# Generated by pormake.
# Topology umq, (4)-cn, num edge types: 1
# Building blocks:
#     Node 0, Type 0, BuildingBlock: GALJAG_clean_sbu_0, # of connection points: 4
#     Node 1, Type 0, BuildingBlock: GALJAG_clean_sbu_0, # of connection points: 4
#     Node 2, Type 0, BuildingBlock: GALJAG_clean_sbu_0, # of connection points: 4
#     Node 3, Type 0, BuildingBlock: GALJAG_clean_sbu_0, # of connection points: 4
#     Node 4, Type 0, BuildingBlock: GALJAG_clean_sbu_0, # of connection points: 4
#     Node 5, Type 0, BuildingBlock: GALJAG_clean_sbu_0, # of connection points: 4
#     Node 6, Type 0, BuildingBlock: GALJAG_clean_sbu_0, # of connection points: 4
#     Node 7, Type 0, BuildingBlock: GALJAG_clean_sbu_0, # of connection points: 4
#     Node 8, Type 0, BuildingBlock: GALJAG_clean_sbu_0, # of connection points: 4
#     Node 9, Type 0, BuildingBlock: GALJAG_clean_sbu_0, # of connection points: 4
#     Node 10, Type 0, BuildingBlock: GALJAG_clean_sbu_0, # of connection points: 4
#     Node 11, Type 0, BuildingBlock: GALJAG_clean_sbu_0, # of connection points: 4
#     Node 12, Type 0, BuildingBlock: GALJAG_clean_sbu_0, # of connection points: 4
#     Node 13, Type 0, BuildingBlock: GALJAG_clean_sbu_0, # of connection points: 4
#     Node 14, Type 0, BuildingBlock: GALJAG_clean_sbu_0, # of connection points: 4
#     Node 15, Type 0, BuildingBlock: GALJAG_clean_sbu_0, # of connection points: 4
#     Node 16, Type 0, BuildingBlock: GALJAG_clean_sbu_0, # of connection points: 4
#     Node 17, Type 0, BuildingBlock: GALJAG_clean_sbu_0, # of connection points: 4
#     Node 18, Type 0, BuildingBlock: GALJAG_clean_sbu_0, # of connection points: 4
#     Node 19, Type 0, BuildingBlock: GALJAG_clean_sbu_0, # of connection points: 4
#     Node 20, Type 0, BuildingBlock: GALJAG_clean_sbu_0, # of connection points: 4
#     Node 21, Type 0, BuildingBlock: GALJAG_clean_sbu_0, # of connection points: 4
#     Node 22, Type 0, BuildingBlock: GALJAG_clean_sbu_0, # of connection points: 4
#     Node 23, Type 0, BuildingBlock: GALJAG_clean_sbu_0, # of connection points: 4
#     Node 24, Type 0, BuildingBlock: GALJAG_clean_sbu_0, # of connection points: 4
#     Node 25, Type 0, BuildingBlock: GALJAG_clean_sbu_0, # of connection points: 4
#     Node 26, Type 0, BuildingBlock: GALJAG_clean_sbu_0, # of connection points: 4
#     Node 27, Type 0, BuildingBlock: GALJAG_clean_sbu_0, # of connection points: 4
#     Node 28, Type 0, BuildingBlock: GALJAG_clean_sbu_0, # of connection points: 4
#     Node 29, Type 0, BuildingBlock: GALJAG_clean_sbu_0, # of connection points: 4
#     Node 30, Type 0, BuildingBlock: GALJAG_clean_sbu_0, # of connection points: 4
#     Node 31, Type 0, BuildingBlock: GALJAG_clean_sbu_0, # of connection points: 4
#     Edge 32, Type (0, 0), BuildingBlock: UVAHIK_clean_linker_0, # of connection points: 2
#     Edge 33, Type (0, 0), BuildingBlock: UVAHIK_clean_linker_0, # of connection points: 2
#     Edge 34, Type (0, 0), BuildingBlock: UVAHIK_clean_linker_0, # of connection points: 2
#     Edge 35, Type (0, 0), BuildingBlock: UVAHIK_clean_linker_0, # of connection points: 2
#     Edge 36, Type (0, 0), BuildingBlock: UVAHIK_clean_linker_0, # of connection points: 2
#     Edge 37, Type (0, 0), BuildingBlock: UVAHIK_clean_linker_0, # of connection points: 2
#     Edge 38, Type (0, 0), BuildingBlock: UVAHIK_clean_linker_0, # of connection points: 2
#     Edge 39, Type (0, 0), BuildingBlock: UVAHIK_clean_linker_0, # of connection points: 2
#     Edge 40, Type (0, 0), BuildingBlock: UVAHIK_clean_linker_0, # of connection points: 2
#     Edge 41, Type (0, 0), BuildingBlock: UVAHIK_clean_linker_0, # of connection points: 2
#     Edge 42, Type (0, 0), BuildingBlock: UVAHIK_clean_linker_0, # of connection points: 2
#     Edge 43, Type (0, 0), BuildingBlock: UVAHIK_clean_linker_0, # of connection points: 2
#     Edge 44, Type (0, 0), BuildingBlock: UVAHIK_clean_linker_0, # of connection points: 2
#     Edge 45, Type (0, 0), BuildingBlock: UVAHIK_clean_linker_0, # of connection points: 2
#     Edge 46, Type (0, 0), BuildingBlock: UVAHIK_clean_linker_0, # of connection points: 2
#     Edge 47, Type (0, 0), BuildingBlock: UVAHIK_clean_linker_0, # of connection points: 2
#     Edge 48, Type (0, 0), BuildingBlock: UVAHIK_clean_linker_0, # of connection points: 2
#     Edge 49, Type (0, 0), BuildingBlock: UVAHIK_clean_linker_0, # of connection points: 2
#     Edge 50, Type (0, 0), BuildingBlock: UVAHIK_clean_linker_0, # of connection points: 2
#     Edge 51, Type (0, 0), BuildingBlock: UVAHIK_clean_linker_0, # of connection points: 2
#     Edge 52, Type (0, 0), BuildingBlock: UVAHIK_clean_linker_0, # of connection points: 2
#     Edge 53, Type (0, 0), BuildingBlock: UVAHIK_clean_linker_0, # of connection points: 2
#     Edge 54, Type (0, 0), BuildingBlock: UVAHIK_clean_linker_0, # of connection points: 2
#     Edge 55, Type (0, 0), BuildingBlock: UVAHIK_clean_linker_0, # of connection points: 2
#     Edge 56, Type (0, 0), BuildingBlock: UVAHIK_clean_linker_0, # of connection points: 2
#     Edge 57, Type (0, 0), BuildingBlock: UVAHIK_clean_linker_0, # of connection points: 2
#     Edge 58, Type (0, 0), BuildingBlock: UVAHIK_clean_linker_0, # of connection points: 2
#     Edge 59, Type (0, 0), BuildingBlock: UVAHIK_clean_linker_0, # of connection points: 2
#     Edge 60, Type (0, 0), BuildingBlock: UVAHIK_clean_linker_0, # of connection points: 2
#     Edge 61, Type (0, 0), BuildingBlock: UVAHIK_clean_linker_0, # of connection points: 2
#     Edge 62, Type (0, 0), BuildingBlock: UVAHIK_clean_linker_0, # of connection points: 2
#     Edge 63, Type (0, 0), BuildingBlock: UVAHIK_clean_linker_0, # of connection points: 2
#     Edge 64, Type (0, 0), BuildingBlock: UVAHIK_clean_linker_0, # of connection points: 2
#     Edge 65, Type (0, 0), BuildingBlock: UVAHIK_clean_linker_0, # of connection points: 2
#     Edge 66, Type (0, 0), BuildingBlock: UVAHIK_clean_linker_0, # of connection points: 2
#     Edge 67, Type (0, 0), BuildingBlock: UVAHIK_clean_linker_0, # of connection points: 2
#     Edge 68, Type (0, 0), BuildingBlock: UVAHIK_clean_linker_0, # of connection points: 2
#     Edge 69, Type (0, 0), BuildingBlock: UVAHIK_clean_linker_0, # of connection points: 2
#     Edge 70, Type (0, 0), BuildingBlock: UVAHIK_clean_linker_0, # of connection points: 2
#     Edge 71, Type (0, 0), BuildingBlock: UVAHIK_clean_linker_0, # of connection points: 2
#     Edge 72, Type (0, 0), BuildingBlock: UVAHIK_clean_linker_0, # of connection points: 2
#     Edge 73, Type (0, 0), BuildingBlock: UVAHIK_clean_linker_0, # of connection points: 2
#     Edge 74, Type (0, 0), BuildingBlock: UVAHIK_clean_linker_0, # of connection points: 2
#     Edge 75, Type (0, 0), BuildingBlock: UVAHIK_clean_linker_0, # of connection points: 2
#     Edge 76, Type (0, 0), BuildingBlock: UVAHIK_clean_linker_0, # of connection points: 2
#     Edge 77, Type (0, 0), BuildingBlock: UVAHIK_clean_linker_0, # of connection points: 2
#     Edge 78, Type (0, 0), BuildingBlock: UVAHIK_clean_linker_0, # of connection points: 2
#     Edge 79, Type (0, 0), BuildingBlock: UVAHIK_clean_linker_0, # of connection points: 2
#     Edge 80, Type (0, 0), BuildingBlock: UVAHIK_clean_linker_0, # of connection points: 2
#     Edge 81, Type (0, 0), BuildingBlock: UVAHIK_clean_linker_0, # of connection points: 2
#     Edge 82, Type (0, 0), BuildingBlock: UVAHIK_clean_linker_0, # of connection points: 2
#     Edge 83, Type (0, 0), BuildingBlock: UVAHIK_clean_linker_0, # of connection points: 2
#     Edge 84, Type (0, 0), BuildingBlock: UVAHIK_clean_linker_0, # of connection points: 2
#     Edge 85, Type (0, 0), BuildingBlock: UVAHIK_clean_linker_0, # of connection points: 2
#     Edge 86, Type (0, 0), BuildingBlock: UVAHIK_clean_linker_0, # of connection points: 2
#     Edge 87, Type (0, 0), BuildingBlock: UVAHIK_clean_linker_0, # of connection points: 2
#     Edge 88, Type (0, 0), BuildingBlock: UVAHIK_clean_linker_0, # of connection points: 2
#     Edge 89, Type (0, 0), BuildingBlock: UVAHIK_clean_linker_0, # of connection points: 2
#     Edge 90, Type (0, 0), BuildingBlock: UVAHIK_clean_linker_0, # of connection points: 2
#     Edge 91, Type (0, 0), BuildingBlock: UVAHIK_clean_linker_0, # of connection points: 2
#     Edge 92, Type (0, 0), BuildingBlock: UVAHIK_clean_linker_0, # of connection points: 2
#     Edge 93, Type (0, 0), BuildingBlock: UVAHIK_clean_linker_0, # of connection points: 2
#     Edge 94, Type (0, 0), BuildingBlock: UVAHIK_clean_linker_0, # of connection points: 2
#     Edge 95, Type (0, 0), BuildingBlock: UVAHIK_clean_linker_0, # of connection points: 2
# Relax obj value: 0.107
# Max RMSD: 0.085
# Mean RMSD: 0.085
data_MOF--net-umq--node1-GALJAG_clean_sbu_0--edge1-UVAHIK_clean_linker_0
_symmetry_space_group_name_H-M    P1
_symmetry_Int_Tables_number       1
_symmetry_cell_setting            triclinic
loop_
_symmetry_equiv_pos_as_xyz
'x, y, z'
_cell_length_a     81.509165
_cell_length_b     81.509328
_cell_length_c     62.211523
_cell_angle_alpha  90.003451
_cell_angle_beta   89.994074
_cell_angle_gamma 89.990033
loop_
_atom_site_label
_atom_site_type_symbol
_atom_site_fract_x
_atom_site_fract_y
_atom_site_fract_z
_atom_type_partial_charge
In0 In 0.2319 0.09326 0.15111 0.0
O1 O 0.20843 0.10803 0.15691 0.0
O2 O 0.22388 0.10298 0.18364 0.0
C3 C 0.22752 0.08374 0.10996 0.0
C4 C 0.23305 0.06437 0.17193 0.0
C5 C 0.25631 0.11554 0.14816 0.0
O6 O 0.21649 0.09104 0.12052 0.0
O7 O 0.24057 0.08109 0.12025 0.0
O8 O 0.25818 0.10183 0.15723 0.0
O9 O 0.24219 0.11796 0.14055 0.0
C10 C 0.21089 0.10958 0.17685 0.0
O11 O 0.24553 0.07336 0.1695 0.0
O12 O 0.22008 0.06979 0.16341 0.0
In13 In 0.90114 0.22981 0.15203 0.0
O14 O 0.88949 0.20516 0.16057 0.0
O15 O 0.88419 0.22565 0.18052 0.0
C16 C 0.91102 0.2232 0.1115 0.0
C17 C 0.92865 0.23022 0.17607 0.0
C18 C 0.88143 0.25596 0.14578 0.0
O19 O 0.9001 0.21495 0.12094 0.0
O20 O 0.9171 0.23462 0.1226 0.0
O21 O 0.89438 0.25671 0.15686 0.0
O22 O 0.87853 0.24207 0.13769 0.0
C23 C 0.88202 0.2106 0.17686 0.0
O24 O 0.92132 0.24315 0.17042 0.0
O25 O 0.92227 0.21712 0.16926 0.0
In26 In 0.76604 0.90115 0.15024 0.0
O27 O 0.75194 0.9206 0.1689 0.0
O28 O 0.77744 0.92447 0.16372 0.0
C29 C 0.74119 0.87952 0.14573 0.0
C30 C 0.78631 0.88367 0.17575 0.0
C31 C 0.77231 0.91138 0.10978 0.0
O32 O 0.7394 0.89322 0.15484 0.0
O33 O 0.75547 0.87677 0.13884 0.0
O34 O 0.78312 0.90488 0.12152 0.0
O35 O 0.75845 0.91288 0.11853 0.0
C36 C 0.76429 0.92964 0.17201 0.0
O37 O 0.78851 0.8849 0.15573 0.0
O38 O 0.77391 0.89118 0.1828 0.0
In39 In 0.0952 0.7647 0.15154 0.0
O40 O 0.10599 0.78967 0.16042 0.0
O41 O 0.11043 0.76962 0.18146 0.0
C42 C 0.08555 0.771 0.11086 0.0
C43 C 0.06724 0.76317 0.17453 0.0
C44 C 0.11627 0.73969 0.14488 0.0
O45 O 0.09596 0.77972 0.12058 0.0
O46 O 0.07985 0.75928 0.12176 0.0
O47 O 0.10302 0.73794 0.15512 0.0
O48 O 0.11883 0.75401 0.13798 0.0
C49 C 0.11253 0.78465 0.1776 0.0
O50 O 0.07569 0.75061 0.17025 0.0
O51 O 0.07272 0.77639 0.16685 0.0
In52 In 0.23184 0.90127 0.34322 0.0
O53 O 0.20698 0.88941 0.33612 0.0
O54 O 0.22638 0.88571 0.3138 0.0
C55 C 0.22653 0.9115 0.3839 0.0
C56 C 0.23249 0.92907 0.31978 0.0
C57 C 0.25736 0.88057 0.34837 0.0
O58 O 0.21711 0.90155 0.37446 0.0
O59 O 0.23844 0.91643 0.37272 0.0
O60 O 0.2582 0.89332 0.33693 0.0
O61 O 0.24366 0.87829 0.35732 0.0
C62 C 0.21161 0.88301 0.31866 0.0
O63 O 0.24533 0.92137 0.32489 0.0
O64 O 0.21936 0.92295 0.32689 0.0
In65 In 0.09487 0.22976 0.34177 0.0
O66 O 0.07487 0.24319 0.32331 0.0
O67 O 0.07157 0.21769 0.32923 0.0
C68 C 0.11686 0.25444 0.34485 0.0
C69 C 0.11149 0.20861 0.31654 0.0
C70 C 0.08534 0.22536 0.38292 0.0
O71 O 0.1033 0.25605 0.33532 0.0
O72 O 0.11928 0.24045 0.35285 0.0
O73 O 0.09329 0.21464 0.37264 0.0
O74 O 0.08203 0.23814 0.37236 0.0
C75 C 0.06602 0.23063 0.32078 0.0
O76 O 0.10923 0.20603 0.33633 0.0
O77 O 0.10543 0.22182 0.3096 0.0
In78 In 0.76388 0.09295 0.34295 0.0
O79 O 0.78796 0.10555 0.33417 0.0
O80 O 0.76773 0.10844 0.31296 0.0
C81 C 0.77148 0.08364 0.3834 0.0
C82 C 0.76318 0.06485 0.32006 0.0
C83 C 0.73814 0.11315 0.34942 0.0
O84 O 0.7805 0.09302 0.37245 0.0
O85 O 0.75872 0.0788 0.37387 0.0
O86 O 0.73698 0.09996 0.33892 0.0
O87 O 0.75225 0.11608 0.35683 0.0
C88 C 0.78254 0.1117 0.31695 0.0
O89 O 0.75032 0.07227 0.32573 0.0
O90 O 0.77634 0.07141 0.32633 0.0
In91 In 0.90208 0.76399 0.34212 0.0
O92 O 0.88739 0.78741 0.3358 0.0
O93 O 0.89095 0.7708 0.30987 0.0
C94 C 0.91226 0.76964 0.38273 0.0
C95 C 0.93061 0.76285 0.32042 0.0
C96 C 0.88036 0.73923 0.3469 0.0
O97 O 0.90395 0.77995 0.37224 0.0
O98 O 0.91559 0.75665 0.37264 0.0
O99 O 0.89367 0.73756 0.33679 0.0
O100 O 0.87806 0.75333 0.35464 0.0
C101 C 0.88487 0.78417 0.31623 0.0
O102 O 0.92215 0.75021 0.3242 0.0
O103 O 0.92485 0.77601 0.32801 0.0
In104 In 0.76474 0.90323 0.84238 0.0
O105 O 0.78752 0.88772 0.83561 0.0
O106 O 0.77174 0.89336 0.80945 0.0
C107 C 0.77137 0.91284 0.88298 0.0
C108 C 0.76287 0.93197 0.82124 0.0
C109 C 0.7402 0.88129 0.84712 0.0
O110 O 0.78199 0.90623 0.87104 0.0
O111 O 0.75751 0.91476 0.87436 0.0
O112 O 0.73808 0.89513 0.83848 0.0
O113 O 0.75464 0.87858 0.85344 0.0
C114 C 0.78464 0.88632 0.81576 0.0
O115 O 0.75051 0.92295 0.82438 0.0
O116 O 0.77607 0.92666 0.82923 0.0
In117 In 0.09381 0.76405 0.84168 0.0
O118 O 0.07384 0.75028 0.82354 0.0
O119 O 0.07053 0.77587 0.82882 0.0
C120 C 0.11568 0.73942 0.84636 0.0
C121 C 0.10963 0.78432 0.81447 0.0
C122 C 0.08494 0.76999 0.88275 0.0
O123 O 0.10174 0.7373 0.838 0.0
O124 O 0.11852 0.7539 0.85241 0.0
O125 O 0.0943 0.77942 0.87237 0.0
O126 O 0.07991 0.75771 0.87234 0.0
C127 C 0.06502 0.76282 0.82063 0.0
O128 O 0.10631 0.78837 0.83357 0.0
O129 O 0.10514 0.77006 0.80927 0.0
In130 In 0.23123 0.09523 0.84052 0.0
O131 O 0.20779 0.11057 0.83745 0.0
O132 O 0.22008 0.10349 0.80883 0.0
C133 C 0.22733 0.08493 0.88143 0.0
C134 C 0.23405 0.0673 0.81778 0.0
C135 C 0.25566 0.11752 0.84371 0.0
O136 O 0.21576 0.09117 0.87071 0.0
O137 O 0.24072 0.08369 0.8714 0.0
O138 O 0.25803 0.10302 0.83739 0.0
O139 O 0.24099 0.12077 0.84844 0.0
C140 C 0.20817 0.11099 0.81718 0.0
O141 O 0.24404 0.07905 0.81606 0.0
O142 O 0.22268 0.06952 0.83127 0.0
In143 In 0.90095 0.23044 0.84335 0.0
O144 O 0.88648 0.20699 0.8364 0.0
O145 O 0.88941 0.2243 0.81112 0.0
C146 C 0.91091 0.22412 0.8839 0.0
C147 C 0.92938 0.23147 0.82146 0.0
C148 C 0.87954 0.25545 0.84826 0.0
O149 O 0.90185 0.21443 0.87348 0.0
O150 O 0.9151 0.23684 0.87378 0.0
O151 O 0.89297 0.25705 0.83843 0.0
O152 O 0.87699 0.24132 0.85576 0.0
C153 C 0.8836 0.2107 0.81706 0.0
O154 O 0.92126 0.24419 0.82597 0.0
O155 O 0.92335 0.21824 0.82847 0.0
In156 In 0.7644 0.09471 0.65028 0.0
O157 O 0.78621 0.11184 0.6557 0.0
O158 O 0.77195 0.10494 0.68283 0.0
C159 C 0.77156 0.08458 0.61003 0.0
C160 C 0.76338 0.06612 0.67186 0.0
C161 C 0.73877 0.1155 0.64618 0.0
O162 O 0.78189 0.0917 0.62189 0.0
O163 O 0.7577 0.08241 0.61857 0.0
O164 O 0.73786 0.10228 0.65662 0.0
O165 O 0.75256 0.11819 0.63772 0.0
C166 C 0.78404 0.11292 0.67574 0.0
O167 O 0.75061 0.07403 0.66695 0.0
O168 O 0.77663 0.07242 0.66538 0.0
In169 In 0.90112 0.76612 0.65133 0.0
O170 O 0.92146 0.75244 0.66874 0.0
O171 O 0.92359 0.77837 0.66603 0.0
C172 C 0.87958 0.74102 0.64839 0.0
C173 C 0.88365 0.7871 0.67581 0.0
C174 C 0.91152 0.77105 0.61063 0.0
O175 O 0.89263 0.74012 0.65918 0.0
O176 O 0.87742 0.75454 0.63899 0.0
O177 O 0.90348 0.7817 0.62092 0.0
O178 O 0.91446 0.75808 0.62096 0.0
C179 C 0.92962 0.76516 0.67311 0.0
O180 O 0.88573 0.78933 0.65592 0.0
O181 O 0.8903 0.77433 0.68321 0.0
In182 In 0.22985 0.90094 0.65253 0.0
O183 O 0.20668 0.88512 0.6549 0.0
O184 O 0.21755 0.89354 0.68387 0.0
C185 C 0.22593 0.9116 0.61179 0.0
C186 C 0.23311 0.92854 0.67584 0.0
C187 C 0.25419 0.8785 0.64958 0.0
O188 O 0.21434 0.90542 0.62252 0.0
O189 O 0.23937 0.9126 0.62171 0.0
O190 O 0.25668 0.89307 0.65549 0.0
O191 O 0.23947 0.87526 0.64514 0.0
C192 C 0.20621 0.88542 0.67516 0.0
O193 O 0.24249 0.91633 0.67799 0.0
O194 O 0.22213 0.92693 0.66165 0.0
In195 In 0.09347 0.23218 0.65262 0.0
O196 O 0.10687 0.20814 0.65969 0.0
O197 O 0.10437 0.22546 0.68503 0.0
C198 C 0.08422 0.22696 0.61153 0.0
C199 C 0.06469 0.23342 0.67372 0.0
C200 C 0.11561 0.25661 0.64843 0.0
O201 O 0.09256 0.21668 0.62203 0.0
O202 O 0.08037 0.2397 0.62185 0.0
O203 O 0.10186 0.25868 0.65735 0.0
O204 O 0.11813 0.24227 0.6416 0.0
C205 C 0.10963 0.21163 0.67913 0.0
O206 O 0.07354 0.24593 0.67086 0.0
O207 O 0.07016 0.22038 0.66545 0.0
In208 In 0.73024 0.59443 0.65155 0.0
O209 O 0.70714 0.60997 0.65616 0.0
O210 O 0.72197 0.60507 0.68352 0.0
C211 C 0.72532 0.58413 0.61081 0.0
C212 C 0.73089 0.56591 0.67328 0.0
C213 C 0.75534 0.61596 0.64851 0.0
O214 O 0.71473 0.59223 0.6211 0.0
O215 O 0.73826 0.58106 0.62115 0.0
O216 O 0.75636 0.60282 0.6591 0.0
O217 O 0.74173 0.6182 0.63938 0.0
C218 C 0.70929 0.61187 0.6761 0.0
O219 O 0.74367 0.57414 0.66943 0.0
O220 O 0.71781 0.57188 0.6657 0.0
In221 In 0.40196 0.73036 0.65199 0.0
O222 O 0.38784 0.7067 0.65868 0.0
O223 O 0.39075 0.72376 0.68427 0.0
C224 C 0.41201 0.72421 0.61143 0.0
C225 C 0.43023 0.73162 0.67422 0.0
C226 C 0.38008 0.75499 0.64724 0.0
O227 O 0.40306 0.71441 0.62185 0.0
O228 O 0.41602 0.737 0.62154 0.0
O229 O 0.39393 0.75707 0.65584 0.0
O230 O 0.37738 0.74057 0.64085 0.0
C231 C 0.38505 0.71017 0.67813 0.0
O232 O 0.42172 0.74421 0.67035 0.0
O233 O 0.42468 0.71844 0.66642 0.0
In234 In 0.26579 0.40218 0.65061 0.0
O235 O 0.25178 0.42251 0.66775 0.0
O236 O 0.27766 0.42497 0.66485 0.0
C237 C 0.24093 0.38057 0.64617 0.0
C238 C 0.28543 0.38479 0.67698 0.0
C239 C 0.27247 0.4119 0.61006 0.0
O240 O 0.23919 0.39422 0.65546 0.0
O241 O 0.25514 0.37789 0.639 0.0
O242 O 0.28299 0.40498 0.62183 0.0
O243 O 0.25869 0.41405 0.61882 0.0
C244 C 0.26441 0.43088 0.67193 0.0
O245 O 0.28846 0.38646 0.6572 0.0
O246 O 0.27252 0.39179 0.68333 0.0
In247 In 0.593 0.26521 0.65018 0.0
O248 O 0.57255 0.25152 0.66749 0.0
O249 O 0.57067 0.27748 0.6651 0.0
C250 C 0.6139 0.23968 0.64614 0.0
C251 C 0.61134 0.28502 0.67525 0.0
C252 C 0.58262 0.27197 0.60992 0.0
O253 O 0.60064 0.23869 0.65649 0.0
O254 O 0.61657 0.2535 0.63775 0.0
O255 O 0.58938 0.28256 0.62174 0.0
O256 O 0.58095 0.25805 0.6185 0.0
C257 C 0.56453 0.2643 0.67206 0.0
O258 O 0.61019 0.28704 0.65519 0.0
O259 O 0.60336 0.27301 0.68254 0.0
In260 In 0.72991 0.40156 0.84193 0.0
O261 O 0.70642 0.38716 0.83509 0.0
O262 O 0.72349 0.39035 0.80959 0.0
C263 C 0.72418 0.41116 0.88276 0.0
C264 C 0.73084 0.43021 0.8205 0.0
C265 C 0.75477 0.37994 0.84651 0.0
O266 O 0.71408 0.40262 0.87223 0.0
O267 O 0.73698 0.41504 0.87259 0.0
O268 O 0.7565 0.39348 0.83696 0.0
O269 O 0.74058 0.37738 0.85382 0.0
C270 C 0.70996 0.38447 0.81564 0.0
O271 O 0.74352 0.42175 0.82408 0.0
O272 O 0.71774 0.42439 0.82817 0.0
In273 In 0.59432 0.73143 0.84307 0.0
O274 O 0.60831 0.70775 0.83592 0.0
O275 O 0.60517 0.72493 0.81054 0.0
C276 C 0.58485 0.72557 0.88394 0.0
C277 C 0.56561 0.73253 0.82182 0.0
C278 C 0.61605 0.7562 0.84759 0.0
O279 O 0.59371 0.7157 0.87348 0.0
O280 O 0.58063 0.73823 0.8737 0.0
O281 O 0.6023 0.7581 0.83865 0.0
O282 O 0.61878 0.74188 0.85432 0.0
C283 C 0.61086 0.71127 0.81644 0.0
O284 O 0.57423 0.74515 0.82517 0.0
O285 O 0.57131 0.71942 0.82963 0.0
In286 In 0.26553 0.59345 0.84333 0.0
O287 O 0.25146 0.57383 0.82492 0.0
O288 O 0.27711 0.57042 0.82932 0.0
C289 C 0.24062 0.61503 0.84796 0.0
C290 C 0.28567 0.61108 0.81789 0.0
C291 C 0.27239 0.58324 0.88363 0.0
O292 O 0.2388 0.60128 0.83898 0.0
O293 O 0.25493 0.61781 0.85471 0.0
O294 O 0.28291 0.59001 0.87171 0.0
O295 O 0.25847 0.58143 0.87513 0.0
C296 C 0.26393 0.56505 0.82136 0.0
O297 O 0.28783 0.60986 0.8379 0.0
O298 O 0.27334 0.60349 0.81077 0.0
In299 In 0.40227 0.26674 0.84389 0.0
O300 O 0.38589 0.28914 0.83859 0.0
O301 O 0.39254 0.27486 0.81136 0.0
C302 C 0.41228 0.27277 0.88452 0.0
C303 C 0.43076 0.26502 0.82215 0.0
C304 C 0.38054 0.2419 0.8475 0.0
O305 O 0.40617 0.28373 0.87267 0.0
O306 O 0.41346 0.25886 0.87581 0.0
O307 O 0.39454 0.24006 0.83922 0.0
O308 O 0.37756 0.25621 0.85411 0.0
C309 C 0.38484 0.28712 0.81852 0.0
O310 O 0.42178 0.25265 0.82535 0.0
O311 O 0.42554 0.27819 0.83034 0.0
In312 In 0.26524 0.40208 0.34285 0.0
O313 O 0.28788 0.38615 0.33714 0.0
O314 O 0.27293 0.39202 0.31024 0.0
C315 C 0.27182 0.41191 0.38339 0.0
C316 C 0.26327 0.43088 0.32183 0.0
C317 C 0.24058 0.38014 0.34662 0.0
O318 O 0.28253 0.40556 0.37136 0.0
O319 O 0.25786 0.41345 0.37489 0.0
O320 O 0.23896 0.39355 0.33673 0.0
O321 O 0.25457 0.37788 0.35474 0.0
C322 C 0.2855 0.38473 0.31718 0.0
O323 O 0.25079 0.42236 0.3262 0.0
O324 O 0.27668 0.42505 0.3285 0.0
In325 In 0.59412 0.26411 0.34382 0.0
O326 O 0.5739 0.25042 0.32606 0.0
O327 O 0.57178 0.27635 0.32881 0.0
C328 C 0.61468 0.2384 0.34877 0.0
C329 C 0.61274 0.28346 0.31848 0.0
C330 C 0.58352 0.27125 0.38387 0.0
O331 O 0.6013 0.23733 0.33868 0.0
O332 O 0.61765 0.25241 0.35642 0.0
O333 O 0.59046 0.28171 0.37202 0.0
O334 O 0.58179 0.2573 0.37544 0.0
C335 C 0.5658 0.26317 0.32161 0.0
O336 O 0.61148 0.28576 0.33848 0.0
O337 O 0.60472 0.2714 0.31139 0.0
In338 In 0.73042 0.59388 0.34223 0.0
O339 O 0.7054 0.60511 0.3344 0.0
O340 O 0.72523 0.60985 0.31309 0.0
C341 C 0.72499 0.58383 0.38296 0.0
C342 C 0.73127 0.56619 0.3186 0.0
C343 C 0.7556 0.61486 0.34808 0.0
O344 O 0.71571 0.59387 0.37346 0.0
O345 O 0.73684 0.5787 0.37181 0.0
O346 O 0.75703 0.60176 0.33742 0.0
O347 O 0.74153 0.61728 0.35592 0.0
C348 C 0.71028 0.61205 0.31742 0.0
O349 O 0.744 0.57436 0.32291 0.0
O350 O 0.7182 0.57182 0.32655 0.0
In351 In 0.40061 0.7291 0.34424 0.0
O352 O 0.39344 0.7034 0.33284 0.0
O353 O 0.37901 0.72351 0.32221 0.0
C354 C 0.41121 0.72226 0.38445 0.0
C355 C 0.42692 0.73172 0.31814 0.0
C356 C 0.38113 0.75547 0.3497 0.0
O357 O 0.39951 0.71468 0.3757 0.0
O358 O 0.4177 0.73312 0.37283 0.0
O359 O 0.39257 0.7551 0.33601 0.0
O360 O 0.37959 0.74255 0.36074 0.0
C361 C 0.38142 0.70825 0.32178 0.0
O362 O 0.42013 0.74405 0.32654 0.0
O363 O 0.42059 0.71814 0.32315 0.0
In364 In 0.26486 0.59388 0.15055 0.0
O365 O 0.25015 0.57487 0.16956 0.0
O366 O 0.27591 0.57159 0.16699 0.0
C367 C 0.23978 0.6145 0.1427 0.0
C368 C 0.28413 0.61195 0.17667 0.0
C369 C 0.27245 0.58436 0.11021 0.0
O370 O 0.23806 0.60148 0.15348 0.0
O371 O 0.25412 0.61701 0.13574 0.0
O372 O 0.28107 0.59442 0.12067 0.0
O373 O 0.26009 0.57899 0.12015 0.0
C374 C 0.26253 0.56638 0.17448 0.0
O375 O 0.28993 0.60276 0.16224 0.0
O376 O 0.2687 0.61214 0.17776 0.0
In377 In 0.4024 0.26542 0.15169 0.0
O378 O 0.38618 0.28787 0.15745 0.0
O379 O 0.39252 0.2731 0.18433 0.0
C380 C 0.41237 0.27177 0.11115 0.0
C381 C 0.4311 0.26372 0.17297 0.0
C382 C 0.38063 0.24065 0.14771 0.0
O383 O 0.4061 0.2826 0.12308 0.0
O384 O 0.41375 0.25783 0.11974 0.0
O385 O 0.39426 0.23892 0.15704 0.0
O386 O 0.37806 0.2548 0.14026 0.0
C387 C 0.38499 0.28554 0.17744 0.0
O388 O 0.42236 0.25125 0.16933 0.0
O389 O 0.42553 0.27698 0.16544 0.0
In390 In 0.73106 0.40055 0.15175 0.0
O391 O 0.70806 0.38528 0.15831 0.0
O392 O 0.72486 0.389 0.18398 0.0
C393 C 0.72497 0.41024 0.11102 0.0
C394 C 0.73131 0.42923 0.17319 0.0
C395 C 0.75677 0.37995 0.14708 0.0
O396 O 0.71511 0.40139 0.12151 0.0
O397 O 0.7377 0.41435 0.12118 0.0
O398 O 0.75779 0.3933 0.15722 0.0
O399 O 0.74281 0.37701 0.13926 0.0
C400 C 0.71158 0.38266 0.17778 0.0
O401 O 0.7442 0.42121 0.16925 0.0
O402 O 0.71829 0.42294 0.16591 0.0
In403 In 0.59329 0.7321 0.15309 0.0
O404 O 0.60364 0.70703 0.16256 0.0
O405 O 0.60798 0.7272 0.18345 0.0
C406 C 0.58431 0.72595 0.11213 0.0
C407 C 0.56482 0.73429 0.17488 0.0
C408 C 0.61495 0.75665 0.14686 0.0
O409 O 0.59412 0.71684 0.12231 0.0
O410 O 0.57891 0.738 0.12269 0.0
O411 O 0.60146 0.75876 0.15644 0.0
O412 O 0.61742 0.74221 0.14031 0.0
C413 C 0.61005 0.71213 0.17978 0.0
O414 O 0.57397 0.74653 0.17166 0.0
O415 O 0.56994 0.72103 0.16689 0.0
C416 C 0.35332 0.23005 0.13593 0.0
C417 C 0.36844 0.22732 0.14614 0.0
C418 C 0.3415 0.21767 0.13515 0.0
C419 C 0.33582 0.17289 0.14053 0.0
H420 H 0.29064 0.18482 0.15225 0.0
C421 C 0.28495 0.12485 0.15594 0.0
C422 C 0.26949 0.12791 0.14682 0.0
C423 C 0.29727 0.13676 0.1551 0.0
C424 C 0.30316 0.18131 0.14868 0.0
H425 H 0.38316 0.20944 0.16328 0.0
H426 H 0.36245 0.18783 0.16208 0.0
H427 H 0.31173 0.20597 0.15199 0.0
H428 H 0.25485 0.14569 0.12939 0.0
H429 H 0.27637 0.16641 0.12774 0.0
H430 H 0.32722 0.14818 0.13733 0.0
C431 C 0.35979 0.19949 0.15448 0.0
C432 C 0.31525 0.19343 0.14852 0.0
C433 C 0.37162 0.21189 0.15527 0.0
C434 C 0.26663 0.14302 0.13665 0.0
C435 C 0.27893 0.15492 0.13581 0.0
C436 C 0.32372 0.16074 0.14068 0.0
C437 C 0.34454 0.20229 0.14457 0.0
C438 C 0.33172 0.18937 0.14446 0.0
C439 C 0.29436 0.15196 0.14513 0.0
C440 C 0.30725 0.16483 0.14477 0.0
H441 H 0.35055 0.24181 0.12867 0.0
H442 H 0.32997 0.22014 0.12712 0.0
H443 H 0.34837 0.16939 0.13707 0.0
H444 H 0.2875 0.11331 0.16392 0.0
H445 H 0.30897 0.13417 0.16263 0.0
C446 C 0.85544 0.26822 0.13182 0.0
C447 C 0.87014 0.26999 0.14335 0.0
C448 C 0.84426 0.28118 0.13063 0.0
C449 C 0.83193 0.31848 0.15966 0.0
H450 H 0.80713 0.32755 0.1078 0.0
C451 C 0.78586 0.37205 0.15456 0.0
C452 C 0.77069 0.36848 0.14494 0.0
C453 C 0.79885 0.36092 0.15315 0.0
C454 C 0.81389 0.32508 0.12244 0.0
H455 H 0.88493 0.28682 0.16215 0.0
H456 H 0.86547 0.30952 0.15988 0.0
H457 H 0.82851 0.30657 0.1073 0.0
H458 H 0.75725 0.35062 0.12604 0.0
H459 H 0.77988 0.33112 0.12374 0.0
H460 H 0.8172 0.33683 0.17489 0.0
C461 C 0.86247 0.29804 0.15203 0.0
C462 C 0.82613 0.31308 0.12216 0.0
C463 C 0.87365 0.28508 0.15323 0.0
C464 C 0.76882 0.3537 0.1336 0.0
C465 C 0.78181 0.34258 0.13216 0.0
C466 C 0.81971 0.33049 0.15995 0.0
C467 C 0.84756 0.29617 0.14093 0.0
C468 C 0.83518 0.30954 0.14082 0.0
C469 C 0.79693 0.34601 0.14206 0.0
C470 C 0.81046 0.33383 0.14139 0.0
H471 H 0.8524 0.25672 0.12407 0.0
H472 H 0.8328 0.27927 0.12216 0.0
H473 H 0.83849 0.31588 0.17441 0.0
H474 H 0.78767 0.38338 0.16333 0.0
H475 H 0.81041 0.364 0.16072 0.0
C476 C 0.62426 0.78556 0.15263 0.0
C477 C 0.6272 0.76983 0.14426 0.0
C478 C 0.63624 0.79777 0.15111 0.0
C479 C 0.68085 0.80285 0.14493 0.0
H480 H 0.66975 0.84813 0.13248 0.0
C481 C 0.73053 0.85231 0.13364 0.0
C482 C 0.72776 0.86748 0.1437 0.0
C483 C 0.71801 0.84066 0.13236 0.0
C484 C 0.67301 0.83556 0.13615 0.0
H485 H 0.64477 0.75463 0.12726 0.0
H486 H 0.66562 0.77598 0.12443 0.0
H487 H 0.64823 0.82729 0.13251 0.0
H488 H 0.70967 0.88248 0.16004 0.0
H489 H 0.68782 0.86206 0.15801 0.0
H490 H 0.70557 0.81109 0.14878 0.0
C491 C 0.65417 0.77882 0.13245 0.0
C492 C 0.66069 0.82363 0.13617 0.0
C493 C 0.64219 0.76663 0.13396 0.0
C494 C 0.71215 0.87088 0.15217 0.0
C495 C 0.69962 0.85923 0.15089 0.0
C496 C 0.69314 0.81476 0.14492 0.0
C497 C 0.6514 0.79448 0.1412 0.0
C498 C 0.66447 0.80715 0.14061 0.0
C499 C 0.70245 0.84393 0.14113 0.0
C500 C 0.68937 0.83126 0.1406 0.0
H501 H 0.61282 0.78837 0.16068 0.0
H502 H 0.6338 0.80966 0.1582 0.0
H503 H 0.68412 0.79031 0.14879 0.0
H504 H 0.74242 0.84937 0.12688 0.0
H505 H 0.72051 0.82908 0.12447 0.0
C506 C 0.2108 0.62354 0.14861 0.0
C507 C 0.22631 0.62635 0.13948 0.0
C508 C 0.1984 0.6353 0.14681 0.0
C509 C 0.19287 0.67962 0.13867 0.0
H510 H 0.14722 0.66801 0.12994 0.0
C511 C 0.14271 0.7289 0.1303 0.0
C512 C 0.12812 0.7262 0.14176 0.0
C513 C 0.15429 0.71638 0.12813 0.0
C514 C 0.15991 0.67142 0.13255 0.0
H515 H 0.24086 0.64341 0.12072 0.0
H516 H 0.21917 0.66388 0.11742 0.0
H517 H 0.16819 0.64661 0.12927 0.0
H518 H 0.11402 0.70821 0.15958 0.0
H519 H 0.13433 0.68637 0.15601 0.0
H520 H 0.18463 0.70436 0.14225 0.0
C521 C 0.21666 0.6527 0.12623 0.0
C522 C 0.17191 0.65917 0.13215 0.0
C523 C 0.22905 0.64094 0.12802 0.0
C524 C 0.12516 0.71064 0.15065 0.0
C525 C 0.13675 0.6981 0.14849 0.0
C526 C 0.18089 0.69185 0.13907 0.0
C527 C 0.20127 0.65012 0.13587 0.0
C528 C 0.18852 0.66313 0.13533 0.0
C529 C 0.15153 0.70089 0.13739 0.0
C530 C 0.16426 0.68789 0.13613 0.0
H531 H 0.20834 0.6124 0.15754 0.0
H532 H 0.18674 0.63301 0.15459 0.0
H533 H 0.20552 0.68305 0.14156 0.0
H534 H 0.14528 0.74074 0.12317 0.0
H535 H 0.16543 0.71884 0.11921 0.0
C536 C 0.28579 0.87154 0.3391 0.0
C537 C 0.27115 0.86896 0.35053 0.0
C538 C 0.29857 0.86017 0.34033 0.0
C539 C 0.31494 0.82603 0.3729 0.0
H540 H 0.3356 0.81298 0.31942 0.0
C541 C 0.35625 0.76869 0.36559 0.0
C542 C 0.36988 0.76956 0.35182 0.0
C543 C 0.34502 0.78163 0.36657 0.0
C544 C 0.33016 0.81666 0.33455 0.0
H545 H 0.25853 0.85266 0.37255 0.0
H546 H 0.28086 0.83275 0.37465 0.0
H547 H 0.31454 0.83415 0.31912 0.0
H548 H 0.38276 0.78482 0.32881 0.0
H549 H 0.36333 0.80753 0.33079 0.0
H550 H 0.33052 0.80846 0.38832 0.0
C551 C 0.28249 0.84362 0.36486 0.0
C552 C 0.31807 0.82879 0.33437 0.0
C553 C 0.26967 0.85497 0.36356 0.0
C554 C 0.37231 0.78377 0.33948 0.0
C555 C 0.36112 0.79673 0.34052 0.0
C556 C 0.32709 0.81393 0.3731 0.0
C557 C 0.29701 0.84602 0.35308 0.0
C558 C 0.31026 0.83354 0.35351 0.0
C559 C 0.34723 0.79572 0.35386 0.0
C560 C 0.33478 0.80904 0.3539 0.0
H561 H 0.2873 0.88225 0.32898 0.0
H562 H 0.3097 0.86246 0.33129 0.0
H563 H 0.30927 0.82959 0.38795 0.0
H564 H 0.35405 0.75787 0.37526 0.0
H565 H 0.33436 0.78037 0.37683 0.0
C566 C 0.23 0.35293 0.35881 0.0
C567 C 0.22735 0.36783 0.34803 0.0
C568 C 0.21774 0.34098 0.35944 0.0
C569 C 0.17318 0.33468 0.35241 0.0
H570 H 0.18587 0.28946 0.34245 0.0
C571 C 0.12605 0.28305 0.33662 0.0
C572 C 0.12907 0.26777 0.34627 0.0
C573 C 0.13781 0.29551 0.33757 0.0
C574 C 0.18214 0.302 0.34553 0.0
H575 H 0.20974 0.38204 0.32971 0.0
H576 H 0.18834 0.3611 0.33065 0.0
H577 H 0.20678 0.3108 0.34297 0.0
H578 H 0.14662 0.25359 0.36473 0.0
H579 H 0.16707 0.27536 0.36656 0.0
H580 H 0.14851 0.32586 0.35487 0.0
C581 C 0.19983 0.35871 0.3388 0.0
C582 C 0.19413 0.31423 0.34582 0.0
C583 C 0.21211 0.37067 0.33817 0.0
C584 C 0.14398 0.26522 0.35706 0.0
C585 C 0.15573 0.27767 0.358 0.0
C586 C 0.16118 0.32244 0.35212 0.0
C587 C 0.20256 0.34368 0.3493 0.0
C588 C 0.18979 0.33071 0.34926 0.0
C589 C 0.15282 0.29292 0.34816 0.0
C590 C 0.16553 0.30596 0.34866 0.0
H591 H 0.24161 0.35043 0.36664 0.0
H592 H 0.22013 0.32962 0.36792 0.0
H593 H 0.16947 0.34724 0.35536 0.0
H594 H 0.11466 0.28534 0.32816 0.0
H595 H 0.13527 0.30705 0.32962 0.0
C596 C 0.72637 0.13949 0.36306 0.0
C597 C 0.72427 0.12462 0.35199 0.0
C598 C 0.71352 0.15079 0.3644 0.0
C599 C 0.67579 0.16298 0.33626 0.0
H600 H 0.66763 0.1884 0.38786 0.0
C601 C 0.62243 0.20921 0.34174 0.0
C602 C 0.62613 0.22448 0.35102 0.0
C603 C 0.63356 0.19622 0.34317 0.0
C604 C 0.66984 0.18147 0.37329 0.0
H605 H 0.70696 0.10969 0.33416 0.0
H606 H 0.68447 0.12936 0.33665 0.0
H607 H 0.68858 0.16699 0.38819 0.0
H608 H 0.6442 0.23807 0.36936 0.0
H609 H 0.6637 0.21545 0.37168 0.0
H610 H 0.65724 0.17758 0.32125 0.0
C611 C 0.69611 0.13239 0.34404 0.0
C612 C 0.68183 0.16921 0.37348 0.0
C613 C 0.70896 0.12109 0.34272 0.0
C614 C 0.64102 0.22643 0.36207 0.0
C615 C 0.65214 0.21344 0.36351 0.0
C616 C 0.66381 0.17523 0.33607 0.0
C617 C 0.69831 0.14745 0.35469 0.0
C618 C 0.68502 0.15992 0.35491 0.0
C619 C 0.6486 0.19823 0.35393 0.0
C620 C 0.66079 0.1847 0.35452 0.0
H621 H 0.73804 0.14255 0.37035 0.0
H622 H 0.71567 0.16235 0.37251 0.0
H623 H 0.67813 0.15623 0.32158 0.0
H624 H 0.611 0.20733 0.3332 0.0
H625 H 0.63038 0.18459 0.33586 0.0
C626 C 0.78436 0.62396 0.34063 0.0
C627 C 0.7691 0.6268 0.35044 0.0
C628 C 0.79682 0.63569 0.34191 0.0
C629 C 0.80291 0.67994 0.35039 0.0
H630 H 0.84852 0.6678 0.35836 0.0
C631 C 0.85359 0.72851 0.36049 0.0
C632 C 0.86823 0.72589 0.34909 0.0
C633 C 0.84183 0.71611 0.36197 0.0
C634 C 0.83585 0.67136 0.35594 0.0
H635 H 0.75503 0.64392 0.36974 0.0
H636 H 0.77682 0.66433 0.37214 0.0
H637 H 0.82736 0.64658 0.35877 0.0
H638 H 0.88217 0.7082 0.33055 0.0
H639 H 0.86154 0.68657 0.33293 0.0
H640 H 0.81136 0.70466 0.34734 0.0
C641 C 0.77909 0.65315 0.3632 0.0
C642 C 0.82374 0.65921 0.35618 0.0
C643 C 0.76665 0.64142 0.36193 0.0
C644 C 0.871 0.71055 0.33947 0.0
C645 C 0.85923 0.69814 0.34094 0.0
C646 C 0.815 0.69206 0.35013 0.0
C647 C 0.79426 0.6505 0.35301 0.0
C648 C 0.80714 0.66337 0.35335 0.0
C649 C 0.84445 0.70083 0.35206 0.0
C650 C 0.83161 0.68791 0.35284 0.0
H651 H 0.78658 0.61279 0.33164 0.0
H652 H 0.8083 0.63335 0.33371 0.0
H653 H 0.79027 0.68351 0.34778 0.0
H654 H 0.85115 0.74019 0.36816 0.0
H655 H 0.83068 0.71849 0.37092 0.0
C656 C 0.7112 0.87232 0.84115 0.0
C657 C 0.72697 0.86903 0.84917 0.0
C658 C 0.69888 0.86044 0.84238 0.0
C659 C 0.69327 0.81576 0.84723 0.0
H660 H 0.64833 0.82724 0.86114 0.0
C661 C 0.64349 0.76656 0.85919 0.0
C662 C 0.62821 0.76953 0.84952 0.0
C663 C 0.65527 0.77896 0.86031 0.0
C664 C 0.6608 0.82388 0.85705 0.0
H665 H 0.74214 0.8509 0.86514 0.0
H666 H 0.72061 0.83022 0.86747 0.0
H667 H 0.66944 0.8485 0.86109 0.0
H668 H 0.61314 0.78786 0.83375 0.0
H669 H 0.6338 0.80951 0.83555 0.0
H670 H 0.68466 0.79119 0.84305 0.0
C671 C 0.71781 0.84188 0.85996 0.0
C672 C 0.67288 0.83605 0.85702 0.0
C673 C 0.73012 0.85375 0.85874 0.0
C674 C 0.62482 0.78522 0.84131 0.0
C675 C 0.63661 0.79764 0.84245 0.0
C676 C 0.68121 0.80362 0.84727 0.0
C677 C 0.70209 0.84503 0.85162 0.0
C678 C 0.68925 0.83212 0.85207 0.0
C679 C 0.65202 0.7946 0.85179 0.0
C680 C 0.66483 0.80753 0.85215 0.0
H681 H 0.70843 0.884 0.83367 0.0
H682 H 0.68695 0.86318 0.83561 0.0
H683 H 0.7057 0.81239 0.84297 0.0
H684 H 0.64641 0.7546 0.86575 0.0
H685 H 0.66694 0.7763 0.86789 0.0
C686 C 0.12451 0.71034 0.84063 0.0
C687 C 0.1279 0.72615 0.84842 0.0
C688 C 0.13636 0.69798 0.84189 0.0
C689 C 0.18106 0.69223 0.84657 0.0
H690 H 0.1695 0.64743 0.86112 0.0
C691 C 0.23019 0.6425 0.85934 0.0
C692 C 0.22725 0.62716 0.84983 0.0
C693 C 0.21779 0.65429 0.8603 0.0
C694 C 0.17288 0.65986 0.85685 0.0
H695 H 0.14617 0.74136 0.86406 0.0
H696 H 0.16678 0.71976 0.86648 0.0
H697 H 0.14828 0.6686 0.8608 0.0
H698 H 0.20895 0.61198 0.83421 0.0
H699 H 0.18727 0.63264 0.83574 0.0
H700 H 0.20561 0.68353 0.84252 0.0
C701 C 0.15508 0.71696 0.85909 0.0
C702 C 0.16074 0.67198 0.85666 0.0
C703 C 0.14324 0.7293 0.85782 0.0
C704 C 0.21156 0.62371 0.84165 0.0
C705 C 0.19913 0.63551 0.84263 0.0
C706 C 0.19318 0.68014 0.84678 0.0
C707 C 0.15183 0.70119 0.85097 0.0
C708 C 0.1647 0.6883 0.8515 0.0
C709 C 0.20216 0.65099 0.85178 0.0
C710 C 0.18924 0.66382 0.85191 0.0
H711 H 0.11279 0.70757 0.83328 0.0
H712 H 0.13354 0.68601 0.83529 0.0
H713 H 0.18447 0.70462 0.84214 0.0
H714 H 0.24215 0.64548 0.86587 0.0
H715 H 0.22044 0.66601 0.86774 0.0
C716 C 0.37235 0.21271 0.84137 0.0
C717 C 0.36842 0.22849 0.84881 0.0
C718 C 0.36067 0.20018 0.84189 0.0
C719 C 0.32124 0.18823 0.86697 0.0
H720 H 0.31752 0.15972 0.81729 0.0
C721 C 0.26573 0.14557 0.8531 0.0
C722 C 0.26896 0.12973 0.8453 0.0
C723 C 0.27827 0.15721 0.85435 0.0
C724 C 0.31853 0.16745 0.83139 0.0
H725 H 0.34926 0.24353 0.86284 0.0
H726 H 0.32879 0.22174 0.86351 0.0
H727 H 0.33875 0.18076 0.81813 0.0
H728 H 0.28784 0.11356 0.83286 0.0
H729 H 0.30978 0.13389 0.8351 0.0
H730 H 0.30086 0.17502 0.88008 0.0
C731 C 0.34096 0.21895 0.85754 0.0
C732 C 0.33071 0.17949 0.83189 0.0
C733 C 0.35265 0.23147 0.85705 0.0
C734 C 0.28499 0.1257 0.83888 0.0
C735 C 0.29752 0.13735 0.84007 0.0
C736 C 0.30903 0.17621 0.86644 0.0
C737 C 0.3448 0.20319 0.84984 0.0
C738 C 0.33216 0.19007 0.84964 0.0
C739 C 0.29429 0.15324 0.84776 0.0
C740 C 0.30751 0.16574 0.8486 0.0
H741 H 0.38444 0.21005 0.83501 0.0
H742 H 0.36408 0.18812 0.83613 0.0
H743 H 0.32219 0.19601 0.88102 0.0
H744 H 0.25349 0.14902 0.85813 0.0
H745 H 0.27536 0.1694 0.86011 0.0
C746 C 0.8525 0.26622 0.86082 0.0
C747 C 0.86745 0.26886 0.85016 0.0
C748 C 0.8407 0.27862 0.86175 0.0
C749 C 0.8348 0.32334 0.8557 0.0
H750 H 0.7896 0.3111 0.84471 0.0
C751 C 0.78359 0.37088 0.83938 0.0
C752 C 0.76814 0.36782 0.84851 0.0
C753 C 0.79603 0.3591 0.84063 0.0
C754 C 0.80213 0.3147 0.84809 0.0
H755 H 0.88195 0.2866 0.83246 0.0
H756 H 0.86127 0.30825 0.83393 0.0
H757 H 0.81077 0.29003 0.84517 0.0
H758 H 0.75364 0.35024 0.86649 0.0
H759 H 0.77537 0.32976 0.86886 0.0
H760 H 0.82612 0.34805 0.85848 0.0
C761 C 0.85872 0.29665 0.84175 0.0
C762 C 0.81426 0.30262 0.84836 0.0
C763 C 0.87053 0.28424 0.84081 0.0
C764 C 0.76541 0.3529 0.8592 0.0
C765 C 0.77783 0.34114 0.86046 0.0
C766 C 0.82265 0.33543 0.85544 0.0
C767 C 0.84361 0.29392 0.85204 0.0
C768 C 0.83074 0.3068 0.85214 0.0
C769 C 0.79323 0.34404 0.85103 0.0
C770 C 0.80617 0.33124 0.85161 0.0
H771 H 0.84982 0.25451 0.86826 0.0
H772 H 0.82928 0.27622 0.87008 0.0
H773 H 0.84736 0.32691 0.85892 0.0
H774 H 0.78603 0.38227 0.83101 0.0
H775 H 0.8077 0.36164 0.83301 0.0
C776 C 0.62236 0.21093 0.65474 0.0
C777 C 0.62559 0.22591 0.64444 0.0
C778 C 0.63372 0.19811 0.65377 0.0
C779 C 0.66962 0.18299 0.62324 0.0
H780 H 0.67942 0.1595 0.67591 0.0
C781 C 0.7267 0.14179 0.63286 0.0
C782 C 0.72494 0.12712 0.64446 0.0
C783 C 0.71383 0.15307 0.63186 0.0
C784 C 0.67666 0.16577 0.66099 0.0
H785 H 0.6431 0.23919 0.6248 0.0
H786 H 0.663 0.21688 0.62325 0.0
H787 H 0.65821 0.18057 0.6759 0.0
H788 H 0.70825 0.11257 0.66377 0.0
H789 H 0.68569 0.13223 0.6619 0.0
H790 H 0.68821 0.1683 0.6084 0.0
C791 C 0.65162 0.21495 0.63188 0.0
C792 C 0.66451 0.17785 0.66099 0.0
C793 C 0.64027 0.22776 0.63288 0.0
C794 C 0.70997 0.12382 0.65478 0.0
C795 C 0.6971 0.13511 0.6538 0.0
C796 C 0.68178 0.1709 0.62324 0.0
C797 C 0.64853 0.20002 0.64245 0.0
C798 C 0.66093 0.18668 0.64216 0.0
C799 C 0.69892 0.14992 0.64245 0.0
C800 C 0.68552 0.16225 0.64216 0.0
H801 H 0.61111 0.20914 0.66371 0.0
H802 H 0.63089 0.18669 0.66186 0.0
H803 H 0.66698 0.18941 0.6084 0.0
H804 H 0.73812 0.14467 0.62477 0.0
H805 H 0.7157 0.16445 0.62321 0.0
C806 C 0.76704 0.64243 0.63527 0.0
C807 C 0.76886 0.62796 0.64729 0.0
C808 C 0.77964 0.65403 0.63458 0.0
C809 C 0.81581 0.66806 0.6648 0.0
H810 H 0.82661 0.69048 0.61167 0.0
C811 C 0.87042 0.71278 0.65846 0.0
C812 C 0.86763 0.72746 0.64722 0.0
C813 C 0.85889 0.70011 0.65783 0.0
C814 C 0.82363 0.68443 0.62667 0.0
H815 H 0.78535 0.61415 0.6678 0.0
H816 H 0.80743 0.63437 0.66649 0.0
H817 H 0.80554 0.66922 0.61167 0.0
H818 H 0.85068 0.74036 0.62635 0.0
H819 H 0.83047 0.7183 0.62538 0.0
H820 H 0.83378 0.68335 0.67984 0.0
C821 C 0.79619 0.63684 0.65779 0.0
C822 C 0.81157 0.67225 0.62667 0.0
C823 C 0.78359 0.62522 0.65844 0.0
C824 C 0.85317 0.72917 0.63514 0.0
C825 C 0.84165 0.7165 0.63449 0.0
C826 C 0.82786 0.68024 0.6648 0.0
C827 C 0.79432 0.6514 0.64593 0.0
C828 C 0.80747 0.66399 0.64576 0.0
C829 C 0.84434 0.70186 0.64592 0.0
C830 C 0.83185 0.68861 0.64576 0.0
H831 H 0.7558 0.64488 0.62654 0.0
H832 H 0.77774 0.66521 0.62552 0.0
H833 H 0.81275 0.6621 0.67984 0.0
H834 H 0.88149 0.7111 0.66785 0.0
H835 H 0.86142 0.68891 0.66659 0.0
C836 C 0.28346 0.87008 0.65448 0.0
C837 C 0.2674 0.86616 0.64816 0.0
C838 C 0.29588 0.85828 0.6535 0.0
C839 C 0.30216 0.81343 0.65173 0.0
H840 H 0.34601 0.82513 0.63297 0.0
C841 C 0.35208 0.76476 0.6372 0.0
C842 C 0.36772 0.76815 0.64558 0.0
C843 C 0.34006 0.77695 0.63662 0.0
C844 C 0.33385 0.82172 0.63841 0.0
H845 H 0.25174 0.84693 0.63556 0.0
H846 H 0.27343 0.82641 0.63352 0.0
H847 H 0.32452 0.846 0.63363 0.0
H848 H 0.38316 0.787 0.65955 0.0
H849 H 0.3621 0.80833 0.65858 0.0
H850 H 0.31147 0.78917 0.65648 0.0
C851 C 0.27641 0.8385 0.63959 0.0
C852 C 0.32155 0.83367 0.63881 0.0
C853 C 0.264 0.85028 0.64064 0.0
C854 C 0.37121 0.78405 0.65298 0.0
C855 C 0.35919 0.79627 0.65233 0.0
C856 C 0.31443 0.8015 0.65126 0.0
C857 C 0.29248 0.84233 0.64612 0.0
C858 C 0.30556 0.82966 0.6455 0.0
C859 C 0.34343 0.79279 0.64436 0.0
C860 C 0.33041 0.8055 0.6446 0.0
H861 H 0.28642 0.88223 0.6604 0.0
H862 H 0.30807 0.86158 0.65889 0.0
H863 H 0.29006 0.81 0.65735 0.0
H864 H 0.34905 0.75263 0.63132 0.0
H865 H 0.3281 0.77397 0.63011 0.0
C866 C 0.12486 0.28544 0.65504 0.0
C867 C 0.12793 0.26979 0.64649 0.0
C868 C 0.13677 0.29774 0.65374 0.0
C869 C 0.18134 0.30337 0.64729 0.0
H870 H 0.16959 0.34847 0.6347 0.0
C871 C 0.2303 0.35328 0.63433 0.0
C872 C 0.22754 0.36845 0.64441 0.0
C873 C 0.21787 0.34151 0.63346 0.0
C874 C 0.17303 0.33595 0.63841 0.0
H875 H 0.1457 0.25479 0.62955 0.0
H876 H 0.16641 0.27628 0.6271 0.0
H877 H 0.14832 0.32738 0.63524 0.0
H878 H 0.20957 0.38333 0.66116 0.0
H879 H 0.18789 0.36271 0.65979 0.0
H880 H 0.20601 0.31192 0.65059 0.0
C881 C 0.15492 0.27901 0.63508 0.0
C882 C 0.16086 0.32388 0.63873 0.0
C883 C 0.14302 0.26672 0.63637 0.0
C884 C 0.21204 0.37175 0.65326 0.0
C885 C 0.1996 0.35997 0.65237 0.0
C886 C 0.1935 0.31543 0.64696 0.0
C887 C 0.15198 0.29461 0.64389 0.0
C888 C 0.16488 0.30746 0.6432 0.0
C889 C 0.20243 0.34466 0.64263 0.0
C890 C 0.18949 0.33186 0.64255 0.0
H891 H 0.11333 0.28814 0.66295 0.0
H892 H 0.13419 0.30958 0.66089 0.0
H893 H 0.18481 0.29089 0.65116 0.0
H894 H 0.24211 0.35043 0.62728 0.0
H895 H 0.22036 0.32993 0.62556 0.0
C896 C 0.21186 0.08447 0.07535 0.0
C897 C 0.2258 0.07959 0.08697 0.0
C898 C 0.21106 0.08198 0.05313 0.0
C899 C 0.23855 0.07771 0.00686 0.0
H900 H 0.19891 0.06617 0.9759 0.0
C901 C 0.23881 0.07279 0.91503 0.0
C902 C 0.22574 0.08045 0.90431 0.0
C903 C 0.23805 0.07001 0.93715 0.0
C904 C 0.21005 0.06948 0.98433 0.0
H905 H 0.24946 0.06753 0.08473 0.0
H906 H 0.248 0.06304 0.04605 0.0
H907 H 0.19888 0.06608 0.01522 0.0
H908 H 0.20133 0.09062 0.90811 0.0
H909 H 0.2001 0.08606 0.94685 0.0
H910 H 0.24965 0.08155 0.97621 0.0
C911 C 0.23781 0.06905 0.05399 0.0
C912 C 0.21003 0.06942 0.00683 0.0
C913 C 0.23861 0.07155 0.07616 0.0
C914 C 0.2116 0.08468 0.91597 0.0
C915 C 0.21087 0.08199 0.93814 0.0
C916 C 0.23856 0.07781 0.98446 0.0
C917 C 0.2242 0.07456 0.04215 0.0
C918 C 0.22426 0.07364 0.01832 0.0
C919 C 0.22424 0.07494 0.94906 0.0
C920 C 0.22429 0.07381 0.9729 0.0
H921 H 0.20179 0.09069 0.08328 0.0
H922 H 0.20046 0.08648 0.04444 0.0
H923 H 0.24962 0.08135 0.01521 0.0
H924 H 0.24981 0.06925 0.90642 0.0
H925 H 0.24842 0.06425 0.94499 0.0
C926 C 0.92617 0.2322 0.91705 0.0
C927 C 0.91534 0.22143 0.90663 0.0
C928 C 0.92911 0.2307 0.93907 0.0
C929 C 0.92332 0.20324 0.98631 0.0
H930 H 0.92184 0.24439 0.01753 0.0
C931 C 0.90743 0.20845 0.07657 0.0
C932 C 0.91542 0.22056 0.08875 0.0
C933 C 0.91033 0.20713 0.05449 0.0
C934 C 0.92259 0.2328 0.00908 0.0
H935 H 0.89961 0.20023 0.91083 0.0
H936 H 0.90445 0.19781 0.94937 0.0
H937 H 0.92171 0.24465 0.97852 0.0
H938 H 0.93333 0.24022 0.08766 0.0
H939 H 0.93846 0.23784 0.04915 0.0
H940 H 0.92363 0.19143 0.01709 0.0
C941 C 0.91088 0.20727 0.94053 0.0
C942 C 0.92253 0.23294 0.98667 0.0
C943 C 0.90802 0.20871 0.91845 0.0
C944 C 0.9269 0.23084 0.07865 0.0
C945 C 0.92979 0.22953 0.05659 0.0
C946 C 0.92332 0.2031 0.00879 0.0
C947 C 0.92119 0.21847 0.95118 0.0
C948 C 0.92269 0.21817 0.97499 0.0
C949 C 0.92126 0.2179 0.04419 0.0
C950 C 0.92275 0.21789 0.02041 0.0
H951 H 0.9321 0.24203 0.90829 0.0
H952 H 0.93737 0.23933 0.9467 0.0
H953 H 0.92368 0.19166 0.9778 0.0
H954 H 0.89853 0.20034 0.08394 0.0
H955 H 0.90346 0.19814 0.04536 0.0
C956 C 0.78987 0.91367 0.91507 0.0
C957 C 0.77456 0.91704 0.90568 0.0
C958 C 0.79235 0.91626 0.93705 0.0
C959 C 0.77458 0.93635 0.9854 0.0
H960 H 0.79451 0.89984 0.01566 0.0
C961 C 0.76261 0.92257 0.07465 0.0
C962 C 0.77531 0.91591 0.08714 0.0
C963 C 0.7649 0.92545 0.05274 0.0
C964 C 0.78921 0.91031 0.00748 0.0
H965 H 0.75007 0.92637 0.91167 0.0
H966 H 0.75431 0.9307 0.94999 0.0
H967 H 0.79433 0.90007 0.97657 0.0
H968 H 0.80062 0.90771 0.08676 0.0
H969 H 0.80467 0.91283 0.04842 0.0
H970 H 0.76899 0.94631 0.01641 0.0
C971 C 0.76447 0.92624 0.94041 0.0
C972 C 0.78911 0.91044 0.98504 0.0
C973 C 0.762 0.92364 0.91847 0.0
C974 C 0.79057 0.91277 0.07749 0.0
C975 C 0.79287 0.91564 0.05554 0.0
C976 C 0.77467 0.93621 0.00786 0.0
C977 C 0.77957 0.92228 0.95004 0.0
C978 C 0.78147 0.92327 0.97374 0.0
C979 C 0.77996 0.92173 0.04284 0.0
C980 C 0.78166 0.92301 0.01914 0.0
H981 H 0.79981 0.90865 0.90557 0.0
H982 H 0.80418 0.91329 0.94394 0.0
H983 H 0.76884 0.94655 0.97715 0.0
H984 H 0.75071 0.92512 0.08166 0.0
H985 H 0.75464 0.92996 0.04339 0.0
C986 C 0.08869 0.78502 0.91746 0.0
C987 C 0.08097 0.77252 0.90566 0.0
C988 C 0.08611 0.78641 0.93959 0.0
C989 C 0.0745 0.76091 0.98585 0.0
H990 H 0.07356 0.80245 0.01623 0.0
C991 C 0.07004 0.76307 0.07783 0.0
C992 C 0.08131 0.77351 0.08803 0.0
C993 C 0.06729 0.7643 0.05573 0.0
C994 C 0.07385 0.79076 0.00795 0.0
H995 H 0.06387 0.75221 0.9075 0.0
H996 H 0.05914 0.75478 0.94605 0.0
H997 H 0.07351 0.80219 0.97693 0.0
H998 H 0.098 0.79391 0.08334 0.0
H999 H 0.09335 0.79595 0.04469 0.0
H1000 H 0.0752 0.74947 0.01671 0.0
C1001 C 0.06746 0.7633 0.93832 0.0
C1002 C 0.07384 0.79061 0.98546 0.0
C1003 C 0.0701 0.76187 0.91622 0.0
C1004 C 0.08925 0.78568 0.07589 0.0
C1005 C 0.08651 0.78691 0.05377 0.0
C1006 C 0.07449 0.76107 0.00826 0.0
C1007 C 0.07571 0.77536 0.95035 0.0
C1008 C 0.07437 0.77567 0.97416 0.0
C1009 C 0.07577 0.77599 0.04338 0.0
C1010 C 0.07437 0.77599 0.01958 0.0
H1011 H 0.09715 0.7934 0.90972 0.0
H1012 H 0.09279 0.79572 0.94839 0.0
H1013 H 0.07523 0.7492 0.97769 0.0
H1014 H 0.06365 0.75364 0.08681 0.0
H1015 H 0.05874 0.75588 0.04825 0.0
C1016 C 0.21129 0.90992 0.41875 0.0
C1017 C 0.2245 0.91607 0.4067 0.0
C1018 C 0.21032 0.91291 0.44084 0.0
C1019 C 0.23727 0.92059 0.4865 0.0
H1020 H 0.19687 0.92931 0.51739 0.0
C1021 C 0.23705 0.92454 0.57848 0.0
C1022 C 0.22426 0.91626 0.58898 0.0
C1023 C 0.23624 0.92754 0.55641 0.0
C1024 C 0.20823 0.92678 0.509 0.0
H1025 H 0.24664 0.93078 0.40807 0.0
H1026 H 0.24495 0.93597 0.44663 0.0
H1027 H 0.19682 0.92908 0.47809 0.0
H1028 H 0.2003 0.90517 0.58488 0.0
H1029 H 0.19904 0.90998 0.54624 0.0
H1030 H 0.24862 0.91765 0.51715 0.0
C1031 C 0.23543 0.92873 0.43905 0.0
C1032 C 0.2082 0.92669 0.48652 0.0
C1033 C 0.23636 0.92581 0.41697 0.0
C1034 C 0.21034 0.9116 0.57718 0.0
C1035 C 0.20959 0.91445 0.55505 0.0
C1036 C 0.23729 0.92057 0.50891 0.0
C1037 C 0.22259 0.92202 0.45129 0.0
C1038 C 0.22269 0.92343 0.47505 0.0
C1039 C 0.22268 0.92216 0.54432 0.0
C1040 C 0.22275 0.9235 0.52047 0.0
H1041 H 0.20195 0.9024 0.41125 0.0
H1042 H 0.20035 0.90747 0.44988 0.0
H1043 H 0.24857 0.91776 0.47813 0.0
H1044 H 0.24787 0.92843 0.58723 0.0
H1045 H 0.24638 0.93382 0.54876 0.0
C1046 C 0.07097 0.23677 0.57771 0.0
C1047 C 0.08023 0.22483 0.58855 0.0
C1048 C 0.06851 0.23567 0.55555 0.0
C1049 C 0.07166 0.20777 0.50858 0.0
H1050 H 0.0794 0.24826 0.47747 0.0
C1051 C 0.08707 0.21026 0.41787 0.0
C1052 C 0.08116 0.22361 0.40589 0.0
C1053 C 0.08444 0.20949 0.44005 0.0
C1054 C 0.0769 0.23689 0.48587 0.0
H1055 H 0.09362 0.20202 0.58491 0.0
H1056 H 0.08952 0.20018 0.54612 0.0
H1057 H 0.07917 0.2485 0.5165 0.0
H1058 H 0.06716 0.2462 0.40748 0.0
H1059 H 0.06235 0.24474 0.4461 0.0
H1060 H 0.06974 0.19614 0.47779 0.0
C1061 C 0.084 0.21031 0.55476 0.0
C1062 C 0.07677 0.23703 0.50828 0.0
C1063 C 0.08643 0.21141 0.57696 0.0
C1064 C 0.07198 0.23583 0.41634 0.0
C1065 C 0.0693 0.23503 0.43848 0.0
C1066 C 0.07178 0.20764 0.48609 0.0
C1067 C 0.0753 0.22262 0.54375 0.0
C1068 C 0.0743 0.22246 0.51992 0.0
C1069 C 0.07581 0.22204 0.45067 0.0
C1070 C 0.07455 0.22218 0.47449 0.0
H1071 H 0.06592 0.2472 0.58626 0.0
H1072 H 0.06151 0.24519 0.54759 0.0
H1073 H 0.06954 0.19638 0.51709 0.0
H1074 H 0.09419 0.20066 0.41023 0.0
H1075 H 0.08974 0.19939 0.44899 0.0
C1076 C 0.79 0.08454 0.5779 0.0
C1077 C 0.77502 0.08017 0.58748 0.0
C1078 C 0.79258 0.08188 0.55597 0.0
C1079 C 0.77662 0.05991 0.50813 0.0
H1080 H 0.79219 0.0982 0.4773 0.0
C1081 C 0.76344 0.071 0.41843 0.0
C1082 C 0.77502 0.07955 0.40603 0.0
C1083 C 0.76603 0.06856 0.44038 0.0
C1084 C 0.78816 0.08724 0.48561 0.0
H1085 H 0.75131 0.06887 0.58192 0.0
H1086 H 0.75578 0.0643 0.54364 0.0
H1087 H 0.79226 0.09821 0.51634 0.0
H1088 H 0.79879 0.09147 0.40657 0.0
H1089 H 0.80347 0.08696 0.44486 0.0
H1090 H 0.77216 0.0491 0.47731 0.0
C1091 C 0.76558 0.06969 0.55306 0.0
C1092 C 0.78819 0.08726 0.50803 0.0
C1093 C 0.76297 0.07241 0.57495 0.0
C1094 C 0.78958 0.08496 0.41579 0.0
C1095 C 0.79222 0.08244 0.43773 0.0
C1096 C 0.77665 0.05986 0.48566 0.0
C1097 C 0.78027 0.07472 0.54323 0.0
C1098 C 0.78209 0.07374 0.51954 0.0
C1099 C 0.78031 0.07454 0.45039 0.0
C1100 C 0.78209 0.07368 0.47414 0.0
H1101 H 0.79954 0.09047 0.58719 0.0
H1102 H 0.8041 0.08571 0.54888 0.0
H1103 H 0.77206 0.04922 0.51658 0.0
H1104 H 0.7521 0.06669 0.41133 0.0
H1105 H 0.7565 0.0626 0.44967 0.0
C1106 C 0.91037 0.78651 0.57591 0.0
C1107 C 0.91613 0.77306 0.58784 0.0
C1108 C 0.91327 0.78743 0.55379 0.0
C1109 C 0.92104 0.76012 0.50801 0.0
H1110 H 0.92823 0.80068 0.4768 0.0
C1111 C 0.92618 0.76011 0.41621 0.0
C1112 C 0.91674 0.77198 0.40551 0.0
C1113 C 0.92899 0.76134 0.43828 0.0
C1114 C 0.92617 0.78927 0.48531 0.0
H1115 H 0.93022 0.75053 0.5863 0.0
H1116 H 0.93551 0.75226 0.54781 0.0
H1117 H 0.92811 0.80089 0.51612 0.0
H1118 H 0.90344 0.79484 0.40928 0.0
H1119 H 0.90813 0.79687 0.44795 0.0
H1120 H 0.91871 0.74853 0.4774 0.0
C1121 C 0.92845 0.76192 0.55541 0.0
C1122 C 0.9261 0.78939 0.50781 0.0
C1123 C 0.9255 0.76096 0.57747 0.0
C1124 C 0.91076 0.7855 0.41713 0.0
C1125 C 0.91352 0.78671 0.43925 0.0
C1126 C 0.92112 0.76 0.4856 0.0
C1127 C 0.92203 0.77495 0.54321 0.0
C1128 C 0.92337 0.77483 0.5194 0.0
C1129 C 0.92234 0.77443 0.45015 0.0
C1130 C 0.92352 0.77458 0.47397 0.0
H1131 H 0.90312 0.79602 0.5835 0.0
H1132 H 0.90803 0.79756 0.54486 0.0
H1133 H 0.91856 0.74875 0.51639 0.0
H1134 H 0.93107 0.74963 0.40763 0.0
H1135 H 0.93609 0.75185 0.44614 0.0
C1136 C 0.70994 0.58561 0.57609 0.0
C1137 C 0.72327 0.57957 0.58801 0.0
C1138 C 0.70892 0.58268 0.55399 0.0
C1139 C 0.7358 0.57376 0.50798 0.0
H1140 H 0.6947 0.56844 0.47737 0.0
C1141 C 0.73427 0.56903 0.41595 0.0
C1142 C 0.72288 0.57936 0.40578 0.0
C1143 C 0.73328 0.56613 0.43804 0.0
C1144 C 0.70627 0.56994 0.48572 0.0
H1145 H 0.74549 0.56501 0.58647 0.0
H1146 H 0.74356 0.55962 0.54801 0.0
H1147 H 0.69484 0.56839 0.51666 0.0
H1148 H 0.70108 0.59418 0.41052 0.0
H1149 H 0.69941 0.58922 0.44914 0.0
H1150 H 0.74721 0.57562 0.47716 0.0
C1151 C 0.73409 0.56693 0.55559 0.0
C1152 C 0.70635 0.56994 0.5082 0.0
C1153 C 0.73516 0.56994 0.57764 0.0
C1154 C 0.71005 0.58618 0.41794 0.0
C1155 C 0.70904 0.58325 0.44003 0.0
C1156 C 0.73573 0.5737 0.48556 0.0
C1157 C 0.72117 0.57359 0.5434 0.0
C1158 C 0.7211 0.57209 0.51959 0.0
C1159 C 0.72086 0.57349 0.45039 0.0
C1160 C 0.72094 0.57203 0.47417 0.0
H1161 H 0.7006 0.59308 0.58367 0.0
H1162 H 0.6989 0.58814 0.54509 0.0
H1163 H 0.74735 0.57575 0.51619 0.0
H1164 H 0.74424 0.56353 0.40696 0.0
H1165 H 0.74243 0.55836 0.44552 0.0
C1166 C 0.42799 0.72957 0.41665 0.0
C1167 C 0.41602 0.71959 0.40704 0.0
C1168 C 0.43123 0.72832 0.43864 0.0
C1169 C 0.42485 0.70247 0.48692 0.0
H1170 H 0.42378 0.74425 0.51668 0.0
C1171 C 0.40933 0.70869 0.57696 0.0
C1172 C 0.41656 0.72147 0.58876 0.0
C1173 C 0.41236 0.70713 0.55495 0.0
C1174 C 0.42447 0.73247 0.50868 0.0
H1175 H 0.39866 0.69989 0.41259 0.0
H1176 H 0.40424 0.69776 0.45102 0.0
H1177 H 0.42385 0.7437 0.47766 0.0
H1178 H 0.43332 0.74208 0.58713 0.0
H1179 H 0.43891 0.73915 0.54882 0.0
H1180 H 0.42516 0.69124 0.51804 0.0
C1181 C 0.41119 0.70649 0.44157 0.0
C1182 C 0.42449 0.73217 0.48627 0.0
C1183 C 0.40792 0.70778 0.41959 0.0
C1184 C 0.42745 0.7322 0.57838 0.0
C1185 C 0.43058 0.73057 0.55641 0.0
C1186 C 0.42493 0.70277 0.5094 0.0
C1187 C 0.42259 0.71702 0.45142 0.0
C1188 C 0.42439 0.71717 0.47514 0.0
C1189 C 0.42276 0.71826 0.54432 0.0
C1190 C 0.42443 0.71779 0.52054 0.0
H1191 H 0.4345 0.73872 0.40734 0.0
H1192 H 0.44023 0.73645 0.44574 0.0
H1193 H 0.42497 0.69073 0.47875 0.0
H1194 H 0.40087 0.70025 0.58456 0.0
H1195 H 0.40598 0.69762 0.54613 0.0
C1196 C 0.29038 0.41293 0.41538 0.0
C1197 C 0.27505 0.41624 0.40603 0.0
C1198 C 0.29291 0.41563 0.43732 0.0
C1199 C 0.27545 0.43611 0.48548 0.0
H1200 H 0.29479 0.39946 0.51609 0.0
C1201 C 0.26315 0.42316 0.57481 0.0
C1202 C 0.27564 0.4162 0.58739 0.0
C1203 C 0.26556 0.42587 0.55288 0.0
C1204 C 0.28968 0.40997 0.50782 0.0
H1205 H 0.25057 0.4256 0.41202 0.0
H1206 H 0.25493 0.43018 0.45029 0.0
H1207 H 0.29466 0.39949 0.477 0.0
H1208 H 0.30071 0.40732 0.58717 0.0
H1209 H 0.30499 0.41218 0.54883 0.0
H1210 H 0.27004 0.44634 0.51638 0.0
C1211 C 0.26505 0.42565 0.4407 0.0
C1212 C 0.28959 0.40998 0.48538 0.0
C1213 C 0.26252 0.42291 0.4188 0.0
C1214 C 0.29082 0.41261 0.57782 0.0
C1215 C 0.29325 0.41533 0.55586 0.0
C1216 C 0.27555 0.43611 0.50794 0.0
C1217 C 0.28018 0.42174 0.45029 0.0
C1218 C 0.28213 0.42286 0.47397 0.0
C1219 C 0.28053 0.42171 0.54307 0.0
C1220 C 0.28232 0.42285 0.51936 0.0
H1221 H 0.3003 0.40785 0.40589 0.0
H1222 H 0.30476 0.41268 0.4442 0.0
H1223 H 0.26985 0.44633 0.47713 0.0
H1224 H 0.25131 0.42606 0.58175 0.0
H1225 H 0.25544 0.4306 0.54347 0.0
C1226 C 0.58129 0.29055 0.57797 0.0
C1227 C 0.57804 0.27523 0.58738 0.0
C1228 C 0.57844 0.29307 0.55606 0.0
C1229 C 0.55799 0.27536 0.50794 0.0
H1230 H 0.5946 0.29478 0.47734 0.0
C1231 C 0.5718 0.26228 0.41903 0.0
C1232 C 0.57878 0.27469 0.40633 0.0
C1233 C 0.56877 0.26493 0.44084 0.0
C1234 C 0.5841 0.28964 0.48561 0.0
H1235 H 0.5686 0.25077 0.58152 0.0
H1236 H 0.5638 0.25508 0.54331 0.0
H1237 H 0.59444 0.29488 0.51641 0.0
H1238 H 0.58732 0.29987 0.40618 0.0
H1239 H 0.58192 0.30457 0.44432 0.0
H1240 H 0.54794 0.26964 0.47704 0.0
C1241 C 0.56838 0.26522 0.55282 0.0
C1242 C 0.584 0.2897 0.50804 0.0
C1243 C 0.57124 0.2627 0.5747 0.0
C1244 C 0.58203 0.29005 0.41563 0.0
C1245 C 0.579 0.29271 0.43747 0.0
C1246 C 0.55808 0.27531 0.48548 0.0
C1247 C 0.57226 0.28032 0.54316 0.0
C1248 C 0.57115 0.28221 0.51947 0.0
C1249 C 0.57265 0.28007 0.45041 0.0
C1250 C 0.57134 0.28209 0.47407 0.0
H1251 H 0.58644 0.30046 0.58739 0.0
H1252 H 0.58136 0.30491 0.54913 0.0
H1253 H 0.54778 0.26973 0.5163 0.0
H1254 H 0.56915 0.25031 0.41229 0.0
H1255 H 0.56406 0.25487 0.45038 0.0
C1256 C 0.70875 0.40854 0.91737 0.0
C1257 C 0.72184 0.41529 0.90566 0.0
C1258 C 0.70762 0.41102 0.93957 0.0
C1259 C 0.73431 0.41974 0.9857 0.0
H1260 H 0.69334 0.4243 0.01683 0.0
C1261 C 0.7338 0.42459 0.07754 0.0
C1262 C 0.72246 0.41449 0.0882 0.0
C1263 C 0.73248 0.42729 0.05545 0.0
C1264 C 0.70486 0.42297 0.00834 0.0
H1265 H 0.74349 0.43066 0.90769 0.0
H1266 H 0.74138 0.43521 0.94631 0.0
H1267 H 0.69321 0.42451 0.97751 0.0
H1268 H 0.70044 0.39987 0.08434 0.0
H1269 H 0.69827 0.40438 0.04564 0.0
H1270 H 0.74595 0.41783 0.01633 0.0
C1271 C 0.73218 0.42771 0.93848 0.0
C1272 C 0.70479 0.42309 0.98585 0.0
C1273 C 0.73334 0.42518 0.91634 0.0
C1274 C 0.70937 0.40771 0.07652 0.0
C1275 C 0.70808 0.41037 0.05438 0.0
C1276 C 0.73438 0.41963 0.00811 0.0
C1277 C 0.71954 0.42033 0.95044 0.0
C1278 C 0.71952 0.42134 0.97428 0.0
C1279 C 0.71984 0.41989 0.04352 0.0
C1280 C 0.71966 0.42111 0.01971 0.0
H1281 H 0.6997 0.40086 0.90954 0.0
H1282 H 0.69781 0.40504 0.94831 0.0
H1283 H 0.74583 0.41801 0.97733 0.0
H1284 H 0.74394 0.43011 0.08616 0.0
H1285 H 0.74156 0.43493 0.04763 0.0
C1286 C 0.56952 0.73415 0.07867 0.0
C1287 C 0.58032 0.72342 0.08923 0.0
C1288 C 0.56695 0.73281 0.05656 0.0
C1289 C 0.57294 0.70571 0.00929 0.0
H1290 H 0.57587 0.74696 0.97848 0.0
C1291 C 0.58788 0.71036 0.91863 0.0
C1292 C 0.58067 0.72313 0.90679 0.0
C1293 C 0.58525 0.70913 0.94077 0.0
C1294 C 0.57471 0.73534 0.98679 0.0
H1295 H 0.59635 0.70242 0.08516 0.0
H1296 H 0.59202 0.70019 0.04644 0.0
H1297 H 0.57577 0.747 0.0175 0.0
H1298 H 0.56433 0.74408 0.90853 0.0
H1299 H 0.55949 0.74177 0.94707 0.0
H1300 H 0.57222 0.69406 0.97842 0.0
C1301 C 0.58541 0.70955 0.05527 0.0
C1302 C 0.57466 0.73537 0.0092 0.0
C1303 C 0.58797 0.71088 0.07742 0.0
C1304 C 0.57018 0.7342 0.9173 0.0
C1305 C 0.56748 0.73292 0.93939 0.0
C1306 C 0.57296 0.70569 0.9868 0.0
C1307 C 0.57515 0.72073 0.04453 0.0
C1308 C 0.57395 0.72056 0.02072 0.0
C1309 C 0.57529 0.72062 0.95148 0.0
C1310 C 0.57402 0.72051 0.9753 0.0
H1311 H 0.56335 0.74386 0.08739 0.0
H1312 H 0.55876 0.74144 0.0488 0.0
H1313 H 0.57221 0.69411 0.01773 0.0
H1314 H 0.59603 0.70165 0.91094 0.0
H1315 H 0.59157 0.6996 0.94962 0.0
C1316 C 0.29038 0.58555 0.07765 0.0
C1317 C 0.27594 0.58006 0.08763 0.0
C1318 C 0.29297 0.58277 0.05576 0.0
C1319 C 0.2773 0.5595 0.00836 0.0
H1320 H 0.29297 0.59745 0.97689 0.0
C1321 C 0.26357 0.57144 0.91885 0.0
C1322 C 0.27577 0.57887 0.90621 0.0
C1323 C 0.26614 0.56885 0.94078 0.0
C1324 C 0.28887 0.58662 0.98543 0.0
H1325 H 0.25318 0.56682 0.0828 0.0
H1326 H 0.25744 0.56234 0.04452 0.0
H1327 H 0.29293 0.59791 0.01591 0.0
H1328 H 0.3005 0.58868 0.90633 0.0
H1329 H 0.30496 0.58418 0.9447 0.0
H1330 H 0.27259 0.54855 0.97764 0.0
C1331 C 0.26695 0.56853 0.05359 0.0
C1332 C 0.28886 0.58686 0.00785 0.0
C1333 C 0.26443 0.57119 0.07552 0.0
C1334 C 0.29084 0.58301 0.91571 0.0
C1335 C 0.29338 0.58049 0.93767 0.0
C1336 C 0.27721 0.55931 0.98589 0.0
C1337 C 0.2811 0.57456 0.04335 0.0
C1338 C 0.2828 0.57343 0.0196 0.0
C1339 C 0.28093 0.5737 0.95051 0.0
C1340 C 0.28273 0.57299 0.97421 0.0
H1341 H 0.29954 0.59229 0.08666 0.0
H1342 H 0.30414 0.58732 0.04847 0.0
H1343 H 0.27281 0.54884 0.01692 0.0
H1344 H 0.25185 0.56809 0.91193 0.0
H1345 H 0.25625 0.56373 0.95029 0.0
C1346 C 0.41411 0.29105 0.91675 0.0
C1347 C 0.41677 0.27567 0.90718 0.0
C1348 C 0.41698 0.29331 0.93871 0.0
C1349 C 0.43672 0.2745 0.98659 0.0
H1350 H 0.40112 0.29542 0.01755 0.0
C1351 C 0.42306 0.2621 0.07574 0.0
C1352 C 0.41683 0.27486 0.08852 0.0
C1353 C 0.42591 0.26454 0.05385 0.0
C1354 C 0.41135 0.28984 0.00918 0.0
H1355 H 0.42513 0.25078 0.91283 0.0
H1356 H 0.42995 0.25465 0.95111 0.0
H1357 H 0.40111 0.29561 0.97847 0.0
H1358 H 0.4094 0.30041 0.08867 0.0
H1359 H 0.41449 0.30472 0.05038 0.0
H1360 H 0.44666 0.26829 0.0174 0.0
C1361 C 0.42583 0.26503 0.94169 0.0
C1362 C 0.41135 0.28995 0.98674 0.0
C1363 C 0.42295 0.26278 0.91977 0.0
C1364 C 0.41411 0.29031 0.07917 0.0
C1365 C 0.41696 0.29276 0.05725 0.0
C1366 C 0.43672 0.2744 0.00906 0.0
C1367 C 0.42258 0.28023 0.95149 0.0
C1368 C 0.42382 0.28195 0.97519 0.0
C1369 C 0.4226 0.27981 0.04427 0.0
C1370 C 0.42383 0.28174 0.02059 0.0
H1371 H 0.40943 0.30123 0.9074 0.0
H1372 H 0.41455 0.30521 0.94575 0.0
H1373 H 0.44665 0.26846 0.97814 0.0
H1374 H 0.42528 0.25006 0.08251 0.0
H1375 H 0.43006 0.25425 0.04428 0.0
C1376 C 0.24813 0.04361 0.19391 0.0
C1377 C 0.23333 0.04935 0.18513 0.0
C1378 C 0.24819 0.0302 0.20789 0.0
C1379 C 0.22162 0.00866 0.24595 0.0
H1380 H 0.25403 0.97395 0.24213 0.0
C1381 C 0.21796 0.95023 0.2979 0.0
C1382 C 0.23271 0.94354 0.30556 0.0
C1383 C 0.21816 0.96326 0.28333 0.0
C1384 C 0.24504 0.98367 0.24361 0.0
H1385 H 0.20705 0.04534 0.18359 0.0
H1386 H 0.20717 0.02191 0.20803 0.0
H1387 H 0.25417 0.99607 0.2157 0.0
H1388 H 0.25923 0.94542 0.30445 0.0
H1389 H 0.25959 0.96844 0.27939 0.0
H1390 H 0.2126 0.99647 0.27398 0.0
C1391 C 0.21869 0.02786 0.20423 0.0
C1392 C 0.24509 0.99629 0.22841 0.0
C1393 C 0.21864 0.04119 0.19014 0.0
C1394 C 0.24767 0.95031 0.29874 0.0
C1395 C 0.24787 0.96341 0.28426 0.0
C1396 C 0.22163 0.99611 0.26122 0.0
C1397 C 0.23343 0.02236 0.21346 0.0
C1398 C 0.23334 0.00887 0.2294 0.0
C1399 C 0.23312 0.96993 0.27621 0.0
C1400 C 0.23331 0.98344 0.2602 0.0
H1401 H 0.25963 0.04967 0.19033 0.0
H1402 H 0.25972 0.02628 0.21487 0.0
H1403 H 0.21259 0.01836 0.24731 0.0
H1404 H 0.20625 0.94519 0.30279 0.0
H1405 H 0.20658 0.96783 0.27725 0.0
C1406 C 0.95018 0.24527 0.19679 0.0
C1407 C 0.9431 0.23036 0.19032 0.0
C1408 C 0.96341 0.2454 0.21106 0.0
C1409 C 0.99607 0.2189 0.23357 0.0
H1410 H 0.99732 0.25184 0.27855 0.0
C1411 C 0.04267 0.21614 0.30303 0.0
C1412 C 0.05091 0.23083 0.30775 0.0
C1413 C 0.02911 0.21615 0.28932 0.0
C1414 C 0.99718 0.24265 0.26598 0.0
H1415 H 0.94431 0.20391 0.19358 0.0
H1416 H 0.96721 0.20412 0.21874 0.0
H1417 H 0.97468 0.25173 0.25289 0.0
H1418 H 0.05119 0.25712 0.30235 0.0
H1419 H 0.02743 0.25714 0.27844 0.0
H1420 H 0.01851 0.20975 0.24681 0.0
C1421 C 0.96276 0.21571 0.21254 0.0
C1422 C 0.98426 0.24261 0.25123 0.0
C1423 C 0.94959 0.21558 0.1982 0.0
C1424 C 0.04506 0.24561 0.299 0.0
C1425 C 0.03143 0.24563 0.28539 0.0
C1426 C 0.00893 0.21889 0.24839 0.0
C1427 C 0.96978 0.23062 0.21923 0.0
C1428 C 0.98357 0.23074 0.23484 0.0
C1429 C 0.02346 0.23087 0.28017 0.0
C1430 C 0.00963 0.23077 0.26473 0.0
H1431 H 0.94545 0.25685 0.19092 0.0
H1432 H 0.96869 0.25708 0.21561 0.0
H1433 H 0.99607 0.20976 0.22094 0.0
H1434 H 0.04689 0.20457 0.30957 0.0
H1435 H 0.02307 0.20463 0.28579 0.0
C1436 C 0.748 0.04307 0.29993 0.0
C1437 C 0.76294 0.05021 0.30614 0.0
C1438 C 0.74779 0.02981 0.28569 0.0
C1439 C 0.77429 0.99741 0.26238 0.0
H1440 H 0.74139 0.99671 0.21734 0.0
C1441 C 0.77813 0.95285 0.19088 0.0
C1442 C 0.76365 0.94443 0.18564 0.0
C1443 C 0.77775 0.966 0.20525 0.0
C1444 C 0.75056 0.99669 0.22994 0.0
H1445 H 0.78938 0.04902 0.30255 0.0
H1446 H 0.78902 0.0261 0.27748 0.0
H1447 H 0.74123 0.01881 0.2438 0.0
H1448 H 0.73735 0.94341 0.19078 0.0
H1449 H 0.73669 0.96647 0.21585 0.0
H1450 H 0.78373 0.97539 0.24833 0.0
C1451 C 0.77747 0.03051 0.28384 0.0
C1452 C 0.75044 0.0093 0.24514 0.0
C1453 C 0.77767 0.0437 0.29814 0.0
C1454 C 0.74871 0.9497 0.19452 0.0
C1455 C 0.74831 0.96292 0.20881 0.0
C1456 C 0.77446 0.98486 0.24711 0.0
C1457 C 0.76252 0.02348 0.27732 0.0
C1458 C 0.76234 0.00983 0.26151 0.0
C1459 C 0.76287 0.97103 0.21457 0.0
C1460 C 0.76263 0.9844 0.2307 0.0
H1461 H 0.73646 0.04781 0.30591 0.0
H1462 H 0.73609 0.02451 0.28126 0.0
H1463 H 0.78345 0.99728 0.27499 0.0
H1464 H 0.78982 0.94907 0.18425 0.0
H1465 H 0.78913 0.97219 0.20917 0.0
C1466 C 0.04655 0.74757 0.19606 0.0
C1467 C 0.05256 0.7626 0.18838 0.0
C1468 C 0.03316 0.74717 0.21009 0.0
C1469 C -0.00152 0.77239 0.23002 0.0
H1470 H -0.00048 0.74221 0.27822 0.0
C1471 C 0.95302 0.77714 0.30047 0.0
C1472 C 0.94548 0.76245 0.30692 0.0
C1473 C 0.96629 0.77686 0.28629 0.0
C1474 C -0.00099 0.75061 0.26474 0.0
H1475 H 0.04926 0.78899 0.18916 0.0
H1476 H 0.02614 0.78834 0.21389 0.0
H1477 H 0.02197 0.74219 0.25226 0.0
H1478 H 0.94617 0.73594 0.30414 0.0
H1479 H 0.96948 0.73545 0.27945 0.0
H1480 H 0.97563 0.78097 0.24272 0.0
C1481 C 0.03152 0.77682 0.20883 0.0
C1482 C 0.01183 0.75056 0.24982 0.0
C1483 C 0.04483 0.77721 0.19474 0.0
C1484 C 0.95176 0.74745 0.29943 0.0
C1485 C 0.96512 0.74716 0.28537 0.0
C1486 C 0.98574 0.77251 0.24501 0.0
C1487 C 0.02558 0.76181 0.21679 0.0
C1488 C 0.01174 0.7615 0.23232 0.0
C1489 C 0.97235 0.76188 0.27841 0.0
C1490 C 0.9859 0.76167 0.26255 0.0
H1491 H 0.05225 0.73611 0.19137 0.0
H1492 H 0.02873 0.73538 0.21565 0.0
H1493 H 0.99786 0.78077 0.21653 0.0
H1494 H 0.94845 0.78888 0.306 0.0
H1495 H 0.97178 0.78837 0.28141 0.0
C1496 C 0.74725 0.95228 0.79917 0.0
C1497 C 0.76221 0.94686 0.80781 0.0
C1498 C 0.74685 0.96557 0.78499 0.0
C1499 C 0.77144 0.00086 0.76554 0.0
H1500 H 0.74358 0.9973 0.7152 0.0
C1501 C 0.77761 0.04464 0.69353 0.0
C1502 C 0.76296 0.05141 0.68565 0.0
C1503 C 0.7772 0.0317 0.70821 0.0
C1504 C 0.75132 -0.00149 0.72927 0.0
H1505 H 0.78844 0.95123 0.80879 0.0
H1506 H 0.78781 0.97422 0.78383 0.0
H1507 H 0.74326 0.97557 0.74216 0.0
H1508 H 0.73642 0.04967 0.68635 0.0
H1509 H 0.73572 0.02693 0.71193 0.0
H1510 H 0.77967 0.02369 0.75242 0.0
C1511 C 0.77633 0.96842 0.78821 0.0
C1512 C 0.75109 0.98611 0.74476 0.0
C1513 C 0.77671 0.9552 0.80245 0.0
C1514 C 0.7479 0.04467 0.69217 0.0
C1515 C 0.7475 0.03164 0.70675 0.0
C1516 C 0.77174 0.01319 0.74998 0.0
C1517 C 0.76143 0.97364 0.77911 0.0
C1518 C 0.7612 0.98711 0.76304 0.0
C1519 C 0.76215 0.02521 0.71518 0.0
C1520 C 0.76173 0.01211 0.73166 0.0
H1521 H 0.73587 0.94611 0.80309 0.0
H1522 H 0.73514 0.96946 0.77855 0.0
H1523 H 0.77917 0.00215 0.7796 0.0
H1524 H 0.7894 0.04959 0.68877 0.0
H1525 H 0.78868 0.02682 0.71423 0.0
C1526 C 0.95141 0.77936 0.69432 0.0
C1527 C 0.94437 0.76472 0.68681 0.0
C1528 C 0.9645 0.77892 0.70879 0.0
C1529 C 0.99758 0.7527 0.72946 0.0
H1530 H 0.99503 0.78086 0.77962 0.0
C1531 C 0.04425 0.74771 0.79869 0.0
C1532 C 0.05007 0.76253 0.8073 0.0
C1533 C 0.03088 0.74764 0.78465 0.0
C1534 C 0.99602 0.77305 0.7656 0.0
H1535 H 0.94576 0.73817 0.68799 0.0
H1536 H 0.96873 0.73741 0.71316 0.0
H1537 H 0.97322 0.78167 0.75283 0.0
H1538 H 0.0463 0.78885 0.80835 0.0
H1539 H 0.02317 0.78878 0.78361 0.0
H1540 H 0.02048 0.74423 0.74201 0.0
C1541 C 0.96413 0.74921 0.70786 0.0
C1542 C 0.98353 0.77352 0.75026 0.0
C1543 C 0.95096 0.74964 0.69352 0.0
C1544 C 0.04204 0.77723 0.80203 0.0
C1545 C 0.02873 0.77717 0.78792 0.0
C1546 C 0.01013 0.7523 0.74473 0.0
C1547 C 0.97087 0.76384 0.71588 0.0
C1548 C 0.9842 0.76338 0.73203 0.0
C1549 C 0.0231 0.7624 0.77886 0.0
C1550 C 0.00952 0.76249 0.76296 0.0
H1551 H 0.94657 0.79116 0.68942 0.0
H1552 H 0.9696 0.79039 0.71452 0.0
H1553 H -0.00152 0.74486 0.71545 0.0
H1554 H 0.05018 0.73618 0.80254 0.0
H1555 H 0.02667 0.73602 0.77826 0.0
C1556 C 0.2245 0.95698 0.68588 0.0
C1557 C 0.23438 0.94316 0.68968 0.0
C1558 C 0.22522 0.9705 0.69965 0.0
C1559 C 0.23552 0.98171 0.75497 0.0
H1560 H 0.23723 0.02613 0.73274 0.0
C1561 C 0.22435 0.03931 0.80731 0.0
C1562 C 0.23514 0.05253 0.80418 0.0
C1563 C 0.22489 0.0257 0.79365 0.0
C1564 C 0.23685 0.01379 0.73916 0.0
H1565 H 0.25288 0.93269 0.71066 0.0
H1566 H 0.25407 0.95629 0.73476 0.0
H1567 H 0.23717 0.00298 0.70778 0.0
H1568 H 0.25509 0.06182 0.78457 0.0
H1569 H 0.25597 0.03809 0.76069 0.0
H1570 H 0.23516 0.99253 0.78635 0.0
C1571 C 0.24573 0.95663 0.7212 0.0
C1572 C 0.23667 0.00057 0.72489 0.0
C1573 C 0.24512 0.94318 0.70734 0.0
C1574 C 0.24661 0.05181 0.78735 0.0
C1575 C 0.24706 0.03828 0.77361 0.0
C1576 C 0.23555 0.99494 0.76923 0.0
C1577 C 0.23572 0.97037 0.71757 0.0
C1578 C 0.23602 0.98441 0.73266 0.0
C1579 C 0.23613 0.02516 0.77653 0.0
C1580 C 0.23623 0.0111 0.76146 0.0
H1581 H 0.21611 0.95728 0.67239 0.0
H1582 H 0.21729 0.9809 0.69657 0.0
H1583 H 0.23488 0.96937 0.76138 0.0
H1584 H 0.21537 0.03955 0.82014 0.0
H1585 H 0.21625 0.01579 0.79617 0.0
C1586 C 0.95118 0.21726 0.80027 0.0
C1587 C 0.94411 0.23191 0.80771 0.0
C1588 C 0.96426 0.21767 0.78578 0.0
C1589 C 0.99726 0.24387 0.76488 0.0
H1590 H 0.99476 0.21545 0.71498 0.0
C1591 C 0.04392 0.24858 0.6956 0.0
C1592 C 0.04975 0.23373 0.68707 0.0
C1593 C 0.03055 0.2487 0.70965 0.0
C1594 C 0.99575 0.22333 0.72893 0.0
H1595 H 0.94543 0.25846 0.80636 0.0
H1596 H 0.96838 0.25917 0.78114 0.0
H1597 H 0.97295 0.21474 0.74178 0.0
H1598 H 0.04602 0.20741 0.6862 0.0
H1599 H 0.0229 0.20755 0.71098 0.0
H1600 H 0.02015 0.2523 0.75226 0.0
C1601 C 0.96381 0.24739 0.78652 0.0
C1602 C 0.98325 0.22292 0.74427 0.0
C1603 C 0.95065 0.24698 0.8009 0.0
C1604 C 0.04174 0.21905 0.69245 0.0
C1605 C 0.02844 0.21915 0.70659 0.0
C1606 C 0.00982 0.24421 0.74961 0.0
C1607 C 0.97058 0.23274 0.77858 0.0
C1608 C 0.9839 0.23316 0.76241 0.0
C1609 C 0.0228 0.23395 0.71555 0.0
C1610 C 0.00922 0.23392 0.73147 0.0
H1611 H 0.94639 0.20547 0.80527 0.0
H1612 H 0.96939 0.20619 0.78013 0.0
H1613 H -0.00185 0.25178 0.77882 0.0
H1614 H 0.04983 0.2601 0.69166 0.0
H1615 H 0.02634 0.26034 0.71597 0.0
C1616 C 0.74598 0.54469 0.69446 0.0
C1617 C 0.73106 0.55113 0.68695 0.0
C1618 C 0.74611 0.53147 0.70874 0.0
C1619 C 0.7206 0.51148 0.74952 0.0
H1620 H 0.75083 0.47511 0.74279 0.0
C1621 C 0.71643 0.45275 0.80095 0.0
C1622 C 0.73114 0.44511 0.80707 0.0
C1623 C 0.71662 0.46605 0.78681 0.0
C1624 C 0.74248 0.48529 0.74509 0.0
H1625 H 0.70459 0.54861 0.68807 0.0
H1626 H 0.70481 0.52549 0.71303 0.0
H1627 H 0.75072 0.49722 0.71638 0.0
H1628 H 0.75762 0.44568 0.8038 0.0
H1629 H 0.75799 0.46915 0.77949 0.0
H1630 H 0.71244 0.49971 0.77832 0.0
C1631 C 0.7164 0.53075 0.70801 0.0
C1632 C 0.74238 0.49791 0.7299 0.0
C1633 C 0.71628 0.5439 0.69361 0.0
C1634 C 0.74608 0.45129 0.79927 0.0
C1635 C 0.74628 0.46465 0.78522 0.0
C1636 C 0.72075 0.49892 0.76477 0.0
C1637 C 0.7313 0.52453 0.71589 0.0
C1638 C 0.7314 0.5111 0.73193 0.0
C1639 C 0.73153 0.47204 0.77858 0.0
C1640 C 0.73166 0.48565 0.7627 0.0
H1641 H 0.75757 0.55005 0.68961 0.0
H1642 H 0.75777 0.527 0.71467 0.0
H1643 H 0.71219 0.52164 0.75167 0.0
H1644 H 0.70473 0.44819 0.80663 0.0
H1645 H 0.70503 0.47133 0.78184 0.0
C1646 C 0.5445 0.74784 0.80072 0.0
C1647 C 0.55067 0.73289 0.80849 0.0
C1648 C 0.53109 0.74807 0.78675 0.0
C1649 C 0.49677 0.72252 0.7664 0.0
H1650 H 0.49835 0.75248 0.718 0.0
C1651 C 0.45236 0.71742 0.69479 0.0
C1652 C 0.44489 0.73207 0.68809 0.0
C1653 C 0.4654 0.71775 0.70934 0.0
C1654 C 0.49769 0.74415 0.73153 0.0
H1655 H 0.54752 0.70648 0.80808 0.0
H1656 H 0.52433 0.70683 0.78341 0.0
H1657 H 0.52043 0.75272 0.74445 0.0
H1658 H 0.44543 0.75859 0.69085 0.0
H1659 H 0.46833 0.75918 0.71618 0.0
H1660 H 0.47415 0.71379 0.75322 0.0
C1661 C 0.52963 0.71841 0.78835 0.0
C1662 C 0.51029 0.74432 0.74674 0.0
C1663 C 0.54297 0.7182 0.80242 0.0
C1664 C 0.45098 0.7471 0.69574 0.0
C1665 C 0.4641 0.74745 0.71016 0.0
C1666 C 0.48424 0.72228 0.75111 0.0
C1667 C 0.52364 0.73334 0.78016 0.0
C1668 C 0.51 0.73348 0.76434 0.0
C1669 C 0.47128 0.73276 0.71734 0.0
C1670 C 0.4846 0.73306 0.7335 0.0
H1671 H 0.55016 0.75936 0.80521 0.0
H1672 H 0.5266 0.75979 0.78104 0.0
H1673 H 0.49602 0.7142 0.77994 0.0
H1674 H 0.44792 0.70565 0.68915 0.0
H1675 H 0.47085 0.70626 0.71439 0.0
C1676 C 0.24885 0.45203 0.6927 0.0
C1677 C 0.26392 0.44566 0.68557 0.0
C1678 C 0.24847 0.46514 0.70716 0.0
C1679 C 0.27324 0.48436 0.74921 0.0
H1680 H 0.24375 0.52132 0.74235 0.0
C1681 C 0.27794 0.54234 0.80171 0.0
C1682 C 0.26337 0.55032 0.80762 0.0
C1683 C 0.2776 0.52921 0.78732 0.0
C1684 C 0.25188 0.51096 0.74469 0.0
H1685 H 0.29036 0.44825 0.68745 0.0
H1686 H 0.28967 0.47114 0.71272 0.0
H1687 H 0.24395 0.49951 0.71547 0.0
H1688 H 0.23694 0.55055 0.80369 0.0
H1689 H 0.23627 0.52734 0.77893 0.0
H1690 H 0.28107 0.49562 0.77849 0.0
C1691 C 0.27818 0.46591 0.70727 0.0
C1692 C 0.25203 0.49852 0.72923 0.0
C1693 C 0.27857 0.4529 0.6927 0.0
C1694 C 0.24838 0.54466 0.79934 0.0
C1695 C 0.24802 0.53145 0.78503 0.0
C1696 C 0.27301 0.49672 0.76472 0.0
C1697 C 0.26314 0.47202 0.71486 0.0
C1698 C 0.2628 0.48517 0.73127 0.0
C1699 C 0.26265 0.5237 0.77865 0.0
C1700 C 0.26241 0.51023 0.76258 0.0
H1701 H 0.23737 0.44667 0.68747 0.0
H1702 H 0.2367 0.46956 0.71284 0.0
H1703 H 0.28146 0.47405 0.75137 0.0
H1704 H 0.28969 0.5465 0.80776 0.0
H1705 H 0.28911 0.52368 0.78255 0.0
C1706 C 0.45107 0.24937 0.80014 0.0
C1707 C 0.44554 0.26438 0.80851 0.0
C1708 C 0.46429 0.24892 0.78586 0.0
C1709 C 0.49926 0.27358 0.7656 0.0
H1710 H 0.49597 0.24475 0.71617 0.0
C1711 C 0.54297 0.27874 0.69335 0.0
C1712 C 0.54988 0.264 0.68595 0.0
C1713 C 0.53005 0.27851 0.70808 0.0
C1714 C 0.4971 0.25276 0.72999 0.0
H1715 H 0.44964 0.29066 0.80887 0.0
H1716 H 0.47251 0.28994 0.78369 0.0
H1717 H 0.47423 0.24474 0.74314 0.0
H1718 H 0.5484 0.23747 0.68759 0.0
H1719 H 0.52569 0.23707 0.71324 0.0
H1720 H 0.52202 0.28177 0.75222 0.0
C1721 C 0.46685 0.27846 0.78838 0.0
C1722 C 0.4847 0.25272 0.74548 0.0
C1723 C 0.45369 0.2789 0.80274 0.0
C1724 C 0.5433 0.24902 0.69302 0.0
C1725 C 0.53028 0.24879 0.70764 0.0
C1726 C 0.51159 0.2737 0.75004 0.0
C1727 C 0.47218 0.26349 0.77958 0.0
C1728 C 0.48562 0.26317 0.76345 0.0
C1729 C 0.52372 0.26353 0.71557 0.0
C1730 C 0.51061 0.26333 0.73204 0.0
H1731 H 0.44505 0.23797 0.80438 0.0
H1732 H 0.46827 0.23716 0.77967 0.0
H1733 H 0.50049 0.28157 0.77942 0.0
H1734 H 0.54779 0.29047 0.68817 0.0
H1735 H 0.52507 0.29006 0.7137 0.0
C1736 C 0.27617 0.54404 0.19517 0.0
C1737 C 0.26168 0.55193 0.18869 0.0
C1738 C 0.27559 0.53086 0.20943 0.0
C1739 C 0.24934 0.51168 0.25071 0.0
H1740 H 0.27942 0.47523 0.24343 0.0
C1741 C 0.24724 0.45195 0.30151 0.0
C1742 C 0.26244 0.44581 0.3085 0.0
C1743 C 0.24657 0.46525 0.28735 0.0
C1744 C 0.27105 0.4854 0.24577 0.0
H1745 H 0.23519 0.55208 0.19175 0.0
H1746 H 0.23413 0.52875 0.21641 0.0
H1747 H 0.27898 0.4972 0.21693 0.0
H1748 H 0.28882 0.44902 0.3067 0.0
H1749 H 0.28763 0.47221 0.28197 0.0
H1750 H 0.24133 0.49967 0.27952 0.0
C1751 C 0.24597 0.53296 0.21074 0.0
C1752 C 0.2708 0.49799 0.2306 0.0
C1753 C 0.24655 0.54623 0.19651 0.0
C1754 C 0.27693 0.45347 0.30154 0.0
C1755 C 0.27626 0.46666 0.28729 0.0
C1756 C 0.24952 0.499 0.26584 0.0
C1757 C 0.2605 0.52518 0.21744 0.0
C1758 C 0.26007 0.51138 0.23301 0.0
C1759 C 0.26109 0.47253 0.27981 0.0
C1760 C 0.26052 0.48583 0.26362 0.0
H1761 H 0.28802 0.54823 0.1895 0.0
H1762 H 0.28704 0.52535 0.21452 0.0
H1763 H 0.24107 0.52191 0.25319 0.0
H1764 H 0.23587 0.44628 0.30662 0.0
H1765 H 0.23472 0.46948 0.28176 0.0
C1766 C 0.54471 0.24783 0.30047 0.0
C1767 C 0.55117 0.26283 0.30768 0.0
C1768 C 0.53166 0.24756 0.28592 0.0
C1769 C 0.51246 0.27256 0.24399 0.0
H1770 H 0.47548 0.24311 0.25093 0.0
C1771 C 0.45404 0.27762 0.19231 0.0
C1772 C 0.44601 0.26308 0.18636 0.0
C1773 C 0.46733 0.27718 0.20644 0.0
C1774 C 0.48584 0.25123 0.24857 0.0
H1775 H 0.54883 0.2893 0.30574 0.0
H1776 H 0.52603 0.28881 0.28032 0.0
H1777 H 0.4974 0.24317 0.27764 0.0
H1778 H 0.44587 0.23662 0.18995 0.0
H1779 H 0.46933 0.2358 0.21428 0.0
H1780 H 0.50105 0.28055 0.21486 0.0
C1781 C 0.53115 0.27728 0.28579 0.0
C1782 C 0.49835 0.2513 0.26392 0.0
C1783 C 0.54411 0.27755 0.30045 0.0
C1784 C 0.4518 0.24803 0.19433 0.0
C1785 C 0.46515 0.24758 0.20839 0.0
C1786 C 0.50001 0.27242 0.22857 0.0
C1787 C 0.52492 0.26229 0.27819 0.0
C1788 C 0.51171 0.26205 0.26185 0.0
C1789 C 0.47293 0.26217 0.21484 0.0
C1790 C 0.4865 0.26184 0.23075 0.0
H1791 H 0.54993 0.2363 0.30577 0.0
H1792 H 0.52716 0.23583 0.28024 0.0
H1793 H 0.52277 0.28077 0.24179 0.0
H1794 H 0.44979 0.2894 0.18649 0.0
H1795 H 0.4729 0.28866 0.21127 0.0
C1796 C 0.74639 0.54556 0.2964 0.0
C1797 C 0.73151 0.55165 0.30449 0.0
C1798 C 0.74651 0.53229 0.28218 0.0
C1799 C 0.72093 0.49785 0.26255 0.0
H1800 H 0.75065 0.49894 0.21387 0.0
C1801 C 0.71653 0.45142 0.193 0.0
C1802 C 0.73136 0.44423 0.18644 0.0
C1803 C 0.71657 0.46488 0.2069 0.0
C1804 C 0.74237 0.49842 0.22748 0.0
H1805 H 0.70508 0.5486 0.30422 0.0
H1806 H 0.70524 0.52564 0.27917 0.0
H1807 H 0.75078 0.52145 0.23971 0.0
H1808 H 0.75787 0.44569 0.18877 0.0
H1809 H 0.75794 0.46926 0.21299 0.0
H1810 H 0.71243 0.47488 0.25017 0.0
C1811 C 0.71686 0.5309 0.28404 0.0
C1812 C 0.74248 0.51128 0.24233 0.0
C1813 C 0.71676 0.54411 0.29832 0.0
C1814 C 0.74625 0.451 0.19356 0.0
C1815 C 0.74629 0.46452 0.20735 0.0
C1816 C 0.72076 0.48505 0.24765 0.0
C1817 C 0.73172 0.5249 0.27569 0.0
C1818 C 0.73176 0.51114 0.26005 0.0
C1819 C 0.73145 0.47146 0.21438 0.0
C1820 C 0.73148 0.4852 0.22997 0.0
H1821 H 0.75796 0.55111 0.30094 0.0
H1822 H 0.75819 0.5278 0.27632 0.0
H1823 H 0.7127 0.49722 0.2762 0.0
H1824 H 0.70487 0.44646 0.18774 0.0
H1825 H 0.70495 0.47011 0.21185 0.0
C1826 C 0.44695 0.71889 0.29293 0.0
C1827 C 0.44084 0.733 0.30309 0.0
C1828 C 0.45979 0.72005 0.27818 0.0
C1829 C 0.49431 0.7461 0.26197 0.0
H1830 H 0.49211 0.72078 0.20925 0.0
C1831 C 0.5445 0.75023 0.19663 0.0
C1832 C 0.54963 0.73525 0.18772 0.0
C1833 C 0.53054 0.75092 0.20964 0.0
C1834 C 0.49297 0.72783 0.22397 0.0
H1835 H 0.4434 0.75939 0.30594 0.0
H1836 H 0.46594 0.76142 0.28012 0.0
H1837 H 0.46915 0.72015 0.23435 0.0
H1838 H 0.54412 0.7093 0.18518 0.0
H1839 H 0.51991 0.71045 0.20806 0.0
H1840 H 0.51826 0.75354 0.25178 0.0
C1841 C 0.46082 0.74946 0.28366 0.0
C1842 C 0.47982 0.72747 0.23833 0.0
C1843 C 0.4479 0.7483 0.29837 0.0
C1844 C 0.54042 0.72103 0.19177 0.0
C1845 C 0.52649 0.72171 0.20478 0.0
C1846 C 0.5075 0.74642 0.24762 0.0
C1847 C 0.46682 0.73534 0.27332 0.0
C1848 C 0.48043 0.73645 0.25759 0.0
C1849 C 0.52145 0.73664 0.21399 0.0
C1850 C 0.50705 0.73713 0.22858 0.0
H1851 H 0.44176 0.70692 0.29627 0.0
H1852 H 0.46432 0.70893 0.27071 0.0
H1853 H 0.4952 0.75302 0.27679 0.0
H1854 H 0.55135 0.7614 0.19372 0.0
H1855 H 0.52686 0.76264 0.21628 0.0
C1856 C 0.20134 0.11712 0.21361 0.0
C1857 C 0.1996 0.1185 0.19124 0.0
C1858 C 0.191 0.12582 0.22739 0.0
C1859 C 0.15173 0.14906 0.22906 0.0
H1860 H 0.17079 0.16762 0.28076 0.0
C1861 C 0.12041 0.19935 0.28013 0.0
C1862 C 0.12062 0.19722 0.30253 0.0
C1863 C 0.1293 0.18881 0.2668 0.0
C1864 C 0.16527 0.16236 0.2665 0.0
H1865 H 0.18567 0.12994 0.16566 0.0
H1866 H 0.16792 0.1456 0.18968 0.0
H1867 H 0.18779 0.15122 0.2568 0.0
H1868 H 0.13016 0.18236 0.32859 0.0
H1869 H 0.14594 0.16405 0.30524 0.0
H1870 H 0.12931 0.16074 0.2386 0.0
C1871 C 0.177 0.1375 0.19666 0.0
C1872 C 0.17497 0.15291 0.25277 0.0
C1873 C 0.18723 0.12862 0.18287 0.0
C1874 C 0.1298 0.18429 0.31137 0.0
C1875 C 0.13886 0.17387 0.29804 0.0
C1876 C 0.14207 0.15868 0.24269 0.0
C1877 C 0.17882 0.13629 0.21911 0.0
C1878 C 0.16834 0.14614 0.23385 0.0
C1879 C 0.13872 0.17607 0.27564 0.0
C1880 C 0.14876 0.16543 0.26152 0.0
H1881 H 0.21068 0.10927 0.22052 0.0
H1882 H 0.19255 0.12429 0.24456 0.0
H1883 H 0.14612 0.14382 0.21485 0.0
H1884 H 0.11341 0.2092 0.27288 0.0
H1885 H 0.1291 0.19087 0.2496 0.0
C1886 C 0.86288 0.20724 0.20786 0.0
C1887 C 0.87166 0.20021 0.19074 0.0
C1888 C 0.85314 0.19749 0.22117 0.0
C1889 C 0.84764 0.15509 0.23972 0.0
H1890 H 0.80445 0.17039 0.25659 0.0
C1891 C 0.80951 0.12406 0.30666 0.0
C1892 C 0.79274 0.12176 0.30246 0.0
C1893 C 0.81916 0.13345 0.29276 0.0
C1894 C 0.81645 0.16591 0.25192 0.0
H1895 H 0.87714 0.1775 0.1741 0.0
H1896 H 0.86008 0.16041 0.19741 0.0
H1897 H 0.82113 0.18698 0.23235 0.0
H1898 H 0.77288 0.12748 0.2805 0.0
H1899 H 0.78973 0.14389 0.25625 0.0
H1900 H 0.84289 0.13395 0.2592 0.0
C1901 C 0.86083 0.17345 0.20059 0.0
C1902 C 0.82605 0.17548 0.23821 0.0
C1903 C 0.87052 0.18324 0.18719 0.0
C1904 C 0.78578 0.12907 0.28417 0.0
C1905 C 0.7954 0.13853 0.27034 0.0
C1906 C 0.83807 0.14556 0.25355 0.0
C1907 C 0.85203 0.18049 0.2177 0.0
C1908 C 0.84176 0.17018 0.23198 0.0
C1909 C 0.81219 0.1408 0.27447 0.0
C1910 C 0.82237 0.15088 0.25979 0.0
H1911 H 0.86355 0.22029 0.21102 0.0
H1912 H 0.84666 0.20323 0.23438 0.0
H1913 H 0.85976 0.15076 0.23534 0.0
H1914 H 0.8152 0.11857 0.32066 0.0
H1915 H 0.83203 0.13514 0.29648 0.0
C1916 C 0.87571 0.79231 0.2795 0.0
C1917 C 0.87554 0.79507 0.30177 0.0
C1918 C 0.86676 0.80242 0.26571 0.0
C1919 C 0.84552 0.84273 0.26295 0.0
H1920 H 0.82388 0.82277 0.21396 0.0
C1921 C 0.79581 0.87539 0.21232 0.0
C1922 C 0.79727 0.87414 0.18988 0.0
C1923 C 0.80601 0.86624 0.22579 0.0
C1924 C 0.82999 0.82853 0.22746 0.0
H1925 H 0.86593 0.81054 0.32714 0.0
H1926 H 0.84984 0.82792 0.30314 0.0
H1927 H 0.84018 0.80579 0.23808 0.0
H1928 H 0.81057 0.86242 0.16389 0.0
H1929 H 0.82828 0.84621 0.1875 0.0
H1930 H 0.83484 0.8654 0.25251 0.0
C1931 C 0.85719 0.81819 0.29623 0.0
C1932 C 0.83938 0.81883 0.24127 0.0
C1933 C 0.86632 0.80818 0.31001 0.0
C1934 C 0.80917 0.86361 0.18114 0.0
C1935 C 0.81925 0.8543 0.19462 0.0
C1936 C 0.83596 0.85239 0.24926 0.0
C1937 C 0.85725 0.8154 0.27389 0.0
C1938 C 0.84729 0.8258 0.25918 0.0
C1939 C 0.81774 0.85552 0.21707 0.0
C1940 C 0.82812 0.84538 0.23138 0.0
H1941 H 0.88284 0.78237 0.27268 0.0
H1942 H 0.86739 0.80009 0.24859 0.0
H1943 H 0.85165 0.84858 0.27635 0.0
H1944 H 0.78676 0.88344 0.2195 0.0
H1945 H 0.8045 0.86731 0.24303 0.0
C1946 C 0.20656 0.86668 0.2854 0.0
C1947 C 0.2006 0.87339 0.30466 0.0
C1948 C 0.19619 0.85782 0.27185 0.0
C1949 C 0.15752 0.83453 0.27119 0.0
H1950 H 0.16137 0.84004 0.20946 0.0
C1951 C 0.12891 0.7891 0.21099 0.0
C1952 C 0.12178 0.7955 0.19223 0.0
C1953 C 0.13765 0.79928 0.22493 0.0
C1954 C 0.16001 0.83847 0.22665 0.0
H1955 H 0.17911 0.87611 0.3249 0.0
H1956 H 0.16091 0.86067 0.30111 0.0
H1957 H 0.17803 0.85685 0.23338 0.0
H1958 H 0.11804 0.81756 0.17341 0.0
H1959 H 0.13323 0.83542 0.19787 0.0
H1960 H 0.13939 0.81625 0.26444 0.0
C1961 C 0.17366 0.86214 0.2966 0.0
C1962 C 0.1697 0.84797 0.24036 0.0
C1963 C 0.18405 0.87103 0.31017 0.0
C1964 C 0.12348 0.81229 0.18771 0.0
C1965 C 0.13223 0.82249 0.20168 0.0
C1966 C 0.14784 0.82502 0.25747 0.0
C1967 C 0.17961 0.85548 0.27725 0.0
C1968 C 0.16869 0.84598 0.26277 0.0
C1969 C 0.13943 0.81609 0.22043 0.0
C1970 C 0.14909 0.82677 0.23504 0.0
H1971 H 0.21927 0.86826 0.28076 0.0
H1972 H 0.20123 0.85262 0.25726 0.0
H1973 H 0.15654 0.83262 0.28837 0.0
H1974 H 0.12783 0.7762 0.21488 0.0
H1975 H 0.14326 0.79392 0.23906 0.0
C1976 C 0.86442 0.81081 0.68031 0.0
C1977 C 0.87419 0.79846 0.68949 0.0
C1978 C 0.85519 0.82125 0.69341 0.0
C1979 C 0.85262 0.83778 0.74814 0.0
H1980 H 0.8064 0.84364 0.73557 0.0
C1981 C 0.80816 0.86731 0.80899 0.0
C1982 C 0.79544 0.87718 0.80099 0.0
C1983 C 0.81816 0.85842 0.79493 0.0
C1984 C 0.81934 0.84238 0.73914 0.0
H1985 H 0.88222 0.78751 0.71947 0.0
H1986 H 0.86625 0.80587 0.74231 0.0
H1987 H 0.82336 0.82722 0.71151 0.0
H1988 H 0.7834 0.88582 0.77206 0.0
H1989 H 0.8011 0.87072 0.7475 0.0
H1990 H 0.84874 0.85305 0.77562 0.0
C1991 C 0.86571 0.80746 0.72503 0.0
C1992 C 0.82903 0.83294 0.72536 0.0
C1993 C 0.87477 0.7969 0.71196 0.0
C1994 C 0.79304 0.87819 0.77868 0.0
C1995 C 0.80313 0.86946 0.76462 0.0
C1996 C 0.84298 0.84738 0.76181 0.0
C1997 C 0.85575 0.81966 0.71589 0.0
C1998 C 0.84572 0.83042 0.72985 0.0
C1999 C 0.81575 0.85937 0.77256 0.0
C2000 C 0.82618 0.84967 0.7576 0.0
H2001 H 0.86377 0.81227 0.66303 0.0
H2002 H 0.84767 0.83064 0.68598 0.0
H2003 H 0.86551 0.83618 0.75182 0.0
H2004 H 0.81024 0.86625 0.82613 0.0
H2005 H 0.82757 0.85058 0.80166 0.0
C2006 C 0.18381 0.86455 0.67824 0.0
C2007 C 0.19384 0.87648 0.68788 0.0
C2008 C 0.17298 0.85528 0.69074 0.0
C2009 C 0.1513 0.85434 0.74262 0.0
H2010 H 0.154 0.80707 0.73658 0.0
C2011 C 0.12485 0.81022 0.80627 0.0
C2012 C 0.11795 0.7954 0.79922 0.0
C2013 C 0.13289 0.82057 0.79178 0.0
C2014 C 0.15284 0.82024 0.73826 0.0
H2015 H 0.20002 0.8885 0.7179 0.0
H2016 H 0.18098 0.87245 0.73965 0.0
H2017 H 0.16957 0.82463 0.71236 0.0
H2018 H 0.11367 0.77991 0.77144 0.0
H2019 H 0.12731 0.79811 0.74606 0.0
H2020 H 0.13454 0.85002 0.76846 0.0
C2021 C 0.1815 0.87024 0.72249 0.0
C2022 C 0.16179 0.83029 0.72438 0.0
C2023 C 0.19246 0.87935 0.71006 0.0
C2024 C 0.11902 0.79121 0.77737 0.0
C2025 C 0.12691 0.80161 0.76285 0.0
C2026 C 0.1422 0.8443 0.75638 0.0
C2027 C 0.17184 0.85795 0.71301 0.0
C2028 C 0.16127 0.84742 0.7266 0.0
C2029 C 0.13406 0.81636 0.76988 0.0
C2030 C 0.14303 0.82711 0.75456 0.0
H2031 H 0.18464 0.8621 0.66116 0.0
H2032 H 0.16557 0.84595 0.68303 0.0
H2033 H 0.15055 0.86753 0.74452 0.0
H2034 H 0.12424 0.81374 0.82305 0.0
H2035 H 0.13847 0.8317 0.79784 0.0
C2036 C 0.1263 0.18642 0.68622 0.0
C2037 C 0.11827 0.20046 0.69396 0.0
C2038 C 0.13474 0.17609 0.70032 0.0
C2039 C 0.15348 0.17565 0.75463 0.0
H2040 H 0.15454 0.12862 0.74533 0.0
C2041 C 0.18503 0.13101 0.81376 0.0
C2042 C 0.19601 0.11995 0.80413 0.0
C2043 C 0.17423 0.1402 0.8011 0.0
C2044 C 0.15436 0.14174 0.74807 0.0
H2045 H 0.11239 0.21451 0.72254 0.0
H2046 H 0.1267 0.19629 0.74721 0.0
H2047 H 0.13804 0.14593 0.72171 0.0
H2048 H 0.204 0.10943 0.77387 0.0
H2049 H 0.18503 0.12533 0.75183 0.0
H2050 H 0.16974 0.17138 0.78108 0.0
C2051 C 0.12689 0.19343 0.73021 0.0
C2052 C 0.14499 0.15168 0.7345 0.0
C2053 C 0.11861 0.20384 0.71609 0.0
C2054 C 0.19569 0.1179 0.78172 0.0
C2055 C 0.18477 0.12692 0.76911 0.0
C2056 C 0.16271 0.16569 0.76831 0.0
C2057 C 0.13519 0.17949 0.7225 0.0
C2058 C 0.14457 0.16879 0.73747 0.0
C2059 C 0.17409 0.13831 0.77864 0.0
C2060 C 0.16338 0.14867 0.76503 0.0
H2061 H 0.12627 0.18356 0.66921 0.0
H2062 H 0.14119 0.16561 0.69376 0.0
H2063 H 0.1537 0.18879 0.7572 0.0
H2064 H 0.18502 0.13283 0.83101 0.0
H2065 H 0.16603 0.14882 0.80886 0.0
C2066 C 0.86514 0.18671 0.81039 0.0
C2067 C 0.87413 0.20008 0.80243 0.0
C2068 C 0.85585 0.17697 0.79647 0.0
C2069 C 0.83711 0.17747 0.74204 0.0
H2070 H 0.83311 0.13063 0.75163 0.0
C2071 C 0.80642 0.13349 0.68119 0.0
C2072 C 0.79483 0.12262 0.68989 0.0
C2073 C 0.81651 0.14276 0.6947 0.0
C2074 C 0.83407 0.14372 0.74885 0.0
H2075 H 0.88084 0.21352 0.77367 0.0
H2076 H 0.8651 0.19627 0.74931 0.0
H2077 H 0.85022 0.14704 0.77558 0.0
H2078 H 0.78481 0.11272 0.71947 0.0
H2079 H 0.80257 0.12879 0.74305 0.0
H2080 H 0.82115 0.17401 0.71507 0.0
C2081 C 0.86478 0.19353 0.76634 0.0
C2082 C 0.84381 0.15314 0.76261 0.0
C2083 C 0.8739 0.20337 0.78028 0.0
C2084 C 0.79362 0.12104 0.71232 0.0
C2085 C 0.80384 0.13015 0.72581 0.0
C2086 C 0.82754 0.16801 0.72816 0.0
C2087 C 0.85551 0.18029 0.77426 0.0
C2088 C 0.84538 0.17016 0.75944 0.0
C2089 C 0.81532 0.14115 0.71714 0.0
C2090 C 0.82586 0.15107 0.73151 0.0
H2091 H 0.86506 0.18395 0.82742 0.0
H2092 H 0.84868 0.16704 0.8032 0.0
H2093 H 0.83776 0.19057 0.73933 0.0
H2094 H 0.80762 0.13494 0.66395 0.0
H2095 H 0.82535 0.15108 0.68762 0.0
C2096 C 0.68595 0.63153 0.68064 0.0
C2097 C 0.69794 0.62131 0.6898 0.0
C2098 C 0.67555 0.64078 0.69377 0.0
C2099 C 0.65814 0.64282 0.74797 0.0
H2100 H 0.65432 0.6895 0.73712 0.0
C2101 C 0.62877 0.68694 0.80946 0.0
C2102 C 0.6198 0.70035 0.80161 0.0
C2103 C 0.63755 0.67688 0.79535 0.0
C2104 C 0.65498 0.67645 0.74019 0.0
H2105 H 0.70827 0.61249 0.71977 0.0
H2106 H 0.68994 0.62848 0.74267 0.0
H2107 H 0.67058 0.67249 0.71296 0.0
H2108 H 0.61258 0.71356 0.77289 0.0
H2109 H 0.62741 0.69576 0.74822 0.0
H2110 H 0.64239 0.64663 0.775 0.0
C2111 C 0.68862 0.62935 0.72538 0.0
C2112 C 0.66435 0.66673 0.72637 0.0
C2113 C 0.69916 0.62029 0.71228 0.0
C2114 C 0.61952 0.70338 0.77941 0.0
C2115 C 0.62812 0.69322 0.76528 0.0
C2116 C 0.64859 0.6525 0.76166 0.0
C2117 C 0.6768 0.63977 0.71626 0.0
C2118 C 0.66614 0.64987 0.73025 0.0
C2119 C 0.63737 0.67992 0.77307 0.0
C2120 C 0.64702 0.66947 0.75807 0.0
H2121 H 0.68476 0.63253 0.66335 0.0
H2122 H 0.66647 0.64867 0.68636 0.0
H2123 H 0.65919 0.6298 0.75117 0.0
H2124 H 0.62924 0.68437 0.82653 0.0
H2125 H 0.64474 0.66692 0.80199 0.0
C2126 C 0.30839 0.6313 0.81272 0.0
C2127 C 0.29665 0.62065 0.80385 0.0
C2128 C 0.31855 0.64059 0.79935 0.0
C2129 C 0.33602 0.64215 0.7452 0.0
H2130 H 0.33968 0.6889 0.75566 0.0
C2131 C 0.36681 0.68598 0.68444 0.0
C2132 C 0.37575 0.69929 0.69262 0.0
C2133 C 0.35763 0.67601 0.69821 0.0
C2134 C 0.33904 0.67583 0.75269 0.0
H2135 H 0.2865 0.61113 0.77414 0.0
H2136 H 0.30443 0.62724 0.75078 0.0
H2137 H 0.32312 0.67204 0.77961 0.0
H2138 H 0.38253 0.71241 0.7216 0.0
H2139 H 0.36699 0.69476 0.74571 0.0
H2140 H 0.35214 0.64581 0.7185 0.0
C2141 C 0.30572 0.62841 0.76804 0.0
C2142 C 0.3295 0.6662 0.76639 0.0
C2143 C 0.29542 0.61928 0.7814 0.0
C2144 C 0.37561 0.7023 0.71483 0.0
C2145 C 0.36661 0.69224 0.72863 0.0
C2146 C 0.34574 0.65175 0.73162 0.0
C2147 C 0.3173 0.63923 0.77689 0.0
C2148 C 0.32783 0.6493 0.7627 0.0
C2149 C 0.35737 0.67906 0.72048 0.0
C2150 C 0.34731 0.66873 0.73513 0.0
H2151 H 0.3096 0.63258 0.82997 0.0
H2152 H 0.32747 0.64876 0.80656 0.0
H2153 H 0.33506 0.6291 0.74215 0.0
H2154 H 0.36666 0.68343 0.66735 0.0
H2155 H 0.35048 0.66613 0.69131 0.0
C2156 C 0.36469 0.30991 0.81321 0.0
C2157 C 0.37528 0.29808 0.80444 0.0
C2158 C 0.35533 0.31996 0.79975 0.0
C2159 C 0.35335 0.3365 0.74495 0.0
H2160 H 0.30678 0.34089 0.75628 0.0
C2161 C 0.30904 0.36584 0.68365 0.0
C2162 C 0.29613 0.37545 0.69167 0.0
C2163 C 0.31899 0.35686 0.69766 0.0
C2164 C 0.3198 0.34003 0.75304 0.0
H2165 H 0.38462 0.28764 0.77479 0.0
H2166 H 0.36838 0.3053 0.75132 0.0
H2167 H 0.32381 0.32479 0.78059 0.0
H2168 H 0.28364 0.38346 0.72061 0.0
H2169 H 0.30122 0.36817 0.74507 0.0
H2170 H 0.34946 0.35187 0.71757 0.0
C2171 C 0.36732 0.3068 0.76856 0.0
C2172 C 0.32954 0.33076 0.76697 0.0
C2173 C 0.37653 0.29665 0.782 0.0
C2174 C 0.29344 0.37605 0.71395 0.0
C2175 C 0.30347 0.3672 0.72796 0.0
C2176 C 0.34365 0.3459 0.73113 0.0
C2177 C 0.35655 0.31848 0.7773 0.0
C2178 C 0.34638 0.32883 0.76298 0.0
C2179 C 0.31631 0.35741 0.72 0.0
C2180 C 0.32673 0.3477 0.73493 0.0
H2181 H 0.36349 0.31128 0.83046 0.0
H2182 H 0.3472 0.32896 0.8069 0.0
H2183 H 0.36635 0.33535 0.74165 0.0
H2184 H 0.31134 0.36511 0.66652 0.0
H2185 H 0.3286 0.34926 0.69092 0.0
C2186 C 0.61966 0.29478 0.71166 0.0
C2187 C 0.62111 0.29589 0.68921 0.0
C2188 C 0.62884 0.30505 0.72499 0.0
C2189 C 0.66669 0.32879 0.72681 0.0
H2190 H 0.646 0.35143 0.77448 0.0
C2191 C 0.70238 0.37499 0.77884 0.0
C2192 C 0.69922 0.37511 0.80102 0.0
C2193 C 0.69245 0.36595 0.76492 0.0
C2194 C 0.65203 0.34503 0.76143 0.0
H2195 H 0.63327 0.30857 0.66305 0.0
H2196 H 0.64955 0.32641 0.68644 0.0
H2197 H 0.62946 0.33435 0.75068 0.0
H2198 H 0.68324 0.36592 0.8261 0.0
H2199 H 0.66617 0.34969 0.80191 0.0
H2200 H 0.68932 0.33902 0.73776 0.0
C2201 C 0.64127 0.3176 0.69367 0.0
C2202 C 0.64252 0.33531 0.74776 0.0
C2203 C 0.63193 0.30745 0.68031 0.0
C2204 C 0.6859 0.36609 0.80904 0.0
C2205 C 0.67607 0.35688 0.79514 0.0
C2206 C 0.67623 0.33836 0.7406 0.0
C2207 C 0.63978 0.31651 0.71612 0.0
C2208 C 0.64977 0.3271 0.73034 0.0
C2209 C 0.67925 0.35666 0.7729 0.0
C2210 C 0.66903 0.3466 0.7581 0.0
H2211 H 0.61139 0.28599 0.71896 0.0
H2212 H 0.62757 0.30385 0.74225 0.0
H2213 H 0.67262 0.32241 0.71365 0.0
H2214 H 0.7125 0.38196 0.77219 0.0
H2215 H 0.69509 0.36635 0.74787 0.0
C2216 C 0.37659 0.29457 0.21414 0.0
C2217 C 0.37549 0.29639 0.19175 0.0
C2218 C 0.36747 0.30463 0.2278 0.0
C2219 C 0.34404 0.34368 0.2293 0.0
H2220 H 0.32486 0.32435 0.28043 0.0
C2221 C 0.29444 0.37584 0.2806 0.0
C2222 C 0.29646 0.37522 0.30301 0.0
C2223 C 0.30465 0.3667 0.26714 0.0
C2224 C 0.33028 0.32994 0.26633 0.0
H2225 H 0.36401 0.31017 0.16603 0.0
H2226 H 0.3477 0.32749 0.18984 0.0
H2227 H 0.3414 0.30742 0.25652 0.0
H2228 H 0.31075 0.36466 0.32894 0.0
H2229 H 0.32852 0.34852 0.30536 0.0
H2230 H 0.33252 0.36612 0.23899 0.0
C2231 C 0.35588 0.31852 0.19691 0.0
C2232 C 0.3398 0.32027 0.25263 0.0
C2233 C 0.36514 0.30854 0.18325 0.0
C2234 C 0.30891 0.36535 0.31172 0.0
C2235 C 0.31902 0.35607 0.29825 0.0
C2236 C 0.33439 0.35331 0.24291 0.0
C2237 C 0.35689 0.31665 0.21936 0.0
C2238 C 0.34682 0.32702 0.23395 0.0
C2239 C 0.31697 0.35664 0.27583 0.0
C2240 C 0.32743 0.34653 0.26156 0.0
H2241 H 0.38458 0.28539 0.22115 0.0
H2242 H 0.36881 0.30305 0.24499 0.0
H2243 H 0.34947 0.34935 0.21526 0.0
H2244 H 0.28495 0.38337 0.27345 0.0
H2245 H 0.30271 0.36725 0.24993 0.0
C2246 C 0.63351 0.30569 0.3131 0.0
C2247 C 0.62267 0.29408 0.30436 0.0
C2248 C 0.64298 0.31562 0.29961 0.0
C2249 C 0.64447 0.33273 0.2452 0.0
H2250 H 0.6912 0.33669 0.25556 0.0
C2251 C 0.6879 0.36373 0.18414 0.0
C2252 C 0.70103 0.37297 0.19228 0.0
C2253 C 0.67815 0.35435 0.19795 0.0
C2254 C 0.67814 0.33595 0.2526 0.0
H2255 H 0.61305 0.28386 0.27475 0.0
H2256 H 0.62944 0.30134 0.25121 0.0
H2257 H 0.67443 0.3202 0.27974 0.0
H2258 H 0.71409 0.37995 0.22122 0.0
H2259 H 0.69683 0.36404 0.24538 0.0
H2260 H 0.64804 0.34867 0.21831 0.0
C2261 C 0.63063 0.30274 0.26845 0.0
C2262 C 0.66855 0.32645 0.26644 0.0
C2263 C 0.62133 0.29269 0.28192 0.0
C2264 C 0.70412 0.37283 0.21448 0.0
C2265 C 0.69428 0.36362 0.2283 0.0
C2266 C 0.65402 0.34238 0.23149 0.0
C2267 C 0.64159 0.31426 0.27716 0.0
C2268 C 0.65165 0.32469 0.26281 0.0
C2269 C 0.68123 0.35416 0.22022 0.0
C2270 C 0.67099 0.34406 0.23495 0.0
H2271 H 0.63477 0.30702 0.33034 0.0
H2272 H 0.65125 0.32449 0.30672 0.0
H2273 H 0.63142 0.33171 0.24218 0.0
H2274 H 0.68529 0.36356 0.16707 0.0
H2275 H 0.66837 0.34703 0.1911 0.0
C2276 C 0.70593 0.63025 0.2857 0.0
C2277 C 0.69944 0.62198 0.30357 0.0
C2278 C 0.69581 0.63975 0.27257 0.0
C2279 C 0.6529 0.64578 0.25634 0.0
H2280 H 0.66841 0.68858 0.23818 0.0
C2281 C 0.62097 0.68456 0.19038 0.0
C2282 C 0.61946 0.70145 0.19444 0.0
C2283 C 0.63019 0.67461 0.20414 0.0
C2284 C 0.66386 0.6767 0.24322 0.0
H2285 H 0.67726 0.61701 0.32167 0.0
H2286 H 0.6595 0.63366 0.29865 0.0
H2287 H 0.68547 0.67175 0.2616 0.0
H2288 H 0.6262 0.72113 0.21618 0.0
H2289 H 0.64227 0.70377 0.24014 0.0
H2290 H 0.63121 0.65083 0.238 0.0
C2291 C 0.67242 0.63272 0.29476 0.0
C2292 C 0.6737 0.667 0.25646 0.0
C2293 C 0.68259 0.62327 0.30799 0.0
C2294 C 0.62719 0.70816 0.21259 0.0
C2295 C 0.63646 0.69824 0.22626 0.0
C2296 C 0.64308 0.65546 0.24297 0.0
C2297 C 0.67896 0.64112 0.27698 0.0
C2298 C 0.66834 0.65143 0.26314 0.0
C2299 C 0.63814 0.68138 0.22212 0.0
C2300 C 0.64846 0.67103 0.2363 0.0
H2301 H 0.71887 0.62944 0.28185 0.0
H2302 H 0.70116 0.64591 0.25883 0.0
H2303 H 0.64851 0.63378 0.26112 0.0
H2304 H 0.61512 0.67906 0.17651 0.0
H2305 H 0.63138 0.66167 0.20045 0.0
C2306 C 0.28772 0.63427 0.20365 0.0
C2307 C 0.29451 0.62142 0.19156 0.0
C2308 C 0.29736 0.643 0.21823 0.0
C2309 C 0.3408 0.65125 0.23326 0.0
H2310 H 0.32063 0.66743 0.28563 0.0
C2311 C 0.37713 0.68151 0.30294 0.0
C2312 C 0.37129 0.69712 0.30867 0.0
C2313 C 0.3679 0.67141 0.28938 0.0
C2314 C 0.32639 0.66297 0.27105 0.0
H2315 H 0.31664 0.60752 0.18524 0.0
H2316 H 0.33339 0.62231 0.2113 0.0
H2317 H 0.30442 0.65124 0.26046 0.0
H2318 H 0.35114 0.71429 0.3053 0.0
H2319 H 0.33481 0.69643 0.28207 0.0
H2320 H 0.36289 0.66275 0.24434 0.0
C2321 C 0.32074 0.62601 0.20914 0.0
C2322 C 0.3171 0.65381 0.25653 0.0
C2323 C 0.31114 0.61746 0.19427 0.0
C2324 C 0.35592 0.70231 0.30109 0.0
C2325 C 0.34657 0.6921 0.2879 0.0
C2326 C 0.35015 0.66018 0.248 0.0
C2327 C 0.31397 0.63889 0.22135 0.0
C2328 C 0.3241 0.64802 0.23727 0.0
C2329 C 0.35256 0.67665 0.28173 0.0
C2330 C 0.34296 0.66629 0.26686 0.0
H2331 H 0.27495 0.63765 0.20174 0.0
H2332 H 0.29179 0.65307 0.22691 0.0
H2333 H 0.34658 0.64724 0.21851 0.0
H2334 H 0.38898 0.67726 0.30852 0.0
H2335 H 0.37272 0.65951 0.28489 0.0
loop_
_geom_bond_atom_site_label_1
_geom_bond_atom_site_label_2
_geom_bond_distance
_geom_bond_site_symmetry_2
_ccdc_geom_bond_type
In0 O1 2.294 . S
In0 O2 2.326 . S
In0 O6 2.266 . S
In0 O7 2.326 . S
In0 O8 2.266 . S
In0 O9 2.326 . S
In0 O11 2.294 . S
In0 O12 2.326 . S
O1 In0 2.294 . S
O1 C10 1.240 . S
O2 In0 2.326 . S
O2 C10 1.252 . S
C3 O6 1.252 . S
C3 O7 1.260 . S
C4 O11 1.240 . S
C4 O12 1.252 . S
C5 O8 1.252 . S
C5 O9 1.260 . S
O6 In0 2.266 . S
O6 C3 1.252 . S
O7 In0 2.326 . S
O7 C3 1.260 . S
O8 In0 2.266 . S
O8 C5 1.252 . S
O9 In0 2.326 . S
O9 C5 1.260 . S
C10 O1 1.240 . S
C10 O2 1.252 . S
O11 In0 2.294 . S
O11 C4 1.240 . S
O12 In0 2.326 . S
O12 C4 1.252 . S
In13 O14 2.294 . S
In13 O15 2.326 . S
In13 O19 2.266 . S
In13 O20 2.326 . S
In13 O21 2.266 . S
In13 O22 2.326 . S
In13 O24 2.294 . S
In13 O25 2.326 . S
O14 In13 2.294 . S
O14 C23 1.240 . S
O15 In13 2.326 . S
O15 C23 1.252 . S
C16 O19 1.252 . S
C16 O20 1.260 . S
C17 O24 1.240 . S
C17 O25 1.252 . S
C18 O21 1.252 . S
C18 O22 1.260 . S
O19 In13 2.266 . S
O19 C16 1.252 . S
O20 In13 2.326 . S
O20 C16 1.260 . S
O21 In13 2.266 . S
O21 C18 1.252 . S
O22 In13 2.326 . S
O22 C18 1.260 . S
C23 O14 1.240 . S
C23 O15 1.252 . S
O24 In13 2.294 . S
O24 C17 1.240 . S
O25 In13 2.326 . S
O25 C17 1.252 . S
In26 O27 2.294 . S
In26 O28 2.326 . S
In26 O32 2.266 . S
In26 O33 2.326 . S
In26 O34 2.266 . S
In26 O35 2.326 . S
In26 O37 2.294 . S
In26 O38 2.326 . S
O27 In26 2.294 . S
O27 C36 1.240 . S
O28 In26 2.326 . S
O28 C36 1.252 . S
C29 O32 1.252 . S
C29 O33 1.260 . S
C30 O37 1.240 . S
C30 O38 1.252 . S
C31 O34 1.252 . S
C31 O35 1.260 . S
O32 In26 2.266 . S
O32 C29 1.252 . S
O33 In26 2.326 . S
O33 C29 1.260 . S
O34 In26 2.266 . S
O34 C31 1.252 . S
O35 In26 2.326 . S
O35 C31 1.260 . S
C36 O27 1.240 . S
C36 O28 1.252 . S
O37 In26 2.294 . S
O37 C30 1.240 . S
O38 In26 2.326 . S
O38 C30 1.252 . S
In39 O40 2.294 . S
In39 O41 2.326 . S
In39 O45 2.266 . S
In39 O46 2.326 . S
In39 O47 2.266 . S
In39 O48 2.326 . S
In39 O50 2.294 . S
In39 O51 2.326 . S
O40 In39 2.294 . S
O40 C49 1.240 . S
O41 In39 2.326 . S
O41 C49 1.252 . S
C42 O45 1.252 . S
C42 O46 1.260 . S
C43 O50 1.240 . S
C43 O51 1.252 . S
C44 O47 1.252 . S
C44 O48 1.260 . S
O45 In39 2.266 . S
O45 C42 1.252 . S
O46 In39 2.326 . S
O46 C42 1.260 . S
O47 In39 2.266 . S
O47 C44 1.252 . S
O48 In39 2.326 . S
O48 C44 1.260 . S
C49 O40 1.240 . S
C49 O41 1.252 . S
O50 In39 2.294 . S
O50 C43 1.240 . S
O51 In39 2.326 . S
O51 C43 1.252 . S
In52 O53 2.294 . S
In52 O54 2.326 . S
In52 O58 2.266 . S
In52 O59 2.326 . S
In52 O60 2.266 . S
In52 O61 2.326 . S
In52 O63 2.294 . S
In52 O64 2.326 . S
O53 In52 2.294 . S
O53 C62 1.240 . S
O54 In52 2.326 . S
O54 C62 1.252 . S
C55 O58 1.252 . S
C55 O59 1.260 . S
C56 O63 1.240 . S
C56 O64 1.252 . S
C57 O60 1.252 . S
C57 O61 1.260 . S
O58 In52 2.266 . S
O58 C55 1.252 . S
O59 In52 2.326 . S
O59 C55 1.260 . S
O60 In52 2.266 . S
O60 C57 1.252 . S
O61 In52 2.326 . S
O61 C57 1.260 . S
C62 O53 1.240 . S
C62 O54 1.252 . S
O63 In52 2.294 . S
O63 C56 1.240 . S
O64 In52 2.326 . S
O64 C56 1.252 . S
In65 O66 2.294 . S
In65 O67 2.326 . S
In65 O71 2.266 . S
In65 O72 2.326 . S
In65 O73 2.266 . S
In65 O74 2.326 . S
In65 O76 2.294 . S
In65 O77 2.326 . S
O66 In65 2.294 . S
O66 C75 1.240 . S
O67 In65 2.326 . S
O67 C75 1.252 . S
C68 O71 1.252 . S
C68 O72 1.260 . S
C69 O76 1.240 . S
C69 O77 1.252 . S
C70 O73 1.252 . S
C70 O74 1.260 . S
O71 In65 2.266 . S
O71 C68 1.252 . S
O72 In65 2.326 . S
O72 C68 1.260 . S
O73 In65 2.266 . S
O73 C70 1.252 . S
O74 In65 2.326 . S
O74 C70 1.260 . S
C75 O66 1.240 . S
C75 O67 1.252 . S
O76 In65 2.294 . S
O76 C69 1.240 . S
O77 In65 2.326 . S
O77 C69 1.252 . S
In78 O79 2.294 . S
In78 O80 2.326 . S
In78 O84 2.266 . S
In78 O85 2.326 . S
In78 O86 2.266 . S
In78 O87 2.326 . S
In78 O89 2.294 . S
In78 O90 2.326 . S
O79 In78 2.294 . S
O79 C88 1.240 . S
O80 In78 2.326 . S
O80 C88 1.252 . S
C81 O84 1.252 . S
C81 O85 1.260 . S
C82 O89 1.240 . S
C82 O90 1.252 . S
C83 O86 1.252 . S
C83 O87 1.260 . S
O84 In78 2.266 . S
O84 C81 1.252 . S
O85 In78 2.326 . S
O85 C81 1.260 . S
O86 In78 2.266 . S
O86 C83 1.252 . S
O87 In78 2.326 . S
O87 C83 1.260 . S
C88 O79 1.240 . S
C88 O80 1.252 . S
O89 In78 2.294 . S
O89 C82 1.240 . S
O90 In78 2.326 . S
O90 C82 1.252 . S
In91 O92 2.294 . S
In91 O93 2.326 . S
In91 O97 2.266 . S
In91 O98 2.326 . S
In91 O99 2.266 . S
In91 O100 2.326 . S
In91 O102 2.294 . S
In91 O103 2.326 . S
O92 In91 2.294 . S
O92 C101 1.240 . S
O93 In91 2.326 . S
O93 C101 1.252 . S
C94 O97 1.252 . S
C94 O98 1.260 . S
C95 O102 1.240 . S
C95 O103 1.252 . S
C96 O99 1.252 . S
C96 O100 1.260 . S
O97 In91 2.266 . S
O97 C94 1.252 . S
O98 In91 2.326 . S
O98 C94 1.260 . S
O99 In91 2.266 . S
O99 C96 1.252 . S
O100 In91 2.326 . S
O100 C96 1.260 . S
C101 O92 1.240 . S
C101 O93 1.252 . S
O102 In91 2.294 . S
O102 C95 1.240 . S
O103 In91 2.326 . S
O103 C95 1.252 . S
In104 O105 2.294 . S
In104 O106 2.326 . S
In104 O110 2.266 . S
In104 O111 2.326 . S
In104 O112 2.266 . S
In104 O113 2.326 . S
In104 O115 2.294 . S
In104 O116 2.326 . S
O105 In104 2.294 . S
O105 C114 1.240 . S
O106 In104 2.326 . S
O106 C114 1.252 . S
C107 O110 1.252 . S
C107 O111 1.260 . S
C108 O115 1.240 . S
C108 O116 1.252 . S
C109 O112 1.252 . S
C109 O113 1.260 . S
O110 In104 2.266 . S
O110 C107 1.252 . S
O111 In104 2.326 . S
O111 C107 1.260 . S
O112 In104 2.266 . S
O112 C109 1.252 . S
O113 In104 2.326 . S
O113 C109 1.260 . S
C114 O105 1.240 . S
C114 O106 1.252 . S
O115 In104 2.294 . S
O115 C108 1.240 . S
O116 In104 2.326 . S
O116 C108 1.252 . S
In117 O118 2.294 . S
In117 O119 2.326 . S
In117 O123 2.266 . S
In117 O124 2.326 . S
In117 O125 2.266 . S
In117 O126 2.326 . S
In117 O128 2.294 . S
In117 O129 2.326 . S
O118 In117 2.294 . S
O118 C127 1.240 . S
O119 In117 2.326 . S
O119 C127 1.252 . S
C120 O123 1.252 . S
C120 O124 1.260 . S
C121 O128 1.240 . S
C121 O129 1.252 . S
C122 O125 1.252 . S
C122 O126 1.260 . S
O123 In117 2.266 . S
O123 C120 1.252 . S
O124 In117 2.326 . S
O124 C120 1.260 . S
O125 In117 2.266 . S
O125 C122 1.252 . S
O126 In117 2.326 . S
O126 C122 1.260 . S
C127 O118 1.240 . S
C127 O119 1.252 . S
O128 In117 2.294 . S
O128 C121 1.240 . S
O129 In117 2.326 . S
O129 C121 1.252 . S
In130 O131 2.294 . S
In130 O132 2.326 . S
In130 O136 2.266 . S
In130 O137 2.326 . S
In130 O138 2.266 . S
In130 O139 2.326 . S
In130 O141 2.294 . S
In130 O142 2.326 . S
O131 In130 2.294 . S
O131 C140 1.240 . S
O132 In130 2.326 . S
O132 C140 1.252 . S
C133 O136 1.252 . S
C133 O137 1.260 . S
C134 O141 1.240 . S
C134 O142 1.252 . S
C135 O138 1.252 . S
C135 O139 1.260 . S
O136 In130 2.266 . S
O136 C133 1.252 . S
O137 In130 2.326 . S
O137 C133 1.260 . S
O138 In130 2.266 . S
O138 C135 1.252 . S
O139 In130 2.326 . S
O139 C135 1.260 . S
C140 O131 1.240 . S
C140 O132 1.252 . S
O141 In130 2.294 . S
O141 C134 1.240 . S
O142 In130 2.326 . S
O142 C134 1.252 . S
In143 O144 2.294 . S
In143 O145 2.326 . S
In143 O149 2.266 . S
In143 O150 2.326 . S
In143 O151 2.266 . S
In143 O152 2.326 . S
In143 O154 2.294 . S
In143 O155 2.326 . S
O144 In143 2.294 . S
O144 C153 1.240 . S
O145 In143 2.326 . S
O145 C153 1.252 . S
C146 O149 1.252 . S
C146 O150 1.260 . S
C147 O154 1.240 . S
C147 O155 1.252 . S
C148 O151 1.252 . S
C148 O152 1.260 . S
O149 In143 2.266 . S
O149 C146 1.252 . S
O150 In143 2.326 . S
O150 C146 1.260 . S
O151 In143 2.266 . S
O151 C148 1.252 . S
O152 In143 2.326 . S
O152 C148 1.260 . S
C153 O144 1.240 . S
C153 O145 1.252 . S
O154 In143 2.294 . S
O154 C147 1.240 . S
O155 In143 2.326 . S
O155 C147 1.252 . S
In156 O157 2.294 . S
In156 O158 2.326 . S
In156 O162 2.266 . S
In156 O163 2.326 . S
In156 O164 2.266 . S
In156 O165 2.326 . S
In156 O167 2.294 . S
In156 O168 2.326 . S
O157 In156 2.294 . S
O157 C166 1.240 . S
O158 In156 2.326 . S
O158 C166 1.252 . S
C159 O162 1.252 . S
C159 O163 1.260 . S
C160 O167 1.240 . S
C160 O168 1.252 . S
C161 O164 1.252 . S
C161 O165 1.260 . S
O162 In156 2.266 . S
O162 C159 1.252 . S
O163 In156 2.326 . S
O163 C159 1.260 . S
O164 In156 2.266 . S
O164 C161 1.252 . S
O165 In156 2.326 . S
O165 C161 1.260 . S
C166 O157 1.240 . S
C166 O158 1.252 . S
O167 In156 2.294 . S
O167 C160 1.240 . S
O168 In156 2.326 . S
O168 C160 1.252 . S
In169 O170 2.294 . S
In169 O171 2.326 . S
In169 O175 2.266 . S
In169 O176 2.326 . S
In169 O177 2.266 . S
In169 O178 2.326 . S
In169 O180 2.294 . S
In169 O181 2.326 . S
O170 In169 2.294 . S
O170 C179 1.240 . S
O171 In169 2.326 . S
O171 C179 1.252 . S
C172 O175 1.252 . S
C172 O176 1.260 . S
C173 O180 1.240 . S
C173 O181 1.252 . S
C174 O177 1.252 . S
C174 O178 1.260 . S
O175 In169 2.266 . S
O175 C172 1.252 . S
O176 In169 2.326 . S
O176 C172 1.260 . S
O177 In169 2.266 . S
O177 C174 1.252 . S
O178 In169 2.326 . S
O178 C174 1.260 . S
C179 O170 1.240 . S
C179 O171 1.252 . S
O180 In169 2.294 . S
O180 C173 1.240 . S
O181 In169 2.326 . S
O181 C173 1.252 . S
In182 O183 2.294 . S
In182 O184 2.326 . S
In182 O188 2.266 . S
In182 O189 2.326 . S
In182 O190 2.266 . S
In182 O191 2.326 . S
In182 O193 2.294 . S
In182 O194 2.326 . S
O183 In182 2.294 . S
O183 C192 1.240 . S
O184 In182 2.326 . S
O184 C192 1.252 . S
C185 O188 1.252 . S
C185 O189 1.260 . S
C186 O193 1.240 . S
C186 O194 1.252 . S
C187 O190 1.252 . S
C187 O191 1.260 . S
O188 In182 2.266 . S
O188 C185 1.252 . S
O189 In182 2.326 . S
O189 C185 1.260 . S
O190 In182 2.266 . S
O190 C187 1.252 . S
O191 In182 2.326 . S
O191 C187 1.260 . S
C192 O183 1.240 . S
C192 O184 1.252 . S
O193 In182 2.294 . S
O193 C186 1.240 . S
O194 In182 2.326 . S
O194 C186 1.252 . S
In195 O196 2.294 . S
In195 O197 2.326 . S
In195 O201 2.266 . S
In195 O202 2.326 . S
In195 O203 2.266 . S
In195 O204 2.326 . S
In195 O206 2.294 . S
In195 O207 2.326 . S
O196 In195 2.294 . S
O196 C205 1.240 . S
O197 In195 2.326 . S
O197 C205 1.252 . S
C198 O201 1.252 . S
C198 O202 1.260 . S
C199 O206 1.240 . S
C199 O207 1.252 . S
C200 O203 1.252 . S
C200 O204 1.260 . S
O201 In195 2.266 . S
O201 C198 1.252 . S
O202 In195 2.326 . S
O202 C198 1.260 . S
O203 In195 2.266 . S
O203 C200 1.252 . S
O204 In195 2.326 . S
O204 C200 1.260 . S
C205 O196 1.240 . S
C205 O197 1.252 . S
O206 In195 2.294 . S
O206 C199 1.240 . S
O207 In195 2.326 . S
O207 C199 1.252 . S
In208 O209 2.294 . S
In208 O210 2.326 . S
In208 O214 2.266 . S
In208 O215 2.326 . S
In208 O216 2.266 . S
In208 O217 2.326 . S
In208 O219 2.294 . S
In208 O220 2.326 . S
O209 In208 2.294 . S
O209 C218 1.240 . S
O210 In208 2.326 . S
O210 C218 1.252 . S
C211 O214 1.252 . S
C211 O215 1.260 . S
C212 O219 1.240 . S
C212 O220 1.252 . S
C213 O216 1.252 . S
C213 O217 1.260 . S
O214 In208 2.266 . S
O214 C211 1.252 . S
O215 In208 2.326 . S
O215 C211 1.260 . S
O216 In208 2.266 . S
O216 C213 1.252 . S
O217 In208 2.326 . S
O217 C213 1.260 . S
C218 O209 1.240 . S
C218 O210 1.252 . S
O219 In208 2.294 . S
O219 C212 1.240 . S
O220 In208 2.326 . S
O220 C212 1.252 . S
In221 O222 2.294 . S
In221 O223 2.326 . S
In221 O227 2.266 . S
In221 O228 2.326 . S
In221 O229 2.266 . S
In221 O230 2.326 . S
In221 O232 2.294 . S
In221 O233 2.326 . S
O222 In221 2.294 . S
O222 C231 1.240 . S
O223 In221 2.326 . S
O223 C231 1.252 . S
C224 O227 1.252 . S
C224 O228 1.260 . S
C225 O232 1.240 . S
C225 O233 1.252 . S
C226 O229 1.252 . S
C226 O230 1.260 . S
O227 In221 2.266 . S
O227 C224 1.252 . S
O228 In221 2.326 . S
O228 C224 1.260 . S
O229 In221 2.266 . S
O229 C226 1.252 . S
O230 In221 2.326 . S
O230 C226 1.260 . S
C231 O222 1.240 . S
C231 O223 1.252 . S
O232 In221 2.294 . S
O232 C225 1.240 . S
O233 In221 2.326 . S
O233 C225 1.252 . S
In234 O235 2.294 . S
In234 O236 2.326 . S
In234 O240 2.266 . S
In234 O241 2.326 . S
In234 O242 2.266 . S
In234 O243 2.326 . S
In234 O245 2.294 . S
In234 O246 2.326 . S
O235 In234 2.294 . S
O235 C244 1.240 . S
O236 In234 2.326 . S
O236 C244 1.252 . S
C237 O240 1.252 . S
C237 O241 1.260 . S
C238 O245 1.240 . S
C238 O246 1.252 . S
C239 O242 1.252 . S
C239 O243 1.260 . S
O240 In234 2.266 . S
O240 C237 1.252 . S
O241 In234 2.326 . S
O241 C237 1.260 . S
O242 In234 2.266 . S
O242 C239 1.252 . S
O243 In234 2.326 . S
O243 C239 1.260 . S
C244 O235 1.240 . S
C244 O236 1.252 . S
O245 In234 2.294 . S
O245 C238 1.240 . S
O246 In234 2.326 . S
O246 C238 1.252 . S
In247 O248 2.294 . S
In247 O249 2.326 . S
In247 O253 2.266 . S
In247 O254 2.326 . S
In247 O255 2.266 . S
In247 O256 2.326 . S
In247 O258 2.294 . S
In247 O259 2.326 . S
O248 In247 2.294 . S
O248 C257 1.240 . S
O249 In247 2.326 . S
O249 C257 1.252 . S
C250 O253 1.252 . S
C250 O254 1.260 . S
C251 O258 1.240 . S
C251 O259 1.252 . S
C252 O255 1.252 . S
C252 O256 1.260 . S
O253 In247 2.266 . S
O253 C250 1.252 . S
O254 In247 2.326 . S
O254 C250 1.260 . S
O255 In247 2.266 . S
O255 C252 1.252 . S
O256 In247 2.326 . S
O256 C252 1.260 . S
C257 O248 1.240 . S
C257 O249 1.252 . S
O258 In247 2.294 . S
O258 C251 1.240 . S
O259 In247 2.326 . S
O259 C251 1.252 . S
In260 O261 2.294 . S
In260 O262 2.326 . S
In260 O266 2.266 . S
In260 O267 2.326 . S
In260 O268 2.266 . S
In260 O269 2.326 . S
In260 O271 2.294 . S
In260 O272 2.326 . S
O261 In260 2.294 . S
O261 C270 1.240 . S
O262 In260 2.326 . S
O262 C270 1.252 . S
C263 O266 1.252 . S
C263 O267 1.260 . S
C264 O271 1.240 . S
C264 O272 1.252 . S
C265 O268 1.252 . S
C265 O269 1.260 . S
O266 In260 2.266 . S
O266 C263 1.252 . S
O267 In260 2.326 . S
O267 C263 1.260 . S
O268 In260 2.266 . S
O268 C265 1.252 . S
O269 In260 2.326 . S
O269 C265 1.260 . S
C270 O261 1.240 . S
C270 O262 1.252 . S
O271 In260 2.294 . S
O271 C264 1.240 . S
O272 In260 2.326 . S
O272 C264 1.252 . S
In273 O274 2.294 . S
In273 O275 2.326 . S
In273 O279 2.266 . S
In273 O280 2.326 . S
In273 O281 2.266 . S
In273 O282 2.326 . S
In273 O284 2.294 . S
In273 O285 2.326 . S
O274 In273 2.294 . S
O274 C283 1.240 . S
O275 In273 2.326 . S
O275 C283 1.252 . S
C276 O279 1.252 . S
C276 O280 1.260 . S
C277 O284 1.240 . S
C277 O285 1.252 . S
C278 O281 1.252 . S
C278 O282 1.260 . S
O279 In273 2.266 . S
O279 C276 1.252 . S
O280 In273 2.326 . S
O280 C276 1.260 . S
O281 In273 2.266 . S
O281 C278 1.252 . S
O282 In273 2.326 . S
O282 C278 1.260 . S
C283 O274 1.240 . S
C283 O275 1.252 . S
O284 In273 2.294 . S
O284 C277 1.240 . S
O285 In273 2.326 . S
O285 C277 1.252 . S
In286 O287 2.294 . S
In286 O288 2.326 . S
In286 O292 2.266 . S
In286 O293 2.326 . S
In286 O294 2.266 . S
In286 O295 2.326 . S
In286 O297 2.294 . S
In286 O298 2.326 . S
O287 In286 2.294 . S
O287 C296 1.240 . S
O288 In286 2.326 . S
O288 C296 1.252 . S
C289 O292 1.252 . S
C289 O293 1.260 . S
C290 O297 1.240 . S
C290 O298 1.252 . S
C291 O294 1.252 . S
C291 O295 1.260 . S
O292 In286 2.266 . S
O292 C289 1.252 . S
O293 In286 2.326 . S
O293 C289 1.260 . S
O294 In286 2.266 . S
O294 C291 1.252 . S
O295 In286 2.326 . S
O295 C291 1.260 . S
C296 O287 1.240 . S
C296 O288 1.252 . S
O297 In286 2.294 . S
O297 C290 1.240 . S
O298 In286 2.326 . S
O298 C290 1.252 . S
In299 O300 2.294 . S
In299 O301 2.326 . S
In299 O305 2.266 . S
In299 O306 2.326 . S
In299 O307 2.266 . S
In299 O308 2.326 . S
In299 O310 2.294 . S
In299 O311 2.326 . S
O300 In299 2.294 . S
O300 C309 1.240 . S
O301 In299 2.326 . S
O301 C309 1.252 . S
C302 O305 1.252 . S
C302 O306 1.260 . S
C303 O310 1.240 . S
C303 O311 1.252 . S
C304 O307 1.252 . S
C304 O308 1.260 . S
O305 In299 2.266 . S
O305 C302 1.252 . S
O306 In299 2.326 . S
O306 C302 1.260 . S
O307 In299 2.266 . S
O307 C304 1.252 . S
O308 In299 2.326 . S
O308 C304 1.260 . S
C309 O300 1.240 . S
C309 O301 1.252 . S
O310 In299 2.294 . S
O310 C303 1.240 . S
O311 In299 2.326 . S
O311 C303 1.252 . S
In312 O313 2.294 . S
In312 O314 2.326 . S
In312 O318 2.266 . S
In312 O319 2.326 . S
In312 O320 2.266 . S
In312 O321 2.326 . S
In312 O323 2.294 . S
In312 O324 2.326 . S
O313 In312 2.294 . S
O313 C322 1.240 . S
O314 In312 2.326 . S
O314 C322 1.252 . S
C315 O318 1.252 . S
C315 O319 1.260 . S
C316 O323 1.240 . S
C316 O324 1.252 . S
C317 O320 1.252 . S
C317 O321 1.260 . S
O318 In312 2.266 . S
O318 C315 1.252 . S
O319 In312 2.326 . S
O319 C315 1.260 . S
O320 In312 2.266 . S
O320 C317 1.252 . S
O321 In312 2.326 . S
O321 C317 1.260 . S
C322 O313 1.240 . S
C322 O314 1.252 . S
O323 In312 2.294 . S
O323 C316 1.240 . S
O324 In312 2.326 . S
O324 C316 1.252 . S
In325 O326 2.294 . S
In325 O327 2.326 . S
In325 O331 2.266 . S
In325 O332 2.326 . S
In325 O333 2.266 . S
In325 O334 2.326 . S
In325 O336 2.294 . S
In325 O337 2.326 . S
O326 In325 2.294 . S
O326 C335 1.240 . S
O327 In325 2.326 . S
O327 C335 1.252 . S
C328 O331 1.252 . S
C328 O332 1.260 . S
C329 O336 1.240 . S
C329 O337 1.252 . S
C330 O333 1.252 . S
C330 O334 1.260 . S
O331 In325 2.266 . S
O331 C328 1.252 . S
O332 In325 2.326 . S
O332 C328 1.260 . S
O333 In325 2.266 . S
O333 C330 1.252 . S
O334 In325 2.326 . S
O334 C330 1.260 . S
C335 O326 1.240 . S
C335 O327 1.252 . S
O336 In325 2.294 . S
O336 C329 1.240 . S
O337 In325 2.326 . S
O337 C329 1.252 . S
In338 O339 2.294 . S
In338 O340 2.326 . S
In338 O344 2.266 . S
In338 O345 2.326 . S
In338 O346 2.266 . S
In338 O347 2.326 . S
In338 O349 2.294 . S
In338 O350 2.326 . S
O339 In338 2.294 . S
O339 C348 1.240 . S
O340 In338 2.326 . S
O340 C348 1.252 . S
C341 O344 1.252 . S
C341 O345 1.260 . S
C342 O349 1.240 . S
C342 O350 1.252 . S
C343 O346 1.252 . S
C343 O347 1.260 . S
O344 In338 2.266 . S
O344 C341 1.252 . S
O345 In338 2.326 . S
O345 C341 1.260 . S
O346 In338 2.266 . S
O346 C343 1.252 . S
O347 In338 2.326 . S
O347 C343 1.260 . S
C348 O339 1.240 . S
C348 O340 1.252 . S
O349 In338 2.294 . S
O349 C342 1.240 . S
O350 In338 2.326 . S
O350 C342 1.252 . S
In351 O352 2.294 . S
In351 O353 2.326 . S
In351 O357 2.266 . S
In351 O358 2.326 . S
In351 O359 2.266 . S
In351 O360 2.326 . S
In351 O362 2.294 . S
In351 O363 2.326 . S
O352 In351 2.294 . S
O352 C361 1.240 . S
O353 In351 2.326 . S
O353 C361 1.252 . S
C354 O357 1.252 . S
C354 O358 1.260 . S
C355 O362 1.240 . S
C355 O363 1.252 . S
C356 O359 1.252 . S
C356 O360 1.260 . S
O357 In351 2.266 . S
O357 C354 1.252 . S
O358 In351 2.326 . S
O358 C354 1.260 . S
O359 In351 2.266 . S
O359 C356 1.252 . S
O360 In351 2.326 . S
O360 C356 1.260 . S
C361 O352 1.240 . S
C361 O353 1.252 . S
O362 In351 2.294 . S
O362 C355 1.240 . S
O363 In351 2.326 . S
O363 C355 1.252 . S
In364 O365 2.294 . S
In364 O366 2.326 . S
In364 O370 2.266 . S
In364 O371 2.326 . S
In364 O372 2.266 . S
In364 O373 2.326 . S
In364 O375 2.294 . S
In364 O376 2.326 . S
O365 In364 2.294 . S
O365 C374 1.240 . S
O366 In364 2.326 . S
O366 C374 1.252 . S
C367 O370 1.252 . S
C367 O371 1.260 . S
C368 O375 1.240 . S
C368 O376 1.252 . S
C369 O372 1.252 . S
C369 O373 1.260 . S
O370 In364 2.266 . S
O370 C367 1.252 . S
O371 In364 2.326 . S
O371 C367 1.260 . S
O372 In364 2.266 . S
O372 C369 1.252 . S
O373 In364 2.326 . S
O373 C369 1.260 . S
C374 O365 1.240 . S
C374 O366 1.252 . S
O375 In364 2.294 . S
O375 C368 1.240 . S
O376 In364 2.326 . S
O376 C368 1.252 . S
In377 O378 2.294 . S
In377 O379 2.326 . S
In377 O383 2.266 . S
In377 O384 2.326 . S
In377 O385 2.266 . S
In377 O386 2.326 . S
In377 O388 2.294 . S
In377 O389 2.326 . S
O378 In377 2.294 . S
O378 C387 1.240 . S
O379 In377 2.326 . S
O379 C387 1.252 . S
C380 O383 1.252 . S
C380 O384 1.260 . S
C381 O388 1.240 . S
C381 O389 1.252 . S
C382 O385 1.252 . S
C382 O386 1.260 . S
O383 In377 2.266 . S
O383 C380 1.252 . S
O384 In377 2.326 . S
O384 C380 1.260 . S
O385 In377 2.266 . S
O385 C382 1.252 . S
O386 In377 2.326 . S
O386 C382 1.260 . S
C387 O378 1.240 . S
C387 O379 1.252 . S
O388 In377 2.294 . S
O388 C381 1.240 . S
O389 In377 2.326 . S
O389 C381 1.252 . S
In390 O391 2.294 . S
In390 O392 2.326 . S
In390 O396 2.266 . S
In390 O397 2.326 . S
In390 O398 2.266 . S
In390 O399 2.326 . S
In390 O401 2.294 . S
In390 O402 2.326 . S
O391 In390 2.294 . S
O391 C400 1.240 . S
O392 In390 2.326 . S
O392 C400 1.252 . S
C393 O396 1.252 . S
C393 O397 1.260 . S
C394 O401 1.240 . S
C394 O402 1.252 . S
C395 O398 1.252 . S
C395 O399 1.260 . S
O396 In390 2.266 . S
O396 C393 1.252 . S
O397 In390 2.326 . S
O397 C393 1.260 . S
O398 In390 2.266 . S
O398 C395 1.252 . S
O399 In390 2.326 . S
O399 C395 1.260 . S
C400 O391 1.240 . S
C400 O392 1.252 . S
O401 In390 2.294 . S
O401 C394 1.240 . S
O402 In390 2.326 . S
O402 C394 1.252 . S
In403 O404 2.294 . S
In403 O405 2.326 . S
In403 O409 2.266 . S
In403 O410 2.326 . S
In403 O411 2.266 . S
In403 O412 2.326 . S
In403 O414 2.294 . S
In403 O415 2.326 . S
O404 In403 2.294 . S
O404 C413 1.240 . S
O405 In403 2.326 . S
O405 C413 1.252 . S
C406 O409 1.252 . S
C406 O410 1.260 . S
C407 O414 1.240 . S
C407 O415 1.252 . S
C408 O411 1.252 . S
C408 O412 1.260 . S
O409 In403 2.266 . S
O409 C406 1.252 . S
O410 In403 2.326 . S
O410 C406 1.260 . S
O411 In403 2.266 . S
O411 C408 1.252 . S
O412 In403 2.326 . S
O412 C408 1.260 . S
C413 O404 1.240 . S
C413 O405 1.252 . S
O414 In403 2.294 . S
O414 C407 1.240 . S
O415 In403 2.326 . S
O415 C407 1.252 . S
C416 C417 1.349 . S
C416 C418 1.327 . S
C416 H441 0.950 . S
C417 C416 1.349 . S
C417 C433 1.349 . S
C418 C416 1.327 . S
C418 C437 1.429 . S
C418 H442 0.950 . S
C419 C436 1.574 . S
C419 C438 1.368 . S
C419 H443 0.949 . S
H420 C424 0.949 . S
C421 C422 1.349 . S
C421 C423 1.327 . S
C421 H444 0.950 . S
C422 C421 1.349 . S
C422 C434 1.349 . S
C423 C421 1.327 . S
C423 C439 1.429 . S
C423 H445 0.950 . S
C424 H420 0.949 . S
C424 C432 1.574 . S
C424 C440 1.368 . S
H425 C433 0.950 . S
H426 C431 0.950 . S
H427 C432 0.949 . S
H428 C434 0.950 . S
H429 C435 0.950 . S
H430 C436 0.949 . S
C431 H426 0.950 . S
C431 C433 1.327 . S
C431 C437 1.429 . S
C432 C424 1.574 . S
C432 H427 0.949 . S
C432 C438 1.368 . S
C433 C417 1.349 . S
C433 H425 0.950 . S
C433 C431 1.327 . S
C434 C422 1.349 . S
C434 H428 0.950 . S
C434 C435 1.327 . S
C435 H429 0.950 . S
C435 C434 1.327 . S
C435 C439 1.429 . S
C436 C419 1.574 . S
C436 H430 0.949 . S
C436 C440 1.368 . S
C437 C418 1.429 . S
C437 C431 1.429 . S
C437 C438 1.523 . S
C438 C419 1.368 . S
C438 C432 1.368 . S
C438 C437 1.523 . S
C439 C423 1.429 . S
C439 C435 1.429 . S
C439 C440 1.523 . S
C440 C424 1.368 . S
C440 C436 1.368 . S
C440 C439 1.523 . S
H441 C416 0.950 . S
H442 C418 0.950 . S
H443 C419 0.949 . S
H444 C421 0.950 . S
H445 C423 0.950 . S
C446 C447 1.349 . S
C446 C448 1.327 . S
C446 H471 0.950 . S
C447 C446 1.349 . S
C447 C463 1.349 . S
C448 C446 1.327 . S
C448 C467 1.429 . S
C448 H472 0.950 . S
C449 C466 1.574 . S
C449 C468 1.368 . S
C449 H473 0.949 . S
H450 C454 0.949 . S
C451 C452 1.349 . S
C451 C453 1.327 . S
C451 H474 0.950 . S
C452 C451 1.349 . S
C452 C464 1.349 . S
C453 C451 1.327 . S
C453 C469 1.429 . S
C453 H475 0.950 . S
C454 H450 0.949 . S
C454 C462 1.574 . S
C454 C470 1.368 . S
H455 C463 0.950 . S
H456 C461 0.950 . S
H457 C462 0.949 . S
H458 C464 0.950 . S
H459 C465 0.950 . S
H460 C466 0.949 . S
C461 H456 0.950 . S
C461 C463 1.327 . S
C461 C467 1.429 . S
C462 C454 1.574 . S
C462 H457 0.949 . S
C462 C468 1.368 . S
C463 C447 1.349 . S
C463 H455 0.950 . S
C463 C461 1.327 . S
C464 C452 1.349 . S
C464 H458 0.950 . S
C464 C465 1.327 . S
C465 H459 0.950 . S
C465 C464 1.327 . S
C465 C469 1.429 . S
C466 C449 1.574 . S
C466 H460 0.949 . S
C466 C470 1.368 . S
C467 C448 1.429 . S
C467 C461 1.429 . S
C467 C468 1.523 . S
C468 C449 1.368 . S
C468 C462 1.368 . S
C468 C467 1.523 . S
C469 C453 1.429 . S
C469 C465 1.429 . S
C469 C470 1.523 . S
C470 C454 1.368 . S
C470 C466 1.368 . S
C470 C469 1.523 . S
H471 C446 0.950 . S
H472 C448 0.950 . S
H473 C449 0.949 . S
H474 C451 0.950 . S
H475 C453 0.950 . S
C476 C477 1.349 . S
C476 C478 1.327 . S
C476 H501 0.950 . S
C477 C476 1.349 . S
C477 C493 1.349 . S
C478 C476 1.327 . S
C478 C497 1.429 . S
C478 H502 0.950 . S
C479 C496 1.574 . S
C479 C498 1.368 . S
C479 H503 0.949 . S
H480 C484 0.949 . S
C481 C482 1.349 . S
C481 C483 1.327 . S
C481 H504 0.950 . S
C482 C481 1.349 . S
C482 C494 1.349 . S
C483 C481 1.327 . S
C483 C499 1.429 . S
C483 H505 0.950 . S
C484 H480 0.949 . S
C484 C492 1.574 . S
C484 C500 1.368 . S
H485 C493 0.950 . S
H486 C491 0.950 . S
H487 C492 0.949 . S
H488 C494 0.950 . S
H489 C495 0.950 . S
H490 C496 0.949 . S
C491 H486 0.950 . S
C491 C493 1.327 . S
C491 C497 1.429 . S
C492 C484 1.574 . S
C492 H487 0.949 . S
C492 C498 1.368 . S
C493 C477 1.349 . S
C493 H485 0.950 . S
C493 C491 1.327 . S
C494 C482 1.349 . S
C494 H488 0.950 . S
C494 C495 1.327 . S
C495 H489 0.950 . S
C495 C494 1.327 . S
C495 C499 1.429 . S
C496 C479 1.574 . S
C496 H490 0.949 . S
C496 C500 1.368 . S
C497 C478 1.429 . S
C497 C491 1.429 . S
C497 C498 1.523 . S
C498 C479 1.368 . S
C498 C492 1.368 . S
C498 C497 1.523 . S
C499 C483 1.429 . S
C499 C495 1.429 . S
C499 C500 1.523 . S
C500 C484 1.368 . S
C500 C496 1.368 . S
C500 C499 1.523 . S
H501 C476 0.950 . S
H502 C478 0.950 . S
H503 C479 0.949 . S
H504 C481 0.950 . S
H505 C483 0.950 . S
C506 C507 1.349 . S
C506 C508 1.327 . S
C506 H531 0.950 . S
C507 C506 1.349 . S
C507 C523 1.349 . S
C508 C506 1.327 . S
C508 C527 1.429 . S
C508 H532 0.950 . S
C509 C526 1.574 . S
C509 C528 1.368 . S
C509 H533 0.949 . S
H510 C514 0.949 . S
C511 C512 1.349 . S
C511 C513 1.327 . S
C511 H534 0.950 . S
C512 C511 1.349 . S
C512 C524 1.349 . S
C513 C511 1.327 . S
C513 C529 1.429 . S
C513 H535 0.950 . S
C514 H510 0.949 . S
C514 C522 1.574 . S
C514 C530 1.368 . S
H515 C523 0.950 . S
H516 C521 0.950 . S
H517 C522 0.949 . S
H518 C524 0.950 . S
H519 C525 0.950 . S
H520 C526 0.949 . S
C521 H516 0.950 . S
C521 C523 1.327 . S
C521 C527 1.429 . S
C522 C514 1.574 . S
C522 H517 0.949 . S
C522 C528 1.368 . S
C523 C507 1.349 . S
C523 H515 0.950 . S
C523 C521 1.327 . S
C524 C512 1.349 . S
C524 H518 0.950 . S
C524 C525 1.327 . S
C525 H519 0.950 . S
C525 C524 1.327 . S
C525 C529 1.429 . S
C526 C509 1.574 . S
C526 H520 0.949 . S
C526 C530 1.368 . S
C527 C508 1.429 . S
C527 C521 1.429 . S
C527 C528 1.523 . S
C528 C509 1.368 . S
C528 C522 1.368 . S
C528 C527 1.523 . S
C529 C513 1.429 . S
C529 C525 1.429 . S
C529 C530 1.523 . S
C530 C514 1.368 . S
C530 C526 1.368 . S
C530 C529 1.523 . S
H531 C506 0.950 . S
H532 C508 0.950 . S
H533 C509 0.949 . S
H534 C511 0.950 . S
H535 C513 0.950 . S
C536 C537 1.349 . S
C536 C538 1.327 . S
C536 H561 0.950 . S
C537 C536 1.349 . S
C537 C553 1.349 . S
C538 C536 1.327 . S
C538 C557 1.429 . S
C538 H562 0.950 . S
C539 C556 1.574 . S
C539 C558 1.368 . S
C539 H563 0.949 . S
H540 C544 0.949 . S
C541 C542 1.349 . S
C541 C543 1.327 . S
C541 H564 0.950 . S
C542 C541 1.349 . S
C542 C554 1.349 . S
C543 C541 1.327 . S
C543 C559 1.429 . S
C543 H565 0.950 . S
C544 H540 0.949 . S
C544 C552 1.574 . S
C544 C560 1.368 . S
H545 C553 0.950 . S
H546 C551 0.950 . S
H547 C552 0.949 . S
H548 C554 0.950 . S
H549 C555 0.950 . S
H550 C556 0.949 . S
C551 H546 0.950 . S
C551 C553 1.327 . S
C551 C557 1.429 . S
C552 C544 1.574 . S
C552 H547 0.949 . S
C552 C558 1.368 . S
C553 C537 1.349 . S
C553 H545 0.950 . S
C553 C551 1.327 . S
C554 C542 1.349 . S
C554 H548 0.950 . S
C554 C555 1.327 . S
C555 H549 0.950 . S
C555 C554 1.327 . S
C555 C559 1.429 . S
C556 C539 1.574 . S
C556 H550 0.949 . S
C556 C560 1.368 . S
C557 C538 1.429 . S
C557 C551 1.429 . S
C557 C558 1.523 . S
C558 C539 1.368 . S
C558 C552 1.368 . S
C558 C557 1.523 . S
C559 C543 1.429 . S
C559 C555 1.429 . S
C559 C560 1.523 . S
C560 C544 1.368 . S
C560 C556 1.368 . S
C560 C559 1.523 . S
H561 C536 0.950 . S
H562 C538 0.950 . S
H563 C539 0.949 . S
H564 C541 0.950 . S
H565 C543 0.950 . S
C566 C567 1.349 . S
C566 C568 1.327 . S
C566 H591 0.950 . S
C567 C566 1.349 . S
C567 C583 1.349 . S
C568 C566 1.327 . S
C568 C587 1.429 . S
C568 H592 0.950 . S
C569 C586 1.574 . S
C569 C588 1.368 . S
C569 H593 0.949 . S
H570 C574 0.949 . S
C571 C572 1.349 . S
C571 C573 1.327 . S
C571 H594 0.950 . S
C572 C571 1.349 . S
C572 C584 1.349 . S
C573 C571 1.327 . S
C573 C589 1.429 . S
C573 H595 0.950 . S
C574 H570 0.949 . S
C574 C582 1.574 . S
C574 C590 1.368 . S
H575 C583 0.950 . S
H576 C581 0.950 . S
H577 C582 0.949 . S
H578 C584 0.950 . S
H579 C585 0.950 . S
H580 C586 0.949 . S
C581 H576 0.950 . S
C581 C583 1.327 . S
C581 C587 1.429 . S
C582 C574 1.574 . S
C582 H577 0.949 . S
C582 C588 1.368 . S
C583 C567 1.349 . S
C583 H575 0.950 . S
C583 C581 1.327 . S
C584 C572 1.349 . S
C584 H578 0.950 . S
C584 C585 1.327 . S
C585 H579 0.950 . S
C585 C584 1.327 . S
C585 C589 1.429 . S
C586 C569 1.574 . S
C586 H580 0.949 . S
C586 C590 1.368 . S
C587 C568 1.429 . S
C587 C581 1.429 . S
C587 C588 1.523 . S
C588 C569 1.368 . S
C588 C582 1.368 . S
C588 C587 1.523 . S
C589 C573 1.429 . S
C589 C585 1.429 . S
C589 C590 1.523 . S
C590 C574 1.368 . S
C590 C586 1.368 . S
C590 C589 1.523 . S
H591 C566 0.950 . S
H592 C568 0.950 . S
H593 C569 0.949 . S
H594 C571 0.950 . S
H595 C573 0.950 . S
C596 C597 1.349 . S
C596 C598 1.327 . S
C596 H621 0.950 . S
C597 C596 1.349 . S
C597 C613 1.349 . S
C598 C596 1.327 . S
C598 C617 1.429 . S
C598 H622 0.950 . S
C599 C616 1.574 . S
C599 C618 1.368 . S
C599 H623 0.949 . S
H600 C604 0.949 . S
C601 C602 1.349 . S
C601 C603 1.327 . S
C601 H624 0.950 . S
C602 C601 1.349 . S
C602 C614 1.349 . S
C603 C601 1.327 . S
C603 C619 1.429 . S
C603 H625 0.950 . S
C604 H600 0.949 . S
C604 C612 1.574 . S
C604 C620 1.368 . S
H605 C613 0.950 . S
H606 C611 0.950 . S
H607 C612 0.949 . S
H608 C614 0.950 . S
H609 C615 0.950 . S
H610 C616 0.949 . S
C611 H606 0.950 . S
C611 C613 1.327 . S
C611 C617 1.429 . S
C612 C604 1.574 . S
C612 H607 0.949 . S
C612 C618 1.368 . S
C613 C597 1.349 . S
C613 H605 0.950 . S
C613 C611 1.327 . S
C614 C602 1.349 . S
C614 H608 0.950 . S
C614 C615 1.327 . S
C615 H609 0.950 . S
C615 C614 1.327 . S
C615 C619 1.429 . S
C616 C599 1.574 . S
C616 H610 0.949 . S
C616 C620 1.368 . S
C617 C598 1.429 . S
C617 C611 1.429 . S
C617 C618 1.523 . S
C618 C599 1.368 . S
C618 C612 1.368 . S
C618 C617 1.523 . S
C619 C603 1.429 . S
C619 C615 1.429 . S
C619 C620 1.523 . S
C620 C604 1.368 . S
C620 C616 1.368 . S
C620 C619 1.523 . S
H621 C596 0.950 . S
H622 C598 0.950 . S
H623 C599 0.949 . S
H624 C601 0.950 . S
H625 C603 0.950 . S
C626 C627 1.349 . S
C626 C628 1.327 . S
C626 H651 0.950 . S
C627 C626 1.349 . S
C627 C643 1.349 . S
C628 C626 1.327 . S
C628 C647 1.429 . S
C628 H652 0.950 . S
C629 C646 1.574 . S
C629 C648 1.368 . S
C629 H653 0.949 . S
H630 C634 0.949 . S
C631 C632 1.349 . S
C631 C633 1.327 . S
C631 H654 0.950 . S
C632 C631 1.349 . S
C632 C644 1.349 . S
C633 C631 1.327 . S
C633 C649 1.429 . S
C633 H655 0.950 . S
C634 H630 0.949 . S
C634 C642 1.574 . S
C634 C650 1.368 . S
H635 C643 0.950 . S
H636 C641 0.950 . S
H637 C642 0.949 . S
H638 C644 0.950 . S
H639 C645 0.950 . S
H640 C646 0.949 . S
C641 H636 0.950 . S
C641 C643 1.327 . S
C641 C647 1.429 . S
C642 C634 1.574 . S
C642 H637 0.949 . S
C642 C648 1.368 . S
C643 C627 1.349 . S
C643 H635 0.950 . S
C643 C641 1.327 . S
C644 C632 1.349 . S
C644 H638 0.950 . S
C644 C645 1.327 . S
C645 H639 0.950 . S
C645 C644 1.327 . S
C645 C649 1.429 . S
C646 C629 1.574 . S
C646 H640 0.949 . S
C646 C650 1.368 . S
C647 C628 1.429 . S
C647 C641 1.429 . S
C647 C648 1.523 . S
C648 C629 1.368 . S
C648 C642 1.368 . S
C648 C647 1.523 . S
C649 C633 1.429 . S
C649 C645 1.429 . S
C649 C650 1.523 . S
C650 C634 1.368 . S
C650 C646 1.368 . S
C650 C649 1.523 . S
H651 C626 0.950 . S
H652 C628 0.950 . S
H653 C629 0.949 . S
H654 C631 0.950 . S
H655 C633 0.950 . S
C656 C657 1.349 . S
C656 C658 1.327 . S
C656 H681 0.950 . S
C657 C656 1.349 . S
C657 C673 1.349 . S
C658 C656 1.327 . S
C658 C677 1.429 . S
C658 H682 0.950 . S
C659 C676 1.574 . S
C659 C678 1.368 . S
C659 H683 0.949 . S
H660 C664 0.949 . S
C661 C662 1.349 . S
C661 C663 1.327 . S
C661 H684 0.950 . S
C662 C661 1.349 . S
C662 C674 1.349 . S
C663 C661 1.327 . S
C663 C679 1.429 . S
C663 H685 0.950 . S
C664 H660 0.949 . S
C664 C672 1.574 . S
C664 C680 1.368 . S
H665 C673 0.950 . S
H666 C671 0.950 . S
H667 C672 0.949 . S
H668 C674 0.950 . S
H669 C675 0.950 . S
H670 C676 0.949 . S
C671 H666 0.950 . S
C671 C673 1.327 . S
C671 C677 1.429 . S
C672 C664 1.574 . S
C672 H667 0.949 . S
C672 C678 1.368 . S
C673 C657 1.349 . S
C673 H665 0.950 . S
C673 C671 1.327 . S
C674 C662 1.349 . S
C674 H668 0.950 . S
C674 C675 1.327 . S
C675 H669 0.950 . S
C675 C674 1.327 . S
C675 C679 1.429 . S
C676 C659 1.574 . S
C676 H670 0.949 . S
C676 C680 1.368 . S
C677 C658 1.429 . S
C677 C671 1.429 . S
C677 C678 1.523 . S
C678 C659 1.368 . S
C678 C672 1.368 . S
C678 C677 1.523 . S
C679 C663 1.429 . S
C679 C675 1.429 . S
C679 C680 1.523 . S
C680 C664 1.368 . S
C680 C676 1.368 . S
C680 C679 1.523 . S
H681 C656 0.950 . S
H682 C658 0.950 . S
H683 C659 0.949 . S
H684 C661 0.950 . S
H685 C663 0.950 . S
C686 C687 1.349 . S
C686 C688 1.327 . S
C686 H711 0.950 . S
C687 C686 1.349 . S
C687 C703 1.349 . S
C688 C686 1.327 . S
C688 C707 1.429 . S
C688 H712 0.950 . S
C689 C706 1.574 . S
C689 C708 1.368 . S
C689 H713 0.949 . S
H690 C694 0.949 . S
C691 C692 1.349 . S
C691 C693 1.327 . S
C691 H714 0.950 . S
C692 C691 1.349 . S
C692 C704 1.349 . S
C693 C691 1.327 . S
C693 C709 1.429 . S
C693 H715 0.950 . S
C694 H690 0.949 . S
C694 C702 1.574 . S
C694 C710 1.368 . S
H695 C703 0.950 . S
H696 C701 0.950 . S
H697 C702 0.949 . S
H698 C704 0.950 . S
H699 C705 0.950 . S
H700 C706 0.949 . S
C701 H696 0.950 . S
C701 C703 1.327 . S
C701 C707 1.429 . S
C702 C694 1.574 . S
C702 H697 0.949 . S
C702 C708 1.368 . S
C703 C687 1.349 . S
C703 H695 0.950 . S
C703 C701 1.327 . S
C704 C692 1.349 . S
C704 H698 0.950 . S
C704 C705 1.327 . S
C705 H699 0.950 . S
C705 C704 1.327 . S
C705 C709 1.429 . S
C706 C689 1.574 . S
C706 H700 0.949 . S
C706 C710 1.368 . S
C707 C688 1.429 . S
C707 C701 1.429 . S
C707 C708 1.523 . S
C708 C689 1.368 . S
C708 C702 1.368 . S
C708 C707 1.523 . S
C709 C693 1.429 . S
C709 C705 1.429 . S
C709 C710 1.523 . S
C710 C694 1.368 . S
C710 C706 1.368 . S
C710 C709 1.523 . S
H711 C686 0.950 . S
H712 C688 0.950 . S
H713 C689 0.949 . S
H714 C691 0.950 . S
H715 C693 0.950 . S
C716 C717 1.349 . S
C716 C718 1.327 . S
C716 H741 0.950 . S
C717 C716 1.349 . S
C717 C733 1.349 . S
C718 C716 1.327 . S
C718 C737 1.429 . S
C718 H742 0.950 . S
C719 C736 1.574 . S
C719 C738 1.368 . S
C719 H743 0.949 . S
H720 C724 0.949 . S
C721 C722 1.349 . S
C721 C723 1.327 . S
C721 H744 0.950 . S
C722 C721 1.349 . S
C722 C734 1.349 . S
C723 C721 1.327 . S
C723 C739 1.429 . S
C723 H745 0.950 . S
C724 H720 0.949 . S
C724 C732 1.574 . S
C724 C740 1.368 . S
H725 C733 0.950 . S
H726 C731 0.950 . S
H727 C732 0.949 . S
H728 C734 0.950 . S
H729 C735 0.950 . S
H730 C736 0.949 . S
C731 H726 0.950 . S
C731 C733 1.327 . S
C731 C737 1.429 . S
C732 C724 1.574 . S
C732 H727 0.949 . S
C732 C738 1.368 . S
C733 C717 1.349 . S
C733 H725 0.950 . S
C733 C731 1.327 . S
C734 C722 1.349 . S
C734 H728 0.950 . S
C734 C735 1.327 . S
C735 H729 0.950 . S
C735 C734 1.327 . S
C735 C739 1.429 . S
C736 C719 1.574 . S
C736 H730 0.949 . S
C736 C740 1.368 . S
C737 C718 1.429 . S
C737 C731 1.429 . S
C737 C738 1.523 . S
C738 C719 1.368 . S
C738 C732 1.368 . S
C738 C737 1.523 . S
C739 C723 1.429 . S
C739 C735 1.429 . S
C739 C740 1.523 . S
C740 C724 1.368 . S
C740 C736 1.368 . S
C740 C739 1.523 . S
H741 C716 0.950 . S
H742 C718 0.950 . S
H743 C719 0.949 . S
H744 C721 0.950 . S
H745 C723 0.950 . S
C746 C747 1.349 . S
C746 C748 1.327 . S
C746 H771 0.950 . S
C747 C746 1.349 . S
C747 C763 1.349 . S
C748 C746 1.327 . S
C748 C767 1.429 . S
C748 H772 0.950 . S
C749 C766 1.574 . S
C749 C768 1.368 . S
C749 H773 0.949 . S
H750 C754 0.949 . S
C751 C752 1.349 . S
C751 C753 1.327 . S
C751 H774 0.950 . S
C752 C751 1.349 . S
C752 C764 1.349 . S
C753 C751 1.327 . S
C753 C769 1.429 . S
C753 H775 0.950 . S
C754 H750 0.949 . S
C754 C762 1.574 . S
C754 C770 1.368 . S
H755 C763 0.950 . S
H756 C761 0.950 . S
H757 C762 0.949 . S
H758 C764 0.950 . S
H759 C765 0.950 . S
H760 C766 0.949 . S
C761 H756 0.950 . S
C761 C763 1.327 . S
C761 C767 1.429 . S
C762 C754 1.574 . S
C762 H757 0.949 . S
C762 C768 1.368 . S
C763 C747 1.349 . S
C763 H755 0.950 . S
C763 C761 1.327 . S
C764 C752 1.349 . S
C764 H758 0.950 . S
C764 C765 1.327 . S
C765 H759 0.950 . S
C765 C764 1.327 . S
C765 C769 1.429 . S
C766 C749 1.574 . S
C766 H760 0.949 . S
C766 C770 1.368 . S
C767 C748 1.429 . S
C767 C761 1.429 . S
C767 C768 1.523 . S
C768 C749 1.368 . S
C768 C762 1.368 . S
C768 C767 1.523 . S
C769 C753 1.429 . S
C769 C765 1.429 . S
C769 C770 1.523 . S
C770 C754 1.368 . S
C770 C766 1.368 . S
C770 C769 1.523 . S
H771 C746 0.950 . S
H772 C748 0.950 . S
H773 C749 0.949 . S
H774 C751 0.950 . S
H775 C753 0.950 . S
C776 C777 1.349 . S
C776 C778 1.327 . S
C776 H801 0.950 . S
C777 C776 1.349 . S
C777 C793 1.349 . S
C778 C776 1.327 . S
C778 C797 1.429 . S
C778 H802 0.950 . S
C779 C796 1.574 . S
C779 C798 1.368 . S
C779 H803 0.949 . S
H780 C784 0.949 . S
C781 C782 1.349 . S
C781 C783 1.327 . S
C781 H804 0.950 . S
C782 C781 1.349 . S
C782 C794 1.349 . S
C783 C781 1.327 . S
C783 C799 1.429 . S
C783 H805 0.950 . S
C784 H780 0.949 . S
C784 C792 1.574 . S
C784 C800 1.368 . S
H785 C793 0.950 . S
H786 C791 0.950 . S
H787 C792 0.949 . S
H788 C794 0.950 . S
H789 C795 0.950 . S
H790 C796 0.949 . S
C791 H786 0.950 . S
C791 C793 1.327 . S
C791 C797 1.429 . S
C792 C784 1.574 . S
C792 H787 0.949 . S
C792 C798 1.368 . S
C793 C777 1.349 . S
C793 H785 0.950 . S
C793 C791 1.327 . S
C794 C782 1.349 . S
C794 H788 0.950 . S
C794 C795 1.327 . S
C795 H789 0.950 . S
C795 C794 1.327 . S
C795 C799 1.429 . S
C796 C779 1.574 . S
C796 H790 0.949 . S
C796 C800 1.368 . S
C797 C778 1.429 . S
C797 C791 1.429 . S
C797 C798 1.523 . S
C798 C779 1.368 . S
C798 C792 1.368 . S
C798 C797 1.523 . S
C799 C783 1.429 . S
C799 C795 1.429 . S
C799 C800 1.523 . S
C800 C784 1.368 . S
C800 C796 1.368 . S
C800 C799 1.523 . S
H801 C776 0.950 . S
H802 C778 0.950 . S
H803 C779 0.949 . S
H804 C781 0.950 . S
H805 C783 0.950 . S
C806 C807 1.349 . S
C806 C808 1.327 . S
C806 H831 0.950 . S
C807 C806 1.349 . S
C807 C823 1.349 . S
C808 C806 1.327 . S
C808 C827 1.429 . S
C808 H832 0.950 . S
C809 C826 1.574 . S
C809 C828 1.368 . S
C809 H833 0.949 . S
H810 C814 0.949 . S
C811 C812 1.349 . S
C811 C813 1.327 . S
C811 H834 0.950 . S
C812 C811 1.349 . S
C812 C824 1.349 . S
C813 C811 1.327 . S
C813 C829 1.429 . S
C813 H835 0.950 . S
C814 H810 0.949 . S
C814 C822 1.574 . S
C814 C830 1.368 . S
H815 C823 0.950 . S
H816 C821 0.950 . S
H817 C822 0.949 . S
H818 C824 0.950 . S
H819 C825 0.950 . S
H820 C826 0.949 . S
C821 H816 0.950 . S
C821 C823 1.327 . S
C821 C827 1.429 . S
C822 C814 1.574 . S
C822 H817 0.949 . S
C822 C828 1.368 . S
C823 C807 1.349 . S
C823 H815 0.950 . S
C823 C821 1.327 . S
C824 C812 1.349 . S
C824 H818 0.950 . S
C824 C825 1.327 . S
C825 H819 0.950 . S
C825 C824 1.327 . S
C825 C829 1.429 . S
C826 C809 1.574 . S
C826 H820 0.949 . S
C826 C830 1.368 . S
C827 C808 1.429 . S
C827 C821 1.429 . S
C827 C828 1.523 . S
C828 C809 1.368 . S
C828 C822 1.368 . S
C828 C827 1.523 . S
C829 C813 1.429 . S
C829 C825 1.429 . S
C829 C830 1.523 . S
C830 C814 1.368 . S
C830 C826 1.368 . S
C830 C829 1.523 . S
H831 C806 0.950 . S
H832 C808 0.950 . S
H833 C809 0.949 . S
H834 C811 0.950 . S
H835 C813 0.950 . S
C836 C837 1.349 . S
C836 C838 1.327 . S
C836 H861 0.950 . S
C837 C836 1.349 . S
C837 C853 1.349 . S
C838 C836 1.327 . S
C838 C857 1.429 . S
C838 H862 0.950 . S
C839 C856 1.574 . S
C839 C858 1.368 . S
C839 H863 0.949 . S
H840 C844 0.949 . S
C841 C842 1.349 . S
C841 C843 1.327 . S
C841 H864 0.950 . S
C842 C841 1.349 . S
C842 C854 1.349 . S
C843 C841 1.327 . S
C843 C859 1.429 . S
C843 H865 0.950 . S
C844 H840 0.949 . S
C844 C852 1.574 . S
C844 C860 1.368 . S
H845 C853 0.950 . S
H846 C851 0.950 . S
H847 C852 0.949 . S
H848 C854 0.950 . S
H849 C855 0.950 . S
H850 C856 0.949 . S
C851 H846 0.950 . S
C851 C853 1.327 . S
C851 C857 1.429 . S
C852 C844 1.574 . S
C852 H847 0.949 . S
C852 C858 1.368 . S
C853 C837 1.349 . S
C853 H845 0.950 . S
C853 C851 1.327 . S
C854 C842 1.349 . S
C854 H848 0.950 . S
C854 C855 1.327 . S
C855 H849 0.950 . S
C855 C854 1.327 . S
C855 C859 1.429 . S
C856 C839 1.574 . S
C856 H850 0.949 . S
C856 C860 1.368 . S
C857 C838 1.429 . S
C857 C851 1.429 . S
C857 C858 1.523 . S
C858 C839 1.368 . S
C858 C852 1.368 . S
C858 C857 1.523 . S
C859 C843 1.429 . S
C859 C855 1.429 . S
C859 C860 1.523 . S
C860 C844 1.368 . S
C860 C856 1.368 . S
C860 C859 1.523 . S
H861 C836 0.950 . S
H862 C838 0.950 . S
H863 C839 0.949 . S
H864 C841 0.950 . S
H865 C843 0.950 . S
C866 C867 1.349 . S
C866 C868 1.327 . S
C866 H891 0.950 . S
C867 C866 1.349 . S
C867 C883 1.349 . S
C868 C866 1.327 . S
C868 C887 1.429 . S
C868 H892 0.950 . S
C869 C886 1.574 . S
C869 C888 1.368 . S
C869 H893 0.949 . S
H870 C874 0.949 . S
C871 C872 1.349 . S
C871 C873 1.327 . S
C871 H894 0.950 . S
C872 C871 1.349 . S
C872 C884 1.349 . S
C873 C871 1.327 . S
C873 C889 1.429 . S
C873 H895 0.950 . S
C874 H870 0.949 . S
C874 C882 1.574 . S
C874 C890 1.368 . S
H875 C883 0.950 . S
H876 C881 0.950 . S
H877 C882 0.949 . S
H878 C884 0.950 . S
H879 C885 0.950 . S
H880 C886 0.949 . S
C881 H876 0.950 . S
C881 C883 1.327 . S
C881 C887 1.429 . S
C882 C874 1.574 . S
C882 H877 0.949 . S
C882 C888 1.368 . S
C883 C867 1.349 . S
C883 H875 0.950 . S
C883 C881 1.327 . S
C884 C872 1.349 . S
C884 H878 0.950 . S
C884 C885 1.327 . S
C885 H879 0.950 . S
C885 C884 1.327 . S
C885 C889 1.429 . S
C886 C869 1.574 . S
C886 H880 0.949 . S
C886 C890 1.368 . S
C887 C868 1.429 . S
C887 C881 1.429 . S
C887 C888 1.523 . S
C888 C869 1.368 . S
C888 C882 1.368 . S
C888 C887 1.523 . S
C889 C873 1.429 . S
C889 C885 1.429 . S
C889 C890 1.523 . S
C890 C874 1.368 . S
C890 C886 1.368 . S
C890 C889 1.523 . S
H891 C866 0.950 . S
H892 C868 0.950 . S
H893 C869 0.949 . S
H894 C871 0.950 . S
H895 C873 0.950 . S
C896 C897 1.349 . S
C896 C898 1.327 . S
C896 H921 0.950 . S
C897 C896 1.349 . S
C897 C913 1.349 . S
C898 C896 1.327 . S
C898 C917 1.429 . S
C898 H922 0.950 . S
C899 C916 1.574 1_554 S
C899 C918 1.368 . S
C899 H923 0.949 . S
H900 C904 0.949 . S
C901 C902 1.349 . S
C901 C903 1.327 . S
C901 H924 0.950 . S
C902 C901 1.349 . S
C902 C914 1.349 . S
C903 C901 1.327 . S
C903 C919 1.429 . S
C903 H925 0.950 . S
C904 H900 0.949 . S
C904 C912 1.574 1_556 S
C904 C920 1.368 . S
H905 C913 0.950 . S
H906 C911 0.950 . S
H907 C912 0.949 . S
H908 C914 0.950 . S
H909 C915 0.950 . S
H910 C916 0.949 . S
C911 H906 0.950 . S
C911 C913 1.327 . S
C911 C917 1.429 . S
C912 C904 1.574 1_554 S
C912 H907 0.949 . S
C912 C918 1.368 . S
C913 C897 1.349 . S
C913 H905 0.950 . S
C913 C911 1.327 . S
C914 C902 1.349 . S
C914 H908 0.950 . S
C914 C915 1.327 . S
C915 H909 0.950 . S
C915 C914 1.327 . S
C915 C919 1.429 . S
C916 C899 1.574 1_556 S
C916 H910 0.949 . S
C916 C920 1.368 . S
C917 C898 1.429 . S
C917 C911 1.429 . S
C917 C918 1.523 . S
C918 C899 1.368 . S
C918 C912 1.368 . S
C918 C917 1.523 . S
C919 C903 1.429 . S
C919 C915 1.429 . S
C919 C920 1.523 . S
C920 C904 1.368 . S
C920 C916 1.368 . S
C920 C919 1.523 . S
H921 C896 0.950 . S
H922 C898 0.950 . S
H923 C899 0.949 . S
H924 C901 0.950 . S
H925 C903 0.950 . S
C926 C927 1.349 . S
C926 C928 1.327 . S
C926 H951 0.950 . S
C927 C926 1.349 . S
C927 C943 1.349 . S
C928 C926 1.327 . S
C928 C947 1.429 . S
C928 H952 0.950 . S
C929 C946 1.574 1_556 S
C929 C948 1.368 . S
C929 H953 0.949 . S
H930 C934 0.949 . S
C931 C932 1.349 . S
C931 C933 1.327 . S
C931 H954 0.950 . S
C932 C931 1.349 . S
C932 C944 1.349 . S
C933 C931 1.327 . S
C933 C949 1.429 . S
C933 H955 0.950 . S
C934 H930 0.949 . S
C934 C942 1.574 1_554 S
C934 C950 1.368 . S
H935 C943 0.950 . S
H936 C941 0.950 . S
H937 C942 0.949 . S
H938 C944 0.950 . S
H939 C945 0.950 . S
H940 C946 0.949 . S
C941 H936 0.950 . S
C941 C943 1.327 . S
C941 C947 1.429 . S
C942 C934 1.574 1_556 S
C942 H937 0.949 . S
C942 C948 1.368 . S
C943 C927 1.349 . S
C943 H935 0.950 . S
C943 C941 1.327 . S
C944 C932 1.349 . S
C944 H938 0.950 . S
C944 C945 1.327 . S
C945 H939 0.950 . S
C945 C944 1.327 . S
C945 C949 1.429 . S
C946 C929 1.574 1_554 S
C946 H940 0.949 . S
C946 C950 1.368 . S
C947 C928 1.429 . S
C947 C941 1.429 . S
C947 C948 1.523 . S
C948 C929 1.368 . S
C948 C942 1.368 . S
C948 C947 1.523 . S
C949 C933 1.429 . S
C949 C945 1.429 . S
C949 C950 1.523 . S
C950 C934 1.368 . S
C950 C946 1.368 . S
C950 C949 1.523 . S
H951 C926 0.950 . S
H952 C928 0.950 . S
H953 C929 0.949 . S
H954 C931 0.950 . S
H955 C933 0.950 . S
C956 C957 1.349 . S
C956 C958 1.327 . S
C956 H981 0.950 . S
C957 C956 1.349 . S
C957 C973 1.349 . S
C958 C956 1.327 . S
C958 C977 1.429 . S
C958 H982 0.950 . S
C959 C976 1.574 1_556 S
C959 C978 1.368 . S
C959 H983 0.949 . S
H960 C964 0.949 . S
C961 C962 1.349 . S
C961 C963 1.327 . S
C961 H984 0.950 . S
C962 C961 1.349 . S
C962 C974 1.349 . S
C963 C961 1.327 . S
C963 C979 1.429 . S
C963 H985 0.950 . S
C964 H960 0.949 . S
C964 C972 1.574 1_554 S
C964 C980 1.368 . S
H965 C973 0.950 . S
H966 C971 0.950 . S
H967 C972 0.949 . S
H968 C974 0.950 . S
H969 C975 0.950 . S
H970 C976 0.949 . S
C971 H966 0.950 . S
C971 C973 1.327 . S
C971 C977 1.429 . S
C972 C964 1.574 1_556 S
C972 H967 0.949 . S
C972 C978 1.368 . S
C973 C957 1.349 . S
C973 H965 0.950 . S
C973 C971 1.327 . S
C974 C962 1.349 . S
C974 H968 0.950 . S
C974 C975 1.327 . S
C975 H969 0.950 . S
C975 C974 1.327 . S
C975 C979 1.429 . S
C976 C959 1.574 1_554 S
C976 H970 0.949 . S
C976 C980 1.368 . S
C977 C958 1.429 . S
C977 C971 1.429 . S
C977 C978 1.523 . S
C978 C959 1.368 . S
C978 C972 1.368 . S
C978 C977 1.523 . S
C979 C963 1.429 . S
C979 C975 1.429 . S
C979 C980 1.523 . S
C980 C964 1.368 . S
C980 C976 1.368 . S
C980 C979 1.523 . S
H981 C956 0.950 . S
H982 C958 0.950 . S
H983 C959 0.949 . S
H984 C961 0.950 . S
H985 C963 0.950 . S
C986 C987 1.349 . S
C986 C988 1.327 . S
C986 H1011 0.950 . S
C987 C986 1.349 . S
C987 C1003 1.349 . S
C988 C986 1.327 . S
C988 C1007 1.429 . S
C988 H1012 0.950 . S
C989 C1006 1.574 1_556 S
C989 C1008 1.368 . S
C989 H1013 0.949 . S
H990 C994 0.949 . S
C991 C992 1.349 . S
C991 C993 1.327 . S
C991 H1014 0.950 . S
C992 C991 1.349 . S
C992 C1004 1.349 . S
C993 C991 1.327 . S
C993 C1009 1.429 . S
C993 H1015 0.950 . S
C994 H990 0.949 . S
C994 C1002 1.574 1_554 S
C994 C1010 1.368 . S
H995 C1003 0.950 . S
H996 C1001 0.950 . S
H997 C1002 0.949 . S
H998 C1004 0.950 . S
H999 C1005 0.950 . S
H1000 C1006 0.949 . S
C1001 H996 0.950 . S
C1001 C1003 1.327 . S
C1001 C1007 1.429 . S
C1002 C994 1.574 1_556 S
C1002 H997 0.949 . S
C1002 C1008 1.368 . S
C1003 C987 1.349 . S
C1003 H995 0.950 . S
C1003 C1001 1.327 . S
C1004 C992 1.349 . S
C1004 H998 0.950 . S
C1004 C1005 1.327 . S
C1005 H999 0.950 . S
C1005 C1004 1.327 . S
C1005 C1009 1.429 . S
C1006 C989 1.574 1_554 S
C1006 H1000 0.949 . S
C1006 C1010 1.368 . S
C1007 C988 1.429 . S
C1007 C1001 1.429 . S
C1007 C1008 1.523 . S
C1008 C989 1.368 . S
C1008 C1002 1.368 . S
C1008 C1007 1.523 . S
C1009 C993 1.429 . S
C1009 C1005 1.429 . S
C1009 C1010 1.523 . S
C1010 C994 1.368 . S
C1010 C1006 1.368 . S
C1010 C1009 1.523 . S
H1011 C986 0.950 . S
H1012 C988 0.950 . S
H1013 C989 0.949 . S
H1014 C991 0.950 . S
H1015 C993 0.950 . S
C1016 C1017 1.349 . S
C1016 C1018 1.327 . S
C1016 H1041 0.950 . S
C1017 C1016 1.349 . S
C1017 C1033 1.349 . S
C1018 C1016 1.327 . S
C1018 C1037 1.429 . S
C1018 H1042 0.950 . S
C1019 C1036 1.574 . S
C1019 C1038 1.368 . S
C1019 H1043 0.949 . S
H1020 C1024 0.949 . S
C1021 C1022 1.349 . S
C1021 C1023 1.327 . S
C1021 H1044 0.950 . S
C1022 C1021 1.349 . S
C1022 C1034 1.349 . S
C1023 C1021 1.327 . S
C1023 C1039 1.429 . S
C1023 H1045 0.950 . S
C1024 H1020 0.949 . S
C1024 C1032 1.574 . S
C1024 C1040 1.368 . S
H1025 C1033 0.950 . S
H1026 C1031 0.950 . S
H1027 C1032 0.949 . S
H1028 C1034 0.950 . S
H1029 C1035 0.950 . S
H1030 C1036 0.949 . S
C1031 H1026 0.950 . S
C1031 C1033 1.327 . S
C1031 C1037 1.429 . S
C1032 C1024 1.574 . S
C1032 H1027 0.949 . S
C1032 C1038 1.368 . S
C1033 C1017 1.349 . S
C1033 H1025 0.950 . S
C1033 C1031 1.327 . S
C1034 C1022 1.349 . S
C1034 H1028 0.950 . S
C1034 C1035 1.327 . S
C1035 H1029 0.950 . S
C1035 C1034 1.327 . S
C1035 C1039 1.429 . S
C1036 C1019 1.574 . S
C1036 H1030 0.949 . S
C1036 C1040 1.368 . S
C1037 C1018 1.429 . S
C1037 C1031 1.429 . S
C1037 C1038 1.523 . S
C1038 C1019 1.368 . S
C1038 C1032 1.368 . S
C1038 C1037 1.523 . S
C1039 C1023 1.429 . S
C1039 C1035 1.429 . S
C1039 C1040 1.523 . S
C1040 C1024 1.368 . S
C1040 C1036 1.368 . S
C1040 C1039 1.523 . S
H1041 C1016 0.950 . S
H1042 C1018 0.950 . S
H1043 C1019 0.949 . S
H1044 C1021 0.950 . S
H1045 C1023 0.950 . S
C1046 C1047 1.349 . S
C1046 C1048 1.327 . S
C1046 H1071 0.950 . S
C1047 C1046 1.349 . S
C1047 C1063 1.349 . S
C1048 C1046 1.327 . S
C1048 C1067 1.429 . S
C1048 H1072 0.950 . S
C1049 C1066 1.574 . S
C1049 C1068 1.368 . S
C1049 H1073 0.949 . S
H1050 C1054 0.949 . S
C1051 C1052 1.349 . S
C1051 C1053 1.327 . S
C1051 H1074 0.950 . S
C1052 C1051 1.349 . S
C1052 C1064 1.349 . S
C1053 C1051 1.327 . S
C1053 C1069 1.429 . S
C1053 H1075 0.950 . S
C1054 H1050 0.949 . S
C1054 C1062 1.574 . S
C1054 C1070 1.368 . S
H1055 C1063 0.950 . S
H1056 C1061 0.950 . S
H1057 C1062 0.949 . S
H1058 C1064 0.950 . S
H1059 C1065 0.950 . S
H1060 C1066 0.949 . S
C1061 H1056 0.950 . S
C1061 C1063 1.327 . S
C1061 C1067 1.429 . S
C1062 C1054 1.574 . S
C1062 H1057 0.949 . S
C1062 C1068 1.368 . S
C1063 C1047 1.349 . S
C1063 H1055 0.950 . S
C1063 C1061 1.327 . S
C1064 C1052 1.349 . S
C1064 H1058 0.950 . S
C1064 C1065 1.327 . S
C1065 H1059 0.950 . S
C1065 C1064 1.327 . S
C1065 C1069 1.429 . S
C1066 C1049 1.574 . S
C1066 H1060 0.949 . S
C1066 C1070 1.368 . S
C1067 C1048 1.429 . S
C1067 C1061 1.429 . S
C1067 C1068 1.523 . S
C1068 C1049 1.368 . S
C1068 C1062 1.368 . S
C1068 C1067 1.523 . S
C1069 C1053 1.429 . S
C1069 C1065 1.429 . S
C1069 C1070 1.523 . S
C1070 C1054 1.368 . S
C1070 C1066 1.368 . S
C1070 C1069 1.523 . S
H1071 C1046 0.950 . S
H1072 C1048 0.950 . S
H1073 C1049 0.949 . S
H1074 C1051 0.950 . S
H1075 C1053 0.950 . S
C1076 C1077 1.349 . S
C1076 C1078 1.327 . S
C1076 H1101 0.950 . S
C1077 C1076 1.349 . S
C1077 C1093 1.349 . S
C1078 C1076 1.327 . S
C1078 C1097 1.429 . S
C1078 H1102 0.950 . S
C1079 C1096 1.574 . S
C1079 C1098 1.368 . S
C1079 H1103 0.949 . S
H1080 C1084 0.949 . S
C1081 C1082 1.349 . S
C1081 C1083 1.327 . S
C1081 H1104 0.950 . S
C1082 C1081 1.349 . S
C1082 C1094 1.349 . S
C1083 C1081 1.327 . S
C1083 C1099 1.429 . S
C1083 H1105 0.950 . S
C1084 H1080 0.949 . S
C1084 C1092 1.574 . S
C1084 C1100 1.368 . S
H1085 C1093 0.950 . S
H1086 C1091 0.950 . S
H1087 C1092 0.949 . S
H1088 C1094 0.950 . S
H1089 C1095 0.950 . S
H1090 C1096 0.949 . S
C1091 H1086 0.950 . S
C1091 C1093 1.327 . S
C1091 C1097 1.429 . S
C1092 C1084 1.574 . S
C1092 H1087 0.949 . S
C1092 C1098 1.368 . S
C1093 C1077 1.349 . S
C1093 H1085 0.950 . S
C1093 C1091 1.327 . S
C1094 C1082 1.349 . S
C1094 H1088 0.950 . S
C1094 C1095 1.327 . S
C1095 H1089 0.950 . S
C1095 C1094 1.327 . S
C1095 C1099 1.429 . S
C1096 C1079 1.574 . S
C1096 H1090 0.949 . S
C1096 C1100 1.368 . S
C1097 C1078 1.429 . S
C1097 C1091 1.429 . S
C1097 C1098 1.523 . S
C1098 C1079 1.368 . S
C1098 C1092 1.368 . S
C1098 C1097 1.523 . S
C1099 C1083 1.429 . S
C1099 C1095 1.429 . S
C1099 C1100 1.523 . S
C1100 C1084 1.368 . S
C1100 C1096 1.368 . S
C1100 C1099 1.523 . S
H1101 C1076 0.950 . S
H1102 C1078 0.950 . S
H1103 C1079 0.949 . S
H1104 C1081 0.950 . S
H1105 C1083 0.950 . S
C1106 C1107 1.349 . S
C1106 C1108 1.327 . S
C1106 H1131 0.950 . S
C1107 C1106 1.349 . S
C1107 C1123 1.349 . S
C1108 C1106 1.327 . S
C1108 C1127 1.429 . S
C1108 H1132 0.950 . S
C1109 C1126 1.574 . S
C1109 C1128 1.368 . S
C1109 H1133 0.949 . S
H1110 C1114 0.949 . S
C1111 C1112 1.349 . S
C1111 C1113 1.327 . S
C1111 H1134 0.950 . S
C1112 C1111 1.349 . S
C1112 C1124 1.349 . S
C1113 C1111 1.327 . S
C1113 C1129 1.429 . S
C1113 H1135 0.950 . S
C1114 H1110 0.949 . S
C1114 C1122 1.574 . S
C1114 C1130 1.368 . S
H1115 C1123 0.950 . S
H1116 C1121 0.950 . S
H1117 C1122 0.949 . S
H1118 C1124 0.950 . S
H1119 C1125 0.950 . S
H1120 C1126 0.949 . S
C1121 H1116 0.950 . S
C1121 C1123 1.327 . S
C1121 C1127 1.429 . S
C1122 C1114 1.574 . S
C1122 H1117 0.949 . S
C1122 C1128 1.368 . S
C1123 C1107 1.349 . S
C1123 H1115 0.950 . S
C1123 C1121 1.327 . S
C1124 C1112 1.349 . S
C1124 H1118 0.950 . S
C1124 C1125 1.327 . S
C1125 H1119 0.950 . S
C1125 C1124 1.327 . S
C1125 C1129 1.429 . S
C1126 C1109 1.574 . S
C1126 H1120 0.949 . S
C1126 C1130 1.368 . S
C1127 C1108 1.429 . S
C1127 C1121 1.429 . S
C1127 C1128 1.523 . S
C1128 C1109 1.368 . S
C1128 C1122 1.368 . S
C1128 C1127 1.523 . S
C1129 C1113 1.429 . S
C1129 C1125 1.429 . S
C1129 C1130 1.523 . S
C1130 C1114 1.368 . S
C1130 C1126 1.368 . S
C1130 C1129 1.523 . S
H1131 C1106 0.950 . S
H1132 C1108 0.950 . S
H1133 C1109 0.949 . S
H1134 C1111 0.950 . S
H1135 C1113 0.950 . S
C1136 C1137 1.349 . S
C1136 C1138 1.327 . S
C1136 H1161 0.950 . S
C1137 C1136 1.349 . S
C1137 C1153 1.349 . S
C1138 C1136 1.327 . S
C1138 C1157 1.429 . S
C1138 H1162 0.950 . S
C1139 C1156 1.574 . S
C1139 C1158 1.368 . S
C1139 H1163 0.949 . S
H1140 C1144 0.949 . S
C1141 C1142 1.349 . S
C1141 C1143 1.327 . S
C1141 H1164 0.950 . S
C1142 C1141 1.349 . S
C1142 C1154 1.349 . S
C1143 C1141 1.327 . S
C1143 C1159 1.429 . S
C1143 H1165 0.950 . S
C1144 H1140 0.949 . S
C1144 C1152 1.574 . S
C1144 C1160 1.368 . S
H1145 C1153 0.950 . S
H1146 C1151 0.950 . S
H1147 C1152 0.949 . S
H1148 C1154 0.950 . S
H1149 C1155 0.950 . S
H1150 C1156 0.949 . S
C1151 H1146 0.950 . S
C1151 C1153 1.327 . S
C1151 C1157 1.429 . S
C1152 C1144 1.574 . S
C1152 H1147 0.949 . S
C1152 C1158 1.368 . S
C1153 C1137 1.349 . S
C1153 H1145 0.950 . S
C1153 C1151 1.327 . S
C1154 C1142 1.349 . S
C1154 H1148 0.950 . S
C1154 C1155 1.327 . S
C1155 H1149 0.950 . S
C1155 C1154 1.327 . S
C1155 C1159 1.429 . S
C1156 C1139 1.574 . S
C1156 H1150 0.949 . S
C1156 C1160 1.368 . S
C1157 C1138 1.429 . S
C1157 C1151 1.429 . S
C1157 C1158 1.523 . S
C1158 C1139 1.368 . S
C1158 C1152 1.368 . S
C1158 C1157 1.523 . S
C1159 C1143 1.429 . S
C1159 C1155 1.429 . S
C1159 C1160 1.523 . S
C1160 C1144 1.368 . S
C1160 C1156 1.368 . S
C1160 C1159 1.523 . S
H1161 C1136 0.950 . S
H1162 C1138 0.950 . S
H1163 C1139 0.949 . S
H1164 C1141 0.950 . S
H1165 C1143 0.950 . S
C1166 C1167 1.349 . S
C1166 C1168 1.327 . S
C1166 H1191 0.950 . S
C1167 C1166 1.349 . S
C1167 C1183 1.349 . S
C1168 C1166 1.327 . S
C1168 C1187 1.429 . S
C1168 H1192 0.950 . S
C1169 C1186 1.574 . S
C1169 C1188 1.368 . S
C1169 H1193 0.949 . S
H1170 C1174 0.949 . S
C1171 C1172 1.349 . S
C1171 C1173 1.327 . S
C1171 H1194 0.950 . S
C1172 C1171 1.349 . S
C1172 C1184 1.349 . S
C1173 C1171 1.327 . S
C1173 C1189 1.429 . S
C1173 H1195 0.950 . S
C1174 H1170 0.949 . S
C1174 C1182 1.574 . S
C1174 C1190 1.368 . S
H1175 C1183 0.950 . S
H1176 C1181 0.950 . S
H1177 C1182 0.949 . S
H1178 C1184 0.950 . S
H1179 C1185 0.950 . S
H1180 C1186 0.949 . S
C1181 H1176 0.950 . S
C1181 C1183 1.327 . S
C1181 C1187 1.429 . S
C1182 C1174 1.574 . S
C1182 H1177 0.949 . S
C1182 C1188 1.368 . S
C1183 C1167 1.349 . S
C1183 H1175 0.950 . S
C1183 C1181 1.327 . S
C1184 C1172 1.349 . S
C1184 H1178 0.950 . S
C1184 C1185 1.327 . S
C1185 H1179 0.950 . S
C1185 C1184 1.327 . S
C1185 C1189 1.429 . S
C1186 C1169 1.574 . S
C1186 H1180 0.949 . S
C1186 C1190 1.368 . S
C1187 C1168 1.429 . S
C1187 C1181 1.429 . S
C1187 C1188 1.523 . S
C1188 C1169 1.368 . S
C1188 C1182 1.368 . S
C1188 C1187 1.523 . S
C1189 C1173 1.429 . S
C1189 C1185 1.429 . S
C1189 C1190 1.523 . S
C1190 C1174 1.368 . S
C1190 C1186 1.368 . S
C1190 C1189 1.523 . S
H1191 C1166 0.950 . S
H1192 C1168 0.950 . S
H1193 C1169 0.949 . S
H1194 C1171 0.950 . S
H1195 C1173 0.950 . S
C1196 C1197 1.349 . S
C1196 C1198 1.327 . S
C1196 H1221 0.950 . S
C1197 C1196 1.349 . S
C1197 C1213 1.349 . S
C1198 C1196 1.327 . S
C1198 C1217 1.429 . S
C1198 H1222 0.950 . S
C1199 C1216 1.574 . S
C1199 C1218 1.368 . S
C1199 H1223 0.949 . S
H1200 C1204 0.949 . S
C1201 C1202 1.349 . S
C1201 C1203 1.327 . S
C1201 H1224 0.950 . S
C1202 C1201 1.349 . S
C1202 C1214 1.349 . S
C1203 C1201 1.327 . S
C1203 C1219 1.429 . S
C1203 H1225 0.950 . S
C1204 H1200 0.949 . S
C1204 C1212 1.574 . S
C1204 C1220 1.368 . S
H1205 C1213 0.950 . S
H1206 C1211 0.950 . S
H1207 C1212 0.949 . S
H1208 C1214 0.950 . S
H1209 C1215 0.950 . S
H1210 C1216 0.949 . S
C1211 H1206 0.950 . S
C1211 C1213 1.327 . S
C1211 C1217 1.429 . S
C1212 C1204 1.574 . S
C1212 H1207 0.949 . S
C1212 C1218 1.368 . S
C1213 C1197 1.349 . S
C1213 H1205 0.950 . S
C1213 C1211 1.327 . S
C1214 C1202 1.349 . S
C1214 H1208 0.950 . S
C1214 C1215 1.327 . S
C1215 H1209 0.950 . S
C1215 C1214 1.327 . S
C1215 C1219 1.429 . S
C1216 C1199 1.574 . S
C1216 H1210 0.949 . S
C1216 C1220 1.368 . S
C1217 C1198 1.429 . S
C1217 C1211 1.429 . S
C1217 C1218 1.523 . S
C1218 C1199 1.368 . S
C1218 C1212 1.368 . S
C1218 C1217 1.523 . S
C1219 C1203 1.429 . S
C1219 C1215 1.429 . S
C1219 C1220 1.523 . S
C1220 C1204 1.368 . S
C1220 C1216 1.368 . S
C1220 C1219 1.523 . S
H1221 C1196 0.950 . S
H1222 C1198 0.950 . S
H1223 C1199 0.949 . S
H1224 C1201 0.950 . S
H1225 C1203 0.950 . S
C1226 C1227 1.349 . S
C1226 C1228 1.327 . S
C1226 H1251 0.950 . S
C1227 C1226 1.349 . S
C1227 C1243 1.349 . S
C1228 C1226 1.327 . S
C1228 C1247 1.429 . S
C1228 H1252 0.950 . S
C1229 C1246 1.574 . S
C1229 C1248 1.368 . S
C1229 H1253 0.949 . S
H1230 C1234 0.949 . S
C1231 C1232 1.349 . S
C1231 C1233 1.327 . S
C1231 H1254 0.950 . S
C1232 C1231 1.349 . S
C1232 C1244 1.349 . S
C1233 C1231 1.327 . S
C1233 C1249 1.429 . S
C1233 H1255 0.950 . S
C1234 H1230 0.949 . S
C1234 C1242 1.574 . S
C1234 C1250 1.368 . S
H1235 C1243 0.950 . S
H1236 C1241 0.950 . S
H1237 C1242 0.949 . S
H1238 C1244 0.950 . S
H1239 C1245 0.950 . S
H1240 C1246 0.949 . S
C1241 H1236 0.950 . S
C1241 C1243 1.327 . S
C1241 C1247 1.429 . S
C1242 C1234 1.574 . S
C1242 H1237 0.949 . S
C1242 C1248 1.368 . S
C1243 C1227 1.349 . S
C1243 H1235 0.950 . S
C1243 C1241 1.327 . S
C1244 C1232 1.349 . S
C1244 H1238 0.950 . S
C1244 C1245 1.327 . S
C1245 H1239 0.950 . S
C1245 C1244 1.327 . S
C1245 C1249 1.429 . S
C1246 C1229 1.574 . S
C1246 H1240 0.949 . S
C1246 C1250 1.368 . S
C1247 C1228 1.429 . S
C1247 C1241 1.429 . S
C1247 C1248 1.523 . S
C1248 C1229 1.368 . S
C1248 C1242 1.368 . S
C1248 C1247 1.523 . S
C1249 C1233 1.429 . S
C1249 C1245 1.429 . S
C1249 C1250 1.523 . S
C1250 C1234 1.368 . S
C1250 C1246 1.368 . S
C1250 C1249 1.523 . S
H1251 C1226 0.950 . S
H1252 C1228 0.950 . S
H1253 C1229 0.949 . S
H1254 C1231 0.950 . S
H1255 C1233 0.950 . S
C1256 C1257 1.349 . S
C1256 C1258 1.327 . S
C1256 H1281 0.950 . S
C1257 C1256 1.349 . S
C1257 C1273 1.349 . S
C1258 C1256 1.327 . S
C1258 C1277 1.429 . S
C1258 H1282 0.950 . S
C1259 C1276 1.574 1_556 S
C1259 C1278 1.368 . S
C1259 H1283 0.949 . S
H1260 C1264 0.949 . S
C1261 C1262 1.349 . S
C1261 C1263 1.327 . S
C1261 H1284 0.950 . S
C1262 C1261 1.349 . S
C1262 C1274 1.349 . S
C1263 C1261 1.327 . S
C1263 C1279 1.429 . S
C1263 H1285 0.950 . S
C1264 H1260 0.949 . S
C1264 C1272 1.574 1_554 S
C1264 C1280 1.368 . S
H1265 C1273 0.950 . S
H1266 C1271 0.950 . S
H1267 C1272 0.949 . S
H1268 C1274 0.950 . S
H1269 C1275 0.950 . S
H1270 C1276 0.949 . S
C1271 H1266 0.950 . S
C1271 C1273 1.327 . S
C1271 C1277 1.429 . S
C1272 C1264 1.574 1_556 S
C1272 H1267 0.949 . S
C1272 C1278 1.368 . S
C1273 C1257 1.349 . S
C1273 H1265 0.950 . S
C1273 C1271 1.327 . S
C1274 C1262 1.349 . S
C1274 H1268 0.950 . S
C1274 C1275 1.327 . S
C1275 H1269 0.950 . S
C1275 C1274 1.327 . S
C1275 C1279 1.429 . S
C1276 C1259 1.574 1_554 S
C1276 H1270 0.949 . S
C1276 C1280 1.368 . S
C1277 C1258 1.429 . S
C1277 C1271 1.429 . S
C1277 C1278 1.523 . S
C1278 C1259 1.368 . S
C1278 C1272 1.368 . S
C1278 C1277 1.523 . S
C1279 C1263 1.429 . S
C1279 C1275 1.429 . S
C1279 C1280 1.523 . S
C1280 C1264 1.368 . S
C1280 C1276 1.368 . S
C1280 C1279 1.523 . S
H1281 C1256 0.950 . S
H1282 C1258 0.950 . S
H1283 C1259 0.949 . S
H1284 C1261 0.950 . S
H1285 C1263 0.950 . S
C1286 C1287 1.349 . S
C1286 C1288 1.327 . S
C1286 H1311 0.950 . S
C1287 C1286 1.349 . S
C1287 C1303 1.349 . S
C1288 C1286 1.327 . S
C1288 C1307 1.429 . S
C1288 H1312 0.950 . S
C1289 C1306 1.574 1_554 S
C1289 C1308 1.368 . S
C1289 H1313 0.949 . S
H1290 C1294 0.949 . S
C1291 C1292 1.349 . S
C1291 C1293 1.327 . S
C1291 H1314 0.950 . S
C1292 C1291 1.349 . S
C1292 C1304 1.349 . S
C1293 C1291 1.327 . S
C1293 C1309 1.429 . S
C1293 H1315 0.950 . S
C1294 H1290 0.949 . S
C1294 C1302 1.574 1_556 S
C1294 C1310 1.368 . S
H1295 C1303 0.950 . S
H1296 C1301 0.950 . S
H1297 C1302 0.949 . S
H1298 C1304 0.950 . S
H1299 C1305 0.950 . S
H1300 C1306 0.949 . S
C1301 H1296 0.950 . S
C1301 C1303 1.327 . S
C1301 C1307 1.429 . S
C1302 C1294 1.574 1_554 S
C1302 H1297 0.949 . S
C1302 C1308 1.368 . S
C1303 C1287 1.349 . S
C1303 H1295 0.950 . S
C1303 C1301 1.327 . S
C1304 C1292 1.349 . S
C1304 H1298 0.950 . S
C1304 C1305 1.327 . S
C1305 H1299 0.950 . S
C1305 C1304 1.327 . S
C1305 C1309 1.429 . S
C1306 C1289 1.574 1_556 S
C1306 H1300 0.949 . S
C1306 C1310 1.368 . S
C1307 C1288 1.429 . S
C1307 C1301 1.429 . S
C1307 C1308 1.523 . S
C1308 C1289 1.368 . S
C1308 C1302 1.368 . S
C1308 C1307 1.523 . S
C1309 C1293 1.429 . S
C1309 C1305 1.429 . S
C1309 C1310 1.523 . S
C1310 C1294 1.368 . S
C1310 C1306 1.368 . S
C1310 C1309 1.523 . S
H1311 C1286 0.950 . S
H1312 C1288 0.950 . S
H1313 C1289 0.949 . S
H1314 C1291 0.950 . S
H1315 C1293 0.950 . S
C1316 C1317 1.349 . S
C1316 C1318 1.327 . S
C1316 H1341 0.950 . S
C1317 C1316 1.349 . S
C1317 C1333 1.349 . S
C1318 C1316 1.327 . S
C1318 C1337 1.429 . S
C1318 H1342 0.950 . S
C1319 C1336 1.574 1_554 S
C1319 C1338 1.368 . S
C1319 H1343 0.949 . S
H1320 C1324 0.949 . S
C1321 C1322 1.349 . S
C1321 C1323 1.327 . S
C1321 H1344 0.950 . S
C1322 C1321 1.349 . S
C1322 C1334 1.349 . S
C1323 C1321 1.327 . S
C1323 C1339 1.429 . S
C1323 H1345 0.950 . S
C1324 H1320 0.949 . S
C1324 C1332 1.574 1_556 S
C1324 C1340 1.368 . S
H1325 C1333 0.950 . S
H1326 C1331 0.950 . S
H1327 C1332 0.949 . S
H1328 C1334 0.950 . S
H1329 C1335 0.950 . S
H1330 C1336 0.949 . S
C1331 H1326 0.950 . S
C1331 C1333 1.327 . S
C1331 C1337 1.429 . S
C1332 C1324 1.574 1_554 S
C1332 H1327 0.949 . S
C1332 C1338 1.368 . S
C1333 C1317 1.349 . S
C1333 H1325 0.950 . S
C1333 C1331 1.327 . S
C1334 C1322 1.349 . S
C1334 H1328 0.950 . S
C1334 C1335 1.327 . S
C1335 H1329 0.950 . S
C1335 C1334 1.327 . S
C1335 C1339 1.429 . S
C1336 C1319 1.574 1_556 S
C1336 H1330 0.949 . S
C1336 C1340 1.368 . S
C1337 C1318 1.429 . S
C1337 C1331 1.429 . S
C1337 C1338 1.523 . S
C1338 C1319 1.368 . S
C1338 C1332 1.368 . S
C1338 C1337 1.523 . S
C1339 C1323 1.429 . S
C1339 C1335 1.429 . S
C1339 C1340 1.523 . S
C1340 C1324 1.368 . S
C1340 C1336 1.368 . S
C1340 C1339 1.523 . S
H1341 C1316 0.950 . S
H1342 C1318 0.950 . S
H1343 C1319 0.949 . S
H1344 C1321 0.950 . S
H1345 C1323 0.950 . S
C1346 C1347 1.349 . S
C1346 C1348 1.327 . S
C1346 H1371 0.950 . S
C1347 C1346 1.349 . S
C1347 C1363 1.349 . S
C1348 C1346 1.327 . S
C1348 C1367 1.429 . S
C1348 H1372 0.950 . S
C1349 C1366 1.574 1_556 S
C1349 C1368 1.368 . S
C1349 H1373 0.949 . S
H1350 C1354 0.949 . S
C1351 C1352 1.349 . S
C1351 C1353 1.327 . S
C1351 H1374 0.950 . S
C1352 C1351 1.349 . S
C1352 C1364 1.349 . S
C1353 C1351 1.327 . S
C1353 C1369 1.429 . S
C1353 H1375 0.950 . S
C1354 H1350 0.949 . S
C1354 C1362 1.574 1_554 S
C1354 C1370 1.368 . S
H1355 C1363 0.950 . S
H1356 C1361 0.950 . S
H1357 C1362 0.949 . S
H1358 C1364 0.950 . S
H1359 C1365 0.950 . S
H1360 C1366 0.949 . S
C1361 H1356 0.950 . S
C1361 C1363 1.327 . S
C1361 C1367 1.429 . S
C1362 C1354 1.574 1_556 S
C1362 H1357 0.949 . S
C1362 C1368 1.368 . S
C1363 C1347 1.349 . S
C1363 H1355 0.950 . S
C1363 C1361 1.327 . S
C1364 C1352 1.349 . S
C1364 H1358 0.950 . S
C1364 C1365 1.327 . S
C1365 H1359 0.950 . S
C1365 C1364 1.327 . S
C1365 C1369 1.429 . S
C1366 C1349 1.574 1_554 S
C1366 H1360 0.949 . S
C1366 C1370 1.368 . S
C1367 C1348 1.429 . S
C1367 C1361 1.429 . S
C1367 C1368 1.523 . S
C1368 C1349 1.368 . S
C1368 C1362 1.368 . S
C1368 C1367 1.523 . S
C1369 C1353 1.429 . S
C1369 C1365 1.429 . S
C1369 C1370 1.523 . S
C1370 C1354 1.368 . S
C1370 C1366 1.368 . S
C1370 C1369 1.523 . S
H1371 C1346 0.950 . S
H1372 C1348 0.950 . S
H1373 C1349 0.949 . S
H1374 C1351 0.950 . S
H1375 C1353 0.950 . S
C1376 C1377 1.349 . S
C1376 C1378 1.327 . S
C1376 H1401 0.950 . S
C1377 C1376 1.349 . S
C1377 C1393 1.349 . S
C1378 C1376 1.327 . S
C1378 C1397 1.429 . S
C1378 H1402 0.950 . S
C1379 C1396 1.522 1_545 S
C1379 C1398 1.368 . S
C1379 H1403 0.949 . S
H1380 C1384 0.949 . S
C1381 C1382 1.349 . S
C1381 C1383 1.327 . S
C1381 H1404 0.950 . S
C1382 C1381 1.349 . S
C1382 C1394 1.349 . S
C1383 C1381 1.327 . S
C1383 C1399 1.429 . S
C1383 H1405 0.950 . S
C1384 H1380 0.949 . S
C1384 C1392 1.522 1_565 S
C1384 C1400 1.368 . S
H1385 C1393 0.950 . S
H1386 C1391 0.950 . S
H1387 C1392 0.957 . S
H1388 C1394 0.950 . S
H1389 C1395 0.950 . S
H1390 C1396 0.957 . S
C1391 H1386 0.950 . S
C1391 C1393 1.327 . S
C1391 C1397 1.429 . S
C1392 C1384 1.522 1_545 S
C1392 H1387 0.957 . S
C1392 C1398 1.416 . S
C1393 C1377 1.349 . S
C1393 H1385 0.950 . S
C1393 C1391 1.327 . S
C1394 C1382 1.349 . S
C1394 H1388 0.950 . S
C1394 C1395 1.327 . S
C1395 H1389 0.950 . S
C1395 C1394 1.327 . S
C1395 C1399 1.429 . S
C1396 C1379 1.522 1_565 S
C1396 H1390 0.957 . S
C1396 C1400 1.416 . S
C1397 C1378 1.429 . S
C1397 C1391 1.429 . S
C1397 C1398 1.523 . S
C1398 C1379 1.368 . S
C1398 C1392 1.416 . S
C1398 C1397 1.523 . S
C1399 C1383 1.429 . S
C1399 C1395 1.429 . S
C1399 C1400 1.523 . S
C1400 C1384 1.368 . S
C1400 C1396 1.416 . S
C1400 C1399 1.523 . S
H1401 C1376 0.950 . S
H1402 C1378 0.950 . S
H1403 C1379 0.949 . S
H1404 C1381 0.950 . S
H1405 C1383 0.950 . S
C1406 C1407 1.349 . S
C1406 C1408 1.327 . S
C1406 H1431 0.950 . S
C1407 C1406 1.349 . S
C1407 C1423 1.349 . S
C1408 C1406 1.327 . S
C1408 C1427 1.429 . S
C1408 H1432 0.950 . S
C1409 C1426 1.574 1_655 S
C1409 C1428 1.368 . S
C1409 H1433 0.949 . S
H1410 C1414 0.949 . S
C1411 C1412 1.349 . S
C1411 C1413 1.327 . S
C1411 H1434 0.950 . S
C1412 C1411 1.349 . S
C1412 C1424 1.349 . S
C1413 C1411 1.327 . S
C1413 C1429 1.429 . S
C1413 H1435 0.950 . S
C1414 H1410 0.949 . S
C1414 C1422 1.574 1_455 S
C1414 C1430 1.368 . S
H1415 C1423 0.950 . S
H1416 C1421 0.950 . S
H1417 C1422 0.949 . S
H1418 C1424 0.950 . S
H1419 C1425 0.950 . S
H1420 C1426 0.949 . S
C1421 H1416 0.950 . S
C1421 C1423 1.327 . S
C1421 C1427 1.429 . S
C1422 C1414 1.574 1_655 S
C1422 H1417 0.949 . S
C1422 C1428 1.368 . S
C1423 C1407 1.349 . S
C1423 H1415 0.950 . S
C1423 C1421 1.327 . S
C1424 C1412 1.349 . S
C1424 H1418 0.950 . S
C1424 C1425 1.327 . S
C1425 H1419 0.950 . S
C1425 C1424 1.327 . S
C1425 C1429 1.429 . S
C1426 C1409 1.574 1_455 S
C1426 H1420 0.949 . S
C1426 C1430 1.368 . S
C1427 C1408 1.429 . S
C1427 C1421 1.429 . S
C1427 C1428 1.523 . S
C1428 C1409 1.368 . S
C1428 C1422 1.368 . S
C1428 C1427 1.523 . S
C1429 C1413 1.429 . S
C1429 C1425 1.429 . S
C1429 C1430 1.523 . S
C1430 C1414 1.368 . S
C1430 C1426 1.368 . S
C1430 C1429 1.523 . S
H1431 C1406 0.950 . S
H1432 C1408 0.950 . S
H1433 C1409 0.949 . S
H1434 C1411 0.950 . S
H1435 C1413 0.950 . S
C1436 C1437 1.349 . S
C1436 C1438 1.327 . S
C1436 H1461 0.950 . S
C1437 C1436 1.349 . S
C1437 C1453 1.349 . S
C1438 C1436 1.327 . S
C1438 C1457 1.429 . S
C1438 H1462 0.950 . S
C1439 C1456 1.574 1_545 S
C1439 C1458 1.368 . S
C1439 H1463 0.949 . S
H1440 C1444 0.949 . S
C1441 C1442 1.349 . S
C1441 C1443 1.327 . S
C1441 H1464 0.950 . S
C1442 C1441 1.349 . S
C1442 C1454 1.349 . S
C1443 C1441 1.327 . S
C1443 C1459 1.429 . S
C1443 H1465 0.950 . S
C1444 H1440 0.949 . S
C1444 C1452 1.574 1_565 S
C1444 C1460 1.368 . S
H1445 C1453 0.950 . S
H1446 C1451 0.950 . S
H1447 C1452 0.949 . S
H1448 C1454 0.950 . S
H1449 C1455 0.950 . S
H1450 C1456 0.949 . S
C1451 H1446 0.950 . S
C1451 C1453 1.327 . S
C1451 C1457 1.429 . S
C1452 C1444 1.574 1_545 S
C1452 H1447 0.949 . S
C1452 C1458 1.368 . S
C1453 C1437 1.349 . S
C1453 H1445 0.950 . S
C1453 C1451 1.327 . S
C1454 C1442 1.349 . S
C1454 H1448 0.950 . S
C1454 C1455 1.327 . S
C1455 H1449 0.950 . S
C1455 C1454 1.327 . S
C1455 C1459 1.429 . S
C1456 C1439 1.574 1_565 S
C1456 H1450 0.949 . S
C1456 C1460 1.368 . S
C1457 C1438 1.429 . S
C1457 C1451 1.429 . S
C1457 C1458 1.523 . S
C1458 C1439 1.368 . S
C1458 C1452 1.368 . S
C1458 C1457 1.523 . S
C1459 C1443 1.429 . S
C1459 C1455 1.429 . S
C1459 C1460 1.523 . S
C1460 C1444 1.368 . S
C1460 C1456 1.368 . S
C1460 C1459 1.523 . S
H1461 C1436 0.950 . S
H1462 C1438 0.950 . S
H1463 C1439 0.949 . S
H1464 C1441 0.950 . S
H1465 C1443 0.950 . S
C1466 C1467 1.349 . S
C1466 C1468 1.327 . S
C1466 H1491 0.950 . S
C1467 C1466 1.349 . S
C1467 C1483 1.349 . S
C1468 C1466 1.327 . S
C1468 C1487 1.429 . S
C1468 H1492 0.950 . S
C1469 C1486 1.574 1_455 S
C1469 C1488 1.368 . S
C1469 H1493 0.949 . S
H1470 C1474 0.949 . S
C1471 C1472 1.349 . S
C1471 C1473 1.327 . S
C1471 H1494 0.950 . S
C1472 C1471 1.349 . S
C1472 C1484 1.349 . S
C1473 C1471 1.327 . S
C1473 C1489 1.429 . S
C1473 H1495 0.950 . S
C1474 H1470 0.949 . S
C1474 C1482 1.574 1_655 S
C1474 C1490 1.368 . S
H1475 C1483 0.950 . S
H1476 C1481 0.950 . S
H1477 C1482 0.949 . S
H1478 C1484 0.950 . S
H1479 C1485 0.950 . S
H1480 C1486 0.949 . S
C1481 H1476 0.950 . S
C1481 C1483 1.327 . S
C1481 C1487 1.429 . S
C1482 C1474 1.574 1_455 S
C1482 H1477 0.949 . S
C1482 C1488 1.368 . S
C1483 C1467 1.349 . S
C1483 H1475 0.950 . S
C1483 C1481 1.327 . S
C1484 C1472 1.349 . S
C1484 H1478 0.950 . S
C1484 C1485 1.327 . S
C1485 H1479 0.950 . S
C1485 C1484 1.327 . S
C1485 C1489 1.429 . S
C1486 C1469 1.574 1_655 S
C1486 H1480 0.949 . S
C1486 C1490 1.368 . S
C1487 C1468 1.429 . S
C1487 C1481 1.429 . S
C1487 C1488 1.523 . S
C1488 C1469 1.368 . S
C1488 C1482 1.368 . S
C1488 C1487 1.523 . S
C1489 C1473 1.429 . S
C1489 C1485 1.429 . S
C1489 C1490 1.523 . S
C1490 C1474 1.368 . S
C1490 C1486 1.368 . S
C1490 C1489 1.523 . S
H1491 C1466 0.950 . S
H1492 C1468 0.950 . S
H1493 C1469 0.949 . S
H1494 C1471 0.950 . S
H1495 C1473 0.950 . S
C1496 C1497 1.349 . S
C1496 C1498 1.327 . S
C1496 H1521 0.950 . S
C1497 C1496 1.349 . S
C1497 C1513 1.349 . S
C1498 C1496 1.327 . S
C1498 C1517 1.429 . S
C1498 H1522 0.950 . S
C1499 C1516 1.574 . S
C1499 C1518 1.368 1_545 S
C1499 H1523 0.949 . S
H1500 C1504 0.949 . S
C1501 C1502 1.349 . S
C1501 C1503 1.327 . S
C1501 H1524 0.950 . S
C1502 C1501 1.349 . S
C1502 C1514 1.349 . S
C1503 C1501 1.327 . S
C1503 C1519 1.429 . S
C1503 H1525 0.950 . S
C1504 H1500 0.949 . S
C1504 C1512 1.574 . S
C1504 C1520 1.368 1_565 S
H1505 C1513 0.950 . S
H1506 C1511 0.950 . S
H1507 C1512 0.949 . S
H1508 C1514 0.950 . S
H1509 C1515 0.950 . S
H1510 C1516 0.949 . S
C1511 H1506 0.950 . S
C1511 C1513 1.327 . S
C1511 C1517 1.429 . S
C1512 C1504 1.574 . S
C1512 H1507 0.949 . S
C1512 C1518 1.368 . S
C1513 C1497 1.349 . S
C1513 H1505 0.950 . S
C1513 C1511 1.327 . S
C1514 C1502 1.349 . S
C1514 H1508 0.950 . S
C1514 C1515 1.327 . S
C1515 H1509 0.950 . S
C1515 C1514 1.327 . S
C1515 C1519 1.429 . S
C1516 C1499 1.574 . S
C1516 H1510 0.949 . S
C1516 C1520 1.368 . S
C1517 C1498 1.429 . S
C1517 C1511 1.429 . S
C1517 C1518 1.523 . S
C1518 C1499 1.368 1_565 S
C1518 C1512 1.368 . S
C1518 C1517 1.523 . S
C1519 C1503 1.429 . S
C1519 C1515 1.429 . S
C1519 C1520 1.523 . S
C1520 C1504 1.368 1_545 S
C1520 C1516 1.368 . S
C1520 C1519 1.523 . S
H1521 C1496 0.950 . S
H1522 C1498 0.950 . S
H1523 C1499 0.949 . S
H1524 C1501 0.950 . S
H1525 C1503 0.950 . S
C1526 C1527 1.349 . S
C1526 C1528 1.327 . S
C1526 H1551 0.950 . S
C1527 C1526 1.349 . S
C1527 C1543 1.349 . S
C1528 C1526 1.327 . S
C1528 C1547 1.429 . S
C1528 H1552 0.950 . S
C1529 C1546 1.574 1_655 S
C1529 C1548 1.368 . S
C1529 H1553 0.949 . S
H1530 C1534 0.949 . S
C1531 C1532 1.349 . S
C1531 C1533 1.327 . S
C1531 H1554 0.950 . S
C1532 C1531 1.349 . S
C1532 C1544 1.349 . S
C1533 C1531 1.327 . S
C1533 C1549 1.429 . S
C1533 H1555 0.950 . S
C1534 H1530 0.949 . S
C1534 C1542 1.574 1_455 S
C1534 C1550 1.368 . S
H1535 C1543 0.950 . S
H1536 C1541 0.950 . S
H1537 C1542 0.949 . S
H1538 C1544 0.950 . S
H1539 C1545 0.950 . S
H1540 C1546 0.949 . S
C1541 H1536 0.950 . S
C1541 C1543 1.327 . S
C1541 C1547 1.429 . S
C1542 C1534 1.574 1_655 S
C1542 H1537 0.949 . S
C1542 C1548 1.368 . S
C1543 C1527 1.349 . S
C1543 H1535 0.950 . S
C1543 C1541 1.327 . S
C1544 C1532 1.349 . S
C1544 H1538 0.950 . S
C1544 C1545 1.327 . S
C1545 H1539 0.950 . S
C1545 C1544 1.327 . S
C1545 C1549 1.429 . S
C1546 C1529 1.574 1_455 S
C1546 H1540 0.949 . S
C1546 C1550 1.368 . S
C1547 C1528 1.429 . S
C1547 C1541 1.429 . S
C1547 C1548 1.523 . S
C1548 C1529 1.368 . S
C1548 C1542 1.368 . S
C1548 C1547 1.523 . S
C1549 C1533 1.429 . S
C1549 C1545 1.429 . S
C1549 C1550 1.523 . S
C1550 C1534 1.368 . S
C1550 C1546 1.368 . S
C1550 C1549 1.523 . S
H1551 C1526 0.950 . S
H1552 C1528 0.950 . S
H1553 C1529 0.949 . S
H1554 C1531 0.950 . S
H1555 C1533 0.950 . S
C1556 C1557 1.349 . S
C1556 C1558 1.327 . S
C1556 H1581 0.950 . S
C1557 C1556 1.349 . S
C1557 C1573 1.349 . S
C1558 C1556 1.327 . S
C1558 C1577 1.429 . S
C1558 H1582 0.950 . S
C1559 C1576 1.574 . S
C1559 C1578 1.368 . S
C1559 H1583 0.949 . S
H1560 C1564 0.949 . S
C1561 C1562 1.349 . S
C1561 C1563 1.327 . S
C1561 H1584 0.950 . S
C1562 C1561 1.349 . S
C1562 C1574 1.349 . S
C1563 C1561 1.327 . S
C1563 C1579 1.429 . S
C1563 H1585 0.950 . S
C1564 H1560 0.949 . S
C1564 C1572 1.574 . S
C1564 C1580 1.368 . S
H1565 C1573 0.950 . S
H1566 C1571 0.950 . S
H1567 C1572 0.949 . S
H1568 C1574 0.950 . S
H1569 C1575 0.950 . S
H1570 C1576 0.949 . S
C1571 H1566 0.950 . S
C1571 C1573 1.327 . S
C1571 C1577 1.429 . S
C1572 C1564 1.574 . S
C1572 H1567 0.949 . S
C1572 C1578 1.368 1_545 S
C1573 C1557 1.349 . S
C1573 H1565 0.950 . S
C1573 C1571 1.327 . S
C1574 C1562 1.349 . S
C1574 H1568 0.950 . S
C1574 C1575 1.327 . S
C1575 H1569 0.950 . S
C1575 C1574 1.327 . S
C1575 C1579 1.429 . S
C1576 C1559 1.574 . S
C1576 H1570 0.949 . S
C1576 C1580 1.368 1_565 S
C1577 C1558 1.429 . S
C1577 C1571 1.429 . S
C1577 C1578 1.523 . S
C1578 C1559 1.368 . S
C1578 C1572 1.368 1_565 S
C1578 C1577 1.523 . S
C1579 C1563 1.429 . S
C1579 C1575 1.429 . S
C1579 C1580 1.523 . S
C1580 C1564 1.368 . S
C1580 C1576 1.368 1_545 S
C1580 C1579 1.523 . S
H1581 C1556 0.950 . S
H1582 C1558 0.950 . S
H1583 C1559 0.949 . S
H1584 C1561 0.950 . S
H1585 C1563 0.950 . S
C1586 C1587 1.349 . S
C1586 C1588 1.327 . S
C1586 H1611 0.950 . S
C1587 C1586 1.349 . S
C1587 C1603 1.349 . S
C1588 C1586 1.327 . S
C1588 C1607 1.429 . S
C1588 H1612 0.950 . S
C1589 C1606 1.574 1_655 S
C1589 C1608 1.368 . S
C1589 H1613 0.949 . S
H1590 C1594 0.949 . S
C1591 C1592 1.349 . S
C1591 C1593 1.327 . S
C1591 H1614 0.950 . S
C1592 C1591 1.349 . S
C1592 C1604 1.349 . S
C1593 C1591 1.327 . S
C1593 C1609 1.429 . S
C1593 H1615 0.950 . S
C1594 H1590 0.949 . S
C1594 C1602 1.574 1_455 S
C1594 C1610 1.368 . S
H1595 C1603 0.950 . S
H1596 C1601 0.950 . S
H1597 C1602 0.949 . S
H1598 C1604 0.950 . S
H1599 C1605 0.950 . S
H1600 C1606 0.949 . S
C1601 H1596 0.950 . S
C1601 C1603 1.327 . S
C1601 C1607 1.429 . S
C1602 C1594 1.574 1_655 S
C1602 H1597 0.949 . S
C1602 C1608 1.368 . S
C1603 C1587 1.349 . S
C1603 H1595 0.950 . S
C1603 C1601 1.327 . S
C1604 C1592 1.349 . S
C1604 H1598 0.950 . S
C1604 C1605 1.327 . S
C1605 H1599 0.950 . S
C1605 C1604 1.327 . S
C1605 C1609 1.429 . S
C1606 C1589 1.574 1_455 S
C1606 H1600 0.949 . S
C1606 C1610 1.368 . S
C1607 C1588 1.429 . S
C1607 C1601 1.429 . S
C1607 C1608 1.523 . S
C1608 C1589 1.368 . S
C1608 C1602 1.368 . S
C1608 C1607 1.523 . S
C1609 C1593 1.429 . S
C1609 C1605 1.429 . S
C1609 C1610 1.523 . S
C1610 C1594 1.368 . S
C1610 C1606 1.368 . S
C1610 C1609 1.523 . S
H1611 C1586 0.950 . S
H1612 C1588 0.950 . S
H1613 C1589 0.949 . S
H1614 C1591 0.950 . S
H1615 C1593 0.950 . S
C1616 C1617 1.349 . S
C1616 C1618 1.327 . S
C1616 H1641 0.950 . S
C1617 C1616 1.349 . S
C1617 C1633 1.349 . S
C1618 C1616 1.327 . S
C1618 C1637 1.429 . S
C1618 H1642 0.950 . S
C1619 C1636 1.574 . S
C1619 C1638 1.368 . S
C1619 H1643 0.949 . S
H1620 C1624 0.949 . S
C1621 C1622 1.349 . S
C1621 C1623 1.327 . S
C1621 H1644 0.950 . S
C1622 C1621 1.349 . S
C1622 C1634 1.349 . S
C1623 C1621 1.327 . S
C1623 C1639 1.429 . S
C1623 H1645 0.950 . S
C1624 H1620 0.949 . S
C1624 C1632 1.574 . S
C1624 C1640 1.368 . S
H1625 C1633 0.950 . S
H1626 C1631 0.950 . S
H1627 C1632 0.949 . S
H1628 C1634 0.950 . S
H1629 C1635 0.950 . S
H1630 C1636 0.949 . S
C1631 H1626 0.950 . S
C1631 C1633 1.327 . S
C1631 C1637 1.429 . S
C1632 C1624 1.574 . S
C1632 H1627 0.949 . S
C1632 C1638 1.368 . S
C1633 C1617 1.349 . S
C1633 H1625 0.950 . S
C1633 C1631 1.327 . S
C1634 C1622 1.349 . S
C1634 H1628 0.950 . S
C1634 C1635 1.327 . S
C1635 H1629 0.950 . S
C1635 C1634 1.327 . S
C1635 C1639 1.429 . S
C1636 C1619 1.574 . S
C1636 H1630 0.949 . S
C1636 C1640 1.368 . S
C1637 C1618 1.429 . S
C1637 C1631 1.429 . S
C1637 C1638 1.523 . S
C1638 C1619 1.368 . S
C1638 C1632 1.368 . S
C1638 C1637 1.523 . S
C1639 C1623 1.429 . S
C1639 C1635 1.429 . S
C1639 C1640 1.523 . S
C1640 C1624 1.368 . S
C1640 C1636 1.368 . S
C1640 C1639 1.523 . S
H1641 C1616 0.950 . S
H1642 C1618 0.950 . S
H1643 C1619 0.949 . S
H1644 C1621 0.950 . S
H1645 C1623 0.950 . S
C1646 C1647 1.349 . S
C1646 C1648 1.327 . S
C1646 H1671 0.950 . S
C1647 C1646 1.349 . S
C1647 C1663 1.349 . S
C1648 C1646 1.327 . S
C1648 C1667 1.429 . S
C1648 H1672 0.950 . S
C1649 C1666 1.574 . S
C1649 C1668 1.368 . S
C1649 H1673 0.949 . S
H1650 C1654 0.949 . S
C1651 C1652 1.349 . S
C1651 C1653 1.327 . S
C1651 H1674 0.950 . S
C1652 C1651 1.349 . S
C1652 C1664 1.349 . S
C1653 C1651 1.327 . S
C1653 C1669 1.429 . S
C1653 H1675 0.950 . S
C1654 H1650 0.949 . S
C1654 C1662 1.574 . S
C1654 C1670 1.368 . S
H1655 C1663 0.950 . S
H1656 C1661 0.950 . S
H1657 C1662 0.949 . S
H1658 C1664 0.950 . S
H1659 C1665 0.950 . S
H1660 C1666 0.949 . S
C1661 H1656 0.950 . S
C1661 C1663 1.327 . S
C1661 C1667 1.429 . S
C1662 C1654 1.574 . S
C1662 H1657 0.949 . S
C1662 C1668 1.368 . S
C1663 C1647 1.349 . S
C1663 H1655 0.950 . S
C1663 C1661 1.327 . S
C1664 C1652 1.349 . S
C1664 H1658 0.950 . S
C1664 C1665 1.327 . S
C1665 H1659 0.950 . S
C1665 C1664 1.327 . S
C1665 C1669 1.429 . S
C1666 C1649 1.574 . S
C1666 H1660 0.949 . S
C1666 C1670 1.368 . S
C1667 C1648 1.429 . S
C1667 C1661 1.429 . S
C1667 C1668 1.523 . S
C1668 C1649 1.368 . S
C1668 C1662 1.368 . S
C1668 C1667 1.523 . S
C1669 C1653 1.429 . S
C1669 C1665 1.429 . S
C1669 C1670 1.523 . S
C1670 C1654 1.368 . S
C1670 C1666 1.368 . S
C1670 C1669 1.523 . S
H1671 C1646 0.950 . S
H1672 C1648 0.950 . S
H1673 C1649 0.949 . S
H1674 C1651 0.950 . S
H1675 C1653 0.950 . S
C1676 C1677 1.349 . S
C1676 C1678 1.327 . S
C1676 H1701 0.950 . S
C1677 C1676 1.349 . S
C1677 C1693 1.349 . S
C1678 C1676 1.327 . S
C1678 C1697 1.429 . S
C1678 H1702 0.950 . S
C1679 C1696 1.574 . S
C1679 C1698 1.368 . S
C1679 H1703 0.949 . S
H1680 C1684 0.949 . S
C1681 C1682 1.349 . S
C1681 C1683 1.327 . S
C1681 H1704 0.950 . S
C1682 C1681 1.349 . S
C1682 C1694 1.349 . S
C1683 C1681 1.327 . S
C1683 C1699 1.429 . S
C1683 H1705 0.950 . S
C1684 H1680 0.949 . S
C1684 C1692 1.574 . S
C1684 C1700 1.368 . S
H1685 C1693 0.950 . S
H1686 C1691 0.950 . S
H1687 C1692 0.949 . S
H1688 C1694 0.950 . S
H1689 C1695 0.950 . S
H1690 C1696 0.949 . S
C1691 H1686 0.950 . S
C1691 C1693 1.327 . S
C1691 C1697 1.429 . S
C1692 C1684 1.574 . S
C1692 H1687 0.949 . S
C1692 C1698 1.368 . S
C1693 C1677 1.349 . S
C1693 H1685 0.950 . S
C1693 C1691 1.327 . S
C1694 C1682 1.349 . S
C1694 H1688 0.950 . S
C1694 C1695 1.327 . S
C1695 H1689 0.950 . S
C1695 C1694 1.327 . S
C1695 C1699 1.429 . S
C1696 C1679 1.574 . S
C1696 H1690 0.949 . S
C1696 C1700 1.368 . S
C1697 C1678 1.429 . S
C1697 C1691 1.429 . S
C1697 C1698 1.523 . S
C1698 C1679 1.368 . S
C1698 C1692 1.368 . S
C1698 C1697 1.523 . S
C1699 C1683 1.429 . S
C1699 C1695 1.429 . S
C1699 C1700 1.523 . S
C1700 C1684 1.368 . S
C1700 C1696 1.368 . S
C1700 C1699 1.523 . S
H1701 C1676 0.950 . S
H1702 C1678 0.950 . S
H1703 C1679 0.949 . S
H1704 C1681 0.950 . S
H1705 C1683 0.950 . S
C1706 C1707 1.349 . S
C1706 C1708 1.327 . S
C1706 H1731 0.950 . S
C1707 C1706 1.349 . S
C1707 C1723 1.349 . S
C1708 C1706 1.327 . S
C1708 C1727 1.429 . S
C1708 H1732 0.950 . S
C1709 C1726 1.574 . S
C1709 C1728 1.368 . S
C1709 H1733 0.949 . S
H1710 C1714 0.949 . S
C1711 C1712 1.349 . S
C1711 C1713 1.327 . S
C1711 H1734 0.950 . S
C1712 C1711 1.349 . S
C1712 C1724 1.349 . S
C1713 C1711 1.327 . S
C1713 C1729 1.429 . S
C1713 H1735 0.950 . S
C1714 H1710 0.949 . S
C1714 C1722 1.574 . S
C1714 C1730 1.368 . S
H1715 C1723 0.950 . S
H1716 C1721 0.950 . S
H1717 C1722 0.949 . S
H1718 C1724 0.950 . S
H1719 C1725 0.950 . S
H1720 C1726 0.949 . S
C1721 H1716 0.950 . S
C1721 C1723 1.327 . S
C1721 C1727 1.429 . S
C1722 C1714 1.574 . S
C1722 H1717 0.949 . S
C1722 C1728 1.368 . S
C1723 C1707 1.349 . S
C1723 H1715 0.950 . S
C1723 C1721 1.327 . S
C1724 C1712 1.349 . S
C1724 H1718 0.950 . S
C1724 C1725 1.327 . S
C1725 H1719 0.950 . S
C1725 C1724 1.327 . S
C1725 C1729 1.429 . S
C1726 C1709 1.574 . S
C1726 H1720 0.949 . S
C1726 C1730 1.368 . S
C1727 C1708 1.429 . S
C1727 C1721 1.429 . S
C1727 C1728 1.523 . S
C1728 C1709 1.368 . S
C1728 C1722 1.368 . S
C1728 C1727 1.523 . S
C1729 C1713 1.429 . S
C1729 C1725 1.429 . S
C1729 C1730 1.523 . S
C1730 C1714 1.368 . S
C1730 C1726 1.368 . S
C1730 C1729 1.523 . S
H1731 C1706 0.950 . S
H1732 C1708 0.950 . S
H1733 C1709 0.949 . S
H1734 C1711 0.950 . S
H1735 C1713 0.950 . S
C1736 C1737 1.349 . S
C1736 C1738 1.327 . S
C1736 H1761 0.950 . S
C1737 C1736 1.349 . S
C1737 C1753 1.349 . S
C1738 C1736 1.327 . S
C1738 C1757 1.429 . S
C1738 H1762 0.950 . S
C1739 C1756 1.574 . S
C1739 C1758 1.368 . S
C1739 H1763 0.949 . S
H1740 C1744 0.949 . S
C1741 C1742 1.349 . S
C1741 C1743 1.327 . S
C1741 H1764 0.950 . S
C1742 C1741 1.349 . S
C1742 C1754 1.349 . S
C1743 C1741 1.327 . S
C1743 C1759 1.429 . S
C1743 H1765 0.950 . S
C1744 H1740 0.949 . S
C1744 C1752 1.574 . S
C1744 C1760 1.368 . S
H1745 C1753 0.950 . S
H1746 C1751 0.950 . S
H1747 C1752 0.949 . S
H1748 C1754 0.950 . S
H1749 C1755 0.950 . S
H1750 C1756 0.949 . S
C1751 H1746 0.950 . S
C1751 C1753 1.327 . S
C1751 C1757 1.429 . S
C1752 C1744 1.574 . S
C1752 H1747 0.949 . S
C1752 C1758 1.368 . S
C1753 C1737 1.349 . S
C1753 H1745 0.950 . S
C1753 C1751 1.327 . S
C1754 C1742 1.349 . S
C1754 H1748 0.950 . S
C1754 C1755 1.327 . S
C1755 H1749 0.950 . S
C1755 C1754 1.327 . S
C1755 C1759 1.429 . S
C1756 C1739 1.574 . S
C1756 H1750 0.949 . S
C1756 C1760 1.368 . S
C1757 C1738 1.429 . S
C1757 C1751 1.429 . S
C1757 C1758 1.523 . S
C1758 C1739 1.368 . S
C1758 C1752 1.368 . S
C1758 C1757 1.523 . S
C1759 C1743 1.429 . S
C1759 C1755 1.429 . S
C1759 C1760 1.523 . S
C1760 C1744 1.368 . S
C1760 C1756 1.368 . S
C1760 C1759 1.523 . S
H1761 C1736 0.950 . S
H1762 C1738 0.950 . S
H1763 C1739 0.949 . S
H1764 C1741 0.950 . S
H1765 C1743 0.950 . S
C1766 C1767 1.349 . S
C1766 C1768 1.327 . S
C1766 H1791 0.950 . S
C1767 C1766 1.349 . S
C1767 C1783 1.349 . S
C1768 C1766 1.327 . S
C1768 C1787 1.429 . S
C1768 H1792 0.950 . S
C1769 C1786 1.574 . S
C1769 C1788 1.368 . S
C1769 H1793 0.949 . S
H1770 C1774 0.949 . S
C1771 C1772 1.349 . S
C1771 C1773 1.327 . S
C1771 H1794 0.950 . S
C1772 C1771 1.349 . S
C1772 C1784 1.349 . S
C1773 C1771 1.327 . S
C1773 C1789 1.429 . S
C1773 H1795 0.950 . S
C1774 H1770 0.949 . S
C1774 C1782 1.574 . S
C1774 C1790 1.368 . S
H1775 C1783 0.950 . S
H1776 C1781 0.950 . S
H1777 C1782 0.949 . S
H1778 C1784 0.950 . S
H1779 C1785 0.950 . S
H1780 C1786 0.949 . S
C1781 H1776 0.950 . S
C1781 C1783 1.327 . S
C1781 C1787 1.429 . S
C1782 C1774 1.574 . S
C1782 H1777 0.949 . S
C1782 C1788 1.368 . S
C1783 C1767 1.349 . S
C1783 H1775 0.950 . S
C1783 C1781 1.327 . S
C1784 C1772 1.349 . S
C1784 H1778 0.950 . S
C1784 C1785 1.327 . S
C1785 H1779 0.950 . S
C1785 C1784 1.327 . S
C1785 C1789 1.429 . S
C1786 C1769 1.574 . S
C1786 H1780 0.949 . S
C1786 C1790 1.368 . S
C1787 C1768 1.429 . S
C1787 C1781 1.429 . S
C1787 C1788 1.523 . S
C1788 C1769 1.368 . S
C1788 C1782 1.368 . S
C1788 C1787 1.523 . S
C1789 C1773 1.429 . S
C1789 C1785 1.429 . S
C1789 C1790 1.523 . S
C1790 C1774 1.368 . S
C1790 C1786 1.368 . S
C1790 C1789 1.523 . S
H1791 C1766 0.950 . S
H1792 C1768 0.950 . S
H1793 C1769 0.949 . S
H1794 C1771 0.950 . S
H1795 C1773 0.950 . S
C1796 C1797 1.349 . S
C1796 C1798 1.327 . S
C1796 H1821 0.950 . S
C1797 C1796 1.349 . S
C1797 C1813 1.349 . S
C1798 C1796 1.327 . S
C1798 C1817 1.429 . S
C1798 H1822 0.950 . S
C1799 C1816 1.574 . S
C1799 C1818 1.368 . S
C1799 H1823 0.949 . S
H1800 C1804 0.949 . S
C1801 C1802 1.349 . S
C1801 C1803 1.327 . S
C1801 H1824 0.950 . S
C1802 C1801 1.349 . S
C1802 C1814 1.349 . S
C1803 C1801 1.327 . S
C1803 C1819 1.429 . S
C1803 H1825 0.950 . S
C1804 H1800 0.949 . S
C1804 C1812 1.574 . S
C1804 C1820 1.368 . S
H1805 C1813 0.950 . S
H1806 C1811 0.950 . S
H1807 C1812 0.949 . S
H1808 C1814 0.950 . S
H1809 C1815 0.950 . S
H1810 C1816 0.949 . S
C1811 H1806 0.950 . S
C1811 C1813 1.327 . S
C1811 C1817 1.429 . S
C1812 C1804 1.574 . S
C1812 H1807 0.949 . S
C1812 C1818 1.368 . S
C1813 C1797 1.349 . S
C1813 H1805 0.950 . S
C1813 C1811 1.327 . S
C1814 C1802 1.349 . S
C1814 H1808 0.950 . S
C1814 C1815 1.327 . S
C1815 H1809 0.950 . S
C1815 C1814 1.327 . S
C1815 C1819 1.429 . S
C1816 C1799 1.574 . S
C1816 H1810 0.949 . S
C1816 C1820 1.368 . S
C1817 C1798 1.429 . S
C1817 C1811 1.429 . S
C1817 C1818 1.523 . S
C1818 C1799 1.368 . S
C1818 C1812 1.368 . S
C1818 C1817 1.523 . S
C1819 C1803 1.429 . S
C1819 C1815 1.429 . S
C1819 C1820 1.523 . S
C1820 C1804 1.368 . S
C1820 C1816 1.368 . S
C1820 C1819 1.523 . S
H1821 C1796 0.950 . S
H1822 C1798 0.950 . S
H1823 C1799 0.949 . S
H1824 C1801 0.950 . S
H1825 C1803 0.950 . S
C1826 C1827 1.349 . S
C1826 C1828 1.327 . S
C1826 H1851 0.950 . S
C1827 C1826 1.349 . S
C1827 C1843 1.349 . S
C1828 C1826 1.327 . S
C1828 C1847 1.429 . S
C1828 H1852 0.950 . S
C1829 C1846 1.574 . S
C1829 C1848 1.368 . S
C1829 H1853 0.949 . S
H1830 C1834 0.949 . S
C1831 C1832 1.349 . S
C1831 C1833 1.327 . S
C1831 H1854 0.950 . S
C1832 C1831 1.349 . S
C1832 C1844 1.349 . S
C1833 C1831 1.327 . S
C1833 C1849 1.429 . S
C1833 H1855 0.950 . S
C1834 H1830 0.949 . S
C1834 C1842 1.574 . S
C1834 C1850 1.368 . S
H1835 C1843 0.950 . S
H1836 C1841 0.950 . S
H1837 C1842 0.949 . S
H1838 C1844 0.950 . S
H1839 C1845 0.950 . S
H1840 C1846 0.949 . S
C1841 H1836 0.950 . S
C1841 C1843 1.327 . S
C1841 C1847 1.429 . S
C1842 C1834 1.574 . S
C1842 H1837 0.949 . S
C1842 C1848 1.368 . S
C1843 C1827 1.349 . S
C1843 H1835 0.950 . S
C1843 C1841 1.327 . S
C1844 C1832 1.349 . S
C1844 H1838 0.950 . S
C1844 C1845 1.327 . S
C1845 H1839 0.950 . S
C1845 C1844 1.327 . S
C1845 C1849 1.429 . S
C1846 C1829 1.574 . S
C1846 H1840 0.949 . S
C1846 C1850 1.368 . S
C1847 C1828 1.429 . S
C1847 C1841 1.429 . S
C1847 C1848 1.523 . S
C1848 C1829 1.368 . S
C1848 C1842 1.368 . S
C1848 C1847 1.523 . S
C1849 C1833 1.429 . S
C1849 C1845 1.429 . S
C1849 C1850 1.523 . S
C1850 C1834 1.368 . S
C1850 C1846 1.368 . S
C1850 C1849 1.523 . S
H1851 C1826 0.950 . S
H1852 C1828 0.950 . S
H1853 C1829 0.949 . S
H1854 C1831 0.950 . S
H1855 C1833 0.950 . S
C1856 C1857 1.349 . S
C1856 C1858 1.327 . S
C1856 H1881 0.950 . S
C1857 C1856 1.349 . S
C1857 C1873 1.349 . S
C1858 C1856 1.327 . S
C1858 C1877 1.429 . S
C1858 H1882 0.950 . S
C1859 C1876 1.574 . S
C1859 C1878 1.368 . S
C1859 H1883 0.949 . S
H1860 C1864 0.949 . S
C1861 C1862 1.349 . S
C1861 C1863 1.327 . S
C1861 H1884 0.950 . S
C1862 C1861 1.349 . S
C1862 C1874 1.349 . S
C1863 C1861 1.327 . S
C1863 C1879 1.429 . S
C1863 H1885 0.950 . S
C1864 H1860 0.949 . S
C1864 C1872 1.574 . S
C1864 C1880 1.368 . S
H1865 C1873 0.950 . S
H1866 C1871 0.950 . S
H1867 C1872 0.949 . S
H1868 C1874 0.950 . S
H1869 C1875 0.950 . S
H1870 C1876 0.949 . S
C1871 H1866 0.950 . S
C1871 C1873 1.327 . S
C1871 C1877 1.429 . S
C1872 C1864 1.574 . S
C1872 H1867 0.949 . S
C1872 C1878 1.368 . S
C1873 C1857 1.349 . S
C1873 H1865 0.950 . S
C1873 C1871 1.327 . S
C1874 C1862 1.349 . S
C1874 H1868 0.950 . S
C1874 C1875 1.327 . S
C1875 H1869 0.950 . S
C1875 C1874 1.327 . S
C1875 C1879 1.429 . S
C1876 C1859 1.574 . S
C1876 H1870 0.949 . S
C1876 C1880 1.368 . S
C1877 C1858 1.429 . S
C1877 C1871 1.429 . S
C1877 C1878 1.523 . S
C1878 C1859 1.368 . S
C1878 C1872 1.368 . S
C1878 C1877 1.523 . S
C1879 C1863 1.429 . S
C1879 C1875 1.429 . S
C1879 C1880 1.523 . S
C1880 C1864 1.368 . S
C1880 C1876 1.368 . S
C1880 C1879 1.523 . S
H1881 C1856 0.950 . S
H1882 C1858 0.950 . S
H1883 C1859 0.949 . S
H1884 C1861 0.950 . S
H1885 C1863 0.950 . S
C1886 C1887 1.349 . S
C1886 C1888 1.327 . S
C1886 H1911 0.950 . S
C1887 C1886 1.349 . S
C1887 C1903 1.349 . S
C1888 C1886 1.327 . S
C1888 C1907 1.429 . S
C1888 H1912 0.950 . S
C1889 C1906 1.574 . S
C1889 C1908 1.368 . S
C1889 H1913 0.949 . S
H1890 C1894 0.949 . S
C1891 C1892 1.349 . S
C1891 C1893 1.327 . S
C1891 H1914 0.950 . S
C1892 C1891 1.349 . S
C1892 C1904 1.349 . S
C1893 C1891 1.327 . S
C1893 C1909 1.429 . S
C1893 H1915 0.950 . S
C1894 H1890 0.949 . S
C1894 C1902 1.574 . S
C1894 C1910 1.368 . S
H1895 C1903 0.950 . S
H1896 C1901 0.950 . S
H1897 C1902 0.949 . S
H1898 C1904 0.950 . S
H1899 C1905 0.950 . S
H1900 C1906 0.949 . S
C1901 H1896 0.950 . S
C1901 C1903 1.327 . S
C1901 C1907 1.429 . S
C1902 C1894 1.574 . S
C1902 H1897 0.949 . S
C1902 C1908 1.368 . S
C1903 C1887 1.349 . S
C1903 H1895 0.950 . S
C1903 C1901 1.327 . S
C1904 C1892 1.349 . S
C1904 H1898 0.950 . S
C1904 C1905 1.327 . S
C1905 H1899 0.950 . S
C1905 C1904 1.327 . S
C1905 C1909 1.429 . S
C1906 C1889 1.574 . S
C1906 H1900 0.949 . S
C1906 C1910 1.368 . S
C1907 C1888 1.429 . S
C1907 C1901 1.429 . S
C1907 C1908 1.523 . S
C1908 C1889 1.368 . S
C1908 C1902 1.368 . S
C1908 C1907 1.523 . S
C1909 C1893 1.429 . S
C1909 C1905 1.429 . S
C1909 C1910 1.523 . S
C1910 C1894 1.368 . S
C1910 C1906 1.368 . S
C1910 C1909 1.523 . S
H1911 C1886 0.950 . S
H1912 C1888 0.950 . S
H1913 C1889 0.949 . S
H1914 C1891 0.950 . S
H1915 C1893 0.950 . S
C1916 C1917 1.349 . S
C1916 C1918 1.327 . S
C1916 H1941 0.950 . S
C1917 C1916 1.349 . S
C1917 C1933 1.349 . S
C1918 C1916 1.327 . S
C1918 C1937 1.429 . S
C1918 H1942 0.950 . S
C1919 C1936 1.574 . S
C1919 C1938 1.368 . S
C1919 H1943 0.949 . S
H1920 C1924 0.949 . S
C1921 C1922 1.349 . S
C1921 C1923 1.327 . S
C1921 H1944 0.950 . S
C1922 C1921 1.349 . S
C1922 C1934 1.349 . S
C1923 C1921 1.327 . S
C1923 C1939 1.429 . S
C1923 H1945 0.950 . S
C1924 H1920 0.949 . S
C1924 C1932 1.574 . S
C1924 C1940 1.368 . S
H1925 C1933 0.950 . S
H1926 C1931 0.950 . S
H1927 C1932 0.949 . S
H1928 C1934 0.950 . S
H1929 C1935 0.950 . S
H1930 C1936 0.949 . S
C1931 H1926 0.950 . S
C1931 C1933 1.327 . S
C1931 C1937 1.429 . S
C1932 C1924 1.574 . S
C1932 H1927 0.949 . S
C1932 C1938 1.368 . S
C1933 C1917 1.349 . S
C1933 H1925 0.950 . S
C1933 C1931 1.327 . S
C1934 C1922 1.349 . S
C1934 H1928 0.950 . S
C1934 C1935 1.327 . S
C1935 H1929 0.950 . S
C1935 C1934 1.327 . S
C1935 C1939 1.429 . S
C1936 C1919 1.574 . S
C1936 H1930 0.949 . S
C1936 C1940 1.368 . S
C1937 C1918 1.429 . S
C1937 C1931 1.429 . S
C1937 C1938 1.523 . S
C1938 C1919 1.368 . S
C1938 C1932 1.368 . S
C1938 C1937 1.523 . S
C1939 C1923 1.429 . S
C1939 C1935 1.429 . S
C1939 C1940 1.523 . S
C1940 C1924 1.368 . S
C1940 C1936 1.368 . S
C1940 C1939 1.523 . S
H1941 C1916 0.950 . S
H1942 C1918 0.950 . S
H1943 C1919 0.949 . S
H1944 C1921 0.950 . S
H1945 C1923 0.950 . S
C1946 C1947 1.349 . S
C1946 C1948 1.327 . S
C1946 H1971 0.950 . S
C1947 C1946 1.349 . S
C1947 C1963 1.349 . S
C1948 C1946 1.327 . S
C1948 C1967 1.429 . S
C1948 H1972 0.950 . S
C1949 C1966 1.574 . S
C1949 C1968 1.368 . S
C1949 H1973 0.949 . S
H1950 C1954 0.949 . S
C1951 C1952 1.349 . S
C1951 C1953 1.327 . S
C1951 H1974 0.950 . S
C1952 C1951 1.349 . S
C1952 C1964 1.349 . S
C1953 C1951 1.327 . S
C1953 C1969 1.429 . S
C1953 H1975 0.950 . S
C1954 H1950 0.949 . S
C1954 C1962 1.574 . S
C1954 C1970 1.368 . S
H1955 C1963 0.950 . S
H1956 C1961 0.950 . S
H1957 C1962 0.949 . S
H1958 C1964 0.950 . S
H1959 C1965 0.950 . S
H1960 C1966 0.949 . S
C1961 H1956 0.950 . S
C1961 C1963 1.327 . S
C1961 C1967 1.429 . S
C1962 C1954 1.574 . S
C1962 H1957 0.949 . S
C1962 C1968 1.368 . S
C1963 C1947 1.349 . S
C1963 H1955 0.950 . S
C1963 C1961 1.327 . S
C1964 C1952 1.349 . S
C1964 H1958 0.950 . S
C1964 C1965 1.327 . S
C1965 H1959 0.950 . S
C1965 C1964 1.327 . S
C1965 C1969 1.429 . S
C1966 C1949 1.574 . S
C1966 H1960 0.949 . S
C1966 C1970 1.368 . S
C1967 C1948 1.429 . S
C1967 C1961 1.429 . S
C1967 C1968 1.523 . S
C1968 C1949 1.368 . S
C1968 C1962 1.368 . S
C1968 C1967 1.523 . S
C1969 C1953 1.429 . S
C1969 C1965 1.429 . S
C1969 C1970 1.523 . S
C1970 C1954 1.368 . S
C1970 C1966 1.368 . S
C1970 C1969 1.523 . S
H1971 C1946 0.950 . S
H1972 C1948 0.950 . S
H1973 C1949 0.949 . S
H1974 C1951 0.950 . S
H1975 C1953 0.950 . S
C1976 C1977 1.349 . S
C1976 C1978 1.327 . S
C1976 H2001 0.950 . S
C1977 C1976 1.349 . S
C1977 C1993 1.349 . S
C1978 C1976 1.327 . S
C1978 C1997 1.429 . S
C1978 H2002 0.950 . S
C1979 C1996 1.574 . S
C1979 C1998 1.368 . S
C1979 H2003 0.949 . S
H1980 C1984 0.949 . S
C1981 C1982 1.349 . S
C1981 C1983 1.327 . S
C1981 H2004 0.950 . S
C1982 C1981 1.349 . S
C1982 C1994 1.349 . S
C1983 C1981 1.327 . S
C1983 C1999 1.429 . S
C1983 H2005 0.950 . S
C1984 H1980 0.949 . S
C1984 C1992 1.574 . S
C1984 C2000 1.368 . S
H1985 C1993 0.950 . S
H1986 C1991 0.950 . S
H1987 C1992 0.949 . S
H1988 C1994 0.950 . S
H1989 C1995 0.950 . S
H1990 C1996 0.949 . S
C1991 H1986 0.950 . S
C1991 C1993 1.327 . S
C1991 C1997 1.429 . S
C1992 C1984 1.574 . S
C1992 H1987 0.949 . S
C1992 C1998 1.368 . S
C1993 C1977 1.349 . S
C1993 H1985 0.950 . S
C1993 C1991 1.327 . S
C1994 C1982 1.349 . S
C1994 H1988 0.950 . S
C1994 C1995 1.327 . S
C1995 H1989 0.950 . S
C1995 C1994 1.327 . S
C1995 C1999 1.429 . S
C1996 C1979 1.574 . S
C1996 H1990 0.949 . S
C1996 C2000 1.368 . S
C1997 C1978 1.429 . S
C1997 C1991 1.429 . S
C1997 C1998 1.523 . S
C1998 C1979 1.368 . S
C1998 C1992 1.368 . S
C1998 C1997 1.523 . S
C1999 C1983 1.429 . S
C1999 C1995 1.429 . S
C1999 C2000 1.523 . S
C2000 C1984 1.368 . S
C2000 C1996 1.368 . S
C2000 C1999 1.523 . S
H2001 C1976 0.950 . S
H2002 C1978 0.950 . S
H2003 C1979 0.949 . S
H2004 C1981 0.950 . S
H2005 C1983 0.950 . S
C2006 C2007 1.349 . S
C2006 C2008 1.327 . S
C2006 H2031 0.950 . S
C2007 C2006 1.349 . S
C2007 C2023 1.349 . S
C2008 C2006 1.327 . S
C2008 C2027 1.429 . S
C2008 H2032 0.950 . S
C2009 C2026 1.574 . S
C2009 C2028 1.368 . S
C2009 H2033 0.949 . S
H2010 C2014 0.949 . S
C2011 C2012 1.349 . S
C2011 C2013 1.327 . S
C2011 H2034 0.950 . S
C2012 C2011 1.349 . S
C2012 C2024 1.349 . S
C2013 C2011 1.327 . S
C2013 C2029 1.429 . S
C2013 H2035 0.950 . S
C2014 H2010 0.949 . S
C2014 C2022 1.574 . S
C2014 C2030 1.368 . S
H2015 C2023 0.950 . S
H2016 C2021 0.950 . S
H2017 C2022 0.949 . S
H2018 C2024 0.950 . S
H2019 C2025 0.950 . S
H2020 C2026 0.949 . S
C2021 H2016 0.950 . S
C2021 C2023 1.327 . S
C2021 C2027 1.429 . S
C2022 C2014 1.574 . S
C2022 H2017 0.949 . S
C2022 C2028 1.368 . S
C2023 C2007 1.349 . S
C2023 H2015 0.950 . S
C2023 C2021 1.327 . S
C2024 C2012 1.349 . S
C2024 H2018 0.950 . S
C2024 C2025 1.327 . S
C2025 H2019 0.950 . S
C2025 C2024 1.327 . S
C2025 C2029 1.429 . S
C2026 C2009 1.574 . S
C2026 H2020 0.949 . S
C2026 C2030 1.368 . S
C2027 C2008 1.429 . S
C2027 C2021 1.429 . S
C2027 C2028 1.523 . S
C2028 C2009 1.368 . S
C2028 C2022 1.368 . S
C2028 C2027 1.523 . S
C2029 C2013 1.429 . S
C2029 C2025 1.429 . S
C2029 C2030 1.523 . S
C2030 C2014 1.368 . S
C2030 C2026 1.368 . S
C2030 C2029 1.523 . S
H2031 C2006 0.950 . S
H2032 C2008 0.950 . S
H2033 C2009 0.949 . S
H2034 C2011 0.950 . S
H2035 C2013 0.950 . S
C2036 C2037 1.349 . S
C2036 C2038 1.327 . S
C2036 H2061 0.950 . S
C2037 C2036 1.349 . S
C2037 C2053 1.349 . S
C2038 C2036 1.327 . S
C2038 C2057 1.429 . S
C2038 H2062 0.950 . S
C2039 C2056 1.574 . S
C2039 C2058 1.368 . S
C2039 H2063 0.949 . S
H2040 C2044 0.949 . S
C2041 C2042 1.349 . S
C2041 C2043 1.327 . S
C2041 H2064 0.950 . S
C2042 C2041 1.349 . S
C2042 C2054 1.349 . S
C2043 C2041 1.327 . S
C2043 C2059 1.429 . S
C2043 H2065 0.950 . S
C2044 H2040 0.949 . S
C2044 C2052 1.574 . S
C2044 C2060 1.368 . S
H2045 C2053 0.950 . S
H2046 C2051 0.950 . S
H2047 C2052 0.949 . S
H2048 C2054 0.950 . S
H2049 C2055 0.950 . S
H2050 C2056 0.949 . S
C2051 H2046 0.950 . S
C2051 C2053 1.327 . S
C2051 C2057 1.429 . S
C2052 C2044 1.574 . S
C2052 H2047 0.949 . S
C2052 C2058 1.368 . S
C2053 C2037 1.349 . S
C2053 H2045 0.950 . S
C2053 C2051 1.327 . S
C2054 C2042 1.349 . S
C2054 H2048 0.950 . S
C2054 C2055 1.327 . S
C2055 H2049 0.950 . S
C2055 C2054 1.327 . S
C2055 C2059 1.429 . S
C2056 C2039 1.574 . S
C2056 H2050 0.949 . S
C2056 C2060 1.368 . S
C2057 C2038 1.429 . S
C2057 C2051 1.429 . S
C2057 C2058 1.523 . S
C2058 C2039 1.368 . S
C2058 C2052 1.368 . S
C2058 C2057 1.523 . S
C2059 C2043 1.429 . S
C2059 C2055 1.429 . S
C2059 C2060 1.523 . S
C2060 C2044 1.368 . S
C2060 C2056 1.368 . S
C2060 C2059 1.523 . S
H2061 C2036 0.950 . S
H2062 C2038 0.950 . S
H2063 C2039 0.949 . S
H2064 C2041 0.950 . S
H2065 C2043 0.950 . S
C2066 C2067 1.349 . S
C2066 C2068 1.327 . S
C2066 H2091 0.950 . S
C2067 C2066 1.349 . S
C2067 C2083 1.349 . S
C2068 C2066 1.327 . S
C2068 C2087 1.429 . S
C2068 H2092 0.950 . S
C2069 C2086 1.574 . S
C2069 C2088 1.368 . S
C2069 H2093 0.949 . S
H2070 C2074 0.949 . S
C2071 C2072 1.349 . S
C2071 C2073 1.327 . S
C2071 H2094 0.950 . S
C2072 C2071 1.349 . S
C2072 C2084 1.349 . S
C2073 C2071 1.327 . S
C2073 C2089 1.429 . S
C2073 H2095 0.950 . S
C2074 H2070 0.949 . S
C2074 C2082 1.574 . S
C2074 C2090 1.368 . S
H2075 C2083 0.950 . S
H2076 C2081 0.950 . S
H2077 C2082 0.949 . S
H2078 C2084 0.950 . S
H2079 C2085 0.950 . S
H2080 C2086 0.949 . S
C2081 H2076 0.950 . S
C2081 C2083 1.327 . S
C2081 C2087 1.429 . S
C2082 C2074 1.574 . S
C2082 H2077 0.949 . S
C2082 C2088 1.368 . S
C2083 C2067 1.349 . S
C2083 H2075 0.950 . S
C2083 C2081 1.327 . S
C2084 C2072 1.349 . S
C2084 H2078 0.950 . S
C2084 C2085 1.327 . S
C2085 H2079 0.950 . S
C2085 C2084 1.327 . S
C2085 C2089 1.429 . S
C2086 C2069 1.574 . S
C2086 H2080 0.949 . S
C2086 C2090 1.368 . S
C2087 C2068 1.429 . S
C2087 C2081 1.429 . S
C2087 C2088 1.523 . S
C2088 C2069 1.368 . S
C2088 C2082 1.368 . S
C2088 C2087 1.523 . S
C2089 C2073 1.429 . S
C2089 C2085 1.429 . S
C2089 C2090 1.523 . S
C2090 C2074 1.368 . S
C2090 C2086 1.368 . S
C2090 C2089 1.523 . S
H2091 C2066 0.950 . S
H2092 C2068 0.950 . S
H2093 C2069 0.949 . S
H2094 C2071 0.950 . S
H2095 C2073 0.950 . S
C2096 C2097 1.349 . S
C2096 C2098 1.327 . S
C2096 H2121 0.950 . S
C2097 C2096 1.349 . S
C2097 C2113 1.349 . S
C2098 C2096 1.327 . S
C2098 C2117 1.429 . S
C2098 H2122 0.950 . S
C2099 C2116 1.574 . S
C2099 C2118 1.368 . S
C2099 H2123 0.949 . S
H2100 C2104 0.949 . S
C2101 C2102 1.349 . S
C2101 C2103 1.327 . S
C2101 H2124 0.950 . S
C2102 C2101 1.349 . S
C2102 C2114 1.349 . S
C2103 C2101 1.327 . S
C2103 C2119 1.429 . S
C2103 H2125 0.950 . S
C2104 H2100 0.949 . S
C2104 C2112 1.574 . S
C2104 C2120 1.368 . S
H2105 C2113 0.950 . S
H2106 C2111 0.950 . S
H2107 C2112 0.949 . S
H2108 C2114 0.950 . S
H2109 C2115 0.950 . S
H2110 C2116 0.949 . S
C2111 H2106 0.950 . S
C2111 C2113 1.327 . S
C2111 C2117 1.429 . S
C2112 C2104 1.574 . S
C2112 H2107 0.949 . S
C2112 C2118 1.368 . S
C2113 C2097 1.349 . S
C2113 H2105 0.950 . S
C2113 C2111 1.327 . S
C2114 C2102 1.349 . S
C2114 H2108 0.950 . S
C2114 C2115 1.327 . S
C2115 H2109 0.950 . S
C2115 C2114 1.327 . S
C2115 C2119 1.429 . S
C2116 C2099 1.574 . S
C2116 H2110 0.949 . S
C2116 C2120 1.368 . S
C2117 C2098 1.429 . S
C2117 C2111 1.429 . S
C2117 C2118 1.523 . S
C2118 C2099 1.368 . S
C2118 C2112 1.368 . S
C2118 C2117 1.523 . S
C2119 C2103 1.429 . S
C2119 C2115 1.429 . S
C2119 C2120 1.523 . S
C2120 C2104 1.368 . S
C2120 C2116 1.368 . S
C2120 C2119 1.523 . S
H2121 C2096 0.950 . S
H2122 C2098 0.950 . S
H2123 C2099 0.949 . S
H2124 C2101 0.950 . S
H2125 C2103 0.950 . S
C2126 C2127 1.349 . S
C2126 C2128 1.327 . S
C2126 H2151 0.950 . S
C2127 C2126 1.349 . S
C2127 C2143 1.349 . S
C2128 C2126 1.327 . S
C2128 C2147 1.429 . S
C2128 H2152 0.950 . S
C2129 C2146 1.574 . S
C2129 C2148 1.368 . S
C2129 H2153 0.949 . S
H2130 C2134 0.949 . S
C2131 C2132 1.349 . S
C2131 C2133 1.327 . S
C2131 H2154 0.950 . S
C2132 C2131 1.349 . S
C2132 C2144 1.349 . S
C2133 C2131 1.327 . S
C2133 C2149 1.429 . S
C2133 H2155 0.950 . S
C2134 H2130 0.949 . S
C2134 C2142 1.574 . S
C2134 C2150 1.368 . S
H2135 C2143 0.950 . S
H2136 C2141 0.950 . S
H2137 C2142 0.949 . S
H2138 C2144 0.950 . S
H2139 C2145 0.950 . S
H2140 C2146 0.949 . S
C2141 H2136 0.950 . S
C2141 C2143 1.327 . S
C2141 C2147 1.429 . S
C2142 C2134 1.574 . S
C2142 H2137 0.949 . S
C2142 C2148 1.368 . S
C2143 C2127 1.349 . S
C2143 H2135 0.950 . S
C2143 C2141 1.327 . S
C2144 C2132 1.349 . S
C2144 H2138 0.950 . S
C2144 C2145 1.327 . S
C2145 H2139 0.950 . S
C2145 C2144 1.327 . S
C2145 C2149 1.429 . S
C2146 C2129 1.574 . S
C2146 H2140 0.949 . S
C2146 C2150 1.368 . S
C2147 C2128 1.429 . S
C2147 C2141 1.429 . S
C2147 C2148 1.523 . S
C2148 C2129 1.368 . S
C2148 C2142 1.368 . S
C2148 C2147 1.523 . S
C2149 C2133 1.429 . S
C2149 C2145 1.429 . S
C2149 C2150 1.523 . S
C2150 C2134 1.368 . S
C2150 C2146 1.368 . S
C2150 C2149 1.523 . S
H2151 C2126 0.950 . S
H2152 C2128 0.950 . S
H2153 C2129 0.949 . S
H2154 C2131 0.950 . S
H2155 C2133 0.950 . S
C2156 C2157 1.349 . S
C2156 C2158 1.327 . S
C2156 H2181 0.950 . S
C2157 C2156 1.349 . S
C2157 C2173 1.349 . S
C2158 C2156 1.327 . S
C2158 C2177 1.429 . S
C2158 H2182 0.950 . S
C2159 C2176 1.574 . S
C2159 C2178 1.368 . S
C2159 H2183 0.949 . S
H2160 C2164 0.949 . S
C2161 C2162 1.349 . S
C2161 C2163 1.327 . S
C2161 H2184 0.950 . S
C2162 C2161 1.349 . S
C2162 C2174 1.349 . S
C2163 C2161 1.327 . S
C2163 C2179 1.429 . S
C2163 H2185 0.950 . S
C2164 H2160 0.949 . S
C2164 C2172 1.574 . S
C2164 C2180 1.368 . S
H2165 C2173 0.950 . S
H2166 C2171 0.950 . S
H2167 C2172 0.949 . S
H2168 C2174 0.950 . S
H2169 C2175 0.950 . S
H2170 C2176 0.949 . S
C2171 H2166 0.950 . S
C2171 C2173 1.327 . S
C2171 C2177 1.429 . S
C2172 C2164 1.574 . S
C2172 H2167 0.949 . S
C2172 C2178 1.368 . S
C2173 C2157 1.349 . S
C2173 H2165 0.950 . S
C2173 C2171 1.327 . S
C2174 C2162 1.349 . S
C2174 H2168 0.950 . S
C2174 C2175 1.327 . S
C2175 H2169 0.950 . S
C2175 C2174 1.327 . S
C2175 C2179 1.429 . S
C2176 C2159 1.574 . S
C2176 H2170 0.949 . S
C2176 C2180 1.368 . S
C2177 C2158 1.429 . S
C2177 C2171 1.429 . S
C2177 C2178 1.523 . S
C2178 C2159 1.368 . S
C2178 C2172 1.368 . S
C2178 C2177 1.523 . S
C2179 C2163 1.429 . S
C2179 C2175 1.429 . S
C2179 C2180 1.523 . S
C2180 C2164 1.368 . S
C2180 C2176 1.368 . S
C2180 C2179 1.523 . S
H2181 C2156 0.950 . S
H2182 C2158 0.950 . S
H2183 C2159 0.949 . S
H2184 C2161 0.950 . S
H2185 C2163 0.950 . S
C2186 C2187 1.349 . S
C2186 C2188 1.327 . S
C2186 H2211 0.950 . S
C2187 C2186 1.349 . S
C2187 C2203 1.349 . S
C2188 C2186 1.327 . S
C2188 C2207 1.429 . S
C2188 H2212 0.950 . S
C2189 C2206 1.574 . S
C2189 C2208 1.368 . S
C2189 H2213 0.949 . S
H2190 C2194 0.949 . S
C2191 C2192 1.349 . S
C2191 C2193 1.327 . S
C2191 H2214 0.950 . S
C2192 C2191 1.349 . S
C2192 C2204 1.349 . S
C2193 C2191 1.327 . S
C2193 C2209 1.429 . S
C2193 H2215 0.950 . S
C2194 H2190 0.949 . S
C2194 C2202 1.574 . S
C2194 C2210 1.368 . S
H2195 C2203 0.950 . S
H2196 C2201 0.950 . S
H2197 C2202 0.949 . S
H2198 C2204 0.950 . S
H2199 C2205 0.950 . S
H2200 C2206 0.949 . S
C2201 H2196 0.950 . S
C2201 C2203 1.327 . S
C2201 C2207 1.429 . S
C2202 C2194 1.574 . S
C2202 H2197 0.949 . S
C2202 C2208 1.368 . S
C2203 C2187 1.349 . S
C2203 H2195 0.950 . S
C2203 C2201 1.327 . S
C2204 C2192 1.349 . S
C2204 H2198 0.950 . S
C2204 C2205 1.327 . S
C2205 H2199 0.950 . S
C2205 C2204 1.327 . S
C2205 C2209 1.429 . S
C2206 C2189 1.574 . S
C2206 H2200 0.949 . S
C2206 C2210 1.368 . S
C2207 C2188 1.429 . S
C2207 C2201 1.429 . S
C2207 C2208 1.523 . S
C2208 C2189 1.368 . S
C2208 C2202 1.368 . S
C2208 C2207 1.523 . S
C2209 C2193 1.429 . S
C2209 C2205 1.429 . S
C2209 C2210 1.523 . S
C2210 C2194 1.368 . S
C2210 C2206 1.368 . S
C2210 C2209 1.523 . S
H2211 C2186 0.950 . S
H2212 C2188 0.950 . S
H2213 C2189 0.949 . S
H2214 C2191 0.950 . S
H2215 C2193 0.950 . S
C2216 C2217 1.349 . S
C2216 C2218 1.327 . S
C2216 H2241 0.950 . S
C2217 C2216 1.349 . S
C2217 C2233 1.349 . S
C2218 C2216 1.327 . S
C2218 C2237 1.429 . S
C2218 H2242 0.950 . S
C2219 C2236 1.574 . S
C2219 C2238 1.368 . S
C2219 H2243 0.949 . S
H2220 C2224 0.949 . S
C2221 C2222 1.349 . S
C2221 C2223 1.327 . S
C2221 H2244 0.950 . S
C2222 C2221 1.349 . S
C2222 C2234 1.349 . S
C2223 C2221 1.327 . S
C2223 C2239 1.429 . S
C2223 H2245 0.950 . S
C2224 H2220 0.949 . S
C2224 C2232 1.574 . S
C2224 C2240 1.368 . S
H2225 C2233 0.950 . S
H2226 C2231 0.950 . S
H2227 C2232 0.949 . S
H2228 C2234 0.950 . S
H2229 C2235 0.950 . S
H2230 C2236 0.949 . S
C2231 H2226 0.950 . S
C2231 C2233 1.327 . S
C2231 C2237 1.429 . S
C2232 C2224 1.574 . S
C2232 H2227 0.949 . S
C2232 C2238 1.368 . S
C2233 C2217 1.349 . S
C2233 H2225 0.950 . S
C2233 C2231 1.327 . S
C2234 C2222 1.349 . S
C2234 H2228 0.950 . S
C2234 C2235 1.327 . S
C2235 H2229 0.950 . S
C2235 C2234 1.327 . S
C2235 C2239 1.429 . S
C2236 C2219 1.574 . S
C2236 H2230 0.949 . S
C2236 C2240 1.368 . S
C2237 C2218 1.429 . S
C2237 C2231 1.429 . S
C2237 C2238 1.523 . S
C2238 C2219 1.368 . S
C2238 C2232 1.368 . S
C2238 C2237 1.523 . S
C2239 C2223 1.429 . S
C2239 C2235 1.429 . S
C2239 C2240 1.523 . S
C2240 C2224 1.368 . S
C2240 C2236 1.368 . S
C2240 C2239 1.523 . S
H2241 C2216 0.950 . S
H2242 C2218 0.950 . S
H2243 C2219 0.949 . S
H2244 C2221 0.950 . S
H2245 C2223 0.950 . S
C2246 C2247 1.349 . S
C2246 C2248 1.327 . S
C2246 H2271 0.950 . S
C2247 C2246 1.349 . S
C2247 C2263 1.349 . S
C2248 C2246 1.327 . S
C2248 C2267 1.429 . S
C2248 H2272 0.950 . S
C2249 C2266 1.574 . S
C2249 C2268 1.368 . S
C2249 H2273 0.949 . S
H2250 C2254 0.949 . S
C2251 C2252 1.349 . S
C2251 C2253 1.327 . S
C2251 H2274 0.950 . S
C2252 C2251 1.349 . S
C2252 C2264 1.349 . S
C2253 C2251 1.327 . S
C2253 C2269 1.429 . S
C2253 H2275 0.950 . S
C2254 H2250 0.949 . S
C2254 C2262 1.574 . S
C2254 C2270 1.368 . S
H2255 C2263 0.950 . S
H2256 C2261 0.950 . S
H2257 C2262 0.949 . S
H2258 C2264 0.950 . S
H2259 C2265 0.950 . S
H2260 C2266 0.949 . S
C2261 H2256 0.950 . S
C2261 C2263 1.327 . S
C2261 C2267 1.429 . S
C2262 C2254 1.574 . S
C2262 H2257 0.949 . S
C2262 C2268 1.368 . S
C2263 C2247 1.349 . S
C2263 H2255 0.950 . S
C2263 C2261 1.327 . S
C2264 C2252 1.349 . S
C2264 H2258 0.950 . S
C2264 C2265 1.327 . S
C2265 H2259 0.950 . S
C2265 C2264 1.327 . S
C2265 C2269 1.429 . S
C2266 C2249 1.574 . S
C2266 H2260 0.949 . S
C2266 C2270 1.368 . S
C2267 C2248 1.429 . S
C2267 C2261 1.429 . S
C2267 C2268 1.523 . S
C2268 C2249 1.368 . S
C2268 C2262 1.368 . S
C2268 C2267 1.523 . S
C2269 C2253 1.429 . S
C2269 C2265 1.429 . S
C2269 C2270 1.523 . S
C2270 C2254 1.368 . S
C2270 C2266 1.368 . S
C2270 C2269 1.523 . S
H2271 C2246 0.950 . S
H2272 C2248 0.950 . S
H2273 C2249 0.949 . S
H2274 C2251 0.950 . S
H2275 C2253 0.950 . S
C2276 C2277 1.349 . S
C2276 C2278 1.327 . S
C2276 H2301 0.950 . S
C2277 C2276 1.349 . S
C2277 C2293 1.349 . S
C2278 C2276 1.327 . S
C2278 C2297 1.429 . S
C2278 H2302 0.950 . S
C2279 C2296 1.574 . S
C2279 C2298 1.368 . S
C2279 H2303 0.949 . S
H2280 C2284 0.949 . S
C2281 C2282 1.349 . S
C2281 C2283 1.327 . S
C2281 H2304 0.950 . S
C2282 C2281 1.349 . S
C2282 C2294 1.349 . S
C2283 C2281 1.327 . S
C2283 C2299 1.429 . S
C2283 H2305 0.950 . S
C2284 H2280 0.949 . S
C2284 C2292 1.574 . S
C2284 C2300 1.368 . S
H2285 C2293 0.950 . S
H2286 C2291 0.950 . S
H2287 C2292 0.949 . S
H2288 C2294 0.950 . S
H2289 C2295 0.950 . S
H2290 C2296 0.949 . S
C2291 H2286 0.950 . S
C2291 C2293 1.327 . S
C2291 C2297 1.429 . S
C2292 C2284 1.574 . S
C2292 H2287 0.949 . S
C2292 C2298 1.368 . S
C2293 C2277 1.349 . S
C2293 H2285 0.950 . S
C2293 C2291 1.327 . S
C2294 C2282 1.349 . S
C2294 H2288 0.950 . S
C2294 C2295 1.327 . S
C2295 H2289 0.950 . S
C2295 C2294 1.327 . S
C2295 C2299 1.429 . S
C2296 C2279 1.574 . S
C2296 H2290 0.949 . S
C2296 C2300 1.368 . S
C2297 C2278 1.429 . S
C2297 C2291 1.429 . S
C2297 C2298 1.523 . S
C2298 C2279 1.368 . S
C2298 C2292 1.368 . S
C2298 C2297 1.523 . S
C2299 C2283 1.429 . S
C2299 C2295 1.429 . S
C2299 C2300 1.523 . S
C2300 C2284 1.368 . S
C2300 C2296 1.368 . S
C2300 C2299 1.523 . S
H2301 C2276 0.950 . S
H2302 C2278 0.950 . S
H2303 C2279 0.949 . S
H2304 C2281 0.950 . S
H2305 C2283 0.950 . S
C2306 C2307 1.349 . S
C2306 C2308 1.327 . S
C2306 H2331 0.950 . S
C2307 C2306 1.349 . S
C2307 C2323 1.349 . S
C2308 C2306 1.327 . S
C2308 C2327 1.429 . S
C2308 H2332 0.950 . S
C2309 C2326 1.574 . S
C2309 C2328 1.368 . S
C2309 H2333 0.949 . S
H2310 C2314 0.949 . S
C2311 C2312 1.349 . S
C2311 C2313 1.327 . S
C2311 H2334 0.950 . S
C2312 C2311 1.349 . S
C2312 C2324 1.349 . S
C2313 C2311 1.327 . S
C2313 C2329 1.429 . S
C2313 H2335 0.950 . S
C2314 H2310 0.949 . S
C2314 C2322 1.574 . S
C2314 C2330 1.368 . S
H2315 C2323 0.950 . S
H2316 C2321 0.950 . S
H2317 C2322 0.949 . S
H2318 C2324 0.950 . S
H2319 C2325 0.950 . S
H2320 C2326 0.949 . S
C2321 H2316 0.950 . S
C2321 C2323 1.327 . S
C2321 C2327 1.429 . S
C2322 C2314 1.574 . S
C2322 H2317 0.949 . S
C2322 C2328 1.368 . S
C2323 C2307 1.349 . S
C2323 H2315 0.950 . S
C2323 C2321 1.327 . S
C2324 C2312 1.349 . S
C2324 H2318 0.950 . S
C2324 C2325 1.327 . S
C2325 H2319 0.950 . S
C2325 C2324 1.327 . S
C2325 C2329 1.429 . S
C2326 C2309 1.574 . S
C2326 H2320 0.949 . S
C2326 C2330 1.368 . S
C2327 C2308 1.429 . S
C2327 C2321 1.429 . S
C2327 C2328 1.523 . S
C2328 C2309 1.368 . S
C2328 C2322 1.368 . S
C2328 C2327 1.523 . S
C2329 C2313 1.429 . S
C2329 C2325 1.429 . S
C2329 C2330 1.523 . S
C2330 C2314 1.368 . S
C2330 C2326 1.368 . S
C2330 C2329 1.523 . S
H2331 C2306 0.950 . S
H2332 C2308 0.950 . S
H2333 C2309 0.949 . S
H2334 C2311 0.950 . S
H2335 C2313 0.950 . S
C417 C382 1.724 . S
C422 C5 1.724 . S
C447 C18 1.724 . S
C452 C395 1.724 . S
C477 C408 1.724 . S
C482 C29 1.724 . S
C507 C367 1.724 . S
C512 C44 1.724 . S
C537 C57 1.724 . S
C542 C356 1.724 . S
C567 C317 1.724 . S
C572 C68 1.724 . S
C597 C83 1.724 . S
C602 C328 1.724 . S
C627 C343 1.724 . S
C632 C96 1.724 . S
C657 C109 1.724 . S
C662 C278 1.724 . S
C687 C120 1.724 . S
C692 C289 1.724 . S
C717 C304 1.724 . S
C722 C135 1.724 . S
C747 C148 1.724 . S
C752 C265 1.724 . S
C777 C250 1.724 . S
C782 C161 1.724 . S
C807 C213 1.724 . S
C812 C172 1.724 . S
C837 C187 1.724 . S
C842 C226 1.724 . S
C867 C200 1.724 . S
C872 C237 1.724 . S
C897 C3 1.318 . S
C902 C133 1.318 . S
C927 C146 1.318 . S
C932 C16 1.318 . S
C957 C107 1.318 . S
C962 C31 1.318 . S
C987 C122 1.318 . S
C992 C42 1.318 . S
C1017 C55 1.318 . S
C1022 C185 1.318 . S
C1047 C198 1.318 . S
C1052 C70 1.318 . S
C1077 C159 1.318 . S
C1082 C81 1.318 . S
C1107 C174 1.318 . S
C1112 C94 1.318 . S
C1137 C211 1.318 . S
C1142 C341 1.318 . S
C1167 C354 1.318 . S
C1172 C224 1.318 . S
C1197 C315 1.318 . S
C1202 C239 1.318 . S
C1227 C252 1.318 . S
C1232 C330 1.318 . S
C1257 C263 1.318 . S
C1262 C393 1.318 . S
C1287 C406 1.318 . S
C1292 C276 1.318 . S
C1317 C369 1.318 . S
C1322 C291 1.318 . S
C1347 C302 1.318 . S
C1352 C380 1.318 . S
C1377 C4 1.682 . S
C1382 C56 1.682 . S
C1407 C17 1.682 . S
C1412 C75 1.682 . S
C1437 C82 1.682 . S
C1442 C36 1.682 . S
C1467 C43 1.682 . S
C1472 C95 1.682 . S
C1497 C108 1.682 . S
C1502 C160 1.682 . S
C1527 C179 1.682 . S
C1532 C127 1.682 . S
C1557 C186 1.682 . S
C1562 C134 1.682 . S
C1587 C147 1.682 . S
C1592 C199 1.682 . S
C1617 C212 1.682 . S
C1622 C264 1.682 . S
C1647 C277 1.682 . S
C1652 C225 1.682 . S
C1677 C244 1.682 . S
C1682 C296 1.682 . S
C1707 C303 1.682 . S
C1712 C257 1.682 . S
C1737 C374 1.682 . S
C1742 C316 1.682 . S
C1767 C335 1.682 . S
C1772 C381 1.682 . S
C1797 C342 1.682 . S
C1802 C394 1.682 . S
C1827 C355 1.682 . S
C1832 C407 1.682 . S
C1857 C10 1.369 . S
C1862 C69 1.369 . S
C1887 C23 1.369 . S
C1892 C88 1.369 . S
C1917 C101 1.369 . S
C1922 C30 1.369 . S
C1947 C62 1.369 . S
C1952 C49 1.369 . S
C1977 C173 1.369 . S
C1982 C114 1.369 . S
C2007 C192 1.369 . S
C2012 C121 1.369 . S
C2037 C205 1.369 . S
C2042 C140 1.369 . S
C2067 C153 1.369 . S
C2072 C166 1.369 . S
C2097 C218 1.369 . S
C2102 C283 1.369 . S
C2127 C290 1.369 . S
C2132 C231 1.369 . S
C2157 C309 1.369 . S
C2162 C238 1.369 . S
C2187 C251 1.369 . S
C2192 C270 1.369 . S
C2217 C387 1.369 . S
C2222 C322 1.369 . S
C2247 C329 1.369 . S
C2252 C400 1.369 . S
C2277 C348 1.369 . S
C2282 C413 1.369 . S
C2307 C368 1.369 . S
C2312 C361 1.369 . S
