# Generated by pormake.
# Topology tzs, (4)-cn, num edge types: 1
# Building blocks:
#     Node 0, Type 0, BuildingBlock: GALJAG_clean_sbu_0, # of connection points: 4
#     Node 1, Type 0, BuildingBlock: GALJAG_clean_sbu_0, # of connection points: 4
#     Node 2, Type 0, BuildingBlock: GALJAG_clean_sbu_0, # of connection points: 4
#     Node 3, Type 0, BuildingBlock: GALJAG_clean_sbu_0, # of connection points: 4
#     Node 4, Type 0, BuildingBlock: GALJAG_clean_sbu_0, # of connection points: 4
#     Node 5, Type 0, BuildingBlock: GALJAG_clean_sbu_0, # of connection points: 4
#     Node 6, Type 0, BuildingBlock: GALJAG_clean_sbu_0, # of connection points: 4
#     Node 7, Type 0, BuildingBlock: GALJAG_clean_sbu_0, # of connection points: 4
#     Node 8, Type 0, BuildingBlock: GALJAG_clean_sbu_0, # of connection points: 4
#     Node 9, Type 0, BuildingBlock: GALJAG_clean_sbu_0, # of connection points: 4
#     Node 10, Type 0, BuildingBlock: GALJAG_clean_sbu_0, # of connection points: 4
#     Node 11, Type 0, BuildingBlock: GALJAG_clean_sbu_0, # of connection points: 4
#     Node 12, Type 0, BuildingBlock: GALJAG_clean_sbu_0, # of connection points: 4
#     Node 13, Type 0, BuildingBlock: GALJAG_clean_sbu_0, # of connection points: 4
#     Node 14, Type 0, BuildingBlock: GALJAG_clean_sbu_0, # of connection points: 4
#     Node 15, Type 0, BuildingBlock: GALJAG_clean_sbu_0, # of connection points: 4
#     Edge 16, Type (0, 0), BuildingBlock: AJUNOK_clean_linker_0, # of connection points: 2
#     Edge 17, Type (0, 0), BuildingBlock: AJUNOK_clean_linker_0, # of connection points: 2
#     Edge 18, Type (0, 0), BuildingBlock: AJUNOK_clean_linker_0, # of connection points: 2
#     Edge 19, Type (0, 0), BuildingBlock: AJUNOK_clean_linker_0, # of connection points: 2
#     Edge 20, Type (0, 0), BuildingBlock: AJUNOK_clean_linker_0, # of connection points: 2
#     Edge 21, Type (0, 0), BuildingBlock: AJUNOK_clean_linker_0, # of connection points: 2
#     Edge 22, Type (0, 0), BuildingBlock: AJUNOK_clean_linker_0, # of connection points: 2
#     Edge 23, Type (0, 0), BuildingBlock: AJUNOK_clean_linker_0, # of connection points: 2
#     Edge 24, Type (0, 0), BuildingBlock: AJUNOK_clean_linker_0, # of connection points: 2
#     Edge 25, Type (0, 0), BuildingBlock: AJUNOK_clean_linker_0, # of connection points: 2
#     Edge 26, Type (0, 0), BuildingBlock: AJUNOK_clean_linker_0, # of connection points: 2
#     Edge 27, Type (0, 0), BuildingBlock: AJUNOK_clean_linker_0, # of connection points: 2
#     Edge 28, Type (0, 0), BuildingBlock: AJUNOK_clean_linker_0, # of connection points: 2
#     Edge 29, Type (0, 0), BuildingBlock: AJUNOK_clean_linker_0, # of connection points: 2
#     Edge 30, Type (0, 0), BuildingBlock: AJUNOK_clean_linker_0, # of connection points: 2
#     Edge 31, Type (0, 0), BuildingBlock: AJUNOK_clean_linker_0, # of connection points: 2
#     Edge 32, Type (0, 0), BuildingBlock: AJUNOK_clean_linker_0, # of connection points: 2
#     Edge 33, Type (0, 0), BuildingBlock: AJUNOK_clean_linker_0, # of connection points: 2
#     Edge 34, Type (0, 0), BuildingBlock: AJUNOK_clean_linker_0, # of connection points: 2
#     Edge 35, Type (0, 0), BuildingBlock: AJUNOK_clean_linker_0, # of connection points: 2
#     Edge 36, Type (0, 0), BuildingBlock: AJUNOK_clean_linker_0, # of connection points: 2
#     Edge 37, Type (0, 0), BuildingBlock: AJUNOK_clean_linker_0, # of connection points: 2
#     Edge 38, Type (0, 0), BuildingBlock: AJUNOK_clean_linker_0, # of connection points: 2
#     Edge 39, Type (0, 0), BuildingBlock: AJUNOK_clean_linker_0, # of connection points: 2
#     Edge 40, Type (0, 0), BuildingBlock: AJUNOK_clean_linker_0, # of connection points: 2
#     Edge 41, Type (0, 0), BuildingBlock: AJUNOK_clean_linker_0, # of connection points: 2
#     Edge 42, Type (0, 0), BuildingBlock: AJUNOK_clean_linker_0, # of connection points: 2
#     Edge 43, Type (0, 0), BuildingBlock: AJUNOK_clean_linker_0, # of connection points: 2
#     Edge 44, Type (0, 0), BuildingBlock: AJUNOK_clean_linker_0, # of connection points: 2
#     Edge 45, Type (0, 0), BuildingBlock: AJUNOK_clean_linker_0, # of connection points: 2
#     Edge 46, Type (0, 0), BuildingBlock: AJUNOK_clean_linker_0, # of connection points: 2
#     Edge 47, Type (0, 0), BuildingBlock: AJUNOK_clean_linker_0, # of connection points: 2
# Relax obj value: 0.153
# Max RMSD: 0.154
# Mean RMSD: 0.154
data_MOF--net-tzs--node1-GALJAG_clean_sbu_0--edge1-AJUNOK_clean_linker_0
_symmetry_space_group_name_H-M    P1
_symmetry_Int_Tables_number       1
_symmetry_cell_setting            triclinic
loop_
_symmetry_equiv_pos_as_xyz
'x, y, z'
_cell_length_a     36.079727
_cell_length_b     36.075765
_cell_length_c     29.792827
_cell_angle_alpha  90.060708
_cell_angle_beta   89.99007
_cell_angle_gamma 90.000814
loop_
_atom_site_label
_atom_site_type_symbol
_atom_site_fract_x
_atom_site_fract_y
_atom_site_fract_z
_atom_type_partial_charge
In0 In 0.1482 0.35806 0.18963 0.0
O1 O 0.19602 0.33865 0.23406 0.0
O2 O 0.17125 0.29911 0.19084 0.0
C3 C 0.15323 0.43034 0.21409 0.0
C4 C 0.1519 0.36078 0.0988 0.0
C5 C 0.08415 0.33595 0.22795 0.0
O6 O 0.18155 0.41097 0.20598 0.0
O7 O 0.12303 0.41353 0.20878 0.0
O8 O 0.0904 0.33293 0.18642 0.0
O9 O 0.11103 0.34848 0.25047 0.0
C10 C 0.1958 0.30571 0.21986 0.0
O11 O 0.12184 0.35935 0.12019 0.0
O12 O 0.18038 0.36149 0.12326 0.0
In13 In 0.64805 0.14923 0.19023 0.0
O14 O 0.67212 0.13294 0.12192 0.0
O15 O 0.63025 0.17415 0.12346 0.0
C16 C 0.65434 0.07701 0.21297 0.0
C17 C 0.70036 0.19766 0.21991 0.0
C18 C 0.57961 0.16091 0.22477 0.0
O19 O 0.63931 0.08753 0.17692 0.0
O20 O 0.66631 0.10296 0.23744 0.0
O21 O 0.58796 0.16856 0.18477 0.0
O22 O 0.60595 0.14787 0.24765 0.0
C23 C 0.65184 0.1548 0.09981 0.0
O24 O 0.6664 0.20556 0.21856 0.0
O25 O 0.70785 0.16552 0.20622 0.0
In26 In 0.85426 0.64432 0.18548 0.0
O27 O 0.86849 0.66887 0.11712 0.0
O28 O 0.8251 0.62934 0.11978 0.0
C29 C 0.9234 0.65612 0.21775 0.0
C30 C 0.80575 0.69641 0.21456 0.0
C31 C 0.84651 0.57303 0.21268 0.0
O32 O 0.91694 0.6485 0.1772 0.0
O33 O 0.89487 0.65795 0.24214 0.0
O34 O 0.83299 0.60002 0.2341 0.0
O35 O 0.86366 0.58206 0.17747 0.0
C36 C 0.84455 0.65052 0.09574 0.0
O37 O 0.79692 0.66284 0.20946 0.0
O38 O 0.839 0.7036 0.20501 0.0
In39 In 0.35367 0.85745 0.18815 0.0
O40 O 0.33268 0.87862 0.12073 0.0
O41 O 0.36493 0.82948 0.12059 0.0
C42 C 0.34592 0.92827 0.21649 0.0
C43 C 0.30196 0.80828 0.2169 0.0
C44 C 0.42314 0.84507 0.21907 0.0
O45 O 0.36484 0.91947 0.18249 0.0
O46 O 0.33051 0.9013 0.23594 0.0
O47 O 0.41441 0.84148 0.17832 0.0
O48 O 0.39667 0.85432 0.24435 0.0
C49 C 0.34724 0.85306 0.09783 0.0
O50 O 0.33627 0.80284 0.22129 0.0
O51 O 0.29384 0.8385 0.19824 0.0
In52 In 0.1445 0.65118 0.31413 0.0
O53 O 0.13691 0.68213 0.38048 0.0
O54 O 0.16225 0.62921 0.38275 0.0
C55 C 0.07486 0.66282 0.28394 0.0
C56 C 0.19352 0.70124 0.28149 0.0
C57 C 0.15262 0.58058 0.28494 0.0
O58 O 0.08318 0.66348 0.32506 0.0
O59 O 0.10197 0.65737 0.25794 0.0
O60 O 0.17505 0.60592 0.27426 0.0
O61 O 0.12694 0.59079 0.31081 0.0
C62 C 0.15101 0.65706 0.40445 0.0
O63 O 0.2034 0.6724 0.30215 0.0
O64 O 0.15894 0.7047 0.27721 0.0
In65 In 0.35615 0.14992 0.3136 0.0
O66 O 0.32942 0.13572 0.38108 0.0
O67 O 0.37473 0.17317 0.38097 0.0
C68 C 0.34649 0.08028 0.28197 0.0
C69 C 0.30471 0.19833 0.28215 0.0
C70 C 0.42748 0.16023 0.28868 0.0
O71 O 0.33877 0.08938 0.32181 0.0
O72 O 0.35858 0.10645 0.25803 0.0
O73 O 0.40081 0.17664 0.26979 0.0
O74 O 0.41808 0.13902 0.32033 0.0
C75 C 0.35089 0.15599 0.40383 0.0
O76 O 0.30343 0.16406 0.27434 0.0
O77 O 0.33195 0.20821 0.3057 0.0
In78 In 0.86126 0.35312 0.3136 0.0
O79 O 0.85249 0.32483 0.38167 0.0
O80 O 0.86525 0.38218 0.38118 0.0
C81 C 0.93252 0.3378 0.29182 0.0
C82 C 0.81058 0.30338 0.28363 0.0
C83 C 0.8483 0.42071 0.27704 0.0
O84 O 0.92302 0.34935 0.33008 0.0
O85 O 0.90598 0.33371 0.2647 0.0
O86 O 0.8319 0.40936 0.31178 0.0
O87 O 0.87027 0.39747 0.25994 0.0
C88 C 0.85802 0.35389 0.40434 0.0
O89 O 0.80299 0.33719 0.28933 0.0
O90 O 0.84351 0.2949 0.29311 0.0
In91 In 0.64699 0.85453 0.3072 0.0
O92 O 0.67468 0.87096 0.37298 0.0
O93 O 0.63215 0.83042 0.37583 0.0
C94 C 0.65459 0.92395 0.27406 0.0
C95 C 0.69858 0.8054 0.27797 0.0
C96 C 0.57575 0.84409 0.28165 0.0
O97 O 0.65445 0.91692 0.31549 0.0
O98 O 0.65157 0.89582 0.24917 0.0
O99 O 0.60291 0.8321 0.25929 0.0
O100 O 0.58456 0.86078 0.31731 0.0
C101 C 0.65533 0.84983 0.3972 0.0
O102 O 0.66695 0.79572 0.29153 0.0
O103 O 0.70418 0.83986 0.27918 0.0
In104 In 0.85066 0.64596 0.81048 0.0
O105 O 0.8234 0.63015 0.87691 0.0
O106 O 0.86577 0.67078 0.87865 0.0
C107 C 0.84147 0.57414 0.78686 0.0
C108 C 0.80302 0.69843 0.77979 0.0
C109 C 0.91964 0.65454 0.77623 0.0
O110 O 0.8613 0.58416 0.81956 0.0
O111 O 0.82604 0.60044 0.76613 0.0
O112 O 0.89169 0.64798 0.75204 0.0
O113 O 0.91263 0.65742 0.81758 0.0
C114 C 0.84275 0.6517 0.90057 0.0
O115 O 0.83745 0.70366 0.78283 0.0
O116 O 0.79263 0.66671 0.79215 0.0
In117 In 0.35672 0.85426 0.81253 0.0
O118 O 0.29841 0.83649 0.79111 0.0
O119 O 0.34044 0.79557 0.79114 0.0
C120 C 0.34911 0.92563 0.78616 0.0
C121 C 0.34786 0.84995 0.90248 0.0
C122 C 0.42597 0.84332 0.77991 0.0
O123 O 0.33839 0.89873 0.76237 0.0
O124 O 0.36354 0.91643 0.82302 0.0
O125 O 0.41937 0.84757 0.82116 0.0
O126 O 0.39757 0.84409 0.75529 0.0
C127 C 0.30691 0.80315 0.7837 0.0
O128 O 0.37042 0.8297 0.88129 0.0
O129 O 0.32926 0.87159 0.87808 0.0
In130 In 0.14673 0.35696 0.81286 0.0
O131 O 0.12086 0.35912 0.88236 0.0
O132 O 0.17943 0.35483 0.87874 0.0
C133 C 0.15726 0.42852 0.7885 0.0
C134 C 0.19466 0.30434 0.78346 0.0
C135 C 0.07891 0.34192 0.77852 0.0
O136 O 0.14607 0.41919 0.82691 0.0
O137 O 0.1637 0.40167 0.76249 0.0
O138 O 0.10291 0.36068 0.7578 0.0
O139 O 0.0895 0.32991 0.81612 0.0
C140 C 0.1511 0.35717 0.90345 0.0
O141 O 0.16147 0.29732 0.7935 0.0
O142 O 0.20367 0.33784 0.78848 0.0
In143 In 0.64461 0.14781 0.81391 0.0
O144 O 0.70354 0.16695 0.79698 0.0
O145 O 0.65939 0.20333 0.78157 0.0
C146 C 0.64893 0.07652 0.7864 0.0
C147 C 0.6501 0.15323 0.90447 0.0
C148 C 0.57632 0.16092 0.7808 0.0
O149 O 0.67393 0.09987 0.77752 0.0
O150 O 0.62276 0.08884 0.81011 0.0
O151 O 0.58393 0.16313 0.82206 0.0
O152 O 0.60353 0.15294 0.75587 0.0
C153 C 0.69386 0.19789 0.78125 0.0
O154 O 0.63315 0.17651 0.88066 0.0
O155 O 0.66501 0.12732 0.88254 0.0
In156 In 0.85574 0.35336 0.69058 0.0
O157 O 0.85933 0.38249 0.62321 0.0
O158 O 0.8516 0.32428 0.62216 0.0
C159 C 0.84176 0.42071 0.72704 0.0
C160 C 0.80307 0.30485 0.71829 0.0
C161 C 0.92666 0.33991 0.7154 0.0
O162 O 0.8264 0.40947 0.69154 0.0
O163 O 0.86316 0.39742 0.74501 0.0
O164 O 0.89932 0.33268 0.7403 0.0
O165 O 0.91812 0.3533 0.67772 0.0
C166 C 0.85532 0.35372 0.59974 0.0
O167 O 0.83618 0.29547 0.71101 0.0
O168 O 0.79654 0.33872 0.71162 0.0
In169 In 0.64643 0.85667 0.68266 0.0
O170 O 0.70571 0.83914 0.69923 0.0
O171 O 0.66271 0.8013 0.71459 0.0
C172 C 0.6496 0.92731 0.71306 0.0
C173 C 0.65503 0.85222 0.59242 0.0
C174 C 0.5773 0.84214 0.71255 0.0
O175 O 0.67416 0.90371 0.7226 0.0
O176 O 0.62442 0.91558 0.68748 0.0
O177 O 0.58536 0.84436 0.67143 0.0
O178 O 0.60455 0.84604 0.73881 0.0
C179 C 0.69703 0.80789 0.71486 0.0
O180 O 0.6386 0.82772 0.61501 0.0
O181 O 0.66738 0.87885 0.61538 0.0
In182 In 0.14466 0.64905 0.68966 0.0
O183 O 0.16546 0.63023 0.62121 0.0
O184 O 0.13398 0.67986 0.62385 0.0
C185 C 0.15534 0.58047 0.72397 0.0
C186 C 0.19723 0.69712 0.71906 0.0
C187 C 0.07234 0.6563 0.71296 0.0
O188 O 0.15409 0.58686 0.68241 0.0
O189 O 0.15176 0.60885 0.74835 0.0
O190 O 0.09853 0.66735 0.73761 0.0
O191 O 0.08266 0.64213 0.67636 0.0
C192 C 0.1512 0.65676 0.59977 0.0
O193 O 0.16385 0.70633 0.71341 0.0
O194 O 0.20403 0.66372 0.70985 0.0
In195 In 0.35372 0.14734 0.68906 0.0
O196 O 0.37108 0.17385 0.623 0.0
O197 O 0.32865 0.13321 0.62069 0.0
C198 C 0.42441 0.15792 0.71631 0.0
C199 C 0.30146 0.19581 0.71809 0.0
C200 C 0.34597 0.07786 0.72205 0.0
O201 O 0.41628 0.14076 0.68074 0.0
O202 O 0.39685 0.17002 0.73787 0.0
O203 O 0.34821 0.10613 0.7468 0.0
O204 O 0.34679 0.08472 0.68056 0.0
C205 C 0.3489 0.15542 0.59906 0.0
O206 O 0.29511 0.16169 0.71313 0.0
O207 O 0.33402 0.20538 0.70821 0.0
C208 C 0.27634 0.2615 0.28188 0.0
C209 C 0.2765 0.22487 0.26565 0.0
C210 C 0.24996 0.28727 0.26714 0.0
C211 C 0.22278 0.2775 0.23539 0.0
H212 H 0.29667 0.27041 0.30638 0.0
H213 H 0.25103 0.31512 0.28069 0.0
S214 S 0.21164 0.18525 0.18164 0.0
N215 N 0.24736 0.18017 0.21569 0.0
N216 N 0.19791 0.22861 0.18777 0.0
C217 C 0.22267 0.24096 0.21874 0.0
C218 C 0.24948 0.21466 0.23392 0.0
C219 C 0.746 0.28652 0.26053 0.0
C220 C 0.7831 0.2759 0.26736 0.0
C221 C 0.71943 0.26102 0.24535 0.0
C222 C 0.72898 0.22395 0.23614 0.0
H223 H 0.73729 0.31475 0.26706 0.0
H224 H 0.69123 0.27053 0.24062 0.0
S225 S 0.82234 0.18193 0.24877 0.0
N226 N 0.82796 0.22558 0.26396 0.0
N227 N 0.77817 0.17783 0.23525 0.0
C228 C 0.76598 0.21295 0.24279 0.0
C229 C 0.79299 0.23886 0.25845 0.0
C230 C 0.74309 0.71438 0.2432 0.0
C231 C 0.77916 0.72487 0.23057 0.0
C232 C 0.71734 0.74059 0.25857 0.0
C233 C 0.72657 0.7784 0.26178 0.0
H234 H 0.73458 0.68562 0.24132 0.0
H235 H 0.68993 0.73106 0.26788 0.0
S236 S 0.81741 0.82043 0.23281 0.0
N237 N 0.82284 0.77582 0.22235 0.0
N238 N 0.77446 0.82505 0.25105 0.0
C239 C 0.76255 0.78933 0.24922 0.0
C240 C 0.78883 0.7626 0.23368 0.0
C241 C 0.2847 0.74938 0.25588 0.0
C242 C 0.27368 0.78143 0.23257 0.0
C243 C 0.2586 0.72361 0.2714 0.0
C244 C 0.22041 0.72882 0.26417 0.0
H245 H 0.31377 0.74414 0.26243 0.0
H246 H 0.26852 0.69947 0.28933 0.0
S247 S 0.17702 0.80782 0.20408 0.0
N248 N 0.22187 0.81671 0.20244 0.0
N249 N 0.17287 0.76831 0.23152 0.0
C250 C 0.20898 0.76064 0.24064 0.0
C251 C 0.23557 0.78692 0.22488 0.0
C252 C 0.71299 0.74608 0.74761 0.0
C253 C 0.72474 0.78083 0.73159 0.0
C254 C 0.7385 0.71971 0.76307 0.0
C255 C 0.77682 0.72701 0.76324 0.0
H256 H 0.6838 0.73905 0.74813 0.0
H257 H 0.72801 0.69336 0.775 0.0
S258 S 0.8221 0.81379 0.72481 0.0
N259 N 0.77742 0.82115 0.71686 0.0
N260 N 0.82531 0.77165 0.74597 0.0
C261 C 0.78899 0.76168 0.74742 0.0
C262 C 0.763 0.78856 0.7316 0.0
C263 C 0.21582 0.75989 0.7469 0.0
C264 C 0.22586 0.72342 0.73536 0.0
C265 C 0.24219 0.78538 0.76252 0.0
C266 C 0.27969 0.77543 0.76729 0.0
H267 H 0.18729 0.76893 0.74393 0.0
H268 H 0.233 0.81311 0.77098 0.0
S269 S 0.32063 0.68349 0.74097 0.0
N270 N 0.27615 0.67873 0.72936 0.0
N271 N 0.32564 0.72656 0.75872 0.0
C272 C 0.29019 0.73906 0.75579 0.0
C273 C 0.26331 0.71309 0.73983 0.0
C274 C 0.25758 0.28614 0.75619 0.0
C275 C 0.22102 0.27589 0.76692 0.0
C276 C 0.28322 0.26006 0.74034 0.0
C277 C 0.2734 0.22261 0.73458 0.0
H278 H 0.26659 0.31461 0.76002 0.0
H279 H 0.31102 0.26943 0.73264 0.0
S280 S 0.18109 0.18131 0.75765 0.0
N281 N 0.1762 0.22557 0.77052 0.0
N282 N 0.22441 0.17654 0.74078 0.0
C283 C 0.23691 0.21191 0.74513 0.0
C284 C 0.21073 0.23852 0.76127 0.0
C285 C 0.75856 0.21617 0.76079 0.0
C286 C 0.72085 0.22561 0.76445 0.0
C287 C 0.78482 0.2419 0.74557 0.0
C288 C 0.77448 0.2782 0.7337 0.0
H289 H 0.76798 0.18863 0.76974 0.0
H290 H 0.81353 0.23326 0.74342 0.0
S291 S 0.67919 0.31696 0.73706 0.0
N292 N 0.67441 0.27385 0.75466 0.0
N293 N 0.72377 0.32223 0.72639 0.0
C294 C 0.73684 0.28804 0.73712 0.0
C295 C 0.71004 0.26174 0.75238 0.0
C296 C 0.11956 0.36111 0.97779 0.0
C297 C 0.1527 0.35821 0.95315 0.0
C298 C 0.11977 0.36222 0.02474 0.0
C299 C 0.15312 0.36058 0.04909 0.0
H300 H 0.09308 0.36246 0.96075 0.0
H301 H 0.09343 0.36431 0.04204 0.0
S302 S 0.24764 0.35285 0.00072 0.0
N303 N 0.21993 0.35372 0.95663 0.0
N304 N 0.22031 0.35589 0.04504 0.0
C305 C 0.18655 0.35784 0.02496 0.0
C306 C 0.18634 0.35661 0.97698 0.0
C307 C 0.67487 0.13186 0.9785 0.0
C308 C 0.65121 0.15539 0.95411 0.0
C309 C 0.67541 0.13238 0.02557 0.0
C310 C 0.65214 0.1563 0.05008 0.0
H311 H 0.69301 0.11269 0.96114 0.0
H312 H 0.69389 0.1135 0.04282 0.0
S313 S 0.58488 0.22341 0.00219 0.0
N314 N 0.60398 0.20344 0.95801 0.0
N315 N 0.60483 0.20429 0.04631 0.0
C316 C 0.62855 0.18022 0.02609 0.0
C317 C 0.62814 0.1798 0.97817 0.0
C318 C 0.86534 0.67519 0.97459 0.0
C319 C 0.84041 0.65294 0.95022 0.0
C320 C 0.86578 0.67487 0.0216 0.0
C321 C 0.8413 0.65231 0.04619 0.0
H322 H 0.88528 0.69247 0.95726 0.0
H323 H 0.88605 0.69195 0.03873 0.0
S324 S 0.76886 0.59068 0.99856 0.0
N325 N 0.78931 0.60904 0.95428 0.0
N326 N 0.79014 0.60846 0.04264 0.0
C327 C 0.81542 0.63077 0.02232 0.0
C328 C 0.81499 0.63109 0.97436 0.0
C329 C 0.36545 0.82473 0.02436 0.0
C330 C 0.34506 0.8516 0.04815 0.0
C331 C 0.36558 0.82395 0.97731 0.0
C332 C 0.34517 0.84987 0.95215 0.0
H333 H 0.38202 0.80449 0.04217 0.0
H334 H 0.38223 0.80313 0.96056 0.0
S335 S 0.28594 0.92503 0.99824 0.0
N336 N 0.30301 0.90414 0.04295 0.0
N337 N 0.30311 0.90258 0.95465 0.0
C338 C 0.32395 0.87636 0.97551 0.0
C339 C 0.32395 0.87725 0.02345 0.0
C340 C 0.16842 0.6296 0.5255 0.0
C341 C 0.15287 0.65906 0.55012 0.0
C342 C 0.1683 0.62962 0.47849 0.0
C343 C 0.15274 0.65914 0.45412 0.0
H344 H 0.18019 0.60589 0.54261 0.0
H345 H 0.18004 0.60594 0.46117 0.0
S346 S 0.11037 0.74406 0.50249 0.0
N347 N 0.12281 0.71935 0.54659 0.0
N348 N 0.1227 0.71946 0.45819 0.0
C349 C 0.13797 0.68929 0.47826 0.0
C350 C 0.138 0.68922 0.52624 0.0
C351 C 0.32486 0.13445 0.52449 0.0
C352 C 0.34815 0.15804 0.54942 0.0
C353 C 0.32537 0.13454 0.47743 0.0
C354 C 0.34924 0.15817 0.45346 0.0
H355 H 0.30651 0.11523 0.54139 0.0
H356 H 0.30739 0.11539 0.45977 0.0
S357 S 0.41409 0.227 0.50275 0.0
N358 N 0.39454 0.20694 0.54653 0.0
N359 N 0.39554 0.20707 0.45822 0.0
C360 C 0.37198 0.18261 0.47795 0.0
C361 C 0.37141 0.18256 0.52587 0.0
C362 C 0.85273 0.32143 0.47832 0.0
C363 C 0.8567 0.35463 0.45404 0.0
C364 C 0.85215 0.32137 0.52541 0.0
C365 C 0.85543 0.35453 0.55 0.0
H366 H 0.85033 0.29517 0.46088 0.0
H367 H 0.84928 0.29509 0.5426 0.0
S368 S 0.86514 0.44918 0.50241 0.0
N369 N 0.86311 0.4217 0.45817 0.0
N370 N 0.86194 0.42163 0.54642 0.0
C371 C 0.859 0.38798 0.52611 0.0
C372 C 0.85966 0.38803 0.47821 0.0
C373 C 0.63651 0.82466 0.51876 0.0
C374 C 0.65774 0.85067 0.54283 0.0
C375 C 0.63651 0.82412 0.47172 0.0
C376 C 0.65799 0.84937 0.44686 0.0
H377 H 0.61901 0.80506 0.53634 0.0
H378 H 0.61908 0.80407 0.45475 0.0
S379 S 0.7204 0.9215 0.49384 0.0
N380 N 0.70213 0.90126 0.53832 0.0
N381 N 0.70242 0.90008 0.44997 0.0
C382 C 0.68026 0.87479 0.47052 0.0
C383 C 0.68005 0.8755 0.51846 0.0
C384 C 0.12261 0.52002 0.2686 0.0
C385 C 0.15444 0.54243 0.26679 0.0
C386 C 0.1226 0.48412 0.25089 0.0
C387 C 0.15459 0.46886 0.23119 0.0
H388 H 0.0972 0.5304 0.28339 0.0
H389 H 0.09728 0.46808 0.25314 0.0
S390 S 0.24546 0.51582 0.21858 0.0
N391 N 0.21894 0.54689 0.24368 0.0
N392 N 0.21915 0.47884 0.2111 0.0
C393 C 0.18679 0.49079 0.2294 0.0
C394 C 0.18664 0.52772 0.24696 0.0
C395 C 0.53129 0.14469 0.28141 0.0
C396 C 0.5414 0.16417 0.24243 0.0
C397 C 0.49455 0.14435 0.29661 0.0
C398 C 0.4665 0.16371 0.27366 0.0
H399 H 0.55168 0.1286 0.29963 0.0
H400 H 0.48802 0.12813 0.32616 0.0
S401 S 0.47924 0.22197 0.17216 0.0
N402 N 0.52094 0.2053 0.18275 0.0
N403 N 0.45191 0.20498 0.21155 0.0
C404 C 0.47651 0.18456 0.23564 0.0
C405 C 0.51394 0.18468 0.21996 0.0
C406 C 0.86325 0.50608 0.20492 0.0
C407 C 0.84405 0.53405 0.22829 0.0
C408 C 0.86355 0.46938 0.22029 0.0
C409 C 0.84453 0.45904 0.25956 0.0
H410 H 0.87889 0.51267 0.17493 0.0
H411 H 0.87945 0.4491 0.20159 0.0
S412 S 0.78819 0.52127 0.33179 0.0
N413 N 0.80418 0.54856 0.29178 0.0
N414 N 0.80462 0.47956 0.32057 0.0
C415 C 0.82425 0.48648 0.28256 0.0
C416 C 0.82407 0.52396 0.26697 0.0
C417 C 0.508 0.85501 0.29321 0.0
C418 C 0.53679 0.84097 0.26624 0.0
C419 C 0.47118 0.8551 0.27821 0.0
C420 C 0.46172 0.8414 0.2355 0.0
H421 H 0.51396 0.86672 0.32592 0.0
H422 H 0.45016 0.86699 0.29984 0.0
S423 S 0.52623 0.79901 0.15309 0.0
N424 N 0.55295 0.81097 0.19568 0.0
N425 N 0.4838 0.81144 0.1674 0.0
C426 C 0.49002 0.82622 0.2087 0.0
C427 C 0.52752 0.8259 0.2241 0.0
C428 C 0.85852 0.50746 0.79605 0.0
C429 C 0.83827 0.53479 0.77297 0.0
C430 C 0.85837 0.47043 0.78186 0.0
C431 C 0.83794 0.45917 0.74402 0.0
H432 H 0.87537 0.51481 0.82481 0.0
H433 H 0.87521 0.45069 0.80012 0.0
S434 S 0.77802 0.51935 0.67368 0.0
N435 N 0.79554 0.54764 0.71176 0.0
N436 N 0.79524 0.47802 0.68509 0.0
C437 C 0.81646 0.48593 0.72155 0.0
C438 C 0.81665 0.52372 0.736 0.0
C439 C 0.53109 0.83952 0.77513 0.0
C440 C 0.53858 0.83871 0.72879 0.0
C441 C 0.4946 0.84003 0.79134 0.0
C442 C 0.46412 0.83975 0.76186 0.0
H443 H 0.55359 0.84067 0.79918 0.0
H444 H 0.49033 0.84144 0.82728 0.0
S445 S 0.46859 0.83559 0.63744 0.0
N446 N 0.51234 0.836 0.65359 0.0
N447 N 0.44388 0.83697 0.68403 0.0
C448 C 0.47118 0.83776 0.71546 0.0
C449 C 0.50835 0.83724 0.69894 0.0
C450 C 0.1657 0.47592 0.72832 0.0
C451 C 0.1599 0.46768 0.77391 0.0
C452 C 0.16503 0.51254 0.71275 0.0
C453 C 0.15879 0.54242 0.7422 0.0
H454 H 0.16982 0.45386 0.70413 0.0
H455 H 0.16881 0.51735 0.67716 0.0
S456 S 0.14461 0.53599 0.86536 0.0
N457 N 0.14952 0.49258 0.8488 0.0
N458 N 0.1485 0.56143 0.81958 0.0
C459 C 0.15425 0.53471 0.78815 0.0
C460 C 0.15473 0.49734 0.80399 0.0
C461 C 0.49258 0.14944 0.7052 0.0
C462 C 0.46312 0.16197 0.73222 0.0
C463 C 0.52929 0.15055 0.72053 0.0
C464 C 0.53794 0.16396 0.76362 0.0
H465 H 0.48724 0.13803 0.67218 0.0
H466 H 0.55089 0.13971 0.69893 0.0
S467 S 0.47133 0.20238 0.84647 0.0
N468 N 0.44537 0.19012 0.80332 0.0
N469 N 0.51429 0.19191 0.83222 0.0
C470 C 0.50891 0.17764 0.79048 0.0
C471 C 0.47154 0.17674 0.77476 0.0
C472 C 0.6824 0.01966 0.76 0.0
C473 C 0.64889 0.0384 0.76827 0.0
C474 C 0.68254 0.9834 0.74269 0.0
C475 C 0.64921 0.96524 0.73181 0.0
H476 H 0.70862 0.03292 0.76747 0.0
H477 H 0.70888 0.96973 0.73713 0.0
S478 S 0.55417 0.00267 0.74634 0.0
N479 N 0.58162 0.03615 0.76432 0.0
N480 N 0.58192 0.96868 0.73056 0.0
C481 C 0.6156 0.98389 0.7395 0.0
C482 C 0.61543 0.02031 0.75808 0.0
C483 C 0.98718 0.66765 0.78659 0.0
C484 C 0.95788 0.65704 0.75816 0.0
C485 C 0.02393 0.66823 0.77132 0.0
C486 C 0.03294 0.65796 0.72707 0.0
H487 H 0.98179 0.67519 0.82119 0.0
H488 H 0.04551 0.67607 0.79475 0.0
S489 S 0.96637 0.62928 0.63855 0.0
N490 N 0.94028 0.63716 0.68307 0.0
N491 N 0.00933 0.638 0.65446 0.0
C492 C 0.00385 0.648 0.69796 0.0
C493 C 0.96636 0.64762 0.71346 0.0
C494 C 0.33807 0.0096 0.71066 0.0
C495 C 0.34451 0.03955 0.73993 0.0
C496 C 0.33872 0.9729 0.72611 0.0
C497 C 0.34627 0.96471 0.77135 0.0
H498 H 0.33284 0.01445 0.67533 0.0
H499 H 0.33409 0.95077 0.70217 0.0
S500 S 0.3635 0.03312 0.86217 0.0
N501 N 0.35736 0.05857 0.81676 0.0
N502 N 0.35897 0.98966 0.84567 0.0
C503 C 0.35207 0.99441 0.80118 0.0
C504 C 0.35107 0.03181 0.78554 0.0
C505 C 0.03102 0.35158 0.71916 0.0
C506 C 0.04062 0.33715 0.76144 0.0
C507 C 0.9943 0.35103 0.7039 0.0
C508 C 0.96564 0.3362 0.73041 0.0
H509 H 0.05187 0.3643 0.69802 0.0
H510 H 0.98824 0.3634 0.67162 0.0
S511 S 0.97646 0.29217 0.84221 0.0
N512 N 0.01876 0.3054 0.82845 0.0
N513 N 0.9497 0.30456 0.79985 0.0
C514 C 0.97503 0.32034 0.77201 0.0
C515 C 0.01251 0.32075 0.7875 0.0
C516 C 0.35971 0.03238 0.22357 0.0
C517 C 0.34367 0.04172 0.26511 0.0
C518 C 0.35972 0.99575 0.20789 0.0
C519 C 0.34345 0.967 0.23296 0.0
H520 H 0.37311 0.05337 0.20329 0.0
H521 H 0.37302 0.98993 0.17606 0.0
S522 S 0.29579 0.97712 0.34276 0.0
N523 N 0.30975 0.01946 0.33029 0.0
N524 N 0.30949 0.95064 0.30069 0.0
C525 C 0.32638 0.97609 0.27401 0.0
C526 C 0.32658 0.01342 0.29013 0.0
C527 C 0.98018 0.32264 0.23384 0.0
C528 C 0.97171 0.33243 0.27839 0.0
C529 C 0.01688 0.32176 0.21853 0.0
C530 C 0.04661 0.33066 0.24715 0.0
H531 H 0.95823 0.31687 0.21003 0.0
H532 H 0.02178 0.31552 0.18346 0.0
S533 S 0.03969 0.35388 0.3683 0.0
N534 N 0.99633 0.348 0.35208 0.0
N535 N 0.06532 0.34639 0.32329 0.0
C536 C 0.03872 0.33839 0.29247 0.0
C537 C 0.00128 0.33929 0.30809 0.0
C538 C 0.66501 0.99167 0.28603 0.0
C539 C 0.65655 0.96234 0.25661 0.0
C540 C 0.66508 0.02853 0.2713 0.0
C541 C 0.65626 0.03759 0.22664 0.0
H542 H 0.67134 0.9862 0.32097 0.0
H543 H 0.67131 0.05013 0.29541 0.0
S544 S 0.63345 0.97103 0.13566 0.0
N545 N 0.64034 0.94476 0.18023 0.0
N546 N 0.64005 0.0141 0.15264 0.0
C547 C 0.64838 0.00852 0.19661 0.0
C548 C 0.64866 0.97089 0.21153 0.0
C549 C 0.02847 0.65853 0.22192 0.0
C550 C 0.0361 0.66484 0.26759 0.0
C551 C 0.99197 0.6566 0.20607 0.0
C552 C 0.96158 0.66095 0.23522 0.0
H553 H 0.05085 0.65408 0.19826 0.0
H554 H 0.98761 0.6509 0.17076 0.0
S555 S 0.96649 0.68084 0.35737 0.0
N556 N 0.0102 0.6775 0.34146 0.0
N557 N 0.94158 0.67392 0.31164 0.0
C558 C 0.96878 0.66856 0.28073 0.0
C559 C 0.00602 0.6705 0.29691 0.0
loop_
_geom_bond_atom_site_label_1
_geom_bond_atom_site_label_2
_geom_bond_distance
_geom_bond_site_symmetry_2
_ccdc_geom_bond_type
In0 O1 2.294 . S
In0 O2 2.326 . S
In0 O6 2.266 . S
In0 O7 2.326 . S
In0 O8 2.266 . S
In0 O9 2.326 . S
In0 O11 2.294 . S
In0 O12 2.326 . S
O1 In0 2.294 . S
O1 C10 1.240 . S
O2 In0 2.326 . S
O2 C10 1.252 . S
C3 O6 1.252 . S
C3 O7 1.260 . S
C4 O11 1.240 . S
C4 O12 1.252 . S
C5 O8 1.252 . S
C5 O9 1.260 . S
O6 In0 2.266 . S
O6 C3 1.252 . S
O7 In0 2.326 . S
O7 C3 1.260 . S
O8 In0 2.266 . S
O8 C5 1.252 . S
O9 In0 2.326 . S
O9 C5 1.260 . S
C10 O1 1.240 . S
C10 O2 1.252 . S
O11 In0 2.294 . S
O11 C4 1.240 . S
O12 In0 2.326 . S
O12 C4 1.252 . S
In13 O14 2.294 . S
In13 O15 2.326 . S
In13 O19 2.266 . S
In13 O20 2.326 . S
In13 O21 2.266 . S
In13 O22 2.326 . S
In13 O24 2.294 . S
In13 O25 2.326 . S
O14 In13 2.294 . S
O14 C23 1.240 . S
O15 In13 2.326 . S
O15 C23 1.252 . S
C16 O19 1.252 . S
C16 O20 1.260 . S
C17 O24 1.240 . S
C17 O25 1.252 . S
C18 O21 1.252 . S
C18 O22 1.260 . S
O19 In13 2.266 . S
O19 C16 1.252 . S
O20 In13 2.326 . S
O20 C16 1.260 . S
O21 In13 2.266 . S
O21 C18 1.252 . S
O22 In13 2.326 . S
O22 C18 1.260 . S
C23 O14 1.240 . S
C23 O15 1.252 . S
O24 In13 2.294 . S
O24 C17 1.240 . S
O25 In13 2.326 . S
O25 C17 1.252 . S
In26 O27 2.294 . S
In26 O28 2.326 . S
In26 O32 2.266 . S
In26 O33 2.326 . S
In26 O34 2.266 . S
In26 O35 2.326 . S
In26 O37 2.294 . S
In26 O38 2.326 . S
O27 In26 2.294 . S
O27 C36 1.240 . S
O28 In26 2.326 . S
O28 C36 1.252 . S
C29 O32 1.252 . S
C29 O33 1.260 . S
C30 O37 1.240 . S
C30 O38 1.252 . S
C31 O34 1.252 . S
C31 O35 1.260 . S
O32 In26 2.266 . S
O32 C29 1.252 . S
O33 In26 2.326 . S
O33 C29 1.260 . S
O34 In26 2.266 . S
O34 C31 1.252 . S
O35 In26 2.326 . S
O35 C31 1.260 . S
C36 O27 1.240 . S
C36 O28 1.252 . S
O37 In26 2.294 . S
O37 C30 1.240 . S
O38 In26 2.326 . S
O38 C30 1.252 . S
In39 O40 2.294 . S
In39 O41 2.326 . S
In39 O45 2.266 . S
In39 O46 2.326 . S
In39 O47 2.266 . S
In39 O48 2.326 . S
In39 O50 2.294 . S
In39 O51 2.326 . S
O40 In39 2.294 . S
O40 C49 1.240 . S
O41 In39 2.326 . S
O41 C49 1.252 . S
C42 O45 1.252 . S
C42 O46 1.260 . S
C43 O50 1.240 . S
C43 O51 1.252 . S
C44 O47 1.252 . S
C44 O48 1.260 . S
O45 In39 2.266 . S
O45 C42 1.252 . S
O46 In39 2.326 . S
O46 C42 1.260 . S
O47 In39 2.266 . S
O47 C44 1.252 . S
O48 In39 2.326 . S
O48 C44 1.260 . S
C49 O40 1.240 . S
C49 O41 1.252 . S
O50 In39 2.294 . S
O50 C43 1.240 . S
O51 In39 2.326 . S
O51 C43 1.252 . S
In52 O53 2.294 . S
In52 O54 2.326 . S
In52 O58 2.266 . S
In52 O59 2.326 . S
In52 O60 2.266 . S
In52 O61 2.326 . S
In52 O63 2.294 . S
In52 O64 2.326 . S
O53 In52 2.294 . S
O53 C62 1.240 . S
O54 In52 2.326 . S
O54 C62 1.252 . S
C55 O58 1.252 . S
C55 O59 1.260 . S
C56 O63 1.240 . S
C56 O64 1.252 . S
C57 O60 1.252 . S
C57 O61 1.260 . S
O58 In52 2.266 . S
O58 C55 1.252 . S
O59 In52 2.326 . S
O59 C55 1.260 . S
O60 In52 2.266 . S
O60 C57 1.252 . S
O61 In52 2.326 . S
O61 C57 1.260 . S
C62 O53 1.240 . S
C62 O54 1.252 . S
O63 In52 2.294 . S
O63 C56 1.240 . S
O64 In52 2.326 . S
O64 C56 1.252 . S
In65 O66 2.294 . S
In65 O67 2.326 . S
In65 O71 2.266 . S
In65 O72 2.326 . S
In65 O73 2.266 . S
In65 O74 2.326 . S
In65 O76 2.294 . S
In65 O77 2.326 . S
O66 In65 2.294 . S
O66 C75 1.240 . S
O67 In65 2.326 . S
O67 C75 1.252 . S
C68 O71 1.252 . S
C68 O72 1.260 . S
C69 O76 1.240 . S
C69 O77 1.252 . S
C70 O73 1.252 . S
C70 O74 1.260 . S
O71 In65 2.266 . S
O71 C68 1.252 . S
O72 In65 2.326 . S
O72 C68 1.260 . S
O73 In65 2.266 . S
O73 C70 1.252 . S
O74 In65 2.326 . S
O74 C70 1.260 . S
C75 O66 1.240 . S
C75 O67 1.252 . S
O76 In65 2.294 . S
O76 C69 1.240 . S
O77 In65 2.326 . S
O77 C69 1.252 . S
In78 O79 2.294 . S
In78 O80 2.326 . S
In78 O84 2.266 . S
In78 O85 2.326 . S
In78 O86 2.266 . S
In78 O87 2.326 . S
In78 O89 2.294 . S
In78 O90 2.326 . S
O79 In78 2.294 . S
O79 C88 1.240 . S
O80 In78 2.326 . S
O80 C88 1.252 . S
C81 O84 1.252 . S
C81 O85 1.260 . S
C82 O89 1.240 . S
C82 O90 1.252 . S
C83 O86 1.252 . S
C83 O87 1.260 . S
O84 In78 2.266 . S
O84 C81 1.252 . S
O85 In78 2.326 . S
O85 C81 1.260 . S
O86 In78 2.266 . S
O86 C83 1.252 . S
O87 In78 2.326 . S
O87 C83 1.260 . S
C88 O79 1.240 . S
C88 O80 1.252 . S
O89 In78 2.294 . S
O89 C82 1.240 . S
O90 In78 2.326 . S
O90 C82 1.252 . S
In91 O92 2.294 . S
In91 O93 2.326 . S
In91 O97 2.266 . S
In91 O98 2.326 . S
In91 O99 2.266 . S
In91 O100 2.326 . S
In91 O102 2.294 . S
In91 O103 2.326 . S
O92 In91 2.294 . S
O92 C101 1.240 . S
O93 In91 2.326 . S
O93 C101 1.252 . S
C94 O97 1.252 . S
C94 O98 1.260 . S
C95 O102 1.240 . S
C95 O103 1.252 . S
C96 O99 1.252 . S
C96 O100 1.260 . S
O97 In91 2.266 . S
O97 C94 1.252 . S
O98 In91 2.326 . S
O98 C94 1.260 . S
O99 In91 2.266 . S
O99 C96 1.252 . S
O100 In91 2.326 . S
O100 C96 1.260 . S
C101 O92 1.240 . S
C101 O93 1.252 . S
O102 In91 2.294 . S
O102 C95 1.240 . S
O103 In91 2.326 . S
O103 C95 1.252 . S
In104 O105 2.294 . S
In104 O106 2.326 . S
In104 O110 2.266 . S
In104 O111 2.326 . S
In104 O112 2.266 . S
In104 O113 2.326 . S
In104 O115 2.294 . S
In104 O116 2.326 . S
O105 In104 2.294 . S
O105 C114 1.240 . S
O106 In104 2.326 . S
O106 C114 1.252 . S
C107 O110 1.252 . S
C107 O111 1.260 . S
C108 O115 1.240 . S
C108 O116 1.252 . S
C109 O112 1.252 . S
C109 O113 1.260 . S
O110 In104 2.266 . S
O110 C107 1.252 . S
O111 In104 2.326 . S
O111 C107 1.260 . S
O112 In104 2.266 . S
O112 C109 1.252 . S
O113 In104 2.326 . S
O113 C109 1.260 . S
C114 O105 1.240 . S
C114 O106 1.252 . S
O115 In104 2.294 . S
O115 C108 1.240 . S
O116 In104 2.326 . S
O116 C108 1.252 . S
In117 O118 2.294 . S
In117 O119 2.326 . S
In117 O123 2.266 . S
In117 O124 2.326 . S
In117 O125 2.266 . S
In117 O126 2.326 . S
In117 O128 2.294 . S
In117 O129 2.326 . S
O118 In117 2.294 . S
O118 C127 1.240 . S
O119 In117 2.326 . S
O119 C127 1.252 . S
C120 O123 1.252 . S
C120 O124 1.260 . S
C121 O128 1.240 . S
C121 O129 1.252 . S
C122 O125 1.252 . S
C122 O126 1.260 . S
O123 In117 2.266 . S
O123 C120 1.252 . S
O124 In117 2.326 . S
O124 C120 1.260 . S
O125 In117 2.266 . S
O125 C122 1.252 . S
O126 In117 2.326 . S
O126 C122 1.260 . S
C127 O118 1.240 . S
C127 O119 1.252 . S
O128 In117 2.294 . S
O128 C121 1.240 . S
O129 In117 2.326 . S
O129 C121 1.252 . S
In130 O131 2.294 . S
In130 O132 2.326 . S
In130 O136 2.266 . S
In130 O137 2.326 . S
In130 O138 2.266 . S
In130 O139 2.326 . S
In130 O141 2.294 . S
In130 O142 2.326 . S
O131 In130 2.294 . S
O131 C140 1.240 . S
O132 In130 2.326 . S
O132 C140 1.252 . S
C133 O136 1.252 . S
C133 O137 1.260 . S
C134 O141 1.240 . S
C134 O142 1.252 . S
C135 O138 1.252 . S
C135 O139 1.260 . S
O136 In130 2.266 . S
O136 C133 1.252 . S
O137 In130 2.326 . S
O137 C133 1.260 . S
O138 In130 2.266 . S
O138 C135 1.252 . S
O139 In130 2.326 . S
O139 C135 1.260 . S
C140 O131 1.240 . S
C140 O132 1.252 . S
O141 In130 2.294 . S
O141 C134 1.240 . S
O142 In130 2.326 . S
O142 C134 1.252 . S
In143 O144 2.294 . S
In143 O145 2.326 . S
In143 O149 2.266 . S
In143 O150 2.326 . S
In143 O151 2.266 . S
In143 O152 2.326 . S
In143 O154 2.294 . S
In143 O155 2.326 . S
O144 In143 2.294 . S
O144 C153 1.240 . S
O145 In143 2.326 . S
O145 C153 1.252 . S
C146 O149 1.252 . S
C146 O150 1.260 . S
C147 O154 1.240 . S
C147 O155 1.252 . S
C148 O151 1.252 . S
C148 O152 1.260 . S
O149 In143 2.266 . S
O149 C146 1.252 . S
O150 In143 2.326 . S
O150 C146 1.260 . S
O151 In143 2.266 . S
O151 C148 1.252 . S
O152 In143 2.326 . S
O152 C148 1.260 . S
C153 O144 1.240 . S
C153 O145 1.252 . S
O154 In143 2.294 . S
O154 C147 1.240 . S
O155 In143 2.326 . S
O155 C147 1.252 . S
In156 O157 2.294 . S
In156 O158 2.326 . S
In156 O162 2.266 . S
In156 O163 2.326 . S
In156 O164 2.266 . S
In156 O165 2.326 . S
In156 O167 2.294 . S
In156 O168 2.326 . S
O157 In156 2.294 . S
O157 C166 1.240 . S
O158 In156 2.326 . S
O158 C166 1.252 . S
C159 O162 1.252 . S
C159 O163 1.260 . S
C160 O167 1.240 . S
C160 O168 1.252 . S
C161 O164 1.252 . S
C161 O165 1.260 . S
O162 In156 2.266 . S
O162 C159 1.252 . S
O163 In156 2.326 . S
O163 C159 1.260 . S
O164 In156 2.266 . S
O164 C161 1.252 . S
O165 In156 2.326 . S
O165 C161 1.260 . S
C166 O157 1.240 . S
C166 O158 1.252 . S
O167 In156 2.294 . S
O167 C160 1.240 . S
O168 In156 2.326 . S
O168 C160 1.252 . S
In169 O170 2.294 . S
In169 O171 2.326 . S
In169 O175 2.266 . S
In169 O176 2.326 . S
In169 O177 2.266 . S
In169 O178 2.326 . S
In169 O180 2.294 . S
In169 O181 2.326 . S
O170 In169 2.294 . S
O170 C179 1.240 . S
O171 In169 2.326 . S
O171 C179 1.252 . S
C172 O175 1.252 . S
C172 O176 1.260 . S
C173 O180 1.240 . S
C173 O181 1.252 . S
C174 O177 1.252 . S
C174 O178 1.260 . S
O175 In169 2.266 . S
O175 C172 1.252 . S
O176 In169 2.326 . S
O176 C172 1.260 . S
O177 In169 2.266 . S
O177 C174 1.252 . S
O178 In169 2.326 . S
O178 C174 1.260 . S
C179 O170 1.240 . S
C179 O171 1.252 . S
O180 In169 2.294 . S
O180 C173 1.240 . S
O181 In169 2.326 . S
O181 C173 1.252 . S
In182 O183 2.294 . S
In182 O184 2.326 . S
In182 O188 2.266 . S
In182 O189 2.326 . S
In182 O190 2.266 . S
In182 O191 2.326 . S
In182 O193 2.294 . S
In182 O194 2.326 . S
O183 In182 2.294 . S
O183 C192 1.240 . S
O184 In182 2.326 . S
O184 C192 1.252 . S
C185 O188 1.252 . S
C185 O189 1.260 . S
C186 O193 1.240 . S
C186 O194 1.252 . S
C187 O190 1.252 . S
C187 O191 1.260 . S
O188 In182 2.266 . S
O188 C185 1.252 . S
O189 In182 2.326 . S
O189 C185 1.260 . S
O190 In182 2.266 . S
O190 C187 1.252 . S
O191 In182 2.326 . S
O191 C187 1.260 . S
C192 O183 1.240 . S
C192 O184 1.252 . S
O193 In182 2.294 . S
O193 C186 1.240 . S
O194 In182 2.326 . S
O194 C186 1.252 . S
In195 O196 2.294 . S
In195 O197 2.326 . S
In195 O201 2.266 . S
In195 O202 2.326 . S
In195 O203 2.266 . S
In195 O204 2.326 . S
In195 O206 2.294 . S
In195 O207 2.326 . S
O196 In195 2.294 . S
O196 C205 1.240 . S
O197 In195 2.326 . S
O197 C205 1.252 . S
C198 O201 1.252 . S
C198 O202 1.260 . S
C199 O206 1.240 . S
C199 O207 1.252 . S
C200 O203 1.252 . S
C200 O204 1.260 . S
O201 In195 2.266 . S
O201 C198 1.252 . S
O202 In195 2.326 . S
O202 C198 1.260 . S
O203 In195 2.266 . S
O203 C200 1.252 . S
O204 In195 2.326 . S
O204 C200 1.260 . S
C205 O196 1.240 . S
C205 O197 1.252 . S
O206 In195 2.294 . S
O206 C199 1.240 . S
O207 In195 2.326 . S
O207 C199 1.252 . S
C208 C209 1.369 . S
C208 C210 1.419 . S
C208 H212 0.930 . S
C209 C208 1.369 . S
C209 C218 1.429 . S
C210 C208 1.419 . S
C210 C211 1.363 . S
C210 H213 0.929 . S
C211 C210 1.363 . S
C211 C217 1.428 . S
H212 C208 0.930 . S
H213 C210 0.929 . S
S214 N215 1.613 . S
S214 N216 1.610 . S
N215 S214 1.613 . S
N215 C218 1.350 . S
N216 S214 1.610 . S
N216 C217 1.351 . S
C217 C211 1.428 . S
C217 N216 1.351 . S
C217 C218 1.434 . S
C218 C209 1.429 . S
C218 N215 1.350 . S
C218 C217 1.434 . S
C219 C220 1.369 . S
C219 C221 1.419 . S
C219 H223 0.930 . S
C220 C219 1.369 . S
C220 C229 1.429 . S
C221 C219 1.419 . S
C221 C222 1.363 . S
C221 H224 0.929 . S
C222 C221 1.363 . S
C222 C228 1.428 . S
H223 C219 0.930 . S
H224 C221 0.929 . S
S225 N226 1.613 . S
S225 N227 1.610 . S
N226 S225 1.613 . S
N226 C229 1.350 . S
N227 S225 1.610 . S
N227 C228 1.351 . S
C228 C222 1.428 . S
C228 N227 1.351 . S
C228 C229 1.434 . S
C229 C220 1.429 . S
C229 N226 1.350 . S
C229 C228 1.434 . S
C230 C231 1.369 . S
C230 C232 1.419 . S
C230 H234 0.930 . S
C231 C230 1.369 . S
C231 C240 1.429 . S
C232 C230 1.419 . S
C232 C233 1.363 . S
C232 H235 0.929 . S
C233 C232 1.363 . S
C233 C239 1.428 . S
H234 C230 0.930 . S
H235 C232 0.929 . S
S236 N237 1.613 . S
S236 N238 1.610 . S
N237 S236 1.613 . S
N237 C240 1.350 . S
N238 S236 1.610 . S
N238 C239 1.351 . S
C239 C233 1.428 . S
C239 N238 1.351 . S
C239 C240 1.434 . S
C240 C231 1.429 . S
C240 N237 1.350 . S
C240 C239 1.434 . S
C241 C242 1.369 . S
C241 C243 1.419 . S
C241 H245 0.930 . S
C242 C241 1.369 . S
C242 C251 1.429 . S
C243 C241 1.419 . S
C243 C244 1.363 . S
C243 H246 0.929 . S
C244 C243 1.363 . S
C244 C250 1.428 . S
H245 C241 0.930 . S
H246 C243 0.929 . S
S247 N248 1.613 . S
S247 N249 1.610 . S
N248 S247 1.613 . S
N248 C251 1.350 . S
N249 S247 1.610 . S
N249 C250 1.351 . S
C250 C244 1.428 . S
C250 N249 1.351 . S
C250 C251 1.434 . S
C251 C242 1.429 . S
C251 N248 1.350 . S
C251 C250 1.434 . S
C252 C253 1.369 . S
C252 C254 1.419 . S
C252 H256 0.930 . S
C253 C252 1.369 . S
C253 C262 1.429 . S
C254 C252 1.419 . S
C254 C255 1.363 . S
C254 H257 0.929 . S
C255 C254 1.363 . S
C255 C261 1.428 . S
H256 C252 0.930 . S
H257 C254 0.929 . S
S258 N259 1.613 . S
S258 N260 1.610 . S
N259 S258 1.613 . S
N259 C262 1.350 . S
N260 S258 1.610 . S
N260 C261 1.351 . S
C261 C255 1.428 . S
C261 N260 1.351 . S
C261 C262 1.434 . S
C262 C253 1.429 . S
C262 N259 1.350 . S
C262 C261 1.434 . S
C263 C264 1.369 . S
C263 C265 1.419 . S
C263 H267 0.930 . S
C264 C263 1.369 . S
C264 C273 1.429 . S
C265 C263 1.419 . S
C265 C266 1.363 . S
C265 H268 0.929 . S
C266 C265 1.363 . S
C266 C272 1.428 . S
H267 C263 0.930 . S
H268 C265 0.929 . S
S269 N270 1.613 . S
S269 N271 1.610 . S
N270 S269 1.613 . S
N270 C273 1.350 . S
N271 S269 1.610 . S
N271 C272 1.351 . S
C272 C266 1.428 . S
C272 N271 1.351 . S
C272 C273 1.434 . S
C273 C264 1.429 . S
C273 N270 1.350 . S
C273 C272 1.434 . S
C274 C275 1.369 . S
C274 C276 1.419 . S
C274 H278 0.930 . S
C275 C274 1.369 . S
C275 C284 1.429 . S
C276 C274 1.419 . S
C276 C277 1.363 . S
C276 H279 0.929 . S
C277 C276 1.363 . S
C277 C283 1.428 . S
H278 C274 0.930 . S
H279 C276 0.929 . S
S280 N281 1.613 . S
S280 N282 1.610 . S
N281 S280 1.613 . S
N281 C284 1.350 . S
N282 S280 1.610 . S
N282 C283 1.351 . S
C283 C277 1.428 . S
C283 N282 1.351 . S
C283 C284 1.434 . S
C284 C275 1.429 . S
C284 N281 1.350 . S
C284 C283 1.434 . S
C285 C286 1.369 . S
C285 C287 1.419 . S
C285 H289 0.930 . S
C286 C285 1.369 . S
C286 C295 1.429 . S
C287 C285 1.419 . S
C287 C288 1.363 . S
C287 H290 0.929 . S
C288 C287 1.363 . S
C288 C294 1.428 . S
H289 C285 0.930 . S
H290 C287 0.929 . S
S291 N292 1.613 . S
S291 N293 1.610 . S
N292 S291 1.613 . S
N292 C295 1.350 . S
N293 S291 1.610 . S
N293 C294 1.351 . S
C294 C288 1.428 . S
C294 N293 1.351 . S
C294 C295 1.434 . S
C295 C286 1.429 . S
C295 N292 1.350 . S
C295 C294 1.434 . S
C296 C297 1.369 . S
C296 C298 1.419 1_556 S
C296 H300 0.930 . S
C297 C296 1.369 . S
C297 C306 1.429 . S
C298 C296 1.419 1_554 S
C298 C299 1.363 . S
C298 H301 0.929 . S
C299 C298 1.363 . S
C299 C305 1.428 . S
H300 C296 0.930 . S
H301 C298 0.929 . S
S302 N303 1.596 1_554 S
S302 N304 1.627 . S
N303 S302 1.596 1_556 S
N303 C306 1.350 . S
N304 S302 1.627 . S
N304 C305 1.351 . S
C305 C299 1.428 . S
C305 N304 1.351 . S
C305 C306 1.434 1_554 S
C306 C297 1.429 . S
C306 N303 1.350 . S
C306 C305 1.434 1_556 S
C307 C308 1.369 . S
C307 C309 1.419 1_556 S
C307 H311 0.930 . S
C308 C307 1.369 . S
C308 C317 1.429 . S
C309 C307 1.419 1_554 S
C309 C310 1.363 . S
C309 H312 0.929 . S
C310 C309 1.363 . S
C310 C316 1.428 . S
H311 C307 0.930 . S
H312 C309 0.929 . S
S313 N314 1.613 . S
S313 N315 1.610 1_556 S
N314 S313 1.613 . S
N314 C317 1.350 . S
N315 S313 1.610 1_554 S
N315 C316 1.351 . S
C316 C310 1.428 . S
C316 N315 1.351 . S
C316 C317 1.434 1_554 S
C317 C308 1.429 . S
C317 N314 1.350 . S
C317 C316 1.434 1_556 S
C318 C319 1.369 . S
C318 C320 1.419 1_556 S
C318 H322 0.930 . S
C319 C318 1.369 . S
C319 C328 1.429 . S
C320 C318 1.419 1_554 S
C320 C321 1.363 . S
C320 H323 0.929 . S
C321 C320 1.363 . S
C321 C327 1.428 . S
H322 C318 0.930 . S
H323 C320 0.929 . S
S324 N325 1.613 . S
S324 N326 1.610 1_556 S
N325 S324 1.613 . S
N325 C328 1.350 . S
N326 S324 1.610 1_554 S
N326 C327 1.351 . S
C327 C321 1.428 . S
C327 N326 1.351 . S
C327 C328 1.434 1_554 S
C328 C319 1.429 . S
C328 N325 1.350 . S
C328 C327 1.434 1_556 S
C329 C330 1.369 . S
C329 C331 1.419 1_554 S
C329 H333 0.930 . S
C330 C329 1.369 . S
C330 C339 1.429 . S
C331 C329 1.419 1_556 S
C331 C332 1.363 . S
C331 H334 0.929 . S
C332 C331 1.363 . S
C332 C338 1.428 . S
H333 C329 0.930 . S
H334 C331 0.929 . S
S335 N336 1.613 . S
S335 N337 1.610 1_554 S
N336 S335 1.613 . S
N336 C339 1.350 . S
N337 S335 1.610 1_556 S
N337 C338 1.351 . S
C338 C332 1.428 . S
C338 N337 1.351 . S
C338 C339 1.434 1_556 S
C339 C330 1.429 . S
C339 N336 1.350 . S
C339 C338 1.434 1_554 S
C340 C341 1.369 . S
C340 C342 1.419 . S
C340 H344 0.930 . S
C341 C340 1.369 . S
C341 C350 1.429 . S
C342 C340 1.419 . S
C342 C343 1.363 . S
C342 H345 0.929 . S
C343 C342 1.363 . S
C343 C349 1.428 . S
H344 C340 0.930 . S
H345 C342 0.929 . S
S346 N347 1.613 . S
S346 N348 1.610 . S
N347 S346 1.613 . S
N347 C350 1.350 . S
N348 S346 1.610 . S
N348 C349 1.351 . S
C349 C343 1.428 . S
C349 N348 1.351 . S
C349 C350 1.434 . S
C350 C341 1.429 . S
C350 N347 1.350 . S
C350 C349 1.434 . S
C351 C352 1.369 . S
C351 C353 1.419 . S
C351 H355 0.930 . S
C352 C351 1.369 . S
C352 C361 1.429 . S
C353 C351 1.419 . S
C353 C354 1.363 . S
C353 H356 0.929 . S
C354 C353 1.363 . S
C354 C360 1.428 . S
H355 C351 0.930 . S
H356 C353 0.929 . S
S357 N358 1.613 . S
S357 N359 1.610 . S
N358 S357 1.613 . S
N358 C361 1.350 . S
N359 S357 1.610 . S
N359 C360 1.351 . S
C360 C354 1.428 . S
C360 N359 1.351 . S
C360 C361 1.434 . S
C361 C352 1.429 . S
C361 N358 1.350 . S
C361 C360 1.434 . S
C362 C363 1.369 . S
C362 C364 1.419 . S
C362 H366 0.930 . S
C363 C362 1.369 . S
C363 C372 1.429 . S
C364 C362 1.419 . S
C364 C365 1.363 . S
C364 H367 0.929 . S
C365 C364 1.363 . S
C365 C371 1.428 . S
H366 C362 0.930 . S
H367 C364 0.929 . S
S368 N369 1.613 . S
S368 N370 1.610 . S
N369 S368 1.613 . S
N369 C372 1.350 . S
N370 S368 1.610 . S
N370 C371 1.351 . S
C371 C365 1.428 . S
C371 N370 1.351 . S
C371 C372 1.434 . S
C372 C363 1.429 . S
C372 N369 1.350 . S
C372 C371 1.434 . S
C373 C374 1.369 . S
C373 C375 1.419 . S
C373 H377 0.930 . S
C374 C373 1.369 . S
C374 C383 1.429 . S
C375 C373 1.419 . S
C375 C376 1.363 . S
C375 H378 0.929 . S
C376 C375 1.363 . S
C376 C382 1.428 . S
H377 C373 0.930 . S
H378 C375 0.929 . S
S379 N380 1.613 . S
S379 N381 1.610 . S
N380 S379 1.613 . S
N380 C383 1.350 . S
N381 S379 1.610 . S
N381 C382 1.351 . S
C382 C376 1.428 . S
C382 N381 1.351 . S
C382 C383 1.434 . S
C383 C374 1.429 . S
C383 N380 1.350 . S
C383 C382 1.434 . S
C384 C385 1.369 . S
C384 C386 1.419 . S
C384 H388 0.930 . S
C385 C384 1.369 . S
C385 C394 1.429 . S
C386 C384 1.419 . S
C386 C387 1.363 . S
C386 H389 0.929 . S
C387 C386 1.363 . S
C387 C393 1.428 . S
H388 C384 0.930 . S
H389 C386 0.929 . S
S390 N391 1.613 . S
S390 N392 1.610 . S
N391 S390 1.613 . S
N391 C394 1.350 . S
N392 S390 1.610 . S
N392 C393 1.351 . S
C393 C387 1.428 . S
C393 N392 1.351 . S
C393 C394 1.434 . S
C394 C385 1.429 . S
C394 N391 1.350 . S
C394 C393 1.434 . S
C395 C396 1.369 . S
C395 C397 1.419 . S
C395 H399 0.930 . S
C396 C395 1.369 . S
C396 C405 1.429 . S
C397 C395 1.419 . S
C397 C398 1.363 . S
C397 H400 0.929 . S
C398 C397 1.363 . S
C398 C404 1.428 . S
H399 C395 0.930 . S
H400 C397 0.929 . S
S401 N402 1.613 . S
S401 N403 1.610 . S
N402 S401 1.613 . S
N402 C405 1.350 . S
N403 S401 1.610 . S
N403 C404 1.351 . S
C404 C398 1.428 . S
C404 N403 1.351 . S
C404 C405 1.434 . S
C405 C396 1.429 . S
C405 N402 1.350 . S
C405 C404 1.434 . S
C406 C407 1.369 . S
C406 C408 1.419 . S
C406 H410 0.930 . S
C407 C406 1.369 . S
C407 C416 1.429 . S
C408 C406 1.419 . S
C408 C409 1.363 . S
C408 H411 0.929 . S
C409 C408 1.363 . S
C409 C415 1.428 . S
H410 C406 0.930 . S
H411 C408 0.929 . S
S412 N413 1.613 . S
S412 N414 1.610 . S
N413 S412 1.613 . S
N413 C416 1.350 . S
N414 S412 1.610 . S
N414 C415 1.351 . S
C415 C409 1.428 . S
C415 N414 1.351 . S
C415 C416 1.434 . S
C416 C407 1.429 . S
C416 N413 1.350 . S
C416 C415 1.434 . S
C417 C418 1.369 . S
C417 C419 1.419 . S
C417 H421 0.930 . S
C418 C417 1.369 . S
C418 C427 1.429 . S
C419 C417 1.419 . S
C419 C420 1.363 . S
C419 H422 0.929 . S
C420 C419 1.363 . S
C420 C426 1.428 . S
H421 C417 0.930 . S
H422 C419 0.929 . S
S423 N424 1.613 . S
S423 N425 1.610 . S
N424 S423 1.613 . S
N424 C427 1.350 . S
N425 S423 1.610 . S
N425 C426 1.351 . S
C426 C420 1.428 . S
C426 N425 1.351 . S
C426 C427 1.434 . S
C427 C418 1.429 . S
C427 N424 1.350 . S
C427 C426 1.434 . S
C428 C429 1.369 . S
C428 C430 1.419 . S
C428 H432 0.930 . S
C429 C428 1.369 . S
C429 C438 1.429 . S
C430 C428 1.419 . S
C430 C431 1.363 . S
C430 H433 0.929 . S
C431 C430 1.363 . S
C431 C437 1.428 . S
H432 C428 0.930 . S
H433 C430 0.929 . S
S434 N435 1.613 . S
S434 N436 1.610 . S
N435 S434 1.613 . S
N435 C438 1.350 . S
N436 S434 1.610 . S
N436 C437 1.351 . S
C437 C431 1.428 . S
C437 N436 1.351 . S
C437 C438 1.434 . S
C438 C429 1.429 . S
C438 N435 1.350 . S
C438 C437 1.434 . S
C439 C440 1.369 . S
C439 C441 1.419 . S
C439 H443 0.930 . S
C440 C439 1.369 . S
C440 C449 1.429 . S
C441 C439 1.419 . S
C441 C442 1.363 . S
C441 H444 0.929 . S
C442 C441 1.363 . S
C442 C448 1.428 . S
H443 C439 0.930 . S
H444 C441 0.929 . S
S445 N446 1.613 . S
S445 N447 1.610 . S
N446 S445 1.613 . S
N446 C449 1.350 . S
N447 S445 1.610 . S
N447 C448 1.351 . S
C448 C442 1.428 . S
C448 N447 1.351 . S
C448 C449 1.434 . S
C449 C440 1.429 . S
C449 N446 1.350 . S
C449 C448 1.434 . S
C450 C451 1.369 . S
C450 C452 1.419 . S
C450 H454 0.930 . S
C451 C450 1.369 . S
C451 C460 1.429 . S
C452 C450 1.419 . S
C452 C453 1.363 . S
C452 H455 0.929 . S
C453 C452 1.363 . S
C453 C459 1.428 . S
H454 C450 0.930 . S
H455 C452 0.929 . S
S456 N457 1.613 . S
S456 N458 1.610 . S
N457 S456 1.613 . S
N457 C460 1.350 . S
N458 S456 1.610 . S
N458 C459 1.351 . S
C459 C453 1.428 . S
C459 N458 1.351 . S
C459 C460 1.434 . S
C460 C451 1.429 . S
C460 N457 1.350 . S
C460 C459 1.434 . S
C461 C462 1.369 . S
C461 C463 1.419 . S
C461 H465 0.930 . S
C462 C461 1.369 . S
C462 C471 1.429 . S
C463 C461 1.419 . S
C463 C464 1.363 . S
C463 H466 0.929 . S
C464 C463 1.363 . S
C464 C470 1.428 . S
H465 C461 0.930 . S
H466 C463 0.929 . S
S467 N468 1.613 . S
S467 N469 1.610 . S
N468 S467 1.613 . S
N468 C471 1.350 . S
N469 S467 1.610 . S
N469 C470 1.351 . S
C470 C464 1.428 . S
C470 N469 1.351 . S
C470 C471 1.434 . S
C471 C462 1.429 . S
C471 N468 1.350 . S
C471 C470 1.434 . S
C472 C473 1.369 . S
C472 C474 1.419 1_545 S
C472 H476 0.930 . S
C473 C472 1.369 . S
C473 C482 1.429 . S
C474 C472 1.419 1_565 S
C474 C475 1.363 . S
C474 H477 0.929 . S
C475 C474 1.363 . S
C475 C481 1.428 . S
H476 C472 0.930 . S
H477 C474 0.929 . S
S478 N479 1.613 . S
S478 N480 1.610 1_545 S
N479 S478 1.613 . S
N479 C482 1.350 . S
N480 S478 1.610 1_565 S
N480 C481 1.351 . S
C481 C475 1.428 . S
C481 N480 1.351 . S
C481 C482 1.434 1_565 S
C482 C473 1.429 . S
C482 N479 1.350 . S
C482 C481 1.434 1_545 S
C483 C484 1.369 . S
C483 C485 1.419 1_655 S
C483 H487 0.930 . S
C484 C483 1.369 . S
C484 C493 1.429 . S
C485 C483 1.419 1_455 S
C485 C486 1.363 . S
C485 H488 0.929 . S
C486 C485 1.363 . S
C486 C492 1.428 . S
H487 C483 0.930 . S
H488 C485 0.929 . S
S489 N490 1.613 . S
S489 N491 1.610 1_655 S
N490 S489 1.613 . S
N490 C493 1.350 . S
N491 S489 1.610 1_455 S
N491 C492 1.351 . S
C492 C486 1.428 . S
C492 N491 1.351 . S
C492 C493 1.434 1_455 S
C493 C484 1.429 . S
C493 N490 1.350 . S
C493 C492 1.434 1_655 S
C494 C495 1.369 . S
C494 C496 1.419 1_545 S
C494 H498 0.930 . S
C495 C494 1.369 . S
C495 C504 1.429 . S
C496 C494 1.419 1_565 S
C496 C497 1.363 . S
C496 H499 0.929 . S
C497 C496 1.363 . S
C497 C503 1.428 . S
H498 C494 0.930 . S
H499 C496 0.929 . S
S500 N501 1.613 . S
S500 N502 1.610 1_545 S
N501 S500 1.613 . S
N501 C504 1.350 . S
N502 S500 1.610 1_565 S
N502 C503 1.351 . S
C503 C497 1.428 . S
C503 N502 1.351 . S
C503 C504 1.434 1_565 S
C504 C495 1.429 . S
C504 N501 1.350 . S
C504 C503 1.434 1_545 S
C505 C506 1.369 . S
C505 C507 1.419 1_455 S
C505 H509 0.930 . S
C506 C505 1.369 . S
C506 C515 1.429 . S
C507 C505 1.419 1_655 S
C507 C508 1.363 . S
C507 H510 0.929 . S
C508 C507 1.363 . S
C508 C514 1.428 . S
H509 C505 0.930 . S
H510 C507 0.929 . S
S511 N512 1.613 1_655 S
S511 N513 1.610 . S
N512 S511 1.613 1_455 S
N512 C515 1.350 . S
N513 S511 1.610 . S
N513 C514 1.351 . S
C514 C508 1.428 . S
C514 N513 1.351 . S
C514 C515 1.434 1_655 S
C515 C506 1.429 . S
C515 N512 1.350 . S
C515 C514 1.434 1_455 S
C516 C517 1.369 . S
C516 C518 1.419 1_545 S
C516 H520 0.930 . S
C517 C516 1.369 . S
C517 C526 1.429 . S
C518 C516 1.419 1_565 S
C518 C519 1.363 . S
C518 H521 0.929 . S
C519 C518 1.363 . S
C519 C525 1.428 . S
H520 C516 0.930 . S
H521 C518 0.929 . S
S522 N523 1.613 1_565 S
S522 N524 1.610 . S
N523 S522 1.613 1_545 S
N523 C526 1.350 . S
N524 S522 1.610 . S
N524 C525 1.351 . S
C525 C519 1.428 . S
C525 N524 1.351 . S
C525 C526 1.434 1_565 S
C526 C517 1.429 . S
C526 N523 1.350 . S
C526 C525 1.434 1_545 S
C527 C528 1.369 . S
C527 C529 1.419 1_655 S
C527 H531 0.930 . S
C528 C527 1.369 . S
C528 C537 1.429 . S
C529 C527 1.419 1_455 S
C529 C530 1.363 . S
C529 H532 0.929 . S
C530 C529 1.363 . S
C530 C536 1.428 . S
H531 C527 0.930 . S
H532 C529 0.929 . S
S533 N534 1.613 1_455 S
S533 N535 1.610 . S
N534 S533 1.613 1_655 S
N534 C537 1.350 . S
N535 S533 1.610 . S
N535 C536 1.351 . S
C536 C530 1.428 . S
C536 N535 1.351 . S
C536 C537 1.434 1_455 S
C537 C528 1.429 . S
C537 N534 1.350 . S
C537 C536 1.434 1_655 S
C538 C539 1.369 . S
C538 C540 1.419 1_565 S
C538 H542 0.930 . S
C539 C538 1.369 . S
C539 C548 1.429 . S
C540 C538 1.419 1_545 S
C540 C541 1.363 . S
C540 H543 0.929 . S
C541 C540 1.363 . S
C541 C547 1.428 . S
H542 C538 0.930 . S
H543 C540 0.929 . S
S544 N545 1.613 . S
S544 N546 1.610 1_565 S
N545 S544 1.613 . S
N545 C548 1.350 . S
N546 S544 1.610 1_545 S
N546 C547 1.351 . S
C547 C541 1.428 . S
C547 N546 1.351 . S
C547 C548 1.434 1_545 S
C548 C539 1.429 . S
C548 N545 1.350 . S
C548 C547 1.434 1_565 S
C549 C550 1.369 . S
C549 C551 1.419 1_455 S
C549 H553 0.930 . S
C550 C549 1.369 . S
C550 C559 1.429 . S
C551 C549 1.419 1_655 S
C551 C552 1.363 . S
C551 H554 0.929 . S
C552 C551 1.363 . S
C552 C558 1.428 . S
H553 C549 0.930 . S
H554 C551 0.929 . S
S555 N556 1.613 1_655 S
S555 N557 1.610 . S
N556 S555 1.613 1_455 S
N556 C559 1.350 . S
N557 S555 1.610 . S
N557 C558 1.351 . S
C558 C552 1.428 . S
C558 N557 1.351 . S
C558 C559 1.434 1_655 S
C559 C550 1.429 . S
C559 N556 1.350 . S
C559 C558 1.434 1_455 S
C209 C69 1.601 . S
C211 C10 1.605 . S
C220 C82 1.605 . S
C222 C17 1.605 . S
C231 C30 1.604 . S
C233 C95 1.606 . S
C242 C43 1.606 . S
C244 C56 1.605 . S
C253 C179 1.605 . S
C255 C108 1.602 . S
C264 C186 1.607 . S
C266 C127 1.603 . S
C275 C134 1.604 . S
C277 C199 1.603 . S
C286 C153 1.604 . S
C288 C160 1.606 . S
C297 C140 1.629 . S
C299 C4 1.627 . S
C308 C147 1.625 . S
C310 C23 1.628 . S
C319 C114 1.627 . S
C321 C36 1.628 . S
C330 C49 1.624 . S
C332 C121 1.627 . S
C341 C192 1.629 . S
C343 C62 1.626 . S
C352 C205 1.627 . S
C354 C75 1.628 . S
C363 C88 1.626 . S
C365 C166 1.625 . S
C374 C173 1.628 . S
C376 C101 1.625 . S
C385 C57 1.813 . S
C387 C3 1.813 . S
C396 C18 1.813 . S
C398 C70 1.813 . S
C407 C31 1.813 . S
C409 C83 1.814 . S
C418 C96 1.813 . S
C420 C44 1.813 . S
C429 C107 1.280 . S
C431 C159 1.281 . S
C440 C174 1.277 . S
C442 C122 1.279 . S
C451 C133 1.275 . S
C453 C185 1.281 . S
C462 C198 1.282 . S
C464 C148 1.279 . S
C473 C146 1.813 . S
C475 C172 1.813 . S
C484 C109 1.813 . S
C486 C187 1.813 . S
C495 C200 1.812 . S
C497 C120 1.814 . S
C506 C135 1.814 . S
C508 C161 1.813 . S
C517 C68 1.276 . S
C519 C42 1.283 . S
C528 C81 1.276 . S
C530 C5 1.280 . S
C539 C94 1.283 . S
C541 C16 1.276 . S
C550 C55 1.277 . S
C552 C29 1.282 . S
