# Generated by pormake.
# Topology neb, (4)-cn, num edge types: 1
# Building blocks:
#     Node 0, Type 0, BuildingBlock: CEKHIL_clean_sbu_0, # of connection points: 4
#     Node 1, Type 0, BuildingBlock: CEKHIL_clean_sbu_0, # of connection points: 4
#     Node 2, Type 0, BuildingBlock: CEKHIL_clean_sbu_0, # of connection points: 4
#     Node 3, Type 0, BuildingBlock: CEKHIL_clean_sbu_0, # of connection points: 4
#     Node 4, Type 0, BuildingBlock: CEKHIL_clean_sbu_0, # of connection points: 4
#     Node 5, Type 0, BuildingBlock: CEKHIL_clean_sbu_0, # of connection points: 4
#     Node 6, Type 0, BuildingBlock: CEKHIL_clean_sbu_0, # of connection points: 4
#     Node 7, Type 0, BuildingBlock: CEKHIL_clean_sbu_0, # of connection points: 4
#     Node 8, Type 0, BuildingBlock: CEKHIL_clean_sbu_0, # of connection points: 4
#     Node 9, Type 0, BuildingBlock: CEKHIL_clean_sbu_0, # of connection points: 4
#     Node 10, Type 0, BuildingBlock: CEKHIL_clean_sbu_0, # of connection points: 4
#     Node 11, Type 0, BuildingBlock: CEKHIL_clean_sbu_0, # of connection points: 4
#     Node 12, Type 0, BuildingBlock: CEKHIL_clean_sbu_0, # of connection points: 4
#     Node 13, Type 0, BuildingBlock: CEKHIL_clean_sbu_0, # of connection points: 4
#     Node 14, Type 0, BuildingBlock: CEKHIL_clean_sbu_0, # of connection points: 4
#     Node 15, Type 0, BuildingBlock: CEKHIL_clean_sbu_0, # of connection points: 4
#     Edge 16, Type (0, 0), BuildingBlock: EZIPEK_clean_linker_0, # of connection points: 2
#     Edge 17, Type (0, 0), BuildingBlock: EZIPEK_clean_linker_0, # of connection points: 2
#     Edge 18, Type (0, 0), BuildingBlock: EZIPEK_clean_linker_0, # of connection points: 2
#     Edge 19, Type (0, 0), BuildingBlock: EZIPEK_clean_linker_0, # of connection points: 2
#     Edge 20, Type (0, 0), BuildingBlock: EZIPEK_clean_linker_0, # of connection points: 2
#     Edge 21, Type (0, 0), BuildingBlock: EZIPEK_clean_linker_0, # of connection points: 2
#     Edge 22, Type (0, 0), BuildingBlock: EZIPEK_clean_linker_0, # of connection points: 2
#     Edge 23, Type (0, 0), BuildingBlock: EZIPEK_clean_linker_0, # of connection points: 2
#     Edge 24, Type (0, 0), BuildingBlock: EZIPEK_clean_linker_0, # of connection points: 2
#     Edge 25, Type (0, 0), BuildingBlock: EZIPEK_clean_linker_0, # of connection points: 2
#     Edge 26, Type (0, 0), BuildingBlock: EZIPEK_clean_linker_0, # of connection points: 2
#     Edge 27, Type (0, 0), BuildingBlock: EZIPEK_clean_linker_0, # of connection points: 2
#     Edge 28, Type (0, 0), BuildingBlock: EZIPEK_clean_linker_0, # of connection points: 2
#     Edge 29, Type (0, 0), BuildingBlock: EZIPEK_clean_linker_0, # of connection points: 2
#     Edge 30, Type (0, 0), BuildingBlock: EZIPEK_clean_linker_0, # of connection points: 2
#     Edge 31, Type (0, 0), BuildingBlock: EZIPEK_clean_linker_0, # of connection points: 2
#     Edge 32, Type (0, 0), BuildingBlock: EZIPEK_clean_linker_0, # of connection points: 2
#     Edge 33, Type (0, 0), BuildingBlock: EZIPEK_clean_linker_0, # of connection points: 2
#     Edge 34, Type (0, 0), BuildingBlock: EZIPEK_clean_linker_0, # of connection points: 2
#     Edge 35, Type (0, 0), BuildingBlock: EZIPEK_clean_linker_0, # of connection points: 2
#     Edge 36, Type (0, 0), BuildingBlock: EZIPEK_clean_linker_0, # of connection points: 2
#     Edge 37, Type (0, 0), BuildingBlock: EZIPEK_clean_linker_0, # of connection points: 2
#     Edge 38, Type (0, 0), BuildingBlock: EZIPEK_clean_linker_0, # of connection points: 2
#     Edge 39, Type (0, 0), BuildingBlock: EZIPEK_clean_linker_0, # of connection points: 2
#     Edge 40, Type (0, 0), BuildingBlock: EZIPEK_clean_linker_0, # of connection points: 2
#     Edge 41, Type (0, 0), BuildingBlock: EZIPEK_clean_linker_0, # of connection points: 2
#     Edge 42, Type (0, 0), BuildingBlock: EZIPEK_clean_linker_0, # of connection points: 2
#     Edge 43, Type (0, 0), BuildingBlock: EZIPEK_clean_linker_0, # of connection points: 2
#     Edge 44, Type (0, 0), BuildingBlock: EZIPEK_clean_linker_0, # of connection points: 2
#     Edge 45, Type (0, 0), BuildingBlock: EZIPEK_clean_linker_0, # of connection points: 2
#     Edge 46, Type (0, 0), BuildingBlock: EZIPEK_clean_linker_0, # of connection points: 2
#     Edge 47, Type (0, 0), BuildingBlock: EZIPEK_clean_linker_0, # of connection points: 2
# Relax obj value: 0.002
# Max RMSD: 0.026
# Mean RMSD: 0.026
data_MOF--net-neb--node1-CEKHIL_clean_sbu_0--edge1-EZIPEK_clean_linker_0
_symmetry_space_group_name_H-M    P1
_symmetry_Int_Tables_number       1
_symmetry_cell_setting            triclinic
loop_
_symmetry_equiv_pos_as_xyz
'x, y, z'
_cell_length_a     30.202569
_cell_length_b     16.558089
_cell_length_c     55.646777
_cell_angle_alpha  89.996927
_cell_angle_beta   93.387416
_cell_angle_gamma 90.03757
loop_
_atom_site_label
_atom_site_type_symbol
_atom_site_fract_x
_atom_site_fract_y
_atom_site_fract_z
_atom_type_partial_charge
Co0 Co 0.1289 0.11125 0.45359 0.0
O1 O 0.11471 0.03969 0.47966 0.0
O2 O 0.06503 0.10548 0.45648 0.0
C3 C 0.18325 0.17823 0.47548 0.0
O4 O 0.12991 0.19247 0.42566 0.0
Co5 Co 0.22074 0.11567 0.43225 0.0
O6 O 0.20003 0.21729 0.41649 0.0
C7 C 0.15671 0.9878 0.41663 0.0
C8 C 0.07338 0.05759 0.47472 0.0
C9 C 0.15867 0.23209 0.41406 0.0
O10 O 0.12715 0.01826 0.42977 0.0
O11 O 0.19623 0.01538 0.416 0.0
O12 O 0.14192 0.19807 0.4768 0.0
O13 O 0.19063 0.11647 0.46206 0.0
Co14 Co 0.12984 0.11521 0.80957 0.0
O15 O 0.14431 0.043 0.78367 0.0
O16 O 0.19376 0.11026 0.80663 0.0
C17 C 0.07512 0.18212 0.78788 0.0
O18 O 0.12858 0.19692 0.83733 0.0
Co19 Co 0.03805 0.11717 0.83105 0.0
O20 O 0.05868 0.21715 0.84774 0.0
C21 C 0.10269 0.99068 0.84646 0.0
C22 C 0.18557 0.06156 0.78858 0.0
C23 C 0.09985 0.23408 0.84959 0.0
O24 O 0.13211 0.02262 0.83352 0.0
O25 O 0.06288 0.01674 0.84697 0.0
O26 O 0.11644 0.20145 0.78621 0.0
O27 O 0.06796 0.11988 0.80116 0.0
Co28 Co 0.88185 0.88877 0.55795 0.0
O29 O 0.89513 0.96204 0.5321 0.0
O30 O 0.9455 0.89494 0.55447 0.0
C31 C 0.82674 0.8232 0.53631 0.0
O32 O 0.88195 0.80573 0.58541 0.0
Co33 Co 0.7906 0.8829 0.58026 0.0
O34 O 0.8124 0.78159 0.59579 0.0
C35 C 0.85453 0.01146 0.59523 0.0
C36 C 0.93658 0.94386 0.53655 0.0
C37 C 0.85375 0.76609 0.59738 0.0
O38 O 0.88414 0.98032 0.58223 0.0
O39 O 0.81486 0.98458 0.59577 0.0
O40 O 0.86796 0.80361 0.53431 0.0
O41 O 0.81999 0.88386 0.55024 0.0
Co42 Co 0.8778 0.88281 0.20657 0.0
O43 O 0.86352 0.95561 0.23239 0.0
O44 O 0.81406 0.88586 0.21019 0.0
C45 C 0.93428 0.81929 0.22786 0.0
O46 O 0.8787 0.7999 0.17914 0.0
Co47 Co 0.96881 0.88343 0.18393 0.0
O48 O 0.94822 0.78227 0.16777 0.0
C49 C 0.90284 0.0087 0.16955 0.0
C50 C 0.82228 0.9357 0.22796 0.0
C51 C 0.90728 0.76337 0.16664 0.0
O52 O 0.87377 0.97431 0.18223 0.0
O53 O 0.94316 0.9852 0.16917 0.0
O54 O 0.89336 0.79809 0.23019 0.0
O55 O 0.93986 0.88088 0.21409 0.0
Co56 Co 0.12503 0.6136 0.95496 0.0
O57 O 0.11269 0.5374 0.98037 0.0
O58 O 0.0616 0.60652 0.95918 0.0
C59 C 0.18126 0.67901 0.97617 0.0
O60 O 0.12287 0.70004 0.92843 0.0
Co61 Co 0.21471 0.62059 0.93121 0.0
O62 O 0.18903 0.71264 0.91227 0.0
C63 C 0.15198 0.4909 0.91719 0.0
C64 C 0.07109 0.55586 0.97655 0.0
C65 C 0.14872 0.73347 0.91371 0.0
O66 O 0.12209 0.5241 0.92968 0.0
O67 O 0.19225 0.51512 0.91769 0.0
O68 O 0.14012 0.69694 0.97918 0.0
O69 O 0.18737 0.61903 0.9619 0.0
Co70 Co 0.13577 0.61055 0.30801 0.0
O71 O 0.14849 0.53455 0.28259 0.0
O72 O 0.19929 0.60393 0.30393 0.0
C73 C 0.07966 0.67552 0.28658 0.0
O74 O 0.13761 0.69697 0.33454 0.0
Co75 Co 0.04576 0.61757 0.33142 0.0
O76 O 0.0711 0.71019 0.35027 0.0
C77 C 0.10832 0.48781 0.34566 0.0
C78 C 0.19003 0.55344 0.28648 0.0
C79 C 0.11152 0.73078 0.34906 0.0
O80 O 0.13847 0.52101 0.33331 0.0
O81 O 0.06804 0.51199 0.34491 0.0
O82 O 0.12081 0.69385 0.28374 0.0
O83 O 0.07349 0.61561 0.30086 0.0
Co84 Co 0.88202 0.38231 0.06084 0.0
O85 O 0.89635 0.45721 0.03551 0.0
O86 O 0.94578 0.38579 0.05717 0.0
C87 C 0.82561 0.31933 0.03884 0.0
O88 O 0.88151 0.29605 0.0874 0.0
Co89 Co 0.79246 0.38292 0.08383 0.0
O90 O 0.81567 0.2925 0.10422 0.0
C91 C 0.85747 0.50714 0.09867 0.0
C92 C 0.93755 0.4368 0.03972 0.0
C93 C 0.85502 0.26694 0.10257 0.0
O94 O 0.88634 0.47249 0.08588 0.0
O95 O 0.81702 0.48454 0.09872 0.0
O96 O 0.86674 0.29919 0.03682 0.0
O97 O 0.81952 0.3802 0.05291 0.0
Co98 Co 0.87863 0.38857 0.7037 0.0
O99 O 0.86689 0.46585 0.72886 0.0
O100 O 0.81529 0.39686 0.7079 0.0
C101 C 0.93477 0.32336 0.7251 0.0
O102 O 0.87613 0.30098 0.67752 0.0
Co103 Co 0.96751 0.38142 0.67961 0.0
O104 O 0.94143 0.29054 0.66032 0.0
C105 C 0.9046 0.5102 0.6654 0.0
C106 C 0.8252 0.44816 0.72505 0.0
C107 C 0.90148 0.26851 0.66238 0.0
O108 O 0.8752 0.47701 0.67817 0.0
O109 O 0.9448 0.48588 0.66552 0.0
O110 O 0.89355 0.30623 0.72817 0.0
O111 O 0.94112 0.38287 0.71064 0.0
Co112 Co 0.62972 0.12031 0.95193 0.0
O113 O 0.61639 0.04507 0.97735 0.0
O114 O 0.56606 0.11502 0.95586 0.0
C115 C 0.68634 0.18421 0.9734 0.0
O116 O 0.62945 0.20638 0.92526 0.0
Co117 Co 0.71922 0.11965 0.92845 0.0
O118 O 0.69508 0.20963 0.90811 0.0
C119 C 0.65454 0.99332 0.91502 0.0
C120 C 0.57499 0.06413 0.97326 0.0
C121 C 0.65572 0.23519 0.90992 0.0
O122 O 0.62531 0.03069 0.92686 0.0
O123 O 0.69537 0.01416 0.9156 0.0
O124 O 0.64523 0.20324 0.97604 0.0
O125 O 0.6922 0.12343 0.95931 0.0
Co126 Co 0.63021 0.11335 0.3095 0.0
O127 O 0.64357 0.03831 0.28404 0.0
O128 O 0.69379 0.10884 0.30548 0.0
C129 C 0.57327 0.17708 0.28817 0.0
O130 O 0.63067 0.19958 0.33606 0.0
Co131 Co 0.54135 0.11205 0.33337 0.0
O132 O 0.56573 0.20145 0.35386 0.0
C133 C 0.6065 0.98692 0.34699 0.0
C134 C 0.68494 0.05783 0.28811 0.0
C135 C 0.60485 0.22769 0.35171 0.0
O136 O 0.6352 0.0237 0.33461 0.0
O137 O 0.56584 0.00829 0.34699 0.0
O138 O 0.61436 0.19621 0.28547 0.0
O139 O 0.56754 0.1161 0.30225 0.0
Co140 Co 0.38348 0.88733 0.05566 0.0
O141 O 0.39733 0.95995 0.02969 0.0
O142 O 0.44716 0.89077 0.05174 0.0
C143 C 0.32683 0.82318 0.03467 0.0
O144 O 0.38297 0.80465 0.08323 0.0
Co145 Co 0.29277 0.88824 0.07862 0.0
O146 O 0.31372 0.78808 0.09518 0.0
C147 C 0.35884 0.01378 0.09262 0.0
C148 C 0.43864 0.94041 0.03395 0.0
C149 C 0.35459 0.76882 0.09605 0.0
O150 O 0.38773 0.97921 0.07986 0.0
O151 O 0.31854 0.99027 0.09315 0.0
O152 O 0.36772 0.80221 0.0322 0.0
O153 O 0.32136 0.88501 0.04836 0.0
Co154 Co 0.37458 0.89211 0.70359 0.0
O155 O 0.36148 0.96391 0.72985 0.0
O156 O 0.31116 0.89439 0.7082 0.0
C157 C 0.43242 0.82784 0.72371 0.0
O158 O 0.37421 0.8091 0.6761 0.0
Co159 Co 0.46314 0.89776 0.67912 0.0
O160 O 0.44107 0.80272 0.6604 0.0
C161 C 0.39567 0.02052 0.66607 0.0
C162 C 0.32015 0.9438 0.726 0.0
C163 C 0.40123 0.77853 0.66144 0.0
O164 O 0.36827 0.98446 0.67945 0.0
O165 O 0.43612 0.99895 0.66487 0.0
O166 O 0.3917 0.80706 0.72674 0.0
O167 O 0.43721 0.8906 0.71022 0.0
Co168 Co 0.62791 0.61281 0.45512 0.0
O169 O 0.61365 0.54098 0.4811 0.0
O170 O 0.56416 0.60958 0.45854 0.0
C171 C 0.68388 0.67713 0.47649 0.0
O172 O 0.62908 0.69498 0.42747 0.0
Co173 Co 0.71896 0.61117 0.43283 0.0
O174 O 0.6986 0.71104 0.41589 0.0
C175 C 0.65321 0.48549 0.41862 0.0
C176 C 0.57245 0.56045 0.47649 0.0
C177 C 0.65777 0.73069 0.41482 0.0
O178 O 0.6241 0.52046 0.43111 0.0
O179 O 0.69356 0.50887 0.41827 0.0
O180 O 0.64291 0.69844 0.47844 0.0
O181 O 0.68988 0.61501 0.46298 0.0
Co182 Co 0.63182 0.62263 0.80625 0.0
O183 O 0.64675 0.55139 0.78018 0.0
O184 O 0.69562 0.62061 0.80291 0.0
C185 C 0.57541 0.68806 0.78519 0.0
O186 O 0.63048 0.70468 0.8339 0.0
Co187 Co 0.54158 0.61706 0.82891 0.0
O188 O 0.56356 0.70754 0.84961 0.0
C189 C 0.60784 0.49335 0.84288 0.0
C190 C 0.68789 0.57146 0.78493 0.0
C191 C 0.60326 0.73277 0.84886 0.0
O192 O 0.63628 0.52934 0.83014 0.0
O193 O 0.56738 0.51551 0.84344 0.0
O194 O 0.61646 0.70867 0.78311 0.0
O195 O 0.56947 0.62486 0.79833 0.0
Co196 Co 0.37905 0.39282 0.55822 0.0
O197 O 0.39583 0.46778 0.53354 0.0
O198 O 0.44321 0.39493 0.55619 0.0
C199 C 0.32428 0.33168 0.53511 0.0
O200 O 0.37457 0.30638 0.58457 0.0
Co201 Co 0.28558 0.39721 0.57828 0.0
O202 O 0.30552 0.30248 0.59778 0.0
C203 C 0.35154 0.51902 0.59479 0.0
C204 C 0.43658 0.44617 0.53861 0.0
C205 C 0.34522 0.27653 0.59807 0.0
O206 O 0.38159 0.48218 0.58338 0.0
O207 O 0.31059 0.49877 0.59336 0.0
O208 O 0.36546 0.31117 0.53351 0.0
O209 O 0.31771 0.39232 0.54913 0.0
Co210 Co 0.37961 0.38577 0.20153 0.0
O211 O 0.36511 0.45904 0.22723 0.0
O212 O 0.31581 0.38871 0.20513 0.0
C213 C 0.43587 0.32129 0.22328 0.0
O214 O 0.3804 0.30094 0.1746 0.0
Co215 Co 0.46906 0.38901 0.17871 0.0
O216 O 0.44652 0.29857 0.1581 0.0
C217 C 0.40391 0.51277 0.16413 0.0
C218 C 0.32394 0.4387 0.22286 0.0
C219 C 0.40718 0.2725 0.15949 0.0
O220 O 0.37524 0.47743 0.17691 0.0
O221 O 0.44436 0.49048 0.1639 0.0
O222 O 0.39466 0.30113 0.22504 0.0
O223 O 0.44215 0.38335 0.20966 0.0
C224 C 0.28058 0.20805 0.52169 0.0
C225 C 0.28781 0.29269 0.52 0.0
C226 C 0.22863 0.30117 0.48765 0.0
C227 C 0.21925 0.21791 0.49071 0.0
N228 N 0.23038 0.09558 0.5138 0.0
N229 N 0.26727 0.42157 0.50223 0.0
C230 C 0.24379 0.17216 0.5085 0.0
C231 C 0.26112 0.33984 0.50337 0.0
N232 N 0.30893 0.16146 0.53584 0.0
N233 N 0.20815 0.34233 0.46882 0.0
H234 H 0.29374 0.45158 0.51114 0.0
H235 H 0.24504 0.46064 0.49318 0.0
H236 H 0.1845 0.31594 0.45696 0.0
H237 H 0.2169 0.40032 0.46367 0.0
H238 H 0.30893 0.09859 0.53532 0.0
H239 H 0.33433 0.18516 0.54721 0.0
H240 H 0.24354 0.06254 0.52845 0.0
H241 H 0.20313 0.06747 0.50497 0.0
C242 C 0.97045 0.94895 0.49614 0.0
C243 C 0.97157 0.97343 0.52072 0.0
C244 C 0.03885 0.05383 0.51494 0.0
C245 C 0.03793 0.02895 0.4904 0.0
N246 N 1.00145 0.9592 0.45682 0.0
N247 N 0.00838 0.04251 0.55434 0.0
C248 C 1.00319 0.9785 0.48077 0.0
C249 C 0.00632 0.02383 0.53034 0.0
N250 N 0.93966 0.8932 0.48792 0.0
N251 N 0.06922 0.11039 0.52309 0.0
H252 H 0.98357 0.027 0.56575 0.0
H253 H 0.03549 0.06991 0.5634 0.0
H254 H 0.09296 0.13501 0.51239 0.0
H255 H 0.06922 0.13807 0.53986 0.0
H256 H 0.93924 0.86598 0.47108 0.0
H257 H 0.91571 0.8691 0.49859 0.0
H258 H 0.97457 0.93132 0.4477 0.0
H259 H 0.02643 0.97441 0.44547 0.0
C260 C 0.27653 0.05817 0.74328 0.0
C261 C 0.28529 0.97394 0.74186 0.0
C262 C 0.23178 0.94836 0.7729 0.0
C263 C 0.22115 0.03186 0.77321 0.0
N264 N 0.22852 0.16511 0.75651 0.0
N265 N 0.26943 0.83752 0.75403 0.0
C266 C 0.24248 0.08657 0.75794 0.0
C267 C 0.26216 0.91865 0.75622 0.0
N268 N 0.3007 0.11126 0.73051 0.0
N269 N 0.21422 0.89804 0.78938 0.0
H270 H 0.29383 0.81342 0.74367 0.0
H271 H 0.24992 0.7934 0.76151 0.0
H272 H 0.19211 0.91777 0.80184 0.0
H273 H 0.22384 0.83827 0.79209 0.0
H274 H 0.30039 0.1735 0.73311 0.0
H275 H 0.32304 0.09307 0.71799 0.0
H276 H 0.23867 0.20609 0.74377 0.0
H277 H 0.20401 0.18841 0.76697 0.0
C278 C 0.0265 0.18115 0.74967 0.0
C279 C 0.03938 0.21901 0.77187 0.0
C280 C 0.98232 0.32311 0.76389 0.0
C281 C 0.97157 0.28841 0.74093 0.0
N282 N 0.98959 0.19428 0.71006 0.0
N283 N 0.03549 0.33393 0.79817 0.0
C284 C 0.99542 0.22015 0.73329 0.0
C285 C 0.019 0.29237 0.77842 0.0
N286 N 0.04367 0.10739 0.74426 0.0
N287 N 0.95704 0.38469 0.77201 0.0
H288 H 0.06222 0.31316 0.80909 0.0
H289 H 0.02532 0.39189 0.80255 0.0
H290 H 0.93098 0.41077 0.76162 0.0
H291 H 0.95981 0.4062 0.78962 0.0
H292 H 0.03174 0.07231 0.72975 0.0
H293 H 0.0678 0.07822 0.75526 0.0
H294 H 0.00916 0.1504 0.7025 0.0
H295 H 0.96768 0.22243 0.69769 0.0
C296 C 0.77876 0.70332 0.52442 0.0
C297 C 0.79019 0.78559 0.52101 0.0
C298 C 0.73414 0.79498 0.48717 0.0
C299 C 0.72081 0.71438 0.49159 0.0
N300 N 0.72533 0.59549 0.51664 0.0
N301 N 0.77715 0.91237 0.50034 0.0
C302 C 0.74194 0.66933 0.51073 0.0
C303 C 0.76721 0.83227 0.50281 0.0
N304 N 0.80315 0.65754 0.54077 0.0
N305 N 0.71659 0.83462 0.46729 0.0
H306 H 0.80371 0.94055 0.50976 0.0
H307 H 0.75785 0.95237 0.4898 0.0
H308 H 0.69233 0.80921 0.45561 0.0
H309 H 0.72816 0.88975 0.46123 0.0
H310 H 0.80041 0.59505 0.54206 0.0
H311 H 0.82824 0.68155 0.55224 0.0
H312 H 0.73577 0.56344 0.53203 0.0
H313 H 0.69836 0.5686 0.50719 0.0
C314 C 0.7211 0.0517 0.24838 0.0
C315 C 0.7201 0.02628 0.27276 0.0
C316 C 0.78714 0.94437 0.26807 0.0
C317 C 0.7866 0.96598 0.24326 0.0
N318 N 0.75056 0.03335 0.20904 0.0
N319 N 0.74791 0.94013 0.30502 0.0
C320 C 0.75262 0.01723 0.23318 0.0
C321 C 0.75215 0.97066 0.28243 0.0
N322 N 0.69327 0.11199 0.24009 0.0
N323 N 0.82116 0.89844 0.27796 0.0
H324 H 0.72297 0.95828 0.31604 0.0
H325 H 0.76682 0.89255 0.31227 0.0
H326 H 0.84538 0.87241 0.26786 0.0
H327 H 0.82683 0.88928 0.29639 0.0
H328 H 0.69524 0.13983 0.22342 0.0
H329 H 0.67025 0.13935 0.25071 0.0
H330 H 0.72372 0.06159 0.19996 0.0
H331 H 0.77462 0.01427 0.19761 0.0
C332 C 0.98651 0.70312 0.23765 0.0
C333 C 0.97175 0.78245 0.24271 0.0
C334 C 0.02525 0.78904 0.27775 0.0
C335 C 0.04238 0.71247 0.27158 0.0
N336 N 0.0435 0.60057 0.24394 0.0
N337 N 0.97972 0.90486 0.26611 0.0
C338 C 0.02405 0.67048 0.25107 0.0
C339 C 0.99211 0.8267 0.26226 0.0
N340 N 0.96436 0.65861 0.22012 0.0
N341 N 0.03913 0.82402 0.29908 0.0
H342 H 0.95355 0.93305 0.25637 0.0
H343 H 0.99702 0.94368 0.27802 0.0
H344 H 0.06262 0.79716 0.31088 0.0
H345 H 0.02482 0.87536 0.30612 0.0
H346 H 0.96975 0.59731 0.21737 0.0
H347 H 0.93833 0.68198 0.2092 0.0
H348 H 0.03513 0.57164 0.2277 0.0
H349 H 0.07057 0.57423 0.25345 0.0
C350 C 0.27374 0.70783 0.0254 0.0
C351 C 0.28929 0.78628 0.0199 0.0
C352 C 0.2365 0.79166 0.98454 0.0
C353 C 0.21859 0.71608 0.99112 0.0
N354 N 0.21598 0.6064 0.01946 0.0
N355 N 0.28273 0.90715 0.99572 0.0
C356 C 0.23615 0.67522 0.012 0.0
C357 C 0.26966 0.82958 0.99997 0.0
N358 N 0.29524 0.66405 0.04332 0.0
N359 N 0.22326 0.82546 0.96294 0.0
H360 H 0.30882 0.93547 1.00551 0.0
H361 H 0.266 0.94549 0.98346 0.0
H362 H 0.19963 0.79852 0.95124 0.0
H363 H 0.23816 0.87582 0.95566 0.0
H364 H 0.28922 0.60317 0.04647 0.0
H365 H 0.32138 0.68747 0.05415 0.0
H366 H 0.22378 0.57856 0.03594 0.0
H367 H 0.18892 0.58 0.00995 0.0
C368 C 0.02501 0.44201 0.99236 0.0
C369 C 0.03653 0.52527 0.99255 0.0
C370 C 0.98471 0.5499 0.02451 0.0
C371 C 0.97299 0.46673 0.02421 0.0
N372 N 0.97717 0.3351 1.00602 0.0
N373 N 0.03226 0.657 0.01067 0.0
C374 C 0.99225 0.41297 0.0078 0.0
C375 C 0.01734 0.579 0.00899 0.0
N376 N 0.04584 0.39059 0.97747 0.0
N377 N 0.96412 0.60119 0.03955 0.0
H378 H 0.05595 0.68053 0.99971 0.0
H379 H 0.02352 0.69781 0.02376 0.0
H380 H 0.94284 0.58105 0.05237 0.0
H381 H 0.96646 0.6638 0.03894 0.0
H382 H 0.04363 0.32798 0.97822 0.0
H383 H 0.0673 0.41068 0.96475 0.0
H384 H 0.98583 0.29452 0.99284 0.0
H385 H 0.95342 0.31155 0.01694 0.0
C386 C 0.26909 0.41272 0.25459 0.0
C387 C 0.28842 0.46753 0.2385 0.0
C388 C 0.24392 0.57863 0.25421 0.0
C389 C 0.22472 0.52391 0.27039 0.0
N390 N 0.21554 0.38839 0.28484 0.0
N391 N 0.29758 0.60308 0.22402 0.0
C392 C 0.23631 0.44072 0.27018 0.0
C393 C 0.27674 0.55066 0.23865 0.0
N394 N 0.28414 0.33479 0.25595 0.0
N395 N 0.22882 0.65651 0.2528 0.0
H396 H 0.31908 0.58398 0.21119 0.0
H397 H 0.29531 0.66562 0.22508 0.0
H398 H 0.205 0.67931 0.26379 0.0
H399 H 0.23746 0.69785 0.23981 0.0
H400 H 0.2754 0.29332 0.26888 0.0
H401 H 0.30791 0.31201 0.24493 0.0
H402 H 0.21782 0.32584 0.28383 0.0
H403 H 0.19411 0.4077 0.29766 0.0
C404 C 0.75667 0.26663 0.98079 0.0
C405 C 0.72295 0.21729 0.98983 0.0
C406 C 0.75371 0.24163 0.03111 0.0
C407 C 0.78937 0.28623 0.02206 0.0
N408 N 0.82646 0.33779 0.98794 0.0
N409 N 0.69476 0.14416 0.02311 0.0
C410 C 0.79143 0.29726 0.99677 0.0
C411 C 0.72289 0.20129 0.01487 0.0
N412 N 0.75436 0.28728 0.95701 0.0
N413 N 0.74889 0.23821 0.05529 0.0
H414 H 0.67255 0.11167 0.01178 0.0
H415 H 0.69637 0.12294 0.04075 0.0
H416 H 0.77157 0.26411 0.06767 0.0
H417 H 0.72083 0.21539 0.06294 0.0
H418 H 0.7742 0.33096 0.94957 0.0
H419 H 0.73013 0.26434 0.94491 0.0
H420 H 0.83344 0.33797 0.96985 0.0
H421 H 0.84997 0.36904 0.99879 0.0
C422 C 0.758 0.49096 0.78004 0.0
C423 C 0.724 0.54192 0.76982 0.0
C424 C 0.75884 0.53724 0.73077 0.0
C425 C 0.79076 0.48157 0.74053 0.0
N426 N 0.81829 0.39776 0.77351 0.0
N427 N 0.69026 0.61089 0.73519 0.0
C428 C 0.78991 0.4569 0.76499 0.0
C429 C 0.72386 0.56397 0.74506 0.0
N430 N 0.75971 0.47478 0.80418 0.0
N431 N 0.76325 0.56744 0.70814 0.0
H432 H 0.66643 0.63793 0.74534 0.0
H433 H 0.68464 0.62041 0.71678 0.0
H434 H 0.78838 0.54932 0.69724 0.0
H435 H 0.74434 0.61476 0.70074 0.0
H436 H 0.78648 0.44684 0.81341 0.0
H437 H 0.73535 0.49338 0.81548 0.0
H438 H 0.81635 0.37001 0.79019 0.0
H439 H 0.84213 0.37158 0.76318 0.0
C440 C 0.50763 0.97715 0.97908 0.0
C441 C 0.53995 0.0324 0.98871 0.0
C442 C 0.50831 0.02199 0.02851 0.0
C443 C 0.47405 0.9711 0.0185 0.0
N444 N 0.43869 0.90477 0.98379 0.0
N445 N 0.56765 0.11683 0.02151 0.0
C446 C 0.47294 0.95038 0.9936 0.0
C447 C 0.53954 0.05692 0.01319 0.0
N448 N 0.51134 0.9473 0.95637 0.0
N449 N 0.51092 0.03736 0.0527 0.0
H450 H 0.59047 0.14454 0.01083 0.0
H451 H 0.5661 0.14408 0.03828 0.0
H452 H 0.48705 0.01816 0.06422 0.0
H453 H 0.53801 0.06515 0.0617 0.0
H454 H 0.49221 0.90001 0.9491 0.0
H455 H 0.5361 0.96567 0.94525 0.0
H456 H 0.43256 0.89637 0.96536 0.0
H457 H 0.41475 0.87819 0.99398 0.0
C458 C 0.46792 0.29088 0.26533 0.0
C459 C 0.4718 0.28643 0.23997 0.0
C460 C 0.53842 0.20157 0.24665 0.0
C461 C 0.53656 0.21103 0.2719 0.0
N462 N 0.50121 0.26847 0.30551 0.0
N463 N 0.51503 0.2479 0.20675 0.0
C464 C 0.50146 0.25607 0.28129 0.0
C465 C 0.50844 0.24517 0.23075 0.0
N466 N 0.43233 0.3294 0.27425 0.0
N467 N 0.56728 0.14697 0.23778 0.0
H468 H 0.49299 0.27587 0.19447 0.0
H469 H 0.54391 0.22806 0.19928 0.0
H470 H 0.58839 0.1113 0.24881 0.0
H471 H 0.56708 0.13047 0.21973 0.0
H472 H 0.42366 0.32464 0.29202 0.0
H473 H 0.41026 0.36484 0.26374 0.0
H474 H 0.48052 0.30912 0.31364 0.0
H475 H 0.52383 0.24081 0.31758 0.0
C476 C 0.49429 0.72624 0.73093 0.0
C477 C 0.47 0.79335 0.73904 0.0
C478 C 0.51299 0.7886 0.77801 0.0
C479 C 0.53883 0.7242 0.76945 0.0
N480 N 0.5583 0.63818 0.73677 0.0
N481 N 0.45962 0.89569 0.76896 0.0
C482 C 0.53066 0.69495 0.7456 0.0
C483 C 0.48034 0.82652 0.76223 0.0
N484 N 0.48177 0.6909 0.70943 0.0
N485 N 0.51915 0.81262 0.80143 0.0
H486 H 0.43493 0.92419 0.75818 0.0
H487 H 0.46889 0.92843 0.78441 0.0
H488 H 0.54412 0.789 0.81296 0.0
H489 H 0.49813 0.85189 0.80987 0.0
H490 H 0.49425 0.63617 0.7036 0.0
H491 H 0.45647 0.71399 0.69799 0.0
H492 H 0.55785 0.62153 0.71872 0.0
H493 H 0.58391 0.61102 0.74722 0.0
C494 C 0.48415 0.55823 0.5233 0.0
C495 C 0.47314 0.47475 0.5237 0.0
C496 C 0.52678 0.44768 0.49289 0.0
C497 C 0.53705 0.53138 0.49208 0.0
N498 N 0.53023 0.66556 0.50821 0.0
N499 N 0.47897 0.34139 0.50679 0.0
C500 C 0.51662 0.58665 0.50759 0.0
C501 C 0.4935 0.41967 0.50812 0.0
N502 N 0.46318 0.61023 0.53798 0.0
N503 N 0.54932 0.39473 0.47923 0.0
H504 H 0.45499 0.31824 0.51762 0.0
H505 H 0.48823 0.30016 0.49392 0.0
H506 H 0.57138 0.4132 0.46658 0.0
H507 H 0.54809 0.33228 0.48113 0.0
H508 H 0.46509 0.67281 0.53703 0.0
H509 H 0.44243 0.59044 0.55109 0.0
H510 H 0.5201 0.70835 0.52039 0.0
H511 H 0.55394 0.68846 0.49716 0.0
C512 C 0.13755 0.77649 0.39058 0.0
C513 C 0.12885 0.7951 0.36584 0.0
C514 C 0.13653 0.93967 0.37475 0.0
C515 C 0.14409 0.92139 0.3996 0.0
N516 N 0.14831 0.82465 0.43189 0.0
N517 N 0.13263 0.89078 0.33354 0.0
C518 C 0.14366 0.84025 0.40774 0.0
C519 C 0.13196 0.87577 0.35766 0.0
N520 N 0.14282 0.69751 0.39725 0.0
N521 N 0.13165 0.01842 0.36766 0.0
H522 H 0.13212 0.84469 0.32077 0.0
H523 H 0.13866 0.94739 0.3263 0.0
H524 H 0.13345 0.06644 0.37981 0.0
H525 H 0.12173 0.03606 0.35022 0.0
H526 H 0.1517 0.67813 0.41464 0.0
H527 H 0.1426 0.65107 0.38459 0.0
H528 H 0.14437 0.76788 0.43946 0.0
H529 H 0.15358 0.87004 0.44475 0.0
C530 C 0.12016 0.36442 0.40393 0.0
C531 C 0.14341 0.29537 0.39626 0.0
C532 C 0.13883 0.34825 0.35469 0.0
C533 C 0.12059 0.42128 0.36295 0.0
N534 N 0.09835 0.50297 0.39619 0.0
N535 N 0.17747 0.22323 0.36431 0.0
C536 C 0.11219 0.43021 0.38775 0.0
C537 C 0.15373 0.28808 0.37165 0.0
N538 N 0.10528 0.36753 0.42665 0.0
N539 N 0.13931 0.33415 0.33049 0.0
H540 H 0.18567 0.17393 0.37531 0.0
H541 H 0.19113 0.2201 0.34758 0.0
H542 H 0.12708 0.37547 0.31761 0.0
H543 H 0.1477 0.27882 0.32313 0.0
H544 H 0.08312 0.41101 0.43214 0.0
H545 H 0.11203 0.32346 0.43967 0.0
H546 H 0.09779 0.51686 0.41442 0.0
H547 H 0.09065 0.55234 0.38517 0.0
C548 C 0.10672 0.2902 0.89194 0.0
C549 C 0.11495 0.29835 0.86707 0.0
C550 C 0.14569 0.434 0.87505 0.0
C551 C 0.13929 0.42425 0.90005 0.0
N552 N 0.12343 0.33646 0.93289 0.0
N553 N 0.14792 0.37361 0.83547 0.0
C554 C 0.12223 0.35066 0.90865 0.0
C555 C 0.13636 0.36872 0.85883 0.0
N556 N 0.08422 0.22442 0.89973 0.0
N557 N 0.15895 0.50709 0.86652 0.0
H558 H 0.13889 0.33087 0.82237 0.0
H559 H 0.16904 0.41767 0.82927 0.0
H560 H 0.16793 0.55577 0.87758 0.0
H561 H 0.15809 0.52195 0.84832 0.0
H562 H 0.07199 0.22041 0.9168 0.0
H563 H 0.07544 0.17523 0.88881 0.0
H564 H 0.1161 0.28084 0.94042 0.0
H565 H 0.13592 0.37823 0.94559 0.0
C566 C 0.12182 0.77946 0.87238 0.0
C567 C 0.13129 0.798 0.89706 0.0
C568 C 0.12411 0.94266 0.88819 0.0
C569 C 0.11577 0.92436 0.8634 0.0
N570 N 0.11094 0.82766 0.8311 0.0
N571 N 0.12926 0.89384 0.92942 0.0
C572 C 0.11578 0.84324 0.85525 0.0
C573 C 0.12895 0.87875 0.90527 0.0
N574 N 0.1157 0.70062 0.86576 0.0
N575 N 0.12943 0.0214 0.89521 0.0
H576 H 0.13005 0.8478 0.9422 0.0
H577 H 0.12386 0.95057 0.93673 0.0
H578 H 0.1275 0.06933 0.88304 0.0
H579 H 0.13983 0.0391 0.91258 0.0
H580 H 0.106 0.68155 0.84844 0.0
H581 H 0.11588 0.65423 0.87843 0.0
H582 H 0.1148 0.77084 0.82354 0.0
H583 H 0.10587 0.87311 0.81825 0.0
C584 C 0.86416 0.22197 0.62318 0.0
C585 C 0.88401 0.20279 0.64624 0.0
C586 C 0.88773 0.05978 0.63496 0.0
C587 C 0.86718 0.07842 0.61201 0.0
N588 N 0.83071 0.17411 0.58494 0.0
N589 N 0.90359 0.10281 0.67629 0.0
C590 C 0.85385 0.15876 0.60632 0.0
C591 C 0.89267 0.12139 0.65276 0.0
N592 N 0.85558 0.30089 0.61745 0.0
N593 N 0.90283 0.9832 0.63967 0.0
H594 H 0.90439 0.1463 0.68986 0.0
H595 H 0.90684 0.04408 0.68281 0.0
H596 H 0.89881 0.93593 0.62734 0.0
H597 H 0.92227 0.96767 0.65504 0.0
H598 H 0.84641 0.32114 0.60017 0.0
H599 H 0.85872 0.3471 0.63017 0.0
H600 H 0.81582 0.22921 0.58055 0.0
H601 H 0.82451 0.12997 0.57178 0.0
C602 C 0.89791 0.56615 0.62328 0.0
C603 C 0.89129 0.57635 0.64822 0.0
C604 C 0.86118 0.71225 0.6399 0.0
C605 C 0.86973 0.70319 0.6151 0.0
N606 N 0.90439 0.62772 0.58417 0.0
N607 N 0.87334 0.66317 0.68097 0.0
C608 C 0.89074 0.6322 0.60712 0.0
C609 C 0.87445 0.65039 0.65672 0.0
N610 N 0.90907 0.49187 0.61472 0.0
N611 N 0.84081 0.7807 0.64745 0.0
H612 H 0.88305 0.61973 0.69378 0.0
H613 H 0.86609 0.71857 0.68862 0.0
H614 H 0.83517 0.83124 0.63652 0.0
H615 H 0.82798 0.78671 0.66431 0.0
H616 H 0.90861 0.47771 0.59648 0.0
H617 H 0.91502 0.44172 0.62573 0.0
H618 H 0.92469 0.58188 0.57827 0.0
H619 H 0.89888 0.67312 0.57142 0.0
C620 C 0.86789 0.56006 0.14088 0.0
C621 C 0.87163 0.57266 0.11581 0.0
C622 C 0.89842 0.71073 0.12402 0.0
C623 C 0.89214 0.69958 0.14901 0.0
N624 N 0.86228 0.61884 0.18042 0.0
N625 N 0.88282 0.66362 0.083 0.0
C626 C 0.87413 0.62593 0.15718 0.0
C627 C 0.8851 0.6489 0.10722 0.0
N628 N 0.86002 0.48404 0.14928 0.0
N629 N 0.91667 0.78097 0.11625 0.0
H630 H 0.87274 0.62012 0.07026 0.0
H631 H 0.88746 0.72034 0.07549 0.0
H632 H 0.9227 0.83099 0.12734 0.0
H633 H 0.92766 0.78869 0.09901 0.0
H634 H 0.86231 0.46882 0.16747 0.0
H635 H 0.85514 0.43408 0.13803 0.0
H636 H 0.84432 0.57013 0.1866 0.0
H637 H 0.86664 0.66463 0.19314 0.0
C638 C 0.90374 0.15524 0.15787 0.0
C639 C 0.88882 0.07536 0.15289 0.0
C640 C 0.85313 0.12053 0.11435 0.0
C641 C 0.87 0.1996 0.11879 0.0
N642 N 0.9168 0.29033 0.14271 0.0
N643 N 0.85471 0.97847 0.12524 0.0
C644 C 0.89703 0.21633 0.13995 0.0
C645 C 0.86478 0.05708 0.13084 0.0
N646 N 0.92305 0.17306 0.18008 0.0
N647 N 0.82571 0.10629 0.09436 0.0
H648 H 0.8615 0.93062 0.13707 0.0
H649 H 0.8422 0.95953 0.10834 0.0
H650 H 0.81952 0.14926 0.08088 0.0
H651 H 0.80758 0.05332 0.09153 0.0
H652 H 0.93059 0.23145 0.18592 0.0
H653 H 0.92826 0.12973 0.19357 0.0
H654 H 0.94023 0.30433 0.15655 0.0
H655 H 0.91251 0.33631 0.12999 0.0
C656 C 0.61655 0.78652 0.89103 0.0
C657 C 0.6179 0.79869 0.86577 0.0
C658 C 0.64449 0.93748 0.87295 0.0
C659 C 0.64022 0.92708 0.89813 0.0
N660 N 0.61723 0.84539 0.93104 0.0
N661 N 0.62631 0.88934 0.83241 0.0
C662 C 0.62451 0.85278 0.90712 0.0
C663 C 0.6303 0.87499 0.85666 0.0
N664 N 0.60972 0.71051 0.89972 0.0
N665 N 0.66222 0.00728 0.86451 0.0
H666 H 0.61682 0.84533 0.81975 0.0
H667 H 0.62904 0.94642 0.8248 0.0
H668 H 0.66965 0.05749 0.87528 0.0
H669 H 0.67197 0.01416 0.84699 0.0
H670 H 0.61322 0.69544 0.91789 0.0
H671 H 0.60428 0.66037 0.88859 0.0
H672 H 0.60069 0.79667 0.93823 0.0
H673 H 0.62512 0.89055 0.94363 0.0
C674 C 0.61764 0.28281 0.871 0.0
C675 C 0.64026 0.30145 0.89341 0.0
C676 C 0.64713 0.44323 0.88105 0.0
C677 C 0.62246 0.42574 0.85912 0.0
N678 N 0.5808 0.33143 0.83373 0.0
N679 N 0.6688 0.40063 0.92184 0.0
C680 C 0.6067 0.34612 0.85427 0.0
C681 C 0.65293 0.38207 0.89898 0.0
N682 N 0.60743 0.20417 0.86559 0.0
N683 N 0.66516 0.51833 0.88472 0.0
H684 H 0.67182 0.35769 0.93554 0.0
H685 H 0.67477 0.45927 0.92794 0.0
H686 H 0.6606 0.56548 0.87242 0.0
H687 H 0.68743 0.53256 0.89908 0.0
H688 H 0.59602 0.18435 0.84859 0.0
H689 H 0.61216 0.15746 0.87805 0.0
H690 H 0.56384 0.27758 0.83028 0.0
H691 H 0.57461 0.37492 0.82039 0.0
C692 C 0.60503 0.37453 0.36295 0.0
C693 C 0.62032 0.2948 0.36786 0.0
C694 C 0.65277 0.3386 0.40729 0.0
C695 C 0.63904 0.41892 0.40198 0.0
N696 N 0.60648 0.51644 0.37404 0.0
N697 N 0.66417 0.20222 0.39266 0.0
C698 C 0.61613 0.43767 0.37964 0.0
C699 C 0.64588 0.27726 0.38946 0.0
N700 N 0.57961 0.38958 0.34228 0.0
N701 N 0.6711 0.32076 0.42972 0.0
H702 H 0.65978 0.15624 0.37994 0.0
H703 H 0.68652 0.18709 0.40689 0.0
H704 H 0.67637 0.36434 0.44314 0.0
H705 H 0.67785 0.26235 0.43577 0.0
H706 H 0.56229 0.44306 0.3389 0.0
H707 H 0.57463 0.3469 0.32862 0.0
H708 H 0.59486 0.53597 0.35706 0.0
H709 H 0.61233 0.56388 0.38614 0.0
C710 C 0.62399 0.86773 0.40548 0.0
C711 C 0.64304 0.79508 0.39727 0.0
C712 C 0.63917 0.84834 0.35566 0.0
C713 C 0.62128 0.92161 0.36412 0.0
N714 N 0.6057 0.00803 0.39749 0.0
N715 N 0.6631 0.71046 0.36434 0.0
C716 C 0.61589 0.93294 0.38913 0.0
C717 C 0.64959 0.7842 0.37229 0.0
N718 N 0.61266 0.87423 0.42885 0.0
N719 N 0.64637 0.84051 0.33171 0.0
H720 H 0.6697 0.66148 0.37575 0.0
H721 H 0.6652 0.69489 0.34636 0.0
H722 H 0.63649 0.88377 0.31889 0.0
H723 H 0.66371 0.79321 0.32439 0.0
H724 H 0.5934 0.92098 0.4351 0.0
H725 H 0.61926 0.82985 0.44179 0.0
H726 H 0.60682 0.02331 0.41566 0.0
H727 H 0.60023 0.05799 0.38631 0.0
C728 C 0.36288 0.22034 0.12297 0.0
C729 C 0.39267 0.20507 0.14317 0.0
C730 C 0.40003 0.06372 0.13029 0.0
C731 C 0.37306 0.08081 0.10912 0.0
N732 N 0.33351 0.17675 0.08346 0.0
N733 N 0.44218 0.11461 0.16557 0.0
C734 C 0.35564 0.15954 0.105 0.0
C735 C 0.41209 0.12743 0.14661 0.0
N736 N 0.34119 0.29274 0.12109 0.0
N737 N 0.4123 0.98575 0.1354 0.0
H738 H 0.44876 0.15709 0.17914 0.0
H739 H 0.46209 0.06343 0.16736 0.0
H740 H 0.4048 0.93754 0.12381 0.0
H741 H 0.42723 0.96743 0.15183 0.0
H742 H 0.31568 0.30493 0.10821 0.0
H743 H 0.34625 0.33913 0.13361 0.0
H744 H 0.32387 0.23467 0.07813 0.0
H745 H 0.32799 0.13377 0.06989 0.0
C746 C 0.39232 0.56482 0.12191 0.0
C747 C 0.38947 0.57816 0.14701 0.0
C748 C 0.36438 0.71722 0.13876 0.0
C749 C 0.36981 0.70518 0.11371 0.0
N750 N 0.39752 0.62241 0.08217 0.0
N751 N 0.37966 0.66984 0.1798 0.0
C752 C 0.38649 0.63055 0.10552 0.0
C753 C 0.37708 0.65505 0.15558 0.0
N754 N 0.39895 0.48827 0.1136 0.0
N755 N 0.3475 0.78862 0.14651 0.0
H756 H 0.38894 0.62586 0.19253 0.0
H757 H 0.37585 0.72677 0.18732 0.0
H758 H 0.34205 0.8386 0.13533 0.0
H759 H 0.33716 0.79755 0.16383 0.0
H760 H 0.39601 0.47267 0.09544 0.0
H761 H 0.4034 0.43842 0.12493 0.0
H762 H 0.41448 0.57269 0.07588 0.0
H763 H 0.39355 0.66825 0.06943 0.0
C764 C 0.38516 0.72736 0.61926 0.0
C765 C 0.38571 0.71319 0.64451 0.0
C766 C 0.36265 0.57236 0.63701 0.0
C767 C 0.36481 0.5853 0.61182 0.0
N768 N 0.37986 0.67243 0.57865 0.0
N769 N 0.37809 0.6218 0.67775 0.0
C770 C 0.37673 0.66206 0.60288 0.0
C771 C 0.37488 0.63573 0.65347 0.0
N772 N 0.39077 0.80431 0.611 0.0
N773 N 0.3485 0.49932 0.64518 0.0
H774 H 0.38442 0.66719 0.69044 0.0
H775 H 0.37672 0.56475 0.68549 0.0
H776 H 0.34253 0.44945 0.63401 0.0
H777 H 0.34055 0.48854 0.66283 0.0
H778 H 0.38619 0.82117 0.59302 0.0
H779 H 0.3969 0.85355 0.62238 0.0
H780 H 0.39351 0.72327 0.57096 0.0
H781 H 0.37083 0.62786 0.56606 0.0
C782 C 0.38979 0.22607 0.63495 0.0
C783 C 0.35798 0.21074 0.61556 0.0
C784 C 0.3492 0.07124 0.63008 0.0
C785 C 0.3796 0.08764 0.64994 0.0
N786 N 0.42288 0.18341 0.67382 0.0
N787 N 0.30211 0.12278 0.5968 0.0
C788 C 0.39836 0.16585 0.65301 0.0
C789 C 0.33598 0.13463 0.61385 0.0
N790 N 0.41163 0.29848 0.63623 0.0
N791 N 0.33459 0.99396 0.62597 0.0
H792 H 0.29294 0.16507 0.5836 0.0
H793 H 0.281 0.07302 0.59663 0.0
H794 H 0.34226 0.94615 0.63766 0.0
H795 H 0.31742 0.97559 0.61013 0.0
H796 H 0.439 0.30988 0.64799 0.0
H797 H 0.40402 0.34664 0.62467 0.0
H798 H 0.43387 0.24112 0.67857 0.0
H799 H 0.42906 0.14115 0.68751 0.0
loop_
_geom_bond_atom_site_label_1
_geom_bond_atom_site_label_2
_geom_bond_distance
_geom_bond_site_symmetry_2
_ccdc_geom_bond_type
Co0 O1 2.216 . S
Co0 O2 2.091 . S
Co0 O4 2.004 . S
Co0 O10 2.021 . S
Co0 O12 2.137 . S
Co0 O13 2.244 . S
O1 Co0 2.216 . S
O1 C8 1.247 . S
O2 Co0 2.091 . S
O2 C8 1.261 . S
C3 O12 1.247 . S
C3 O13 1.272 . S
O4 Co0 2.004 . S
O4 C9 1.259 . S
Co5 O6 2.061 . S
Co5 O11 2.052 . S
Co5 O13 2.135 . S
O6 Co5 2.061 . S
O6 C9 1.235 . S
C7 O10 1.238 . S
C7 O11 1.241 . S
C8 O1 1.247 . S
C8 O2 1.261 . S
C9 O4 1.259 . S
C9 O6 1.235 . S
O10 Co0 2.021 . S
O10 C7 1.238 . S
O11 Co5 2.052 . S
O11 C7 1.241 . S
O12 Co0 2.137 . S
O12 C3 1.247 . S
O13 Co0 2.244 . S
O13 C3 1.272 . S
O13 Co5 2.135 . S
Co14 O15 2.216 . S
Co14 O16 2.091 . S
Co14 O18 2.004 . S
Co14 O24 2.021 . S
Co14 O26 2.137 . S
Co14 O27 2.244 . S
O15 Co14 2.216 . S
O15 C22 1.247 . S
O16 Co14 2.091 . S
O16 C22 1.261 . S
C17 O26 1.247 . S
C17 O27 1.272 . S
O18 Co14 2.004 . S
O18 C23 1.259 . S
Co19 O20 2.061 . S
Co19 O25 2.052 . S
Co19 O27 2.135 . S
O20 Co19 2.061 . S
O20 C23 1.235 . S
C21 O24 1.238 . S
C21 O25 1.241 . S
C22 O15 1.247 . S
C22 O16 1.261 . S
C23 O18 1.259 . S
C23 O20 1.235 . S
O24 Co14 2.021 . S
O24 C21 1.238 . S
O25 Co19 2.052 . S
O25 C21 1.241 . S
O26 Co14 2.137 . S
O26 C17 1.247 . S
O27 Co14 2.244 . S
O27 C17 1.272 . S
O27 Co19 2.135 . S
Co28 O29 2.216 . S
Co28 O30 2.091 . S
Co28 O32 2.004 . S
Co28 O38 2.021 . S
Co28 O40 2.137 . S
Co28 O41 2.244 . S
O29 Co28 2.216 . S
O29 C36 1.247 . S
O30 Co28 2.091 . S
O30 C36 1.261 . S
C31 O40 1.247 . S
C31 O41 1.272 . S
O32 Co28 2.004 . S
O32 C37 1.259 . S
Co33 O34 2.061 . S
Co33 O39 2.052 . S
Co33 O41 2.135 . S
O34 Co33 2.061 . S
O34 C37 1.235 . S
C35 O38 1.238 . S
C35 O39 1.241 . S
C36 O29 1.247 . S
C36 O30 1.261 . S
C37 O32 1.259 . S
C37 O34 1.235 . S
O38 Co28 2.021 . S
O38 C35 1.238 . S
O39 Co33 2.052 . S
O39 C35 1.241 . S
O40 Co28 2.137 . S
O40 C31 1.247 . S
O41 Co28 2.244 . S
O41 C31 1.272 . S
O41 Co33 2.135 . S
Co42 O43 2.216 . S
Co42 O44 2.091 . S
Co42 O46 2.004 . S
Co42 O52 2.021 . S
Co42 O54 2.137 . S
Co42 O55 2.244 . S
O43 Co42 2.216 . S
O43 C50 1.247 . S
O44 Co42 2.091 . S
O44 C50 1.261 . S
C45 O54 1.247 . S
C45 O55 1.272 . S
O46 Co42 2.004 . S
O46 C51 1.259 . S
Co47 O48 2.061 . S
Co47 O53 2.052 . S
Co47 O55 2.135 . S
O48 Co47 2.061 . S
O48 C51 1.235 . S
C49 O52 1.238 . S
C49 O53 1.241 . S
C50 O43 1.247 . S
C50 O44 1.261 . S
C51 O46 1.259 . S
C51 O48 1.235 . S
O52 Co42 2.021 . S
O52 C49 1.238 . S
O53 Co47 2.052 . S
O53 C49 1.241 . S
O54 Co42 2.137 . S
O54 C45 1.247 . S
O55 Co42 2.244 . S
O55 C45 1.272 . S
O55 Co47 2.135 . S
Co56 O57 2.216 . S
Co56 O58 2.091 . S
Co56 O60 2.004 . S
Co56 O66 2.021 . S
Co56 O68 2.137 . S
Co56 O69 2.244 . S
O57 Co56 2.216 . S
O57 C64 1.247 . S
O58 Co56 2.091 . S
O58 C64 1.261 . S
C59 O68 1.247 . S
C59 O69 1.272 . S
O60 Co56 2.004 . S
O60 C65 1.259 . S
Co61 O62 2.061 . S
Co61 O67 2.052 . S
Co61 O69 2.135 . S
O62 Co61 2.061 . S
O62 C65 1.235 . S
C63 O66 1.238 . S
C63 O67 1.241 . S
C64 O57 1.247 . S
C64 O58 1.261 . S
C65 O60 1.259 . S
C65 O62 1.235 . S
O66 Co56 2.021 . S
O66 C63 1.238 . S
O67 Co61 2.052 . S
O67 C63 1.241 . S
O68 Co56 2.137 . S
O68 C59 1.247 . S
O69 Co56 2.244 . S
O69 C59 1.272 . S
O69 Co61 2.135 . S
Co70 O71 2.216 . S
Co70 O72 2.091 . S
Co70 O74 2.004 . S
Co70 O80 2.021 . S
Co70 O82 2.137 . S
Co70 O83 2.244 . S
O71 Co70 2.216 . S
O71 C78 1.247 . S
O72 Co70 2.091 . S
O72 C78 1.261 . S
C73 O82 1.247 . S
C73 O83 1.272 . S
O74 Co70 2.004 . S
O74 C79 1.259 . S
Co75 O76 2.061 . S
Co75 O81 2.052 . S
Co75 O83 2.135 . S
O76 Co75 2.061 . S
O76 C79 1.235 . S
C77 O80 1.238 . S
C77 O81 1.241 . S
C78 O71 1.247 . S
C78 O72 1.261 . S
C79 O74 1.259 . S
C79 O76 1.235 . S
O80 Co70 2.021 . S
O80 C77 1.238 . S
O81 Co75 2.052 . S
O81 C77 1.241 . S
O82 Co70 2.137 . S
O82 C73 1.247 . S
O83 Co70 2.244 . S
O83 C73 1.272 . S
O83 Co75 2.135 . S
Co84 O85 2.216 . S
Co84 O86 2.091 . S
Co84 O88 2.004 . S
Co84 O94 2.021 . S
Co84 O96 2.137 . S
Co84 O97 2.244 . S
O85 Co84 2.216 . S
O85 C92 1.247 . S
O86 Co84 2.091 . S
O86 C92 1.261 . S
C87 O96 1.247 . S
C87 O97 1.272 . S
O88 Co84 2.004 . S
O88 C93 1.259 . S
Co89 O90 2.061 . S
Co89 O95 2.052 . S
Co89 O97 2.135 . S
O90 Co89 2.061 . S
O90 C93 1.235 . S
C91 O94 1.238 . S
C91 O95 1.241 . S
C92 O85 1.247 . S
C92 O86 1.261 . S
C93 O88 1.259 . S
C93 O90 1.235 . S
O94 Co84 2.021 . S
O94 C91 1.238 . S
O95 Co89 2.052 . S
O95 C91 1.241 . S
O96 Co84 2.137 . S
O96 C87 1.247 . S
O97 Co84 2.244 . S
O97 C87 1.272 . S
O97 Co89 2.135 . S
Co98 O99 2.216 . S
Co98 O100 2.091 . S
Co98 O102 2.004 . S
Co98 O108 2.021 . S
Co98 O110 2.137 . S
Co98 O111 2.244 . S
O99 Co98 2.216 . S
O99 C106 1.247 . S
O100 Co98 2.091 . S
O100 C106 1.261 . S
C101 O110 1.247 . S
C101 O111 1.272 . S
O102 Co98 2.004 . S
O102 C107 1.259 . S
Co103 O104 2.061 . S
Co103 O109 2.052 . S
Co103 O111 2.135 . S
O104 Co103 2.061 . S
O104 C107 1.235 . S
C105 O108 1.238 . S
C105 O109 1.241 . S
C106 O99 1.247 . S
C106 O100 1.261 . S
C107 O102 1.259 . S
C107 O104 1.235 . S
O108 Co98 2.021 . S
O108 C105 1.238 . S
O109 Co103 2.052 . S
O109 C105 1.241 . S
O110 Co98 2.137 . S
O110 C101 1.247 . S
O111 Co98 2.244 . S
O111 C101 1.272 . S
O111 Co103 2.135 . S
Co112 O113 2.216 . S
Co112 O114 2.091 . S
Co112 O116 2.004 . S
Co112 O122 2.021 . S
Co112 O124 2.137 . S
Co112 O125 2.244 . S
O113 Co112 2.216 . S
O113 C120 1.247 . S
O114 Co112 2.091 . S
O114 C120 1.261 . S
C115 O124 1.247 . S
C115 O125 1.272 . S
O116 Co112 2.004 . S
O116 C121 1.259 . S
Co117 O118 2.061 . S
Co117 O123 2.052 . S
Co117 O125 2.135 . S
O118 Co117 2.061 . S
O118 C121 1.235 . S
C119 O122 1.238 . S
C119 O123 1.241 . S
C120 O113 1.247 . S
C120 O114 1.261 . S
C121 O116 1.259 . S
C121 O118 1.235 . S
O122 Co112 2.021 . S
O122 C119 1.238 . S
O123 Co117 2.052 . S
O123 C119 1.241 . S
O124 Co112 2.137 . S
O124 C115 1.247 . S
O125 Co112 2.244 . S
O125 C115 1.272 . S
O125 Co117 2.135 . S
Co126 O127 2.216 . S
Co126 O128 2.091 . S
Co126 O130 2.004 . S
Co126 O136 2.021 . S
Co126 O138 2.137 . S
Co126 O139 2.244 . S
O127 Co126 2.216 . S
O127 C134 1.247 . S
O128 Co126 2.091 . S
O128 C134 1.261 . S
C129 O138 1.247 . S
C129 O139 1.272 . S
O130 Co126 2.004 . S
O130 C135 1.259 . S
Co131 O132 2.061 . S
Co131 O137 2.052 . S
Co131 O139 2.135 . S
O132 Co131 2.061 . S
O132 C135 1.235 . S
C133 O136 1.238 . S
C133 O137 1.241 . S
C134 O127 1.247 . S
C134 O128 1.261 . S
C135 O130 1.259 . S
C135 O132 1.235 . S
O136 Co126 2.021 . S
O136 C133 1.238 . S
O137 Co131 2.052 . S
O137 C133 1.241 . S
O138 Co126 2.137 . S
O138 C129 1.247 . S
O139 Co126 2.244 . S
O139 C129 1.272 . S
O139 Co131 2.135 . S
Co140 O141 2.216 . S
Co140 O142 2.091 . S
Co140 O144 2.004 . S
Co140 O150 2.021 . S
Co140 O152 2.137 . S
Co140 O153 2.244 . S
O141 Co140 2.216 . S
O141 C148 1.247 . S
O142 Co140 2.091 . S
O142 C148 1.261 . S
C143 O152 1.247 . S
C143 O153 1.272 . S
O144 Co140 2.004 . S
O144 C149 1.259 . S
Co145 O146 2.061 . S
Co145 O151 2.052 . S
Co145 O153 2.135 . S
O146 Co145 2.061 . S
O146 C149 1.235 . S
C147 O150 1.238 . S
C147 O151 1.241 . S
C148 O141 1.247 . S
C148 O142 1.261 . S
C149 O144 1.259 . S
C149 O146 1.235 . S
O150 Co140 2.021 . S
O150 C147 1.238 . S
O151 Co145 2.052 . S
O151 C147 1.241 . S
O152 Co140 2.137 . S
O152 C143 1.247 . S
O153 Co140 2.244 . S
O153 C143 1.272 . S
O153 Co145 2.135 . S
Co154 O155 2.216 . S
Co154 O156 2.091 . S
Co154 O158 2.004 . S
Co154 O164 2.021 . S
Co154 O166 2.137 . S
Co154 O167 2.244 . S
O155 Co154 2.216 . S
O155 C162 1.247 . S
O156 Co154 2.091 . S
O156 C162 1.261 . S
C157 O166 1.247 . S
C157 O167 1.272 . S
O158 Co154 2.004 . S
O158 C163 1.259 . S
Co159 O160 2.061 . S
Co159 O165 2.052 . S
Co159 O167 2.135 . S
O160 Co159 2.061 . S
O160 C163 1.235 . S
C161 O164 1.238 . S
C161 O165 1.241 . S
C162 O155 1.247 . S
C162 O156 1.261 . S
C163 O158 1.259 . S
C163 O160 1.235 . S
O164 Co154 2.021 . S
O164 C161 1.238 . S
O165 Co159 2.052 . S
O165 C161 1.241 . S
O166 Co154 2.137 . S
O166 C157 1.247 . S
O167 Co154 2.244 . S
O167 C157 1.272 . S
O167 Co159 2.135 . S
Co168 O169 2.216 . S
Co168 O170 2.091 . S
Co168 O172 2.004 . S
Co168 O178 2.021 . S
Co168 O180 2.137 . S
Co168 O181 2.244 . S
O169 Co168 2.216 . S
O169 C176 1.247 . S
O170 Co168 2.091 . S
O170 C176 1.261 . S
C171 O180 1.247 . S
C171 O181 1.272 . S
O172 Co168 2.004 . S
O172 C177 1.259 . S
Co173 O174 2.061 . S
Co173 O179 2.052 . S
Co173 O181 2.135 . S
O174 Co173 2.061 . S
O174 C177 1.235 . S
C175 O178 1.238 . S
C175 O179 1.241 . S
C176 O169 1.247 . S
C176 O170 1.261 . S
C177 O172 1.259 . S
C177 O174 1.235 . S
O178 Co168 2.021 . S
O178 C175 1.238 . S
O179 Co173 2.052 . S
O179 C175 1.241 . S
O180 Co168 2.137 . S
O180 C171 1.247 . S
O181 Co168 2.244 . S
O181 C171 1.272 . S
O181 Co173 2.135 . S
Co182 O183 2.216 . S
Co182 O184 2.091 . S
Co182 O186 2.004 . S
Co182 O192 2.021 . S
Co182 O194 2.137 . S
Co182 O195 2.244 . S
O183 Co182 2.216 . S
O183 C190 1.247 . S
O184 Co182 2.091 . S
O184 C190 1.261 . S
C185 O194 1.247 . S
C185 O195 1.272 . S
O186 Co182 2.004 . S
O186 C191 1.259 . S
Co187 O188 2.061 . S
Co187 O193 2.052 . S
Co187 O195 2.135 . S
O188 Co187 2.061 . S
O188 C191 1.235 . S
C189 O192 1.238 . S
C189 O193 1.241 . S
C190 O183 1.247 . S
C190 O184 1.261 . S
C191 O186 1.259 . S
C191 O188 1.235 . S
O192 Co182 2.021 . S
O192 C189 1.238 . S
O193 Co187 2.052 . S
O193 C189 1.241 . S
O194 Co182 2.137 . S
O194 C185 1.247 . S
O195 Co182 2.244 . S
O195 C185 1.272 . S
O195 Co187 2.135 . S
Co196 O197 2.216 . S
Co196 O198 2.091 . S
Co196 O200 2.004 . S
Co196 O206 2.021 . S
Co196 O208 2.137 . S
Co196 O209 2.244 . S
O197 Co196 2.216 . S
O197 C204 1.247 . S
O198 Co196 2.091 . S
O198 C204 1.261 . S
C199 O208 1.247 . S
C199 O209 1.272 . S
O200 Co196 2.004 . S
O200 C205 1.259 . S
Co201 O202 2.061 . S
Co201 O207 2.052 . S
Co201 O209 2.135 . S
O202 Co201 2.061 . S
O202 C205 1.235 . S
C203 O206 1.238 . S
C203 O207 1.241 . S
C204 O197 1.247 . S
C204 O198 1.261 . S
C205 O200 1.259 . S
C205 O202 1.235 . S
O206 Co196 2.021 . S
O206 C203 1.238 . S
O207 Co201 2.052 . S
O207 C203 1.241 . S
O208 Co196 2.137 . S
O208 C199 1.247 . S
O209 Co196 2.244 . S
O209 C199 1.272 . S
O209 Co201 2.135 . S
Co210 O211 2.216 . S
Co210 O212 2.091 . S
Co210 O214 2.004 . S
Co210 O220 2.021 . S
Co210 O222 2.137 . S
Co210 O223 2.244 . S
O211 Co210 2.216 . S
O211 C218 1.247 . S
O212 Co210 2.091 . S
O212 C218 1.261 . S
C213 O222 1.247 . S
C213 O223 1.272 . S
O214 Co210 2.004 . S
O214 C219 1.259 . S
Co215 O216 2.061 . S
Co215 O221 2.052 . S
Co215 O223 2.135 . S
O216 Co215 2.061 . S
O216 C219 1.235 . S
C217 O220 1.238 . S
C217 O221 1.241 . S
C218 O211 1.247 . S
C218 O212 1.261 . S
C219 O214 1.259 . S
C219 O216 1.235 . S
O220 Co210 2.021 . S
O220 C217 1.238 . S
O221 Co215 2.052 . S
O221 C217 1.241 . S
O222 Co210 2.137 . S
O222 C213 1.247 . S
O223 Co210 2.244 . S
O223 C213 1.272 . S
O223 Co215 2.135 . S
C224 C225 1.363 . S
C224 C230 1.379 . S
C224 N232 1.356 . S
C225 C224 1.363 . S
C225 C231 1.363 . S
C226 C227 1.363 . S
C226 C231 1.379 . S
C226 N233 1.356 . S
C227 C226 1.363 . S
C227 C230 1.363 . S
N228 C230 1.356 . S
N228 H240 0.984 . S
N228 H241 0.985 . S
N229 C231 1.356 . S
N229 H234 0.984 . S
N229 H235 0.985 . S
C230 C224 1.379 . S
C230 C227 1.363 . S
C230 N228 1.356 . S
C231 C225 1.363 . S
C231 C226 1.379 . S
C231 N229 1.356 . S
N232 C224 1.356 . S
N232 H238 0.984 . S
N232 H239 0.984 . S
N233 C226 1.356 . S
N233 H236 0.984 . S
N233 H237 0.985 . S
H234 N229 0.984 . S
H235 N229 0.985 . S
H236 N233 0.984 . S
H237 N233 0.985 . S
H238 N232 0.984 . S
H239 N232 0.984 . S
H240 N228 0.984 . S
H241 N228 0.985 . S
C242 C243 1.363 . S
C242 C248 1.379 1_655 S
C242 N250 1.356 . S
C243 C242 1.363 . S
C243 C249 1.363 1_565 S
C244 C245 1.363 . S
C244 C249 1.379 1_455 S
C244 N251 1.356 . S
C245 C244 1.363 . S
C245 C248 1.363 1_545 S
N246 C248 1.356 . S
N246 H258 0.986 . S
N246 H259 0.985 . S
N247 C249 1.356 . S
N247 H252 0.984 . S
N247 H253 0.986 . S
C248 C242 1.379 1_455 S
C248 C245 1.363 1_565 S
C248 N246 1.356 . S
C249 C243 1.363 1_545 S
C249 C244 1.379 1_655 S
C249 N247 1.356 . S
N250 C242 1.356 . S
N250 H256 0.984 . S
N250 H257 0.984 . S
N251 C244 1.356 . S
N251 H254 0.984 . S
N251 H255 0.985 . S
H252 N247 0.984 . S
H253 N247 0.986 . S
H254 N251 0.984 . S
H255 N251 0.985 . S
H256 N250 0.984 . S
H257 N250 0.984 . S
H258 N246 0.986 . S
H259 N246 0.985 . S
C260 C261 1.363 1_545 S
C260 C266 1.379 . S
C260 N268 1.356 . S
C261 C260 1.363 1_565 S
C261 C267 1.363 . S
C262 C263 1.363 1_565 S
C262 C267 1.379 . S
C262 N269 1.356 . S
C263 C262 1.363 1_545 S
C263 C266 1.363 . S
N264 C266 1.356 . S
N264 H276 0.984 . S
N264 H277 0.985 . S
N265 C267 1.356 . S
N265 H270 0.984 . S
N265 H271 0.985 . S
C266 C260 1.379 . S
C266 C263 1.363 . S
C266 N264 1.356 . S
C267 C261 1.363 . S
C267 C262 1.379 . S
C267 N265 1.356 . S
N268 C260 1.356 . S
N268 H274 0.984 . S
N268 H275 0.984 . S
N269 C262 1.356 . S
N269 H272 0.984 . S
N269 H273 0.985 . S
H270 N265 0.984 . S
H271 N265 0.985 . S
H272 N269 0.984 . S
H273 N269 0.985 . S
H274 N268 0.984 . S
H275 N268 0.984 . S
H276 N264 0.984 . S
H277 N264 0.985 . S
C278 C279 1.363 . S
C278 C284 1.379 1_455 S
C278 N286 1.356 . S
C279 C278 1.363 . S
C279 C285 1.363 . S
C280 C281 1.363 . S
C280 C285 1.379 1_655 S
C280 N287 1.356 . S
C281 C280 1.363 . S
C281 C284 1.363 . S
N282 C284 1.356 . S
N282 H294 0.984 . S
N282 H295 0.985 . S
N283 C285 1.356 . S
N283 H288 0.984 . S
N283 H289 0.985 . S
C284 C278 1.379 1_655 S
C284 C281 1.363 . S
C284 N282 1.356 . S
C285 C279 1.363 . S
C285 C280 1.379 1_455 S
C285 N283 1.356 . S
N286 C278 1.356 . S
N286 H292 0.984 . S
N286 H293 0.984 . S
N287 C280 1.356 . S
N287 H290 0.984 . S
N287 H291 0.985 . S
H288 N283 0.984 . S
H289 N283 0.985 . S
H290 N287 0.984 . S
H291 N287 0.985 . S
H292 N286 0.984 . S
H293 N286 0.984 . S
H294 N282 0.984 . S
H295 N282 0.985 . S
C296 C297 1.363 . S
C296 C302 1.379 . S
C296 N304 1.356 . S
C297 C296 1.363 . S
C297 C303 1.363 . S
C298 C299 1.363 . S
C298 C303 1.379 . S
C298 N305 1.356 . S
C299 C298 1.363 . S
C299 C302 1.363 . S
N300 C302 1.356 . S
N300 H312 0.984 . S
N300 H313 0.985 . S
N301 C303 1.356 . S
N301 H306 0.984 . S
N301 H307 0.985 . S
C302 C296 1.379 . S
C302 C299 1.363 . S
C302 N300 1.356 . S
C303 C297 1.363 . S
C303 C298 1.379 . S
C303 N301 1.356 . S
N304 C296 1.356 . S
N304 H310 0.984 . S
N304 H311 0.984 . S
N305 C298 1.356 . S
N305 H308 0.984 . S
N305 H309 0.985 . S
H306 N301 0.984 . S
H307 N301 0.985 . S
H308 N305 0.984 . S
H309 N305 0.985 . S
H310 N304 0.984 . S
H311 N304 0.984 . S
H312 N300 0.984 . S
H313 N300 0.985 . S
C314 C315 1.363 . S
C314 C320 1.379 . S
C314 N322 1.356 . S
C315 C314 1.363 . S
C315 C321 1.363 1_545 S
C316 C317 1.363 . S
C316 C321 1.379 . S
C316 N323 1.356 . S
C317 C316 1.363 . S
C317 C320 1.363 1_565 S
N318 C320 1.356 . S
N318 H330 0.984 . S
N318 H331 0.985 1_545 S
N319 C321 1.356 . S
N319 H324 0.984 1_565 S
N319 H325 0.985 . S
C320 C314 1.379 . S
C320 C317 1.363 1_545 S
C320 N318 1.356 . S
C321 C315 1.363 1_565 S
C321 C316 1.379 . S
C321 N319 1.356 . S
N322 C314 1.356 . S
N322 H328 0.984 . S
N322 H329 0.984 . S
N323 C316 1.356 . S
N323 H326 0.984 . S
N323 H327 0.985 . S
H324 N319 0.984 1_545 S
H325 N319 0.985 . S
H326 N323 0.984 . S
H327 N323 0.985 . S
H328 N322 0.984 . S
H329 N322 0.984 . S
H330 N318 0.984 . S
H331 N318 0.985 1_565 S
C332 C333 1.363 . S
C332 C338 1.379 1_655 S
C332 N340 1.356 . S
C333 C332 1.363 . S
C333 C339 1.363 . S
C334 C335 1.363 . S
C334 C339 1.379 1_455 S
C334 N341 1.356 . S
C335 C334 1.363 . S
C335 C338 1.363 . S
N336 C338 1.356 . S
N336 H348 0.984 . S
N336 H349 0.985 . S
N337 C339 1.356 . S
N337 H342 0.984 . S
N337 H343 0.985 . S
C338 C332 1.379 1_455 S
C338 C335 1.363 . S
C338 N336 1.356 . S
C339 C333 1.363 . S
C339 C334 1.379 1_655 S
C339 N337 1.356 . S
N340 C332 1.356 . S
N340 H346 0.984 . S
N340 H347 0.984 . S
N341 C334 1.356 . S
N341 H344 0.984 . S
N341 H345 0.985 . S
H342 N337 0.984 . S
H343 N337 0.985 . S
H344 N341 0.984 . S
H345 N341 0.985 . S
H346 N340 0.984 . S
H347 N340 0.984 . S
H348 N336 0.984 . S
H349 N336 0.985 . S
C350 C351 1.363 . S
C350 C356 1.379 1_554 S
C350 N358 1.356 . S
C351 C350 1.363 . S
C351 C357 1.363 . S
C352 C353 1.363 . S
C352 C357 1.379 1_556 S
C352 N359 1.356 . S
C353 C352 1.363 . S
C353 C356 1.363 . S
N354 C356 1.356 . S
N354 H366 0.984 . S
N354 H367 0.985 . S
N355 C357 1.356 . S
N355 H360 0.984 . S
N355 H361 0.985 . S
C356 C350 1.379 1_556 S
C356 C353 1.363 . S
C356 N354 1.356 . S
C357 C351 1.363 . S
C357 C352 1.379 1_554 S
C357 N355 1.356 . S
N358 C350 1.356 . S
N358 H364 0.984 . S
N358 H365 0.984 . S
N359 C352 1.356 . S
N359 H362 0.984 . S
N359 H363 0.985 . S
H360 N355 0.984 . S
H361 N355 0.985 . S
H362 N359 0.984 . S
H363 N359 0.985 . S
H364 N358 0.984 . S
H365 N358 0.984 . S
H366 N354 0.984 . S
H367 N354 0.985 . S
C368 C369 1.363 . S
C368 C374 1.379 1_556 S
C368 N376 1.356 . S
C369 C368 1.363 . S
C369 C375 1.363 1_455 S
C370 C371 1.363 . S
C370 C375 1.379 1_554 S
C370 N377 1.356 . S
C371 C370 1.363 . S
C371 C374 1.363 1_655 S
N372 C374 1.356 . S
N372 H384 0.984 . S
N372 H385 0.985 1_455 S
N373 C375 1.356 . S
N373 H378 0.984 1_655 S
N373 H379 0.985 . S
C374 C368 1.379 1_554 S
C374 C371 1.363 1_455 S
C374 N372 1.356 . S
C375 C369 1.363 1_655 S
C375 C370 1.379 1_556 S
C375 N373 1.356 . S
N376 C368 1.356 . S
N376 H382 0.984 . S
N376 H383 0.984 . S
N377 C370 1.356 . S
N377 H380 0.984 . S
N377 H381 0.985 . S
H378 N373 0.984 1_455 S
H379 N373 0.985 . S
H380 N377 0.984 . S
H381 N377 0.985 . S
H382 N376 0.984 . S
H383 N376 0.984 . S
H384 N372 0.984 . S
H385 N372 0.985 1_655 S
C386 C387 1.363 . S
C386 C392 1.379 . S
C386 N394 1.356 . S
C387 C386 1.363 . S
C387 C393 1.363 . S
C388 C389 1.363 . S
C388 C393 1.379 . S
C388 N395 1.356 . S
C389 C388 1.363 . S
C389 C392 1.363 . S
N390 C392 1.356 . S
N390 H402 0.984 . S
N390 H403 0.985 . S
N391 C393 1.356 . S
N391 H396 0.984 . S
N391 H397 0.985 . S
C392 C386 1.379 . S
C392 C389 1.363 . S
C392 N390 1.356 . S
C393 C387 1.363 . S
C393 C388 1.379 . S
C393 N391 1.356 . S
N394 C386 1.356 . S
N394 H400 0.984 . S
N394 H401 0.984 . S
N395 C388 1.356 . S
N395 H398 0.984 . S
N395 H399 0.985 . S
H396 N391 0.984 . S
H397 N391 0.985 . S
H398 N395 0.984 . S
H399 N395 0.985 . S
H400 N394 0.984 . S
H401 N394 0.984 . S
H402 N390 0.984 . S
H403 N390 0.985 . S
C404 C405 1.363 . S
C404 C410 1.379 . S
C404 N412 1.356 . S
C405 C404 1.363 . S
C405 C411 1.363 1_556 S
C406 C407 1.363 . S
C406 C411 1.379 . S
C406 N413 1.356 . S
C407 C406 1.363 . S
C407 C410 1.363 1_554 S
N408 C410 1.356 . S
N408 H420 0.984 . S
N408 H421 0.985 1_556 S
N409 C411 1.356 . S
N409 H414 0.984 1_554 S
N409 H415 0.985 . S
C410 C404 1.379 . S
C410 C407 1.363 1_556 S
C410 N408 1.356 . S
C411 C405 1.363 1_554 S
C411 C406 1.379 . S
C411 N409 1.356 . S
N412 C404 1.356 . S
N412 H418 0.984 . S
N412 H419 0.984 . S
N413 C406 1.356 . S
N413 H416 0.984 . S
N413 H417 0.985 . S
H414 N409 0.984 1_556 S
H415 N409 0.985 . S
H416 N413 0.984 . S
H417 N413 0.985 . S
H418 N412 0.984 . S
H419 N412 0.984 . S
H420 N408 0.984 . S
H421 N408 0.985 1_554 S
C422 C423 1.363 . S
C422 C428 1.379 . S
C422 N430 1.356 . S
C423 C422 1.363 . S
C423 C429 1.363 . S
C424 C425 1.363 . S
C424 C429 1.379 . S
C424 N431 1.356 . S
C425 C424 1.363 . S
C425 C428 1.363 . S
N426 C428 1.356 . S
N426 H438 0.984 . S
N426 H439 0.985 . S
N427 C429 1.356 . S
N427 H432 0.984 . S
N427 H433 0.985 . S
C428 C422 1.379 . S
C428 C425 1.363 . S
C428 N426 1.356 . S
C429 C423 1.363 . S
C429 C424 1.379 . S
C429 N427 1.356 . S
N430 C422 1.356 . S
N430 H436 0.984 . S
N430 H437 0.984 . S
N431 C424 1.356 . S
N431 H434 0.984 . S
N431 H435 0.985 . S
H432 N427 0.984 . S
H433 N427 0.985 . S
H434 N431 0.984 . S
H435 N431 0.985 . S
H436 N430 0.984 . S
H437 N430 0.984 . S
H438 N426 0.984 . S
H439 N426 0.985 . S
C440 C441 1.365 . S
C440 C446 1.377 1_545 S
C440 N448 1.357 . S
C441 C440 1.365 . S
C441 C447 1.363 1_556 S
C442 C443 1.365 . S
C442 C447 1.377 1_565 S
C442 N449 1.357 . S
C443 C442 1.365 . S
C443 C446 1.363 1_554 S
N444 C446 1.356 . S
N444 H456 0.984 . S
N444 H457 0.985 1_556 S
N445 C447 1.356 . S
N445 H450 0.984 1_554 S
N445 H451 0.985 . S
C446 C440 1.377 1_565 S
C446 C443 1.363 1_556 S
C446 N444 1.356 . S
C447 C441 1.363 1_554 S
C447 C442 1.377 1_545 S
C447 N445 1.356 . S
N448 C440 1.357 . S
N448 H454 0.984 1_545 S
N448 H455 0.984 . S
N449 C442 1.357 . S
N449 H452 0.984 . S
N449 H453 0.985 1_565 S
H450 N445 0.984 1_556 S
H451 N445 0.985 . S
H452 N449 0.984 . S
H453 N449 0.985 1_545 S
H454 N448 0.984 1_565 S
H455 N448 0.984 . S
H456 N444 0.984 . S
H457 N444 0.985 1_554 S
C458 C459 1.363 . S
C458 C464 1.379 . S
C458 N466 1.356 . S
C459 C458 1.363 . S
C459 C465 1.363 . S
C460 C461 1.363 . S
C460 C465 1.379 . S
C460 N467 1.356 . S
C461 C460 1.363 . S
C461 C464 1.363 . S
N462 C464 1.356 . S
N462 H474 0.984 . S
N462 H475 0.985 . S
N463 C465 1.356 . S
N463 H468 0.984 . S
N463 H469 0.985 . S
C464 C458 1.379 . S
C464 C461 1.363 . S
C464 N462 1.356 . S
C465 C459 1.363 . S
C465 C460 1.379 . S
C465 N463 1.356 . S
N466 C458 1.356 . S
N466 H472 0.984 . S
N466 H473 0.984 . S
N467 C460 1.356 . S
N467 H470 0.984 . S
N467 H471 0.985 . S
H468 N463 0.984 . S
H469 N463 0.985 . S
H470 N467 0.984 . S
H471 N467 0.985 . S
H472 N466 0.984 . S
H473 N466 0.984 . S
H474 N462 0.984 . S
H475 N462 0.985 . S
C476 C477 1.363 . S
C476 C482 1.379 . S
C476 N484 1.356 . S
C477 C476 1.363 . S
C477 C483 1.363 . S
C478 C479 1.363 . S
C478 C483 1.379 . S
C478 N485 1.356 . S
C479 C478 1.363 . S
C479 C482 1.363 . S
N480 C482 1.356 . S
N480 H492 0.984 . S
N480 H493 0.985 . S
N481 C483 1.356 . S
N481 H486 0.984 . S
N481 H487 0.985 . S
C482 C476 1.379 . S
C482 C479 1.363 . S
C482 N480 1.356 . S
C483 C477 1.363 . S
C483 C478 1.379 . S
C483 N481 1.356 . S
N484 C476 1.356 . S
N484 H490 0.984 . S
N484 H491 0.984 . S
N485 C478 1.356 . S
N485 H488 0.984 . S
N485 H489 0.985 . S
H486 N481 0.984 . S
H487 N481 0.985 . S
H488 N485 0.984 . S
H489 N485 0.985 . S
H490 N484 0.984 . S
H491 N484 0.984 . S
H492 N480 0.984 . S
H493 N480 0.985 . S
C494 C495 1.363 . S
C494 C500 1.379 . S
C494 N502 1.356 . S
C495 C494 1.363 . S
C495 C501 1.363 . S
C496 C497 1.363 . S
C496 C501 1.379 . S
C496 N503 1.356 . S
C497 C496 1.363 . S
C497 C500 1.363 . S
N498 C500 1.356 . S
N498 H510 0.984 . S
N498 H511 0.985 . S
N499 C501 1.356 . S
N499 H504 0.984 . S
N499 H505 0.985 . S
C500 C494 1.379 . S
C500 C497 1.363 . S
C500 N498 1.356 . S
C501 C495 1.363 . S
C501 C496 1.379 . S
C501 N499 1.356 . S
N502 C494 1.356 . S
N502 H508 0.984 . S
N502 H509 0.984 . S
N503 C496 1.356 . S
N503 H506 0.984 . S
N503 H507 0.985 . S
H504 N499 0.984 . S
H505 N499 0.985 . S
H506 N503 0.984 . S
H507 N503 0.985 . S
H508 N502 0.984 . S
H509 N502 0.984 . S
H510 N498 0.984 . S
H511 N498 0.985 . S
C512 C513 1.363 . S
C512 C518 1.379 . S
C512 N520 1.356 . S
C513 C512 1.363 . S
C513 C519 1.363 . S
C514 C515 1.363 . S
C514 C519 1.379 . S
C514 N521 1.356 1_565 S
C515 C514 1.363 . S
C515 C518 1.363 . S
N516 C518 1.356 . S
N516 H528 0.984 . S
N516 H529 0.985 . S
N517 C519 1.356 . S
N517 H522 0.984 . S
N517 H523 0.985 . S
C518 C512 1.379 . S
C518 C515 1.363 . S
C518 N516 1.356 . S
C519 C513 1.363 . S
C519 C514 1.379 . S
C519 N517 1.356 . S
N520 C512 1.356 . S
N520 H526 0.984 . S
N520 H527 0.984 . S
N521 C514 1.356 1_545 S
N521 H524 0.984 . S
N521 H525 0.985 . S
H522 N517 0.984 . S
H523 N517 0.985 . S
H524 N521 0.984 . S
H525 N521 0.985 . S
H526 N520 0.984 . S
H527 N520 0.984 . S
H528 N516 0.984 . S
H529 N516 0.985 . S
C530 C531 1.363 . S
C530 C536 1.379 . S
C530 N538 1.356 . S
C531 C530 1.363 . S
C531 C537 1.363 . S
C532 C533 1.363 . S
C532 C537 1.379 . S
C532 N539 1.356 . S
C533 C532 1.363 . S
C533 C536 1.363 . S
N534 C536 1.356 . S
N534 H546 0.984 . S
N534 H547 0.985 . S
N535 C537 1.356 . S
N535 H540 0.984 . S
N535 H541 0.985 . S
C536 C530 1.379 . S
C536 C533 1.363 . S
C536 N534 1.356 . S
C537 C531 1.363 . S
C537 C532 1.379 . S
C537 N535 1.356 . S
N538 C530 1.356 . S
N538 H544 0.984 . S
N538 H545 0.984 . S
N539 C532 1.356 . S
N539 H542 0.984 . S
N539 H543 0.985 . S
H540 N535 0.984 . S
H541 N535 0.985 . S
H542 N539 0.984 . S
H543 N539 0.985 . S
H544 N538 0.984 . S
H545 N538 0.984 . S
H546 N534 0.984 . S
H547 N534 0.985 . S
C548 C549 1.363 . S
C548 C554 1.379 . S
C548 N556 1.356 . S
C549 C548 1.363 . S
C549 C555 1.363 . S
C550 C551 1.363 . S
C550 C555 1.379 . S
C550 N557 1.356 . S
C551 C550 1.363 . S
C551 C554 1.363 . S
N552 C554 1.356 . S
N552 H564 0.984 . S
N552 H565 0.985 . S
N553 C555 1.356 . S
N553 H558 0.984 . S
N553 H559 0.985 . S
C554 C548 1.379 . S
C554 C551 1.363 . S
C554 N552 1.356 . S
C555 C549 1.363 . S
C555 C550 1.379 . S
C555 N553 1.356 . S
N556 C548 1.356 . S
N556 H562 0.984 . S
N556 H563 0.984 . S
N557 C550 1.356 . S
N557 H560 0.984 . S
N557 H561 0.985 . S
H558 N553 0.984 . S
H559 N553 0.985 . S
H560 N557 0.984 . S
H561 N557 0.985 . S
H562 N556 0.984 . S
H563 N556 0.984 . S
H564 N552 0.984 . S
H565 N552 0.985 . S
C566 C567 1.363 . S
C566 C572 1.379 . S
C566 N574 1.356 . S
C567 C566 1.363 . S
C567 C573 1.363 . S
C568 C569 1.363 . S
C568 C573 1.379 . S
C568 N575 1.356 1_565 S
C569 C568 1.363 . S
C569 C572 1.363 . S
N570 C572 1.356 . S
N570 H582 0.984 . S
N570 H583 0.985 . S
N571 C573 1.356 . S
N571 H576 0.984 . S
N571 H577 0.985 . S
C572 C566 1.379 . S
C572 C569 1.363 . S
C572 N570 1.356 . S
C573 C567 1.363 . S
C573 C568 1.379 . S
C573 N571 1.356 . S
N574 C566 1.356 . S
N574 H580 0.984 . S
N574 H581 0.984 . S
N575 C568 1.356 1_545 S
N575 H578 0.984 . S
N575 H579 0.985 . S
H576 N571 0.984 . S
H577 N571 0.985 . S
H578 N575 0.984 . S
H579 N575 0.985 . S
H580 N574 0.984 . S
H581 N574 0.984 . S
H582 N570 0.984 . S
H583 N570 0.985 . S
C584 C585 1.363 . S
C584 C590 1.379 . S
C584 N592 1.356 . S
C585 C584 1.363 . S
C585 C591 1.363 . S
C586 C587 1.363 . S
C586 C591 1.379 . S
C586 N593 1.356 1_545 S
C587 C586 1.363 . S
C587 C590 1.363 . S
N588 C590 1.356 . S
N588 H600 0.984 . S
N588 H601 0.985 . S
N589 C591 1.356 . S
N589 H594 0.984 . S
N589 H595 0.985 . S
C590 C584 1.379 . S
C590 C587 1.363 . S
C590 N588 1.356 . S
C591 C585 1.363 . S
C591 C586 1.379 . S
C591 N589 1.356 . S
N592 C584 1.356 . S
N592 H598 0.984 . S
N592 H599 0.984 . S
N593 C586 1.356 1_565 S
N593 H596 0.984 . S
N593 H597 0.985 . S
H594 N589 0.984 . S
H595 N589 0.985 . S
H596 N593 0.984 . S
H597 N593 0.985 . S
H598 N592 0.984 . S
H599 N592 0.984 . S
H600 N588 0.984 . S
H601 N588 0.985 . S
C602 C603 1.363 . S
C602 C608 1.379 . S
C602 N610 1.356 . S
C603 C602 1.363 . S
C603 C609 1.363 . S
C604 C605 1.363 . S
C604 C609 1.379 . S
C604 N611 1.356 . S
C605 C604 1.363 . S
C605 C608 1.363 . S
N606 C608 1.356 . S
N606 H618 0.984 . S
N606 H619 0.985 . S
N607 C609 1.356 . S
N607 H612 0.984 . S
N607 H613 0.985 . S
C608 C602 1.379 . S
C608 C605 1.363 . S
C608 N606 1.356 . S
C609 C603 1.363 . S
C609 C604 1.379 . S
C609 N607 1.356 . S
N610 C602 1.356 . S
N610 H616 0.984 . S
N610 H617 0.984 . S
N611 C604 1.356 . S
N611 H614 0.984 . S
N611 H615 0.985 . S
H612 N607 0.984 . S
H613 N607 0.985 . S
H614 N611 0.984 . S
H615 N611 0.985 . S
H616 N610 0.984 . S
H617 N610 0.984 . S
H618 N606 0.984 . S
H619 N606 0.985 . S
C620 C621 1.363 . S
C620 C626 1.379 . S
C620 N628 1.356 . S
C621 C620 1.363 . S
C621 C627 1.363 . S
C622 C623 1.363 . S
C622 C627 1.379 . S
C622 N629 1.356 . S
C623 C622 1.363 . S
C623 C626 1.363 . S
N624 C626 1.356 . S
N624 H636 0.984 . S
N624 H637 0.985 . S
N625 C627 1.356 . S
N625 H630 0.984 . S
N625 H631 0.985 . S
C626 C620 1.379 . S
C626 C623 1.363 . S
C626 N624 1.356 . S
C627 C621 1.363 . S
C627 C622 1.379 . S
C627 N625 1.356 . S
N628 C620 1.356 . S
N628 H634 0.984 . S
N628 H635 0.984 . S
N629 C622 1.356 . S
N629 H632 0.984 . S
N629 H633 0.985 . S
H630 N625 0.984 . S
H631 N625 0.985 . S
H632 N629 0.984 . S
H633 N629 0.985 . S
H634 N628 0.984 . S
H635 N628 0.984 . S
H636 N624 0.984 . S
H637 N624 0.985 . S
C638 C639 1.363 . S
C638 C644 1.379 . S
C638 N646 1.356 . S
C639 C638 1.363 . S
C639 C645 1.363 . S
C640 C641 1.363 . S
C640 C645 1.379 . S
C640 N647 1.356 . S
C641 C640 1.363 . S
C641 C644 1.363 . S
N642 C644 1.356 . S
N642 H654 0.984 . S
N642 H655 0.985 . S
N643 C645 1.356 1_565 S
N643 H648 0.984 . S
N643 H649 0.985 . S
C644 C638 1.379 . S
C644 C641 1.363 . S
C644 N642 1.356 . S
C645 C639 1.363 . S
C645 C640 1.379 . S
C645 N643 1.356 1_545 S
N646 C638 1.356 . S
N646 H652 0.984 . S
N646 H653 0.984 . S
N647 C640 1.356 . S
N647 H650 0.984 . S
N647 H651 0.985 . S
H648 N643 0.984 . S
H649 N643 0.985 . S
H650 N647 0.984 . S
H651 N647 0.985 . S
H652 N646 0.984 . S
H653 N646 0.984 . S
H654 N642 0.984 . S
H655 N642 0.985 . S
C656 C657 1.363 . S
C656 C662 1.379 . S
C656 N664 1.356 . S
C657 C656 1.363 . S
C657 C663 1.363 . S
C658 C659 1.363 . S
C658 C663 1.379 . S
C658 N665 1.356 1_565 S
C659 C658 1.363 . S
C659 C662 1.363 . S
N660 C662 1.356 . S
N660 H672 0.984 . S
N660 H673 0.985 . S
N661 C663 1.356 . S
N661 H666 0.984 . S
N661 H667 0.985 . S
C662 C656 1.379 . S
C662 C659 1.363 . S
C662 N660 1.356 . S
C663 C657 1.363 . S
C663 C658 1.379 . S
C663 N661 1.356 . S
N664 C656 1.356 . S
N664 H670 0.984 . S
N664 H671 0.984 . S
N665 C658 1.356 1_545 S
N665 H668 0.984 . S
N665 H669 0.985 . S
H666 N661 0.984 . S
H667 N661 0.985 . S
H668 N665 0.984 . S
H669 N665 0.985 . S
H670 N664 0.984 . S
H671 N664 0.984 . S
H672 N660 0.984 . S
H673 N660 0.985 . S
C674 C675 1.363 . S
C674 C680 1.379 . S
C674 N682 1.356 . S
C675 C674 1.363 . S
C675 C681 1.363 . S
C676 C677 1.363 . S
C676 C681 1.379 . S
C676 N683 1.356 . S
C677 C676 1.363 . S
C677 C680 1.363 . S
N678 C680 1.356 . S
N678 H690 0.984 . S
N678 H691 0.985 . S
N679 C681 1.356 . S
N679 H684 0.984 . S
N679 H685 0.985 . S
C680 C674 1.379 . S
C680 C677 1.363 . S
C680 N678 1.356 . S
C681 C675 1.363 . S
C681 C676 1.379 . S
C681 N679 1.356 . S
N682 C674 1.356 . S
N682 H688 0.984 . S
N682 H689 0.984 . S
N683 C676 1.356 . S
N683 H686 0.984 . S
N683 H687 0.985 . S
H684 N679 0.984 . S
H685 N679 0.985 . S
H686 N683 0.984 . S
H687 N683 0.985 . S
H688 N682 0.984 . S
H689 N682 0.984 . S
H690 N678 0.984 . S
H691 N678 0.985 . S
C692 C693 1.363 . S
C692 C698 1.379 . S
C692 N700 1.356 . S
C693 C692 1.363 . S
C693 C699 1.363 . S
C694 C695 1.363 . S
C694 C699 1.379 . S
C694 N701 1.356 . S
C695 C694 1.363 . S
C695 C698 1.363 . S
N696 C698 1.356 . S
N696 H708 0.984 . S
N696 H709 0.985 . S
N697 C699 1.356 . S
N697 H702 0.984 . S
N697 H703 0.985 . S
C698 C692 1.379 . S
C698 C695 1.363 . S
C698 N696 1.356 . S
C699 C693 1.363 . S
C699 C694 1.379 . S
C699 N697 1.356 . S
N700 C692 1.356 . S
N700 H706 0.984 . S
N700 H707 0.984 . S
N701 C694 1.356 . S
N701 H704 0.984 . S
N701 H705 0.985 . S
H702 N697 0.984 . S
H703 N697 0.985 . S
H704 N701 0.984 . S
H705 N701 0.985 . S
H706 N700 0.984 . S
H707 N700 0.984 . S
H708 N696 0.984 . S
H709 N696 0.985 . S
C710 C711 1.363 . S
C710 C716 1.379 . S
C710 N718 1.356 . S
C711 C710 1.363 . S
C711 C717 1.363 . S
C712 C713 1.363 . S
C712 C717 1.379 . S
C712 N719 1.356 . S
C713 C712 1.363 . S
C713 C716 1.363 . S
N714 C716 1.356 1_545 S
N714 H726 0.984 . S
N714 H727 0.985 . S
N715 C717 1.356 . S
N715 H720 0.984 . S
N715 H721 0.985 . S
C716 C710 1.379 . S
C716 C713 1.363 . S
C716 N714 1.356 1_565 S
C717 C711 1.363 . S
C717 C712 1.379 . S
C717 N715 1.356 . S
N718 C710 1.356 . S
N718 H724 0.984 . S
N718 H725 0.984 . S
N719 C712 1.356 . S
N719 H722 0.984 . S
N719 H723 0.985 . S
H720 N715 0.984 . S
H721 N715 0.985 . S
H722 N719 0.984 . S
H723 N719 0.985 . S
H724 N718 0.984 . S
H725 N718 0.984 . S
H726 N714 0.984 . S
H727 N714 0.985 . S
C728 C729 1.363 . S
C728 C734 1.379 . S
C728 N736 1.356 . S
C729 C728 1.363 . S
C729 C735 1.363 . S
C730 C731 1.363 . S
C730 C735 1.379 . S
C730 N737 1.356 1_545 S
C731 C730 1.363 . S
C731 C734 1.363 . S
N732 C734 1.356 . S
N732 H744 0.984 . S
N732 H745 0.985 . S
N733 C735 1.356 . S
N733 H738 0.984 . S
N733 H739 0.985 . S
C734 C728 1.379 . S
C734 C731 1.363 . S
C734 N732 1.356 . S
C735 C729 1.363 . S
C735 C730 1.379 . S
C735 N733 1.356 . S
N736 C728 1.356 . S
N736 H742 0.984 . S
N736 H743 0.984 . S
N737 C730 1.356 1_565 S
N737 H740 0.984 . S
N737 H741 0.985 . S
H738 N733 0.984 . S
H739 N733 0.985 . S
H740 N737 0.984 . S
H741 N737 0.985 . S
H742 N736 0.984 . S
H743 N736 0.984 . S
H744 N732 0.984 . S
H745 N732 0.985 . S
C746 C747 1.363 . S
C746 C752 1.379 . S
C746 N754 1.356 . S
C747 C746 1.363 . S
C747 C753 1.363 . S
C748 C749 1.363 . S
C748 C753 1.379 . S
C748 N755 1.356 . S
C749 C748 1.363 . S
C749 C752 1.363 . S
N750 C752 1.356 . S
N750 H762 0.984 . S
N750 H763 0.985 . S
N751 C753 1.356 . S
N751 H756 0.984 . S
N751 H757 0.985 . S
C752 C746 1.379 . S
C752 C749 1.363 . S
C752 N750 1.356 . S
C753 C747 1.363 . S
C753 C748 1.379 . S
C753 N751 1.356 . S
N754 C746 1.356 . S
N754 H760 0.984 . S
N754 H761 0.984 . S
N755 C748 1.356 . S
N755 H758 0.984 . S
N755 H759 0.985 . S
H756 N751 0.984 . S
H757 N751 0.985 . S
H758 N755 0.984 . S
H759 N755 0.985 . S
H760 N754 0.984 . S
H761 N754 0.984 . S
H762 N750 0.984 . S
H763 N750 0.985 . S
C764 C765 1.363 . S
C764 C770 1.379 . S
C764 N772 1.356 . S
C765 C764 1.363 . S
C765 C771 1.363 . S
C766 C767 1.363 . S
C766 C771 1.379 . S
C766 N773 1.356 . S
C767 C766 1.363 . S
C767 C770 1.363 . S
N768 C770 1.356 . S
N768 H780 0.984 . S
N768 H781 0.985 . S
N769 C771 1.356 . S
N769 H774 0.984 . S
N769 H775 0.985 . S
C770 C764 1.379 . S
C770 C767 1.363 . S
C770 N768 1.356 . S
C771 C765 1.363 . S
C771 C766 1.379 . S
C771 N769 1.356 . S
N772 C764 1.356 . S
N772 H778 0.984 . S
N772 H779 0.984 . S
N773 C766 1.356 . S
N773 H776 0.984 . S
N773 H777 0.985 . S
H774 N769 0.984 . S
H775 N769 0.985 . S
H776 N773 0.984 . S
H777 N773 0.985 . S
H778 N772 0.984 . S
H779 N772 0.984 . S
H780 N768 0.984 . S
H781 N768 0.985 . S
C782 C783 1.363 . S
C782 C788 1.379 . S
C782 N790 1.356 . S
C783 C782 1.363 . S
C783 C789 1.363 . S
C784 C785 1.363 . S
C784 C789 1.379 . S
C784 N791 1.356 . S
C785 C784 1.363 . S
C785 C788 1.363 . S
N786 C788 1.356 . S
N786 H798 0.984 . S
N786 H799 0.985 1_545 S
N787 C789 1.356 . S
N787 H792 0.984 . S
N787 H793 0.985 . S
C788 C782 1.379 . S
C788 C785 1.363 . S
C788 N786 1.356 . S
C789 C783 1.363 . S
C789 C784 1.379 . S
C789 N787 1.356 . S
N790 C782 1.356 . S
N790 H796 0.984 . S
N790 H797 0.984 . S
N791 C784 1.356 . S
N791 H794 0.984 . S
N791 H795 0.985 . S
H792 N787 0.984 . S
H793 N787 0.985 . S
H794 N791 0.984 . S
H795 N791 0.985 . S
H796 N790 0.984 . S
H797 N790 0.984 . S
H798 N786 0.984 . S
H799 N786 0.985 1_565 S
C225 C199 1.495 . S
C227 C3 1.495 . S
C243 C36 1.499 . S
C245 C8 1.499 . S
C261 C162 1.499 . S
C263 C22 1.499 . S
C279 C17 1.494 . S
C281 C101 1.494 . S
C297 C31 1.495 . S
C299 C171 1.495 . S
C315 C134 1.499 . S
C317 C50 1.499 . S
C333 C45 1.494 . S
C335 C73 1.494 . S
C351 C143 1.495 . S
C353 C59 1.495 . S
C369 C64 1.499 . S
C371 C92 1.499 . S
C387 C218 1.500 . S
C389 C78 1.500 . S
C405 C115 1.495 . S
C407 C87 1.495 . S
C423 C190 1.499 . S
C425 C106 1.499 . S
C441 C120 1.499 . S
C443 C148 1.499 . S
C459 C213 1.494 . S
C461 C129 1.494 . S
C477 C157 1.494 . S
C479 C185 1.494 . S
C495 C204 1.499 . S
C497 C176 1.499 . S
C513 C79 1.443 . S
C515 C7 1.435 1_565 S
C531 C9 1.443 . S
C533 C77 1.435 . S
C549 C23 1.443 . S
C551 C63 1.435 . S
C567 C65 1.443 . S
C569 C21 1.435 1_565 S
C585 C107 1.443 . S
C587 C35 1.435 1_545 S
C603 C105 1.435 . S
C605 C37 1.443 . S
C621 C91 1.435 . S
C623 C51 1.443 . S
C639 C49 1.435 1_545 S
C641 C93 1.443 . S
C657 C191 1.443 . S
C659 C119 1.435 1_565 S
C675 C121 1.443 . S
C677 C189 1.435 . S
C693 C135 1.443 . S
C695 C175 1.435 . S
C711 C177 1.443 . S
C713 C133 1.435 1_565 S
C729 C219 1.443 . S
C731 C147 1.435 1_545 S
C747 C217 1.435 . S
C749 C149 1.443 . S
C765 C163 1.443 . S
C767 C203 1.435 . S
C783 C205 1.443 . S
C785 C161 1.435 1_545 S
