# Generated by pormake.
# Topology sxc, (6)-cn, num edge types: 1
# Building blocks:
#     Node 0, Type 0, BuildingBlock: JUFBIX_clean_sbu_0, # of connection points: 6
#     Node 1, Type 0, BuildingBlock: JUFBIX_clean_sbu_0, # of connection points: 6
#     Node 2, Type 0, BuildingBlock: JUFBIX_clean_sbu_0, # of connection points: 6
#     Edge 3, Type (0, 0), BuildingBlock: TEMPAE_clean_linker_10, # of connection points: 2
#     Edge 4, Type (0, 0), BuildingBlock: TEMPAE_clean_linker_10, # of connection points: 2
#     Edge 5, Type (0, 0), BuildingBlock: TEMPAE_clean_linker_10, # of connection points: 2
#     Edge 6, Type (0, 0), BuildingBlock: TEMPAE_clean_linker_10, # of connection points: 2
#     Edge 7, Type (0, 0), BuildingBlock: TEMPAE_clean_linker_10, # of connection points: 2
#     Edge 8, Type (0, 0), BuildingBlock: TEMPAE_clean_linker_10, # of connection points: 2
#     Edge 9, Type (0, 0), BuildingBlock: TEMPAE_clean_linker_10, # of connection points: 2
#     Edge 10, Type (0, 0), BuildingBlock: TEMPAE_clean_linker_10, # of connection points: 2
#     Edge 11, Type (0, 0), BuildingBlock: TEMPAE_clean_linker_10, # of connection points: 2
# Relax obj value: 0.476
# Max RMSD: 0.153
# Mean RMSD: 0.152
data_MOF--net-sxc--node1-JUFBIX_clean_sbu_0--edge1-TEMPAE_clean_linker_10
_symmetry_space_group_name_H-M    P1
_symmetry_Int_Tables_number       1
_symmetry_cell_setting            triclinic
loop_
_symmetry_equiv_pos_as_xyz
'x, y, z'
_cell_length_a     15.391937
_cell_length_b     15.393302
_cell_length_c     45.50788
_cell_angle_alpha  93.362955
_cell_angle_beta   88.96763
_cell_angle_gamma 119.94078
loop_
_atom_site_label
_atom_site_type_symbol
_atom_site_fract_x
_atom_site_fract_y
_atom_site_fract_z
_atom_type_partial_charge
Co0 Co 0.15191 1.0025 0.99951 0.0
C1 C 0.09907 1.03586 0.94515 0.0
Co2 Co 1.06234 0.07749 0.00247 0.0
C3 C 0.23954 0.89342 0.01908 0.0
C4 C 0.3111 0.96474 0.97988 0.0
N5 N 0.23334 0.94652 0.99771 0.0
N6 N 0.31925 0.88015 0.01613 0.0
C7 C 0.36337 0.92212 0.99096 0.0
H8 H 0.18609 0.86465 0.03674 0.0
H9 H 0.33064 1.00916 0.96075 0.0
C10 C 0.11561 1.04615 0.05699 0.0
N11 N 0.98045 0.13439 0.00676 0.0
C12 C 1.01304 0.23341 0.00904 0.0
C13 C 0.89269 0.09266 0.02143 0.0
N14 N 0.95402 0.25565 0.02633 0.0
C15 C 0.87729 0.1673 0.03384 0.0
C16 C 0.9458 0.8655 1.00044 0.0
O17 O 0.16221 1.01214 0.04146 0.0
O18 O 1.06445 0.07666 0.04415 0.0
O19 O 0.94432 0.94715 1.00015 0.0
O20 O 1.0309 0.87004 1.00098 0.0
O21 O 1.06013 0.07891 0.9607 0.0
H22 H 0.85113 1.01522 0.02718 0.0
H23 H 1.08743 0.28989 0.00283 0.0
O24 O 0.14132 0.99481 0.95785 0.0
O25 O 0.27085 0.13155 0.99797 0.0
O26 O 0.18544 0.20929 0.00464 0.0
C27 C 0.26982 0.21338 0.00133 0.0
H28 H 0.42863 0.92255 0.98152 0.0
H29 H 0.82315 0.15815 0.05066 0.0
Co30 Co 0.2308 0.1369 0.33489 0.0
C31 C 0.14476 0.08124 0.27911 0.0
Co32 Co 1.06705 1.04832 0.33519 0.0
C33 C 0.42076 0.19932 0.35699 0.0
C34 C 0.43527 0.29618 0.32327 0.0
N35 N 0.36843 0.21124 0.33597 0.0
N36 N 0.51602 0.27453 0.35908 0.0
C37 C 0.52758 0.33471 0.33727 0.0
H38 H 0.38847 0.13706 0.37127 0.0
H39 H 0.41712 0.33028 0.30605 0.0
C40 C 0.15287 0.10404 0.39127 0.0
N41 N 0.92965 0.97475 0.33706 0.0
C42 C 0.88084 0.99657 0.35823 0.0
C43 C 0.8604 0.88463 0.32481 0.0
N44 N 0.78553 0.9232 0.36081 0.0
C45 C 0.77022 0.85328 0.3392 0.0
C46 C 0.15431 0.9272 0.33496 0.0
O47 O 0.23269 0.15029 0.37693 0.0
O48 O 1.07141 1.05215 0.37712 0.0
O49 O 1.07137 0.92591 0.33341 0.0
O50 O 0.2351 1.01207 0.33649 0.0
O51 O 1.06324 1.04363 0.29343 0.0
H52 H 0.87547 0.8427 0.30756 0.0
H53 H 0.9157 1.06516 0.37218 0.0
O54 O 0.22829 0.12445 0.29306 0.0
O55 O 0.22623 0.25862 0.33327 0.0
O56 O 1.06299 0.17378 0.33694 0.0
C57 C 0.14349 0.25796 0.33514 0.0
H58 H 0.5964 0.40225 0.33239 0.0
H59 H 0.70021 0.78433 0.33463 0.0
Co60 Co 1.09443 0.99556 0.66513 0.0
C61 C 0.14173 0.09093 0.6127 0.0
Co62 Co 0.16782 0.15886 0.67149 0.0
C63 C 0.93926 0.79165 0.65694 0.0
C64 C 1.07943 0.81478 0.64047 0.0
N65 N 1.03799 0.858 0.65802 0.0
N66 N 0.91659 0.71314 0.63773 0.0
C67 C 1.00455 0.72646 0.62755 0.0
H68 H 0.88323 0.80855 0.66576 0.0
H69 H 0.1566 0.85246 0.63345 0.0
C70 C 0.11963 1.06228 0.72374 0.0
N71 N 0.22383 0.2961 0.67629 0.0
C72 C 0.28013 0.35914 0.65583 0.0
C73 C 0.20192 0.35238 0.69559 0.0
N74 N 0.29143 0.45114 0.66068 0.0
C75 C 0.24531 0.44907 0.68623 0.0
C76 C 0.95826 0.06727 0.66754 0.0
O77 O 1.07819 0.98331 0.7066 0.0
O78 O 0.16663 0.14787 0.71277 0.0
O79 O 1.03873 0.149 0.6735 0.0
O80 O 0.96383 0.98818 0.66176 0.0
O81 O 0.16728 0.16791 0.62977 0.0
H82 H 0.15388 0.32395 0.71441 0.0
H83 H 0.31171 0.33767 0.63726 0.0
O84 O 0.11043 1.00725 0.62386 0.0
O85 O 0.22309 1.00572 0.66855 0.0
O86 O 0.30025 0.16971 0.66955 0.0
C87 C 0.30475 0.089 0.66921 0.0
H88 H 1.01303 0.68415 0.60897 0.0
H89 H 0.24177 0.51191 0.69692 0.0
C90 C 0.99097 0.42742 0.0356 0.0
C91 C 0.99645 0.34568 0.04468 0.0
C92 C 1.06503 0.52488 0.04451 0.0
C93 C 0.1474 0.53886 0.0619 0.0
C94 C 0.14366 0.45613 0.07491 0.0
C95 C 1.06693 0.35969 0.06624 0.0
C96 C 1.06186 0.61193 0.03195 0.0
C97 C 0.22649 0.46682 0.09463 0.0
C98 C 0.3432 0.7367 0.02004 0.0
C99 C 0.33645 0.81642 0.0339 0.0
C100 C 0.29705 0.64355 0.03269 0.0
C101 C 0.24394 0.63283 0.05929 0.0
C102 C 0.26156 0.71913 0.07661 0.0
C103 C 0.30982 0.8117 0.06368 0.0
C104 C 0.28632 0.55357 0.01449 0.0
C105 C 0.21387 0.71246 0.10621 0.0
H106 H 0.93525 0.41523 0.01918 0.0
H107 H 1.06968 0.29506 0.07327 0.0
H108 H 1.07861 0.67178 0.0494 0.0
H109 H 0.11906 0.64421 0.01459 0.0
H110 H 0.98758 0.5884 0.02193 0.0
H111 H 0.27486 0.44459 0.08176 0.0
H112 H 0.27373 0.54466 0.10408 0.0
H113 H 0.19444 0.41515 0.11285 0.0
H114 H 0.36793 0.74164 0.99744 0.0
H115 H 0.31023 0.87592 0.07499 0.0
H116 H 0.21722 0.52123 1.00068 0.0
H117 H 0.2798 0.4948 0.02875 0.0
H118 H 0.351 0.57471 0.99963 0.0
H119 H 0.1497 0.72568 0.104 0.0
H120 H 0.26885 0.77201 0.12183 0.0
H121 H 0.18655 0.63842 0.11559 0.0
C122 C 0.55459 0.23766 0.40665 0.0
C123 C 0.588 0.27636 0.37891 0.0
C124 C 0.58528 0.17506 0.41821 0.0
C125 C 0.65605 0.15878 0.40248 0.0
C126 C 0.70998 0.22152 0.37932 0.0
C127 C 0.67386 0.27933 0.36736 0.0
C128 C 0.52961 0.11518 0.4441 0.0
C129 C 0.79306 0.21326 0.36368 0.0
C130 C 0.75391 0.98444 0.40788 0.0
C131 C 0.71652 0.93177 0.38058 0.0
C132 C 0.72454 1.05245 0.41882 0.0
C133 C 0.65162 1.06076 0.40293 0.0
C134 C 0.59446 0.98659 0.38043 0.0
C135 C 0.62893 0.92293 0.36906 0.0
C136 C 0.78396 0.12604 0.44389 0.0
C137 C 0.50892 0.98685 0.36483 0.0
H138 H 0.49142 0.24084 0.4164 0.0
H139 H 0.7024 0.31289 0.34652 0.0
H140 H 0.44992 1.06347 0.4377 0.0
H141 H 0.56171 0.07062 0.45231 0.0
H142 H 0.53055 0.16673 0.46235 0.0
H143 H 0.83915 0.27939 0.35051 0.0
H144 H 0.84235 0.20624 0.37971 0.0
H145 H 0.76028 0.14519 0.34846 0.0
H146 H 0.81861 0.9864 0.41761 0.0
H147 H 0.59734 0.87886 0.34862 0.0
H148 H 0.74381 0.1626 0.45434 0.0
H149 H 0.85638 0.18522 0.43542 0.0
H150 H 0.80122 0.08775 0.46087 0.0
H151 H 0.46123 1.00031 0.3809 0.0
H152 H 0.46181 0.91486 0.35196 0.0
H153 H 0.53917 1.04815 0.34933 0.0
C154 C 0.74471 0.57929 0.63063 0.0
C155 C 0.82533 0.66719 0.62117 0.0
C156 C 0.64674 0.55655 0.62448 0.0
C157 C 0.63101 0.62633 0.60956 0.0
C158 C 0.71235 0.70704 0.59616 0.0
C159 C 0.80937 0.72561 0.60181 0.0
C160 C 0.56123 0.46509 0.63743 0.0
C161 C 0.69912 0.77873 0.57801 0.0
C162 C 0.35827 0.51543 0.613 0.0
C163 C 0.3544 0.5342 0.64344 0.0
C164 C 0.45028 0.56107 0.59864 0.0
C165 C 0.53683 0.62754 0.61532 0.0
C166 C 0.52711 0.66703 0.64335 0.0
C167 C 0.43449 0.61885 0.65738 0.0
C168 C 0.45715 0.52404 0.56779 0.0
C169 C 0.61771 0.7446 0.6609 0.0
H170 H 0.75839 0.53439 0.64535 0.0
H171 H 0.87337 0.79306 0.59422 0.0
H172 H 0.53109 0.48845 0.65674 0.0
H173 H 0.49964 0.42385 0.621 0.0
H174 H 0.58553 0.41305 0.64488 0.0
H175 H 0.76387 0.8562 0.58113 0.0
H176 H 0.69612 0.7547 0.5544 0.0
H177 H 0.62913 0.78021 0.58306 0.0
H178 H 0.29383 0.45275 0.60189 0.0
H179 H 0.43012 0.63598 0.68062 0.0
H180 H 0.47348 0.46169 0.56873 0.0
H181 H 0.51862 0.58482 0.55568 0.0
H182 H 0.38542 0.49523 0.55546 0.0
H183 H 0.65272 0.7069 0.67188 0.0
H184 H 0.59704 0.78472 0.6782 0.0
H185 H 0.67421 0.79993 0.64633 0.0
C186 C 0.84232 0.12305 0.68976 0.0
C187 C 0.86059 0.06638 0.6678 0.0
C188 C 0.75246 0.12671 0.69017 0.0
C189 C 0.67988 0.07606 0.66732 0.0
C190 C 0.69879 1.01975 0.64478 0.0
C191 C 0.78781 1.01417 0.64561 0.0
C192 C 0.73429 0.18323 0.71551 0.0
C193 C 0.6254 0.96483 0.61969 0.0
C194 C 0.40634 1.00765 0.68038 0.0
C195 C 0.40228 0.0891 0.66941 0.0
C196 C 0.4956 1.00299 0.68009 0.0
C197 C 0.58364 0.08017 0.66766 0.0
C198 C 0.57955 0.1618 0.65596 0.0
C199 C 0.48976 0.16617 0.65746 0.0
C200 C 0.49439 0.91388 0.6927 0.0
C201 C 0.66949 0.2435 0.64121 0.0
H202 H 0.89803 0.16343 0.70706 0.0
H203 H 0.80175 0.97114 0.62837 0.0
H204 H 0.72666 0.24551 0.70728 0.0
H205 H 0.66291 0.13229 0.72638 0.0
H206 H 0.79585 0.21498 0.73221 0.0
H207 H 0.66356 0.95484 0.59992 0.0
H208 H 0.56839 0.88921 0.6264 0.0
H209 H 0.58597 1.00504 0.61354 0.0
H210 H 0.33925 0.94716 0.6895 0.0
H211 H 0.4871 0.22833 0.64839 0.0
H212 H 0.56441 0.93689 0.70528 0.0
H213 H 0.48841 0.86033 0.67438 0.0
H214 H 0.42951 0.87375 0.70739 0.0
H215 H 0.7295 0.28872 0.6578 0.0
H216 H 0.65112 0.2946 0.62999 0.0
H217 H 0.70001 0.20994 0.62475 0.0
C218 C 0.76194 0.76131 0.98768 0.0
C219 C 0.84826 0.76797 1.00008 0.0
C220 C 0.66803 0.67213 0.98765 0.0
C221 C 0.65796 0.58707 0.0013 0.0
C222 C 0.74469 0.59381 0.01432 0.0
C223 C 0.83869 0.68328 0.01315 0.0
C224 C 0.57952 0.67035 0.97324 0.0
C225 C 0.73792 0.50693 0.02997 0.0
C226 C 0.39068 0.38817 0.02268 0.0
C227 C 0.36662 0.31083 1.00095 0.0
C228 C 0.48536 0.47731 0.02346 0.0
C229 C 0.55744 0.49109 0.00151 0.0
C230 C 0.53219 0.41357 0.97919 0.0
C231 C 0.43845 0.32414 0.97954 0.0
C232 C 0.50837 0.55651 0.04792 0.0
C233 C 0.6036 0.42586 0.95452 0.0
H234 H 0.76788 0.82618 0.97763 0.0
H235 H 0.90416 0.68809 0.0233 0.0
H236 H 0.53016 0.59676 0.96148 0.0
H237 H 0.53461 0.68333 0.99042 0.0
H238 H 0.60371 0.73019 0.95738 0.0
H239 H 0.80869 0.52739 0.0418 0.0
H240 H 0.67595 0.48004 0.04604 0.0
H241 H 0.72082 0.44348 0.01382 0.0
H242 H 0.33647 0.37752 0.03964 0.0
H243 H 0.42055 0.2647 0.96267 0.0
H244 H 0.50893 0.62221 0.03894 0.0
H245 H 0.58374 0.58288 0.0576 0.0
H246 H 0.45212 0.52856 0.06569 0.0
H247 H 0.62256 0.49451 0.94292 0.0
H248 H 0.57173 0.36047 0.93826 0.0
H249 H 0.67455 0.4356 0.96355 0.0
C250 C 1.07724 0.37229 0.35307 0.0
C251 C 0.14251 0.35468 0.33508 0.0
C252 C 1.08033 0.46588 0.35422 0.0
C253 C 0.14769 0.54301 0.33607 0.0
C254 C 0.21235 0.52447 0.31745 0.0
C255 C 0.21033 0.43178 0.31763 0.0
C256 C 1.01229 0.48254 0.3752 0.0
C257 C 0.28307 0.60221 0.29698 0.0
C258 C 1.08438 0.74585 0.31795 0.0
C259 C 0.15512 0.83035 0.33493 0.0
C260 C 1.08208 0.65296 0.31784 0.0
C261 C 0.14959 0.6422 0.33607 0.0
C262 C 0.21991 0.72699 0.35378 0.0
C263 C 0.2231 0.82021 0.35255 0.0
C264 C 1.00801 0.56656 0.29784 0.0
C265 C 0.29123 0.71915 0.37434 0.0
H266 H 1.02588 0.31384 0.36698 0.0
H267 H 0.26095 0.41884 0.30361 0.0
H268 H 1.05556 0.5548 0.38828 0.0
H269 H 0.95378 0.48698 0.3626 0.0
H270 H 0.97457 0.42111 0.39056 0.0
H271 H 0.32439 0.57439 0.28271 0.0
H272 H 0.24066 0.6247 0.28276 0.0
H273 H 0.33841 0.67053 0.30991 0.0
H274 H 1.03161 0.75292 0.30423 0.0
H275 H 0.2768 0.88453 0.3661 0.0
H276 H 0.95502 0.50368 0.31111 0.0
H277 H 1.04811 0.53814 0.28328 0.0
H278 H 0.96415 0.58824 0.28391 0.0
H279 H 0.25054 0.65148 0.38729 0.0
H280 H 0.32995 0.78628 0.38982 0.0
H281 H 0.34891 0.71133 0.36138 0.0
C282 C 0.22688 0.14097 0.23076 0.0
C283 C 0.14234 0.07539 0.24653 0.0
C284 C 0.2248 0.13769 0.19987 0.0
C285 C 0.13669 0.06585 0.18437 0.0
C286 C 1.05167 0.99839 0.20016 0.0
C287 C 1.05518 1.00462 0.23106 0.0
C288 C 0.31661 0.21147 0.18379 0.0
C289 C 0.95704 0.91951 0.18441 0.0
C290 C 1.09085 0.11025 0.10633 0.0
C291 C 0.12165 1.05136 0.08952 0.0
C292 C 1.09702 0.11702 0.13718 0.0
C293 C 0.13299 1.06191 0.15162 0.0
C294 C 0.16423 1.00228 0.13476 0.0
C295 C 0.15857 0.99805 0.1039 0.0
C296 C 1.0652 0.18334 0.1543 0.0
C297 C 0.20163 0.94115 0.14924 0.0
H298 H 0.29432 0.19614 0.2426 0.0
H299 H 0.98985 0.95324 0.24313 0.0
H300 H 0.34351 0.17048 0.16887 0.0
H301 H 0.29738 0.25657 0.16992 0.0
H302 H 0.37877 0.26339 0.19909 0.0
H303 H 0.89839 0.87109 0.1999 0.0
H304 H 0.92632 0.95596 0.17093 0.0
H305 H 0.97415 0.87123 0.16916 0.0
H306 H 1.06258 0.15188 0.09536 0.0
H307 H 0.18187 0.95182 0.09104 0.0
H308 H 0.1273 0.23869 0.16902 0.0
H309 H 1.00077 0.13721 0.16845 0.0
H310 H 1.0432 0.2247 0.13969 0.0
H311 H 0.25634 0.98629 0.16714 0.0
H312 H 0.23781 0.91231 0.13324 0.0
H313 H 0.13755 0.87628 0.15924 0.0
C314 C 0.24531 0.14716 0.43942 0.0
C315 C 0.1546 0.10923 0.42385 0.0
C316 C 0.24745 0.14947 0.4703 0.0
C317 C 0.15659 0.11305 0.48597 0.0
C318 C 1.06498 0.07631 0.47036 0.0
C319 C 1.06511 0.0747 0.4395 0.0
C320 C 0.34665 0.18757 0.48596 0.0
C321 C 0.96668 1.03855 0.48624 0.0
C322 C 0.13641 1.01632 0.56206 0.0
C323 C 0.1481 0.0981 0.58036 0.0
C324 C 0.1413 1.02119 0.53135 0.0
C325 C 0.15641 0.10929 0.51858 0.0
C326 C 0.16883 0.19238 0.53693 0.0
C327 C 0.16536 0.18611 0.56764 0.0
C328 C 0.12952 0.93168 0.51255 0.0
C329 C 0.1851 0.28757 0.52411 0.0
H330 H 0.31461 0.17332 0.42744 0.0
H331 H 0.99493 1.04621 0.4276 0.0
H332 H 0.35324 0.23548 0.50593 0.0
H333 H 0.35197 0.12266 0.49309 0.0
H334 H 0.41099 0.23148 0.47146 0.0
H335 H 0.90149 1.00573 0.4708 0.0
H336 H 0.95614 0.98057 0.50152 0.0
H337 H 0.96744 0.10149 0.49966 0.0
H338 H 0.1238 0.94832 0.57174 0.0
H339 H 0.17473 0.2497 0.58167 0.0
H340 H 0.19524 0.95476 0.49802 0.0
H341 H 1.06211 0.90185 0.49814 0.0
H342 H 0.12203 0.87029 0.52595 0.0
H343 H 0.25402 0.31996 0.51069 0.0
H344 H 0.19242 0.345 0.54138 0.0
H345 H 0.12146 0.27045 0.50925 0.0
C346 C 0.17466 0.1402 0.77463 0.0
C347 C 0.11358 1.05547 0.75613 0.0
C348 C 0.17046 0.13551 0.80535 0.0
C349 C 0.1026 1.04419 0.81797 0.0
C350 C 1.04002 0.95858 0.79945 0.0
C351 C 1.04672 0.96505 0.76873 0.0
C352 C 0.2393 0.22816 0.82432 0.0
C353 C 0.96591 0.86023 0.81211 0.0
C354 C 0.15874 1.00832 0.89587 0.0
C355 C 1.09731 1.03509 0.91259 0.0
C356 C 0.16054 1.01017 0.86506 0.0
C357 C 0.09848 1.03826 0.85055 0.0
C358 C 1.03494 1.06364 0.86725 0.0
C359 C 1.03561 1.06242 0.89809 0.0
C360 C 0.23029 0.98386 0.84808 0.0
C361 C 0.9669 0.09291 0.85254 0.0
H362 H 0.22677 0.21032 0.76509 0.0
H363 H 0.99886 0.89943 0.75459 0.0
H364 H 0.19458 0.24937 0.83937 0.0
H365 H 0.28771 0.21234 0.83823 0.0
H366 H 0.28804 0.29322 0.81107 0.0
H367 H 0.92099 0.80133 0.79474 0.0
H368 H 1.0061 0.83287 0.82542 0.0
H369 H 0.91402 0.87127 0.82705 0.0
H370 H 0.207 0.98755 0.9069 0.0
H371 H 0.98757 0.0827 0.91084 0.0
H372 H 0.28473 1.04903 0.83578 0.0
H373 H 0.18712 0.9209 0.83164 0.0
H374 H 0.27263 0.96214 0.86263 0.0
H375 H 1.01239 0.16224 0.84064 0.0
H376 H 0.91893 0.10635 0.86855 0.0
H377 H 0.91785 1.03301 0.83599 0.0
loop_
_geom_bond_atom_site_label_1
_geom_bond_atom_site_label_2
_geom_bond_distance
_geom_bond_site_symmetry_2
_ccdc_geom_bond_type
Co0 N5 2.057 1_554 S
Co0 O17 2.021 . S
Co0 O20 2.062 1_455 S
Co0 O24 2.117 1_554 S
Co0 O25 2.020 1_565 S
C1 O21 1.259 1_455 S
C1 O24 1.258 1_545 S
Co2 N11 2.057 . S
Co2 O18 2.116 1_655 S
Co2 O19 2.020 1_545 S
Co2 O21 2.021 1_554 S
Co2 O26 2.062 1_655 S
C3 N5 1.316 1_554 S
C3 N6 1.347 1_554 S
C3 H8 0.931 . S
C4 N5 1.375 . S
C4 C7 1.350 . S
C4 H9 0.930 . S
N5 Co0 2.057 1_556 S
N5 C3 1.316 1_556 S
N5 C4 1.375 . S
N6 C3 1.347 1_556 S
N6 C7 1.372 . S
C7 C4 1.350 . S
C7 N6 1.372 . S
C7 H28 0.931 . S
H8 C3 0.931 . S
H9 C4 0.930 . S
C10 O17 1.259 1_545 S
C10 O18 1.259 . S
N11 Co2 2.057 . S
N11 C12 1.316 1_554 S
N11 C13 1.375 . S
C12 N11 1.316 1_556 S
C12 N14 1.347 1_556 S
C12 H23 0.931 . S
C13 N11 1.375 . S
C13 C15 1.350 . S
C13 H22 0.930 . S
N14 C12 1.347 1_554 S
N14 C15 1.373 . S
C15 C13 1.350 . S
C15 N14 1.373 . S
C15 H29 0.931 . S
C16 O19 1.256 . S
C16 O20 1.255 . S
O17 Co0 2.021 . S
O17 C10 1.259 1_565 S
O18 Co2 2.116 1_455 S
O18 C10 1.259 . S
O19 Co2 2.020 1_565 S
O19 C16 1.256 . S
O20 Co0 2.062 1_655 S
O20 C16 1.255 . S
O21 C1 1.259 1_655 S
O21 Co2 2.021 1_556 S
H22 C13 0.930 . S
H23 C12 0.931 . S
O24 Co0 2.117 1_556 S
O24 C1 1.258 1_565 S
O25 Co0 2.020 1_545 S
O25 C27 1.256 . S
O26 Co2 2.062 1_455 S
O26 C27 1.255 . S
C27 O25 1.256 . S
C27 O26 1.255 . S
H28 C7 0.931 . S
H29 C15 0.931 . S
Co30 N35 2.057 . S
Co30 O47 2.021 . S
Co30 O50 2.062 1_545 S
Co30 O54 2.117 . S
Co30 O55 2.020 . S
C31 O51 1.259 1_445 S
C31 O54 1.258 . S
Co32 N41 2.057 . S
Co32 O48 2.117 1_565 S
Co32 O49 2.020 . S
Co32 O51 2.021 . S
Co32 O56 2.060 1_565 S
C33 N35 1.316 . S
C33 N36 1.347 . S
C33 H38 0.931 . S
C34 N35 1.375 . S
C34 C37 1.350 . S
C34 H39 0.930 . S
N35 Co30 2.057 . S
N35 C33 1.316 . S
N35 C34 1.375 . S
N36 C33 1.347 . S
N36 C37 1.373 . S
C37 C34 1.350 . S
C37 N36 1.373 . S
C37 H58 0.931 . S
H38 C33 0.931 . S
H39 C34 0.930 . S
C40 O47 1.259 . S
C40 O48 1.258 1_455 S
N41 Co32 2.057 . S
N41 C42 1.316 . S
N41 C43 1.375 . S
C42 N41 1.316 . S
C42 N44 1.347 . S
C42 H53 0.931 . S
C43 N41 1.375 . S
C43 C45 1.350 . S
C43 H52 0.930 . S
N44 C42 1.347 . S
N44 C45 1.373 . S
C45 C43 1.350 . S
C45 N44 1.373 . S
C45 H59 0.931 . S
C46 O49 1.256 1_455 S
C46 O50 1.255 . S
O47 Co30 2.021 . S
O47 C40 1.259 . S
O48 Co32 2.117 1_545 S
O48 C40 1.258 1_655 S
O49 Co32 2.020 . S
O49 C46 1.256 1_655 S
O50 Co30 2.062 1_565 S
O50 C46 1.255 . S
O51 C31 1.259 1_665 S
O51 Co32 2.021 . S
H52 C43 0.930 . S
H53 C42 0.931 . S
O54 Co30 2.117 . S
O54 C31 1.258 . S
O55 Co30 2.020 . S
O55 C57 1.256 . S
O56 Co32 2.060 1_545 S
O56 C57 1.246 1_655 S
C57 O55 1.256 . S
C57 O56 1.246 1_455 S
H58 C37 0.931 . S
H59 C45 0.931 . S
Co60 N65 2.057 . S
Co60 O77 2.021 . S
Co60 O80 2.062 . S
Co60 O84 2.117 1_655 S
Co60 O85 2.020 1_655 S
C61 O81 1.259 . S
C61 O84 1.260 1_545 S
Co62 N71 2.057 . S
Co62 O78 2.117 . S
Co62 O79 2.020 1_455 S
Co62 O81 2.021 . S
Co62 O86 2.062 . S
C63 N65 1.316 . S
C63 N66 1.347 . S
C63 H68 0.931 . S
C64 N65 1.375 . S
C64 C67 1.350 . S
C64 H69 0.930 . S
N65 Co60 2.057 . S
N65 C63 1.316 . S
N65 C64 1.375 . S
N66 C63 1.347 . S
N66 C67 1.373 . S
C67 C64 1.350 . S
C67 N66 1.373 . S
C67 H88 0.931 . S
H68 C63 0.931 . S
H69 C64 0.930 . S
C70 O77 1.259 1_445 S
C70 O78 1.258 . S
N71 Co62 2.057 . S
N71 C72 1.316 . S
N71 C73 1.375 . S
C72 N71 1.316 . S
C72 N74 1.347 . S
C72 H83 0.931 . S
C73 N71 1.375 . S
C73 C75 1.350 . S
C73 H82 0.930 . S
N74 C72 1.347 . S
N74 C75 1.373 . S
C75 C73 1.350 . S
C75 N74 1.373 . S
C75 H89 0.931 . S
C76 O79 1.256 . S
C76 O80 1.255 1_545 S
O77 Co60 2.021 . S
O77 C70 1.259 1_665 S
O78 Co62 2.117 . S
O78 C70 1.258 . S
O79 Co62 2.020 1_655 S
O79 C76 1.256 . S
O80 Co60 2.062 . S
O80 C76 1.255 1_565 S
O81 C61 1.259 . S
O81 Co62 2.021 . S
H82 C73 0.930 . S
H83 C72 0.931 . S
O84 Co60 2.117 1_455 S
O84 C61 1.260 1_565 S
O85 Co60 2.020 1_455 S
O85 C87 1.256 . S
O86 Co62 2.062 . S
O86 C87 1.255 1_545 S
C87 O85 1.256 . S
C87 O86 1.255 1_565 S
H88 C67 0.931 . S
H89 C75 0.931 . S
C90 C91 1.391 . S
C90 C92 1.394 . S
C90 H106 0.931 . S
C91 C90 1.391 . S
C91 C95 1.376 1_654 S
C92 C90 1.394 . S
C92 C93 1.369 1_655 S
C92 C96 1.531 . S
C93 C92 1.369 1_455 S
C93 C94 1.418 . S
C93 C101 1.503 . S
C94 C93 1.418 . S
C94 C95 1.392 1_554 S
C94 C97 1.503 1_554 S
C95 C91 1.376 1_456 S
C95 C94 1.392 1_556 S
C95 H107 0.929 . S
C96 C92 1.531 . S
C96 H108 0.960 . S
C96 H109 0.962 . S
C96 H110 0.960 . S
C97 C94 1.503 1_556 S
C97 H111 0.961 . S
C97 H112 0.961 . S
C97 H113 0.961 1_556 S
C98 C99 1.370 1_556 S
C98 C100 1.363 . S
C98 H114 0.931 . S
C99 C98 1.370 1_554 S
C99 C103 1.408 . S
C100 C98 1.363 . S
C100 C101 1.370 1_556 S
C100 C104 1.524 1_455 S
C101 C93 1.503 . S
C101 C100 1.370 1_554 S
C101 C102 1.403 . S
C102 C101 1.403 . S
C102 C103 1.404 . S
C102 C105 1.539 . S
C103 C99 1.408 . S
C103 C102 1.404 . S
C103 H115 0.930 . S
C104 C100 1.524 1_655 S
C104 H116 0.956 . S
C104 H117 0.961 . S
C104 H118 0.961 . S
C105 C102 1.539 . S
C105 H119 0.958 . S
C105 H120 0.961 . S
C105 H121 0.960 . S
H106 C90 0.931 . S
H107 C95 0.929 . S
H108 C96 0.960 . S
H109 C96 0.962 . S
H110 C96 0.960 . S
H111 C97 0.961 . S
H112 C97 0.961 . S
H113 C97 0.961 1_554 S
H114 C98 0.931 . S
H115 C103 0.930 . S
H116 C104 0.956 . S
H117 C104 0.961 . S
H118 C104 0.961 . S
H119 C105 0.958 . S
H120 C105 0.961 . S
H121 C105 0.960 . S
C122 C123 1.391 . S
C122 C124 1.394 1_545 S
C122 H138 0.931 . S
C123 C122 1.391 . S
C123 C127 1.376 . S
C124 C122 1.394 1_565 S
C124 C125 1.369 1_565 S
C124 C128 1.531 . S
C125 C124 1.369 1_545 S
C125 C126 1.410 . S
C125 C133 1.503 1_545 S
C126 C125 1.410 . S
C126 C127 1.392 . S
C126 C129 1.511 . S
C127 C123 1.376 . S
C127 C126 1.392 . S
C127 H139 0.929 . S
C128 C124 1.531 . S
C128 H140 0.960 . S
C128 H141 0.962 . S
C128 H142 0.960 . S
C129 C126 1.511 . S
C129 H143 0.961 . S
C129 H144 0.961 . S
C129 H145 0.961 . S
C130 C131 1.370 . S
C130 C132 1.363 1_565 S
C130 H146 0.931 . S
C131 C130 1.370 . S
C131 C135 1.408 . S
C132 C130 1.363 1_545 S
C132 C133 1.370 1_545 S
C132 C136 1.524 . S
C133 C125 1.503 1_565 S
C133 C132 1.370 1_565 S
C133 C134 1.403 . S
C134 C133 1.403 . S
C134 C135 1.404 . S
C134 C137 1.539 . S
C135 C131 1.408 . S
C135 C134 1.404 . S
C135 H147 0.930 . S
C136 C132 1.524 . S
C136 H148 0.956 . S
C136 H149 0.961 . S
C136 H150 0.961 . S
C137 C134 1.539 . S
C137 H151 0.958 . S
C137 H152 0.961 . S
C137 H153 0.960 . S
H138 C122 0.931 . S
H139 C127 0.929 . S
H140 C128 0.960 . S
H141 C128 0.962 . S
H142 C128 0.960 . S
H143 C129 0.961 . S
H144 C129 0.961 . S
H145 C129 0.961 . S
H146 C130 0.931 . S
H147 C135 0.930 . S
H148 C136 0.956 . S
H149 C136 0.961 . S
H150 C136 0.961 . S
H151 C137 0.958 . S
H152 C137 0.961 . S
H153 C137 0.960 . S
C154 C155 1.391 . S
C154 C156 1.394 . S
C154 H170 0.931 . S
C155 C154 1.391 . S
C155 C159 1.376 . S
C156 C154 1.394 . S
C156 C157 1.369 . S
C156 C160 1.531 . S
C157 C156 1.369 . S
C157 C158 1.410 . S
C157 C165 1.503 . S
C158 C157 1.410 . S
C158 C159 1.392 . S
C158 C161 1.511 . S
C159 C155 1.376 . S
C159 C158 1.392 . S
C159 H171 0.929 . S
C160 C156 1.531 . S
C160 H172 0.960 . S
C160 H173 0.962 . S
C160 H174 0.960 . S
C161 C158 1.511 . S
C161 H175 0.961 . S
C161 H176 0.961 . S
C161 H177 0.961 . S
C162 C163 1.370 . S
C162 C164 1.363 . S
C162 H178 0.931 . S
C163 C162 1.370 . S
C163 C167 1.408 . S
C164 C162 1.363 . S
C164 C165 1.370 . S
C164 C168 1.524 . S
C165 C157 1.503 . S
C165 C164 1.370 . S
C165 C166 1.403 . S
C166 C165 1.403 . S
C166 C167 1.404 . S
C166 C169 1.539 . S
C167 C163 1.408 . S
C167 C166 1.404 . S
C167 H179 0.930 . S
C168 C164 1.524 . S
C168 H180 0.956 . S
C168 H181 0.961 . S
C168 H182 0.961 . S
C169 C166 1.539 . S
C169 H183 0.958 . S
C169 H184 0.961 . S
C169 H185 0.960 . S
H170 C154 0.931 . S
H171 C159 0.929 . S
H172 C160 0.960 . S
H173 C160 0.962 . S
H174 C160 0.960 . S
H175 C161 0.961 . S
H176 C161 0.961 . S
H177 C161 0.961 . S
H178 C162 0.931 . S
H179 C167 0.930 . S
H180 C168 0.956 . S
H181 C168 0.961 . S
H182 C168 0.961 . S
H183 C169 0.958 . S
H184 C169 0.961 . S
H185 C169 0.960 . S
C186 C187 1.391 . S
C186 C188 1.394 . S
C186 H202 0.931 . S
C187 C186 1.391 . S
C187 C191 1.376 1_545 S
C188 C186 1.394 . S
C188 C189 1.369 . S
C188 C192 1.531 . S
C189 C188 1.369 . S
C189 C190 1.410 1_545 S
C189 C197 1.503 . S
C190 C189 1.410 1_565 S
C190 C191 1.392 . S
C190 C193 1.511 . S
C191 C187 1.376 1_565 S
C191 C190 1.392 . S
C191 H203 0.929 . S
C192 C188 1.531 . S
C192 H204 0.960 . S
C192 H205 0.962 . S
C192 H206 0.960 . S
C193 C190 1.511 . S
C193 H207 0.961 . S
C193 H208 0.961 . S
C193 H209 0.961 . S
C194 C195 1.370 . S
C194 C196 1.363 . S
C194 H210 0.931 . S
C195 C194 1.370 . S
C195 C199 1.408 1_565 S
C196 C194 1.363 . S
C196 C197 1.370 1_565 S
C196 C200 1.524 . S
C197 C189 1.503 . S
C197 C196 1.370 1_545 S
C197 C198 1.403 . S
C198 C197 1.403 . S
C198 C199 1.404 . S
C198 C201 1.539 . S
C199 C195 1.408 1_545 S
C199 C198 1.404 . S
C199 H211 0.930 . S
C200 C196 1.524 . S
C200 H212 0.956 1_565 S
C200 H213 0.961 . S
C200 H214 0.961 . S
C201 C198 1.539 . S
C201 H215 0.958 . S
C201 H216 0.961 . S
C201 H217 0.960 . S
H202 C186 0.931 . S
H203 C191 0.929 . S
H204 C192 0.960 . S
H205 C192 0.962 . S
H206 C192 0.960 . S
H207 C193 0.961 . S
H208 C193 0.961 . S
H209 C193 0.961 . S
H210 C194 0.931 . S
H211 C199 0.930 . S
H212 C200 0.956 1_545 S
H213 C200 0.961 . S
H214 C200 0.961 . S
H215 C201 0.958 . S
H216 C201 0.961 . S
H217 C201 0.960 . S
C218 C219 1.391 1_556 S
C218 C220 1.394 . S
C218 H234 0.931 . S
C219 C218 1.391 1_554 S
C219 C223 1.376 . S
C220 C218 1.394 . S
C220 C221 1.369 1_556 S
C220 C224 1.531 . S
C221 C220 1.369 1_554 S
C221 C222 1.410 . S
C221 C229 1.503 . S
C222 C221 1.410 . S
C222 C223 1.392 . S
C222 C225 1.511 . S
C223 C219 1.376 . S
C223 C222 1.392 . S
C223 H235 0.929 . S
C224 C220 1.531 . S
C224 H236 0.960 . S
C224 H237 0.962 . S
C224 H238 0.960 . S
C225 C222 1.511 . S
C225 H239 0.961 . S
C225 H240 0.961 . S
C225 H241 0.961 . S
C226 C227 1.370 . S
C226 C228 1.363 . S
C226 H242 0.931 . S
C227 C226 1.370 . S
C227 C231 1.408 1_554 S
C228 C226 1.363 . S
C228 C229 1.370 . S
C228 C232 1.524 . S
C229 C221 1.503 . S
C229 C228 1.370 . S
C229 C230 1.403 1_554 S
C230 C229 1.403 1_556 S
C230 C231 1.404 . S
C230 C233 1.539 . S
C231 C227 1.408 1_556 S
C231 C230 1.404 . S
C231 H243 0.930 . S
C232 C228 1.524 . S
C232 H244 0.956 . S
C232 H245 0.961 . S
C232 H246 0.961 . S
C233 C230 1.539 . S
C233 H247 0.958 . S
C233 H248 0.961 . S
C233 H249 0.960 . S
H234 C218 0.931 . S
H235 C223 0.929 . S
H236 C224 0.960 . S
H237 C224 0.962 . S
H238 C224 0.960 . S
H239 C225 0.961 . S
H240 C225 0.961 . S
H241 C225 0.961 . S
H242 C226 0.931 . S
H243 C231 0.930 . S
H244 C232 0.956 . S
H245 C232 0.961 . S
H246 C232 0.961 . S
H247 C233 0.958 . S
H248 C233 0.961 . S
H249 C233 0.960 . S
C250 C251 1.391 1_655 S
C250 C252 1.394 . S
C250 H266 0.931 . S
C251 C250 1.391 1_455 S
C251 C255 1.376 . S
C252 C250 1.394 . S
C252 C253 1.369 1_655 S
C252 C256 1.531 . S
C253 C252 1.369 1_455 S
C253 C254 1.410 . S
C253 C261 1.503 . S
C254 C253 1.410 . S
C254 C255 1.392 . S
C254 C257 1.511 . S
C255 C251 1.376 . S
C255 C254 1.392 . S
C255 H267 0.929 . S
C256 C252 1.531 . S
C256 H268 0.960 . S
C256 H269 0.962 . S
C256 H270 0.960 . S
C257 C254 1.511 . S
C257 H271 0.961 . S
C257 H272 0.961 . S
C257 H273 0.961 . S
C258 C259 1.370 . S
C258 C260 1.363 . S
C258 H274 0.931 1_455 S
C259 C258 1.370 . S
C259 C263 1.408 . S
C260 C258 1.363 . S
C260 C261 1.370 . S
C260 C264 1.524 . S
C261 C253 1.503 . S
C261 C260 1.370 . S
C261 C262 1.403 . S
C262 C261 1.403 . S
C262 C263 1.404 . S
C262 C265 1.539 . S
C263 C259 1.408 . S
C263 C262 1.404 . S
C263 H275 0.930 . S
C264 C260 1.524 . S
C264 H276 0.956 1_455 S
C264 H277 0.961 . S
C264 H278 0.961 1_455 S
C265 C262 1.539 . S
C265 H279 0.958 . S
C265 H280 0.961 . S
C265 H281 0.960 . S
H266 C250 0.931 . S
H267 C255 0.929 . S
H268 C256 0.960 . S
H269 C256 0.962 . S
H270 C256 0.960 . S
H271 C257 0.961 . S
H272 C257 0.961 . S
H273 C257 0.961 . S
H274 C258 0.931 1_655 S
H275 C263 0.930 . S
H276 C264 0.956 1_655 S
H277 C264 0.961 . S
H278 C264 0.961 1_655 S
H279 C265 0.958 . S
H280 C265 0.961 . S
H281 C265 0.960 . S
C282 C283 1.391 . S
C282 C284 1.394 . S
C282 H298 0.931 . S
C283 C282 1.391 . S
C283 C287 1.376 1_545 S
C284 C282 1.394 . S
C284 C285 1.369 . S
C284 C288 1.531 . S
C285 C284 1.369 . S
C285 C286 1.410 1_545 S
C285 C293 1.503 . S
C286 C285 1.410 1_565 S
C286 C287 1.392 . S
C286 C289 1.511 . S
C287 C283 1.376 1_565 S
C287 C286 1.392 . S
C287 H299 0.929 . S
C288 C284 1.531 . S
C288 H300 0.960 . S
C288 H301 0.962 1_455 S
C288 H302 0.960 . S
C289 C286 1.511 . S
C289 H303 0.961 . S
C289 H304 0.961 . S
C289 H305 0.961 . S
C290 C291 1.370 1_665 S
C290 C292 1.363 . S
C290 H306 0.931 . S
C291 C290 1.370 1_445 S
C291 C295 1.408 . S
C292 C290 1.363 . S
C292 C293 1.370 1_665 S
C292 C296 1.524 . S
C293 C285 1.503 . S
C293 C292 1.370 1_445 S
C293 C294 1.403 . S
C294 C293 1.403 . S
C294 C295 1.404 . S
C294 C297 1.539 . S
C295 C291 1.408 . S
C295 C294 1.404 . S
C295 H307 0.930 . S
C296 C292 1.524 . S
C296 H308 0.956 . S
C296 H309 0.961 . S
C296 H310 0.961 . S
C297 C294 1.539 . S
C297 H311 0.958 . S
C297 H312 0.961 . S
C297 H313 0.960 . S
H298 C282 0.931 . S
H299 C287 0.929 . S
H300 C288 0.960 . S
H301 C288 0.962 1_655 S
H302 C288 0.960 . S
H303 C289 0.961 . S
H304 C289 0.961 . S
H305 C289 0.961 . S
H306 C290 0.931 . S
H307 C295 0.930 . S
H308 C296 0.956 . S
H309 C296 0.961 . S
H310 C296 0.961 . S
H311 C297 0.958 . S
H312 C297 0.961 . S
H313 C297 0.960 . S
C314 C315 1.391 . S
C314 C316 1.394 . S
C314 H330 0.931 . S
C315 C314 1.391 . S
C315 C319 1.376 1_445 S
C316 C314 1.394 . S
C316 C317 1.369 . S
C316 C320 1.531 . S
C317 C316 1.369 . S
C317 C318 1.410 1_445 S
C317 C325 1.503 . S
C318 C317 1.410 1_665 S
C318 C319 1.392 . S
C318 C321 1.511 . S
C319 C315 1.376 1_665 S
C319 C318 1.392 . S
C319 H331 0.929 . S
C320 C316 1.531 . S
C320 H332 0.960 . S
C320 H333 0.962 . S
C320 H334 0.960 . S
C321 C318 1.511 . S
C321 H335 0.961 . S
C321 H336 0.961 . S
C321 H337 0.961 . S
C322 C323 1.370 1_565 S
C322 C324 1.363 . S
C322 H338 0.931 . S
C323 C322 1.370 1_545 S
C323 C327 1.408 . S
C324 C322 1.363 . S
C324 C325 1.370 1_565 S
C324 C328 1.524 . S
C325 C317 1.503 . S
C325 C324 1.370 1_545 S
C325 C326 1.403 . S
C326 C325 1.403 . S
C326 C327 1.404 . S
C326 C329 1.539 1_455 S
C327 C323 1.408 . S
C327 C326 1.404 . S
C327 H339 0.930 1_455 S
C328 C324 1.524 . S
C328 H340 0.956 . S
C328 H341 0.961 . S
C328 H342 0.961 . S
C329 C326 1.539 1_655 S
C329 H343 0.958 . S
C329 H344 0.961 . S
C329 H345 0.960 . S
H330 C314 0.931 . S
H331 C319 0.929 . S
H332 C320 0.960 . S
H333 C320 0.962 . S
H334 C320 0.960 . S
H335 C321 0.961 . S
H336 C321 0.961 . S
H337 C321 0.961 . S
H338 C322 0.931 . S
H339 C327 0.930 1_655 S
H340 C328 0.956 . S
H341 C328 0.961 . S
H342 C328 0.961 . S
H343 C329 0.958 . S
H344 C329 0.961 . S
H345 C329 0.960 . S
C346 C347 1.391 . S
C346 C348 1.394 . S
C346 H362 0.931 . S
C347 C346 1.391 . S
C347 C351 1.376 1_445 S
C348 C346 1.394 . S
C348 C349 1.369 . S
C348 C352 1.531 . S
C349 C348 1.369 . S
C349 C350 1.410 1_445 S
C349 C357 1.503 . S
C350 C349 1.410 1_665 S
C350 C351 1.392 . S
C350 C353 1.511 . S
C351 C347 1.376 1_665 S
C351 C350 1.392 . S
C351 H363 0.929 . S
C352 C348 1.531 . S
C352 H364 0.960 . S
C352 H365 0.962 . S
C352 H366 0.960 . S
C353 C350 1.511 . S
C353 H367 0.961 . S
C353 H368 0.961 . S
C353 H369 0.961 . S
C354 C355 1.370 1_565 S
C354 C356 1.363 . S
C354 H370 0.931 . S
C355 C354 1.370 1_545 S
C355 C359 1.408 1_455 S
C356 C354 1.363 . S
C356 C357 1.370 1_565 S
C356 C360 1.524 . S
C357 C349 1.503 . S
C357 C356 1.370 1_545 S
C357 C358 1.403 1_455 S
C358 C357 1.403 1_655 S
C358 C359 1.404 . S
C358 C361 1.539 . S
C359 C355 1.408 1_655 S
C359 C358 1.404 . S
C359 H371 0.930 . S
C360 C356 1.524 . S
C360 H372 0.956 . S
C360 H373 0.961 . S
C360 H374 0.961 . S
C361 C358 1.539 . S
C361 H375 0.958 . S
C361 H376 0.961 . S
C361 H377 0.960 . S
H362 C346 0.931 . S
H363 C351 0.929 . S
H364 C352 0.960 . S
H365 C352 0.962 . S
H366 C352 0.960 . S
H367 C353 0.961 . S
H368 C353 0.961 . S
H369 C353 0.961 . S
H370 C354 0.931 . S
H371 C359 0.930 . S
H372 C360 0.956 . S
H373 C360 0.961 . S
H374 C360 0.961 . S
H375 C361 0.958 . S
H376 C361 0.961 . S
H377 C361 0.960 . S
C91 N14 0.275 . S
C99 N6 0.428 1_554 S
C123 N36 0.294 . S
C131 N44 0.453 . S
C155 N66 0.412 . S
C163 N74 0.372 . S
C187 C76 2.679 . S
C195 C87 2.682 . S
C219 C16 2.668 . S
C227 C27 2.685 . S
C251 C57 2.679 . S
C259 C46 2.679 . S
C283 C31 1.503 . S
C291 C10 1.492 . S
C315 C40 1.498 . S
C323 C61 1.493 . S
C347 C70 1.499 . S
C355 C1 1.496 . S
