# Generated by pormake.
# Topology umw, (4)-cn, num edge types: 1
# Building blocks:
#     Node 0, Type 0, BuildingBlock: CEKHIL_clean_sbu_0, # of connection points: 4
#     Node 1, Type 0, BuildingBlock: CEKHIL_clean_sbu_0, # of connection points: 4
#     Node 2, Type 0, BuildingBlock: CEKHIL_clean_sbu_0, # of connection points: 4
#     Node 3, Type 0, BuildingBlock: CEKHIL_clean_sbu_0, # of connection points: 4
#     Node 4, Type 0, BuildingBlock: CEKHIL_clean_sbu_0, # of connection points: 4
#     Node 5, Type 0, BuildingBlock: CEKHIL_clean_sbu_0, # of connection points: 4
#     Node 6, Type 0, BuildingBlock: CEKHIL_clean_sbu_0, # of connection points: 4
#     Node 7, Type 0, BuildingBlock: CEKHIL_clean_sbu_0, # of connection points: 4
#     Edge 8, Type (0, 0), BuildingBlock: CIFDUS_clean_linker_0, # of connection points: 2
#     Edge 9, Type (0, 0), BuildingBlock: CIFDUS_clean_linker_0, # of connection points: 2
#     Edge 10, Type (0, 0), BuildingBlock: CIFDUS_clean_linker_0, # of connection points: 2
#     Edge 11, Type (0, 0), BuildingBlock: CIFDUS_clean_linker_0, # of connection points: 2
#     Edge 12, Type (0, 0), BuildingBlock: CIFDUS_clean_linker_0, # of connection points: 2
#     Edge 13, Type (0, 0), BuildingBlock: CIFDUS_clean_linker_0, # of connection points: 2
#     Edge 14, Type (0, 0), BuildingBlock: CIFDUS_clean_linker_0, # of connection points: 2
#     Edge 15, Type (0, 0), BuildingBlock: CIFDUS_clean_linker_0, # of connection points: 2
#     Edge 16, Type (0, 0), BuildingBlock: CIFDUS_clean_linker_0, # of connection points: 2
#     Edge 17, Type (0, 0), BuildingBlock: CIFDUS_clean_linker_0, # of connection points: 2
#     Edge 18, Type (0, 0), BuildingBlock: CIFDUS_clean_linker_0, # of connection points: 2
#     Edge 19, Type (0, 0), BuildingBlock: CIFDUS_clean_linker_0, # of connection points: 2
#     Edge 20, Type (0, 0), BuildingBlock: CIFDUS_clean_linker_0, # of connection points: 2
#     Edge 21, Type (0, 0), BuildingBlock: CIFDUS_clean_linker_0, # of connection points: 2
#     Edge 22, Type (0, 0), BuildingBlock: CIFDUS_clean_linker_0, # of connection points: 2
#     Edge 23, Type (0, 0), BuildingBlock: CIFDUS_clean_linker_0, # of connection points: 2
# Relax obj value: 0.132
# Max RMSD: 0.105
# Mean RMSD: 0.105
data_MOF--net-umw--node1-CEKHIL_clean_sbu_0--edge1-CIFDUS_clean_linker_0
_symmetry_space_group_name_H-M    P1
_symmetry_Int_Tables_number       1
_symmetry_cell_setting            triclinic
loop_
_symmetry_equiv_pos_as_xyz
'x, y, z'
_cell_length_a     35.472408
_cell_length_b     35.380331
_cell_length_c     22.389783
_cell_angle_alpha  89.820406
_cell_angle_beta   90.160237
_cell_angle_gamma 90.123906
loop_
_atom_site_label
_atom_site_type_symbol
_atom_site_fract_x
_atom_site_fract_y
_atom_site_fract_z
_atom_type_partial_charge
Co0 Co 0.41002 0.2076 0.29207 0.0
O1 O 0.39487 0.25974 0.30524 0.0
O2 O 0.35973 0.20985 0.32583 0.0
C3 C 0.43547 0.21506 0.19954 0.0
O4 O 0.41486 0.14985 0.28629 0.0
Co5 Co 0.49459 0.18537 0.27412 0.0
O6 O 0.47387 0.13411 0.25958 0.0
C7 C 0.46685 0.20902 0.39227 0.0
C8 C 0.36384 0.24635 0.32785 0.0
C9 C 0.43997 0.1251 0.27218 0.0
O10 O 0.4325 0.20649 0.37427 0.0
O11 O 0.49526 0.20541 0.35761 0.0
O12 O 0.39911 0.21114 0.20556 0.0
O13 O 0.45391 0.21767 0.24874 0.0
Co14 Co 0.82406 0.41551 0.54244 0.0
O15 O 0.77205 0.40067 0.55757 0.0
O16 O 0.82185 0.36518 0.57649 0.0
C17 C 0.81619 0.44119 0.44992 0.0
O18 O 0.88143 0.41938 0.53518 0.0
Co19 Co 0.84889 0.49948 0.5227 0.0
O20 O 0.89947 0.4778 0.50701 0.0
C21 C 0.82505 0.47258 0.64181 0.0
C22 C 0.78557 0.36947 0.57989 0.0
C23 C 0.90685 0.4435 0.51974 0.0
O24 O 0.82645 0.43804 0.62434 0.0
O25 O 0.82946 0.50086 0.60665 0.0
O26 O 0.8194 0.40467 0.45622 0.0
O27 O 0.81455 0.45981 0.49899 0.0
Co28 Co 0.61061 0.8252 0.80021 0.0
O29 O 0.63299 0.77528 0.80564 0.0
O30 O 0.66035 0.82788 0.83655 0.0
C31 C 0.58706 0.82165 0.70564 0.0
O32 O 0.59687 0.88153 0.80407 0.0
Co33 Co 0.52317 0.83295 0.78388 0.0
O34 O 0.53437 0.88778 0.78822 0.0
C35 C 0.55472 0.80653 0.89776 0.0
C36 C 0.66122 0.79121 0.83302 0.0
C37 C 0.56675 0.90178 0.79977 0.0
O38 O 0.58782 0.81689 0.8811 0.0
O39 O 0.52605 0.80665 0.86296 0.0
O40 O 0.62251 0.82997 0.71412 0.0
O41 O 0.56915 0.81199 0.75301 0.0
Co42 Co 0.20716 0.60665 0.0488 0.0
O43 O 0.25727 0.62507 0.06889 0.0
O44 O 0.20441 0.65534 0.0886 0.0
C45 C 0.21957 0.58663 0.95476 0.0
O46 O 0.15041 0.59775 0.03603 0.0
Co47 Co 0.19243 0.52153 0.01714 0.0
O48 O 0.14094 0.53965 -0.00201 0.0
C49 C 0.21223 0.54423 0.13936 0.0
C50 C 0.24093 0.65405 0.09317 0.0
C51 C 0.12869 0.57189 0.01423 0.0
O52 O 0.20535 0.57914 0.12716 0.0
O53 O 0.21294 0.51808 0.10007 0.0
O54 O 0.21263 0.6223 0.96432 0.0
O55 O 0.22202 0.56612 0.00182 0.0
Co56 Co 0.42579 0.82156 0.32651 0.0
O57 O 0.41054 0.76905 0.3248 0.0
O58 O 0.37611 0.81606 0.28985 0.0
C59 C 0.44974 0.82219 0.42114 0.0
O60 O 0.43203 0.87923 0.31905 0.0
Co61 Co 0.51148 0.84152 0.34205 0.0
O62 O 0.49323 0.89419 0.33407 0.0
C63 C 0.48368 0.80851 0.23009 0.0
C64 C 0.38049 0.77974 0.29609 0.0
C65 C 0.4593 0.90342 0.32193 0.0
O66 O 0.44952 0.81484 0.24609 0.0
O67 O 0.51204 0.81326 0.26475 0.0
O68 O 0.41353 0.82592 0.41265 0.0
O69 O 0.46862 0.81493 0.37385 0.0
Co70 Co 0.204 0.4349 0.57008 0.0
O71 O 0.2564 0.4266 0.54868 0.0
O72 O 0.20993 0.38723 0.52802 0.0
C73 C 0.21516 0.45586 0.66429 0.0
O74 O 0.14682 0.43225 0.58322 0.0
Co75 Co 0.17117 0.51316 0.6099 0.0
O76 O 0.12565 0.4837 0.63133 0.0
C77 C 0.19165 0.49872 0.48375 0.0
C78 C 0.24556 0.39532 0.52346 0.0
C79 C 0.12046 0.45097 0.6093 0.0
O80 O 0.19598 0.46304 0.49331 0.0
O81 O 0.18503 0.52285 0.52486 0.0
O82 O 0.21412 0.4196 0.65389 0.0
O83 O 0.21137 0.477 0.61823 0.0
Co84 Co 0.59971 0.20896 0.82497 0.0
O85 O 0.61151 0.26178 0.81186 0.0
O86 O 0.6494 0.21463 0.78912 0.0
C87 C 0.57468 0.2149 0.91806 0.0
O88 O 0.59773 0.15099 0.83115 0.0
Co89 Co 0.51604 0.18315 0.84398 0.0
O90 O 0.53927 0.13302 0.85814 0.0
C91 C 0.54208 0.20843 0.7257 0.0
C92 C 0.64278 0.25079 0.78737 0.0
C93 C 0.57346 0.12529 0.84559 0.0
O94 O 0.57656 0.20689 0.74328 0.0
O95 O 0.51397 0.20372 0.76069 0.0
O96 O 0.61115 0.21293 0.91145 0.0
O97 O 0.55589 0.21654 0.86913 0.0
Co98 Co 0.82582 0.60603 0.07344 0.0
O99 O 0.77296 0.61746 0.06164 0.0
O100 O 0.81954 0.65597 0.03768 0.0
C101 C 0.82088 0.58055 0.1668 0.0
O102 O 0.8837 0.60461 0.07778 0.0
Co103 Co 0.85198 0.52215 0.09134 0.0
O104 O 0.9032 0.5446 0.09248 0.0
C105 C 0.82474 0.54855 0.97435 0.0
C106 C 0.78351 0.64899 0.03677 0.0
C107 C 0.90989 0.57963 0.08412 0.0
O108 O 0.82709 0.58309 0.99164 0.0
O109 O 0.8293 0.52031 0.00948 0.0
O110 O 0.82268 0.61714 0.16001 0.0
O111 O 0.81895 0.56182 0.11795 0.0
H112 H 0.53492 0.21718 0.44608 0.0
H113 H 0.41541 0.21274 0.48297 0.0
H114 H 0.42844 0.21505 0.58988 0.0
H115 H 0.47361 0.21339 0.67212 0.0
H116 H 0.59315 0.21623 0.63509 0.0
H117 H 0.57996 0.21973 0.52833 0.0
C118 C 0.51161 0.21695 0.47734 0.0
C119 C 0.47427 0.21422 0.45652 0.0
C120 C 0.51925 0.2178 0.53855 0.0
C121 C 0.44446 0.21448 0.49776 0.0
C122 C 0.45186 0.21575 0.55889 0.0
C123 C 0.49687 0.215 0.64086 0.0
C124 C 0.53431 0.21398 0.66159 0.0
C125 C 0.48916 0.21659 0.57968 0.0
C126 C 0.56404 0.21658 0.62037 0.0
C127 C 0.55655 0.21857 0.55931 0.0
H128 H 0.81766 0.54108 0.69461 0.0
H129 H 0.82029 0.4213 0.73325 0.0
H130 H 0.8172 0.43457 0.83988 0.0
H131 H 0.8187 0.47993 0.92154 0.0
H132 H 0.81761 0.59975 0.88307 0.0
H133 H 0.81475 0.58641 0.77636 0.0
C134 C 0.81737 0.51778 0.7262 0.0
C135 C 0.8198 0.48028 0.70594 0.0
C136 C 0.81598 0.52555 0.78733 0.0
C137 C 0.81882 0.45047 0.74759 0.0
C138 C 0.81707 0.458 0.80858 0.0
C139 C 0.81758 0.50323 0.88999 0.0
C140 C 0.81896 0.54078 0.9103 0.0
C141 C 0.81644 0.49543 0.82886 0.0
C142 C 0.81697 0.57055 0.86868 0.0
C143 C 0.81539 0.56298 0.80765 0.0
H144 H 0.55173 0.80032 0.1767 0.0
H145 H 0.4319 0.79456 0.14206 0.0
H146 H 0.44403 0.78817 0.0355 0.0
H147 H 0.48796 0.79233 0.95224 0.0
H148 H 0.60763 0.80135 0.98659 0.0
H149 H 0.59604 0.79776 0.09373 0.0
C150 C 0.5282 0.79716 0.14607 0.0
C151 C 0.49096 0.7987 0.16724 0.0
C152 C 0.53529 0.79434 0.08487 0.0
C153 C 0.46087 0.79405 0.12689 0.0
C154 C 0.46775 0.79042 0.06593 0.0
C155 C 0.51164 0.79297 0.98298 0.0
C156 C 0.54853 0.79789 0.96144 0.0
C157 C 0.50478 0.79182 0.04438 0.0
C158 C 0.57887 0.79816 0.00199 0.0
C159 C 0.57229 0.79617 0.06327 0.0
H160 H 0.22246 0.46353 0.38831 0.0
H161 H 0.16803 0.56706 0.44229 0.0
H162 H 0.17311 0.59182 0.34122 0.0
H163 H 0.18998 0.58293 0.23685 0.0
H164 H 0.24316 0.47905 0.18187 0.0
H165 H 0.24209 0.45586 0.28446 0.0
C166 C 0.21162 0.49144 0.37788 0.0
C167 C 0.19467 0.51325 0.42248 0.0
C168 C 0.2146 0.50559 0.31974 0.0
C169 C 0.18121 0.54963 0.40862 0.0
C170 C 0.1841 0.56389 0.3509 0.0
C171 C 0.20183 0.55546 0.24744 0.0
C172 C 0.21626 0.53261 0.20199 0.0
C173 C 0.20047 0.54199 0.30607 0.0
C174 C 0.23148 0.49701 0.21622 0.0
C175 C 0.23082 0.48367 0.27475 0.0
H176 H 0.37536 0.3171 0.37314 0.0
H177 H 0.29073 0.23008 0.35677 0.0
H178 H 0.24677 0.26804 0.4154 0.0
H179 H 0.23251 0.32577 0.47322 0.0
H180 H 0.31843 0.41131 0.49329 0.0
H181 H 0.3615 0.37421 0.4321 0.0
C182 C 0.34715 0.30661 0.38182 0.0
C183 C 0.33632 0.27086 0.35987 0.0
C184 C 0.32224 0.32827 0.41694 0.0
C185 C 0.29983 0.25751 0.37268 0.0
C186 C 0.27466 0.27921 0.40645 0.0
C187 C 0.26069 0.33627 0.46436 0.0
C188 C 0.27207 0.37143 0.48813 0.0
C189 C 0.2856 0.31455 0.42924 0.0
C190 C 0.3088 0.38439 0.47602 0.0
C191 C 0.3335 0.36321 0.44072 0.0
H192 H 0.71879 0.38251 0.63643 0.0
H193 H 0.79985 0.29484 0.60126 0.0
H194 H 0.76378 0.25055 0.66301 0.0
H195 H 0.70919 0.23669 0.72835 0.0
H196 H 0.63007 0.32572 0.76713 0.0
H197 H 0.66542 0.36924 0.70373 0.0
C198 C 0.72831 0.35357 0.64169 0.0
C199 C 0.76176 0.34193 0.61347 0.0
C200 C 0.70795 0.32849 0.6788 0.0
C201 C 0.77409 0.30453 0.62201 0.0
C202 C 0.75352 0.27918 0.6576 0.0
C203 C 0.69985 0.26569 0.72336 0.0
C204 C 0.66692 0.27775 0.75289 0.0
C205 C 0.7205 0.29087 0.68665 0.0
C206 C 0.65533 0.31551 0.74546 0.0
C207 C 0.67546 0.34049 0.7088 0.0
H208 H 0.79511 0.71859 0.9839 0.0
H209 H 0.71036 0.63252 0.01065 0.0
H210 H 0.66659 0.66725 0.94704 0.0
H211 H 0.65186 0.72183 0.88296 0.0
H212 H 0.73402 0.8106 0.86104 0.0
H213 H 0.77916 0.77513 0.92258 0.0
C214 C 0.76696 0.7076 0.9762 0.0
C215 C 0.75622 0.67284 0.00239 0.0
C216 C 0.74148 0.72805 0.93962 0.0
C217 C 0.71953 0.65918 0.99166 0.0
C218 C 0.69443 0.67896 0.95484 0.0
C219 C 0.67983 0.7332 0.89098 0.0
C220 C 0.68977 0.76854 0.86639 0.0
C221 C 0.70512 0.71326 0.9282 0.0
C222 C 0.72578 0.7833 0.87879 0.0
C223 C 0.75154 0.76307 0.91427 0.0
H224 H 0.30714 0.64393 0.15254 0.0
H225 H 0.22254 0.72793 0.11479 0.0
H226 H 0.25727 0.77425 0.17502 0.0
H227 H 0.31261 0.79115 0.23815 0.0
H228 H 0.3943 0.70487 0.28069 0.0
H229 H 0.35978 0.65947 0.2199 0.0
C230 C 0.29643 0.67246 0.15717 0.0
C231 C 0.26254 0.68256 0.12839 0.0
C232 C 0.31595 0.69859 0.19343 0.0
C233 C 0.24866 0.71944 0.13605 0.0
C234 C 0.26851 0.74594 0.17066 0.0
C235 C 0.32261 0.76231 0.23465 0.0
C236 C 0.35615 0.75165 0.26431 0.0
C237 C 0.30224 0.73587 0.19972 0.0
C238 C 0.36856 0.71404 0.25898 0.0
C239 C 0.34892 0.68796 0.22376 0.0
H240 H 0.40584 0.95683 0.35484 0.0
H241 H 0.50092 0.93786 0.23905 0.0
H242 H 0.49985 1.00354 0.20717 0.0
H243 H 0.47699 0.06755 0.21946 0.0
H244 H 0.38398 0.08996 0.33754 0.0
H245 H 0.37866 0.02222 0.36024 0.0
C246 C 0.42586 0.96714 0.32209 0.0
C247 C 0.45381 0.94263 0.29996 0.0
C248 C 0.42564 1.0057 0.30453 0.0
C249 C 0.47958 0.95631 0.25747 0.0
C250 C 0.47897 0.99389 0.23905 0.0
C251 C 0.45515 0.05768 0.24959 0.0
C252 C 0.43122 0.08397 0.27713 0.0
C253 C 0.4529 0.01904 0.26347 0.0
C254 C 0.40279 0.07042 0.31547 0.0
C255 C 0.39996 0.03164 0.32891 0.0
H256 H 0.94475 0.43596 0.62273 0.0
H257 H 0.95841 0.43083 0.43198 0.0
H258 H 0.02701 0.42513 0.4443 0.0
H259 H 0.08324 0.43068 0.50905 0.0
H260 H 0.06913 0.44481 0.69868 0.0
H261 H 1.00079 0.43723 0.68786 0.0
C262 C 0.96283 0.43261 0.5841 0.0
C263 C 0.94687 0.43328 0.5266 0.0
C264 C 1.00218 0.43122 0.59161 0.0
C265 C 0.9703 0.42994 0.47659 0.0
C266 C 1.00944 0.42689 0.48371 0.0
C267 C 0.06519 0.43087 0.54809 0.0
C268 C 0.08106 0.43771 0.60473 0.0
C269 C 0.02578 0.42868 0.54093 0.0
C270 C 0.05744 0.43913 0.65485 0.0
C271 C 0.01841 0.43509 0.64854 0.0
H272 H 0.61968 0.95777 0.77462 0.0
H273 H 0.51527 0.93614 0.86745 0.0
H274 H 0.51123 1.002 0.89625 0.0
H275 H 0.53369 0.06627 0.88926 0.0
H276 H 0.63533 0.09197 0.79189 0.0
H277 H 0.64451 0.02437 0.77193 0.0
C278 C 0.59627 0.96761 0.80139 0.0
C279 C 0.56745 0.94211 0.81795 0.0
C280 C 0.59355 1.00632 0.81708 0.0
C281 C 0.53738 0.95524 0.85295 0.0
C282 C 0.5351 0.99293 0.86982 0.0
C283 C 0.55814 0.05729 0.86404 0.0
C284 C 0.58352 0.08443 0.84171 0.0
C285 C 0.56249 0.01882 0.85114 0.0
C286 C 0.61527 0.07183 0.80983 0.0
C287 C 0.62036 0.03312 0.79794 0.0
H288 H 0.95326 0.5515 -0.00163 0.0
H289 H 0.95539 0.63031 0.14434 0.0
H290 H 0.02393 0.63865 0.13154 0.0
H291 H 0.08426 0.61749 0.08482 0.0
H292 H 0.07944 0.53831 0.93857 0.0
H293 H 1.01105 0.53672 0.94466 0.0
C294 C 0.96872 0.57093 0.02683 0.0
C295 C 0.94963 0.58998 0.07253 0.0
C296 C 1.00771 0.57538 0.01916 0.0
C297 C 0.96966 0.61537 0.10884 0.0
C298 C 1.00881 0.61994 0.10162 0.0
C299 C 0.06814 0.60059 0.05348 0.0
C300 C 0.08715 0.57763 0.01176 0.0
C301 C 0.02836 0.59931 0.05777 0.0
C302 C 0.06573 0.55583 0.97161 0.0
C303 C 0.02653 0.55482 0.97509 0.0
H304 H 0.49917 0.21226 0.93604 0.0
H305 H 0.60509 0.21464 0.03128 0.0
H306 H 0.57102 0.21458 0.12649 0.0
H307 H 0.51124 0.21533 0.18202 0.0
H308 H 0.40545 0.21164 0.08647 0.0
H309 H 0.43958 0.2107 0.99146 0.0
C310 C 0.51497 0.2126 0.97754 0.0
C311 C 0.55478 0.21356 0.97642 0.0
C312 C 0.49518 0.21244 0.03186 0.0
C313 C 0.57456 0.21394 0.03078 0.0
C314 C 0.55504 0.21395 0.08518 0.0
C315 C 0.49552 0.21418 0.14049 0.0
C316 C 0.45567 0.21367 0.14147 0.0
C317 C 0.51536 0.21344 0.08618 0.0
C318 C 0.43598 0.21213 0.08709 0.0
C319 C 0.45553 0.2116 0.03279 0.0
H320 H 0.82148 0.50477 0.18556 0.0
H321 H 0.82154 0.61103 0.27967 0.0
H322 H 0.8202 0.57697 0.37524 0.0
H323 H 0.81767 0.51715 0.43145 0.0
H324 H 0.81867 0.41093 0.33717 0.0
H325 H 0.82084 0.44502 0.24176 0.0
C326 C 0.82137 0.52062 0.22691 0.0
C327 C 0.82155 0.56055 0.22535 0.0
C328 C 0.82063 0.50083 0.28148 0.0
C329 C 0.82141 0.58042 0.2795 0.0
C330 C 0.82058 0.56091 0.33411 0.0
C331 C 0.81848 0.50131 0.39011 0.0
C332 C 0.81792 0.46137 0.39158 0.0
C333 C 0.81996 0.52113 0.33557 0.0
C334 C 0.81901 0.44154 0.33743 0.0
C335 C 0.82026 0.46107 0.28289 0.0
H336 H 0.51135 0.82089 0.68627 0.0
H337 H 0.61759 0.83027 0.59391 0.0
H338 H 0.58404 0.83265 0.49808 0.0
H339 H 0.52488 0.8294 0.44097 0.0
H340 H 0.4185 0.82225 0.53334 0.0
H341 H 0.45192 0.82212 0.62943 0.0
C342 C 0.5273 0.82371 0.64533 0.0
C343 C 0.5671 0.82517 0.64738 0.0
C344 C 0.50778 0.82548 0.59061 0.0
C345 C 0.58708 0.82903 0.59369 0.0
C346 C 0.56786 0.83034 0.53892 0.0
C347 C 0.50885 0.82811 0.48204 0.0
C348 C 0.46911 0.82561 0.47986 0.0
C349 C 0.52826 0.82822 0.53689 0.0
C350 C 0.44898 0.82422 0.53368 0.0
C351 C 0.46813 0.82399 0.58857 0.0
H352 H 0.22646 0.51186 0.93138 0.0
H353 H 0.21168 0.61996 0.84437 0.0
H354 H 0.20947 0.58828 0.74718 0.0
H355 H 0.2114 0.53044 0.68819 0.0
H356 H 0.22306 0.42185 0.77483 0.0
H357 H 0.22656 0.45353 0.87221 0.0
C358 C 0.22256 0.52866 0.89131 0.0
C359 C 0.21914 0.5684 0.89521 0.0
C360 C 0.22066 0.51019 0.83601 0.0
C361 C 0.21442 0.5895 0.84265 0.0
C362 C 0.21309 0.57135 0.7872 0.0
C363 C 0.21449 0.51341 0.72823 0.0
C364 C 0.21687 0.47363 0.72417 0.0
C365 C 0.21607 0.53176 0.78354 0.0
C366 C 0.22112 0.45236 0.77668 0.0
C367 C 0.22314 0.47053 0.83221 0.0
loop_
_geom_bond_atom_site_label_1
_geom_bond_atom_site_label_2
_geom_bond_distance
_geom_bond_site_symmetry_2
_ccdc_geom_bond_type
Co0 O1 2.216 . S
Co0 O2 2.091 . S
Co0 O4 2.004 . S
Co0 O10 2.021 . S
Co0 O12 2.137 . S
Co0 O13 2.244 . S
O1 Co0 2.216 . S
O1 C8 1.247 . S
O2 Co0 2.091 . S
O2 C8 1.261 . S
C3 O12 1.247 . S
C3 O13 1.272 . S
O4 Co0 2.004 . S
O4 C9 1.259 . S
Co5 O6 2.061 . S
Co5 O11 2.052 . S
Co5 O13 2.135 . S
O6 Co5 2.061 . S
O6 C9 1.235 . S
C7 O10 1.238 . S
C7 O11 1.241 . S
C8 O1 1.247 . S
C8 O2 1.261 . S
C9 O4 1.259 . S
C9 O6 1.235 . S
O10 Co0 2.021 . S
O10 C7 1.238 . S
O11 Co5 2.052 . S
O11 C7 1.241 . S
O12 Co0 2.137 . S
O12 C3 1.247 . S
O13 Co0 2.244 . S
O13 C3 1.272 . S
O13 Co5 2.135 . S
Co14 O15 2.216 . S
Co14 O16 2.091 . S
Co14 O18 2.004 . S
Co14 O24 2.021 . S
Co14 O26 2.137 . S
Co14 O27 2.244 . S
O15 Co14 2.216 . S
O15 C22 1.247 . S
O16 Co14 2.091 . S
O16 C22 1.261 . S
C17 O26 1.247 . S
C17 O27 1.272 . S
O18 Co14 2.004 . S
O18 C23 1.259 . S
Co19 O20 2.061 . S
Co19 O25 2.052 . S
Co19 O27 2.135 . S
O20 Co19 2.061 . S
O20 C23 1.235 . S
C21 O24 1.238 . S
C21 O25 1.241 . S
C22 O15 1.247 . S
C22 O16 1.261 . S
C23 O18 1.259 . S
C23 O20 1.235 . S
O24 Co14 2.021 . S
O24 C21 1.238 . S
O25 Co19 2.052 . S
O25 C21 1.241 . S
O26 Co14 2.137 . S
O26 C17 1.247 . S
O27 Co14 2.244 . S
O27 C17 1.272 . S
O27 Co19 2.135 . S
Co28 O29 2.216 . S
Co28 O30 2.091 . S
Co28 O32 2.004 . S
Co28 O38 2.021 . S
Co28 O40 2.137 . S
Co28 O41 2.244 . S
O29 Co28 2.216 . S
O29 C36 1.247 . S
O30 Co28 2.091 . S
O30 C36 1.261 . S
C31 O40 1.247 . S
C31 O41 1.272 . S
O32 Co28 2.004 . S
O32 C37 1.259 . S
Co33 O34 2.061 . S
Co33 O39 2.052 . S
Co33 O41 2.135 . S
O34 Co33 2.061 . S
O34 C37 1.235 . S
C35 O38 1.238 . S
C35 O39 1.241 . S
C36 O29 1.247 . S
C36 O30 1.261 . S
C37 O32 1.259 . S
C37 O34 1.235 . S
O38 Co28 2.021 . S
O38 C35 1.238 . S
O39 Co33 2.052 . S
O39 C35 1.241 . S
O40 Co28 2.137 . S
O40 C31 1.247 . S
O41 Co28 2.244 . S
O41 C31 1.272 . S
O41 Co33 2.135 . S
Co42 O43 2.216 . S
Co42 O44 2.091 . S
Co42 O46 2.004 . S
Co42 O52 2.021 . S
Co42 O54 2.137 1_554 S
Co42 O55 2.244 . S
O43 Co42 2.216 . S
O43 C50 1.247 . S
O44 Co42 2.091 . S
O44 C50 1.261 . S
C45 O54 1.247 . S
C45 O55 1.272 1_556 S
O46 Co42 2.004 . S
O46 C51 1.259 . S
Co47 O48 2.061 . S
Co47 O53 2.052 . S
Co47 O55 2.135 . S
O48 Co47 2.061 . S
O48 C51 1.235 . S
C49 O52 1.238 . S
C49 O53 1.241 . S
C50 O43 1.247 . S
C50 O44 1.261 . S
C51 O46 1.259 . S
C51 O48 1.235 . S
O52 Co42 2.021 . S
O52 C49 1.238 . S
O53 Co47 2.052 . S
O53 C49 1.241 . S
O54 Co42 2.137 1_556 S
O54 C45 1.247 . S
O55 Co42 2.244 . S
O55 C45 1.272 1_554 S
O55 Co47 2.135 . S
Co56 O57 2.216 . S
Co56 O58 2.091 . S
Co56 O60 2.004 . S
Co56 O66 2.021 . S
Co56 O68 2.137 . S
Co56 O69 2.244 . S
O57 Co56 2.216 . S
O57 C64 1.247 . S
O58 Co56 2.091 . S
O58 C64 1.261 . S
C59 O68 1.247 . S
C59 O69 1.272 . S
O60 Co56 2.004 . S
O60 C65 1.259 . S
Co61 O62 2.061 . S
Co61 O67 2.052 . S
Co61 O69 2.135 . S
O62 Co61 2.061 . S
O62 C65 1.235 . S
C63 O66 1.238 . S
C63 O67 1.241 . S
C64 O57 1.247 . S
C64 O58 1.261 . S
C65 O60 1.259 . S
C65 O62 1.235 . S
O66 Co56 2.021 . S
O66 C63 1.238 . S
O67 Co61 2.052 . S
O67 C63 1.241 . S
O68 Co56 2.137 . S
O68 C59 1.247 . S
O69 Co56 2.244 . S
O69 C59 1.272 . S
O69 Co61 2.135 . S
Co70 O71 2.216 . S
Co70 O72 2.091 . S
Co70 O74 2.004 . S
Co70 O80 2.021 . S
Co70 O82 2.137 . S
Co70 O83 2.244 . S
O71 Co70 2.216 . S
O71 C78 1.247 . S
O72 Co70 2.091 . S
O72 C78 1.261 . S
C73 O82 1.247 . S
C73 O83 1.272 . S
O74 Co70 2.004 . S
O74 C79 1.259 . S
Co75 O76 2.061 . S
Co75 O81 2.052 . S
Co75 O83 2.135 . S
O76 Co75 2.061 . S
O76 C79 1.235 . S
C77 O80 1.238 . S
C77 O81 1.241 . S
C78 O71 1.247 . S
C78 O72 1.261 . S
C79 O74 1.259 . S
C79 O76 1.235 . S
O80 Co70 2.021 . S
O80 C77 1.238 . S
O81 Co75 2.052 . S
O81 C77 1.241 . S
O82 Co70 2.137 . S
O82 C73 1.247 . S
O83 Co70 2.244 . S
O83 C73 1.272 . S
O83 Co75 2.135 . S
Co84 O85 2.216 . S
Co84 O86 2.091 . S
Co84 O88 2.004 . S
Co84 O94 2.021 . S
Co84 O96 2.137 . S
Co84 O97 2.244 . S
O85 Co84 2.216 . S
O85 C92 1.247 . S
O86 Co84 2.091 . S
O86 C92 1.261 . S
C87 O96 1.247 . S
C87 O97 1.272 . S
O88 Co84 2.004 . S
O88 C93 1.259 . S
Co89 O90 2.061 . S
Co89 O95 2.052 . S
Co89 O97 2.135 . S
O90 Co89 2.061 . S
O90 C93 1.235 . S
C91 O94 1.238 . S
C91 O95 1.241 . S
C92 O85 1.247 . S
C92 O86 1.261 . S
C93 O88 1.259 . S
C93 O90 1.235 . S
O94 Co84 2.021 . S
O94 C91 1.238 . S
O95 Co89 2.052 . S
O95 C91 1.241 . S
O96 Co84 2.137 . S
O96 C87 1.247 . S
O97 Co84 2.244 . S
O97 C87 1.272 . S
O97 Co89 2.135 . S
Co98 O99 2.216 . S
Co98 O100 2.091 . S
Co98 O102 2.004 . S
Co98 O108 2.021 1_554 S
Co98 O110 2.137 . S
Co98 O111 2.244 . S
O99 Co98 2.216 . S
O99 C106 1.247 . S
O100 Co98 2.091 . S
O100 C106 1.261 . S
C101 O110 1.247 . S
C101 O111 1.272 . S
O102 Co98 2.004 . S
O102 C107 1.259 . S
Co103 O104 2.061 . S
Co103 O109 2.052 1_554 S
Co103 O111 2.135 . S
O104 Co103 2.061 . S
O104 C107 1.235 . S
C105 O108 1.238 . S
C105 O109 1.241 . S
C106 O99 1.247 . S
C106 O100 1.261 . S
C107 O102 1.259 . S
C107 O104 1.235 . S
O108 Co98 2.021 1_556 S
O108 C105 1.238 . S
O109 Co103 2.052 1_556 S
O109 C105 1.241 . S
O110 Co98 2.137 . S
O110 C101 1.247 . S
O111 Co98 2.244 . S
O111 C101 1.272 . S
O111 Co103 2.135 . S
H112 C118 0.930 . S
H113 C121 0.930 . S
H114 C122 0.930 . S
H115 C123 0.930 . S
H116 C126 0.930 . S
H117 C127 0.930 . S
C118 H112 0.930 . S
C118 C119 1.355 . S
C118 C120 1.415 . S
C119 C118 1.355 . S
C119 C121 1.419 . S
C120 C118 1.415 . S
C120 C125 1.425 . S
C120 C127 1.409 . S
C121 H113 0.930 . S
C121 C119 1.419 . S
C121 C122 1.362 . S
C122 H114 0.930 . S
C122 C121 1.362 . S
C122 C125 1.409 . S
C123 H115 0.930 . S
C123 C124 1.355 . S
C123 C125 1.415 . S
C124 C123 1.355 . S
C124 C126 1.419 . S
C125 C120 1.425 . S
C125 C122 1.409 . S
C125 C123 1.415 . S
C126 H116 0.930 . S
C126 C124 1.419 . S
C126 C127 1.362 . S
C127 H117 0.930 . S
C127 C120 1.409 . S
C127 C126 1.362 . S
H128 C134 0.930 . S
H129 C137 0.930 . S
H130 C138 0.930 . S
H131 C139 0.930 . S
H132 C142 0.930 . S
H133 C143 0.930 . S
C134 H128 0.930 . S
C134 C135 1.355 . S
C134 C136 1.415 . S
C135 C134 1.355 . S
C135 C137 1.419 . S
C136 C134 1.415 . S
C136 C141 1.425 . S
C136 C143 1.409 . S
C137 H129 0.930 . S
C137 C135 1.419 . S
C137 C138 1.362 . S
C138 H130 0.930 . S
C138 C137 1.362 . S
C138 C141 1.409 . S
C139 H131 0.930 . S
C139 C140 1.355 . S
C139 C141 1.415 . S
C140 C139 1.355 . S
C140 C142 1.419 . S
C141 C136 1.425 . S
C141 C138 1.409 . S
C141 C139 1.415 . S
C142 H132 0.930 . S
C142 C140 1.419 . S
C142 C143 1.362 . S
C143 H133 0.930 . S
C143 C136 1.409 . S
C143 C142 1.362 . S
H144 C150 0.930 . S
H145 C153 0.930 . S
H146 C154 0.930 . S
H147 C155 0.930 . S
H148 C158 0.930 1_556 S
H149 C159 0.930 . S
C150 H144 0.930 . S
C150 C151 1.355 . S
C150 C152 1.415 . S
C151 C150 1.355 . S
C151 C153 1.419 . S
C152 C150 1.415 . S
C152 C157 1.425 . S
C152 C159 1.409 . S
C153 H145 0.930 . S
C153 C151 1.419 . S
C153 C154 1.362 . S
C154 H146 0.930 . S
C154 C153 1.362 . S
C154 C157 1.409 . S
C155 H147 0.930 . S
C155 C156 1.355 . S
C155 C157 1.415 1_556 S
C156 C155 1.355 . S
C156 C158 1.419 1_556 S
C157 C152 1.425 . S
C157 C154 1.409 . S
C157 C155 1.415 1_554 S
C158 H148 0.930 1_554 S
C158 C156 1.419 1_554 S
C158 C159 1.362 . S
C159 H149 0.930 . S
C159 C152 1.409 . S
C159 C158 1.362 . S
H160 C166 0.930 . S
H161 C169 0.930 . S
H162 C170 0.930 . S
H163 C171 0.930 . S
H164 C174 0.930 . S
H165 C175 0.930 . S
C166 H160 0.930 . S
C166 C167 1.355 . S
C166 C168 1.415 . S
C167 C166 1.355 . S
C167 C169 1.419 . S
C168 C166 1.415 . S
C168 C173 1.425 . S
C168 C175 1.409 . S
C169 H161 0.930 . S
C169 C167 1.419 . S
C169 C170 1.362 . S
C170 H162 0.930 . S
C170 C169 1.362 . S
C170 C173 1.409 . S
C171 H163 0.930 . S
C171 C172 1.355 . S
C171 C173 1.415 . S
C172 C171 1.355 . S
C172 C174 1.419 . S
C173 C168 1.425 . S
C173 C170 1.409 . S
C173 C171 1.415 . S
C174 H164 0.930 . S
C174 C172 1.419 . S
C174 C175 1.362 . S
C175 H165 0.930 . S
C175 C168 1.409 . S
C175 C174 1.362 . S
H176 C182 0.930 . S
H177 C185 0.930 . S
H178 C186 0.930 . S
H179 C187 0.930 . S
H180 C190 0.930 . S
H181 C191 0.930 . S
C182 H176 0.930 . S
C182 C183 1.355 . S
C182 C184 1.415 . S
C183 C182 1.355 . S
C183 C185 1.419 . S
C184 C182 1.415 . S
C184 C189 1.425 . S
C184 C191 1.409 . S
C185 H177 0.930 . S
C185 C183 1.419 . S
C185 C186 1.362 . S
C186 H178 0.930 . S
C186 C185 1.362 . S
C186 C189 1.409 . S
C187 H179 0.930 . S
C187 C188 1.355 . S
C187 C189 1.415 . S
C188 C187 1.355 . S
C188 C190 1.419 . S
C189 C184 1.425 . S
C189 C186 1.409 . S
C189 C187 1.415 . S
C190 H180 0.930 . S
C190 C188 1.419 . S
C190 C191 1.362 . S
C191 H181 0.930 . S
C191 C184 1.409 . S
C191 C190 1.362 . S
H192 C198 0.930 . S
H193 C201 0.930 . S
H194 C202 0.930 . S
H195 C203 0.930 . S
H196 C206 0.930 . S
H197 C207 0.930 . S
C198 H192 0.930 . S
C198 C199 1.355 . S
C198 C200 1.415 . S
C199 C198 1.355 . S
C199 C201 1.419 . S
C200 C198 1.415 . S
C200 C205 1.425 . S
C200 C207 1.409 . S
C201 H193 0.930 . S
C201 C199 1.419 . S
C201 C202 1.362 . S
C202 H194 0.930 . S
C202 C201 1.362 . S
C202 C205 1.409 . S
C203 H195 0.930 . S
C203 C204 1.355 . S
C203 C205 1.415 . S
C204 C203 1.355 . S
C204 C206 1.419 . S
C205 C200 1.425 . S
C205 C202 1.409 . S
C205 C203 1.415 . S
C206 H196 0.930 . S
C206 C204 1.419 . S
C206 C207 1.362 . S
C207 H197 0.930 . S
C207 C200 1.409 . S
C207 C206 1.362 . S
H208 C214 0.930 . S
H209 C217 0.930 . S
H210 C218 0.930 1_554 S
H211 C219 0.930 . S
H212 C222 0.930 . S
H213 C223 0.930 . S
C214 H208 0.930 . S
C214 C215 1.355 1_556 S
C214 C216 1.415 . S
C215 C214 1.355 1_554 S
C215 C217 1.419 . S
C216 C214 1.415 . S
C216 C221 1.425 . S
C216 C223 1.409 . S
C217 H209 0.930 . S
C217 C215 1.419 . S
C217 C218 1.362 1_554 S
C218 H210 0.930 1_556 S
C218 C217 1.362 1_556 S
C218 C221 1.409 . S
C219 H211 0.930 . S
C219 C220 1.355 . S
C219 C221 1.415 . S
C220 C219 1.355 . S
C220 C222 1.419 . S
C221 C216 1.425 . S
C221 C218 1.409 . S
C221 C219 1.415 . S
C222 H212 0.930 . S
C222 C220 1.419 . S
C222 C223 1.362 . S
C223 H213 0.930 . S
C223 C216 1.409 . S
C223 C222 1.362 . S
H224 C230 0.930 . S
H225 C233 0.930 . S
H226 C234 0.930 . S
H227 C235 0.930 . S
H228 C238 0.930 . S
H229 C239 0.930 . S
C230 H224 0.930 . S
C230 C231 1.355 . S
C230 C232 1.415 . S
C231 C230 1.355 . S
C231 C233 1.419 . S
C232 C230 1.415 . S
C232 C237 1.425 . S
C232 C239 1.409 . S
C233 H225 0.930 . S
C233 C231 1.419 . S
C233 C234 1.362 . S
C234 H226 0.930 . S
C234 C233 1.362 . S
C234 C237 1.409 . S
C235 H227 0.930 . S
C235 C236 1.355 . S
C235 C237 1.415 . S
C236 C235 1.355 . S
C236 C238 1.419 . S
C237 C232 1.425 . S
C237 C234 1.409 . S
C237 C235 1.415 . S
C238 H228 0.930 . S
C238 C236 1.419 . S
C238 C239 1.362 . S
C239 H229 0.930 . S
C239 C232 1.409 . S
C239 C238 1.362 . S
H240 C246 0.930 . S
H241 C249 0.930 . S
H242 C250 0.930 . S
H243 C251 0.930 . S
H244 C254 0.930 . S
H245 C255 0.930 . S
C246 H240 0.930 . S
C246 C247 1.355 . S
C246 C248 1.415 . S
C247 C246 1.355 . S
C247 C249 1.419 . S
C248 C246 1.415 . S
C248 C253 1.425 1_565 S
C248 C255 1.409 1_565 S
C249 H241 0.930 . S
C249 C247 1.419 . S
C249 C250 1.362 . S
C250 H242 0.930 . S
C250 C249 1.362 . S
C250 C253 1.409 1_565 S
C251 H243 0.930 . S
C251 C252 1.355 . S
C251 C253 1.415 . S
C252 C251 1.355 . S
C252 C254 1.419 . S
C253 C248 1.425 1_545 S
C253 C250 1.409 1_545 S
C253 C251 1.415 . S
C254 H244 0.930 . S
C254 C252 1.419 . S
C254 C255 1.362 . S
C255 H245 0.930 . S
C255 C248 1.409 1_545 S
C255 C254 1.362 . S
H256 C262 0.930 . S
H257 C265 0.930 . S
H258 C266 0.930 . S
H259 C267 0.930 . S
H260 C270 0.930 . S
H261 C271 0.930 . S
C262 H256 0.930 . S
C262 C263 1.355 . S
C262 C264 1.415 . S
C263 C262 1.355 . S
C263 C265 1.419 . S
C264 C262 1.415 . S
C264 C269 1.425 1_655 S
C264 C271 1.409 1_655 S
C265 H257 0.930 . S
C265 C263 1.419 . S
C265 C266 1.362 . S
C266 H258 0.930 . S
C266 C265 1.362 . S
C266 C269 1.409 1_655 S
C267 H259 0.930 . S
C267 C268 1.355 . S
C267 C269 1.415 . S
C268 C267 1.355 . S
C268 C270 1.419 . S
C269 C264 1.425 1_455 S
C269 C266 1.409 1_455 S
C269 C267 1.415 . S
C270 H260 0.930 . S
C270 C268 1.419 . S
C270 C271 1.362 . S
C271 H261 0.930 . S
C271 C264 1.409 1_455 S
C271 C270 1.362 . S
H272 C278 0.930 . S
H273 C281 0.930 . S
H274 C282 0.930 . S
H275 C283 0.930 . S
H276 C286 0.930 . S
H277 C287 0.930 . S
C278 H272 0.930 . S
C278 C279 1.355 . S
C278 C280 1.415 . S
C279 C278 1.355 . S
C279 C281 1.419 . S
C280 C278 1.415 . S
C280 C285 1.425 1_565 S
C280 C287 1.409 1_565 S
C281 H273 0.930 . S
C281 C279 1.419 . S
C281 C282 1.362 . S
C282 H274 0.930 . S
C282 C281 1.362 . S
C282 C285 1.409 1_565 S
C283 H275 0.930 . S
C283 C284 1.355 . S
C283 C285 1.415 . S
C284 C283 1.355 . S
C284 C286 1.419 . S
C285 C280 1.425 1_545 S
C285 C282 1.409 1_545 S
C285 C283 1.415 . S
C286 H276 0.930 . S
C286 C284 1.419 . S
C286 C287 1.362 . S
C287 H277 0.930 . S
C287 C280 1.409 1_545 S
C287 C286 1.362 . S
H288 C294 0.930 1_556 S
H289 C297 0.930 . S
H290 C298 0.930 . S
H291 C299 0.930 . S
H292 C302 0.930 1_556 S
H293 C303 0.930 . S
C294 H288 0.930 1_554 S
C294 C295 1.355 . S
C294 C296 1.415 . S
C295 C294 1.355 . S
C295 C297 1.419 . S
C296 C294 1.415 . S
C296 C301 1.425 1_655 S
C296 C303 1.409 1_654 S
C297 H289 0.930 . S
C297 C295 1.419 . S
C297 C298 1.362 . S
C298 H290 0.930 . S
C298 C297 1.362 . S
C298 C301 1.409 1_655 S
C299 H291 0.930 . S
C299 C300 1.355 . S
C299 C301 1.415 . S
C300 C299 1.355 . S
C300 C302 1.419 . S
C301 C296 1.425 1_455 S
C301 C298 1.409 1_455 S
C301 C299 1.415 . S
C302 H292 0.930 1_554 S
C302 C300 1.419 . S
C302 C303 1.362 1_554 S
C303 H293 0.930 . S
C303 C296 1.409 1_456 S
C303 C302 1.362 1_556 S
H304 C310 0.930 . S
H305 C313 0.930 1_556 S
H306 C314 0.930 . S
H307 C315 0.930 . S
H308 C318 0.930 . S
H309 C319 0.930 . S
C310 H304 0.930 . S
C310 C311 1.355 . S
C310 C312 1.415 1_556 S
C311 C310 1.355 . S
C311 C313 1.419 1_556 S
C312 C310 1.415 1_554 S
C312 C317 1.425 . S
C312 C319 1.409 . S
C313 H305 0.930 1_554 S
C313 C311 1.419 1_554 S
C313 C314 1.362 . S
C314 H306 0.930 . S
C314 C313 1.362 . S
C314 C317 1.409 . S
C315 H307 0.930 . S
C315 C316 1.355 . S
C315 C317 1.415 . S
C316 C315 1.355 . S
C316 C318 1.419 . S
C317 C312 1.425 . S
C317 C314 1.409 . S
C317 C315 1.415 . S
C318 H308 0.930 . S
C318 C316 1.419 . S
C318 C319 1.362 . S
C319 H309 0.930 . S
C319 C312 1.409 . S
C319 C318 1.362 . S
H320 C326 0.930 . S
H321 C329 0.930 . S
H322 C330 0.930 . S
H323 C331 0.930 . S
H324 C334 0.930 . S
H325 C335 0.930 . S
C326 H320 0.930 . S
C326 C327 1.355 . S
C326 C328 1.415 . S
C327 C326 1.355 . S
C327 C329 1.419 . S
C328 C326 1.415 . S
C328 C333 1.425 . S
C328 C335 1.409 . S
C329 H321 0.930 . S
C329 C327 1.419 . S
C329 C330 1.362 . S
C330 H322 0.930 . S
C330 C329 1.362 . S
C330 C333 1.409 . S
C331 H323 0.930 . S
C331 C332 1.355 . S
C331 C333 1.415 . S
C332 C331 1.355 . S
C332 C334 1.419 . S
C333 C328 1.425 . S
C333 C330 1.409 . S
C333 C331 1.415 . S
C334 H324 0.930 . S
C334 C332 1.419 . S
C334 C335 1.362 . S
C335 H325 0.930 . S
C335 C328 1.409 . S
C335 C334 1.362 . S
H336 C342 0.930 . S
H337 C345 0.930 . S
H338 C346 0.930 . S
H339 C347 0.930 . S
H340 C350 0.930 . S
H341 C351 0.930 . S
C342 H336 0.930 . S
C342 C343 1.355 . S
C342 C344 1.415 . S
C343 C342 1.355 . S
C343 C345 1.419 . S
C344 C342 1.415 . S
C344 C349 1.425 . S
C344 C351 1.409 . S
C345 H337 0.930 . S
C345 C343 1.419 . S
C345 C346 1.362 . S
C346 H338 0.930 . S
C346 C345 1.362 . S
C346 C349 1.409 . S
C347 H339 0.930 . S
C347 C348 1.355 . S
C347 C349 1.415 . S
C348 C347 1.355 . S
C348 C350 1.419 . S
C349 C344 1.425 . S
C349 C346 1.409 . S
C349 C347 1.415 . S
C350 H340 0.930 . S
C350 C348 1.419 . S
C350 C351 1.362 . S
C351 H341 0.930 . S
C351 C344 1.409 . S
C351 C350 1.362 . S
H352 C358 0.930 . S
H353 C361 0.930 . S
H354 C362 0.930 . S
H355 C363 0.930 . S
H356 C366 0.930 . S
H357 C367 0.930 . S
C358 H352 0.930 . S
C358 C359 1.355 . S
C358 C360 1.415 . S
C359 C358 1.355 . S
C359 C361 1.419 . S
C360 C358 1.415 . S
C360 C365 1.425 . S
C360 C367 1.409 . S
C361 H353 0.930 . S
C361 C359 1.419 . S
C361 C362 1.362 . S
C362 H354 0.930 . S
C362 C361 1.362 . S
C362 C365 1.409 . S
C363 H355 0.930 . S
C363 C364 1.355 . S
C363 C365 1.415 . S
C364 C363 1.355 . S
C364 C366 1.419 . S
C365 C360 1.425 . S
C365 C362 1.409 . S
C365 C363 1.415 . S
C366 H356 0.930 . S
C366 C364 1.419 . S
C366 C367 1.362 . S
C367 H357 0.930 . S
C367 C360 1.409 . S
C367 C366 1.362 . S
C119 C7 0.787 . S
C124 C91 0.824 . S
C135 C21 0.794 . S
C140 C105 0.821 . S
C151 C63 0.789 . S
C156 C35 0.823 . S
C167 C77 0.747 . S
C172 C49 0.788 . S
C183 C8 1.554 . S
C188 C78 1.565 . S
C199 C22 1.556 . S
C204 C92 1.567 . S
C215 C106 1.582 . S
C220 C36 1.576 . S
C231 C50 1.546 . S
C236 C64 1.557 . S
C247 C65 1.493 . S
C252 C9 1.498 . S
C263 C23 1.506 . S
C268 C79 1.479 . S
C279 C37 1.480 . S
C284 C93 1.510 . S
C295 C107 1.495 . S
C300 C51 1.489 . S
C311 C87 1.525 . S
C316 C3 1.531 . S
C327 C101 1.514 . S
C332 C17 1.539 . S
C343 C31 1.540 . S
C348 C59 1.513 . S
C359 C45 1.525 . S
C364 C73 1.532 . S
