# Generated by pormake.
# Topology vmc, (5)-cn, num edge types: 1
# Building blocks:
#     Node 0, Type 0, BuildingBlock: BEQFEK_clean_sbu_0, # of connection points: 5
#     Node 1, Type 0, BuildingBlock: BEQFEK_clean_sbu_0, # of connection points: 5
#     Node 2, Type 0, BuildingBlock: BEQFEK_clean_sbu_0, # of connection points: 5
#     Node 3, Type 0, BuildingBlock: BEQFEK_clean_sbu_0, # of connection points: 5
#     Node 4, Type 0, BuildingBlock: BEQFEK_clean_sbu_0, # of connection points: 5
#     Node 5, Type 0, BuildingBlock: BEQFEK_clean_sbu_0, # of connection points: 5
#     Node 6, Type 0, BuildingBlock: BEQFEK_clean_sbu_0, # of connection points: 5
#     Node 7, Type 0, BuildingBlock: BEQFEK_clean_sbu_0, # of connection points: 5
#     Edge 8, Type (0, 0), BuildingBlock: XIVTED_clean_linker_0, # of connection points: 2
#     Edge 9, Type (0, 0), BuildingBlock: XIVTED_clean_linker_0, # of connection points: 2
#     Edge 10, Type (0, 0), BuildingBlock: XIVTED_clean_linker_0, # of connection points: 2
#     Edge 11, Type (0, 0), BuildingBlock: XIVTED_clean_linker_0, # of connection points: 2
#     Edge 12, Type (0, 0), BuildingBlock: XIVTED_clean_linker_0, # of connection points: 2
#     Edge 13, Type (0, 0), BuildingBlock: XIVTED_clean_linker_0, # of connection points: 2
#     Edge 14, Type (0, 0), BuildingBlock: XIVTED_clean_linker_0, # of connection points: 2
#     Edge 15, Type (0, 0), BuildingBlock: XIVTED_clean_linker_0, # of connection points: 2
#     Edge 16, Type (0, 0), BuildingBlock: XIVTED_clean_linker_0, # of connection points: 2
#     Edge 17, Type (0, 0), BuildingBlock: XIVTED_clean_linker_0, # of connection points: 2
#     Edge 18, Type (0, 0), BuildingBlock: XIVTED_clean_linker_0, # of connection points: 2
#     Edge 19, Type (0, 0), BuildingBlock: XIVTED_clean_linker_0, # of connection points: 2
#     Edge 20, Type (0, 0), BuildingBlock: XIVTED_clean_linker_0, # of connection points: 2
#     Edge 21, Type (0, 0), BuildingBlock: XIVTED_clean_linker_0, # of connection points: 2
#     Edge 22, Type (0, 0), BuildingBlock: XIVTED_clean_linker_0, # of connection points: 2
#     Edge 23, Type (0, 0), BuildingBlock: XIVTED_clean_linker_0, # of connection points: 2
#     Edge 24, Type (0, 0), BuildingBlock: XIVTED_clean_linker_0, # of connection points: 2
#     Edge 25, Type (0, 0), BuildingBlock: XIVTED_clean_linker_0, # of connection points: 2
#     Edge 26, Type (0, 0), BuildingBlock: XIVTED_clean_linker_0, # of connection points: 2
#     Edge 27, Type (0, 0), BuildingBlock: XIVTED_clean_linker_0, # of connection points: 2
# Relax obj value: 0.505
# Max RMSD: 0.273
# Mean RMSD: 0.273
data_MOF--net-vmc--node1-BEQFEK_clean_sbu_0--edge1-XIVTED_clean_linker_0
_symmetry_space_group_name_H-M    P1
_symmetry_Int_Tables_number       1
_symmetry_cell_setting            triclinic
loop_
_symmetry_equiv_pos_as_xyz
'x, y, z'
_cell_length_a     49.266872
_cell_length_b     48.056598
_cell_length_c     27.525326
_cell_angle_alpha  90.010598
_cell_angle_beta   105.42871
_cell_angle_gamma 90.117136
loop_
_atom_site_label
_atom_site_type_symbol
_atom_site_fract_x
_atom_site_fract_y
_atom_site_fract_z
_atom_type_partial_charge
Co0 Co 0.38928 0.45724 0.11522 0.0
Co1 Co 0.34578 0.41056 0.12086 0.0
C2 C 0.40841 0.40074 0.15462 0.0
O3 O 0.41272 0.42531 0.14183 0.0
O4 O 0.38355 0.39175 0.15064 0.0
C5 C 0.44124 0.48353 0.11692 0.0
O6 O 0.45124 0.46739 0.15608 0.0
C7 C 0.31614 0.35819 0.08627 0.0
C8 C 0.27831 0.36144 0.11452 0.0
C9 C 0.29141 0.34439 0.087 0.0
N10 N 0.31731 0.38236 0.11149 0.0
N11 N 0.29466 0.38413 0.12841 0.0
C12 C 0.3391 0.34803 0.06439 0.0
H13 H 0.35911 0.35906 0.08135 0.0
H14 H 0.33336 0.35206 0.0233 0.0
H15 H 0.34209 0.32527 0.07037 0.0
C16 C 0.35777 0.45788 0.00953 0.0
N17 N 0.3626 0.44701 0.05594 0.0
N18 N 0.34337 0.4281 0.05677 0.0
C19 C 0.32501 0.42706 0.0103 0.0
C20 C 0.33381 0.44581 0.97913 0.0
C21 C 0.37569 0.47981 0.99477 0.0
H22 H 0.39773 0.47232 0.00329 0.0
H23 H 0.36849 0.48499 0.95409 0.0
H24 H 0.37525 0.49892 0.01716 0.0
O25 O 0.3702 0.47243 0.16383 0.0
O26 O 0.33904 0.4397 0.16912 0.0
H27 H 0.28879 0.40996 0.02905 0.0
H28 H 0.28304 0.41949 0.96339 0.0
C29 C 0.29831 0.41051 0.99684 0.0
H30 H 0.30298 0.38893 0.98756 0.0
H31 H 0.29027 0.40089 0.14917 0.0
O32 O 0.4148 0.48482 0.09792 0.0
C33 C 0.35044 0.4635 0.18169 0.0
Co34 Co 0.61207 0.45125 0.37854 0.0
Co35 Co 0.65829 0.40631 0.38054 0.0
C36 C 0.59747 0.39409 0.33479 0.0
O37 O 0.59189 0.41875 0.34469 0.0
O38 O 0.62268 0.38519 0.3462 0.0
C39 C 0.56576 0.46 0.41203 0.0
O40 O 0.57076 0.43329 0.41958 0.0
C41 C 0.6896 0.35569 0.41893 0.0
C42 C 0.72892 0.36076 0.39572 0.0
C43 C 0.71526 0.34305 0.42132 0.0
N44 N 0.68838 0.37988 0.39381 0.0
N45 N 0.71193 0.38276 0.37994 0.0
C46 C 0.66586 0.34427 0.4375 0.0
H47 H 0.64591 0.35514 0.41978 0.0
H48 H 0.67038 0.34728 0.47877 0.0
H49 H 0.66342 0.32161 0.42966 0.0
C50 C 0.6414 0.45505 0.48565 0.0
N51 N 0.63738 0.44245 0.44066 0.0
N52 N 0.65711 0.42365 0.44314 0.0
C53 C 0.67444 0.42387 0.4906 0.0
C54 C 0.6647 0.44358 0.51882 0.0
C55 C 0.62452 0.4792 0.49597 0.0
H56 H 0.60456 0.47135 0.50225 0.0
H57 H 0.63577 0.49088 0.53015 0.0
H58 H 0.61967 0.49365 0.46344 0.0
O59 O 0.63304 0.46896 0.33507 0.0
O60 O 0.66516 0.43642 0.33382 0.0
H61 H 0.71266 0.40837 0.47739 0.0
H62 H 0.71529 0.41721 0.54242 0.0
C63 C 0.70147 0.40813 0.50739 0.0
H64 H 0.69691 0.38627 0.51516 0.0
H65 H 0.71644 0.39976 0.35981 0.0
O66 O 0.58174 0.47429 0.39206 0.0
C67 C 0.65392 0.46017 0.32016 0.0
Co68 Co 0.61125 0.54874 0.88477 0.0
Co69 Co 0.65459 0.5959 0.88077 0.0
C70 C 0.59197 0.60547 0.84662 0.0
O71 O 0.58776 0.58073 0.85865 0.0
O72 O 0.61681 0.6147 0.85119 0.0
C73 C 0.55927 0.52215 0.88177 0.0
O74 O 0.54939 0.53847 0.84283 0.0
C75 C 0.68412 0.64821 0.91656 0.0
C76 C 0.72227 0.64507 0.8892 0.0
C77 C 0.70898 0.66199 0.91659 0.0
N78 N 0.68307 0.62415 0.89104 0.0
N79 N 0.7059 0.62245 0.87466 0.0
C80 C 0.66098 0.65829 0.93803 0.0
H81 H 0.64095 0.64744 0.92037 0.0
H82 H 0.66639 0.65395 0.97901 0.0
H83 H 0.65816 0.68109 0.93256 0.0
C84 C 0.64243 0.54745 0.99063 0.0
N85 N 0.63773 0.55867 0.94449 0.0
N86 N 0.65685 0.57781 0.94439 0.0
C87 C 0.675 0.57869 0.99109 0.0
C88 C 0.66618 0.55956 0.02163 0.0
C89 C 0.6245 0.52527 0.00463 0.0
H90 H 0.60244 0.53269 0.9961 0.0
H91 H 0.6316 0.51978 0.04518 0.0
H92 H 0.62506 0.50636 0.98178 0.0
O93 O 0.63061 0.53407 0.83619 0.0
O94 O 0.66151 0.56725 0.83179 0.0
H95 H 0.71129 0.59642 0.97354 0.0
H96 H 0.71667 0.58656 0.03895 0.0
C97 C 0.70149 0.59553 0.00539 0.0
H98 H 0.69649 0.61698 0.01481 0.0
H99 H 0.71041 0.60577 0.85383 0.0
O100 O 0.58569 0.52087 0.90108 0.0
C101 C 0.65032 0.54341 0.81867 0.0
Co102 Co 0.38863 0.55415 0.62391 0.0
Co103 Co 0.34215 0.59897 0.62091 0.0
C104 C 0.40278 0.61151 0.66727 0.0
O105 O 0.40848 0.58682 0.65777 0.0
O106 O 0.37756 0.62035 0.65532 0.0
C107 C 0.43571 0.54541 0.5923 0.0
O108 O 0.43103 0.57219 0.58507 0.0
C109 C 0.31043 0.64952 0.58293 0.0
C110 C 0.27113 0.64382 0.60596 0.0
C111 C 0.28469 0.66192 0.58087 0.0
N112 N 0.3118 0.62511 0.60743 0.0
N113 N 0.28824 0.62184 0.62115 0.0
C114 C 0.33413 0.66137 0.56477 0.0
H115 H 0.35408 0.65036 0.58184 0.0
H116 H 0.32952 0.65898 0.52335 0.0
H117 H 0.3366 0.68392 0.57369 0.0
C118 C 0.35944 0.54978 0.51677 0.0
N119 N 0.36338 0.56267 0.5615 0.0
N120 N 0.34362 0.58148 0.55859 0.0
C121 C 0.3264 0.58108 0.51106 0.0
C122 C 0.33602 0.56101 0.48328 0.0
C123 C 0.37735 0.5264 0.50677 0.0
H124 H 0.38187 0.51154 0.53869 0.0
H125 H 0.39746 0.53506 0.50259 0.0
H126 H 0.36738 0.51495 0.47168 0.0
O127 O 0.36756 0.53641 0.6671 0.0
O128 O 0.33529 0.56889 0.66773 0.0
H129 H 0.288 0.59666 0.52332 0.0
H130 H 0.28593 0.58832 0.4583 0.0
C131 C 0.29954 0.59706 0.49383 0.0
H132 H 0.30441 0.61897 0.48693 0.0
H133 H 0.28385 0.60463 0.64091 0.0
O134 O 0.41923 0.53116 0.6112 0.0
C135 C 0.34655 0.54518 0.68163 0.0
Co136 Co 0.88914 0.95398 0.11727 0.0
Co137 Co 0.84411 0.90777 0.11756 0.0
C138 C 0.90629 0.89727 0.15791 0.0
O139 O 0.91147 0.92184 0.14639 0.0
O140 O 0.88111 0.88843 0.15051 0.0
C141 C 0.94221 0.9792 0.1212 0.0
O142 O 0.95203 0.96125 0.15758 0.0
C143 C 0.81402 0.85615 0.07941 0.0
C144 C 0.77539 0.85957 0.10527 0.0
C145 C 0.78889 0.84258 0.07831 0.0
N146 N 0.81505 0.8801 0.10518 0.0
N147 N 0.79191 0.88199 0.12061 0.0
C148 C 0.83747 0.84595 0.05888 0.0
H149 H 0.85743 0.85678 0.07714 0.0
H150 H 0.83244 0.85027 0.01791 0.0
H151 H 0.84016 0.82314 0.06447 0.0
C152 C 0.8603 0.95548 0.01033 0.0
N153 N 0.86393 0.94402 0.05606 0.0
N154 N 0.84393 0.92562 0.05478 0.0
C155 C 0.82624 0.92558 0.00767 0.0
C156 C 0.83619 0.94455 0.97827 0.0
C157 C 0.87973 0.97663 0.99767 0.0
H158 H 0.87831 0.99629 0.01796 0.0
H159 H 0.90167 0.96888 0.01018 0.0
H160 H 0.8747 0.98086 0.95665 0.0
O161 O 0.86812 0.96942 0.16277 0.0
O162 O 0.83629 0.93674 0.16482 0.0
H163 H 0.7887 0.90996 0.02367 0.0
H164 H 0.78448 0.91974 0.9585 0.0
C165 C 0.7989 0.91015 0.99231 0.0
H166 H 0.80289 0.88839 0.98296 0.0
H167 H 0.78735 0.89863 0.14149 0.0
O168 O 0.91576 0.98156 0.10319 0.0
C169 C 0.84753 0.96049 0.17834 0.0
Co170 Co 0.11299 0.95804 0.38835 0.0
Co171 Co 0.15647 0.91081 0.38663 0.0
C172 C 0.09404 0.90129 0.34904 0.0
O173 O 0.08965 0.92603 0.36078 0.0
O174 O 0.11894 0.89204 0.35511 0.0
C175 C 0.06069 0.98431 0.38367 0.0
O176 O 0.05111 0.96782 0.34479 0.0
C177 C 0.18539 0.85835 0.42238 0.0
C178 C 0.22401 0.86163 0.39646 0.0
C179 C 0.21016 0.84447 0.42262 0.0
N180 N 0.18489 0.88265 0.39784 0.0
N181 N 0.20803 0.88445 0.38239 0.0
C182 C 0.16176 0.84812 0.4425 0.0
H183 H 0.14213 0.85971 0.42565 0.0
H184 H 0.16713 0.85132 0.48383 0.0
H185 H 0.15826 0.82552 0.4349 0.0
C186 C 0.14282 0.95931 0.49499 0.0
N187 N 0.13867 0.94806 0.44896 0.0
N188 N 0.15776 0.92882 0.4498 0.0
C189 C 0.1753 0.92788 0.497 0.0
C190 C 0.16611 0.94707 0.5269 0.0
C191 C 0.12498 0.98185 0.50794 0.0
H192 H 0.10284 0.97454 0.4993 0.0
H193 H 0.13196 0.98777 0.54831 0.0
H194 H 0.12582 1.00046 0.48454 0.0
O195 O 0.13336 0.97281 0.34124 0.0
O196 O 0.16428 0.93945 0.33866 0.0
H197 H 0.21212 0.91023 0.48161 0.0
H198 H 0.21624 0.91946 0.54702 0.0
C199 C 0.20155 0.91085 0.51246 0.0
H200 H 0.19603 0.88932 0.5206 0.0
H201 H 0.21294 0.90128 0.3623 0.0
O202 O 0.08705 0.9858 0.40351 0.0
C203 C 0.15345 0.9633 0.32499 0.0
Co204 Co 0.11217 0.05311 0.88973 0.0
Co205 Co 0.1571 0.09895 0.88645 0.0
C206 C 0.09489 0.10953 0.84754 0.0
O207 O 0.0898 0.08517 0.86024 0.0
O208 O 0.12005 0.11822 0.85374 0.0
C209 C 0.05912 0.02872 0.88877 0.0
O210 O 0.0491 0.04637 0.85198 0.0
C211 C 0.18751 0.1507 0.92233 0.0
C212 C 0.22588 0.14665 0.89589 0.0
C213 C 0.21265 0.16401 0.9227 0.0
N214 N 0.18622 0.12651 0.89718 0.0
N215 N 0.2092 0.12425 0.88136 0.0
C216 C 0.16429 0.16134 0.94306 0.0
H217 H 0.1442 0.15062 0.92524 0.0
H218 H 0.16944 0.15726 0.98411 0.0
H219 H 0.16179 0.18413 0.93708 0.0
C220 C 0.14194 0.05263 0.99632 0.0
N221 N 0.13794 0.0635 0.95005 0.0
N222 N 0.15783 0.08183 0.9501 0.0
C223 C 0.17583 0.08239 0.99693 0.0
C224 C 0.16605 0.06402 0.02748 0.0
C225 C 0.12337 0.03098 0.01007 0.0
H226 H 0.12407 0.01175 0.98812 0.0
H227 H 0.10138 0.03868 1.00026 0.0
H228 H 0.12983 0.02593 0.05085 0.0
O229 O 0.13242 0.037 0.84345 0.0
O230 O 0.16421 0.0694 0.83961 0.0
H231 H 0.21313 0.09755 0.9794 0.0
H232 H 0.21779 0.08853 0.04504 0.0
C233 C 0.20319 0.09781 0.01111 0.0
H234 H 0.19932 0.11971 0.01982 0.0
H235 H 0.21356 0.10735 0.86085 0.0
O236 O 0.08561 0.02613 0.90591 0.0
C237 C 0.15275 0.04565 0.82684 0.0
Co238 Co 0.88873 0.04844 0.61296 0.0
Co239 Co 0.84505 0.095 0.61728 0.0
C240 C 0.90761 0.1048 0.65379 0.0
O241 O 0.91211 0.08031 0.64091 0.0
O242 O 0.88266 0.1137 0.64878 0.0
C243 C 0.94089 0.02236 0.61586 0.0
O244 O 0.95067 0.03856 0.65508 0.0
C245 C 0.81626 0.14726 0.5813 0.0
C246 C 0.77812 0.14492 0.60883 0.0
C247 C 0.79173 0.16148 0.58131 0.0
N248 N 0.81685 0.12332 0.60691 0.0
N249 N 0.79402 0.12208 0.62338 0.0
C250 C 0.8396 0.15679 0.55973 0.0
H251 H 0.85934 0.14549 0.57712 0.0
H252 H 0.83397 0.15252 0.5187 0.0
H253 H 0.84304 0.17953 0.56542 0.0
C254 C 0.85807 0.04776 0.50682 0.0
N255 N 0.86267 0.05878 0.55311 0.0
N256 N 0.8433 0.07753 0.55349 0.0
C257 C 0.82504 0.07827 0.50693 0.0
C258 C 0.83411 0.05956 0.47609 0.0
C259 C 0.87593 0.02564 0.49267 0.0
H260 H 0.87525 0.00667 0.51528 0.0
H261 H 0.89804 0.03306 0.50138 0.0
H262 H 0.86884 0.02026 0.45205 0.0
O263 O 0.86876 0.0331 0.66027 0.0
O264 O 0.83754 0.06587 0.66461 0.0
H265 H 0.78852 0.09472 0.52535 0.0
H266 H 0.78299 0.08504 0.4598 0.0
C267 C 0.7981 0.09431 0.4932 0.0
H268 H 0.80247 0.11598 0.48376 0.0
H269 H 0.78922 0.10559 0.64436 0.0
O270 O 0.91449 0.02095 0.59639 0.0
C271 C 0.84871 0.04204 0.67729 0.0
H272 H 0.31 0.55953 0.73772 0.0
H273 H 0.33937 0.41858 0.89609 0.0
H274 H 0.35825 0.49045 0.70515 0.0
H275 H 0.30255 0.4914 0.94342 0.0
H276 H 0.33446 0.4401 0.81349 0.0
H277 H 0.29658 0.53103 0.80147 0.0
C278 C 0.3175 0.5383 0.7435 0.0
C279 C 0.33572 0.52757 0.71664 0.0
C280 C 0.32666 0.45109 0.84135 0.0
C281 C 0.32028 0.4948 0.78926 0.0
C282 C 0.32907 0.4386 0.88813 0.0
C283 C 0.32113 0.45324 0.92606 0.0
C284 C 0.31658 0.47853 0.83297 0.0
C285 C 0.3086 0.47943 0.91466 0.0
C286 C 0.30981 0.52203 0.77987 0.0
C287 C 0.3446 0.49982 0.72553 0.0
N288 N 0.30715 0.4915 0.86937 0.0
N289 N 0.337 0.48453 0.7613 0.0
H290 H 0.69782 0.48829 0.55537 0.0
H291 H 0.63961 0.48829 0.79853 0.0
H292 H 0.65408 0.41954 0.60068 0.0
H293 H 0.68331 0.55826 0.75587 0.0
H294 H 0.65217 0.4602 0.73438 0.0
H295 H 0.7013 0.51087 0.63682 0.0
C296 C 0.69006 0.47746 0.58351 0.0
C297 C 0.67587 0.45201 0.57188 0.0
C298 C 0.65926 0.48161 0.73917 0.0
C299 C 0.67869 0.47799 0.66389 0.0
C300 C 0.65196 0.49778 0.77576 0.0
C301 C 0.66 0.52589 0.78214 0.0
C302 C 0.67451 0.49358 0.70804 0.0
C303 C 0.67643 0.53677 0.75199 0.0
C304 C 0.69167 0.49048 0.62964 0.0
C305 C 0.66544 0.43905 0.6087 0.0
N306 N 0.68283 0.52069 0.71577 0.0
N307 N 0.66667 0.45237 0.65279 0.0
H308 H 0.6903 0.44589 0.2637 0.0
H309 H 0.66024 0.58664 0.1046 0.0
H310 H 0.64192 0.51484 0.29634 0.0
H311 H 0.69726 0.51387 0.05748 0.0
H312 H 0.66509 0.56511 0.1872 0.0
H313 H 0.70336 0.47433 0.19951 0.0
C314 C 0.68269 0.46708 0.25785 0.0
C315 C 0.66456 0.47779 0.28489 0.0
C316 C 0.67293 0.55413 0.15937 0.0
C317 C 0.67956 0.51049 0.21172 0.0
C318 C 0.67054 0.56662 0.11259 0.0
C319 C 0.67859 0.55201 0.07474 0.0
C320 C 0.68311 0.52672 0.16785 0.0
C321 C 0.69113 0.52582 0.08619 0.0
C322 C 0.69017 0.48331 0.22121 0.0
C323 C 0.65553 0.50549 0.27586 0.0
N324 N 0.69258 0.51377 0.13149 0.0
N325 N 0.66291 0.52074 0.23983 0.0
H326 H 0.36443 0.51775 0.20515 0.0
H327 H 0.33648 0.59077 0.39952 0.0
H328 H 0.31501 0.45042 0.24111 0.0
H329 H 0.31148 0.51171 0.44717 0.0
H330 H 0.33226 0.57139 0.31576 0.0
H331 H 0.35255 0.5461 0.26893 0.0
C332 C 0.3507 0.509 0.2261 0.0
C333 C 0.34101 0.48144 0.21798 0.0
C334 C 0.32769 0.55809 0.34424 0.0
C335 C 0.32641 0.51448 0.29127 0.0
C336 C 0.32946 0.56945 0.39174 0.0
C337 C 0.32479 0.55259 0.43013 0.0
C338 C 0.32188 0.52948 0.33579 0.0
C339 C 0.31555 0.52519 0.41838 0.0
C340 C 0.34352 0.52549 0.26241 0.0
C341 C 0.32313 0.47147 0.24622 0.0
N342 N 0.31499 0.51427 0.37256 0.0
N343 N 0.31674 0.48785 0.28206 0.0
H344 H 0.83081 0.91462 0.89206 0.0
H345 H 0.86069 0.98725 0.69876 0.0
H346 H 0.81548 0.9955 0.94641 0.0
H347 H 0.81411 0.05596 0.73747 0.0
H348 H 0.84833 0.95916 0.76274 0.0
H349 H 0.82543 0.93449 0.80807 0.0
C350 C 0.82552 0.93643 0.88574 0.0
C351 C 0.82389 0.9536 0.92588 0.0
C352 C 0.84 0.98004 0.7566 0.0
C353 C 0.81956 0.97695 0.83133 0.0
C354 C 0.84746 0.99635 0.7203 0.0
C355 C 0.83874 0.02419 0.71303 0.0
C356 C 0.82369 0.99161 0.78632 0.0
C357 C 0.82147 0.03466 0.74193 0.0
C358 C 0.82309 0.94798 0.83813 0.0
C359 C 0.81705 0.98172 0.91615 0.0
N360 N 0.81491 0.0185 0.77785 0.0
N361 N 0.81565 0.99265 0.87006 0.0
H362 H 0.14059 0.99076 0.80558 0.0
H363 H 0.19936 0.99135 0.56395 0.0
H364 H 0.18753 0.05939 0.76689 0.0
H365 H 0.15657 0.92172 0.60871 0.0
H366 H 0.20352 0.01309 0.64617 0.0
H367 H 0.15325 0.96241 0.74169 0.0
C368 C 0.15371 0.99987 0.78382 0.0
C369 C 0.1626 0.02771 0.79112 0.0
C370 C 0.19397 0.99268 0.63875 0.0
C371 C 0.17719 0.99517 0.71744 0.0
C372 C 0.19198 0.98013 0.59213 0.0
C373 C 0.17791 0.95466 0.58016 0.0
C374 C 0.18132 0.97979 0.67306 0.0
C375 C 0.1679 0.94122 0.61705 0.0
C376 C 0.16106 0.98357 0.74742 0.0
C377 C 0.17996 0.03813 0.76227 0.0
N378 N 0.16937 0.95417 0.6616 0.0
N379 N 0.18636 0.02198 0.72621 0.0
H380 H 0.16189 0.09057 0.11209 0.0
H381 H 0.1878 0.9477 0.26542 0.0
H382 H 0.19549 0.01702 0.06054 0.0
H383 H 0.14313 0.01829 0.30273 0.0
H384 H 0.20101 0.97596 0.20107 0.0
H385 H 0.16662 0.06821 0.19393 0.0
C386 C 0.17143 0.07015 0.11894 0.0
C387 C 0.17855 0.0556 0.0801 0.0
C388 C 0.18859 0.98531 0.22381 0.0
C389 C 0.18286 0.02939 0.17229 0.0
C390 C 0.18102 0.96918 0.2605 0.0
C391 C 0.1639 0.98046 0.28895 0.0
C392 C 0.17912 0.01295 0.21576 0.0
C393 C 0.15592 0.00851 0.28114 0.0
C394 C 0.17374 0.05719 0.16528 0.0
C395 C 0.19011 0.02892 0.09006 0.0
N396 N 0.1634 0.02367 0.24511 0.0
N397 N 0.19147 0.01643 0.13495 0.0
H398 H 0.80197 0.01417 0.4419 0.0
H399 H 0.85733 0.01587 0.19708 0.0
H400 H 0.84055 0.08529 0.39233 0.0
H401 H 0.8136 0.94581 0.23932 0.0
H402 H 0.84387 0.04414 0.26019 0.0
H403 H 0.79719 0.99206 0.35981 0.0
C404 C 0.80823 0.0256 0.41271 0.0
C405 C 0.8214 0.0516 0.4233 0.0
C406 C 0.83691 0.02269 0.25542 0.0
C407 C 0.8173 0.02611 0.33051 0.0
C408 C 0.84474 0.00643 0.21948 0.0
C409 C 0.83702 0.97824 0.21346 0.0
C410 C 0.82153 0.01067 0.28629 0.0
C411 C 0.82026 0.96737 0.243 0.0
C412 C 0.80589 0.01286 0.36615 0.0
C413 C 0.82996 0.06535 0.38511 0.0
N414 N 0.81343 0.98349 0.27869 0.0
N415 N 0.82824 0.05222 0.34064 0.0
H416 H 0.42821 0.51816 0.03515 0.0
H417 H 0.57201 0.48707 0.96291 0.0
H418 H 0.49652 0.47021 0.12826 0.0
H419 H 0.50398 0.53553 0.87024 0.0
H420 H 0.54401 0.47942 0.02266 0.0
H421 H 0.45609 0.52566 0.97515 0.0
C422 C 0.44923 0.50954 0.04334 0.0
C423 C 0.45992 0.49326 0.0865 0.0
C424 C 0.53512 0.49155 0.98907 0.0
C425 C 0.49179 0.50144 0.01767 0.0
C426 C 0.55102 0.49577 0.95475 0.0
C427 C 0.54046 0.51225 0.91182 0.0
C428 C 0.50845 0.50389 0.98038 0.0
C429 C 0.51302 0.52276 0.9029 0.0
C430 C 0.46507 0.51366 0.00888 0.0
C431 C 0.48739 0.48283 0.09543 0.0
N432 N 0.49806 0.51862 0.93719 0.0
N433 N 0.50229 0.48689 0.06102 0.0
H434 H 0.55782 0.51573 0.42475 0.0
H435 H 0.44328 0.48966 0.57904 0.0
H436 H 0.52705 0.43443 0.45112 0.0
H437 H 0.47501 0.57082 0.5545 0.0
H438 H 0.4744 0.46882 0.53317 0.0
H439 H 0.52677 0.53651 0.47081 0.0
C440 C 0.5443 0.50231 0.4397 0.0
C441 C 0.54504 0.47335 0.43429 0.0
C442 C 0.47463 0.49119 0.53808 0.0
C443 C 0.50988 0.49681 0.48749 0.0
C444 C 0.45704 0.50304 0.56456 0.0
C445 C 0.45653 0.53198 0.5704 0.0
C446 C 0.49176 0.50845 0.5174 0.0
C447 C 0.47463 0.5484 0.55062 0.0
C448 C 0.52675 0.51412 0.46629 0.0
C449 C 0.52724 0.45687 0.45466 0.0
N450 N 0.49142 0.53641 0.5248 0.0
N451 N 0.51047 0.46883 0.48054 0.0
H452 H 0.07227 0.99115 0.96619 0.0
H453 H 0.92956 0.0176 0.04516 0.0
H454 H 0.00434 0.04258 0.88121 0.0
H455 H 0.9972 0.9657 0.12969 0.0
H456 H 0.95739 0.02831 0.9863 0.0
H457 H 0.04476 0.98096 0.02581 0.0
C458 C 0.05142 1.00002 0.95969 0.0
C459 C 0.04071 0.01797 0.91892 0.0
C460 C 0.96623 0.01474 0.01793 0.0
C461 C 0.00926 0.00668 0.98738 0.0
C462 C 0.95043 0.00876 0.05176 0.0
C463 C 0.96093 0.99046 0.09208 0.0
C464 C 0.99274 1.00234 0.02448 0.0
C465 C 0.98821 0.97984 0.09905 0.0
C466 C 0.0358 0.99434 0.99395 0.0
C467 C 0.01347 0.02866 0.91214 0.0
N468 N 0.00308 0.98573 0.06526 0.0
N469 N 0.99878 0.02304 0.9463 0.0
H470 H 0.92839 0.98752 0.53425 0.0
H471 H 0.07272 0.01983 0.46429 0.0
H472 H 0.99619 0.0361 0.62802 0.0
H473 H 0.00542 0.97033 0.37133 0.0
H474 H 0.04426 0.02736 0.5233 0.0
H475 H 0.95668 0.98017 0.47489 0.0
C476 C 0.94939 0.99631 0.54273 0.0
C477 C 0.95981 0.01272 0.58588 0.0
C478 C 0.03563 0.01502 0.48981 0.0
C479 C 0.99214 0.00472 0.51776 0.0
C480 C 0.05179 0.01088 0.4559 0.0
C481 C 0.04157 0.99414 0.41313 0.0
C482 C 0.00905 1.00236 0.48085 0.0
C483 C 0.01419 0.98331 0.4039 0.0
C484 C 0.96545 0.99228 0.50863 0.0
C485 C 0.98726 0.02337 0.59518 0.0
N486 N 0.99898 0.98739 0.43778 0.0
N487 N 0.00238 0.0194 0.56112 0.0
H488 H 0.26131 0.30561 0.123 0.0
H489 H 0.24379 0.20222 0.88779 0.0
H490 H 0.29461 0.32251 0.99609 0.0
H491 H 0.2088 0.18618 0.01299 0.0
H492 H 0.26332 0.24604 0.92758 0.0
H493 H 0.24198 0.26167 0.08347 0.0
C494 C 0.26476 0.29998 0.087 0.0
C495 C 0.28028 0.31747 0.06353 0.0
C496 C 0.25116 0.23304 0.94616 0.0
C497 C 0.25801 0.2673 0.01775 0.0
C498 C 0.24003 0.20802 0.92348 0.0
C499 C 0.22398 0.19082 0.94638 0.0
C500 C 0.24647 0.24084 0.99246 0.0
C501 C 0.22004 0.1992 0.99289 0.0
C502 C 0.25374 0.27489 0.06446 0.0
C503 C 0.28383 0.30927 0.01664 0.0
N504 N 0.23118 0.2236 0.01434 0.0
N505 N 0.27282 0.2848 0.99536 0.0
H506 H 0.71078 0.3217 0.51157 0.0
H507 H 0.79594 0.18259 0.49047 0.0
H508 H 0.74669 0.30451 0.38797 0.0
H509 H 0.76223 0.20117 0.61624 0.0
H510 H 0.77827 0.22705 0.45249 0.0
H511 H 0.72911 0.27754 0.55004 0.0
C512 C 0.72202 0.3084 0.49194 0.0
C513 C 0.72645 0.31644 0.44566 0.0
C514 C 0.77493 0.22154 0.48861 0.0
C515 C 0.74841 0.2661 0.49047 0.0
C516 C 0.78538 0.19624 0.51072 0.0
C517 C 0.78131 0.18845 0.55743 0.0
C518 C 0.76004 0.23914 0.51309 0.0
C519 C 0.76606 0.20646 0.5804 0.0
C520 C 0.73284 0.28329 0.51432 0.0
C521 C 0.74255 0.29896 0.42345 0.0
N522 N 0.75606 0.23097 0.55812 0.0
N523 N 0.75283 0.27456 0.44591 0.0
H524 H 0.79355 0.82093 0.98809 0.0
H525 H 0.7052 0.68333 0.00753 0.0
H526 H 0.75757 0.80393 0.11176 0.0
H527 H 0.73967 0.70096 0.88225 0.0
H528 H 0.72416 0.72733 0.04614 0.0
H529 H 0.7746 0.77691 0.94933 0.0
C530 C 0.78219 0.80771 0.00771 0.0
C531 C 0.77785 0.81582 0.05404 0.0
C532 C 0.7274 0.72172 0.01 0.0
C533 C 0.75517 0.76566 0.00885 0.0
C534 C 0.7162 0.69669 0.98751 0.0
C535 C 0.72009 0.68877 0.94075 0.0
C536 C 0.74286 0.73892 0.98585 0.0
C537 C 0.73594 0.70637 0.91811 0.0
C538 C 0.77101 0.78268 0.98514 0.0
C539 C 0.76163 0.79838 0.07622 0.0
N540 N 0.74666 0.73065 0.94075 0.0
N541 N 0.75098 0.77411 0.05355 0.0
H542 H 0.2402 0.80591 0.38639 0.0
H543 H 0.25296 0.69946 0.61576 0.0
H544 H 0.20516 0.8215 0.51165 0.0
H545 H 0.28933 0.68487 0.49183 0.0
H546 H 0.23425 0.74379 0.57733 0.0
H547 H 0.25814 0.7613 0.42424 0.0
C548 C 0.23608 0.79986 0.42167 0.0
C549 C 0.22049 0.81719 0.44516 0.0
C550 C 0.24653 0.73098 0.55874 0.0
C551 C 0.24115 0.76622 0.48901 0.0
C552 C 0.25716 0.70567 0.58062 0.0
C553 C 0.27343 0.68879 0.55774 0.0
C554 C 0.25193 0.73936 0.51328 0.0
C555 C 0.27796 0.69768 0.51196 0.0
C556 C 0.2463 0.77437 0.44325 0.0
C557 C 0.21604 0.80842 0.49109 0.0
N558 N 0.26731 0.72234 0.4913 0.0
N559 N 0.2263 0.78356 0.51147 0.0
H560 H 0.58338 0.3757 0.23758 0.0
H561 H 0.42264 0.37166 0.24369 0.0
H562 H 0.55557 0.37593 0.37318 0.0
H563 H 0.45204 0.39256 0.11419 0.0
H564 H 0.47047 0.35607 0.28742 0.0
H565 H 0.53526 0.3641 0.18898 0.0
C566 C 0.56742 0.37194 0.25734 0.0
C567 C 0.57334 0.37658 0.30933 0.0
C568 C 0.46622 0.36328 0.24886 0.0
C569 C 0.51821 0.3644 0.25417 0.0
C570 C 0.4389 0.37192 0.22382 0.0
C571 C 0.43357 0.38351 0.1755 0.0
C572 C 0.48812 0.36619 0.22511 0.0
C573 C 0.45543 0.38385 0.15161 0.0
C574 C 0.53987 0.36572 0.22961 0.0
C575 C 0.55176 0.3723 0.33309 0.0
N576 N 0.48178 0.37571 0.17682 0.0
N577 N 0.52504 0.36692 0.30528 0.0
H578 H 0.41691 0.6296 0.76462 0.0
H579 H 0.57749 0.6347 0.75776 0.0
H580 H 0.44446 0.63018 0.62875 0.0
H581 H 0.54843 0.61332 0.8874 0.0
H582 H 0.52956 0.65011 0.71431 0.0
H583 H 0.46501 0.64133 0.81312 0.0
C584 C 0.4328 0.63357 0.74479 0.0
C585 C 0.42681 0.62914 0.69274 0.0
C586 C 0.5339 0.64285 0.75285 0.0
C587 C 0.48195 0.64144 0.74779 0.0
C588 C 0.56128 0.63431 0.77772 0.0
C589 C 0.56675 0.62265 0.826 0.0
C590 C 0.51207 0.63974 0.7767 0.0
C591 C 0.54495 0.62211 0.85002 0.0
C592 C 0.46034 0.63986 0.77247 0.0
C593 C 0.44831 0.63366 0.66889 0.0
N594 N 0.51853 0.63015 0.82495 0.0
N595 N 0.47504 0.6391 0.69664 0.0
H596 H 0.05038 0.89092 0.38845 0.0
H597 H 0.94919 0.88231 0.1195 0.0
H598 H 0.07995 0.87514 0.25726 0.0
H599 H 0.92016 0.87621 0.25344 0.0
H600 H 0.99658 0.86984 0.16867 0.0
H601 H 0.00324 0.87602 0.34191 0.0
C602 C 0.04706 0.88334 0.35022 0.0
C603 C 0.06898 0.88419 0.32656 0.0
C604 C 0.97976 0.87026 0.18722 0.0
C605 C 0.01477 0.86824 0.27217 0.0
C606 C 0.95264 0.87717 0.15901 0.0
C607 C 0.93081 0.88011 0.18252 0.0
C608 C 0.98528 0.86718 0.23969 0.0
C609 C 0.93641 0.87384 0.23391 0.0
C610 C 0.02009 0.87496 0.32351 0.0
C611 C 0.0636 0.87456 0.27687 0.0
N612 N 0.96327 0.86833 0.26109 0.0
N613 N 0.03683 0.86762 0.25085 0.0
H614 H 0.0515 0.12397 0.88508 0.0
H615 H 0.95164 0.11517 0.61532 0.0
H616 H 0.08138 0.13084 0.75213 0.0
H617 H 0.92114 0.13112 0.74545 0.0
H618 H 0.99858 0.13026 0.66252 0.0
H619 H 0.00421 0.1363 0.83527 0.0
C620 C 0.04824 0.12923 0.84565 0.0
C621 C 0.07028 0.12652 0.82259 0.0
C622 C 0.98156 0.13132 0.68053 0.0
C623 C 0.01594 0.13932 0.7647 0.0
C624 C 0.95471 0.12281 0.65346 0.0
C625 C 0.9326 0.12193 0.67665 0.0
C626 C 0.98657 0.13815 0.73177 0.0
C627 C 0.93766 0.1317 0.72621 0.0
C628 C 0.02118 0.13606 0.81709 0.0
C629 C 0.06495 0.13299 0.77132 0.0
N630 N 0.96431 0.13876 0.7526 0.0
N631 N 0.03814 0.13842 0.74376 0.0
loop_
_geom_bond_atom_site_label_1
_geom_bond_atom_site_label_2
_geom_bond_distance
_geom_bond_site_symmetry_2
_ccdc_geom_bond_type
Co0 O3 1.970 . S
Co0 N17 1.989 1_554 S
Co0 O25 1.967 . S
Co0 O32 1.920 . S
Co1 O4 1.966 . S
Co1 N10 2.022 . S
Co1 N18 1.993 1_554 S
Co1 O26 1.941 . S
C2 O3 1.258 . S
C2 O4 1.263 . S
O3 Co0 1.970 . S
O3 C2 1.258 . S
O4 Co1 1.966 . S
O4 C2 1.263 . S
C5 O6 1.235 . S
C5 O32 1.289 . S
O6 C5 1.235 . S
C7 C9 1.400 . S
C7 N10 1.351 . S
C7 C12 1.501 . S
C8 C9 1.387 . S
C8 N11 1.341 . S
C9 C7 1.400 . S
C9 C8 1.387 . S
N10 Co1 2.022 . S
N10 C7 1.351 . S
N10 N11 1.365 . S
N11 C8 1.341 . S
N11 N10 1.365 . S
N11 H31 0.862 . S
C12 C7 1.501 . S
C12 H13 0.961 . S
C12 H14 0.961 . S
C12 H15 0.960 . S
H13 C12 0.961 . S
H14 C12 0.961 . S
H15 C12 0.960 . S
C16 N17 1.342 . S
C16 C20 1.401 . S
C16 C21 1.499 . S
N17 Co0 1.989 1_556 S
N17 C16 1.342 . S
N17 N18 1.388 . S
N18 Co1 1.993 1_556 S
N18 N17 1.388 . S
N18 C19 1.346 . S
C19 N18 1.346 . S
C19 C20 1.396 . S
C19 C29 1.510 . S
C20 C16 1.401 . S
C20 C19 1.396 . S
C21 C16 1.499 . S
C21 H22 0.959 . S
C21 H23 0.960 . S
C21 H24 0.961 . S
H22 C21 0.959 . S
H23 C21 0.960 . S
H24 C21 0.961 . S
O25 Co0 1.967 . S
O25 C33 1.258 . S
O26 Co1 1.941 . S
O26 C33 1.266 . S
H27 C29 0.959 . S
H28 C29 0.961 . S
C29 C19 1.510 . S
C29 H27 0.959 . S
C29 H28 0.961 . S
C29 H30 0.960 . S
H30 C29 0.960 . S
H31 N11 0.862 . S
O32 Co0 1.920 . S
O32 C5 1.289 . S
C33 O25 1.258 . S
C33 O26 1.266 . S
Co34 O37 1.970 . S
Co34 N51 1.989 . S
Co34 O59 1.967 . S
Co34 O66 1.920 . S
Co35 O38 1.966 . S
Co35 N44 2.022 . S
Co35 N52 1.993 . S
Co35 O60 1.941 . S
C36 O37 1.258 . S
C36 O38 1.263 . S
O37 Co34 1.970 . S
O37 C36 1.258 . S
O38 Co35 1.966 . S
O38 C36 1.263 . S
C39 O40 1.235 . S
C39 O66 1.289 . S
O40 C39 1.235 . S
C41 C43 1.400 . S
C41 N44 1.351 . S
C41 C46 1.501 . S
C42 C43 1.387 . S
C42 N45 1.341 . S
C43 C41 1.400 . S
C43 C42 1.387 . S
N44 Co35 2.022 . S
N44 C41 1.351 . S
N44 N45 1.365 . S
N45 C42 1.341 . S
N45 N44 1.365 . S
N45 H65 0.862 . S
C46 C41 1.501 . S
C46 H47 0.961 . S
C46 H48 0.961 . S
C46 H49 0.960 . S
H47 C46 0.961 . S
H48 C46 0.961 . S
H49 C46 0.960 . S
C50 N51 1.342 . S
C50 C54 1.401 . S
C50 C55 1.499 . S
N51 Co34 1.989 . S
N51 C50 1.342 . S
N51 N52 1.388 . S
N52 Co35 1.993 . S
N52 N51 1.388 . S
N52 C53 1.346 . S
C53 N52 1.346 . S
C53 C54 1.396 . S
C53 C63 1.510 . S
C54 C50 1.401 . S
C54 C53 1.396 . S
C55 C50 1.499 . S
C55 H56 0.959 . S
C55 H57 0.960 . S
C55 H58 0.961 . S
H56 C55 0.959 . S
H57 C55 0.960 . S
H58 C55 0.961 . S
O59 Co34 1.967 . S
O59 C67 1.258 . S
O60 Co35 1.941 . S
O60 C67 1.266 . S
H61 C63 0.959 . S
H62 C63 0.961 . S
C63 C53 1.510 . S
C63 H61 0.959 . S
C63 H62 0.961 . S
C63 H64 0.960 . S
H64 C63 0.960 . S
H65 N45 0.862 . S
O66 Co34 1.920 . S
O66 C39 1.289 . S
C67 O59 1.258 . S
C67 O60 1.266 . S
Co68 O71 1.970 . S
Co68 N85 1.989 1_556 S
Co68 O93 1.967 . S
Co68 O100 1.920 . S
Co69 O72 1.966 . S
Co69 N78 2.022 . S
Co69 N86 1.993 1_556 S
Co69 O94 1.941 . S
C70 O71 1.258 . S
C70 O72 1.263 . S
O71 Co68 1.970 . S
O71 C70 1.258 . S
O72 Co69 1.966 . S
O72 C70 1.263 . S
C73 O74 1.235 . S
C73 O100 1.289 . S
O74 C73 1.235 . S
C75 C77 1.400 . S
C75 N78 1.351 . S
C75 C80 1.501 . S
C76 C77 1.387 . S
C76 N79 1.341 . S
C77 C75 1.400 . S
C77 C76 1.387 . S
N78 Co69 2.022 . S
N78 C75 1.351 . S
N78 N79 1.365 . S
N79 C76 1.341 . S
N79 N78 1.365 . S
N79 H99 0.862 . S
C80 C75 1.501 . S
C80 H81 0.961 . S
C80 H82 0.961 . S
C80 H83 0.960 . S
H81 C80 0.961 . S
H82 C80 0.961 . S
H83 C80 0.960 . S
C84 N85 1.342 . S
C84 C88 1.401 . S
C84 C89 1.499 . S
N85 Co68 1.989 1_554 S
N85 C84 1.342 . S
N85 N86 1.388 . S
N86 Co69 1.993 1_554 S
N86 N85 1.388 . S
N86 C87 1.346 . S
C87 N86 1.346 . S
C87 C88 1.396 . S
C87 C97 1.510 . S
C88 C84 1.401 . S
C88 C87 1.396 . S
C89 C84 1.499 . S
C89 H90 0.959 . S
C89 H91 0.960 . S
C89 H92 0.961 . S
H90 C89 0.959 . S
H91 C89 0.960 . S
H92 C89 0.961 . S
O93 Co68 1.967 . S
O93 C101 1.258 . S
O94 Co69 1.941 . S
O94 C101 1.266 . S
H95 C97 0.959 . S
H96 C97 0.961 . S
C97 C87 1.510 . S
C97 H95 0.959 . S
C97 H96 0.961 . S
C97 H98 0.960 . S
H98 C97 0.960 . S
H99 N79 0.862 . S
O100 Co68 1.920 . S
O100 C73 1.289 . S
C101 O93 1.258 . S
C101 O94 1.266 . S
Co102 O105 1.970 . S
Co102 N119 1.989 . S
Co102 O127 1.967 . S
Co102 O134 1.920 . S
Co103 O106 1.966 . S
Co103 N112 2.022 . S
Co103 N120 1.993 . S
Co103 O128 1.941 . S
C104 O105 1.258 . S
C104 O106 1.263 . S
O105 Co102 1.970 . S
O105 C104 1.258 . S
O106 Co103 1.966 . S
O106 C104 1.263 . S
C107 O108 1.235 . S
C107 O134 1.289 . S
O108 C107 1.235 . S
C109 C111 1.400 . S
C109 N112 1.351 . S
C109 C114 1.501 . S
C110 C111 1.387 . S
C110 N113 1.341 . S
C111 C109 1.400 . S
C111 C110 1.387 . S
N112 Co103 2.022 . S
N112 C109 1.351 . S
N112 N113 1.365 . S
N113 C110 1.341 . S
N113 N112 1.365 . S
N113 H133 0.862 . S
C114 C109 1.501 . S
C114 H115 0.961 . S
C114 H116 0.961 . S
C114 H117 0.960 . S
H115 C114 0.961 . S
H116 C114 0.961 . S
H117 C114 0.960 . S
C118 N119 1.342 . S
C118 C122 1.401 . S
C118 C123 1.499 . S
N119 Co102 1.989 . S
N119 C118 1.342 . S
N119 N120 1.388 . S
N120 Co103 1.993 . S
N120 N119 1.388 . S
N120 C121 1.346 . S
C121 N120 1.346 . S
C121 C122 1.396 . S
C121 C131 1.510 . S
C122 C118 1.401 . S
C122 C121 1.396 . S
C123 C118 1.499 . S
C123 H124 0.959 . S
C123 H125 0.960 . S
C123 H126 0.961 . S
H124 C123 0.959 . S
H125 C123 0.960 . S
H126 C123 0.961 . S
O127 Co102 1.967 . S
O127 C135 1.258 . S
O128 Co103 1.941 . S
O128 C135 1.266 . S
H129 C131 0.959 . S
H130 C131 0.961 . S
C131 C121 1.510 . S
C131 H129 0.959 . S
C131 H130 0.961 . S
C131 H132 0.960 . S
H132 C131 0.960 . S
H133 N113 0.862 . S
O134 Co102 1.920 . S
O134 C107 1.289 . S
C135 O127 1.258 . S
C135 O128 1.266 . S
Co136 O139 1.970 . S
Co136 N153 1.989 1_554 S
Co136 O161 1.967 . S
Co136 O168 1.920 . S
Co137 O140 1.966 . S
Co137 N146 2.022 . S
Co137 N154 1.993 1_554 S
Co137 O162 1.941 . S
C138 O139 1.258 . S
C138 O140 1.263 . S
O139 Co136 1.970 . S
O139 C138 1.258 . S
O140 Co137 1.966 . S
O140 C138 1.263 . S
C141 O142 1.235 . S
C141 O168 1.289 . S
O142 C141 1.235 . S
C143 C145 1.400 . S
C143 N146 1.351 . S
C143 C148 1.501 . S
C144 C145 1.387 . S
C144 N147 1.341 . S
C145 C143 1.400 . S
C145 C144 1.387 . S
N146 Co137 2.022 . S
N146 C143 1.351 . S
N146 N147 1.365 . S
N147 C144 1.341 . S
N147 N146 1.365 . S
N147 H167 0.862 . S
C148 C143 1.501 . S
C148 H149 0.961 . S
C148 H150 0.961 . S
C148 H151 0.960 . S
H149 C148 0.961 . S
H150 C148 0.961 . S
H151 C148 0.960 . S
C152 N153 1.342 . S
C152 C156 1.401 . S
C152 C157 1.499 . S
N153 Co136 1.989 1_556 S
N153 C152 1.342 . S
N153 N154 1.388 . S
N154 Co137 1.993 1_556 S
N154 N153 1.388 . S
N154 C155 1.346 . S
C155 N154 1.346 . S
C155 C156 1.396 . S
C155 C165 1.510 . S
C156 C152 1.401 . S
C156 C155 1.396 . S
C157 C152 1.499 . S
C157 H158 0.959 . S
C157 H159 0.960 . S
C157 H160 0.961 . S
H158 C157 0.959 . S
H159 C157 0.960 . S
H160 C157 0.961 . S
O161 Co136 1.967 . S
O161 C169 1.258 . S
O162 Co137 1.941 . S
O162 C169 1.266 . S
H163 C165 0.959 . S
H164 C165 0.961 . S
C165 C155 1.510 . S
C165 H163 0.959 . S
C165 H164 0.961 . S
C165 H166 0.960 . S
H166 C165 0.960 . S
H167 N147 0.862 . S
O168 Co136 1.920 . S
O168 C141 1.289 . S
C169 O161 1.258 . S
C169 O162 1.266 . S
Co170 O173 1.970 . S
Co170 N187 1.989 . S
Co170 O195 1.967 . S
Co170 O202 1.920 . S
Co171 O174 1.966 . S
Co171 N180 2.022 . S
Co171 N188 1.993 . S
Co171 O196 1.941 . S
C172 O173 1.258 . S
C172 O174 1.263 . S
O173 Co170 1.970 . S
O173 C172 1.258 . S
O174 Co171 1.966 . S
O174 C172 1.263 . S
C175 O176 1.235 . S
C175 O202 1.289 . S
O176 C175 1.235 . S
C177 C179 1.400 . S
C177 N180 1.351 . S
C177 C182 1.501 . S
C178 C179 1.387 . S
C178 N181 1.341 . S
C179 C177 1.400 . S
C179 C178 1.387 . S
N180 Co171 2.022 . S
N180 C177 1.351 . S
N180 N181 1.365 . S
N181 C178 1.341 . S
N181 N180 1.365 . S
N181 H201 0.862 . S
C182 C177 1.501 . S
C182 H183 0.961 . S
C182 H184 0.961 . S
C182 H185 0.960 . S
H183 C182 0.961 . S
H184 C182 0.961 . S
H185 C182 0.960 . S
C186 N187 1.342 . S
C186 C190 1.401 . S
C186 C191 1.499 . S
N187 Co170 1.989 . S
N187 C186 1.342 . S
N187 N188 1.388 . S
N188 Co171 1.993 . S
N188 N187 1.388 . S
N188 C189 1.346 . S
C189 N188 1.346 . S
C189 C190 1.396 . S
C189 C199 1.510 . S
C190 C186 1.401 . S
C190 C189 1.396 . S
C191 C186 1.499 . S
C191 H192 0.959 . S
C191 H193 0.960 . S
C191 H194 0.961 . S
H192 C191 0.959 . S
H193 C191 0.960 . S
H194 C191 0.961 . S
O195 Co170 1.967 . S
O195 C203 1.258 . S
O196 Co171 1.941 . S
O196 C203 1.266 . S
H197 C199 0.959 . S
H198 C199 0.961 . S
C199 C189 1.510 . S
C199 H197 0.959 . S
C199 H198 0.961 . S
C199 H200 0.960 . S
H200 C199 0.960 . S
H201 N181 0.862 . S
O202 Co170 1.920 . S
O202 C175 1.289 . S
C203 O195 1.258 . S
C203 O196 1.266 . S
Co204 O207 1.970 . S
Co204 N221 1.989 1_556 S
Co204 O229 1.967 . S
Co204 O236 1.920 . S
Co205 O208 1.966 . S
Co205 N214 2.022 . S
Co205 N222 1.993 1_556 S
Co205 O230 1.941 . S
C206 O207 1.258 . S
C206 O208 1.263 . S
O207 Co204 1.970 . S
O207 C206 1.258 . S
O208 Co205 1.966 . S
O208 C206 1.263 . S
C209 O210 1.235 . S
C209 O236 1.289 . S
O210 C209 1.235 . S
C211 C213 1.400 . S
C211 N214 1.351 . S
C211 C216 1.501 . S
C212 C213 1.387 . S
C212 N215 1.341 . S
C213 C211 1.400 . S
C213 C212 1.387 . S
N214 Co205 2.022 . S
N214 C211 1.351 . S
N214 N215 1.365 . S
N215 C212 1.341 . S
N215 N214 1.365 . S
N215 H235 0.862 . S
C216 C211 1.501 . S
C216 H217 0.961 . S
C216 H218 0.961 . S
C216 H219 0.960 . S
H217 C216 0.961 . S
H218 C216 0.961 . S
H219 C216 0.960 . S
C220 N221 1.342 . S
C220 C224 1.401 . S
C220 C225 1.499 . S
N221 Co204 1.989 1_554 S
N221 C220 1.342 . S
N221 N222 1.388 . S
N222 Co205 1.993 1_554 S
N222 N221 1.388 . S
N222 C223 1.346 . S
C223 N222 1.346 . S
C223 C224 1.396 . S
C223 C233 1.510 . S
C224 C220 1.401 . S
C224 C223 1.396 . S
C225 C220 1.499 . S
C225 H226 0.959 . S
C225 H227 0.960 . S
C225 H228 0.961 . S
H226 C225 0.959 . S
H227 C225 0.960 . S
H228 C225 0.961 . S
O229 Co204 1.967 . S
O229 C237 1.258 . S
O230 Co205 1.941 . S
O230 C237 1.266 . S
H231 C233 0.959 . S
H232 C233 0.961 . S
C233 C223 1.510 . S
C233 H231 0.959 . S
C233 H232 0.961 . S
C233 H234 0.960 . S
H234 C233 0.960 . S
H235 N215 0.862 . S
O236 Co204 1.920 . S
O236 C209 1.289 . S
C237 O229 1.258 . S
C237 O230 1.266 . S
Co238 O241 1.970 . S
Co238 N255 1.989 . S
Co238 O263 1.967 . S
Co238 O270 1.920 . S
Co239 O242 1.966 . S
Co239 N248 2.022 . S
Co239 N256 1.993 . S
Co239 O264 1.941 . S
C240 O241 1.258 . S
C240 O242 1.263 . S
O241 Co238 1.970 . S
O241 C240 1.258 . S
O242 Co239 1.966 . S
O242 C240 1.263 . S
C243 O244 1.235 . S
C243 O270 1.289 . S
O244 C243 1.235 . S
C245 C247 1.400 . S
C245 N248 1.351 . S
C245 C250 1.501 . S
C246 C247 1.387 . S
C246 N249 1.341 . S
C247 C245 1.400 . S
C247 C246 1.387 . S
N248 Co239 2.022 . S
N248 C245 1.351 . S
N248 N249 1.365 . S
N249 C246 1.341 . S
N249 N248 1.365 . S
N249 H269 0.862 . S
C250 C245 1.501 . S
C250 H251 0.961 . S
C250 H252 0.961 . S
C250 H253 0.960 . S
H251 C250 0.961 . S
H252 C250 0.961 . S
H253 C250 0.960 . S
C254 N255 1.342 . S
C254 C258 1.401 . S
C254 C259 1.499 . S
N255 Co238 1.989 . S
N255 C254 1.342 . S
N255 N256 1.388 . S
N256 Co239 1.993 . S
N256 N255 1.388 . S
N256 C257 1.346 . S
C257 N256 1.346 . S
C257 C258 1.396 . S
C257 C267 1.510 . S
C258 C254 1.401 . S
C258 C257 1.396 . S
C259 C254 1.499 . S
C259 H260 0.959 . S
C259 H261 0.960 . S
C259 H262 0.961 . S
H260 C259 0.959 . S
H261 C259 0.960 . S
H262 C259 0.961 . S
O263 Co238 1.967 . S
O263 C271 1.258 . S
O264 Co239 1.941 . S
O264 C271 1.266 . S
H265 C267 0.959 . S
H266 C267 0.961 . S
C267 C257 1.510 . S
C267 H265 0.959 . S
C267 H266 0.961 . S
C267 H268 0.960 . S
H268 C267 0.960 . S
H269 N249 0.862 . S
O270 Co238 1.920 . S
O270 C243 1.289 . S
C271 O263 1.258 . S
C271 O264 1.266 . S
H272 C278 0.930 . S
H273 C282 0.930 . S
H274 C287 0.929 . S
H275 C285 0.929 . S
H276 C280 0.929 . S
H277 C286 0.929 . S
C278 H272 0.930 . S
C278 C279 1.367 . S
C278 C286 1.378 . S
C279 C278 1.367 . S
C279 C287 1.433 . S
C280 H276 0.929 . S
C280 C282 1.378 . S
C280 C284 1.350 . S
C281 C284 1.463 . S
C281 C286 1.350 . S
C281 N289 1.427 . S
C282 H273 0.930 . S
C282 C280 1.378 . S
C282 C283 1.367 . S
C283 C282 1.367 . S
C283 C285 1.433 . S
C284 C280 1.350 . S
C284 C281 1.463 . S
C284 N288 1.427 . S
C285 H275 0.929 . S
C285 C283 1.433 . S
C285 N288 1.384 . S
C286 H277 0.929 . S
C286 C278 1.378 . S
C286 C281 1.350 . S
C287 H274 0.929 . S
C287 C279 1.433 . S
C287 N289 1.384 . S
N288 C284 1.427 . S
N288 C285 1.384 . S
N289 C281 1.427 . S
N289 C287 1.384 . S
H290 C296 0.930 . S
H291 C300 0.930 . S
H292 C305 0.929 . S
H293 C303 0.929 . S
H294 C298 0.929 . S
H295 C304 0.929 . S
C296 H290 0.930 . S
C296 C297 1.367 . S
C296 C304 1.378 . S
C297 C296 1.367 . S
C297 C305 1.433 . S
C298 H294 0.929 . S
C298 C300 1.378 . S
C298 C302 1.350 . S
C299 C302 1.463 . S
C299 C304 1.350 . S
C299 N307 1.427 . S
C300 H291 0.930 . S
C300 C298 1.378 . S
C300 C301 1.367 . S
C301 C300 1.367 . S
C301 C303 1.433 . S
C302 C298 1.350 . S
C302 C299 1.463 . S
C302 N306 1.427 . S
C303 H293 0.929 . S
C303 C301 1.433 . S
C303 N306 1.384 . S
C304 H295 0.929 . S
C304 C296 1.378 . S
C304 C299 1.350 . S
C305 H292 0.929 . S
C305 C297 1.433 . S
C305 N307 1.384 . S
N306 C302 1.427 . S
N306 C303 1.384 . S
N307 C299 1.427 . S
N307 C305 1.384 . S
H308 C314 0.930 . S
H309 C318 0.930 . S
H310 C323 0.929 . S
H311 C321 0.929 . S
H312 C316 0.929 . S
H313 C322 0.929 . S
C314 H308 0.930 . S
C314 C315 1.367 . S
C314 C322 1.378 . S
C315 C314 1.367 . S
C315 C323 1.433 . S
C316 H312 0.929 . S
C316 C318 1.378 . S
C316 C320 1.350 . S
C317 C320 1.463 . S
C317 C322 1.350 . S
C317 N325 1.427 . S
C318 H309 0.930 . S
C318 C316 1.378 . S
C318 C319 1.367 . S
C319 C318 1.367 . S
C319 C321 1.433 . S
C320 C316 1.350 . S
C320 C317 1.463 . S
C320 N324 1.427 . S
C321 H311 0.929 . S
C321 C319 1.433 . S
C321 N324 1.384 . S
C322 H313 0.929 . S
C322 C314 1.378 . S
C322 C317 1.350 . S
C323 H310 0.929 . S
C323 C315 1.433 . S
C323 N325 1.384 . S
N324 C320 1.427 . S
N324 C321 1.384 . S
N325 C317 1.427 . S
N325 C323 1.384 . S
H326 C332 0.930 . S
H327 C336 0.930 . S
H328 C341 0.929 . S
H329 C339 0.929 . S
H330 C334 0.929 . S
H331 C340 0.929 . S
C332 H326 0.930 . S
C332 C333 1.367 . S
C332 C340 1.378 . S
C333 C332 1.367 . S
C333 C341 1.433 . S
C334 H330 0.929 . S
C334 C336 1.378 . S
C334 C338 1.350 . S
C335 C338 1.463 . S
C335 C340 1.350 . S
C335 N343 1.427 . S
C336 H327 0.930 . S
C336 C334 1.378 . S
C336 C337 1.367 . S
C337 C336 1.367 . S
C337 C339 1.433 . S
C338 C334 1.350 . S
C338 C335 1.463 . S
C338 N342 1.427 . S
C339 H329 0.929 . S
C339 C337 1.433 . S
C339 N342 1.384 . S
C340 H331 0.929 . S
C340 C332 1.378 . S
C340 C335 1.350 . S
C341 H328 0.929 . S
C341 C333 1.433 . S
C341 N343 1.384 . S
N342 C338 1.427 . S
N342 C339 1.384 . S
N343 C335 1.427 . S
N343 C341 1.384 . S
H344 C350 0.930 . S
H345 C354 0.930 . S
H346 C359 0.929 . S
H347 C357 0.929 . S
H348 C352 0.929 . S
H349 C358 0.929 . S
C350 H344 0.930 . S
C350 C351 1.367 . S
C350 C358 1.378 . S
C351 C350 1.367 . S
C351 C359 1.433 . S
C352 H348 0.929 . S
C352 C354 1.378 1_565 S
C352 C356 1.350 . S
C353 C356 1.463 . S
C353 C358 1.350 . S
C353 N361 1.427 . S
C354 H345 0.930 . S
C354 C352 1.378 1_545 S
C354 C355 1.367 . S
C355 C354 1.367 . S
C355 C357 1.433 . S
C356 C352 1.350 . S
C356 C353 1.463 . S
C356 N360 1.427 1_565 S
C357 H347 0.929 . S
C357 C355 1.433 . S
C357 N360 1.384 . S
C358 H349 0.929 . S
C358 C350 1.378 . S
C358 C353 1.350 . S
C359 H346 0.929 . S
C359 C351 1.433 . S
C359 N361 1.384 . S
N360 C356 1.427 1_545 S
N360 C357 1.384 . S
N361 C353 1.427 . S
N361 C359 1.384 . S
H362 C368 0.930 . S
H363 C372 0.930 . S
H364 C377 0.929 . S
H365 C375 0.929 . S
H366 C370 0.929 1_545 S
H367 C376 0.929 . S
C368 H362 0.930 . S
C368 C369 1.367 1_565 S
C368 C376 1.378 . S
C369 C368 1.367 1_545 S
C369 C377 1.433 . S
C370 H366 0.929 1_565 S
C370 C372 1.378 . S
C370 C374 1.350 . S
C371 C374 1.463 . S
C371 C376 1.350 . S
C371 N379 1.427 1_565 S
C372 H363 0.930 . S
C372 C370 1.378 . S
C372 C373 1.367 . S
C373 C372 1.367 . S
C373 C375 1.433 . S
C374 C370 1.350 . S
C374 C371 1.463 . S
C374 N378 1.427 . S
C375 H365 0.929 . S
C375 C373 1.433 . S
C375 N378 1.384 . S
C376 H367 0.929 . S
C376 C368 1.378 . S
C376 C371 1.350 . S
C377 H364 0.929 . S
C377 C369 1.433 . S
C377 N379 1.384 . S
N378 C374 1.427 . S
N378 C375 1.384 . S
N379 C371 1.427 1_545 S
N379 C377 1.384 . S
H380 C386 0.930 . S
H381 C390 0.930 . S
H382 C395 0.929 . S
H383 C393 0.929 . S
H384 C388 0.929 . S
H385 C394 0.929 . S
C386 H380 0.930 . S
C386 C387 1.367 . S
C386 C394 1.378 . S
C387 C386 1.367 . S
C387 C395 1.433 . S
C388 H384 0.929 . S
C388 C390 1.378 . S
C388 C392 1.350 1_565 S
C389 C392 1.463 . S
C389 C394 1.350 . S
C389 N397 1.427 . S
C390 H381 0.930 . S
C390 C388 1.378 . S
C390 C391 1.367 . S
C391 C390 1.367 . S
C391 C393 1.433 1_565 S
C392 C388 1.350 1_545 S
C392 C389 1.463 . S
C392 N396 1.427 . S
C393 H383 0.929 . S
C393 C391 1.433 1_545 S
C393 N396 1.384 . S
C394 H385 0.929 . S
C394 C386 1.378 . S
C394 C389 1.350 . S
C395 H382 0.929 . S
C395 C387 1.433 . S
C395 N397 1.384 . S
N396 C392 1.427 . S
N396 C393 1.384 . S
N397 C389 1.427 . S
N397 C395 1.384 . S
H398 C404 0.930 . S
H399 C408 0.930 . S
H400 C413 0.929 . S
H401 C411 0.929 . S
H402 C406 0.929 . S
H403 C412 0.929 . S
C404 H398 0.930 . S
C404 C405 1.367 . S
C404 C412 1.378 . S
C405 C404 1.367 . S
C405 C413 1.433 . S
C406 H402 0.929 . S
C406 C408 1.378 1_545 S
C406 C410 1.350 . S
C407 C410 1.463 . S
C407 C412 1.350 . S
C407 N415 1.427 . S
C408 H399 0.930 . S
C408 C406 1.378 1_565 S
C408 C409 1.367 . S
C409 C408 1.367 . S
C409 C411 1.433 . S
C410 C406 1.350 . S
C410 C407 1.463 . S
C410 N414 1.427 1_545 S
C411 H401 0.929 . S
C411 C409 1.433 . S
C411 N414 1.384 . S
C412 H403 0.929 . S
C412 C404 1.378 . S
C412 C407 1.350 . S
C413 H400 0.929 . S
C413 C405 1.433 . S
C413 N415 1.384 . S
N414 C410 1.427 1_565 S
N414 C411 1.384 . S
N415 C407 1.427 . S
N415 C413 1.384 . S
H416 C422 0.930 . S
H417 C426 0.930 . S
H418 C431 0.929 . S
H419 C429 0.929 . S
H420 C424 0.929 . S
H421 C430 0.929 . S
C422 H416 0.930 . S
C422 C423 1.367 1_556 S
C422 C430 1.378 . S
C423 C422 1.367 1_554 S
C423 C431 1.433 . S
C424 H420 0.929 . S
C424 C426 1.378 . S
C424 C428 1.350 1_554 S
C425 C428 1.463 1_554 S
C425 C430 1.350 1_554 S
C425 N433 1.427 . S
C426 H417 0.930 . S
C426 C424 1.378 . S
C426 C427 1.367 1_554 S
C427 C426 1.367 1_556 S
C427 C429 1.433 . S
C428 C424 1.350 1_556 S
C428 C425 1.463 1_556 S
C428 N432 1.427 . S
C429 H419 0.929 . S
C429 C427 1.433 . S
C429 N432 1.384 . S
C430 H421 0.929 . S
C430 C422 1.378 . S
C430 C425 1.350 1_556 S
C431 H418 0.929 . S
C431 C423 1.433 . S
C431 N433 1.384 . S
N432 C428 1.427 . S
N432 C429 1.384 . S
N433 C425 1.427 . S
N433 C431 1.384 . S
H434 C440 0.930 . S
H435 C444 0.930 . S
H436 C449 0.929 . S
H437 C447 0.929 . S
H438 C442 0.929 . S
H439 C448 0.929 . S
C440 H434 0.930 . S
C440 C441 1.367 . S
C440 C448 1.378 . S
C441 C440 1.367 . S
C441 C449 1.433 . S
C442 H438 0.929 . S
C442 C444 1.378 . S
C442 C446 1.350 . S
C443 C446 1.463 . S
C443 C448 1.350 . S
C443 N451 1.427 . S
C444 H435 0.930 . S
C444 C442 1.378 . S
C444 C445 1.367 . S
C445 C444 1.367 . S
C445 C447 1.433 . S
C446 C442 1.350 . S
C446 C443 1.463 . S
C446 N450 1.427 . S
C447 H437 0.929 . S
C447 C445 1.433 . S
C447 N450 1.384 . S
C448 H439 0.929 . S
C448 C440 1.378 . S
C448 C443 1.350 . S
C449 H436 0.929 . S
C449 C441 1.433 . S
C449 N451 1.384 . S
N450 C446 1.427 . S
N450 C447 1.384 . S
N451 C443 1.427 . S
N451 C449 1.384 . S
H452 C458 0.930 1_554 S
H453 C462 0.930 1_556 S
H454 C467 0.929 . S
H455 C465 0.929 . S
H456 C460 0.929 . S
H457 C466 0.929 . S
C458 H452 0.930 1_556 S
C458 C459 1.367 1_565 S
C458 C466 1.378 1_556 S
C459 C458 1.367 1_545 S
C459 C467 1.433 . S
C460 H456 0.929 . S
C460 C462 1.378 1_556 S
C460 C464 1.339 1_546 S
C461 C464 1.462 1_446 S
C461 C466 1.339 1_546 S
C461 N469 1.439 . S
C462 H453 0.930 1_554 S
C462 C460 1.378 1_554 S
C462 C463 1.367 1_545 S
C463 C462 1.367 1_565 S
C463 C465 1.433 . S
C464 C460 1.339 1_564 S
C464 C461 1.462 1_664 S
C464 N468 1.439 . S
C465 H455 0.929 . S
C465 C463 1.433 . S
C465 N468 1.384 . S
C466 H457 0.929 . S
C466 C458 1.378 1_554 S
C466 C461 1.339 1_564 S
C467 H454 0.929 . S
C467 C459 1.433 . S
C467 N469 1.384 . S
N468 C464 1.439 . S
N468 C465 1.384 . S
N469 C461 1.439 . S
N469 C467 1.384 . S
H470 C476 0.930 . S
H471 C480 0.930 . S
H472 C485 0.929 . S
H473 C483 0.929 . S
H474 C478 0.929 . S
H475 C484 0.929 . S
C476 H470 0.930 . S
C476 C477 1.367 . S
C476 C484 1.378 . S
C477 C476 1.367 . S
C477 C485 1.433 1_545 S
C478 H474 0.929 . S
C478 C480 1.378 . S
C478 C482 1.350 . S
C479 C482 1.463 1_645 S
C479 C484 1.350 . S
C479 N487 1.427 1_545 S
C480 H471 0.930 . S
C480 C478 1.378 . S
C480 C481 1.367 . S
C481 C480 1.367 . S
C481 C483 1.433 1_565 S
C482 C478 1.350 . S
C482 C479 1.463 1_465 S
C482 N486 1.427 1_565 S
C483 H473 0.929 . S
C483 C481 1.433 1_545 S
C483 N486 1.384 . S
C484 H475 0.929 . S
C484 C476 1.378 . S
C484 C479 1.350 . S
C485 H472 0.929 . S
C485 C477 1.433 1_565 S
C485 N487 1.384 . S
N486 C482 1.427 1_545 S
N486 C483 1.384 . S
N487 C479 1.427 1_565 S
N487 C485 1.384 . S
H488 C494 0.930 . S
H489 C498 0.930 . S
H490 C503 0.929 . S
H491 C501 0.929 . S
H492 C496 0.929 . S
H493 C502 0.929 . S
C494 H488 0.930 . S
C494 C495 1.367 . S
C494 C502 1.378 . S
C495 C494 1.367 . S
C495 C503 1.433 1_554 S
C496 H492 0.929 . S
C496 C498 1.378 . S
C496 C500 1.350 . S
C497 C500 1.463 1_554 S
C497 C502 1.350 . S
C497 N505 1.427 1_554 S
C498 H489 0.930 . S
C498 C496 1.378 . S
C498 C499 1.367 . S
C499 C498 1.367 . S
C499 C501 1.433 1_556 S
C500 C496 1.350 . S
C500 C497 1.463 1_556 S
C500 N504 1.427 1_556 S
C501 H491 0.929 . S
C501 C499 1.433 1_554 S
C501 N504 1.384 . S
C502 H493 0.929 . S
C502 C494 1.378 . S
C502 C497 1.350 . S
C503 H490 0.929 . S
C503 C495 1.433 1_556 S
C503 N505 1.384 . S
N504 C500 1.427 1_554 S
N504 C501 1.384 . S
N505 C497 1.427 1_556 S
N505 C503 1.384 . S
H506 C512 0.930 . S
H507 C516 0.930 . S
H508 C521 0.929 . S
H509 C519 0.929 . S
H510 C514 0.929 . S
H511 C520 0.929 . S
C512 H506 0.930 . S
C512 C513 1.367 . S
C512 C520 1.378 . S
C513 C512 1.367 . S
C513 C521 1.433 . S
C514 H510 0.929 . S
C514 C516 1.378 . S
C514 C518 1.350 . S
C515 C518 1.463 . S
C515 C520 1.350 . S
C515 N523 1.427 . S
C516 H507 0.930 . S
C516 C514 1.378 . S
C516 C517 1.367 . S
C517 C516 1.367 . S
C517 C519 1.433 . S
C518 C514 1.350 . S
C518 C515 1.463 . S
C518 N522 1.427 . S
C519 H509 0.929 . S
C519 C517 1.433 . S
C519 N522 1.384 . S
C520 H511 0.929 . S
C520 C512 1.378 . S
C520 C515 1.350 . S
C521 H508 0.929 . S
C521 C513 1.433 . S
C521 N523 1.384 . S
N522 C518 1.427 . S
N522 C519 1.384 . S
N523 C515 1.427 . S
N523 C521 1.384 . S
H524 C530 0.930 . S
H525 C534 0.930 . S
H526 C539 0.929 . S
H527 C537 0.929 . S
H528 C532 0.930 . S
H529 C538 0.930 . S
C530 H524 0.930 . S
C530 C531 1.367 . S
C530 C538 1.378 . S
C531 C530 1.367 . S
C531 C539 1.433 . S
C532 H528 0.930 . S
C532 C534 1.378 . S
C532 C536 1.350 . S
C533 C536 1.463 1_554 S
C533 C538 1.350 . S
C533 N541 1.427 . S
C534 H525 0.930 . S
C534 C532 1.378 . S
C534 C535 1.367 . S
C535 C534 1.367 . S
C535 C537 1.433 . S
C536 C532 1.350 . S
C536 C533 1.463 1_556 S
C536 N540 1.427 . S
C537 H527 0.929 . S
C537 C535 1.433 . S
C537 N540 1.384 . S
C538 H529 0.930 . S
C538 C530 1.378 . S
C538 C533 1.350 . S
C539 H526 0.929 . S
C539 C531 1.433 . S
C539 N541 1.384 . S
N540 C536 1.427 . S
N540 C537 1.384 . S
N541 C533 1.427 . S
N541 C539 1.384 . S
H542 C548 0.930 . S
H543 C552 0.930 . S
H544 C557 0.929 . S
H545 C555 0.929 . S
H546 C550 0.929 . S
H547 C556 0.929 . S
C548 H542 0.930 . S
C548 C549 1.367 . S
C548 C556 1.378 . S
C549 C548 1.367 . S
C549 C557 1.433 . S
C550 H546 0.929 . S
C550 C552 1.378 . S
C550 C554 1.350 . S
C551 C554 1.463 . S
C551 C556 1.350 . S
C551 N559 1.427 . S
C552 H543 0.930 . S
C552 C550 1.378 . S
C552 C553 1.367 . S
C553 C552 1.367 . S
C553 C555 1.433 . S
C554 C550 1.350 . S
C554 C551 1.463 . S
C554 N558 1.427 . S
C555 H545 0.929 . S
C555 C553 1.433 . S
C555 N558 1.384 . S
C556 H547 0.929 . S
C556 C548 1.378 . S
C556 C551 1.350 . S
C557 H544 0.929 . S
C557 C549 1.433 . S
C557 N559 1.384 . S
N558 C554 1.427 . S
N558 C555 1.384 . S
N559 C551 1.427 . S
N559 C557 1.384 . S
H560 C566 0.930 . S
H561 C570 0.930 . S
H562 C575 0.929 . S
H563 C573 0.929 . S
H564 C568 0.929 . S
H565 C574 0.929 . S
C566 H560 0.930 . S
C566 C567 1.367 . S
C566 C574 1.378 . S
C567 C566 1.367 . S
C567 C575 1.433 . S
C568 H564 0.929 . S
C568 C570 1.378 . S
C568 C572 1.350 . S
C569 C572 1.463 . S
C569 C574 1.350 . S
C569 N577 1.427 . S
C570 H561 0.930 . S
C570 C568 1.378 . S
C570 C571 1.367 . S
C571 C570 1.367 . S
C571 C573 1.433 . S
C572 C568 1.350 . S
C572 C569 1.463 . S
C572 N576 1.427 . S
C573 H563 0.929 . S
C573 C571 1.433 . S
C573 N576 1.384 . S
C574 H565 0.929 . S
C574 C566 1.378 . S
C574 C569 1.350 . S
C575 H562 0.929 . S
C575 C567 1.433 . S
C575 N577 1.384 . S
N576 C572 1.427 . S
N576 C573 1.384 . S
N577 C569 1.427 . S
N577 C575 1.384 . S
H578 C584 0.930 . S
H579 C588 0.930 . S
H580 C593 0.929 . S
H581 C591 0.929 . S
H582 C586 0.929 . S
H583 C592 0.929 . S
C584 H578 0.930 . S
C584 C585 1.367 . S
C584 C592 1.378 . S
C585 C584 1.367 . S
C585 C593 1.433 . S
C586 H582 0.929 . S
C586 C588 1.378 . S
C586 C590 1.350 . S
C587 C590 1.463 . S
C587 C592 1.350 . S
C587 N595 1.427 . S
C588 H579 0.930 . S
C588 C586 1.378 . S
C588 C589 1.367 . S
C589 C588 1.367 . S
C589 C591 1.433 . S
C590 C586 1.350 . S
C590 C587 1.463 . S
C590 N594 1.427 . S
C591 H581 0.929 . S
C591 C589 1.433 . S
C591 N594 1.384 . S
C592 H583 0.929 . S
C592 C584 1.378 . S
C592 C587 1.350 . S
C593 H580 0.929 . S
C593 C585 1.433 . S
C593 N595 1.384 . S
N594 C590 1.427 . S
N594 C591 1.384 . S
N595 C587 1.427 . S
N595 C593 1.384 . S
H596 C602 0.930 . S
H597 C606 0.930 . S
H598 C611 0.929 . S
H599 C609 0.929 . S
H600 C604 0.929 1_455 S
H601 C610 0.929 1_655 S
C602 H596 0.930 . S
C602 C603 1.367 . S
C602 C610 1.378 . S
C603 C602 1.367 . S
C603 C611 1.433 . S
C604 H600 0.929 1_655 S
C604 C606 1.378 . S
C604 C608 1.350 . S
C605 C608 1.463 1_455 S
C605 C610 1.350 . S
C605 N613 1.427 . S
C606 H597 0.930 . S
C606 C604 1.378 . S
C606 C607 1.367 . S
C607 C606 1.367 . S
C607 C609 1.433 . S
C608 C604 1.350 . S
C608 C605 1.463 1_655 S
C608 N612 1.427 . S
C609 H599 0.929 . S
C609 C607 1.433 . S
C609 N612 1.384 . S
C610 H601 0.929 1_455 S
C610 C602 1.378 . S
C610 C605 1.350 . S
C611 H598 0.929 . S
C611 C603 1.433 . S
C611 N613 1.384 . S
N612 C608 1.427 . S
N612 C609 1.384 . S
N613 C605 1.427 . S
N613 C611 1.384 . S
H614 C620 0.930 . S
H615 C624 0.930 . S
H616 C629 0.929 . S
H617 C627 0.929 . S
H618 C622 0.962 . S
H619 C628 0.962 . S
C620 H614 0.930 . S
C620 C621 1.367 . S
C620 C628 1.378 . S
C621 C620 1.367 . S
C621 C629 1.433 . S
C622 H618 0.962 . S
C622 C624 1.378 . S
C622 C626 1.350 . S
C623 C626 1.463 1_455 S
C623 C628 1.350 . S
C623 N631 1.427 . S
C624 H615 0.930 . S
C624 C622 1.378 . S
C624 C625 1.367 . S
C625 C624 1.367 . S
C625 C627 1.433 . S
C626 C622 1.350 . S
C626 C623 1.463 1_655 S
C626 N630 1.427 . S
C627 H617 0.929 . S
C627 C625 1.433 . S
C627 N630 1.384 . S
C628 H619 0.962 . S
C628 C620 1.378 . S
C628 C623 1.350 . S
C629 H616 0.929 . S
C629 C621 1.433 . S
C629 N631 1.384 . S
N630 C626 1.427 . S
N630 C627 1.384 . S
N631 C623 1.427 . S
N631 C629 1.384 . S
C279 C135 1.492 . S
C283 C20 1.426 . S
C297 C54 1.411 . S
C301 C101 1.498 . S
C315 C67 1.491 . S
C319 C88 1.428 . S
C333 C33 1.498 . S
C337 C122 1.411 . S
C351 C156 1.411 . S
C355 C271 1.498 . S
C369 C237 1.495 . S
C373 C190 1.420 . S
C387 C224 1.419 . S
C391 C203 1.495 . S
C405 C258 1.426 . S
C409 C169 1.493 . S
C423 C5 0.607 . S
C427 C73 0.607 . S
C441 C39 0.636 . S
C445 C107 0.636 . S
C459 C209 0.627 . S
C463 C141 0.627 . S
C477 C243 0.580 . S
C481 C175 0.580 . S
C495 C9 1.323 . S
C499 C213 1.323 . S
C513 C43 1.333 . S
C517 C247 1.333 . S
C531 C145 1.334 . S
C535 C77 1.334 . S
C549 C179 1.324 . S
C553 C111 1.324 . S
C567 C36 1.891 . S
C571 C2 1.903 . S
C585 C104 1.891 . S
C589 C70 1.903 . S
C603 C172 1.896 . S
C607 C138 1.895 . S
C621 C206 1.892 . S
C625 C240 1.900 . S
