# Generated by pormake.
# Topology wjb, (6)-cn, num edge types: 1
# Building blocks:
#     Node 0, Type 0, BuildingBlock: IZENUY_clean_sbu_0, # of connection points: 6
#     Node 1, Type 0, BuildingBlock: IZENUY_clean_sbu_0, # of connection points: 6
#     Node 2, Type 0, BuildingBlock: IZENUY_clean_sbu_0, # of connection points: 6
#     Node 3, Type 0, BuildingBlock: IZENUY_clean_sbu_0, # of connection points: 6
#     Node 4, Type 0, BuildingBlock: IZENUY_clean_sbu_0, # of connection points: 6
#     Node 5, Type 0, BuildingBlock: IZENUY_clean_sbu_0, # of connection points: 6
#     Node 6, Type 0, BuildingBlock: IZENUY_clean_sbu_0, # of connection points: 6
#     Node 7, Type 0, BuildingBlock: IZENUY_clean_sbu_0, # of connection points: 6
#     Node 8, Type 0, BuildingBlock: IZENUY_clean_sbu_0, # of connection points: 6
#     Node 9, Type 0, BuildingBlock: IZENUY_clean_sbu_0, # of connection points: 6
#     Node 10, Type 0, BuildingBlock: IZENUY_clean_sbu_0, # of connection points: 6
#     Node 11, Type 0, BuildingBlock: IZENUY_clean_sbu_0, # of connection points: 6
#     Node 12, Type 0, BuildingBlock: IZENUY_clean_sbu_0, # of connection points: 6
#     Node 13, Type 0, BuildingBlock: IZENUY_clean_sbu_0, # of connection points: 6
#     Node 14, Type 0, BuildingBlock: IZENUY_clean_sbu_0, # of connection points: 6
#     Node 15, Type 0, BuildingBlock: IZENUY_clean_sbu_0, # of connection points: 6
#     Node 16, Type 0, BuildingBlock: IZENUY_clean_sbu_0, # of connection points: 6
#     Node 17, Type 0, BuildingBlock: IZENUY_clean_sbu_0, # of connection points: 6
#     Node 18, Type 0, BuildingBlock: IZENUY_clean_sbu_0, # of connection points: 6
#     Node 19, Type 0, BuildingBlock: IZENUY_clean_sbu_0, # of connection points: 6
#     Node 20, Type 0, BuildingBlock: IZENUY_clean_sbu_0, # of connection points: 6
#     Node 21, Type 0, BuildingBlock: IZENUY_clean_sbu_0, # of connection points: 6
#     Node 22, Type 0, BuildingBlock: IZENUY_clean_sbu_0, # of connection points: 6
#     Node 23, Type 0, BuildingBlock: IZENUY_clean_sbu_0, # of connection points: 6
#     Edge 24, Type (0, 0), BuildingBlock: AJUNOK_clean_linker_0, # of connection points: 2
#     Edge 25, Type (0, 0), BuildingBlock: AJUNOK_clean_linker_0, # of connection points: 2
#     Edge 26, Type (0, 0), BuildingBlock: AJUNOK_clean_linker_0, # of connection points: 2
#     Edge 27, Type (0, 0), BuildingBlock: AJUNOK_clean_linker_0, # of connection points: 2
#     Edge 28, Type (0, 0), BuildingBlock: AJUNOK_clean_linker_0, # of connection points: 2
#     Edge 29, Type (0, 0), BuildingBlock: AJUNOK_clean_linker_0, # of connection points: 2
#     Edge 30, Type (0, 0), BuildingBlock: AJUNOK_clean_linker_0, # of connection points: 2
#     Edge 31, Type (0, 0), BuildingBlock: AJUNOK_clean_linker_0, # of connection points: 2
#     Edge 32, Type (0, 0), BuildingBlock: AJUNOK_clean_linker_0, # of connection points: 2
#     Edge 33, Type (0, 0), BuildingBlock: AJUNOK_clean_linker_0, # of connection points: 2
#     Edge 34, Type (0, 0), BuildingBlock: AJUNOK_clean_linker_0, # of connection points: 2
#     Edge 35, Type (0, 0), BuildingBlock: AJUNOK_clean_linker_0, # of connection points: 2
#     Edge 36, Type (0, 0), BuildingBlock: AJUNOK_clean_linker_0, # of connection points: 2
#     Edge 37, Type (0, 0), BuildingBlock: AJUNOK_clean_linker_0, # of connection points: 2
#     Edge 38, Type (0, 0), BuildingBlock: AJUNOK_clean_linker_0, # of connection points: 2
#     Edge 39, Type (0, 0), BuildingBlock: AJUNOK_clean_linker_0, # of connection points: 2
#     Edge 40, Type (0, 0), BuildingBlock: AJUNOK_clean_linker_0, # of connection points: 2
#     Edge 41, Type (0, 0), BuildingBlock: AJUNOK_clean_linker_0, # of connection points: 2
#     Edge 42, Type (0, 0), BuildingBlock: AJUNOK_clean_linker_0, # of connection points: 2
#     Edge 43, Type (0, 0), BuildingBlock: AJUNOK_clean_linker_0, # of connection points: 2
#     Edge 44, Type (0, 0), BuildingBlock: AJUNOK_clean_linker_0, # of connection points: 2
#     Edge 45, Type (0, 0), BuildingBlock: AJUNOK_clean_linker_0, # of connection points: 2
#     Edge 46, Type (0, 0), BuildingBlock: AJUNOK_clean_linker_0, # of connection points: 2
#     Edge 47, Type (0, 0), BuildingBlock: AJUNOK_clean_linker_0, # of connection points: 2
#     Edge 48, Type (0, 0), BuildingBlock: AJUNOK_clean_linker_0, # of connection points: 2
#     Edge 49, Type (0, 0), BuildingBlock: AJUNOK_clean_linker_0, # of connection points: 2
#     Edge 50, Type (0, 0), BuildingBlock: AJUNOK_clean_linker_0, # of connection points: 2
#     Edge 51, Type (0, 0), BuildingBlock: AJUNOK_clean_linker_0, # of connection points: 2
#     Edge 52, Type (0, 0), BuildingBlock: AJUNOK_clean_linker_0, # of connection points: 2
#     Edge 53, Type (0, 0), BuildingBlock: AJUNOK_clean_linker_0, # of connection points: 2
#     Edge 54, Type (0, 0), BuildingBlock: AJUNOK_clean_linker_0, # of connection points: 2
#     Edge 55, Type (0, 0), BuildingBlock: AJUNOK_clean_linker_0, # of connection points: 2
#     Edge 56, Type (0, 0), BuildingBlock: AJUNOK_clean_linker_0, # of connection points: 2
#     Edge 57, Type (0, 0), BuildingBlock: AJUNOK_clean_linker_0, # of connection points: 2
#     Edge 58, Type (0, 0), BuildingBlock: AJUNOK_clean_linker_0, # of connection points: 2
#     Edge 59, Type (0, 0), BuildingBlock: AJUNOK_clean_linker_0, # of connection points: 2
#     Edge 60, Type (0, 0), BuildingBlock: AJUNOK_clean_linker_0, # of connection points: 2
#     Edge 61, Type (0, 0), BuildingBlock: AJUNOK_clean_linker_0, # of connection points: 2
#     Edge 62, Type (0, 0), BuildingBlock: AJUNOK_clean_linker_0, # of connection points: 2
#     Edge 63, Type (0, 0), BuildingBlock: AJUNOK_clean_linker_0, # of connection points: 2
#     Edge 64, Type (0, 0), BuildingBlock: AJUNOK_clean_linker_0, # of connection points: 2
#     Edge 65, Type (0, 0), BuildingBlock: AJUNOK_clean_linker_0, # of connection points: 2
#     Edge 66, Type (0, 0), BuildingBlock: AJUNOK_clean_linker_0, # of connection points: 2
#     Edge 67, Type (0, 0), BuildingBlock: AJUNOK_clean_linker_0, # of connection points: 2
#     Edge 68, Type (0, 0), BuildingBlock: AJUNOK_clean_linker_0, # of connection points: 2
#     Edge 69, Type (0, 0), BuildingBlock: AJUNOK_clean_linker_0, # of connection points: 2
#     Edge 70, Type (0, 0), BuildingBlock: AJUNOK_clean_linker_0, # of connection points: 2
#     Edge 71, Type (0, 0), BuildingBlock: AJUNOK_clean_linker_0, # of connection points: 2
#     Edge 72, Type (0, 0), BuildingBlock: AJUNOK_clean_linker_0, # of connection points: 2
#     Edge 73, Type (0, 0), BuildingBlock: AJUNOK_clean_linker_0, # of connection points: 2
#     Edge 74, Type (0, 0), BuildingBlock: AJUNOK_clean_linker_0, # of connection points: 2
#     Edge 75, Type (0, 0), BuildingBlock: AJUNOK_clean_linker_0, # of connection points: 2
#     Edge 76, Type (0, 0), BuildingBlock: AJUNOK_clean_linker_0, # of connection points: 2
#     Edge 77, Type (0, 0), BuildingBlock: AJUNOK_clean_linker_0, # of connection points: 2
#     Edge 78, Type (0, 0), BuildingBlock: AJUNOK_clean_linker_0, # of connection points: 2
#     Edge 79, Type (0, 0), BuildingBlock: AJUNOK_clean_linker_0, # of connection points: 2
#     Edge 80, Type (0, 0), BuildingBlock: AJUNOK_clean_linker_0, # of connection points: 2
#     Edge 81, Type (0, 0), BuildingBlock: AJUNOK_clean_linker_0, # of connection points: 2
#     Edge 82, Type (0, 0), BuildingBlock: AJUNOK_clean_linker_0, # of connection points: 2
#     Edge 83, Type (0, 0), BuildingBlock: AJUNOK_clean_linker_0, # of connection points: 2
#     Edge 84, Type (0, 0), BuildingBlock: AJUNOK_clean_linker_0, # of connection points: 2
#     Edge 85, Type (0, 0), BuildingBlock: AJUNOK_clean_linker_0, # of connection points: 2
#     Edge 86, Type (0, 0), BuildingBlock: AJUNOK_clean_linker_0, # of connection points: 2
#     Edge 87, Type (0, 0), BuildingBlock: AJUNOK_clean_linker_0, # of connection points: 2
#     Edge 88, Type (0, 0), BuildingBlock: AJUNOK_clean_linker_0, # of connection points: 2
#     Edge 89, Type (0, 0), BuildingBlock: AJUNOK_clean_linker_0, # of connection points: 2
#     Edge 90, Type (0, 0), BuildingBlock: AJUNOK_clean_linker_0, # of connection points: 2
#     Edge 91, Type (0, 0), BuildingBlock: AJUNOK_clean_linker_0, # of connection points: 2
#     Edge 92, Type (0, 0), BuildingBlock: AJUNOK_clean_linker_0, # of connection points: 2
#     Edge 93, Type (0, 0), BuildingBlock: AJUNOK_clean_linker_0, # of connection points: 2
#     Edge 94, Type (0, 0), BuildingBlock: AJUNOK_clean_linker_0, # of connection points: 2
#     Edge 95, Type (0, 0), BuildingBlock: AJUNOK_clean_linker_0, # of connection points: 2
# Relax obj value: 0.471
# Max RMSD: 0.193
# Mean RMSD: 0.193
data_MOF--net-wjb--node1-IZENUY_clean_sbu_0--edge1-AJUNOK_clean_linker_0
_symmetry_space_group_name_H-M    P1
_symmetry_Int_Tables_number       1
_symmetry_cell_setting            triclinic
loop_
_symmetry_equiv_pos_as_xyz
'x, y, z'
_cell_length_a     38.68133
_cell_length_b     38.705035
_cell_length_c     40.958755
_cell_angle_alpha  90.024646
_cell_angle_beta   89.988369
_cell_angle_gamma 119.99364
loop_
_atom_site_label
_atom_site_type_symbol
_atom_site_fract_x
_atom_site_fract_y
_atom_site_fract_z
_atom_type_partial_charge
Fe0 Fe 0.1766 0.46871 0.13199 0.0
Fe1 Fe 0.13142 0.5156 0.13784 0.0
O2 O 0.1706 0.50997 0.12135 0.0
Fe3 Fe 0.2038 0.54591 0.0939 0.0
O4 O 0.24678 0.54118 0.1057 0.0
O5 O 0.227 0.50139 0.14819 0.0
O6 O 0.15817 0.46566 0.17421 0.0
C7 C 0.15727 0.49269 0.19128 0.0
C8 C 0.19693 0.48093 0.06404 0.0
O9 O 0.15052 0.51829 0.17836 0.0
C10 C 0.13009 0.53708 0.07498 0.0
O11 O 0.12656 0.43333 0.11672 0.0
O12 O 0.09696 0.46213 0.14158 0.0
O13 O 0.1886 0.5084 0.06254 0.0
O14 O 0.19732 0.46594 0.09159 0.0
C15 C 0.19683 0.59393 0.13841 0.0
O16 O 0.11008 0.51321 0.09752 0.0
O17 O 0.16756 0.55805 0.07692 0.0
C18 C 0.09527 0.43287 0.12646 0.0
O19 O 0.1594 0.57064 0.13768 0.0
O20 O 0.21992 0.58454 0.12438 0.0
C21 C 0.2545 0.52971 0.13214 0.0
Fe22 Fe 0.67715 0.20621 0.59778 0.0
Fe23 Fe 0.72198 0.1749 0.63906 0.0
O24 O 0.67653 0.17133 0.62574 0.0
Fe25 Fe 0.62998 0.13287 0.64069 0.0
O26 O 0.60402 0.16166 0.63787 0.0
O27 O 0.65177 0.22206 0.62641 0.0
O28 O 0.72393 0.24807 0.61235 0.0
C29 C 0.74202 0.254 0.63922 0.0
C30 C 0.61265 0.13291 0.57642 0.0
O31 O 0.74069 0.22541 0.6552 0.0
C32 C 0.67432 0.09364 0.63266 0.0
O33 O 0.70249 0.19288 0.56741 0.0
O34 O 0.74872 0.19486 0.59989 0.0
O35 O 0.61334 0.11223 0.59996 0.0
O36 O 0.63049 0.17055 0.57801 0.0
C37 C 0.67475 0.15627 0.69638 0.0
O38 O 0.70635 0.12439 0.62395 0.0
O39 O 0.64682 0.09677 0.64649 0.0
C40 C 0.73605 0.19553 0.5714 0.0
O41 O 0.70321 0.15647 0.68065 0.0
O42 O 0.64393 0.15149 0.6818 0.0
C43 C 0.61784 0.19892 0.63835 0.0
Fe44 Fe 0.47743 0.67423 0.0924 0.0
Fe45 Fe 0.5543 0.71675 0.13249 0.0
O46 O 0.51104 0.67191 0.12019 0.0
Fe47 Fe 0.50049 0.62443 0.13507 0.0
O48 O 0.45194 0.61317 0.15173 0.0
O49 O 0.43326 0.62895 0.10648 0.0
O50 O 0.46544 0.70165 0.12168 0.0
C51 C 0.49081 0.73419 0.13474 0.0
C52 C 0.48384 0.61237 0.06773 0.0
O53 O 0.52808 0.74611 0.13331 0.0
C54 C 0.58175 0.66087 0.12418 0.0
O55 O 0.51372 0.72035 0.07239 0.0
O56 O 0.57173 0.73202 0.09033 0.0
O57 O 0.47816 0.59836 0.09647 0.0
O58 O 0.48868 0.64672 0.0624 0.0
C59 C 0.53157 0.67477 0.19074 0.0
O60 O 0.58686 0.69416 0.13441 0.0
O61 O 0.54732 0.6315 0.1196 0.0
C62 C 0.55098 0.73692 0.06903 0.0
O63 O 0.54103 0.70634 0.17516 0.0
O64 O 0.52157 0.64238 0.17592 0.0
C65 C 0.42493 0.61293 0.1343 0.0
Fe66 Fe 0.81313 0.4739 0.60097 0.0
Fe67 Fe 0.84678 0.55142 0.64008 0.0
O68 O 0.84909 0.50844 0.62809 0.0
Fe69 Fe 0.88715 0.49939 0.6425 0.0
O70 O 0.85128 0.45127 0.66057 0.0
O71 O 0.815 0.43046 0.61615 0.0
O72 O 0.77429 0.4622 0.63025 0.0
C73 C 0.76638 0.48731 0.64252 0.0
C74 C 0.88049 0.47958 0.576 0.0
O75 O 0.79121 0.52463 0.64082 0.0
C76 C 0.9299 0.57995 0.6303 0.0
O77 O 0.80288 0.50942 0.57996 0.0
O78 O 0.84855 0.56803 0.59771 0.0
O79 O 0.88991 0.47547 0.60471 0.0
O80 O 0.85124 0.48474 0.57087 0.0
C81 C 0.86882 0.53136 0.69788 0.0
O82 O 0.90188 0.58463 0.64167 0.0
O83 O 0.92523 0.54577 0.62533 0.0
C84 C 0.82401 0.54653 0.57596 0.0
O85 O 0.84458 0.53859 0.68297 0.0
O86 O 0.8915 0.52225 0.68254 0.0
C87 C 0.82445 0.42335 0.64379 0.0
Fe88 Fe 0.39487 0.88295 0.13949 0.0
Fe89 Fe 0.34568 0.80585 0.10157 0.0
O90 O 0.34767 0.84381 0.12658 0.0
Fe91 Fe 0.30248 0.84198 0.13811 0.0
O92 O 0.31369 0.84202 0.18116 0.0
O93 O 0.37715 0.88854 0.17976 0.0
O94 O 0.40855 0.84876 0.15876 0.0
C95 C 0.40979 0.82132 0.14316 0.0
C96 C 0.35624 0.92474 0.12622 0.0
O97 O 0.39195 0.80949 0.11626 0.0
C98 C 0.28317 0.81441 0.07534 0.0
O99 O 0.42021 0.88411 0.10112 0.0
O100 O 0.37154 0.84133 0.06943 0.0
O101 O 0.32389 0.89689 0.13804 0.0
O102 O 0.38569 0.92001 0.12119 0.0
C103 C 0.28623 0.76197 0.14432 0.0
O104 O 0.29898 0.7935 0.08124 0.0
O105 O 0.28716 0.84114 0.09532 0.0
C106 C 0.40575 0.87159 0.07292 0.0
O107 O 0.31973 0.76958 0.13311 0.0
O108 O 0.27393 0.78675 0.1409 0.0
C109 C 0.34558 0.86616 0.19566 0.0
Fe110 Fe 0.5455 0.34595 0.59729 0.0
Fe111 Fe 0.46987 0.30009 0.63851 0.0
O112 O 0.51141 0.34594 0.62578 0.0
Fe113 Fe 0.51946 0.39215 0.64154 0.0
O114 O 0.57433 0.41754 0.63952 0.0
O115 O 0.58603 0.36929 0.6266 0.0
O116 O 0.53945 0.29815 0.60961 0.0
C117 C 0.52783 0.27912 0.63602 0.0
C118 C 0.53819 0.4115 0.57773 0.0
O119 O 0.50213 0.28131 0.65361 0.0
C120 C 0.43596 0.34771 0.63305 0.0
O121 O 0.50689 0.32248 0.56661 0.0
O122 O 0.46336 0.27466 0.59837 0.0
O123 O 0.51628 0.41006 0.60108 0.0
O124 O 0.55793 0.39369 0.57926 0.0
C125 C 0.49652 0.34679 0.69702 0.0
O126 O 0.43473 0.31573 0.62426 0.0
O127 O 0.46653 0.3754 0.64673 0.0
C128 C 0.4765 0.28833 0.56994 0.0
O129 O 0.46982 0.31741 0.68084 0.0
O130 O 0.52312 0.37739 0.68263 0.0
C131 C 0.59708 0.40282 0.63955 0.0
Fe132 Fe 0.55933 0.84326 0.89238 0.0
Fe133 Fe 0.50574 0.88204 0.89158 0.0
O134 O 0.51593 0.8445 0.90513 0.0
Fe135 Fe 0.48204 0.80777 0.93212 0.0
O136 O 0.47071 0.76986 0.90208 0.0
O137 O 0.53329 0.78782 0.89081 0.0
O138 O 0.54612 0.84139 0.84962 0.0
C139 C 0.53639 0.86404 0.83516 0.0
C140 C 0.55528 0.8193 0.95596 0.0
O141 O 0.52764 0.88671 0.85103 0.0
C142 C 0.48695 0.87418 0.95858 0.0
O143 O 0.59177 0.8984 0.89135 0.0
O144 O 0.55225 0.92064 0.90833 0.0
O145 O 0.51823 0.79774 0.95202 0.0
O146 O 0.57639 0.84461 0.93455 0.0
C147 C 0.42999 0.81843 0.89068 0.0
O148 O 0.48247 0.88406 0.93008 0.0
O149 O 0.4926 0.84511 0.96298 0.0
C150 C 0.58667 0.92586 0.90333 0.0
O151 O 0.45739 0.84579 0.87391 0.0
O152 O 0.43787 0.80906 0.91802 0.0
C153 C 0.49604 0.76266 0.88915 0.0
Fe154 Fe 0.72417 0.55146 0.39803 0.0
Fe155 Fe 0.6316 0.50075 0.39764 0.0
O156 O 0.67884 0.50932 0.41125 0.0
Fe157 Fe 0.68023 0.47484 0.43852 0.0
O158 O 0.70607 0.46172 0.40868 0.0
O159 O 0.75193 0.52354 0.39643 0.0
O160 O 0.71202 0.5379 0.35532 0.0
C161 C 0.6798 0.5292 0.341 0.0
C162 C 0.74519 0.54724 0.4613 0.0
O163 O 0.64901 0.52216 0.35703 0.0
C164 C 0.62003 0.48281 0.4648 0.0
O165 O 0.70302 0.58553 0.39678 0.0
O166 O 0.64107 0.54776 0.41415 0.0
O167 O 0.72711 0.50992 0.45808 0.0
O168 O 0.74116 0.56875 0.44009 0.0
C169 C 0.61755 0.42463 0.39676 0.0
O170 O 0.60579 0.47822 0.43623 0.0
O171 O 0.65427 0.48701 0.46935 0.0
C172 C 0.67052 0.58162 0.40808 0.0
O173 O 0.61843 0.45232 0.37998 0.0
O174 O 0.63386 0.43184 0.42448 0.0
C175 C 0.73903 0.48604 0.39562 0.0
Fe176 Fe 0.13829 0.62223 0.89147 0.0
Fe177 Fe 0.21061 0.66886 0.93586 0.0
O178 O 0.1766 0.66859 0.90706 0.0
Fe179 Fe 0.18073 0.71423 0.89375 0.0
O180 O 0.16295 0.69597 0.8518 0.0
O181 O 0.15737 0.63644 0.85039 0.0
O182 O 0.16698 0.59605 0.89462 0.0
C183 C 0.20435 0.61016 0.89501 0.0
C184 C 0.09918 0.66654 0.89921 0.0
O185 O 0.22699 0.64374 0.90764 0.0
C186 C 0.20065 0.72831 0.96179 0.0
O187 O 0.11671 0.60534 0.93187 0.0
O188 O 0.17417 0.62203 0.95533 0.0
O189 O 0.12989 0.69844 0.90833 0.0
O190 O 0.10236 0.6392 0.88523 0.0
C191 C 0.25979 0.73393 0.89487 0.0
O192 O 0.1969 0.69431 0.96594 0.0
O193 O 0.20025 0.74082 0.93317 0.0
C194 C 0.13644 0.60438 0.956 0.0
O195 O 0.25308 0.71558 0.92171 0.0
O196 O 0.23161 0.73284 0.87835 0.0
C197 C 0.16115 0.66689 0.8358 0.0
Fe198 Fe 0.54939 0.20509 0.43546 0.0
Fe199 Fe 0.47276 0.17583 0.39541 0.0
O200 O 0.5135 0.17013 0.40851 0.0
Fe201 Fe 0.51917 0.12969 0.39499 0.0
O202 O 0.56758 0.1628 0.3765 0.0
O203 O 0.59089 0.19937 0.42054 0.0
O204 O 0.56365 0.24403 0.40572 0.0
C205 C 0.54056 0.25471 0.3934 0.0
C206 C 0.53884 0.13624 0.4619 0.0
O207 O 0.50282 0.23135 0.39385 0.0
C208 C 0.43875 0.09211 0.40698 0.0
O209 O 0.51602 0.21885 0.45569 0.0
O210 O 0.45627 0.1766 0.43743 0.0
O211 O 0.54204 0.12562 0.43329 0.0
O212 O 0.5361 0.16705 0.46631 0.0
C213 C 0.49221 0.15115 0.33841 0.0
O214 O 0.43654 0.12112 0.39452 0.0
O215 O 0.47187 0.09445 0.41246 0.0
C216 C 0.47868 0.20089 0.459 0.0
O217 O 0.48587 0.17635 0.35268 0.0
O218 O 0.49707 0.12607 0.35463 0.0
C219 C 0.59644 0.18907 0.39269 0.0
Fe220 Fe 0.30924 0.46737 0.89262 0.0
Fe221 Fe 0.40127 0.51531 0.88767 0.0
O222 O 0.35587 0.50937 0.90326 0.0
Fe223 Fe 0.35752 0.54557 0.92985 0.0
O224 O 0.30991 0.54012 0.91681 0.0
O225 O 0.2907 0.49863 0.8753 0.0
O226 O 0.32571 0.46401 0.85088 0.0
C227 C 0.35381 0.49065 0.83366 0.0
C228 C 0.29919 0.48067 0.95992 0.0
O229 O 0.38553 0.51732 0.84675 0.0
C230 C 0.42145 0.53672 0.9509 0.0
O231 O 0.32455 0.43325 0.90928 0.0
O232 O 0.38286 0.46171 0.88441 0.0
O233 O 0.33464 0.50884 0.96172 0.0
O234 O 0.28469 0.46482 0.9324 0.0
C235 C 0.41413 0.59392 0.8865 0.0
O236 O 0.4193 0.51345 0.92844 0.0
O237 O 0.40539 0.55798 0.94783 0.0
C238 C 0.35532 0.43264 0.89975 0.0
O239 O 0.42816 0.57052 0.88762 0.0
O240 O 0.38066 0.58376 0.89907 0.0
C241 C 0.29005 0.52645 0.89091 0.0
Fe242 Fe 0.88738 0.38857 0.39548 0.0
Fe243 Fe 0.80968 0.33874 0.43259 0.0
O244 O 0.8477 0.34122 0.40742 0.0
Fe245 Fe 0.84572 0.29634 0.39475 0.0
O246 O 0.84538 0.3088 0.35219 0.0
O247 O 0.89328 0.37161 0.35521 0.0
O248 O 0.85383 0.40309 0.37632 0.0
C249 C 0.82581 0.40364 0.39159 0.0
C250 C 0.92878 0.34945 0.40706 0.0
O251 O 0.81323 0.38508 0.41816 0.0
C252 C 0.81911 0.27618 0.45747 0.0
O253 O 0.88822 0.41322 0.43392 0.0
O254 O 0.8451 0.36415 0.46493 0.0
O255 O 0.90084 0.31782 0.39427 0.0
O256 O 0.92378 0.37836 0.41383 0.0
C257 C 0.76513 0.27972 0.38962 0.0
O258 O 0.79789 0.29188 0.45233 0.0
O259 O 0.84543 0.28028 0.43704 0.0
C260 C 0.87555 0.39826 0.46187 0.0
O261 O 0.77307 0.31316 0.40108 0.0
O262 O 0.79018 0.26756 0.39229 0.0
C263 C 0.86978 0.34123 0.33859 0.0
Fe264 Fe 0.81205 0.47145 0.93468 0.0
Fe265 Fe 0.84734 0.55057 0.89789 0.0
O266 O 0.84953 0.50739 0.90923 0.0
Fe267 Fe 0.88866 0.49959 0.89567 0.0
O268 O 0.85416 0.4516 0.87669 0.0
O269 O 0.81554 0.42879 0.91953 0.0
O270 O 0.77456 0.46078 0.90383 0.0
C271 C 0.76673 0.48669 0.89294 0.0
C272 C 0.87934 0.47853 0.96229 0.0
O273 O 0.79193 0.52377 0.8959 0.0
C274 C 0.93085 0.58015 0.90813 0.0
O275 O 0.80027 0.50602 0.95541 0.0
O276 O 0.84744 0.56542 0.94057 0.0
O277 O 0.89091 0.47579 0.93391 0.0
O278 O 0.84847 0.48139 0.96626 0.0
C279 C 0.87047 0.53168 0.84011 0.0
O280 O 0.90242 0.58428 0.89703 0.0
O281 O 0.92618 0.54608 0.91351 0.0
C282 C 0.82094 0.54293 0.96076 0.0
O283 O 0.84631 0.53899 0.855 0.0
O284 O 0.89329 0.52262 0.85546 0.0
C285 C 0.82689 0.42282 0.89234 0.0
Fe286 Fe 0.3047 0.84254 0.39653 0.0
Fe287 Fe 0.39728 0.88723 0.39449 0.0
O288 O 0.35112 0.84756 0.4089 0.0
Fe289 Fe 0.35191 0.81274 0.43616 0.0
O290 O 0.32583 0.77307 0.40713 0.0
O291 O 0.27834 0.78703 0.3958 0.0
O292 O 0.31604 0.84097 0.35365 0.0
C293 C 0.34701 0.86616 0.33869 0.0
C294 C 0.28706 0.81929 0.46056 0.0
O295 O 0.37809 0.8903 0.35425 0.0
C296 C 0.41152 0.88195 0.46134 0.0
O297 O 0.32395 0.8973 0.39499 0.0
O298 O 0.38643 0.92355 0.4116 0.0
O299 O 0.3056 0.80047 0.45722 0.0
O300 O 0.28877 0.84315 0.43872 0.0
C301 C 0.4143 0.82705 0.39287 0.0
O302 O 0.42482 0.89191 0.43252 0.0
O303 O 0.37795 0.85137 0.46631 0.0
C304 C 0.35577 0.92629 0.40666 0.0
O305 O 0.41163 0.85308 0.37632 0.0
O306 O 0.39842 0.81713 0.42074 0.0
C307 C 0.29202 0.76312 0.39522 0.0
Fe308 Fe 0.52103 0.39624 0.8962 0.0
Fe309 Fe 0.5511 0.35236 0.93833 0.0
O310 O 0.51553 0.35059 0.9106 0.0
Fe311 Fe 0.47522 0.30385 0.89774 0.0
O312 O 0.48862 0.31555 0.85497 0.0
O313 O 0.49918 0.37679 0.85583 0.0
O314 O 0.56965 0.41117 0.87819 0.0
C315 C 0.59835 0.41424 0.89496 0.0
C316 C 0.44063 0.35303 0.90829 0.0
O317 O 0.59249 0.3995 0.92326 0.0
C318 C 0.48036 0.28546 0.96145 0.0
O319 O 0.54346 0.42404 0.93434 0.0
O320 O 0.53674 0.37722 0.96827 0.0
O321 O 0.43887 0.32199 0.8959 0.0
O322 O 0.47354 0.38425 0.9133 0.0
C323 C 0.54346 0.29348 0.89757 0.0
O324 O 0.51776 0.30543 0.95871 0.0
O325 O 0.4582 0.28725 0.93967 0.0
C326 C 0.53944 0.41062 0.96318 0.0
O327 O 0.56632 0.32751 0.90955 0.0
O328 O 0.50571 0.27892 0.89738 0.0
C329 C 0.49426 0.34647 0.84012 0.0
Fe330 Fe 0.17779 0.46288 0.38983 0.0
Fe331 Fe 0.13767 0.51464 0.38875 0.0
O332 O 0.17519 0.5051 0.4036 0.0
Fe333 Fe 0.21035 0.53813 0.43194 0.0
O334 O 0.25132 0.5317 0.4173 0.0
O335 O 0.22831 0.49439 0.37332 0.0
O336 O 0.15875 0.46314 0.34862 0.0
C337 C 0.1597 0.49189 0.33298 0.0
C338 C 0.1987 0.46835 0.45725 0.0
O339 O 0.15596 0.51853 0.3476 0.0
C340 C 0.13834 0.53268 0.45296 0.0
O341 O 0.1274 0.42896 0.40543 0.0
O342 O 0.10039 0.46187 0.38339 0.0
O343 O 0.19537 0.49874 0.46185 0.0
O344 O 0.19815 0.45581 0.42851 0.0
C345 C 0.20558 0.592 0.392 0.0
O346 O 0.11728 0.51161 0.42946 0.0
O347 O 0.17596 0.55077 0.4517 0.0
C348 C 0.09694 0.43112 0.39726 0.0
O349 O 0.16808 0.56946 0.39125 0.0
O350 O 0.22752 0.57958 0.40373 0.0
C351 C 0.25715 0.52073 0.38981 0.0
Fe352 Fe 0.72515 0.17427 0.8947 0.0
Fe353 Fe 0.63353 0.13599 0.89543 0.0
O354 O 0.68125 0.17245 0.90986 0.0
Fe355 Fe 0.68516 0.20744 0.93921 0.0
O356 O 0.73292 0.24818 0.92401 0.0
O357 O 0.74412 0.22487 0.87869 0.0
O358 O 0.7045 0.15571 0.85371 0.0
C359 C 0.67655 0.15714 0.83871 0.0
C360 C 0.74273 0.19359 0.96214 0.0
O361 O 0.64709 0.15444 0.85415 0.0
C362 C 0.61752 0.13583 0.96028 0.0
O363 O 0.70838 0.12363 0.90964 0.0
O364 O 0.64772 0.0979 0.88904 0.0
O365 O 0.70935 0.19062 0.9677 0.0
O366 O 0.75406 0.19411 0.93296 0.0
C367 C 0.6267 0.20522 0.9005 0.0
O368 O 0.61663 0.11519 0.93611 0.0
O369 O 0.63812 0.17348 0.95965 0.0
C370 C 0.67518 0.0937 0.90179 0.0
O371 O 0.61065 0.16764 0.89914 0.0
O372 O 0.66115 0.22611 0.91238 0.0
C373 C 0.74851 0.25392 0.89594 0.0
Fe374 Fe 0.50282 0.62411 0.38916 0.0
Fe375 Fe 0.47598 0.67203 0.43041 0.0
O376 O 0.51117 0.671 0.4037 0.0
Fe377 Fe 0.55402 0.71664 0.39211 0.0
O378 O 0.54174 0.70621 0.34935 0.0
O379 O 0.52484 0.64287 0.34862 0.0
O380 O 0.45446 0.61096 0.37126 0.0
C381 C 0.42628 0.60952 0.38777 0.0
C382 C 0.58368 0.66279 0.40153 0.0
O383 O 0.433 0.6262 0.41532 0.0
C384 C 0.54803 0.73557 0.45533 0.0
O385 O 0.47976 0.59748 0.42753 0.0
O386 O 0.487 0.64523 0.46099 0.0
O387 O 0.58806 0.69562 0.39086 0.0
O388 O 0.5496 0.63292 0.4059 0.0
C389 C 0.48934 0.73276 0.38935 0.0
O390 O 0.51084 0.71821 0.45113 0.0
O391 O 0.56998 0.73171 0.43453 0.0
C392 C 0.48349 0.61137 0.45622 0.0
O393 O 0.46415 0.69903 0.40071 0.0
O394 O 0.52666 0.74491 0.39085 0.0
C395 C 0.5335 0.67495 0.33377 0.0
Fe396 Fe 0.54839 0.20524 0.09668 0.0
Fe397 Fe 0.47212 0.17313 0.13765 0.0
O398 O 0.5144 0.17009 0.12471 0.0
Fe399 Fe 0.52308 0.13204 0.13978 0.0
O400 O 0.57797 0.16216 0.13822 0.0
O401 O 0.58906 0.22189 0.12567 0.0
O402 O 0.54208 0.24653 0.11061 0.0
C403 C 0.52969 0.25233 0.13737 0.0
C404 C 0.54179 0.13309 0.07537 0.0
O405 O 0.50341 0.22358 0.15383 0.0
C406 C 0.43948 0.09213 0.13093 0.0
O407 O 0.50983 0.19079 0.06609 0.0
O408 O 0.4655 0.19294 0.09822 0.0
O409 O 0.52062 0.11208 0.09887 0.0
O410 O 0.56109 0.17065 0.07726 0.0
C411 C 0.49878 0.15264 0.19562 0.0
O412 O 0.43789 0.12274 0.12246 0.0
O413 O 0.47022 0.09506 0.14438 0.0
C414 C 0.47905 0.19376 0.06976 0.0
O415 O 0.47183 0.15468 0.17937 0.0
O416 O 0.52591 0.14931 0.18133 0.0
C417 C 0.60077 0.19963 0.13798 0.0
Fe418 Fe 0.30513 0.46412 0.63403 0.0
Fe419 Fe 0.39682 0.51665 0.63607 0.0
O420 O 0.3498 0.50702 0.62102 0.0
Fe421 Fe 0.34766 0.54055 0.59318 0.0
O422 O 0.30001 0.53364 0.60794 0.0
O423 O 0.28534 0.49455 0.65085 0.0
O424 O 0.32404 0.46388 0.67517 0.0
C425 C 0.35175 0.49184 0.69152 0.0
C426 C 0.29034 0.47062 0.56678 0.0
O427 O 0.38192 0.51959 0.67739 0.0
C428 C 0.41347 0.53447 0.57166 0.0
O429 O 0.3221 0.43068 0.61833 0.0
O430 O 0.38164 0.46394 0.64091 0.0
O431 O 0.32354 0.50183 0.56273 0.0
O432 O 0.27796 0.45733 0.59525 0.0
C433 C 0.40647 0.59437 0.63321 0.0
O434 O 0.41429 0.51409 0.59534 0.0
O435 O 0.39471 0.55333 0.57339 0.0
C436 C 0.35456 0.43292 0.62712 0.0
O437 O 0.42119 0.5716 0.63408 0.0
O438 O 0.37188 0.58169 0.6218 0.0
C439 C 0.28224 0.52077 0.63485 0.0
Fe440 Fe 0.88998 0.39245 0.14145 0.0
Fe441 Fe 0.81707 0.3444 0.09814 0.0
O442 O 0.85215 0.3458 0.12623 0.0
Fe443 Fe 0.84923 0.30057 0.13915 0.0
O444 O 0.86852 0.3189 0.18047 0.0
O445 O 0.8726 0.37764 0.1827 0.0
O446 O 0.85947 0.417 0.14024 0.0
C447 C 0.82192 0.40226 0.13934 0.0
C448 C 0.92987 0.34902 0.13106 0.0
O449 O 0.79999 0.36823 0.12696 0.0
C450 C 0.82909 0.28682 0.07164 0.0
O451 O 0.91002 0.41046 0.10089 0.0
O452 O 0.85136 0.39175 0.07907 0.0
O453 O 0.89916 0.3166 0.12323 0.0
O454 O 0.92709 0.37648 0.14545 0.0
C455 C 0.77032 0.27958 0.13938 0.0
O456 O 0.83202 0.32049 0.06761 0.0
O457 O 0.82894 0.27405 0.10019 0.0
C458 C 0.88894 0.41105 0.07774 0.0
O459 O 0.77616 0.2968 0.11215 0.0
O460 O 0.799 0.28176 0.15582 0.0
C461 C 0.86994 0.34747 0.19678 0.0
Fe462 Fe 0.55965 0.84482 0.63365 0.0
Fe463 Fe 0.50873 0.88586 0.63795 0.0
O464 O 0.51792 0.84899 0.62103 0.0
Fe465 Fe 0.48475 0.81585 0.59162 0.0
O466 O 0.49099 0.77389 0.60313 0.0
O467 O 0.52724 0.79323 0.64775 0.0
O468 O 0.55909 0.86092 0.6762 0.0
C469 C 0.53182 0.86232 0.69253 0.0
C470 C 0.55427 0.82848 0.56484 0.0
O471 O 0.50482 0.86579 0.67834 0.0
C472 C 0.49074 0.889 0.57441 0.0
O473 O 0.59462 0.8963 0.6206 0.0
O474 O 0.56149 0.92246 0.64379 0.0
O475 O 0.5242 0.83278 0.56159 0.0
O476 O 0.56695 0.82723 0.59326 0.0
C477 C 0.43148 0.8182 0.63393 0.0
O478 O 0.51206 0.90856 0.59829 0.0
O479 O 0.47205 0.85139 0.57445 0.0
C480 C 0.59262 0.92642 0.63024 0.0
O481 O 0.45384 0.85569 0.63549 0.0
O482 O 0.44349 0.79697 0.62017 0.0
C483 C 0.50102 0.76582 0.63005 0.0
Fe484 Fe 0.72075 0.55061 0.14012 0.0
Fe485 Fe 0.62886 0.50031 0.14314 0.0
O486 O 0.67518 0.50864 0.1273 0.0
Fe487 Fe 0.6755 0.47486 0.09867 0.0
O488 O 0.72257 0.47999 0.1124 0.0
O489 O 0.73988 0.51893 0.1557 0.0
O490 O 0.70279 0.55054 0.18208 0.0
C491 C 0.67432 0.52294 0.19835 0.0
C492 C 0.73432 0.54407 0.0722 0.0
O493 O 0.6438 0.49594 0.18405 0.0
C494 C 0.61102 0.48405 0.07869 0.0
O495 O 0.70424 0.58483 0.12508 0.0
O496 O 0.64559 0.55321 0.14912 0.0
O497 O 0.70024 0.51381 0.06839 0.0
O498 O 0.74709 0.55734 0.10068 0.0
C499 C 0.61709 0.42218 0.13959 0.0
O500 O 0.61136 0.50443 0.10284 0.0
O501 O 0.62848 0.46387 0.0797 0.0
C502 C 0.67223 0.58335 0.13423 0.0
O503 O 0.60299 0.44544 0.14021 0.0
O504 O 0.65089 0.43344 0.12715 0.0
C505 C 0.74111 0.49198 0.13908 0.0
Fe506 Fe 0.18111 0.71416 0.63606 0.0
Fe507 Fe 0.13781 0.62178 0.63594 0.0
O508 O 0.17713 0.66858 0.62262 0.0
Fe509 Fe 0.2129 0.66952 0.59546 0.0
O510 O 0.25163 0.69471 0.62545 0.0
O511 O 0.2366 0.74137 0.63682 0.0
O512 O 0.18298 0.70188 0.6786 0.0
C513 C 0.15885 0.66993 0.69295 0.0
C514 C 0.20557 0.73463 0.57276 0.0
O515 O 0.1345 0.63938 0.67687 0.0
C516 C 0.1448 0.61033 0.5685 0.0
O517 O 0.12625 0.69399 0.63807 0.0
O518 O 0.10105 0.63252 0.61955 0.0
O519 O 0.22504 0.7167 0.57597 0.0
O520 O 0.18027 0.73083 0.59413 0.0
C521 C 0.1986 0.60557 0.63679 0.0
O522 O 0.13394 0.59599 0.59698 0.0
O523 O 0.17514 0.64436 0.56449 0.0
C524 C 0.09742 0.66231 0.62614 0.0
O525 O 0.17214 0.60731 0.65343 0.0
O526 O 0.20878 0.62257 0.60936 0.0
C527 C 0.26097 0.72827 0.63756 0.0
C528 C 0.1153 0.59825 1.0135 0.0
C529 C 0.11651 0.57938 0.98458 0.0
C530 C 0.11274 0.58067 0.04401 0.0
C531 C 0.11142 0.54379 0.04638 0.0
H532 H 0.12067 0.62854 1.01274 0.0
H533 H 0.11661 0.59813 0.06581 0.0
S534 S 0.10893 0.4805 0.97766 0.0
N535 N 0.1119 0.52024 0.95992 0.0
N536 N 0.10719 0.48721 0.01733 0.0
C537 C 0.10827 0.52284 0.01755 0.0
C538 C 0.11093 0.54074 0.98651 0.0
C539 C 0.60243 0.11524 0.51828 0.0
C540 C 0.58555 0.1147 0.54878 0.0
C541 C 0.58434 0.11744 0.4893 0.0
C542 C 0.54944 0.12017 0.49027 0.0
H543 H 0.63181 0.11828 0.51695 0.0
H544 H 0.60005 0.12143 0.46646 0.0
S545 S 0.48998 0.11228 0.56362 0.0
N546 N 0.52895 0.11042 0.57796 0.0
N547 N 0.49553 0.11597 0.52355 0.0
C548 C 0.53016 0.11531 0.52033 0.0
C549 C 0.54811 0.11216 0.54968 0.0
C550 C 0.42398 0.52819 1.00972 0.0
C551 C 0.44515 0.54324 0.9804 0.0
C552 C 0.43877 0.54886 0.03915 0.0
C553 C 0.47485 0.58537 0.03979 0.0
H554 H 0.39382 0.50298 1.00925 0.0
H555 H 0.41997 0.53838 0.06066 0.0
S556 S 0.54597 0.63118 0.97147 0.0
N557 N 0.50723 0.59194 0.95504 0.0
N558 N 0.53499 0.6313 1.01043 0.0
C559 C 0.49847 0.59789 1.01157 0.0
C560 C 0.48364 0.57651 0.98177 0.0
C561 C 0.88731 0.42605 0.55023 0.0
C562 C 0.89355 0.46495 0.54869 0.0
C563 C 0.88519 0.40551 0.52163 0.0
C564 C 0.88985 0.42362 0.49097 0.0
H565 H 0.87995 0.41002 0.57321 0.0
H566 H 0.87685 0.37438 0.5234 0.0
S567 S 0.91627 0.52843 0.47549 0.0
N568 N 0.91097 0.52318 0.51548 0.0
N569 N 0.90819 0.48504 0.46132 0.0
C570 C 0.90126 0.46426 0.48961 0.0
C571 C 0.90272 0.48486 0.51872 0.0
C572 C 0.43482 0.8834 0.98479 0.0
C573 C 0.47271 0.88696 0.98651 0.0
C574 C 0.41447 0.88224 1.01328 0.0
C575 C 0.43175 0.88529 0.0441 0.0
H576 H 0.41925 0.87756 0.96166 0.0
H577 H 0.38394 0.87597 1.01128 0.0
S578 S 0.53403 0.90412 0.06052 0.0
N579 N 0.52935 0.89991 0.02041 0.0
N580 N 0.49153 0.89891 0.07426 0.0
C581 C 0.47157 0.89388 0.04577 0.0
C582 C 0.49197 0.89431 0.01677 0.0
C583 C 0.55422 0.44017 0.49141 0.0
C584 C 0.59321 0.47305 0.49305 0.0
C585 C 0.53212 0.42342 0.51995 0.0
C586 C 0.54815 0.4395 0.55069 0.0
H587 H 0.54233 0.42485 0.46845 0.0
H588 H 0.50443 0.39525 0.51824 0.0
S589 S 0.64413 0.5313 0.56701 0.0
N590 N 0.64371 0.52535 0.52703 0.0
N591 N 0.60143 0.49422 0.58059 0.0
C592 C 0.58449 0.4755 0.55207 0.0
C593 C 0.60739 0.49213 0.52321 0.0
C594 C 0.89517 0.48723 0.02136 0.0
C595 C 0.89667 0.47051 0.99129 0.0
C596 C 0.90012 0.47183 0.05071 0.0
C597 C 0.9063 0.43906 0.05075 0.0
H598 H 0.88679 0.51007 0.02234 0.0
H599 H 0.89422 0.48239 0.0734 0.0
S600 S 0.91981 0.38935 0.97874 0.0
N601 N 0.91138 0.42387 0.96326 0.0
N602 N 0.91912 0.39396 0.01879 0.0
C603 C 0.9126 0.42527 0.02098 0.0
C604 C 0.90813 0.44129 0.99101 0.0
C605 C 0.44239 0.90358 0.54908 0.0
C606 C 0.48067 0.908 0.54823 0.0
C607 C 0.42134 0.89931 0.5202 0.0
C608 C 0.43818 0.89971 0.48967 0.0
H609 H 0.42676 0.89838 0.57211 0.0
H610 H 0.39048 0.89209 0.5219 0.0
S611 S 0.54092 0.9191 0.47477 0.0
N612 N 0.537 0.91892 0.51493 0.0
N613 N 0.49796 0.91194 0.46027 0.0
C614 C 0.47847 0.9097 0.48849 0.0
C615 C 0.49969 0.91365 0.51801 0.0
C616 C 0.60359 0.49344 0.02043 0.0
C617 C 0.58517 0.47727 0.05054 0.0
C618 C 0.58585 0.47408 0.99106 0.0
C619 C 0.54967 0.43763 0.99127 0.0
H620 H 0.63376 0.51862 0.01979 0.0
H621 H 0.60269 0.48527 0.96862 0.0
S622 S 0.48613 0.38792 0.06322 0.0
N623 N 0.52607 0.42703 0.07845 0.0
N624 N 0.49298 0.38984 0.02329 0.0
C625 C 0.52893 0.42385 0.02086 0.0
C626 C 0.54667 0.44398 0.05059 0.0
C627 C 0.12597 0.58189 0.47991 0.0
C628 C 0.12102 0.5434 0.48013 0.0
C629 C 0.12975 0.60223 0.50912 0.0
C630 C 0.12836 0.58453 0.53945 0.0
H631 H 0.13148 0.59801 0.45713 0.0
H632 H 0.13708 0.63314 0.50788 0.0
S633 S 0.10901 0.48158 0.55273 0.0
N634 N 0.10994 0.48647 0.51263 0.0
N635 N 0.11567 0.52407 0.56785 0.0
C636 C 0.11849 0.54426 0.53994 0.0
C637 C 0.11518 0.5238 0.51009 0.0
C638 C 0.55497 0.1226 0.98697 0.0
C639 C 0.58871 0.11791 0.98712 0.0
C640 C 0.53544 0.12144 0.01613 0.0
C641 C 0.54897 0.1154 0.04627 0.0
H642 H 0.54619 0.13133 0.96472 0.0
H643 H 0.51234 0.1295 0.01546 0.0
S644 S 0.63226 0.0958 0.05905 0.0
N645 N 0.63212 0.10274 0.01925 0.0
N646 N 0.59486 0.09991 0.07411 0.0
C647 C 0.57992 0.10647 0.04629 0.0
C648 C 0.60005 0.10798 0.01661 0.0
C649 C 0.42224 0.52674 0.5133 0.0
C650 C 0.43981 0.54341 0.54354 0.0
C651 C 0.43924 0.54702 0.48409 0.0
C652 C 0.47381 0.58486 0.4846 0.0
H653 H 0.39313 0.50006 0.51246 0.0
H654 H 0.42295 0.53503 0.46151 0.0
S655 S 0.53496 0.63702 0.55706 0.0
N656 N 0.49658 0.59622 0.57195 0.0
N657 N 0.52846 0.63495 0.51709 0.0
C658 C 0.49392 0.59953 0.51435 0.0
C659 C 0.47691 0.57854 0.54391 0.0
C660 C 0.31932 0.59172 0.13847 0.0
C661 C 0.29697 0.55007 0.14233 0.0
C662 C 0.36102 0.61216 0.13913 0.0
C663 C 0.38233 0.59197 0.14393 0.0
H664 H 0.30448 0.60844 0.13273 0.0
H665 H 0.37677 0.64375 0.13357 0.0
S666 S 0.33819 0.48343 0.15814 0.0
N667 N 0.29911 0.48955 0.15356 0.0
N668 N 0.37809 0.52831 0.15498 0.0
C669 C 0.36052 0.55076 0.15036 0.0
C670 C 0.31764 0.5297 0.14956 0.0
C671 C 0.76354 0.35857 0.65294 0.0
C672 C 0.8054 0.38097 0.65365 0.0
C673 C 0.74326 0.31688 0.65193 0.0
C674 C 0.76404 0.29573 0.65096 0.0
H675 H 0.74636 0.37348 0.65044 0.0
H676 H 0.71106 0.30117 0.64931 0.0
S677 S 0.87388 0.34002 0.65308 0.0
N678 N 0.86712 0.37893 0.6547 0.0
N679 N 0.82884 0.30007 0.65215 0.0
C680 C 0.80587 0.31744 0.65358 0.0
C681 C 0.82664 0.36025 0.65498 0.0
C682 C 0.4943 0.80068 0.13499 0.0
C683 C 0.47634 0.76106 0.14618 0.0
C684 C 0.47448 0.82272 0.13789 0.0
C685 C 0.43656 0.80611 0.15255 0.0
H686 H 0.52201 0.81344 0.12141 0.0
H687 H 0.48736 0.8516 0.12619 0.0
S688 S 0.38073 0.7066 0.19128 0.0
N689 N 0.42135 0.70838 0.17658 0.0
N690 N 0.38458 0.74999 0.18218 0.0
C691 C 0.42043 0.7682 0.16671 0.0
C692 C 0.44025 0.74563 0.16352 0.0
C693 C 0.70306 0.48933 0.63816 0.0
C694 C 0.72428 0.47196 0.65146 0.0
C695 C 0.66116 0.46778 0.63683 0.0
C696 C 0.63955 0.42817 0.64814 0.0
H697 H 0.71883 0.51816 0.62627 0.0
H698 H 0.64586 0.48105 0.62463 0.0
S699 S 0.68098 0.37355 0.69222 0.0
N700 N 0.72046 0.41642 0.68202 0.0
N701 N 0.64191 0.37531 0.67805 0.0
C702 C 0.66028 0.41221 0.66435 0.0
C703 C 0.70266 0.43438 0.66642 0.0
C704 C 0.25303 0.6551 0.16171 0.0
C705 C 0.21394 0.63549 0.14942 0.0
C706 C 0.27482 0.6966 0.16373 0.0
C707 C 0.2585 0.72 0.15323 0.0
H708 H 0.26787 0.63843 0.16764 0.0
H709 H 0.30577 0.71056 0.17102 0.0
S710 S 0.15431 0.68239 0.12582 0.0
N711 N 0.1573 0.64176 0.13178 0.0
N712 N 0.19852 0.72026 0.13566 0.0
C713 C 0.2178 0.70058 0.1448 0.0
C714 C 0.19543 0.65806 0.14279 0.0
C715 C 0.56248 0.20687 0.61707 0.0
C716 C 0.58986 0.21398 0.6422 0.0
C717 C 0.53902 0.22502 0.61724 0.0
C718 C 0.54185 0.25074 0.64269 0.0
H719 H 0.561 0.18914 0.5961 0.0
H720 H 0.52043 0.22101 0.59616 0.0
S721 S 0.6056 0.27506 0.71622 0.0
N722 N 0.61631 0.24556 0.69458 0.0
N723 N 0.57163 0.27962 0.69512 0.0
C724 C 0.56714 0.25595 0.66912 0.0
C725 C 0.59148 0.2377 0.66875 0.0
C726 C 0.42046 0.65759 0.8679 0.0
C727 C 0.43942 0.63631 0.87732 0.0
C728 C 0.44078 0.69915 0.86814 0.0
C729 C 0.48084 0.72116 0.8782 0.0
H730 H 0.38887 0.64202 0.86257 0.0
H731 H 0.42401 0.71406 0.86289 0.0
S732 S 0.54692 0.68003 0.89684 0.0
N733 N 0.50267 0.64028 0.89053 0.0
N734 N 0.54098 0.71905 0.89155 0.0
C735 C 0.50166 0.70057 0.88359 0.0
C736 C 0.48085 0.65787 0.88308 0.0
C737 C 0.74633 0.42924 0.37548 0.0
C738 C 0.76476 0.46965 0.38481 0.0
C739 C 0.76771 0.4089 0.37405 0.0
C740 C 0.80866 0.42836 0.38105 0.0
H741 H 0.71451 0.41242 0.37129 0.0
H742 H 0.75147 0.37699 0.36979 0.0
S743 S 0.87301 0.53576 0.39985 0.0
N744 N 0.82781 0.52984 0.39627 0.0
N745 N 0.86824 0.49148 0.39299 0.0
C746 C 0.8285 0.46969 0.38678 0.0
C747 C 0.80652 0.49047 0.38861 0.0
C748 C 0.32368 0.73597 0.88424 0.0
C749 C 0.30196 0.75619 0.88392 0.0
C750 C 0.36541 0.75661 0.88283 0.0
C751 C 0.38736 0.79846 0.88114 0.0
H752 H 0.30839 0.70399 0.8879 0.0
H753 H 0.38075 0.73979 0.8855 0.0
S754 S 0.34493 0.86563 0.87817 0.0
N755 N 0.30535 0.82041 0.88012 0.0
N756 N 0.38429 0.85951 0.87769 0.0
C757 C 0.3661 0.81909 0.8787 0.0
C758 C 0.32323 0.79787 0.88005 0.0
C759 C 0.61938 0.36307 0.38713 0.0
C760 C 0.59745 0.38286 0.38562 0.0
C761 C 0.60064 0.32161 0.3862 0.0
C762 C 0.55872 0.29778 0.38491 0.0
H763 H 0.65119 0.37971 0.39143 0.0
H764 H 0.61932 0.3083 0.38903 0.0
S765 S 0.48808 0.33565 0.37469 0.0
N766 N 0.53226 0.37643 0.37804 0.0
N767 N 0.49619 0.29763 0.37698 0.0
C768 C 0.53651 0.31728 0.3803 0.0
C769 C 0.55605 0.36005 0.38068 0.0
C770 C 0.20559 0.54665 0.90154 0.0
C771 C 0.22121 0.5844 0.88687 0.0
C772 C 0.22616 0.52533 0.89972 0.0
C773 C 0.26232 0.54064 0.88247 0.0
H774 H 0.17906 0.53496 0.91657 0.0
H775 H 0.21528 0.4982 0.91389 0.0
S776 S 0.31223 0.63518 0.83582 0.0
N777 N 0.27252 0.63415 0.85183 0.0
N778 N 0.31062 0.59363 0.84783 0.0
C779 C 0.27637 0.57671 0.86557 0.0
C780 C 0.2559 0.59873 0.86789 0.0
C781 C 0.65763 0.24608 0.3706 0.0
C782 C 0.63783 0.20636 0.3813 0.0
C783 C 0.69938 0.26853 0.37011 0.0
C784 C 0.72285 0.25214 0.3806 0.0
H785 H 0.64078 0.2608 0.36498 0.0
H786 H 0.71332 0.29984 0.36376 0.0
S787 S 0.68465 0.1475 0.40689 0.0
N788 N 0.64403 0.15012 0.39952 0.0
N789 N 0.72276 0.19204 0.39821 0.0
C790 C 0.70326 0.21123 0.38838 0.0
C791 C 0.66059 0.18843 0.389 0.0
C792 C 0.65842 0.4155 0.87347 0.0
C793 C 0.63981 0.43687 0.88344 0.0
C794 C 0.70006 0.43311 0.87378 0.0
C795 C 0.72459 0.47291 0.88395 0.0
H796 H 0.64058 0.3841 0.86774 0.0
H797 H 0.71296 0.4146 0.8681 0.0
S798 S 0.68989 0.54331 0.90718 0.0
N799 N 0.64838 0.50073 0.90024 0.0
N800 N 0.72693 0.53479 0.89956 0.0
C801 C 0.70629 0.49581 0.89057 0.0
C802 C 0.66374 0.4775 0.89076 0.0
C803 C 0.28517 0.69871 0.37725 0.0
C804 C 0.26649 0.72047 0.38632 0.0
C805 C 0.26436 0.65708 0.37674 0.0
C806 C 0.22382 0.63526 0.38517 0.0
H807 H 0.31678 0.71388 0.37218 0.0
H808 H 0.28069 0.64193 0.37109 0.0
S809 S 0.15875 0.67767 0.40429 0.0
N810 N 0.20352 0.71713 0.39926 0.0
N811 N 0.16401 0.63841 0.39795 0.0
C812 C 0.20358 0.65649 0.39091 0.0
C813 C 0.225 0.69923 0.39157 0.0
C814 C 0.6034 0.28759 0.88657 0.0
C815 C 0.56169 0.2685 0.89043 0.0
C816 C 0.62371 0.26637 0.88802 0.0
C817 C 0.60328 0.22496 0.89301 0.0
H818 H 0.62101 0.31967 0.88441 0.0
H819 H 0.65598 0.28297 0.88685 0.0
S820 S 0.4934 0.15955 0.89964 0.0
N821 N 0.50004 0.20494 0.89568 0.0
N822 N 0.53841 0.16469 0.8982 0.0
C823 C 0.56123 0.20477 0.89404 0.0
C824 C 0.54038 0.22662 0.89271 0.0
C825 C 0.31967 0.58315 0.3787 0.0
C826 C 0.2989 0.54125 0.378 0.0
C827 C 0.36134 0.60517 0.37833 0.0
C828 C 0.38416 0.5862 0.37723 0.0
H829 H 0.30358 0.599 0.3823 0.0
H830 H 0.37585 0.63723 0.38144 0.0
S831 S 0.34459 0.47719 0.37189 0.0
N832 N 0.30419 0.48152 0.37341 0.0
N833 N 0.38316 0.52311 0.37277 0.0
C834 C 0.364 0.54441 0.37387 0.0
C835 C 0.32114 0.52183 0.37425 0.0
C836 C 0.83063 0.36117 0.90006 0.0
C837 C 0.81376 0.38101 0.88349 0.0
C838 C 0.81127 0.31931 0.90099 0.0
C839 C 0.77437 0.29576 0.88537 0.0
H840 H 0.85743 0.37808 0.91445 0.0
H841 H 0.82396 0.30537 0.91588 0.0
S842 S 0.71968 0.33322 0.83602 0.0
N843 N 0.75965 0.37409 0.84907 0.0
N844 N 0.72343 0.29535 0.85051 0.0
C845 C 0.75873 0.31522 0.86668 0.0
C846 C 0.77837 0.3579 0.86586 0.0
C847 C 0.41541 0.76742 0.37324 0.0
C848 C 0.4369 0.80802 0.3813 0.0
C849 C 0.43371 0.74404 0.37291 0.0
C850 C 0.47437 0.76038 0.38083 0.0
H851 H 0.38359 0.75302 0.3694 0.0
H852 H 0.41514 0.71233 0.36849 0.0
S853 S 0.54527 0.86713 0.39837 0.0
N854 N 0.50179 0.86494 0.39362 0.0
N855 N 0.53687 0.82135 0.3923 0.0
C856 C 0.49716 0.80196 0.38568 0.0
C857 C 0.47821 0.82571 0.38625 0.0
C858 C 0.53083 0.31662 0.13113 0.0
C859 C 0.54514 0.29412 0.14712 0.0
C860 C 0.55298 0.35852 0.13102 0.0
C861 C 0.59064 0.37915 0.14614 0.0
H862 H 0.50373 0.30174 0.11677 0.0
H863 H 0.54195 0.37466 0.11693 0.0
S864 S 0.63892 0.33409 0.19455 0.0
N865 N 0.59715 0.29547 0.18112 0.0
N866 N 0.63909 0.37418 0.18049 0.0
C867 C 0.60397 0.35705 0.16393 0.0
C868 C 0.58113 0.31448 0.16449 0.0
C869 C 0.21823 0.52023 0.62892 0.0
C870 C 0.25495 0.5349 0.64514 0.0
C871 C 0.19764 0.54153 0.62922 0.0
C872 C 0.21312 0.57816 0.64572 0.0
H873 H 0.20695 0.4938 0.61381 0.0
H874 H 0.17103 0.53081 0.61443 0.0
S875 S 0.30683 0.62802 0.69355 0.0
N876 N 0.30483 0.58698 0.67958 0.0
N877 N 0.2659 0.62688 0.68032 0.0
C878 C 0.24837 0.59174 0.66382 0.0
C879 C 0.26938 0.57009 0.66348 0.0
C880 C 0.70809 0.27821 0.15348 0.0
C881 C 0.72863 0.25705 0.15048 0.0
C882 C 0.6665 0.25893 0.15157 0.0
C883 C 0.64362 0.21748 0.14676 0.0
H884 H 0.72456 0.3104 0.15476 0.0
H885 H 0.65243 0.27705 0.15186 0.0
S886 S 0.68316 0.14766 0.14228 0.0
N887 N 0.7234 0.19217 0.14588 0.0
N888 N 0.64468 0.15513 0.14308 0.0
C889 C 0.66365 0.19538 0.1468 0.0
C890 C 0.70633 0.21535 0.14846 0.0
C891 C 0.43735 0.70365 0.63906 0.0
C892 C 0.47924 0.72338 0.63989 0.0
C893 C 0.41421 0.66206 0.63941 0.0
C894 C 0.43197 0.63801 0.63973 0.0
H895 H 0.42231 0.72056 0.63597 0.0
H896 H 0.38211 0.64877 0.63749 0.0
S897 S 0.54108 0.6752 0.64412 0.0
N898 N 0.53788 0.7162 0.6431 0.0
N899 N 0.49468 0.6375 0.64338 0.0
C900 C 0.47405 0.65738 0.64249 0.0
C901 C 0.49763 0.70016 0.64252 0.0
C902 C 0.76181 0.40843 0.15047 0.0
C903 C 0.80355 0.42712 0.14737 0.0
C904 C 0.74227 0.43052 0.15137 0.0
C905 C 0.76347 0.47232 0.14962 0.0
H906 H 0.74364 0.37631 0.15019 0.0
H907 H 0.70998 0.41456 0.15096 0.0
S908 S 0.87327 0.53661 0.14535 0.0
N909 N 0.86591 0.49071 0.1458 0.0
N910 N 0.82854 0.53213 0.1475 0.0
C911 C 0.8053 0.49184 0.14917 0.0
C912 C 0.82549 0.46925 0.14813 0.0
C913 C 0.36844 0.75913 0.65245 0.0
C914 C 0.38872 0.79928 0.64273 0.0
C915 C 0.32681 0.7373 0.65364 0.0
C916 C 0.3037 0.75482 0.64546 0.0
H917 H 0.38474 0.7439 0.6578 0.0
H918 H 0.31259 0.70577 0.65915 0.0
S919 S 0.34259 0.86134 0.62503 0.0
N920 N 0.38296 0.85747 0.62951 0.0
N921 N 0.30434 0.81647 0.63247 0.0
C922 C 0.32363 0.79612 0.63934 0.0
C923 C 0.36629 0.81838 0.63782 0.0
C924 C 0.14902 0.45751 0.24467 0.0
C925 C 0.16077 0.49298 0.22723 0.0
C926 C 0.14941 0.45737 0.27896 0.0
C927 C 0.1616 0.49269 0.29688 0.0
H928 H 0.13835 0.42953 0.23181 0.0
H929 H 0.13911 0.42924 0.29147 0.0
S930 S 0.20069 0.5943 0.26254 0.0
N931 N 0.18875 0.5649 0.23033 0.0
N932 N 0.18947 0.56463 0.29449 0.0
C933 C 0.17509 0.52858 0.27962 0.0
C934 C 0.1747 0.52872 0.24487 0.0
C935 C 0.70203 0.14931 0.78443 0.0
C936 C 0.67649 0.15827 0.80248 0.0
C937 C 0.70166 0.14915 0.75017 0.0
C938 C 0.67571 0.1579 0.73259 0.0
H939 H 0.72211 0.14176 0.79681 0.0
H940 H 0.72141 0.14144 0.73742 0.0
S941 S 0.60554 0.18702 0.76813 0.0
N942 N 0.62638 0.17871 0.80005 0.0
N943 N 0.62559 0.17828 0.73588 0.0
C944 C 0.65072 0.16788 0.75034 0.0
C945 C 0.65113 0.1681 0.78517 0.0
C946 C 0.5273 0.64226 0.24499 0.0
C947 C 0.53316 0.67591 0.22715 0.0
C948 C 0.52791 0.64234 0.27929 0.0
C949 C 0.5344 0.67607 0.29734 0.0
H950 H 0.52206 0.61544 0.23242 0.0
H951 H 0.52304 0.61556 0.29169 0.0
S952 S 0.55085 0.77192 0.26253 0.0
N953 N 0.5454 0.74396 0.23039 0.0
N954 N 0.5466 0.74416 0.29449 0.0
C955 C 0.54045 0.71003 0.27979 0.0
C956 C 0.53982 0.70993 0.24489 0.0
C957 C 0.83909 0.53135 0.75218 0.0
C958 C 0.87122 0.534 0.73405 0.0
C959 C 0.83952 0.53135 0.78639 0.0
C960 C 0.87209 0.534 0.80392 0.0
H961 H 0.8129 0.52829 0.73989 0.0
H962 H 0.81361 0.52832 0.79915 0.0
S963 S 0.96575 0.54619 0.76812 0.0
N964 N 0.938 0.54256 0.73626 0.0
N965 N 0.93869 0.54246 0.80051 0.0
C966 C 0.90501 0.53799 0.78613 0.0
C967 C 0.90461 0.53803 0.75125 0.0
C968 C 0.31464 0.83796 0.28445 0.0
C969 C 0.34668 0.86812 0.30227 0.0
C970 C 0.31425 0.83806 0.25017 0.0
C971 C 0.34591 0.86829 0.23206 0.0
H972 H 0.28979 0.81356 0.29701 0.0
H973 H 0.28915 0.81367 0.2378 0.0
S974 S 0.4357 0.95599 0.26673 0.0
N975 N 0.41013 0.93038 0.29896 0.0
N976 N 0.40934 0.93051 0.23475 0.0
C977 C 0.37774 0.8992 0.24953 0.0
C978 C 0.37814 0.89913 0.28449 0.0
C979 C 0.47649 0.31113 0.75125 0.0
C980 C 0.49503 0.34705 0.73344 0.0
C981 C 0.47629 0.31109 0.78565 0.0
C982 C 0.49398 0.34698 0.80366 0.0
H983 H 0.46266 0.28279 0.73855 0.0
H984 H 0.46204 0.28266 0.79819 0.0
S985 S 0.54548 0.44927 0.76878 0.0
N986 N 0.53096 0.41959 0.73664 0.0
N987 N 0.53024 0.41945 0.8008 0.0
C988 C 0.51206 0.38308 0.78609 0.0
C989 C 0.51269 0.38313 0.75118 0.0
C990 C 0.55684 0.85047 0.78043 0.0
C991 C 0.53578 0.86472 0.79886 0.0
C992 C 0.55587 0.8502 0.7461 0.0
C993 C 0.53328 0.86356 0.72886 0.0
H994 H 0.57438 0.83955 0.79257 0.0
H995 H 0.57252 0.83891 0.73303 0.0
S996 S 0.4725 0.90363 0.76563 0.0
N997 N 0.49162 0.89251 0.79717 0.0
N998 N 0.48958 0.89188 0.73308 0.0
C999 C 0.5121 0.87792 0.74707 0.0
C1000 C 0.51342 0.87855 0.7819 0.0
C1001 C 0.71131 0.54754 0.25153 0.0
C1002 C 0.67507 0.52437 0.23472 0.0
C1003 C 0.71273 0.54896 0.28584 0.0
C1004 C 0.67787 0.5278 0.30472 0.0
H1005 H 0.73894 0.56442 0.23811 0.0
H1006 H 0.74135 0.56703 0.29762 0.0
S1007 S 0.57532 0.46245 0.27288 0.0
N1008 N 0.60338 0.47952 0.23991 0.0
N1009 N 0.60609 0.48251 0.30401 0.0
C1010 C 0.64143 0.50465 0.28824 0.0
C1011 C 0.64002 0.50282 0.2534 0.0
C1012 C 0.17512 0.70312 0.78214 0.0
C1013 C 0.15975 0.66694 0.79942 0.0
C1014 C 0.17469 0.70388 0.74782 0.0
C1015 C 0.15823 0.66844 0.72932 0.0
H1016 H 0.18814 0.7312 0.79521 0.0
H1017 H 0.18723 0.73253 0.73572 0.0
S1018 S 0.11328 0.56565 0.76265 0.0
N1019 N 0.12712 0.5946 0.79523 0.0
N1020 N 0.12597 0.59604 0.73106 0.0
C1021 C 0.14232 0.63202 0.74632 0.0
C1022 C 0.1432 0.63127 0.78121 0.0
C1023 C 0.47506 0.1673 0.28326 0.0
C1024 C 0.4932 0.15022 0.30205 0.0
C1025 C 0.4765 0.16745 0.24894 0.0
C1026 C 0.49679 0.15123 0.23197 0.0
H1027 H 0.45946 0.18055 0.29513 0.0
H1028 H 0.46213 0.181 0.23562 0.0
S1029 S 0.54941 0.10298 0.2696 0.0
N1030 N 0.532 0.11647 0.30092 0.0
N1031 N 0.5351 0.11719 0.23676 0.0
C1032 C 0.51507 0.13407 0.25048 0.0
C1033 C 0.51315 0.13343 0.28536 0.0
C1034 C 0.37973 0.52299 0.74555 0.0
C1035 C 0.35066 0.49032 0.7277 0.0
C1036 C 0.38013 0.52263 0.77963 0.0
C1037 C 0.35148 0.48958 0.79751 0.0
H1038 H 0.40253 0.54929 0.73317 0.0
H1039 H 0.40324 0.54874 0.792 0.0
S1040 S 0.2687 0.39622 0.76266 0.0
N1041 N 0.29215 0.42377 0.73053 0.0
N1042 N 0.29299 0.42322 0.79479 0.0
C1043 C 0.32194 0.45673 0.78009 0.0
C1044 C 0.32153 0.45706 0.74519 0.0
C1045 C 0.85677 0.31026 0.24945 0.0
C1046 C 0.87136 0.34678 0.23288 0.0
C1047 C 0.85661 0.30869 0.28363 0.0
C1048 C 0.87161 0.34365 0.30253 0.0
H1049 H 0.84469 0.28254 0.23595 0.0
H1050 H 0.84463 0.27984 0.29531 0.0
S1051 S 0.91417 0.44701 0.27103 0.0
N1052 N 0.90187 0.41888 0.238 0.0
N1053 N 0.90179 0.41594 0.30211 0.0
C1054 C 0.88689 0.38044 0.28625 0.0
C1055 C 0.88666 0.382 0.25149 0.0
C1056 C 0.99313 0.35744 0.15318 0.0
C1057 C 0.97033 0.35544 0.12581 0.0
C1058 C 0.03498 0.37804 0.15182 0.0
C1059 C 0.05535 0.39745 0.12309 0.0
H1060 H 0.9787 0.34635 0.17658 0.0
H1061 H 0.05148 0.38239 0.17429 0.0
S1062 S 1.00922 0.39803 0.04408 0.0
N1063 N 0.97087 0.37155 0.06851 0.0
N1064 N 0.04964 0.41059 0.06605 0.0
C1065 C 0.03284 0.39256 0.09483 0.0
C1066 C 0.99019 0.37148 0.09618 0.0
C1067 C 0.63586 0.98975 0.59995 0.0
C1068 C 0.62728 0.96749 0.62901 0.0
C1069 C 0.65631 0.03188 0.60059 0.0
C1070 C 0.66872 0.05294 0.63031 0.0
H1071 H 0.62323 0.97463 0.57706 0.0
H1072 H 0.65881 0.0478 0.57815 0.0
S1073 S 0.65721 1.00861 0.71253 0.0
N1074 N 0.63603 0.96976 0.68775 0.0
N1075 N 0.67416 0.04842 0.68893 0.0
C1076 C 0.6633 0.03099 0.65903 0.0
C1077 C 0.64266 0.98839 0.65838 0.0
C1078 C 0.66237 0.63947 0.15205 0.0
C1079 C 0.66288 0.61516 0.12665 0.0
C1080 C 0.63947 0.65851 0.14963 0.0
C1081 C 0.61544 0.65286 0.12209 0.0
H1082 H 0.67709 0.64109 0.17497 0.0
H1083 H 0.63755 0.67442 0.17069 0.0
S1084 S 0.60897 0.59488 0.04793 0.0
N1085 N 0.64019 0.58953 0.07207 0.0
N1086 N 0.59629 0.624 0.06789 0.0
C1087 C 0.61797 0.63094 0.0957 0.0
C1088 C 0.64188 0.61238 0.0979 0.0
C1089 C 0.03347 0.63714 0.59663 0.0
C1090 C 0.05634 0.65572 0.62462 0.0
C1091 C 0.99166 0.61649 0.59769 0.0
C1092 C 0.9711 0.61369 0.62677 0.0
H1093 H 0.04798 0.63548 0.57451 0.0
H1094 H 0.97534 0.59961 0.57636 0.0
S1095 S 0.01689 0.66003 0.70606 0.0
N1096 N 0.05538 0.67281 0.68155 0.0
N1097 N 0.97655 0.63392 0.6835 0.0
C1098 C 0.99345 0.63518 0.65413 0.0
C1099 C 0.03623 0.65629 0.65306 0.0
C1100 C 0.40373 0.03105 0.0974 0.0
C1101 C 0.40555 0.0514 0.12633 0.0
C1102 C 0.38353 0.98915 0.09641 0.0
C1103 C 0.36405 0.96621 0.1242 0.0
H1104 H 0.42131 0.04751 0.07641 0.0
H1105 H 0.38591 0.97467 0.07456 0.0
S1106 S 0.35752 1.00539 0.20509 0.0
N1107 N 0.38424 0.04572 0.18273 0.0
N1108 N 0.3454 0.967 0.18067 0.0
C1109 C 0.36272 0.98621 0.15238 0.0
C1110 C 0.38381 0.02887 0.15351 0.0
C1111 C 0.39441 0.36683 0.5995 0.0
C1112 C 0.40137 0.35385 0.62963 0.0
C1113 C 0.3741 0.38858 0.59799 0.0
C1114 C 0.36012 0.39782 0.62654 0.0
H1115 H 0.40826 0.36382 0.57752 0.0
H1116 H 0.37288 0.40155 0.57488 0.0
S1117 S 0.36683 0.3667 0.71071 0.0
N1118 N 0.38939 0.34856 0.68802 0.0
N1119 N 0.35122 0.38901 0.68515 0.0
C1120 C 0.36376 0.38183 0.65625 0.0
C1121 C 0.38439 0.35992 0.6578 0.0
C1122 C 0.64432 0.98781 0.88028 0.0
C1123 C 0.62029 0.96718 0.90724 0.0
C1124 C 0.66668 0.02983 0.87998 0.0
C1125 C 0.66642 0.05235 0.90691 0.0
H1126 H 0.64272 0.97174 0.85814 0.0
H1127 H 0.68145 0.04481 0.85757 0.0
S1128 S 0.61249 0.01218 0.98482 0.0
N1129 N 0.60066 0.97218 0.96256 0.0
N1130 N 0.64327 0.05077 0.96219 0.0
C1131 C 0.64551 0.03184 0.935 0.0
C1132 C 0.62233 0.98931 0.93514 0.0
C1133 C 0.61945 0.63731 0.4351 0.0
C1134 C 0.61795 0.65612 0.40619 0.0
C1135 C 0.64135 0.61742 0.43684 0.0
C1136 C 0.66255 0.61534 0.40969 0.0
H1137 H 0.60078 0.63503 0.45568 0.0
H1138 H 0.63868 0.60044 0.45867 0.0
S1139 S 0.67158 0.66312 0.32931 0.0
N1140 N 0.64253 0.67463 0.35076 0.0
N1141 N 0.68364 0.63697 0.35395 0.0
C1142 C 0.66438 0.63716 0.38162 0.0
C1143 C 0.64202 0.6576 0.37987 0.0
C1144 C 0.99686 0.61904 0.93601 0.0
C1145 C 0.97263 0.61389 0.90866 0.0
C1146 C 0.03879 0.64143 0.934 0.0
C1147 C 0.05806 0.65893 0.90442 0.0
H1148 H 0.98337 0.60317 0.95845 0.0
H1149 H 0.05619 0.6417 0.95484 0.0
S1150 S 1.00847 0.6557 0.82612 0.0
N1151 N 0.97113 0.63025 0.85168 0.0
N1152 N 0.04975 0.67112 0.84766 0.0
C1153 C 0.03418 0.65607 0.87751 0.0
C1154 C 0.9915 0.63391 0.8797 0.0
C1155 C 0.36106 0.98825 0.38285 0.0
C1156 C 0.36108 0.96667 0.41053 0.0
C1157 C 0.382 0.03037 0.38296 0.0
C1158 C 0.40344 0.05186 0.41074 0.0
H1159 H 0.34873 0.97279 0.36003 0.0
H1160 H 0.38515 0.04593 0.36019 0.0
S1161 S 0.40684 1.00909 0.49078 0.0
N1162 N 0.37956 0.96983 0.4675 0.0
N1163 N 0.41855 0.04844 0.46773 0.0
C1164 C 0.39964 0.03044 0.43948 0.0
C1165 C 0.37855 0.98793 0.43936 0.0
C1166 C 0.36254 0.37598 0.88009 0.0
C1167 C 0.36127 0.39864 0.90648 0.0
C1168 C 0.3838 0.35537 0.88233 0.0
C1169 C 0.40513 0.35769 0.91081 0.0
H1170 H 0.35035 0.37739 0.85663 0.0
H1171 H 0.38744 0.34167 0.8605 0.0
S1172 S 0.40721 0.40914 0.98777 0.0
N1173 N 0.3792 0.41841 0.9629 0.0
N1174 N 0.41986 0.38053 0.967 0.0
C1175 C 0.40071 0.37696 0.93829 0.0
C1176 C 0.37863 0.39736 0.93613 0.0
C1177 C 0.99501 0.37868 0.43466 0.0
C1178 C 0.9706 0.35763 0.4079 0.0
C1179 C 0.03687 0.39843 0.43242 0.0
C1180 C 0.05586 0.39818 0.40324 0.0
H1181 H 0.98168 0.38249 0.45665 0.0
H1182 H 0.05439 0.41707 0.45261 0.0
S1183 S 1.00593 0.34539 0.32693 0.0
N1184 N 0.96872 0.33529 0.35218 0.0
N1185 N 0.04735 0.37326 0.34778 0.0
C1186 C 0.03192 0.375 0.37713 0.0
C1187 C 0.98927 0.35437 0.37954 0.0
C1188 C 0.24253 0.44315 1.00011 0.0
C1189 C 0.27214 0.47915 0.98618 0.0
C1190 C 0.2179 0.44327 0.0256 0.0
C1191 C 0.22136 0.47928 0.03684 0.0
H1192 H 0.23897 0.415 0.99175 0.0
H1193 H 0.19592 0.41519 0.03631 0.0
S1194 S 0.29379 0.58141 1.00762 0.0
N1195 N 0.30319 0.55151 0.9855 0.0
N1196 N 0.25689 0.55171 0.03197 0.0
C1197 C 0.25053 0.51523 0.02255 0.0
C1198 C 0.27584 0.51516 0.99754 0.0
C1199 C 0.76857 0.21341 0.4832 0.0
C1200 C 0.80663 0.24764 0.48489 0.0
C1201 C 0.74728 0.19416 0.51155 0.0
C1202 C 0.76332 0.20831 0.54278 0.0
H1203 H 0.75358 0.20367 0.4599 0.0
H1204 H 0.71685 0.16983 0.50902 0.0
S1205 S 0.8635 0.29475 0.56038 0.0
N1206 N 0.86076 0.29312 0.52009 0.0
N1207 N 0.82118 0.2567 0.57356 0.0
C1208 C 0.80283 0.24037 0.54477 0.0
C1209 C 0.82437 0.26015 0.51575 0.0
C1210 C 0.5596 0.79905 0.04428 0.0
C1211 C 0.56894 0.76826 0.04352 0.0
C1212 C 0.5611 0.82016 0.01596 0.0
C1213 C 0.57212 0.81148 0.98568 0.0
H1214 H 0.54723 0.8042 0.06626 0.0
H1215 H 0.54955 0.84048 0.01712 0.0
S1216 S 0.60535 0.73807 0.97143 0.0
N1217 N 0.59427 0.73351 1.01076 0.0
N1218 N 0.59709 0.77332 0.95738 0.0
C1219 C 0.58541 0.78365 0.9852 0.0
C1220 C 0.58385 0.762 1.01418 0.0
C1221 C 0.82476 0.55119 0.51568 0.0
C1222 C 0.81667 0.56314 0.54578 0.0
C1223 C 0.80518 0.55167 0.48697 0.0
C1224 C 0.77636 0.5638 0.48713 0.0
H1225 H 0.84356 0.53781 0.51486 0.0
H1226 H 0.8097 0.53864 0.4651 0.0
S1227 S 0.74832 0.60296 0.55875 0.0
N1228 N 0.78124 0.59164 0.5734 0.0
N1229 N 0.74407 0.59223 0.51935 0.0
C1230 C 0.77074 0.57934 0.5164 0.0
C1231 C 0.79094 0.57901 0.54577 0.0
C1232 C 0.20081 0.74082 0.02178 0.0
C1233 C 0.21449 0.75609 0.99028 0.0
C1234 C 0.22038 0.76282 0.04986 0.0
C1235 C 0.25455 0.80092 0.04773 0.0
H1236 H 0.17642 0.71052 0.02479 0.0
H1237 H 0.2108 0.7484 0.07337 0.0
S1238 S 0.30126 0.85561 0.97132 0.0
N1239 N 0.26293 0.81311 0.95875 0.0
N1240 N 0.29994 0.85388 1.01164 0.0
C1241 C 0.2669 0.81771 0.01653 0.0
C1242 C 0.24676 0.79547 0.98779 0.0
C1243 C 0.45598 0.22169 0.544 0.0
C1244 C 0.46397 0.26135 0.54093 0.0
C1245 C 0.45605 0.19971 0.51648 0.0
C1246 C 0.46312 0.21625 0.48491 0.0
H1247 H 0.45329 0.20884 0.568 0.0
H1248 H 0.45381 0.17095 0.52025 0.0
S1249 S 0.48061 0.31671 0.46327 0.0
N1250 N 0.47521 0.31443 0.50332 0.0
N1251 N 0.47489 0.27317 0.45201 0.0
C1252 C 0.46771 0.25442 0.48135 0.0
C1253 C 0.46812 0.27689 0.50921 0.0
C1254 C 0.7461 0.55244 1.01202 0.0
C1255 C 0.76197 0.55706 0.04368 0.0
C1256 C 0.768 0.55324 0.98443 0.0
C1257 C 0.80667 0.55873 0.98722 0.0
H1258 H 0.71541 0.54523 1.00867 0.0
H1259 H 0.75318 0.54596 0.96098 0.0
S1260 S 0.86351 0.57583 0.06394 0.0
N1261 N 0.82041 0.57082 0.07585 0.0
N1262 N 0.8611 0.57173 0.02375 0.0
C1263 C 0.82416 0.56653 0.01833 0.0
C1264 C 0.80195 0.56596 0.04661 0.0
C1265 C 0.25993 0.79673 0.54858 0.0
C1266 C 0.21985 0.76591 0.54718 0.0
C1267 C 0.28031 0.81812 0.52058 0.0
C1268 C 0.26146 0.80961 0.48994 0.0
H1269 H 0.27681 0.80175 0.57086 0.0
H1270 H 0.31211 0.83882 0.52238 0.0
S1271 S 0.15564 0.73474 0.47366 0.0
N1272 N 0.16104 0.73038 0.51321 0.0
N1273 N 0.19931 0.77067 0.46038 0.0
C1274 C 0.22045 0.78131 0.48866 0.0
C1275 C 0.19964 0.75941 0.51734 0.0
C1276 C 0.47528 0.20103 1.00946 0.0
C1277 C 0.46591 0.20811 0.0411 0.0
C1278 C 0.47481 0.22322 0.9826 0.0
C1279 C 0.46478 0.25328 0.98611 0.0
H1280 H 0.48606 0.18031 1.00578 0.0
H1281 H 0.48584 0.21925 0.95942 0.0
S1282 S 0.43169 0.27946 0.06231 0.0
N1283 N 0.44109 0.24394 0.07343 0.0
N1284 N 0.4409 0.286 0.02272 0.0
C1285 C 0.45167 0.25814 0.01682 0.0
C1286 C 0.4519 0.23533 0.04435 0.0
C1287 C 0.20211 0.45455 0.51636 0.0
C1288 C 0.216 0.45655 0.48427 0.0
C1289 C 0.22448 0.45443 0.54332 0.0
C1290 C 0.26207 0.45759 0.53909 0.0
H1291 H 0.17498 0.45554 0.52067 0.0
H1292 H 0.21392 0.45547 0.56759 0.0
S1293 S 0.31021 0.46005 0.46028 0.0
N1294 N 0.26794 0.45792 0.44986 0.0
N1295 N 0.31051 0.45925 0.50058 0.0
C1296 C 0.27496 0.45688 0.50719 0.0
C1297 C 0.25177 0.45596 0.47974 0.0
C1298 C 0.82516 0.27396 1.01159 0.0
C1299 C 0.81508 0.25885 0.04355 0.0
C1300 C 0.80457 0.25042 0.98452 0.0
C1301 C 0.77254 0.21135 0.9885 0.0
H1302 H 0.84741 0.30494 1.00759 0.0
H1303 H 0.81133 0.26413 0.96064 0.0
S1304 S 0.73879 0.15547 0.06617 0.0
N1305 N 0.77487 0.20018 0.07706 0.0
N1306 N 0.73505 0.15683 0.02608 0.0
C1307 C 0.76442 0.19479 0.01992 0.0
C1308 C 0.78605 0.21833 0.04748 0.0
C1309 C 0.55473 0.79801 0.47739 0.0
C1310 C 0.5645 0.76769 0.48019 0.0
C1311 C 0.55587 0.82076 0.50442 0.0
C1312 C 0.56638 0.81385 0.53566 0.0
H1313 H 0.54276 0.80188 0.45469 0.0
H1314 H 0.54526 0.84169 0.50126 0.0
S1315 S 0.60104 0.74232 0.55485 0.0
N1316 N 0.58999 0.73531 0.51554 0.0
N1317 N 0.59223 0.778 0.56671 0.0
C1318 C 0.58017 0.78635 0.53813 0.0
C1319 C 0.57902 0.76315 0.51034 0.0
loop_
_geom_bond_atom_site_label_1
_geom_bond_atom_site_label_2
_geom_bond_distance
_geom_bond_site_symmetry_2
_ccdc_geom_bond_type
Fe0 O2 1.918 . S
Fe0 O5 1.997 . S
Fe0 O6 2.002 . S
Fe0 O11 1.976 . S
Fe0 O14 1.996 . S
Fe1 O2 1.918 . S
Fe1 O9 1.997 . S
Fe1 O12 1.996 . S
Fe1 O16 1.976 . S
Fe1 O19 2.002 . S
O2 Fe0 1.918 . S
O2 Fe1 1.918 . S
O2 Fe3 1.918 . S
Fe3 O2 1.918 . S
Fe3 O4 2.002 . S
Fe3 O13 1.976 . S
Fe3 O17 1.996 . S
Fe3 O20 1.997 . S
O4 Fe3 2.002 . S
O4 C21 1.295 . S
O5 Fe0 1.997 . S
O5 C21 1.235 . S
O6 Fe0 2.002 . S
O6 C7 1.295 . S
C7 O6 1.295 . S
C7 O9 1.235 . S
C8 O13 1.287 . S
C8 O14 1.255 . S
O9 Fe1 1.997 . S
O9 C7 1.235 . S
C10 O16 1.287 . S
C10 O17 1.255 . S
O11 Fe0 1.976 . S
O11 C18 1.287 . S
O12 Fe1 1.996 . S
O12 C18 1.255 . S
O13 Fe3 1.976 . S
O13 C8 1.287 . S
O14 Fe0 1.996 . S
O14 C8 1.255 . S
C15 O19 1.295 . S
C15 O20 1.235 . S
O16 Fe1 1.976 . S
O16 C10 1.287 . S
O17 Fe3 1.996 . S
O17 C10 1.255 . S
C18 O11 1.287 . S
C18 O12 1.255 . S
O19 Fe1 2.002 . S
O19 C15 1.295 . S
O20 Fe3 1.997 . S
O20 C15 1.235 . S
C21 O4 1.295 . S
C21 O5 1.235 . S
Fe22 O24 1.918 . S
Fe22 O27 1.997 . S
Fe22 O28 2.002 . S
Fe22 O33 1.976 . S
Fe22 O36 1.996 . S
Fe23 O24 1.918 . S
Fe23 O31 1.997 . S
Fe23 O34 1.996 . S
Fe23 O38 1.976 . S
Fe23 O41 2.002 . S
O24 Fe22 1.918 . S
O24 Fe23 1.918 . S
O24 Fe25 1.918 . S
Fe25 O24 1.918 . S
Fe25 O26 2.002 . S
Fe25 O35 1.976 . S
Fe25 O39 1.996 . S
Fe25 O42 1.997 . S
O26 Fe25 2.002 . S
O26 C43 1.295 . S
O27 Fe22 1.997 . S
O27 C43 1.235 . S
O28 Fe22 2.002 . S
O28 C29 1.295 . S
C29 O28 1.295 . S
C29 O31 1.235 . S
C30 O35 1.287 . S
C30 O36 1.255 . S
O31 Fe23 1.997 . S
O31 C29 1.235 . S
C32 O38 1.287 . S
C32 O39 1.255 . S
O33 Fe22 1.976 . S
O33 C40 1.287 . S
O34 Fe23 1.996 . S
O34 C40 1.255 . S
O35 Fe25 1.976 . S
O35 C30 1.287 . S
O36 Fe22 1.996 . S
O36 C30 1.255 . S
C37 O41 1.295 . S
C37 O42 1.235 . S
O38 Fe23 1.976 . S
O38 C32 1.287 . S
O39 Fe25 1.996 . S
O39 C32 1.255 . S
C40 O33 1.287 . S
C40 O34 1.255 . S
O41 Fe23 2.002 . S
O41 C37 1.295 . S
O42 Fe25 1.997 . S
O42 C37 1.235 . S
C43 O26 1.295 . S
C43 O27 1.235 . S
Fe44 O46 1.918 . S
Fe44 O49 1.997 . S
Fe44 O50 2.002 . S
Fe44 O55 1.976 . S
Fe44 O58 1.996 . S
Fe45 O46 1.918 . S
Fe45 O53 1.997 . S
Fe45 O56 1.996 . S
Fe45 O60 1.976 . S
Fe45 O63 2.002 . S
O46 Fe44 1.918 . S
O46 Fe45 1.918 . S
O46 Fe47 1.918 . S
Fe47 O46 1.918 . S
Fe47 O48 2.002 . S
Fe47 O57 1.976 . S
Fe47 O61 1.996 . S
Fe47 O64 1.997 . S
O48 Fe47 2.002 . S
O48 C65 1.295 . S
O49 Fe44 1.997 . S
O49 C65 1.235 . S
O50 Fe44 2.002 . S
O50 C51 1.295 . S
C51 O50 1.295 . S
C51 O53 1.235 . S
C52 O57 1.287 . S
C52 O58 1.255 . S
O53 Fe45 1.997 . S
O53 C51 1.235 . S
C54 O60 1.287 . S
C54 O61 1.255 . S
O55 Fe44 1.976 . S
O55 C62 1.287 . S
O56 Fe45 1.996 . S
O56 C62 1.255 . S
O57 Fe47 1.976 . S
O57 C52 1.287 . S
O58 Fe44 1.996 . S
O58 C52 1.255 . S
C59 O63 1.295 . S
C59 O64 1.235 . S
O60 Fe45 1.976 . S
O60 C54 1.287 . S
O61 Fe47 1.996 . S
O61 C54 1.255 . S
C62 O55 1.287 . S
C62 O56 1.255 . S
O63 Fe45 2.002 . S
O63 C59 1.295 . S
O64 Fe47 1.997 . S
O64 C59 1.235 . S
C65 O48 1.295 . S
C65 O49 1.235 . S
Fe66 O68 1.918 . S
Fe66 O71 1.997 . S
Fe66 O72 2.002 . S
Fe66 O77 1.976 . S
Fe66 O80 1.996 . S
Fe67 O68 1.918 . S
Fe67 O75 1.997 . S
Fe67 O78 1.996 . S
Fe67 O82 1.976 . S
Fe67 O85 2.002 . S
O68 Fe66 1.918 . S
O68 Fe67 1.918 . S
O68 Fe69 1.918 . S
Fe69 O68 1.918 . S
Fe69 O70 2.002 . S
Fe69 O79 1.976 . S
Fe69 O83 1.996 . S
Fe69 O86 1.997 . S
O70 Fe69 2.002 . S
O70 C87 1.295 . S
O71 Fe66 1.997 . S
O71 C87 1.235 . S
O72 Fe66 2.002 . S
O72 C73 1.295 . S
C73 O72 1.295 . S
C73 O75 1.235 . S
C74 O79 1.287 . S
C74 O80 1.255 . S
O75 Fe67 1.997 . S
O75 C73 1.235 . S
C76 O82 1.287 . S
C76 O83 1.255 . S
O77 Fe66 1.976 . S
O77 C84 1.287 . S
O78 Fe67 1.996 . S
O78 C84 1.255 . S
O79 Fe69 1.976 . S
O79 C74 1.287 . S
O80 Fe66 1.996 . S
O80 C74 1.255 . S
C81 O85 1.295 . S
C81 O86 1.235 . S
O82 Fe67 1.976 . S
O82 C76 1.287 . S
O83 Fe69 1.996 . S
O83 C76 1.255 . S
C84 O77 1.287 . S
C84 O78 1.255 . S
O85 Fe67 2.002 . S
O85 C81 1.295 . S
O86 Fe69 1.997 . S
O86 C81 1.235 . S
C87 O70 1.295 . S
C87 O71 1.235 . S
Fe88 O90 1.918 . S
Fe88 O93 1.997 . S
Fe88 O94 2.002 . S
Fe88 O99 1.976 . S
Fe88 O102 1.996 . S
Fe89 O90 1.918 . S
Fe89 O97 1.997 . S
Fe89 O100 1.996 . S
Fe89 O104 1.976 . S
Fe89 O107 2.002 . S
O90 Fe88 1.918 . S
O90 Fe89 1.918 . S
O90 Fe91 1.918 . S
Fe91 O90 1.918 . S
Fe91 O92 2.002 . S
Fe91 O101 1.976 . S
Fe91 O105 1.996 . S
Fe91 O108 1.997 . S
O92 Fe91 2.002 . S
O92 C109 1.295 . S
O93 Fe88 1.997 . S
O93 C109 1.235 . S
O94 Fe88 2.002 . S
O94 C95 1.295 . S
C95 O94 1.295 . S
C95 O97 1.235 . S
C96 O101 1.287 . S
C96 O102 1.255 . S
O97 Fe89 1.997 . S
O97 C95 1.235 . S
C98 O104 1.287 . S
C98 O105 1.255 . S
O99 Fe88 1.976 . S
O99 C106 1.287 . S
O100 Fe89 1.996 . S
O100 C106 1.255 . S
O101 Fe91 1.976 . S
O101 C96 1.287 . S
O102 Fe88 1.996 . S
O102 C96 1.255 . S
C103 O107 1.295 . S
C103 O108 1.235 . S
O104 Fe89 1.976 . S
O104 C98 1.287 . S
O105 Fe91 1.996 . S
O105 C98 1.255 . S
C106 O99 1.287 . S
C106 O100 1.255 . S
O107 Fe89 2.002 . S
O107 C103 1.295 . S
O108 Fe91 1.997 . S
O108 C103 1.235 . S
C109 O92 1.295 . S
C109 O93 1.235 . S
Fe110 O112 1.918 . S
Fe110 O115 1.997 . S
Fe110 O116 2.002 . S
Fe110 O121 1.976 . S
Fe110 O124 1.996 . S
Fe111 O112 1.918 . S
Fe111 O119 1.997 . S
Fe111 O122 1.996 . S
Fe111 O126 1.976 . S
Fe111 O129 2.002 . S
O112 Fe110 1.918 . S
O112 Fe111 1.918 . S
O112 Fe113 1.918 . S
Fe113 O112 1.918 . S
Fe113 O114 2.002 . S
Fe113 O123 1.976 . S
Fe113 O127 1.996 . S
Fe113 O130 1.997 . S
O114 Fe113 2.002 . S
O114 C131 1.295 . S
O115 Fe110 1.997 . S
O115 C131 1.235 . S
O116 Fe110 2.002 . S
O116 C117 1.295 . S
C117 O116 1.295 . S
C117 O119 1.235 . S
C118 O123 1.287 . S
C118 O124 1.255 . S
O119 Fe111 1.997 . S
O119 C117 1.235 . S
C120 O126 1.287 . S
C120 O127 1.255 . S
O121 Fe110 1.976 . S
O121 C128 1.287 . S
O122 Fe111 1.996 . S
O122 C128 1.255 . S
O123 Fe113 1.976 . S
O123 C118 1.287 . S
O124 Fe110 1.996 . S
O124 C118 1.255 . S
C125 O129 1.295 . S
C125 O130 1.235 . S
O126 Fe111 1.976 . S
O126 C120 1.287 . S
O127 Fe113 1.996 . S
O127 C120 1.255 . S
C128 O121 1.287 . S
C128 O122 1.255 . S
O129 Fe111 2.002 . S
O129 C125 1.295 . S
O130 Fe113 1.997 . S
O130 C125 1.235 . S
C131 O114 1.295 . S
C131 O115 1.235 . S
Fe132 O134 1.918 . S
Fe132 O137 1.997 . S
Fe132 O138 2.002 . S
Fe132 O143 1.976 . S
Fe132 O146 1.996 . S
Fe133 O134 1.918 . S
Fe133 O141 1.997 . S
Fe133 O144 1.996 . S
Fe133 O148 1.976 . S
Fe133 O151 2.002 . S
O134 Fe132 1.918 . S
O134 Fe133 1.918 . S
O134 Fe135 1.918 . S
Fe135 O134 1.918 . S
Fe135 O136 2.002 . S
Fe135 O145 1.976 . S
Fe135 O149 1.996 . S
Fe135 O152 1.997 . S
O136 Fe135 2.002 . S
O136 C153 1.295 . S
O137 Fe132 1.997 . S
O137 C153 1.235 . S
O138 Fe132 2.002 . S
O138 C139 1.295 . S
C139 O138 1.295 . S
C139 O141 1.235 . S
C140 O145 1.287 . S
C140 O146 1.255 . S
O141 Fe133 1.997 . S
O141 C139 1.235 . S
C142 O148 1.287 . S
C142 O149 1.255 . S
O143 Fe132 1.976 . S
O143 C150 1.287 . S
O144 Fe133 1.996 . S
O144 C150 1.255 . S
O145 Fe135 1.976 . S
O145 C140 1.287 . S
O146 Fe132 1.996 . S
O146 C140 1.255 . S
C147 O151 1.295 . S
C147 O152 1.235 . S
O148 Fe133 1.976 . S
O148 C142 1.287 . S
O149 Fe135 1.996 . S
O149 C142 1.255 . S
C150 O143 1.287 . S
C150 O144 1.255 . S
O151 Fe133 2.002 . S
O151 C147 1.295 . S
O152 Fe135 1.997 . S
O152 C147 1.235 . S
C153 O136 1.295 . S
C153 O137 1.235 . S
Fe154 O156 1.918 . S
Fe154 O159 1.997 . S
Fe154 O160 2.002 . S
Fe154 O165 1.976 . S
Fe154 O168 1.996 . S
Fe155 O156 1.918 . S
Fe155 O163 1.997 . S
Fe155 O166 1.996 . S
Fe155 O170 1.976 . S
Fe155 O173 2.002 . S
O156 Fe154 1.918 . S
O156 Fe155 1.918 . S
O156 Fe157 1.918 . S
Fe157 O156 1.918 . S
Fe157 O158 2.002 . S
Fe157 O167 1.976 . S
Fe157 O171 1.996 . S
Fe157 O174 1.997 . S
O158 Fe157 2.002 . S
O158 C175 1.295 . S
O159 Fe154 1.997 . S
O159 C175 1.235 . S
O160 Fe154 2.002 . S
O160 C161 1.295 . S
C161 O160 1.295 . S
C161 O163 1.235 . S
C162 O167 1.287 . S
C162 O168 1.255 . S
O163 Fe155 1.997 . S
O163 C161 1.235 . S
C164 O170 1.287 . S
C164 O171 1.255 . S
O165 Fe154 1.976 . S
O165 C172 1.287 . S
O166 Fe155 1.996 . S
O166 C172 1.255 . S
O167 Fe157 1.976 . S
O167 C162 1.287 . S
O168 Fe154 1.996 . S
O168 C162 1.255 . S
C169 O173 1.295 . S
C169 O174 1.235 . S
O170 Fe155 1.976 . S
O170 C164 1.287 . S
O171 Fe157 1.996 . S
O171 C164 1.255 . S
C172 O165 1.287 . S
C172 O166 1.255 . S
O173 Fe155 2.002 . S
O173 C169 1.295 . S
O174 Fe157 1.997 . S
O174 C169 1.235 . S
C175 O158 1.295 . S
C175 O159 1.235 . S
Fe176 O178 1.918 . S
Fe176 O181 1.997 . S
Fe176 O182 2.002 . S
Fe176 O187 1.976 . S
Fe176 O190 1.996 . S
Fe177 O178 1.918 . S
Fe177 O185 1.997 . S
Fe177 O188 1.996 . S
Fe177 O192 1.976 . S
Fe177 O195 2.002 . S
O178 Fe176 1.918 . S
O178 Fe177 1.918 . S
O178 Fe179 1.918 . S
Fe179 O178 1.918 . S
Fe179 O180 2.002 . S
Fe179 O189 1.976 . S
Fe179 O193 1.996 . S
Fe179 O196 1.997 . S
O180 Fe179 2.002 . S
O180 C197 1.295 . S
O181 Fe176 1.997 . S
O181 C197 1.235 . S
O182 Fe176 2.002 . S
O182 C183 1.295 . S
C183 O182 1.295 . S
C183 O185 1.235 . S
C184 O189 1.287 . S
C184 O190 1.255 . S
O185 Fe177 1.997 . S
O185 C183 1.235 . S
C186 O192 1.287 . S
C186 O193 1.255 . S
O187 Fe176 1.976 . S
O187 C194 1.287 . S
O188 Fe177 1.996 . S
O188 C194 1.255 . S
O189 Fe179 1.976 . S
O189 C184 1.287 . S
O190 Fe176 1.996 . S
O190 C184 1.255 . S
C191 O195 1.295 . S
C191 O196 1.235 . S
O192 Fe177 1.976 . S
O192 C186 1.287 . S
O193 Fe179 1.996 . S
O193 C186 1.255 . S
C194 O187 1.287 . S
C194 O188 1.255 . S
O195 Fe177 2.002 . S
O195 C191 1.295 . S
O196 Fe179 1.997 . S
O196 C191 1.235 . S
C197 O180 1.295 . S
C197 O181 1.235 . S
Fe198 O200 1.918 . S
Fe198 O203 1.997 . S
Fe198 O204 2.002 . S
Fe198 O209 1.976 . S
Fe198 O212 1.996 . S
Fe199 O200 1.918 . S
Fe199 O207 1.997 . S
Fe199 O210 1.996 . S
Fe199 O214 1.976 . S
Fe199 O217 2.002 . S
O200 Fe198 1.918 . S
O200 Fe199 1.918 . S
O200 Fe201 1.918 . S
Fe201 O200 1.918 . S
Fe201 O202 2.002 . S
Fe201 O211 1.976 . S
Fe201 O215 1.996 . S
Fe201 O218 1.997 . S
O202 Fe201 2.002 . S
O202 C219 1.295 . S
O203 Fe198 1.997 . S
O203 C219 1.235 . S
O204 Fe198 2.002 . S
O204 C205 1.295 . S
C205 O204 1.295 . S
C205 O207 1.235 . S
C206 O211 1.287 . S
C206 O212 1.255 . S
O207 Fe199 1.997 . S
O207 C205 1.235 . S
C208 O214 1.287 . S
C208 O215 1.255 . S
O209 Fe198 1.976 . S
O209 C216 1.287 . S
O210 Fe199 1.996 . S
O210 C216 1.255 . S
O211 Fe201 1.976 . S
O211 C206 1.287 . S
O212 Fe198 1.996 . S
O212 C206 1.255 . S
C213 O217 1.295 . S
C213 O218 1.235 . S
O214 Fe199 1.976 . S
O214 C208 1.287 . S
O215 Fe201 1.996 . S
O215 C208 1.255 . S
C216 O209 1.287 . S
C216 O210 1.255 . S
O217 Fe199 2.002 . S
O217 C213 1.295 . S
O218 Fe201 1.997 . S
O218 C213 1.235 . S
C219 O202 1.295 . S
C219 O203 1.235 . S
Fe220 O222 1.918 . S
Fe220 O225 1.997 . S
Fe220 O226 2.002 . S
Fe220 O231 1.976 . S
Fe220 O234 1.996 . S
Fe221 O222 1.918 . S
Fe221 O229 1.997 . S
Fe221 O232 1.996 . S
Fe221 O236 1.976 . S
Fe221 O239 2.002 . S
O222 Fe220 1.918 . S
O222 Fe221 1.918 . S
O222 Fe223 1.918 . S
Fe223 O222 1.918 . S
Fe223 O224 2.002 . S
Fe223 O233 1.976 . S
Fe223 O237 1.996 . S
Fe223 O240 1.997 . S
O224 Fe223 2.002 . S
O224 C241 1.295 . S
O225 Fe220 1.997 . S
O225 C241 1.235 . S
O226 Fe220 2.002 . S
O226 C227 1.295 . S
C227 O226 1.295 . S
C227 O229 1.235 . S
C228 O233 1.287 . S
C228 O234 1.255 . S
O229 Fe221 1.997 . S
O229 C227 1.235 . S
C230 O236 1.287 . S
C230 O237 1.255 . S
O231 Fe220 1.976 . S
O231 C238 1.287 . S
O232 Fe221 1.996 . S
O232 C238 1.255 . S
O233 Fe223 1.976 . S
O233 C228 1.287 . S
O234 Fe220 1.996 . S
O234 C228 1.255 . S
C235 O239 1.295 . S
C235 O240 1.235 . S
O236 Fe221 1.976 . S
O236 C230 1.287 . S
O237 Fe223 1.996 . S
O237 C230 1.255 . S
C238 O231 1.287 . S
C238 O232 1.255 . S
O239 Fe221 2.002 . S
O239 C235 1.295 . S
O240 Fe223 1.997 . S
O240 C235 1.235 . S
C241 O224 1.295 . S
C241 O225 1.235 . S
Fe242 O244 1.918 . S
Fe242 O247 1.997 . S
Fe242 O248 2.002 . S
Fe242 O253 1.976 . S
Fe242 O256 1.996 . S
Fe243 O244 1.918 . S
Fe243 O251 1.997 . S
Fe243 O254 1.996 . S
Fe243 O258 1.976 . S
Fe243 O261 2.002 . S
O244 Fe242 1.918 . S
O244 Fe243 1.918 . S
O244 Fe245 1.918 . S
Fe245 O244 1.918 . S
Fe245 O246 2.002 . S
Fe245 O255 1.976 . S
Fe245 O259 1.996 . S
Fe245 O262 1.997 . S
O246 Fe245 2.002 . S
O246 C263 1.295 . S
O247 Fe242 1.997 . S
O247 C263 1.235 . S
O248 Fe242 2.002 . S
O248 C249 1.295 . S
C249 O248 1.295 . S
C249 O251 1.235 . S
C250 O255 1.287 . S
C250 O256 1.255 . S
O251 Fe243 1.997 . S
O251 C249 1.235 . S
C252 O258 1.287 . S
C252 O259 1.255 . S
O253 Fe242 1.976 . S
O253 C260 1.287 . S
O254 Fe243 1.996 . S
O254 C260 1.255 . S
O255 Fe245 1.976 . S
O255 C250 1.287 . S
O256 Fe242 1.996 . S
O256 C250 1.255 . S
C257 O261 1.295 . S
C257 O262 1.235 . S
O258 Fe243 1.976 . S
O258 C252 1.287 . S
O259 Fe245 1.996 . S
O259 C252 1.255 . S
C260 O253 1.287 . S
C260 O254 1.255 . S
O261 Fe243 2.002 . S
O261 C257 1.295 . S
O262 Fe245 1.997 . S
O262 C257 1.235 . S
C263 O246 1.295 . S
C263 O247 1.235 . S
Fe264 O266 1.918 . S
Fe264 O269 1.997 . S
Fe264 O270 2.002 . S
Fe264 O275 1.976 . S
Fe264 O278 1.996 . S
Fe265 O266 1.918 . S
Fe265 O273 1.997 . S
Fe265 O276 1.996 . S
Fe265 O280 1.976 . S
Fe265 O283 2.002 . S
O266 Fe264 1.918 . S
O266 Fe265 1.918 . S
O266 Fe267 1.918 . S
Fe267 O266 1.918 . S
Fe267 O268 2.002 . S
Fe267 O277 1.976 . S
Fe267 O281 1.996 . S
Fe267 O284 1.997 . S
O268 Fe267 2.002 . S
O268 C285 1.295 . S
O269 Fe264 1.997 . S
O269 C285 1.235 . S
O270 Fe264 2.002 . S
O270 C271 1.295 . S
C271 O270 1.295 . S
C271 O273 1.235 . S
C272 O277 1.287 . S
C272 O278 1.255 . S
O273 Fe265 1.997 . S
O273 C271 1.235 . S
C274 O280 1.287 . S
C274 O281 1.255 . S
O275 Fe264 1.976 . S
O275 C282 1.287 . S
O276 Fe265 1.996 . S
O276 C282 1.255 . S
O277 Fe267 1.976 . S
O277 C272 1.287 . S
O278 Fe264 1.996 . S
O278 C272 1.255 . S
C279 O283 1.295 . S
C279 O284 1.235 . S
O280 Fe265 1.976 . S
O280 C274 1.287 . S
O281 Fe267 1.996 . S
O281 C274 1.255 . S
C282 O275 1.287 . S
C282 O276 1.255 . S
O283 Fe265 2.002 . S
O283 C279 1.295 . S
O284 Fe267 1.997 . S
O284 C279 1.235 . S
C285 O268 1.295 . S
C285 O269 1.235 . S
Fe286 O288 1.918 . S
Fe286 O291 1.997 . S
Fe286 O292 2.002 . S
Fe286 O297 1.976 . S
Fe286 O300 1.996 . S
Fe287 O288 1.918 . S
Fe287 O295 1.997 . S
Fe287 O298 1.996 . S
Fe287 O302 1.976 . S
Fe287 O305 2.002 . S
O288 Fe286 1.918 . S
O288 Fe287 1.918 . S
O288 Fe289 1.918 . S
Fe289 O288 1.918 . S
Fe289 O290 2.002 . S
Fe289 O299 1.976 . S
Fe289 O303 1.996 . S
Fe289 O306 1.997 . S
O290 Fe289 2.002 . S
O290 C307 1.295 . S
O291 Fe286 1.997 . S
O291 C307 1.235 . S
O292 Fe286 2.002 . S
O292 C293 1.295 . S
C293 O292 1.295 . S
C293 O295 1.235 . S
C294 O299 1.287 . S
C294 O300 1.255 . S
O295 Fe287 1.997 . S
O295 C293 1.235 . S
C296 O302 1.287 . S
C296 O303 1.255 . S
O297 Fe286 1.976 . S
O297 C304 1.287 . S
O298 Fe287 1.996 . S
O298 C304 1.255 . S
O299 Fe289 1.976 . S
O299 C294 1.287 . S
O300 Fe286 1.996 . S
O300 C294 1.255 . S
C301 O305 1.295 . S
C301 O306 1.235 . S
O302 Fe287 1.976 . S
O302 C296 1.287 . S
O303 Fe289 1.996 . S
O303 C296 1.255 . S
C304 O297 1.287 . S
C304 O298 1.255 . S
O305 Fe287 2.002 . S
O305 C301 1.295 . S
O306 Fe289 1.997 . S
O306 C301 1.235 . S
C307 O290 1.295 . S
C307 O291 1.235 . S
Fe308 O310 1.918 . S
Fe308 O313 1.997 . S
Fe308 O314 2.002 . S
Fe308 O319 1.976 . S
Fe308 O322 1.996 . S
Fe309 O310 1.918 . S
Fe309 O317 1.997 . S
Fe309 O320 1.996 . S
Fe309 O324 1.976 . S
Fe309 O327 2.002 . S
O310 Fe308 1.918 . S
O310 Fe309 1.918 . S
O310 Fe311 1.918 . S
Fe311 O310 1.918 . S
Fe311 O312 2.002 . S
Fe311 O321 1.976 . S
Fe311 O325 1.996 . S
Fe311 O328 1.997 . S
O312 Fe311 2.002 . S
O312 C329 1.295 . S
O313 Fe308 1.997 . S
O313 C329 1.235 . S
O314 Fe308 2.002 . S
O314 C315 1.295 . S
C315 O314 1.295 . S
C315 O317 1.235 . S
C316 O321 1.287 . S
C316 O322 1.255 . S
O317 Fe309 1.997 . S
O317 C315 1.235 . S
C318 O324 1.287 . S
C318 O325 1.255 . S
O319 Fe308 1.976 . S
O319 C326 1.287 . S
O320 Fe309 1.996 . S
O320 C326 1.255 . S
O321 Fe311 1.976 . S
O321 C316 1.287 . S
O322 Fe308 1.996 . S
O322 C316 1.255 . S
C323 O327 1.295 . S
C323 O328 1.235 . S
O324 Fe309 1.976 . S
O324 C318 1.287 . S
O325 Fe311 1.996 . S
O325 C318 1.255 . S
C326 O319 1.287 . S
C326 O320 1.255 . S
O327 Fe309 2.002 . S
O327 C323 1.295 . S
O328 Fe311 1.997 . S
O328 C323 1.235 . S
C329 O312 1.295 . S
C329 O313 1.235 . S
Fe330 O332 1.918 . S
Fe330 O335 1.997 . S
Fe330 O336 2.002 . S
Fe330 O341 1.976 . S
Fe330 O344 1.996 . S
Fe331 O332 1.918 . S
Fe331 O339 1.997 . S
Fe331 O342 1.996 . S
Fe331 O346 1.976 . S
Fe331 O349 2.002 . S
O332 Fe330 1.918 . S
O332 Fe331 1.918 . S
O332 Fe333 1.918 . S
Fe333 O332 1.918 . S
Fe333 O334 2.002 . S
Fe333 O343 1.976 . S
Fe333 O347 1.996 . S
Fe333 O350 1.997 . S
O334 Fe333 2.002 . S
O334 C351 1.295 . S
O335 Fe330 1.997 . S
O335 C351 1.235 . S
O336 Fe330 2.002 . S
O336 C337 1.295 . S
C337 O336 1.295 . S
C337 O339 1.235 . S
C338 O343 1.287 . S
C338 O344 1.255 . S
O339 Fe331 1.997 . S
O339 C337 1.235 . S
C340 O346 1.287 . S
C340 O347 1.255 . S
O341 Fe330 1.976 . S
O341 C348 1.287 . S
O342 Fe331 1.996 . S
O342 C348 1.255 . S
O343 Fe333 1.976 . S
O343 C338 1.287 . S
O344 Fe330 1.996 . S
O344 C338 1.255 . S
C345 O349 1.295 . S
C345 O350 1.235 . S
O346 Fe331 1.976 . S
O346 C340 1.287 . S
O347 Fe333 1.996 . S
O347 C340 1.255 . S
C348 O341 1.287 . S
C348 O342 1.255 . S
O349 Fe331 2.002 . S
O349 C345 1.295 . S
O350 Fe333 1.997 . S
O350 C345 1.235 . S
C351 O334 1.295 . S
C351 O335 1.235 . S
Fe352 O354 1.918 . S
Fe352 O357 1.997 . S
Fe352 O358 2.002 . S
Fe352 O363 1.976 . S
Fe352 O366 1.996 . S
Fe353 O354 1.918 . S
Fe353 O361 1.997 . S
Fe353 O364 1.996 . S
Fe353 O368 1.976 . S
Fe353 O371 2.002 . S
O354 Fe352 1.918 . S
O354 Fe353 1.918 . S
O354 Fe355 1.918 . S
Fe355 O354 1.918 . S
Fe355 O356 2.002 . S
Fe355 O365 1.976 . S
Fe355 O369 1.996 . S
Fe355 O372 1.997 . S
O356 Fe355 2.002 . S
O356 C373 1.295 . S
O357 Fe352 1.997 . S
O357 C373 1.235 . S
O358 Fe352 2.002 . S
O358 C359 1.295 . S
C359 O358 1.295 . S
C359 O361 1.235 . S
C360 O365 1.287 . S
C360 O366 1.255 . S
O361 Fe353 1.997 . S
O361 C359 1.235 . S
C362 O368 1.287 . S
C362 O369 1.255 . S
O363 Fe352 1.976 . S
O363 C370 1.287 . S
O364 Fe353 1.996 . S
O364 C370 1.255 . S
O365 Fe355 1.976 . S
O365 C360 1.287 . S
O366 Fe352 1.996 . S
O366 C360 1.255 . S
C367 O371 1.295 . S
C367 O372 1.235 . S
O368 Fe353 1.976 . S
O368 C362 1.287 . S
O369 Fe355 1.996 . S
O369 C362 1.255 . S
C370 O363 1.287 . S
C370 O364 1.255 . S
O371 Fe353 2.002 . S
O371 C367 1.295 . S
O372 Fe355 1.997 . S
O372 C367 1.235 . S
C373 O356 1.295 . S
C373 O357 1.235 . S
Fe374 O376 1.918 . S
Fe374 O379 1.997 . S
Fe374 O380 2.002 . S
Fe374 O385 1.976 . S
Fe374 O388 1.996 . S
Fe375 O376 1.918 . S
Fe375 O383 1.997 . S
Fe375 O386 1.996 . S
Fe375 O390 1.976 . S
Fe375 O393 2.002 . S
O376 Fe374 1.918 . S
O376 Fe375 1.918 . S
O376 Fe377 1.918 . S
Fe377 O376 1.918 . S
Fe377 O378 2.002 . S
Fe377 O387 1.976 . S
Fe377 O391 1.996 . S
Fe377 O394 1.997 . S
O378 Fe377 2.002 . S
O378 C395 1.295 . S
O379 Fe374 1.997 . S
O379 C395 1.235 . S
O380 Fe374 2.002 . S
O380 C381 1.295 . S
C381 O380 1.295 . S
C381 O383 1.235 . S
C382 O387 1.287 . S
C382 O388 1.255 . S
O383 Fe375 1.997 . S
O383 C381 1.235 . S
C384 O390 1.287 . S
C384 O391 1.255 . S
O385 Fe374 1.976 . S
O385 C392 1.287 . S
O386 Fe375 1.996 . S
O386 C392 1.255 . S
O387 Fe377 1.976 . S
O387 C382 1.287 . S
O388 Fe374 1.996 . S
O388 C382 1.255 . S
C389 O393 1.295 . S
C389 O394 1.235 . S
O390 Fe375 1.976 . S
O390 C384 1.287 . S
O391 Fe377 1.996 . S
O391 C384 1.255 . S
C392 O385 1.287 . S
C392 O386 1.255 . S
O393 Fe375 2.002 . S
O393 C389 1.295 . S
O394 Fe377 1.997 . S
O394 C389 1.235 . S
C395 O378 1.295 . S
C395 O379 1.235 . S
Fe396 O398 1.918 . S
Fe396 O401 1.997 . S
Fe396 O402 2.002 . S
Fe396 O407 1.976 . S
Fe396 O410 1.996 . S
Fe397 O398 1.918 . S
Fe397 O405 1.997 . S
Fe397 O408 1.996 . S
Fe397 O412 1.976 . S
Fe397 O415 2.002 . S
O398 Fe396 1.918 . S
O398 Fe397 1.918 . S
O398 Fe399 1.918 . S
Fe399 O398 1.918 . S
Fe399 O400 2.002 . S
Fe399 O409 1.976 . S
Fe399 O413 1.996 . S
Fe399 O416 1.997 . S
O400 Fe399 2.002 . S
O400 C417 1.295 . S
O401 Fe396 1.997 . S
O401 C417 1.235 . S
O402 Fe396 2.002 . S
O402 C403 1.295 . S
C403 O402 1.295 . S
C403 O405 1.235 . S
C404 O409 1.287 . S
C404 O410 1.255 . S
O405 Fe397 1.997 . S
O405 C403 1.235 . S
C406 O412 1.287 . S
C406 O413 1.255 . S
O407 Fe396 1.976 . S
O407 C414 1.287 . S
O408 Fe397 1.996 . S
O408 C414 1.255 . S
O409 Fe399 1.976 . S
O409 C404 1.287 . S
O410 Fe396 1.996 . S
O410 C404 1.255 . S
C411 O415 1.295 . S
C411 O416 1.235 . S
O412 Fe397 1.976 . S
O412 C406 1.287 . S
O413 Fe399 1.996 . S
O413 C406 1.255 . S
C414 O407 1.287 . S
C414 O408 1.255 . S
O415 Fe397 2.002 . S
O415 C411 1.295 . S
O416 Fe399 1.997 . S
O416 C411 1.235 . S
C417 O400 1.295 . S
C417 O401 1.235 . S
Fe418 O420 1.918 . S
Fe418 O423 1.997 . S
Fe418 O424 2.002 . S
Fe418 O429 1.976 . S
Fe418 O432 1.996 . S
Fe419 O420 1.918 . S
Fe419 O427 1.997 . S
Fe419 O430 1.996 . S
Fe419 O434 1.976 . S
Fe419 O437 2.002 . S
O420 Fe418 1.918 . S
O420 Fe419 1.918 . S
O420 Fe421 1.918 . S
Fe421 O420 1.918 . S
Fe421 O422 2.002 . S
Fe421 O431 1.976 . S
Fe421 O435 1.996 . S
Fe421 O438 1.997 . S
O422 Fe421 2.002 . S
O422 C439 1.295 . S
O423 Fe418 1.997 . S
O423 C439 1.235 . S
O424 Fe418 2.002 . S
O424 C425 1.295 . S
C425 O424 1.295 . S
C425 O427 1.235 . S
C426 O431 1.287 . S
C426 O432 1.255 . S
O427 Fe419 1.997 . S
O427 C425 1.235 . S
C428 O434 1.287 . S
C428 O435 1.255 . S
O429 Fe418 1.976 . S
O429 C436 1.287 . S
O430 Fe419 1.996 . S
O430 C436 1.255 . S
O431 Fe421 1.976 . S
O431 C426 1.287 . S
O432 Fe418 1.996 . S
O432 C426 1.255 . S
C433 O437 1.295 . S
C433 O438 1.235 . S
O434 Fe419 1.976 . S
O434 C428 1.287 . S
O435 Fe421 1.996 . S
O435 C428 1.255 . S
C436 O429 1.287 . S
C436 O430 1.255 . S
O437 Fe419 2.002 . S
O437 C433 1.295 . S
O438 Fe421 1.997 . S
O438 C433 1.235 . S
C439 O422 1.295 . S
C439 O423 1.235 . S
Fe440 O442 1.918 . S
Fe440 O445 1.997 . S
Fe440 O446 2.002 . S
Fe440 O451 1.976 . S
Fe440 O454 1.996 . S
Fe441 O442 1.918 . S
Fe441 O449 1.997 . S
Fe441 O452 1.996 . S
Fe441 O456 1.976 . S
Fe441 O459 2.002 . S
O442 Fe440 1.918 . S
O442 Fe441 1.918 . S
O442 Fe443 1.918 . S
Fe443 O442 1.918 . S
Fe443 O444 2.002 . S
Fe443 O453 1.976 . S
Fe443 O457 1.996 . S
Fe443 O460 1.997 . S
O444 Fe443 2.002 . S
O444 C461 1.295 . S
O445 Fe440 1.997 . S
O445 C461 1.235 . S
O446 Fe440 2.002 . S
O446 C447 1.295 . S
C447 O446 1.295 . S
C447 O449 1.235 . S
C448 O453 1.287 . S
C448 O454 1.255 . S
O449 Fe441 1.997 . S
O449 C447 1.235 . S
C450 O456 1.287 . S
C450 O457 1.255 . S
O451 Fe440 1.976 . S
O451 C458 1.287 . S
O452 Fe441 1.996 . S
O452 C458 1.255 . S
O453 Fe443 1.976 . S
O453 C448 1.287 . S
O454 Fe440 1.996 . S
O454 C448 1.255 . S
C455 O459 1.295 . S
C455 O460 1.235 . S
O456 Fe441 1.976 . S
O456 C450 1.287 . S
O457 Fe443 1.996 . S
O457 C450 1.255 . S
C458 O451 1.287 . S
C458 O452 1.255 . S
O459 Fe441 2.002 . S
O459 C455 1.295 . S
O460 Fe443 1.997 . S
O460 C455 1.235 . S
C461 O444 1.295 . S
C461 O445 1.235 . S
Fe462 O464 1.918 . S
Fe462 O467 1.997 . S
Fe462 O468 2.002 . S
Fe462 O473 1.976 . S
Fe462 O476 1.996 . S
Fe463 O464 1.918 . S
Fe463 O471 1.997 . S
Fe463 O474 1.996 . S
Fe463 O478 1.976 . S
Fe463 O481 2.002 . S
O464 Fe462 1.918 . S
O464 Fe463 1.918 . S
O464 Fe465 1.918 . S
Fe465 O464 1.918 . S
Fe465 O466 2.002 . S
Fe465 O475 1.976 . S
Fe465 O479 1.996 . S
Fe465 O482 1.997 . S
O466 Fe465 2.002 . S
O466 C483 1.295 . S
O467 Fe462 1.997 . S
O467 C483 1.235 . S
O468 Fe462 2.002 . S
O468 C469 1.295 . S
C469 O468 1.295 . S
C469 O471 1.235 . S
C470 O475 1.287 . S
C470 O476 1.255 . S
O471 Fe463 1.997 . S
O471 C469 1.235 . S
C472 O478 1.287 . S
C472 O479 1.255 . S
O473 Fe462 1.976 . S
O473 C480 1.287 . S
O474 Fe463 1.996 . S
O474 C480 1.255 . S
O475 Fe465 1.976 . S
O475 C470 1.287 . S
O476 Fe462 1.996 . S
O476 C470 1.255 . S
C477 O481 1.295 . S
C477 O482 1.235 . S
O478 Fe463 1.976 . S
O478 C472 1.287 . S
O479 Fe465 1.996 . S
O479 C472 1.255 . S
C480 O473 1.287 . S
C480 O474 1.255 . S
O481 Fe463 2.002 . S
O481 C477 1.295 . S
O482 Fe465 1.997 . S
O482 C477 1.235 . S
C483 O466 1.295 . S
C483 O467 1.235 . S
Fe484 O486 1.918 . S
Fe484 O489 1.997 . S
Fe484 O490 2.002 . S
Fe484 O495 1.976 . S
Fe484 O498 1.996 . S
Fe485 O486 1.918 . S
Fe485 O493 1.997 . S
Fe485 O496 1.996 . S
Fe485 O500 1.976 . S
Fe485 O503 2.002 . S
O486 Fe484 1.918 . S
O486 Fe485 1.918 . S
O486 Fe487 1.918 . S
Fe487 O486 1.918 . S
Fe487 O488 2.002 . S
Fe487 O497 1.976 . S
Fe487 O501 1.996 . S
Fe487 O504 1.997 . S
O488 Fe487 2.002 . S
O488 C505 1.295 . S
O489 Fe484 1.997 . S
O489 C505 1.235 . S
O490 Fe484 2.002 . S
O490 C491 1.295 . S
C491 O490 1.295 . S
C491 O493 1.235 . S
C492 O497 1.287 . S
C492 O498 1.255 . S
O493 Fe485 1.997 . S
O493 C491 1.235 . S
C494 O500 1.287 . S
C494 O501 1.255 . S
O495 Fe484 1.976 . S
O495 C502 1.287 . S
O496 Fe485 1.996 . S
O496 C502 1.255 . S
O497 Fe487 1.976 . S
O497 C492 1.287 . S
O498 Fe484 1.996 . S
O498 C492 1.255 . S
C499 O503 1.295 . S
C499 O504 1.235 . S
O500 Fe485 1.976 . S
O500 C494 1.287 . S
O501 Fe487 1.996 . S
O501 C494 1.255 . S
C502 O495 1.287 . S
C502 O496 1.255 . S
O503 Fe485 2.002 . S
O503 C499 1.295 . S
O504 Fe487 1.997 . S
O504 C499 1.235 . S
C505 O488 1.295 . S
C505 O489 1.235 . S
Fe506 O508 1.918 . S
Fe506 O511 1.997 . S
Fe506 O512 2.002 . S
Fe506 O517 1.976 . S
Fe506 O520 1.996 . S
Fe507 O508 1.918 . S
Fe507 O515 1.997 . S
Fe507 O518 1.996 . S
Fe507 O522 1.976 . S
Fe507 O525 2.002 . S
O508 Fe506 1.918 . S
O508 Fe507 1.918 . S
O508 Fe509 1.918 . S
Fe509 O508 1.918 . S
Fe509 O510 2.002 . S
Fe509 O519 1.976 . S
Fe509 O523 1.996 . S
Fe509 O526 1.997 . S
O510 Fe509 2.002 . S
O510 C527 1.295 . S
O511 Fe506 1.997 . S
O511 C527 1.235 . S
O512 Fe506 2.002 . S
O512 C513 1.295 . S
C513 O512 1.295 . S
C513 O515 1.235 . S
C514 O519 1.287 . S
C514 O520 1.255 . S
O515 Fe507 1.997 . S
O515 C513 1.235 . S
C516 O522 1.287 . S
C516 O523 1.255 . S
O517 Fe506 1.976 . S
O517 C524 1.287 . S
O518 Fe507 1.996 . S
O518 C524 1.255 . S
O519 Fe509 1.976 . S
O519 C514 1.287 . S
O520 Fe506 1.996 . S
O520 C514 1.255 . S
C521 O525 1.295 . S
C521 O526 1.235 . S
O522 Fe507 1.976 . S
O522 C516 1.287 . S
O523 Fe509 1.996 . S
O523 C516 1.255 . S
C524 O517 1.287 . S
C524 O518 1.255 . S
O525 Fe507 2.002 . S
O525 C521 1.295 . S
O526 Fe509 1.997 . S
O526 C521 1.235 . S
C527 O510 1.295 . S
C527 O511 1.235 . S
C528 C529 1.369 . S
C528 C530 1.419 1_556 S
C528 H532 0.930 . S
C529 C528 1.369 . S
C529 C538 1.429 . S
C530 C528 1.419 1_554 S
C530 C531 1.363 . S
C530 H533 0.929 . S
C531 C530 1.363 . S
C531 C537 1.428 . S
H532 C528 0.930 . S
H533 C530 0.929 . S
S534 N535 1.613 . S
S534 N536 1.610 1_556 S
N535 S534 1.613 . S
N535 C538 1.350 . S
N536 S534 1.610 1_554 S
N536 C537 1.351 . S
C537 C531 1.428 . S
C537 N536 1.351 . S
C537 C538 1.434 1_554 S
C538 C529 1.429 . S
C538 N535 1.350 . S
C538 C537 1.434 1_556 S
C539 C540 1.369 . S
C539 C541 1.419 . S
C539 H543 0.930 . S
C540 C539 1.369 . S
C540 C549 1.429 . S
C541 C539 1.419 . S
C541 C542 1.363 . S
C541 H544 0.929 . S
C542 C541 1.363 . S
C542 C548 1.428 . S
H543 C539 0.930 . S
H544 C541 0.929 . S
S545 N546 1.613 . S
S545 N547 1.610 . S
N546 S545 1.613 . S
N546 C549 1.350 . S
N547 S545 1.610 . S
N547 C548 1.351 . S
C548 C542 1.428 . S
C548 N547 1.351 . S
C548 C549 1.434 . S
C549 C540 1.429 . S
C549 N546 1.350 . S
C549 C548 1.434 . S
C550 C551 1.369 . S
C550 C552 1.419 1_556 S
C550 H554 0.930 . S
C551 C550 1.369 . S
C551 C560 1.429 . S
C552 C550 1.419 1_554 S
C552 C553 1.363 . S
C552 H555 0.929 . S
C553 C552 1.363 . S
C553 C559 1.428 . S
H554 C550 0.930 . S
H555 C552 0.929 . S
S556 N557 1.613 . S
S556 N558 1.610 . S
N557 S556 1.613 . S
N557 C560 1.350 . S
N558 S556 1.610 . S
N558 C559 1.351 1_556 S
C559 C553 1.428 . S
C559 N558 1.351 1_554 S
C559 C560 1.434 1_554 S
C560 C551 1.429 . S
C560 N557 1.350 . S
C560 C559 1.434 1_556 S
C561 C562 1.369 . S
C561 C563 1.419 . S
C561 H565 0.930 . S
C562 C561 1.369 . S
C562 C571 1.429 . S
C563 C561 1.419 . S
C563 C564 1.363 . S
C563 H566 0.929 . S
C564 C563 1.363 . S
C564 C570 1.428 . S
H565 C561 0.930 . S
H566 C563 0.929 . S
S567 N568 1.613 . S
S567 N569 1.610 . S
N568 S567 1.613 . S
N568 C571 1.350 . S
N569 S567 1.610 . S
N569 C570 1.351 . S
C570 C564 1.428 . S
C570 N569 1.351 . S
C570 C571 1.434 . S
C571 C562 1.429 . S
C571 N568 1.350 . S
C571 C570 1.434 . S
C572 C573 1.369 . S
C572 C574 1.419 1_556 S
C572 H576 0.930 . S
C573 C572 1.369 . S
C573 C582 1.429 . S
C574 C572 1.419 1_554 S
C574 C575 1.363 . S
C574 H577 0.929 . S
C575 C574 1.363 . S
C575 C581 1.428 . S
H576 C572 0.930 . S
H577 C574 0.929 . S
S578 N579 1.613 1_554 S
S578 N580 1.610 . S
N579 S578 1.613 1_556 S
N579 C582 1.350 . S
N580 S578 1.610 . S
N580 C581 1.351 . S
C581 C575 1.428 . S
C581 N580 1.351 . S
C581 C582 1.434 1_554 S
C582 C573 1.429 . S
C582 N579 1.350 . S
C582 C581 1.434 1_556 S
C583 C584 1.369 . S
C583 C585 1.419 . S
C583 H587 0.930 . S
C584 C583 1.369 . S
C584 C593 1.429 . S
C585 C583 1.419 . S
C585 C586 1.363 . S
C585 H588 0.929 . S
C586 C585 1.363 . S
C586 C592 1.428 . S
H587 C583 0.930 . S
H588 C585 0.929 . S
S589 N590 1.613 . S
S589 N591 1.610 . S
N590 S589 1.613 . S
N590 C593 1.350 . S
N591 S589 1.610 . S
N591 C592 1.351 . S
C592 C586 1.428 . S
C592 N591 1.351 . S
C592 C593 1.434 . S
C593 C584 1.429 . S
C593 N590 1.350 . S
C593 C592 1.434 . S
C594 C595 1.375 . S
C594 C596 1.413 1_556 S
C594 H598 0.929 1_556 S
C595 C594 1.375 . S
C595 C604 1.429 . S
C596 C594 1.413 1_554 S
C596 C597 1.363 . S
C596 H599 0.929 . S
C597 C596 1.363 . S
C597 C603 1.399 1_554 S
H598 C594 0.929 1_554 S
H599 C596 0.929 . S
S600 N601 1.613 . S
S600 N602 1.610 . S
N601 S600 1.613 . S
N601 C604 1.350 . S
N602 S600 1.610 . S
N602 C603 1.356 . S
C603 C597 1.399 1_556 S
C603 N602 1.356 . S
C603 C604 1.462 . S
C604 C595 1.429 . S
C604 N601 1.350 . S
C604 C603 1.462 . S
C605 C606 1.369 . S
C605 C607 1.419 . S
C605 H609 0.930 . S
C606 C605 1.369 . S
C606 C615 1.429 . S
C607 C605 1.419 . S
C607 C608 1.363 . S
C607 H610 0.929 . S
C608 C607 1.363 . S
C608 C614 1.428 . S
H609 C605 0.930 . S
H610 C607 0.929 . S
S611 N612 1.613 . S
S611 N613 1.610 . S
N612 S611 1.613 . S
N612 C615 1.350 . S
N613 S611 1.610 . S
N613 C614 1.351 . S
C614 C608 1.428 . S
C614 N613 1.351 . S
C614 C615 1.434 . S
C615 C606 1.429 . S
C615 N612 1.350 . S
C615 C614 1.434 . S
C616 C617 1.371 . S
C616 C618 1.416 1_554 S
C616 H620 0.930 1_554 S
C617 C616 1.371 . S
C617 C626 1.429 . S
C618 C616 1.416 1_556 S
C618 C619 1.363 . S
C618 H621 0.929 . S
C619 C618 1.363 . S
C619 C625 1.397 1_556 S
H620 C616 0.930 1_556 S
H621 C618 0.929 . S
S622 N623 1.613 . S
S622 N624 1.610 . S
N623 S622 1.613 . S
N623 C626 1.350 . S
N624 S622 1.610 . S
N624 C625 1.357 . S
C625 C619 1.397 1_554 S
C625 N624 1.357 . S
C625 C626 1.464 . S
C626 C617 1.429 . S
C626 N623 1.350 . S
C626 C625 1.464 . S
C627 C628 1.369 . S
C627 C629 1.419 . S
C627 H631 0.930 . S
C628 C627 1.369 . S
C628 C637 1.429 . S
C629 C627 1.419 . S
C629 C630 1.363 . S
C629 H632 0.929 . S
C630 C629 1.363 . S
C630 C636 1.428 . S
H631 C627 0.930 . S
H632 C629 0.929 . S
S633 N634 1.613 . S
S633 N635 1.610 . S
N634 S633 1.613 . S
N634 C637 1.350 . S
N635 S633 1.610 . S
N635 C636 1.351 . S
C636 C630 1.428 . S
C636 N635 1.351 . S
C636 C637 1.434 . S
C637 C628 1.429 . S
C637 N634 1.350 . S
C637 C636 1.434 . S
C638 C639 1.369 . S
C638 C640 1.419 1_556 S
C638 H642 0.930 . S
C639 C638 1.369 . S
C639 C648 1.429 . S
C640 C638 1.419 1_554 S
C640 C641 1.363 . S
C640 H643 0.929 . S
C641 C640 1.363 . S
C641 C647 1.428 . S
H642 C638 0.930 . S
H643 C640 0.929 . S
S644 N645 1.613 1_554 S
S644 N646 1.610 . S
N645 S644 1.613 1_556 S
N645 C648 1.350 . S
N646 S644 1.610 . S
N646 C647 1.351 . S
C647 C641 1.428 . S
C647 N646 1.351 . S
C647 C648 1.434 1_554 S
C648 C639 1.429 . S
C648 N645 1.350 . S
C648 C647 1.434 1_556 S
C649 C650 1.369 . S
C649 C651 1.419 . S
C649 H653 0.930 . S
C650 C649 1.369 . S
C650 C659 1.429 . S
C651 C649 1.419 . S
C651 C652 1.363 . S
C651 H654 0.929 . S
C652 C651 1.363 . S
C652 C658 1.428 . S
H653 C649 0.930 . S
H654 C651 0.929 . S
S655 N656 1.613 . S
S655 N657 1.610 . S
N656 S655 1.613 . S
N656 C659 1.350 . S
N657 S655 1.610 . S
N657 C658 1.351 . S
C658 C652 1.428 . S
C658 N657 1.351 . S
C658 C659 1.434 . S
C659 C650 1.429 . S
C659 N656 1.350 . S
C659 C658 1.434 . S
C660 C661 1.369 . S
C660 C662 1.419 . S
C660 H664 0.930 . S
C661 C660 1.369 . S
C661 C670 1.429 . S
C662 C660 1.419 . S
C662 C663 1.363 . S
C662 H665 0.929 . S
C663 C662 1.363 . S
C663 C669 1.428 . S
H664 C660 0.930 . S
H665 C662 0.929 . S
S666 N667 1.613 . S
S666 N668 1.610 . S
N667 S666 1.613 . S
N667 C670 1.350 . S
N668 S666 1.610 . S
N668 C669 1.351 . S
C669 C663 1.428 . S
C669 N668 1.351 . S
C669 C670 1.434 . S
C670 C661 1.429 . S
C670 N667 1.350 . S
C670 C669 1.434 . S
C671 C672 1.369 . S
C671 C673 1.419 . S
C671 H675 0.930 . S
C672 C671 1.369 . S
C672 C681 1.429 . S
C673 C671 1.419 . S
C673 C674 1.363 . S
C673 H676 0.929 . S
C674 C673 1.363 . S
C674 C680 1.428 . S
H675 C671 0.930 . S
H676 C673 0.929 . S
S677 N678 1.613 . S
S677 N679 1.610 . S
N678 S677 1.613 . S
N678 C681 1.350 . S
N679 S677 1.610 . S
N679 C680 1.351 . S
C680 C674 1.428 . S
C680 N679 1.351 . S
C680 C681 1.434 . S
C681 C672 1.429 . S
C681 N678 1.350 . S
C681 C680 1.434 . S
C682 C683 1.369 . S
C682 C684 1.419 . S
C682 H686 0.930 . S
C683 C682 1.369 . S
C683 C692 1.429 . S
C684 C682 1.419 . S
C684 C685 1.363 . S
C684 H687 0.929 . S
C685 C684 1.363 . S
C685 C691 1.428 . S
H686 C682 0.930 . S
H687 C684 0.929 . S
S688 N689 1.613 . S
S688 N690 1.610 . S
N689 S688 1.613 . S
N689 C692 1.350 . S
N690 S688 1.610 . S
N690 C691 1.351 . S
C691 C685 1.428 . S
C691 N690 1.351 . S
C691 C692 1.434 . S
C692 C683 1.429 . S
C692 N689 1.350 . S
C692 C691 1.434 . S
C693 C694 1.369 . S
C693 C695 1.419 . S
C693 H697 0.930 . S
C694 C693 1.369 . S
C694 C703 1.429 . S
C695 C693 1.419 . S
C695 C696 1.363 . S
C695 H698 0.929 . S
C696 C695 1.363 . S
C696 C702 1.428 . S
H697 C693 0.930 . S
H698 C695 0.929 . S
S699 N700 1.613 . S
S699 N701 1.610 . S
N700 S699 1.613 . S
N700 C703 1.350 . S
N701 S699 1.610 . S
N701 C702 1.351 . S
C702 C696 1.428 . S
C702 N701 1.351 . S
C702 C703 1.434 . S
C703 C694 1.429 . S
C703 N700 1.350 . S
C703 C702 1.434 . S
C704 C705 1.369 . S
C704 C706 1.419 . S
C704 H708 0.930 . S
C705 C704 1.369 . S
C705 C714 1.429 . S
C706 C704 1.419 . S
C706 C707 1.363 . S
C706 H709 0.929 . S
C707 C706 1.363 . S
C707 C713 1.428 . S
H708 C704 0.930 . S
H709 C706 0.929 . S
S710 N711 1.613 . S
S710 N712 1.610 . S
N711 S710 1.613 . S
N711 C714 1.350 . S
N712 S710 1.610 . S
N712 C713 1.351 . S
C713 C707 1.428 . S
C713 N712 1.351 . S
C713 C714 1.434 . S
C714 C705 1.429 . S
C714 N711 1.350 . S
C714 C713 1.434 . S
C715 C716 1.369 . S
C715 C717 1.419 . S
C715 H719 0.930 . S
C716 C715 1.369 . S
C716 C725 1.429 . S
C717 C715 1.419 . S
C717 C718 1.363 . S
C717 H720 0.929 . S
C718 C717 1.363 . S
C718 C724 1.428 . S
H719 C715 0.930 . S
H720 C717 0.929 . S
S721 N722 1.613 . S
S721 N723 1.610 . S
N722 S721 1.613 . S
N722 C725 1.350 . S
N723 S721 1.610 . S
N723 C724 1.351 . S
C724 C718 1.428 . S
C724 N723 1.351 . S
C724 C725 1.434 . S
C725 C716 1.429 . S
C725 N722 1.350 . S
C725 C724 1.434 . S
C726 C727 1.369 . S
C726 C728 1.419 . S
C726 H730 0.930 . S
C727 C726 1.369 . S
C727 C736 1.429 . S
C728 C726 1.419 . S
C728 C729 1.363 . S
C728 H731 0.929 . S
C729 C728 1.363 . S
C729 C735 1.428 . S
H730 C726 0.930 . S
H731 C728 0.929 . S
S732 N733 1.613 . S
S732 N734 1.610 . S
N733 S732 1.613 . S
N733 C736 1.350 . S
N734 S732 1.610 . S
N734 C735 1.351 . S
C735 C729 1.428 . S
C735 N734 1.351 . S
C735 C736 1.434 . S
C736 C727 1.429 . S
C736 N733 1.350 . S
C736 C735 1.434 . S
C737 C738 1.369 . S
C737 C739 1.419 . S
C737 H741 0.930 . S
C738 C737 1.369 . S
C738 C747 1.429 . S
C739 C737 1.419 . S
C739 C740 1.363 . S
C739 H742 0.929 . S
C740 C739 1.363 . S
C740 C746 1.428 . S
H741 C737 0.930 . S
H742 C739 0.929 . S
S743 N744 1.613 . S
S743 N745 1.610 . S
N744 S743 1.613 . S
N744 C747 1.350 . S
N745 S743 1.610 . S
N745 C746 1.351 . S
C746 C740 1.428 . S
C746 N745 1.351 . S
C746 C747 1.434 . S
C747 C738 1.429 . S
C747 N744 1.350 . S
C747 C746 1.434 . S
C748 C749 1.369 . S
C748 C750 1.419 . S
C748 H752 0.930 . S
C749 C748 1.369 . S
C749 C758 1.429 . S
C750 C748 1.419 . S
C750 C751 1.363 . S
C750 H753 0.929 . S
C751 C750 1.363 . S
C751 C757 1.428 . S
H752 C748 0.930 . S
H753 C750 0.929 . S
S754 N755 1.613 . S
S754 N756 1.610 . S
N755 S754 1.613 . S
N755 C758 1.350 . S
N756 S754 1.610 . S
N756 C757 1.351 . S
C757 C751 1.428 . S
C757 N756 1.351 . S
C757 C758 1.434 . S
C758 C749 1.429 . S
C758 N755 1.350 . S
C758 C757 1.434 . S
C759 C760 1.369 . S
C759 C761 1.419 . S
C759 H763 0.930 . S
C760 C759 1.369 . S
C760 C769 1.429 . S
C761 C759 1.419 . S
C761 C762 1.363 . S
C761 H764 0.929 . S
C762 C761 1.363 . S
C762 C768 1.428 . S
H763 C759 0.930 . S
H764 C761 0.929 . S
S765 N766 1.613 . S
S765 N767 1.610 . S
N766 S765 1.613 . S
N766 C769 1.350 . S
N767 S765 1.610 . S
N767 C768 1.351 . S
C768 C762 1.428 . S
C768 N767 1.351 . S
C768 C769 1.434 . S
C769 C760 1.429 . S
C769 N766 1.350 . S
C769 C768 1.434 . S
C770 C771 1.369 . S
C770 C772 1.419 . S
C770 H774 0.930 . S
C771 C770 1.369 . S
C771 C780 1.429 . S
C772 C770 1.419 . S
C772 C773 1.363 . S
C772 H775 0.929 . S
C773 C772 1.363 . S
C773 C779 1.428 . S
H774 C770 0.930 . S
H775 C772 0.929 . S
S776 N777 1.613 . S
S776 N778 1.610 . S
N777 S776 1.613 . S
N777 C780 1.350 . S
N778 S776 1.610 . S
N778 C779 1.351 . S
C779 C773 1.428 . S
C779 N778 1.351 . S
C779 C780 1.434 . S
C780 C771 1.429 . S
C780 N777 1.350 . S
C780 C779 1.434 . S
C781 C782 1.369 . S
C781 C783 1.419 . S
C781 H785 0.930 . S
C782 C781 1.369 . S
C782 C791 1.429 . S
C783 C781 1.419 . S
C783 C784 1.363 . S
C783 H786 0.929 . S
C784 C783 1.363 . S
C784 C790 1.428 . S
H785 C781 0.930 . S
H786 C783 0.929 . S
S787 N788 1.613 . S
S787 N789 1.610 . S
N788 S787 1.613 . S
N788 C791 1.350 . S
N789 S787 1.610 . S
N789 C790 1.351 . S
C790 C784 1.428 . S
C790 N789 1.351 . S
C790 C791 1.434 . S
C791 C782 1.429 . S
C791 N788 1.350 . S
C791 C790 1.434 . S
C792 C793 1.369 . S
C792 C794 1.419 . S
C792 H796 0.930 . S
C793 C792 1.369 . S
C793 C802 1.429 . S
C794 C792 1.419 . S
C794 C795 1.363 . S
C794 H797 0.929 . S
C795 C794 1.363 . S
C795 C801 1.428 . S
H796 C792 0.930 . S
H797 C794 0.929 . S
S798 N799 1.613 . S
S798 N800 1.610 . S
N799 S798 1.613 . S
N799 C802 1.350 . S
N800 S798 1.610 . S
N800 C801 1.351 . S
C801 C795 1.428 . S
C801 N800 1.351 . S
C801 C802 1.434 . S
C802 C793 1.429 . S
C802 N799 1.350 . S
C802 C801 1.434 . S
C803 C804 1.369 . S
C803 C805 1.419 . S
C803 H807 0.930 . S
C804 C803 1.369 . S
C804 C813 1.429 . S
C805 C803 1.419 . S
C805 C806 1.363 . S
C805 H808 0.929 . S
C806 C805 1.363 . S
C806 C812 1.428 . S
H807 C803 0.930 . S
H808 C805 0.929 . S
S809 N810 1.613 . S
S809 N811 1.610 . S
N810 S809 1.613 . S
N810 C813 1.350 . S
N811 S809 1.610 . S
N811 C812 1.351 . S
C812 C806 1.428 . S
C812 N811 1.351 . S
C812 C813 1.434 . S
C813 C804 1.429 . S
C813 N810 1.350 . S
C813 C812 1.434 . S
C814 C815 1.369 . S
C814 C816 1.419 . S
C814 H818 0.930 . S
C815 C814 1.369 . S
C815 C824 1.429 . S
C816 C814 1.419 . S
C816 C817 1.363 . S
C816 H819 0.929 . S
C817 C816 1.363 . S
C817 C823 1.428 . S
H818 C814 0.930 . S
H819 C816 0.929 . S
S820 N821 1.613 . S
S820 N822 1.610 . S
N821 S820 1.613 . S
N821 C824 1.350 . S
N822 S820 1.610 . S
N822 C823 1.351 . S
C823 C817 1.428 . S
C823 N822 1.351 . S
C823 C824 1.434 . S
C824 C815 1.429 . S
C824 N821 1.350 . S
C824 C823 1.434 . S
C825 C826 1.369 . S
C825 C827 1.419 . S
C825 H829 0.930 . S
C826 C825 1.369 . S
C826 C835 1.429 . S
C827 C825 1.419 . S
C827 C828 1.363 . S
C827 H830 0.929 . S
C828 C827 1.363 . S
C828 C834 1.428 . S
H829 C825 0.930 . S
H830 C827 0.929 . S
S831 N832 1.613 . S
S831 N833 1.610 . S
N832 S831 1.613 . S
N832 C835 1.350 . S
N833 S831 1.610 . S
N833 C834 1.351 . S
C834 C828 1.428 . S
C834 N833 1.351 . S
C834 C835 1.434 . S
C835 C826 1.429 . S
C835 N832 1.350 . S
C835 C834 1.434 . S
C836 C837 1.369 . S
C836 C838 1.419 . S
C836 H840 0.930 . S
C837 C836 1.369 . S
C837 C846 1.429 . S
C838 C836 1.419 . S
C838 C839 1.363 . S
C838 H841 0.929 . S
C839 C838 1.363 . S
C839 C845 1.428 . S
H840 C836 0.930 . S
H841 C838 0.929 . S
S842 N843 1.613 . S
S842 N844 1.610 . S
N843 S842 1.613 . S
N843 C846 1.350 . S
N844 S842 1.610 . S
N844 C845 1.351 . S
C845 C839 1.428 . S
C845 N844 1.351 . S
C845 C846 1.434 . S
C846 C837 1.429 . S
C846 N843 1.350 . S
C846 C845 1.434 . S
C847 C848 1.369 . S
C847 C849 1.419 . S
C847 H851 0.930 . S
C848 C847 1.369 . S
C848 C857 1.429 . S
C849 C847 1.419 . S
C849 C850 1.363 . S
C849 H852 0.929 . S
C850 C849 1.363 . S
C850 C856 1.428 . S
H851 C847 0.930 . S
H852 C849 0.929 . S
S853 N854 1.613 . S
S853 N855 1.610 . S
N854 S853 1.613 . S
N854 C857 1.350 . S
N855 S853 1.610 . S
N855 C856 1.351 . S
C856 C850 1.428 . S
C856 N855 1.351 . S
C856 C857 1.434 . S
C857 C848 1.429 . S
C857 N854 1.350 . S
C857 C856 1.434 . S
C858 C859 1.369 . S
C858 C860 1.419 . S
C858 H862 0.930 . S
C859 C858 1.369 . S
C859 C868 1.429 . S
C860 C858 1.419 . S
C860 C861 1.363 . S
C860 H863 0.929 . S
C861 C860 1.363 . S
C861 C867 1.428 . S
H862 C858 0.930 . S
H863 C860 0.929 . S
S864 N865 1.613 . S
S864 N866 1.610 . S
N865 S864 1.613 . S
N865 C868 1.350 . S
N866 S864 1.610 . S
N866 C867 1.351 . S
C867 C861 1.428 . S
C867 N866 1.351 . S
C867 C868 1.434 . S
C868 C859 1.429 . S
C868 N865 1.350 . S
C868 C867 1.434 . S
C869 C870 1.369 . S
C869 C871 1.419 . S
C869 H873 0.930 . S
C870 C869 1.369 . S
C870 C879 1.429 . S
C871 C869 1.419 . S
C871 C872 1.363 . S
C871 H874 0.929 . S
C872 C871 1.363 . S
C872 C878 1.428 . S
H873 C869 0.930 . S
H874 C871 0.929 . S
S875 N876 1.613 . S
S875 N877 1.610 . S
N876 S875 1.613 . S
N876 C879 1.350 . S
N877 S875 1.610 . S
N877 C878 1.351 . S
C878 C872 1.428 . S
C878 N877 1.351 . S
C878 C879 1.434 . S
C879 C870 1.429 . S
C879 N876 1.350 . S
C879 C878 1.434 . S
C880 C881 1.369 . S
C880 C882 1.419 . S
C880 H884 0.930 . S
C881 C880 1.369 . S
C881 C890 1.429 . S
C882 C880 1.419 . S
C882 C883 1.363 . S
C882 H885 0.929 . S
C883 C882 1.363 . S
C883 C889 1.428 . S
H884 C880 0.930 . S
H885 C882 0.929 . S
S886 N887 1.613 . S
S886 N888 1.610 . S
N887 S886 1.613 . S
N887 C890 1.350 . S
N888 S886 1.610 . S
N888 C889 1.351 . S
C889 C883 1.428 . S
C889 N888 1.351 . S
C889 C890 1.434 . S
C890 C881 1.429 . S
C890 N887 1.350 . S
C890 C889 1.434 . S
C891 C892 1.369 . S
C891 C893 1.419 . S
C891 H895 0.930 . S
C892 C891 1.369 . S
C892 C901 1.429 . S
C893 C891 1.419 . S
C893 C894 1.363 . S
C893 H896 0.929 . S
C894 C893 1.363 . S
C894 C900 1.428 . S
H895 C891 0.930 . S
H896 C893 0.929 . S
S897 N898 1.613 . S
S897 N899 1.610 . S
N898 S897 1.613 . S
N898 C901 1.350 . S
N899 S897 1.610 . S
N899 C900 1.351 . S
C900 C894 1.428 . S
C900 N899 1.351 . S
C900 C901 1.434 . S
C901 C892 1.429 . S
C901 N898 1.350 . S
C901 C900 1.434 . S
C902 C903 1.369 . S
C902 C904 1.419 . S
C902 H906 0.930 . S
C903 C902 1.369 . S
C903 C912 1.429 . S
C904 C902 1.419 . S
C904 C905 1.363 . S
C904 H907 0.929 . S
C905 C904 1.363 . S
C905 C911 1.428 . S
H906 C902 0.930 . S
H907 C904 0.929 . S
S908 N909 1.613 . S
S908 N910 1.610 . S
N909 S908 1.613 . S
N909 C912 1.350 . S
N910 S908 1.610 . S
N910 C911 1.351 . S
C911 C905 1.428 . S
C911 N910 1.351 . S
C911 C912 1.434 . S
C912 C903 1.429 . S
C912 N909 1.350 . S
C912 C911 1.434 . S
C913 C914 1.369 . S
C913 C915 1.419 . S
C913 H917 0.930 . S
C914 C913 1.369 . S
C914 C923 1.429 . S
C915 C913 1.419 . S
C915 C916 1.363 . S
C915 H918 0.929 . S
C916 C915 1.363 . S
C916 C922 1.428 . S
H917 C913 0.930 . S
H918 C915 0.929 . S
S919 N920 1.613 . S
S919 N921 1.610 . S
N920 S919 1.613 . S
N920 C923 1.350 . S
N921 S919 1.610 . S
N921 C922 1.351 . S
C922 C916 1.428 . S
C922 N921 1.351 . S
C922 C923 1.434 . S
C923 C914 1.429 . S
C923 N920 1.350 . S
C923 C922 1.434 . S
C924 C925 1.369 . S
C924 C926 1.419 . S
C924 H928 0.930 . S
C925 C924 1.369 . S
C925 C934 1.429 . S
C926 C924 1.419 . S
C926 C927 1.363 . S
C926 H929 0.929 . S
C927 C926 1.363 . S
C927 C933 1.428 . S
H928 C924 0.930 . S
H929 C926 0.929 . S
S930 N931 1.613 . S
S930 N932 1.610 . S
N931 S930 1.613 . S
N931 C934 1.350 . S
N932 S930 1.610 . S
N932 C933 1.351 . S
C933 C927 1.428 . S
C933 N932 1.351 . S
C933 C934 1.434 . S
C934 C925 1.429 . S
C934 N931 1.350 . S
C934 C933 1.434 . S
C935 C936 1.369 . S
C935 C937 1.419 . S
C935 H939 0.930 . S
C936 C935 1.369 . S
C936 C945 1.429 . S
C937 C935 1.419 . S
C937 C938 1.363 . S
C937 H940 0.929 . S
C938 C937 1.363 . S
C938 C944 1.428 . S
H939 C935 0.930 . S
H940 C937 0.929 . S
S941 N942 1.613 . S
S941 N943 1.610 . S
N942 S941 1.613 . S
N942 C945 1.350 . S
N943 S941 1.610 . S
N943 C944 1.351 . S
C944 C938 1.428 . S
C944 N943 1.351 . S
C944 C945 1.434 . S
C945 C936 1.429 . S
C945 N942 1.350 . S
C945 C944 1.434 . S
C946 C947 1.369 . S
C946 C948 1.419 . S
C946 H950 0.930 . S
C947 C946 1.369 . S
C947 C956 1.429 . S
C948 C946 1.419 . S
C948 C949 1.363 . S
C948 H951 0.929 . S
C949 C948 1.363 . S
C949 C955 1.428 . S
H950 C946 0.930 . S
H951 C948 0.929 . S
S952 N953 1.613 . S
S952 N954 1.610 . S
N953 S952 1.613 . S
N953 C956 1.350 . S
N954 S952 1.610 . S
N954 C955 1.351 . S
C955 C949 1.428 . S
C955 N954 1.351 . S
C955 C956 1.434 . S
C956 C947 1.429 . S
C956 N953 1.350 . S
C956 C955 1.434 . S
C957 C958 1.369 . S
C957 C959 1.419 . S
C957 H961 0.930 . S
C958 C957 1.369 . S
C958 C967 1.429 . S
C959 C957 1.419 . S
C959 C960 1.363 . S
C959 H962 0.929 . S
C960 C959 1.363 . S
C960 C966 1.428 . S
H961 C957 0.930 . S
H962 C959 0.929 . S
S963 N964 1.613 . S
S963 N965 1.610 . S
N964 S963 1.613 . S
N964 C967 1.350 . S
N965 S963 1.610 . S
N965 C966 1.351 . S
C966 C960 1.428 . S
C966 N965 1.351 . S
C966 C967 1.434 . S
C967 C958 1.429 . S
C967 N964 1.350 . S
C967 C966 1.434 . S
C968 C969 1.369 . S
C968 C970 1.419 . S
C968 H972 0.930 . S
C969 C968 1.369 . S
C969 C978 1.429 . S
C970 C968 1.419 . S
C970 C971 1.363 . S
C970 H973 0.929 . S
C971 C970 1.363 . S
C971 C977 1.428 . S
H972 C968 0.930 . S
H973 C970 0.929 . S
S974 N975 1.613 . S
S974 N976 1.610 . S
N975 S974 1.613 . S
N975 C978 1.350 . S
N976 S974 1.610 . S
N976 C977 1.351 . S
C977 C971 1.428 . S
C977 N976 1.351 . S
C977 C978 1.434 . S
C978 C969 1.429 . S
C978 N975 1.350 . S
C978 C977 1.434 . S
C979 C980 1.369 . S
C979 C981 1.419 . S
C979 H983 0.930 . S
C980 C979 1.369 . S
C980 C989 1.429 . S
C981 C979 1.419 . S
C981 C982 1.363 . S
C981 H984 0.929 . S
C982 C981 1.363 . S
C982 C988 1.428 . S
H983 C979 0.930 . S
H984 C981 0.929 . S
S985 N986 1.613 . S
S985 N987 1.610 . S
N986 S985 1.613 . S
N986 C989 1.350 . S
N987 S985 1.610 . S
N987 C988 1.351 . S
C988 C982 1.428 . S
C988 N987 1.351 . S
C988 C989 1.434 . S
C989 C980 1.429 . S
C989 N986 1.350 . S
C989 C988 1.434 . S
C990 C991 1.369 . S
C990 C992 1.419 . S
C990 H994 0.930 . S
C991 C990 1.369 . S
C991 C1000 1.429 . S
C992 C990 1.419 . S
C992 C993 1.363 . S
C992 H995 0.929 . S
C993 C992 1.363 . S
C993 C999 1.428 . S
H994 C990 0.930 . S
H995 C992 0.929 . S
S996 N997 1.613 . S
S996 N998 1.610 . S
N997 S996 1.613 . S
N997 C1000 1.350 . S
N998 S996 1.610 . S
N998 C999 1.351 . S
C999 C993 1.428 . S
C999 N998 1.351 . S
C999 C1000 1.434 . S
C1000 C991 1.429 . S
C1000 N997 1.350 . S
C1000 C999 1.434 . S
C1001 C1002 1.369 . S
C1001 C1003 1.419 . S
C1001 H1005 0.930 . S
C1002 C1001 1.369 . S
C1002 C1011 1.429 . S
C1003 C1001 1.419 . S
C1003 C1004 1.363 . S
C1003 H1006 0.929 . S
C1004 C1003 1.363 . S
C1004 C1010 1.428 . S
H1005 C1001 0.930 . S
H1006 C1003 0.929 . S
S1007 N1008 1.613 . S
S1007 N1009 1.610 . S
N1008 S1007 1.613 . S
N1008 C1011 1.350 . S
N1009 S1007 1.610 . S
N1009 C1010 1.351 . S
C1010 C1004 1.428 . S
C1010 N1009 1.351 . S
C1010 C1011 1.434 . S
C1011 C1002 1.429 . S
C1011 N1008 1.350 . S
C1011 C1010 1.434 . S
C1012 C1013 1.369 . S
C1012 C1014 1.419 . S
C1012 H1016 0.930 . S
C1013 C1012 1.369 . S
C1013 C1022 1.429 . S
C1014 C1012 1.419 . S
C1014 C1015 1.363 . S
C1014 H1017 0.929 . S
C1015 C1014 1.363 . S
C1015 C1021 1.428 . S
H1016 C1012 0.930 . S
H1017 C1014 0.929 . S
S1018 N1019 1.613 . S
S1018 N1020 1.610 . S
N1019 S1018 1.613 . S
N1019 C1022 1.350 . S
N1020 S1018 1.610 . S
N1020 C1021 1.351 . S
C1021 C1015 1.428 . S
C1021 N1020 1.351 . S
C1021 C1022 1.434 . S
C1022 C1013 1.429 . S
C1022 N1019 1.350 . S
C1022 C1021 1.434 . S
C1023 C1024 1.369 . S
C1023 C1025 1.419 . S
C1023 H1027 0.930 . S
C1024 C1023 1.369 . S
C1024 C1033 1.429 . S
C1025 C1023 1.419 . S
C1025 C1026 1.363 . S
C1025 H1028 0.929 . S
C1026 C1025 1.363 . S
C1026 C1032 1.428 . S
H1027 C1023 0.930 . S
H1028 C1025 0.929 . S
S1029 N1030 1.613 . S
S1029 N1031 1.610 . S
N1030 S1029 1.613 . S
N1030 C1033 1.350 . S
N1031 S1029 1.610 . S
N1031 C1032 1.351 . S
C1032 C1026 1.428 . S
C1032 N1031 1.351 . S
C1032 C1033 1.434 . S
C1033 C1024 1.429 . S
C1033 N1030 1.350 . S
C1033 C1032 1.434 . S
C1034 C1035 1.369 . S
C1034 C1036 1.419 . S
C1034 H1038 0.930 . S
C1035 C1034 1.369 . S
C1035 C1044 1.429 . S
C1036 C1034 1.419 . S
C1036 C1037 1.363 . S
C1036 H1039 0.929 . S
C1037 C1036 1.363 . S
C1037 C1043 1.428 . S
H1038 C1034 0.930 . S
H1039 C1036 0.929 . S
S1040 N1041 1.613 . S
S1040 N1042 1.610 . S
N1041 S1040 1.613 . S
N1041 C1044 1.350 . S
N1042 S1040 1.610 . S
N1042 C1043 1.351 . S
C1043 C1037 1.428 . S
C1043 N1042 1.351 . S
C1043 C1044 1.434 . S
C1044 C1035 1.429 . S
C1044 N1041 1.350 . S
C1044 C1043 1.434 . S
C1045 C1046 1.369 . S
C1045 C1047 1.419 . S
C1045 H1049 0.930 . S
C1046 C1045 1.369 . S
C1046 C1055 1.429 . S
C1047 C1045 1.419 . S
C1047 C1048 1.363 . S
C1047 H1050 0.929 . S
C1048 C1047 1.363 . S
C1048 C1054 1.428 . S
H1049 C1045 0.930 . S
H1050 C1047 0.929 . S
S1051 N1052 1.613 . S
S1051 N1053 1.610 . S
N1052 S1051 1.613 . S
N1052 C1055 1.350 . S
N1053 S1051 1.610 . S
N1053 C1054 1.351 . S
C1054 C1048 1.428 . S
C1054 N1053 1.351 . S
C1054 C1055 1.434 . S
C1055 C1046 1.429 . S
C1055 N1052 1.350 . S
C1055 C1054 1.434 . S
C1056 C1057 1.369 . S
C1056 C1058 1.419 1_655 S
C1056 H1060 0.930 . S
C1057 C1056 1.369 . S
C1057 C1066 1.429 . S
C1058 C1056 1.419 1_455 S
C1058 C1059 1.363 . S
C1058 H1061 0.929 . S
C1059 C1058 1.363 . S
C1059 C1065 1.428 . S
H1060 C1056 0.930 . S
H1061 C1058 0.929 . S
S1062 N1063 1.614 1_455 S
S1062 N1064 1.607 . S
N1063 S1062 1.614 1_655 S
N1063 C1066 1.350 . S
N1064 S1062 1.607 . S
N1064 C1065 1.351 . S
C1065 C1059 1.428 . S
C1065 N1064 1.351 . S
C1065 C1066 1.434 1_455 S
C1066 C1057 1.429 . S
C1066 N1063 1.350 . S
C1066 C1065 1.434 1_655 S
C1067 C1068 1.369 . S
C1067 C1069 1.419 1_565 S
C1067 H1071 0.930 . S
C1068 C1067 1.369 . S
C1068 C1077 1.429 . S
C1069 C1067 1.419 1_545 S
C1069 C1070 1.363 . S
C1069 H1072 0.929 . S
C1070 C1069 1.363 . S
C1070 C1076 1.428 . S
H1071 C1067 0.930 . S
H1072 C1069 0.929 . S
S1073 N1074 1.615 1_545 S
S1073 N1075 1.608 . S
N1074 S1073 1.615 1_565 S
N1074 C1077 1.350 . S
N1075 S1073 1.608 . S
N1075 C1076 1.351 . S
C1076 C1070 1.428 . S
C1076 N1075 1.351 . S
C1076 C1077 1.434 1_545 S
C1077 C1068 1.429 . S
C1077 N1074 1.350 . S
C1077 C1076 1.434 1_565 S
C1078 C1079 1.369 . S
C1078 C1080 1.419 . S
C1078 H1082 0.930 . S
C1079 C1078 1.369 . S
C1079 C1088 1.429 . S
C1080 C1078 1.419 . S
C1080 C1081 1.363 . S
C1080 H1083 0.929 . S
C1081 C1080 1.363 . S
C1081 C1087 1.428 . S
H1082 C1078 0.930 . S
H1083 C1080 0.929 . S
S1084 N1085 1.613 . S
S1084 N1086 1.610 . S
N1085 S1084 1.613 . S
N1085 C1088 1.350 . S
N1086 S1084 1.610 . S
N1086 C1087 1.351 . S
C1087 C1081 1.428 . S
C1087 N1086 1.351 . S
C1087 C1088 1.434 . S
C1088 C1079 1.429 . S
C1088 N1085 1.350 . S
C1088 C1087 1.434 . S
C1089 C1090 1.369 . S
C1089 C1091 1.419 1_455 S
C1089 H1093 0.930 . S
C1090 C1089 1.369 . S
C1090 C1099 1.429 . S
C1091 C1089 1.419 1_655 S
C1091 C1092 1.363 . S
C1091 H1094 0.929 . S
C1092 C1091 1.363 . S
C1092 C1098 1.428 . S
H1093 C1089 0.930 . S
H1094 C1091 0.929 . S
S1095 N1096 1.614 1_655 S
S1095 N1097 1.607 . S
N1096 S1095 1.614 1_455 S
N1096 C1099 1.350 . S
N1097 S1095 1.607 . S
N1097 C1098 1.351 . S
C1098 C1092 1.428 . S
C1098 N1097 1.351 . S
C1098 C1099 1.434 1_655 S
C1099 C1090 1.429 . S
C1099 N1096 1.350 . S
C1099 C1098 1.434 1_455 S
C1100 C1101 1.369 . S
C1100 C1102 1.419 1_545 S
C1100 H1104 0.930 . S
C1101 C1100 1.369 . S
C1101 C1110 1.429 . S
C1102 C1100 1.419 1_565 S
C1102 C1103 1.363 . S
C1102 H1105 0.929 . S
C1103 C1102 1.363 . S
C1103 C1109 1.428 . S
H1104 C1100 0.930 . S
H1105 C1102 0.929 . S
S1106 N1107 1.615 1_565 S
S1106 N1108 1.607 . S
N1107 S1106 1.615 1_545 S
N1107 C1110 1.350 . S
N1108 S1106 1.607 . S
N1108 C1109 1.351 . S
C1109 C1103 1.428 . S
C1109 N1108 1.351 . S
C1109 C1110 1.434 1_565 S
C1110 C1101 1.429 . S
C1110 N1107 1.350 . S
C1110 C1109 1.434 1_545 S
C1111 C1112 1.369 . S
C1111 C1113 1.419 . S
C1111 H1115 0.930 . S
C1112 C1111 1.369 . S
C1112 C1121 1.429 . S
C1113 C1111 1.419 . S
C1113 C1114 1.363 . S
C1113 H1116 0.929 . S
C1114 C1113 1.363 . S
C1114 C1120 1.428 . S
H1115 C1111 0.930 . S
H1116 C1113 0.929 . S
S1117 N1118 1.613 . S
S1117 N1119 1.610 . S
N1118 S1117 1.613 . S
N1118 C1121 1.350 . S
N1119 S1117 1.610 . S
N1119 C1120 1.351 . S
C1120 C1114 1.428 . S
C1120 N1119 1.351 . S
C1120 C1121 1.434 . S
C1121 C1112 1.429 . S
C1121 N1118 1.350 . S
C1121 C1120 1.434 . S
C1122 C1123 1.369 . S
C1122 C1124 1.419 1_565 S
C1122 H1126 0.930 . S
C1123 C1122 1.369 . S
C1123 C1132 1.429 . S
C1124 C1122 1.419 1_545 S
C1124 C1125 1.363 . S
C1124 H1127 0.929 . S
C1125 C1124 1.363 . S
C1125 C1131 1.428 . S
H1126 C1122 0.930 . S
H1127 C1124 0.929 . S
S1128 N1129 1.615 1_545 S
S1128 N1130 1.608 . S
N1129 S1128 1.615 1_565 S
N1129 C1132 1.350 . S
N1130 S1128 1.608 . S
N1130 C1131 1.351 . S
C1131 C1125 1.428 . S
C1131 N1130 1.351 . S
C1131 C1132 1.434 1_545 S
C1132 C1123 1.429 . S
C1132 N1129 1.350 . S
C1132 C1131 1.434 1_565 S
C1133 C1134 1.369 . S
C1133 C1135 1.419 . S
C1133 H1137 0.930 . S
C1134 C1133 1.369 . S
C1134 C1143 1.429 . S
C1135 C1133 1.419 . S
C1135 C1136 1.363 . S
C1135 H1138 0.929 . S
C1136 C1135 1.363 . S
C1136 C1142 1.428 . S
H1137 C1133 0.930 . S
H1138 C1135 0.929 . S
S1139 N1140 1.613 . S
S1139 N1141 1.610 . S
N1140 S1139 1.613 . S
N1140 C1143 1.350 . S
N1141 S1139 1.610 . S
N1141 C1142 1.351 . S
C1142 C1136 1.428 . S
C1142 N1141 1.351 . S
C1142 C1143 1.434 . S
C1143 C1134 1.429 . S
C1143 N1140 1.350 . S
C1143 C1142 1.434 . S
C1144 C1145 1.369 . S
C1144 C1146 1.419 1_655 S
C1144 H1148 0.930 . S
C1145 C1144 1.369 . S
C1145 C1154 1.429 . S
C1146 C1144 1.419 1_455 S
C1146 C1147 1.363 . S
C1146 H1149 0.929 . S
C1147 C1146 1.363 . S
C1147 C1153 1.428 . S
H1148 C1144 0.930 . S
H1149 C1146 0.929 . S
S1150 N1151 1.615 1_455 S
S1150 N1152 1.607 . S
N1151 S1150 1.615 1_655 S
N1151 C1154 1.350 . S
N1152 S1150 1.607 . S
N1152 C1153 1.351 . S
C1153 C1147 1.428 . S
C1153 N1152 1.351 . S
C1153 C1154 1.434 1_455 S
C1154 C1145 1.429 . S
C1154 N1151 1.350 . S
C1154 C1153 1.434 1_655 S
C1155 C1156 1.369 . S
C1155 C1157 1.419 1_565 S
C1155 H1159 0.930 . S
C1156 C1155 1.369 . S
C1156 C1165 1.429 . S
C1157 C1155 1.419 1_545 S
C1157 C1158 1.363 . S
C1157 H1160 0.929 . S
C1158 C1157 1.363 . S
C1158 C1164 1.428 . S
H1159 C1155 0.930 . S
H1160 C1157 0.929 . S
S1161 N1162 1.615 1_545 S
S1161 N1163 1.609 . S
N1162 S1161 1.615 1_565 S
N1162 C1165 1.350 . S
N1163 S1161 1.609 . S
N1163 C1164 1.351 . S
C1164 C1158 1.428 . S
C1164 N1163 1.351 . S
C1164 C1165 1.434 1_545 S
C1165 C1156 1.429 . S
C1165 N1162 1.350 . S
C1165 C1164 1.434 1_565 S
C1166 C1167 1.369 . S
C1166 C1168 1.419 . S
C1166 H1170 0.930 . S
C1167 C1166 1.369 . S
C1167 C1176 1.429 . S
C1168 C1166 1.419 . S
C1168 C1169 1.363 . S
C1168 H1171 0.929 . S
C1169 C1168 1.363 . S
C1169 C1175 1.428 . S
H1170 C1166 0.930 . S
H1171 C1168 0.929 . S
S1172 N1173 1.613 . S
S1172 N1174 1.610 . S
N1173 S1172 1.613 . S
N1173 C1176 1.350 . S
N1174 S1172 1.610 . S
N1174 C1175 1.351 . S
C1175 C1169 1.428 . S
C1175 N1174 1.351 . S
C1175 C1176 1.434 . S
C1176 C1167 1.429 . S
C1176 N1173 1.350 . S
C1176 C1175 1.434 . S
C1177 C1178 1.369 . S
C1177 C1179 1.419 1_655 S
C1177 H1181 0.930 . S
C1178 C1177 1.369 . S
C1178 C1187 1.429 . S
C1179 C1177 1.419 1_455 S
C1179 C1180 1.363 . S
C1179 H1182 0.929 . S
C1180 C1179 1.363 . S
C1180 C1186 1.428 . S
H1181 C1177 0.930 . S
H1182 C1179 0.929 . S
S1183 N1184 1.614 1_455 S
S1183 N1185 1.607 . S
N1184 S1183 1.614 1_655 S
N1184 C1187 1.350 . S
N1185 S1183 1.607 . S
N1185 C1186 1.351 . S
C1186 C1180 1.428 . S
C1186 N1185 1.351 . S
C1186 C1187 1.434 1_455 S
C1187 C1178 1.429 . S
C1187 N1184 1.350 . S
C1187 C1186 1.434 1_655 S
C1188 C1189 1.369 . S
C1188 C1190 1.419 1_556 S
C1188 H1192 0.930 . S
C1189 C1188 1.369 . S
C1189 C1198 1.429 . S
C1190 C1188 1.419 1_554 S
C1190 C1191 1.363 . S
C1190 H1193 0.929 . S
C1191 C1190 1.363 . S
C1191 C1197 1.428 . S
H1192 C1188 0.930 . S
H1193 C1190 0.929 . S
S1194 N1195 1.613 . S
S1194 N1196 1.610 1_556 S
N1195 S1194 1.613 . S
N1195 C1198 1.350 . S
N1196 S1194 1.610 1_554 S
N1196 C1197 1.351 . S
C1197 C1191 1.428 . S
C1197 N1196 1.351 . S
C1197 C1198 1.434 1_554 S
C1198 C1189 1.429 . S
C1198 N1195 1.350 . S
C1198 C1197 1.434 1_556 S
C1199 C1200 1.369 . S
C1199 C1201 1.419 . S
C1199 H1203 0.930 . S
C1200 C1199 1.369 . S
C1200 C1209 1.429 . S
C1201 C1199 1.419 . S
C1201 C1202 1.363 . S
C1201 H1204 0.929 . S
C1202 C1201 1.363 . S
C1202 C1208 1.428 . S
H1203 C1199 0.930 . S
H1204 C1201 0.929 . S
S1205 N1206 1.613 . S
S1205 N1207 1.610 . S
N1206 S1205 1.613 . S
N1206 C1209 1.350 . S
N1207 S1205 1.610 . S
N1207 C1208 1.351 . S
C1208 C1202 1.428 . S
C1208 N1207 1.351 . S
C1208 C1209 1.434 . S
C1209 C1200 1.429 . S
C1209 N1206 1.350 . S
C1209 C1208 1.434 . S
C1210 C1211 1.369 . S
C1210 C1212 1.419 1_554 S
C1210 H1214 0.930 . S
C1211 C1210 1.369 . S
C1211 C1220 1.429 1_554 S
C1212 C1210 1.419 1_556 S
C1212 C1213 1.363 . S
C1212 H1215 0.930 . S
C1213 C1212 1.363 . S
C1213 C1219 1.428 . S
H1214 C1210 0.930 . S
H1215 C1212 0.930 . S
S1216 N1217 1.613 . S
S1216 N1218 1.610 . S
N1217 S1216 1.613 . S
N1217 C1220 1.350 . S
N1218 S1216 1.610 . S
N1218 C1219 1.351 . S
C1219 C1213 1.428 . S
C1219 N1218 1.351 . S
C1219 C1220 1.434 . S
C1220 C1211 1.429 1_556 S
C1220 N1217 1.350 . S
C1220 C1219 1.434 . S
C1221 C1222 1.369 . S
C1221 C1223 1.419 . S
C1221 H1225 0.930 . S
C1222 C1221 1.369 . S
C1222 C1231 1.429 . S
C1223 C1221 1.419 . S
C1223 C1224 1.363 . S
C1223 H1226 0.929 . S
C1224 C1223 1.363 . S
C1224 C1230 1.428 . S
H1225 C1221 0.930 . S
H1226 C1223 0.929 . S
S1227 N1228 1.613 . S
S1227 N1229 1.610 . S
N1228 S1227 1.613 . S
N1228 C1231 1.350 . S
N1229 S1227 1.610 . S
N1229 C1230 1.351 . S
C1230 C1224 1.428 . S
C1230 N1229 1.351 . S
C1230 C1231 1.434 . S
C1231 C1222 1.429 . S
C1231 N1228 1.350 . S
C1231 C1230 1.434 . S
C1232 C1233 1.369 . S
C1232 C1234 1.419 1_556 S
C1232 H1236 0.930 . S
C1233 C1232 1.369 . S
C1233 C1242 1.429 . S
C1234 C1232 1.419 1_554 S
C1234 C1235 1.363 . S
C1234 H1237 0.929 . S
C1235 C1234 1.363 . S
C1235 C1241 1.428 . S
H1236 C1232 0.930 . S
H1237 C1234 0.929 . S
S1238 N1239 1.613 1_554 S
S1238 N1240 1.610 . S
N1239 S1238 1.613 1_556 S
N1239 C1242 1.350 . S
N1240 S1238 1.610 . S
N1240 C1241 1.351 . S
C1241 C1235 1.428 . S
C1241 N1240 1.351 . S
C1241 C1242 1.434 1_554 S
C1242 C1233 1.429 . S
C1242 N1239 1.350 . S
C1242 C1241 1.434 1_556 S
C1243 C1244 1.369 . S
C1243 C1245 1.419 . S
C1243 H1247 0.930 . S
C1244 C1243 1.369 . S
C1244 C1253 1.429 . S
C1245 C1243 1.419 . S
C1245 C1246 1.363 . S
C1245 H1248 0.929 . S
C1246 C1245 1.363 . S
C1246 C1252 1.428 . S
H1247 C1243 0.930 . S
H1248 C1245 0.929 . S
S1249 N1250 1.613 . S
S1249 N1251 1.610 . S
N1250 S1249 1.613 . S
N1250 C1253 1.350 . S
N1251 S1249 1.610 . S
N1251 C1252 1.351 . S
C1252 C1246 1.428 . S
C1252 N1251 1.351 . S
C1252 C1253 1.434 . S
C1253 C1244 1.429 . S
C1253 N1250 1.350 . S
C1253 C1252 1.434 . S
C1254 C1255 1.369 . S
C1254 C1256 1.419 1_554 S
C1254 H1258 0.931 . S
C1255 C1254 1.369 . S
C1255 C1264 1.429 . S
C1256 C1254 1.419 1_556 S
C1256 C1257 1.363 . S
C1256 H1259 0.929 . S
C1257 C1256 1.363 . S
C1257 C1263 1.435 . S
H1258 C1254 0.931 . S
H1259 C1256 0.929 . S
S1260 N1261 1.613 . S
S1260 N1262 1.610 . S
N1261 S1260 1.613 . S
N1261 C1264 1.350 . S
N1262 S1260 1.610 . S
N1262 C1263 1.350 1_554 S
C1263 C1257 1.435 . S
C1263 N1262 1.350 1_556 S
C1263 C1264 1.428 1_556 S
C1264 C1255 1.429 . S
C1264 N1261 1.350 . S
C1264 C1263 1.428 1_554 S
C1265 C1266 1.369 . S
C1265 C1267 1.419 . S
C1265 H1269 0.930 . S
C1266 C1265 1.369 . S
C1266 C1275 1.429 . S
C1267 C1265 1.419 . S
C1267 C1268 1.363 . S
C1267 H1270 0.929 . S
C1268 C1267 1.363 . S
C1268 C1274 1.428 . S
H1269 C1265 0.930 . S
H1270 C1267 0.929 . S
S1271 N1272 1.613 . S
S1271 N1273 1.610 . S
N1272 S1271 1.613 . S
N1272 C1275 1.350 . S
N1273 S1271 1.610 . S
N1273 C1274 1.351 . S
C1274 C1268 1.428 . S
C1274 N1273 1.351 . S
C1274 C1275 1.434 . S
C1275 C1266 1.429 . S
C1275 N1272 1.350 . S
C1275 C1274 1.434 . S
C1276 C1277 1.369 . S
C1276 C1278 1.419 1_554 S
C1276 H1280 0.930 . S
C1277 C1276 1.369 . S
C1277 C1286 1.429 . S
C1278 C1276 1.419 1_556 S
C1278 C1279 1.363 . S
C1278 H1281 0.929 . S
C1279 C1278 1.363 . S
C1279 C1285 1.428 . S
H1280 C1276 0.930 . S
H1281 C1278 0.929 . S
S1282 N1283 1.613 . S
S1282 N1284 1.608 . S
N1283 S1282 1.613 . S
N1283 C1286 1.350 . S
N1284 S1282 1.608 . S
N1284 C1285 1.351 1_554 S
C1285 C1279 1.428 . S
C1285 N1284 1.351 1_556 S
C1285 C1286 1.434 1_556 S
C1286 C1277 1.429 . S
C1286 N1283 1.350 . S
C1286 C1285 1.434 1_554 S
C1287 C1288 1.369 . S
C1287 C1289 1.419 . S
C1287 H1291 0.930 . S
C1288 C1287 1.369 . S
C1288 C1297 1.429 . S
C1289 C1287 1.419 . S
C1289 C1290 1.363 . S
C1289 H1292 0.929 . S
C1290 C1289 1.363 . S
C1290 C1296 1.428 . S
H1291 C1287 0.930 . S
H1292 C1289 0.929 . S
S1293 N1294 1.613 . S
S1293 N1295 1.610 . S
N1294 S1293 1.613 . S
N1294 C1297 1.350 . S
N1295 S1293 1.610 . S
N1295 C1296 1.351 . S
C1296 C1290 1.428 . S
C1296 N1295 1.351 . S
C1296 C1297 1.434 . S
C1297 C1288 1.429 . S
C1297 N1294 1.350 . S
C1297 C1296 1.434 . S
C1298 C1299 1.362 1_556 S
C1298 C1300 1.425 . S
C1298 H1302 0.931 . S
C1299 C1298 1.362 1_554 S
C1299 C1308 1.429 . S
C1300 C1298 1.425 . S
C1300 C1301 1.363 . S
C1300 H1303 0.929 . S
C1301 C1300 1.363 . S
C1301 C1307 1.428 1_556 S
H1302 C1298 0.931 . S
H1303 C1300 0.929 . S
S1304 N1305 1.613 . S
S1304 N1306 1.610 . S
N1305 S1304 1.613 . S
N1305 C1308 1.350 . S
N1306 S1304 1.610 . S
N1306 C1307 1.351 . S
C1307 C1301 1.428 1_554 S
C1307 N1306 1.351 . S
C1307 C1308 1.434 . S
C1308 C1299 1.429 . S
C1308 N1305 1.350 . S
C1308 C1307 1.434 . S
C1309 C1310 1.369 . S
C1309 C1311 1.419 . S
C1309 H1313 0.930 . S
C1310 C1309 1.369 . S
C1310 C1319 1.429 . S
C1311 C1309 1.419 . S
C1311 C1312 1.363 . S
C1311 H1314 0.929 . S
C1312 C1311 1.363 . S
C1312 C1318 1.428 . S
H1313 C1309 0.930 . S
H1314 C1311 0.929 . S
S1315 N1316 1.613 . S
S1315 N1317 1.610 . S
N1316 S1315 1.613 . S
N1316 C1319 1.350 . S
N1317 S1315 1.610 . S
N1317 C1318 1.351 . S
C1318 C1312 1.428 . S
C1318 N1317 1.351 . S
C1318 C1319 1.434 . S
C1319 C1310 1.429 . S
C1319 N1316 1.350 . S
C1319 C1318 1.434 . S
C529 C194 1.150 . S
C531 C10 1.151 . S
C540 C30 1.159 . S
C542 C206 1.158 . S
C551 C230 1.154 . S
C553 C52 1.153 . S
C562 C74 1.159 . S
C564 C260 1.158 . S
C573 C142 1.150 . S
C575 C106 1.150 . S
C584 C164 1.156 . S
C586 C118 1.156 . S
C595 C272 1.153 . S
C597 C458 1.153 . S
C606 C472 1.150 . S
C608 C296 1.151 . S
C617 C494 1.152 . S
C619 C326 1.152 . S
C628 C340 1.158 . S
C630 C516 1.158 . S
C639 C362 1.152 . S
C641 C404 1.153 . S
C650 C428 1.154 . S
C652 C392 1.154 . S
C661 C21 1.290 . S
C663 C65 1.320 . S
C672 C87 1.319 . S
C674 C29 1.288 . S
C683 C51 1.286 . S
C685 C95 1.323 . S
C694 C73 1.278 . S
C696 C131 1.322 . S
C705 C15 1.319 . S
C707 C103 1.278 . S
C716 C43 1.325 . S
C718 C117 1.283 . S
C727 C235 1.319 . S
C729 C153 1.288 . S
C738 C175 1.282 . S
C740 C249 1.316 . S
C749 C191 1.290 . S
C751 C147 1.320 . S
C760 C169 1.315 . S
C762 C205 1.284 . S
C771 C183 1.324 . S
C773 C241 1.286 . S
C782 C219 1.316 . S
C784 C257 1.282 . S
C793 C315 1.315 . S
C795 C271 1.282 . S
C804 C307 1.280 . S
C806 C345 1.317 . S
C815 C323 1.287 . S
C817 C367 1.318 . S
C826 C351 1.287 . S
C828 C381 1.317 . S
C837 C285 1.318 . S
C839 C373 1.278 . S
C848 C301 1.319 . S
C850 C389 1.288 . S
C859 C403 1.285 . S
C861 C499 1.324 . S
C870 C439 1.279 . S
C872 C521 1.322 . S
C881 C455 1.287 . S
C883 C417 1.318 . S
C892 C483 1.287 . S
C894 C433 1.318 . S
C903 C447 1.322 . S
C905 C505 1.288 . S
C914 C477 1.315 . S
C916 C527 1.282 . S
C925 C7 1.505 . S
C927 C337 1.505 . S
C936 C359 1.504 . S
C938 C37 1.504 . S
C947 C59 1.504 . S
C949 C395 1.504 . S
C958 C81 1.504 . S
C960 C279 1.504 . S
C969 C293 1.504 . S
C971 C109 1.504 . S
C980 C125 1.504 . S
C982 C329 1.504 . S
C991 C139 1.505 . S
C993 C469 1.505 . S
C1002 C491 1.505 . S
C1004 C161 1.505 . S
C1013 C197 1.505 . S
C1015 C513 1.505 . S
C1024 C213 1.505 . S
C1026 C411 1.505 . S
C1035 C425 1.504 . S
C1037 C227 1.504 . S
C1046 C461 1.505 . S
C1048 C263 1.505 . S
C1057 C448 1.368 . S
C1059 C18 1.369 . S
C1068 C480 1.370 . S
C1070 C32 1.371 . S
C1079 C502 1.369 . S
C1081 C54 1.370 . S
C1090 C524 1.368 . S
C1092 C76 1.369 . S
C1101 C406 1.374 . S
C1103 C96 1.374 . S
C1112 C120 1.375 . S
C1114 C436 1.374 . S
C1123 C150 1.372 . S
C1125 C370 1.372 . S
C1134 C382 1.374 . S
C1136 C172 1.374 . S
C1145 C274 1.374 . S
C1147 C184 1.373 . S
C1156 C304 1.375 . S
C1158 C208 1.375 . S
C1167 C238 1.368 . S
C1169 C316 1.369 . S
C1178 C250 1.369 . S
C1180 C348 1.369 . S
C1189 C228 1.255 . S
C1191 C8 1.256 . S
C1200 C252 1.258 . S
C1202 C40 1.257 . S
C1211 C62 1.260 . S
C1213 C140 1.259 . S
C1222 C84 1.255 . S
C1224 C162 1.257 . S
C1233 C186 1.256 . S
C1235 C98 1.256 . S
C1244 C128 1.265 . S
C1246 C216 1.263 . S
C1255 C492 1.263 . S
C1257 C282 1.263 . S
C1266 C514 1.256 . S
C1268 C294 1.256 . S
C1277 C414 1.257 . S
C1279 C318 1.259 . S
C1288 C338 1.255 . S
C1290 C426 1.256 . S
C1299 C450 1.262 . S
C1301 C360 1.262 . S
C1310 C384 1.255 . S
C1312 C470 1.256 . S
