# Generated by pormake.
# Topology qtz-x, (6)-cn, num edge types: 1
# Building blocks:
#     Node 0, Type 0, BuildingBlock: KUMBOL_clean_sbu_1, # of connection points: 6
#     Node 1, Type 0, BuildingBlock: KUMBOL_clean_sbu_1, # of connection points: 6
#     Node 2, Type 0, BuildingBlock: KUMBOL_clean_sbu_1, # of connection points: 6
#     Edge 3, Type (0, 0), BuildingBlock: CIFDUS_clean_linker_0, # of connection points: 2
#     Edge 4, Type (0, 0), BuildingBlock: CIFDUS_clean_linker_0, # of connection points: 2
#     Edge 5, Type (0, 0), BuildingBlock: CIFDUS_clean_linker_0, # of connection points: 2
#     Edge 6, Type (0, 0), BuildingBlock: CIFDUS_clean_linker_0, # of connection points: 2
#     Edge 7, Type (0, 0), BuildingBlock: CIFDUS_clean_linker_0, # of connection points: 2
#     Edge 8, Type (0, 0), BuildingBlock: CIFDUS_clean_linker_0, # of connection points: 2
#     Edge 9, Type (0, 0), BuildingBlock: CIFDUS_clean_linker_0, # of connection points: 2
#     Edge 10, Type (0, 0), BuildingBlock: CIFDUS_clean_linker_0, # of connection points: 2
#     Edge 11, Type (0, 0), BuildingBlock: CIFDUS_clean_linker_0, # of connection points: 2
# Relax obj value: 0.200
# Max RMSD: 0.280
# Mean RMSD: 0.280
data_MOF--net-qtz-x--node1-KUMBOL_clean_sbu_1--edge1-CIFDUS_clean_linker_0
_symmetry_space_group_name_H-M    P1
_symmetry_Int_Tables_number       1
_symmetry_cell_setting            triclinic
loop_
_symmetry_equiv_pos_as_xyz
'x, y, z'
_cell_length_a     13.115779
_cell_length_b     13.051752
_cell_length_c     47.677744
_cell_angle_alpha  90.160796
_cell_angle_beta   89.873753
_cell_angle_gamma 120.22344
loop_
_atom_site_label
_atom_site_type_symbol
_atom_site_fract_x
_atom_site_fract_y
_atom_site_fract_z
_atom_type_partial_charge
C0 C 0.40149 0.55754 0.15546 0.0
C1 C 0.48739 0.75458 0.13546 0.0
C2 C 0.40167 0.66354 0.15248 0.0
C3 C 0.57191 0.73723 0.12147 0.0
C4 C 0.48192 0.53758 0.14024 0.0
C5 C 0.56873 0.6287 0.12372 0.0
N6 N 0.31496 0.46956 0.1711 0.0
C7 C 0.30492 0.36063 0.17282 0.0
C8 C 0.46931 0.42466 0.14107 0.0
C9 C 0.37913 0.33507 0.15701 0.0
Gd10 Gd 0.86694 0.38079 0.14783 0.0
Gd11 Gd 0.17461 0.50858 0.19059 0.0
N12 N 0.31565 0.67585 0.16538 0.0
C13 C 0.48472 0.85985 0.13269 0.0
C14 C 0.31897 0.78206 0.16454 0.0
C15 C 0.40087 0.87405 0.14754 0.0
H16 H 0.26116 0.79843 0.17738 0.0
H17 H 0.40124 0.95709 0.14649 0.0
H18 H 0.78069 0.08895 0.15921 0.0
H19 H 0.23855 0.29296 0.18606 0.0
H20 H 0.63468 0.92477 0.1878 0.0
H21 H 0.54877 0.93177 0.11975 0.0
H22 H 0.63865 0.80636 0.10841 0.0
H23 H 0.80818 0.59909 0.15556 0.0
H24 H 0.53113 0.40745 0.13015 0.0
H25 H 0.36944 0.24772 0.15787 0.0
H26 H 0.39886 0.07334 0.22794 0.0
H27 H 0.63225 0.61521 0.11215 0.0
H28 H 0.5172 0.48007 0.21106 0.0
H29 H 0.67869 0.64213 0.18481 0.0
N30 N 0.73354 0.42203 0.17 0.0
C31 C 0.64523 0.33133 0.18467 0.0
C32 C 0.74375 0.53113 0.16902 0.0
C33 C 0.57991 0.4638 0.20072 0.0
C34 C 0.67002 0.55516 0.18529 0.0
C35 C 0.56547 0.35005 0.20044 0.0
H36 H 0.41159 0.26809 0.22743 0.0
N37 N 0.7285 0.21163 0.17287 0.0
C38 C 0.64214 0.22308 0.18597 0.0
C39 C 0.55252 0.02153 0.20283 0.0
C40 C 0.55286 0.12874 0.20161 0.0
C41 C 0.72263 0.10413 0.17227 0.0
C42 C 0.6372 1.00897 0.18791 0.0
O43 O 0.17195 0.46222 0.14416 0.0
O44 O 0.03298 0.49319 0.12258 0.0
O45 O 0.78638 0.25396 0.11367 0.0
O46 O 0.7557 0.40406 0.11762 0.0
O47 O 0.08255 0.61587 0.18946 0.0
O48 O 0.99101 0.57939 0.14621 0.0
O49 O 0.87253 0.42846 0.19394 0.0
O50 O 1.00335 0.38036 0.21148 0.0
O51 O 0.25247 0.6392 0.22494 0.0
O52 O 0.25931 0.47656 0.22558 0.0
O53 O 0.95613 0.27072 0.14761 0.0
O54 O 0.05405 0.30874 0.19009 0.0
C55 C 0.12431 0.47745 0.12134 0.0
C56 C 0.03731 0.64623 0.16864 0.0
C57 C 0.65753 0.26691 0.07932 0.0
C58 C 0.62088 0.19291 0.03143 0.0
C59 C 0.47416 0.21974 0.05637 0.0
C60 C 0.54719 0.25949 0.07982 0.0
C61 C 0.51058 0.18659 0.03227 0.0
C62 C 0.69395 0.23256 0.05517 0.0
C63 C 0.73328 0.30816 0.10414 0.0
C64 C 0.46829 0.14501 0.21595 0.0
C65 C 0.47525 0.25574 0.2156 0.0
H66 H 0.48579 0.94712 0.2147 0.0
C67 C 0.91714 0.40162 0.21523 0.0
C68 C 1.0082 0.24339 0.1674 0.0
C69 C 0.37818 0.62275 0.26026 0.0
C70 C 0.45585 0.72347 0.30526 0.0
C71 C 0.54313 0.6194 0.28263 0.0
C72 C 0.45954 0.58326 0.26131 0.0
C73 C 0.54099 0.68861 0.3046 0.0
C74 C 0.37778 0.69496 0.28239 0.0
C75 C 0.28229 0.57288 0.23899 0.0
H76 H 0.38975 0.21586 0.05676 0.0
H77 H 0.51629 0.282 0.09845 0.0
H78 H 0.45455 0.16075 0.01388 0.0
H79 H 0.78015 0.24008 0.05454 0.0
H80 H 0.60569 0.58835 0.28289 0.0
H81 H 0.45428 0.51924 0.24653 0.0
H82 H 0.60216 0.71003 0.32186 0.0
H83 H 0.31512 0.72545 0.28228 0.0
C84 C 0.42372 0.73206 0.48467 0.0
C85 C 0.52554 0.63893 0.46361 0.0
C86 C 0.52711 0.72822 0.48066 0.0
C87 C 0.42063 0.55687 0.45004 0.0
C88 C 0.32001 0.65364 0.46996 0.0
C89 C 0.31863 0.56508 0.45293 0.0
N90 N 0.42759 0.81938 0.50109 0.0
C91 C 0.33008 0.82992 0.50472 0.0
C92 C 0.22226 0.66969 0.47195 0.0
C93 C 0.22724 0.75793 0.48952 0.0
Gd94 Gd 0.78263 0.26885 0.48161 0.0
Gd95 Gd 0.61094 0.95098 0.52102 0.0
N96 N 0.629 0.81216 0.49309 0.0
C97 C 0.62951 0.63463 0.4607 0.0
C98 C 0.72819 0.80315 0.49177 0.0
C99 C 0.73072 0.71632 0.47512 0.0
H100 H 0.80493 0.85949 0.50415 0.0
H101 H 0.81017 0.71092 0.47404 0.0
H102 H 0.59013 0.36751 0.49275 0.0
H103 H 0.33183 0.89433 0.51914 0.0
H104 H 0.57684 0.51447 0.52245 0.0
H105 H 0.63186 0.56698 0.44795 0.0
H106 H 0.41795 0.48772 0.43689 0.0
H107 H 0.0635 0.33398 0.48547 0.0
H108 H 0.14188 0.61307 0.46045 0.0
H109 H 0.15108 0.76881 0.49182 0.0
H110 H 0.95414 0.72471 0.56771 0.0
H111 H 0.23933 0.50309 0.44174 0.0
H112 H 0.23753 0.60499 0.54749 0.0
H113 H 0.23764 0.45619 0.51521 0.0
N114 N 0.96237 0.40428 0.50277 0.0
C115 C 0.96122 0.48726 0.51982 0.0
C116 C 0.06151 0.39588 0.5001 0.0
C117 C 0.16003 0.54962 0.53495 0.0
C118 C 0.1604 0.4656 0.51679 0.0
C119 C 0.06066 0.56316 0.53617 0.0
H120 H 0.13307 0.70847 0.56595 0.0
N121 N 0.76088 0.41136 0.50738 0.0
C122 C 0.85788 0.49164 0.52196 0.0
C123 C 0.75159 0.58528 0.53944 0.0
C124 C 0.85491 0.57894 0.53888 0.0
C125 C 0.66272 0.4223 0.50648 0.0
C126 C 0.65563 0.50747 0.52293 0.0
O127 O 0.55735 0.96344 0.47565 0.0
O128 O 0.73579 0.10069 0.45945 0.0
O129 O 0.72062 0.32244 0.44555 0.0
O130 O 0.90708 0.38058 0.44978 0.0
O131 O 0.81247 0.03834 0.51693 0.0
O132 O 0.85915 0.14826 0.47601 0.0
O133 O 0.83397 0.24695 0.52485 0.0
O134 O 0.66284 0.11606 0.54691 0.0
O135 O 0.66909 0.87822 0.55459 0.0
O136 O 0.48595 0.82634 0.55118 0.0
O137 O 0.58242 0.18151 0.4872 0.0
O138 O 0.53641 0.07197 0.52822 0.0
C139 C 0.62683 0.02099 0.4545 0.0
C140 C 0.8854 0.09504 0.4959 0.0
C141 C 0.85491 0.48834 0.41893 0.0
C142 C 0.8899 0.58143 0.37327 0.0
C143 C 0.92831 0.69916 0.41568 0.0
C144 C 0.89325 0.59786 0.43205 0.0
C145 C 0.92848 0.69152 0.38635 0.0
C146 C 0.85094 0.48009 0.38972 0.0
C147 C 0.82538 0.38109 0.43447 0.0
C148 C 0.95504 0.65737 0.55454 0.0
C149 C 0.05713 0.64853 0.55345 0.0
H150 H 0.74594 0.65156 0.55201 0.0
C151 C 0.766 0.21408 0.54683 0.0
C152 C 0.51264 0.12937 0.50897 0.0
C153 C 0.55918 0.83378 0.59696 0.0
C154 C 0.57976 0.78184 0.64538 0.0
C155 C 0.51169 0.92133 0.63621 0.0
C156 C 0.52197 0.91031 0.60743 0.0
C157 C 0.53995 0.85778 0.655 0.0
C158 C 0.58794 0.76911 0.61606 0.0
C159 C 0.56533 0.82013 0.56619 0.0
H160 H 0.95884 0.78421 0.42571 0.0
H161 H 0.89814 0.60492 0.4547 0.0
H162 H 0.96123 0.77136 0.37392 0.0
H163 H 0.82457 0.39544 0.37973 0.0
H164 H 0.48133 0.97933 0.64404 0.0
H165 H 0.49968 0.96098 0.5933 0.0
H166 H 0.52959 0.86742 0.67724 0.0
H167 H 0.61755 0.71049 0.60817 0.0
C168 C 0.60499 0.72549 0.82071 0.0
C169 C 0.40749 0.62401 0.80117 0.0
C170 C 0.49593 0.62256 0.81765 0.0
C171 C 0.43195 0.72817 0.78694 0.0
C172 C 0.63022 0.8298 0.80628 0.0
C173 C 0.54323 0.83046 0.78933 0.0
N174 N 0.68855 0.72174 0.83679 0.0
C175 C 0.7966 0.82048 0.8406 0.0
C176 C 0.74267 0.93009 0.80914 0.0
C177 C 0.82594 0.9256 0.82651 0.0
Gd178 Gd 0.77172 0.3565 0.81749 0.0
Gd179 Gd 0.63713 0.53761 0.8565 0.0
N180 N 0.47602 0.52176 0.83097 0.0
C181 C 0.2966 0.52108 0.79969 0.0
C182 C 0.36545 0.42415 0.8312 0.0
C183 C 0.27509 0.42135 0.8151 0.0
H184 H 0.3448 0.34875 0.84421 0.0
H185 H 0.18818 0.34294 0.81499 0.0
H186 H 0.06002 0.55101 0.83345 0.0
H187 H 0.86022 0.81821 0.85449 0.0
H188 H 0.21258 0.55857 0.86432 0.0
H189 H 0.2261 0.51871 0.78737 0.0
H190 H 0.36524 0.73057 0.77406 0.0
H191 H 0.54204 0.07996 0.823 0.0
H192 H 0.76532 1.01177 0.79839 0.0
H193 H 0.91227 1.00332 0.82927 0.0
H194 H 0.03095 0.17445 0.90679 0.0
H195 H 0.56094 0.9099 0.77813 0.0
H196 H 0.62962 0.89455 0.88329 0.0
H197 H 0.48524 0.89992 0.85097 0.0
N198 N 0.71117 0.17906 0.84171 0.0
C199 C 0.79404 0.17682 0.85845 0.0
C200 C 0.60324 0.08012 0.83806 0.0
C201 C 0.65379 0.97482 0.87168 0.0
C202 C 0.57173 0.97762 0.85354 0.0
C203 C 0.76707 0.07439 0.87398 0.0
H204 H 0.83496 0.99651 0.90318 0.0
N205 N 0.9263 0.37953 0.84692 0.0
C206 C 0.90426 0.27954 0.86109 0.0
C207 C 0.10216 0.38162 0.88002 0.0
C208 C 0.99112 0.27903 0.87842 0.0
C209 C 0.03699 0.47706 0.84712 0.0
C210 C 0.12542 0.48053 0.8641 0.0
O211 O 0.69578 0.58537 0.81103 0.0
O212 O 0.69516 0.43088 0.78646 0.0
O213 O 0.91504 0.37628 0.79115 0.0
O214 O 0.7424 0.21761 0.78776 0.0
O215 O 0.51916 0.33726 0.85075 0.0
O216 O 0.57943 0.2931 0.80892 0.0
O217 O 0.69682 0.31497 0.86126 0.0
O218 O 0.75753 0.49474 0.88065 0.0
O219 O 0.51562 0.48395 0.89347 0.0
O220 O 0.65596 0.66644 0.887 0.0
O221 O 0.88959 0.55866 0.81839 0.0
O222 O 0.83429 0.61122 0.85971 0.0
C223 C 0.69255 0.53046 0.78747 0.0
C224 C 0.4983 0.27058 0.82812 0.0
C225 C 0.8817 0.25324 0.75184 0.0
C226 C 0.90065 0.29184 0.70189 0.0
C227 C 0.95839 0.15731 0.72203 0.0
C228 C 0.92665 0.17672 0.74847 0.0
C229 C 0.94553 0.21426 0.69885 0.0
C230 C 0.86839 0.31109 0.72863 0.0
C231 C 0.85253 0.27144 0.78012 0.0
C232 C 0.96514 0.17622 0.89343 0.0
C233 C 0.85339 0.07462 0.89135 0.0
H234 H 0.1714 0.38442 0.89295 0.0
C235 C 0.74463 0.38909 0.88199 0.0
C236 C 0.90933 0.63479 0.83893 0.0
C237 C 0.54439 0.63634 0.92955 0.0
C238 C 0.43326 0.61327 0.97303 0.0
C239 C 0.60588 0.80259 0.9618 0.0
C240 C 0.62192 0.75527 0.93717 0.0
C241 C 0.5126 0.73241 0.97958 0.0
C242 C 0.44882 0.5644 0.9478 0.0
C243 C 0.57048 0.59248 0.90301 0.0
H244 H 0.99175 0.09702 0.71943 0.0
H245 H 0.93738 0.13198 0.76636 0.0
H246 H 0.96715 0.19429 0.67837 0.0
H247 H 0.83266 0.3695 0.73133 0.0
H248 H 0.66665 0.89424 0.9672 0.0
H249 H 0.69667 0.81265 0.92413 0.0
H250 H 0.50222 0.77145 0.9987 0.0
H251 H 0.3882 0.47242 0.94258 0.0
H252 H 0.05657 0.80563 0.12901 0.0
H253 H 0.99448 0.72582 0.21721 0.0
H254 H 0.97936 0.90278 0.22487 0.0
H255 H 0.98746 0.08334 0.2067 0.0
H256 H 0.04932 0.16388 0.11857 0.0
H257 H 0.06341 0.98609 0.11074 0.0
C258 C 0.03973 0.82736 0.14984 0.0
C259 C 0.02779 0.75368 0.17253 0.0
C260 C 0.03235 0.93025 0.15418 0.0
C261 C 1.00609 0.78253 0.19948 0.0
C262 C 0.99699 0.88344 0.20388 0.0
C263 C 1.00425 0.0617 0.18584 0.0
C264 C 0.01698 0.13588 0.16324 0.0
C265 C 1.01104 0.95864 0.18146 0.0
C266 C 0.03782 0.10692 0.13624 0.0
C267 C 0.04618 1.00554 0.13176 0.0
H268 H 0.38553 0.15668 0.46728 0.0
H269 H 0.38284 0.0984 0.55634 0.0
H270 H 0.18802 0.07885 0.56027 0.0
H271 H 0.01506 0.07415 0.53825 0.0
H272 H 0.01871 0.13167 0.4491 0.0
H273 H 0.21468 0.15485 0.44545 0.0
C274 C 0.3429 0.14098 0.48759 0.0
C275 C 0.39902 0.12881 0.51143 0.0
C276 C 0.22975 0.1282 0.48969 0.0
C277 C 0.34172 0.10764 0.53757 0.0
C278 C 0.22991 0.09605 0.53985 0.0
C279 C 0.05826 0.09042 0.51799 0.0
C280 C 1.00144 0.10032 0.49399 0.0
C281 C 0.17221 0.1047 0.51601 0.0
C282 C 0.05986 0.12332 0.46796 0.0
C283 C 0.1724 0.13702 0.46583 0.0
H284 H 0.02666 0.79506 0.79726 0.0
H285 H 0.04845 0.72623 0.88472 0.0
H286 H 0.23031 0.91783 0.8895 0.0
H287 H 0.38114 0.10847 0.86913 0.0
H288 H 0.36244 0.17737 0.78155 0.0
H289 H 0.1804 0.9852 0.77662 0.0
C290 C 0.07229 0.82187 0.81722 0.0
C291 C 0.02461 0.74672 0.84059 0.0
C292 C 0.176 0.93362 0.81994 0.0
C293 C 0.08331 0.78301 0.86648 0.0
C294 C 0.18709 0.89269 0.86924 0.0
C295 C 0.33628 0.08169 0.84906 0.0
C296 C 0.3843 0.15734 0.82577 0.0
C297 C 0.23345 0.96961 0.84624 0.0
C298 C 0.32696 0.12053 0.79975 0.0
C299 C 0.22317 1.01051 0.79692 0.0
H300 H 0.43658 0.49106 0.01861 0.0
H301 H 0.21992 0.59954 0.97491 0.0
H302 H 0.09822 0.56197 0.01695 0.0
H303 H 0.07436 0.52905 0.06851 0.0
H304 H 0.27873 0.40116 0.11042 0.0
H305 H 0.3865 0.41913 0.06745 0.0
C306 C 0.35963 0.50154 0.01797 0.0
C307 C 0.33644 0.54669 0.99355 0.0
C308 C 0.29167 0.48224 0.04247 0.0
C309 C 0.23817 0.56272 0.99327 0.0
C310 C 0.16988 0.54329 0.01751 0.0
C311 C 0.14181 0.50429 0.0682 0.0
C312 C 0.17493 0.47272 0.09347 0.0
C313 C 0.19917 0.50829 0.04266 0.0
C314 C 0.25868 0.43569 0.09209 0.0
C315 C 0.31835 0.44293 0.0672 0.0
H316 H 0.7254 0.45358 0.33331 0.0
H317 H 0.09864 0.68204 0.34691 0.0
H318 H 0.13875 0.64083 0.2997 0.0
H319 H 0.07065 0.53848 0.25489 0.0
H320 H 0.70036 0.31157 0.24009 0.0
H321 H 0.65527 0.35559 0.28681 0.0
C322 C 0.81525 0.49652 0.32548 0.0
C323 C 0.90907 0.57275 0.34315 0.0
C324 C 0.83829 0.47301 0.2981 0.0
C325 C 0.02523 0.62603 0.33328 0.0
C326 C 0.04846 0.60162 0.30639 0.0
C327 C 0.98056 0.4983 0.26192 0.0
C328 C 0.88911 0.42272 0.24392 0.0
C329 C 0.95626 0.52475 0.28872 0.0
C330 C 0.77204 0.37225 0.25322 0.0
C331 C 0.7465 0.39674 0.2801 0.0
H332 H 0.60016 0.43421 0.7354 0.0
H333 H 0.79969 0.76678 0.77923 0.0
H334 H 0.78912 0.87366 0.73874 0.0
H335 H 0.7129 0.8733 0.6921 0.0
H336 H 0.51563 0.54509 0.64659 0.0
H337 H 0.54029 0.43691 0.68566 0.0
C338 C 0.64236 0.5301 0.73588 0.0
C339 C 0.69678 0.59205 0.76084 0.0
C340 C 0.63727 0.59205 0.71204 0.0
C341 C 0.75269 0.71644 0.76088 0.0
C342 C 0.74796 0.77797 0.73754 0.0
C343 C 0.67562 0.77804 0.69061 0.0
C344 C 0.61067 0.71734 0.66659 0.0
C345 C 0.68825 0.71665 0.71327 0.0
C346 C 0.5658 0.59425 0.6648 0.0
C347 C 0.57901 0.5322 0.68729 0.0
H348 H 0.62322 0.17067 0.90461 0.0
H349 H 0.9219 0.5201 0.91827 0.0
H350 H 0.93504 0.46999 0.96699 0.0
H351 H 0.82617 0.34891 0.00726 0.0
H352 H 0.51389 1.00838 0.99437 0.0
H353 H 0.54445 0.02938 0.94362 0.0
C354 C 0.6933 0.2342 0.91809 0.0
C355 C 0.769 0.34982 0.90855 0.0
C356 C 0.69707 0.2062 0.94622 0.0
C357 C 0.86039 0.43172 0.9258 0.0
C358 C 0.86815 0.40293 0.95351 0.0
C359 C 0.76802 0.277 0.99338 0.0
C360 C 0.66589 0.17924 0.00418 0.0
C361 C 0.78166 0.29356 0.96437 0.0
C362 C 0.5916 0.08575 0.98621 0.0
C363 C 0.60833 0.0984 0.95726 0.0
H364 H 0.59404 0.94833 0.32357 0.0
H365 H 0.29639 0.61178 0.34681 0.0
H366 H 0.31396 0.67815 0.39567 0.0
H367 H 0.4314 0.82448 0.43252 0.0
H368 H 0.73687 0.15478 0.40874 0.0
H369 H 0.69594 0.10187 0.35954 0.0
C370 C 0.53055 0.89153 0.33919 0.0
C371 C 0.44326 0.77629 0.33165 0.0
C372 C 0.54349 0.92913 0.3673 0.0
C373 C 0.36278 0.70193 0.35211 0.0
C374 C 0.37386 0.73936 0.3801 0.0
C375 C 0.48872 0.88444 0.41668 0.0
C376 C 0.58899 0.9917 0.42467 0.0
C377 C 0.46676 0.85138 0.38814 0.0
C378 C 0.66027 0.07044 0.40349 0.0
C379 C 0.63712 0.04023 0.37519 0.0
H380 H 0.04547 0.39546 0.65785 0.0
H381 H 0.69761 0.29154 0.68864 0.0
H382 H 0.62761 0.28037 0.64067 0.0
H383 H 0.65233 0.24257 0.591 0.0
H384 H 0.99519 0.31917 0.56187 0.0
H385 H 0.07983 0.39667 0.6077 0.0
C386 C 0.95528 0.374 0.65398 0.0
C387 C 0.87524 0.33866 0.67637 0.0
C388 C 0.91371 0.35818 0.62649 0.0
C389 C 0.76008 0.31607 0.67154 0.0
C390 C 0.7195 0.30762 0.6441 0.0
C391 C 0.74575 0.27801 0.59476 0.0
C392 C 0.81732 0.27395 0.57343 0.0
C393 C 0.793 0.31833 0.62154 0.0
C394 C 0.93868 0.32198 0.57806 0.0
C395 C 0.98711 0.36591 0.60429 0.0
loop_
_geom_bond_atom_site_label_1
_geom_bond_atom_site_label_2
_geom_bond_distance
_geom_bond_site_symmetry_2
_ccdc_geom_bond_type
C0 C2 1.422 . S
C0 C4 1.415 . S
C0 N6 1.369 . S
C1 C2 1.421 . S
C1 C3 1.417 . S
C1 C13 1.422 . S
C2 C0 1.422 . S
C2 C1 1.421 . S
C2 N12 1.359 . S
C3 C1 1.417 . S
C3 C5 1.329 . S
C3 H22 0.930 . S
C4 C0 1.415 . S
C4 C5 1.437 . S
C4 C8 1.413 . S
C5 C3 1.329 . S
C5 C4 1.437 . S
C5 H27 0.929 . S
N6 C0 1.369 . S
N6 C7 1.338 . S
N6 Gd11 2.622 . S
C7 N6 1.338 . S
C7 C9 1.378 . S
C7 H19 0.929 . S
C8 C4 1.413 . S
C8 C9 1.348 . S
C8 H24 0.931 . S
C9 C7 1.378 . S
C9 C8 1.348 . S
C9 H25 0.930 . S
Gd10 N30 2.622 . S
Gd10 N37 2.570 . S
Gd10 O44 2.353 1_655 S
Gd10 O45 2.468 . S
Gd10 O46 2.427 . S
Gd10 O48 2.388 . S
Gd10 O49 2.386 . S
Gd10 O53 2.307 . S
Gd10 C63 2.805 . S
Gd11 N6 2.622 . S
Gd11 N12 2.570 . S
Gd11 O43 2.386 . S
Gd11 O47 2.307 . S
Gd11 O50 2.353 1_455 S
Gd11 O51 2.468 . S
Gd11 O52 2.427 . S
Gd11 O54 2.388 . S
Gd11 C75 2.805 . S
N12 C2 1.359 . S
N12 Gd11 2.570 . S
N12 C14 1.343 . S
C13 C1 1.422 . S
C13 C15 1.321 . S
C13 H21 0.931 . S
C14 N12 1.343 . S
C14 C15 1.390 . S
C14 H16 0.931 . S
C15 C13 1.321 . S
C15 C14 1.390 . S
C15 H17 0.930 . S
H16 C14 0.931 . S
H17 C15 0.930 . S
H18 C41 0.931 . S
H19 C7 0.929 . S
H20 C42 0.930 1_565 S
H21 C13 0.931 . S
H22 C3 0.930 . S
H23 C32 0.929 . S
H24 C8 0.931 . S
H25 C9 0.930 . S
H26 C64 0.930 . S
H27 C5 0.929 . S
H28 C33 0.931 . S
H29 C34 0.930 . S
N30 Gd10 2.622 . S
N30 C31 1.369 . S
N30 C32 1.338 . S
C31 N30 1.369 . S
C31 C35 1.415 . S
C31 C38 1.422 . S
C32 H23 0.929 . S
C32 N30 1.338 . S
C32 C34 1.378 . S
C33 H28 0.931 . S
C33 C34 1.348 . S
C33 C35 1.413 . S
C34 H29 0.930 . S
C34 C32 1.378 . S
C34 C33 1.348 . S
C35 C31 1.415 . S
C35 C33 1.413 . S
C35 C65 1.437 . S
H36 C65 0.929 . S
N37 Gd10 2.570 . S
N37 C38 1.359 . S
N37 C41 1.343 . S
C38 C31 1.422 . S
C38 N37 1.359 . S
C38 C40 1.421 . S
C39 C40 1.422 . S
C39 C42 1.321 . S
C39 H66 0.931 1_545 S
C40 C38 1.421 . S
C40 C39 1.422 . S
C40 C64 1.417 . S
C41 H18 0.931 . S
C41 N37 1.343 . S
C41 C42 1.390 . S
C42 H20 0.930 1_545 S
C42 C39 1.321 . S
C42 C41 1.390 . S
O43 Gd11 2.386 . S
O43 C55 1.265 . S
O44 Gd10 2.353 1_455 S
O44 C55 1.242 . S
O45 Gd10 2.468 . S
O45 C63 1.263 . S
O46 Gd10 2.427 . S
O46 C63 1.252 . S
O47 Gd11 2.307 . S
O47 C56 1.261 . S
O48 Gd10 2.388 . S
O48 C56 1.252 1_655 S
O49 Gd10 2.386 . S
O49 C67 1.265 . S
O50 Gd11 2.353 1_655 S
O50 C67 1.242 . S
O51 Gd11 2.468 . S
O51 C75 1.263 . S
O52 Gd11 2.427 . S
O52 C75 1.252 . S
O53 Gd10 2.307 . S
O53 C68 1.261 . S
O54 Gd11 2.388 . S
O54 C68 1.252 1_455 S
C55 O43 1.265 . S
C55 O44 1.242 . S
C56 O47 1.261 . S
C56 O48 1.252 1_455 S
C57 C60 1.394 . S
C57 C62 1.370 . S
C57 C63 1.500 . S
C58 C61 1.383 . S
C58 C62 1.395 . S
C59 C60 1.396 . S
C59 C61 1.365 . S
C59 H76 0.929 . S
C60 C57 1.394 . S
C60 C59 1.396 . S
C60 H77 0.930 . S
C61 C58 1.383 . S
C61 C59 1.365 . S
C61 H78 0.931 1_554 S
C62 C57 1.370 . S
C62 C58 1.395 . S
C62 H79 0.930 . S
C63 Gd10 2.805 . S
C63 O45 1.263 . S
C63 O46 1.252 . S
C63 C57 1.500 . S
C64 H26 0.930 . S
C64 C40 1.417 . S
C64 C65 1.329 . S
C65 C35 1.437 . S
C65 H36 0.929 . S
C65 C64 1.329 . S
H66 C39 0.931 1_565 S
C67 O49 1.265 . S
C67 O50 1.242 . S
C68 O53 1.261 . S
C68 O54 1.252 1_655 S
C69 C72 1.394 . S
C69 C74 1.370 . S
C69 C75 1.500 . S
C70 C73 1.383 . S
C70 C74 1.395 . S
C71 C72 1.396 . S
C71 C73 1.365 . S
C71 H80 0.929 . S
C72 C69 1.394 . S
C72 C71 1.396 . S
C72 H81 0.930 . S
C73 C70 1.383 . S
C73 C71 1.365 . S
C73 H82 0.931 . S
C74 C69 1.370 . S
C74 C70 1.395 . S
C74 H83 0.930 . S
C75 Gd11 2.805 . S
C75 O51 1.263 . S
C75 O52 1.252 . S
C75 C69 1.500 . S
H76 C59 0.929 . S
H77 C60 0.930 . S
H78 C61 0.931 1_556 S
H79 C62 0.930 . S
H80 C71 0.929 . S
H81 C72 0.930 . S
H82 C73 0.931 . S
H83 C74 0.930 . S
C84 C86 1.422 . S
C84 C88 1.415 . S
C84 N90 1.369 . S
C85 C86 1.421 . S
C85 C87 1.417 . S
C85 C97 1.422 . S
C86 C84 1.422 . S
C86 C85 1.421 . S
C86 N96 1.359 . S
C87 C85 1.417 . S
C87 C89 1.329 . S
C87 H106 0.930 . S
C88 C84 1.415 . S
C88 C89 1.437 . S
C88 C92 1.413 . S
C89 C87 1.329 . S
C89 C88 1.437 . S
C89 H111 0.929 . S
N90 C84 1.369 . S
N90 C91 1.338 . S
N90 Gd95 2.622 . S
C91 N90 1.338 . S
C91 C93 1.378 . S
C91 H103 0.929 . S
C92 C88 1.413 . S
C92 C93 1.348 . S
C92 H108 0.931 . S
C93 C91 1.378 . S
C93 C92 1.348 . S
C93 H109 0.930 . S
Gd94 N114 2.622 1_655 S
Gd94 N121 2.570 . S
Gd94 O128 2.353 . S
Gd94 O129 2.468 . S
Gd94 O130 2.427 . S
Gd94 O132 2.388 . S
Gd94 O133 2.386 . S
Gd94 O137 2.307 . S
Gd94 C147 2.805 . S
Gd95 N90 2.622 . S
Gd95 N96 2.570 . S
Gd95 O127 2.386 . S
Gd95 O131 2.307 1_565 S
Gd95 O134 2.353 1_565 S
Gd95 O135 2.468 . S
Gd95 O136 2.427 . S
Gd95 O138 2.388 1_565 S
Gd95 C159 2.805 . S
N96 C86 1.359 . S
N96 Gd95 2.570 . S
N96 C98 1.343 . S
C97 C85 1.422 . S
C97 C99 1.321 . S
C97 H105 0.931 . S
C98 N96 1.343 . S
C98 C99 1.390 . S
C98 H100 0.931 . S
C99 C97 1.321 . S
C99 C98 1.390 . S
C99 H101 0.930 . S
H100 C98 0.931 . S
H101 C99 0.930 . S
H102 C125 0.931 . S
H103 C91 0.929 . S
H104 C126 0.930 . S
H105 C97 0.931 . S
H106 C87 0.930 . S
H107 C116 0.929 . S
H108 C92 0.931 . S
H109 C93 0.930 . S
H110 C148 0.930 . S
H111 C89 0.929 . S
H112 C117 0.931 . S
H113 C118 0.930 . S
N114 Gd94 2.622 1_455 S
N114 C115 1.369 . S
N114 C116 1.338 . S
C115 N114 1.369 . S
C115 C119 1.415 . S
C115 C122 1.422 1_455 S
C116 H107 0.929 . S
C116 N114 1.338 . S
C116 C118 1.378 . S
C117 H112 0.931 . S
C117 C118 1.348 . S
C117 C119 1.413 . S
C118 H113 0.930 . S
C118 C116 1.378 . S
C118 C117 1.348 . S
C119 C115 1.415 . S
C119 C117 1.413 . S
C119 C149 1.437 . S
H120 C149 0.929 . S
N121 Gd94 2.570 . S
N121 C122 1.359 . S
N121 C125 1.343 . S
C122 C115 1.422 1_655 S
C122 N121 1.359 . S
C122 C124 1.421 . S
C123 C124 1.422 . S
C123 C126 1.321 . S
C123 H150 0.931 . S
C124 C122 1.421 . S
C124 C123 1.422 . S
C124 C148 1.417 1_655 S
C125 H102 0.931 . S
C125 N121 1.343 . S
C125 C126 1.390 . S
C126 H104 0.930 . S
C126 C123 1.321 . S
C126 C125 1.390 . S
O127 Gd95 2.386 . S
O127 C139 1.265 1_565 S
O128 Gd94 2.353 . S
O128 C139 1.242 . S
O129 Gd94 2.468 . S
O129 C147 1.263 . S
O130 Gd94 2.427 . S
O130 C147 1.252 . S
O131 Gd95 2.307 1_545 S
O131 C140 1.261 . S
O132 Gd94 2.388 . S
O132 C140 1.252 . S
O133 Gd94 2.386 . S
O133 C151 1.265 . S
O134 Gd95 2.353 1_545 S
O134 C151 1.242 . S
O135 Gd95 2.468 . S
O135 C159 1.263 . S
O136 Gd95 2.427 . S
O136 C159 1.252 . S
O137 Gd94 2.307 . S
O137 C152 1.261 . S
O138 Gd95 2.388 1_545 S
O138 C152 1.252 . S
C139 O127 1.265 1_545 S
C139 O128 1.242 . S
C140 O131 1.261 . S
C140 O132 1.252 . S
C141 C144 1.394 . S
C141 C146 1.370 . S
C141 C147 1.500 . S
C142 C145 1.383 . S
C142 C146 1.395 . S
C143 C144 1.396 . S
C143 C145 1.365 . S
C143 H160 0.929 1_655 S
C144 C141 1.394 . S
C144 C143 1.396 . S
C144 H161 0.930 . S
C145 C142 1.383 . S
C145 C143 1.365 . S
C145 H162 0.931 . S
C146 C141 1.370 . S
C146 C142 1.395 . S
C146 H163 0.930 . S
C147 Gd94 2.805 . S
C147 O129 1.263 . S
C147 O130 1.252 . S
C147 C141 1.500 . S
C148 H110 0.930 . S
C148 C124 1.417 1_455 S
C148 C149 1.329 . S
C149 C119 1.437 . S
C149 H120 0.929 . S
C149 C148 1.329 . S
H150 C123 0.931 . S
C151 O133 1.265 . S
C151 O134 1.242 . S
C152 O137 1.261 . S
C152 O138 1.252 . S
C153 C156 1.394 . S
C153 C158 1.370 . S
C153 C159 1.500 . S
C154 C157 1.383 . S
C154 C158 1.395 . S
C155 C156 1.396 . S
C155 C157 1.365 . S
C155 H164 0.929 . S
C156 C153 1.394 . S
C156 C155 1.396 . S
C156 H165 0.930 . S
C157 C154 1.383 . S
C157 C155 1.365 . S
C157 H166 0.931 . S
C158 C153 1.370 . S
C158 C154 1.395 . S
C158 H167 0.930 . S
C159 Gd95 2.805 . S
C159 O135 1.263 . S
C159 O136 1.252 . S
C159 C153 1.500 . S
H160 C143 0.929 1_455 S
H161 C144 0.930 . S
H162 C145 0.931 . S
H163 C146 0.930 . S
H164 C155 0.929 . S
H165 C156 0.930 . S
H166 C157 0.931 . S
H167 C158 0.930 . S
C168 C170 1.422 . S
C168 C172 1.415 . S
C168 N174 1.369 . S
C169 C170 1.421 . S
C169 C171 1.417 . S
C169 C181 1.422 . S
C170 C168 1.422 . S
C170 C169 1.421 . S
C170 N180 1.359 . S
C171 C169 1.417 . S
C171 C173 1.329 . S
C171 H190 0.930 . S
C172 C168 1.415 . S
C172 C173 1.437 . S
C172 C176 1.413 . S
C173 C171 1.329 . S
C173 C172 1.437 . S
C173 H195 0.929 . S
N174 C168 1.369 . S
N174 C175 1.338 . S
N174 Gd179 2.622 . S
C175 N174 1.338 . S
C175 C177 1.378 . S
C175 H187 0.929 . S
C176 C172 1.413 . S
C176 C177 1.348 . S
C176 H192 0.931 1_565 S
C177 C175 1.378 . S
C177 C176 1.348 . S
C177 H193 0.930 1_565 S
Gd178 N198 2.622 . S
Gd178 N205 2.570 . S
Gd178 O212 2.353 . S
Gd178 O213 2.468 . S
Gd178 O214 2.427 . S
Gd178 O216 2.388 . S
Gd178 O217 2.386 . S
Gd178 O221 2.307 . S
Gd178 C231 2.805 . S
Gd179 N174 2.622 . S
Gd179 N180 2.570 . S
Gd179 O211 2.386 . S
Gd179 O215 2.307 . S
Gd179 O218 2.353 . S
Gd179 O219 2.468 . S
Gd179 O220 2.427 . S
Gd179 O222 2.388 . S
Gd179 C243 2.805 . S
N180 C170 1.359 . S
N180 Gd179 2.570 . S
N180 C182 1.343 . S
C181 C169 1.422 . S
C181 C183 1.321 . S
C181 H189 0.931 . S
C182 N180 1.343 . S
C182 C183 1.390 . S
C182 H184 0.931 . S
C183 C181 1.321 . S
C183 C182 1.390 . S
C183 H185 0.930 . S
H184 C182 0.931 . S
H185 C183 0.930 . S
H186 C209 0.931 . S
H187 C175 0.929 . S
H188 C210 0.930 . S
H189 C181 0.931 . S
H190 C171 0.930 . S
H191 C200 0.929 . S
H192 C176 0.931 1_545 S
H193 C177 0.930 1_545 S
H194 C232 0.930 1_455 S
H195 C173 0.929 . S
H196 C201 0.931 . S
H197 C202 0.930 . S
N198 Gd178 2.622 . S
N198 C199 1.369 . S
N198 C200 1.338 . S
C199 N198 1.369 . S
C199 C203 1.415 1_545 S
C199 C206 1.422 . S
C200 H191 0.929 . S
C200 N198 1.338 . S
C200 C202 1.378 1_545 S
C201 H196 0.931 . S
C201 C202 1.348 . S
C201 C203 1.413 . S
C202 H197 0.930 . S
C202 C200 1.378 1_565 S
C202 C201 1.348 . S
C203 C199 1.415 1_565 S
C203 C201 1.413 . S
C203 C233 1.437 . S
H204 C233 0.929 . S
N205 Gd178 2.570 . S
N205 C206 1.359 . S
N205 C209 1.343 1_655 S
C206 C199 1.422 . S
C206 N205 1.359 . S
C206 C208 1.421 . S
C207 C208 1.422 1_455 S
C207 C210 1.321 . S
C207 H234 0.931 . S
C208 C206 1.421 . S
C208 C207 1.422 1_655 S
C208 C232 1.417 . S
C209 H186 0.931 . S
C209 N205 1.343 1_455 S
C209 C210 1.390 . S
C210 H188 0.930 . S
C210 C207 1.321 . S
C210 C209 1.390 . S
O211 Gd179 2.386 . S
O211 C223 1.265 . S
O212 Gd178 2.353 . S
O212 C223 1.242 . S
O213 Gd178 2.468 . S
O213 C231 1.263 . S
O214 Gd178 2.427 . S
O214 C231 1.252 . S
O215 Gd179 2.307 . S
O215 C224 1.261 . S
O216 Gd178 2.388 . S
O216 C224 1.252 . S
O217 Gd178 2.386 . S
O217 C235 1.265 . S
O218 Gd179 2.353 . S
O218 C235 1.242 . S
O219 Gd179 2.468 . S
O219 C243 1.263 . S
O220 Gd179 2.427 . S
O220 C243 1.252 . S
O221 Gd178 2.307 . S
O221 C236 1.261 . S
O222 Gd179 2.388 . S
O222 C236 1.252 . S
C223 O211 1.265 . S
C223 O212 1.242 . S
C224 O215 1.261 . S
C224 O216 1.252 . S
C225 C228 1.394 . S
C225 C230 1.370 . S
C225 C231 1.500 . S
C226 C229 1.383 1_455 S
C226 C230 1.395 1_455 S
C227 C228 1.396 . S
C227 C229 1.365 . S
C227 H244 0.929 . S
C228 C225 1.394 . S
C228 C227 1.396 . S
C228 H245 0.930 . S
C229 C226 1.383 1_655 S
C229 C227 1.365 . S
C229 H246 0.931 . S
C230 C225 1.370 . S
C230 C226 1.395 1_655 S
C230 H247 0.930 1_655 S
C231 Gd178 2.805 . S
C231 O213 1.263 . S
C231 O214 1.252 . S
C231 C225 1.500 . S
C232 H194 0.930 1_655 S
C232 C208 1.417 . S
C232 C233 1.329 1_545 S
C233 C203 1.437 . S
C233 H204 0.929 . S
C233 C232 1.329 1_565 S
H234 C207 0.931 . S
C235 O217 1.265 . S
C235 O218 1.242 . S
C236 O221 1.261 . S
C236 O222 1.252 . S
C237 C240 1.394 . S
C237 C242 1.370 . S
C237 C243 1.500 . S
C238 C241 1.383 . S
C238 C242 1.395 . S
C239 C240 1.396 . S
C239 C241 1.365 . S
C239 H248 0.929 . S
C240 C237 1.394 . S
C240 C239 1.396 . S
C240 H249 0.930 . S
C241 C238 1.383 . S
C241 C239 1.365 . S
C241 H250 0.931 1_556 S
C242 C237 1.370 . S
C242 C238 1.395 . S
C242 H251 0.930 . S
C243 Gd179 2.805 . S
C243 O219 1.263 . S
C243 O220 1.252 . S
C243 C237 1.500 . S
H244 C227 0.929 . S
H245 C228 0.930 . S
H246 C229 0.931 . S
H247 C230 0.930 1_455 S
H248 C239 0.929 . S
H249 C240 0.930 . S
H250 C241 0.931 1_554 S
H251 C242 0.930 . S
H252 C258 0.930 . S
H253 C261 0.930 . S
H254 C262 0.930 . S
H255 C263 0.930 1_565 S
H256 C266 0.930 . S
H257 C267 0.930 . S
C258 H252 0.930 . S
C258 C259 1.355 . S
C258 C260 1.415 . S
C259 C258 1.355 . S
C259 C261 1.419 1_455 S
C260 C258 1.415 . S
C260 C265 1.425 1_455 S
C260 C267 1.409 1_565 S
C261 H253 0.930 . S
C261 C259 1.419 1_655 S
C261 C262 1.362 . S
C262 H254 0.930 . S
C262 C261 1.362 . S
C262 C265 1.409 . S
C263 H255 0.930 1_545 S
C263 C264 1.355 . S
C263 C265 1.415 1_545 S
C264 C263 1.355 . S
C264 C266 1.419 1_655 S
C265 C260 1.425 1_655 S
C265 C262 1.409 . S
C265 C263 1.415 1_565 S
C266 H256 0.930 . S
C266 C264 1.419 1_455 S
C266 C267 1.362 . S
C267 H257 0.930 . S
C267 C260 1.409 1_545 S
C267 C266 1.362 . S
H268 C274 0.930 . S
H269 C277 0.930 . S
H270 C278 0.930 . S
H271 C279 0.930 . S
H272 C282 0.930 1_655 S
H273 C283 0.930 . S
C274 H268 0.930 . S
C274 C275 1.355 . S
C274 C276 1.415 . S
C275 C274 1.355 . S
C275 C277 1.419 . S
C276 C274 1.415 . S
C276 C281 1.425 . S
C276 C283 1.409 . S
C277 H269 0.930 . S
C277 C275 1.419 . S
C277 C278 1.362 . S
C278 H270 0.930 . S
C278 C277 1.362 . S
C278 C281 1.409 . S
C279 H271 0.930 . S
C279 C280 1.355 1_455 S
C279 C281 1.415 . S
C280 C279 1.355 1_655 S
C280 C282 1.419 1_655 S
C281 C276 1.425 . S
C281 C278 1.409 . S
C281 C279 1.415 . S
C282 H272 0.930 1_455 S
C282 C280 1.419 1_455 S
C282 C283 1.362 . S
C283 H273 0.930 . S
C283 C276 1.409 . S
C283 C282 1.362 . S
H284 C290 0.930 . S
H285 C293 0.930 . S
H286 C294 0.930 . S
H287 C295 0.930 . S
H288 C298 0.930 . S
H289 C299 0.930 . S
C290 H284 0.930 . S
C290 C291 1.355 . S
C290 C292 1.415 . S
C291 C290 1.355 . S
C291 C293 1.419 . S
C292 C290 1.415 . S
C292 C297 1.425 . S
C292 C299 1.409 1_565 S
C293 H285 0.930 . S
C293 C291 1.419 . S
C293 C294 1.362 . S
C294 H286 0.930 . S
C294 C293 1.362 . S
C294 C297 1.409 . S
C295 H287 0.930 . S
C295 C296 1.355 . S
C295 C297 1.415 1_545 S
C296 C295 1.355 . S
C296 C298 1.419 . S
C297 C292 1.425 . S
C297 C294 1.409 . S
C297 C295 1.415 1_565 S
C298 H288 0.930 . S
C298 C296 1.419 . S
C298 C299 1.362 . S
C299 H289 0.930 . S
C299 C292 1.409 1_545 S
C299 C298 1.362 . S
H300 C306 0.930 . S
H301 C309 0.930 . S
H302 C310 0.930 . S
H303 C311 0.930 . S
H304 C314 0.930 . S
H305 C315 0.930 . S
C306 H300 0.930 . S
C306 C307 1.355 1_554 S
C306 C308 1.415 . S
C307 C306 1.355 1_556 S
C307 C309 1.419 . S
C308 C306 1.415 . S
C308 C313 1.425 . S
C308 C315 1.409 . S
C309 H301 0.930 . S
C309 C307 1.419 . S
C309 C310 1.362 1_556 S
C310 H302 0.930 . S
C310 C309 1.362 1_554 S
C310 C313 1.409 . S
C311 H303 0.930 . S
C311 C312 1.355 . S
C311 C313 1.415 . S
C312 C311 1.355 . S
C312 C314 1.419 . S
C313 C308 1.425 . S
C313 C310 1.409 . S
C313 C311 1.415 . S
C314 H304 0.930 . S
C314 C312 1.419 . S
C314 C315 1.362 . S
C315 H305 0.930 . S
C315 C308 1.409 . S
C315 C314 1.362 . S
H316 C322 0.930 . S
H317 C325 0.930 . S
H318 C326 0.930 . S
H319 C327 0.930 . S
H320 C330 0.930 . S
H321 C331 0.930 . S
C322 H316 0.930 . S
C322 C323 1.355 . S
C322 C324 1.415 . S
C323 C322 1.355 . S
C323 C325 1.419 . S
C324 C322 1.415 . S
C324 C329 1.425 . S
C324 C331 1.409 . S
C325 H317 0.930 . S
C325 C323 1.419 . S
C325 C326 1.362 . S
C326 H318 0.930 . S
C326 C325 1.362 . S
C326 C329 1.409 . S
C327 H319 0.930 . S
C327 C328 1.355 . S
C327 C329 1.415 . S
C328 C327 1.355 . S
C328 C330 1.419 . S
C329 C324 1.425 . S
C329 C326 1.409 . S
C329 C327 1.415 . S
C330 H320 0.930 . S
C330 C328 1.419 . S
C330 C331 1.362 . S
C331 H321 0.930 . S
C331 C324 1.409 . S
C331 C330 1.362 . S
H332 C338 0.930 . S
H333 C341 0.930 . S
H334 C342 0.930 . S
H335 C343 0.930 . S
H336 C346 0.930 . S
H337 C347 0.930 . S
C338 H332 0.930 . S
C338 C339 1.355 . S
C338 C340 1.415 . S
C339 C338 1.355 . S
C339 C341 1.419 . S
C340 C338 1.415 . S
C340 C345 1.425 . S
C340 C347 1.409 . S
C341 H333 0.930 . S
C341 C339 1.419 . S
C341 C342 1.362 . S
C342 H334 0.930 . S
C342 C341 1.362 . S
C342 C345 1.409 . S
C343 H335 0.930 . S
C343 C344 1.355 . S
C343 C345 1.415 . S
C344 C343 1.355 . S
C344 C346 1.419 . S
C345 C340 1.425 . S
C345 C342 1.409 . S
C345 C343 1.415 . S
C346 H336 0.930 . S
C346 C344 1.419 . S
C346 C347 1.362 . S
C347 H337 0.930 . S
C347 C340 1.409 . S
C347 C346 1.362 . S
H348 C354 0.930 . S
H349 C357 0.930 . S
H350 C358 0.930 . S
H351 C359 0.930 1_554 S
H352 C362 0.930 1_565 S
H353 C363 0.930 . S
C354 H348 0.930 . S
C354 C355 1.355 . S
C354 C356 1.415 . S
C355 C354 1.355 . S
C355 C357 1.419 . S
C356 C354 1.415 . S
C356 C361 1.425 . S
C356 C363 1.409 . S
C357 H349 0.930 . S
C357 C355 1.419 . S
C357 C358 1.362 . S
C358 H350 0.930 . S
C358 C357 1.362 . S
C358 C361 1.409 . S
C359 H351 0.930 1_556 S
C359 C360 1.355 1_556 S
C359 C361 1.415 . S
C360 C359 1.355 1_554 S
C360 C362 1.419 1_554 S
C361 C356 1.425 . S
C361 C358 1.409 . S
C361 C359 1.415 . S
C362 H352 0.930 1_545 S
C362 C360 1.419 1_556 S
C362 C363 1.362 . S
C363 H353 0.930 . S
C363 C356 1.409 . S
C363 C362 1.362 . S
H364 C370 0.930 . S
H365 C373 0.930 . S
H366 C374 0.930 . S
H367 C375 0.930 . S
H368 C378 0.930 . S
H369 C379 0.930 . S
C370 H364 0.930 . S
C370 C371 1.355 . S
C370 C372 1.415 . S
C371 C370 1.355 . S
C371 C373 1.419 . S
C372 C370 1.415 . S
C372 C377 1.425 . S
C372 C379 1.409 1_565 S
C373 H365 0.930 . S
C373 C371 1.419 . S
C373 C374 1.362 . S
C374 H366 0.930 . S
C374 C373 1.362 . S
C374 C377 1.409 . S
C375 H367 0.930 . S
C375 C376 1.355 . S
C375 C377 1.415 . S
C376 C375 1.355 . S
C376 C378 1.419 1_565 S
C377 C372 1.425 . S
C377 C374 1.409 . S
C377 C375 1.415 . S
C378 H368 0.930 . S
C378 C376 1.419 1_545 S
C378 C379 1.362 . S
C379 H369 0.930 . S
C379 C372 1.409 1_545 S
C379 C378 1.362 . S
H380 C386 0.930 . S
H381 C389 0.930 . S
H382 C390 0.930 . S
H383 C391 0.930 . S
H384 C394 0.930 . S
H385 C395 0.930 . S
C386 H380 0.930 . S
C386 C387 1.355 . S
C386 C388 1.415 1_455 S
C387 C386 1.355 . S
C387 C389 1.419 1_455 S
C388 C386 1.415 1_655 S
C388 C393 1.425 . S
C388 C395 1.409 1_655 S
C389 H381 0.930 . S
C389 C387 1.419 1_655 S
C389 C390 1.362 . S
C390 H382 0.930 . S
C390 C389 1.362 . S
C390 C393 1.409 . S
C391 H383 0.930 . S
C391 C392 1.355 . S
C391 C393 1.415 . S
C392 C391 1.355 . S
C392 C394 1.419 . S
C393 C388 1.425 . S
C393 C390 1.409 . S
C393 C391 1.415 . S
C394 H384 0.930 . S
C394 C392 1.419 . S
C394 C395 1.362 1_655 S
C395 H385 0.930 . S
C395 C388 1.409 1_455 S
C395 C394 1.362 1_455 S
C259 C56 1.581 . S
C264 C68 1.581 . S
C275 C152 1.557 . S
C280 C140 1.557 . S
C291 C236 1.584 1_455 S
C296 C224 1.584 . S
C307 C238 1.427 . S
C312 C55 1.543 . S
C323 C142 1.060 . S
C328 C67 1.583 . S
C339 C223 1.497 . S
C344 C154 1.334 . S
C355 C235 1.605 . S
C360 C58 1.225 . S
C371 C70 1.317 . S
C376 C139 1.496 1_565 S
C387 C226 1.070 . S
C392 C151 1.555 . S
