# Generated by pormake.
# Topology wiu, (6)-cn, num edge types: 1
# Building blocks:
#     Node 0, Type 0, BuildingBlock: JUFBIX_clean_sbu_0, # of connection points: 6
#     Node 1, Type 0, BuildingBlock: JUFBIX_clean_sbu_0, # of connection points: 6
#     Node 2, Type 0, BuildingBlock: JUFBIX_clean_sbu_0, # of connection points: 6
#     Node 3, Type 0, BuildingBlock: JUFBIX_clean_sbu_0, # of connection points: 6
#     Node 4, Type 0, BuildingBlock: JUFBIX_clean_sbu_0, # of connection points: 6
#     Node 5, Type 0, BuildingBlock: JUFBIX_clean_sbu_0, # of connection points: 6
#     Node 6, Type 0, BuildingBlock: JUFBIX_clean_sbu_0, # of connection points: 6
#     Node 7, Type 0, BuildingBlock: JUFBIX_clean_sbu_0, # of connection points: 6
#     Node 8, Type 0, BuildingBlock: JUFBIX_clean_sbu_0, # of connection points: 6
#     Node 9, Type 0, BuildingBlock: JUFBIX_clean_sbu_0, # of connection points: 6
#     Node 10, Type 0, BuildingBlock: JUFBIX_clean_sbu_0, # of connection points: 6
#     Node 11, Type 0, BuildingBlock: JUFBIX_clean_sbu_0, # of connection points: 6
#     Node 12, Type 0, BuildingBlock: JUFBIX_clean_sbu_0, # of connection points: 6
#     Node 13, Type 0, BuildingBlock: JUFBIX_clean_sbu_0, # of connection points: 6
#     Node 14, Type 0, BuildingBlock: JUFBIX_clean_sbu_0, # of connection points: 6
#     Node 15, Type 0, BuildingBlock: JUFBIX_clean_sbu_0, # of connection points: 6
#     Edge 16, Type (0, 0), BuildingBlock: CIFDUS_clean_linker_0, # of connection points: 2
#     Edge 17, Type (0, 0), BuildingBlock: CIFDUS_clean_linker_0, # of connection points: 2
#     Edge 18, Type (0, 0), BuildingBlock: CIFDUS_clean_linker_0, # of connection points: 2
#     Edge 19, Type (0, 0), BuildingBlock: CIFDUS_clean_linker_0, # of connection points: 2
#     Edge 20, Type (0, 0), BuildingBlock: CIFDUS_clean_linker_0, # of connection points: 2
#     Edge 21, Type (0, 0), BuildingBlock: CIFDUS_clean_linker_0, # of connection points: 2
#     Edge 22, Type (0, 0), BuildingBlock: CIFDUS_clean_linker_0, # of connection points: 2
#     Edge 23, Type (0, 0), BuildingBlock: CIFDUS_clean_linker_0, # of connection points: 2
#     Edge 24, Type (0, 0), BuildingBlock: CIFDUS_clean_linker_0, # of connection points: 2
#     Edge 25, Type (0, 0), BuildingBlock: CIFDUS_clean_linker_0, # of connection points: 2
#     Edge 26, Type (0, 0), BuildingBlock: CIFDUS_clean_linker_0, # of connection points: 2
#     Edge 27, Type (0, 0), BuildingBlock: CIFDUS_clean_linker_0, # of connection points: 2
#     Edge 28, Type (0, 0), BuildingBlock: CIFDUS_clean_linker_0, # of connection points: 2
#     Edge 29, Type (0, 0), BuildingBlock: CIFDUS_clean_linker_0, # of connection points: 2
#     Edge 30, Type (0, 0), BuildingBlock: CIFDUS_clean_linker_0, # of connection points: 2
#     Edge 31, Type (0, 0), BuildingBlock: CIFDUS_clean_linker_0, # of connection points: 2
#     Edge 32, Type (0, 0), BuildingBlock: CIFDUS_clean_linker_0, # of connection points: 2
#     Edge 33, Type (0, 0), BuildingBlock: CIFDUS_clean_linker_0, # of connection points: 2
#     Edge 34, Type (0, 0), BuildingBlock: CIFDUS_clean_linker_0, # of connection points: 2
#     Edge 35, Type (0, 0), BuildingBlock: CIFDUS_clean_linker_0, # of connection points: 2
#     Edge 36, Type (0, 0), BuildingBlock: CIFDUS_clean_linker_0, # of connection points: 2
#     Edge 37, Type (0, 0), BuildingBlock: CIFDUS_clean_linker_0, # of connection points: 2
#     Edge 38, Type (0, 0), BuildingBlock: CIFDUS_clean_linker_0, # of connection points: 2
#     Edge 39, Type (0, 0), BuildingBlock: CIFDUS_clean_linker_0, # of connection points: 2
#     Edge 40, Type (0, 0), BuildingBlock: CIFDUS_clean_linker_0, # of connection points: 2
#     Edge 41, Type (0, 0), BuildingBlock: CIFDUS_clean_linker_0, # of connection points: 2
#     Edge 42, Type (0, 0), BuildingBlock: CIFDUS_clean_linker_0, # of connection points: 2
#     Edge 43, Type (0, 0), BuildingBlock: CIFDUS_clean_linker_0, # of connection points: 2
#     Edge 44, Type (0, 0), BuildingBlock: CIFDUS_clean_linker_0, # of connection points: 2
#     Edge 45, Type (0, 0), BuildingBlock: CIFDUS_clean_linker_0, # of connection points: 2
#     Edge 46, Type (0, 0), BuildingBlock: CIFDUS_clean_linker_0, # of connection points: 2
#     Edge 47, Type (0, 0), BuildingBlock: CIFDUS_clean_linker_0, # of connection points: 2
#     Edge 48, Type (0, 0), BuildingBlock: CIFDUS_clean_linker_0, # of connection points: 2
#     Edge 49, Type (0, 0), BuildingBlock: CIFDUS_clean_linker_0, # of connection points: 2
#     Edge 50, Type (0, 0), BuildingBlock: CIFDUS_clean_linker_0, # of connection points: 2
#     Edge 51, Type (0, 0), BuildingBlock: CIFDUS_clean_linker_0, # of connection points: 2
#     Edge 52, Type (0, 0), BuildingBlock: CIFDUS_clean_linker_0, # of connection points: 2
#     Edge 53, Type (0, 0), BuildingBlock: CIFDUS_clean_linker_0, # of connection points: 2
#     Edge 54, Type (0, 0), BuildingBlock: CIFDUS_clean_linker_0, # of connection points: 2
#     Edge 55, Type (0, 0), BuildingBlock: CIFDUS_clean_linker_0, # of connection points: 2
#     Edge 56, Type (0, 0), BuildingBlock: CIFDUS_clean_linker_0, # of connection points: 2
#     Edge 57, Type (0, 0), BuildingBlock: CIFDUS_clean_linker_0, # of connection points: 2
#     Edge 58, Type (0, 0), BuildingBlock: CIFDUS_clean_linker_0, # of connection points: 2
#     Edge 59, Type (0, 0), BuildingBlock: CIFDUS_clean_linker_0, # of connection points: 2
#     Edge 60, Type (0, 0), BuildingBlock: CIFDUS_clean_linker_0, # of connection points: 2
#     Edge 61, Type (0, 0), BuildingBlock: CIFDUS_clean_linker_0, # of connection points: 2
#     Edge 62, Type (0, 0), BuildingBlock: CIFDUS_clean_linker_0, # of connection points: 2
#     Edge 63, Type (0, 0), BuildingBlock: CIFDUS_clean_linker_0, # of connection points: 2
# Relax obj value: 0.372
# Max RMSD: 0.263
# Mean RMSD: 0.250
data_MOF--net-wiu--node1-JUFBIX_clean_sbu_0--edge1-CIFDUS_clean_linker_0
_symmetry_space_group_name_H-M    P1
_symmetry_Int_Tables_number       1
_symmetry_cell_setting            triclinic
loop_
_symmetry_equiv_pos_as_xyz
'x, y, z'
_cell_length_a     24.838115
_cell_length_b     25.628038
_cell_length_c     59.749394
_cell_angle_alpha  96.933133
_cell_angle_beta   82.365387
_cell_angle_gamma 96.416524
loop_
_atom_site_label
_atom_site_type_symbol
_atom_site_fract_x
_atom_site_fract_y
_atom_site_fract_z
_atom_type_partial_charge
Co0 Co 0.32061 0.16708 0.07399 0.0
C1 C 0.27998 0.10024 0.10952 0.0
Co2 Co 0.37672 0.1598 0.09854 0.0
C3 C 0.27021 0.17244 0.03307 0.0
C4 C 0.21312 0.16888 0.06317 0.0
N5 N 0.26685 0.16918 0.0556 0.0
N6 N 0.22053 0.17351 0.02641 0.0
C7 C 0.18456 0.17108 0.04526 0.0
H8 H 0.30811 0.1736 0.02178 0.0
H9 H 0.19573 0.16771 0.08071 0.0
C10 C 0.41344 0.22676 0.06461 0.0
N11 N 0.42985 0.15872 0.11704 0.0
C12 C 0.42207 0.15119 0.13911 0.0
C13 C 0.48464 0.16408 0.11156 0.0
N14 N 0.46956 0.15127 0.14761 0.0
C15 C 0.50929 0.1598 0.13049 0.0
C16 C 0.39739 0.09205 0.05816 0.0
O17 O 0.36796 0.2148 0.05708 0.0
O18 O 0.42271 0.2086 0.08238 0.0
O19 O 0.40992 0.10481 0.0782 0.0
O20 O 0.35409 0.10914 0.05326 0.0
O21 O 0.3279 0.11009 0.1153 0.0
H22 H 0.50534 0.1698 0.09479 0.0
H23 H 0.38223 0.1455 0.14882 0.0
O24 O 0.27051 0.11827 0.09163 0.0
O25 O 0.29247 0.22715 0.0939 0.0
O26 O 0.34686 0.21661 0.11861 0.0
C27 C 0.3111 0.24232 0.11276 0.0
H28 H 0.14085 0.17185 0.04603 0.0
H29 H 0.55264 0.16101 0.13144 0.0
Co30 Co 0.62512 0.57116 0.30909 0.0
C31 C 0.69557 0.52445 0.33151 0.0
Co32 Co 0.65267 0.62243 0.3383 0.0
C33 C 0.63024 0.51531 0.26386 0.0
C34 C 0.5487 0.51643 0.28075 0.0
N35 N 0.60146 0.53018 0.28395 0.0
N36 N 0.59736 0.49372 0.24823 0.0
C37 C 0.54608 0.4943 0.25877 0.0
H38 H 0.67405 0.52349 0.26026 0.0
H39 H 0.51412 0.52495 0.29317 0.0
C40 C 0.581 0.66462 0.31684 0.0
N41 N 0.67439 0.66344 0.36349 0.0
C42 C 0.67968 0.64358 0.38277 0.0
C43 C 0.69115 0.71537 0.36712 0.0
N44 N 0.70011 0.68029 0.3982 0.0
C45 C 0.70693 0.72597 0.38868 0.0
C46 C 0.71393 0.6499 0.29836 0.0
O47 O 0.57958 0.62042 0.30503 0.0
O48 O 0.61058 0.67442 0.33287 0.0
O49 O 0.71213 0.65579 0.31988 0.0
O50 O 0.68336 0.61132 0.28947 0.0
O51 O 0.69478 0.56852 0.34372 0.0
H52 H 0.69311 0.74325 0.35474 0.0
H53 H 0.66923 0.6024 0.38535 0.0
O54 O 0.67144 0.51799 0.31368 0.0
O55 O 0.56556 0.53675 0.32879 0.0
O56 O 0.59181 0.59146 0.35711 0.0
C57 C 0.5581 0.55459 0.34971 0.0
H58 H 0.50937 0.48163 0.25084 0.0
H59 H 0.72387 0.76359 0.39637 0.0
Co60 Co 0.28016 0.88198 0.58928 0.0
C61 C 0.18202 0.87255 0.57447 0.0
Co62 Co 0.25764 0.96067 0.58195 0.0
C63 C 0.30328 0.80058 0.61798 0.0
C64 C 0.30963 0.7751 0.58241 0.0
N65 N 0.30114 0.81799 0.59745 0.0
N66 N 0.31213 0.74864 0.61614 0.0
C67 C 0.31651 0.73311 0.59368 0.0
H68 H 0.29599 0.82475 0.63403 0.0
H69 H 0.30865 0.77341 0.56431 0.0
C70 C 0.35764 0.97171 0.59792 0.0
N71 N 0.2256 1.01715 0.57126 0.0
C72 C 0.19916 1.00765 0.55224 0.0
C73 C 0.20232 0.05898 0.58296 0.0
N74 N 0.15908 0.03957 0.55201 0.0
C75 C 0.16215 0.0729 0.57121 0.0
C76 C 0.22362 0.94165 0.62591 0.0
O77 O 0.34515 0.92186 0.59822 0.0
O78 O 0.32548 0.99953 0.59016 0.0
O79 O 0.22485 0.97577 0.61196 0.0
O80 O 0.24445 0.89818 0.61935 0.0
O81 O 0.19408 0.92151 0.57505 0.0
H82 H 0.20901 0.0743 0.60015 0.0
H83 H 0.20471 0.97339 0.54002 0.0
O84 O 0.21502 0.84392 0.5803 0.0
O85 O 0.31472 0.8681 0.55849 0.0
O86 O 0.29041 0.94422 0.55239 0.0
C87 C 0.31161 0.90186 0.54484 0.0
H88 H 0.32358 0.69375 0.58583 0.0
H89 H 0.13365 0.10178 0.5776 0.0
Co90 Co 0.89748 0.49748 0.82427 0.0
C91 C 0.81483 0.54505 0.85297 0.0
Co92 Co 0.86031 0.44737 0.85034 0.0
C93 C 0.9062 0.56458 0.78903 0.0
C94 C 0.98431 0.55083 0.79727 0.0
N95 N 0.9303 0.53878 0.80261 0.0
N96 N 0.94303 0.59214 0.77514 0.0
C97 C 0.99231 0.58342 0.7803 0.0
H98 H 0.8624 0.56268 0.78937 0.0
H99 H 1.01583 0.53624 0.80502 0.0
C100 C 0.94379 0.4052 0.82259 0.0
N101 N 0.83038 0.4068 0.87329 0.0
C102 C 0.82369 0.42599 0.89535 0.0
C103 C 0.82226 0.35384 0.87328 0.0
N104 N 0.81311 0.38753 0.90926 0.0
C105 C 0.8119 0.34183 0.89548 0.0
C106 C 0.8192 0.4164 0.80839 0.0
O107 O 0.94907 0.44885 0.81435 0.0
O108 O 0.90723 0.39635 0.83894 0.0
O109 O 0.80997 0.40965 0.82954 0.0
O110 O 0.85112 0.45683 0.80287 0.0
O111 O 0.81225 0.50275 0.86255 0.0
H112 H 0.82724 0.32584 0.85826 0.0
H113 H 0.83112 0.46753 0.90118 0.0
O114 O 0.84581 0.54837 0.83438 0.0
O115 O 0.9452 0.53497 0.84481 0.0
O116 O 0.91373 0.48059 0.86986 0.0
C117 C 0.9475 0.51874 0.86387 0.0
H118 H 0.03152 0.59764 0.77187 0.0
H119 H 0.80614 0.3027 0.90102 0.0
Co120 Co 0.67933 0.90492 0.93708 0.0
C121 C 0.63723 0.85084 0.97384 0.0
Co122 Co 0.73404 0.9051 0.96299 0.0
C123 C 0.64131 0.90326 0.89396 0.0
C124 C 0.57541 0.90487 0.92094 0.0
N125 N 0.63 0.90366 0.91662 0.0
N126 N 0.59614 0.90487 0.88391 0.0
C127 C 0.55443 0.90557 0.90081 0.0
H128 H 0.68215 0.90265 0.88504 0.0
H129 H 0.55257 0.90663 0.9377 0.0
C130 C 0.77976 0.96076 0.9256 0.0
N131 N 0.7839 0.90475 0.98318 0.0
C132 C 0.77472 0.90294 1.00584 0.0
C133 C 0.837 0.8968 0.97745 0.0
N134 N 0.81971 0.89296 1.01431 0.0
C135 C 0.85908 0.88931 0.99657 0.0
C136 C 0.74304 0.81948 0.92778 0.0
O137 O 0.73281 0.94835 0.91904 0.0
O138 O 0.7874 0.94829 0.94482 0.0
O139 O 0.76152 0.84104 0.946 0.0
O140 O 0.70748 0.84228 0.92014 0.0
O141 O 0.68307 0.86323 0.98089 0.0
H142 H 0.85756 0.89372 0.96028 0.0
H143 H 0.73503 0.90535 1.01568 0.0
O144 O 0.62876 0.86275 0.95471 0.0
O145 O 0.64742 0.96555 0.95462 0.0
O146 O 0.70194 0.96677 0.98062 0.0
C147 C 0.65944 0.98261 0.97447 0.0
H148 H 0.51227 0.90893 0.89889 0.0
H149 H 0.90033 0.88028 0.9973 0.0
Co150 Co 0.39738 0.42482 0.692 0.0
C151 C 0.46173 0.39746 0.72152 0.0
Co152 Co 0.41391 0.48605 0.71979 0.0
C153 C 0.38401 0.38593 0.64674 0.0
C154 C 0.3825 0.32141 0.66646 0.0
N155 N 0.38769 0.37468 0.66781 0.0
N156 N 0.37604 0.34221 0.63227 0.0
C157 C 0.37553 0.30119 0.64442 0.0
H158 H 0.38737 0.42573 0.64199 0.0
H159 H 0.38321 0.29886 0.68059 0.0
C160 C 0.34849 0.51672 0.68963 0.0
N161 N 0.42452 0.53618 0.74388 0.0
C162 C 0.41797 0.52762 0.76591 0.0
C163 C 0.44182 0.58788 0.74369 0.0
N164 N 0.43039 0.57183 0.77963 0.0
C165 C 0.44537 0.60999 0.76569 0.0
C166 C 0.4914 0.49627 0.6818 0.0
O167 O 0.35188 0.46922 0.6809 0.0
O168 O 0.37009 0.53186 0.70778 0.0
O169 O 0.4791 0.51722 0.70205 0.0
O170 O 0.46009 0.45728 0.67425 0.0
O171 O 0.45701 0.44335 0.73136 0.0
H172 H 0.45127 0.60808 0.72856 0.0
H173 H 0.40341 0.48964 0.77176 0.0
O174 O 0.44159 0.38243 0.70314 0.0
O175 O 0.33702 0.38973 0.70963 0.0
O176 O 0.35025 0.45023 0.73792 0.0
C177 C 0.32731 0.40506 0.73067 0.0
H178 H 0.36919 0.25992 0.63799 0.0
H179 H 0.45807 0.65091 0.77094 0.0
Co180 Co 0.8043 0.1171 0.45048 0.0
C181 C 0.70716 0.09648 0.43211 0.0
Co182 Co 0.7726 0.19167 0.44302 0.0
C183 C 0.89466 0.06854 0.46441 0.0
C184 C 0.81899 1.02349 0.47307 0.0
N185 N 0.84121 0.0624 0.46035 0.0
N186 N 0.90603 0.03736 0.47972 0.0
C187 C 0.85832 1.0082 0.48484 0.0
H188 H 0.92416 0.0987 0.45774 0.0
H189 H 0.77568 1.01148 0.47587 0.0
C190 C 0.86476 0.21489 0.46148 0.0
N191 N 0.74268 0.25159 0.43555 0.0
C192 C 0.73681 0.26878 0.41533 0.0
C193 C 0.72626 0.2909 0.45123 0.0
N194 N 0.7167 0.31666 0.41811 0.0
C195 C 0.71014 0.33018 0.44071 0.0
C196 C 0.74033 0.16466 0.48701 0.0
O197 O 0.86024 0.16525 0.46139 0.0
O198 O 0.83099 0.23642 0.4525 0.0
O199 O 0.73657 0.1998 0.47402 0.0
O200 O 0.76537 0.12475 0.47909 0.0
O201 O 0.71359 0.14675 0.43368 0.0
H202 H 0.72722 0.29203 0.46931 0.0
H203 H 0.74694 0.24674 0.39897 0.0
O204 O 0.74286 0.07107 0.43895 0.0
O205 O 0.84352 0.10992 0.42121 0.0
O206 O 0.81005 0.1804 0.41282 0.0
C207 C 0.83843 0.14127 0.40677 0.0
H208 H 0.85075 0.98181 0.498 0.0
H209 H 0.69555 0.3667 0.4491 0.0
Co210 Co 0.20325 0.62891 0.18204 0.0
C211 C 0.131 0.67733 0.21355 0.0
Co212 Co 0.16767 0.57951 0.20871 0.0
C213 C 0.23868 0.6485 0.13707 0.0
C214 C 0.24191 0.72171 0.1584 0.0
N215 N 0.2322 0.66896 0.15893 0.0
N216 N 0.25119 0.68585 0.12276 0.0
C217 C 0.25329 0.73229 0.13601 0.0
H218 H 0.2302 0.60688 0.13162 0.0
H219 H 0.23795 0.75058 0.17316 0.0
C220 C 0.24188 0.52807 0.17647 0.0
N221 N 0.1372 0.53752 0.23074 0.0
C222 C 0.13518 0.54826 0.25342 0.0
C223 C 0.11429 0.4874 0.22731 0.0
N224 N 0.11222 0.50666 0.26428 0.0
C225 C 0.09877 0.46834 0.24793 0.0
C226 C 0.10867 0.56433 0.17103 0.0
O227 O 0.24739 0.57259 0.16855 0.0
O228 O 0.2116 0.52358 0.19517 0.0
O229 O 0.1114 0.5496 0.19036 0.0
O230 O 0.14552 0.59863 0.1636 0.0
O231 O 0.12415 0.63378 0.22211 0.0
H232 H 0.11077 0.46548 0.21084 0.0
H233 H 0.15121 0.58551 0.26176 0.0
O234 O 0.16102 0.68185 0.19492 0.0
O235 O 0.2579 0.66324 0.20142 0.0
O236 O 0.22277 0.61272 0.22776 0.0
C237 C 0.25358 0.65367 0.22216 0.0
H238 H 0.26073 0.77089 0.12995 0.0
H239 H 0.08159 0.42855 0.25061 0.0
Co240 Co 0.82592 0.65105 0.57499 0.0
C241 C 0.78167 0.59988 0.61466 0.0
Co242 Co 0.87863 0.65747 0.60181 0.0
C243 C 0.76826 0.67094 0.53867 0.0
C244 C 0.74724 0.59319 0.5489 0.0
N245 N 0.77743 0.6392 0.55389 0.0
N246 N 0.73432 0.64611 0.52414 0.0
C247 C 0.7208 0.59729 0.53055 0.0
H248 H 0.78926 0.70993 0.53714 0.0
H249 H 0.74694 0.55793 0.55722 0.0
C250 C 0.91887 0.70833 0.56319 0.0
N251 N 0.92747 0.66919 0.62259 0.0
C252 C 0.91549 0.68122 0.64504 0.0
C253 C 0.9821 0.66797 0.61909 0.0
N254 N 0.96019 0.68646 0.65596 0.0
C255 C 1.00238 0.67842 0.63966 0.0
C256 C 0.90628 0.57684 0.56781 0.0
O257 O 0.87381 0.693 0.55586 0.0
O258 O 0.92739 0.69799 0.58255 0.0
O259 O 0.91431 0.59635 0.58785 0.0
O260 O 0.86534 0.59058 0.55974 0.0
O261 O 0.82742 0.61626 0.62171 0.0
H262 H 1.00538 0.65862 0.60273 0.0
H263 H 0.87432 0.68472 0.65324 0.0
O264 O 0.77519 0.60806 0.59465 0.0
O265 O 0.79142 0.71424 0.58935 0.0
O266 O 0.84625 0.71991 0.61544 0.0
C267 C 0.80921 0.73908 0.60721 0.0
H268 H 0.69636 0.56584 0.52167 0.0
H269 H 0.04428 0.6769 0.64252 0.0
Co270 Co 0.13901 0.07172 0.81618 0.0
C271 C 0.21028 0.04674 0.84569 0.0
Co272 Co 0.15621 0.13425 0.84363 0.0
C273 C 0.14114 1.0186 0.77045 0.0
C274 C 0.11216 0.96669 0.79586 0.0
N275 N 0.12903 1.01765 0.79311 0.0
N276 N 0.13301 0.97016 0.75898 0.0
C277 C 0.11451 0.93747 0.77496 0.0
H278 H 0.15795 0.05372 0.7626 0.0
H279 H 0.10062 0.95133 0.81208 0.0
C280 C 0.08355 0.15545 0.81559 0.0
N281 N 0.16717 0.18647 0.8671 0.0
C282 C 0.1694 0.17722 0.88862 0.0
C283 C 0.18056 0.23894 0.86686 0.0
N284 N 0.18426 0.22135 0.90185 0.0
C285 C 0.19158 0.26053 0.88829 0.0
C286 C 0.22105 0.15478 0.80339 0.0
O287 O 0.09098 0.11041 0.80514 0.0
O288 O 0.10689 0.17243 0.8331 0.0
O289 O 0.21276 0.17035 0.82445 0.0
O290 O 0.19897 0.10887 0.79658 0.0
O291 O 0.20599 0.09416 0.85423 0.0
H292 H 0.18405 0.25973 0.85194 0.0
H293 H 0.16312 0.1381 0.8942 0.0
O294 O 0.18733 1.03014 0.82801 0.0
O295 O 0.07741 0.0397 0.83545 0.0
O296 O 0.09743 0.10052 0.86282 0.0
C297 C 0.06668 0.06056 0.8558 0.0
H298 H 0.10433 0.89527 0.77185 0.0
H299 H 0.20487 0.30141 0.89338 0.0
Co300 Co 0.7967 0.37043 0.08483 0.0
C301 C 0.70074 0.34619 0.06832 0.0
Co302 Co 0.76011 0.44404 0.07961 0.0
C303 C 0.81613 0.28448 0.11042 0.0
C304 C 0.86418 0.28184 0.07794 0.0
N305 N 0.82858 0.31106 0.09172 0.0
N306 N 0.84188 0.24006 0.10867 0.0
C307 C 0.87217 0.23837 0.08822 0.0
H308 H 0.78701 0.29603 0.12478 0.0
H309 H 0.88238 0.29053 0.06118 0.0
C310 C 0.85916 0.46789 0.09682 0.0
N311 N 0.71944 0.49683 0.07095 0.0
C312 C 0.69302 0.48849 0.05195 0.0
C313 C 0.69368 0.53558 0.08388 0.0
N314 N 0.65074 0.51855 0.05275 0.0
C315 C 0.65215 0.54903 0.07282 0.0
C316 C 0.73069 0.41571 0.12249 0.0
O317 O 0.85566 0.41742 0.0946 0.0
O318 O 0.82141 0.4915 0.09044 0.0
O319 O 0.72308 0.44923 0.10945 0.0
O320 O 0.76057 0.37874 0.11494 0.0
O321 O 0.70348 0.39593 0.06981 0.0
H322 H 0.7006 0.54941 0.10119 0.0
H323 H 0.70175 0.45708 0.03862 0.0
O324 O 0.7379 0.32436 0.07513 0.0
O325 O 0.8314 0.36446 0.05399 0.0
O326 O 0.79692 0.43776 0.05029 0.0
C327 C 0.82378 0.39946 0.04158 0.0
H328 H 0.89822 0.20779 0.08116 0.0
H329 H 0.62247 0.57613 0.08006 0.0
Co330 Co 0.38802 1.00044 0.32709 0.0
C331 C 0.30676 0.03852 0.35953 0.0
Co332 Co 0.35958 0.94514 0.35237 0.0
C333 C 0.4161 0.03528 0.28323 0.0
C334 C 0.42494 0.09894 0.3096 0.0
N335 N 0.41071 0.04652 0.30591 0.0
N336 N 0.43288 0.07858 0.27257 0.0
C337 C 0.43877 0.11882 0.28903 0.0
H338 H 0.40758 0.99609 0.27469 0.0
H339 H 0.42426 0.12136 0.32617 0.0
C340 C 0.44333 0.91404 0.32125 0.0
N341 N 0.33831 0.9007 0.37488 0.0
C342 C 0.32991 0.91889 0.39702 0.0
C343 C 0.33498 0.8477 0.37457 0.0
N344 N 0.32169 0.87997 0.41071 0.0
C345 C 0.32492 0.83478 0.3967 0.0
C346 C 0.31186 0.91524 0.31229 0.0
O347 O 0.44216 0.9579 0.31385 0.0
O348 O 0.41039 0.90041 0.33813 0.0
O349 O 0.30808 0.90549 0.33298 0.0
O350 O 0.33874 0.95861 0.30707 0.0
O351 O 0.308 0.99446 0.36728 0.0
H352 H 0.34149 0.82046 0.35938 0.0
H353 H 0.3329 0.96052 0.40308 0.0
O354 O 0.3344 0.04599 0.34056 0.0
O355 O 0.43882 0.0381 0.34633 0.0
O356 O 0.41405 0.98032 0.3706 0.0
C357 C 0.44544 1.01991 0.36454 0.0
H358 H 0.45014 0.15983 0.28636 0.0
H359 H 0.32106 0.79551 0.40203 0.0
Co360 Co 0.17642 0.40783 0.43591 0.0
C361 C 0.13945 0.34586 0.47148 0.0
Co362 Co 0.23242 0.40266 0.46069 0.0
C363 C 0.13126 0.41608 0.39502 0.0
C364 C 0.0688 0.40426 0.42272 0.0
N365 N 0.12353 0.40804 0.41707 0.0
N366 N 0.0838 0.41815 0.38675 0.0
C367 C 0.04419 0.41022 0.40399 0.0
H368 H 0.17105 0.42141 0.38526 0.0
H369 H 0.04812 0.39944 0.43956 0.0
C370 C 0.27431 0.46432 0.42412 0.0
N371 N 0.28431 0.40227 0.47976 0.0
C372 C 0.27672 0.40521 0.50257 0.0
C373 C 0.33698 0.3929 0.4738 0.0
N374 N 0.32226 0.39716 0.51106 0.0
C375 C 0.36041 0.38937 0.49309 0.0
C376 C 0.24023 0.32368 0.42343 0.0
O377 O 0.22719 0.45223 0.41778 0.0
O378 O 0.28271 0.4506 0.44306 0.0
O379 O 0.26167 0.34197 0.4414 0.0
O380 O 0.2029 0.34756 0.41775 0.0
O381 O 0.18632 0.35571 0.47767 0.0
H382 H 0.35646 0.38715 0.4565 0.0
H383 H 0.23775 0.41035 0.51267 0.0
O384 O 0.12839 0.36373 0.45391 0.0
O385 O 0.1469 0.46674 0.45401 0.0
O386 O 0.19677 0.4609 0.48088 0.0
C387 C 0.15625 0.47966 0.47442 0.0
H388 H 1.00096 0.41126 0.40337 0.0
H389 H 0.40181 0.38086 0.49388 0.0
Co390 Co 0.90802 0.91435 0.18791 0.0
C391 C 0.96086 0.89587 0.22389 0.0
Co392 Co 0.91032 0.97763 0.21624 0.0
C393 C 0.87418 0.85007 0.14918 0.0
C394 C 0.95353 0.83458 0.15515 0.0
N395 N 0.91027 0.86045 0.16443 0.0
N396 N 0.89435 0.82188 0.12993 0.0
C397 C 0.94391 0.81091 0.13393 0.0
H398 H 0.83583 0.86736 0.1514 0.0
H399 H 0.99184 0.83768 0.1622 0.0
C400 C 0.857 0.99912 0.17975 0.0
N401 N 0.90842 0.03356 0.23925 0.0
C402 C 0.89627 0.03481 0.26206 0.0
C403 C 0.91765 0.08476 0.23536 0.0
N404 N 0.8971 0.08489 0.27238 0.0
C405 C 0.91062 0.11625 0.25558 0.0
C406 C 0.99841 0.99052 0.18148 0.0
O407 O 0.86981 0.95375 0.17126 0.0
O408 O 0.86632 1.0148 0.20002 0.0
O409 O 0.97694 1.01328 0.20025 0.0
O410 O 0.97494 0.94696 0.17361 0.0
O411 O 0.95328 0.94281 0.23194 0.0
H412 H 0.92804 0.09845 0.21875 0.0
H413 H 0.88555 0.99983 0.27083 0.0
O414 O 0.94599 0.877 0.20476 0.0
O415 O 0.84217 0.87984 0.20189 0.0
O416 O 0.84561 0.9371 0.23214 0.0
C417 C 0.8252 0.89293 0.22262 0.0
H418 H 0.97386 0.79263 0.12151 0.0
H419 H 0.91506 0.159 0.25776 0.0
Co420 Co 0.30057 0.60801 0.95241 0.0
C421 C 0.20324 0.59794 0.93502 0.0
Co422 Co 0.2764 0.68795 0.94812 0.0
C423 C 0.35743 0.55486 0.98071 0.0
C424 C 0.35986 0.51198 0.94781 0.0
N425 N 0.33324 0.54963 0.96115 0.0
N426 N 0.39958 0.52461 0.97979 0.0
C427 C 0.39994 0.49655 0.95912 0.0
H428 H 0.34858 0.58552 0.99435 0.0
H429 H 0.35549 0.50116 0.93003 0.0
C430 C 0.37155 0.69604 0.96517 0.0
N431 N 0.25473 0.75231 0.94132 0.0
C432 C 0.25074 0.76917 0.92091 0.0
C433 C 0.24851 0.79559 0.95633 0.0
N434 N 0.24322 0.82128 0.92265 0.0
C435 C 0.24144 0.83761 0.94502 0.0
C436 C 0.24077 0.65935 0.99037 0.0
O437 O 0.36136 0.6469 0.9618 0.0
O438 O 0.33868 0.72579 0.95999 0.0
O439 O 0.23773 0.69532 0.97779 0.0
O440 O 0.26417 0.61848 0.98202 0.0
O441 O 0.21432 0.6482 0.93646 0.0
H442 H 0.25135 0.7972 0.97431 0.0
H443 H 0.25603 0.7444 0.90492 0.0
O444 O 0.23562 0.56923 0.94203 0.0
O445 O 0.33718 0.59981 0.92231 0.0
O446 O 0.31612 0.6795 0.91907 0.0
C447 C 0.33915 0.63854 0.9106 0.0
H448 H 0.4305 0.47058 0.95162 0.0
H449 H 0.23619 0.87745 0.95272 0.0
Co450 Co 0.70981 0.11995 0.67941 0.0
C451 C 0.63753 0.17546 0.70743 0.0
Co452 Co 0.66958 0.07681 0.70762 0.0
C453 C 0.7421 0.13384 0.63309 0.0
C454 C 0.75905 0.2063 0.6538 0.0
N455 N 0.74256 0.1546 0.65488 0.0
N456 N 0.75589 0.17041 0.61836 0.0
C457 C 0.7671 0.2162 0.63131 0.0
H458 H 0.72731 0.09324 0.62825 0.0
H459 H 0.76119 0.23551 0.66841 0.0
C460 C 0.7434 1.01776 0.67899 0.0
N461 N 0.63385 0.0423 0.73131 0.0
C462 C 0.6554 1.02149 0.74734 0.0
C463 C 0.57937 0.03502 0.73695 0.0
N464 N 0.61648 1.00175 0.76293 0.0
C465 C 0.56856 1.01013 0.75637 0.0
C466 C 0.61434 0.05586 0.66903 0.0
O467 O 0.75059 0.0591 0.66857 0.0
O468 O 0.71268 1.0186 0.69784 0.0
O469 O 0.61559 0.04323 0.68885 0.0
O470 O 0.65208 0.08886 0.66123 0.0
O471 O 0.62722 0.13372 0.71723 0.0
H472 H 0.54948 0.04841 0.72789 0.0
H473 H 0.69886 1.02168 0.74769 0.0
O474 O 0.67063 0.17654 0.68948 0.0
O475 O 0.76441 0.15582 0.69911 0.0
O476 O 0.7221 0.11305 0.72699 0.0
C477 C 0.75632 0.15086 0.72047 0.0
H478 H 0.77807 0.25439 0.6251 0.0
H479 H 0.52857 1.0012 0.76547 0.0
H480 H 0.50383 0.1853 0.04731 0.0
H481 H 0.42608 0.32942 0.05531 0.0
H482 H 0.51565 0.3809 0.05193 0.0
H483 H 0.61137 0.38417 0.05786 0.0
H484 H 0.68578 0.23937 0.0574 0.0
H485 H 0.60198 0.18816 0.04708 0.0
C486 C 0.50693 0.2279 0.04726 0.0
C487 C 0.45949 0.25412 0.05178 0.0
C488 C 0.55771 0.25675 0.04777 0.0
C489 C 0.46264 0.30894 0.05174 0.0
C490 C 0.51369 0.33816 0.05032 0.0
C491 C 0.60966 0.34142 0.05512 0.0
C492 C 0.65386 0.31529 0.05907 0.0
C493 C 0.56092 0.3125 0.05019 0.0
C494 C 0.65158 0.26009 0.05505 0.0
C495 C 0.60393 0.23093 0.04902 0.0
H496 H 0.61878 0.76562 0.31569 0.0
H497 H 0.48114 0.65281 0.30269 0.0
H498 H 0.42897 0.72385 0.29606 0.0
H499 H 0.41758 0.81792 0.30226 0.0
H500 H 0.55315 0.93083 0.31751 0.0
H501 H 0.61301 0.8597 0.31388 0.0
C502 C 0.57748 0.75696 0.31124 0.0
C503 C 0.55223 0.70543 0.31061 0.0
C504 C 0.54827 0.7976 0.30754 0.0
C505 C 0.50005 0.69311 0.30384 0.0
C506 C 0.4706 0.73337 0.29994 0.0
C507 C 0.46083 0.82664 0.30383 0.0
C508 C 0.48167 0.87811 0.31048 0.0
C509 C 0.49351 0.7858 0.30287 0.0
C510 C 0.53722 0.89066 0.31239 0.0
C511 C 0.5709 0.85017 0.31067 0.0
H512 H 0.15568 0.77634 0.55232 0.0
H513 H 0.09191 0.92405 0.57937 0.0
H514 H 1.00173 0.88963 0.56975 0.0
H515 H 0.93852 0.81184 0.5618 0.0
H516 H 1.0005 0.66321 0.53659 0.0
H517 H 0.09407 0.70399 0.53586 0.0
C518 C 0.12193 0.80076 0.55594 0.0
C519 C 0.12935 0.85148 0.5673 0.0
C520 C 0.0702 0.78092 0.55023 0.0
C521 C 0.08634 0.88405 0.57117 0.0
C522 C 0.03495 0.86472 0.56551 0.0
C523 C 0.97268 0.78944 0.55483 0.0
C524 C 0.9636 0.73499 0.54956 0.0
C525 C 1.02594 0.81248 0.556 0.0
C526 C 1.00731 0.7055 0.54065 0.0
C527 C 0.06073 0.72853 0.54081 0.0
H528 H 0.11954 0.24926 0.80252 0.0
H529 H 0.97621 0.13862 0.81039 0.0
H530 H 0.91792 0.20882 0.80859 0.0
H531 H 0.909 0.30376 0.81412 0.0
H532 H 0.05246 0.41506 0.80845 0.0
H533 H 0.11058 0.34223 0.7996 0.0
C534 C 0.0756 0.24058 0.80301 0.0
C535 C 0.05126 0.19019 0.807 0.0
C536 C 0.04298 0.28113 0.80282 0.0
C537 C 0.9949 0.17784 0.8074 0.0
C538 C 0.96188 0.21787 0.80662 0.0
C539 C 0.95298 0.31171 0.81049 0.0
C540 C 0.97733 0.36369 0.81264 0.0
C541 C 0.98551 0.27006 0.80584 0.0
C542 C 0.0337 0.37473 0.80723 0.0
C543 C 0.06663 0.33333 0.80224 0.0
H544 H 0.61257 0.74981 0.98064 0.0
H545 H 0.55807 0.9046 0.99761 0.0
H546 H 0.46298 0.86752 0.99985 0.0
H547 H 0.39935 0.79433 0.98546 0.0
H548 H 0.45644 0.63995 0.96675 0.0
H549 H 0.54595 0.67299 0.97695 0.0
C550 C 0.57965 0.77471 0.98623 0.0
C551 C 0.59104 0.8293 0.98836 0.0
C552 C 0.52558 0.75332 0.98616 0.0
C553 C 0.54912 0.8621 0.99566 0.0
C554 C 0.49492 0.84104 0.99649 0.0
C555 C 0.4313 0.76805 0.98395 0.0
C556 C 0.42235 0.7158 0.97441 0.0
C557 C 0.4831 0.78726 0.98974 0.0
C558 C 0.46303 0.68111 0.97338 0.0
C559 C 0.51425 0.6997 0.97935 0.0
H560 H 0.53864 0.18627 0.73085 0.0
H561 H 0.69071 0.27271 0.70752 0.0
H562 H 0.65098 0.35609 0.71815 0.0
H563 H 0.56773 0.40028 0.72375 0.0
H564 H 0.41277 0.31201 0.74046 0.0
H565 H 0.45811 0.23383 0.74368 0.0
C566 C 0.56304 0.2236 0.72869 0.0
C567 C 0.61627 0.22416 0.71777 0.0
C568 C 0.53908 0.27093 0.73361 0.0
C569 C 0.64868 0.27208 0.71527 0.0
C570 C 0.6262 0.31958 0.72142 0.0
C571 C 0.54459 0.36442 0.72908 0.0
C572 C 0.48791 0.36043 0.73158 0.0
C573 C 0.57057 0.31911 0.72909 0.0
C574 C 0.45696 0.31464 0.73834 0.0
C575 C 0.48274 0.27012 0.73996 0.0
H576 H 0.04755 0.38255 0.49058 0.0
H577 H 0.13472 0.24394 0.48009 0.0
H578 H 0.04856 0.18743 0.48092 0.0
H579 H 0.95573 0.18078 0.47154 0.0
H580 H 0.87057 0.32005 0.47606 0.0
H581 H 0.94932 0.37424 0.48979 0.0
C582 C 0.047 0.3399 0.48973 0.0
C583 C 0.09607 0.31663 0.48468 0.0
C584 C 0.99819 0.30845 0.48786 0.0
C585 C 0.09663 0.26196 0.48384 0.0
C586 C 0.04756 0.22991 0.4838 0.0
C587 C 0.95354 0.22253 0.47635 0.0
C588 C 0.90837 0.24668 0.47238 0.0
C589 C 0.99899 0.25303 0.48367 0.0
C590 C 0.90598 0.30107 0.47838 0.0
C591 C 0.95055 0.33183 0.48645 0.0
H592 H 0.03101 0.68633 0.23656 0.0
H593 H 0.18587 0.77345 0.21806 0.0
H594 H 0.14669 0.85673 0.2295 0.0
H595 H 0.06407 0.90115 0.23214 0.0
H596 H 0.90749 0.81166 0.24232 0.0
H597 H 0.95014 0.73411 0.24794 0.0
C598 C 0.05613 0.72372 0.23586 0.0
C599 C 0.11025 0.72461 0.22597 0.0
C600 C 0.03237 0.7713 0.24089 0.0
C601 C 0.14345 0.7726 0.22522 0.0
C602 C 0.12112 0.82012 0.23172 0.0
C603 C 0.0397 0.86533 0.23681 0.0
C604 C 0.98337 0.8612 0.23681 0.0
C605 C 0.06483 0.81976 0.23774 0.0
C606 C 0.95117 0.81513 0.24255 0.0
C607 C 0.97564 0.77058 0.24534 0.0
H608 H 0.50525 0.07885 0.06103 0.0
H609 H 0.386 0.05122 1.01359 0.0
H610 H 0.45592 1.01905 0.98367 0.0
H611 H 0.55192 0.99827 0.97056 0.0
H612 H 0.67063 1.0269 0.01827 0.0
H613 H 0.60091 0.0598 0.04787 0.0
C614 C 0.49396 0.06515 0.04425 0.0
C615 C 0.43903 0.06689 0.04005 0.0
C616 C 0.53514 0.04763 0.0268 0.0
C617 C 0.42689 0.04993 0.01779 0.0
C618 C 0.46735 1.03179 1.0005 0.0
C619 C 0.56309 1.01258 0.9873 0.0
C620 C 0.61786 1.01043 0.9917 0.0
C621 C 0.52186 1.03071 1.00468 0.0
C622 C 0.62991 1.02833 1.01391 0.0
C623 C 0.58955 0.04684 0.03105 0.0
H624 H 0.69706 0.6797 0.25634 0.0
H625 H 0.79353 0.72507 0.31172 0.0
H626 H 0.82966 0.80651 0.29547 0.0
H627 H 0.83494 0.86685 0.26548 0.0
H628 H 0.74442 0.81939 0.20855 0.0
H629 H 0.70443 0.7394 0.22557 0.0
C630 C 0.72686 0.70675 0.26465 0.0
C631 C 0.74272 0.69474 0.28531 0.0
C632 C 0.74771 0.7548 0.25518 0.0
C633 C 0.78058 0.73191 0.2958 0.0
C634 C 0.80107 0.77926 0.28658 0.0
C635 C 0.80537 0.83976 0.25704 0.0
C636 C 0.79203 0.85064 0.23582 0.0
C637 C 0.78457 0.79173 0.26641 0.0
C638 C 0.75498 0.81331 0.22499 0.0
C639 C 0.73253 0.76684 0.23464 0.0
H640 H 0.09634 0.11272 0.54146 0.0
H641 H 0.11918 0.94683 0.5297 0.0
H642 H 0.04399 0.93126 0.50662 0.0
H643 H 0.96918 0.96399 0.48951 0.0
H644 H 0.94616 0.12927 0.5013 0.0
H645 H 1.02261 0.14556 0.524 0.0
C646 C 0.08509 0.07314 0.53383 0.0
C647 C 0.11477 1.03132 0.53748 0.0
C648 C 0.04118 0.06417 0.52021 0.0
C649 C 0.09873 0.98037 0.52716 0.0
C650 C 0.055 0.97119 0.51394 0.0
C651 C 0.98118 1.00358 0.49694 0.0
C652 C 0.95246 0.0457 0.49298 0.0
C653 C 1.02568 1.01266 0.51027 0.0
C654 C 0.96855 0.09656 0.50314 0.0
C655 C 1.01204 0.10572 0.51647 0.0
H656 H 0.79592 0.30788 0.81059 0.0
H657 H 0.81094 0.42481 0.76344 0.0
H658 H 0.79808 0.35497 0.73226 0.0
H659 H 0.78298 0.25926 0.71761 0.0
H660 H 0.76763 0.14269 0.76495 0.0
H661 H 0.78146 0.21247 0.79596 0.0
C662 C 0.79538 0.3184 0.79359 0.0
C663 C 0.80332 0.37275 0.78988 0.0
C664 C 0.7892 0.27731 0.7753 0.0
C665 C 0.80409 0.38419 0.7673 0.0
C666 C 0.79719 0.34385 0.74925 0.0
C667 C 0.78367 0.24884 0.73461 0.0
C668 C 0.77511 0.19454 0.73843 0.0
C669 C 0.79022 0.29001 0.75287 0.0
C670 C 0.77489 0.18323 0.761 0.0
C671 C 0.78228 0.22355 0.77897 0.0
H672 H 0.30115 0.29719 0.72153 0.0
H673 H 0.29826 0.4215 0.77708 0.0
H674 H 0.26897 0.35594 0.80398 0.0
H675 H 0.24557 0.26275 0.81222 0.0
H676 H 0.2485 0.13822 0.75678 0.0
H677 H 0.27714 0.20382 0.72979 0.0
C678 C 0.29321 0.31036 0.73949 0.0
C679 C 0.3013 0.36533 0.74694 0.0
C680 C 0.27743 0.27185 0.75512 0.0
C681 C 0.29182 0.38031 0.7705 0.0
C682 C 0.27547 0.34246 0.78602 0.0
C683 C 0.25318 0.24952 0.79426 0.0
C684 C 0.2455 0.19452 0.78687 0.0
C685 C 0.26871 0.28799 0.77862 0.0
C686 C 0.25466 0.17947 0.76331 0.0
C687 C 0.27068 0.21734 0.74775 0.0
H688 H 0.28891 0.80645 0.31376 0.0
H689 H 0.30479 0.92544 0.26745 0.0
H690 H 0.29402 0.85669 0.23576 0.0
H691 H 0.28106 0.76176 0.22042 0.0
H692 H 0.26207 0.64283 0.26684 0.0
H693 H 0.27468 0.71142 0.29845 0.0
C694 C 0.28899 0.81765 0.29683 0.0
C695 C 0.29672 0.87222 0.29349 0.0
C696 C 0.28361 0.77724 0.27827 0.0
C697 C 0.29811 0.88462 0.27102 0.0
C698 C 0.29246 0.84493 0.25267 0.0
C699 C 0.28038 0.75053 0.23738 0.0
C700 C 0.27122 0.69605 0.24076 0.0
C701 C 0.28573 0.79092 0.25594 0.0
C702 C 0.26975 0.6836 0.26323 0.0
C703 C 0.2764 0.72322 0.28154 0.0
H704 H 0.12492 0.47491 0.52121 0.0
H705 H 0.08427 0.54252 0.46366 0.0
H706 H 1.00172 0.57216 0.48596 0.0
H707 H 0.93835 0.5785 0.52172 0.0
H708 H 0.98054 0.51707 0.58037 0.0
H709 H 0.06271 0.48502 0.55797 0.0
C710 C 0.09886 0.49732 0.51367 0.0
C711 C 0.11243 0.50684 0.49053 0.0
C712 C 0.05 0.51433 0.52677 0.0
C713 C 0.07629 0.53482 0.48129 0.0
C714 C 1.02826 0.55147 0.49406 0.0
C715 C 0.96478 0.55709 0.52956 0.0
C716 C 0.95158 0.54934 0.55284 0.0
C717 C 1.01397 0.54086 0.51673 0.0
C718 C 0.98827 0.52303 0.56254 0.0
C719 C 0.036 0.50511 0.5497 0.0
H720 H 0.57367 0.58632 0.0503 0.0
H721 H 0.62817 0.43648 0.02026 0.0
H722 H 0.55622 0.42497 0.99573 0.0
H723 H 0.47617 0.45636 0.98232 0.0
H724 H 0.42177 0.60612 1.01255 0.0
H725 H 0.49351 0.61739 0.0371 0.0
C726 C 0.57009 0.55094 0.0385 0.0
C727 C 0.60786 0.51269 0.03751 0.0
C728 C 0.52759 0.544 0.02421 0.0
C729 C 0.6014 0.46746 0.02165 0.0
C730 C 0.55948 0.46049 1.00751 0.0
C731 C 0.47974 0.49161 0.9942 0.0
C732 C 0.44204 0.52995 0.99521 0.0
C733 C 0.52216 0.49841 1.00855 0.0
C734 C 0.44841 0.57503 1.01115 0.0
C735 C 0.49026 0.58191 0.0253 0.0
H736 H 0.30922 0.34181 0.10057 0.0
H737 H 0.2783 0.25235 0.15827 0.0
H738 H 0.25594 0.33214 0.18325 0.0
H739 H 0.24451 0.42802 0.18882 0.0
H740 H 0.28308 0.51873 0.13147 0.0
H741 H 0.30379 0.43885 0.10661 0.0
C742 C 0.29696 0.33978 0.11858 0.0
C743 C 0.29418 0.29075 0.12743 0.0
C744 C 0.28628 0.38653 0.13307 0.0
C745 C 0.27996 0.28926 0.15094 0.0
C746 C 0.26745 0.33505 0.16527 0.0
C747 C 0.25818 0.43055 0.17095 0.0
C748 C 0.26226 0.48 0.16224 0.0
C749 C 0.2706 0.38408 0.15659 0.0
C750 C 0.27992 0.48182 0.1389 0.0
C751 C 0.29139 0.43583 0.12453 0.0
H752 H 0.451 0.5288 0.34187 0.0
H753 H 0.55773 0.53891 0.39383 0.0
H754 H 0.4802 0.51441 0.42154 0.0
H755 H 0.38156 0.49035 0.43137 0.0
H756 H 0.27344 0.48469 0.38009 0.0
H757 H 0.35105 0.50798 0.35222 0.0
C758 C 0.45726 0.52494 0.35919 0.0
C759 C 0.51048 0.53487 0.36561 0.0
C760 C 0.41182 0.51249 0.3754 0.0
C761 C 0.51749 0.53104 0.38832 0.0
C762 C 0.473 0.51728 0.40426 0.0
C763 C 0.3747 0.49488 0.41419 0.0
C764 C 0.32111 0.48591 0.40808 0.0
C765 C 0.41983 0.50827 0.39809 0.0
C766 C 0.31375 0.4917 0.38554 0.0
C767 C 0.35839 0.50465 0.36945 0.0
H768 H 0.28066 0.64394 0.61511 0.0
H769 H 0.34898 0.77647 0.65734 0.0
H770 H 0.36153 0.71725 0.68526 0.0
H771 H 0.36016 0.62597 0.69608 0.0
H772 H 0.29269 0.49454 0.65274 0.0
H773 H 0.27293 0.5549 0.62706 0.0
C774 C 0.29837 0.66009 0.6304 0.0
C775 C 0.3146 0.71483 0.63384 0.0
C776 C 0.30572 0.6257 0.64628 0.0
C777 C 0.33609 0.73477 0.65415 0.0
C778 C 0.34351 0.70072 0.67009 0.0
C779 C 0.34005 0.61059 0.68128 0.0
C780 C 0.32793 0.5553 0.67654 0.0
C781 C 0.32936 0.64586 0.66617 0.0
C782 C 0.30245 0.53652 0.65703 0.0
C783 C 0.29133 0.57115 0.64219 0.0
H784 H 0.99834 0.4701 0.89266 0.0
H785 H 0.99699 0.61891 0.86593 0.0
H786 H 0.07397 0.65631 0.88618 0.0
H787 H 0.14385 0.64633 0.91011 0.0
H788 H 0.1511 0.49666 0.93521 0.0
H789 H 0.07012 0.45999 0.91692 0.0
C790 C 1.01453 0.51091 0.89153 0.0
C791 C 0.99145 0.54183 0.87791 0.0
C792 C 0.06027 0.53185 0.90275 0.0
C793 C 1.01369 0.5943 0.87629 0.0
C794 C 0.05787 0.61569 0.88785 0.0
C795 C 0.12773 0.60569 0.91177 0.0
C796 C 0.15372 0.57447 0.92422 0.0
C797 C 0.08186 0.58473 0.9009 0.0
C798 C 0.1322 0.52171 0.9258 0.0
C799 C 0.08575 0.50076 0.91534 0.0
H800 H 0.82049 0.58901 0.89681 0.0
H801 H 0.75918 0.61334 0.83515 0.0
H802 H 0.73089 0.69921 0.8526 0.0
H803 H 0.72654 0.76977 0.8851 0.0
H804 H 0.7959 0.74848 0.94545 0.0
H805 H 0.81832 0.66042 0.92889 0.0
C806 C 0.79982 0.61261 0.88737 0.0
C807 C 0.79054 0.59369 0.86482 0.0
C808 C 0.78594 0.66341 0.89722 0.0
C809 C 0.76576 0.62609 0.85262 0.0
C810 C 0.74999 0.67557 0.86257 0.0
C811 C 0.74671 0.746 0.89465 0.0
C812 C 0.75943 0.76651 0.91665 0.0
C813 C 0.76044 0.69511 0.88479 0.0
C814 C 0.78579 0.73456 0.92852 0.0
C815 C 0.79842 0.68376 0.91907 0.0
H816 H 0.59248 0.53988 0.69364 0.0
H817 H 0.50394 0.49378 0.63588 0.0
H818 H 0.58507 0.51931 0.61027 0.0
H819 H 0.68145 0.55515 0.60383 0.0
H820 H 0.77266 0.5976 0.66101 0.0
H821 H 0.69139 0.57252 0.68691 0.0
C822 C 0.59087 0.5359 0.67547 0.0
C823 C 0.54148 0.51543 0.66683 0.0
C824 C 0.6387 0.54943 0.66056 0.0
C825 C 0.5409 0.50959 0.64313 0.0
C826 C 0.58752 0.52408 0.62839 0.0
C827 C 0.68393 0.55845 0.62194 0.0
C828 C 0.7338 0.57823 0.63026 0.0
C829 C 0.63678 0.54387 0.63684 0.0
C830 C 0.73544 0.58215 0.6539 0.0
C831 C 0.68861 0.56815 0.66882 0.0
H832 H 0.77436 0.33806 0.37722 0.0
H833 H 0.62745 0.36799 0.42198 0.0
H834 H 0.60783 0.43303 0.39847 0.0
H835 H 0.63496 0.48649 0.36706 0.0
H836 H 0.77996 0.45924 0.32099 0.0
H837 H 0.79789 0.38835 0.34281 0.0
C838 C 0.7376 0.35812 0.38148 0.0
C839 C 0.70257 0.3483 0.40155 0.0
C840 C 0.72658 0.39646 0.36775 0.0
C841 C 0.65531 0.37509 0.40687 0.0
C842 C 0.64406 0.41241 0.39342 0.0
C843 C 0.67024 0.46461 0.36164 0.0
C844 C 0.70615 0.47811 0.34251 0.0
C845 C 0.67989 0.42426 0.37417 0.0
C846 C 0.75165 0.44947 0.33563 0.0
C847 C 0.76187 0.40906 0.34818 0.0
H848 H 0.91561 0.42827 0.12538 0.0
H849 H 0.90715 0.57164 0.09553 0.0
H850 H 0.98529 0.6138 0.11479 0.0
H851 H 0.05687 0.60914 0.14054 0.0
H852 H 0.05768 0.46561 0.17153 0.0
H853 H 0.98241 0.42441 0.15126 0.0
C854 C 0.93076 0.46878 0.12288 0.0
C855 C 0.90551 0.49638 0.10867 0.0
C856 C 0.97484 0.49275 0.13426 0.0
C857 C 0.92554 0.54921 0.10622 0.0
C858 C 0.97045 0.57325 0.11724 0.0
C859 C 0.0407 0.56876 0.1427 0.0
C860 C 0.06353 0.54044 0.15753 0.0
C861 C 0.99569 0.54533 0.1313 0.0
C862 C 0.04127 0.48843 0.16034 0.0
C863 C 0.99806 0.46474 0.14872 0.0
H864 H 0.82076 0.78827 0.64987 0.0
H865 H 0.75827 0.80968 0.58798 0.0
H866 H 0.73716 0.89895 0.60382 0.0
H867 H 0.73641 0.97184 0.6355 0.0
H868 H 0.79164 0.94673 0.69837 0.0
H869 H 0.81628 0.85898 0.68192 0.0
C870 C 0.80219 0.81225 0.63984 0.0
C871 C 0.79115 0.79172 0.61764 0.0
C872 C 0.78955 0.86355 0.6492 0.0
C873 C 0.76686 0.82378 0.60509 0.0
C874 C 0.75514 0.87519 0.61413 0.0
C875 C 0.75472 0.94744 0.64545 0.0
C876 C 0.76354 0.96664 0.66803 0.0
C877 C 0.7666 0.89575 0.63613 0.0
C878 C 0.78537 0.93356 0.6809 0.0
C879 C 0.79911 0.88313 0.67151 0.0
H880 H 0.88302 0.99802 0.93533 0.0
H881 H 0.78434 0.97056 0.88008 0.0
H882 H 0.86416 0.99523 0.85345 0.0
H883 H 0.9635 1.02337 0.84546 0.0
H884 H 0.06003 0.05608 0.90128 0.0
H885 H 0.98045 1.03012 0.92775 0.0
C886 C 0.87868 0.99795 0.91751 0.0
C887 C 0.82716 0.98246 0.9099 0.0
C888 C 0.92498 1.01245 0.90219 0.0
C889 C 0.82297 0.98265 0.88662 0.0
C890 C 0.86891 0.9964 0.87127 0.0
C891 C 0.96716 1.0242 0.86338 0.0
C892 C 1.01816 0.04083 0.87126 0.0
C893 C 0.92038 1.01086 0.87877 0.0
C894 C 1.02163 0.043 0.89467 0.0
C895 C 0.97595 1.02836 0.90987 0.0
H896 H 0.84079 0.10437 0.19009 0.0
H897 H 0.84236 0.97885 0.13495 0.0
H898 H 0.83668 0.04199 0.1082 0.0
H899 H 0.83889 0.1341 0.09969 0.0
H900 H 0.83449 0.25979 0.15446 0.0
H901 H 0.83353 0.19583 0.18196 0.0
C902 C 0.8387 0.0906 0.17231 0.0
C903 C 0.84216 0.03654 0.16469 0.0
C904 C 0.83579 0.12749 0.15679 0.0
C905 C 0.83966 1.01988 0.14147 0.0
C906 C 0.83683 0.05617 0.12604 0.0
C907 C 0.83757 0.1474 0.11766 0.0
C908 C 0.83747 0.20178 0.12497 0.0
C909 C 0.83628 0.11023 0.13339 0.0
C910 C 0.83461 0.21825 0.14838 0.0
C911 C 0.8342 0.18163 0.1641 0.0
H912 H 0.6505 0.14166 0.40562 0.0
H913 H 0.65476 0.99421 0.43311 0.0
H914 H 0.57197 0.95823 0.41559 0.0
H915 H 0.49805 0.96985 0.39235 0.0
H916 H 0.49927 0.11806 0.36465 0.0
H917 H 0.57996 0.15295 0.38286 0.0
C918 C 0.63353 0.10156 0.40802 0.0
C919 C 0.65891 0.07088 0.42097 0.0
C920 C 0.58649 0.08154 0.39798 0.0
C921 C 0.63636 1.01876 0.4233 0.0
C922 C 0.58883 0.99838 0.41336 0.0
C923 C 0.51569 1.01 0.39054 0.0
C924 C 0.49213 0.04156 0.37727 0.0
C925 C 0.56332 1.02959 0.40074 0.0
C926 C 0.51619 0.09306 0.37477 0.0
C927 C 0.5625 0.11297 0.38514 0.0
H928 H 0.24432 0.22466 0.43627 0.0
H929 H 0.26907 0.31229 0.37799 0.0
H930 H 0.28765 0.2318 0.35297 0.0
H931 H 0.29771 0.13656 0.34745 0.0
H932 H 0.26897 0.04674 0.40519 0.0
H933 H 0.24981 0.12705 0.43034 0.0
C934 C 0.25461 0.22609 0.41813 0.0
C935 C 0.25669 0.27484 0.40907 0.0
C936 C 0.2634 0.17887 0.40363 0.0
C937 C 0.26818 0.27563 0.38543 0.0
C938 C 0.27839 0.22945 0.37109 0.0
C939 C 0.28634 0.13415 0.36549 0.0
C940 C 0.28453 0.085 0.37423 0.0
C941 C 0.27589 0.18075 0.37994 0.0
C942 C 0.27006 0.08343 0.39777 0.0
C943 C 0.2597 0.12968 0.41226 0.0
H944 H 0.10731 1.01035 0.1888 0.0
H945 H 0.99652 1.02434 0.14066 0.0
H946 H 0.07262 0.05688 0.11393 0.0
H947 H 0.1711 0.08081 0.10371 0.0
H948 H 0.2835 0.06499 0.15107 0.0
H949 H 0.20743 0.03343 0.17811 0.0
C950 C 0.09989 1.02139 0.17261 0.0
C951 C 0.0458 1.01597 0.167 0.0
C952 C 0.14457 0.03903 0.15688 0.0
C953 C 0.03736 1.02895 0.14561 0.0
C954 C 0.08106 0.04725 0.13021 0.0
C955 C 0.17927 0.06998 0.11983 0.0
C956 C 0.23374 0.07513 0.12502 0.0
C957 C 0.13497 0.05214 0.13552 0.0
C958 C 0.24258 0.06113 0.14627 0.0
C959 C 0.19879 0.04335 0.16192 0.0
H960 H 0.19605 0.93796 0.84097 0.0
H961 H 0.26989 0.07111 0.88141 0.0
H962 H 0.28862 1.01271 0.90818 0.0
H963 H 0.27746 0.9252 0.92203 0.0
H964 H 0.20282 0.7915 0.88242 0.0
H965 H 0.19159 0.84833 0.85346 0.0
C966 C 0.21745 0.95409 0.85533 0.0
C967 C 0.2316 1.00924 0.859 0.0
C968 C 0.22728 0.92013 0.87108 0.0
C969 C 0.25863 1.02911 0.87797 0.0
C970 C 0.26905 0.99567 0.89345 0.0
C971 C 0.25866 0.90836 0.90709 0.0
C972 C 0.2403 0.85401 0.90467 0.0
C973 C 0.25229 0.94137 0.89053 0.0
C974 C 0.21733 0.83297 0.88481 0.0
C975 C 0.21074 0.86562 0.86826 0.0
H976 H 0.56718 0.10031 0.63731 0.0
H977 H 0.55753 0.95961 0.67125 0.0
H978 H 0.47983 0.9214 0.6517 0.0
H979 H 0.41277 0.92812 0.62608 0.0
H980 H 0.4155 0.07007 0.59369 0.0
H981 H 0.49711 0.10755 0.61151 0.0
C982 C 0.54831 0.0611 0.64024 0.0
C983 C 0.56872 0.03274 0.6557 0.0
C984 C 0.50202 0.03968 0.62931 0.0
C985 C 0.543 0.98236 0.65952 0.0
C986 C 0.4984 0.96043 0.64833 0.0
C987 C 0.4312 0.96721 0.62268 0.0
C988 C 0.40784 0.9959 0.60827 0.0
C989 C 0.47727 0.9888 0.63335 0.0
C990 C 0.43232 0.04686 0.60458 0.0
C991 C 0.47915 0.06829 0.61479 0.0
H992 H 0.27377 0.23605 0.99598 0.0
H993 H 0.1372 0.11897 1.00706 0.0
H994 H 0.11189 0.12574 0.96944 0.0
H995 H 0.1293 0.16411 0.9334 0.0
H996 H 0.26443 0.28246 0.92191 0.0
H997 H 0.28915 0.27737 0.95994 0.0
C998 C 0.23881 0.21191 0.98996 0.0
C999 C 0.2075 0.17678 1.00401 0.0
C1000 C 0.22397 0.21684 0.96849 0.0
C1001 C 0.16163 0.14626 0.99641 0.0
C1002 C 0.1472 0.15017 0.97498 0.0
C1003 C 0.16409 0.18881 0.93928 0.0
C1004 C 0.19525 0.22329 0.92494 0.0
C1005 C 0.17807 0.18528 0.96092 0.0
C1006 C 0.23965 0.25592 0.9328 0.0
C1007 C 0.25405 0.25261 0.95441 0.0
H1008 H 0.644 0.4676 0.14212 0.0
H1009 H 0.76941 0.37809 0.15723 0.0
H1010 H 0.73914 0.39443 0.1978 0.0
H1011 H 0.67904 0.43729 0.2292 0.0
H1012 H 0.55062 0.52225 0.21408 0.0
H1013 H 0.57973 0.50467 0.17333 0.0
C1014 C 0.66439 0.45143 0.15432 0.0
C1015 C 0.70894 0.42197 0.14674 0.0
C1016 C 0.64636 0.46037 0.1776 0.0
C1017 C 0.73478 0.40075 0.16266 0.0
C1018 C 0.71773 0.41027 0.18587 0.0
C1019 C 0.6576 0.45165 0.21687 0.0
C1020 C 0.61313 0.48107 0.22441 0.0
C1021 C 0.67396 0.44052 0.19354 0.0
C1022 C 0.58484 0.4992 0.20848 0.0
C1023 C 0.60158 0.48934 0.18526 0.0
H1024 H 0.28895 0.96015 0.51356 0.0
H1025 H 0.35865 0.81645 0.51978 0.0
H1026 H 0.3672 0.79557 0.47821 0.0
H1027 H 0.35258 0.81862 0.44006 0.0
H1028 H 0.27393 0.95899 0.43661 0.0
H1029 H 0.27 0.97999 0.47739 0.0
C1030 C 0.30632 0.92418 0.50603 0.0
C1031 C 0.32348 0.8901 0.51985 0.0
C1032 C 0.30878 0.91155 0.48258 0.0
C1033 C 0.3456 0.84367 0.50953 0.0
C1034 C 0.35002 0.83155 0.4858 0.0
C1035 C 0.33402 0.85335 0.44833 0.0
C1036 C 0.31446 0.88772 0.43518 0.0
C1037 C 0.33112 0.86504 0.47214 0.0
C1038 C 0.29053 0.93261 0.44617 0.0
C1039 C 0.28812 0.94464 0.46953 0.0
H1040 H 0.87842 0.64917 0.6855 0.0
H1041 H 0.0434 0.72407 0.68037 0.0
H1042 H 0.04961 0.70866 0.71956 0.0
H1043 H 1.01204 0.66291 0.75277 0.0
H1044 H 0.84948 0.5815 0.75527 0.0
H1045 H 0.83753 0.61315 0.71993 0.0
C1046 C 0.91525 0.66373 0.69304 0.0
C1047 C 0.96068 0.68708 0.67996 0.0
C1048 C 0.91895 0.65342 0.71511 0.0
C1049 C 1.00827 0.70505 0.69004 0.0
C1050 C 1.01177 0.6963 0.71239 0.0
C1051 C 0.97396 0.65208 0.74565 0.0
C1052 C 0.93248 0.61851 0.75649 0.0
C1053 C 0.96807 0.66848 0.7247 0.0
C1054 C 0.8825 0.60687 0.74743 0.0
C1055 C 0.87562 0.62466 0.72703 0.0
H1056 H 0.82604 0.88579 0.11752 0.0
H1057 H 0.92267 0.75639 0.09197 0.0
H1058 H 0.90685 0.76639 0.05328 0.0
H1059 H 0.8718 0.81694 0.02667 0.0
H1060 H 0.77458 0.94494 0.05276 0.0
H1061 H 0.78424 0.9302 0.09171 0.0
C1062 C 0.84289 0.85874 0.10377 0.0
C1063 C 0.87646 0.82084 0.10783 0.0
C1064 C 0.83406 0.86502 0.08166 0.0
C1065 C 0.89763 0.78658 0.08938 0.0
C1066 C 0.88864 0.7923 0.06725 0.0
C1067 C 0.85286 0.84148 0.04096 0.0
C1068 C 0.8233 0.88249 0.03706 0.0
C1069 C 0.85826 0.83241 0.06318 0.0
C1070 C 0.79762 0.91333 0.05554 0.0
C1071 C 0.80318 0.90488 0.0777 0.0
H1072 H 0.37768 0.55328 0.88395 0.0
H1073 H 0.35787 0.71859 0.88379 0.0
H1074 H 0.38897 0.7134 0.84336 0.0
H1075 H 0.41285 0.66042 0.80749 0.0
H1076 H 0.43337 0.4953 0.80703 0.0
H1077 H 0.41075 0.50199 0.84819 0.0
C1078 C 0.38091 0.58828 0.87511 0.0
C1079 C 0.36477 0.63596 0.88682 0.0
C1080 C 0.3983 0.58502 0.85168 0.0
C1081 C 0.36941 0.68111 0.87515 0.0
C1082 C 0.38718 0.67828 0.85199 0.0
C1083 C 0.41355 0.62612 0.81637 0.0
C1084 C 0.42392 0.57731 0.80408 0.0
C1085 C 0.40042 0.63018 0.83999 0.0
C1086 C 0.42419 0.53315 0.81597 0.0
C1087 C 0.41154 0.53696 0.83955 0.0
H1088 H 0.73394 0.24168 0.59135 0.0
H1089 H 0.76728 0.07973 0.59107 0.0
H1090 H 0.75411 0.06207 0.55125 0.0
H1091 H 0.73841 0.09268 0.51627 0.0
H1092 H 0.71513 0.25622 0.51399 0.0
H1093 H 0.71696 0.27277 0.55527 0.0
C1094 C 0.73883 0.20272 0.58251 0.0
C1095 C 0.75143 0.16202 0.59433 0.0
C1096 C 0.73201 0.19288 0.55928 0.0
C1097 C 0.75686 0.11157 0.5826 0.0
C1098 C 0.74936 0.10139 0.55978 0.0
C1099 C 0.73292 0.13197 0.52474 0.0
C1100 C 0.72686 0.17321 0.512 0.0
C1101 C 0.7372 0.14171 0.54798 0.0
C1102 C 0.7194 0.22364 0.52339 0.0
C1103 C 0.72132 0.23325 0.54694 0.0
H1104 H 0.1488 0.48914 0.36416 0.0
H1105 H 1.00467 0.37959 0.36063 0.0
H1106 H 0.99808 0.40054 0.32214 0.0
H1107 H 0.03726 0.44635 0.2889 0.0
H1108 H 0.18267 0.55456 0.29283 0.0
H1109 H 0.18464 0.53841 0.33204 0.0
C1110 C 0.11615 0.46973 0.35487 0.0
C1111 C 0.07784 0.43227 0.36483 0.0
C1112 C 0.11284 0.48194 0.333 0.0
C1113 C 0.03463 0.40843 0.35308 0.0
C1114 C 0.03103 0.42029 0.33115 0.0
C1115 C 0.06921 0.46639 0.29841 0.0
C1116 C 0.10991 0.50124 0.288 0.0
C1117 C 0.07048 0.45638 0.32084 0.0
C1118 C 0.15059 0.52791 0.30055 0.0
C1119 C 0.15203 0.51836 0.32289 0.0
H1120 H 0.69305 0.74448 0.43753 0.0
H1121 H 0.74014 0.59268 0.40665 0.0
H1122 H 0.75413 0.56867 0.4434 0.0
H1123 H 0.74936 0.58883 0.4843 0.0
H1124 H 0.70635 0.74053 0.51627 0.0
H1125 H 0.69465 0.76727 0.47911 0.0
C1126 C 0.70711 0.7066 0.43894 0.0
C1127 C 0.7145 0.66998 0.41958 0.0
C1128 C 0.71523 0.69298 0.46024 0.0
C1129 C 0.73284 0.62093 0.42145 0.0
C1130 C 0.74104 0.60721 0.44241 0.0
C1131 C 0.73692 0.62753 0.48307 0.0
C1132 C 0.72736 0.66236 0.50274 0.0
C1133 C 0.73129 0.64244 0.4619 0.0
C1134 C 0.71316 0.71312 0.50113 0.0
C1135 C 0.70663 0.72826 0.47999 0.0
H1136 H 0.21202 0.87732 0.65961 0.0
H1137 H 0.18333 0.03303 0.6461 0.0
H1138 H 0.15084 0.05502 0.68612 0.0
H1139 H 0.13375 1.03121 0.72523 0.0
H1140 H 0.16377 0.87601 0.73867 0.0
H1141 H 0.19168 0.85248 0.69839 0.0
C1142 C 0.19838 0.91598 0.66537 0.0
C1143 C 0.20044 0.95352 0.64987 0.0
C1144 C 0.1799 0.9285 0.68842 0.0
C1145 C 0.18232 1.00335 0.65765 0.0
C1146 C 0.1638 1.01605 0.68056 0.0
C1147 C 0.14656 0.99233 0.71935 0.0
C1148 C 0.14681 0.95559 0.73501 0.0
C1149 C 0.16304 0.97916 0.69614 0.0
C1150 C 0.16257 0.90495 0.72702 0.0
C1151 C 0.17894 0.89153 0.70398 0.0
H1152 H 0.84804 0.32394 0.93639 0.0
H1153 H 0.7758 0.46967 0.93683 0.0
H1154 H 0.78065 0.48916 0.9774 0.0
H1155 H 0.80315 0.46481 1.01248 0.0
H1156 H 0.86828 0.31625 1.01422 0.0
H1157 H 0.87015 0.29854 0.9728 0.0
C1158 C 0.83278 0.35954 0.94547 0.0
C1159 C 0.81173 0.39545 0.93358 0.0
C1160 C 0.83542 0.37046 0.969 0.0
C1161 C 0.79274 0.44178 0.94552 0.0
C1162 C 0.79555 0.45299 0.9687 0.0
C1163 C 0.81842 0.42864 1.00392 0.0
C1164 C 0.83561 0.39192 1.01651 0.0
C1165 C 0.81695 0.41777 0.98054 0.0
C1166 C 0.85522 0.34542 1.00494 0.0
C1167 C 0.85565 0.33503 0.98131 0.0
H1168 H 0.50467 0.143 0.24861 0.0
H1169 H 0.37059 1.0216 0.24307 0.0
H1170 H 0.37318 1.03113 0.20286 0.0
H1171 H 0.40939 0.07784 0.17011 0.0
H1172 H 0.54282 0.19964 0.17481 0.0
H1173 H 0.54545 0.18599 0.21464 0.0
C1174 C 0.47625 0.11872 0.23849 0.0
C1175 C 0.43735 0.08196 0.24866 0.0
C1176 C 0.47789 0.12455 0.21541 0.0
C1177 C 0.40117 0.04985 0.23548 0.0
C1178 C 0.4024 0.05548 0.21257 0.0
C1179 C 0.43901 0.10124 0.17993 0.0
C1180 C 0.47524 0.14015 0.16998 0.0
C1181 C 0.43994 0.09325 0.20252 0.0
C1182 C 0.51457 0.16954 0.1824 0.0
C1183 C 0.5158 0.16192 0.20508 0.0
H1184 H 0.31912 0.40793 0.61601 0.0
H1185 H 0.41331 0.27489 0.59664 0.0
H1186 H 0.40556 0.28045 0.55644 0.0
H1187 H 0.37455 0.32613 0.52702 0.0
H1188 H 0.27926 0.45827 0.54713 0.0
H1189 H 0.2854 0.45093 0.58713 0.0
C1190 C 0.338 0.38026 0.60294 0.0
C1191 C 0.36729 0.34151 0.60903 0.0
C1192 C 0.33355 0.38401 0.58017 0.0
C1193 C 0.39048 0.3049 0.59216 0.0
C1194 C 0.38639 0.30839 0.56928 0.0
C1195 C 0.35563 0.35341 0.54024 0.0
C1196 C 0.32703 0.39304 0.53437 0.0
C1197 C 0.35866 0.34832 0.56311 0.0
C1198 C 0.30144 0.42758 0.55146 0.0
C1199 C 0.30494 0.42336 0.57422 0.0
H1200 H 0.824 0.19086 0.3704 0.0
H1201 H 0.89927 0.06053 0.38857 0.0
H1202 H 0.92344 1.03087 0.34852 0.0
H1203 H 0.9199 0.03962 0.30804 0.0
H1204 H 0.84525 0.17019 0.29009 0.0
H1205 H 0.8241 0.20183 0.33016 0.0
C1206 C 0.84634 0.15639 0.36563 0.0
C1207 C 0.8596 0.12802 0.38256 0.0
C1208 C 0.85975 0.13913 0.34251 0.0
C1209 C 0.88845 0.08327 0.37597 0.0
C1210 C 0.9021 0.06601 0.35302 0.0
C1211 C 0.89877 0.07478 0.31298 0.0
C1212 C 0.88403 0.10239 0.29614 0.0
C1213 C 0.88717 0.0931 0.33612 0.0
C1214 C 0.85739 0.14844 0.30273 0.0
C1215 C 0.84519 0.16653 0.32565 0.0
H1216 H 0.21645 0.7458 0.09427 0.0
H1217 H 0.2912 0.60292 0.09687 0.0
H1218 H 0.28647 0.57871 0.05649 0.0
H1219 H 0.26233 0.59787 0.02082 0.0
H1220 H 0.19526 0.74387 1.01602 0.0
H1221 H 0.19372 0.76634 0.05719 0.0
C1222 C 0.23237 0.70987 0.08584 0.0
C1223 C 0.25397 0.67603 0.09849 0.0
C1224 C 0.22967 0.69619 0.06247 0.0
C1225 C 0.27391 0.62922 0.08749 0.0
C1226 C 0.27105 0.61528 0.06446 0.0
C1227 C 0.24676 0.63447 0.02867 0.0
C1228 C 0.22889 0.6691 1.01532 0.0
C1229 C 0.24869 0.64823 0.05188 0.0
C1230 C 0.20888 0.71629 0.02594 0.0
C1231 C 0.20864 0.72943 0.04941 0.0
H1232 H 0.67441 0.95468 0.8565 0.0
H1233 H 0.51283 0.8724 0.85908 0.0
H1234 H 0.50644 0.89187 0.82046 0.0
H1235 H 0.54514 0.93653 0.78705 0.0
H1236 H 0.70521 1.02231 0.78573 0.0
H1237 H 0.71472 0.99533 0.82254 0.0
C1238 C 0.63823 0.94003 0.84848 0.0
C1239 C 0.59409 0.91221 0.8606 0.0
C1240 C 0.63469 0.95189 0.82651 0.0
C1241 C 0.54704 0.89442 0.85012 0.0
C1242 C 0.54348 0.90539 0.82807 0.0
C1243 C 0.58205 0.94944 0.79482 0.0
C1244 C 0.62413 0.98178 0.78366 0.0
C1245 C 0.5867 0.93496 0.81629 0.0
C1246 C 0.67229 0.99706 0.79375 0.0
C1247 C 0.67763 0.98202 0.81493 0.0
loop_
_geom_bond_atom_site_label_1
_geom_bond_atom_site_label_2
_geom_bond_distance
_geom_bond_site_symmetry_2
_ccdc_geom_bond_type
Co0 N5 2.057 . S
Co0 O17 2.021 . S
Co0 O20 2.062 . S
Co0 O24 2.117 . S
Co0 O25 2.020 . S
C1 O21 1.259 . S
C1 O24 1.258 . S
Co2 N11 2.057 . S
Co2 O18 2.117 . S
Co2 O19 2.020 . S
Co2 O21 2.021 . S
Co2 O26 2.062 . S
C3 N5 1.316 . S
C3 N6 1.347 1_554 S
C3 H8 0.931 . S
C4 N5 1.375 . S
C4 C7 1.350 . S
C4 H9 0.930 . S
N5 Co0 2.057 . S
N5 C3 1.316 . S
N5 C4 1.375 . S
N6 C3 1.347 1_556 S
N6 C7 1.373 1_556 S
C7 C4 1.350 . S
C7 N6 1.373 1_554 S
C7 H28 0.931 1_554 S
H8 C3 0.931 . S
H9 C4 0.930 . S
C10 O17 1.259 . S
C10 O18 1.258 . S
N11 Co2 2.057 . S
N11 C12 1.316 . S
N11 C13 1.375 . S
C12 N11 1.316 . S
C12 N14 1.347 . S
C12 H23 0.931 . S
C13 N11 1.375 . S
C13 C15 1.350 . S
C13 H22 0.930 . S
N14 C12 1.347 . S
N14 C15 1.373 . S
C15 C13 1.350 . S
C15 N14 1.373 . S
C15 H29 0.931 . S
C16 O19 1.256 . S
C16 O20 1.255 . S
O17 Co0 2.021 . S
O17 C10 1.259 . S
O18 Co2 2.117 . S
O18 C10 1.258 . S
O19 Co2 2.020 . S
O19 C16 1.256 . S
O20 Co0 2.062 . S
O20 C16 1.255 . S
O21 C1 1.259 . S
O21 Co2 2.021 . S
H22 C13 0.930 . S
H23 C12 0.931 . S
O24 Co0 2.117 . S
O24 C1 1.258 . S
O25 Co0 2.020 . S
O25 C27 1.256 . S
O26 Co2 2.062 . S
O26 C27 1.255 . S
C27 O25 1.256 . S
C27 O26 1.255 . S
H28 C7 0.931 1_556 S
H29 C15 0.931 . S
Co30 N35 2.057 . S
Co30 O47 2.021 . S
Co30 O50 2.062 . S
Co30 O54 2.117 . S
Co30 O55 2.020 . S
C31 O51 1.259 . S
C31 O54 1.258 . S
Co32 N41 2.057 . S
Co32 O48 2.117 . S
Co32 O49 2.020 . S
Co32 O51 2.021 . S
Co32 O56 2.062 . S
C33 N35 1.316 . S
C33 N36 1.347 . S
C33 H38 0.931 . S
C34 N35 1.375 . S
C34 C37 1.350 . S
C34 H39 0.930 . S
N35 Co30 2.057 . S
N35 C33 1.316 . S
N35 C34 1.375 . S
N36 C33 1.347 . S
N36 C37 1.373 . S
C37 C34 1.350 . S
C37 N36 1.373 . S
C37 H58 0.931 . S
H38 C33 0.931 . S
H39 C34 0.930 . S
C40 O47 1.259 . S
C40 O48 1.258 . S
N41 Co32 2.057 . S
N41 C42 1.316 . S
N41 C43 1.375 . S
C42 N41 1.316 . S
C42 N44 1.347 . S
C42 H53 0.931 . S
C43 N41 1.375 . S
C43 C45 1.350 . S
C43 H52 0.930 . S
N44 C42 1.347 . S
N44 C45 1.373 . S
C45 C43 1.350 . S
C45 N44 1.373 . S
C45 H59 0.931 . S
C46 O49 1.256 . S
C46 O50 1.255 . S
O47 Co30 2.021 . S
O47 C40 1.259 . S
O48 Co32 2.117 . S
O48 C40 1.258 . S
O49 Co32 2.020 . S
O49 C46 1.256 . S
O50 Co30 2.062 . S
O50 C46 1.255 . S
O51 C31 1.259 . S
O51 Co32 2.021 . S
H52 C43 0.930 . S
H53 C42 0.931 . S
O54 Co30 2.117 . S
O54 C31 1.258 . S
O55 Co30 2.020 . S
O55 C57 1.256 . S
O56 Co32 2.062 . S
O56 C57 1.255 . S
C57 O55 1.256 . S
C57 O56 1.255 . S
H58 C37 0.931 . S
H59 C45 0.931 . S
Co60 N65 2.057 . S
Co60 O77 2.021 . S
Co60 O80 2.062 . S
Co60 O84 2.117 . S
Co60 O85 2.020 . S
C61 O81 1.259 . S
C61 O84 1.258 . S
Co62 N71 2.057 . S
Co62 O78 2.117 . S
Co62 O79 2.020 . S
Co62 O81 2.021 . S
Co62 O86 2.062 . S
C63 N65 1.316 . S
C63 N66 1.347 . S
C63 H68 0.931 . S
C64 N65 1.375 . S
C64 C67 1.350 . S
C64 H69 0.930 . S
N65 Co60 2.057 . S
N65 C63 1.316 . S
N65 C64 1.375 . S
N66 C63 1.347 . S
N66 C67 1.373 . S
C67 C64 1.350 . S
C67 N66 1.373 . S
C67 H88 0.931 . S
H68 C63 0.931 . S
H69 C64 0.930 . S
C70 O77 1.259 . S
C70 O78 1.258 . S
N71 Co62 2.057 . S
N71 C72 1.316 . S
N71 C73 1.375 . S
C72 N71 1.316 . S
C72 N74 1.347 . S
C72 H83 0.931 . S
C73 N71 1.375 . S
C73 C75 1.350 1_565 S
C73 H82 0.930 . S
N74 C72 1.347 . S
N74 C75 1.373 1_565 S
C75 C73 1.350 1_545 S
C75 N74 1.373 1_545 S
C75 H89 0.931 . S
C76 O79 1.256 . S
C76 O80 1.255 . S
O77 Co60 2.021 . S
O77 C70 1.259 . S
O78 Co62 2.117 . S
O78 C70 1.258 . S
O79 Co62 2.020 . S
O79 C76 1.256 . S
O80 Co60 2.062 . S
O80 C76 1.255 . S
O81 C61 1.259 . S
O81 Co62 2.021 . S
H82 C73 0.930 . S
H83 C72 0.931 . S
O84 Co60 2.117 . S
O84 C61 1.258 . S
O85 Co60 2.020 . S
O85 C87 1.256 . S
O86 Co62 2.062 . S
O86 C87 1.255 . S
C87 O85 1.256 . S
C87 O86 1.255 . S
H88 C67 0.931 . S
H89 C75 0.931 . S
Co90 N95 2.057 . S
Co90 O107 2.021 . S
Co90 O110 2.062 . S
Co90 O114 2.117 . S
Co90 O115 2.020 . S
C91 O111 1.259 . S
C91 O114 1.258 . S
Co92 N101 2.057 . S
Co92 O108 2.117 . S
Co92 O109 2.020 . S
Co92 O111 2.021 . S
Co92 O116 2.062 . S
C93 N95 1.316 . S
C93 N96 1.347 . S
C93 H98 0.931 . S
C94 N95 1.375 . S
C94 C97 1.350 . S
C94 H99 0.930 . S
N95 Co90 2.057 . S
N95 C93 1.316 . S
N95 C94 1.375 . S
N96 C93 1.347 . S
N96 C97 1.373 . S
C97 C94 1.350 . S
C97 N96 1.373 . S
C97 H118 0.931 . S
H98 C93 0.931 . S
H99 C94 0.930 . S
C100 O107 1.259 . S
C100 O108 1.258 . S
N101 Co92 2.057 . S
N101 C102 1.316 . S
N101 C103 1.375 . S
C102 N101 1.316 . S
C102 N104 1.347 . S
C102 H113 0.931 . S
C103 N101 1.375 . S
C103 C105 1.350 . S
C103 H112 0.930 . S
N104 C102 1.347 . S
N104 C105 1.373 . S
C105 C103 1.350 . S
C105 N104 1.373 . S
C105 H119 0.931 . S
C106 O109 1.256 . S
C106 O110 1.255 . S
O107 Co90 2.021 . S
O107 C100 1.259 . S
O108 Co92 2.117 . S
O108 C100 1.258 . S
O109 Co92 2.020 . S
O109 C106 1.256 . S
O110 Co90 2.062 . S
O110 C106 1.255 . S
O111 C91 1.259 . S
O111 Co92 2.021 . S
H112 C103 0.930 . S
H113 C102 0.931 . S
O114 Co90 2.117 . S
O114 C91 1.258 . S
O115 Co90 2.020 . S
O115 C117 1.256 . S
O116 Co92 2.062 . S
O116 C117 1.255 . S
C117 O115 1.256 . S
C117 O116 1.255 . S
H118 C97 0.931 . S
H119 C105 0.931 . S
Co120 N125 2.057 . S
Co120 O137 2.021 . S
Co120 O140 2.062 . S
Co120 O144 2.117 . S
Co120 O145 2.020 . S
C121 O141 1.259 . S
C121 O144 1.258 . S
Co122 N131 2.057 . S
Co122 O138 2.117 . S
Co122 O139 2.020 . S
Co122 O141 2.021 . S
Co122 O146 2.062 . S
C123 N125 1.316 . S
C123 N126 1.347 . S
C123 H128 0.931 . S
C124 N125 1.375 . S
C124 C127 1.350 . S
C124 H129 0.930 . S
N125 Co120 2.057 . S
N125 C123 1.316 . S
N125 C124 1.375 . S
N126 C123 1.347 . S
N126 C127 1.373 . S
C127 C124 1.350 . S
C127 N126 1.373 . S
C127 H148 0.931 . S
H128 C123 0.931 . S
H129 C124 0.930 . S
C130 O137 1.259 . S
C130 O138 1.258 . S
N131 Co122 2.057 . S
N131 C132 1.316 . S
N131 C133 1.375 . S
C132 N131 1.316 . S
C132 N134 1.347 1_556 S
C132 H143 0.931 . S
C133 N131 1.375 . S
C133 C135 1.350 . S
C133 H142 0.930 . S
N134 C132 1.347 1_554 S
N134 C135 1.373 1_554 S
C135 C133 1.350 . S
C135 N134 1.373 1_556 S
C135 H149 0.931 1_556 S
C136 O139 1.256 . S
C136 O140 1.255 . S
O137 Co120 2.021 . S
O137 C130 1.259 . S
O138 Co122 2.117 . S
O138 C130 1.258 . S
O139 Co122 2.020 . S
O139 C136 1.256 . S
O140 Co120 2.062 . S
O140 C136 1.255 . S
O141 C121 1.259 . S
O141 Co122 2.021 . S
H142 C133 0.930 . S
H143 C132 0.931 . S
O144 Co120 2.117 . S
O144 C121 1.258 . S
O145 Co120 2.020 . S
O145 C147 1.256 . S
O146 Co122 2.062 . S
O146 C147 1.255 . S
C147 O145 1.256 . S
C147 O146 1.255 . S
H148 C127 0.931 . S
H149 C135 0.931 1_554 S
Co150 N155 2.057 . S
Co150 O167 2.021 . S
Co150 O170 2.062 . S
Co150 O174 2.117 . S
Co150 O175 2.020 . S
C151 O171 1.259 . S
C151 O174 1.258 . S
Co152 N161 2.057 . S
Co152 O168 2.117 . S
Co152 O169 2.020 . S
Co152 O171 2.021 . S
Co152 O176 2.062 . S
C153 N155 1.316 . S
C153 N156 1.347 . S
C153 H158 0.931 . S
C154 N155 1.375 . S
C154 C157 1.350 . S
C154 H159 0.930 . S
N155 Co150 2.057 . S
N155 C153 1.316 . S
N155 C154 1.375 . S
N156 C153 1.347 . S
N156 C157 1.373 . S
C157 C154 1.350 . S
C157 N156 1.373 . S
C157 H178 0.931 . S
H158 C153 0.931 . S
H159 C154 0.930 . S
C160 O167 1.259 . S
C160 O168 1.258 . S
N161 Co152 2.057 . S
N161 C162 1.316 . S
N161 C163 1.375 . S
C162 N161 1.316 . S
C162 N164 1.347 . S
C162 H173 0.931 . S
C163 N161 1.375 . S
C163 C165 1.350 . S
C163 H172 0.930 . S
N164 C162 1.347 . S
N164 C165 1.373 . S
C165 C163 1.350 . S
C165 N164 1.373 . S
C165 H179 0.931 . S
C166 O169 1.256 . S
C166 O170 1.255 . S
O167 Co150 2.021 . S
O167 C160 1.259 . S
O168 Co152 2.117 . S
O168 C160 1.258 . S
O169 Co152 2.020 . S
O169 C166 1.256 . S
O170 Co150 2.062 . S
O170 C166 1.255 . S
O171 C151 1.259 . S
O171 Co152 2.021 . S
H172 C163 0.930 . S
H173 C162 0.931 . S
O174 Co150 2.117 . S
O174 C151 1.258 . S
O175 Co150 2.020 . S
O175 C177 1.256 . S
O176 Co152 2.062 . S
O176 C177 1.255 . S
C177 O175 1.256 . S
C177 O176 1.255 . S
H178 C157 0.931 . S
H179 C165 0.931 . S
Co180 N185 2.057 . S
Co180 O197 2.021 . S
Co180 O200 2.062 . S
Co180 O204 2.117 . S
Co180 O205 2.020 . S
C181 O201 1.259 . S
C181 O204 1.258 . S
Co182 N191 2.057 . S
Co182 O198 2.117 . S
Co182 O199 2.020 . S
Co182 O201 2.021 . S
Co182 O206 2.062 . S
C183 N185 1.316 . S
C183 N186 1.347 . S
C183 H188 0.931 . S
C184 N185 1.375 . S
C184 C187 1.350 1_545 S
C184 H189 0.930 . S
N185 Co180 2.057 . S
N185 C183 1.316 . S
N185 C184 1.375 . S
N186 C183 1.347 . S
N186 C187 1.373 1_545 S
C187 C184 1.350 1_565 S
C187 N186 1.373 1_565 S
C187 H208 0.931 . S
H188 C183 0.931 . S
H189 C184 0.930 . S
C190 O197 1.259 . S
C190 O198 1.258 . S
N191 Co182 2.057 . S
N191 C192 1.316 . S
N191 C193 1.375 . S
C192 N191 1.316 . S
C192 N194 1.347 . S
C192 H203 0.931 . S
C193 N191 1.375 . S
C193 C195 1.350 . S
C193 H202 0.930 . S
N194 C192 1.347 . S
N194 C195 1.373 . S
C195 C193 1.350 . S
C195 N194 1.373 . S
C195 H209 0.931 . S
C196 O199 1.256 . S
C196 O200 1.255 . S
O197 Co180 2.021 . S
O197 C190 1.259 . S
O198 Co182 2.117 . S
O198 C190 1.258 . S
O199 Co182 2.020 . S
O199 C196 1.256 . S
O200 Co180 2.062 . S
O200 C196 1.255 . S
O201 C181 1.259 . S
O201 Co182 2.021 . S
H202 C193 0.930 . S
H203 C192 0.931 . S
O204 Co180 2.117 . S
O204 C181 1.258 . S
O205 Co180 2.020 . S
O205 C207 1.256 . S
O206 Co182 2.062 . S
O206 C207 1.255 . S
C207 O205 1.256 . S
C207 O206 1.255 . S
H208 C187 0.931 . S
H209 C195 0.931 . S
Co210 N215 2.057 . S
Co210 O227 2.021 . S
Co210 O230 2.062 . S
Co210 O234 2.117 . S
Co210 O235 2.020 . S
C211 O231 1.259 . S
C211 O234 1.258 . S
Co212 N221 2.057 . S
Co212 O228 2.117 . S
Co212 O229 2.020 . S
Co212 O231 2.021 . S
Co212 O236 2.062 . S
C213 N215 1.316 . S
C213 N216 1.347 . S
C213 H218 0.931 . S
C214 N215 1.375 . S
C214 C217 1.350 . S
C214 H219 0.930 . S
N215 Co210 2.057 . S
N215 C213 1.316 . S
N215 C214 1.375 . S
N216 C213 1.347 . S
N216 C217 1.373 . S
C217 C214 1.350 . S
C217 N216 1.373 . S
C217 H238 0.931 . S
H218 C213 0.931 . S
H219 C214 0.930 . S
C220 O227 1.259 . S
C220 O228 1.258 . S
N221 Co212 2.057 . S
N221 C222 1.316 . S
N221 C223 1.375 . S
C222 N221 1.316 . S
C222 N224 1.347 . S
C222 H233 0.931 . S
C223 N221 1.375 . S
C223 C225 1.350 . S
C223 H232 0.930 . S
N224 C222 1.347 . S
N224 C225 1.373 . S
C225 C223 1.350 . S
C225 N224 1.373 . S
C225 H239 0.931 . S
C226 O229 1.256 . S
C226 O230 1.255 . S
O227 Co210 2.021 . S
O227 C220 1.259 . S
O228 Co212 2.117 . S
O228 C220 1.258 . S
O229 Co212 2.020 . S
O229 C226 1.256 . S
O230 Co210 2.062 . S
O230 C226 1.255 . S
O231 C211 1.259 . S
O231 Co212 2.021 . S
H232 C223 0.930 . S
H233 C222 0.931 . S
O234 Co210 2.117 . S
O234 C211 1.258 . S
O235 Co210 2.020 . S
O235 C237 1.256 . S
O236 Co212 2.062 . S
O236 C237 1.255 . S
C237 O235 1.256 . S
C237 O236 1.255 . S
H238 C217 0.931 . S
H239 C225 0.931 . S
Co240 N245 2.057 . S
Co240 O257 2.021 . S
Co240 O260 2.062 . S
Co240 O264 2.117 . S
Co240 O265 2.020 . S
C241 O261 1.259 . S
C241 O264 1.258 . S
Co242 N251 2.057 . S
Co242 O258 2.117 . S
Co242 O259 2.020 . S
Co242 O261 2.021 . S
Co242 O266 2.062 . S
C243 N245 1.316 . S
C243 N246 1.347 . S
C243 H248 0.931 . S
C244 N245 1.375 . S
C244 C247 1.350 . S
C244 H249 0.930 . S
N245 Co240 2.057 . S
N245 C243 1.316 . S
N245 C244 1.375 . S
N246 C243 1.347 . S
N246 C247 1.373 . S
C247 C244 1.350 . S
C247 N246 1.373 . S
C247 H268 0.931 . S
H248 C243 0.931 . S
H249 C244 0.930 . S
C250 O257 1.259 . S
C250 O258 1.258 . S
N251 Co242 2.057 . S
N251 C252 1.316 . S
N251 C253 1.375 . S
C252 N251 1.316 . S
C252 N254 1.347 . S
C252 H263 0.931 . S
C253 N251 1.375 . S
C253 C255 1.350 . S
C253 H262 0.930 . S
N254 C252 1.347 . S
N254 C255 1.373 . S
C255 C253 1.350 . S
C255 N254 1.373 . S
C255 H269 0.931 . S
C256 O259 1.256 . S
C256 O260 1.255 . S
O257 Co240 2.021 . S
O257 C250 1.259 . S
O258 Co242 2.117 . S
O258 C250 1.258 . S
O259 Co242 2.020 . S
O259 C256 1.256 . S
O260 Co240 2.062 . S
O260 C256 1.255 . S
O261 C241 1.259 . S
O261 Co242 2.021 . S
H262 C253 0.930 . S
H263 C252 0.931 . S
O264 Co240 2.117 . S
O264 C241 1.258 . S
O265 Co240 2.020 . S
O265 C267 1.256 . S
O266 Co242 2.062 . S
O266 C267 1.255 . S
C267 O265 1.256 . S
C267 O266 1.255 . S
H268 C247 0.931 . S
H269 C255 0.931 . S
Co270 N275 2.057 . S
Co270 O287 2.021 . S
Co270 O290 2.062 . S
Co270 O294 2.117 . S
Co270 O295 2.020 . S
C271 O291 1.259 . S
C271 O294 1.258 . S
Co272 N281 2.057 . S
Co272 O288 2.117 . S
Co272 O289 2.020 . S
Co272 O291 2.021 . S
Co272 O296 2.062 . S
C273 N275 1.316 . S
C273 N276 1.347 . S
C273 H278 0.931 . S
C274 N275 1.375 1_565 S
C274 C277 1.350 . S
C274 H279 0.930 . S
N275 Co270 2.057 . S
N275 C273 1.316 . S
N275 C274 1.375 1_545 S
N276 C273 1.347 . S
N276 C277 1.373 1_545 S
C277 C274 1.350 . S
C277 N276 1.373 1_565 S
C277 H298 0.931 . S
H278 C273 0.931 . S
H279 C274 0.930 . S
C280 O287 1.259 . S
C280 O288 1.258 . S
N281 Co272 2.057 . S
N281 C282 1.316 . S
N281 C283 1.375 . S
C282 N281 1.316 . S
C282 N284 1.347 . S
C282 H293 0.931 . S
C283 N281 1.375 . S
C283 C285 1.350 . S
C283 H292 0.930 . S
N284 C282 1.347 . S
N284 C285 1.373 . S
C285 C283 1.350 . S
C285 N284 1.373 . S
C285 H299 0.931 . S
C286 O289 1.256 . S
C286 O290 1.255 . S
O287 Co270 2.021 . S
O287 C280 1.259 . S
O288 Co272 2.117 . S
O288 C280 1.258 . S
O289 Co272 2.020 . S
O289 C286 1.256 . S
O290 Co270 2.062 . S
O290 C286 1.255 . S
O291 C271 1.259 . S
O291 Co272 2.021 . S
H292 C283 0.930 . S
H293 C282 0.931 . S
O294 Co270 2.117 . S
O294 C271 1.258 . S
O295 Co270 2.020 . S
O295 C297 1.256 . S
O296 Co272 2.062 . S
O296 C297 1.255 . S
C297 O295 1.256 . S
C297 O296 1.255 . S
H298 C277 0.931 . S
H299 C285 0.931 . S
Co300 N305 2.057 . S
Co300 O317 2.021 . S
Co300 O320 2.062 . S
Co300 O324 2.117 . S
Co300 O325 2.020 . S
C301 O321 1.259 . S
C301 O324 1.258 . S
Co302 N311 2.057 . S
Co302 O318 2.117 . S
Co302 O319 2.020 . S
Co302 O321 2.021 . S
Co302 O326 2.062 . S
C303 N305 1.316 . S
C303 N306 1.347 . S
C303 H308 0.931 . S
C304 N305 1.375 . S
C304 C307 1.350 . S
C304 H309 0.930 . S
N305 Co300 2.057 . S
N305 C303 1.316 . S
N305 C304 1.375 . S
N306 C303 1.347 . S
N306 C307 1.373 . S
C307 C304 1.350 . S
C307 N306 1.373 . S
C307 H328 0.931 . S
H308 C303 0.931 . S
H309 C304 0.930 . S
C310 O317 1.259 . S
C310 O318 1.258 . S
N311 Co302 2.057 . S
N311 C312 1.316 . S
N311 C313 1.375 . S
C312 N311 1.316 . S
C312 N314 1.347 . S
C312 H323 0.931 . S
C313 N311 1.375 . S
C313 C315 1.350 . S
C313 H322 0.930 . S
N314 C312 1.347 . S
N314 C315 1.373 . S
C315 C313 1.350 . S
C315 N314 1.373 . S
C315 H329 0.931 . S
C316 O319 1.256 . S
C316 O320 1.255 . S
O317 Co300 2.021 . S
O317 C310 1.259 . S
O318 Co302 2.117 . S
O318 C310 1.258 . S
O319 Co302 2.020 . S
O319 C316 1.256 . S
O320 Co300 2.062 . S
O320 C316 1.255 . S
O321 C301 1.259 . S
O321 Co302 2.021 . S
H322 C313 0.930 . S
H323 C312 0.931 . S
O324 Co300 2.117 . S
O324 C301 1.258 . S
O325 Co300 2.020 . S
O325 C327 1.256 . S
O326 Co302 2.062 . S
O326 C327 1.255 . S
C327 O325 1.256 . S
C327 O326 1.255 . S
H328 C307 0.931 . S
H329 C315 0.931 . S
Co330 N335 2.057 . S
Co330 O347 2.021 . S
Co330 O350 2.062 . S
Co330 O354 2.117 . S
Co330 O355 2.020 . S
C331 O351 1.259 . S
C331 O354 1.258 . S
Co332 N341 2.057 . S
Co332 O348 2.117 . S
Co332 O349 2.020 . S
Co332 O351 2.021 . S
Co332 O356 2.062 . S
C333 N335 1.316 . S
C333 N336 1.347 . S
C333 H338 0.931 . S
C334 N335 1.375 1_545 S
C334 C337 1.350 . S
C334 H339 0.930 . S
N335 Co330 2.057 . S
N335 C333 1.316 . S
N335 C334 1.375 1_565 S
N336 C333 1.347 . S
N336 C337 1.373 1_565 S
C337 C334 1.350 . S
C337 N336 1.373 1_545 S
C337 H358 0.931 . S
H338 C333 0.931 . S
H339 C334 0.930 . S
C340 O347 1.259 . S
C340 O348 1.258 . S
N341 Co332 2.057 . S
N341 C342 1.316 . S
N341 C343 1.375 . S
C342 N341 1.316 . S
C342 N344 1.347 . S
C342 H353 0.931 . S
C343 N341 1.375 . S
C343 C345 1.350 . S
C343 H352 0.930 . S
N344 C342 1.347 . S
N344 C345 1.373 . S
C345 C343 1.350 . S
C345 N344 1.373 . S
C345 H359 0.931 . S
C346 O349 1.256 . S
C346 O350 1.255 . S
O347 Co330 2.021 . S
O347 C340 1.259 . S
O348 Co332 2.117 . S
O348 C340 1.258 . S
O349 Co332 2.020 . S
O349 C346 1.256 . S
O350 Co330 2.062 . S
O350 C346 1.255 . S
O351 C331 1.259 . S
O351 Co332 2.021 . S
H352 C343 0.930 . S
H353 C342 0.931 . S
O354 Co330 2.117 . S
O354 C331 1.258 . S
O355 Co330 2.020 . S
O355 C357 1.256 . S
O356 Co332 2.062 . S
O356 C357 1.255 . S
C357 O355 1.256 . S
C357 O356 1.255 . S
H358 C337 0.931 . S
H359 C345 0.931 . S
Co360 N365 2.057 . S
Co360 O377 2.021 . S
Co360 O380 2.062 . S
Co360 O384 2.117 . S
Co360 O385 2.020 . S
C361 O381 1.259 . S
C361 O384 1.258 . S
Co362 N371 2.057 . S
Co362 O378 2.117 . S
Co362 O379 2.020 . S
Co362 O381 2.021 . S
Co362 O386 2.062 . S
C363 N365 1.316 . S
C363 N366 1.347 . S
C363 H368 0.931 . S
C364 N365 1.375 . S
C364 C367 1.350 . S
C364 H369 0.930 . S
N365 Co360 2.057 . S
N365 C363 1.316 . S
N365 C364 1.375 . S
N366 C363 1.347 . S
N366 C367 1.373 . S
C367 C364 1.350 . S
C367 N366 1.373 . S
C367 H388 0.931 . S
H368 C363 0.931 . S
H369 C364 0.930 . S
C370 O377 1.259 . S
C370 O378 1.258 . S
N371 Co362 2.057 . S
N371 C372 1.316 . S
N371 C373 1.375 . S
C372 N371 1.316 . S
C372 N374 1.347 . S
C372 H383 0.931 . S
C373 N371 1.375 . S
C373 C375 1.350 . S
C373 H382 0.930 . S
N374 C372 1.347 . S
N374 C375 1.373 . S
C375 C373 1.350 . S
C375 N374 1.373 . S
C375 H389 0.931 . S
C376 O379 1.256 . S
C376 O380 1.255 . S
O377 Co360 2.021 . S
O377 C370 1.259 . S
O378 Co362 2.117 . S
O378 C370 1.258 . S
O379 Co362 2.020 . S
O379 C376 1.256 . S
O380 Co360 2.062 . S
O380 C376 1.255 . S
O381 C361 1.259 . S
O381 Co362 2.021 . S
H382 C373 0.930 . S
H383 C372 0.931 . S
O384 Co360 2.117 . S
O384 C361 1.258 . S
O385 Co360 2.020 . S
O385 C387 1.256 . S
O386 Co362 2.062 . S
O386 C387 1.255 . S
C387 O385 1.256 . S
C387 O386 1.255 . S
H388 C367 0.931 . S
H389 C375 0.931 . S
Co390 N395 2.057 . S
Co390 O407 2.021 . S
Co390 O410 2.062 . S
Co390 O414 2.117 . S
Co390 O415 2.020 . S
C391 O411 1.259 . S
C391 O414 1.258 . S
Co392 N401 2.057 . S
Co392 O408 2.117 . S
Co392 O409 2.020 . S
Co392 O411 2.021 . S
Co392 O416 2.062 . S
C393 N395 1.316 . S
C393 N396 1.347 . S
C393 H398 0.931 . S
C394 N395 1.375 . S
C394 C397 1.350 . S
C394 H399 0.930 . S
N395 Co390 2.057 . S
N395 C393 1.316 . S
N395 C394 1.375 . S
N396 C393 1.347 . S
N396 C397 1.373 . S
C397 C394 1.350 . S
C397 N396 1.373 . S
C397 H418 0.931 . S
H398 C393 0.931 . S
H399 C394 0.930 . S
C400 O407 1.259 . S
C400 O408 1.258 . S
N401 Co392 2.057 . S
N401 C402 1.316 . S
N401 C403 1.375 1_565 S
C402 N401 1.316 . S
C402 N404 1.347 . S
C402 H413 0.931 . S
C403 N401 1.375 1_545 S
C403 C405 1.350 . S
C403 H412 0.930 . S
N404 C402 1.347 . S
N404 C405 1.373 1_565 S
C405 C403 1.350 . S
C405 N404 1.373 1_545 S
C405 H419 0.931 . S
C406 O409 1.256 . S
C406 O410 1.255 . S
O407 Co390 2.021 . S
O407 C400 1.259 . S
O408 Co392 2.117 . S
O408 C400 1.258 . S
O409 Co392 2.020 . S
O409 C406 1.256 . S
O410 Co390 2.062 . S
O410 C406 1.255 . S
O411 C391 1.259 . S
O411 Co392 2.021 . S
H412 C403 0.930 . S
H413 C402 0.931 . S
O414 Co390 2.117 . S
O414 C391 1.258 . S
O415 Co390 2.020 . S
O415 C417 1.256 . S
O416 Co392 2.062 . S
O416 C417 1.255 . S
C417 O415 1.256 . S
C417 O416 1.255 . S
H418 C397 0.931 . S
H419 C405 0.931 . S
Co420 N425 2.057 . S
Co420 O437 2.021 . S
Co420 O440 2.062 . S
Co420 O444 2.117 . S
Co420 O445 2.020 . S
C421 O441 1.259 . S
C421 O444 1.258 . S
Co422 N431 2.057 . S
Co422 O438 2.117 . S
Co422 O439 2.020 . S
Co422 O441 2.021 . S
Co422 O446 2.062 . S
C423 N425 1.316 . S
C423 N426 1.347 . S
C423 H428 0.931 . S
C424 N425 1.375 . S
C424 C427 1.350 . S
C424 H429 0.930 . S
N425 Co420 2.057 . S
N425 C423 1.316 . S
N425 C424 1.375 . S
N426 C423 1.347 . S
N426 C427 1.373 . S
C427 C424 1.350 . S
C427 N426 1.373 . S
C427 H448 0.931 . S
H428 C423 0.931 . S
H429 C424 0.930 . S
C430 O437 1.259 . S
C430 O438 1.258 . S
N431 Co422 2.057 . S
N431 C432 1.316 . S
N431 C433 1.375 . S
C432 N431 1.316 . S
C432 N434 1.347 . S
C432 H443 0.931 . S
C433 N431 1.375 . S
C433 C435 1.350 . S
C433 H442 0.930 . S
N434 C432 1.347 . S
N434 C435 1.373 . S
C435 C433 1.350 . S
C435 N434 1.373 . S
C435 H449 0.931 . S
C436 O439 1.256 . S
C436 O440 1.255 . S
O437 Co420 2.021 . S
O437 C430 1.259 . S
O438 Co422 2.117 . S
O438 C430 1.258 . S
O439 Co422 2.020 . S
O439 C436 1.256 . S
O440 Co420 2.062 . S
O440 C436 1.255 . S
O441 C421 1.259 . S
O441 Co422 2.021 . S
H442 C433 0.930 . S
H443 C432 0.931 . S
O444 Co420 2.117 . S
O444 C421 1.258 . S
O445 Co420 2.020 . S
O445 C447 1.256 . S
O446 Co422 2.062 . S
O446 C447 1.255 . S
C447 O445 1.256 . S
C447 O446 1.255 . S
H448 C427 0.931 . S
H449 C435 0.931 . S
Co450 N455 2.057 . S
Co450 O467 2.021 . S
Co450 O470 2.062 . S
Co450 O474 2.117 . S
Co450 O475 2.020 . S
C451 O471 1.259 . S
C451 O474 1.258 . S
Co452 N461 2.057 . S
Co452 O468 2.117 . S
Co452 O469 2.020 . S
Co452 O471 2.021 . S
Co452 O476 2.062 . S
C453 N455 1.316 . S
C453 N456 1.347 . S
C453 H458 0.931 . S
C454 N455 1.375 . S
C454 C457 1.350 . S
C454 H459 0.930 . S
N455 Co450 2.057 . S
N455 C453 1.316 . S
N455 C454 1.375 . S
N456 C453 1.347 . S
N456 C457 1.373 . S
C457 C454 1.350 . S
C457 N456 1.373 . S
C457 H478 0.931 . S
H458 C453 0.931 . S
H459 C454 0.930 . S
C460 O467 1.259 . S
C460 O468 1.258 . S
N461 Co452 2.057 . S
N461 C462 1.316 . S
N461 C463 1.375 1_545 S
C462 N461 1.316 . S
C462 N464 1.347 . S
C462 H473 0.931 . S
C463 N461 1.375 1_565 S
C463 C465 1.350 . S
C463 H472 0.930 . S
N464 C462 1.347 . S
N464 C465 1.373 1_545 S
C465 C463 1.350 . S
C465 N464 1.373 1_565 S
C465 H479 0.931 . S
C466 O469 1.256 . S
C466 O470 1.255 . S
O467 Co450 2.021 . S
O467 C460 1.259 . S
O468 Co452 2.117 . S
O468 C460 1.258 . S
O469 Co452 2.020 . S
O469 C466 1.256 . S
O470 Co450 2.062 . S
O470 C466 1.255 . S
O471 C451 1.259 . S
O471 Co452 2.021 . S
H472 C463 0.930 . S
H473 C462 0.931 . S
O474 Co450 2.117 . S
O474 C451 1.258 . S
O475 Co450 2.020 . S
O475 C477 1.256 . S
O476 Co452 2.062 . S
O476 C477 1.255 . S
C477 O475 1.256 . S
C477 O476 1.255 . S
H478 C457 0.931 . S
H479 C465 0.931 . S
H480 C486 0.930 . S
H481 C489 0.930 . S
H482 C490 0.930 . S
H483 C491 0.930 . S
H484 C494 0.930 . S
H485 C495 0.930 . S
C486 H480 0.930 . S
C486 C487 1.355 . S
C486 C488 1.415 . S
C487 C486 1.355 . S
C487 C489 1.419 . S
C488 C486 1.415 . S
C488 C493 1.425 . S
C488 C495 1.409 . S
C489 H481 0.930 . S
C489 C487 1.419 . S
C489 C490 1.362 . S
C490 H482 0.930 . S
C490 C489 1.362 . S
C490 C493 1.409 . S
C491 H483 0.930 . S
C491 C492 1.355 . S
C491 C493 1.415 . S
C492 C491 1.355 . S
C492 C494 1.419 . S
C493 C488 1.425 . S
C493 C490 1.409 . S
C493 C491 1.415 . S
C494 H484 0.930 . S
C494 C492 1.419 . S
C494 C495 1.362 . S
C495 H485 0.930 . S
C495 C488 1.409 . S
C495 C494 1.362 . S
H496 C502 0.930 . S
H497 C505 0.930 . S
H498 C506 0.930 . S
H499 C507 0.930 . S
H500 C510 0.930 . S
H501 C511 0.930 . S
C502 H496 0.930 . S
C502 C503 1.355 . S
C502 C504 1.415 . S
C503 C502 1.355 . S
C503 C505 1.419 . S
C504 C502 1.415 . S
C504 C509 1.425 . S
C504 C511 1.409 . S
C505 H497 0.930 . S
C505 C503 1.419 . S
C505 C506 1.362 . S
C506 H498 0.930 . S
C506 C505 1.362 . S
C506 C509 1.409 . S
C507 H499 0.930 . S
C507 C508 1.355 . S
C507 C509 1.415 . S
C508 C507 1.355 . S
C508 C510 1.419 . S
C509 C504 1.425 . S
C509 C506 1.409 . S
C509 C507 1.415 . S
C510 H500 0.930 . S
C510 C508 1.419 . S
C510 C511 1.362 . S
C511 H501 0.930 . S
C511 C504 1.409 . S
C511 C510 1.362 . S
H512 C518 0.930 . S
H513 C521 0.930 . S
H514 C522 0.930 . S
H515 C523 0.930 . S
H516 C526 0.930 . S
H517 C527 0.938 . S
C518 H512 0.930 . S
C518 C519 1.355 . S
C518 C520 1.415 . S
C519 C518 1.355 . S
C519 C521 1.419 . S
C520 C518 1.415 . S
C520 C525 1.434 . S
C520 C527 1.416 . S
C521 H513 0.930 . S
C521 C519 1.419 . S
C521 C522 1.362 . S
C522 H514 0.930 . S
C522 C521 1.362 . S
C522 C525 1.416 . S
C523 H515 0.930 . S
C523 C524 1.355 . S
C523 C525 1.400 1_655 S
C524 C523 1.355 . S
C524 C526 1.419 . S
C525 C520 1.434 . S
C525 C522 1.416 . S
C525 C523 1.400 1_455 S
C526 H516 0.930 . S
C526 C524 1.419 . S
C526 C527 1.348 1_655 S
C527 H517 0.938 . S
C527 C520 1.416 . S
C527 C526 1.348 1_455 S
H528 C534 0.930 . S
H529 C537 0.930 . S
H530 C538 0.930 . S
H531 C539 0.930 . S
H532 C542 0.930 . S
H533 C543 0.930 . S
C534 H528 0.930 . S
C534 C535 1.355 . S
C534 C536 1.415 . S
C535 C534 1.355 . S
C535 C537 1.419 1_455 S
C536 C534 1.415 . S
C536 C541 1.425 1_455 S
C536 C543 1.409 . S
C537 H529 0.930 . S
C537 C535 1.419 1_655 S
C537 C538 1.362 . S
C538 H530 0.930 . S
C538 C537 1.362 . S
C538 C541 1.409 . S
C539 H531 0.930 . S
C539 C540 1.355 . S
C539 C541 1.415 . S
C540 C539 1.355 . S
C540 C542 1.419 1_655 S
C541 C536 1.425 1_655 S
C541 C538 1.409 . S
C541 C539 1.415 . S
C542 H532 0.930 . S
C542 C540 1.419 1_455 S
C542 C543 1.362 . S
C543 H533 0.930 . S
C543 C536 1.409 . S
C543 C542 1.362 . S
H544 C550 0.930 . S
H545 C553 0.930 . S
H546 C554 0.930 . S
H547 C555 0.930 . S
H548 C558 0.930 . S
H549 C559 0.930 . S
C550 H544 0.930 . S
C550 C551 1.355 . S
C550 C552 1.415 . S
C551 C550 1.355 . S
C551 C553 1.419 . S
C552 C550 1.415 . S
C552 C557 1.425 . S
C552 C559 1.409 . S
C553 H545 0.930 . S
C553 C551 1.419 . S
C553 C554 1.362 . S
C554 H546 0.930 . S
C554 C553 1.362 . S
C554 C557 1.409 . S
C555 H547 0.930 . S
C555 C556 1.355 . S
C555 C557 1.415 . S
C556 C555 1.355 . S
C556 C558 1.419 . S
C557 C552 1.425 . S
C557 C554 1.409 . S
C557 C555 1.415 . S
C558 H548 0.930 . S
C558 C556 1.419 . S
C558 C559 1.362 . S
C559 H549 0.930 . S
C559 C552 1.409 . S
C559 C558 1.362 . S
H560 C566 0.930 . S
H561 C569 0.930 . S
H562 C570 0.930 . S
H563 C571 0.930 . S
H564 C574 0.930 . S
H565 C575 0.930 . S
C566 H560 0.930 . S
C566 C567 1.355 . S
C566 C568 1.415 . S
C567 C566 1.355 . S
C567 C569 1.419 . S
C568 C566 1.415 . S
C568 C573 1.425 . S
C568 C575 1.409 . S
C569 H561 0.930 . S
C569 C567 1.419 . S
C569 C570 1.362 . S
C570 H562 0.930 . S
C570 C569 1.362 . S
C570 C573 1.409 . S
C571 H563 0.930 . S
C571 C572 1.355 . S
C571 C573 1.415 . S
C572 C571 1.355 . S
C572 C574 1.419 . S
C573 C568 1.425 . S
C573 C570 1.409 . S
C573 C571 1.415 . S
C574 H564 0.930 . S
C574 C572 1.419 . S
C574 C575 1.362 . S
C575 H565 0.930 . S
C575 C568 1.409 . S
C575 C574 1.362 . S
H576 C582 0.930 . S
H577 C585 0.930 . S
H578 C586 0.930 . S
H579 C587 0.930 . S
H580 C590 0.930 . S
H581 C591 0.930 . S
C582 H576 0.930 . S
C582 C583 1.355 . S
C582 C584 1.415 1_455 S
C583 C582 1.355 . S
C583 C585 1.419 . S
C584 C582 1.415 1_655 S
C584 C589 1.425 . S
C584 C591 1.409 . S
C585 H577 0.930 . S
C585 C583 1.419 . S
C585 C586 1.362 . S
C586 H578 0.930 . S
C586 C585 1.362 . S
C586 C589 1.409 1_455 S
C587 H579 0.930 . S
C587 C588 1.355 . S
C587 C589 1.415 . S
C588 C587 1.355 . S
C588 C590 1.419 . S
C589 C584 1.425 . S
C589 C586 1.409 1_655 S
C589 C587 1.415 . S
C590 H580 0.930 . S
C590 C588 1.419 . S
C590 C591 1.362 . S
C591 H581 0.930 . S
C591 C584 1.409 . S
C591 C590 1.362 . S
H592 C598 0.930 1_655 S
H593 C601 0.930 . S
H594 C602 0.930 . S
H595 C603 0.930 . S
H596 C606 0.930 . S
H597 C607 0.930 . S
C598 H592 0.930 1_455 S
C598 C599 1.355 . S
C598 C600 1.415 1_455 S
C599 C598 1.355 . S
C599 C601 1.419 . S
C600 C598 1.415 1_655 S
C600 C605 1.425 1_655 S
C600 C607 1.409 . S
C601 H593 0.930 . S
C601 C599 1.419 . S
C601 C602 1.362 . S
C602 H594 0.930 . S
C602 C601 1.362 . S
C602 C605 1.409 . S
C603 H595 0.930 . S
C603 C604 1.355 1_455 S
C603 C605 1.415 . S
C604 C603 1.355 1_655 S
C604 C606 1.419 . S
C605 C600 1.425 1_455 S
C605 C602 1.409 . S
C605 C603 1.415 . S
C606 H596 0.930 . S
C606 C604 1.419 . S
C606 C607 1.362 . S
C607 H597 0.930 . S
C607 C600 1.409 . S
C607 C606 1.362 . S
H608 C614 0.930 1_565 S
H609 C617 0.930 . S
H610 C618 0.930 . S
H611 C619 0.930 1_545 S
H612 C622 0.930 . S
H613 C623 0.930 . S
C614 H608 0.930 1_545 S
C614 C615 1.355 . S
C614 C616 1.415 1_545 S
C615 C614 1.355 . S
C615 C617 1.419 . S
C616 C614 1.415 1_565 S
C616 C621 1.425 1_564 S
C616 C623 1.409 . S
C617 H609 0.930 . S
C617 C615 1.419 . S
C617 C618 1.362 1_554 S
C618 H610 0.930 . S
C618 C617 1.362 1_556 S
C618 C621 1.409 . S
C619 H611 0.930 1_565 S
C619 C620 1.355 . S
C619 C621 1.415 1_565 S
C620 C619 1.355 . S
C620 C622 1.419 . S
C621 C616 1.425 1_546 S
C621 C618 1.409 . S
C621 C619 1.415 1_545 S
C622 H612 0.930 . S
C622 C620 1.419 . S
C622 C623 1.362 1_556 S
C623 H613 0.930 . S
C623 C616 1.409 . S
C623 C622 1.362 1_554 S
H624 C630 0.930 . S
H625 C633 0.930 . S
H626 C634 0.930 . S
H627 C635 0.930 . S
H628 C638 0.930 . S
H629 C639 0.930 . S
C630 H624 0.930 . S
C630 C631 1.355 . S
C630 C632 1.415 . S
C631 C630 1.355 . S
C631 C633 1.419 . S
C632 C630 1.415 . S
C632 C637 1.425 . S
C632 C639 1.409 . S
C633 H625 0.930 . S
C633 C631 1.419 . S
C633 C634 1.362 . S
C634 H626 0.930 . S
C634 C633 1.362 . S
C634 C637 1.409 . S
C635 H627 0.930 . S
C635 C636 1.355 . S
C635 C637 1.415 . S
C636 C635 1.355 . S
C636 C638 1.419 . S
C637 C632 1.425 . S
C637 C634 1.409 . S
C637 C635 1.415 . S
C638 H628 0.930 . S
C638 C636 1.419 . S
C638 C639 1.362 . S
C639 H629 0.930 . S
C639 C632 1.409 . S
C639 C638 1.362 . S
H640 C646 0.930 . S
H641 C649 0.930 . S
H642 C650 0.930 . S
H643 C651 0.930 . S
H644 C654 0.930 . S
H645 C655 0.930 . S
C646 H640 0.930 . S
C646 C647 1.355 1_565 S
C646 C648 1.415 . S
C647 C646 1.355 1_545 S
C647 C649 1.419 . S
C648 C646 1.415 . S
C648 C653 1.425 1_465 S
C648 C655 1.409 . S
C649 H641 0.930 . S
C649 C647 1.419 . S
C649 C650 1.362 1_455 S
C650 H642 0.930 . S
C650 C649 1.362 1_655 S
C650 C653 1.409 . S
C651 H643 0.930 . S
C651 C652 1.355 1_545 S
C651 C653 1.415 . S
C652 C651 1.355 1_565 S
C652 C654 1.419 . S
C653 C648 1.425 1_645 S
C653 C650 1.409 . S
C653 C651 1.415 . S
C654 H644 0.930 . S
C654 C652 1.419 . S
C654 C655 1.362 1_655 S
C655 H645 0.930 . S
C655 C648 1.409 . S
C655 C654 1.362 1_455 S
H656 C662 0.930 . S
H657 C665 0.930 . S
H658 C666 0.930 . S
H659 C667 0.930 . S
H660 C670 0.930 . S
H661 C671 0.930 . S
C662 H656 0.930 . S
C662 C663 1.355 . S
C662 C664 1.415 . S
C663 C662 1.355 . S
C663 C665 1.419 . S
C664 C662 1.415 . S
C664 C669 1.425 . S
C664 C671 1.409 . S
C665 H657 0.930 . S
C665 C663 1.419 . S
C665 C666 1.362 . S
C666 H658 0.930 . S
C666 C665 1.362 . S
C666 C669 1.409 . S
C667 H659 0.930 . S
C667 C668 1.355 . S
C667 C669 1.415 . S
C668 C667 1.355 . S
C668 C670 1.419 . S
C669 C664 1.425 . S
C669 C666 1.409 . S
C669 C667 1.415 . S
C670 H660 0.930 . S
C670 C668 1.419 . S
C670 C671 1.362 . S
C671 H661 0.930 . S
C671 C664 1.409 . S
C671 C670 1.362 . S
H672 C678 0.930 . S
H673 C681 0.930 . S
H674 C682 0.930 . S
H675 C683 0.930 . S
H676 C686 0.930 . S
H677 C687 0.930 . S
C678 H672 0.930 . S
C678 C679 1.355 . S
C678 C680 1.415 . S
C679 C678 1.355 . S
C679 C681 1.419 . S
C680 C678 1.415 . S
C680 C685 1.425 . S
C680 C687 1.409 . S
C681 H673 0.930 . S
C681 C679 1.419 . S
C681 C682 1.362 . S
C682 H674 0.930 . S
C682 C681 1.362 . S
C682 C685 1.409 . S
C683 H675 0.930 . S
C683 C684 1.355 . S
C683 C685 1.415 . S
C684 C683 1.355 . S
C684 C686 1.419 . S
C685 C680 1.425 . S
C685 C682 1.409 . S
C685 C683 1.415 . S
C686 H676 0.930 . S
C686 C684 1.419 . S
C686 C687 1.362 . S
C687 H677 0.930 . S
C687 C680 1.409 . S
C687 C686 1.362 . S
H688 C694 0.930 . S
H689 C697 0.930 . S
H690 C698 0.930 . S
H691 C699 0.930 . S
H692 C702 0.930 . S
H693 C703 0.930 . S
C694 H688 0.930 . S
C694 C695 1.355 . S
C694 C696 1.415 . S
C695 C694 1.355 . S
C695 C697 1.419 . S
C696 C694 1.415 . S
C696 C701 1.425 . S
C696 C703 1.409 . S
C697 H689 0.930 . S
C697 C695 1.419 . S
C697 C698 1.362 . S
C698 H690 0.930 . S
C698 C697 1.362 . S
C698 C701 1.409 . S
C699 H691 0.930 . S
C699 C700 1.355 . S
C699 C701 1.415 . S
C700 C699 1.355 . S
C700 C702 1.419 . S
C701 C696 1.425 . S
C701 C698 1.409 . S
C701 C699 1.415 . S
C702 H692 0.930 . S
C702 C700 1.419 . S
C702 C703 1.362 . S
C703 H693 0.930 . S
C703 C696 1.409 . S
C703 C702 1.362 . S
H704 C710 0.930 . S
H705 C713 0.930 . S
H706 C714 0.930 . S
H707 C715 0.930 . S
H708 C718 0.930 . S
H709 C719 0.930 . S
C710 H704 0.930 . S
C710 C711 1.355 . S
C710 C712 1.415 1_455 S
C711 C710 1.355 . S
C711 C713 1.419 . S
C712 C710 1.415 1_655 S
C712 C717 1.425 1_655 S
C712 C719 1.409 . S
C713 H705 0.930 . S
C713 C711 1.419 . S
C713 C714 1.362 . S
C714 H706 0.930 . S
C714 C713 1.362 . S
C714 C717 1.409 . S
C715 H707 0.930 . S
C715 C716 1.355 . S
C715 C717 1.415 1_655 S
C716 C715 1.355 . S
C716 C718 1.419 . S
C717 C712 1.425 1_455 S
C717 C714 1.409 . S
C717 C715 1.415 1_455 S
C718 H708 0.930 . S
C718 C716 1.419 . S
C718 C719 1.362 . S
C719 H709 0.930 . S
C719 C712 1.409 . S
C719 C718 1.362 . S
H720 C726 0.930 . S
H721 C729 0.930 . S
H722 C730 0.930 . S
H723 C731 0.930 . S
H724 C734 0.930 . S
H725 C735 0.930 . S
C726 H720 0.930 . S
C726 C727 1.355 . S
C726 C728 1.415 . S
C727 C726 1.355 . S
C727 C729 1.419 . S
C728 C726 1.415 . S
C728 C733 1.425 1_554 S
C728 C735 1.409 . S
C729 H721 0.930 . S
C729 C727 1.419 . S
C729 C730 1.362 1_554 S
C730 H722 0.930 . S
C730 C729 1.362 1_556 S
C730 C733 1.409 . S
C731 H723 0.930 . S
C731 C732 1.355 . S
C731 C733 1.415 . S
C732 C731 1.355 . S
C732 C734 1.419 . S
C733 C728 1.425 1_556 S
C733 C730 1.409 . S
C733 C731 1.415 . S
C734 H724 0.930 . S
C734 C732 1.419 . S
C734 C735 1.362 1_556 S
C735 H725 0.930 . S
C735 C728 1.409 . S
C735 C734 1.362 1_554 S
H736 C742 0.930 . S
H737 C745 0.930 . S
H738 C746 0.930 . S
H739 C747 0.930 . S
H740 C750 0.930 . S
H741 C751 0.930 . S
C742 H736 0.930 . S
C742 C743 1.355 . S
C742 C744 1.415 . S
C743 C742 1.355 . S
C743 C745 1.419 . S
C744 C742 1.415 . S
C744 C749 1.425 . S
C744 C751 1.409 . S
C745 H737 0.930 . S
C745 C743 1.419 . S
C745 C746 1.362 . S
C746 H738 0.930 . S
C746 C745 1.362 . S
C746 C749 1.409 . S
C747 H739 0.930 . S
C747 C748 1.355 . S
C747 C749 1.415 . S
C748 C747 1.355 . S
C748 C750 1.419 . S
C749 C744 1.425 . S
C749 C746 1.409 . S
C749 C747 1.415 . S
C750 H740 0.930 . S
C750 C748 1.419 . S
C750 C751 1.362 . S
C751 H741 0.930 . S
C751 C744 1.409 . S
C751 C750 1.362 . S
H752 C758 0.930 . S
H753 C761 0.930 . S
H754 C762 0.930 . S
H755 C763 0.930 . S
H756 C766 0.930 . S
H757 C767 0.930 . S
C758 H752 0.930 . S
C758 C759 1.355 . S
C758 C760 1.415 . S
C759 C758 1.355 . S
C759 C761 1.419 . S
C760 C758 1.415 . S
C760 C765 1.425 . S
C760 C767 1.409 . S
C761 H753 0.930 . S
C761 C759 1.419 . S
C761 C762 1.362 . S
C762 H754 0.930 . S
C762 C761 1.362 . S
C762 C765 1.409 . S
C763 H755 0.930 . S
C763 C764 1.355 . S
C763 C765 1.415 . S
C764 C763 1.355 . S
C764 C766 1.419 . S
C765 C760 1.425 . S
C765 C762 1.409 . S
C765 C763 1.415 . S
C766 H756 0.930 . S
C766 C764 1.419 . S
C766 C767 1.362 . S
C767 H757 0.930 . S
C767 C760 1.409 . S
C767 C766 1.362 . S
H768 C774 0.930 . S
H769 C777 0.930 . S
H770 C778 0.930 . S
H771 C779 0.930 . S
H772 C782 0.930 . S
H773 C783 0.930 . S
C774 H768 0.930 . S
C774 C775 1.355 . S
C774 C776 1.415 . S
C775 C774 1.355 . S
C775 C777 1.419 . S
C776 C774 1.415 . S
C776 C781 1.425 . S
C776 C783 1.409 . S
C777 H769 0.930 . S
C777 C775 1.419 . S
C777 C778 1.362 . S
C778 H770 0.930 . S
C778 C777 1.362 . S
C778 C781 1.409 . S
C779 H771 0.930 . S
C779 C780 1.355 . S
C779 C781 1.415 . S
C780 C779 1.355 . S
C780 C782 1.419 . S
C781 C776 1.425 . S
C781 C778 1.409 . S
C781 C779 1.415 . S
C782 H772 0.930 . S
C782 C780 1.419 . S
C782 C783 1.362 . S
C783 H773 0.930 . S
C783 C776 1.409 . S
C783 C782 1.362 . S
H784 C790 0.930 . S
H785 C793 0.930 . S
H786 C794 0.930 . S
H787 C795 0.930 . S
H788 C798 0.930 . S
H789 C799 0.930 . S
C790 H784 0.930 . S
C790 C791 1.355 . S
C790 C792 1.415 . S
C791 C790 1.355 . S
C791 C793 1.419 . S
C792 C790 1.415 . S
C792 C797 1.425 . S
C792 C799 1.409 . S
C793 H785 0.930 . S
C793 C791 1.419 . S
C793 C794 1.362 . S
C794 H786 0.930 . S
C794 C793 1.362 . S
C794 C797 1.409 . S
C795 H787 0.930 . S
C795 C796 1.355 . S
C795 C797 1.415 . S
C796 C795 1.355 . S
C796 C798 1.419 . S
C797 C792 1.425 . S
C797 C794 1.409 . S
C797 C795 1.415 . S
C798 H788 0.930 . S
C798 C796 1.419 . S
C798 C799 1.362 . S
C799 H789 0.930 . S
C799 C792 1.409 . S
C799 C798 1.362 . S
H800 C806 0.930 . S
H801 C809 0.930 . S
H802 C810 0.930 . S
H803 C811 0.930 . S
H804 C814 0.930 . S
H805 C815 0.930 . S
C806 H800 0.930 . S
C806 C807 1.355 . S
C806 C808 1.415 . S
C807 C806 1.355 . S
C807 C809 1.419 . S
C808 C806 1.415 . S
C808 C813 1.425 . S
C808 C815 1.409 . S
C809 H801 0.930 . S
C809 C807 1.419 . S
C809 C810 1.362 . S
C810 H802 0.930 . S
C810 C809 1.362 . S
C810 C813 1.409 . S
C811 H803 0.930 . S
C811 C812 1.355 . S
C811 C813 1.415 . S
C812 C811 1.355 . S
C812 C814 1.419 . S
C813 C808 1.425 . S
C813 C810 1.409 . S
C813 C811 1.415 . S
C814 H804 0.930 . S
C814 C812 1.419 . S
C814 C815 1.362 . S
C815 H805 0.930 . S
C815 C808 1.409 . S
C815 C814 1.362 . S
H816 C822 0.930 . S
H817 C825 0.930 . S
H818 C826 0.930 . S
H819 C827 0.930 . S
H820 C830 0.930 . S
H821 C831 0.930 . S
C822 H816 0.930 . S
C822 C823 1.355 . S
C822 C824 1.415 . S
C823 C822 1.355 . S
C823 C825 1.419 . S
C824 C822 1.415 . S
C824 C829 1.425 . S
C824 C831 1.409 . S
C825 H817 0.930 . S
C825 C823 1.419 . S
C825 C826 1.362 . S
C826 H818 0.930 . S
C826 C825 1.362 . S
C826 C829 1.409 . S
C827 H819 0.930 . S
C827 C828 1.355 . S
C827 C829 1.415 . S
C828 C827 1.355 . S
C828 C830 1.419 . S
C829 C824 1.425 . S
C829 C826 1.409 . S
C829 C827 1.415 . S
C830 H820 0.930 . S
C830 C828 1.419 . S
C830 C831 1.362 . S
C831 H821 0.930 . S
C831 C824 1.409 . S
C831 C830 1.362 . S
H832 C838 0.930 . S
H833 C841 0.930 . S
H834 C842 0.930 . S
H835 C843 0.930 . S
H836 C846 0.930 . S
H837 C847 0.930 . S
C838 H832 0.930 . S
C838 C839 1.355 . S
C838 C840 1.415 . S
C839 C838 1.355 . S
C839 C841 1.419 . S
C840 C838 1.415 . S
C840 C845 1.425 . S
C840 C847 1.409 . S
C841 H833 0.930 . S
C841 C839 1.419 . S
C841 C842 1.362 . S
C842 H834 0.930 . S
C842 C841 1.362 . S
C842 C845 1.409 . S
C843 H835 0.930 . S
C843 C844 1.355 . S
C843 C845 1.415 . S
C844 C843 1.355 . S
C844 C846 1.419 . S
C845 C840 1.425 . S
C845 C842 1.409 . S
C845 C843 1.415 . S
C846 H836 0.930 . S
C846 C844 1.419 . S
C846 C847 1.362 . S
C847 H837 0.930 . S
C847 C840 1.409 . S
C847 C846 1.362 . S
H848 C854 0.930 . S
H849 C857 0.930 . S
H850 C858 0.930 . S
H851 C859 0.930 . S
H852 C862 0.924 1_455 S
H853 C863 0.930 . S
C854 H848 0.930 . S
C854 C855 1.355 . S
C854 C856 1.415 . S
C855 C854 1.355 . S
C855 C857 1.419 . S
C856 C854 1.415 . S
C856 C861 1.425 . S
C856 C863 1.409 . S
C857 H849 0.930 . S
C857 C855 1.419 . S
C857 C858 1.362 . S
C858 H850 0.930 . S
C858 C857 1.362 . S
C858 C861 1.409 . S
C859 H851 0.930 . S
C859 C860 1.355 . S
C859 C861 1.415 . S
C860 C859 1.355 . S
C860 C862 1.421 . S
C861 C856 1.425 . S
C861 C858 1.409 . S
C861 C859 1.415 . S
C862 H852 0.924 1_655 S
C862 C860 1.421 . S
C862 C863 1.367 . S
C863 H853 0.930 . S
C863 C856 1.409 . S
C863 C862 1.367 . S
H864 C870 0.930 . S
H865 C873 0.930 . S
H866 C874 0.930 . S
H867 C875 0.930 . S
H868 C878 0.930 . S
H869 C879 0.930 . S
C870 H864 0.930 . S
C870 C871 1.355 . S
C870 C872 1.415 . S
C871 C870 1.355 . S
C871 C873 1.419 . S
C872 C870 1.415 . S
C872 C877 1.425 . S
C872 C879 1.409 . S
C873 H865 0.930 . S
C873 C871 1.419 . S
C873 C874 1.362 . S
C874 H866 0.930 . S
C874 C873 1.362 . S
C874 C877 1.409 . S
C875 H867 0.930 . S
C875 C876 1.355 . S
C875 C877 1.415 . S
C876 C875 1.355 . S
C876 C878 1.419 . S
C877 C872 1.425 . S
C877 C874 1.409 . S
C877 C875 1.415 . S
C878 H868 0.930 . S
C878 C876 1.419 . S
C878 C879 1.362 . S
C879 H869 0.930 . S
C879 C872 1.409 . S
C879 C878 1.362 . S
H880 C886 0.930 . S
H881 C889 0.930 . S
H882 C890 0.930 . S
H883 C891 0.930 . S
H884 C894 0.930 . S
H885 C895 0.930 . S
C886 H880 0.930 . S
C886 C887 1.355 . S
C886 C888 1.415 . S
C887 C886 1.355 . S
C887 C889 1.419 . S
C888 C886 1.415 . S
C888 C893 1.425 . S
C888 C895 1.409 1_565 S
C889 H881 0.930 . S
C889 C887 1.419 . S
C889 C890 1.362 . S
C890 H882 0.930 . S
C890 C889 1.362 . S
C890 C893 1.409 . S
C891 H883 0.930 . S
C891 C892 1.355 1_565 S
C891 C893 1.415 . S
C892 C891 1.355 1_545 S
C892 C894 1.419 . S
C893 C888 1.425 . S
C893 C890 1.409 . S
C893 C891 1.415 . S
C894 H884 0.930 . S
C894 C892 1.419 . S
C894 C895 1.362 . S
C895 H885 0.930 . S
C895 C888 1.409 1_545 S
C895 C894 1.362 . S
H896 C902 0.930 . S
H897 C905 0.930 . S
H898 C906 0.930 . S
H899 C907 0.930 . S
H900 C910 0.930 . S
H901 C911 0.930 . S
C902 H896 0.930 . S
C902 C903 1.355 . S
C902 C904 1.415 . S
C903 C902 1.355 . S
C903 C905 1.419 . S
C904 C902 1.415 . S
C904 C909 1.425 . S
C904 C911 1.409 . S
C905 H897 0.930 . S
C905 C903 1.419 . S
C905 C906 1.362 . S
C906 H898 0.930 . S
C906 C905 1.362 . S
C906 C909 1.409 . S
C907 H899 0.930 . S
C907 C908 1.355 . S
C907 C909 1.415 . S
C908 C907 1.355 . S
C908 C910 1.419 . S
C909 C904 1.425 . S
C909 C906 1.409 . S
C909 C907 1.415 . S
C910 H900 0.930 . S
C910 C908 1.419 . S
C910 C911 1.362 . S
C911 H901 0.930 . S
C911 C904 1.409 . S
C911 C910 1.362 . S
H912 C918 0.930 . S
H913 C921 0.930 . S
H914 C922 0.930 . S
H915 C923 0.930 . S
H916 C926 0.930 . S
H917 C927 0.930 . S
C918 H912 0.930 . S
C918 C919 1.355 . S
C918 C920 1.415 . S
C919 C918 1.355 . S
C919 C921 1.419 . S
C920 C918 1.415 . S
C920 C925 1.425 . S
C920 C927 1.409 1_545 S
C921 H913 0.930 . S
C921 C919 1.419 . S
C921 C922 1.362 . S
C922 H914 0.930 . S
C922 C921 1.362 . S
C922 C925 1.409 . S
C923 H915 0.930 . S
C923 C924 1.355 1_545 S
C923 C925 1.415 . S
C924 C923 1.355 1_565 S
C924 C926 1.419 . S
C925 C920 1.425 . S
C925 C922 1.409 . S
C925 C923 1.415 . S
C926 H916 0.930 . S
C926 C924 1.419 . S
C926 C927 1.362 . S
C927 H917 0.930 . S
C927 C920 1.409 1_565 S
C927 C926 1.362 . S
H928 C934 0.930 . S
H929 C937 0.930 . S
H930 C938 0.930 . S
H931 C939 0.930 . S
H932 C942 0.930 . S
H933 C943 0.930 . S
C934 H928 0.930 . S
C934 C935 1.355 . S
C934 C936 1.415 . S
C935 C934 1.355 . S
C935 C937 1.419 . S
C936 C934 1.415 . S
C936 C941 1.425 . S
C936 C943 1.409 . S
C937 H929 0.930 . S
C937 C935 1.419 . S
C937 C938 1.362 . S
C938 H930 0.930 . S
C938 C937 1.362 . S
C938 C941 1.409 . S
C939 H931 0.930 . S
C939 C940 1.355 . S
C939 C941 1.415 . S
C940 C939 1.355 . S
C940 C942 1.419 . S
C941 C936 1.425 . S
C941 C938 1.409 . S
C941 C939 1.415 . S
C942 H932 0.930 . S
C942 C940 1.419 . S
C942 C943 1.362 . S
C943 H933 0.930 . S
C943 C936 1.409 . S
C943 C942 1.362 . S
H944 C950 0.930 . S
H945 C953 0.930 1_655 S
H946 C954 0.930 . S
H947 C955 0.930 . S
H948 C958 0.930 . S
H949 C959 0.930 . S
C950 H944 0.930 . S
C950 C951 1.355 . S
C950 C952 1.415 1_565 S
C951 C950 1.355 . S
C951 C953 1.419 1_565 S
C952 C950 1.415 1_545 S
C952 C957 1.425 . S
C952 C959 1.409 . S
C953 H945 0.930 1_455 S
C953 C951 1.419 1_545 S
C953 C954 1.362 . S
C954 H946 0.930 . S
C954 C953 1.362 . S
C954 C957 1.409 . S
C955 H947 0.930 . S
C955 C956 1.355 . S
C955 C957 1.415 . S
C956 C955 1.355 . S
C956 C958 1.419 . S
C957 C952 1.425 . S
C957 C954 1.409 . S
C957 C955 1.415 . S
C958 H948 0.930 . S
C958 C956 1.419 . S
C958 C959 1.362 . S
C959 H949 0.930 . S
C959 C952 1.409 . S
C959 C958 1.362 . S
H960 C966 0.930 . S
H961 C969 0.930 . S
H962 C970 0.930 . S
H963 C971 0.930 . S
H964 C974 0.930 . S
H965 C975 0.930 . S
C966 H960 0.930 . S
C966 C967 1.355 . S
C966 C968 1.415 . S
C967 C966 1.355 . S
C967 C969 1.419 . S
C968 C966 1.415 . S
C968 C973 1.425 . S
C968 C975 1.409 . S
C969 H961 0.930 . S
C969 C967 1.419 . S
C969 C970 1.362 . S
C970 H962 0.930 . S
C970 C969 1.362 . S
C970 C973 1.409 . S
C971 H963 0.930 . S
C971 C972 1.355 . S
C971 C973 1.415 . S
C972 C971 1.355 . S
C972 C974 1.419 . S
C973 C968 1.425 . S
C973 C970 1.409 . S
C973 C971 1.415 . S
C974 H964 0.930 . S
C974 C972 1.419 . S
C974 C975 1.362 . S
C975 H965 0.930 . S
C975 C968 1.409 . S
C975 C974 1.362 . S
H976 C982 0.930 1_545 S
H977 C985 0.930 . S
H978 C986 0.930 . S
H979 C987 0.930 . S
H980 C990 0.930 . S
H981 C991 0.930 . S
C982 H976 0.930 1_565 S
C982 C983 1.355 1_565 S
C982 C984 1.415 . S
C983 C982 1.355 1_545 S
C983 C985 1.419 1_545 S
C984 C982 1.415 . S
C984 C989 1.425 . S
C984 C991 1.409 . S
C985 H977 0.930 . S
C985 C983 1.419 1_565 S
C985 C986 1.362 . S
C986 H978 0.930 . S
C986 C985 1.362 . S
C986 C989 1.409 . S
C987 H979 0.930 . S
C987 C988 1.355 . S
C987 C989 1.415 . S
C988 C987 1.355 . S
C988 C990 1.419 . S
C989 C984 1.425 . S
C989 C986 1.409 . S
C989 C987 1.415 . S
C990 H980 0.930 . S
C990 C988 1.419 . S
C990 C991 1.362 . S
C991 H981 0.930 . S
C991 C984 1.409 . S
C991 C990 1.362 . S
H992 C998 0.930 . S
H993 C1001 0.930 1_554 S
H994 C1002 0.930 . S
H995 C1003 0.930 . S
H996 C1006 0.930 . S
H997 C1007 0.930 . S
C998 H992 0.930 . S
C998 C999 1.355 . S
C998 C1000 1.415 . S
C999 C998 1.355 . S
C999 C1001 1.419 . S
C1000 C998 1.415 . S
C1000 C1005 1.425 . S
C1000 C1007 1.409 . S
C1001 H993 0.930 1_556 S
C1001 C999 1.419 . S
C1001 C1002 1.362 . S
C1002 H994 0.930 . S
C1002 C1001 1.362 . S
C1002 C1005 1.409 . S
C1003 H995 0.930 . S
C1003 C1004 1.355 . S
C1003 C1005 1.415 . S
C1004 C1003 1.355 . S
C1004 C1006 1.419 . S
C1005 C1000 1.425 . S
C1005 C1002 1.409 . S
C1005 C1003 1.415 . S
C1006 H996 0.930 . S
C1006 C1004 1.419 . S
C1006 C1007 1.362 . S
C1007 H997 0.930 . S
C1007 C1000 1.409 . S
C1007 C1006 1.362 . S
H1008 C1014 0.930 . S
H1009 C1017 0.930 . S
H1010 C1018 0.930 . S
H1011 C1019 0.930 . S
H1012 C1022 0.930 . S
H1013 C1023 0.930 . S
C1014 H1008 0.930 . S
C1014 C1015 1.355 . S
C1014 C1016 1.415 . S
C1015 C1014 1.355 . S
C1015 C1017 1.419 . S
C1016 C1014 1.415 . S
C1016 C1021 1.425 . S
C1016 C1023 1.409 . S
C1017 H1009 0.930 . S
C1017 C1015 1.419 . S
C1017 C1018 1.362 . S
C1018 H1010 0.930 . S
C1018 C1017 1.362 . S
C1018 C1021 1.409 . S
C1019 H1011 0.930 . S
C1019 C1020 1.355 . S
C1019 C1021 1.415 . S
C1020 C1019 1.355 . S
C1020 C1022 1.419 . S
C1021 C1016 1.425 . S
C1021 C1018 1.409 . S
C1021 C1019 1.415 . S
C1022 H1012 0.930 . S
C1022 C1020 1.419 . S
C1022 C1023 1.362 . S
C1023 H1013 0.930 . S
C1023 C1016 1.409 . S
C1023 C1022 1.362 . S
H1024 C1030 0.930 . S
H1025 C1033 0.930 . S
H1026 C1034 0.930 . S
H1027 C1035 0.930 . S
H1028 C1038 0.930 . S
H1029 C1039 0.930 . S
C1030 H1024 0.930 . S
C1030 C1031 1.355 . S
C1030 C1032 1.415 . S
C1031 C1030 1.355 . S
C1031 C1033 1.419 . S
C1032 C1030 1.415 . S
C1032 C1037 1.425 . S
C1032 C1039 1.409 . S
C1033 H1025 0.930 . S
C1033 C1031 1.419 . S
C1033 C1034 1.362 . S
C1034 H1026 0.930 . S
C1034 C1033 1.362 . S
C1034 C1037 1.409 . S
C1035 H1027 0.930 . S
C1035 C1036 1.355 . S
C1035 C1037 1.415 . S
C1036 C1035 1.355 . S
C1036 C1038 1.419 . S
C1037 C1032 1.425 . S
C1037 C1034 1.409 . S
C1037 C1035 1.415 . S
C1038 H1028 0.930 . S
C1038 C1036 1.419 . S
C1038 C1039 1.362 . S
C1039 H1029 0.930 . S
C1039 C1032 1.409 . S
C1039 C1038 1.362 . S
H1040 C1046 0.930 . S
H1041 C1049 0.930 . S
H1042 C1050 0.930 . S
H1043 C1051 0.930 . S
H1044 C1054 0.930 . S
H1045 C1055 0.930 . S
C1046 H1040 0.930 . S
C1046 C1047 1.355 . S
C1046 C1048 1.415 . S
C1047 C1046 1.355 . S
C1047 C1049 1.419 . S
C1048 C1046 1.415 . S
C1048 C1053 1.425 . S
C1048 C1055 1.409 . S
C1049 H1041 0.930 . S
C1049 C1047 1.419 . S
C1049 C1050 1.362 . S
C1050 H1042 0.930 . S
C1050 C1049 1.362 . S
C1050 C1053 1.409 . S
C1051 H1043 0.930 . S
C1051 C1052 1.355 . S
C1051 C1053 1.415 . S
C1052 C1051 1.355 . S
C1052 C1054 1.419 . S
C1053 C1048 1.425 . S
C1053 C1050 1.409 . S
C1053 C1051 1.415 . S
C1054 H1044 0.930 . S
C1054 C1052 1.419 . S
C1054 C1055 1.362 . S
C1055 H1045 0.930 . S
C1055 C1048 1.409 . S
C1055 C1054 1.362 . S
H1056 C1062 0.930 . S
H1057 C1065 0.930 . S
H1058 C1066 0.930 . S
H1059 C1067 0.930 . S
H1060 C1070 0.930 . S
H1061 C1071 0.930 . S
C1062 H1056 0.930 . S
C1062 C1063 1.355 . S
C1062 C1064 1.415 . S
C1063 C1062 1.355 . S
C1063 C1065 1.419 . S
C1064 C1062 1.415 . S
C1064 C1069 1.425 . S
C1064 C1071 1.409 . S
C1065 H1057 0.930 . S
C1065 C1063 1.419 . S
C1065 C1066 1.362 . S
C1066 H1058 0.930 . S
C1066 C1065 1.362 . S
C1066 C1069 1.409 . S
C1067 H1059 0.930 . S
C1067 C1068 1.355 . S
C1067 C1069 1.415 . S
C1068 C1067 1.355 . S
C1068 C1070 1.419 . S
C1069 C1064 1.425 . S
C1069 C1066 1.409 . S
C1069 C1067 1.415 . S
C1070 H1060 0.930 . S
C1070 C1068 1.419 . S
C1070 C1071 1.362 . S
C1071 H1061 0.930 . S
C1071 C1064 1.409 . S
C1071 C1070 1.362 . S
H1072 C1078 0.930 . S
H1073 C1081 0.930 . S
H1074 C1082 0.930 . S
H1075 C1083 0.930 . S
H1076 C1086 0.930 . S
H1077 C1087 0.930 . S
C1078 H1072 0.930 . S
C1078 C1079 1.355 . S
C1078 C1080 1.415 . S
C1079 C1078 1.355 . S
C1079 C1081 1.419 . S
C1080 C1078 1.415 . S
C1080 C1085 1.425 . S
C1080 C1087 1.409 . S
C1081 H1073 0.930 . S
C1081 C1079 1.419 . S
C1081 C1082 1.362 . S
C1082 H1074 0.930 . S
C1082 C1081 1.362 . S
C1082 C1085 1.409 . S
C1083 H1075 0.930 . S
C1083 C1084 1.355 . S
C1083 C1085 1.415 . S
C1084 C1083 1.355 . S
C1084 C1086 1.419 . S
C1085 C1080 1.425 . S
C1085 C1082 1.409 . S
C1085 C1083 1.415 . S
C1086 H1076 0.930 . S
C1086 C1084 1.419 . S
C1086 C1087 1.362 . S
C1087 H1077 0.930 . S
C1087 C1080 1.409 . S
C1087 C1086 1.362 . S
H1088 C1094 0.930 . S
H1089 C1097 0.930 . S
H1090 C1098 0.930 . S
H1091 C1099 0.930 . S
H1092 C1102 0.930 . S
H1093 C1103 0.930 . S
C1094 H1088 0.930 . S
C1094 C1095 1.355 . S
C1094 C1096 1.415 . S
C1095 C1094 1.355 . S
C1095 C1097 1.419 . S
C1096 C1094 1.415 . S
C1096 C1101 1.425 . S
C1096 C1103 1.409 . S
C1097 H1089 0.930 . S
C1097 C1095 1.419 . S
C1097 C1098 1.362 . S
C1098 H1090 0.930 . S
C1098 C1097 1.362 . S
C1098 C1101 1.409 . S
C1099 H1091 0.930 . S
C1099 C1100 1.355 . S
C1099 C1101 1.415 . S
C1100 C1099 1.355 . S
C1100 C1102 1.419 . S
C1101 C1096 1.425 . S
C1101 C1098 1.409 . S
C1101 C1099 1.415 . S
C1102 H1092 0.930 . S
C1102 C1100 1.419 . S
C1102 C1103 1.362 . S
C1103 H1093 0.930 . S
C1103 C1096 1.409 . S
C1103 C1102 1.362 . S
H1104 C1110 0.930 . S
H1105 C1113 0.930 . S
H1106 C1114 0.930 1_655 S
H1107 C1115 0.930 1_655 S
H1108 C1118 0.930 . S
H1109 C1119 0.930 . S
C1110 H1104 0.930 . S
C1110 C1111 1.355 . S
C1110 C1112 1.415 . S
C1111 C1110 1.355 . S
C1111 C1113 1.419 . S
C1112 C1110 1.415 . S
C1112 C1117 1.425 . S
C1112 C1119 1.409 . S
C1113 H1105 0.930 . S
C1113 C1111 1.419 . S
C1113 C1114 1.362 . S
C1114 H1106 0.930 1_455 S
C1114 C1113 1.362 . S
C1114 C1117 1.409 . S
C1115 H1107 0.930 1_455 S
C1115 C1116 1.355 . S
C1115 C1117 1.415 . S
C1116 C1115 1.355 . S
C1116 C1118 1.419 . S
C1117 C1112 1.425 . S
C1117 C1114 1.409 . S
C1117 C1115 1.415 . S
C1118 H1108 0.930 . S
C1118 C1116 1.419 . S
C1118 C1119 1.362 . S
C1119 H1109 0.930 . S
C1119 C1112 1.409 . S
C1119 C1118 1.362 . S
H1120 C1126 0.930 . S
H1121 C1129 0.930 . S
H1122 C1130 0.930 . S
H1123 C1131 0.930 . S
H1124 C1134 0.930 . S
H1125 C1135 0.930 . S
C1126 H1120 0.930 . S
C1126 C1127 1.355 . S
C1126 C1128 1.415 . S
C1127 C1126 1.355 . S
C1127 C1129 1.419 . S
C1128 C1126 1.415 . S
C1128 C1133 1.425 . S
C1128 C1135 1.409 . S
C1129 H1121 0.930 . S
C1129 C1127 1.419 . S
C1129 C1130 1.362 . S
C1130 H1122 0.930 . S
C1130 C1129 1.362 . S
C1130 C1133 1.409 . S
C1131 H1123 0.930 . S
C1131 C1132 1.355 . S
C1131 C1133 1.415 . S
C1132 C1131 1.355 . S
C1132 C1134 1.419 . S
C1133 C1128 1.425 . S
C1133 C1130 1.409 . S
C1133 C1131 1.415 . S
C1134 H1124 0.930 . S
C1134 C1132 1.419 . S
C1134 C1135 1.362 . S
C1135 H1125 0.930 . S
C1135 C1128 1.409 . S
C1135 C1134 1.362 . S
H1136 C1142 0.930 . S
H1137 C1145 0.930 . S
H1138 C1146 0.930 1_545 S
H1139 C1147 0.930 1_545 S
H1140 C1150 0.930 . S
H1141 C1151 0.930 . S
C1142 H1136 0.930 . S
C1142 C1143 1.355 . S
C1142 C1144 1.415 . S
C1143 C1142 1.355 . S
C1143 C1145 1.419 . S
C1144 C1142 1.415 . S
C1144 C1149 1.425 . S
C1144 C1151 1.409 . S
C1145 H1137 0.930 . S
C1145 C1143 1.419 . S
C1145 C1146 1.362 . S
C1146 H1138 0.930 1_565 S
C1146 C1145 1.362 . S
C1146 C1149 1.409 . S
C1147 H1139 0.930 1_565 S
C1147 C1148 1.355 . S
C1147 C1149 1.415 . S
C1148 C1147 1.355 . S
C1148 C1150 1.419 . S
C1149 C1144 1.425 . S
C1149 C1146 1.409 . S
C1149 C1147 1.415 . S
C1150 H1140 0.930 . S
C1150 C1148 1.419 . S
C1150 C1151 1.362 . S
C1151 H1141 0.930 . S
C1151 C1144 1.409 . S
C1151 C1150 1.362 . S
H1152 C1158 0.930 . S
H1153 C1161 0.930 . S
H1154 C1162 0.930 . S
H1155 C1163 0.930 . S
H1156 C1166 0.937 . S
H1157 C1167 0.930 . S
C1158 H1152 0.930 . S
C1158 C1159 1.355 . S
C1158 C1160 1.415 . S
C1159 C1158 1.355 . S
C1159 C1161 1.419 . S
C1160 C1158 1.415 . S
C1160 C1165 1.425 . S
C1160 C1167 1.409 . S
C1161 H1153 0.930 . S
C1161 C1159 1.419 . S
C1161 C1162 1.362 . S
C1162 H1154 0.930 . S
C1162 C1161 1.362 . S
C1162 C1165 1.409 . S
C1163 H1155 0.930 . S
C1163 C1164 1.355 . S
C1163 C1165 1.415 1_554 S
C1164 C1163 1.355 . S
C1164 C1166 1.439 . S
C1165 C1160 1.425 . S
C1165 C1162 1.409 . S
C1165 C1163 1.415 1_556 S
C1166 H1156 0.937 . S
C1166 C1164 1.439 . S
C1166 C1167 1.336 1_554 S
C1167 H1157 0.930 . S
C1167 C1160 1.409 . S
C1167 C1166 1.336 1_556 S
H1168 C1174 0.930 . S
H1169 C1177 0.930 . S
H1170 C1178 0.930 . S
H1171 C1179 0.930 . S
H1172 C1182 0.930 . S
H1173 C1183 0.930 . S
C1174 H1168 0.930 . S
C1174 C1175 1.355 1_545 S
C1174 C1176 1.415 . S
C1175 C1174 1.355 1_565 S
C1175 C1177 1.419 . S
C1176 C1174 1.415 . S
C1176 C1181 1.425 . S
C1176 C1183 1.409 . S
C1177 H1169 0.930 . S
C1177 C1175 1.419 . S
C1177 C1178 1.362 . S
C1178 H1170 0.930 . S
C1178 C1177 1.362 . S
C1178 C1181 1.409 1_565 S
C1179 H1171 0.930 . S
C1179 C1180 1.355 . S
C1179 C1181 1.415 . S
C1180 C1179 1.355 . S
C1180 C1182 1.419 . S
C1181 C1176 1.425 . S
C1181 C1178 1.409 1_545 S
C1181 C1179 1.415 . S
C1182 H1172 0.930 . S
C1182 C1180 1.419 . S
C1182 C1183 1.362 . S
C1183 H1173 0.930 . S
C1183 C1176 1.409 . S
C1183 C1182 1.362 . S
H1184 C1190 0.930 . S
H1185 C1193 0.930 . S
H1186 C1194 0.930 . S
H1187 C1195 0.930 . S
H1188 C1198 0.930 . S
H1189 C1199 0.930 . S
C1190 H1184 0.930 . S
C1190 C1191 1.355 . S
C1190 C1192 1.415 . S
C1191 C1190 1.355 . S
C1191 C1193 1.419 . S
C1192 C1190 1.415 . S
C1192 C1197 1.425 . S
C1192 C1199 1.409 . S
C1193 H1185 0.930 . S
C1193 C1191 1.419 . S
C1193 C1194 1.362 . S
C1194 H1186 0.930 . S
C1194 C1193 1.362 . S
C1194 C1197 1.409 . S
C1195 H1187 0.930 . S
C1195 C1196 1.355 . S
C1195 C1197 1.415 . S
C1196 C1195 1.355 . S
C1196 C1198 1.419 . S
C1197 C1192 1.425 . S
C1197 C1194 1.409 . S
C1197 C1195 1.415 . S
C1198 H1188 0.930 . S
C1198 C1196 1.419 . S
C1198 C1199 1.362 . S
C1199 H1189 0.930 . S
C1199 C1192 1.409 . S
C1199 C1198 1.362 . S
H1200 C1206 0.930 . S
H1201 C1209 0.930 . S
H1202 C1210 0.930 . S
H1203 C1211 0.930 1_565 S
H1204 C1214 0.935 . S
H1205 C1215 0.930 . S
C1206 H1200 0.930 . S
C1206 C1207 1.355 . S
C1206 C1208 1.415 . S
C1207 C1206 1.355 . S
C1207 C1209 1.419 . S
C1208 C1206 1.415 . S
C1208 C1213 1.425 . S
C1208 C1215 1.409 . S
C1209 H1201 0.930 . S
C1209 C1207 1.419 . S
C1209 C1210 1.362 . S
C1210 H1202 0.930 . S
C1210 C1209 1.362 . S
C1210 C1213 1.409 . S
C1211 H1203 0.930 1_545 S
C1211 C1212 1.355 . S
C1211 C1213 1.415 . S
C1212 C1211 1.355 . S
C1212 C1214 1.419 . S
C1213 C1208 1.425 . S
C1213 C1210 1.409 . S
C1213 C1211 1.415 . S
C1214 H1204 0.935 . S
C1214 C1212 1.419 . S
C1214 C1215 1.362 . S
C1215 H1205 0.930 . S
C1215 C1208 1.409 . S
C1215 C1214 1.362 . S
H1216 C1222 0.930 . S
H1217 C1225 0.930 . S
H1218 C1226 0.930 . S
H1219 C1227 0.930 . S
H1220 C1230 0.930 . S
H1221 C1231 0.930 . S
C1222 H1216 0.930 . S
C1222 C1223 1.355 . S
C1222 C1224 1.415 . S
C1223 C1222 1.355 . S
C1223 C1225 1.419 . S
C1224 C1222 1.415 . S
C1224 C1229 1.425 . S
C1224 C1231 1.409 . S
C1225 H1217 0.930 . S
C1225 C1223 1.419 . S
C1225 C1226 1.362 . S
C1226 H1218 0.930 . S
C1226 C1225 1.362 . S
C1226 C1229 1.409 . S
C1227 H1219 0.930 . S
C1227 C1228 1.355 . S
C1227 C1229 1.415 1_556 S
C1228 C1227 1.355 . S
C1228 C1230 1.419 . S
C1229 C1224 1.425 . S
C1229 C1226 1.409 . S
C1229 C1227 1.415 1_554 S
C1230 H1220 0.930 . S
C1230 C1228 1.419 . S
C1230 C1231 1.362 1_556 S
C1231 H1221 0.930 . S
C1231 C1224 1.409 . S
C1231 C1230 1.362 1_554 S
H1232 C1238 0.930 . S
H1233 C1241 0.930 . S
H1234 C1242 0.930 . S
H1235 C1243 0.930 . S
H1236 C1246 0.930 . S
H1237 C1247 0.930 . S
C1238 H1232 0.930 . S
C1238 C1239 1.355 . S
C1238 C1240 1.415 . S
C1239 C1238 1.355 . S
C1239 C1241 1.419 . S
C1240 C1238 1.415 . S
C1240 C1245 1.425 . S
C1240 C1247 1.409 1_565 S
C1241 H1233 0.930 . S
C1241 C1239 1.419 . S
C1241 C1242 1.362 . S
C1242 H1234 0.930 . S
C1242 C1241 1.362 . S
C1242 C1245 1.409 . S
C1243 H1235 0.930 . S
C1243 C1244 1.355 1_565 S
C1243 C1245 1.415 . S
C1244 C1243 1.355 1_545 S
C1244 C1246 1.419 . S
C1245 C1240 1.425 . S
C1245 C1242 1.409 . S
C1245 C1243 1.415 . S
C1246 H1236 0.930 . S
C1246 C1244 1.419 . S
C1246 C1247 1.362 . S
C1247 H1237 0.930 . S
C1247 C1240 1.409 1_545 S
C1247 C1246 1.362 . S
C487 C10 0.353 . S
C492 C301 0.537 . S
C503 C40 0.281 . S
C508 C340 0.332 . S
C519 C61 0.287 . S
C524 C250 0.204 . S
C535 C280 0.356 . S
C540 C100 0.340 . S
C551 C121 0.173 . S
C556 C430 0.296 . S
C567 C451 0.300 . S
C572 C151 0.366 . S
C583 C361 0.318 . S
C588 C190 0.520 . S
C599 C211 0.294 . S
C604 C391 0.310 . S
C615 C16 2.466 . S
C620 C147 2.466 . S
C631 C46 2.185 . S
C636 C417 2.185 . S
C647 N74 1.845 1_545 S
C652 N186 1.845 1_565 S
C663 C106 2.669 . S
C668 C477 2.669 . S
C679 C177 2.198 . S
C684 C286 2.198 . S
C695 C346 2.667 . S
C700 C237 2.667 . S
C711 C387 2.500 . S
C716 C256 2.500 . S
C727 N314 1.819 . S
C732 N426 1.819 . S
C743 C27 1.944 . S
C748 C220 1.926 . S
C759 C57 1.799 . S
C764 C370 1.733 . S
C775 N66 1.313 . S
C780 C160 1.237 . S
C791 C117 1.751 1_455 S
C796 C421 1.712 . S
C807 C91 1.943 . S
C812 C136 1.928 . S
C823 C166 1.796 . S
C828 C241 1.738 . S
C839 N194 1.270 . S
C844 C31 1.311 . S
C855 C310 1.707 . S
C860 C226 1.757 1_655 S
C871 C267 1.928 . S
C876 C460 1.936 1_565 S
C887 C130 1.723 . S
C892 C297 1.795 1_655 S
C903 C400 1.238 1_545 S
C908 N306 1.286 . S
C919 C181 1.701 . S
C924 C357 1.755 . S
C935 C376 1.939 . S
C940 C331 1.923 1_545 S
C951 C406 1.799 1_455 S
C956 C1 1.735 . S
C967 C271 1.248 1_565 S
C972 N434 1.274 . S
C983 C466 1.754 . S
C988 C70 1.727 . S
C999 N6 1.173 . S
C1004 N284 1.287 . S
C1015 C316 1.595 . S
C1020 N36 1.463 . S
C1031 C87 1.499 . S
C1036 N344 1.492 . S
C1047 N254 1.340 . S
C1052 N96 1.276 . S
C1063 N396 1.304 . S
C1068 N134 1.203 . S
C1079 C447 1.595 . S
C1084 N164 1.415 . S
C1095 N456 1.510 . S
C1100 C196 1.514 . S
C1111 N366 1.256 . S
C1116 N224 1.170 . S
C1127 N44 1.289 . S
C1132 N246 1.177 . S
C1143 C76 1.572 . S
C1148 N276 1.407 1_565 S
C1159 N104 1.517 . S
C1164 C327 1.513 . S
C1175 N336 1.213 . S
C1180 N14 1.285 . S
C1191 N156 1.347 . S
C1196 N374 1.270 . S
C1207 C207 1.589 . S
C1212 N404 1.452 1_545 S
C1223 N216 1.502 . S
C1228 C436 1.494 . S
C1239 N126 1.327 . S
C1244 N464 1.265 . S
