# Generated by pormake.
# Topology srs, (3)-cn, num edge types: 1
# Building blocks:
#     Node 0, Type 0, BuildingBlock: WUSLED_clean_sbu_0, # of connection points: 3
#     Node 1, Type 0, BuildingBlock: WUSLED_clean_sbu_0, # of connection points: 3
#     Node 2, Type 0, BuildingBlock: WUSLED_clean_sbu_0, # of connection points: 3
#     Node 3, Type 0, BuildingBlock: WUSLED_clean_sbu_0, # of connection points: 3
#     Node 4, Type 0, BuildingBlock: WUSLED_clean_sbu_0, # of connection points: 3
#     Node 5, Type 0, BuildingBlock: WUSLED_clean_sbu_0, # of connection points: 3
#     Node 6, Type 0, BuildingBlock: WUSLED_clean_sbu_0, # of connection points: 3
#     Node 7, Type 0, BuildingBlock: WUSLED_clean_sbu_0, # of connection points: 3
#     Edge 8, Type (0, 0), BuildingBlock: FUNLAD_clean_linker_0, # of connection points: 2
#     Edge 9, Type (0, 0), BuildingBlock: FUNLAD_clean_linker_0, # of connection points: 2
#     Edge 10, Type (0, 0), BuildingBlock: FUNLAD_clean_linker_0, # of connection points: 2
#     Edge 11, Type (0, 0), BuildingBlock: FUNLAD_clean_linker_0, # of connection points: 2
#     Edge 12, Type (0, 0), BuildingBlock: FUNLAD_clean_linker_0, # of connection points: 2
#     Edge 13, Type (0, 0), BuildingBlock: FUNLAD_clean_linker_0, # of connection points: 2
#     Edge 14, Type (0, 0), BuildingBlock: FUNLAD_clean_linker_0, # of connection points: 2
#     Edge 15, Type (0, 0), BuildingBlock: FUNLAD_clean_linker_0, # of connection points: 2
#     Edge 16, Type (0, 0), BuildingBlock: FUNLAD_clean_linker_0, # of connection points: 2
#     Edge 17, Type (0, 0), BuildingBlock: FUNLAD_clean_linker_0, # of connection points: 2
#     Edge 18, Type (0, 0), BuildingBlock: FUNLAD_clean_linker_0, # of connection points: 2
#     Edge 19, Type (0, 0), BuildingBlock: FUNLAD_clean_linker_0, # of connection points: 2
# Relax obj value: 0.000
# Max RMSD: 0.008
# Mean RMSD: 0.008
data_MOF--net-srs--node1-WUSLED_clean_sbu_0--edge1-FUNLAD_clean_linker_0
_symmetry_space_group_name_H-M    P1
_symmetry_Int_Tables_number       1
_symmetry_cell_setting            triclinic
loop_
_symmetry_equiv_pos_as_xyz
'x, y, z'
_cell_length_a     71.83417
_cell_length_b     72.259793
_cell_length_c     72.234332
_cell_angle_alpha  90.135655
_cell_angle_beta   89.936232
_cell_angle_gamma 90.091774
loop_
_atom_site_label
_atom_site_type_symbol
_atom_site_fract_x
_atom_site_fract_y
_atom_site_fract_z
_atom_type_partial_charge
C0 C 0.12737 0.10923 0.1825 0.0
C1 C 0.14523 0.10476 0.18904 0.0
C2 C 0.1324 0.07943 0.20743 0.0
C3 C 0.14771 0.09005 0.20143 0.0
C4 C 0.11461 0.08378 0.20058 0.0
C5 C 0.11214 0.09853 0.18831 0.0
U6 U 0.13852 0.14051 0.14054 0.0
O7 O 0.11933 0.15382 0.12099 0.0
O8 O 0.13751 0.17094 0.13844 0.0
C9 C 0.12378 0.17063 0.12643 0.0
C10 C 0.12404 0.12534 0.17032 0.0
C11 C 0.10817 0.18343 0.1301 0.0
C12 C 0.07633 0.18966 0.13991 0.0
C13 C 0.09119 0.17729 0.13756 0.0
C14 C 0.09538 0.21449 0.12776 0.0
C15 C 0.07821 0.20842 0.13494 0.0
C16 C 0.11016 0.20213 0.12535 0.0
C17 C 0.17995 0.1288 0.10831 0.0
C18 C 0.20158 0.14798 0.09073 0.0
C19 C 0.1951 0.11667 0.08065 0.0
C20 C 0.18294 0.11436 0.09562 0.0
C21 C 0.2047 0.13345 0.07809 0.0
C22 C 0.18929 0.14571 0.10565 0.0
C23 C 0.16775 0.12549 0.12455 0.0
O24 O 0.13644 0.13874 0.17086 0.0
O25 O 0.1182 0.1216 0.15348 0.0
O26 O 0.15057 0.12038 0.12092 0.0
O27 O 0.16891 0.13735 0.13835 0.0
H28 H 0.15726 0.11273 0.18474 0.0
H29 H 0.16163 0.08695 0.20624 0.0
H30 H 0.10249 0.07606 0.20506 0.0
H31 H 0.09823 0.10175 0.18354 0.0
H32 H 0.0634 0.18454 0.14569 0.0
H33 H 0.08934 0.16292 0.14141 0.0
H34 H 0.09729 0.22875 0.12355 0.0
H35 H 0.12311 0.20714 0.11951 0.0
H36 H 0.20857 0.16116 0.08903 0.0
H37 H 0.19733 0.10512 0.07133 0.0
H38 H 0.17602 0.10115 0.09743 0.0
H39 H 0.18726 0.15714 0.11516 0.0
C40 C 0.1294 0.92004 0.34708 0.0
C41 C 0.13088 0.93864 0.35269 0.0
C42 C 0.1316 0.94871 0.32042 0.0
C43 C 0.132 0.95282 0.33949 0.0
C44 C 0.13072 0.93003 0.31493 0.0
C45 C 0.12958 0.91591 0.32809 0.0
U46 U 0.14117 0.89038 0.39035 0.0
O47 O 0.122 0.87811 0.41076 0.0
O48 O 0.13938 0.86014 0.39343 0.0
C49 C 0.12593 0.86106 0.40574 0.0
C50 C 0.12628 0.90481 0.36045 0.0
C51 C 0.10984 0.84882 0.40243 0.0
C52 C 0.08387 0.83833 0.38349 0.0
C53 C 0.09891 0.85039 0.38642 0.0
C54 C 0.09046 0.82316 0.4126 0.0
C55 C 0.07947 0.82453 0.39655 0.0
C56 C 0.10548 0.83517 0.41549 0.0
C57 C 0.18431 0.90119 0.42065 0.0
C58 C 0.19814 0.91153 0.44973 0.0
C59 C 0.20989 0.88402 0.43462 0.0
C60 C 0.19678 0.88618 0.42046 0.0
C61 C 0.21089 0.89677 0.44934 0.0
C62 C 0.18509 0.91376 0.43552 0.0
C63 C 0.1715 0.90474 0.4049 0.0
O64 O 0.1383 0.89112 0.35998 0.0
O65 O 0.12119 0.90938 0.37735 0.0
O66 O 0.15464 0.91049 0.40909 0.0
O67 O 0.17168 0.89271 0.39121 0.0
H68 H 0.13075 0.9423 0.36724 0.0
H69 H 0.13251 0.96704 0.34424 0.0
H70 H 0.13073 0.92629 0.30041 0.0
H71 H 0.12845 0.9017 0.32339 0.0
H72 H 0.0756 0.83993 0.37108 0.0
H73 H 0.10204 0.8609 0.3762 0.0
H74 H 0.08769 0.81256 0.42282 0.0
H75 H 0.11379 0.83372 0.42791 0.0
H76 H 0.19865 0.92174 0.46073 0.0
H77 H 0.21935 0.87237 0.43398 0.0
H78 H 0.19667 0.87624 0.40921 0.0
H79 H 0.17584 0.92558 0.43595 0.0
C80 C 0.3797 0.93396 0.66991 0.0
C81 C 0.38251 0.92855 0.68839 0.0
C82 C 0.38239 0.96089 0.69838 0.0
C83 C 0.38385 0.94189 0.70248 0.0
C84 C 0.38022 0.96619 0.67977 0.0
C85 C 0.37885 0.95288 0.66575 0.0
U86 U 0.3904 0.88966 0.64126 0.0
O87 O 0.37063 0.86929 0.62975 0.0
O88 O 0.38844 0.88553 0.61115 0.0
C89 C 0.37449 0.87379 0.61255 0.0
C90 C 0.37629 0.92036 0.65491 0.0
C91 C 0.3583 0.87698 0.6003 0.0
C92 C 0.33926 0.89694 0.58088 0.0
C93 C 0.35419 0.89458 0.59314 0.0
C94 C 0.33209 0.86428 0.5831 0.0
C95 C 0.32807 0.8818 0.57565 0.0
C96 C 0.34706 0.86191 0.59524 0.0
C97 C 0.43236 0.85877 0.65305 0.0
C98 C 0.44408 0.834 0.63337 0.0
C99 C 0.45693 0.83847 0.66404 0.0
C100 C 0.44484 0.85338 0.66691 0.0
C101 C 0.45681 0.82864 0.64719 0.0
C102 C 0.43194 0.84891 0.63629 0.0
C103 C 0.42027 0.87495 0.65623 0.0
O104 O 0.38841 0.92013 0.64127 0.0
O105 O 0.37071 0.90374 0.65986 0.0
O106 O 0.40328 0.87135 0.66197 0.0
O107 O 0.42087 0.88788 0.64348 0.0
H108 H 0.38322 0.91404 0.69204 0.0
H109 H 0.38539 0.93729 0.71665 0.0
H110 H 0.37939 0.98067 0.67603 0.0
H111 H 0.37671 0.9574 0.65161 0.0
H112 H 0.33641 0.91066 0.57558 0.0
H113 H 0.36256 0.90649 0.5969 0.0
H114 H 0.3239 0.85229 0.57923 0.0
H115 H 0.35001 0.84821 0.60053 0.0
H116 H 0.44343 0.82661 0.62033 0.0
H117 H 0.46667 0.83492 0.67489 0.0
H118 H 0.4454 0.86085 0.67992 0.0
H119 H 0.42233 0.85281 0.62544 0.0
C120 C 0.37918 0.09919 0.85911 0.0
C121 C 0.39713 0.09317 0.85421 0.0
C122 C 0.38428 0.07436 0.82913 0.0
C123 C 0.39964 0.08083 0.8394 0.0
C124 C 0.3664 0.08068 0.83395 0.0
C125 C 0.3639 0.09291 0.84878 0.0
U126 U 0.39044 0.14106 0.89065 0.0
O127 O 0.37104 0.16064 0.90398 0.0
O128 O 0.38933 0.14334 0.92099 0.0
C129 C 0.37537 0.15509 0.92076 0.0
C130 C 0.37585 0.11139 0.87526 0.0
C131 C 0.35957 0.15136 0.93349 0.0
C132 C 0.33174 0.1626 0.94923 0.0
C133 C 0.34598 0.16506 0.9362 0.0
C134 C 0.34426 0.13255 0.95701 0.0
C135 C 0.33084 0.14642 0.95999 0.0
C136 C 0.35844 0.13496 0.9439 0.0
C137 C 0.43228 0.17268 0.87947 0.0
C138 C 0.44775 0.19394 0.90066 0.0
C139 C 0.45416 0.19559 0.86779 0.0
C140 C 0.44172 0.181 0.86466 0.0
C141 C 0.45748 0.20216 0.88585 0.0
C142 C 0.43523 0.17937 0.8975 0.0
C143 C 0.41993 0.15674 0.87577 0.0
O144 O 0.38816 0.11076 0.88871 0.0
O145 O 0.37019 0.12827 0.87155 0.0
O146 O 0.40281 0.16072 0.87079 0.0
O147 O 0.42084 0.14297 0.88761 0.0
H148 H 0.40919 0.09787 0.86189 0.0
H149 H 0.41362 0.07643 0.83593 0.0
H150 H 0.35424 0.07583 0.82652 0.0
H151 H 0.34993 0.09729 0.85236 0.0
H152 H 0.32179 0.17366 0.95129 0.0
H153 H 0.3466 0.1779 0.92851 0.0
H154 H 0.34385 0.11982 0.9649 0.0
H155 H 0.36867 0.1241 0.94217 0.0
H156 H 0.44978 0.1988 0.91471 0.0
H157 H 0.46153 0.20142 0.85608 0.0
H158 H 0.43966 0.17602 0.85065 0.0
H159 H 0.428 0.17323 0.90914 0.0
C160 C 0.62408 0.42388 0.85076 0.0
C161 C 0.64143 0.43224 0.8474 0.0
C162 C 0.62678 0.45486 0.82699 0.0
C163 C 0.64277 0.44756 0.83556 0.0
C164 C 0.60947 0.44642 0.83053 0.0
C165 C 0.60816 0.43112 0.84227 0.0
U166 U 0.63962 0.39189 0.89063 0.0
O167 O 0.62237 0.37784 0.91155 0.0
O168 O 0.63897 0.36147 0.89202 0.0
C169 C 0.6264 0.36125 0.90524 0.0
C170 C 0.62214 0.4075 0.86278 0.0
C171 C 0.61043 0.34876 0.90226 0.0
C172 C 0.58258 0.33964 0.88539 0.0
C173 C 0.59757 0.35183 0.888 0.0
C174 C 0.59314 0.32128 0.91133 0.0
C175 C 0.58017 0.32419 0.89705 0.0
C176 C 0.6081 0.33344 0.91389 0.0
C177 C 0.68414 0.40301 0.91856 0.0
C178 C 0.69242 0.39412 0.95002 0.0
C179 C 0.71648 0.40353 0.92851 0.0
C180 C 0.70301 0.40628 0.91483 0.0
C181 C 0.71137 0.39749 0.94631 0.0
C182 C 0.67893 0.39679 0.93625 0.0
C183 C 0.67027 0.40676 0.90391 0.0
O184 O 0.63471 0.39444 0.86069 0.0
O185 O 0.61803 0.41083 0.8802 0.0
O186 O 0.65349 0.41156 0.9094 0.0
O187 O 0.67014 0.39517 0.88986 0.0
H188 H 0.6539 0.42691 0.85389 0.0
H189 H 0.65629 0.45383 0.83331 0.0
H190 H 0.59691 0.45148 0.82399 0.0
H191 H 0.59466 0.42483 0.84463 0.0
H192 H 0.57276 0.34243 0.87439 0.0
H193 H 0.59913 0.36363 0.8789 0.0
H194 H 0.59192 0.30942 0.92039 0.0
H195 H 0.61794 0.33081 0.92494 0.0
H196 H 0.68803 0.38928 0.96351 0.0
H197 H 0.7309 0.40649 0.92523 0.0
H198 H 0.70735 0.41117 0.90132 0.0
H199 H 0.66445 0.39407 0.93947 0.0
C200 C 0.87459 0.43212 0.17226 0.0
C201 C 0.89016 0.44381 0.17421 0.0
C202 C 0.87646 0.45816 0.20167 0.0
C203 C 0.89109 0.45666 0.18876 0.0
C204 C 0.86114 0.44612 0.19992 0.0
C205 C 0.8602 0.43333 0.18537 0.0
U206 U 0.88779 0.38999 0.14154 0.0
O207 O 0.86938 0.37007 0.12751 0.0
O208 O 0.888 0.38767 0.11109 0.0
C209 C 0.87438 0.37551 0.11087 0.0
C210 C 0.87232 0.41965 0.15602 0.0
C211 C 0.8591 0.37921 0.09776 0.0
C212 C 0.82889 0.39245 0.0903 0.0
C213 C 0.84347 0.38969 0.10289 0.0
C214 C 0.84555 0.37457 0.06726 0.0
C215 C 0.82972 0.38487 0.07232 0.0
C216 C 0.86005 0.37177 0.07985 0.0
C217 C 0.92932 0.35883 0.15565 0.0
C218 C 0.95058 0.34011 0.13715 0.0
C219 C 0.9474 0.33429 0.16998 0.0
C220 C 0.93428 0.34851 0.1713 0.0
C221 C 0.95597 0.33007 0.15296 0.0
C222 C 0.93739 0.35435 0.13847 0.0
C223 C 0.91655 0.37473 0.15798 0.0
O224 O 0.88526 0.42029 0.14314 0.0
O225 O 0.86651 0.40275 0.15948 0.0
O226 O 0.89922 0.37073 0.16224 0.0
O227 O 0.91803 0.38828 0.14594 0.0
H228 H 0.90146 0.44336 0.16429 0.0
H229 H 0.90301 0.46582 0.18952 0.0
H230 H 0.84976 0.44664 0.20975 0.0
H231 H 0.84799 0.42459 0.18419 0.0
H232 H 0.81703 0.40065 0.0946 0.0
H233 H 0.84251 0.39565 0.11663 0.0
H234 H 0.84658 0.36832 0.05365 0.0
H235 H 0.87197 0.3636 0.07565 0.0
H236 H 0.95697 0.33735 0.12384 0.0
H237 H 0.95091 0.32666 0.18238 0.0
H238 H 0.92821 0.35167 0.18468 0.0
H239 H 0.93379 0.36208 0.12616 0.0
C240 C 0.87921 0.59861 0.36012 0.0
C241 C 0.88241 0.60484 0.34196 0.0
C242 C 0.88404 0.57295 0.33078 0.0
C243 C 0.88475 0.59213 0.32744 0.0
C244 C 0.88115 0.56682 0.34904 0.0
C245 C 0.87872 0.57951 0.3635 0.0
U246 U 0.88977 0.64196 0.38988 0.0
O247 O 0.87028 0.66195 0.40234 0.0
O248 O 0.88834 0.64524 0.42014 0.0
C249 C 0.87459 0.65719 0.41936 0.0
C250 C 0.87555 0.61156 0.37562 0.0
C251 C 0.85875 0.65362 0.43185 0.0
C252 C 0.83361 0.63401 0.44308 0.0
C253 C 0.84845 0.63713 0.43083 0.0
C254 C 0.83917 0.66387 0.45735 0.0
C255 C 0.8288 0.64735 0.45653 0.0
C256 C 0.85398 0.66695 0.44514 0.0
C257 C 0.93159 0.67324 0.37817 0.0
C258 C 0.94481 0.69655 0.39869 0.0
C259 C 0.95513 0.69463 0.36682 0.0
C260 C 0.94288 0.67985 0.36379 0.0
C261 C 0.95638 0.7031 0.38435 0.0
C262 C 0.9325 0.68179 0.39562 0.0
C263 C 0.9194 0.65714 0.37476 0.0
O264 O 0.88777 0.61151 0.38916 0.0
O265 O 0.86978 0.62826 0.37128 0.0
O266 O 0.90233 0.66087 0.36943 0.0
O267 O 0.92019 0.64383 0.38712 0.0
H268 H 0.88295 0.61951 0.33893 0.0
H269 H 0.88717 0.59734 0.31359 0.0
H270 H 0.8803 0.55218 0.3521 0.0
H271 H 0.87617 0.57436 0.37735 0.0
H272 H 0.82581 0.62122 0.44191 0.0
H273 H 0.85189 0.6267 0.4206 0.0
H274 H 0.83606 0.67433 0.46765 0.0
H275 H 0.86182 0.67974 0.44617 0.0
H276 H 0.94522 0.70289 0.41228 0.0
H277 H 0.96396 0.69912 0.35552 0.0
H278 H 0.94241 0.67341 0.35024 0.0
H279 H 0.92381 0.67695 0.40689 0.0
C280 C 0.6291 0.60891 0.68227 0.0
C281 C 0.62426 0.59067 0.67733 0.0
C282 C 0.63353 0.57942 0.70781 0.0
C283 C 0.62649 0.57613 0.68992 0.0
C284 C 0.63859 0.59763 0.71263 0.0
C285 C 0.63633 0.61217 0.70006 0.0
U286 U 0.63959 0.63961 0.63959 0.0
O287 O 0.62014 0.65227 0.61976 0.0
O288 O 0.63815 0.6699 0.63685 0.0
C289 C 0.62444 0.66922 0.62482 0.0
C290 C 0.6254 0.62475 0.66968 0.0
C291 C 0.60861 0.68168 0.62845 0.0
C292 C 0.58422 0.69371 0.64854 0.0
C293 C 0.599 0.68142 0.64538 0.0
C294 C 0.5884 0.70644 0.61783 0.0
C295 C 0.57876 0.70641 0.6348 0.0
C296 C 0.60316 0.69421 0.61471 0.0
C297 C 0.68143 0.62815 0.60817 0.0
C298 C 0.69414 0.64853 0.58453 0.0
C299 C 0.70545 0.61709 0.58715 0.0
C300 C 0.69322 0.61402 0.60192 0.0
C301 C 0.70618 0.63443 0.57832 0.0
C302 C 0.68185 0.64541 0.5993 0.0
C303 C 0.66919 0.62467 0.6242 0.0
O304 O 0.63754 0.63839 0.67001 0.0
O305 O 0.61952 0.62082 0.65289 0.0
O306 O 0.65211 0.6194 0.62036 0.0
O307 O 0.67002 0.63693 0.63765 0.0
H308 H 0.61842 0.58763 0.66384 0.0
H309 H 0.62218 0.56236 0.68577 0.0
H310 H 0.6443 0.60069 0.72616 0.0
H311 H 0.64001 0.62607 0.70438 0.0
H312 H 0.57698 0.69315 0.66169 0.0
H313 H 0.60295 0.67178 0.65613 0.0
H314 H 0.58478 0.71616 0.60704 0.0
H315 H 0.61044 0.69464 0.60157 0.0
H316 H 0.69415 0.66196 0.57792 0.0
H317 H 0.71465 0.606 0.58293 0.0
H318 H 0.69313 0.60062 0.60862 0.0
H319 H 0.67278 0.65648 0.60387 0.0
C320 C 0.14217 0.97982 0.30825 0.0
C321 C 0.13124 0.96376 0.30627 0.0
C322 C 0.14149 0.99396 0.29498 0.0
C323 C 0.12981 0.99235 0.27937 0.0
C324 C 0.11884 0.97635 0.27753 0.0
C325 C 0.11956 0.96225 0.29073 0.0
C326 C 0.12798 1.00711 0.26502 0.0
C327 C 0.14047 0.02082 0.26216 0.0
C328 C 0.1383 0.03545 0.24769 0.0
C329 C 0.14845 0.05201 0.24947 0.0
C330 C 0.14673 0.06616 0.23636 0.0
C331 C 0.13483 0.0641 0.22104 0.0
H332 H 0.1192 0.02048 0.22963 0.0
C333 C 0.12498 0.04738 0.219 0.0
C334 C 0.12674 0.03321 0.23207 0.0
H335 H 0.11602 0.04515 0.20716 0.0
H336 H 0.15134 0.98145 0.32004 0.0
H337 H 0.14987 1.00619 0.29726 0.0
H338 H 0.10957 0.97472 0.26581 0.0
H339 H 0.11066 0.95028 0.28888 0.0
H340 H 0.11567 1.00639 0.25637 0.0
H341 H 0.15272 0.02171 0.27088 0.0
H342 H 0.15758 0.05413 0.26121 0.0
H343 H 0.15443 0.07889 0.23846 0.0
C344 C 0.22165 0.89846 0.48257 0.0
C345 C 0.22563 0.89511 0.46378 0.0
C346 C 0.23568 0.8973 0.496 0.0
C347 C 0.25407 0.89279 0.49093 0.0
C348 C 0.25802 0.88958 0.47215 0.0
C349 C 0.244 0.89061 0.45877 0.0
C350 C 0.26965 0.89198 0.50457 0.0
C351 C 0.26733 0.88877 0.52284 0.0
C352 C 0.2831 0.88743 0.53621 0.0
C353 C 0.28078 0.87693 0.55239 0.0
C354 C 0.29528 0.87517 0.56519 0.0
C355 C 0.31244 0.88411 0.56227 0.0
H356 H 0.30237 0.90533 0.52142 0.0
C357 C 0.31464 0.89501 0.5463 0.0
C358 C 0.30017 0.89666 0.53341 0.0
H359 H 0.32768 0.90205 0.54359 0.0
H360 H 0.20765 0.90193 0.48692 0.0
H361 H 0.23209 0.90034 0.51023 0.0
H362 H 0.27206 0.88626 0.46776 0.0
H363 H 0.24765 0.88826 0.4444 0.0
H364 H 0.28368 0.89313 0.49907 0.0
H365 H 0.25347 0.88591 0.52813 0.0
H366 H 0.26774 0.86986 0.55505 0.0
H367 H 0.293 0.8669 0.57747 0.0
C368 C 0.39407 0.97373 0.72886 0.0
C369 C 0.38222 0.97511 0.71343 0.0
C370 C 0.39355 0.98704 0.74304 0.0
C371 C 0.38112 1.00209 0.74209 0.0
C372 C 0.36925 1.00334 0.72671 0.0
C373 C 0.36981 0.99011 0.71257 0.0
C374 C 0.37942 0.01644 0.75694 0.0
C375 C 0.39234 0.0198 0.77012 0.0
C376 C 0.39021 0.03425 0.78484 0.0
C377 C 0.40085 0.03279 0.8011 0.0
C378 C 0.39912 0.04587 0.81535 0.0
C379 C 0.38675 0.06084 0.81367 0.0
H380 H 0.37027 0.05173 0.77045 0.0
C381 C 0.37644 0.06257 0.79722 0.0
C382 C 0.37819 0.04953 0.78296 0.0
H383 H 0.3671 0.07416 0.79528 0.0
H384 H 0.40384 0.96238 0.72997 0.0
H385 H 0.40268 0.9852 0.75478 0.0
H386 H 0.35939 1.01463 0.7256 0.0
H387 H 0.3602 0.99148 0.70112 0.0
H388 H 0.36678 0.02463 0.7568 0.0
H389 H 0.40491 1.01152 0.7705 0.0
H390 H 0.41034 0.0213 0.80293 0.0
H391 H 0.4072 0.04401 0.82785 0.0
C392 C 0.23549 0.14423 0.06523 0.0
C393 C 0.21814 0.1356 0.06247 0.0
C394 C 0.24835 0.14571 0.05071 0.0
C395 C 0.24415 0.13858 0.03302 0.0
C396 C 0.22665 0.13035 0.03019 0.0
C397 C 0.21386 0.12875 0.04473 0.0
C398 C 0.2574 0.13992 0.01714 0.0
C399 C 0.27606 0.14074 0.01919 0.0
C400 C 0.28951 0.14172 1.00343 0.0
C401 C 0.30798 0.13609 1.00637 0.0
C402 C 0.32124 0.1373 0.99221 0.0
C403 C 0.31643 0.14438 0.97475 0.0
H404 H 0.2707 0.15368 0.98316 0.0
C405 C 0.29794 0.15007 0.97177 0.0
C406 C 0.28463 0.14876 0.98592 0.0
H407 H 0.29375 0.15556 0.95848 0.0
H408 H 0.23926 0.14962 0.07872 0.0
H409 H 0.26144 0.15264 0.05336 0.0
H410 H 0.22292 0.12494 0.01669 0.0
H411 H 0.20053 0.12226 0.04205 0.0
H412 H 0.25152 0.13913 1.00332 0.0
H413 H 0.28194 0.13979 0.03299 0.0
H414 H 0.31222 0.13078 0.01973 0.0
H415 H 0.3354 0.13308 0.99511 0.0
C416 C 0.97232 0.30356 0.13681 0.0
C417 C 0.97095 0.31578 0.15196 0.0
C418 C 0.9866 0.29035 0.13593 0.0
C419 C 0.99986 0.28902 0.15025 0.0
C420 C 0.99852 0.30133 0.16527 0.0
C421 C 0.98427 0.31446 0.16616 0.0
C422 C 1.01574 0.27569 0.1498 0.0
C423 C 1.0162 0.26016 0.13937 0.0
C424 C 0.03227 0.24703 0.13906 0.0
C425 C 0.02935 0.22876 0.13298 0.0
C426 C 0.04413 0.21616 0.13196 0.0
C427 C 0.0623 0.22157 0.13683 0.0
H428 H 0.05355 0.26646 0.14825 0.0
C429 C 0.06524 0.23985 0.14292 0.0
C430 C 0.05047 0.25243 0.14397 0.0
H431 H 0.07903 0.24448 0.14687 0.0
H432 H 0.9623 0.30414 0.12564 0.0
H433 H 0.98733 0.2815 0.12386 0.0
H434 H 1.0086 0.30083 0.1764 0.0
H435 H 0.98393 0.32384 0.17787 0.0
H436 H 0.02722 0.27857 0.15913 0.0
H437 H 1.00408 0.25638 0.13123 0.0
H438 H 1.01557 0.22421 0.12892 0.0
H439 H 0.04137 0.2023 0.12693 0.0
C440 C 0.4727 0.23242 0.87715 0.0
C441 C 0.47138 0.21718 0.88919 0.0
C442 C 0.48615 0.24621 0.87996 0.0
C443 C 0.49878 0.24502 0.89483 0.0
C444 C 0.49719 0.22997 0.90703 0.0
C445 C 0.48373 0.21622 0.90424 0.0
C446 C 0.51351 0.25923 0.89842 0.0
C447 C 0.51982 0.27136 0.88563 0.0
C448 C 0.53506 0.28508 0.8891 0.0
C449 C 0.54437 0.29287 0.87386 0.0
C450 C 0.55884 0.30563 0.87639 0.0
C451 C 0.56435 0.31104 0.89428 0.0
H452 H 0.53313 0.28576 0.91917 0.0
C453 C 0.55478 0.30355 0.90955 0.0
C454 C 0.54029 0.29081 0.90702 0.0
H455 H 0.55836 0.30771 0.92351 0.0
H456 H 0.46318 0.2338 0.86562 0.0
H457 H 0.48636 0.25782 0.87055 0.0
H458 H 0.50659 0.22868 0.91868 0.0
H459 H 0.48326 0.20462 0.9137 0.0
H460 H 0.52003 0.25891 0.91195 0.0
H461 H 0.51438 0.27071 0.87165 0.0
H462 H 0.54061 0.28888 0.85988 0.0
H463 H 0.56596 0.31098 0.8643 0.0
C464 C 0.05206 0.80599 0.40811 0.0
C465 C 0.06371 0.8114 0.39339 0.0
C466 C 0.03765 0.7932 0.40531 0.0
C467 C 0.03459 0.78535 0.38769 0.0
C468 C 0.04597 0.79109 0.37293 0.0
C469 C 0.06036 0.80389 0.37573 0.0
C470 C 0.01958 0.77146 0.384 0.0
C471 C 1.01144 0.76102 0.39725 0.0
C472 C 0.99698 0.74657 0.39352 0.0
C473 C 0.99366 0.73299 0.40704 0.0
C474 C 0.9804 0.71905 0.40417 0.0
C475 C 0.97001 0.71836 0.38769 0.0
H476 H 0.98785 0.75661 0.36664 0.0
C477 C 0.97305 0.73215 0.37429 0.0
C478 C 0.98629 0.74612 0.37718 0.0
H479 H 0.96503 0.73227 0.36161 0.0
H480 H 0.05396 0.8118 0.42181 0.0
H481 H 0.02886 0.78978 0.41697 0.0
H482 H 0.04391 0.78543 0.35918 0.0
H483 H 0.06911 0.8076 0.36409 0.0
H484 H 1.01592 0.76915 0.36962 0.0
H485 H 1.01619 0.76228 0.41144 0.0
H486 H 1.00154 0.73298 0.41982 0.0
H487 H 0.97858 0.70859 0.41472 0.0
C488 C 0.55046 0.72399 0.62408 0.0
C489 C 0.56329 0.7198 0.63817 0.0
C490 C 0.53633 0.73702 0.627 0.0
C491 C 0.53474 0.74633 0.64409 0.0
C492 C 0.54732 0.74182 0.65827 0.0
C493 C 0.56143 0.72878 0.65536 0.0
C494 C 0.52007 0.76052 0.64785 0.0
C495 C 0.51081 0.76982 0.63452 0.0
C496 C 0.49668 0.78455 0.63824 0.0
C497 C 0.49219 0.79696 0.62397 0.0
C498 C 0.47917 0.81109 0.62679 0.0
C499 C 0.47019 0.81316 0.64397 0.0
H500 H 0.48986 0.77679 0.66655 0.0
C501 C 0.47439 0.80053 0.65817 0.0
C502 C 0.48739 0.78636 0.65534 0.0
H503 H 0.46745 0.80146 0.67146 0.0
H504 H 0.55121 0.71705 0.6108 0.0
H505 H 0.5266 0.73948 0.61587 0.0
H506 H 0.54641 0.74862 0.67162 0.0
H507 H 0.57113 0.72603 0.66648 0.0
H508 H 0.51764 0.76406 0.66226 0.0
H509 H 0.51435 0.76735 0.62012 0.0
H510 H 0.49897 0.79589 0.61061 0.0
H511 H 0.47644 0.82064 0.61558 0.0
C512 C 0.63075 0.56695 0.7403 0.0
C513 C 0.63512 0.56403 0.72151 0.0
C514 C 0.63181 0.55246 0.7531 0.0
C515 C 0.63712 0.53456 0.74742 0.0
C516 C 0.64184 0.53175 0.72873 0.0
C517 C 0.6408 0.54624 0.71594 0.0
C518 C 0.6382 0.51856 0.76049 0.0
C519 C 0.62901 0.51784 0.77681 0.0
C520 C 0.6292 0.50159 0.78958 0.0
C521 C 0.61498 0.50008 0.80287 0.0
C522 C 0.61433 0.48508 0.81505 0.0
C523 C 0.62798 0.47118 0.81439 0.0
H524 H 0.65465 0.4887 0.77954 0.0
C525 C 0.64251 0.47286 0.80141 0.0
C526 C 0.64314 0.48788 0.78915 0.0
H527 H 0.65324 0.46239 0.8005 0.0
H528 H 0.62622 0.58041 0.74512 0.0
H529 H 0.6286 0.55549 0.76741 0.0
H530 H 0.6462 0.51821 0.72394 0.0
H531 H 0.64459 0.54352 0.70168 0.0
H532 H 0.64603 0.50658 0.75588 0.0
H533 H 0.61997 0.52922 0.78067 0.0
H534 H 0.60418 0.5105 0.80375 0.0
H535 H 0.60313 0.48445 0.82508 0.0
C536 C 0.81774 0.39082 0.0401 0.0
C537 C 0.81411 0.38742 0.05894 0.0
C538 C 0.80315 0.39264 0.0274 0.0
C539 C 0.78447 0.39092 0.03317 0.0
C540 C 0.78086 0.38794 0.05206 0.0
C541 C 0.79546 0.38616 0.06478 0.0
C542 C 0.76844 0.39263 0.0201 0.0
C543 C 0.76983 0.38981 1.00164 0.0
C544 C 0.7541 0.39139 0.98816 0.0
C545 C 0.75695 0.38509 0.96995 0.0
C546 C 0.74305 0.38681 0.95653 0.0
C547 C 0.72583 0.39493 0.96091 0.0
H548 H 0.73393 0.40486 1.00627 0.0
C549 C 0.7228 0.40107 0.97916 0.0
C550 C 0.73677 0.39943 0.99261 0.0
H551 H 0.70979 0.40764 0.98294 0.0
H552 H 0.83191 0.3923 0.03518 0.0
H553 H 0.80665 0.39566 1.01316 0.0
H554 H 0.76667 0.38672 0.057 0.0
H555 H 0.79213 0.38342 0.07914 0.0
H556 H 0.75496 0.39555 0.02618 0.0
H557 H 0.78314 0.38556 0.99594 0.0
H558 H 0.77008 0.37885 0.96601 0.0
H559 H 0.7458 0.38172 0.94268 0.0
C560 C 0.89336 0.47722 0.22581 0.0
C561 C 0.87679 0.47266 0.21646 0.0
C562 C 0.89357 0.49101 0.23951 0.0
C563 C 0.87713 0.50056 0.24425 0.0
C564 C 0.86066 0.49609 0.23477 0.0
C565 C 0.86045 0.48233 0.22113 0.0
C566 C 0.87652 0.51559 0.2585 0.0
C567 C 0.88937 0.51794 0.27195 0.0
C568 C 0.88806 0.53256 0.28657 0.0
C569 C 0.89742 0.52987 0.30341 0.0
C570 C 0.89628 0.54301 0.31764 0.0
C571 C 0.8859 0.55933 0.31532 0.0
H572 H 0.87108 0.55205 0.27112 0.0
C573 C 0.87695 0.56229 0.29827 0.0
C574 C 0.87802 0.5491 0.28406 0.0
H575 H 0.8688 0.57467 0.29601 0.0
H576 H 0.9062 0.47005 0.22262 0.0
H577 H 0.90669 0.49428 0.24607 0.0
H578 H 0.84781 0.50329 0.23792 0.0
H579 H 0.8475 0.4795 0.214 0.0
H580 H 0.86434 0.52446 0.25839 0.0
H581 H 0.90074 0.50816 0.2731 0.0
H582 H 0.90547 0.51742 0.30569 0.0
H583 H 0.90362 0.5404 0.33046 0.0
C584 C 0.80103 0.65845 0.47481 0.0
C585 C 0.81321 0.64404 0.46982 0.0
C586 C 0.78676 0.65553 0.48772 0.0
C587 C 0.78439 0.63811 0.49612 0.0
C588 C 0.79633 0.62362 0.49082 0.0
C589 C 0.81057 0.62654 0.47789 0.0
C590 C 0.76953 0.63431 0.51013 0.0
C591 C 0.7609 0.64757 0.52018 0.0
C592 C 0.74656 0.64377 0.53471 0.0
C593 C 0.74276 0.65754 0.54795 0.0
C594 C 0.72958 0.65461 0.56193 0.0
C595 C 0.71973 0.63782 0.56301 0.0
H596 H 0.73833 0.61631 0.5253 0.0
C597 C 0.72324 0.62414 0.54954 0.0
C598 C 0.73641 0.62708 0.53553 0.0
H599 H 0.71563 0.61119 0.54971 0.0
H600 H 0.80238 0.672 0.46856 0.0
H601 H 0.77754 0.66694 0.4908 0.0
H602 H 0.7948 0.61001 0.4969 0.0
H603 H 0.81975 0.61514 0.47452 0.0
H604 H 0.76641 0.61988 0.51287 0.0
H605 H 0.76513 0.66189 0.51851 0.0
H606 H 0.75022 0.67059 0.54765 0.0
H607 H 0.72739 0.6654 0.57214 0.0
loop_
_geom_bond_atom_site_label_1
_geom_bond_atom_site_label_2
_geom_bond_distance
_geom_bond_site_symmetry_2
_ccdc_geom_bond_type
C0 C1 1.264 . S
C0 C5 1.479 . S
C0 C10 1.465 . S
C1 C0 1.264 . S
C1 C3 1.339 . S
C1 H28 0.931 . S
C2 C3 1.395 . S
C2 C4 1.320 . S
C3 C1 1.339 . S
C3 C2 1.395 . S
C3 H29 0.929 . S
C4 C2 1.320 . S
C4 C5 1.405 . S
C4 H30 0.930 . S
C5 C0 1.479 . S
C5 C4 1.405 . S
C5 H31 0.931 . S
U6 O7 2.454 . S
U6 O8 2.458 . S
U6 C9 2.984 . S
U6 C10 2.847 . S
U6 C23 2.882 . S
U6 O24 2.441 . S
U6 O25 2.420 . S
U6 O26 2.455 . S
U6 O27 2.449 . S
O7 U6 2.454 . S
O7 C9 1.353 . S
O8 U6 2.458 . S
O8 C9 1.286 . S
C9 U6 2.984 . S
C9 O7 1.353 . S
C9 O8 1.286 . S
C9 C11 1.363 . S
C10 C0 1.465 . S
C10 U6 2.847 . S
C10 O24 1.249 . S
C10 O25 1.202 . S
C11 C9 1.363 . S
C11 C13 1.408 . S
C11 C16 1.342 . S
C12 C13 1.310 . S
C12 C15 1.461 . S
C12 H32 0.932 . S
C13 C11 1.408 . S
C13 C12 1.310 . S
C13 H33 0.930 . S
C14 C15 1.474 . S
C14 C16 1.285 . S
C14 H34 0.929 . S
C15 C12 1.461 . S
C15 C14 1.474 . S
C16 C11 1.342 . S
C16 C14 1.285 . S
C16 H35 0.930 . S
C17 C20 1.424 . S
C17 C22 1.245 . S
C17 C23 1.428 . S
C18 C21 1.260 . S
C18 C22 1.477 . S
C18 H36 0.932 . S
C19 C20 1.384 . S
C19 C21 1.479 . S
C19 H37 0.929 . S
C20 C17 1.424 . S
C20 C19 1.384 . S
C20 H38 0.928 . S
C21 C18 1.260 . S
C21 C19 1.479 . S
C22 C17 1.245 . S
C22 C18 1.477 . S
C22 H39 0.932 . S
C23 U6 2.882 . S
C23 C17 1.428 . S
C23 O26 1.301 . S
C23 O27 1.282 . S
O24 U6 2.441 . S
O24 C10 1.249 . S
O25 U6 2.420 . S
O25 C10 1.202 . S
O26 U6 2.455 . S
O26 C23 1.301 . S
O27 U6 2.449 . S
O27 C23 1.282 . S
H28 C1 0.931 . S
H29 C3 0.929 . S
H30 C4 0.930 . S
H31 C5 0.931 . S
H32 C12 0.932 . S
H33 C13 0.930 . S
H34 C14 0.929 . S
H35 C16 0.930 . S
H36 C18 0.932 . S
H37 C19 0.929 . S
H38 C20 0.928 . S
H39 C22 0.932 . S
C40 C41 1.264 . S
C40 C45 1.479 . S
C40 C50 1.465 . S
C41 C40 1.264 . S
C41 C43 1.339 . S
C41 H68 0.931 . S
C42 C43 1.395 . S
C42 C44 1.320 . S
C43 C41 1.339 . S
C43 C42 1.395 . S
C43 H69 0.929 . S
C44 C42 1.320 . S
C44 C45 1.405 . S
C44 H70 0.930 . S
C45 C40 1.479 . S
C45 C44 1.405 . S
C45 H71 0.931 . S
U46 O47 2.454 . S
U46 O48 2.458 . S
U46 C49 2.984 . S
U46 C50 2.847 . S
U46 C63 2.882 . S
U46 O64 2.441 . S
U46 O65 2.420 . S
U46 O66 2.455 . S
U46 O67 2.449 . S
O47 U46 2.454 . S
O47 C49 1.353 . S
O48 U46 2.458 . S
O48 C49 1.286 . S
C49 U46 2.984 . S
C49 O47 1.353 . S
C49 O48 1.286 . S
C49 C51 1.363 . S
C50 C40 1.465 . S
C50 U46 2.847 . S
C50 O64 1.249 . S
C50 O65 1.202 . S
C51 C49 1.363 . S
C51 C53 1.408 . S
C51 C56 1.342 . S
C52 C53 1.310 . S
C52 C55 1.461 . S
C52 H72 0.932 . S
C53 C51 1.408 . S
C53 C52 1.310 . S
C53 H73 0.930 . S
C54 C55 1.474 . S
C54 C56 1.285 . S
C54 H74 0.929 . S
C55 C52 1.461 . S
C55 C54 1.474 . S
C56 C51 1.342 . S
C56 C54 1.285 . S
C56 H75 0.930 . S
C57 C60 1.424 . S
C57 C62 1.245 . S
C57 C63 1.428 . S
C58 C61 1.260 . S
C58 C62 1.477 . S
C58 H76 0.932 . S
C59 C60 1.384 . S
C59 C61 1.479 . S
C59 H77 0.929 . S
C60 C57 1.424 . S
C60 C59 1.384 . S
C60 H78 0.928 . S
C61 C58 1.260 . S
C61 C59 1.479 . S
C62 C57 1.245 . S
C62 C58 1.477 . S
C62 H79 0.932 . S
C63 U46 2.882 . S
C63 C57 1.428 . S
C63 O66 1.301 . S
C63 O67 1.282 . S
O64 U46 2.441 . S
O64 C50 1.249 . S
O65 U46 2.420 . S
O65 C50 1.202 . S
O66 U46 2.455 . S
O66 C63 1.301 . S
O67 U46 2.449 . S
O67 C63 1.282 . S
H68 C41 0.931 . S
H69 C43 0.929 . S
H70 C44 0.930 . S
H71 C45 0.931 . S
H72 C52 0.932 . S
H73 C53 0.930 . S
H74 C54 0.929 . S
H75 C56 0.930 . S
H76 C58 0.932 . S
H77 C59 0.929 . S
H78 C60 0.928 . S
H79 C62 0.932 . S
C80 C81 1.264 . S
C80 C85 1.479 . S
C80 C90 1.465 . S
C81 C80 1.264 . S
C81 C83 1.339 . S
C81 H108 0.931 . S
C82 C83 1.395 . S
C82 C84 1.320 . S
C83 C81 1.339 . S
C83 C82 1.395 . S
C83 H109 0.929 . S
C84 C82 1.320 . S
C84 C85 1.405 . S
C84 H110 0.930 . S
C85 C80 1.479 . S
C85 C84 1.405 . S
C85 H111 0.931 . S
U86 O87 2.454 . S
U86 O88 2.458 . S
U86 C89 2.984 . S
U86 C90 2.847 . S
U86 C103 2.882 . S
U86 O104 2.441 . S
U86 O105 2.420 . S
U86 O106 2.455 . S
U86 O107 2.449 . S
O87 U86 2.454 . S
O87 C89 1.353 . S
O88 U86 2.458 . S
O88 C89 1.286 . S
C89 U86 2.984 . S
C89 O87 1.353 . S
C89 O88 1.286 . S
C89 C91 1.363 . S
C90 C80 1.465 . S
C90 U86 2.847 . S
C90 O104 1.249 . S
C90 O105 1.202 . S
C91 C89 1.363 . S
C91 C93 1.408 . S
C91 C96 1.342 . S
C92 C93 1.310 . S
C92 C95 1.461 . S
C92 H112 0.932 . S
C93 C91 1.408 . S
C93 C92 1.310 . S
C93 H113 0.930 . S
C94 C95 1.474 . S
C94 C96 1.285 . S
C94 H114 0.929 . S
C95 C92 1.461 . S
C95 C94 1.474 . S
C96 C91 1.342 . S
C96 C94 1.285 . S
C96 H115 0.930 . S
C97 C100 1.424 . S
C97 C102 1.245 . S
C97 C103 1.428 . S
C98 C101 1.260 . S
C98 C102 1.477 . S
C98 H116 0.932 . S
C99 C100 1.384 . S
C99 C101 1.479 . S
C99 H117 0.929 . S
C100 C97 1.424 . S
C100 C99 1.384 . S
C100 H118 0.928 . S
C101 C98 1.260 . S
C101 C99 1.479 . S
C102 C97 1.245 . S
C102 C98 1.477 . S
C102 H119 0.932 . S
C103 U86 2.882 . S
C103 C97 1.428 . S
C103 O106 1.301 . S
C103 O107 1.282 . S
O104 U86 2.441 . S
O104 C90 1.249 . S
O105 U86 2.420 . S
O105 C90 1.202 . S
O106 U86 2.455 . S
O106 C103 1.301 . S
O107 U86 2.449 . S
O107 C103 1.282 . S
H108 C81 0.931 . S
H109 C83 0.929 . S
H110 C84 0.930 . S
H111 C85 0.931 . S
H112 C92 0.932 . S
H113 C93 0.930 . S
H114 C94 0.929 . S
H115 C96 0.930 . S
H116 C98 0.932 . S
H117 C99 0.929 . S
H118 C100 0.928 . S
H119 C102 0.932 . S
C120 C121 1.264 . S
C120 C125 1.479 . S
C120 C130 1.465 . S
C121 C120 1.264 . S
C121 C123 1.339 . S
C121 H148 0.931 . S
C122 C123 1.395 . S
C122 C124 1.320 . S
C123 C121 1.339 . S
C123 C122 1.395 . S
C123 H149 0.929 . S
C124 C122 1.320 . S
C124 C125 1.405 . S
C124 H150 0.930 . S
C125 C120 1.479 . S
C125 C124 1.405 . S
C125 H151 0.931 . S
U126 O127 2.454 . S
U126 O128 2.458 . S
U126 C129 2.984 . S
U126 C130 2.847 . S
U126 C143 2.882 . S
U126 O144 2.441 . S
U126 O145 2.420 . S
U126 O146 2.455 . S
U126 O147 2.449 . S
O127 U126 2.454 . S
O127 C129 1.353 . S
O128 U126 2.458 . S
O128 C129 1.286 . S
C129 U126 2.984 . S
C129 O127 1.353 . S
C129 O128 1.286 . S
C129 C131 1.363 . S
C130 C120 1.465 . S
C130 U126 2.847 . S
C130 O144 1.249 . S
C130 O145 1.202 . S
C131 C129 1.363 . S
C131 C133 1.408 . S
C131 C136 1.342 . S
C132 C133 1.310 . S
C132 C135 1.461 . S
C132 H152 0.932 . S
C133 C131 1.408 . S
C133 C132 1.310 . S
C133 H153 0.930 . S
C134 C135 1.474 . S
C134 C136 1.285 . S
C134 H154 0.929 . S
C135 C132 1.461 . S
C135 C134 1.474 . S
C136 C131 1.342 . S
C136 C134 1.285 . S
C136 H155 0.930 . S
C137 C140 1.424 . S
C137 C142 1.245 . S
C137 C143 1.428 . S
C138 C141 1.260 . S
C138 C142 1.477 . S
C138 H156 0.932 . S
C139 C140 1.384 . S
C139 C141 1.479 . S
C139 H157 0.929 . S
C140 C137 1.424 . S
C140 C139 1.384 . S
C140 H158 0.928 . S
C141 C138 1.260 . S
C141 C139 1.479 . S
C142 C137 1.245 . S
C142 C138 1.477 . S
C142 H159 0.932 . S
C143 U126 2.882 . S
C143 C137 1.428 . S
C143 O146 1.301 . S
C143 O147 1.282 . S
O144 U126 2.441 . S
O144 C130 1.249 . S
O145 U126 2.420 . S
O145 C130 1.202 . S
O146 U126 2.455 . S
O146 C143 1.301 . S
O147 U126 2.449 . S
O147 C143 1.282 . S
H148 C121 0.931 . S
H149 C123 0.929 . S
H150 C124 0.930 . S
H151 C125 0.931 . S
H152 C132 0.932 . S
H153 C133 0.930 . S
H154 C134 0.929 . S
H155 C136 0.930 . S
H156 C138 0.932 . S
H157 C139 0.929 . S
H158 C140 0.928 . S
H159 C142 0.932 . S
C160 C161 1.264 . S
C160 C165 1.479 . S
C160 C170 1.465 . S
C161 C160 1.264 . S
C161 C163 1.339 . S
C161 H188 0.931 . S
C162 C163 1.395 . S
C162 C164 1.320 . S
C163 C161 1.339 . S
C163 C162 1.395 . S
C163 H189 0.929 . S
C164 C162 1.320 . S
C164 C165 1.405 . S
C164 H190 0.930 . S
C165 C160 1.479 . S
C165 C164 1.405 . S
C165 H191 0.931 . S
U166 O167 2.454 . S
U166 O168 2.458 . S
U166 C169 2.984 . S
U166 C170 2.847 . S
U166 C183 2.882 . S
U166 O184 2.441 . S
U166 O185 2.420 . S
U166 O186 2.455 . S
U166 O187 2.449 . S
O167 U166 2.454 . S
O167 C169 1.353 . S
O168 U166 2.458 . S
O168 C169 1.286 . S
C169 U166 2.984 . S
C169 O167 1.353 . S
C169 O168 1.286 . S
C169 C171 1.363 . S
C170 C160 1.465 . S
C170 U166 2.847 . S
C170 O184 1.249 . S
C170 O185 1.202 . S
C171 C169 1.363 . S
C171 C173 1.408 . S
C171 C176 1.342 . S
C172 C173 1.310 . S
C172 C175 1.461 . S
C172 H192 0.932 . S
C173 C171 1.408 . S
C173 C172 1.310 . S
C173 H193 0.930 . S
C174 C175 1.474 . S
C174 C176 1.285 . S
C174 H194 0.929 . S
C175 C172 1.461 . S
C175 C174 1.474 . S
C176 C171 1.342 . S
C176 C174 1.285 . S
C176 H195 0.930 . S
C177 C180 1.424 . S
C177 C182 1.245 . S
C177 C183 1.428 . S
C178 C181 1.260 . S
C178 C182 1.477 . S
C178 H196 0.932 . S
C179 C180 1.384 . S
C179 C181 1.479 . S
C179 H197 0.929 . S
C180 C177 1.424 . S
C180 C179 1.384 . S
C180 H198 0.928 . S
C181 C178 1.260 . S
C181 C179 1.479 . S
C182 C177 1.245 . S
C182 C178 1.477 . S
C182 H199 0.932 . S
C183 U166 2.882 . S
C183 C177 1.428 . S
C183 O186 1.301 . S
C183 O187 1.282 . S
O184 U166 2.441 . S
O184 C170 1.249 . S
O185 U166 2.420 . S
O185 C170 1.202 . S
O186 U166 2.455 . S
O186 C183 1.301 . S
O187 U166 2.449 . S
O187 C183 1.282 . S
H188 C161 0.931 . S
H189 C163 0.929 . S
H190 C164 0.930 . S
H191 C165 0.931 . S
H192 C172 0.932 . S
H193 C173 0.930 . S
H194 C174 0.929 . S
H195 C176 0.930 . S
H196 C178 0.932 . S
H197 C179 0.929 . S
H198 C180 0.928 . S
H199 C182 0.932 . S
C200 C201 1.264 . S
C200 C205 1.479 . S
C200 C210 1.465 . S
C201 C200 1.264 . S
C201 C203 1.339 . S
C201 H228 0.931 . S
C202 C203 1.395 . S
C202 C204 1.320 . S
C203 C201 1.339 . S
C203 C202 1.395 . S
C203 H229 0.929 . S
C204 C202 1.320 . S
C204 C205 1.405 . S
C204 H230 0.930 . S
C205 C200 1.479 . S
C205 C204 1.405 . S
C205 H231 0.931 . S
U206 O207 2.454 . S
U206 O208 2.458 . S
U206 C209 2.984 . S
U206 C210 2.847 . S
U206 C223 2.882 . S
U206 O224 2.441 . S
U206 O225 2.420 . S
U206 O226 2.455 . S
U206 O227 2.449 . S
O207 U206 2.454 . S
O207 C209 1.353 . S
O208 U206 2.458 . S
O208 C209 1.286 . S
C209 U206 2.984 . S
C209 O207 1.353 . S
C209 O208 1.286 . S
C209 C211 1.363 . S
C210 C200 1.465 . S
C210 U206 2.847 . S
C210 O224 1.249 . S
C210 O225 1.202 . S
C211 C209 1.363 . S
C211 C213 1.408 . S
C211 C216 1.342 . S
C212 C213 1.310 . S
C212 C215 1.461 . S
C212 H232 0.932 . S
C213 C211 1.408 . S
C213 C212 1.310 . S
C213 H233 0.930 . S
C214 C215 1.474 . S
C214 C216 1.285 . S
C214 H234 0.929 . S
C215 C212 1.461 . S
C215 C214 1.474 . S
C216 C211 1.342 . S
C216 C214 1.285 . S
C216 H235 0.930 . S
C217 C220 1.424 . S
C217 C222 1.245 . S
C217 C223 1.428 . S
C218 C221 1.260 . S
C218 C222 1.477 . S
C218 H236 0.932 . S
C219 C220 1.384 . S
C219 C221 1.479 . S
C219 H237 0.929 . S
C220 C217 1.424 . S
C220 C219 1.384 . S
C220 H238 0.928 . S
C221 C218 1.260 . S
C221 C219 1.479 . S
C222 C217 1.245 . S
C222 C218 1.477 . S
C222 H239 0.932 . S
C223 U206 2.882 . S
C223 C217 1.428 . S
C223 O226 1.301 . S
C223 O227 1.282 . S
O224 U206 2.441 . S
O224 C210 1.249 . S
O225 U206 2.420 . S
O225 C210 1.202 . S
O226 U206 2.455 . S
O226 C223 1.301 . S
O227 U206 2.449 . S
O227 C223 1.282 . S
H228 C201 0.931 . S
H229 C203 0.929 . S
H230 C204 0.930 . S
H231 C205 0.931 . S
H232 C212 0.932 . S
H233 C213 0.930 . S
H234 C214 0.929 . S
H235 C216 0.930 . S
H236 C218 0.932 . S
H237 C219 0.929 . S
H238 C220 0.928 . S
H239 C222 0.932 . S
C240 C241 1.264 . S
C240 C245 1.479 . S
C240 C250 1.465 . S
C241 C240 1.264 . S
C241 C243 1.339 . S
C241 H268 0.931 . S
C242 C243 1.395 . S
C242 C244 1.320 . S
C243 C241 1.339 . S
C243 C242 1.395 . S
C243 H269 0.929 . S
C244 C242 1.320 . S
C244 C245 1.405 . S
C244 H270 0.930 . S
C245 C240 1.479 . S
C245 C244 1.405 . S
C245 H271 0.931 . S
U246 O247 2.454 . S
U246 O248 2.458 . S
U246 C249 2.984 . S
U246 C250 2.847 . S
U246 C263 2.882 . S
U246 O264 2.441 . S
U246 O265 2.420 . S
U246 O266 2.455 . S
U246 O267 2.449 . S
O247 U246 2.454 . S
O247 C249 1.353 . S
O248 U246 2.458 . S
O248 C249 1.286 . S
C249 U246 2.984 . S
C249 O247 1.353 . S
C249 O248 1.286 . S
C249 C251 1.363 . S
C250 C240 1.465 . S
C250 U246 2.847 . S
C250 O264 1.249 . S
C250 O265 1.202 . S
C251 C249 1.363 . S
C251 C253 1.408 . S
C251 C256 1.342 . S
C252 C253 1.310 . S
C252 C255 1.461 . S
C252 H272 0.932 . S
C253 C251 1.408 . S
C253 C252 1.310 . S
C253 H273 0.930 . S
C254 C255 1.474 . S
C254 C256 1.285 . S
C254 H274 0.929 . S
C255 C252 1.461 . S
C255 C254 1.474 . S
C256 C251 1.342 . S
C256 C254 1.285 . S
C256 H275 0.930 . S
C257 C260 1.424 . S
C257 C262 1.245 . S
C257 C263 1.428 . S
C258 C261 1.260 . S
C258 C262 1.477 . S
C258 H276 0.932 . S
C259 C260 1.384 . S
C259 C261 1.479 . S
C259 H277 0.929 . S
C260 C257 1.424 . S
C260 C259 1.384 . S
C260 H278 0.928 . S
C261 C258 1.260 . S
C261 C259 1.479 . S
C262 C257 1.245 . S
C262 C258 1.477 . S
C262 H279 0.932 . S
C263 U246 2.882 . S
C263 C257 1.428 . S
C263 O266 1.301 . S
C263 O267 1.282 . S
O264 U246 2.441 . S
O264 C250 1.249 . S
O265 U246 2.420 . S
O265 C250 1.202 . S
O266 U246 2.455 . S
O266 C263 1.301 . S
O267 U246 2.449 . S
O267 C263 1.282 . S
H268 C241 0.931 . S
H269 C243 0.929 . S
H270 C244 0.930 . S
H271 C245 0.931 . S
H272 C252 0.932 . S
H273 C253 0.930 . S
H274 C254 0.929 . S
H275 C256 0.930 . S
H276 C258 0.932 . S
H277 C259 0.929 . S
H278 C260 0.928 . S
H279 C262 0.932 . S
C280 C281 1.264 . S
C280 C285 1.479 . S
C280 C290 1.465 . S
C281 C280 1.264 . S
C281 C283 1.339 . S
C281 H308 0.931 . S
C282 C283 1.395 . S
C282 C284 1.320 . S
C283 C281 1.339 . S
C283 C282 1.395 . S
C283 H309 0.929 . S
C284 C282 1.320 . S
C284 C285 1.405 . S
C284 H310 0.930 . S
C285 C280 1.479 . S
C285 C284 1.405 . S
C285 H311 0.931 . S
U286 O287 2.454 . S
U286 O288 2.458 . S
U286 C289 2.984 . S
U286 C290 2.847 . S
U286 C303 2.882 . S
U286 O304 2.441 . S
U286 O305 2.420 . S
U286 O306 2.455 . S
U286 O307 2.449 . S
O287 U286 2.454 . S
O287 C289 1.353 . S
O288 U286 2.458 . S
O288 C289 1.286 . S
C289 U286 2.984 . S
C289 O287 1.353 . S
C289 O288 1.286 . S
C289 C291 1.363 . S
C290 C280 1.465 . S
C290 U286 2.847 . S
C290 O304 1.249 . S
C290 O305 1.202 . S
C291 C289 1.363 . S
C291 C293 1.408 . S
C291 C296 1.342 . S
C292 C293 1.310 . S
C292 C295 1.461 . S
C292 H312 0.932 . S
C293 C291 1.408 . S
C293 C292 1.310 . S
C293 H313 0.930 . S
C294 C295 1.474 . S
C294 C296 1.285 . S
C294 H314 0.929 . S
C295 C292 1.461 . S
C295 C294 1.474 . S
C296 C291 1.342 . S
C296 C294 1.285 . S
C296 H315 0.930 . S
C297 C300 1.424 . S
C297 C302 1.245 . S
C297 C303 1.428 . S
C298 C301 1.260 . S
C298 C302 1.477 . S
C298 H316 0.932 . S
C299 C300 1.384 . S
C299 C301 1.479 . S
C299 H317 0.929 . S
C300 C297 1.424 . S
C300 C299 1.384 . S
C300 H318 0.928 . S
C301 C298 1.260 . S
C301 C299 1.479 . S
C302 C297 1.245 . S
C302 C298 1.477 . S
C302 H319 0.932 . S
C303 U286 2.882 . S
C303 C297 1.428 . S
C303 O306 1.301 . S
C303 O307 1.282 . S
O304 U286 2.441 . S
O304 C290 1.249 . S
O305 U286 2.420 . S
O305 C290 1.202 . S
O306 U286 2.455 . S
O306 C303 1.301 . S
O307 U286 2.449 . S
O307 C303 1.282 . S
H308 C281 0.931 . S
H309 C283 0.929 . S
H310 C284 0.930 . S
H311 C285 0.931 . S
H312 C292 0.932 . S
H313 C293 0.930 . S
H314 C294 0.929 . S
H315 C296 0.930 . S
H316 C298 0.932 . S
H317 C299 0.929 . S
H318 C300 0.928 . S
H319 C302 0.932 . S
C320 C321 1.386 . S
C320 C322 1.383 . S
C320 H336 0.951 . S
C321 C320 1.386 . S
C321 C325 1.383 . S
C322 C320 1.383 . S
C322 C323 1.402 . S
C322 H337 0.951 . S
C323 C322 1.402 . S
C323 C324 1.375 . S
C323 C326 1.481 . S
C324 C323 1.375 . S
C324 C325 1.367 . S
C324 H338 0.951 . S
C325 C321 1.383 . S
C325 C324 1.367 . S
C325 H339 0.950 . S
C326 C323 1.481 . S
C326 C327 1.297 1_565 S
C326 H340 0.950 . S
C327 C326 1.297 1_545 S
C327 C328 1.479 . S
C327 H341 0.951 . S
C328 C327 1.479 . S
C328 C329 1.375 . S
C328 C334 1.404 . S
C329 C328 1.375 . S
C329 C330 1.369 . S
C329 H342 0.950 . S
C330 C329 1.369 . S
C330 C331 1.392 . S
C330 H343 0.951 . S
C331 C330 1.392 . S
C331 C333 1.384 . S
H332 C334 0.949 . S
C333 C331 1.384 . S
C333 C334 1.385 . S
C333 H335 0.950 . S
C334 C328 1.404 . S
C334 H332 0.949 . S
C334 C333 1.385 . S
H335 C333 0.950 . S
H336 C320 0.951 . S
H337 C322 0.951 . S
H338 C324 0.951 . S
H339 C325 0.950 . S
H340 C326 0.950 . S
H341 C327 0.951 . S
H342 C329 0.950 . S
H343 C330 0.951 . S
C344 C345 1.386 . S
C344 C346 1.383 . S
C344 H360 0.951 . S
C345 C344 1.386 . S
C345 C349 1.383 . S
C346 C344 1.383 . S
C346 C347 1.402 . S
C346 H361 0.951 . S
C347 C346 1.402 . S
C347 C348 1.375 . S
C347 C350 1.481 . S
C348 C347 1.375 . S
C348 C349 1.367 . S
C348 H362 0.951 . S
C349 C345 1.383 . S
C349 C348 1.367 . S
C349 H363 0.950 . S
C350 C347 1.481 . S
C350 C351 1.297 . S
C350 H364 0.950 . S
C351 C350 1.297 . S
C351 C352 1.479 . S
C351 H365 0.950 . S
C352 C351 1.479 . S
C352 C353 1.375 . S
C352 C358 1.404 . S
C353 C352 1.375 . S
C353 C354 1.369 . S
C353 H366 0.950 . S
C354 C353 1.369 . S
C354 C355 1.392 . S
C354 H367 0.951 . S
C355 C354 1.392 . S
C355 C357 1.384 . S
H356 C358 0.949 . S
C357 C355 1.384 . S
C357 C358 1.385 . S
C357 H359 0.950 . S
C358 C352 1.404 . S
C358 H356 0.949 . S
C358 C357 1.385 . S
H359 C357 0.950 . S
H360 C344 0.951 . S
H361 C346 0.951 . S
H362 C348 0.951 . S
H363 C349 0.950 . S
H364 C350 0.950 . S
H365 C351 0.950 . S
H366 C353 0.950 . S
H367 C354 0.951 . S
C368 C369 1.386 . S
C368 C370 1.383 . S
C368 H384 0.951 . S
C369 C368 1.386 . S
C369 C373 1.383 . S
C370 C368 1.383 . S
C370 C371 1.402 . S
C370 H385 0.951 . S
C371 C370 1.402 . S
C371 C372 1.375 . S
C371 C374 1.481 1_565 S
C372 C371 1.375 . S
C372 C373 1.367 . S
C372 H386 0.951 . S
C373 C369 1.383 . S
C373 C372 1.367 . S
C373 H387 0.950 . S
C374 C371 1.481 1_545 S
C374 C375 1.297 . S
C374 H388 0.950 . S
C375 C374 1.297 . S
C375 C376 1.479 . S
C375 H389 0.950 . S
C376 C375 1.479 . S
C376 C377 1.375 . S
C376 C382 1.404 . S
C377 C376 1.375 . S
C377 C378 1.369 . S
C377 H390 0.950 . S
C378 C377 1.369 . S
C378 C379 1.392 . S
C378 H391 0.951 . S
C379 C378 1.392 . S
C379 C381 1.384 . S
H380 C382 0.949 . S
C381 C379 1.384 . S
C381 C382 1.385 . S
C381 H383 0.950 . S
C382 C376 1.404 . S
C382 H380 0.949 . S
C382 C381 1.385 . S
H383 C381 0.950 . S
H384 C368 0.951 . S
H385 C370 0.951 . S
H386 C372 0.951 . S
H387 C373 0.950 . S
H388 C374 0.950 . S
H389 C375 0.950 . S
H390 C377 0.950 . S
H391 C378 0.951 . S
C392 C393 1.386 . S
C392 C394 1.383 . S
C392 H408 0.951 . S
C393 C392 1.386 . S
C393 C397 1.383 . S
C394 C392 1.383 . S
C394 C395 1.402 . S
C394 H409 0.951 . S
C395 C394 1.402 . S
C395 C396 1.375 . S
C395 C398 1.481 . S
C396 C395 1.375 . S
C396 C397 1.367 . S
C396 H410 0.951 . S
C397 C393 1.383 . S
C397 C396 1.367 . S
C397 H411 0.950 . S
C398 C395 1.481 . S
C398 C399 1.297 . S
C398 H412 0.950 . S
C399 C398 1.297 . S
C399 C400 1.479 1_554 S
C399 H413 0.950 . S
C400 C399 1.479 1_556 S
C400 C401 1.375 . S
C400 C406 1.404 . S
C401 C400 1.375 . S
C401 C402 1.369 . S
C401 H414 0.950 . S
C402 C401 1.369 . S
C402 C403 1.392 . S
C402 H415 0.951 . S
C403 C402 1.392 . S
C403 C405 1.384 . S
H404 C406 0.949 . S
C405 C403 1.384 . S
C405 C406 1.385 . S
C405 H407 0.950 . S
C406 C400 1.404 . S
C406 H404 0.949 . S
C406 C405 1.385 . S
H407 C405 0.950 . S
H408 C392 0.951 . S
H409 C394 0.951 . S
H410 C396 0.951 . S
H411 C397 0.950 . S
H412 C398 0.950 . S
H413 C399 0.950 . S
H414 C401 0.950 . S
H415 C402 0.951 . S
C416 C417 1.386 . S
C416 C418 1.383 . S
C416 H432 0.951 . S
C417 C416 1.386 . S
C417 C421 1.383 . S
C418 C416 1.383 . S
C418 C419 1.402 . S
C418 H433 0.951 . S
C419 C418 1.402 . S
C419 C420 1.375 . S
C419 C422 1.481 1_655 S
C420 C419 1.375 . S
C420 C421 1.367 . S
C420 H434 0.951 . S
C421 C417 1.383 . S
C421 C420 1.367 . S
C421 H435 0.950 . S
C422 C419 1.481 1_455 S
C422 C423 1.297 . S
C422 H436 0.950 . S
C423 C422 1.297 . S
C423 C424 1.479 . S
C423 H437 0.950 1_455 S
C424 C423 1.479 . S
C424 C425 1.375 . S
C424 C430 1.404 . S
C425 C424 1.375 . S
C425 C426 1.369 . S
C425 H438 0.950 . S
C426 C425 1.369 . S
C426 C427 1.392 . S
C426 H439 0.951 . S
C427 C426 1.392 . S
C427 C429 1.384 . S
H428 C430 0.949 . S
C429 C427 1.384 . S
C429 C430 1.385 . S
C429 H431 0.950 . S
C430 C424 1.404 . S
C430 H428 0.949 . S
C430 C429 1.385 . S
H431 C429 0.950 . S
H432 C416 0.951 . S
H433 C418 0.951 . S
H434 C420 0.951 . S
H435 C421 0.950 . S
H436 C422 0.950 . S
H437 C423 0.950 1_655 S
H438 C425 0.950 . S
H439 C426 0.951 . S
C440 C441 1.386 . S
C440 C442 1.383 . S
C440 H456 0.951 . S
C441 C440 1.386 . S
C441 C445 1.383 . S
C442 C440 1.383 . S
C442 C443 1.402 . S
C442 H457 0.951 . S
C443 C442 1.402 . S
C443 C444 1.375 . S
C443 C446 1.481 . S
C444 C443 1.375 . S
C444 C445 1.367 . S
C444 H458 0.951 . S
C445 C441 1.383 . S
C445 C444 1.367 . S
C445 H459 0.950 . S
C446 C443 1.481 . S
C446 C447 1.297 . S
C446 H460 0.950 . S
C447 C446 1.297 . S
C447 C448 1.479 . S
C447 H461 0.950 . S
C448 C447 1.479 . S
C448 C449 1.375 . S
C448 C454 1.404 . S
C449 C448 1.375 . S
C449 C450 1.369 . S
C449 H462 0.950 . S
C450 C449 1.369 . S
C450 C451 1.392 . S
C450 H463 0.951 . S
C451 C450 1.392 . S
C451 C453 1.384 . S
H452 C454 0.949 . S
C453 C451 1.384 . S
C453 C454 1.385 . S
C453 H455 0.950 . S
C454 C448 1.404 . S
C454 H452 0.949 . S
C454 C453 1.385 . S
H455 C453 0.950 . S
H456 C440 0.951 . S
H457 C442 0.951 . S
H458 C444 0.951 . S
H459 C445 0.950 . S
H460 C446 0.950 . S
H461 C447 0.950 . S
H462 C449 0.950 . S
H463 C450 0.951 . S
C464 C465 1.386 . S
C464 C466 1.383 . S
C464 H480 0.951 . S
C465 C464 1.386 . S
C465 C469 1.383 . S
C466 C464 1.383 . S
C466 C467 1.402 . S
C466 H481 0.951 . S
C467 C466 1.402 . S
C467 C468 1.375 . S
C467 C470 1.481 1_455 S
C468 C467 1.375 . S
C468 C469 1.367 . S
C468 H482 0.951 . S
C469 C465 1.383 . S
C469 C468 1.367 . S
C469 H483 0.950 . S
C470 C467 1.481 1_655 S
C470 C471 1.297 . S
C470 H484 0.950 . S
C471 C470 1.297 . S
C471 C472 1.479 . S
C471 H485 0.950 . S
C472 C471 1.479 . S
C472 C473 1.375 . S
C472 C478 1.404 . S
C473 C472 1.375 . S
C473 C474 1.369 . S
C473 H486 0.950 . S
C474 C473 1.369 . S
C474 C475 1.392 . S
C474 H487 0.951 . S
C475 C474 1.392 . S
C475 C477 1.384 . S
H476 C478 0.949 . S
C477 C475 1.384 . S
C477 C478 1.385 . S
C477 H479 0.950 . S
C478 C472 1.404 . S
C478 H476 0.949 . S
C478 C477 1.385 . S
H479 C477 0.950 . S
H480 C464 0.951 . S
H481 C466 0.951 . S
H482 C468 0.951 . S
H483 C469 0.950 . S
H484 C470 0.950 . S
H485 C471 0.950 . S
H486 C473 0.950 . S
H487 C474 0.951 . S
C488 C489 1.386 . S
C488 C490 1.383 . S
C488 H504 0.951 . S
C489 C488 1.386 . S
C489 C493 1.383 . S
C490 C488 1.383 . S
C490 C491 1.402 . S
C490 H505 0.951 . S
C491 C490 1.402 . S
C491 C492 1.375 . S
C491 C494 1.481 . S
C492 C491 1.375 . S
C492 C493 1.367 . S
C492 H506 0.951 . S
C493 C489 1.383 . S
C493 C492 1.367 . S
C493 H507 0.950 . S
C494 C491 1.481 . S
C494 C495 1.297 . S
C494 H508 0.950 . S
C495 C494 1.297 . S
C495 C496 1.479 . S
C495 H509 0.950 . S
C496 C495 1.479 . S
C496 C497 1.375 . S
C496 C502 1.404 . S
C497 C496 1.375 . S
C497 C498 1.369 . S
C497 H510 0.950 . S
C498 C497 1.369 . S
C498 C499 1.392 . S
C498 H511 0.951 . S
C499 C498 1.392 . S
C499 C501 1.384 . S
H500 C502 0.949 . S
C501 C499 1.384 . S
C501 C502 1.385 . S
C501 H503 0.950 . S
C502 C496 1.404 . S
C502 H500 0.949 . S
C502 C501 1.385 . S
H503 C501 0.950 . S
H504 C488 0.951 . S
H505 C490 0.951 . S
H506 C492 0.951 . S
H507 C493 0.950 . S
H508 C494 0.950 . S
H509 C495 0.950 . S
H510 C497 0.950 . S
H511 C498 0.951 . S
C512 C513 1.386 . S
C512 C514 1.383 . S
C512 H528 0.951 . S
C513 C512 1.386 . S
C513 C517 1.383 . S
C514 C512 1.383 . S
C514 C515 1.402 . S
C514 H529 0.951 . S
C515 C514 1.402 . S
C515 C516 1.375 . S
C515 C518 1.481 . S
C516 C515 1.375 . S
C516 C517 1.367 . S
C516 H530 0.951 . S
C517 C513 1.383 . S
C517 C516 1.367 . S
C517 H531 0.950 . S
C518 C515 1.481 . S
C518 C519 1.297 . S
C518 H532 0.950 . S
C519 C518 1.297 . S
C519 C520 1.479 . S
C519 H533 0.950 . S
C520 C519 1.479 . S
C520 C521 1.375 . S
C520 C526 1.404 . S
C521 C520 1.375 . S
C521 C522 1.369 . S
C521 H534 0.950 . S
C522 C521 1.369 . S
C522 C523 1.392 . S
C522 H535 0.951 . S
C523 C522 1.392 . S
C523 C525 1.384 . S
H524 C526 0.949 . S
C525 C523 1.384 . S
C525 C526 1.385 . S
C525 H527 0.950 . S
C526 C520 1.404 . S
C526 H524 0.949 . S
C526 C525 1.385 . S
H527 C525 0.950 . S
H528 C512 0.951 . S
H529 C514 0.951 . S
H530 C516 0.951 . S
H531 C517 0.950 . S
H532 C518 0.950 . S
H533 C519 0.950 . S
H534 C521 0.950 . S
H535 C522 0.951 . S
C536 C537 1.386 . S
C536 C538 1.383 . S
C536 H552 0.951 . S
C537 C536 1.386 . S
C537 C541 1.383 . S
C538 C536 1.383 . S
C538 C539 1.402 . S
C538 H553 0.951 1_554 S
C539 C538 1.402 . S
C539 C540 1.375 . S
C539 C542 1.481 . S
C540 C539 1.375 . S
C540 C541 1.367 . S
C540 H554 0.951 . S
C541 C537 1.383 . S
C541 C540 1.367 . S
C541 H555 0.950 . S
C542 C539 1.481 . S
C542 C543 1.297 1_554 S
C542 H556 0.950 . S
C543 C542 1.297 1_556 S
C543 C544 1.479 . S
C543 H557 0.950 . S
C544 C543 1.479 . S
C544 C545 1.375 . S
C544 C550 1.404 . S
C545 C544 1.375 . S
C545 C546 1.369 . S
C545 H558 0.950 . S
C546 C545 1.369 . S
C546 C547 1.392 . S
C546 H559 0.951 . S
C547 C546 1.392 . S
C547 C549 1.384 . S
H548 C550 0.949 . S
C549 C547 1.384 . S
C549 C550 1.385 . S
C549 H551 0.950 . S
C550 C544 1.404 . S
C550 H548 0.949 . S
C550 C549 1.385 . S
H551 C549 0.950 . S
H552 C536 0.951 . S
H553 C538 0.951 1_556 S
H554 C540 0.951 . S
H555 C541 0.950 . S
H556 C542 0.950 . S
H557 C543 0.950 . S
H558 C545 0.950 . S
H559 C546 0.951 . S
C560 C561 1.386 . S
C560 C562 1.383 . S
C560 H576 0.951 . S
C561 C560 1.386 . S
C561 C565 1.383 . S
C562 C560 1.383 . S
C562 C563 1.402 . S
C562 H577 0.951 . S
C563 C562 1.402 . S
C563 C564 1.375 . S
C563 C566 1.481 . S
C564 C563 1.375 . S
C564 C565 1.367 . S
C564 H578 0.951 . S
C565 C561 1.383 . S
C565 C564 1.367 . S
C565 H579 0.950 . S
C566 C563 1.481 . S
C566 C567 1.297 . S
C566 H580 0.950 . S
C567 C566 1.297 . S
C567 C568 1.479 . S
C567 H581 0.950 . S
C568 C567 1.479 . S
C568 C569 1.375 . S
C568 C574 1.404 . S
C569 C568 1.375 . S
C569 C570 1.369 . S
C569 H582 0.950 . S
C570 C569 1.369 . S
C570 C571 1.392 . S
C570 H583 0.951 . S
C571 C570 1.392 . S
C571 C573 1.384 . S
H572 C574 0.949 . S
C573 C571 1.384 . S
C573 C574 1.385 . S
C573 H575 0.950 . S
C574 C568 1.404 . S
C574 H572 0.949 . S
C574 C573 1.385 . S
H575 C573 0.950 . S
H576 C560 0.951 . S
H577 C562 0.951 . S
H578 C564 0.951 . S
H579 C565 0.950 . S
H580 C566 0.950 . S
H581 C567 0.950 . S
H582 C569 0.950 . S
H583 C570 0.951 . S
C584 C585 1.386 . S
C584 C586 1.383 . S
C584 H600 0.951 . S
C585 C584 1.386 . S
C585 C589 1.383 . S
C586 C584 1.383 . S
C586 C587 1.402 . S
C586 H601 0.951 . S
C587 C586 1.402 . S
C587 C588 1.375 . S
C587 C590 1.481 . S
C588 C587 1.375 . S
C588 C589 1.367 . S
C588 H602 0.951 . S
C589 C585 1.383 . S
C589 C588 1.367 . S
C589 H603 0.950 . S
C590 C587 1.481 . S
C590 C591 1.297 . S
C590 H604 0.950 . S
C591 C590 1.297 . S
C591 C592 1.479 . S
C591 H605 0.950 . S
C592 C591 1.479 . S
C592 C593 1.375 . S
C592 C598 1.404 . S
C593 C592 1.375 . S
C593 C594 1.369 . S
C593 H606 0.950 . S
C594 C593 1.369 . S
C594 C595 1.392 . S
C594 H607 0.951 . S
C595 C594 1.392 . S
C595 C597 1.384 . S
H596 C598 0.949 . S
C597 C595 1.384 . S
C597 C598 1.385 . S
C597 H599 0.950 . S
C598 C592 1.404 . S
C598 H596 0.949 . S
C598 C597 1.385 . S
H599 C597 0.950 . S
H600 C584 0.951 . S
H601 C586 0.951 . S
H602 C588 0.951 . S
H603 C589 0.950 . S
H604 C590 0.950 . S
H605 C591 0.950 . S
H606 C593 0.950 . S
H607 C594 0.951 . S
C321 C42 1.486 . S
C331 C2 1.479 . S
C345 C61 1.491 . S
C355 C95 1.491 . S
C369 C82 1.483 . S
C379 C122 1.474 . S
C393 C21 1.478 . S
C403 C135 1.494 . S
C417 C221 1.496 . S
C427 C15 1.489 . S
C441 C141 1.491 . S
C451 C175 1.487 . S
C465 C55 1.498 . S
C475 C261 1.465 . S
C489 C295 1.498 . S
C499 C101 1.460 . S
C513 C282 1.484 . S
C523 C162 1.478 . S
C537 C215 1.496 . S
C547 C181 1.502 . S
C561 C202 1.492 . S
C571 C242 1.489 . S
C585 C255 1.498 . S
C595 C301 1.461 . S
