# Generated by pormake.
# Topology hbo, (4)-cn, num edge types: 1
# Building blocks:
#     Node 0, Type 0, BuildingBlock: GALJAG_clean_sbu_0, # of connection points: 4
#     Node 1, Type 0, BuildingBlock: GALJAG_clean_sbu_0, # of connection points: 4
#     Node 2, Type 0, BuildingBlock: GALJAG_clean_sbu_0, # of connection points: 4
#     Node 3, Type 0, BuildingBlock: GALJAG_clean_sbu_0, # of connection points: 4
#     Node 4, Type 0, BuildingBlock: GALJAG_clean_sbu_0, # of connection points: 4
#     Node 5, Type 0, BuildingBlock: GALJAG_clean_sbu_0, # of connection points: 4
#     Node 6, Type 0, BuildingBlock: GALJAG_clean_sbu_0, # of connection points: 4
#     Node 7, Type 0, BuildingBlock: GALJAG_clean_sbu_0, # of connection points: 4
#     Node 8, Type 0, BuildingBlock: GALJAG_clean_sbu_0, # of connection points: 4
#     Node 9, Type 0, BuildingBlock: GALJAG_clean_sbu_0, # of connection points: 4
#     Node 10, Type 0, BuildingBlock: GALJAG_clean_sbu_0, # of connection points: 4
#     Node 11, Type 0, BuildingBlock: GALJAG_clean_sbu_0, # of connection points: 4
#     Node 12, Type 0, BuildingBlock: GALJAG_clean_sbu_0, # of connection points: 4
#     Node 13, Type 0, BuildingBlock: GALJAG_clean_sbu_0, # of connection points: 4
#     Node 14, Type 0, BuildingBlock: GALJAG_clean_sbu_0, # of connection points: 4
#     Node 15, Type 0, BuildingBlock: GALJAG_clean_sbu_0, # of connection points: 4
#     Node 16, Type 0, BuildingBlock: GALJAG_clean_sbu_0, # of connection points: 4
#     Node 17, Type 0, BuildingBlock: GALJAG_clean_sbu_0, # of connection points: 4
#     Node 18, Type 0, BuildingBlock: GALJAG_clean_sbu_0, # of connection points: 4
#     Node 19, Type 0, BuildingBlock: GALJAG_clean_sbu_0, # of connection points: 4
#     Node 20, Type 0, BuildingBlock: GALJAG_clean_sbu_0, # of connection points: 4
#     Node 21, Type 0, BuildingBlock: GALJAG_clean_sbu_0, # of connection points: 4
#     Node 22, Type 0, BuildingBlock: GALJAG_clean_sbu_0, # of connection points: 4
#     Node 23, Type 0, BuildingBlock: GALJAG_clean_sbu_0, # of connection points: 4
#     Edge 24, Type (0, 0), BuildingBlock: EZIPEK_clean_linker_0, # of connection points: 2
#     Edge 25, Type (0, 0), BuildingBlock: EZIPEK_clean_linker_0, # of connection points: 2
#     Edge 26, Type (0, 0), BuildingBlock: EZIPEK_clean_linker_0, # of connection points: 2
#     Edge 27, Type (0, 0), BuildingBlock: EZIPEK_clean_linker_0, # of connection points: 2
#     Edge 28, Type (0, 0), BuildingBlock: EZIPEK_clean_linker_0, # of connection points: 2
#     Edge 29, Type (0, 0), BuildingBlock: EZIPEK_clean_linker_0, # of connection points: 2
#     Edge 30, Type (0, 0), BuildingBlock: EZIPEK_clean_linker_0, # of connection points: 2
#     Edge 31, Type (0, 0), BuildingBlock: EZIPEK_clean_linker_0, # of connection points: 2
#     Edge 32, Type (0, 0), BuildingBlock: EZIPEK_clean_linker_0, # of connection points: 2
#     Edge 33, Type (0, 0), BuildingBlock: EZIPEK_clean_linker_0, # of connection points: 2
#     Edge 34, Type (0, 0), BuildingBlock: EZIPEK_clean_linker_0, # of connection points: 2
#     Edge 35, Type (0, 0), BuildingBlock: EZIPEK_clean_linker_0, # of connection points: 2
#     Edge 36, Type (0, 0), BuildingBlock: EZIPEK_clean_linker_0, # of connection points: 2
#     Edge 37, Type (0, 0), BuildingBlock: EZIPEK_clean_linker_0, # of connection points: 2
#     Edge 38, Type (0, 0), BuildingBlock: EZIPEK_clean_linker_0, # of connection points: 2
#     Edge 39, Type (0, 0), BuildingBlock: EZIPEK_clean_linker_0, # of connection points: 2
#     Edge 40, Type (0, 0), BuildingBlock: EZIPEK_clean_linker_0, # of connection points: 2
#     Edge 41, Type (0, 0), BuildingBlock: EZIPEK_clean_linker_0, # of connection points: 2
#     Edge 42, Type (0, 0), BuildingBlock: EZIPEK_clean_linker_0, # of connection points: 2
#     Edge 43, Type (0, 0), BuildingBlock: EZIPEK_clean_linker_0, # of connection points: 2
#     Edge 44, Type (0, 0), BuildingBlock: EZIPEK_clean_linker_0, # of connection points: 2
#     Edge 45, Type (0, 0), BuildingBlock: EZIPEK_clean_linker_0, # of connection points: 2
#     Edge 46, Type (0, 0), BuildingBlock: EZIPEK_clean_linker_0, # of connection points: 2
#     Edge 47, Type (0, 0), BuildingBlock: EZIPEK_clean_linker_0, # of connection points: 2
#     Edge 48, Type (0, 0), BuildingBlock: EZIPEK_clean_linker_0, # of connection points: 2
#     Edge 49, Type (0, 0), BuildingBlock: EZIPEK_clean_linker_0, # of connection points: 2
#     Edge 50, Type (0, 0), BuildingBlock: EZIPEK_clean_linker_0, # of connection points: 2
#     Edge 51, Type (0, 0), BuildingBlock: EZIPEK_clean_linker_0, # of connection points: 2
#     Edge 52, Type (0, 0), BuildingBlock: EZIPEK_clean_linker_0, # of connection points: 2
#     Edge 53, Type (0, 0), BuildingBlock: EZIPEK_clean_linker_0, # of connection points: 2
#     Edge 54, Type (0, 0), BuildingBlock: EZIPEK_clean_linker_0, # of connection points: 2
#     Edge 55, Type (0, 0), BuildingBlock: EZIPEK_clean_linker_0, # of connection points: 2
#     Edge 56, Type (0, 0), BuildingBlock: EZIPEK_clean_linker_0, # of connection points: 2
#     Edge 57, Type (0, 0), BuildingBlock: EZIPEK_clean_linker_0, # of connection points: 2
#     Edge 58, Type (0, 0), BuildingBlock: EZIPEK_clean_linker_0, # of connection points: 2
#     Edge 59, Type (0, 0), BuildingBlock: EZIPEK_clean_linker_0, # of connection points: 2
#     Edge 60, Type (0, 0), BuildingBlock: EZIPEK_clean_linker_0, # of connection points: 2
#     Edge 61, Type (0, 0), BuildingBlock: EZIPEK_clean_linker_0, # of connection points: 2
#     Edge 62, Type (0, 0), BuildingBlock: EZIPEK_clean_linker_0, # of connection points: 2
#     Edge 63, Type (0, 0), BuildingBlock: EZIPEK_clean_linker_0, # of connection points: 2
#     Edge 64, Type (0, 0), BuildingBlock: EZIPEK_clean_linker_0, # of connection points: 2
#     Edge 65, Type (0, 0), BuildingBlock: EZIPEK_clean_linker_0, # of connection points: 2
#     Edge 66, Type (0, 0), BuildingBlock: EZIPEK_clean_linker_0, # of connection points: 2
#     Edge 67, Type (0, 0), BuildingBlock: EZIPEK_clean_linker_0, # of connection points: 2
#     Edge 68, Type (0, 0), BuildingBlock: EZIPEK_clean_linker_0, # of connection points: 2
#     Edge 69, Type (0, 0), BuildingBlock: EZIPEK_clean_linker_0, # of connection points: 2
#     Edge 70, Type (0, 0), BuildingBlock: EZIPEK_clean_linker_0, # of connection points: 2
#     Edge 71, Type (0, 0), BuildingBlock: EZIPEK_clean_linker_0, # of connection points: 2
# Relax obj value: 0.092
# Max RMSD: 0.160
# Mean RMSD: 0.160
data_MOF--net-hbo--node1-GALJAG_clean_sbu_0--edge1-EZIPEK_clean_linker_0
_symmetry_space_group_name_H-M    P1
_symmetry_Int_Tables_number       1
_symmetry_cell_setting            triclinic
loop_
_symmetry_equiv_pos_as_xyz
'x, y, z'
_cell_length_a     39.467987
_cell_length_b     39.304275
_cell_length_c     39.366422
_cell_angle_alpha  89.979472
_cell_angle_beta   89.872333
_cell_angle_gamma 90.021713
loop_
_atom_site_label
_atom_site_type_symbol
_atom_site_fract_x
_atom_site_fract_y
_atom_site_fract_z
_atom_type_partial_charge
In0 In 0.13344 0.35619 0.24272 0.0
O1 O 0.12711 0.40519 0.27353 0.0
O2 O 0.15358 0.40776 0.22654 0.0
C3 C 0.14438 0.30793 0.28985 0.0
C4 C 0.06837 0.35386 0.2234 0.0
C5 C 0.18353 0.33454 0.20276 0.0
O6 O 0.14647 0.33924 0.29684 0.0
O7 O 0.13502 0.30156 0.25995 0.0
O8 O 0.15283 0.33229 0.19386 0.0
O9 O 0.18889 0.34855 0.23111 0.0
C10 C 0.14205 0.42349 0.25187 0.0
O11 O 0.09196 0.35832 0.20221 0.0
O12 O 0.07757 0.35042 0.25378 0.0
In13 In 0.1325 0.63307 0.74742 0.0
O14 O 0.1331 0.59168 0.70643 0.0
O15 O 0.13606 0.57689 0.75846 0.0
C16 C 0.14639 0.68987 0.71217 0.0
C17 C 0.06667 0.63809 0.76267 0.0
C18 C 0.18439 0.64068 0.79059 0.0
O19 O 0.15493 0.66073 0.70164 0.0
O20 O 0.12928 0.69008 0.73928 0.0
O21 O 0.15418 0.63807 0.8009 0.0
O22 O 0.18834 0.63757 0.75896 0.0
C23 C 0.13511 0.56784 0.72782 0.0
O24 O 0.08927 0.63989 0.78523 0.0
O25 O 0.07721 0.63455 0.7326 0.0
In26 In 0.85562 0.63182 0.24583 0.0
O27 O 0.8534 0.58174 0.27543 0.0
O28 O 0.84396 0.58106 0.22211 0.0
C29 C 0.85277 0.6823 0.29181 0.0
C30 C 0.9218 0.63204 0.2314 0.0
C31 C 0.80249 0.65463 0.2111 0.0
O32 O 0.84183 0.65265 0.29824 0.0
O33 O 0.86456 0.68563 0.26217 0.0
O34 O 0.83221 0.65625 0.19904 0.0
O35 O 0.7997 0.64085 0.23994 0.0
C36 C 0.84735 0.56427 0.24915 0.0
O37 O 0.89976 0.63372 0.20816 0.0
O38 O 0.9103 0.63038 0.26124 0.0
In39 In 0.858 0.36033 0.74595 0.0
O40 O 0.85733 0.39946 0.7031 0.0
O41 O 0.86377 0.41656 0.75433 0.0
C42 C 0.84349 0.3052 0.70858 0.0
C43 C 0.92275 0.35523 0.76443 0.0
C44 C 0.80278 0.35551 0.78584 0.0
O45 O 0.83609 0.33483 0.69859 0.0
O46 O 0.85932 0.30373 0.73629 0.0
O47 O 0.82973 0.33952 0.7922 0.0
O48 O 0.80463 0.37574 0.76111 0.0
C49 C 0.86137 0.42415 0.72329 0.0
O50 O 0.89964 0.36083 0.78599 0.0
O51 O 0.91313 0.35169 0.73412 0.0
In52 In 0.24347 0.13405 0.35469 0.0
O53 O 0.21094 0.09054 0.33346 0.0
O54 O 0.2543 0.07842 0.36321 0.0
C55 C 0.20296 0.18843 0.34579 0.0
C56 C 0.25507 0.14242 0.4211 0.0
C57 C 0.28841 0.14184 0.30387 0.0
O58 O 0.1912 0.15957 0.35376 0.0
O59 O 0.23476 0.18949 0.34296 0.0
O60 O 0.29774 0.13619 0.33407 0.0
O61 O 0.25675 0.14227 0.29953 0.0
C62 C 0.22936 0.06771 0.34643 0.0
O63 O 0.27714 0.15003 0.39906 0.0
O64 O 0.22755 0.13099 0.40964 0.0
In65 In 0.35814 0.73744 0.85712 0.0
O66 O 0.40042 0.70057 0.84139 0.0
O67 O 0.4138 0.74833 0.8632 0.0
C68 C 0.30366 0.69741 0.84863 0.0
C69 C 0.3491 0.75504 0.92224 0.0
C70 C 0.35264 0.77863 0.8028 0.0
O71 O 0.33227 0.68527 0.85647 0.0
O72 O 0.30266 0.72941 0.84651 0.0
O73 O 0.36057 0.78981 0.83181 0.0
O74 O 0.34879 0.74681 0.8013 0.0
C75 C 0.42365 0.72047 0.85095 0.0
O76 O 0.34196 0.77512 0.89827 0.0
O77 O 0.36013 0.72631 0.91338 0.0
In78 In 0.7412 0.84803 0.35663 0.0
O79 O 0.70895 0.84648 0.40498 0.0
O80 O 0.76236 0.84167 0.40973 0.0
C81 C 0.69575 0.83437 0.30819 0.0
C82 C 0.75003 0.91555 0.35009 0.0
C83 C 0.78476 0.79785 0.34221 0.0
O84 O 0.68911 0.83075 0.33943 0.0
O85 O 0.72527 0.84493 0.3015 0.0
O86 O 0.79352 0.82881 0.34238 0.0
O87 O 0.75405 0.79232 0.34947 0.0
C88 C 0.73412 0.8436 0.42443 0.0
O89 O 0.7747 0.89516 0.34911 0.0
O90 O 0.72143 0.90183 0.35343 0.0
In91 In 0.63282 0.25533 0.85618 0.0
O92 O 0.63925 0.2159 0.89829 0.0
O93 O 0.6304 0.2676 0.91217 0.0
C94 C 0.64542 0.21809 0.80053 0.0
C95 C 0.56633 0.2662 0.85123 0.0
C96 C 0.68293 0.30046 0.84628 0.0
O97 O 0.65299 0.20766 0.8299 0.0
O98 O 0.63077 0.24657 0.79943 0.0
O99 O 0.65221 0.30925 0.84705 0.0
O100 O 0.6884 0.26955 0.8528 0.0
C101 C 0.63488 0.23736 0.92171 0.0
O102 O 0.58743 0.29029 0.84975 0.0
O103 O 0.5787 0.23681 0.85437 0.0
In104 In 0.25453 0.85646 0.63536 0.0
O105 O 0.28626 0.84209 0.58892 0.0
O106 O 0.23449 0.85549 0.58155 0.0
C107 C 0.29922 0.84328 0.6851 0.0
C108 C 0.2454 0.92408 0.63862 0.0
C109 C 0.21062 0.80735 0.65314 0.0
O110 O 0.30797 0.84413 0.65425 0.0
O111 O 0.26875 0.85111 0.69064 0.0
O112 O 0.20358 0.83853 0.65629 0.0
O113 O 0.23905 0.80101 0.63987 0.0
C114 C 0.26224 0.8467 0.56834 0.0
O115 O 0.2212 0.90343 0.64215 0.0
O116 O 0.27407 0.91079 0.63395 0.0
In117 In 0.62919 0.75167 0.13503 0.0
O118 O 0.63694 0.7878 0.09028 0.0
O119 O 0.63869 0.73414 0.08144 0.0
C120 C 0.62686 0.79078 0.19119 0.0
C121 C 0.56402 0.73416 0.13238 0.0
C122 C 0.68486 0.71761 0.15259 0.0
O123 O 0.63714 0.80205 0.16284 0.0
O124 O 0.61796 0.75998 0.19038 0.0
O125 O 0.65657 0.70281 0.14952 0.0
O126 O 0.68509 0.74901 0.146 0.0
C127 C 0.64022 0.76374 0.06919 0.0
O128 O 0.58668 0.71265 0.13971 0.0
O129 O 0.57433 0.76382 0.12582 0.0
In130 In 0.74251 0.13561 0.63149 0.0
O131 O 0.7085 0.1412 0.58505 0.0
O132 O 0.76156 0.13371 0.57742 0.0
C133 C 0.69949 0.15358 0.6811 0.0
C134 C 0.75153 0.06856 0.63872 0.0
C135 C 0.78618 0.18561 0.64677 0.0
O136 O 0.69324 0.15971 0.65024 0.0
O137 O 0.72605 0.13672 0.68653 0.0
O138 O 0.79238 0.15487 0.65365 0.0
O139 O 0.75943 0.19067 0.63016 0.0
C140 C 0.73275 0.13803 0.56434 0.0
O141 O 0.77615 0.08908 0.63831 0.0
O142 O 0.72256 0.08182 0.63598 0.0
In143 In 0.36154 0.24098 0.13546 0.0
O144 O 0.40005 0.28427 0.13884 0.0
O145 O 0.41792 0.23314 0.14163 0.0
C146 C 0.30325 0.27371 0.14685 0.0
C147 C 0.35773 0.22799 0.06881 0.0
C148 C 0.35293 0.19772 0.18753 0.0
O149 O 0.3315 0.28609 0.15546 0.0
O150 O 0.30459 0.2457 0.13128 0.0
O151 O 0.35895 0.18723 0.15777 0.0
O152 O 0.35336 0.22959 0.19102 0.0
C153 C 0.42496 0.26439 0.14159 0.0
O154 O 0.35704 0.20439 0.09058 0.0
O155 O 0.36038 0.25768 0.08059 0.0
In156 In 0.85755 0.63022 0.74733 0.0
O157 O 0.90022 0.63022 0.78642 0.0
O158 O 0.91234 0.63917 0.7342 0.0
C159 C 0.80326 0.63559 0.78841 0.0
C160 C 0.86081 0.56656 0.7241 0.0
C161 C 0.84082 0.68524 0.71072 0.0
O162 O 0.83082 0.65059 0.79472 0.0
O163 O 0.80414 0.6158 0.76327 0.0
O164 O 0.83228 0.65561 0.7017 0.0
O165 O 0.85923 0.68671 0.73677 0.0
C166 C 0.92279 0.63584 0.76426 0.0
O167 O 0.85859 0.59161 0.70406 0.0
O168 O 0.8615 0.57372 0.75534 0.0
In169 In 0.85744 0.35093 0.22842 0.0
O170 O 0.85976 0.3978 0.26283 0.0
O171 O 0.84006 0.40357 0.21294 0.0
C172 C 0.84394 0.2977 0.26922 0.0
C173 C 0.92435 0.35191 0.21719 0.0
C174 C 0.81161 0.3341 0.18156 0.0
O175 O 0.83298 0.3272 0.27568 0.0
O176 O 0.86262 0.29555 0.24331 0.0
O177 O 0.84301 0.33382 0.17501 0.0
O178 O 0.80367 0.34391 0.21106 0.0
C179 C 0.84829 0.41762 0.24043 0.0
O180 O 0.90343 0.34945 0.19307 0.0
O181 O 0.91156 0.35367 0.24649 0.0
In182 In 0.1321 0.3597 0.75169 0.0
O183 O 0.08867 0.3513 0.78892 0.0
O184 O 0.07703 0.35939 0.7365 0.0
C185 C 0.18513 0.35419 0.79403 0.0
C186 C 0.13488 0.42449 0.73069 0.0
C187 C 0.14308 0.30191 0.71731 0.0
O188 O 0.15548 0.35954 0.80483 0.0
O189 O 0.18794 0.35332 0.76215 0.0
O190 O 0.15 0.33074 0.70485 0.0
O191 O 0.12943 0.3024 0.74633 0.0
C192 C 0.06629 0.3543 0.76626 0.0
O193 O 0.13741 0.40008 0.71001 0.0
O194 O 0.1313 0.41621 0.76138 0.0
In195 In 0.13234 0.63793 0.24937 0.0
O196 O 0.1337 0.58772 0.27875 0.0
O197 O 0.14893 0.58756 0.22688 0.0
C198 C 0.13462 0.68706 0.29723 0.0
C199 C 0.06639 0.63555 0.23401 0.0
C200 C 0.18264 0.66245 0.21136 0.0
O201 O 0.14815 0.65817 0.30144 0.0
O202 O 0.12067 0.69067 0.26867 0.0
O203 O 0.15248 0.66157 0.20061 0.0
O204 O 0.18735 0.65076 0.24084 0.0
C205 C 0.14306 0.57051 0.25332 0.0
O206 O 0.08857 0.64157 0.21158 0.0
O207 O 0.07755 0.6309 0.26361 0.0
In208 In 0.7369 0.85613 0.63777 0.0
O209 O 0.77136 0.90141 0.6486 0.0
O210 O 0.71983 0.91109 0.63562 0.0
C211 C 0.77768 0.804 0.65319 0.0
C212 C 0.73095 0.8496 0.57042 0.0
C213 C 0.69208 0.8427 0.68726 0.0
O214 O 0.78704 0.83457 0.65643 0.0
O215 O 0.74844 0.79979 0.64104 0.0
O216 O 0.68379 0.84205 0.65628 0.0
O217 O 0.72194 0.85244 0.69299 0.0
C218 C 0.74848 0.92309 0.64305 0.0
O219 O 0.70557 0.84761 0.58989 0.0
O220 O 0.75895 0.85468 0.58489 0.0
In221 In 0.62953 0.24486 0.13148 0.0
O222 O 0.63156 0.207 0.08771 0.0
O223 O 0.62427 0.25983 0.07667 0.0
C224 C 0.64027 0.20351 0.18472 0.0
C225 C 0.56651 0.2683 0.14071 0.0
C226 C 0.68943 0.27673 0.13384 0.0
O227 O 0.63088 0.19209 0.15625 0.0
O228 O 0.64333 0.23538 0.18615 0.0
O229 O 0.66343 0.28831 0.14871 0.0
O230 O 0.68468 0.25011 0.11662 0.0
C231 C 0.62786 0.22996 0.06549 0.0
O232 O 0.59136 0.28837 0.13792 0.0
O233 O 0.57363 0.23711 0.13964 0.0
In234 In 0.24607 0.13797 0.63339 0.0
O235 O 0.28011 0.14545 0.58717 0.0
O236 O 0.22681 0.14076 0.57943 0.0
C237 C 0.28839 0.15793 0.68252 0.0
C238 C 0.24117 0.07018 0.63726 0.0
C239 C 0.19955 0.18382 0.65267 0.0
O240 O 0.29373 0.16514 0.65169 0.0
O241 O 0.26322 0.13899 0.68811 0.0
O242 O 0.1959 0.15245 0.65864 0.0
O243 O 0.22505 0.19149 0.63498 0.0
C244 C 0.2558 0.1444 0.56641 0.0
O245 O 0.21533 0.08897 0.6351 0.0
O246 O 0.26925 0.08547 0.63785 0.0
In247 In 0.35592 0.75803 0.13326 0.0
O248 O 0.39686 0.71726 0.13778 0.0
O249 O 0.41194 0.76907 0.13157 0.0
C250 C 0.29879 0.72515 0.14937 0.0
C251 C 0.34853 0.76693 0.06646 0.0
C252 C 0.34963 0.80157 0.18506 0.0
O253 O 0.32764 0.71192 0.15382 0.0
O254 O 0.29876 0.75412 0.13556 0.0
O255 O 0.35092 0.81177 0.15462 0.0
O256 O 0.3544 0.7701 0.18911 0.0
C257 C 0.42075 0.73843 0.13489 0.0
O258 O 0.34914 0.79189 0.08668 0.0
O259 O 0.35099 0.73797 0.08 0.0
In260 In 0.74348 0.12959 0.35153 0.0
O261 O 0.77664 0.08174 0.3531 0.0
O262 O 0.7243 0.07632 0.34162 0.0
C263 C 0.78582 0.17957 0.33324 0.0
C264 C 0.7342 0.13611 0.41874 0.0
C265 C 0.69893 0.14403 0.30238 0.0
O266 O 0.79352 0.14854 0.32962 0.0
O267 O 0.75768 0.1852 0.34743 0.0
O268 O 0.69038 0.14362 0.33338 0.0
O269 O 0.72936 0.136 0.29659 0.0
C270 C 0.75231 0.06197 0.34661 0.0
O271 O 0.70959 0.13519 0.39835 0.0
O272 O 0.7631 0.13463 0.40525 0.0
In273 In 0.35542 0.25489 0.85994 0.0
O274 O 0.3528 0.21364 0.90089 0.0
O275 O 0.35166 0.2657 0.91612 0.0
C276 C 0.34228 0.22095 0.8026 0.0
C277 C 0.42179 0.26649 0.85447 0.0
C278 C 0.30397 0.29862 0.8521 0.0
O279 O 0.33528 0.20871 0.83149 0.0
O280 O 0.35676 0.24958 0.80278 0.0
O281 O 0.33424 0.30871 0.85487 0.0
O282 O 0.29985 0.26693 0.85512 0.0
C283 C 0.35165 0.2349 0.92487 0.0
O284 O 0.4007 0.29058 0.85598 0.0
O285 O 0.40949 0.23692 0.85548 0.0
In286 In 0.24159 0.85592 0.35745 0.0
O287 O 0.20807 0.90003 0.33927 0.0
O288 O 0.25533 0.91137 0.36277 0.0
C289 C 0.19812 0.80394 0.34925 0.0
C290 C 0.25571 0.84669 0.4234 0.0
C291 C 0.28422 0.84888 0.30454 0.0
O292 O 0.18809 0.83371 0.35626 0.0
O293 O 0.22982 0.80055 0.34703 0.0
O294 O 0.29468 0.85672 0.33384 0.0
O295 O 0.2526 0.84496 0.3023 0.0
C296 C 0.22885 0.92251 0.3489 0.0
O297 O 0.27529 0.83602 0.40032 0.0
O298 O 0.22938 0.86159 0.41322 0.0
In299 In 0.63336 0.73608 0.86045 0.0
O300 O 0.65153 0.7733 0.90116 0.0
O301 O 0.62979 0.72625 0.91702 0.0
C302 C 0.64101 0.77659 0.80554 0.0
C303 C 0.56748 0.72046 0.85359 0.0
C304 C 0.68427 0.69232 0.84994 0.0
O305 O 0.62895 0.78755 0.83315 0.0
O306 O 0.64856 0.74549 0.80578 0.0
O307 O 0.65376 0.68257 0.85149 0.0
O308 O 0.68907 0.72359 0.85546 0.0
C309 C 0.64272 0.75428 0.92541 0.0
O310 O 0.59031 0.69825 0.85021 0.0
O311 O 0.57788 0.74998 0.86027 0.0
C312 C 0.1233 0.51526 0.22864 0.0
C313 C 0.14312 0.53284 0.25316 0.0
C314 C 0.15924 0.47851 0.27939 0.0
C315 C 0.14171 0.46104 0.25324 0.0
N316 N 0.10853 0.462 0.2017 0.0
N317 N 0.18377 0.53171 0.29877 0.0
C318 C 0.12434 0.47921 0.22743 0.0
C319 C 0.16192 0.51462 0.27792 0.0
N320 N 0.10186 0.53282 0.20769 0.0
N321 N 0.17342 0.46059 0.30551 0.0
H322 H 0.18705 0.55802 0.29785 0.0
H323 H 0.20083 0.51976 0.31498 0.0
H324 H 0.17374 0.43408 0.30641 0.0
H325 H 0.18301 0.47188 0.32739 0.0
H326 H 0.08341 0.52131 0.19274 0.0
H327 H 0.10014 0.55922 0.20699 0.0
H328 H 0.10033 0.47355 0.17938 0.0
H329 H 0.10481 0.43575 0.20168 0.0
C330 C 0.97754 0.60924 0.78234 0.0
C331 C 0.95916 0.63853 0.77218 0.0
C332 C 0.01186 0.66949 0.76136 0.0
C333 C 0.03024 0.63992 0.77046 0.0
N334 N 0.03205 0.58449 0.79663 0.0
N335 N 0.95764 0.69865 0.76076 0.0
C336 C 0.01351 0.61079 0.78356 0.0
C337 C 0.97604 0.6694 0.76449 0.0
N338 N 0.96079 0.57942 0.78863 0.0
N339 N 0.02867 0.69726 0.74887 0.0
H340 H 0.93134 0.69928 0.76354 0.0
H341 H 0.96841 0.72266 0.75802 0.0
H342 H 0.05505 0.69889 0.74812 0.0
H343 H 0.01664 0.71807 0.73786 0.0
H344 H 0.97284 0.5561 0.79184 0.0
H345 H 0.93446 0.57745 0.78876 0.0
H346 H 0.02145 0.56397 0.80956 0.0
H347 H 0.05847 0.58435 0.79686 0.0
C348 C 0.82904 0.47115 0.26967 0.0
C349 C 0.84873 0.45504 0.24408 0.0
C350 C 0.8708 0.51029 0.22562 0.0
C351 C 0.84843 0.52667 0.24871 0.0
N352 N 0.80321 0.52345 0.28986 0.0
N353 N 0.88608 0.45922 0.1953 0.0
C354 C 0.82695 0.50733 0.27028 0.0
C355 C 0.86883 0.47459 0.22131 0.0
N356 N 0.81202 0.45191 0.29309 0.0
N357 N 0.89525 0.5286 0.20897 0.0
H358 H 0.88844 0.43299 0.19256 0.0
H359 H 0.89667 0.47259 0.17504 0.0
H360 H 0.89791 0.55487 0.21103 0.0
H361 H 0.9151 0.5175 0.1955 0.0
H362 H 0.80062 0.46202 0.31471 0.0
H363 H 0.81094 0.42543 0.29209 0.0
H364 H 0.78432 0.51077 0.30333 0.0
H365 H 0.80054 0.54983 0.29055 0.0
C366 C 0.01197 0.32211 0.76678 0.0
C367 C 0.02985 0.35258 0.77364 0.0
C368 C 0.97677 0.38373 0.7812 0.0
C369 C 0.95887 0.35346 0.77329 0.0
N370 N 0.9579 0.2926 0.76683 0.0
N371 N 0.03076 0.41015 0.79456 0.0
C372 C 0.97607 0.32217 0.76879 0.0
C373 C 0.01266 0.38264 0.78347 0.0
N374 N 0.02933 0.29357 0.75718 0.0
N375 N 0.95963 0.41381 0.78438 0.0
H376 H 0.05717 0.41028 0.79577 0.0
H377 H 0.01976 0.43181 0.80503 0.0
H378 H 0.93328 0.41546 0.78371 0.0
H379 H 0.97141 0.43746 0.78582 0.0
H380 H 0.01779 0.27168 0.74789 0.0
H381 H 0.05575 0.29229 0.75707 0.0
H382 H 0.96883 0.26852 0.76643 0.0
H383 H 0.93151 0.29204 0.76859 0.0
C384 C 0.16335 0.47797 0.71115 0.0
C385 C 0.13328 0.46038 0.72019 0.0
C386 C 0.10232 0.51395 0.72551 0.0
C387 C 0.13289 0.53163 0.71864 0.0
N388 N 0.18988 0.53203 0.69694 0.0
N389 N 0.07269 0.4598 0.7271 0.0
C390 C 0.16253 0.51406 0.7085 0.0
C391 C 0.1022 0.47789 0.72438 0.0
N392 N 0.19293 0.4603 0.7072 0.0
N393 N 0.07386 0.53177 0.73435 0.0
H394 H 0.07201 0.43327 0.72596 0.0
H395 H 0.04872 0.4708 0.72763 0.0
H396 H 0.07262 0.55827 0.73329 0.0
H397 H 0.05188 0.5206 0.74383 0.0
H398 H 0.21656 0.47172 0.70442 0.0
H399 H 0.19408 0.4338 0.70819 0.0
H400 H 0.21143 0.52085 0.68655 0.0
H401 H 0.18989 0.55853 0.69528 0.0
C402 C 0.97701 0.60209 0.23804 0.0
C403 C 0.95861 0.63023 0.22496 0.0
C404 C 0.01162 0.66066 0.21334 0.0
C405 C 0.02987 0.63256 0.22665 0.0
N406 N 0.03103 0.57371 0.24398 0.0
N407 N 0.95787 0.68319 0.19382 0.0
C408 C 0.01285 0.60236 0.23651 0.0
C409 C 0.97578 0.65832 0.21012 0.0
N410 N 0.96026 0.57552 0.25305 0.0
N411 N 0.02812 0.69046 0.20629 0.0
H412 H 0.93153 0.68356 0.1926 0.0
H413 H 0.96917 0.70219 0.17925 0.0
H414 H 0.05425 0.69342 0.20857 0.0
H415 H 0.01579 0.71315 0.20059 0.0
H416 H 0.97223 0.5567 0.26724 0.0
H417 H 0.934 0.57308 0.25305 0.0
H418 H 0.02021 0.54976 0.24722 0.0
H419 H 0.05739 0.57316 0.24419 0.0
C420 C 0.83397 0.51366 0.7019 0.0
C421 C 0.86353 0.53104 0.71256 0.0
C422 C 0.89444 0.47727 0.71633 0.0
C423 C 0.86335 0.45983 0.71215 0.0
N424 N 0.80374 0.45988 0.69919 0.0
N425 N 0.92287 0.53116 0.72639 0.0
C426 C 0.83328 0.47753 0.70351 0.0
C427 C 0.89427 0.51333 0.71819 0.0
N428 N 0.80649 0.53179 0.69107 0.0
N429 N 0.92388 0.45907 0.71852 0.0
H430 H 0.92387 0.55769 0.7256 0.0
H431 H 0.94528 0.52001 0.73469 0.0
H432 H 0.92439 0.43258 0.71667 0.0
H433 H 0.94789 0.46995 0.7195 0.0
H434 H 0.78507 0.52081 0.68029 0.0
H435 H 0.80619 0.55831 0.69033 0.0
H436 H 0.78007 0.47127 0.69689 0.0
H437 H 0.80265 0.43337 0.69929 0.0
C438 C 0.97994 0.32649 0.1995 0.0
C439 C 0.96124 0.35469 0.21198 0.0
C440 C 0.01363 0.38492 0.22578 0.0
C441 C 0.03228 0.35625 0.21449 0.0
N442 N 0.03491 0.30336 0.18381 0.0
N443 N 0.95928 0.41341 0.22951 0.0
C444 C 0.01594 0.32828 0.19883 0.0
C445 C 0.97785 0.38481 0.22274 0.0
N446 N 0.96341 0.29729 0.19042 0.0
N447 N 0.03022 0.41181 0.24029 0.0
H448 H 0.93294 0.41401 0.22795 0.0
H449 H 0.96982 0.43723 0.2341 0.0
H450 H 0.05658 0.41378 0.24079 0.0
H451 H 0.01812 0.43158 0.25302 0.0
H452 H 0.97561 0.2745 0.18487 0.0
H453 H 0.93708 0.29512 0.19036 0.0
H454 H 0.0247 0.28387 0.16916 0.0
H455 H 0.06134 0.30365 0.18374 0.0
C456 C 0.27999 0.12263 0.51157 0.0
C457 C 0.26047 0.14722 0.52935 0.0
C458 C 0.24017 0.17098 0.47572 0.0
C459 C 0.26022 0.1469 0.4579 0.0
N460 N 0.30437 0.10446 0.45797 0.0
N461 N 0.22905 0.19977 0.52902 0.0
C462 C 0.28211 0.12448 0.47557 0.0
C463 C 0.24271 0.17297 0.51158 0.0
N464 N 0.29445 0.09612 0.52878 0.0
N465 N 0.21807 0.19138 0.45843 0.0
H466 H 0.23109 0.20234 0.55532 0.0
H467 H 0.21861 0.22106 0.51729 0.0
H468 H 0.21659 0.19182 0.43201 0.0
H469 H 0.19979 0.20638 0.47026 0.0
H470 H 0.3055 0.07524 0.51684 0.0
H471 H 0.29308 0.09338 0.55508 0.0
H472 H 0.32346 0.09036 0.46956 0.0
H473 H 0.30559 0.10394 0.43152 0.0
C474 C 0.36825 0.78634 0.97397 0.0
C475 C 0.34485 0.76391 0.95835 0.0
C476 C 0.31804 0.75288 0.0133 0.0
C477 C 0.34481 0.77055 0.02941 0.0
N478 N 0.39716 0.80219 0.02585 0.0
N479 N 0.29847 0.72412 0.96271 0.0
C480 C 0.3701 0.78739 0.01001 0.0
C481 C 0.31982 0.74688 0.97787 0.0
N482 N 0.38919 0.806 0.95441 0.0
N483 N 0.29068 0.74235 0.03193 0.0
H484 H 0.29835 0.71985 0.93661 0.0
H485 H 0.28245 0.70791 0.97617 0.0
H486 H 0.2884 0.74703 0.05794 0.0
H487 H 0.26886 0.73209 0.0212 0.0
H488 H 0.40427 0.82537 0.96423 0.0
H489 H 0.38954 0.80486 0.92795 0.0
H490 H 0.41848 0.81107 0.01299 0.0
H491 H 0.39962 0.80345 0.05216 0.0
C492 C 0.71441 0.81943 0.48006 0.0
C493 C 0.73132 0.84555 0.46175 0.0
C494 C 0.74106 0.8769 0.51449 0.0
C495 C 0.72824 0.84888 0.53311 0.0
N496 N 0.70599 0.79173 0.53453 0.0
N497 N 0.76499 0.89713 0.46179 0.0
C498 C 0.71539 0.81976 0.5162 0.0
C499 C 0.74596 0.87367 0.47902 0.0
N500 N 0.69794 0.79408 0.46299 0.0
N501 N 0.74723 0.90714 0.53055 0.0
H502 H 0.76854 0.89677 0.43559 0.0
H503 H 0.77951 0.91565 0.47386 0.0
H504 H 0.74272 0.91088 0.55641 0.0
H505 H 0.75326 0.92953 0.51773 0.0
H506 H 0.68193 0.77662 0.47479 0.0
H507 H 0.69852 0.79169 0.43662 0.0
H508 H 0.70005 0.76838 0.52358 0.0
H509 H 0.70659 0.7909 0.56099 0.0
C510 C 0.59824 0.23119 0.00984 0.0
C511 C 0.62775 0.22321 0.02871 0.0
C512 C 0.66105 0.21839 0.97636 0.0
C513 C 0.63186 0.22776 0.95771 0.0
N514 N 0.5713 0.23458 0.95458 0.0
N515 N 0.6851 0.20202 0.03067 0.0
C516 C 0.59994 0.23144 0.97386 0.0
C517 C 0.65841 0.21407 0.01214 0.0
N518 N 0.56889 0.23936 0.0265 0.0
N519 N 0.69162 0.21574 0.96014 0.0
H520 H 0.68457 0.19979 0.05703 0.0
H521 H 0.70693 0.19179 0.01989 0.0
H522 H 0.69429 0.21812 0.93387 0.0
H523 H 0.71467 0.21305 0.97263 0.0
H524 H 0.54773 0.24976 0.01467 0.0
H525 H 0.56606 0.23687 0.05276 0.0
H526 H 0.54684 0.23454 0.96451 0.0
H527 H 0.57178 0.23431 0.92808 0.0
C528 C 0.23967 0.82091 0.47913 0.0
C529 C 0.26212 0.84164 0.45996 0.0
C530 C 0.28808 0.86292 0.51225 0.0
C531 C 0.26571 0.84199 0.53132 0.0
N532 N 0.22723 0.79451 0.53341 0.0
N533 N 0.31225 0.87669 0.45722 0.0
C534 C 0.24367 0.8189 0.51485 0.0
C535 C 0.28809 0.8605 0.4762 0.0
N536 N 0.21398 0.80384 0.4633 0.0
N537 N 0.30752 0.88677 0.52834 0.0
H538 H 0.3122 0.8768 0.43074 0.0
H539 H 0.33384 0.88775 0.46761 0.0
H540 H 0.30817 0.88958 0.55465 0.0
H541 H 0.32119 0.90553 0.51561 0.0
H542 H 0.19436 0.79175 0.47628 0.0
H543 H 0.21107 0.80345 0.437 0.0
H544 H 0.21318 0.77489 0.52261 0.0
H545 H 0.23049 0.79185 0.55957 0.0
C546 C 0.61739 0.78276 0.01302 0.0
C547 C 0.64444 0.76905 0.03237 0.0
C548 C 0.6736 0.75101 0.98049 0.0
C549 C 0.64624 0.76406 0.96128 0.0
N550 N 0.59664 0.79948 0.95747 0.0
N551 N 0.70158 0.74784 0.03528 0.0
C552 C 0.61973 0.78254 0.97702 0.0
C553 C 0.67369 0.75567 0.01625 0.0
N554 N 0.58848 0.79366 0.02886 0.0
N555 N 0.69882 0.73323 0.96456 0.0
H556 H 0.70238 0.75146 0.06154 0.0
H557 H 0.72478 0.74064 0.02494 0.0
H558 H 0.70031 0.73098 0.93819 0.0
H559 H 0.71737 0.7195 0.97736 0.0
H560 H 0.56631 0.79984 0.01599 0.0
H561 H 0.58569 0.7944 0.05517 0.0
H562 H 0.57864 0.81613 0.96734 0.0
H563 H 0.5974 0.79921 0.93097 0.0
C564 C 0.71821 0.16612 0.50902 0.0
C565 C 0.72788 0.13661 0.52731 0.0
C566 C 0.74013 0.10647 0.47447 0.0
C567 C 0.72983 0.1357 0.45594 0.0
N568 N 0.70365 0.19115 0.45459 0.0
N569 N 0.73879 0.07637 0.52816 0.0
C570 C 0.71682 0.16476 0.47293 0.0
C571 C 0.73606 0.10605 0.51021 0.0
N572 N 0.71219 0.19584 0.52604 0.0
N573 N 0.7544 0.07934 0.45806 0.0
H574 H 0.73477 0.07509 0.55434 0.0
H575 H 0.74148 0.05256 0.51687 0.0
H576 H 0.75671 0.0778 0.43175 0.0
H577 H 0.7661 0.05922 0.47063 0.0
H578 H 0.7089 0.21922 0.51408 0.0
H579 H 0.71262 0.19763 0.55247 0.0
H580 H 0.6905 0.21136 0.46547 0.0
H581 H 0.70382 0.19182 0.42811 0.0
C582 C 0.32327 0.23234 0.01605 0.0
C583 C 0.35374 0.22207 0.0321 0.0
C584 C 0.38115 0.21384 0.97691 0.0
C585 C 0.35098 0.22511 0.96094 0.0
N586 N 0.29135 0.23738 0.96358 0.0
N587 N 0.40892 0.19608 0.02898 0.0
C588 C 0.32133 0.23185 0.98006 0.0
C589 C 0.38172 0.21022 0.01284 0.0
N590 N 0.29659 0.24347 0.03529 0.0
N591 N 0.40978 0.20874 0.95792 0.0
H592 H 0.41049 0.19405 0.05535 0.0
H593 H 0.42875 0.184 0.01637 0.0
H594 H 0.41012 0.21051 0.93149 0.0
H595 H 0.43365 0.20461 0.96829 0.0
H596 H 0.27524 0.25532 0.02531 0.0
H597 H 0.29635 0.24207 0.06175 0.0
H598 H 0.26807 0.23964 0.97582 0.0
H599 H 0.28931 0.23684 0.93715 0.0
C600 C 0.51337 0.28941 0.11434 0.0
C601 C 0.53108 0.27951 0.14398 0.0
C602 C 0.47767 0.27263 0.17486 0.0
C603 C 0.46024 0.27625 0.14369 0.0
N604 N 0.45988 0.28961 0.08394 0.0
N605 N 0.53177 0.26529 0.20334 0.0
C606 C 0.47753 0.28597 0.11359 0.0
C607 C 0.51365 0.27278 0.17474 0.0
N608 N 0.53101 0.3012 0.08682 0.0
N609 N 0.45959 0.26892 0.2043 0.0
H610 H 0.55811 0.26752 0.20422 0.0
H611 H 0.52111 0.25633 0.22582 0.0
H612 H 0.43314 0.26899 0.2048 0.0
H613 H 0.47038 0.26833 0.22838 0.0
H614 H 0.51969 0.31131 0.06522 0.0
H615 H 0.55734 0.30342 0.08666 0.0
H616 H 0.47118 0.29265 0.06024 0.0
H617 H 0.43352 0.28815 0.08277 0.0
C618 C 0.51426 0.73296 0.8226 0.0
C619 C 0.53116 0.71371 0.84783 0.0
C620 C 0.47693 0.68995 0.86686 0.0
C621 C 0.46002 0.71372 0.84578 0.0
N622 N 0.46168 0.7579 0.80326 0.0
N623 N 0.52946 0.67419 0.89469 0.0
C624 C 0.47845 0.73496 0.82324 0.0
C625 C 0.51284 0.69164 0.86972 0.0
N626 N 0.53261 0.7489 0.79776 0.0
N627 N 0.45859 0.66638 0.88464 0.0
H628 H 0.55572 0.67465 0.89744 0.0
H629 H 0.51724 0.66087 0.914 0.0
H630 H 0.43221 0.66524 0.88383 0.0
H631 H 0.46948 0.6463 0.89795 0.0
H632 H 0.52183 0.76062 0.77667 0.0
H633 H 0.55896 0.74767 0.79659 0.0
H634 H 0.47368 0.77715 0.78963 0.0
H635 H 0.43534 0.7588 0.80164 0.0
C636 C 0.77139 0.97001 0.32392 0.0
C637 C 0.75395 0.95295 0.35052 0.0
C638 C 0.73632 0.00749 0.37477 0.0
C639 C 0.75493 0.02463 0.34904 0.0
N640 N 0.7947 0.02302 0.30247 0.0
N641 N 0.72679 0.95522 0.40559 0.0
C642 C 0.77419 0.00611 0.32485 0.0
C643 C 0.73842 0.97163 0.37719 0.0
N644 N 0.78333 0.95199 0.2967 0.0
N645 N 0.7161 0.02537 0.39671 0.0
H646 H 0.7276 0.92893 0.40859 0.0
H647 H 0.71922 0.96778 0.42762 0.0
H648 H 0.71523 0.05183 0.39764 0.0
H649 H 0.69841 0.01392 0.41272 0.0
H650 H 0.7929 0.96329 0.27476 0.0
H651 H 0.78116 0.92564 0.29467 0.0
H652 H 0.81219 0.01088 0.28679 0.0
H653 H 0.796 0.04949 0.3012 0.0
C654 C 0.47681 0.28309 0.88074 0.0
C655 C 0.4585 0.272 0.85186 0.0
C656 C 0.51117 0.26046 0.82118 0.0
C657 C 0.52953 0.27167 0.84999 0.0
N658 N 0.53103 0.29923 0.90475 0.0
N659 N 0.45685 0.25686 0.79262 0.0
C660 C 0.51269 0.28507 0.87891 0.0
C661 C 0.4753 0.26275 0.82141 0.0
N662 N 0.46003 0.28969 0.91047 0.0
N663 N 0.52808 0.24699 0.79395 0.0
H664 H 0.43047 0.25857 0.79203 0.0
H665 H 0.46754 0.25308 0.76874 0.0
H666 H 0.55445 0.24687 0.79202 0.0
H667 H 0.51619 0.23448 0.77396 0.0
H668 H 0.4721 0.29377 0.9336 0.0
H669 H 0.4337 0.28893 0.91268 0.0
H670 H 0.5202 0.31262 0.92483 0.0
H671 H 0.55743 0.29974 0.90506 0.0
C672 C 0.19729 0.97754 0.35745 0.0
C673 C 0.22446 0.95929 0.34234 0.0
C674 C 0.25124 0.01255 0.32436 0.0
C675 C 0.22466 0.03091 0.34033 0.0
N676 N 0.16888 0.0318 0.36539 0.0
N677 N 0.27257 0.95829 0.30453 0.0
C678 C 0.19632 0.01365 0.35437 0.0
C679 C 0.24994 0.97652 0.32358 0.0
N680 N 0.17383 0.96063 0.37671 0.0
N681 N 0.27826 0.02964 0.31074 0.0
H682 H 0.27272 0.93181 0.30381 0.0
H683 H 0.28941 0.96917 0.28728 0.0
H684 H 0.27902 0.05605 0.30847 0.0
H685 H 0.30063 0.01793 0.30304 0.0
H686 H 0.15577 0.97272 0.39176 0.0
H687 H 0.17364 0.93427 0.37952 0.0
H688 H 0.14604 0.02068 0.37264 0.0
H689 H 0.1679 0.05828 0.36486 0.0
C690 C 0.5101 0.71962 0.16267 0.0
C691 C 0.52762 0.72603 0.13179 0.0
C692 C 0.4741 0.73325 0.10153 0.0
C693 C 0.45662 0.72844 0.13269 0.0
N694 N 0.45625 0.70905 0.19074 0.0
N695 N 0.5275 0.73033 0.07084 0.0
C696 C 0.4741 0.71862 0.16251 0.0
C697 C 0.5099 0.73001 0.10082 0.0
N698 N 0.52773 0.71697 0.19243 0.0
N699 N 0.45642 0.74181 0.07292 0.0
H700 H 0.55379 0.72754 0.06974 0.0
H701 H 0.51615 0.73045 0.04702 0.0
H702 H 0.42999 0.74198 0.07202 0.0
H703 H 0.4677 0.74988 0.0504 0.0
H704 H 0.51637 0.71659 0.2163 0.0
H705 H 0.55411 0.71707 0.19355 0.0
H706 H 0.46736 0.69846 0.21223 0.0
H707 H 0.42984 0.70913 0.19171 0.0
C708 C 0.73838 0.97905 0.67113 0.0
C709 C 0.75437 0.96006 0.64502 0.0
C710 C 0.77228 0.01251 0.6166 0.0
C711 C 0.75588 0.03151 0.64252 0.0
N712 N 0.73038 0.03401 0.6981 0.0
N713 N 0.79199 0.95752 0.59671 0.0
C714 C 0.74101 0.01508 0.67093 0.0
C715 C 0.77333 0.97645 0.6191 0.0
N716 N 0.72031 0.96256 0.69583 0.0
N717 N 0.78502 0.02879 0.58862 0.0
H718 H 0.79224 0.931 0.59681 0.0
H719 H 0.8092 0.96793 0.57954 0.0
H720 H 0.78547 0.05518 0.5861 0.0
H721 H 0.79326 0.01628 0.56682 0.0
H722 H 0.70445 0.9748 0.71309 0.0
H723 H 0.7201 0.93614 0.69826 0.0
H724 H 0.72214 0.02359 0.72098 0.0
H725 H 0.73255 0.06045 0.69894 0.0
C726 C 0.22724 0.01434 0.61023 0.0
C727 C 0.239 0.0328 0.63884 0.0
C728 C 0.25341 0.97975 0.66805 0.0
C729 C 0.2408 0.96127 0.63984 0.0
N730 N 0.21073 0.95982 0.58657 0.0
N731 N 0.25739 0.03402 0.69716 0.0
C732 C 0.22591 0.97824 0.6118 0.0
C733 C 0.25046 0.01576 0.66841 0.0
N734 N 0.21929 0.03121 0.5809 0.0
N735 N 0.26848 0.96281 0.69432 0.0
H736 H 0.25515 0.06045 0.6984 0.0
H737 H 0.26265 0.02303 0.72061 0.0
H738 H 0.26876 0.93634 0.69609 0.0
H739 H 0.28206 0.97475 0.71356 0.0
H740 H 0.21437 0.01909 0.55793 0.0
H741 H 0.2201 0.05764 0.57864 0.0
H742 H 0.1961 0.97068 0.56746 0.0
H743 H 0.21067 0.9333 0.58598 0.0
C744 C 0.18462 0.28111 0.33237 0.0
C745 C 0.15414 0.27996 0.31323 0.0
C746 C 0.15166 0.21811 0.32027 0.0
C747 C 0.18204 0.21927 0.33959 0.0
N748 N 0.21864 0.25326 0.37507 0.0
N749 N 0.10251 0.24957 0.30122 0.0
C750 C 0.19547 0.25129 0.34943 0.0
C751 C 0.13554 0.24915 0.31149 0.0
N752 N 0.20485 0.30934 0.33243 0.0
N753 N 0.13934 0.18808 0.30791 0.0
H754 H 0.08977 0.27218 0.29571 0.0
H755 H 0.08694 0.22815 0.30209 0.0
H756 H 0.1505 0.16454 0.31219 0.0
H757 H 0.11944 0.18695 0.29058 0.0
H758 H 0.22915 0.30934 0.34275 0.0
H759 H 0.19915 0.33188 0.31991 0.0
H760 H 0.22694 0.27632 0.38516 0.0
H761 H 0.22645 0.232 0.38881 0.0
C762 C 0.27495 0.64823 0.81841 0.0
C763 C 0.27327 0.67656 0.84085 0.0
C764 C 0.21161 0.67835 0.8346 0.0
C765 C 0.21322 0.6496 0.81282 0.0
N766 N 0.24467 0.60076 0.79357 0.0
N767 N 0.23914 0.71011 0.87919 0.0
C768 C 0.24436 0.63232 0.80809 0.0
C769 C 0.24125 0.68864 0.85201 0.0
N770 N 0.30509 0.63802 0.80464 0.0
N771 N 0.18288 0.69767 0.83679 0.0
H772 H 0.26037 0.71774 0.89288 0.0
H773 H 0.21618 0.71716 0.89028 0.0
H774 H 0.16061 0.69236 0.82375 0.0
H775 H 0.18218 0.72107 0.8492 0.0
H776 H 0.30669 0.6201 0.7852 0.0
H777 H 0.32829 0.64927 0.81008 0.0
H778 H 0.26636 0.5857 0.7922 0.0
H779 H 0.22248 0.58822 0.7864 0.0
C780 C 0.85378 0.74512 0.3002 0.0
C781 C 0.84622 0.71267 0.31375 0.0
C782 C 0.80886 0.74017 0.35528 0.0
C783 C 0.80864 0.76982 0.3345 0.0
N784 N 0.82991 0.7991 0.28449 0.0
N785 N 0.82398 0.68055 0.36096 0.0
C786 C 0.83127 0.77228 0.30654 0.0
C787 C 0.82611 0.71052 0.3436 0.0
N788 N 0.88268 0.75006 0.28176 0.0
N789 N 0.79393 0.74095 0.38665 0.0
H790 H 0.84108 0.66072 0.35702 0.0
H791 H 0.80588 0.67566 0.37962 0.0
H792 H 0.7829 0.76287 0.39671 0.0
H793 H 0.79533 0.72112 0.40411 0.0
H794 H 0.89029 0.77397 0.27315 0.0
H795 H 0.90108 0.73112 0.27942 0.0
H796 H 0.84407 0.79983 0.2621 0.0
H797 H 0.81228 0.81871 0.28634 0.0
C798 C 0.74163 0.33859 0.78202 0.0
C799 C 0.77015 0.34696 0.8024 0.0
C800 C 0.73896 0.32953 0.85345 0.0
C801 C 0.71023 0.32255 0.83305 0.0
N802 N 0.68119 0.32996 0.77945 0.0
N803 N 0.79337 0.35799 0.85791 0.0
C804 C 0.71043 0.33074 0.79798 0.0
C805 C 0.76803 0.34478 0.83833 0.0
N806 N 0.74482 0.33491 0.74758 0.0
N807 N 0.7386 0.32105 0.88711 0.0
H808 H 0.81455 0.37007 0.84755 0.0
H809 H 0.79193 0.35988 0.88425 0.0
H810 H 0.71693 0.31193 0.89934 0.0
H811 H 0.76006 0.32162 0.90245 0.0
H812 H 0.72569 0.32501 0.7323 0.0
H813 H 0.76754 0.33774 0.73441 0.0
H814 H 0.67967 0.3393 0.75472 0.0
H815 H 0.65775 0.32303 0.78942 0.0
C816 C 0.17219 0.75686 0.64715 0.0
C817 C 0.18974 0.78011 0.6683 0.0
C818 C 0.17948 0.74382 0.7177 0.0
C819 C 0.16006 0.7215 0.69708 0.0
N820 N 0.13277 0.70952 0.6437 0.0
N821 N 0.20373 0.79982 0.72469 0.0
C822 C 0.15493 0.72878 0.66216 0.0
C823 C 0.19107 0.77503 0.70392 0.0
N824 N 0.17237 0.76148 0.61274 0.0
N825 N 0.18914 0.7342 0.74966 0.0
H826 H 0.2133 0.82283 0.71574 0.0
H827 H 0.20181 0.79892 0.75107 0.0
H828 H 0.18281 0.71087 0.76049 0.0
H829 H 0.20655 0.74774 0.76422 0.0
H830 H 0.16358 0.7434 0.59556 0.0
H831 H 0.18292 0.78294 0.60122 0.0
H832 H 0.12543 0.71543 0.61901 0.0
H833 H 0.11941 0.68909 0.6541 0.0
C834 C 0.72622 0.71125 0.19961 0.0
C835 C 0.71471 0.70073 0.16718 0.0
C836 C 0.76042 0.65878 0.16363 0.0
C837 C 0.77334 0.67125 0.19481 0.0
N838 N 0.77305 0.71391 0.23898 0.0
N839 N 0.7228 0.66832 0.11584 0.0
C840 C 0.75752 0.69879 0.21184 0.0
C841 C 0.73231 0.67549 0.14844 0.0
N842 N 0.70663 0.73219 0.21928 0.0
N843 N 0.77423 0.63032 0.14922 0.0
H844 H 0.7021 0.67991 0.10412 0.0
H845 H 0.7368 0.65287 0.09956 0.0
H846 H 0.79503 0.61766 0.15953 0.0
H847 H 0.76366 0.61782 0.12848 0.0
H848 H 0.712 0.7377 0.24459 0.0
H849 H 0.68322 0.74159 0.21147 0.0
H850 H 0.76448 0.73635 0.25013 0.0
H851 H 0.79643 0.70599 0.24835 0.0
C852 C 0.82301 0.23748 0.64244 0.0
C853 C 0.80444 0.21417 0.66275 0.0
C854 C 0.80899 0.25224 0.71164 0.0
C855 C 0.83003 0.27421 0.69226 0.0
N856 N 0.8613 0.28586 0.64091 0.0
N857 N 0.78452 0.19637 0.7182 0.0
C858 C 0.83819 0.26639 0.65804 0.0
C859 C 0.79917 0.2205 0.69787 0.0
N860 N 0.82582 0.23212 0.60825 0.0
N861 N 0.79652 0.26259 0.74244 0.0
H862 H 0.77565 0.17314 0.70931 0.0
H863 H 0.78376 0.19814 0.74459 0.0
H864 H 0.802 0.28614 0.75321 0.0
H865 H 0.77791 0.24941 0.75584 0.0
H866 H 0.83557 0.25007 0.5914 0.0
H867 H 0.81662 0.21026 0.59638 0.0
H868 H 0.87094 0.27954 0.6171 0.0
H869 H 0.87295 0.3071 0.65167 0.0
C870 C 0.21651 0.283 0.18743 0.0
C871 C 0.21124 0.31842 0.18361 0.0
C872 C 0.26326 0.3231 0.14998 0.0
C873 C 0.27083 0.28874 0.15793 0.0
N874 N 0.25756 0.23756 0.18959 0.0
N875 N 0.22981 0.37318 0.16332 0.0
C876 C 0.24809 0.2689 0.17777 0.0
C877 C 0.23466 0.3388 0.16539 0.0
N878 N 0.19151 0.26283 0.20065 0.0
N879 N 0.28279 0.34031 0.12696 0.0
H880 H 0.20819 0.38518 0.17283 0.0
H881 H 0.24794 0.38997 0.15388 0.0
H882 H 0.30356 0.3293 0.11476 0.0
H883 H 0.27672 0.36435 0.11767 0.0
H884 H 0.19268 0.23635 0.20067 0.0
H885 H 0.16816 0.27225 0.20866 0.0
H886 H 0.24355 0.22383 0.20737 0.0
H887 H 0.28102 0.22653 0.18454 0.0
C888 C 0.31635 0.15158 0.21321 0.0
C889 C 0.34326 0.17539 0.21629 0.0
C890 C 0.33874 0.17298 0.27828 0.0
C891 C 0.31195 0.14895 0.27521 0.0
N892 N 0.2845 0.10663 0.24047 0.0
N893 N 0.38745 0.19902 0.2511 0.0
C894 C 0.304 0.13524 0.24287 0.0
C895 C 0.35702 0.18262 0.24869 0.0
N896 N 0.30053 0.14641 0.18279 0.0
N897 N 0.34518 0.18883 0.30848 0.0
H898 H 0.40164 0.20577 0.22971 0.0
H899 H 0.40015 0.20241 0.27404 0.0
H900 H 0.33207 0.18387 0.33086 0.0
H901 H 0.3618 0.20932 0.31065 0.0
H902 H 0.27819 0.13247 0.18054 0.0
H903 H 0.30767 0.15817 0.16023 0.0
H904 H 0.28048 0.09382 0.21765 0.0
H905 H 0.27556 0.09365 0.26179 0.0
C906 C 0.35644 0.78817 0.74023 0.0
C907 C 0.34652 0.8005 0.77265 0.0
C908 C 0.31909 0.84874 0.74473 0.0
C909 C 0.32144 0.83167 0.71314 0.0
N910 N 0.34024 0.782 0.68161 0.0
N911 N 0.31407 0.84175 0.80527 0.0
C912 C 0.34008 0.80083 0.7108 0.0
C913 C 0.32719 0.83096 0.77498 0.0
N914 N 0.38149 0.76436 0.7375 0.0
N915 N 0.30894 0.88192 0.74577 0.0
H916 H 0.31736 0.82906 0.82819 0.0
H917 H 0.29684 0.86176 0.80706 0.0
H918 H 0.30408 0.89581 0.72374 0.0
H919 H 0.30937 0.89646 0.76791 0.0
H920 H 0.3917 0.75682 0.71425 0.0
H921 H 0.39464 0.75513 0.7585 0.0
H922 H 0.3502 0.75747 0.68043 0.0
H923 H 0.32799 0.78912 0.65938 0.0
C924 C 0.66547 0.85153 0.25489 0.0
C925 C 0.67081 0.8272 0.28111 0.0
C926 C 0.62912 0.79007 0.25454 0.0
C927 C 0.63209 0.80898 0.22411 0.0
N928 N 0.64425 0.86307 0.1981 0.0
N929 N 0.65875 0.77137 0.30451 0.0
C930 C 0.64741 0.84161 0.22517 0.0
C931 C 0.65245 0.79615 0.281 0.0
N932 N 0.67656 0.88423 0.25908 0.0
N933 N 0.60369 0.76686 0.25836 0.0
H934 H 0.677 0.77358 0.32344 0.0
H935 H 0.64812 0.74713 0.30295 0.0
H936 H 0.58434 0.76441 0.24049 0.0
H937 H 0.59929 0.7539 0.28106 0.0
H938 H 0.67151 0.90387 0.24211 0.0
H939 H 0.68834 0.89258 0.28126 0.0
H940 H 0.6586 0.88506 0.19488 0.0
H941 H 0.62647 0.85889 0.17898 0.0
C942 C 0.68917 0.20522 0.71596 0.0
C943 C 0.68159 0.17059 0.70925 0.0
C944 C 0.64713 0.16776 0.76108 0.0
C945 C 0.65775 0.20121 0.76939 0.0
N946 N 0.6953 0.24859 0.75887 0.0
N947 N 0.65643 0.11745 0.72646 0.0
C948 C 0.68036 0.21919 0.74787 0.0
C949 C 0.66143 0.15138 0.73215 0.0
N950 N 0.70508 0.2248 0.69205 0.0
N951 N 0.62274 0.15214 0.78023 0.0
H952 H 0.66518 0.10514 0.70465 0.0
H953 H 0.64528 0.10116 0.74411 0.0
H954 H 0.61182 0.1635 0.80155 0.0
H955 H 0.61147 0.12914 0.77358 0.0
H956 H 0.70801 0.25104 0.69434 0.0
H957 H 0.71263 0.21561 0.66846 0.0
H958 H 0.71481 0.2608 0.74584 0.0
H959 H 0.69096 0.25886 0.78287 0.0
C960 C 0.8123 0.75106 0.64573 0.0
C961 C 0.79691 0.7753 0.66752 0.0
C962 C 0.80798 0.73914 0.71672 0.0
C963 C 0.82603 0.71619 0.69548 0.0
N964 N 0.85003 0.70252 0.6408 0.0
N965 N 0.78523 0.79564 0.7243 0.0
C966 C 0.82945 0.72269 0.66018 0.0
C967 C 0.79662 0.77046 0.70319 0.0
N968 N 0.81023 0.75502 0.6113 0.0
N969 N 0.79958 0.73012 0.74925 0.0
H970 H 0.7754 0.81862 0.71564 0.0
H971 H 0.78824 0.79495 0.75058 0.0
H972 H 0.80615 0.70692 0.76015 0.0
H973 H 0.78291 0.74403 0.76436 0.0
H974 H 0.81747 0.73634 0.59401 0.0
H975 H 0.79936 0.77639 0.59996 0.0
H976 H 0.85625 0.7079 0.61565 0.0
H977 H 0.86325 0.6818 0.65068 0.0
C978 C 0.7515 0.27057 0.14704 0.0
C979 C 0.72348 0.29173 0.13862 0.0
C980 C 0.75777 0.34239 0.14968 0.0
C981 C 0.7854 0.32111 0.15826 0.0
N982 N 0.81235 0.26629 0.15289 0.0
N983 N 0.70329 0.34714 0.12176 0.0
C984 C 0.78365 0.28568 0.1523 0.0
C985 C 0.72767 0.32754 0.13667 0.0
N986 N 0.74709 0.23658 0.15321 0.0
N987 N 0.76014 0.37669 0.15476 0.0
H988 H 0.68153 0.33681 0.11084 0.0
H989 H 0.70619 0.37307 0.11712 0.0
H990 H 0.78274 0.38842 0.16201 0.0
H991 H 0.73955 0.39315 0.15307 0.0
H992 H 0.76625 0.22092 0.16245 0.0
H993 H 0.72365 0.22445 0.15292 0.0
H994 H 0.81269 0.24077 0.14574 0.0
H995 H 0.83635 0.27646 0.15703 0.0
C996 C 0.17683 0.24822 0.71954 0.0
C997 C 0.15451 0.26987 0.70136 0.0
C998 C 0.15928 0.23309 0.65127 0.0
C999 C 0.17984 0.21046 0.67025 0.0
N1000 N 0.20233 0.19263 0.72454 0.0
N1001 N 0.11943 0.28014 0.65238 0.0
C1002 C 0.18643 0.21664 0.70514 0.0
C1003 C 0.14423 0.26151 0.66787 0.0
N1004 N 0.19095 0.25881 0.74947 0.0
N1005 N 0.15465 0.22769 0.6173 0.0
H1006 H 0.10765 0.30084 0.66404 0.0
H1007 H 0.1085 0.27341 0.6293 0.0
H1008 H 0.16375 0.20609 0.60485 0.0
H1009 H 0.14336 0.24534 0.60117 0.0
H1010 H 0.21048 0.24585 0.76163 0.0
H1011 H 0.18588 0.2823 0.76059 0.0
H1012 H 0.20443 0.19439 0.75085 0.0
H1013 H 0.21063 0.16937 0.7151 0.0
C1014 C 0.21941 0.71282 0.20246 0.0
C1015 C 0.21007 0.67948 0.19264 0.0
C1016 C 0.25597 0.67812 0.15072 0.0
C1017 C 0.26758 0.70985 0.16327 0.0
N1018 N 0.26343 0.7555 0.20428 0.0
N1019 N 0.21995 0.6288 0.15972 0.0
C1020 C 0.24999 0.72689 0.18982 0.0
C1021 C 0.22837 0.66169 0.16724 0.0
N1022 N 0.19877 0.73117 0.22357 0.0
N1023 N 0.27072 0.66428 0.12247 0.0
H1024 H 0.19921 0.61644 0.17065 0.0
H1025 H 0.23459 0.61308 0.14428 0.0
H1026 H 0.29091 0.6758 0.10973 0.0
H1027 H 0.26134 0.64292 0.11001 0.0
H1028 H 0.20229 0.75691 0.22877 0.0
H1029 H 0.17625 0.72152 0.23363 0.0
H1030 H 0.25389 0.7667 0.22627 0.0
H1031 H 0.28596 0.76661 0.19614 0.0
C1032 C 0.813 0.24254 0.26665 0.0
C1033 C 0.83074 0.26692 0.28633 0.0
C1034 C 0.82044 0.23299 0.3376 0.0
C1035 C 0.80519 0.20744 0.31722 0.0
N1036 N 0.79329 0.18472 0.26136 0.0
N1037 N 0.85579 0.28362 0.33951 0.0
C1038 C 0.8038 0.21107 0.28142 0.0
C1039 C 0.83572 0.26172 0.32161 0.0
N1040 N 0.80262 0.25039 0.23448 0.0
N1041 N 0.81996 0.2299 0.37218 0.0
H1042 H 0.86725 0.30485 0.32846 0.0
H1043 H 0.86318 0.27944 0.36453 0.0
H1044 H 0.81079 0.20826 0.38452 0.0
H1045 H 0.82708 0.24935 0.38864 0.0
H1046 H 0.78607 0.23522 0.22057 0.0
H1047 H 0.8072 0.27386 0.22314 0.0
H1048 H 0.79547 0.18498 0.23497 0.0
H1049 H 0.78539 0.16132 0.27082 0.0
C1050 C 0.21317 0.32408 0.84354 0.0
C1051 C 0.21477 0.34767 0.81617 0.0
C1052 C 0.27663 0.34456 0.81635 0.0
C1053 C 0.27505 0.32112 0.84382 0.0
N1054 N 0.243 0.29931 0.8912 0.0
N1055 N 0.24778 0.38975 0.78628 0.0
C1056 C 0.24364 0.31468 0.86008 0.0
C1057 C 0.2465 0.36117 0.80601 0.0
N1058 N 0.18347 0.30841 0.85219 0.0
N1059 N 0.30582 0.34913 0.79818 0.0
H1060 H 0.22601 0.40304 0.7792 0.0
H1061 H 0.27036 0.40223 0.78042 0.0
H1062 H 0.32855 0.33694 0.80358 0.0
H1063 H 0.30666 0.36296 0.7756 0.0
H1064 H 0.18232 0.2882 0.86931 0.0
H1065 H 0.16038 0.3132 0.84049 0.0
H1066 H 0.2209 0.29651 0.90547 0.0
H1067 H 0.26512 0.29299 0.90427 0.0
C1068 C 0.14836 0.77815 0.31862 0.0
C1069 C 0.17481 0.775 0.3429 0.0
C1070 C 0.16228 0.71391 0.3486 0.0
C1071 C 0.14028 0.71663 0.32044 0.0
N1072 N 0.09817 0.75233 0.29456 0.0
N1073 N 0.20453 0.74089 0.38436 0.0
C1074 C 0.12867 0.74915 0.31053 0.0
C1075 C 0.18073 0.74318 0.35928 0.0
N1076 N 0.14376 0.80775 0.30097 0.0
N1077 N 0.16359 0.68404 0.36629 0.0
H1078 H 0.21654 0.7621 0.39466 0.0
H1079 H 0.2132 0.71805 0.39445 0.0
H1080 H 0.14701 0.664 0.36123 0.0
H1081 H 0.1777 0.68035 0.38825 0.0
H1082 H 0.12743 0.8097 0.2803 0.0
H1083 H 0.15831 0.82954 0.30458 0.0
H1084 H 0.08711 0.77576 0.28906 0.0
H1085 H 0.08193 0.73162 0.29131 0.0
C1086 C 0.74338 0.65643 0.78455 0.0
C1087 C 0.77098 0.64541 0.80498 0.0
C1088 C 0.73964 0.66172 0.85634 0.0
C1089 C 0.71164 0.67097 0.83584 0.0
N1090 N 0.68363 0.66913 0.78131 0.0
N1091 N 0.79292 0.63108 0.86025 0.0
C1092 C 0.71234 0.66527 0.80031 0.0
C1093 C 0.76838 0.64609 0.84094 0.0
N1094 N 0.74745 0.66147 0.75037 0.0
N1095 N 0.73892 0.66843 0.89039 0.0
H1096 H 0.81391 0.61889 0.84965 0.0
H1097 H 0.79103 0.62802 0.88645 0.0
H1098 H 0.71745 0.67795 0.90263 0.0
H1099 H 0.75997 0.6661 0.90612 0.0
H1100 H 0.7294 0.67346 0.73527 0.0
H1101 H 0.77012 0.65754 0.73743 0.0
H1102 H 0.68205 0.66159 0.75598 0.0
H1103 H 0.66043 0.67671 0.79137 0.0
C1104 C 0.66949 0.84794 0.74605 0.0
C1105 C 0.67047 0.8296 0.71511 0.0
C1106 C 0.63991 0.783 0.74255 0.0
C1107 C 0.64642 0.79777 0.77478 0.0
N1108 N 0.67132 0.84401 0.80714 0.0
N1109 N 0.65987 0.77671 0.68508 0.0
C1110 C 0.66171 0.8305 0.77667 0.0
C1111 C 0.65603 0.79654 0.71336 0.0
N1112 N 0.67618 0.88203 0.74612 0.0
N1113 N 0.61828 0.75601 0.73973 0.0
H1114 H 0.67239 0.78449 0.66314 0.0
H1115 H 0.65323 0.75104 0.68456 0.0
H1116 H 0.60536 0.74581 0.76047 0.0
H1117 H 0.61034 0.74638 0.71639 0.0
H1118 H 0.6731 0.89732 0.76753 0.0
H1119 H 0.681 0.8955 0.72378 0.0
H1120 H 0.68589 0.86604 0.80907 0.0
H1121 H 0.66779 0.83191 0.83037 0.0
C1122 C 0.67904 0.13651 0.24288 0.0
C1123 C 0.67608 0.15405 0.27424 0.0
C1124 C 0.63734 0.19411 0.24709 0.0
C1125 C 0.64772 0.18207 0.21477 0.0
N1126 N 0.6817 0.14243 0.18198 0.0
N1127 N 0.65417 0.20285 0.30518 0.0
C1128 C 0.66897 0.15301 0.21249 0.0
C1129 C 0.65519 0.18343 0.2764 0.0
N1130 N 0.6914 0.10406 0.24216 0.0
N1131 N 0.61043 0.21579 0.24972 0.0
H1132 H 0.66773 0.19743 0.32712 0.0
H1133 H 0.64212 0.22643 0.30612 0.0
H1134 H 0.59607 0.22299 0.22868 0.0
H1135 H 0.60011 0.22319 0.27297 0.0
H1136 H 0.69152 0.08917 0.22025 0.0
H1137 H 0.69769 0.09079 0.26424 0.0
H1138 H 0.70031 0.12373 0.17996 0.0
H1139 H 0.67617 0.15405 0.15891 0.0
C1140 C 0.32699 0.15579 0.73288 0.0
C1141 C 0.30612 0.17495 0.71071 0.0
C1142 C 0.30773 0.22339 0.74969 0.0
C1143 C 0.3305 0.20513 0.77076 0.0
N1144 N 0.36643 0.15646 0.78011 0.0
N1145 N 0.28123 0.22884 0.69471 0.0
C1146 C 0.34145 0.17196 0.76175 0.0
C1147 C 0.2982 0.20943 0.71795 0.0
N1148 N 0.33256 0.12205 0.72654 0.0
N1149 N 0.2934 0.25305 0.76094 0.0
H1150 H 0.27259 0.21953 0.67157 0.0
H1151 H 0.27818 0.25506 0.69704 0.0
H1152 H 0.29879 0.2639 0.78444 0.0
H1153 H 0.27361 0.26534 0.74851 0.0
H1154 H 0.34415 0.10567 0.74376 0.0
H1155 H 0.32387 0.10991 0.70465 0.0
H1156 H 0.37793 0.13375 0.77289 0.0
H1157 H 0.37772 0.16774 0.80124 0.0
C1158 C 0.2947 0.8563 0.24252 0.0
C1159 C 0.30652 0.84447 0.27443 0.0
C1160 C 0.35502 0.81846 0.24556 0.0
C1161 C 0.33856 0.82297 0.21396 0.0
N1162 N 0.28949 0.84368 0.18299 0.0
N1163 N 0.34751 0.81099 0.30592 0.0
C1164 C 0.30788 0.84183 0.21233 0.0
C1165 C 0.337 0.82523 0.27608 0.0
N1166 N 0.27072 0.88131 0.24094 0.0
N1167 N 0.38775 0.8072 0.2463 0.0
H1168 H 0.33474 0.81372 0.32889 0.0
H1169 H 0.36744 0.79368 0.30729 0.0
H1170 H 0.40158 0.80253 0.22414 0.0
H1171 H 0.40206 0.80615 0.26849 0.0
H1172 H 0.26373 0.89307 0.21827 0.0
H1173 H 0.26057 0.89284 0.26249 0.0
H1174 H 0.26493 0.85337 0.1822 0.0
H1175 H 0.29697 0.83309 0.16 0.0
loop_
_geom_bond_atom_site_label_1
_geom_bond_atom_site_label_2
_geom_bond_distance
_geom_bond_site_symmetry_2
_ccdc_geom_bond_type
In0 O1 2.294 . S
In0 O2 2.326 . S
In0 O6 2.266 . S
In0 O7 2.326 . S
In0 O8 2.266 . S
In0 O9 2.326 . S
In0 O11 2.294 . S
In0 O12 2.326 . S
O1 In0 2.294 . S
O1 C10 1.240 . S
O2 In0 2.326 . S
O2 C10 1.252 . S
C3 O6 1.252 . S
C3 O7 1.260 . S
C4 O11 1.240 . S
C4 O12 1.252 . S
C5 O8 1.252 . S
C5 O9 1.260 . S
O6 In0 2.266 . S
O6 C3 1.252 . S
O7 In0 2.326 . S
O7 C3 1.260 . S
O8 In0 2.266 . S
O8 C5 1.252 . S
O9 In0 2.326 . S
O9 C5 1.260 . S
C10 O1 1.240 . S
C10 O2 1.252 . S
O11 In0 2.294 . S
O11 C4 1.240 . S
O12 In0 2.326 . S
O12 C4 1.252 . S
In13 O14 2.294 . S
In13 O15 2.326 . S
In13 O19 2.266 . S
In13 O20 2.326 . S
In13 O21 2.266 . S
In13 O22 2.326 . S
In13 O24 2.294 . S
In13 O25 2.326 . S
O14 In13 2.294 . S
O14 C23 1.240 . S
O15 In13 2.326 . S
O15 C23 1.252 . S
C16 O19 1.252 . S
C16 O20 1.260 . S
C17 O24 1.240 . S
C17 O25 1.252 . S
C18 O21 1.252 . S
C18 O22 1.260 . S
O19 In13 2.266 . S
O19 C16 1.252 . S
O20 In13 2.326 . S
O20 C16 1.260 . S
O21 In13 2.266 . S
O21 C18 1.252 . S
O22 In13 2.326 . S
O22 C18 1.260 . S
C23 O14 1.240 . S
C23 O15 1.252 . S
O24 In13 2.294 . S
O24 C17 1.240 . S
O25 In13 2.326 . S
O25 C17 1.252 . S
In26 O27 2.294 . S
In26 O28 2.326 . S
In26 O32 2.266 . S
In26 O33 2.326 . S
In26 O34 2.266 . S
In26 O35 2.326 . S
In26 O37 2.294 . S
In26 O38 2.326 . S
O27 In26 2.294 . S
O27 C36 1.240 . S
O28 In26 2.326 . S
O28 C36 1.252 . S
C29 O32 1.252 . S
C29 O33 1.260 . S
C30 O37 1.240 . S
C30 O38 1.252 . S
C31 O34 1.252 . S
C31 O35 1.260 . S
O32 In26 2.266 . S
O32 C29 1.252 . S
O33 In26 2.326 . S
O33 C29 1.260 . S
O34 In26 2.266 . S
O34 C31 1.252 . S
O35 In26 2.326 . S
O35 C31 1.260 . S
C36 O27 1.240 . S
C36 O28 1.252 . S
O37 In26 2.294 . S
O37 C30 1.240 . S
O38 In26 2.326 . S
O38 C30 1.252 . S
In39 O40 2.294 . S
In39 O41 2.326 . S
In39 O45 2.266 . S
In39 O46 2.326 . S
In39 O47 2.266 . S
In39 O48 2.326 . S
In39 O50 2.294 . S
In39 O51 2.326 . S
O40 In39 2.294 . S
O40 C49 1.240 . S
O41 In39 2.326 . S
O41 C49 1.252 . S
C42 O45 1.252 . S
C42 O46 1.260 . S
C43 O50 1.240 . S
C43 O51 1.252 . S
C44 O47 1.252 . S
C44 O48 1.260 . S
O45 In39 2.266 . S
O45 C42 1.252 . S
O46 In39 2.326 . S
O46 C42 1.260 . S
O47 In39 2.266 . S
O47 C44 1.252 . S
O48 In39 2.326 . S
O48 C44 1.260 . S
C49 O40 1.240 . S
C49 O41 1.252 . S
O50 In39 2.294 . S
O50 C43 1.240 . S
O51 In39 2.326 . S
O51 C43 1.252 . S
In52 O53 2.294 . S
In52 O54 2.326 . S
In52 O58 2.266 . S
In52 O59 2.326 . S
In52 O60 2.266 . S
In52 O61 2.326 . S
In52 O63 2.294 . S
In52 O64 2.326 . S
O53 In52 2.294 . S
O53 C62 1.240 . S
O54 In52 2.326 . S
O54 C62 1.252 . S
C55 O58 1.252 . S
C55 O59 1.260 . S
C56 O63 1.240 . S
C56 O64 1.252 . S
C57 O60 1.252 . S
C57 O61 1.260 . S
O58 In52 2.266 . S
O58 C55 1.252 . S
O59 In52 2.326 . S
O59 C55 1.260 . S
O60 In52 2.266 . S
O60 C57 1.252 . S
O61 In52 2.326 . S
O61 C57 1.260 . S
C62 O53 1.240 . S
C62 O54 1.252 . S
O63 In52 2.294 . S
O63 C56 1.240 . S
O64 In52 2.326 . S
O64 C56 1.252 . S
In65 O66 2.294 . S
In65 O67 2.326 . S
In65 O71 2.266 . S
In65 O72 2.326 . S
In65 O73 2.266 . S
In65 O74 2.326 . S
In65 O76 2.294 . S
In65 O77 2.326 . S
O66 In65 2.294 . S
O66 C75 1.240 . S
O67 In65 2.326 . S
O67 C75 1.252 . S
C68 O71 1.252 . S
C68 O72 1.260 . S
C69 O76 1.240 . S
C69 O77 1.252 . S
C70 O73 1.252 . S
C70 O74 1.260 . S
O71 In65 2.266 . S
O71 C68 1.252 . S
O72 In65 2.326 . S
O72 C68 1.260 . S
O73 In65 2.266 . S
O73 C70 1.252 . S
O74 In65 2.326 . S
O74 C70 1.260 . S
C75 O66 1.240 . S
C75 O67 1.252 . S
O76 In65 2.294 . S
O76 C69 1.240 . S
O77 In65 2.326 . S
O77 C69 1.252 . S
In78 O79 2.294 . S
In78 O80 2.326 . S
In78 O84 2.266 . S
In78 O85 2.326 . S
In78 O86 2.266 . S
In78 O87 2.326 . S
In78 O89 2.294 . S
In78 O90 2.326 . S
O79 In78 2.294 . S
O79 C88 1.240 . S
O80 In78 2.326 . S
O80 C88 1.252 . S
C81 O84 1.252 . S
C81 O85 1.260 . S
C82 O89 1.240 . S
C82 O90 1.252 . S
C83 O86 1.252 . S
C83 O87 1.260 . S
O84 In78 2.266 . S
O84 C81 1.252 . S
O85 In78 2.326 . S
O85 C81 1.260 . S
O86 In78 2.266 . S
O86 C83 1.252 . S
O87 In78 2.326 . S
O87 C83 1.260 . S
C88 O79 1.240 . S
C88 O80 1.252 . S
O89 In78 2.294 . S
O89 C82 1.240 . S
O90 In78 2.326 . S
O90 C82 1.252 . S
In91 O92 2.294 . S
In91 O93 2.326 . S
In91 O97 2.266 . S
In91 O98 2.326 . S
In91 O99 2.266 . S
In91 O100 2.326 . S
In91 O102 2.294 . S
In91 O103 2.326 . S
O92 In91 2.294 . S
O92 C101 1.240 . S
O93 In91 2.326 . S
O93 C101 1.252 . S
C94 O97 1.252 . S
C94 O98 1.260 . S
C95 O102 1.240 . S
C95 O103 1.252 . S
C96 O99 1.252 . S
C96 O100 1.260 . S
O97 In91 2.266 . S
O97 C94 1.252 . S
O98 In91 2.326 . S
O98 C94 1.260 . S
O99 In91 2.266 . S
O99 C96 1.252 . S
O100 In91 2.326 . S
O100 C96 1.260 . S
C101 O92 1.240 . S
C101 O93 1.252 . S
O102 In91 2.294 . S
O102 C95 1.240 . S
O103 In91 2.326 . S
O103 C95 1.252 . S
In104 O105 2.294 . S
In104 O106 2.326 . S
In104 O110 2.266 . S
In104 O111 2.326 . S
In104 O112 2.266 . S
In104 O113 2.326 . S
In104 O115 2.294 . S
In104 O116 2.326 . S
O105 In104 2.294 . S
O105 C114 1.240 . S
O106 In104 2.326 . S
O106 C114 1.252 . S
C107 O110 1.252 . S
C107 O111 1.260 . S
C108 O115 1.240 . S
C108 O116 1.252 . S
C109 O112 1.252 . S
C109 O113 1.260 . S
O110 In104 2.266 . S
O110 C107 1.252 . S
O111 In104 2.326 . S
O111 C107 1.260 . S
O112 In104 2.266 . S
O112 C109 1.252 . S
O113 In104 2.326 . S
O113 C109 1.260 . S
C114 O105 1.240 . S
C114 O106 1.252 . S
O115 In104 2.294 . S
O115 C108 1.240 . S
O116 In104 2.326 . S
O116 C108 1.252 . S
In117 O118 2.294 . S
In117 O119 2.326 . S
In117 O123 2.266 . S
In117 O124 2.326 . S
In117 O125 2.266 . S
In117 O126 2.326 . S
In117 O128 2.294 . S
In117 O129 2.326 . S
O118 In117 2.294 . S
O118 C127 1.240 . S
O119 In117 2.326 . S
O119 C127 1.252 . S
C120 O123 1.252 . S
C120 O124 1.260 . S
C121 O128 1.240 . S
C121 O129 1.252 . S
C122 O125 1.252 . S
C122 O126 1.260 . S
O123 In117 2.266 . S
O123 C120 1.252 . S
O124 In117 2.326 . S
O124 C120 1.260 . S
O125 In117 2.266 . S
O125 C122 1.252 . S
O126 In117 2.326 . S
O126 C122 1.260 . S
C127 O118 1.240 . S
C127 O119 1.252 . S
O128 In117 2.294 . S
O128 C121 1.240 . S
O129 In117 2.326 . S
O129 C121 1.252 . S
In130 O131 2.294 . S
In130 O132 2.326 . S
In130 O136 2.266 . S
In130 O137 2.326 . S
In130 O138 2.266 . S
In130 O139 2.326 . S
In130 O141 2.294 . S
In130 O142 2.326 . S
O131 In130 2.294 . S
O131 C140 1.240 . S
O132 In130 2.326 . S
O132 C140 1.252 . S
C133 O136 1.252 . S
C133 O137 1.260 . S
C134 O141 1.240 . S
C134 O142 1.252 . S
C135 O138 1.252 . S
C135 O139 1.260 . S
O136 In130 2.266 . S
O136 C133 1.252 . S
O137 In130 2.326 . S
O137 C133 1.260 . S
O138 In130 2.266 . S
O138 C135 1.252 . S
O139 In130 2.326 . S
O139 C135 1.260 . S
C140 O131 1.240 . S
C140 O132 1.252 . S
O141 In130 2.294 . S
O141 C134 1.240 . S
O142 In130 2.326 . S
O142 C134 1.252 . S
In143 O144 2.294 . S
In143 O145 2.326 . S
In143 O149 2.266 . S
In143 O150 2.326 . S
In143 O151 2.266 . S
In143 O152 2.326 . S
In143 O154 2.294 . S
In143 O155 2.326 . S
O144 In143 2.294 . S
O144 C153 1.240 . S
O145 In143 2.326 . S
O145 C153 1.252 . S
C146 O149 1.252 . S
C146 O150 1.260 . S
C147 O154 1.240 . S
C147 O155 1.252 . S
C148 O151 1.252 . S
C148 O152 1.260 . S
O149 In143 2.266 . S
O149 C146 1.252 . S
O150 In143 2.326 . S
O150 C146 1.260 . S
O151 In143 2.266 . S
O151 C148 1.252 . S
O152 In143 2.326 . S
O152 C148 1.260 . S
C153 O144 1.240 . S
C153 O145 1.252 . S
O154 In143 2.294 . S
O154 C147 1.240 . S
O155 In143 2.326 . S
O155 C147 1.252 . S
In156 O157 2.294 . S
In156 O158 2.326 . S
In156 O162 2.266 . S
In156 O163 2.326 . S
In156 O164 2.266 . S
In156 O165 2.326 . S
In156 O167 2.294 . S
In156 O168 2.326 . S
O157 In156 2.294 . S
O157 C166 1.240 . S
O158 In156 2.326 . S
O158 C166 1.252 . S
C159 O162 1.252 . S
C159 O163 1.260 . S
C160 O167 1.240 . S
C160 O168 1.252 . S
C161 O164 1.252 . S
C161 O165 1.260 . S
O162 In156 2.266 . S
O162 C159 1.252 . S
O163 In156 2.326 . S
O163 C159 1.260 . S
O164 In156 2.266 . S
O164 C161 1.252 . S
O165 In156 2.326 . S
O165 C161 1.260 . S
C166 O157 1.240 . S
C166 O158 1.252 . S
O167 In156 2.294 . S
O167 C160 1.240 . S
O168 In156 2.326 . S
O168 C160 1.252 . S
In169 O170 2.294 . S
In169 O171 2.326 . S
In169 O175 2.266 . S
In169 O176 2.326 . S
In169 O177 2.266 . S
In169 O178 2.326 . S
In169 O180 2.294 . S
In169 O181 2.326 . S
O170 In169 2.294 . S
O170 C179 1.240 . S
O171 In169 2.326 . S
O171 C179 1.252 . S
C172 O175 1.252 . S
C172 O176 1.260 . S
C173 O180 1.240 . S
C173 O181 1.252 . S
C174 O177 1.252 . S
C174 O178 1.260 . S
O175 In169 2.266 . S
O175 C172 1.252 . S
O176 In169 2.326 . S
O176 C172 1.260 . S
O177 In169 2.266 . S
O177 C174 1.252 . S
O178 In169 2.326 . S
O178 C174 1.260 . S
C179 O170 1.240 . S
C179 O171 1.252 . S
O180 In169 2.294 . S
O180 C173 1.240 . S
O181 In169 2.326 . S
O181 C173 1.252 . S
In182 O183 2.294 . S
In182 O184 2.326 . S
In182 O188 2.266 . S
In182 O189 2.326 . S
In182 O190 2.266 . S
In182 O191 2.326 . S
In182 O193 2.294 . S
In182 O194 2.326 . S
O183 In182 2.294 . S
O183 C192 1.240 . S
O184 In182 2.326 . S
O184 C192 1.252 . S
C185 O188 1.252 . S
C185 O189 1.260 . S
C186 O193 1.240 . S
C186 O194 1.252 . S
C187 O190 1.252 . S
C187 O191 1.260 . S
O188 In182 2.266 . S
O188 C185 1.252 . S
O189 In182 2.326 . S
O189 C185 1.260 . S
O190 In182 2.266 . S
O190 C187 1.252 . S
O191 In182 2.326 . S
O191 C187 1.260 . S
C192 O183 1.240 . S
C192 O184 1.252 . S
O193 In182 2.294 . S
O193 C186 1.240 . S
O194 In182 2.326 . S
O194 C186 1.252 . S
In195 O196 2.294 . S
In195 O197 2.326 . S
In195 O201 2.266 . S
In195 O202 2.326 . S
In195 O203 2.266 . S
In195 O204 2.326 . S
In195 O206 2.294 . S
In195 O207 2.326 . S
O196 In195 2.294 . S
O196 C205 1.240 . S
O197 In195 2.326 . S
O197 C205 1.252 . S
C198 O201 1.252 . S
C198 O202 1.260 . S
C199 O206 1.240 . S
C199 O207 1.252 . S
C200 O203 1.252 . S
C200 O204 1.260 . S
O201 In195 2.266 . S
O201 C198 1.252 . S
O202 In195 2.326 . S
O202 C198 1.260 . S
O203 In195 2.266 . S
O203 C200 1.252 . S
O204 In195 2.326 . S
O204 C200 1.260 . S
C205 O196 1.240 . S
C205 O197 1.252 . S
O206 In195 2.294 . S
O206 C199 1.240 . S
O207 In195 2.326 . S
O207 C199 1.252 . S
In208 O209 2.294 . S
In208 O210 2.326 . S
In208 O214 2.266 . S
In208 O215 2.326 . S
In208 O216 2.266 . S
In208 O217 2.326 . S
In208 O219 2.294 . S
In208 O220 2.326 . S
O209 In208 2.294 . S
O209 C218 1.240 . S
O210 In208 2.326 . S
O210 C218 1.252 . S
C211 O214 1.252 . S
C211 O215 1.260 . S
C212 O219 1.240 . S
C212 O220 1.252 . S
C213 O216 1.252 . S
C213 O217 1.260 . S
O214 In208 2.266 . S
O214 C211 1.252 . S
O215 In208 2.326 . S
O215 C211 1.260 . S
O216 In208 2.266 . S
O216 C213 1.252 . S
O217 In208 2.326 . S
O217 C213 1.260 . S
C218 O209 1.240 . S
C218 O210 1.252 . S
O219 In208 2.294 . S
O219 C212 1.240 . S
O220 In208 2.326 . S
O220 C212 1.252 . S
In221 O222 2.294 . S
In221 O223 2.326 . S
In221 O227 2.266 . S
In221 O228 2.326 . S
In221 O229 2.266 . S
In221 O230 2.326 . S
In221 O232 2.294 . S
In221 O233 2.326 . S
O222 In221 2.294 . S
O222 C231 1.240 . S
O223 In221 2.326 . S
O223 C231 1.252 . S
C224 O227 1.252 . S
C224 O228 1.260 . S
C225 O232 1.240 . S
C225 O233 1.252 . S
C226 O229 1.252 . S
C226 O230 1.260 . S
O227 In221 2.266 . S
O227 C224 1.252 . S
O228 In221 2.326 . S
O228 C224 1.260 . S
O229 In221 2.266 . S
O229 C226 1.252 . S
O230 In221 2.326 . S
O230 C226 1.260 . S
C231 O222 1.240 . S
C231 O223 1.252 . S
O232 In221 2.294 . S
O232 C225 1.240 . S
O233 In221 2.326 . S
O233 C225 1.252 . S
In234 O235 2.294 . S
In234 O236 2.326 . S
In234 O240 2.266 . S
In234 O241 2.326 . S
In234 O242 2.266 . S
In234 O243 2.326 . S
In234 O245 2.294 . S
In234 O246 2.326 . S
O235 In234 2.294 . S
O235 C244 1.240 . S
O236 In234 2.326 . S
O236 C244 1.252 . S
C237 O240 1.252 . S
C237 O241 1.260 . S
C238 O245 1.240 . S
C238 O246 1.252 . S
C239 O242 1.252 . S
C239 O243 1.260 . S
O240 In234 2.266 . S
O240 C237 1.252 . S
O241 In234 2.326 . S
O241 C237 1.260 . S
O242 In234 2.266 . S
O242 C239 1.252 . S
O243 In234 2.326 . S
O243 C239 1.260 . S
C244 O235 1.240 . S
C244 O236 1.252 . S
O245 In234 2.294 . S
O245 C238 1.240 . S
O246 In234 2.326 . S
O246 C238 1.252 . S
In247 O248 2.294 . S
In247 O249 2.326 . S
In247 O253 2.266 . S
In247 O254 2.326 . S
In247 O255 2.266 . S
In247 O256 2.326 . S
In247 O258 2.294 . S
In247 O259 2.326 . S
O248 In247 2.294 . S
O248 C257 1.240 . S
O249 In247 2.326 . S
O249 C257 1.252 . S
C250 O253 1.252 . S
C250 O254 1.260 . S
C251 O258 1.240 . S
C251 O259 1.252 . S
C252 O255 1.252 . S
C252 O256 1.260 . S
O253 In247 2.266 . S
O253 C250 1.252 . S
O254 In247 2.326 . S
O254 C250 1.260 . S
O255 In247 2.266 . S
O255 C252 1.252 . S
O256 In247 2.326 . S
O256 C252 1.260 . S
C257 O248 1.240 . S
C257 O249 1.252 . S
O258 In247 2.294 . S
O258 C251 1.240 . S
O259 In247 2.326 . S
O259 C251 1.252 . S
In260 O261 2.294 . S
In260 O262 2.326 . S
In260 O266 2.266 . S
In260 O267 2.326 . S
In260 O268 2.266 . S
In260 O269 2.326 . S
In260 O271 2.294 . S
In260 O272 2.326 . S
O261 In260 2.294 . S
O261 C270 1.240 . S
O262 In260 2.326 . S
O262 C270 1.252 . S
C263 O266 1.252 . S
C263 O267 1.260 . S
C264 O271 1.240 . S
C264 O272 1.252 . S
C265 O268 1.252 . S
C265 O269 1.260 . S
O266 In260 2.266 . S
O266 C263 1.252 . S
O267 In260 2.326 . S
O267 C263 1.260 . S
O268 In260 2.266 . S
O268 C265 1.252 . S
O269 In260 2.326 . S
O269 C265 1.260 . S
C270 O261 1.240 . S
C270 O262 1.252 . S
O271 In260 2.294 . S
O271 C264 1.240 . S
O272 In260 2.326 . S
O272 C264 1.252 . S
In273 O274 2.294 . S
In273 O275 2.326 . S
In273 O279 2.266 . S
In273 O280 2.326 . S
In273 O281 2.266 . S
In273 O282 2.326 . S
In273 O284 2.294 . S
In273 O285 2.326 . S
O274 In273 2.294 . S
O274 C283 1.240 . S
O275 In273 2.326 . S
O275 C283 1.252 . S
C276 O279 1.252 . S
C276 O280 1.260 . S
C277 O284 1.240 . S
C277 O285 1.252 . S
C278 O281 1.252 . S
C278 O282 1.260 . S
O279 In273 2.266 . S
O279 C276 1.252 . S
O280 In273 2.326 . S
O280 C276 1.260 . S
O281 In273 2.266 . S
O281 C278 1.252 . S
O282 In273 2.326 . S
O282 C278 1.260 . S
C283 O274 1.240 . S
C283 O275 1.252 . S
O284 In273 2.294 . S
O284 C277 1.240 . S
O285 In273 2.326 . S
O285 C277 1.252 . S
In286 O287 2.294 . S
In286 O288 2.326 . S
In286 O292 2.266 . S
In286 O293 2.326 . S
In286 O294 2.266 . S
In286 O295 2.326 . S
In286 O297 2.294 . S
In286 O298 2.326 . S
O287 In286 2.294 . S
O287 C296 1.240 . S
O288 In286 2.326 . S
O288 C296 1.252 . S
C289 O292 1.252 . S
C289 O293 1.260 . S
C290 O297 1.240 . S
C290 O298 1.252 . S
C291 O294 1.252 . S
C291 O295 1.260 . S
O292 In286 2.266 . S
O292 C289 1.252 . S
O293 In286 2.326 . S
O293 C289 1.260 . S
O294 In286 2.266 . S
O294 C291 1.252 . S
O295 In286 2.326 . S
O295 C291 1.260 . S
C296 O287 1.240 . S
C296 O288 1.252 . S
O297 In286 2.294 . S
O297 C290 1.240 . S
O298 In286 2.326 . S
O298 C290 1.252 . S
In299 O300 2.294 . S
In299 O301 2.326 . S
In299 O305 2.266 . S
In299 O306 2.326 . S
In299 O307 2.266 . S
In299 O308 2.326 . S
In299 O310 2.294 . S
In299 O311 2.326 . S
O300 In299 2.294 . S
O300 C309 1.240 . S
O301 In299 2.326 . S
O301 C309 1.252 . S
C302 O305 1.252 . S
C302 O306 1.260 . S
C303 O310 1.240 . S
C303 O311 1.252 . S
C304 O307 1.252 . S
C304 O308 1.260 . S
O305 In299 2.266 . S
O305 C302 1.252 . S
O306 In299 2.326 . S
O306 C302 1.260 . S
O307 In299 2.266 . S
O307 C304 1.252 . S
O308 In299 2.326 . S
O308 C304 1.260 . S
C309 O300 1.240 . S
C309 O301 1.252 . S
O310 In299 2.294 . S
O310 C303 1.240 . S
O311 In299 2.326 . S
O311 C303 1.252 . S
C312 C313 1.363 . S
C312 C318 1.379 . S
C312 N320 1.356 . S
C313 C312 1.363 . S
C313 C319 1.363 . S
C314 C315 1.363 . S
C314 C319 1.379 . S
C314 N321 1.356 . S
C315 C314 1.363 . S
C315 C318 1.363 . S
N316 C318 1.356 . S
N316 H328 0.984 . S
N316 H329 0.985 . S
N317 C319 1.356 . S
N317 H322 0.984 . S
N317 H323 0.985 . S
C318 C312 1.379 . S
C318 C315 1.363 . S
C318 N316 1.356 . S
C319 C313 1.363 . S
C319 C314 1.379 . S
C319 N317 1.356 . S
N320 C312 1.356 . S
N320 H326 0.984 . S
N320 H327 0.984 . S
N321 C314 1.356 . S
N321 H324 0.984 . S
N321 H325 0.985 . S
H322 N317 0.984 . S
H323 N317 0.985 . S
H324 N321 0.984 . S
H325 N321 0.985 . S
H326 N320 0.984 . S
H327 N320 0.984 . S
H328 N316 0.984 . S
H329 N316 0.985 . S
C330 C331 1.363 . S
C330 C336 1.379 1_655 S
C330 N338 1.356 . S
C331 C330 1.363 . S
C331 C337 1.363 . S
C332 C333 1.363 . S
C332 C337 1.379 1_455 S
C332 N339 1.356 . S
C333 C332 1.363 . S
C333 C336 1.363 . S
N334 C336 1.356 . S
N334 H346 0.984 . S
N334 H347 0.985 . S
N335 C337 1.356 . S
N335 H340 0.984 . S
N335 H341 0.985 . S
C336 C330 1.379 1_455 S
C336 C333 1.363 . S
C336 N334 1.356 . S
C337 C331 1.363 . S
C337 C332 1.379 1_655 S
C337 N335 1.356 . S
N338 C330 1.356 . S
N338 H344 0.984 . S
N338 H345 0.984 . S
N339 C332 1.356 . S
N339 H342 0.984 . S
N339 H343 0.985 . S
H340 N335 0.984 . S
H341 N335 0.985 . S
H342 N339 0.984 . S
H343 N339 0.985 . S
H344 N338 0.984 . S
H345 N338 0.984 . S
H346 N334 0.984 . S
H347 N334 0.985 . S
C348 C349 1.363 . S
C348 C354 1.379 . S
C348 N356 1.356 . S
C349 C348 1.363 . S
C349 C355 1.363 . S
C350 C351 1.363 . S
C350 C355 1.379 . S
C350 N357 1.356 . S
C351 C350 1.363 . S
C351 C354 1.363 . S
N352 C354 1.356 . S
N352 H364 0.984 . S
N352 H365 0.985 . S
N353 C355 1.356 . S
N353 H358 0.984 . S
N353 H359 0.985 . S
C354 C348 1.379 . S
C354 C351 1.363 . S
C354 N352 1.356 . S
C355 C349 1.363 . S
C355 C350 1.379 . S
C355 N353 1.356 . S
N356 C348 1.356 . S
N356 H362 0.984 . S
N356 H363 0.984 . S
N357 C350 1.356 . S
N357 H360 0.984 . S
N357 H361 0.985 . S
H358 N353 0.984 . S
H359 N353 0.985 . S
H360 N357 0.984 . S
H361 N357 0.985 . S
H362 N356 0.984 . S
H363 N356 0.984 . S
H364 N352 0.984 . S
H365 N352 0.985 . S
C366 C367 1.363 . S
C366 C372 1.379 1_455 S
C366 N374 1.356 . S
C367 C366 1.363 . S
C367 C373 1.363 . S
C368 C369 1.363 . S
C368 C373 1.379 1_655 S
C368 N375 1.356 . S
C369 C368 1.363 . S
C369 C372 1.363 . S
N370 C372 1.356 . S
N370 H382 0.984 . S
N370 H383 0.985 . S
N371 C373 1.356 . S
N371 H376 0.984 . S
N371 H377 0.985 . S
C372 C366 1.379 1_655 S
C372 C369 1.363 . S
C372 N370 1.356 . S
C373 C367 1.363 . S
C373 C368 1.379 1_455 S
C373 N371 1.356 . S
N374 C366 1.356 . S
N374 H380 0.984 . S
N374 H381 0.984 . S
N375 C368 1.356 . S
N375 H378 0.984 . S
N375 H379 0.985 . S
H376 N371 0.984 . S
H377 N371 0.985 . S
H378 N375 0.984 . S
H379 N375 0.985 . S
H380 N374 0.984 . S
H381 N374 0.984 . S
H382 N370 0.984 . S
H383 N370 0.985 . S
C384 C385 1.363 . S
C384 C390 1.379 . S
C384 N392 1.356 . S
C385 C384 1.363 . S
C385 C391 1.363 . S
C386 C387 1.363 . S
C386 C391 1.379 . S
C386 N393 1.356 . S
C387 C386 1.363 . S
C387 C390 1.363 . S
N388 C390 1.356 . S
N388 H400 0.984 . S
N388 H401 0.985 . S
N389 C391 1.356 . S
N389 H394 0.984 . S
N389 H395 0.985 . S
C390 C384 1.379 . S
C390 C387 1.363 . S
C390 N388 1.356 . S
C391 C385 1.363 . S
C391 C386 1.379 . S
C391 N389 1.356 . S
N392 C384 1.356 . S
N392 H398 0.984 . S
N392 H399 0.984 . S
N393 C386 1.356 . S
N393 H396 0.984 . S
N393 H397 0.985 . S
H394 N389 0.984 . S
H395 N389 0.985 . S
H396 N393 0.984 . S
H397 N393 0.985 . S
H398 N392 0.984 . S
H399 N392 0.984 . S
H400 N388 0.984 . S
H401 N388 0.985 . S
C402 C403 1.363 . S
C402 C408 1.379 1_655 S
C402 N410 1.356 . S
C403 C402 1.363 . S
C403 C409 1.363 . S
C404 C405 1.363 . S
C404 C409 1.379 1_455 S
C404 N411 1.356 . S
C405 C404 1.363 . S
C405 C408 1.363 . S
N406 C408 1.356 . S
N406 H418 0.984 . S
N406 H419 0.985 . S
N407 C409 1.356 . S
N407 H412 0.984 . S
N407 H413 0.985 . S
C408 C402 1.379 1_455 S
C408 C405 1.363 . S
C408 N406 1.356 . S
C409 C403 1.363 . S
C409 C404 1.379 1_655 S
C409 N407 1.356 . S
N410 C402 1.356 . S
N410 H416 0.984 . S
N410 H417 0.984 . S
N411 C404 1.356 . S
N411 H414 0.984 . S
N411 H415 0.985 . S
H412 N407 0.984 . S
H413 N407 0.985 . S
H414 N411 0.984 . S
H415 N411 0.985 . S
H416 N410 0.984 . S
H417 N410 0.984 . S
H418 N406 0.984 . S
H419 N406 0.985 . S
C420 C421 1.363 . S
C420 C426 1.379 . S
C420 N428 1.356 . S
C421 C420 1.363 . S
C421 C427 1.363 . S
C422 C423 1.363 . S
C422 C427 1.379 . S
C422 N429 1.356 . S
C423 C422 1.363 . S
C423 C426 1.363 . S
N424 C426 1.356 . S
N424 H436 0.984 . S
N424 H437 0.985 . S
N425 C427 1.356 . S
N425 H430 0.984 . S
N425 H431 0.985 . S
C426 C420 1.379 . S
C426 C423 1.363 . S
C426 N424 1.356 . S
C427 C421 1.363 . S
C427 C422 1.379 . S
C427 N425 1.356 . S
N428 C420 1.356 . S
N428 H434 0.984 . S
N428 H435 0.984 . S
N429 C422 1.356 . S
N429 H432 0.984 . S
N429 H433 0.985 . S
H430 N425 0.984 . S
H431 N425 0.985 . S
H432 N429 0.984 . S
H433 N429 0.985 . S
H434 N428 0.984 . S
H435 N428 0.984 . S
H436 N424 0.984 . S
H437 N424 0.985 . S
C438 C439 1.363 . S
C438 C444 1.379 1_655 S
C438 N446 1.356 . S
C439 C438 1.363 . S
C439 C445 1.363 . S
C440 C441 1.363 . S
C440 C445 1.379 1_455 S
C440 N447 1.356 . S
C441 C440 1.363 . S
C441 C444 1.363 . S
N442 C444 1.356 . S
N442 H454 0.984 . S
N442 H455 0.985 . S
N443 C445 1.356 . S
N443 H448 0.984 . S
N443 H449 0.985 . S
C444 C438 1.379 1_455 S
C444 C441 1.363 . S
C444 N442 1.356 . S
C445 C439 1.363 . S
C445 C440 1.379 1_655 S
C445 N443 1.356 . S
N446 C438 1.356 . S
N446 H452 0.984 . S
N446 H453 0.984 . S
N447 C440 1.356 . S
N447 H450 0.984 . S
N447 H451 0.985 . S
H448 N443 0.984 . S
H449 N443 0.985 . S
H450 N447 0.984 . S
H451 N447 0.985 . S
H452 N446 0.984 . S
H453 N446 0.984 . S
H454 N442 0.984 . S
H455 N442 0.985 . S
C456 C457 1.363 . S
C456 C462 1.379 . S
C456 N464 1.356 . S
C457 C456 1.363 . S
C457 C463 1.363 . S
C458 C459 1.363 . S
C458 C463 1.379 . S
C458 N465 1.356 . S
C459 C458 1.363 . S
C459 C462 1.363 . S
N460 C462 1.356 . S
N460 H472 0.984 . S
N460 H473 0.985 . S
N461 C463 1.356 . S
N461 H466 0.984 . S
N461 H467 0.985 . S
C462 C456 1.379 . S
C462 C459 1.363 . S
C462 N460 1.356 . S
C463 C457 1.363 . S
C463 C458 1.379 . S
C463 N461 1.356 . S
N464 C456 1.356 . S
N464 H470 0.984 . S
N464 H471 0.984 . S
N465 C458 1.356 . S
N465 H468 0.984 . S
N465 H469 0.985 . S
H466 N461 0.984 . S
H467 N461 0.985 . S
H468 N465 0.984 . S
H469 N465 0.985 . S
H470 N464 0.984 . S
H471 N464 0.984 . S
H472 N460 0.984 . S
H473 N460 0.985 . S
C474 C475 1.363 . S
C474 C480 1.379 1_556 S
C474 N482 1.356 . S
C475 C474 1.363 . S
C475 C481 1.363 . S
C476 C477 1.363 . S
C476 C481 1.379 1_554 S
C476 N483 1.356 . S
C477 C476 1.363 . S
C477 C480 1.363 . S
N478 C480 1.356 . S
N478 H490 0.984 . S
N478 H491 0.985 . S
N479 C481 1.356 . S
N479 H484 0.984 . S
N479 H485 0.985 . S
C480 C474 1.379 1_554 S
C480 C477 1.363 . S
C480 N478 1.356 . S
C481 C475 1.363 . S
C481 C476 1.379 1_556 S
C481 N479 1.356 . S
N482 C474 1.356 . S
N482 H488 0.984 . S
N482 H489 0.984 . S
N483 C476 1.356 . S
N483 H486 0.984 . S
N483 H487 0.985 . S
H484 N479 0.984 . S
H485 N479 0.985 . S
H486 N483 0.984 . S
H487 N483 0.985 . S
H488 N482 0.984 . S
H489 N482 0.984 . S
H490 N478 0.984 . S
H491 N478 0.985 . S
C492 C493 1.363 . S
C492 C498 1.379 . S
C492 N500 1.356 . S
C493 C492 1.363 . S
C493 C499 1.363 . S
C494 C495 1.363 . S
C494 C499 1.379 . S
C494 N501 1.356 . S
C495 C494 1.363 . S
C495 C498 1.363 . S
N496 C498 1.356 . S
N496 H508 0.984 . S
N496 H509 0.985 . S
N497 C499 1.356 . S
N497 H502 0.984 . S
N497 H503 0.985 . S
C498 C492 1.379 . S
C498 C495 1.363 . S
C498 N496 1.356 . S
C499 C493 1.363 . S
C499 C494 1.379 . S
C499 N497 1.356 . S
N500 C492 1.356 . S
N500 H506 0.984 . S
N500 H507 0.984 . S
N501 C494 1.356 . S
N501 H504 0.984 . S
N501 H505 0.985 . S
H502 N497 0.984 . S
H503 N497 0.985 . S
H504 N501 0.984 . S
H505 N501 0.985 . S
H506 N500 0.984 . S
H507 N500 0.984 . S
H508 N496 0.984 . S
H509 N496 0.985 . S
C510 C511 1.363 . S
C510 C516 1.379 1_554 S
C510 N518 1.356 . S
C511 C510 1.363 . S
C511 C517 1.363 . S
C512 C513 1.363 . S
C512 C517 1.379 1_556 S
C512 N519 1.356 . S
C513 C512 1.363 . S
C513 C516 1.363 . S
N514 C516 1.356 . S
N514 H526 0.984 . S
N514 H527 0.985 . S
N515 C517 1.356 . S
N515 H520 0.984 . S
N515 H521 0.985 . S
C516 C510 1.379 1_556 S
C516 C513 1.363 . S
C516 N514 1.356 . S
C517 C511 1.363 . S
C517 C512 1.379 1_554 S
C517 N515 1.356 . S
N518 C510 1.356 . S
N518 H524 0.984 . S
N518 H525 0.984 . S
N519 C512 1.356 . S
N519 H522 0.984 . S
N519 H523 0.985 . S
H520 N515 0.984 . S
H521 N515 0.985 . S
H522 N519 0.984 . S
H523 N519 0.985 . S
H524 N518 0.984 . S
H525 N518 0.984 . S
H526 N514 0.984 . S
H527 N514 0.985 . S
C528 C529 1.363 . S
C528 C534 1.379 . S
C528 N536 1.356 . S
C529 C528 1.363 . S
C529 C535 1.363 . S
C530 C531 1.363 . S
C530 C535 1.379 . S
C530 N537 1.356 . S
C531 C530 1.363 . S
C531 C534 1.363 . S
N532 C534 1.356 . S
N532 H544 0.984 . S
N532 H545 0.985 . S
N533 C535 1.356 . S
N533 H538 0.984 . S
N533 H539 0.985 . S
C534 C528 1.379 . S
C534 C531 1.363 . S
C534 N532 1.356 . S
C535 C529 1.363 . S
C535 C530 1.379 . S
C535 N533 1.356 . S
N536 C528 1.356 . S
N536 H542 0.984 . S
N536 H543 0.984 . S
N537 C530 1.356 . S
N537 H540 0.984 . S
N537 H541 0.985 . S
H538 N533 0.984 . S
H539 N533 0.985 . S
H540 N537 0.984 . S
H541 N537 0.985 . S
H542 N536 0.984 . S
H543 N536 0.984 . S
H544 N532 0.984 . S
H545 N532 0.985 . S
C546 C547 1.363 . S
C546 C552 1.379 1_554 S
C546 N554 1.356 . S
C547 C546 1.363 . S
C547 C553 1.363 . S
C548 C549 1.363 . S
C548 C553 1.379 1_556 S
C548 N555 1.356 . S
C549 C548 1.363 . S
C549 C552 1.363 . S
N550 C552 1.356 . S
N550 H562 0.984 . S
N550 H563 0.985 . S
N551 C553 1.356 . S
N551 H556 0.984 . S
N551 H557 0.985 . S
C552 C546 1.379 1_556 S
C552 C549 1.363 . S
C552 N550 1.356 . S
C553 C547 1.363 . S
C553 C548 1.379 1_554 S
C553 N551 1.356 . S
N554 C546 1.356 . S
N554 H560 0.984 . S
N554 H561 0.984 . S
N555 C548 1.356 . S
N555 H558 0.984 . S
N555 H559 0.985 . S
H556 N551 0.984 . S
H557 N551 0.985 . S
H558 N555 0.984 . S
H559 N555 0.985 . S
H560 N554 0.984 . S
H561 N554 0.984 . S
H562 N550 0.984 . S
H563 N550 0.985 . S
C564 C565 1.363 . S
C564 C570 1.379 . S
C564 N572 1.356 . S
C565 C564 1.363 . S
C565 C571 1.363 . S
C566 C567 1.363 . S
C566 C571 1.379 . S
C566 N573 1.356 . S
C567 C566 1.363 . S
C567 C570 1.363 . S
N568 C570 1.356 . S
N568 H580 0.984 . S
N568 H581 0.985 . S
N569 C571 1.356 . S
N569 H574 0.984 . S
N569 H575 0.985 . S
C570 C564 1.379 . S
C570 C567 1.363 . S
C570 N568 1.356 . S
C571 C565 1.363 . S
C571 C566 1.379 . S
C571 N569 1.356 . S
N572 C564 1.356 . S
N572 H578 0.984 . S
N572 H579 0.984 . S
N573 C566 1.356 . S
N573 H576 0.984 . S
N573 H577 0.985 . S
H574 N569 0.984 . S
H575 N569 0.985 . S
H576 N573 0.984 . S
H577 N573 0.985 . S
H578 N572 0.984 . S
H579 N572 0.984 . S
H580 N568 0.984 . S
H581 N568 0.985 . S
C582 C583 1.363 . S
C582 C588 1.379 1_554 S
C582 N590 1.356 . S
C583 C582 1.363 . S
C583 C589 1.363 . S
C584 C585 1.363 . S
C584 C589 1.379 1_556 S
C584 N591 1.356 . S
C585 C584 1.363 . S
C585 C588 1.363 . S
N586 C588 1.356 . S
N586 H598 0.984 . S
N586 H599 0.985 . S
N587 C589 1.356 . S
N587 H592 0.984 . S
N587 H593 0.985 . S
C588 C582 1.379 1_556 S
C588 C585 1.363 . S
C588 N586 1.356 . S
C589 C583 1.363 . S
C589 C584 1.379 1_554 S
C589 N587 1.356 . S
N590 C582 1.356 . S
N590 H596 0.984 . S
N590 H597 0.984 . S
N591 C584 1.356 . S
N591 H594 0.984 . S
N591 H595 0.985 . S
H592 N587 0.984 . S
H593 N587 0.985 . S
H594 N591 0.984 . S
H595 N591 0.985 . S
H596 N590 0.984 . S
H597 N590 0.984 . S
H598 N586 0.984 . S
H599 N586 0.985 . S
C600 C601 1.363 . S
C600 C606 1.379 . S
C600 N608 1.356 . S
C601 C600 1.363 . S
C601 C607 1.363 . S
C602 C603 1.363 . S
C602 C607 1.379 . S
C602 N609 1.356 . S
C603 C602 1.363 . S
C603 C606 1.363 . S
N604 C606 1.356 . S
N604 H616 0.984 . S
N604 H617 0.985 . S
N605 C607 1.356 . S
N605 H610 0.984 . S
N605 H611 0.985 . S
C606 C600 1.379 . S
C606 C603 1.363 . S
C606 N604 1.356 . S
C607 C601 1.363 . S
C607 C602 1.379 . S
C607 N605 1.356 . S
N608 C600 1.356 . S
N608 H614 0.984 . S
N608 H615 0.984 . S
N609 C602 1.356 . S
N609 H612 0.984 . S
N609 H613 0.985 . S
H610 N605 0.984 . S
H611 N605 0.985 . S
H612 N609 0.984 . S
H613 N609 0.985 . S
H614 N608 0.984 . S
H615 N608 0.984 . S
H616 N604 0.984 . S
H617 N604 0.985 . S
C618 C619 1.363 . S
C618 C624 1.379 . S
C618 N626 1.356 . S
C619 C618 1.363 . S
C619 C625 1.363 . S
C620 C621 1.363 . S
C620 C625 1.379 . S
C620 N627 1.356 . S
C621 C620 1.363 . S
C621 C624 1.363 . S
N622 C624 1.356 . S
N622 H634 0.984 . S
N622 H635 0.985 . S
N623 C625 1.356 . S
N623 H628 0.984 . S
N623 H629 0.985 . S
C624 C618 1.379 . S
C624 C621 1.363 . S
C624 N622 1.356 . S
C625 C619 1.363 . S
C625 C620 1.379 . S
C625 N623 1.356 . S
N626 C618 1.356 . S
N626 H632 0.984 . S
N626 H633 0.984 . S
N627 C620 1.356 . S
N627 H630 0.984 . S
N627 H631 0.985 . S
H628 N623 0.984 . S
H629 N623 0.985 . S
H630 N627 0.984 . S
H631 N627 0.985 . S
H632 N626 0.984 . S
H633 N626 0.984 . S
H634 N622 0.984 . S
H635 N622 0.985 . S
C636 C637 1.363 . S
C636 C642 1.379 1_565 S
C636 N644 1.356 . S
C637 C636 1.363 . S
C637 C643 1.363 . S
C638 C639 1.363 . S
C638 C643 1.379 1_545 S
C638 N645 1.356 . S
C639 C638 1.363 . S
C639 C642 1.363 . S
N640 C642 1.356 . S
N640 H652 0.984 . S
N640 H653 0.985 . S
N641 C643 1.356 . S
N641 H646 0.984 . S
N641 H647 0.985 . S
C642 C636 1.379 1_545 S
C642 C639 1.363 . S
C642 N640 1.356 . S
C643 C637 1.363 . S
C643 C638 1.379 1_565 S
C643 N641 1.356 . S
N644 C636 1.356 . S
N644 H650 0.984 . S
N644 H651 0.984 . S
N645 C638 1.356 . S
N645 H648 0.984 . S
N645 H649 0.985 . S
H646 N641 0.984 . S
H647 N641 0.985 . S
H648 N645 0.984 . S
H649 N645 0.985 . S
H650 N644 0.984 . S
H651 N644 0.984 . S
H652 N640 0.984 . S
H653 N640 0.985 . S
C654 C655 1.363 . S
C654 C660 1.379 . S
C654 N662 1.356 . S
C655 C654 1.363 . S
C655 C661 1.363 . S
C656 C657 1.363 . S
C656 C661 1.379 . S
C656 N663 1.356 . S
C657 C656 1.363 . S
C657 C660 1.363 . S
N658 C660 1.356 . S
N658 H670 0.984 . S
N658 H671 0.985 . S
N659 C661 1.356 . S
N659 H664 0.984 . S
N659 H665 0.985 . S
C660 C654 1.379 . S
C660 C657 1.363 . S
C660 N658 1.356 . S
C661 C655 1.363 . S
C661 C656 1.379 . S
C661 N659 1.356 . S
N662 C654 1.356 . S
N662 H668 0.984 . S
N662 H669 0.984 . S
N663 C656 1.356 . S
N663 H666 0.984 . S
N663 H667 0.985 . S
H664 N659 0.984 . S
H665 N659 0.985 . S
H666 N663 0.984 . S
H667 N663 0.985 . S
H668 N662 0.984 . S
H669 N662 0.984 . S
H670 N658 0.984 . S
H671 N658 0.985 . S
C672 C673 1.363 . S
C672 C678 1.379 1_565 S
C672 N680 1.356 . S
C673 C672 1.363 . S
C673 C679 1.363 . S
C674 C675 1.363 . S
C674 C679 1.379 1_545 S
C674 N681 1.356 . S
C675 C674 1.363 . S
C675 C678 1.363 . S
N676 C678 1.356 . S
N676 H688 0.984 . S
N676 H689 0.985 . S
N677 C679 1.356 . S
N677 H682 0.984 . S
N677 H683 0.985 . S
C678 C672 1.379 1_545 S
C678 C675 1.363 . S
C678 N676 1.356 . S
C679 C673 1.363 . S
C679 C674 1.379 1_565 S
C679 N677 1.356 . S
N680 C672 1.356 . S
N680 H686 0.984 . S
N680 H687 0.984 . S
N681 C674 1.356 . S
N681 H684 0.984 . S
N681 H685 0.985 . S
H682 N677 0.984 . S
H683 N677 0.985 . S
H684 N681 0.984 . S
H685 N681 0.985 . S
H686 N680 0.984 . S
H687 N680 0.984 . S
H688 N676 0.984 . S
H689 N676 0.985 . S
C690 C691 1.363 . S
C690 C696 1.379 . S
C690 N698 1.356 . S
C691 C690 1.363 . S
C691 C697 1.363 . S
C692 C693 1.363 . S
C692 C697 1.379 . S
C692 N699 1.356 . S
C693 C692 1.363 . S
C693 C696 1.363 . S
N694 C696 1.356 . S
N694 H706 0.984 . S
N694 H707 0.985 . S
N695 C697 1.356 . S
N695 H700 0.984 . S
N695 H701 0.985 . S
C696 C690 1.379 . S
C696 C693 1.363 . S
C696 N694 1.356 . S
C697 C691 1.363 . S
C697 C692 1.379 . S
C697 N695 1.356 . S
N698 C690 1.356 . S
N698 H704 0.984 . S
N698 H705 0.984 . S
N699 C692 1.356 . S
N699 H702 0.984 . S
N699 H703 0.985 . S
H700 N695 0.984 . S
H701 N695 0.985 . S
H702 N699 0.984 . S
H703 N699 0.985 . S
H704 N698 0.984 . S
H705 N698 0.984 . S
H706 N694 0.984 . S
H707 N694 0.985 . S
C708 C709 1.363 . S
C708 C714 1.379 1_565 S
C708 N716 1.356 . S
C709 C708 1.363 . S
C709 C715 1.363 . S
C710 C711 1.363 . S
C710 C715 1.379 1_545 S
C710 N717 1.356 . S
C711 C710 1.363 . S
C711 C714 1.363 . S
N712 C714 1.356 . S
N712 H724 0.984 . S
N712 H725 0.985 . S
N713 C715 1.356 . S
N713 H718 0.984 . S
N713 H719 0.985 . S
C714 C708 1.379 1_545 S
C714 C711 1.363 . S
C714 N712 1.356 . S
C715 C709 1.363 . S
C715 C710 1.379 1_565 S
C715 N713 1.356 . S
N716 C708 1.356 . S
N716 H722 0.984 . S
N716 H723 0.984 . S
N717 C710 1.356 . S
N717 H720 0.984 . S
N717 H721 0.985 . S
H718 N713 0.984 . S
H719 N713 0.985 . S
H720 N717 0.984 . S
H721 N717 0.985 . S
H722 N716 0.984 . S
H723 N716 0.984 . S
H724 N712 0.984 . S
H725 N712 0.985 . S
C726 C727 1.363 . S
C726 C732 1.379 1_545 S
C726 N734 1.356 . S
C727 C726 1.363 . S
C727 C733 1.363 . S
C728 C729 1.363 . S
C728 C733 1.379 1_565 S
C728 N735 1.356 . S
C729 C728 1.363 . S
C729 C732 1.363 . S
N730 C732 1.356 . S
N730 H742 0.984 . S
N730 H743 0.985 . S
N731 C733 1.356 . S
N731 H736 0.984 . S
N731 H737 0.985 . S
C732 C726 1.379 1_565 S
C732 C729 1.363 . S
C732 N730 1.356 . S
C733 C727 1.363 . S
C733 C728 1.379 1_545 S
C733 N731 1.356 . S
N734 C726 1.356 . S
N734 H740 0.984 . S
N734 H741 0.984 . S
N735 C728 1.356 . S
N735 H738 0.984 . S
N735 H739 0.985 . S
H736 N731 0.984 . S
H737 N731 0.985 . S
H738 N735 0.984 . S
H739 N735 0.985 . S
H740 N734 0.984 . S
H741 N734 0.984 . S
H742 N730 0.984 . S
H743 N730 0.985 . S
C744 C745 1.363 . S
C744 C750 1.379 . S
C744 N752 1.356 . S
C745 C744 1.363 . S
C745 C751 1.363 . S
C746 C747 1.363 . S
C746 C751 1.379 . S
C746 N753 1.356 . S
C747 C746 1.363 . S
C747 C750 1.363 . S
N748 C750 1.356 . S
N748 H760 0.984 . S
N748 H761 0.985 . S
N749 C751 1.356 . S
N749 H754 0.984 . S
N749 H755 0.985 . S
C750 C744 1.379 . S
C750 C747 1.363 . S
C750 N748 1.356 . S
C751 C745 1.363 . S
C751 C746 1.379 . S
C751 N749 1.356 . S
N752 C744 1.356 . S
N752 H758 0.984 . S
N752 H759 0.984 . S
N753 C746 1.356 . S
N753 H756 0.984 . S
N753 H757 0.985 . S
H754 N749 0.984 . S
H755 N749 0.985 . S
H756 N753 0.984 . S
H757 N753 0.985 . S
H758 N752 0.984 . S
H759 N752 0.984 . S
H760 N748 0.984 . S
H761 N748 0.985 . S
C762 C763 1.363 . S
C762 C768 1.379 . S
C762 N770 1.356 . S
C763 C762 1.363 . S
C763 C769 1.363 . S
C764 C765 1.363 . S
C764 C769 1.379 . S
C764 N771 1.356 . S
C765 C764 1.363 . S
C765 C768 1.363 . S
N766 C768 1.356 . S
N766 H778 0.984 . S
N766 H779 0.985 . S
N767 C769 1.356 . S
N767 H772 0.984 . S
N767 H773 0.985 . S
C768 C762 1.379 . S
C768 C765 1.363 . S
C768 N766 1.356 . S
C769 C763 1.363 . S
C769 C764 1.379 . S
C769 N767 1.356 . S
N770 C762 1.356 . S
N770 H776 0.984 . S
N770 H777 0.984 . S
N771 C764 1.356 . S
N771 H774 0.984 . S
N771 H775 0.985 . S
H772 N767 0.984 . S
H773 N767 0.985 . S
H774 N771 0.984 . S
H775 N771 0.985 . S
H776 N770 0.984 . S
H777 N770 0.984 . S
H778 N766 0.984 . S
H779 N766 0.985 . S
C780 C781 1.363 . S
C780 C786 1.379 . S
C780 N788 1.356 . S
C781 C780 1.363 . S
C781 C787 1.363 . S
C782 C783 1.363 . S
C782 C787 1.379 . S
C782 N789 1.356 . S
C783 C782 1.363 . S
C783 C786 1.363 . S
N784 C786 1.356 . S
N784 H796 0.984 . S
N784 H797 0.985 . S
N785 C787 1.356 . S
N785 H790 0.984 . S
N785 H791 0.985 . S
C786 C780 1.379 . S
C786 C783 1.363 . S
C786 N784 1.356 . S
C787 C781 1.363 . S
C787 C782 1.379 . S
C787 N785 1.356 . S
N788 C780 1.356 . S
N788 H794 0.984 . S
N788 H795 0.984 . S
N789 C782 1.356 . S
N789 H792 0.984 . S
N789 H793 0.985 . S
H790 N785 0.984 . S
H791 N785 0.985 . S
H792 N789 0.984 . S
H793 N789 0.985 . S
H794 N788 0.984 . S
H795 N788 0.984 . S
H796 N784 0.984 . S
H797 N784 0.985 . S
C798 C799 1.363 . S
C798 C804 1.379 . S
C798 N806 1.356 . S
C799 C798 1.363 . S
C799 C805 1.363 . S
C800 C801 1.363 . S
C800 C805 1.379 . S
C800 N807 1.356 . S
C801 C800 1.363 . S
C801 C804 1.363 . S
N802 C804 1.356 . S
N802 H814 0.984 . S
N802 H815 0.985 . S
N803 C805 1.356 . S
N803 H808 0.984 . S
N803 H809 0.985 . S
C804 C798 1.379 . S
C804 C801 1.363 . S
C804 N802 1.356 . S
C805 C799 1.363 . S
C805 C800 1.379 . S
C805 N803 1.356 . S
N806 C798 1.356 . S
N806 H812 0.984 . S
N806 H813 0.984 . S
N807 C800 1.356 . S
N807 H810 0.984 . S
N807 H811 0.985 . S
H808 N803 0.984 . S
H809 N803 0.985 . S
H810 N807 0.984 . S
H811 N807 0.985 . S
H812 N806 0.984 . S
H813 N806 0.984 . S
H814 N802 0.984 . S
H815 N802 0.985 . S
C816 C817 1.363 . S
C816 C822 1.379 . S
C816 N824 1.356 . S
C817 C816 1.363 . S
C817 C823 1.363 . S
C818 C819 1.363 . S
C818 C823 1.379 . S
C818 N825 1.356 . S
C819 C818 1.363 . S
C819 C822 1.363 . S
N820 C822 1.356 . S
N820 H832 0.984 . S
N820 H833 0.985 . S
N821 C823 1.356 . S
N821 H826 0.984 . S
N821 H827 0.985 . S
C822 C816 1.379 . S
C822 C819 1.363 . S
C822 N820 1.356 . S
C823 C817 1.363 . S
C823 C818 1.379 . S
C823 N821 1.356 . S
N824 C816 1.356 . S
N824 H830 0.984 . S
N824 H831 0.984 . S
N825 C818 1.356 . S
N825 H828 0.984 . S
N825 H829 0.985 . S
H826 N821 0.984 . S
H827 N821 0.985 . S
H828 N825 0.984 . S
H829 N825 0.985 . S
H830 N824 0.984 . S
H831 N824 0.984 . S
H832 N820 0.984 . S
H833 N820 0.985 . S
C834 C835 1.363 . S
C834 C840 1.379 . S
C834 N842 1.356 . S
C835 C834 1.363 . S
C835 C841 1.363 . S
C836 C837 1.363 . S
C836 C841 1.379 . S
C836 N843 1.356 . S
C837 C836 1.363 . S
C837 C840 1.363 . S
N838 C840 1.356 . S
N838 H850 0.984 . S
N838 H851 0.985 . S
N839 C841 1.356 . S
N839 H844 0.984 . S
N839 H845 0.985 . S
C840 C834 1.379 . S
C840 C837 1.363 . S
C840 N838 1.356 . S
C841 C835 1.363 . S
C841 C836 1.379 . S
C841 N839 1.356 . S
N842 C834 1.356 . S
N842 H848 0.984 . S
N842 H849 0.984 . S
N843 C836 1.356 . S
N843 H846 0.984 . S
N843 H847 0.985 . S
H844 N839 0.984 . S
H845 N839 0.985 . S
H846 N843 0.984 . S
H847 N843 0.985 . S
H848 N842 0.984 . S
H849 N842 0.984 . S
H850 N838 0.984 . S
H851 N838 0.985 . S
C852 C853 1.363 . S
C852 C858 1.379 . S
C852 N860 1.356 . S
C853 C852 1.363 . S
C853 C859 1.363 . S
C854 C855 1.363 . S
C854 C859 1.379 . S
C854 N861 1.356 . S
C855 C854 1.363 . S
C855 C858 1.363 . S
N856 C858 1.356 . S
N856 H868 0.984 . S
N856 H869 0.985 . S
N857 C859 1.356 . S
N857 H862 0.984 . S
N857 H863 0.985 . S
C858 C852 1.379 . S
C858 C855 1.363 . S
C858 N856 1.356 . S
C859 C853 1.363 . S
C859 C854 1.379 . S
C859 N857 1.356 . S
N860 C852 1.356 . S
N860 H866 0.984 . S
N860 H867 0.984 . S
N861 C854 1.356 . S
N861 H864 0.984 . S
N861 H865 0.985 . S
H862 N857 0.984 . S
H863 N857 0.985 . S
H864 N861 0.984 . S
H865 N861 0.985 . S
H866 N860 0.984 . S
H867 N860 0.984 . S
H868 N856 0.984 . S
H869 N856 0.985 . S
C870 C871 1.363 . S
C870 C876 1.379 . S
C870 N878 1.356 . S
C871 C870 1.363 . S
C871 C877 1.363 . S
C872 C873 1.363 . S
C872 C877 1.379 . S
C872 N879 1.356 . S
C873 C872 1.363 . S
C873 C876 1.363 . S
N874 C876 1.356 . S
N874 H886 0.984 . S
N874 H887 0.985 . S
N875 C877 1.356 . S
N875 H880 0.984 . S
N875 H881 0.985 . S
C876 C870 1.379 . S
C876 C873 1.363 . S
C876 N874 1.356 . S
C877 C871 1.363 . S
C877 C872 1.379 . S
C877 N875 1.356 . S
N878 C870 1.356 . S
N878 H884 0.984 . S
N878 H885 0.984 . S
N879 C872 1.356 . S
N879 H882 0.984 . S
N879 H883 0.985 . S
H880 N875 0.984 . S
H881 N875 0.985 . S
H882 N879 0.984 . S
H883 N879 0.985 . S
H884 N878 0.984 . S
H885 N878 0.984 . S
H886 N874 0.984 . S
H887 N874 0.985 . S
C888 C889 1.363 . S
C888 C894 1.379 . S
C888 N896 1.356 . S
C889 C888 1.363 . S
C889 C895 1.363 . S
C890 C891 1.363 . S
C890 C895 1.379 . S
C890 N897 1.356 . S
C891 C890 1.363 . S
C891 C894 1.363 . S
N892 C894 1.356 . S
N892 H904 0.984 . S
N892 H905 0.985 . S
N893 C895 1.356 . S
N893 H898 0.984 . S
N893 H899 0.985 . S
C894 C888 1.379 . S
C894 C891 1.363 . S
C894 N892 1.356 . S
C895 C889 1.363 . S
C895 C890 1.379 . S
C895 N893 1.356 . S
N896 C888 1.356 . S
N896 H902 0.984 . S
N896 H903 0.984 . S
N897 C890 1.356 . S
N897 H900 0.984 . S
N897 H901 0.985 . S
H898 N893 0.984 . S
H899 N893 0.985 . S
H900 N897 0.984 . S
H901 N897 0.985 . S
H902 N896 0.984 . S
H903 N896 0.984 . S
H904 N892 0.984 . S
H905 N892 0.985 . S
C906 C907 1.363 . S
C906 C912 1.379 . S
C906 N914 1.356 . S
C907 C906 1.363 . S
C907 C913 1.363 . S
C908 C909 1.363 . S
C908 C913 1.379 . S
C908 N915 1.356 . S
C909 C908 1.363 . S
C909 C912 1.363 . S
N910 C912 1.356 . S
N910 H922 0.984 . S
N910 H923 0.985 . S
N911 C913 1.356 . S
N911 H916 0.984 . S
N911 H917 0.985 . S
C912 C906 1.379 . S
C912 C909 1.363 . S
C912 N910 1.356 . S
C913 C907 1.363 . S
C913 C908 1.379 . S
C913 N911 1.356 . S
N914 C906 1.356 . S
N914 H920 0.984 . S
N914 H921 0.984 . S
N915 C908 1.356 . S
N915 H918 0.984 . S
N915 H919 0.985 . S
H916 N911 0.984 . S
H917 N911 0.985 . S
H918 N915 0.984 . S
H919 N915 0.985 . S
H920 N914 0.984 . S
H921 N914 0.984 . S
H922 N910 0.984 . S
H923 N910 0.985 . S
C924 C925 1.363 . S
C924 C930 1.379 . S
C924 N932 1.356 . S
C925 C924 1.363 . S
C925 C931 1.363 . S
C926 C927 1.363 . S
C926 C931 1.379 . S
C926 N933 1.356 . S
C927 C926 1.363 . S
C927 C930 1.363 . S
N928 C930 1.356 . S
N928 H940 0.984 . S
N928 H941 0.985 . S
N929 C931 1.356 . S
N929 H934 0.984 . S
N929 H935 0.985 . S
C930 C924 1.379 . S
C930 C927 1.363 . S
C930 N928 1.356 . S
C931 C925 1.363 . S
C931 C926 1.379 . S
C931 N929 1.356 . S
N932 C924 1.356 . S
N932 H938 0.984 . S
N932 H939 0.984 . S
N933 C926 1.356 . S
N933 H936 0.984 . S
N933 H937 0.985 . S
H934 N929 0.984 . S
H935 N929 0.985 . S
H936 N933 0.984 . S
H937 N933 0.985 . S
H938 N932 0.984 . S
H939 N932 0.984 . S
H940 N928 0.984 . S
H941 N928 0.985 . S
C942 C943 1.363 . S
C942 C948 1.379 . S
C942 N950 1.356 . S
C943 C942 1.363 . S
C943 C949 1.363 . S
C944 C945 1.363 . S
C944 C949 1.379 . S
C944 N951 1.356 . S
C945 C944 1.363 . S
C945 C948 1.363 . S
N946 C948 1.356 . S
N946 H958 0.984 . S
N946 H959 0.985 . S
N947 C949 1.356 . S
N947 H952 0.984 . S
N947 H953 0.985 . S
C948 C942 1.379 . S
C948 C945 1.363 . S
C948 N946 1.356 . S
C949 C943 1.363 . S
C949 C944 1.379 . S
C949 N947 1.356 . S
N950 C942 1.356 . S
N950 H956 0.984 . S
N950 H957 0.984 . S
N951 C944 1.356 . S
N951 H954 0.984 . S
N951 H955 0.985 . S
H952 N947 0.984 . S
H953 N947 0.985 . S
H954 N951 0.984 . S
H955 N951 0.985 . S
H956 N950 0.984 . S
H957 N950 0.984 . S
H958 N946 0.984 . S
H959 N946 0.985 . S
C960 C961 1.363 . S
C960 C966 1.379 . S
C960 N968 1.356 . S
C961 C960 1.363 . S
C961 C967 1.363 . S
C962 C963 1.363 . S
C962 C967 1.379 . S
C962 N969 1.356 . S
C963 C962 1.363 . S
C963 C966 1.363 . S
N964 C966 1.356 . S
N964 H976 0.984 . S
N964 H977 0.985 . S
N965 C967 1.356 . S
N965 H970 0.984 . S
N965 H971 0.985 . S
C966 C960 1.379 . S
C966 C963 1.363 . S
C966 N964 1.356 . S
C967 C961 1.363 . S
C967 C962 1.379 . S
C967 N965 1.356 . S
N968 C960 1.356 . S
N968 H974 0.984 . S
N968 H975 0.984 . S
N969 C962 1.356 . S
N969 H972 0.984 . S
N969 H973 0.985 . S
H970 N965 0.984 . S
H971 N965 0.985 . S
H972 N969 0.984 . S
H973 N969 0.985 . S
H974 N968 0.984 . S
H975 N968 0.984 . S
H976 N964 0.984 . S
H977 N964 0.985 . S
C978 C979 1.363 . S
C978 C984 1.379 . S
C978 N986 1.356 . S
C979 C978 1.363 . S
C979 C985 1.363 . S
C980 C981 1.363 . S
C980 C985 1.379 . S
C980 N987 1.356 . S
C981 C980 1.363 . S
C981 C984 1.363 . S
N982 C984 1.356 . S
N982 H994 0.984 . S
N982 H995 0.985 . S
N983 C985 1.356 . S
N983 H988 0.984 . S
N983 H989 0.985 . S
C984 C978 1.379 . S
C984 C981 1.363 . S
C984 N982 1.356 . S
C985 C979 1.363 . S
C985 C980 1.379 . S
C985 N983 1.356 . S
N986 C978 1.356 . S
N986 H992 0.984 . S
N986 H993 0.984 . S
N987 C980 1.356 . S
N987 H990 0.984 . S
N987 H991 0.985 . S
H988 N983 0.984 . S
H989 N983 0.985 . S
H990 N987 0.984 . S
H991 N987 0.985 . S
H992 N986 0.984 . S
H993 N986 0.984 . S
H994 N982 0.984 . S
H995 N982 0.985 . S
C996 C997 1.363 . S
C996 C1002 1.379 . S
C996 N1004 1.356 . S
C997 C996 1.363 . S
C997 C1003 1.363 . S
C998 C999 1.363 . S
C998 C1003 1.379 . S
C998 N1005 1.356 . S
C999 C998 1.363 . S
C999 C1002 1.363 . S
N1000 C1002 1.356 . S
N1000 H1012 0.984 . S
N1000 H1013 0.985 . S
N1001 C1003 1.356 . S
N1001 H1006 0.984 . S
N1001 H1007 0.985 . S
C1002 C996 1.379 . S
C1002 C999 1.363 . S
C1002 N1000 1.356 . S
C1003 C997 1.363 . S
C1003 C998 1.379 . S
C1003 N1001 1.356 . S
N1004 C996 1.356 . S
N1004 H1010 0.984 . S
N1004 H1011 0.984 . S
N1005 C998 1.356 . S
N1005 H1008 0.984 . S
N1005 H1009 0.985 . S
H1006 N1001 0.984 . S
H1007 N1001 0.985 . S
H1008 N1005 0.984 . S
H1009 N1005 0.985 . S
H1010 N1004 0.984 . S
H1011 N1004 0.984 . S
H1012 N1000 0.984 . S
H1013 N1000 0.985 . S
C1014 C1015 1.363 . S
C1014 C1020 1.379 . S
C1014 N1022 1.356 . S
C1015 C1014 1.363 . S
C1015 C1021 1.363 . S
C1016 C1017 1.363 . S
C1016 C1021 1.379 . S
C1016 N1023 1.356 . S
C1017 C1016 1.363 . S
C1017 C1020 1.363 . S
N1018 C1020 1.356 . S
N1018 H1030 0.984 . S
N1018 H1031 0.985 . S
N1019 C1021 1.356 . S
N1019 H1024 0.984 . S
N1019 H1025 0.985 . S
C1020 C1014 1.379 . S
C1020 C1017 1.363 . S
C1020 N1018 1.356 . S
C1021 C1015 1.363 . S
C1021 C1016 1.379 . S
C1021 N1019 1.356 . S
N1022 C1014 1.356 . S
N1022 H1028 0.984 . S
N1022 H1029 0.984 . S
N1023 C1016 1.356 . S
N1023 H1026 0.984 . S
N1023 H1027 0.985 . S
H1024 N1019 0.984 . S
H1025 N1019 0.985 . S
H1026 N1023 0.984 . S
H1027 N1023 0.985 . S
H1028 N1022 0.984 . S
H1029 N1022 0.984 . S
H1030 N1018 0.984 . S
H1031 N1018 0.985 . S
C1032 C1033 1.363 . S
C1032 C1038 1.379 . S
C1032 N1040 1.356 . S
C1033 C1032 1.363 . S
C1033 C1039 1.363 . S
C1034 C1035 1.363 . S
C1034 C1039 1.379 . S
C1034 N1041 1.356 . S
C1035 C1034 1.363 . S
C1035 C1038 1.363 . S
N1036 C1038 1.356 . S
N1036 H1048 0.984 . S
N1036 H1049 0.985 . S
N1037 C1039 1.356 . S
N1037 H1042 0.984 . S
N1037 H1043 0.985 . S
C1038 C1032 1.379 . S
C1038 C1035 1.363 . S
C1038 N1036 1.356 . S
C1039 C1033 1.363 . S
C1039 C1034 1.379 . S
C1039 N1037 1.356 . S
N1040 C1032 1.356 . S
N1040 H1046 0.984 . S
N1040 H1047 0.984 . S
N1041 C1034 1.356 . S
N1041 H1044 0.984 . S
N1041 H1045 0.985 . S
H1042 N1037 0.984 . S
H1043 N1037 0.985 . S
H1044 N1041 0.984 . S
H1045 N1041 0.985 . S
H1046 N1040 0.984 . S
H1047 N1040 0.984 . S
H1048 N1036 0.984 . S
H1049 N1036 0.985 . S
C1050 C1051 1.363 . S
C1050 C1056 1.379 . S
C1050 N1058 1.356 . S
C1051 C1050 1.363 . S
C1051 C1057 1.363 . S
C1052 C1053 1.363 . S
C1052 C1057 1.379 . S
C1052 N1059 1.356 . S
C1053 C1052 1.363 . S
C1053 C1056 1.363 . S
N1054 C1056 1.356 . S
N1054 H1066 0.984 . S
N1054 H1067 0.985 . S
N1055 C1057 1.356 . S
N1055 H1060 0.984 . S
N1055 H1061 0.985 . S
C1056 C1050 1.379 . S
C1056 C1053 1.363 . S
C1056 N1054 1.356 . S
C1057 C1051 1.363 . S
C1057 C1052 1.379 . S
C1057 N1055 1.356 . S
N1058 C1050 1.356 . S
N1058 H1064 0.984 . S
N1058 H1065 0.984 . S
N1059 C1052 1.356 . S
N1059 H1062 0.984 . S
N1059 H1063 0.985 . S
H1060 N1055 0.984 . S
H1061 N1055 0.985 . S
H1062 N1059 0.984 . S
H1063 N1059 0.985 . S
H1064 N1058 0.984 . S
H1065 N1058 0.984 . S
H1066 N1054 0.984 . S
H1067 N1054 0.985 . S
C1068 C1069 1.363 . S
C1068 C1074 1.379 . S
C1068 N1076 1.356 . S
C1069 C1068 1.363 . S
C1069 C1075 1.363 . S
C1070 C1071 1.363 . S
C1070 C1075 1.379 . S
C1070 N1077 1.356 . S
C1071 C1070 1.363 . S
C1071 C1074 1.363 . S
N1072 C1074 1.356 . S
N1072 H1084 0.984 . S
N1072 H1085 0.985 . S
N1073 C1075 1.356 . S
N1073 H1078 0.984 . S
N1073 H1079 0.985 . S
C1074 C1068 1.379 . S
C1074 C1071 1.363 . S
C1074 N1072 1.356 . S
C1075 C1069 1.363 . S
C1075 C1070 1.379 . S
C1075 N1073 1.356 . S
N1076 C1068 1.356 . S
N1076 H1082 0.984 . S
N1076 H1083 0.984 . S
N1077 C1070 1.356 . S
N1077 H1080 0.984 . S
N1077 H1081 0.985 . S
H1078 N1073 0.984 . S
H1079 N1073 0.985 . S
H1080 N1077 0.984 . S
H1081 N1077 0.985 . S
H1082 N1076 0.984 . S
H1083 N1076 0.984 . S
H1084 N1072 0.984 . S
H1085 N1072 0.985 . S
C1086 C1087 1.363 . S
C1086 C1092 1.379 . S
C1086 N1094 1.356 . S
C1087 C1086 1.363 . S
C1087 C1093 1.363 . S
C1088 C1089 1.363 . S
C1088 C1093 1.379 . S
C1088 N1095 1.356 . S
C1089 C1088 1.363 . S
C1089 C1092 1.363 . S
N1090 C1092 1.356 . S
N1090 H1102 0.984 . S
N1090 H1103 0.985 . S
N1091 C1093 1.356 . S
N1091 H1096 0.984 . S
N1091 H1097 0.985 . S
C1092 C1086 1.379 . S
C1092 C1089 1.363 . S
C1092 N1090 1.356 . S
C1093 C1087 1.363 . S
C1093 C1088 1.379 . S
C1093 N1091 1.356 . S
N1094 C1086 1.356 . S
N1094 H1100 0.984 . S
N1094 H1101 0.984 . S
N1095 C1088 1.356 . S
N1095 H1098 0.984 . S
N1095 H1099 0.985 . S
H1096 N1091 0.984 . S
H1097 N1091 0.985 . S
H1098 N1095 0.984 . S
H1099 N1095 0.985 . S
H1100 N1094 0.984 . S
H1101 N1094 0.984 . S
H1102 N1090 0.984 . S
H1103 N1090 0.985 . S
C1104 C1105 1.363 . S
C1104 C1110 1.379 . S
C1104 N1112 1.356 . S
C1105 C1104 1.363 . S
C1105 C1111 1.363 . S
C1106 C1107 1.363 . S
C1106 C1111 1.379 . S
C1106 N1113 1.356 . S
C1107 C1106 1.363 . S
C1107 C1110 1.363 . S
N1108 C1110 1.356 . S
N1108 H1120 0.984 . S
N1108 H1121 0.985 . S
N1109 C1111 1.356 . S
N1109 H1114 0.984 . S
N1109 H1115 0.985 . S
C1110 C1104 1.379 . S
C1110 C1107 1.363 . S
C1110 N1108 1.356 . S
C1111 C1105 1.363 . S
C1111 C1106 1.379 . S
C1111 N1109 1.356 . S
N1112 C1104 1.356 . S
N1112 H1118 0.984 . S
N1112 H1119 0.984 . S
N1113 C1106 1.356 . S
N1113 H1116 0.984 . S
N1113 H1117 0.985 . S
H1114 N1109 0.984 . S
H1115 N1109 0.985 . S
H1116 N1113 0.984 . S
H1117 N1113 0.985 . S
H1118 N1112 0.984 . S
H1119 N1112 0.984 . S
H1120 N1108 0.984 . S
H1121 N1108 0.985 . S
C1122 C1123 1.363 . S
C1122 C1128 1.379 . S
C1122 N1130 1.356 . S
C1123 C1122 1.363 . S
C1123 C1129 1.363 . S
C1124 C1125 1.363 . S
C1124 C1129 1.379 . S
C1124 N1131 1.356 . S
C1125 C1124 1.363 . S
C1125 C1128 1.363 . S
N1126 C1128 1.356 . S
N1126 H1138 0.984 . S
N1126 H1139 0.985 . S
N1127 C1129 1.356 . S
N1127 H1132 0.984 . S
N1127 H1133 0.985 . S
C1128 C1122 1.379 . S
C1128 C1125 1.363 . S
C1128 N1126 1.356 . S
C1129 C1123 1.363 . S
C1129 C1124 1.379 . S
C1129 N1127 1.356 . S
N1130 C1122 1.356 . S
N1130 H1136 0.984 . S
N1130 H1137 0.984 . S
N1131 C1124 1.356 . S
N1131 H1134 0.984 . S
N1131 H1135 0.985 . S
H1132 N1127 0.984 . S
H1133 N1127 0.985 . S
H1134 N1131 0.984 . S
H1135 N1131 0.985 . S
H1136 N1130 0.984 . S
H1137 N1130 0.984 . S
H1138 N1126 0.984 . S
H1139 N1126 0.985 . S
C1140 C1141 1.363 . S
C1140 C1146 1.379 . S
C1140 N1148 1.356 . S
C1141 C1140 1.363 . S
C1141 C1147 1.363 . S
C1142 C1143 1.363 . S
C1142 C1147 1.379 . S
C1142 N1149 1.356 . S
C1143 C1142 1.363 . S
C1143 C1146 1.363 . S
N1144 C1146 1.356 . S
N1144 H1156 0.984 . S
N1144 H1157 0.985 . S
N1145 C1147 1.356 . S
N1145 H1150 0.984 . S
N1145 H1151 0.985 . S
C1146 C1140 1.379 . S
C1146 C1143 1.363 . S
C1146 N1144 1.356 . S
C1147 C1141 1.363 . S
C1147 C1142 1.379 . S
C1147 N1145 1.356 . S
N1148 C1140 1.356 . S
N1148 H1154 0.984 . S
N1148 H1155 0.984 . S
N1149 C1142 1.356 . S
N1149 H1152 0.984 . S
N1149 H1153 0.985 . S
H1150 N1145 0.984 . S
H1151 N1145 0.985 . S
H1152 N1149 0.984 . S
H1153 N1149 0.985 . S
H1154 N1148 0.984 . S
H1155 N1148 0.984 . S
H1156 N1144 0.984 . S
H1157 N1144 0.985 . S
C1158 C1159 1.363 . S
C1158 C1164 1.379 . S
C1158 N1166 1.356 . S
C1159 C1158 1.363 . S
C1159 C1165 1.363 . S
C1160 C1161 1.363 . S
C1160 C1165 1.379 . S
C1160 N1167 1.356 . S
C1161 C1160 1.363 . S
C1161 C1164 1.363 . S
N1162 C1164 1.356 . S
N1162 H1174 0.984 . S
N1162 H1175 0.985 . S
N1163 C1165 1.356 . S
N1163 H1168 0.984 . S
N1163 H1169 0.985 . S
C1164 C1158 1.379 . S
C1164 C1161 1.363 . S
C1164 N1162 1.356 . S
C1165 C1159 1.363 . S
C1165 C1160 1.379 . S
C1165 N1163 1.356 . S
N1166 C1158 1.356 . S
N1166 H1172 0.984 . S
N1166 H1173 0.984 . S
N1167 C1160 1.356 . S
N1167 H1170 0.984 . S
N1167 H1171 0.985 . S
H1168 N1163 0.984 . S
H1169 N1163 0.985 . S
H1170 N1167 0.984 . S
H1171 N1167 0.985 . S
H1172 N1166 0.984 . S
H1173 N1166 0.984 . S
H1174 N1162 0.984 . S
H1175 N1162 0.985 . S
C313 C205 1.436 . S
C315 C10 1.436 . S
C331 C166 1.436 . S
C333 C17 1.436 . S
C349 C179 1.436 . S
C351 C36 1.436 . S
C367 C192 1.436 . S
C369 C43 1.436 . S
C385 C186 1.436 . S
C387 C23 1.436 . S
C403 C30 1.436 . S
C405 C199 1.436 . S
C421 C160 1.436 . S
C423 C49 1.436 . S
C439 C173 1.436 . S
C441 C4 1.436 . S
C457 C244 1.436 . S
C459 C56 1.436 . S
C475 C69 1.436 . S
C477 C251 1.436 . S
C493 C88 1.436 . S
C495 C212 1.436 . S
C511 C231 1.436 . S
C513 C101 1.436 . S
C529 C290 1.436 . S
C531 C114 1.436 . S
C547 C127 1.436 . S
C549 C309 1.436 . S
C565 C140 1.436 . S
C567 C264 1.436 . S
C583 C147 1.436 . S
C585 C283 1.436 . S
C601 C225 1.436 . S
C603 C153 1.436 . S
C619 C303 1.436 . S
C621 C75 1.436 . S
C637 C82 1.436 . S
C639 C270 1.436 . S
C655 C277 1.436 . S
C657 C95 1.436 . S
C673 C296 1.436 . S
C675 C62 1.436 . S
C691 C121 1.436 . S
C693 C257 1.436 . S
C709 C218 1.436 . S
C711 C134 1.436 . S
C727 C238 1.436 . S
C729 C108 1.436 . S
C745 C3 1.238 . S
C747 C55 1.238 . S
C763 C68 1.238 . S
C765 C18 1.238 . S
C781 C29 1.238 . S
C783 C83 1.238 . S
C799 C44 1.238 . S
C801 C96 1.238 . S
C817 C109 1.238 . S
C819 C16 1.238 . S
C835 C122 1.238 . S
C837 C31 1.238 . S
C853 C135 1.238 . S
C855 C42 1.238 . S
C871 C5 1.238 . S
C873 C146 1.238 . S
C889 C148 1.238 . S
C891 C57 1.238 . S
C907 C70 1.238 . S
C909 C107 1.238 . S
C925 C81 1.238 . S
C927 C120 1.238 . S
C943 C133 1.238 . S
C945 C94 1.238 . S
C961 C211 1.238 . S
C963 C161 1.238 . S
C979 C226 1.238 . S
C981 C174 1.238 . S
C997 C187 1.238 . S
C999 C239 1.238 . S
C1015 C200 1.238 . S
C1017 C250 1.238 . S
C1033 C172 1.238 . S
C1035 C263 1.238 . S
C1051 C185 1.238 . S
C1053 C278 1.238 . S
C1069 C289 1.238 . S
C1071 C198 1.238 . S
C1087 C159 1.238 . S
C1089 C304 1.238 . S
C1105 C213 1.238 . S
C1107 C302 1.238 . S
C1123 C265 1.238 . S
C1125 C224 1.238 . S
C1141 C237 1.238 . S
C1143 C276 1.238 . S
C1159 C291 1.238 . S
C1161 C252 1.238 . S
