# Generated by pormake.
# Topology ukk, (4)-cn, num edge types: 1
# Building blocks:
#     Node 0, Type 0, BuildingBlock: QUQFOY_clean_sbu_1, # of connection points: 4
#     Node 1, Type 0, BuildingBlock: QUQFOY_clean_sbu_1, # of connection points: 4
#     Node 2, Type 0, BuildingBlock: QUQFOY_clean_sbu_1, # of connection points: 4
#     Node 3, Type 0, BuildingBlock: QUQFOY_clean_sbu_1, # of connection points: 4
#     Node 4, Type 0, BuildingBlock: QUQFOY_clean_sbu_1, # of connection points: 4
#     Node 5, Type 0, BuildingBlock: QUQFOY_clean_sbu_1, # of connection points: 4
#     Node 6, Type 0, BuildingBlock: QUQFOY_clean_sbu_1, # of connection points: 4
#     Node 7, Type 0, BuildingBlock: QUQFOY_clean_sbu_1, # of connection points: 4
#     Node 8, Type 0, BuildingBlock: QUQFOY_clean_sbu_1, # of connection points: 4
#     Node 9, Type 0, BuildingBlock: QUQFOY_clean_sbu_1, # of connection points: 4
#     Node 10, Type 0, BuildingBlock: QUQFOY_clean_sbu_1, # of connection points: 4
#     Node 11, Type 0, BuildingBlock: QUQFOY_clean_sbu_1, # of connection points: 4
#     Node 12, Type 0, BuildingBlock: QUQFOY_clean_sbu_1, # of connection points: 4
#     Node 13, Type 0, BuildingBlock: QUQFOY_clean_sbu_1, # of connection points: 4
#     Node 14, Type 0, BuildingBlock: QUQFOY_clean_sbu_1, # of connection points: 4
#     Node 15, Type 0, BuildingBlock: QUQFOY_clean_sbu_1, # of connection points: 4
#     Edge 16, Type (0, 0), BuildingBlock: OJICUG_clean_linker_0, # of connection points: 2
#     Edge 17, Type (0, 0), BuildingBlock: OJICUG_clean_linker_0, # of connection points: 2
#     Edge 18, Type (0, 0), BuildingBlock: OJICUG_clean_linker_0, # of connection points: 2
#     Edge 19, Type (0, 0), BuildingBlock: OJICUG_clean_linker_0, # of connection points: 2
#     Edge 20, Type (0, 0), BuildingBlock: OJICUG_clean_linker_0, # of connection points: 2
#     Edge 21, Type (0, 0), BuildingBlock: OJICUG_clean_linker_0, # of connection points: 2
#     Edge 22, Type (0, 0), BuildingBlock: OJICUG_clean_linker_0, # of connection points: 2
#     Edge 23, Type (0, 0), BuildingBlock: OJICUG_clean_linker_0, # of connection points: 2
#     Edge 24, Type (0, 0), BuildingBlock: OJICUG_clean_linker_0, # of connection points: 2
#     Edge 25, Type (0, 0), BuildingBlock: OJICUG_clean_linker_0, # of connection points: 2
#     Edge 26, Type (0, 0), BuildingBlock: OJICUG_clean_linker_0, # of connection points: 2
#     Edge 27, Type (0, 0), BuildingBlock: OJICUG_clean_linker_0, # of connection points: 2
#     Edge 28, Type (0, 0), BuildingBlock: OJICUG_clean_linker_0, # of connection points: 2
#     Edge 29, Type (0, 0), BuildingBlock: OJICUG_clean_linker_0, # of connection points: 2
#     Edge 30, Type (0, 0), BuildingBlock: OJICUG_clean_linker_0, # of connection points: 2
#     Edge 31, Type (0, 0), BuildingBlock: OJICUG_clean_linker_0, # of connection points: 2
#     Edge 32, Type (0, 0), BuildingBlock: OJICUG_clean_linker_0, # of connection points: 2
#     Edge 33, Type (0, 0), BuildingBlock: OJICUG_clean_linker_0, # of connection points: 2
#     Edge 34, Type (0, 0), BuildingBlock: OJICUG_clean_linker_0, # of connection points: 2
#     Edge 35, Type (0, 0), BuildingBlock: OJICUG_clean_linker_0, # of connection points: 2
#     Edge 36, Type (0, 0), BuildingBlock: OJICUG_clean_linker_0, # of connection points: 2
#     Edge 37, Type (0, 0), BuildingBlock: OJICUG_clean_linker_0, # of connection points: 2
#     Edge 38, Type (0, 0), BuildingBlock: OJICUG_clean_linker_0, # of connection points: 2
#     Edge 39, Type (0, 0), BuildingBlock: OJICUG_clean_linker_0, # of connection points: 2
#     Edge 40, Type (0, 0), BuildingBlock: OJICUG_clean_linker_0, # of connection points: 2
#     Edge 41, Type (0, 0), BuildingBlock: OJICUG_clean_linker_0, # of connection points: 2
#     Edge 42, Type (0, 0), BuildingBlock: OJICUG_clean_linker_0, # of connection points: 2
#     Edge 43, Type (0, 0), BuildingBlock: OJICUG_clean_linker_0, # of connection points: 2
#     Edge 44, Type (0, 0), BuildingBlock: OJICUG_clean_linker_0, # of connection points: 2
#     Edge 45, Type (0, 0), BuildingBlock: OJICUG_clean_linker_0, # of connection points: 2
#     Edge 46, Type (0, 0), BuildingBlock: OJICUG_clean_linker_0, # of connection points: 2
#     Edge 47, Type (0, 0), BuildingBlock: OJICUG_clean_linker_0, # of connection points: 2
# Relax obj value: 0.045
# Max RMSD: 0.175
# Mean RMSD: 0.175
data_MOF--net-ukk--node1-QUQFOY_clean_sbu_1--edge1-OJICUG_clean_linker_0
_symmetry_space_group_name_H-M    P1
_symmetry_Int_Tables_number       1
_symmetry_cell_setting            triclinic
loop_
_symmetry_equiv_pos_as_xyz
'x, y, z'
_cell_length_a     37.057922
_cell_length_b     37.038302
_cell_length_c     18.474446
_cell_angle_alpha  90.010416
_cell_angle_beta   89.79539
_cell_angle_gamma 89.989185
loop_
_atom_site_label
_atom_site_type_symbol
_atom_site_fract_x
_atom_site_fract_y
_atom_site_fract_z
_atom_type_partial_charge
O0 O 0.34037 0.18445 0.09039 0.0
Cd1 Cd 0.36414 0.13562 0.07238 0.0
Cd2 Cd 0.35155 0.13139 0.21364 0.0
O3 O 0.31343 0.17189 0.19422 0.0
O4 O 0.35393 0.12555 0.96695 0.0
O5 O 0.32561 0.09785 0.05667 0.0
C6 C 0.32773 0.105 0.98826 0.0
C7 C 0.34809 0.07335 0.26356 0.0
C8 C 0.31792 0.19272 0.13977 0.0
C9 C 0.42755 0.14674 0.16764 0.0
O10 O 0.40304 0.1505 0.21521 0.0
O11 O 0.41926 0.13482 0.10471 0.0
O12 O 0.34687 0.10153 0.30486 0.0
O13 O 0.34744 0.07847 0.19429 0.0
O14 O 0.18344 0.69499 0.93811 0.0
Cd15 Cd 0.13483 0.67107 0.95689 0.0
Cd16 Cd 0.13028 0.68359 0.81533 0.0
O17 O 0.17088 0.72158 0.83418 0.0
O18 O 0.12526 0.68126 0.06273 0.0
O19 O 0.09712 0.7096 0.97401 0.0
C20 C 0.10462 0.70749 0.0422 0.0
C21 C 0.0719 0.68788 0.76815 0.0
C22 C 0.19166 0.71731 0.88856 0.0
C23 C 0.14574 0.60746 0.86078 0.0
O24 O 0.14902 0.63187 0.813 0.0
O25 O 0.13432 0.61586 0.92418 0.0
O26 O 0.09965 0.6887 0.72551 0.0
O27 O 0.07771 0.6883 0.83716 0.0
O28 O 0.68934 0.84903 0.07617 0.0
Cd29 Cd 0.66657 0.89865 0.066 0.0
Cd30 Cd 0.68087 0.89917 0.20566 0.0
O31 O 0.71932 0.85996 0.17687 0.0
O32 O 0.67711 0.91249 0.96226 0.0
O33 O 0.70629 0.9355 0.05572 0.0
C34 C 0.70411 0.93103 0.98648 0.0
C35 C 0.6837 0.95716 0.25646 0.0
C36 C 0.71345 0.84013 0.12142 0.0
C37 C 0.60452 0.88543 0.16454 0.0
O38 O 0.62968 0.87936 0.20936 0.0
O39 O 0.61206 0.89961 0.103 0.0
O40 O 0.68684 0.9289 0.29714 0.0
O41 O 0.68274 0.95223 0.18722 0.0
O42 O 0.84945 0.33546 0.94299 0.0
Cd43 Cd 0.89816 0.35886 0.96352 0.0
Cd44 Cd 0.90293 0.34889 0.82125 0.0
O45 O 0.86215 0.31069 0.83715 0.0
O46 O 0.90697 0.34754 0.06895 0.0
O47 O 0.93587 0.32019 0.97954 0.0
C48 C 0.92793 0.32166 0.04773 0.0
C49 C 0.96084 0.3463 0.77008 0.0
C50 C 0.84112 0.31423 0.89169 0.0
C51 C 0.88707 0.42398 0.8726 0.0
O52 O 0.88378 0.40038 0.82326 0.0
O53 O 0.89883 0.41459 0.93499 0.0
O54 O 0.93255 0.34605 0.72929 0.0
O55 O 0.95591 0.34415 0.83936 0.0
O56 O 0.33835 0.35032 0.18451 0.0
Cd57 Cd 0.36256 0.39853 0.20535 0.0
Cd58 Cd 0.35131 0.40436 0.06382 0.0
O59 O 0.31277 0.36388 0.08016 0.0
O60 O 0.35173 0.40711 0.31131 0.0
O61 O 0.32427 0.43649 0.22308 0.0
C62 C 0.32586 0.42825 0.29105 0.0
C63 C 0.34899 0.46301 1.01636 0.0
C64 C 0.31652 0.34257 0.13403 0.0
C65 C 0.42661 0.38677 0.11095 0.0
O66 O 0.40249 0.38443 0.06258 0.0
O67 O 0.41807 0.3982 0.17426 0.0
O68 O 0.34778 0.43528 0.97386 0.0
O69 O 0.34769 0.45715 0.08539 0.0
O70 O 0.34957 0.69624 0.84585 0.0
Cd71 Cd 0.39807 0.67222 0.82625 0.0
Cd72 Cd 0.4028 0.68415 0.96813 0.0
O73 O 0.36205 0.72212 0.95055 0.0
O74 O 0.40723 0.68258 0.72036 0.0
O75 O 0.43591 0.71059 0.80879 0.0
C76 C 0.4281 0.70863 0.74071 0.0
C77 C 0.46112 0.68834 1.01569 0.0
C78 C 0.34128 0.71817 0.89606 0.0
C79 C 0.38699 0.60823 0.9211 0.0
O80 O 0.38408 0.63243 0.96943 0.0
O81 O 0.39829 0.61686 0.85773 0.0
O82 O 0.43331 0.6888 0.05819 0.0
O83 O 0.4554 0.68917 0.94665 0.0
O84 O 0.69922 0.68338 0.16052 0.0
Cd85 Cd 0.67233 0.63813 0.19275 0.0
Cd86 Cd 0.68042 0.62951 0.04665 0.0
O87 O 0.71939 0.67004 0.05134 0.0
O88 O 0.68217 0.6431 0.2989 0.0
O89 O 0.70592 0.59933 0.23321 0.0
C90 C 0.70544 0.61733 0.29317 0.0
C91 C 0.68243 0.57083 0.99961 0.0
C92 C 0.71862 0.69106 0.10602 0.0
C93 C 0.60645 0.65015 0.10515 0.0
O94 O 0.62905 0.64924 0.0533 0.0
O95 O 0.61636 0.64122 0.16909 0.0
O96 O 0.68066 0.59844 0.95697 0.0
O97 O 0.68651 0.57691 0.06816 0.0
O98 O 0.68267 0.33566 0.84165 0.0
Cd99 Cd 0.63414 0.35934 0.82067 0.0
Cd100 Cd 0.62913 0.34963 0.96299 0.0
O101 O 0.66977 0.31121 0.94766 0.0
O102 O 0.62555 0.34799 0.71517 0.0
O103 O 0.59623 0.32091 0.80431 0.0
C104 C 0.60437 0.32227 0.73621 0.0
C105 C 0.57102 0.3473 1.01322 0.0
C106 C 0.69085 0.31452 0.89316 0.0
C107 C 0.64549 0.42454 0.91121 0.0
O108 O 0.64854 0.40103 0.96076 0.0
O109 O 0.63376 0.41511 0.84882 0.0
O110 O 0.59914 0.34704 0.05449 0.0
O111 O 0.57624 0.34507 0.94403 0.0
O112 O 0.83375 0.68304 0.62322 0.0
Cd113 Cd 0.86072 0.63783 0.59091 0.0
Cd114 Cd 0.85256 0.6291 0.73704 0.0
O115 O 0.81352 0.6696 0.73229 0.0
O116 O 0.85105 0.64295 0.48474 0.0
O117 O 0.82718 0.59911 0.54999 0.0
C118 C 0.82774 0.61721 0.49017 0.0
C119 C 0.85058 0.57038 0.78384 0.0
C120 C 0.81429 0.69065 0.67766 0.0
C121 C 0.92654 0.64979 0.67875 0.0
O122 O 0.90392 0.64885 0.73056 0.0
O123 O 0.91666 0.6409 0.61476 0.0
O124 O 0.85224 0.59795 0.8266 0.0
O125 O 0.84658 0.57651 0.7153 0.0
O126 O 0.68375 0.18839 0.43832 0.0
Cd127 Cd 0.63514 0.16434 0.45628 0.0
Cd128 Cd 0.6307 0.17749 0.31523 0.0
O129 O 0.67107 0.21565 0.33513 0.0
O130 O 0.62493 0.17466 0.56183 0.0
O131 O 0.59734 0.20286 0.4722 0.0
C132 C 0.60446 0.20088 0.54058 0.0
C133 C 0.5726 0.18132 0.26628 0.0
C134 C 0.69188 0.21108 0.38939 0.0
C135 C 0.64663 0.10127 0.35945 0.0
O136 O 0.6499 0.126 0.31232 0.0
O137 O 0.63491 0.10922 0.42286 0.0
O138 O 0.60068 0.18265 0.22457 0.0
O139 O 0.57788 0.18154 0.33547 0.0
O140 O 0.19281 0.34971 0.59407 0.0
Cd141 Cd 0.16832 0.39786 0.57406 0.0
Cd142 Cd 0.18024 0.40368 0.7153 0.0
O143 O 0.21899 0.36348 0.69771 0.0
O144 O 0.17888 0.40685 0.46814 0.0
O145 O 0.20645 0.43595 0.55661 0.0
C146 C 0.20475 0.42794 0.48854 0.0
C147 C 0.18263 0.46229 0.76313 0.0
C148 C 0.21506 0.34214 0.64392 0.0
C149 C 0.10477 0.38585 0.66972 0.0
O150 O 0.12914 0.38352 0.71759 0.0
O151 O 0.11297 0.39737 0.6063 0.0
O152 O 0.18421 0.43449 0.80539 0.0
O153 O 0.18347 0.45654 0.69404 0.0
O154 O 0.34853 0.8409 0.43976 0.0
Cd155 Cd 0.39683 0.86538 0.45859 0.0
Cd156 Cd 0.40197 0.85308 0.31755 0.0
O157 O 0.36199 0.81437 0.33604 0.0
O158 O 0.40638 0.85511 0.56419 0.0
O159 O 0.43501 0.82731 0.47496 0.0
C160 C 0.42739 0.82921 0.54325 0.0
C161 C 0.46002 0.85013 0.26743 0.0
C162 C 0.34084 0.81845 0.3902 0.0
C163 C 0.38507 0.92883 0.36326 0.0
O164 O 0.38213 0.90433 0.31561 0.0
O165 O 0.39677 0.92065 0.42639 0.0
O166 O 0.43188 0.8488 0.22629 0.0
O167 O 0.45489 0.84939 0.33674 0.0
O168 O 0.84272 0.84879 0.70749 0.0
Cd169 Cd 0.86536 0.89847 0.71754 0.0
Cd170 Cd 0.85111 0.89883 0.57784 0.0
O171 O 0.81277 0.85952 0.60667 0.0
O172 O 0.85479 0.9124 0.82124 0.0
O173 O 0.82556 0.93525 0.7277 0.0
C174 C 0.82776 0.93088 0.79696 0.0
C175 C 0.84824 0.95684 0.52721 0.0
C176 C 0.81867 0.83976 0.66219 0.0
C177 C 0.92746 0.88524 0.619 0.0
O178 O 0.90232 0.87909 0.57419 0.0
O179 O 0.91988 0.89948 0.68049 0.0
O180 O 0.84512 0.92861 0.48643 0.0
O181 O 0.84917 0.95187 0.59644 0.0
O182 O 0.8492 0.1887 0.34853 0.0
Cd183 Cd 0.8975 0.16426 0.32922 0.0
Cd184 Cd 0.9026 0.17694 0.47059 0.0
O185 O 0.86223 0.21528 0.45227 0.0
O186 O 0.90695 0.17452 0.22338 0.0
O187 O 0.93557 0.2024 0.31209 0.0
C188 C 0.92787 0.20051 0.24395 0.0
C189 C 0.96094 0.18056 0.51846 0.0
C190 C 0.84128 0.21112 0.39812 0.0
C191 C 0.88597 0.10094 0.4254 0.0
O192 O 0.88326 0.1255 0.47303 0.0
O193 O 0.89736 0.10902 0.36182 0.0
O194 O 0.93306 0.1817 0.56074 0.0
O195 O 0.95533 0.18105 0.44938 0.0
O196 O 0.19408 0.18386 0.68862 0.0
Cd197 Cd 0.17053 0.13502 0.70759 0.0
Cd198 Cd 0.18231 0.1307 0.56599 0.0
O199 O 0.22027 0.17146 0.58395 0.0
O200 O 0.18104 0.12544 0.81307 0.0
O201 O 0.20914 0.09732 0.72358 0.0
C202 C 0.20717 0.10477 0.7919 0.0
C203 C 0.18567 0.07263 0.51624 0.0
C204 C 0.21605 0.19229 0.6385 0.0
C205 C 0.10653 0.14593 0.61384 0.0
O206 O 0.13074 0.14961 0.56565 0.0
O207 O 0.11521 0.13413 0.67664 0.0
O208 O 0.18646 0.10077 0.47479 0.0
O209 O 0.18685 0.07784 0.58547 0.0
O210 O 0.18366 0.83962 0.34464 0.0
Cd211 Cd 0.13552 0.86422 0.3248 0.0
Cd212 Cd 0.13008 0.85262 0.46618 0.0
O213 O 0.17018 0.81388 0.44913 0.0
O214 O 0.12649 0.85377 0.2191 0.0
O215 O 0.09719 0.82635 0.30789 0.0
C216 C 0.10519 0.82806 0.23976 0.0
C217 C 0.07203 0.84987 0.51637 0.0
C218 C 0.19137 0.81758 0.39492 0.0
C219 C 0.14748 0.92808 0.41884 0.0
O220 O 0.14999 0.90384 0.4671 0.0
O221 O 0.13593 0.91966 0.35572 0.0
O222 O 0.10018 0.84888 0.55752 0.0
O223 O 0.07716 0.84871 0.44708 0.0
C224 C 0.36132 0.97214 0.27102 0.0
C225 C 0.37408 0.96624 0.34194 0.0
H226 H 0.34273 1.0097 0.19178 0.0
C227 C 0.37564 0.99597 0.3893 0.0
H228 H 0.35928 0.95014 0.23262 0.0
C229 C 0.36561 0.03073 0.36529 0.0
C230 C 0.35393 0.03641 0.29349 0.0
H231 H 0.38505 0.9925 0.44428 0.0
H232 H 0.36809 0.05329 0.40223 0.0
C233 C 0.35152 1.00651 0.24729 0.0
C234 C 1.00528 0.68606 0.78757 0.0
C235 C 0.03462 0.6826 0.74004 0.0
H236 H 0.94909 0.67885 0.80561 0.0
C237 C 0.02803 0.67018 0.66902 0.0
H238 H 1.00917 0.6956 0.84244 0.0
C239 C 0.99296 0.66005 0.64738 0.0
C240 C 0.96391 0.66217 0.69646 0.0
H241 H 0.05014 0.66697 0.63109 0.0
H242 H 0.98883 0.64971 0.59321 0.0
C243 C 0.97063 0.67612 0.7662 0.0
C244 C 0.66707 0.99947 0.35979 0.0
C245 C 0.67768 0.99395 0.28712 0.0
H246 H 0.64845 0.0375 0.44032 0.0
C247 C 0.6788 0.02387 0.24074 0.0
H248 H 0.66556 0.97688 0.39687 0.0
C249 C 0.66891 0.0581 0.26522 0.0
C250 C 0.65733 0.06388 0.33715 0.0
H251 H 0.68672 0.02082 0.18456 0.0
H252 H 0.66998 0.08009 0.22664 0.0
C253 C 0.65693 0.03412 0.38458 0.0
C254 C 0.03768 0.37615 0.64435 0.0
C255 C 0.06753 0.37414 0.69105 0.0
H256 H 0.9804 0.36843 0.63214 0.0
C257 C 0.06192 0.36027 0.76137 0.0
H258 H 0.0409 0.38641 0.58983 0.0
C259 C 0.02771 0.34988 0.78525 0.0
C260 C 0.99766 0.35279 0.73979 0.0
H261 H 0.08404 0.35779 0.79921 0.0
H262 H 0.02475 0.34025 0.84032 0.0
C263 C 1.00306 0.36555 0.66851 0.0
C264 C 0.35407 0.52958 0.03576 0.0
C265 C 0.35545 0.50019 0.98802 0.0
H266 H 0.36287 0.58566 0.05257 0.0
C267 C 0.36657 0.50654 0.91591 0.0
H268 H 0.34579 0.52589 0.09157 0.0
C269 C 0.37686 0.54143 0.89296 0.0
C270 C 0.37618 0.57064 0.94169 0.0
H271 H 0.36827 0.4844 0.87776 0.0
H272 H 0.38567 0.5454 0.83758 0.0
C273 C 0.36417 0.56408 1.01308 0.0
C274 C 0.5049 0.67026 0.1147 0.0
C275 C 0.49838 0.68304 0.04391 0.0
H276 H 0.54404 0.64949 0.19031 0.0
C277 C 0.52779 0.68686 0.99668 0.0
H278 H 0.48273 0.66676 0.1524 0.0
C279 C 0.56244 0.67692 0.01807 0.0
C280 C 0.56909 0.66259 0.08754 0.0
H281 H 0.52396 0.6967 0.94201 0.0
H282 H 0.58405 0.67995 0.9789 0.0
C283 C 0.53996 0.66013 0.13636 0.0
C284 C 0.65257 0.49148 0.88127 0.0
C285 C 0.65659 0.46231 0.92933 0.0
H286 H 0.65799 0.54881 0.86526 0.0
C287 C 0.67171 0.46923 0.99798 0.0
H288 H 0.64128 0.48724 0.82796 0.0
C289 C 0.68135 0.50408 0.01907 0.0
C290 C 0.6764 0.53343 0.97233 0.0
H291 H 0.67577 0.44765 0.03666 0.0
H292 H 0.69204 0.50806 0.07299 0.0
C293 C 0.6624 0.52671 0.90258 0.0
C294 C 0.4699 0.36118 0.02014 0.0
C295 C 0.46397 0.37511 0.09032 0.0
H296 H 0.50744 0.34112 0.94191 0.0
C297 C 0.49362 0.37722 0.13753 0.0
H298 H 0.44795 0.35862 0.98194 0.0
C299 C 0.52835 0.36665 0.114 0.0
C300 C 0.53408 0.35382 0.04285 0.0
H301 H 0.49013 0.38753 0.19195 0.0
H302 H 0.55086 0.3696 0.15074 0.0
C303 C 0.50423 0.35082 0.99689 0.0
C304 C 0.87988 0.49093 0.90254 0.0
C305 C 0.87624 0.4618 0.85421 0.0
H306 H 0.8742 0.54822 0.91872 0.0
C307 C 0.86167 0.46879 0.78511 0.0
H308 H 0.89074 0.48663 0.95618 0.0
C309 C 0.85212 0.50365 0.76394 0.0
C310 C 0.85662 0.53295 0.81103 0.0
H311 H 0.85796 0.44726 0.74617 0.0
H312 H 0.84183 0.50768 0.70972 0.0
C313 C 0.87014 0.52617 0.88113 0.0
C314 C 0.50584 0.17838 0.28361 0.0
C315 C 0.53558 0.17596 0.23681 0.0
H316 H 0.44946 0.17117 0.29894 0.0
C317 C 0.52962 0.16479 0.16473 0.0
H318 H 0.50925 0.18677 0.33935 0.0
C319 C 0.49471 0.15532 0.14097 0.0
C320 C 0.46513 0.15696 0.18884 0.0
H321 H 0.55206 0.16231 0.12734 0.0
H322 H 0.49101 0.14633 0.08572 0.0
C323 C 0.47133 0.16915 0.26011 0.0
C324 C 0.16759 0.56338 0.76764 0.0
C325 C 0.15617 0.56985 0.83946 0.0
H326 H 0.18526 0.52529 0.68828 0.0
C327 C 0.15574 0.54053 0.88793 0.0
H328 H 0.16864 0.58504 0.7283 0.0
C329 C 0.16577 0.50566 0.86438 0.0
C330 C 0.17634 0.49943 0.7919 0.0
H331 H 0.14738 0.54443 0.94361 0.0
H332 H 0.16432 0.48346 0.9024 0.0
C333 C 0.17741 0.5289 0.74436 0.0
C334 C 0.52686 0.85341 0.28291 0.0
C335 C 0.49689 0.85601 0.23715 0.0
H336 H 0.58335 0.86061 0.29636 0.0
C337 C 0.50245 0.86773 0.16524 0.0
H338 H 0.52373 0.84465 0.33853 0.0
C339 C 0.53719 0.87745 0.14054 0.0
C340 C 0.56704 0.87542 0.18723 0.0
H341 H 0.47983 0.87039 0.12867 0.0
H342 H 0.54059 0.88676 0.08538 0.0
C343 C 0.56124 0.86283 0.25842 0.0
C344 C 0.85302 0.02354 0.54318 0.0
C345 C 0.85429 0.99365 0.49672 0.0
H346 H 0.86188 0.07972 0.55766 0.0
C347 C 0.86513 0.99922 0.42421 0.0
H348 H 0.8449 0.02046 0.59924 0.0
C349 C 0.87542 0.03387 0.3997 0.0
C350 C 0.87495 0.06358 0.44728 0.0
H351 H 0.86675 0.97665 0.38706 0.0
H352 H 0.88412 0.03727 0.34411 0.0
C353 C 0.86306 0.05777 0.519 0.0
C354 C 0.02762 0.17778 0.49982 0.0
C355 C 0.99811 0.17515 0.54714 0.0
H356 H 0.08395 0.17075 0.48333 0.0
C357 C 1.00444 0.16378 0.61896 0.0
H358 H 0.02393 0.18634 0.44426 0.0
C359 C 0.03948 0.15431 0.64194 0.0
C360 C 0.06883 0.15616 0.59353 0.0
H361 H 0.98219 0.16115 0.65675 0.0
H362 H 0.04346 0.14517 0.697 0.0
C363 C 0.06226 0.16855 0.52254 0.0
C364 C 0.17249 0.97142 0.50966 0.0
C365 C 0.15893 0.96546 0.43936 0.0
H366 H 0.19195 1.00905 0.58793 0.0
C367 C 0.15696 0.99512 0.39192 0.0
H368 H 0.17493 0.94947 0.54804 0.0
C369 C 0.16726 0.0299 0.41535 0.0
C370 C 0.17966 0.03566 0.48664 0.0
H371 H 0.14693 0.9916 0.33739 0.0
H372 H 0.16439 0.05242 0.37844 0.0
C373 C 0.18257 1.00581 0.53283 0.0
C374 C 0.97077 0.86242 0.52533 0.0
C375 C 0.96496 0.87523 0.59638 0.0
H376 H 1.0083 0.84406 0.44539 0.0
C377 C 0.99482 0.87749 0.64298 0.0
H378 H 0.94865 0.86003 0.48745 0.0
C379 C 0.02958 0.86778 0.61835 0.0
C380 C 0.03515 0.85582 0.54658 0.0
H381 H 0.99142 0.88698 0.69803 0.0
H382 H 0.0522 0.8706 0.65486 0.0
C383 C 1.00517 0.85301 0.5009 0.0
C384 C 0.29795 0.28702 0.20016 0.0
C385 C 0.30157 0.30557 0.1339 0.0
H386 H 0.29943 0.23584 0.25419 0.0
C387 C 0.30021 0.28585 0.06924 0.0
H388 H 0.29854 0.30167 0.25093 0.0
C389 C 0.30092 0.24809 0.07125 0.0
C390 C 0.30266 0.22962 0.13787 0.0
H391 H 0.30289 0.29934 0.01747 0.0
H392 H 0.30372 0.23351 0.02068 0.0
C393 C 0.29833 0.24927 0.20215 0.0
C394 C 0.24842 0.73599 0.82601 0.0
C395 C 0.22848 0.73261 0.89024 0.0
H396 H 0.30099 0.7348 0.77786 0.0
C397 C 0.24663 0.73508 0.95699 0.0
H398 H 0.23521 0.73431 0.77389 0.0
C399 C 0.28435 0.73552 0.95941 0.0
C400 C 0.30432 0.73316 0.89505 0.0
H401 H 0.2318 0.73301 1.00747 0.0
H402 H 0.29757 0.73343 1.01145 0.0
C403 C 0.28613 0.73611 0.82843 0.0
C404 C 0.72821 0.78636 0.04553 0.0
C405 C 0.72965 0.80378 0.11339 0.0
H406 H 0.72477 0.73588 0.9892 0.0
C407 C 0.73878 0.78345 0.17459 0.0
H408 H 0.72187 0.80151 0.99704 0.0
C409 C 0.74068 0.74579 0.1698 0.0
C410 C 0.73355 0.72804 0.10382 0.0
H411 H 0.74038 0.79605 0.22739 0.0
H412 H 0.74369 0.73041 0.21931 0.0
C413 C 0.73025 0.74871 0.04071 0.0
C414 C 0.74709 0.29713 0.95853 0.0
C415 C 0.72797 0.29978 0.89344 0.0
H416 H 0.79898 0.29891 1.00876 0.0
C417 C 0.74707 0.29697 0.82753 0.0
H418 H 0.73318 0.29909 1.01007 0.0
C419 C 0.78482 0.29676 0.82663 0.0
C420 C 0.80394 0.29967 0.89168 0.0
H421 H 0.73292 0.29847 0.77639 0.0
H422 H 0.79872 0.29843 0.77506 0.0
C423 C 0.78484 0.29721 0.95763 0.0
C424 C 0.792 0.74527 0.61383 0.0
C425 C 0.79919 0.72758 0.67983 0.0
H426 H 0.79204 0.79551 0.5562 0.0
C427 C 0.80236 0.74828 0.74294 0.0
H428 H 0.78909 0.72985 0.56432 0.0
C429 C 0.80417 0.78594 0.7381 0.0
C430 C 0.80266 0.80334 0.67023 0.0
H431 H 0.80788 0.73548 0.79445 0.0
H432 H 0.81041 0.80113 0.7866 0.0
C433 C 0.79368 0.78293 0.60903 0.0
C434 C 0.78441 0.22899 0.46107 0.0
C435 C 0.8045 0.22654 0.39687 0.0
H436 H 0.73176 0.22669 0.50869 0.0
C437 C 0.78647 0.22966 0.33011 0.0
H438 H 0.79753 0.22674 0.5132 0.0
C439 C 0.74876 0.22978 0.32738 0.0
C440 C 0.72868 0.22643 0.39144 0.0
H441 H 0.80143 0.22826 0.27968 0.0
H442 H 0.73566 0.22817 0.27515 0.0
C443 C 0.7467 0.22877 0.45834 0.0
C444 C 0.23372 0.2868 0.57707 0.0
C445 C 0.23052 0.30534 0.64344 0.0
H446 H 0.23259 0.23557 0.52321 0.0
C447 C 0.23299 0.2857 0.70805 0.0
H448 H 0.2323 0.30139 0.52632 0.0
C449 C 0.23298 0.24794 0.70615 0.0
C450 C 0.23083 0.22938 0.63966 0.0
H451 H 0.23067 0.29919 0.7599 0.0
H452 H 0.23103 0.23335 0.75685 0.0
C453 C 0.23404 0.24905 0.57516 0.0
C454 C 0.24696 0.7993 0.32838 0.0
C455 C 0.22823 0.80235 0.39464 0.0
H456 H 0.29831 0.80108 0.2748 0.0
C457 C 0.24768 0.80002 0.45938 0.0
H458 H 0.23251 0.80059 0.27755 0.0
C459 C 0.28541 0.80047 0.45768 0.0
C460 C 0.3041 0.80292 0.39127 0.0
H461 H 0.23403 0.80218 0.51116 0.0
H462 H 0.29982 0.80263 0.50843 0.0
C463 C 0.2847 0.79942 0.32668 0.0
C464 C 0.27317 0.09445 0.81532 0.0
C465 C 0.23751 0.09594 0.84193 0.0
H466 H 0.32976 0.09651 0.84045 0.0
C467 C 0.2322 0.09508 0.91732 0.0
H468 H 0.27834 0.09554 0.75761 0.0
C469 C 0.26176 0.09454 0.96482 0.0
C470 C 0.29742 0.09605 0.93822 0.0
H471 H 0.20518 0.09648 0.93969 0.0
H472 H 0.25658 0.09571 0.02252 0.0
C473 C 0.30274 0.0951 0.86282 0.0
C474 C 0.09546 0.80312 0.11415 0.0
C475 C 0.09623 0.79777 0.18948 0.0
H476 H 0.09591 0.77876 1.00872 0.0
C477 C 0.09452 0.76209 0.21578 0.0
H478 H 0.09704 0.83016 0.09203 0.0
C479 C 0.09501 0.73251 0.168 0.0
C480 C 0.09597 0.73786 0.09265 0.0
H481 H 0.09557 0.7569 0.27343 0.0
H482 H 0.09624 0.70546 0.1901 0.0
C483 C 0.09471 0.77356 0.06638 0.0
C484 C 0.77039 0.9419 0.96669 0.0
C485 C 0.73518 0.9403 0.93819 0.0
H486 H 0.82736 0.93996 0.9447 0.0
C487 C 0.73113 0.94134 0.86257 0.0
H488 H 0.77463 0.94078 0.02463 0.0
C489 C 0.76148 0.94182 0.81672 0.0
C490 C 0.79668 0.94022 0.84523 0.0
H491 H 0.70451 0.93996 0.83872 0.0
H492 H 0.75723 0.94064 0.75879 0.0
C493 C 0.80074 0.94134 0.92084 0.0
C494 C 0.93839 0.26654 0.22032 0.0
C495 C 0.93665 0.23092 0.19369 0.0
H496 H 0.93659 0.32322 0.19536 0.0
C497 C 0.93725 0.22577 0.11825 0.0
H498 H 0.93748 0.27159 0.27805 0.0
C499 C 0.93786 0.25547 0.07079 0.0
C500 C 0.93666 0.2911 0.09751 0.0
H501 H 0.93563 0.19879 0.09586 0.0
H502 H 0.93653 0.25046 1.0131 0.0
C503 C 0.93778 0.29623 0.1729 0.0
C504 C 0.23006 0.43748 0.36279 0.0
C505 C 0.23521 0.43663 0.43816 0.0
H506 H 0.25468 0.4371 0.2574 0.0
C507 C 0.27083 0.43812 0.46451 0.0
H508 H 0.20308 0.43606 0.3406 0.0
C509 C 0.30051 0.43756 0.4168 0.0
C510 C 0.29536 0.43678 0.34142 0.0
H511 H 0.27589 0.43699 0.52218 0.0
H512 H 0.32749 0.4362 0.43898 0.0
C513 C 0.25973 0.43818 0.31508 0.0
C514 C 0.43739 0.80425 0.66879 0.0
C515 C 0.43639 0.7989 0.59345 0.0
H516 H 0.43714 0.77988 0.7742 0.0
C517 C 0.43792 0.76321 0.56713 0.0
H518 H 0.43595 0.8313 0.69094 0.0
C519 C 0.43748 0.73364 0.61489 0.0
C520 C 0.43674 0.73899 0.69025 0.0
H521 H 0.4367 0.75802 0.50949 0.0
H522 H 0.43611 0.70659 0.59277 0.0
C523 C 0.43818 0.77468 0.71653 0.0
C524 C 0.75139 0.58239 0.36848 0.0
C525 C 0.73589 0.61519 0.34556 0.0
H526 H 0.79225 0.55689 0.43442 0.0
C527 C 0.75168 0.64765 0.36878 0.0
H528 H 0.74005 0.55694 0.35082 0.0
C529 C 0.78221 0.6476 0.41289 0.0
C530 C 0.79743 0.61511 0.43744 0.0
H531 H 0.74089 0.67339 0.35122 0.0
H532 H 0.79341 0.67333 0.4295 0.0
C533 C 0.78137 0.58236 0.41572 0.0
C534 C 0.59455 0.22638 0.66596 0.0
C535 C 0.59563 0.23142 0.59052 0.0
H536 H 0.59489 0.25119 0.77101 0.0
C537 C 0.59433 0.26702 0.56369 0.0
H538 H 0.59581 0.19942 0.6885 0.0
C539 C 0.59493 0.29677 0.61099 0.0
C540 C 0.5956 0.29173 0.68641 0.0
H541 H 0.59561 0.27199 0.50596 0.0
H542 H 0.59648 0.32372 0.58843 0.0
C543 C 0.59393 0.25615 0.71327 0.0
loop_
_geom_bond_atom_site_label_1
_geom_bond_atom_site_label_2
_geom_bond_distance
_geom_bond_site_symmetry_2
_ccdc_geom_bond_type
O0 Cd1 2.223 . S
O0 C8 1.315 . S
Cd1 O0 2.223 . S
Cd1 O4 2.297 1_554 S
Cd1 O5 2.439 . S
Cd1 O11 2.240 . S
Cd2 O3 2.240 . S
Cd2 O10 2.223 . S
Cd2 O12 2.297 . S
Cd2 O13 2.439 . S
O3 Cd2 2.240 . S
O3 C8 1.279 . S
O4 Cd1 2.297 1_556 S
O4 C6 1.247 . S
O5 Cd1 2.439 . S
O5 C6 1.208 1_554 S
C6 O4 1.247 . S
C6 O5 1.208 1_556 S
C7 O12 1.247 . S
C7 O13 1.208 . S
C8 O0 1.315 . S
C8 O3 1.279 . S
C9 O10 1.315 . S
C9 O11 1.279 . S
O10 Cd2 2.223 . S
O10 C9 1.315 . S
O11 Cd1 2.240 . S
O11 C9 1.279 . S
O12 Cd2 2.297 . S
O12 C7 1.247 . S
O13 Cd2 2.439 . S
O13 C7 1.208 . S
O14 Cd15 2.223 . S
O14 C22 1.315 . S
Cd15 O14 2.223 . S
Cd15 O18 2.297 1_556 S
Cd15 O19 2.439 . S
Cd15 O25 2.240 . S
Cd16 O17 2.240 . S
Cd16 O24 2.223 . S
Cd16 O26 2.297 . S
Cd16 O27 2.439 . S
O17 Cd16 2.240 . S
O17 C22 1.279 . S
O18 Cd15 2.297 1_554 S
O18 C20 1.247 . S
O19 Cd15 2.439 . S
O19 C20 1.208 1_556 S
C20 O18 1.247 . S
C20 O19 1.208 1_554 S
C21 O26 1.247 . S
C21 O27 1.208 . S
C22 O14 1.315 . S
C22 O17 1.279 . S
C23 O24 1.315 . S
C23 O25 1.279 . S
O24 Cd16 2.223 . S
O24 C23 1.315 . S
O25 Cd15 2.240 . S
O25 C23 1.279 . S
O26 Cd16 2.297 . S
O26 C21 1.247 . S
O27 Cd16 2.439 . S
O27 C21 1.208 . S
O28 Cd29 2.223 . S
O28 C36 1.315 . S
Cd29 O28 2.223 . S
Cd29 O32 2.297 1_554 S
Cd29 O33 2.439 . S
Cd29 O39 2.240 . S
Cd30 O31 2.240 . S
Cd30 O38 2.223 . S
Cd30 O40 2.297 . S
Cd30 O41 2.439 . S
O31 Cd30 2.240 . S
O31 C36 1.279 . S
O32 Cd29 2.297 1_556 S
O32 C34 1.247 . S
O33 Cd29 2.439 . S
O33 C34 1.208 1_554 S
C34 O32 1.247 . S
C34 O33 1.208 1_556 S
C35 O40 1.247 . S
C35 O41 1.208 . S
C36 O28 1.315 . S
C36 O31 1.279 . S
C37 O38 1.315 . S
C37 O39 1.279 . S
O38 Cd30 2.223 . S
O38 C37 1.315 . S
O39 Cd29 2.240 . S
O39 C37 1.279 . S
O40 Cd30 2.297 . S
O40 C35 1.247 . S
O41 Cd30 2.439 . S
O41 C35 1.208 . S
O42 Cd43 2.223 . S
O42 C50 1.315 . S
Cd43 O42 2.223 . S
Cd43 O46 2.297 1_556 S
Cd43 O47 2.439 . S
Cd43 O53 2.240 . S
Cd44 O45 2.240 . S
Cd44 O52 2.223 . S
Cd44 O54 2.297 . S
Cd44 O55 2.439 . S
O45 Cd44 2.240 . S
O45 C50 1.279 . S
O46 Cd43 2.297 1_554 S
O46 C48 1.247 . S
O47 Cd43 2.439 . S
O47 C48 1.208 1_556 S
C48 O46 1.247 . S
C48 O47 1.208 1_554 S
C49 O54 1.247 . S
C49 O55 1.208 . S
C50 O42 1.315 . S
C50 O45 1.279 . S
C51 O52 1.315 . S
C51 O53 1.279 . S
O52 Cd44 2.223 . S
O52 C51 1.315 . S
O53 Cd43 2.240 . S
O53 C51 1.279 . S
O54 Cd44 2.297 . S
O54 C49 1.247 . S
O55 Cd44 2.439 . S
O55 C49 1.208 . S
O56 Cd57 2.223 . S
O56 C64 1.315 . S
Cd57 O56 2.223 . S
Cd57 O60 2.297 . S
Cd57 O61 2.439 . S
Cd57 O67 2.240 . S
Cd58 O59 2.249 . S
Cd58 O66 2.222 1_554 S
Cd58 O68 2.292 1_554 S
Cd58 O69 2.444 . S
O59 Cd58 2.249 . S
O59 C64 1.279 . S
O60 Cd57 2.297 . S
O60 C62 1.247 . S
O61 Cd57 2.439 . S
O61 C62 1.208 . S
C62 O60 1.247 . S
C62 O61 1.208 . S
C63 O68 1.247 . S
C63 O69 1.208 1_556 S
C64 O56 1.315 . S
C64 O59 1.279 . S
C65 O66 1.315 1_554 S
C65 O67 1.279 . S
O66 Cd58 2.222 1_556 S
O66 C65 1.315 1_556 S
O67 Cd57 2.240 . S
O67 C65 1.279 . S
O68 Cd58 2.292 1_556 S
O68 C63 1.247 . S
O69 Cd58 2.444 . S
O69 C63 1.208 1_554 S
O70 Cd71 2.223 . S
O70 C78 1.315 . S
Cd71 O70 2.223 . S
Cd71 O74 2.297 . S
Cd71 O75 2.439 . S
Cd71 O81 2.240 . S
Cd72 O73 2.249 . S
Cd72 O80 2.222 1_556 S
Cd72 O82 2.292 1_556 S
Cd72 O83 2.444 . S
O73 Cd72 2.249 . S
O73 C78 1.279 . S
O74 Cd71 2.297 . S
O74 C76 1.247 . S
O75 Cd71 2.439 . S
O75 C76 1.208 . S
C76 O74 1.247 . S
C76 O75 1.208 . S
C77 O82 1.247 . S
C77 O83 1.208 1_554 S
C78 O70 1.315 . S
C78 O73 1.279 . S
C79 O80 1.315 1_556 S
C79 O81 1.279 . S
O80 Cd72 2.222 1_554 S
O80 C79 1.315 1_554 S
O81 Cd71 2.240 . S
O81 C79 1.279 . S
O82 Cd72 2.292 1_554 S
O82 C77 1.247 . S
O83 Cd72 2.444 . S
O83 C77 1.208 1_556 S
O84 Cd85 2.223 . S
O84 C92 1.315 . S
Cd85 O84 2.223 . S
Cd85 O88 2.297 . S
Cd85 O89 2.439 . S
Cd85 O95 2.240 . S
Cd86 O87 2.249 . S
Cd86 O94 2.222 1_554 S
Cd86 O96 2.292 1_554 S
Cd86 O97 2.444 . S
O87 Cd86 2.249 . S
O87 C92 1.279 . S
O88 Cd85 2.297 . S
O88 C90 1.247 . S
O89 Cd85 2.439 . S
O89 C90 1.208 . S
C90 O88 1.247 . S
C90 O89 1.208 . S
C91 O96 1.247 . S
C91 O97 1.208 1_556 S
C92 O84 1.315 . S
C92 O87 1.279 . S
C93 O94 1.315 1_554 S
C93 O95 1.279 . S
O94 Cd86 2.222 1_556 S
O94 C93 1.315 1_556 S
O95 Cd85 2.240 . S
O95 C93 1.279 . S
O96 Cd86 2.292 1_556 S
O96 C91 1.247 . S
O97 Cd86 2.444 . S
O97 C91 1.208 1_554 S
O98 Cd99 2.223 . S
O98 C106 1.315 . S
Cd99 O98 2.223 . S
Cd99 O102 2.297 . S
Cd99 O103 2.439 . S
Cd99 O109 2.240 . S
Cd100 O101 2.249 . S
Cd100 O108 2.222 1_556 S
Cd100 O110 2.292 1_556 S
Cd100 O111 2.444 . S
O101 Cd100 2.249 . S
O101 C106 1.279 . S
O102 Cd99 2.297 . S
O102 C104 1.247 . S
O103 Cd99 2.439 . S
O103 C104 1.208 . S
C104 O102 1.247 . S
C104 O103 1.208 . S
C105 O110 1.247 . S
C105 O111 1.208 1_554 S
C106 O98 1.315 . S
C106 O101 1.279 . S
C107 O108 1.315 1_556 S
C107 O109 1.279 . S
O108 Cd100 2.222 1_554 S
O108 C107 1.315 1_554 S
O109 Cd99 2.240 . S
O109 C107 1.279 . S
O110 Cd100 2.292 1_554 S
O110 C105 1.247 . S
O111 Cd100 2.444 . S
O111 C105 1.208 1_556 S
O112 Cd113 2.223 . S
O112 C120 1.315 . S
Cd113 O112 2.223 . S
Cd113 O116 2.297 . S
Cd113 O117 2.439 . S
Cd113 O123 2.240 . S
Cd114 O115 2.240 . S
Cd114 O122 2.223 . S
Cd114 O124 2.297 . S
Cd114 O125 2.439 . S
O115 Cd114 2.240 . S
O115 C120 1.279 . S
O116 Cd113 2.297 . S
O116 C118 1.247 . S
O117 Cd113 2.439 . S
O117 C118 1.208 . S
C118 O116 1.247 . S
C118 O117 1.208 . S
C119 O124 1.247 . S
C119 O125 1.208 . S
C120 O112 1.315 . S
C120 O115 1.279 . S
C121 O122 1.315 . S
C121 O123 1.279 . S
O122 Cd114 2.223 . S
O122 C121 1.315 . S
O123 Cd113 2.240 . S
O123 C121 1.279 . S
O124 Cd114 2.297 . S
O124 C119 1.247 . S
O125 Cd114 2.439 . S
O125 C119 1.208 . S
O126 Cd127 2.223 . S
O126 C134 1.315 . S
Cd127 O126 2.223 . S
Cd127 O130 2.297 . S
Cd127 O131 2.439 . S
Cd127 O137 2.240 . S
Cd128 O129 2.240 . S
Cd128 O136 2.223 . S
Cd128 O138 2.297 . S
Cd128 O139 2.439 . S
O129 Cd128 2.240 . S
O129 C134 1.279 . S
O130 Cd127 2.297 . S
O130 C132 1.247 . S
O131 Cd127 2.439 . S
O131 C132 1.208 . S
C132 O130 1.247 . S
C132 O131 1.208 . S
C133 O138 1.247 . S
C133 O139 1.208 . S
C134 O126 1.315 . S
C134 O129 1.279 . S
C135 O136 1.315 . S
C135 O137 1.279 . S
O136 Cd128 2.223 . S
O136 C135 1.315 . S
O137 Cd127 2.240 . S
O137 C135 1.279 . S
O138 Cd128 2.297 . S
O138 C133 1.247 . S
O139 Cd128 2.439 . S
O139 C133 1.208 . S
O140 Cd141 2.223 . S
O140 C148 1.315 . S
Cd141 O140 2.223 . S
Cd141 O144 2.297 . S
Cd141 O145 2.439 . S
Cd141 O151 2.240 . S
Cd142 O143 2.240 . S
Cd142 O150 2.223 . S
Cd142 O152 2.297 . S
Cd142 O153 2.439 . S
O143 Cd142 2.240 . S
O143 C148 1.279 . S
O144 Cd141 2.297 . S
O144 C146 1.247 . S
O145 Cd141 2.439 . S
O145 C146 1.208 . S
C146 O144 1.247 . S
C146 O145 1.208 . S
C147 O152 1.247 . S
C147 O153 1.208 . S
C148 O140 1.315 . S
C148 O143 1.279 . S
C149 O150 1.315 . S
C149 O151 1.279 . S
O150 Cd142 2.223 . S
O150 C149 1.315 . S
O151 Cd141 2.240 . S
O151 C149 1.279 . S
O152 Cd142 2.297 . S
O152 C147 1.247 . S
O153 Cd142 2.439 . S
O153 C147 1.208 . S
O154 Cd155 2.223 . S
O154 C162 1.315 . S
Cd155 O154 2.223 . S
Cd155 O158 2.297 . S
Cd155 O159 2.439 . S
Cd155 O165 2.240 . S
Cd156 O157 2.240 . S
Cd156 O164 2.223 . S
Cd156 O166 2.297 . S
Cd156 O167 2.439 . S
O157 Cd156 2.240 . S
O157 C162 1.279 . S
O158 Cd155 2.297 . S
O158 C160 1.247 . S
O159 Cd155 2.439 . S
O159 C160 1.208 . S
C160 O158 1.247 . S
C160 O159 1.208 . S
C161 O166 1.247 . S
C161 O167 1.208 . S
C162 O154 1.315 . S
C162 O157 1.279 . S
C163 O164 1.315 . S
C163 O165 1.279 . S
O164 Cd156 2.223 . S
O164 C163 1.315 . S
O165 Cd155 2.240 . S
O165 C163 1.279 . S
O166 Cd156 2.297 . S
O166 C161 1.247 . S
O167 Cd156 2.439 . S
O167 C161 1.208 . S
O168 Cd169 2.223 . S
O168 C176 1.315 . S
Cd169 O168 2.223 . S
Cd169 O172 2.297 . S
Cd169 O173 2.439 . S
Cd169 O179 2.240 . S
Cd170 O171 2.240 . S
Cd170 O178 2.223 . S
Cd170 O180 2.297 . S
Cd170 O181 2.439 . S
O171 Cd170 2.240 . S
O171 C176 1.279 . S
O172 Cd169 2.297 . S
O172 C174 1.247 . S
O173 Cd169 2.439 . S
O173 C174 1.208 . S
C174 O172 1.247 . S
C174 O173 1.208 . S
C175 O180 1.247 . S
C175 O181 1.208 . S
C176 O168 1.315 . S
C176 O171 1.279 . S
C177 O178 1.315 . S
C177 O179 1.279 . S
O178 Cd170 2.223 . S
O178 C177 1.315 . S
O179 Cd169 2.240 . S
O179 C177 1.279 . S
O180 Cd170 2.297 . S
O180 C175 1.247 . S
O181 Cd170 2.439 . S
O181 C175 1.208 . S
O182 Cd183 2.223 . S
O182 C190 1.315 . S
Cd183 O182 2.223 . S
Cd183 O186 2.297 . S
Cd183 O187 2.439 . S
Cd183 O193 2.240 . S
Cd184 O185 2.240 . S
Cd184 O192 2.223 . S
Cd184 O194 2.297 . S
Cd184 O195 2.439 . S
O185 Cd184 2.240 . S
O185 C190 1.279 . S
O186 Cd183 2.297 . S
O186 C188 1.247 . S
O187 Cd183 2.439 . S
O187 C188 1.208 . S
C188 O186 1.247 . S
C188 O187 1.208 . S
C189 O194 1.247 . S
C189 O195 1.208 . S
C190 O182 1.315 . S
C190 O185 1.279 . S
C191 O192 1.315 . S
C191 O193 1.279 . S
O192 Cd184 2.223 . S
O192 C191 1.315 . S
O193 Cd183 2.240 . S
O193 C191 1.279 . S
O194 Cd184 2.297 . S
O194 C189 1.247 . S
O195 Cd184 2.439 . S
O195 C189 1.208 . S
O196 Cd197 2.223 . S
O196 C204 1.315 . S
Cd197 O196 2.223 . S
Cd197 O200 2.297 . S
Cd197 O201 2.439 . S
Cd197 O207 2.240 . S
Cd198 O199 2.240 . S
Cd198 O206 2.223 . S
Cd198 O208 2.297 . S
Cd198 O209 2.439 . S
O199 Cd198 2.240 . S
O199 C204 1.279 . S
O200 Cd197 2.297 . S
O200 C202 1.247 . S
O201 Cd197 2.439 . S
O201 C202 1.208 . S
C202 O200 1.247 . S
C202 O201 1.208 . S
C203 O208 1.247 . S
C203 O209 1.208 . S
C204 O196 1.315 . S
C204 O199 1.279 . S
C205 O206 1.315 . S
C205 O207 1.279 . S
O206 Cd198 2.223 . S
O206 C205 1.315 . S
O207 Cd197 2.240 . S
O207 C205 1.279 . S
O208 Cd198 2.297 . S
O208 C203 1.247 . S
O209 Cd198 2.439 . S
O209 C203 1.208 . S
O210 Cd211 2.223 . S
O210 C218 1.315 . S
Cd211 O210 2.223 . S
Cd211 O214 2.297 . S
Cd211 O215 2.439 . S
Cd211 O221 2.240 . S
Cd212 O213 2.240 . S
Cd212 O220 2.223 . S
Cd212 O222 2.297 . S
Cd212 O223 2.439 . S
O213 Cd212 2.240 . S
O213 C218 1.279 . S
O214 Cd211 2.297 . S
O214 C216 1.247 . S
O215 Cd211 2.439 . S
O215 C216 1.208 . S
C216 O214 1.247 . S
C216 O215 1.208 . S
C217 O222 1.247 . S
C217 O223 1.208 . S
C218 O210 1.315 . S
C218 O213 1.279 . S
C219 O220 1.315 . S
C219 O221 1.279 . S
O220 Cd212 2.223 . S
O220 C219 1.315 . S
O221 Cd211 2.240 . S
O221 C219 1.279 . S
O222 Cd212 2.297 . S
O222 C217 1.247 . S
O223 Cd212 2.439 . S
O223 C217 1.208 . S
C224 C225 1.387 . S
C224 H228 0.950 . S
C224 C233 1.390 . S
C225 C224 1.387 . S
C225 C227 1.387 . S
H226 C233 0.950 . S
C227 C225 1.387 . S
C227 C229 1.390 . S
C227 H231 0.950 . S
H228 C224 0.950 . S
C229 C227 1.390 . S
C229 C230 1.387 1_565 S
C229 H232 0.950 1_565 S
C230 C229 1.387 1_545 S
C230 C233 1.387 1_545 S
H231 C227 0.950 . S
H232 C229 0.950 1_545 S
C233 C224 1.390 . S
C233 H226 0.950 . S
C233 C230 1.387 1_565 S
C234 C235 1.387 1_655 S
C234 H238 0.950 1_655 S
C234 C243 1.390 . S
C235 C234 1.387 1_455 S
C235 C237 1.387 1_455 S
H236 C243 0.950 . S
C237 C235 1.387 1_655 S
C237 C239 1.390 . S
C237 H241 0.950 . S
H238 C234 0.950 1_455 S
C239 C237 1.390 . S
C239 C240 1.387 . S
C239 H242 0.950 . S
C240 C239 1.387 . S
C240 C243 1.387 . S
H241 C237 0.950 . S
H242 C239 0.950 . S
C243 C234 1.390 . S
C243 H236 0.950 . S
C243 C240 1.387 . S
C244 C245 1.387 1_545 S
C244 H248 0.950 1_545 S
C244 C253 1.390 . S
C245 C244 1.387 1_565 S
C245 C247 1.387 1_565 S
H246 C253 0.950 . S
C247 C245 1.387 1_545 S
C247 C249 1.390 . S
C247 H251 0.950 . S
H248 C244 0.950 1_565 S
C249 C247 1.390 . S
C249 C250 1.387 . S
C249 H252 0.950 . S
C250 C249 1.387 . S
C250 C253 1.387 . S
H251 C247 0.950 . S
H252 C249 0.950 . S
C253 C244 1.390 . S
C253 H246 0.950 . S
C253 C250 1.387 . S
C254 C255 1.387 . S
C254 H258 0.950 . S
C254 C263 1.390 . S
C255 C254 1.387 . S
C255 C257 1.387 . S
H256 C263 0.950 . S
C257 C255 1.387 . S
C257 C259 1.390 . S
C257 H261 0.950 . S
H258 C254 0.950 . S
C259 C257 1.390 . S
C259 C260 1.387 1_455 S
C259 H262 0.950 1_455 S
C260 C259 1.387 1_655 S
C260 C263 1.387 1_655 S
H261 C257 0.950 . S
H262 C259 0.950 1_655 S
C263 C254 1.390 . S
C263 H256 0.950 . S
C263 C260 1.387 1_455 S
C264 C265 1.387 1_554 S
C264 H268 0.950 . S
C264 C273 1.390 . S
C265 C264 1.387 1_556 S
C265 C267 1.387 . S
H266 C273 0.950 . S
C267 C265 1.387 . S
C267 C269 1.390 . S
C267 H271 0.950 . S
H268 C264 0.950 . S
C269 C267 1.390 . S
C269 C270 1.387 . S
C269 H272 0.950 . S
C270 C269 1.387 . S
C270 C273 1.387 1_556 S
H271 C267 0.950 . S
H272 C269 0.950 . S
C273 C264 1.390 . S
C273 H266 0.950 . S
C273 C270 1.387 1_554 S
C274 C275 1.387 . S
C274 H278 0.950 . S
C274 C283 1.390 . S
C275 C274 1.387 . S
C275 C277 1.387 1_554 S
H276 C283 0.950 . S
C277 C275 1.387 1_556 S
C277 C279 1.390 . S
C277 H281 0.950 . S
H278 C274 0.950 . S
C279 C277 1.390 . S
C279 C280 1.387 1_556 S
C279 H282 0.950 . S
C280 C279 1.387 1_554 S
C280 C283 1.387 . S
H281 C277 0.950 . S
H282 C279 0.950 . S
C283 C274 1.390 . S
C283 H276 0.950 . S
C283 C280 1.387 . S
C284 C285 1.387 . S
C284 H288 0.950 . S
C284 C293 1.390 . S
C285 C284 1.387 . S
C285 C287 1.387 1_556 S
H286 C293 0.950 . S
C287 C285 1.387 1_554 S
C287 C289 1.390 . S
C287 H291 0.950 . S
H288 C284 0.950 . S
C289 C287 1.390 . S
C289 C290 1.387 1_554 S
C289 H292 0.950 . S
C290 C289 1.387 1_556 S
C290 C293 1.387 . S
H291 C287 0.950 . S
H292 C289 0.950 . S
C293 C284 1.390 . S
C293 H286 0.950 . S
C293 C290 1.387 . S
C294 C295 1.387 . S
C294 H298 0.950 1_554 S
C294 C303 1.390 1_554 S
C295 C294 1.387 . S
C295 C297 1.387 . S
H296 C303 0.950 . S
C297 C295 1.387 . S
C297 C299 1.390 . S
C297 H301 0.950 . S
H298 C294 0.950 1_556 S
C299 C297 1.390 . S
C299 C300 1.387 . S
C299 H302 0.950 . S
C300 C299 1.387 . S
C300 C303 1.387 1_554 S
H301 C297 0.950 . S
H302 C299 0.950 . S
C303 C294 1.390 1_556 S
C303 H296 0.950 . S
C303 C300 1.387 1_556 S
C304 C305 1.387 . S
C304 H308 0.950 . S
C304 C313 1.390 . S
C305 C304 1.387 . S
C305 C307 1.387 . S
H306 C313 0.950 . S
C307 C305 1.387 . S
C307 C309 1.390 . S
C307 H311 0.950 . S
H308 C304 0.950 . S
C309 C307 1.390 . S
C309 C310 1.387 . S
C309 H312 0.950 . S
C310 C309 1.387 . S
C310 C313 1.387 . S
H311 C307 0.950 . S
H312 C309 0.950 . S
C313 C304 1.390 . S
C313 H306 0.950 . S
C313 C310 1.387 . S
C314 C315 1.387 . S
C314 H318 0.950 . S
C314 C323 1.390 . S
C315 C314 1.387 . S
C315 C317 1.387 . S
H316 C323 0.950 . S
C317 C315 1.387 . S
C317 C319 1.390 . S
C317 H321 0.950 . S
H318 C314 0.950 . S
C319 C317 1.390 . S
C319 C320 1.387 . S
C319 H322 0.950 . S
C320 C319 1.387 . S
C320 C323 1.387 . S
H321 C317 0.950 . S
H322 C319 0.950 . S
C323 C314 1.390 . S
C323 H316 0.950 . S
C323 C320 1.387 . S
C324 C325 1.387 . S
C324 H328 0.950 . S
C324 C333 1.390 . S
C325 C324 1.387 . S
C325 C327 1.387 . S
H326 C333 0.950 . S
C327 C325 1.387 . S
C327 C329 1.390 . S
C327 H331 0.950 . S
H328 C324 0.950 . S
C329 C327 1.390 . S
C329 C330 1.387 . S
C329 H332 0.950 . S
C330 C329 1.387 . S
C330 C333 1.387 . S
H331 C327 0.950 . S
H332 C329 0.950 . S
C333 C324 1.390 . S
C333 H326 0.950 . S
C333 C330 1.387 . S
C334 C335 1.387 . S
C334 H338 0.950 . S
C334 C343 1.390 . S
C335 C334 1.387 . S
C335 C337 1.387 . S
H336 C343 0.950 . S
C337 C335 1.387 . S
C337 C339 1.390 . S
C337 H341 0.950 . S
H338 C334 0.950 . S
C339 C337 1.390 . S
C339 C340 1.387 . S
C339 H342 0.950 . S
C340 C339 1.387 . S
C340 C343 1.387 . S
H341 C337 0.950 . S
H342 C339 0.950 . S
C343 C334 1.390 . S
C343 H336 0.950 . S
C343 C340 1.387 . S
C344 C345 1.387 1_545 S
C344 H348 0.950 . S
C344 C353 1.390 . S
C345 C344 1.387 1_565 S
C345 C347 1.387 1_565 S
H346 C353 0.950 . S
C347 C345 1.387 1_545 S
C347 C349 1.390 . S
C347 H351 0.950 1_545 S
H348 C344 0.950 . S
C349 C347 1.390 . S
C349 C350 1.387 . S
C349 H352 0.950 . S
C350 C349 1.387 . S
C350 C353 1.387 . S
H351 C347 0.950 1_565 S
H352 C349 0.950 . S
C353 C344 1.390 . S
C353 H346 0.950 . S
C353 C350 1.387 . S
C354 C355 1.387 1_455 S
C354 H358 0.950 1_455 S
C354 C363 1.390 . S
C355 C354 1.387 1_655 S
C355 C357 1.387 1_655 S
H356 C363 0.950 . S
C357 C355 1.387 1_455 S
C357 C359 1.390 . S
C357 H361 0.950 . S
H358 C354 0.950 1_655 S
C359 C357 1.390 . S
C359 C360 1.387 . S
C359 H362 0.950 . S
C360 C359 1.387 . S
C360 C363 1.387 . S
H361 C357 0.950 . S
H362 C359 0.950 . S
C363 C354 1.390 . S
C363 H356 0.950 . S
C363 C360 1.387 . S
C364 C365 1.387 . S
C364 H368 0.950 . S
C364 C373 1.390 . S
C365 C364 1.387 . S
C365 C367 1.387 . S
H366 C373 0.950 . S
C367 C365 1.387 . S
C367 C369 1.390 . S
C367 H371 0.950 . S
H368 C364 0.950 . S
C369 C367 1.390 . S
C369 C370 1.387 1_565 S
C369 H372 0.950 1_565 S
C370 C369 1.387 1_545 S
C370 C373 1.387 1_545 S
H371 C367 0.950 . S
H372 C369 0.950 1_545 S
C373 C364 1.390 . S
C373 H366 0.950 . S
C373 C370 1.387 1_565 S
C374 C375 1.387 . S
C374 H378 0.950 . S
C374 C383 1.390 . S
C375 C374 1.387 . S
C375 C377 1.387 . S
H376 C383 0.950 1_455 S
C377 C375 1.387 . S
C377 C379 1.390 . S
C377 H381 0.950 . S
H378 C374 0.950 . S
C379 C377 1.390 . S
C379 C380 1.387 1_655 S
C379 H382 0.950 . S
C380 C379 1.387 1_455 S
C380 C383 1.387 1_455 S
H381 C377 0.950 . S
H382 C379 0.950 . S
C383 C374 1.390 . S
C383 H376 0.950 1_655 S
C383 C380 1.387 1_655 S
C384 C385 1.387 . S
C384 H388 0.950 . S
C384 C393 1.390 . S
C385 C384 1.387 . S
C385 C387 1.387 . S
H386 C393 0.950 . S
C387 C385 1.387 . S
C387 C389 1.390 . S
C387 H391 0.950 . S
H388 C384 0.950 . S
C389 C387 1.390 . S
C389 C390 1.387 . S
C389 H392 0.950 . S
C390 C389 1.387 . S
C390 C393 1.387 . S
H391 C387 0.950 . S
H392 C389 0.950 . S
C393 C384 1.390 . S
C393 H386 0.950 . S
C393 C390 1.387 . S
C394 C395 1.387 . S
C394 H398 0.950 . S
C394 C403 1.390 . S
C395 C394 1.387 . S
C395 C397 1.387 . S
H396 C403 0.950 . S
C397 C395 1.387 . S
C397 C399 1.390 . S
C397 H401 0.950 . S
H398 C394 0.950 . S
C399 C397 1.390 . S
C399 C400 1.387 . S
C399 H402 0.950 . S
C400 C399 1.387 . S
C400 C403 1.387 . S
H401 C397 0.950 . S
H402 C399 0.950 . S
C403 C394 1.390 . S
C403 H396 0.950 . S
C403 C400 1.387 . S
C404 C405 1.387 . S
C404 H408 0.950 . S
C404 C413 1.390 . S
C405 C404 1.387 . S
C405 C407 1.387 . S
H406 C413 0.950 . S
C407 C405 1.387 . S
C407 C409 1.390 . S
C407 H411 0.950 . S
H408 C404 0.950 . S
C409 C407 1.390 . S
C409 C410 1.387 . S
C409 H412 0.950 . S
C410 C409 1.387 . S
C410 C413 1.387 . S
H411 C407 0.950 . S
H412 C409 0.950 . S
C413 C404 1.390 . S
C413 H406 0.950 . S
C413 C410 1.387 . S
C414 C415 1.387 . S
C414 H418 0.950 . S
C414 C423 1.390 . S
C415 C414 1.387 . S
C415 C417 1.387 . S
H416 C423 0.950 . S
C417 C415 1.387 . S
C417 C419 1.390 . S
C417 H421 0.950 . S
H418 C414 0.950 . S
C419 C417 1.390 . S
C419 C420 1.387 . S
C419 H422 0.950 . S
C420 C419 1.387 . S
C420 C423 1.387 . S
H421 C417 0.950 . S
H422 C419 0.950 . S
C423 C414 1.390 . S
C423 H416 0.950 . S
C423 C420 1.387 . S
C424 C425 1.387 . S
C424 H428 0.950 . S
C424 C433 1.390 . S
C425 C424 1.387 . S
C425 C427 1.387 . S
H426 C433 0.950 . S
C427 C425 1.387 . S
C427 C429 1.390 . S
C427 H431 0.950 . S
H428 C424 0.950 . S
C429 C427 1.390 . S
C429 C430 1.387 . S
C429 H432 0.950 . S
C430 C429 1.387 . S
C430 C433 1.387 . S
H431 C427 0.950 . S
H432 C429 0.950 . S
C433 C424 1.390 . S
C433 H426 0.950 . S
C433 C430 1.387 . S
C434 C435 1.387 . S
C434 H438 0.950 . S
C434 C443 1.390 . S
C435 C434 1.387 . S
C435 C437 1.387 . S
H436 C443 0.950 . S
C437 C435 1.387 . S
C437 C439 1.390 . S
C437 H441 0.950 . S
H438 C434 0.950 . S
C439 C437 1.390 . S
C439 C440 1.387 . S
C439 H442 0.950 . S
C440 C439 1.387 . S
C440 C443 1.387 . S
H441 C437 0.950 . S
H442 C439 0.950 . S
C443 C434 1.390 . S
C443 H436 0.950 . S
C443 C440 1.387 . S
C444 C445 1.387 . S
C444 H448 0.950 . S
C444 C453 1.390 . S
C445 C444 1.387 . S
C445 C447 1.387 . S
H446 C453 0.950 . S
C447 C445 1.387 . S
C447 C449 1.390 . S
C447 H451 0.950 . S
H448 C444 0.950 . S
C449 C447 1.390 . S
C449 C450 1.387 . S
C449 H452 0.950 . S
C450 C449 1.387 . S
C450 C453 1.387 . S
H451 C447 0.950 . S
H452 C449 0.950 . S
C453 C444 1.390 . S
C453 H446 0.950 . S
C453 C450 1.387 . S
C454 C455 1.387 . S
C454 H458 0.950 . S
C454 C463 1.390 . S
C455 C454 1.387 . S
C455 C457 1.387 . S
H456 C463 0.950 . S
C457 C455 1.387 . S
C457 C459 1.390 . S
C457 H461 0.950 . S
H458 C454 0.950 . S
C459 C457 1.390 . S
C459 C460 1.387 . S
C459 H462 0.950 . S
C460 C459 1.387 . S
C460 C463 1.387 . S
H461 C457 0.950 . S
H462 C459 0.950 . S
C463 C454 1.390 . S
C463 H456 0.950 . S
C463 C460 1.387 . S
C464 C465 1.387 . S
C464 H468 0.950 . S
C464 C473 1.390 . S
C465 C464 1.387 . S
C465 C467 1.387 . S
H466 C473 0.950 . S
C467 C465 1.387 . S
C467 C469 1.390 . S
C467 H471 0.950 . S
H468 C464 0.950 . S
C469 C467 1.390 . S
C469 C470 1.387 . S
C469 H472 0.950 . S
C470 C469 1.387 . S
C470 C473 1.387 . S
H471 C467 0.950 . S
H472 C469 0.950 . S
C473 C464 1.390 . S
C473 H466 0.950 . S
C473 C470 1.387 . S
C474 C475 1.387 . S
C474 H478 0.950 . S
C474 C483 1.390 . S
C475 C474 1.387 . S
C475 C477 1.387 . S
H476 C483 0.950 . S
C477 C475 1.387 . S
C477 C479 1.390 . S
C477 H481 0.950 . S
H478 C474 0.950 . S
C479 C477 1.390 . S
C479 C480 1.387 . S
C479 H482 0.950 . S
C480 C479 1.387 . S
C480 C483 1.387 . S
H481 C477 0.950 . S
H482 C479 0.950 . S
C483 C474 1.390 . S
C483 H476 0.950 . S
C483 C480 1.387 . S
C484 C485 1.387 . S
C484 H488 0.950 . S
C484 C493 1.390 . S
C485 C484 1.387 . S
C485 C487 1.387 . S
H486 C493 0.950 . S
C487 C485 1.387 . S
C487 C489 1.390 . S
C487 H491 0.950 . S
H488 C484 0.950 . S
C489 C487 1.390 . S
C489 C490 1.387 . S
C489 H492 0.950 . S
C490 C489 1.387 . S
C490 C493 1.387 . S
H491 C487 0.950 . S
H492 C489 0.950 . S
C493 C484 1.390 . S
C493 H486 0.950 . S
C493 C490 1.387 . S
C494 C495 1.387 . S
C494 H498 0.950 . S
C494 C503 1.390 . S
C495 C494 1.387 . S
C495 C497 1.387 . S
H496 C503 0.950 . S
C497 C495 1.387 . S
C497 C499 1.390 . S
C497 H501 0.950 . S
H498 C494 0.950 . S
C499 C497 1.390 . S
C499 C500 1.387 . S
C499 H502 0.950 . S
C500 C499 1.387 . S
C500 C503 1.387 . S
H501 C497 0.950 . S
H502 C499 0.950 . S
C503 C494 1.390 . S
C503 H496 0.950 . S
C503 C500 1.387 . S
C504 C505 1.387 . S
C504 H508 0.950 . S
C504 C513 1.390 . S
C505 C504 1.387 . S
C505 C507 1.387 . S
H506 C513 0.950 . S
C507 C505 1.387 . S
C507 C509 1.390 . S
C507 H511 0.950 . S
H508 C504 0.950 . S
C509 C507 1.390 . S
C509 C510 1.387 . S
C509 H512 0.950 . S
C510 C509 1.387 . S
C510 C513 1.387 . S
H511 C507 0.950 . S
H512 C509 0.950 . S
C513 C504 1.390 . S
C513 H506 0.950 . S
C513 C510 1.387 . S
C514 C515 1.387 . S
C514 H518 0.950 . S
C514 C523 1.390 . S
C515 C514 1.387 . S
C515 C517 1.387 . S
H516 C523 0.950 . S
C517 C515 1.387 . S
C517 C519 1.390 . S
C517 H521 0.950 . S
H518 C514 0.950 . S
C519 C517 1.390 . S
C519 C520 1.387 . S
C519 H522 0.950 . S
C520 C519 1.387 . S
C520 C523 1.387 . S
H521 C517 0.950 . S
H522 C519 0.950 . S
C523 C514 1.390 . S
C523 H516 0.950 . S
C523 C520 1.387 . S
C524 C525 1.387 . S
C524 H528 0.950 . S
C524 C533 1.390 . S
C525 C524 1.387 . S
C525 C527 1.387 . S
H526 C533 0.950 . S
C527 C525 1.387 . S
C527 C529 1.390 . S
C527 H531 0.950 . S
H528 C524 0.950 . S
C529 C527 1.390 . S
C529 C530 1.387 . S
C529 H532 0.950 . S
C530 C529 1.387 . S
C530 C533 1.387 . S
H531 C527 0.950 . S
H532 C529 0.950 . S
C533 C524 1.390 . S
C533 H526 0.950 . S
C533 C530 1.387 . S
C534 C535 1.387 . S
C534 H538 0.950 . S
C534 C543 1.390 . S
C535 C534 1.387 . S
C535 C537 1.387 . S
H536 C543 0.950 . S
C537 C535 1.387 . S
C537 C539 1.390 . S
C537 H541 0.950 . S
H538 C534 0.950 . S
C539 C537 1.390 . S
C539 C540 1.387 . S
C539 H542 0.950 . S
C540 C539 1.387 . S
C540 C543 1.387 . S
H541 C537 0.950 . S
H542 C539 0.950 . S
C543 C534 1.390 . S
C543 H536 0.950 . S
C543 C540 1.387 . S
C225 C163 1.491 . S
C230 C7 1.482 . S
C235 C21 1.480 . S
C240 C121 1.489 . S
C245 C35 1.480 . S
C250 C135 1.490 . S
C255 C149 1.491 . S
C260 C49 1.481 . S
C265 C63 1.482 . S
C270 C79 1.490 . S
C275 C77 1.482 . S
C280 C93 1.491 . S
C285 C107 1.490 . S
C290 C91 1.480 . S
C295 C65 1.489 . S
C300 C105 1.480 . S
C305 C51 1.490 . S
C310 C119 1.480 . S
C315 C133 1.480 . S
C320 C9 1.490 . S
C325 C23 1.490 . S
C330 C147 1.482 . S
C335 C161 1.480 . S
C340 C37 1.490 . S
C345 C175 1.482 . S
C350 C191 1.491 . S
C355 C189 1.480 . S
C360 C205 1.489 . S
C365 C219 1.490 . S
C370 C203 1.482 . S
C375 C177 1.489 . S
C380 C217 1.480 . S
C385 C64 1.351 . S
C390 C8 1.351 . S
C395 C22 1.356 . S
C400 C78 1.356 . S
C405 C36 1.356 . S
C410 C92 1.357 . S
C415 C106 1.357 . S
C420 C50 1.357 . S
C425 C120 1.351 . S
C430 C176 1.351 . S
C435 C190 1.351 . S
C440 C134 1.351 . S
C445 C148 1.357 . S
C450 C204 1.357 . S
C455 C218 1.357 . S
C460 C162 1.357 . S
C465 C202 1.399 . S
C470 C6 1.399 . S
C475 C216 1.399 . S
C480 C20 1.399 . S
C485 C34 1.400 . S
C490 C174 1.400 . S
C495 C188 1.400 . S
C500 C48 1.400 . S
C505 C146 1.399 . S
C510 C62 1.399 . S
C515 C160 1.400 . S
C520 C76 1.400 . S
C525 C90 1.399 . S
C530 C118 1.399 . S
C535 C132 1.400 . S
C540 C104 1.400 . S
