# Generated by pormake.
# Topology wgn, (5)-cn, num edge types: 1
# Building blocks:
#     Node 0, Type 0, BuildingBlock: BEQFEK_clean_sbu_0, # of connection points: 5
#     Node 1, Type 0, BuildingBlock: BEQFEK_clean_sbu_0, # of connection points: 5
#     Node 2, Type 0, BuildingBlock: BEQFEK_clean_sbu_0, # of connection points: 5
#     Node 3, Type 0, BuildingBlock: BEQFEK_clean_sbu_0, # of connection points: 5
#     Node 4, Type 0, BuildingBlock: BEQFEK_clean_sbu_0, # of connection points: 5
#     Node 5, Type 0, BuildingBlock: BEQFEK_clean_sbu_0, # of connection points: 5
#     Node 6, Type 0, BuildingBlock: BEQFEK_clean_sbu_0, # of connection points: 5
#     Node 7, Type 0, BuildingBlock: BEQFEK_clean_sbu_0, # of connection points: 5
#     Node 8, Type 0, BuildingBlock: BEQFEK_clean_sbu_0, # of connection points: 5
#     Node 9, Type 0, BuildingBlock: BEQFEK_clean_sbu_0, # of connection points: 5
#     Node 10, Type 0, BuildingBlock: BEQFEK_clean_sbu_0, # of connection points: 5
#     Node 11, Type 0, BuildingBlock: BEQFEK_clean_sbu_0, # of connection points: 5
#     Node 12, Type 0, BuildingBlock: BEQFEK_clean_sbu_0, # of connection points: 5
#     Node 13, Type 0, BuildingBlock: BEQFEK_clean_sbu_0, # of connection points: 5
#     Node 14, Type 0, BuildingBlock: BEQFEK_clean_sbu_0, # of connection points: 5
#     Node 15, Type 0, BuildingBlock: BEQFEK_clean_sbu_0, # of connection points: 5
#     Node 16, Type 0, BuildingBlock: BEQFEK_clean_sbu_0, # of connection points: 5
#     Node 17, Type 0, BuildingBlock: BEQFEK_clean_sbu_0, # of connection points: 5
#     Node 18, Type 0, BuildingBlock: BEQFEK_clean_sbu_0, # of connection points: 5
#     Node 19, Type 0, BuildingBlock: BEQFEK_clean_sbu_0, # of connection points: 5
#     Node 20, Type 0, BuildingBlock: BEQFEK_clean_sbu_0, # of connection points: 5
#     Node 21, Type 0, BuildingBlock: BEQFEK_clean_sbu_0, # of connection points: 5
#     Node 22, Type 0, BuildingBlock: BEQFEK_clean_sbu_0, # of connection points: 5
#     Node 23, Type 0, BuildingBlock: BEQFEK_clean_sbu_0, # of connection points: 5
#     Node 24, Type 0, BuildingBlock: BEQFEK_clean_sbu_0, # of connection points: 5
#     Node 25, Type 0, BuildingBlock: BEQFEK_clean_sbu_0, # of connection points: 5
#     Node 26, Type 0, BuildingBlock: BEQFEK_clean_sbu_0, # of connection points: 5
#     Node 27, Type 0, BuildingBlock: BEQFEK_clean_sbu_0, # of connection points: 5
#     Node 28, Type 0, BuildingBlock: BEQFEK_clean_sbu_0, # of connection points: 5
#     Node 29, Type 0, BuildingBlock: BEQFEK_clean_sbu_0, # of connection points: 5
#     Node 30, Type 0, BuildingBlock: BEQFEK_clean_sbu_0, # of connection points: 5
#     Node 31, Type 0, BuildingBlock: BEQFEK_clean_sbu_0, # of connection points: 5
#     Edge 32, Type (0, 0), BuildingBlock: XIVTED_clean_linker_0, # of connection points: 2
#     Edge 33, Type (0, 0), BuildingBlock: XIVTED_clean_linker_0, # of connection points: 2
#     Edge 34, Type (0, 0), BuildingBlock: XIVTED_clean_linker_0, # of connection points: 2
#     Edge 35, Type (0, 0), BuildingBlock: XIVTED_clean_linker_0, # of connection points: 2
#     Edge 36, Type (0, 0), BuildingBlock: XIVTED_clean_linker_0, # of connection points: 2
#     Edge 37, Type (0, 0), BuildingBlock: XIVTED_clean_linker_0, # of connection points: 2
#     Edge 38, Type (0, 0), BuildingBlock: XIVTED_clean_linker_0, # of connection points: 2
#     Edge 39, Type (0, 0), BuildingBlock: XIVTED_clean_linker_0, # of connection points: 2
#     Edge 40, Type (0, 0), BuildingBlock: XIVTED_clean_linker_0, # of connection points: 2
#     Edge 41, Type (0, 0), BuildingBlock: XIVTED_clean_linker_0, # of connection points: 2
#     Edge 42, Type (0, 0), BuildingBlock: XIVTED_clean_linker_0, # of connection points: 2
#     Edge 43, Type (0, 0), BuildingBlock: XIVTED_clean_linker_0, # of connection points: 2
#     Edge 44, Type (0, 0), BuildingBlock: XIVTED_clean_linker_0, # of connection points: 2
#     Edge 45, Type (0, 0), BuildingBlock: XIVTED_clean_linker_0, # of connection points: 2
#     Edge 46, Type (0, 0), BuildingBlock: XIVTED_clean_linker_0, # of connection points: 2
#     Edge 47, Type (0, 0), BuildingBlock: XIVTED_clean_linker_0, # of connection points: 2
#     Edge 48, Type (0, 0), BuildingBlock: XIVTED_clean_linker_0, # of connection points: 2
#     Edge 49, Type (0, 0), BuildingBlock: XIVTED_clean_linker_0, # of connection points: 2
#     Edge 50, Type (0, 0), BuildingBlock: XIVTED_clean_linker_0, # of connection points: 2
#     Edge 51, Type (0, 0), BuildingBlock: XIVTED_clean_linker_0, # of connection points: 2
#     Edge 52, Type (0, 0), BuildingBlock: XIVTED_clean_linker_0, # of connection points: 2
#     Edge 53, Type (0, 0), BuildingBlock: XIVTED_clean_linker_0, # of connection points: 2
#     Edge 54, Type (0, 0), BuildingBlock: XIVTED_clean_linker_0, # of connection points: 2
#     Edge 55, Type (0, 0), BuildingBlock: XIVTED_clean_linker_0, # of connection points: 2
#     Edge 56, Type (0, 0), BuildingBlock: XIVTED_clean_linker_0, # of connection points: 2
#     Edge 57, Type (0, 0), BuildingBlock: XIVTED_clean_linker_0, # of connection points: 2
#     Edge 58, Type (0, 0), BuildingBlock: XIVTED_clean_linker_0, # of connection points: 2
#     Edge 59, Type (0, 0), BuildingBlock: XIVTED_clean_linker_0, # of connection points: 2
#     Edge 60, Type (0, 0), BuildingBlock: XIVTED_clean_linker_0, # of connection points: 2
#     Edge 61, Type (0, 0), BuildingBlock: XIVTED_clean_linker_0, # of connection points: 2
#     Edge 62, Type (0, 0), BuildingBlock: XIVTED_clean_linker_0, # of connection points: 2
#     Edge 63, Type (0, 0), BuildingBlock: XIVTED_clean_linker_0, # of connection points: 2
#     Edge 64, Type (0, 0), BuildingBlock: XIVTED_clean_linker_0, # of connection points: 2
#     Edge 65, Type (0, 0), BuildingBlock: XIVTED_clean_linker_0, # of connection points: 2
#     Edge 66, Type (0, 0), BuildingBlock: XIVTED_clean_linker_0, # of connection points: 2
#     Edge 67, Type (0, 0), BuildingBlock: XIVTED_clean_linker_0, # of connection points: 2
#     Edge 68, Type (0, 0), BuildingBlock: XIVTED_clean_linker_0, # of connection points: 2
#     Edge 69, Type (0, 0), BuildingBlock: XIVTED_clean_linker_0, # of connection points: 2
#     Edge 70, Type (0, 0), BuildingBlock: XIVTED_clean_linker_0, # of connection points: 2
#     Edge 71, Type (0, 0), BuildingBlock: XIVTED_clean_linker_0, # of connection points: 2
#     Edge 72, Type (0, 0), BuildingBlock: XIVTED_clean_linker_0, # of connection points: 2
#     Edge 73, Type (0, 0), BuildingBlock: XIVTED_clean_linker_0, # of connection points: 2
#     Edge 74, Type (0, 0), BuildingBlock: XIVTED_clean_linker_0, # of connection points: 2
#     Edge 75, Type (0, 0), BuildingBlock: XIVTED_clean_linker_0, # of connection points: 2
#     Edge 76, Type (0, 0), BuildingBlock: XIVTED_clean_linker_0, # of connection points: 2
#     Edge 77, Type (0, 0), BuildingBlock: XIVTED_clean_linker_0, # of connection points: 2
#     Edge 78, Type (0, 0), BuildingBlock: XIVTED_clean_linker_0, # of connection points: 2
#     Edge 79, Type (0, 0), BuildingBlock: XIVTED_clean_linker_0, # of connection points: 2
#     Edge 80, Type (0, 0), BuildingBlock: XIVTED_clean_linker_0, # of connection points: 2
#     Edge 81, Type (0, 0), BuildingBlock: XIVTED_clean_linker_0, # of connection points: 2
#     Edge 82, Type (0, 0), BuildingBlock: XIVTED_clean_linker_0, # of connection points: 2
#     Edge 83, Type (0, 0), BuildingBlock: XIVTED_clean_linker_0, # of connection points: 2
#     Edge 84, Type (0, 0), BuildingBlock: XIVTED_clean_linker_0, # of connection points: 2
#     Edge 85, Type (0, 0), BuildingBlock: XIVTED_clean_linker_0, # of connection points: 2
#     Edge 86, Type (0, 0), BuildingBlock: XIVTED_clean_linker_0, # of connection points: 2
#     Edge 87, Type (0, 0), BuildingBlock: XIVTED_clean_linker_0, # of connection points: 2
#     Edge 88, Type (0, 0), BuildingBlock: XIVTED_clean_linker_0, # of connection points: 2
#     Edge 89, Type (0, 0), BuildingBlock: XIVTED_clean_linker_0, # of connection points: 2
#     Edge 90, Type (0, 0), BuildingBlock: XIVTED_clean_linker_0, # of connection points: 2
#     Edge 91, Type (0, 0), BuildingBlock: XIVTED_clean_linker_0, # of connection points: 2
#     Edge 92, Type (0, 0), BuildingBlock: XIVTED_clean_linker_0, # of connection points: 2
#     Edge 93, Type (0, 0), BuildingBlock: XIVTED_clean_linker_0, # of connection points: 2
#     Edge 94, Type (0, 0), BuildingBlock: XIVTED_clean_linker_0, # of connection points: 2
#     Edge 95, Type (0, 0), BuildingBlock: XIVTED_clean_linker_0, # of connection points: 2
#     Edge 96, Type (0, 0), BuildingBlock: XIVTED_clean_linker_0, # of connection points: 2
#     Edge 97, Type (0, 0), BuildingBlock: XIVTED_clean_linker_0, # of connection points: 2
#     Edge 98, Type (0, 0), BuildingBlock: XIVTED_clean_linker_0, # of connection points: 2
#     Edge 99, Type (0, 0), BuildingBlock: XIVTED_clean_linker_0, # of connection points: 2
#     Edge 100, Type (0, 0), BuildingBlock: XIVTED_clean_linker_0, # of connection points: 2
#     Edge 101, Type (0, 0), BuildingBlock: XIVTED_clean_linker_0, # of connection points: 2
#     Edge 102, Type (0, 0), BuildingBlock: XIVTED_clean_linker_0, # of connection points: 2
#     Edge 103, Type (0, 0), BuildingBlock: XIVTED_clean_linker_0, # of connection points: 2
#     Edge 104, Type (0, 0), BuildingBlock: XIVTED_clean_linker_0, # of connection points: 2
#     Edge 105, Type (0, 0), BuildingBlock: XIVTED_clean_linker_0, # of connection points: 2
#     Edge 106, Type (0, 0), BuildingBlock: XIVTED_clean_linker_0, # of connection points: 2
#     Edge 107, Type (0, 0), BuildingBlock: XIVTED_clean_linker_0, # of connection points: 2
#     Edge 108, Type (0, 0), BuildingBlock: XIVTED_clean_linker_0, # of connection points: 2
#     Edge 109, Type (0, 0), BuildingBlock: XIVTED_clean_linker_0, # of connection points: 2
#     Edge 110, Type (0, 0), BuildingBlock: XIVTED_clean_linker_0, # of connection points: 2
#     Edge 111, Type (0, 0), BuildingBlock: XIVTED_clean_linker_0, # of connection points: 2
# Relax obj value: 0.172
# Max RMSD: 0.141
# Mean RMSD: 0.138
data_MOF--net-wgn--node1-BEQFEK_clean_sbu_0--edge1-XIVTED_clean_linker_0
_symmetry_space_group_name_H-M    P1
_symmetry_Int_Tables_number       1
_symmetry_cell_setting            triclinic
loop_
_symmetry_equiv_pos_as_xyz
'x, y, z'
_cell_length_a     30.939856
_cell_length_b     30.921852
_cell_length_c     148.73643
_cell_angle_alpha  89.940927
_cell_angle_beta   89.981123
_cell_angle_gamma 89.996316
loop_
_atom_site_label
_atom_site_type_symbol
_atom_site_fract_x
_atom_site_fract_y
_atom_site_fract_z
_atom_type_partial_charge
Co0 Co 0.29814 0.12037 0.32895 0.0
Co1 Co 0.30163 0.11508 0.30756 0.0
C2 C 0.25243 0.18494 0.3176 0.0
O3 O 0.25888 0.16981 0.32549 0.0
O4 O 0.26732 0.16592 0.3107 0.0
C5 C 0.27414 0.10483 0.34832 0.0
O6 O 0.23338 0.10077 0.34599 0.0
C7 C 0.28138 0.12878 0.28825 0.0
C8 C 0.34017 0.10089 0.2822 0.0
C9 C 0.30434 0.12605 0.28018 0.0
N10 N 0.30363 0.1076 0.2947 0.0
N11 N 0.33803 0.08998 0.29094 0.0
C12 C 0.24076 0.15369 0.28998 0.0
H13 H 0.23024 0.1506 0.29704 0.0
H14 H 0.21429 0.14026 0.28582 0.0
H15 H 0.24537 0.18818 0.28815 0.0
C16 C 0.28392 0.02591 0.32617 0.0
N17 N 0.28602 0.06672 0.32297 0.0
N18 N 0.28515 0.06534 0.31411 0.0
C19 C 0.28094 0.02403 0.31142 0.0
C20 C 0.28055 -0.00255 0.31895 0.0
C21 C 0.2924 0.01416 0.33578 0.0
H22 H 0.31845 0.03487 0.33852 0.0
H23 H 0.2626 0.01958 0.33976 0.0
H24 H 0.30237 0.97991 0.33652 0.0
O25 O 0.35661 0.13929 0.32557 0.0
O26 O 0.36085 0.13107 0.31079 0.0
H27 H 0.31203 0.00853 0.29901 0.0
H28 H 0.26307 0.97836 0.30109 0.0
C29 C 0.27879 0.01044 0.30177 0.0
H30 H 0.26039 0.03464 0.29782 0.0
H31 H 0.36207 0.07365 0.2945 0.0
O32 O 0.30238 0.11299 0.34233 0.0
C33 C 0.37775 0.14156 0.31826 0.0
Co34 Co 0.11286 0.03044 0.58052 0.0
Co35 Co 0.10548 0.01644 0.55942 0.0
C36 C 0.04843 0.96914 0.57164 0.0
O37 O 0.06334 0.98962 0.57843 0.0
O38 O 0.06634 0.97183 0.56396 0.0
C39 C 0.13807 0.01179 0.59964 0.0
O40 O 0.14396 0.97098 0.59752 0.0
C41 C 0.07019 0.0059 0.54135 0.0
C42 C 0.11801 0.03905 0.53277 0.0
C43 C 0.07796 0.01901 0.53254 0.0
N44 N 0.1046 0.01651 0.54645 0.0
N45 N 0.13286 0.03671 0.54127 0.0
C46 C 0.02777 0.99155 0.54518 0.0
H47 H 0.02228 0.0072 0.55179 0.0
H48 H 0.02849 0.956 0.54616 0.0
H49 H 0.00036 -5e-05 0.54071 0.0
C50 C 0.20538 0.01944 0.57607 0.0
N51 N 0.1635 0.01888 0.57362 0.0
N52 N 0.16087 0.011 0.56492 0.0
C53 C 0.20102 0.00381 0.5617 0.0
C54 C 0.23057 0.00965 0.56863 0.0
C55 C 0.22103 0.03425 0.58508 0.0
H56 H 0.19942 0.05978 0.58775 0.0
H57 H 0.2209 0.00646 0.5898 0.0
H58 H 0.25434 0.04737 0.58469 0.0
O59 O 0.08925 0.08585 0.57686 0.0
O60 O 0.07842 0.0725 0.56241 0.0
H61 H 0.22191 0.01553 0.54821 0.0
H62 H 0.2375 0.96404 0.55263 0.0
C63 C 0.21088 0.9881 0.55242 0.0
H64 H 0.18187 0.97317 0.54934 0.0
H65 H 0.16062 0.05201 0.54363 0.0
O66 O 0.12557 0.03834 0.59364 0.0
C67 C 0.07431 0.09676 0.56925 0.0
Co68 Co 0.20958 0.84728 0.82974 0.0
Co69 Co 0.20727 0.84998 0.8084 0.0
C70 C 0.22074 0.76819 0.81964 0.0
O71 O 0.22399 0.78567 0.82737 0.0
O72 O 0.21404 0.79051 0.8126 0.0
C73 C 0.22605 0.85287 0.84982 0.0
O74 O 0.26173 0.83013 0.84908 0.0
C75 C 0.23425 0.81824 0.79071 0.0
C76 C 0.19288 0.85684 0.78169 0.0
C77 C 0.22089 0.82173 0.78177 0.0
N78 N 0.21412 0.84891 0.79559 0.0
N79 N 0.18992 0.87224 0.79012 0.0
C80 C 0.26549 0.78672 0.79472 0.0
H81 H 0.27991 0.80032 0.80093 0.0
H82 H 0.29163 0.77904 0.78986 0.0
H83 H 0.24816 0.75651 0.79652 0.0
C84 C 0.26686 0.92154 0.82646 0.0
N85 N 0.24633 0.88619 0.82341 0.0
N86 N 0.24429 0.88813 0.81457 0.0
C87 C 0.26237 0.9252 0.81173 0.0
C88 C 0.27682 0.94812 0.81921 0.0
C89 C 0.27194 0.93214 0.83621 0.0
H90 H 0.28532 0.90369 0.83979 0.0
H91 H 0.29389 0.96013 0.8372 0.0
H92 H 0.23984 0.9397 0.83915 0.0
O93 O 0.1494 0.85501 0.82555 0.0
O94 O 0.14734 0.86498 0.8108 0.0
H95 H 0.22156 0.94537 0.80094 0.0
H96 H 0.27264 0.97329 0.80121 0.0
C97 C 0.25659 0.9418 0.80234 0.0
H98 H 0.26975 0.91779 0.79753 0.0
H99 H 0.16926 0.89691 0.79223 0.0
O100 O 0.20399 0.86163 0.84283 0.0
C101 C 0.12842 0.86265 0.81836 0.0
Co102 Co 0.38491 0.95857 0.08188 0.0
Co103 Co 0.39271 0.96452 0.06044 0.0
C104 C 0.46082 -0.00053 0.07311 0.0
O105 O 0.44179 0.9881 0.08036 0.0
O106 O 0.44389 0.99329 0.06543 0.0
C107 C 0.37079 0.97368 0.10173 0.0
O108 O 0.38583 0.01324 0.10096 0.0
C109 C 0.42766 0.98016 0.04216 0.0
C110 C 0.38043 0.94548 0.03371 0.0
C111 C 0.41955 0.96718 0.03336 0.0
N112 N 0.39437 0.96745 0.04742 0.0
N113 N 0.3664 0.94663 0.04228 0.0
C114 C 0.4695 -0.00314 0.04583 0.0
H115 H 0.48175 0.97409 0.051 0.0
H116 H 0.46373 0.02862 0.04907 0.0
H117 H 0.49477 0.00032 0.04061 0.0
C118 C 0.2997 -0.00411 0.07761 0.0
N119 N 0.33952 0.98399 0.07496 0.0
N120 N 0.34179 0.98614 0.06611 0.0
C121 C 0.30341 -3e-05 0.0629 0.0
C122 C 0.2752 0.00582 0.07008 0.0
C123 C 0.28492 -0.00407 0.08719 0.0
H124 H 0.30816 0.01468 0.0913 0.0
H125 H 0.25242 0.01066 0.08793 0.0
H126 H 0.28424 0.96224 0.08976 0.0
O127 O 0.39472 0.89915 0.07786 0.0
O128 O 0.39981 0.90274 0.06303 0.0
H129 H 0.28131 0.97019 0.05081 0.0
H130 H 0.26643 0.02594 0.05176 0.0
C131 C 0.29255 0.00239 0.05311 0.0
H132 H 0.32142 0.01209 0.0492 0.0
H133 H 0.33927 0.93039 0.04471 0.0
O134 O 0.36837 0.94967 0.0948 0.0
C135 C 0.40053 0.88114 0.07029 0.0
Co136 Co 0.26125 0.8559 0.18052 0.0
Co137 Co 0.25785 0.84924 0.20197 0.0
C138 C 0.23011 0.77661 0.18966 0.0
O139 O 0.23873 0.79626 0.18233 0.0
O140 O 0.235 0.79462 0.19728 0.0
C141 C 0.28396 0.85045 0.16175 0.0
O142 O 0.30091 0.81335 0.16423 0.0
C143 C 0.24205 0.81629 0.22043 0.0
C144 C 0.27956 0.86287 0.22851 0.0
C145 C 0.25656 0.82456 0.22913 0.0
N146 N 0.25557 0.84853 0.21498 0.0
N147 N 0.27779 0.87629 0.21991 0.0
C148 C 0.22263 0.77513 0.21702 0.0
H149 H 0.19381 0.78286 0.21289 0.0
H150 H 0.21334 0.75269 0.22248 0.0
H151 H 0.24656 0.75845 0.21269 0.0
C152 C 0.21706 0.93713 0.18463 0.0
N153 N 0.23116 0.89822 0.18739 0.0
N154 N 0.23061 0.89691 0.19625 0.0
C155 C 0.21627 0.93521 0.19938 0.0
C156 C 0.20818 0.96239 0.19211 0.0
C157 C 0.21639 0.9513 0.17501 0.0
H158 H 0.20096 0.92592 0.17083 0.0
H159 H 0.19832 0.98206 0.17417 0.0
H160 H 0.25005 0.95581 0.17261 0.0
O161 O 0.32212 0.85403 0.18425 0.0
O162 O 0.3197 0.84936 0.19913 0.0
H163 H 0.25062 0.95865 0.21082 0.0
H164 H 0.19485 0.97451 0.21057 0.0
C165 C 0.2175 0.94777 0.20909 0.0
H166 H 0.20881 0.91969 0.21335 0.0
H167 H 0.29445 0.90278 0.21729 0.0
O168 O 0.26342 0.87278 0.16752 0.0
C169 C 0.34096 0.85093 0.19182 0.0
Co170 Co 0.37368 0.03772 0.43044 0.0
Co171 Co 0.38303 0.04324 0.45176 0.0
C172 C 0.44217 0.989 0.4404 0.0
O173 O 0.42446 -0.00033 0.43297 0.0
O174 O 0.42782 0.00248 0.44791 0.0
C175 C 0.3803 0.05175 0.41145 0.0
O176 O 0.4182 0.06714 0.41382 0.0
C177 C 0.40856 0.02631 0.47056 0.0
C178 C 0.38666 0.0863 0.47715 0.0
C179 C 0.41102 0.04931 0.47861 0.0
N180 N 0.38481 0.04922 0.46463 0.0
N181 N 0.37149 0.08483 0.46868 0.0
C182 C 0.42862 0.98357 0.46841 0.0
H183 H 0.40881 0.96622 0.46335 0.0
H184 H 0.43148 0.96334 0.47455 0.0
H185 H 0.46131 0.98897 0.46556 0.0
C186 C 0.28357 0.01982 0.4359 0.0
N187 N 0.32537 0.02577 0.43806 0.0
N188 N 0.32874 0.02912 0.44686 0.0
C189 C 0.2892 0.02616 0.45058 0.0
C190 C 0.25907 0.0204 0.44374 0.0
C191 C 0.26761 0.01444 0.42647 0.0
H192 H 0.2894 0.99228 0.42275 0.0
H193 H 0.23433 0.00112 0.42631 0.0
H194 H 0.26805 0.04629 0.42303 0.0
O195 O 0.39438 0.09754 0.43242 0.0
O196 O 0.40062 0.09973 0.44727 0.0
H197 H 0.28943 0.06913 0.46177 0.0
H198 H 0.24636 0.03047 0.46219 0.0
C199 C 0.28063 0.03512 0.46031 0.0
H200 H 0.3014 0.01398 0.46452 0.0
H201 H 0.3545 0.10959 0.46547 0.0
O202 O 0.35604 0.03536 0.41747 0.0
C203 C 0.40425 0.11749 0.4396 0.0
Co204 Co 0.20804 0.11272 0.68137 0.0
Co205 Co 0.19434 0.11671 0.70256 0.0
C206 C 0.25373 0.17839 0.69272 0.0
O207 O 0.24654 0.16204 0.68497 0.0
O208 O 0.2365 0.16271 0.69979 0.0
C209 C 0.19693 0.12064 0.66226 0.0
O210 O 0.17875 0.15736 0.66459 0.0
C211 C 0.20643 0.13285 0.72192 0.0
C212 C 0.14209 0.11564 0.72722 0.0
C213 C 0.18085 0.13488 0.72961 0.0
N214 N 0.18345 0.11444 0.71527 0.0
N215 N 0.1452 0.10367 0.71855 0.0
C216 C 0.25168 0.14868 0.72083 0.0
H217 H 0.26823 0.13081 0.71535 0.0
H218 H 0.26994 0.145 0.72721 0.0
H219 H 0.2507 0.18338 0.71906 0.0
C220 C 0.22183 0.02056 0.68614 0.0
N221 N 0.21632 0.0621 0.6886 0.0
N222 N 0.20977 0.06356 0.69735 0.0
C223 C 0.21007 0.02315 0.70071 0.0
C224 C 0.21758 0.99434 0.69369 0.0
C225 C 0.22998 0.00645 0.67667 0.0
H226 H 0.25394 0.02831 0.67348 0.0
H227 H 0.24237 0.97281 0.67639 0.0
H228 H 0.19942 0.00859 0.67279 0.0
O229 O 0.14782 0.13408 0.68267 0.0
O230 O 0.13968 0.1353 0.69748 0.0
H231 H 0.16335 0.02478 0.71124 0.0
H232 H 0.19703 0.9777 0.71161 0.0
C233 C 0.19668 0.01278 0.71015 0.0
H234 H 0.21824 0.02991 0.71492 0.0
H235 H 0.12014 0.09072 0.7147 0.0
O236 O 0.2141 0.09725 0.66833 0.0
C237 C 0.12501 0.14147 0.68962 0.0
Co238 Co 0.1278 0.95992 0.92986 0.0
Co239 Co 0.12035 0.95598 0.95122 0.0
C240 C 0.05888 0.0077 0.93988 0.0
O241 O 0.07619 -0.00304 0.93241 0.0
O242 O 0.07445 -0.00454 0.94738 0.0
C243 C 0.12023 0.94625 0.91074 0.0
O244 O 0.08032 0.93573 0.91283 0.0
C245 C 0.09571 0.97241 0.97011 0.0
C246 C 0.1237 0.91522 0.97681 0.0
C247 C 0.09678 0.95034 0.97829 0.0
N248 N 0.12016 0.95078 0.96411 0.0
N249 N 0.13702 0.91682 0.96821 0.0
C250 C 0.07178 0.01312 0.96795 0.0
H251 H 0.0898 0.03206 0.96284 0.0
H252 H 0.06726 0.03318 0.97406 0.0
H253 H 0.03963 0.00474 0.96514 0.0
C254 C 0.21776 0.98075 0.93489 0.0
N255 N 0.17639 0.97355 0.93724 0.0
N256 N 0.17388 0.97099 0.94607 0.0
C257 C 0.21358 0.97597 0.94962 0.0
C258 C 0.24288 0.98202 0.94262 0.0
C259 C 0.23288 0.98537 0.92538 0.0
H260 H 0.21029 0.00654 0.92162 0.0
H261 H 0.26583 -0.00057 0.92503 0.0
H262 H 0.23298 0.95309 0.92212 0.0
O263 O 0.1079 0.90032 0.93215 0.0
O264 O 0.10267 0.89899 0.94701 0.0
H265 H 0.219 0.93407 0.96094 0.0
H266 H 0.25681 0.97787 0.96118 0.0
C267 C 0.22336 0.96883 0.95937 0.0
H268 H 0.20031 0.98756 0.96354 0.0
H269 H 0.15541 0.89317 0.96499 0.0
O270 O 0.14526 0.95996 0.9169 0.0
C271 C 0.09838 0.88082 0.93942 0.0
Co272 Co 0.7114 0.85202 0.709 0.0
Co273 Co 0.68765 0.865 0.68852 0.0
C274 C 0.74112 0.79164 0.69389 0.0
O275 O 0.73891 0.8045 0.70201 0.0
O276 O 0.7233 0.81274 0.68755 0.0
C277 C 0.72343 0.80456 0.72395 0.0
O278 O 0.70427 0.77925 0.71809 0.0
C279 C 0.68565 0.87685 0.66878 0.0
C280 C 0.62617 0.91582 0.66725 0.0
C281 C 0.65951 0.89699 0.66244 0.0
N282 N 0.66848 0.88368 0.67696 0.0
N283 N 0.63277 0.90667 0.67598 0.0
C284 C 0.72756 0.85392 0.66724 0.0
H285 H 0.74921 0.85833 0.67311 0.0
H286 H 0.74374 0.86605 0.66107 0.0
H287 H 0.72118 0.81881 0.66644 0.0
C288 C 0.73408 0.94583 0.70682 0.0
N289 N 0.72279 0.90668 0.70358 0.0
N290 N 0.71595 0.91013 0.69486 0.0
C291 C 0.72444 0.95083 0.69223 0.0
C292 C 0.73567 0.97501 0.6997 0.0
C293 C 0.73974 0.95566 0.71658 0.0
H294 H 0.70743 0.9577 0.71979 0.0
H295 H 0.75785 0.92908 0.71989 0.0
H296 H 0.7569 0.98685 0.71754 0.0
O297 O 0.64889 0.84045 0.70917 0.0
O298 O 0.63421 0.84783 0.69469 0.0
H299 H 0.68158 0.97231 0.68189 0.0
H300 H 0.73311 -0.00133 0.68164 0.0
C301 C 0.71673 0.96743 0.68289 0.0
H302 H 0.72872 0.94364 0.67793 0.0
H303 H 0.61306 0.9164 0.6813 0.0
O304 O 0.73142 0.84354 0.72169 0.0
C305 C 0.62241 0.83904 0.70266 0.0
Co306 Co 0.87548 0.95842 0.46205 0.0
Co307 Co 0.87355 0.93797 0.44117 0.0
C308 C 0.94107 0.99344 0.44834 0.0
O309 O 0.92551 0.98704 0.45616 0.0
O310 O 0.92275 0.9783 0.44135 0.0
C311 C 0.89443 0.01261 0.47705 0.0
O312 O 0.90444 0.04036 0.47069 0.0
C313 C 0.86484 0.93417 0.42107 0.0
C314 C 0.83834 0.86812 0.41974 0.0
C315 C 0.85031 0.90405 0.41477 0.0
N316 N 0.86083 0.91672 0.42934 0.0
N317 N 0.84524 0.87719 0.42845 0.0
C318 C 0.88381 0.97788 0.41932 0.0
H319 H 0.90426 0.98831 0.42501 0.0
H320 H 0.85727 0.00172 0.41853 0.0
H321 H 0.90337 0.97757 0.41306 0.0
C322 C 0.78254 0.9775 0.45808 0.0
N323 N 0.82328 0.96797 0.45554 0.0
N324 N 0.82376 0.96132 0.44679 0.0
C325 C 0.78381 0.96738 0.44346 0.0
C326 C 0.75625 0.97761 0.4505 0.0
C327 C 0.76887 0.98385 0.46763 0.0
H328 H 0.76845 0.95202 0.47108 0.0
H329 H 0.79266 0.00468 0.47114 0.0
H330 H 0.7362 -0.00144 0.46802 0.0
O331 O 0.88996 0.89661 0.46236 0.0
O332 O 0.89294 0.8861 0.44765 0.0
H333 H 0.7739 0.92285 0.4327 0.0
H334 H 0.73815 0.96827 0.43229 0.0
C335 C 0.77152 0.95811 0.43391 0.0
H336 H 0.79416 0.975 0.42933 0.0
H337 H 0.83906 0.85637 0.43383 0.0
O338 O 0.87606 0.97731 0.47488 0.0
C339 C 0.89781 0.87248 0.45565 0.0
Co340 Co 0.78217 0.15935 0.20804 0.0
Co341 Co 0.81054 0.15775 0.18753 0.0
C342 C 0.74328 0.21857 0.19378 0.0
O343 O 0.74731 0.20455 0.2018 0.0
O344 O 0.76419 0.20162 0.1873 0.0
C345 C 0.72822 0.17431 0.22344 0.0
O346 O 0.69982 0.18565 0.21732 0.0
C347 C 0.81462 0.14368 0.16766 0.0
C348 C 0.88509 0.13532 0.16598 0.0
C349 C 0.84654 0.13529 0.16125 0.0
N350 N 0.83374 0.14768 0.17576 0.0
N351 N 0.87585 0.14293 0.17466 0.0
C352 C 0.76718 0.14963 0.16616 0.0
H353 H 0.75244 0.16785 0.17179 0.0
H354 H 0.75131 0.11751 0.16582 0.0
H355 H 0.76126 0.16698 0.15974 0.0
C356 C 0.77333 0.06415 0.20427 0.0
N357 N 0.78176 0.10528 0.20175 0.0
N358 N 0.79383 0.10531 0.19324 0.0
C359 C 0.79387 0.06442 0.19014 0.0
C360 C 0.78051 0.03692 0.19696 0.0
C361 C 0.75877 0.05143 0.21348 0.0
H362 H 0.73634 0.07619 0.21619 0.0
H363 H 0.74273 0.01933 0.21341 0.0
H364 H 0.78733 0.04987 0.21798 0.0
O365 O 0.84116 0.18372 0.20862 0.0
O366 O 0.8576 0.1855 0.19413 0.0
H367 H 0.84292 0.06621 0.18001 0.0
H368 H 0.81429 0.01603 0.18039 0.0
C369 C 0.81071 0.05152 0.18108 0.0
H370 H 0.78843 0.0635 0.17581 0.0
H371 H 0.89834 0.14448 0.17988 0.0
O372 O 0.76367 0.1573 0.22093 0.0
C373 C 0.86652 0.19421 0.20226 0.0
Co374 Co 0.63016 0.03197 0.96271 0.0
Co375 Co 0.63829 0.04452 0.94167 0.0
C376 C 0.5623 0.00284 0.94868 0.0
O377 O 0.57772 0.00957 0.9565 0.0
O378 O 0.5835 0.01259 0.94163 0.0
C379 C 0.60288 0.98114 0.97771 0.0
O380 O 0.5924 0.95377 0.97132 0.0
C381 C 0.64255 0.05215 0.92165 0.0
C382 C 0.69845 0.09627 0.92036 0.0
C383 C 0.668 0.07391 0.91539 0.0
N384 N 0.6576 0.06122 0.92993 0.0
N385 N 0.69075 0.08787 0.92908 0.0
C386 C 0.60564 0.02219 0.91984 0.0
H387 H 0.60618 0.99497 0.9247 0.0
H388 H 0.60701 0.00936 0.91288 0.0
H389 H 0.57483 0.04002 0.92076 0.0
C390 C 0.72127 0.00273 0.95983 0.0
N391 N 0.68155 0.01343 0.95684 0.0
N392 N 0.68212 0.01401 0.94799 0.0
C393 C 0.7211 0.0008 0.94509 0.0
C394 C 0.7478 0.99455 0.95246 0.0
C395 C 0.73451 0.00478 0.96948 0.0
H396 H 0.70931 0.98952 0.97374 0.0
H397 H 0.76605 0.98846 0.97056 0.0
H398 H 0.73726 0.03917 0.97153 0.0
O399 O 0.62529 0.09492 0.9623 0.0
O400 O 0.62625 0.10068 0.94746 0.0
H401 H 0.75216 0.02858 0.93358 0.0
H402 H 0.7557 0.97088 0.93416 0.0
C403 C 0.73414 -0.00118 0.9354 0.0
H404 H 0.70543 0.99508 0.93103 0.0
H405 H 0.70815 0.1004 0.93449 0.0
O406 O 0.62392 0.01508 0.97563 0.0
C407 C 0.62236 0.1176 0.95521 0.0
Co408 Co 0.71495 0.16119 0.80298 0.0
Co409 Co 0.68136 0.15974 0.82319 0.0
C410 C 0.75054 0.22034 0.81756 0.0
O411 O 0.74881 0.2065 0.80949 0.0
O412 O 0.72789 0.20316 0.82376 0.0
C413 C 0.76943 0.17828 0.78763 0.0
O414 O 0.79603 0.19303 0.79379 0.0
C415 C 0.67669 0.14352 0.84293 0.0
C416 C 0.60599 0.13881 0.84477 0.0
C417 C 0.6448 0.13564 0.84938 0.0
N418 N 0.65733 0.15005 0.83493 0.0
N419 N 0.61509 0.14756 0.83612 0.0
C420 C 0.72451 0.14655 0.84431 0.0
H421 H 0.73981 0.1652 0.83881 0.0
H422 H 0.73868 0.1136 0.84429 0.0
H423 H 0.73185 0.16209 0.85086 0.0
C424 C 0.72132 0.06551 0.8069 0.0
N425 N 0.71319 0.10688 0.80931 0.0
N426 N 0.69853 0.10706 0.81765 0.0
C427 C 0.69632 0.06611 0.82071 0.0
C428 C 0.71121 0.03834 0.81409 0.0
C429 C 0.73784 0.05241 0.79786 0.0
H430 H 0.71021 0.05011 0.79313 0.0
H431 H 0.76051 0.07724 0.79525 0.0
H432 H 0.75416 0.02047 0.79819 0.0
O433 O 0.65632 0.18616 0.80195 0.0
O434 O 0.63569 0.18798 0.81623 0.0
H435 H 0.6443 0.07061 0.83016 0.0
H436 H 0.66849 0.01817 0.82972 0.0
C437 C 0.67538 0.0533 0.8294 0.0
H438 H 0.69688 0.06206 0.83506 0.0
H439 H 0.59241 0.15124 0.83099 0.0
O440 O 0.73513 0.1589 0.79014 0.0
C441 C 0.6293 0.19684 0.808 0.0
Co442 Co 0.61616 0.9638 0.54859 0.0
Co443 Co 0.62482 0.93937 0.5692 0.0
C444 C 0.55048 0.98925 0.56319 0.0
O445 O 0.56475 0.98703 0.55517 0.0
O446 O 0.57164 0.97345 0.56975 0.0
C447 C 0.59025 0.02113 0.53465 0.0
O448 O 0.58026 0.0455 0.54157 0.0
C449 C 0.63533 0.93194 0.58916 0.0
C450 C 0.67277 0.87113 0.58981 0.0
C451 C 0.65506 0.90329 0.59513 0.0
N452 N 0.64193 0.91752 0.58073 0.0
N453 N 0.66409 0.88105 0.58121 0.0
C454 C 0.60912 0.97115 0.59141 0.0
H455 H 0.58538 0.9781 0.58605 0.0
H456 H 0.63097 -0.00055 0.59202 0.0
H457 H 0.59173 0.96665 0.59787 0.0
C458 C 0.70933 0.98649 0.55189 0.0
N459 N 0.66918 0.97606 0.55472 0.0
N460 N 0.67041 0.96953 0.56347 0.0
C461 C 0.71044 0.97771 0.56653 0.0
C462 C 0.73676 0.98799 0.55931 0.0
C463 C 0.72187 0.99056 0.54223 0.0
H464 H 0.72262 0.95788 0.53916 0.0
H465 H 0.6973 0.00996 0.53858 0.0
H466 H 0.75421 0.00574 0.54152 0.0
O467 O 0.60685 0.901 0.54779 0.0
O468 O 0.61048 0.88695 0.56238 0.0
H469 H 0.7304 0.93494 0.57704 0.0
H470 H 0.75475 0.98745 0.57767 0.0
C471 C 0.72455 0.96998 0.57603 0.0
H472 H 0.69901 0.98093 0.58072 0.0
H473 H 0.67343 0.86292 0.57562 0.0
O474 O 0.61129 0.98635 0.53601 0.0
C475 C 0.6044 0.87463 0.55433 0.0
Co476 Co 0.77645 0.86677 0.30081 0.0
Co477 Co 0.79973 0.87706 0.32142 0.0
C478 C 0.75024 0.8024 0.31562 0.0
O479 O 0.75291 0.81632 0.30757 0.0
O480 O 0.76586 0.82367 0.32217 0.0
C481 C 0.72124 0.83905 0.28662 0.0
O482 O 0.69723 0.8265 0.29342 0.0
C483 C 0.80578 0.8858 0.34127 0.0
C484 C 0.8618 0.92985 0.3424 0.0
C485 C 0.83165 0.90742 0.34745 0.0
N486 N 0.82006 0.89526 0.33295 0.0
N487 N 0.85374 0.92131 0.3337 0.0
C488 C 0.7666 0.85892 0.34313 0.0
H489 H 0.74288 0.86251 0.33759 0.0
H490 H 0.75134 0.86834 0.34959 0.0
H491 H 0.77625 0.8244 0.34352 0.0
C492 C 0.75231 0.95931 0.30366 0.0
N493 N 0.76341 0.91975 0.30669 0.0
N494 N 0.76929 0.92184 0.31546 0.0
C495 C 0.75988 0.96195 0.31832 0.0
C496 C 0.74969 0.98737 0.31094 0.0
C497 C 0.74854 0.9707 0.29392 0.0
H498 H 0.78109 0.96941 0.29079 0.0
H499 H 0.72794 0.9465 0.29047 0.0
H500 H 0.73474 0.00355 0.29301 0.0
O501 O 0.8392 0.85762 0.30024 0.0
O502 O 0.85283 0.86228 0.31483 0.0
H503 H 0.80043 0.9864 0.32878 0.0
H504 H 0.74584 0.00558 0.32935 0.0
C505 C 0.76616 0.9771 0.32779 0.0
H506 H 0.75753 0.95096 0.33256 0.0
H507 H 0.87102 0.93357 0.32823 0.0
O508 O 0.75483 0.86159 0.28818 0.0
C509 C 0.86536 0.85556 0.30681 0.0
Co510 Co 0.88365 0.02905 0.04826 0.0
Co511 Co 0.87211 0.05142 0.06884 0.0
C512 C 0.95496 0.02145 0.06276 0.0
O513 O 0.93941 0.02117 0.05482 0.0
O514 O 0.93162 0.03026 0.06955 0.0
C515 C 0.92134 0.97522 0.03495 0.0
O516 O 0.93677 0.95598 0.04214 0.0
C517 C 0.86481 0.06277 0.08866 0.0
C518 C 0.80767 0.10557 0.08936 0.0
C519 C 0.83802 0.08467 0.09464 0.0
N520 N 0.85071 0.07045 0.08025 0.0
N521 N 0.81676 0.09629 0.08074 0.0
C522 C 0.90151 0.0331 0.09085 0.0
H523 H 0.9033 0.00667 0.08583 0.0
H524 H 0.89777 0.01913 0.09769 0.0
H525 H 0.93222 0.05158 0.09057 0.0
C526 C 0.79804 0.98813 0.05202 0.0
N527 N 0.83606 0.00501 0.05471 0.0
N528 N 0.83496 0.01009 0.0635 0.0
C529 C 0.79778 0.99384 0.06671 0.0
C530 C 0.77221 0.98081 0.05956 0.0
C531 C 0.78447 0.98531 0.0424 0.0
H532 H 0.77832 0.01841 0.0398 0.0
H533 H 0.81097 0.97106 0.03834 0.0
H534 H 0.75467 0.96562 0.04167 0.0
O535 O 0.87647 0.09148 0.04695 0.0
O536 O 0.87324 0.10504 0.06156 0.0
H537 H 0.76502 0.02715 0.07733 0.0
H538 H 0.76326 0.96937 0.07825 0.0
C539 C 0.78399 -0.0029 0.07634 0.0
H540 H 0.81256 -0.00298 0.08082 0.0
H541 H 0.79962 0.10741 0.07515 0.0
O542 O 0.89345 0.00511 0.03594 0.0
C543 C 0.87421 0.11802 0.05344 0.0
Co544 Co 0.79332 0.65904 0.83314 0.0
Co545 Co 0.78427 0.66149 0.81185 0.0
C546 C 0.73299 0.72097 0.8234 0.0
O547 O 0.74944 0.70578 0.83064 0.0
O548 O 0.74138 0.70431 0.81577 0.0
C549 C 0.77703 0.63207 0.85225 0.0
O550 O 0.73743 0.62108 0.85004 0.0
C551 C 0.76377 0.68013 0.79283 0.0
C552 C 0.81392 0.64203 0.78585 0.0
C553 C 0.78137 0.67197 0.78441 0.0
N554 N 0.78529 0.65648 0.79898 0.0
N555 N 0.81518 0.63376 0.79474 0.0
C556 C 0.72725 0.70993 0.79504 0.0
H557 H 0.7063 0.69491 0.80023 0.0
H558 H 0.70746 0.71725 0.78901 0.0
H559 H 0.74053 0.74051 0.79779 0.0
C560 C 0.78811 0.5646 0.82928 0.0
N561 N 0.78519 0.60627 0.82664 0.0
N562 N 0.77864 0.60744 0.81789 0.0
C563 C 0.77501 0.5666 0.81479 0.0
C564 C 0.78139 0.53799 0.82188 0.0
C565 C 0.80337 0.55062 0.83838 0.0
H566 H 0.82679 0.57435 0.84109 0.0
H567 H 0.77528 0.54841 0.84299 0.0
H568 H 0.81929 0.5185 0.8381 0.0
O569 O 0.84746 0.68578 0.82944 0.0
O570 O 0.8402 0.6889 0.81463 0.0
H571 H 0.79465 0.55059 0.80142 0.0
H572 H 0.7457 0.52453 0.805 0.0
C573 C 0.76432 0.55519 0.80527 0.0
H574 H 0.74521 0.5814 0.80209 0.0
H575 H 0.83789 0.61419 0.79796 0.0
O576 O 0.80191 0.64829 0.84633 0.0
C577 C 0.86121 0.69726 0.82176 0.0
Co578 Co 0.59177 0.52978 0.08193 0.0
Co579 Co 0.59223 0.52713 0.06055 0.0
C580 C 0.52612 0.47884 0.0713 0.0
O581 O 0.54163 0.49158 0.07881 0.0
O582 O 0.54422 0.48846 0.06388 0.0
C583 C 0.58317 0.55461 0.10053 0.0
O584 O 0.54989 0.57653 0.09748 0.0
C585 C 0.57549 0.50857 0.04139 0.0
C586 C 0.61294 0.5604 0.03479 0.0
C587 C 0.58362 0.52757 0.03309 0.0
N588 N 0.5984 0.52967 0.04772 0.0
N589 N 0.62084 0.5605 0.04369 0.0
C590 C 0.54637 0.47113 0.04332 0.0
H591 H 0.56018 0.45107 0.0488 0.0
H592 H 0.54187 0.45074 0.03726 0.0
H593 H 0.51445 0.48356 0.04553 0.0
C594 C 0.68456 0.51655 0.07874 0.0
N595 N 0.64371 0.51707 0.07562 0.0
N596 N 0.64433 0.51453 0.06678 0.0
C597 C 0.68573 0.51106 0.06402 0.0
C598 C 0.71269 0.51266 0.0715 0.0
C599 C 0.69615 0.52708 0.08827 0.0
H600 H 0.67817 0.55631 0.09043 0.0
H601 H 0.6864 0.49978 0.09267 0.0
H602 H 0.73111 0.53341 0.08915 0.0
O603 O 0.57277 0.58824 0.07874 0.0
O604 O 0.57226 0.58541 0.06383 0.0
H605 H 0.70302 0.54068 0.05156 0.0
H606 H 0.73093 0.49084 0.05384 0.0
C607 C 0.69938 0.50773 0.0544 0.0
H608 H 0.67465 0.49003 0.05046 0.0
H609 H 0.63984 0.58308 0.04708 0.0
O610 O 0.60384 0.53012 0.09517 0.0
C611 C 0.56546 0.60558 0.07114 0.0
Co612 Co 0.70803 0.36448 0.33015 0.0
Co613 Co 0.7183 0.35882 0.30887 0.0
C614 C 0.76642 0.29976 0.32101 0.0
O615 O 0.74884 0.31554 0.32805 0.0
O616 O 0.76001 0.31614 0.31328 0.0
C617 C 0.72672 0.38655 0.34941 0.0
O618 O 0.76799 0.39022 0.34748 0.0
C619 C 0.73046 0.32717 0.2904 0.0
C620 C 0.69619 0.37631 0.28234 0.0
C621 C 0.71725 0.33689 0.28168 0.0
N622 N 0.71877 0.3599 0.29588 0.0
N623 N 0.69798 0.38896 0.291 0.0
C624 C 0.74633 0.28434 0.29376 0.0
H625 H 0.72944 0.27573 0.30009 0.0
H626 H 0.78145 0.28672 0.29516 0.0
H627 H 0.7407 0.2581 0.28883 0.0
C628 C 0.7226 0.45659 0.32611 0.0
N629 N 0.72093 0.41509 0.32343 0.0
N630 N 0.72739 0.4132 0.31466 0.0
C631 C 0.73572 0.45346 0.31162 0.0
C632 C 0.73234 0.48225 0.31874 0.0
C633 C 0.70946 0.47173 0.33527 0.0
H634 H 0.68263 0.45152 0.33786 0.0
H635 H 0.73743 0.46885 0.3399 0.0
H636 H 0.69861 0.50591 0.33518 0.0
O637 O 0.65206 0.34251 0.32646 0.0
O638 O 0.66037 0.33545 0.31174 0.0
H639 H 0.72107 0.47564 0.29834 0.0
H640 H 0.77356 0.49069 0.30229 0.0
C641 C 0.74938 0.46416 0.30223 0.0
H642 H 0.76346 0.43536 0.29889 0.0
H643 H 0.6821 0.41579 0.29365 0.0
O644 O 0.70006 0.37641 0.34326 0.0
C645 C 0.6379 0.33088 0.31884 0.0
Co646 Co 0.87413 0.43424 0.57789 0.0
Co647 Co 0.86837 0.43293 0.55647 0.0
C648 C 0.94397 0.471 0.56697 0.0
O649 O 0.92781 0.46762 0.57484 0.0
O650 O 0.92343 0.45835 0.56007 0.0
C651 C 0.86318 0.45531 0.59753 0.0
O652 O 0.8662 0.49671 0.59565 0.0
C653 C 0.88904 0.45992 0.53792 0.0
C654 C 0.85636 0.4085 0.53022 0.0
C655 C 0.88583 0.44202 0.52935 0.0
N656 N 0.86342 0.43731 0.54357 0.0
N657 N 0.8431 0.40743 0.53884 0.0
C658 C 0.92074 0.49339 0.54097 0.0
H659 H 0.91005 0.50804 0.54739 0.0
H660 H 0.92406 0.51961 0.53596 0.0
H661 H 0.95289 0.47814 0.54185 0.0
C662 C 0.78312 0.4611 0.57535 0.0
N663 N 0.82309 0.45456 0.57201 0.0
N664 N 0.82118 0.45532 0.56315 0.0
C665 C 0.78023 0.46334 0.5606 0.0
C666 C 0.75461 0.46691 0.56823 0.0
C667 C 0.77136 0.4535 0.585 0.0
H668 H 0.78681 0.4233 0.5874 0.0
H669 H 0.78342 0.48084 0.5891 0.0
H670 H 0.73603 0.45044 0.58601 0.0
O671 O 0.88491 0.3746 0.5739 0.0
O672 O 0.87495 0.37126 0.55913 0.0
H673 H 0.7624 0.43035 0.54855 0.0
H674 H 0.73384 0.48058 0.55035 0.0
C675 C 0.76553 0.46406 0.55102 0.0
H676 H 0.78982 0.4809 0.54679 0.0
H677 H 0.82319 0.38374 0.54165 0.0
O678 O 0.86612 0.42766 0.59123 0.0
C679 C 0.88359 0.3532 0.5666 0.0
Co680 Co 0.78416 0.35541 0.67905 0.0
Co681 Co 0.7833 0.34878 0.70048 0.0
C682 C 0.73169 0.28887 0.68929 0.0
O683 O 0.74639 0.3046 0.68195 0.0
O684 O 0.74049 0.30576 0.69686 0.0
C685 C 0.79935 0.34646 0.66004 0.0
O686 O 0.81578 0.30919 0.66256 0.0
C687 C 0.77597 0.3178 0.71928 0.0
C688 C 0.81501 0.36566 0.72668 0.0
C689 C 0.79188 0.32764 0.7278 0.0
N690 N 0.78819 0.3492 0.71349 0.0
N691 N 0.81187 0.37742 0.71798 0.0
C692 C 0.75612 0.27594 0.71636 0.0
H693 H 0.77119 0.26507 0.70999 0.0
H694 H 0.72108 0.28094 0.71518 0.0
H695 H 0.76055 0.25007 0.72144 0.0
C696 C 0.77008 0.44666 0.68355 0.0
N697 N 0.773 0.40514 0.68619 0.0
N698 N 0.7708 0.4031 0.69503 0.0
C699 C 0.76438 0.44335 0.69826 0.0
C700 C 0.76434 0.47233 0.6911 0.0
C701 C 0.77871 0.46142 0.67412 0.0
H702 H 0.80722 0.44402 0.67142 0.0
H703 H 0.75041 0.45348 0.66985 0.0
H704 H 0.78518 0.49661 0.67373 0.0
O705 O 0.84285 0.33539 0.68137 0.0
O706 O 0.83993 0.32723 0.69619 0.0
H707 H 0.78747 0.4639 0.71111 0.0
H708 H 0.73372 0.48145 0.70852 0.0
C709 C 0.75663 0.45396 0.70793 0.0
H710 H 0.74341 0.4255 0.71154 0.0
H711 H 0.82812 0.40331 0.71503 0.0
O712 O 0.7818 0.37059 0.66593 0.0
C713 C 0.85994 0.32369 0.68875 0.0
Co714 Co 0.88991 0.53764 0.93191 0.0
Co715 Co 0.8843 0.55007 0.95312 0.0
C716 C 0.95579 0.49923 0.94401 0.0
O717 O 0.94097 0.50223 0.93601 0.0
O718 O 0.93583 0.51572 0.95064 0.0
C719 C 0.89932 0.55714 0.91304 0.0
O720 O 0.93165 0.58087 0.91594 0.0
C721 C 0.89798 0.53094 0.97228 0.0
C722 C 0.86968 0.58858 0.97873 0.0
C723 C 0.89396 0.55187 0.98051 0.0
N724 N 0.87802 0.55473 0.96593 0.0
N725 N 0.86072 0.58889 0.96987 0.0
C726 C 0.9193 0.48839 0.97051 0.0
H727 H 0.90429 0.47243 0.96461 0.0
H728 H 0.91667 0.46698 0.97648 0.0
H729 H 0.954 0.49368 0.96907 0.0
C730 C 0.7972 0.52024 0.93488 0.0
N731 N 0.83739 0.52548 0.93819 0.0
N732 N 0.83509 0.52954 0.94699 0.0
C733 C 0.79352 0.52623 0.94958 0.0
C734 C 0.76794 0.5206 0.94198 0.0
C735 C 0.78692 0.52283 0.92505 0.0
H736 H 0.80087 0.55301 0.92225 0.0
H737 H 0.80206 0.49504 0.92154 0.0
H738 H 0.75177 0.52297 0.92368 0.0
O739 O 0.9062 0.5984 0.93408 0.0
O740 O 0.89852 0.60815 0.94878 0.0
H741 H 0.77788 0.566 0.96084 0.0
H742 H 0.7458 0.51732 0.96003 0.0
C743 C 0.77859 0.53114 0.95909 0.0
H744 H 0.80152 0.51471 0.96369 0.0
H745 H 0.84476 0.61362 0.96643 0.0
O746 O 0.87923 0.5332 0.91862 0.0
C747 C 0.90806 0.62241 0.94101 0.0
Co748 Co 0.68816 0.65703 0.18013 0.0
Co749 Co 0.69535 0.65895 0.20145 0.0
C750 C 0.74672 0.71939 0.18991 0.0
O751 O 0.73137 0.70391 0.18261 0.0
O752 O 0.73702 0.70325 0.19753 0.0
C753 C 0.70651 0.63298 0.16099 0.0
O754 O 0.74689 0.62517 0.16318 0.0
C755 C 0.71564 0.67856 0.2204 0.0
C756 C 0.6625 0.64456 0.22733 0.0
C757 C 0.6958 0.67376 0.22876 0.0
N758 N 0.69429 0.65426 0.21434 0.0
N759 N 0.6629 0.63363 0.21857 0.0
C760 C 0.75423 0.70553 0.21813 0.0
H761 H 0.77349 0.68949 0.2128 0.0
H762 H 0.77504 0.71044 0.22412 0.0
H763 H 0.74325 0.73742 0.21558 0.0
C764 C 0.69727 0.56301 0.18382 0.0
N765 N 0.69781 0.60448 0.1866 0.0
N766 N 0.70299 0.60527 0.19539 0.0
C767 C 0.7077 0.56438 0.19841 0.0
C768 C 0.70402 0.53614 0.19117 0.0
C769 C 0.68422 0.54914 0.17456 0.0
H770 H 0.65933 0.57135 0.17185 0.0
H771 H 0.71291 0.54982 0.17009 0.0
H772 H 0.67076 0.51589 0.17457 0.0
O773 O 0.633 0.68187 0.18379 0.0
O774 O 0.63817 0.68369 0.19864 0.0
H775 H 0.68479 0.5485 0.21154 0.0
H776 H 0.73445 0.52197 0.20849 0.0
C777 C 0.71609 0.55273 0.20801 0.0
H778 H 0.73452 0.57885 0.21138 0.0
H779 H 0.63998 0.61425 0.21538 0.0
O780 O 0.68031 0.64647 0.16696 0.0
C781 C 0.61761 0.69163 0.19143 0.0
Co782 Co 0.61359 0.46254 0.42999 0.0
Co783 Co 0.60792 0.45913 0.45133 0.0
C784 C 0.5453 0.5104 0.44042 0.0
O785 O 0.5619 0.49917 0.43291 0.0
O786 O 0.56182 0.49879 0.44786 0.0
C787 C 0.60678 0.44697 0.41104 0.0
O788 O 0.57087 0.42757 0.41348 0.0
C789 C 0.58458 0.47543 0.47023 0.0
C790 C 0.61728 0.42146 0.47717 0.0
C791 C 0.58844 0.45511 0.47853 0.0
N792 N 0.60926 0.45425 0.46421 0.0
N793 N 0.62893 0.42217 0.46844 0.0
C794 C 0.5582 0.51459 0.46806 0.0
H795 H 0.57542 0.53488 0.46306 0.0
H796 H 0.55188 0.53416 0.47417 0.0
H797 H 0.52689 0.5042 0.46514 0.0
C798 C 0.70508 0.47658 0.43462 0.0
N799 N 0.66336 0.47411 0.43715 0.0
N800 N 0.66119 0.47409 0.44599 0.0
C801 C 0.70137 0.47786 0.44937 0.0
C802 C 0.73065 0.47912 0.44229 0.0
C803 C 0.71995 0.46928 0.42516 0.0
H804 H 0.70299 0.4408 0.42232 0.0
H805 H 0.71145 0.49791 0.42101 0.0
H806 H 0.7552 0.4634 0.42471 0.0
O807 O 0.59476 0.40284 0.43211 0.0
O808 O 0.58968 0.40177 0.44701 0.0
H809 H 0.71375 0.44521 0.46176 0.0
H810 H 0.74276 0.49536 0.46046 0.0
C811 C 0.71149 0.47883 0.4592 0.0
H812 H 0.68541 0.49575 0.46292 0.0
H813 H 0.64867 0.39945 0.46527 0.0
O814 O 0.62908 0.46647 0.41696 0.0
C815 C 0.58549 0.38342 0.4394 0.0
Co816 Co 0.22009 0.35309 0.21279 0.0
Co817 Co 0.1971 0.36588 0.19235 0.0
C818 C 0.22659 0.28248 0.19828 0.0
O819 O 0.22738 0.29759 0.20624 0.0
O820 O 0.21799 0.30633 0.19154 0.0
C821 C 0.27648 0.31821 0.22602 0.0
O822 O 0.29897 0.30685 0.21891 0.0
C823 C 0.18974 0.37651 0.17254 0.0
C824 C 0.13786 0.42556 0.17187 0.0
C825 C 0.16491 0.40069 0.16654 0.0
N826 N 0.17772 0.38691 0.18097 0.0
N827 N 0.1466 0.41606 0.18049 0.0
C828 C 0.2262 0.34637 0.17047 0.0
H829 H 0.24885 0.3446 0.17624 0.0
H830 H 0.24386 0.35714 0.16437 0.0
H831 H 0.21305 0.31349 0.16926 0.0
C832 C 0.26158 0.43821 0.20931 0.0
N833 N 0.24447 0.40062 0.20646 0.0
N834 N 0.23828 0.40303 0.19772 0.0
C835 C 0.2535 0.44101 0.19467 0.0
C836 C 0.26752 0.4654 0.20194 0.0
C837 C 0.26524 0.45028 0.21901 0.0
H838 H 0.28123 0.42374 0.22277 0.0
H839 H 0.28376 0.48076 0.21986 0.0
H840 H 0.23233 0.45447 0.22186 0.0
O841 O 0.15774 0.36051 0.2142 0.0
O842 O 0.14361 0.36426 0.19962 0.0
H843 H 0.27087 0.4821 0.18344 0.0
H844 H 0.2507 0.42978 0.18047 0.0
C845 C 0.247 0.45689 0.18525 0.0
H846 H 0.21416 0.47093 0.18461 0.0
H847 H 0.13139 0.42961 0.18609 0.0
O848 O 0.24376 0.34262 0.225 0.0
C849 C 0.13095 0.3629 0.20776 0.0
Co850 Co 0.40023 0.45686 0.95814 0.0
Co851 Co 0.38922 0.43043 0.93776 0.0
C852 C 0.45158 0.4971 0.94253 0.0
O853 O 0.44077 0.49242 0.95074 0.0
O854 O 0.43263 0.47616 0.93631 0.0
C855 C 0.44707 0.4769 0.97278 0.0
O856 O 0.47456 0.46435 0.96657 0.0
C857 C 0.3746 0.42345 0.91815 0.0
C858 C 0.34417 0.35886 0.91737 0.0
C859 C 0.3572 0.39365 0.91217 0.0
N860 N 0.3719 0.40687 0.92649 0.0
N861 N 0.35394 0.36818 0.92596 0.0
C862 C 0.39063 0.46806 0.91613 0.0
H863 H 0.38403 0.48983 0.9219 0.0
H864 H 0.37509 0.48124 0.90999 0.0
H865 H 0.42611 0.46689 0.91507 0.0
C866 C 0.30338 0.46145 0.95658 0.0
N867 N 0.3435 0.45662 0.95315 0.0
N868 N 0.34029 0.44838 0.94449 0.0
C869 C 0.29845 0.44928 0.94207 0.0
C870 C 0.27339 0.4564 0.94966 0.0
C871 C 0.29415 0.46771 0.96636 0.0
H872 H 0.32135 0.45533 0.97048 0.0
H873 H 0.29035 0.50278 0.96772 0.0
H874 H 0.26371 0.45111 0.96828 0.0
O875 O 0.42404 0.39798 0.95823 0.0
O876 O 0.41973 0.3825 0.94372 0.0
H877 H 0.27975 0.4118 0.93063 0.0
H878 H 0.2512 0.46235 0.9317 0.0
C879 C 0.283 0.44628 0.93255 0.0
H880 H 0.30653 0.46205 0.92799 0.0
H881 H 0.34798 0.3483 0.93149 0.0
O882 O 0.40691 0.47752 0.97083 0.0
C883 C 0.43158 0.37292 0.95166 0.0
Co884 Co 0.28682 0.61596 0.7115 0.0
Co885 Co 0.29781 0.61315 0.69045 0.0
C886 C 0.24103 0.67672 0.69779 0.0
O887 O 0.25297 0.66282 0.70547 0.0
O888 O 0.25304 0.65795 0.69061 0.0
C889 C 0.23465 0.63542 0.72661 0.0
O890 O 0.20597 0.64218 0.72025 0.0
C891 C 0.29838 0.60639 0.67051 0.0
C892 C 0.35976 0.57096 0.66854 0.0
C893 C 0.32518 0.58885 0.66395 0.0
N894 N 0.31643 0.59898 0.67859 0.0
N895 N 0.35322 0.57812 0.67734 0.0
C896 C 0.25534 0.6275 0.66921 0.0
H897 H 0.23382 0.61992 0.67497 0.0
H898 H 0.24 0.61669 0.66286 0.0
H899 H 0.25984 0.66308 0.66895 0.0
C900 C 0.28035 0.52025 0.70837 0.0
N901 N 0.28108 0.56176 0.70555 0.0
N902 N 0.28155 0.56228 0.6967 0.0
C903 C 0.27889 0.52157 0.69361 0.0
C904 C 0.27954 0.49319 0.70085 0.0
C905 C 0.28521 0.50713 0.71799 0.0
H906 H 0.29849 0.53423 0.72202 0.0
H907 H 0.253 0.4984 0.72073 0.0
H908 H 0.30663 0.47846 0.71857 0.0
O909 O 0.34667 0.63578 0.71083 0.0
O910 O 0.34945 0.63997 0.69597 0.0
H911 H 0.30582 0.50679 0.6807 0.0
H912 H 0.25578 0.47943 0.6831 0.0
C913 C 0.27362 0.51034 0.68387 0.0
H914 H 0.25569 0.53636 0.68035 0.0
H915 H 0.37367 0.56833 0.68254 0.0
O916 O 0.27049 0.61788 0.72452 0.0
C917 C 0.36611 0.64675 0.70366 0.0
Co918 Co 0.10854 0.52828 0.46207 0.0
Co919 Co 0.11902 0.55729 0.44181 0.0
C920 C 0.04858 0.49884 0.447 0.0
O921 O 0.06092 0.50036 0.45517 0.0
O922 O 0.06937 0.51825 0.44082 0.0
C923 C 0.08521 0.47104 0.47643 0.0
O924 O 0.0785 0.44366 0.46983 0.0
C925 C 0.13338 0.5596 0.42217 0.0
C926 C 0.15656 0.62669 0.42041 0.0
C927 C 0.14748 0.58908 0.41571 0.0
N928 N 0.13436 0.57908 0.43024 0.0
N929 N 0.14795 0.61923 0.42912 0.0
C930 C 0.12187 0.51301 0.42091 0.0
H931 H 0.12668 0.49489 0.42728 0.0
H932 H 0.14174 0.49834 0.4155 0.0
H933 H 0.08726 0.51056 0.41902 0.0
C934 C 0.20312 0.50925 0.45929 0.0
N935 N 0.16349 0.5208 0.45634 0.0
N936 N 0.16643 0.53154 0.44777 0.0
C937 C 0.20744 0.52654 0.44499 0.0
C938 C 0.23209 0.51222 0.45216 0.0
C939 C 0.21322 0.49804 0.46883 0.0
H940 H 0.21158 0.52783 0.47297 0.0
H941 H 0.18856 0.47519 0.47145 0.0
H942 H 0.24595 0.48363 0.46945 0.0
O943 O 0.09324 0.59014 0.46282 0.0
O944 O 0.09908 0.608 0.44845 0.0
H945 H 0.2178 0.57547 0.43507 0.0
H946 H 0.25866 0.53447 0.43504 0.0
C947 C 0.22363 0.54038 0.43594 0.0
H948 H 0.20579 0.52268 0.43064 0.0
H949 H 0.15165 0.64147 0.43434 0.0
O950 O 0.10338 0.50703 0.4747 0.0
C951 C 0.08998 0.61775 0.45652 0.0
Co952 Co 0.1992 0.62747 0.30154 0.0
Co953 Co 0.17838 0.61848 0.32227 0.0
C954 C 0.2424 0.68173 0.31632 0.0
O955 O 0.2355 0.67067 0.30818 0.0
O956 O 0.22399 0.66233 0.32283 0.0
C957 C 0.24923 0.64876 0.28583 0.0
O958 O 0.27893 0.65877 0.29179 0.0
C959 C 0.17734 0.60476 0.34203 0.0
C960 C 0.11151 0.57825 0.34377 0.0
C961 C 0.14852 0.58931 0.34847 0.0
N962 N 0.158 0.60277 0.33394 0.0
N963 N 0.11865 0.58708 0.33505 0.0
C964 C 0.22337 0.6182 0.34332 0.0
H965 H 0.24209 0.61293 0.33706 0.0
H966 H 0.23845 0.5998 0.34891 0.0
H967 H 0.22443 0.6532 0.34495 0.0
C968 C 0.20573 0.53076 0.30367 0.0
N969 N 0.20102 0.57125 0.30692 0.0
N970 N 0.19502 0.5689 0.31567 0.0
C971 C 0.1973 0.52738 0.31831 0.0
C972 C 0.20306 0.50144 0.3108 0.0
C973 C 0.20963 0.52049 0.29388 0.0
H974 H 0.19434 0.54627 0.28978 0.0
H975 H 0.24438 0.51876 0.29206 0.0
H976 H 0.19443 0.48884 0.29234 0.0
O977 O 0.14023 0.65084 0.30198 0.0
O978 O 0.12867 0.64756 0.31666 0.0
H979 H 0.16311 0.51077 0.33034 0.0
H980 H 0.21306 0.48147 0.32882 0.0
C981 C 0.19697 0.51326 0.32795 0.0
H982 H 0.21425 0.53729 0.33212 0.0
H983 H 0.09673 0.58214 0.32982 0.0
O984 O 0.21468 0.63043 0.28849 0.0
C985 C 0.11681 0.65858 0.3088 0.0
Co986 Co 0.08143 0.4638 0.05432 0.0
Co987 Co 0.08973 0.42863 0.07425 0.0
C988 C 0.02947 0.49937 0.07013 0.0
O989 O 0.04085 0.49791 0.06191 0.0
O990 O 0.04775 0.47569 0.076 0.0
C991 C 0.0356 0.48897 0.03984 0.0
O992 O 0.00765 0.47563 0.04589 0.0
C993 C 0.11116 0.42276 0.09353 0.0
C994 C 0.11586 0.35198 0.09536 0.0
C995 C 0.11975 0.39086 0.09992 0.0
N996 N 0.10289 0.40335 0.08563 0.0
N997 N 0.10543 0.36107 0.08679 0.0
C998 C 0.1135 0.4708 0.09461 0.0
H999 H 0.11842 0.48659 0.08798 0.0
H1000 H 0.14017 0.4798 0.09923 0.0
H1001 H 0.08254 0.48269 0.09745 0.0
C1002 C 0.17828 0.47016 0.05671 0.0
N1003 N 0.13789 0.46113 0.05963 0.0
N1004 N 0.14038 0.44592 0.06791 0.0
C1005 C 0.18211 0.44426 0.07043 0.0
C1006 C 0.20752 0.46007 0.06351 0.0
C1007 C 0.18853 0.48805 0.04762 0.0
H1008 H 0.1935 0.4608 0.04288 0.0
H1009 H 0.16122 0.50797 0.04512 0.0
H1010 H 0.21862 0.50758 0.04783 0.0
O1011 O 0.05578 0.40533 0.05343 0.0
O1012 O 0.05819 0.3841 0.06765 0.0
H1013 H 0.18125 0.39282 0.08009 0.0
H1014 H 0.23312 0.41774 0.07883 0.0
C1015 C 0.19786 0.42407 0.07899 0.0
H1016 H 0.19066 0.4459 0.0847 0.0
H1017 H 0.10052 0.33842 0.0817 0.0
O1018 O 0.07577 0.48782 0.0418 0.0
C1019 C 0.04662 0.37818 0.05955 0.0
Co1020 Co 0.27508 0.34057 0.79922 0.0
Co1021 Co 0.30335 0.35265 0.81943 0.0
C1022 C 0.27855 0.26811 0.81342 0.0
O1023 O 0.27399 0.2838 0.80556 0.0
O1024 O 0.28782 0.29184 0.8201 0.0
C1025 C 0.21678 0.30164 0.78698 0.0
O1026 O 0.20069 0.28599 0.79449 0.0
C1027 C 0.31503 0.36389 0.83925 0.0
C1028 C 0.36343 0.41649 0.83922 0.0
C1029 C 0.33939 0.39032 0.84489 0.0
N1030 N 0.32396 0.37465 0.83067 0.0
N1031 N 0.35303 0.40595 0.83074 0.0
C1032 C 0.28542 0.32782 0.84192 0.0
H1033 H 0.28288 0.30353 0.8365 0.0
H1034 H 0.25267 0.3411 0.84319 0.0
H1035 H 0.29709 0.31181 0.84815 0.0
C1036 C 0.23074 0.42331 0.80383 0.0
N1037 N 0.24984 0.38572 0.80616 0.0
N1038 N 0.25753 0.38632 0.81486 0.0
C1039 C 0.24106 0.42261 0.8184 0.0
C1040 C 0.22535 0.44832 0.81152 0.0
C1041 C 0.22656 0.43868 0.79434 0.0
H1042 H 0.22388 0.41088 0.78967 0.0
H1043 H 0.19793 0.46004 0.79363 0.0
H1044 H 0.25574 0.45768 0.79253 0.0
O1045 O 0.33609 0.35264 0.79697 0.0
O1046 O 0.35422 0.35672 0.81137 0.0
H1047 H 0.27711 0.4494 0.82937 0.0
H1048 H 0.22001 0.45967 0.82986 0.0
C1049 C 0.24484 0.43518 0.82809 0.0
H1050 H 0.24063 0.40629 0.83241 0.0
H1051 H 0.36576 0.42025 0.82495 0.0
O1052 O 0.2468 0.32968 0.78742 0.0
C1053 C 0.36442 0.35707 0.80307 0.0
Co1054 Co 0.38665 0.53411 0.55104 0.0
Co1055 Co 0.37296 0.561 0.57142 0.0
C1056 C 0.43834 0.49694 0.56693 0.0
O1057 O 0.42792 0.50106 0.5587 0.0
O1058 O 0.41839 0.51743 0.57308 0.0
C1059 C 0.43676 0.51438 0.5369 0.0
O1060 O 0.46221 0.53012 0.54316 0.0
C1061 C 0.35868 0.57095 0.59111 0.0
C1062 C 0.31697 0.62901 0.59125 0.0
C1063 C 0.33575 0.59835 0.5968 0.0
N1064 N 0.35266 0.58431 0.58258 0.0
N1065 N 0.32811 0.61928 0.58275 0.0
C1066 C 0.38845 0.53484 0.59368 0.0
H1067 H 0.4178 0.53581 0.58942 0.0
H1068 H 0.37194 0.50347 0.59253 0.0
H1069 H 0.39861 0.53714 0.60081 0.0
C1070 C 0.29035 0.52211 0.55255 0.0
N1071 N 0.32985 0.53095 0.55594 0.0
N1072 N 0.32589 0.53931 0.56459 0.0
C1073 C 0.2844 0.53442 0.56703 0.0
C1074 C 0.26013 0.52466 0.55948 0.0
C1075 C 0.28171 0.51362 0.54283 0.0
H1076 H 0.30782 0.52753 0.5386 0.0
H1077 H 0.28074 0.47816 0.54171 0.0
H1078 H 0.24998 0.52734 0.54082 0.0
O1079 O 0.40697 0.59435 0.55087 0.0
O1080 O 0.40091 0.61015 0.56534 0.0
H1081 H 0.26025 0.56873 0.57848 0.0
H1082 H 0.23974 0.51455 0.57742 0.0
C1083 C 0.26883 0.53516 0.57657 0.0
H1084 H 0.29446 0.52313 0.58114 0.0
H1085 H 0.31859 0.6363 0.57702 0.0
O1086 O 0.39629 0.51208 0.53851 0.0
C1087 C 0.41255 0.62014 0.55741 0.0
H1088 H 0.43011 0.15901 0.30383 0.0
H1089 H 0.58156 0.31516 0.33257 0.0
H1090 H 0.42163 0.17414 0.33267 0.0
H1091 H 0.6022 0.28949 0.30433 0.0
H1092 H 0.52059 0.26565 0.33244 0.0
H1093 H 0.49336 0.20616 0.30375 0.0
C1094 C 0.44191 0.17167 0.31016 0.0
C1095 C 0.42026 0.16298 0.31827 0.0
C1096 C 0.53834 0.27092 0.32626 0.0
C1097 C 0.492 0.21744 0.31817 0.0
C1098 C 0.573 0.29948 0.32631 0.0
C1099 C 0.59718 0.30632 0.31846 0.0
C1100 C 0.52768 0.24904 0.31831 0.0
C1101 C 0.58445 0.28517 0.31054 0.0
C1102 C 0.47784 0.19881 0.31009 0.0
C1103 C 0.43706 0.18019 0.32625 0.0
N1104 N 0.55061 0.25724 0.31068 0.0
N1105 N 0.47169 0.20695 0.32599 0.0
H1106 H 0.90422 0.30212 0.55216 0.0
H1107 H 0.04923 0.15015 0.58288 0.0
H1108 H 0.90181 0.30308 0.58121 0.0
H1109 H 0.0342 0.12967 0.5543 0.0
H1110 H -0.00463 0.2072 0.58216 0.0
H1111 H 0.94868 0.23691 0.55262 0.0
C1112 C 0.91217 0.2881 0.55863 0.0
C1113 C 0.90009 0.30857 0.56667 0.0
C1114 C 0.00381 0.19024 0.57604 0.0
C1115 C 0.95151 0.23479 0.56722 0.0
C1116 C 0.03498 0.15796 0.57643 0.0
C1117 C 0.04632 0.13513 0.56863 0.0
C1118 C 0.98401 0.20005 0.5678 0.0
C1119 C 0.02651 0.14655 0.56048 0.0
C1120 C 0.93783 0.25108 0.55888 0.0
C1121 C 0.91109 0.28885 0.57485 0.0
N1122 N -0.00375 0.17831 0.56027 0.0
N1123 N 0.93678 0.25342 0.57491 0.0
H1124 H 0.90747 0.73118 0.8357 0.0
H1125 H 0.07288 0.85449 0.80412 0.0
H1126 H 0.89915 0.73139 0.80669 0.0
H1127 H 0.0761 0.85912 0.83314 0.0
H1128 H 0.00171 0.82101 0.80488 0.0
H1129 H 0.96427 0.7853 0.83484 0.0
C1130 C 0.91786 0.74227 0.82913 0.0
C1131 C 0.89882 0.72634 0.82125 0.0
C1132 C 0.01761 0.83017 0.81108 0.0
C1133 C 0.96345 0.78899 0.82023 0.0
C1134 C 0.05811 0.84972 0.81065 0.0
C1135 C 0.08107 0.85818 0.81859 0.0
C1136 C 0.00031 0.81905 0.81949 0.0
C1137 C 0.06004 0.85194 0.82685 0.0
C1138 C 0.94997 0.77363 0.82865 0.0
C1139 C 0.91323 0.74244 0.81294 0.0
N1140 N 0.02121 0.83176 0.82709 0.0
N1141 N 0.94488 0.77278 0.81265 0.0
H1142 H 0.40816 0.82526 0.08445 0.0
H1143 H 0.54366 0.65267 0.05623 0.0
H1144 H 0.42858 0.8346 0.05576 0.0
H1145 H 0.53489 0.65334 0.08523 0.0
H1146 H 0.49768 0.71668 0.05573 0.0
H1147 H 0.44762 0.75718 0.08454 0.0
C1148 C 0.42032 0.81267 0.07814 0.0
C1149 C 0.41564 0.836 0.0701 0.0
C1150 C 0.50598 0.70288 0.0622 0.0
C1151 C 0.46145 0.7585 0.07021 0.0
C1152 C 0.53248 0.66653 0.0625 0.0
C1153 C 0.54309 0.64757 0.07079 0.0
C1154 C 0.48991 0.72026 0.07024 0.0
C1155 C 0.52761 0.66687 0.07869 0.0
C1156 C 0.44316 0.77395 0.07822 0.0
C1157 C 0.43175 0.81789 0.06213 0.0
N1158 N 0.5016 0.70206 0.07822 0.0
N1159 N 0.45443 0.78038 0.0624 0.0
H1160 H 0.57542 0.72143 0.20641 0.0
H1161 H 0.39664 0.84552 0.17758 0.0
H1162 H 0.5695 0.72172 0.17737 0.0
H1163 H 0.39112 0.83237 0.20649 0.0
H1164 H 0.46742 0.81116 0.17768 0.0
H1165 H 0.51301 0.76978 0.20677 0.0
C1166 C 0.56083 0.73136 0.20011 0.0
C1167 C 0.57755 0.71729 0.19184 0.0
C1168 C 0.45094 0.81626 0.18401 0.0
C1169 C 0.50682 0.77313 0.19222 0.0
C1170 C 0.41064 0.83621 0.18397 0.0
C1171 C 0.38749 0.84093 0.19202 0.0
C1172 C 0.46806 0.80087 0.19214 0.0
C1173 C 0.40752 0.82874 0.20011 0.0
C1174 C 0.52545 0.75922 0.20033 0.0
C1175 C 0.55758 0.73149 0.1839 0.0
N1176 N 0.44644 0.80858 0.19995 0.0
N1177 N 0.52328 0.75865 0.1843 0.0
H1178 H 0.56123 0.33752 0.42443 0.0
H1179 H 0.42016 0.17266 0.45344 0.0
H1180 H 0.55873 0.33359 0.45348 0.0
H1181 H 0.43811 0.15838 0.42479 0.0
H1182 H 0.46619 0.2362 0.45317 0.0
H1183 H 0.51439 0.27385 0.42411 0.0
C1184 C 0.5514 0.32295 0.43074 0.0
C1185 C 0.56365 0.34113 0.439 0.0
C1186 C 0.45999 0.21934 0.44692 0.0
C1187 C 0.50958 0.26904 0.43865 0.0
C1188 C 0.43341 0.18319 0.44706 0.0
C1189 C 0.42562 0.15995 0.43913 0.0
C1190 C 0.47899 0.23247 0.43881 0.0
C1191 C 0.44335 0.17535 0.43105 0.0
C1192 C 0.52444 0.28682 0.43054 0.0
C1193 C 0.5499 0.32093 0.44695 0.0
N1194 N 0.46959 0.2106 0.4311 0.0
N1195 N 0.52333 0.2862 0.44657 0.0
H1196 H 0.0634 0.14877 0.70254 0.0
H1197 H 0.91072 0.30525 0.67411 0.0
H1198 H 0.09036 0.1827 0.67492 0.0
H1199 H 0.90306 0.2878 0.7029 0.0
H1200 H 0.97374 0.25755 0.67379 0.0
H1201 H -0.00067 0.19397 0.7021 0.0
C1202 C 0.05556 0.1654 0.69633 0.0
C1203 C 0.08251 0.16239 0.68878 0.0
C1204 C 0.95834 0.26447 0.68017 0.0
C1205 C 0.00938 0.21479 0.68828 0.0
C1206 C 0.92256 0.29187 0.68037 0.0
C1207 C 0.90145 0.30038 0.68855 0.0
C1208 C 0.9728 0.24537 0.68818 0.0
C1209 C 0.91816 0.2821 0.69644 0.0
C1210 C 0.01908 0.19146 0.69611 0.0
C1211 C 0.07046 0.18425 0.68089 0.0
N1212 N 0.95266 0.25523 0.69604 0.0
N1213 N 0.03483 0.20996 0.68087 0.0
H1214 H 0.06876 0.83742 0.92453 0.0
H1215 H 0.92346 0.68035 0.95447 0.0
H1216 H 0.07345 0.83058 0.95354 0.0
H1217 H 0.94104 0.66138 0.92591 0.0
H1218 H 0.97112 0.74275 0.95375 0.0
H1219 H 0.01812 0.77659 0.92451 0.0
C1220 C 0.05979 0.82271 0.93088 0.0
C1221 C 0.0751 0.83933 0.93906 0.0
C1222 C 0.96437 0.72506 0.94763 0.0
C1223 C 0.0166 0.77083 0.93907 0.0
C1224 C 0.93677 0.68966 0.94801 0.0
C1225 C 0.92877 0.66516 0.94026 0.0
C1226 C 0.984 0.73614 0.93944 0.0
C1227 C 0.94669 0.67907 0.93208 0.0
C1228 C 0.03061 0.78831 0.93085 0.0
C1229 C 0.06225 0.81912 0.94708 0.0
N1230 N 0.9739 0.7135 0.93189 0.0
N1231 N 0.03343 0.78622 0.94688 0.0
H1232 H 0.41167 0.67107 0.71873 0.0
H1233 H 0.55545 0.83773 0.69078 0.0
H1234 H 0.40948 0.68461 0.68981 0.0
H1235 H 0.59153 0.7958 0.71747 0.0
H1236 H 0.49165 0.79197 0.6916 0.0
H1237 H 0.47079 0.72386 0.71935 0.0
C1238 C 0.42387 0.6847 0.71252 0.0
C1239 C 0.40554 0.67341 0.7042 0.0
C1240 C 0.51333 0.79306 0.69731 0.0
C1241 C 0.47195 0.73432 0.70492 0.0
C1242 C 0.54959 0.81945 0.69688 0.0
C1243 C 0.57926 0.81997 0.704 0.0
C1244 C 0.50663 0.767 0.70491 0.0
C1245 C 0.56963 0.79606 0.71179 0.0
C1246 C 0.45733 0.71497 0.71289 0.0
C1247 C 0.4225 0.69223 0.69637 0.0
N1248 N 0.53428 0.76999 0.712 0.0
N1249 N 0.45448 0.72195 0.69694 0.0
H1250 H 0.04676 0.64501 0.47172 0.0
H1251 H 0.91513 0.81207 0.4429 0.0
H1252 H 0.08274 0.68515 0.4449 0.0
H1253 H 0.9309 0.83766 0.47128 0.0
H1254 H 0.9648 0.75161 0.44424 0.0
H1255 H -0.00339 0.70666 0.47251 0.0
C1256 C 0.04489 0.6672 0.4661 0.0
C1257 C 0.06836 0.65949 0.45816 0.0
C1258 C 0.95712 0.77033 0.45018 0.0
C1259 C 0.01066 0.72842 0.45896 0.0
C1260 C 0.92849 0.80461 0.44945 0.0
C1261 C 0.91949 0.8305 0.45696 0.0
C1262 C 0.97663 0.76145 0.45848 0.0
C1263 C 0.93731 0.81871 0.46531 0.0
C1264 C 0.01613 0.70204 0.46654 0.0
C1265 C 0.06475 0.68928 0.45109 0.0
N1266 N 0.96552 0.78502 0.46585 0.0
N1267 N 0.0358 0.72193 0.45159 0.0
H1268 H 0.91345 0.23926 0.19001 0.0
H1269 H 0.09391 0.3222 0.22223 0.0
H1270 H 0.90351 0.21527 0.21857 0.0
H1271 H 0.06332 0.38265 0.19684 0.0
H1272 H 0.0235 0.28606 0.22198 0.0
H1273 H 0.97011 0.29134 0.19286 0.0
C1274 C 0.92343 0.24463 0.1969 0.0
C1275 C 0.90384 0.22256 0.20407 0.0
C1276 C 0.03177 0.30824 0.21661 0.0
C1277 C 0.96881 0.28298 0.20738 0.0
C1278 C 0.07178 0.32917 0.21677 0.0
C1279 C 0.08481 0.3545 0.20941 0.0
C1280 C 0.00526 0.31269 0.20901 0.0
C1281 C 0.0549 0.36251 0.20254 0.0
C1282 C 0.95546 0.27495 0.19853 0.0
C1283 C 0.91797 0.23142 0.21285 0.0
N1284 N 0.01689 0.34086 0.20241 0.0
N1285 N 0.95006 0.26077 0.21427 0.0
H1286 H 0.62104 0.17791 0.94186 0.0
H1287 H 0.46243 0.33925 0.96754 0.0
H1288 H 0.58596 0.15882 0.9697 0.0
H1289 H 0.46705 0.32176 0.93873 0.0
H1290 H 0.51698 0.28216 0.96919 0.0
H1291 H 0.57734 0.24332 0.94157 0.0
C1292 C 0.60484 0.18793 0.94797 0.0
C1293 C 0.60635 0.16238 0.95576 0.0
C1294 C 0.50581 0.29093 0.96253 0.0
C1295 C 0.55574 0.23676 0.95541 0.0
C1296 C 0.47454 0.32319 0.96158 0.0
C1297 C 0.46003 0.33519 0.95298 0.0
C1298 C 0.52297 0.27122 0.95483 0.0
C1299 C 0.47703 0.31353 0.94549 0.0
C1300 C 0.57962 0.22508 0.94778 0.0
C1301 C 0.58527 0.17736 0.96352 0.0
N1302 N 0.50776 0.28282 0.94659 0.0
N1303 N 0.56014 0.21335 0.96312 0.0
H1304 H 0.59206 0.21165 0.79142 0.0
H1305 H 0.43304 0.3866 0.81267 0.0
H1306 H 0.58591 0.24981 0.81933 0.0
H1307 H 0.4004 0.31583 0.78862 0.0
H1308 H 0.50532 0.35537 0.8122 0.0
H1309 H 0.5345 0.2643 0.78803 0.0
C1310 C 0.5786 0.23095 0.79681 0.0
C1311 C 0.59317 0.22583 0.80569 0.0
C1312 C 0.48267 0.34748 0.8069 0.0
C1313 C 0.52934 0.28676 0.80181 0.0
C1314 C 0.44159 0.3656 0.80712 0.0
C1315 C 0.41049 0.35275 0.80083 0.0
C1316 C 0.49235 0.31601 0.80041 0.0
C1317 C 0.42338 0.326 0.79369 0.0
C1318 C 0.54619 0.26111 0.79486 0.0
C1319 C 0.57514 0.25199 0.81242 0.0
N1320 N 0.46318 0.30739 0.7938 0.0
N1321 N 0.5443 0.28129 0.81033 0.0
H1322 H 0.56121 0.84284 0.53957 0.0
H1323 H 0.44275 0.67443 0.57034 0.0
H1324 H 0.60555 0.80751 0.56612 0.0
H1325 H 0.44364 0.6545 0.54157 0.0
H1326 H 0.49546 0.73186 0.56851 0.0
H1327 H 0.51471 0.77846 0.5395 0.0
C1328 C 0.56212 0.82099 0.54527 0.0
C1329 C 0.58655 0.83098 0.55295 0.0
C1330 C 0.48411 0.71492 0.5626 0.0
C1331 C 0.53299 0.75869 0.55297 0.0
C1332 C 0.45357 0.68245 0.56361 0.0
C1333 C 0.43892 0.65937 0.5561 0.0
C1334 C 0.4998 0.72497 0.554 0.0
C1335 C 0.45423 0.67141 0.54755 0.0
C1336 C 0.53538 0.78455 0.54524 0.0
C1337 C 0.58655 0.80157 0.56014 0.0
N1338 N 0.48396 0.70359 0.54672 0.0
N1339 N 0.55946 0.76724 0.56005 0.0
H1340 H 0.06773 0.69271 0.32222 0.0
H1341 H 0.89773 0.81391 0.29193 0.0
H1342 H 0.07923 0.68928 0.29327 0.0
H1343 H 0.93152 0.85384 0.31885 0.0
H1344 H 0.96142 0.76672 0.29174 0.0
H1345 H 0.01148 0.74694 0.32082 0.0
C1346 C 0.05812 0.70296 0.31555 0.0
C1347 C 0.07841 0.68649 0.30785 0.0
C1348 C 0.95518 0.78652 0.2976 0.0
C1349 C 0.01416 0.7492 0.30622 0.0
C1350 C 0.91909 0.81368 0.2977 0.0
C1351 C 0.90884 0.83714 0.3055 0.0
C1352 C 0.98055 0.78273 0.30537 0.0
C1353 C 0.93767 0.83567 0.31276 0.0
C1354 C 0.02632 0.73438 0.31477 0.0
C1355 C 0.06446 0.70119 0.29938 0.0
N1356 N 0.97175 0.80825 0.31259 0.0
N1357 N 0.03301 0.7318 0.29879 0.0
H1358 H 0.91411 0.15587 0.03897 0.0
H1359 H 0.0003 0.33175 0.07164 0.0
H1360 H 0.85421 0.18518 0.06446 0.0
H1361 H 0.02298 0.34457 0.0431 0.0
H1362 H 0.94631 0.27705 0.06863 0.0
H1363 H 0.95013 0.22634 0.03933 0.0
C1364 C 0.90721 0.17776 0.04447 0.0
C1365 C 0.88219 0.16429 0.05184 0.0
C1366 C 0.96281 0.29192 0.06299 0.0
C1367 C 0.92382 0.24391 0.05236 0.0
C1368 C 0.99422 0.32276 0.06472 0.0
C1369 C 0.01659 0.34243 0.05761 0.0
C1370 C 0.95404 0.27981 0.0541 0.0
C1371 C 0.00668 0.32988 0.04877 0.0
C1372 C 0.92805 0.21782 0.04469 0.0
C1373 C 0.87418 0.19392 0.05876 0.0
N1374 N 0.97637 0.29882 0.04725 0.0
N1375 N 0.89579 0.23196 0.05896 0.0
H1376 H 0.36925 0.15402 0.26921 0.0
H1377 H 0.2211 0.31306 0.24037 0.0
H1378 H 0.23037 0.15942 0.27191 0.0
H1379 H 0.34624 0.26968 0.23123 0.0
H1380 H 0.22793 0.26604 0.25352 0.0
H1381 H 0.36441 0.20315 0.25642 0.0
C1382 C 0.33764 0.1654 0.26717 0.0
C1383 C 0.30024 0.15321 0.27192 0.0
C1384 C 0.25399 0.26705 0.24866 0.0
C1385 C 0.29476 0.21029 0.25729 0.0
C1386 C 0.25035 0.29422 0.24119 0.0
C1387 C 0.28314 0.29525 0.23466 0.0
C1388 C 0.2909 0.24112 0.24968 0.0
C1389 C 0.32013 0.26982 0.23608 0.0
C1390 C 0.33504 0.19369 0.25987 0.0
C1391 C 0.26036 0.16916 0.26885 0.0
N1392 N 0.323 0.24376 0.24343 0.0
N1393 N 0.25873 0.19712 0.26178 0.0
H1394 H 0.93956 0.08172 0.48369 0.0
H1395 H 0.02116 0.95497 0.52754 0.0
H1396 H 0.89454 0.9544 0.49106 0.0
H1397 H 0.0674 0.08098 0.51965 0.0
H1398 H 0.97105 0.95586 0.51479 0.0
H1399 H 0.98163 0.08446 0.49755 0.0
C1400 C 0.93796 0.05456 0.48828 0.0
C1401 C 0.91363 0.01764 0.48614 0.0
C1402 C 0.99194 0.98345 0.51588 0.0
C1403 C 0.96245 0.02032 0.50203 0.0
C1404 C 0.02042 0.98304 0.52318 0.0
C1405 C 0.04798 0.01828 0.52475 0.0
C1406 C 0.99121 0.01926 0.51005 0.0
C1407 C 0.04663 0.05317 0.51871 0.0
C1408 C 0.96225 0.05606 0.49619 0.0
C1409 C 0.91287 0.9835 0.49239 0.0
N1410 N 0.01869 0.05282 0.51166 0.0
N1411 N 0.93724 0.98551 0.5 0.0
H1412 H 0.17833 0.70012 0.73075 0.0
H1413 H 0.24504 0.73431 0.78143 0.0
H1414 H 0.28091 0.62336 0.74228 0.0
H1415 H 0.2089 0.84044 0.76407 0.0
H1416 H 0.24936 0.68735 0.76834 0.0
H1417 H 0.17723 0.74444 0.7443 0.0
C1418 C 0.20016 0.69203 0.73619 0.0
C1419 C 0.22983 0.65789 0.73536 0.0
C1420 C 0.24108 0.72111 0.76743 0.0
C1421 C 0.22864 0.70885 0.75091 0.0
C1422 C 0.23924 0.74845 0.77492 0.0
C1423 C 0.22772 0.79227 0.77394 0.0
C1424 C 0.22994 0.7372 0.75894 0.0
C1425 C 0.21813 0.80713 0.76522 0.0
C1426 C 0.19976 0.7177 0.74389 0.0
C1427 C 0.25756 0.64937 0.74264 0.0
N1428 N 0.21905 0.77965 0.7581 0.0
N1429 N 0.25623 0.67465 0.75014 0.0
H1430 H 0.43452 0.90298 0.02124 0.0
H1431 H 0.60267 0.03989 0.9916 0.0
H1432 H 0.46991 0.03465 0.02726 0.0
H1433 H 0.55597 0.91313 0.98433 0.0
H1434 H 0.56013 0.03611 1.00547 0.0
H1435 H 0.48301 0.90443 0.00826 0.0
C1436 C 0.45264 0.9322 0.01984 0.0
C1437 C 0.44881 0.96847 0.02544 0.0
C1438 C 0.55948 0.00899 1.00087 0.0
C1439 C 0.50453 0.97044 0.01056 0.0
C1440 C 0.58402 0.01098 0.99297 0.0
C1441 C 0.5828 0.97685 0.98674 0.0
C1442 C 0.53357 0.97256 1.00258 0.0
C1443 C 0.55784 0.94032 0.98889 0.0
C1444 C 0.48047 0.93297 0.01244 0.0
C1445 C 0.47285 0.00555 0.02327 0.0
N1446 N 0.5341 0.93927 0.99659 0.0
N1447 N 0.49975 0.00557 0.01601 0.0
H1448 H 0.32371 0.80561 0.24024 0.0
H1449 H 0.18643 0.65057 0.27274 0.0
H1450 H 0.18822 0.77906 0.23637 0.0
H1451 H 0.31797 0.68971 0.27794 0.0
H1452 H 0.18847 0.6907 0.25855 0.0
H1453 H 0.32361 0.75826 0.2534 0.0
C1454 C 0.29393 0.78962 0.24215 0.0
C1455 C 0.25611 0.79563 0.2371 0.0
C1456 C 0.21699 0.69018 0.26276 0.0
C1457 C 0.25565 0.74127 0.25221 0.0
C1458 C 0.21598 0.667 0.27084 0.0
C1459 C 0.25203 0.66689 0.27659 0.0
C1460 C 0.25435 0.71337 0.26038 0.0
C1461 C 0.28932 0.68897 0.27377 0.0
C1462 C 0.29391 0.76245 0.24965 0.0
C1463 C 0.21839 0.77431 0.23991 0.0
N1464 N 0.28941 0.71147 0.26591 0.0
N1465 N 0.21911 0.74804 0.24727 0.0
H1466 H 0.49052 0.00769 0.47999 0.0
H1467 H 0.52971 0.08248 0.53061 0.0
H1468 H 0.39598 0.07735 0.49566 0.0
H1469 H 0.60084 0.97698 0.51869 0.0
H1470 H 0.48697 0.08858 0.51691 0.0
H1471 H 0.53598 0.00152 0.49331 0.0
C1472 C 0.47851 0.02062 0.48624 0.0
C1473 C 0.43837 0.04189 0.48671 0.0
C1474 C 0.51208 0.06424 0.51726 0.0
C1475 C 0.49191 0.03703 0.50193 0.0
C1476 C 0.53684 0.06094 0.52507 0.0
C1477 C 0.56892 0.02901 0.52585 0.0
C1478 C 0.51956 0.03571 0.5101 0.0
C1479 C 0.57642 0.002 0.51841 0.0
C1480 C 0.50502 0.01768 0.49384 0.0
C1481 C 0.42635 0.06026 0.49498 0.0
N1482 N 0.55185 0.0059 0.51085 0.0
N1483 N 0.45298 0.05754 0.50222 0.0
H1484 H 0.16266 0.23308 0.784 0.0
H1485 H 0.22294 0.21276 0.7319 0.0
H1486 H 0.24796 0.32146 0.77019 0.0
H1487 H 0.1516 0.11532 0.74644 0.0
H1488 H 0.22966 0.25454 0.74564 0.0
H1489 H 0.15355 0.19267 0.77004 0.0
C1490 C 0.17907 0.24437 0.77801 0.0
C1491 C 0.2063 0.2807 0.77829 0.0
C1492 C 0.21297 0.22378 0.74587 0.0
C1493 C 0.19632 0.23413 0.76228 0.0
C1494 C 0.20979 0.19934 0.73802 0.0
C1495 C 0.18803 0.15948 0.73805 0.0
C1496 C 0.1937 0.20871 0.75382 0.0
C1497 C 0.16922 0.14554 0.74614 0.0
C1498 C 0.17406 0.22105 0.77004 0.0
C1499 C 0.22674 0.29364 0.7703 0.0
N1500 N 0.17253 0.17005 0.7537 0.0
N1501 N 0.2215 0.27026 0.76264 0.0
H1502 H 0.90057 0.01075 0.01849 0.0
H1503 H 0.11934 0.92929 0.9954 0.0
H1504 H 0.99176 0.92489 0.03132 0.0
H1505 H 0.01369 0.98307 0.98011 0.0
H1506 H 0.07486 0.93328 0.00894 0.0
H1507 H 0.94263 0.00561 1.00454 0.0
C1508 C 0.92908 0.99044 0.01836 0.0
C1509 C 0.94262 0.96828 0.02612 0.0
C1510 C 0.06153 0.9446 1.00263 0.0
C1511 C 0.9913 0.96298 0.01023 0.0
C1512 C 0.08701 0.94253 0.9949 0.0
C1513 C 0.07083 0.95689 0.9866 0.0
C1514 C 0.01931 0.9611 1.00211 0.0
C1515 C 0.02842 0.97326 0.98637 0.0
C1516 C 0.95315 0.98765 0.0104 0.0
C1517 C 0.97996 0.94257 0.02553 0.0
N1518 N 0.00419 0.97501 0.99401 0.0
N1519 N 0.00311 0.94096 0.01777 0.0
H1520 H 0.76608 0.75819 0.781 0.0
H1521 H 0.72891 0.7199 0.72848 0.0
H1522 H 0.77828 0.63437 0.76793 0.0
H1523 H 0.74376 0.84768 0.73971 0.0
H1524 H 0.74341 0.68874 0.74315 0.0
H1525 H 0.75366 0.79206 0.7663 0.0
C1526 C 0.76534 0.73802 0.77506 0.0
C1527 C 0.77206 0.69319 0.77569 0.0
C1528 C 0.74373 0.7236 0.74245 0.0
C1529 C 0.75909 0.73187 0.75887 0.0
C1530 C 0.73532 0.74153 0.73405 0.0
C1531 C 0.73494 0.78656 0.73286 0.0
C1532 C 0.75148 0.75074 0.74982 0.0
C1533 C 0.74383 0.8128 0.74033 0.0
C1534 C 0.75885 0.75748 0.76666 0.0
C1535 C 0.77271 0.66893 0.76775 0.0
N1536 N 0.75145 0.79449 0.74853 0.0
N1537 N 0.76603 0.68851 0.75969 0.0
H1538 H 0.78303 0.28378 0.27586 0.0
H1539 H 0.65792 0.21412 0.23095 0.0
H1540 H 0.65533 0.32808 0.26878 0.0
H1541 H 0.78734 0.17175 0.23727 0.0
H1542 H 0.65423 0.25047 0.24547 0.0
H1543 H 0.78366 0.23833 0.26236 0.0
C1544 C 0.75491 0.28352 0.27152 0.0
C1545 C 0.71877 0.30922 0.27353 0.0
C1546 C 0.68333 0.23292 0.24373 0.0
C1547 C 0.71953 0.25788 0.25798 0.0
C1548 C 0.68539 0.2119 0.23544 0.0
C1549 C 0.72312 0.19001 0.23282 0.0
C1550 C 0.71932 0.23232 0.24949 0.0
C1551 C 0.7576 0.18828 0.23897 0.0
C1552 C 0.75537 0.25775 0.26379 0.0
C1553 C 0.68382 0.3087 0.26752 0.0
N1554 N 0.75503 0.20949 0.24697 0.0
N1555 N 0.68504 0.28343 0.26004 0.0
H1556 H 0.8546 0.31842 0.74053 0.0
H1557 H 0.71202 0.1706 0.77355 0.0
H1558 H 0.72401 0.2793 0.73451 0.0
H1559 H 0.83918 0.21869 0.78004 0.0
H1560 H 0.71819 0.20368 0.75863 0.0
H1561 H 0.85123 0.2772 0.75453 0.0
C1562 C 0.82524 0.30094 0.74213 0.0
C1563 C 0.78982 0.30175 0.73624 0.0
C1564 C 0.74489 0.20664 0.76329 0.0
C1565 C 0.7856 0.25438 0.75235 0.0
C1566 C 0.74152 0.18748 0.7718 0.0
C1567 C 0.77506 0.19199 0.77811 0.0
C1568 C 0.78208 0.23045 0.76104 0.0
C1569 C 0.81239 0.21448 0.77544 0.0
C1570 C 0.82338 0.27726 0.75013 0.0
C1571 C 0.75255 0.27863 0.73871 0.0
N1572 N 0.81475 0.23302 0.76716 0.0
N1573 N 0.7514 0.25593 0.74657 0.0
H1574 H 0.7598 0.86064 0.27053 0.0
H1575 H 0.67879 0.64689 0.24583 0.0
H1576 H 0.66831 0.77159 0.28229 0.0
H1577 H 0.72396 0.75827 0.23105 0.0
H1578 H 0.68295 0.68906 0.25969 0.0
H1579 H 0.7543 0.82111 0.25627 0.0
C1580 C 0.73822 0.83314 0.27009 0.0
C1581 C 0.71446 0.81948 0.27763 0.0
C1582 C 0.69239 0.70407 0.25341 0.0
C1583 C 0.70887 0.77363 0.26142 0.0
C1584 C 0.69024 0.67996 0.24549 0.0
C1585 C 0.70226 0.69844 0.23724 0.0
C1586 C 0.70678 0.74711 0.25312 0.0
C1587 C 0.71627 0.74174 0.23724 0.0
C1588 C 0.7352 0.81056 0.26196 0.0
C1589 C 0.68713 0.78349 0.27667 0.0
N1590 N 0.71834 0.76451 0.24505 0.0
N1591 N 0.68546 0.76158 0.26876 0.0
H1592 H 0.40298 0.48455 0.98892 0.0
H1593 H 0.62096 0.53115 0.01659 0.0
H1594 H 0.53014 0.49463 0.97716 0.0
H1595 H 0.49821 0.50847 0.0295 0.0
H1596 H 0.58632 0.5217 1.00199 0.0
H1597 H 0.43518 0.49761 1.00382 0.0
C1598 C 0.43748 0.48988 0.98945 0.0
C1599 C 0.46392 0.48824 0.98179 0.0
C1600 C 0.56691 0.51839 0.00801 0.0
C1601 C 0.50085 0.50295 0.99872 0.0
C1602 C 0.58676 0.52373 0.01635 0.0
C1603 C 0.56275 0.51943 0.02428 0.0
C1604 C 0.52245 0.50919 0.00756 0.0
C1605 C 0.51833 0.51047 0.02357 0.0
C1606 C 0.45587 0.49708 0.99795 0.0
C1607 C 0.50847 0.4952 0.98287 0.0
N1608 N 0.49958 0.50562 0.01535 0.0
N1609 N 0.52542 0.50213 0.99114 0.0
H1610 H 0.04951 0.39651 0.48306 0.0
H1611 H 0.91367 0.51728 0.5211 0.0
H1612 H 0.06765 0.53139 0.48946 0.0
H1613 H 0.92557 0.37849 0.5198 0.0
H1614 H 0.96724 0.52369 0.50904 0.0
H1615 H 0.00228 0.38932 0.49617 0.0
C1616 C 0.04409 0.42448 0.4873 0.0
C1617 C 0.06262 0.46461 0.48514 0.0
C1618 C 0.95843 0.49185 0.51146 0.0
C1619 C 0.00768 0.45684 0.50006 0.0
C1620 C 0.92815 0.48819 0.51842 0.0
C1621 C 0.91609 0.44733 0.52167 0.0
C1622 C 0.97618 0.45432 0.50761 0.0
C1623 C 0.93407 0.41067 0.51753 0.0
C1624 C 0.01697 0.42039 0.49477 0.0
C1625 C 0.05426 0.49976 0.49087 0.0
N1626 N 0.96316 0.41502 0.51074 0.0
N1627 N 0.02703 0.49518 0.498 0.0
H1628 H 0.86183 0.56468 0.99731 0.0
H1629 H 0.0775 0.49191 0.02337 0.0
H1630 H 0.97596 0.51976 0.98354 0.0
H1631 H 0.955 0.51773 0.03616 0.0
H1632 H 0.04407 0.50814 0.0087 0.0
H1633 H 0.89838 0.55303 0.01167 0.0
C1634 C 0.89444 0.55189 0.99731 0.0
C1635 C 0.91534 0.54206 0.98921 0.0
C1636 C 0.02471 0.51043 0.01474 0.0
C1637 C 0.95794 0.52932 1.00564 0.0
C1638 C 0.04386 0.50151 0.02311 0.0
C1639 C 0.01894 0.50322 0.03098 0.0
C1640 C 0.98058 0.5215 0.01432 0.0
C1641 C 0.97539 0.51557 0.03026 0.0
C1642 C 0.91538 0.54531 1.00551 0.0
C1643 C 0.95792 0.52623 0.98961 0.0
N1644 N 0.95769 0.5241 0.02211 0.0
N1645 N 0.97784 0.52037 0.99769 0.0
H1646 H 0.5026 0.47704 0.4806 0.0
H1647 H 0.52029 0.49261 0.53409 0.0
H1648 H 0.61824 0.44884 0.49568 0.0
H1649 H 0.39866 0.50512 0.52014 0.0
H1650 H 0.55578 0.4765 0.51993 0.0
H1651 H 0.46361 0.48853 0.49473 0.0
C1652 C 0.52003 0.47406 0.48687 0.0
C1653 C 0.56415 0.46324 0.48696 0.0
C1654 C 0.5213 0.48249 0.51992 0.0
C1655 C 0.51931 0.47495 0.50316 0.0
C1656 C 0.50091 0.49178 0.52802 0.0
C1657 C 0.45641 0.50052 0.52829 0.0
C1658 C 0.49729 0.48226 0.51192 0.0
C1659 C 0.43302 0.49851 0.52022 0.0
C1660 C 0.49754 0.48001 0.49494 0.0
C1661 C 0.58443 0.4577 0.4953 0.0
N1662 N 0.45384 0.48996 0.51233 0.0
N1663 N 0.56197 0.46389 0.50305 0.0
H1664 H 0.33134 0.94384 0.30878 0.0
H1665 H 0.24279 0.7284 0.33195 0.0
H1666 H 0.23573 0.94241 0.32989 0.0
H1667 H 0.28954 0.73166 0.30459 0.0
H1668 H 0.25967 0.80518 0.33338 0.0
H1669 H 0.33274 0.86462 0.30905 0.0
C1670 C 0.31046 0.92685 0.31344 0.0
C1671 C 0.28276 0.94961 0.31922 0.0
C1672 C 0.26691 0.78882 0.32713 0.0
C1673 C 0.28555 0.85934 0.3198 0.0
C1674 C 0.25772 0.74484 0.32632 0.0
C1675 C 0.264 0.72362 0.31807 0.0
C1676 C 0.28301 0.81159 0.31969 0.0
C1677 C 0.28359 0.7468 0.31103 0.0
C1678 C 0.31167 0.88174 0.31365 0.0
C1679 C 0.25753 0.92604 0.32532 0.0
N1680 N 0.29192 0.78972 0.31196 0.0
N1681 N 0.25947 0.88214 0.32545 0.0
H1682 H 0.28753 0.97171 0.58019 0.0
H1683 H 0.49584 0.0284 0.55116 0.0
H1684 H 0.28183 0.04817 0.55597 0.0
H1685 H 0.50191 0.98153 0.5785 0.0
H1686 H 0.41785 0.03759 0.55279 0.0
H1687 H 0.36648 0.9746 0.57959 0.0
C1688 C 0.30299 0.9891 0.57475 0.0
C1689 C 0.27827 0.00948 0.56809 0.0
C1690 C 0.43636 0.02588 0.55847 0.0
C1691 C 0.36838 0.0128 0.5673 0.0
C1692 C 0.48095 0.02077 0.55756 0.0
C1693 C 0.50547 0.00368 0.56467 0.0
C1694 C 0.41609 0.01332 0.56651 0.0
C1695 C 0.48436 0.99456 0.57282 0.0
C1696 C 0.34799 0.99084 0.57441 0.0
C1697 C 0.29976 0.03123 0.56112 0.0
N1698 N 0.4408 -0.00112 0.57347 0.0
N1699 N 0.34364 0.03221 0.56089 0.0
H1700 H 0.29532 0.20723 0.80072 0.0
H1701 H 0.22992 0.00542 0.82903 0.0
H1702 H 0.26194 0.222 0.82875 0.0
H1703 H 0.33515 -0.00198 0.81006 0.0
H1704 H 0.23335 0.08419 0.82834 0.0
H1705 H 0.30033 0.12904 0.80295 0.0
C1706 C 0.28858 0.19395 0.80732 0.0
C1707 C 0.27795 0.22094 0.81457 0.0
C1708 C 0.25611 0.06528 0.82444 0.0
C1709 C 0.28378 0.13202 0.81711 0.0
C1710 C 0.25447 0.02042 0.82488 0.0
C1711 C 0.2826 -0.00463 0.81963 0.0
C1712 C 0.28513 0.08504 0.81851 0.0
C1713 C 0.31282 0.0164 0.81415 0.0
C1714 C 0.292 0.14952 0.80859 0.0
C1715 C 0.27013 0.20218 0.823 0.0
N1716 N 0.31286 0.06025 0.8136 0.0
N1717 N 0.27277 0.15863 0.82403 0.0
H1718 H 0.01742 0.03776 0.05037 0.0
H1719 H 0.2162 0.95162 0.07764 0.0
H1720 H -0.00061 0.99469 0.07774 0.0
H1721 H 0.22628 0.06755 0.06162 0.0
H1722 H 0.13728 0.95516 0.07631 0.0
H1723 H 0.09565 0.0355 0.0526 0.0
C1724 C 0.02993 0.02728 0.05681 0.0
C1725 C 0.00197 0.01629 0.06389 0.0
C1726 C 0.15691 0.97981 0.07312 0.0
C1727 C 0.09112 0.01353 0.06642 0.0
C1728 C 0.20175 0.97798 0.0739 0.0
C1729 C 0.22764 0.00922 0.06966 0.0
C1730 C 0.13811 0.0124 0.06789 0.0
C1731 C 0.20745 0.04228 0.06478 0.0
C1732 C 0.07445 0.02645 0.05809 0.0
C1733 C 0.01993 0.00342 0.07213 0.0
N1734 N 0.16375 0.04273 0.06392 0.0
N1735 N 0.06358 0.00202 0.07316 0.0
H1736 H 0.24824 0.23681 0.1831 0.0
H1737 H 0.15188 0.01629 0.20084 0.0
H1738 H 0.20747 0.22108 0.21069 0.0
H1739 H 0.26516 0.01652 0.18392 0.0
H1740 H 0.15813 0.09526 0.20227 0.0
H1741 H 0.24245 0.15803 0.18108 0.0
C1742 C 0.23854 0.21678 0.18874 0.0
C1743 C 0.22866 0.2353 0.19709 0.0
C1744 C 0.18132 0.0778 0.1982 0.0
C1745 C 0.22044 0.1464 0.19472 0.0
C1746 C 0.17785 0.033 0.19741 0.0
C1747 C 0.20818 0.01008 0.19232 0.0
C1748 C 0.21472 0.09955 0.19368 0.0
C1749 C 0.24075 0.03316 0.18781 0.0
C1750 C 0.2351 0.17212 0.18757 0.0
C1751 C 0.21587 0.20806 0.20417 0.0
N1752 N 0.24313 0.07679 0.18857 0.0
N1753 N 0.21157 0.16497 0.20279 0.0
H1754 H 0.98539 0.01803 0.4331 0.0
H1755 H 0.20846 0.97298 0.45504 0.0
H1756 H -0.00176 0.00754 0.46195 0.0
H1757 H 0.20173 0.06896 0.43403 0.0
H1758 H 0.12964 0.97615 0.4565 0.0
H1759 H 0.06363 0.0307 0.43205 0.0
C1760 C 0.00438 0.01929 0.43921 0.0
C1761 C 0.98529 0.01117 0.44762 0.0
C1762 C 0.14557 -0.00334 0.45161 0.0
C1763 C 0.07425 0.02424 0.4464 0.0
C1764 C 0.19036 0.99491 0.45079 0.0
C1765 C 0.21147 0.02103 0.44448 0.0
C1766 C 0.12174 0.02377 0.44589 0.0
C1767 C 0.1865 0.04801 0.43893 0.0
C1768 C 0.0489 0.0264 0.43859 0.0
C1769 C 0.01149 0.01327 0.45532 0.0
N1770 N 0.14272 0.04842 0.43969 0.0
N1771 N 0.05479 0.0186 0.45451 0.0
H1772 H 0.17158 0.94022 0.68268 0.0
H1773 H 0.22266 0.73118 0.71173 0.0
H1774 H 0.25802 0.94006 0.70543 0.0
H1775 H 0.21627 0.72261 0.68275 0.0
H1776 H 0.21084 0.8089 0.71065 0.0
H1777 H 0.16741 0.86089 0.6836 0.0
C1778 C 0.18976 0.92348 0.68784 0.0
C1779 C 0.2152 0.94658 0.69401 0.0
C1780 C 0.21128 0.78976 0.70456 0.0
C1781 C 0.20896 0.85679 0.6953 0.0
C1782 C 0.21767 0.74531 0.70514 0.0
C1783 C 0.22144 0.72033 0.69729 0.0
C1784 C 0.20783 0.80931 0.69609 0.0
C1785 C 0.21418 0.74068 0.68897 0.0
C1786 C 0.18702 0.87846 0.68839 0.0
C1787 C 0.23749 0.92349 0.70065 0.0
N1788 N 0.20818 0.78424 0.68857 0.0
N1789 N 0.23358 0.87985 0.70117 0.0
H1790 H 0.50243 9e-05 0.9621 0.0
H1791 H 0.29986 0.93207 0.9332 0.0
H1792 H 0.51725 0.97781 0.93358 0.0
H1793 H 0.29391 0.03273 0.95321 0.0
H1794 H 0.37905 0.9319 0.93449 0.0
H1795 H 0.4245 0.99232 0.96046 0.0
C1796 C 0.48948 0.99274 0.95551 0.0
C1797 C 0.51645 0.99006 0.94793 0.0
C1798 C 0.36021 0.95387 0.93859 0.0
C1799 C 0.42729 0.98105 0.94608 0.0
C1800 C 0.31527 0.95421 0.93783 0.0
C1801 C 0.29051 0.98231 0.94316 0.0
C1802 C 0.38012 0.98103 0.94488 0.0
C1803 C 0.31185 0.00994 0.94914 0.0
C1804 C 0.44497 0.98869 0.95459 0.0
C1805 C 0.4976 0.98043 0.93958 0.0
N1806 N 0.35551 0.00831 0.94991 0.0
N1807 N 0.45395 0.97633 0.93886 0.0
H1808 H 0.68019 0.24987 0.70191 0.0
H1809 H 0.79483 0.02707 0.6918 0.0
H1810 H 0.75148 0.22441 0.67755 0.0
H1811 H 0.67795 0.02998 0.70752 0.0
H1812 H 0.78568 0.10409 0.68846 0.0
H1813 H 0.68032 0.17217 0.70524 0.0
C1814 C 0.69457 0.22782 0.69712 0.0
C1815 C 0.71629 0.2437 0.68949 0.0
C1816 C 0.76223 0.08801 0.69271 0.0
C1817 C 0.71795 0.15547 0.69343 0.0
C1818 C 0.76791 0.04443 0.69474 0.0
C1819 C 0.73709 0.02258 0.69992 0.0
C1820 C 0.72576 0.10994 0.69599 0.0
C1821 C 0.70249 0.04608 0.70355 0.0
C1822 C 0.69502 0.18362 0.69907 0.0
C1823 C 0.73436 0.21372 0.6835 0.0
N1824 N 0.69756 0.0887 0.70148 0.0
N1825 N 0.73572 0.17114 0.68571 0.0
H1826 H 0.70817 0.03348 0.44067 0.0
H1827 H 0.4795 0.93739 0.45316 0.0
H1828 H 0.69735 0.9248 0.45868 0.0
H1829 H 0.50574 0.00265 0.4281 0.0
H1830 H 0.55742 0.93221 0.45592 0.0
H1831 H 0.63115 0.02707 0.4372 0.0
C1832 C 0.68918 0.00875 0.444 0.0
C1833 C 0.70877 0.97952 0.44992 0.0
C1834 C 0.54608 0.94673 0.44972 0.0
C1835 C 0.62115 0.97153 0.44593 0.0
C1836 C 0.50172 0.94939 0.44811 0.0
C1837 C 0.48622 0.97094 0.44044 0.0
C1838 C 0.57486 0.96642 0.44369 0.0
C1839 C 0.51627 0.98574 0.43409 0.0
C1840 C 0.64552 0.00467 0.44193 0.0
C1841 C 0.6831 0.94803 0.4541 0.0
N1842 N 0.55919 0.98413 0.43596 0.0
N1843 N 0.6404 0.94475 0.45202 0.0
H1844 H 0.79499 0.75806 0.20315 0.0
H1845 H 0.73546 0.99191 0.18447 0.0
H1846 H 0.74108 0.78142 0.17684 0.0
H1847 H 0.8163 0.97421 0.20777 0.0
H1848 H 0.73599 0.9139 0.18197 0.0
H1849 H 0.80567 0.83594 0.205 0.0
C1850 C 0.78633 0.77943 0.19767 0.0
C1851 C 0.76642 0.7631 0.18989 0.0
C1852 C 0.75367 0.92689 0.18763 0.0
C1853 C 0.77775 0.85236 0.19204 0.0
C1854 C 0.75304 0.97136 0.18911 0.0
C1855 C 0.77605 0.98935 0.1963 0.0
C1856 C 0.77709 0.89994 0.19347 0.0
C1857 C 0.79802 0.96143 0.20216 0.0
C1858 C 0.79222 0.82394 0.19876 0.0
C1859 C 0.7564 0.79236 0.18297 0.0
N1860 N 0.79807 0.91798 0.20061 0.0
N1861 N 0.76142 0.83556 0.18428 0.0
H1862 H 0.80167 0.93615 0.94462 0.0
H1863 H 0.02035 0.0598 0.95238 0.0
H1864 H 0.80126 0.0575 0.95884 0.0
H1865 H 0.9944 0.98625 0.92836 0.0
H1866 H 0.94296 0.05863 0.95595 0.0
H1867 H 0.87712 0.94875 0.94038 0.0
C1868 C 0.81782 0.96509 0.94697 0.0
C1869 C 0.7954 -0.00402 0.95201 0.0
C1870 C 0.95416 0.04376 0.94979 0.0
C1871 C 0.8812 0.01076 0.94719 0.0
C1872 C -0.00185 0.04483 0.94769 0.0
C1873 C 0.01377 0.02286 0.94009 0.0
C1874 C 0.92605 0.01976 0.94434 0.0
C1875 C 0.98374 0.00374 0.93426 0.0
C1876 C 0.86057 0.97251 0.94447 0.0
C1877 C 0.81774 0.03275 0.955 0.0
N1878 N 0.94141 0.00164 0.93663 0.0
N1879 N 0.85958 0.03925 0.95253 0.0
H1880 H 0.67688 0.97651 0.80287 0.0
H1881 H 0.74013 0.78317 0.83643 0.0
H1882 H 0.75029 0.99206 0.82726 0.0
H1883 H 0.6863 0.76113 0.81007 0.0
H1884 H 0.7323 0.86084 0.83409 0.0
H1885 H 0.67313 0.89814 0.80578 0.0
C1886 C 0.69275 0.96327 0.80875 0.0
C1887 C 0.71391 0.99059 0.81484 0.0
C1888 C 0.72166 0.83902 0.82885 0.0
C1889 C 0.70873 0.90168 0.81836 0.0
C1890 C 0.72544 0.79448 0.83025 0.0
C1891 C 0.7146 0.76537 0.82337 0.0
C1892 C 0.7068 0.8547 0.82053 0.0
C1893 C 0.69589 0.78232 0.81549 0.0
C1894 C 0.69017 0.91874 0.81047 0.0
C1895 C 0.7335 0.97202 0.82242 0.0
N1896 N 0.6932 0.82584 0.81423 0.0
N1897 N 0.73021 0.92889 0.82399 0.0
H1898 H 0.00719 0.91378 0.56004 0.0
H1899 H 0.79025 0.04492 0.56752 0.0
H1900 H 0.98442 -0.00314 0.58285 0.0
H1901 H 0.79023 0.92641 0.55234 0.0
H1902 H 0.86581 0.03203 0.57161 0.0
H1903 H 0.93007 0.91757 0.55636 0.0
C1904 C 0.98578 0.93157 0.56446 0.0
C1905 C 0.00253 0.95565 0.57168 0.0
C1906 C 0.84946 0.00899 0.56732 0.0
C1907 C 0.91483 0.96125 0.56733 0.0
C1908 C 0.80672 0.01678 0.56486 0.0
C1909 C 0.78438 0.98675 0.55959 0.0
C1910 C 0.87013 0.97107 0.56439 0.0
C1911 C 0.80673 0.95048 0.55636 0.0
C1912 C 0.94189 0.93413 0.56228 0.0
C1913 C 0.97321 0.97795 0.57719 0.0
N1914 N 0.84851 0.94347 0.55884 0.0
N1915 N 0.93101 0.9811 0.57477 0.0
H1916 H 0.81901 0.25866 0.30887 0.0
H1917 H 0.69371 0.04233 0.31904 0.0
H1918 H 0.74596 0.23719 0.33319 0.0
H1919 H 0.81077 0.03932 0.30337 0.0
H1920 H 0.70742 0.11842 0.32257 0.0
H1921 H 0.81654 0.18082 0.30582 0.0
C1922 C 0.80377 0.23745 0.31372 0.0
C1923 C 0.78184 0.25459 0.32119 0.0
C1924 C 0.72998 0.10122 0.3183 0.0
C1925 C 0.77772 0.16624 0.31759 0.0
C1926 C 0.72174 0.05819 0.31617 0.0
C1927 C 0.7512 0.03493 0.31094 0.0
C1928 C 0.76764 0.12119 0.31506 0.0
C1929 C 0.7872 0.05656 0.30738 0.0
C1930 C 0.802 0.19316 0.31192 0.0
C1931 C 0.76298 0.22559 0.3273 0.0
N1932 N 0.79459 0.09867 0.30953 0.0
N1933 N 0.76031 0.18295 0.32524 0.0
H1934 H 0.71725 0.03972 0.0523 0.0
H1935 H 0.5224 0.96345 0.08378 0.0
H1936 H 0.72003 0.92392 0.06842 0.0
H1937 H 0.5052 0.05395 0.06201 0.0
H1938 H 0.59915 0.95825 0.08 0.0
H1939 H 0.64161 0.05088 0.05658 0.0
C1940 C 0.70143 0.01594 0.05652 0.0
C1941 C 0.72458 0.98069 0.05998 0.0
C1942 C 0.5787 0.97978 0.07613 0.0
C1943 C 0.63913 0.99437 0.06526 0.0
C1944 C 0.5351 0.9835 0.07842 0.0
C1945 C 0.50745 0.00895 0.07315 0.0
C1946 C 0.59465 0.00196 0.06858 0.0
C1947 C 0.52548 0.03363 0.06617 0.0
C1948 C 0.65858 0.02272 0.05909 0.0
C1949 C 0.70309 0.95146 0.06562 0.0
N1950 N 0.5679 0.02917 0.06401 0.0
N1951 N 0.66166 0.95921 0.06819 0.0
H1952 H 0.82304 0.48694 0.80951 0.0
H1953 H 0.75144 0.2662 0.83333 0.0
H1954 H 0.74631 0.48002 0.83368 0.0
H1955 H 0.79442 0.27285 0.80573 0.0
H1956 H 0.76592 0.34334 0.83491 0.0
H1957 H 0.82598 0.40777 0.80915 0.0
C1958 C 0.80657 0.46878 0.81471 0.0
C1959 C 0.78392 0.49006 0.82158 0.0
C1960 C 0.77279 0.32776 0.82855 0.0
C1961 C 0.78834 0.39962 0.82136 0.0
C1962 C 0.76492 0.28353 0.82766 0.0
C1963 C 0.77092 0.26296 0.81933 0.0
C1964 C 0.78697 0.35166 0.82108 0.0
C1965 C 0.78879 0.28732 0.81225 0.0
C1966 C 0.80868 0.42363 0.81455 0.0
C1967 C 0.76429 0.46492 0.82828 0.0
N1968 N 0.7956 0.33051 0.81325 0.0
N1969 N 0.76689 0.42106 0.828 0.0
H1970 H 0.76356 0.5667 0.06144 0.0
H1971 H 0.98143 0.48984 0.08549 0.0
H1972 H 0.76974 0.46963 0.08223 0.0
H1973 H 0.97952 0.55185 0.05946 0.0
H1974 H 0.90342 0.49995 0.08657 0.0
H1975 H 0.84223 0.57519 0.06236 0.0
C1976 C 0.78156 0.5469 0.06614 0.0
C1977 C 0.76032 0.51708 0.07171 0.0
C1978 C 0.92025 0.51205 0.0807 0.0
C1979 C 0.84981 0.52772 0.07302 0.0
C1980 C 0.96495 0.50682 0.08012 0.0
C1981 C 0.98706 0.51908 0.07227 0.0
C1982 C 0.89758 0.52999 0.07343 0.0
C1983 C 0.96376 0.54119 0.06557 0.0
C1984 C 0.8263 0.55216 0.06674 0.0
C1985 C 0.78498 0.49305 0.07784 0.0
N1986 N 0.92014 0.54526 0.06623 0.0
N1987 N 0.82842 0.49891 0.07834 0.0
H1988 H 0.7063 0.75027 0.30391 0.0
H1989 H 0.77461 0.53683 0.33009 0.0
H1990 H 0.76294 0.75149 0.33045 0.0
H1991 H 0.6909 0.53559 0.30693 0.0
H1992 H 0.77114 0.61589 0.33024 0.0
H1993 H 0.69822 0.67202 0.30501 0.0
C1994 C 0.71627 0.73422 0.31004 0.0
C1995 C 0.73582 0.75743 0.31705 0.0
C1996 C 0.75348 0.59835 0.32513 0.0
C1997 C 0.72754 0.66776 0.31826 0.0
C1998 C 0.75565 0.55335 0.32502 0.0
C1999 C 0.73324 0.52991 0.31846 0.0
C2000 C 0.729 0.61998 0.31857 0.0
C2001 C 0.70933 0.5526 0.31199 0.0
C2002 C 0.71182 0.68948 0.31065 0.0
C2003 C 0.74788 0.73491 0.32486 0.0
N2004 N 0.70789 0.59647 0.3122 0.0
N2005 N 0.7442 0.69118 0.32519 0.0
H2006 H 0.70288 0.51823 0.57849 0.0
H2007 H 0.48456 0.44063 0.55651 0.0
H2008 H 0.69848 0.41371 0.55936 0.0
H2009 H 0.48918 0.50939 0.58174 0.0
H2010 H 0.56205 0.42696 0.55771 0.0
H2011 H 0.624 0.51505 0.57979 0.0
C2012 C 0.68516 0.49472 0.57455 0.0
C2013 C 0.70693 0.46659 0.56874 0.0
C2014 C 0.54592 0.44419 0.56308 0.0
C2015 C 0.61708 0.46261 0.57016 0.0
C2016 C 0.50161 0.45176 0.56244 0.0
C2017 C 0.48045 0.47673 0.56897 0.0
C2018 C 0.56926 0.46234 0.57023 0.0
C2019 C 0.50415 0.49022 0.57652 0.0
C2020 C 0.6403 0.49266 0.57533 0.0
C2021 C 0.68272 0.43663 0.56377 0.0
N2022 N 0.54753 0.48372 0.57684 0.0
N2023 N 0.63899 0.43562 0.56454 0.0
H2024 H 0.81254 0.52456 0.70199 0.0
H2025 H 0.72946 0.74238 0.67879 0.0
H2026 H 0.71737 0.52826 0.68083 0.0
H2027 H 0.78733 0.7393 0.70522 0.0
H2028 H 0.73951 0.66423 0.67768 0.0
H2029 H 0.81503 0.60372 0.70188 0.0
C2030 C 0.79179 0.5421 0.6974 0.0
C2031 C 0.76443 0.52005 0.69146 0.0
C2032 C 0.75052 0.68083 0.68366 0.0
C2033 C 0.76821 0.61018 0.69108 0.0
C2034 C 0.74525 0.72552 0.68427 0.0
C2035 C 0.75702 0.74736 0.69217 0.0
C2036 C 0.76799 0.65796 0.69096 0.0
C2037 C 0.77733 0.72371 0.69904 0.0
C2038 C 0.79361 0.58716 0.69727 0.0
C2039 C 0.73905 0.5442 0.68548 0.0
N2040 N 0.78178 0.68017 0.69832 0.0
N2041 N 0.74163 0.58803 0.68542 0.0
H2042 H 0.49795 0.55214 0.95328 0.0
H2043 H 0.71444 0.46683 0.93271 0.0
H2044 H 0.50244 0.48677 0.92765 0.0
H2045 H 0.71345 0.57971 0.9497 0.0
H2046 H 0.63583 0.47242 0.9312 0.0
H2047 H 0.57582 0.56474 0.95225 0.0
C2048 C 0.51502 0.54161 0.94731 0.0
C2049 C 0.49371 0.51773 0.94061 0.0
C2050 C 0.65285 0.49616 0.93521 0.0
C2051 C 0.58283 0.53083 0.93956 0.0
C2052 C 0.69757 0.49282 0.93611 0.0
C2053 C 0.72028 0.52274 0.94135 0.0
C2054 C 0.63059 0.52914 0.93975 0.0
C2055 C 0.69698 0.55555 0.94571 0.0
C2056 C 0.55952 0.54859 0.94676 0.0
C2057 C 0.5175 0.50499 0.93302 0.0
N2058 N 0.65327 0.55769 0.94488 0.0
N2059 N 0.561 0.51071 0.93281 0.0
H2060 H 0.74562 0.48294 0.17945 0.0
H2061 H 0.69594 0.2662 0.20588 0.0
H2062 H 0.66339 0.48039 0.20285 0.0
H2063 H 0.74422 0.26906 0.17863 0.0
H2064 H 0.68016 0.34345 0.2048 0.0
H2065 H 0.74454 0.40402 0.1791 0.0
C2066 C 0.72719 0.46568 0.1845 0.0
C2067 C 0.70464 0.4882 0.1912 0.0
C2068 C 0.69345 0.32697 0.19901 0.0
C2069 C 0.70357 0.39774 0.19091 0.0
C2070 C 0.70225 0.28274 0.19959 0.0
C2071 C 0.72215 0.26109 0.19238 0.0
C2072 C 0.70509 0.34979 0.19121 0.0
C2073 C 0.72932 0.28433 0.1844 0.0
C2074 C 0.72649 0.42064 0.18429 0.0
C2075 C 0.68181 0.46426 0.19766 0.0
N2076 N 0.72159 0.32755 0.18409 0.0
N2077 N 0.68205 0.42026 0.1974 0.0
H2078 H 0.78021 0.42548 0.4527 0.0
H2079 H 0.00224 0.50806 0.43145 0.0
H2080 H 0.78916 0.52636 0.43274 0.0
H2081 H 0.99466 0.45263 0.45808 0.0
H2082 H 0.92456 0.49743 0.42975 0.0
H2083 H 0.85933 0.42102 0.45302 0.0
C2084 C 0.79886 0.44692 0.44844 0.0
C2085 C 0.77831 0.47665 0.44274 0.0
C2086 C 0.94009 0.48703 0.4359 0.0
C2087 C 0.86828 0.47055 0.44284 0.0
C2088 C 0.98453 0.49267 0.43686 0.0
C2089 C 0.00493 0.48196 0.445 0.0
C2090 C 0.91599 0.47015 0.44308 0.0
C2091 C 0.98018 0.46192 0.45174 0.0
C2092 C 0.84387 0.444 0.44856 0.0
C2093 C 0.80387 0.50288 0.4372 0.0
N2094 N 0.93683 0.45711 0.45068 0.0
N2095 N 0.84758 0.49915 0.43736 0.0
H2096 H 0.20741 0.51666 0.20981 0.0
H2097 H 0.27051 0.71808 0.17894 0.0
H2098 H 0.32209 0.52114 0.1934 0.0
H2099 H 0.18091 0.72812 0.20105 0.0
H2100 H 0.28141 0.64168 0.18259 0.0
H2101 H 0.19283 0.59231 0.20606 0.0
C2102 C 0.23029 0.53412 0.20566 0.0
C2103 C 0.26614 0.51301 0.20194 0.0
C2104 C 0.25891 0.66049 0.18656 0.0
C2105 C 0.24857 0.59849 0.19726 0.0
C2106 C 0.25196 0.7038 0.18436 0.0
C2107 C 0.22495 0.72936 0.18974 0.0
C2108 C 0.23837 0.64274 0.19414 0.0
C2109 C 0.20231 0.70948 0.1968 0.0
C2110 C 0.22156 0.57699 0.20339 0.0
C2111 C 0.29419 0.53657 0.1964 0.0
N2112 N 0.20983 0.66738 0.19886 0.0
N2113 N 0.2845 0.57798 0.19411 0.0
H2114 H 0.00538 0.51624 0.95862 0.0
H2115 H 0.21864 0.39895 0.94162 0.0
H2116 H 0.00931 0.44968 0.93312 0.0
H2117 H 0.21925 0.51181 0.95864 0.0
H2118 H 0.13978 0.40371 0.9406 0.0
H2119 H 0.08102 0.49979 0.96092 0.0
C2120 C 0.02171 0.49705 0.95359 0.0
C2121 C 0.00045 0.48381 0.94569 0.0
C2122 C 0.15723 0.42722 0.94459 0.0
C2123 C 0.08822 0.46592 0.94825 0.0
C2124 C 0.20215 0.4247 0.94516 0.0
C2125 C 0.22555 0.45566 0.95007 0.0
C2126 C 0.1355 0.46031 0.94914 0.0
C2127 C 0.20251 0.48732 0.95479 0.0
C2128 C 0.06527 0.48827 0.95487 0.0
C2129 C 0.02427 0.46038 0.93931 0.0
N2130 N 0.15869 0.48894 0.95418 0.0
N2131 N 0.06707 0.45219 0.94072 0.0
H2132 H 0.24217 0.43075 0.71152 0.0
H2133 H 0.27059 0.23824 0.67941 0.0
H2134 H 0.33012 0.44679 0.68924 0.0
H2135 H 0.28481 0.21694 0.70791 0.0
H2136 H 0.28565 0.31536 0.68184 0.0
H2137 H 0.2481 0.35201 0.70974 0.0
C2138 C 0.2629 0.41785 0.70631 0.0
C2139 C 0.28483 0.44549 0.70039 0.0
C2140 C 0.28604 0.29344 0.68752 0.0
C2141 C 0.29071 0.35596 0.69817 0.0
C2142 C 0.2778 0.24942 0.68615 0.0
C2143 C 0.27505 0.22118 0.69353 0.0
C2144 C 0.29058 0.30912 0.69633 0.0
C2145 C 0.28477 0.23772 0.70209 0.0
C2146 C 0.26616 0.37303 0.70528 0.0
C2147 C 0.3111 0.42683 0.69371 0.0
N2148 N 0.29087 0.28076 0.70331 0.0
N2149 N 0.31265 0.38324 0.69265 0.0
H2150 H 0.50774 0.56171 0.4532 0.0
H2151 H 0.28003 0.45507 0.44275 0.0
H2152 H 0.47981 0.49062 0.42896 0.0
H2153 H 0.29081 0.5636 0.46073 0.0
H2154 H 0.3568 0.46216 0.43908 0.0
H2155 H 0.43044 0.5622 0.45681 0.0
C2156 C 0.48517 0.54745 0.44849 0.0
C2157 C 0.50022 0.52579 0.4408 0.0
C2158 C 0.34258 0.48419 0.4439 0.0
C2159 C 0.4123 0.52485 0.44505 0.0
C2160 C 0.2991 0.47956 0.44612 0.0
C2161 C 0.27954 0.5086 0.45208 0.0
C2162 C 0.36671 0.51794 0.44773 0.0
C2163 C 0.30513 0.54033 0.45618 0.0
C2164 C 0.44118 0.54735 0.4506 0.0
C2165 C 0.46967 0.50785 0.43493 0.0
N2166 N 0.34757 0.54436 0.45389 0.0
N2167 N 0.42724 0.50694 0.43728 0.0
H2168 H 0.25665 0.44778 0.30121 0.0
H2169 H 0.2132 0.23935 0.32999 0.0
H2170 H 0.15066 0.44578 0.32006 0.0
H2171 H 0.25189 0.23184 0.30212 0.0
H2172 H 0.19501 0.31613 0.32764 0.0
H2173 H 0.26131 0.36881 0.30236 0.0
C2174 C 0.23406 0.43075 0.3055 0.0
C2175 C 0.20369 0.45343 0.31064 0.0
C2176 C 0.20687 0.29717 0.32204 0.0
C2177 C 0.20969 0.36353 0.31221 0.0
C2178 C 0.21715 0.25344 0.32337 0.0
C2179 C 0.23414 0.2289 0.31626 0.0
C2180 C 0.21467 0.31646 0.31363 0.0
C2181 C 0.23879 0.2491 0.30782 0.0
C2182 C 0.23688 0.38577 0.3062 0.0
C2183 C 0.17546 0.42965 0.31618 0.0
N2184 N 0.22985 0.29171 0.30679 0.0
N2185 N 0.17959 0.38604 0.31694 0.0
H2186 H 0.25369 0.50386 0.07592 0.0
H2187 H 0.48588 0.43582 0.05748 0.0
H2188 H 0.26878 0.42608 0.05212 0.0
H2189 H 0.4628 0.48728 0.084 0.0
H2190 H 0.40772 0.43077 0.05515 0.0
H2191 H 0.33163 0.50108 0.07834 0.0
C2192 C 0.27373 0.48674 0.07112 0.0
C2193 C 0.25502 0.4651 0.06383 0.0
C2194 C 0.41981 0.44251 0.06152 0.0
C2195 C 0.34427 0.46107 0.06661 0.0
C2196 C 0.46444 0.4452 0.06289 0.0
C2197 C 0.48105 0.46267 0.0709 0.0
C2198 C 0.39159 0.45772 0.0682 0.0
C2199 C 0.45167 0.4737 0.07771 0.0
C2200 C 0.31813 0.4847 0.07256 0.0
C2201 C 0.28219 0.44338 0.05779 0.0
N2202 N 0.40845 0.47174 0.07614 0.0
N2203 N 0.32561 0.44173 0.05933 0.0
H2204 H 0.2904 0.50005 0.81707 0.0
H2205 H 0.17714 0.72247 0.8071 0.0
H2206 H 0.16013 0.50423 0.80681 0.0
H2207 H 0.26289 0.70662 0.82976 0.0
H2208 H 0.17706 0.64435 0.80489 0.0
H2209 H 0.28798 0.57801 0.81955 0.0
C2210 C 0.26119 0.51755 0.81536 0.0
C2211 C 0.22495 0.49587 0.81193 0.0
C2212 C 0.19571 0.65798 0.81036 0.0
C2213 C 0.22252 0.58484 0.81453 0.0
C2214 C 0.19609 0.70248 0.81161 0.0
C2215 C 0.22039 0.72093 0.8186 0.0
C2216 C 0.22052 0.63181 0.81602 0.0
C2217 C 0.24382 0.69358 0.8243 0.0
C2218 C 0.2599 0.56186 0.81679 0.0
C2219 C 0.18852 0.51998 0.80952 0.0
N2220 N 0.24375 0.65018 0.82281 0.0
N2221 N 0.18818 0.56351 0.81086 0.0
H2222 H 0.21109 0.46261 0.55114 0.0
H2223 H -0.00436 0.52383 0.57747 0.0
H2224 H 0.2011 0.57821 0.5672 0.0
H2225 H -0.00341 0.44515 0.55352 0.0
H2226 H 0.07253 0.54057 0.57485 0.0
H2227 H 0.13275 0.45255 0.55258 0.0
C2228 C 0.19231 0.48615 0.55486 0.0
C2229 C 0.21251 0.52087 0.55917 0.0
C2230 C 0.05553 0.52005 0.57014 0.0
C2231 C 0.12353 0.50914 0.56105 0.0
C2232 C 0.01186 0.51044 0.57165 0.0
C2233 C 0.98955 0.4837 0.56563 0.0
C2234 C 0.07693 0.50191 0.56268 0.0
C2235 C 0.01215 0.4668 0.55822 0.0
C2236 C 0.14774 0.48029 0.55574 0.0
C2237 C 0.18679 0.55034 0.56397 0.0
N2238 N 0.05454 0.47593 0.55699 0.0
N2239 N 0.14369 0.54352 0.56489 0.0
H2240 H 0.22532 0.07783 0.3628 0.0
H2241 H 0.42605 0.08107 0.39694 0.0
H2242 H 0.35541 0.11339 0.35535 0.0
H2243 H 0.29951 0.03475 0.40447 0.0
H2244 H 0.39983 0.09356 0.38171 0.0
H2245 H 0.25068 0.06307 0.37813 0.0
C2246 C 0.25914 0.0827 0.36438 0.0
C2247 C 0.28821 0.09696 0.35775 0.0
C2248 C 0.37774 0.08051 0.38667 0.0
C2249 C 0.31749 0.07997 0.37529 0.0
C2250 C 0.39275 0.07329 0.39539 0.0
C2251 C 0.36499 0.05681 0.40203 0.0
C2252 C 0.33447 0.07144 0.3845 0.0
C2253 C 0.32212 0.0474 0.39957 0.0
C2254 C 0.27362 0.07412 0.37313 0.0
C2255 C 0.33172 0.10248 0.3602 0.0
N2256 N 0.30813 0.05501 0.39103 0.0
N2257 N 0.34493 0.09404 0.36874 0.0
H2258 H 0.21938 0.04092 0.65543 0.0
H2259 H 0.12752 0.09378 0.60619 0.0
H2260 H 0.16476 0.16383 0.64766 0.0
H2261 H 0.17166 0.96684 0.61407 0.0
H2262 H 0.14471 0.12045 0.62118 0.0
H2263 H 0.20666 0.01404 0.64016 0.0
C2264 C 0.20509 0.0624 0.65051 0.0
C2265 C 0.19305 0.10474 0.65287 0.0
C2266 C 0.15067 0.08674 0.61965 0.0
C2267 C 0.17815 0.07401 0.63537 0.0
C2268 C 0.14079 0.07141 0.61107 0.0
C2269 C 0.14798 0.02787 0.60884 0.0
C2270 C 0.16804 0.0585 0.62611 0.0
C2271 C 0.1654 0.00059 0.61548 0.0
C2272 C 0.19765 0.04694 0.64179 0.0
C2273 C 0.17449 0.13097 0.64619 0.0
N2274 N 0.17483 0.01635 0.62381 0.0
N2275 N 0.16756 0.11517 0.63778 0.0
H2276 H 0.14682 0.88619 0.85409 0.0
H2277 H 0.20485 0.94213 0.90518 0.0
H2278 H 0.27084 0.85622 0.86582 0.0
H2279 H 0.07412 0.92925 0.89544 0.0
H2280 H 0.23164 0.92103 0.89029 0.0
H2281 H 0.12185 0.91192 0.86871 0.0
C2282 C 0.16892 0.8851 0.85973 0.0
C2283 C 0.21103 0.8688 0.85871 0.0
C2284 C 0.19711 0.92302 0.89142 0.0
C2285 C 0.18253 0.8987 0.87551 0.0
C2286 C 0.18176 0.93534 0.89989 0.0
C2287 C 0.1371 0.93739 0.90158 0.0
C2288 C 0.16764 0.91326 0.88453 0.0
C2289 C 0.10878 0.92797 0.89447 0.0
C2290 C 0.15453 0.89974 0.86809 0.0
C2291 C 0.23807 0.86825 0.8663 0.0
N2292 N 0.1245 0.9164 0.88627 0.0
N2293 N 0.22342 0.88311 0.87437 0.0
H2294 H 0.35494 0.0186 0.11737 0.0
H2295 H 0.31416 0.80696 0.14701 0.0
H2296 H 0.35304 0.88975 0.10625 0.0
H2297 H 0.27455 0.93401 0.15571 0.0
H2298 H 0.33354 0.8372 0.13235 0.0
H2299 H 0.33087 0.9889 0.13184 0.0
C2300 C 0.34953 0.98411 0.11796 0.0
C2301 C 0.3561 0.95667 0.11057 0.0
C2302 C 0.32034 0.85844 0.13745 0.0
C2303 C 0.3288 0.92247 0.12712 0.0
C2304 C 0.30928 0.84119 0.14583 0.0
C2305 C 0.29264 0.86794 0.15261 0.0
C2306 C 0.31543 0.90297 0.13585 0.0
C2307 C 0.28708 0.91211 0.15067 0.0
C2308 C 0.3356 0.96722 0.12621 0.0
C2309 C 0.34836 0.91222 0.11174 0.0
N2310 N 0.2988 0.9283 0.1425 0.0
N2311 N 0.33543 0.89653 0.11985 0.0
H2312 H 0.65877 0.97408 0.60649 0.0
H2313 H 0.68407 0.83172 0.65105 0.0
H2314 H 0.65954 0.83448 0.60648 0.0
H2315 H 0.64312 0.96504 0.65138 0.0
H2316 H 0.68589 0.83415 0.6346 0.0
H2317 H 0.66222 0.97315 0.62288 0.0
C2318 C 0.6587 0.94323 0.60991 0.0
C2319 C 0.65729 0.90426 0.60508 0.0
C2320 C 0.67685 0.86297 0.63828 0.0
C2321 C 0.66338 0.90305 0.62385 0.0
C2322 C 0.6763 0.86173 0.64766 0.0
C2323 C 0.66399 0.89843 0.65256 0.0
C2324 C 0.66516 0.90121 0.63379 0.0
C2325 C 0.65287 0.93608 0.64783 0.0
C2326 C 0.6613 0.94275 0.61928 0.0
C2327 C 0.66003 0.86531 0.60992 0.0
N2328 N 0.65381 0.93657 0.6387 0.0
N2329 N 0.66285 0.86568 0.61903 0.0
H2330 H 0.81664 0.83862 0.35869 0.0
H2331 H 0.83744 0.97615 0.40391 0.0
H2332 H 0.84454 0.97527 0.35875 0.0
H2333 H 0.85344 0.83751 0.40287 0.0
H2334 H 0.83123 0.97743 0.38756 0.0
H2335 H 0.8194 0.83865 0.37514 0.0
C2336 C 0.82251 0.86878 0.36217 0.0
C2337 C 0.8298 0.90713 0.35738 0.0
C2338 C 0.83648 0.94682 0.39093 0.0
C2339 C 0.83384 0.90727 0.37616 0.0
C2340 C 0.84068 0.94609 0.40028 0.0
C2341 C 0.84735 0.90678 0.40481 0.0
C2342 C 0.83806 0.9079 0.38608 0.0
C2343 C 0.84869 0.86865 0.39968 0.0
C2344 C 0.8246 0.86869 0.37155 0.0
C2345 C 0.83864 0.94504 0.36222 0.0
N2346 N 0.84406 0.87015 0.39061 0.0
N2347 N 0.84029 0.94422 0.37135 0.0
H2348 H 0.91003 0.09342 0.10526 0.0
H2349 H 0.77859 0.09984 0.15148 0.0
H2350 H 0.77103 0.08479 0.10647 0.0
H2351 H 0.90819 0.14978 0.14857 0.0
H2352 H 0.7766 0.0859 0.13535 0.0
H2353 H 0.91178 0.10409 0.12157 0.0
C2354 C 0.87996 0.0929 0.10898 0.0
C2355 C 0.84036 0.08761 0.10455 0.0
C2356 C 0.80529 0.10028 0.13825 0.0
C2357 C 0.84201 0.10065 0.12315 0.0
C2358 C 0.80626 0.1089 0.14748 0.0
C2359 C 0.84316 0.12733 0.15142 0.0
C2360 C 0.84176 0.10932 0.13295 0.0
C2361 C 0.87888 0.13587 0.14584 0.0
C2362 C 0.88092 0.09953 0.11827 0.0
C2363 C 0.80225 0.08863 0.10966 0.0
N2364 N 0.87731 0.12678 0.13692 0.0
N2365 N 0.80399 0.09489 0.1187 0.0
H2366 H 0.73277 0.07187 0.90309 0.0
H2367 H 0.58519 0.15039 0.86249 0.0
H2368 H 0.59438 0.08419 0.90532 0.0
H2369 H 0.71146 0.09415 0.85848 0.0
H2370 H 0.58933 0.13109 0.87838 0.0
H2371 H 0.7272 0.08445 0.88688 0.0
C2372 C 0.70114 0.07666 0.90013 0.0
C2373 C 0.66392 0.07642 0.90551 0.0
C2374 C 0.61622 0.1232 0.87401 0.0
C2375 C 0.65738 0.09186 0.88703 0.0
C2376 C 0.614 0.13434 0.86493 0.0
C2377 C 0.64857 0.12512 0.85911 0.0
C2378 C 0.65336 0.10278 0.87735 0.0
C2379 C 0.6848 0.10383 0.86269 0.0
C2380 C 0.69799 0.08383 0.89089 0.0
C2381 C 0.62376 0.0832 0.90137 0.0
N2382 N 0.68636 0.09367 0.87159 0.0
N2383 N 0.62157 0.09107 0.89238 0.0
H2384 H 0.85613 0.65371 0.85914 0.0
H2385 H 0.82501 0.52428 0.90545 0.0
H2386 H 0.739 0.58517 0.8659 0.0
H2387 H 0.93512 0.60505 0.89947 0.0
H2388 H 0.79484 0.54181 0.89066 0.0
H2389 H 0.88671 0.63287 0.87361 0.0
C2390 C 0.83668 0.6344 0.86368 0.0
C2391 C 0.79477 0.62133 0.86127 0.0
C2392 C 0.82569 0.55551 0.89258 0.0
C2393 C 0.83 0.59689 0.87793 0.0
C2394 C 0.84309 0.54534 0.90101 0.0
C2395 C 0.88267 0.56332 0.90375 0.0
C2396 C 0.84808 0.58374 0.88681 0.0
C2397 C 0.90449 0.59047 0.89769 0.0
C2398 C 0.85427 0.62242 0.87196 0.0
C2399 C 0.77132 0.59621 0.86747 0.0
N2400 N 0.88689 0.5999 0.88954 0.0
N2401 N 0.78927 0.58474 0.87549 0.0
H2402 H 0.74803 0.58983 0.14729 0.0
H2403 H 0.545 0.602 0.11388 0.0
H2404 H 0.62635 0.64981 0.15407 0.0
H2405 H 0.65929 0.52682 0.10819 0.0
H2406 H 0.5752 0.62081 0.12852 0.0
H2407 H 0.71762 0.56851 0.13273 0.0
C2408 C 0.71506 0.59878 0.1457 0.0
C2409 C 0.68978 0.62174 0.15192 0.0
C2410 C 0.59365 0.60002 0.1241 0.0
C2411 C 0.65468 0.59721 0.13529 0.0
C2412 C 0.57634 0.58915 0.11573 0.0
C2413 C 0.5996 0.5628 0.10976 0.0
C2414 C 0.63478 0.58474 0.12654 0.0
C2415 C 0.64013 0.54719 0.11256 0.0
C2416 C 0.69763 0.58638 0.13741 0.0
C2417 C 0.64712 0.63215 0.14951 0.0
N2418 N 0.65653 0.5586 0.12071 0.0
N2419 N 0.63101 0.61987 0.1414 0.0
H2420 H 0.77135 0.41876 0.36398 0.0
H2421 H 0.56493 0.41223 0.39655 0.0
H2422 H 0.64419 0.37743 0.3557 0.0
H2423 H 0.68661 0.46933 0.40431 0.0
H2424 H 0.59424 0.39866 0.3816 0.0
H2425 H 0.74209 0.43615 0.37888 0.0
C2426 C 0.73736 0.41322 0.36529 0.0
C2427 C 0.71026 0.39651 0.35856 0.0
C2428 C 0.61453 0.41438 0.38654 0.0
C2429 C 0.67655 0.41644 0.37559 0.0
C2430 C 0.59775 0.4222 0.3951 0.0
C2431 C 0.6233 0.44194 0.40172 0.0
C2432 C 0.65739 0.42603 0.38456 0.0
C2433 C 0.66567 0.45412 0.39941 0.0
C2434 C 0.72064 0.42331 0.37379 0.0
C2435 C 0.66641 0.39021 0.36065 0.0
N2436 N 0.68147 0.44574 0.39104 0.0
N2437 N 0.65103 0.40007 0.36896 0.0
H2438 H 0.82784 0.30017 0.64553 0.0
H2439 H 0.84185 0.50419 0.61237 0.0
H2440 H 0.78526 0.42792 0.65312 0.0
H2441 H 0.8617 0.37221 0.6039 0.0
H2442 H 0.82398 0.47795 0.62749 0.0
H2443 H 0.8426 0.3268 0.63038 0.0
C2444 C 0.82133 0.3338 0.64401 0.0
C2445 C 0.80525 0.36179 0.65064 0.0
C2446 C 0.83223 0.45478 0.62231 0.0
C2447 C 0.82262 0.39277 0.63325 0.0
C2448 C 0.84263 0.46975 0.61368 0.0
C2449 C 0.85341 0.44042 0.60683 0.0
C2450 C 0.8329 0.41015 0.62414 0.0
C2451 C 0.85362 0.3961 0.60894 0.0
C2452 C 0.82981 0.34903 0.63534 0.0
C2453 C 0.79749 0.4051 0.64823 0.0
N2454 N 0.84366 0.38241 0.61739 0.0
N2455 N 0.8065 0.41931 0.63976 0.0
H2456 H 0.16836 0.33527 0.10987 0.0
H2457 H 0.14402 0.46812 0.15566 0.0
H2458 H 0.09598 0.45412 0.11214 0.0
H2459 H 0.18282 0.33411 0.15468 0.0
H2460 H 0.13684 0.468 0.13932 0.0
H2461 H 0.18412 0.33877 0.12594 0.0
C2462 C 0.15613 0.36238 0.11371 0.0
C2463 C 0.1314 0.39487 0.10956 0.0
C2464 C 0.1474 0.43876 0.14268 0.0
C2465 C 0.14938 0.39898 0.12799 0.0
C2466 C 0.15156 0.43877 0.15201 0.0
C2467 C 0.16469 0.40124 0.15658 0.0
C2468 C 0.15632 0.4009 0.13784 0.0
C2469 C 0.17393 0.36419 0.15148 0.0
C2470 C 0.16518 0.36431 0.12288 0.0
C2471 C 0.11636 0.4291 0.1149 0.0
N2472 N 0.16948 0.36494 0.14238 0.0
N2473 N 0.12558 0.43024 0.12384 0.0
H2474 H 0.40889 0.41058 0.85523 0.0
H2475 H 0.29035 0.36484 0.90197 0.0
H2476 H 0.27424 0.3754 0.85722 0.0
H2477 H 0.41491 0.4267 0.89993 0.0
H2478 H 0.28487 0.36519 0.88556 0.0
H2479 H 0.41269 0.414 0.87161 0.0
C2480 C 0.38016 0.40327 0.85911 0.0
C2481 C 0.3415 0.39147 0.85483 0.0
C2482 C 0.3132 0.3791 0.8887 0.0
C2483 C 0.34559 0.39553 0.8736 0.0
C2484 C 0.31637 0.37885 0.89805 0.0
C2485 C 0.35281 0.39641 0.9023 0.0
C2486 C 0.34709 0.39639 0.88355 0.0
C2487 C 0.38576 0.41387 0.89694 0.0
C2488 C 0.38236 0.40529 0.86846 0.0
C2489 C 0.3052 0.38282 0.8602 0.0
N2490 N 0.38221 0.41323 0.88783 0.0
N2491 N 0.3082 0.38482 0.86931 0.0
H2492 H 0.34267 0.52271 0.65257 0.0
H2493 H 0.32741 0.66626 0.60831 0.0
H2494 H 0.29856 0.65498 0.65294 0.0
H2495 H 0.32991 0.52679 0.60776 0.0
H2496 H 0.31955 0.66369 0.62468 0.0
H2497 H 0.34148 0.52413 0.63614 0.0
C2498 C 0.33225 0.55191 0.64917 0.0
C2499 C 0.32022 0.58862 0.65409 0.0
C2500 C 0.32197 0.63366 0.62097 0.0
C2501 C 0.31954 0.5908 0.63532 0.0
C2502 C 0.32657 0.63509 0.61164 0.0
C2503 C 0.33092 0.59671 0.6067 0.0
C2504 C 0.3217 0.59353 0.62539 0.0
C2505 C 0.32884 0.55722 0.61133 0.0
C2506 C 0.33151 0.55269 0.63981 0.0
C2507 C 0.30724 0.62572 0.64939 0.0
N2508 N 0.3248 0.55666 0.62042 0.0
N2509 N 0.30762 0.62602 0.64024 0.0
H2510 H 0.11119 0.52932 0.35935 0.0
H2511 H 0.20546 0.62953 0.40485 0.0
H2512 H 0.19535 0.64055 0.36016 0.0
H2513 H 0.09914 0.53927 0.40401 0.0
H2514 H 0.21 0.62651 0.38847 0.0
H2515 H 0.11427 0.52516 0.37574 0.0
C2516 C 0.13076 0.55259 0.36296 0.0
C2517 C 0.15361 0.58492 0.35834 0.0
C2518 C 0.186 0.60699 0.39188 0.0
C2519 C 0.15709 0.58044 0.37711 0.0
C2520 C 0.18337 0.60866 0.40123 0.0
C2521 C 0.15229 0.5841 0.40585 0.0
C2522 C 0.15722 0.58067 0.38708 0.0
C2523 C 0.12448 0.55773 0.40081 0.0
C2524 C 0.13247 0.55017 0.37232 0.0
C2525 C 0.17831 0.61425 0.36337 0.0
N2526 N 0.12754 0.55681 0.3917 0.0
N2527 N 0.1793 0.61136 0.37249 0.0
loop_
_geom_bond_atom_site_label_1
_geom_bond_atom_site_label_2
_geom_bond_distance
_geom_bond_site_symmetry_2
_ccdc_geom_bond_type
Co0 O3 1.970 . S
Co0 N17 1.989 . S
Co0 O25 1.967 . S
Co0 O32 1.920 . S
Co1 O4 1.966 . S
Co1 N10 2.022 . S
Co1 N18 1.993 . S
Co1 O26 1.941 . S
C2 O3 1.258 . S
C2 O4 1.263 . S
O3 Co0 1.970 . S
O3 C2 1.258 . S
O4 Co1 1.966 . S
O4 C2 1.263 . S
C5 O6 1.235 . S
C5 O32 1.289 . S
O6 C5 1.235 . S
C7 C9 1.400 . S
C7 N10 1.351 . S
C7 C12 1.501 . S
C8 C9 1.387 . S
C8 N11 1.341 . S
C9 C7 1.400 . S
C9 C8 1.387 . S
N10 Co1 2.022 . S
N10 C7 1.351 . S
N10 N11 1.365 . S
N11 C8 1.341 . S
N11 N10 1.365 . S
N11 H31 0.862 . S
C12 C7 1.501 . S
C12 H13 0.961 . S
C12 H14 0.961 . S
C12 H15 0.960 . S
H13 C12 0.961 . S
H14 C12 0.961 . S
H15 C12 0.960 . S
C16 N17 1.342 . S
C16 C20 1.401 . S
C16 C21 1.499 . S
N17 Co0 1.989 . S
N17 C16 1.342 . S
N17 N18 1.388 . S
N18 Co1 1.993 . S
N18 N17 1.388 . S
N18 C19 1.346 . S
C19 N18 1.346 . S
C19 C20 1.396 . S
C19 C29 1.510 . S
C20 C16 1.401 . S
C20 C19 1.396 . S
C21 C16 1.499 . S
C21 H22 0.959 . S
C21 H23 0.960 . S
C21 H24 0.961 . S
H22 C21 0.959 . S
H23 C21 0.960 . S
H24 C21 0.961 . S
O25 Co0 1.967 . S
O25 C33 1.258 . S
O26 Co1 1.941 . S
O26 C33 1.266 . S
H27 C29 0.959 . S
H28 C29 0.961 . S
C29 C19 1.510 . S
C29 H27 0.959 . S
C29 H28 0.961 . S
C29 H30 0.960 . S
H30 C29 0.960 . S
H31 N11 0.862 . S
O32 Co0 1.920 . S
O32 C5 1.289 . S
C33 O25 1.258 . S
C33 O26 1.266 . S
Co34 O37 1.970 . S
Co34 N51 1.989 . S
Co34 O59 1.967 . S
Co34 O66 1.920 . S
Co35 O38 1.959 1_455 S
Co35 N44 2.022 . S
Co35 N52 1.993 . S
Co35 O60 1.941 . S
C36 O37 1.258 1_655 S
C36 O38 1.266 . S
O37 Co34 1.970 . S
O37 C36 1.258 1_455 S
O38 Co35 1.959 1_655 S
O38 C36 1.266 . S
C39 O40 1.235 . S
C39 O66 1.289 . S
O40 C39 1.235 . S
C41 C43 1.400 . S
C41 N44 1.351 . S
C41 C46 1.501 1_545 S
C42 C43 1.387 . S
C42 N45 1.341 . S
C43 C41 1.400 . S
C43 C42 1.387 . S
N44 Co35 2.022 . S
N44 C41 1.351 . S
N44 N45 1.365 . S
N45 C42 1.341 . S
N45 N44 1.365 . S
N45 H65 0.862 . S
C46 C41 1.501 1_565 S
C46 H47 0.960 1_455 S
C46 H48 0.962 . S
C46 H49 0.959 1_455 S
H47 C46 0.960 1_655 S
H48 C46 0.962 . S
H49 C46 0.959 1_655 S
C50 N51 1.342 . S
C50 C54 1.401 . S
C50 C55 1.499 . S
N51 Co34 1.989 . S
N51 C50 1.342 . S
N51 N52 1.388 . S
N52 Co35 1.993 . S
N52 N51 1.388 . S
N52 C53 1.346 . S
C53 N52 1.346 . S
C53 C54 1.396 . S
C53 C63 1.510 . S
C54 C50 1.401 . S
C54 C53 1.396 . S
C55 C50 1.499 . S
C55 H56 0.959 . S
C55 H57 0.960 . S
C55 H58 0.961 . S
H56 C55 0.959 . S
H57 C55 0.960 . S
H58 C55 0.961 . S
O59 Co34 1.967 . S
O59 C67 1.258 . S
O60 Co35 1.941 . S
O60 C67 1.266 . S
H61 C63 0.959 . S
H62 C63 0.961 1_565 S
C63 C53 1.510 . S
C63 H61 0.959 . S
C63 H62 0.961 1_545 S
C63 H64 0.960 . S
H64 C63 0.960 . S
H65 N45 0.862 . S
O66 Co34 1.920 . S
O66 C39 1.289 . S
C67 O59 1.258 . S
C67 O60 1.266 . S
Co68 O71 1.970 . S
Co68 N85 1.989 . S
Co68 O93 1.967 . S
Co68 O100 1.920 . S
Co69 O72 1.966 . S
Co69 N78 2.022 . S
Co69 N86 1.993 . S
Co69 O94 1.941 . S
C70 O71 1.258 . S
C70 O72 1.263 . S
O71 Co68 1.970 . S
O71 C70 1.258 . S
O72 Co69 1.966 . S
O72 C70 1.263 . S
C73 O74 1.235 . S
C73 O100 1.289 . S
O74 C73 1.235 . S
C75 C77 1.400 . S
C75 N78 1.351 . S
C75 C80 1.501 . S
C76 C77 1.387 . S
C76 N79 1.341 . S
C77 C75 1.400 . S
C77 C76 1.387 . S
N78 Co69 2.022 . S
N78 C75 1.351 . S
N78 N79 1.365 . S
N79 C76 1.341 . S
N79 N78 1.365 . S
N79 H99 0.862 . S
C80 C75 1.501 . S
C80 H81 0.961 . S
C80 H82 0.961 . S
C80 H83 0.960 . S
H81 C80 0.961 . S
H82 C80 0.961 . S
H83 C80 0.960 . S
C84 N85 1.342 . S
C84 C88 1.401 . S
C84 C89 1.499 . S
N85 Co68 1.989 . S
N85 C84 1.342 . S
N85 N86 1.388 . S
N86 Co69 1.993 . S
N86 N85 1.388 . S
N86 C87 1.346 . S
C87 N86 1.346 . S
C87 C88 1.396 . S
C87 C97 1.510 . S
C88 C84 1.401 . S
C88 C87 1.396 . S
C89 C84 1.499 . S
C89 H90 0.959 . S
C89 H91 0.960 . S
C89 H92 0.961 . S
H90 C89 0.959 . S
H91 C89 0.960 . S
H92 C89 0.961 . S
O93 Co68 1.967 . S
O93 C101 1.258 . S
O94 Co69 1.941 . S
O94 C101 1.266 . S
H95 C97 0.959 . S
H96 C97 0.961 . S
C97 C87 1.510 . S
C97 H95 0.959 . S
C97 H96 0.961 . S
C97 H98 0.960 . S
H98 C97 0.960 . S
H99 N79 0.862 . S
O100 Co68 1.920 . S
O100 C73 1.289 . S
C101 O93 1.258 . S
C101 O94 1.266 . S
Co102 O105 1.970 . S
Co102 N119 1.989 . S
Co102 O127 1.967 . S
Co102 O134 1.920 . S
Co103 O106 1.966 . S
Co103 N112 2.022 . S
Co103 N120 1.993 . S
Co103 O128 1.941 . S
C104 O105 1.258 . S
C104 O106 1.263 . S
O105 Co102 1.970 . S
O105 C104 1.258 . S
O106 Co103 1.966 . S
O106 C104 1.263 . S
C107 O108 1.235 . S
C107 O134 1.289 . S
O108 C107 1.235 . S
C109 C111 1.400 . S
C109 N112 1.351 . S
C109 C114 1.501 1_565 S
C110 C111 1.387 . S
C110 N113 1.341 . S
C111 C109 1.400 . S
C111 C110 1.387 . S
N112 Co103 2.022 . S
N112 C109 1.351 . S
N112 N113 1.365 . S
N113 C110 1.341 . S
N113 N112 1.365 . S
N113 H133 0.862 . S
C114 C109 1.501 1_545 S
C114 H115 0.961 . S
C114 H116 0.961 . S
C114 H117 0.960 . S
H115 C114 0.961 . S
H116 C114 0.961 . S
H117 C114 0.960 . S
C118 N119 1.342 . S
C118 C122 1.401 . S
C118 C123 1.499 . S
N119 Co102 1.989 . S
N119 C118 1.342 . S
N119 N120 1.388 . S
N120 Co103 1.993 . S
N120 N119 1.388 . S
N120 C121 1.346 . S
C121 N120 1.346 . S
C121 C122 1.396 . S
C121 C131 1.510 . S
C122 C118 1.401 . S
C122 C121 1.396 . S
C123 C118 1.499 . S
C123 H124 0.959 . S
C123 H125 0.960 . S
C123 H126 0.961 . S
H124 C123 0.959 . S
H125 C123 0.960 . S
H126 C123 0.961 . S
O127 Co102 1.967 . S
O127 C135 1.258 . S
O128 Co103 1.941 . S
O128 C135 1.266 . S
H129 C131 0.959 . S
H130 C131 0.961 1_545 S
C131 C121 1.510 . S
C131 H129 0.959 . S
C131 H130 0.961 1_565 S
C131 H132 0.960 . S
H132 C131 0.960 . S
H133 N113 0.862 . S
O134 Co102 1.920 . S
O134 C107 1.289 . S
C135 O127 1.258 . S
C135 O128 1.266 . S
Co136 O139 1.970 . S
Co136 N153 1.989 . S
Co136 O161 1.967 . S
Co136 O168 1.920 . S
Co137 O140 1.966 . S
Co137 N146 2.022 . S
Co137 N154 1.993 . S
Co137 O162 1.941 . S
C138 O139 1.258 . S
C138 O140 1.263 . S
O139 Co136 1.970 . S
O139 C138 1.258 . S
O140 Co137 1.966 . S
O140 C138 1.263 . S
C141 O142 1.235 . S
C141 O168 1.289 . S
O142 C141 1.235 . S
C143 C145 1.400 . S
C143 N146 1.351 . S
C143 C148 1.501 . S
C144 C145 1.387 . S
C144 N147 1.341 . S
C145 C143 1.400 . S
C145 C144 1.387 . S
N146 Co137 2.022 . S
N146 C143 1.351 . S
N146 N147 1.365 . S
N147 C144 1.341 . S
N147 N146 1.365 . S
N147 H167 0.862 . S
C148 C143 1.501 . S
C148 H149 0.961 . S
C148 H150 0.961 . S
C148 H151 0.960 . S
H149 C148 0.961 . S
H150 C148 0.961 . S
H151 C148 0.960 . S
C152 N153 1.342 . S
C152 C156 1.401 . S
C152 C157 1.499 . S
N153 Co136 1.989 . S
N153 C152 1.342 . S
N153 N154 1.388 . S
N154 Co137 1.993 . S
N154 N153 1.388 . S
N154 C155 1.346 . S
C155 N154 1.346 . S
C155 C156 1.396 . S
C155 C165 1.510 . S
C156 C152 1.401 . S
C156 C155 1.396 . S
C157 C152 1.499 . S
C157 H158 0.959 . S
C157 H159 0.960 . S
C157 H160 0.961 . S
H158 C157 0.959 . S
H159 C157 0.960 . S
H160 C157 0.961 . S
O161 Co136 1.967 . S
O161 C169 1.258 . S
O162 Co137 1.941 . S
O162 C169 1.266 . S
H163 C165 0.959 . S
H164 C165 0.961 . S
C165 C155 1.510 . S
C165 H163 0.959 . S
C165 H164 0.961 . S
C165 H166 0.960 . S
H166 C165 0.960 . S
H167 N147 0.862 . S
O168 Co136 1.920 . S
O168 C141 1.289 . S
C169 O161 1.258 . S
C169 O162 1.266 . S
Co170 O173 1.970 . S
Co170 N187 1.989 . S
Co170 O195 1.967 . S
Co170 O202 1.920 . S
Co171 O174 1.966 . S
Co171 N180 2.022 . S
Co171 N188 1.993 . S
Co171 O196 1.941 . S
C172 O173 1.258 . S
C172 O174 1.263 . S
O173 Co170 1.970 . S
O173 C172 1.258 . S
O174 Co171 1.966 . S
O174 C172 1.263 . S
C175 O176 1.235 . S
C175 O202 1.289 . S
O176 C175 1.235 . S
C177 C179 1.400 . S
C177 N180 1.351 . S
C177 C182 1.501 1_545 S
C178 C179 1.387 . S
C178 N181 1.341 . S
C179 C177 1.400 . S
C179 C178 1.387 . S
N180 Co171 2.022 . S
N180 C177 1.351 . S
N180 N181 1.365 . S
N181 C178 1.341 . S
N181 N180 1.365 . S
N181 H201 0.862 . S
C182 C177 1.501 1_565 S
C182 H183 0.961 . S
C182 H184 0.961 . S
C182 H185 0.960 . S
H183 C182 0.961 . S
H184 C182 0.961 . S
H185 C182 0.960 . S
C186 N187 1.342 . S
C186 C190 1.401 . S
C186 C191 1.499 . S
N187 Co170 1.989 . S
N187 C186 1.342 . S
N187 N188 1.388 . S
N188 Co171 1.993 . S
N188 N187 1.388 . S
N188 C189 1.346 . S
C189 N188 1.346 . S
C189 C190 1.396 . S
C189 C199 1.510 . S
C190 C186 1.401 . S
C190 C189 1.396 . S
C191 C186 1.499 . S
C191 H192 0.959 . S
C191 H193 0.960 . S
C191 H194 0.961 . S
H192 C191 0.959 . S
H193 C191 0.960 . S
H194 C191 0.961 . S
O195 Co170 1.967 . S
O195 C203 1.258 . S
O196 Co171 1.941 . S
O196 C203 1.266 . S
H197 C199 0.959 . S
H198 C199 0.961 1_565 S
C199 C189 1.510 . S
C199 H197 0.959 . S
C199 H198 0.961 1_545 S
C199 H200 0.960 . S
H200 C199 0.960 . S
H201 N181 0.862 . S
O202 Co170 1.920 . S
O202 C175 1.289 . S
C203 O195 1.258 . S
C203 O196 1.266 . S
Co204 O207 1.970 . S
Co204 N221 1.989 . S
Co204 O229 1.967 . S
Co204 O236 1.920 . S
Co205 O208 1.966 . S
Co205 N214 2.022 . S
Co205 N222 1.993 . S
Co205 O230 1.941 . S
C206 O207 1.258 . S
C206 O208 1.263 . S
O207 Co204 1.970 . S
O207 C206 1.258 . S
O208 Co205 1.966 . S
O208 C206 1.263 . S
C209 O210 1.235 . S
C209 O236 1.289 . S
O210 C209 1.235 . S
C211 C213 1.400 . S
C211 N214 1.351 . S
C211 C216 1.501 . S
C212 C213 1.387 . S
C212 N215 1.341 . S
C213 C211 1.400 . S
C213 C212 1.387 . S
N214 Co205 2.022 . S
N214 C211 1.351 . S
N214 N215 1.365 . S
N215 C212 1.341 . S
N215 N214 1.365 . S
N215 H235 0.862 . S
C216 C211 1.501 . S
C216 H217 0.961 . S
C216 H218 0.961 . S
C216 H219 0.960 . S
H217 C216 0.961 . S
H218 C216 0.961 . S
H219 C216 0.960 . S
C220 N221 1.342 . S
C220 C224 1.401 . S
C220 C225 1.499 . S
N221 Co204 1.989 . S
N221 C220 1.342 . S
N221 N222 1.388 . S
N222 Co205 1.993 . S
N222 N221 1.388 . S
N222 C223 1.346 . S
C223 N222 1.346 . S
C223 C224 1.396 . S
C223 C233 1.510 . S
C224 C220 1.401 . S
C224 C223 1.396 . S
C225 C220 1.499 . S
C225 H226 0.959 . S
C225 H227 0.960 . S
C225 H228 0.961 . S
H226 C225 0.959 . S
H227 C225 0.960 . S
H228 C225 0.961 . S
O229 Co204 1.967 . S
O229 C237 1.258 . S
O230 Co205 1.941 . S
O230 C237 1.266 . S
H231 C233 0.959 . S
H232 C233 0.961 . S
C233 C223 1.510 . S
C233 H231 0.959 . S
C233 H232 0.961 . S
C233 H234 0.960 . S
H234 C233 0.960 . S
H235 N215 0.862 . S
O236 Co204 1.920 . S
O236 C209 1.289 . S
C237 O229 1.258 . S
C237 O230 1.266 . S
Co238 O241 1.970 . S
Co238 N255 1.989 . S
Co238 O263 1.967 . S
Co238 O270 1.920 . S
Co239 O242 1.959 1_455 S
Co239 N248 2.022 . S
Co239 N256 1.993 . S
Co239 O264 1.941 . S
C240 O241 1.258 1_655 S
C240 O242 1.266 . S
O241 Co238 1.970 . S
O241 C240 1.258 1_455 S
O242 Co239 1.959 1_655 S
O242 C240 1.266 . S
C243 O244 1.235 . S
C243 O270 1.289 . S
O244 C243 1.235 . S
C245 C247 1.400 . S
C245 N248 1.351 . S
C245 C250 1.501 1_565 S
C246 C247 1.387 . S
C246 N249 1.341 . S
C247 C245 1.400 . S
C247 C246 1.387 . S
N248 Co239 2.022 . S
N248 C245 1.351 . S
N248 N249 1.365 . S
N249 C246 1.341 . S
N249 N248 1.365 . S
N249 H269 0.862 . S
C250 C245 1.501 1_545 S
C250 H251 0.960 1_455 S
C250 H252 0.962 . S
C250 H253 0.959 1_455 S
H251 C250 0.960 1_655 S
H252 C250 0.962 . S
H253 C250 0.959 1_655 S
C254 N255 1.342 . S
C254 C258 1.401 . S
C254 C259 1.499 . S
N255 Co238 1.989 . S
N255 C254 1.342 . S
N255 N256 1.388 . S
N256 Co239 1.993 . S
N256 N255 1.388 . S
N256 C257 1.346 . S
C257 N256 1.346 . S
C257 C258 1.396 . S
C257 C267 1.510 . S
C258 C254 1.401 . S
C258 C257 1.396 . S
C259 C254 1.499 . S
C259 H260 0.959 . S
C259 H261 0.960 . S
C259 H262 0.961 . S
H260 C259 0.959 . S
H261 C259 0.960 . S
H262 C259 0.961 . S
O263 Co238 1.967 . S
O263 C271 1.258 . S
O264 Co239 1.941 . S
O264 C271 1.266 . S
H265 C267 0.959 . S
H266 C267 0.961 1_545 S
C267 C257 1.510 . S
C267 H265 0.959 . S
C267 H266 0.961 1_565 S
C267 H268 0.960 . S
H268 C267 0.960 . S
H269 N249 0.862 . S
O270 Co238 1.920 . S
O270 C243 1.289 . S
C271 O263 1.258 . S
C271 O264 1.266 . S
Co272 O275 1.970 . S
Co272 N289 1.989 . S
Co272 O297 1.967 . S
Co272 O304 1.920 . S
Co273 O276 1.966 . S
Co273 N282 2.022 . S
Co273 N290 1.993 . S
Co273 O298 1.941 . S
C274 O275 1.258 . S
C274 O276 1.263 . S
O275 Co272 1.970 . S
O275 C274 1.258 . S
O276 Co273 1.966 . S
O276 C274 1.263 . S
C277 O278 1.235 . S
C277 O304 1.289 . S
O278 C277 1.235 . S
C279 C281 1.400 . S
C279 N282 1.351 . S
C279 C284 1.501 . S
C280 C281 1.387 . S
C280 N283 1.341 . S
C281 C279 1.400 . S
C281 C280 1.387 . S
N282 Co273 2.022 . S
N282 C279 1.351 . S
N282 N283 1.365 . S
N283 C280 1.341 . S
N283 N282 1.365 . S
N283 H303 0.862 . S
C284 C279 1.501 . S
C284 H285 0.961 . S
C284 H286 0.961 . S
C284 H287 0.960 . S
H285 C284 0.961 . S
H286 C284 0.961 . S
H287 C284 0.960 . S
C288 N289 1.342 . S
C288 C292 1.401 . S
C288 C293 1.499 . S
N289 Co272 1.989 . S
N289 C288 1.342 . S
N289 N290 1.388 . S
N290 Co273 1.993 . S
N290 N289 1.388 . S
N290 C291 1.346 . S
C291 N290 1.346 . S
C291 C292 1.396 . S
C291 C301 1.510 . S
C292 C288 1.401 . S
C292 C291 1.396 . S
C293 C288 1.499 . S
C293 H294 0.959 . S
C293 H295 0.960 . S
C293 H296 0.961 . S
H294 C293 0.959 . S
H295 C293 0.960 . S
H296 C293 0.961 . S
O297 Co272 1.967 . S
O297 C305 1.258 . S
O298 Co273 1.941 . S
O298 C305 1.266 . S
H299 C301 0.959 . S
H300 C301 0.961 . S
C301 C291 1.510 . S
C301 H299 0.959 . S
C301 H300 0.961 . S
C301 H302 0.960 . S
H302 C301 0.960 . S
H303 N283 0.862 . S
O304 Co272 1.920 . S
O304 C277 1.289 . S
C305 O297 1.258 . S
C305 O298 1.266 . S
Co306 O309 1.970 . S
Co306 N323 1.989 . S
Co306 O331 1.967 . S
Co306 O338 1.920 . S
Co307 O310 1.966 . S
Co307 N316 2.022 . S
Co307 N324 1.993 . S
Co307 O332 1.941 . S
C308 O309 1.258 1_455 S
C308 O310 1.263 1_455 S
O309 Co306 1.970 . S
O309 C308 1.258 1_655 S
O310 Co307 1.966 . S
O310 C308 1.263 1_655 S
C311 O312 1.235 1_565 S
C311 O338 1.289 . S
O312 C311 1.235 1_545 S
C313 C315 1.400 . S
C313 N316 1.351 . S
C313 C318 1.501 . S
C314 C315 1.387 . S
C314 N317 1.341 . S
C315 C313 1.400 . S
C315 C314 1.387 . S
N316 Co307 2.022 . S
N316 C313 1.351 . S
N316 N317 1.365 . S
N317 C314 1.341 . S
N317 N316 1.365 . S
N317 H337 0.862 . S
C318 C313 1.501 . S
C318 H319 0.961 . S
C318 H320 0.961 1_565 S
C318 H321 0.960 . S
H319 C318 0.961 . S
H320 C318 0.961 1_545 S
H321 C318 0.960 . S
C322 N323 1.342 . S
C322 C326 1.401 . S
C322 C327 1.499 . S
N323 Co306 1.989 . S
N323 C322 1.342 . S
N323 N324 1.388 . S
N324 Co307 1.993 . S
N324 N323 1.388 . S
N324 C325 1.346 . S
C325 N324 1.346 . S
C325 C326 1.396 . S
C325 C335 1.510 . S
C326 C322 1.401 . S
C326 C325 1.396 . S
C327 C322 1.499 . S
C327 H328 0.959 . S
C327 H329 0.960 1_565 S
C327 H330 0.961 . S
H328 C327 0.959 . S
H329 C327 0.960 1_545 S
H330 C327 0.961 . S
O331 Co306 1.967 . S
O331 C339 1.258 . S
O332 Co307 1.941 . S
O332 C339 1.266 . S
H333 C335 0.959 . S
H334 C335 0.961 . S
C335 C325 1.510 . S
C335 H333 0.959 . S
C335 H334 0.961 . S
C335 H336 0.960 . S
H336 C335 0.960 . S
H337 N317 0.862 . S
O338 Co306 1.920 . S
O338 C311 1.289 . S
C339 O331 1.258 . S
C339 O332 1.266 . S
Co340 O343 1.970 . S
Co340 N357 1.989 . S
Co340 O365 1.967 . S
Co340 O372 1.920 . S
Co341 O344 1.966 . S
Co341 N350 2.022 . S
Co341 N358 1.993 . S
Co341 O366 1.941 . S
C342 O343 1.258 . S
C342 O344 1.263 . S
O343 Co340 1.970 . S
O343 C342 1.258 . S
O344 Co341 1.966 . S
O344 C342 1.263 . S
C345 O346 1.235 . S
C345 O372 1.289 . S
O346 C345 1.235 . S
C347 C349 1.400 . S
C347 N350 1.351 . S
C347 C352 1.501 . S
C348 C349 1.387 . S
C348 N351 1.341 . S
C349 C347 1.400 . S
C349 C348 1.387 . S
N350 Co341 2.022 . S
N350 C347 1.351 . S
N350 N351 1.365 . S
N351 C348 1.341 . S
N351 N350 1.365 . S
N351 H371 0.862 . S
C352 C347 1.501 . S
C352 H353 0.961 . S
C352 H354 0.961 . S
C352 H355 0.960 . S
H353 C352 0.961 . S
H354 C352 0.961 . S
H355 C352 0.960 . S
C356 N357 1.342 . S
C356 C360 1.401 . S
C356 C361 1.499 . S
N357 Co340 1.989 . S
N357 C356 1.342 . S
N357 N358 1.388 . S
N358 Co341 1.993 . S
N358 N357 1.388 . S
N358 C359 1.346 . S
C359 N358 1.346 . S
C359 C360 1.396 . S
C359 C369 1.510 . S
C360 C356 1.401 . S
C360 C359 1.396 . S
C361 C356 1.499 . S
C361 H362 0.959 . S
C361 H363 0.960 . S
C361 H364 0.961 . S
H362 C361 0.959 . S
H363 C361 0.960 . S
H364 C361 0.961 . S
O365 Co340 1.967 . S
O365 C373 1.258 . S
O366 Co341 1.941 . S
O366 C373 1.266 . S
H367 C369 0.959 . S
H368 C369 0.961 . S
C369 C359 1.510 . S
C369 H367 0.959 . S
C369 H368 0.961 . S
C369 H370 0.960 . S
H370 C369 0.960 . S
H371 N351 0.862 . S
O372 Co340 1.920 . S
O372 C345 1.289 . S
C373 O365 1.258 . S
C373 O366 1.266 . S
Co374 O377 1.970 . S
Co374 N391 1.989 . S
Co374 O399 1.967 . S
Co374 O406 1.920 . S
Co375 O378 1.966 . S
Co375 N384 2.022 . S
Co375 N392 1.993 . S
Co375 O400 1.941 . S
C376 O377 1.258 . S
C376 O378 1.263 . S
O377 Co374 1.970 . S
O377 C376 1.258 . S
O378 Co375 1.966 . S
O378 C376 1.263 . S
C379 O380 1.235 1_545 S
C379 O406 1.289 . S
O380 C379 1.235 1_565 S
C381 C383 1.400 . S
C381 N384 1.351 . S
C381 C386 1.501 . S
C382 C383 1.387 . S
C382 N385 1.341 . S
C383 C381 1.400 . S
C383 C382 1.387 . S
N384 Co375 2.022 . S
N384 C381 1.351 . S
N384 N385 1.365 . S
N385 C382 1.341 . S
N385 N384 1.365 . S
N385 H405 0.862 . S
C386 C381 1.501 . S
C386 H387 0.961 . S
C386 H388 0.961 1_545 S
C386 H389 0.960 . S
H387 C386 0.961 . S
H388 C386 0.961 1_565 S
H389 C386 0.960 . S
C390 N391 1.342 . S
C390 C394 1.401 . S
C390 C395 1.499 . S
N391 Co374 1.989 . S
N391 C390 1.342 . S
N391 N392 1.388 . S
N392 Co375 1.993 . S
N392 N391 1.388 . S
N392 C393 1.346 . S
C393 N392 1.346 . S
C393 C394 1.396 . S
C393 C403 1.510 . S
C394 C390 1.401 . S
C394 C393 1.396 . S
C395 C390 1.499 . S
C395 H396 0.959 . S
C395 H397 0.960 1_545 S
C395 H398 0.961 . S
H396 C395 0.959 . S
H397 C395 0.960 1_565 S
H398 C395 0.961 . S
O399 Co374 1.967 . S
O399 C407 1.258 . S
O400 Co375 1.941 . S
O400 C407 1.266 . S
H401 C403 0.959 . S
H402 C403 0.961 . S
C403 C393 1.510 . S
C403 H401 0.959 . S
C403 H402 0.961 . S
C403 H404 0.960 . S
H404 C403 0.960 . S
H405 N385 0.862 . S
O406 Co374 1.920 . S
O406 C379 1.289 . S
C407 O399 1.258 . S
C407 O400 1.266 . S
Co408 O411 1.970 . S
Co408 N425 1.989 . S
Co408 O433 1.967 . S
Co408 O440 1.920 . S
Co409 O412 1.966 . S
Co409 N418 2.022 . S
Co409 N426 1.993 . S
Co409 O434 1.941 . S
C410 O411 1.258 . S
C410 O412 1.263 . S
O411 Co408 1.970 . S
O411 C410 1.258 . S
O412 Co409 1.966 . S
O412 C410 1.263 . S
C413 O414 1.235 . S
C413 O440 1.289 . S
O414 C413 1.235 . S
C415 C417 1.400 . S
C415 N418 1.351 . S
C415 C420 1.501 . S
C416 C417 1.387 . S
C416 N419 1.341 . S
C417 C415 1.400 . S
C417 C416 1.387 . S
N418 Co409 2.022 . S
N418 C415 1.351 . S
N418 N419 1.365 . S
N419 C416 1.341 . S
N419 N418 1.365 . S
N419 H439 0.862 . S
C420 C415 1.501 . S
C420 H421 0.961 . S
C420 H422 0.961 . S
C420 H423 0.960 . S
H421 C420 0.961 . S
H422 C420 0.961 . S
H423 C420 0.960 . S
C424 N425 1.342 . S
C424 C428 1.401 . S
C424 C429 1.499 . S
N425 Co408 1.989 . S
N425 C424 1.342 . S
N425 N426 1.388 . S
N426 Co409 1.993 . S
N426 N425 1.388 . S
N426 C427 1.346 . S
C427 N426 1.346 . S
C427 C428 1.396 . S
C427 C437 1.510 . S
C428 C424 1.401 . S
C428 C427 1.396 . S
C429 C424 1.499 . S
C429 H430 0.959 . S
C429 H431 0.960 . S
C429 H432 0.961 . S
H430 C429 0.959 . S
H431 C429 0.960 . S
H432 C429 0.961 . S
O433 Co408 1.967 . S
O433 C441 1.258 . S
O434 Co409 1.941 . S
O434 C441 1.266 . S
H435 C437 0.959 . S
H436 C437 0.961 . S
C437 C427 1.510 . S
C437 H435 0.959 . S
C437 H436 0.961 . S
C437 H438 0.960 . S
H438 C437 0.960 . S
H439 N419 0.862 . S
O440 Co408 1.920 . S
O440 C413 1.289 . S
C441 O433 1.258 . S
C441 O434 1.266 . S
Co442 O445 1.970 . S
Co442 N459 1.989 . S
Co442 O467 1.967 . S
Co442 O474 1.920 . S
Co443 O446 1.966 . S
Co443 N452 2.022 . S
Co443 N460 1.993 . S
Co443 O468 1.941 . S
C444 O445 1.258 . S
C444 O446 1.263 . S
O445 Co442 1.970 . S
O445 C444 1.258 . S
O446 Co443 1.966 . S
O446 C444 1.263 . S
C447 O448 1.235 1_565 S
C447 O474 1.289 . S
O448 C447 1.235 1_545 S
C449 C451 1.400 . S
C449 N452 1.351 . S
C449 C454 1.501 . S
C450 C451 1.387 . S
C450 N453 1.341 . S
C451 C449 1.400 . S
C451 C450 1.387 . S
N452 Co443 2.022 . S
N452 C449 1.351 . S
N452 N453 1.365 . S
N453 C450 1.341 . S
N453 N452 1.365 . S
N453 H473 0.862 . S
C454 C449 1.501 . S
C454 H455 0.961 . S
C454 H456 0.961 1_565 S
C454 H457 0.960 . S
H455 C454 0.961 . S
H456 C454 0.961 1_545 S
H457 C454 0.960 . S
C458 N459 1.342 . S
C458 C462 1.401 . S
C458 C463 1.499 . S
N459 Co442 1.989 . S
N459 C458 1.342 . S
N459 N460 1.388 . S
N460 Co443 1.993 . S
N460 N459 1.388 . S
N460 C461 1.346 . S
C461 N460 1.346 . S
C461 C462 1.396 . S
C461 C471 1.510 . S
C462 C458 1.401 . S
C462 C461 1.396 . S
C463 C458 1.499 . S
C463 H464 0.959 . S
C463 H465 0.960 1_565 S
C463 H466 0.961 . S
H464 C463 0.959 . S
H465 C463 0.960 1_545 S
H466 C463 0.961 . S
O467 Co442 1.967 . S
O467 C475 1.258 . S
O468 Co443 1.941 . S
O468 C475 1.266 . S
H469 C471 0.959 . S
H470 C471 0.961 . S
C471 C461 1.510 . S
C471 H469 0.959 . S
C471 H470 0.961 . S
C471 H472 0.960 . S
H472 C471 0.960 . S
H473 N453 0.862 . S
O474 Co442 1.920 . S
O474 C447 1.289 . S
C475 O467 1.258 . S
C475 O468 1.266 . S
Co476 O479 1.970 . S
Co476 N493 1.989 . S
Co476 O501 1.967 . S
Co476 O508 1.920 . S
Co477 O480 1.966 . S
Co477 N486 2.022 . S
Co477 N494 1.993 . S
Co477 O502 1.941 . S
C478 O479 1.258 . S
C478 O480 1.263 . S
O479 Co476 1.970 . S
O479 C478 1.258 . S
O480 Co477 1.966 . S
O480 C478 1.263 . S
C481 O482 1.235 . S
C481 O508 1.289 . S
O482 C481 1.235 . S
C483 C485 1.400 . S
C483 N486 1.351 . S
C483 C488 1.501 . S
C484 C485 1.387 . S
C484 N487 1.341 . S
C485 C483 1.400 . S
C485 C484 1.387 . S
N486 Co477 2.022 . S
N486 C483 1.351 . S
N486 N487 1.365 . S
N487 C484 1.341 . S
N487 N486 1.365 . S
N487 H507 0.862 . S
C488 C483 1.501 . S
C488 H489 0.961 . S
C488 H490 0.961 . S
C488 H491 0.960 . S
H489 C488 0.961 . S
H490 C488 0.961 . S
H491 C488 0.960 . S
C492 N493 1.342 . S
C492 C496 1.401 . S
C492 C497 1.499 . S
N493 Co476 1.989 . S
N493 C492 1.342 . S
N493 N494 1.388 . S
N494 Co477 1.993 . S
N494 N493 1.388 . S
N494 C495 1.346 . S
C495 N494 1.346 . S
C495 C496 1.396 . S
C495 C505 1.510 . S
C496 C492 1.401 . S
C496 C495 1.396 . S
C497 C492 1.499 . S
C497 H498 0.959 . S
C497 H499 0.960 . S
C497 H500 0.961 . S
H498 C497 0.959 . S
H499 C497 0.960 . S
H500 C497 0.961 . S
O501 Co476 1.967 . S
O501 C509 1.258 . S
O502 Co477 1.941 . S
O502 C509 1.266 . S
H503 C505 0.959 . S
H504 C505 0.961 . S
C505 C495 1.510 . S
C505 H503 0.959 . S
C505 H504 0.961 . S
C505 H506 0.960 . S
H506 C505 0.960 . S
H507 N487 0.862 . S
O508 Co476 1.920 . S
O508 C481 1.289 . S
C509 O501 1.258 . S
C509 O502 1.266 . S
Co510 O513 1.970 . S
Co510 N527 1.989 . S
Co510 O535 1.967 . S
Co510 O542 1.920 . S
Co511 O514 1.966 . S
Co511 N520 2.022 . S
Co511 N528 1.993 . S
Co511 O536 1.941 . S
C512 O513 1.258 1_455 S
C512 O514 1.263 1_455 S
O513 Co510 1.970 . S
O513 C512 1.258 1_655 S
O514 Co511 1.966 . S
O514 C512 1.263 1_655 S
C515 O516 1.235 1_545 S
C515 O542 1.289 . S
O516 C515 1.235 1_565 S
C517 C519 1.400 . S
C517 N520 1.351 . S
C517 C522 1.501 . S
C518 C519 1.387 . S
C518 N521 1.341 . S
C519 C517 1.400 . S
C519 C518 1.387 . S
N520 Co511 2.022 . S
N520 C517 1.351 . S
N520 N521 1.365 . S
N521 C518 1.341 . S
N521 N520 1.365 . S
N521 H541 0.862 . S
C522 C517 1.501 . S
C522 H523 0.961 . S
C522 H524 0.961 1_545 S
C522 H525 0.960 . S
H523 C522 0.961 . S
H524 C522 0.961 1_565 S
H525 C522 0.960 . S
C526 N527 1.342 . S
C526 C530 1.401 . S
C526 C531 1.499 . S
N527 Co510 1.989 . S
N527 C526 1.342 . S
N527 N528 1.388 . S
N528 Co511 1.993 . S
N528 N527 1.388 . S
N528 C529 1.346 . S
C529 N528 1.346 . S
C529 C530 1.396 . S
C529 C539 1.510 . S
C530 C526 1.401 . S
C530 C529 1.396 . S
C531 C526 1.499 . S
C531 H532 0.959 . S
C531 H533 0.960 1_545 S
C531 H534 0.961 . S
H532 C531 0.959 . S
H533 C531 0.960 1_565 S
H534 C531 0.961 . S
O535 Co510 1.967 . S
O535 C543 1.258 . S
O536 Co511 1.941 . S
O536 C543 1.266 . S
H537 C539 0.959 . S
H538 C539 0.961 . S
C539 C529 1.510 . S
C539 H537 0.959 . S
C539 H538 0.961 . S
C539 H540 0.960 . S
H540 C539 0.960 . S
H541 N521 0.862 . S
O542 Co510 1.920 . S
O542 C515 1.289 . S
C543 O535 1.258 . S
C543 O536 1.266 . S
Co544 O547 1.970 . S
Co544 N561 1.989 . S
Co544 O569 1.967 . S
Co544 O576 1.920 . S
Co545 O548 1.966 . S
Co545 N554 2.022 . S
Co545 N562 1.993 . S
Co545 O570 1.941 . S
C546 O547 1.258 . S
C546 O548 1.263 . S
O547 Co544 1.970 . S
O547 C546 1.258 . S
O548 Co545 1.966 . S
O548 C546 1.263 . S
C549 O550 1.235 . S
C549 O576 1.289 . S
O550 C549 1.235 . S
C551 C553 1.400 . S
C551 N554 1.351 . S
C551 C556 1.501 . S
C552 C553 1.387 . S
C552 N555 1.341 . S
C553 C551 1.400 . S
C553 C552 1.387 . S
N554 Co545 2.022 . S
N554 C551 1.351 . S
N554 N555 1.365 . S
N555 C552 1.341 . S
N555 N554 1.365 . S
N555 H575 0.862 . S
C556 C551 1.501 . S
C556 H557 0.961 . S
C556 H558 0.961 . S
C556 H559 0.960 . S
H557 C556 0.961 . S
H558 C556 0.961 . S
H559 C556 0.960 . S
C560 N561 1.342 . S
C560 C564 1.401 . S
C560 C565 1.499 . S
N561 Co544 1.989 . S
N561 C560 1.342 . S
N561 N562 1.388 . S
N562 Co545 1.993 . S
N562 N561 1.388 . S
N562 C563 1.346 . S
C563 N562 1.346 . S
C563 C564 1.396 . S
C563 C573 1.510 . S
C564 C560 1.401 . S
C564 C563 1.396 . S
C565 C560 1.499 . S
C565 H566 0.959 . S
C565 H567 0.960 . S
C565 H568 0.961 . S
H566 C565 0.959 . S
H567 C565 0.960 . S
H568 C565 0.961 . S
O569 Co544 1.967 . S
O569 C577 1.258 . S
O570 Co545 1.941 . S
O570 C577 1.266 . S
H571 C573 0.959 . S
H572 C573 0.961 . S
C573 C563 1.510 . S
C573 H571 0.959 . S
C573 H572 0.961 . S
C573 H574 0.960 . S
H574 C573 0.960 . S
H575 N555 0.862 . S
O576 Co544 1.920 . S
O576 C549 1.289 . S
C577 O569 1.258 . S
C577 O570 1.266 . S
Co578 O581 1.970 . S
Co578 N595 1.989 . S
Co578 O603 1.967 . S
Co578 O610 1.920 . S
Co579 O582 1.966 . S
Co579 N588 2.022 . S
Co579 N596 1.993 . S
Co579 O604 1.941 . S
C580 O581 1.258 . S
C580 O582 1.263 . S
O581 Co578 1.970 . S
O581 C580 1.258 . S
O582 Co579 1.966 . S
O582 C580 1.263 . S
C583 O584 1.235 . S
C583 O610 1.289 . S
O584 C583 1.235 . S
C585 C587 1.400 . S
C585 N588 1.351 . S
C585 C590 1.501 . S
C586 C587 1.387 . S
C586 N589 1.341 . S
C587 C585 1.400 . S
C587 C586 1.387 . S
N588 Co579 2.022 . S
N588 C585 1.351 . S
N588 N589 1.365 . S
N589 C586 1.341 . S
N589 N588 1.365 . S
N589 H609 0.862 . S
C590 C585 1.501 . S
C590 H591 0.961 . S
C590 H592 0.961 . S
C590 H593 0.960 . S
H591 C590 0.961 . S
H592 C590 0.961 . S
H593 C590 0.960 . S
C594 N595 1.342 . S
C594 C598 1.401 . S
C594 C599 1.499 . S
N595 Co578 1.989 . S
N595 C594 1.342 . S
N595 N596 1.388 . S
N596 Co579 1.993 . S
N596 N595 1.388 . S
N596 C597 1.346 . S
C597 N596 1.346 . S
C597 C598 1.396 . S
C597 C607 1.510 . S
C598 C594 1.401 . S
C598 C597 1.396 . S
C599 C594 1.499 . S
C599 H600 0.959 . S
C599 H601 0.960 . S
C599 H602 0.961 . S
H600 C599 0.959 . S
H601 C599 0.960 . S
H602 C599 0.961 . S
O603 Co578 1.967 . S
O603 C611 1.258 . S
O604 Co579 1.941 . S
O604 C611 1.266 . S
H605 C607 0.959 . S
H606 C607 0.961 . S
C607 C597 1.510 . S
C607 H605 0.959 . S
C607 H606 0.961 . S
C607 H608 0.960 . S
H608 C607 0.960 . S
H609 N589 0.862 . S
O610 Co578 1.920 . S
O610 C583 1.289 . S
C611 O603 1.258 . S
C611 O604 1.266 . S
Co612 O615 1.970 . S
Co612 N629 1.989 . S
Co612 O637 1.967 . S
Co612 O644 1.920 . S
Co613 O616 1.966 . S
Co613 N622 2.022 . S
Co613 N630 1.993 . S
Co613 O638 1.941 . S
C614 O615 1.258 . S
C614 O616 1.263 . S
O615 Co612 1.970 . S
O615 C614 1.258 . S
O616 Co613 1.966 . S
O616 C614 1.263 . S
C617 O618 1.235 . S
C617 O644 1.289 . S
O618 C617 1.235 . S
C619 C621 1.400 . S
C619 N622 1.351 . S
C619 C624 1.501 . S
C620 C621 1.387 . S
C620 N623 1.341 . S
C621 C619 1.400 . S
C621 C620 1.387 . S
N622 Co613 2.022 . S
N622 C619 1.351 . S
N622 N623 1.365 . S
N623 C620 1.341 . S
N623 N622 1.365 . S
N623 H643 0.862 . S
C624 C619 1.501 . S
C624 H625 0.961 . S
C624 H626 0.961 . S
C624 H627 0.960 . S
H625 C624 0.961 . S
H626 C624 0.961 . S
H627 C624 0.960 . S
C628 N629 1.342 . S
C628 C632 1.401 . S
C628 C633 1.499 . S
N629 Co612 1.989 . S
N629 C628 1.342 . S
N629 N630 1.388 . S
N630 Co613 1.993 . S
N630 N629 1.388 . S
N630 C631 1.346 . S
C631 N630 1.346 . S
C631 C632 1.396 . S
C631 C641 1.510 . S
C632 C628 1.401 . S
C632 C631 1.396 . S
C633 C628 1.499 . S
C633 H634 0.959 . S
C633 H635 0.960 . S
C633 H636 0.961 . S
H634 C633 0.959 . S
H635 C633 0.960 . S
H636 C633 0.961 . S
O637 Co612 1.967 . S
O637 C645 1.258 . S
O638 Co613 1.941 . S
O638 C645 1.266 . S
H639 C641 0.959 . S
H640 C641 0.961 . S
C641 C631 1.510 . S
C641 H639 0.959 . S
C641 H640 0.961 . S
C641 H642 0.960 . S
H642 C641 0.960 . S
H643 N623 0.862 . S
O644 Co612 1.920 . S
O644 C617 1.289 . S
C645 O637 1.258 . S
C645 O638 1.266 . S
Co646 O649 1.970 . S
Co646 N663 1.989 . S
Co646 O671 1.967 . S
Co646 O678 1.920 . S
Co647 O650 1.966 1_655 S
Co647 N656 2.022 . S
Co647 N664 1.993 . S
Co647 O672 1.941 . S
C648 O649 1.258 1_455 S
C648 O650 1.263 . S
O649 Co646 1.970 . S
O649 C648 1.258 1_655 S
O650 Co647 1.966 1_455 S
O650 C648 1.263 . S
C651 O652 1.235 . S
C651 O678 1.289 . S
O652 C651 1.235 . S
C653 C655 1.400 . S
C653 N656 1.351 . S
C653 C658 1.483 1_655 S
C654 C655 1.387 . S
C654 N657 1.341 . S
C655 C653 1.400 . S
C655 C654 1.387 . S
N656 Co647 2.022 . S
N656 C653 1.351 . S
N656 N657 1.365 . S
N657 C654 1.341 . S
N657 N656 1.365 . S
N657 H677 0.862 . S
C658 C653 1.483 1_455 S
C658 H659 0.966 . S
C658 H660 0.953 1_455 S
C658 H661 0.982 . S
H659 C658 0.966 . S
H660 C658 0.953 1_655 S
H661 C658 0.982 . S
C662 N663 1.342 . S
C662 C666 1.401 . S
C662 C667 1.499 . S
N663 Co646 1.989 . S
N663 C662 1.342 . S
N663 N664 1.388 . S
N664 Co647 1.993 . S
N664 N663 1.388 . S
N664 C665 1.346 . S
C665 N664 1.346 . S
C665 C666 1.396 . S
C665 C675 1.510 . S
C666 C662 1.401 . S
C666 C665 1.396 . S
C667 C662 1.499 . S
C667 H668 0.959 . S
C667 H669 0.960 . S
C667 H670 0.961 . S
H668 C667 0.959 . S
H669 C667 0.960 . S
H670 C667 0.961 . S
O671 Co646 1.967 . S
O671 C679 1.258 . S
O672 Co647 1.941 . S
O672 C679 1.266 . S
H673 C675 0.959 . S
H674 C675 0.961 . S
C675 C665 1.510 . S
C675 H673 0.959 . S
C675 H674 0.961 . S
C675 H676 0.960 . S
H676 C675 0.960 . S
H677 N657 0.862 . S
O678 Co646 1.920 . S
O678 C651 1.289 . S
C679 O671 1.258 . S
C679 O672 1.266 . S
Co680 O683 1.970 . S
Co680 N697 1.989 . S
Co680 O705 1.967 . S
Co680 O712 1.920 . S
Co681 O684 1.966 . S
Co681 N690 2.022 . S
Co681 N698 1.993 . S
Co681 O706 1.941 . S
C682 O683 1.258 . S
C682 O684 1.263 . S
O683 Co680 1.970 . S
O683 C682 1.258 . S
O684 Co681 1.966 . S
O684 C682 1.263 . S
C685 O686 1.235 . S
C685 O712 1.289 . S
O686 C685 1.235 . S
C687 C689 1.400 . S
C687 N690 1.351 . S
C687 C692 1.501 . S
C688 C689 1.387 . S
C688 N691 1.341 . S
C689 C687 1.400 . S
C689 C688 1.387 . S
N690 Co681 2.022 . S
N690 C687 1.351 . S
N690 N691 1.365 . S
N691 C688 1.341 . S
N691 N690 1.365 . S
N691 H711 0.862 . S
C692 C687 1.501 . S
C692 H693 0.961 . S
C692 H694 0.961 . S
C692 H695 0.960 . S
H693 C692 0.961 . S
H694 C692 0.961 . S
H695 C692 0.960 . S
C696 N697 1.342 . S
C696 C700 1.401 . S
C696 C701 1.499 . S
N697 Co680 1.989 . S
N697 C696 1.342 . S
N697 N698 1.388 . S
N698 Co681 1.993 . S
N698 N697 1.388 . S
N698 C699 1.346 . S
C699 N698 1.346 . S
C699 C700 1.396 . S
C699 C709 1.510 . S
C700 C696 1.401 . S
C700 C699 1.396 . S
C701 C696 1.499 . S
C701 H702 0.959 . S
C701 H703 0.960 . S
C701 H704 0.961 . S
H702 C701 0.959 . S
H703 C701 0.960 . S
H704 C701 0.961 . S
O705 Co680 1.967 . S
O705 C713 1.258 . S
O706 Co681 1.941 . S
O706 C713 1.266 . S
H707 C709 0.959 . S
H708 C709 0.961 . S
C709 C699 1.510 . S
C709 H707 0.959 . S
C709 H708 0.961 . S
C709 H710 0.960 . S
H710 C709 0.960 . S
H711 N691 0.862 . S
O712 Co680 1.920 . S
O712 C685 1.289 . S
C713 O705 1.258 . S
C713 O706 1.266 . S
Co714 O717 1.970 . S
Co714 N731 1.989 . S
Co714 O739 1.967 . S
Co714 O746 1.920 . S
Co715 O718 1.966 1_655 S
Co715 N724 2.022 . S
Co715 N732 1.993 . S
Co715 O740 1.941 . S
C716 O717 1.258 1_455 S
C716 O718 1.263 . S
O717 Co714 1.970 . S
O717 C716 1.258 1_655 S
O718 Co715 1.966 1_455 S
O718 C716 1.263 . S
C719 O720 1.235 . S
C719 O746 1.289 . S
O720 C719 1.235 . S
C721 C723 1.400 . S
C721 N724 1.351 . S
C721 C726 1.483 1_655 S
C722 C723 1.387 . S
C722 N725 1.341 . S
C723 C721 1.400 . S
C723 C722 1.387 . S
N724 Co715 2.022 . S
N724 C721 1.351 . S
N724 N725 1.365 . S
N725 C722 1.341 . S
N725 N724 1.365 . S
N725 H745 0.862 . S
C726 C721 1.483 1_455 S
C726 H727 0.966 . S
C726 H728 0.953 1_455 S
C726 H729 0.982 . S
H727 C726 0.966 . S
H728 C726 0.953 1_655 S
H729 C726 0.982 . S
C730 N731 1.342 . S
C730 C734 1.401 . S
C730 C735 1.499 . S
N731 Co714 1.989 . S
N731 C730 1.342 . S
N731 N732 1.388 . S
N732 Co715 1.993 . S
N732 N731 1.388 . S
N732 C733 1.346 . S
C733 N732 1.346 . S
C733 C734 1.396 . S
C733 C743 1.510 . S
C734 C730 1.401 . S
C734 C733 1.396 . S
C735 C730 1.499 . S
C735 H736 0.959 . S
C735 H737 0.960 . S
C735 H738 0.961 . S
H736 C735 0.959 . S
H737 C735 0.960 . S
H738 C735 0.961 . S
O739 Co714 1.967 . S
O739 C747 1.258 . S
O740 Co715 1.941 . S
O740 C747 1.266 . S
H741 C743 0.959 . S
H742 C743 0.961 . S
C743 C733 1.510 . S
C743 H741 0.959 . S
C743 H742 0.961 . S
C743 H744 0.960 . S
H744 C743 0.960 . S
H745 N725 0.862 . S
O746 Co714 1.920 . S
O746 C719 1.289 . S
C747 O739 1.258 . S
C747 O740 1.266 . S
Co748 O751 1.970 . S
Co748 N765 1.989 . S
Co748 O773 1.967 . S
Co748 O780 1.920 . S
Co749 O752 1.966 . S
Co749 N758 2.022 . S
Co749 N766 1.993 . S
Co749 O774 1.941 . S
C750 O751 1.258 . S
C750 O752 1.263 . S
O751 Co748 1.970 . S
O751 C750 1.258 . S
O752 Co749 1.966 . S
O752 C750 1.263 . S
C753 O754 1.235 . S
C753 O780 1.289 . S
O754 C753 1.235 . S
C755 C757 1.400 . S
C755 N758 1.351 . S
C755 C760 1.501 . S
C756 C757 1.387 . S
C756 N759 1.341 . S
C757 C755 1.400 . S
C757 C756 1.387 . S
N758 Co749 2.022 . S
N758 C755 1.351 . S
N758 N759 1.365 . S
N759 C756 1.341 . S
N759 N758 1.365 . S
N759 H779 0.862 . S
C760 C755 1.501 . S
C760 H761 0.961 . S
C760 H762 0.961 . S
C760 H763 0.960 . S
H761 C760 0.961 . S
H762 C760 0.961 . S
H763 C760 0.960 . S
C764 N765 1.342 . S
C764 C768 1.401 . S
C764 C769 1.499 . S
N765 Co748 1.989 . S
N765 C764 1.342 . S
N765 N766 1.388 . S
N766 Co749 1.993 . S
N766 N765 1.388 . S
N766 C767 1.346 . S
C767 N766 1.346 . S
C767 C768 1.396 . S
C767 C777 1.510 . S
C768 C764 1.401 . S
C768 C767 1.396 . S
C769 C764 1.499 . S
C769 H770 0.959 . S
C769 H771 0.960 . S
C769 H772 0.961 . S
H770 C769 0.959 . S
H771 C769 0.960 . S
H772 C769 0.961 . S
O773 Co748 1.967 . S
O773 C781 1.258 . S
O774 Co749 1.941 . S
O774 C781 1.266 . S
H775 C777 0.959 . S
H776 C777 0.961 . S
C777 C767 1.510 . S
C777 H775 0.959 . S
C777 H776 0.961 . S
C777 H778 0.960 . S
H778 C777 0.960 . S
H779 N759 0.862 . S
O780 Co748 1.920 . S
O780 C753 1.289 . S
C781 O773 1.258 . S
C781 O774 1.266 . S
Co782 O785 1.970 . S
Co782 N799 1.989 . S
Co782 O807 1.967 . S
Co782 O814 1.920 . S
Co783 O786 1.966 . S
Co783 N792 2.022 . S
Co783 N800 1.993 . S
Co783 O808 1.941 . S
C784 O785 1.258 . S
C784 O786 1.263 . S
O785 Co782 1.970 . S
O785 C784 1.258 . S
O786 Co783 1.966 . S
O786 C784 1.263 . S
C787 O788 1.235 . S
C787 O814 1.289 . S
O788 C787 1.235 . S
C789 C791 1.400 . S
C789 N792 1.351 . S
C789 C794 1.501 . S
C790 C791 1.387 . S
C790 N793 1.341 . S
C791 C789 1.400 . S
C791 C790 1.387 . S
N792 Co783 2.022 . S
N792 C789 1.351 . S
N792 N793 1.365 . S
N793 C790 1.341 . S
N793 N792 1.365 . S
N793 H813 0.862 . S
C794 C789 1.501 . S
C794 H795 0.961 . S
C794 H796 0.961 . S
C794 H797 0.960 . S
H795 C794 0.961 . S
H796 C794 0.961 . S
H797 C794 0.960 . S
C798 N799 1.342 . S
C798 C802 1.401 . S
C798 C803 1.499 . S
N799 Co782 1.989 . S
N799 C798 1.342 . S
N799 N800 1.388 . S
N800 Co783 1.993 . S
N800 N799 1.388 . S
N800 C801 1.346 . S
C801 N800 1.346 . S
C801 C802 1.396 . S
C801 C811 1.510 . S
C802 C798 1.401 . S
C802 C801 1.396 . S
C803 C798 1.499 . S
C803 H804 0.959 . S
C803 H805 0.960 . S
C803 H806 0.961 . S
H804 C803 0.959 . S
H805 C803 0.960 . S
H806 C803 0.961 . S
O807 Co782 1.967 . S
O807 C815 1.258 . S
O808 Co783 1.941 . S
O808 C815 1.266 . S
H809 C811 0.959 . S
H810 C811 0.961 . S
C811 C801 1.510 . S
C811 H809 0.959 . S
C811 H810 0.961 . S
C811 H812 0.960 . S
H812 C811 0.960 . S
H813 N793 0.862 . S
O814 Co782 1.920 . S
O814 C787 1.289 . S
C815 O807 1.258 . S
C815 O808 1.266 . S
Co816 O819 1.970 . S
Co816 N833 1.989 . S
Co816 O841 1.967 . S
Co816 O848 1.920 . S
Co817 O820 1.966 . S
Co817 N826 2.022 . S
Co817 N834 1.993 . S
Co817 O842 1.941 . S
C818 O819 1.258 . S
C818 O820 1.263 . S
O819 Co816 1.970 . S
O819 C818 1.258 . S
O820 Co817 1.966 . S
O820 C818 1.263 . S
C821 O822 1.235 . S
C821 O848 1.289 . S
O822 C821 1.235 . S
C823 C825 1.400 . S
C823 N826 1.351 . S
C823 C828 1.501 . S
C824 C825 1.387 . S
C824 N827 1.341 . S
C825 C823 1.400 . S
C825 C824 1.387 . S
N826 Co817 2.022 . S
N826 C823 1.351 . S
N826 N827 1.365 . S
N827 C824 1.341 . S
N827 N826 1.365 . S
N827 H847 0.862 . S
C828 C823 1.501 . S
C828 H829 0.961 . S
C828 H830 0.961 . S
C828 H831 0.960 . S
H829 C828 0.961 . S
H830 C828 0.961 . S
H831 C828 0.960 . S
C832 N833 1.342 . S
C832 C836 1.401 . S
C832 C837 1.499 . S
N833 Co816 1.989 . S
N833 C832 1.342 . S
N833 N834 1.388 . S
N834 Co817 1.993 . S
N834 N833 1.388 . S
N834 C835 1.346 . S
C835 N834 1.346 . S
C835 C836 1.396 . S
C835 C845 1.510 . S
C836 C832 1.401 . S
C836 C835 1.396 . S
C837 C832 1.499 . S
C837 H838 0.959 . S
C837 H839 0.960 . S
C837 H840 0.961 . S
H838 C837 0.959 . S
H839 C837 0.960 . S
H840 C837 0.961 . S
O841 Co816 1.967 . S
O841 C849 1.258 . S
O842 Co817 1.941 . S
O842 C849 1.266 . S
H843 C845 0.959 . S
H844 C845 0.961 . S
C845 C835 1.510 . S
C845 H843 0.959 . S
C845 H844 0.961 . S
C845 H846 0.960 . S
H846 C845 0.960 . S
H847 N827 0.862 . S
O848 Co816 1.920 . S
O848 C821 1.289 . S
C849 O841 1.258 . S
C849 O842 1.266 . S
Co850 O853 1.970 . S
Co850 N867 1.989 . S
Co850 O875 1.967 . S
Co850 O882 1.920 . S
Co851 O854 1.966 . S
Co851 N860 2.022 . S
Co851 N868 1.993 . S
Co851 O876 1.941 . S
C852 O853 1.258 . S
C852 O854 1.263 . S
O853 Co850 1.970 . S
O853 C852 1.258 . S
O854 Co851 1.966 . S
O854 C852 1.263 . S
C855 O856 1.235 . S
C855 O882 1.289 . S
O856 C855 1.235 . S
C857 C859 1.400 . S
C857 N860 1.351 . S
C857 C862 1.501 . S
C858 C859 1.387 . S
C858 N861 1.341 . S
C859 C857 1.400 . S
C859 C858 1.387 . S
N860 Co851 2.022 . S
N860 C857 1.351 . S
N860 N861 1.365 . S
N861 C858 1.341 . S
N861 N860 1.365 . S
N861 H881 0.862 . S
C862 C857 1.501 . S
C862 H863 0.961 . S
C862 H864 0.961 . S
C862 H865 0.960 . S
H863 C862 0.961 . S
H864 C862 0.961 . S
H865 C862 0.960 . S
C866 N867 1.342 . S
C866 C870 1.401 . S
C866 C871 1.499 . S
N867 Co850 1.989 . S
N867 C866 1.342 . S
N867 N868 1.388 . S
N868 Co851 1.993 . S
N868 N867 1.388 . S
N868 C869 1.346 . S
C869 N868 1.346 . S
C869 C870 1.396 . S
C869 C879 1.510 . S
C870 C866 1.401 . S
C870 C869 1.396 . S
C871 C866 1.499 . S
C871 H872 0.959 . S
C871 H873 0.960 . S
C871 H874 0.961 . S
H872 C871 0.959 . S
H873 C871 0.960 . S
H874 C871 0.961 . S
O875 Co850 1.967 . S
O875 C883 1.258 . S
O876 Co851 1.941 . S
O876 C883 1.266 . S
H877 C879 0.959 . S
H878 C879 0.961 . S
C879 C869 1.510 . S
C879 H877 0.959 . S
C879 H878 0.961 . S
C879 H880 0.960 . S
H880 C879 0.960 . S
H881 N861 0.862 . S
O882 Co850 1.920 . S
O882 C855 1.289 . S
C883 O875 1.258 . S
C883 O876 1.266 . S
Co884 O887 1.970 . S
Co884 N901 1.989 . S
Co884 O909 1.967 . S
Co884 O916 1.920 . S
Co885 O888 1.966 . S
Co885 N894 2.022 . S
Co885 N902 1.993 . S
Co885 O910 1.941 . S
C886 O887 1.258 . S
C886 O888 1.263 . S
O887 Co884 1.970 . S
O887 C886 1.258 . S
O888 Co885 1.966 . S
O888 C886 1.263 . S
C889 O890 1.235 . S
C889 O916 1.289 . S
O890 C889 1.235 . S
C891 C893 1.400 . S
C891 N894 1.351 . S
C891 C896 1.501 . S
C892 C893 1.387 . S
C892 N895 1.341 . S
C893 C891 1.400 . S
C893 C892 1.387 . S
N894 Co885 2.022 . S
N894 C891 1.351 . S
N894 N895 1.365 . S
N895 C892 1.341 . S
N895 N894 1.365 . S
N895 H915 0.862 . S
C896 C891 1.501 . S
C896 H897 0.961 . S
C896 H898 0.961 . S
C896 H899 0.960 . S
H897 C896 0.961 . S
H898 C896 0.961 . S
H899 C896 0.960 . S
C900 N901 1.342 . S
C900 C904 1.401 . S
C900 C905 1.499 . S
N901 Co884 1.989 . S
N901 C900 1.342 . S
N901 N902 1.388 . S
N902 Co885 1.993 . S
N902 N901 1.388 . S
N902 C903 1.346 . S
C903 N902 1.346 . S
C903 C904 1.396 . S
C903 C913 1.510 . S
C904 C900 1.401 . S
C904 C903 1.396 . S
C905 C900 1.499 . S
C905 H906 0.959 . S
C905 H907 0.960 . S
C905 H908 0.961 . S
H906 C905 0.959 . S
H907 C905 0.960 . S
H908 C905 0.961 . S
O909 Co884 1.967 . S
O909 C917 1.258 . S
O910 Co885 1.941 . S
O910 C917 1.266 . S
H911 C913 0.959 . S
H912 C913 0.961 . S
C913 C903 1.510 . S
C913 H911 0.959 . S
C913 H912 0.961 . S
C913 H914 0.960 . S
H914 C913 0.960 . S
H915 N895 0.862 . S
O916 Co884 1.920 . S
O916 C889 1.289 . S
C917 O909 1.258 . S
C917 O910 1.266 . S
Co918 O921 1.970 . S
Co918 N935 1.989 . S
Co918 O943 1.967 . S
Co918 O950 1.920 . S
Co919 O922 1.966 . S
Co919 N928 2.022 . S
Co919 N936 1.993 . S
Co919 O944 1.941 . S
C920 O921 1.258 1_655 S
C920 O922 1.263 1_655 S
O921 Co918 1.970 . S
O921 C920 1.258 1_455 S
O922 Co919 1.966 . S
O922 C920 1.263 1_455 S
C923 O924 1.235 . S
C923 O950 1.289 . S
O924 C923 1.235 . S
C925 C927 1.400 . S
C925 N928 1.351 . S
C925 C930 1.501 . S
C926 C927 1.387 . S
C926 N929 1.341 . S
C927 C925 1.400 . S
C927 C926 1.387 . S
N928 Co919 2.022 . S
N928 C925 1.351 . S
N928 N929 1.365 . S
N929 C926 1.341 . S
N929 N928 1.365 . S
N929 H949 0.862 . S
C930 C925 1.501 . S
C930 H931 0.961 . S
C930 H932 0.961 . S
C930 H933 0.960 . S
H931 C930 0.961 . S
H932 C930 0.961 . S
H933 C930 0.960 . S
C934 N935 1.342 . S
C934 C938 1.401 . S
C934 C939 1.499 . S
N935 Co918 1.989 . S
N935 C934 1.342 . S
N935 N936 1.388 . S
N936 Co919 1.993 . S
N936 N935 1.388 . S
N936 C937 1.346 . S
C937 N936 1.346 . S
C937 C938 1.396 . S
C937 C947 1.510 . S
C938 C934 1.401 . S
C938 C937 1.396 . S
C939 C934 1.499 . S
C939 H940 0.959 . S
C939 H941 0.960 . S
C939 H942 0.961 . S
H940 C939 0.959 . S
H941 C939 0.960 . S
H942 C939 0.961 . S
O943 Co918 1.967 . S
O943 C951 1.258 . S
O944 Co919 1.941 . S
O944 C951 1.266 . S
H945 C947 0.959 . S
H946 C947 0.961 . S
C947 C937 1.510 . S
C947 H945 0.959 . S
C947 H946 0.961 . S
C947 H948 0.960 . S
H948 C947 0.960 . S
H949 N929 0.862 . S
O950 Co918 1.920 . S
O950 C923 1.289 . S
C951 O943 1.258 . S
C951 O944 1.266 . S
Co952 O955 1.970 . S
Co952 N969 1.989 . S
Co952 O977 1.967 . S
Co952 O984 1.920 . S
Co953 O956 1.966 . S
Co953 N962 2.022 . S
Co953 N970 1.993 . S
Co953 O978 1.941 . S
C954 O955 1.258 . S
C954 O956 1.263 . S
O955 Co952 1.970 . S
O955 C954 1.258 . S
O956 Co953 1.966 . S
O956 C954 1.263 . S
C957 O958 1.235 . S
C957 O984 1.289 . S
O958 C957 1.235 . S
C959 C961 1.400 . S
C959 N962 1.351 . S
C959 C964 1.501 . S
C960 C961 1.387 . S
C960 N963 1.341 . S
C961 C959 1.400 . S
C961 C960 1.387 . S
N962 Co953 2.022 . S
N962 C959 1.351 . S
N962 N963 1.365 . S
N963 C960 1.341 . S
N963 N962 1.365 . S
N963 H983 0.862 . S
C964 C959 1.501 . S
C964 H965 0.961 . S
C964 H966 0.961 . S
C964 H967 0.960 . S
H965 C964 0.961 . S
H966 C964 0.961 . S
H967 C964 0.960 . S
C968 N969 1.342 . S
C968 C972 1.401 . S
C968 C973 1.499 . S
N969 Co952 1.989 . S
N969 C968 1.342 . S
N969 N970 1.388 . S
N970 Co953 1.993 . S
N970 N969 1.388 . S
N970 C971 1.346 . S
C971 N970 1.346 . S
C971 C972 1.396 . S
C971 C981 1.510 . S
C972 C968 1.401 . S
C972 C971 1.396 . S
C973 C968 1.499 . S
C973 H974 0.959 . S
C973 H975 0.960 . S
C973 H976 0.961 . S
H974 C973 0.959 . S
H975 C973 0.960 . S
H976 C973 0.961 . S
O977 Co952 1.967 . S
O977 C985 1.258 . S
O978 Co953 1.941 . S
O978 C985 1.266 . S
H979 C981 0.959 . S
H980 C981 0.961 . S
C981 C971 1.510 . S
C981 H979 0.959 . S
C981 H980 0.961 . S
C981 H982 0.960 . S
H982 C981 0.960 . S
H983 N963 0.862 . S
O984 Co952 1.920 . S
O984 C957 1.289 . S
C985 O977 1.258 . S
C985 O978 1.266 . S
Co986 O989 1.970 . S
Co986 N1003 1.989 . S
Co986 O1011 1.967 . S
Co986 O1018 1.920 . S
Co987 O990 1.966 . S
Co987 N996 2.022 . S
Co987 N1004 1.993 . S
Co987 O1012 1.941 . S
C988 O989 1.258 1_655 S
C988 O990 1.263 1_655 S
O989 Co986 1.970 . S
O989 C988 1.258 1_455 S
O990 Co987 1.966 . S
O990 C988 1.263 1_455 S
C991 O992 1.235 . S
C991 O1018 1.289 . S
O992 C991 1.235 . S
C993 C995 1.400 . S
C993 N996 1.351 . S
C993 C998 1.501 . S
C994 C995 1.387 . S
C994 N997 1.341 . S
C995 C993 1.400 . S
C995 C994 1.387 . S
N996 Co987 2.022 . S
N996 C993 1.351 . S
N996 N997 1.365 . S
N997 C994 1.341 . S
N997 N996 1.365 . S
N997 H1017 0.862 . S
C998 C993 1.501 . S
C998 H999 0.961 . S
C998 H1000 0.961 . S
C998 H1001 0.960 . S
H999 C998 0.961 . S
H1000 C998 0.961 . S
H1001 C998 0.960 . S
C1002 N1003 1.342 . S
C1002 C1006 1.401 . S
C1002 C1007 1.499 . S
N1003 Co986 1.989 . S
N1003 C1002 1.342 . S
N1003 N1004 1.388 . S
N1004 Co987 1.993 . S
N1004 N1003 1.388 . S
N1004 C1005 1.346 . S
C1005 N1004 1.346 . S
C1005 C1006 1.396 . S
C1005 C1015 1.510 . S
C1006 C1002 1.401 . S
C1006 C1005 1.396 . S
C1007 C1002 1.499 . S
C1007 H1008 0.959 . S
C1007 H1009 0.960 . S
C1007 H1010 0.961 . S
H1008 C1007 0.959 . S
H1009 C1007 0.960 . S
H1010 C1007 0.961 . S
O1011 Co986 1.967 . S
O1011 C1019 1.258 . S
O1012 Co987 1.941 . S
O1012 C1019 1.266 . S
H1013 C1015 0.959 . S
H1014 C1015 0.961 . S
C1015 C1005 1.510 . S
C1015 H1013 0.959 . S
C1015 H1014 0.961 . S
C1015 H1016 0.960 . S
H1016 C1015 0.960 . S
H1017 N997 0.862 . S
O1018 Co986 1.920 . S
O1018 C991 1.289 . S
C1019 O1011 1.258 . S
C1019 O1012 1.266 . S
Co1020 O1023 1.970 . S
Co1020 N1037 1.989 . S
Co1020 O1045 1.967 . S
Co1020 O1052 1.920 . S
Co1021 O1024 1.966 . S
Co1021 N1030 2.022 . S
Co1021 N1038 1.993 . S
Co1021 O1046 1.941 . S
C1022 O1023 1.258 . S
C1022 O1024 1.263 . S
O1023 Co1020 1.970 . S
O1023 C1022 1.258 . S
O1024 Co1021 1.966 . S
O1024 C1022 1.263 . S
C1025 O1026 1.235 . S
C1025 O1052 1.289 . S
O1026 C1025 1.235 . S
C1027 C1029 1.400 . S
C1027 N1030 1.351 . S
C1027 C1032 1.501 . S
C1028 C1029 1.387 . S
C1028 N1031 1.341 . S
C1029 C1027 1.400 . S
C1029 C1028 1.387 . S
N1030 Co1021 2.022 . S
N1030 C1027 1.351 . S
N1030 N1031 1.365 . S
N1031 C1028 1.341 . S
N1031 N1030 1.365 . S
N1031 H1051 0.862 . S
C1032 C1027 1.501 . S
C1032 H1033 0.961 . S
C1032 H1034 0.961 . S
C1032 H1035 0.960 . S
H1033 C1032 0.961 . S
H1034 C1032 0.961 . S
H1035 C1032 0.960 . S
C1036 N1037 1.342 . S
C1036 C1040 1.401 . S
C1036 C1041 1.499 . S
N1037 Co1020 1.989 . S
N1037 C1036 1.342 . S
N1037 N1038 1.388 . S
N1038 Co1021 1.993 . S
N1038 N1037 1.388 . S
N1038 C1039 1.346 . S
C1039 N1038 1.346 . S
C1039 C1040 1.396 . S
C1039 C1049 1.510 . S
C1040 C1036 1.401 . S
C1040 C1039 1.396 . S
C1041 C1036 1.499 . S
C1041 H1042 0.959 . S
C1041 H1043 0.960 . S
C1041 H1044 0.961 . S
H1042 C1041 0.959 . S
H1043 C1041 0.960 . S
H1044 C1041 0.961 . S
O1045 Co1020 1.967 . S
O1045 C1053 1.258 . S
O1046 Co1021 1.941 . S
O1046 C1053 1.266 . S
H1047 C1049 0.959 . S
H1048 C1049 0.961 . S
C1049 C1039 1.510 . S
C1049 H1047 0.959 . S
C1049 H1048 0.961 . S
C1049 H1050 0.960 . S
H1050 C1049 0.960 . S
H1051 N1031 0.862 . S
O1052 Co1020 1.920 . S
O1052 C1025 1.289 . S
C1053 O1045 1.258 . S
C1053 O1046 1.266 . S
Co1054 O1057 1.970 . S
Co1054 N1071 1.989 . S
Co1054 O1079 1.967 . S
Co1054 O1086 1.920 . S
Co1055 O1058 1.966 . S
Co1055 N1064 2.022 . S
Co1055 N1072 1.993 . S
Co1055 O1080 1.941 . S
C1056 O1057 1.258 . S
C1056 O1058 1.263 . S
O1057 Co1054 1.970 . S
O1057 C1056 1.258 . S
O1058 Co1055 1.966 . S
O1058 C1056 1.263 . S
C1059 O1060 1.235 . S
C1059 O1086 1.289 . S
O1060 C1059 1.235 . S
C1061 C1063 1.400 . S
C1061 N1064 1.351 . S
C1061 C1066 1.501 . S
C1062 C1063 1.387 . S
C1062 N1065 1.341 . S
C1063 C1061 1.400 . S
C1063 C1062 1.387 . S
N1064 Co1055 2.022 . S
N1064 C1061 1.351 . S
N1064 N1065 1.365 . S
N1065 C1062 1.341 . S
N1065 N1064 1.365 . S
N1065 H1085 0.862 . S
C1066 C1061 1.501 . S
C1066 H1067 0.961 . S
C1066 H1068 0.961 . S
C1066 H1069 0.960 . S
H1067 C1066 0.961 . S
H1068 C1066 0.961 . S
H1069 C1066 0.960 . S
C1070 N1071 1.342 . S
C1070 C1074 1.401 . S
C1070 C1075 1.499 . S
N1071 Co1054 1.989 . S
N1071 C1070 1.342 . S
N1071 N1072 1.388 . S
N1072 Co1055 1.993 . S
N1072 N1071 1.388 . S
N1072 C1073 1.346 . S
C1073 N1072 1.346 . S
C1073 C1074 1.396 . S
C1073 C1083 1.510 . S
C1074 C1070 1.401 . S
C1074 C1073 1.396 . S
C1075 C1070 1.499 . S
C1075 H1076 0.959 . S
C1075 H1077 0.960 . S
C1075 H1078 0.961 . S
H1076 C1075 0.959 . S
H1077 C1075 0.960 . S
H1078 C1075 0.961 . S
O1079 Co1054 1.967 . S
O1079 C1087 1.258 . S
O1080 Co1055 1.941 . S
O1080 C1087 1.266 . S
H1081 C1083 0.959 . S
H1082 C1083 0.961 . S
C1083 C1073 1.510 . S
C1083 H1081 0.959 . S
C1083 H1082 0.961 . S
C1083 H1084 0.960 . S
H1084 C1083 0.960 . S
H1085 N1065 0.862 . S
O1086 Co1054 1.920 . S
O1086 C1059 1.289 . S
C1087 O1079 1.258 . S
C1087 O1080 1.266 . S
H1088 C1094 0.930 . S
H1089 C1098 0.930 . S
H1090 C1103 0.929 . S
H1091 C1101 0.929 . S
H1092 C1096 0.929 . S
H1093 C1102 0.929 . S
C1094 H1088 0.930 . S
C1094 C1095 1.367 . S
C1094 C1102 1.378 . S
C1095 C1094 1.367 . S
C1095 C1103 1.433 . S
C1096 H1092 0.929 . S
C1096 C1098 1.378 . S
C1096 C1100 1.350 . S
C1097 C1100 1.463 . S
C1097 C1102 1.350 . S
C1097 N1105 1.427 . S
C1098 H1089 0.930 . S
C1098 C1096 1.378 . S
C1098 C1099 1.367 . S
C1099 C1098 1.367 . S
C1099 C1101 1.433 . S
C1100 C1096 1.350 . S
C1100 C1097 1.463 . S
C1100 N1104 1.427 . S
C1101 H1091 0.929 . S
C1101 C1099 1.433 . S
C1101 N1104 1.384 . S
C1102 H1093 0.929 . S
C1102 C1094 1.378 . S
C1102 C1097 1.350 . S
C1103 H1090 0.929 . S
C1103 C1095 1.433 . S
C1103 N1105 1.384 . S
N1104 C1100 1.427 . S
N1104 C1101 1.384 . S
N1105 C1097 1.427 . S
N1105 C1103 1.384 . S
H1106 C1112 0.930 . S
H1107 C1116 0.930 . S
H1108 C1121 0.929 . S
H1109 C1119 0.929 . S
H1110 C1114 0.929 1_655 S
H1111 C1120 0.929 1_455 S
C1112 H1106 0.930 . S
C1112 C1113 1.367 . S
C1112 C1120 1.378 . S
C1113 C1112 1.367 . S
C1113 C1121 1.433 . S
C1114 H1110 0.929 1_455 S
C1114 C1116 1.378 . S
C1114 C1118 1.350 . S
C1115 C1118 1.463 1_655 S
C1115 C1120 1.350 . S
C1115 N1123 1.427 . S
C1116 H1107 0.930 . S
C1116 C1114 1.378 . S
C1116 C1117 1.367 . S
C1117 C1116 1.367 . S
C1117 C1119 1.433 . S
C1118 C1114 1.350 . S
C1118 C1115 1.463 1_455 S
C1118 N1122 1.427 . S
C1119 H1109 0.929 . S
C1119 C1117 1.433 . S
C1119 N1122 1.384 . S
C1120 H1111 0.929 1_655 S
C1120 C1112 1.378 . S
C1120 C1115 1.350 . S
C1121 H1108 0.929 . S
C1121 C1113 1.433 . S
C1121 N1123 1.384 . S
N1122 C1118 1.427 . S
N1122 C1119 1.384 . S
N1123 C1115 1.427 . S
N1123 C1121 1.384 . S
H1124 C1130 0.930 . S
H1125 C1134 0.930 . S
H1126 C1139 0.929 . S
H1127 C1137 0.929 . S
H1128 C1132 0.929 . S
H1129 C1138 0.929 . S
C1130 H1124 0.930 . S
C1130 C1131 1.367 . S
C1130 C1138 1.378 . S
C1131 C1130 1.367 . S
C1131 C1139 1.433 . S
C1132 H1128 0.929 . S
C1132 C1134 1.378 . S
C1132 C1136 1.350 . S
C1133 C1136 1.463 1_655 S
C1133 C1138 1.350 . S
C1133 N1141 1.427 . S
C1134 H1125 0.930 . S
C1134 C1132 1.378 . S
C1134 C1135 1.367 . S
C1135 C1134 1.367 . S
C1135 C1137 1.433 . S
C1136 C1132 1.350 . S
C1136 C1133 1.463 1_455 S
C1136 N1140 1.427 . S
C1137 H1127 0.929 . S
C1137 C1135 1.433 . S
C1137 N1140 1.384 . S
C1138 H1129 0.929 . S
C1138 C1130 1.378 . S
C1138 C1133 1.350 . S
C1139 H1126 0.929 . S
C1139 C1131 1.433 . S
C1139 N1141 1.384 . S
N1140 C1136 1.427 . S
N1140 C1137 1.384 . S
N1141 C1133 1.427 . S
N1141 C1139 1.384 . S
H1142 C1148 0.930 . S
H1143 C1152 0.930 . S
H1144 C1157 0.929 . S
H1145 C1155 0.929 . S
H1146 C1150 0.929 . S
H1147 C1156 0.929 . S
C1148 H1142 0.930 . S
C1148 C1149 1.367 . S
C1148 C1156 1.378 . S
C1149 C1148 1.367 . S
C1149 C1157 1.433 . S
C1150 H1146 0.929 . S
C1150 C1152 1.378 . S
C1150 C1154 1.350 . S
C1151 C1154 1.463 . S
C1151 C1156 1.350 . S
C1151 N1159 1.427 . S
C1152 H1143 0.930 . S
C1152 C1150 1.378 . S
C1152 C1153 1.367 . S
C1153 C1152 1.367 . S
C1153 C1155 1.433 . S
C1154 C1150 1.350 . S
C1154 C1151 1.463 . S
C1154 N1158 1.427 . S
C1155 H1145 0.929 . S
C1155 C1153 1.433 . S
C1155 N1158 1.384 . S
C1156 H1147 0.929 . S
C1156 C1148 1.378 . S
C1156 C1151 1.350 . S
C1157 H1144 0.929 . S
C1157 C1149 1.433 . S
C1157 N1159 1.384 . S
N1158 C1154 1.427 . S
N1158 C1155 1.384 . S
N1159 C1151 1.427 . S
N1159 C1157 1.384 . S
H1160 C1166 0.930 . S
H1161 C1170 0.930 . S
H1162 C1175 0.929 . S
H1163 C1173 0.929 . S
H1164 C1168 0.929 . S
H1165 C1174 0.929 . S
C1166 H1160 0.930 . S
C1166 C1167 1.367 . S
C1166 C1174 1.378 . S
C1167 C1166 1.367 . S
C1167 C1175 1.433 . S
C1168 H1164 0.929 . S
C1168 C1170 1.378 . S
C1168 C1172 1.350 . S
C1169 C1172 1.463 . S
C1169 C1174 1.350 . S
C1169 N1177 1.427 . S
C1170 H1161 0.930 . S
C1170 C1168 1.378 . S
C1170 C1171 1.367 . S
C1171 C1170 1.367 . S
C1171 C1173 1.433 . S
C1172 C1168 1.350 . S
C1172 C1169 1.463 . S
C1172 N1176 1.427 . S
C1173 H1163 0.929 . S
C1173 C1171 1.433 . S
C1173 N1176 1.384 . S
C1174 H1165 0.929 . S
C1174 C1166 1.378 . S
C1174 C1169 1.350 . S
C1175 H1162 0.929 . S
C1175 C1167 1.433 . S
C1175 N1177 1.384 . S
N1176 C1172 1.427 . S
N1176 C1173 1.384 . S
N1177 C1169 1.427 . S
N1177 C1175 1.384 . S
H1178 C1184 0.930 . S
H1179 C1188 0.930 . S
H1180 C1193 0.929 . S
H1181 C1191 0.929 . S
H1182 C1186 0.929 . S
H1183 C1192 0.929 . S
C1184 H1178 0.930 . S
C1184 C1185 1.367 . S
C1184 C1192 1.378 . S
C1185 C1184 1.367 . S
C1185 C1193 1.433 . S
C1186 H1182 0.929 . S
C1186 C1188 1.378 . S
C1186 C1190 1.350 . S
C1187 C1190 1.463 . S
C1187 C1192 1.350 . S
C1187 N1195 1.427 . S
C1188 H1179 0.930 . S
C1188 C1186 1.378 . S
C1188 C1189 1.367 . S
C1189 C1188 1.367 . S
C1189 C1191 1.433 . S
C1190 C1186 1.350 . S
C1190 C1187 1.463 . S
C1190 N1194 1.427 . S
C1191 H1181 0.929 . S
C1191 C1189 1.433 . S
C1191 N1194 1.384 . S
C1192 H1183 0.929 . S
C1192 C1184 1.378 . S
C1192 C1187 1.350 . S
C1193 H1180 0.929 . S
C1193 C1185 1.433 . S
C1193 N1195 1.384 . S
N1194 C1190 1.427 . S
N1194 C1191 1.384 . S
N1195 C1187 1.427 . S
N1195 C1193 1.384 . S
H1196 C1202 0.930 . S
H1197 C1206 0.930 . S
H1198 C1211 0.929 . S
H1199 C1209 0.929 . S
H1200 C1204 0.929 . S
H1201 C1210 0.929 . S
C1202 H1196 0.930 . S
C1202 C1203 1.367 . S
C1202 C1210 1.378 . S
C1203 C1202 1.367 . S
C1203 C1211 1.433 . S
C1204 H1200 0.929 . S
C1204 C1206 1.378 . S
C1204 C1208 1.350 . S
C1205 C1208 1.463 1_455 S
C1205 C1210 1.350 . S
C1205 N1213 1.427 . S
C1206 H1197 0.930 . S
C1206 C1204 1.378 . S
C1206 C1207 1.367 . S
C1207 C1206 1.367 . S
C1207 C1209 1.433 . S
C1208 C1204 1.350 . S
C1208 C1205 1.463 1_655 S
C1208 N1212 1.427 . S
C1209 H1199 0.929 . S
C1209 C1207 1.433 . S
C1209 N1212 1.384 . S
C1210 H1201 0.929 . S
C1210 C1202 1.378 . S
C1210 C1205 1.350 . S
C1211 H1198 0.929 . S
C1211 C1203 1.433 . S
C1211 N1213 1.384 . S
N1212 C1208 1.427 . S
N1212 C1209 1.384 . S
N1213 C1205 1.427 . S
N1213 C1211 1.384 . S
H1214 C1220 0.930 . S
H1215 C1224 0.930 . S
H1216 C1229 0.929 1_655 S
H1217 C1227 0.929 1_455 S
H1218 C1222 0.929 . S
H1219 C1228 0.929 . S
C1220 H1214 0.930 . S
C1220 C1221 1.367 . S
C1220 C1228 1.378 . S
C1221 C1220 1.367 . S
C1221 C1229 1.433 . S
C1222 H1218 0.929 . S
C1222 C1224 1.378 . S
C1222 C1226 1.350 . S
C1223 C1226 1.463 1_455 S
C1223 C1228 1.350 . S
C1223 N1231 1.427 1_455 S
C1224 H1215 0.930 . S
C1224 C1222 1.378 . S
C1224 C1225 1.367 . S
C1225 C1224 1.367 . S
C1225 C1227 1.433 . S
C1226 C1222 1.350 . S
C1226 C1223 1.463 1_655 S
C1226 N1230 1.427 1_655 S
C1227 H1217 0.929 1_655 S
C1227 C1225 1.433 . S
C1227 N1230 1.384 1_655 S
C1228 H1219 0.929 . S
C1228 C1220 1.378 . S
C1228 C1223 1.350 . S
C1229 H1216 0.929 1_455 S
C1229 C1221 1.433 . S
C1229 N1231 1.384 1_455 S
N1230 C1226 1.427 1_455 S
N1230 C1227 1.384 1_455 S
N1231 C1223 1.427 1_655 S
N1231 C1229 1.384 1_655 S
H1232 C1238 0.930 . S
H1233 C1242 0.930 . S
H1234 C1247 0.929 . S
H1235 C1245 0.929 . S
H1236 C1240 0.929 . S
H1237 C1246 0.929 . S
C1238 H1232 0.930 . S
C1238 C1239 1.367 . S
C1238 C1246 1.378 . S
C1239 C1238 1.367 . S
C1239 C1247 1.433 . S
C1240 H1236 0.929 . S
C1240 C1242 1.378 . S
C1240 C1244 1.350 . S
C1241 C1244 1.463 . S
C1241 C1246 1.350 . S
C1241 N1249 1.427 . S
C1242 H1233 0.930 . S
C1242 C1240 1.378 . S
C1242 C1243 1.367 . S
C1243 C1242 1.367 . S
C1243 C1245 1.433 . S
C1244 C1240 1.350 . S
C1244 C1241 1.463 . S
C1244 N1248 1.427 . S
C1245 H1235 0.929 . S
C1245 C1243 1.433 . S
C1245 N1248 1.384 . S
C1246 H1237 0.929 . S
C1246 C1238 1.378 . S
C1246 C1241 1.350 . S
C1247 H1234 0.929 . S
C1247 C1239 1.433 . S
C1247 N1249 1.384 . S
N1248 C1244 1.427 . S
N1248 C1245 1.384 . S
N1249 C1241 1.427 . S
N1249 C1247 1.384 . S
H1250 C1256 0.930 . S
H1251 C1260 0.930 . S
H1252 C1265 0.929 . S
H1253 C1263 0.929 . S
H1254 C1258 0.929 . S
H1255 C1264 0.929 . S
C1256 H1250 0.930 . S
C1256 C1257 1.367 . S
C1256 C1264 1.378 1_455 S
C1257 C1256 1.367 . S
C1257 C1265 1.433 . S
C1258 H1254 0.929 . S
C1258 C1260 1.378 1_455 S
C1258 C1262 1.350 1_455 S
C1259 C1262 1.463 1_455 S
C1259 C1264 1.350 1_455 S
C1259 N1267 1.427 . S
C1260 H1251 0.930 . S
C1260 C1258 1.378 1_655 S
C1260 C1261 1.367 . S
C1261 C1260 1.367 . S
C1261 C1263 1.433 . S
C1262 C1258 1.350 1_655 S
C1262 C1259 1.463 1_655 S
C1262 N1266 1.427 . S
C1263 H1253 0.929 . S
C1263 C1261 1.433 . S
C1263 N1266 1.384 . S
C1264 H1255 0.929 . S
C1264 C1256 1.378 1_655 S
C1264 C1259 1.350 1_655 S
C1265 H1252 0.929 . S
C1265 C1257 1.433 . S
C1265 N1267 1.384 . S
N1266 C1262 1.427 . S
N1266 C1263 1.384 . S
N1267 C1259 1.427 . S
N1267 C1265 1.384 . S
H1268 C1274 0.930 . S
H1269 C1278 0.930 . S
H1270 C1283 0.929 . S
H1271 C1281 0.929 . S
H1272 C1276 0.929 . S
H1273 C1282 0.929 . S
C1274 H1268 0.930 . S
C1274 C1275 1.367 . S
C1274 C1282 1.378 . S
C1275 C1274 1.367 . S
C1275 C1283 1.433 . S
C1276 H1272 0.929 . S
C1276 C1278 1.378 . S
C1276 C1280 1.350 . S
C1277 C1280 1.463 1_655 S
C1277 C1282 1.350 . S
C1277 N1285 1.427 . S
C1278 H1269 0.930 . S
C1278 C1276 1.378 . S
C1278 C1279 1.367 . S
C1279 C1278 1.367 . S
C1279 C1281 1.433 . S
C1280 C1276 1.350 . S
C1280 C1277 1.463 1_455 S
C1280 N1284 1.427 . S
C1281 H1271 0.929 . S
C1281 C1279 1.433 . S
C1281 N1284 1.384 . S
C1282 H1273 0.929 . S
C1282 C1274 1.378 . S
C1282 C1277 1.350 . S
C1283 H1270 0.929 . S
C1283 C1275 1.433 . S
C1283 N1285 1.384 . S
N1284 C1280 1.427 . S
N1284 C1281 1.384 . S
N1285 C1277 1.427 . S
N1285 C1283 1.384 . S
H1286 C1292 0.930 . S
H1287 C1296 0.930 . S
H1288 C1301 0.929 . S
H1289 C1299 0.929 . S
H1290 C1294 0.929 . S
H1291 C1300 0.929 . S
C1292 H1286 0.930 . S
C1292 C1293 1.367 . S
C1292 C1300 1.378 . S
C1293 C1292 1.367 . S
C1293 C1301 1.433 . S
C1294 H1290 0.929 . S
C1294 C1296 1.378 . S
C1294 C1298 1.350 . S
C1295 C1298 1.463 . S
C1295 C1300 1.350 . S
C1295 N1303 1.427 . S
C1296 H1287 0.930 . S
C1296 C1294 1.378 . S
C1296 C1297 1.367 . S
C1297 C1296 1.367 . S
C1297 C1299 1.433 . S
C1298 C1294 1.350 . S
C1298 C1295 1.463 . S
C1298 N1302 1.427 . S
C1299 H1289 0.929 . S
C1299 C1297 1.433 . S
C1299 N1302 1.384 . S
C1300 H1291 0.929 . S
C1300 C1292 1.378 . S
C1300 C1295 1.350 . S
C1301 H1288 0.929 . S
C1301 C1293 1.433 . S
C1301 N1303 1.384 . S
N1302 C1298 1.427 . S
N1302 C1299 1.384 . S
N1303 C1295 1.427 . S
N1303 C1301 1.384 . S
H1304 C1310 0.930 . S
H1305 C1314 0.930 . S
H1306 C1319 0.929 . S
H1307 C1317 0.929 . S
H1308 C1312 0.929 . S
H1309 C1318 0.929 . S
C1310 H1304 0.930 . S
C1310 C1311 1.367 . S
C1310 C1318 1.378 . S
C1311 C1310 1.367 . S
C1311 C1319 1.433 . S
C1312 H1308 0.929 . S
C1312 C1314 1.378 . S
C1312 C1316 1.350 . S
C1313 C1316 1.463 . S
C1313 C1318 1.350 . S
C1313 N1321 1.427 . S
C1314 H1305 0.930 . S
C1314 C1312 1.378 . S
C1314 C1315 1.367 . S
C1315 C1314 1.367 . S
C1315 C1317 1.433 . S
C1316 C1312 1.350 . S
C1316 C1313 1.463 . S
C1316 N1320 1.427 . S
C1317 H1307 0.929 . S
C1317 C1315 1.433 . S
C1317 N1320 1.384 . S
C1318 H1309 0.929 . S
C1318 C1310 1.378 . S
C1318 C1313 1.350 . S
C1319 H1306 0.929 . S
C1319 C1311 1.433 . S
C1319 N1321 1.384 . S
N1320 C1316 1.427 . S
N1320 C1317 1.384 . S
N1321 C1313 1.427 . S
N1321 C1319 1.384 . S
H1322 C1328 0.930 . S
H1323 C1332 0.930 . S
H1324 C1337 0.929 . S
H1325 C1335 0.929 . S
H1326 C1330 0.929 . S
H1327 C1336 0.929 . S
C1328 H1322 0.930 . S
C1328 C1329 1.367 . S
C1328 C1336 1.378 . S
C1329 C1328 1.367 . S
C1329 C1337 1.433 . S
C1330 H1326 0.929 . S
C1330 C1332 1.378 . S
C1330 C1334 1.350 . S
C1331 C1334 1.463 . S
C1331 C1336 1.350 . S
C1331 N1339 1.427 . S
C1332 H1323 0.930 . S
C1332 C1330 1.378 . S
C1332 C1333 1.367 . S
C1333 C1332 1.367 . S
C1333 C1335 1.433 . S
C1334 C1330 1.350 . S
C1334 C1331 1.463 . S
C1334 N1338 1.427 . S
C1335 H1325 0.929 . S
C1335 C1333 1.433 . S
C1335 N1338 1.384 . S
C1336 H1327 0.929 . S
C1336 C1328 1.378 . S
C1336 C1331 1.350 . S
C1337 H1324 0.929 . S
C1337 C1329 1.433 . S
C1337 N1339 1.384 . S
N1338 C1334 1.427 . S
N1338 C1335 1.384 . S
N1339 C1331 1.427 . S
N1339 C1337 1.384 . S
H1340 C1346 0.930 . S
H1341 C1350 0.930 . S
H1342 C1355 0.929 . S
H1343 C1353 0.929 . S
H1344 C1348 0.929 . S
H1345 C1354 0.929 . S
C1346 H1340 0.930 . S
C1346 C1347 1.367 . S
C1346 C1354 1.378 . S
C1347 C1346 1.367 . S
C1347 C1355 1.433 . S
C1348 H1344 0.929 . S
C1348 C1350 1.378 . S
C1348 C1352 1.350 . S
C1349 C1352 1.463 1_455 S
C1349 C1354 1.350 . S
C1349 N1357 1.427 . S
C1350 H1341 0.930 . S
C1350 C1348 1.378 . S
C1350 C1351 1.367 . S
C1351 C1350 1.367 . S
C1351 C1353 1.433 . S
C1352 C1348 1.350 . S
C1352 C1349 1.463 1_655 S
C1352 N1356 1.427 . S
C1353 H1343 0.929 . S
C1353 C1351 1.433 . S
C1353 N1356 1.384 . S
C1354 H1345 0.929 . S
C1354 C1346 1.378 . S
C1354 C1349 1.350 . S
C1355 H1342 0.929 . S
C1355 C1347 1.433 . S
C1355 N1357 1.384 . S
N1356 C1352 1.427 . S
N1356 C1353 1.384 . S
N1357 C1349 1.427 . S
N1357 C1355 1.384 . S
H1358 C1364 0.930 . S
H1359 C1368 0.930 . S
H1360 C1373 0.929 . S
H1361 C1371 0.929 . S
H1362 C1366 0.929 . S
H1363 C1372 0.929 . S
C1364 H1358 0.930 . S
C1364 C1365 1.367 . S
C1364 C1372 1.378 1_655 S
C1365 C1364 1.367 . S
C1365 C1373 1.433 . S
C1366 H1362 0.929 . S
C1366 C1368 1.378 1_655 S
C1366 C1370 1.350 1_655 S
C1367 C1370 1.463 1_655 S
C1367 C1372 1.350 1_655 S
C1367 N1375 1.427 . S
C1368 H1359 0.930 . S
C1368 C1366 1.378 1_455 S
C1368 C1369 1.367 . S
C1369 C1368 1.367 . S
C1369 C1371 1.433 . S
C1370 C1366 1.350 1_455 S
C1370 C1367 1.463 1_455 S
C1370 N1374 1.427 . S
C1371 H1361 0.929 . S
C1371 C1369 1.433 . S
C1371 N1374 1.384 . S
C1372 H1363 0.929 . S
C1372 C1364 1.378 1_455 S
C1372 C1367 1.350 1_455 S
C1373 H1360 0.929 . S
C1373 C1365 1.433 . S
C1373 N1375 1.384 . S
N1374 C1370 1.427 . S
N1374 C1371 1.384 . S
N1375 C1367 1.427 . S
N1375 C1373 1.384 . S
H1376 C1382 0.930 . S
H1377 C1386 0.930 . S
H1378 C1391 0.929 . S
H1379 C1389 0.929 . S
H1380 C1384 0.929 . S
H1381 C1390 0.929 . S
C1382 H1376 0.930 . S
C1382 C1383 1.367 . S
C1382 C1390 1.378 . S
C1383 C1382 1.367 . S
C1383 C1391 1.433 . S
C1384 H1380 0.929 . S
C1384 C1386 1.378 . S
C1384 C1388 1.350 . S
C1385 C1388 1.463 . S
C1385 C1390 1.350 . S
C1385 N1393 1.427 . S
C1386 H1377 0.930 . S
C1386 C1384 1.378 . S
C1386 C1387 1.367 . S
C1387 C1386 1.367 . S
C1387 C1389 1.433 . S
C1388 C1384 1.350 . S
C1388 C1385 1.463 . S
C1388 N1392 1.427 . S
C1389 H1379 0.929 . S
C1389 C1387 1.433 . S
C1389 N1392 1.384 . S
C1390 H1381 0.929 . S
C1390 C1382 1.378 . S
C1390 C1385 1.350 . S
C1391 H1378 0.929 . S
C1391 C1383 1.433 . S
C1391 N1393 1.384 . S
N1392 C1388 1.427 . S
N1392 C1389 1.384 . S
N1393 C1385 1.427 . S
N1393 C1391 1.384 . S
H1394 C1400 0.930 . S
H1395 C1404 0.930 . S
H1396 C1409 0.929 . S
H1397 C1407 0.929 . S
H1398 C1402 0.929 . S
H1399 C1408 0.929 . S
C1400 H1394 0.930 . S
C1400 C1401 1.367 1_545 S
C1400 C1408 1.378 . S
C1401 C1400 1.367 1_565 S
C1401 C1409 1.433 . S
C1402 H1398 0.929 . S
C1402 C1404 1.378 . S
C1402 C1406 1.350 . S
C1403 C1406 1.463 1_655 S
C1403 C1408 1.350 1_565 S
C1403 N1411 1.427 1_655 S
C1404 H1395 0.930 . S
C1404 C1402 1.378 . S
C1404 C1405 1.367 . S
C1405 C1404 1.367 . S
C1405 C1407 1.433 1_565 S
C1406 C1402 1.350 . S
C1406 C1403 1.463 1_455 S
C1406 N1410 1.427 1_465 S
C1407 H1397 0.929 . S
C1407 C1405 1.433 1_545 S
C1407 N1410 1.384 1_455 S
C1408 H1399 0.929 . S
C1408 C1400 1.378 . S
C1408 C1403 1.350 1_545 S
C1409 H1396 0.929 . S
C1409 C1401 1.433 . S
C1409 N1411 1.384 1_655 S
N1410 C1406 1.427 1_645 S
N1410 C1407 1.384 1_655 S
N1411 C1403 1.427 1_455 S
N1411 C1409 1.384 1_455 S
H1412 C1418 0.930 . S
H1413 C1422 0.930 . S
H1414 C1427 0.929 . S
H1415 C1425 0.929 . S
H1416 C1420 0.929 . S
H1417 C1426 0.929 . S
C1418 H1412 0.930 . S
C1418 C1419 1.367 . S
C1418 C1426 1.378 . S
C1419 C1418 1.367 . S
C1419 C1427 1.433 . S
C1420 H1416 0.929 . S
C1420 C1422 1.378 . S
C1420 C1424 1.350 . S
C1421 C1424 1.463 . S
C1421 C1426 1.350 . S
C1421 N1429 1.427 . S
C1422 H1413 0.930 . S
C1422 C1420 1.378 . S
C1422 C1423 1.367 . S
C1423 C1422 1.367 . S
C1423 C1425 1.433 . S
C1424 C1420 1.350 . S
C1424 C1421 1.463 . S
C1424 N1428 1.427 . S
C1425 H1415 0.929 . S
C1425 C1423 1.433 . S
C1425 N1428 1.384 . S
C1426 H1417 0.929 . S
C1426 C1418 1.378 . S
C1426 C1421 1.350 . S
C1427 H1414 0.929 . S
C1427 C1419 1.433 . S
C1427 N1429 1.384 . S
N1428 C1424 1.427 . S
N1428 C1425 1.384 . S
N1429 C1421 1.427 . S
N1429 C1427 1.384 . S
H1430 C1436 0.930 . S
H1431 C1440 0.930 . S
H1432 C1445 0.929 . S
H1433 C1443 0.929 . S
H1434 C1438 0.929 . S
H1435 C1444 0.929 . S
C1436 H1430 0.930 . S
C1436 C1437 1.367 1_565 S
C1436 C1444 1.378 . S
C1437 C1436 1.367 1_545 S
C1437 C1445 1.433 . S
C1438 H1434 0.929 . S
C1438 C1440 1.378 . S
C1438 C1442 1.350 . S
C1439 C1442 1.463 1_554 S
C1439 C1444 1.350 1_545 S
C1439 N1447 1.427 . S
C1440 H1431 0.930 . S
C1440 C1438 1.378 . S
C1440 C1441 1.367 . S
C1441 C1440 1.367 . S
C1441 C1443 1.433 1_545 S
C1442 C1438 1.350 . S
C1442 C1439 1.463 1_556 S
C1442 N1446 1.427 1_545 S
C1443 H1433 0.929 . S
C1443 C1441 1.433 1_565 S
C1443 N1446 1.384 . S
C1444 H1435 0.929 . S
C1444 C1436 1.378 . S
C1444 C1439 1.350 1_565 S
C1445 H1432 0.929 . S
C1445 C1437 1.433 . S
C1445 N1447 1.384 . S
N1446 C1442 1.427 1_565 S
N1446 C1443 1.384 . S
N1447 C1439 1.427 . S
N1447 C1445 1.384 . S
H1448 C1454 0.930 . S
H1449 C1458 0.930 . S
H1450 C1463 0.929 . S
H1451 C1461 0.929 . S
H1452 C1456 0.929 . S
H1453 C1462 0.929 . S
C1454 H1448 0.930 . S
C1454 C1455 1.367 . S
C1454 C1462 1.378 . S
C1455 C1454 1.367 . S
C1455 C1463 1.433 . S
C1456 H1452 0.929 . S
C1456 C1458 1.378 . S
C1456 C1460 1.350 . S
C1457 C1460 1.463 . S
C1457 C1462 1.350 . S
C1457 N1465 1.427 . S
C1458 H1449 0.930 . S
C1458 C1456 1.378 . S
C1458 C1459 1.367 . S
C1459 C1458 1.367 . S
C1459 C1461 1.433 . S
C1460 C1456 1.350 . S
C1460 C1457 1.463 . S
C1460 N1464 1.427 . S
C1461 H1451 0.929 . S
C1461 C1459 1.433 . S
C1461 N1464 1.384 . S
C1462 H1453 0.929 . S
C1462 C1454 1.378 . S
C1462 C1457 1.350 . S
C1463 H1450 0.929 . S
C1463 C1455 1.433 . S
C1463 N1465 1.384 . S
N1464 C1460 1.427 . S
N1464 C1461 1.384 . S
N1465 C1457 1.427 . S
N1465 C1463 1.384 . S
H1466 C1472 0.930 . S
H1467 C1476 0.930 . S
H1468 C1481 0.929 . S
H1469 C1479 0.929 . S
H1470 C1474 0.927 1_545 S
H1471 C1480 0.929 . S
C1472 H1466 0.930 . S
C1472 C1473 1.367 . S
C1472 C1480 1.378 . S
C1473 C1472 1.367 . S
C1473 C1481 1.433 1_565 S
C1474 H1470 0.927 1_565 S
C1474 C1476 1.378 . S
C1474 C1478 1.350 . S
C1475 C1478 1.463 . S
C1475 C1480 1.350 . S
C1475 N1483 1.427 . S
C1476 H1467 0.930 . S
C1476 C1474 1.378 . S
C1476 C1477 1.367 . S
C1477 C1476 1.367 . S
C1477 C1479 1.433 . S
C1478 C1474 1.350 . S
C1478 C1475 1.463 . S
C1478 N1482 1.427 . S
C1479 H1469 0.929 . S
C1479 C1477 1.433 . S
C1479 N1482 1.384 . S
C1480 H1471 0.929 . S
C1480 C1472 1.378 . S
C1480 C1475 1.350 . S
C1481 H1468 0.929 . S
C1481 C1473 1.433 1_545 S
C1481 N1483 1.384 1_545 S
N1482 C1478 1.427 . S
N1482 C1479 1.384 . S
N1483 C1475 1.427 . S
N1483 C1481 1.384 1_565 S
H1484 C1490 0.930 . S
H1485 C1494 0.930 . S
H1486 C1499 0.929 . S
H1487 C1497 0.929 . S
H1488 C1492 0.929 . S
H1489 C1498 0.929 . S
C1490 H1484 0.930 . S
C1490 C1491 1.367 . S
C1490 C1498 1.378 . S
C1491 C1490 1.367 . S
C1491 C1499 1.433 . S
C1492 H1488 0.929 . S
C1492 C1494 1.378 . S
C1492 C1496 1.350 . S
C1493 C1496 1.463 . S
C1493 C1498 1.350 . S
C1493 N1501 1.427 . S
C1494 H1485 0.930 . S
C1494 C1492 1.378 . S
C1494 C1495 1.367 . S
C1495 C1494 1.367 . S
C1495 C1497 1.433 . S
C1496 C1492 1.350 . S
C1496 C1493 1.463 . S
C1496 N1500 1.427 . S
C1497 H1487 0.929 . S
C1497 C1495 1.433 . S
C1497 N1500 1.384 . S
C1498 H1489 0.929 . S
C1498 C1490 1.378 . S
C1498 C1493 1.350 . S
C1499 H1486 0.929 . S
C1499 C1491 1.433 . S
C1499 N1501 1.384 . S
N1500 C1496 1.427 . S
N1500 C1497 1.384 . S
N1501 C1493 1.427 . S
N1501 C1499 1.384 . S
H1502 C1508 0.930 . S
H1503 C1512 0.930 . S
H1504 C1517 0.937 . S
H1505 C1515 0.929 . S
H1506 C1510 0.935 1_554 S
H1507 C1516 0.929 . S
C1508 H1502 0.930 . S
C1508 C1509 1.367 . S
C1508 C1516 1.378 . S
C1509 C1508 1.367 . S
C1509 C1517 1.425 1_645 S
C1510 H1506 0.935 1_556 S
C1510 C1512 1.378 . S
C1510 C1514 1.350 1_565 S
C1511 C1514 1.463 1_654 S
C1511 C1516 1.350 . S
C1511 N1519 1.427 1_645 S
C1512 H1503 0.930 . S
C1512 C1510 1.378 . S
C1512 C1513 1.367 1_565 S
C1513 C1512 1.367 1_545 S
C1513 C1515 1.433 1_455 S
C1514 C1510 1.350 1_545 S
C1514 C1511 1.463 1_456 S
C1514 N1518 1.427 1_455 S
C1515 H1505 0.929 . S
C1515 C1513 1.433 1_655 S
C1515 N1518 1.384 . S
C1516 H1507 0.929 . S
C1516 C1508 1.378 . S
C1516 C1511 1.350 . S
C1517 H1504 0.937 . S
C1517 C1509 1.425 1_465 S
C1517 N1519 1.385 . S
N1518 C1514 1.427 1_655 S
N1518 C1515 1.384 . S
N1519 C1511 1.427 1_465 S
N1519 C1517 1.385 . S
H1520 C1526 0.930 . S
H1521 C1530 0.930 . S
H1522 C1535 0.929 . S
H1523 C1533 0.929 . S
H1524 C1528 0.929 . S
H1525 C1534 0.929 . S
C1526 H1520 0.930 . S
C1526 C1527 1.367 . S
C1526 C1534 1.378 . S
C1527 C1526 1.367 . S
C1527 C1535 1.433 . S
C1528 H1524 0.929 . S
C1528 C1530 1.378 . S
C1528 C1532 1.350 . S
C1529 C1532 1.463 . S
C1529 C1534 1.350 . S
C1529 N1537 1.427 . S
C1530 H1521 0.930 . S
C1530 C1528 1.378 . S
C1530 C1531 1.367 . S
C1531 C1530 1.367 . S
C1531 C1533 1.433 . S
C1532 C1528 1.350 . S
C1532 C1529 1.463 . S
C1532 N1536 1.427 . S
C1533 H1523 0.929 . S
C1533 C1531 1.433 . S
C1533 N1536 1.384 . S
C1534 H1525 0.929 . S
C1534 C1526 1.378 . S
C1534 C1529 1.350 . S
C1535 H1522 0.929 . S
C1535 C1527 1.433 . S
C1535 N1537 1.384 . S
N1536 C1532 1.427 . S
N1536 C1533 1.384 . S
N1537 C1529 1.427 . S
N1537 C1535 1.384 . S
H1538 C1544 0.930 . S
H1539 C1548 0.930 . S
H1540 C1553 0.929 . S
H1541 C1551 0.929 . S
H1542 C1546 0.929 . S
H1543 C1552 0.929 . S
C1544 H1538 0.930 . S
C1544 C1545 1.367 . S
C1544 C1552 1.378 . S
C1545 C1544 1.367 . S
C1545 C1553 1.433 . S
C1546 H1542 0.929 . S
C1546 C1548 1.378 . S
C1546 C1550 1.350 . S
C1547 C1550 1.463 . S
C1547 C1552 1.350 . S
C1547 N1555 1.427 . S
C1548 H1539 0.930 . S
C1548 C1546 1.378 . S
C1548 C1549 1.367 . S
C1549 C1548 1.367 . S
C1549 C1551 1.433 . S
C1550 C1546 1.350 . S
C1550 C1547 1.463 . S
C1550 N1554 1.427 . S
C1551 H1541 0.929 . S
C1551 C1549 1.433 . S
C1551 N1554 1.384 . S
C1552 H1543 0.929 . S
C1552 C1544 1.378 . S
C1552 C1547 1.350 . S
C1553 H1540 0.929 . S
C1553 C1545 1.433 . S
C1553 N1555 1.384 . S
N1554 C1550 1.427 . S
N1554 C1551 1.384 . S
N1555 C1547 1.427 . S
N1555 C1553 1.384 . S
H1556 C1562 0.930 . S
H1557 C1566 0.930 . S
H1558 C1571 0.929 . S
H1559 C1569 0.929 . S
H1560 C1564 0.929 . S
H1561 C1570 0.929 . S
C1562 H1556 0.930 . S
C1562 C1563 1.367 . S
C1562 C1570 1.378 . S
C1563 C1562 1.367 . S
C1563 C1571 1.433 . S
C1564 H1560 0.929 . S
C1564 C1566 1.378 . S
C1564 C1568 1.350 . S
C1565 C1568 1.463 . S
C1565 C1570 1.350 . S
C1565 N1573 1.427 . S
C1566 H1557 0.930 . S
C1566 C1564 1.378 . S
C1566 C1567 1.367 . S
C1567 C1566 1.367 . S
C1567 C1569 1.433 . S
C1568 C1564 1.350 . S
C1568 C1565 1.463 . S
C1568 N1572 1.427 . S
C1569 H1559 0.929 . S
C1569 C1567 1.433 . S
C1569 N1572 1.384 . S
C1570 H1561 0.929 . S
C1570 C1562 1.378 . S
C1570 C1565 1.350 . S
C1571 H1558 0.929 . S
C1571 C1563 1.433 . S
C1571 N1573 1.384 . S
N1572 C1568 1.427 . S
N1572 C1569 1.384 . S
N1573 C1565 1.427 . S
N1573 C1571 1.384 . S
H1574 C1580 0.930 . S
H1575 C1584 0.930 . S
H1576 C1589 0.929 . S
H1577 C1587 0.929 . S
H1578 C1582 0.929 . S
H1579 C1588 0.929 . S
C1580 H1574 0.930 . S
C1580 C1581 1.367 . S
C1580 C1588 1.378 . S
C1581 C1580 1.367 . S
C1581 C1589 1.433 . S
C1582 H1578 0.929 . S
C1582 C1584 1.378 . S
C1582 C1586 1.350 . S
C1583 C1586 1.463 . S
C1583 C1588 1.350 . S
C1583 N1591 1.427 . S
C1584 H1575 0.930 . S
C1584 C1582 1.378 . S
C1584 C1585 1.367 . S
C1585 C1584 1.367 . S
C1585 C1587 1.433 . S
C1586 C1582 1.350 . S
C1586 C1583 1.463 . S
C1586 N1590 1.427 . S
C1587 H1577 0.929 . S
C1587 C1585 1.433 . S
C1587 N1590 1.384 . S
C1588 H1579 0.929 . S
C1588 C1580 1.378 . S
C1588 C1583 1.350 . S
C1589 H1576 0.929 . S
C1589 C1581 1.433 . S
C1589 N1591 1.384 . S
N1590 C1586 1.427 . S
N1590 C1587 1.384 . S
N1591 C1583 1.427 . S
N1591 C1589 1.384 . S
H1592 C1598 0.930 . S
H1593 C1602 0.930 . S
H1594 C1607 0.929 . S
H1595 C1605 0.929 . S
H1596 C1600 0.934 1_556 S
H1597 C1606 0.929 . S
C1598 H1592 0.930 . S
C1598 C1599 1.367 . S
C1598 C1606 1.378 . S
C1599 C1598 1.367 . S
C1599 C1607 1.433 . S
C1600 H1596 0.934 1_554 S
C1600 C1602 1.378 . S
C1600 C1604 1.350 . S
C1601 C1604 1.463 1_556 S
C1601 C1606 1.350 . S
C1601 N1609 1.427 . S
C1602 H1593 0.930 . S
C1602 C1600 1.378 . S
C1602 C1603 1.367 . S
C1603 C1602 1.367 . S
C1603 C1605 1.433 . S
C1604 C1600 1.350 . S
C1604 C1601 1.463 1_554 S
C1604 N1608 1.427 . S
C1605 H1595 0.929 . S
C1605 C1603 1.433 . S
C1605 N1608 1.384 . S
C1606 H1597 0.929 . S
C1606 C1598 1.378 . S
C1606 C1601 1.350 . S
C1607 H1594 0.929 . S
C1607 C1599 1.433 . S
C1607 N1609 1.384 . S
N1608 C1604 1.427 . S
N1608 C1605 1.384 . S
N1609 C1601 1.427 . S
N1609 C1607 1.384 . S
H1610 C1616 0.930 . S
H1611 C1620 0.930 . S
H1612 C1625 0.929 . S
H1613 C1623 0.929 . S
H1614 C1618 0.929 . S
H1615 C1624 0.929 . S
C1616 H1610 0.930 . S
C1616 C1617 1.367 . S
C1616 C1624 1.378 . S
C1617 C1616 1.367 . S
C1617 C1625 1.433 . S
C1618 H1614 0.929 . S
C1618 C1620 1.378 . S
C1618 C1622 1.350 . S
C1619 C1622 1.463 1_455 S
C1619 C1624 1.350 . S
C1619 N1627 1.427 . S
C1620 H1611 0.930 . S
C1620 C1618 1.378 . S
C1620 C1621 1.367 . S
C1621 C1620 1.367 . S
C1621 C1623 1.433 . S
C1622 C1618 1.350 . S
C1622 C1619 1.463 1_655 S
C1622 N1626 1.429 . S
C1623 H1613 0.929 . S
C1623 C1621 1.433 . S
C1623 N1626 1.387 . S
C1624 H1615 0.929 . S
C1624 C1616 1.378 . S
C1624 C1619 1.350 . S
C1625 H1612 0.929 . S
C1625 C1617 1.433 . S
C1625 N1627 1.384 . S
N1626 C1622 1.429 . S
N1626 C1623 1.387 . S
N1627 C1619 1.427 . S
N1627 C1625 1.384 . S
H1628 C1634 0.930 . S
H1629 C1638 0.930 . S
H1630 C1643 0.929 . S
H1631 C1641 0.929 . S
H1632 C1636 0.929 . S
H1633 C1642 0.922 1_554 S
C1634 H1628 0.930 . S
C1634 C1635 1.367 . S
C1634 C1642 1.378 . S
C1635 C1634 1.367 . S
C1635 C1643 1.433 1_655 S
C1636 H1632 0.929 . S
C1636 C1638 1.378 . S
C1636 C1640 1.350 . S
C1637 C1640 1.463 1_656 S
C1637 C1642 1.350 . S
C1637 N1645 1.427 1_655 S
C1638 H1629 0.930 . S
C1638 C1636 1.378 . S
C1638 C1639 1.367 . S
C1639 C1638 1.367 . S
C1639 C1641 1.433 1_455 S
C1640 C1636 1.350 . S
C1640 C1637 1.463 1_454 S
C1640 N1644 1.427 1_455 S
C1641 H1631 0.929 . S
C1641 C1639 1.433 1_655 S
C1641 N1644 1.384 . S
C1642 H1633 0.922 1_556 S
C1642 C1634 1.378 . S
C1642 C1637 1.350 . S
C1643 H1630 0.929 . S
C1643 C1635 1.433 1_455 S
C1643 N1645 1.384 . S
N1644 C1640 1.427 1_655 S
N1644 C1641 1.384 . S
N1645 C1637 1.427 1_455 S
N1645 C1643 1.384 . S
H1646 C1652 0.930 . S
H1647 C1656 0.930 . S
H1648 C1661 0.929 . S
H1649 C1659 0.929 . S
H1650 C1654 0.929 . S
H1651 C1660 0.929 . S
C1652 H1646 0.930 . S
C1652 C1653 1.367 . S
C1652 C1660 1.378 . S
C1653 C1652 1.367 . S
C1653 C1661 1.433 . S
C1654 H1650 0.929 . S
C1654 C1656 1.378 . S
C1654 C1658 1.350 . S
C1655 C1658 1.463 . S
C1655 C1660 1.350 . S
C1655 N1663 1.427 . S
C1656 H1647 0.930 . S
C1656 C1654 1.378 . S
C1656 C1657 1.367 . S
C1657 C1656 1.367 . S
C1657 C1659 1.433 . S
C1658 C1654 1.350 . S
C1658 C1655 1.463 . S
C1658 N1662 1.427 . S
C1659 H1649 0.929 . S
C1659 C1657 1.433 . S
C1659 N1662 1.384 . S
C1660 H1651 0.929 . S
C1660 C1652 1.378 . S
C1660 C1655 1.350 . S
C1661 H1648 0.929 . S
C1661 C1653 1.433 . S
C1661 N1663 1.384 . S
N1662 C1658 1.427 . S
N1662 C1659 1.384 . S
N1663 C1655 1.427 . S
N1663 C1661 1.384 . S
H1664 C1670 0.930 . S
H1665 C1674 0.930 . S
H1666 C1679 0.929 . S
H1667 C1677 0.929 . S
H1668 C1672 0.929 . S
H1669 C1678 0.929 . S
C1670 H1664 0.930 . S
C1670 C1671 1.367 . S
C1670 C1678 1.378 1_545 S
C1671 C1670 1.367 . S
C1671 C1679 1.433 . S
C1672 H1668 0.929 . S
C1672 C1674 1.378 . S
C1672 C1676 1.350 . S
C1673 C1676 1.463 . S
C1673 C1678 1.350 . S
C1673 N1681 1.427 . S
C1674 H1665 0.930 . S
C1674 C1672 1.378 . S
C1674 C1675 1.367 . S
C1675 C1674 1.367 . S
C1675 C1677 1.433 . S
C1676 C1672 1.350 . S
C1676 C1673 1.463 . S
C1676 N1680 1.427 . S
C1677 H1667 0.929 . S
C1677 C1675 1.433 . S
C1677 N1680 1.384 . S
C1678 H1669 0.929 . S
C1678 C1670 1.378 1_565 S
C1678 C1673 1.350 . S
C1679 H1666 0.929 . S
C1679 C1671 1.433 . S
C1679 N1681 1.384 1_545 S
N1680 C1676 1.427 . S
N1680 C1677 1.384 . S
N1681 C1673 1.427 . S
N1681 C1679 1.384 1_565 S
H1682 C1688 0.930 . S
H1683 C1692 0.930 . S
H1684 C1697 0.929 . S
H1685 C1695 0.929 . S
H1686 C1690 0.929 1_545 S
H1687 C1696 0.929 . S
C1688 H1682 0.930 . S
C1688 C1689 1.367 . S
C1688 C1696 1.378 1_545 S
C1689 C1688 1.367 . S
C1689 C1697 1.433 . S
C1690 H1686 0.929 1_565 S
C1690 C1692 1.378 . S
C1690 C1694 1.350 . S
C1691 C1694 1.462 1_545 S
C1691 C1696 1.349 1_545 S
C1691 N1699 1.429 . S
C1692 H1683 0.930 . S
C1692 C1690 1.378 . S
C1692 C1693 1.367 . S
C1693 C1692 1.367 . S
C1693 C1695 1.433 . S
C1694 C1690 1.350 . S
C1694 C1691 1.462 1_565 S
C1694 N1698 1.427 . S
C1695 H1685 0.929 . S
C1695 C1693 1.433 . S
C1695 N1698 1.384 . S
C1696 H1687 0.929 . S
C1696 C1688 1.378 1_565 S
C1696 C1691 1.349 1_565 S
C1697 H1684 0.929 . S
C1697 C1689 1.433 . S
C1697 N1699 1.384 . S
N1698 C1694 1.427 . S
N1698 C1695 1.384 . S
N1699 C1691 1.429 . S
N1699 C1697 1.384 . S
H1700 C1706 0.930 . S
H1701 C1710 0.930 . S
H1702 C1715 0.929 . S
H1703 C1713 0.929 . S
H1704 C1708 0.929 . S
H1705 C1714 0.929 . S
C1706 H1700 0.930 . S
C1706 C1707 1.367 . S
C1706 C1714 1.378 . S
C1707 C1706 1.367 . S
C1707 C1715 1.433 . S
C1708 H1704 0.929 . S
C1708 C1710 1.378 1_545 S
C1708 C1712 1.350 . S
C1709 C1712 1.463 . S
C1709 C1714 1.350 . S
C1709 N1717 1.427 . S
C1710 H1701 0.930 . S
C1710 C1708 1.378 1_565 S
C1710 C1711 1.367 . S
C1711 C1710 1.367 . S
C1711 C1713 1.433 . S
C1712 C1708 1.350 . S
C1712 C1709 1.463 . S
C1712 N1716 1.427 . S
C1713 H1703 0.929 . S
C1713 C1711 1.433 . S
C1713 N1716 1.384 1_565 S
C1714 H1705 0.929 . S
C1714 C1706 1.378 . S
C1714 C1709 1.350 . S
C1715 H1702 0.929 . S
C1715 C1707 1.433 . S
C1715 N1717 1.384 . S
N1716 C1712 1.427 . S
N1716 C1713 1.384 1_545 S
N1717 C1709 1.427 . S
N1717 C1715 1.384 . S
H1718 C1724 0.930 . S
H1719 C1728 0.930 . S
H1720 C1733 0.929 . S
H1721 C1731 0.929 . S
H1722 C1726 0.929 . S
H1723 C1732 0.929 . S
C1724 H1718 0.930 . S
C1724 C1725 1.367 . S
C1724 C1732 1.378 . S
C1725 C1724 1.367 . S
C1725 C1733 1.433 1_545 S
C1726 H1722 0.929 . S
C1726 C1728 1.378 . S
C1726 C1730 1.350 . S
C1727 C1730 1.463 1_545 S
C1727 C1732 1.350 . S
C1727 N1735 1.427 1_545 S
C1728 H1719 0.930 . S
C1728 C1726 1.378 . S
C1728 C1729 1.367 . S
C1729 C1728 1.367 . S
C1729 C1731 1.433 1_565 S
C1730 C1726 1.350 . S
C1730 C1727 1.463 1_565 S
C1730 N1734 1.427 1_565 S
C1731 H1721 0.929 . S
C1731 C1729 1.433 1_545 S
C1731 N1734 1.384 . S
C1732 H1723 0.929 . S
C1732 C1724 1.378 . S
C1732 C1727 1.350 . S
C1733 H1720 0.929 . S
C1733 C1725 1.433 1_565 S
C1733 N1735 1.384 . S
N1734 C1730 1.427 1_545 S
N1734 C1731 1.384 . S
N1735 C1727 1.427 1_565 S
N1735 C1733 1.384 . S
H1736 C1742 0.930 . S
H1737 C1746 0.930 . S
H1738 C1751 0.929 . S
H1739 C1749 0.929 . S
H1740 C1744 0.929 . S
H1741 C1750 0.929 . S
C1742 H1736 0.930 . S
C1742 C1743 1.367 . S
C1742 C1750 1.378 . S
C1743 C1742 1.367 . S
C1743 C1751 1.433 . S
C1744 H1740 0.929 . S
C1744 C1746 1.378 1_545 S
C1744 C1748 1.350 . S
C1745 C1748 1.463 . S
C1745 C1750 1.350 . S
C1745 N1753 1.427 . S
C1746 H1737 0.930 . S
C1746 C1744 1.378 1_565 S
C1746 C1747 1.367 . S
C1747 C1746 1.367 . S
C1747 C1749 1.433 . S
C1748 C1744 1.350 . S
C1748 C1745 1.463 . S
C1748 N1752 1.427 . S
C1749 H1739 0.929 . S
C1749 C1747 1.433 . S
C1749 N1752 1.384 1_565 S
C1750 H1741 0.929 . S
C1750 C1742 1.378 . S
C1750 C1745 1.350 . S
C1751 H1738 0.929 . S
C1751 C1743 1.433 . S
C1751 N1753 1.384 . S
N1752 C1748 1.427 . S
N1752 C1749 1.384 1_545 S
N1753 C1745 1.427 . S
N1753 C1751 1.384 . S
H1754 C1760 0.930 1_545 S
H1755 C1764 0.930 . S
H1756 C1769 0.929 . S
H1757 C1767 0.929 . S
H1758 C1762 0.929 . S
H1759 C1768 0.929 . S
C1760 H1754 0.930 1_565 S
C1760 C1761 1.367 . S
C1760 C1768 1.378 1_565 S
C1761 C1760 1.367 . S
C1761 C1769 1.433 . S
C1762 H1758 0.929 . S
C1762 C1764 1.378 . S
C1762 C1766 1.351 1_565 S
C1763 C1766 1.463 1_565 S
C1763 C1768 1.350 1_565 S
C1763 N1771 1.427 . S
C1764 H1755 0.930 . S
C1764 C1762 1.378 . S
C1764 C1765 1.367 1_565 S
C1765 C1764 1.367 1_545 S
C1765 C1767 1.433 . S
C1766 C1762 1.351 1_545 S
C1766 C1763 1.463 1_545 S
C1766 N1770 1.426 . S
C1767 H1757 0.929 . S
C1767 C1765 1.433 . S
C1767 N1770 1.384 . S
C1768 H1759 0.929 . S
C1768 C1760 1.378 1_545 S
C1768 C1763 1.350 1_545 S
C1769 H1756 0.929 . S
C1769 C1761 1.433 . S
C1769 N1771 1.384 . S
N1770 C1766 1.426 . S
N1770 C1767 1.384 . S
N1771 C1763 1.427 . S
N1771 C1769 1.384 . S
H1772 C1778 0.930 . S
H1773 C1782 0.930 . S
H1774 C1787 0.929 . S
H1775 C1785 0.929 . S
H1776 C1780 0.929 . S
H1777 C1786 0.929 . S
C1778 H1772 0.930 . S
C1778 C1779 1.367 . S
C1778 C1786 1.378 1_545 S
C1779 C1778 1.367 . S
C1779 C1787 1.433 . S
C1780 H1776 0.929 . S
C1780 C1782 1.378 . S
C1780 C1784 1.350 . S
C1781 C1784 1.463 . S
C1781 C1786 1.350 . S
C1781 N1789 1.427 . S
C1782 H1773 0.930 . S
C1782 C1780 1.378 . S
C1782 C1783 1.367 . S
C1783 C1782 1.367 . S
C1783 C1785 1.433 . S
C1784 C1780 1.350 . S
C1784 C1781 1.463 . S
C1784 N1788 1.427 . S
C1785 H1775 0.929 . S
C1785 C1783 1.433 . S
C1785 N1788 1.384 . S
C1786 H1777 0.929 . S
C1786 C1778 1.378 1_565 S
C1786 C1781 1.350 . S
C1787 H1774 0.929 . S
C1787 C1779 1.433 . S
C1787 N1789 1.384 1_545 S
N1788 C1784 1.427 . S
N1788 C1785 1.384 . S
N1789 C1781 1.427 . S
N1789 C1787 1.384 1_565 S
H1790 C1796 0.930 . S
H1791 C1800 0.930 . S
H1792 C1805 0.929 . S
H1793 C1803 0.929 . S
H1794 C1798 0.929 . S
H1795 C1804 0.929 . S
C1796 H1790 0.930 . S
C1796 C1797 1.367 . S
C1796 C1804 1.378 . S
C1797 C1796 1.367 . S
C1797 C1805 1.433 1_545 S
C1798 H1794 0.929 . S
C1798 C1800 1.378 . S
C1798 C1802 1.350 . S
C1799 C1802 1.463 1_545 S
C1799 C1804 1.350 . S
C1799 N1807 1.427 1_545 S
C1800 H1791 0.930 . S
C1800 C1798 1.378 . S
C1800 C1801 1.367 . S
C1801 C1800 1.367 . S
C1801 C1803 1.433 1_565 S
C1802 C1798 1.350 . S
C1802 C1799 1.463 1_565 S
C1802 N1806 1.427 1_565 S
C1803 H1793 0.929 . S
C1803 C1801 1.433 1_545 S
C1803 N1806 1.384 . S
C1804 H1795 0.929 . S
C1804 C1796 1.378 . S
C1804 C1799 1.350 . S
C1805 H1792 0.929 . S
C1805 C1797 1.433 1_565 S
C1805 N1807 1.384 . S
N1806 C1802 1.427 1_545 S
N1806 C1803 1.384 . S
N1807 C1799 1.427 1_565 S
N1807 C1805 1.384 . S
H1808 C1814 0.930 . S
H1809 C1818 0.930 . S
H1810 C1823 0.929 . S
H1811 C1821 0.929 1_565 S
H1812 C1816 0.929 . S
H1813 C1822 0.929 . S
C1814 H1808 0.930 . S
C1814 C1815 1.367 . S
C1814 C1822 1.378 . S
C1815 C1814 1.367 . S
C1815 C1823 1.433 . S
C1816 H1812 0.929 . S
C1816 C1818 1.378 1_545 S
C1816 C1820 1.350 . S
C1817 C1820 1.463 . S
C1817 C1822 1.350 . S
C1817 N1825 1.427 . S
C1818 H1809 0.930 . S
C1818 C1816 1.378 1_565 S
C1818 C1819 1.367 . S
C1819 C1818 1.367 . S
C1819 C1821 1.433 1_565 S
C1820 C1816 1.350 . S
C1820 C1817 1.463 . S
C1820 N1824 1.427 . S
C1821 H1811 0.929 1_545 S
C1821 C1819 1.433 1_545 S
C1821 N1824 1.384 . S
C1822 H1813 0.929 . S
C1822 C1814 1.378 . S
C1822 C1817 1.350 . S
C1823 H1810 0.929 . S
C1823 C1815 1.433 . S
C1823 N1825 1.384 . S
N1824 C1820 1.427 . S
N1824 C1821 1.384 . S
N1825 C1817 1.427 . S
N1825 C1823 1.384 . S
H1826 C1832 0.930 . S
H1827 C1836 0.930 . S
H1828 C1841 0.929 . S
H1829 C1839 0.929 . S
H1830 C1834 0.929 . S
H1831 C1840 0.929 . S
C1832 H1826 0.930 . S
C1832 C1833 1.367 1_545 S
C1832 C1840 1.378 . S
C1833 C1832 1.367 1_565 S
C1833 C1841 1.433 . S
C1834 H1830 0.929 . S
C1834 C1836 1.378 . S
C1834 C1838 1.350 1_565 S
C1835 C1838 1.463 1_565 S
C1835 C1840 1.350 1_565 S
C1835 N1843 1.427 . S
C1836 H1827 0.930 . S
C1836 C1834 1.378 . S
C1836 C1837 1.367 1_565 S
C1837 C1836 1.367 1_545 S
C1837 C1839 1.433 . S
C1838 C1834 1.350 1_545 S
C1838 C1835 1.463 1_545 S
C1838 N1842 1.427 . S
C1839 H1829 0.929 . S
C1839 C1837 1.433 . S
C1839 N1842 1.384 . S
C1840 H1831 0.929 . S
C1840 C1832 1.378 . S
C1840 C1835 1.350 1_545 S
C1841 H1828 0.929 . S
C1841 C1833 1.433 . S
C1841 N1843 1.384 . S
N1842 C1838 1.427 . S
N1842 C1839 1.384 . S
N1843 C1835 1.427 . S
N1843 C1841 1.384 . S
H1844 C1850 0.930 . S
H1845 C1854 0.930 . S
H1846 C1859 0.929 . S
H1847 C1857 0.929 1_545 S
H1848 C1852 0.929 . S
H1849 C1858 0.929 . S
C1850 H1844 0.930 . S
C1850 C1851 1.367 . S
C1850 C1858 1.378 . S
C1851 C1850 1.367 . S
C1851 C1859 1.433 . S
C1852 H1848 0.929 . S
C1852 C1854 1.378 1_565 S
C1852 C1856 1.350 . S
C1853 C1856 1.463 . S
C1853 C1858 1.350 . S
C1853 N1861 1.427 . S
C1854 H1845 0.930 . S
C1854 C1852 1.378 1_545 S
C1854 C1855 1.367 . S
C1855 C1854 1.367 . S
C1855 C1857 1.433 1_545 S
C1856 C1852 1.350 . S
C1856 C1853 1.463 . S
C1856 N1860 1.427 . S
C1857 H1847 0.929 1_565 S
C1857 C1855 1.433 1_565 S
C1857 N1860 1.384 . S
C1858 H1849 0.929 . S
C1858 C1850 1.378 . S
C1858 C1853 1.350 . S
C1859 H1846 0.929 . S
C1859 C1851 1.433 . S
C1859 N1861 1.384 . S
N1860 C1856 1.427 . S
N1860 C1857 1.384 . S
N1861 C1853 1.427 . S
N1861 C1859 1.384 . S
H1862 C1868 0.930 . S
H1863 C1872 0.930 . S
H1864 C1877 0.929 . S
H1865 C1875 0.929 . S
H1866 C1870 0.929 . S
H1867 C1876 0.929 . S
C1868 H1862 0.930 . S
C1868 C1869 1.367 1_565 S
C1868 C1876 1.378 . S
C1869 C1868 1.367 1_545 S
C1869 C1877 1.433 . S
C1870 H1866 0.929 . S
C1870 C1872 1.378 . S
C1870 C1874 1.350 1_545 S
C1871 C1874 1.463 1_545 S
C1871 C1876 1.350 1_545 S
C1871 N1879 1.427 . S
C1872 H1863 0.930 . S
C1872 C1870 1.378 . S
C1872 C1873 1.367 1_545 S
C1873 C1872 1.367 1_565 S
C1873 C1875 1.433 . S
C1874 C1870 1.350 1_565 S
C1874 C1871 1.463 1_565 S
C1874 N1878 1.427 . S
C1875 H1865 0.929 . S
C1875 C1873 1.433 . S
C1875 N1878 1.384 . S
C1876 H1867 0.929 . S
C1876 C1868 1.378 . S
C1876 C1871 1.350 1_565 S
C1877 H1864 0.929 . S
C1877 C1869 1.433 . S
C1877 N1879 1.384 . S
N1878 C1874 1.427 . S
N1878 C1875 1.384 . S
N1879 C1871 1.427 . S
N1879 C1877 1.384 . S
H1880 C1886 0.930 . S
H1881 C1890 0.930 . S
H1882 C1895 0.929 . S
H1883 C1893 0.929 . S
H1884 C1888 0.929 . S
H1885 C1894 0.929 . S
C1886 H1880 0.930 . S
C1886 C1887 1.367 . S
C1886 C1894 1.378 1_545 S
C1887 C1886 1.367 . S
C1887 C1895 1.433 . S
C1888 H1884 0.929 . S
C1888 C1890 1.378 . S
C1888 C1892 1.350 . S
C1889 C1892 1.463 . S
C1889 C1894 1.350 . S
C1889 N1897 1.427 . S
C1890 H1881 0.930 . S
C1890 C1888 1.378 . S
C1890 C1891 1.367 . S
C1891 C1890 1.367 . S
C1891 C1893 1.433 . S
C1892 C1888 1.350 . S
C1892 C1889 1.463 . S
C1892 N1896 1.427 . S
C1893 H1883 0.929 . S
C1893 C1891 1.433 . S
C1893 N1896 1.384 . S
C1894 H1885 0.929 . S
C1894 C1886 1.378 1_565 S
C1894 C1889 1.350 . S
C1895 H1882 0.929 . S
C1895 C1887 1.433 . S
C1895 N1897 1.384 1_545 S
N1896 C1892 1.427 . S
N1896 C1893 1.384 . S
N1897 C1889 1.427 . S
N1897 C1895 1.384 1_565 S
H1898 C1904 0.930 . S
H1899 C1908 0.930 . S
H1900 C1913 0.929 . S
H1901 C1911 0.929 . S
H1902 C1906 0.929 . S
H1903 C1912 0.929 . S
C1904 H1898 0.930 . S
C1904 C1905 1.367 1_565 S
C1904 C1912 1.378 . S
C1905 C1904 1.367 1_545 S
C1905 C1913 1.433 . S
C1906 H1902 0.929 . S
C1906 C1908 1.378 . S
C1906 C1910 1.350 1_545 S
C1907 C1910 1.463 1_545 S
C1907 C1912 1.350 1_545 S
C1907 N1915 1.427 . S
C1908 H1899 0.930 . S
C1908 C1906 1.378 . S
C1908 C1909 1.367 1_545 S
C1909 C1908 1.367 1_565 S
C1909 C1911 1.433 . S
C1910 C1906 1.350 1_565 S
C1910 C1907 1.463 1_565 S
C1910 N1914 1.427 . S
C1911 H1901 0.929 . S
C1911 C1909 1.433 . S
C1911 N1914 1.384 . S
C1912 H1903 0.929 . S
C1912 C1904 1.378 . S
C1912 C1907 1.350 1_565 S
C1913 H1900 0.929 . S
C1913 C1905 1.433 . S
C1913 N1915 1.384 . S
N1914 C1910 1.427 . S
N1914 C1911 1.384 . S
N1915 C1907 1.427 . S
N1915 C1913 1.384 . S
H1916 C1922 0.930 . S
H1917 C1926 0.930 . S
H1918 C1931 0.929 . S
H1919 C1929 0.929 1_565 S
H1920 C1924 0.929 . S
H1921 C1930 0.929 . S
C1922 H1916 0.930 . S
C1922 C1923 1.367 . S
C1922 C1930 1.378 . S
C1923 C1922 1.367 . S
C1923 C1931 1.433 . S
C1924 H1920 0.929 . S
C1924 C1926 1.378 1_545 S
C1924 C1928 1.350 . S
C1925 C1928 1.463 . S
C1925 C1930 1.350 . S
C1925 N1933 1.427 . S
C1926 H1917 0.930 . S
C1926 C1924 1.378 1_565 S
C1926 C1927 1.367 . S
C1927 C1926 1.367 . S
C1927 C1929 1.433 1_565 S
C1928 C1924 1.350 . S
C1928 C1925 1.463 . S
C1928 N1932 1.427 . S
C1929 H1919 0.929 1_545 S
C1929 C1927 1.433 1_545 S
C1929 N1932 1.384 . S
C1930 H1921 0.929 . S
C1930 C1922 1.378 . S
C1930 C1925 1.350 . S
C1931 H1918 0.929 . S
C1931 C1923 1.433 . S
C1931 N1933 1.384 . S
N1932 C1928 1.427 . S
N1932 C1929 1.384 . S
N1933 C1925 1.427 . S
N1933 C1931 1.384 . S
H1934 C1940 0.930 . S
H1935 C1944 0.930 . S
H1936 C1949 0.929 . S
H1937 C1947 0.929 . S
H1938 C1942 0.929 . S
H1939 C1948 0.929 . S
C1940 H1934 0.930 . S
C1940 C1941 1.367 . S
C1940 C1948 1.378 . S
C1941 C1940 1.367 . S
C1941 C1949 1.433 1_545 S
C1942 H1938 0.929 . S
C1942 C1944 1.378 . S
C1942 C1946 1.350 . S
C1943 C1946 1.463 1_545 S
C1943 C1948 1.350 . S
C1943 N1951 1.427 1_545 S
C1944 H1935 0.930 . S
C1944 C1942 1.378 . S
C1944 C1945 1.367 . S
C1945 C1944 1.367 . S
C1945 C1947 1.433 1_565 S
C1946 C1942 1.350 . S
C1946 C1943 1.463 1_565 S
C1946 N1950 1.427 1_565 S
C1947 H1937 0.929 . S
C1947 C1945 1.433 1_545 S
C1947 N1950 1.384 . S
C1948 H1939 0.929 . S
C1948 C1940 1.378 . S
C1948 C1943 1.350 . S
C1949 H1936 0.929 . S
C1949 C1941 1.433 1_565 S
C1949 N1951 1.384 . S
N1950 C1946 1.427 1_545 S
N1950 C1947 1.384 . S
N1951 C1943 1.427 1_565 S
N1951 C1949 1.384 . S
H1952 C1958 0.930 . S
H1953 C1962 0.930 . S
H1954 C1967 0.929 . S
H1955 C1965 0.929 . S
H1956 C1960 0.929 . S
H1957 C1966 0.929 . S
C1958 H1952 0.930 . S
C1958 C1959 1.367 . S
C1958 C1966 1.378 . S
C1959 C1958 1.367 . S
C1959 C1967 1.433 . S
C1960 H1956 0.929 . S
C1960 C1962 1.378 . S
C1960 C1964 1.350 . S
C1961 C1964 1.463 . S
C1961 C1966 1.350 . S
C1961 N1969 1.427 . S
C1962 H1953 0.930 . S
C1962 C1960 1.378 . S
C1962 C1963 1.367 . S
C1963 C1962 1.367 . S
C1963 C1965 1.433 . S
C1964 C1960 1.350 . S
C1964 C1961 1.463 . S
C1964 N1968 1.427 . S
C1965 H1955 0.929 . S
C1965 C1963 1.433 . S
C1965 N1968 1.384 . S
C1966 H1957 0.929 . S
C1966 C1958 1.378 . S
C1966 C1961 1.350 . S
C1967 H1954 0.929 . S
C1967 C1959 1.433 . S
C1967 N1969 1.384 . S
N1968 C1964 1.427 . S
N1968 C1965 1.384 . S
N1969 C1961 1.427 . S
N1969 C1967 1.384 . S
H1970 C1976 0.930 . S
H1971 C1980 0.930 . S
H1972 C1985 0.929 . S
H1973 C1983 0.929 . S
H1974 C1978 0.929 . S
H1975 C1984 0.929 . S
C1976 H1970 0.930 . S
C1976 C1977 1.367 . S
C1976 C1984 1.378 . S
C1977 C1976 1.367 . S
C1977 C1985 1.433 . S
C1978 H1974 0.929 . S
C1978 C1980 1.378 . S
C1978 C1982 1.350 . S
C1979 C1982 1.463 . S
C1979 C1984 1.350 . S
C1979 N1987 1.427 . S
C1980 H1971 0.930 . S
C1980 C1978 1.378 . S
C1980 C1981 1.367 . S
C1981 C1980 1.367 . S
C1981 C1983 1.433 . S
C1982 C1978 1.350 . S
C1982 C1979 1.463 . S
C1982 N1986 1.427 . S
C1983 H1973 0.929 . S
C1983 C1981 1.433 . S
C1983 N1986 1.384 . S
C1984 H1975 0.929 . S
C1984 C1976 1.378 . S
C1984 C1979 1.350 . S
C1985 H1972 0.929 . S
C1985 C1977 1.433 . S
C1985 N1987 1.384 . S
N1986 C1982 1.427 . S
N1986 C1983 1.384 . S
N1987 C1979 1.427 . S
N1987 C1985 1.384 . S
H1988 C1994 0.930 . S
H1989 C1998 0.930 . S
H1990 C2003 0.929 . S
H1991 C2001 0.929 . S
H1992 C1996 0.929 . S
H1993 C2002 0.929 . S
C1994 H1988 0.930 . S
C1994 C1995 1.367 . S
C1994 C2002 1.378 . S
C1995 C1994 1.367 . S
C1995 C2003 1.433 . S
C1996 H1992 0.929 . S
C1996 C1998 1.378 . S
C1996 C2000 1.350 . S
C1997 C2000 1.463 . S
C1997 C2002 1.350 . S
C1997 N2005 1.427 . S
C1998 H1989 0.930 . S
C1998 C1996 1.378 . S
C1998 C1999 1.367 . S
C1999 C1998 1.367 . S
C1999 C2001 1.433 . S
C2000 C1996 1.350 . S
C2000 C1997 1.463 . S
C2000 N2004 1.427 . S
C2001 H1991 0.929 . S
C2001 C1999 1.433 . S
C2001 N2004 1.384 . S
C2002 H1993 0.929 . S
C2002 C1994 1.378 . S
C2002 C1997 1.350 . S
C2003 H1990 0.929 . S
C2003 C1995 1.433 . S
C2003 N2005 1.384 . S
N2004 C2000 1.427 . S
N2004 C2001 1.384 . S
N2005 C1997 1.427 . S
N2005 C2003 1.384 . S
H2006 C2012 0.930 . S
H2007 C2016 0.930 . S
H2008 C2021 0.929 . S
H2009 C2019 0.929 . S
H2010 C2014 0.929 . S
H2011 C2020 0.929 . S
C2012 H2006 0.930 . S
C2012 C2013 1.367 . S
C2012 C2020 1.378 . S
C2013 C2012 1.367 . S
C2013 C2021 1.433 . S
C2014 H2010 0.929 . S
C2014 C2016 1.378 . S
C2014 C2018 1.350 . S
C2015 C2018 1.463 . S
C2015 C2020 1.350 . S
C2015 N2023 1.427 . S
C2016 H2007 0.930 . S
C2016 C2014 1.378 . S
C2016 C2017 1.367 . S
C2017 C2016 1.367 . S
C2017 C2019 1.433 . S
C2018 C2014 1.350 . S
C2018 C2015 1.463 . S
C2018 N2022 1.427 . S
C2019 H2009 0.929 . S
C2019 C2017 1.433 . S
C2019 N2022 1.384 . S
C2020 H2011 0.929 . S
C2020 C2012 1.378 . S
C2020 C2015 1.350 . S
C2021 H2008 0.929 . S
C2021 C2013 1.433 . S
C2021 N2023 1.384 . S
N2022 C2018 1.427 . S
N2022 C2019 1.384 . S
N2023 C2015 1.427 . S
N2023 C2021 1.384 . S
H2024 C2030 0.930 . S
H2025 C2034 0.930 . S
H2026 C2039 0.929 . S
H2027 C2037 0.929 . S
H2028 C2032 0.929 . S
H2029 C2038 0.929 . S
C2030 H2024 0.930 . S
C2030 C2031 1.367 . S
C2030 C2038 1.378 . S
C2031 C2030 1.367 . S
C2031 C2039 1.433 . S
C2032 H2028 0.929 . S
C2032 C2034 1.378 . S
C2032 C2036 1.350 . S
C2033 C2036 1.463 . S
C2033 C2038 1.350 . S
C2033 N2041 1.427 . S
C2034 H2025 0.930 . S
C2034 C2032 1.378 . S
C2034 C2035 1.367 . S
C2035 C2034 1.367 . S
C2035 C2037 1.433 . S
C2036 C2032 1.350 . S
C2036 C2033 1.463 . S
C2036 N2040 1.427 . S
C2037 H2027 0.929 . S
C2037 C2035 1.433 . S
C2037 N2040 1.384 . S
C2038 H2029 0.929 . S
C2038 C2030 1.378 . S
C2038 C2033 1.350 . S
C2039 H2026 0.929 . S
C2039 C2031 1.433 . S
C2039 N2041 1.384 . S
N2040 C2036 1.427 . S
N2040 C2037 1.384 . S
N2041 C2033 1.427 . S
N2041 C2039 1.384 . S
H2042 C2048 0.930 . S
H2043 C2052 0.930 . S
H2044 C2057 0.929 . S
H2045 C2055 0.929 . S
H2046 C2050 0.929 . S
H2047 C2056 0.929 . S
C2048 H2042 0.930 . S
C2048 C2049 1.367 . S
C2048 C2056 1.378 . S
C2049 C2048 1.367 . S
C2049 C2057 1.433 . S
C2050 H2046 0.929 . S
C2050 C2052 1.378 . S
C2050 C2054 1.350 . S
C2051 C2054 1.463 . S
C2051 C2056 1.350 . S
C2051 N2059 1.427 . S
C2052 H2043 0.930 . S
C2052 C2050 1.378 . S
C2052 C2053 1.367 . S
C2053 C2052 1.367 . S
C2053 C2055 1.433 . S
C2054 C2050 1.350 . S
C2054 C2051 1.463 . S
C2054 N2058 1.427 . S
C2055 H2045 0.929 . S
C2055 C2053 1.433 . S
C2055 N2058 1.384 . S
C2056 H2047 0.929 . S
C2056 C2048 1.378 . S
C2056 C2051 1.350 . S
C2057 H2044 0.929 . S
C2057 C2049 1.433 . S
C2057 N2059 1.384 . S
N2058 C2054 1.427 . S
N2058 C2055 1.384 . S
N2059 C2051 1.427 . S
N2059 C2057 1.384 . S
H2060 C2066 0.930 . S
H2061 C2070 0.930 . S
H2062 C2075 0.929 . S
H2063 C2073 0.929 . S
H2064 C2068 0.929 . S
H2065 C2074 0.929 . S
C2066 H2060 0.930 . S
C2066 C2067 1.367 . S
C2066 C2074 1.378 . S
C2067 C2066 1.367 . S
C2067 C2075 1.433 . S
C2068 H2064 0.929 . S
C2068 C2070 1.378 . S
C2068 C2072 1.350 . S
C2069 C2072 1.463 . S
C2069 C2074 1.350 . S
C2069 N2077 1.427 . S
C2070 H2061 0.930 . S
C2070 C2068 1.378 . S
C2070 C2071 1.367 . S
C2071 C2070 1.367 . S
C2071 C2073 1.433 . S
C2072 C2068 1.350 . S
C2072 C2069 1.463 . S
C2072 N2076 1.427 . S
C2073 H2063 0.929 . S
C2073 C2071 1.433 . S
C2073 N2076 1.384 . S
C2074 H2065 0.929 . S
C2074 C2066 1.378 . S
C2074 C2069 1.350 . S
C2075 H2062 0.929 . S
C2075 C2067 1.433 . S
C2075 N2077 1.384 . S
N2076 C2072 1.427 . S
N2076 C2073 1.384 . S
N2077 C2069 1.427 . S
N2077 C2075 1.384 . S
H2078 C2084 0.930 . S
H2079 C2088 0.930 . S
H2080 C2093 0.929 . S
H2081 C2091 0.929 . S
H2082 C2086 0.929 . S
H2083 C2092 0.929 . S
C2084 H2078 0.930 . S
C2084 C2085 1.367 . S
C2084 C2092 1.378 . S
C2085 C2084 1.367 . S
C2085 C2093 1.433 . S
C2086 H2082 0.929 . S
C2086 C2088 1.378 . S
C2086 C2090 1.350 . S
C2087 C2090 1.463 . S
C2087 C2092 1.350 . S
C2087 N2095 1.427 . S
C2088 H2079 0.930 . S
C2088 C2086 1.378 . S
C2088 C2089 1.367 . S
C2089 C2088 1.367 . S
C2089 C2091 1.433 . S
C2090 C2086 1.350 . S
C2090 C2087 1.463 . S
C2090 N2094 1.427 . S
C2091 H2081 0.929 . S
C2091 C2089 1.433 . S
C2091 N2094 1.384 . S
C2092 H2083 0.929 . S
C2092 C2084 1.378 . S
C2092 C2087 1.350 . S
C2093 H2080 0.929 . S
C2093 C2085 1.433 . S
C2093 N2095 1.384 . S
N2094 C2090 1.427 . S
N2094 C2091 1.384 . S
N2095 C2087 1.427 . S
N2095 C2093 1.384 . S
H2096 C2102 0.930 . S
H2097 C2106 0.930 . S
H2098 C2111 0.929 . S
H2099 C2109 0.929 . S
H2100 C2104 0.929 . S
H2101 C2110 0.929 . S
C2102 H2096 0.930 . S
C2102 C2103 1.367 . S
C2102 C2110 1.378 . S
C2103 C2102 1.367 . S
C2103 C2111 1.433 . S
C2104 H2100 0.929 . S
C2104 C2106 1.378 . S
C2104 C2108 1.350 . S
C2105 C2108 1.463 . S
C2105 C2110 1.350 . S
C2105 N2113 1.427 . S
C2106 H2097 0.930 . S
C2106 C2104 1.378 . S
C2106 C2107 1.367 . S
C2107 C2106 1.367 . S
C2107 C2109 1.433 . S
C2108 C2104 1.350 . S
C2108 C2105 1.463 . S
C2108 N2112 1.427 . S
C2109 H2099 0.929 . S
C2109 C2107 1.433 . S
C2109 N2112 1.384 . S
C2110 H2101 0.929 . S
C2110 C2102 1.378 . S
C2110 C2105 1.350 . S
C2111 H2098 0.929 . S
C2111 C2103 1.433 . S
C2111 N2113 1.384 . S
N2112 C2108 1.427 . S
N2112 C2109 1.384 . S
N2113 C2105 1.427 . S
N2113 C2111 1.384 . S
H2114 C2120 0.930 . S
H2115 C2124 0.930 . S
H2116 C2129 0.929 . S
H2117 C2127 0.929 . S
H2118 C2122 0.929 . S
H2119 C2128 0.929 . S
C2120 H2114 0.930 . S
C2120 C2121 1.367 . S
C2120 C2128 1.378 . S
C2121 C2120 1.367 . S
C2121 C2129 1.433 . S
C2122 H2118 0.929 . S
C2122 C2124 1.378 . S
C2122 C2126 1.350 . S
C2123 C2126 1.463 . S
C2123 C2128 1.350 . S
C2123 N2131 1.427 . S
C2124 H2115 0.930 . S
C2124 C2122 1.378 . S
C2124 C2125 1.367 . S
C2125 C2124 1.367 . S
C2125 C2127 1.433 . S
C2126 C2122 1.350 . S
C2126 C2123 1.463 . S
C2126 N2130 1.427 . S
C2127 H2117 0.929 . S
C2127 C2125 1.433 . S
C2127 N2130 1.384 . S
C2128 H2119 0.929 . S
C2128 C2120 1.378 . S
C2128 C2123 1.350 . S
C2129 H2116 0.929 . S
C2129 C2121 1.433 . S
C2129 N2131 1.384 . S
N2130 C2126 1.427 . S
N2130 C2127 1.384 . S
N2131 C2123 1.427 . S
N2131 C2129 1.384 . S
H2132 C2138 0.930 . S
H2133 C2142 0.930 . S
H2134 C2147 0.929 . S
H2135 C2145 0.929 . S
H2136 C2140 0.929 . S
H2137 C2146 0.929 . S
C2138 H2132 0.930 . S
C2138 C2139 1.367 . S
C2138 C2146 1.378 . S
C2139 C2138 1.367 . S
C2139 C2147 1.433 . S
C2140 H2136 0.929 . S
C2140 C2142 1.378 . S
C2140 C2144 1.350 . S
C2141 C2144 1.463 . S
C2141 C2146 1.350 . S
C2141 N2149 1.427 . S
C2142 H2133 0.930 . S
C2142 C2140 1.378 . S
C2142 C2143 1.367 . S
C2143 C2142 1.367 . S
C2143 C2145 1.433 . S
C2144 C2140 1.350 . S
C2144 C2141 1.463 . S
C2144 N2148 1.427 . S
C2145 H2135 0.929 . S
C2145 C2143 1.433 . S
C2145 N2148 1.384 . S
C2146 H2137 0.929 . S
C2146 C2138 1.378 . S
C2146 C2141 1.350 . S
C2147 H2134 0.929 . S
C2147 C2139 1.433 . S
C2147 N2149 1.384 . S
N2148 C2144 1.427 . S
N2148 C2145 1.384 . S
N2149 C2141 1.427 . S
N2149 C2147 1.384 . S
H2150 C2156 0.930 . S
H2151 C2160 0.930 . S
H2152 C2165 0.929 . S
H2153 C2163 0.929 . S
H2154 C2158 0.929 . S
H2155 C2164 0.929 . S
C2156 H2150 0.930 . S
C2156 C2157 1.367 . S
C2156 C2164 1.378 . S
C2157 C2156 1.367 . S
C2157 C2165 1.433 . S
C2158 H2154 0.929 . S
C2158 C2160 1.378 . S
C2158 C2162 1.350 . S
C2159 C2162 1.463 . S
C2159 C2164 1.350 . S
C2159 N2167 1.427 . S
C2160 H2151 0.930 . S
C2160 C2158 1.378 . S
C2160 C2161 1.367 . S
C2161 C2160 1.367 . S
C2161 C2163 1.433 . S
C2162 C2158 1.350 . S
C2162 C2159 1.463 . S
C2162 N2166 1.427 . S
C2163 H2153 0.929 . S
C2163 C2161 1.433 . S
C2163 N2166 1.384 . S
C2164 H2155 0.929 . S
C2164 C2156 1.378 . S
C2164 C2159 1.350 . S
C2165 H2152 0.929 . S
C2165 C2157 1.433 . S
C2165 N2167 1.384 . S
N2166 C2162 1.427 . S
N2166 C2163 1.384 . S
N2167 C2159 1.427 . S
N2167 C2165 1.384 . S
H2168 C2174 0.930 . S
H2169 C2178 0.930 . S
H2170 C2183 0.929 . S
H2171 C2181 0.929 . S
H2172 C2176 0.929 . S
H2173 C2182 0.929 . S
C2174 H2168 0.930 . S
C2174 C2175 1.367 . S
C2174 C2182 1.378 . S
C2175 C2174 1.367 . S
C2175 C2183 1.433 . S
C2176 H2172 0.929 . S
C2176 C2178 1.378 . S
C2176 C2180 1.350 . S
C2177 C2180 1.463 . S
C2177 C2182 1.350 . S
C2177 N2185 1.427 . S
C2178 H2169 0.930 . S
C2178 C2176 1.378 . S
C2178 C2179 1.367 . S
C2179 C2178 1.367 . S
C2179 C2181 1.433 . S
C2180 C2176 1.350 . S
C2180 C2177 1.463 . S
C2180 N2184 1.427 . S
C2181 H2171 0.929 . S
C2181 C2179 1.433 . S
C2181 N2184 1.384 . S
C2182 H2173 0.929 . S
C2182 C2174 1.378 . S
C2182 C2177 1.350 . S
C2183 H2170 0.929 . S
C2183 C2175 1.433 . S
C2183 N2185 1.384 . S
N2184 C2180 1.427 . S
N2184 C2181 1.384 . S
N2185 C2177 1.427 . S
N2185 C2183 1.384 . S
H2186 C2192 0.930 . S
H2187 C2196 0.930 . S
H2188 C2201 0.929 . S
H2189 C2199 0.929 . S
H2190 C2194 0.929 . S
H2191 C2200 0.929 . S
C2192 H2186 0.930 . S
C2192 C2193 1.367 . S
C2192 C2200 1.378 . S
C2193 C2192 1.367 . S
C2193 C2201 1.433 . S
C2194 H2190 0.929 . S
C2194 C2196 1.378 . S
C2194 C2198 1.350 . S
C2195 C2198 1.463 . S
C2195 C2200 1.350 . S
C2195 N2203 1.427 . S
C2196 H2187 0.930 . S
C2196 C2194 1.378 . S
C2196 C2197 1.367 . S
C2197 C2196 1.367 . S
C2197 C2199 1.433 . S
C2198 C2194 1.350 . S
C2198 C2195 1.463 . S
C2198 N2202 1.427 . S
C2199 H2189 0.929 . S
C2199 C2197 1.433 . S
C2199 N2202 1.384 . S
C2200 H2191 0.929 . S
C2200 C2192 1.378 . S
C2200 C2195 1.350 . S
C2201 H2188 0.929 . S
C2201 C2193 1.433 . S
C2201 N2203 1.384 . S
N2202 C2198 1.427 . S
N2202 C2199 1.384 . S
N2203 C2195 1.427 . S
N2203 C2201 1.384 . S
H2204 C2210 0.930 . S
H2205 C2214 0.930 . S
H2206 C2219 0.929 . S
H2207 C2217 0.929 . S
H2208 C2212 0.929 . S
H2209 C2218 0.929 . S
C2210 H2204 0.930 . S
C2210 C2211 1.367 . S
C2210 C2218 1.378 . S
C2211 C2210 1.367 . S
C2211 C2219 1.433 . S
C2212 H2208 0.929 . S
C2212 C2214 1.378 . S
C2212 C2216 1.350 . S
C2213 C2216 1.463 . S
C2213 C2218 1.350 . S
C2213 N2221 1.427 . S
C2214 H2205 0.930 . S
C2214 C2212 1.378 . S
C2214 C2215 1.367 . S
C2215 C2214 1.367 . S
C2215 C2217 1.433 . S
C2216 C2212 1.350 . S
C2216 C2213 1.463 . S
C2216 N2220 1.427 . S
C2217 H2207 0.929 . S
C2217 C2215 1.433 . S
C2217 N2220 1.384 . S
C2218 H2209 0.929 . S
C2218 C2210 1.378 . S
C2218 C2213 1.350 . S
C2219 H2206 0.929 . S
C2219 C2211 1.433 . S
C2219 N2221 1.384 . S
N2220 C2216 1.427 . S
N2220 C2217 1.384 . S
N2221 C2213 1.427 . S
N2221 C2219 1.384 . S
H2222 C2228 0.930 . S
H2223 C2232 0.930 . S
H2224 C2237 0.929 . S
H2225 C2235 0.929 . S
H2226 C2230 0.929 . S
H2227 C2236 0.929 . S
C2228 H2222 0.930 . S
C2228 C2229 1.367 . S
C2228 C2236 1.378 . S
C2229 C2228 1.367 . S
C2229 C2237 1.433 . S
C2230 H2226 0.929 . S
C2230 C2232 1.378 . S
C2230 C2234 1.350 . S
C2231 C2234 1.463 . S
C2231 C2236 1.350 . S
C2231 N2239 1.427 . S
C2232 H2223 0.930 . S
C2232 C2230 1.378 . S
C2232 C2233 1.367 . S
C2233 C2232 1.367 . S
C2233 C2235 1.433 . S
C2234 C2230 1.350 . S
C2234 C2231 1.463 . S
C2234 N2238 1.427 . S
C2235 H2225 0.929 . S
C2235 C2233 1.433 . S
C2235 N2238 1.384 . S
C2236 H2227 0.929 . S
C2236 C2228 1.378 . S
C2236 C2231 1.350 . S
C2237 H2224 0.929 . S
C2237 C2229 1.433 . S
C2237 N2239 1.384 . S
N2238 C2234 1.427 . S
N2238 C2235 1.384 . S
N2239 C2231 1.427 . S
N2239 C2237 1.384 . S
H2240 C2246 0.930 . S
H2241 C2250 0.930 . S
H2242 C2255 0.929 . S
H2243 C2253 0.929 . S
H2244 C2248 0.929 . S
H2245 C2254 0.929 . S
C2246 H2240 0.930 . S
C2246 C2247 1.367 . S
C2246 C2254 1.378 . S
C2247 C2246 1.367 . S
C2247 C2255 1.433 . S
C2248 H2244 0.929 . S
C2248 C2250 1.378 . S
C2248 C2252 1.350 . S
C2249 C2252 1.463 . S
C2249 C2254 1.350 . S
C2249 N2257 1.427 . S
C2250 H2241 0.930 . S
C2250 C2248 1.378 . S
C2250 C2251 1.367 . S
C2251 C2250 1.367 . S
C2251 C2253 1.433 . S
C2252 C2248 1.350 . S
C2252 C2249 1.463 . S
C2252 N2256 1.427 . S
C2253 H2243 0.929 . S
C2253 C2251 1.433 . S
C2253 N2256 1.384 . S
C2254 H2245 0.929 . S
C2254 C2246 1.378 . S
C2254 C2249 1.350 . S
C2255 H2242 0.929 . S
C2255 C2247 1.433 . S
C2255 N2257 1.384 . S
N2256 C2252 1.427 . S
N2256 C2253 1.384 . S
N2257 C2249 1.427 . S
N2257 C2255 1.384 . S
H2258 C2264 0.930 . S
H2259 C2268 0.930 . S
H2260 C2273 0.929 . S
H2261 C2271 0.929 . S
H2262 C2266 0.929 . S
H2263 C2272 0.929 . S
C2264 H2258 0.930 . S
C2264 C2265 1.367 . S
C2264 C2272 1.378 . S
C2265 C2264 1.367 . S
C2265 C2273 1.433 . S
C2266 H2262 0.929 . S
C2266 C2268 1.378 . S
C2266 C2270 1.350 . S
C2267 C2270 1.463 . S
C2267 C2272 1.350 . S
C2267 N2275 1.427 . S
C2268 H2259 0.930 . S
C2268 C2266 1.378 . S
C2268 C2269 1.367 . S
C2269 C2268 1.367 . S
C2269 C2271 1.433 . S
C2270 C2266 1.350 . S
C2270 C2267 1.463 . S
C2270 N2274 1.427 . S
C2271 H2261 0.929 . S
C2271 C2269 1.433 . S
C2271 N2274 1.384 . S
C2272 H2263 0.929 . S
C2272 C2264 1.378 . S
C2272 C2267 1.350 . S
C2273 H2260 0.929 . S
C2273 C2265 1.433 . S
C2273 N2275 1.384 . S
N2274 C2270 1.427 . S
N2274 C2271 1.384 . S
N2275 C2267 1.427 . S
N2275 C2273 1.384 . S
H2276 C2282 0.930 . S
H2277 C2286 0.930 . S
H2278 C2291 0.929 . S
H2279 C2289 0.929 . S
H2280 C2284 0.929 . S
H2281 C2290 0.929 . S
C2282 H2276 0.930 . S
C2282 C2283 1.367 . S
C2282 C2290 1.378 . S
C2283 C2282 1.367 . S
C2283 C2291 1.433 . S
C2284 H2280 0.929 . S
C2284 C2286 1.378 . S
C2284 C2288 1.350 . S
C2285 C2288 1.463 . S
C2285 C2290 1.350 . S
C2285 N2293 1.427 . S
C2286 H2277 0.930 . S
C2286 C2284 1.378 . S
C2286 C2287 1.367 . S
C2287 C2286 1.367 . S
C2287 C2289 1.433 . S
C2288 C2284 1.350 . S
C2288 C2285 1.463 . S
C2288 N2292 1.427 . S
C2289 H2279 0.929 . S
C2289 C2287 1.433 . S
C2289 N2292 1.384 . S
C2290 H2281 0.929 . S
C2290 C2282 1.378 . S
C2290 C2285 1.350 . S
C2291 H2278 0.929 . S
C2291 C2283 1.433 . S
C2291 N2293 1.384 . S
N2292 C2288 1.427 . S
N2292 C2289 1.384 . S
N2293 C2285 1.427 . S
N2293 C2291 1.384 . S
H2294 C2300 0.930 . S
H2295 C2304 0.930 . S
H2296 C2309 0.929 . S
H2297 C2307 0.929 . S
H2298 C2302 0.929 . S
H2299 C2308 0.929 . S
C2300 H2294 0.930 . S
C2300 C2301 1.367 . S
C2300 C2308 1.378 . S
C2301 C2300 1.367 . S
C2301 C2309 1.433 . S
C2302 H2298 0.929 . S
C2302 C2304 1.378 . S
C2302 C2306 1.350 . S
C2303 C2306 1.463 . S
C2303 C2308 1.350 . S
C2303 N2311 1.427 . S
C2304 H2295 0.930 . S
C2304 C2302 1.378 . S
C2304 C2305 1.367 . S
C2305 C2304 1.367 . S
C2305 C2307 1.433 . S
C2306 C2302 1.350 . S
C2306 C2303 1.463 . S
C2306 N2310 1.427 . S
C2307 H2297 0.929 . S
C2307 C2305 1.433 . S
C2307 N2310 1.384 . S
C2308 H2299 0.929 . S
C2308 C2300 1.378 . S
C2308 C2303 1.350 . S
C2309 H2296 0.929 . S
C2309 C2301 1.433 . S
C2309 N2311 1.384 . S
N2310 C2306 1.427 . S
N2310 C2307 1.384 . S
N2311 C2303 1.427 . S
N2311 C2309 1.384 . S
H2312 C2318 0.930 . S
H2313 C2322 0.930 . S
H2314 C2327 0.929 . S
H2315 C2325 0.929 . S
H2316 C2320 0.929 . S
H2317 C2326 0.929 . S
C2318 H2312 0.930 . S
C2318 C2319 1.367 . S
C2318 C2326 1.378 . S
C2319 C2318 1.367 . S
C2319 C2327 1.433 . S
C2320 H2316 0.929 . S
C2320 C2322 1.378 . S
C2320 C2324 1.350 . S
C2321 C2324 1.463 . S
C2321 C2326 1.350 . S
C2321 N2329 1.427 . S
C2322 H2313 0.930 . S
C2322 C2320 1.378 . S
C2322 C2323 1.367 . S
C2323 C2322 1.367 . S
C2323 C2325 1.433 . S
C2324 C2320 1.350 . S
C2324 C2321 1.463 . S
C2324 N2328 1.427 . S
C2325 H2315 0.929 . S
C2325 C2323 1.433 . S
C2325 N2328 1.384 . S
C2326 H2317 0.929 . S
C2326 C2318 1.378 . S
C2326 C2321 1.350 . S
C2327 H2314 0.929 . S
C2327 C2319 1.433 . S
C2327 N2329 1.384 . S
N2328 C2324 1.427 . S
N2328 C2325 1.384 . S
N2329 C2321 1.427 . S
N2329 C2327 1.384 . S
H2330 C2336 0.930 . S
H2331 C2340 0.930 . S
H2332 C2345 0.929 . S
H2333 C2343 0.929 . S
H2334 C2338 0.929 . S
H2335 C2344 0.929 . S
C2336 H2330 0.930 . S
C2336 C2337 1.367 . S
C2336 C2344 1.378 . S
C2337 C2336 1.367 . S
C2337 C2345 1.433 . S
C2338 H2334 0.929 . S
C2338 C2340 1.378 . S
C2338 C2342 1.350 . S
C2339 C2342 1.463 . S
C2339 C2344 1.350 . S
C2339 N2347 1.427 . S
C2340 H2331 0.930 . S
C2340 C2338 1.378 . S
C2340 C2341 1.367 . S
C2341 C2340 1.367 . S
C2341 C2343 1.433 . S
C2342 C2338 1.350 . S
C2342 C2339 1.463 . S
C2342 N2346 1.427 . S
C2343 H2333 0.929 . S
C2343 C2341 1.433 . S
C2343 N2346 1.384 . S
C2344 H2335 0.929 . S
C2344 C2336 1.378 . S
C2344 C2339 1.350 . S
C2345 H2332 0.929 . S
C2345 C2337 1.433 . S
C2345 N2347 1.384 . S
N2346 C2342 1.427 . S
N2346 C2343 1.384 . S
N2347 C2339 1.427 . S
N2347 C2345 1.384 . S
H2348 C2354 0.930 . S
H2349 C2358 0.930 . S
H2350 C2363 0.929 . S
H2351 C2361 0.929 . S
H2352 C2356 0.929 . S
H2353 C2362 0.929 . S
C2354 H2348 0.930 . S
C2354 C2355 1.367 . S
C2354 C2362 1.378 . S
C2355 C2354 1.367 . S
C2355 C2363 1.433 . S
C2356 H2352 0.929 . S
C2356 C2358 1.378 . S
C2356 C2360 1.350 . S
C2357 C2360 1.463 . S
C2357 C2362 1.350 . S
C2357 N2365 1.427 . S
C2358 H2349 0.930 . S
C2358 C2356 1.378 . S
C2358 C2359 1.367 . S
C2359 C2358 1.367 . S
C2359 C2361 1.433 . S
C2360 C2356 1.350 . S
C2360 C2357 1.463 . S
C2360 N2364 1.427 . S
C2361 H2351 0.929 . S
C2361 C2359 1.433 . S
C2361 N2364 1.384 . S
C2362 H2353 0.929 . S
C2362 C2354 1.378 . S
C2362 C2357 1.350 . S
C2363 H2350 0.929 . S
C2363 C2355 1.433 . S
C2363 N2365 1.384 . S
N2364 C2360 1.427 . S
N2364 C2361 1.384 . S
N2365 C2357 1.427 . S
N2365 C2363 1.384 . S
H2366 C2372 0.930 . S
H2367 C2376 0.930 . S
H2368 C2381 0.929 . S
H2369 C2379 0.929 . S
H2370 C2374 0.929 . S
H2371 C2380 0.929 . S
C2372 H2366 0.930 . S
C2372 C2373 1.367 . S
C2372 C2380 1.378 . S
C2373 C2372 1.367 . S
C2373 C2381 1.433 . S
C2374 H2370 0.929 . S
C2374 C2376 1.378 . S
C2374 C2378 1.350 . S
C2375 C2378 1.463 . S
C2375 C2380 1.350 . S
C2375 N2383 1.427 . S
C2376 H2367 0.930 . S
C2376 C2374 1.378 . S
C2376 C2377 1.367 . S
C2377 C2376 1.367 . S
C2377 C2379 1.433 . S
C2378 C2374 1.350 . S
C2378 C2375 1.463 . S
C2378 N2382 1.427 . S
C2379 H2369 0.929 . S
C2379 C2377 1.433 . S
C2379 N2382 1.384 . S
C2380 H2371 0.929 . S
C2380 C2372 1.378 . S
C2380 C2375 1.350 . S
C2381 H2368 0.929 . S
C2381 C2373 1.433 . S
C2381 N2383 1.384 . S
N2382 C2378 1.427 . S
N2382 C2379 1.384 . S
N2383 C2375 1.427 . S
N2383 C2381 1.384 . S
H2384 C2390 0.930 . S
H2385 C2394 0.930 . S
H2386 C2399 0.929 . S
H2387 C2397 0.929 . S
H2388 C2392 0.929 . S
H2389 C2398 0.929 . S
C2390 H2384 0.930 . S
C2390 C2391 1.367 . S
C2390 C2398 1.378 . S
C2391 C2390 1.367 . S
C2391 C2399 1.433 . S
C2392 H2388 0.929 . S
C2392 C2394 1.378 . S
C2392 C2396 1.350 . S
C2393 C2396 1.463 . S
C2393 C2398 1.350 . S
C2393 N2401 1.427 . S
C2394 H2385 0.930 . S
C2394 C2392 1.378 . S
C2394 C2395 1.367 . S
C2395 C2394 1.367 . S
C2395 C2397 1.433 . S
C2396 C2392 1.350 . S
C2396 C2393 1.463 . S
C2396 N2400 1.427 . S
C2397 H2387 0.929 . S
C2397 C2395 1.433 . S
C2397 N2400 1.384 . S
C2398 H2389 0.929 . S
C2398 C2390 1.378 . S
C2398 C2393 1.350 . S
C2399 H2386 0.929 . S
C2399 C2391 1.433 . S
C2399 N2401 1.384 . S
N2400 C2396 1.427 . S
N2400 C2397 1.384 . S
N2401 C2393 1.427 . S
N2401 C2399 1.384 . S
H2402 C2408 0.930 . S
H2403 C2412 0.930 . S
H2404 C2417 0.929 . S
H2405 C2415 0.929 . S
H2406 C2410 0.929 . S
H2407 C2416 0.929 . S
C2408 H2402 0.930 . S
C2408 C2409 1.367 . S
C2408 C2416 1.378 . S
C2409 C2408 1.367 . S
C2409 C2417 1.433 . S
C2410 H2406 0.929 . S
C2410 C2412 1.378 . S
C2410 C2414 1.350 . S
C2411 C2414 1.463 . S
C2411 C2416 1.350 . S
C2411 N2419 1.427 . S
C2412 H2403 0.930 . S
C2412 C2410 1.378 . S
C2412 C2413 1.367 . S
C2413 C2412 1.367 . S
C2413 C2415 1.433 . S
C2414 C2410 1.350 . S
C2414 C2411 1.463 . S
C2414 N2418 1.427 . S
C2415 H2405 0.929 . S
C2415 C2413 1.433 . S
C2415 N2418 1.384 . S
C2416 H2407 0.929 . S
C2416 C2408 1.378 . S
C2416 C2411 1.350 . S
C2417 H2404 0.929 . S
C2417 C2409 1.433 . S
C2417 N2419 1.384 . S
N2418 C2414 1.427 . S
N2418 C2415 1.384 . S
N2419 C2411 1.427 . S
N2419 C2417 1.384 . S
H2420 C2426 0.930 . S
H2421 C2430 0.930 . S
H2422 C2435 0.929 . S
H2423 C2433 0.929 . S
H2424 C2428 0.929 . S
H2425 C2434 0.929 . S
C2426 H2420 0.930 . S
C2426 C2427 1.367 . S
C2426 C2434 1.378 . S
C2427 C2426 1.367 . S
C2427 C2435 1.433 . S
C2428 H2424 0.929 . S
C2428 C2430 1.378 . S
C2428 C2432 1.350 . S
C2429 C2432 1.463 . S
C2429 C2434 1.350 . S
C2429 N2437 1.427 . S
C2430 H2421 0.930 . S
C2430 C2428 1.378 . S
C2430 C2431 1.367 . S
C2431 C2430 1.367 . S
C2431 C2433 1.433 . S
C2432 C2428 1.350 . S
C2432 C2429 1.463 . S
C2432 N2436 1.427 . S
C2433 H2423 0.929 . S
C2433 C2431 1.433 . S
C2433 N2436 1.384 . S
C2434 H2425 0.929 . S
C2434 C2426 1.378 . S
C2434 C2429 1.350 . S
C2435 H2422 0.929 . S
C2435 C2427 1.433 . S
C2435 N2437 1.384 . S
N2436 C2432 1.427 . S
N2436 C2433 1.384 . S
N2437 C2429 1.427 . S
N2437 C2435 1.384 . S
H2438 C2444 0.930 . S
H2439 C2448 0.930 . S
H2440 C2453 0.929 . S
H2441 C2451 0.929 . S
H2442 C2446 0.929 . S
H2443 C2452 0.929 . S
C2444 H2438 0.930 . S
C2444 C2445 1.367 . S
C2444 C2452 1.378 . S
C2445 C2444 1.367 . S
C2445 C2453 1.433 . S
C2446 H2442 0.929 . S
C2446 C2448 1.378 . S
C2446 C2450 1.350 . S
C2447 C2450 1.463 . S
C2447 C2452 1.350 . S
C2447 N2455 1.427 . S
C2448 H2439 0.930 . S
C2448 C2446 1.378 . S
C2448 C2449 1.367 . S
C2449 C2448 1.367 . S
C2449 C2451 1.433 . S
C2450 C2446 1.350 . S
C2450 C2447 1.463 . S
C2450 N2454 1.427 . S
C2451 H2441 0.929 . S
C2451 C2449 1.433 . S
C2451 N2454 1.384 . S
C2452 H2443 0.929 . S
C2452 C2444 1.378 . S
C2452 C2447 1.350 . S
C2453 H2440 0.929 . S
C2453 C2445 1.433 . S
C2453 N2455 1.384 . S
N2454 C2450 1.427 . S
N2454 C2451 1.384 . S
N2455 C2447 1.427 . S
N2455 C2453 1.384 . S
H2456 C2462 0.930 . S
H2457 C2466 0.930 . S
H2458 C2471 0.929 . S
H2459 C2469 0.929 . S
H2460 C2464 0.929 . S
H2461 C2470 0.929 . S
C2462 H2456 0.930 . S
C2462 C2463 1.367 . S
C2462 C2470 1.378 . S
C2463 C2462 1.367 . S
C2463 C2471 1.433 . S
C2464 H2460 0.929 . S
C2464 C2466 1.378 . S
C2464 C2468 1.350 . S
C2465 C2468 1.463 . S
C2465 C2470 1.350 . S
C2465 N2473 1.427 . S
C2466 H2457 0.930 . S
C2466 C2464 1.378 . S
C2466 C2467 1.367 . S
C2467 C2466 1.367 . S
C2467 C2469 1.433 . S
C2468 C2464 1.350 . S
C2468 C2465 1.463 . S
C2468 N2472 1.427 . S
C2469 H2459 0.929 . S
C2469 C2467 1.433 . S
C2469 N2472 1.384 . S
C2470 H2461 0.929 . S
C2470 C2462 1.378 . S
C2470 C2465 1.350 . S
C2471 H2458 0.929 . S
C2471 C2463 1.433 . S
C2471 N2473 1.384 . S
N2472 C2468 1.427 . S
N2472 C2469 1.384 . S
N2473 C2465 1.427 . S
N2473 C2471 1.384 . S
H2474 C2480 0.930 . S
H2475 C2484 0.930 . S
H2476 C2489 0.929 . S
H2477 C2487 0.929 . S
H2478 C2482 0.929 . S
H2479 C2488 0.929 . S
C2480 H2474 0.930 . S
C2480 C2481 1.367 . S
C2480 C2488 1.378 . S
C2481 C2480 1.367 . S
C2481 C2489 1.433 . S
C2482 H2478 0.929 . S
C2482 C2484 1.378 . S
C2482 C2486 1.350 . S
C2483 C2486 1.463 . S
C2483 C2488 1.350 . S
C2483 N2491 1.427 . S
C2484 H2475 0.930 . S
C2484 C2482 1.378 . S
C2484 C2485 1.367 . S
C2485 C2484 1.367 . S
C2485 C2487 1.433 . S
C2486 C2482 1.350 . S
C2486 C2483 1.463 . S
C2486 N2490 1.427 . S
C2487 H2477 0.929 . S
C2487 C2485 1.433 . S
C2487 N2490 1.384 . S
C2488 H2479 0.929 . S
C2488 C2480 1.378 . S
C2488 C2483 1.350 . S
C2489 H2476 0.929 . S
C2489 C2481 1.433 . S
C2489 N2491 1.384 . S
N2490 C2486 1.427 . S
N2490 C2487 1.384 . S
N2491 C2483 1.427 . S
N2491 C2489 1.384 . S
H2492 C2498 0.930 . S
H2493 C2502 0.930 . S
H2494 C2507 0.929 . S
H2495 C2505 0.929 . S
H2496 C2500 0.929 . S
H2497 C2506 0.929 . S
C2498 H2492 0.930 . S
C2498 C2499 1.367 . S
C2498 C2506 1.378 . S
C2499 C2498 1.367 . S
C2499 C2507 1.433 . S
C2500 H2496 0.929 . S
C2500 C2502 1.378 . S
C2500 C2504 1.350 . S
C2501 C2504 1.463 . S
C2501 C2506 1.350 . S
C2501 N2509 1.427 . S
C2502 H2493 0.930 . S
C2502 C2500 1.378 . S
C2502 C2503 1.367 . S
C2503 C2502 1.367 . S
C2503 C2505 1.433 . S
C2504 C2500 1.350 . S
C2504 C2501 1.463 . S
C2504 N2508 1.427 . S
C2505 H2495 0.929 . S
C2505 C2503 1.433 . S
C2505 N2508 1.384 . S
C2506 H2497 0.929 . S
C2506 C2498 1.378 . S
C2506 C2501 1.350 . S
C2507 H2494 0.929 . S
C2507 C2499 1.433 . S
C2507 N2509 1.384 . S
N2508 C2504 1.427 . S
N2508 C2505 1.384 . S
N2509 C2501 1.427 . S
N2509 C2507 1.384 . S
H2510 C2516 0.930 . S
H2511 C2520 0.930 . S
H2512 C2525 0.929 . S
H2513 C2523 0.929 . S
H2514 C2518 0.929 . S
H2515 C2524 0.929 . S
C2516 H2510 0.930 . S
C2516 C2517 1.367 . S
C2516 C2524 1.378 . S
C2517 C2516 1.367 . S
C2517 C2525 1.433 . S
C2518 H2514 0.929 . S
C2518 C2520 1.378 . S
C2518 C2522 1.350 . S
C2519 C2522 1.463 . S
C2519 C2524 1.350 . S
C2519 N2527 1.427 . S
C2520 H2511 0.930 . S
C2520 C2518 1.378 . S
C2520 C2521 1.367 . S
C2521 C2520 1.367 . S
C2521 C2523 1.433 . S
C2522 C2518 1.350 . S
C2522 C2519 1.463 . S
C2522 N2526 1.427 . S
C2523 H2513 0.929 . S
C2523 C2521 1.433 . S
C2523 N2526 1.384 . S
C2524 H2515 0.929 . S
C2524 C2516 1.378 . S
C2524 C2519 1.350 . S
C2525 H2512 0.929 . S
C2525 C2517 1.433 . S
C2525 N2527 1.384 . S
N2526 C2522 1.427 . S
N2526 C2523 1.384 . S
N2527 C2519 1.427 . S
N2527 C2525 1.384 . S
C1095 C33 0.170 . S
C1099 C645 0.177 . S
C1113 C679 0.158 . S
C1117 C67 0.164 . S
C1131 C577 0.196 . S
C1135 C101 0.193 . S
C1149 C135 0.164 . S
C1153 C611 0.158 . S
C1167 C781 0.153 . S
C1171 C169 0.160 . S
C1185 C815 0.179 . S
C1189 C203 0.173 . S
C1203 C237 0.198 . S
C1207 C713 0.197 . S
C1221 C271 0.194 . S
C1225 C747 0.190 . S
C1239 C917 0.260 . S
C1243 C305 0.222 . S
C1257 C951 0.238 . S
C1261 C339 0.206 . S
C1275 C373 0.206 . S
C1279 C849 0.241 . S
C1293 C407 0.207 . S
C1297 C883 0.246 . S
C1311 C441 0.260 . S
C1315 C1053 0.222 . S
C1329 C475 0.259 . S
C1333 C1087 0.243 . S
C1347 C985 0.207 . S
C1351 C509 0.246 . S
C1365 C543 0.242 . S
C1369 C1019 0.206 . S
C1383 C9 1.444 . S
C1387 C821 1.553 . S
C1401 C311 1.551 . S
C1405 C43 1.463 1_565 S
C1419 C889 1.548 . S
C1423 C77 1.458 . S
C1437 C111 1.444 1_545 S
C1441 C379 1.553 . S
C1455 C145 1.449 . S
C1459 C957 1.549 . S
C1473 C179 1.455 1_565 S
C1477 C447 1.547 . S
C1491 C1025 1.547 . S
C1495 C213 1.458 . S
C1509 C515 1.555 . S
C1513 C247 1.450 1_545 S
C1527 C553 1.451 . S
C1531 C277 1.547 . S
C1545 C621 1.462 . S
C1549 C345 1.552 . S
C1563 C689 1.448 . S
C1567 C413 1.548 . S
C1581 C481 1.555 . S
C1585 C757 1.447 . S
C1599 C855 1.554 . S
C1603 C587 1.456 . S
C1617 C923 1.551 . S
C1621 C655 1.463 . S
C1635 C723 1.450 . S
C1639 C991 1.555 . S
C1653 C791 1.460 . S
C1657 C1059 1.548 . S
C1671 C20 1.459 . S
C1675 C954 1.446 . S
C1689 C54 1.454 . S
C1693 C444 1.440 . S
C1707 C1022 1.439 . S
C1711 C88 1.455 . S
C1725 C512 1.438 . S
C1729 C122 1.454 . S
C1743 C818 1.448 . S
C1747 C156 1.459 . S
C1761 C308 1.447 . S
C1765 C190 1.459 . S
C1779 C224 1.455 . S
C1783 C886 1.439 . S
C1797 C376 1.438 . S
C1801 C258 1.454 . S
C1815 C682 1.388 . S
C1819 C292 1.397 . S
C1833 C326 1.401 . S
C1837 C172 1.393 . S
C1851 C750 1.386 . S
C1855 C360 1.396 . S
C1869 C394 1.397 . S
C1873 C240 1.388 . S
C1887 C428 1.396 . S
C1891 C546 1.383 . S
C1905 C36 1.392 . S
C1909 C462 1.400 . S
C1923 C614 1.390 . S
C1927 C496 1.398 . S
C1941 C530 1.398 . S
C1945 C104 1.385 . S
C1959 C564 1.459 . S
C1963 C410 1.446 . S
C1977 C598 1.457 . S
C1981 C988 1.443 . S
C1995 C478 1.440 . S
C1999 C632 1.454 . S
C2013 C666 1.454 . S
C2017 C1056 1.441 . S
C2031 C700 1.457 . S
C2035 C274 1.443 . S
C2049 C852 1.439 . S
C2053 C734 1.454 . S
C2067 C768 1.454 . S
C2071 C342 1.440 . S
C2085 C802 1.458 . S
C2089 C920 1.445 . S
C2103 C836 1.402 . S
C2107 C138 1.392 . S
C2121 C716 1.383 . S
C2125 C870 1.396 . S
C2139 C904 1.402 . S
C2143 C206 1.392 . S
C2157 C784 1.391 . S
C2161 C938 1.399 . S
C2175 C972 1.402 . S
C2179 C2 1.393 . S
C2193 C1006 1.398 . S
C2197 C580 1.390 . S
C2211 C1040 1.396 . S
C2215 C70 1.383 . S
C2229 C1074 1.402 . S
C2233 C648 1.393 . S
C2247 C5 1.979 . S
C2251 C175 1.979 . S
C2265 C209 1.974 . S
C2269 C39 1.975 . S
C2283 C73 1.976 . S
C2287 C243 1.974 . S
C2301 C107 1.978 . S
C2305 C141 1.979 . S
C2319 C451 1.313 . S
C2323 C281 1.310 . S
C2337 C485 1.298 . S
C2341 C315 1.309 . S
C2355 C519 1.301 . S
C2359 C349 1.311 . S
C2373 C383 1.289 . S
C2377 C417 1.285 . S
C2391 C549 1.976 . S
C2395 C719 1.974 . S
C2409 C753 1.977 . S
C2413 C583 1.978 . S
C2427 C617 1.977 . S
C2431 C787 1.978 . S
C2445 C685 1.978 . S
C2449 C651 1.976 . S
C2463 C995 1.286 . S
C2467 C825 1.288 . S
C2481 C1029 1.287 . S
C2485 C859 1.296 . S
C2499 C893 1.301 . S
C2503 C1063 1.290 . S
C2517 C961 1.287 . S
C2521 C927 1.286 . S
