# Generated by pormake.
# Topology cab, (5)-cn, num edge types: 1
# Building blocks:
#     Node 0, Type 0, BuildingBlock: XOMCOT_clean_sbu_1, # of connection points: 5
#     Node 1, Type 0, BuildingBlock: XOMCOT_clean_sbu_1, # of connection points: 5
#     Node 2, Type 0, BuildingBlock: XOMCOT_clean_sbu_1, # of connection points: 5
#     Node 3, Type 0, BuildingBlock: XOMCOT_clean_sbu_1, # of connection points: 5
#     Node 4, Type 0, BuildingBlock: XOMCOT_clean_sbu_1, # of connection points: 5
#     Node 5, Type 0, BuildingBlock: XOMCOT_clean_sbu_1, # of connection points: 5
#     Edge 6, Type (0, 0), BuildingBlock: KIFKEQ_clean_linker_1, # of connection points: 2
#     Edge 7, Type (0, 0), BuildingBlock: KIFKEQ_clean_linker_1, # of connection points: 2
#     Edge 8, Type (0, 0), BuildingBlock: KIFKEQ_clean_linker_1, # of connection points: 2
#     Edge 9, Type (0, 0), BuildingBlock: KIFKEQ_clean_linker_1, # of connection points: 2
#     Edge 10, Type (0, 0), BuildingBlock: KIFKEQ_clean_linker_1, # of connection points: 2
#     Edge 11, Type (0, 0), BuildingBlock: KIFKEQ_clean_linker_1, # of connection points: 2
#     Edge 12, Type (0, 0), BuildingBlock: KIFKEQ_clean_linker_1, # of connection points: 2
#     Edge 13, Type (0, 0), BuildingBlock: KIFKEQ_clean_linker_1, # of connection points: 2
#     Edge 14, Type (0, 0), BuildingBlock: KIFKEQ_clean_linker_1, # of connection points: 2
#     Edge 15, Type (0, 0), BuildingBlock: KIFKEQ_clean_linker_1, # of connection points: 2
#     Edge 16, Type (0, 0), BuildingBlock: KIFKEQ_clean_linker_1, # of connection points: 2
#     Edge 17, Type (0, 0), BuildingBlock: KIFKEQ_clean_linker_1, # of connection points: 2
#     Edge 18, Type (0, 0), BuildingBlock: KIFKEQ_clean_linker_1, # of connection points: 2
#     Edge 19, Type (0, 0), BuildingBlock: KIFKEQ_clean_linker_1, # of connection points: 2
#     Edge 20, Type (0, 0), BuildingBlock: KIFKEQ_clean_linker_1, # of connection points: 2
# Relax obj value: 0.863
# Max RMSD: 0.209
# Mean RMSD: 0.207
data_MOF--net-cab--node1-XOMCOT_clean_sbu_1--edge1-KIFKEQ_clean_linker_1
_symmetry_space_group_name_H-M    P1
_symmetry_Int_Tables_number       1
_symmetry_cell_setting            triclinic
loop_
_symmetry_equiv_pos_as_xyz
'x, y, z'
_cell_length_a     36.87769
_cell_length_b     36.503586
_cell_length_c     36.773394
_cell_angle_alpha  79.649762
_cell_angle_beta   68.533739
_cell_angle_gamma 79.595281
loop_
_atom_site_label
_atom_site_type_symbol
_atom_site_fract_x
_atom_site_fract_y
_atom_site_fract_z
_atom_type_partial_charge
C0 C 0.07318 0.97655 0.46359 0.0
C1 C 0.08751 0.93925 0.45979 0.0
N2 N 0.09832 0.93453 0.42156 0.0
N3 N 0.07538 0.99509 0.42783 0.0
C4 C 0.09168 0.96904 0.40286 0.0
H5 H 0.05828 0.98841 0.49099 0.0
Co6 Co 0.04686 0.04008 0.4164 0.0
C7 C 0.10713 0.07972 0.35074 0.0
O8 O 0.0952 0.11026 0.36835 0.0
N9 N 0.01556 0.08438 0.40467 0.0
C10 C 0.96366 0.12781 0.40801 0.0
C11 C 0.98062 0.09934 0.42892 0.0
C12 C 0.01724 0.10231 0.3686 0.0
N13 N 0.98681 0.12935 0.37004 0.0
O14 O 0.02488 0.01548 0.39043 0.0
H15 H 0.96643 0.08854 0.45928 0.0
H16 H 0.03935 0.09482 0.34131 0.0
O17 O 0.09015 0.05027 0.36661 0.0
C18 C -0.0072 0.00238 0.41021 0.0
O19 O 0.97848 0.00318 0.4485 0.0
N20 N 0.06799 0.06455 0.44364 0.0
C21 C 0.09647 0.10516 0.48265 0.0
C22 C 0.12238 0.08246 0.45441 0.0
C23 C 0.10752 0.06208 0.43555 0.0
C24 C 0.04261 0.08317 0.47384 0.0
C25 C 0.05601 0.10485 0.49257 0.0
H26 H 0.12785 0.04451 0.41415 0.0
H27 H 0.0118 0.08097 0.48419 0.0
H28 H 0.09444 0.97455 0.37211 0.0
H29 H 0.08577 0.91678 0.48376 0.0
H30 H 0.9356 0.14471 0.4194 0.0
H31 H 0.15385 0.07981 0.44732 0.0
H32 H 0.03458 0.12096 0.5148 0.0
C33 C 0.14052 0.04251 0.80082 0.0
C34 C 0.10274 0.04036 0.82694 0.0
N35 N 0.09807 0.05732 0.85838 0.0
N36 N 0.1593 0.06119 0.81553 0.0
C37 C 0.13285 0.06956 0.85062 0.0
H38 H 0.15379 0.03048 0.7734 0.0
Co39 Co 0.21195 0.06867 0.79601 0.0
C40 C 0.19794 0.14933 0.80935 0.0
O41 O 0.21286 0.16087 0.77154 0.0
N42 N 0.26562 0.0743 0.77775 0.0
C43 C 0.32511 0.09162 0.76012 0.0
C44 C 0.28547 0.10296 0.77508 0.0
C45 C 0.29405 0.04582 0.76485 0.0
N46 N 0.33048 0.05559 0.75365 0.0
O47 O 0.21718 0.03904 0.84279 0.0
H48 H 0.27289 0.12985 0.78508 0.0
H49 H 0.28809 0.01817 0.76393 0.0
O50 O 0.19794 0.11428 0.82182 0.0
C51 C 0.22164 0.00396 0.84069 0.0
O52 O 0.22474 0.99289 0.80747 0.0
N53 N 0.20629 0.09572 0.74862 0.0
C54 C 0.19818 0.13067 0.67714 0.0
C55 C 0.16764 0.13567 0.71315 0.0
C56 C 0.17237 0.11823 0.74841 0.0
C57 C 0.23576 0.08994 0.71375 0.0
C58 C 0.23303 0.1083 0.67814 0.0
H59 H 0.14854 0.12292 0.77565 0.0
H60 H 0.26158 0.07039 0.71267 0.0
H61 H 0.13938 0.08375 0.87048 0.0
H62 H 0.081 0.02615 0.82365 0.0
H63 H 0.34813 0.10779 0.75721 0.0
H64 H 0.13961 0.1517 0.71439 0.0
H65 H 0.25784 0.10371 0.65156 0.0
C66 C 0.38546 0.08809 0.04153 0.0
C67 C 0.35758 0.10251 0.07417 0.0
N68 N 0.33173 0.07752 0.0925 0.0
N69 N 0.37737 0.05405 0.03971 0.0
C70 C 0.34441 0.04854 0.07095 0.0
H71 H 0.40989 0.10156 0.02032 0.0
Co72 Co 0.40389 0.02275 0.00075 0.0
C73 C 0.39093 0.95062 0.05852 0.0
O74 O 0.42647 0.94187 0.06018 0.0
N75 N 0.43027 0.99139 0.9611 0.0
C76 C 0.46721 0.94552 0.92612 0.0
C77 C 0.44929 0.95614 0.96329 0.0
C78 C 0.43762 0.00161 0.92224 0.0
N79 N 0.46016 0.97445 0.90037 0.0
O80 O 0.3584 0.0323 0.98598 0.0
H81 H 0.45129 0.93924 0.98976 0.0
H82 H 0.42644 0.02845 0.90999 0.0
O83 O 0.38238 0.97978 0.03677 0.0
C84 C 0.35632 0.06477 0.96661 0.0
O85 O 0.389 0.08014 0.94913 0.0
N86 N 0.44842 0.0172 0.01453 0.0
C87 C 0.51393 0.02556 0.03047 0.0
C88 C 0.4802 0.01532 0.06119 0.0
C89 C 0.44721 0.01229 0.05264 0.0
C90 C 0.48121 0.02741 0.98442 0.0
C91 C 0.51453 0.03153 0.99173 0.0
H92 H 0.42017 0.00768 0.07673 0.0
H93 H 0.48089 0.03449 0.95471 0.0
H94 H 0.32985 0.0237 0.0778 0.0
H95 H 0.35611 0.12948 0.0833 0.0
H96 H 0.48433 0.91882 0.91858 0.0
H97 H 0.47862 0.012 0.09159 0.0
H98 H 0.53995 0.04068 0.96763 0.0
C99 C 0.1509 0.33596 0.09912 0.0
C100 C 0.17966 0.30553 0.09657 0.0
N101 N 0.16944 0.27796 0.08366 0.0
N102 N 0.12325 0.32768 0.08707 0.0
C103 C 0.13498 0.292 0.07874 0.0
H104 H 0.15113 0.36293 0.10726 0.0
Co105 Co 0.08031 0.35776 0.07809 0.0
C106 C 0.09162 0.34392 0.99712 0.0
O107 O 0.08511 0.37986 0.9852 0.0
N108 N 0.03562 0.38686 0.0695 0.0
C109 C 0.97836 0.42339 0.07805 0.0
C110 C 0.01477 0.41961 0.08184 0.0
C111 C 0.01111 0.37165 0.05845 0.0
N112 N 0.97639 0.39311 0.0631 0.0
O113 O 0.04843 0.32032 0.11008 0.0
H114 H 0.02293 0.43773 0.0969 0.0
H115 H 0.01653 0.34298 0.05195 0.0
O116 O 0.09049 0.33294 0.03239 0.0
C117 C 0.0233 0.32619 0.14367 0.0
O118 O 0.01656 0.35979 0.15469 0.0
N119 N 0.11298 0.39451 0.04847 0.0
C120 C 0.16531 0.4478 0.01747 0.0
C121 C 0.17314 0.41442 0.00083 0.0
C122 C 0.14659 0.38791 0.01696 0.0
C123 C 0.10635 0.42605 0.066 0.0
C124 C 0.13138 0.45358 0.05029 0.0
H125 H 0.15453 0.36115 0.00569 0.0
H126 H 0.08328 0.42864 0.09403 0.0
H127 H 0.11965 0.27725 0.06695 0.0
H128 H 0.20661 0.30429 0.1024 0.0
H129 H 0.95407 0.44485 0.08886 0.0
H130 H 0.20009 0.40835 0.97662 0.0
H131 H 0.1257 0.47806 0.06537 0.0
C132 C 0.77672 0.15789 0.20011 0.0
C133 C 0.78149 0.19496 0.18686 0.0
N134 N 0.81205 0.19674 0.1526 0.0
N135 N 0.80412 0.13637 0.17447 0.0
C136 C 0.8252 0.16068 0.14577 0.0
H137 H 0.7549 0.14714 0.22696 0.0
Co138 Co 0.80753 0.08486 0.18162 0.0
C139 C 0.86216 0.05724 0.10755 0.0
O140 O 0.83825 0.03258 0.11268 0.0
N141 N 0.81042 0.03181 0.19095 0.0
C142 C 0.80001 0.97174 0.20724 0.0
C143 C 0.78313 0.00806 0.20063 0.0
C144 C 0.84332 0.0091 0.19239 0.0
N145 N 0.83779 0.97271 0.20235 0.0
O146 O 0.84157 0.0822 0.20984 0.0
H147 H 0.75267 0.01603 0.20368 0.0
H148 H 0.87116 0.01915 0.18596 0.0
O149 O 0.85323 0.08086 0.13238 0.0
C150 C 0.82499 0.07431 0.24674 0.0
O151 O 0.78687 0.07312 0.26092 0.0
N152 N 0.77169 0.08893 0.15629 0.0
C153 C 0.71151 0.09061 0.12785 0.0
C154 C 0.74881 0.09856 0.10197 0.0
C155 C 0.77826 0.09888 0.11704 0.0
C156 C 0.73459 0.08614 0.18206 0.0
C157 C 0.70397 0.08655 0.16851 0.0
H158 H 0.80623 0.10664 0.09697 0.0
H159 H 0.72921 0.08205 0.2134 0.0
H160 H 0.84962 0.1521 0.12039 0.0
H161 H 0.76452 0.2186 0.20204 0.0
H162 H 0.78538 0.94675 0.21605 0.0
H163 H 0.75576 0.10315 0.07037 0.0
H164 H 0.67505 0.08257 0.18968 0.0
C165 C 0.12509 0.74049 0.09219 0.0
C166 C 0.13136 0.76405 0.05726 0.0
N167 N 0.14695 0.79392 0.05963 0.0
N168 N 0.13686 0.7553 0.11637 0.0
C169 C 0.14971 0.78786 0.09589 0.0
H170 H 0.11273 0.71429 0.09957 0.0
Co171 Co 0.13447 0.73539 0.16725 0.0
C172 C 0.20053 0.76207 0.17727 0.0
O173 O 0.2108 0.72858 0.19335 0.0
N174 N 0.13141 0.71624 0.21989 0.0
C175 C 0.14062 0.68672 0.27534 0.0
C176 C 0.14529 0.68331 0.23702 0.0
C177 C 0.11798 0.73859 0.24888 0.0
N178 N 0.12299 0.72146 0.28251 0.0
O179 O 0.09243 0.77356 0.18587 0.0
H180 H 0.16053 0.659 0.22244 0.0
H181 H 0.10758 0.76816 0.24476 0.0
O182 O 0.1713 0.76776 0.16539 0.0
C183 C 0.05768 0.76563 0.1956 0.0
O184 O 0.05255 0.73108 0.19498 0.0
N185 N 0.17418 0.69731 0.14629 0.0
C186 C 0.22021 0.64024 0.10243 0.0
C187 C 0.23359 0.67514 0.0963 0.0
C188 C 0.20996 0.70352 0.11851 0.0
C189 C 0.16065 0.66371 0.15194 0.0
C190 C 0.18363 0.63444 0.13122 0.0
H191 H 0.21912 0.73119 0.11098 0.0
H192 H 0.13101 0.66021 0.1715 0.0
H193 H 0.16133 0.80665 0.10722 0.0
H194 H 0.12451 0.75957 0.03233 0.0
H195 H 0.15083 0.66601 0.29566 0.0
H196 H 0.26101 0.681 0.07322 0.0
H197 H 0.17153 0.6084 0.13557 0.0
H198 H 0.95747 0.32787 0.20932 0.0
H199 H 0.05458 0.25274 0.144 0.0
H200 H 0.93859 0.27733 0.26311 0.0
H201 H 0.03749 0.20299 0.1983 0.0
H202 H 0.96199 0.20315 0.36988 0.0
H203 H 0.96254 0.24884 0.31281 0.0
H204 H -0.00183 0.1589 0.23978 0.0
H205 H -0.00042 0.11364 0.29705 0.0
C206 C 0.97449 0.30039 0.20635 0.0
C207 C 0.00769 0.2943 0.17274 0.0
C208 C 0.96393 0.27147 0.23729 0.0
C209 C 0.98692 0.23612 0.23563 0.0
C210 C 0.01868 0.22955 0.20075 0.0
C211 C 0.02871 0.25822 0.16952 0.0
C212 C 0.96923 0.19329 0.34169 0.0
C213 C 0.98126 0.15514 0.33758 0.0
C214 C 0.96935 0.21939 0.30888 0.0
C215 C 0.98081 0.20777 0.27131 0.0
C216 C 0.99021 0.16909 0.26792 0.0
C217 C -0.00913 0.14311 0.30066 0.0
H218 H 0.90141 0.08199 0.23151 0.0
H219 H 0.80278 0.03027 0.31715 0.0
H220 H 0.94159 0.05416 0.27165 0.0
H221 H 0.84334 0.00101 0.35647 0.0
H222 H 0.91307 0.00838 0.43751 0.0
H223 H 0.87167 0.01989 0.39736 0.0
H224 H 0.97366 0.99687 0.29471 0.0
H225 H 0.01536 0.98691 0.33486 0.0
C226 C 0.88844 0.06452 0.25885 0.0
C227 C 0.84891 0.05878 0.27157 0.0
C228 C 0.91156 0.04807 0.28157 0.0
C229 C 0.89572 0.02508 0.31715 0.0
C230 C 0.85628 0.0189 0.32947 0.0
C231 C 0.83302 0.0358 0.30703 0.0
C232 C 0.92651 0.00463 0.40663 0.0
C233 C 0.96743 0.99752 0.38906 0.0
C234 C 0.90275 0.01123 0.38354 0.0
C235 C 0.91954 0.01025 0.34263 0.0
C236 C 0.96005 0.999 0.32594 0.0
C237 C 0.98386 0.99291 0.34895 0.0
H238 H 0.13506 0.86698 0.44257 0.0
H239 H 0.07021 0.92269 0.36699 0.0
H240 H 0.13938 0.80717 0.41812 0.0
H241 H 0.07524 0.86431 0.34237 0.0
H242 H 0.17791 0.73038 0.31133 0.0
H243 H 0.1714 0.7787 0.3528 0.0
H244 H 0.04807 0.80429 0.36792 0.0
H245 H 0.05529 0.75702 0.3256 0.0
C246 C 0.12199 0.86646 0.42069 0.0
C247 C 0.10283 0.89963 0.40633 0.0
C248 C 0.12447 0.8324 0.40673 0.0
C249 C 0.10715 0.831 0.37878 0.0
C250 C 0.08822 0.86425 0.36448 0.0
C251 C 0.08601 0.898 0.37808 0.0
C252 C 0.14923 0.74542 0.32498 0.0
C253 C 0.11703 0.74035 0.31552 0.0
C254 C 0.14547 0.77307 0.34854 0.0
C255 C 0.1094 0.79575 0.36287 0.0
C256 C 0.07641 0.78775 0.3566 0.0
C257 C 0.08032 0.76056 0.3328 0.0
H258 H 0.32227 0.11511 0.15315 0.0
H259 H 0.2647 0.04621 0.11266 0.0
H260 H 0.26719 0.11627 0.21523 0.0
H261 H 0.20956 0.04746 0.17455 0.0
H262 H 0.14143 0.02146 0.30673 0.0
H263 H 0.19501 0.02232 0.24343 0.0
H264 H 0.19854 0.13994 0.24368 0.0
H265 H 0.14568 0.13891 0.30722 0.0
C266 C 0.29763 0.10064 0.1573 0.0
C267 C 0.29806 0.0803 0.12811 0.0
C268 C 0.26603 0.10126 0.19288 0.0
C269 C 0.23405 0.0817 0.20002 0.0
C270 C 0.23407 0.06215 0.17038 0.0
C271 C 0.26569 0.06147 0.13487 0.0
C272 C 0.15364 0.0475 0.29326 0.0
C273 C 0.13933 0.08007 0.3121 0.0
C274 C 0.18419 0.04806 0.25685 0.0
C275 C 0.2011 0.08122 0.23844 0.0
C276 C 0.1866 0.11381 0.25725 0.0
C277 C 0.15612 0.11324 0.29364 0.0
H278 H 0.15814 0.86284 0.06963 0.0
H279 H 0.16363 0.79667 0.98091 0.0
H280 H 0.18103 0.91441 0.01866 0.0
H281 H 0.18435 0.84883 0.93044 0.0
H282 H 0.25506 0.9317 0.84202 0.0
H283 H 0.23963 0.88162 0.89662 0.0
H284 H 0.161 0.96172 0.97251 0.0
H285 H 0.17778 0.01219 0.91777 0.0
C286 C 0.16421 0.8591 0.03936 0.0
C287 C 0.15914 0.8252 0.02959 0.0
C288 C 0.17696 0.88898 0.0101 0.0
C289 C 0.18489 0.8858 0.97032 0.0
C290 C 0.17934 0.85211 0.96065 0.0
C291 C 0.16681 0.82224 0.9898 0.0
C292 C 0.23506 0.93869 0.8706 0.0
C293 C 0.21751 0.97573 0.87568 0.0
C294 C 0.22587 0.90993 0.90182 0.0
C295 C 0.19835 0.91739 0.93881 0.0
C296 C 0.18242 0.95492 0.94449 0.0
C297 C 0.19206 0.98389 0.9132 0.0
H298 H 0.47689 0.03435 0.84541 0.0
H299 H 0.46592 0.9165 0.86076 0.0
H300 H 0.46767 0.04215 0.78279 0.0
H301 H 0.45852 0.92353 0.79655 0.0
H302 H 0.33915 0.98199 0.78179 0.0
H303 H 0.39692 0.94919 0.79379 0.0
H304 H 0.46341 0.03869 0.72196 0.0
H305 H 0.40413 0.0724 0.71098 0.0
C306 C 0.47398 0.00978 0.83449 0.0
C307 C 0.46975 0.97539 0.85873 0.0
C308 C 0.46933 0.01398 0.79805 0.0
C309 C 0.46002 0.98376 0.78543 0.0
C310 C 0.46383 0.94774 0.80623 0.0
C311 C 0.46819 0.94363 0.84301 0.0
C312 C 0.36634 0.99409 0.76708 0.0
C313 C 0.36665 0.03074 0.74732 0.0
C314 C 0.40003 0.97497 0.77373 0.0
C315 C 0.43449 0.99237 0.76083 0.0
C316 C 0.43678 0.02539 0.73402 0.0
C317 C 0.40283 0.04481 0.72783 0.0
H318 H 0.16688 0.22108 0.79429 0.0
H319 H 0.18998 0.14056 0.88712 0.0
H320 H 0.13787 0.26779 0.83969 0.0
H321 H 0.16324 0.18798 0.93228 0.0
H322 H 0.08315 0.26977 0.01418 0.0
H323 H 0.10641 0.22253 0.96904 0.0
H324 H 0.15336 0.30772 0.87256 0.0
H325 H 0.12787 0.35512 0.91758 0.0
C326 C 0.16618 0.21358 0.82439 0.0
C327 C 0.18081 0.17734 0.83722 0.0
C328 C 0.14975 0.24044 0.85043 0.0
C329 C 0.14835 0.23192 0.88973 0.0
C330 C 0.16309 0.19547 0.90248 0.0
C331 C 0.17874 0.16832 0.87658 0.0
C332 C 0.09811 0.27833 0.9832 0.0
C333 C 0.10366 0.31604 0.96925 0.0
C334 C 0.11181 0.25121 0.95734 0.0
C335 C 0.13211 0.26109 0.91705 0.0
C336 C 0.13726 0.29904 0.90318 0.0
C337 C 0.1228 0.32628 0.92897 0.0
H338 H 0.8847 0.01382 0.0483 0.0
H339 H 0.91905 0.10465 0.08441 0.0
H340 H 0.94134 0.01621 0.98817 0.0
H341 H 0.97615 0.10716 0.02339 0.0
H342 H 0.0963 0.06493 0.93133 0.0
H343 H 0.03908 0.06774 0.99133 0.0
H344 H 0.96517 0.058 0.92653 0.0
H345 H 0.02232 0.0556 0.86633 0.0
C346 C 0.90429 0.03444 0.04341 0.0
C347 C 0.89725 0.05911 0.07125 0.0
C348 C 0.93668 0.03594 0.00869 0.0
C349 C 0.96308 0.06205 0.00082 0.0
C350 C 0.95639 0.0866 0.02874 0.0
C351 C 0.92367 0.08524 0.06359 0.0
C352 C 0.06784 0.06398 0.9296 0.0
C353 C 0.06404 0.05993 0.89382 0.0
C354 C 0.035 0.06559 0.96411 0.0
C355 C -0.00238 0.06297 0.96374 0.0
C356 C -0.00631 0.05953 0.92791 0.0
C357 C 0.02648 0.05805 0.89339 0.0
H358 H 0.34128 0.13405 0.92978 0.0
H359 H 0.28807 0.05471 0.0296 0.0
H360 H 0.29202 0.18423 0.95964 0.0
H361 H 0.23898 0.10535 0.05976 0.0
H362 H 0.14377 0.21274 0.08442 0.0
H363 H 0.18325 0.15785 0.05306 0.0
H364 H 0.28787 0.21137 0.02049 0.0
H365 H 0.24856 0.26612 0.0513 0.0
C366 C 0.3184 0.12709 0.95757 0.0
C367 C 0.31921 0.09058 0.97775 0.0
C368 C 0.29048 0.15593 0.97486 0.0
C369 C 0.26258 0.14884 0.01255 0.0
C370 C 0.26047 0.11162 0.03082 0.0
C371 C 0.28851 0.08261 0.01342 0.0
C372 C 0.17525 0.21257 0.07076 0.0
C373 C 0.19308 0.2438 0.07015 0.0
C374 C 0.19777 0.18118 0.05294 0.0
C375 C 0.23844 0.18071 0.03374 0.0
C376 C 0.25641 0.21132 0.03443 0.0
C377 C 0.23401 0.24245 0.05257 0.0
H378 H 0.32301 0.94769 0.0465 0.0
H379 H 0.3907 0.89761 0.12114 0.0
H380 H 0.27535 0.9039 0.0803 0.0
H381 H 0.34188 0.8549 0.15653 0.0
H382 H 0.27736 0.7537 0.17097 0.0
H383 H 0.32162 0.80145 0.14633 0.0
H384 H 0.22491 0.88554 0.13822 0.0
H385 H 0.18115 0.83719 0.16098 0.0
C386 C 0.32734 0.92766 0.0706 0.0
C387 C 0.36077 0.92573 0.08092 0.0
C388 C 0.2998 0.90273 0.09028 0.0
C389 C 0.30473 0.87574 0.12118 0.0
C390 C 0.33755 0.87479 0.13237 0.0
C391 C 0.36545 0.89935 0.11222 0.0
C392 C 0.26551 0.78248 0.16438 0.0
C393 C 0.22598 0.79173 0.16747 0.0
C394 C 0.29084 0.80997 0.15044 0.0
C395 C 0.27696 0.84739 0.13993 0.0
C396 C 0.23683 0.85687 0.14511 0.0
C397 C 0.21167 0.82925 0.1584 0.0
H398 H 0.77665 0.26892 0.15293 0.0
H399 H 0.88662 0.2004 0.10158 0.0
H400 H 0.80831 0.32537 0.12215 0.0
H401 H 0.91772 0.25641 0.07064 0.0
H402 H 0.97005 0.356 0.00952 0.0
H403 H 0.92171 0.31307 0.02273 0.0
H404 H 0.85823 0.35257 0.13584 0.0
H405 H 0.90623 0.39577 0.12206 0.0
C406 C 0.80741 0.26578 0.13486 0.0
C407 C 0.82917 0.22995 0.13031 0.0
C408 C 0.82542 0.29816 0.11703 0.0
C409 C 0.86546 0.29537 0.09397 0.0
C410 C 0.88661 0.2596 0.08763 0.0
C411 C 0.86872 0.22731 0.10558 0.0
C412 C 0.94473 0.35654 0.03638 0.0
C413 C 0.94195 0.37876 0.06494 0.0
C414 C 0.9173 0.33183 0.04412 0.0
C415 C 0.88677 0.32881 0.08071 0.0
C416 C 0.88138 0.35428 0.10732 0.0
C417 C 0.90879 0.37916 0.09943 0.0
H418 H 0.97971 0.75739 0.22322 0.0
H419 H 0.05931 0.84135 0.18529 0.0
H420 H 0.92428 0.80674 0.23041 0.0
H421 H 0.00415 0.89061 0.1912 0.0
H422 H 0.8955 0.97325 0.23084 0.0
H423 H 0.94704 0.92221 0.23515 0.0
H424 H 0.89706 0.85139 0.18825 0.0
H425 H 0.84503 0.90237 0.18497 0.0
C426 C 0.98535 0.7864 0.21659 0.0
C427 C 0.02389 0.79548 0.20351 0.0
C428 C 0.9536 0.81468 0.22046 0.0
C429 C 0.95972 0.85268 0.21107 0.0
C430 C -0.00176 0.8617 0.19917 0.0
C431 C 0.02994 0.83343 0.19559 0.0
C432 C 0.89561 0.94672 0.22151 0.0
C433 C 0.86658 0.94179 0.20718 0.0
C434 C 0.92513 0.91748 0.22393 0.0
C435 C 0.92645 0.88274 0.21175 0.0
C436 C 0.89668 0.87757 0.19841 0.0
C437 C 0.86693 0.90675 0.19636 0.0
H438 H 0.23143 0.09898 0.60797 0.0
H439 H 0.15005 0.1932 0.65882 0.0
H440 H 0.21051 0.11215 0.55187 0.0
H441 H 0.12669 0.20384 0.60318 0.0
H442 H 0.16433 0.13869 0.45441 0.0
H443 H 0.19452 0.16223 0.49327 0.0
H444 H 0.09196 0.14585 0.59668 0.0
H445 H 0.063 0.11984 0.55947 0.0
C446 C 0.21018 0.12341 0.60691 0.0
C447 C 0.19183 0.14438 0.63897 0.0
C448 C 0.19817 0.1309 0.57436 0.0
C449 C 0.16687 0.15875 0.57352 0.0
C450 C 0.15092 0.18213 0.60342 0.0
C451 C 0.16383 0.17543 0.63559 0.0
C452 C 0.14804 0.14033 0.48537 0.0
C453 C 0.11153 0.12644 0.50384 0.0
C454 C 0.16505 0.15454 0.50729 0.0
C455 C 0.14531 0.15606 0.5477 0.0
C456 C 0.10736 0.14568 0.56531 0.0
C457 C 0.09081 0.1306 0.54379 0.0
H458 H 0.69622 0.12544 0.06125 0.0
H459 H 0.65997 0.03899 0.15974 0.0
H460 H 0.65219 0.10817 0.0333 0.0
H461 H 0.6136 0.02433 0.13383 0.0
H462 H 0.56254 0.97773 0.06242 0.0
H463 H 0.61283 0.99417 0.08302 0.0
H464 H 0.58516 0.11108 0.04215 0.0
H465 H 0.53679 0.09386 0.01955 0.0
C466 C 0.67867 0.10303 0.07712 0.0
C467 C 0.68175 0.08356 0.11269 0.0
C468 C 0.6531 0.09343 0.06133 0.0
C469 C 0.6297 0.0646 0.08114 0.0
C470 C 0.63191 0.04604 0.1173 0.0
C471 C 0.65792 0.0551 0.13266 0.0
C472 C 0.56797 0.00673 0.05739 0.0
C473 C 0.54638 0.03463 0.03952 0.0
C474 C 0.59631 0.01629 0.06944 0.0
C475 C 0.60259 0.05404 0.0647 0.0
C476 C 0.58144 0.08174 0.04578 0.0
C477 C 0.55371 0.07201 0.03301 0.0
H478 H 0.2413 0.6508 0.02267 0.0
H479 H 0.24141 0.56593 0.12077 0.0
H480 H 0.24934 0.60203 0.98172 0.0
H481 H 0.24914 0.51729 0.08031 0.0
H482 H 0.2397 0.43394 0.01888 0.0
H483 H 0.27701 0.48113 0.0231 0.0
H484 H 0.19185 0.56888 0.99553 0.0
H485 H 0.15502 0.52183 0.99144 0.0
C486 C 0.24508 0.62164 0.03485 0.0
C487 C 0.24002 0.61195 0.07499 0.0
C488 C 0.24949 0.59374 0.01148 0.0
C489 C 0.24899 0.5559 0.028 0.0
C490 C 0.2497 0.54613 0.06655 0.0
C491 C 0.24501 0.57398 0.08993 0.0
C492 C 0.23024 0.46337 0.01177 0.0
C493 C 0.19439 0.47451 0.00533 0.0
C494 C 0.25145 0.49034 0.01435 0.0
C495 C 0.23704 0.52869 0.01034 0.0
C496 C 0.20397 0.53964 -0.00141 0.0
C497 C 0.18265 0.51273 0.99643 0.0
loop_
_geom_bond_atom_site_label_1
_geom_bond_atom_site_label_2
_geom_bond_distance
_geom_bond_site_symmetry_2
_ccdc_geom_bond_type
C0 C1 1.351 . S
C0 N3 1.368 . S
C0 H5 0.931 1_455 S
C1 C0 1.351 . S
C1 N2 1.373 . S
C1 H29 0.930 . S
N2 C1 1.373 . S
N2 C4 1.340 . S
N3 C0 1.368 . S
N3 C4 1.321 . S
N3 Co6 2.135 1_565 S
C4 N2 1.340 . S
C4 N3 1.321 . S
C4 H28 0.930 . S
H5 C0 0.931 1_655 S
Co6 N3 2.135 1_545 S
Co6 N9 2.121 . S
Co6 O14 2.055 . S
Co6 O17 2.039 . S
Co6 N20 2.140 . S
C7 O8 1.227 1_545 S
C7 O17 1.265 . S
O8 C7 1.227 1_565 S
N9 Co6 2.121 . S
N9 C11 1.375 . S
N9 C12 1.313 . S
C10 C11 1.338 . S
C10 N13 1.377 . S
C10 H30 0.930 . S
C11 N9 1.375 . S
C11 C10 1.338 . S
C11 H15 0.931 . S
C12 N9 1.313 . S
C12 N13 1.344 . S
C12 H16 0.930 . S
N13 C10 1.377 . S
N13 C12 1.344 . S
O14 Co6 2.055 . S
O14 C18 1.253 1_455 S
H15 C11 0.931 . S
H16 C12 0.930 . S
O17 Co6 2.039 . S
O17 C7 1.265 . S
C18 O14 1.253 1_655 S
C18 O19 1.227 . S
O19 C18 1.227 . S
N20 Co6 2.140 . S
N20 C23 1.346 1_545 S
N20 C24 1.345 . S
C21 C22 1.387 1_545 S
C21 C25 1.391 . S
C22 C21 1.387 1_565 S
C22 C23 1.369 . S
C22 H31 0.929 . S
C23 N20 1.346 1_565 S
C23 C22 1.369 . S
C23 H26 0.928 . S
C24 N20 1.345 . S
C24 C25 1.371 . S
C24 H27 0.931 . S
C25 C21 1.391 . S
C25 C24 1.371 . S
C25 H32 0.930 . S
H26 C23 0.928 . S
H27 C24 0.931 . S
H28 C4 0.930 . S
H29 C1 0.930 . S
H30 C10 0.930 . S
H31 C22 0.929 . S
H32 C25 0.930 . S
C33 C34 1.351 . S
C33 N36 1.368 . S
C33 H38 0.931 . S
C34 C33 1.351 . S
C34 N35 1.373 . S
C34 H62 0.930 . S
N35 C34 1.373 . S
N35 C37 1.340 . S
N36 C33 1.368 . S
N36 C37 1.321 . S
N36 Co39 2.135 . S
C37 N35 1.340 . S
C37 N36 1.321 . S
C37 H61 0.930 . S
H38 C33 0.931 . S
Co39 N36 2.135 . S
Co39 N42 2.121 . S
Co39 O47 2.055 . S
Co39 O50 2.039 . S
Co39 N53 2.140 . S
C40 O41 1.227 . S
C40 O50 1.265 . S
O41 C40 1.227 . S
N42 Co39 2.121 . S
N42 C44 1.375 . S
N42 C45 1.313 . S
C43 C44 1.338 . S
C43 N46 1.377 . S
C43 H63 0.930 . S
C44 N42 1.375 . S
C44 C43 1.338 . S
C44 H48 0.931 . S
C45 N42 1.313 . S
C45 N46 1.344 . S
C45 H49 0.930 . S
N46 C43 1.377 . S
N46 C45 1.344 . S
O47 Co39 2.055 . S
O47 C51 1.253 . S
H48 C44 0.931 . S
H49 C45 0.930 . S
O50 Co39 2.039 . S
O50 C40 1.265 . S
C51 O47 1.253 . S
C51 O52 1.227 . S
O52 C51 1.227 . S
N53 Co39 2.140 . S
N53 C56 1.346 . S
N53 C57 1.345 . S
C54 C55 1.387 . S
C54 C58 1.391 . S
C55 C54 1.387 . S
C55 C56 1.369 . S
C55 H64 0.929 . S
C56 N53 1.346 . S
C56 C55 1.369 . S
C56 H59 0.928 . S
C57 N53 1.345 . S
C57 C58 1.371 . S
C57 H60 0.931 . S
C58 C54 1.391 . S
C58 C57 1.371 . S
C58 H65 0.930 . S
H59 C56 0.928 . S
H60 C57 0.931 . S
H61 C37 0.930 . S
H62 C34 0.930 . S
H63 C43 0.930 . S
H64 C55 0.929 . S
H65 C58 0.930 . S
C66 C67 1.351 . S
C66 N69 1.368 . S
C66 H71 0.931 . S
C67 C66 1.351 . S
C67 N68 1.373 . S
C67 H95 0.930 . S
N68 C67 1.373 . S
N68 C70 1.340 . S
N69 C66 1.368 . S
N69 C70 1.321 . S
N69 Co72 2.135 . S
C70 N68 1.340 . S
C70 N69 1.321 . S
C70 H94 0.930 1_545 S
H71 C66 0.931 . S
Co72 N69 2.135 . S
Co72 N75 2.121 1_554 S
Co72 O80 2.055 . S
Co72 O83 2.039 1_545 S
Co72 N86 2.140 . S
C73 O74 1.227 . S
C73 O83 1.265 . S
O74 C73 1.227 . S
N75 Co72 2.121 1_556 S
N75 C77 1.375 1_545 S
N75 C78 1.313 . S
C76 C77 1.338 . S
C76 N79 1.377 1_565 S
C76 H96 0.930 . S
C77 N75 1.375 1_565 S
C77 C76 1.338 . S
C77 H81 0.931 . S
C78 N75 1.313 . S
C78 N79 1.344 . S
C78 H82 0.930 . S
N79 C76 1.377 1_545 S
N79 C78 1.344 . S
O80 Co72 2.055 . S
O80 C84 1.253 . S
H81 C77 0.931 . S
H82 C78 0.930 . S
O83 Co72 2.039 1_565 S
O83 C73 1.265 . S
C84 O80 1.253 . S
C84 O85 1.227 . S
O85 C84 1.227 . S
N86 Co72 2.140 . S
N86 C89 1.346 . S
N86 C90 1.345 1_554 S
C87 C88 1.387 . S
C87 C91 1.391 1_554 S
C88 C87 1.387 . S
C88 C89 1.369 . S
C88 H97 0.929 1_545 S
C89 N86 1.346 . S
C89 C88 1.369 . S
C89 H92 0.928 1_545 S
C90 N86 1.345 1_556 S
C90 C91 1.371 . S
C90 H93 0.931 . S
C91 C87 1.391 1_556 S
C91 C90 1.371 . S
C91 H98 0.930 . S
H92 C89 0.928 1_565 S
H93 C90 0.931 . S
H94 C70 0.930 1_565 S
H95 C67 0.930 . S
H96 C76 0.930 . S
H97 C88 0.929 1_565 S
H98 C91 0.930 . S
C99 C100 1.351 . S
C99 N102 1.368 . S
C99 H104 0.931 . S
C100 C99 1.351 . S
C100 N101 1.373 . S
C100 H128 0.930 . S
N101 C100 1.373 . S
N101 C103 1.340 . S
N102 C99 1.368 . S
N102 C103 1.321 . S
N102 Co105 2.135 . S
C103 N101 1.340 . S
C103 N102 1.321 . S
C103 H127 0.930 1_554 S
H104 C99 0.931 . S
Co105 N102 2.135 . S
Co105 N108 2.121 . S
Co105 O113 2.055 . S
Co105 O116 2.039 . S
Co105 N119 2.140 . S
C106 O107 1.227 . S
C106 O116 1.265 1_556 S
O107 C106 1.227 . S
N108 Co105 2.121 . S
N108 C110 1.375 . S
N108 C111 1.313 1_455 S
C109 C110 1.338 1_655 S
C109 N112 1.377 . S
C109 H129 0.930 . S
C110 N108 1.375 . S
C110 C109 1.338 1_455 S
C110 H114 0.931 1_554 S
C111 N108 1.313 1_655 S
C111 N112 1.344 . S
C111 H115 0.930 . S
N112 C109 1.377 . S
N112 C111 1.344 . S
O113 Co105 2.055 . S
O113 C117 1.253 . S
H114 C110 0.931 1_556 S
H115 C111 0.930 . S
O116 Co105 2.039 . S
O116 C106 1.265 1_554 S
C117 O113 1.253 . S
C117 O118 1.227 . S
O118 C117 1.227 . S
N119 Co105 2.140 . S
N119 C122 1.346 . S
N119 C123 1.345 . S
C120 C121 1.387 . S
C120 C124 1.391 . S
C121 C120 1.387 . S
C121 C122 1.369 . S
C121 H130 0.929 . S
C122 N119 1.346 . S
C122 C121 1.369 . S
C122 H125 0.928 . S
C123 N119 1.345 . S
C123 C124 1.371 . S
C123 H126 0.931 . S
C124 C120 1.391 . S
C124 C123 1.371 . S
C124 H131 0.930 . S
H125 C122 0.928 . S
H126 C123 0.931 . S
H127 C103 0.930 1_556 S
H128 C100 0.930 . S
H129 C109 0.930 . S
H130 C121 0.929 . S
H131 C124 0.930 . S
C132 C133 1.351 . S
C132 N135 1.368 . S
C132 H137 0.931 . S
C133 C132 1.351 . S
C133 N134 1.373 . S
C133 H161 0.930 . S
N134 C133 1.373 . S
N134 C136 1.340 . S
N135 C132 1.368 . S
N135 C136 1.321 . S
N135 Co138 2.135 . S
C136 N134 1.340 . S
C136 N135 1.321 . S
C136 H160 0.930 . S
H137 C132 0.931 . S
Co138 N135 2.135 . S
Co138 N141 2.121 . S
Co138 O146 2.055 . S
Co138 O149 2.039 . S
Co138 N152 2.140 . S
C139 O140 1.227 . S
C139 O149 1.265 . S
O140 C139 1.227 . S
N141 Co138 2.121 . S
N141 C143 1.375 . S
N141 C144 1.313 . S
C142 C143 1.338 1_565 S
C142 N145 1.377 . S
C142 H162 0.930 . S
C143 N141 1.375 . S
C143 C142 1.338 1_545 S
C143 H147 0.931 . S
C144 N141 1.313 . S
C144 N145 1.344 1_545 S
C144 H148 0.930 . S
N145 C142 1.377 . S
N145 C144 1.344 1_565 S
O146 Co138 2.055 . S
O146 C150 1.253 . S
H147 C143 0.931 . S
H148 C144 0.930 . S
O149 Co138 2.039 . S
O149 C139 1.265 . S
C150 O146 1.253 . S
C150 O151 1.227 . S
O151 C150 1.227 . S
N152 Co138 2.140 . S
N152 C155 1.346 . S
N152 C156 1.345 . S
C153 C154 1.387 . S
C153 C157 1.391 . S
C154 C153 1.387 . S
C154 C155 1.369 . S
C154 H163 0.929 . S
C155 N152 1.346 . S
C155 C154 1.369 . S
C155 H158 0.928 . S
C156 N152 1.345 . S
C156 C157 1.371 . S
C156 H159 0.931 . S
C157 C153 1.391 . S
C157 C156 1.371 . S
C157 H164 0.930 . S
H158 C155 0.928 . S
H159 C156 0.931 . S
H160 C136 0.930 . S
H161 C133 0.930 . S
H162 C142 0.930 . S
H163 C154 0.929 . S
H164 C157 0.930 . S
C165 C166 1.351 . S
C165 N168 1.368 . S
C165 H170 0.931 . S
C166 C165 1.351 . S
C166 N167 1.373 . S
C166 H194 0.930 . S
N167 C166 1.373 . S
N167 C169 1.340 . S
N168 C165 1.368 . S
N168 C169 1.321 . S
N168 Co171 2.135 . S
C169 N167 1.340 . S
C169 N168 1.321 . S
C169 H193 0.930 . S
H170 C165 0.931 . S
Co171 N168 2.135 . S
Co171 N174 2.121 . S
Co171 O179 2.055 . S
Co171 O182 2.039 . S
Co171 N185 2.140 . S
C172 O173 1.227 . S
C172 O182 1.265 . S
O173 C172 1.227 . S
N174 Co171 2.121 . S
N174 C176 1.375 . S
N174 C177 1.313 . S
C175 C176 1.338 . S
C175 N178 1.377 . S
C175 H195 0.930 . S
C176 N174 1.375 . S
C176 C175 1.338 . S
C176 H180 0.931 . S
C177 N174 1.313 . S
C177 N178 1.344 . S
C177 H181 0.930 . S
N178 C175 1.377 . S
N178 C177 1.344 . S
O179 Co171 2.055 . S
O179 C183 1.253 . S
H180 C176 0.931 . S
H181 C177 0.930 . S
O182 Co171 2.039 . S
O182 C172 1.265 . S
C183 O179 1.253 . S
C183 O184 1.227 . S
O184 C183 1.227 . S
N185 Co171 2.140 . S
N185 C188 1.346 . S
N185 C189 1.345 . S
C186 C187 1.387 . S
C186 C190 1.391 . S
C187 C186 1.387 . S
C187 C188 1.369 . S
C187 H196 0.929 . S
C188 N185 1.346 . S
C188 C187 1.369 . S
C188 H191 0.928 . S
C189 N185 1.345 . S
C189 C190 1.371 . S
C189 H192 0.931 . S
C190 C186 1.391 . S
C190 C189 1.371 . S
C190 H197 0.930 . S
H191 C188 0.928 . S
H192 C189 0.931 . S
H193 C169 0.930 . S
H194 C166 0.930 . S
H195 C175 0.930 . S
H196 C187 0.929 . S
H197 C190 0.930 . S
H198 C206 0.950 1_655 S
H199 C211 0.950 . S
H200 C208 0.950 1_655 S
H201 C210 0.950 . S
H202 C212 0.950 . S
H203 C214 0.950 . S
H204 C216 0.950 1_655 S
H205 C217 0.937 1_655 S
C206 H198 0.950 1_455 S
C206 C207 1.386 . S
C206 C208 1.391 . S
C207 C206 1.386 . S
C207 C211 1.393 . S
C208 H200 0.950 1_455 S
C208 C206 1.391 . S
C208 C209 1.400 . S
C209 C208 1.400 . S
C209 C210 1.398 . S
C209 C215 1.491 . S
C210 H201 0.950 . S
C210 C209 1.398 . S
C210 C211 1.391 . S
C211 H199 0.950 . S
C211 C207 1.393 . S
C211 C210 1.391 . S
C212 H202 0.950 . S
C212 C213 1.386 . S
C212 C214 1.391 . S
C213 C212 1.386 . S
C213 C217 1.408 . S
C214 H203 0.950 . S
C214 C212 1.391 . S
C214 C215 1.400 . S
C215 C209 1.491 . S
C215 C214 1.400 . S
C215 C216 1.398 . S
C216 H204 0.950 1_455 S
C216 C215 1.398 . S
C216 C217 1.388 . S
C217 H205 0.937 1_455 S
C217 C213 1.408 . S
C217 C216 1.388 . S
H218 C226 0.950 . S
H219 C231 0.950 . S
H220 C228 0.950 . S
H221 C230 0.950 . S
H222 C232 0.950 1_565 S
H223 C234 0.950 1_565 S
H224 C236 0.950 . S
H225 C237 0.950 . S
C226 H218 0.950 . S
C226 C227 1.386 . S
C226 C228 1.391 . S
C227 C226 1.386 . S
C227 C231 1.393 . S
C228 H220 0.950 . S
C228 C226 1.391 . S
C228 C229 1.400 . S
C229 C228 1.400 . S
C229 C230 1.398 . S
C229 C235 1.491 . S
C230 H221 0.950 . S
C230 C229 1.398 . S
C230 C231 1.391 . S
C231 H219 0.950 . S
C231 C227 1.393 . S
C231 C230 1.391 . S
C232 H222 0.950 1_545 S
C232 C233 1.386 . S
C232 C234 1.391 . S
C233 C232 1.386 . S
C233 C237 1.393 . S
C234 H223 0.950 1_545 S
C234 C232 1.391 . S
C234 C235 1.400 . S
C235 C229 1.491 . S
C235 C234 1.400 . S
C235 C236 1.398 . S
C236 H224 0.950 . S
C236 C235 1.398 . S
C236 C237 1.391 . S
C237 H225 0.950 . S
C237 C233 1.393 . S
C237 C236 1.391 . S
H238 C246 0.950 . S
H239 C251 0.950 . S
H240 C248 0.950 . S
H241 C250 0.950 . S
H242 C252 0.950 . S
H243 C254 0.950 . S
H244 C256 0.950 . S
H245 C257 0.950 . S
C246 H238 0.950 . S
C246 C247 1.386 . S
C246 C248 1.391 . S
C247 C246 1.386 . S
C247 C251 1.393 . S
C248 H240 0.950 . S
C248 C246 1.391 . S
C248 C249 1.400 . S
C249 C248 1.400 . S
C249 C250 1.398 . S
C249 C255 1.491 . S
C250 H241 0.950 . S
C250 C249 1.398 . S
C250 C251 1.391 . S
C251 H239 0.950 . S
C251 C247 1.393 . S
C251 C250 1.391 . S
C252 H242 0.950 . S
C252 C253 1.386 . S
C252 C254 1.391 . S
C253 C252 1.386 . S
C253 C257 1.393 . S
C254 H243 0.950 . S
C254 C252 1.391 . S
C254 C255 1.400 . S
C255 C249 1.491 . S
C255 C254 1.400 . S
C255 C256 1.398 . S
C256 H244 0.950 . S
C256 C255 1.398 . S
C256 C257 1.391 . S
C257 H245 0.950 . S
C257 C253 1.393 . S
C257 C256 1.391 . S
H258 C266 0.950 . S
H259 C271 0.950 . S
H260 C268 0.950 . S
H261 C270 0.950 . S
H262 C272 0.950 . S
H263 C274 0.950 . S
H264 C276 0.950 . S
H265 C277 0.950 . S
C266 H258 0.950 . S
C266 C267 1.386 . S
C266 C268 1.391 . S
C267 C266 1.386 . S
C267 C271 1.393 1_545 S
C268 H260 0.950 . S
C268 C266 1.391 . S
C268 C269 1.400 . S
C269 C268 1.400 . S
C269 C270 1.398 1_545 S
C269 C275 1.491 . S
C270 H261 0.950 . S
C270 C269 1.398 1_565 S
C270 C271 1.391 . S
C271 H259 0.950 . S
C271 C267 1.393 1_565 S
C271 C270 1.391 . S
C272 H262 0.950 . S
C272 C273 1.386 1_565 S
C272 C274 1.391 . S
C273 C272 1.386 1_545 S
C273 C277 1.393 . S
C274 H263 0.950 . S
C274 C272 1.391 . S
C274 C275 1.400 1_565 S
C275 C269 1.491 . S
C275 C274 1.400 1_545 S
C275 C276 1.398 . S
C276 H264 0.950 . S
C276 C275 1.398 . S
C276 C277 1.391 . S
C277 H265 0.950 . S
C277 C273 1.393 . S
C277 C276 1.391 . S
H278 C286 0.950 . S
H279 C291 0.950 . S
H280 C288 0.950 . S
H281 C290 0.950 . S
H282 C292 0.950 . S
H283 C294 0.950 . S
H284 C296 0.950 . S
H285 C297 0.950 . S
C286 H278 0.950 . S
C286 C287 1.386 1_554 S
C286 C288 1.391 1_554 S
C287 C286 1.386 1_556 S
C287 C291 1.393 . S
C288 H280 0.950 . S
C288 C286 1.391 1_556 S
C288 C289 1.400 . S
C289 C288 1.400 . S
C289 C290 1.398 . S
C289 C295 1.491 . S
C290 H281 0.950 . S
C290 C289 1.398 . S
C290 C291 1.391 . S
C291 H279 0.950 . S
C291 C287 1.393 . S
C291 C290 1.391 . S
C292 H282 0.950 . S
C292 C293 1.386 . S
C292 C294 1.391 . S
C293 C292 1.386 . S
C293 C297 1.393 . S
C294 H283 0.950 . S
C294 C292 1.391 . S
C294 C295 1.400 . S
C295 C289 1.491 . S
C295 C294 1.400 . S
C295 C296 1.398 . S
C296 H284 0.950 . S
C296 C295 1.398 . S
C296 C297 1.391 . S
C297 H285 0.950 . S
C297 C293 1.393 . S
C297 C296 1.391 . S
H298 C306 0.950 . S
H299 C311 0.950 1_565 S
H300 C308 0.950 . S
H301 C310 0.950 1_565 S
H302 C312 0.950 . S
H303 C314 0.962 . S
H304 C316 0.950 . S
H305 C317 0.950 . S
C306 H298 0.950 . S
C306 C307 1.386 . S
C306 C308 1.391 . S
C307 C306 1.386 . S
C307 C311 1.393 . S
C308 H300 0.950 . S
C308 C306 1.391 . S
C308 C309 1.400 . S
C309 C308 1.400 . S
C309 C310 1.398 . S
C309 C315 1.491 . S
C310 H301 0.950 1_545 S
C310 C309 1.398 . S
C310 C311 1.391 . S
C311 H299 0.950 1_545 S
C311 C307 1.393 . S
C311 C310 1.391 . S
C312 H302 0.950 . S
C312 C313 1.386 . S
C312 C314 1.391 . S
C313 C312 1.386 . S
C313 C317 1.393 . S
C314 H303 0.962 . S
C314 C312 1.391 . S
C314 C315 1.400 . S
C315 C309 1.491 . S
C315 C314 1.400 . S
C315 C316 1.398 . S
C316 H304 0.950 . S
C316 C315 1.398 . S
C316 C317 1.391 . S
C317 H305 0.950 . S
C317 C313 1.393 . S
C317 C316 1.391 . S
H318 C326 0.950 . S
H319 C331 0.950 . S
H320 C328 0.950 . S
H321 C330 0.950 . S
H322 C332 0.950 . S
H323 C334 0.950 . S
H324 C336 0.950 . S
H325 C337 0.950 . S
C326 H318 0.950 . S
C326 C327 1.386 . S
C326 C328 1.391 . S
C327 C326 1.386 . S
C327 C331 1.393 . S
C328 H320 0.950 . S
C328 C326 1.391 . S
C328 C329 1.400 . S
C329 C328 1.400 . S
C329 C330 1.398 . S
C329 C335 1.491 . S
C330 H321 0.950 . S
C330 C329 1.398 . S
C330 C331 1.391 . S
C331 H319 0.950 . S
C331 C327 1.393 . S
C331 C330 1.391 . S
C332 H322 0.950 . S
C332 C333 1.386 . S
C332 C334 1.391 . S
C333 C332 1.386 . S
C333 C337 1.393 . S
C334 H323 0.950 . S
C334 C332 1.391 . S
C334 C335 1.400 . S
C335 C329 1.491 . S
C335 C334 1.400 . S
C335 C336 1.398 . S
C336 H324 0.950 . S
C336 C335 1.398 . S
C336 C337 1.391 . S
C337 H325 0.950 . S
C337 C333 1.393 . S
C337 C336 1.391 . S
H338 C346 0.950 . S
H339 C351 0.950 . S
H340 C348 0.950 1_556 S
H341 C350 0.950 1_556 S
H342 C352 0.950 . S
H343 C354 0.950 . S
H344 C356 0.950 1_655 S
H345 C357 0.950 . S
C346 H338 0.950 . S
C346 C347 1.386 . S
C346 C348 1.391 . S
C347 C346 1.386 . S
C347 C351 1.393 . S
C348 H340 0.950 1_554 S
C348 C346 1.391 . S
C348 C349 1.400 1_554 S
C349 C348 1.400 1_556 S
C349 C350 1.398 1_556 S
C349 C355 1.491 . S
C350 H341 0.950 1_554 S
C350 C349 1.398 1_554 S
C350 C351 1.391 . S
C351 H339 0.950 . S
C351 C347 1.393 . S
C351 C350 1.391 . S
C352 H342 0.950 . S
C352 C353 1.386 . S
C352 C354 1.391 . S
C353 C352 1.386 . S
C353 C357 1.393 . S
C354 H343 0.950 . S
C354 C352 1.391 . S
C354 C355 1.400 1_455 S
C355 C349 1.491 . S
C355 C354 1.400 1_655 S
C355 C356 1.398 1_655 S
C356 H344 0.950 1_455 S
C356 C355 1.398 1_455 S
C356 C357 1.391 . S
C357 H345 0.950 . S
C357 C353 1.393 . S
C357 C356 1.391 . S
H358 C366 0.950 . S
H359 C371 0.950 . S
H360 C368 0.950 . S
H361 C370 0.951 1_556 S
H362 C372 0.950 . S
H363 C374 0.950 . S
H364 C376 0.950 . S
H365 C377 0.950 . S
C366 H358 0.950 . S
C366 C367 1.386 . S
C366 C368 1.391 . S
C367 C366 1.386 . S
C367 C371 1.393 1_554 S
C368 H360 0.950 . S
C368 C366 1.391 . S
C368 C369 1.400 . S
C369 C368 1.400 . S
C369 C370 1.397 . S
C369 C375 1.491 . S
C370 H361 0.951 1_554 S
C370 C369 1.397 . S
C370 C371 1.391 1_554 S
C371 H359 0.950 . S
C371 C367 1.393 1_556 S
C371 C370 1.391 1_556 S
C372 H362 0.950 . S
C372 C373 1.386 . S
C372 C374 1.391 . S
C373 C372 1.386 . S
C373 C377 1.393 . S
C374 H363 0.950 . S
C374 C372 1.391 . S
C374 C375 1.400 . S
C375 C369 1.491 . S
C375 C374 1.400 . S
C375 C376 1.398 . S
C376 H364 0.950 . S
C376 C375 1.398 . S
C376 C377 1.391 . S
C377 H365 0.950 . S
C377 C373 1.393 . S
C377 C376 1.391 . S
H378 C386 0.950 . S
H379 C391 0.950 . S
H380 C388 0.950 . S
H381 C390 0.950 . S
H382 C392 0.950 . S
H383 C394 0.950 . S
H384 C396 0.950 . S
H385 C397 0.950 . S
C386 H378 0.950 . S
C386 C387 1.386 . S
C386 C388 1.391 . S
C387 C386 1.386 . S
C387 C391 1.393 . S
C388 H380 0.950 . S
C388 C386 1.391 . S
C388 C389 1.400 . S
C389 C388 1.400 . S
C389 C390 1.398 . S
C389 C395 1.491 . S
C390 H381 0.950 . S
C390 C389 1.398 . S
C390 C391 1.391 . S
C391 H379 0.950 . S
C391 C387 1.393 . S
C391 C390 1.391 . S
C392 H382 0.950 . S
C392 C393 1.386 . S
C392 C394 1.391 . S
C393 C392 1.386 . S
C393 C397 1.393 . S
C394 H383 0.950 . S
C394 C392 1.391 . S
C394 C395 1.400 . S
C395 C389 1.491 . S
C395 C394 1.400 . S
C395 C396 1.398 . S
C396 H384 0.950 . S
C396 C395 1.398 . S
C396 C397 1.391 . S
C397 H385 0.950 . S
C397 C393 1.393 . S
C397 C396 1.391 . S
H398 C406 0.950 . S
H399 C411 0.950 . S
H400 C408 0.950 . S
H401 C410 0.950 . S
H402 C412 0.950 . S
H403 C414 0.950 . S
H404 C416 0.950 . S
H405 C417 0.950 . S
C406 H398 0.950 . S
C406 C407 1.386 . S
C406 C408 1.391 . S
C407 C406 1.386 . S
C407 C411 1.393 . S
C408 H400 0.950 . S
C408 C406 1.391 . S
C408 C409 1.400 . S
C409 C408 1.400 . S
C409 C410 1.398 . S
C409 C415 1.491 . S
C410 H401 0.950 . S
C410 C409 1.398 . S
C410 C411 1.391 . S
C411 H399 0.950 . S
C411 C407 1.393 . S
C411 C410 1.391 . S
C412 H402 0.950 . S
C412 C413 1.386 . S
C412 C414 1.391 . S
C413 C412 1.386 . S
C413 C417 1.393 . S
C414 H403 0.950 . S
C414 C412 1.391 . S
C414 C415 1.400 . S
C415 C409 1.491 . S
C415 C414 1.400 . S
C415 C416 1.398 . S
C416 H404 0.950 . S
C416 C415 1.398 . S
C416 C417 1.391 . S
C417 H405 0.950 . S
C417 C413 1.393 . S
C417 C416 1.391 . S
H418 C426 0.950 . S
H419 C431 0.950 . S
H420 C428 0.950 . S
H421 C430 0.950 . S
H422 C432 0.950 . S
H423 C434 0.950 . S
H424 C436 0.950 . S
H425 C437 0.950 . S
C426 H418 0.950 . S
C426 C427 1.386 . S
C426 C428 1.391 1_455 S
C427 C426 1.386 . S
C427 C431 1.393 . S
C428 H420 0.950 . S
C428 C426 1.391 1_655 S
C428 C429 1.400 . S
C429 C428 1.400 . S
C429 C430 1.398 1_655 S
C429 C435 1.491 . S
C430 H421 0.950 . S
C430 C429 1.398 1_455 S
C430 C431 1.391 . S
C431 H419 0.950 . S
C431 C427 1.393 . S
C431 C430 1.391 . S
C432 H422 0.950 . S
C432 C433 1.386 . S
C432 C434 1.391 . S
C433 C432 1.386 . S
C433 C437 1.393 . S
C434 H423 0.950 . S
C434 C432 1.391 . S
C434 C435 1.400 . S
C435 C429 1.491 . S
C435 C434 1.400 . S
C435 C436 1.398 . S
C436 H424 0.950 . S
C436 C435 1.398 . S
C436 C437 1.391 . S
C437 H425 0.950 . S
C437 C433 1.393 . S
C437 C436 1.391 . S
H438 C446 0.950 . S
H439 C451 0.950 . S
H440 C448 0.950 . S
H441 C450 0.950 . S
H442 C452 0.950 . S
H443 C454 0.950 . S
H444 C456 0.950 1_565 S
H445 C457 0.930 1_565 S
C446 H438 0.950 . S
C446 C447 1.386 . S
C446 C448 1.391 . S
C447 C446 1.386 . S
C447 C451 1.393 . S
C448 H440 0.950 . S
C448 C446 1.391 . S
C448 C449 1.400 . S
C449 C448 1.400 . S
C449 C450 1.398 . S
C449 C455 1.491 . S
C450 H441 0.950 . S
C450 C449 1.398 . S
C450 C451 1.391 . S
C451 H439 0.950 . S
C451 C447 1.393 . S
C451 C450 1.391 . S
C452 H442 0.950 . S
C452 C453 1.386 . S
C452 C454 1.391 . S
C453 C452 1.386 . S
C453 C457 1.403 . S
C454 H443 0.950 . S
C454 C452 1.391 . S
C454 C455 1.400 . S
C455 C449 1.491 . S
C455 C454 1.400 . S
C455 C456 1.398 . S
C456 H444 0.950 1_545 S
C456 C455 1.398 . S
C456 C457 1.401 . S
C457 H445 0.930 1_545 S
C457 C453 1.403 . S
C457 C456 1.401 . S
H458 C466 0.950 . S
H459 C471 0.950 . S
H460 C468 0.950 . S
H461 C470 0.950 . S
H462 C472 0.950 1_565 S
H463 C474 0.950 1_565 S
H464 C476 0.950 . S
H465 C477 0.950 . S
C466 H458 0.950 . S
C466 C467 1.386 . S
C466 C468 1.391 . S
C467 C466 1.386 . S
C467 C471 1.393 . S
C468 H460 0.950 . S
C468 C466 1.391 . S
C468 C469 1.400 . S
C469 C468 1.400 . S
C469 C470 1.398 . S
C469 C475 1.491 . S
C470 H461 0.950 . S
C470 C469 1.398 . S
C470 C471 1.391 . S
C471 H459 0.950 . S
C471 C467 1.393 . S
C471 C470 1.391 . S
C472 H462 0.950 1_545 S
C472 C473 1.386 . S
C472 C474 1.391 . S
C473 C472 1.386 . S
C473 C477 1.393 . S
C474 H463 0.950 1_545 S
C474 C472 1.391 . S
C474 C475 1.400 . S
C475 C469 1.491 . S
C475 C474 1.400 . S
C475 C476 1.398 . S
C476 H464 0.950 . S
C476 C475 1.398 . S
C476 C477 1.391 . S
C477 H465 0.950 . S
C477 C473 1.393 . S
C477 C476 1.391 . S
H478 C486 0.950 . S
H479 C491 0.950 . S
H480 C488 0.950 . S
H481 C490 0.950 . S
H482 C492 0.950 . S
H483 C494 0.950 . S
H484 C496 0.950 . S
H485 C497 0.950 . S
C486 H478 0.950 . S
C486 C487 1.386 . S
C486 C488 1.391 . S
C487 C486 1.386 . S
C487 C491 1.393 . S
C488 H480 0.950 . S
C488 C486 1.391 . S
C488 C489 1.400 . S
C489 C488 1.400 . S
C489 C490 1.398 . S
C489 C495 1.491 . S
C490 H481 0.950 . S
C490 C489 1.398 . S
C490 C491 1.391 . S
C491 H479 0.950 . S
C491 C487 1.393 . S
C491 C490 1.391 . S
C492 H482 0.950 . S
C492 C493 1.386 . S
C492 C494 1.391 . S
C493 C492 1.386 . S
C493 C497 1.393 . S
C494 H483 0.950 . S
C494 C492 1.391 . S
C494 C495 1.400 . S
C495 C489 1.491 . S
C495 C494 1.400 . S
C495 C496 1.398 . S
C496 H484 0.950 . S
C496 C495 1.398 . S
C496 C497 1.391 . S
C497 H485 0.950 . S
C497 C493 1.393 . S
C497 C496 1.391 . S
C207 C117 1.546 . S
C213 N13 1.357 . S
C227 C150 0.714 . S
C233 C18 0.673 . S
C247 N2 0.585 . S
C253 N178 0.607 . S
C267 N68 1.184 . S
C273 C7 1.380 . S
C287 N167 1.245 1_556 S
C293 C51 1.415 1_565 S
C307 N79 0.694 . S
C313 N46 0.621 . S
C327 C40 0.875 . S
C333 C106 0.877 . S
C347 C139 1.379 . S
C353 N35 1.184 . S
C367 C84 1.422 . S
C373 N101 1.203 . S
C387 C73 0.914 . S
C393 C172 0.897 . S
C407 N134 0.591 . S
C413 N112 0.655 . S
C427 C183 1.546 . S
C433 N145 1.346 . S
C447 C54 1.086 . S
C453 C21 1.087 . S
C467 C153 1.078 . S
C473 C87 1.077 . S
C487 C186 1.085 . S
C493 C120 1.083 . S
