# Generated by pormake.
# Topology lcy-e, (6)-cn, num edge types: 1
# Building blocks:
#     Node 0, Type 0, BuildingBlock: BETFEN_clean_sbu_0, # of connection points: 6
#     Node 1, Type 0, BuildingBlock: BETFEN_clean_sbu_0, # of connection points: 6
#     Node 2, Type 0, BuildingBlock: BETFEN_clean_sbu_0, # of connection points: 6
#     Node 3, Type 0, BuildingBlock: BETFEN_clean_sbu_0, # of connection points: 6
#     Node 4, Type 0, BuildingBlock: BETFEN_clean_sbu_0, # of connection points: 6
#     Node 5, Type 0, BuildingBlock: BETFEN_clean_sbu_0, # of connection points: 6
#     Node 6, Type 0, BuildingBlock: BETFEN_clean_sbu_0, # of connection points: 6
#     Node 7, Type 0, BuildingBlock: BETFEN_clean_sbu_0, # of connection points: 6
#     Node 8, Type 0, BuildingBlock: BETFEN_clean_sbu_0, # of connection points: 6
#     Node 9, Type 0, BuildingBlock: BETFEN_clean_sbu_0, # of connection points: 6
#     Node 10, Type 0, BuildingBlock: BETFEN_clean_sbu_0, # of connection points: 6
#     Node 11, Type 0, BuildingBlock: BETFEN_clean_sbu_0, # of connection points: 6
#     Edge 12, Type (0, 0), BuildingBlock: UVAHIK_clean_linker_0, # of connection points: 2
#     Edge 13, Type (0, 0), BuildingBlock: UVAHIK_clean_linker_0, # of connection points: 2
#     Edge 14, Type (0, 0), BuildingBlock: UVAHIK_clean_linker_0, # of connection points: 2
#     Edge 15, Type (0, 0), BuildingBlock: UVAHIK_clean_linker_0, # of connection points: 2
#     Edge 16, Type (0, 0), BuildingBlock: UVAHIK_clean_linker_0, # of connection points: 2
#     Edge 17, Type (0, 0), BuildingBlock: UVAHIK_clean_linker_0, # of connection points: 2
#     Edge 18, Type (0, 0), BuildingBlock: UVAHIK_clean_linker_0, # of connection points: 2
#     Edge 19, Type (0, 0), BuildingBlock: UVAHIK_clean_linker_0, # of connection points: 2
#     Edge 20, Type (0, 0), BuildingBlock: UVAHIK_clean_linker_0, # of connection points: 2
#     Edge 21, Type (0, 0), BuildingBlock: UVAHIK_clean_linker_0, # of connection points: 2
#     Edge 22, Type (0, 0), BuildingBlock: UVAHIK_clean_linker_0, # of connection points: 2
#     Edge 23, Type (0, 0), BuildingBlock: UVAHIK_clean_linker_0, # of connection points: 2
#     Edge 24, Type (0, 0), BuildingBlock: UVAHIK_clean_linker_0, # of connection points: 2
#     Edge 25, Type (0, 0), BuildingBlock: UVAHIK_clean_linker_0, # of connection points: 2
#     Edge 26, Type (0, 0), BuildingBlock: UVAHIK_clean_linker_0, # of connection points: 2
#     Edge 27, Type (0, 0), BuildingBlock: UVAHIK_clean_linker_0, # of connection points: 2
#     Edge 28, Type (0, 0), BuildingBlock: UVAHIK_clean_linker_0, # of connection points: 2
#     Edge 29, Type (0, 0), BuildingBlock: UVAHIK_clean_linker_0, # of connection points: 2
#     Edge 30, Type (0, 0), BuildingBlock: UVAHIK_clean_linker_0, # of connection points: 2
#     Edge 31, Type (0, 0), BuildingBlock: UVAHIK_clean_linker_0, # of connection points: 2
#     Edge 32, Type (0, 0), BuildingBlock: UVAHIK_clean_linker_0, # of connection points: 2
#     Edge 33, Type (0, 0), BuildingBlock: UVAHIK_clean_linker_0, # of connection points: 2
#     Edge 34, Type (0, 0), BuildingBlock: UVAHIK_clean_linker_0, # of connection points: 2
#     Edge 35, Type (0, 0), BuildingBlock: UVAHIK_clean_linker_0, # of connection points: 2
#     Edge 36, Type (0, 0), BuildingBlock: UVAHIK_clean_linker_0, # of connection points: 2
#     Edge 37, Type (0, 0), BuildingBlock: UVAHIK_clean_linker_0, # of connection points: 2
#     Edge 38, Type (0, 0), BuildingBlock: UVAHIK_clean_linker_0, # of connection points: 2
#     Edge 39, Type (0, 0), BuildingBlock: UVAHIK_clean_linker_0, # of connection points: 2
#     Edge 40, Type (0, 0), BuildingBlock: UVAHIK_clean_linker_0, # of connection points: 2
#     Edge 41, Type (0, 0), BuildingBlock: UVAHIK_clean_linker_0, # of connection points: 2
#     Edge 42, Type (0, 0), BuildingBlock: UVAHIK_clean_linker_0, # of connection points: 2
#     Edge 43, Type (0, 0), BuildingBlock: UVAHIK_clean_linker_0, # of connection points: 2
#     Edge 44, Type (0, 0), BuildingBlock: UVAHIK_clean_linker_0, # of connection points: 2
#     Edge 45, Type (0, 0), BuildingBlock: UVAHIK_clean_linker_0, # of connection points: 2
#     Edge 46, Type (0, 0), BuildingBlock: UVAHIK_clean_linker_0, # of connection points: 2
#     Edge 47, Type (0, 0), BuildingBlock: UVAHIK_clean_linker_0, # of connection points: 2
# Relax obj value: 0.213
# Max RMSD: 0.298
# Mean RMSD: 0.286
data_MOF--net-lcy-e--node1-BETFEN_clean_sbu_0--edge1-UVAHIK_clean_linker_0
_symmetry_space_group_name_H-M    P1
_symmetry_Int_Tables_number       1
_symmetry_cell_setting            triclinic
loop_
_symmetry_equiv_pos_as_xyz
'x, y, z'
_cell_length_a     55.301953
_cell_length_b     53.731683
_cell_length_c     56.65733
_cell_angle_alpha  90.170898
_cell_angle_beta   88.61489
_cell_angle_gamma 88.448459
loop_
_atom_site_label
_atom_site_type_symbol
_atom_site_fract_x
_atom_site_fract_y
_atom_site_fract_z
_atom_type_partial_charge
Pr0 Pr 0.12773 0.23713 0.49181 0.0
Pr1 Pr 0.11925 0.27183 0.44484 0.0
C2 C 0.12481 0.21784 0.53561 0.0
C3 C 0.11852 0.19431 0.54727 0.0
C4 C 0.12878 0.17132 0.53982 0.0
C5 C 0.12189 0.14926 0.55085 0.0
C6 C 0.1045 0.14976 0.56943 0.0
C7 C 0.09433 0.17288 0.57678 0.0
C8 C 0.10134 0.19489 0.56587 0.0
C9 C 0.16097 0.22387 0.45529 0.0
C10 C 0.08759 0.21923 0.45317 0.0
C11 C 0.11532 0.28948 0.40052 0.0
C12 C 0.12707 0.30356 0.3811 0.0
C13 C 0.12217 0.3292 0.37854 0.0
C14 C 0.13038 0.34185 0.35847 0.0
C15 C 0.14353 0.32914 0.34036 0.0
C16 C 0.14924 0.3037 0.34336 0.0
C17 C 0.14104 0.29104 0.36345 0.0
C18 C 0.09442 0.28634 0.48637 0.0
C19 C 0.15867 0.28892 0.48216 0.0
O20 O 0.10699 0.23015 0.52589 0.0
O21 O 0.14502 0.21828 0.52313 0.0
O22 O 0.14467 0.24056 0.45524 0.0
O23 O 0.15983 0.21197 0.47522 0.0
O24 O 0.09207 0.23942 0.44056 0.0
O25 O 0.09878 0.2137 0.47299 0.0
O26 O 0.12398 0.26717 0.40531 0.0
O27 O 0.1072 0.30174 0.41925 0.0
O28 O 0.09813 0.26432 0.47912 0.0
O29 O 0.10243 0.30232 0.471 0.0
O30 O 0.14743 0.27495 0.49811 0.0
O31 O 0.15482 0.28692 0.4593 0.0
H32 H 0.14201 0.17035 0.52541 0.0
H33 H 0.13031 0.13185 0.54491 0.0
H34 H 0.08057 0.17399 0.59069 0.0
H35 H 0.09308 0.21241 0.57178 0.0
H36 H 0.11132 0.3394 0.39168 0.0
H37 H 0.12598 0.36153 0.35693 0.0
H38 H 0.15911 0.29326 0.32969 0.0
H39 H 0.14493 0.27123 0.36472 0.0
Pr40 Pr 0.97621 0.89225 0.70485 0.0
Pr41 Pr 0.01974 0.89767 0.73706 0.0
C42 C 0.9343 0.89005 0.68163 0.0
C43 C 0.92491 0.89897 0.65872 0.0
C44 C 0.92115 0.88191 0.64042 0.0
C45 C 0.91257 0.89002 0.61864 0.0
C46 C 0.90733 0.91542 0.61462 0.0
C47 C 0.91099 0.93249 0.633 0.0
C48 C 0.91968 0.92438 0.65477 0.0
C49 C 0.01768 0.86446 0.69101 0.0
C50 C 0.01447 0.93469 0.68986 0.0
C51 C 0.06363 0.89985 0.75672 0.0
C52 C 0.08149 0.88694 0.77187 0.0
C53 C 0.08409 0.89471 0.79535 0.0
C54 C 0.10281 0.88491 0.80897 0.0
C55 C 0.11956 0.86724 0.79939 0.0
C56 C 0.11651 0.8589 0.77611 0.0
C57 C 0.09774 0.86867 0.76249 0.0
C58 C 0.9777 0.92346 0.75234 0.0
C59 C 0.98063 0.85802 0.75374 0.0
O60 O 0.93829 0.9068 0.6978 0.0
O61 O 0.95088 0.87222 0.68078 0.0
O62 O 0.00946 0.86659 0.71188 0.0
O63 O 0.00421 0.87666 0.67629 0.0
O64 O 0.02888 0.92445 0.70556 0.0
O65 O 0.99201 0.92768 0.68758 0.0
O66 O 0.06029 0.89091 0.73556 0.0
O67 O 0.04384 0.90925 0.76673 0.0
O68 O 0.98569 0.92245 0.73127 0.0
O69 O 0.99253 0.91232 0.76657 0.0
O70 O 0.96571 0.86993 0.7394 0.0
O71 O 0.00414 0.86154 0.75262 0.0
H72 H 0.92496 0.86222 0.64292 0.0
H73 H 0.91031 0.87634 0.60485 0.0
H74 H 0.9068 0.95212 0.63074 0.0
H75 H 0.92223 0.93807 0.66849 0.0
H76 H 0.07201 0.9089 0.80305 0.0
H77 H 0.10436 0.89148 0.82695 0.0
H78 H 0.1292 0.84552 0.76805 0.0
H79 H 0.09645 0.86244 0.74437 0.0
Pr80 Pr 0.36476 0.75597 0.96166 0.0
Pr81 Pr 0.35141 0.80161 0.98977 0.0
C82 C 0.3739 0.71108 0.94165 0.0
C83 C 0.36382 0.6977 0.92155 0.0
C84 C 0.37942 0.68865 0.90345 0.0
C85 C 0.37012 0.67808 0.88315 0.0
C86 C 0.34498 0.67618 0.88061 0.0
C87 C 0.3294 0.68476 0.89906 0.0
C88 C 0.33871 0.69552 0.91927 0.0
C89 C 0.3935 0.79673 0.95107 0.0
C90 C 0.32417 0.79233 0.93847 0.0
C91 C 0.34298 0.84828 0.0061 0.0
C92 C 0.35435 0.86739 0.02023 0.0
C93 C 0.34079 0.8887 0.02696 0.0
C94 C 0.35127 0.90737 0.04013 0.0
C95 C 0.37556 0.90501 0.04683 0.0
C96 C 0.38912 0.88349 0.04005 0.0
C97 C 0.37856 0.86478 0.02685 0.0
C98 C 0.32308 0.76076 1.00071 0.0
C99 C 0.38698 0.76278 0.0153 0.0
O100 O 0.35993 0.71429 0.96042 0.0
O101 O 0.38615 0.73078 0.93623 0.0
O102 O 0.38758 0.78998 0.97169 0.0
O103 O 0.38421 0.78261 0.93525 0.0
O104 O 0.33136 0.8088 0.95398 0.0
O105 O 0.33208 0.76901 0.93919 0.0
O106 O 0.35308 0.84329 0.98545 0.0
O107 O 0.33582 0.82848 0.01734 0.0
O108 O 0.32918 0.76748 0.98019 0.0
O109 O 0.33049 0.77616 0.0165 0.0
O110 O 0.37931 0.74686 0.99952 0.0
O111 O 0.38276 0.78688 0.01302 0.0
H112 H 0.39882 0.69037 0.90475 0.0
H113 H 0.38266 0.67205 0.86918 0.0
H114 H 0.30999 0.68325 0.89787 0.0
H115 H 0.32621 0.7025 0.93288 0.0
H116 H 0.32209 0.891 0.02188 0.0
H117 H 0.34045 0.92385 0.04473 0.0
H118 H 0.40778 0.88101 0.04512 0.0
H119 H 0.38925 0.84834 0.02178 0.0
Pr120 Pr 0.50996 0.14565 0.19911 0.0
Pr121 Pr 0.46451 0.13943 0.23184 0.0
C122 C 0.55294 0.14912 0.17587 0.0
C123 C 0.564 0.14193 0.15268 0.0
C124 C 0.57468 0.16015 0.13848 0.0
C125 C 0.58555 0.1538 0.11664 0.0
C126 C 0.58614 0.12899 0.10852 0.0
C127 C 0.57523 0.11077 0.12273 0.0
C128 C 0.56424 0.11717 0.14453 0.0
C129 C 0.47036 0.17708 0.18991 0.0
C130 C 0.47022 0.1067 0.18109 0.0
C131 C 0.41927 0.13866 0.25072 0.0
C132 C 0.40103 0.15139 0.26646 0.0
C133 C 0.40349 0.15171 0.2911 0.0
C134 C 0.3846 0.16093 0.30583 0.0
C135 C 0.36283 0.17 0.29627 0.0
C136 C 0.3608 0.17053 0.27158 0.0
C137 C 0.37965 0.16126 0.25687 0.0
C138 C 0.5038 0.10836 0.24243 0.0
C139 C 0.50627 0.17343 0.25198 0.0
O140 O 0.54804 0.13127 0.19073 0.0
O141 O 0.5363 0.16687 0.1759 0.0
O142 O 0.47812 0.17202 0.21008 0.0
O143 O 0.48339 0.1661 0.17336 0.0
O144 O 0.45577 0.11595 0.19807 0.0
O145 O 0.49301 0.11309 0.17876 0.0
O146 O 0.42437 0.14893 0.23033 0.0
O147 O 0.43794 0.12747 0.26026 0.0
O148 O 0.49686 0.11344 0.2219 0.0
O149 O 0.48905 0.11788 0.25848 0.0
O150 O 0.5207 0.16227 0.23596 0.0
O151 O 0.48254 0.17181 0.25138 0.0
H152 H 0.57465 0.17938 0.1443 0.0
H153 H 0.59336 0.16843 0.10606 0.0
H154 H 0.57556 0.09144 0.11725 0.0
H155 H 0.55609 0.10267 0.15504 0.0
H156 H 0.41971 0.14423 0.29909 0.0
H157 H 0.38689 0.16057 0.32476 0.0
H158 H 0.34422 0.17711 0.2636 0.0
H159 H 0.37716 0.16102 0.23796 0.0
Pr160 Pr 0.62719 0.26522 0.51957 0.0
Pr161 Pr 0.63295 0.31067 0.48725 0.0
C162 C 0.62315 0.22092 0.54152 0.0
C163 C 0.62664 0.21095 0.56536 0.0
C164 C 0.63396 0.22641 0.58371 0.0
C165 C 0.63798 0.21658 0.60616 0.0
C166 C 0.63478 0.19109 0.61065 0.0
C167 C 0.62721 0.17578 0.59217 0.0
C168 C 0.6232 0.18564 0.56973 0.0
C169 C 0.59709 0.30616 0.53145 0.0
C170 C 0.66602 0.306 0.53634 0.0
C171 C 0.63352 0.35657 0.46804 0.0
C172 C 0.62011 0.3746 0.45316 0.0
C173 C 0.61698 0.37028 0.42895 0.0
C174 C 0.60659 0.38876 0.41474 0.0
C175 C 0.59907 0.41195 0.42439 0.0
C176 C 0.60151 0.4159 0.44876 0.0
C177 C 0.61198 0.39747 0.46294 0.0
C178 C 0.66198 0.26929 0.47418 0.0
C179 C 0.59917 0.26817 0.46826 0.0
O180 O 0.64273 0.22762 0.53013 0.0
O181 O 0.60495 0.23664 0.53904 0.0
O182 O 0.6013 0.29819 0.51076 0.0
O183 O 0.60838 0.29272 0.54693 0.0
O184 O 0.65758 0.32017 0.51918 0.0
O185 O 0.6587 0.28308 0.53964 0.0
O186 O 0.62477 0.35224 0.48928 0.0
O187 O 0.6436 0.33685 0.45786 0.0
O188 O 0.65815 0.277 0.49504 0.0
O189 O 0.65212 0.28432 0.459 0.0
O190 O 0.61101 0.25354 0.48305 0.0
O191 O 0.60032 0.29258 0.46967 0.0
H192 H 0.63669 0.24604 0.5806 0.0
H193 H 0.64351 0.22896 0.62003 0.0
H194 H 0.6249 0.15603 0.59489 0.0
H195 H 0.61767 0.17343 0.55572 0.0
H196 H 0.62303 0.35286 0.42084 0.0
H197 H 0.60468 0.38497 0.3961 0.0
H198 H 0.59618 0.43362 0.45674 0.0
H199 H 0.61436 0.40139 0.4815 0.0
Pr200 Pr 0.96719 0.39916 0.72745 0.0
Pr201 Pr 1.00147 0.38042 0.76497 0.0
C202 C 0.94161 0.41101 0.68907 0.0
C203 C 0.91778 0.40445 0.68 0.0
C204 C 0.90313 0.42259 0.66922 0.0
C205 C 0.88091 0.41626 0.65981 0.0
C206 C 0.87296 0.39157 0.66086 0.0
C207 C 0.88761 0.37355 0.67206 0.0
C208 C 0.90965 0.37995 0.68164 0.0
C209 C 0.95353 0.41449 0.77339 0.0
C210 C 0.95302 0.34945 0.75683 0.0
C211 C 0.03022 0.37159 0.80194 0.0
C212 C 0.04232 0.38445 0.82126 0.0
C213 C 0.06585 0.37685 0.8271 0.0
C214 C 0.07701 0.38722 0.84657 0.0
C215 C 0.0648 0.40535 0.86072 0.0
C216 C 0.04145 0.41352 0.85434 0.0
C217 C 0.03032 0.40319 0.83479 0.0
C218 C 0.00814 0.35771 0.7203 0.0
C219 C 0.01594 0.43192 0.73714 0.0
O220 O 0.95796 0.39293 0.68944 0.0
O221 O 0.94168 0.42531 0.70783 0.0
O222 O 0.9748 0.41399 0.76488 0.0
O223 O 0.93842 0.40666 0.75801 0.0
O224 O 0.96659 0.35847 0.77341 0.0
O225 O 0.95364 0.35891 0.73537 0.0
O226 O 0.00657 0.37084 0.80326 0.0
O227 O 0.03875 0.37474 0.78044 0.0
O228 O 0.00456 0.38039 0.72456 0.0
O229 O 0.00886 0.34519 0.73985 0.0
O230 O 0.99829 0.42777 0.72238 0.0
O231 O 0.01909 0.41824 0.75616 0.0
H232 H 0.90895 0.44164 0.66792 0.0
H233 H 0.86997 0.43076 0.65173 0.0
H234 H 0.88239 0.3543 0.67295 0.0
H235 H 0.92052 0.36557 0.69003 0.0
H236 H 0.07547 0.36251 0.81685 0.0
H237 H 0.09518 0.38083 0.85064 0.0
H238 H 0.03143 0.4273 0.8649 0.0
H239 H 0.01215 0.40945 0.83061 0.0
Pr240 Pr 0.86028 0.76592 0.02448 0.0
Pr241 Pr 0.85397 0.71705 0.99611 0.0
C242 C 0.86339 0.81132 0.04451 0.0
C243 C 0.85739 0.82198 0.06798 0.0
C244 C 0.8615 0.84712 0.07255 0.0
C245 C 0.85542 0.85748 0.09469 0.0
C246 C 0.84511 0.84286 0.11271 0.0
C247 C 0.84128 0.81753 0.10807 0.0
C248 C 0.84733 0.8072 0.0859 0.0
C249 C 0.88863 0.72518 0.03877 0.0
C250 C 0.82076 0.72766 0.0456 0.0
C251 C 0.85166 0.66947 0.98109 0.0
C252 C 0.86047 0.65077 0.96367 0.0
C253 C 0.84682 0.62954 0.96027 0.0
C254 C 0.85504 0.61077 0.94472 0.0
C255 C 0.87715 0.61284 0.93214 0.0
C256 C 0.89074 0.63435 0.93545 0.0
C257 C 0.88245 0.65318 0.95109 0.0
C258 C 0.82704 0.75792 0.98031 0.0
C259 C 0.88862 0.75753 0.97189 0.0
O260 O 0.84503 0.80475 0.03199 0.0
O261 O 0.88143 0.79508 0.04348 0.0
O262 O 0.88506 0.7314 0.01771 0.0
O263 O 0.87762 0.74045 0.05352 0.0
O264 O 0.83047 0.71102 0.03072 0.0
O265 O 0.82715 0.75108 0.04534 0.0
O266 O 0.86691 0.67681 0.99683 0.0
O267 O 0.83709 0.68727 0.97383 0.0
O268 O 0.82983 0.75216 1.00168 0.0
O269 O 0.837 0.74129 0.96615 0.0
O270 O 0.87875 0.77374 0.98725 0.0
O271 O 0.88547 0.73336 0.97395 0.0
H272 H 0.86933 0.85878 0.05897 0.0
H273 H 0.85893 0.87695 0.09773 0.0
H274 H 0.83314 0.8058 0.1214 0.0
H275 H 0.84399 0.78773 0.08266 0.0
H276 H 0.82988 0.62729 0.96995 0.0
H277 H 0.84428 0.59435 0.94298 0.0
H278 H 0.9077 0.63669 0.92588 0.0
H279 H 0.89324 0.66949 0.95349 0.0
Pr280 Pr 0.51038 0.64311 0.23263 0.0
Pr281 Pr 0.48069 0.65265 0.28243 0.0
C282 C 0.5267 0.64713 0.18779 0.0
C283 C 0.55042 0.65043 0.17607 0.0
C284 C 0.57097 0.63654 0.1829 0.0
C285 C 0.59374 0.64162 0.17311 0.0
C286 C 0.59636 0.66089 0.15661 0.0
C287 C 0.5757 0.67442 0.1495 0.0
C288 C 0.55292 0.66917 0.1591 0.0
C289 C 0.52609 0.60898 0.26685 0.0
C290 C 0.53207 0.68366 0.27009 0.0
C291 C 0.46704 0.65819 0.32812 0.0
C292 C 0.45273 0.64777 0.34794 0.0
C293 C 0.43044 0.65906 0.35479 0.0
C294 C 0.41813 0.65133 0.37518 0.0
C295 C 0.42794 0.63228 0.38931 0.0
C296 C 0.44992 0.62052 0.38207 0.0
C297 C 0.4622 0.6282 0.36164 0.0
C298 C 0.4639 0.67776 0.24296 0.0
C299 C 0.4595 0.61305 0.24563 0.0
O300 O 0.51844 0.66618 0.20028 0.0
O301 O 0.52286 0.62564 0.1979 0.0
O302 O 0.51003 0.62586 0.26909 0.0
O303 O 0.53576 0.60988 0.24572 0.0
O304 O 0.51301 0.68014 0.28423 0.0
O305 O 0.53578 0.67147 0.24995 0.0
O306 O 0.48676 0.64599 0.32112 0.0
O307 O 0.45542 0.66895 0.31087 0.0
O308 O 0.4857 0.67414 0.24822 0.0
O309 O 0.44932 0.66926 0.25925 0.0
O310 O 0.47283 0.62389 0.22898 0.0
O311 O 0.46249 0.6172 0.26842 0.0
H312 H 0.56956 0.62218 0.19621 0.0
H313 H 0.6094 0.63106 0.17905 0.0
H314 H 0.5772 0.6892 0.13662 0.0
H315 H 0.53731 0.68016 0.15369 0.0
H316 H 0.42279 0.67433 0.34472 0.0
H317 H 0.40105 0.66051 0.38005 0.0
H318 H 0.45814 0.606 0.39267 0.0
H319 H 0.47947 0.61927 0.35702 0.0
Pr320 Pr 0.20194 0.52218 0.11289 0.0
Pr321 Pr 0.23755 0.47503 0.09841 0.0
C322 C 0.17975 0.56721 0.11243 0.0
C323 C 0.15524 0.5778 0.1089 0.0
C324 C 0.13501 0.56933 0.12172 0.0
C325 C 0.11181 0.57881 0.11698 0.0
C326 C 0.10846 0.59665 0.09918 0.0
C327 C 0.12877 0.60527 0.08662 0.0
C328 C 0.15193 0.596 0.0915 0.0
C329 C 0.18758 0.4795 0.13733 0.0
C330 C 0.18784 0.48373 0.06857 0.0
C331 C 0.26588 0.43366 0.09501 0.0
C332 C 0.2803 0.41555 0.10869 0.0
C333 C 0.30475 0.41138 0.10242 0.0
C334 C 0.31843 0.39288 0.11359 0.0
C335 C 0.30787 0.37804 0.13122 0.0
C336 C 0.28349 0.3826 0.1379 0.0
C337 C 0.26982 0.40125 0.12678 0.0
C338 C 0.24418 0.51989 0.07445 0.0
C339 C 0.25084 0.51069 0.14418 0.0
O340 O 0.19043 0.55708 0.0937 0.0
O341 O 0.18363 0.55482 0.132 0.0
O342 O 0.20465 0.48118 0.12244 0.0
O343 O 0.17614 0.50089 0.13943 0.0
O344 O 0.2044 0.46727 0.07538 0.0
O345 O 0.18529 0.50622 0.07816 0.0
O346 O 0.24224 0.43322 0.09734 0.0
O347 O 0.2743 0.4561 0.09265 0.0
O348 O 0.23953 0.51716 0.09604 0.0
O349 O 0.24684 0.49839 0.06393 0.0
O350 O 0.23514 0.528 0.13703 0.0
O351 O 0.25222 0.48806 0.1348 0.0
H352 H 0.13703 0.55514 0.13512 0.0
H353 H 0.09644 0.57174 0.12682 0.0
H354 H 0.12676 0.61925 0.07302 0.0
H355 H 0.16727 0.60281 0.08143 0.0
H356 H 0.31316 0.42205 0.0884 0.0
H357 H 0.33706 0.38961 0.10782 0.0
H358 H 0.27494 0.37162 0.15159 0.0
H359 H 0.25099 0.4041 0.13205 0.0
Pr360 Pr 0.74762 0.04413 0.85578 0.0
Pr361 Pr 0.69678 0.01339 0.85806 0.0
C362 C 0.7914 0.06057 0.84227 0.0
C363 C 0.80323 0.08403 0.83614 0.0
C364 C 0.79805 0.10618 0.84871 0.0
C365 C 0.80909 0.12831 0.84201 0.0
C366 C 0.82539 0.12876 0.82252 0.0
C367 C 0.83039 0.10647 0.81 0.0
C368 C 0.81946 0.08437 0.81678 0.0
C369 C 0.71647 0.06292 0.89203 0.0
C370 C 0.70176 0.06506 0.82412 0.0
C371 C 0.65085 0.99814 0.86252 0.0
C372 C 0.63386 0.97858 0.86949 0.0
C373 C 0.61378 0.97467 0.85546 0.0
C374 C 0.59581 0.95838 0.86273 0.0
C375 C 0.59749 0.94555 0.88428 0.0
C376 C 0.61802 0.94901 0.89806 0.0
C377 C 0.63603 0.96539 0.89075 0.0
C378 C 0.73476 0.99349 0.82997 0.0
C379 C 0.74223 0.99275 0.88877 0.0
O380 O 0.77547 0.0529 0.82737 0.0
O381 O 0.78505 0.05701 0.86443 0.0
O382 O 0.71269 0.04557 0.87776 0.0
O383 O 0.73751 0.07216 0.88718 0.0
O384 O 0.68813 0.04704 0.83262 0.0
O385 O 0.72445 0.06797 0.83018 0.0
O386 O 0.66203 0.00976 0.87925 0.0
O387 O 0.66384 0.99512 0.84301 0.0
O388 O 0.72883 0.01617 0.83234 0.0
O389 O 0.71965 0.97952 0.84154 0.0
O390 O 0.75666 0.00643 0.8753 0.0
O391 O 0.71833 0.99537 0.88879 0.0
H392 H 0.78542 0.1064 0.86364 0.0
H393 H 0.805 0.14502 0.85224 0.0
H394 H 0.84247 0.10614 0.79466 0.0
H395 H 0.82352 0.06753 0.80671 0.0
H396 H 0.6116 0.98485 0.83912 0.0
H397 H 0.58015 0.95655 0.8518 0.0
H398 H 0.62009 0.9392 0.91459 0.0
H399 H 0.65137 0.96809 0.90192 0.0
Pr400 Pr 0.78274 0.02751 0.35107 0.0
Pr401 Pr 0.75206 0.98383 0.36392 0.0
C402 C 0.80883 0.06918 0.34931 0.0
C403 C 0.83091 0.07897 0.35929 0.0
C404 C 0.84738 0.06334 0.37104 0.0
C405 C 0.86874 0.07289 0.37973 0.0
C406 C 0.87391 0.09822 0.37679 0.0
C407 C 0.85702 0.11382 0.3654 0.0
C408 C 0.83575 0.10425 0.35671 0.0
C409 C 0.78896 0.98832 0.31925 0.0
C410 C 0.80004 0.98921 0.39484 0.0
C411 C 0.7244 0.94327 0.36713 0.0
C412 C 0.70932 0.9258 0.35407 0.0
C413 C 0.68402 0.92722 0.35695 0.0
C414 C 0.66966 0.90892 0.34734 0.0
C415 C 0.68028 0.88864 0.3348 0.0
C416 C 0.70554 0.88772 0.33117 0.0
C417 C 0.71991 0.90606 0.34074 0.0
C418 C 0.74267 0.02734 0.39077 0.0
C419 C 0.73335 0.02117 0.32203 0.0
O420 O 0.79052 0.06635 0.364 0.0
O421 O 0.8118 0.05082 0.33425 0.0
O422 O 0.78753 0.98539 0.3415 0.0
O423 O 0.78842 0.01164 0.31339 0.0
O424 O 0.78385 0.97352 0.38791 0.0
O425 O 0.80198 0.01138 0.38499 0.0
O426 O 0.74783 0.94213 0.36334 0.0
O427 O 0.71592 0.96593 0.37084 0.0
O428 O 0.74572 0.02586 0.36886 0.0
O429 O 0.74417 0.0054 0.4003 0.0
O430 O 0.74729 0.03814 0.33117 0.0
O431 O 0.73553 0.99763 0.32842 0.0
H432 H 0.84386 0.04373 0.37322 0.0
H433 H 0.88142 0.06034 0.38827 0.0
H434 H 0.8602 0.13349 0.36324 0.0
H435 H 0.82312 0.1166 0.34783 0.0
H436 H 0.67533 0.94209 0.36725 0.0
H437 H 0.65023 0.91042 0.35015 0.0
H438 H 0.71435 0.87224 0.32181 0.0
H439 H 0.73937 0.90427 0.33834 0.0
Pr440 Pr 0.24491 0.55888 0.61289 0.0
Pr441 Pr 0.28629 0.52281 0.62864 0.0
C442 C 0.20386 0.58436 0.6027 0.0
C443 C 0.19341 0.60946 0.60706 0.0
C444 C 0.17162 0.61666 0.59661 0.0
C445 C 0.16035 0.63959 0.60236 0.0
C446 C 0.17065 0.65568 0.61877 0.0
C447 C 0.19285 0.64858 0.62874 0.0
C448 C 0.20414 0.62568 0.62292 0.0
C449 C 0.29124 0.57168 0.59692 0.0
C450 C 0.27569 0.57317 0.65913 0.0
C451 C 0.32617 0.49424 0.63586 0.0
C452 C 0.34706 0.48091 0.6246 0.0
C453 C 0.36958 0.4822 0.63527 0.0
C454 C 0.38971 0.46912 0.62583 0.0
C455 C 0.38778 0.45431 0.60548 0.0
C456 C 0.36524 0.45344 0.59447 0.0
C457 C 0.34501 0.46662 0.60396 0.0
C458 C 0.24171 0.51831 0.65272 0.0
C459 C 0.25587 0.50671 0.58201 0.0
O460 O 0.20625 0.57049 0.62149 0.0
O461 O 0.22244 0.58247 0.58795 0.0
O462 O 0.28323 0.54999 0.59764 0.0
O463 O 0.27491 0.58788 0.60439 0.0
O464 O 0.29313 0.55917 0.64939 0.0
O465 O 0.2536 0.57333 0.6508 0.0
O466 O 0.3263 0.51861 0.63552 0.0
O467 O 0.30462 0.48508 0.63356 0.0
O468 O 0.24514 0.52129 0.63103 0.0
O469 O 0.26218 0.51628 0.66338 0.0
O470 O 0.24018 0.52517 0.58695 0.0
O471 O 0.27619 0.50364 0.59353 0.0
H472 H 0.16301 0.60428 0.58446 0.0
H473 H 0.14315 0.64432 0.59456 0.0
H474 H 0.20143 0.66065 0.64119 0.0
H475 H 0.22097 0.62039 0.63119 0.0
H476 H 0.37156 0.49323 0.65112 0.0
H477 H 0.40685 0.47067 0.63449 0.0
H478 H 0.3631 0.44212 0.57884 0.0
H479 H 0.32779 0.46545 0.59536 0.0
C480 C 0.184 0.32593 0.47373 0.0
C481 C 0.17382 0.30944 0.49021 0.0
C482 C 0.19575 0.34709 0.48127 0.0
C483 C 0.22432 0.37571 0.53238 0.0
H484 H 0.20553 0.43806 0.50267 0.0
C485 C 0.26617 0.46751 0.55968 0.0
C486 C 0.24945 0.487 0.56515 0.0
C487 C 0.25901 0.44652 0.5474 0.0
C488 C 0.21097 0.42079 0.51109 0.0
H489 H 0.16898 0.30178 0.52759 0.0
H490 H 0.18961 0.3387 0.54072 0.0
H491 H 0.18959 0.39902 0.48823 0.0
H492 H 0.21251 0.50042 0.56058 0.0
H493 H 0.20003 0.4637 0.53907 0.0
H494 H 0.24516 0.39748 0.55565 0.0
C495 C 0.18849 0.33518 0.52195 0.0
C496 C 0.20203 0.39843 0.50272 0.0
C497 C 0.17661 0.31405 0.51442 0.0
C498 C 0.22584 0.48576 0.55666 0.0
C499 C 0.21869 0.46472 0.54431 0.0
C500 C 0.23337 0.39803 0.54065 0.0
C501 C 0.19774 0.35218 0.50545 0.0
C502 C 0.20841 0.37569 0.51344 0.0
C503 C 0.23501 0.44455 0.54024 0.0
C504 C 0.22661 0.42084 0.53025 0.0
H505 H 0.18231 0.32293 0.45493 0.0
H506 H 0.20303 0.35966 0.46815 0.0
H507 H 0.22967 0.35847 0.54089 0.0
H508 H 0.28459 0.46794 0.56571 0.0
H509 H 0.27211 0.43148 0.54409 0.0
C510 C 0.76972 0.96283 0.82823 0.0
C511 C 0.75842 0.98472 0.81995 0.0
C512 C 0.79311 0.95587 0.82023 0.0
C513 C 0.83701 0.96222 0.77144 0.0
H514 H 0.88556 0.95007 0.81852 0.0
C515 C 0.93857 0.94687 0.74531 0.0
C516 C 0.95263 0.931 0.75942 0.0
C517 C 0.91474 0.95357 0.75225 0.0
C518 C 0.87225 0.95289 0.80503 0.0
H519 H 0.76215 0.01592 0.79617 0.0
H520 H 0.80278 0.00337 0.78166 0.0
H521 H 0.844 0.96005 0.83096 0.0
H522 H 0.95259 0.90894 0.79136 0.0
H523 H 0.91105 0.91955 0.80291 0.0
H524 H 0.86486 0.95429 0.74544 0.0
C525 C 0.79371 0.9918 0.79455 0.0
C526 C 0.8484 0.95876 0.81225 0.0
C527 C 0.77054 0.99903 0.80292 0.0
C528 C 0.94233 0.92161 0.78033 0.0
C529 C 0.91845 0.92786 0.78703 0.0
C530 C 0.86079 0.95585 0.76417 0.0
C531 C 0.80537 0.97035 0.80338 0.0
C532 C 0.83054 0.96354 0.79555 0.0
C533 C 0.90428 0.94414 0.77325 0.0
C534 C 0.87883 0.95112 0.78086 0.0
H535 H 0.7608 0.95153 0.84145 0.0
H536 H 0.80165 0.93918 0.82726 0.0
H537 H 0.82354 0.9657 0.75819 0.0
H538 H 0.94609 0.95433 0.72905 0.0
H539 H 0.90469 0.96641 0.74126 0.0
C540 C 0.30745 0.71943 0.98843 0.0
C541 C 0.31223 0.7366 0.00636 0.0
C542 C 0.29927 0.69568 0.99407 0.0
C543 C 0.29734 0.65139 0.04431 0.0
H544 H 0.25091 0.61701 0.00667 0.0
C545 C 0.24949 0.56544 0.07877 0.0
C546 C 0.24976 0.54433 0.06405 0.0
C547 C 0.25649 0.58842 0.07001 0.0
C548 C 0.26406 0.62634 0.01718 0.0
H549 H 0.31116 0.7429 0.04415 0.0
H550 H 0.29608 0.702 0.05402 0.0
H551 H 0.26383 0.65853 0.99491 0.0
H552 H 0.25667 0.53091 0.02838 0.0
H553 H 0.26876 0.57159 0.01282 0.0
H554 H 0.29711 0.61955 0.06687 0.0
C555 C 0.29939 0.7064 0.0356 0.0
C556 C 0.27151 0.65009 0.01046 0.0
C557 C 0.3078 0.72998 0.02996 0.0
C558 C 0.25637 0.54689 0.0401 0.0
C559 C 0.2632 0.57011 0.03122 0.0
C560 C 0.28972 0.62788 0.05111 0.0
C561 C 0.29546 0.68873 0.01779 0.0
C562 C 0.28802 0.66306 0.02415 0.0
C563 C 0.26379 0.59096 0.04626 0.0
C564 C 0.2728 0.61522 0.03782 0.0
H565 H 0.31057 0.72415 0.97006 0.0
H566 H 0.29659 0.68258 0.97988 0.0
H567 H 0.3106 0.6604 0.05492 0.0
H568 H 0.24435 0.56414 0.09729 0.0
H569 H 0.2564 0.60424 0.08192 0.0
C570 C 0.5433 0.08805 0.2296 0.0
C571 C 0.52745 0.09662 0.24779 0.0
C572 C 0.56645 0.07874 0.2348 0.0
C573 C 0.60126 0.04977 0.28178 0.0
H574 H 0.65789 0.07695 0.25056 0.0
C575 C 0.70796 0.05398 0.30205 0.0
C576 C 0.71284 0.02875 0.30708 0.0
C577 C 0.68644 0.06128 0.29117 0.0
C578 C 0.64221 0.06916 0.25932 0.0
H579 H 0.523 0.10149 0.28566 0.0
H580 H 0.5631 0.08458 0.29476 0.0
H581 H 0.61728 0.09113 0.23902 0.0
H582 H 0.69964 0.99127 0.30319 0.0
H583 H 0.6622 0.00409 0.28447 0.0
H584 H 0.62596 0.028 0.30221 0.0
C585 C 0.55775 0.08531 0.2765 0.0
C586 C 0.61905 0.07713 0.25264 0.0
C587 C 0.53482 0.09497 0.27128 0.0
C588 C 0.69642 0.0109 0.29978 0.0
C589 C 0.67489 0.0182 0.28912 0.0
C590 C 0.62433 0.04156 0.28819 0.0
C591 C 0.57387 0.07733 0.25831 0.0
C592 C 0.59838 0.06773 0.26406 0.0
C593 C 0.66937 0.0435 0.2853 0.0
C594 C 0.64504 0.05134 0.27721 0.0
H595 H 0.5379 0.08874 0.21137 0.0
H596 H 0.57847 0.07245 0.22049 0.0
H597 H 0.58562 0.04216 0.29078 0.0
H598 H 0.72023 0.0682 0.3074 0.0
H599 H 0.68259 0.08093 0.28848 0.0
C600 C 0.67082 0.23562 0.44454 0.0
C601 C 0.67189 0.24419 0.4679 0.0
C602 C 0.67839 0.21133 0.43862 0.0
C603 C 0.7144 0.15645 0.45935 0.0
H604 H 0.67807 0.12279 0.41167 0.0
C605 C 0.7327 0.05303 0.4274 0.0
C606 C 0.73472 0.05084 0.40269 0.0
C607 C 0.72479 0.07569 0.43788 0.0
C608 C 0.68839 0.13193 0.42504 0.0
H609 H 0.68256 0.23436 0.50326 0.0
H610 H 0.69529 0.19158 0.49309 0.0
H611 H 0.66482 0.16407 0.42516 0.0
H612 H 0.73027 0.07066 0.36968 0.0
H613 H 0.71623 0.10955 0.38781 0.0
H614 H 0.73792 0.12389 0.45907 0.0
C615 C 0.68876 0.2037 0.47926 0.0
C616 C 0.68092 0.15571 0.43267 0.0
C617 C 0.68129 0.22814 0.48515 0.0
C618 C 0.72883 0.07164 0.38876 0.0
C619 C 0.72067 0.09395 0.39913 0.0
C620 C 0.72177 0.13244 0.45182 0.0
C621 C 0.6871 0.19486 0.45594 0.0
C622 C 0.69414 0.16861 0.44948 0.0
C623 C 0.71839 0.09626 0.42377 0.0
C624 C 0.70915 0.12022 0.43417 0.0
H625 H 0.66376 0.24757 0.43081 0.0
H626 H 0.67739 0.20549 0.42037 0.0
H627 H 0.72511 0.16581 0.47225 0.0
H628 H 0.73722 0.03733 0.43854 0.0
H629 H 0.72321 0.077 0.45694 0.0
C630 C 0.05344 0.45452 0.74667 0.0
C631 C 0.03472 0.45009 0.73094 0.0
C632 C 0.07391 0.46731 0.73929 0.0
C633 C 0.10863 0.47753 0.68463 0.0
H634 H 0.14779 0.51889 0.72394 0.0
C635 C 0.1972 0.51665 0.64887 0.0
C636 C 0.21741 0.51498 0.66338 0.0
C637 C 0.17409 0.51234 0.65796 0.0
C638 C 0.1371 0.50722 0.71285 0.0
H639 H 0.02189 0.45758 0.69572 0.0
H640 H 0.05748 0.4803 0.68295 0.0
H641 H 0.10763 0.50679 0.73814 0.0
H642 H 0.22928 0.50811 0.69896 0.0
H643 H 0.18857 0.50001 0.71499 0.0
H644 H 0.13807 0.47743 0.65958 0.0
C645 C 0.05654 0.47333 0.70086 0.0
C646 C 0.11409 0.50037 0.72093 0.0
C647 C 0.03604 0.4605 0.70824 0.0
C648 C 0.21398 0.50947 0.68741 0.0
C649 C 0.1907 0.505 0.69657 0.0
C650 C 0.13153 0.48436 0.6766 0.0
C651 C 0.07612 0.47602 0.71601 0.0
C652 C 0.09964 0.48533 0.70693 0.0
C653 C 0.17057 0.50599 0.68179 0.0
C654 C 0.14609 0.49921 0.6906 0.0
H655 H 0.05295 0.44694 0.76437 0.0
H656 H 0.08863 0.46895 0.75141 0.0
H657 H 0.09832 0.46541 0.67364 0.0
H658 H 0.19924 0.5209 0.63026 0.0
H659 H 0.15897 0.51373 0.6462 0.0
C660 C 0.73995 0.96012 0.92031 0.0
C661 C 0.75299 0.97156 0.90188 0.0
C662 C 0.74898 0.93831 0.93076 0.0
C663 C 0.78399 0.883 0.9158 0.0
H664 H 0.79234 0.87308 0.98288 0.0
C665 C 0.82622 0.79166 0.95032 0.0
C666 C 0.81842 0.78264 0.97234 0.0
C667 C 0.81885 0.81533 0.9428 0.0
C668 C 0.78973 0.87532 0.96413 0.0
H669 H 0.78602 0.96939 0.8804 0.0
H670 H 0.80135 0.93095 0.89821 0.0
H671 H 0.77831 0.91366 0.96842 0.0
H672 H 0.79689 0.79114 1.00387 0.0
H673 H 0.78276 0.83201 0.99026 0.0
H674 H 0.79413 0.8447 0.91125 0.0
C675 C 0.78431 0.93907 0.9047 0.0
C676 C 0.78187 0.89866 0.95589 0.0
C677 C 0.77556 0.96114 0.89461 0.0
C678 C 0.80307 0.7977 0.98675 0.0
C679 C 0.79521 0.82123 0.979 0.0
C680 C 0.79132 0.85958 0.92402 0.0
C681 C 0.77095 0.92729 0.92262 0.0
C682 C 0.77916 0.90272 0.93163 0.0
C683 C 0.80298 0.8304 0.95687 0.0
C684 C 0.79455 0.8554 0.9483 0.0
H685 H 0.72252 0.96773 0.92631 0.0
H686 H 0.73833 0.92949 0.9445 0.0
H687 H 0.78165 0.88559 0.89702 0.0
H688 H 0.83848 0.78061 0.93905 0.0
H689 H 0.82589 0.82185 0.926 0.0
C690 C 0.42175 0.58966 0.25505 0.0
C691 C 0.43903 0.59776 0.23833 0.0
C692 C 0.40123 0.5773 0.24783 0.0
C693 C 0.37614 0.54288 0.19779 0.0
H694 H 0.31392 0.56568 0.22394 0.0
C695 C 0.27097 0.54241 0.1691 0.0
C696 C 0.26959 0.5177 0.16108 0.0
C697 C 0.29077 0.54989 0.18201 0.0
C698 C 0.33116 0.55909 0.2165 0.0
H699 H 0.44856 0.59849 0.20095 0.0
H700 H 0.41289 0.57695 0.18845 0.0
H701 H 0.35106 0.58266 0.23911 0.0
H702 H 0.28727 0.48113 0.16172 0.0
H703 H 0.32163 0.49419 0.18434 0.0
H704 H 0.35631 0.51995 0.17465 0.0
C705 C 0.41525 0.58004 0.20714 0.0
C706 C 0.35244 0.56863 0.22534 0.0
C707 C 0.43567 0.59251 0.21433 0.0
C708 C 0.28779 0.50036 0.16742 0.0
C709 C 0.3076 0.50786 0.18028 0.0
C710 C 0.3549 0.53326 0.18904 0.0
C711 C 0.39762 0.5726 0.22377 0.0
C712 C 0.37515 0.56092 0.21581 0.0
C713 C 0.30964 0.53285 0.18717 0.0
C714 C 0.33214 0.54151 0.19806 0.0
H715 H 0.42373 0.59339 0.27369 0.0
H716 H 0.38809 0.57157 0.26107 0.0
H717 H 0.39336 0.53639 0.19023 0.0
H718 H 0.2573 0.55628 0.16458 0.0
H719 H 0.29186 0.56931 0.18692 0.0
C720 C 0.50349 0.20375 0.28559 0.0
C721 C 0.5169 0.18566 0.27251 0.0
C722 C 0.51254 0.21344 0.30644 0.0
C723 C 0.55041 0.19637 0.35521 0.0
H724 H 0.55407 0.26716 0.3674 0.0
C725 C 0.5956 0.23433 0.43836 0.0
C726 C 0.58717 0.2572 0.44785 0.0
C727 C 0.58644 0.22542 0.41725 0.0
C728 C 0.55275 0.24732 0.36456 0.0
H729 H 0.55035 0.16363 0.27086 0.0
H730 H 0.56591 0.18022 0.30762 0.0
H731 H 0.53965 0.25272 0.32955 0.0
H732 H 0.56186 0.28818 0.44339 0.0
H733 H 0.54487 0.27208 0.40731 0.0
H734 H 0.56256 0.19073 0.39034 0.0
C735 C 0.54854 0.18705 0.30154 0.0
C736 C 0.54467 0.23911 0.34275 0.0
C737 C 0.53973 0.17775 0.28044 0.0
C738 C 0.56876 0.27053 0.43637 0.0
C739 C 0.55923 0.26139 0.41553 0.0
C740 C 0.55805 0.20455 0.37719 0.0
C741 C 0.53492 0.20479 0.31483 0.0
C742 C 0.54359 0.21357 0.33784 0.0
C743 C 0.5683 0.23897 0.40536 0.0
C744 C 0.55946 0.23016 0.38216 0.0
H745 H 0.48583 0.21015 0.2799 0.0
H746 H 0.50168 0.22704 0.31643 0.0
H747 H 0.54941 0.17655 0.35193 0.0
H748 H 0.61008 0.22384 0.44663 0.0
H749 H 0.59425 0.20832 0.40989 0.0
C750 C 0.07219 0.27522 0.5238 0.0
C751 C 0.08416 0.29298 0.51004 0.0
C752 C 0.06386 0.28095 0.54678 0.0
C753 C 0.07089 0.32797 0.59497 0.0
H754 H 0.01335 0.29786 0.62139 0.0
C755 C 0.02107 0.36547 0.67859 0.0
C756 C 0.01592 0.34831 0.6966 0.0
C757 C 0.02942 0.35736 0.65635 0.0
C758 C 0.02958 0.30621 0.6143 0.0
H759 H 0.09555 0.33119 0.509 0.0
H760 H 0.08002 0.34173 0.5485 0.0
H761 H 0.02712 0.28719 0.58124 0.0
H762 H 0.01485 0.30911 0.70518 0.0
H763 H 0.02895 0.29477 0.66572 0.0
H764 H 0.07263 0.34773 0.62778 0.0
C765 C 0.07797 0.32291 0.54213 0.0
C766 C 0.03758 0.30006 0.59127 0.0
C767 C 0.08664 0.317 0.5193 0.0
C768 C 0.01876 0.32273 0.69166 0.0
C769 C 0.02675 0.31456 0.66912 0.0
C770 C 0.06265 0.33439 0.61777 0.0
C771 C 0.06676 0.30487 0.55641 0.0
C772 C 0.05831 0.31098 0.58117 0.0
C773 C 0.03247 0.33185 0.65135 0.0
C774 C 0.04184 0.32371 0.62765 0.0
H775 H 0.06933 0.25678 0.51683 0.0
H776 H 0.05551 0.26643 0.55707 0.0
H777 H 0.08726 0.33631 0.58825 0.0
H778 H 0.01901 0.38532 0.68177 0.0
H779 H 0.03341 0.3711 0.64295 0.0
C780 C 0.98661 0.83125 0.78926 0.0
C781 C 0.97079 0.84307 0.7735 0.0
C782 C 0.97773 0.82022 0.80986 0.0
C783 C 0.95437 0.78933 0.84819 0.0
H784 H 0.90225 0.82475 0.88207 0.0
C785 C 0.90879 0.74999 0.93238 0.0
C786 C 0.90101 0.76676 0.95028 0.0
C787 C 0.91784 0.75866 0.9108 0.0
C788 C 0.917 0.81477 0.87298 0.0
H789 H 0.93306 0.85158 0.76658 0.0
H790 H 0.91748 0.83172 0.8023 0.0
H791 H 0.91633 0.84005 0.84391 0.0
H792 H 0.89743 0.80587 0.95973 0.0
H793 H 0.91388 0.82099 0.9223 0.0
H794 H 0.95567 0.7646 0.87764 0.0
C795 C 0.93684 0.83147 0.79894 0.0
C796 C 0.9248 0.8233 0.85086 0.0
C797 C 0.94576 0.84262 0.77832 0.0
C798 C 0.90325 0.79242 0.94634 0.0
C799 C 0.91245 0.8011 0.92476 0.0
C800 C 0.94668 0.78089 0.87036 0.0
C801 C 0.95277 0.82059 0.81522 0.0
C802 C 0.94364 0.81074 0.83821 0.0
C803 C 0.91949 0.78434 0.90657 0.0
C804 C 0.92793 0.79352 0.88308 0.0
H805 H 0.00602 0.83126 0.78616 0.0
H806 H 0.99058 0.81229 0.82205 0.0
H807 H 0.96875 0.77903 0.83886 0.0
H808 H 0.90722 0.73009 0.9347 0.0
H809 H 0.92279 0.74519 0.89715 0.0
C810 C 0.43463 0.67916 0.21005 0.0
C811 C 0.45624 0.68698 0.21975 0.0
C812 C 0.42804 0.68698 0.18751 0.0
C813 C 0.45318 0.71718 0.13277 0.0
H814 H 0.38522 0.72465 0.11822 0.0
C815 C 0.41263 0.76824 0.05082 0.0
C816 C 0.39794 0.75319 0.03715 0.0
C817 C 0.42118 0.75971 0.07251 0.0
C818 C 0.40426 0.72256 0.12209 0.0
H819 H 0.48769 0.70946 0.21396 0.0
H820 H 0.47568 0.72434 0.1753 0.0
H821 H 0.39673 0.71163 0.15763 0.0
H822 H 0.3807 0.71745 0.03543 0.0
H823 H 0.39504 0.70298 0.07365 0.0
H824 H 0.46037 0.72937 0.09726 0.0
C825 C 0.46414 0.71138 0.18445 0.0
C826 C 0.41094 0.71488 0.14462 0.0
C827 C 0.47097 0.70307 0.20675 0.0
C828 C 0.39219 0.72938 0.04544 0.0
C829 C 0.40024 0.72113 0.06734 0.0
C830 C 0.44644 0.72544 0.1104 0.0
C831 C 0.44265 0.70332 0.17436 0.0
C832 C 0.43552 0.71188 0.15031 0.0
C833 C 0.41465 0.73628 0.08112 0.0
C834 C 0.42194 0.72801 0.10485 0.0
H835 H 0.42315 0.66644 0.21962 0.0
H836 H 0.41167 0.67981 0.1803 0.0
H837 H 0.47226 0.71464 0.13612 0.0
H838 H 0.41729 0.78668 0.04488 0.0
H839 H 0.43222 0.77172 0.08292 0.0
C840 C 0.17214 0.33732 0.30597 0.0
C841 C 0.14979 0.34197 0.31781 0.0
C842 C 0.1774 0.34881 0.28433 0.0
C843 C 0.14728 0.38019 0.23422 0.0
H844 H 0.20979 0.40914 0.222 0.0
C845 C 0.1617 0.45792 0.16677 0.0
C846 C 0.18325 0.45826 0.15321 0.0
C847 C 0.15838 0.43995 0.18419 0.0
C848 C 0.19239 0.40075 0.22494 0.0
H849 H 0.11542 0.36222 0.31594 0.0
H850 H 0.12476 0.38258 0.27873 0.0
H851 H 0.20285 0.38548 0.25822 0.0
H852 H 0.21806 0.43974 0.14672 0.0
H853 H 0.21233 0.40815 0.1775 0.0
H854 H 0.13658 0.39602 0.20133 0.0
C855 C 0.13816 0.36985 0.28596 0.0
C856 C 0.18839 0.38723 0.24573 0.0
C857 C 0.13293 0.35845 0.30753 0.0
C858 C 0.2012 0.43975 0.15685 0.0
C859 C 0.19799 0.42185 0.17457 0.0
C860 C 0.15125 0.39371 0.21353 0.0
C861 C 0.16037 0.36508 0.27397 0.0
C862 C 0.16558 0.37731 0.25088 0.0
C863 C 0.17664 0.42199 0.18864 0.0
C864 C 0.17366 0.40467 0.2089 0.0
H865 H 0.1856 0.32487 0.31346 0.0
H866 H 0.19465 0.34466 0.27554 0.0
H867 H 0.12968 0.37228 0.23732 0.0
H868 H 0.14761 0.47202 0.16438 0.0
H869 H 0.14186 0.44082 0.19486 0.0
C870 C 0.90492 0.94662 0.58139 0.0
C871 C 0.89774 0.92399 0.59149 0.0
C872 C 0.8956 0.95471 0.55985 0.0
C873 C 0.84402 0.9449 0.52032 0.0
H874 H 0.88433 0.97719 0.47322 0.0
C875 C 0.81226 0.95857 0.42579 0.0
C876 C 0.81481 0.98219 0.4155 0.0
C877 C 0.82373 0.95247 0.44673 0.0
C878 C 0.87281 0.96842 0.48631 0.0
H879 H 0.87493 0.89224 0.58665 0.0
H880 H 0.85936 0.90587 0.54897 0.0
H881 H 0.90154 0.96453 0.5109 0.0
H882 H 0.83249 0.01754 0.4188 0.0
H883 H 0.85279 0.0067 0.45556 0.0
H884 H 0.81543 0.94841 0.4957 0.0
C885 C 0.87191 0.91764 0.55784 0.0
C886 C 0.88264 0.96119 0.50793 0.0
C887 C 0.88113 0.90961 0.57936 0.0
C888 C 0.83009 0.9992 0.42623 0.0
C889 C 0.84174 0.99299 0.44727 0.0
C890 C 0.83429 0.95196 0.49875 0.0
C891 C 0.87886 0.94038 0.54783 0.0
C892 C 0.86841 0.94906 0.52512 0.0
C893 C 0.83819 0.96974 0.45803 0.0
C894 C 0.84861 0.96353 0.48135 0.0
H895 H 0.9179 0.95807 0.59004 0.0
H896 H 0.90126 0.9724 0.55282 0.0
H897 H 0.8323 0.93624 0.5333 0.0
H898 H 0.80087 0.94484 0.41799 0.0
H899 H 0.82104 0.93422 0.45427 0.0
C900 C 0.26335 0.60263 0.69221 0.0
C901 C 0.2809 0.58694 0.681 0.0
C902 C 0.268 0.61363 0.71405 0.0
C903 C 0.30343 0.60229 0.76636 0.0
H904 H 0.29735 0.67311 0.77917 0.0
C905 C 0.34696 0.64565 0.84692 0.0
C906 C 0.3351 0.6658 0.85858 0.0
C907 C 0.33819 0.6364 0.82583 0.0
C908 C 0.29873 0.65323 0.77605 0.0
H909 H 0.31737 0.57121 0.6836 0.0
H910 H 0.32517 0.59006 0.72153 0.0
H911 H 0.28542 0.65688 0.74089 0.0
H912 H 0.3046 0.692 0.85706 0.0
H913 H 0.28878 0.67521 0.82073 0.0
H914 H 0.31649 0.59833 0.80133 0.0
C915 C 0.30784 0.59377 0.71353 0.0
C916 C 0.29195 0.644 0.75411 0.0
C917 C 0.30336 0.58309 0.69171 0.0
C918 C 0.31403 0.67625 0.84874 0.0
C919 C 0.30514 0.66685 0.8277 0.0
C920 C 0.30991 0.61141 0.78831 0.0
C921 C 0.29011 0.60879 0.72509 0.0
C922 C 0.29478 0.61852 0.74894 0.0
C923 C 0.31717 0.64686 0.81594 0.0
C924 C 0.30819 0.63706 0.79327 0.0
H925 H 0.24589 0.60601 0.68438 0.0
H926 H 0.25407 0.62522 0.72267 0.0
H927 H 0.30539 0.58248 0.7629 0.0
H928 H 0.36305 0.63693 0.8541 0.0
H929 H 0.34819 0.62126 0.8171 0.0
C930 C 0.58901 0.10399 0.07064 0.0
C931 C 0.59848 0.12213 0.08556 0.0
C932 C 0.60086 0.0974 0.04929 0.0
C933 C 0.66091 0.1001 0.01858 0.0
H934 H 0.62469 0.08668 0.9624 0.0
C935 C 0.70802 0.09 0.92727 0.0
C936 C 0.70098 0.07044 0.91267 0.0
C937 C 0.69466 0.09627 0.94779 0.0
C938 C 0.63505 0.09015 0.97799 0.0
H939 H 0.62808 0.14739 0.08954 0.0
H940 H 0.64821 0.13653 0.05219 0.0
H941 H 0.60311 0.09759 0.9993 0.0
H942 H 0.6742 0.04244 0.90796 0.0
H943 H 0.65066 0.05333 0.94384 0.0
H944 H 0.69282 0.09286 0.9973 0.0
C945 C 0.63181 0.12707 0.05711 0.0
C946 C 0.62269 0.09637 0.99918 0.0
C947 C 0.62003 0.13358 0.07845 0.0
C948 C 0.67994 0.05765 0.91876 0.0
C949 C 0.66647 0.06396 0.93931 0.0
C950 C 0.67323 0.094 0.99743 0.0
C951 C 0.62249 0.10879 0.04227 0.0
C952 C 0.63547 0.10159 0.01974 0.0
C953 C 0.67388 0.08313 0.95426 0.0
C954 C 0.6605 0.08911 0.97682 0.0
H955 H 0.57232 0.09496 0.07535 0.0
H956 H 0.59323 0.08311 0.03845 0.0
H957 H 0.6714 0.10341 0.03413 0.0
H958 H 0.72412 0.1003 0.92302 0.0
H959 H 0.70067 0.11142 0.95865 0.0
C960 C 0.625 0.16216 0.64426 0.0
C961 C 0.63989 0.18037 0.63429 0.0
C962 C 0.63037 0.15145 0.66607 0.0
C963 C 0.68148 0.1401 0.70574 0.0
H964 H 0.63125 0.12501 0.75205 0.0
C965 C 0.70542 0.10165 0.79701 0.0
C966 C 0.69193 0.08158 0.80547 0.0
C967 C 0.69778 0.11541 0.77753 0.0
C968 C 0.64547 0.12893 0.73922 0.0
H969 H 0.6721 0.20165 0.63963 0.0
H970 H 0.6812 0.18336 0.67779 0.0
H971 H 0.62047 0.14565 0.71524 0.0
H972 H 0.65921 0.06096 0.80055 0.0
H973 H 0.64603 0.08485 0.76643 0.0
H974 H 0.70645 0.1232 0.72946 0.0
C975 C 0.66548 0.17714 0.66863 0.0
C976 C 0.63929 0.14075 0.71812 0.0
C977 C 0.6601 0.18786 0.64685 0.0
C978 C 0.67005 0.07631 0.79457 0.0
C979 C 0.66244 0.09007 0.77501 0.0
C980 C 0.68764 0.12831 0.72678 0.0
C981 C 0.65081 0.15865 0.67843 0.0
C982 C 0.65724 0.14646 0.7011 0.0
C983 C 0.6765 0.10944 0.76593 0.0
C984 C 0.66974 0.12256 0.74381 0.0
H985 H 0.60914 0.15615 0.6352 0.0
H986 H 0.61879 0.13712 0.67299 0.0
H987 H 0.69572 0.14375 0.69286 0.0
H988 H 0.72225 0.10644 0.80505 0.0
H989 H 0.70879 0.13055 0.77135 0.0
C990 C 0.15728 0.49466 0.03771 0.0
C991 C 0.1722 0.4768 0.04877 0.0
C992 C 0.14364 0.48813 0.0182 0.0
C993 C 0.11878 0.43377 0.98762 0.0
H994 H 0.11961 0.47617 0.93237 0.0
C995 C 0.08915 0.39855 0.89713 0.0
C996 C 0.07599 0.41485 0.88255 0.0
C997 C 0.09936 0.40713 0.91784 0.0
C998 C 0.11888 0.46428 0.94776 0.0
H999 H 0.18401 0.43792 0.04819 0.0
H1000 H 0.16036 0.42667 0.0144 0.0
H1001 H 0.13952 0.48941 0.96814 0.0
H1002 H 0.06348 0.45316 0.87839 0.0
H1003 H 0.08095 0.46807 0.91484 0.0
H1004 H 0.09831 0.40857 0.96734 0.0
C1005 C 0.15906 0.44568 0.02082 0.0
C1006 C 0.13029 0.47188 0.96827 0.0
C1007 C 0.17277 0.4522 0.04016 0.0
C1008 C 0.07333 0.44003 0.88927 0.0
C1009 C 0.08356 0.44864 0.91006 0.0
C1010 C 0.10732 0.42621 0.96719 0.0
C1011 C 0.14446 0.46357 0.00949 0.0
C1012 C 0.1307 0.45653 0.98832 0.0
C1013 C 0.09663 0.43226 0.92466 0.0
C1014 C 0.10754 0.44117 0.94686 0.0
H1015 H 0.15641 0.51377 0.04385 0.0
H1016 H 0.13241 0.5023 0.00998 0.0
H1017 H 0.11837 0.4217 1.0029 0.0
H1018 H 0.09131 0.37897 0.89274 0.0
H1019 H 0.1096 0.39404 0.92843 0.0
C1020 C 0.7987 0.94377 0.3066 0.0
C1021 C 0.79177 0.96842 0.30118 0.0
C1022 C 0.80253 0.92608 0.28839 0.0
C1023 C 0.78782 0.91443 0.22576 0.0
H1024 H 0.84855 0.87676 0.22153 0.0
C1025 C 0.82661 0.87793 0.1371 0.0
C1026 C 0.83786 0.85417 0.136 0.0
C1027 C 0.81957 0.88861 0.1588 0.0
C1028 C 0.83134 0.88684 0.2226 0.0
H1029 H 0.78265 0.99361 0.27268 0.0
H1030 H 0.78907 0.96318 0.24147 0.0
H1031 H 0.83792 0.90044 0.2575 0.0
H1032 H 0.85075 0.82313 0.15708 0.0
H1033 H 0.83827 0.84179 0.19508 0.0
H1034 H 0.78142 0.90153 0.19077 0.0
C1035 C 0.79159 0.95727 0.25953 0.0
C1036 C 0.82522 0.90034 0.24325 0.0
C1037 C 0.78809 0.97482 0.27749 0.0
C1038 C 0.84194 0.84138 0.15726 0.0
C1039 C 0.83498 0.85215 0.17905 0.0
C1040 C 0.7939 0.90101 0.20522 0.0
C1041 C 0.799 0.93273 0.26464 0.0
C1042 C 0.80372 0.9149 0.24475 0.0
C1043 C 0.82359 0.87587 0.18007 0.0
C1044 C 0.81605 0.88763 0.20307 0.0
H1045 H 0.80164 0.93835 0.32472 0.0
H1046 H 0.80819 0.90726 0.29286 0.0
H1047 H 0.7709 0.92507 0.22652 0.0
H1048 H 0.82294 0.88823 0.12112 0.0
H1049 H 0.81117 0.90706 0.15891 0.0
C1050 C 0.31487 0.60301 0.57417 0.0
C1051 C 0.3115 0.57821 0.58093 0.0
C1052 C 0.33104 0.60855 0.55568 0.0
C1053 C 0.35607 0.57942 0.50176 0.0
H1054 H 0.396 0.63754 0.49828 0.0
C1055 C 0.41519 0.60052 0.41931 0.0
C1056 C 0.41589 0.62548 0.41202 0.0
C1057 C 0.40444 0.59431 0.441 0.0
C1058 C 0.38476 0.62135 0.49892 0.0
H1059 H 0.32374 0.53994 0.57511 0.0
H1060 H 0.35208 0.54963 0.54299 0.0
H1061 H 0.37493 0.62763 0.53532 0.0
H1062 H 0.40605 0.66351 0.42202 0.0
H1063 H 0.38664 0.6526 0.45943 0.0
H1064 H 0.36527 0.57342 0.46531 0.0
C1065 C 0.3419 0.56475 0.5516 0.0
C1066 C 0.37279 0.61565 0.52015 0.0
C1067 C 0.3258 0.55923 0.57007 0.0
C1068 C 0.40553 0.64406 0.42692 0.0
C1069 C 0.39473 0.63784 0.44856 0.0
C1070 C 0.36793 0.58517 0.48054 0.0
C1071 C 0.34408 0.58936 0.54368 0.0
C1072 C 0.3582 0.59469 0.52176 0.0
C1073 C 0.39409 0.6129 0.45589 0.0
C1074 C 0.38228 0.6063 0.47879 0.0
H1075 H 0.30412 0.61801 0.58229 0.0
H1076 H 0.33228 0.62769 0.54994 0.0
H1077 H 0.34457 0.56341 0.50229 0.0
H1078 H 0.42282 0.58573 0.40819 0.0
H1079 H 0.40446 0.57492 0.44619 0.0
C1080 C 0.19498 0.19783 0.4383 0.0
C1081 C 0.17919 0.21857 0.43631 0.0
C1082 C 0.21333 0.1932 0.42139 0.0
C1083 C 0.25085 0.2241 0.37619 0.0
H1084 H 0.2675 0.15612 0.35767 0.0
C1085 C 0.32678 0.19806 0.30666 0.0
C1086 C 0.34177 0.17733 0.31193 0.0
C1087 C 0.30623 0.20396 0.32074 0.0
C1088 C 0.26323 0.1752 0.36281 0.0
H1089 H 0.17014 0.25076 0.41505 0.0
H1090 H 0.20222 0.24254 0.38514 0.0
H1091 H 0.23224 0.16454 0.38329 0.0
H1092 H 0.34682 0.14661 0.33622 0.0
H1093 H 0.31135 0.15709 0.3609 0.0
H1094 H 0.28207 0.23466 0.35577 0.0
C1095 C 0.20044 0.22991 0.39991 0.0
C1096 C 0.24298 0.18004 0.37748 0.0
C1097 C 0.18194 0.23451 0.41688 0.0
C1098 C 0.33588 0.16287 0.33178 0.0
C1099 C 0.31532 0.16869 0.34576 0.0
C1100 C 0.27115 0.21924 0.36144 0.0
C1101 C 0.21642 0.20922 0.40204 0.0
C1102 C 0.23674 0.20449 0.3847 0.0
C1103 C 0.3001 0.18915 0.34031 0.0
C1104 C 0.2778 0.19467 0.35489 0.0
H1105 H 0.19338 0.1853 0.45317 0.0
H1106 H 0.22551 0.17734 0.42385 0.0
H1107 H 0.24671 0.24312 0.38159 0.0
H1108 H 0.3309 0.20971 0.29161 0.0
H1109 H 0.29484 0.21979 0.31599 0.0
C1110 C 0.09132 0.12574 0.6053 0.0
C1111 C 0.0966 0.12633 0.5809 0.0
C1112 C 0.08266 0.10421 0.61592 0.0
C1113 C 0.08012 0.03653 0.60947 0.0
H1114 H 0.0241 0.04337 0.65178 0.0
C1115 C 0.0487 0.95937 0.67343 0.0
C1116 C 0.02374 0.95509 0.67499 0.0
C1117 C 0.05747 0.97929 0.66027 0.0
C1118 C 0.03964 0.04116 0.63988 0.0
H1119 H 0.09718 0.1044 0.54862 0.0
H1120 H 0.08259 0.06661 0.56736 0.0
H1121 H 0.04012 0.08017 0.63233 0.0
H1122 H 0.98844 0.96815 0.66362 0.0
H1123 H 0.0038 0.0032 0.64088 0.0
H1124 H 0.07978 0.9975 0.61729 0.0
C1125 C 0.08517 0.08293 0.57819 0.0
C1126 C 0.04894 0.06222 0.62894 0.0
C1127 C 0.09361 0.10457 0.5675 0.0
C1128 C 0.00777 0.97094 0.66278 0.0
C1129 C 0.01653 0.99106 0.64986 0.0
C1130 C 0.07099 0.01547 0.62066 0.0
C1131 C 0.07931 0.08265 0.60245 0.0
C1132 C 0.06932 0.06014 0.61369 0.0
C1133 C 0.04145 0.99552 0.64861 0.0
C1134 C 0.05068 0.0176 0.63601 0.0
H1135 H 0.09391 0.14194 0.61629 0.0
H1136 H 0.07868 0.10438 0.63473 0.0
H1137 H 0.09591 0.03442 0.59787 0.0
H1138 H 0.06151 0.94744 0.68253 0.0
H1139 H 0.07675 0.9824 0.65975 0.0
C1140 C 0.15328 0.87545 0.82711 0.0
C1141 C 0.14079 0.85856 0.81318 0.0
C1142 C 0.17368 0.86767 0.83948 0.0
C1143 C 0.20521 0.8117 0.86297 0.0
H1144 H 0.25966 0.85554 0.86561 0.0
C1145 C 0.29501 0.78199 0.90675 0.0
C1146 C 0.30528 0.79975 0.9215 0.0
C1147 C 0.27585 0.78868 0.89215 0.0
C1148 C 0.24455 0.84315 0.8652 0.0
H1149 H 0.13992 0.82006 0.80168 0.0
H1150 H 0.1758 0.80657 0.823 0.0
H1151 H 0.22429 0.86791 0.84319 0.0
H1152 H 0.30375 0.83866 0.93197 0.0
H1153 H 0.27039 0.85025 0.90665 0.0
H1154 H 0.22547 0.78701 0.88512 0.0
C1155 C 0.16964 0.82583 0.82449 0.0
C1156 C 0.22423 0.85026 0.85237 0.0
C1157 C 0.1492 0.83362 0.81208 0.0
C1158 C 0.29633 0.82448 0.92083 0.0
C1159 C 0.27724 0.83117 0.9062 0.0
C1160 C 0.22557 0.80458 0.8758 0.0
C1161 C 0.18222 0.8428 0.83825 0.0
C1162 C 0.20419 0.83474 0.85126 0.0
C1163 C 0.26656 0.81332 0.89187 0.0
C1164 C 0.24541 0.82031 0.87724 0.0
H1165 H 0.14756 0.89486 0.82814 0.0
H1166 H 0.1827 0.88119 0.85015 0.0
H1167 H 0.19001 0.79942 0.86274 0.0
H1168 H 0.30146 0.76277 0.90678 0.0
H1169 H 0.26826 0.77454 0.8811 0.0
C1170 C 0.47573 0.07631 0.14749 0.0
C1171 C 0.46081 0.08748 0.16521 0.0
C1172 C 0.46712 0.05715 0.13346 0.0
C1173 C 0.41051 0.0284 0.11469 0.0
H1174 H 0.45207 0.97035 0.10205 0.0
C1175 C 0.37329 0.93731 0.0789 0.0
C1176 C 0.3866 0.92514 0.06062 0.0
C1177 C 0.38306 0.95714 0.09107 0.0
C1178 C 0.44035 0.98655 0.10521 0.0
H1179 H 0.42501 0.08745 0.18182 0.0
H1180 H 0.4102 0.05401 0.15764 0.0
H1181 H 0.46768 0.00558 0.12372 0.0
H1182 H 0.4208 0.92406 0.04101 0.0
H1183 H 0.43795 0.95868 0.06243 0.0
H1184 H 0.3831 0.00928 0.09646 0.0
C1185 C 0.42843 0.06023 0.15433 0.0
C1186 C 0.44929 0.00675 0.11758 0.0
C1187 C 0.437 0.07935 0.1683 0.0
C1188 C 0.41017 0.93288 0.05517 0.0
C1189 C 0.41998 0.95272 0.0674 0.0
C1190 C 0.40156 0.0082 0.10241 0.0
C1191 C 0.44342 0.04878 0.13685 0.0
C1192 C 0.4344 0.02783 0.12264 0.0
C1193 C 0.40641 0.96525 0.08529 0.0
C1194 C 0.4163 0.98696 0.09772 0.0
H1195 H 0.49415 0.08215 0.14458 0.0
H1196 H 0.47902 0.04893 0.11995 0.0
H1197 H 0.3987 0.04452 0.1179 0.0
H1198 H 0.35528 0.93148 0.08386 0.0
H1199 H 0.37235 0.96608 0.1051 0.0
C1200 C 0.83541 0.36592 0.65984 0.0
C1201 C 0.84995 0.38437 0.64971 0.0
C1202 C 0.81466 0.35809 0.64861 0.0
C1203 C 0.78643 0.35804 0.58967 0.0
H1204 H 0.72943 0.3381 0.62529 0.0
C1205 C 0.69667 0.33808 0.54489 0.0
C1206 C 0.68534 0.31586 0.55121 0.0
C1207 C 0.71595 0.34672 0.55779 0.0
C1208 C 0.7453 0.34345 0.61514 0.0
H1209 H 0.85352 0.40929 0.61982 0.0
H1210 H 0.81691 0.39655 0.60091 0.0
H1211 H 0.76426 0.35338 0.64614 0.0
H1212 H 0.68501 0.28569 0.57658 0.0
H1213 H 0.71864 0.30107 0.59935 0.0
H1214 H 0.76724 0.34853 0.55869 0.0
C1215 C 0.82187 0.3876 0.61726 0.0
C1216 C 0.76531 0.35216 0.62707 0.0
C1217 C 0.84274 0.39524 0.62835 0.0
C1218 C 0.69336 0.30284 0.57119 0.0
C1219 C 0.71254 0.31168 0.58429 0.0
C1220 C 0.76635 0.34963 0.57779 0.0
C1221 C 0.80771 0.36866 0.62704 0.0
C1222 C 0.78618 0.35959 0.61448 0.0
C1223 C 0.72427 0.33352 0.57749 0.0
C1224 C 0.74556 0.34226 0.59036 0.0
H1225 H 0.84009 0.35738 0.67646 0.0
H1226 H 0.8044 0.34333 0.65664 0.0
H1227 H 0.8023 0.36298 0.57934 0.0
H1228 H 0.691 0.34864 0.52964 0.0
H1229 H 0.72443 0.36377 0.5523 0.0
C1230 C 0.92149 0.43721 0.79767 0.0
C1231 C 0.94601 0.43086 0.79347 0.0
C1232 C 0.91466 0.45539 0.81446 0.0
C1233 C 0.93925 0.50987 0.84502 0.0
H1234 H 0.87971 0.50698 0.88231 0.0
C1235 C 0.91056 0.58478 0.91515 0.0
C1236 C 0.88599 0.59232 0.91606 0.0
C1237 C 0.91851 0.56462 0.90098 0.0
C1238 C 0.8963 0.50817 0.87186 0.0
H1239 H 0.98255 0.43756 0.80443 0.0
H1240 H 0.97065 0.46887 0.8341 0.0
H1241 H 0.89242 0.47166 0.85744 0.0
H1242 H 0.85072 0.58504 0.90196 0.0
H1243 H 0.86455 0.54993 0.87745 0.0
H1244 H 0.94306 0.54643 0.85944 0.0
C1245 C 0.95668 0.46029 0.82405 0.0
C1246 C 0.9036 0.48789 0.8576 0.0
C1247 C 0.9635 0.44217 0.8072 0.0
C1248 C 0.86969 0.57947 0.9021 0.0
C1249 C 0.87761 0.55929 0.88803 0.0
C1250 C 0.93199 0.53011 0.85936 0.0
C1251 C 0.9322 0.46757 0.82753 0.0
C1252 C 0.92508 0.48854 0.84381 0.0
C1253 C 0.90208 0.55146 0.88744 0.0
C1254 C 0.9103 0.52961 0.87279 0.0
H1255 H 0.9076 0.42885 0.78734 0.0
H1256 H 0.89567 0.46061 0.81648 0.0
H1257 H 0.95568 0.51126 0.83436 0.0
H1258 H 0.92358 0.59402 0.92588 0.0
H1259 H 0.93745 0.55895 0.90109 0.0
C1260 C 0.79371 0.69527 0.06266 0.0
C1261 C 0.80073 0.72021 0.06162 0.0
C1262 C 0.77312 0.68872 0.07574 0.0
C1263 C 0.71498 0.7155 0.09587 0.0
H1264 H 0.71076 0.65619 0.13442 0.0
C1265 C 0.62736 0.6925 0.14686 0.0
C1266 C 0.62064 0.66749 0.14746 0.0
C1267 C 0.65019 0.69891 0.13823 0.0
C1268 C 0.71158 0.67267 0.12351 0.0
H1269 H 0.79227 0.75763 0.07448 0.0
H1270 H 0.75632 0.74614 0.0972 0.0
H1271 H 0.74968 0.66735 0.11667 0.0
H1272 H 0.63248 0.62956 0.13957 0.0
H1273 H 0.67224 0.64075 0.12389 0.0
H1274 H 0.67692 0.72057 0.10199 0.0
C1275 C 0.76664 0.73174 0.08769 0.0
C1276 C 0.73388 0.6791 0.11345 0.0
C1277 C 0.78731 0.73827 0.07476 0.0
C1278 C 0.63728 0.64897 0.13943 0.0
C1279 C 0.66008 0.6554 0.13057 0.0
C1280 C 0.69269 0.709 0.10574 0.0
C1281 C 0.75907 0.70699 0.08792 0.0
C1282 C 0.73578 0.70056 0.09951 0.0
C1283 C 0.66677 0.68047 0.12977 0.0
C1284 C 0.69068 0.68749 0.11966 0.0
H1285 H 0.80369 0.68087 0.05282 0.0
H1286 H 0.76763 0.66952 0.0755 0.0
H1287 H 0.71581 0.7319 0.08484 0.0
H1288 H 0.61503 0.70711 0.15335 0.0
H1289 H 0.65489 0.71834 0.13835 0.0
C1290 C 0.60151 0.43693 0.38704 0.0
C1291 C 0.59001 0.43241 0.40895 0.0
C1292 C 0.59397 0.45688 0.37299 0.0
C1293 C 0.54266 0.50058 0.36227 0.0
H1294 H 0.59214 0.53941 0.33122 0.0
C1295 C 0.51998 0.58853 0.30636 0.0
C1296 C 0.53321 0.59069 0.28502 0.0
C1297 C 0.52655 0.57037 0.32293 0.0
C1298 C 0.57807 0.52865 0.33959 0.0
H1299 H 0.56111 0.44509 0.43298 0.0
H1300 H 0.54801 0.48009 0.40847 0.0
H1301 H 0.60391 0.5052 0.35696 0.0
H1302 H 0.56359 0.57559 0.26423 0.0
H1303 H 0.57493 0.54395 0.29282 0.0
H1304 H 0.51681 0.52392 0.3446 0.0
C1305 C 0.56285 0.46809 0.40215 0.0
C1306 C 0.58483 0.50901 0.35435 0.0
C1307 C 0.57049 0.44816 0.41629 0.0
C1308 C 0.55314 0.57448 0.2806 0.0
C1309 C 0.55973 0.55642 0.29709 0.0
C1310 C 0.53588 0.52025 0.34742 0.0
C1311 C 0.57468 0.47285 0.38044 0.0
C1312 C 0.56724 0.49449 0.36563 0.0
C1313 C 0.54653 0.55407 0.31846 0.0
C1314 C 0.55352 0.53431 0.33563 0.0
H1315 H 0.61677 0.42537 0.38094 0.0
H1316 H 0.60327 0.45979 0.35623 0.0
H1317 H 0.52866 0.48967 0.37057 0.0
H1318 H 0.50437 0.60061 0.3101 0.0
H1319 H 0.51607 0.56918 0.33926 0.0
C1320 C 0.3463 0.36002 0.14752 0.0
C1321 C 0.32202 0.35707 0.14157 0.0
C1322 C 0.36027 0.33973 0.15526 0.0
C1323 C 0.36438 0.27165 0.15092 0.0
H1324 H 0.41149 0.27793 0.20004 0.0
C1325 C 0.44417 0.20158 0.16261 0.0
C1326 C 0.45069 0.19547 0.1857 0.0
C1327 C 0.42645 0.22005 0.15865 0.0
C1328 C 0.39824 0.27577 0.18646 0.0
H1329 H 0.2932 0.33063 0.13956 0.0
H1330 H 0.31755 0.29521 0.15334 0.0
H1331 H 0.38398 0.31288 0.19166 0.0
H1332 H 0.44333 0.20318 0.22281 0.0
H1333 H 0.41231 0.23537 0.21592 0.0
H1334 H 0.37873 0.23458 0.14564 0.0
C1335 C 0.32581 0.31321 0.15183 0.0
C1336 C 0.38266 0.29588 0.18151 0.0
C1337 C 0.3118 0.33354 0.14419 0.0
C1338 C 0.43877 0.20767 0.2048 0.0
C1339 C 0.4211 0.22616 0.20086 0.0
C1340 C 0.38004 0.25157 0.1558 0.0
C1341 C 0.35029 0.31601 0.15714 0.0
C1342 C 0.36572 0.29413 0.16353 0.0
C1343 C 0.41494 0.23276 0.17773 0.0
C1344 C 0.39731 0.2535 0.17346 0.0
H1345 H 0.35461 0.37798 0.14588 0.0
H1346 H 0.37912 0.34247 0.15903 0.0
H1347 H 0.35168 0.26979 0.13681 0.0
H1348 H 0.45307 0.19243 0.14758 0.0
H1349 H 0.42228 0.22487 0.14063 0.0
C1350 C 0.93485 0.31998 0.78598 0.0
C1351 C 0.93739 0.32818 0.76252 0.0
C1352 C 0.92086 0.29946 0.79152 0.0
C1353 C 0.89774 0.2423 0.76588 0.0
H1354 H 0.85673 0.24228 0.82241 0.0
C1355 C 0.86127 0.15201 0.80684 0.0
C1356 C 0.83707 0.1523 0.81515 0.0
C1357 C 0.87215 0.17396 0.79952 0.0
C1358 C 0.86793 0.24204 0.80646 0.0
H1359 H 0.92688 0.32133 0.7265 0.0
H1360 H 0.90245 0.28528 0.73621 0.0
H1361 H 0.87739 0.28013 0.81094 0.0
H1362 H 0.80535 0.17613 0.82202 0.0
H1363 H 0.82452 0.21448 0.80958 0.0
H1364 H 0.88837 0.20416 0.76147 0.0
C1365 C 0.91144 0.29477 0.75028 0.0
C1366 C 0.87994 0.26366 0.8 0.0
C1367 C 0.92534 0.31549 0.74474 0.0
C1368 C 0.82412 0.17521 0.81609 0.0
C1369 C 0.83507 0.19721 0.80888 0.0
C1370 C 0.88586 0.22062 0.77243 0.0
C1371 C 0.90913 0.28648 0.77375 0.0
C1372 C 0.89516 0.26398 0.77975 0.0
C1373 C 0.85919 0.19682 0.80043 0.0
C1374 C 0.87098 0.22017 0.79291 0.0
H1375 H 0.94384 0.32931 0.80016 0.0
H1376 H 0.9197 0.29339 0.80972 0.0
H1377 H 0.90946 0.24187 0.75028 0.0
H1378 H 0.87198 0.13484 0.80628 0.0
H1379 H 0.8909 0.17308 0.7935 0.0
C1380 C 0.06729 0.61382 0.11123 0.0
C1381 C 0.08389 0.60609 0.09335 0.0
C1382 C 0.04463 0.62398 0.10549 0.0
C1383 C 0.01356 0.65475 0.05591 0.0
H1384 H 0.95551 0.64376 0.09381 0.0
C1385 C 0.92125 0.69399 0.02795 0.0
C1386 C 0.90773 0.70705 0.0455 0.0
C1387 C 0.94116 0.67899 0.03393 0.0
C1388 C 0.97162 0.64705 0.08313 0.0
H1389 H 0.08937 0.6017 0.05556 0.0
H1390 H 0.04978 0.61892 0.04552 0.0
H1391 H 0.99349 0.62246 0.10394 0.0
H1392 H 0.90356 0.71369 0.08314 0.0
H1393 H 0.93848 0.68743 0.09364 0.0
H1394 H 0.9918 0.67932 0.03515 0.0
C1395 C 0.05443 0.61788 0.06396 0.0
C1396 C 0.99338 0.63492 0.08896 0.0
C1397 C 0.07711 0.60795 0.06968 0.0
C1398 C 0.91374 0.70387 0.06926 0.0
C1399 C 0.93365 0.68877 0.07527 0.0
C1400 C 0.99184 0.6667 0.05003 0.0
C1401 C 0.03804 0.62642 0.08175 0.0
C1402 C 0.01464 0.63869 0.07543 0.0
C1403 C 0.94791 0.67667 0.0576 0.0
C1404 C 0.97064 0.66305 0.06358 0.0
H1405 H 0.07211 0.61271 0.12962 0.0
H1406 H 0.03258 0.6306 0.11964 0.0
H1407 H 0.02965 0.65857 0.0454 0.0
H1408 H 0.91689 0.69593 0.00949 0.0
H1409 H 0.95156 0.66956 0.01997 0.0
C1410 C 0.66994 0.85584 0.30504 0.0
C1411 C 0.66525 0.86775 0.32688 0.0
C1412 C 0.65647 0.83542 0.29829 0.0
C1413 C 0.61817 0.78624 0.32353 0.0
H1414 H 0.59619 0.77922 0.25945 0.0
C1415 C 0.54634 0.71584 0.29832 0.0
C1416 C 0.54928 0.70307 0.27669 0.0
C1417 C 0.5617 0.73501 0.30412 0.0
C1418 C 0.60247 0.78073 0.27734 0.0
H1419 H 0.64269 0.8674 0.35875 0.0
H1420 H 0.61891 0.83232 0.34677 0.0
H1421 H 0.62033 0.81482 0.2699 0.0
H1422 H 0.57107 0.70033 0.24434 0.0
H1423 H 0.598 0.73373 0.25461 0.0
H1424 H 0.60017 0.75232 0.33105 0.0
C1425 C 0.63318 0.83855 0.33495 0.0
C1426 C 0.61629 0.80115 0.28333 0.0
C1427 C 0.64661 0.85892 0.34167 0.0
C1428 C 0.56824 0.70974 0.26115 0.0
C1429 C 0.58359 0.72902 0.26695 0.0
C1430 C 0.60436 0.76588 0.31755 0.0
C1431 C 0.63806 0.8264 0.31328 0.0
C1432 C 0.6241 0.80428 0.30657 0.0
C1433 C 0.58041 0.74197 0.28846 0.0
C1434 C 0.59615 0.76298 0.29445 0.0
H1435 H 0.68404 0.86228 0.29315 0.0
H1436 H 0.66079 0.8264 0.28154 0.0
H1437 H 0.62431 0.78779 0.34147 0.0
H1438 H 0.53194 0.71127 0.31073 0.0
H1439 H 0.55855 0.7448 0.3207 0.0
C1440 C 0.56385 0.33602 0.51997 0.0
C1441 C 0.57745 0.3244 0.53766 0.0
C1442 C 0.5441 0.35183 0.52597 0.0
C1443 C 0.51622 0.38852 0.57573 0.0
H1444 H 0.4569 0.38149 0.54148 0.0
C1445 C 0.42496 0.42763 0.61201 0.0
C1446 C 0.40923 0.43961 0.59626 0.0
C1447 C 0.44567 0.41465 0.60369 0.0
C1448 C 0.4734 0.38392 0.55102 0.0
H1449 H 0.58148 0.32068 0.57543 0.0
H1450 H 0.54699 0.34803 0.58593 0.0
H1451 H 0.49322 0.35761 0.52904 0.0
H1452 H 0.40287 0.44696 0.55928 0.0
H1453 H 0.43909 0.42407 0.5447 0.0
H1454 H 0.49637 0.41452 0.59791 0.0
C1455 C 0.55163 0.34519 0.56742 0.0
C1456 C 0.49425 0.37025 0.54389 0.0
C1457 C 0.57135 0.3294 0.56142 0.0
C1458 C 0.41448 0.43779 0.57188 0.0
C1459 C 0.43526 0.42471 0.56353 0.0
C1460 C 0.49541 0.40211 0.58288 0.0
C1461 C 0.53758 0.3564 0.54978 0.0
C1462 C 0.51584 0.37215 0.55634 0.0
C1463 C 0.45122 0.41321 0.57939 0.0
C1464 C 0.47365 0.39974 0.57082 0.0
H1465 H 0.56823 0.33259 0.50148 0.0
H1466 H 0.53389 0.36044 0.51194 0.0
H1467 H 0.53264 0.39082 0.58545 0.0
H1468 H 0.4212 0.42813 0.63085 0.0
H1469 H 0.45726 0.40552 0.61636 0.0
C1470 C 0.15655 0.68635 0.6501 0.0
C1471 C 0.15774 0.67921 0.62618 0.0
C1472 C 0.14342 0.70776 0.65732 0.0
C1473 C 0.11639 0.767 0.63562 0.0
H1474 H 0.07508 0.76227 0.6916 0.0
C1475 C 0.04138 0.84063 0.6598 0.0
C1476 C 0.03675 0.84598 0.68378 0.0
C1477 C 0.05797 0.82165 0.65304 0.0
C1478 C 0.0868 0.76409 0.67615 0.0
H1479 H 0.14653 0.68945 0.59103 0.0
H1480 H 0.12337 0.72667 0.60366 0.0
H1481 H 0.10054 0.72668 0.67932 0.0
H1482 H 0.0466 0.83649 0.7195 0.0
H1483 H 0.07587 0.80367 0.70775 0.0
H1484 H 0.1025 0.8044 0.63238 0.0
C1485 C 0.13274 0.71576 0.61682 0.0
C1486 C 0.10139 0.74363 0.66908 0.0
C1487 C 0.14581 0.69428 0.60961 0.0
C1488 C 0.04965 0.83261 0.70087 0.0
C1489 C 0.06631 0.8137 0.69413 0.0
C1490 C 0.10183 0.78752 0.64273 0.0
C1491 C 0.13118 0.72263 0.6408 0.0
C1492 C 0.11627 0.74477 0.64866 0.0
C1493 C 0.07039 0.80768 0.67014 0.0
C1494 C 0.08673 0.78628 0.66302 0.0
H1495 H 0.16531 0.67505 0.66337 0.0
H1496 H 0.14281 0.71264 0.67588 0.0
H1497 H 0.12789 0.76861 0.61998 0.0
H1498 H 0.03168 0.85064 0.64624 0.0
H1499 H 0.06046 0.8174 0.63443 0.0
C1500 C 0.42454 0.82722 0.96346 0.0
C1501 C 0.41296 0.81433 0.94551 0.0
C1502 C 0.44396 0.84262 0.95797 0.0
C1503 C 0.47384 0.87533 0.90763 0.0
H1504 H 0.52997 0.87344 0.94736 0.0
C1505 C 0.56489 0.91492 0.87647 0.0
C1506 C 0.57739 0.92949 0.89259 0.0
C1507 C 0.54489 0.90132 0.88387 0.0
C1508 C 0.51434 0.87436 0.93621 0.0
H1509 H 0.41232 0.80781 0.90777 0.0
H1510 H 0.44618 0.83419 0.89824 0.0
H1511 H 0.49437 0.84986 0.95866 0.0
H1512 H 0.57869 0.94071 0.92935 0.0
H1513 H 0.54397 0.91667 0.94229 0.0
H1514 H 0.49391 0.89949 0.88499 0.0
C1515 C 0.44021 0.83282 0.91652 0.0
C1516 C 0.49388 0.8609 0.94272 0.0
C1517 C 0.42083 0.81753 0.922 0.0
C1518 C 0.56974 0.92947 0.91648 0.0
C1519 C 0.54976 0.91575 0.92391 0.0
C1520 C 0.4943 0.88864 0.90107 0.0
C1521 C 0.45218 0.84546 0.93442 0.0
C1522 C 0.47344 0.86099 0.92837 0.0
C1523 C 0.53688 0.9018 0.90762 0.0
C1524 C 0.5149 0.88814 0.91514 0.0
H1525 H 0.41878 0.82519 0.98175 0.0
H1526 H 0.45251 0.85232 0.97218 0.0
H1527 H 0.45829 0.87631 0.89638 0.0
H1528 H 0.57052 0.91404 0.85804 0.0
H1529 H 0.53569 0.89036 0.87094 0.0
C1530 C 0.90955 0.12566 0.37124 0.0
C1531 C 0.89697 0.1084 0.38512 0.0
C1532 C 0.93076 0.13597 0.37921 0.0
C1533 C 0.98033 0.12728 0.42112 0.0
H1534 H 0.98756 0.19812 0.41136 0.0
C1535 C 0.05824 0.18475 0.45997 0.0
C1536 C 0.06794 0.20319 0.44521 0.0
C1537 C 0.03805 0.17154 0.45309 0.0
C1538 C 0.98598 0.17826 0.414 0.0
H1539 H 0.89713 0.08815 0.41819 0.0
H1540 H 0.93436 0.10618 0.4321 0.0
H1541 H 0.95103 0.17832 0.39873 0.0
H1542 H 0.06477 0.22115 0.41109 0.0
H1543 H 0.03 0.19807 0.39914 0.0
H1544 H 0.01546 0.12738 0.43642 0.0
C1545 C 0.92779 0.11158 0.41496 0.0
C1546 C 0.96501 0.16691 0.40676 0.0
C1547 C 0.90647 0.10126 0.40698 0.0
C1548 C 0.05763 0.20735 0.42308 0.0
C1549 C 0.03757 0.19419 0.41624 0.0
C1550 C 1.00141 0.13869 0.42839 0.0
C1551 C 0.94001 0.12928 0.40126 0.0
C1552 C 0.96203 0.14125 0.40996 0.0
C1553 C 0.02719 0.17654 0.43135 0.0
C1554 C 0.00457 0.16426 0.42461 0.0
H1555 H 0.90306 0.13114 0.35408 0.0
H1556 H 0.94001 0.14915 0.36799 0.0
H1557 H 0.97862 0.10744 0.42371 0.0
H1558 H 0.06573 0.18107 0.47714 0.0
H1559 H 0.03043 0.15808 0.46515 0.0
loop_
_geom_bond_atom_site_label_1
_geom_bond_atom_site_label_2
_geom_bond_distance
_geom_bond_site_symmetry_2
_ccdc_geom_bond_type
Pr0 C2 2.880 . S
Pr0 O20 2.562 . S
Pr0 O21 2.490 . S
Pr0 O22 2.695 . S
Pr0 O23 2.512 . S
Pr0 O25 2.437 . S
Pr0 O28 2.436 . S
Pr0 O30 2.438 . S
Pr1 C11 2.880 . S
Pr1 O22 2.436 . S
Pr1 O24 2.438 . S
Pr1 O26 2.562 . S
Pr1 O27 2.490 . S
Pr1 O28 2.695 . S
Pr1 O29 2.512 . S
Pr1 O31 2.437 . S
C2 Pr0 2.880 . S
C2 C3 1.491 . S
C2 O20 1.254 . S
C2 O21 1.225 . S
C3 C2 1.491 . S
C3 C4 1.392 . S
C3 C8 1.356 . S
C4 C3 1.392 . S
C4 C5 1.368 . S
C4 H32 0.929 . S
C5 C4 1.368 . S
C5 C6 1.386 . S
C5 H33 0.929 . S
C6 C5 1.386 . S
C6 C7 1.373 . S
C7 C6 1.373 . S
C7 C8 1.409 . S
C7 H34 0.931 . S
C8 C3 1.356 . S
C8 C7 1.409 . S
C8 H35 0.930 . S
C9 O22 1.270 . S
C9 O23 1.248 . S
C10 O24 1.267 . S
C10 O25 1.278 . S
C11 Pr1 2.880 . S
C11 C12 1.491 . S
C11 O26 1.254 . S
C11 O27 1.225 . S
C12 C11 1.491 . S
C12 C13 1.392 . S
C12 C17 1.356 . S
C13 C12 1.392 . S
C13 C14 1.368 . S
C13 H36 0.929 . S
C14 C13 1.368 . S
C14 C15 1.386 . S
C14 H37 0.929 . S
C15 C14 1.386 . S
C15 C16 1.373 . S
C16 C15 1.373 . S
C16 C17 1.409 . S
C16 H38 0.931 . S
C17 C12 1.356 . S
C17 C16 1.409 . S
C17 H39 0.930 . S
C18 O28 1.270 . S
C18 O29 1.248 . S
C19 O30 1.267 . S
C19 O31 1.278 . S
O20 Pr0 2.562 . S
O20 C2 1.254 . S
O21 Pr0 2.490 . S
O21 C2 1.225 . S
O22 Pr0 2.695 . S
O22 Pr1 2.436 . S
O22 C9 1.270 . S
O23 Pr0 2.512 . S
O23 C9 1.248 . S
O24 Pr1 2.438 . S
O24 C10 1.267 . S
O25 Pr0 2.437 . S
O25 C10 1.278 . S
O26 Pr1 2.562 . S
O26 C11 1.254 . S
O27 Pr1 2.490 . S
O27 C11 1.225 . S
O28 Pr0 2.436 . S
O28 Pr1 2.695 . S
O28 C18 1.270 . S
O29 Pr1 2.512 . S
O29 C18 1.248 . S
O30 Pr0 2.438 . S
O30 C19 1.267 . S
O31 Pr1 2.437 . S
O31 C19 1.278 . S
H32 C4 0.929 . S
H33 C5 0.929 . S
H34 C7 0.931 . S
H35 C8 0.930 . S
H36 C13 0.929 . S
H37 C14 0.929 . S
H38 C16 0.931 . S
H39 C17 0.930 . S
Pr40 C42 2.880 . S
Pr40 O60 2.562 . S
Pr40 O61 2.490 . S
Pr40 O62 2.695 1_655 S
Pr40 O63 2.512 1_655 S
Pr40 O65 2.437 1_655 S
Pr40 O68 2.436 . S
Pr40 O70 2.438 . S
Pr41 C51 2.880 . S
Pr41 O62 2.436 . S
Pr41 O64 2.438 . S
Pr41 O66 2.562 . S
Pr41 O67 2.490 . S
Pr41 O68 2.695 1_455 S
Pr41 O69 2.511 1_455 S
Pr41 O71 2.437 . S
C42 Pr40 2.880 . S
C42 C43 1.491 . S
C42 O60 1.254 . S
C42 O61 1.225 . S
C43 C42 1.491 . S
C43 C44 1.392 . S
C43 C48 1.356 . S
C44 C43 1.392 . S
C44 C45 1.368 . S
C44 H72 0.929 . S
C45 C44 1.368 . S
C45 C46 1.386 . S
C45 H73 0.929 . S
C46 C45 1.386 . S
C46 C47 1.373 . S
C47 C46 1.373 . S
C47 C48 1.409 . S
C47 H74 0.931 . S
C48 C43 1.356 . S
C48 C47 1.409 . S
C48 H75 0.930 . S
C49 O62 1.270 . S
C49 O63 1.248 . S
C50 O64 1.267 . S
C50 O65 1.278 . S
C51 Pr41 2.880 . S
C51 C52 1.491 . S
C51 O66 1.254 . S
C51 O67 1.225 . S
C52 C51 1.491 . S
C52 C53 1.392 . S
C52 C57 1.356 . S
C53 C52 1.392 . S
C53 C54 1.368 . S
C53 H76 0.929 . S
C54 C53 1.368 . S
C54 C55 1.386 . S
C54 H77 0.929 . S
C55 C54 1.386 . S
C55 C56 1.373 . S
C56 C55 1.373 . S
C56 C57 1.409 . S
C56 H78 0.931 . S
C57 C52 1.356 . S
C57 C56 1.409 . S
C57 H79 0.930 . S
C58 O68 1.270 . S
C58 O69 1.250 . S
C59 O70 1.267 . S
C59 O71 1.278 1_655 S
O60 Pr40 2.562 . S
O60 C42 1.254 . S
O61 Pr40 2.490 . S
O61 C42 1.225 . S
O62 Pr40 2.695 1_455 S
O62 Pr41 2.436 . S
O62 C49 1.270 . S
O63 Pr40 2.512 1_455 S
O63 C49 1.248 . S
O64 Pr41 2.438 . S
O64 C50 1.267 . S
O65 Pr40 2.437 1_455 S
O65 C50 1.278 . S
O66 Pr41 2.562 . S
O66 C51 1.254 . S
O67 Pr41 2.490 . S
O67 C51 1.225 . S
O68 Pr40 2.436 . S
O68 Pr41 2.695 1_655 S
O68 C58 1.270 . S
O69 Pr41 2.511 1_655 S
O69 C58 1.250 . S
O70 Pr40 2.438 . S
O70 C59 1.267 . S
O71 Pr41 2.437 . S
O71 C59 1.278 1_455 S
H72 C44 0.929 . S
H73 C45 0.929 . S
H74 C47 0.931 . S
H75 C48 0.930 . S
H76 C53 0.929 . S
H77 C54 0.929 . S
H78 C56 0.931 . S
H79 C57 0.930 . S
Pr80 C82 2.880 . S
Pr80 O100 2.562 . S
Pr80 O101 2.490 . S
Pr80 O102 2.695 . S
Pr80 O103 2.512 . S
Pr80 O105 2.437 . S
Pr80 O108 2.436 . S
Pr80 O110 2.438 . S
Pr81 C91 2.880 1_556 S
Pr81 O102 2.436 . S
Pr81 O104 2.438 . S
Pr81 O106 2.562 1_556 S
Pr81 O107 2.490 1_556 S
Pr81 O108 2.695 . S
Pr81 O109 2.512 1_556 S
Pr81 O111 2.437 1_556 S
C82 Pr80 2.880 . S
C82 C83 1.491 . S
C82 O100 1.254 . S
C82 O101 1.225 . S
C83 C82 1.491 . S
C83 C84 1.392 . S
C83 C88 1.356 . S
C84 C83 1.392 . S
C84 C85 1.368 . S
C84 H112 0.929 . S
C85 C84 1.368 . S
C85 C86 1.386 . S
C85 H113 0.929 . S
C86 C85 1.386 . S
C86 C87 1.373 . S
C87 C86 1.373 . S
C87 C88 1.409 . S
C87 H114 0.931 . S
C88 C83 1.356 . S
C88 C87 1.409 . S
C88 H115 0.930 . S
C89 O102 1.270 . S
C89 O103 1.248 . S
C90 O104 1.267 . S
C90 O105 1.278 . S
C91 Pr81 2.880 1_554 S
C91 C92 1.491 . S
C91 O106 1.254 . S
C91 O107 1.225 . S
C92 C91 1.491 . S
C92 C93 1.392 . S
C92 C97 1.356 . S
C93 C92 1.392 . S
C93 C94 1.368 . S
C93 H116 0.929 . S
C94 C93 1.368 . S
C94 C95 1.386 . S
C94 H117 0.929 . S
C95 C94 1.386 . S
C95 C96 1.373 . S
C96 C95 1.373 . S
C96 C97 1.409 . S
C96 H118 0.931 . S
C97 C92 1.356 . S
C97 C96 1.409 . S
C97 H119 0.930 . S
C98 O108 1.270 1_554 S
C98 O109 1.248 . S
C99 O110 1.267 1_554 S
C99 O111 1.278 . S
O100 Pr80 2.562 . S
O100 C82 1.254 . S
O101 Pr80 2.490 . S
O101 C82 1.225 . S
O102 Pr80 2.695 . S
O102 Pr81 2.436 . S
O102 C89 1.270 . S
O103 Pr80 2.512 . S
O103 C89 1.248 . S
O104 Pr81 2.438 . S
O104 C90 1.267 . S
O105 Pr80 2.437 . S
O105 C90 1.278 . S
O106 Pr81 2.562 1_554 S
O106 C91 1.254 . S
O107 Pr81 2.490 1_554 S
O107 C91 1.225 . S
O108 Pr80 2.436 . S
O108 Pr81 2.695 . S
O108 C98 1.270 1_556 S
O109 Pr81 2.512 1_554 S
O109 C98 1.248 . S
O110 Pr80 2.438 . S
O110 C99 1.267 1_556 S
O111 Pr81 2.437 1_554 S
O111 C99 1.278 . S
H112 C84 0.929 . S
H113 C85 0.929 . S
H114 C87 0.931 . S
H115 C88 0.930 . S
H116 C93 0.929 . S
H117 C94 0.929 . S
H118 C96 0.931 . S
H119 C97 0.930 . S
Pr120 C122 2.880 . S
Pr120 O140 2.562 . S
Pr120 O141 2.490 . S
Pr120 O142 2.695 . S
Pr120 O143 2.512 . S
Pr120 O145 2.437 . S
Pr120 O148 2.436 . S
Pr120 O150 2.438 . S
Pr121 C131 2.880 . S
Pr121 O142 2.436 . S
Pr121 O144 2.438 . S
Pr121 O146 2.562 . S
Pr121 O147 2.490 . S
Pr121 O148 2.695 . S
Pr121 O149 2.512 . S
Pr121 O151 2.437 . S
C122 Pr120 2.880 . S
C122 C123 1.491 . S
C122 O140 1.254 . S
C122 O141 1.225 . S
C123 C122 1.491 . S
C123 C124 1.392 . S
C123 C128 1.356 . S
C124 C123 1.392 . S
C124 C125 1.368 . S
C124 H152 0.929 . S
C125 C124 1.368 . S
C125 C126 1.386 . S
C125 H153 0.929 . S
C126 C125 1.386 . S
C126 C127 1.373 . S
C127 C126 1.373 . S
C127 C128 1.409 . S
C127 H154 0.931 . S
C128 C123 1.356 . S
C128 C127 1.409 . S
C128 H155 0.930 . S
C129 O142 1.270 . S
C129 O143 1.248 . S
C130 O144 1.267 . S
C130 O145 1.278 . S
C131 Pr121 2.880 . S
C131 C132 1.491 . S
C131 O146 1.254 . S
C131 O147 1.225 . S
C132 C131 1.491 . S
C132 C133 1.392 . S
C132 C137 1.356 . S
C133 C132 1.392 . S
C133 C134 1.368 . S
C133 H156 0.929 . S
C134 C133 1.368 . S
C134 C135 1.386 . S
C134 H157 0.929 . S
C135 C134 1.386 . S
C135 C136 1.373 . S
C136 C135 1.373 . S
C136 C137 1.409 . S
C136 H158 0.931 . S
C137 C132 1.356 . S
C137 C136 1.409 . S
C137 H159 0.930 . S
C138 O148 1.270 . S
C138 O149 1.248 . S
C139 O150 1.267 . S
C139 O151 1.278 . S
O140 Pr120 2.562 . S
O140 C122 1.254 . S
O141 Pr120 2.490 . S
O141 C122 1.225 . S
O142 Pr120 2.695 . S
O142 Pr121 2.436 . S
O142 C129 1.270 . S
O143 Pr120 2.512 . S
O143 C129 1.248 . S
O144 Pr121 2.438 . S
O144 C130 1.267 . S
O145 Pr120 2.437 . S
O145 C130 1.278 . S
O146 Pr121 2.562 . S
O146 C131 1.254 . S
O147 Pr121 2.490 . S
O147 C131 1.225 . S
O148 Pr120 2.436 . S
O148 Pr121 2.695 . S
O148 C138 1.270 . S
O149 Pr121 2.512 . S
O149 C138 1.248 . S
O150 Pr120 2.438 . S
O150 C139 1.267 . S
O151 Pr121 2.437 . S
O151 C139 1.278 . S
H152 C124 0.929 . S
H153 C125 0.929 . S
H154 C127 0.931 . S
H155 C128 0.930 . S
H156 C133 0.929 . S
H157 C134 0.929 . S
H158 C136 0.931 . S
H159 C137 0.930 . S
Pr160 C162 2.880 . S
Pr160 O180 2.562 . S
Pr160 O181 2.490 . S
Pr160 O182 2.695 . S
Pr160 O183 2.512 . S
Pr160 O185 2.437 . S
Pr160 O188 2.436 . S
Pr160 O190 2.438 . S
Pr161 C171 2.880 . S
Pr161 O182 2.436 . S
Pr161 O184 2.438 . S
Pr161 O186 2.562 . S
Pr161 O187 2.490 . S
Pr161 O188 2.695 . S
Pr161 O189 2.512 . S
Pr161 O191 2.437 . S
C162 Pr160 2.880 . S
C162 C163 1.491 . S
C162 O180 1.254 . S
C162 O181 1.225 . S
C163 C162 1.491 . S
C163 C164 1.392 . S
C163 C168 1.356 . S
C164 C163 1.392 . S
C164 C165 1.368 . S
C164 H192 0.929 . S
C165 C164 1.368 . S
C165 C166 1.386 . S
C165 H193 0.929 . S
C166 C165 1.386 . S
C166 C167 1.373 . S
C167 C166 1.373 . S
C167 C168 1.409 . S
C167 H194 0.931 . S
C168 C163 1.356 . S
C168 C167 1.409 . S
C168 H195 0.930 . S
C169 O182 1.270 . S
C169 O183 1.248 . S
C170 O184 1.267 . S
C170 O185 1.278 . S
C171 Pr161 2.880 . S
C171 C172 1.491 . S
C171 O186 1.254 . S
C171 O187 1.225 . S
C172 C171 1.491 . S
C172 C173 1.392 . S
C172 C177 1.356 . S
C173 C172 1.392 . S
C173 C174 1.368 . S
C173 H196 0.929 . S
C174 C173 1.368 . S
C174 C175 1.386 . S
C174 H197 0.929 . S
C175 C174 1.386 . S
C175 C176 1.373 . S
C176 C175 1.373 . S
C176 C177 1.409 . S
C176 H198 0.931 . S
C177 C172 1.356 . S
C177 C176 1.409 . S
C177 H199 0.930 . S
C178 O188 1.270 . S
C178 O189 1.248 . S
C179 O190 1.267 . S
C179 O191 1.278 . S
O180 Pr160 2.562 . S
O180 C162 1.254 . S
O181 Pr160 2.490 . S
O181 C162 1.225 . S
O182 Pr160 2.695 . S
O182 Pr161 2.436 . S
O182 C169 1.270 . S
O183 Pr160 2.512 . S
O183 C169 1.248 . S
O184 Pr161 2.438 . S
O184 C170 1.267 . S
O185 Pr160 2.437 . S
O185 C170 1.278 . S
O186 Pr161 2.562 . S
O186 C171 1.254 . S
O187 Pr161 2.490 . S
O187 C171 1.225 . S
O188 Pr160 2.436 . S
O188 Pr161 2.695 . S
O188 C178 1.270 . S
O189 Pr161 2.512 . S
O189 C178 1.248 . S
O190 Pr160 2.438 . S
O190 C179 1.267 . S
O191 Pr161 2.437 . S
O191 C179 1.278 . S
H192 C164 0.929 . S
H193 C165 0.929 . S
H194 C167 0.931 . S
H195 C168 0.930 . S
H196 C173 0.929 . S
H197 C174 0.929 . S
H198 C176 0.931 . S
H199 C177 0.930 . S
Pr200 C202 2.880 . S
Pr200 O220 2.562 . S
Pr200 O221 2.490 . S
Pr200 O222 2.695 . S
Pr200 O223 2.512 . S
Pr200 O225 2.437 . S
Pr200 O228 2.436 . S
Pr200 O230 2.438 . S
Pr201 C211 2.880 1_655 S
Pr201 O222 2.436 . S
Pr201 O224 2.438 . S
Pr201 O226 2.562 1_655 S
Pr201 O227 2.490 1_655 S
Pr201 O228 2.695 . S
Pr201 O229 2.512 1_655 S
Pr201 O231 2.437 1_655 S
C202 Pr200 2.880 . S
C202 C203 1.491 . S
C202 O220 1.254 . S
C202 O221 1.225 . S
C203 C202 1.491 . S
C203 C204 1.392 . S
C203 C208 1.356 . S
C204 C203 1.392 . S
C204 C205 1.368 . S
C204 H232 0.929 . S
C205 C204 1.368 . S
C205 C206 1.386 . S
C205 H233 0.929 . S
C206 C205 1.386 . S
C206 C207 1.373 . S
C207 C206 1.373 . S
C207 C208 1.409 . S
C207 H234 0.931 . S
C208 C203 1.356 . S
C208 C207 1.409 . S
C208 H235 0.930 . S
C209 O222 1.270 . S
C209 O223 1.248 . S
C210 O224 1.267 . S
C210 O225 1.278 . S
C211 Pr201 2.880 1_455 S
C211 C212 1.491 . S
C211 O226 1.254 . S
C211 O227 1.225 . S
C212 C211 1.491 . S
C212 C213 1.392 . S
C212 C217 1.356 . S
C213 C212 1.392 . S
C213 C214 1.368 . S
C213 H236 0.929 . S
C214 C213 1.368 . S
C214 C215 1.386 . S
C214 H237 0.929 . S
C215 C214 1.386 . S
C215 C216 1.373 . S
C216 C215 1.373 . S
C216 C217 1.409 . S
C216 H238 0.931 . S
C217 C212 1.356 . S
C217 C216 1.409 . S
C217 H239 0.930 . S
C218 O228 1.270 . S
C218 O229 1.248 1_655 S
C219 O230 1.267 1_455 S
C219 O231 1.278 . S
O220 Pr200 2.562 . S
O220 C202 1.254 . S
O221 Pr200 2.490 . S
O221 C202 1.225 . S
O222 Pr200 2.695 . S
O222 Pr201 2.436 . S
O222 C209 1.270 . S
O223 Pr200 2.512 . S
O223 C209 1.248 . S
O224 Pr201 2.438 . S
O224 C210 1.267 . S
O225 Pr200 2.437 . S
O225 C210 1.278 . S
O226 Pr201 2.562 1_455 S
O226 C211 1.254 . S
O227 Pr201 2.490 1_455 S
O227 C211 1.225 . S
O228 Pr200 2.436 . S
O228 Pr201 2.695 . S
O228 C218 1.270 . S
O229 Pr201 2.512 1_455 S
O229 C218 1.248 1_455 S
O230 Pr200 2.438 . S
O230 C219 1.267 1_655 S
O231 Pr201 2.437 1_455 S
O231 C219 1.278 . S
H232 C204 0.929 . S
H233 C205 0.929 . S
H234 C207 0.931 . S
H235 C208 0.930 . S
H236 C213 0.929 . S
H237 C214 0.929 . S
H238 C216 0.931 . S
H239 C217 0.930 . S
Pr240 C242 2.880 . S
Pr240 O260 2.562 . S
Pr240 O261 2.490 . S
Pr240 O262 2.695 . S
Pr240 O263 2.512 . S
Pr240 O265 2.437 . S
Pr240 O268 2.436 1_554 S
Pr240 O270 2.438 1_554 S
Pr241 C251 2.880 . S
Pr241 O262 2.436 1_556 S
Pr241 O264 2.438 1_556 S
Pr241 O266 2.562 . S
Pr241 O267 2.490 . S
Pr241 O268 2.695 . S
Pr241 O269 2.512 . S
Pr241 O271 2.437 . S
C242 Pr240 2.880 . S
C242 C243 1.491 . S
C242 O260 1.254 . S
C242 O261 1.225 . S
C243 C242 1.491 . S
C243 C244 1.392 . S
C243 C248 1.356 . S
C244 C243 1.392 . S
C244 C245 1.368 . S
C244 H272 0.929 . S
C245 C244 1.368 . S
C245 C246 1.386 . S
C245 H273 0.929 . S
C246 C245 1.386 . S
C246 C247 1.373 . S
C247 C246 1.373 . S
C247 C248 1.409 . S
C247 H274 0.931 . S
C248 C243 1.356 . S
C248 C247 1.409 . S
C248 H275 0.930 . S
C249 O262 1.270 . S
C249 O263 1.248 . S
C250 O264 1.267 . S
C250 O265 1.278 . S
C251 Pr241 2.880 . S
C251 C252 1.491 . S
C251 O266 1.254 . S
C251 O267 1.225 . S
C252 C251 1.491 . S
C252 C253 1.392 . S
C252 C257 1.356 . S
C253 C252 1.392 . S
C253 C254 1.368 . S
C253 H276 0.929 . S
C254 C253 1.368 . S
C254 C255 1.386 . S
C254 H277 0.929 . S
C255 C254 1.386 . S
C255 C256 1.373 . S
C256 C255 1.373 . S
C256 C257 1.409 . S
C256 H278 0.931 . S
C257 C252 1.356 . S
C257 C256 1.409 . S
C257 H279 0.930 . S
C258 O268 1.270 . S
C258 O269 1.248 . S
C259 O270 1.267 . S
C259 O271 1.278 . S
O260 Pr240 2.562 . S
O260 C242 1.254 . S
O261 Pr240 2.490 . S
O261 C242 1.225 . S
O262 Pr240 2.695 . S
O262 Pr241 2.436 1_554 S
O262 C249 1.270 . S
O263 Pr240 2.512 . S
O263 C249 1.248 . S
O264 Pr241 2.438 1_554 S
O264 C250 1.267 . S
O265 Pr240 2.437 . S
O265 C250 1.278 . S
O266 Pr241 2.562 . S
O266 C251 1.254 . S
O267 Pr241 2.490 . S
O267 C251 1.225 . S
O268 Pr240 2.436 1_556 S
O268 Pr241 2.695 . S
O268 C258 1.270 . S
O269 Pr241 2.512 . S
O269 C258 1.248 . S
O270 Pr240 2.438 1_556 S
O270 C259 1.267 . S
O271 Pr241 2.437 . S
O271 C259 1.278 . S
H272 C244 0.929 . S
H273 C245 0.929 . S
H274 C247 0.931 . S
H275 C248 0.930 . S
H276 C253 0.929 . S
H277 C254 0.929 . S
H278 C256 0.931 . S
H279 C257 0.930 . S
Pr280 C282 2.880 . S
Pr280 O300 2.562 . S
Pr280 O301 2.490 . S
Pr280 O302 2.695 . S
Pr280 O303 2.512 . S
Pr280 O305 2.437 . S
Pr280 O308 2.436 . S
Pr280 O310 2.438 . S
Pr281 C291 2.880 . S
Pr281 O302 2.436 . S
Pr281 O304 2.438 . S
Pr281 O306 2.562 . S
Pr281 O307 2.490 . S
Pr281 O308 2.695 . S
Pr281 O309 2.512 . S
Pr281 O311 2.437 . S
C282 Pr280 2.880 . S
C282 C283 1.491 . S
C282 O300 1.254 . S
C282 O301 1.225 . S
C283 C282 1.491 . S
C283 C284 1.392 . S
C283 C288 1.356 . S
C284 C283 1.392 . S
C284 C285 1.368 . S
C284 H312 0.929 . S
C285 C284 1.368 . S
C285 C286 1.386 . S
C285 H313 0.929 . S
C286 C285 1.386 . S
C286 C287 1.373 . S
C287 C286 1.373 . S
C287 C288 1.409 . S
C287 H314 0.931 . S
C288 C283 1.356 . S
C288 C287 1.409 . S
C288 H315 0.930 . S
C289 O302 1.270 . S
C289 O303 1.248 . S
C290 O304 1.267 . S
C290 O305 1.278 . S
C291 Pr281 2.880 . S
C291 C292 1.491 . S
C291 O306 1.254 . S
C291 O307 1.225 . S
C292 C291 1.491 . S
C292 C293 1.392 . S
C292 C297 1.356 . S
C293 C292 1.392 . S
C293 C294 1.368 . S
C293 H316 0.929 . S
C294 C293 1.368 . S
C294 C295 1.386 . S
C294 H317 0.929 . S
C295 C294 1.386 . S
C295 C296 1.373 . S
C296 C295 1.373 . S
C296 C297 1.409 . S
C296 H318 0.931 . S
C297 C292 1.356 . S
C297 C296 1.409 . S
C297 H319 0.930 . S
C298 O308 1.270 . S
C298 O309 1.248 . S
C299 O310 1.267 . S
C299 O311 1.278 . S
O300 Pr280 2.562 . S
O300 C282 1.254 . S
O301 Pr280 2.490 . S
O301 C282 1.225 . S
O302 Pr280 2.695 . S
O302 Pr281 2.436 . S
O302 C289 1.270 . S
O303 Pr280 2.512 . S
O303 C289 1.248 . S
O304 Pr281 2.438 . S
O304 C290 1.267 . S
O305 Pr280 2.437 . S
O305 C290 1.278 . S
O306 Pr281 2.562 . S
O306 C291 1.254 . S
O307 Pr281 2.490 . S
O307 C291 1.225 . S
O308 Pr280 2.436 . S
O308 Pr281 2.695 . S
O308 C298 1.270 . S
O309 Pr281 2.512 . S
O309 C298 1.248 . S
O310 Pr280 2.438 . S
O310 C299 1.267 . S
O311 Pr281 2.437 . S
O311 C299 1.278 . S
H312 C284 0.929 . S
H313 C285 0.929 . S
H314 C287 0.931 . S
H315 C288 0.930 . S
H316 C293 0.929 . S
H317 C294 0.929 . S
H318 C296 0.931 . S
H319 C297 0.930 . S
Pr320 C322 2.880 . S
Pr320 O340 2.562 . S
Pr320 O341 2.490 . S
Pr320 O342 2.695 . S
Pr320 O343 2.512 . S
Pr320 O345 2.437 . S
Pr320 O348 2.436 . S
Pr320 O350 2.438 . S
Pr321 C331 2.880 . S
Pr321 O342 2.436 . S
Pr321 O344 2.438 . S
Pr321 O346 2.562 . S
Pr321 O347 2.490 . S
Pr321 O348 2.695 . S
Pr321 O349 2.512 . S
Pr321 O351 2.437 . S
C322 Pr320 2.880 . S
C322 C323 1.491 . S
C322 O340 1.254 . S
C322 O341 1.225 . S
C323 C322 1.491 . S
C323 C324 1.392 . S
C323 C328 1.356 . S
C324 C323 1.392 . S
C324 C325 1.368 . S
C324 H352 0.929 . S
C325 C324 1.368 . S
C325 C326 1.386 . S
C325 H353 0.929 . S
C326 C325 1.386 . S
C326 C327 1.373 . S
C327 C326 1.373 . S
C327 C328 1.409 . S
C327 H354 0.931 . S
C328 C323 1.356 . S
C328 C327 1.409 . S
C328 H355 0.930 . S
C329 O342 1.270 . S
C329 O343 1.248 . S
C330 O344 1.267 . S
C330 O345 1.278 . S
C331 Pr321 2.880 . S
C331 C332 1.491 . S
C331 O346 1.254 . S
C331 O347 1.225 . S
C332 C331 1.491 . S
C332 C333 1.392 . S
C332 C337 1.356 . S
C333 C332 1.392 . S
C333 C334 1.368 . S
C333 H356 0.929 . S
C334 C333 1.368 . S
C334 C335 1.386 . S
C334 H357 0.929 . S
C335 C334 1.386 . S
C335 C336 1.373 . S
C336 C335 1.373 . S
C336 C337 1.409 . S
C336 H358 0.931 . S
C337 C332 1.356 . S
C337 C336 1.409 . S
C337 H359 0.930 . S
C338 O348 1.270 . S
C338 O349 1.248 . S
C339 O350 1.267 . S
C339 O351 1.278 . S
O340 Pr320 2.562 . S
O340 C322 1.254 . S
O341 Pr320 2.490 . S
O341 C322 1.225 . S
O342 Pr320 2.695 . S
O342 Pr321 2.436 . S
O342 C329 1.270 . S
O343 Pr320 2.512 . S
O343 C329 1.248 . S
O344 Pr321 2.438 . S
O344 C330 1.267 . S
O345 Pr320 2.437 . S
O345 C330 1.278 . S
O346 Pr321 2.562 . S
O346 C331 1.254 . S
O347 Pr321 2.490 . S
O347 C331 1.225 . S
O348 Pr320 2.436 . S
O348 Pr321 2.695 . S
O348 C338 1.270 . S
O349 Pr321 2.512 . S
O349 C338 1.248 . S
O350 Pr320 2.438 . S
O350 C339 1.267 . S
O351 Pr321 2.437 . S
O351 C339 1.278 . S
H352 C324 0.929 . S
H353 C325 0.929 . S
H354 C327 0.931 . S
H355 C328 0.930 . S
H356 C333 0.929 . S
H357 C334 0.929 . S
H358 C336 0.931 . S
H359 C337 0.930 . S
Pr360 C362 2.880 . S
Pr360 O380 2.562 . S
Pr360 O381 2.490 . S
Pr360 O382 2.695 . S
Pr360 O383 2.512 . S
Pr360 O385 2.437 . S
Pr360 O388 2.436 . S
Pr360 O390 2.438 1_545 S
Pr361 C371 2.880 . S
Pr361 O382 2.436 1_565 S
Pr361 O384 2.438 1_565 S
Pr361 O386 2.562 . S
Pr361 O387 2.490 . S
Pr361 O388 2.695 1_565 S
Pr361 O389 2.512 . S
Pr361 O391 2.437 . S
C362 Pr360 2.880 . S
C362 C363 1.491 . S
C362 O380 1.254 . S
C362 O381 1.225 . S
C363 C362 1.491 . S
C363 C364 1.392 . S
C363 C368 1.356 . S
C364 C363 1.392 . S
C364 C365 1.368 . S
C364 H392 0.929 . S
C365 C364 1.368 . S
C365 C366 1.386 . S
C365 H393 0.929 . S
C366 C365 1.386 . S
C366 C367 1.373 . S
C367 C366 1.373 . S
C367 C368 1.409 . S
C367 H394 0.931 . S
C368 C363 1.356 . S
C368 C367 1.409 . S
C368 H395 0.930 . S
C369 O382 1.270 . S
C369 O383 1.248 . S
C370 O384 1.267 . S
C370 O385 1.278 . S
C371 Pr361 2.880 . S
C371 C372 1.491 . S
C371 O386 1.254 . S
C371 O387 1.225 . S
C372 C371 1.491 . S
C372 C373 1.392 . S
C372 C377 1.356 . S
C373 C372 1.392 . S
C373 C374 1.368 . S
C373 H396 0.929 . S
C374 C373 1.368 . S
C374 C375 1.386 . S
C374 H397 0.929 . S
C375 C374 1.386 . S
C375 C376 1.373 . S
C376 C375 1.373 . S
C376 C377 1.409 . S
C376 H398 0.931 . S
C377 C372 1.356 . S
C377 C376 1.409 . S
C377 H399 0.930 . S
C378 O388 1.270 1_565 S
C378 O389 1.248 . S
C379 O390 1.267 . S
C379 O391 1.278 . S
O380 Pr360 2.562 . S
O380 C362 1.254 . S
O381 Pr360 2.490 . S
O381 C362 1.225 . S
O382 Pr360 2.695 . S
O382 Pr361 2.436 1_545 S
O382 C369 1.270 . S
O383 Pr360 2.512 . S
O383 C369 1.248 . S
O384 Pr361 2.438 1_545 S
O384 C370 1.267 . S
O385 Pr360 2.437 . S
O385 C370 1.278 . S
O386 Pr361 2.562 . S
O386 C371 1.254 . S
O387 Pr361 2.490 . S
O387 C371 1.225 . S
O388 Pr360 2.436 . S
O388 Pr361 2.695 1_545 S
O388 C378 1.270 1_545 S
O389 Pr361 2.512 . S
O389 C378 1.248 . S
O390 Pr360 2.438 1_565 S
O390 C379 1.267 . S
O391 Pr361 2.437 . S
O391 C379 1.278 . S
H392 C364 0.929 . S
H393 C365 0.929 . S
H394 C367 0.931 . S
H395 C368 0.930 . S
H396 C373 0.929 . S
H397 C374 0.929 . S
H398 C376 0.931 . S
H399 C377 0.930 . S
Pr400 C402 2.880 . S
Pr400 O420 2.562 . S
Pr400 O421 2.490 . S
Pr400 O422 2.695 1_545 S
Pr400 O423 2.512 1_545 S
Pr400 O425 2.437 1_545 S
Pr400 O428 2.436 . S
Pr400 O430 2.438 . S
Pr401 C411 2.880 . S
Pr401 O422 2.436 . S
Pr401 O424 2.438 . S
Pr401 O426 2.562 . S
Pr401 O427 2.490 . S
Pr401 O428 2.695 1_565 S
Pr401 O429 2.512 1_565 S
Pr401 O431 2.437 1_565 S
C402 Pr400 2.880 . S
C402 C403 1.491 . S
C402 O420 1.254 . S
C402 O421 1.225 . S
C403 C402 1.491 . S
C403 C404 1.392 . S
C403 C408 1.356 . S
C404 C403 1.392 . S
C404 C405 1.368 . S
C404 H432 0.929 . S
C405 C404 1.368 . S
C405 C406 1.386 . S
C405 H433 0.929 . S
C406 C405 1.386 . S
C406 C407 1.373 . S
C407 C406 1.373 . S
C407 C408 1.409 . S
C407 H434 0.931 . S
C408 C403 1.356 . S
C408 C407 1.409 . S
C408 H435 0.930 . S
C409 O422 1.270 . S
C409 O423 1.248 . S
C410 O424 1.267 . S
C410 O425 1.278 . S
C411 Pr401 2.880 . S
C411 C412 1.491 . S
C411 O426 1.254 . S
C411 O427 1.225 . S
C412 C411 1.491 . S
C412 C413 1.392 . S
C412 C417 1.356 . S
C413 C412 1.392 . S
C413 C414 1.368 . S
C413 H436 0.929 . S
C414 C413 1.368 . S
C414 C415 1.386 . S
C414 H437 0.929 . S
C415 C414 1.386 . S
C415 C416 1.373 . S
C416 C415 1.373 . S
C416 C417 1.409 . S
C416 H438 0.931 . S
C417 C412 1.356 . S
C417 C416 1.409 . S
C417 H439 0.930 . S
C418 O428 1.270 . S
C418 O429 1.248 . S
C419 O430 1.267 . S
C419 O431 1.278 . S
O420 Pr400 2.562 . S
O420 C402 1.254 . S
O421 Pr400 2.490 . S
O421 C402 1.225 . S
O422 Pr400 2.695 1_565 S
O422 Pr401 2.436 . S
O422 C409 1.270 . S
O423 Pr400 2.512 1_565 S
O423 C409 1.248 . S
O424 Pr401 2.438 . S
O424 C410 1.267 . S
O425 Pr400 2.437 1_565 S
O425 C410 1.278 . S
O426 Pr401 2.562 . S
O426 C411 1.254 . S
O427 Pr401 2.490 . S
O427 C411 1.225 . S
O428 Pr400 2.436 . S
O428 Pr401 2.695 1_545 S
O428 C418 1.270 . S
O429 Pr401 2.512 1_545 S
O429 C418 1.248 . S
O430 Pr400 2.438 . S
O430 C419 1.267 . S
O431 Pr401 2.437 1_545 S
O431 C419 1.278 . S
H432 C404 0.929 . S
H433 C405 0.929 . S
H434 C407 0.931 . S
H435 C408 0.930 . S
H436 C413 0.929 . S
H437 C414 0.929 . S
H438 C416 0.931 . S
H439 C417 0.930 . S
Pr440 C442 2.880 . S
Pr440 O460 2.562 . S
Pr440 O461 2.490 . S
Pr440 O462 2.695 . S
Pr440 O463 2.512 . S
Pr440 O465 2.437 . S
Pr440 O468 2.436 . S
Pr440 O470 2.438 . S
Pr441 C451 2.880 . S
Pr441 O462 2.436 . S
Pr441 O464 2.438 . S
Pr441 O466 2.562 . S
Pr441 O467 2.490 . S
Pr441 O468 2.695 . S
Pr441 O469 2.512 . S
Pr441 O471 2.437 . S
C442 Pr440 2.880 . S
C442 C443 1.491 . S
C442 O460 1.254 . S
C442 O461 1.225 . S
C443 C442 1.491 . S
C443 C444 1.392 . S
C443 C448 1.356 . S
C444 C443 1.392 . S
C444 C445 1.368 . S
C444 H472 0.929 . S
C445 C444 1.368 . S
C445 C446 1.386 . S
C445 H473 0.929 . S
C446 C445 1.386 . S
C446 C447 1.373 . S
C447 C446 1.373 . S
C447 C448 1.409 . S
C447 H474 0.931 . S
C448 C443 1.356 . S
C448 C447 1.409 . S
C448 H475 0.930 . S
C449 O462 1.270 . S
C449 O463 1.248 . S
C450 O464 1.267 . S
C450 O465 1.278 . S
C451 Pr441 2.880 . S
C451 C452 1.491 . S
C451 O466 1.254 . S
C451 O467 1.225 . S
C452 C451 1.491 . S
C452 C453 1.392 . S
C452 C457 1.356 . S
C453 C452 1.392 . S
C453 C454 1.368 . S
C453 H476 0.929 . S
C454 C453 1.368 . S
C454 C455 1.386 . S
C454 H477 0.929 . S
C455 C454 1.386 . S
C455 C456 1.373 . S
C456 C455 1.373 . S
C456 C457 1.409 . S
C456 H478 0.931 . S
C457 C452 1.356 . S
C457 C456 1.409 . S
C457 H479 0.930 . S
C458 O468 1.270 . S
C458 O469 1.248 . S
C459 O470 1.267 . S
C459 O471 1.278 . S
O460 Pr440 2.562 . S
O460 C442 1.254 . S
O461 Pr440 2.490 . S
O461 C442 1.225 . S
O462 Pr440 2.695 . S
O462 Pr441 2.436 . S
O462 C449 1.270 . S
O463 Pr440 2.512 . S
O463 C449 1.248 . S
O464 Pr441 2.438 . S
O464 C450 1.267 . S
O465 Pr440 2.437 . S
O465 C450 1.278 . S
O466 Pr441 2.562 . S
O466 C451 1.254 . S
O467 Pr441 2.490 . S
O467 C451 1.225 . S
O468 Pr440 2.436 . S
O468 Pr441 2.695 . S
O468 C458 1.270 . S
O469 Pr441 2.512 . S
O469 C458 1.248 . S
O470 Pr440 2.438 . S
O470 C459 1.267 . S
O471 Pr441 2.437 . S
O471 C459 1.278 . S
H472 C444 0.929 . S
H473 C445 0.929 . S
H474 C447 0.931 . S
H475 C448 0.930 . S
H476 C453 0.929 . S
H477 C454 0.929 . S
H478 C456 0.931 . S
H479 C457 0.930 . S
C480 C481 1.349 . S
C480 C482 1.327 . S
C480 H505 0.950 . S
C481 C480 1.349 . S
C481 C497 1.349 . S
C482 C480 1.327 . S
C482 C501 1.429 . S
C482 H506 0.950 . S
C483 C500 1.574 . S
C483 C502 1.368 . S
C483 H507 0.949 . S
H484 C488 0.949 . S
C485 C486 1.349 . S
C485 C487 1.327 . S
C485 H508 0.950 . S
C486 C485 1.349 . S
C486 C498 1.349 . S
C487 C485 1.327 . S
C487 C503 1.429 . S
C487 H509 0.950 . S
C488 H484 0.949 . S
C488 C496 1.574 . S
C488 C504 1.368 . S
H489 C497 0.950 . S
H490 C495 0.950 . S
H491 C496 0.949 . S
H492 C498 0.950 . S
H493 C499 0.950 . S
H494 C500 0.949 . S
C495 H490 0.950 . S
C495 C497 1.327 . S
C495 C501 1.429 . S
C496 C488 1.574 . S
C496 H491 0.949 . S
C496 C502 1.368 . S
C497 C481 1.349 . S
C497 H489 0.950 . S
C497 C495 1.327 . S
C498 C486 1.349 . S
C498 H492 0.950 . S
C498 C499 1.327 . S
C499 H493 0.950 . S
C499 C498 1.327 . S
C499 C503 1.429 . S
C500 C483 1.574 . S
C500 H494 0.949 . S
C500 C504 1.368 . S
C501 C482 1.429 . S
C501 C495 1.429 . S
C501 C502 1.523 . S
C502 C483 1.368 . S
C502 C496 1.368 . S
C502 C501 1.523 . S
C503 C487 1.429 . S
C503 C499 1.429 . S
C503 C504 1.523 . S
C504 C488 1.368 . S
C504 C500 1.368 . S
C504 C503 1.523 . S
H505 C480 0.950 . S
H506 C482 0.950 . S
H507 C483 0.949 . S
H508 C485 0.950 . S
H509 C487 0.950 . S
C510 C511 1.349 . S
C510 C512 1.327 . S
C510 H535 0.950 . S
C511 C510 1.349 . S
C511 C527 1.349 . S
C512 C510 1.327 . S
C512 C531 1.429 . S
C512 H536 0.950 . S
C513 C530 1.574 . S
C513 C532 1.368 . S
C513 H537 0.949 . S
H514 C518 0.949 . S
C515 C516 1.349 . S
C515 C517 1.327 . S
C515 H538 0.950 . S
C516 C515 1.349 . S
C516 C528 1.349 . S
C517 C515 1.327 . S
C517 C533 1.429 . S
C517 H539 0.950 . S
C518 H514 0.949 . S
C518 C526 1.574 . S
C518 C534 1.368 . S
H519 C527 0.950 1_545 S
H520 C525 0.950 . S
H521 C526 0.949 . S
H522 C528 0.950 . S
H523 C529 0.950 . S
H524 C530 0.949 . S
C525 H520 0.950 . S
C525 C527 1.327 . S
C525 C531 1.429 . S
C526 C518 1.574 . S
C526 H521 0.949 . S
C526 C532 1.368 . S
C527 C511 1.349 . S
C527 H519 0.950 1_565 S
C527 C525 1.327 . S
C528 C516 1.349 . S
C528 H522 0.950 . S
C528 C529 1.327 . S
C529 H523 0.950 . S
C529 C528 1.327 . S
C529 C533 1.429 . S
C530 C513 1.574 . S
C530 H524 0.949 . S
C530 C534 1.368 . S
C531 C512 1.429 . S
C531 C525 1.429 . S
C531 C532 1.523 . S
C532 C513 1.368 . S
C532 C526 1.368 . S
C532 C531 1.523 . S
C533 C517 1.429 . S
C533 C529 1.429 . S
C533 C534 1.523 . S
C534 C518 1.368 . S
C534 C530 1.368 . S
C534 C533 1.523 . S
H535 C510 0.950 . S
H536 C512 0.950 . S
H537 C513 0.949 . S
H538 C515 0.950 . S
H539 C517 0.950 . S
C540 C541 1.349 1_556 S
C540 C542 1.327 1_556 S
C540 H565 0.950 . S
C541 C540 1.349 1_554 S
C541 C557 1.349 . S
C542 C540 1.327 1_554 S
C542 C561 1.429 . S
C542 H566 0.950 1_554 S
C543 C560 1.574 . S
C543 C562 1.368 . S
C543 H567 0.949 . S
H544 C548 0.949 . S
C545 C546 1.349 . S
C545 C547 1.327 . S
C545 H568 0.950 . S
C546 C545 1.349 . S
C546 C558 1.349 . S
C547 C545 1.327 . S
C547 C563 1.429 . S
C547 H569 0.950 . S
C548 H544 0.949 . S
C548 C556 1.574 . S
C548 C564 1.368 . S
H549 C557 0.950 . S
H550 C555 0.950 . S
H551 C556 0.949 . S
H552 C558 0.950 . S
H553 C559 0.950 . S
H554 C560 0.949 . S
C555 H550 0.950 . S
C555 C557 1.327 . S
C555 C561 1.429 . S
C556 C548 1.574 . S
C556 H551 0.949 . S
C556 C562 1.368 . S
C557 C541 1.349 . S
C557 H549 0.950 . S
C557 C555 1.327 . S
C558 C546 1.349 . S
C558 H552 0.950 . S
C558 C559 1.327 . S
C559 H553 0.950 . S
C559 C558 1.327 . S
C559 C563 1.429 . S
C560 C543 1.574 . S
C560 H554 0.949 . S
C560 C564 1.368 . S
C561 C542 1.429 . S
C561 C555 1.429 . S
C561 C562 1.523 . S
C562 C543 1.368 . S
C562 C556 1.368 . S
C562 C561 1.523 . S
C563 C547 1.429 . S
C563 C559 1.429 . S
C563 C564 1.523 . S
C564 C548 1.368 . S
C564 C560 1.368 . S
C564 C563 1.523 . S
H565 C540 0.950 . S
H566 C542 0.950 1_556 S
H567 C543 0.949 . S
H568 C545 0.950 . S
H569 C547 0.950 . S
C570 C571 1.349 . S
C570 C572 1.327 . S
C570 H595 0.950 . S
C571 C570 1.349 . S
C571 C587 1.349 . S
C572 C570 1.327 . S
C572 C591 1.429 . S
C572 H596 0.950 . S
C573 C590 1.574 . S
C573 C592 1.368 . S
C573 H597 0.949 . S
H574 C578 0.949 . S
C575 C576 1.349 . S
C575 C577 1.327 . S
C575 H598 0.950 . S
C576 C575 1.349 . S
C576 C588 1.349 . S
C577 C575 1.327 . S
C577 C593 1.429 . S
C577 H599 0.950 . S
C578 H574 0.949 . S
C578 C586 1.574 . S
C578 C594 1.368 . S
H579 C587 0.950 . S
H580 C585 0.950 . S
H581 C586 0.949 . S
H582 C588 0.950 . S
H583 C589 0.950 . S
H584 C590 0.949 . S
C585 H580 0.950 . S
C585 C587 1.327 . S
C585 C591 1.429 . S
C586 C578 1.574 . S
C586 H581 0.949 . S
C586 C592 1.368 . S
C587 C571 1.349 . S
C587 H579 0.950 . S
C587 C585 1.327 . S
C588 C576 1.349 . S
C588 H582 0.950 . S
C588 C589 1.327 . S
C589 H583 0.950 . S
C589 C588 1.327 . S
C589 C593 1.429 . S
C590 C573 1.574 . S
C590 H584 0.949 . S
C590 C594 1.368 . S
C591 C572 1.429 . S
C591 C585 1.429 . S
C591 C592 1.523 . S
C592 C573 1.368 . S
C592 C586 1.368 . S
C592 C591 1.523 . S
C593 C577 1.429 . S
C593 C589 1.429 . S
C593 C594 1.523 . S
C594 C578 1.368 . S
C594 C590 1.368 . S
C594 C593 1.523 . S
H595 C570 0.950 . S
H596 C572 0.950 . S
H597 C573 0.949 . S
H598 C575 0.950 . S
H599 C577 0.950 . S
C600 C601 1.349 . S
C600 C602 1.327 . S
C600 H625 0.950 . S
C601 C600 1.349 . S
C601 C617 1.349 . S
C602 C600 1.327 . S
C602 C621 1.429 . S
C602 H626 0.950 . S
C603 C620 1.574 . S
C603 C622 1.368 . S
C603 H627 0.949 . S
H604 C608 0.949 . S
C605 C606 1.349 . S
C605 C607 1.327 . S
C605 H628 0.950 . S
C606 C605 1.349 . S
C606 C618 1.349 . S
C607 C605 1.327 . S
C607 C623 1.429 . S
C607 H629 0.950 . S
C608 H604 0.949 . S
C608 C616 1.574 . S
C608 C624 1.368 . S
H609 C617 0.950 . S
H610 C615 0.950 . S
H611 C616 0.949 . S
H612 C618 0.950 . S
H613 C619 0.950 . S
H614 C620 0.949 . S
C615 H610 0.950 . S
C615 C617 1.327 . S
C615 C621 1.429 . S
C616 C608 1.574 . S
C616 H611 0.949 . S
C616 C622 1.368 . S
C617 C601 1.349 . S
C617 H609 0.950 . S
C617 C615 1.327 . S
C618 C606 1.349 . S
C618 H612 0.950 . S
C618 C619 1.327 . S
C619 H613 0.950 . S
C619 C618 1.327 . S
C619 C623 1.429 . S
C620 C603 1.574 . S
C620 H614 0.949 . S
C620 C624 1.368 . S
C621 C602 1.429 . S
C621 C615 1.429 . S
C621 C622 1.523 . S
C622 C603 1.368 . S
C622 C616 1.368 . S
C622 C621 1.523 . S
C623 C607 1.429 . S
C623 C619 1.429 . S
C623 C624 1.523 . S
C624 C608 1.368 . S
C624 C620 1.368 . S
C624 C623 1.523 . S
H625 C600 0.950 . S
H626 C602 0.950 . S
H627 C603 0.949 . S
H628 C605 0.950 . S
H629 C607 0.950 . S
C630 C631 1.349 . S
C630 C632 1.327 . S
C630 H655 0.950 . S
C631 C630 1.349 . S
C631 C647 1.349 . S
C632 C630 1.327 . S
C632 C651 1.429 . S
C632 H656 0.950 . S
C633 C650 1.574 . S
C633 C652 1.368 . S
C633 H657 0.949 . S
H634 C638 0.949 . S
C635 C636 1.349 . S
C635 C637 1.327 . S
C635 H658 0.950 . S
C636 C635 1.349 . S
C636 C648 1.349 . S
C637 C635 1.327 . S
C637 C653 1.429 . S
C637 H659 0.950 . S
C638 H634 0.949 . S
C638 C646 1.574 . S
C638 C654 1.368 . S
H639 C647 0.950 . S
H640 C645 0.950 . S
H641 C646 0.949 . S
H642 C648 0.950 . S
H643 C649 0.950 . S
H644 C650 0.949 . S
C645 H640 0.950 . S
C645 C647 1.327 . S
C645 C651 1.429 . S
C646 C638 1.574 . S
C646 H641 0.949 . S
C646 C652 1.368 . S
C647 C631 1.349 . S
C647 H639 0.950 . S
C647 C645 1.327 . S
C648 C636 1.349 . S
C648 H642 0.950 . S
C648 C649 1.327 . S
C649 H643 0.950 . S
C649 C648 1.327 . S
C649 C653 1.429 . S
C650 C633 1.574 . S
C650 H644 0.949 . S
C650 C654 1.368 . S
C651 C632 1.429 . S
C651 C645 1.429 . S
C651 C652 1.523 . S
C652 C633 1.368 . S
C652 C646 1.368 . S
C652 C651 1.523 . S
C653 C637 1.429 . S
C653 C649 1.429 . S
C653 C654 1.523 . S
C654 C638 1.368 . S
C654 C650 1.368 . S
C654 C653 1.523 . S
H655 C630 0.950 . S
H656 C632 0.950 . S
H657 C633 0.949 . S
H658 C635 0.950 . S
H659 C637 0.950 . S
C660 C661 1.349 . S
C660 C662 1.327 . S
C660 H685 0.950 . S
C661 C660 1.349 . S
C661 C677 1.349 . S
C662 C660 1.327 . S
C662 C681 1.429 . S
C662 H686 0.950 . S
C663 C680 1.574 . S
C663 C682 1.368 . S
C663 H687 0.949 . S
H664 C668 0.949 . S
C665 C666 1.349 . S
C665 C667 1.327 . S
C665 H688 0.950 . S
C666 C665 1.349 . S
C666 C678 1.349 . S
C667 C665 1.327 . S
C667 C683 1.429 . S
C667 H689 0.950 . S
C668 H664 0.949 . S
C668 C676 1.574 . S
C668 C684 1.368 . S
H669 C677 0.950 . S
H670 C675 0.950 . S
H671 C676 0.949 . S
H672 C678 0.950 . S
H673 C679 0.950 . S
H674 C680 0.949 . S
C675 H670 0.950 . S
C675 C677 1.327 . S
C675 C681 1.429 . S
C676 C668 1.574 . S
C676 H671 0.949 . S
C676 C682 1.368 . S
C677 C661 1.349 . S
C677 H669 0.950 . S
C677 C675 1.327 . S
C678 C666 1.349 . S
C678 H672 0.950 . S
C678 C679 1.327 . S
C679 H673 0.950 . S
C679 C678 1.327 . S
C679 C683 1.429 . S
C680 C663 1.574 . S
C680 H674 0.949 . S
C680 C684 1.368 . S
C681 C662 1.429 . S
C681 C675 1.429 . S
C681 C682 1.523 . S
C682 C663 1.368 . S
C682 C676 1.368 . S
C682 C681 1.523 . S
C683 C667 1.429 . S
C683 C679 1.429 . S
C683 C684 1.523 . S
C684 C668 1.368 . S
C684 C680 1.368 . S
C684 C683 1.523 . S
H685 C660 0.950 . S
H686 C662 0.950 . S
H687 C663 0.949 . S
H688 C665 0.950 . S
H689 C667 0.950 . S
C690 C691 1.349 . S
C690 C692 1.327 . S
C690 H715 0.950 . S
C691 C690 1.349 . S
C691 C707 1.349 . S
C692 C690 1.327 . S
C692 C711 1.429 . S
C692 H716 0.950 . S
C693 C710 1.574 . S
C693 C712 1.368 . S
C693 H717 0.949 . S
H694 C698 0.949 . S
C695 C696 1.349 . S
C695 C697 1.327 . S
C695 H718 0.950 . S
C696 C695 1.349 . S
C696 C708 1.349 . S
C697 C695 1.327 . S
C697 C713 1.429 . S
C697 H719 0.950 . S
C698 H694 0.949 . S
C698 C706 1.574 . S
C698 C714 1.368 . S
H699 C707 0.950 . S
H700 C705 0.950 . S
H701 C706 0.949 . S
H702 C708 0.950 . S
H703 C709 0.950 . S
H704 C710 0.949 . S
C705 H700 0.950 . S
C705 C707 1.327 . S
C705 C711 1.429 . S
C706 C698 1.574 . S
C706 H701 0.949 . S
C706 C712 1.368 . S
C707 C691 1.349 . S
C707 H699 0.950 . S
C707 C705 1.327 . S
C708 C696 1.349 . S
C708 H702 0.950 . S
C708 C709 1.327 . S
C709 H703 0.950 . S
C709 C708 1.327 . S
C709 C713 1.429 . S
C710 C693 1.574 . S
C710 H704 0.949 . S
C710 C714 1.368 . S
C711 C692 1.429 . S
C711 C705 1.429 . S
C711 C712 1.523 . S
C712 C693 1.368 . S
C712 C706 1.368 . S
C712 C711 1.523 . S
C713 C697 1.429 . S
C713 C709 1.429 . S
C713 C714 1.523 . S
C714 C698 1.368 . S
C714 C710 1.368 . S
C714 C713 1.523 . S
H715 C690 0.950 . S
H716 C692 0.950 . S
H717 C693 0.949 . S
H718 C695 0.950 . S
H719 C697 0.950 . S
C720 C721 1.349 . S
C720 C722 1.327 . S
C720 H745 0.950 . S
C721 C720 1.349 . S
C721 C737 1.349 . S
C722 C720 1.327 . S
C722 C741 1.429 . S
C722 H746 0.950 . S
C723 C740 1.574 . S
C723 C742 1.368 . S
C723 H747 0.949 . S
H724 C728 0.949 . S
C725 C726 1.349 . S
C725 C727 1.327 . S
C725 H748 0.950 . S
C726 C725 1.349 . S
C726 C738 1.349 . S
C727 C725 1.327 . S
C727 C743 1.429 . S
C727 H749 0.950 . S
C728 H724 0.949 . S
C728 C736 1.574 . S
C728 C744 1.368 . S
H729 C737 0.950 . S
H730 C735 0.950 . S
H731 C736 0.949 . S
H732 C738 0.950 . S
H733 C739 0.950 . S
H734 C740 0.949 . S
C735 H730 0.950 . S
C735 C737 1.327 . S
C735 C741 1.429 . S
C736 C728 1.574 . S
C736 H731 0.949 . S
C736 C742 1.368 . S
C737 C721 1.349 . S
C737 H729 0.950 . S
C737 C735 1.327 . S
C738 C726 1.349 . S
C738 H732 0.950 . S
C738 C739 1.327 . S
C739 H733 0.950 . S
C739 C738 1.327 . S
C739 C743 1.429 . S
C740 C723 1.574 . S
C740 H734 0.949 . S
C740 C744 1.368 . S
C741 C722 1.429 . S
C741 C735 1.429 . S
C741 C742 1.523 . S
C742 C723 1.368 . S
C742 C736 1.368 . S
C742 C741 1.523 . S
C743 C727 1.429 . S
C743 C739 1.429 . S
C743 C744 1.523 . S
C744 C728 1.368 . S
C744 C740 1.368 . S
C744 C743 1.523 . S
H745 C720 0.950 . S
H746 C722 0.950 . S
H747 C723 0.949 . S
H748 C725 0.950 . S
H749 C727 0.950 . S
C750 C751 1.349 . S
C750 C752 1.327 . S
C750 H775 0.950 . S
C751 C750 1.349 . S
C751 C767 1.349 . S
C752 C750 1.327 . S
C752 C771 1.429 . S
C752 H776 0.950 . S
C753 C770 1.574 . S
C753 C772 1.368 . S
C753 H777 0.949 . S
H754 C758 0.949 . S
C755 C756 1.349 . S
C755 C757 1.327 . S
C755 H778 0.950 1_455 S
C756 C755 1.349 . S
C756 C768 1.349 . S
C757 C755 1.327 . S
C757 C773 1.429 . S
C757 H779 0.950 . S
C758 H754 0.949 . S
C758 C766 1.574 . S
C758 C774 1.368 . S
H759 C767 0.950 . S
H760 C765 0.950 . S
H761 C766 0.949 . S
H762 C768 0.950 . S
H763 C769 0.950 . S
H764 C770 0.949 . S
C765 H760 0.950 . S
C765 C767 1.327 . S
C765 C771 1.429 . S
C766 C758 1.574 . S
C766 H761 0.949 . S
C766 C772 1.368 . S
C767 C751 1.349 . S
C767 H759 0.950 . S
C767 C765 1.327 . S
C768 C756 1.349 . S
C768 H762 0.950 . S
C768 C769 1.327 . S
C769 H763 0.950 . S
C769 C768 1.327 . S
C769 C773 1.429 . S
C770 C753 1.574 . S
C770 H764 0.949 . S
C770 C774 1.368 . S
C771 C752 1.429 . S
C771 C765 1.429 . S
C771 C772 1.523 . S
C772 C753 1.368 . S
C772 C766 1.368 . S
C772 C771 1.523 . S
C773 C757 1.429 . S
C773 C769 1.429 . S
C773 C774 1.523 . S
C774 C758 1.368 . S
C774 C770 1.368 . S
C774 C773 1.523 . S
H775 C750 0.950 . S
H776 C752 0.950 . S
H777 C753 0.949 . S
H778 C755 0.950 1_655 S
H779 C757 0.950 . S
C780 C781 1.349 . S
C780 C782 1.327 . S
C780 H805 0.950 . S
C781 C780 1.349 . S
C781 C797 1.349 . S
C782 C780 1.327 . S
C782 C801 1.429 . S
C782 H806 0.950 . S
C783 C800 1.574 . S
C783 C802 1.368 . S
C783 H807 0.949 . S
H784 C788 0.949 . S
C785 C786 1.349 . S
C785 C787 1.327 . S
C785 H808 0.950 . S
C786 C785 1.349 . S
C786 C798 1.349 . S
C787 C785 1.327 . S
C787 C803 1.429 . S
C787 H809 0.950 . S
C788 H784 0.949 . S
C788 C796 1.574 . S
C788 C804 1.368 . S
H789 C797 0.950 . S
H790 C795 0.950 . S
H791 C796 0.949 . S
H792 C798 0.950 . S
H793 C799 0.950 . S
H794 C800 0.949 . S
C795 H790 0.950 . S
C795 C797 1.327 . S
C795 C801 1.429 . S
C796 C788 1.574 . S
C796 H791 0.949 . S
C796 C802 1.368 . S
C797 C781 1.349 . S
C797 H789 0.950 . S
C797 C795 1.327 . S
C798 C786 1.349 . S
C798 H792 0.950 . S
C798 C799 1.327 . S
C799 H793 0.950 . S
C799 C798 1.327 . S
C799 C803 1.429 . S
C800 C783 1.574 . S
C800 H794 0.949 . S
C800 C804 1.368 . S
C801 C782 1.429 . S
C801 C795 1.429 . S
C801 C802 1.523 . S
C802 C783 1.368 . S
C802 C796 1.368 . S
C802 C801 1.523 . S
C803 C787 1.429 . S
C803 C799 1.429 . S
C803 C804 1.523 . S
C804 C788 1.368 . S
C804 C800 1.368 . S
C804 C803 1.523 . S
H805 C780 0.950 . S
H806 C782 0.950 . S
H807 C783 0.949 . S
H808 C785 0.950 . S
H809 C787 0.950 . S
C810 C811 1.349 . S
C810 C812 1.327 . S
C810 H835 0.950 . S
C811 C810 1.349 . S
C811 C827 1.349 . S
C812 C810 1.327 . S
C812 C831 1.429 . S
C812 H836 0.950 . S
C813 C830 1.574 . S
C813 C832 1.368 . S
C813 H837 0.949 . S
H814 C818 0.949 . S
C815 C816 1.349 . S
C815 C817 1.327 . S
C815 H838 0.950 . S
C816 C815 1.349 . S
C816 C828 1.349 . S
C817 C815 1.327 . S
C817 C833 1.429 . S
C817 H839 0.950 . S
C818 H814 0.949 . S
C818 C826 1.574 . S
C818 C834 1.368 . S
H819 C827 0.950 . S
H820 C825 0.950 . S
H821 C826 0.949 . S
H822 C828 0.950 . S
H823 C829 0.950 . S
H824 C830 0.949 . S
C825 H820 0.950 . S
C825 C827 1.327 . S
C825 C831 1.429 . S
C826 C818 1.574 . S
C826 H821 0.949 . S
C826 C832 1.368 . S
C827 C811 1.349 . S
C827 H819 0.950 . S
C827 C825 1.327 . S
C828 C816 1.349 . S
C828 H822 0.950 . S
C828 C829 1.327 . S
C829 H823 0.950 . S
C829 C828 1.327 . S
C829 C833 1.429 . S
C830 C813 1.574 . S
C830 H824 0.949 . S
C830 C834 1.368 . S
C831 C812 1.429 . S
C831 C825 1.429 . S
C831 C832 1.523 . S
C832 C813 1.368 . S
C832 C826 1.368 . S
C832 C831 1.523 . S
C833 C817 1.429 . S
C833 C829 1.429 . S
C833 C834 1.523 . S
C834 C818 1.368 . S
C834 C830 1.368 . S
C834 C833 1.523 . S
H835 C810 0.950 . S
H836 C812 0.950 . S
H837 C813 0.949 . S
H838 C815 0.950 . S
H839 C817 0.950 . S
C840 C841 1.349 . S
C840 C842 1.327 . S
C840 H865 0.950 . S
C841 C840 1.349 . S
C841 C857 1.349 . S
C842 C840 1.327 . S
C842 C861 1.429 . S
C842 H866 0.950 . S
C843 C860 1.574 . S
C843 C862 1.368 . S
C843 H867 0.949 . S
H844 C848 0.949 . S
C845 C846 1.349 . S
C845 C847 1.327 . S
C845 H868 0.950 . S
C846 C845 1.349 . S
C846 C858 1.349 . S
C847 C845 1.327 . S
C847 C863 1.429 . S
C847 H869 0.950 . S
C848 H844 0.949 . S
C848 C856 1.574 . S
C848 C864 1.368 . S
H849 C857 0.950 . S
H850 C855 0.950 . S
H851 C856 0.949 . S
H852 C858 0.950 . S
H853 C859 0.950 . S
H854 C860 0.949 . S
C855 H850 0.950 . S
C855 C857 1.327 . S
C855 C861 1.429 . S
C856 C848 1.574 . S
C856 H851 0.949 . S
C856 C862 1.368 . S
C857 C841 1.349 . S
C857 H849 0.950 . S
C857 C855 1.327 . S
C858 C846 1.349 . S
C858 H852 0.950 . S
C858 C859 1.327 . S
C859 H853 0.950 . S
C859 C858 1.327 . S
C859 C863 1.429 . S
C860 C843 1.574 . S
C860 H854 0.949 . S
C860 C864 1.368 . S
C861 C842 1.429 . S
C861 C855 1.429 . S
C861 C862 1.523 . S
C862 C843 1.368 . S
C862 C856 1.368 . S
C862 C861 1.523 . S
C863 C847 1.429 . S
C863 C859 1.429 . S
C863 C864 1.523 . S
C864 C848 1.368 . S
C864 C860 1.368 . S
C864 C863 1.523 . S
H865 C840 0.950 . S
H866 C842 0.950 . S
H867 C843 0.949 . S
H868 C845 0.950 . S
H869 C847 0.950 . S
C870 C871 1.349 . S
C870 C872 1.327 . S
C870 H895 0.950 . S
C871 C870 1.349 . S
C871 C887 1.349 . S
C872 C870 1.327 . S
C872 C891 1.429 . S
C872 H896 0.950 . S
C873 C890 1.574 . S
C873 C892 1.368 . S
C873 H897 0.949 . S
H874 C878 0.949 . S
C875 C876 1.349 . S
C875 C877 1.327 . S
C875 H898 0.950 . S
C876 C875 1.349 . S
C876 C888 1.349 . S
C877 C875 1.327 . S
C877 C893 1.429 . S
C877 H899 0.950 . S
C878 H874 0.949 . S
C878 C886 1.574 . S
C878 C894 1.368 . S
H879 C887 0.950 . S
H880 C885 0.950 . S
H881 C886 0.949 . S
H882 C888 0.950 1_545 S
H883 C889 0.950 . S
H884 C890 0.949 . S
C885 H880 0.950 . S
C885 C887 1.327 . S
C885 C891 1.429 . S
C886 C878 1.574 . S
C886 H881 0.949 . S
C886 C892 1.368 . S
C887 C871 1.349 . S
C887 H879 0.950 . S
C887 C885 1.327 . S
C888 C876 1.349 . S
C888 H882 0.950 1_565 S
C888 C889 1.327 . S
C889 H883 0.950 . S
C889 C888 1.327 . S
C889 C893 1.429 . S
C890 C873 1.574 . S
C890 H884 0.949 . S
C890 C894 1.368 . S
C891 C872 1.429 . S
C891 C885 1.429 . S
C891 C892 1.523 . S
C892 C873 1.368 . S
C892 C886 1.368 . S
C892 C891 1.523 . S
C893 C877 1.429 . S
C893 C889 1.429 . S
C893 C894 1.523 . S
C894 C878 1.368 . S
C894 C890 1.368 . S
C894 C893 1.523 . S
H895 C870 0.950 . S
H896 C872 0.950 . S
H897 C873 0.949 . S
H898 C875 0.950 . S
H899 C877 0.950 . S
C900 C901 1.349 . S
C900 C902 1.327 . S
C900 H925 0.950 . S
C901 C900 1.349 . S
C901 C917 1.349 . S
C902 C900 1.327 . S
C902 C921 1.429 . S
C902 H926 0.950 . S
C903 C920 1.574 . S
C903 C922 1.368 . S
C903 H927 0.949 . S
H904 C908 0.949 . S
C905 C906 1.349 . S
C905 C907 1.327 . S
C905 H928 0.950 . S
C906 C905 1.349 . S
C906 C918 1.349 . S
C907 C905 1.327 . S
C907 C923 1.429 . S
C907 H929 0.950 . S
C908 H904 0.949 . S
C908 C916 1.574 . S
C908 C924 1.368 . S
H909 C917 0.950 . S
H910 C915 0.950 . S
H911 C916 0.949 . S
H912 C918 0.950 . S
H913 C919 0.950 . S
H914 C920 0.949 . S
C915 H910 0.950 . S
C915 C917 1.327 . S
C915 C921 1.429 . S
C916 C908 1.574 . S
C916 H911 0.949 . S
C916 C922 1.368 . S
C917 C901 1.349 . S
C917 H909 0.950 . S
C917 C915 1.327 . S
C918 C906 1.349 . S
C918 H912 0.950 . S
C918 C919 1.327 . S
C919 H913 0.950 . S
C919 C918 1.327 . S
C919 C923 1.429 . S
C920 C903 1.574 . S
C920 H914 0.949 . S
C920 C924 1.368 . S
C921 C902 1.429 . S
C921 C915 1.429 . S
C921 C922 1.523 . S
C922 C903 1.368 . S
C922 C916 1.368 . S
C922 C921 1.523 . S
C923 C907 1.429 . S
C923 C919 1.429 . S
C923 C924 1.523 . S
C924 C908 1.368 . S
C924 C920 1.368 . S
C924 C923 1.523 . S
H925 C900 0.950 . S
H926 C902 0.950 . S
H927 C903 0.949 . S
H928 C905 0.950 . S
H929 C907 0.950 . S
C930 C931 1.349 . S
C930 C932 1.327 . S
C930 H955 0.950 . S
C931 C930 1.349 . S
C931 C947 1.349 . S
C932 C930 1.327 . S
C932 C951 1.429 . S
C932 H956 0.950 . S
C933 C950 1.574 . S
C933 C952 1.368 . S
C933 H957 0.949 1_556 S
H934 C938 0.949 . S
C935 C936 1.349 . S
C935 C937 1.327 . S
C935 H958 0.950 . S
C936 C935 1.349 . S
C936 C948 1.349 . S
C937 C935 1.327 . S
C937 C953 1.429 . S
C937 H959 0.950 . S
C938 H934 0.949 . S
C938 C946 1.574 . S
C938 C954 1.368 . S
H939 C947 0.950 . S
H940 C945 0.950 . S
H941 C946 0.949 . S
H942 C948 0.950 . S
H943 C949 0.950 . S
H944 C950 0.949 . S
C945 H940 0.950 . S
C945 C947 1.327 . S
C945 C951 1.429 . S
C946 C938 1.574 . S
C946 H941 0.949 . S
C946 C952 1.368 . S
C947 C931 1.349 . S
C947 H939 0.950 . S
C947 C945 1.327 . S
C948 C936 1.349 . S
C948 H942 0.950 . S
C948 C949 1.327 . S
C949 H943 0.950 . S
C949 C948 1.327 . S
C949 C953 1.429 . S
C950 C933 1.574 . S
C950 H944 0.949 . S
C950 C954 1.368 . S
C951 C932 1.429 . S
C951 C945 1.429 . S
C951 C952 1.523 1_554 S
C952 C933 1.368 . S
C952 C946 1.368 . S
C952 C951 1.523 1_556 S
C953 C937 1.429 . S
C953 C949 1.429 . S
C953 C954 1.523 . S
C954 C938 1.368 . S
C954 C950 1.368 . S
C954 C953 1.523 . S
H955 C930 0.950 . S
H956 C932 0.950 . S
H957 C933 0.949 1_554 S
H958 C935 0.950 . S
H959 C937 0.950 . S
C960 C961 1.349 . S
C960 C962 1.327 . S
C960 H985 0.950 . S
C961 C960 1.349 . S
C961 C977 1.349 . S
C962 C960 1.327 . S
C962 C981 1.429 . S
C962 H986 0.950 . S
C963 C980 1.574 . S
C963 C982 1.368 . S
C963 H987 0.949 . S
H964 C968 0.949 . S
C965 C966 1.349 . S
C965 C967 1.327 . S
C965 H988 0.950 . S
C966 C965 1.349 . S
C966 C978 1.349 . S
C967 C965 1.327 . S
C967 C983 1.429 . S
C967 H989 0.950 . S
C968 H964 0.949 . S
C968 C976 1.574 . S
C968 C984 1.368 . S
H969 C977 0.950 . S
H970 C975 0.950 . S
H971 C976 0.949 . S
H972 C978 0.950 . S
H973 C979 0.950 . S
H974 C980 0.949 . S
C975 H970 0.950 . S
C975 C977 1.327 . S
C975 C981 1.429 . S
C976 C968 1.574 . S
C976 H971 0.949 . S
C976 C982 1.368 . S
C977 C961 1.349 . S
C977 H969 0.950 . S
C977 C975 1.327 . S
C978 C966 1.349 . S
C978 H972 0.950 . S
C978 C979 1.327 . S
C979 H973 0.950 . S
C979 C978 1.327 . S
C979 C983 1.429 . S
C980 C963 1.574 . S
C980 H974 0.949 . S
C980 C984 1.368 . S
C981 C962 1.429 . S
C981 C975 1.429 . S
C981 C982 1.523 . S
C982 C963 1.368 . S
C982 C976 1.368 . S
C982 C981 1.523 . S
C983 C967 1.429 . S
C983 C979 1.429 . S
C983 C984 1.523 . S
C984 C968 1.368 . S
C984 C980 1.368 . S
C984 C983 1.523 . S
H985 C960 0.950 . S
H986 C962 0.950 . S
H987 C963 0.949 . S
H988 C965 0.950 . S
H989 C967 0.950 . S
C990 C991 1.349 . S
C990 C992 1.327 . S
C990 H1015 0.950 . S
C991 C990 1.349 . S
C991 C1007 1.349 . S
C992 C990 1.327 . S
C992 C1011 1.429 1_554 S
C992 H1016 0.950 1_554 S
C993 C1010 1.574 . S
C993 C1012 1.368 . S
C993 H1017 0.949 . S
H994 C998 0.949 . S
C995 C996 1.349 . S
C995 C997 1.327 . S
C995 H1018 0.950 . S
C996 C995 1.349 . S
C996 C1008 1.349 . S
C997 C995 1.327 . S
C997 C1013 1.429 . S
C997 H1019 0.950 . S
C998 H994 0.949 . S
C998 C1006 1.574 . S
C998 C1014 1.368 . S
H999 C1007 0.950 . S
H1000 C1005 0.950 . S
H1001 C1006 0.949 . S
H1002 C1008 0.950 . S
H1003 C1009 0.950 . S
H1004 C1010 0.949 . S
C1005 H1000 0.950 . S
C1005 C1007 1.327 . S
C1005 C1011 1.429 1_554 S
C1006 C998 1.574 . S
C1006 H1001 0.949 . S
C1006 C1012 1.368 . S
C1007 C991 1.349 . S
C1007 H999 0.950 . S
C1007 C1005 1.327 . S
C1008 C996 1.349 . S
C1008 H1002 0.950 . S
C1008 C1009 1.327 . S
C1009 H1003 0.950 . S
C1009 C1008 1.327 . S
C1009 C1013 1.429 . S
C1010 C993 1.574 . S
C1010 H1004 0.949 . S
C1010 C1014 1.368 . S
C1011 C992 1.429 1_556 S
C1011 C1005 1.429 1_556 S
C1011 C1012 1.523 . S
C1012 C993 1.368 . S
C1012 C1006 1.368 . S
C1012 C1011 1.523 . S
C1013 C997 1.429 . S
C1013 C1009 1.429 . S
C1013 C1014 1.523 . S
C1014 C998 1.368 . S
C1014 C1010 1.368 . S
C1014 C1013 1.523 . S
H1015 C990 0.950 . S
H1016 C992 0.950 1_556 S
H1017 C993 0.949 . S
H1018 C995 0.950 . S
H1019 C997 0.950 . S
C1020 C1021 1.349 . S
C1020 C1022 1.327 . S
C1020 H1045 0.950 . S
C1021 C1020 1.349 . S
C1021 C1037 1.349 . S
C1022 C1020 1.327 . S
C1022 C1041 1.429 . S
C1022 H1046 0.950 . S
C1023 C1040 1.574 . S
C1023 C1042 1.368 . S
C1023 H1047 0.949 . S
H1024 C1028 0.949 . S
C1025 C1026 1.349 . S
C1025 C1027 1.327 . S
C1025 H1048 0.950 . S
C1026 C1025 1.349 . S
C1026 C1038 1.349 . S
C1027 C1025 1.327 . S
C1027 C1043 1.429 . S
C1027 H1049 0.950 . S
C1028 H1024 0.949 . S
C1028 C1036 1.574 . S
C1028 C1044 1.368 . S
H1029 C1037 0.950 . S
H1030 C1035 0.950 . S
H1031 C1036 0.949 . S
H1032 C1038 0.950 . S
H1033 C1039 0.950 . S
H1034 C1040 0.949 . S
C1035 H1030 0.950 . S
C1035 C1037 1.327 . S
C1035 C1041 1.429 . S
C1036 C1028 1.574 . S
C1036 H1031 0.949 . S
C1036 C1042 1.368 . S
C1037 C1021 1.349 . S
C1037 H1029 0.950 . S
C1037 C1035 1.327 . S
C1038 C1026 1.349 . S
C1038 H1032 0.950 . S
C1038 C1039 1.327 . S
C1039 H1033 0.950 . S
C1039 C1038 1.327 . S
C1039 C1043 1.429 . S
C1040 C1023 1.574 . S
C1040 H1034 0.949 . S
C1040 C1044 1.368 . S
C1041 C1022 1.429 . S
C1041 C1035 1.429 . S
C1041 C1042 1.523 . S
C1042 C1023 1.368 . S
C1042 C1036 1.368 . S
C1042 C1041 1.523 . S
C1043 C1027 1.429 . S
C1043 C1039 1.429 . S
C1043 C1044 1.523 . S
C1044 C1028 1.368 . S
C1044 C1040 1.368 . S
C1044 C1043 1.523 . S
H1045 C1020 0.950 . S
H1046 C1022 0.950 . S
H1047 C1023 0.949 . S
H1048 C1025 0.950 . S
H1049 C1027 0.950 . S
C1050 C1051 1.349 . S
C1050 C1052 1.327 . S
C1050 H1075 0.950 . S
C1051 C1050 1.349 . S
C1051 C1067 1.349 . S
C1052 C1050 1.327 . S
C1052 C1071 1.429 . S
C1052 H1076 0.950 . S
C1053 C1070 1.574 . S
C1053 C1072 1.368 . S
C1053 H1077 0.949 . S
H1054 C1058 0.949 . S
C1055 C1056 1.349 . S
C1055 C1057 1.327 . S
C1055 H1078 0.950 . S
C1056 C1055 1.349 . S
C1056 C1068 1.349 . S
C1057 C1055 1.327 . S
C1057 C1073 1.429 . S
C1057 H1079 0.950 . S
C1058 H1054 0.949 . S
C1058 C1066 1.574 . S
C1058 C1074 1.368 . S
H1059 C1067 0.950 . S
H1060 C1065 0.950 . S
H1061 C1066 0.949 . S
H1062 C1068 0.950 . S
H1063 C1069 0.950 . S
H1064 C1070 0.949 . S
C1065 H1060 0.950 . S
C1065 C1067 1.327 . S
C1065 C1071 1.429 . S
C1066 C1058 1.574 . S
C1066 H1061 0.949 . S
C1066 C1072 1.368 . S
C1067 C1051 1.349 . S
C1067 H1059 0.950 . S
C1067 C1065 1.327 . S
C1068 C1056 1.349 . S
C1068 H1062 0.950 . S
C1068 C1069 1.327 . S
C1069 H1063 0.950 . S
C1069 C1068 1.327 . S
C1069 C1073 1.429 . S
C1070 C1053 1.574 . S
C1070 H1064 0.949 . S
C1070 C1074 1.368 . S
C1071 C1052 1.429 . S
C1071 C1065 1.429 . S
C1071 C1072 1.523 . S
C1072 C1053 1.368 . S
C1072 C1066 1.368 . S
C1072 C1071 1.523 . S
C1073 C1057 1.429 . S
C1073 C1069 1.429 . S
C1073 C1074 1.523 . S
C1074 C1058 1.368 . S
C1074 C1070 1.368 . S
C1074 C1073 1.523 . S
H1075 C1050 0.950 . S
H1076 C1052 0.950 . S
H1077 C1053 0.949 . S
H1078 C1055 0.950 . S
H1079 C1057 0.950 . S
C1080 C1081 1.349 . S
C1080 C1082 1.327 . S
C1080 H1105 0.950 . S
C1081 C1080 1.349 . S
C1081 C1097 1.349 . S
C1082 C1080 1.327 . S
C1082 C1101 1.429 . S
C1082 H1106 0.950 . S
C1083 C1100 1.574 . S
C1083 C1102 1.368 . S
C1083 H1107 0.949 . S
H1084 C1088 0.949 . S
C1085 C1086 1.349 . S
C1085 C1087 1.327 . S
C1085 H1108 0.950 . S
C1086 C1085 1.349 . S
C1086 C1098 1.349 . S
C1087 C1085 1.327 . S
C1087 C1103 1.429 . S
C1087 H1109 0.950 . S
C1088 H1084 0.949 . S
C1088 C1096 1.574 . S
C1088 C1104 1.368 . S
H1089 C1097 0.950 . S
H1090 C1095 0.950 . S
H1091 C1096 0.949 . S
H1092 C1098 0.950 . S
H1093 C1099 0.950 . S
H1094 C1100 0.949 . S
C1095 H1090 0.950 . S
C1095 C1097 1.327 . S
C1095 C1101 1.429 . S
C1096 C1088 1.574 . S
C1096 H1091 0.949 . S
C1096 C1102 1.368 . S
C1097 C1081 1.349 . S
C1097 H1089 0.950 . S
C1097 C1095 1.327 . S
C1098 C1086 1.349 . S
C1098 H1092 0.950 . S
C1098 C1099 1.327 . S
C1099 H1093 0.950 . S
C1099 C1098 1.327 . S
C1099 C1103 1.429 . S
C1100 C1083 1.574 . S
C1100 H1094 0.949 . S
C1100 C1104 1.368 . S
C1101 C1082 1.429 . S
C1101 C1095 1.429 . S
C1101 C1102 1.523 . S
C1102 C1083 1.368 . S
C1102 C1096 1.368 . S
C1102 C1101 1.523 . S
C1103 C1087 1.429 . S
C1103 C1099 1.429 . S
C1103 C1104 1.523 . S
C1104 C1088 1.368 . S
C1104 C1100 1.368 . S
C1104 C1103 1.523 . S
H1105 C1080 0.950 . S
H1106 C1082 0.950 . S
H1107 C1083 0.949 . S
H1108 C1085 0.950 . S
H1109 C1087 0.950 . S
C1110 C1111 1.349 . S
C1110 C1112 1.327 . S
C1110 H1135 0.950 . S
C1111 C1110 1.349 . S
C1111 C1127 1.349 . S
C1112 C1110 1.327 . S
C1112 C1131 1.429 . S
C1112 H1136 0.950 . S
C1113 C1130 1.574 1_545 S
C1113 C1132 1.368 . S
C1113 H1137 0.949 . S
H1114 C1118 0.949 . S
C1115 C1116 1.349 . S
C1115 C1117 1.327 . S
C1115 H1138 0.950 . S
C1116 C1115 1.349 . S
C1116 C1128 1.349 . S
C1117 C1115 1.327 . S
C1117 C1133 1.429 . S
C1117 H1139 0.950 . S
C1118 H1114 0.949 . S
C1118 C1126 1.574 . S
C1118 C1134 1.368 1_545 S
H1119 C1127 0.950 . S
H1120 C1125 0.950 . S
H1121 C1126 0.949 . S
H1122 C1128 0.950 . S
H1123 C1129 0.950 . S
H1124 C1130 0.949 . S
C1125 H1120 0.950 . S
C1125 C1127 1.327 . S
C1125 C1131 1.429 . S
C1126 C1118 1.574 . S
C1126 H1121 0.949 . S
C1126 C1132 1.368 . S
C1127 C1111 1.349 . S
C1127 H1119 0.950 . S
C1127 C1125 1.327 . S
C1128 C1116 1.349 . S
C1128 H1122 0.950 . S
C1128 C1129 1.327 . S
C1129 H1123 0.950 . S
C1129 C1128 1.327 . S
C1129 C1133 1.429 . S
C1130 C1113 1.574 1_565 S
C1130 H1124 0.949 . S
C1130 C1134 1.368 . S
C1131 C1112 1.429 . S
C1131 C1125 1.429 . S
C1131 C1132 1.523 . S
C1132 C1113 1.368 . S
C1132 C1126 1.368 . S
C1132 C1131 1.523 . S
C1133 C1117 1.429 . S
C1133 C1129 1.429 . S
C1133 C1134 1.523 . S
C1134 C1118 1.368 1_565 S
C1134 C1130 1.368 . S
C1134 C1133 1.523 . S
H1135 C1110 0.950 . S
H1136 C1112 0.950 . S
H1137 C1113 0.949 . S
H1138 C1115 0.950 . S
H1139 C1117 0.950 . S
C1140 C1141 1.349 . S
C1140 C1142 1.327 . S
C1140 H1165 0.950 . S
C1141 C1140 1.349 . S
C1141 C1157 1.349 . S
C1142 C1140 1.327 . S
C1142 C1161 1.429 . S
C1142 H1166 0.950 . S
C1143 C1160 1.574 . S
C1143 C1162 1.368 . S
C1143 H1167 0.949 . S
H1144 C1148 0.949 . S
C1145 C1146 1.349 . S
C1145 C1147 1.327 . S
C1145 H1168 0.950 . S
C1146 C1145 1.349 . S
C1146 C1158 1.349 . S
C1147 C1145 1.327 . S
C1147 C1163 1.429 . S
C1147 H1169 0.950 . S
C1148 H1144 0.949 . S
C1148 C1156 1.574 . S
C1148 C1164 1.368 . S
H1149 C1157 0.950 . S
H1150 C1155 0.950 . S
H1151 C1156 0.949 . S
H1152 C1158 0.950 . S
H1153 C1159 0.950 . S
H1154 C1160 0.949 . S
C1155 H1150 0.950 . S
C1155 C1157 1.327 . S
C1155 C1161 1.429 . S
C1156 C1148 1.574 . S
C1156 H1151 0.949 . S
C1156 C1162 1.368 . S
C1157 C1141 1.349 . S
C1157 H1149 0.950 . S
C1157 C1155 1.327 . S
C1158 C1146 1.349 . S
C1158 H1152 0.950 . S
C1158 C1159 1.327 . S
C1159 H1153 0.950 . S
C1159 C1158 1.327 . S
C1159 C1163 1.429 . S
C1160 C1143 1.574 . S
C1160 H1154 0.949 . S
C1160 C1164 1.368 . S
C1161 C1142 1.429 . S
C1161 C1155 1.429 . S
C1161 C1162 1.523 . S
C1162 C1143 1.368 . S
C1162 C1156 1.368 . S
C1162 C1161 1.523 . S
C1163 C1147 1.429 . S
C1163 C1159 1.429 . S
C1163 C1164 1.523 . S
C1164 C1148 1.368 . S
C1164 C1160 1.368 . S
C1164 C1163 1.523 . S
H1165 C1140 0.950 . S
H1166 C1142 0.950 . S
H1167 C1143 0.949 . S
H1168 C1145 0.950 . S
H1169 C1147 0.950 . S
C1170 C1171 1.349 . S
C1170 C1172 1.327 . S
C1170 H1195 0.950 . S
C1171 C1170 1.349 . S
C1171 C1187 1.349 . S
C1172 C1170 1.327 . S
C1172 C1191 1.429 . S
C1172 H1196 0.950 . S
C1173 C1190 1.574 . S
C1173 C1192 1.368 1_565 S
C1173 H1197 0.949 1_565 S
H1174 C1178 0.949 . S
C1175 C1176 1.349 . S
C1175 C1177 1.327 . S
C1175 H1198 0.950 . S
C1176 C1175 1.349 . S
C1176 C1188 1.349 . S
C1177 C1175 1.327 . S
C1177 C1193 1.429 . S
C1177 H1199 0.950 . S
C1178 H1174 0.949 . S
C1178 C1186 1.574 1_565 S
C1178 C1194 1.368 . S
H1179 C1187 0.950 . S
H1180 C1185 0.950 . S
H1181 C1186 0.949 . S
H1182 C1188 0.950 . S
H1183 C1189 0.950 . S
H1184 C1190 0.949 . S
C1185 H1180 0.950 . S
C1185 C1187 1.327 . S
C1185 C1191 1.429 . S
C1186 C1178 1.574 1_545 S
C1186 H1181 0.949 . S
C1186 C1192 1.368 . S
C1187 C1171 1.349 . S
C1187 H1179 0.950 . S
C1187 C1185 1.327 . S
C1188 C1176 1.349 . S
C1188 H1182 0.950 . S
C1188 C1189 1.327 . S
C1189 H1183 0.950 . S
C1189 C1188 1.327 . S
C1189 C1193 1.429 . S
C1190 C1173 1.574 . S
C1190 H1184 0.949 . S
C1190 C1194 1.368 . S
C1191 C1172 1.429 . S
C1191 C1185 1.429 . S
C1191 C1192 1.523 . S
C1192 C1173 1.368 1_545 S
C1192 C1186 1.368 . S
C1192 C1191 1.523 . S
C1193 C1177 1.429 . S
C1193 C1189 1.429 . S
C1193 C1194 1.523 . S
C1194 C1178 1.368 . S
C1194 C1190 1.368 . S
C1194 C1193 1.523 . S
H1195 C1170 0.950 . S
H1196 C1172 0.950 . S
H1197 C1173 0.949 1_545 S
H1198 C1175 0.950 . S
H1199 C1177 0.950 . S
C1200 C1201 1.349 . S
C1200 C1202 1.327 . S
C1200 H1225 0.950 . S
C1201 C1200 1.349 . S
C1201 C1217 1.349 . S
C1202 C1200 1.327 . S
C1202 C1221 1.429 . S
C1202 H1226 0.950 . S
C1203 C1220 1.574 . S
C1203 C1222 1.368 . S
C1203 H1227 0.949 . S
H1204 C1208 0.949 . S
C1205 C1206 1.349 . S
C1205 C1207 1.327 . S
C1205 H1228 0.950 . S
C1206 C1205 1.349 . S
C1206 C1218 1.349 . S
C1207 C1205 1.327 . S
C1207 C1223 1.429 . S
C1207 H1229 0.950 . S
C1208 H1204 0.949 . S
C1208 C1216 1.574 . S
C1208 C1224 1.368 . S
H1209 C1217 0.950 . S
H1210 C1215 0.950 . S
H1211 C1216 0.949 . S
H1212 C1218 0.950 . S
H1213 C1219 0.950 . S
H1214 C1220 0.949 . S
C1215 H1210 0.950 . S
C1215 C1217 1.327 . S
C1215 C1221 1.429 . S
C1216 C1208 1.574 . S
C1216 H1211 0.949 . S
C1216 C1222 1.368 . S
C1217 C1201 1.349 . S
C1217 H1209 0.950 . S
C1217 C1215 1.327 . S
C1218 C1206 1.349 . S
C1218 H1212 0.950 . S
C1218 C1219 1.327 . S
C1219 H1213 0.950 . S
C1219 C1218 1.327 . S
C1219 C1223 1.429 . S
C1220 C1203 1.574 . S
C1220 H1214 0.949 . S
C1220 C1224 1.368 . S
C1221 C1202 1.429 . S
C1221 C1215 1.429 . S
C1221 C1222 1.523 . S
C1222 C1203 1.368 . S
C1222 C1216 1.368 . S
C1222 C1221 1.523 . S
C1223 C1207 1.429 . S
C1223 C1219 1.429 . S
C1223 C1224 1.523 . S
C1224 C1208 1.368 . S
C1224 C1220 1.368 . S
C1224 C1223 1.523 . S
H1225 C1200 0.950 . S
H1226 C1202 0.950 . S
H1227 C1203 0.949 . S
H1228 C1205 0.950 . S
H1229 C1207 0.950 . S
C1230 C1231 1.349 . S
C1230 C1232 1.327 . S
C1230 H1255 0.950 . S
C1231 C1230 1.349 . S
C1231 C1247 1.349 . S
C1232 C1230 1.327 . S
C1232 C1251 1.429 . S
C1232 H1256 0.950 . S
C1233 C1250 1.574 . S
C1233 C1252 1.368 . S
C1233 H1257 0.949 . S
H1234 C1238 0.949 . S
C1235 C1236 1.349 . S
C1235 C1237 1.327 . S
C1235 H1258 0.950 . S
C1236 C1235 1.349 . S
C1236 C1248 1.349 . S
C1237 C1235 1.327 . S
C1237 C1253 1.429 . S
C1237 H1259 0.950 . S
C1238 H1234 0.949 . S
C1238 C1246 1.574 . S
C1238 C1254 1.368 . S
H1239 C1247 0.950 . S
H1240 C1245 0.950 . S
H1241 C1246 0.949 . S
H1242 C1248 0.950 . S
H1243 C1249 0.950 . S
H1244 C1250 0.949 . S
C1245 H1240 0.950 . S
C1245 C1247 1.327 . S
C1245 C1251 1.429 . S
C1246 C1238 1.574 . S
C1246 H1241 0.949 . S
C1246 C1252 1.368 . S
C1247 C1231 1.349 . S
C1247 H1239 0.950 . S
C1247 C1245 1.327 . S
C1248 C1236 1.349 . S
C1248 H1242 0.950 . S
C1248 C1249 1.327 . S
C1249 H1243 0.950 . S
C1249 C1248 1.327 . S
C1249 C1253 1.429 . S
C1250 C1233 1.574 . S
C1250 H1244 0.949 . S
C1250 C1254 1.368 . S
C1251 C1232 1.429 . S
C1251 C1245 1.429 . S
C1251 C1252 1.523 . S
C1252 C1233 1.368 . S
C1252 C1246 1.368 . S
C1252 C1251 1.523 . S
C1253 C1237 1.429 . S
C1253 C1249 1.429 . S
C1253 C1254 1.523 . S
C1254 C1238 1.368 . S
C1254 C1250 1.368 . S
C1254 C1253 1.523 . S
H1255 C1230 0.950 . S
H1256 C1232 0.950 . S
H1257 C1233 0.949 . S
H1258 C1235 0.950 . S
H1259 C1237 0.950 . S
C1260 C1261 1.349 . S
C1260 C1262 1.327 . S
C1260 H1285 0.950 . S
C1261 C1260 1.349 . S
C1261 C1277 1.349 . S
C1262 C1260 1.327 . S
C1262 C1281 1.429 . S
C1262 H1286 0.950 . S
C1263 C1280 1.574 . S
C1263 C1282 1.368 . S
C1263 H1287 0.949 . S
H1264 C1268 0.949 . S
C1265 C1266 1.349 . S
C1265 C1267 1.327 . S
C1265 H1288 0.950 . S
C1266 C1265 1.349 . S
C1266 C1278 1.349 . S
C1267 C1265 1.327 . S
C1267 C1283 1.429 . S
C1267 H1289 0.950 . S
C1268 H1264 0.949 . S
C1268 C1276 1.574 . S
C1268 C1284 1.368 . S
H1269 C1277 0.950 . S
H1270 C1275 0.950 . S
H1271 C1276 0.949 . S
H1272 C1278 0.950 . S
H1273 C1279 0.950 . S
H1274 C1280 0.949 . S
C1275 H1270 0.950 . S
C1275 C1277 1.327 . S
C1275 C1281 1.429 . S
C1276 C1268 1.574 . S
C1276 H1271 0.949 . S
C1276 C1282 1.368 . S
C1277 C1261 1.349 . S
C1277 H1269 0.950 . S
C1277 C1275 1.327 . S
C1278 C1266 1.349 . S
C1278 H1272 0.950 . S
C1278 C1279 1.327 . S
C1279 H1273 0.950 . S
C1279 C1278 1.327 . S
C1279 C1283 1.429 . S
C1280 C1263 1.574 . S
C1280 H1274 0.949 . S
C1280 C1284 1.368 . S
C1281 C1262 1.429 . S
C1281 C1275 1.429 . S
C1281 C1282 1.523 . S
C1282 C1263 1.368 . S
C1282 C1276 1.368 . S
C1282 C1281 1.523 . S
C1283 C1267 1.429 . S
C1283 C1279 1.429 . S
C1283 C1284 1.523 . S
C1284 C1268 1.368 . S
C1284 C1280 1.368 . S
C1284 C1283 1.523 . S
H1285 C1260 0.950 . S
H1286 C1262 0.950 . S
H1287 C1263 0.949 . S
H1288 C1265 0.950 . S
H1289 C1267 0.950 . S
C1290 C1291 1.349 . S
C1290 C1292 1.327 . S
C1290 H1315 0.950 . S
C1291 C1290 1.349 . S
C1291 C1307 1.349 . S
C1292 C1290 1.327 . S
C1292 C1311 1.429 . S
C1292 H1316 0.950 . S
C1293 C1310 1.574 . S
C1293 C1312 1.368 . S
C1293 H1317 0.949 . S
H1294 C1298 0.949 . S
C1295 C1296 1.349 . S
C1295 C1297 1.327 . S
C1295 H1318 0.950 . S
C1296 C1295 1.349 . S
C1296 C1308 1.349 . S
C1297 C1295 1.327 . S
C1297 C1313 1.429 . S
C1297 H1319 0.950 . S
C1298 H1294 0.949 . S
C1298 C1306 1.574 . S
C1298 C1314 1.368 . S
H1299 C1307 0.950 . S
H1300 C1305 0.950 . S
H1301 C1306 0.949 . S
H1302 C1308 0.950 . S
H1303 C1309 0.950 . S
H1304 C1310 0.949 . S
C1305 H1300 0.950 . S
C1305 C1307 1.327 . S
C1305 C1311 1.429 . S
C1306 C1298 1.574 . S
C1306 H1301 0.949 . S
C1306 C1312 1.368 . S
C1307 C1291 1.349 . S
C1307 H1299 0.950 . S
C1307 C1305 1.327 . S
C1308 C1296 1.349 . S
C1308 H1302 0.950 . S
C1308 C1309 1.327 . S
C1309 H1303 0.950 . S
C1309 C1308 1.327 . S
C1309 C1313 1.429 . S
C1310 C1293 1.574 . S
C1310 H1304 0.949 . S
C1310 C1314 1.368 . S
C1311 C1292 1.429 . S
C1311 C1305 1.429 . S
C1311 C1312 1.523 . S
C1312 C1293 1.368 . S
C1312 C1306 1.368 . S
C1312 C1311 1.523 . S
C1313 C1297 1.429 . S
C1313 C1309 1.429 . S
C1313 C1314 1.523 . S
C1314 C1298 1.368 . S
C1314 C1310 1.368 . S
C1314 C1313 1.523 . S
H1315 C1290 0.950 . S
H1316 C1292 0.950 . S
H1317 C1293 0.949 . S
H1318 C1295 0.950 . S
H1319 C1297 0.950 . S
C1320 C1321 1.349 . S
C1320 C1322 1.327 . S
C1320 H1345 0.950 . S
C1321 C1320 1.349 . S
C1321 C1337 1.349 . S
C1322 C1320 1.327 . S
C1322 C1341 1.429 . S
C1322 H1346 0.950 . S
C1323 C1340 1.574 . S
C1323 C1342 1.368 . S
C1323 H1347 0.949 . S
H1324 C1328 0.949 . S
C1325 C1326 1.349 . S
C1325 C1327 1.327 . S
C1325 H1348 0.950 . S
C1326 C1325 1.349 . S
C1326 C1338 1.349 . S
C1327 C1325 1.327 . S
C1327 C1343 1.429 . S
C1327 H1349 0.950 . S
C1328 H1324 0.949 . S
C1328 C1336 1.574 . S
C1328 C1344 1.368 . S
H1329 C1337 0.950 . S
H1330 C1335 0.950 . S
H1331 C1336 0.949 . S
H1332 C1338 0.950 . S
H1333 C1339 0.950 . S
H1334 C1340 0.949 . S
C1335 H1330 0.950 . S
C1335 C1337 1.327 . S
C1335 C1341 1.429 . S
C1336 C1328 1.574 . S
C1336 H1331 0.949 . S
C1336 C1342 1.368 . S
C1337 C1321 1.349 . S
C1337 H1329 0.950 . S
C1337 C1335 1.327 . S
C1338 C1326 1.349 . S
C1338 H1332 0.950 . S
C1338 C1339 1.327 . S
C1339 H1333 0.950 . S
C1339 C1338 1.327 . S
C1339 C1343 1.429 . S
C1340 C1323 1.574 . S
C1340 H1334 0.949 . S
C1340 C1344 1.368 . S
C1341 C1322 1.429 . S
C1341 C1335 1.429 . S
C1341 C1342 1.523 . S
C1342 C1323 1.368 . S
C1342 C1336 1.368 . S
C1342 C1341 1.523 . S
C1343 C1327 1.429 . S
C1343 C1339 1.429 . S
C1343 C1344 1.523 . S
C1344 C1328 1.368 . S
C1344 C1340 1.368 . S
C1344 C1343 1.523 . S
H1345 C1320 0.950 . S
H1346 C1322 0.950 . S
H1347 C1323 0.949 . S
H1348 C1325 0.950 . S
H1349 C1327 0.950 . S
C1350 C1351 1.349 . S
C1350 C1352 1.327 . S
C1350 H1375 0.950 . S
C1351 C1350 1.349 . S
C1351 C1367 1.349 . S
C1352 C1350 1.327 . S
C1352 C1371 1.429 . S
C1352 H1376 0.950 . S
C1353 C1370 1.574 . S
C1353 C1372 1.368 . S
C1353 H1377 0.949 . S
H1354 C1358 0.949 . S
C1355 C1356 1.349 . S
C1355 C1357 1.327 . S
C1355 H1378 0.950 . S
C1356 C1355 1.349 . S
C1356 C1368 1.349 . S
C1357 C1355 1.327 . S
C1357 C1373 1.429 . S
C1357 H1379 0.950 . S
C1358 H1354 0.949 . S
C1358 C1366 1.574 . S
C1358 C1374 1.368 . S
H1359 C1367 0.950 . S
H1360 C1365 0.950 . S
H1361 C1366 0.949 . S
H1362 C1368 0.950 . S
H1363 C1369 0.950 . S
H1364 C1370 0.949 . S
C1365 H1360 0.950 . S
C1365 C1367 1.327 . S
C1365 C1371 1.429 . S
C1366 C1358 1.574 . S
C1366 H1361 0.949 . S
C1366 C1372 1.368 . S
C1367 C1351 1.349 . S
C1367 H1359 0.950 . S
C1367 C1365 1.327 . S
C1368 C1356 1.349 . S
C1368 H1362 0.950 . S
C1368 C1369 1.327 . S
C1369 H1363 0.950 . S
C1369 C1368 1.327 . S
C1369 C1373 1.429 . S
C1370 C1353 1.574 . S
C1370 H1364 0.949 . S
C1370 C1374 1.368 . S
C1371 C1352 1.429 . S
C1371 C1365 1.429 . S
C1371 C1372 1.523 . S
C1372 C1353 1.368 . S
C1372 C1366 1.368 . S
C1372 C1371 1.523 . S
C1373 C1357 1.429 . S
C1373 C1369 1.429 . S
C1373 C1374 1.523 . S
C1374 C1358 1.368 . S
C1374 C1370 1.368 . S
C1374 C1373 1.523 . S
H1375 C1350 0.950 . S
H1376 C1352 0.950 . S
H1377 C1353 0.949 . S
H1378 C1355 0.950 . S
H1379 C1357 0.950 . S
C1380 C1381 1.349 . S
C1380 C1382 1.327 . S
C1380 H1405 0.950 . S
C1381 C1380 1.349 . S
C1381 C1397 1.349 . S
C1382 C1380 1.327 . S
C1382 C1401 1.429 . S
C1382 H1406 0.950 . S
C1383 C1400 1.574 1_455 S
C1383 C1402 1.368 . S
C1383 H1407 0.949 . S
H1384 C1388 0.949 . S
C1385 C1386 1.349 . S
C1385 C1387 1.327 . S
C1385 H1408 0.950 . S
C1386 C1385 1.349 . S
C1386 C1398 1.349 . S
C1387 C1385 1.327 . S
C1387 C1403 1.429 . S
C1387 H1409 0.950 . S
C1388 H1384 0.949 . S
C1388 C1396 1.574 1_655 S
C1388 C1404 1.368 . S
H1389 C1397 0.950 . S
H1390 C1395 0.950 . S
H1391 C1396 0.949 . S
H1392 C1398 0.950 . S
H1393 C1399 0.950 . S
H1394 C1400 0.949 . S
C1395 H1390 0.950 . S
C1395 C1397 1.327 . S
C1395 C1401 1.429 . S
C1396 C1388 1.574 1_455 S
C1396 H1391 0.949 . S
C1396 C1402 1.368 . S
C1397 C1381 1.349 . S
C1397 H1389 0.950 . S
C1397 C1395 1.327 . S
C1398 C1386 1.349 . S
C1398 H1392 0.950 . S
C1398 C1399 1.327 . S
C1399 H1393 0.950 . S
C1399 C1398 1.327 . S
C1399 C1403 1.429 . S
C1400 C1383 1.574 1_655 S
C1400 H1394 0.949 . S
C1400 C1404 1.368 . S
C1401 C1382 1.429 . S
C1401 C1395 1.429 . S
C1401 C1402 1.523 . S
C1402 C1383 1.368 . S
C1402 C1396 1.368 . S
C1402 C1401 1.523 . S
C1403 C1387 1.429 . S
C1403 C1399 1.429 . S
C1403 C1404 1.523 . S
C1404 C1388 1.368 . S
C1404 C1400 1.368 . S
C1404 C1403 1.523 . S
H1405 C1380 0.950 . S
H1406 C1382 0.950 . S
H1407 C1383 0.949 . S
H1408 C1385 0.950 . S
H1409 C1387 0.950 . S
C1410 C1411 1.349 . S
C1410 C1412 1.327 . S
C1410 H1435 0.950 . S
C1411 C1410 1.349 . S
C1411 C1427 1.349 . S
C1412 C1410 1.327 . S
C1412 C1431 1.429 . S
C1412 H1436 0.950 . S
C1413 C1430 1.574 . S
C1413 C1432 1.368 . S
C1413 H1437 0.949 . S
H1414 C1418 0.949 . S
C1415 C1416 1.349 . S
C1415 C1417 1.327 . S
C1415 H1438 0.950 . S
C1416 C1415 1.349 . S
C1416 C1428 1.349 . S
C1417 C1415 1.327 . S
C1417 C1433 1.429 . S
C1417 H1439 0.950 . S
C1418 H1414 0.949 . S
C1418 C1426 1.574 . S
C1418 C1434 1.368 . S
H1419 C1427 0.950 . S
H1420 C1425 0.950 . S
H1421 C1426 0.949 . S
H1422 C1428 0.950 . S
H1423 C1429 0.950 . S
H1424 C1430 0.949 . S
C1425 H1420 0.950 . S
C1425 C1427 1.327 . S
C1425 C1431 1.429 . S
C1426 C1418 1.574 . S
C1426 H1421 0.949 . S
C1426 C1432 1.368 . S
C1427 C1411 1.349 . S
C1427 H1419 0.950 . S
C1427 C1425 1.327 . S
C1428 C1416 1.349 . S
C1428 H1422 0.950 . S
C1428 C1429 1.327 . S
C1429 H1423 0.950 . S
C1429 C1428 1.327 . S
C1429 C1433 1.429 . S
C1430 C1413 1.574 . S
C1430 H1424 0.949 . S
C1430 C1434 1.368 . S
C1431 C1412 1.429 . S
C1431 C1425 1.429 . S
C1431 C1432 1.523 . S
C1432 C1413 1.368 . S
C1432 C1426 1.368 . S
C1432 C1431 1.523 . S
C1433 C1417 1.429 . S
C1433 C1429 1.429 . S
C1433 C1434 1.523 . S
C1434 C1418 1.368 . S
C1434 C1430 1.368 . S
C1434 C1433 1.523 . S
H1435 C1410 0.950 . S
H1436 C1412 0.950 . S
H1437 C1413 0.949 . S
H1438 C1415 0.950 . S
H1439 C1417 0.950 . S
C1440 C1441 1.349 . S
C1440 C1442 1.327 . S
C1440 H1465 0.950 . S
C1441 C1440 1.349 . S
C1441 C1457 1.349 . S
C1442 C1440 1.327 . S
C1442 C1461 1.429 . S
C1442 H1466 0.950 . S
C1443 C1460 1.574 . S
C1443 C1462 1.368 . S
C1443 H1467 0.949 . S
H1444 C1448 0.949 . S
C1445 C1446 1.349 . S
C1445 C1447 1.327 . S
C1445 H1468 0.950 . S
C1446 C1445 1.349 . S
C1446 C1458 1.349 . S
C1447 C1445 1.327 . S
C1447 C1463 1.429 . S
C1447 H1469 0.950 . S
C1448 H1444 0.949 . S
C1448 C1456 1.574 . S
C1448 C1464 1.368 . S
H1449 C1457 0.950 . S
H1450 C1455 0.950 . S
H1451 C1456 0.949 . S
H1452 C1458 0.950 . S
H1453 C1459 0.950 . S
H1454 C1460 0.949 . S
C1455 H1450 0.950 . S
C1455 C1457 1.327 . S
C1455 C1461 1.429 . S
C1456 C1448 1.574 . S
C1456 H1451 0.949 . S
C1456 C1462 1.368 . S
C1457 C1441 1.349 . S
C1457 H1449 0.950 . S
C1457 C1455 1.327 . S
C1458 C1446 1.349 . S
C1458 H1452 0.950 . S
C1458 C1459 1.327 . S
C1459 H1453 0.950 . S
C1459 C1458 1.327 . S
C1459 C1463 1.429 . S
C1460 C1443 1.574 . S
C1460 H1454 0.949 . S
C1460 C1464 1.368 . S
C1461 C1442 1.429 . S
C1461 C1455 1.429 . S
C1461 C1462 1.523 . S
C1462 C1443 1.368 . S
C1462 C1456 1.368 . S
C1462 C1461 1.523 . S
C1463 C1447 1.429 . S
C1463 C1459 1.429 . S
C1463 C1464 1.523 . S
C1464 C1448 1.368 . S
C1464 C1460 1.368 . S
C1464 C1463 1.523 . S
H1465 C1440 0.950 . S
H1466 C1442 0.950 . S
H1467 C1443 0.949 . S
H1468 C1445 0.950 . S
H1469 C1447 0.950 . S
C1470 C1471 1.349 . S
C1470 C1472 1.327 . S
C1470 H1495 0.950 . S
C1471 C1470 1.349 . S
C1471 C1487 1.349 . S
C1472 C1470 1.327 . S
C1472 C1491 1.429 . S
C1472 H1496 0.950 . S
C1473 C1490 1.574 . S
C1473 C1492 1.368 . S
C1473 H1497 0.949 . S
H1474 C1478 0.949 . S
C1475 C1476 1.349 . S
C1475 C1477 1.327 . S
C1475 H1498 0.950 . S
C1476 C1475 1.349 . S
C1476 C1488 1.349 . S
C1477 C1475 1.327 . S
C1477 C1493 1.429 . S
C1477 H1499 0.950 . S
C1478 H1474 0.949 . S
C1478 C1486 1.574 . S
C1478 C1494 1.368 . S
H1479 C1487 0.950 . S
H1480 C1485 0.950 . S
H1481 C1486 0.949 . S
H1482 C1488 0.950 . S
H1483 C1489 0.950 . S
H1484 C1490 0.949 . S
C1485 H1480 0.950 . S
C1485 C1487 1.327 . S
C1485 C1491 1.429 . S
C1486 C1478 1.574 . S
C1486 H1481 0.949 . S
C1486 C1492 1.368 . S
C1487 C1471 1.349 . S
C1487 H1479 0.950 . S
C1487 C1485 1.327 . S
C1488 C1476 1.349 . S
C1488 H1482 0.950 . S
C1488 C1489 1.327 . S
C1489 H1483 0.950 . S
C1489 C1488 1.327 . S
C1489 C1493 1.429 . S
C1490 C1473 1.574 . S
C1490 H1484 0.949 . S
C1490 C1494 1.368 . S
C1491 C1472 1.429 . S
C1491 C1485 1.429 . S
C1491 C1492 1.523 . S
C1492 C1473 1.368 . S
C1492 C1486 1.368 . S
C1492 C1491 1.523 . S
C1493 C1477 1.429 . S
C1493 C1489 1.429 . S
C1493 C1494 1.523 . S
C1494 C1478 1.368 . S
C1494 C1490 1.368 . S
C1494 C1493 1.523 . S
H1495 C1470 0.950 . S
H1496 C1472 0.950 . S
H1497 C1473 0.949 . S
H1498 C1475 0.950 . S
H1499 C1477 0.950 . S
C1500 C1501 1.349 . S
C1500 C1502 1.327 . S
C1500 H1525 0.950 . S
C1501 C1500 1.349 . S
C1501 C1517 1.349 . S
C1502 C1500 1.327 . S
C1502 C1521 1.429 . S
C1502 H1526 0.950 . S
C1503 C1520 1.574 . S
C1503 C1522 1.368 . S
C1503 H1527 0.949 . S
H1504 C1508 0.949 . S
C1505 C1506 1.349 . S
C1505 C1507 1.327 . S
C1505 H1528 0.950 . S
C1506 C1505 1.349 . S
C1506 C1518 1.349 . S
C1507 C1505 1.327 . S
C1507 C1523 1.429 . S
C1507 H1529 0.950 . S
C1508 H1504 0.949 . S
C1508 C1516 1.574 . S
C1508 C1524 1.368 . S
H1509 C1517 0.950 . S
H1510 C1515 0.950 . S
H1511 C1516 0.949 . S
H1512 C1518 0.950 . S
H1513 C1519 0.950 . S
H1514 C1520 0.949 . S
C1515 H1510 0.950 . S
C1515 C1517 1.327 . S
C1515 C1521 1.429 . S
C1516 C1508 1.574 . S
C1516 H1511 0.949 . S
C1516 C1522 1.368 . S
C1517 C1501 1.349 . S
C1517 H1509 0.950 . S
C1517 C1515 1.327 . S
C1518 C1506 1.349 . S
C1518 H1512 0.950 . S
C1518 C1519 1.327 . S
C1519 H1513 0.950 . S
C1519 C1518 1.327 . S
C1519 C1523 1.429 . S
C1520 C1503 1.574 . S
C1520 H1514 0.949 . S
C1520 C1524 1.368 . S
C1521 C1502 1.429 . S
C1521 C1515 1.429 . S
C1521 C1522 1.523 . S
C1522 C1503 1.368 . S
C1522 C1516 1.368 . S
C1522 C1521 1.523 . S
C1523 C1507 1.429 . S
C1523 C1519 1.429 . S
C1523 C1524 1.523 . S
C1524 C1508 1.368 . S
C1524 C1520 1.368 . S
C1524 C1523 1.523 . S
H1525 C1500 0.950 . S
H1526 C1502 0.950 . S
H1527 C1503 0.949 . S
H1528 C1505 0.950 . S
H1529 C1507 0.950 . S
C1530 C1531 1.349 . S
C1530 C1532 1.327 . S
C1530 H1555 0.950 . S
C1531 C1530 1.349 . S
C1531 C1547 1.349 . S
C1532 C1530 1.327 . S
C1532 C1551 1.429 . S
C1532 H1556 0.950 . S
C1533 C1550 1.542 1_655 S
C1533 C1552 1.402 . S
C1533 H1557 0.949 1_655 S
H1534 C1538 0.949 . S
C1535 C1536 1.349 . S
C1535 C1537 1.327 . S
C1535 H1558 0.950 . S
C1536 C1535 1.349 . S
C1536 C1548 1.349 . S
C1537 C1535 1.327 . S
C1537 C1553 1.429 . S
C1537 H1559 0.950 . S
C1538 H1534 0.949 . S
C1538 C1546 1.574 . S
C1538 C1554 1.368 1_655 S
H1539 C1547 0.950 . S
H1540 C1545 0.950 . S
H1541 C1546 0.949 . S
H1542 C1548 0.950 . S
H1543 C1549 0.950 . S
H1544 C1550 0.949 . S
C1545 H1540 0.950 . S
C1545 C1547 1.327 . S
C1545 C1551 1.429 . S
C1546 C1538 1.574 . S
C1546 H1541 0.949 . S
C1546 C1552 1.368 . S
C1547 C1531 1.349 . S
C1547 H1539 0.950 . S
C1547 C1545 1.327 . S
C1548 C1536 1.349 . S
C1548 H1542 0.950 . S
C1548 C1549 1.327 . S
C1549 H1543 0.950 . S
C1549 C1548 1.327 . S
C1549 C1553 1.429 . S
C1550 C1533 1.542 1_455 S
C1550 H1544 0.949 . S
C1550 C1554 1.368 . S
C1551 C1532 1.429 . S
C1551 C1545 1.429 . S
C1551 C1552 1.523 . S
C1552 C1533 1.402 . S
C1552 C1546 1.368 . S
C1552 C1551 1.523 . S
C1553 C1537 1.429 . S
C1553 C1549 1.429 . S
C1553 C1554 1.523 . S
C1554 C1538 1.368 1_455 S
C1554 C1550 1.368 . S
C1554 C1553 1.523 . S
H1555 C1530 0.950 . S
H1556 C1532 0.950 . S
H1557 C1533 0.949 1_455 S
H1558 C1535 0.950 . S
H1559 C1537 0.950 . S
C481 C19 1.250 . S
C486 C459 1.251 . S
C511 C378 1.953 . S
C516 C58 1.951 . S
C541 C98 1.079 . S
C546 C338 1.079 . S
C571 C138 1.555 . S
C576 C419 1.492 . S
C601 C178 1.725 . S
C606 C418 1.716 . S
C631 C219 1.503 . S
C636 C458 1.591 . S
C661 C379 1.638 . S
C666 C258 1.686 . S
C691 C299 1.241 . S
C696 C339 1.246 . S
C721 C139 1.342 . S
C726 C179 1.332 . S
C751 C18 1.815 . S
C756 C218 1.813 1_455 S
C781 C59 1.877 . S
C786 C259 1.889 . S
C811 C298 1.521 . S
C816 C99 1.459 . S
C841 C15 1.791 . S
C846 C329 1.761 . S
C871 C46 1.492 . S
C876 C410 1.474 . S
C901 C450 1.800 . S
C906 C86 1.828 . S
C931 C126 1.708 . S
C936 C369 1.621 . S
C961 C166 1.291 . S
C966 C370 1.279 . S
C991 C330 2.749 . S
C996 C215 2.675 . S
C1021 C409 1.286 . S
C1026 C246 1.330 . S
C1051 C449 1.401 . S
C1056 C295 1.439 . S
C1081 C9 1.580 . S
C1086 C135 1.605 . S
C1111 C6 1.456 . S
C1116 C50 1.433 . S
C1141 C55 1.941 . S
C1146 C90 1.996 . S
C1171 C130 1.953 . S
C1176 C95 1.914 . S
C1201 C206 1.710 . S
C1206 C170 1.685 . S
C1231 C209 1.126 . S
C1236 C255 1.154 . S
C1261 C250 1.469 . S
C1266 C286 1.477 . S
C1291 C175 1.923 . S
C1296 C289 1.870 . S
C1321 C335 1.729 . S
C1326 C129 1.700 . S
C1351 C210 1.779 . S
C1356 C366 1.794 . S
C1381 C326 1.110 . S
C1386 C249 1.062 . S
C1411 C415 1.361 . S
C1416 C290 1.395 . S
C1441 C169 1.391 . S
C1446 C455 1.420 . S
C1471 C446 0.409 . S
C1476 C49 0.488 . S
C1501 C89 1.672 . S
C1506 C375 1.713 . S
C1531 C406 1.583 . S
C1536 C10 1.560 . S
