# Generated by pormake.
# Topology wlt, (5)-cn, num edge types: 1
# Building blocks:
#     Node 0, Type 0, BuildingBlock: XOMCOT_clean_sbu_1, # of connection points: 5
#     Node 1, Type 0, BuildingBlock: XOMCOT_clean_sbu_1, # of connection points: 5
#     Node 2, Type 0, BuildingBlock: XOMCOT_clean_sbu_1, # of connection points: 5
#     Node 3, Type 0, BuildingBlock: XOMCOT_clean_sbu_1, # of connection points: 5
#     Node 4, Type 0, BuildingBlock: XOMCOT_clean_sbu_1, # of connection points: 5
#     Node 5, Type 0, BuildingBlock: XOMCOT_clean_sbu_1, # of connection points: 5
#     Node 6, Type 0, BuildingBlock: XOMCOT_clean_sbu_1, # of connection points: 5
#     Node 7, Type 0, BuildingBlock: XOMCOT_clean_sbu_1, # of connection points: 5
#     Node 8, Type 0, BuildingBlock: XOMCOT_clean_sbu_1, # of connection points: 5
#     Node 9, Type 0, BuildingBlock: XOMCOT_clean_sbu_1, # of connection points: 5
#     Node 10, Type 0, BuildingBlock: XOMCOT_clean_sbu_1, # of connection points: 5
#     Node 11, Type 0, BuildingBlock: XOMCOT_clean_sbu_1, # of connection points: 5
#     Node 12, Type 0, BuildingBlock: XOMCOT_clean_sbu_1, # of connection points: 5
#     Node 13, Type 0, BuildingBlock: XOMCOT_clean_sbu_1, # of connection points: 5
#     Node 14, Type 0, BuildingBlock: XOMCOT_clean_sbu_1, # of connection points: 5
#     Node 15, Type 0, BuildingBlock: XOMCOT_clean_sbu_1, # of connection points: 5
#     Node 16, Type 0, BuildingBlock: XOMCOT_clean_sbu_1, # of connection points: 5
#     Node 17, Type 0, BuildingBlock: XOMCOT_clean_sbu_1, # of connection points: 5
#     Node 18, Type 0, BuildingBlock: XOMCOT_clean_sbu_1, # of connection points: 5
#     Node 19, Type 0, BuildingBlock: XOMCOT_clean_sbu_1, # of connection points: 5
#     Node 20, Type 0, BuildingBlock: XOMCOT_clean_sbu_1, # of connection points: 5
#     Node 21, Type 0, BuildingBlock: XOMCOT_clean_sbu_1, # of connection points: 5
#     Node 22, Type 0, BuildingBlock: XOMCOT_clean_sbu_1, # of connection points: 5
#     Node 23, Type 0, BuildingBlock: XOMCOT_clean_sbu_1, # of connection points: 5
#     Node 24, Type 0, BuildingBlock: XOMCOT_clean_sbu_1, # of connection points: 5
#     Node 25, Type 0, BuildingBlock: XOMCOT_clean_sbu_1, # of connection points: 5
#     Node 26, Type 0, BuildingBlock: XOMCOT_clean_sbu_1, # of connection points: 5
#     Node 27, Type 0, BuildingBlock: XOMCOT_clean_sbu_1, # of connection points: 5
#     Node 28, Type 0, BuildingBlock: XOMCOT_clean_sbu_1, # of connection points: 5
#     Node 29, Type 0, BuildingBlock: XOMCOT_clean_sbu_1, # of connection points: 5
#     Node 30, Type 0, BuildingBlock: XOMCOT_clean_sbu_1, # of connection points: 5
#     Node 31, Type 0, BuildingBlock: XOMCOT_clean_sbu_1, # of connection points: 5
#     Node 32, Type 0, BuildingBlock: XOMCOT_clean_sbu_1, # of connection points: 5
#     Node 33, Type 0, BuildingBlock: XOMCOT_clean_sbu_1, # of connection points: 5
#     Node 34, Type 0, BuildingBlock: XOMCOT_clean_sbu_1, # of connection points: 5
#     Node 35, Type 0, BuildingBlock: XOMCOT_clean_sbu_1, # of connection points: 5
#     Edge 36, Type (0, 0), BuildingBlock: CIFDUS_clean_linker_0, # of connection points: 2
#     Edge 37, Type (0, 0), BuildingBlock: CIFDUS_clean_linker_0, # of connection points: 2
#     Edge 38, Type (0, 0), BuildingBlock: CIFDUS_clean_linker_0, # of connection points: 2
#     Edge 39, Type (0, 0), BuildingBlock: CIFDUS_clean_linker_0, # of connection points: 2
#     Edge 40, Type (0, 0), BuildingBlock: CIFDUS_clean_linker_0, # of connection points: 2
#     Edge 41, Type (0, 0), BuildingBlock: CIFDUS_clean_linker_0, # of connection points: 2
#     Edge 42, Type (0, 0), BuildingBlock: CIFDUS_clean_linker_0, # of connection points: 2
#     Edge 43, Type (0, 0), BuildingBlock: CIFDUS_clean_linker_0, # of connection points: 2
#     Edge 44, Type (0, 0), BuildingBlock: CIFDUS_clean_linker_0, # of connection points: 2
#     Edge 45, Type (0, 0), BuildingBlock: CIFDUS_clean_linker_0, # of connection points: 2
#     Edge 46, Type (0, 0), BuildingBlock: CIFDUS_clean_linker_0, # of connection points: 2
#     Edge 47, Type (0, 0), BuildingBlock: CIFDUS_clean_linker_0, # of connection points: 2
#     Edge 48, Type (0, 0), BuildingBlock: CIFDUS_clean_linker_0, # of connection points: 2
#     Edge 49, Type (0, 0), BuildingBlock: CIFDUS_clean_linker_0, # of connection points: 2
#     Edge 50, Type (0, 0), BuildingBlock: CIFDUS_clean_linker_0, # of connection points: 2
#     Edge 51, Type (0, 0), BuildingBlock: CIFDUS_clean_linker_0, # of connection points: 2
#     Edge 52, Type (0, 0), BuildingBlock: CIFDUS_clean_linker_0, # of connection points: 2
#     Edge 53, Type (0, 0), BuildingBlock: CIFDUS_clean_linker_0, # of connection points: 2
#     Edge 54, Type (0, 0), BuildingBlock: CIFDUS_clean_linker_0, # of connection points: 2
#     Edge 55, Type (0, 0), BuildingBlock: CIFDUS_clean_linker_0, # of connection points: 2
#     Edge 56, Type (0, 0), BuildingBlock: CIFDUS_clean_linker_0, # of connection points: 2
#     Edge 57, Type (0, 0), BuildingBlock: CIFDUS_clean_linker_0, # of connection points: 2
#     Edge 58, Type (0, 0), BuildingBlock: CIFDUS_clean_linker_0, # of connection points: 2
#     Edge 59, Type (0, 0), BuildingBlock: CIFDUS_clean_linker_0, # of connection points: 2
#     Edge 60, Type (0, 0), BuildingBlock: CIFDUS_clean_linker_0, # of connection points: 2
#     Edge 61, Type (0, 0), BuildingBlock: CIFDUS_clean_linker_0, # of connection points: 2
#     Edge 62, Type (0, 0), BuildingBlock: CIFDUS_clean_linker_0, # of connection points: 2
#     Edge 63, Type (0, 0), BuildingBlock: CIFDUS_clean_linker_0, # of connection points: 2
#     Edge 64, Type (0, 0), BuildingBlock: CIFDUS_clean_linker_0, # of connection points: 2
#     Edge 65, Type (0, 0), BuildingBlock: CIFDUS_clean_linker_0, # of connection points: 2
#     Edge 66, Type (0, 0), BuildingBlock: CIFDUS_clean_linker_0, # of connection points: 2
#     Edge 67, Type (0, 0), BuildingBlock: CIFDUS_clean_linker_0, # of connection points: 2
#     Edge 68, Type (0, 0), BuildingBlock: CIFDUS_clean_linker_0, # of connection points: 2
#     Edge 69, Type (0, 0), BuildingBlock: CIFDUS_clean_linker_0, # of connection points: 2
#     Edge 70, Type (0, 0), BuildingBlock: CIFDUS_clean_linker_0, # of connection points: 2
#     Edge 71, Type (0, 0), BuildingBlock: CIFDUS_clean_linker_0, # of connection points: 2
#     Edge 72, Type (0, 0), BuildingBlock: CIFDUS_clean_linker_0, # of connection points: 2
#     Edge 73, Type (0, 0), BuildingBlock: CIFDUS_clean_linker_0, # of connection points: 2
#     Edge 74, Type (0, 0), BuildingBlock: CIFDUS_clean_linker_0, # of connection points: 2
#     Edge 75, Type (0, 0), BuildingBlock: CIFDUS_clean_linker_0, # of connection points: 2
#     Edge 76, Type (0, 0), BuildingBlock: CIFDUS_clean_linker_0, # of connection points: 2
#     Edge 77, Type (0, 0), BuildingBlock: CIFDUS_clean_linker_0, # of connection points: 2
#     Edge 78, Type (0, 0), BuildingBlock: CIFDUS_clean_linker_0, # of connection points: 2
#     Edge 79, Type (0, 0), BuildingBlock: CIFDUS_clean_linker_0, # of connection points: 2
#     Edge 80, Type (0, 0), BuildingBlock: CIFDUS_clean_linker_0, # of connection points: 2
#     Edge 81, Type (0, 0), BuildingBlock: CIFDUS_clean_linker_0, # of connection points: 2
#     Edge 82, Type (0, 0), BuildingBlock: CIFDUS_clean_linker_0, # of connection points: 2
#     Edge 83, Type (0, 0), BuildingBlock: CIFDUS_clean_linker_0, # of connection points: 2
#     Edge 84, Type (0, 0), BuildingBlock: CIFDUS_clean_linker_0, # of connection points: 2
#     Edge 85, Type (0, 0), BuildingBlock: CIFDUS_clean_linker_0, # of connection points: 2
#     Edge 86, Type (0, 0), BuildingBlock: CIFDUS_clean_linker_0, # of connection points: 2
#     Edge 87, Type (0, 0), BuildingBlock: CIFDUS_clean_linker_0, # of connection points: 2
#     Edge 88, Type (0, 0), BuildingBlock: CIFDUS_clean_linker_0, # of connection points: 2
#     Edge 89, Type (0, 0), BuildingBlock: CIFDUS_clean_linker_0, # of connection points: 2
#     Edge 90, Type (0, 0), BuildingBlock: CIFDUS_clean_linker_0, # of connection points: 2
#     Edge 91, Type (0, 0), BuildingBlock: CIFDUS_clean_linker_0, # of connection points: 2
#     Edge 92, Type (0, 0), BuildingBlock: CIFDUS_clean_linker_0, # of connection points: 2
#     Edge 93, Type (0, 0), BuildingBlock: CIFDUS_clean_linker_0, # of connection points: 2
#     Edge 94, Type (0, 0), BuildingBlock: CIFDUS_clean_linker_0, # of connection points: 2
#     Edge 95, Type (0, 0), BuildingBlock: CIFDUS_clean_linker_0, # of connection points: 2
#     Edge 96, Type (0, 0), BuildingBlock: CIFDUS_clean_linker_0, # of connection points: 2
#     Edge 97, Type (0, 0), BuildingBlock: CIFDUS_clean_linker_0, # of connection points: 2
#     Edge 98, Type (0, 0), BuildingBlock: CIFDUS_clean_linker_0, # of connection points: 2
#     Edge 99, Type (0, 0), BuildingBlock: CIFDUS_clean_linker_0, # of connection points: 2
#     Edge 100, Type (0, 0), BuildingBlock: CIFDUS_clean_linker_0, # of connection points: 2
#     Edge 101, Type (0, 0), BuildingBlock: CIFDUS_clean_linker_0, # of connection points: 2
#     Edge 102, Type (0, 0), BuildingBlock: CIFDUS_clean_linker_0, # of connection points: 2
#     Edge 103, Type (0, 0), BuildingBlock: CIFDUS_clean_linker_0, # of connection points: 2
#     Edge 104, Type (0, 0), BuildingBlock: CIFDUS_clean_linker_0, # of connection points: 2
#     Edge 105, Type (0, 0), BuildingBlock: CIFDUS_clean_linker_0, # of connection points: 2
#     Edge 106, Type (0, 0), BuildingBlock: CIFDUS_clean_linker_0, # of connection points: 2
#     Edge 107, Type (0, 0), BuildingBlock: CIFDUS_clean_linker_0, # of connection points: 2
#     Edge 108, Type (0, 0), BuildingBlock: CIFDUS_clean_linker_0, # of connection points: 2
#     Edge 109, Type (0, 0), BuildingBlock: CIFDUS_clean_linker_0, # of connection points: 2
#     Edge 110, Type (0, 0), BuildingBlock: CIFDUS_clean_linker_0, # of connection points: 2
#     Edge 111, Type (0, 0), BuildingBlock: CIFDUS_clean_linker_0, # of connection points: 2
#     Edge 112, Type (0, 0), BuildingBlock: CIFDUS_clean_linker_0, # of connection points: 2
#     Edge 113, Type (0, 0), BuildingBlock: CIFDUS_clean_linker_0, # of connection points: 2
#     Edge 114, Type (0, 0), BuildingBlock: CIFDUS_clean_linker_0, # of connection points: 2
#     Edge 115, Type (0, 0), BuildingBlock: CIFDUS_clean_linker_0, # of connection points: 2
#     Edge 116, Type (0, 0), BuildingBlock: CIFDUS_clean_linker_0, # of connection points: 2
#     Edge 117, Type (0, 0), BuildingBlock: CIFDUS_clean_linker_0, # of connection points: 2
#     Edge 118, Type (0, 0), BuildingBlock: CIFDUS_clean_linker_0, # of connection points: 2
#     Edge 119, Type (0, 0), BuildingBlock: CIFDUS_clean_linker_0, # of connection points: 2
#     Edge 120, Type (0, 0), BuildingBlock: CIFDUS_clean_linker_0, # of connection points: 2
#     Edge 121, Type (0, 0), BuildingBlock: CIFDUS_clean_linker_0, # of connection points: 2
#     Edge 122, Type (0, 0), BuildingBlock: CIFDUS_clean_linker_0, # of connection points: 2
#     Edge 123, Type (0, 0), BuildingBlock: CIFDUS_clean_linker_0, # of connection points: 2
#     Edge 124, Type (0, 0), BuildingBlock: CIFDUS_clean_linker_0, # of connection points: 2
#     Edge 125, Type (0, 0), BuildingBlock: CIFDUS_clean_linker_0, # of connection points: 2
# Relax obj value: 0.191
# Max RMSD: 0.193
# Mean RMSD: 0.193
data_MOF--net-wlt--node1-XOMCOT_clean_sbu_1--edge1-CIFDUS_clean_linker_0
_symmetry_space_group_name_H-M    P1
_symmetry_Int_Tables_number       1
_symmetry_cell_setting            triclinic
loop_
_symmetry_equiv_pos_as_xyz
'x, y, z'
_cell_length_a     58.212321
_cell_length_b     58.106613
_cell_length_c     44.864949
_cell_angle_alpha  90.03434
_cell_angle_beta   90.054783
_cell_angle_gamma 119.927
loop_
_atom_site_label
_atom_site_type_symbol
_atom_site_fract_x
_atom_site_fract_y
_atom_site_fract_z
_atom_type_partial_charge
C0 C 0.2081 0.19071 0.0508 0.0
C1 C 0.1884 0.19572 0.04202 0.0
N2 N 0.19975 0.22016 0.02993 0.0
N3 N 0.23194 0.21188 0.04452 0.0
C4 C 0.22625 0.22951 0.03149 0.0
H5 H 0.20527 0.17289 0.0617 0.0
Co6 Co 0.2634 0.21341 0.05712 0.0
C7 C 0.30227 0.27013 0.06775 0.0
O8 O 0.30818 0.2617 0.09217 0.0
N9 N 0.29522 0.21421 0.0696 0.0
C10 C 0.33663 0.22167 0.06639 0.0
C11 C 0.31755 0.22547 0.05298 0.0
C12 C 0.30132 0.20337 0.09295 0.0
N13 N 0.32641 0.20775 0.0916 0.0
O14 O 0.26856 0.20314 0.01761 0.0
H15 H 0.31979 0.23577 0.03217 0.0
H16 H 0.28763 0.19172 0.11027 0.0
O17 O 0.28471 0.25305 0.04969 0.0
C18 C 0.26047 0.17831 0.021 0.0
O19 O 0.25128 0.1676 0.04721 0.0
N20 N 0.25518 0.21862 0.09564 0.0
C21 C 0.23649 0.2172 0.15264 0.0
C22 C 0.24414 0.23952 0.13463 0.0
C23 C 0.2525 0.23941 0.10557 0.0
C24 C 0.24537 0.19595 0.11201 0.0
C25 C 0.23638 0.19492 0.14085 0.0
H26 H 0.25634 0.25578 0.09111 0.0
H27 H 0.24433 0.17838 0.10245 0.0
H28 H 0.24116 0.24903 0.02402 0.0
H29 H 0.16728 0.18223 0.04399 0.0
H30 H 0.35653 0.22875 0.05822 0.0
H31 H 0.24329 0.25662 0.14282 0.0
H32 H 0.2299 0.17708 0.15396 0.0
C33 C 0.84036 0.02266 0.05681 0.0
C34 C 0.83509 0.99782 0.0481 0.0
N35 N 0.81119 0.98546 0.03469 0.0
N36 N 0.81992 0.02613 0.0491 0.0
C37 C 0.80245 1.00317 0.03538 0.0
H38 H 0.85784 0.03723 0.06858 0.0
Co39 Co 0.81885 0.05648 0.0607 0.0
C40 C 0.76244 0.04071 0.06714 0.0
O41 O 0.7701 0.05587 0.091 0.0
N42 N 0.81876 0.08818 0.07227 0.0
C43 C 0.81286 0.12318 0.06833 0.0
C44 C 0.80936 0.10048 0.05461 0.0
C45 C 0.82841 0.10435 0.09643 0.0
N46 N 0.82488 0.1256 0.09471 0.0
O47 O 0.83099 0.07184 0.02169 0.0
H48 H 0.80043 0.09333 0.03295 0.0
H49 H 0.83779 0.10089 0.11518 0.0
O50 O 0.77996 0.03942 0.05068 0.0
C51 C 0.85565 0.0884 0.02585 0.0
O52 O 0.86562 0.09003 0.05258 0.0
N53 N 0.81093 0.0425 0.09901 0.0
C54 C 0.8045 0.0265 0.1578 0.0
C55 C 0.7847 1.01164 0.13688 0.0
C56 C 0.78877 0.01947 0.10718 0.0
C57 C 0.83176 0.05458 0.11815 0.0
C58 C 0.82876 0.04748 0.14801 0.0
H59 H 0.77404 1.00711 0.09096 0.0
H60 H 0.85062 0.07041 0.11029 0.0
H61 H 0.78347 0.99925 0.02675 0.0
H62 H 0.84807 0.98964 0.05102 0.0
H63 H 0.80736 0.13702 0.0593 0.0
H64 H 0.76634 0.99424 0.14344 0.0
H65 H 0.84494 0.05882 0.16333 0.0
C66 C 1.01248 0.83598 0.05018 0.0
C67 C 0.0377 0.85474 0.04179 0.0
N68 N 0.05128 0.84226 0.03508 0.0
N69 N 1.01001 0.81168 0.04887 0.0
C70 C 0.03396 0.81608 0.03933 0.0
H71 H 0.99708 0.83984 0.0577 0.0
Co72 Co 0.98013 0.78161 0.06367 0.0
C73 C 0.9968 0.74228 0.07732 0.0
O74 O 0.98312 0.73772 0.10205 0.0
N75 N 0.94917 0.75102 0.0785 0.0
C76 C 0.91499 0.70959 0.07939 0.0
C77 C 0.93669 0.72773 0.06352 0.0
C78 C 0.93424 0.74646 0.10335 0.0
N79 N 0.91349 0.72138 0.10455 0.0
O80 O 0.96409 0.77397 0.02447 0.0
H81 H 0.94323 0.72403 0.04242 0.0
H82 H 0.93802 0.7611 0.12025 0.0
O83 O 0.99733 0.75925 0.05838 0.0
C84 C 0.94746 0.78226 0.02649 0.0
O85 O 0.94619 0.79311 0.05169 0.0
N86 N 0.99442 0.79225 0.10153 0.0
C87 C 1.01065 0.81116 0.15863 0.0
C88 C 0.02506 0.80248 0.14163 0.0
C89 C 1.01713 0.79398 0.11248 0.0
C90 C 0.98257 0.80396 0.1164 0.0
C91 C 0.98999 0.8131 0.14534 0.0
H92 H 0.02913 0.78866 0.09901 0.0
H93 H 0.96653 0.80533 0.10603 0.0
H94 H 0.03896 0.80059 0.03665 0.0
H95 H 0.04542 0.87595 0.04059 0.0
H96 H 0.90171 0.68914 0.07314 0.0
H97 H 0.04193 0.80191 0.15098 0.0
H98 H 0.97884 0.82031 0.15764 0.0
C99 C 0.19782 0.19458 0.42811 0.0
C100 C 0.20471 0.17617 0.43659 0.0
N101 N 0.22819 0.18886 0.45078 0.0
N102 N 0.21678 0.21899 0.4368 0.0
C103 C 0.23506 0.21489 0.45087 0.0
H104 H 0.18036 0.19052 0.4155 0.0
Co105 Co 0.21539 0.24908 0.42442 0.0
C106 C 0.2708 0.29172 0.41563 0.0
O107 O 0.26195 0.29777 0.39163 0.0
N108 N 0.21276 0.27907 0.41208 0.0
C109 C 0.21648 0.31921 0.41381 0.0
C110 C 0.22249 0.30185 0.42795 0.0
C111 C 0.20017 0.28294 0.38885 0.0
N112 N 0.20239 0.30722 0.38917 0.0
O113 O 0.20417 0.25336 0.46354 0.0
H114 H 0.23334 0.30563 0.44866 0.0
H115 H 0.18942 0.26852 0.3718 0.0
O116 O 0.25428 0.27299 0.43288 0.0
C117 C 0.17887 0.23929 0.46295 0.0
O118 O 0.16755 0.22473 0.43923 0.0
N119 N 0.22295 0.24248 0.38595 0.0
C120 C 0.23008 0.23376 0.32702 0.0
C121 C 0.25016 0.23966 0.34789 0.0
C122 C 0.24578 0.24297 0.37765 0.0
C123 C 0.20192 0.23238 0.36698 0.0
C124 C 0.20521 0.22871 0.33703 0.0
H125 H 0.26091 0.24631 0.39377 0.0
H126 H 0.18261 0.22781 0.37507 0.0
H127 H 0.25339 0.23066 0.46006 0.0
H128 H 0.19317 0.15496 0.43278 0.0
H129 H 0.22167 0.33891 0.42139 0.0
H130 H 0.26905 0.24189 0.34124 0.0
H131 H 0.18876 0.22291 0.32181 0.0
C132 C 0.82858 1.00341 0.43465 0.0
C133 C 0.84731 0.02873 0.44303 0.0
N134 N 0.83473 0.04124 0.45341 0.0
N135 N 0.80416 0.99979 0.43954 0.0
C136 C 0.80851 0.02315 0.45131 0.0
H137 H 0.83248 0.98875 0.42468 0.0
Co138 Co 0.77351 0.96941 0.42589 0.0
C139 C 0.73374 0.98599 0.41553 0.0
O140 O 0.72821 0.9722 0.39069 0.0
N141 N 0.74238 0.938 0.41224 0.0
C142 C 0.70107 0.90372 0.41396 0.0
C143 C 0.71985 0.92605 0.42848 0.0
C144 C 0.73673 0.92199 0.388 0.0
N145 N 0.71166 0.90113 0.38841 0.0
O146 O 0.76797 0.9535 0.46497 0.0
H147 H 0.71721 0.9332 0.44974 0.0
H148 H 0.7504 0.92537 0.37012 0.0
O149 O 0.75128 0.98643 0.43349 0.0
C150 C 0.77653 0.93716 0.46174 0.0
O151 O 0.78624 0.93594 0.43576 0.0
N152 N 0.7821 0.98363 0.38788 0.0
C153 C 0.80112 1.00225 0.33143 0.0
C154 C 0.79274 0.01613 0.34977 0.0
C155 C 0.78418 1.00698 0.37855 0.0
C156 C 0.79276 0.97165 0.37134 0.0
C157 C 0.80196 0.98031 0.34271 0.0
H158 H 0.77964 0.01886 0.39325 0.0
H159 H 0.79407 0.95514 0.38048 0.0
H160 H 0.79286 0.02723 0.45716 0.0
H161 H 0.8686 0.03726 0.44171 0.0
H162 H 0.68126 0.89019 0.42191 0.0
H163 H 0.79298 0.03389 0.34196 0.0
H164 H 0.80897 0.96955 0.3293 0.0
C165 C 0.03492 0.83703 0.45756 0.0
C166 C 1.01157 0.83569 0.46545 0.0
N167 N 0.99149 0.81121 0.4591 0.0
N168 N 0.03003 0.8135 0.44628 0.0
C169 C 1.00318 0.79789 0.4479 0.0
H170 H 0.05421 0.85471 0.45836 0.0
Co171 Co 0.05756 0.8112 0.4269 0.0
C172 C 0.03965 0.75446 0.41657 0.0
O173 O 0.05105 0.76221 0.39039 0.0
N174 N 0.08648 0.81027 0.40763 0.0
C175 C 0.12141 0.80452 0.40238 0.0
C176 C 0.1 0.7993 0.41992 0.0
C177 C 0.10062 0.82255 0.38282 0.0
N178 N 0.12187 0.81926 0.37902 0.0
O179 O 0.07827 0.82182 0.46349 0.0
H180 H 0.09497 0.78873 0.44089 0.0
H181 H 0.09613 0.83442 0.36813 0.0
O182 O 0.04055 0.77189 0.43518 0.0
C183 C 0.09679 0.84586 0.45929 0.0
O184 O 0.09772 0.85713 0.43358 0.0
N185 N 0.03897 0.80511 0.39119 0.0
C186 C 0.02075 0.80271 0.33376 0.0
C187 C 1.00726 0.78106 0.35301 0.0
C188 C 1.01636 0.7829 0.38208 0.0
C189 C 0.04926 0.82759 0.3745 0.0
C190 C 0.041 0.82673 0.34528 0.0
H191 H 1.00568 0.7661 0.3966 0.0
H192 H 0.06525 0.84593 0.38336 0.0
H193 H 0.99226 0.77785 0.43935 0.0
H194 H 1.00942 0.85193 0.47406 0.0
H195 H 0.13613 0.79885 0.40723 0.0
H196 H 0.9905 0.76262 0.34536 0.0
H197 H 0.05155 0.84422 0.33147 0.0
C198 C 0.83737 0.84076 0.92712 0.0
C199 C 0.85659 0.83504 0.93597 0.0
N200 N 0.84462 0.81056 0.94802 0.0
N201 N 0.81327 0.82 0.93338 0.0
C202 C 0.81828 0.80192 0.94639 0.0
H203 H 0.8407 0.85873 0.91614 0.0
Co204 Co 0.78202 0.8188 0.92086 0.0
C205 C 0.7429 0.76238 0.91101 0.0
O206 O 0.73665 0.77055 0.88662 0.0
N207 N 0.75022 0.81817 0.90853 0.0
C208 C 0.7087 0.81033 0.91196 0.0
C209 C 0.72829 0.80768 0.9258 0.0
C210 C 0.74337 0.82749 0.88435 0.0
N211 N 0.71817 0.82278 0.8858 0.0
O212 O 0.77711 0.82921 0.96022 0.0
H213 H 0.72659 0.7985 0.94726 0.0
H214 H 0.75621 0.83726 0.86571 0.0
O215 O 0.76065 0.77956 0.92875 0.0
C216 C 0.7852 0.854 0.95687 0.0
O217 O 0.79465 0.8648 0.93075 0.0
N218 N 0.78984 0.81296 0.88241 0.0
C219 C 0.8063 0.81206 0.82478 0.0
C220 C 0.79988 0.79073 0.84404 0.0
C221 C 0.79248 0.79196 0.87323 0.0
C222 C 0.79906 0.83499 0.86506 0.0
C223 C 0.80679 0.8348 0.83588 0.0
H224 H 0.78911 0.77614 0.88836 0.0
H225 H 0.80031 0.85286 0.87399 0.0
H226 H 0.80298 0.78253 0.95374 0.0
H227 H 0.87779 0.84807 0.93403 0.0
H228 H 0.68911 0.80389 0.92075 0.0
H229 H 0.80023 0.77317 0.83658 0.0
H230 H 0.81308 0.85227 0.82214 0.0
C231 C 0.19774 1.00462 0.93044 0.0
C232 C 0.2036 0.02987 0.93824 0.0
N233 N 0.22865 0.04309 0.94863 0.0
N234 N 0.21894 1.00171 0.93569 0.0
C235 C 0.23748 0.02546 0.94705 0.0
H236 H 0.17929 0.98941 0.92089 0.0
Co237 Co 0.2196 0.97097 0.92406 0.0
C238 C 0.2756 0.98753 0.91225 0.0
O239 O 0.26668 0.97262 0.88827 0.0
N240 N 0.21972 0.93917 0.91253 0.0
C241 C 0.22782 0.90559 0.91651 0.0
C242 C 0.2306 0.9281 0.92989 0.0
C243 C 0.21006 0.92248 0.88873 0.0
N244 N 0.21492 0.90203 0.89051 0.0
O245 O 0.21073 0.95727 0.96416 0.0
H246 H 0.24024 0.93609 0.95105 0.0
H247 H 0.20003 0.92522 0.87006 0.0
O248 O 0.25906 0.98886 0.93031 0.0
C249 C 0.18586 0.94067 0.9619 0.0
O250 O 0.1743 0.93806 0.93597 0.0
N251 N 0.22369 0.98299 0.88514 0.0
C252 C 0.22135 0.99751 0.82715 0.0
C253 C 0.24394 1.01295 0.84448 0.0
C254 C 0.24432 1.00586 0.87402 0.0
C255 C 0.20065 0.96967 0.8695 0.0
C256 C 0.19914 0.97625 0.84015 0.0
H257 H 0.26105 0.01881 0.88782 0.0
H258 H 0.18337 0.9535 0.87984 0.0
H259 H 0.25727 0.03001 0.95328 0.0
H260 H 0.19028 0.03777 0.93675 0.0
H261 H 0.23458 0.8927 0.92546 0.0
H262 H 0.261 0.03027 0.83527 0.0
H263 H 0.18113 0.96434 0.82751 0.0
C264 C 0.02592 0.19498 0.92729 0.0
C265 C 1.00098 0.17625 0.93647 0.0
N266 N 0.98897 0.18888 0.94812 0.0
N267 N 0.02979 0.21943 0.93296 0.0
C268 C 1.00697 0.21514 0.94594 0.0
H269 H 0.04023 0.19108 0.91647 0.0
Co270 Co 0.06021 0.24964 0.91944 0.0
C271 C 0.04603 0.2915 0.91127 0.0
O272 O 0.05965 0.29696 0.88638 0.0
N273 N 0.0919 0.28006 0.9059 0.0
C274 C 0.1279 0.32039 0.90667 0.0
C275 C 0.10497 0.30306 0.92138 0.0
C276 C 0.10786 0.28383 0.88224 0.0
N277 N 0.12968 0.30818 0.88203 0.0
O278 O 0.07683 0.25433 0.95812 0.0
H279 H 0.09832 0.30689 0.94234 0.0
H280 H 0.10405 0.26917 0.86541 0.0
O281 O 0.04468 0.2731 0.92856 0.0
C282 C 0.09284 0.24544 0.95442 0.0
O283 O 0.09317 0.23525 0.92838 0.0
N284 N 0.04513 0.24214 0.88145 0.0
C285 C 0.02905 0.23115 0.82256 0.0
C286 C 1.01487 0.23775 0.84278 0.0
C287 C 0.02277 0.24233 0.87256 0.0
C288 C 0.05613 0.23154 0.86331 0.0
C289 C 0.04912 0.2268 0.83345 0.0
H290 H 1.01114 0.2464 0.88819 0.0
H291 H 0.07121 0.22765 0.87191 0.0
H292 H 1.0033 0.23086 0.95284 0.0
H293 H 0.99245 0.15493 0.93499 0.0
H294 H 0.14243 0.34015 0.91397 0.0
H295 H 0.99808 0.23959 0.83562 0.0
H296 H 0.06008 0.22082 0.81896 0.0
C297 C 0.84218 0.82542 0.53617 0.0
C298 C 0.83625 0.84461 0.52784 0.0
N299 N 0.80977 0.83322 0.52512 0.0
N300 N 0.81962 0.80187 0.53873 0.0
C301 C 0.80009 0.80722 0.53162 0.0
H302 H 0.86171 0.82875 0.5416 0.0
Co303 Co 0.81939 0.77285 0.55726 0.0
C304 C 0.75942 0.7364 0.53779 0.0
O305 O 0.75965 0.73522 0.50857 0.0
N306 N 0.81942 0.74381 0.57622 0.0
C307 C 0.81066 0.70246 0.58451 0.0
C308 C 0.80531 0.71843 0.56671 0.0
C309 C 0.83356 0.74272 0.59965 0.0
N310 N 0.82843 0.71771 0.60539 0.0
O311 O 0.82883 0.76252 0.5203 0.0
H312 H 0.79238 0.71195 0.54748 0.0
H313 H 0.84757 0.7599 0.61216 0.0
O314 O 0.78115 0.75008 0.55194 0.0
C315 C 0.85395 0.77233 0.52245 0.0
O316 O 0.86604 0.78601 0.54643 0.0
N317 N 0.81376 0.78486 0.59312 0.0
C318 C 0.81206 0.80406 0.64896 0.0
C319 C 0.78927 0.79204 0.63111 0.0
C320 C 0.79067 0.78299 0.60282 0.0
C321 C 0.83659 0.79905 0.60885 0.0
C322 C 0.83618 0.80855 0.63711 0.0
H323 H 0.77324 0.77463 0.58896 0.0
H324 H 0.85515 0.80238 0.59961 0.0
H325 H 0.77917 0.79283 0.53293 0.0
H326 H 0.8503 0.86546 0.52443 0.0
H327 H 0.8026 0.68132 0.58163 0.0
H328 H 0.77038 0.78885 0.63925 0.0
H329 H 0.85441 0.81872 0.64983 0.0
C330 C 0.20765 0.0183 0.54793 0.0
C331 C 0.18866 0.99311 0.53967 0.0
N332 N 0.20091 0.98008 0.52993 0.0
N333 N 0.2319 0.02134 0.54354 0.0
C334 C 0.22722 0.99773 0.53223 0.0
H335 H 0.20404 0.03325 0.5576 0.0
Co336 Co 0.26204 0.05152 0.55787 0.0
C337 C 0.30345 0.03695 0.56586 0.0
O338 O 0.30899 0.05058 0.59081 0.0
N339 N 0.29235 0.08306 0.57231 0.0
C340 C 0.33236 0.11949 0.57213 0.0
C341 C 0.31554 0.09632 0.55736 0.0
C342 C 0.2955 0.09916 0.59572 0.0
N343 N 0.31964 0.12129 0.59625 0.0
O344 O 0.26712 0.06886 0.51977 0.0
H345 H 0.31976 0.08975 0.53656 0.0
H346 H 0.2804 0.09536 0.61191 0.0
O347 O 0.28535 0.03599 0.5484 0.0
C348 C 0.25822 0.08479 0.52418 0.0
O349 O 0.24775 0.08436 0.55026 0.0
N350 N 0.25423 0.03559 0.59527 0.0
C351 C 0.24189 0.01688 0.65296 0.0
C352 C 0.24879 1.00349 0.63205 0.0
C353 C 0.25396 1.01266 0.60283 0.0
C354 C 0.24358 0.0461 0.61408 0.0
C355 C 0.23805 0.03765 0.64343 0.0
H356 H 0.25798 1.00145 0.58656 0.0
H357 H 0.23985 0.06153 0.60632 0.0
H358 H 0.24265 0.99316 0.52702 0.0
H359 H 0.16741 0.985 0.54072 0.0
H360 H 0.35204 0.1343 0.56504 0.0
H361 H 0.25032 0.9863 0.63827 0.0
H362 H 0.23174 0.04789 0.65864 0.0
C363 C 0.99681 0.18496 0.51723 0.0
C364 C 1.01933 0.18502 0.5083 0.0
N365 N 0.04047 0.20655 0.51987 0.0
N366 N 1.00333 0.20646 0.53432 0.0
C367 C 0.03031 0.21949 0.53531 0.0
H368 H 0.97686 0.16914 0.51298 0.0
Co369 Co 0.97739 0.20978 0.55614 0.0
C370 C 1.00509 0.27108 0.53732 0.0
O371 O 1.00589 0.27259 0.5081 0.0
N372 N 0.95131 0.21306 0.57791 0.0
C373 C 0.92123 0.22478 0.58853 0.0
C374 C 0.9416 0.22894 0.56987 0.0
C375 C 0.93624 0.19923 0.60152 0.0
N376 N 0.91773 0.20599 0.6085 0.0
O377 O 0.95501 0.20047 0.52073 0.0
H378 H 0.94806 0.24193 0.5507 0.0
H379 H 0.93818 0.18386 0.61276 0.0
O380 O 0.99489 0.24831 0.54981 0.0
C381 C 0.93583 0.17676 0.52522 0.0
O382 O 0.93513 0.16528 0.55068 0.0
N383 N 0.99669 0.21454 0.59055 0.0
C384 C 1.01565 0.21411 0.64688 0.0
C385 C 0.02713 0.23756 0.63006 0.0
C386 C 1.01761 0.23723 0.60147 0.0
C387 C 0.98745 0.19111 0.60525 0.0
C388 C 0.99647 0.19042 0.6337 0.0
H389 H 0.02691 0.25517 0.58847 0.0
H390 H 0.97183 0.17306 0.59538 0.0
H391 H 0.0422 0.23698 0.54866 0.0
H392 H 0.02006 0.16963 0.49542 0.0
H393 H 0.90911 0.23399 0.58645 0.0
H394 H 0.04269 0.25605 0.63929 0.0
H395 H 0.9873 0.17188 0.64591 0.0
C396 C 0.86844 0.51788 0.39075 0.0
C397 C 0.84939 0.52386 0.38193 0.0
N398 N 0.86157 0.54851 0.37033 0.0
N399 N 0.89267 0.53864 0.38494 0.0
C400 C 0.88788 0.55699 0.3722 0.0
H401 H 0.8649 0.49971 0.4014 0.0
Co402 Co 0.92376 0.53936 0.39764 0.0
C403 C 0.96281 0.59575 0.40911 0.0
O404 O 0.96874 0.5873 0.4335 0.0
N405 N 0.95532 0.53952 0.41017 0.0
C406 C 0.99683 0.54726 0.40715 0.0
C407 C 0.97794 0.55152 0.39409 0.0
C408 C 0.96104 0.52762 0.43277 0.0
N409 N 0.98622 0.53215 0.43154 0.0
O410 O 0.9294 0.53019 0.358 0.0
H411 H 0.98053 0.5627 0.37388 0.0
H412 H 0.94701 0.51509 0.44936 0.0
O413 O 0.94526 0.57878 0.39105 0.0
C414 C 0.921 0.50527 0.36051 0.0
O415 O 0.91083 0.49374 0.38612 0.0
N416 N 0.91534 0.54399 0.43625 0.0
C417 C 0.89838 0.54311 0.49394 0.0
C418 C 0.90542 0.56523 0.47579 0.0
C419 C 0.91294 0.56485 0.44644 0.0
C420 C 0.90566 0.52132 0.45262 0.0
C421 C 0.89755 0.52057 0.48185 0.0
H422 H 0.91662 0.58121 0.43204 0.0
H423 H 0.90423 0.50366 0.44285 0.0
H424 H 0.90331 0.57644 0.3652 0.0
H425 H 0.82816 0.51089 0.38359 0.0
H426 H 1.01689 0.55487 0.39924 0.0
H427 H 0.90503 0.5825 0.48422 0.0
H428 H 0.89141 0.50284 0.49506 0.0
C429 C 0.51277 0.36454 0.36474 0.0
C430 C 0.5122 0.34132 0.35793 0.0
N431 N 0.48771 0.32097 0.36342 0.0
N432 N 0.48872 0.35931 0.37436 0.0
C433 C 0.47359 0.33237 0.37295 0.0
H434 H 0.53019 0.38403 0.36418 0.0
Co435 Co 0.48548 0.38719 0.39124 0.0
C436 C 0.42876 0.36803 0.40229 0.0
O437 O 0.43694 0.38085 0.42772 0.0
N438 N 0.4837 0.41662 0.40791 0.0
C439 C 0.47674 0.45104 0.41042 0.0
C440 C 0.4714 0.42852 0.39478 0.0
C441 C 0.49692 0.43284 0.43111 0.0
N442 N 0.49297 0.45381 0.43319 0.0
O443 O 0.49507 0.40566 0.35325 0.0
H444 H 0.45991 0.42166 0.37446 0.0
H445 H 0.51012 0.43021 0.44568 0.0
O446 O 0.44593 0.36855 0.3836 0.0
C447 C 0.51897 0.42474 0.35657 0.0
O448 O 0.53043 0.42773 0.38265 0.0
N449 N 0.48045 0.37076 0.42829 0.0
C450 C 0.47849 0.35564 0.48699 0.0
C451 C 0.45727 0.34034 0.46776 0.0
C452 C 0.45897 0.34785 0.43805 0.0
C453 C 0.50281 0.38271 0.44521 0.0
C454 C 0.50211 0.37607 0.47505 0.0
H455 H 0.44253 0.3358 0.42352 0.0
H456 H 0.5209 0.39862 0.43587 0.0
H457 H 0.45323 0.32126 0.38034 0.0
H458 H 0.5289 0.3395 0.35041 0.0
H459 H 0.47025 0.46497 0.40458 0.0
H460 H 0.43925 0.32335 0.47582 0.0
H461 H 0.51936 0.38784 0.48887 0.0
C462 C 0.6768 0.16528 0.38434 0.0
C463 C 0.70198 0.18407 0.37588 0.0
N464 N 0.71494 0.1715 0.36697 0.0
N465 N 0.67374 0.14086 0.38093 0.0
C466 C 0.6973 0.14524 0.37005 0.0
H467 H 0.66177 0.16917 0.39312 0.0
Co468 Co 0.64338 0.11045 0.39435 0.0
C469 C 0.65907 0.06999 0.40605 0.0
O470 O 0.64486 0.06452 0.43049 0.0
N471 N 0.61203 0.07965 0.40782 0.0
C472 C 0.57762 0.03833 0.4081 0.0
C473 C 0.59933 0.05665 0.39231 0.0
C474 C 0.59717 0.0748 0.43273 0.0
N475 N 0.57642 0.04979 0.43366 0.0
O476 O 0.62794 0.10421 0.35481 0.0
H477 H 0.6058 0.05323 0.371 0.0
H478 H 0.601 0.08915 0.44997 0.0
O479 O 0.66037 0.08794 0.3881 0.0
C480 C 0.61148 0.1127 0.35728 0.0
O481 O 0.61042 0.12329 0.38275 0.0
N482 N 0.65682 0.11961 0.43288 0.0
C483 C 0.66843 0.13354 0.49216 0.0
C484 C 0.68374 0.12556 0.47567 0.0
C485 C 0.67811 0.11946 0.44549 0.0
C486 C 0.64481 0.13131 0.44742 0.0
C487 C 0.64977 0.13779 0.47734 0.0
H488 H 0.69049 0.11421 0.43266 0.0
H489 H 0.63007 0.13421 0.43607 0.0
H490 H 0.70173 0.12961 0.36529 0.0
H491 H 0.71004 0.20536 0.37596 0.0
H492 H 0.56421 0.01798 0.40159 0.0
H493 H 0.69927 0.12327 0.48611 0.0
H494 H 0.63861 0.14539 0.48895 0.0
C495 C 0.86617 0.53491 0.77209 0.0
C496 C 0.87285 0.51626 0.78028 0.0
N497 N 0.89786 0.52894 0.79075 0.0
N498 N 0.88677 0.55944 0.77729 0.0
C499 C 0.90585 0.5552 0.78898 0.0
H500 H 0.84774 0.53087 0.76175 0.0
Co501 Co 0.88608 0.58935 0.76283 0.0
C502 C 0.94175 0.63083 0.75348 0.0
O503 O 0.93344 0.63594 0.72843 0.0
N504 N 0.88412 0.61921 0.74829 0.0
C505 C 0.88845 0.65964 0.74722 0.0
C506 C 0.89481 0.64296 0.76235 0.0
C507 C 0.87054 0.62183 0.7252 0.0
N508 N 0.87309 0.64623 0.72385 0.0
O509 O 0.87522 0.59546 0.80118 0.0
H510 H 0.90636 0.6478 0.78264 0.0
H511 H 0.85858 0.60628 0.70969 0.0
O512 O 0.92488 0.61293 0.77122 0.0
C513 C 0.84992 0.58349 0.79959 0.0
O514 O 0.83836 0.56998 0.77533 0.0
N515 N 0.8933 0.58091 0.72518 0.0
C516 C 0.89903 0.5681 0.66739 0.0
C517 C 0.91951 0.57523 0.68806 0.0
C518 C 0.91585 0.58064 0.71731 0.0
C519 C 0.87195 0.57001 0.70666 0.0
C520 C 0.87454 0.56422 0.67724 0.0
H521 H 0.93126 0.58485 0.73338 0.0
H522 H 0.85287 0.56618 0.7147 0.0
H523 H 0.92555 0.57093 0.79475 0.0
H524 H 0.86026 0.49493 0.77859 0.0
H525 H 0.89403 0.67976 0.75344 0.0
H526 H 0.93815 0.57675 0.68163 0.0
H527 H 0.85782 0.55763 0.66224 0.0
C528 C 0.50288 0.33921 0.77183 0.0
C529 C 0.52148 0.36433 0.78087 0.0
N530 N 0.50904 0.37816 0.78644 0.0
N531 N 0.47874 0.33706 0.7716 0.0
C532 C 0.48305 0.3611 0.7809 0.0
H533 H 0.50683 0.32375 0.76465 0.0
Co534 Co 0.44959 0.30781 0.75432 0.0
C535 C 0.40994 0.32435 0.74164 0.0
O536 O 0.40653 0.31231 0.71586 0.0
N537 N 0.42013 0.27748 0.73689 0.0
C538 C 0.37962 0.24214 0.73338 0.0
C539 C 0.39604 0.26424 0.74994 0.0
C540 C 0.41784 0.26258 0.71259 0.0
N541 N 0.39337 0.24106 0.70984 0.0
O542 O 0.44081 0.28925 0.79214 0.0
H543 H 0.39086 0.27008 0.77063 0.0
H544 H 0.43373 0.26697 0.69726 0.0
O545 O 0.42641 0.32405 0.76072 0.0
C546 C 0.44916 0.2727 0.78903 0.0
O547 O 0.46097 0.27299 0.76398 0.0
N548 N 0.46132 0.32451 0.71771 0.0
C549 C 0.4827 0.34459 0.6624 0.0
C550 C 0.47248 0.35737 0.67989 0.0
C551 C 0.46272 0.34752 0.70819 0.0
C552 C 0.47428 0.31414 0.70251 0.0
C553 C 0.48471 0.32353 0.67445 0.0
H554 H 0.4563 0.35835 0.72216 0.0
H555 H 0.47596 0.29796 0.71202 0.0
H556 H 0.46774 0.36646 0.7822 0.0
H557 H 0.54257 0.3719 0.78308 0.0
H558 H 0.35939 0.22754 0.73889 0.0
H559 H 0.47171 0.37446 0.67156 0.0
H560 H 0.49307 0.31358 0.66179 0.0
C561 C 0.70758 0.1797 0.78901 0.0
C562 C 0.68425 0.17881 0.79595 0.0
N563 N 0.66401 0.15462 0.7888 0.0
N564 N 0.70251 0.15617 0.77762 0.0
C565 C 0.67559 0.14103 0.778 0.0
H566 H 0.72706 0.197 0.79094 0.0
Co567 Co 0.73044 0.1529 0.76102 0.0
C568 C 0.70989 0.09611 0.74763 0.0
O569 O 0.72307 0.10439 0.72247 0.0
N570 N 0.75967 0.15068 0.7447 0.0
C571 C 0.79304 0.1422 0.74215 0.0
C572 C 0.77052 0.13721 0.75741 0.0
C573 C 0.77649 0.16421 0.72212 0.0
N574 N 0.79685 0.15935 0.72002 0.0
O575 O 0.74766 0.16026 0.79967 0.0
H576 H 0.76292 0.12507 0.77717 0.0
H577 H 0.77461 0.17814 0.70796 0.0
O578 O 0.71066 0.11321 0.76659 0.0
C579 C 0.76702 0.18415 0.7974 0.0
O580 O 0.7704 0.19666 0.77199 0.0
N581 N 0.71566 0.15038 0.72347 0.0
C582 C 0.704 0.15418 0.66456 0.0
C583 C 0.68781 0.13107 0.68092 0.0
C584 C 0.69351 0.1299 0.71087 0.0
C585 C 0.72867 0.17421 0.70931 0.0
C586 C 0.72364 0.17646 0.67953 0.0
H587 H 0.68065 0.11222 0.72332 0.0
H588 H 0.74413 0.19126 0.72084 0.0
H589 H 0.66467 0.1211 0.76908 0.0
H590 H 0.68229 0.19507 0.80484 0.0
H591 H 0.80622 0.13476 0.74778 0.0
H592 H 0.67169 0.11369 0.67048 0.0
H593 H 0.73555 0.19516 0.66812 0.0
C594 C 0.50026 0.17163 0.26281 0.0
C595 C 0.51924 0.16536 0.27089 0.0
N596 N 0.50706 0.14078 0.28264 0.0
N597 N 0.47601 0.15117 0.2693 0.0
C598 C 0.48076 0.13263 0.28164 0.0
H599 H 0.5039 0.1898 0.25209 0.0
Co600 Co 0.44517 0.15133 0.25713 0.0
C601 C 0.40498 0.09546 0.24508 0.0
O602 O 0.39935 0.1044 0.22087 0.0
N603 N 0.4142 0.15231 0.24513 0.0
C604 C 0.37316 0.14586 0.24841 0.0
C605 C 0.39174 0.14116 0.26154 0.0
C606 C 0.40868 0.16403 0.2222 0.0
N607 N 0.38381 0.16025 0.22359 0.0
O608 O 0.43937 0.1597 0.297 0.0
H609 H 0.38898 0.13014 0.28191 0.0
H610 H 0.42256 0.17572 0.20507 0.0
O611 O 0.42296 0.11196 0.26308 0.0
C612 C 0.45145 0.18509 0.29734 0.0
O613 O 0.46522 0.19795 0.27377 0.0
N614 N 0.4534 0.14709 0.2182 0.0
C615 C 0.47034 0.1484 0.16032 0.0
C616 C 0.46248 0.12582 0.17795 0.0
C617 C 0.45496 0.12593 0.20737 0.0
C618 C 0.46377 0.17008 0.20233 0.0
C619 C 0.47187 0.17108 0.17302 0.0
H620 H 0.45069 0.10915 0.22134 0.0
H621 H 0.46568 0.1878 0.21257 0.0
H622 H 0.4653 0.11329 0.28891 0.0
H623 H 0.54045 0.1781 0.26856 0.0
H624 H 0.35323 0.13893 0.25641 0.0
H625 H 0.46236 0.1084 0.16911 0.0
H626 H 0.47865 0.18915 0.16027 0.0
C627 C 0.86521 0.33647 0.2623 0.0
C628 C 0.87069 0.36145 0.27069 0.0
N629 N 0.89496 0.37408 0.28322 0.0
N630 N 0.88588 0.33317 0.26935 0.0
C631 C 0.90371 0.35638 0.28233 0.0
H632 H 0.84741 0.32169 0.25119 0.0
Co633 Co 0.88678 0.30273 0.25782 0.0
C634 C 0.9431 0.31831 0.25116 0.0
O635 O 0.93541 0.30346 0.22706 0.0
N636 N 0.88677 0.27097 0.24629 0.0
C637 C 0.8927 0.236 0.25015 0.0
C638 C 0.89616 0.25866 0.26393 0.0
C639 C 0.8772 0.25488 0.22207 0.0
N640 N 0.88074 0.23363 0.22374 0.0
O641 O 0.87478 0.28755 0.29694 0.0
H642 H 0.90507 0.26578 0.2856 0.0
H643 H 0.86791 0.25841 0.20327 0.0
O644 O 0.92566 0.31968 0.26768 0.0
C645 C 0.85009 0.27105 0.29291 0.0
O646 O 0.84006 0.26917 0.26616 0.0
N647 N 0.89442 0.3165 0.21942 0.0
C648 C 0.8995 0.33207 0.1605 0.0
C649 C 0.91984 0.34699 0.18087 0.0
C650 C 0.91649 0.33935 0.21066 0.0
C651 C 0.87316 0.30434 0.20088 0.0
C652 C 0.87548 0.31119 0.17099 0.0
H653 H 0.93165 0.35174 0.22647 0.0
H654 H 0.85448 0.28859 0.20923 0.0
H655 H 0.92296 0.3605 0.29027 0.0
H656 H 0.8576 0.36955 0.26817 0.0
H657 H 0.89821 0.22215 0.25915 0.0
H658 H 0.93807 0.3643 0.17383 0.0
H659 H 0.85892 0.29969 0.15618 0.0
C660 C 0.69344 0.52647 0.27022 0.0
C661 C 0.66802 0.50809 0.27845 0.0
N662 N 0.65491 0.52107 0.28511 0.0
N663 N 0.6965 0.55101 0.27159 0.0
C664 C 0.67271 0.54714 0.28101 0.0
H665 H 0.70855 0.52218 0.26267 0.0
Co666 Co 0.7266 0.58077 0.25661 0.0
C667 C 0.71072 0.62088 0.24373 0.0
O668 O 0.7241 0.6252 0.21881 0.0
N669 N 0.75771 0.61103 0.24159 0.0
C670 C 0.79231 0.6522 0.24072 0.0
C671 C 0.77056 0.63426 0.25664 0.0
C672 C 0.77249 0.61542 0.21664 0.0
N673 N 0.79351 0.64035 0.21546 0.0
O674 O 0.74318 0.5879 0.29563 0.0
H675 H 0.76424 0.63805 0.27785 0.0
H676 H 0.76839 0.60073 0.19968 0.0
O677 O 0.71013 0.60381 0.26258 0.0
C678 C 0.75952 0.57927 0.2931 0.0
O679 O 0.7604 0.56854 0.26765 0.0
N680 N 0.7118 0.57048 0.21888 0.0
C681 C 0.69402 0.55085 0.1623 0.0
C682 C 0.68039 0.56023 0.17958 0.0
C683 C 0.68907 0.56909 0.20848 0.0
C684 C 0.72309 0.55839 0.20366 0.0
C685 C 0.71487 0.54887 0.17498 0.0
H686 H 0.67753 0.57477 0.22224 0.0
H687 H 0.73913 0.55678 0.21363 0.0
H688 H 0.66812 0.56292 0.2836 0.0
H689 H 0.65981 0.4868 0.2795 0.0
H690 H 0.80585 0.67257 0.24704 0.0
H691 H 0.66342 0.56091 0.17071 0.0
H692 H 0.72546 0.54115 0.16245 0.0
C693 C 0.50789 0.16192 0.88462 0.0
C694 C 0.50127 0.18054 0.87607 0.0
N695 N 0.47725 0.16794 0.86301 0.0
N696 N 0.48822 0.13748 0.87713 0.0
C697 C 0.46979 0.14175 0.86367 0.0
H698 H 0.52565 0.16587 0.89653 0.0
Co699 Co 0.4892 0.10734 0.89038 0.0
C700 C 0.43367 0.06516 0.8991 0.0
O701 O 0.44228 0.05971 0.9237 0.0
N702 N 0.49144 0.07728 0.90357 0.0
C703 C 0.48753 0.03704 0.90237 0.0
C704 C 0.48136 0.05424 0.88814 0.0
C705 C 0.50441 0.07371 0.92665 0.0
N706 N 0.5021 0.04937 0.92662 0.0
O707 O 0.50066 0.10254 0.85161 0.0
H708 H 0.47032 0.05024 0.86756 0.0
H709 H 0.51564 0.08848 0.94322 0.0
O710 O 0.45034 0.08352 0.88157 0.0
C711 C 0.52601 0.11532 0.85287 0.0
O712 O 0.53744 0.12907 0.87704 0.0
N713 N 0.48143 0.11453 0.92852 0.0
C714 C 0.47431 0.12557 0.98667 0.0
C715 C 0.45438 0.11918 0.96545 0.0
C716 C 0.45875 0.11468 0.93609 0.0
C717 C 0.50228 0.12466 0.94776 0.0
C718 C 0.49898 0.12955 0.97733 0.0
H719 H 0.44378 0.1111 0.91965 0.0
H720 H 0.52154 0.12871 0.94013 0.0
H721 H 0.45092 0.12602 0.85556 0.0
H722 H 0.51333 0.2018 0.87909 0.0
H723 H 0.48229 0.01728 0.89497 0.0
H724 H 0.43565 0.11762 0.97151 0.0
H725 H 0.51531 0.13564 -0.0072 0.0
C726 C 0.87568 0.35902 0.87632 0.0
C727 C 0.85664 0.33372 0.8684 0.0
N728 N 0.86848 0.3191 0.86441 0.0
N729 N 0.89952 0.36051 0.87738 0.0
C730 C 0.89457 0.33588 0.86969 0.0
H731 H 0.87221 0.37505 0.88236 0.0
Co732 Co 0.92889 0.3897 0.89436 0.0
C733 C 0.96889 0.37339 0.90546 0.0
O734 O 0.97293 0.38565 0.9312 0.0
N735 N 0.95855 0.42001 0.91156 0.0
C736 C 0.99898 0.45551 0.91508 0.0
C737 C 0.98245 0.43368 0.89817 0.0
C738 C 0.96106 0.43436 0.93644 0.0
N739 N 0.98547 0.45591 0.93921 0.0
O740 O 0.93705 0.40835 0.85667 0.0
H741 H 0.98751 0.42816 0.87718 0.0
H742 H 0.94521 0.4299 0.95185 0.0
O743 O 0.95201 0.37357 0.88693 0.0
C744 C 0.92892 0.42501 0.86024 0.0
O745 O 0.91778 0.425 0.8857 0.0
N746 N 0.9178 0.3728 0.93094 0.0
C747 C 0.89751 0.35225 0.98643 0.0
C748 C 0.90763 0.33979 0.96829 0.0
C749 C 0.91686 0.34988 0.93996 0.0
C750 C 0.90487 0.38283 0.9468 0.0
C751 C 0.89502 0.37323 0.975 0.0
H752 H 0.92318 0.33923 0.92557 0.0
H753 H 0.90279 0.39892 0.9377 0.0
H754 H 0.90946 0.32991 0.86958 0.0
H755 H 0.83563 0.32654 0.86602 0.0
H756 H 1.01938 0.46989 0.90998 0.0
H757 H 0.90866 0.32269 0.97611 0.0
H758 H 0.88665 0.38289 0.98817 0.0
C759 C 0.66851 0.51901 0.86512 0.0
C760 C 0.69153 0.51943 0.85785 0.0
N761 N 0.71202 0.54396 0.86307 0.0
N762 N 0.67403 0.5432 0.87477 0.0
C763 C 0.70088 0.55825 0.87289 0.0
H764 H 0.64898 0.50164 0.86487 0.0
Co765 Co 0.64687 0.547 0.89243 0.0
C766 C 0.66656 0.60404 0.90234 0.0
O767 O 0.65444 0.59651 0.92818 0.0
N768 N 0.61824 0.5495 0.90996 0.0
C769 C 0.58469 0.55761 0.91361 0.0
C770 C 0.60565 0.5609 0.89639 0.0
C771 C 0.60406 0.53898 0.93522 0.0
N772 N 0.58374 0.54381 0.93809 0.0
O773 O 0.62749 0.53694 0.85501 0.0
H774 H 0.61128 0.57086 0.87506 0.0
H775 H 0.60753 0.52694 0.95077 0.0
O776 O 0.6655 0.58639 0.88396 0.0
C777 C 0.60805 0.51328 0.85867 0.0
O778 O 0.60501 0.50205 0.88488 0.0
N779 N 0.66427 0.55256 0.92895 0.0
C780 C 0.6811 0.55504 0.98703 0.0
C781 C 0.69575 0.57615 0.96748 0.0
C782 C 0.68736 0.5742 0.93808 0.0
C783 C 0.65277 0.53033 0.9461 0.0
C784 C 0.66032 0.53129 0.97566 0.0
H785 H 0.69897 0.59055 0.92329 0.0
H786 H 0.63639 0.51222 0.9373 0.0
H787 H 0.71216 0.57868 0.88015 0.0
H788 H 0.69314 0.50261 0.8502 0.0
H789 H 0.57124 0.56483 0.90846 0.0
H790 H 0.71293 0.59427 0.97508 0.0
H791 H 0.64894 0.51417 0.98977 0.0
C792 C 0.54114 0.85935 0.7261 0.0
C793 C 0.52145 0.86448 0.71761 0.0
N794 N 0.53274 0.88829 0.70399 0.0
N795 N 0.56488 0.87982 0.71808 0.0
C796 C 0.55915 0.89713 0.70436 0.0
H797 H 0.53842 0.84191 0.73785 0.0
Co798 Co 0.59667 0.88143 0.72882 0.0
C799 C 0.63592 0.93803 0.73702 0.0
O800 O 0.64341 0.93028 0.7608 0.0
N801 N 0.62899 0.88232 0.73938 0.0
C802 C 0.67037 0.88999 0.73436 0.0
C803 C 0.65051 0.89284 0.72145 0.0
C804 C 0.63632 0.87274 0.7629 0.0
N805 N 0.66141 0.87732 0.76051 0.0
O806 O 0.60009 0.87075 0.68909 0.0
H807 H 0.65171 0.90211 0.70017 0.0
H808 H 0.62388 0.86276 0.78173 0.0
O809 O 0.61747 0.92056 0.72019 0.0
C810 C 0.59244 0.84605 0.69219 0.0
O811 O 0.58455 0.83526 0.71864 0.0
N812 N 0.59037 0.88773 0.76778 0.0
C813 C 0.57806 0.89023 0.82676 0.0
C814 C 0.58322 0.91108 0.80729 0.0
C815 C 0.58843 0.90901 0.77744 0.0
C816 C 0.58197 0.86603 0.7855 0.0
C817 C 0.57646 0.86705 0.81538 0.0
H818 H 0.59078 0.92443 0.76225 0.0
H819 H 0.58001 0.84789 0.77642 0.0
H820 H 0.57402 0.91604 0.6954 0.0
H821 H 0.50038 0.85144 0.72073 0.0
H822 H 0.68975 0.89641 0.72496 0.0
H823 H 0.58308 0.92868 0.81504 0.0
H824 H 0.57169 0.85015 0.82952 0.0
C825 C 0.17634 0.68613 0.72467 0.0
C826 C 0.17014 0.66104 0.71574 0.0
N827 N 0.14555 0.64888 0.70401 0.0
N828 N 0.15578 0.68997 0.71885 0.0
C829 C 0.13732 0.66696 0.70596 0.0
H830 H 0.19458 0.70061 0.73529 0.0
Co831 Co 0.15553 0.72075 0.7312 0.0
C832 C 0.09984 0.7046 0.74368 0.0
O833 O 0.1089 0.71894 0.76805 0.0
N834 N 0.15575 0.75259 0.74339 0.0
C835 C 0.14773 0.78625 0.73999 0.0
C836 C 0.14493 0.76387 0.72628 0.0
C837 C 0.16538 0.76901 0.76742 0.0
N838 N 0.16055 0.7895 0.76599 0.0
O839 O 0.16388 0.73464 0.69124 0.0
H840 H 0.13527 0.75611 0.70509 0.0
H841 H 0.17529 0.766 0.78603 0.0
O842 O 0.11619 0.7033 0.72535 0.0
C843 C 0.18879 0.75109 0.69306 0.0
O844 O 0.20081 0.75337 0.7186 0.0
N845 N 0.15173 0.70841 0.76999 0.0
C846 C 0.1546 0.69302 0.82747 0.0
C847 C 0.13183 0.67787 0.81027 0.0
C848 C 0.13117 0.68542 0.78097 0.0
C849 C 0.1749 0.72154 0.78546 0.0
C850 C 0.17667 0.7145 0.81454 0.0
H851 H 0.11429 0.67272 0.76723 0.0
H852 H 0.19207 0.73787 0.77517 0.0
H853 H 0.11802 0.66329 0.69878 0.0
H854 H 0.18294 0.65253 0.71734 0.0
H855 H 0.141 0.79924 0.73127 0.0
H856 H 0.11482 0.66047 0.81941 0.0
H857 H 0.19478 0.72625 0.82707 0.0
C858 C 0.34916 0.49925 0.71898 0.0
C859 C 0.3743 0.51785 0.71025 0.0
N860 N 0.3865 0.50505 0.69959 0.0
N861 N 0.34534 0.47472 0.71398 0.0
C862 C 0.36841 0.47883 0.70186 0.0
H863 H 0.33473 0.5033 0.72922 0.0
Co864 Co 0.31499 0.4447 0.72793 0.0
C865 C 0.329 0.40258 0.73536 0.0
O866 O 0.31549 0.39701 0.76034 0.0
N867 N 0.28342 0.41448 0.74195 0.0
C868 C 0.24727 0.37427 0.74163 0.0
C869 C 0.27 0.39149 0.72653 0.0
C870 C 0.26787 0.41084 0.76597 0.0
N871 N 0.24596 0.38656 0.76645 0.0
O872 O 0.2977 0.44009 0.68958 0.0
H873 H 0.27628 0.38757 0.70537 0.0
H874 H 0.27203 0.42555 0.78287 0.0
O875 O 0.3302 0.42101 0.71824 0.0
C876 C 0.28188 0.44916 0.69384 0.0
O877 O 0.28216 0.45949 0.72 0.0
N878 N 0.33065 0.45217 0.76562 0.0
C879 C 0.34774 0.46351 0.82415 0.0
C880 C 0.36133 0.4564 0.8037 0.0
C881 C 0.35297 0.45169 0.77408 0.0
C882 C 0.32014 0.46311 0.78399 0.0
C883 C 0.32771 0.4681 0.81368 0.0
H884 H 0.36425 0.44736 0.75824 0.0
H885 H 0.30504 0.46712 0.7757 0.0
H886 H 0.37225 0.46303 0.69584 0.0
H887 H 0.3829 0.53919 0.71146 0.0
H888 H 0.23253 0.35454 0.73446 0.0
H889 H 0.37804 0.45431 0.81057 0.0
H890 H 0.31722 0.47447 0.82841 0.0
C891 C 0.5228 0.86706 0.12299 0.0
C892 C 0.52452 0.84528 0.13131 0.0
N893 N 0.54905 0.84981 0.12502 0.0
N894 N 0.54613 0.88567 0.11153 0.0
C895 C 0.56201 0.87471 0.11351 0.0
H896 H 0.50506 0.86858 0.12375 0.0
Co897 Co 0.54822 0.9152 0.09161 0.0
C898 C 0.60458 0.95265 0.07818 0.0
O899 O 0.59588 0.95506 0.05198 0.0
N900 N 0.54929 0.94494 0.07187 0.0
C901 C 0.55675 0.98623 0.06627 0.0
C902 C 0.56092 0.96947 0.0841 0.0
C903 C 0.53775 0.94735 0.04666 0.0
N904 N 0.54213 0.97233 0.04264 0.0
O905 O 0.53925 0.92666 0.12837 0.0
H906 H 0.57145 0.97476 0.10512 0.0
H907 H 0.52597 0.93119 0.03167 0.0
O908 O 0.58786 0.93714 0.09794 0.0
C909 C 0.5152 0.92133 0.12479 0.0
O910 O 0.50322 0.91043 0.09955 0.0
N911 N 0.55236 0.90119 0.05599 0.0
C912 C 0.55117 0.88038 0.00033 0.0
C913 C 0.57375 0.88962 0.01826 0.0
C914 C 0.57367 0.89928 0.04658 0.0
C915 C 0.52913 0.8887 0.04056 0.0
C916 C 0.52815 0.87854 0.01223 0.0
H917 H 0.59107 0.90589 0.06025 0.0
H918 H 0.51157 0.88787 0.04974 0.0
H919 H 0.58206 0.884 0.10511 0.0
H920 H 0.50855 0.82705 0.14043 0.0
H921 H 0.56323 1.00684 0.07101 0.0
H922 H 0.59156 0.8903 0.00999 0.0
H923 H 0.51016 0.87096 -0.00086 0.0
C924 C 0.16132 0.66372 0.12501 0.0
C925 C 0.18396 0.68676 0.1322 0.0
N926 N 0.18025 0.70736 0.1262 0.0
N927 N 0.14293 0.66933 0.11464 0.0
C928 C 0.15498 0.69629 0.11602 0.0
H929 H 0.15904 0.64412 0.1257 0.0
Co930 Co 0.11215 0.642 0.09662 0.0
C931 C 0.07405 0.66096 0.0876 0.0
O932 O 0.06923 0.64867 0.0618 0.0
N933 N 0.08134 0.61317 0.07873 0.0
C934 C 0.04021 0.57877 0.07491 0.0
C935 C 0.0574 0.60003 0.09219 0.0
C936 C 0.07814 0.59903 0.05348 0.0
N937 N 0.05332 0.57818 0.05052 0.0
O938 O 0.10308 0.62204 0.13369 0.0
H939 H 0.05283 0.60541 0.11355 0.0
H940 H 0.09384 0.60284 0.03811 0.0
O941 O 0.09094 0.66014 0.1057 0.0
C942 C 0.1076 0.60281 0.12949 0.0
O943 O 0.11604 0.60037 0.10316 0.0
N944 N 0.12368 0.65993 0.06036 0.0
C945 C 0.13762 0.67762 0.00253 0.0
C946 C 0.13064 0.69164 0.02246 0.0
C947 C 0.12442 0.68284 0.05172 0.0
C948 C 0.1348 0.64904 0.04279 0.0
C949 C 0.14124 0.65706 0.01334 0.0
H950 H 0.11935 0.69404 0.06679 0.0
H951 H 0.13704 0.63283 0.05119 0.0
H952 H 0.14618 0.7077 0.10809 0.0
H953 H 0.20223 0.68828 0.14017 0.0
H954 H 1.0197 0.5648 0.08004 0.0
H955 H 0.12915 0.70864 0.01526 0.0
H956 H 0.14739 0.6462 -0.00112 0.0
C957 C 0.3642 0.50689 0.10814 0.0
C958 C 0.3391 0.50063 0.11661 0.0
N959 N 0.32555 0.47471 0.1238 0.0
N960 N 0.36673 0.4851 0.10986 0.0
C961 C 0.34281 0.46571 0.11978 0.0
H962 H 0.37936 0.52596 0.0999 0.0
Co963 Co 0.39646 0.48525 0.09367 0.0
C964 C 0.38026 0.42908 0.08018 0.0
O965 O 0.3933 0.43816 0.05507 0.0
N966 N 0.42718 0.48637 0.07741 0.0
C967 C 0.46221 0.48058 0.07436 0.0
C968 C 0.44034 0.47556 0.09092 0.0
C969 C 0.44192 0.4983 0.05287 0.0
N970 N 0.46314 0.49486 0.05033 0.0
O971 O 0.4142 0.4943 0.13211 0.0
H972 H 0.43429 0.46454 0.11159 0.0
H973 H 0.43786 0.50994 0.03734 0.0
O974 O 0.37994 0.44558 0.09928 0.0
C975 C 0.42874 0.51966 0.13111 0.0
O976 O 0.4272 0.53212 0.10747 0.0
N977 N 0.38078 0.48088 0.05635 0.0
C978 C 0.36335 0.48225 -0.0006 0.0
C979 C 0.34985 0.45924 0.01672 0.0
C980 C 0.35832 0.45931 0.0458 0.0
C981 C 0.3916 0.50428 0.04125 0.0
C982 C 0.38361 0.50535 0.01238 0.0
H983 H 0.34696 0.44201 0.05951 0.0
H984 H 0.4073 0.5221 0.05139 0.0
H985 H 0.33771 0.4452 0.12262 0.0
H986 H 0.33134 0.51411 0.11733 0.0
H987 H 0.47611 0.4739 0.07947 0.0
H988 H 0.33318 0.4414 0.00773 0.0
H989 H 0.39401 0.52372 -6e-05 0.0
C990 C 0.16257 0.50019 0.59771 0.0
C991 C 0.18291 0.4961 0.60642 0.0
N992 N 0.17243 0.47243 0.62025 0.0
N993 N 0.13919 0.47921 0.6058 0.0
C994 C 0.14582 0.46264 0.61978 0.0
H995 H 0.16462 0.51719 0.58558 0.0
Co996 Co 0.10694 0.47629 0.59368 0.0
C997 C 0.07456 0.41539 0.61606 0.0
O998 O 0.07509 0.4137 0.64522 0.0
N999 N 0.0743 0.47349 0.58129 0.0
C1000 C 0.03167 0.46235 0.58218 0.0
C1001 C 0.05098 0.45888 0.59558 0.0
C1002 C 0.06853 0.48598 0.55944 0.0
N1003 N 0.04273 0.47939 0.55936 0.0
O1004 O 0.10294 0.48893 0.63223 0.0
H1005 H 0.04822 0.44689 0.6151 0.0
H1006 H 0.08299 0.50055 0.54454 0.0
O1007 O 0.08662 0.43832 0.60381 0.0
C1008 C 0.10989 0.51331 0.6274 0.0
O1009 O 0.11737 0.5227 0.60034 0.0
N1010 N 0.11305 0.46795 0.55597 0.0
C1011 C 0.12392 0.46232 0.49734 0.0
C1012 C 0.1181 0.442 0.51793 0.0
C1013 C 0.11349 0.4456 0.54761 0.0
C1014 C 0.12146 0.48881 0.53698 0.0
C1015 C 0.12633 0.48625 0.50733 0.0
H1016 H 0.1104 0.43054 0.5637 0.0
H1017 H 0.12427 0.50758 0.54497 0.0
H1018 H 0.1315 0.44348 0.62868 0.0
H1019 H 0.20386 0.50967 0.60312 0.0
H1020 H 1.01108 0.45306 0.58881 0.0
H1021 H 0.11733 0.42372 0.51121 0.0
H1022 H 0.13139 0.50268 0.49231 0.0
C1023 C 0.52863 0.67142 0.6081 0.0
C1024 C 0.5341 0.69628 0.61701 0.0
N1025 N 0.56049 0.71148 0.62066 0.0
N1026 N 0.5514 0.67078 0.60606 0.0
C1027 C 0.57057 0.69552 0.61406 0.0
H1028 H 0.50931 0.65504 0.60233 0.0
Co1029 Co 0.55203 0.64191 0.58869 0.0
C1030 C 0.61216 0.66638 0.60754 0.0
O1031 O 0.61186 0.66508 0.63677 0.0
N1032 N 0.55243 0.61259 0.57087 0.0
C1033 C 0.56135 0.57993 0.56398 0.0
C1034 C 0.56717 0.60208 0.58053 0.0
C1035 C 0.53749 0.59615 0.5486 0.0
N1036 N 0.54262 0.57615 0.5438 0.0
O1037 O 0.54341 0.62359 0.62648 0.0
H1038 H 0.58072 0.60948 0.5992 0.0
H1039 H 0.52274 0.59842 0.53645 0.0
O1040 O 0.59044 0.65805 0.59328 0.0
C1041 C 0.51873 0.60642 0.62384 0.0
O1042 O 0.50664 0.60574 0.59885 0.0
N1043 N 0.55663 0.65819 0.55214 0.0
C1044 C 0.5566 0.67683 0.49556 0.0
C1045 C 0.57989 0.6884 0.5126 0.0
C1046 C 0.57933 0.67916 0.54135 0.0
C1047 C 0.53336 0.64875 0.53704 0.0
C1048 C 0.53289 0.65755 0.50842 0.0
H1049 H 0.59707 0.68893 0.55467 0.0
H1050 H 0.51514 0.63365 0.54704 0.0
H1051 H 0.59154 0.70213 0.61376 0.0
H1052 H 0.51978 0.70272 0.62052 0.0
H1053 H 0.56962 0.56709 0.56739 0.0
H1054 H 0.59836 0.70408 0.50357 0.0
H1055 H 0.51446 0.64845 0.496 0.0
C1056 C 0.36061 0.85776 0.60436 0.0
C1057 C 0.3355 0.83895 0.61295 0.0
N1058 N 0.32178 0.85132 0.61944 0.0
N1059 N 0.36285 0.88197 0.60535 0.0
C1060 C 0.3389 0.8775 0.61491 0.0
H1061 H 0.37605 0.85397 0.59681 0.0
Co1062 Co 0.39242 0.91163 0.5897 0.0
C1063 C 0.37647 0.9515 0.57656 0.0
O1064 O 0.3893 0.95519 0.55134 0.0
N1065 N 0.42314 0.94172 0.57398 0.0
C1066 C 0.45766 0.98289 0.57206 0.0
C1067 C 0.43619 0.9652 0.58854 0.0
C1068 C 0.43749 0.9457 0.54879 0.0
N1069 N 0.4584 0.9706 0.54697 0.0
O1070 O 0.40944 0.9196 0.62832 0.0
H1071 H 0.43023 0.96932 0.60978 0.0
H1072 H 0.43324 0.93077 0.5321 0.0
O1073 O 0.37593 0.93462 0.59565 0.0
C1074 C 0.42598 0.91123 0.62592 0.0
O1075 O 0.42657 0.89988 0.60082 0.0
N1076 N 0.37702 0.90076 0.55227 0.0
C1077 C 0.35925 0.88247 0.49533 0.0
C1078 C 0.34543 0.89115 0.51336 0.0
C1079 C 0.35413 0.89934 0.5424 0.0
C1080 C 0.38816 0.88881 0.53651 0.0
C1081 C 0.38 0.88003 0.50759 0.0
H1082 H 0.34267 0.90481 0.55659 0.0
H1083 H 0.40425 0.88706 0.54612 0.0
H1084 H 0.3337 0.89288 0.61726 0.0
H1085 H 0.32791 0.81777 0.61436 0.0
H1086 H 0.47131 1.00337 0.57787 0.0
H1087 H 0.32844 0.89201 0.5049 0.0
H1088 H 0.39065 0.8727 0.49452 0.0
C1089 C 0.17766 0.49786 0.21476 0.0
C1090 C 0.17079 0.51639 0.20639 0.0
N1091 N 0.14475 0.50362 0.1998 0.0
N1092 N 0.15611 0.47343 0.21357 0.0
C1093 C 0.1363 0.4775 0.20408 0.0
H1094 H 0.19699 0.502 0.22236 0.0
Co1095 Co 0.15682 0.444 0.22919 0.0
C1096 C 0.10123 0.40305 0.24111 0.0
O1097 O 0.1102 0.39907 0.26635 0.0
N1098 N 0.15834 0.41425 0.24493 0.0
C1099 C 0.15326 0.37361 0.24682 0.0
C1100 C 0.14831 0.39071 0.23057 0.0
C1101 C 0.16981 0.41097 0.26967 0.0
N1102 N 0.16682 0.3864 0.27147 0.0
O1103 O 0.16684 0.43674 0.19071 0.0
H1104 H 0.13801 0.38625 0.20943 0.0
H1105 H 0.18019 0.42605 0.28628 0.0
O1106 O 0.11761 0.42035 0.22245 0.0
C1107 C 0.19174 0.44534 0.19352 0.0
O1108 O 0.20327 0.45646 0.21887 0.0
N1109 N 0.15133 0.45419 0.26654 0.0
C1110 C 0.15053 0.47115 0.32377 0.0
C1111 C 0.12814 0.46206 0.3055 0.0
C1112 C 0.12932 0.4546 0.2763 0.0
C1113 C 0.1742 0.46657 0.28261 0.0
C1114 C 0.17418 0.47471 0.31168 0.0
H1115 H 0.11246 0.44889 0.26191 0.0
H1116 H 0.19241 0.46918 0.2731 0.0
H1117 H 0.1159 0.46186 0.20165 0.0
H1118 H 0.18396 0.53765 0.20523 0.0
H1119 H 0.14777 0.3535 0.24061 0.0
H1120 H 0.10992 0.4604 0.31386 0.0
H1121 H 0.19209 0.48245 0.32494 0.0
C1122 C 0.54528 0.6995 0.20259 0.0
C1123 C 0.52279 0.67605 0.19615 0.0
N1124 N 0.52815 0.65611 0.19865 0.0
N1125 N 0.56525 0.69493 0.20903 0.0
C1126 C 0.55426 0.66811 0.20608 0.0
H1127 H 0.54656 0.71867 0.20382 0.0
Co1128 Co 0.59726 0.72325 0.22416 0.0
C1129 C 0.63464 0.70343 0.23316 0.0
O1130 O 0.64063 0.71693 0.25823 0.0
N1131 N 0.62943 0.75295 0.239 0.0
C1132 C 0.67142 0.78603 0.23817 0.0
C1133 C 0.65227 0.76418 0.22327 0.0
C1134 C 0.63529 0.76899 0.26325 0.0
N1135 N 0.66076 0.78912 0.2634 0.0
O1136 O 0.60448 0.74101 0.18576 0.0
H1137 H 0.65478 0.75702 0.20195 0.0
H1138 H 0.62135 0.76639 0.28048 0.0
O1139 O 0.61746 0.704 0.21533 0.0
C1140 C 0.59881 0.75952 0.18946 0.0
O1141 O 0.59051 0.76219 0.21576 0.0
N1142 N 0.58762 0.70767 0.26173 0.0
C1143 C 0.57513 0.69204 0.32046 0.0
C1144 C 0.57999 0.67643 0.30048 0.0
C1145 C 0.58548 0.68424 0.27082 0.0
C1146 C 0.57888 0.72057 0.27968 0.0
C1147 C 0.57328 0.71361 0.30949 0.0
H1148 H 0.58871 0.67176 0.25563 0.0
H1149 H 0.5775 0.73721 0.27107 0.0
H1150 H 0.56466 0.65745 0.21082 0.0
H1151 H 0.50362 0.67376 0.1908 0.0
H1152 H 0.69145 0.79905 0.23051 0.0
H1153 H 0.58007 0.65872 0.30783 0.0
H1154 H 0.5688 0.72577 0.32397 0.0
C1155 C 0.34545 0.86167 0.216 0.0
C1156 C 0.37073 0.86843 0.20779 0.0
N1157 N 0.38295 0.89346 0.19735 0.0
N1158 N 0.34141 0.88223 0.21085 0.0
C1159 C 0.36465 0.9014 0.19918 0.0
H1160 H 0.33116 0.84316 0.22624 0.0
Co1161 Co 0.31058 0.88114 0.22511 0.0
C1162 C 0.32432 0.93678 0.23544 0.0
O1163 O 0.3108 0.92817 0.26035 0.0
N1164 N 0.27858 0.87874 0.23947 0.0
C1165 C 0.24208 0.88224 0.24012 0.0
C1166 C 0.26538 0.88923 0.22537 0.0
C1167 C 0.26229 0.86478 0.26229 0.0
N1168 N 0.24014 0.86677 0.26338 0.0
O1169 O 0.29404 0.87083 0.18644 0.0
H1170 H 0.27212 0.90098 0.20523 0.0
H1171 H 0.26608 0.85296 0.27779 0.0
O1172 O 0.32568 0.92012 0.21758 0.0
C1173 C 0.28112 0.84545 0.18732 0.0
O1174 O 0.28336 0.83356 0.21111 0.0
N1175 N 0.32567 0.88765 0.263 0.0
C1176 C 0.34271 0.89122 0.32124 0.0
C1177 C 0.35632 0.91265 0.30173 0.0
C1178 C 0.34797 0.91011 0.27221 0.0
C1179 C 0.31508 0.86553 0.28032 0.0
C1180 C 0.32265 0.86701 0.3099 0.0
H1181 H 0.35932 0.92627 0.25702 0.0
H1182 H 0.30017 0.84671 0.27122 0.0
H1183 H 0.36848 0.92107 0.19334 0.0
H1184 H 0.37948 0.85582 0.20934 0.0
H1185 H 0.22736 0.88749 0.23366 0.0
H1186 H 0.37305 0.93117 0.30925 0.0
H1187 H 0.31222 0.84962 0.32389 0.0
H1188 H 0.19849 0.19787 0.28566 0.0
H1189 H 0.27323 0.27038 0.29677 0.0
H1190 H 0.28104 0.27243 0.24316 0.0
H1191 H 0.26662 0.25354 0.19331 0.0
H1192 H 0.19236 0.18077 0.18203 0.0
H1193 H 0.1839 0.17914 0.23567 0.0
C1194 C 0.2164 0.21415 0.27626 0.0
C1195 C 0.23528 0.2339 0.29495 0.0
C1196 C 0.22064 0.21531 0.24551 0.0
C1197 C 0.25861 0.25474 0.28272 0.0
C1198 C 0.26297 0.25607 0.25212 0.0
C1199 C 0.24843 0.2376 0.20267 0.0
C1200 C 0.22998 0.21745 0.18412 0.0
C1201 C 0.24407 0.23653 0.23335 0.0
C1202 C 0.20671 0.1965 0.1962 0.0
C1203 C 0.20195 0.19553 0.22673 0.0
H1204 H 0.83742 0.02327 0.19796 0.0
H1205 H 0.76088 0.01747 0.18889 0.0
H1206 H 0.75382 1.01096 0.24258 0.0
H1207 H 0.76948 1.00701 0.29182 0.0
H1208 H 0.84552 1.01192 0.30109 0.0
H1209 H 0.85315 0.01939 0.24737 0.0
C1210 C 0.81926 0.02067 0.20784 0.0
C1211 C 0.79968 0.0208 0.18976 0.0
C1212 C 0.81546 0.01715 0.23858 0.0
C1213 C 0.77604 0.01705 0.20252 0.0
C1214 C 0.77211 1.0136 0.23314 0.0
C1215 C 0.78787 1.01015 0.28202 0.0
C1216 C 0.80708 1.00928 0.29998 0.0
C1217 C 0.79174 0.01376 0.25133 0.0
C1218 C 0.83061 1.0127 0.28734 0.0
C1219 C 0.83489 0.01683 0.25678 0.0
H1220 H 1.01895 0.83784 0.29515 0.0
H1221 H 1.01274 0.76068 0.2998 0.0
H1222 H 1.01033 0.75725 0.24571 0.0
H1223 H 1.01126 0.77658 0.19722 0.0
H1224 H 1.01772 0.85364 0.19176 0.0
H1225 H 1.01965 0.85719 0.24628 0.0
C1226 C 1.01706 0.8203 0.28428 0.0
C1227 C 1.01594 0.79954 0.30139 0.0
C1228 C 1.01629 0.8187 0.25316 0.0
C1229 C 1.01312 0.77673 0.28712 0.0
C1230 C 1.01212 0.77488 0.2562 0.0
C1231 C 1.01358 0.79433 0.20804 0.0
C1232 C 1.01482 0.81502 0.19087 0.0
C1233 C 1.01405 0.79589 0.23907 0.0
C1234 C 1.017 0.83764 0.20485 0.0
C1235 C 1.01794 0.83957 0.23586 0.0
H1236 H 0.83404 0.79287 0.69536 0.0
H1237 H 0.78566 0.8275 0.67307 0.0
H1238 H 0.78024 0.83361 0.72605 0.0
H1239 H 0.78776 0.82722 0.77825 0.0
H1240 H 0.83652 0.79298 0.80041 0.0
H1241 H 0.84339 0.78855 0.74746 0.0
C1242 C 0.82275 0.80225 0.70209 0.0
C1243 C 0.81036 0.80987 0.68053 0.0
C1244 C 0.81966 0.80553 0.73235 0.0
C1245 C 0.79524 0.82137 0.68943 0.0
C1246 C 0.79219 0.8249 0.71961 0.0
C1247 C 0.80026 0.81921 0.77147 0.0
C1248 C 0.81167 0.81046 0.79303 0.0
C1249 C 0.8041 0.81678 0.74119 0.0
C1250 C 0.82734 0.79958 0.78408 0.0
C1251 C 0.83136 0.79717 0.75391 0.0
H1252 H 0.25709 1.00019 0.78796 0.0
H1253 H 0.18525 1.00403 0.79514 0.0
H1254 H 0.18428 1.00872 0.74094 0.0
H1255 H 0.20418 1.01183 0.69193 0.0
H1256 H 0.27616 1.00799 0.68514 0.0
H1257 H 0.27642 1.00236 0.739 0.0
C1258 C 0.24146 1.0024 0.77756 0.0
C1259 C 0.2215 1.00221 0.79511 0.0
C1260 C 0.24083 1.00457 0.74666 0.0
C1261 C 0.20088 1.00437 0.78173 0.0
C1262 C 0.20029 1.00692 0.7509 0.0
C1263 C 0.21988 1.00974 0.70231 0.0
C1264 C 0.24014 1.01038 0.68481 0.0
C1265 C 0.22015 1.00699 0.7332 0.0
C1266 C 0.26018 1.00722 0.69827 0.0
C1267 C 0.26052 1.00431 0.72901 0.0
H1268 H 1.01541 0.24834 0.68686 0.0
H1269 H 0.02641 0.1805 0.67861 0.0
H1270 H 0.02985 0.17874 0.73286 0.0
H1271 H 0.0287 0.196 0.78228 0.0
H1272 H 1.0189 0.2647 0.79016 0.0
H1273 H 1.01512 0.26609 0.73615 0.0
C1274 C 1.0191 0.23352 0.69696 0.0
C1275 C 0.02099 0.21477 0.67899 0.0
C1276 C 0.02063 0.23242 0.72795 0.0
C1277 C 0.02502 0.19518 0.6922 0.0
C1278 C 0.02685 0.1941 0.7231 0.0
C1279 C 0.02591 0.21138 0.77218 0.0
C1280 C 0.02411 0.23022 0.79018 0.0
C1281 C 0.02445 0.21249 0.74116 0.0
C1282 C 0.01991 0.24969 0.77682 0.0
C1283 C 1.0181 0.25072 0.74594 0.0
H1284 H 0.86629 0.52959 0.62901 0.0
H1285 H 0.94159 0.60225 0.6346 0.0
H1286 H 0.94755 0.60124 0.58089 0.0
H1287 H 0.93087 0.58029 0.53242 0.0
H1288 H 0.85589 0.50753 0.52641 0.0
H1289 H 0.84988 0.50818 0.58041 0.0
C1290 C 0.88396 0.54517 0.61838 0.0
C1291 C 0.90346 0.56595 0.63552 0.0
C1292 C 0.88709 0.54462 0.58757 0.0
C1293 C 0.92649 0.58587 0.62176 0.0
C1294 C 0.92978 0.58546 0.5911 0.0
C1295 C 0.91309 0.5648 0.543 0.0
C1296 C 0.89366 0.54411 0.52584 0.0
C1297 C 0.91009 0.56509 0.57381 0.0
C1298 C 0.87096 0.5237 0.53951 0.0
C1299 C 0.86759 0.52404 0.57023 0.0
H1300 H 0.51401 0.35685 0.52727 0.0
H1301 H 0.43581 0.34742 0.51946 0.0
H1302 H 0.43128 0.34538 0.57348 0.0
H1303 H 0.44935 0.34609 0.6227 0.0
H1304 H 0.5271 0.35491 0.63125 0.0
H1305 H 0.53249 0.35831 0.57694 0.0
C1306 C 0.49603 0.35441 0.53745 0.0
C1307 C 0.47522 0.3521 0.5195 0.0
C1308 C 0.49371 0.35366 0.56851 0.0
C1309 C 0.45189 0.34868 0.53285 0.0
C1310 C 0.44941 0.34786 0.5637 0.0
C1311 C 0.46768 0.34934 0.61262 0.0
C1312 C 0.48797 0.35065 0.63059 0.0
C1313 C 0.47023 0.35047 0.58168 0.0
C1314 C 0.51138 0.3541 0.61754 0.0
C1315 C 0.51435 0.35584 0.58664 0.0
H1316 H 0.6589 0.13352 0.63164 0.0
H1317 H 0.7442 0.17531 0.62428 0.0
H1318 H 0.74085 0.1734 0.57009 0.0
H1319 H 0.71364 0.15831 0.5248 0.0
H1320 H 0.62839 0.11483 0.53236 0.0
H1321 H 0.63176 0.11876 0.5865 0.0
C1322 C 0.67672 0.14214 0.61815 0.0
C1323 C 0.7017 0.15455 0.63187 0.0
C1324 C 0.67468 0.14057 0.58708 0.0
C1325 C 0.72469 0.166 0.61417 0.0
C1326 C 0.72283 0.16472 0.58321 0.0
C1327 C 0.69587 0.14964 0.53838 0.0
C1328 C 0.67087 0.13642 0.52478 0.0
C1329 C 0.69793 0.1518 0.56945 0.0
C1330 C 0.64789 0.12546 0.54245 0.0
C1331 C 0.64977 0.12756 0.57336 0.0
H1332 H 0.43862 0.11193 0.12054 0.0
H1333 H 0.51363 0.18435 0.12912 0.0
H1334 H 0.5212 0.18424 0.07542 0.0
H1335 H 0.50623 0.16333 0.02631 0.0
H1336 H 0.43091 0.09102 0.01809 0.0
H1337 H 0.42337 0.09149 0.07153 0.0
C1338 C 0.45673 0.12749 0.1106 0.0
C1339 C 0.47571 0.14794 0.12845 0.0
C1340 C 0.46067 0.12746 0.07992 0.0
C1341 C 0.49885 0.1684 0.11553 0.0
C1342 C 0.50313 0.16834 0.08496 0.0
C1343 C 0.48823 0.14769 0.0363 0.0
C1344 C 0.46917 0.12717 0.01848 0.0
C1345 C 0.48414 0.14798 0.06697 0.0
C1346 C 0.4457 0.10718 0.03145 0.0
C1347 C 0.44149 0.1073 0.06196 0.0
H1348 H 0.86496 0.33353 0.12114 0.0
H1349 H 0.94287 0.34217 0.12805 0.0
H1350 H 0.94834 0.34761 0.07413 0.0
H1351 H 0.93088 0.34964 0.02532 0.0
H1352 H 0.8532 0.34123 0.01804 0.0
H1353 H 0.84728 0.33514 0.0721 0.0
C1354 C 0.88306 0.33649 0.11077 0.0
C1355 C 0.90348 0.33746 0.12836 0.0
C1356 C 0.8859 0.3392 0.07987 0.0
C1357 C 0.92705 0.34174 0.11487 0.0
C1358 C 0.93007 0.34455 0.0841 0.0
C1359 C 0.91248 0.34596 0.0356 0.0
C1360 C 0.89233 0.34549 0.01807 0.0
C1361 C 0.90955 0.34311 0.06644 0.0
C1362 C 0.86883 0.34146 0.0314 0.0
C1363 C 0.86553 0.33813 0.06216 0.0
H1364 H 0.68141 0.51993 0.0268 0.0
H1365 H 0.68997 0.59795 0.01974 0.0
H1366 H 0.6931 0.60269 0.07375 0.0
H1367 H 0.69292 0.58459 0.12281 0.0
H1368 H 0.68479 0.50694 0.13059 0.0
H1369 H 0.68116 0.50168 0.07626 0.0
C1370 C 0.68395 0.53792 0.03715 0.0
C1371 C 0.68561 0.55859 0.01941 0.0
C1372 C 0.68532 0.54036 0.0682 0.0
C1373 C 0.68917 0.58197 0.03296 0.0
C1374 C 0.69062 0.58457 0.06381 0.0
C1375 C 0.68986 0.56634 0.11254 0.0
C1376 C 0.6887 0.546 0.13031 0.0
C1377 C 0.68849 0.56383 0.08159 0.0
C1378 C 0.68549 0.5227 0.11704 0.0
C1379 C 0.68358 0.51979 0.08613 0.0
H1380 H 0.58709 0.91585 0.96334 0.0
H1381 H 0.51821 0.83758 0.96595 0.0
H1382 H 0.51985 0.83405 0.91155 0.0
H1383 H 0.54093 0.85375 0.86363 0.0
H1384 H 0.60944 0.93247 0.86173 0.0
H1385 H 0.6076 0.93567 0.91581 0.0
C1386 C 0.57273 0.89787 0.95196 0.0
C1387 C 0.55289 0.87677 0.96827 0.0
C1388 C 0.57349 0.89633 0.92102 0.0
C1389 C 0.5338 0.85386 0.95354 0.0
C1390 C 0.53469 0.85194 0.9226 0.0
C1391 C 0.55544 0.87155 0.87515 0.0
C1392 C 0.5753 0.89283 0.85895 0.0
C1393 C 0.5544 0.87312 0.90616 0.0
C1394 C 0.59379 0.91599 0.87386 0.0
C1395 C 0.59291 0.91773 0.90471 0.0
H1396 H 0.17397 0.68037 0.96264 0.0
H1397 H 0.10245 0.68501 0.97032 0.0
H1398 H 0.10082 0.68885 0.91641 0.0
H1399 H 0.11922 0.69018 0.86721 0.0
H1400 H 0.19088 0.68616 0.85883 0.0
H1401 H 0.19269 0.68207 0.91308 0.0
C1402 C 0.15808 0.68224 0.95243 0.0
C1403 C 0.13846 0.68255 0.97029 0.0
C1404 C 0.15706 0.6841 0.92144 0.0
C1405 C 0.11807 0.68523 0.95698 0.0
C1406 C 0.11692 0.6871 0.92618 0.0
C1407 C 0.13497 0.68799 0.87734 0.0
C1408 C 0.15467 0.68805 0.85945 0.0
C1409 C 0.13616 0.68632 0.90825 0.0
C1410 C 0.17544 0.68592 0.87251 0.0
C1411 C 0.17652 0.68373 0.90337 0.0
H1412 H 0.36169 0.44685 0.95988 0.0
H1413 H 0.35492 0.51721 0.96735 0.0
H1414 H 0.35116 0.51861 0.91309 0.0
H1415 H 0.35049 0.50007 0.86387 0.0
H1416 H 0.35664 0.42923 0.85668 0.0
H1417 H 0.36087 0.42823 0.9107 0.0
C1418 C 0.35892 0.46219 0.94957 0.0
C1419 C 0.35821 0.48169 0.96729 0.0
C1420 C 0.35728 0.4631 0.91857 0.0
C1421 C 0.35534 0.50194 0.9539 0.0
C1422 C 0.35334 0.5028 0.923 0.0
C1423 C 0.35266 0.48437 0.87415 0.0
C1424 C 0.3532 0.46474 0.85639 0.0
C1425 C 0.35446 0.48357 0.90516 0.0
C1426 C 0.35656 0.44479 0.86989 0.0
C1427 C 0.35863 0.44401 0.90076 0.0
H1428 H 0.11451 0.43533 0.36092 0.0
H1429 H 0.18327 0.51372 0.35815 0.0
H1430 H 0.18219 0.51706 0.4125 0.0
H1431 H 0.16165 0.4975 0.46031 0.0
H1432 H 0.0925 0.41926 0.46301 0.0
H1433 H 0.09423 0.41556 0.40888 0.0
C1434 C 0.12896 0.45327 0.37228 0.0
C1435 C 0.14869 0.47443 0.3559 0.0
C1436 C 0.12845 0.45479 0.4033 0.0
C1437 C 0.16783 0.49734 0.3706 0.0
C1438 C 0.16728 0.49917 0.40152 0.0
C1439 C 0.14695 0.47967 0.449 0.0
C1440 C 0.12689 0.45875 0.4654 0.0
C1441 C 0.14773 0.47797 0.41803 0.0
C1442 C 0.10827 0.43549 0.45073 0.0
C1443 C 0.10906 0.43351 0.41984 0.0
H1444 H 0.59017 0.67569 0.45578 0.0
H1445 H 0.52414 0.68935 0.4641 0.0
H1446 H 0.52331 0.69427 0.40992 0.0
H1447 H 0.54098 0.69369 0.36044 0.0
H1448 H 0.60718 0.68004 0.35277 0.0
H1449 H 0.60794 0.67542 0.40668 0.0
C1450 C 0.57593 0.68021 0.4457 0.0
C1451 C 0.55748 0.68253 0.4636 0.0
C1452 C 0.57528 0.68246 0.4148 0.0
C1453 C 0.5386 0.68766 0.45049 0.0
C1454 C 0.53806 0.69035 0.41965 0.0
C1455 C 0.55559 0.68978 0.37063 0.0
C1456 C 0.57391 0.68711 0.35276 0.0
C1457 C 0.55619 0.68757 0.40161 0.0
C1458 C 0.59255 0.6817 0.36609 0.0
C1459 C 0.59322 0.67937 0.39688 0.0
H1460 H 0.34606 0.85627 0.35856 0.0
H1461 H 0.35115 0.93297 0.35606 0.0
H1462 H 0.35564 0.93638 0.41016 0.0
H1463 H 0.357 0.91712 0.45802 0.0
H1464 H 0.35158 0.8404 0.46103 0.0
H1465 H 0.34752 0.83698 0.40661 0.0
C1466 C 0.34808 0.87368 0.3699 0.0
C1467 C 0.34824 0.89431 0.35346 0.0
C1468 C 0.35011 0.87526 0.40096 0.0
C1469 C 0.35136 0.917 0.36828 0.0
C1470 C 0.3536 0.91883 0.39918 0.0
C1471 C 0.35446 0.89947 0.44671 0.0
C1472 C 0.35415 0.87885 0.46318 0.0
C1473 C 0.35267 0.89795 0.4157 0.0
C1474 C 0.35164 0.85637 0.44852 0.0
C1475 C 0.34947 0.85451 0.41755 0.0
H1476 H 0.31788 0.30654 0.11212 0.0
H1477 H 0.31244 0.29963 0.01632 0.0
H1478 H 0.33551 0.34828 0.0121 0.0
H1479 H 0.35929 0.39259 0.0357 0.0
H1480 H 0.363 0.39936 0.13157 0.0
H1481 H 0.33833 0.35074 0.13577 0.0
C1482 C 0.32165 0.31563 0.09024 0.0
C1483 C 0.31376 0.29939 0.06446 0.0
C1484 C 0.33468 0.34353 0.08809 0.0
C1485 C 0.31832 0.31156 0.03642 0.0
C1486 C 0.33162 0.33939 0.03407 0.0
C1487 C 0.35469 0.38347 0.05759 0.0
C1488 C 0.36341 0.3997 0.08339 0.0
C1489 C 0.34024 0.35555 0.05974 0.0
C1490 C 0.3567 0.38746 0.11145 0.0
C1491 C 0.34265 0.35965 0.11379 0.0
H1492 H 0.64143 0.96586 0.03498 0.0
H1493 H 0.63357 0.96987 0.13018 0.0
H1494 H 0.682 0.9969 0.13481 0.0
H1495 H 0.72599 0.02154 0.11133 0.0
H1496 H 0.73396 0.01651 0.01629 0.0
H1497 H 0.68573 0.98749 0.01199 0.0
C1498 C 0.65027 0.97253 0.05684 0.0
C1499 C 0.63382 0.96614 0.08226 0.0
C1500 C 0.67801 0.98797 0.05922 0.0
C1501 C 0.64569 0.97449 0.11036 0.0
C1502 C 0.67336 0.99007 0.11292 0.0
C1503 C 0.71723 0.01416 0.08958 0.0
C1504 C 0.73356 0.02165 0.06397 0.0
C1505 C 0.68963 0.99732 0.08744 0.0
C1506 C 0.72189 1.01126 0.03621 0.0
C1507 C 0.69433 0.99471 0.03381 0.0
H1508 H 1.0143 0.72306 0.12169 0.0
H1509 H 1.01813 0.73436 0.02636 0.0
H1510 H 0.04378 0.71149 0.02185 0.0
H1511 H 0.0628 0.6863 0.04466 0.0
H1512 H 0.0601 0.67577 0.14001 0.0
H1513 H 0.03651 0.70083 0.14498 0.0
C1514 C 0.02073 0.72056 0.09985 0.0
C1515 C 1.01387 0.73005 0.07424 0.0
C1516 C 0.03567 0.70763 0.09754 0.0
C1517 C 0.02294 0.72714 0.04631 0.0
C1518 C 0.03757 0.71403 0.04378 0.0
C1519 C 0.05715 0.68953 0.06663 0.0
C1520 C 0.06286 0.67881 0.09199 0.0
C1521 C 0.04369 0.70388 0.06918 0.0
C1522 C 0.05594 0.68374 0.12023 0.0
C1523 C 0.04232 0.69793 0.12298 0.0
H1524 H 0.39283 0.34366 0.44597 0.0
H1525 H 0.39919 0.3537 0.35053 0.0
H1526 H 0.35058 0.33023 0.34656 0.0
H1527 H 0.30671 0.30969 0.37073 0.0
H1528 H 0.30047 0.29859 0.46608 0.0
H1529 H 0.34893 0.31982 0.46967 0.0
C1530 C 0.38361 0.34061 0.4242 0.0
C1531 C 0.39964 0.35076 0.39852 0.0
C1532 C 0.3558 0.32718 0.42222 0.0
C1533 C 0.38736 0.34613 0.37054 0.0
C1534 C 0.35959 0.33287 0.36836 0.0
C1535 C 0.31591 0.31193 0.39238 0.0
C1536 C 0.29997 0.30304 0.41829 0.0
C1537 C 0.34367 0.32382 0.39412 0.0
C1538 C 0.31222 0.30545 0.44594 0.0
C1539 C 0.33991 0.31759 0.44793 0.0
H1540 H 0.71919 1.00823 0.37177 0.0
H1541 H 0.72335 1.00424 0.46749 0.0
H1542 H 0.70139 0.03078 0.47265 0.0
H1543 H 0.67897 0.05292 0.44983 0.0
H1544 H 0.67664 0.05869 0.35415 0.0
H1545 H 0.70024 0.03372 0.349 0.0
C1546 C 0.71532 1.01317 0.39383 0.0
C1547 C 0.72248 1.00384 0.41931 0.0
C1548 C 0.70304 0.02869 0.39652 0.0
C1549 C 0.71792 1.01101 0.44761 0.0
C1550 C 0.70531 0.02612 0.4505 0.0
C1551 C 0.68368 0.0488 0.42779 0.0
C1552 C 0.67567 0.05732 0.40231 0.0
C1553 C 0.69744 0.03471 0.42511 0.0
C1554 C 0.68247 0.05232 0.37403 0.0
C1555 C 0.69586 0.03795 0.37114 0.0
H1556 H 0.98215 0.63316 0.45272 0.0
H1557 H 0.96869 0.62392 0.35775 0.0
H1558 H 0.9902 0.67231 0.35234 0.0
H1559 H 1.01473 0.71698 0.37427 0.0
H1560 H 0.02708 0.72646 0.46934 0.0
H1561 H 1.00366 0.67792 0.47517 0.0
C1562 C 0.9839 0.64168 0.43077 0.0
C1563 C 0.9742 0.6249 0.40551 0.0
C1564 C 0.99601 0.66946 0.42795 0.0
C1565 C 0.9761 0.63632 0.37744 0.0
C1566 C 0.98843 0.66398 0.37438 0.0
C1567 C 1.01226 0.70848 0.39636 0.0
C1568 C 0.02301 0.72536 0.42139 0.0
C1569 C 0.99876 0.6807 0.39943 0.0
C1570 C 1.01908 0.71397 0.4498 0.0
C1571 C 1.00582 0.68624 0.45305 0.0
H1572 H 0.69168 0.64109 0.94494 0.0
H1573 H 0.68014 0.63226 0.84973 0.0
H1574 H 0.70377 0.68083 0.8443 0.0
H1575 H 0.72473 0.72535 0.86714 0.0
H1576 H 0.73706 0.73405 0.9623 0.0
H1577 H 0.71596 0.68563 0.96731 0.0
C1578 C 0.69443 0.64976 0.92291 0.0
C1579 C 0.68381 0.63306 0.89772 0.0
C1580 C 0.70794 0.67754 0.92009 0.0
C1581 C 0.68807 0.64462 0.86937 0.0
C1582 C 0.70142 0.67236 0.86636 0.0
C1583 C 0.72283 0.71671 0.88905 0.0
C1584 C 0.73203 0.73332 0.91448 0.0
C1585 C 0.71092 0.68896 0.89163 0.0
C1586 C 0.73001 0.72177 0.9425 0.0
C1587 C 0.71791 0.6941 0.94531 0.0
H1588 H 0.39781 0.05142 0.94347 0.0
H1589 H 0.40405 0.0529 0.84762 0.0
H1590 H 0.35547 0.0298 0.84357 0.0
H1591 H 0.31149 1.00701 0.8675 0.0
H1592 H 0.30534 1.00725 0.9633 0.0
H1593 H 0.35391 0.03217 0.96724 0.0
C1594 C 0.38857 0.04672 0.92163 0.0
C1595 C 0.40452 0.05343 0.89579 0.0
C1596 C 0.36076 0.03376 0.91958 0.0
C1597 C 0.39225 0.04783 0.86775 0.0
C1598 C 0.3645 0.03456 0.8655 0.0
C1599 C 0.32075 1.01256 0.8893 0.0
C1600 C 0.30479 1.00489 0.91519 0.0
C1601 C 0.34859 0.02706 0.89128 0.0
C1602 C 0.31712 1.0128 0.94313 0.0
C1603 C 0.34487 0.02694 0.94533 0.0
H1604 H 0.98443 0.35118 0.94838 0.0
H1605 H 0.98032 0.3569 0.85284 0.0
H1606 H 1.0032 0.33134 0.84662 0.0
H1607 H 0.02603 0.30929 0.86843 0.0
H1608 H 0.02846 0.30182 0.96388 0.0
H1609 H 1.00425 0.32611 0.97012 0.0
C1610 C 0.98853 0.34688 0.92612 0.0
C1611 C 0.98105 0.35637 0.90102 0.0
C1612 C 1.00135 0.33191 0.92281 0.0
C1613 C 0.98596 0.35001 0.87245 0.0
C1614 C 0.99909 0.33545 0.86895 0.0
C1615 C 0.02128 0.31294 0.89067 0.0
C1616 C 0.02945 0.30411 0.91577 0.0
C1617 C 1.00717 0.32663 0.89397 0.0
C1618 C 0.02253 0.30847 0.94429 0.0
C1619 C 1.00878 0.32243 0.9478 0.0
H1620 H 0.70832 0.7105 0.51621 0.0
H1621 H 0.75284 0.72864 0.59819 0.0
H1622 H 0.712 0.71004 0.62691 0.0
H1623 H 0.66322 0.68951 0.62916 0.0
H1624 H 0.61856 0.66473 0.54715 0.0
H1625 H 0.65941 0.68474 0.51847 0.0
C1626 C 0.70914 0.71033 0.54034 0.0
C1627 C 0.73395 0.72228 0.55486 0.0
C1628 C 0.68532 0.69846 0.55693 0.0
C1629 C 0.7343 0.72099 0.58622 0.0
C1630 C 0.71082 0.70999 0.6028 0.0
C1631 C 0.66237 0.68844 0.60502 0.0
C1632 C 0.63757 0.67674 0.59049 0.0
C1633 C 0.68616 0.69897 0.58845 0.0
C1634 C 0.63713 0.67488 0.55914 0.0
C1635 C 0.66062 0.68602 0.54258 0.0
H1636 H 0.35664 0.96838 0.53249 0.0
H1637 H 0.36009 0.96437 0.6283 0.0
H1638 H 0.33709 0.98994 0.633 0.0
H1639 H 0.31823 0.01522 0.6098 0.0
H1640 H 0.31317 0.01783 0.51404 0.0
H1641 H 0.33459 0.99072 0.5093 0.0
C1642 C 0.35234 0.97305 0.55447 0.0
C1643 C 0.36047 0.96481 0.58011 0.0
C1644 C 0.33896 0.98752 0.5569 0.0
C1645 C 0.35418 0.97052 0.60831 0.0
C1646 C 0.34112 0.98522 0.61094 0.0
C1647 C 0.32183 1.00992 0.58781 0.0
C1648 C 0.31457 0.01898 0.56219 0.0
C1649 C 0.33382 0.99415 0.58538 0.0
C1650 C 0.31871 1.01128 0.534 0.0
C1651 C 0.33101 0.99585 0.53136 0.0
H1652 H 0.02698 0.32317 0.519 0.0
H1653 H 1.00245 0.27485 0.59828 0.0
H1654 H 0.02321 0.31444 0.62932 0.0
H1655 H 0.04981 0.36329 0.63428 0.0
H1656 H 0.06303 0.4112 0.55599 0.0
H1657 H 0.0453 0.37176 0.52452 0.0
C1658 C 0.02616 0.32121 0.54306 0.0
C1659 C 1.0149 0.29571 0.55605 0.0
C1660 C 0.03639 0.34428 0.56108 0.0
C1661 C 1.01286 0.29393 0.58737 0.0
C1662 C 0.02429 0.31671 0.60531 0.0
C1663 C 0.04883 0.3652 0.61034 0.0
C1664 C 0.05993 0.3907 0.59744 0.0
C1665 C 0.03657 0.34207 0.59243 0.0
C1666 C 0.05696 0.3923 0.56647 0.0
C1667 C 0.0462 0.36955 0.54841 0.0
H1668 H 0.06319 0.68575 0.78765 0.0
H1669 H 0.07087 0.68652 0.69197 0.0
H1670 H 0.0224 0.66313 0.68695 0.0
H1671 H 0.97824 0.64473 0.70977 0.0
H1672 H 0.97042 0.64212 0.80549 0.0
H1673 H 1.01884 0.66398 0.81059 0.0
C1674 C 0.05428 0.68075 0.76564 0.0
C1675 C 0.07064 0.68823 0.74011 0.0
C1676 C 0.0265 0.66713 0.76304 0.0
C1677 C 0.05876 0.68108 0.71188 0.0
C1678 C 0.03108 0.66781 0.70905 0.0
C1679 C 0.98711 0.64896 0.73181 0.0
C1680 C 0.97078 0.64228 0.75731 0.0
C1681 C 1.01481 0.66114 0.73447 0.0
C1682 C 0.98254 0.64722 0.78561 0.0
C1683 C 1.01019 0.65976 0.78847 0.0
H1684 H 0.34963 0.38548 0.77826 0.0
H1685 H 0.34713 0.39278 0.68279 0.0
H1686 H 0.37248 0.36963 0.67668 0.0
H1687 H 0.39347 0.34566 0.69856 0.0
H1688 H 0.39762 0.34022 0.79413 0.0
H1689 H 0.37348 0.36454 0.80019 0.0
C1690 C 0.35459 0.38202 0.75603 0.0
C1691 C 0.34606 0.39047 0.7309 0.0
C1692 C 0.36938 0.36903 0.75282 0.0
C1693 C 0.35328 0.38639 0.70241 0.0
C1694 C 0.36771 0.37309 0.69898 0.0
C1695 C 0.38912 0.34977 0.72079 0.0
C1696 C 0.39701 0.34071 0.74595 0.0
C1697 C 0.37554 0.36402 0.72402 0.0
C1698 C 0.39171 0.3468 0.77448 0.0
C1699 C 0.37784 0.36064 0.77789 0.0
H1700 H 0.65168 0.97447 0.78121 0.0
H1701 H 0.64253 0.96655 0.68569 0.0
H1702 H 0.66328 0.015 0.68105 0.0
H1703 H 0.68669 0.05945 0.70404 0.0
H1704 H 0.69467 0.06728 0.79966 0.0
H1705 H 0.67129 0.01871 0.8045 0.0
C1706 C 0.65417 0.98331 0.75932 0.0
C1707 C 0.64603 0.96695 0.73368 0.0
C1708 C 0.66585 1.01105 0.75696 0.0
C1709 C 0.64875 0.97868 0.70565 0.0
C1710 C 0.66068 1.00636 0.70305 0.0
C1711 C 0.68318 0.05055 0.72601 0.0
C1712 C 0.69275 0.06698 0.75152 0.0
C1713 C 0.66972 0.02272 0.72852 0.0
C1714 C 0.68756 0.05513 0.77977 0.0
C1715 C 0.67433 0.02738 0.78247 0.0
H1716 H 0.38738 0.05857 0.20112 0.0
H1717 H 0.39495 0.06665 0.29674 0.0
H1718 H 0.37106 0.01811 0.30183 0.0
H1719 H 0.34626 0.97364 0.2791 0.0
H1720 H 0.34067 0.96546 0.18341 0.0
H1721 H 0.3658 0.01401 0.17824 0.0
C1722 C 0.38385 0.04973 0.22313 0.0
C1723 C 0.39258 0.06623 0.24863 0.0
C1724 C 0.37044 0.02189 0.22577 0.0
C1725 C 0.38837 0.05444 0.27686 0.0
C1726 C 0.37464 0.02671 0.27972 0.0
C1727 C 0.35053 0.98246 0.25706 0.0
C1728 C 0.34119 0.96596 0.2316 0.0
C1729 C 0.36527 1.01027 0.25435 0.0
C1730 C 0.34749 0.97769 0.20327 0.0
C1731 C 0.36178 1.00543 0.20037 0.0
H1732 H 0.97956 0.33961 0.2073 0.0
H1733 H 0.97166 0.33866 0.30294 0.0
H1734 H 0.02009 0.36571 0.30786 0.0
H1735 H 0.06449 0.38725 0.28492 0.0
H1736 H 0.0722 0.38969 0.18918 0.0
H1737 H 0.02372 0.36442 0.18424 0.0
C1738 C 0.98841 0.34533 0.22929 0.0
C1739 C 0.97204 0.33671 0.25485 0.0
C1740 C 1.01612 0.36103 0.23182 0.0
C1741 C 0.98378 0.34489 0.28304 0.0
C1742 C 1.01145 0.36026 0.28578 0.0
C1743 C 0.0556 0.38231 0.26291 0.0
C1744 C 0.07199 0.38997 0.23737 0.0
C1745 C 0.02779 0.36805 0.26034 0.0
C1746 C 0.0601 0.38395 0.2091 0.0
C1747 C 0.0324 0.36943 0.20634 0.0
H1748 H 0.64715 0.67946 0.27664 0.0
H1749 H 0.64628 0.68623 0.18097 0.0
H1750 H 0.66912 0.66044 0.17612 0.0
H1751 H 0.69177 0.63865 0.19941 0.0
H1752 H 0.69136 0.63085 0.29508 0.0
H1753 H 0.66641 0.65447 0.29967 0.0
C1754 C 0.65185 0.67522 0.25464 0.0
C1755 C 0.64535 0.68512 0.22912 0.0
C1756 C 0.66486 0.6604 0.25215 0.0
C1757 C 0.65105 0.67892 0.20087 0.0
C1758 C 0.66425 0.66431 0.19818 0.0
C1759 C 0.68623 0.64207 0.22134 0.0
C1760 C 0.69387 0.63336 0.247 0.0
C1761 C 0.67168 0.65541 0.2237 0.0
C1762 C 0.68592 0.63744 0.27508 0.0
C1763 C 0.67171 0.65099 0.27765 0.0
H1764 H 0.31675 0.19854 0.15057 0.0
H1765 H 0.36567 0.19699 0.07932 0.0
H1766 H 0.38832 0.18274 0.11412 0.0
H1767 H 0.39386 0.16998 0.16473 0.0
H1768 H 0.34493 0.17151 0.23597 0.0
H1769 H 0.32242 0.18597 0.20122 0.0
C1770 C 0.33218 0.19485 0.14258 0.0
C1771 C 0.33945 0.19891 0.1123 0.0
C1772 C 0.34513 0.18655 0.16275 0.0
C1773 C 0.35985 0.19441 0.10252 0.0
C1774 C 0.37276 0.1861 0.12241 0.0
C1775 C 0.37848 0.17374 0.17274 0.0
C1776 C 0.37112 0.16957 0.20299 0.0
C1777 C 0.3656 0.18215 0.15259 0.0
C1778 C 0.3508 0.17418 0.21279 0.0
C1779 C 0.33797 0.18259 0.19293 0.0
H1780 H 0.84147 0.21688 0.18275 0.0
H1781 H 0.90373 0.20351 0.21491 0.0
H1782 H 0.89181 0.16865 0.17779 0.0
H1783 H 0.86423 0.14244 0.13562 0.0
H1784 H 0.80196 0.1558 0.10347 0.0
H1785 H 0.81392 0.19069 0.14055 0.0
C1786 C 0.85264 0.20657 0.18151 0.0
C1787 C 0.87351 0.21293 0.20173 0.0
C1788 C 0.8458 0.18662 0.15991 0.0
C1789 C 0.88737 0.19889 0.19999 0.0
C1790 C 0.88068 0.17903 0.1786 0.0
C1791 C 0.85307 0.15275 0.13686 0.0
C1792 C 0.83217 0.14636 0.11666 0.0
C1793 C 0.85992 0.17271 0.15844 0.0
C1794 C 0.81833 0.16043 0.11838 0.0
C1795 C 0.82505 0.18031 0.13975 0.0
H1796 H 0.86335 0.68036 0.09969 0.0
H1797 H 0.92014 0.73529 0.16297 0.0
H1798 H 0.88786 0.71496 0.20302 0.0
H1799 H 0.84376 0.68115 0.22029 0.0
H1800 H 0.78687 0.62628 0.15703 0.0
H1801 H 0.81919 0.64651 0.117 0.0
C1802 C 0.86877 0.68778 0.12225 0.0
C1803 C 0.8942 0.70943 0.12816 0.0
C1804 C 0.85014 0.67584 0.14529 0.0
C1805 C 0.90065 0.71897 0.15757 0.0
C1806 C 0.88224 0.70721 0.18058 0.0
C1807 C 0.8383 0.67372 0.19774 0.0
C1808 C 0.81283 0.65213 0.19184 0.0
C1809 C 0.85693 0.68563 0.17471 0.0
C1810 C 0.80638 0.64256 0.16244 0.0
C1811 C 0.82482 0.65427 0.13943 0.0
H1812 H 0.14553 0.33526 0.28834 0.0
H1813 H 0.20965 0.41424 0.30718 0.0
H1814 H 0.22589 0.39674 0.34625 0.0
H1815 H 0.22264 0.35875 0.37415 0.0
H1816 H 0.15855 0.27981 0.35496 0.0
H1817 H 0.1419 0.29747 0.31662 0.0
C1818 C 0.16318 0.34864 0.30079 0.0
C1819 C 0.17632 0.37605 0.29471 0.0
C1820 C 0.17253 0.33841 0.32312 0.0
C1821 C 0.19891 0.39312 0.31154 0.0
C1822 C 0.20832 0.3831 0.33381 0.0
C1823 C 0.20487 0.34545 0.36182 0.0
C1824 C 0.192 0.31795 0.36739 0.0
C1825 C 0.19533 0.35576 0.33975 0.0
C1826 C 0.16915 0.30098 0.35087 0.0
C1827 C 0.1595 0.31109 0.32901 0.0
H1828 H 0.73447 0.8818 0.35092 0.0
H1829 H 0.65915 0.87338 0.37602 0.0
H1830 H 0.63657 0.83756 0.33993 0.0
H1831 H 0.63808 0.80876 0.30073 0.0
H1832 H 0.71335 0.81689 0.27581 0.0
H1833 H 0.73595 0.85283 0.31176 0.0
C1834 C 0.71316 0.87232 0.34832 0.0
C1835 C 0.69861 0.88034 0.36635 0.0
C1836 C 0.7002 0.85162 0.3274 0.0
C1837 C 0.67089 0.86746 0.36285 0.0
C1838 C 0.65792 0.847 0.34205 0.0
C1839 C 0.65938 0.81816 0.30333 0.0
C1840 C 0.67388 0.81001 0.28536 0.0
C1841 C 0.67234 0.83883 0.32425 0.0
C1842 C 0.70161 0.82287 0.2889 0.0
C1843 C 0.7146 0.8434 0.30963 0.0
H1844 H 0.20713 0.88431 0.28093 0.0
H1845 H 0.22448 0.82095 0.29377 0.0
H1846 H 0.18917 0.80054 0.3306 0.0
H1847 H 0.15335 0.8006 0.35936 0.0
H1848 H 0.13615 0.86411 0.34695 0.0
H1849 H 0.17079 0.88402 0.30929 0.0
C1850 C 0.20303 0.86591 0.29155 0.0
C1851 C 0.21867 0.85436 0.2846 0.0
C1852 C 0.18255 0.85415 0.31273 0.0
C1853 C 0.21319 0.83062 0.29895 0.0
C1854 C 0.19283 0.81879 0.31993 0.0
C1855 C 0.15725 0.81888 0.3486 0.0
C1856 C 0.14201 0.83073 0.35614 0.0
C1857 C 0.17747 0.83045 0.32713 0.0
C1858 C 0.14717 0.85424 0.34146 0.0
C1859 C 0.16719 0.8658 0.32 0.0
H1860 H 0.73918 0.86281 0.8456 0.0
H1861 H 0.66513 0.7974 0.87653 0.0
H1862 H 0.64094 0.80863 0.84049 0.0
H1863 H 0.64068 0.83674 0.79989 0.0
H1864 H 0.71461 0.9022 0.76884 0.0
H1865 H 0.73893 0.89078 0.8046 0.0
C1866 C 0.71779 0.85083 0.84428 0.0
C1867 C 0.70408 0.82932 0.86394 0.0
C1868 C 0.70392 0.85732 0.82332 0.0
C1869 C 0.67625 0.8143 0.86209 0.0
C1870 C 0.66236 0.82061 0.84132 0.0
C1871 C 0.66208 0.84869 0.80109 0.0
C1872 C 0.67571 0.87035 0.78163 0.0
C1873 C 0.67597 0.84212 0.82189 0.0
C1874 C 0.70355 0.88524 0.78323 0.0
C1875 C 0.7175 0.87882 0.80384 0.0
H1876 H 0.17427 0.88182 0.851 0.0
H1877 H 0.24067 0.87454 0.88146 0.0
H1878 H 0.22939 0.83857 0.84609 0.0
H1879 H 0.20101 0.8094 0.8058 0.0
H1880 H 0.13462 0.81674 0.77542 0.0
H1881 H 0.14584 0.85259 0.81089 0.0
C1882 C 0.18643 0.87256 0.84975 0.0
C1883 C 0.20828 0.88098 0.86906 0.0
C1884 C 0.17989 0.85184 0.82919 0.0
C1885 C 0.22352 0.86834 0.86729 0.0
C1886 C 0.21717 0.84779 0.84689 0.0
C1887 C 0.18885 0.81865 0.8071 0.0
C1888 C 0.16705 0.81032 0.78772 0.0
C1889 C 0.19536 0.83932 0.82774 0.0
C1890 C 0.15175 0.8229 0.78961 0.0
C1891 C 0.15807 0.84338 0.81006 0.0
H1892 H 0.16082 0.3595 0.86655 0.0
H1893 H 0.14588 0.28032 0.84811 0.0
H1894 H 0.18038 0.29764 0.81013 0.0
H1895 H 0.21513 0.33534 0.78231 0.0
H1896 H 0.23018 0.41454 0.80076 0.0
H1897 H 0.19577 0.39725 0.8389 0.0
C1898 C 0.16528 0.34607 0.85443 0.0
C1899 C 0.15063 0.31863 0.86015 0.0
C1900 C 0.18528 0.35619 0.83264 0.0
C1901 C 0.15648 0.30147 0.8439 0.0
C1902 C 0.17635 0.31138 0.82225 0.0
C1903 C 0.21072 0.34878 0.79449 0.0
C1904 C 0.22531 0.37621 0.78867 0.0
C1905 C 0.19081 0.33869 0.81635 0.0
C1906 C 0.21958 0.3934 0.80502 0.0
C1907 C 0.19977 0.38351 0.82675 0.0
H1908 H 0.89295 0.69642 0.70376 0.0
H1909 H 0.8262 0.61712 0.69543 0.0
H1910 H 0.80631 0.63244 0.65821 0.0
H1911 H 0.80778 0.6682 0.62807 0.0
H1912 H 0.87502 0.74746 0.63504 0.0
H1913 H 0.89439 0.73246 0.67325 0.0
C1914 C 0.87396 0.68257 0.69397 0.0
C1915 C 0.86118 0.65562 0.70233 0.0
C1916 C 0.86262 0.69153 0.67242 0.0
C1917 C 0.8367 0.63785 0.68913 0.0
C1918 C 0.82522 0.64665 0.66794 0.0
C1919 C 0.8268 0.68223 0.63762 0.0
C1920 C 0.83983 0.70898 0.62839 0.0
C1921 C 0.83806 0.6734 0.6593 0.0
C1922 C 0.86426 0.72685 0.64174 0.0
C1923 C 0.87549 0.71824 0.66354 0.0
H1924 H 0.34286 0.20932 0.69184 0.0
H1925 H 0.423 0.22615 0.67702 0.0
H1926 H 0.40725 0.19086 0.63981 0.0
H1927 H 0.37049 0.15421 0.61244 0.0
H1928 H 0.2904 0.1373 0.6278 0.0
H1929 H 0.30629 0.17311 0.66429 0.0
C1930 C 0.3569 0.20518 0.68069 0.0
C1931 C 0.38411 0.22048 0.68737 0.0
C1932 C 0.34768 0.18462 0.65951 0.0
C1933 C 0.40201 0.21504 0.67217 0.0
C1934 C 0.39299 0.19468 0.65098 0.0
C1935 C 0.35655 0.1585 0.62357 0.0
C1936 C 0.32925 0.14288 0.61744 0.0
C1937 C 0.36585 0.17927 0.64454 0.0
C1938 C 0.31144 0.14859 0.63239 0.0
C1939 C 0.32054 0.16924 0.65315 0.0
H1940 H 0.89054 0.22783 0.63269 0.0
H1941 H 0.89768 0.15738 0.63465 0.0
H1942 H 0.86122 0.13694 0.67016 0.0
H1943 H 0.82592 0.13831 0.69921 0.0
H1944 H 0.81837 0.20844 0.69574 0.0
H1945 H 0.85577 0.22934 0.66158 0.0
C1946 C 0.88407 0.20792 0.64058 0.0
C1947 C 0.89696 0.19425 0.63068 0.0
C1948 C 0.86271 0.19603 0.66055 0.0
C1949 C 0.88849 0.16863 0.64193 0.0
C1950 C 0.86742 0.15678 0.66213 0.0
C1951 C 0.83259 0.15823 0.69114 0.0
C1952 C 0.81915 0.17165 0.69993 0.0
C1953 C 0.85423 0.17021 0.67142 0.0
C1954 C 0.82793 0.1974 0.68898 0.0
C1955 C 0.8495 0.20948 0.66959 0.0
H1956 H 0.97413 0.51771 0.48939 0.0
H1957 H 0.02759 0.52463 0.41886 0.0
H1958 H 0.05032 0.50968 0.45248 0.0
H1959 H 0.05493 0.49408 0.50189 0.0
H1960 H 1.00102 0.48618 0.57217 0.0
H1961 H 0.97838 0.50154 0.53865 0.0
C1962 C 0.99056 0.51571 0.48124 0.0
C1963 C 0.9991 0.5225 0.45152 0.0
C1964 C 1.00351 0.50682 0.50071 0.0
C1965 C 0.02074 0.52004 0.44164 0.0
C1966 C 0.03373 0.51131 0.46086 0.0
C1967 C 0.03839 0.49595 0.50993 0.0
C1968 C 0.02974 0.48897 0.53955 0.0
C1969 C 0.02536 0.50472 0.49046 0.0
C1970 C 1.00795 0.49111 0.54944 0.0
C1971 C 0.99504 0.50002 0.53029 0.0
H1972 H 0.56248 0.54639 0.52184 0.0
H1973 H 0.4942 0.55693 0.51767 0.0
H1974 H 0.47294 0.52016 0.48246 0.0
H1975 H 0.47323 0.48415 0.4536 0.0
H1976 H 0.5413 0.47341 0.45888 0.0
H1977 H 0.56272 0.51056 0.49351 0.0
C1978 C 0.54284 0.54056 0.51355 0.0
C1979 C 0.53008 0.55458 0.5226 0.0
C1980 C 0.53052 0.51911 0.49362 0.0
C1981 C 0.50478 0.54688 0.51095 0.0
C1982 C 0.49246 0.52566 0.49091 0.0
C1983 C 0.49281 0.49005 0.4622 0.0
C1984 C 0.50551 0.47583 0.45373 0.0
C1985 C 0.50512 0.51158 0.48214 0.0
C1986 C 0.5308 0.4836 0.46536 0.0
C1987 C 0.54319 0.50502 0.48503 0.0
H1988 H 0.52601 1.00921 0.42962 0.0
H1989 H 0.58467 0.06301 0.49217 0.0
H1990 H 0.55314 0.04316 0.53286 0.0
H1991 H 0.50904 1.01033 0.5509 0.0
H1992 H 0.45022 0.95639 0.48866 0.0
H1993 H 0.48186 0.97598 0.44784 0.0
C1994 C 0.53197 0.01645 0.45216 0.0
C1995 C 0.55766 0.03773 0.45767 0.0
C1996 C 0.51375 1.00478 0.47561 0.0
C1997 C 0.56491 0.04703 0.48708 0.0
C1998 C 0.54693 0.03554 0.51046 0.0
C1999 C 0.50306 1.00298 0.52839 0.0
C2000 C 0.47726 0.9819 0.52294 0.0
C2001 C 0.52128 0.01447 0.50498 0.0
C2002 C 0.47003 0.97234 0.49363 0.0
C2003 C 0.48807 0.98366 0.47021 0.0
H2004 H 0.56315 0.02303 0.02388 0.0
H2005 H 0.49841 0.94364 0.00813 0.0
H2006 H 0.48076 0.96044 0.96988 0.0
H2007 H 0.48265 0.99803 0.94225 0.0
H2008 H 0.54704 0.07737 0.95897 0.0
H2009 H 0.56543 0.0603 -0.00403 0.0
C2010 C 0.54507 1.00936 0.01231 0.0
C2011 C 0.53216 0.98206 0.01914 0.0
C2012 C 0.53477 0.0192 0.99062 0.0
C2013 C 0.50902 0.96467 0.00328 0.0
C2014 C 0.49876 0.97431 0.98148 0.0
C2015 C 0.50084 1.01155 0.95377 0.0
C2016 C 0.5133 0.039 0.94788 0.0
C2017 C 0.51137 1.00157 0.97511 0.0
C2018 C 0.53673 0.05625 0.96334 0.0
C2019 C 0.54738 0.04647 0.98441 0.0
H2020 H 0.02397 0.50735 0.93539 0.0
H2021 H 0.96827 0.44871 -0.00361 0.0
H2022 H 0.98404 0.48167 0.03628 0.0
H2023 H 1.01426 0.52696 0.05418 0.0
H2024 H 0.07009 0.58552 -0.00677 0.0
H2025 H 0.05408 0.55264 0.95322 0.0
C2026 C 1.01542 0.50168 0.95745 0.0
C2027 C 0.99491 0.47551 0.96276 0.0
C2028 C 0.02471 0.52072 0.98039 0.0
C2029 C 0.9838 0.46873 0.99147 0.0
C2030 C 0.99293 0.48756 0.01439 0.0
C2031 C 0.02276 0.53263 0.0321 0.0
C2032 C 0.04342 0.55873 0.02682 0.0
C2033 C 1.01338 0.51361 0.00912 0.0
C2034 C 0.05445 0.56553 -0.00191 0.0
C2035 C 0.04519 0.54676 0.97512 0.0
H2036 H 0.51401 0.50602 0.05395 0.0
H2037 H 0.45599 0.5048 -0.00694 0.0
H2038 H 0.48851 0.52045 0.95291 0.0
H2039 H 0.53317 0.53358 0.93472 0.0
H2040 H 0.59114 0.53458 -0.00451 0.0
H2041 H 0.55874 0.51933 0.03582 0.0
C2042 C 0.50839 0.50896 0.03187 0.0
C2043 C 0.48253 0.50426 0.02667 0.0
C2044 C 0.52716 0.51778 0.00875 0.0
C2045 C 0.4758 0.50862 -0.00208 0.0
C2046 C 0.49436 0.51741 0.97484 0.0
C2047 C 0.53882 0.53073 0.95683 0.0
C2048 C 0.56459 0.53519 0.96196 0.0
C2049 C 0.5201 0.52204 0.97999 0.0
C2050 C 0.57138 0.53096 0.99074 0.0
C2051 C 0.55289 0.52238 0.01389 0.0
H2052 H 0.2229 0.0845 0.9307 0.0
H2053 H 0.26463 0.06223 -0.00668 0.0
H2054 H 0.28248 0.10528 0.01812 0.0
H2055 H 0.28104 0.14637 0.0263 0.0
H2056 H 0.23878 0.16879 0.96488 0.0
H2057 H 0.22674 0.12892 0.93486 0.0
C2058 C 0.2361 0.08918 0.94961 0.0
C2059 C 0.24206 0.06989 0.96044 0.0
C2060 C 0.24622 0.11405 0.96388 0.0
C2061 C 0.2597 0.07657 0.98453 0.0
C2062 C 0.26981 0.10118 -0.0012 0.0
C2063 C 0.26997 0.14297 0.00572 0.0
C2064 C 0.26097 0.16057 -0.00237 0.0
C2065 C 0.26258 0.11971 0.98921 0.0
C2066 C 0.24638 0.15585 0.97121 0.0
C2067 C 0.23914 0.1328 0.95437 0.0
H2068 H 0.89042 0.1402 0.03221 0.0
H2069 H 0.86251 0.0763 0.96853 0.0
H2070 H 0.90114 0.1034 0.93674 0.0
H2071 H 0.94586 0.14299 0.93102 0.0
H2072 H 0.97341 0.20636 -0.00449 0.0
H2073 H 0.93176 0.18197 0.02294 0.0
C2074 C 0.89245 0.1325 0.01093 0.0
C2075 C 0.87374 0.10632 0.00265 0.0
C2076 C 0.91486 0.14799 -0.00675 0.0
C2077 C 0.87649 0.0965 0.97514 0.0
C2078 C 0.89877 0.11189 0.95721 0.0
C2079 C 0.9426 0.15154 0.95092 0.0
C2080 C 0.96294 0.17631 0.96151 0.0
C2081 C 0.91857 0.13727 0.96665 0.0
C2082 C 0.95817 0.18741 0.98692 0.0
C2083 C 0.9344 0.17338 0.00268 0.0
H2084 H 0.89516 0.76197 0.0317 0.0
H2085 H 0.95923 0.80024 0.96896 0.0
H2086 H 0.93133 0.81053 0.93679 0.0
H2087 H 0.89108 0.81455 0.93097 0.0
H2088 H 0.8278 0.77709 -0.00497 0.0
H2089 H 0.8528 0.76025 0.02213 0.0
C2090 C 0.90266 0.77174 0.01042 0.0
C2091 C 0.92911 0.78024 0.00254 0.0
C2092 C 0.88679 0.77819 -0.00731 0.0
C2093 C 0.93879 0.7931 0.97517 0.0
C2094 C 0.92295 0.79935 0.95708 0.0
C2095 C 0.88268 0.80249 0.95071 0.0
C2096 C 0.85774 0.79749 0.96128 0.0
C2097 C 0.89732 0.793 0.96631 0.0
C2098 C 0.84687 0.78127 0.98645 0.0
C2099 C 0.86124 0.77174 0.00202 0.0
H2100 H 0.14206 0.19972 0.49573 0.0
H2101 H 0.17423 0.28264 0.47633 0.0
H2102 H 0.13405 0.28089 0.49613 0.0
H2103 H 0.08625 0.25321 0.51053 0.0
H2104 H 0.05498 0.16993 0.52808 0.0
H2105 H 0.09805 0.1743 0.51793 0.0
C2106 C 0.14074 0.21768 0.49715 0.0
C2107 C 0.16119 0.24134 0.48509 0.0
C2108 C 0.11728 0.21621 0.50757 0.0
C2109 C 0.15902 0.26435 0.48625 0.0
C2110 C 0.13579 0.26319 0.49706 0.0
C2111 C 0.08918 0.23628 0.51282 0.0
C2112 C 0.06728 0.21112 0.5194 0.0
C2113 C 0.11423 0.23889 0.50652 0.0
C2114 C 0.07134 0.18933 0.52237 0.0
C2115 C 0.09601 0.19182 0.51666 0.0
H2116 H 0.75135 0.88405 0.45973 0.0
H2117 H 0.80385 0.95088 0.51419 0.0
H2118 H 0.81744 0.92299 0.54143 0.0
H2119 H 0.81987 0.88161 0.5434 0.0
H2120 H 0.76752 0.81501 0.48844 0.0
H2121 H 0.74808 0.84054 0.46784 0.0
C2122 C 0.76488 0.89214 0.47848 0.0
C2123 C 0.77637 0.91936 0.48527 0.0
C2124 C 0.77309 0.87615 0.49333 0.0
C2125 C 0.7943 0.92987 0.50909 0.0
C2126 C 0.80242 0.91401 0.52425 0.0
C2127 C 0.80392 0.87262 0.52724 0.0
C2128 C 0.79542 0.84662 0.51699 0.0
C2129 C 0.79286 0.88747 0.51558 0.0
C2130 C 0.77439 0.83496 0.49655 0.0
C2131 C 0.76339 0.84961 0.48471 0.0
H2132 H 0.14915 0.87715 0.45245 0.0
H2133 H 0.0864 0.85443 0.51644 0.0
H2134 H 0.11501 0.89391 0.54647 0.0
H2135 H 0.15521 0.93844 0.54962 0.0
H2136 H 0.21735 0.96119 0.48469 0.0
H2137 H 0.19189 0.91805 0.46002 0.0
C2138 C 0.14213 0.88037 0.47359 0.0
C2139 C 0.11579 0.86291 0.48238 0.0
C2140 C 0.15842 0.90343 0.49013 0.0
C2141 C 0.10674 0.86732 0.50956 0.0
C2142 C 0.12297 0.89015 0.52641 0.0
C2143 C 0.16328 0.93377 0.53028 0.0
C2144 C 0.18795 0.9532 0.51862 0.0
C2145 C 0.1484 0.90893 0.51616 0.0
C2146 C 0.19846 0.94667 0.49401 0.0
C2147 C 0.18382 0.92204 0.47984 0.0
H2148 H 0.81497 0.94293 0.05244 0.0
H2149 H 0.77976 0.96932 0.98588 0.0
H2150 H 0.76441 0.9279 0.95832 0.0
H2151 H 0.76646 0.88727 0.94962 0.0
H2152 H 0.80228 0.86071 0.01501 0.0
H2153 H 0.81157 0.89882 0.04695 0.0
C2154 C 0.80374 0.93949 0.03203 0.0
C2155 C 0.79891 0.95947 0.02096 0.0
C2156 C 0.79512 0.9156 0.01617 0.0
C2157 C 0.78376 0.9544 -0.00512 0.0
C2158 C 0.77511 0.93074 0.97904 0.0
C2159 C 0.77562 0.88944 0.9713 0.0
C2160 C 0.7837 0.87128 0.98005 0.0
C2161 C 0.78137 0.91162 0.989 0.0
C2162 C 0.79558 0.87423 0.00805 0.0
C2163 C 0.80121 0.89624 0.02605 0.0
H2164 H 0.09202 0.89029 0.05097 0.0
H2165 H 0.07144 0.82221 -0.00474 0.0
H2166 H 0.11499 0.84569 0.97151 0.0
H2167 H 0.15574 0.88782 0.96123 0.0
H2168 H 0.17626 0.95649 0.0156 0.0
H2169 H 0.1363 0.9305 0.04584 0.0
C2170 C 0.09722 0.88053 0.03386 0.0
C2171 C 0.0783 0.85467 0.02448 0.0
C2172 C 0.12233 0.89427 0.0202 0.0
C2173 C 0.08555 0.84204 0.00281 0.0
C2174 C 0.11043 0.85553 0.98915 0.0
C2175 C 0.15196 0.89675 0.9805 0.0
C2176 C 0.16895 0.92392 0.98644 0.0
C2177 C 0.12859 0.88191 -0.00301 0.0
C2178 C 0.16376 0.93549 0.01105 0.0
C2179 C 0.14065 0.92072 0.02795 0.0
H2180 H 0.15357 0.21596 0.04835 0.0
H2181 H 0.21439 0.25172 0.98132 0.0
H2182 H 0.18769 0.26662 0.95417 0.0
H2183 H 0.14471 0.2641 0.94609 0.0
H2184 H 0.08347 0.22836 0.01251 0.0
H2185 H 0.11275 0.21919 0.04369 0.0
C2186 C 0.16107 0.22728 0.02796 0.0
C2187 C 0.18581 0.23237 0.0166 0.0
C2188 C 0.1455 0.23573 0.01244 0.0
C2189 C 0.19551 0.24754 0.99052 0.0
C2190 C 0.18015 0.25593 0.97492 0.0
C2191 C 0.13808 0.255 0.96783 0.0
C2192 C 0.11202 0.24694 0.9771 0.0
C2193 C 0.15484 0.24944 0.98521 0.0
C2194 C 0.10355 0.23508 0.00516 0.0
C2195 C 0.12019 0.22953 0.02274 0.0
H2196 H 0.88386 0.80711 0.48045 0.0
H2197 H 0.86382 0.73148 0.51842 0.0
H2198 H 0.90475 0.73519 0.49843 0.0
H2199 H 0.9503 0.76431 0.47828 0.0
H2200 H 0.97012 0.84087 0.4427 0.0
H2201 H 0.92556 0.83252 0.45317 0.0
C2202 C 0.88783 0.79084 0.48295 0.0
C2203 C 0.87055 0.76876 0.50018 0.0
C2204 C 0.91195 0.79374 0.47254 0.0
C2205 C 0.87642 0.74827 0.50437 0.0
C2206 C 0.90012 0.75067 0.49344 0.0
C2207 C 0.94454 0.77877 0.47218 0.0
C2208 C 0.9637 0.80343 0.46032 0.0
C2209 C 0.9187 0.77395 0.47872 0.0
C2210 C 0.95595 0.82202 0.45248 0.0
C2211 C 0.93041 0.81722 0.45837 0.0
H2212 H 0.27335 0.13566 0.53516 0.0
H2213 H 0.24497 0.07742 0.46477 0.0
H2214 H 0.23563 0.10668 0.43376 0.0
H2215 H 0.22955 0.14587 0.43018 0.0
H2216 H 0.25717 0.20332 0.50148 0.0
H2217 H 0.27326 0.17758 0.52858 0.0
C2218 C 0.26578 0.12971 0.51267 0.0
C2219 C 0.25973 0.10443 0.5022 0.0
C2220 C 0.26 0.14635 0.49544 0.0
C2221 C 0.25002 0.09688 0.47311 0.0
C2222 C 0.24438 0.11349 0.45561 0.0
C2223 C 0.23936 0.15288 0.45151 0.0
C2224 C 0.24172 0.17626 0.4641 0.0
C2225 C 0.24831 0.13778 0.46706 0.0
C2226 C 0.25507 0.18545 0.49137 0.0
C2227 C 0.26411 0.17063 0.50693 0.0
H2228 H 0.88367 0.14372 0.53207 0.0
H2229 H 0.94646 0.16932 0.46759 0.0
H2230 H 0.91904 0.12948 0.43754 0.0
H2231 H 0.87998 0.08402 0.43425 0.0
H2232 H 0.81768 0.05871 0.49945 0.0
H2233 H 0.84191 0.10178 0.52449 0.0
C2234 C 0.89094 0.14105 0.51082 0.0
C2235 C 0.91701 0.15948 0.50198 0.0
C2236 C 0.87533 0.11779 0.49422 0.0
C2237 C 0.92633 0.15571 0.47461 0.0
C2238 C 0.91079 0.13265 0.45773 0.0
C2239 C 0.87161 0.08809 0.45375 0.0
C2240 C 0.84721 0.06796 0.4653 0.0
C2241 C 0.88574 0.113 0.46804 0.0
C2242 C 0.83634 0.07375 0.49016 0.0
C2243 C 0.85028 0.09837 0.50455 0.0
H2244 H 0.94141 0.47336 0.36665 0.0
H2245 H 0.903 0.49833 0.30281 0.0
H2246 H 0.89355 0.46014 0.27094 0.0
H2247 H 0.89045 0.41619 0.26551 0.0
H2248 H 0.92797 0.39118 0.33071 0.0
H2249 H 0.94389 0.43298 0.35765 0.0
C2250 C 0.93173 0.47087 0.34524 0.0
C2251 C 0.92296 0.48858 0.33695 0.0
C2252 C 0.92579 0.44858 0.32765 0.0
C2253 C 0.9103 0.48518 0.30937 0.0
C2254 C 0.90455 0.46312 0.29143 0.0
C2255 C 0.90232 0.42002 0.28547 0.0
C2256 C 0.9076 0.40031 0.29638 0.0
C2257 C 0.91123 0.4441 0.30101 0.0
C2258 C 0.92358 0.40588 0.32184 0.0
C2259 C 0.93258 0.42976 0.33734 0.0
H2260 H 0.61349 0.47369 0.26857 0.0
H2261 H 0.63528 0.54173 0.3248 0.0
H2262 H 0.59142 0.51912 0.34791 0.0
H2263 H 0.54993 0.47756 0.35757 0.0
H2264 H 0.52815 0.40889 0.30267 0.0
H2265 H 0.56853 0.43427 0.27294 0.0
C2266 C 0.60849 0.48363 0.28565 0.0
C2267 C 0.62783 0.5092 0.29538 0.0
C2268 C 0.58318 0.4704 0.29892 0.0
C2269 C 0.62085 0.5221 0.317 0.0
C2270 C 0.59579 0.50911 0.33028 0.0
C2271 C 0.55353 0.46852 0.33828 0.0
C2272 C 0.53606 0.44149 0.33211 0.0
C2273 C 0.57716 0.48297 0.3221 0.0
C2274 C 0.54102 0.42979 0.30742 0.0
C2275 C 0.56438 0.4442 0.29082 0.0
H2276 H 0.55286 0.14428 0.26383 0.0
H2277 H 0.49097 0.10708 0.3295 0.0
H2278 H 0.51658 0.09035 0.35558 0.0
H2279 H 0.55926 0.09229 0.36386 0.0
H2280 H 0.62201 0.13053 0.29955 0.0
H2281 H 0.5933 0.14046 0.26834 0.0
C2282 C 0.54488 0.13227 0.28368 0.0
C2283 C 0.52017 0.12735 0.29503 0.0
C2284 C 0.55991 0.12293 0.29872 0.0
C2285 C 0.50984 0.1112 0.32033 0.0
C2286 C 0.52458 0.10176 0.33533 0.0
C2287 C 0.5663 0.10198 0.34246 0.0
C2288 C 0.59263 0.11058 0.33386 0.0
C2289 C 0.54997 0.10825 0.32528 0.0
C2290 C 0.60169 0.12333 0.30633 0.0
C2291 C 0.58538 0.12936 0.28878 0.0
H2292 H 0.81894 0.54714 0.83969 0.0
H2293 H 0.84036 0.62439 0.80555 0.0
H2294 H 0.7994 0.62047 0.82577 0.0
H2295 H 0.75363 0.59109 0.84507 0.0
H2296 H 0.73283 0.51331 0.87769 0.0
H2297 H 0.77712 0.52135 0.86658 0.0
C2298 C 0.81521 0.56363 0.83804 0.0
C2299 C 0.83283 0.58623 0.82181 0.0
C2300 C 0.7912 0.56073 0.84872 0.0
C2301 C 0.82741 0.60713 0.81879 0.0
C2302 C 0.80372 0.60464 0.82986 0.0
C2303 C 0.75908 0.57625 0.85036 0.0
C2304 C 0.73967 0.55134 0.86141 0.0
C2305 C 0.78483 0.58095 0.84364 0.0
C2306 C 0.7471 0.53232 0.86833 0.0
C2307 C 0.77252 0.53695 0.86214 0.0
H2308 H 0.47759 0.21197 0.88313 0.0
H2309 H 0.4465 0.15282 0.81363 0.0
H2310 H 0.43023 0.17858 0.78686 0.0
H2311 H 0.43119 0.221 0.77962 0.0
H2312 H 0.46313 0.28091 0.84813 0.0
H2313 H 0.47231 0.25165 0.87932 0.0
C2314 C 0.46697 0.20459 0.86229 0.0
C2315 C 0.46369 0.1807 0.85008 0.0
C2316 C 0.45788 0.21968 0.84693 0.0
C2317 C 0.44933 0.17108 0.82345 0.0
C2318 C 0.44016 0.18591 0.80808 0.0
C2319 C 0.43934 0.22726 0.80184 0.0
C2320 C 0.44643 0.25302 0.81168 0.0
C2321 C 0.44514 0.21063 0.81912 0.0
C2322 C 0.45713 0.26105 0.84033 0.0
C2323 C 0.46273 0.24445 0.85791 0.0
H2324 H 0.82014 0.2803 0.88187 0.0
H2325 H 0.88762 0.29555 0.82817 0.0
H2326 H 0.86301 0.25067 0.80735 0.0
H2327 H 0.81998 0.21058 0.79804 0.0
H2328 H 0.75193 0.19564 0.85027 0.0
H2329 H 0.77913 0.23645 0.87884 0.0
C2330 C 0.82952 0.27362 0.8659 0.0
C2331 C 0.8555 0.29141 0.85605 0.0
C2332 C 0.81514 0.24779 0.85396 0.0
C2333 C 0.86767 0.2823 0.83595 0.0
C2334 C 0.85354 0.25668 0.82399 0.0
C2335 C 0.81145 0.21566 0.81667 0.0
C2336 C 0.78409 0.20007 0.8223 0.0
C2337 C 0.82699 0.23964 0.83203 0.0
C2338 C 0.77305 0.207 0.84602 0.0
C2339 C 0.78852 0.23065 0.86189 0.0
H2340 H 0.48619 0.2149 0.33959 0.0
H2341 H 0.40973 0.19324 0.30303 0.0
H2342 H 0.4125 0.2335 0.3241 0.0
H2343 H 0.44107 0.27921 0.3444 0.0
H2344 H 0.51797 0.30021 0.37971 0.0
H2345 H 0.51066 0.25613 0.36815 0.0
C2346 C 0.46956 0.21835 0.33764 0.0
C2347 C 0.44759 0.20093 0.32035 0.0
C2348 C 0.4718 0.242 0.34886 0.0
C2349 C 0.42652 0.20602 0.31702 0.0
C2350 C 0.42836 0.22934 0.32858 0.0
C2351 C 0.45582 0.2738 0.35025 0.0
C2352 C 0.48035 0.29324 0.36213 0.0
C2353 C 0.45154 0.24818 0.34325 0.0
C2354 C 0.49927 0.28589 0.36975 0.0
C2355 C 0.49506 0.26061 0.36327 0.0
H2356 H 0.81696 0.21872 0.28841 0.0
H2357 H 0.84118 0.28474 0.34843 0.0
H2358 H 0.80152 0.25821 0.37898 0.0
H2359 H 0.75684 0.21839 0.38393 0.0
H2360 H 0.73297 0.15285 0.32309 0.0
H2361 H 0.77571 0.17681 0.29766 0.0
C2362 C 0.81394 0.22698 0.30876 0.0
C2363 C 0.83192 0.25357 0.3163 0.0
C2364 C 0.79091 0.21181 0.32566 0.0
C2365 C 0.82783 0.2642 0.3425 0.0
C2366 C 0.80494 0.24912 0.35967 0.0
C2367 C 0.76116 0.20928 0.3653 0.0
C2368 C 0.74154 0.184 0.35507 0.0
C2369 C 0.78583 0.22328 0.35073 0.0
C2370 C 0.74764 0.1722 0.33135 0.0
C2371 C 0.77204 0.18598 0.31673 0.0
H2372 H 0.81527 0.54486 0.38754 0.0
H2373 H 0.87856 0.5822 0.32349 0.0
H2374 H 0.85383 0.59953 0.29669 0.0
H2375 H 0.81171 0.59853 0.28748 0.0
H2376 H 0.74779 0.56074 0.35048 0.0
H2377 H 0.77534 0.54956 0.38211 0.0
C2378 C 0.82373 0.55702 0.36787 0.0
C2379 C 0.84861 0.56185 0.35724 0.0
C2380 C 0.80927 0.56685 0.35249 0.0
C2381 C 0.85955 0.57815 0.33214 0.0
C2382 C 0.84533 0.58796 0.31673 0.0
C2383 C 0.80417 0.58866 0.3087 0.0
C2384 C 0.77784 0.5806 0.3168 0.0
C2385 C 0.81987 0.58176 0.32619 0.0
C2386 C 0.76813 0.56758 0.34409 0.0
C2387 C 0.78377 0.56082 0.36188 0.0
H2388 H 0.62215 0.10733 0.80626 0.0
H2389 H 0.64343 0.18544 0.77445 0.0
H2390 H 0.59932 0.17775 0.7861 0.0
H2391 H 0.5576 0.15213 0.81332 0.0
H2392 H 0.53553 0.07437 0.84633 0.0
H2393 H 0.5763 0.0781 0.82575 0.0
C2394 C 0.6168 0.12229 0.80118 0.0
C2395 C 0.6363 0.14718 0.79014 0.0
C2396 C 0.59115 0.11779 0.80827 0.0
C2397 C 0.62904 0.16639 0.78363 0.0
C2398 C 0.60375 0.16198 0.7902 0.0
C2399 C 0.56114 0.13551 0.81467 0.0
C2400 C 0.54335 0.1128 0.83068 0.0
C2401 C 0.585 0.13822 0.80363 0.0
C2402 C 0.54857 0.09173 0.83328 0.0
C2403 C 0.57216 0.0941 0.82197 0.0
H2404 H 0.89547 0.48414 0.77004 0.0
H2405 H 0.93217 0.54515 0.837 0.0
H2406 H 0.94994 0.51976 0.86168 0.0
H2407 H 0.94875 0.47715 0.8685 0.0
H2408 H 0.91132 0.4155 0.80249 0.0
H2409 H 0.90055 0.4443 0.77265 0.0
C2410 C 0.90765 0.492 0.78983 0.0
C2411 C 0.91208 0.5163 0.80205 0.0
C2412 C 0.91763 0.47714 0.80396 0.0
C2413 C 0.92843 0.52655 0.82725 0.0
C2414 C 0.93845 0.51194 0.84142 0.0
C2415 C 0.93909 0.47043 0.847 0.0
C2416 C 0.93091 0.44433 0.83755 0.0
C2417 C 0.93238 0.48682 0.83056 0.0
C2418 C 0.9182 0.43565 0.80991 0.0
C2419 C 0.91168 0.452 0.79314 0.0
H2420 H 0.55669 0.41883 0.77002 0.0
H2421 H 0.48921 0.39853 0.82616 0.0
H2422 H 0.5129 0.44228 0.84988 0.0
H2423 H 0.55517 0.48305 0.85999 0.0
H2424 H 0.62305 0.50346 0.80464 0.0
H2425 H 0.59678 0.46333 0.77461 0.0
C2426 C 0.5471 0.42419 0.78718 0.0
C2427 C 0.52139 0.40529 0.79677 0.0
C2428 C 0.56093 0.44941 0.80071 0.0
C2429 C 0.50895 0.41266 0.81851 0.0
C2430 C 0.52255 0.43763 0.83213 0.0
C2431 C 0.56386 0.47921 0.84058 0.0
C2432 C 0.59092 0.4962 0.83436 0.0
C2433 C 0.54884 0.45578 0.82411 0.0
C2434 C 0.60215 0.49096 0.80946 0.0
C2435 C 0.58722 0.46774 0.79267 0.0
H2436 H 0.6171 0.81763 0.69228 0.0
H2437 H 0.56473 0.83374 0.63991 0.0
H2438 H 0.55161 0.79346 0.61035 0.0
H2439 H 0.54986 0.7501 0.60534 0.0
H2440 H 0.60217 0.7342 0.65826 0.0
H2441 H 0.62083 0.77806 0.68155 0.0
C2442 C 0.60361 0.81282 0.67358 0.0
C2443 C 0.59203 0.82865 0.66801 0.0
C2444 C 0.59576 0.78936 0.65733 0.0
C2445 C 0.57427 0.82213 0.64414 0.0
C2446 C 0.56647 0.79886 0.62762 0.0
C2447 C 0.56562 0.75647 0.62167 0.0
C2448 C 0.57434 0.73878 0.63051 0.0
C2449 C 0.57621 0.78174 0.63493 0.0
C2450 C 0.59513 0.74742 0.6512 0.0
C2451 C 0.60569 0.77244 0.66458 0.0
H2452 H 0.28129 0.80353 0.6029 0.0
H2453 H 0.3015 0.87082 0.65976 0.0
H2454 H 0.25814 0.84665 0.6839 0.0
H2455 H 0.21798 0.80399 0.69428 0.0
H2456 H 0.19797 0.73612 0.6387 0.0
H2457 H 0.23737 0.76294 0.60798 0.0
C2458 C 0.27601 0.81297 0.62032 0.0
C2459 C 0.29478 0.83876 0.62999 0.0
C2460 C 0.25107 0.79882 0.63419 0.0
C2461 C 0.28748 0.85102 0.65204 0.0
C2462 C 0.26273 0.83714 0.66591 0.0
C2463 C 0.22173 0.79542 0.67466 0.0
C2464 C 0.20511 0.76825 0.66851 0.0
C2465 C 0.2448 0.81074 0.65788 0.0
C2466 C 0.21022 0.75712 0.64342 0.0
C2467 C 0.23301 0.77237 0.62624 0.0
H2468 H 0.21848 0.47665 0.60094 0.0
H2469 H 0.15974 0.4429 0.6704 0.0
H2470 H 0.18736 0.42904 0.69732 0.0
H2471 H 0.23043 0.43147 0.70409 0.0
H2472 H 0.28959 0.46502 0.6352 0.0
H2473 H 0.25952 0.47363 0.60473 0.0
C2474 C 0.21165 0.46605 0.62185 0.0
C2475 C 0.18717 0.46117 0.63388 0.0
C2476 C 0.22773 0.45812 0.63722 0.0
C2477 C 0.17837 0.4469 0.66066 0.0
C2478 C 0.19426 0.4391 0.67612 0.0
C2479 C 0.23644 0.44001 0.682 0.0
C2480 C 0.26215 0.44757 0.67181 0.0
C2481 C 0.21924 0.44522 0.66501 0.0
C2482 C 0.26979 0.45869 0.6433 0.0
C2483 C 0.2527 0.46392 0.62611 0.0
H2484 H 0.48393 0.94252 0.11758 0.0
H2485 H 0.50837 0.90473 0.18286 0.0
H2486 H 0.46983 0.8952 0.21377 0.0
H2487 H 0.42538 0.89092 0.2174 0.0
H2488 H 0.40064 0.92765 0.15099 0.0
H2489 H 0.44324 0.94471 0.12545 0.0
C2490 C 0.48132 0.93309 0.13915 0.0
C2491 C 0.49896 0.9244 0.14805 0.0
C2492 C 0.45873 0.92701 0.15619 0.0
C2493 C 0.49533 0.912 0.17583 0.0
C2494 C 0.47303 0.90617 0.19321 0.0
C2495 C 0.4295 0.90298 0.19755 0.0
C2496 C 0.40965 0.90759 0.18573 0.0
C2497 C 0.45398 0.91248 0.18288 0.0
C2498 C 0.41549 0.92378 0.16045 0.0
C2499 C 0.4398 0.93339 0.14578 0.0
H2500 H 0.08611 0.54999 0.12642 0.0
H2501 H 0.13137 0.6169 0.18423 0.0
H2502 H 0.14529 0.59041 0.21378 0.0
H2503 H 0.1504 0.55061 0.21751 0.0
H2504 H 0.10553 0.48417 0.15884 0.0
H2505 H 0.08535 0.50785 0.13538 0.0
C2506 C 0.09818 0.5584 0.14623 0.0
C2507 C 0.10761 0.58527 0.15331 0.0
C2508 C 0.10664 0.54328 0.16244 0.0
C2509 C 0.12347 0.59614 0.17873 0.0
C2510 C 0.13179 0.5811 0.19526 0.0
C2511 C 0.13594 0.54124 0.19984 0.0
C2512 C 0.12982 0.51584 0.1895 0.0
C2513 C 0.12448 0.55506 0.18644 0.0
C2514 C 0.1106 0.50366 0.16709 0.0
C2515 C 0.09917 0.51726 0.15362 0.0
H2516 H 0.4249 0.54807 0.1762 0.0
H2517 H 0.4797 0.53048 0.13167 0.0
H2518 H 0.51717 0.57119 0.15178 0.0
H2519 H 0.53376 0.61603 0.17456 0.0
H2520 H 0.47781 0.63293 0.21803 0.0
H2521 H 0.44175 0.58863 0.20626 0.0
C2522 C 0.44508 0.55247 0.17224 0.0
C2523 C 0.4495 0.53592 0.15313 0.0
C2524 C 0.46646 0.57643 0.183 0.0
C2525 C 0.47578 0.54244 0.14714 0.0
C2526 C 0.49723 0.56605 0.15817 0.0
C2527 C 0.51379 0.60971 0.18208 0.0
C2528 C 0.50848 0.62814 0.1965 0.0
C2529 C 0.49279 0.58389 0.175 0.0
C2530 C 0.48241 0.6195 0.20617 0.0
C2531 C 0.46171 0.59405 0.19956 0.0
H2532 H 0.14863 0.60571 0.72088 0.0
H2533 H 0.11219 0.63293 0.65686 0.0
H2534 H 0.09425 0.59085 0.62992 0.0
H2535 H 0.0937 0.54886 0.62106 0.0
H2536 H 0.13007 0.52109 0.68433 0.0
H2537 H 0.14289 0.56054 0.71546 0.0
C2538 C 0.13657 0.60231 0.70117 0.0
C2539 C 0.1321 0.62269 0.69064 0.0
C2540 C 0.12631 0.57795 0.68574 0.0
C2541 C 0.11593 0.6177 0.66546 0.0
C2542 C 0.10578 0.59366 0.64996 0.0
C2543 C 0.1038 0.5511 0.64212 0.0
C2544 C 0.11093 0.5321 0.65045 0.0
C2545 C 0.11145 0.57398 0.65944 0.0
C2546 C 0.12405 0.53522 0.67768 0.0
C2547 C 0.13168 0.55798 0.69522 0.0
H2548 H 0.42935 0.55057 0.71785 0.0
H2549 H 0.40308 0.48745 0.65323 0.0
H2550 H 0.44533 0.51189 0.62687 0.0
H2551 H 0.4864 0.55408 0.6179 0.0
H2552 H 0.51266 0.61785 0.6815 0.0
H2553 H 0.47411 0.59017 0.71307 0.0
C2554 C 0.43305 0.54206 0.6982 0.0
C2555 C 0.41289 0.51742 0.68715 0.0
C2556 C 0.4574 0.55636 0.68309 0.0
C2557 C 0.41819 0.50634 0.66211 0.0
C2558 C 0.44231 0.52039 0.64697 0.0
C2559 C 0.48417 0.56151 0.63927 0.0
C2560 C 0.50233 0.58786 0.64753 0.0
C2561 C 0.46164 0.54577 0.65669 0.0
C2562 C 0.49919 0.59748 0.675 0.0
C2563 C 0.4769 0.58178 0.69274 0.0
H2564 H 0.47798 0.93101 0.6183 0.0
H2565 H 0.41653 0.896 0.68456 0.0
H2566 H 0.44594 0.88785 0.71674 0.0
H2567 H 0.48674 0.88474 0.7221 0.0
H2568 H 0.54738 0.91898 0.65464 0.0
H2569 H 0.52091 0.93373 0.62695 0.0
C2570 C 0.47137 0.92238 0.64026 0.0
C2571 C 0.44522 0.91417 0.64919 0.0
C2572 C 0.48811 0.91719 0.65807 0.0
C2573 C 0.43671 0.90286 0.67748 0.0
C2574 C 0.45342 0.89785 0.69562 0.0
C2575 C 0.49424 0.89566 0.70148 0.0
C2576 C 0.51886 0.90035 0.69018 0.0
C2577 C 0.47875 0.90393 0.68554 0.0
C2578 C 0.52858 0.91509 0.66382 0.0
C2579 C 0.51336 0.9234 0.6479 0.0
H2580 H 0.22196 0.42285 0.19933 0.0
H2581 H 0.2011 0.46589 0.13719 0.0
H2582 H 0.24059 0.47674 0.10738 0.0
H2583 H 0.28472 0.4802 0.10428 0.0
H2584 H 0.3056 0.43758 0.16708 0.0
H2585 H 0.26231 0.41995 0.19125 0.0
C2586 C 0.22556 0.43371 0.17858 0.0
C2587 C 0.20862 0.44342 0.17026 0.0
C2588 C 0.24862 0.4404 0.16215 0.0
C2589 C 0.21357 0.45779 0.14366 0.0
C2590 C 0.2364 0.46435 0.12694 0.0
C2591 C 0.27956 0.46671 0.12297 0.0
C2592 C 0.2985 0.46055 0.13428 0.0
C2593 C 0.25466 0.45678 0.13677 0.0
C2594 C 0.29141 0.44262 0.15807 0.0
C2595 C 0.26672 0.43268 0.17196 0.0
H2596 H 0.55949 0.74991 0.1513 0.0
H2597 H 0.63752 0.80996 0.17861 0.0
H2598 H 0.63011 0.8446 0.15747 0.0
H2599 H 0.59799 0.85812 0.13972 0.0
H2600 H 0.51918 0.79724 0.11504 0.0
H2601 H 0.53016 0.76291 0.12641 0.0
C2602 C 0.57535 0.77046 0.15114 0.0
C2603 C 0.59927 0.7773 0.16573 0.0
C2604 C 0.57036 0.79032 0.14033 0.0
C2605 C 0.61926 0.80413 0.1666 0.0
C2606 C 0.61478 0.82401 0.15506 0.0
C2607 C 0.58349 0.83737 0.13623 0.0
C2608 C 0.55756 0.83031 0.12728 0.0
C2609 C 0.5899 0.81745 0.14318 0.0
C2610 C 0.53901 0.80326 0.12276 0.0
C2611 C 0.54532 0.78355 0.12907 0.0
H2612 H 0.28524 0.81358 0.14726 0.0
H2613 H 0.23115 0.83717 0.18158 0.0
H2614 H 0.19342 0.79631 0.16204 0.0
H2615 H 0.17592 0.74995 0.14351 0.0
H2616 H 0.23121 0.72704 0.11069 0.0
H2617 H 0.26813 0.77126 0.12088 0.0
C2618 C 0.26525 0.81035 0.14907 0.0
C2619 C 0.26097 0.82855 0.16521 0.0
C2620 C 0.24373 0.78639 0.13879 0.0
C2621 C 0.23494 0.82378 0.16841 0.0
C2622 C 0.21334 0.80013 0.15775 0.0
C2623 C 0.19599 0.75494 0.13795 0.0
C2624 C 0.20084 0.73497 0.12713 0.0
C2625 C 0.21743 0.78065 0.14416 0.0
C2626 C 0.22699 0.74178 0.11986 0.0
C2627 C 0.24816 0.76714 0.12554 0.0
loop_
_geom_bond_atom_site_label_1
_geom_bond_atom_site_label_2
_geom_bond_distance
_geom_bond_site_symmetry_2
_ccdc_geom_bond_type
C0 C1 1.351 . S
C0 N3 1.368 . S
C0 H5 0.931 . S
C1 C0 1.351 . S
C1 N2 1.373 . S
C1 H29 0.930 . S
N2 C1 1.373 . S
N2 C4 1.340 . S
N3 C0 1.368 . S
N3 C4 1.321 . S
N3 Co6 2.135 . S
C4 N2 1.340 . S
C4 N3 1.321 . S
C4 H28 0.930 . S
H5 C0 0.931 . S
Co6 N3 2.135 . S
Co6 N9 2.121 . S
Co6 O14 2.055 . S
Co6 O17 2.039 . S
Co6 N20 2.140 . S
C7 O8 1.227 . S
C7 O17 1.265 . S
O8 C7 1.227 . S
N9 Co6 2.121 . S
N9 C11 1.375 . S
N9 C12 1.313 . S
C10 C11 1.338 . S
C10 N13 1.377 . S
C10 H30 0.930 . S
C11 N9 1.375 . S
C11 C10 1.338 . S
C11 H15 0.931 . S
C12 N9 1.313 . S
C12 N13 1.344 . S
C12 H16 0.930 . S
N13 C10 1.377 . S
N13 C12 1.344 . S
O14 Co6 2.055 . S
O14 C18 1.253 . S
H15 C11 0.931 . S
H16 C12 0.930 . S
O17 Co6 2.039 . S
O17 C7 1.265 . S
C18 O14 1.253 . S
C18 O19 1.227 . S
O19 C18 1.227 . S
N20 Co6 2.140 . S
N20 C23 1.346 . S
N20 C24 1.345 . S
C21 C22 1.387 . S
C21 C25 1.391 . S
C22 C21 1.387 . S
C22 C23 1.369 . S
C22 H31 0.929 . S
C23 N20 1.346 . S
C23 C22 1.369 . S
C23 H26 0.928 . S
C24 N20 1.345 . S
C24 C25 1.371 . S
C24 H27 0.931 . S
C25 C21 1.391 . S
C25 C24 1.371 . S
C25 H32 0.930 . S
H26 C23 0.928 . S
H27 C24 0.931 . S
H28 C4 0.930 . S
H29 C1 0.930 . S
H30 C10 0.930 . S
H31 C22 0.929 . S
H32 C25 0.930 . S
C33 C34 1.351 1_545 S
C33 N36 1.368 . S
C33 H38 0.931 . S
C34 C33 1.351 1_565 S
C34 N35 1.373 . S
C34 H62 0.930 . S
N35 C34 1.373 . S
N35 C37 1.340 . S
N36 C33 1.368 . S
N36 C37 1.321 1_545 S
N36 Co39 2.135 . S
C37 N35 1.340 . S
C37 N36 1.321 1_565 S
C37 H61 0.930 . S
H38 C33 0.931 . S
Co39 N36 2.135 . S
Co39 N42 2.121 . S
Co39 O47 2.055 . S
Co39 O50 2.039 . S
Co39 N53 2.140 . S
C40 O41 1.227 1_545 S
C40 O50 1.265 . S
O41 C40 1.227 1_565 S
N42 Co39 2.121 . S
N42 C44 1.375 . S
N42 C45 1.313 . S
C43 C44 1.338 . S
C43 N46 1.377 . S
C43 H63 0.930 . S
C44 N42 1.375 . S
C44 C43 1.338 . S
C44 H48 0.931 . S
C45 N42 1.313 . S
C45 N46 1.344 . S
C45 H49 0.930 . S
N46 C43 1.377 . S
N46 C45 1.344 . S
O47 Co39 2.055 . S
O47 C51 1.253 . S
H48 C44 0.931 . S
H49 C45 0.930 . S
O50 Co39 2.039 . S
O50 C40 1.265 . S
C51 O47 1.253 . S
C51 O52 1.227 . S
O52 C51 1.227 . S
N53 Co39 2.140 . S
N53 C56 1.346 1_545 S
N53 C57 1.345 . S
C54 C55 1.387 1_545 S
C54 C58 1.391 . S
C55 C54 1.387 1_565 S
C55 C56 1.369 . S
C55 H64 0.929 . S
C56 N53 1.346 1_565 S
C56 C55 1.369 . S
C56 H59 0.928 . S
C57 N53 1.345 . S
C57 C58 1.371 . S
C57 H60 0.931 . S
C58 C54 1.391 . S
C58 C57 1.371 . S
C58 H65 0.930 . S
H59 C56 0.928 . S
H60 C57 0.931 . S
H61 C37 0.930 . S
H62 C34 0.930 . S
H63 C43 0.930 . S
H64 C55 0.929 . S
H65 C58 0.930 . S
C66 C67 1.351 1_655 S
C66 N69 1.368 . S
C66 H71 0.931 . S
C67 C66 1.351 1_455 S
C67 N68 1.373 . S
C67 H95 0.930 . S
N68 C67 1.373 . S
N68 C70 1.340 . S
N69 C66 1.368 . S
N69 C70 1.321 1_655 S
N69 Co72 2.135 . S
C70 N68 1.340 . S
C70 N69 1.321 1_455 S
C70 H94 0.930 . S
H71 C66 0.931 . S
Co72 N69 2.135 . S
Co72 N75 2.121 . S
Co72 O80 2.055 . S
Co72 O83 2.039 . S
Co72 N86 2.140 . S
C73 O74 1.227 1_655 S
C73 O83 1.265 . S
O74 C73 1.227 1_455 S
N75 Co72 2.121 . S
N75 C77 1.375 . S
N75 C78 1.313 . S
C76 C77 1.338 . S
C76 N79 1.377 . S
C76 H96 0.930 . S
C77 N75 1.375 . S
C77 C76 1.338 . S
C77 H81 0.931 . S
C78 N75 1.313 . S
C78 N79 1.344 . S
C78 H82 0.930 . S
N79 C76 1.377 . S
N79 C78 1.344 . S
O80 Co72 2.055 . S
O80 C84 1.253 . S
H81 C77 0.931 . S
H82 C78 0.930 . S
O83 Co72 2.039 . S
O83 C73 1.265 . S
C84 O80 1.253 . S
C84 O85 1.227 . S
O85 C84 1.227 . S
N86 Co72 2.140 . S
N86 C89 1.346 1_655 S
N86 C90 1.345 . S
C87 C88 1.387 1_655 S
C87 C91 1.391 . S
C88 C87 1.387 1_455 S
C88 C89 1.369 . S
C88 H97 0.929 . S
C89 N86 1.346 1_455 S
C89 C88 1.369 . S
C89 H92 0.928 . S
C90 N86 1.345 . S
C90 C91 1.371 . S
C90 H93 0.931 . S
C91 C87 1.391 . S
C91 C90 1.371 . S
C91 H98 0.930 . S
H92 C89 0.928 . S
H93 C90 0.931 . S
H94 C70 0.930 . S
H95 C67 0.930 . S
H96 C76 0.930 . S
H97 C88 0.929 . S
H98 C91 0.930 . S
C99 C100 1.351 . S
C99 N102 1.368 . S
C99 H104 0.931 . S
C100 C99 1.351 . S
C100 N101 1.373 . S
C100 H128 0.930 . S
N101 C100 1.373 . S
N101 C103 1.340 . S
N102 C99 1.368 . S
N102 C103 1.321 . S
N102 Co105 2.135 . S
C103 N101 1.340 . S
C103 N102 1.321 . S
C103 H127 0.930 . S
H104 C99 0.931 . S
Co105 N102 2.135 . S
Co105 N108 2.121 . S
Co105 O113 2.055 . S
Co105 O116 2.039 . S
Co105 N119 2.140 . S
C106 O107 1.227 . S
C106 O116 1.265 . S
O107 C106 1.227 . S
N108 Co105 2.121 . S
N108 C110 1.375 . S
N108 C111 1.313 . S
C109 C110 1.338 . S
C109 N112 1.377 . S
C109 H129 0.930 . S
C110 N108 1.375 . S
C110 C109 1.338 . S
C110 H114 0.931 . S
C111 N108 1.313 . S
C111 N112 1.344 . S
C111 H115 0.930 . S
N112 C109 1.377 . S
N112 C111 1.344 . S
O113 Co105 2.055 . S
O113 C117 1.253 . S
H114 C110 0.931 . S
H115 C111 0.930 . S
O116 Co105 2.039 . S
O116 C106 1.265 . S
C117 O113 1.253 . S
C117 O118 1.227 . S
O118 C117 1.227 . S
N119 Co105 2.140 . S
N119 C122 1.346 . S
N119 C123 1.345 . S
C120 C121 1.387 . S
C120 C124 1.391 . S
C121 C120 1.387 . S
C121 C122 1.369 . S
C121 H130 0.929 . S
C122 N119 1.346 . S
C122 C121 1.369 . S
C122 H125 0.928 . S
C123 N119 1.345 . S
C123 C124 1.371 . S
C123 H126 0.931 . S
C124 C120 1.391 . S
C124 C123 1.371 . S
C124 H131 0.930 . S
H125 C122 0.928 . S
H126 C123 0.931 . S
H127 C103 0.930 . S
H128 C100 0.930 . S
H129 C109 0.930 . S
H130 C121 0.929 . S
H131 C124 0.930 . S
C132 C133 1.351 1_565 S
C132 N135 1.368 . S
C132 H137 0.931 . S
C133 C132 1.351 1_545 S
C133 N134 1.373 . S
C133 H161 0.930 . S
N134 C133 1.373 . S
N134 C136 1.340 . S
N135 C132 1.368 . S
N135 C136 1.321 1_565 S
N135 Co138 2.135 . S
C136 N134 1.340 . S
C136 N135 1.321 1_545 S
C136 H160 0.930 . S
H137 C132 0.931 . S
Co138 N135 2.135 . S
Co138 N141 2.121 . S
Co138 O146 2.055 . S
Co138 O149 2.039 . S
Co138 N152 2.140 . S
C139 O140 1.227 1_565 S
C139 O149 1.265 . S
O140 C139 1.227 1_545 S
N141 Co138 2.121 . S
N141 C143 1.375 . S
N141 C144 1.313 . S
C142 C143 1.338 . S
C142 N145 1.377 . S
C142 H162 0.930 . S
C143 N141 1.375 . S
C143 C142 1.338 . S
C143 H147 0.931 . S
C144 N141 1.313 . S
C144 N145 1.344 . S
C144 H148 0.930 . S
N145 C142 1.377 . S
N145 C144 1.344 . S
O146 Co138 2.055 . S
O146 C150 1.253 . S
H147 C143 0.931 . S
H148 C144 0.930 . S
O149 Co138 2.039 . S
O149 C139 1.265 . S
C150 O146 1.253 . S
C150 O151 1.227 . S
O151 C150 1.227 . S
N152 Co138 2.140 . S
N152 C155 1.346 1_565 S
N152 C156 1.345 . S
C153 C154 1.387 1_565 S
C153 C157 1.391 . S
C154 C153 1.387 1_545 S
C154 C155 1.369 . S
C154 H163 0.929 . S
C155 N152 1.346 1_545 S
C155 C154 1.369 . S
C155 H158 0.928 . S
C156 N152 1.345 . S
C156 C157 1.371 . S
C156 H159 0.931 . S
C157 C153 1.391 . S
C157 C156 1.371 . S
C157 H164 0.930 . S
H158 C155 0.928 . S
H159 C156 0.931 . S
H160 C136 0.930 . S
H161 C133 0.930 . S
H162 C142 0.930 . S
H163 C154 0.929 . S
H164 C157 0.930 . S
C165 C166 1.351 1_455 S
C165 N168 1.368 . S
C165 H170 0.931 . S
C166 C165 1.351 1_655 S
C166 N167 1.373 . S
C166 H194 0.930 . S
N167 C166 1.373 . S
N167 C169 1.340 . S
N168 C165 1.368 . S
N168 C169 1.321 1_455 S
N168 Co171 2.135 . S
C169 N167 1.340 . S
C169 N168 1.321 1_655 S
C169 H193 0.930 . S
H170 C165 0.931 . S
Co171 N168 2.135 . S
Co171 N174 2.121 . S
Co171 O179 2.055 . S
Co171 O182 2.039 . S
Co171 N185 2.140 . S
C172 O173 1.227 1_455 S
C172 O182 1.265 . S
O173 C172 1.227 1_655 S
N174 Co171 2.121 . S
N174 C176 1.375 . S
N174 C177 1.313 . S
C175 C176 1.338 . S
C175 N178 1.377 . S
C175 H195 0.930 . S
C176 N174 1.375 . S
C176 C175 1.338 . S
C176 H180 0.931 . S
C177 N174 1.313 . S
C177 N178 1.344 . S
C177 H181 0.930 . S
N178 C175 1.377 . S
N178 C177 1.344 . S
O179 Co171 2.055 . S
O179 C183 1.253 . S
H180 C176 0.931 . S
H181 C177 0.930 . S
O182 Co171 2.039 . S
O182 C172 1.265 . S
C183 O179 1.253 . S
C183 O184 1.227 . S
O184 C183 1.227 . S
N185 Co171 2.140 . S
N185 C188 1.346 1_455 S
N185 C189 1.345 . S
C186 C187 1.387 1_455 S
C186 C190 1.391 . S
C187 C186 1.387 1_655 S
C187 C188 1.369 . S
C187 H196 0.929 . S
C188 N185 1.346 1_655 S
C188 C187 1.369 . S
C188 H191 0.928 . S
C189 N185 1.345 . S
C189 C190 1.371 . S
C189 H192 0.931 . S
C190 C186 1.391 . S
C190 C189 1.371 . S
C190 H197 0.930 . S
H191 C188 0.928 . S
H192 C189 0.931 . S
H193 C169 0.930 . S
H194 C166 0.930 . S
H195 C175 0.930 . S
H196 C187 0.929 . S
H197 C190 0.930 . S
C198 C199 1.351 . S
C198 N201 1.368 . S
C198 H203 0.931 . S
C199 C198 1.351 . S
C199 N200 1.373 . S
C199 H227 0.930 . S
N200 C199 1.373 . S
N200 C202 1.340 . S
N201 C198 1.368 . S
N201 C202 1.321 . S
N201 Co204 2.135 . S
C202 N200 1.340 . S
C202 N201 1.321 . S
C202 H226 0.930 . S
H203 C198 0.931 . S
Co204 N201 2.135 . S
Co204 N207 2.121 . S
Co204 O212 2.055 . S
Co204 O215 2.039 . S
Co204 N218 2.140 . S
C205 O206 1.227 . S
C205 O215 1.265 . S
O206 C205 1.227 . S
N207 Co204 2.121 . S
N207 C209 1.375 . S
N207 C210 1.313 . S
C208 C209 1.338 . S
C208 N211 1.377 . S
C208 H228 0.930 . S
C209 N207 1.375 . S
C209 C208 1.338 . S
C209 H213 0.931 . S
C210 N207 1.313 . S
C210 N211 1.344 . S
C210 H214 0.930 . S
N211 C208 1.377 . S
N211 C210 1.344 . S
O212 Co204 2.055 . S
O212 C216 1.253 . S
H213 C209 0.931 . S
H214 C210 0.930 . S
O215 Co204 2.039 . S
O215 C205 1.265 . S
C216 O212 1.253 . S
C216 O217 1.227 . S
O217 C216 1.227 . S
N218 Co204 2.140 . S
N218 C221 1.346 . S
N218 C222 1.345 . S
C219 C220 1.387 . S
C219 C223 1.391 . S
C220 C219 1.387 . S
C220 C221 1.369 . S
C220 H229 0.929 . S
C221 N218 1.346 . S
C221 C220 1.369 . S
C221 H224 0.928 . S
C222 N218 1.345 . S
C222 C223 1.371 . S
C222 H225 0.931 . S
C223 C219 1.391 . S
C223 C222 1.371 . S
C223 H230 0.930 . S
H224 C221 0.928 . S
H225 C222 0.931 . S
H226 C202 0.930 . S
H227 C199 0.930 . S
H228 C208 0.930 . S
H229 C220 0.929 . S
H230 C223 0.930 . S
C231 C232 1.351 1_565 S
C231 N234 1.368 . S
C231 H236 0.931 . S
C232 C231 1.351 1_545 S
C232 N233 1.373 . S
C232 H260 0.930 . S
N233 C232 1.373 . S
N233 C235 1.340 . S
N234 C231 1.368 . S
N234 C235 1.321 1_565 S
N234 Co237 2.135 . S
C235 N233 1.340 . S
C235 N234 1.321 1_545 S
C235 H259 0.930 . S
H236 C231 0.931 . S
Co237 N234 2.135 . S
Co237 N240 2.121 . S
Co237 O245 2.055 . S
Co237 O248 2.039 . S
Co237 N251 2.140 . S
C238 O239 1.227 1_565 S
C238 O248 1.265 . S
O239 C238 1.227 1_545 S
N240 Co237 2.121 . S
N240 C242 1.375 . S
N240 C243 1.313 . S
C241 C242 1.338 . S
C241 N244 1.377 . S
C241 H261 0.930 . S
C242 N240 1.375 . S
C242 C241 1.338 . S
C242 H246 0.931 . S
C243 N240 1.313 . S
C243 N244 1.344 . S
C243 H247 0.930 . S
N244 C241 1.377 . S
N244 C243 1.344 . S
O245 Co237 2.055 . S
O245 C249 1.253 . S
H246 C242 0.931 . S
H247 C243 0.930 . S
O248 Co237 2.039 . S
O248 C238 1.265 . S
C249 O245 1.253 . S
C249 O250 1.227 . S
O250 C249 1.227 . S
N251 Co237 2.140 . S
N251 C254 1.346 1_565 S
N251 C255 1.345 . S
C252 C253 1.387 1_565 S
C252 C256 1.391 . S
C253 C252 1.387 1_545 S
C253 C254 1.369 . S
C253 H262 0.929 . S
C254 N251 1.346 1_545 S
C254 C253 1.369 . S
C254 H257 0.928 . S
C255 N251 1.345 . S
C255 C256 1.371 . S
C255 H258 0.931 . S
C256 C252 1.391 . S
C256 C255 1.371 . S
C256 H263 0.930 . S
H257 C254 0.928 . S
H258 C255 0.931 . S
H259 C235 0.930 . S
H260 C232 0.930 . S
H261 C241 0.930 . S
H262 C253 0.929 . S
H263 C256 0.930 . S
C264 C265 1.351 1_455 S
C264 N267 1.368 . S
C264 H269 0.931 . S
C265 C264 1.351 1_655 S
C265 N266 1.373 . S
C265 H293 0.930 . S
N266 C265 1.373 . S
N266 C268 1.340 . S
N267 C264 1.368 . S
N267 C268 1.321 1_455 S
N267 Co270 2.135 . S
C268 N266 1.340 . S
C268 N267 1.321 1_655 S
C268 H292 0.930 . S
H269 C264 0.931 . S
Co270 N267 2.135 . S
Co270 N273 2.121 . S
Co270 O278 2.055 . S
Co270 O281 2.039 . S
Co270 N284 2.140 . S
C271 O272 1.227 1_455 S
C271 O281 1.265 . S
O272 C271 1.227 1_655 S
N273 Co270 2.121 . S
N273 C275 1.375 . S
N273 C276 1.313 . S
C274 C275 1.338 . S
C274 N277 1.377 . S
C274 H294 0.930 . S
C275 N273 1.375 . S
C275 C274 1.338 . S
C275 H279 0.931 . S
C276 N273 1.313 . S
C276 N277 1.344 . S
C276 H280 0.930 . S
N277 C274 1.377 . S
N277 C276 1.344 . S
O278 Co270 2.055 . S
O278 C282 1.253 . S
H279 C275 0.931 . S
H280 C276 0.930 . S
O281 Co270 2.039 . S
O281 C271 1.265 . S
C282 O278 1.253 . S
C282 O283 1.227 . S
O283 C282 1.227 . S
N284 Co270 2.140 . S
N284 C287 1.346 1_455 S
N284 C288 1.345 . S
C285 C286 1.387 1_455 S
C285 C289 1.391 . S
C286 C285 1.387 1_655 S
C286 C287 1.369 . S
C286 H295 0.929 . S
C287 N284 1.346 1_655 S
C287 C286 1.369 . S
C287 H290 0.928 . S
C288 N284 1.345 . S
C288 C289 1.371 . S
C288 H291 0.931 . S
C289 C285 1.391 . S
C289 C288 1.371 . S
C289 H296 0.930 . S
H290 C287 0.928 . S
H291 C288 0.931 . S
H292 C268 0.930 . S
H293 C265 0.930 . S
H294 C274 0.930 . S
H295 C286 0.929 . S
H296 C289 0.930 . S
C297 C298 1.351 . S
C297 N300 1.368 . S
C297 H302 0.931 . S
C298 C297 1.351 . S
C298 N299 1.373 . S
C298 H326 0.930 . S
N299 C298 1.373 . S
N299 C301 1.340 . S
N300 C297 1.368 . S
N300 C301 1.321 . S
N300 Co303 2.135 . S
C301 N299 1.340 . S
C301 N300 1.321 . S
C301 H325 0.930 . S
H302 C297 0.931 . S
Co303 N300 2.135 . S
Co303 N306 2.121 . S
Co303 O311 2.055 . S
Co303 O314 2.039 . S
Co303 N317 2.140 . S
C304 O305 1.227 . S
C304 O314 1.265 . S
O305 C304 1.227 . S
N306 Co303 2.121 . S
N306 C308 1.375 . S
N306 C309 1.313 . S
C307 C308 1.338 . S
C307 N310 1.377 . S
C307 H327 0.930 . S
C308 N306 1.375 . S
C308 C307 1.338 . S
C308 H312 0.931 . S
C309 N306 1.313 . S
C309 N310 1.344 . S
C309 H313 0.930 . S
N310 C307 1.377 . S
N310 C309 1.344 . S
O311 Co303 2.055 . S
O311 C315 1.253 . S
H312 C308 0.931 . S
H313 C309 0.930 . S
O314 Co303 2.039 . S
O314 C304 1.265 . S
C315 O311 1.253 . S
C315 O316 1.227 . S
O316 C315 1.227 . S
N317 Co303 2.140 . S
N317 C320 1.346 . S
N317 C321 1.345 . S
C318 C319 1.387 . S
C318 C322 1.391 . S
C319 C318 1.387 . S
C319 C320 1.369 . S
C319 H328 0.929 . S
C320 N317 1.346 . S
C320 C319 1.369 . S
C320 H323 0.928 . S
C321 N317 1.345 . S
C321 C322 1.371 . S
C321 H324 0.931 . S
C322 C318 1.391 . S
C322 C321 1.371 . S
C322 H329 0.930 . S
H323 C320 0.928 . S
H324 C321 0.931 . S
H325 C301 0.930 . S
H326 C298 0.930 . S
H327 C307 0.930 . S
H328 C319 0.929 . S
H329 C322 0.930 . S
C330 C331 1.351 1_545 S
C330 N333 1.368 . S
C330 H335 0.931 . S
C331 C330 1.351 1_565 S
C331 N332 1.373 . S
C331 H359 0.930 . S
N332 C331 1.373 . S
N332 C334 1.340 . S
N333 C330 1.368 . S
N333 C334 1.321 1_545 S
N333 Co336 2.135 . S
C334 N332 1.340 . S
C334 N333 1.321 1_565 S
C334 H358 0.930 . S
H335 C330 0.931 . S
Co336 N333 2.135 . S
Co336 N339 2.121 . S
Co336 O344 2.055 . S
Co336 O347 2.039 . S
Co336 N350 2.140 . S
C337 O338 1.227 1_545 S
C337 O347 1.265 . S
O338 C337 1.227 1_565 S
N339 Co336 2.121 . S
N339 C341 1.375 . S
N339 C342 1.313 . S
C340 C341 1.338 . S
C340 N343 1.377 . S
C340 H360 0.930 . S
C341 N339 1.375 . S
C341 C340 1.338 . S
C341 H345 0.931 . S
C342 N339 1.313 . S
C342 N343 1.344 . S
C342 H346 0.930 . S
N343 C340 1.377 . S
N343 C342 1.344 . S
O344 Co336 2.055 . S
O344 C348 1.253 . S
H345 C341 0.931 . S
H346 C342 0.930 . S
O347 Co336 2.039 . S
O347 C337 1.265 . S
C348 O344 1.253 . S
C348 O349 1.227 . S
O349 C348 1.227 . S
N350 Co336 2.140 . S
N350 C353 1.346 1_545 S
N350 C354 1.345 . S
C351 C352 1.387 1_545 S
C351 C355 1.391 . S
C352 C351 1.387 1_565 S
C352 C353 1.369 . S
C352 H361 0.929 . S
C353 N350 1.346 1_565 S
C353 C352 1.369 . S
C353 H356 0.928 . S
C354 N350 1.345 . S
C354 C355 1.371 . S
C354 H357 0.931 . S
C355 C351 1.391 . S
C355 C354 1.371 . S
C355 H362 0.930 . S
H356 C353 0.928 . S
H357 C354 0.931 . S
H358 C334 0.930 . S
H359 C331 0.930 . S
H360 C340 0.930 . S
H361 C352 0.929 . S
H362 C355 0.930 . S
C363 C364 1.351 1_655 S
C363 N366 1.368 . S
C363 H368 0.931 . S
C364 C363 1.351 1_455 S
C364 N365 1.373 . S
C364 H392 0.930 . S
N365 C364 1.373 . S
N365 C367 1.340 . S
N366 C363 1.368 . S
N366 C367 1.321 1_655 S
N366 Co369 2.135 . S
C367 N365 1.340 . S
C367 N366 1.321 1_455 S
C367 H391 0.930 . S
H368 C363 0.931 . S
Co369 N366 2.135 . S
Co369 N372 2.121 . S
Co369 O377 2.055 . S
Co369 O380 2.039 . S
Co369 N383 2.140 . S
C370 O371 1.227 1_655 S
C370 O380 1.265 . S
O371 C370 1.227 1_455 S
N372 Co369 2.121 . S
N372 C374 1.375 . S
N372 C375 1.313 . S
C373 C374 1.338 . S
C373 N376 1.377 . S
C373 H393 0.930 . S
C374 N372 1.375 . S
C374 C373 1.338 . S
C374 H378 0.931 . S
C375 N372 1.313 . S
C375 N376 1.344 . S
C375 H379 0.930 . S
N376 C373 1.377 . S
N376 C375 1.344 . S
O377 Co369 2.055 . S
O377 C381 1.253 . S
H378 C374 0.931 . S
H379 C375 0.930 . S
O380 Co369 2.039 . S
O380 C370 1.265 . S
C381 O377 1.253 . S
C381 O382 1.227 . S
O382 C381 1.227 . S
N383 Co369 2.140 . S
N383 C386 1.346 1_655 S
N383 C387 1.345 . S
C384 C385 1.387 1_655 S
C384 C388 1.391 . S
C385 C384 1.387 1_455 S
C385 C386 1.369 . S
C385 H394 0.929 . S
C386 N383 1.346 1_455 S
C386 C385 1.369 . S
C386 H389 0.928 . S
C387 N383 1.345 . S
C387 C388 1.371 . S
C387 H390 0.931 . S
C388 C384 1.391 . S
C388 C387 1.371 . S
C388 H395 0.930 . S
H389 C386 0.928 . S
H390 C387 0.931 . S
H391 C367 0.930 . S
H392 C364 0.930 . S
H393 C373 0.930 . S
H394 C385 0.929 . S
H395 C388 0.930 . S
C396 C397 1.351 . S
C396 N399 1.368 . S
C396 H401 0.931 . S
C397 C396 1.351 . S
C397 N398 1.373 . S
C397 H425 0.930 . S
N398 C397 1.373 . S
N398 C400 1.340 . S
N399 C396 1.368 . S
N399 C400 1.321 . S
N399 Co402 2.135 . S
C400 N398 1.340 . S
C400 N399 1.321 . S
C400 H424 0.930 . S
H401 C396 0.931 . S
Co402 N399 2.135 . S
Co402 N405 2.121 . S
Co402 O410 2.055 . S
Co402 O413 2.039 . S
Co402 N416 2.140 . S
C403 O404 1.227 . S
C403 O413 1.265 . S
O404 C403 1.227 . S
N405 Co402 2.121 . S
N405 C407 1.375 . S
N405 C408 1.313 . S
C406 C407 1.338 . S
C406 N409 1.377 . S
C406 H426 0.930 . S
C407 N405 1.375 . S
C407 C406 1.338 . S
C407 H411 0.931 . S
C408 N405 1.313 . S
C408 N409 1.344 . S
C408 H412 0.930 . S
N409 C406 1.377 . S
N409 C408 1.344 . S
O410 Co402 2.055 . S
O410 C414 1.253 . S
H411 C407 0.931 . S
H412 C408 0.930 . S
O413 Co402 2.039 . S
O413 C403 1.265 . S
C414 O410 1.253 . S
C414 O415 1.227 . S
O415 C414 1.227 . S
N416 Co402 2.140 . S
N416 C419 1.346 . S
N416 C420 1.345 . S
C417 C418 1.387 . S
C417 C421 1.391 . S
C418 C417 1.387 . S
C418 C419 1.369 . S
C418 H427 0.929 . S
C419 N416 1.346 . S
C419 C418 1.369 . S
C419 H422 0.928 . S
C420 N416 1.345 . S
C420 C421 1.371 . S
C420 H423 0.931 . S
C421 C417 1.391 . S
C421 C420 1.371 . S
C421 H428 0.930 . S
H422 C419 0.928 . S
H423 C420 0.931 . S
H424 C400 0.930 . S
H425 C397 0.930 . S
H426 C406 0.930 . S
H427 C418 0.929 . S
H428 C421 0.930 . S
C429 C430 1.351 . S
C429 N432 1.368 . S
C429 H434 0.931 . S
C430 C429 1.351 . S
C430 N431 1.373 . S
C430 H458 0.930 . S
N431 C430 1.373 . S
N431 C433 1.340 . S
N432 C429 1.368 . S
N432 C433 1.321 . S
N432 Co435 2.135 . S
C433 N431 1.340 . S
C433 N432 1.321 . S
C433 H457 0.930 . S
H434 C429 0.931 . S
Co435 N432 2.135 . S
Co435 N438 2.121 . S
Co435 O443 2.055 . S
Co435 O446 2.039 . S
Co435 N449 2.140 . S
C436 O437 1.227 . S
C436 O446 1.265 . S
O437 C436 1.227 . S
N438 Co435 2.121 . S
N438 C440 1.375 . S
N438 C441 1.313 . S
C439 C440 1.338 . S
C439 N442 1.377 . S
C439 H459 0.930 . S
C440 N438 1.375 . S
C440 C439 1.338 . S
C440 H444 0.931 . S
C441 N438 1.313 . S
C441 N442 1.344 . S
C441 H445 0.930 . S
N442 C439 1.377 . S
N442 C441 1.344 . S
O443 Co435 2.055 . S
O443 C447 1.253 . S
H444 C440 0.931 . S
H445 C441 0.930 . S
O446 Co435 2.039 . S
O446 C436 1.265 . S
C447 O443 1.253 . S
C447 O448 1.227 . S
O448 C447 1.227 . S
N449 Co435 2.140 . S
N449 C452 1.346 . S
N449 C453 1.345 . S
C450 C451 1.387 . S
C450 C454 1.391 . S
C451 C450 1.387 . S
C451 C452 1.369 . S
C451 H460 0.929 . S
C452 N449 1.346 . S
C452 C451 1.369 . S
C452 H455 0.928 . S
C453 N449 1.345 . S
C453 C454 1.371 . S
C453 H456 0.931 . S
C454 C450 1.391 . S
C454 C453 1.371 . S
C454 H461 0.930 . S
H455 C452 0.928 . S
H456 C453 0.931 . S
H457 C433 0.930 . S
H458 C430 0.930 . S
H459 C439 0.930 . S
H460 C451 0.929 . S
H461 C454 0.930 . S
C462 C463 1.351 . S
C462 N465 1.368 . S
C462 H467 0.931 . S
C463 C462 1.351 . S
C463 N464 1.373 . S
C463 H491 0.930 . S
N464 C463 1.373 . S
N464 C466 1.340 . S
N465 C462 1.368 . S
N465 C466 1.321 . S
N465 Co468 2.135 . S
C466 N464 1.340 . S
C466 N465 1.321 . S
C466 H490 0.930 . S
H467 C462 0.931 . S
Co468 N465 2.135 . S
Co468 N471 2.121 . S
Co468 O476 2.055 . S
Co468 O479 2.039 . S
Co468 N482 2.140 . S
C469 O470 1.227 . S
C469 O479 1.265 . S
O470 C469 1.227 . S
N471 Co468 2.121 . S
N471 C473 1.375 . S
N471 C474 1.313 . S
C472 C473 1.338 . S
C472 N475 1.377 . S
C472 H492 0.930 . S
C473 N471 1.375 . S
C473 C472 1.338 . S
C473 H477 0.931 . S
C474 N471 1.313 . S
C474 N475 1.344 . S
C474 H478 0.930 . S
N475 C472 1.377 . S
N475 C474 1.344 . S
O476 Co468 2.055 . S
O476 C480 1.253 . S
H477 C473 0.931 . S
H478 C474 0.930 . S
O479 Co468 2.039 . S
O479 C469 1.265 . S
C480 O476 1.253 . S
C480 O481 1.227 . S
O481 C480 1.227 . S
N482 Co468 2.140 . S
N482 C485 1.346 . S
N482 C486 1.345 . S
C483 C484 1.387 . S
C483 C487 1.391 . S
C484 C483 1.387 . S
C484 C485 1.369 . S
C484 H493 0.929 . S
C485 N482 1.346 . S
C485 C484 1.369 . S
C485 H488 0.928 . S
C486 N482 1.345 . S
C486 C487 1.371 . S
C486 H489 0.931 . S
C487 C483 1.391 . S
C487 C486 1.371 . S
C487 H494 0.930 . S
H488 C485 0.928 . S
H489 C486 0.931 . S
H490 C466 0.930 . S
H491 C463 0.930 . S
H492 C472 0.930 . S
H493 C484 0.929 . S
H494 C487 0.930 . S
C495 C496 1.351 . S
C495 N498 1.368 . S
C495 H500 0.931 . S
C496 C495 1.351 . S
C496 N497 1.373 . S
C496 H524 0.930 . S
N497 C496 1.373 . S
N497 C499 1.340 . S
N498 C495 1.368 . S
N498 C499 1.321 . S
N498 Co501 2.135 . S
C499 N497 1.340 . S
C499 N498 1.321 . S
C499 H523 0.930 . S
H500 C495 0.931 . S
Co501 N498 2.135 . S
Co501 N504 2.121 . S
Co501 O509 2.055 . S
Co501 O512 2.039 . S
Co501 N515 2.140 . S
C502 O503 1.227 . S
C502 O512 1.265 . S
O503 C502 1.227 . S
N504 Co501 2.121 . S
N504 C506 1.375 . S
N504 C507 1.313 . S
C505 C506 1.338 . S
C505 N508 1.377 . S
C505 H525 0.930 . S
C506 N504 1.375 . S
C506 C505 1.338 . S
C506 H510 0.931 . S
C507 N504 1.313 . S
C507 N508 1.344 . S
C507 H511 0.930 . S
N508 C505 1.377 . S
N508 C507 1.344 . S
O509 Co501 2.055 . S
O509 C513 1.253 . S
H510 C506 0.931 . S
H511 C507 0.930 . S
O512 Co501 2.039 . S
O512 C502 1.265 . S
C513 O509 1.253 . S
C513 O514 1.227 . S
O514 C513 1.227 . S
N515 Co501 2.140 . S
N515 C518 1.346 . S
N515 C519 1.345 . S
C516 C517 1.387 . S
C516 C520 1.391 . S
C517 C516 1.387 . S
C517 C518 1.369 . S
C517 H526 0.929 . S
C518 N515 1.346 . S
C518 C517 1.369 . S
C518 H521 0.928 . S
C519 N515 1.345 . S
C519 C520 1.371 . S
C519 H522 0.931 . S
C520 C516 1.391 . S
C520 C519 1.371 . S
C520 H527 0.930 . S
H521 C518 0.928 . S
H522 C519 0.931 . S
H523 C499 0.930 . S
H524 C496 0.930 . S
H525 C505 0.930 . S
H526 C517 0.929 . S
H527 C520 0.930 . S
C528 C529 1.351 . S
C528 N531 1.368 . S
C528 H533 0.931 . S
C529 C528 1.351 . S
C529 N530 1.373 . S
C529 H557 0.930 . S
N530 C529 1.373 . S
N530 C532 1.340 . S
N531 C528 1.368 . S
N531 C532 1.321 . S
N531 Co534 2.135 . S
C532 N530 1.340 . S
C532 N531 1.321 . S
C532 H556 0.930 . S
H533 C528 0.931 . S
Co534 N531 2.135 . S
Co534 N537 2.121 . S
Co534 O542 2.055 . S
Co534 O545 2.039 . S
Co534 N548 2.140 . S
C535 O536 1.227 . S
C535 O545 1.265 . S
O536 C535 1.227 . S
N537 Co534 2.121 . S
N537 C539 1.375 . S
N537 C540 1.313 . S
C538 C539 1.338 . S
C538 N541 1.377 . S
C538 H558 0.930 . S
C539 N537 1.375 . S
C539 C538 1.338 . S
C539 H543 0.931 . S
C540 N537 1.313 . S
C540 N541 1.344 . S
C540 H544 0.930 . S
N541 C538 1.377 . S
N541 C540 1.344 . S
O542 Co534 2.055 . S
O542 C546 1.253 . S
H543 C539 0.931 . S
H544 C540 0.930 . S
O545 Co534 2.039 . S
O545 C535 1.265 . S
C546 O542 1.253 . S
C546 O547 1.227 . S
O547 C546 1.227 . S
N548 Co534 2.140 . S
N548 C551 1.346 . S
N548 C552 1.345 . S
C549 C550 1.387 . S
C549 C553 1.391 . S
C550 C549 1.387 . S
C550 C551 1.369 . S
C550 H559 0.929 . S
C551 N548 1.346 . S
C551 C550 1.369 . S
C551 H554 0.928 . S
C552 N548 1.345 . S
C552 C553 1.371 . S
C552 H555 0.931 . S
C553 C549 1.391 . S
C553 C552 1.371 . S
C553 H560 0.930 . S
H554 C551 0.928 . S
H555 C552 0.931 . S
H556 C532 0.930 . S
H557 C529 0.930 . S
H558 C538 0.930 . S
H559 C550 0.929 . S
H560 C553 0.930 . S
C561 C562 1.351 . S
C561 N564 1.368 . S
C561 H566 0.931 . S
C562 C561 1.351 . S
C562 N563 1.373 . S
C562 H590 0.930 . S
N563 C562 1.373 . S
N563 C565 1.340 . S
N564 C561 1.368 . S
N564 C565 1.321 . S
N564 Co567 2.135 . S
C565 N563 1.340 . S
C565 N564 1.321 . S
C565 H589 0.930 . S
H566 C561 0.931 . S
Co567 N564 2.135 . S
Co567 N570 2.121 . S
Co567 O575 2.055 . S
Co567 O578 2.039 . S
Co567 N581 2.140 . S
C568 O569 1.227 . S
C568 O578 1.265 . S
O569 C568 1.227 . S
N570 Co567 2.121 . S
N570 C572 1.375 . S
N570 C573 1.313 . S
C571 C572 1.338 . S
C571 N574 1.377 . S
C571 H591 0.930 . S
C572 N570 1.375 . S
C572 C571 1.338 . S
C572 H576 0.931 . S
C573 N570 1.313 . S
C573 N574 1.344 . S
C573 H577 0.930 . S
N574 C571 1.377 . S
N574 C573 1.344 . S
O575 Co567 2.055 . S
O575 C579 1.253 . S
H576 C572 0.931 . S
H577 C573 0.930 . S
O578 Co567 2.039 . S
O578 C568 1.265 . S
C579 O575 1.253 . S
C579 O580 1.227 . S
O580 C579 1.227 . S
N581 Co567 2.140 . S
N581 C584 1.346 . S
N581 C585 1.345 . S
C582 C583 1.387 . S
C582 C586 1.391 . S
C583 C582 1.387 . S
C583 C584 1.369 . S
C583 H592 0.929 . S
C584 N581 1.346 . S
C584 C583 1.369 . S
C584 H587 0.928 . S
C585 N581 1.345 . S
C585 C586 1.371 . S
C585 H588 0.931 . S
C586 C582 1.391 . S
C586 C585 1.371 . S
C586 H593 0.930 . S
H587 C584 0.928 . S
H588 C585 0.931 . S
H589 C565 0.930 . S
H590 C562 0.930 . S
H591 C571 0.930 . S
H592 C583 0.929 . S
H593 C586 0.930 . S
C594 C595 1.351 . S
C594 N597 1.368 . S
C594 H599 0.931 . S
C595 C594 1.351 . S
C595 N596 1.373 . S
C595 H623 0.930 . S
N596 C595 1.373 . S
N596 C598 1.340 . S
N597 C594 1.368 . S
N597 C598 1.321 . S
N597 Co600 2.135 . S
C598 N596 1.340 . S
C598 N597 1.321 . S
C598 H622 0.930 . S
H599 C594 0.931 . S
Co600 N597 2.135 . S
Co600 N603 2.121 . S
Co600 O608 2.055 . S
Co600 O611 2.039 . S
Co600 N614 2.140 . S
C601 O602 1.227 . S
C601 O611 1.265 . S
O602 C601 1.227 . S
N603 Co600 2.121 . S
N603 C605 1.375 . S
N603 C606 1.313 . S
C604 C605 1.338 . S
C604 N607 1.377 . S
C604 H624 0.930 . S
C605 N603 1.375 . S
C605 C604 1.338 . S
C605 H609 0.931 . S
C606 N603 1.313 . S
C606 N607 1.344 . S
C606 H610 0.930 . S
N607 C604 1.377 . S
N607 C606 1.344 . S
O608 Co600 2.055 . S
O608 C612 1.253 . S
H609 C605 0.931 . S
H610 C606 0.930 . S
O611 Co600 2.039 . S
O611 C601 1.265 . S
C612 O608 1.253 . S
C612 O613 1.227 . S
O613 C612 1.227 . S
N614 Co600 2.140 . S
N614 C617 1.346 . S
N614 C618 1.345 . S
C615 C616 1.387 . S
C615 C619 1.391 . S
C616 C615 1.387 . S
C616 C617 1.369 . S
C616 H625 0.929 . S
C617 N614 1.346 . S
C617 C616 1.369 . S
C617 H620 0.928 . S
C618 N614 1.345 . S
C618 C619 1.371 . S
C618 H621 0.931 . S
C619 C615 1.391 . S
C619 C618 1.371 . S
C619 H626 0.930 . S
H620 C617 0.928 . S
H621 C618 0.931 . S
H622 C598 0.930 . S
H623 C595 0.930 . S
H624 C604 0.930 . S
H625 C616 0.929 . S
H626 C619 0.930 . S
C627 C628 1.351 . S
C627 N630 1.368 . S
C627 H632 0.931 . S
C628 C627 1.351 . S
C628 N629 1.373 . S
C628 H656 0.930 . S
N629 C628 1.373 . S
N629 C631 1.340 . S
N630 C627 1.368 . S
N630 C631 1.321 . S
N630 Co633 2.135 . S
C631 N629 1.340 . S
C631 N630 1.321 . S
C631 H655 0.930 . S
H632 C627 0.931 . S
Co633 N630 2.135 . S
Co633 N636 2.121 . S
Co633 O641 2.055 . S
Co633 O644 2.039 . S
Co633 N647 2.140 . S
C634 O635 1.227 . S
C634 O644 1.265 . S
O635 C634 1.227 . S
N636 Co633 2.121 . S
N636 C638 1.375 . S
N636 C639 1.313 . S
C637 C638 1.338 . S
C637 N640 1.377 . S
C637 H657 0.930 . S
C638 N636 1.375 . S
C638 C637 1.338 . S
C638 H642 0.931 . S
C639 N636 1.313 . S
C639 N640 1.344 . S
C639 H643 0.930 . S
N640 C637 1.377 . S
N640 C639 1.344 . S
O641 Co633 2.055 . S
O641 C645 1.253 . S
H642 C638 0.931 . S
H643 C639 0.930 . S
O644 Co633 2.039 . S
O644 C634 1.265 . S
C645 O641 1.253 . S
C645 O646 1.227 . S
O646 C645 1.227 . S
N647 Co633 2.140 . S
N647 C650 1.346 . S
N647 C651 1.345 . S
C648 C649 1.387 . S
C648 C652 1.391 . S
C649 C648 1.387 . S
C649 C650 1.369 . S
C649 H658 0.929 . S
C650 N647 1.346 . S
C650 C649 1.369 . S
C650 H653 0.928 . S
C651 N647 1.345 . S
C651 C652 1.371 . S
C651 H654 0.931 . S
C652 C648 1.391 . S
C652 C651 1.371 . S
C652 H659 0.930 . S
H653 C650 0.928 . S
H654 C651 0.931 . S
H655 C631 0.930 . S
H656 C628 0.930 . S
H657 C637 0.930 . S
H658 C649 0.929 . S
H659 C652 0.930 . S
C660 C661 1.351 . S
C660 N663 1.368 . S
C660 H665 0.931 . S
C661 C660 1.351 . S
C661 N662 1.373 . S
C661 H689 0.930 . S
N662 C661 1.373 . S
N662 C664 1.340 . S
N663 C660 1.368 . S
N663 C664 1.321 . S
N663 Co666 2.135 . S
C664 N662 1.340 . S
C664 N663 1.321 . S
C664 H688 0.930 . S
H665 C660 0.931 . S
Co666 N663 2.135 . S
Co666 N669 2.121 . S
Co666 O674 2.055 . S
Co666 O677 2.039 . S
Co666 N680 2.140 . S
C667 O668 1.227 . S
C667 O677 1.265 . S
O668 C667 1.227 . S
N669 Co666 2.121 . S
N669 C671 1.375 . S
N669 C672 1.313 . S
C670 C671 1.338 . S
C670 N673 1.377 . S
C670 H690 0.930 . S
C671 N669 1.375 . S
C671 C670 1.338 . S
C671 H675 0.931 . S
C672 N669 1.313 . S
C672 N673 1.344 . S
C672 H676 0.930 . S
N673 C670 1.377 . S
N673 C672 1.344 . S
O674 Co666 2.055 . S
O674 C678 1.253 . S
H675 C671 0.931 . S
H676 C672 0.930 . S
O677 Co666 2.039 . S
O677 C667 1.265 . S
C678 O674 1.253 . S
C678 O679 1.227 . S
O679 C678 1.227 . S
N680 Co666 2.140 . S
N680 C683 1.346 . S
N680 C684 1.345 . S
C681 C682 1.387 . S
C681 C685 1.391 . S
C682 C681 1.387 . S
C682 C683 1.369 . S
C682 H691 0.929 . S
C683 N680 1.346 . S
C683 C682 1.369 . S
C683 H686 0.928 . S
C684 N680 1.345 . S
C684 C685 1.371 . S
C684 H687 0.931 . S
C685 C681 1.391 . S
C685 C684 1.371 . S
C685 H692 0.930 . S
H686 C683 0.928 . S
H687 C684 0.931 . S
H688 C664 0.930 . S
H689 C661 0.930 . S
H690 C670 0.930 . S
H691 C682 0.929 . S
H692 C685 0.930 . S
C693 C694 1.351 . S
C693 N696 1.368 . S
C693 H698 0.931 . S
C694 C693 1.351 . S
C694 N695 1.373 . S
C694 H722 0.930 . S
N695 C694 1.373 . S
N695 C697 1.340 . S
N696 C693 1.368 . S
N696 C697 1.321 . S
N696 Co699 2.135 . S
C697 N695 1.340 . S
C697 N696 1.321 . S
C697 H721 0.930 . S
H698 C693 0.931 . S
Co699 N696 2.135 . S
Co699 N702 2.121 . S
Co699 O707 2.055 . S
Co699 O710 2.039 . S
Co699 N713 2.140 . S
C700 O701 1.227 . S
C700 O710 1.265 . S
O701 C700 1.227 . S
N702 Co699 2.121 . S
N702 C704 1.375 . S
N702 C705 1.313 . S
C703 C704 1.338 . S
C703 N706 1.377 . S
C703 H723 0.930 . S
C704 N702 1.375 . S
C704 C703 1.338 . S
C704 H708 0.931 . S
C705 N702 1.313 . S
C705 N706 1.344 . S
C705 H709 0.930 . S
N706 C703 1.377 . S
N706 C705 1.344 . S
O707 Co699 2.055 . S
O707 C711 1.253 . S
H708 C704 0.931 . S
H709 C705 0.930 . S
O710 Co699 2.039 . S
O710 C700 1.265 . S
C711 O707 1.253 . S
C711 O712 1.227 . S
O712 C711 1.227 . S
N713 Co699 2.140 . S
N713 C716 1.346 . S
N713 C717 1.345 . S
C714 C715 1.387 1_554 S
C714 C718 1.391 . S
C715 C714 1.387 1_556 S
C715 C716 1.369 . S
C715 H724 0.937 . S
C716 N713 1.346 . S
C716 C715 1.369 . S
C716 H719 0.928 . S
C717 N713 1.345 . S
C717 C718 1.371 1_556 S
C717 H720 0.931 . S
C718 C714 1.391 . S
C718 C717 1.371 1_554 S
C718 H725 0.930 . S
H719 C716 0.928 . S
H720 C717 0.931 . S
H721 C697 0.930 . S
H722 C694 0.930 . S
H723 C703 0.930 . S
H724 C715 0.937 . S
H725 C718 0.930 . S
C726 C727 1.351 . S
C726 N729 1.368 . S
C726 H731 0.931 . S
C727 C726 1.351 . S
C727 N728 1.373 . S
C727 H755 0.930 . S
N728 C727 1.373 . S
N728 C730 1.340 . S
N729 C726 1.368 . S
N729 C730 1.321 . S
N729 Co732 2.135 . S
C730 N728 1.340 . S
C730 N729 1.321 . S
C730 H754 0.930 . S
H731 C726 0.931 . S
Co732 N729 2.135 . S
Co732 N735 2.121 . S
Co732 O740 2.055 . S
Co732 O743 2.039 . S
Co732 N746 2.140 . S
C733 O734 1.227 . S
C733 O743 1.265 . S
O734 C733 1.227 . S
N735 Co732 2.121 . S
N735 C737 1.375 . S
N735 C738 1.313 . S
C736 C737 1.338 . S
C736 N739 1.377 . S
C736 H756 0.930 . S
C737 N735 1.375 . S
C737 C736 1.338 . S
C737 H741 0.931 . S
C738 N735 1.313 . S
C738 N739 1.344 . S
C738 H742 0.930 . S
N739 C736 1.377 . S
N739 C738 1.344 . S
O740 Co732 2.055 . S
O740 C744 1.253 . S
H741 C737 0.931 . S
H742 C738 0.930 . S
O743 Co732 2.039 . S
O743 C733 1.265 . S
C744 O740 1.253 . S
C744 O745 1.227 . S
O745 C744 1.227 . S
N746 Co732 2.140 . S
N746 C749 1.346 . S
N746 C750 1.345 . S
C747 C748 1.387 1_554 S
C747 C751 1.391 . S
C748 C747 1.387 1_556 S
C748 C749 1.369 . S
C748 H757 0.936 . S
C749 N746 1.346 . S
C749 C748 1.369 . S
C749 H752 0.928 . S
C750 N746 1.345 . S
C750 C751 1.371 1_556 S
C750 H753 0.931 . S
C751 C747 1.391 . S
C751 C750 1.371 1_554 S
C751 H758 0.930 . S
H752 C749 0.928 . S
H753 C750 0.931 . S
H754 C730 0.930 . S
H755 C727 0.930 . S
H756 C736 0.930 . S
H757 C748 0.936 . S
H758 C751 0.930 . S
C759 C760 1.351 . S
C759 N762 1.368 . S
C759 H764 0.931 . S
C760 C759 1.351 . S
C760 N761 1.373 . S
C760 H788 0.930 . S
N761 C760 1.373 . S
N761 C763 1.340 . S
N762 C759 1.368 . S
N762 C763 1.321 . S
N762 Co765 2.135 . S
C763 N761 1.340 . S
C763 N762 1.321 . S
C763 H787 0.930 . S
H764 C759 0.931 . S
Co765 N762 2.135 . S
Co765 N768 2.121 . S
Co765 O773 2.055 . S
Co765 O776 2.039 . S
Co765 N779 2.140 . S
C766 O767 1.227 . S
C766 O776 1.265 . S
O767 C766 1.227 . S
N768 Co765 2.121 . S
N768 C770 1.375 . S
N768 C771 1.313 . S
C769 C770 1.338 . S
C769 N772 1.377 . S
C769 H789 0.930 . S
C770 N768 1.375 . S
C770 C769 1.338 . S
C770 H774 0.931 . S
C771 N768 1.313 . S
C771 N772 1.344 . S
C771 H775 0.930 . S
N772 C769 1.377 . S
N772 C771 1.344 . S
O773 Co765 2.055 . S
O773 C777 1.253 . S
H774 C770 0.931 . S
H775 C771 0.930 . S
O776 Co765 2.039 . S
O776 C766 1.265 . S
C777 O773 1.253 . S
C777 O778 1.227 . S
O778 C777 1.227 . S
N779 Co765 2.140 . S
N779 C782 1.346 . S
N779 C783 1.345 . S
C780 C781 1.387 1_554 S
C780 C784 1.391 . S
C781 C780 1.387 1_556 S
C781 C782 1.369 . S
C781 H790 0.937 . S
C782 N779 1.346 . S
C782 C781 1.369 . S
C782 H785 0.928 . S
C783 N779 1.345 . S
C783 C784 1.371 1_556 S
C783 H786 0.931 . S
C784 C780 1.391 . S
C784 C783 1.371 1_554 S
C784 H791 0.930 . S
H785 C782 0.928 . S
H786 C783 0.931 . S
H787 C763 0.930 . S
H788 C760 0.930 . S
H789 C769 0.930 . S
H790 C781 0.937 . S
H791 C784 0.930 . S
C792 C793 1.351 . S
C792 N795 1.368 . S
C792 H797 0.931 . S
C793 C792 1.351 . S
C793 N794 1.373 . S
C793 H821 0.930 . S
N794 C793 1.373 . S
N794 C796 1.340 . S
N795 C792 1.368 . S
N795 C796 1.321 . S
N795 Co798 2.135 . S
C796 N794 1.340 . S
C796 N795 1.321 . S
C796 H820 0.930 . S
H797 C792 0.931 . S
Co798 N795 2.135 . S
Co798 N801 2.121 . S
Co798 O806 2.055 . S
Co798 O809 2.039 . S
Co798 N812 2.140 . S
C799 O800 1.227 . S
C799 O809 1.265 . S
O800 C799 1.227 . S
N801 Co798 2.121 . S
N801 C803 1.375 . S
N801 C804 1.313 . S
C802 C803 1.338 . S
C802 N805 1.377 . S
C802 H822 0.930 . S
C803 N801 1.375 . S
C803 C802 1.338 . S
C803 H807 0.931 . S
C804 N801 1.313 . S
C804 N805 1.344 . S
C804 H808 0.930 . S
N805 C802 1.377 . S
N805 C804 1.344 . S
O806 Co798 2.055 . S
O806 C810 1.253 . S
H807 C803 0.931 . S
H808 C804 0.930 . S
O809 Co798 2.039 . S
O809 C799 1.265 . S
C810 O806 1.253 . S
C810 O811 1.227 . S
O811 C810 1.227 . S
N812 Co798 2.140 . S
N812 C815 1.346 . S
N812 C816 1.345 . S
C813 C814 1.387 . S
C813 C817 1.391 . S
C814 C813 1.387 . S
C814 C815 1.369 . S
C814 H823 0.929 . S
C815 N812 1.346 . S
C815 C814 1.369 . S
C815 H818 0.928 . S
C816 N812 1.345 . S
C816 C817 1.371 . S
C816 H819 0.931 . S
C817 C813 1.391 . S
C817 C816 1.371 . S
C817 H824 0.930 . S
H818 C815 0.928 . S
H819 C816 0.931 . S
H820 C796 0.930 . S
H821 C793 0.930 . S
H822 C802 0.930 . S
H823 C814 0.929 . S
H824 C817 0.930 . S
C825 C826 1.351 . S
C825 N828 1.368 . S
C825 H830 0.931 . S
C826 C825 1.351 . S
C826 N827 1.373 . S
C826 H854 0.930 . S
N827 C826 1.373 . S
N827 C829 1.340 . S
N828 C825 1.368 . S
N828 C829 1.321 . S
N828 Co831 2.135 . S
C829 N827 1.340 . S
C829 N828 1.321 . S
C829 H853 0.930 . S
H830 C825 0.931 . S
Co831 N828 2.135 . S
Co831 N834 2.121 . S
Co831 O839 2.055 . S
Co831 O842 2.039 . S
Co831 N845 2.140 . S
C832 O833 1.227 . S
C832 O842 1.265 . S
O833 C832 1.227 . S
N834 Co831 2.121 . S
N834 C836 1.375 . S
N834 C837 1.313 . S
C835 C836 1.338 . S
C835 N838 1.377 . S
C835 H855 0.930 . S
C836 N834 1.375 . S
C836 C835 1.338 . S
C836 H840 0.931 . S
C837 N834 1.313 . S
C837 N838 1.344 . S
C837 H841 0.930 . S
N838 C835 1.377 . S
N838 C837 1.344 . S
O839 Co831 2.055 . S
O839 C843 1.253 . S
H840 C836 0.931 . S
H841 C837 0.930 . S
O842 Co831 2.039 . S
O842 C832 1.265 . S
C843 O839 1.253 . S
C843 O844 1.227 . S
O844 C843 1.227 . S
N845 Co831 2.140 . S
N845 C848 1.346 . S
N845 C849 1.345 . S
C846 C847 1.387 . S
C846 C850 1.391 . S
C847 C846 1.387 . S
C847 C848 1.369 . S
C847 H856 0.929 . S
C848 N845 1.346 . S
C848 C847 1.369 . S
C848 H851 0.928 . S
C849 N845 1.345 . S
C849 C850 1.371 . S
C849 H852 0.931 . S
C850 C846 1.391 . S
C850 C849 1.371 . S
C850 H857 0.930 . S
H851 C848 0.928 . S
H852 C849 0.931 . S
H853 C829 0.930 . S
H854 C826 0.930 . S
H855 C835 0.930 . S
H856 C847 0.929 . S
H857 C850 0.930 . S
C858 C859 1.351 . S
C858 N861 1.368 . S
C858 H863 0.931 . S
C859 C858 1.351 . S
C859 N860 1.373 . S
C859 H887 0.930 . S
N860 C859 1.373 . S
N860 C862 1.340 . S
N861 C858 1.368 . S
N861 C862 1.321 . S
N861 Co864 2.135 . S
C862 N860 1.340 . S
C862 N861 1.321 . S
C862 H886 0.930 . S
H863 C858 0.931 . S
Co864 N861 2.135 . S
Co864 N867 2.121 . S
Co864 O872 2.055 . S
Co864 O875 2.039 . S
Co864 N878 2.140 . S
C865 O866 1.227 . S
C865 O875 1.265 . S
O866 C865 1.227 . S
N867 Co864 2.121 . S
N867 C869 1.375 . S
N867 C870 1.313 . S
C868 C869 1.338 . S
C868 N871 1.377 . S
C868 H888 0.930 . S
C869 N867 1.375 . S
C869 C868 1.338 . S
C869 H873 0.931 . S
C870 N867 1.313 . S
C870 N871 1.344 . S
C870 H874 0.930 . S
N871 C868 1.377 . S
N871 C870 1.344 . S
O872 Co864 2.055 . S
O872 C876 1.253 . S
H873 C869 0.931 . S
H874 C870 0.930 . S
O875 Co864 2.039 . S
O875 C865 1.265 . S
C876 O872 1.253 . S
C876 O877 1.227 . S
O877 C876 1.227 . S
N878 Co864 2.140 . S
N878 C881 1.346 . S
N878 C882 1.345 . S
C879 C880 1.387 . S
C879 C883 1.391 . S
C880 C879 1.387 . S
C880 C881 1.369 . S
C880 H889 0.929 . S
C881 N878 1.346 . S
C881 C880 1.369 . S
C881 H884 0.928 . S
C882 N878 1.345 . S
C882 C883 1.371 . S
C882 H885 0.931 . S
C883 C879 1.391 . S
C883 C882 1.371 . S
C883 H890 0.930 . S
H884 C881 0.928 . S
H885 C882 0.931 . S
H886 C862 0.930 . S
H887 C859 0.930 . S
H888 C868 0.930 . S
H889 C880 0.929 . S
H890 C883 0.930 . S
C891 C892 1.351 . S
C891 N894 1.368 . S
C891 H896 0.931 . S
C892 C891 1.351 . S
C892 N893 1.373 . S
C892 H920 0.930 . S
N893 C892 1.373 . S
N893 C895 1.340 . S
N894 C891 1.368 . S
N894 C895 1.321 . S
N894 Co897 2.135 . S
C895 N893 1.340 . S
C895 N894 1.321 . S
C895 H919 0.930 . S
H896 C891 0.931 . S
Co897 N894 2.135 . S
Co897 N900 2.121 . S
Co897 O905 2.055 . S
Co897 O908 2.039 . S
Co897 N911 2.140 . S
C898 O899 1.227 . S
C898 O908 1.265 . S
O899 C898 1.227 . S
N900 Co897 2.121 . S
N900 C902 1.375 . S
N900 C903 1.313 . S
C901 C902 1.338 . S
C901 N904 1.377 . S
C901 H921 0.930 . S
C902 N900 1.375 . S
C902 C901 1.338 . S
C902 H906 0.931 . S
C903 N900 1.313 . S
C903 N904 1.344 . S
C903 H907 0.930 . S
N904 C901 1.377 . S
N904 C903 1.344 . S
O905 Co897 2.055 . S
O905 C909 1.253 . S
H906 C902 0.931 . S
H907 C903 0.930 . S
O908 Co897 2.039 . S
O908 C898 1.265 . S
C909 O905 1.253 . S
C909 O910 1.227 . S
O910 C909 1.227 . S
N911 Co897 2.140 . S
N911 C914 1.346 . S
N911 C915 1.345 . S
C912 C913 1.387 1_556 S
C912 C916 1.391 . S
C913 C912 1.387 1_554 S
C913 C914 1.369 . S
C913 H922 0.937 . S
C914 N911 1.346 . S
C914 C913 1.369 . S
C914 H917 0.928 . S
C915 N911 1.345 . S
C915 C916 1.371 1_554 S
C915 H918 0.931 . S
C916 C912 1.391 . S
C916 C915 1.371 1_556 S
C916 H923 0.930 . S
H917 C914 0.928 . S
H918 C915 0.931 . S
H919 C895 0.930 . S
H920 C892 0.930 . S
H921 C901 0.930 . S
H922 C913 0.937 . S
H923 C916 0.930 . S
C924 C925 1.351 . S
C924 N927 1.368 . S
C924 H929 0.931 . S
C925 C924 1.351 . S
C925 N926 1.373 . S
C925 H953 0.930 . S
N926 C925 1.373 . S
N926 C928 1.340 . S
N927 C924 1.368 . S
N927 C928 1.321 . S
N927 Co930 2.135 . S
C928 N926 1.340 . S
C928 N927 1.321 . S
C928 H952 0.930 . S
H929 C924 0.931 . S
Co930 N927 2.135 . S
Co930 N933 2.121 . S
Co930 O938 2.055 . S
Co930 O941 2.039 . S
Co930 N944 2.140 . S
C931 O932 1.227 . S
C931 O941 1.265 . S
O932 C931 1.227 . S
N933 Co930 2.121 . S
N933 C935 1.375 . S
N933 C936 1.313 . S
C934 C935 1.338 . S
C934 N937 1.377 . S
C934 H954 0.930 . S
C935 N933 1.375 . S
C935 C934 1.338 . S
C935 H939 0.931 . S
C936 N933 1.313 . S
C936 N937 1.344 . S
C936 H940 0.930 . S
N937 C934 1.377 . S
N937 C936 1.344 . S
O938 Co930 2.055 . S
O938 C942 1.253 . S
H939 C935 0.931 . S
H940 C936 0.930 . S
O941 Co930 2.039 . S
O941 C931 1.265 . S
C942 O938 1.253 . S
C942 O943 1.227 . S
O943 C942 1.227 . S
N944 Co930 2.140 . S
N944 C947 1.346 . S
N944 C948 1.345 . S
C945 C946 1.387 1_556 S
C945 C949 1.391 . S
C946 C945 1.387 1_554 S
C946 C947 1.369 . S
C946 H955 0.936 . S
C947 N944 1.346 . S
C947 C946 1.369 . S
C947 H950 0.928 . S
C948 N944 1.345 . S
C948 C949 1.371 1_554 S
C948 H951 0.931 . S
C949 C945 1.391 . S
C949 C948 1.371 1_556 S
C949 H956 0.930 . S
H950 C947 0.928 . S
H951 C948 0.931 . S
H952 C928 0.930 . S
H953 C925 0.930 . S
H954 C934 0.930 . S
H955 C946 0.936 . S
H956 C949 0.930 . S
C957 C958 1.351 . S
C957 N960 1.368 . S
C957 H962 0.931 . S
C958 C957 1.351 . S
C958 N959 1.373 . S
C958 H986 0.930 . S
N959 C958 1.373 . S
N959 C961 1.340 . S
N960 C957 1.368 . S
N960 C961 1.321 . S
N960 Co963 2.135 . S
C961 N959 1.340 . S
C961 N960 1.321 . S
C961 H985 0.930 . S
H962 C957 0.931 . S
Co963 N960 2.135 . S
Co963 N966 2.121 . S
Co963 O971 2.055 . S
Co963 O974 2.039 . S
Co963 N977 2.140 . S
C964 O965 1.227 . S
C964 O974 1.265 . S
O965 C964 1.227 . S
N966 Co963 2.121 . S
N966 C968 1.375 . S
N966 C969 1.313 . S
C967 C968 1.338 . S
C967 N970 1.377 . S
C967 H987 0.930 . S
C968 N966 1.375 . S
C968 C967 1.338 . S
C968 H972 0.931 . S
C969 N966 1.313 . S
C969 N970 1.344 . S
C969 H973 0.930 . S
N970 C967 1.377 . S
N970 C969 1.344 . S
O971 Co963 2.055 . S
O971 C975 1.253 . S
H972 C968 0.931 . S
H973 C969 0.930 . S
O974 Co963 2.039 . S
O974 C964 1.265 . S
C975 O971 1.253 . S
C975 O976 1.227 . S
O976 C975 1.227 . S
N977 Co963 2.140 . S
N977 C980 1.346 . S
N977 C981 1.345 . S
C978 C979 1.387 1_556 S
C978 C982 1.391 . S
C979 C978 1.387 1_554 S
C979 C980 1.369 . S
C979 H988 0.937 . S
C980 N977 1.346 . S
C980 C979 1.369 . S
C980 H983 0.928 . S
C981 N977 1.345 . S
C981 C982 1.371 1_554 S
C981 H984 0.931 . S
C982 C978 1.391 . S
C982 C981 1.371 1_556 S
C982 H989 0.930 . S
H983 C980 0.928 . S
H984 C981 0.931 . S
H985 C961 0.930 . S
H986 C958 0.930 . S
H987 C967 0.930 . S
H988 C979 0.937 . S
H989 C982 0.930 . S
C990 C991 1.351 . S
C990 N993 1.368 . S
C990 H995 0.931 . S
C991 C990 1.351 . S
C991 N992 1.373 . S
C991 H1019 0.930 . S
N992 C991 1.373 . S
N992 C994 1.340 . S
N993 C990 1.368 . S
N993 C994 1.321 . S
N993 Co996 2.135 . S
C994 N992 1.340 . S
C994 N993 1.321 . S
C994 H1018 0.930 . S
H995 C990 0.931 . S
Co996 N993 2.135 . S
Co996 N999 2.121 . S
Co996 O1004 2.055 . S
Co996 O1007 2.039 . S
Co996 N1010 2.140 . S
C997 O998 1.227 . S
C997 O1007 1.265 . S
O998 C997 1.227 . S
N999 Co996 2.121 . S
N999 C1001 1.375 . S
N999 C1002 1.313 . S
C1000 C1001 1.338 . S
C1000 N1003 1.377 . S
C1000 H1020 0.930 . S
C1001 N999 1.375 . S
C1001 C1000 1.338 . S
C1001 H1005 0.931 . S
C1002 N999 1.313 . S
C1002 N1003 1.344 . S
C1002 H1006 0.930 . S
N1003 C1000 1.377 . S
N1003 C1002 1.344 . S
O1004 Co996 2.055 . S
O1004 C1008 1.253 . S
H1005 C1001 0.931 . S
H1006 C1002 0.930 . S
O1007 Co996 2.039 . S
O1007 C997 1.265 . S
C1008 O1004 1.253 . S
C1008 O1009 1.227 . S
O1009 C1008 1.227 . S
N1010 Co996 2.140 . S
N1010 C1013 1.346 . S
N1010 C1014 1.345 . S
C1011 C1012 1.387 . S
C1011 C1015 1.391 . S
C1012 C1011 1.387 . S
C1012 C1013 1.369 . S
C1012 H1021 0.929 . S
C1013 N1010 1.346 . S
C1013 C1012 1.369 . S
C1013 H1016 0.928 . S
C1014 N1010 1.345 . S
C1014 C1015 1.371 . S
C1014 H1017 0.931 . S
C1015 C1011 1.391 . S
C1015 C1014 1.371 . S
C1015 H1022 0.930 . S
H1016 C1013 0.928 . S
H1017 C1014 0.931 . S
H1018 C994 0.930 . S
H1019 C991 0.930 . S
H1020 C1000 0.930 . S
H1021 C1012 0.929 . S
H1022 C1015 0.930 . S
C1023 C1024 1.351 . S
C1023 N1026 1.368 . S
C1023 H1028 0.931 . S
C1024 C1023 1.351 . S
C1024 N1025 1.373 . S
C1024 H1052 0.930 . S
N1025 C1024 1.373 . S
N1025 C1027 1.340 . S
N1026 C1023 1.368 . S
N1026 C1027 1.321 . S
N1026 Co1029 2.135 . S
C1027 N1025 1.340 . S
C1027 N1026 1.321 . S
C1027 H1051 0.930 . S
H1028 C1023 0.931 . S
Co1029 N1026 2.135 . S
Co1029 N1032 2.121 . S
Co1029 O1037 2.055 . S
Co1029 O1040 2.039 . S
Co1029 N1043 2.140 . S
C1030 O1031 1.227 . S
C1030 O1040 1.265 . S
O1031 C1030 1.227 . S
N1032 Co1029 2.121 . S
N1032 C1034 1.375 . S
N1032 C1035 1.313 . S
C1033 C1034 1.338 . S
C1033 N1036 1.377 . S
C1033 H1053 0.930 . S
C1034 N1032 1.375 . S
C1034 C1033 1.338 . S
C1034 H1038 0.931 . S
C1035 N1032 1.313 . S
C1035 N1036 1.344 . S
C1035 H1039 0.930 . S
N1036 C1033 1.377 . S
N1036 C1035 1.344 . S
O1037 Co1029 2.055 . S
O1037 C1041 1.253 . S
H1038 C1034 0.931 . S
H1039 C1035 0.930 . S
O1040 Co1029 2.039 . S
O1040 C1030 1.265 . S
C1041 O1037 1.253 . S
C1041 O1042 1.227 . S
O1042 C1041 1.227 . S
N1043 Co1029 2.140 . S
N1043 C1046 1.346 . S
N1043 C1047 1.345 . S
C1044 C1045 1.387 . S
C1044 C1048 1.391 . S
C1045 C1044 1.387 . S
C1045 C1046 1.369 . S
C1045 H1054 0.929 . S
C1046 N1043 1.346 . S
C1046 C1045 1.369 . S
C1046 H1049 0.928 . S
C1047 N1043 1.345 . S
C1047 C1048 1.371 . S
C1047 H1050 0.931 . S
C1048 C1044 1.391 . S
C1048 C1047 1.371 . S
C1048 H1055 0.930 . S
H1049 C1046 0.928 . S
H1050 C1047 0.931 . S
H1051 C1027 0.930 . S
H1052 C1024 0.930 . S
H1053 C1033 0.930 . S
H1054 C1045 0.929 . S
H1055 C1048 0.930 . S
C1056 C1057 1.351 . S
C1056 N1059 1.368 . S
C1056 H1061 0.931 . S
C1057 C1056 1.351 . S
C1057 N1058 1.373 . S
C1057 H1085 0.930 . S
N1058 C1057 1.373 . S
N1058 C1060 1.340 . S
N1059 C1056 1.368 . S
N1059 C1060 1.321 . S
N1059 Co1062 2.135 . S
C1060 N1058 1.340 . S
C1060 N1059 1.321 . S
C1060 H1084 0.930 . S
H1061 C1056 0.931 . S
Co1062 N1059 2.135 . S
Co1062 N1065 2.121 . S
Co1062 O1070 2.055 . S
Co1062 O1073 2.039 . S
Co1062 N1076 2.140 . S
C1063 O1064 1.227 . S
C1063 O1073 1.265 . S
O1064 C1063 1.227 . S
N1065 Co1062 2.121 . S
N1065 C1067 1.375 . S
N1065 C1068 1.313 . S
C1066 C1067 1.338 . S
C1066 N1069 1.377 . S
C1066 H1086 0.930 . S
C1067 N1065 1.375 . S
C1067 C1066 1.338 . S
C1067 H1071 0.931 . S
C1068 N1065 1.313 . S
C1068 N1069 1.344 . S
C1068 H1072 0.930 . S
N1069 C1066 1.377 . S
N1069 C1068 1.344 . S
O1070 Co1062 2.055 . S
O1070 C1074 1.253 . S
H1071 C1067 0.931 . S
H1072 C1068 0.930 . S
O1073 Co1062 2.039 . S
O1073 C1063 1.265 . S
C1074 O1070 1.253 . S
C1074 O1075 1.227 . S
O1075 C1074 1.227 . S
N1076 Co1062 2.140 . S
N1076 C1079 1.346 . S
N1076 C1080 1.345 . S
C1077 C1078 1.387 . S
C1077 C1081 1.391 . S
C1078 C1077 1.387 . S
C1078 C1079 1.369 . S
C1078 H1087 0.929 . S
C1079 N1076 1.346 . S
C1079 C1078 1.369 . S
C1079 H1082 0.928 . S
C1080 N1076 1.345 . S
C1080 C1081 1.371 . S
C1080 H1083 0.931 . S
C1081 C1077 1.391 . S
C1081 C1080 1.371 . S
C1081 H1088 0.930 . S
H1082 C1079 0.928 . S
H1083 C1080 0.931 . S
H1084 C1060 0.930 . S
H1085 C1057 0.930 . S
H1086 C1066 0.930 . S
H1087 C1078 0.929 . S
H1088 C1081 0.930 . S
C1089 C1090 1.351 . S
C1089 N1092 1.368 . S
C1089 H1094 0.931 . S
C1090 C1089 1.351 . S
C1090 N1091 1.373 . S
C1090 H1118 0.930 . S
N1091 C1090 1.373 . S
N1091 C1093 1.340 . S
N1092 C1089 1.368 . S
N1092 C1093 1.321 . S
N1092 Co1095 2.135 . S
C1093 N1091 1.340 . S
C1093 N1092 1.321 . S
C1093 H1117 0.930 . S
H1094 C1089 0.931 . S
Co1095 N1092 2.135 . S
Co1095 N1098 2.121 . S
Co1095 O1103 2.055 . S
Co1095 O1106 2.039 . S
Co1095 N1109 2.140 . S
C1096 O1097 1.227 . S
C1096 O1106 1.265 . S
O1097 C1096 1.227 . S
N1098 Co1095 2.121 . S
N1098 C1100 1.375 . S
N1098 C1101 1.313 . S
C1099 C1100 1.338 . S
C1099 N1102 1.377 . S
C1099 H1119 0.930 . S
C1100 N1098 1.375 . S
C1100 C1099 1.338 . S
C1100 H1104 0.931 . S
C1101 N1098 1.313 . S
C1101 N1102 1.344 . S
C1101 H1105 0.930 . S
N1102 C1099 1.377 . S
N1102 C1101 1.344 . S
O1103 Co1095 2.055 . S
O1103 C1107 1.253 . S
H1104 C1100 0.931 . S
H1105 C1101 0.930 . S
O1106 Co1095 2.039 . S
O1106 C1096 1.265 . S
C1107 O1103 1.253 . S
C1107 O1108 1.227 . S
O1108 C1107 1.227 . S
N1109 Co1095 2.140 . S
N1109 C1112 1.346 . S
N1109 C1113 1.345 . S
C1110 C1111 1.387 . S
C1110 C1114 1.391 . S
C1111 C1110 1.387 . S
C1111 C1112 1.369 . S
C1111 H1120 0.929 . S
C1112 N1109 1.346 . S
C1112 C1111 1.369 . S
C1112 H1115 0.928 . S
C1113 N1109 1.345 . S
C1113 C1114 1.371 . S
C1113 H1116 0.931 . S
C1114 C1110 1.391 . S
C1114 C1113 1.371 . S
C1114 H1121 0.930 . S
H1115 C1112 0.928 . S
H1116 C1113 0.931 . S
H1117 C1093 0.930 . S
H1118 C1090 0.930 . S
H1119 C1099 0.930 . S
H1120 C1111 0.929 . S
H1121 C1114 0.930 . S
C1122 C1123 1.351 . S
C1122 N1125 1.368 . S
C1122 H1127 0.931 . S
C1123 C1122 1.351 . S
C1123 N1124 1.373 . S
C1123 H1151 0.930 . S
N1124 C1123 1.373 . S
N1124 C1126 1.340 . S
N1125 C1122 1.368 . S
N1125 C1126 1.321 . S
N1125 Co1128 2.135 . S
C1126 N1124 1.340 . S
C1126 N1125 1.321 . S
C1126 H1150 0.930 . S
H1127 C1122 0.931 . S
Co1128 N1125 2.135 . S
Co1128 N1131 2.121 . S
Co1128 O1136 2.055 . S
Co1128 O1139 2.039 . S
Co1128 N1142 2.140 . S
C1129 O1130 1.227 . S
C1129 O1139 1.265 . S
O1130 C1129 1.227 . S
N1131 Co1128 2.121 . S
N1131 C1133 1.375 . S
N1131 C1134 1.313 . S
C1132 C1133 1.338 . S
C1132 N1135 1.377 . S
C1132 H1152 0.930 . S
C1133 N1131 1.375 . S
C1133 C1132 1.338 . S
C1133 H1137 0.931 . S
C1134 N1131 1.313 . S
C1134 N1135 1.344 . S
C1134 H1138 0.930 . S
N1135 C1132 1.377 . S
N1135 C1134 1.344 . S
O1136 Co1128 2.055 . S
O1136 C1140 1.253 . S
H1137 C1133 0.931 . S
H1138 C1134 0.930 . S
O1139 Co1128 2.039 . S
O1139 C1129 1.265 . S
C1140 O1136 1.253 . S
C1140 O1141 1.227 . S
O1141 C1140 1.227 . S
N1142 Co1128 2.140 . S
N1142 C1145 1.346 . S
N1142 C1146 1.345 . S
C1143 C1144 1.387 . S
C1143 C1147 1.391 . S
C1144 C1143 1.387 . S
C1144 C1145 1.369 . S
C1144 H1153 0.929 . S
C1145 N1142 1.346 . S
C1145 C1144 1.369 . S
C1145 H1148 0.928 . S
C1146 N1142 1.345 . S
C1146 C1147 1.371 . S
C1146 H1149 0.931 . S
C1147 C1143 1.391 . S
C1147 C1146 1.371 . S
C1147 H1154 0.930 . S
H1148 C1145 0.928 . S
H1149 C1146 0.931 . S
H1150 C1126 0.930 . S
H1151 C1123 0.930 . S
H1152 C1132 0.930 . S
H1153 C1144 0.929 . S
H1154 C1147 0.930 . S
C1155 C1156 1.351 . S
C1155 N1158 1.368 . S
C1155 H1160 0.931 . S
C1156 C1155 1.351 . S
C1156 N1157 1.373 . S
C1156 H1184 0.930 . S
N1157 C1156 1.373 . S
N1157 C1159 1.340 . S
N1158 C1155 1.368 . S
N1158 C1159 1.321 . S
N1158 Co1161 2.135 . S
C1159 N1157 1.340 . S
C1159 N1158 1.321 . S
C1159 H1183 0.930 . S
H1160 C1155 0.931 . S
Co1161 N1158 2.135 . S
Co1161 N1164 2.121 . S
Co1161 O1169 2.055 . S
Co1161 O1172 2.039 . S
Co1161 N1175 2.140 . S
C1162 O1163 1.227 . S
C1162 O1172 1.265 . S
O1163 C1162 1.227 . S
N1164 Co1161 2.121 . S
N1164 C1166 1.375 . S
N1164 C1167 1.313 . S
C1165 C1166 1.338 . S
C1165 N1168 1.377 . S
C1165 H1185 0.930 . S
C1166 N1164 1.375 . S
C1166 C1165 1.338 . S
C1166 H1170 0.931 . S
C1167 N1164 1.313 . S
C1167 N1168 1.344 . S
C1167 H1171 0.930 . S
N1168 C1165 1.377 . S
N1168 C1167 1.344 . S
O1169 Co1161 2.055 . S
O1169 C1173 1.253 . S
H1170 C1166 0.931 . S
H1171 C1167 0.930 . S
O1172 Co1161 2.039 . S
O1172 C1162 1.265 . S
C1173 O1169 1.253 . S
C1173 O1174 1.227 . S
O1174 C1173 1.227 . S
N1175 Co1161 2.140 . S
N1175 C1178 1.346 . S
N1175 C1179 1.345 . S
C1176 C1177 1.387 . S
C1176 C1180 1.391 . S
C1177 C1176 1.387 . S
C1177 C1178 1.369 . S
C1177 H1186 0.929 . S
C1178 N1175 1.346 . S
C1178 C1177 1.369 . S
C1178 H1181 0.928 . S
C1179 N1175 1.345 . S
C1179 C1180 1.371 . S
C1179 H1182 0.931 . S
C1180 C1176 1.391 . S
C1180 C1179 1.371 . S
C1180 H1187 0.930 . S
H1181 C1178 0.928 . S
H1182 C1179 0.931 . S
H1183 C1159 0.930 . S
H1184 C1156 0.930 . S
H1185 C1165 0.930 . S
H1186 C1177 0.929 . S
H1187 C1180 0.930 . S
H1188 C1194 0.930 . S
H1189 C1197 0.930 . S
H1190 C1198 0.930 . S
H1191 C1199 0.930 . S
H1192 C1202 0.930 . S
H1193 C1203 0.930 . S
C1194 H1188 0.930 . S
C1194 C1195 1.355 . S
C1194 C1196 1.415 . S
C1195 C1194 1.355 . S
C1195 C1197 1.419 . S
C1196 C1194 1.415 . S
C1196 C1201 1.425 . S
C1196 C1203 1.409 . S
C1197 H1189 0.930 . S
C1197 C1195 1.419 . S
C1197 C1198 1.362 . S
C1198 H1190 0.930 . S
C1198 C1197 1.362 . S
C1198 C1201 1.409 . S
C1199 H1191 0.930 . S
C1199 C1200 1.355 . S
C1199 C1201 1.415 . S
C1200 C1199 1.355 . S
C1200 C1202 1.419 . S
C1201 C1196 1.425 . S
C1201 C1198 1.409 . S
C1201 C1199 1.415 . S
C1202 H1192 0.930 . S
C1202 C1200 1.419 . S
C1202 C1203 1.362 . S
C1203 H1193 0.930 . S
C1203 C1196 1.409 . S
C1203 C1202 1.362 . S
H1204 C1210 0.930 . S
H1205 C1213 0.930 . S
H1206 C1214 0.930 . S
H1207 C1215 0.930 . S
H1208 C1218 0.930 . S
H1209 C1219 0.930 . S
C1210 H1204 0.930 . S
C1210 C1211 1.355 1_565 S
C1210 C1212 1.415 . S
C1211 C1210 1.355 1_545 S
C1211 C1213 1.419 . S
C1212 C1210 1.415 . S
C1212 C1217 1.425 1_565 S
C1212 C1219 1.409 . S
C1213 H1205 0.930 . S
C1213 C1211 1.419 . S
C1213 C1214 1.362 . S
C1214 H1206 0.930 . S
C1214 C1213 1.362 . S
C1214 C1217 1.409 . S
C1215 H1207 0.930 . S
C1215 C1216 1.355 1_545 S
C1215 C1217 1.415 . S
C1216 C1215 1.355 1_565 S
C1216 C1218 1.419 . S
C1217 C1212 1.425 1_545 S
C1217 C1214 1.409 . S
C1217 C1215 1.415 . S
C1218 H1208 0.930 . S
C1218 C1216 1.419 . S
C1218 C1219 1.362 . S
C1219 H1209 0.930 . S
C1219 C1212 1.409 . S
C1219 C1218 1.362 . S
H1220 C1226 0.930 . S
H1221 C1229 0.930 . S
H1222 C1230 0.930 . S
H1223 C1231 0.930 . S
H1224 C1234 0.930 . S
H1225 C1235 0.930 . S
C1226 H1220 0.930 . S
C1226 C1227 1.359 . S
C1226 C1228 1.415 . S
C1227 C1226 1.359 . S
C1227 C1229 1.412 1_455 S
C1228 C1226 1.415 . S
C1228 C1233 1.425 1_455 S
C1228 C1235 1.409 . S
C1229 H1221 0.930 . S
C1229 C1227 1.412 1_655 S
C1229 C1230 1.362 . S
C1230 H1222 0.930 . S
C1230 C1229 1.362 . S
C1230 C1233 1.409 . S
C1231 H1223 0.930 . S
C1231 C1232 1.359 . S
C1231 C1233 1.415 . S
C1232 C1231 1.359 . S
C1232 C1234 1.412 1_655 S
C1233 C1228 1.425 1_655 S
C1233 C1230 1.409 . S
C1233 C1231 1.415 . S
C1234 H1224 0.930 . S
C1234 C1232 1.412 1_455 S
C1234 C1235 1.362 . S
C1235 H1225 0.930 . S
C1235 C1228 1.409 . S
C1235 C1234 1.362 . S
H1236 C1242 0.930 . S
H1237 C1245 0.930 . S
H1238 C1246 0.930 . S
H1239 C1247 0.930 . S
H1240 C1250 0.930 . S
H1241 C1251 0.930 . S
C1242 H1236 0.930 . S
C1242 C1243 1.355 . S
C1242 C1244 1.415 . S
C1243 C1242 1.355 . S
C1243 C1245 1.419 . S
C1244 C1242 1.415 . S
C1244 C1249 1.425 . S
C1244 C1251 1.409 . S
C1245 H1237 0.930 . S
C1245 C1243 1.419 . S
C1245 C1246 1.362 . S
C1246 H1238 0.930 . S
C1246 C1245 1.362 . S
C1246 C1249 1.409 . S
C1247 H1239 0.930 . S
C1247 C1248 1.355 . S
C1247 C1249 1.415 . S
C1248 C1247 1.355 . S
C1248 C1250 1.419 . S
C1249 C1244 1.425 . S
C1249 C1246 1.409 . S
C1249 C1247 1.415 . S
C1250 H1240 0.930 . S
C1250 C1248 1.419 . S
C1250 C1251 1.362 . S
C1251 H1241 0.930 . S
C1251 C1244 1.409 . S
C1251 C1250 1.362 . S
H1252 C1258 0.930 . S
H1253 C1261 0.930 . S
H1254 C1262 0.930 . S
H1255 C1263 0.930 . S
H1256 C1266 0.930 . S
H1257 C1267 0.930 . S
C1258 H1252 0.930 . S
C1258 C1259 1.389 . S
C1258 C1260 1.415 . S
C1259 C1258 1.389 . S
C1259 C1261 1.375 1_565 S
C1260 C1258 1.415 . S
C1260 C1265 1.425 1_565 S
C1260 C1267 1.409 . S
C1261 H1253 0.930 . S
C1261 C1259 1.375 1_545 S
C1261 C1262 1.362 . S
C1262 H1254 0.930 . S
C1262 C1261 1.362 . S
C1262 C1265 1.409 . S
C1263 H1255 0.930 . S
C1263 C1264 1.389 . S
C1263 C1265 1.415 . S
C1264 C1263 1.389 . S
C1264 C1266 1.374 1_545 S
C1265 C1260 1.425 1_545 S
C1265 C1262 1.409 . S
C1265 C1263 1.415 . S
C1266 H1256 0.930 . S
C1266 C1264 1.374 1_565 S
C1266 C1267 1.362 . S
C1267 H1257 0.930 . S
C1267 C1260 1.409 . S
C1267 C1266 1.362 . S
H1268 C1274 0.930 . S
H1269 C1277 0.930 . S
H1270 C1278 0.930 . S
H1271 C1279 0.930 . S
H1272 C1282 0.930 . S
H1273 C1283 0.930 . S
C1274 H1268 0.930 . S
C1274 C1275 1.355 1_455 S
C1274 C1276 1.415 . S
C1275 C1274 1.355 1_655 S
C1275 C1277 1.419 . S
C1276 C1274 1.415 . S
C1276 C1281 1.425 1_455 S
C1276 C1283 1.409 . S
C1277 H1269 0.930 . S
C1277 C1275 1.419 . S
C1277 C1278 1.362 . S
C1278 H1270 0.930 . S
C1278 C1277 1.362 . S
C1278 C1281 1.409 . S
C1279 H1271 0.930 . S
C1279 C1280 1.355 1_655 S
C1279 C1281 1.415 . S
C1280 C1279 1.355 1_455 S
C1280 C1282 1.419 . S
C1281 C1276 1.425 1_655 S
C1281 C1278 1.409 . S
C1281 C1279 1.415 . S
C1282 H1272 0.930 . S
C1282 C1280 1.419 . S
C1282 C1283 1.362 . S
C1283 H1273 0.930 . S
C1283 C1276 1.409 . S
C1283 C1282 1.362 . S
H1284 C1290 0.930 . S
H1285 C1293 0.930 . S
H1286 C1294 0.930 . S
H1287 C1295 0.930 . S
H1288 C1298 0.930 . S
H1289 C1299 0.930 . S
C1290 H1284 0.930 . S
C1290 C1291 1.355 . S
C1290 C1292 1.415 . S
C1291 C1290 1.355 . S
C1291 C1293 1.419 . S
C1292 C1290 1.415 . S
C1292 C1297 1.425 . S
C1292 C1299 1.409 . S
C1293 H1285 0.930 . S
C1293 C1291 1.419 . S
C1293 C1294 1.362 . S
C1294 H1286 0.930 . S
C1294 C1293 1.362 . S
C1294 C1297 1.409 . S
C1295 H1287 0.930 . S
C1295 C1296 1.355 . S
C1295 C1297 1.415 . S
C1296 C1295 1.355 . S
C1296 C1298 1.419 . S
C1297 C1292 1.425 . S
C1297 C1294 1.409 . S
C1297 C1295 1.415 . S
C1298 H1288 0.930 . S
C1298 C1296 1.419 . S
C1298 C1299 1.362 . S
C1299 H1289 0.930 . S
C1299 C1292 1.409 . S
C1299 C1298 1.362 . S
H1300 C1306 0.930 . S
H1301 C1309 0.930 . S
H1302 C1310 0.930 . S
H1303 C1311 0.930 . S
H1304 C1314 0.930 . S
H1305 C1315 0.930 . S
C1306 H1300 0.930 . S
C1306 C1307 1.355 . S
C1306 C1308 1.415 . S
C1307 C1306 1.355 . S
C1307 C1309 1.419 . S
C1308 C1306 1.415 . S
C1308 C1313 1.425 . S
C1308 C1315 1.409 . S
C1309 H1301 0.930 . S
C1309 C1307 1.419 . S
C1309 C1310 1.362 . S
C1310 H1302 0.930 . S
C1310 C1309 1.362 . S
C1310 C1313 1.409 . S
C1311 H1303 0.930 . S
C1311 C1312 1.355 . S
C1311 C1313 1.415 . S
C1312 C1311 1.355 . S
C1312 C1314 1.419 . S
C1313 C1308 1.425 . S
C1313 C1310 1.409 . S
C1313 C1311 1.415 . S
C1314 H1304 0.930 . S
C1314 C1312 1.419 . S
C1314 C1315 1.362 . S
C1315 H1305 0.930 . S
C1315 C1308 1.409 . S
C1315 C1314 1.362 . S
H1316 C1322 0.930 . S
H1317 C1325 0.930 . S
H1318 C1326 0.930 . S
H1319 C1327 0.930 . S
H1320 C1330 0.930 . S
H1321 C1331 0.930 . S
C1322 H1316 0.930 . S
C1322 C1323 1.355 . S
C1322 C1324 1.415 . S
C1323 C1322 1.355 . S
C1323 C1325 1.419 . S
C1324 C1322 1.415 . S
C1324 C1329 1.425 . S
C1324 C1331 1.409 . S
C1325 H1317 0.930 . S
C1325 C1323 1.419 . S
C1325 C1326 1.362 . S
C1326 H1318 0.930 . S
C1326 C1325 1.362 . S
C1326 C1329 1.409 . S
C1327 H1319 0.930 . S
C1327 C1328 1.355 . S
C1327 C1329 1.415 . S
C1328 C1327 1.355 . S
C1328 C1330 1.419 . S
C1329 C1324 1.425 . S
C1329 C1326 1.409 . S
C1329 C1327 1.415 . S
C1330 H1320 0.930 . S
C1330 C1328 1.419 . S
C1330 C1331 1.362 . S
C1331 H1321 0.930 . S
C1331 C1324 1.409 . S
C1331 C1330 1.362 . S
H1332 C1338 0.930 . S
H1333 C1341 0.930 . S
H1334 C1342 0.930 . S
H1335 C1343 0.930 . S
H1336 C1346 0.930 . S
H1337 C1347 0.930 . S
C1338 H1332 0.930 . S
C1338 C1339 1.355 . S
C1338 C1340 1.415 . S
C1339 C1338 1.355 . S
C1339 C1341 1.419 . S
C1340 C1338 1.415 . S
C1340 C1345 1.425 . S
C1340 C1347 1.409 . S
C1341 H1333 0.930 . S
C1341 C1339 1.419 . S
C1341 C1342 1.362 . S
C1342 H1334 0.930 . S
C1342 C1341 1.362 . S
C1342 C1345 1.409 . S
C1343 H1335 0.930 . S
C1343 C1344 1.355 . S
C1343 C1345 1.415 . S
C1344 C1343 1.355 . S
C1344 C1346 1.419 . S
C1345 C1340 1.425 . S
C1345 C1342 1.409 . S
C1345 C1343 1.415 . S
C1346 H1336 0.930 . S
C1346 C1344 1.419 . S
C1346 C1347 1.362 . S
C1347 H1337 0.930 . S
C1347 C1340 1.409 . S
C1347 C1346 1.362 . S
H1348 C1354 0.930 . S
H1349 C1357 0.930 . S
H1350 C1358 0.930 . S
H1351 C1359 0.930 . S
H1352 C1362 0.930 . S
H1353 C1363 0.930 . S
C1354 H1348 0.930 . S
C1354 C1355 1.355 . S
C1354 C1356 1.415 . S
C1355 C1354 1.355 . S
C1355 C1357 1.419 . S
C1356 C1354 1.415 . S
C1356 C1361 1.425 . S
C1356 C1363 1.409 . S
C1357 H1349 0.930 . S
C1357 C1355 1.419 . S
C1357 C1358 1.362 . S
C1358 H1350 0.930 . S
C1358 C1357 1.362 . S
C1358 C1361 1.409 . S
C1359 H1351 0.930 . S
C1359 C1360 1.355 . S
C1359 C1361 1.415 . S
C1360 C1359 1.355 . S
C1360 C1362 1.419 . S
C1361 C1356 1.425 . S
C1361 C1358 1.409 . S
C1361 C1359 1.415 . S
C1362 H1352 0.930 . S
C1362 C1360 1.419 . S
C1362 C1363 1.362 . S
C1363 H1353 0.930 . S
C1363 C1356 1.409 . S
C1363 C1362 1.362 . S
H1364 C1370 0.930 . S
H1365 C1373 0.930 . S
H1366 C1374 0.930 . S
H1367 C1375 0.930 . S
H1368 C1378 0.930 . S
H1369 C1379 0.930 . S
C1370 H1364 0.930 . S
C1370 C1371 1.355 . S
C1370 C1372 1.415 . S
C1371 C1370 1.355 . S
C1371 C1373 1.419 . S
C1372 C1370 1.415 . S
C1372 C1377 1.425 . S
C1372 C1379 1.409 . S
C1373 H1365 0.930 . S
C1373 C1371 1.419 . S
C1373 C1374 1.362 . S
C1374 H1366 0.930 . S
C1374 C1373 1.362 . S
C1374 C1377 1.409 . S
C1375 H1367 0.930 . S
C1375 C1376 1.355 . S
C1375 C1377 1.415 . S
C1376 C1375 1.355 . S
C1376 C1378 1.419 . S
C1377 C1372 1.425 . S
C1377 C1374 1.409 . S
C1377 C1375 1.415 . S
C1378 H1368 0.930 . S
C1378 C1376 1.419 . S
C1378 C1379 1.362 . S
C1379 H1369 0.930 . S
C1379 C1372 1.409 . S
C1379 C1378 1.362 . S
H1380 C1386 0.930 . S
H1381 C1389 0.930 . S
H1382 C1390 0.930 . S
H1383 C1391 0.930 . S
H1384 C1394 0.930 . S
H1385 C1395 0.930 . S
C1386 H1380 0.930 . S
C1386 C1387 1.355 . S
C1386 C1388 1.415 . S
C1387 C1386 1.355 . S
C1387 C1389 1.419 . S
C1388 C1386 1.415 . S
C1388 C1393 1.425 . S
C1388 C1395 1.409 . S
C1389 H1381 0.930 . S
C1389 C1387 1.419 . S
C1389 C1390 1.362 . S
C1390 H1382 0.930 . S
C1390 C1389 1.362 . S
C1390 C1393 1.409 . S
C1391 H1383 0.930 . S
C1391 C1392 1.355 . S
C1391 C1393 1.415 . S
C1392 C1391 1.355 . S
C1392 C1394 1.419 . S
C1393 C1388 1.425 . S
C1393 C1390 1.409 . S
C1393 C1391 1.415 . S
C1394 H1384 0.930 . S
C1394 C1392 1.419 . S
C1394 C1395 1.362 . S
C1395 H1385 0.930 . S
C1395 C1388 1.409 . S
C1395 C1394 1.362 . S
H1396 C1402 0.930 . S
H1397 C1405 0.930 . S
H1398 C1406 0.930 . S
H1399 C1407 0.930 . S
H1400 C1410 0.930 . S
H1401 C1411 0.930 . S
C1402 H1396 0.930 . S
C1402 C1403 1.355 . S
C1402 C1404 1.415 . S
C1403 C1402 1.355 . S
C1403 C1405 1.419 . S
C1404 C1402 1.415 . S
C1404 C1409 1.425 . S
C1404 C1411 1.409 . S
C1405 H1397 0.930 . S
C1405 C1403 1.419 . S
C1405 C1406 1.362 . S
C1406 H1398 0.930 . S
C1406 C1405 1.362 . S
C1406 C1409 1.409 . S
C1407 H1399 0.930 . S
C1407 C1408 1.355 . S
C1407 C1409 1.415 . S
C1408 C1407 1.355 . S
C1408 C1410 1.419 . S
C1409 C1404 1.425 . S
C1409 C1406 1.409 . S
C1409 C1407 1.415 . S
C1410 H1400 0.930 . S
C1410 C1408 1.419 . S
C1410 C1411 1.362 . S
C1411 H1401 0.930 . S
C1411 C1404 1.409 . S
C1411 C1410 1.362 . S
H1412 C1418 0.930 . S
H1413 C1421 0.930 . S
H1414 C1422 0.930 . S
H1415 C1423 0.930 . S
H1416 C1426 0.930 . S
H1417 C1427 0.930 . S
C1418 H1412 0.930 . S
C1418 C1419 1.355 . S
C1418 C1420 1.415 . S
C1419 C1418 1.355 . S
C1419 C1421 1.419 . S
C1420 C1418 1.415 . S
C1420 C1425 1.425 . S
C1420 C1427 1.409 . S
C1421 H1413 0.930 . S
C1421 C1419 1.419 . S
C1421 C1422 1.362 . S
C1422 H1414 0.930 . S
C1422 C1421 1.362 . S
C1422 C1425 1.409 . S
C1423 H1415 0.930 . S
C1423 C1424 1.355 . S
C1423 C1425 1.415 . S
C1424 C1423 1.355 . S
C1424 C1426 1.419 . S
C1425 C1420 1.425 . S
C1425 C1422 1.409 . S
C1425 C1423 1.415 . S
C1426 H1416 0.930 . S
C1426 C1424 1.419 . S
C1426 C1427 1.362 . S
C1427 H1417 0.930 . S
C1427 C1420 1.409 . S
C1427 C1426 1.362 . S
H1428 C1434 0.930 . S
H1429 C1437 0.930 . S
H1430 C1438 0.930 . S
H1431 C1439 0.930 . S
H1432 C1442 0.930 . S
H1433 C1443 0.930 . S
C1434 H1428 0.930 . S
C1434 C1435 1.355 . S
C1434 C1436 1.415 . S
C1435 C1434 1.355 . S
C1435 C1437 1.419 . S
C1436 C1434 1.415 . S
C1436 C1441 1.425 . S
C1436 C1443 1.409 . S
C1437 H1429 0.930 . S
C1437 C1435 1.419 . S
C1437 C1438 1.362 . S
C1438 H1430 0.930 . S
C1438 C1437 1.362 . S
C1438 C1441 1.409 . S
C1439 H1431 0.930 . S
C1439 C1440 1.355 . S
C1439 C1441 1.415 . S
C1440 C1439 1.355 . S
C1440 C1442 1.419 . S
C1441 C1436 1.425 . S
C1441 C1438 1.409 . S
C1441 C1439 1.415 . S
C1442 H1432 0.930 . S
C1442 C1440 1.419 . S
C1442 C1443 1.362 . S
C1443 H1433 0.930 . S
C1443 C1436 1.409 . S
C1443 C1442 1.362 . S
H1444 C1450 0.930 . S
H1445 C1453 0.930 . S
H1446 C1454 0.930 . S
H1447 C1455 0.930 . S
H1448 C1458 0.930 . S
H1449 C1459 0.930 . S
C1450 H1444 0.930 . S
C1450 C1451 1.355 . S
C1450 C1452 1.415 . S
C1451 C1450 1.355 . S
C1451 C1453 1.419 . S
C1452 C1450 1.415 . S
C1452 C1457 1.425 . S
C1452 C1459 1.409 . S
C1453 H1445 0.930 . S
C1453 C1451 1.419 . S
C1453 C1454 1.362 . S
C1454 H1446 0.930 . S
C1454 C1453 1.362 . S
C1454 C1457 1.409 . S
C1455 H1447 0.930 . S
C1455 C1456 1.355 . S
C1455 C1457 1.415 . S
C1456 C1455 1.355 . S
C1456 C1458 1.419 . S
C1457 C1452 1.425 . S
C1457 C1454 1.409 . S
C1457 C1455 1.415 . S
C1458 H1448 0.930 . S
C1458 C1456 1.419 . S
C1458 C1459 1.362 . S
C1459 H1449 0.930 . S
C1459 C1452 1.409 . S
C1459 C1458 1.362 . S
H1460 C1466 0.930 . S
H1461 C1469 0.930 . S
H1462 C1470 0.930 . S
H1463 C1471 0.930 . S
H1464 C1474 0.930 . S
H1465 C1475 0.930 . S
C1466 H1460 0.930 . S
C1466 C1467 1.355 . S
C1466 C1468 1.415 . S
C1467 C1466 1.355 . S
C1467 C1469 1.419 . S
C1468 C1466 1.415 . S
C1468 C1473 1.425 . S
C1468 C1475 1.409 . S
C1469 H1461 0.930 . S
C1469 C1467 1.419 . S
C1469 C1470 1.362 . S
C1470 H1462 0.930 . S
C1470 C1469 1.362 . S
C1470 C1473 1.409 . S
C1471 H1463 0.930 . S
C1471 C1472 1.355 . S
C1471 C1473 1.415 . S
C1472 C1471 1.355 . S
C1472 C1474 1.419 . S
C1473 C1468 1.425 . S
C1473 C1470 1.409 . S
C1473 C1471 1.415 . S
C1474 H1464 0.930 . S
C1474 C1472 1.419 . S
C1474 C1475 1.362 . S
C1475 H1465 0.930 . S
C1475 C1468 1.409 . S
C1475 C1474 1.362 . S
H1476 C1482 0.930 . S
H1477 C1485 0.930 . S
H1478 C1486 0.930 . S
H1479 C1487 0.930 . S
H1480 C1490 0.930 . S
H1481 C1491 0.930 . S
C1482 H1476 0.930 . S
C1482 C1483 1.355 . S
C1482 C1484 1.415 . S
C1483 C1482 1.355 . S
C1483 C1485 1.419 . S
C1484 C1482 1.415 . S
C1484 C1489 1.425 . S
C1484 C1491 1.409 . S
C1485 H1477 0.930 . S
C1485 C1483 1.419 . S
C1485 C1486 1.362 . S
C1486 H1478 0.930 . S
C1486 C1485 1.362 . S
C1486 C1489 1.409 . S
C1487 H1479 0.930 . S
C1487 C1488 1.355 . S
C1487 C1489 1.415 . S
C1488 C1487 1.355 . S
C1488 C1490 1.419 . S
C1489 C1484 1.425 . S
C1489 C1486 1.409 . S
C1489 C1487 1.415 . S
C1490 H1480 0.930 . S
C1490 C1488 1.419 . S
C1490 C1491 1.362 . S
C1491 H1481 0.930 . S
C1491 C1484 1.409 . S
C1491 C1490 1.362 . S
H1492 C1498 0.930 . S
H1493 C1501 0.930 . S
H1494 C1502 0.930 . S
H1495 C1503 0.930 . S
H1496 C1506 0.926 1_545 S
H1497 C1507 0.930 . S
C1498 H1492 0.930 . S
C1498 C1499 1.355 . S
C1498 C1500 1.415 . S
C1499 C1498 1.355 . S
C1499 C1501 1.419 . S
C1500 C1498 1.415 . S
C1500 C1505 1.425 . S
C1500 C1507 1.409 . S
C1501 H1493 0.930 . S
C1501 C1499 1.419 . S
C1501 C1502 1.362 . S
C1502 H1494 0.930 . S
C1502 C1501 1.362 . S
C1502 C1505 1.409 . S
C1503 H1495 0.930 . S
C1503 C1504 1.355 . S
C1503 C1505 1.415 . S
C1504 C1503 1.355 . S
C1504 C1506 1.424 . S
C1505 C1500 1.425 . S
C1505 C1502 1.409 . S
C1505 C1503 1.415 . S
C1506 H1496 0.926 1_565 S
C1506 C1504 1.424 . S
C1506 C1507 1.361 . S
C1507 H1497 0.930 . S
C1507 C1500 1.409 . S
C1507 C1506 1.361 . S
H1508 C1514 0.930 . S
H1509 C1517 0.930 . S
H1510 C1518 0.930 . S
H1511 C1519 0.930 . S
H1512 C1522 0.930 . S
H1513 C1523 0.930 . S
C1514 H1508 0.930 . S
C1514 C1515 1.355 . S
C1514 C1516 1.415 . S
C1515 C1514 1.355 . S
C1515 C1517 1.419 1_455 S
C1516 C1514 1.415 . S
C1516 C1521 1.425 . S
C1516 C1523 1.409 . S
C1517 H1509 0.930 . S
C1517 C1515 1.419 1_655 S
C1517 C1518 1.362 . S
C1518 H1510 0.930 . S
C1518 C1517 1.362 . S
C1518 C1521 1.409 1_655 S
C1519 H1511 0.930 . S
C1519 C1520 1.355 . S
C1519 C1521 1.415 . S
C1520 C1519 1.355 . S
C1520 C1522 1.419 . S
C1521 C1516 1.425 . S
C1521 C1518 1.409 1_455 S
C1521 C1519 1.415 . S
C1522 H1512 0.930 . S
C1522 C1520 1.419 . S
C1522 C1523 1.362 . S
C1523 H1513 0.930 . S
C1523 C1516 1.409 . S
C1523 C1522 1.362 . S
H1524 C1530 0.930 . S
H1525 C1533 0.930 . S
H1526 C1534 0.930 . S
H1527 C1535 0.930 . S
H1528 C1538 0.930 . S
H1529 C1539 0.930 . S
C1530 H1524 0.930 . S
C1530 C1531 1.355 . S
C1530 C1532 1.415 . S
C1531 C1530 1.355 . S
C1531 C1533 1.419 . S
C1532 C1530 1.415 . S
C1532 C1537 1.425 . S
C1532 C1539 1.409 . S
C1533 H1525 0.930 . S
C1533 C1531 1.419 . S
C1533 C1534 1.362 . S
C1534 H1526 0.930 . S
C1534 C1533 1.362 . S
C1534 C1537 1.409 . S
C1535 H1527 0.930 . S
C1535 C1536 1.355 . S
C1535 C1537 1.415 . S
C1536 C1535 1.355 . S
C1536 C1538 1.419 . S
C1537 C1532 1.425 . S
C1537 C1534 1.409 . S
C1537 C1535 1.415 . S
C1538 H1528 0.930 . S
C1538 C1536 1.419 . S
C1538 C1539 1.362 . S
C1539 H1529 0.930 . S
C1539 C1532 1.409 . S
C1539 C1538 1.362 . S
H1540 C1546 0.930 . S
H1541 C1549 0.930 . S
H1542 C1550 0.930 . S
H1543 C1551 0.930 . S
H1544 C1554 0.930 . S
H1545 C1555 0.930 1_565 S
C1546 H1540 0.930 . S
C1546 C1547 1.355 1_565 S
C1546 C1548 1.415 1_565 S
C1547 C1546 1.355 1_545 S
C1547 C1549 1.419 . S
C1548 C1546 1.415 1_545 S
C1548 C1553 1.425 . S
C1548 C1555 1.409 . S
C1549 H1541 0.930 . S
C1549 C1547 1.419 . S
C1549 C1550 1.362 . S
C1550 H1542 0.930 . S
C1550 C1549 1.362 . S
C1550 C1553 1.409 . S
C1551 H1543 0.930 . S
C1551 C1552 1.355 . S
C1551 C1553 1.415 . S
C1552 C1551 1.355 . S
C1552 C1554 1.419 . S
C1553 C1548 1.425 . S
C1553 C1550 1.409 . S
C1553 C1551 1.415 . S
C1554 H1544 0.930 . S
C1554 C1552 1.419 . S
C1554 C1555 1.362 . S
C1555 H1545 0.930 1_545 S
C1555 C1548 1.409 . S
C1555 C1554 1.362 . S
H1556 C1562 0.930 . S
H1557 C1565 0.930 . S
H1558 C1566 0.930 1_455 S
H1559 C1567 0.934 1_455 S
H1560 C1570 0.930 . S
H1561 C1571 0.930 . S
C1562 H1556 0.930 . S
C1562 C1563 1.355 . S
C1562 C1564 1.415 . S
C1563 C1562 1.355 . S
C1563 C1565 1.419 . S
C1564 C1562 1.415 . S
C1564 C1569 1.425 . S
C1564 C1571 1.409 . S
C1565 H1557 0.930 . S
C1565 C1563 1.419 . S
C1565 C1566 1.362 . S
C1566 H1558 0.930 1_655 S
C1566 C1565 1.362 . S
C1566 C1569 1.409 . S
C1567 H1559 0.934 1_655 S
C1567 C1568 1.351 . S
C1567 C1569 1.414 . S
C1568 C1567 1.351 . S
C1568 C1570 1.419 . S
C1569 C1564 1.425 . S
C1569 C1566 1.409 . S
C1569 C1567 1.414 . S
C1570 H1560 0.930 . S
C1570 C1568 1.419 . S
C1570 C1571 1.362 . S
C1571 H1561 0.930 . S
C1571 C1564 1.409 . S
C1571 C1570 1.362 . S
H1572 C1578 0.930 . S
H1573 C1581 0.930 . S
H1574 C1582 0.930 . S
H1575 C1583 0.930 . S
H1576 C1586 0.930 . S
H1577 C1587 0.930 . S
C1578 H1572 0.930 . S
C1578 C1579 1.355 . S
C1578 C1580 1.415 . S
C1579 C1578 1.355 . S
C1579 C1581 1.419 . S
C1580 C1578 1.415 . S
C1580 C1585 1.425 . S
C1580 C1587 1.409 . S
C1581 H1573 0.930 . S
C1581 C1579 1.419 . S
C1581 C1582 1.362 . S
C1582 H1574 0.930 . S
C1582 C1581 1.362 . S
C1582 C1585 1.409 . S
C1583 H1575 0.930 . S
C1583 C1584 1.355 . S
C1583 C1585 1.415 . S
C1584 C1583 1.355 . S
C1584 C1586 1.419 . S
C1585 C1580 1.425 . S
C1585 C1582 1.409 . S
C1585 C1583 1.415 . S
C1586 H1576 0.930 . S
C1586 C1584 1.419 . S
C1586 C1587 1.362 . S
C1587 H1577 0.930 . S
C1587 C1580 1.409 . S
C1587 C1586 1.362 . S
H1588 C1594 0.930 . S
H1589 C1597 0.930 . S
H1590 C1598 0.930 1_565 S
H1591 C1599 0.930 . S
H1592 C1602 0.930 . S
H1593 C1603 0.930 . S
C1594 H1588 0.930 . S
C1594 C1595 1.355 . S
C1594 C1596 1.415 . S
C1595 C1594 1.355 . S
C1595 C1597 1.419 . S
C1596 C1594 1.415 . S
C1596 C1601 1.425 . S
C1596 C1603 1.409 . S
C1597 H1589 0.930 . S
C1597 C1595 1.419 . S
C1597 C1598 1.362 . S
C1598 H1590 0.930 1_545 S
C1598 C1597 1.362 . S
C1598 C1601 1.409 . S
C1599 H1591 0.930 . S
C1599 C1600 1.355 1_565 S
C1599 C1601 1.415 1_565 S
C1600 C1599 1.355 1_545 S
C1600 C1602 1.419 . S
C1601 C1596 1.425 . S
C1601 C1598 1.409 . S
C1601 C1599 1.415 1_545 S
C1602 H1592 0.930 . S
C1602 C1600 1.419 . S
C1602 C1603 1.362 . S
C1603 H1593 0.930 . S
C1603 C1596 1.409 . S
C1603 C1602 1.362 . S
H1604 C1610 0.930 . S
H1605 C1613 0.930 . S
H1606 C1614 0.930 1_455 S
H1607 C1615 0.956 . S
H1608 C1618 0.930 . S
H1609 C1619 0.930 . S
C1610 H1604 0.930 . S
C1610 C1611 1.355 . S
C1610 C1612 1.415 . S
C1611 C1610 1.355 . S
C1611 C1613 1.419 . S
C1612 C1610 1.415 . S
C1612 C1617 1.425 . S
C1612 C1619 1.409 . S
C1613 H1605 0.930 . S
C1613 C1611 1.419 . S
C1613 C1614 1.362 . S
C1614 H1606 0.930 1_655 S
C1614 C1613 1.362 . S
C1614 C1617 1.409 . S
C1615 H1607 0.956 . S
C1615 C1616 1.363 1_455 S
C1615 C1617 1.381 1_455 S
C1616 C1615 1.363 1_655 S
C1616 C1618 1.419 . S
C1617 C1612 1.425 . S
C1617 C1614 1.409 . S
C1617 C1615 1.381 1_655 S
C1618 H1608 0.930 . S
C1618 C1616 1.419 . S
C1618 C1619 1.362 . S
C1619 H1609 0.930 . S
C1619 C1612 1.409 . S
C1619 C1618 1.362 . S
H1620 C1626 0.930 . S
H1621 C1629 0.930 . S
H1622 C1630 0.930 . S
H1623 C1631 0.930 . S
H1624 C1634 0.930 . S
H1625 C1635 0.930 . S
C1626 H1620 0.930 . S
C1626 C1627 1.355 . S
C1626 C1628 1.415 . S
C1627 C1626 1.355 . S
C1627 C1629 1.419 . S
C1628 C1626 1.415 . S
C1628 C1633 1.425 . S
C1628 C1635 1.409 . S
C1629 H1621 0.930 . S
C1629 C1627 1.419 . S
C1629 C1630 1.362 . S
C1630 H1622 0.930 . S
C1630 C1629 1.362 . S
C1630 C1633 1.409 . S
C1631 H1623 0.930 . S
C1631 C1632 1.355 . S
C1631 C1633 1.415 . S
C1632 C1631 1.355 . S
C1632 C1634 1.419 . S
C1633 C1628 1.425 . S
C1633 C1630 1.409 . S
C1633 C1631 1.415 . S
C1634 H1624 0.930 . S
C1634 C1632 1.419 . S
C1634 C1635 1.362 . S
C1635 H1625 0.930 . S
C1635 C1628 1.409 . S
C1635 C1634 1.362 . S
H1636 C1642 0.930 . S
H1637 C1645 0.930 . S
H1638 C1646 0.930 . S
H1639 C1647 0.930 . S
H1640 C1650 0.930 . S
H1641 C1651 0.930 1_545 S
C1642 H1636 0.930 . S
C1642 C1643 1.355 . S
C1642 C1644 1.415 . S
C1643 C1642 1.355 . S
C1643 C1645 1.419 . S
C1644 C1642 1.415 . S
C1644 C1649 1.425 . S
C1644 C1651 1.438 . S
C1645 H1637 0.930 . S
C1645 C1643 1.419 . S
C1645 C1646 1.362 . S
C1646 H1638 0.930 . S
C1646 C1645 1.362 . S
C1646 C1649 1.409 . S
C1647 H1639 0.930 . S
C1647 C1648 1.355 . S
C1647 C1649 1.415 . S
C1648 C1647 1.355 . S
C1648 C1650 1.419 1_565 S
C1649 C1644 1.425 . S
C1649 C1646 1.409 . S
C1649 C1647 1.415 . S
C1650 H1640 0.930 . S
C1650 C1648 1.419 1_545 S
C1650 C1651 1.335 1_545 S
C1651 H1641 0.930 1_565 S
C1651 C1644 1.438 . S
C1651 C1650 1.335 1_565 S
H1652 C1658 0.930 . S
H1653 C1661 0.930 . S
H1654 C1662 0.930 . S
H1655 C1663 0.930 . S
H1656 C1666 0.930 . S
H1657 C1667 0.930 . S
C1658 H1652 0.930 . S
C1658 C1659 1.355 . S
C1658 C1660 1.415 . S
C1659 C1658 1.355 . S
C1659 C1661 1.419 . S
C1660 C1658 1.415 . S
C1660 C1665 1.425 . S
C1660 C1667 1.409 . S
C1661 H1653 0.930 . S
C1661 C1659 1.419 . S
C1661 C1662 1.362 . S
C1662 H1654 0.930 . S
C1662 C1661 1.362 . S
C1662 C1665 1.409 . S
C1663 H1655 0.930 . S
C1663 C1664 1.355 . S
C1663 C1665 1.415 . S
C1664 C1663 1.355 . S
C1664 C1666 1.419 . S
C1665 C1660 1.425 . S
C1665 C1662 1.409 . S
C1665 C1663 1.415 . S
C1666 H1656 0.930 . S
C1666 C1664 1.419 . S
C1666 C1667 1.362 . S
C1667 H1657 0.930 . S
C1667 C1660 1.409 . S
C1667 C1666 1.362 . S
H1668 C1674 0.930 . S
H1669 C1677 0.930 . S
H1670 C1678 0.930 . S
H1671 C1679 0.930 . S
H1672 C1682 0.930 . S
H1673 C1683 0.930 . S
C1674 H1668 0.930 . S
C1674 C1675 1.355 . S
C1674 C1676 1.415 . S
C1675 C1674 1.355 . S
C1675 C1677 1.419 . S
C1676 C1674 1.415 . S
C1676 C1681 1.425 1_455 S
C1676 C1683 1.409 1_455 S
C1677 H1669 0.930 . S
C1677 C1675 1.419 . S
C1677 C1678 1.362 . S
C1678 H1670 0.930 . S
C1678 C1677 1.362 . S
C1678 C1681 1.409 1_455 S
C1679 H1671 0.930 . S
C1679 C1680 1.355 . S
C1679 C1681 1.415 . S
C1680 C1679 1.355 . S
C1680 C1682 1.419 . S
C1681 C1676 1.425 1_655 S
C1681 C1678 1.409 1_655 S
C1681 C1679 1.415 . S
C1682 H1672 0.930 . S
C1682 C1680 1.419 . S
C1682 C1683 1.362 . S
C1683 H1673 0.930 . S
C1683 C1676 1.409 1_655 S
C1683 C1682 1.362 . S
H1684 C1690 0.930 . S
H1685 C1693 0.930 . S
H1686 C1694 0.930 . S
H1687 C1695 0.930 . S
H1688 C1698 0.930 . S
H1689 C1699 0.930 . S
C1690 H1684 0.930 . S
C1690 C1691 1.355 . S
C1690 C1692 1.415 . S
C1691 C1690 1.355 . S
C1691 C1693 1.419 . S
C1692 C1690 1.415 . S
C1692 C1697 1.425 . S
C1692 C1699 1.409 . S
C1693 H1685 0.930 . S
C1693 C1691 1.419 . S
C1693 C1694 1.362 . S
C1694 H1686 0.930 . S
C1694 C1693 1.362 . S
C1694 C1697 1.409 . S
C1695 H1687 0.930 . S
C1695 C1696 1.355 . S
C1695 C1697 1.415 . S
C1696 C1695 1.355 . S
C1696 C1698 1.419 . S
C1697 C1692 1.425 . S
C1697 C1694 1.409 . S
C1697 C1695 1.415 . S
C1698 H1688 0.930 . S
C1698 C1696 1.419 . S
C1698 C1699 1.362 . S
C1699 H1689 0.930 . S
C1699 C1692 1.409 . S
C1699 C1698 1.362 . S
H1700 C1706 0.930 . S
H1701 C1709 0.930 . S
H1702 C1710 0.930 . S
H1703 C1711 0.930 . S
H1704 C1714 0.930 . S
H1705 C1715 0.930 . S
C1706 H1700 0.930 . S
C1706 C1707 1.355 . S
C1706 C1708 1.415 . S
C1707 C1706 1.355 . S
C1707 C1709 1.419 . S
C1708 C1706 1.415 . S
C1708 C1713 1.425 1_565 S
C1708 C1715 1.409 1_565 S
C1709 H1701 0.930 . S
C1709 C1707 1.419 . S
C1709 C1710 1.362 . S
C1710 H1702 0.930 . S
C1710 C1709 1.362 . S
C1710 C1713 1.409 1_565 S
C1711 H1703 0.930 . S
C1711 C1712 1.355 . S
C1711 C1713 1.415 . S
C1712 C1711 1.355 . S
C1712 C1714 1.419 . S
C1713 C1708 1.425 1_545 S
C1713 C1710 1.409 1_545 S
C1713 C1711 1.415 . S
C1714 H1704 0.930 . S
C1714 C1712 1.419 . S
C1714 C1715 1.362 . S
C1715 H1705 0.930 . S
C1715 C1708 1.409 1_545 S
C1715 C1714 1.362 . S
H1716 C1722 0.930 . S
H1717 C1725 0.930 . S
H1718 C1726 0.930 . S
H1719 C1727 0.930 . S
H1720 C1730 0.930 . S
H1721 C1731 0.930 . S
C1722 H1716 0.930 . S
C1722 C1723 1.355 . S
C1722 C1724 1.415 . S
C1723 C1722 1.355 . S
C1723 C1725 1.419 . S
C1724 C1722 1.415 . S
C1724 C1729 1.425 1_545 S
C1724 C1731 1.409 1_545 S
C1725 H1717 0.930 . S
C1725 C1723 1.419 . S
C1725 C1726 1.362 . S
C1726 H1718 0.930 . S
C1726 C1725 1.362 . S
C1726 C1729 1.409 1_545 S
C1727 H1719 0.930 . S
C1727 C1728 1.355 . S
C1727 C1729 1.415 . S
C1728 C1727 1.355 . S
C1728 C1730 1.419 . S
C1729 C1724 1.425 1_565 S
C1729 C1726 1.409 1_565 S
C1729 C1727 1.415 . S
C1730 H1720 0.930 . S
C1730 C1728 1.419 . S
C1730 C1731 1.362 . S
C1731 H1721 0.930 . S
C1731 C1724 1.409 1_565 S
C1731 C1730 1.362 . S
H1732 C1738 0.930 . S
H1733 C1741 0.930 . S
H1734 C1742 0.930 . S
H1735 C1743 0.930 . S
H1736 C1746 0.930 . S
H1737 C1747 0.930 . S
C1738 H1732 0.930 . S
C1738 C1739 1.355 . S
C1738 C1740 1.415 . S
C1739 C1738 1.355 . S
C1739 C1741 1.419 . S
C1740 C1738 1.415 . S
C1740 C1745 1.425 1_655 S
C1740 C1747 1.409 1_655 S
C1741 H1733 0.930 . S
C1741 C1739 1.419 . S
C1741 C1742 1.362 . S
C1742 H1734 0.930 . S
C1742 C1741 1.362 . S
C1742 C1745 1.409 1_655 S
C1743 H1735 0.930 . S
C1743 C1744 1.355 . S
C1743 C1745 1.415 . S
C1744 C1743 1.355 . S
C1744 C1746 1.419 . S
C1745 C1740 1.425 1_455 S
C1745 C1742 1.409 1_455 S
C1745 C1743 1.415 . S
C1746 H1736 0.930 . S
C1746 C1744 1.419 . S
C1746 C1747 1.362 . S
C1747 H1737 0.930 . S
C1747 C1740 1.409 1_455 S
C1747 C1746 1.362 . S
H1748 C1754 0.930 . S
H1749 C1757 0.930 . S
H1750 C1758 0.930 . S
H1751 C1759 0.930 . S
H1752 C1762 0.930 . S
H1753 C1763 0.930 . S
C1754 H1748 0.930 . S
C1754 C1755 1.355 . S
C1754 C1756 1.415 . S
C1755 C1754 1.355 . S
C1755 C1757 1.419 . S
C1756 C1754 1.415 . S
C1756 C1761 1.425 . S
C1756 C1763 1.409 . S
C1757 H1749 0.930 . S
C1757 C1755 1.419 . S
C1757 C1758 1.362 . S
C1758 H1750 0.930 . S
C1758 C1757 1.362 . S
C1758 C1761 1.409 . S
C1759 H1751 0.930 . S
C1759 C1760 1.355 . S
C1759 C1761 1.415 . S
C1760 C1759 1.355 . S
C1760 C1762 1.419 . S
C1761 C1756 1.425 . S
C1761 C1758 1.409 . S
C1761 C1759 1.415 . S
C1762 H1752 0.930 . S
C1762 C1760 1.419 . S
C1762 C1763 1.362 . S
C1763 H1753 0.930 . S
C1763 C1756 1.409 . S
C1763 C1762 1.362 . S
H1764 C1770 0.930 . S
H1765 C1773 0.930 . S
H1766 C1774 0.930 . S
H1767 C1775 0.930 . S
H1768 C1778 0.930 . S
H1769 C1779 0.930 . S
C1770 H1764 0.930 . S
C1770 C1771 1.355 . S
C1770 C1772 1.415 . S
C1771 C1770 1.355 . S
C1771 C1773 1.419 . S
C1772 C1770 1.415 . S
C1772 C1777 1.425 . S
C1772 C1779 1.409 . S
C1773 H1765 0.930 . S
C1773 C1771 1.419 . S
C1773 C1774 1.362 . S
C1774 H1766 0.930 . S
C1774 C1773 1.362 . S
C1774 C1777 1.409 . S
C1775 H1767 0.930 . S
C1775 C1776 1.355 . S
C1775 C1777 1.415 . S
C1776 C1775 1.355 . S
C1776 C1778 1.419 . S
C1777 C1772 1.425 . S
C1777 C1774 1.409 . S
C1777 C1775 1.415 . S
C1778 H1768 0.930 . S
C1778 C1776 1.419 . S
C1778 C1779 1.362 . S
C1779 H1769 0.930 . S
C1779 C1772 1.409 . S
C1779 C1778 1.362 . S
H1780 C1786 0.930 . S
H1781 C1789 0.930 . S
H1782 C1790 0.930 . S
H1783 C1791 0.930 . S
H1784 C1794 0.930 . S
H1785 C1795 0.930 . S
C1786 H1780 0.930 . S
C1786 C1787 1.355 . S
C1786 C1788 1.415 . S
C1787 C1786 1.355 . S
C1787 C1789 1.419 . S
C1788 C1786 1.415 . S
C1788 C1793 1.425 . S
C1788 C1795 1.409 . S
C1789 H1781 0.930 . S
C1789 C1787 1.419 . S
C1789 C1790 1.362 . S
C1790 H1782 0.930 . S
C1790 C1789 1.362 . S
C1790 C1793 1.409 . S
C1791 H1783 0.930 . S
C1791 C1792 1.355 . S
C1791 C1793 1.415 . S
C1792 C1791 1.355 . S
C1792 C1794 1.419 . S
C1793 C1788 1.425 . S
C1793 C1790 1.409 . S
C1793 C1791 1.415 . S
C1794 H1784 0.930 . S
C1794 C1792 1.419 . S
C1794 C1795 1.362 . S
C1795 H1785 0.930 . S
C1795 C1788 1.409 . S
C1795 C1794 1.362 . S
H1796 C1802 0.930 . S
H1797 C1805 0.930 . S
H1798 C1806 0.930 . S
H1799 C1807 0.930 . S
H1800 C1810 0.930 . S
H1801 C1811 0.930 . S
C1802 H1796 0.930 . S
C1802 C1803 1.355 . S
C1802 C1804 1.415 . S
C1803 C1802 1.355 . S
C1803 C1805 1.419 . S
C1804 C1802 1.415 . S
C1804 C1809 1.425 . S
C1804 C1811 1.409 . S
C1805 H1797 0.930 . S
C1805 C1803 1.419 . S
C1805 C1806 1.362 . S
C1806 H1798 0.930 . S
C1806 C1805 1.362 . S
C1806 C1809 1.409 . S
C1807 H1799 0.930 . S
C1807 C1808 1.355 . S
C1807 C1809 1.415 . S
C1808 C1807 1.355 . S
C1808 C1810 1.419 . S
C1809 C1804 1.425 . S
C1809 C1806 1.409 . S
C1809 C1807 1.415 . S
C1810 H1800 0.930 . S
C1810 C1808 1.419 . S
C1810 C1811 1.362 . S
C1811 H1801 0.930 . S
C1811 C1804 1.409 . S
C1811 C1810 1.362 . S
H1812 C1818 0.930 . S
H1813 C1821 0.930 . S
H1814 C1822 0.930 . S
H1815 C1823 0.930 . S
H1816 C1826 0.930 . S
H1817 C1827 0.930 . S
C1818 H1812 0.930 . S
C1818 C1819 1.355 . S
C1818 C1820 1.415 . S
C1819 C1818 1.355 . S
C1819 C1821 1.419 . S
C1820 C1818 1.415 . S
C1820 C1825 1.425 . S
C1820 C1827 1.409 . S
C1821 H1813 0.930 . S
C1821 C1819 1.419 . S
C1821 C1822 1.362 . S
C1822 H1814 0.930 . S
C1822 C1821 1.362 . S
C1822 C1825 1.409 . S
C1823 H1815 0.930 . S
C1823 C1824 1.355 . S
C1823 C1825 1.415 . S
C1824 C1823 1.355 . S
C1824 C1826 1.419 . S
C1825 C1820 1.425 . S
C1825 C1822 1.409 . S
C1825 C1823 1.415 . S
C1826 H1816 0.930 . S
C1826 C1824 1.419 . S
C1826 C1827 1.362 . S
C1827 H1817 0.930 . S
C1827 C1820 1.409 . S
C1827 C1826 1.362 . S
H1828 C1834 0.930 . S
H1829 C1837 0.930 . S
H1830 C1838 0.930 . S
H1831 C1839 0.930 . S
H1832 C1842 0.930 . S
H1833 C1843 0.930 . S
C1834 H1828 0.930 . S
C1834 C1835 1.355 . S
C1834 C1836 1.415 . S
C1835 C1834 1.355 . S
C1835 C1837 1.419 . S
C1836 C1834 1.415 . S
C1836 C1841 1.425 . S
C1836 C1843 1.409 . S
C1837 H1829 0.930 . S
C1837 C1835 1.419 . S
C1837 C1838 1.362 . S
C1838 H1830 0.930 . S
C1838 C1837 1.362 . S
C1838 C1841 1.409 . S
C1839 H1831 0.930 . S
C1839 C1840 1.355 . S
C1839 C1841 1.415 . S
C1840 C1839 1.355 . S
C1840 C1842 1.419 . S
C1841 C1836 1.425 . S
C1841 C1838 1.409 . S
C1841 C1839 1.415 . S
C1842 H1832 0.930 . S
C1842 C1840 1.419 . S
C1842 C1843 1.362 . S
C1843 H1833 0.930 . S
C1843 C1836 1.409 . S
C1843 C1842 1.362 . S
H1844 C1850 0.930 . S
H1845 C1853 0.930 . S
H1846 C1854 0.930 . S
H1847 C1855 0.930 . S
H1848 C1858 0.930 . S
H1849 C1859 0.930 . S
C1850 H1844 0.930 . S
C1850 C1851 1.355 . S
C1850 C1852 1.415 . S
C1851 C1850 1.355 . S
C1851 C1853 1.419 . S
C1852 C1850 1.415 . S
C1852 C1857 1.425 . S
C1852 C1859 1.409 . S
C1853 H1845 0.930 . S
C1853 C1851 1.419 . S
C1853 C1854 1.362 . S
C1854 H1846 0.930 . S
C1854 C1853 1.362 . S
C1854 C1857 1.409 . S
C1855 H1847 0.930 . S
C1855 C1856 1.355 . S
C1855 C1857 1.415 . S
C1856 C1855 1.355 . S
C1856 C1858 1.419 . S
C1857 C1852 1.425 . S
C1857 C1854 1.409 . S
C1857 C1855 1.415 . S
C1858 H1848 0.930 . S
C1858 C1856 1.419 . S
C1858 C1859 1.362 . S
C1859 H1849 0.930 . S
C1859 C1852 1.409 . S
C1859 C1858 1.362 . S
H1860 C1866 0.930 . S
H1861 C1869 0.930 . S
H1862 C1870 0.930 . S
H1863 C1871 0.930 . S
H1864 C1874 0.930 . S
H1865 C1875 0.930 . S
C1866 H1860 0.930 . S
C1866 C1867 1.355 . S
C1866 C1868 1.415 . S
C1867 C1866 1.355 . S
C1867 C1869 1.419 . S
C1868 C1866 1.415 . S
C1868 C1873 1.425 . S
C1868 C1875 1.409 . S
C1869 H1861 0.930 . S
C1869 C1867 1.419 . S
C1869 C1870 1.362 . S
C1870 H1862 0.930 . S
C1870 C1869 1.362 . S
C1870 C1873 1.409 . S
C1871 H1863 0.930 . S
C1871 C1872 1.355 . S
C1871 C1873 1.415 . S
C1872 C1871 1.355 . S
C1872 C1874 1.419 . S
C1873 C1868 1.425 . S
C1873 C1870 1.409 . S
C1873 C1871 1.415 . S
C1874 H1864 0.930 . S
C1874 C1872 1.419 . S
C1874 C1875 1.362 . S
C1875 H1865 0.930 . S
C1875 C1868 1.409 . S
C1875 C1874 1.362 . S
H1876 C1882 0.930 . S
H1877 C1885 0.930 . S
H1878 C1886 0.930 . S
H1879 C1887 0.930 . S
H1880 C1890 0.930 . S
H1881 C1891 0.930 . S
C1882 H1876 0.930 . S
C1882 C1883 1.355 . S
C1882 C1884 1.415 . S
C1883 C1882 1.355 . S
C1883 C1885 1.419 . S
C1884 C1882 1.415 . S
C1884 C1889 1.425 . S
C1884 C1891 1.409 . S
C1885 H1877 0.930 . S
C1885 C1883 1.419 . S
C1885 C1886 1.362 . S
C1886 H1878 0.930 . S
C1886 C1885 1.362 . S
C1886 C1889 1.409 . S
C1887 H1879 0.930 . S
C1887 C1888 1.355 . S
C1887 C1889 1.415 . S
C1888 C1887 1.355 . S
C1888 C1890 1.419 . S
C1889 C1884 1.425 . S
C1889 C1886 1.409 . S
C1889 C1887 1.415 . S
C1890 H1880 0.930 . S
C1890 C1888 1.419 . S
C1890 C1891 1.362 . S
C1891 H1881 0.930 . S
C1891 C1884 1.409 . S
C1891 C1890 1.362 . S
H1892 C1898 0.930 . S
H1893 C1901 0.930 . S
H1894 C1902 0.930 . S
H1895 C1903 0.930 . S
H1896 C1906 0.930 . S
H1897 C1907 0.930 . S
C1898 H1892 0.930 . S
C1898 C1899 1.355 . S
C1898 C1900 1.415 . S
C1899 C1898 1.355 . S
C1899 C1901 1.419 . S
C1900 C1898 1.415 . S
C1900 C1905 1.425 . S
C1900 C1907 1.409 . S
C1901 H1893 0.930 . S
C1901 C1899 1.419 . S
C1901 C1902 1.362 . S
C1902 H1894 0.930 . S
C1902 C1901 1.362 . S
C1902 C1905 1.409 . S
C1903 H1895 0.930 . S
C1903 C1904 1.355 . S
C1903 C1905 1.415 . S
C1904 C1903 1.355 . S
C1904 C1906 1.419 . S
C1905 C1900 1.425 . S
C1905 C1902 1.409 . S
C1905 C1903 1.415 . S
C1906 H1896 0.930 . S
C1906 C1904 1.419 . S
C1906 C1907 1.362 . S
C1907 H1897 0.930 . S
C1907 C1900 1.409 . S
C1907 C1906 1.362 . S
H1908 C1914 0.930 . S
H1909 C1917 0.930 . S
H1910 C1918 0.930 . S
H1911 C1919 0.930 . S
H1912 C1922 0.930 . S
H1913 C1923 0.930 . S
C1914 H1908 0.930 . S
C1914 C1915 1.355 . S
C1914 C1916 1.415 . S
C1915 C1914 1.355 . S
C1915 C1917 1.419 . S
C1916 C1914 1.415 . S
C1916 C1921 1.425 . S
C1916 C1923 1.409 . S
C1917 H1909 0.930 . S
C1917 C1915 1.419 . S
C1917 C1918 1.362 . S
C1918 H1910 0.930 . S
C1918 C1917 1.362 . S
C1918 C1921 1.409 . S
C1919 H1911 0.930 . S
C1919 C1920 1.355 . S
C1919 C1921 1.415 . S
C1920 C1919 1.355 . S
C1920 C1922 1.419 . S
C1921 C1916 1.425 . S
C1921 C1918 1.409 . S
C1921 C1919 1.415 . S
C1922 H1912 0.930 . S
C1922 C1920 1.419 . S
C1922 C1923 1.362 . S
C1923 H1913 0.930 . S
C1923 C1916 1.409 . S
C1923 C1922 1.362 . S
H1924 C1930 0.930 . S
H1925 C1933 0.930 . S
H1926 C1934 0.930 . S
H1927 C1935 0.930 . S
H1928 C1938 0.930 . S
H1929 C1939 0.930 . S
C1930 H1924 0.930 . S
C1930 C1931 1.355 . S
C1930 C1932 1.415 . S
C1931 C1930 1.355 . S
C1931 C1933 1.419 . S
C1932 C1930 1.415 . S
C1932 C1937 1.425 . S
C1932 C1939 1.409 . S
C1933 H1925 0.930 . S
C1933 C1931 1.419 . S
C1933 C1934 1.362 . S
C1934 H1926 0.930 . S
C1934 C1933 1.362 . S
C1934 C1937 1.409 . S
C1935 H1927 0.930 . S
C1935 C1936 1.355 . S
C1935 C1937 1.415 . S
C1936 C1935 1.355 . S
C1936 C1938 1.419 . S
C1937 C1932 1.425 . S
C1937 C1934 1.409 . S
C1937 C1935 1.415 . S
C1938 H1928 0.930 . S
C1938 C1936 1.419 . S
C1938 C1939 1.362 . S
C1939 H1929 0.930 . S
C1939 C1932 1.409 . S
C1939 C1938 1.362 . S
H1940 C1946 0.930 . S
H1941 C1949 0.930 . S
H1942 C1950 0.930 . S
H1943 C1951 0.930 . S
H1944 C1954 0.930 . S
H1945 C1955 0.930 . S
C1946 H1940 0.930 . S
C1946 C1947 1.355 . S
C1946 C1948 1.415 . S
C1947 C1946 1.355 . S
C1947 C1949 1.419 . S
C1948 C1946 1.415 . S
C1948 C1953 1.425 . S
C1948 C1955 1.409 . S
C1949 H1941 0.930 . S
C1949 C1947 1.419 . S
C1949 C1950 1.362 . S
C1950 H1942 0.930 . S
C1950 C1949 1.362 . S
C1950 C1953 1.409 . S
C1951 H1943 0.930 . S
C1951 C1952 1.355 . S
C1951 C1953 1.415 . S
C1952 C1951 1.355 . S
C1952 C1954 1.419 . S
C1953 C1948 1.425 . S
C1953 C1950 1.409 . S
C1953 C1951 1.415 . S
C1954 H1944 0.930 . S
C1954 C1952 1.419 . S
C1954 C1955 1.362 . S
C1955 H1945 0.930 . S
C1955 C1948 1.409 . S
C1955 C1954 1.362 . S
H1956 C1962 0.930 . S
H1957 C1965 0.930 . S
H1958 C1966 0.930 . S
H1959 C1967 0.930 . S
H1960 C1970 0.930 . S
H1961 C1971 0.930 . S
C1962 H1956 0.930 . S
C1962 C1963 1.355 . S
C1962 C1964 1.415 . S
C1963 C1962 1.355 . S
C1963 C1965 1.419 1_655 S
C1964 C1962 1.415 . S
C1964 C1969 1.425 1_655 S
C1964 C1971 1.409 . S
C1965 H1957 0.930 . S
C1965 C1963 1.419 1_455 S
C1965 C1966 1.362 . S
C1966 H1958 0.930 . S
C1966 C1965 1.362 . S
C1966 C1969 1.409 . S
C1967 H1959 0.930 . S
C1967 C1968 1.355 . S
C1967 C1969 1.415 . S
C1968 C1967 1.355 . S
C1968 C1970 1.419 1_455 S
C1969 C1964 1.425 1_455 S
C1969 C1966 1.409 . S
C1969 C1967 1.415 . S
C1970 H1960 0.930 . S
C1970 C1968 1.419 1_655 S
C1970 C1971 1.362 . S
C1971 H1961 0.930 . S
C1971 C1964 1.409 . S
C1971 C1970 1.362 . S
H1972 C1978 0.930 . S
H1973 C1981 0.930 . S
H1974 C1982 0.930 . S
H1975 C1983 0.930 . S
H1976 C1986 0.930 . S
H1977 C1987 0.930 . S
C1978 H1972 0.930 . S
C1978 C1979 1.355 . S
C1978 C1980 1.415 . S
C1979 C1978 1.355 . S
C1979 C1981 1.419 . S
C1980 C1978 1.415 . S
C1980 C1985 1.425 . S
C1980 C1987 1.409 . S
C1981 H1973 0.930 . S
C1981 C1979 1.419 . S
C1981 C1982 1.362 . S
C1982 H1974 0.930 . S
C1982 C1981 1.362 . S
C1982 C1985 1.409 . S
C1983 H1975 0.930 . S
C1983 C1984 1.355 . S
C1983 C1985 1.415 . S
C1984 C1983 1.355 . S
C1984 C1986 1.419 . S
C1985 C1980 1.425 . S
C1985 C1982 1.409 . S
C1985 C1983 1.415 . S
C1986 H1976 0.930 . S
C1986 C1984 1.419 . S
C1986 C1987 1.362 . S
C1987 H1977 0.930 . S
C1987 C1980 1.409 . S
C1987 C1986 1.362 . S
H1988 C1994 0.931 . S
H1989 C1997 0.930 . S
H1990 C1998 0.930 . S
H1991 C1999 0.931 . S
H1992 C2002 0.930 . S
H1993 C2003 0.930 . S
C1994 H1988 0.931 . S
C1994 C1995 1.355 . S
C1994 C1996 1.415 1_545 S
C1995 C1994 1.355 . S
C1995 C1997 1.419 . S
C1996 C1994 1.415 1_565 S
C1996 C2001 1.425 1_565 S
C1996 C2003 1.409 . S
C1997 H1989 0.930 . S
C1997 C1995 1.419 . S
C1997 C1998 1.362 . S
C1998 H1990 0.930 . S
C1998 C1997 1.362 . S
C1998 C2001 1.409 . S
C1999 H1991 0.931 . S
C1999 C2000 1.355 . S
C1999 C2001 1.415 1_565 S
C2000 C1999 1.355 . S
C2000 C2002 1.419 . S
C2001 C1996 1.425 1_545 S
C2001 C1998 1.409 . S
C2001 C1999 1.415 1_545 S
C2002 H1992 0.930 . S
C2002 C2000 1.419 . S
C2002 C2003 1.362 . S
C2003 H1993 0.930 . S
C2003 C1996 1.409 . S
C2003 C2002 1.362 . S
H2004 C2010 0.930 . S
H2005 C2013 0.930 . S
H2006 C2014 0.930 . S
H2007 C2015 0.930 . S
H2008 C2018 0.930 . S
H2009 C2019 0.930 . S
C2010 H2004 0.930 . S
C2010 C2011 1.355 . S
C2010 C2012 1.415 1_564 S
C2011 C2010 1.355 . S
C2011 C2013 1.419 . S
C2012 C2010 1.415 1_546 S
C2012 C2017 1.425 1_546 S
C2012 C2019 1.409 . S
C2013 H2005 0.930 . S
C2013 C2011 1.419 . S
C2013 C2014 1.362 . S
C2014 H2006 0.930 . S
C2014 C2013 1.362 . S
C2014 C2017 1.409 . S
C2015 H2007 0.930 . S
C2015 C2016 1.355 . S
C2015 C2017 1.415 1_546 S
C2016 C2015 1.355 . S
C2016 C2018 1.419 . S
C2017 C2012 1.425 1_564 S
C2017 C2014 1.409 . S
C2017 C2015 1.415 1_564 S
C2018 H2008 0.930 . S
C2018 C2016 1.419 . S
C2018 C2019 1.362 . S
C2019 H2009 0.930 . S
C2019 C2012 1.409 . S
C2019 C2018 1.362 . S
H2020 C2026 0.930 1_455 S
H2021 C2029 0.930 1_554 S
H2022 C2030 0.930 . S
H2023 C2031 0.930 1_655 S
H2024 C2034 0.930 1_556 S
H2025 C2035 0.930 . S
C2026 H2020 0.930 1_655 S
C2026 C2027 1.355 . S
C2026 C2028 1.415 1_655 S
C2027 C2026 1.355 . S
C2027 C2029 1.419 . S
C2028 C2026 1.415 1_455 S
C2028 C2033 1.425 1_456 S
C2028 C2035 1.409 . S
C2029 H2021 0.930 1_556 S
C2029 C2027 1.419 . S
C2029 C2030 1.362 1_556 S
C2030 H2022 0.930 . S
C2030 C2029 1.362 1_554 S
C2030 C2033 1.409 . S
C2031 H2023 0.930 1_455 S
C2031 C2032 1.355 . S
C2031 C2033 1.415 1_455 S
C2032 C2031 1.355 . S
C2032 C2034 1.419 . S
C2033 C2028 1.425 1_654 S
C2033 C2030 1.409 . S
C2033 C2031 1.415 1_655 S
C2034 H2024 0.930 1_554 S
C2034 C2032 1.419 . S
C2034 C2035 1.362 1_554 S
C2035 H2025 0.930 . S
C2035 C2028 1.409 . S
C2035 C2034 1.362 1_556 S
H2036 C2042 0.930 . S
H2037 C2045 0.925 1_556 S
H2038 C2046 0.930 . S
H2039 C2047 0.930 . S
H2040 C2050 0.925 1_554 S
H2041 C2051 0.930 . S
C2042 H2036 0.930 . S
C2042 C2043 1.355 . S
C2042 C2044 1.415 . S
C2043 C2042 1.355 . S
C2043 C2045 1.419 . S
C2044 C2042 1.415 . S
C2044 C2049 1.425 1_554 S
C2044 C2051 1.409 . S
C2045 H2037 0.925 1_554 S
C2045 C2043 1.419 . S
C2045 C2046 1.362 1_554 S
C2046 H2038 0.930 . S
C2046 C2045 1.362 1_556 S
C2046 C2049 1.409 . S
C2047 H2039 0.930 . S
C2047 C2048 1.355 . S
C2047 C2049 1.415 . S
C2048 C2047 1.355 . S
C2048 C2050 1.419 . S
C2049 C2044 1.425 1_556 S
C2049 C2046 1.409 . S
C2049 C2047 1.415 . S
C2050 H2040 0.925 1_556 S
C2050 C2048 1.419 . S
C2050 C2051 1.362 1_556 S
C2051 H2041 0.930 . S
C2051 C2044 1.409 . S
C2051 C2050 1.362 1_554 S
H2052 C2058 0.930 . S
H2053 C2061 0.933 . S
H2054 C2062 0.930 . S
H2055 C2063 0.930 . S
H2056 C2066 0.930 . S
H2057 C2067 0.930 . S
C2058 H2052 0.930 . S
C2058 C2059 1.355 . S
C2058 C2060 1.415 . S
C2059 C2058 1.355 . S
C2059 C2061 1.404 1_556 S
C2060 C2058 1.415 . S
C2060 C2065 1.425 1_556 S
C2060 C2067 1.409 . S
C2061 H2053 0.933 . S
C2061 C2059 1.404 1_554 S
C2061 C2062 1.375 . S
C2062 H2054 0.930 . S
C2062 C2061 1.375 . S
C2062 C2065 1.409 . S
C2063 H2055 0.930 . S
C2063 C2064 1.355 . S
C2063 C2065 1.415 . S
C2064 C2063 1.355 . S
C2064 C2066 1.419 . S
C2065 C2060 1.425 1_554 S
C2065 C2062 1.409 . S
C2065 C2063 1.415 . S
C2066 H2056 0.930 . S
C2066 C2064 1.419 . S
C2066 C2067 1.362 1_554 S
C2067 H2057 0.930 . S
C2067 C2060 1.409 . S
C2067 C2066 1.362 1_556 S
H2068 C2074 0.930 . S
H2069 C2077 0.930 . S
H2070 C2078 0.936 . S
H2071 C2079 0.930 . S
H2072 C2082 0.930 . S
H2073 C2083 0.940 . S
C2074 H2068 0.930 . S
C2074 C2075 1.355 . S
C2074 C2076 1.415 . S
C2075 C2074 1.355 . S
C2075 C2077 1.419 . S
C2076 C2074 1.415 . S
C2076 C2081 1.425 1_554 S
C2076 C2083 1.417 . S
C2077 H2069 0.930 . S
C2077 C2075 1.419 . S
C2077 C2078 1.362 . S
C2078 H2070 0.936 . S
C2078 C2077 1.362 . S
C2078 C2081 1.409 1_554 S
C2079 H2071 0.930 . S
C2079 C2080 1.355 . S
C2079 C2081 1.415 . S
C2080 C2079 1.355 . S
C2080 C2082 1.419 . S
C2081 C2076 1.425 1_556 S
C2081 C2078 1.409 1_556 S
C2081 C2079 1.415 . S
C2082 H2072 0.930 . S
C2082 C2080 1.419 . S
C2082 C2083 1.345 1_556 S
C2083 H2073 0.940 . S
C2083 C2076 1.417 . S
C2083 C2082 1.345 1_554 S
H2084 C2090 0.930 . S
H2085 C2093 0.930 . S
H2086 C2094 0.930 . S
H2087 C2095 0.930 . S
H2088 C2098 0.936 . S
H2089 C2099 0.930 . S
C2090 H2084 0.930 . S
C2090 C2091 1.355 . S
C2090 C2092 1.415 . S
C2091 C2090 1.355 . S
C2091 C2093 1.419 . S
C2092 C2090 1.415 . S
C2092 C2097 1.425 1_554 S
C2092 C2099 1.409 . S
C2093 H2085 0.930 . S
C2093 C2091 1.419 . S
C2093 C2094 1.362 1_554 S
C2094 H2086 0.930 . S
C2094 C2093 1.362 1_556 S
C2094 C2097 1.409 . S
C2095 H2087 0.930 . S
C2095 C2096 1.355 . S
C2095 C2097 1.415 . S
C2096 C2095 1.355 . S
C2096 C2098 1.389 1_556 S
C2097 C2092 1.425 1_556 S
C2097 C2094 1.409 . S
C2097 C2095 1.415 . S
C2098 H2088 0.936 . S
C2098 C2096 1.389 1_554 S
C2098 C2099 1.386 . S
C2099 H2089 0.930 . S
C2099 C2092 1.409 . S
C2099 C2098 1.386 . S
H2100 C2106 0.930 . S
H2101 C2109 0.930 . S
H2102 C2110 0.930 . S
H2103 C2111 0.930 . S
H2104 C2114 0.930 . S
H2105 C2115 0.930 . S
C2106 H2100 0.930 . S
C2106 C2107 1.355 . S
C2106 C2108 1.415 . S
C2107 C2106 1.355 . S
C2107 C2109 1.419 . S
C2108 C2106 1.415 . S
C2108 C2113 1.425 . S
C2108 C2115 1.409 . S
C2109 H2101 0.930 . S
C2109 C2107 1.419 . S
C2109 C2110 1.362 . S
C2110 H2102 0.930 . S
C2110 C2109 1.362 . S
C2110 C2113 1.409 . S
C2111 H2103 0.930 . S
C2111 C2112 1.355 . S
C2111 C2113 1.415 . S
C2112 C2111 1.355 . S
C2112 C2114 1.419 . S
C2113 C2108 1.425 . S
C2113 C2110 1.409 . S
C2113 C2111 1.415 . S
C2114 H2104 0.930 . S
C2114 C2112 1.419 . S
C2114 C2115 1.362 . S
C2115 H2105 0.930 . S
C2115 C2108 1.409 . S
C2115 C2114 1.362 . S
H2116 C2122 0.930 . S
H2117 C2125 0.930 . S
H2118 C2126 0.930 . S
H2119 C2127 0.930 . S
H2120 C2130 0.930 . S
H2121 C2131 0.930 . S
C2122 H2116 0.930 . S
C2122 C2123 1.355 . S
C2122 C2124 1.415 . S
C2123 C2122 1.355 . S
C2123 C2125 1.419 . S
C2124 C2122 1.415 . S
C2124 C2129 1.425 . S
C2124 C2131 1.409 . S
C2125 H2117 0.930 . S
C2125 C2123 1.419 . S
C2125 C2126 1.362 . S
C2126 H2118 0.930 . S
C2126 C2125 1.362 . S
C2126 C2129 1.409 . S
C2127 H2119 0.930 . S
C2127 C2128 1.355 . S
C2127 C2129 1.415 . S
C2128 C2127 1.355 . S
C2128 C2130 1.419 . S
C2129 C2124 1.425 . S
C2129 C2126 1.409 . S
C2129 C2127 1.415 . S
C2130 H2120 0.930 . S
C2130 C2128 1.419 . S
C2130 C2131 1.362 . S
C2131 H2121 0.930 . S
C2131 C2124 1.409 . S
C2131 C2130 1.362 . S
H2132 C2138 0.930 . S
H2133 C2141 0.930 . S
H2134 C2142 0.930 . S
H2135 C2143 0.930 . S
H2136 C2146 0.930 . S
H2137 C2147 0.930 . S
C2138 H2132 0.930 . S
C2138 C2139 1.355 . S
C2138 C2140 1.415 . S
C2139 C2138 1.355 . S
C2139 C2141 1.419 . S
C2140 C2138 1.415 . S
C2140 C2145 1.425 . S
C2140 C2147 1.409 . S
C2141 H2133 0.930 . S
C2141 C2139 1.419 . S
C2141 C2142 1.362 . S
C2142 H2134 0.930 . S
C2142 C2141 1.362 . S
C2142 C2145 1.409 . S
C2143 H2135 0.930 . S
C2143 C2144 1.355 . S
C2143 C2145 1.415 . S
C2144 C2143 1.355 . S
C2144 C2146 1.419 . S
C2145 C2140 1.425 . S
C2145 C2142 1.409 . S
C2145 C2143 1.415 . S
C2146 H2136 0.930 . S
C2146 C2144 1.419 . S
C2146 C2147 1.362 . S
C2147 H2137 0.930 . S
C2147 C2140 1.409 . S
C2147 C2146 1.362 . S
H2148 C2154 0.930 . S
H2149 C2157 0.930 . S
H2150 C2158 0.930 . S
H2151 C2159 0.930 . S
H2152 C2162 0.930 . S
H2153 C2163 0.930 . S
C2154 H2148 0.930 . S
C2154 C2155 1.355 . S
C2154 C2156 1.415 1_554 S
C2155 C2154 1.355 . S
C2155 C2157 1.419 . S
C2156 C2154 1.415 1_556 S
C2156 C2161 1.425 . S
C2156 C2163 1.409 . S
C2157 H2149 0.930 . S
C2157 C2155 1.419 . S
C2157 C2158 1.362 . S
C2158 H2150 0.930 . S
C2158 C2157 1.362 . S
C2158 C2161 1.409 1_554 S
C2159 H2151 0.930 . S
C2159 C2160 1.355 . S
C2159 C2161 1.415 . S
C2160 C2159 1.355 . S
C2160 C2162 1.419 . S
C2161 C2156 1.425 . S
C2161 C2158 1.409 1_556 S
C2161 C2159 1.415 . S
C2162 H2152 0.930 . S
C2162 C2160 1.419 . S
C2162 C2163 1.362 . S
C2163 H2153 0.930 . S
C2163 C2156 1.409 . S
C2163 C2162 1.362 . S
H2164 C2170 0.930 . S
H2165 C2173 0.930 1_556 S
H2166 C2174 0.930 . S
H2167 C2175 0.930 . S
H2168 C2178 0.930 . S
H2169 C2179 0.930 . S
C2170 H2164 0.930 . S
C2170 C2171 1.355 . S
C2170 C2172 1.415 . S
C2171 C2170 1.355 . S
C2171 C2173 1.419 . S
C2172 C2170 1.415 . S
C2172 C2177 1.425 1_554 S
C2172 C2179 1.409 . S
C2173 H2165 0.930 1_554 S
C2173 C2171 1.419 . S
C2173 C2174 1.362 1_554 S
C2174 H2166 0.930 . S
C2174 C2173 1.362 1_556 S
C2174 C2177 1.409 . S
C2175 H2167 0.930 . S
C2175 C2176 1.355 . S
C2175 C2177 1.415 . S
C2176 C2175 1.355 . S
C2176 C2178 1.419 . S
C2177 C2172 1.425 1_556 S
C2177 C2174 1.409 . S
C2177 C2175 1.415 . S
C2178 H2168 0.930 . S
C2178 C2176 1.419 . S
C2178 C2179 1.362 1_556 S
C2179 H2169 0.930 . S
C2179 C2172 1.409 . S
C2179 C2178 1.362 1_554 S
H2180 C2186 0.930 . S
H2181 C2189 0.930 . S
H2182 C2190 0.930 . S
H2183 C2191 0.930 . S
H2184 C2194 0.930 . S
H2185 C2195 0.930 . S
C2186 H2180 0.930 . S
C2186 C2187 1.355 . S
C2186 C2188 1.415 . S
C2187 C2186 1.355 . S
C2187 C2189 1.419 1_554 S
C2188 C2186 1.415 . S
C2188 C2193 1.425 1_554 S
C2188 C2195 1.409 . S
C2189 H2181 0.930 . S
C2189 C2187 1.419 1_556 S
C2189 C2190 1.362 . S
C2190 H2182 0.930 . S
C2190 C2189 1.362 . S
C2190 C2193 1.409 . S
C2191 H2183 0.930 . S
C2191 C2192 1.355 . S
C2191 C2193 1.415 . S
C2192 C2191 1.355 . S
C2192 C2194 1.419 . S
C2193 C2188 1.425 1_556 S
C2193 C2190 1.409 . S
C2193 C2191 1.415 . S
C2194 H2184 0.930 . S
C2194 C2192 1.419 . S
C2194 C2195 1.362 1_556 S
C2195 H2185 0.930 . S
C2195 C2188 1.409 . S
C2195 C2194 1.362 1_554 S
H2196 C2202 0.930 . S
H2197 C2205 0.930 . S
H2198 C2206 0.930 . S
H2199 C2207 0.930 . S
H2200 C2210 0.930 . S
H2201 C2211 0.930 . S
C2202 H2196 0.930 . S
C2202 C2203 1.355 . S
C2202 C2204 1.415 . S
C2203 C2202 1.355 . S
C2203 C2205 1.419 . S
C2204 C2202 1.415 . S
C2204 C2209 1.425 . S
C2204 C2211 1.409 . S
C2205 H2197 0.930 . S
C2205 C2203 1.419 . S
C2205 C2206 1.362 . S
C2206 H2198 0.930 . S
C2206 C2205 1.362 . S
C2206 C2209 1.409 . S
C2207 H2199 0.930 . S
C2207 C2208 1.355 . S
C2207 C2209 1.415 . S
C2208 C2207 1.355 . S
C2208 C2210 1.419 . S
C2209 C2204 1.425 . S
C2209 C2206 1.409 . S
C2209 C2207 1.415 . S
C2210 H2200 0.930 . S
C2210 C2208 1.419 . S
C2210 C2211 1.362 . S
C2211 H2201 0.930 . S
C2211 C2204 1.409 . S
C2211 C2210 1.362 . S
H2212 C2218 0.930 . S
H2213 C2221 0.930 . S
H2214 C2222 0.930 . S
H2215 C2223 0.930 . S
H2216 C2226 0.930 . S
H2217 C2227 0.930 . S
C2218 H2212 0.930 . S
C2218 C2219 1.355 . S
C2218 C2220 1.415 . S
C2219 C2218 1.355 . S
C2219 C2221 1.419 . S
C2220 C2218 1.415 . S
C2220 C2225 1.425 . S
C2220 C2227 1.409 . S
C2221 H2213 0.930 . S
C2221 C2219 1.419 . S
C2221 C2222 1.362 . S
C2222 H2214 0.930 . S
C2222 C2221 1.362 . S
C2222 C2225 1.409 . S
C2223 H2215 0.930 . S
C2223 C2224 1.355 . S
C2223 C2225 1.415 . S
C2224 C2223 1.355 . S
C2224 C2226 1.419 . S
C2225 C2220 1.425 . S
C2225 C2222 1.409 . S
C2225 C2223 1.415 . S
C2226 H2216 0.930 . S
C2226 C2224 1.419 . S
C2226 C2227 1.362 . S
C2227 H2217 0.930 . S
C2227 C2220 1.409 . S
C2227 C2226 1.362 . S
H2228 C2234 0.930 . S
H2229 C2237 0.930 . S
H2230 C2238 0.930 . S
H2231 C2239 0.930 . S
H2232 C2242 0.930 . S
H2233 C2243 0.930 . S
C2234 H2228 0.930 . S
C2234 C2235 1.355 . S
C2234 C2236 1.415 . S
C2235 C2234 1.355 . S
C2235 C2237 1.419 . S
C2236 C2234 1.415 . S
C2236 C2241 1.425 . S
C2236 C2243 1.409 . S
C2237 H2229 0.930 . S
C2237 C2235 1.419 . S
C2237 C2238 1.362 . S
C2238 H2230 0.930 . S
C2238 C2237 1.362 . S
C2238 C2241 1.409 . S
C2239 H2231 0.930 . S
C2239 C2240 1.355 . S
C2239 C2241 1.415 . S
C2240 C2239 1.355 . S
C2240 C2242 1.419 . S
C2241 C2236 1.425 . S
C2241 C2238 1.409 . S
C2241 C2239 1.415 . S
C2242 H2232 0.930 . S
C2242 C2240 1.419 . S
C2242 C2243 1.362 . S
C2243 H2233 0.930 . S
C2243 C2236 1.409 . S
C2243 C2242 1.362 . S
H2244 C2250 0.930 . S
H2245 C2253 0.930 . S
H2246 C2254 0.930 . S
H2247 C2255 0.930 . S
H2248 C2258 0.930 . S
H2249 C2259 0.930 . S
C2250 H2244 0.930 . S
C2250 C2251 1.355 . S
C2250 C2252 1.415 . S
C2251 C2250 1.355 . S
C2251 C2253 1.419 . S
C2252 C2250 1.415 . S
C2252 C2257 1.425 . S
C2252 C2259 1.409 . S
C2253 H2245 0.930 . S
C2253 C2251 1.419 . S
C2253 C2254 1.362 . S
C2254 H2246 0.930 . S
C2254 C2253 1.362 . S
C2254 C2257 1.409 . S
C2255 H2247 0.930 . S
C2255 C2256 1.355 . S
C2255 C2257 1.415 . S
C2256 C2255 1.355 . S
C2256 C2258 1.419 . S
C2257 C2252 1.425 . S
C2257 C2254 1.409 . S
C2257 C2255 1.415 . S
C2258 H2248 0.930 . S
C2258 C2256 1.419 . S
C2258 C2259 1.362 . S
C2259 H2249 0.930 . S
C2259 C2252 1.409 . S
C2259 C2258 1.362 . S
H2260 C2266 0.930 . S
H2261 C2269 0.930 . S
H2262 C2270 0.930 . S
H2263 C2271 0.930 . S
H2264 C2274 0.930 . S
H2265 C2275 0.930 . S
C2266 H2260 0.930 . S
C2266 C2267 1.355 . S
C2266 C2268 1.415 . S
C2267 C2266 1.355 . S
C2267 C2269 1.419 . S
C2268 C2266 1.415 . S
C2268 C2273 1.425 . S
C2268 C2275 1.409 . S
C2269 H2261 0.930 . S
C2269 C2267 1.419 . S
C2269 C2270 1.362 . S
C2270 H2262 0.930 . S
C2270 C2269 1.362 . S
C2270 C2273 1.409 . S
C2271 H2263 0.930 . S
C2271 C2272 1.355 . S
C2271 C2273 1.415 . S
C2272 C2271 1.355 . S
C2272 C2274 1.419 . S
C2273 C2268 1.425 . S
C2273 C2270 1.409 . S
C2273 C2271 1.415 . S
C2274 H2264 0.930 . S
C2274 C2272 1.419 . S
C2274 C2275 1.362 . S
C2275 H2265 0.930 . S
C2275 C2268 1.409 . S
C2275 C2274 1.362 . S
H2276 C2282 0.930 . S
H2277 C2285 0.930 . S
H2278 C2286 0.930 . S
H2279 C2287 0.930 . S
H2280 C2290 0.930 . S
H2281 C2291 0.930 . S
C2282 H2276 0.930 . S
C2282 C2283 1.355 . S
C2282 C2284 1.415 . S
C2283 C2282 1.355 . S
C2283 C2285 1.419 . S
C2284 C2282 1.415 . S
C2284 C2289 1.425 . S
C2284 C2291 1.409 . S
C2285 H2277 0.930 . S
C2285 C2283 1.419 . S
C2285 C2286 1.362 . S
C2286 H2278 0.930 . S
C2286 C2285 1.362 . S
C2286 C2289 1.409 . S
C2287 H2279 0.930 . S
C2287 C2288 1.355 . S
C2287 C2289 1.415 . S
C2288 C2287 1.355 . S
C2288 C2290 1.419 . S
C2289 C2284 1.425 . S
C2289 C2286 1.409 . S
C2289 C2287 1.415 . S
C2290 H2280 0.930 . S
C2290 C2288 1.419 . S
C2290 C2291 1.362 . S
C2291 H2281 0.930 . S
C2291 C2284 1.409 . S
C2291 C2290 1.362 . S
H2292 C2298 0.930 . S
H2293 C2301 0.930 . S
H2294 C2302 0.930 . S
H2295 C2303 0.930 . S
H2296 C2306 0.930 . S
H2297 C2307 0.930 . S
C2298 H2292 0.930 . S
C2298 C2299 1.355 . S
C2298 C2300 1.415 . S
C2299 C2298 1.355 . S
C2299 C2301 1.419 . S
C2300 C2298 1.415 . S
C2300 C2305 1.425 . S
C2300 C2307 1.409 . S
C2301 H2293 0.930 . S
C2301 C2299 1.419 . S
C2301 C2302 1.362 . S
C2302 H2294 0.930 . S
C2302 C2301 1.362 . S
C2302 C2305 1.409 . S
C2303 H2295 0.930 . S
C2303 C2304 1.355 . S
C2303 C2305 1.415 . S
C2304 C2303 1.355 . S
C2304 C2306 1.419 . S
C2305 C2300 1.425 . S
C2305 C2302 1.409 . S
C2305 C2303 1.415 . S
C2306 H2296 0.930 . S
C2306 C2304 1.419 . S
C2306 C2307 1.362 . S
C2307 H2297 0.930 . S
C2307 C2300 1.409 . S
C2307 C2306 1.362 . S
H2308 C2314 0.930 . S
H2309 C2317 0.930 . S
H2310 C2318 0.930 . S
H2311 C2319 0.930 . S
H2312 C2322 0.930 . S
H2313 C2323 0.930 . S
C2314 H2308 0.930 . S
C2314 C2315 1.355 . S
C2314 C2316 1.415 . S
C2315 C2314 1.355 . S
C2315 C2317 1.419 . S
C2316 C2314 1.415 . S
C2316 C2321 1.425 . S
C2316 C2323 1.409 . S
C2317 H2309 0.930 . S
C2317 C2315 1.419 . S
C2317 C2318 1.362 . S
C2318 H2310 0.930 . S
C2318 C2317 1.362 . S
C2318 C2321 1.409 . S
C2319 H2311 0.930 . S
C2319 C2320 1.355 . S
C2319 C2321 1.415 . S
C2320 C2319 1.355 . S
C2320 C2322 1.419 . S
C2321 C2316 1.425 . S
C2321 C2318 1.409 . S
C2321 C2319 1.415 . S
C2322 H2312 0.930 . S
C2322 C2320 1.419 . S
C2322 C2323 1.362 . S
C2323 H2313 0.930 . S
C2323 C2316 1.409 . S
C2323 C2322 1.362 . S
H2324 C2330 0.930 . S
H2325 C2333 0.930 . S
H2326 C2334 0.930 . S
H2327 C2335 0.930 . S
H2328 C2338 0.930 . S
H2329 C2339 0.930 . S
C2330 H2324 0.930 . S
C2330 C2331 1.355 . S
C2330 C2332 1.415 . S
C2331 C2330 1.355 . S
C2331 C2333 1.419 . S
C2332 C2330 1.415 . S
C2332 C2337 1.425 . S
C2332 C2339 1.409 . S
C2333 H2325 0.930 . S
C2333 C2331 1.419 . S
C2333 C2334 1.362 . S
C2334 H2326 0.930 . S
C2334 C2333 1.362 . S
C2334 C2337 1.409 . S
C2335 H2327 0.930 . S
C2335 C2336 1.355 . S
C2335 C2337 1.415 . S
C2336 C2335 1.355 . S
C2336 C2338 1.419 . S
C2337 C2332 1.425 . S
C2337 C2334 1.409 . S
C2337 C2335 1.415 . S
C2338 H2328 0.930 . S
C2338 C2336 1.419 . S
C2338 C2339 1.362 . S
C2339 H2329 0.930 . S
C2339 C2332 1.409 . S
C2339 C2338 1.362 . S
H2340 C2346 0.930 . S
H2341 C2349 0.930 . S
H2342 C2350 0.930 . S
H2343 C2351 0.930 . S
H2344 C2354 0.930 . S
H2345 C2355 0.930 . S
C2346 H2340 0.930 . S
C2346 C2347 1.355 . S
C2346 C2348 1.415 . S
C2347 C2346 1.355 . S
C2347 C2349 1.419 . S
C2348 C2346 1.415 . S
C2348 C2353 1.425 . S
C2348 C2355 1.409 . S
C2349 H2341 0.930 . S
C2349 C2347 1.419 . S
C2349 C2350 1.362 . S
C2350 H2342 0.930 . S
C2350 C2349 1.362 . S
C2350 C2353 1.409 . S
C2351 H2343 0.930 . S
C2351 C2352 1.355 . S
C2351 C2353 1.415 . S
C2352 C2351 1.355 . S
C2352 C2354 1.419 . S
C2353 C2348 1.425 . S
C2353 C2350 1.409 . S
C2353 C2351 1.415 . S
C2354 H2344 0.930 . S
C2354 C2352 1.419 . S
C2354 C2355 1.362 . S
C2355 H2345 0.930 . S
C2355 C2348 1.409 . S
C2355 C2354 1.362 . S
H2356 C2362 0.930 . S
H2357 C2365 0.930 . S
H2358 C2366 0.930 . S
H2359 C2367 0.930 . S
H2360 C2370 0.930 . S
H2361 C2371 0.930 . S
C2362 H2356 0.930 . S
C2362 C2363 1.355 . S
C2362 C2364 1.415 . S
C2363 C2362 1.355 . S
C2363 C2365 1.419 . S
C2364 C2362 1.415 . S
C2364 C2369 1.425 . S
C2364 C2371 1.409 . S
C2365 H2357 0.930 . S
C2365 C2363 1.419 . S
C2365 C2366 1.362 . S
C2366 H2358 0.930 . S
C2366 C2365 1.362 . S
C2366 C2369 1.409 . S
C2367 H2359 0.930 . S
C2367 C2368 1.355 . S
C2367 C2369 1.415 . S
C2368 C2367 1.355 . S
C2368 C2370 1.419 . S
C2369 C2364 1.425 . S
C2369 C2366 1.409 . S
C2369 C2367 1.415 . S
C2370 H2360 0.930 . S
C2370 C2368 1.419 . S
C2370 C2371 1.362 . S
C2371 H2361 0.930 . S
C2371 C2364 1.409 . S
C2371 C2370 1.362 . S
H2372 C2378 0.930 . S
H2373 C2381 0.930 . S
H2374 C2382 0.930 . S
H2375 C2383 0.930 . S
H2376 C2386 0.930 . S
H2377 C2387 0.930 . S
C2378 H2372 0.930 . S
C2378 C2379 1.355 . S
C2378 C2380 1.415 . S
C2379 C2378 1.355 . S
C2379 C2381 1.419 . S
C2380 C2378 1.415 . S
C2380 C2385 1.425 . S
C2380 C2387 1.409 . S
C2381 H2373 0.930 . S
C2381 C2379 1.419 . S
C2381 C2382 1.362 . S
C2382 H2374 0.930 . S
C2382 C2381 1.362 . S
C2382 C2385 1.409 . S
C2383 H2375 0.930 . S
C2383 C2384 1.355 . S
C2383 C2385 1.415 . S
C2384 C2383 1.355 . S
C2384 C2386 1.419 . S
C2385 C2380 1.425 . S
C2385 C2382 1.409 . S
C2385 C2383 1.415 . S
C2386 H2376 0.930 . S
C2386 C2384 1.419 . S
C2386 C2387 1.362 . S
C2387 H2377 0.930 . S
C2387 C2380 1.409 . S
C2387 C2386 1.362 . S
H2388 C2394 0.930 . S
H2389 C2397 0.930 . S
H2390 C2398 0.930 . S
H2391 C2399 0.930 . S
H2392 C2402 0.930 . S
H2393 C2403 0.930 . S
C2394 H2388 0.930 . S
C2394 C2395 1.355 . S
C2394 C2396 1.415 . S
C2395 C2394 1.355 . S
C2395 C2397 1.419 . S
C2396 C2394 1.415 . S
C2396 C2401 1.425 . S
C2396 C2403 1.409 . S
C2397 H2389 0.930 . S
C2397 C2395 1.419 . S
C2397 C2398 1.362 . S
C2398 H2390 0.930 . S
C2398 C2397 1.362 . S
C2398 C2401 1.409 . S
C2399 H2391 0.930 . S
C2399 C2400 1.355 . S
C2399 C2401 1.415 . S
C2400 C2399 1.355 . S
C2400 C2402 1.419 . S
C2401 C2396 1.425 . S
C2401 C2398 1.409 . S
C2401 C2399 1.415 . S
C2402 H2392 0.930 . S
C2402 C2400 1.419 . S
C2402 C2403 1.362 . S
C2403 H2393 0.930 . S
C2403 C2396 1.409 . S
C2403 C2402 1.362 . S
H2404 C2410 0.930 . S
H2405 C2413 0.930 . S
H2406 C2414 0.930 . S
H2407 C2415 0.930 . S
H2408 C2418 0.930 . S
H2409 C2419 0.930 . S
C2410 H2404 0.930 . S
C2410 C2411 1.355 . S
C2410 C2412 1.415 . S
C2411 C2410 1.355 . S
C2411 C2413 1.419 . S
C2412 C2410 1.415 . S
C2412 C2417 1.425 . S
C2412 C2419 1.409 . S
C2413 H2405 0.930 . S
C2413 C2411 1.419 . S
C2413 C2414 1.362 . S
C2414 H2406 0.930 . S
C2414 C2413 1.362 . S
C2414 C2417 1.409 . S
C2415 H2407 0.930 . S
C2415 C2416 1.355 . S
C2415 C2417 1.415 . S
C2416 C2415 1.355 . S
C2416 C2418 1.419 . S
C2417 C2412 1.425 . S
C2417 C2414 1.409 . S
C2417 C2415 1.415 . S
C2418 H2408 0.930 . S
C2418 C2416 1.419 . S
C2418 C2419 1.362 . S
C2419 H2409 0.930 . S
C2419 C2412 1.409 . S
C2419 C2418 1.362 . S
H2420 C2426 0.930 . S
H2421 C2429 0.930 . S
H2422 C2430 0.930 . S
H2423 C2431 0.930 . S
H2424 C2434 0.930 . S
H2425 C2435 0.930 . S
C2426 H2420 0.930 . S
C2426 C2427 1.355 . S
C2426 C2428 1.415 . S
C2427 C2426 1.355 . S
C2427 C2429 1.419 . S
C2428 C2426 1.415 . S
C2428 C2433 1.425 . S
C2428 C2435 1.409 . S
C2429 H2421 0.930 . S
C2429 C2427 1.419 . S
C2429 C2430 1.362 . S
C2430 H2422 0.930 . S
C2430 C2429 1.362 . S
C2430 C2433 1.409 . S
C2431 H2423 0.930 . S
C2431 C2432 1.355 . S
C2431 C2433 1.415 . S
C2432 C2431 1.355 . S
C2432 C2434 1.419 . S
C2433 C2428 1.425 . S
C2433 C2430 1.409 . S
C2433 C2431 1.415 . S
C2434 H2424 0.930 . S
C2434 C2432 1.419 . S
C2434 C2435 1.362 . S
C2435 H2425 0.930 . S
C2435 C2428 1.409 . S
C2435 C2434 1.362 . S
H2436 C2442 0.930 . S
H2437 C2445 0.930 . S
H2438 C2446 0.930 . S
H2439 C2447 0.930 . S
H2440 C2450 0.930 . S
H2441 C2451 0.930 . S
C2442 H2436 0.930 . S
C2442 C2443 1.355 . S
C2442 C2444 1.415 . S
C2443 C2442 1.355 . S
C2443 C2445 1.419 . S
C2444 C2442 1.415 . S
C2444 C2449 1.425 . S
C2444 C2451 1.409 . S
C2445 H2437 0.930 . S
C2445 C2443 1.419 . S
C2445 C2446 1.362 . S
C2446 H2438 0.930 . S
C2446 C2445 1.362 . S
C2446 C2449 1.409 . S
C2447 H2439 0.930 . S
C2447 C2448 1.355 . S
C2447 C2449 1.415 . S
C2448 C2447 1.355 . S
C2448 C2450 1.419 . S
C2449 C2444 1.425 . S
C2449 C2446 1.409 . S
C2449 C2447 1.415 . S
C2450 H2440 0.930 . S
C2450 C2448 1.419 . S
C2450 C2451 1.362 . S
C2451 H2441 0.930 . S
C2451 C2444 1.409 . S
C2451 C2450 1.362 . S
H2452 C2458 0.930 . S
H2453 C2461 0.930 . S
H2454 C2462 0.930 . S
H2455 C2463 0.930 . S
H2456 C2466 0.930 . S
H2457 C2467 0.930 . S
C2458 H2452 0.930 . S
C2458 C2459 1.355 . S
C2458 C2460 1.415 . S
C2459 C2458 1.355 . S
C2459 C2461 1.419 . S
C2460 C2458 1.415 . S
C2460 C2465 1.425 . S
C2460 C2467 1.409 . S
C2461 H2453 0.930 . S
C2461 C2459 1.419 . S
C2461 C2462 1.362 . S
C2462 H2454 0.930 . S
C2462 C2461 1.362 . S
C2462 C2465 1.409 . S
C2463 H2455 0.930 . S
C2463 C2464 1.355 . S
C2463 C2465 1.415 . S
C2464 C2463 1.355 . S
C2464 C2466 1.419 . S
C2465 C2460 1.425 . S
C2465 C2462 1.409 . S
C2465 C2463 1.415 . S
C2466 H2456 0.930 . S
C2466 C2464 1.419 . S
C2466 C2467 1.362 . S
C2467 H2457 0.930 . S
C2467 C2460 1.409 . S
C2467 C2466 1.362 . S
H2468 C2474 0.930 . S
H2469 C2477 0.930 . S
H2470 C2478 0.930 . S
H2471 C2479 0.930 . S
H2472 C2482 0.930 . S
H2473 C2483 0.930 . S
C2474 H2468 0.930 . S
C2474 C2475 1.355 . S
C2474 C2476 1.415 . S
C2475 C2474 1.355 . S
C2475 C2477 1.419 . S
C2476 C2474 1.415 . S
C2476 C2481 1.425 . S
C2476 C2483 1.409 . S
C2477 H2469 0.930 . S
C2477 C2475 1.419 . S
C2477 C2478 1.362 . S
C2478 H2470 0.930 . S
C2478 C2477 1.362 . S
C2478 C2481 1.409 . S
C2479 H2471 0.930 . S
C2479 C2480 1.355 . S
C2479 C2481 1.415 . S
C2480 C2479 1.355 . S
C2480 C2482 1.419 . S
C2481 C2476 1.425 . S
C2481 C2478 1.409 . S
C2481 C2479 1.415 . S
C2482 H2472 0.930 . S
C2482 C2480 1.419 . S
C2482 C2483 1.362 . S
C2483 H2473 0.930 . S
C2483 C2476 1.409 . S
C2483 C2482 1.362 . S
H2484 C2490 0.930 . S
H2485 C2493 0.930 . S
H2486 C2494 0.930 . S
H2487 C2495 0.930 . S
H2488 C2498 0.930 . S
H2489 C2499 0.930 . S
C2490 H2484 0.930 . S
C2490 C2491 1.355 . S
C2490 C2492 1.415 . S
C2491 C2490 1.355 . S
C2491 C2493 1.419 . S
C2492 C2490 1.415 . S
C2492 C2497 1.425 . S
C2492 C2499 1.409 . S
C2493 H2485 0.930 . S
C2493 C2491 1.419 . S
C2493 C2494 1.362 . S
C2494 H2486 0.930 . S
C2494 C2493 1.362 . S
C2494 C2497 1.409 . S
C2495 H2487 0.930 . S
C2495 C2496 1.355 . S
C2495 C2497 1.415 . S
C2496 C2495 1.355 . S
C2496 C2498 1.419 . S
C2497 C2492 1.425 . S
C2497 C2494 1.409 . S
C2497 C2495 1.415 . S
C2498 H2488 0.930 . S
C2498 C2496 1.419 . S
C2498 C2499 1.362 . S
C2499 H2489 0.930 . S
C2499 C2492 1.409 . S
C2499 C2498 1.362 . S
H2500 C2506 0.930 . S
H2501 C2509 0.930 . S
H2502 C2510 0.930 . S
H2503 C2511 0.930 . S
H2504 C2514 0.930 . S
H2505 C2515 0.930 . S
C2506 H2500 0.930 . S
C2506 C2507 1.355 . S
C2506 C2508 1.415 . S
C2507 C2506 1.355 . S
C2507 C2509 1.419 . S
C2508 C2506 1.415 . S
C2508 C2513 1.425 . S
C2508 C2515 1.409 . S
C2509 H2501 0.930 . S
C2509 C2507 1.419 . S
C2509 C2510 1.362 . S
C2510 H2502 0.930 . S
C2510 C2509 1.362 . S
C2510 C2513 1.409 . S
C2511 H2503 0.930 . S
C2511 C2512 1.355 . S
C2511 C2513 1.415 . S
C2512 C2511 1.355 . S
C2512 C2514 1.419 . S
C2513 C2508 1.425 . S
C2513 C2510 1.409 . S
C2513 C2511 1.415 . S
C2514 H2504 0.930 . S
C2514 C2512 1.419 . S
C2514 C2515 1.362 . S
C2515 H2505 0.930 . S
C2515 C2508 1.409 . S
C2515 C2514 1.362 . S
H2516 C2522 0.930 . S
H2517 C2525 0.930 . S
H2518 C2526 0.930 . S
H2519 C2527 0.930 . S
H2520 C2530 0.930 . S
H2521 C2531 0.930 . S
C2522 H2516 0.930 . S
C2522 C2523 1.355 . S
C2522 C2524 1.415 . S
C2523 C2522 1.355 . S
C2523 C2525 1.419 . S
C2524 C2522 1.415 . S
C2524 C2529 1.425 . S
C2524 C2531 1.409 . S
C2525 H2517 0.930 . S
C2525 C2523 1.419 . S
C2525 C2526 1.362 . S
C2526 H2518 0.930 . S
C2526 C2525 1.362 . S
C2526 C2529 1.409 . S
C2527 H2519 0.930 . S
C2527 C2528 1.355 . S
C2527 C2529 1.415 . S
C2528 C2527 1.355 . S
C2528 C2530 1.419 . S
C2529 C2524 1.425 . S
C2529 C2526 1.409 . S
C2529 C2527 1.415 . S
C2530 H2520 0.930 . S
C2530 C2528 1.419 . S
C2530 C2531 1.362 . S
C2531 H2521 0.930 . S
C2531 C2524 1.409 . S
C2531 C2530 1.362 . S
H2532 C2538 0.930 . S
H2533 C2541 0.930 . S
H2534 C2542 0.930 . S
H2535 C2543 0.930 . S
H2536 C2546 0.930 . S
H2537 C2547 0.930 . S
C2538 H2532 0.930 . S
C2538 C2539 1.355 . S
C2538 C2540 1.415 . S
C2539 C2538 1.355 . S
C2539 C2541 1.419 . S
C2540 C2538 1.415 . S
C2540 C2545 1.425 . S
C2540 C2547 1.409 . S
C2541 H2533 0.930 . S
C2541 C2539 1.419 . S
C2541 C2542 1.362 . S
C2542 H2534 0.930 . S
C2542 C2541 1.362 . S
C2542 C2545 1.409 . S
C2543 H2535 0.930 . S
C2543 C2544 1.355 . S
C2543 C2545 1.415 . S
C2544 C2543 1.355 . S
C2544 C2546 1.419 . S
C2545 C2540 1.425 . S
C2545 C2542 1.409 . S
C2545 C2543 1.415 . S
C2546 H2536 0.930 . S
C2546 C2544 1.419 . S
C2546 C2547 1.362 . S
C2547 H2537 0.930 . S
C2547 C2540 1.409 . S
C2547 C2546 1.362 . S
H2548 C2554 0.930 . S
H2549 C2557 0.930 . S
H2550 C2558 0.930 . S
H2551 C2559 0.930 . S
H2552 C2562 0.930 . S
H2553 C2563 0.930 . S
C2554 H2548 0.930 . S
C2554 C2555 1.355 . S
C2554 C2556 1.415 . S
C2555 C2554 1.355 . S
C2555 C2557 1.419 . S
C2556 C2554 1.415 . S
C2556 C2561 1.425 . S
C2556 C2563 1.409 . S
C2557 H2549 0.930 . S
C2557 C2555 1.419 . S
C2557 C2558 1.362 . S
C2558 H2550 0.930 . S
C2558 C2557 1.362 . S
C2558 C2561 1.409 . S
C2559 H2551 0.930 . S
C2559 C2560 1.355 . S
C2559 C2561 1.415 . S
C2560 C2559 1.355 . S
C2560 C2562 1.419 . S
C2561 C2556 1.425 . S
C2561 C2558 1.409 . S
C2561 C2559 1.415 . S
C2562 H2552 0.930 . S
C2562 C2560 1.419 . S
C2562 C2563 1.362 . S
C2563 H2553 0.930 . S
C2563 C2556 1.409 . S
C2563 C2562 1.362 . S
H2564 C2570 0.930 . S
H2565 C2573 0.930 . S
H2566 C2574 0.930 . S
H2567 C2575 0.930 . S
H2568 C2578 0.930 . S
H2569 C2579 0.930 . S
C2570 H2564 0.930 . S
C2570 C2571 1.355 . S
C2570 C2572 1.415 . S
C2571 C2570 1.355 . S
C2571 C2573 1.419 . S
C2572 C2570 1.415 . S
C2572 C2577 1.425 . S
C2572 C2579 1.409 . S
C2573 H2565 0.930 . S
C2573 C2571 1.419 . S
C2573 C2574 1.362 . S
C2574 H2566 0.930 . S
C2574 C2573 1.362 . S
C2574 C2577 1.409 . S
C2575 H2567 0.930 . S
C2575 C2576 1.355 . S
C2575 C2577 1.415 . S
C2576 C2575 1.355 . S
C2576 C2578 1.419 . S
C2577 C2572 1.425 . S
C2577 C2574 1.409 . S
C2577 C2575 1.415 . S
C2578 H2568 0.930 . S
C2578 C2576 1.419 . S
C2578 C2579 1.362 . S
C2579 H2569 0.930 . S
C2579 C2572 1.409 . S
C2579 C2578 1.362 . S
H2580 C2586 0.930 . S
H2581 C2589 0.930 . S
H2582 C2590 0.930 . S
H2583 C2591 0.930 . S
H2584 C2594 0.930 . S
H2585 C2595 0.930 . S
C2586 H2580 0.930 . S
C2586 C2587 1.355 . S
C2586 C2588 1.415 . S
C2587 C2586 1.355 . S
C2587 C2589 1.419 . S
C2588 C2586 1.415 . S
C2588 C2593 1.425 . S
C2588 C2595 1.409 . S
C2589 H2581 0.930 . S
C2589 C2587 1.419 . S
C2589 C2590 1.362 . S
C2590 H2582 0.930 . S
C2590 C2589 1.362 . S
C2590 C2593 1.409 . S
C2591 H2583 0.930 . S
C2591 C2592 1.355 . S
C2591 C2593 1.415 . S
C2592 C2591 1.355 . S
C2592 C2594 1.419 . S
C2593 C2588 1.425 . S
C2593 C2590 1.409 . S
C2593 C2591 1.415 . S
C2594 H2584 0.930 . S
C2594 C2592 1.419 . S
C2594 C2595 1.362 . S
C2595 H2585 0.930 . S
C2595 C2588 1.409 . S
C2595 C2594 1.362 . S
H2596 C2602 0.930 . S
H2597 C2605 0.930 . S
H2598 C2606 0.930 . S
H2599 C2607 0.930 . S
H2600 C2610 0.930 . S
H2601 C2611 0.930 . S
C2602 H2596 0.930 . S
C2602 C2603 1.355 . S
C2602 C2604 1.415 . S
C2603 C2602 1.355 . S
C2603 C2605 1.419 . S
C2604 C2602 1.415 . S
C2604 C2609 1.425 . S
C2604 C2611 1.409 . S
C2605 H2597 0.930 . S
C2605 C2603 1.419 . S
C2605 C2606 1.362 . S
C2606 H2598 0.930 . S
C2606 C2605 1.362 . S
C2606 C2609 1.409 . S
C2607 H2599 0.930 . S
C2607 C2608 1.355 . S
C2607 C2609 1.415 . S
C2608 C2607 1.355 . S
C2608 C2610 1.419 . S
C2609 C2604 1.425 . S
C2609 C2606 1.409 . S
C2609 C2607 1.415 . S
C2610 H2600 0.930 . S
C2610 C2608 1.419 . S
C2610 C2611 1.362 . S
C2611 H2601 0.930 . S
C2611 C2604 1.409 . S
C2611 C2610 1.362 . S
H2612 C2618 0.930 . S
H2613 C2621 0.930 . S
H2614 C2622 0.930 . S
H2615 C2623 0.930 . S
H2616 C2626 0.930 . S
H2617 C2627 0.930 . S
C2618 H2612 0.930 . S
C2618 C2619 1.355 . S
C2618 C2620 1.415 . S
C2619 C2618 1.355 . S
C2619 C2621 1.419 . S
C2620 C2618 1.415 . S
C2620 C2625 1.425 . S
C2620 C2627 1.409 . S
C2621 H2613 0.930 . S
C2621 C2619 1.419 . S
C2621 C2622 1.362 . S
C2622 H2614 0.930 . S
C2622 C2621 1.362 . S
C2622 C2625 1.409 . S
C2623 H2615 0.930 . S
C2623 C2624 1.355 . S
C2623 C2625 1.415 . S
C2624 C2623 1.355 . S
C2624 C2626 1.419 . S
C2625 C2620 1.425 . S
C2625 C2622 1.409 . S
C2625 C2623 1.415 . S
C2626 H2616 0.930 . S
C2626 C2624 1.419 . S
C2626 C2627 1.362 . S
C2627 H2617 0.930 . S
C2627 C2620 1.409 . S
C2627 C2626 1.362 . S
C1195 C120 0.481 . S
C1200 C21 0.596 . S
C1211 C54 0.474 . S
C1216 C153 0.580 . S
C1227 C186 0.589 . S
C1232 C87 0.626 . S
C1243 C318 0.567 . S
C1248 C219 0.612 . S
C1259 C252 0.654 . S
C1264 C351 0.574 . S
C1275 C384 0.554 . S
C1280 C285 0.475 . S
C1291 C516 0.482 . S
C1296 C417 0.597 . S
C1307 C450 0.481 . S
C1312 C549 0.538 . S
C1323 C582 0.488 . S
C1328 C483 0.524 . S
C1339 C615 0.617 . S
C1344 C714 0.553 . S
C1355 C648 0.563 . S
C1360 C747 0.614 . S
C1371 C780 0.505 . S
C1376 C681 0.614 . S
C1387 C912 0.618 . S
C1392 C813 0.546 . S
C1403 C945 0.484 . S
C1408 C846 0.599 . S
C1419 C978 0.534 . S
C1424 C879 0.483 . S
C1435 C1110 0.535 . S
C1440 C1011 0.482 . S
C1451 C1044 0.615 . S
C1456 C1143 0.560 . S
C1467 C1176 0.477 . S
C1472 C1077 0.589 . S
C1483 C7 1.700 . S
C1488 C964 1.731 . S
C1499 C898 1.733 . S
C1504 C40 1.756 1_565 S
C1515 C73 1.736 1_455 S
C1520 C931 1.704 . S
C1531 C436 1.743 . S
C1536 C106 1.710 . S
C1547 C139 1.699 1_545 S
C1552 C469 1.728 . S
C1563 C403 1.743 . S
C1568 C172 1.709 1_655 S
C1579 C766 1.720 . S
C1584 C205 1.696 . S
C1595 C700 1.739 . S
C1600 C238 1.706 1_545 S
C1611 C733 1.723 . S
C1616 C271 1.697 1_655 S
C1627 C304 1.699 . S
C1632 C1030 1.701 . S
C1643 C1063 1.737 . S
C1648 C337 1.756 1_565 S
C1659 C370 1.695 1_455 S
C1664 C997 1.716 . S
C1675 C832 1.745 . S
C1680 C502 1.712 . S
C1691 C865 1.745 . S
C1696 C535 1.712 . S
C1707 C799 1.745 . S
C1712 C568 1.713 . S
C1723 C601 1.748 . S
C1728 C1162 1.755 . S
C1739 C634 1.756 . S
C1744 C1096 1.733 . S
C1755 C1129 1.750 . S
C1760 C667 1.753 . S
C1771 N13 1.296 . S
C1776 N607 1.296 . S
C1787 N640 1.300 . S
C1792 N46 1.300 . S
C1803 N79 1.271 . S
C1808 N673 1.271 . S
C1819 N1102 1.327 . S
C1824 N112 1.327 . S
C1835 N145 1.289 . S
C1840 N1135 1.289 . S
C1851 N1168 1.330 . S
C1856 N178 1.330 . S
C1867 N211 1.317 . S
C1872 N805 1.317 . S
C1883 N244 1.297 . S
C1888 N838 1.297 . S
C1899 N277 1.289 . S
C1904 N871 1.289 . S
C1915 N508 1.331 . S
C1920 N310 1.331 . S
C1931 N541 1.312 . S
C1936 N343 1.312 . S
C1947 N376 1.326 . S
C1952 N574 1.326 . S
C1963 N409 1.275 . S
C1968 N1003 1.275 . S
C1979 N1036 1.328 . S
C1984 N442 1.328 . S
C1995 N475 1.280 . S
C2000 N1069 1.280 . S
C2011 N904 1.331 . S
C2016 N706 1.331 . S
C2027 N739 1.267 . S
C2032 N937 1.267 . S
C2043 N970 1.266 . S
C2048 N772 1.266 . S
C2059 N233 1.509 . S
C2064 C18 1.606 . S
C2075 C51 1.603 . S
C2080 N266 1.510 . S
C2091 C84 1.603 . S
C2096 N200 1.498 . S
C2107 C117 1.615 . S
C2112 N365 1.572 . S
C2123 C150 1.602 . S
C2128 N299 1.497 . S
C2139 C183 1.605 . S
C2144 N332 1.505 . S
C2155 N35 1.568 . S
C2160 C216 1.616 . S
C2171 N68 1.497 . S
C2176 C249 1.603 . S
C2187 N2 1.508 . S
C2192 C282 1.606 . S
C2203 C315 1.611 . S
C2208 N167 1.556 . S
C2219 C348 1.614 . S
C2224 N101 1.559 . S
C2235 C381 1.616 . S
C2240 N134 1.567 . S
C2251 C414 1.602 . S
C2256 N629 1.497 . S
C2267 N662 1.574 . S
C2272 C447 1.616 . S
C2283 N596 1.509 . S
C2288 C480 1.606 . S
C2299 C513 1.612 . S
C2304 N761 1.562 . S
C2315 N695 1.501 . S
C2320 C546 1.604 . S
C2331 N728 1.569 . S
C2336 C579 1.616 . S
C2347 C612 1.603 . S
C2352 N431 1.511 . S
C2363 C645 1.603 . S
C2368 N464 1.498 . S
C2379 N398 1.527 . S
C2384 C678 1.609 . S
C2395 N563 1.557 . S
C2400 C711 1.611 . S
C2411 N497 1.551 . S
C2416 C744 1.613 . S
C2427 N530 1.568 . S
C2432 C777 1.616 . S
C2443 C810 1.613 . S
C2448 N1025 1.546 . S
C2459 N1058 1.569 . S
C2464 C843 1.616 . S
C2475 N992 1.519 . S
C2480 C876 1.608 . S
C2491 C909 1.616 . S
C2496 N1157 1.572 . S
C2507 C942 1.609 . S
C2512 N1091 1.526 . S
C2523 C975 1.606 . S
C2528 N1124 1.528 . S
C2539 N827 1.497 . S
C2544 C1008 1.603 . S
C2555 N860 1.569 . S
C2560 C1041 1.616 . S
C2571 C1074 1.616 . S
C2576 N794 1.574 . S
C2587 C1107 1.615 . S
C2592 N959 1.571 . S
C2603 C1140 1.603 . S
C2608 N893 1.511 . S
C2619 C1173 1.603 . S
C2624 N926 1.508 . S
