# Generated by pormake.
# Topology whz, (6)-cn, num edge types: 1
# Building blocks:
#     Node 0, Type 0, BuildingBlock: UKALOJ_clean_sbu_0, # of connection points: 6
#     Node 1, Type 0, BuildingBlock: UKALOJ_clean_sbu_0, # of connection points: 6
#     Node 2, Type 0, BuildingBlock: UKALOJ_clean_sbu_0, # of connection points: 6
#     Node 3, Type 0, BuildingBlock: UKALOJ_clean_sbu_0, # of connection points: 6
#     Node 4, Type 0, BuildingBlock: UKALOJ_clean_sbu_0, # of connection points: 6
#     Node 5, Type 0, BuildingBlock: UKALOJ_clean_sbu_0, # of connection points: 6
#     Node 6, Type 0, BuildingBlock: UKALOJ_clean_sbu_0, # of connection points: 6
#     Node 7, Type 0, BuildingBlock: UKALOJ_clean_sbu_0, # of connection points: 6
#     Node 8, Type 0, BuildingBlock: UKALOJ_clean_sbu_0, # of connection points: 6
#     Node 9, Type 0, BuildingBlock: UKALOJ_clean_sbu_0, # of connection points: 6
#     Node 10, Type 0, BuildingBlock: UKALOJ_clean_sbu_0, # of connection points: 6
#     Node 11, Type 0, BuildingBlock: UKALOJ_clean_sbu_0, # of connection points: 6
#     Node 12, Type 0, BuildingBlock: UKALOJ_clean_sbu_0, # of connection points: 6
#     Node 13, Type 0, BuildingBlock: UKALOJ_clean_sbu_0, # of connection points: 6
#     Node 14, Type 0, BuildingBlock: UKALOJ_clean_sbu_0, # of connection points: 6
#     Node 15, Type 0, BuildingBlock: UKALOJ_clean_sbu_0, # of connection points: 6
#     Edge 16, Type (0, 0), BuildingBlock: ZUJKAS_clean_linker_0, # of connection points: 2
#     Edge 17, Type (0, 0), BuildingBlock: ZUJKAS_clean_linker_0, # of connection points: 2
#     Edge 18, Type (0, 0), BuildingBlock: ZUJKAS_clean_linker_0, # of connection points: 2
#     Edge 19, Type (0, 0), BuildingBlock: ZUJKAS_clean_linker_0, # of connection points: 2
#     Edge 20, Type (0, 0), BuildingBlock: ZUJKAS_clean_linker_0, # of connection points: 2
#     Edge 21, Type (0, 0), BuildingBlock: ZUJKAS_clean_linker_0, # of connection points: 2
#     Edge 22, Type (0, 0), BuildingBlock: ZUJKAS_clean_linker_0, # of connection points: 2
#     Edge 23, Type (0, 0), BuildingBlock: ZUJKAS_clean_linker_0, # of connection points: 2
#     Edge 24, Type (0, 0), BuildingBlock: ZUJKAS_clean_linker_0, # of connection points: 2
#     Edge 25, Type (0, 0), BuildingBlock: ZUJKAS_clean_linker_0, # of connection points: 2
#     Edge 26, Type (0, 0), BuildingBlock: ZUJKAS_clean_linker_0, # of connection points: 2
#     Edge 27, Type (0, 0), BuildingBlock: ZUJKAS_clean_linker_0, # of connection points: 2
#     Edge 28, Type (0, 0), BuildingBlock: ZUJKAS_clean_linker_0, # of connection points: 2
#     Edge 29, Type (0, 0), BuildingBlock: ZUJKAS_clean_linker_0, # of connection points: 2
#     Edge 30, Type (0, 0), BuildingBlock: ZUJKAS_clean_linker_0, # of connection points: 2
#     Edge 31, Type (0, 0), BuildingBlock: ZUJKAS_clean_linker_0, # of connection points: 2
#     Edge 32, Type (0, 0), BuildingBlock: ZUJKAS_clean_linker_0, # of connection points: 2
#     Edge 33, Type (0, 0), BuildingBlock: ZUJKAS_clean_linker_0, # of connection points: 2
#     Edge 34, Type (0, 0), BuildingBlock: ZUJKAS_clean_linker_0, # of connection points: 2
#     Edge 35, Type (0, 0), BuildingBlock: ZUJKAS_clean_linker_0, # of connection points: 2
#     Edge 36, Type (0, 0), BuildingBlock: ZUJKAS_clean_linker_0, # of connection points: 2
#     Edge 37, Type (0, 0), BuildingBlock: ZUJKAS_clean_linker_0, # of connection points: 2
#     Edge 38, Type (0, 0), BuildingBlock: ZUJKAS_clean_linker_0, # of connection points: 2
#     Edge 39, Type (0, 0), BuildingBlock: ZUJKAS_clean_linker_0, # of connection points: 2
#     Edge 40, Type (0, 0), BuildingBlock: ZUJKAS_clean_linker_0, # of connection points: 2
#     Edge 41, Type (0, 0), BuildingBlock: ZUJKAS_clean_linker_0, # of connection points: 2
#     Edge 42, Type (0, 0), BuildingBlock: ZUJKAS_clean_linker_0, # of connection points: 2
#     Edge 43, Type (0, 0), BuildingBlock: ZUJKAS_clean_linker_0, # of connection points: 2
#     Edge 44, Type (0, 0), BuildingBlock: ZUJKAS_clean_linker_0, # of connection points: 2
#     Edge 45, Type (0, 0), BuildingBlock: ZUJKAS_clean_linker_0, # of connection points: 2
#     Edge 46, Type (0, 0), BuildingBlock: ZUJKAS_clean_linker_0, # of connection points: 2
#     Edge 47, Type (0, 0), BuildingBlock: ZUJKAS_clean_linker_0, # of connection points: 2
#     Edge 48, Type (0, 0), BuildingBlock: ZUJKAS_clean_linker_0, # of connection points: 2
#     Edge 49, Type (0, 0), BuildingBlock: ZUJKAS_clean_linker_0, # of connection points: 2
#     Edge 50, Type (0, 0), BuildingBlock: ZUJKAS_clean_linker_0, # of connection points: 2
#     Edge 51, Type (0, 0), BuildingBlock: ZUJKAS_clean_linker_0, # of connection points: 2
#     Edge 52, Type (0, 0), BuildingBlock: ZUJKAS_clean_linker_0, # of connection points: 2
#     Edge 53, Type (0, 0), BuildingBlock: ZUJKAS_clean_linker_0, # of connection points: 2
#     Edge 54, Type (0, 0), BuildingBlock: ZUJKAS_clean_linker_0, # of connection points: 2
#     Edge 55, Type (0, 0), BuildingBlock: ZUJKAS_clean_linker_0, # of connection points: 2
#     Edge 56, Type (0, 0), BuildingBlock: ZUJKAS_clean_linker_0, # of connection points: 2
#     Edge 57, Type (0, 0), BuildingBlock: ZUJKAS_clean_linker_0, # of connection points: 2
#     Edge 58, Type (0, 0), BuildingBlock: ZUJKAS_clean_linker_0, # of connection points: 2
#     Edge 59, Type (0, 0), BuildingBlock: ZUJKAS_clean_linker_0, # of connection points: 2
#     Edge 60, Type (0, 0), BuildingBlock: ZUJKAS_clean_linker_0, # of connection points: 2
#     Edge 61, Type (0, 0), BuildingBlock: ZUJKAS_clean_linker_0, # of connection points: 2
#     Edge 62, Type (0, 0), BuildingBlock: ZUJKAS_clean_linker_0, # of connection points: 2
#     Edge 63, Type (0, 0), BuildingBlock: ZUJKAS_clean_linker_0, # of connection points: 2
# Relax obj value: 0.339
# Max RMSD: 0.232
# Mean RMSD: 0.232
data_MOF--net-whz--node1-UKALOJ_clean_sbu_0--edge1-ZUJKAS_clean_linker_0
_symmetry_space_group_name_H-M    P1
_symmetry_Int_Tables_number       1
_symmetry_cell_setting            triclinic
loop_
_symmetry_equiv_pos_as_xyz
'x, y, z'
_cell_length_a     51.247698
_cell_length_b     51.226282
_cell_length_c     62.053168
_cell_angle_alpha  89.997557
_cell_angle_beta   89.996826
_cell_angle_gamma 90.001458
loop_
_atom_site_label
_atom_site_type_symbol
_atom_site_fract_x
_atom_site_fract_y
_atom_site_fract_z
_atom_type_partial_charge
Zn0 Zn 0.30595 0.14924 0.12289 0.0
O1 O 0.30882 0.16692 0.15399 0.0
C2 C 0.31156 0.09611 0.14238 0.0
Zn3 Zn 0.26765 0.13158 0.13169 0.0
C4 C 0.29074 0.16252 0.16757 0.0
O5 O 0.27209 0.14749 0.16243 0.0
C6 C 0.28033 0.11956 0.08648 0.0
O7 O 0.24882 0.1663 0.12213 0.0
O8 O 0.28629 0.18306 0.11169 0.0
N9 N 0.23347 0.11527 0.14178 0.0
C10 C 0.20891 0.11454 0.134 0.0
C11 C 0.20974 0.0911 0.16239 0.0
N12 N 0.23384 0.10082 0.15947 0.0
N13 N 0.19365 0.09945 0.14669 0.0
C14 C 0.35606 0.18477 0.11971 0.0
C15 C 0.37814 0.16432 0.09602 0.0
N16 N 0.34168 0.16398 0.11349 0.0
N17 N 0.35549 0.1514 0.09873 0.0
N18 N 0.3791 0.1853 0.10908 0.0
H19 H 0.32545 0.20782 0.13387 0.0
H20 H 0.35663 0.2242 0.13193 0.0
H21 H 0.3517 0.19905 0.1518 0.0
C22 C 0.34688 0.20526 0.13515 0.0
C23 C 0.2003 0.12753 0.11356 0.0
H24 H 0.21709 0.1321 0.10302 0.0
H25 H 0.19036 0.14613 0.11762 0.0
H26 H 0.18627 0.11494 0.10476 0.0
O27 O 0.26305 0.11607 0.10083 0.0
O28 O 0.30116 0.13183 0.09136 0.0
C29 C 0.2617 0.18521 0.11415 0.0
O30 O 0.32513 0.11509 0.13533 0.0
O31 O 0.28688 0.09754 0.14165 0.0
Zn32 Zn 0.60055 0.55438 0.37133 0.0
O33 O 0.58135 0.557 0.40183 0.0
C34 C 0.65256 0.55927 0.3924 0.0
Zn35 Zn 0.61737 0.51554 0.37961 0.0
C36 C 0.58504 0.53838 0.41502 0.0
O37 O 0.59971 0.51957 0.40967 0.0
C38 C 0.63171 0.52931 0.33528 0.0
O39 O 0.58337 0.49677 0.36835 0.0
O40 O 0.56709 0.53488 0.35939 0.0
N41 N 0.63228 0.4809 0.39013 0.0
C42 C 0.63673 0.45756 0.38077 0.0
C43 C 0.64658 0.45388 0.41403 0.0
N44 N 0.63848 0.47853 0.41076 0.0
N45 N 0.6457 0.44033 0.39548 0.0
C46 C 0.57848 0.6116 0.37205 0.0
C47 C 0.56429 0.61526 0.3399 0.0
N48 N 0.58465 0.58933 0.36156 0.0
N49 N 0.57593 0.59178 0.34157 0.0
N50 N 0.56565 0.62814 0.35878 0.0
H51 H 0.56526 0.60884 0.40457 0.0
H52 H 0.58526 0.63686 0.39941 0.0
H53 H 0.59996 0.60488 0.40139 0.0
C54 C 0.58268 0.61588 0.39568 0.0
C55 C 0.63095 0.45131 0.35768 0.0
H56 H 0.62487 0.43063 0.35597 0.0
H57 H 0.64892 0.45429 0.34802 0.0
H58 H 0.6155 0.46423 0.35123 0.0
O59 O 0.6347 0.51155 0.34935 0.0
O60 O 0.61912 0.54993 0.34023 0.0
C61 C 0.56471 0.51022 0.36071 0.0
O62 O 0.63442 0.57334 0.3845 0.0
O63 O 0.6506 0.53458 0.39144 0.0
Zn64 Zn 0.19792 0.85064 0.62299 0.0
O65 O 0.19583 0.8331 0.65398 0.0
C66 C 0.1892 0.90332 0.64165 0.0
Zn67 Zn 0.2355 0.87014 0.63121 0.0
C68 C 0.2138 0.83834 0.66744 0.0
O69 O 0.23184 0.85405 0.66211 0.0
C70 C 0.222 0.88085 0.5861 0.0
O71 O 0.25667 0.83655 0.62179 0.0
O72 O 0.21974 0.81795 0.61254 0.0
N73 N 0.26844 0.88889 0.6413 0.0
C74 C 0.2933 0.88971 0.63421 0.0
C75 C 0.29114 0.9133 0.66249 0.0
N76 N 0.26718 0.9036 0.65882 0.0
N77 N 0.30793 0.90494 0.6473 0.0
C78 C 0.14214 0.82512 0.62356 0.0
C79 C 0.13862 0.81262 0.59095 0.0
N80 N 0.16427 0.8322 0.61327 0.0
N81 N 0.16198 0.82437 0.59303 0.0
N82 N 0.12573 0.81266 0.60988 0.0
H83 H 0.14269 0.81529 0.65701 0.0
H84 H 0.11501 0.83469 0.64895 0.0
H85 H 0.14687 0.84945 0.65167 0.0
C86 C 0.13625 0.83167 0.64659 0.0
C87 C 0.30345 0.87325 0.61608 0.0
H88 H 0.3075 0.8534 0.62237 0.0
H89 H 0.32183 0.88092 0.60925 0.0
H90 H 0.28861 0.87157 0.60316 0.0
O91 O 0.23928 0.88565 0.60021 0.0
O92 O 0.20194 0.86758 0.59134 0.0
C93 C 0.24442 0.81688 0.61444 0.0
O94 O 0.17644 0.88374 0.63468 0.0
O95 O 0.21394 0.90294 0.64096 0.0
Zn96 Zn 0.88253 0.48409 0.88163 0.0
O97 O 0.91655 0.50449 0.87252 0.0
C98 C 0.87141 0.47158 0.8364 0.0
Zn99 Zn 0.90164 0.44648 0.8728 0.0
C100 C 0.93602 0.49239 0.86471 0.0
O101 O 0.93475 0.46777 0.86222 0.0
C102 C 0.84862 0.43864 0.89178 0.0
O103 O 0.91948 0.44362 0.90358 0.0
O104 O 0.89867 0.47945 0.9124 0.0
N105 N 0.91918 0.41243 0.86274 0.0
C106 C 0.92603 0.39016 0.87295 0.0
C107 C 0.93798 0.38645 0.84022 0.0
N108 N 0.92665 0.41001 0.84242 0.0
N109 N 0.93802 0.37355 0.85915 0.0
C110 C 0.86135 0.54141 0.88333 0.0
C111 C 0.84573 0.54237 0.91516 0.0
N112 N 0.8652 0.51764 0.89213 0.0
N113 N 0.85542 0.51832 0.91186 0.0
N114 N 0.84909 0.55732 0.89751 0.0
H115 H 0.8869 0.53658 0.85586 0.0
H116 H 0.8771 0.56983 0.86122 0.0
H117 H 0.85441 0.54685 0.84968 0.0
C118 C 0.87067 0.54915 0.86133 0.0
C119 C 0.9197 0.38434 0.89603 0.0
H120 H 0.93624 0.39064 0.90633 0.0
H121 H 0.91653 0.36311 0.89842 0.0
H122 H 0.90206 0.39511 0.90122 0.0
O123 O 0.86804 0.4257 0.88467 0.0
O124 O 0.84927 0.46339 0.89127 0.0
C125 C 0.91438 0.46127 0.91735 0.0
O126 O 0.86698 0.48873 0.85072 0.0
O127 O 0.88445 0.45125 0.84134 0.0
Zn128 Zn 0.73551 0.86917 0.871 0.0
O129 O 0.75565 0.83476 0.87931 0.0
C130 C 0.72301 0.88004 0.91663 0.0
Zn131 Zn 0.69792 0.85046 0.88027 0.0
C132 C 0.74361 0.8157 0.88784 0.0
O133 O 0.7192 0.81749 0.89124 0.0
C134 C 0.69006 0.90336 0.86131 0.0
O135 O 0.69586 0.83251 0.84927 0.0
O136 O 0.73091 0.85434 0.83993 0.0
N137 N 0.66378 0.83257 0.88986 0.0
C138 C 0.64144 0.82635 0.87948 0.0
C139 C 0.63872 0.81073 0.91125 0.0
N140 N 0.66192 0.82292 0.9096 0.0
N141 N 0.62542 0.81261 0.8926 0.0
C142 C 0.79397 0.88655 0.86842 0.0
C143 C 0.79294 0.91183 0.84111 0.0
N144 N 0.76914 0.88711 0.86121 0.0
N145 N 0.76858 0.90283 0.84428 0.0
N146 N 0.80928 0.90199 0.85603 0.0
H147 H 0.80466 0.84864 0.87949 0.0
H148 H 0.82288 0.8741 0.89207 0.0
H149 H 0.78919 0.86859 0.89951 0.0
C150 C 0.80333 0.86875 0.88599 0.0
C151 C 0.63665 0.83136 0.85602 0.0
H152 H 0.64411 0.81453 0.8466 0.0
H153 H 0.61556 0.83343 0.85254 0.0
H154 H 0.64705 0.84917 0.85066 0.0
O155 O 0.67711 0.88378 0.86808 0.0
O156 O 0.71479 0.90283 0.86214 0.0
C157 C 0.71299 0.83825 0.8352 0.0
O158 O 0.74024 0.88348 0.90219 0.0
O159 O 0.70203 0.86797 0.91181 0.0
Zn160 Zn 0.3838 0.48703 0.62125 0.0
O161 O 0.41769 0.50629 0.63172 0.0
C162 C 0.36971 0.47429 0.66591 0.0
Zn163 Zn 0.40153 0.44892 0.63051 0.0
C164 C 0.43631 0.49383 0.64048 0.0
O165 O 0.43438 0.46925 0.64301 0.0
C166 C 0.34956 0.44278 0.60905 0.0
O167 O 0.42144 0.44632 0.60032 0.0
O168 O 0.40111 0.48225 0.59112 0.0
N169 N 0.41735 0.41403 0.64085 0.0
C170 C 0.42558 0.39239 0.63042 0.0
C171 C 0.4323 0.38622 0.66392 0.0
N172 N 0.42155 0.41007 0.66166 0.0
N173 N 0.43519 0.37471 0.64455 0.0
C174 C 0.36423 0.5449 0.61917 0.0
C175 C 0.35307 0.54744 0.58612 0.0
N176 N 0.36838 0.52126 0.61025 0.0
N177 N 0.36137 0.52292 0.58975 0.0
N178 N 0.35461 0.56163 0.60433 0.0
H179 H 0.37744 0.57254 0.64297 0.0
H180 H 0.35323 0.54968 0.6521 0.0
H181 H 0.38631 0.53897 0.64843 0.0
C182 C 0.3709 0.55192 0.64195 0.0
C183 C 0.4227 0.38802 0.60667 0.0
H184 H 0.44008 0.39602 0.59829 0.0
H185 H 0.42123 0.36688 0.60296 0.0
H186 H 0.40512 0.39816 0.6005 0.0
O187 O 0.36821 0.42923 0.6168 0.0
O188 O 0.35072 0.46749 0.61015 0.0
C189 C 0.41681 0.464 0.58646 0.0
O190 O 0.36684 0.4918 0.65162 0.0
O191 O 0.3822 0.45352 0.66122 0.0
Zn192 Zn 0.80415 0.1515 0.37942 0.0
O193 O 0.80629 0.16917 0.34842 0.0
C194 C 0.81259 0.0992 0.36017 0.0
Zn195 Zn 0.76638 0.13244 0.37109 0.0
C196 C 0.78792 0.16464 0.33515 0.0
O197 O 0.76962 0.14927 0.34051 0.0
C198 C 0.78022 0.12102 0.41612 0.0
O199 O 0.74519 0.16558 0.3811 0.0
O200 O 0.78231 0.18425 0.38979 0.0
N201 N 0.73331 0.11402 0.36096 0.0
C202 C 0.70863 0.11268 0.36841 0.0
C203 C 0.7107 0.08897 0.34022 0.0
N204 N 0.73448 0.09934 0.34343 0.0
N205 N 0.69404 0.09708 0.35561 0.0
C206 C 0.86002 0.1768 0.37896 0.0
C207 C 0.86348 0.18932 0.41157 0.0
N208 N 0.83781 0.16988 0.38919 0.0
N209 N 0.84006 0.17772 0.40943 0.0
N210 N 0.87645 0.18917 0.39268 0.0
H211 H 0.85529 0.15247 0.35086 0.0
H212 H 0.85968 0.18662 0.34551 0.0
H213 H 0.88722 0.16708 0.35367 0.0
C214 C 0.86598 0.17021 0.35596 0.0
C215 C 0.69933 0.12557 0.38869 0.0
H216 H 0.69036 0.14463 0.38455 0.0
H217 H 0.68441 0.11334 0.39682 0.0
H218 H 0.71572 0.12924 0.3999 0.0
O219 O 0.76309 0.11611 0.4019 0.0
O220 O 0.80011 0.13462 0.41102 0.0
C221 C 0.75758 0.1853 0.38817 0.0
O222 O 0.82557 0.11824 0.36786 0.0
O223 O 0.78785 0.10013 0.36055 0.0
Zn224 Zn 0.12007 0.51541 0.12167 0.0
O225 O 0.08729 0.49296 0.13078 0.0
C226 C 0.1303 0.53027 0.16683 0.0
Zn227 Zn 0.09948 0.55242 0.12986 0.0
C228 C 0.06749 0.50446 0.13866 0.0
O229 O 0.06793 0.52913 0.14091 0.0
C230 C 0.15156 0.56298 0.11105 0.0
O231 O 0.08169 0.5527 0.09886 0.0
O232 O 0.10456 0.51792 0.09061 0.0
N233 N 0.07904 0.58534 0.13876 0.0
C234 C 0.07541 0.609 0.12959 0.0
C235 C 0.05172 0.60764 0.15779 0.0
N236 N 0.06435 0.58466 0.15631 0.0
N237 N 0.05832 0.62337 0.14127 0.0
C238 C 0.14169 0.45825 0.11944 0.0
C239 C 0.16645 0.46106 0.09189 0.0
N240 N 0.14043 0.48308 0.11226 0.0
N241 N 0.15588 0.48474 0.09521 0.0
N242 N 0.15794 0.44405 0.10686 0.0
H243 H 0.10513 0.44376 0.13053 0.0
H244 H 0.13234 0.42918 0.14387 0.0
H245 H 0.12285 0.46229 0.15024 0.0
C246 C 0.12483 0.44769 0.13715 0.0
C247 C 0.08743 0.61737 0.10869 0.0
H248 H 0.07377 0.62996 0.0995 0.0
H249 H 0.10535 0.62879 0.11213 0.0
H250 H 0.09298 0.60034 0.09874 0.0
O251 O 0.13142 0.57516 0.11762 0.0
O252 O 0.15212 0.53825 0.11216 0.0
C253 C 0.08787 0.53508 0.08536 0.0
O254 O 0.13497 0.51276 0.15286 0.0
O255 O 0.11684 0.55019 0.16149 0.0
Zn256 Zn 0.80402 0.65243 0.62244 0.0
O257 O 0.80598 0.67066 0.65326 0.0
C258 C 0.81166 0.60043 0.64237 0.0
Zn259 Zn 0.76591 0.63413 0.63083 0.0
C260 C 0.78761 0.66637 0.66657 0.0
O261 O 0.76918 0.65113 0.6613 0.0
C262 C 0.77986 0.62166 0.58601 0.0
O263 O 0.74525 0.66752 0.62038 0.0
O264 O 0.78273 0.68524 0.61142 0.0
N265 N 0.73276 0.61598 0.64112 0.0
C266 C 0.70786 0.61519 0.63411 0.0
C267 C 0.70998 0.5922 0.66273 0.0
N268 N 0.73398 0.60166 0.65885 0.0
N269 N 0.69319 0.60035 0.64747 0.0
C270 C 0.86032 0.67644 0.62338 0.0
C271 C 0.8633 0.69214 0.59166 0.0
N272 N 0.83806 0.6703 0.61288 0.0
N273 N 0.84006 0.68 0.59317 0.0
N274 N 0.87644 0.69016 0.61037 0.0
H275 H 0.8574 0.68828 0.65625 0.0
H276 H 0.88595 0.66932 0.65051 0.0
H277 H 0.85445 0.65364 0.65221 0.0
C278 C 0.8649 0.67142 0.64688 0.0
C279 C 0.69781 0.6313 0.61574 0.0
H280 H 0.69496 0.65159 0.62149 0.0
H281 H 0.67884 0.62424 0.60959 0.0
H282 H 0.71228 0.6317 0.60245 0.0
O283 O 0.76245 0.61757 0.60018 0.0
O284 O 0.80007 0.63488 0.591 0.0
C285 C 0.75802 0.6868 0.61294 0.0
O286 O 0.82498 0.61921 0.63464 0.0
O287 O 0.78695 0.60166 0.64169 0.0
Zn288 Zn 0.10115 0.05273 0.87325 0.0
O289 O 0.08273 0.0546 0.90399 0.0
C290 C 0.15342 0.06166 0.89272 0.0
Zn291 Zn 0.12025 0.01535 0.88252 0.0
C292 C 0.08811 0.03726 0.91797 0.0
O293 O 0.1043 0.01941 0.91331 0.0
C294 C 0.13184 0.0284 0.83714 0.0
O295 O 0.08676 0.99412 0.87342 0.0
O296 O 0.06881 0.03054 0.86208 0.0
N297 N 0.13865 0.98232 0.8928 0.0
C298 C 0.13933 0.95743 0.88573 0.0
C299 C 0.16387 0.95973 0.91341 0.0
N300 N 0.15385 0.98363 0.91001 0.0
N301 N 0.15501 0.94284 0.89847 0.0
C302 C 0.07611 0.1087 0.87372 0.0
C303 C 0.06051 0.111 0.84193 0.0
N304 N 0.08266 0.08638 0.86344 0.0
N305 N 0.07301 0.08797 0.84368 0.0
N306 N 0.06219 0.12443 0.86053 0.0
H307 H 0.06411 0.10621 0.90657 0.0
H308 H 0.08287 0.13483 0.90057 0.0
H309 H 0.09878 0.10346 0.90269 0.0
C310 C 0.08096 0.1137 0.89718 0.0
C311 C 0.12569 0.94791 0.86587 0.0
H312 H 0.10646 0.93968 0.87048 0.0
H313 H 0.13725 0.93239 0.85784 0.0
H314 H 0.12226 0.96407 0.85438 0.0
O315 O 0.13568 0.01124 0.85156 0.0
O316 O 0.11905 0.04896 0.84191 0.0
C317 C 0.06753 0.00598 0.86498 0.0
O318 O 0.13387 0.07437 0.88561 0.0
O319 O 0.1531 0.03691 0.89208 0.0
Zn320 Zn 0.73638 0.36926 0.13125 0.0
O321 O 0.75645 0.33521 0.12164 0.0
C322 C 0.72342 0.38114 0.08612 0.0
Zn323 Zn 0.69816 0.3512 0.12263 0.0
C324 C 0.74368 0.31598 0.11413 0.0
O325 O 0.71905 0.3178 0.11206 0.0
C326 C 0.69122 0.40398 0.14171 0.0
O327 O 0.69531 0.3334 0.15354 0.0
O328 O 0.732 0.35296 0.16198 0.0
N329 N 0.66384 0.334 0.11272 0.0
C330 C 0.64123 0.32809 0.12283 0.0
C331 C 0.63766 0.31533 0.0903 0.0
N332 N 0.6615 0.32602 0.09253 0.0
N333 N 0.62444 0.31622 0.10907 0.0
C334 C 0.79484 0.387 0.13419 0.0
C335 C 0.79345 0.41062 0.16245 0.0
N336 N 0.77008 0.38647 0.14155 0.0
N337 N 0.76934 0.40109 0.15913 0.0
N338 N 0.80991 0.40202 0.14709 0.0
H339 H 0.8125 0.35469 0.11807 0.0
H340 H 0.81886 0.38582 0.10569 0.0
H341 H 0.7873 0.37038 0.10278 0.0
C342 C 0.8038 0.37386 0.11391 0.0
C343 C 0.63536 0.33516 0.14575 0.0
H344 H 0.64703 0.3522 0.15094 0.0
H345 H 0.6405 0.31846 0.15632 0.0
H346 H 0.61432 0.33961 0.14781 0.0
O347 O 0.67785 0.38497 0.13446 0.0
O348 O 0.71594 0.40269 0.14125 0.0
C349 C 0.71336 0.33788 0.16712 0.0
O350 O 0.7407 0.38501 0.10043 0.0
O351 O 0.70284 0.3685 0.09107 0.0
Zn352 Zn 0.38334 0.98608 0.38175 0.0
O353 O 0.4172 0.00622 0.37211 0.0
C354 C 0.3709 0.97302 0.33681 0.0
Zn355 Zn 0.40171 0.94816 0.37297 0.0
C356 C 0.4363 0.99386 0.36399 0.0
O357 O 0.43469 0.96923 0.36166 0.0
C358 C 0.34924 0.94088 0.39279 0.0
O359 O 0.4203 0.94563 0.40368 0.0
O360 O 0.39973 0.98168 0.41228 0.0
N361 N 0.41898 0.91399 0.36291 0.0
C362 C 0.42617 0.89188 0.37318 0.0
C363 C 0.43751 0.88791 0.34031 0.0
N364 N 0.42606 0.91141 0.3425 0.0
N365 N 0.43801 0.8752 0.35933 0.0
C366 C 0.36251 0.04355 0.38361 0.0
C367 C 0.34705 0.04435 0.4155 0.0
N368 N 0.3663 0.01971 0.39228 0.0
N369 N 0.35662 0.02029 0.41205 0.0
N370 N 0.35039 0.05941 0.39792 0.0
H371 H 0.38761 0.03861 0.35587 0.0
H372 H 0.37856 0.07198 0.3617 0.0
H373 H 0.35529 0.04969 0.35009 0.0
C374 C 0.37173 0.05143 0.36162 0.0
C375 C 0.42031 0.88627 0.39637 0.0
H376 H 0.43695 0.89288 0.40642 0.0
H377 H 0.41741 0.86504 0.39897 0.0
H378 H 0.40263 0.89692 0.40167 0.0
O379 O 0.36828 0.92763 0.38538 0.0
O380 O 0.35026 0.96562 0.392 0.0
C381 C 0.4153 0.96345 0.41734 0.0
O382 O 0.36736 0.99053 0.35099 0.0
O383 O 0.38361 0.95248 0.34177 0.0
Zn384 Zn 0.23496 0.36969 0.36851 0.0
O385 O 0.2557 0.33595 0.37784 0.0
C386 C 0.22271 0.38168 0.41372 0.0
Zn387 Zn 0.19766 0.35055 0.37794 0.0
C388 C 0.2438 0.31678 0.38634 0.0
O389 O 0.21926 0.31808 0.3892 0.0
C390 C 0.18926 0.40318 0.35847 0.0
O391 O 0.1949 0.33167 0.34746 0.0
O392 O 0.23007 0.35304 0.33794 0.0
N393 N 0.16383 0.3329 0.38826 0.0
C394 C 0.14132 0.32659 0.37819 0.0
C395 C 0.13912 0.31134 0.41011 0.0
N396 N 0.16231 0.32349 0.4081 0.0
N397 N 0.12554 0.31304 0.39159 0.0
C398 C 0.29184 0.39175 0.36602 0.0
C399 C 0.29335 0.40338 0.33303 0.0
N400 N 0.26828 0.38668 0.35731 0.0
N401 N 0.26929 0.39399 0.33685 0.0
N402 N 0.30789 0.40224 0.35107 0.0
H403 H 0.32055 0.38053 0.3897 0.0
H404 H 0.29536 0.40216 0.39919 0.0
H405 H 0.28797 0.36833 0.39475 0.0
C406 C 0.29943 0.38512 0.38869 0.0
C407 C 0.13615 0.33127 0.35473 0.0
H408 H 0.14317 0.31416 0.34542 0.0
H409 H 0.11504 0.33358 0.35149 0.0
H410 H 0.14666 0.34883 0.349 0.0
O411 O 0.17654 0.38365 0.36562 0.0
O412 O 0.21402 0.40274 0.35879 0.0
C413 C 0.21221 0.33682 0.33342 0.0
O414 O 0.23982 0.38577 0.39929 0.0
O415 O 0.20232 0.36861 0.40902 0.0
Zn416 Zn 0.90261 0.94771 0.1301 0.0
O417 O 0.92051 0.94487 0.09935 0.0
C418 C 0.84965 0.94012 0.11098 0.0
Zn419 Zn 0.88349 0.98547 0.1216 0.0
C420 C 0.91552 0.96273 0.08575 0.0
O421 O 0.90002 0.98099 0.09089 0.0
C422 C 0.87222 0.97259 0.16663 0.0
O423 O 0.91734 0.00582 0.1312 0.0
O424 O 0.93571 0.9689 0.14078 0.0
N425 N 0.86673 0.01926 0.11098 0.0
C426 C 0.86225 0.04278 0.12003 0.0
C427 C 0.85027 0.04515 0.08717 0.0
N428 N 0.85919 0.02081 0.09061 0.0
N429 N 0.85192 0.05934 0.10537 0.0
C430 C 0.92719 0.89143 0.12982 0.0
C431 C 0.93913 0.88763 0.16255 0.0
N432 N 0.92013 0.91358 0.14011 0.0
N433 N 0.92759 0.9111 0.16043 0.0
N434 N 0.93933 0.87484 0.14357 0.0
H435 H 0.93735 0.89228 0.09644 0.0
H436 H 0.918 0.86444 0.10423 0.0
H437 H 0.90312 0.89628 0.10161 0.0
C438 C 0.92091 0.88569 0.10672 0.0
C439 C 0.86927 0.04984 0.14273 0.0
H440 H 0.87465 0.07078 0.14389 0.0
H441 H 0.85213 0.04633 0.15326 0.0
H442 H 0.88563 0.03771 0.14868 0.0
O443 O 0.86759 0.98983 0.15242 0.0
O444 O 0.88538 0.9524 0.16153 0.0
C445 C 0.93688 0.99359 0.13873 0.0
O446 O 0.869 0.92712 0.11814 0.0
O447 O 0.85032 0.96489 0.11155 0.0
Zn448 Zn 0.30334 0.65162 0.88081 0.0
O449 O 0.3052 0.67053 0.85029 0.0
C450 C 0.31194 0.59973 0.86057 0.0
Zn451 Zn 0.26574 0.63264 0.87176 0.0
C452 C 0.28736 0.6658 0.83658 0.0
O453 O 0.26934 0.64982 0.84134 0.0
C454 C 0.27923 0.61999 0.91671 0.0
O455 O 0.24456 0.66562 0.88201 0.0
O456 O 0.28129 0.68382 0.89235 0.0
N457 N 0.23262 0.61448 0.86131 0.0
C458 C 0.20793 0.61292 0.86876 0.0
C459 C 0.21001 0.5899 0.84019 0.0
N460 N 0.23378 0.60023 0.84354 0.0
N461 N 0.19334 0.59759 0.85572 0.0
C462 C 0.35919 0.67723 0.88052 0.0
C463 C 0.36312 0.68859 0.91338 0.0
N464 N 0.33717 0.6698 0.89082 0.0
N465 N 0.33972 0.67692 0.91122 0.0
N466 N 0.3758 0.68922 0.89435 0.0
H467 H 0.35407 0.65393 0.85187 0.0
H468 H 0.35834 0.68825 0.84733 0.0
H469 H 0.38602 0.66846 0.85473 0.0
C470 C 0.36481 0.67148 0.8573 0.0
C471 C 0.19863 0.62534 0.88924 0.0
H472 H 0.21503 0.62908 0.9004 0.0
H473 H 0.18936 0.64434 0.88537 0.0
H474 H 0.18395 0.61277 0.89731 0.0
O475 O 0.26211 0.61606 0.90229 0.0
O476 O 0.29954 0.63322 0.91203 0.0
C477 C 0.25661 0.68489 0.89023 0.0
O478 O 0.32479 0.61897 0.86806 0.0
O479 O 0.2872 0.60023 0.86119 0.0
Zn480 Zn 0.61831 0.01692 0.62094 0.0
O481 O 0.58442 0.99725 0.63098 0.0
C482 C 0.6321 0.02913 0.66589 0.0
Zn483 Zn 0.60056 0.05487 0.63064 0.0
C484 C 0.5658 0.00957 0.63988 0.0
O485 O 0.56778 0.03409 0.64277 0.0
C486 C 0.65258 0.06165 0.6096 0.0
O487 O 0.58082 0.05764 0.60041 0.0
O488 O 0.60128 0.02199 0.59076 0.0
N489 N 0.58427 0.0895 0.64119 0.0
C490 C 0.57665 0.11153 0.63097 0.0
C491 C 0.56612 0.11557 0.66403 0.0
N492 N 0.5778 0.09219 0.66172 0.0
N493 N 0.56517 0.12822 0.64501 0.0
C494 C 0.63853 0.95926 0.61824 0.0
C495 C 0.65003 0.95755 0.58524 0.0
N496 N 0.63415 0.98302 0.60962 0.0
N497 N 0.64136 0.98187 0.58915 0.0
N498 N 0.64851 0.94297 0.60323 0.0
H499 H 0.61619 0.96439 0.64746 0.0
H500 H 0.62532 0.931 0.64151 0.0
H501 H 0.64931 0.95377 0.65113 0.0
C502 C 0.63173 0.95168 0.64087 0.0
C503 C 0.57813 0.11523 0.60703 0.0
H504 H 0.5612 0.10533 0.59946 0.0
H505 H 0.57742 0.13603 0.60235 0.0
H506 H 0.59627 0.10633 0.60064 0.0
O507 O 0.6338 0.07502 0.61735 0.0
O508 O 0.65142 0.03691 0.61032 0.0
C509 C 0.58547 0.04022 0.58635 0.0
O510 O 0.63497 0.01183 0.65141 0.0
O511 O 0.6197 0.05002 0.66139 0.0
H512 H 0.26063 0.15138 0.20245 0.0
H513 H 0.24803 0.18148 0.2311 0.0
H514 H 0.30221 0.23867 0.20666 0.0
H515 H 0.31475 0.20873 0.17767 0.0
H516 H 0.27516 0.2099 0.26355 0.0
H517 H 0.22968 0.27414 0.20181 0.0
H518 H 0.24006 0.24123 0.19596 0.0
H519 H 0.26368 0.26705 0.1978 0.0
C520 C 0.27034 0.17013 0.20344 0.0
C521 C 0.2885 0.1778 0.18766 0.0
C522 C 0.26306 0.18731 0.21981 0.0
C523 C 0.27372 0.21247 0.22063 0.0
C524 C 0.29341 0.21946 0.20599 0.0
H525 H 0.24246 0.34745 0.29849 0.0
H526 H 0.25508 0.31702 0.2701 0.0
C527 C 0.30079 0.20222 0.1896 0.0
C528 C 0.26275 0.23182 0.23581 0.0
H529 H 0.22787 0.28858 0.23795 0.0
C530 C 0.26481 0.2271 0.258 0.0
C531 C 0.24904 0.25407 0.22842 0.0
C532 C 0.24521 0.25943 0.20471 0.0
C533 C 0.25398 0.2444 0.27308 0.0
C534 C 0.2403 0.26667 0.26569 0.0
C535 C 0.23821 0.27137 0.2435 0.0
C536 C 0.22944 0.28612 0.28085 0.0
C537 C 0.25783 0.23906 0.2968 0.0
C538 C 0.20979 0.27927 0.29558 0.0
C539 C 0.2024 0.2967 0.31183 0.0
C540 C 0.21466 0.32117 0.31354 0.0
C541 C 0.2328 0.32866 0.29769 0.0
C542 C 0.24008 0.31129 0.28147 0.0
H543 H 0.27333 0.22431 0.29969 0.0
H544 H 0.26305 0.25726 0.30553 0.0
H545 H 0.23935 0.23151 0.30373 0.0
H546 H 0.20098 0.26006 0.29504 0.0
H547 H 0.18836 0.29038 0.32379 0.0
H548 H 0.46412 0.44187 0.57689 0.0
H549 H 0.49296 0.45434 0.54699 0.0
H550 H 0.43245 0.50362 0.52101 0.0
H551 H 0.4037 0.49152 0.55072 0.0
H552 H 0.487 0.45435 0.49973 0.0
H553 H 0.49434 0.55371 0.53529 0.0
H554 H 0.48208 0.52604 0.5502 0.0
H555 H 0.4617 0.54213 0.53075 0.0
C556 C 0.45676 0.4548 0.56448 0.0
C557 C 0.43182 0.46601 0.56626 0.0
C558 C 0.47327 0.46201 0.54752 0.0
C559 C 0.46496 0.4804 0.5322 0.0
C560 C 0.43935 0.48985 0.53298 0.0
H561 H 0.53825 0.56124 0.42508 0.0
H562 H 0.50913 0.54843 0.45471 0.0
C563 C 0.42294 0.48279 0.54989 0.0
C564 C 0.48343 0.4911 0.51622 0.0
H565 H 0.51432 0.54737 0.50127 0.0
C566 C 0.4931 0.47462 0.50008 0.0
C567 C 0.4912 0.51761 0.51678 0.0
C568 C 0.482 0.53592 0.53427 0.0
C569 C 0.51007 0.48412 0.48417 0.0
C570 C 0.51793 0.51062 0.48478 0.0
C571 C 0.50822 0.52709 0.50091 0.0
C572 C 0.53657 0.5213 0.46891 0.0
C573 C 0.51909 0.46584 0.4666 0.0
C574 C 0.56199 0.51135 0.46792 0.0
C575 C 0.57854 0.5186 0.45116 0.0
C576 C 0.57002 0.53611 0.43519 0.0
C577 C 0.54533 0.54777 0.43721 0.0
C578 C 0.52865 0.54035 0.45401 0.0
H579 H 0.50639 0.44832 0.46536 0.0
H580 H 0.51939 0.47587 0.45074 0.0
H581 H 0.53921 0.45914 0.47024 0.0
H582 H 0.56863 0.49711 0.47961 0.0
H583 H 0.59758 0.5095 0.45012 0.0
H584 H 0.24603 0.84906 0.70116 0.0
H585 H 0.25803 0.81955 0.73041 0.0
H586 H 0.20038 0.76416 0.70872 0.0
H587 H 0.18832 0.79353 0.67917 0.0
H588 H 0.22966 0.79405 0.76417 0.0
H589 H 0.2713 0.72497 0.70415 0.0
H590 H 0.26263 0.75814 0.69741 0.0
H591 H 0.23769 0.73372 0.70007 0.0
C592 C 0.2355 0.83084 0.70285 0.0
C593 C 0.21645 0.82346 0.68769 0.0
C594 C 0.24242 0.81401 0.71956 0.0
C595 C 0.23051 0.78949 0.72136 0.0
C596 C 0.21011 0.78285 0.70729 0.0
H597 H 0.2556 0.65613 0.80237 0.0
H598 H 0.24407 0.68639 0.77356 0.0
C599 C 0.20308 0.79975 0.69056 0.0
C600 C 0.24075 0.77036 0.73705 0.0
H601 H 0.27266 0.71201 0.74068 0.0
C602 C 0.23909 0.77612 0.75909 0.0
C603 C 0.25325 0.74715 0.73025 0.0
C604 C 0.25659 0.74061 0.70669 0.0
C605 C 0.24909 0.75891 0.77462 0.0
C606 C 0.26152 0.73565 0.76782 0.0
C607 C 0.26326 0.72995 0.74577 0.0
C608 C 0.27137 0.71626 0.78348 0.0
C609 C 0.24566 0.76541 0.79818 0.0
C610 C 0.29149 0.72256 0.79793 0.0
C611 C 0.29824 0.70523 0.81444 0.0
C612 C 0.28489 0.6814 0.81668 0.0
C613 C 0.26611 0.67443 0.80118 0.0
C614 C 0.25946 0.69169 0.78471 0.0
H615 H 0.23101 0.7811 0.8007 0.0
H616 H 0.2395 0.74789 0.80742 0.0
H617 H 0.26456 0.7722 0.80486 0.0
H618 H 0.30126 0.74127 0.79693 0.0
H619 H 0.31282 0.71113 0.82611 0.0
H620 H 0.90463 0.49348 0.95126 0.0
H621 H 0.93491 0.50522 0.98001 0.0
H622 H 0.98927 0.44709 0.95748 0.0
H623 H 0.959 0.43507 0.92852 0.0
H624 H 0.98305 0.45269 0.00501 0.0
H625 H 0.00299 0.54568 0.96176 0.0
H626 H 0.96912 0.53851 0.96649 0.0
H627 H 0.98785 0.51793 0.94889 0.0
C628 C 0.92277 0.48276 0.95266 0.0
C629 C 0.9296 0.46358 0.93745 0.0
C630 C 0.94007 0.48961 0.96903 0.0
C631 C 0.96447 0.47744 0.97044 0.0
C632 C 0.97055 0.45683 0.95643 0.0
H633 H 0.09898 0.5019 0.05231 0.0
H634 H 0.06987 0.48915 0.02302 0.0
C635 C 0.9532 0.44991 0.93999 0.0
C636 C 0.98419 0.48749 0.98565 0.0
H637 H 0.02172 0.54101 0.99648 0.0
C638 C 0.99165 0.47191 0.00313 0.0
C639 C 0.9953 0.51258 0.983 0.0
C640 C 0.98864 0.52964 0.96394 0.0
C641 C 0.00958 0.48106 0.01844 0.0
C642 C 0.02055 0.50623 0.01589 0.0
C643 C 0.0132 0.52175 0.99832 0.0
C644 C 0.0396 0.51669 0.03149 0.0
C645 C 0.01626 0.46399 0.03749 0.0
C646 C 0.03273 0.53744 0.04511 0.0
C647 C 0.0494 0.54494 0.06184 0.0
C648 C 0.07312 0.53172 0.06511 0.0
C649 C 0.08072 0.5123 0.05036 0.0
C650 C 0.06409 0.50487 0.03368 0.0
H651 H 0.00213 0.44771 0.03947 0.0
H652 H 0.03594 0.45545 0.03509 0.0
H653 H 0.01666 0.47562 0.05259 0.0
H654 H 0.01394 0.54692 0.04347 0.0
H655 H 0.04301 0.55997 0.07292 0.0
H656 H 0.74242 0.85061 0.80018 0.0
H657 H 0.75398 0.8218 0.77037 0.0
H658 H 0.70099 0.76337 0.79464 0.0
H659 H 0.68907 0.79224 0.82451 0.0
H660 H 0.77733 0.77337 0.77854 0.0
H661 H 0.68747 0.76256 0.7293 0.0
H662 H 0.69209 0.78912 0.74806 0.0
H663 H 0.683 0.75732 0.75769 0.0
C664 C 0.73267 0.83191 0.79888 0.0
C665 C 0.71496 0.8236 0.81478 0.0
C666 C 0.73937 0.81546 0.78186 0.0
C667 C 0.7284 0.79048 0.78035 0.0
C668 C 0.70944 0.78273 0.79539 0.0
H669 H 0.75663 0.65553 0.70097 0.0
H670 H 0.7447 0.68522 0.73009 0.0
C671 C 0.70263 0.79925 0.81244 0.0
C672 C 0.73891 0.77167 0.7645 0.0
H673 H 0.7223 0.73343 0.72169 0.0
C674 C 0.76536 0.76472 0.76601 0.0
C675 C 0.72319 0.7604 0.7483 0.0
C676 C 0.6949 0.76785 0.74554 0.0
C677 C 0.77646 0.7464 0.75193 0.0
C678 C 0.76073 0.73507 0.73576 0.0
C679 C 0.73429 0.7421 0.7342 0.0
C680 C 0.77113 0.71587 0.72016 0.0
C681 C 0.80472 0.7389 0.75478 0.0
C682 C 0.79065 0.72294 0.70539 0.0
C683 C 0.79774 0.70586 0.68879 0.0
C684 C 0.78509 0.68166 0.68661 0.0
C685 C 0.76666 0.67409 0.70219 0.0
C686 C 0.75973 0.69106 0.71879 0.0
H687 H 0.81207 0.74414 0.77106 0.0
H688 H 0.80753 0.71762 0.75226 0.0
H689 H 0.81671 0.74944 0.74271 0.0
H690 H 0.79943 0.74216 0.706 0.0
H691 H 0.81181 0.71232 0.67691 0.0
H692 H 0.74466 0.34816 0.20149 0.0
H693 H 0.75587 0.31827 0.23068 0.0
H694 H 0.69858 0.26333 0.2076 0.0
H695 H 0.68729 0.29313 0.17811 0.0
H696 H 0.72669 0.29188 0.26383 0.0
H697 H 0.76994 0.22459 0.20314 0.0
H698 H 0.76131 0.2579 0.19687 0.0
H699 H 0.73637 0.23339 0.19889 0.0
C700 C 0.73401 0.32997 0.20287 0.0
C701 C 0.71533 0.32283 0.18734 0.0
C702 C 0.74047 0.31292 0.21955 0.0
C703 C 0.72846 0.28842 0.22094 0.0
C704 C 0.70836 0.28203 0.20651 0.0
H705 H 0.7561 0.15424 0.30114 0.0
H706 H 0.74347 0.1844 0.27254 0.0
C707 C 0.70178 0.29916 0.18981 0.0
C708 C 0.73852 0.26898 0.23646 0.0
H709 H 0.77156 0.21121 0.2395 0.0
C710 C 0.73648 0.27422 0.25857 0.0
C711 C 0.75148 0.24612 0.22943 0.0
C712 C 0.75517 0.24014 0.2058 0.0
C713 C 0.7467 0.2569 0.27393 0.0
C714 C 0.75974 0.2341 0.26688 0.0
C715 C 0.76172 0.22883 0.24478 0.0
C716 C 0.77024 0.21481 0.28233 0.0
C717 C 0.74296 0.26284 0.29756 0.0
C718 C 0.79044 0.22147 0.29658 0.0
C719 C 0.79788 0.20417 0.31291 0.0
C720 C 0.78508 0.18005 0.3152 0.0
C721 C 0.76621 0.17275 0.29988 0.0
C722 C 0.75891 0.18997 0.28355 0.0
H723 H 0.72793 0.27813 0.30023 0.0
H724 H 0.73716 0.24499 0.30653 0.0
H725 H 0.76166 0.26992 0.30443 0.0
H726 H 0.79974 0.24042 0.29558 0.0
H727 H 0.81246 0.21034 0.32447 0.0
H728 H 0.90451 0.9939 0.05147 0.0
H729 H 0.9339 0.00555 0.02214 0.0
H730 H 0.99006 0.9493 0.04502 0.0
H731 H 0.96074 0.93762 0.0747 0.0
H732 H 0.00929 1.0008 0.04118 0.0
H733 H 0.9582 0.96996 0.96656 0.0
H734 H 0.93825 0.98848 0.98478 0.0
H735 H 0.95014 0.95692 0.99278 0.0
C736 C 0.92281 0.98347 0.04995 0.0
C737 C 0.9304 0.96495 0.06546 0.0
C738 C 0.93955 0.9901 0.03311 0.0
C739 C 0.96409 0.97824 0.0314 0.0
C740 C 0.97113 0.95862 0.04609 0.0
H741 H 0.09899 0.00657 0.95259 0.0
H742 H 0.06938 0.99499 0.98178 0.0
C743 C 0.9543 0.95185 0.06293 0.0
C744 C 0.98336 0.98848 0.01582 0.0
H745 H 0.99376 0.99941 0.96229 0.0
C746 C 0.00604 1.00032 0.02391 0.0
C747 C 0.97882 0.98812 0.99337 0.0
C748 C 0.95515 0.97499 0.9838 0.0
C749 C 0.02422 0.01213 0.01012 0.0
C750 C 0.01971 0.01173 0.98765 0.0
C751 C 0.99701 0.99991 0.97957 0.0
C752 C 0.03902 0.0219 0.97207 0.0
C753 C 0.04784 0.02533 0.01972 0.0
C754 C 0.03195 0.04124 0.95714 0.0
C755 C 0.04889 0.04793 0.94035 0.0
C756 C 0.07297 0.03507 0.93812 0.0
C757 C 0.08056 0.01683 0.95386 0.0
C758 C 0.0637 0.01024 0.97063 0.0
H759 H 0.0446 0.03065 0.03687 0.0
H760 H 0.06468 0.01175 0.01903 0.0
H761 H 0.05302 0.04324 0.01059 0.0
H762 H 0.01292 0.05039 0.95799 0.0
H763 H 0.04243 0.06195 0.92841 0.0
H764 H 0.40219 0.99214 0.45249 0.0
H765 H 0.43101 0.00502 0.48194 0.0
H766 H 0.49109 0.95426 0.45723 0.0
H767 H 0.46219 0.94101 0.42764 0.0
H768 H 0.48575 0.95598 0.50411 0.0
H769 H 0.49295 0.05421 0.46648 0.0
H770 H 0.4603 0.04302 0.47159 0.0
H771 H 0.48028 0.02618 0.45229 0.0
C772 C 0.42133 0.98324 0.45357 0.0
C773 C 0.4301 0.96582 0.43762 0.0
C774 C 0.43779 0.99076 0.47032 0.0
C775 C 0.46333 0.98112 0.47134 0.0
C776 C 0.47147 0.96209 0.45651 0.0
H777 H 0.59777 0.01259 0.55045 0.0
H778 H 0.5682 1.00016 0.5214 0.0
C779 C 0.45491 0.95442 0.43973 0.0
C780 C 0.48196 0.99228 0.48698 0.0
H781 H 0.5133 0.04884 0.50048 0.0
C782 C 0.49187 0.97622 0.50331 0.0
C783 C 0.48982 0.01874 0.4858 0.0
C784 C 0.48051 0.03655 0.46801 0.0
C785 C 0.5092 0.98609 0.51879 0.0
C786 C 0.51708 0.01254 0.51759 0.0
C787 C 0.50713 0.02861 0.50129 0.0
C788 C 0.53602 0.02354 0.53303 0.0
C789 C 0.51867 0.96826 0.53651 0.0
C790 C 0.52814 0.04211 0.54833 0.0
C791 C 0.54512 0.04949 0.56493 0.0
C792 C 0.57009 0.03827 0.56633 0.0
C793 C 0.57854 0.02135 0.54991 0.0
C794 C 0.56166 0.0141 0.53337 0.0
H795 H 0.50634 0.95051 0.538 0.0
H796 H 0.53891 0.96194 0.53287 0.0
H797 H 0.51887 0.97858 0.55224 0.0
H798 H 0.50844 0.04976 0.54814 0.0
H799 H 0.53807 0.06251 0.57739 0.0
H800 H 0.14975 0.10515 0.91793 0.0
H801 H 0.18013 0.11782 0.94642 0.0
H802 H 0.2347 0.05938 0.92457 0.0
H803 H 0.20382 0.0459 0.89672 0.0
H804 H 0.22507 0.05212 0.96471 0.0
H805 H 0.24622 0.15706 0.95511 0.0
H806 H 0.21171 0.15149 0.95532 0.0
H807 H 0.23135 0.13802 0.93393 0.0
C808 C 0.16865 0.09572 0.91868 0.0
C809 C 0.17442 0.07453 0.90512 0.0
C810 C 0.1861 0.10301 0.935 0.0
C811 C 0.20989 0.08967 0.93769 0.0
C812 C 0.21651 0.06996 0.92292 0.0
H813 H 0.3086 0.13025 0.04974 0.0
H814 H 0.29549 0.12171 0.01231 0.0
C815 C 0.1989 0.06235 0.90691 0.0
C816 C 0.22579 0.09335 0.95758 0.0
H817 H 0.25157 0.13948 0.99121 0.0
C818 C 0.23128 0.07123 0.97022 0.0
C819 C 0.23428 0.11815 0.96484 0.0
C820 C 0.23082 0.14245 0.95144 0.0
C821 C 0.24378 0.07334 0.99026 0.0
C822 C 0.25038 0.09832 0.99827 0.0
C823 C 0.2462 0.12034 0.9852 0.0
C824 C 0.25953 0.10209 0.0208 0.0
C825 C 0.24947 0.04871 0.00276 0.0
C826 C 0.24378 0.09381 0.03798 0.0
C827 C 0.25126 0.09845 0.05925 0.0
C828 C 0.27459 0.11178 0.06392 0.0
C829 C 0.29064 0.11972 0.04672 0.0
C830 C 0.2831 0.11501 0.02532 0.0
H831 H 0.2518 0.0317 0.99181 0.0
H832 H 0.26744 0.05072 0.01262 0.0
H833 H 0.23286 0.04448 0.01369 0.0
H834 H 0.22523 0.08436 0.03494 0.0
H835 H 0.23826 0.09225 0.07203 0.0
H836 H 0.66077 0.48847 0.32069 0.0
H837 H 0.66956 0.47631 0.28355 0.0
H838 H 0.63103 0.54618 0.26139 0.0
H839 H 0.62138 0.55823 0.29886 0.0
H840 H 0.61437 0.50354 0.2395 0.0
H841 H 0.72196 0.50315 0.241 0.0
H842 H 0.70923 0.48344 0.26241 0.0
H843 H 0.70284 0.51805 0.2621 0.0
C844 C 0.65445 0.50153 0.30801 0.0
C845 C 0.64037 0.52437 0.31282 0.0
C846 C 0.65967 0.4946 0.2867 0.0
C847 C 0.65132 0.51049 0.26962 0.0
C848 C 0.63781 0.53368 0.27431 0.0
H849 H 0.7088 0.45379 0.14611 0.0
H850 H 0.69573 0.48517 0.17373 0.0
C851 C 0.63246 0.54063 0.29574 0.0
C852 C 0.65539 0.50172 0.24702 0.0
H853 H 0.70176 0.47617 0.21375 0.0
C854 C 0.63354 0.49801 0.23367 0.0
C855 C 0.68041 0.49498 0.23917 0.0
C856 C 0.70494 0.5004 0.25186 0.0
C857 C 0.6359 0.4863 0.21324 0.0
C858 C 0.66066 0.47745 0.20621 0.0
C859 C 0.68265 0.48259 0.21909 0.0
C860 C 0.66435 0.46138 0.18641 0.0
C861 C 0.61177 0.48345 0.19953 0.0
C862 C 0.65031 0.43802 0.18353 0.0
C863 C 0.65734 0.42035 0.16731 0.0
C864 C 0.67898 0.4254 0.15406 0.0
C865 C 0.69198 0.44943 0.15606 0.0
C866 C 0.68461 0.46732 0.17194 0.0
H867 H 0.59757 0.49932 0.20295 0.0
H868 H 0.61652 0.48373 0.18208 0.0
H869 H 0.60207 0.46466 0.20341 0.0
H870 H 0.63508 0.43253 0.19473 0.0
H871 H 0.64727 0.40179 0.1664 0.0
H872 H 0.20028 0.85942 0.54977 0.0
H873 H 0.21602 0.86427 0.51263 0.0
H874 H 0.27158 0.92204 0.53383 0.0
H875 H 0.25652 0.91682 0.57089 0.0
H876 H 0.22128 0.90429 0.48329 0.0
H877 H 0.31834 0.86705 0.50702 0.0
H878 H 0.29037 0.86523 0.52462 0.0
H879 H 0.3091 0.89491 0.52275 0.0
C880 C 0.21551 0.87352 0.54643 0.0
C881 C 0.22736 0.88754 0.5633 0.0
C882 C 0.22456 0.87617 0.52522 0.0
C883 C 0.24551 0.89293 0.52057 0.0
C884 C 0.25594 0.90839 0.53714 0.0
H885 H 0.30601 0.9644 0.40928 0.0
H886 H 0.2776 0.94779 0.43736 0.0
C887 C 0.24714 0.90556 0.5583 0.0
C888 C 0.25738 0.89363 0.49872 0.0
H889 H 0.31612 0.88935 0.47309 0.0
C890 C 0.24195 0.9007 0.48096 0.0
C891 C 0.28417 0.88807 0.4955 0.0
C892 C 0.30138 0.8781 0.51345 0.0
C893 C 0.25297 0.90402 0.46037 0.0
C894 C 0.28024 0.9008 0.45761 0.0
C895 C 0.29528 0.89212 0.47512 0.0
C896 C 0.29416 0.9089 0.43762 0.0
C897 C 0.23525 0.91113 0.44188 0.0
C898 C 0.31302 0.89261 0.42807 0.0
C899 C 0.32981 0.90229 0.41211 0.0
C900 C 0.32805 0.92847 0.40547 0.0
C901 C 0.30795 0.94411 0.41397 0.0
C902 C 0.29141 0.93453 0.42998 0.0
H903 H 0.21551 0.90259 0.44416 0.0
H904 H 0.23297 0.93266 0.44128 0.0
H905 H 0.24318 0.90431 0.42621 0.0
H906 H 0.31562 0.87278 0.43374 0.0
H907 H 0.34513 0.88975 0.40598 0.0
H908 H 0.788 0.55725 0.6588 0.0
H909 H 0.80387 0.52968 0.68783 0.0
H910 H 0.87884 0.56777 0.68485 0.0
H911 H 0.86262 0.59648 0.65617 0.0
H912 H 0.84183 0.49559 0.69644 0.0
H913 H 0.85611 0.58565 0.74508 0.0
H914 H 0.84082 0.58619 0.71895 0.0
H915 H 0.87575 0.58384 0.72119 0.0
C916 C 0.80806 0.55953 0.66397 0.0
C917 C 0.82387 0.57949 0.65544 0.0
C918 C 0.81714 0.54363 0.6806 0.0
C919 C 0.84229 0.54715 0.68901 0.0
C920 C 0.85908 0.56523 0.67905 0.0
H921 H 0.89346 0.45162 0.79973 0.0
H922 H 0.88767 0.46775 0.76288 0.0
C923 C 0.84989 0.58143 0.66248 0.0
C924 C 0.84945 0.53379 0.70948 0.0
H925 H 0.86371 0.54576 0.76232 0.0
C926 C 0.84686 0.50651 0.71083 0.0
C927 C 0.85553 0.5481 0.72836 0.0
C928 C 0.85701 0.57756 0.72848 0.0
C929 C 0.84952 0.49326 0.73058 0.0
C930 C 0.8556 0.50761 0.7494 0.0
C931 C 0.859 0.53476 0.74789 0.0
C932 C 0.85732 0.49541 0.77113 0.0
C933 C 0.84461 0.46423 0.73122 0.0
C934 C 0.84214 0.50543 0.78808 0.0
C935 C 0.84571 0.49656 0.80915 0.0
C936 C 0.86438 0.47726 0.81374 0.0
C937 C 0.87865 0.46624 0.79664 0.0
C938 C 0.87533 0.47543 0.77554 0.0
H939 H 0.83343 0.4575 0.71692 0.0
H940 H 0.86358 0.4538 0.73132 0.0
H941 H 0.8337 0.45864 0.74598 0.0
H942 H 0.82805 0.52078 0.7851 0.0
H943 H 0.83445 0.50547 0.82196 0.0
H944 H 0.85309 0.89644 0.08599 0.0
H945 H 0.82301 0.88421 0.05705 0.0
H946 H 0.76872 0.94311 0.07844 0.0
H947 H 0.79928 0.95622 0.10674 0.0
H948 H 0.7729 0.86879 0.05042 0.0
H949 H 0.78709 0.96949 0.01937 0.0
H950 H 0.80556 0.95676 0.0417 0.0
H951 H 0.7727 0.96819 0.04568 0.0
C952 C 0.83439 0.90622 0.08494 0.0
C953 C 0.82864 0.92749 0.09843 0.0
C954 C 0.81723 0.8993 0.06832 0.0
C955 C 0.79397 0.91333 0.06513 0.0
C956 C 0.78692 0.93258 0.08015 0.0
H957 H 0.69371 0.87202 0.95338 0.0
H958 H 0.70697 0.88073 0.99076 0.0
C959 C 0.80428 0.93987 0.09645 0.0
C960 C 0.77879 0.90983 0.04488 0.0
H961 H 0.75977 0.94203 0.99927 0.0
C962 C 0.76981 0.88482 0.03929 0.0
C963 C 0.77511 0.93072 0.03019 0.0
C964 C 0.78581 0.95774 0.03438 0.0
C965 C 0.75777 0.88002 0.01928 0.0
C966 C 0.75407 0.90095 0.00467 0.0
C967 C 0.76237 0.92606 0.01056 0.0
C968 C 0.74463 0.8969 0.98223 0.0
C969 C 0.75036 0.85237 0.01354 0.0
C970 C 0.7608 0.90414 0.96501 0.0
C971 C 0.75313 0.89967 0.94378 0.0
C972 C 0.72905 0.88771 0.93916 0.0
C973 C 0.71238 0.88124 0.95638 0.0
C974 C 0.72006 0.88592 0.97775 0.0
H975 H 0.75945 0.83791 0.02457 0.0
H976 H 0.72887 0.85019 0.0147 0.0
H977 H 0.75629 0.84769 0.99677 0.0
H978 H 0.77978 0.91274 0.96799 0.0
H979 H 0.76652 0.90494 0.93099 0.0
H980 H 0.29601 0.54945 0.85612 0.0
H981 H 0.30915 0.51895 0.82788 0.0
H982 H 0.3675 0.57375 0.80621 0.0
H983 H 0.35517 0.60373 0.83511 0.0
H984 H 0.30162 0.52911 0.78785 0.0
H985 H 0.40655 0.50767 0.79684 0.0
H986 H 0.38767 0.52233 0.81821 0.0
H987 H 0.40101 0.54221 0.79691 0.0
C988 C 0.31238 0.55449 0.84588 0.0
C989 C 0.32464 0.57891 0.84785 0.0
C990 C 0.31978 0.53711 0.82964 0.0
C991 C 0.33936 0.54391 0.81482 0.0
C992 C 0.35278 0.56764 0.81766 0.0
H993 H 0.34104 0.51563 0.68014 0.0
H994 H 0.33288 0.52865 0.71721 0.0
C995 C 0.3457 0.58485 0.83421 0.0
C996 C 0.34288 0.52824 0.79478 0.0
H997 H 0.38872 0.5026 0.76085 0.0
C998 C 0.32068 0.52291 0.78221 0.0
C999 C 0.3676 0.51977 0.78737 0.0
C1000 C 0.39199 0.52305 0.80069 0.0
C1001 C 0.32262 0.51052 0.76211 0.0
C1002 C 0.34752 0.50391 0.75396 0.0
C1003 C 0.36963 0.50798 0.76694 0.0
C1004 C 0.35117 0.49468 0.73143 0.0
C1005 C 0.2979 0.50489 0.74974 0.0
C1006 C 0.36442 0.47128 0.72695 0.0
C1007 C 0.36934 0.46381 0.70559 0.0
C1008 C 0.36128 0.47975 0.68835 0.0
C1009 C 0.34744 0.50279 0.69296 0.0
C1010 C 0.34261 0.51024 0.71422 0.0
H1011 H 0.281 0.50244 0.76078 0.0
H1012 H 0.29353 0.5216 0.73894 0.0
H1013 H 0.29983 0.487 0.73976 0.0
H1014 H 0.37132 0.45903 0.73999 0.0
H1015 H 0.38025 0.44606 0.70262 0.0
H1016 H 0.74562 0.085 0.43118 0.0
H1017 H 0.73037 0.07977 0.46819 0.0
H1018 H 0.78585 0.13751 0.48959 0.0
H1019 H 0.80179 0.14235 0.45253 0.0
H1020 H 0.78047 0.09773 0.51892 0.0
H1021 H 0.68341 0.13462 0.49482 0.0
H1022 H 0.69276 0.10669 0.47921 0.0
H1023 H 0.71143 0.1364 0.47727 0.0
C1024 C 0.75495 0.09624 0.4438 0.0
C1025 C 0.77477 0.11425 0.43888 0.0
C1026 C 0.74603 0.09341 0.46493 0.0
C1027 C 0.75638 0.10887 0.48155 0.0
C1028 C 0.77737 0.12561 0.47698 0.0
H1029 H 0.65659 0.11268 0.59609 0.0
H1030 H 0.68603 0.12946 0.56819 0.0
C1031 C 0.78654 0.12825 0.4558 0.0
C1032 C 0.7444 0.10821 0.50336 0.0
H1033 H 0.68558 0.11256 0.52885 0.0
C1034 C 0.75979 0.10129 0.52118 0.0
C1035 C 0.71759 0.11373 0.50649 0.0
C1036 C 0.70041 0.12357 0.48847 0.0
C1037 C 0.74872 0.09809 0.54176 0.0
C1038 C 0.72143 0.10129 0.54445 0.0
C1039 C 0.70643 0.10981 0.52687 0.0
C1040 C 0.70748 0.09331 0.56446 0.0
C1041 C 0.7664 0.09116 0.56033 0.0
C1042 C 0.71024 0.06773 0.5722 0.0
C1043 C 0.69373 0.05825 0.58828 0.0
C1044 C 0.67367 0.07396 0.59675 0.0
C1045 C 0.67189 0.1001 0.58998 0.0
C1046 C 0.68863 0.10966 0.57394 0.0
H1047 H 0.78614 0.09969 0.55803 0.0
H1048 H 0.75842 0.09811 0.57594 0.0
H1049 H 0.76869 0.06964 0.56106 0.0
H1050 H 0.72405 0.05443 0.56487 0.0
H1051 H 0.69569 0.03801 0.59306 0.0
H1052 H 0.20425 0.45397 0.35621 0.0
H1053 H 0.19023 0.48608 0.32948 0.0
H1054 H 0.13314 0.43143 0.30539 0.0
H1055 H 0.14619 0.39991 0.33288 0.0
H1056 H 0.19812 0.47939 0.28953 0.0
H1057 H 0.0925 0.49645 0.29806 0.0
H1058 H 0.11142 0.4809 0.31898 0.0
H1059 H 0.09876 0.46209 0.29673 0.0
C1060 C 0.18795 0.44928 0.34577 0.0
C1061 C 0.17623 0.42452 0.34663 0.0
C1062 C 0.18003 0.46759 0.33042 0.0
C1063 C 0.16055 0.46134 0.31533 0.0
C1064 C 0.14771 0.43715 0.3171 0.0
H1065 H 0.16039 0.49064 0.18211 0.0
H1066 H 0.16835 0.4788 0.21942 0.0
C1067 C 0.15524 0.41902 0.33282 0.0
C1068 C 0.15673 0.47809 0.29594 0.0
H1069 H 0.11036 0.50261 0.26194 0.0
C1070 C 0.17889 0.48493 0.28383 0.0
C1071 C 0.13179 0.48581 0.28844 0.0
C1072 C 0.10734 0.48116 0.30141 0.0
C1073 C 0.17673 0.4978 0.26396 0.0
C1074 C 0.15169 0.50331 0.25555 0.0
C1075 C 0.12958 0.49802 0.26821 0.0
C1076 C 0.14804 0.51205 0.23291 0.0
C1077 C 0.20138 0.50492 0.25202 0.0
C1078 C 0.13365 0.53461 0.22794 0.0
C1079 C 0.12885 0.54144 0.2064 0.0
C1080 C 0.13818 0.52564 0.18951 0.0
C1081 C 0.15306 0.50341 0.19464 0.0
C1082 C 0.15776 0.49663 0.21604 0.0
H1083 H 0.21778 0.50838 0.26339 0.0
H1084 H 0.20706 0.4885 0.24135 0.0
H1085 H 0.19865 0.52267 0.24199 0.0
H1086 H 0.12581 0.5467 0.24071 0.0
H1087 H 0.11712 0.55854 0.20301 0.0
H1088 H 0.80221 0.64113 0.54915 0.0
H1089 H 0.7866 0.63495 0.5121 0.0
H1090 H 0.7298 0.57925 0.53475 0.0
H1091 H 0.74477 0.58573 0.57169 0.0
H1092 H 0.78046 0.59314 0.48399 0.0
H1093 H 0.68454 0.63462 0.50625 0.0
H1094 H 0.71258 0.63656 0.52375 0.0
H1095 H 0.6931 0.60732 0.5229 0.0
C1096 C 0.78674 0.62718 0.54616 0.0
C1097 C 0.77453 0.61413 0.56339 0.0
C1098 C 0.77777 0.62377 0.525 0.0
C1099 C 0.75653 0.60721 0.52076 0.0
C1100 C 0.7457 0.5927 0.53773 0.0
H1101 H 0.69372 0.5339 0.41062 0.0
H1102 H 0.72224 0.54989 0.43891 0.0
C1103 C 0.75444 0.59627 0.55883 0.0
C1104 C 0.74472 0.60585 0.49891 0.0
H1105 H 0.68629 0.61114 0.47291 0.0
C1106 C 0.75995 0.59738 0.48146 0.0
C1107 C 0.71815 0.61217 0.49543 0.0
C1108 C 0.70122 0.62345 0.51303 0.0
C1109 C 0.74891 0.59352 0.46094 0.0
C1110 C 0.7218 0.5977 0.45795 0.0
C1111 C 0.707 0.60766 0.47513 0.0
C1112 C 0.70774 0.58958 0.43804 0.0
C1113 C 0.76641 0.58487 0.44276 0.0
C1114 C 0.68999 0.60651 0.42784 0.0
C1115 C 0.67317 0.59724 0.41174 0.0
C1116 C 0.67377 0.57082 0.40561 0.0
C1117 C 0.69271 0.55439 0.41488 0.0
C1118 C 0.7093 0.56359 0.43101 0.0
H1119 H 0.78656 0.59242 0.44498 0.0
H1120 H 0.76753 0.56324 0.44266 0.0
H1121 H 0.75899 0.59156 0.42688 0.0
H1122 H 0.68831 0.62663 0.43303 0.0
H1123 H 0.65876 0.61039 0.40502 0.0
H1124 H 0.12306 0.05772 0.80056 0.0
H1125 H 0.1313 0.04462 0.7631 0.0
H1126 H 0.16493 0.97232 0.78542 0.0
H1127 H 0.1576 0.98545 0.82254 0.0
H1128 H 0.19296 0.99245 0.75348 0.0
H1129 H 0.0882 0.9916 0.73029 0.0
H1130 H 0.10032 0.02241 0.73982 0.0
H1131 H 0.09876 0.99502 0.75788 0.0
C1132 C 0.13256 0.03922 0.79745 0.0
C1133 C 0.13957 0.02262 0.81458 0.0
C1134 C 0.13697 0.03161 0.77603 0.0
C1135 C 0.1482 0.0072 0.7714 0.0
C1136 C 0.15611 0.99117 0.78852 0.0
H1137 H 0.14607 0.89924 0.66718 0.0
H1138 H 0.13423 0.929 0.69646 0.0
C1139 C 0.15191 0.99877 0.80982 0.0
C1140 C 0.1517 0.99776 0.7489 0.0
H1141 H 0.11846 0.97887 0.7037 0.0
C1142 C 0.17671 0.98974 0.7425 0.0
C1143 C 0.1304 0.9939 0.73469 0.0
C1144 C 0.10285 1.00095 0.741 0.0
C1145 C 0.18094 0.97718 0.72272 0.0
C1146 C 0.15969 0.9734 0.70842 0.0
C1147 C 0.13476 0.98206 0.71453 0.0
C1148 C 0.16277 0.95844 0.68801 0.0
C1149 C 0.20793 0.96678 0.71796 0.0
C1150 C 0.1815 0.96585 0.67267 0.0
C1151 C 0.18856 0.94869 0.65615 0.0
C1152 C 0.17646 0.92417 0.6543 0.0
C1153 C 0.15561 0.91808 0.66812 0.0
C1154 C 0.14893 0.93504 0.68495 0.0
H1155 H 0.22011 0.9655 0.73273 0.0
H1156 H 0.20694 0.94708 0.71054 0.0
H1157 H 0.21793 0.9801 0.70653 0.0
H1158 H 0.19186 0.98417 0.67428 0.0
H1159 H 0.2046 0.95394 0.64563 0.0
H1160 H 0.76532 0.40847 0.0713 0.0
H1161 H 0.77782 0.41641 0.03409 0.0
H1162 H 0.70727 0.37906 0.0121 0.0
H1163 H 0.69471 0.37044 0.04964 0.0
H1164 H 0.75056 0.36136 0.9905 0.0
H1165 H 0.75093 0.46911 0.99127 0.0
H1166 H 0.77022 0.45626 0.0129 0.0
H1167 H 0.7356 0.45014 0.01226 0.0
C1168 C 0.75215 0.40228 0.05864 0.0
C1169 C 0.72889 0.38892 0.06352 0.0
C1170 C 0.75932 0.40695 0.0373 0.0
C1171 C 0.74333 0.3987 0.02026 0.0
C1172 C 0.71984 0.38575 0.025 0.0
H1173 H 0.79841 0.455 0.89599 0.0
H1174 H 0.7675 0.4417 0.92388 0.0
C1175 C 0.71261 0.38099 0.04646 0.0
C1176 C 0.75216 0.40249 0.99765 0.0
H1177 H 0.77731 0.44862 0.96393 0.0
C1178 C 0.75598 0.38049 0.98449 0.0
C1179 C 0.75879 0.42745 0.9896 0.0
C1180 C 0.7534 0.45209 0.00218 0.0
C1181 C 0.76762 0.38266 0.96402 0.0
C1182 C 0.77621 0.40741 0.95674 0.0
C1183 C 0.77103 0.42953 0.96946 0.0
C1184 C 0.79201 0.41102 0.93677 0.0
C1185 C 0.77068 0.35837 0.95053 0.0
C1186 C 0.8156 0.39739 0.93392 0.0
C1187 C 0.83305 0.40457 0.91757 0.0
C1188 C 0.82748 0.42594 0.90415 0.0
C1189 C 0.80317 0.43841 0.90608 0.0
C1190 C 0.78555 0.4309 0.92211 0.0
H1191 H 0.75511 0.34395 0.95423 0.0
H1192 H 0.77009 0.36288 0.93303 0.0
H1193 H 0.78969 0.34906 0.9543 0.0
H1194 H 0.82146 0.38243 0.94526 0.0
H1195 H 0.85182 0.39491 0.91672 0.0
H1196 H 0.35591 0.09779 0.16659 0.0
H1197 H 0.368 0.06718 0.19503 0.0
H1198 H 0.30603 0.01543 0.1752 0.0
H1199 H 0.2931 0.04668 0.14743 0.0
H1200 H 0.30082 0.02535 0.21523 0.0
H1201 H 0.40427 0.99971 0.20352 0.0
H1202 H 0.40055 0.03447 0.20355 0.0
H1203 H 0.3853 0.0153 0.18266 0.0
C1204 C 0.34551 0.07943 0.16778 0.0
C1205 C 0.32354 0.07463 0.15483 0.0
C1206 C 0.35249 0.06183 0.18405 0.0
C1207 C 0.33806 0.0388 0.18729 0.0
C1208 C 0.31746 0.03305 0.17312 0.0
H1209 H 0.38032 0.94329 0.30067 0.0
H1210 H 0.37062 0.95488 0.26312 0.0
C1211 C 0.31016 0.05086 0.15716 0.0
C1212 C 0.34174 0.023 0.20723 0.0
H1213 H 0.38807 0.99672 0.24036 0.0
C1214 C 0.31988 0.01863 0.22044 0.0
C1215 C 0.36644 0.01379 0.21409 0.0
C1216 C 0.39037 0.01582 0.20005 0.0
C1217 C 0.32222 0.0067 0.24069 0.0
C1218 C 0.34724 0.99962 0.24833 0.0
C1219 C 0.36891 0.00252 0.23467 0.0
C1220 C 0.35152 0.99133 0.27102 0.0
C1221 C 0.29783 0.00214 0.25379 0.0
C1222 C 0.34392 0.00786 0.28791 0.0
C1223 C 0.34918 1.00122 0.30927 0.0
C1224 C 0.36254 0.97802 0.31429 0.0
C1225 C 0.36981 0.9612 0.29739 0.0
C1226 C 0.36442 0.96786 0.27592 0.0
H1227 H 0.28052 0.9996 0.24321 0.0
H1228 H 0.29971 0.98465 0.26424 0.0
H1229 H 0.29418 0.01941 0.26416 0.0
H1230 H 0.33453 0.02637 0.28457 0.0
H1231 H 0.34342 0.01474 0.32182 0.0
H1232 H 0.34566 0.39194 0.59489 0.0
H1233 H 0.31752 0.37603 0.56573 0.0
H1234 H 0.28 0.45129 0.56239 0.0
H1235 H 0.30701 0.46686 0.5919 0.0
H1236 H 0.24582 0.41356 0.55341 0.0
H1237 H 0.3364 0.39863 0.50566 0.0
H1238 H 0.3342 0.37899 0.52953 0.0
H1239 H 0.33666 0.41392 0.53179 0.0
C1240 C 0.33086 0.40481 0.58838 0.0
C1241 C 0.32891 0.43081 0.5955 0.0
C1242 C 0.315 0.3958 0.57153 0.0
C1243 C 0.29724 0.41275 0.56136 0.0
C1244 C 0.29371 0.4379 0.56978 0.0
H1245 H 0.25692 0.41867 0.42772 0.0
H1246 H 0.2721 0.42576 0.46454 0.0
C1247 C 0.30928 0.44681 0.58669 0.0
C1248 C 0.28414 0.40565 0.54076 0.0
H1249 H 0.29671 0.3908 0.48812 0.0
C1250 C 0.2569 0.40837 0.53915 0.0
C1251 C 0.29866 0.39936 0.52204 0.0
C1252 C 0.32809 0.39777 0.52219 0.0
C1253 C 0.24389 0.40554 0.51931 0.0
C1254 C 0.25844 0.39915 0.50065 0.0
C1255 C 0.28555 0.39573 0.50241 0.0
C1256 C 0.24645 0.39699 0.47887 0.0
C1257 C 0.2149 0.41057 0.5184 0.0
C1258 C 0.22638 0.379 0.47464 0.0
C1259 C 0.21727 0.37529 0.45357 0.0
C1260 C 0.22846 0.38912 0.43629 0.0
C1261 C 0.24788 0.40773 0.44067 0.0
C1262 C 0.25667 0.4117 0.46172 0.0
H1263 H 0.20811 0.42215 0.53246 0.0
H1264 H 0.20949 0.42112 0.50343 0.0
H1265 H 0.2044 0.39164 0.51861 0.0
H1266 H 0.21855 0.36698 0.48745 0.0
H1267 H 0.20256 0.36052 0.45066 0.0
H1268 H 0.83657 0.00752 0.1818 0.0
H1269 H 0.83153 0.02268 0.21887 0.0
H1270 H 0.88895 0.96674 0.24003 0.0
H1271 H 0.89354 0.95086 0.20295 0.0
H1272 H 0.84989 0.97195 0.26941 0.0
H1273 H 0.88598 0.06946 0.24573 0.0
H1274 H 0.85791 0.06027 0.23025 0.0
H1275 H 0.88762 0.04166 0.22793 0.0
C1276 C 0.84779 0.9981 0.19439 0.0
C1277 C 0.86562 0.97814 0.18941 0.0
C1278 C 0.84508 0.00696 0.21555 0.0
C1279 C 0.86051 0.99645 0.23211 0.0
C1280 C 0.87708 0.97536 0.22746 0.0
H1281 H 0.8637 0.09587 0.34682 0.0
H1282 H 0.8809 0.0666 0.31898 0.0
C1283 C 0.87958 0.96622 0.20627 0.0
C1284 C 0.85991 0.00826 0.25399 0.0
H1285 H 0.86399 0.06691 0.2798 0.0
C1286 C 0.8533 0.99265 0.27176 0.0
C1287 C 0.86528 0.03509 0.25726 0.0
C1288 C 0.87489 0.05251 0.23931 0.0
C1289 C 0.85021 0.00351 0.29243 0.0
C1290 C 0.85316 0.0308 0.29526 0.0
C1291 C 0.86141 0.04604 0.27773 0.0
C1292 C 0.84511 0.04452 0.31535 0.0
C1293 C 0.84365 0.98557 0.31093 0.0
C1294 C 0.81964 0.04132 0.32319 0.0
C1295 C 0.80995 0.05771 0.33925 0.0
C1296 C 0.82531 0.07812 0.3476 0.0
C1297 C 0.85139 0.0803 0.34081 0.0
C1298 C 0.86119 0.06365 0.32479 0.0
H1299 H 0.8525 0.96599 0.30851 0.0
H1300 H 0.85052 0.99355 0.32657 0.0
H1301 H 0.82218 0.9829 0.31171 0.0
H1302 H 0.80653 0.02728 0.31591 0.0
H1303 H 0.78975 0.05543 0.34407 0.0
H1304 H 0.14629 0.60497 0.08437 0.0
H1305 H 0.17632 0.61705 0.05533 0.0
H1306 H 0.23327 0.5627 0.07993 0.0
H1307 H 0.20284 0.54969 0.10836 0.0
H1308 H 0.22576 0.63471 0.04863 0.0
H1309 H 0.2174 0.53158 0.02187 0.0
H1310 H 0.19781 0.54476 0.04337 0.0
H1311 H 0.23111 0.53528 0.04829 0.0
C1312 C 0.16554 0.59624 0.084 0.0
C1313 C 0.17215 0.57619 0.09845 0.0
C1314 C 0.18266 0.60305 0.06731 0.0
C1315 C 0.20671 0.59014 0.06502 0.0
C1316 C 0.21449 0.5723 0.08096 0.0
H1317 H 0.30749 0.63038 0.95356 0.0
H1318 H 0.29384 0.62244 0.99092 0.0
C1319 C 0.19721 0.5651 0.09734 0.0
C1320 C 0.2221 0.59313 0.04482 0.0
H1321 H 0.24387 0.55908 0.001 0.0
C1322 C 0.22994 0.61817 0.03827 0.0
C1323 C 0.22718 0.57154 0.03114 0.0
C1324 C 0.21775 0.54432 0.03636 0.0
C1325 C 0.24223 0.6223 0.01827 0.0
C1326 C 0.2474 0.60068 0.00468 0.0
C1327 C 0.24017 0.57559 0.01152 0.0
C1328 C 0.25738 0.60379 0.9823 0.0
C1329 C 0.24837 0.6499 0.01143 0.0
C1330 C 0.24216 0.59475 0.96505 0.0
C1331 C 0.25011 0.59879 0.94381 0.0
C1332 C 0.27349 0.61208 0.93923 0.0
C1333 C 0.28937 0.62011 0.95651 0.0
C1334 C 0.28143 0.61588 0.97788 0.0
H1335 H 0.23815 0.66453 0.0216 0.0
H1336 H 0.26967 0.65333 0.01295 0.0
H1337 H 0.24278 0.65316 0.99435 0.0
H1338 H 0.22362 0.58524 0.96799 0.0
H1339 H 0.23735 0.59228 0.93097 0.0
H1340 H 0.65865 0.98635 0.67997 0.0
H1341 H 0.6663 0.9728 0.71697 0.0
H1342 H 0.63256 0.04474 0.73997 0.0
H1343 H 0.62387 0.05813 0.70268 0.0
H1344 H 0.69422 0.99216 0.74905 0.0
H1345 H 0.58957 0.99162 0.77246 0.0
H1346 H 0.60007 0.99545 0.7449 0.0
H1347 H 0.60168 0.02257 0.76324 0.0
C1348 C 0.65294 0.99945 0.69282 0.0
C1349 C 0.64037 0.02323 0.6883 0.0
C1350 C 0.65736 0.99164 0.71404 0.0
C1351 C 0.64949 0.00744 0.73133 0.0
C1352 C 0.63817 0.03187 0.72693 0.0
H1353 H 0.70606 0.95378 0.85699 0.0
H1354 H 0.69357 0.98392 0.82819 0.0
C1355 C 0.63352 0.03965 0.70559 0.0
C1356 C 0.65302 0.99775 0.75376 0.0
H1357 H 0.61988 0.97905 0.79907 0.0
C1358 C 0.678 0.98953 0.76007 0.0
C1359 C 0.63176 0.99397 0.76804 0.0
C1360 C 0.6042 1.00113 0.76183 0.0
C1361 C 0.68225 0.97694 0.77984 0.0
C1362 C 0.66105 0.97332 0.79423 0.0
C1363 C 0.63615 0.98212 0.78819 0.0
C1364 C 0.66414 0.95843 0.81468 0.0
C1365 C 0.70919 0.96636 0.78451 0.0
C1366 C 0.65003 0.93522 0.81791 0.0
C1367 C 0.65657 0.91832 0.83482 0.0
C1368 C 0.67754 0.92427 0.84856 0.0
C1369 C 0.68993 0.94863 0.84653 0.0
C1370 C 0.68302 0.96573 0.82993 0.0
H1371 H 0.72125 0.96492 0.76968 0.0
H1372 H 0.71936 0.97967 0.79584 0.0
H1373 H 0.7081 0.94671 0.792 0.0
H1374 H 0.6352 0.92926 0.80648 0.0
H1375 H 0.64679 0.89962 0.83589 0.0
H1376 H 0.40159 0.20159 0.14625 0.0
H1377 H 0.44188 0.22737 0.14976 0.0
H1378 H 0.44742 0.23247 0.08058 0.0
H1379 H 0.40725 0.20664 0.07706 0.0
H1380 H 0.49334 0.21031 0.12471 0.0
H1381 H 0.4559 0.31048 0.10886 0.0
H1382 H 0.43573 0.28518 0.12051 0.0
H1383 H 0.44374 0.28415 0.09241 0.0
C1384 C 0.41108 0.2088 0.13185 0.0
C1385 C 0.40111 0.20257 0.11137 0.0
C1386 C 0.43416 0.22329 0.13386 0.0
C1387 C 0.44745 0.23198 0.11542 0.0
C1388 C 0.43729 0.22616 0.09499 0.0
H1389 H 0.58503 0.31746 0.08049 0.0
H1390 H 0.54199 0.29733 0.08399 0.0
C1391 C 0.41443 0.21143 0.09299 0.0
C1392 C 0.47279 0.24576 0.11732 0.0
H1393 H 0.50167 0.30524 0.1105 0.0
C1394 C 0.49523 0.23112 0.12186 0.0
C1395 C 0.47508 0.2728 0.11337 0.0
C1396 C 0.45139 0.28927 0.1086 0.0
C1397 C 0.52014 0.24266 0.12183 0.0
C1398 C 0.52255 0.2698 0.11778 0.0
C1399 C 0.4999 0.2845 0.11369 0.0
C1400 C 0.54842 0.283 0.11637 0.0
C1401 C 0.54366 0.22537 0.12512 0.0
C1402 C 0.56636 0.28208 0.1335 0.0
C1403 C 0.59119 0.2933 0.13139 0.0
C1404 C 0.59834 0.30627 0.11229 0.0
C1405 C 0.58007 0.30771 0.09542 0.0
C1406 C 0.55542 0.29629 0.09745 0.0
H1407 H 0.539 0.20449 0.12219 0.0
H1408 H 0.55989 0.23112 0.11427 0.0
H1409 H 0.55048 0.22723 0.14202 0.0
H1410 H 0.56133 0.27235 0.14842 0.0
H1411 H 0.60497 0.29103 0.14444 0.0
H1412 H 0.51509 0.63963 0.35311 0.0
H1413 H 0.49421 0.68249 0.35731 0.0
H1414 H 0.56759 0.71522 0.37799 0.0
H1415 H 0.5885 0.67225 0.37356 0.0
H1416 H 0.49171 0.71769 0.39488 0.0
H1417 H 0.54431 0.75901 0.32415 0.0
H1418 H 0.54189 0.72431 0.32885 0.0
H1419 H 0.56394 0.7437 0.3446 0.0
C1420 C 0.52658 0.65597 0.35881 0.0
C1421 C 0.55323 0.6527 0.36333 0.0
C1422 C 0.5147 0.68036 0.36125 0.0
C1423 C 0.52937 0.70204 0.3679 0.0
C1424 C 0.55594 0.69874 0.3728 0.0
H1425 H 0.46702 0.85896 0.39368 0.0
H1426 H 0.48892 0.81668 0.39771 0.0
C1427 C 0.5678 0.67423 0.37048 0.0
C1428 C 0.51698 0.72823 0.36858 0.0
H1429 H 0.51507 0.78679 0.34228 0.0
C1430 C 0.49694 0.73292 0.38353 0.0
C1431 C 0.52368 0.74791 0.35357 0.0
C1432 C 0.54449 0.74359 0.33675 0.0
C1433 C 0.48333 0.75678 0.38378 0.0
C1434 C 0.48996 0.77638 0.3687 0.0
C1435 C 0.51013 0.77175 0.35388 0.0
C1436 C 0.47534 0.80134 0.36722 0.0
C1437 C 0.46142 0.76062 0.39969 0.0
C1438 C 0.46049 0.80675 0.34878 0.0
C1439 C 0.44768 0.83069 0.3466 0.0
C1440 C 0.44945 0.84979 0.36281 0.0
C1441 C 0.46436 0.84434 0.38131 0.0
C1442 C 0.4771 0.82026 0.38354 0.0
H1443 H 0.45609 0.74217 0.40802 0.0
H1444 H 0.46748 0.77507 0.41203 0.0
H1445 H 0.44386 0.76845 0.39143 0.0
H1446 H 0.45899 0.79249 0.33594 0.0
H1447 H 0.43654 0.83444 0.3321 0.0
H1448 H 0.92037 0.66627 0.62423 0.0
H1449 H 0.96353 0.68648 0.62911 0.0
H1450 H 0.93176 0.76087 0.60983 0.0
H1451 H 0.88866 0.74069 0.60531 0.0
H1452 H 0.99209 0.71165 0.59665 0.0
H1453 H 0.973 0.77911 0.66474 0.0
H1454 H 0.95183 0.75197 0.65841 0.0
H1455 H 0.9498 0.78174 0.64316 0.0
C1456 C 0.92257 0.68706 0.62167 0.0
C1457 C 0.90121 0.70214 0.61493 0.0
C1458 C 0.94719 0.69854 0.62427 0.0
C1459 C 0.95077 0.7253 0.62023 0.0
C1460 C 0.92935 0.74036 0.61355 0.0
H1461 H 0.08534 0.81341 0.58229 0.0
H1462 H 0.04323 0.7913 0.5863 0.0
C1463 C 0.90483 0.72885 0.61086 0.0
C1464 C 0.9772 0.73714 0.62135 0.0
H1465 H 0.01215 0.78654 0.6446 0.0
C1466 C 0.99656 0.72783 0.60731 0.0
C1467 C 0.98308 0.75814 0.63536 0.0
C1468 C 0.96343 0.76821 0.65143 0.0
C1469 C 0.02129 0.73958 0.60634 0.0
C1470 C 0.02676 0.7613 0.61965 0.0
C1471 C 0.0078 0.77002 0.63428 0.0
C1472 C 0.05177 0.77571 0.61791 0.0
C1473 C 0.04136 0.72885 0.59091 0.0
C1474 C 0.07033 0.77466 0.63453 0.0
C1475 C 0.09449 0.7872 0.63221 0.0
C1476 C 0.10027 0.80139 0.61338 0.0
C1477 C 0.08138 0.80272 0.59699 0.0
C1478 C 0.05737 0.7901 0.59925 0.0
H1479 H 0.03624 0.7089 0.58531 0.0
H1480 H 0.04258 0.74178 0.5766 0.0
H1481 H 0.06094 0.72828 0.59858 0.0
H1482 H 0.06641 0.7635 0.649 0.0
H1483 H 0.1089 0.78499 0.6448 0.0
H1484 H 0.93625 0.33302 0.8317 0.0
H1485 H 0.9578 0.2906 0.8356 0.0
H1486 H 0.98738 0.31391 0.89772 0.0
H1487 H 0.96632 0.35662 0.89365 0.0
H1488 H 0.01292 0.28322 0.84186 0.0
H1489 H 0.95364 0.24047 0.90821 0.0
H1490 H 0.94215 0.26732 0.89189 0.0
H1491 H 0.96617 0.2729 0.91242 0.0
C1492 C 0.94712 0.32897 0.84629 0.0
C1493 C 0.94903 0.34794 0.86258 0.0
C1494 C 0.95941 0.30477 0.8485 0.0
C1495 C 0.97389 0.29896 0.86707 0.0
C1496 C 0.97582 0.31778 0.88346 0.0
H1497 H 0.08553 0.16891 0.8739 0.0
H1498 H 0.06493 0.21207 0.87774 0.0
C1499 C 0.96358 0.34211 0.8812 0.0
C1500 C 0.98797 0.27368 0.86862 0.0
H1501 H 0.98912 0.21541 0.89546 0.0
C1502 C 0.00785 0.26845 0.85367 0.0
C1503 C 0.98118 0.25441 0.88395 0.0
C1504 C 0.95951 0.25882 0.89999 0.0
C1505 C 0.021 0.24438 0.85351 0.0
C1506 C 0.01422 0.22508 0.86883 0.0
C1507 C 0.99443 0.23034 0.88387 0.0
C1508 C 0.02642 0.19878 0.86853 0.0
C1509 C 0.04151 0.23946 0.83654 0.0
C1510 C 0.0115 0.17696 0.8626 0.0
C1511 C 0.02321 0.15243 0.86055 0.0
C1512 C 0.04993 0.14917 0.86473 0.0
C1513 C 0.06477 0.17087 0.87114 0.0
C1514 C 0.05308 0.19549 0.87309 0.0
H1515 H 0.04111 0.25445 0.8236 0.0
H1516 H 0.0611 0.23984 0.84415 0.0
H1517 H 0.03877 0.21992 0.82912 0.0
H1518 H 0.99094 0.17908 0.85894 0.0
H1519 H 0.01151 0.13596 0.85539 0.0
H1520 H 0.58119 0.83636 0.87909 0.0
H1521 H 0.53783 0.81616 0.87531 0.0
H1522 H 0.57013 0.74183 0.89411 0.0
H1523 H 0.61341 0.76201 0.89764 0.0
H1524 H 0.53369 0.74035 0.85761 0.0
H1525 H 0.49529 0.79268 0.92954 0.0
H1526 H 0.5101 0.8125 0.90896 0.0
H1527 H 0.52977 0.78997 0.92401 0.0
C1528 C 0.57904 0.81561 0.88186 0.0
C1529 C 0.60059 0.80057 0.88828 0.0
C1530 C 0.55429 0.80414 0.87994 0.0
C1531 C 0.55074 0.7775 0.88453 0.0
C1532 C 0.57243 0.76238 0.89043 0.0
H1533 H 0.41649 0.68752 0.92164 0.0
H1534 H 0.45881 0.70921 0.91766 0.0
C1535 C 0.59707 0.77387 0.89247 0.0
C1536 C 0.52432 0.76552 0.88427 0.0
H1537 H 0.46632 0.76454 0.91144 0.0
C1538 C 0.51885 0.74576 0.86924 0.0
C1539 C 0.50513 0.77242 0.89964 0.0
C1540 C 0.51027 0.79291 0.91659 0.0
C1541 C 0.4947 0.73265 0.86924 0.0
C1542 C 0.47555 0.73954 0.88465 0.0
C1543 C 0.48099 0.7594 0.89958 0.0
C1544 C 0.45022 0.72553 0.88631 0.0
C1545 C 0.49007 0.71101 0.85322 0.0
C1546 C 0.43127 0.72756 0.87003 0.0
C1547 C 0.40698 0.71525 0.87235 0.0
C1548 C 0.4013 0.7005 0.89091 0.0
C1549 C 0.42039 0.69854 0.9071 0.0
C1550 C 0.44455 0.71092 0.90484 0.0
H1551 H 0.50831 0.70511 0.84485 0.0
H1552 H 0.48163 0.69365 0.86137 0.0
H1553 H 0.47586 0.7177 0.84091 0.0
H1554 H 0.43502 0.73922 0.85581 0.0
H1555 H 0.39239 0.71805 0.85998 0.0
H1556 H 0.47203 0.36231 0.61489 0.0
H1557 H 0.49444 0.32009 0.61096 0.0
H1558 H 0.44816 0.28846 0.66275 0.0
H1559 H 0.42585 0.33062 0.66673 0.0
H1560 H 0.52117 0.29231 0.65045 0.0
H1561 H 0.44409 0.23572 0.60794 0.0
H1562 H 0.44673 0.27082 0.60574 0.0
H1563 H 0.43413 0.25641 0.62993 0.0
C1564 C 0.46628 0.34615 0.62506 0.0
C1565 C 0.44689 0.34952 0.64086 0.0
C1566 C 0.47921 0.32216 0.62294 0.0
C1567 C 0.47276 0.30113 0.63644 0.0
C1568 C 0.45322 0.30438 0.65204 0.0
H1569 H 0.51704 0.14134 0.65812 0.0
H1570 H 0.49569 0.18395 0.65471 0.0
C1571 C 0.44053 0.3284 0.65432 0.0
C1572 C 0.48724 0.2761 0.63509 0.0
H1573 H 0.48062 0.21213 0.62064 0.0
C1574 C 0.51249 0.27478 0.64373 0.0
C1575 C 0.47571 0.25333 0.62651 0.0
C1576 C 0.44871 0.25394 0.61686 0.0
C1577 C 0.52624 0.25103 0.64469 0.0
C1578 C 0.51468 0.2281 0.63615 0.0
C1579 C 0.48956 0.22964 0.62712 0.0
C1580 C 0.52765 0.20208 0.63747 0.0
C1581 C 0.55249 0.25059 0.65572 0.0
C1582 C 0.55264 0.19786 0.62874 0.0
C1583 C 0.56495 0.17355 0.63095 0.0
C1584 C 0.55221 0.15281 0.64138 0.0
C1585 C 0.52712 0.15696 0.64981 0.0
C1586 C 0.51493 0.18126 0.64781 0.0
H1587 H 0.55521 0.26779 0.6664 0.0
H1588 H 0.55493 0.23261 0.6655 0.0
H1589 H 0.56811 0.25106 0.64335 0.0
H1590 H 0.56275 0.21342 0.62041 0.0
H1591 H 0.58465 0.17117 0.62499 0.0
H1592 H 0.08115 0.33654 0.37824 0.0
H1593 H 0.03796 0.31606 0.37433 0.0
H1594 H 0.07064 0.24199 0.39338 0.0
H1595 H 0.11379 0.26244 0.39698 0.0
H1596 H 0.03468 0.24009 0.35677 0.0
H1597 H 0.99509 0.29256 0.42819 0.0
H1598 H 0.00984 0.31245 0.40764 0.0
H1599 H 0.02964 0.2902 0.42285 0.0
C1600 C 0.07911 0.31579 0.38106 0.0
C1601 C 0.10073 0.30089 0.38753 0.0
C1602 C 0.05447 0.30417 0.37906 0.0
C1603 C 0.0511 0.27752 0.38366 0.0
C1604 C 0.07283 0.26254 0.38969 0.0
H1605 H 0.9168 0.18771 0.42028 0.0
H1606 H 0.95918 0.20928 0.41639 0.0
C1607 C 0.09738 0.27418 0.39178 0.0
C1608 C 0.0248 0.26538 0.38324 0.0
H1609 H 0.96645 0.26432 0.40984 0.0
C1610 C 0.01966 0.24549 0.36824 0.0
C1611 C 0.00538 0.27229 0.3984 0.0
C1612 C 0.01017 0.2929 0.41532 0.0
C1613 C 0.9956 0.23226 0.36808 0.0
C1614 C 0.97621 0.23918 0.38326 0.0
C1615 C 0.98132 0.25917 0.39815 0.0
C1616 C 0.95097 0.22506 0.38478 0.0
C1617 C 0.99132 0.21046 0.35213 0.0
C1618 C 0.93226 0.22679 0.3683 0.0
C1619 C 0.90795 0.21453 0.37055 0.0
C1620 C 0.90204 0.20018 0.38926 0.0
C1621 C 0.92091 0.19845 0.40563 0.0
C1622 C 0.94509 0.21075 0.40343 0.0
H1623 H 0.00972 0.20455 0.34402 0.0
H1624 H 0.98277 0.19315 0.36027 0.0
H1625 H 0.97733 0.21702 0.3396 0.0
H1626 H 0.9362 0.23822 0.35398 0.0
H1627 H 0.89351 0.2171 0.35802 0.0
H1628 H 0.00802 0.63728 0.14513 0.0
H1629 H 0.98944 0.68106 0.14108 0.0
H1630 H 0.06556 0.71127 0.12509 0.0
H1631 H 0.08426 0.66739 0.12946 0.0
H1632 H 0.03895 0.73965 0.15751 0.0
H1633 H 0.97565 0.72435 0.08618 0.0
H1634 H 0.97132 0.70032 0.10695 0.0
H1635 H 0.00204 0.7025 0.09307 0.0
C1636 C 0.0207 0.65324 0.14049 0.0
C1637 C 0.04748 0.64887 0.13723 0.0
C1638 C 0.01006 0.67819 0.13803 0.0
C1639 C 0.02601 0.69937 0.13239 0.0
C1640 C 0.05283 0.69513 0.12915 0.0
H1641 H 0.96762 0.85845 0.10885 0.0
H1642 H 0.98935 0.81608 0.10457 0.0
C1643 C 0.06346 0.67005 0.13147 0.0
C1644 C 0.01484 0.72614 0.13139 0.0
H1645 H 0.96735 0.7627 0.10714 0.0
C1646 C 0.02351 0.74479 0.14633 0.0
C1647 C 0.99483 0.73291 0.11669 0.0
C1648 C 0.98554 0.71407 0.09966 0.0
C1649 C 0.01199 0.76964 0.14754 0.0
C1650 C 0.99113 0.77595 0.13355 0.0
C1651 C 0.98317 0.75772 0.118 0.0
C1652 C 0.97678 0.80105 0.13544 0.0
C1653 C 0.02208 0.78892 0.16393 0.0
C1654 C 0.96207 0.80641 0.15398 0.0
C1655 C 0.9493 0.83036 0.15628 0.0
C1656 C 0.95078 0.84943 0.14002 0.0
C1657 C 0.96529 0.8439 0.12132 0.0
C1658 C 0.97799 0.81981 0.11897 0.0
H1659 H 0.04188 0.78359 0.16974 0.0
H1660 H 0.02276 0.80892 0.15705 0.0
H1661 H 0.00873 0.78921 0.17801 0.0
H1662 H 0.96064 0.79211 0.16679 0.0
H1663 H 0.93837 0.83412 0.17088 0.0
H1664 H 0.2132 0.20033 0.12719 0.0
H1665 H 0.19376 0.24361 0.12421 0.0
H1666 H 0.26075 0.27031 0.0883 0.0
H1667 H 0.28087 0.22724 0.09202 0.0
H1668 H 0.24961 0.30329 0.11918 0.0
H1669 H 0.15799 0.28051 0.07603 0.0
H1670 H 0.1612 0.26158 0.10017 0.0
H1671 H 0.1842 0.25721 0.07851 0.0
C1672 C 0.22362 0.21527 0.11833 0.0
C1673 C 0.24857 0.21035 0.1098 0.0
C1674 C 0.21238 0.24001 0.11653 0.0
C1675 C 0.22557 0.26015 0.10573 0.0
C1676 C 0.25016 0.25505 0.09665 0.0
H1677 H 0.15801 0.41059 0.0737 0.0
H1678 H 0.17446 0.36569 0.07362 0.0
C1679 C 0.26161 0.23041 0.09872 0.0
C1680 C 0.21466 0.28699 0.10535 0.0
H1681 H 0.16005 0.32227 0.09331 0.0
C1682 C 0.2301 0.30746 0.11334 0.0
C1683 C 0.18929 0.29251 0.09755 0.0
C1684 C 0.17234 0.27182 0.08737 0.0
C1685 C 0.22084 0.33321 0.11397 0.0
C1686 C 0.19501 0.33853 0.10715 0.0
C1687 C 0.17968 0.31813 0.09888 0.0
C1688 C 0.18391 0.36528 0.10763 0.0
C1689 C 0.23911 0.35449 0.12145 0.0
C1690 C 0.18332 0.37985 0.12682 0.0
C1691 C 0.17432 0.40562 0.12676 0.0
C1692 C 0.16492 0.41692 0.10768 0.0
C1693 C 0.16489 0.40211 0.08864 0.0
C1694 C 0.17422 0.37652 0.08862 0.0
H1695 H 0.25987 0.34854 0.1198 0.0
H1696 H 0.2361 0.37278 0.11218 0.0
H1697 H 0.23544 0.35861 0.13874 0.0
H1698 H 0.19027 0.37146 0.14177 0.0
H1699 H 0.17551 0.41697 0.14144 0.0
H1700 H 0.3294 0.43247 0.38209 0.0
H1701 H 0.3742 0.44949 0.38266 0.0
H1702 H 0.39118 0.40746 0.32404 0.0
H1703 H 0.34632 0.39091 0.32332 0.0
H1704 H 0.42187 0.426 0.38402 0.0
H1705 H 0.41088 0.48125 0.30775 0.0
H1706 H 0.38349 0.46696 0.32168 0.0
H1707 H 0.40403 0.4471 0.3048 0.0
C1708 C 0.3429 0.42659 0.36958 0.0
C1709 C 0.33463 0.41031 0.35273 0.0
C1710 C 0.36836 0.43641 0.36981 0.0
C1711 C 0.38585 0.43013 0.35316 0.0
C1712 C 0.37783 0.4131 0.33675 0.0
H1713 H 0.55362 0.45799 0.35931 0.0
H1714 H 0.51054 0.43775 0.35621 0.0
C1715 C 0.35234 0.40352 0.33641 0.0
C1716 C 0.41238 0.44163 0.35279 0.0
H1717 H 0.45378 0.47831 0.32209 0.0
C1718 C 0.42886 0.43748 0.37051 0.0
C1719 C 0.42128 0.45695 0.33528 0.0
C1720 C 0.40392 0.46358 0.3164 0.0
C1721 C 0.45414 0.44799 0.37111 0.0
C1722 C 0.46338 0.46247 0.35323 0.0
C1723 C 0.44679 0.46686 0.33562 0.0
C1724 C 0.48975 0.47432 0.35296 0.0
C1725 C 0.47042 0.44408 0.39113 0.0
C1726 C 0.49247 0.50146 0.35092 0.0
C1727 C 0.51707 0.51305 0.35231 0.0
C1728 C 0.53941 0.49769 0.35584 0.0
C1729 C 0.53677 0.47038 0.35678 0.0
C1730 C 0.51215 0.4588 0.35521 0.0
H1731 H 0.45821 0.43871 0.40525 0.0
H1732 H 0.48451 0.42799 0.38833 0.0
H1733 H 0.4816 0.462 0.39514 0.0
H1734 H 0.47545 0.51379 0.34899 0.0
H1735 H 0.51842 0.53413 0.35151 0.0
H1736 H 0.29708 0.80774 0.61578 0.0
H1737 H 0.31937 0.76577 0.61213 0.0
H1738 H 0.24548 0.72789 0.60075 0.0
H1739 H 0.22315 0.76975 0.60384 0.0
H1740 H 0.31307 0.72313 0.63737 0.0
H1741 H 0.28947 0.69791 0.55286 0.0
H1742 H 0.28481 0.73032 0.5636 0.0
H1743 H 0.26087 0.70525 0.56837 0.0
C1744 C 0.28562 0.79057 0.61212 0.0
C1745 C 0.25834 0.79215 0.61002 0.0
C1746 C 0.29838 0.76658 0.61011 0.0
C1747 C 0.28413 0.74375 0.60592 0.0
C1748 C 0.25695 0.74533 0.60348 0.0
H1749 H 0.3247 0.58379 0.63521 0.0
H1750 H 0.30968 0.62921 0.63627 0.0
C1751 C 0.2442 0.7693 0.60535 0.0
C1752 C 0.29737 0.71804 0.60543 0.0
H1753 H 0.30466 0.66295 0.57516 0.0
C1754 C 0.31149 0.71006 0.62368 0.0
C1755 C 0.29555 0.70114 0.58747 0.0
C1756 C 0.28208 0.70918 0.56689 0.0
C1757 C 0.32323 0.68533 0.62469 0.0
C1758 C 0.32023 0.66792 0.60717 0.0
C1759 C 0.30673 0.6762 0.58869 0.0
C1760 C 0.33074 0.64095 0.60759 0.0
C1761 C 0.3389 0.67825 0.64443 0.0
C1762 C 0.3472 0.63233 0.59096 0.0
C1763 C 0.3555 0.6064 0.59027 0.0
C1764 C 0.34773 0.58868 0.60628 0.0
C1765 C 0.33156 0.59732 0.62308 0.0
C1766 C 0.323 0.62323 0.62366 0.0
H1767 H 0.346 0.69593 0.65298 0.0
H1768 H 0.32634 0.66715 0.65575 0.0
H1769 H 0.35596 0.6659 0.64018 0.0
H1770 H 0.3533 0.6456 0.57833 0.0
H1771 H 0.36784 0.60004 0.57711 0.0
H1772 H 0.98216 0.47212 0.85024 0.0
H1773 H 0.02425 0.49438 0.84775 0.0
H1774 H 0.98814 0.56657 0.86744 0.0
H1775 H 0.94595 0.54446 0.87018 0.0
H1776 H 0.04015 0.53886 0.82367 0.0
H1777 H 0.04675 0.55532 0.91217 0.0
H1778 H 0.02366 0.53287 0.90037 0.0
H1779 H 0.01774 0.56739 0.8993 0.0
C1780 C 0.98308 0.49279 0.85383 0.0
C1781 C 0.96073 0.50646 0.86058 0.0
C1782 C 0.00715 0.50546 0.85242 0.0
C1783 C 0.00934 0.53197 0.8578 0.0
C1784 C 0.98691 0.54597 0.86363 0.0
H1785 H 0.15133 0.62747 0.86626 0.0
H1786 H 0.10551 0.61341 0.86688 0.0
C1787 C 0.9628 0.53332 0.86504 0.0
C1788 C 0.03529 0.54464 0.85779 0.0
H1789 H 0.08145 0.5712 0.89092 0.0
C1790 C 0.04914 0.54606 0.83834 0.0
C1791 C 0.04689 0.55406 0.87698 0.0
C1792 C 0.03316 0.55222 0.89846 0.0
C1793 C 0.07445 0.55643 0.83758 0.0
C1794 C 0.08632 0.56519 0.85684 0.0
C1795 C 0.07223 0.56446 0.8762 0.0
C1796 C 0.11392 0.57365 0.85737 0.0
C1797 C 0.08834 0.55786 0.81616 0.0
C1798 C 0.13372 0.5558 0.85231 0.0
C1799 C 0.15976 0.56368 0.85223 0.0
C1800 C 0.16655 0.58948 0.85743 0.0
C1801 C 0.14673 0.60729 0.86281 0.0
C1802 C 0.12058 0.59936 0.86294 0.0
H1803 H 0.07439 0.55721 0.80247 0.0
H1804 H 0.10015 0.57598 0.81491 0.0
H1805 H 0.1017 0.54092 0.81463 0.0
H1806 H 0.129 0.53575 0.84833 0.0
H1807 H 0.17469 0.54962 0.84803 0.0
H1808 H 0.79086 0.80064 0.87189 0.0
H1809 H 0.81057 0.75732 0.87374 0.0
H1810 H 0.74742 0.73095 0.91425 0.0
H1811 H 0.72705 0.77405 0.91181 0.0
H1812 H 0.82854 0.72699 0.90501 0.0
H1813 H 0.74408 0.67851 0.86627 0.0
H1814 H 0.74713 0.71353 0.86773 0.0
H1815 H 0.73521 0.69533 0.89053 0.0
C1816 C 0.78128 0.78572 0.88139 0.0
C1817 C 0.75726 0.79069 0.89155 0.0
C1818 C 0.79256 0.76093 0.88239 0.0
C1819 C 0.78013 0.7407 0.89366 0.0
C1820 C 0.75693 0.74604 0.90488 0.0
H1821 H 0.85048 0.59315 0.92908 0.0
H1822 H 0.83475 0.6381 0.92754 0.0
C1823 C 0.74543 0.77074 0.90364 0.0
C1824 C 0.79121 0.71395 0.89324 0.0
H1825 H 0.77651 0.65063 0.88116 0.0
C1826 C 0.81721 0.7103 0.89971 0.0
C1827 C 0.77663 0.69226 0.88581 0.0
C1828 C 0.74932 0.69509 0.87697 0.0
C1829 C 0.82885 0.6855 0.89939 0.0
C1830 C 0.8138 0.66361 0.89307 0.0
C1831 C 0.78798 0.66735 0.8862 0.0
C1832 C 0.82422 0.63659 0.89377 0.0
C1833 C 0.85729 0.68316 0.90541 0.0
C1834 C 0.8227 0.6204 0.87554 0.0
C1835 C 0.83111 0.59445 0.87655 0.0
C1836 C 0.84155 0.58433 0.89575 0.0
C1837 C 0.8429 0.60056 0.91398 0.0
C1838 C 0.83419 0.62634 0.91305 0.0
H1839 H 0.86785 0.70182 0.90269 0.0
H1840 H 0.85887 0.67837 0.9228 0.0
H1841 H 0.86713 0.66755 0.89602 0.0
H1842 H 0.81465 0.62774 0.86057 0.0
H1843 H 0.82865 0.58221 0.86252 0.0
H1844 H 0.65976 0.60263 0.68059 0.0
H1845 H 0.61497 0.58596 0.68147 0.0
H1846 H 0.62048 0.56637 0.61397 0.0
H1847 H 0.66588 0.58137 0.61356 0.0
H1848 H 0.57109 0.59832 0.66152 0.0
H1849 H 0.59932 0.49762 0.63896 0.0
H1850 H 0.62306 0.52233 0.64555 0.0
H1851 H 0.60889 0.52104 0.619 0.0
C1852 C 0.65122 0.59494 0.66594 0.0
C1853 C 0.66596 0.59382 0.64689 0.0
C1854 C 0.6257 0.58547 0.66642 0.0
C1855 C 0.61448 0.57456 0.64787 0.0
C1856 C 0.62889 0.57425 0.62859 0.0
H1857 H 0.4512 0.54229 0.62731 0.0
H1858 H 0.49397 0.56242 0.63119 0.0
C1859 C 0.65459 0.5834 0.6282 0.0
C1860 C 0.588 0.56296 0.64894 0.0
H1861 H 0.55386 0.50712 0.63882 0.0
C1862 C 0.56733 0.57833 0.65667 0.0
C1863 C 0.58321 0.53666 0.64314 0.0
C1864 C 0.60485 0.51838 0.63643 0.0
C1865 C 0.5419 0.56833 0.65828 0.0
C1866 C 0.53686 0.5425 0.6513 0.0
C1867 C 0.55765 0.52698 0.64402 0.0
C1868 C 0.51016 0.53133 0.65069 0.0
C1869 C 0.52088 0.58543 0.6678 0.0
C1870 C 0.50502 0.5069 0.66009 0.0
C1871 C 0.48066 0.49502 0.65748 0.0
C1872 C 0.46096 0.50746 0.64556 0.0
C1873 C 0.46586 0.53231 0.63681 0.0
C1874 C 0.49031 0.54396 0.63913 0.0
H1875 H 0.52925 0.60016 0.67897 0.0
H1876 H 0.51088 0.59615 0.65463 0.0
H1877 H 0.50614 0.57374 0.67669 0.0
H1878 H 0.52008 0.49674 0.66902 0.0
H1879 H 0.47747 0.47586 0.66439 0.0
H1880 H 0.70512 0.19498 0.38534 0.0
H1881 H 0.68344 0.2375 0.38701 0.0
H1882 H 0.75726 0.27457 0.40034 0.0
H1883 H 0.779 0.23223 0.39916 0.0
H1884 H 0.71802 0.29392 0.42519 0.0
H1885 H 0.68866 0.29183 0.3391 0.0
H1886 H 0.67724 0.2644 0.35446 0.0
H1887 H 0.71168 0.26898 0.35042 0.0
C1888 C 0.71669 0.21214 0.3889 0.0
C1889 C 0.74382 0.21024 0.39199 0.0
C1890 C 0.70431 0.23644 0.38963 0.0
C1891 C 0.71886 0.25922 0.39327 0.0
C1892 C 0.74571 0.25723 0.39733 0.0
H1893 H 0.6781 0.42 0.36551 0.0
H1894 H 0.69478 0.37507 0.36448 0.0
C1895 C 0.75809 0.23298 0.3967 0.0
C1896 C 0.70631 0.28524 0.39266 0.0
H1897 H 0.67271 0.32713 0.36006 0.0
C1898 C 0.70807 0.30119 0.41097 0.0
C1899 C 0.69385 0.29484 0.37391 0.0
C1900 C 0.69292 0.27927 0.35327 0.0
C1901 C 0.69754 0.32644 0.41114 0.0
C1902 C 0.68418 0.3357 0.39268 0.0
C1903 C 0.68263 0.31985 0.37428 0.0
C1904 C 0.67233 0.36207 0.39204 0.0
C1905 C 0.70154 0.34319 0.43089 0.0
C1906 C 0.65359 0.36938 0.40739 0.0
C1907 C 0.6443 0.39496 0.40805 0.0
C1908 C 0.65305 0.41348 0.39304 0.0
C1909 C 0.67079 0.40589 0.377 0.0
C1910 C 0.68038 0.38033 0.3765 0.0
H1911 H 0.71826 0.33623 0.44074 0.0
H1912 H 0.70509 0.36388 0.42642 0.0
H1913 H 0.6838 0.34232 0.4411 0.0
H1914 H 0.64658 0.35544 0.41917 0.0
H1915 H 0.63053 0.40049 0.42048 0.0
H1916 H 0.83028 0.44937 0.15449 0.0
H1917 H 0.87645 0.46157 0.15414 0.0
H1918 H 0.89716 0.38284 0.13647 0.0
H1919 H 0.85088 0.37046 0.13714 0.0
H1920 H 0.91679 0.4379 0.17981 0.0
H1921 H 0.93557 0.42988 0.09163 0.0
H1922 H 0.90302 0.43263 0.10255 0.0
H1923 H 0.92043 0.40235 0.1046 0.0
C1924 C 0.8447 0.43474 0.15036 0.0
C1925 C 0.83699 0.40913 0.14538 0.0
C1926 C 0.871 0.4417 0.15018 0.0
C1927 C 0.89014 0.42318 0.14504 0.0
C1928 C 0.8826 0.39753 0.14005 0.0
H1929 H 0.05766 0.45267 0.13117 0.0
H1930 H 0.01595 0.42987 0.13488 0.0
C1931 C 0.85618 0.39053 0.14027 0.0
C1932 C 0.91797 0.43083 0.14562 0.0
H1933 H 0.97064 0.44304 0.11352 0.0
C1934 C 0.92866 0.43884 0.16536 0.0
C1935 C 0.93339 0.43183 0.12676 0.0
C1936 C 0.92261 0.42389 0.10511 0.0
C1937 C 0.95428 0.44836 0.16669 0.0
C1938 C 0.96937 0.45038 0.14769 0.0
C1939 C 0.95899 0.44149 0.12807 0.0
C1940 C 0.99523 0.46333 0.14749 0.0
C1941 C 0.96489 0.45625 0.18841 0.0
C1942 C 0.99744 0.48964 0.15352 0.0
C1943 C 0.02124 0.50269 0.15151 0.0
C1944 C 0.04327 0.48974 0.14326 0.0
C1945 C 0.04115 0.46318 0.13773 0.0
C1946 C 0.01731 0.45013 0.13975 0.0
H1947 H 0.95459 0.44599 0.2017 0.0
H1948 H 0.9861 0.45207 0.18966 0.0
H1949 H 0.96193 0.47753 0.1907 0.0
H1950 H 0.98053 0.50037 0.15908 0.0
H1951 H 0.02212 0.52317 0.1558 0.0
H1952 H 0.78058 0.73371 0.6036 0.0
H1953 H 0.7592 0.77614 0.60103 0.0
H1954 H 0.68415 0.73928 0.60904 0.0
H1955 H 0.70546 0.69673 0.6122 0.0
H1956 H 0.72314 0.79652 0.57412 0.0
H1957 H 0.68406 0.7924 0.65748 0.0
H1958 H 0.70777 0.76935 0.64751 0.0
H1959 H 0.67384 0.76571 0.64075 0.0
C1960 C 0.7595 0.73453 0.60461 0.0
C1961 C 0.74474 0.71183 0.60834 0.0
C1962 C 0.74731 0.75884 0.60317 0.0
C1963 C 0.72015 0.76094 0.60536 0.0
C1964 C 0.70521 0.73818 0.60791 0.0
H1965 H 0.63621 0.90463 0.57563 0.0
H1966 H 0.65208 0.85949 0.57632 0.0
C1967 C 0.71741 0.71384 0.60953 0.0
C1968 C 0.70771 0.78705 0.60542 0.0
H1969 H 0.67112 0.82851 0.63617 0.0
C1970 C 0.71171 0.80351 0.58766 0.0
C1971 C 0.69323 0.79629 0.6233 0.0
C1972 C 0.68964 0.78015 0.64344 0.0
C1973 C 0.70159 0.82895 0.58722 0.0
C1974 C 0.68642 0.8379 0.60481 0.0
C1975 C 0.6825 0.82149 0.62262 0.0
C1976 C 0.67512 0.86453 0.60527 0.0
C1977 C 0.70794 0.84622 0.56821 0.0
C1978 C 0.68181 0.88196 0.62185 0.0
C1979 C 0.67238 0.90758 0.62165 0.0
C1980 C 0.65607 0.91607 0.60489 0.0
C1981 C 0.64883 0.89842 0.58866 0.0
C1982 C 0.65802 0.87278 0.58897 0.0
H1983 H 0.72542 0.83917 0.55936 0.0
H1984 H 0.69125 0.84613 0.55682 0.0
H1985 H 0.71148 0.86666 0.5734 0.0
H1986 H 0.69496 0.87597 0.6346 0.0
H1987 H 0.67864 0.92101 0.63407 0.0
H1988 H 0.84357 0.90202 0.8234 0.0
H1989 H 0.88908 0.91649 0.82454 0.0
H1990 H 0.88207 0.93028 0.89291 0.0
H1991 H 0.83605 0.91744 0.89138 0.0
H1992 H 0.90399 0.9701 0.87421 0.0
H1993 H 0.95403 0.88129 0.84494 0.0
H1994 H 0.92966 0.89223 0.82629 0.0
H1995 H 0.92012 0.88127 0.85274 0.0
C1996 C 0.85198 0.90776 0.83869 0.0
C1997 C 0.83666 0.90774 0.85744 0.0
C1998 C 0.87801 0.91579 0.83939 0.0
C1999 C 0.88929 0.92376 0.85893 0.0
C2000 C 0.87395 0.92377 0.87771 0.0
H2001 H 0.05412 0.95695 0.87828 0.0
H2002 H 0.0111 0.93651 0.87626 0.0
C2003 C 0.8478 0.91605 0.87693 0.0
C2004 C 0.91636 0.93411 0.85944 0.0
H2005 H 0.97915 0.9208 0.84456 0.0
C2006 C 0.92044 0.9592 0.86789 0.0
C2007 C 0.93793 0.9198 0.85144 0.0
C2008 C 0.93528 0.89205 0.84356 0.0
C2009 C 0.94533 0.97056 0.86823 0.0
C2010 C 0.96664 0.95683 0.85916 0.0
C2011 C 0.96272 0.93151 0.85112 0.0
C2012 C 0.99327 0.96818 0.85849 0.0
C2013 C 0.94857 0.99694 0.87875 0.0
C2014 C 0.99781 0.99232 0.84843 0.0
C2015 C 0.0223 0.0042 0.84976 0.0
C2016 C 0.04284 0.99191 0.86083 0.0
C2017 C 0.03869 0.96696 0.86967 0.0
C2018 C 0.0141 0.95525 0.86855 0.0
H2019 H 0.93249 1.0011 0.89027 0.0
H2020 H 0.9674 0.99828 0.88753 0.0
H2021 H 0.94821 0.01232 0.86616 0.0
H2022 H 0.98222 0.00229 0.84 0.0
H2023 H 0.02495 0.0233 0.84259 0.0
H2024 H 0.86433 0.09775 0.07793 0.0
H2025 H 0.84947 0.14318 0.07919 0.0
H2026 H 0.80704 0.12675 0.13772 0.0
H2027 H 0.82246 0.08141 0.13663 0.0
H2028 H 0.80075 0.16016 0.07649 0.0
H2029 H 0.84306 0.19384 0.15379 0.0
H2030 H 0.85296 0.16377 0.14103 0.0
H2031 H 0.82348 0.16504 0.15677 0.0
C2032 C 0.85218 0.10407 0.09122 0.0
C2033 C 0.84485 0.08635 0.10737 0.0
C2034 C 0.84369 0.12993 0.09194 0.0
C2035 C 0.82745 0.13851 0.10872 0.0
C2036 C 0.82016 0.12081 0.12496 0.0
H2037 H 0.72123 0.26913 0.10425 0.0
H2038 H 0.74259 0.22668 0.10172 0.0
C2039 C 0.82893 0.09494 0.12435 0.0
C2040 C 0.81678 0.16544 0.1083 0.0
H2041 H 0.81042 0.22114 0.13804 0.0
C2042 C 0.80306 0.17357 0.08989 0.0
C2043 C 0.82007 0.18305 0.12566 0.0
C2044 C 0.83592 0.1761 0.14533 0.0
C2045 C 0.7921 0.1986 0.08851 0.0
C2046 C 0.79434 0.21577 0.10626 0.0
C2047 C 0.80853 0.20787 0.1245 0.0
C2048 C 0.78163 0.24177 0.10648 0.0
C2049 C 0.7785 0.20648 0.06794 0.0
C2050 C 0.79643 0.26438 0.11022 0.0
C2051 C 0.78422 0.2887 0.11189 0.0
C2052 C 0.75697 0.29084 0.10989 0.0
C2053 C 0.74228 0.26823 0.10565 0.0
C2054 C 0.75448 0.24392 0.10412 0.0
H2055 H 0.78547 0.1948 0.05399 0.0
H2056 H 0.75723 0.20298 0.06967 0.0
H2057 H 0.78158 0.22749 0.06434 0.0
H2058 H 0.8174 0.26314 0.11215 0.0
H2059 H 0.79609 0.30572 0.11524 0.0
H2060 H 0.44677 0.04589 0.36875 0.0
H2061 H 0.48903 0.06761 0.36505 0.0
H2062 H 0.52409 0.99477 0.34566 0.0
H2063 H 0.48194 0.97293 0.34908 0.0
H2064 H 0.53337 0.05475 0.38853 0.0
H2065 H 0.55226 0.04595 0.30091 0.0
H2066 H 0.52023 0.04144 0.31247 0.0
H2067 H 0.54383 0.01546 0.31336 0.0
C2068 C 0.46337 0.03457 0.36333 0.0
C2069 C 0.46099 0.00765 0.35921 0.0
C2070 C 0.4875 0.04702 0.36127 0.0
C2071 C 0.50961 0.03286 0.35489 0.0
C2072 C 0.50716 0.00617 0.3502 0.0
H2073 H 0.67511 0.049 0.34893 0.0
H2074 H 0.62929 0.03551 0.34927 0.0
C2075 C 0.48305 0.99369 0.35225 0.0
C2076 C 0.53563 0.04541 0.35474 0.0
H2077 H 0.58902 0.05625 0.32314 0.0
C2078 C 0.54544 0.05544 0.37418 0.0
C2079 C 0.55127 0.04626 0.33599 0.0
C2080 C 0.54129 0.03694 0.31445 0.0
C2081 C 0.57095 0.06528 0.37558 0.0
C2082 C 0.58685 0.06537 0.35697 0.0
C2083 C 0.57677 0.05604 0.3374 0.0
C2084 C 0.61447 0.07373 0.35765 0.0
C2085 C 0.58107 0.07449 0.39712 0.0
C2086 C 0.62127 0.09969 0.36225 0.0
C2087 C 0.64748 0.1074 0.3621 0.0
C2088 C 0.6672 0.08921 0.35737 0.0
C2089 C 0.66025 0.06329 0.35276 0.0
C2090 C 0.63416 0.05561 0.35293 0.0
H2091 H 0.56817 0.06843 0.41061 0.0
H2092 H 0.60099 0.06676 0.40012 0.0
H2093 H 0.58223 0.09612 0.3971 0.0
H2094 H 0.6063 0.11409 0.36547 0.0
H2095 H 0.65223 0.12768 0.36495 0.0
H2096 H 0.2276 0.27596 0.41128 0.0
H2097 H 0.24871 0.23342 0.41529 0.0
H2098 H 0.31175 0.25898 0.3743 0.0
H2099 H 0.29134 0.30182 0.37096 0.0
H2100 H 0.25719 0.19925 0.38467 0.0
H2101 H 0.35229 0.22465 0.4213 0.0
H2102 H 0.32568 0.24762 0.41976 0.0
H2103 H 0.34656 0.24233 0.39682 0.0
C2104 C 0.24624 0.27267 0.4035 0.0
C2105 C 0.25787 0.29224 0.39088 0.0
C2106 C 0.25825 0.24835 0.40575 0.0
C2107 C 0.28197 0.24306 0.39529 0.0
C2108 C 0.29384 0.26277 0.383 0.0
H2109 H 0.32983 0.08454 0.36307 0.0
H2110 H 0.3151 0.12983 0.36159 0.0
C2111 C 0.28206 0.28724 0.38102 0.0
C2112 C 0.29314 0.21636 0.39584 0.0
H2113 H 0.3488 0.1819 0.40605 0.0
C2114 C 0.27717 0.19544 0.38951 0.0
C2115 C 0.31914 0.21136 0.40232 0.0
C2116 C 0.33681 0.23266 0.41065 0.0
C2117 C 0.28647 0.16971 0.38935 0.0
C2118 C 0.31281 0.16484 0.39493 0.0
C2119 C 0.32873 0.18571 0.40145 0.0
C2120 C 0.32387 0.13809 0.39504 0.0
C2121 C 0.26773 0.148 0.38376 0.0
C2122 C 0.33488 0.12805 0.414 0.0
C2123 C 0.34419 0.10248 0.41462 0.0
C2124 C 0.34276 0.08639 0.39631 0.0
C2125 C 0.33208 0.09659 0.37723 0.0
C2126 C 0.32309 0.12235 0.37651 0.0
H2127 H 0.24711 0.15406 0.38617 0.0
H2128 H 0.27015 0.14274 0.36653 0.0
H2129 H 0.27146 0.13034 0.39366 0.0
H2130 H 0.33575 0.13983 0.42848 0.0
H2131 H 0.35226 0.09509 0.42955 0.0
H2132 H 0.98347 0.97278 0.15151 0.0
H2133 H 0.0257 0.99485 0.15315 0.0
H2134 H 0.98899 0.0677 0.13607 0.0
H2135 H 0.94656 0.04589 0.13453 0.0
H2136 H 0.0475 0.02098 0.11658 0.0
H2137 H 0.03726 0.08705 0.18729 0.0
H2138 H 0.01646 0.05899 0.18329 0.0
H2139 H 0.01139 0.08808 0.16772 0.0
C2140 C 0.98425 0.9936 0.14851 0.0
C2141 C 0.96165 0.00756 0.14282 0.0
C2142 C 0.00841 0.00615 0.1494 0.0
C2143 C 0.0104 0.03288 0.14481 0.0
C2144 C 0.98779 0.04712 0.13995 0.0
H2145 H 0.15179 0.12964 0.1366 0.0
H2146 H 0.10615 0.11511 0.13388 0.0
C2147 C 0.96358 0.03458 0.13902 0.0
C2148 C 0.03643 0.04524 0.14341 0.0
H2149 H 0.07621 0.09036 0.16708 0.0
C2150 C 0.05377 0.03619 0.12759 0.0
C2151 C 0.04435 0.06532 0.1576 0.0
C2152 C 0.02653 0.0754 0.17506 0.0
C2153 C 0.07906 0.04637 0.1258 0.0
C2154 C 0.08733 0.06579 0.14047 0.0
C2155 C 0.06974 0.07546 0.15587 0.0
C2156 C 0.11477 0.0747 0.14116 0.0
C2157 C 0.09674 0.03619 0.10826 0.0
C2158 C 0.13454 0.05684 0.1463 0.0
C2159 C 0.1604 0.06505 0.1477 0.0
C2160 C 0.16705 0.09124 0.14396 0.0
C2161 C 0.14725 0.10921 0.13891 0.0
C2162 C 0.12123 0.10099 0.13758 0.0
H2163 H 0.08541 0.02747 0.0948 0.0
H2164 H 0.10933 0.05197 0.10173 0.0
H2165 H 0.10954 0.02076 0.11503 0.0
H2166 H 0.12989 0.03659 0.14955 0.0
H2167 H 0.17532 0.05092 0.15181 0.0
H2168 H 0.20274 0.92299 0.90502 0.0
H2169 H 0.21526 0.87687 0.90505 0.0
H2170 H 0.13606 0.85525 0.88977 0.0
H2171 H 0.1234 0.90146 0.89003 0.0
H2172 H 0.19317 0.83691 0.93182 0.0
H2173 H 0.18136 0.8163 0.84422 0.0
H2174 H 0.18415 0.84909 0.85466 0.0
H2175 H 0.15418 0.83136 0.85772 0.0
C2176 C 0.18808 0.90837 0.9015 0.0
C2177 C 0.16226 0.91578 0.89704 0.0
C2178 C 0.19522 0.8821 0.90154 0.0
C2179 C 0.17665 0.86273 0.89716 0.0
C2180 C 0.15078 0.86998 0.89275 0.0
H2181 H 0.20452 0.69488 0.88508 0.0
H2182 H 0.18233 0.73689 0.88909 0.0
C2183 C 0.14361 0.89635 0.89273 0.0
C2184 C 0.18449 0.83496 0.8979 0.0
H2185 H 0.1951 0.78155 0.86626 0.0
C2186 C 0.19343 0.82471 0.91753 0.0
C2187 C 0.18463 0.81913 0.87925 0.0
C2188 C 0.17575 0.82945 0.85769 0.0
C2189 C 0.20297 0.7991 0.91895 0.0
C2190 C 0.204 0.78356 0.90014 0.0
C2191 C 0.19426 0.79353 0.88065 0.0
C2192 C 0.21669 0.75759 0.89995 0.0
C2193 C 0.2119 0.78895 0.94055 0.0
C2194 C 0.24329 0.75529 0.90494 0.0
C2195 C 0.25602 0.73134 0.90272 0.0
C2196 C 0.24241 0.70928 0.89529 0.0
C2197 C 0.21556 0.71147 0.8909 0.0
C2198 C 0.20285 0.73546 0.89313 0.0
H2199 H 0.20252 0.79973 0.95402 0.0
H2200 H 0.20752 0.76783 0.94232 0.0
H2201 H 0.23332 0.79167 0.94198 0.0
H2202 H 0.25447 0.77224 0.90981 0.0
H2203 H 0.27673 0.73037 0.90612 0.0
H2204 H 0.34159 0.90287 0.68028 0.0
H2205 H 0.38658 0.91906 0.68075 0.0
H2206 H 0.38058 0.9382 0.61319 0.0
H2207 H 0.33503 0.92363 0.61318 0.0
H2208 H 0.43014 0.90582 0.66026 0.0
H2209 H 0.40289 0.00687 0.63782 0.0
H2210 H 0.37893 0.98251 0.64474 0.0
H2211 H 0.39275 0.98344 0.61806 0.0
C2212 C 0.35006 0.91037 0.66553 0.0
C2213 C 0.33516 0.91145 0.64657 0.0
C2214 C 0.3757 0.91956 0.66578 0.0
C2215 C 0.38686 0.93016 0.64708 0.0
C2216 C 0.37224 0.93052 0.62791 0.0
H2217 H 0.55066 0.96142 0.62602 0.0
H2218 H 0.50773 0.94146 0.62959 0.0
C2219 C 0.34644 0.92164 0.62776 0.0
C2220 C 0.41351 0.94142 0.64788 0.0
H2221 H 0.4482 0.99689 0.63762 0.0
C2222 C 0.43409 0.92578 0.65541 0.0
C2223 C 0.41855 0.96765 0.64203 0.0
C2224 C 0.39707 0.98617 0.63544 0.0
C2225 C 0.45965 0.93548 0.65685 0.0
C2226 C 0.4649 0.96129 0.64994 0.0
C2227 C 0.44423 0.97705 0.64278 0.0
C2228 C 0.49169 0.9723 0.64945 0.0
C2229 C 0.4806 0.9181 0.66614 0.0
C2230 C 0.49696 0.9965 0.65917 0.0
C2231 C 0.5214 0.00827 0.65677 0.0
C2232 C 0.54107 0.99594 0.64472 0.0
C2233 C 0.53603 0.9713 0.63563 0.0
C2234 C 0.51149 0.95975 0.63776 0.0
H2235 H 0.47218 0.9032 0.67714 0.0
H2236 H 0.49054 0.9076 0.65283 0.0
H2237 H 0.49539 0.92957 0.67515 0.0
H2238 H 0.48195 0.00659 0.66822 0.0
H2239 H 0.52469 0.02727 0.66395 0.0
loop_
_geom_bond_atom_site_label_1
_geom_bond_atom_site_label_2
_geom_bond_distance
_geom_bond_site_symmetry_2
_ccdc_geom_bond_type
Zn0 O1 2.055 . S
Zn0 O8 2.046 . S
Zn0 N16 2.036 . S
Zn0 O28 2.053 . S
Zn0 O30 2.066 . S
O1 Zn0 2.055 . S
O1 C4 1.259 . S
C2 O30 1.256 . S
C2 O31 1.244 . S
Zn3 O5 2.046 . S
Zn3 O7 2.055 . S
Zn3 N9 2.036 . S
Zn3 O27 2.066 . S
Zn3 O31 2.053 . S
C4 O1 1.259 . S
C4 O5 1.254 . S
O5 Zn3 2.046 . S
O5 C4 1.254 . S
C6 O27 1.256 . S
C6 O28 1.244 . S
O7 Zn3 2.055 . S
O7 C29 1.259 . S
O8 Zn0 2.046 . S
O8 C29 1.254 . S
N9 Zn3 2.036 . S
N9 C10 1.298 . S
N9 N12 1.398 . S
C10 N9 1.298 . S
C10 N13 1.367 . S
C10 C23 1.481 . S
C11 N12 1.299 . S
C11 N13 1.379 . S
N12 N9 1.398 . S
N12 C11 1.299 . S
N13 C10 1.367 . S
N13 C11 1.379 . S
C14 N16 1.298 . S
C14 N18 1.367 . S
C14 C22 1.481 . S
C15 N17 1.299 . S
C15 N18 1.379 . S
N16 Zn0 2.036 . S
N16 C14 1.298 . S
N16 N17 1.398 . S
N17 C15 1.299 . S
N17 N16 1.398 . S
N18 C14 1.367 . S
N18 C15 1.379 . S
H19 C22 0.980 . S
H20 C22 0.981 . S
H21 C22 0.981 . S
C22 C14 1.481 . S
C22 H19 0.980 . S
C22 H20 0.981 . S
C22 H21 0.981 . S
C23 C10 1.481 . S
C23 H24 0.980 . S
C23 H25 0.981 . S
C23 H26 0.981 . S
H24 C23 0.980 . S
H25 C23 0.981 . S
H26 C23 0.981 . S
O27 Zn3 2.066 . S
O27 C6 1.256 . S
O28 Zn0 2.053 . S
O28 C6 1.244 . S
C29 O7 1.259 . S
C29 O8 1.254 . S
O30 Zn0 2.066 . S
O30 C2 1.256 . S
O31 C2 1.244 . S
O31 Zn3 2.053 . S
Zn32 O33 2.055 . S
Zn32 O40 2.046 . S
Zn32 N48 2.036 . S
Zn32 O60 2.053 . S
Zn32 O62 2.066 . S
O33 Zn32 2.055 . S
O33 C36 1.259 . S
C34 O62 1.256 . S
C34 O63 1.244 . S
Zn35 O37 2.046 . S
Zn35 O39 2.055 . S
Zn35 N41 2.036 . S
Zn35 O59 2.066 . S
Zn35 O63 2.053 . S
C36 O33 1.259 . S
C36 O37 1.254 . S
O37 Zn35 2.046 . S
O37 C36 1.254 . S
C38 O59 1.256 . S
C38 O60 1.244 . S
O39 Zn35 2.055 . S
O39 C61 1.259 . S
O40 Zn32 2.046 . S
O40 C61 1.254 . S
N41 Zn35 2.036 . S
N41 C42 1.298 . S
N41 N44 1.398 . S
C42 N41 1.298 . S
C42 N45 1.367 . S
C42 C55 1.481 . S
C43 N44 1.299 . S
C43 N45 1.379 . S
N44 N41 1.398 . S
N44 C43 1.299 . S
N45 C42 1.367 . S
N45 C43 1.379 . S
C46 N48 1.298 . S
C46 N50 1.367 . S
C46 C54 1.481 . S
C47 N49 1.299 . S
C47 N50 1.379 . S
N48 Zn32 2.036 . S
N48 C46 1.298 . S
N48 N49 1.398 . S
N49 C47 1.299 . S
N49 N48 1.398 . S
N50 C46 1.367 . S
N50 C47 1.379 . S
H51 C54 0.980 . S
H52 C54 0.981 . S
H53 C54 0.981 . S
C54 C46 1.481 . S
C54 H51 0.980 . S
C54 H52 0.981 . S
C54 H53 0.981 . S
C55 C42 1.481 . S
C55 H56 0.980 . S
C55 H57 0.981 . S
C55 H58 0.981 . S
H56 C55 0.980 . S
H57 C55 0.981 . S
H58 C55 0.981 . S
O59 Zn35 2.066 . S
O59 C38 1.256 . S
O60 Zn32 2.053 . S
O60 C38 1.244 . S
C61 O39 1.259 . S
C61 O40 1.254 . S
O62 Zn32 2.066 . S
O62 C34 1.256 . S
O63 C34 1.244 . S
O63 Zn35 2.053 . S
Zn64 O65 2.055 . S
Zn64 O72 2.046 . S
Zn64 N80 2.036 . S
Zn64 O92 2.053 . S
Zn64 O94 2.066 . S
O65 Zn64 2.055 . S
O65 C68 1.259 . S
C66 O94 1.256 . S
C66 O95 1.244 . S
Zn67 O69 2.046 . S
Zn67 O71 2.055 . S
Zn67 N73 2.036 . S
Zn67 O91 2.066 . S
Zn67 O95 2.053 . S
C68 O65 1.259 . S
C68 O69 1.254 . S
O69 Zn67 2.046 . S
O69 C68 1.254 . S
C70 O91 1.256 . S
C70 O92 1.244 . S
O71 Zn67 2.055 . S
O71 C93 1.259 . S
O72 Zn64 2.046 . S
O72 C93 1.254 . S
N73 Zn67 2.036 . S
N73 C74 1.298 . S
N73 N76 1.398 . S
C74 N73 1.298 . S
C74 N77 1.367 . S
C74 C87 1.481 . S
C75 N76 1.299 . S
C75 N77 1.379 . S
N76 N73 1.398 . S
N76 C75 1.299 . S
N77 C74 1.367 . S
N77 C75 1.379 . S
C78 N80 1.298 . S
C78 N82 1.367 . S
C78 C86 1.481 . S
C79 N81 1.299 . S
C79 N82 1.379 . S
N80 Zn64 2.036 . S
N80 C78 1.298 . S
N80 N81 1.398 . S
N81 C79 1.299 . S
N81 N80 1.398 . S
N82 C78 1.367 . S
N82 C79 1.379 . S
H83 C86 0.980 . S
H84 C86 0.981 . S
H85 C86 0.981 . S
C86 C78 1.481 . S
C86 H83 0.980 . S
C86 H84 0.981 . S
C86 H85 0.981 . S
C87 C74 1.481 . S
C87 H88 0.980 . S
C87 H89 0.981 . S
C87 H90 0.981 . S
H88 C87 0.980 . S
H89 C87 0.981 . S
H90 C87 0.981 . S
O91 Zn67 2.066 . S
O91 C70 1.256 . S
O92 Zn64 2.053 . S
O92 C70 1.244 . S
C93 O71 1.259 . S
C93 O72 1.254 . S
O94 Zn64 2.066 . S
O94 C66 1.256 . S
O95 C66 1.244 . S
O95 Zn67 2.053 . S
Zn96 O97 2.055 . S
Zn96 O104 2.046 . S
Zn96 N112 2.036 . S
Zn96 O124 2.053 . S
Zn96 O126 2.066 . S
O97 Zn96 2.055 . S
O97 C100 1.259 . S
C98 O126 1.256 . S
C98 O127 1.244 . S
Zn99 O101 2.046 . S
Zn99 O103 2.055 . S
Zn99 N105 2.036 . S
Zn99 O123 2.066 . S
Zn99 O127 2.053 . S
C100 O97 1.259 . S
C100 O101 1.254 . S
O101 Zn99 2.046 . S
O101 C100 1.254 . S
C102 O123 1.256 . S
C102 O124 1.244 . S
O103 Zn99 2.055 . S
O103 C125 1.259 . S
O104 Zn96 2.046 . S
O104 C125 1.254 . S
N105 Zn99 2.036 . S
N105 C106 1.298 . S
N105 N108 1.398 . S
C106 N105 1.298 . S
C106 N109 1.367 . S
C106 C119 1.481 . S
C107 N108 1.299 . S
C107 N109 1.379 . S
N108 N105 1.398 . S
N108 C107 1.299 . S
N109 C106 1.367 . S
N109 C107 1.379 . S
C110 N112 1.298 . S
C110 N114 1.367 . S
C110 C118 1.481 . S
C111 N113 1.299 . S
C111 N114 1.379 . S
N112 Zn96 2.036 . S
N112 C110 1.298 . S
N112 N113 1.398 . S
N113 C111 1.299 . S
N113 N112 1.398 . S
N114 C110 1.367 . S
N114 C111 1.379 . S
H115 C118 0.980 . S
H116 C118 0.981 . S
H117 C118 0.981 . S
C118 C110 1.481 . S
C118 H115 0.980 . S
C118 H116 0.981 . S
C118 H117 0.981 . S
C119 C106 1.481 . S
C119 H120 0.980 . S
C119 H121 0.981 . S
C119 H122 0.981 . S
H120 C119 0.980 . S
H121 C119 0.981 . S
H122 C119 0.981 . S
O123 Zn99 2.066 . S
O123 C102 1.256 . S
O124 Zn96 2.053 . S
O124 C102 1.244 . S
C125 O103 1.259 . S
C125 O104 1.254 . S
O126 Zn96 2.066 . S
O126 C98 1.256 . S
O127 C98 1.244 . S
O127 Zn99 2.053 . S
Zn128 O129 2.055 . S
Zn128 O136 2.046 . S
Zn128 N144 2.036 . S
Zn128 O156 2.053 . S
Zn128 O158 2.066 . S
O129 Zn128 2.055 . S
O129 C132 1.259 . S
C130 O158 1.256 . S
C130 O159 1.244 . S
Zn131 O133 2.046 . S
Zn131 O135 2.055 . S
Zn131 N137 2.036 . S
Zn131 O155 2.066 . S
Zn131 O159 2.053 . S
C132 O129 1.259 . S
C132 O133 1.254 . S
O133 Zn131 2.046 . S
O133 C132 1.254 . S
C134 O155 1.256 . S
C134 O156 1.244 . S
O135 Zn131 2.055 . S
O135 C157 1.259 . S
O136 Zn128 2.046 . S
O136 C157 1.254 . S
N137 Zn131 2.036 . S
N137 C138 1.298 . S
N137 N140 1.398 . S
C138 N137 1.298 . S
C138 N141 1.367 . S
C138 C151 1.481 . S
C139 N140 1.299 . S
C139 N141 1.379 . S
N140 N137 1.398 . S
N140 C139 1.299 . S
N141 C138 1.367 . S
N141 C139 1.379 . S
C142 N144 1.298 . S
C142 N146 1.367 . S
C142 C150 1.481 . S
C143 N145 1.299 . S
C143 N146 1.379 . S
N144 Zn128 2.036 . S
N144 C142 1.298 . S
N144 N145 1.398 . S
N145 C143 1.299 . S
N145 N144 1.398 . S
N146 C142 1.367 . S
N146 C143 1.379 . S
H147 C150 0.980 . S
H148 C150 0.981 . S
H149 C150 0.981 . S
C150 C142 1.481 . S
C150 H147 0.980 . S
C150 H148 0.981 . S
C150 H149 0.981 . S
C151 C138 1.481 . S
C151 H152 0.980 . S
C151 H153 0.981 . S
C151 H154 0.981 . S
H152 C151 0.980 . S
H153 C151 0.981 . S
H154 C151 0.981 . S
O155 Zn131 2.066 . S
O155 C134 1.256 . S
O156 Zn128 2.053 . S
O156 C134 1.244 . S
C157 O135 1.259 . S
C157 O136 1.254 . S
O158 Zn128 2.066 . S
O158 C130 1.256 . S
O159 C130 1.244 . S
O159 Zn131 2.053 . S
Zn160 O161 2.055 . S
Zn160 O168 2.046 . S
Zn160 N176 2.036 . S
Zn160 O188 2.053 . S
Zn160 O190 2.066 . S
O161 Zn160 2.055 . S
O161 C164 1.259 . S
C162 O190 1.256 . S
C162 O191 1.244 . S
Zn163 O165 2.046 . S
Zn163 O167 2.055 . S
Zn163 N169 2.036 . S
Zn163 O187 2.066 . S
Zn163 O191 2.053 . S
C164 O161 1.259 . S
C164 O165 1.254 . S
O165 Zn163 2.046 . S
O165 C164 1.254 . S
C166 O187 1.256 . S
C166 O188 1.244 . S
O167 Zn163 2.055 . S
O167 C189 1.259 . S
O168 Zn160 2.046 . S
O168 C189 1.254 . S
N169 Zn163 2.036 . S
N169 C170 1.298 . S
N169 N172 1.398 . S
C170 N169 1.298 . S
C170 N173 1.367 . S
C170 C183 1.481 . S
C171 N172 1.299 . S
C171 N173 1.379 . S
N172 N169 1.398 . S
N172 C171 1.299 . S
N173 C170 1.367 . S
N173 C171 1.379 . S
C174 N176 1.298 . S
C174 N178 1.367 . S
C174 C182 1.481 . S
C175 N177 1.299 . S
C175 N178 1.379 . S
N176 Zn160 2.036 . S
N176 C174 1.298 . S
N176 N177 1.398 . S
N177 C175 1.299 . S
N177 N176 1.398 . S
N178 C174 1.367 . S
N178 C175 1.379 . S
H179 C182 0.980 . S
H180 C182 0.981 . S
H181 C182 0.981 . S
C182 C174 1.481 . S
C182 H179 0.980 . S
C182 H180 0.981 . S
C182 H181 0.981 . S
C183 C170 1.481 . S
C183 H184 0.980 . S
C183 H185 0.981 . S
C183 H186 0.981 . S
H184 C183 0.980 . S
H185 C183 0.981 . S
H186 C183 0.981 . S
O187 Zn163 2.066 . S
O187 C166 1.256 . S
O188 Zn160 2.053 . S
O188 C166 1.244 . S
C189 O167 1.259 . S
C189 O168 1.254 . S
O190 Zn160 2.066 . S
O190 C162 1.256 . S
O191 C162 1.244 . S
O191 Zn163 2.053 . S
Zn192 O193 2.055 . S
Zn192 O200 2.046 . S
Zn192 N208 2.036 . S
Zn192 O220 2.053 . S
Zn192 O222 2.066 . S
O193 Zn192 2.055 . S
O193 C196 1.259 . S
C194 O222 1.256 . S
C194 O223 1.244 . S
Zn195 O197 2.046 . S
Zn195 O199 2.055 . S
Zn195 N201 2.036 . S
Zn195 O219 2.066 . S
Zn195 O223 2.053 . S
C196 O193 1.259 . S
C196 O197 1.254 . S
O197 Zn195 2.046 . S
O197 C196 1.254 . S
C198 O219 1.256 . S
C198 O220 1.244 . S
O199 Zn195 2.055 . S
O199 C221 1.259 . S
O200 Zn192 2.046 . S
O200 C221 1.254 . S
N201 Zn195 2.036 . S
N201 C202 1.298 . S
N201 N204 1.398 . S
C202 N201 1.298 . S
C202 N205 1.367 . S
C202 C215 1.481 . S
C203 N204 1.299 . S
C203 N205 1.379 . S
N204 N201 1.398 . S
N204 C203 1.299 . S
N205 C202 1.367 . S
N205 C203 1.379 . S
C206 N208 1.298 . S
C206 N210 1.367 . S
C206 C214 1.481 . S
C207 N209 1.299 . S
C207 N210 1.379 . S
N208 Zn192 2.036 . S
N208 C206 1.298 . S
N208 N209 1.398 . S
N209 C207 1.299 . S
N209 N208 1.398 . S
N210 C206 1.367 . S
N210 C207 1.379 . S
H211 C214 0.980 . S
H212 C214 0.981 . S
H213 C214 0.981 . S
C214 C206 1.481 . S
C214 H211 0.980 . S
C214 H212 0.981 . S
C214 H213 0.981 . S
C215 C202 1.481 . S
C215 H216 0.980 . S
C215 H217 0.981 . S
C215 H218 0.981 . S
H216 C215 0.980 . S
H217 C215 0.981 . S
H218 C215 0.981 . S
O219 Zn195 2.066 . S
O219 C198 1.256 . S
O220 Zn192 2.053 . S
O220 C198 1.244 . S
C221 O199 1.259 . S
C221 O200 1.254 . S
O222 Zn192 2.066 . S
O222 C194 1.256 . S
O223 C194 1.244 . S
O223 Zn195 2.053 . S
Zn224 O225 2.055 . S
Zn224 O232 2.046 . S
Zn224 N240 2.036 . S
Zn224 O252 2.053 . S
Zn224 O254 2.066 . S
O225 Zn224 2.055 . S
O225 C228 1.259 . S
C226 O254 1.256 . S
C226 O255 1.244 . S
Zn227 O229 2.046 . S
Zn227 O231 2.055 . S
Zn227 N233 2.036 . S
Zn227 O251 2.066 . S
Zn227 O255 2.053 . S
C228 O225 1.259 . S
C228 O229 1.254 . S
O229 Zn227 2.046 . S
O229 C228 1.254 . S
C230 O251 1.256 . S
C230 O252 1.244 . S
O231 Zn227 2.055 . S
O231 C253 1.259 . S
O232 Zn224 2.046 . S
O232 C253 1.254 . S
N233 Zn227 2.036 . S
N233 C234 1.298 . S
N233 N236 1.398 . S
C234 N233 1.298 . S
C234 N237 1.367 . S
C234 C247 1.481 . S
C235 N236 1.299 . S
C235 N237 1.379 . S
N236 N233 1.398 . S
N236 C235 1.299 . S
N237 C234 1.367 . S
N237 C235 1.379 . S
C238 N240 1.298 . S
C238 N242 1.367 . S
C238 C246 1.481 . S
C239 N241 1.299 . S
C239 N242 1.379 . S
N240 Zn224 2.036 . S
N240 C238 1.298 . S
N240 N241 1.398 . S
N241 C239 1.299 . S
N241 N240 1.398 . S
N242 C238 1.367 . S
N242 C239 1.379 . S
H243 C246 0.980 . S
H244 C246 0.981 . S
H245 C246 0.981 . S
C246 C238 1.481 . S
C246 H243 0.980 . S
C246 H244 0.981 . S
C246 H245 0.981 . S
C247 C234 1.481 . S
C247 H248 0.980 . S
C247 H249 0.981 . S
C247 H250 0.981 . S
H248 C247 0.980 . S
H249 C247 0.981 . S
H250 C247 0.981 . S
O251 Zn227 2.066 . S
O251 C230 1.256 . S
O252 Zn224 2.053 . S
O252 C230 1.244 . S
C253 O231 1.259 . S
C253 O232 1.254 . S
O254 Zn224 2.066 . S
O254 C226 1.256 . S
O255 C226 1.244 . S
O255 Zn227 2.053 . S
Zn256 O257 2.055 . S
Zn256 O264 2.046 . S
Zn256 N272 2.036 . S
Zn256 O284 2.053 . S
Zn256 O286 2.066 . S
O257 Zn256 2.055 . S
O257 C260 1.259 . S
C258 O286 1.256 . S
C258 O287 1.244 . S
Zn259 O261 2.046 . S
Zn259 O263 2.055 . S
Zn259 N265 2.036 . S
Zn259 O283 2.066 . S
Zn259 O287 2.053 . S
C260 O257 1.259 . S
C260 O261 1.254 . S
O261 Zn259 2.046 . S
O261 C260 1.254 . S
C262 O283 1.256 . S
C262 O284 1.244 . S
O263 Zn259 2.055 . S
O263 C285 1.259 . S
O264 Zn256 2.046 . S
O264 C285 1.254 . S
N265 Zn259 2.036 . S
N265 C266 1.298 . S
N265 N268 1.398 . S
C266 N265 1.298 . S
C266 N269 1.367 . S
C266 C279 1.481 . S
C267 N268 1.299 . S
C267 N269 1.379 . S
N268 N265 1.398 . S
N268 C267 1.299 . S
N269 C266 1.367 . S
N269 C267 1.379 . S
C270 N272 1.298 . S
C270 N274 1.367 . S
C270 C278 1.481 . S
C271 N273 1.299 . S
C271 N274 1.379 . S
N272 Zn256 2.036 . S
N272 C270 1.298 . S
N272 N273 1.398 . S
N273 C271 1.299 . S
N273 N272 1.398 . S
N274 C270 1.367 . S
N274 C271 1.379 . S
H275 C278 0.980 . S
H276 C278 0.981 . S
H277 C278 0.981 . S
C278 C270 1.481 . S
C278 H275 0.980 . S
C278 H276 0.981 . S
C278 H277 0.981 . S
C279 C266 1.481 . S
C279 H280 0.980 . S
C279 H281 0.981 . S
C279 H282 0.981 . S
H280 C279 0.980 . S
H281 C279 0.981 . S
H282 C279 0.981 . S
O283 Zn259 2.066 . S
O283 C262 1.256 . S
O284 Zn256 2.053 . S
O284 C262 1.244 . S
C285 O263 1.259 . S
C285 O264 1.254 . S
O286 Zn256 2.066 . S
O286 C258 1.256 . S
O287 C258 1.244 . S
O287 Zn259 2.053 . S
Zn288 O289 2.055 . S
Zn288 O296 2.046 . S
Zn288 N304 2.036 . S
Zn288 O316 2.053 . S
Zn288 O318 2.066 . S
O289 Zn288 2.055 . S
O289 C292 1.259 . S
C290 O318 1.256 . S
C290 O319 1.244 . S
Zn291 O293 2.046 1_565 S
Zn291 O295 2.055 . S
Zn291 N297 2.036 . S
Zn291 O315 2.064 1_565 S
Zn291 O319 2.053 1_565 S
C292 O289 1.259 . S
C292 O293 1.254 . S
O293 Zn291 2.046 1_545 S
O293 C292 1.254 . S
C294 O315 1.276 . S
C294 O316 1.244 . S
O295 Zn291 2.055 . S
O295 C317 1.259 1_565 S
O296 Zn288 2.046 . S
O296 C317 1.254 . S
N297 Zn291 2.036 . S
N297 C298 1.298 . S
N297 N300 1.398 . S
C298 N297 1.298 . S
C298 N301 1.367 . S
C298 C311 1.481 . S
C299 N300 1.299 . S
C299 N301 1.379 . S
N300 N297 1.398 . S
N300 C299 1.299 . S
N301 C298 1.367 . S
N301 C299 1.379 . S
C302 N304 1.298 . S
C302 N306 1.367 . S
C302 C310 1.481 . S
C303 N305 1.299 . S
C303 N306 1.379 . S
N304 Zn288 2.036 . S
N304 C302 1.298 . S
N304 N305 1.398 . S
N305 C303 1.299 . S
N305 N304 1.398 . S
N306 C302 1.367 . S
N306 C303 1.379 . S
H307 C310 0.980 . S
H308 C310 0.981 . S
H309 C310 0.981 . S
C310 C302 1.481 . S
C310 H307 0.980 . S
C310 H308 0.981 . S
C310 H309 0.981 . S
C311 C298 1.481 . S
C311 H312 0.980 . S
C311 H313 0.981 . S
C311 H314 0.981 . S
H312 C311 0.980 . S
H313 C311 0.981 . S
H314 C311 0.981 . S
O315 Zn291 2.064 1_545 S
O315 C294 1.276 . S
O316 Zn288 2.053 . S
O316 C294 1.244 . S
C317 O295 1.259 1_545 S
C317 O296 1.254 . S
O318 Zn288 2.066 . S
O318 C290 1.256 . S
O319 C290 1.244 . S
O319 Zn291 2.053 1_545 S
Zn320 O321 2.055 . S
Zn320 O328 2.046 . S
Zn320 N336 2.036 . S
Zn320 O348 2.053 . S
Zn320 O350 2.066 . S
O321 Zn320 2.055 . S
O321 C324 1.259 . S
C322 O350 1.256 . S
C322 O351 1.244 . S
Zn323 O325 2.046 . S
Zn323 O327 2.055 . S
Zn323 N329 2.036 . S
Zn323 O347 2.066 . S
Zn323 O351 2.053 . S
C324 O321 1.259 . S
C324 O325 1.254 . S
O325 Zn323 2.046 . S
O325 C324 1.254 . S
C326 O347 1.256 . S
C326 O348 1.244 . S
O327 Zn323 2.055 . S
O327 C349 1.259 . S
O328 Zn320 2.046 . S
O328 C349 1.254 . S
N329 Zn323 2.036 . S
N329 C330 1.298 . S
N329 N332 1.398 . S
C330 N329 1.298 . S
C330 N333 1.367 . S
C330 C343 1.481 . S
C331 N332 1.299 . S
C331 N333 1.379 . S
N332 N329 1.398 . S
N332 C331 1.299 . S
N333 C330 1.367 . S
N333 C331 1.379 . S
C334 N336 1.298 . S
C334 N338 1.367 . S
C334 C342 1.481 . S
C335 N337 1.299 . S
C335 N338 1.379 . S
N336 Zn320 2.036 . S
N336 C334 1.298 . S
N336 N337 1.398 . S
N337 C335 1.299 . S
N337 N336 1.398 . S
N338 C334 1.367 . S
N338 C335 1.379 . S
H339 C342 0.980 . S
H340 C342 0.981 . S
H341 C342 0.981 . S
C342 C334 1.481 . S
C342 H339 0.980 . S
C342 H340 0.981 . S
C342 H341 0.981 . S
C343 C330 1.481 . S
C343 H344 0.980 . S
C343 H345 0.981 . S
C343 H346 0.981 . S
H344 C343 0.980 . S
H345 C343 0.981 . S
H346 C343 0.981 . S
O347 Zn323 2.066 . S
O347 C326 1.256 . S
O348 Zn320 2.053 . S
O348 C326 1.244 . S
C349 O327 1.259 . S
C349 O328 1.254 . S
O350 Zn320 2.066 . S
O350 C322 1.256 . S
O351 C322 1.244 . S
O351 Zn323 2.053 . S
Zn352 O353 2.055 . S
Zn352 O360 2.046 1_545 S
Zn352 N368 2.036 . S
Zn352 O380 2.053 1_545 S
Zn352 O382 2.064 1_545 S
O353 Zn352 2.055 . S
O353 C356 1.259 1_545 S
C354 O382 1.276 . S
C354 O383 1.244 . S
Zn355 O357 2.046 . S
Zn355 O359 2.055 . S
Zn355 N361 2.036 . S
Zn355 O379 2.066 . S
Zn355 O383 2.053 . S
C356 O353 1.259 1_565 S
C356 O357 1.254 . S
O357 Zn355 2.046 . S
O357 C356 1.254 . S
C358 O379 1.256 . S
C358 O380 1.244 . S
O359 Zn355 2.055 . S
O359 C381 1.259 . S
O360 Zn352 2.046 1_565 S
O360 C381 1.254 . S
N361 Zn355 2.036 . S
N361 C362 1.298 . S
N361 N364 1.398 . S
C362 N361 1.298 . S
C362 N365 1.367 . S
C362 C375 1.481 . S
C363 N364 1.299 . S
C363 N365 1.379 . S
N364 N361 1.398 . S
N364 C363 1.299 . S
N365 C362 1.367 . S
N365 C363 1.379 . S
C366 N368 1.298 . S
C366 N370 1.367 . S
C366 C374 1.481 . S
C367 N369 1.299 . S
C367 N370 1.379 . S
N368 Zn352 2.036 . S
N368 C366 1.298 . S
N368 N369 1.398 . S
N369 C367 1.299 . S
N369 N368 1.398 . S
N370 C366 1.367 . S
N370 C367 1.379 . S
H371 C374 0.980 . S
H372 C374 0.981 . S
H373 C374 0.981 . S
C374 C366 1.481 . S
C374 H371 0.980 . S
C374 H372 0.981 . S
C374 H373 0.981 . S
C375 C362 1.481 . S
C375 H376 0.980 . S
C375 H377 0.981 . S
C375 H378 0.981 . S
H376 C375 0.980 . S
H377 C375 0.981 . S
H378 C375 0.981 . S
O379 Zn355 2.066 . S
O379 C358 1.256 . S
O380 Zn352 2.053 1_565 S
O380 C358 1.244 . S
C381 O359 1.259 . S
C381 O360 1.254 . S
O382 Zn352 2.064 1_565 S
O382 C354 1.276 . S
O383 C354 1.244 . S
O383 Zn355 2.053 . S
Zn384 O385 2.055 . S
Zn384 O392 2.046 . S
Zn384 N400 2.036 . S
Zn384 O412 2.053 . S
Zn384 O414 2.066 . S
O385 Zn384 2.055 . S
O385 C388 1.259 . S
C386 O414 1.256 . S
C386 O415 1.244 . S
Zn387 O389 2.046 . S
Zn387 O391 2.055 . S
Zn387 N393 2.036 . S
Zn387 O411 2.066 . S
Zn387 O415 2.053 . S
C388 O385 1.259 . S
C388 O389 1.254 . S
O389 Zn387 2.046 . S
O389 C388 1.254 . S
C390 O411 1.256 . S
C390 O412 1.244 . S
O391 Zn387 2.055 . S
O391 C413 1.259 . S
O392 Zn384 2.046 . S
O392 C413 1.254 . S
N393 Zn387 2.036 . S
N393 C394 1.298 . S
N393 N396 1.398 . S
C394 N393 1.298 . S
C394 N397 1.367 . S
C394 C407 1.481 . S
C395 N396 1.299 . S
C395 N397 1.379 . S
N396 N393 1.398 . S
N396 C395 1.299 . S
N397 C394 1.367 . S
N397 C395 1.379 . S
C398 N400 1.298 . S
C398 N402 1.367 . S
C398 C406 1.481 . S
C399 N401 1.299 . S
C399 N402 1.379 . S
N400 Zn384 2.036 . S
N400 C398 1.298 . S
N400 N401 1.398 . S
N401 C399 1.299 . S
N401 N400 1.398 . S
N402 C398 1.367 . S
N402 C399 1.379 . S
H403 C406 0.980 . S
H404 C406 0.981 . S
H405 C406 0.981 . S
C406 C398 1.481 . S
C406 H403 0.980 . S
C406 H404 0.981 . S
C406 H405 0.981 . S
C407 C394 1.481 . S
C407 H408 0.980 . S
C407 H409 0.981 . S
C407 H410 0.981 . S
H408 C407 0.980 . S
H409 C407 0.981 . S
H410 C407 0.981 . S
O411 Zn387 2.066 . S
O411 C390 1.256 . S
O412 Zn384 2.053 . S
O412 C390 1.244 . S
C413 O391 1.259 . S
C413 O392 1.254 . S
O414 Zn384 2.066 . S
O414 C386 1.256 . S
O415 C386 1.244 . S
O415 Zn387 2.053 . S
Zn416 O417 2.055 . S
Zn416 O424 2.046 . S
Zn416 N432 2.036 . S
Zn416 O444 2.053 . S
Zn416 O446 2.066 . S
O417 Zn416 2.055 . S
O417 C420 1.259 . S
C418 O446 1.256 . S
C418 O447 1.244 . S
Zn419 O421 2.046 1_545 S
Zn419 O423 2.055 . S
Zn419 N425 2.036 . S
Zn419 O443 2.064 1_545 S
Zn419 O447 2.053 1_545 S
C420 O417 1.259 . S
C420 O421 1.254 . S
O421 Zn419 2.046 1_565 S
O421 C420 1.254 . S
C422 O443 1.276 . S
C422 O444 1.244 . S
O423 Zn419 2.055 . S
O423 C445 1.259 1_545 S
O424 Zn416 2.046 . S
O424 C445 1.254 . S
N425 Zn419 2.036 . S
N425 C426 1.298 . S
N425 N428 1.398 . S
C426 N425 1.298 . S
C426 N429 1.367 . S
C426 C439 1.481 . S
C427 N428 1.299 . S
C427 N429 1.379 . S
N428 N425 1.398 . S
N428 C427 1.299 . S
N429 C426 1.367 . S
N429 C427 1.379 . S
C430 N432 1.298 . S
C430 N434 1.367 . S
C430 C438 1.481 . S
C431 N433 1.299 . S
C431 N434 1.379 . S
N432 Zn416 2.036 . S
N432 C430 1.298 . S
N432 N433 1.398 . S
N433 C431 1.299 . S
N433 N432 1.398 . S
N434 C430 1.367 . S
N434 C431 1.379 . S
H435 C438 0.980 . S
H436 C438 0.981 . S
H437 C438 0.981 . S
C438 C430 1.481 . S
C438 H435 0.980 . S
C438 H436 0.981 . S
C438 H437 0.981 . S
C439 C426 1.481 . S
C439 H440 0.980 . S
C439 H441 0.981 . S
C439 H442 0.981 . S
H440 C439 0.980 . S
H441 C439 0.981 . S
H442 C439 0.981 . S
O443 Zn419 2.064 1_565 S
O443 C422 1.276 . S
O444 Zn416 2.053 . S
O444 C422 1.244 . S
C445 O423 1.259 1_565 S
C445 O424 1.254 . S
O446 Zn416 2.066 . S
O446 C418 1.256 . S
O447 C418 1.244 . S
O447 Zn419 2.053 1_565 S
Zn448 O449 2.055 . S
Zn448 O456 2.046 . S
Zn448 N464 2.036 . S
Zn448 O476 2.053 . S
Zn448 O478 2.066 . S
O449 Zn448 2.055 . S
O449 C452 1.259 . S
C450 O478 1.256 . S
C450 O479 1.244 . S
Zn451 O453 2.046 . S
Zn451 O455 2.055 . S
Zn451 N457 2.036 . S
Zn451 O475 2.066 . S
Zn451 O479 2.053 . S
C452 O449 1.259 . S
C452 O453 1.254 . S
O453 Zn451 2.046 . S
O453 C452 1.254 . S
C454 O475 1.256 . S
C454 O476 1.244 . S
O455 Zn451 2.055 . S
O455 C477 1.259 . S
O456 Zn448 2.046 . S
O456 C477 1.254 . S
N457 Zn451 2.036 . S
N457 C458 1.298 . S
N457 N460 1.398 . S
C458 N457 1.298 . S
C458 N461 1.367 . S
C458 C471 1.481 . S
C459 N460 1.299 . S
C459 N461 1.379 . S
N460 N457 1.398 . S
N460 C459 1.299 . S
N461 C458 1.367 . S
N461 C459 1.379 . S
C462 N464 1.298 . S
C462 N466 1.367 . S
C462 C470 1.481 . S
C463 N465 1.299 . S
C463 N466 1.379 . S
N464 Zn448 2.036 . S
N464 C462 1.298 . S
N464 N465 1.398 . S
N465 C463 1.299 . S
N465 N464 1.398 . S
N466 C462 1.367 . S
N466 C463 1.379 . S
H467 C470 0.980 . S
H468 C470 0.981 . S
H469 C470 0.981 . S
C470 C462 1.481 . S
C470 H467 0.980 . S
C470 H468 0.981 . S
C470 H469 0.981 . S
C471 C458 1.481 . S
C471 H472 0.980 . S
C471 H473 0.981 . S
C471 H474 0.981 . S
H472 C471 0.980 . S
H473 C471 0.981 . S
H474 C471 0.981 . S
O475 Zn451 2.066 . S
O475 C454 1.256 . S
O476 Zn448 2.053 . S
O476 C454 1.244 . S
C477 O455 1.259 . S
C477 O456 1.254 . S
O478 Zn448 2.066 . S
O478 C450 1.256 . S
O479 C450 1.244 . S
O479 Zn451 2.053 . S
Zn480 O481 2.055 . S
Zn480 O488 2.046 1_565 S
Zn480 N496 2.036 . S
Zn480 O508 2.053 1_565 S
Zn480 O510 2.064 1_565 S
O481 Zn480 2.055 . S
O481 C484 1.259 1_565 S
C482 O510 1.276 . S
C482 O511 1.244 . S
Zn483 O485 2.046 . S
Zn483 O487 2.055 . S
Zn483 N489 2.036 . S
Zn483 O507 2.066 . S
Zn483 O511 2.053 . S
C484 O481 1.259 1_545 S
C484 O485 1.254 . S
O485 Zn483 2.046 . S
O485 C484 1.254 . S
C486 O507 1.256 . S
C486 O508 1.244 . S
O487 Zn483 2.055 . S
O487 C509 1.259 . S
O488 Zn480 2.046 1_545 S
O488 C509 1.254 . S
N489 Zn483 2.036 . S
N489 C490 1.298 . S
N489 N492 1.398 . S
C490 N489 1.298 . S
C490 N493 1.367 . S
C490 C503 1.481 . S
C491 N492 1.299 . S
C491 N493 1.379 . S
N492 N489 1.398 . S
N492 C491 1.299 . S
N493 C490 1.367 . S
N493 C491 1.379 . S
C494 N496 1.298 . S
C494 N498 1.367 . S
C494 C502 1.481 . S
C495 N497 1.299 . S
C495 N498 1.379 . S
N496 Zn480 2.036 . S
N496 C494 1.298 . S
N496 N497 1.398 . S
N497 C495 1.299 . S
N497 N496 1.398 . S
N498 C494 1.367 . S
N498 C495 1.379 . S
H499 C502 0.980 . S
H500 C502 0.981 . S
H501 C502 0.981 . S
C502 C494 1.481 . S
C502 H499 0.980 . S
C502 H500 0.981 . S
C502 H501 0.981 . S
C503 C490 1.481 . S
C503 H504 0.980 . S
C503 H505 0.981 . S
C503 H506 0.981 . S
H504 C503 0.980 . S
H505 C503 0.981 . S
H506 C503 0.981 . S
O507 Zn483 2.066 . S
O507 C486 1.256 . S
O508 Zn480 2.053 1_545 S
O508 C486 1.244 . S
C509 O487 1.259 . S
C509 O488 1.254 . S
O510 Zn480 2.064 1_545 S
O510 C482 1.276 . S
O511 C482 1.244 . S
O511 Zn483 2.053 . S
H512 C520 0.929 . S
H513 C522 0.930 . S
H514 C524 0.930 . S
H515 C527 0.929 . S
H516 C530 0.930 . S
H517 C532 0.960 . S
H518 C532 0.960 . S
H519 C532 0.960 . S
C520 H512 0.929 . S
C520 C521 1.377 . S
C520 C522 1.384 . S
C521 C520 1.377 . S
C521 C527 1.390 . S
C522 H513 0.930 . S
C522 C520 1.384 . S
C522 C523 1.372 . S
C523 C522 1.372 . S
C523 C524 1.400 . S
C523 C528 1.490 . S
C524 H514 0.930 . S
C524 C523 1.400 . S
C524 C527 1.386 . S
H525 C541 0.930 . S
H526 C542 0.931 . S
C527 H515 0.929 . S
C527 C521 1.390 . S
C527 C524 1.386 . S
C528 C523 1.490 . S
C528 C530 1.395 . S
C528 C531 1.403 . S
H529 C535 0.930 . S
C530 H516 0.930 . S
C530 C528 1.395 . S
C530 C533 1.403 . S
C531 C528 1.403 . S
C531 C532 1.524 . S
C531 C535 1.400 . S
C532 H517 0.960 . S
C532 H518 0.960 . S
C532 H519 0.960 . S
C532 C531 1.524 . S
C533 C530 1.403 . S
C533 C534 1.392 . S
C533 C537 1.495 . S
C534 C533 1.392 . S
C534 C535 1.385 . S
C534 C536 1.478 . S
C535 H529 0.930 . S
C535 C531 1.400 . S
C535 C534 1.385 . S
C536 C534 1.478 . S
C536 C538 1.381 . S
C536 C542 1.383 . S
C537 C533 1.495 . S
C537 H543 0.959 . S
C537 H544 0.961 . S
C537 H545 0.960 . S
C538 C536 1.381 . S
C538 C539 1.394 . S
C538 H546 0.930 . S
C539 C538 1.394 . S
C539 C540 1.383 . S
C539 H547 0.929 . S
C540 C539 1.383 . S
C540 C541 1.377 . S
C541 H525 0.930 . S
C541 C540 1.377 . S
C541 C542 1.379 . S
C542 H526 0.931 . S
C542 C536 1.383 . S
C542 C541 1.379 . S
H543 C537 0.959 . S
H544 C537 0.961 . S
H545 C537 0.960 . S
H546 C538 0.930 . S
H547 C539 0.929 . S
H548 C556 0.929 . S
H549 C558 0.930 . S
H550 C560 0.930 . S
H551 C563 0.929 . S
H552 C566 0.930 . S
H553 C568 0.960 . S
H554 C568 0.960 . S
H555 C568 0.960 . S
C556 H548 0.929 . S
C556 C557 1.377 . S
C556 C558 1.384 . S
C557 C556 1.377 . S
C557 C563 1.390 . S
C558 H549 0.930 . S
C558 C556 1.384 . S
C558 C559 1.372 . S
C559 C558 1.372 . S
C559 C560 1.400 . S
C559 C564 1.490 . S
C560 H550 0.930 . S
C560 C559 1.400 . S
C560 C563 1.386 . S
H561 C577 0.930 . S
H562 C578 0.931 . S
C563 H551 0.929 . S
C563 C557 1.390 . S
C563 C560 1.386 . S
C564 C559 1.490 . S
C564 C566 1.395 . S
C564 C567 1.403 . S
H565 C571 0.930 . S
C566 H552 0.930 . S
C566 C564 1.395 . S
C566 C569 1.403 . S
C567 C564 1.403 . S
C567 C568 1.524 . S
C567 C571 1.400 . S
C568 H553 0.960 . S
C568 H554 0.960 . S
C568 H555 0.960 . S
C568 C567 1.524 . S
C569 C566 1.403 . S
C569 C570 1.392 . S
C569 C573 1.495 . S
C570 C569 1.392 . S
C570 C571 1.385 . S
C570 C572 1.478 . S
C571 H565 0.930 . S
C571 C567 1.400 . S
C571 C570 1.385 . S
C572 C570 1.478 . S
C572 C574 1.381 . S
C572 C578 1.383 . S
C573 C569 1.495 . S
C573 H579 0.959 . S
C573 H580 0.961 . S
C573 H581 0.960 . S
C574 C572 1.381 . S
C574 C575 1.394 . S
C574 H582 0.930 . S
C575 C574 1.394 . S
C575 C576 1.383 . S
C575 H583 0.929 . S
C576 C575 1.383 . S
C576 C577 1.377 . S
C577 H561 0.930 . S
C577 C576 1.377 . S
C577 C578 1.379 . S
C578 H562 0.931 . S
C578 C572 1.383 . S
C578 C577 1.379 . S
H579 C573 0.959 . S
H580 C573 0.961 . S
H581 C573 0.960 . S
H582 C574 0.930 . S
H583 C575 0.929 . S
H584 C592 0.929 . S
H585 C594 0.930 . S
H586 C596 0.930 . S
H587 C599 0.929 . S
H588 C602 0.930 . S
H589 C604 0.960 . S
H590 C604 0.960 . S
H591 C604 0.960 . S
C592 H584 0.929 . S
C592 C593 1.377 . S
C592 C594 1.384 . S
C593 C592 1.377 . S
C593 C599 1.390 . S
C594 H585 0.930 . S
C594 C592 1.384 . S
C594 C595 1.372 . S
C595 C594 1.372 . S
C595 C596 1.400 . S
C595 C600 1.490 . S
C596 H586 0.930 . S
C596 C595 1.400 . S
C596 C599 1.386 . S
H597 C613 0.930 . S
H598 C614 0.931 . S
C599 H587 0.929 . S
C599 C593 1.390 . S
C599 C596 1.386 . S
C600 C595 1.490 . S
C600 C602 1.395 . S
C600 C603 1.403 . S
H601 C607 0.930 . S
C602 H588 0.930 . S
C602 C600 1.395 . S
C602 C605 1.403 . S
C603 C600 1.403 . S
C603 C604 1.524 . S
C603 C607 1.400 . S
C604 H589 0.960 . S
C604 H590 0.960 . S
C604 H591 0.960 . S
C604 C603 1.524 . S
C605 C602 1.403 . S
C605 C606 1.392 . S
C605 C609 1.495 . S
C606 C605 1.392 . S
C606 C607 1.385 . S
C606 C608 1.478 . S
C607 H601 0.930 . S
C607 C603 1.400 . S
C607 C606 1.385 . S
C608 C606 1.478 . S
C608 C610 1.381 . S
C608 C614 1.383 . S
C609 C605 1.495 . S
C609 H615 0.959 . S
C609 H616 0.961 . S
C609 H617 0.960 . S
C610 C608 1.381 . S
C610 C611 1.394 . S
C610 H618 0.930 . S
C611 C610 1.394 . S
C611 C612 1.383 . S
C611 H619 0.929 . S
C612 C611 1.383 . S
C612 C613 1.377 . S
C613 H597 0.930 . S
C613 C612 1.377 . S
C613 C614 1.379 . S
C614 H598 0.931 . S
C614 C608 1.383 . S
C614 C613 1.379 . S
H615 C609 0.959 . S
H616 C609 0.961 . S
H617 C609 0.960 . S
H618 C610 0.930 . S
H619 C611 0.929 . S
H620 C628 0.929 . S
H621 C630 0.930 . S
H622 C632 0.930 . S
H623 C635 0.929 . S
H624 C638 0.928 1_556 S
H625 C640 0.987 . S
H626 C640 0.960 . S
H627 C640 0.960 . S
C628 H620 0.929 . S
C628 C629 1.377 . S
C628 C630 1.384 . S
C629 C628 1.377 . S
C629 C635 1.390 . S
C630 H621 0.930 . S
C630 C628 1.384 . S
C630 C631 1.372 . S
C631 C630 1.372 . S
C631 C632 1.400 . S
C631 C636 1.490 . S
C632 H622 0.930 . S
C632 C631 1.400 . S
C632 C635 1.386 . S
H633 C649 0.930 . S
H634 C650 0.931 . S
C635 H623 0.929 . S
C635 C629 1.390 . S
C635 C632 1.386 . S
C636 C631 1.490 . S
C636 C638 1.380 1_556 S
C636 C639 1.403 . S
H637 C643 0.930 . S
C638 H624 0.928 1_554 S
C638 C636 1.380 1_554 S
C638 C641 1.420 1_655 S
C639 C636 1.403 . S
C639 C640 1.524 . S
C639 C643 1.400 1_656 S
C640 H625 0.987 . S
C640 H626 0.960 . S
C640 H627 0.960 . S
C640 C639 1.524 . S
C641 C638 1.420 1_455 S
C641 C642 1.392 . S
C641 C645 1.495 . S
C642 C641 1.392 . S
C642 C643 1.385 . S
C642 C644 1.478 . S
C643 H637 0.930 . S
C643 C639 1.400 1_454 S
C643 C642 1.385 . S
C644 C642 1.478 . S
C644 C646 1.381 . S
C644 C650 1.383 . S
C645 C641 1.495 . S
C645 H651 0.959 1_455 S
C645 H652 0.961 . S
C645 H653 0.960 . S
C646 C644 1.381 . S
C646 C647 1.394 . S
C646 H654 0.930 . S
C647 C646 1.394 . S
C647 C648 1.383 . S
C647 H655 0.929 . S
C648 C647 1.383 . S
C648 C649 1.377 . S
C649 H633 0.930 . S
C649 C648 1.377 . S
C649 C650 1.379 . S
C650 H634 0.931 . S
C650 C644 1.383 . S
C650 C649 1.379 . S
H651 C645 0.959 1_655 S
H652 C645 0.961 . S
H653 C645 0.960 . S
H654 C646 0.930 . S
H655 C647 0.929 . S
H656 C664 0.929 . S
H657 C666 0.930 . S
H658 C668 0.930 . S
H659 C671 0.929 . S
H660 C674 0.930 . S
H661 C676 0.960 . S
H662 C676 0.960 . S
H663 C676 0.960 . S
C664 H656 0.929 . S
C664 C665 1.377 . S
C664 C666 1.384 . S
C665 C664 1.377 . S
C665 C671 1.390 . S
C666 H657 0.930 . S
C666 C664 1.384 . S
C666 C667 1.372 . S
C667 C666 1.372 . S
C667 C668 1.400 . S
C667 C672 1.490 . S
C668 H658 0.930 . S
C668 C667 1.400 . S
C668 C671 1.386 . S
H669 C685 0.930 . S
H670 C686 0.931 . S
C671 H659 0.929 . S
C671 C665 1.390 . S
C671 C668 1.386 . S
C672 C667 1.490 . S
C672 C674 1.395 . S
C672 C675 1.403 . S
H673 C679 0.930 . S
C674 H660 0.930 . S
C674 C672 1.395 . S
C674 C677 1.403 . S
C675 C672 1.403 . S
C675 C676 1.524 . S
C675 C679 1.400 . S
C676 H661 0.960 . S
C676 H662 0.960 . S
C676 H663 0.960 . S
C676 C675 1.524 . S
C677 C674 1.403 . S
C677 C678 1.392 . S
C677 C681 1.495 . S
C678 C677 1.392 . S
C678 C679 1.385 . S
C678 C680 1.478 . S
C679 H673 0.930 . S
C679 C675 1.400 . S
C679 C678 1.385 . S
C680 C678 1.478 . S
C680 C682 1.381 . S
C680 C686 1.383 . S
C681 C677 1.495 . S
C681 H687 0.959 . S
C681 H688 0.961 . S
C681 H689 0.960 . S
C682 C680 1.381 . S
C682 C683 1.394 . S
C682 H690 0.930 . S
C683 C682 1.394 . S
C683 C684 1.383 . S
C683 H691 0.929 . S
C684 C683 1.383 . S
C684 C685 1.377 . S
C685 H669 0.930 . S
C685 C684 1.377 . S
C685 C686 1.379 . S
C686 H670 0.931 . S
C686 C680 1.383 . S
C686 C685 1.379 . S
H687 C681 0.959 . S
H688 C681 0.961 . S
H689 C681 0.960 . S
H690 C682 0.930 . S
H691 C683 0.929 . S
H692 C700 0.929 . S
H693 C702 0.930 . S
H694 C704 0.930 . S
H695 C707 0.929 . S
H696 C710 0.930 . S
H697 C712 0.960 . S
H698 C712 0.960 . S
H699 C712 0.960 . S
C700 H692 0.929 . S
C700 C701 1.377 . S
C700 C702 1.384 . S
C701 C700 1.377 . S
C701 C707 1.390 . S
C702 H693 0.930 . S
C702 C700 1.384 . S
C702 C703 1.372 . S
C703 C702 1.372 . S
C703 C704 1.400 . S
C703 C708 1.490 . S
C704 H694 0.930 . S
C704 C703 1.400 . S
C704 C707 1.386 . S
H705 C721 0.930 . S
H706 C722 0.931 . S
C707 H695 0.929 . S
C707 C701 1.390 . S
C707 C704 1.386 . S
C708 C703 1.490 . S
C708 C710 1.395 . S
C708 C711 1.403 . S
H709 C715 0.930 . S
C710 H696 0.930 . S
C710 C708 1.395 . S
C710 C713 1.403 . S
C711 C708 1.403 . S
C711 C712 1.524 . S
C711 C715 1.400 . S
C712 H697 0.960 . S
C712 H698 0.960 . S
C712 H699 0.960 . S
C712 C711 1.524 . S
C713 C710 1.403 . S
C713 C714 1.392 . S
C713 C717 1.495 . S
C714 C713 1.392 . S
C714 C715 1.385 . S
C714 C716 1.478 . S
C715 H709 0.930 . S
C715 C711 1.400 . S
C715 C714 1.385 . S
C716 C714 1.478 . S
C716 C718 1.381 . S
C716 C722 1.383 . S
C717 C713 1.495 . S
C717 H723 0.959 . S
C717 H724 0.961 . S
C717 H725 0.960 . S
C718 C716 1.381 . S
C718 C719 1.394 . S
C718 H726 0.930 . S
C719 C718 1.394 . S
C719 C720 1.383 . S
C719 H727 0.929 . S
C720 C719 1.383 . S
C720 C721 1.377 . S
C721 H705 0.930 . S
C721 C720 1.377 . S
C721 C722 1.379 . S
C722 H706 0.931 . S
C722 C716 1.383 . S
C722 C721 1.379 . S
H723 C717 0.959 . S
H724 C717 0.961 . S
H725 C717 0.960 . S
H726 C718 0.930 . S
H727 C719 0.929 . S
H728 C736 0.922 1_545 S
H729 C738 0.930 . S
H730 C740 0.930 . S
H731 C743 0.929 . S
H732 C746 0.930 . S
H733 C748 0.960 . S
H734 C748 0.960 . S
H735 C748 0.960 . S
C736 H728 0.922 1_565 S
C736 C737 1.388 . S
C736 C738 1.381 1_565 S
C737 C736 1.388 . S
C737 C743 1.390 . S
C738 H729 0.930 . S
C738 C736 1.381 1_545 S
C738 C739 1.372 1_545 S
C739 C738 1.372 1_565 S
C739 C740 1.400 . S
C739 C744 1.490 . S
C740 H730 0.930 . S
C740 C739 1.400 . S
C740 C743 1.386 . S
H741 C757 0.930 1_565 S
H742 C758 0.931 . S
C743 H731 0.929 . S
C743 C737 1.390 . S
C743 C740 1.386 . S
C744 C739 1.490 . S
C744 C746 1.395 1_665 S
C744 C747 1.403 1_554 S
H745 C751 0.930 . S
C746 H732 0.930 . S
C746 C744 1.395 1_445 S
C746 C749 1.403 . S
C747 C744 1.403 1_556 S
C747 C748 1.524 . S
C747 C751 1.400 . S
C748 H733 0.960 . S
C748 H734 0.960 . S
C748 H735 0.960 . S
C748 C747 1.524 . S
C749 C746 1.403 . S
C749 C750 1.392 1_554 S
C749 C753 1.495 . S
C750 C749 1.392 1_556 S
C750 C751 1.385 1_445 S
C750 C752 1.478 . S
C751 H745 0.930 . S
C751 C747 1.400 . S
C751 C750 1.385 1_665 S
C752 C750 1.478 . S
C752 C754 1.381 . S
C752 C758 1.383 1_545 S
C753 C749 1.495 . S
C753 H759 0.959 . S
C753 H760 0.961 . S
C753 H761 0.960 . S
C754 C752 1.381 . S
C754 C755 1.394 . S
C754 H762 0.930 . S
C755 C754 1.394 . S
C755 C756 1.383 . S
C755 H763 0.929 . S
C756 C755 1.383 . S
C756 C757 1.377 . S
C757 H741 0.930 1_545 S
C757 C756 1.377 . S
C757 C758 1.379 1_545 S
C758 H742 0.931 . S
C758 C752 1.383 1_565 S
C758 C757 1.379 1_565 S
H759 C753 0.959 . S
H760 C753 0.961 . S
H761 C753 0.960 . S
H762 C754 0.930 . S
H763 C755 0.929 . S
H764 C772 0.929 . S
H765 C774 0.930 . S
H766 C776 0.930 . S
H767 C779 0.929 . S
H768 C782 0.930 . S
H769 C784 0.960 . S
H770 C784 0.960 . S
H771 C784 0.960 . S
C772 H764 0.929 . S
C772 C773 1.377 . S
C772 C774 1.384 . S
C773 C772 1.377 . S
C773 C779 1.390 . S
C774 H765 0.930 . S
C774 C772 1.384 . S
C774 C775 1.372 . S
C775 C774 1.372 . S
C775 C776 1.400 . S
C775 C780 1.490 . S
C776 H766 0.930 . S
C776 C775 1.400 . S
C776 C779 1.386 . S
H777 C793 0.930 . S
H778 C794 0.931 . S
C779 H767 0.929 . S
C779 C773 1.390 . S
C779 C776 1.386 . S
C780 C775 1.490 . S
C780 C782 1.395 . S
C780 C783 1.403 1_565 S
H781 C787 0.930 . S
C782 H768 0.930 . S
C782 C780 1.395 . S
C782 C785 1.403 . S
C783 C780 1.403 1_545 S
C783 C784 1.524 . S
C783 C787 1.400 . S
C784 H769 0.960 . S
C784 H770 0.960 . S
C784 H771 0.960 . S
C784 C783 1.524 . S
C785 C782 1.403 . S
C785 C786 1.392 1_565 S
C785 C789 1.495 . S
C786 C785 1.392 1_545 S
C786 C787 1.385 . S
C786 C788 1.478 . S
C787 H781 0.930 . S
C787 C783 1.400 . S
C787 C786 1.385 . S
C788 C786 1.478 . S
C788 C790 1.381 . S
C788 C794 1.383 . S
C789 C785 1.495 . S
C789 H795 0.959 . S
C789 H796 0.961 . S
C789 H797 0.960 . S
C790 C788 1.381 . S
C790 C791 1.394 . S
C790 H798 0.930 . S
C791 C790 1.394 . S
C791 C792 1.383 . S
C791 H799 0.929 . S
C792 C791 1.383 . S
C792 C793 1.377 . S
C793 H777 0.930 . S
C793 C792 1.377 . S
C793 C794 1.379 . S
C794 H778 0.931 . S
C794 C788 1.383 . S
C794 C793 1.379 . S
H795 C789 0.959 . S
H796 C789 0.961 . S
H797 C789 0.960 . S
H798 C790 0.930 . S
H799 C791 0.929 . S
H800 C808 0.929 . S
H801 C810 0.930 . S
H802 C812 0.930 . S
H803 C815 0.929 . S
H804 C818 0.930 . S
H805 C820 0.960 . S
H806 C820 0.960 . S
H807 C820 0.960 . S
C808 H800 0.929 . S
C808 C809 1.377 . S
C808 C810 1.384 . S
C809 C808 1.377 . S
C809 C815 1.390 . S
C810 H801 0.930 . S
C810 C808 1.384 . S
C810 C811 1.372 . S
C811 C810 1.372 . S
C811 C812 1.400 . S
C811 C816 1.490 . S
C812 H802 0.930 . S
C812 C811 1.400 . S
C812 C815 1.386 . S
H813 C829 0.930 . S
H814 C830 0.931 . S
C815 H803 0.929 . S
C815 C809 1.390 . S
C815 C812 1.386 . S
C816 C811 1.490 . S
C816 C818 1.395 1_556 S
C816 C819 1.403 . S
H817 C823 0.930 . S
C818 H804 0.930 . S
C818 C816 1.395 1_554 S
C818 C821 1.403 . S
C819 C816 1.403 . S
C819 C820 1.524 . S
C819 C823 1.400 1_556 S
C820 H805 0.960 . S
C820 H806 0.960 . S
C820 H807 0.960 . S
C820 C819 1.524 . S
C821 C818 1.403 . S
C821 C822 1.392 . S
C821 C825 1.495 . S
C822 C821 1.392 . S
C822 C823 1.385 . S
C822 C824 1.478 . S
C823 H817 0.930 . S
C823 C819 1.400 1_554 S
C823 C822 1.385 . S
C824 C822 1.478 . S
C824 C826 1.381 . S
C824 C830 1.383 . S
C825 C821 1.495 . S
C825 H831 0.959 . S
C825 H832 0.961 . S
C825 H833 0.960 . S
C826 C824 1.381 . S
C826 C827 1.394 . S
C826 H834 0.930 . S
C827 C826 1.394 . S
C827 C828 1.383 . S
C827 H835 0.929 . S
C828 C827 1.383 . S
C828 C829 1.377 . S
C829 H813 0.930 . S
C829 C828 1.377 . S
C829 C830 1.379 . S
C830 H814 0.931 . S
C830 C824 1.383 . S
C830 C829 1.379 . S
H831 C825 0.959 . S
H832 C825 0.961 . S
H833 C825 0.960 . S
H834 C826 0.930 . S
H835 C827 0.929 . S
H836 C844 0.929 . S
H837 C846 0.930 . S
H838 C848 0.930 . S
H839 C851 0.929 . S
H840 C854 0.930 . S
H841 C856 0.960 . S
H842 C856 0.960 . S
H843 C856 0.960 . S
C844 H836 0.929 . S
C844 C845 1.377 . S
C844 C846 1.384 . S
C845 C844 1.377 . S
C845 C851 1.390 . S
C846 H837 0.930 . S
C846 C844 1.384 . S
C846 C847 1.372 . S
C847 C846 1.372 . S
C847 C848 1.400 . S
C847 C852 1.490 . S
C848 H838 0.930 . S
C848 C847 1.400 . S
C848 C851 1.386 . S
H849 C865 0.930 . S
H850 C866 0.931 . S
C851 H839 0.929 . S
C851 C845 1.390 . S
C851 C848 1.386 . S
C852 C847 1.490 . S
C852 C854 1.395 . S
C852 C855 1.403 . S
H853 C859 0.930 . S
C854 H840 0.930 . S
C854 C852 1.395 . S
C854 C857 1.403 . S
C855 C852 1.403 . S
C855 C856 1.524 . S
C855 C859 1.400 . S
C856 H841 0.960 . S
C856 H842 0.960 . S
C856 H843 0.960 . S
C856 C855 1.524 . S
C857 C854 1.403 . S
C857 C858 1.392 . S
C857 C861 1.495 . S
C858 C857 1.392 . S
C858 C859 1.385 . S
C858 C860 1.478 . S
C859 H853 0.930 . S
C859 C855 1.400 . S
C859 C858 1.385 . S
C860 C858 1.478 . S
C860 C862 1.381 . S
C860 C866 1.383 . S
C861 C857 1.495 . S
C861 H867 0.959 . S
C861 H868 0.961 . S
C861 H869 0.960 . S
C862 C860 1.381 . S
C862 C863 1.394 . S
C862 H870 0.930 . S
C863 C862 1.394 . S
C863 C864 1.383 . S
C863 H871 0.929 . S
C864 C863 1.383 . S
C864 C865 1.377 . S
C865 H849 0.930 . S
C865 C864 1.377 . S
C865 C866 1.379 . S
C866 H850 0.931 . S
C866 C860 1.383 . S
C866 C865 1.379 . S
H867 C861 0.959 . S
H868 C861 0.961 . S
H869 C861 0.960 . S
H870 C862 0.930 . S
H871 C863 0.929 . S
H872 C880 0.929 . S
H873 C882 0.930 . S
H874 C884 0.930 . S
H875 C887 0.929 . S
H876 C890 0.930 . S
H877 C892 0.960 . S
H878 C892 0.960 . S
H879 C892 0.960 . S
C880 H872 0.929 . S
C880 C881 1.377 . S
C880 C882 1.384 . S
C881 C880 1.377 . S
C881 C887 1.390 . S
C882 H873 0.930 . S
C882 C880 1.384 . S
C882 C883 1.372 . S
C883 C882 1.372 . S
C883 C884 1.400 . S
C883 C888 1.490 . S
C884 H874 0.930 . S
C884 C883 1.400 . S
C884 C887 1.386 . S
H885 C901 0.930 . S
H886 C902 0.931 . S
C887 H875 0.929 . S
C887 C881 1.390 . S
C887 C884 1.386 . S
C888 C883 1.490 . S
C888 C890 1.395 . S
C888 C891 1.403 . S
H889 C895 0.930 . S
C890 H876 0.930 . S
C890 C888 1.395 . S
C890 C893 1.403 . S
C891 C888 1.403 . S
C891 C892 1.524 . S
C891 C895 1.400 . S
C892 H877 0.960 . S
C892 H878 0.960 . S
C892 H879 0.960 . S
C892 C891 1.524 . S
C893 C890 1.403 . S
C893 C894 1.392 . S
C893 C897 1.495 . S
C894 C893 1.392 . S
C894 C895 1.385 . S
C894 C896 1.478 . S
C895 H889 0.930 . S
C895 C891 1.400 . S
C895 C894 1.385 . S
C896 C894 1.478 . S
C896 C898 1.381 . S
C896 C902 1.383 . S
C897 C893 1.495 . S
C897 H903 0.959 . S
C897 H904 0.961 . S
C897 H905 0.960 . S
C898 C896 1.381 . S
C898 C899 1.394 . S
C898 H906 0.930 . S
C899 C898 1.394 . S
C899 C900 1.383 . S
C899 H907 0.929 . S
C900 C899 1.383 . S
C900 C901 1.377 . S
C901 H885 0.930 . S
C901 C900 1.377 . S
C901 C902 1.379 . S
C902 H886 0.931 . S
C902 C896 1.383 . S
C902 C901 1.379 . S
H903 C897 0.959 . S
H904 C897 0.961 . S
H905 C897 0.960 . S
H906 C898 0.930 . S
H907 C899 0.929 . S
H908 C916 0.929 . S
H909 C918 0.930 . S
H910 C920 0.930 . S
H911 C923 0.929 . S
H912 C926 0.930 . S
H913 C928 0.960 . S
H914 C928 0.960 . S
H915 C928 0.960 . S
C916 H908 0.929 . S
C916 C917 1.377 . S
C916 C918 1.384 . S
C917 C916 1.377 . S
C917 C923 1.390 . S
C918 H909 0.930 . S
C918 C916 1.384 . S
C918 C919 1.372 . S
C919 C918 1.372 . S
C919 C920 1.400 . S
C919 C924 1.490 . S
C920 H910 0.930 . S
C920 C919 1.400 . S
C920 C923 1.386 . S
H921 C937 0.930 . S
H922 C938 0.931 . S
C923 H911 0.929 . S
C923 C917 1.390 . S
C923 C920 1.386 . S
C924 C919 1.490 . S
C924 C926 1.395 . S
C924 C927 1.403 . S
H925 C931 0.930 . S
C926 H912 0.930 . S
C926 C924 1.395 . S
C926 C929 1.403 . S
C927 C924 1.403 . S
C927 C928 1.524 . S
C927 C931 1.400 . S
C928 H913 0.960 . S
C928 H914 0.960 . S
C928 H915 0.960 . S
C928 C927 1.524 . S
C929 C926 1.403 . S
C929 C930 1.392 . S
C929 C933 1.495 . S
C930 C929 1.392 . S
C930 C931 1.385 . S
C930 C932 1.478 . S
C931 H925 0.930 . S
C931 C927 1.400 . S
C931 C930 1.385 . S
C932 C930 1.478 . S
C932 C934 1.381 . S
C932 C938 1.383 . S
C933 C929 1.495 . S
C933 H939 0.959 . S
C933 H940 0.961 . S
C933 H941 0.960 . S
C934 C932 1.381 . S
C934 C935 1.394 . S
C934 H942 0.930 . S
C935 C934 1.394 . S
C935 C936 1.383 . S
C935 H943 0.929 . S
C936 C935 1.383 . S
C936 C937 1.377 . S
C937 H921 0.930 . S
C937 C936 1.377 . S
C937 C938 1.379 . S
C938 H922 0.931 . S
C938 C932 1.383 . S
C938 C937 1.379 . S
H939 C933 0.959 . S
H940 C933 0.961 . S
H941 C933 0.960 . S
H942 C934 0.930 . S
H943 C935 0.929 . S
H944 C952 0.929 . S
H945 C954 0.930 . S
H946 C956 0.930 . S
H947 C959 0.929 . S
H948 C962 0.930 . S
H949 C964 0.960 . S
H950 C964 0.960 . S
H951 C964 0.960 1_554 S
C952 H944 0.929 . S
C952 C953 1.377 . S
C952 C954 1.384 . S
C953 C952 1.377 . S
C953 C959 1.390 . S
C954 H945 0.930 . S
C954 C952 1.384 . S
C954 C955 1.372 . S
C955 C954 1.372 . S
C955 C956 1.400 . S
C955 C960 1.490 . S
C956 H946 0.930 . S
C956 C955 1.400 . S
C956 C959 1.386 . S
H957 C973 0.930 . S
H958 C974 0.931 . S
C959 H947 0.929 . S
C959 C953 1.390 . S
C959 C956 1.386 . S
C960 C955 1.490 . S
C960 C962 1.395 . S
C960 C963 1.403 1_554 S
H961 C967 0.930 . S
C962 H948 0.930 . S
C962 C960 1.395 . S
C962 C965 1.403 1_554 S
C963 C960 1.403 1_556 S
C963 C964 1.524 . S
C963 C967 1.400 . S
C964 H949 0.960 . S
C964 H950 0.960 . S
C964 H951 0.960 1_556 S
C964 C963 1.524 . S
C965 C962 1.403 1_556 S
C965 C966 1.392 . S
C965 C969 1.495 . S
C966 C965 1.392 . S
C966 C967 1.385 . S
C966 C968 1.478 . S
C967 H961 0.930 . S
C967 C963 1.400 . S
C967 C966 1.385 . S
C968 C966 1.478 . S
C968 C970 1.381 . S
C968 C974 1.383 . S
C969 C965 1.495 . S
C969 H975 0.959 1_556 S
C969 H976 0.961 . S
C969 H977 0.960 . S
C970 C968 1.381 . S
C970 C971 1.394 . S
C970 H978 0.930 . S
C971 C970 1.394 . S
C971 C972 1.383 . S
C971 H979 0.929 . S
C972 C971 1.383 . S
C972 C973 1.377 . S
C973 H957 0.930 . S
C973 C972 1.377 . S
C973 C974 1.379 . S
C974 H958 0.931 . S
C974 C968 1.383 . S
C974 C973 1.379 . S
H975 C969 0.959 1_554 S
H976 C969 0.961 . S
H977 C969 0.960 . S
H978 C970 0.930 . S
H979 C971 0.929 . S
H980 C988 0.929 . S
H981 C990 0.930 . S
H982 C992 0.930 . S
H983 C995 0.929 . S
H984 C998 0.930 . S
H985 C1000 0.960 . S
H986 C1000 0.960 . S
H987 C1000 0.960 . S
C988 H980 0.929 . S
C988 C989 1.377 . S
C988 C990 1.384 . S
C989 C988 1.377 . S
C989 C995 1.390 . S
C990 H981 0.930 . S
C990 C988 1.384 . S
C990 C991 1.372 . S
C991 C990 1.372 . S
C991 C992 1.400 . S
C991 C996 1.490 . S
C992 H982 0.930 . S
C992 C991 1.400 . S
C992 C995 1.386 . S
H993 C1009 0.930 . S
H994 C1010 0.931 . S
C995 H983 0.929 . S
C995 C989 1.390 . S
C995 C992 1.386 . S
C996 C991 1.490 . S
C996 C998 1.395 . S
C996 C999 1.403 . S
H997 C1003 0.930 . S
C998 H984 0.930 . S
C998 C996 1.395 . S
C998 C1001 1.403 . S
C999 C996 1.403 . S
C999 C1000 1.524 . S
C999 C1003 1.400 . S
C1000 H985 0.960 . S
C1000 H986 0.960 . S
C1000 H987 0.960 . S
C1000 C999 1.524 . S
C1001 C998 1.403 . S
C1001 C1002 1.392 . S
C1001 C1005 1.495 . S
C1002 C1001 1.392 . S
C1002 C1003 1.385 . S
C1002 C1004 1.478 . S
C1003 H997 0.930 . S
C1003 C999 1.400 . S
C1003 C1002 1.385 . S
C1004 C1002 1.478 . S
C1004 C1006 1.381 . S
C1004 C1010 1.383 . S
C1005 C1001 1.495 . S
C1005 H1011 0.959 . S
C1005 H1012 0.961 . S
C1005 H1013 0.960 . S
C1006 C1004 1.381 . S
C1006 C1007 1.394 . S
C1006 H1014 0.930 . S
C1007 C1006 1.394 . S
C1007 C1008 1.383 . S
C1007 H1015 0.929 . S
C1008 C1007 1.383 . S
C1008 C1009 1.377 . S
C1009 H993 0.930 . S
C1009 C1008 1.377 . S
C1009 C1010 1.379 . S
C1010 H994 0.931 . S
C1010 C1004 1.383 . S
C1010 C1009 1.379 . S
H1011 C1005 0.959 . S
H1012 C1005 0.961 . S
H1013 C1005 0.960 . S
H1014 C1006 0.930 . S
H1015 C1007 0.929 . S
H1016 C1024 0.929 . S
H1017 C1026 0.930 . S
H1018 C1028 0.930 . S
H1019 C1031 0.929 . S
H1020 C1034 0.930 . S
H1021 C1036 0.960 . S
H1022 C1036 0.960 . S
H1023 C1036 0.960 . S
C1024 H1016 0.929 . S
C1024 C1025 1.377 . S
C1024 C1026 1.384 . S
C1025 C1024 1.377 . S
C1025 C1031 1.390 . S
C1026 H1017 0.930 . S
C1026 C1024 1.384 . S
C1026 C1027 1.372 . S
C1027 C1026 1.372 . S
C1027 C1028 1.400 . S
C1027 C1032 1.490 . S
C1028 H1018 0.930 . S
C1028 C1027 1.400 . S
C1028 C1031 1.386 . S
H1029 C1045 0.930 . S
H1030 C1046 0.931 . S
C1031 H1019 0.929 . S
C1031 C1025 1.390 . S
C1031 C1028 1.386 . S
C1032 C1027 1.490 . S
C1032 C1034 1.395 . S
C1032 C1035 1.403 . S
H1033 C1039 0.930 . S
C1034 H1020 0.930 . S
C1034 C1032 1.395 . S
C1034 C1037 1.403 . S
C1035 C1032 1.403 . S
C1035 C1036 1.524 . S
C1035 C1039 1.400 . S
C1036 H1021 0.960 . S
C1036 H1022 0.960 . S
C1036 H1023 0.960 . S
C1036 C1035 1.524 . S
C1037 C1034 1.403 . S
C1037 C1038 1.392 . S
C1037 C1041 1.495 . S
C1038 C1037 1.392 . S
C1038 C1039 1.385 . S
C1038 C1040 1.478 . S
C1039 H1033 0.930 . S
C1039 C1035 1.400 . S
C1039 C1038 1.385 . S
C1040 C1038 1.478 . S
C1040 C1042 1.381 . S
C1040 C1046 1.383 . S
C1041 C1037 1.495 . S
C1041 H1047 0.959 . S
C1041 H1048 0.961 . S
C1041 H1049 0.960 . S
C1042 C1040 1.381 . S
C1042 C1043 1.394 . S
C1042 H1050 0.930 . S
C1043 C1042 1.394 . S
C1043 C1044 1.383 . S
C1043 H1051 0.929 . S
C1044 C1043 1.383 . S
C1044 C1045 1.377 . S
C1045 H1029 0.930 . S
C1045 C1044 1.377 . S
C1045 C1046 1.379 . S
C1046 H1030 0.931 . S
C1046 C1040 1.383 . S
C1046 C1045 1.379 . S
H1047 C1041 0.959 . S
H1048 C1041 0.961 . S
H1049 C1041 0.960 . S
H1050 C1042 0.930 . S
H1051 C1043 0.929 . S
H1052 C1060 0.929 . S
H1053 C1062 0.930 . S
H1054 C1064 0.930 . S
H1055 C1067 0.929 . S
H1056 C1070 0.930 . S
H1057 C1072 0.960 . S
H1058 C1072 0.960 . S
H1059 C1072 0.960 . S
C1060 H1052 0.929 . S
C1060 C1061 1.377 . S
C1060 C1062 1.384 . S
C1061 C1060 1.377 . S
C1061 C1067 1.390 . S
C1062 H1053 0.930 . S
C1062 C1060 1.384 . S
C1062 C1063 1.372 . S
C1063 C1062 1.372 . S
C1063 C1064 1.400 . S
C1063 C1068 1.490 . S
C1064 H1054 0.930 . S
C1064 C1063 1.400 . S
C1064 C1067 1.386 . S
H1065 C1081 0.930 . S
H1066 C1082 0.931 . S
C1067 H1055 0.929 . S
C1067 C1061 1.390 . S
C1067 C1064 1.386 . S
C1068 C1063 1.490 . S
C1068 C1070 1.395 . S
C1068 C1071 1.403 . S
H1069 C1075 0.930 . S
C1070 H1056 0.930 . S
C1070 C1068 1.395 . S
C1070 C1073 1.403 . S
C1071 C1068 1.403 . S
C1071 C1072 1.524 . S
C1071 C1075 1.400 . S
C1072 H1057 0.960 . S
C1072 H1058 0.960 . S
C1072 H1059 0.960 . S
C1072 C1071 1.524 . S
C1073 C1070 1.403 . S
C1073 C1074 1.392 . S
C1073 C1077 1.495 . S
C1074 C1073 1.392 . S
C1074 C1075 1.385 . S
C1074 C1076 1.478 . S
C1075 H1069 0.930 . S
C1075 C1071 1.400 . S
C1075 C1074 1.385 . S
C1076 C1074 1.478 . S
C1076 C1078 1.381 . S
C1076 C1082 1.383 . S
C1077 C1073 1.495 . S
C1077 H1083 0.959 . S
C1077 H1084 0.961 . S
C1077 H1085 0.960 . S
C1078 C1076 1.381 . S
C1078 C1079 1.394 . S
C1078 H1086 0.930 . S
C1079 C1078 1.394 . S
C1079 C1080 1.383 . S
C1079 H1087 0.929 . S
C1080 C1079 1.383 . S
C1080 C1081 1.377 . S
C1081 H1065 0.930 . S
C1081 C1080 1.377 . S
C1081 C1082 1.379 . S
C1082 H1066 0.931 . S
C1082 C1076 1.383 . S
C1082 C1081 1.379 . S
H1083 C1077 0.959 . S
H1084 C1077 0.961 . S
H1085 C1077 0.960 . S
H1086 C1078 0.930 . S
H1087 C1079 0.929 . S
H1088 C1096 0.929 . S
H1089 C1098 0.930 . S
H1090 C1100 0.930 . S
H1091 C1103 0.929 . S
H1092 C1106 0.930 . S
H1093 C1108 0.960 . S
H1094 C1108 0.960 . S
H1095 C1108 0.960 . S
C1096 H1088 0.929 . S
C1096 C1097 1.377 . S
C1096 C1098 1.384 . S
C1097 C1096 1.377 . S
C1097 C1103 1.390 . S
C1098 H1089 0.930 . S
C1098 C1096 1.384 . S
C1098 C1099 1.372 . S
C1099 C1098 1.372 . S
C1099 C1100 1.400 . S
C1099 C1104 1.490 . S
C1100 H1090 0.930 . S
C1100 C1099 1.400 . S
C1100 C1103 1.386 . S
H1101 C1117 0.930 . S
H1102 C1118 0.931 . S
C1103 H1091 0.929 . S
C1103 C1097 1.390 . S
C1103 C1100 1.386 . S
C1104 C1099 1.490 . S
C1104 C1106 1.395 . S
C1104 C1107 1.403 . S
H1105 C1111 0.930 . S
C1106 H1092 0.930 . S
C1106 C1104 1.395 . S
C1106 C1109 1.403 . S
C1107 C1104 1.403 . S
C1107 C1108 1.524 . S
C1107 C1111 1.400 . S
C1108 H1093 0.960 . S
C1108 H1094 0.960 . S
C1108 H1095 0.960 . S
C1108 C1107 1.524 . S
C1109 C1106 1.403 . S
C1109 C1110 1.392 . S
C1109 C1113 1.495 . S
C1110 C1109 1.392 . S
C1110 C1111 1.385 . S
C1110 C1112 1.478 . S
C1111 H1105 0.930 . S
C1111 C1107 1.400 . S
C1111 C1110 1.385 . S
C1112 C1110 1.478 . S
C1112 C1114 1.381 . S
C1112 C1118 1.383 . S
C1113 C1109 1.495 . S
C1113 H1119 0.959 . S
C1113 H1120 0.961 . S
C1113 H1121 0.960 . S
C1114 C1112 1.381 . S
C1114 C1115 1.394 . S
C1114 H1122 0.930 . S
C1115 C1114 1.394 . S
C1115 C1116 1.383 . S
C1115 H1123 0.929 . S
C1116 C1115 1.383 . S
C1116 C1117 1.377 . S
C1117 H1101 0.930 . S
C1117 C1116 1.377 . S
C1117 C1118 1.379 . S
C1118 H1102 0.931 . S
C1118 C1112 1.383 . S
C1118 C1117 1.379 . S
H1119 C1113 0.959 . S
H1120 C1113 0.961 . S
H1121 C1113 0.960 . S
H1122 C1114 0.930 . S
H1123 C1115 0.929 . S
H1124 C1132 0.929 . S
H1125 C1134 0.930 . S
H1126 C1136 0.930 . S
H1127 C1139 0.929 . S
H1128 C1142 0.930 . S
H1129 C1144 0.960 . S
H1130 C1144 0.960 . S
H1131 C1144 0.960 . S
C1132 H1124 0.929 . S
C1132 C1133 1.377 . S
C1132 C1134 1.384 . S
C1133 C1132 1.377 . S
C1133 C1139 1.390 1_545 S
C1134 H1125 0.930 . S
C1134 C1132 1.384 . S
C1134 C1135 1.372 1_545 S
C1135 C1134 1.372 1_565 S
C1135 C1136 1.400 . S
C1135 C1140 1.490 . S
C1136 H1126 0.930 . S
C1136 C1135 1.400 . S
C1136 C1139 1.386 . S
H1137 C1153 0.930 . S
H1138 C1154 0.931 . S
C1139 H1127 0.929 . S
C1139 C1133 1.390 1_565 S
C1139 C1136 1.386 . S
C1140 C1135 1.490 . S
C1140 C1142 1.395 . S
C1140 C1143 1.403 . S
H1141 C1147 0.930 . S
C1142 H1128 0.930 . S
C1142 C1140 1.395 . S
C1142 C1145 1.403 . S
C1143 C1140 1.403 . S
C1143 C1144 1.524 . S
C1143 C1147 1.400 . S
C1144 H1129 0.960 . S
C1144 H1130 0.960 . S
C1144 H1131 0.960 . S
C1144 C1143 1.524 . S
C1145 C1142 1.403 . S
C1145 C1146 1.392 . S
C1145 C1149 1.495 . S
C1146 C1145 1.392 . S
C1146 C1147 1.385 . S
C1146 C1148 1.478 . S
C1147 H1141 0.930 . S
C1147 C1143 1.400 . S
C1147 C1146 1.385 . S
C1148 C1146 1.478 . S
C1148 C1150 1.381 . S
C1148 C1154 1.383 . S
C1149 C1145 1.495 . S
C1149 H1155 0.959 . S
C1149 H1156 0.961 . S
C1149 H1157 0.960 . S
C1150 C1148 1.381 . S
C1150 C1151 1.394 . S
C1150 H1158 0.930 . S
C1151 C1150 1.394 . S
C1151 C1152 1.383 . S
C1151 H1159 0.929 . S
C1152 C1151 1.383 . S
C1152 C1153 1.377 . S
C1153 H1137 0.930 . S
C1153 C1152 1.377 . S
C1153 C1154 1.379 . S
C1154 H1138 0.931 . S
C1154 C1148 1.383 . S
C1154 C1153 1.379 . S
H1155 C1149 0.959 . S
H1156 C1149 0.961 . S
H1157 C1149 0.960 . S
H1158 C1150 0.930 . S
H1159 C1151 0.929 . S
H1160 C1168 0.929 . S
H1161 C1170 0.930 . S
H1162 C1172 0.930 . S
H1163 C1175 0.929 . S
H1164 C1178 0.930 . S
H1165 C1180 0.960 . S
H1166 C1180 0.960 . S
H1167 C1180 0.960 . S
C1168 H1160 0.929 . S
C1168 C1169 1.377 . S
C1168 C1170 1.384 . S
C1169 C1168 1.377 . S
C1169 C1175 1.390 . S
C1170 H1161 0.930 . S
C1170 C1168 1.384 . S
C1170 C1171 1.372 . S
C1171 C1170 1.372 . S
C1171 C1172 1.400 . S
C1171 C1176 1.490 . S
C1172 H1162 0.930 . S
C1172 C1171 1.400 . S
C1172 C1175 1.386 . S
H1173 C1189 0.930 . S
H1174 C1190 0.931 . S
C1175 H1163 0.929 . S
C1175 C1169 1.390 . S
C1175 C1172 1.386 . S
C1176 C1171 1.490 . S
C1176 C1178 1.395 . S
C1176 C1179 1.403 . S
H1177 C1183 0.930 . S
C1178 H1164 0.930 . S
C1178 C1176 1.395 . S
C1178 C1181 1.403 1_554 S
C1179 C1176 1.403 . S
C1179 C1180 1.524 . S
C1179 C1183 1.400 1_554 S
C1180 H1165 0.960 . S
C1180 H1166 0.960 . S
C1180 H1167 0.960 . S
C1180 C1179 1.524 . S
C1181 C1178 1.403 1_556 S
C1181 C1182 1.392 . S
C1181 C1185 1.495 . S
C1182 C1181 1.392 . S
C1182 C1183 1.385 . S
C1182 C1184 1.478 . S
C1183 H1177 0.930 . S
C1183 C1179 1.400 1_556 S
C1183 C1182 1.385 . S
C1184 C1182 1.478 . S
C1184 C1186 1.381 . S
C1184 C1190 1.383 . S
C1185 C1181 1.495 . S
C1185 H1191 0.959 . S
C1185 H1192 0.961 . S
C1185 H1193 0.960 . S
C1186 C1184 1.381 . S
C1186 C1187 1.394 . S
C1186 H1194 0.930 . S
C1187 C1186 1.394 . S
C1187 C1188 1.383 . S
C1187 H1195 0.929 . S
C1188 C1187 1.383 . S
C1188 C1189 1.377 . S
C1189 H1173 0.930 . S
C1189 C1188 1.377 . S
C1189 C1190 1.379 . S
C1190 H1174 0.931 . S
C1190 C1184 1.383 . S
C1190 C1189 1.379 . S
H1191 C1185 0.959 . S
H1192 C1185 0.961 . S
H1193 C1185 0.960 . S
H1194 C1186 0.930 . S
H1195 C1187 0.929 . S
H1196 C1204 0.929 . S
H1197 C1206 0.930 . S
H1198 C1208 0.930 . S
H1199 C1211 0.929 . S
H1200 C1214 0.930 . S
H1201 C1216 0.960 . S
H1202 C1216 0.960 . S
H1203 C1216 0.960 . S
C1204 H1196 0.929 . S
C1204 C1205 1.377 . S
C1204 C1206 1.384 . S
C1205 C1204 1.377 . S
C1205 C1211 1.390 . S
C1206 H1197 0.930 . S
C1206 C1204 1.384 . S
C1206 C1207 1.372 . S
C1207 C1206 1.372 . S
C1207 C1208 1.400 . S
C1207 C1212 1.490 . S
C1208 H1198 0.930 . S
C1208 C1207 1.400 . S
C1208 C1211 1.386 . S
H1209 C1225 0.930 . S
H1210 C1226 0.945 . S
C1211 H1199 0.929 . S
C1211 C1205 1.390 . S
C1211 C1208 1.386 . S
C1212 C1207 1.490 . S
C1212 C1214 1.395 . S
C1212 C1215 1.403 . S
H1213 C1219 0.930 . S
C1214 H1200 0.930 . S
C1214 C1212 1.395 . S
C1214 C1217 1.403 . S
C1215 C1212 1.403 . S
C1215 C1216 1.524 . S
C1215 C1219 1.400 . S
C1216 H1201 0.960 . S
C1216 H1202 0.960 . S
C1216 H1203 0.960 . S
C1216 C1215 1.524 . S
C1217 C1214 1.403 . S
C1217 C1218 1.392 . S
C1217 C1221 1.495 . S
C1218 C1217 1.392 . S
C1218 C1219 1.385 . S
C1218 C1220 1.478 . S
C1219 H1213 0.930 . S
C1219 C1215 1.400 . S
C1219 C1218 1.385 . S
C1220 C1218 1.478 . S
C1220 C1222 1.381 . S
C1220 C1226 1.347 1_545 S
C1221 C1217 1.495 . S
C1221 H1227 0.959 . S
C1221 H1228 0.961 . S
C1221 H1229 0.960 . S
C1222 C1220 1.381 . S
C1222 C1223 1.394 . S
C1222 H1230 0.930 . S
C1223 C1222 1.394 . S
C1223 C1224 1.383 1_545 S
C1223 H1231 0.929 . S
C1224 C1223 1.383 1_565 S
C1224 C1225 1.377 . S
C1225 H1209 0.930 . S
C1225 C1224 1.377 . S
C1225 C1226 1.402 . S
C1226 H1210 0.945 . S
C1226 C1220 1.347 1_565 S
C1226 C1225 1.402 . S
H1227 C1221 0.959 . S
H1228 C1221 0.961 . S
H1229 C1221 0.960 . S
H1230 C1222 0.930 . S
H1231 C1223 0.929 . S
H1232 C1240 0.929 . S
H1233 C1242 0.930 . S
H1234 C1244 0.930 . S
H1235 C1247 0.929 . S
H1236 C1250 0.930 . S
H1237 C1252 0.960 . S
H1238 C1252 0.960 . S
H1239 C1252 0.960 . S
C1240 H1232 0.929 . S
C1240 C1241 1.377 . S
C1240 C1242 1.384 . S
C1241 C1240 1.377 . S
C1241 C1247 1.390 . S
C1242 H1233 0.930 . S
C1242 C1240 1.384 . S
C1242 C1243 1.372 . S
C1243 C1242 1.372 . S
C1243 C1244 1.400 . S
C1243 C1248 1.490 . S
C1244 H1234 0.930 . S
C1244 C1243 1.400 . S
C1244 C1247 1.386 . S
H1245 C1261 0.930 . S
H1246 C1262 0.931 . S
C1247 H1235 0.929 . S
C1247 C1241 1.390 . S
C1247 C1244 1.386 . S
C1248 C1243 1.490 . S
C1248 C1250 1.395 . S
C1248 C1251 1.403 . S
H1249 C1255 0.930 . S
C1250 H1236 0.930 . S
C1250 C1248 1.395 . S
C1250 C1253 1.403 . S
C1251 C1248 1.403 . S
C1251 C1252 1.524 . S
C1251 C1255 1.400 . S
C1252 H1237 0.960 . S
C1252 H1238 0.960 . S
C1252 H1239 0.960 . S
C1252 C1251 1.524 . S
C1253 C1250 1.403 . S
C1253 C1254 1.392 . S
C1253 C1257 1.495 . S
C1254 C1253 1.392 . S
C1254 C1255 1.385 . S
C1254 C1256 1.478 . S
C1255 H1249 0.930 . S
C1255 C1251 1.400 . S
C1255 C1254 1.385 . S
C1256 C1254 1.478 . S
C1256 C1258 1.381 . S
C1256 C1262 1.383 . S
C1257 C1253 1.495 . S
C1257 H1263 0.959 . S
C1257 H1264 0.961 . S
C1257 H1265 0.960 . S
C1258 C1256 1.381 . S
C1258 C1259 1.394 . S
C1258 H1266 0.930 . S
C1259 C1258 1.394 . S
C1259 C1260 1.383 . S
C1259 H1267 0.929 . S
C1260 C1259 1.383 . S
C1260 C1261 1.377 . S
C1261 H1245 0.930 . S
C1261 C1260 1.377 . S
C1261 C1262 1.379 . S
C1262 H1246 0.931 . S
C1262 C1256 1.383 . S
C1262 C1261 1.379 . S
H1263 C1257 0.959 . S
H1264 C1257 0.961 . S
H1265 C1257 0.960 . S
H1266 C1258 0.930 . S
H1267 C1259 0.929 . S
H1268 C1276 0.929 . S
H1269 C1278 0.930 1_565 S
H1270 C1280 0.930 . S
H1271 C1283 0.929 . S
H1272 C1286 0.912 1_565 S
H1273 C1288 0.960 . S
H1274 C1288 0.960 . S
H1275 C1288 0.960 . S
C1276 H1268 0.929 . S
C1276 C1277 1.377 . S
C1276 C1278 1.384 1_565 S
C1277 C1276 1.377 . S
C1277 C1283 1.390 1_565 S
C1278 H1269 0.930 1_545 S
C1278 C1276 1.384 1_545 S
C1278 C1279 1.372 . S
C1279 C1278 1.372 . S
C1279 C1280 1.400 . S
C1279 C1284 1.490 . S
C1280 H1270 0.930 . S
C1280 C1279 1.400 . S
C1280 C1283 1.386 . S
H1281 C1297 0.930 . S
H1282 C1298 0.931 . S
C1283 H1271 0.929 . S
C1283 C1277 1.390 1_545 S
C1283 C1280 1.386 . S
C1284 C1279 1.490 . S
C1284 C1286 1.395 . S
C1284 C1287 1.403 . S
H1285 C1291 0.930 . S
C1286 H1272 0.912 1_545 S
C1286 C1284 1.395 . S
C1286 C1289 1.403 . S
C1287 C1284 1.403 . S
C1287 C1288 1.524 . S
C1287 C1291 1.400 . S
C1288 H1273 0.960 . S
C1288 H1274 0.960 . S
C1288 H1275 0.960 . S
C1288 C1287 1.524 . S
C1289 C1286 1.403 . S
C1289 C1290 1.392 . S
C1289 C1293 1.495 . S
C1290 C1289 1.392 . S
C1290 C1291 1.385 . S
C1290 C1292 1.478 . S
C1291 H1285 0.930 . S
C1291 C1287 1.400 . S
C1291 C1290 1.385 . S
C1292 C1290 1.478 . S
C1292 C1294 1.381 . S
C1292 C1298 1.383 . S
C1293 C1289 1.495 . S
C1293 H1299 0.959 1_545 S
C1293 H1300 0.961 . S
C1293 H1301 0.960 . S
C1294 C1292 1.381 . S
C1294 C1295 1.394 . S
C1294 H1302 0.930 . S
C1295 C1294 1.394 . S
C1295 C1296 1.383 . S
C1295 H1303 0.929 . S
C1296 C1295 1.383 . S
C1296 C1297 1.377 . S
C1297 H1281 0.930 . S
C1297 C1296 1.377 . S
C1297 C1298 1.379 . S
C1298 H1282 0.931 . S
C1298 C1292 1.383 . S
C1298 C1297 1.379 . S
H1299 C1293 0.959 1_565 S
H1300 C1293 0.961 . S
H1301 C1293 0.960 . S
H1302 C1294 0.930 . S
H1303 C1295 0.929 . S
H1304 C1312 0.929 . S
H1305 C1314 0.930 . S
H1306 C1316 0.930 . S
H1307 C1319 0.929 . S
H1308 C1322 0.930 . S
H1309 C1324 0.960 . S
H1310 C1324 0.960 . S
H1311 C1324 0.960 1_554 S
C1312 H1304 0.929 . S
C1312 C1313 1.377 . S
C1312 C1314 1.384 . S
C1313 C1312 1.377 . S
C1313 C1319 1.390 . S
C1314 H1305 0.930 . S
C1314 C1312 1.384 . S
C1314 C1315 1.372 . S
C1315 C1314 1.372 . S
C1315 C1316 1.400 . S
C1315 C1320 1.490 . S
C1316 H1306 0.930 . S
C1316 C1315 1.400 . S
C1316 C1319 1.386 . S
H1317 C1333 0.930 . S
H1318 C1334 0.931 . S
C1319 H1307 0.929 . S
C1319 C1313 1.390 . S
C1319 C1316 1.386 . S
C1320 C1315 1.490 . S
C1320 C1322 1.395 . S
C1320 C1323 1.403 1_554 S
H1321 C1327 0.930 . S
C1322 H1308 0.930 . S
C1322 C1320 1.395 . S
C1322 C1325 1.403 1_554 S
C1323 C1320 1.403 1_556 S
C1323 C1324 1.524 . S
C1323 C1327 1.400 . S
C1324 H1309 0.960 . S
C1324 H1310 0.960 . S
C1324 H1311 0.960 1_556 S
C1324 C1323 1.524 . S
C1325 C1322 1.403 1_556 S
C1325 C1326 1.392 . S
C1325 C1329 1.495 . S
C1326 C1325 1.392 . S
C1326 C1327 1.385 . S
C1326 C1328 1.478 . S
C1327 H1321 0.930 . S
C1327 C1323 1.400 . S
C1327 C1326 1.385 . S
C1328 C1326 1.478 . S
C1328 C1330 1.381 . S
C1328 C1334 1.383 . S
C1329 C1325 1.495 . S
C1329 H1335 0.959 1_556 S
C1329 H1336 0.961 . S
C1329 H1337 0.960 . S
C1330 C1328 1.381 . S
C1330 C1331 1.394 . S
C1330 H1338 0.930 . S
C1331 C1330 1.394 . S
C1331 C1332 1.383 . S
C1331 H1339 0.929 . S
C1332 C1331 1.383 . S
C1332 C1333 1.377 . S
C1333 H1317 0.930 . S
C1333 C1332 1.377 . S
C1333 C1334 1.379 . S
C1334 H1318 0.931 . S
C1334 C1328 1.383 . S
C1334 C1333 1.379 . S
H1335 C1329 0.959 1_554 S
H1336 C1329 0.961 . S
H1337 C1329 0.960 . S
H1338 C1330 0.930 . S
H1339 C1331 0.929 . S
H1340 C1348 0.929 . S
H1341 C1350 0.930 . S
H1342 C1352 0.930 . S
H1343 C1355 0.929 . S
H1344 C1358 0.930 . S
H1345 C1360 0.963 . S
H1346 C1360 0.960 . S
H1347 C1360 0.960 1_545 S
C1348 H1340 0.929 . S
C1348 C1349 1.377 1_565 S
C1348 C1350 1.384 . S
C1349 C1348 1.377 1_545 S
C1349 C1355 1.390 . S
C1350 H1341 0.930 . S
C1350 C1348 1.384 . S
C1350 C1351 1.372 . S
C1351 C1350 1.372 . S
C1351 C1352 1.400 1_565 S
C1351 C1356 1.490 . S
C1352 H1342 0.930 . S
C1352 C1351 1.400 1_545 S
C1352 C1355 1.386 . S
H1353 C1369 0.930 . S
H1354 C1370 0.931 . S
C1355 H1343 0.929 . S
C1355 C1349 1.390 . S
C1355 C1352 1.386 . S
C1356 C1351 1.490 . S
C1356 C1358 1.395 . S
C1356 C1359 1.403 . S
H1357 C1363 0.930 . S
C1358 H1344 0.930 . S
C1358 C1356 1.395 . S
C1358 C1361 1.403 . S
C1359 C1356 1.403 . S
C1359 C1360 1.524 . S
C1359 C1363 1.400 . S
C1360 H1345 0.963 . S
C1360 H1346 0.960 . S
C1360 H1347 0.960 1_565 S
C1360 C1359 1.524 . S
C1361 C1358 1.403 . S
C1361 C1362 1.392 . S
C1361 C1365 1.495 . S
C1362 C1361 1.392 . S
C1362 C1363 1.385 . S
C1362 C1364 1.478 . S
C1363 H1357 0.930 . S
C1363 C1359 1.400 . S
C1363 C1362 1.385 . S
C1364 C1362 1.478 . S
C1364 C1366 1.381 . S
C1364 C1370 1.383 . S
C1365 C1361 1.495 . S
C1365 H1371 0.959 . S
C1365 H1372 0.961 . S
C1365 H1373 0.960 . S
C1366 C1364 1.381 . S
C1366 C1367 1.394 . S
C1366 H1374 0.930 . S
C1367 C1366 1.394 . S
C1367 C1368 1.383 . S
C1367 H1375 0.929 . S
C1368 C1367 1.383 . S
C1368 C1369 1.377 . S
C1369 H1353 0.930 . S
C1369 C1368 1.377 . S
C1369 C1370 1.379 . S
C1370 H1354 0.931 . S
C1370 C1364 1.383 . S
C1370 C1369 1.379 . S
H1371 C1365 0.959 . S
H1372 C1365 0.961 . S
H1373 C1365 0.960 . S
H1374 C1366 0.930 . S
H1375 C1367 0.929 . S
H1376 C1384 0.929 . S
H1377 C1386 0.930 . S
H1378 C1388 0.930 . S
H1379 C1391 0.929 . S
H1380 C1394 0.930 . S
H1381 C1396 0.960 . S
H1382 C1396 0.960 . S
H1383 C1396 0.960 . S
C1384 H1376 0.929 . S
C1384 C1385 1.377 . S
C1384 C1386 1.384 . S
C1385 C1384 1.377 . S
C1385 C1391 1.390 . S
C1386 H1377 0.930 . S
C1386 C1384 1.384 . S
C1386 C1387 1.372 . S
C1387 C1386 1.372 . S
C1387 C1388 1.400 . S
C1387 C1392 1.490 . S
C1388 H1378 0.930 . S
C1388 C1387 1.400 . S
C1388 C1391 1.386 . S
H1389 C1405 0.930 . S
H1390 C1406 0.931 . S
C1391 H1379 0.929 . S
C1391 C1385 1.390 . S
C1391 C1388 1.386 . S
C1392 C1387 1.490 . S
C1392 C1394 1.395 . S
C1392 C1395 1.403 . S
H1393 C1399 0.930 . S
C1394 H1380 0.930 . S
C1394 C1392 1.395 . S
C1394 C1397 1.403 . S
C1395 C1392 1.403 . S
C1395 C1396 1.524 . S
C1395 C1399 1.400 . S
C1396 H1381 0.960 . S
C1396 H1382 0.960 . S
C1396 H1383 0.960 . S
C1396 C1395 1.524 . S
C1397 C1394 1.403 . S
C1397 C1398 1.392 . S
C1397 C1401 1.495 . S
C1398 C1397 1.392 . S
C1398 C1399 1.385 . S
C1398 C1400 1.478 . S
C1399 H1393 0.930 . S
C1399 C1395 1.400 . S
C1399 C1398 1.385 . S
C1400 C1398 1.478 . S
C1400 C1402 1.381 . S
C1400 C1406 1.383 . S
C1401 C1397 1.495 . S
C1401 H1407 0.959 . S
C1401 H1408 0.961 . S
C1401 H1409 0.960 . S
C1402 C1400 1.381 . S
C1402 C1403 1.394 . S
C1402 H1410 0.930 . S
C1403 C1402 1.394 . S
C1403 C1404 1.383 . S
C1403 H1411 0.929 . S
C1404 C1403 1.383 . S
C1404 C1405 1.377 . S
C1405 H1389 0.930 . S
C1405 C1404 1.377 . S
C1405 C1406 1.379 . S
C1406 H1390 0.931 . S
C1406 C1400 1.383 . S
C1406 C1405 1.379 . S
H1407 C1401 0.959 . S
H1408 C1401 0.961 . S
H1409 C1401 0.960 . S
H1410 C1402 0.930 . S
H1411 C1403 0.929 . S
H1412 C1420 0.929 . S
H1413 C1422 0.930 . S
H1414 C1424 0.930 . S
H1415 C1427 0.929 . S
H1416 C1430 0.930 . S
H1417 C1432 0.960 . S
H1418 C1432 0.960 . S
H1419 C1432 0.960 . S
C1420 H1412 0.929 . S
C1420 C1421 1.377 . S
C1420 C1422 1.384 . S
C1421 C1420 1.377 . S
C1421 C1427 1.390 . S
C1422 H1413 0.930 . S
C1422 C1420 1.384 . S
C1422 C1423 1.372 . S
C1423 C1422 1.372 . S
C1423 C1424 1.400 . S
C1423 C1428 1.490 . S
C1424 H1414 0.930 . S
C1424 C1423 1.400 . S
C1424 C1427 1.386 . S
H1425 C1441 0.930 . S
H1426 C1442 0.931 . S
C1427 H1415 0.929 . S
C1427 C1421 1.390 . S
C1427 C1424 1.386 . S
C1428 C1423 1.490 . S
C1428 C1430 1.395 . S
C1428 C1431 1.403 . S
H1429 C1435 0.930 . S
C1430 H1416 0.930 . S
C1430 C1428 1.395 . S
C1430 C1433 1.403 . S
C1431 C1428 1.403 . S
C1431 C1432 1.524 . S
C1431 C1435 1.400 . S
C1432 H1417 0.960 . S
C1432 H1418 0.960 . S
C1432 H1419 0.960 . S
C1432 C1431 1.524 . S
C1433 C1430 1.403 . S
C1433 C1434 1.392 . S
C1433 C1437 1.495 . S
C1434 C1433 1.392 . S
C1434 C1435 1.385 . S
C1434 C1436 1.478 . S
C1435 H1429 0.930 . S
C1435 C1431 1.400 . S
C1435 C1434 1.385 . S
C1436 C1434 1.478 . S
C1436 C1438 1.381 . S
C1436 C1442 1.383 . S
C1437 C1433 1.495 . S
C1437 H1443 0.959 . S
C1437 H1444 0.961 . S
C1437 H1445 0.960 . S
C1438 C1436 1.381 . S
C1438 C1439 1.394 . S
C1438 H1446 0.930 . S
C1439 C1438 1.394 . S
C1439 C1440 1.383 . S
C1439 H1447 0.929 . S
C1440 C1439 1.383 . S
C1440 C1441 1.377 . S
C1441 H1425 0.930 . S
C1441 C1440 1.377 . S
C1441 C1442 1.379 . S
C1442 H1426 0.931 . S
C1442 C1436 1.383 . S
C1442 C1441 1.379 . S
H1443 C1437 0.959 . S
H1444 C1437 0.961 . S
H1445 C1437 0.960 . S
H1446 C1438 0.930 . S
H1447 C1439 0.929 . S
H1448 C1456 0.929 . S
H1449 C1458 0.930 . S
H1450 C1460 0.930 . S
H1451 C1463 0.929 . S
H1452 C1466 0.930 . S
H1453 C1468 0.960 . S
H1454 C1468 0.960 . S
H1455 C1468 0.960 . S
C1456 H1448 0.929 . S
C1456 C1457 1.377 . S
C1456 C1458 1.384 . S
C1457 C1456 1.377 . S
C1457 C1463 1.390 . S
C1458 H1449 0.930 . S
C1458 C1456 1.384 . S
C1458 C1459 1.372 . S
C1459 C1458 1.372 . S
C1459 C1460 1.400 . S
C1459 C1464 1.490 . S
C1460 H1450 0.930 . S
C1460 C1459 1.400 . S
C1460 C1463 1.386 . S
H1461 C1477 0.930 . S
H1462 C1478 0.931 . S
C1463 H1451 0.929 . S
C1463 C1457 1.390 . S
C1463 C1460 1.386 . S
C1464 C1459 1.490 . S
C1464 C1466 1.395 . S
C1464 C1467 1.403 . S
H1465 C1471 0.930 . S
C1466 H1452 0.930 . S
C1466 C1464 1.395 . S
C1466 C1469 1.403 1_655 S
C1467 C1464 1.403 . S
C1467 C1468 1.524 . S
C1467 C1471 1.400 1_655 S
C1468 H1453 0.960 . S
C1468 H1454 0.960 . S
C1468 H1455 0.960 . S
C1468 C1467 1.524 . S
C1469 C1466 1.403 1_455 S
C1469 C1470 1.392 . S
C1469 C1473 1.495 . S
C1470 C1469 1.392 . S
C1470 C1471 1.385 . S
C1470 C1472 1.478 . S
C1471 H1465 0.930 . S
C1471 C1467 1.400 1_455 S
C1471 C1470 1.385 . S
C1472 C1470 1.478 . S
C1472 C1474 1.381 . S
C1472 C1478 1.383 . S
C1473 C1469 1.495 . S
C1473 H1479 0.959 . S
C1473 H1480 0.961 . S
C1473 H1481 0.960 . S
C1474 C1472 1.381 . S
C1474 C1475 1.394 . S
C1474 H1482 0.930 . S
C1475 C1474 1.394 . S
C1475 C1476 1.383 . S
C1475 H1483 0.929 . S
C1476 C1475 1.383 . S
C1476 C1477 1.377 . S
C1477 H1461 0.930 . S
C1477 C1476 1.377 . S
C1477 C1478 1.379 . S
C1478 H1462 0.931 . S
C1478 C1472 1.383 . S
C1478 C1477 1.379 . S
H1479 C1473 0.959 . S
H1480 C1473 0.961 . S
H1481 C1473 0.960 . S
H1482 C1474 0.930 . S
H1483 C1475 0.929 . S
H1484 C1492 0.929 . S
H1485 C1494 0.930 . S
H1486 C1496 0.930 . S
H1487 C1499 0.929 . S
H1488 C1502 0.930 . S
H1489 C1504 0.960 . S
H1490 C1504 0.960 . S
H1491 C1504 0.960 . S
C1492 H1484 0.929 . S
C1492 C1493 1.377 . S
C1492 C1494 1.384 . S
C1493 C1492 1.377 . S
C1493 C1499 1.390 . S
C1494 H1485 0.930 . S
C1494 C1492 1.384 . S
C1494 C1495 1.372 . S
C1495 C1494 1.372 . S
C1495 C1496 1.400 . S
C1495 C1500 1.490 . S
C1496 H1486 0.930 . S
C1496 C1495 1.400 . S
C1496 C1499 1.386 . S
H1497 C1513 0.930 . S
H1498 C1514 0.931 . S
C1499 H1487 0.929 . S
C1499 C1493 1.390 . S
C1499 C1496 1.386 . S
C1500 C1495 1.490 . S
C1500 C1502 1.395 1_655 S
C1500 C1503 1.403 . S
H1501 C1507 0.930 . S
C1502 H1488 0.930 . S
C1502 C1500 1.395 1_455 S
C1502 C1505 1.403 . S
C1503 C1500 1.403 . S
C1503 C1504 1.524 . S
C1503 C1507 1.400 . S
C1504 H1489 0.960 . S
C1504 H1490 0.960 . S
C1504 H1491 0.960 . S
C1504 C1503 1.524 . S
C1505 C1502 1.403 . S
C1505 C1506 1.392 . S
C1505 C1509 1.495 . S
C1506 C1505 1.392 . S
C1506 C1507 1.385 1_455 S
C1506 C1508 1.478 . S
C1507 H1501 0.930 . S
C1507 C1503 1.400 . S
C1507 C1506 1.385 1_655 S
C1508 C1506 1.478 . S
C1508 C1510 1.381 . S
C1508 C1514 1.383 . S
C1509 C1505 1.495 . S
C1509 H1515 0.959 . S
C1509 H1516 0.961 . S
C1509 H1517 0.960 . S
C1510 C1508 1.381 . S
C1510 C1511 1.394 . S
C1510 H1518 0.930 . S
C1511 C1510 1.394 . S
C1511 C1512 1.383 . S
C1511 H1519 0.929 . S
C1512 C1511 1.383 . S
C1512 C1513 1.377 . S
C1513 H1497 0.930 . S
C1513 C1512 1.377 . S
C1513 C1514 1.379 . S
C1514 H1498 0.931 . S
C1514 C1508 1.383 . S
C1514 C1513 1.379 . S
H1515 C1509 0.959 . S
H1516 C1509 0.961 . S
H1517 C1509 0.960 . S
H1518 C1510 0.930 . S
H1519 C1511 0.929 . S
H1520 C1528 0.929 . S
H1521 C1530 0.930 . S
H1522 C1532 0.930 . S
H1523 C1535 0.929 . S
H1524 C1538 0.930 . S
H1525 C1540 0.960 . S
H1526 C1540 0.960 . S
H1527 C1540 0.960 . S
C1528 H1520 0.929 . S
C1528 C1529 1.377 . S
C1528 C1530 1.384 . S
C1529 C1528 1.377 . S
C1529 C1535 1.390 . S
C1530 H1521 0.930 . S
C1530 C1528 1.384 . S
C1530 C1531 1.372 . S
C1531 C1530 1.372 . S
C1531 C1532 1.400 . S
C1531 C1536 1.490 . S
C1532 H1522 0.930 . S
C1532 C1531 1.400 . S
C1532 C1535 1.386 . S
H1533 C1549 0.930 . S
H1534 C1550 0.931 . S
C1535 H1523 0.929 . S
C1535 C1529 1.390 . S
C1535 C1532 1.386 . S
C1536 C1531 1.490 . S
C1536 C1538 1.395 . S
C1536 C1539 1.403 . S
H1537 C1543 0.930 . S
C1538 H1524 0.930 . S
C1538 C1536 1.395 . S
C1538 C1541 1.403 . S
C1539 C1536 1.403 . S
C1539 C1540 1.524 . S
C1539 C1543 1.400 . S
C1540 H1525 0.960 . S
C1540 H1526 0.960 . S
C1540 H1527 0.960 . S
C1540 C1539 1.524 . S
C1541 C1538 1.403 . S
C1541 C1542 1.392 . S
C1541 C1545 1.495 . S
C1542 C1541 1.392 . S
C1542 C1543 1.385 . S
C1542 C1544 1.478 . S
C1543 H1537 0.930 . S
C1543 C1539 1.400 . S
C1543 C1542 1.385 . S
C1544 C1542 1.478 . S
C1544 C1546 1.381 . S
C1544 C1550 1.383 . S
C1545 C1541 1.495 . S
C1545 H1551 0.959 . S
C1545 H1552 0.961 . S
C1545 H1553 0.960 . S
C1546 C1544 1.381 . S
C1546 C1547 1.394 . S
C1546 H1554 0.930 . S
C1547 C1546 1.394 . S
C1547 C1548 1.383 . S
C1547 H1555 0.929 . S
C1548 C1547 1.383 . S
C1548 C1549 1.377 . S
C1549 H1533 0.930 . S
C1549 C1548 1.377 . S
C1549 C1550 1.379 . S
C1550 H1534 0.931 . S
C1550 C1544 1.383 . S
C1550 C1549 1.379 . S
H1551 C1545 0.959 . S
H1552 C1545 0.961 . S
H1553 C1545 0.960 . S
H1554 C1546 0.930 . S
H1555 C1547 0.929 . S
H1556 C1564 0.929 . S
H1557 C1566 0.930 . S
H1558 C1568 0.930 . S
H1559 C1571 0.929 . S
H1560 C1574 0.930 . S
H1561 C1576 0.960 . S
H1562 C1576 0.960 . S
H1563 C1576 0.960 . S
C1564 H1556 0.929 . S
C1564 C1565 1.377 . S
C1564 C1566 1.384 . S
C1565 C1564 1.377 . S
C1565 C1571 1.390 . S
C1566 H1557 0.930 . S
C1566 C1564 1.384 . S
C1566 C1567 1.372 . S
C1567 C1566 1.372 . S
C1567 C1568 1.400 . S
C1567 C1572 1.490 . S
C1568 H1558 0.930 . S
C1568 C1567 1.400 . S
C1568 C1571 1.386 . S
H1569 C1585 0.930 . S
H1570 C1586 0.931 . S
C1571 H1559 0.929 . S
C1571 C1565 1.390 . S
C1571 C1568 1.386 . S
C1572 C1567 1.490 . S
C1572 C1574 1.395 . S
C1572 C1575 1.403 . S
H1573 C1579 0.930 . S
C1574 H1560 0.930 . S
C1574 C1572 1.395 . S
C1574 C1577 1.403 . S
C1575 C1572 1.403 . S
C1575 C1576 1.524 . S
C1575 C1579 1.400 . S
C1576 H1561 0.960 . S
C1576 H1562 0.960 . S
C1576 H1563 0.960 . S
C1576 C1575 1.524 . S
C1577 C1574 1.403 . S
C1577 C1578 1.392 . S
C1577 C1581 1.495 . S
C1578 C1577 1.392 . S
C1578 C1579 1.385 . S
C1578 C1580 1.478 . S
C1579 H1573 0.930 . S
C1579 C1575 1.400 . S
C1579 C1578 1.385 . S
C1580 C1578 1.478 . S
C1580 C1582 1.381 . S
C1580 C1586 1.383 . S
C1581 C1577 1.495 . S
C1581 H1587 0.959 . S
C1581 H1588 0.961 . S
C1581 H1589 0.960 . S
C1582 C1580 1.381 . S
C1582 C1583 1.394 . S
C1582 H1590 0.930 . S
C1583 C1582 1.394 . S
C1583 C1584 1.383 . S
C1583 H1591 0.929 . S
C1584 C1583 1.383 . S
C1584 C1585 1.377 . S
C1585 H1569 0.930 . S
C1585 C1584 1.377 . S
C1585 C1586 1.379 . S
C1586 H1570 0.931 . S
C1586 C1580 1.383 . S
C1586 C1585 1.379 . S
H1587 C1581 0.959 . S
H1588 C1581 0.961 . S
H1589 C1581 0.960 . S
H1590 C1582 0.930 . S
H1591 C1583 0.929 . S
H1592 C1600 0.929 . S
H1593 C1602 0.930 . S
H1594 C1604 0.930 . S
H1595 C1607 0.929 . S
H1596 C1610 0.930 . S
H1597 C1612 0.960 1_655 S
H1598 C1612 0.960 . S
H1599 C1612 0.960 . S
C1600 H1592 0.929 . S
C1600 C1601 1.377 . S
C1600 C1602 1.384 . S
C1601 C1600 1.377 . S
C1601 C1607 1.390 . S
C1602 H1593 0.930 . S
C1602 C1600 1.384 . S
C1602 C1603 1.372 . S
C1603 C1602 1.372 . S
C1603 C1604 1.400 . S
C1603 C1608 1.490 . S
C1604 H1594 0.930 . S
C1604 C1603 1.400 . S
C1604 C1607 1.386 . S
H1605 C1621 0.930 . S
H1606 C1622 0.931 . S
C1607 H1595 0.929 . S
C1607 C1601 1.390 . S
C1607 C1604 1.386 . S
C1608 C1603 1.490 . S
C1608 C1610 1.395 . S
C1608 C1611 1.403 . S
H1609 C1615 0.930 . S
C1610 H1596 0.930 . S
C1610 C1608 1.395 . S
C1610 C1613 1.403 1_455 S
C1611 C1608 1.403 . S
C1611 C1612 1.524 . S
C1611 C1615 1.400 1_455 S
C1612 H1597 0.960 1_455 S
C1612 H1598 0.960 . S
C1612 H1599 0.960 . S
C1612 C1611 1.524 . S
C1613 C1610 1.403 1_655 S
C1613 C1614 1.392 . S
C1613 C1617 1.495 . S
C1614 C1613 1.392 . S
C1614 C1615 1.385 . S
C1614 C1616 1.478 . S
C1615 H1609 0.930 . S
C1615 C1611 1.400 1_655 S
C1615 C1614 1.385 . S
C1616 C1614 1.478 . S
C1616 C1618 1.381 . S
C1616 C1622 1.383 . S
C1617 C1613 1.495 . S
C1617 H1623 0.959 1_655 S
C1617 H1624 0.961 . S
C1617 H1625 0.960 . S
C1618 C1616 1.381 . S
C1618 C1619 1.394 . S
C1618 H1626 0.930 . S
C1619 C1618 1.394 . S
C1619 C1620 1.383 . S
C1619 H1627 0.929 . S
C1620 C1619 1.383 . S
C1620 C1621 1.377 . S
C1621 H1605 0.930 . S
C1621 C1620 1.377 . S
C1621 C1622 1.379 . S
C1622 H1606 0.931 . S
C1622 C1616 1.383 . S
C1622 C1621 1.379 . S
H1623 C1617 0.959 1_455 S
H1624 C1617 0.961 . S
H1625 C1617 0.960 . S
H1626 C1618 0.930 . S
H1627 C1619 0.929 . S
H1628 C1636 0.929 . S
H1629 C1638 0.930 1_655 S
H1630 C1640 0.930 . S
H1631 C1643 0.929 . S
H1632 C1646 0.930 . S
H1633 C1648 0.960 . S
H1634 C1648 0.956 1_655 S
H1635 C1648 0.960 . S
C1636 H1628 0.929 . S
C1636 C1637 1.377 . S
C1636 C1638 1.384 . S
C1637 C1636 1.377 . S
C1637 C1643 1.390 . S
C1638 H1629 0.930 1_455 S
C1638 C1636 1.384 . S
C1638 C1639 1.372 . S
C1639 C1638 1.372 . S
C1639 C1640 1.400 . S
C1639 C1644 1.490 . S
C1640 H1630 0.930 . S
C1640 C1639 1.400 . S
C1640 C1643 1.386 . S
H1641 C1657 0.930 . S
H1642 C1658 0.931 1_455 S
C1643 H1631 0.929 . S
C1643 C1637 1.390 . S
C1643 C1640 1.386 . S
C1644 C1639 1.490 . S
C1644 C1646 1.395 . S
C1644 C1647 1.403 . S
H1645 C1651 0.930 . S
C1646 H1632 0.930 . S
C1646 C1644 1.395 . S
C1646 C1649 1.403 1_455 S
C1647 C1644 1.403 . S
C1647 C1648 1.524 . S
C1647 C1651 1.400 1_455 S
C1648 H1633 0.960 . S
C1648 H1634 0.956 1_455 S
C1648 H1635 0.960 . S
C1648 C1647 1.524 . S
C1649 C1646 1.403 1_655 S
C1649 C1650 1.392 . S
C1649 C1653 1.495 . S
C1650 C1649 1.392 . S
C1650 C1651 1.385 . S
C1650 C1652 1.478 . S
C1651 H1645 0.930 . S
C1651 C1647 1.400 1_655 S
C1651 C1650 1.385 . S
C1652 C1650 1.478 . S
C1652 C1654 1.381 . S
C1652 C1658 1.383 . S
C1653 C1649 1.495 . S
C1653 H1659 0.959 . S
C1653 H1660 0.961 . S
C1653 H1661 0.960 . S
C1654 C1652 1.381 . S
C1654 C1655 1.394 . S
C1654 H1662 0.930 . S
C1655 C1654 1.394 . S
C1655 C1656 1.383 . S
C1655 H1663 0.929 . S
C1656 C1655 1.383 . S
C1656 C1657 1.377 . S
C1657 H1641 0.930 . S
C1657 C1656 1.377 . S
C1657 C1658 1.379 . S
C1658 H1642 0.931 1_655 S
C1658 C1652 1.383 . S
C1658 C1657 1.379 . S
H1659 C1653 0.959 . S
H1660 C1653 0.961 . S
H1661 C1653 0.960 . S
H1662 C1654 0.930 . S
H1663 C1655 0.929 . S
H1664 C1672 0.929 . S
H1665 C1674 0.930 . S
H1666 C1676 0.930 . S
H1667 C1679 0.929 . S
H1668 C1682 0.930 . S
H1669 C1684 0.960 . S
H1670 C1684 0.960 . S
H1671 C1684 0.960 . S
C1672 H1664 0.929 . S
C1672 C1673 1.377 . S
C1672 C1674 1.384 . S
C1673 C1672 1.377 . S
C1673 C1679 1.390 . S
C1674 H1665 0.930 . S
C1674 C1672 1.384 . S
C1674 C1675 1.372 . S
C1675 C1674 1.372 . S
C1675 C1676 1.400 . S
C1675 C1680 1.490 . S
C1676 H1666 0.930 . S
C1676 C1675 1.400 . S
C1676 C1679 1.386 . S
H1677 C1693 0.930 . S
H1678 C1694 0.931 . S
C1679 H1667 0.929 . S
C1679 C1673 1.390 . S
C1679 C1676 1.386 . S
C1680 C1675 1.490 . S
C1680 C1682 1.395 . S
C1680 C1683 1.403 . S
H1681 C1687 0.930 . S
C1682 H1668 0.930 . S
C1682 C1680 1.395 . S
C1682 C1685 1.403 . S
C1683 C1680 1.403 . S
C1683 C1684 1.524 . S
C1683 C1687 1.400 . S
C1684 H1669 0.960 . S
C1684 H1670 0.960 . S
C1684 H1671 0.960 . S
C1684 C1683 1.524 . S
C1685 C1682 1.403 . S
C1685 C1686 1.392 . S
C1685 C1689 1.495 . S
C1686 C1685 1.392 . S
C1686 C1687 1.385 . S
C1686 C1688 1.478 . S
C1687 H1681 0.930 . S
C1687 C1683 1.400 . S
C1687 C1686 1.385 . S
C1688 C1686 1.478 . S
C1688 C1690 1.381 . S
C1688 C1694 1.383 . S
C1689 C1685 1.495 . S
C1689 H1695 0.959 . S
C1689 H1696 0.961 . S
C1689 H1697 0.960 . S
C1690 C1688 1.381 . S
C1690 C1691 1.394 . S
C1690 H1698 0.930 . S
C1691 C1690 1.394 . S
C1691 C1692 1.383 . S
C1691 H1699 0.929 . S
C1692 C1691 1.383 . S
C1692 C1693 1.377 . S
C1693 H1677 0.930 . S
C1693 C1692 1.377 . S
C1693 C1694 1.379 . S
C1694 H1678 0.931 . S
C1694 C1688 1.383 . S
C1694 C1693 1.379 . S
H1695 C1689 0.959 . S
H1696 C1689 0.961 . S
H1697 C1689 0.960 . S
H1698 C1690 0.930 . S
H1699 C1691 0.929 . S
H1700 C1708 0.929 . S
H1701 C1710 0.930 . S
H1702 C1712 0.930 . S
H1703 C1715 0.929 . S
H1704 C1718 0.930 . S
H1705 C1720 0.960 . S
H1706 C1720 0.960 . S
H1707 C1720 0.960 . S
C1708 H1700 0.929 . S
C1708 C1709 1.377 . S
C1708 C1710 1.384 . S
C1709 C1708 1.377 . S
C1709 C1715 1.390 . S
C1710 H1701 0.930 . S
C1710 C1708 1.384 . S
C1710 C1711 1.372 . S
C1711 C1710 1.372 . S
C1711 C1712 1.400 . S
C1711 C1716 1.490 . S
C1712 H1702 0.930 . S
C1712 C1711 1.400 . S
C1712 C1715 1.386 . S
H1713 C1729 0.930 . S
H1714 C1730 0.931 . S
C1715 H1703 0.929 . S
C1715 C1709 1.390 . S
C1715 C1712 1.386 . S
C1716 C1711 1.490 . S
C1716 C1718 1.395 . S
C1716 C1719 1.403 . S
H1717 C1723 0.930 . S
C1718 H1704 0.930 . S
C1718 C1716 1.395 . S
C1718 C1721 1.403 . S
C1719 C1716 1.403 . S
C1719 C1720 1.524 . S
C1719 C1723 1.400 . S
C1720 H1705 0.960 . S
C1720 H1706 0.960 . S
C1720 H1707 0.960 . S
C1720 C1719 1.524 . S
C1721 C1718 1.403 . S
C1721 C1722 1.392 . S
C1721 C1725 1.495 . S
C1722 C1721 1.392 . S
C1722 C1723 1.385 . S
C1722 C1724 1.478 . S
C1723 H1717 0.930 . S
C1723 C1719 1.400 . S
C1723 C1722 1.385 . S
C1724 C1722 1.478 . S
C1724 C1726 1.381 . S
C1724 C1730 1.383 . S
C1725 C1721 1.495 . S
C1725 H1731 0.959 . S
C1725 H1732 0.961 . S
C1725 H1733 0.960 . S
C1726 C1724 1.381 . S
C1726 C1727 1.394 . S
C1726 H1734 0.930 . S
C1727 C1726 1.394 . S
C1727 C1728 1.383 . S
C1727 H1735 0.929 . S
C1728 C1727 1.383 . S
C1728 C1729 1.377 . S
C1729 H1713 0.930 . S
C1729 C1728 1.377 . S
C1729 C1730 1.379 . S
C1730 H1714 0.931 . S
C1730 C1724 1.383 . S
C1730 C1729 1.379 . S
H1731 C1725 0.959 . S
H1732 C1725 0.961 . S
H1733 C1725 0.960 . S
H1734 C1726 0.930 . S
H1735 C1727 0.929 . S
H1736 C1744 0.929 . S
H1737 C1746 0.930 . S
H1738 C1748 0.930 . S
H1739 C1751 0.929 . S
H1740 C1754 0.930 . S
H1741 C1756 0.960 . S
H1742 C1756 0.960 . S
H1743 C1756 0.960 . S
C1744 H1736 0.929 . S
C1744 C1745 1.377 . S
C1744 C1746 1.384 . S
C1745 C1744 1.377 . S
C1745 C1751 1.390 . S
C1746 H1737 0.930 . S
C1746 C1744 1.384 . S
C1746 C1747 1.372 . S
C1747 C1746 1.372 . S
C1747 C1748 1.400 . S
C1747 C1752 1.490 . S
C1748 H1738 0.930 . S
C1748 C1747 1.400 . S
C1748 C1751 1.386 . S
H1749 C1765 0.930 . S
H1750 C1766 0.931 . S
C1751 H1739 0.929 . S
C1751 C1745 1.390 . S
C1751 C1748 1.386 . S
C1752 C1747 1.490 . S
C1752 C1754 1.395 . S
C1752 C1755 1.403 . S
H1753 C1759 0.930 . S
C1754 H1740 0.930 . S
C1754 C1752 1.395 . S
C1754 C1757 1.403 . S
C1755 C1752 1.403 . S
C1755 C1756 1.524 . S
C1755 C1759 1.400 . S
C1756 H1741 0.960 . S
C1756 H1742 0.960 . S
C1756 H1743 0.960 . S
C1756 C1755 1.524 . S
C1757 C1754 1.403 . S
C1757 C1758 1.392 . S
C1757 C1761 1.495 . S
C1758 C1757 1.392 . S
C1758 C1759 1.385 . S
C1758 C1760 1.478 . S
C1759 H1753 0.930 . S
C1759 C1755 1.400 . S
C1759 C1758 1.385 . S
C1760 C1758 1.478 . S
C1760 C1762 1.381 . S
C1760 C1766 1.383 . S
C1761 C1757 1.495 . S
C1761 H1767 0.959 . S
C1761 H1768 0.961 . S
C1761 H1769 0.960 . S
C1762 C1760 1.381 . S
C1762 C1763 1.394 . S
C1762 H1770 0.930 . S
C1763 C1762 1.394 . S
C1763 C1764 1.383 . S
C1763 H1771 0.929 . S
C1764 C1763 1.383 . S
C1764 C1765 1.377 . S
C1765 H1749 0.930 . S
C1765 C1764 1.377 . S
C1765 C1766 1.379 . S
C1766 H1750 0.931 . S
C1766 C1760 1.383 . S
C1766 C1765 1.379 . S
H1767 C1761 0.959 . S
H1768 C1761 0.961 . S
H1769 C1761 0.960 . S
H1770 C1762 0.930 . S
H1771 C1763 0.929 . S
H1772 C1780 0.929 . S
H1773 C1782 0.930 . S
H1774 C1784 0.930 . S
H1775 C1787 0.929 . S
H1776 C1790 0.930 . S
H1777 C1792 0.960 . S
H1778 C1792 0.960 . S
H1779 C1792 0.960 . S
C1780 H1772 0.929 . S
C1780 C1781 1.377 . S
C1780 C1782 1.384 1_655 S
C1781 C1780 1.377 . S
C1781 C1787 1.390 . S
C1782 H1773 0.930 . S
C1782 C1780 1.384 1_455 S
C1782 C1783 1.372 . S
C1783 C1782 1.372 . S
C1783 C1784 1.400 1_455 S
C1783 C1788 1.490 . S
C1784 H1774 0.930 . S
C1784 C1783 1.400 1_655 S
C1784 C1787 1.386 . S
H1785 C1801 0.930 . S
H1786 C1802 0.931 . S
C1787 H1775 0.929 . S
C1787 C1781 1.390 . S
C1787 C1784 1.386 . S
C1788 C1783 1.490 . S
C1788 C1790 1.395 . S
C1788 C1791 1.403 . S
H1789 C1795 0.930 . S
C1790 H1776 0.930 . S
C1790 C1788 1.395 . S
C1790 C1793 1.403 . S
C1791 C1788 1.403 . S
C1791 C1792 1.524 . S
C1791 C1795 1.400 . S
C1792 H1777 0.960 . S
C1792 H1778 0.960 . S
C1792 H1779 0.960 . S
C1792 C1791 1.524 . S
C1793 C1790 1.403 . S
C1793 C1794 1.392 . S
C1793 C1797 1.495 . S
C1794 C1793 1.392 . S
C1794 C1795 1.385 . S
C1794 C1796 1.478 . S
C1795 H1789 0.930 . S
C1795 C1791 1.400 . S
C1795 C1794 1.385 . S
C1796 C1794 1.478 . S
C1796 C1798 1.381 . S
C1796 C1802 1.383 . S
C1797 C1793 1.495 . S
C1797 H1803 0.959 . S
C1797 H1804 0.961 . S
C1797 H1805 0.960 . S
C1798 C1796 1.381 . S
C1798 C1799 1.394 . S
C1798 H1806 0.930 . S
C1799 C1798 1.394 . S
C1799 C1800 1.383 . S
C1799 H1807 0.929 . S
C1800 C1799 1.383 . S
C1800 C1801 1.377 . S
C1801 H1785 0.930 . S
C1801 C1800 1.377 . S
C1801 C1802 1.379 . S
C1802 H1786 0.931 . S
C1802 C1796 1.383 . S
C1802 C1801 1.379 . S
H1803 C1797 0.959 . S
H1804 C1797 0.961 . S
H1805 C1797 0.960 . S
H1806 C1798 0.930 . S
H1807 C1799 0.929 . S
H1808 C1816 0.929 . S
H1809 C1818 0.930 . S
H1810 C1820 0.930 . S
H1811 C1823 0.929 . S
H1812 C1826 0.930 . S
H1813 C1828 0.960 . S
H1814 C1828 0.960 . S
H1815 C1828 0.960 . S
C1816 H1808 0.929 . S
C1816 C1817 1.377 . S
C1816 C1818 1.384 . S
C1817 C1816 1.377 . S
C1817 C1823 1.390 . S
C1818 H1809 0.930 . S
C1818 C1816 1.384 . S
C1818 C1819 1.372 . S
C1819 C1818 1.372 . S
C1819 C1820 1.400 . S
C1819 C1824 1.490 . S
C1820 H1810 0.930 . S
C1820 C1819 1.400 . S
C1820 C1823 1.386 . S
H1821 C1837 0.930 . S
H1822 C1838 0.931 . S
C1823 H1811 0.929 . S
C1823 C1817 1.390 . S
C1823 C1820 1.386 . S
C1824 C1819 1.490 . S
C1824 C1826 1.395 . S
C1824 C1827 1.403 . S
H1825 C1831 0.930 . S
C1826 H1812 0.930 . S
C1826 C1824 1.395 . S
C1826 C1829 1.403 . S
C1827 C1824 1.403 . S
C1827 C1828 1.524 . S
C1827 C1831 1.400 . S
C1828 H1813 0.960 . S
C1828 H1814 0.960 . S
C1828 H1815 0.960 . S
C1828 C1827 1.524 . S
C1829 C1826 1.403 . S
C1829 C1830 1.392 . S
C1829 C1833 1.495 . S
C1830 C1829 1.392 . S
C1830 C1831 1.385 . S
C1830 C1832 1.478 . S
C1831 H1825 0.930 . S
C1831 C1827 1.400 . S
C1831 C1830 1.385 . S
C1832 C1830 1.478 . S
C1832 C1834 1.381 . S
C1832 C1838 1.383 . S
C1833 C1829 1.495 . S
C1833 H1839 0.959 . S
C1833 H1840 0.961 . S
C1833 H1841 0.960 . S
C1834 C1832 1.381 . S
C1834 C1835 1.394 . S
C1834 H1842 0.930 . S
C1835 C1834 1.394 . S
C1835 C1836 1.383 . S
C1835 H1843 0.929 . S
C1836 C1835 1.383 . S
C1836 C1837 1.377 . S
C1837 H1821 0.930 . S
C1837 C1836 1.377 . S
C1837 C1838 1.379 . S
C1838 H1822 0.931 . S
C1838 C1832 1.383 . S
C1838 C1837 1.379 . S
H1839 C1833 0.959 . S
H1840 C1833 0.961 . S
H1841 C1833 0.960 . S
H1842 C1834 0.930 . S
H1843 C1835 0.929 . S
H1844 C1852 0.929 . S
H1845 C1854 0.930 . S
H1846 C1856 0.930 . S
H1847 C1859 0.929 . S
H1848 C1862 0.930 . S
H1849 C1864 0.960 . S
H1850 C1864 0.960 . S
H1851 C1864 0.960 . S
C1852 H1844 0.929 . S
C1852 C1853 1.377 . S
C1852 C1854 1.384 . S
C1853 C1852 1.377 . S
C1853 C1859 1.390 . S
C1854 H1845 0.930 . S
C1854 C1852 1.384 . S
C1854 C1855 1.372 . S
C1855 C1854 1.372 . S
C1855 C1856 1.400 . S
C1855 C1860 1.490 . S
C1856 H1846 0.930 . S
C1856 C1855 1.400 . S
C1856 C1859 1.386 . S
H1857 C1873 0.930 . S
H1858 C1874 0.931 . S
C1859 H1847 0.929 . S
C1859 C1853 1.390 . S
C1859 C1856 1.386 . S
C1860 C1855 1.490 . S
C1860 C1862 1.395 . S
C1860 C1863 1.403 . S
H1861 C1867 0.930 . S
C1862 H1848 0.930 . S
C1862 C1860 1.395 . S
C1862 C1865 1.403 . S
C1863 C1860 1.403 . S
C1863 C1864 1.524 . S
C1863 C1867 1.400 . S
C1864 H1849 0.960 . S
C1864 H1850 0.960 . S
C1864 H1851 0.960 . S
C1864 C1863 1.524 . S
C1865 C1862 1.403 . S
C1865 C1866 1.392 . S
C1865 C1869 1.495 . S
C1866 C1865 1.392 . S
C1866 C1867 1.385 . S
C1866 C1868 1.478 . S
C1867 H1861 0.930 . S
C1867 C1863 1.400 . S
C1867 C1866 1.385 . S
C1868 C1866 1.478 . S
C1868 C1870 1.381 . S
C1868 C1874 1.383 . S
C1869 C1865 1.495 . S
C1869 H1875 0.959 . S
C1869 H1876 0.961 . S
C1869 H1877 0.960 . S
C1870 C1868 1.381 . S
C1870 C1871 1.394 . S
C1870 H1878 0.930 . S
C1871 C1870 1.394 . S
C1871 C1872 1.383 . S
C1871 H1879 0.929 . S
C1872 C1871 1.383 . S
C1872 C1873 1.377 . S
C1873 H1857 0.930 . S
C1873 C1872 1.377 . S
C1873 C1874 1.379 . S
C1874 H1858 0.931 . S
C1874 C1868 1.383 . S
C1874 C1873 1.379 . S
H1875 C1869 0.959 . S
H1876 C1869 0.961 . S
H1877 C1869 0.960 . S
H1878 C1870 0.930 . S
H1879 C1871 0.929 . S
H1880 C1888 0.929 . S
H1881 C1890 0.930 . S
H1882 C1892 0.930 . S
H1883 C1895 0.929 . S
H1884 C1898 0.930 . S
H1885 C1900 0.960 . S
H1886 C1900 0.960 . S
H1887 C1900 0.960 . S
C1888 H1880 0.929 . S
C1888 C1889 1.377 . S
C1888 C1890 1.384 . S
C1889 C1888 1.377 . S
C1889 C1895 1.390 . S
C1890 H1881 0.930 . S
C1890 C1888 1.384 . S
C1890 C1891 1.372 . S
C1891 C1890 1.372 . S
C1891 C1892 1.400 . S
C1891 C1896 1.490 . S
C1892 H1882 0.930 . S
C1892 C1891 1.400 . S
C1892 C1895 1.386 . S
H1893 C1909 0.930 . S
H1894 C1910 0.931 . S
C1895 H1883 0.929 . S
C1895 C1889 1.390 . S
C1895 C1892 1.386 . S
C1896 C1891 1.490 . S
C1896 C1898 1.395 . S
C1896 C1899 1.403 . S
H1897 C1903 0.930 . S
C1898 H1884 0.930 . S
C1898 C1896 1.395 . S
C1898 C1901 1.403 . S
C1899 C1896 1.403 . S
C1899 C1900 1.524 . S
C1899 C1903 1.400 . S
C1900 H1885 0.960 . S
C1900 H1886 0.960 . S
C1900 H1887 0.960 . S
C1900 C1899 1.524 . S
C1901 C1898 1.403 . S
C1901 C1902 1.392 . S
C1901 C1905 1.495 . S
C1902 C1901 1.392 . S
C1902 C1903 1.385 . S
C1902 C1904 1.478 . S
C1903 H1897 0.930 . S
C1903 C1899 1.400 . S
C1903 C1902 1.385 . S
C1904 C1902 1.478 . S
C1904 C1906 1.381 . S
C1904 C1910 1.383 . S
C1905 C1901 1.495 . S
C1905 H1911 0.959 . S
C1905 H1912 0.961 . S
C1905 H1913 0.960 . S
C1906 C1904 1.381 . S
C1906 C1907 1.394 . S
C1906 H1914 0.930 . S
C1907 C1906 1.394 . S
C1907 C1908 1.383 . S
C1907 H1915 0.929 . S
C1908 C1907 1.383 . S
C1908 C1909 1.377 . S
C1909 H1893 0.930 . S
C1909 C1908 1.377 . S
C1909 C1910 1.379 . S
C1910 H1894 0.931 . S
C1910 C1904 1.383 . S
C1910 C1909 1.379 . S
H1911 C1905 0.959 . S
H1912 C1905 0.961 . S
H1913 C1905 0.960 . S
H1914 C1906 0.930 . S
H1915 C1907 0.929 . S
H1916 C1924 0.929 . S
H1917 C1926 0.930 . S
H1918 C1928 0.930 . S
H1919 C1931 0.929 . S
H1920 C1934 0.930 . S
H1921 C1936 0.960 . S
H1922 C1936 0.960 . S
H1923 C1936 0.960 . S
C1924 H1916 0.929 . S
C1924 C1925 1.377 . S
C1924 C1926 1.384 . S
C1925 C1924 1.377 . S
C1925 C1931 1.390 . S
C1926 H1917 0.930 . S
C1926 C1924 1.384 . S
C1926 C1927 1.372 . S
C1927 C1926 1.372 . S
C1927 C1928 1.400 . S
C1927 C1932 1.490 . S
C1928 H1918 0.930 . S
C1928 C1927 1.400 . S
C1928 C1931 1.386 . S
H1929 C1945 0.930 . S
H1930 C1946 0.931 . S
C1931 H1919 0.929 . S
C1931 C1925 1.390 . S
C1931 C1928 1.386 . S
C1932 C1927 1.490 . S
C1932 C1934 1.395 . S
C1932 C1935 1.403 . S
H1933 C1939 0.930 . S
C1934 H1920 0.930 . S
C1934 C1932 1.395 . S
C1934 C1937 1.403 . S
C1935 C1932 1.403 . S
C1935 C1936 1.524 . S
C1935 C1939 1.400 . S
C1936 H1921 0.960 . S
C1936 H1922 0.960 . S
C1936 H1923 0.960 . S
C1936 C1935 1.524 . S
C1937 C1934 1.403 . S
C1937 C1938 1.392 . S
C1937 C1941 1.495 . S
C1938 C1937 1.392 . S
C1938 C1939 1.385 . S
C1938 C1940 1.478 . S
C1939 H1933 0.930 . S
C1939 C1935 1.400 . S
C1939 C1938 1.385 . S
C1940 C1938 1.478 . S
C1940 C1942 1.381 . S
C1940 C1946 1.383 1_655 S
C1941 C1937 1.495 . S
C1941 H1947 0.959 . S
C1941 H1948 0.961 . S
C1941 H1949 0.960 . S
C1942 C1940 1.381 . S
C1942 C1943 1.394 1_655 S
C1942 H1950 0.930 . S
C1943 C1942 1.394 1_455 S
C1943 C1944 1.383 . S
C1943 H1951 0.929 . S
C1944 C1943 1.383 . S
C1944 C1945 1.377 . S
C1945 H1929 0.930 . S
C1945 C1944 1.377 . S
C1945 C1946 1.379 . S
C1946 H1930 0.931 . S
C1946 C1940 1.383 1_455 S
C1946 C1945 1.379 . S
H1947 C1941 0.959 . S
H1948 C1941 0.961 . S
H1949 C1941 0.960 . S
H1950 C1942 0.930 . S
H1951 C1943 0.929 . S
H1952 C1960 0.929 . S
H1953 C1962 0.930 . S
H1954 C1964 0.930 . S
H1955 C1967 0.929 . S
H1956 C1970 0.930 . S
H1957 C1972 0.960 . S
H1958 C1972 0.960 . S
H1959 C1972 0.960 . S
C1960 H1952 0.929 . S
C1960 C1961 1.377 . S
C1960 C1962 1.384 . S
C1961 C1960 1.377 . S
C1961 C1967 1.390 . S
C1962 H1953 0.930 . S
C1962 C1960 1.384 . S
C1962 C1963 1.372 . S
C1963 C1962 1.372 . S
C1963 C1964 1.400 . S
C1963 C1968 1.490 . S
C1964 H1954 0.930 . S
C1964 C1963 1.400 . S
C1964 C1967 1.386 . S
H1965 C1981 0.930 . S
H1966 C1982 0.931 . S
C1967 H1955 0.929 . S
C1967 C1961 1.390 . S
C1967 C1964 1.386 . S
C1968 C1963 1.490 . S
C1968 C1970 1.395 . S
C1968 C1971 1.403 . S
H1969 C1975 0.930 . S
C1970 H1956 0.930 . S
C1970 C1968 1.395 . S
C1970 C1973 1.403 . S
C1971 C1968 1.403 . S
C1971 C1972 1.524 . S
C1971 C1975 1.400 . S
C1972 H1957 0.960 . S
C1972 H1958 0.960 . S
C1972 H1959 0.960 . S
C1972 C1971 1.524 . S
C1973 C1970 1.403 . S
C1973 C1974 1.392 . S
C1973 C1977 1.495 . S
C1974 C1973 1.392 . S
C1974 C1975 1.385 . S
C1974 C1976 1.478 . S
C1975 H1969 0.930 . S
C1975 C1971 1.400 . S
C1975 C1974 1.385 . S
C1976 C1974 1.478 . S
C1976 C1978 1.381 . S
C1976 C1982 1.383 . S
C1977 C1973 1.495 . S
C1977 H1983 0.959 . S
C1977 H1984 0.961 . S
C1977 H1985 0.960 . S
C1978 C1976 1.381 . S
C1978 C1979 1.394 . S
C1978 H1986 0.930 . S
C1979 C1978 1.394 . S
C1979 C1980 1.383 . S
C1979 H1987 0.929 . S
C1980 C1979 1.383 . S
C1980 C1981 1.377 . S
C1981 H1965 0.930 . S
C1981 C1980 1.377 . S
C1981 C1982 1.379 . S
C1982 H1966 0.931 . S
C1982 C1976 1.383 . S
C1982 C1981 1.379 . S
H1983 C1977 0.959 . S
H1984 C1977 0.961 . S
H1985 C1977 0.960 . S
H1986 C1978 0.930 . S
H1987 C1979 0.929 . S
H1988 C1996 0.929 . S
H1989 C1998 0.930 . S
H1990 C2000 0.930 . S
H1991 C2003 0.929 . S
H1992 C2006 0.930 . S
H1993 C2008 0.960 . S
H1994 C2008 0.960 . S
H1995 C2008 0.960 . S
C1996 H1988 0.929 . S
C1996 C1997 1.377 . S
C1996 C1998 1.384 . S
C1997 C1996 1.377 . S
C1997 C2003 1.390 . S
C1998 H1989 0.930 . S
C1998 C1996 1.384 . S
C1998 C1999 1.372 . S
C1999 C1998 1.372 . S
C1999 C2000 1.400 . S
C1999 C2004 1.490 . S
C2000 H1990 0.930 . S
C2000 C1999 1.400 . S
C2000 C2003 1.386 . S
H2001 C2017 0.930 . S
H2002 C2018 0.916 1_655 S
C2003 H1991 0.929 . S
C2003 C1997 1.390 . S
C2003 C2000 1.386 . S
C2004 C1999 1.490 . S
C2004 C2006 1.395 . S
C2004 C2007 1.403 . S
H2005 C2011 0.930 . S
C2006 H1992 0.930 . S
C2006 C2004 1.395 . S
C2006 C2009 1.403 . S
C2007 C2004 1.403 . S
C2007 C2008 1.524 . S
C2007 C2011 1.400 . S
C2008 H1993 0.960 . S
C2008 H1994 0.960 . S
C2008 H1995 0.960 . S
C2008 C2007 1.524 . S
C2009 C2006 1.403 . S
C2009 C2010 1.392 . S
C2009 C2013 1.495 1_565 S
C2010 C2009 1.392 . S
C2010 C2011 1.385 . S
C2010 C2012 1.478 . S
C2011 H2005 0.930 . S
C2011 C2007 1.400 . S
C2011 C2010 1.385 . S
C2012 C2010 1.478 . S
C2012 C2014 1.394 . S
C2012 C2018 1.365 1_655 S
C2013 C2009 1.495 1_545 S
C2013 H2019 0.959 . S
C2013 H2020 0.961 . S
C2013 H2021 0.960 . S
C2014 C2012 1.394 . S
C2014 C2015 1.367 1_655 S
C2014 H2022 0.945 . S
C2015 C2014 1.367 1_455 S
C2015 C2016 1.383 . S
C2015 H2023 0.929 1_565 S
C2016 C2015 1.383 . S
C2016 C2017 1.377 . S
C2017 H2001 0.930 . S
C2017 C2016 1.377 . S
C2017 C2018 1.412 . S
C2018 H2002 0.916 1_455 S
C2018 C2012 1.365 1_455 S
C2018 C2017 1.412 . S
H2019 C2013 0.959 . S
H2020 C2013 0.961 . S
H2021 C2013 0.960 . S
H2022 C2014 0.945 . S
H2023 C2015 0.929 1_545 S
H2024 C2032 0.929 . S
H2025 C2034 0.930 . S
H2026 C2036 0.930 . S
H2027 C2039 0.929 . S
H2028 C2042 0.930 . S
H2029 C2044 0.960 . S
H2030 C2044 0.960 . S
H2031 C2044 0.960 . S
C2032 H2024 0.929 . S
C2032 C2033 1.377 . S
C2032 C2034 1.384 . S
C2033 C2032 1.377 . S
C2033 C2039 1.390 . S
C2034 H2025 0.930 . S
C2034 C2032 1.384 . S
C2034 C2035 1.372 . S
C2035 C2034 1.372 . S
C2035 C2036 1.400 . S
C2035 C2040 1.490 . S
C2036 H2026 0.930 . S
C2036 C2035 1.400 . S
C2036 C2039 1.386 . S
H2037 C2053 0.930 . S
H2038 C2054 0.931 . S
C2039 H2027 0.929 . S
C2039 C2033 1.390 . S
C2039 C2036 1.386 . S
C2040 C2035 1.490 . S
C2040 C2042 1.395 . S
C2040 C2043 1.403 . S
H2041 C2047 0.930 . S
C2042 H2028 0.930 . S
C2042 C2040 1.395 . S
C2042 C2045 1.403 . S
C2043 C2040 1.403 . S
C2043 C2044 1.524 . S
C2043 C2047 1.400 . S
C2044 H2029 0.960 . S
C2044 H2030 0.960 . S
C2044 H2031 0.960 . S
C2044 C2043 1.524 . S
C2045 C2042 1.403 . S
C2045 C2046 1.392 . S
C2045 C2049 1.495 . S
C2046 C2045 1.392 . S
C2046 C2047 1.385 . S
C2046 C2048 1.478 . S
C2047 H2041 0.930 . S
C2047 C2043 1.400 . S
C2047 C2046 1.385 . S
C2048 C2046 1.478 . S
C2048 C2050 1.381 . S
C2048 C2054 1.383 . S
C2049 C2045 1.495 . S
C2049 H2055 0.959 . S
C2049 H2056 0.961 . S
C2049 H2057 0.960 . S
C2050 C2048 1.381 . S
C2050 C2051 1.394 . S
C2050 H2058 0.930 . S
C2051 C2050 1.394 . S
C2051 C2052 1.383 . S
C2051 H2059 0.929 . S
C2052 C2051 1.383 . S
C2052 C2053 1.377 . S
C2053 H2037 0.930 . S
C2053 C2052 1.377 . S
C2053 C2054 1.379 . S
C2054 H2038 0.931 . S
C2054 C2048 1.383 . S
C2054 C2053 1.379 . S
H2055 C2049 0.959 . S
H2056 C2049 0.961 . S
H2057 C2049 0.960 . S
H2058 C2050 0.930 . S
H2059 C2051 0.929 . S
H2060 C2068 0.929 . S
H2061 C2070 0.930 . S
H2062 C2072 0.930 1_565 S
H2063 C2075 0.929 . S
H2064 C2078 0.930 . S
H2065 C2080 0.960 . S
H2066 C2080 0.960 . S
H2067 C2080 0.960 . S
C2068 H2060 0.929 . S
C2068 C2069 1.377 . S
C2068 C2070 1.384 . S
C2069 C2068 1.377 . S
C2069 C2075 1.390 1_545 S
C2070 H2061 0.930 . S
C2070 C2068 1.384 . S
C2070 C2071 1.372 . S
C2071 C2070 1.372 . S
C2071 C2072 1.400 . S
C2071 C2076 1.490 . S
C2072 H2062 0.930 1_545 S
C2072 C2071 1.400 . S
C2072 C2075 1.386 1_545 S
H2073 C2089 0.930 . S
H2074 C2090 0.931 . S
C2075 H2063 0.929 . S
C2075 C2069 1.390 1_565 S
C2075 C2072 1.386 1_565 S
C2076 C2071 1.490 . S
C2076 C2078 1.395 . S
C2076 C2079 1.403 . S
H2077 C2083 0.930 . S
C2078 H2064 0.930 . S
C2078 C2076 1.395 . S
C2078 C2081 1.403 . S
C2079 C2076 1.403 . S
C2079 C2080 1.524 . S
C2079 C2083 1.400 . S
C2080 H2065 0.960 . S
C2080 H2066 0.960 . S
C2080 H2067 0.960 . S
C2080 C2079 1.524 . S
C2081 C2078 1.403 . S
C2081 C2082 1.392 . S
C2081 C2085 1.495 . S
C2082 C2081 1.392 . S
C2082 C2083 1.385 . S
C2082 C2084 1.478 . S
C2083 H2077 0.930 . S
C2083 C2079 1.400 . S
C2083 C2082 1.385 . S
C2084 C2082 1.478 . S
C2084 C2086 1.381 . S
C2084 C2090 1.383 . S
C2085 C2081 1.495 . S
C2085 H2091 0.959 . S
C2085 H2092 0.961 . S
C2085 H2093 0.960 . S
C2086 C2084 1.381 . S
C2086 C2087 1.394 . S
C2086 H2094 0.930 . S
C2087 C2086 1.394 . S
C2087 C2088 1.383 . S
C2087 H2095 0.929 . S
C2088 C2087 1.383 . S
C2088 C2089 1.377 . S
C2089 H2073 0.930 . S
C2089 C2088 1.377 . S
C2089 C2090 1.379 . S
C2090 H2074 0.931 . S
C2090 C2084 1.383 . S
C2090 C2089 1.379 . S
H2091 C2085 0.959 . S
H2092 C2085 0.961 . S
H2093 C2085 0.960 . S
H2094 C2086 0.930 . S
H2095 C2087 0.929 . S
H2096 C2104 0.929 . S
H2097 C2106 0.930 . S
H2098 C2108 0.930 . S
H2099 C2111 0.929 . S
H2100 C2114 0.930 . S
H2101 C2116 0.960 . S
H2102 C2116 0.960 . S
H2103 C2116 0.960 . S
C2104 H2096 0.929 . S
C2104 C2105 1.377 . S
C2104 C2106 1.384 . S
C2105 C2104 1.377 . S
C2105 C2111 1.390 . S
C2106 H2097 0.930 . S
C2106 C2104 1.384 . S
C2106 C2107 1.372 . S
C2107 C2106 1.372 . S
C2107 C2108 1.400 . S
C2107 C2112 1.490 . S
C2108 H2098 0.930 . S
C2108 C2107 1.400 . S
C2108 C2111 1.386 . S
H2109 C2125 0.930 . S
H2110 C2126 0.931 . S
C2111 H2099 0.929 . S
C2111 C2105 1.390 . S
C2111 C2108 1.386 . S
C2112 C2107 1.490 . S
C2112 C2114 1.395 . S
C2112 C2115 1.403 . S
H2113 C2119 0.930 . S
C2114 H2100 0.930 . S
C2114 C2112 1.395 . S
C2114 C2117 1.403 . S
C2115 C2112 1.403 . S
C2115 C2116 1.524 . S
C2115 C2119 1.400 . S
C2116 H2101 0.960 . S
C2116 H2102 0.960 . S
C2116 H2103 0.960 . S
C2116 C2115 1.524 . S
C2117 C2114 1.403 . S
C2117 C2118 1.392 . S
C2117 C2121 1.495 . S
C2118 C2117 1.392 . S
C2118 C2119 1.385 . S
C2118 C2120 1.478 . S
C2119 H2113 0.930 . S
C2119 C2115 1.400 . S
C2119 C2118 1.385 . S
C2120 C2118 1.478 . S
C2120 C2122 1.381 . S
C2120 C2126 1.383 . S
C2121 C2117 1.495 . S
C2121 H2127 0.959 . S
C2121 H2128 0.961 . S
C2121 H2129 0.960 . S
C2122 C2120 1.381 . S
C2122 C2123 1.394 . S
C2122 H2130 0.930 . S
C2123 C2122 1.394 . S
C2123 C2124 1.383 . S
C2123 H2131 0.929 . S
C2124 C2123 1.383 . S
C2124 C2125 1.377 . S
C2125 H2109 0.930 . S
C2125 C2124 1.377 . S
C2125 C2126 1.379 . S
C2126 H2110 0.931 . S
C2126 C2120 1.383 . S
C2126 C2125 1.379 . S
H2127 C2121 0.959 . S
H2128 C2121 0.961 . S
H2129 C2121 0.960 . S
H2130 C2122 0.930 . S
H2131 C2123 0.929 . S
H2132 C2140 0.929 . S
H2133 C2142 0.930 1_565 S
H2134 C2144 0.930 . S
H2135 C2147 0.929 . S
H2136 C2150 0.930 . S
H2137 C2152 0.960 . S
H2138 C2152 0.960 . S
H2139 C2152 0.960 . S
C2140 H2132 0.929 . S
C2140 C2141 1.377 1_565 S
C2140 C2142 1.384 1_665 S
C2141 C2140 1.377 1_545 S
C2141 C2147 1.390 . S
C2142 H2133 0.930 1_545 S
C2142 C2140 1.384 1_445 S
C2142 C2143 1.372 . S
C2143 C2142 1.372 . S
C2143 C2144 1.400 1_455 S
C2143 C2148 1.490 . S
C2144 H2134 0.930 . S
C2144 C2143 1.400 1_655 S
C2144 C2147 1.386 . S
H2145 C2161 0.930 . S
H2146 C2162 0.931 . S
C2147 H2135 0.929 . S
C2147 C2141 1.390 . S
C2147 C2144 1.386 . S
C2148 C2143 1.490 . S
C2148 C2150 1.395 . S
C2148 C2151 1.403 . S
H2149 C2155 0.930 . S
C2150 H2136 0.930 . S
C2150 C2148 1.395 . S
C2150 C2153 1.403 . S
C2151 C2148 1.403 . S
C2151 C2152 1.524 . S
C2151 C2155 1.400 . S
C2152 H2137 0.960 . S
C2152 H2138 0.960 . S
C2152 H2139 0.960 . S
C2152 C2151 1.524 . S
C2153 C2150 1.403 . S
C2153 C2154 1.392 . S
C2153 C2157 1.495 . S
C2154 C2153 1.392 . S
C2154 C2155 1.385 . S
C2154 C2156 1.478 . S
C2155 H2149 0.930 . S
C2155 C2151 1.400 . S
C2155 C2154 1.385 . S
C2156 C2154 1.478 . S
C2156 C2158 1.381 . S
C2156 C2162 1.383 . S
C2157 C2153 1.495 . S
C2157 H2163 0.959 . S
C2157 H2164 0.961 . S
C2157 H2165 0.960 . S
C2158 C2156 1.381 . S
C2158 C2159 1.394 . S
C2158 H2166 0.930 . S
C2159 C2158 1.394 . S
C2159 C2160 1.383 . S
C2159 H2167 0.929 . S
C2160 C2159 1.383 . S
C2160 C2161 1.377 . S
C2161 H2145 0.930 . S
C2161 C2160 1.377 . S
C2161 C2162 1.379 . S
C2162 H2146 0.931 . S
C2162 C2156 1.383 . S
C2162 C2161 1.379 . S
H2163 C2157 0.959 . S
H2164 C2157 0.961 . S
H2165 C2157 0.960 . S
H2166 C2158 0.930 . S
H2167 C2159 0.929 . S
H2168 C2176 0.929 . S
H2169 C2178 0.930 . S
H2170 C2180 0.930 . S
H2171 C2183 0.929 . S
H2172 C2186 0.930 . S
H2173 C2188 0.960 . S
H2174 C2188 0.960 . S
H2175 C2188 0.960 . S
C2176 H2168 0.929 . S
C2176 C2177 1.377 . S
C2176 C2178 1.384 . S
C2177 C2176 1.377 . S
C2177 C2183 1.390 . S
C2178 H2169 0.930 . S
C2178 C2176 1.384 . S
C2178 C2179 1.372 . S
C2179 C2178 1.372 . S
C2179 C2180 1.400 . S
C2179 C2184 1.490 . S
C2180 H2170 0.930 . S
C2180 C2179 1.400 . S
C2180 C2183 1.386 . S
H2181 C2197 0.930 . S
H2182 C2198 0.931 . S
C2183 H2171 0.929 . S
C2183 C2177 1.390 . S
C2183 C2180 1.386 . S
C2184 C2179 1.490 . S
C2184 C2186 1.395 . S
C2184 C2187 1.403 . S
H2185 C2191 0.930 . S
C2186 H2172 0.930 . S
C2186 C2184 1.395 . S
C2186 C2189 1.403 . S
C2187 C2184 1.403 . S
C2187 C2188 1.524 . S
C2187 C2191 1.400 . S
C2188 H2173 0.960 . S
C2188 H2174 0.960 . S
C2188 H2175 0.960 . S
C2188 C2187 1.524 . S
C2189 C2186 1.403 . S
C2189 C2190 1.392 . S
C2189 C2193 1.495 . S
C2190 C2189 1.392 . S
C2190 C2191 1.385 . S
C2190 C2192 1.478 . S
C2191 H2185 0.930 . S
C2191 C2187 1.400 . S
C2191 C2190 1.385 . S
C2192 C2190 1.478 . S
C2192 C2194 1.381 . S
C2192 C2198 1.383 . S
C2193 C2189 1.495 . S
C2193 H2199 0.959 . S
C2193 H2200 0.961 . S
C2193 H2201 0.960 . S
C2194 C2192 1.381 . S
C2194 C2195 1.394 . S
C2194 H2202 0.930 . S
C2195 C2194 1.394 . S
C2195 C2196 1.383 . S
C2195 H2203 0.929 . S
C2196 C2195 1.383 . S
C2196 C2197 1.377 . S
C2197 H2181 0.930 . S
C2197 C2196 1.377 . S
C2197 C2198 1.379 . S
C2198 H2182 0.931 . S
C2198 C2192 1.383 . S
C2198 C2197 1.379 . S
H2199 C2193 0.959 . S
H2200 C2193 0.961 . S
H2201 C2193 0.960 . S
H2202 C2194 0.930 . S
H2203 C2195 0.929 . S
H2204 C2212 0.929 . S
H2205 C2214 0.930 . S
H2206 C2216 0.930 . S
H2207 C2219 0.929 . S
H2208 C2222 0.930 . S
H2209 C2224 0.960 . S
H2210 C2224 0.960 . S
H2211 C2224 0.960 . S
C2212 H2204 0.929 . S
C2212 C2213 1.377 . S
C2212 C2214 1.384 . S
C2213 C2212 1.377 . S
C2213 C2219 1.390 . S
C2214 H2205 0.930 . S
C2214 C2212 1.384 . S
C2214 C2215 1.372 . S
C2215 C2214 1.372 . S
C2215 C2216 1.400 . S
C2215 C2220 1.490 . S
C2216 H2206 0.930 . S
C2216 C2215 1.400 . S
C2216 C2219 1.386 . S
H2217 C2233 0.930 . S
H2218 C2234 0.931 . S
C2219 H2207 0.929 . S
C2219 C2213 1.390 . S
C2219 C2216 1.386 . S
C2220 C2215 1.490 . S
C2220 C2222 1.395 . S
C2220 C2223 1.403 . S
H2221 C2227 0.930 . S
C2222 H2208 0.930 . S
C2222 C2220 1.395 . S
C2222 C2225 1.403 . S
C2223 C2220 1.403 . S
C2223 C2224 1.524 . S
C2223 C2227 1.400 . S
C2224 H2209 0.960 . S
C2224 H2210 0.960 . S
C2224 H2211 0.960 . S
C2224 C2223 1.524 . S
C2225 C2222 1.403 . S
C2225 C2226 1.392 . S
C2225 C2229 1.495 . S
C2226 C2225 1.392 . S
C2226 C2227 1.385 . S
C2226 C2228 1.478 . S
C2227 H2221 0.930 . S
C2227 C2223 1.400 . S
C2227 C2226 1.385 . S
C2228 C2226 1.478 . S
C2228 C2230 1.381 . S
C2228 C2234 1.383 . S
C2229 C2225 1.495 . S
C2229 H2235 0.959 . S
C2229 H2236 0.961 . S
C2229 H2237 0.960 . S
C2230 C2228 1.381 . S
C2230 C2231 1.394 . S
C2230 H2238 0.930 . S
C2231 C2230 1.394 . S
C2231 C2232 1.383 . S
C2231 H2239 0.929 . S
C2232 C2231 1.383 . S
C2232 C2233 1.377 . S
C2233 H2217 0.930 . S
C2233 C2232 1.377 . S
C2233 C2234 1.379 . S
C2234 H2218 0.931 . S
C2234 C2228 1.383 . S
C2234 C2233 1.379 . S
H2235 C2229 0.959 . S
H2236 C2229 0.961 . S
H2237 C2229 0.960 . S
H2238 C2230 0.930 . S
H2239 C2231 0.929 . S
C521 C4 0.393 . S
C540 C413 0.368 . S
C557 C189 0.398 . S
C576 C36 0.438 . S
C593 C68 0.407 . S
C612 C452 0.318 . S
C629 C125 0.417 . S
C648 C253 0.342 . S
C665 C157 0.427 . S
C684 C260 0.390 . S
C701 C349 0.396 . S
C720 C196 0.334 . S
C737 C420 0.418 . S
C756 C292 0.505 . S
C773 C381 0.420 . S
C792 C509 0.354 . S
C809 C290 1.844 . S
C828 C6 1.814 . S
C845 C38 1.820 . S
C864 C326 1.842 . S
C881 C70 1.822 . S
C900 C358 1.848 . S
C917 C258 1.842 . S
C936 C98 1.823 . S
C953 C418 1.841 . S
C972 C130 1.821 . S
C989 C450 1.847 . S
C1008 C162 1.817 . S
C1025 C198 1.822 . S
C1044 C486 1.855 . S
C1061 C390 1.847 . S
C1080 C226 1.824 . S
C1097 C262 1.821 . S
C1116 C34 1.851 . S
C1133 C294 1.825 . S
C1152 C66 1.834 . S
C1169 C322 1.819 . S
C1188 C102 1.848 . S
C1205 C2 1.846 . S
C1224 C354 1.803 . S
C1241 C166 1.845 . S
C1260 C386 1.837 . S
C1277 C422 1.821 . S
C1296 C194 1.854 . S
C1313 C230 1.841 . S
C1332 C454 1.822 . S
C1349 C482 1.821 . S
C1368 C134 1.825 . S
C1385 N18 1.341 . S
C1404 N333 1.328 . S
C1421 N50 1.336 . S
C1440 N365 1.362 . S
C1457 N274 1.344 . S
C1476 N82 1.317 . S
C1493 N109 1.344 . S
C1512 N306 1.335 . S
C1529 N141 1.346 . S
C1548 N466 1.364 . S
C1565 N173 1.344 . S
C1584 N493 1.339 . S
C1601 N397 1.346 . S
C1620 N210 1.364 . S
C1637 N237 1.339 . S
C1656 N434 1.319 . S
C1673 C29 0.883 . S
C1692 N242 0.905 . S
C1709 N402 0.908 . S
C1728 C61 0.873 . S
C1745 C93 0.900 . S
C1764 N178 0.932 . S
C1781 C100 0.881 . S
C1800 N461 0.875 . S
C1817 C132 0.881 . S
C1836 N114 0.925 . S
C1853 N269 0.901 . S
C1872 C164 0.917 . S
C1889 C221 0.895 . S
C1908 N45 0.879 . S
C1925 N338 0.912 . S
C1944 C228 0.916 . S
C1961 C285 0.883 . S
C1980 N498 0.903 . S
C1997 N146 0.903 . S
C2016 C317 0.886 1_565 S
C2033 N429 0.908 . S
C2052 C324 0.925 . S
C2069 C356 0.898 1_545 S
C2088 N205 0.936 . S
C2105 C388 0.897 . S
C2124 N370 0.884 . S
C2141 C445 0.899 1_545 S
C2160 N13 0.916 . S
C2177 N301 0.912 . S
C2196 C477 0.913 . S
C2213 N77 0.901 . S
C2232 C484 0.916 1_565 S
