# Generated by pormake.
# Topology upd, (4)-cn, num edge types: 1
# Building blocks:
#     Node 0, Type 0, BuildingBlock: NAWXER_clean_sbu_0, # of connection points: 4
#     Node 1, Type 0, BuildingBlock: NAWXER_clean_sbu_0, # of connection points: 4
#     Node 2, Type 0, BuildingBlock: NAWXER_clean_sbu_0, # of connection points: 4
#     Node 3, Type 0, BuildingBlock: NAWXER_clean_sbu_0, # of connection points: 4
#     Node 4, Type 0, BuildingBlock: NAWXER_clean_sbu_0, # of connection points: 4
#     Node 5, Type 0, BuildingBlock: NAWXER_clean_sbu_0, # of connection points: 4
#     Node 6, Type 0, BuildingBlock: NAWXER_clean_sbu_0, # of connection points: 4
#     Node 7, Type 0, BuildingBlock: NAWXER_clean_sbu_0, # of connection points: 4
#     Node 8, Type 0, BuildingBlock: NAWXER_clean_sbu_0, # of connection points: 4
#     Node 9, Type 0, BuildingBlock: NAWXER_clean_sbu_0, # of connection points: 4
#     Node 10, Type 0, BuildingBlock: NAWXER_clean_sbu_0, # of connection points: 4
#     Node 11, Type 0, BuildingBlock: NAWXER_clean_sbu_0, # of connection points: 4
#     Node 12, Type 0, BuildingBlock: NAWXER_clean_sbu_0, # of connection points: 4
#     Node 13, Type 0, BuildingBlock: NAWXER_clean_sbu_0, # of connection points: 4
#     Node 14, Type 0, BuildingBlock: NAWXER_clean_sbu_0, # of connection points: 4
#     Node 15, Type 0, BuildingBlock: NAWXER_clean_sbu_0, # of connection points: 4
#     Node 16, Type 0, BuildingBlock: NAWXER_clean_sbu_0, # of connection points: 4
#     Node 17, Type 0, BuildingBlock: NAWXER_clean_sbu_0, # of connection points: 4
#     Node 18, Type 0, BuildingBlock: NAWXER_clean_sbu_0, # of connection points: 4
#     Node 19, Type 0, BuildingBlock: NAWXER_clean_sbu_0, # of connection points: 4
#     Node 20, Type 0, BuildingBlock: NAWXER_clean_sbu_0, # of connection points: 4
#     Node 21, Type 0, BuildingBlock: NAWXER_clean_sbu_0, # of connection points: 4
#     Node 22, Type 0, BuildingBlock: NAWXER_clean_sbu_0, # of connection points: 4
#     Node 23, Type 0, BuildingBlock: NAWXER_clean_sbu_0, # of connection points: 4
#     Node 24, Type 0, BuildingBlock: NAWXER_clean_sbu_0, # of connection points: 4
#     Node 25, Type 0, BuildingBlock: NAWXER_clean_sbu_0, # of connection points: 4
#     Node 26, Type 0, BuildingBlock: NAWXER_clean_sbu_0, # of connection points: 4
#     Node 27, Type 0, BuildingBlock: NAWXER_clean_sbu_0, # of connection points: 4
#     Node 28, Type 0, BuildingBlock: NAWXER_clean_sbu_0, # of connection points: 4
#     Node 29, Type 0, BuildingBlock: NAWXER_clean_sbu_0, # of connection points: 4
#     Node 30, Type 0, BuildingBlock: NAWXER_clean_sbu_0, # of connection points: 4
#     Node 31, Type 0, BuildingBlock: NAWXER_clean_sbu_0, # of connection points: 4
#     Edge 32, Type (0, 0), BuildingBlock: CIFDUS_clean_linker_0, # of connection points: 2
#     Edge 33, Type (0, 0), BuildingBlock: CIFDUS_clean_linker_0, # of connection points: 2
#     Edge 34, Type (0, 0), BuildingBlock: CIFDUS_clean_linker_0, # of connection points: 2
#     Edge 35, Type (0, 0), BuildingBlock: CIFDUS_clean_linker_0, # of connection points: 2
#     Edge 36, Type (0, 0), BuildingBlock: CIFDUS_clean_linker_0, # of connection points: 2
#     Edge 37, Type (0, 0), BuildingBlock: CIFDUS_clean_linker_0, # of connection points: 2
#     Edge 38, Type (0, 0), BuildingBlock: CIFDUS_clean_linker_0, # of connection points: 2
#     Edge 39, Type (0, 0), BuildingBlock: CIFDUS_clean_linker_0, # of connection points: 2
#     Edge 40, Type (0, 0), BuildingBlock: CIFDUS_clean_linker_0, # of connection points: 2
#     Edge 41, Type (0, 0), BuildingBlock: CIFDUS_clean_linker_0, # of connection points: 2
#     Edge 42, Type (0, 0), BuildingBlock: CIFDUS_clean_linker_0, # of connection points: 2
#     Edge 43, Type (0, 0), BuildingBlock: CIFDUS_clean_linker_0, # of connection points: 2
#     Edge 44, Type (0, 0), BuildingBlock: CIFDUS_clean_linker_0, # of connection points: 2
#     Edge 45, Type (0, 0), BuildingBlock: CIFDUS_clean_linker_0, # of connection points: 2
#     Edge 46, Type (0, 0), BuildingBlock: CIFDUS_clean_linker_0, # of connection points: 2
#     Edge 47, Type (0, 0), BuildingBlock: CIFDUS_clean_linker_0, # of connection points: 2
#     Edge 48, Type (0, 0), BuildingBlock: CIFDUS_clean_linker_0, # of connection points: 2
#     Edge 49, Type (0, 0), BuildingBlock: CIFDUS_clean_linker_0, # of connection points: 2
#     Edge 50, Type (0, 0), BuildingBlock: CIFDUS_clean_linker_0, # of connection points: 2
#     Edge 51, Type (0, 0), BuildingBlock: CIFDUS_clean_linker_0, # of connection points: 2
#     Edge 52, Type (0, 0), BuildingBlock: CIFDUS_clean_linker_0, # of connection points: 2
#     Edge 53, Type (0, 0), BuildingBlock: CIFDUS_clean_linker_0, # of connection points: 2
#     Edge 54, Type (0, 0), BuildingBlock: CIFDUS_clean_linker_0, # of connection points: 2
#     Edge 55, Type (0, 0), BuildingBlock: CIFDUS_clean_linker_0, # of connection points: 2
#     Edge 56, Type (0, 0), BuildingBlock: CIFDUS_clean_linker_0, # of connection points: 2
#     Edge 57, Type (0, 0), BuildingBlock: CIFDUS_clean_linker_0, # of connection points: 2
#     Edge 58, Type (0, 0), BuildingBlock: CIFDUS_clean_linker_0, # of connection points: 2
#     Edge 59, Type (0, 0), BuildingBlock: CIFDUS_clean_linker_0, # of connection points: 2
#     Edge 60, Type (0, 0), BuildingBlock: CIFDUS_clean_linker_0, # of connection points: 2
#     Edge 61, Type (0, 0), BuildingBlock: CIFDUS_clean_linker_0, # of connection points: 2
#     Edge 62, Type (0, 0), BuildingBlock: CIFDUS_clean_linker_0, # of connection points: 2
#     Edge 63, Type (0, 0), BuildingBlock: CIFDUS_clean_linker_0, # of connection points: 2
#     Edge 64, Type (0, 0), BuildingBlock: CIFDUS_clean_linker_0, # of connection points: 2
#     Edge 65, Type (0, 0), BuildingBlock: CIFDUS_clean_linker_0, # of connection points: 2
#     Edge 66, Type (0, 0), BuildingBlock: CIFDUS_clean_linker_0, # of connection points: 2
#     Edge 67, Type (0, 0), BuildingBlock: CIFDUS_clean_linker_0, # of connection points: 2
#     Edge 68, Type (0, 0), BuildingBlock: CIFDUS_clean_linker_0, # of connection points: 2
#     Edge 69, Type (0, 0), BuildingBlock: CIFDUS_clean_linker_0, # of connection points: 2
#     Edge 70, Type (0, 0), BuildingBlock: CIFDUS_clean_linker_0, # of connection points: 2
#     Edge 71, Type (0, 0), BuildingBlock: CIFDUS_clean_linker_0, # of connection points: 2
#     Edge 72, Type (0, 0), BuildingBlock: CIFDUS_clean_linker_0, # of connection points: 2
#     Edge 73, Type (0, 0), BuildingBlock: CIFDUS_clean_linker_0, # of connection points: 2
#     Edge 74, Type (0, 0), BuildingBlock: CIFDUS_clean_linker_0, # of connection points: 2
#     Edge 75, Type (0, 0), BuildingBlock: CIFDUS_clean_linker_0, # of connection points: 2
#     Edge 76, Type (0, 0), BuildingBlock: CIFDUS_clean_linker_0, # of connection points: 2
#     Edge 77, Type (0, 0), BuildingBlock: CIFDUS_clean_linker_0, # of connection points: 2
#     Edge 78, Type (0, 0), BuildingBlock: CIFDUS_clean_linker_0, # of connection points: 2
#     Edge 79, Type (0, 0), BuildingBlock: CIFDUS_clean_linker_0, # of connection points: 2
#     Edge 80, Type (0, 0), BuildingBlock: CIFDUS_clean_linker_0, # of connection points: 2
#     Edge 81, Type (0, 0), BuildingBlock: CIFDUS_clean_linker_0, # of connection points: 2
#     Edge 82, Type (0, 0), BuildingBlock: CIFDUS_clean_linker_0, # of connection points: 2
#     Edge 83, Type (0, 0), BuildingBlock: CIFDUS_clean_linker_0, # of connection points: 2
#     Edge 84, Type (0, 0), BuildingBlock: CIFDUS_clean_linker_0, # of connection points: 2
#     Edge 85, Type (0, 0), BuildingBlock: CIFDUS_clean_linker_0, # of connection points: 2
#     Edge 86, Type (0, 0), BuildingBlock: CIFDUS_clean_linker_0, # of connection points: 2
#     Edge 87, Type (0, 0), BuildingBlock: CIFDUS_clean_linker_0, # of connection points: 2
#     Edge 88, Type (0, 0), BuildingBlock: CIFDUS_clean_linker_0, # of connection points: 2
#     Edge 89, Type (0, 0), BuildingBlock: CIFDUS_clean_linker_0, # of connection points: 2
#     Edge 90, Type (0, 0), BuildingBlock: CIFDUS_clean_linker_0, # of connection points: 2
#     Edge 91, Type (0, 0), BuildingBlock: CIFDUS_clean_linker_0, # of connection points: 2
#     Edge 92, Type (0, 0), BuildingBlock: CIFDUS_clean_linker_0, # of connection points: 2
#     Edge 93, Type (0, 0), BuildingBlock: CIFDUS_clean_linker_0, # of connection points: 2
#     Edge 94, Type (0, 0), BuildingBlock: CIFDUS_clean_linker_0, # of connection points: 2
#     Edge 95, Type (0, 0), BuildingBlock: CIFDUS_clean_linker_0, # of connection points: 2
# Relax obj value: 0.044
# Max RMSD: 0.097
# Mean RMSD: 0.097
data_MOF--net-upd--node1-NAWXER_clean_sbu_0--edge1-CIFDUS_clean_linker_0
_symmetry_space_group_name_H-M    P1
_symmetry_Int_Tables_number       1
_symmetry_cell_setting            triclinic
loop_
_symmetry_equiv_pos_as_xyz
'x, y, z'
_cell_length_a     35.028286
_cell_length_b     35.135803
_cell_length_c     66.362569
_cell_angle_alpha  90.023122
_cell_angle_beta   90.222347
_cell_angle_gamma 89.962056
loop_
_atom_site_label
_atom_site_type_symbol
_atom_site_fract_x
_atom_site_fract_y
_atom_site_fract_z
_atom_type_partial_charge
C0 C 0.1857 0.07012 0.30572 0.0
C1 C 0.19082 0.17121 0.35592 0.0
O2 O 0.16074 0.09608 0.30248 0.0
Zn3 Zn 0.14158 0.14695 0.31678 0.0
O4 O 0.20718 0.07211 0.32113 0.0
Zn5 Zn 0.18865 0.12039 0.33131 0.0
O6 O 0.13398 0.10666 0.34355 0.0
O7 O 0.08983 0.13525 0.32528 0.0
O8 O 0.21213 0.14193 0.35521 0.0
O9 O 0.16461 0.17625 0.34264 0.0
O10 O 0.14882 0.18403 0.29602 0.0
O11 O 0.20318 0.16151 0.3081 0.0
C12 C 0.09876 0.11417 0.34012 0.0
C13 C 0.18512 0.18369 0.29594 0.0
C14 C 0.06498 0.95273 0.54912 0.0
C15 C 0.11453 0.85105 0.59121 0.0
O16 O 0.08881 0.96504 0.56239 0.0
Zn17 Zn 0.12546 0.94086 0.58551 0.0
O18 O 0.05887 0.91719 0.54756 0.0
Zn19 Zn 0.09312 0.90129 0.56838 0.0
O20 O 0.06555 0.92465 0.59472 0.0
O21 O 0.10573 0.9642 0.60988 0.0
O22 O 0.09542 0.84753 0.57502 0.0
O23 O 0.12755 0.88368 0.59632 0.0
O24 O 0.17725 0.95213 0.57674 0.0
O25 O 0.14717 0.91444 0.55542 0.0
C26 C 0.07349 0.94751 0.60921 0.0
C27 C 0.17665 0.93403 0.56018 0.0
C28 C 0.34931 0.82559 0.84891 0.0
C29 C 0.35546 0.91795 0.79428 0.0
O30 O 0.37291 0.81604 0.83506 0.0
Zn31 Zn 0.39428 0.83876 0.8071 0.0
O32 O 0.33005 0.85612 0.84727 0.0
Zn33 Zn 0.35122 0.87148 0.82161 0.0
O34 O 0.3307 0.82875 0.8011 0.0
O35 O 0.38019 0.79986 0.78749 0.0
O36 O 0.33307 0.91801 0.80928 0.0
O37 O 0.37953 0.89077 0.79209 0.0
O38 O 0.44762 0.84629 0.81398 0.0
O39 O 0.40878 0.88368 0.83101 0.0
C40 C 0.34422 0.8037 0.78898 0.0
C41 C 0.4427 0.87184 0.82731 0.0
C42 C 0.42538 0.08787 0.10508 0.0
C43 C 0.32891 0.0835 0.05191 0.0
O44 O 0.43128 0.11258 0.09123 0.0
Zn45 Zn 0.40563 0.12901 0.06293 0.0
O46 O 0.39756 0.06485 0.10359 0.0
Zn47 Zn 0.37719 0.0851 0.0786 0.0
O48 O 0.41885 0.0661 0.05691 0.0
O49 O 0.44488 0.11741 0.04368 0.0
O50 O 0.32974 0.06471 0.06826 0.0
O51 O 0.35524 0.10779 0.0482 0.0
O52 O 0.39351 0.18174 0.0678 0.0
O53 O 0.3615 0.14223 0.08724 0.0
C54 C 0.44267 0.08137 0.04469 0.0
C55 C 0.36982 0.17637 0.08197 0.0
C56 C 0.17603 0.82543 0.1628 0.0
C57 C 0.17806 0.92188 0.21531 0.0
O58 O 0.15428 0.81688 0.17761 0.0
Zn59 Zn 0.13848 0.84119 0.20617 0.0
O60 O 0.19566 0.85577 0.16323 0.0
Zn61 Zn 0.17742 0.87355 0.18905 0.0
O62 O 0.20315 0.83387 0.2102 0.0
O63 O 0.15612 0.80371 0.22533 0.0
O64 O 0.19496 0.92237 0.19843 0.0
O65 O 0.15666 0.89365 0.21998 0.0
O66 O 0.08406 0.84791 0.20258 0.0
O67 O 0.11801 0.88461 0.18256 0.0
C68 C 0.19172 0.80908 0.22307 0.0
C69 C 0.08543 0.87278 0.1887 0.0
C70 C 0.32572 0.93029 0.46977 0.0
C71 C 0.42665 0.92533 0.4187 0.0
O72 O 0.35023 0.90393 0.47307 0.0
Zn73 Zn 0.39982 0.88096 0.45886 0.0
O74 O 0.32871 0.95093 0.45413 0.0
Zn75 Zn 0.37578 0.92907 0.44375 0.0
O76 O 0.35795 0.87526 0.43248 0.0
O77 O 0.38428 0.82976 0.45065 0.0
O78 O 0.39908 0.94895 0.41925 0.0
O79 O 0.42988 0.90001 0.43251 0.0
O80 O 0.43808 0.88771 0.47952 0.0
O81 O 0.41775 0.94208 0.46665 0.0
C82 C 0.36317 0.83981 0.43595 0.0
C83 C 0.43925 0.92391 0.47909 0.0
C84 C 0.32281 0.19487 0.72071 0.0
C85 C 0.40663 0.11747 0.67808 0.0
O86 O 0.30477 0.17274 0.70862 0.0
Zn87 Zn 0.31701 0.13012 0.68656 0.0
O88 O 0.35913 0.1943 0.72099 0.0
Zn89 Zn 0.36644 0.15585 0.70028 0.0
O90 O 0.34533 0.18348 0.67371 0.0
O91 O 0.29582 0.15137 0.66177 0.0
O92 O 0.41743 0.14079 0.69165 0.0
O93 O 0.37092 0.11151 0.67529 0.0
O94 O 0.29574 0.08424 0.69871 0.0
O95 O 0.34723 0.1052 0.71444 0.0
C96 C 0.31917 0.17898 0.66037 0.0
C97 C 0.32042 0.08066 0.71269 0.0
C98 C 0.12539 0.16479 0.93275 0.0
C99 C 0.07072 0.05699 0.96842 0.0
O100 O 0.1394 0.13307 0.9267 0.0
Zn101 Zn 0.13326 0.0735 0.93372 0.0
O102 O 0.10164 0.16492 0.94715 0.0
Zn103 Zn 0.09938 0.11066 0.95111 0.0
O104 O 0.15305 0.09631 0.96455 0.0
O105 O 0.184 0.05973 0.94306 0.0
O106 O 0.06439 0.09235 0.97054 0.0
O107 O 0.09528 0.04578 0.95532 0.0
O108 O 0.11546 0.05491 0.90766 0.0
O109 O 0.07411 0.09189 0.92338 0.0
C110 C 0.18266 0.07683 0.95992 0.0
C111 C 0.08317 0.07145 0.90813 0.0
C112 C 0.93298 0.88074 0.69376 0.0
C113 C 0.83664 0.80746 0.73034 0.0
O114 O 0.93828 0.85902 0.70883 0.0
Zn115 Zn 0.88518 0.84404 0.71255 0.0
O116 O 0.89906 0.88548 0.68694 0.0
Zn117 Zn 0.84239 0.86662 0.69309 0.0
O118 O 0.81715 0.91404 0.69987 0.0
O119 O 0.85835 0.89516 0.72311 0.0
O120 O 0.82225 0.82741 0.71595 0.0
O121 O 0.87244 0.80856 0.73357 0.0
O122 O 0.87369 0.81108 0.68595 0.0
O123 O 0.83003 0.84118 0.66785 0.0
C124 C 0.83323 0.91898 0.71687 0.0
C125 C 0.85266 0.81319 0.67013 0.0
C126 C 0.87155 0.1763 0.43783 0.0
C127 C 0.93509 0.07236 0.47289 0.0
O128 O 0.89445 0.17833 0.45266 0.0
Zn129 Zn 0.9022 0.12411 0.45615 0.0
O130 O 0.86108 0.14355 0.43136 0.0
Zn131 Zn 0.87154 0.08496 0.43804 0.0
O132 O 0.82235 0.06657 0.44678 0.0
O133 O 0.85009 0.10401 0.46918 0.0
O134 O 0.91135 0.06021 0.45954 0.0
O135 O 0.93887 0.10795 0.4757 0.0
O136 O 0.92954 0.10733 0.42847 0.0
O137 O 0.89097 0.0678 0.41232 0.0
C138 C 0.82234 0.08234 0.46399 0.0
C139 C 0.92216 0.0862 0.41317 0.0
C140 C 0.67126 0.17802 0.16683 0.0
C141 C 0.66552 0.07637 0.21666 0.0
O142 O 0.68622 0.14516 0.16538 0.0
Zn143 Zn 0.66734 0.12637 0.191 0.0
O144 O 0.65101 0.1866 0.18222 0.0
Zn145 Zn 0.63129 0.15994 0.20938 0.0
O146 O 0.65109 0.19441 0.22924 0.0
O147 O 0.69595 0.16346 0.21259 0.0
O148 O 0.64629 0.10569 0.22206 0.0
O149 O 0.68146 0.07575 0.19952 0.0
O150 O 0.60781 0.12116 0.18412 0.0
O151 O 0.57655 0.15842 0.20504 0.0
C152 C 0.68627 0.18788 0.22608 0.0
C153 C 0.57625 0.13521 0.19037 0.0
C154 C 0.55397 0.92358 0.9808 0.0
C155 C 0.6234 0.82983 0.94091 0.0
O156 O 0.55117 0.88755 0.98126 0.0
Zn157 Zn 0.58974 0.87607 0.96147 0.0
O158 O 0.57824 0.93906 0.96894 0.0
Zn159 Zn 0.62045 0.92098 0.9476 0.0
O160 O 0.60278 0.94372 0.92261 0.0
O161 O 0.56554 0.89749 0.93379 0.0
O162 O 0.63381 0.86414 0.93715 0.0
O163 O 0.59886 0.82358 0.95458 0.0
O164 O 0.64189 0.89103 0.97631 0.0
O165 O 0.66749 0.93924 0.95988 0.0
C166 C 0.57345 0.92278 0.92053 0.0
C167 C 0.66852 0.9157 0.97439 0.0
C168 C 0.82612 0.17881 0.85189 0.0
C169 C 0.81976 0.0785 0.8011 0.0
O170 O 0.80031 0.15359 0.8501 0.0
Zn171 Zn 0.82124 0.12939 0.82631 0.0
O172 O 0.85277 0.18122 0.83876 0.0
Zn173 Zn 0.87008 0.15239 0.81154 0.0
O174 O 0.86299 0.19111 0.79079 0.0
O175 O 0.80873 0.17037 0.80339 0.0
O176 O 0.84668 0.10231 0.79768 0.0
O177 O 0.79852 0.0828 0.81641 0.0
O178 O 0.87535 0.11031 0.83758 0.0
O179 O 0.92129 0.13573 0.81936 0.0
C180 C 0.82669 0.19193 0.79105 0.0
C181 C 0.911 0.11467 0.83397 0.0
C182 C 0.5767 0.06423 0.6059 0.0
C183 C 0.67673 0.06784 0.55501 0.0
O184 O 0.60558 0.0423 0.60504 0.0
Zn185 Zn 0.62703 0.06496 0.58091 0.0
O186 O 0.57173 0.09012 0.59254 0.0
Zn187 Zn 0.60034 0.11243 0.56653 0.0
O188 O 0.56247 0.10488 0.54588 0.0
O189 O 0.58532 0.05083 0.55791 0.0
O190 O 0.65079 0.09292 0.55207 0.0
O191 O 0.67512 0.04629 0.57034 0.0
O192 O 0.64145 0.11915 0.59318 0.0
O193 O 0.61297 0.16395 0.57539 0.0
C194 C 0.56288 0.06868 0.5458 0.0
C195 C 0.63422 0.15439 0.59012 0.0
C196 C 0.67655 0.92398 0.30527 0.0
C197 C 0.68595 0.819 0.35324 0.0
O198 O 0.69909 0.92127 0.32024 0.0
Zn199 Zn 0.68187 0.87204 0.32995 0.0
O200 O 0.65163 0.898 0.30209 0.0
Zn201 Zn 0.63366 0.8461 0.31571 0.0
O202 O 0.58237 0.85773 0.3259 0.0
O203 O 0.62842 0.8843 0.34371 0.0
O204 O 0.65866 0.81508 0.34048 0.0
O205 O 0.7073 0.84827 0.35271 0.0
O206 O 0.69511 0.83317 0.3057 0.0
O207 O 0.64079 0.8103 0.29385 0.0
C208 C 0.59289 0.87742 0.34101 0.0
C209 C 0.6771 0.81153 0.29329 0.0
C210 C 0.94442 0.94221 0.04822 0.0
C211 C 0.87184 0.85407 0.09091 0.0
O212 O 0.94573 0.90605 0.0472 0.0
Zn213 Zn 0.9079 0.89578 0.06839 0.0
O214 O 0.92212 0.958 0.06096 0.0
Zn215 Zn 0.88196 0.94407 0.08336 0.0
O216 O 0.90595 0.96526 0.10746 0.0
O217 O 0.93608 0.91482 0.09532 0.0
O218 O 0.86559 0.88943 0.09429 0.0
O219 O 0.89379 0.84424 0.07654 0.0
O220 O 0.85606 0.91539 0.05519 0.0
O221 O 0.83484 0.96508 0.07217 0.0
C222 C 0.93277 0.94089 0.1087 0.0
C223 C 0.83111 0.94162 0.05768 0.0
C224 C 0.66777 0.58346 0.80293 0.0
C225 C 0.66468 0.68877 0.85069 0.0
O226 O 0.64453 0.6098 0.79758 0.0
Zn227 Zn 0.62416 0.66282 0.80935 0.0
O228 O 0.68582 0.5862 0.81951 0.0
Zn229 Zn 0.66601 0.63542 0.82733 0.0
O230 O 0.60821 0.62225 0.83524 0.0
O231 O 0.57045 0.65379 0.81457 0.0
O232 O 0.68402 0.65829 0.85222 0.0
O233 O 0.64221 0.69369 0.83563 0.0
O234 O 0.63773 0.69747 0.78827 0.0
O235 O 0.6878 0.67378 0.80425 0.0
C236 C 0.57449 0.63115 0.82934 0.0
C237 C 0.67375 0.69548 0.79049 0.0
C238 C 0.5614 0.42444 0.04299 0.0
C239 C 0.62867 0.32526 0.08019 0.0
O240 O 0.58489 0.43875 0.05585 0.0
Zn241 Zn 0.62536 0.41676 0.07798 0.0
O242 O 0.55847 0.38851 0.0415 0.0
Zn243 Zn 0.59566 0.37498 0.06123 0.0
O244 O 0.56879 0.39252 0.08879 0.0
O245 O 0.60598 0.43511 0.10353 0.0
O246 O 0.60504 0.32139 0.06577 0.0
O247 O 0.63833 0.35881 0.08584 0.0
O248 O 0.67398 0.4356 0.06863 0.0
O249 O 0.64735 0.39459 0.04765 0.0
C250 C 0.5758 0.41505 0.10356 0.0
C251 C 0.67456 0.41751 0.05206 0.0
C252 C 0.84018 0.3295 0.35255 0.0
C253 C 0.83874 0.43181 0.30336 0.0
O254 O 0.85943 0.32162 0.33671 0.0
Zn255 Zn 0.87659 0.34945 0.30943 0.0
O256 O 0.82506 0.36214 0.3546 0.0
Zn257 Zn 0.84135 0.3818 0.32872 0.0
O258 O 0.81198 0.34432 0.30745 0.0
O259 O 0.8565 0.31487 0.28979 0.0
O260 O 0.82443 0.43184 0.3209 0.0
O261 O 0.85851 0.40327 0.29738 0.0
O262 O 0.93147 0.35287 0.31222 0.0
O263 O 0.90134 0.38962 0.33384 0.0
C264 C 0.8214 0.32042 0.29363 0.0
C265 C 0.93262 0.37664 0.32662 0.0
C266 C 0.97174 0.58652 0.58926 0.0
C267 C 0.85246 0.5835 0.55027 0.0
O268 O 0.96961 0.612 0.57547 0.0
Zn269 Zn 0.92971 0.63198 0.55323 0.0
O270 O 0.94318 0.56499 0.5925 0.0
Zn271 Zn 0.91023 0.58581 0.57143 0.0
O272 O 0.94184 0.57041 0.54481 0.0
O273 O 0.95875 0.62321 0.52908 0.0
O274 O 0.85985 0.56416 0.566 0.0
O275 O 0.87595 0.60897 0.54432 0.0
O276 O 0.91809 0.68378 0.56171 0.0
O277 O 0.89748 0.64086 0.58324 0.0
C278 C 0.95869 0.587 0.5301 0.0
C279 C 0.90174 0.67581 0.57824 0.0
C280 C 0.67462 0.31227 0.72675 0.0
C281 C 0.57562 0.37942 0.68913 0.0
O282 O 0.68955 0.33507 0.7138 0.0
Zn283 Zn 0.66751 0.37591 0.69154 0.0
O284 O 0.63855 0.31074 0.72831 0.0
Zn285 Zn 0.62585 0.34734 0.70834 0.0
O286 O 0.64344 0.31937 0.68099 0.0
O287 O 0.68587 0.3563 0.66609 0.0
O288 O 0.57228 0.35597 0.70356 0.0
O289 O 0.60911 0.38935 0.6834 0.0
O290 O 0.68708 0.42437 0.70046 0.0
O291 O 0.64564 0.39947 0.72166 0.0
C292 C 0.66598 0.32608 0.66622 0.0
C293 C 0.66889 0.42614 0.71694 0.0
C294 C 0.82498 0.41457 0.96285 0.0
C295 C 0.93085 0.42005 0.91558 0.0
O296 O 0.85374 0.39461 0.96849 0.0
Zn297 Zn 0.90864 0.37907 0.95712 0.0
O298 O 0.82536 0.43128 0.94587 0.0
Zn299 Zn 0.87649 0.41645 0.93827 0.0
O300 O 0.86998 0.3576 0.93115 0.0
O301 O 0.90592 0.32462 0.95214 0.0
O302 O 0.89829 0.43553 0.91333 0.0
O303 O 0.93765 0.3992 0.931 0.0
O304 O 0.9415 0.39811 0.97812 0.0
O305 O 0.91162 0.4434 0.96114 0.0
C306 C 0.88289 0.32554 0.93731 0.0
C307 C 0.93478 0.4333 0.97522 0.0
C308 C 0.82439 0.69573 0.22426 0.0
C309 C 0.91221 0.62186 0.18198 0.0
O310 O 0.80695 0.67366 0.21183 0.0
Zn311 Zn 0.82194 0.63228 0.18898 0.0
O312 O 0.86071 0.69593 0.22467 0.0
Zn313 Zn 0.86931 0.65824 0.20405 0.0
O314 O 0.84904 0.68693 0.17763 0.0
O315 O 0.8014 0.65403 0.16427 0.0
O316 O 0.9214 0.64441 0.19619 0.0
O317 O 0.87684 0.61548 0.17841 0.0
O318 O 0.80147 0.58488 0.1992 0.0
O319 O 0.84827 0.60784 0.218 0.0
C320 C 0.82386 0.68244 0.16377 0.0
C321 C 0.82271 0.58252 0.21471 0.0
C322 C 0.68785 0.57962 0.46772 0.0
C323 C 0.58002 0.58554 0.42065 0.0
O324 O 0.66248 0.60384 0.47306 0.0
Zn325 Zn 0.60979 0.62581 0.46142 0.0
O326 O 0.68385 0.56157 0.45125 0.0
Zn327 Zn 0.63463 0.58262 0.44354 0.0
O328 O 0.64879 0.63963 0.43471 0.0
O329 O 0.62071 0.67881 0.45589 0.0
O330 O 0.60956 0.56472 0.41908 0.0
O331 O 0.57675 0.60851 0.43555 0.0
O332 O 0.57555 0.61425 0.48284 0.0
O333 O 0.59662 0.56287 0.46726 0.0
C334 C 0.64165 0.67367 0.44054 0.0
C335 C 0.57611 0.57823 0.48108 0.0
C336 C 0.40867 0.37774 0.18173 0.0
C337 C 0.32746 0.3077 0.2286 0.0
O338 O 0.41972 0.35751 0.19652 0.0
Zn339 Zn 0.36907 0.34466 0.20662 0.0
O340 O 0.373 0.38429 0.17927 0.0
Zn341 Zn 0.32003 0.37013 0.19308 0.0
O342 O 0.3017 0.41831 0.2035 0.0
O343 O 0.35017 0.39552 0.22109 0.0
O344 O 0.3085 0.32957 0.21671 0.0
O345 O 0.36375 0.30753 0.22784 0.0
O346 O 0.34449 0.31456 0.18139 0.0
O347 O 0.2945 0.34709 0.17019 0.0
C348 C 0.32449 0.42098 0.21836 0.0
C349 C 0.3167 0.31854 0.16894 0.0
C350 C 0.43449 0.57273 0.91615 0.0
C351 C 0.34178 0.5833 0.97088 0.0
O352 O 0.40597 0.55092 0.91889 0.0
Zn353 Zn 0.38689 0.57697 0.94275 0.0
O354 O 0.44125 0.60013 0.92839 0.0
Zn355 Zn 0.41723 0.62509 0.955 0.0
O356 O 0.458 0.61693 0.97461 0.0
O357 O 0.43004 0.56388 0.96454 0.0
O358 O 0.3687 0.60785 0.97199 0.0
O359 O 0.34002 0.56078 0.9559 0.0
O360 O 0.37242 0.63015 0.92975 0.0
O361 O 0.40406 0.67607 0.94508 0.0
C362 C 0.45493 0.58084 0.97554 0.0
C363 C 0.38075 0.66546 0.93143 0.0
C364 C 0.13528 0.60655 0.73361 0.0
C365 C 0.12638 0.70908 0.68418 0.0
O366 O 0.16029 0.60435 0.7196 0.0
Zn367 Zn 0.17686 0.63477 0.69316 0.0
O368 O 0.1112 0.63368 0.73367 0.0
Zn369 Zn 0.12995 0.65921 0.70986 0.0
O370 O 0.11391 0.62013 0.68692 0.0
O371 O 0.16538 0.59898 0.67131 0.0
O372 O 0.10668 0.70615 0.70018 0.0
O373 O 0.15265 0.68478 0.68046 0.0
O374 O 0.22903 0.65093 0.69997 0.0
O375 O 0.18509 0.67782 0.71894 0.0
C376 C 0.12921 0.59943 0.6733 0.0
C377 C 0.22028 0.67324 0.71437 0.0
C378 C 0.18285 0.44048 0.46095 0.0
C379 C 0.09183 0.43433 0.40491 0.0
O380 O 0.18341 0.46056 0.44503 0.0
Zn381 Zn 0.13876 0.43802 0.43206 0.0
O382 O 0.15811 0.41399 0.4629 0.0
Zn383 Zn 0.11209 0.39004 0.44613 0.0
O384 O 0.12956 0.33904 0.43958 0.0
O385 O 0.15838 0.38371 0.42193 0.0
O386 O 0.08729 0.40806 0.41807 0.0
O387 O 0.11792 0.45917 0.40721 0.0
O388 O 0.09377 0.45117 0.45262 0.0
O389 O 0.07009 0.39758 0.46462 0.0
C390 C 0.15278 0.34841 0.42576 0.0
C391 C 0.06991 0.43379 0.46394 0.0
C392 C 0.33022 0.66948 0.3596 0.0
C393 C 0.33324 0.57054 0.30827 0.0
O394 O 0.3127 0.63783 0.3598 0.0
Zn395 Zn 0.33178 0.61995 0.33419 0.0
O396 O 0.35158 0.67821 0.34462 0.0
Zn397 Zn 0.37045 0.65237 0.31683 0.0
O398 O 0.35279 0.6884 0.29699 0.0
O399 O 0.30581 0.65855 0.31242 0.0
O400 O 0.3538 0.59924 0.30341 0.0
O401 O 0.31633 0.57005 0.32515 0.0
O402 O 0.39069 0.61208 0.34196 0.0
O403 O 0.42524 0.64692 0.3214 0.0
C404 C 0.3172 0.68282 0.29924 0.0
C405 C 0.42342 0.62399 0.33617 0.0
C406 C 0.08184 0.58638 0.10614 0.0
C407 C 0.16992 0.58793 0.04908 0.0
O408 O 0.11441 0.57039 0.10547 0.0
Zn409 Zn 0.12725 0.58743 0.07834 0.0
O410 O 0.06982 0.60585 0.09108 0.0
Zn411 Zn 0.0893 0.62348 0.06201 0.0
O412 O 0.0502 0.60312 0.04483 0.0
O413 O 0.08534 0.55876 0.05953 0.0
O414 O 0.13949 0.60729 0.04588 0.0
O415 O 0.17542 0.5726 0.0662 0.0
O416 O 0.13473 0.64682 0.08385 0.0
O417 O 0.09316 0.67826 0.06525 0.0
C418 C 0.05794 0.56812 0.04757 0.0
C419 C 0.11991 0.67844 0.07823 0.0
C420 C 0.16967 0.31761 0.84859 0.0
C421 C 0.1669 0.42515 0.80275 0.0
O422 O 0.19246 0.34567 0.84816 0.0
Zn423 Zn 0.17072 0.36959 0.8246 0.0
O424 O 0.14392 0.31389 0.83494 0.0
Zn425 Zn 0.12546 0.3446 0.80843 0.0
O426 O 0.13667 0.31107 0.7863 0.0
O427 O 0.18904 0.33253 0.80069 0.0
O428 O 0.14164 0.40019 0.79821 0.0
O429 O 0.19073 0.41852 0.81677 0.0
O430 O 0.11302 0.38314 0.83484 0.0
O431 O 0.07282 0.35322 0.81453 0.0
C432 C 0.17283 0.31195 0.78719 0.0
C433 C 0.07861 0.37495 0.82955 0.0
C434 C 0.43148 0.43456 0.60283 0.0
C435 C 0.34416 0.4312 0.54507 0.0
O436 O 0.40458 0.45807 0.59938 0.0
Zn437 Zn 0.38592 0.43325 0.57502 0.0
O438 O 0.43747 0.40671 0.59078 0.0
Zn439 Zn 0.41442 0.38373 0.56331 0.0
O440 O 0.45762 0.38968 0.54509 0.0
O441 O 0.43223 0.44411 0.55492 0.0
O442 O 0.36938 0.40481 0.5448 0.0
O443 O 0.34198 0.45324 0.56023 0.0
O444 O 0.36661 0.38057 0.58709 0.0
O445 O 0.39679 0.33347 0.57202 0.0
C446 C 0.45713 0.42593 0.54458 0.0
C447 C 0.37272 0.34484 0.58502 0.0
H448 H 0.16181 0.27177 0.43224 0.0
H449 H 0.18013 0.36033 0.3882 0.0
H450 H 0.19777 0.31311 0.36317 0.0
H451 H 0.20049 0.24648 0.3525 0.0
H452 H 0.18526 0.15717 0.3961 0.0
H453 H 0.17447 0.20464 0.42266 0.0
C454 C 0.17028 0.28067 0.41727 0.0
C455 C 0.16917 0.31949 0.41207 0.0
C456 C 0.18084 0.25324 0.40284 0.0
C457 C 0.18066 0.33067 0.39266 0.0
C458 C 0.19062 0.30367 0.37824 0.0
C459 C 0.19584 0.23759 0.36796 0.0
C460 C 0.19367 0.19873 0.37249 0.0
C461 C 0.18979 0.2649 0.383 0.0
C462 C 0.18748 0.18714 0.39245 0.0
C463 C 0.18094 0.21424 0.40754 0.0
H464 H 0.08398 0.92191 0.64713 0.0
H465 H 1.00158 0.97482 0.60777 0.0
H466 H 0.95096 0.96287 0.63226 0.0
H467 H 0.929 0.92956 0.66227 0.0
H468 H 0.00996 0.87111 0.70049 0.0
H469 H 0.0624 0.89327 0.67922 0.0
C470 C 0.05514 0.93196 0.64435 0.0
C471 C 0.04637 0.94986 0.62596 0.0
C472 C 0.0259 0.92322 0.65808 0.0
C473 C 0.00885 0.96166 0.62205 0.0
C474 C 0.97993 0.95444 0.63594 0.0
C475 C 0.95814 0.922 0.66616 0.0
C476 C 0.96543 0.89827 0.68284 0.0
C477 C 0.98791 0.93398 0.65361 0.0
C478 C 1.00346 0.88912 0.68769 0.0
C479 C 0.03346 0.9017 0.67549 0.0
H480 H 0.37357 0.74366 0.93235 0.0
H481 H 0.35958 0.64549 0.8938 0.0
H482 H 0.34571 0.68631 0.86528 0.0
H483 H 0.343 0.74969 0.85034 0.0
H484 H 0.35271 0.84882 0.88813 0.0
H485 H 0.36214 0.80814 0.91785 0.0
C486 C 0.36697 0.73134 0.91776 0.0
C487 C 0.36791 0.69157 0.91526 0.0
C488 C 0.35825 0.75514 0.90124 0.0
C489 C 0.35897 0.67597 0.89627 0.0
C490 C 0.35115 0.69929 0.87984 0.0
C491 C 0.34641 0.76227 0.86518 0.0
C492 C 0.34727 0.80193 0.86717 0.0
C493 C 0.35143 0.73883 0.88205 0.0
C494 C 0.3516 0.81818 0.88638 0.0
C495 C 0.35734 0.79495 0.9033 0.0
H496 H 0.4329 0.14241 0.13325 0.0
H497 H 0.47522 0.03221 0.11577 0.0
H498 H 0.52455 0.03558 0.14209 0.0
H499 H 0.55912 0.07297 0.16781 0.0
H500 H 0.51456 0.1819 0.18639 0.0
H501 H 0.46206 0.17574 0.16223 0.0
C502 C 0.45258 0.11892 0.13554 0.0
C503 C 0.45086 0.08718 0.12271 0.0
C504 C 0.48037 0.12094 0.15082 0.0
C505 C 0.47617 0.05677 0.12564 0.0
C506 C 0.50438 0.05882 0.14059 0.0
C507 C 0.5375 0.09502 0.1668 0.0
C508 C 0.54089 0.128 0.17872 0.0
C509 C 0.50728 0.09117 0.15295 0.0
C510 C 0.51252 0.1562 0.17743 0.0
C511 C 0.48266 0.15283 0.1635 0.0
H512 H 0.1265 0.8259 0.13175 0.0
H513 H 0.22558 0.76817 0.15522 0.0
H514 H 0.21968 0.71926 0.12901 0.0
H515 H 0.18191 0.68949 0.10212 0.0
H516 H 0.08176 0.74649 0.07896 0.0
H517 H 0.09291 0.79969 0.102 0.0
C518 C 0.14721 0.80302 0.13072 0.0
C519 C 0.17653 0.80039 0.14514 0.0
C520 C 0.14327 0.77491 0.11579 0.0
C521 C 0.20307 0.77064 0.14405 0.0
C522 C 0.19954 0.74269 0.12917 0.0
C523 C 0.16286 0.71384 0.10185 0.0
C524 C 0.13076 0.71378 0.089 0.0
C525 C 0.16912 0.74399 0.11534 0.0
C526 C 0.10663 0.74576 0.0887 0.0
C527 C 0.11284 0.77608 0.10198 0.0
H528 H 0.50122 0.90799 0.42073 0.0
H529 H 0.41268 0.93925 0.37866 0.0
H530 H 0.45599 0.92679 0.35037 0.0
H531 H 0.51865 0.9029 0.33768 0.0
H532 H 0.60718 0.87577 0.38076 0.0
H533 H 0.56437 0.89042 0.40848 0.0
C534 C 0.49159 0.91259 0.40536 0.0
C535 C 0.4539 0.92439 0.40174 0.0
C536 C 0.51659 0.90563 0.38932 0.0
C537 C 0.44176 0.93049 0.3818 0.0
C538 C 0.4664 0.92301 0.36563 0.0
C539 C 0.52841 0.90039 0.35315 0.0
C540 C 0.56593 0.88806 0.35717 0.0
C541 C 0.50376 0.90985 0.3692 0.0
C542 C 0.57848 0.88534 0.37727 0.0
C543 C 0.55402 0.89365 0.39316 0.0
H544 H 0.31753 0.25514 0.66145 0.0
H545 H 0.32329 0.16022 0.62057 0.0
H546 H 0.33929 0.2034 0.59273 0.0
H547 H 0.35837 0.26806 0.58109 0.0
H548 H 0.34902 0.3624 0.62252 0.0
H549 H 0.32755 0.31979 0.64893 0.0
C550 C 0.32127 0.24414 0.64629 0.0
C551 C 0.3191 0.20483 0.64293 0.0
C552 C 0.33037 0.26903 0.63052 0.0
C553 C 0.32425 0.19059 0.62335 0.0
C554 C 0.33384 0.21522 0.60753 0.0
C555 C 0.35114 0.27921 0.59583 0.0
C556 C 0.35563 0.31833 0.59982 0.0
C557 C 0.33808 0.25446 0.61106 0.0
C558 C 0.34578 0.33248 0.61895 0.0
C559 C 0.33358 0.30811 0.63416 0.0
H560 H 0.00702 0.06501 0.90962 0.0
H561 H 0.10026 0.07754 0.86807 0.0
H562 H 0.05496 0.09031 0.84054 0.0
H563 H 0.98856 0.10473 0.82936 0.0
H564 H 0.89631 0.08933 0.87162 0.0
H565 H 0.94135 0.0707 0.89764 0.0
C566 C 0.01732 0.06972 0.89442 0.0
C567 C 0.05671 0.0705 0.89081 0.0
C568 C 0.99125 0.077 0.87883 0.0
C569 C 0.06991 0.07647 0.87111 0.0
C570 C 0.04404 0.08417 0.85544 0.0
C571 C 0.97838 0.0968 0.84419 0.0
C572 C 0.93908 0.09887 0.84851 0.0
C573 C 0.0046 0.0856 0.85926 0.0
C574 C 0.92631 0.08809 0.86777 0.0
C575 C 0.95208 0.0775 0.88277 0.0
H576 H 0.8847 0.66792 0.61771 0.0
H577 H 0.89109 0.75196 0.57047 0.0
H578 H 0.87249 0.80176 0.59439 0.0
H579 H 0.85759 0.82179 0.62939 0.0
H580 H 0.85701 0.73757 0.67661 0.0
H581 H 0.8696 0.68737 0.65204 0.0
C582 C 0.88172 0.69706 0.61254 0.0
C583 C 0.88919 0.70615 0.59229 0.0
C584 C 0.87194 0.72552 0.62643 0.0
C585 C 0.8856 0.74419 0.58598 0.0
C586 C 0.87491 0.77266 0.59965 0.0
C587 C 0.85961 0.79233 0.63415 0.0
C588 C 0.85602 0.78318 0.65469 0.0
C589 C 0.86835 0.76372 0.61999 0.0
C590 C 0.85954 0.74512 0.66084 0.0
C591 C 0.86685 0.71647 0.64682 0.0
H592 H 0.02138 0.10651 0.33491 0.0
H593 H 0.11152 0.0958 0.37913 0.0
H594 H 0.06482 0.08394 0.40538 0.0
H595 H 0.99838 0.08182 0.41645 0.0
H596 H 0.90744 0.08848 0.37273 0.0
H597 H 0.95425 0.09629 0.34558 0.0
C598 C 0.0307 0.10111 0.35025 0.0
C599 C 0.06985 0.10237 0.35506 0.0
C600 C 1.00357 0.09373 0.36537 0.0
C601 C 0.0816 0.09493 0.37497 0.0
C602 C 0.0549 0.08831 0.39006 0.0
C603 C 0.98892 0.08445 0.40092 0.0
C604 C 0.94976 0.08491 0.39651 0.0
C605 C 0.01586 0.0884 0.38551 0.0
C606 C 0.93761 0.08792 0.37639 0.0
C607 C 0.96433 0.09263 0.36092 0.0
H608 H 0.66897 0.32599 0.11505 0.0
H609 H 0.61767 0.24942 0.0719 0.0
H610 H 0.63208 0.19536 0.09391 0.0
H611 H 0.65228 0.17106 0.12735 0.0
H612 H 0.6975 0.24945 0.17129 0.0
H613 H 0.69308 0.30154 0.14698 0.0
C614 C 0.66144 0.29745 0.11025 0.0
C615 C 0.64199 0.29185 0.09191 0.0
C616 C 0.66871 0.26679 0.12322 0.0
C617 C 0.63246 0.25459 0.086 0.0
C618 C 0.64063 0.22366 0.0986 0.0
C619 C 0.6621 0.19939 0.13129 0.0
C620 C 0.67557 0.20663 0.15089 0.0
C621 C 0.6578 0.22954 0.11751 0.0
C622 C 0.68734 0.24345 0.15617 0.0
C623 C 0.68459 0.27318 0.14234 0.0
H624 H 0.58564 0.889 0.88469 0.0
H625 H 0.50616 0.95983 0.91686 0.0
H626 H 0.45987 0.95402 0.88923 0.0
H627 H 0.43967 0.92299 0.85796 0.0
H628 H 0.51761 0.84879 0.82649 0.0
H629 H 0.56714 0.86215 0.85158 0.0
C630 C 0.55854 0.90393 0.88528 0.0
C631 C 0.54925 0.92531 0.90247 0.0
C632 C 0.53177 0.89949 0.8696 0.0
C633 C 0.51387 0.94379 0.90354 0.0
C634 C 0.48742 0.94022 0.88783 0.0
C635 C 0.46766 0.91017 0.85634 0.0
C636 C 0.47472 0.88463 0.8404 0.0
C637 C 0.49567 0.91729 0.87106 0.0
C638 C 0.51128 0.86845 0.8386 0.0
C639 C 0.5396 0.87596 0.85301 0.0
H640 H 0.81871 0.31077 0.91568 0.0
H641 H 0.92807 0.2632 0.93203 0.0
H642 H 0.91907 0.21196 0.9075 0.0
H643 H 0.88298 0.18471 0.87895 0.0
H644 H 0.77215 0.22976 0.86382 0.0
H645 H 0.7786 0.27806 0.89038 0.0
C646 C 0.84024 0.28877 0.91411 0.0
C647 C 0.87416 0.29091 0.9255 0.0
C648 C 0.83473 0.25929 0.90007 0.0
C649 C 0.90168 0.26208 0.92349 0.0
C650 C 0.89668 0.23296 0.90935 0.0
C651 C 0.86008 0.20484 0.88175 0.0
C652 C 0.82731 0.20422 0.86949 0.0
C653 C 0.8638 0.23192 0.8972 0.0
C654 C 0.79755 0.22993 0.87319 0.0
C655 C 0.80134 0.25753 0.88828 0.0
H656 H 0.48334 0.10377 0.68338 0.0
H657 H 0.39096 0.09246 0.6405 0.0
H658 H 0.43514 0.07007 0.61502 0.0
H659 H 0.50062 0.06034 0.60365 0.0
H660 H 0.59374 0.06885 0.6459 0.0
H661 H 0.54886 0.08487 0.67298 0.0
C662 C 0.47297 0.09597 0.66853 0.0
C663 C 0.43399 0.10023 0.66381 0.0
C664 C 0.49862 0.08248 0.65384 0.0
C665 C 0.4208 0.08953 0.64457 0.0
C666 C 0.44604 0.07676 0.62992 0.0
C667 C 0.51084 0.0646 0.61895 0.0
C668 C 0.5501 0.0633 0.62293 0.0
C669 C 0.48504 0.07393 0.63424 0.0
C670 C 0.56339 0.06913 0.64267 0.0
C671 C 0.53781 0.07878 0.65805 0.0
H672 H 0.6687 0.82644 0.39261 0.0
H673 H 0.70943 0.74649 0.34844 0.0
H674 H 0.70334 0.69443 0.37274 0.0
H675 H 0.67942 0.67095 0.40496 0.0
H676 H 0.63354 0.74993 0.44844 0.0
H677 H 0.64882 0.80314 0.42614 0.0
C678 C 0.67729 0.79774 0.38863 0.0
C679 C 0.6902 0.79009 0.36903 0.0
C680 C 0.67215 0.7678 0.40243 0.0
C681 C 0.7001 0.75282 0.36363 0.0
C682 C 0.6963 0.72312 0.37744 0.0
C683 C 0.67323 0.69982 0.40974 0.0
C684 C 0.65507 0.70635 0.42831 0.0
C685 C 0.68127 0.73012 0.39666 0.0
C686 C 0.64731 0.74402 0.4342 0.0
C687 C 0.65601 0.77448 0.42143 0.0
H688 H 0.07541 0.93641 0.16582 0.0
H689 H 0.01641 0.83692 0.18765 0.0
H690 H 0.96168 0.85188 0.16615 0.0
H691 H 0.93381 0.88907 0.13828 0.0
H692 H 0.99165 0.9891 0.11677 0.0
H693 H 0.04354 0.97849 0.14114 0.0
C694 C 0.05033 0.91833 0.16609 0.0
C695 C 0.0502 0.88532 0.17815 0.0
C696 C 0.01886 0.92718 0.15371 0.0
C697 C 0.01732 0.86244 0.17852 0.0
C698 C 0.98605 0.87088 0.16615 0.0
C699 C 0.95734 0.90906 0.13939 0.0
C700 C 0.95907 0.93995 0.126 0.0
C701 C 0.98694 0.90258 0.15331 0.0
C702 C 0.9897 0.96549 0.12721 0.0
C703 C 0.01943 0.95919 0.14099 0.0
H704 H 0.65537 0.68014 0.89099 0.0
H705 H 0.67581 0.76381 0.84483 0.0
H706 H 0.66934 0.81504 0.86954 0.0
H707 H 0.6516 0.83609 0.90327 0.0
H708 H 0.62397 0.75327 0.9489 0.0
H709 H 0.63963 0.70159 0.92554 0.0
C710 C 0.65923 0.7096 0.88656 0.0
C711 C 0.66647 0.71844 0.86628 0.0
C712 C 0.65372 0.73896 0.90069 0.0
C713 C 0.67048 0.75659 0.86044 0.0
C714 C 0.66663 0.7858 0.87452 0.0
C715 C 0.64965 0.80675 0.90825 0.0
C716 C 0.63677 0.79851 0.92781 0.0
C717 C 0.65734 0.77735 0.89456 0.0
C718 C 0.63379 0.76032 0.9339 0.0
C719 C 0.64269 0.73079 0.92054 0.0
H720 H 0.49935 0.41051 0.10208 0.0
H721 H 0.59368 0.41924 0.14365 0.0
H722 H 0.55022 0.40922 0.17211 0.0
H723 H 0.48544 0.39303 0.18478 0.0
H724 H 0.39155 0.38837 0.14249 0.0
H725 H 0.43464 0.40181 0.11479 0.0
C726 C 0.51025 0.41075 0.11742 0.0
C727 C 0.5495 0.41534 0.12085 0.0
C728 C 0.48518 0.40539 0.13356 0.0
C729 C 0.56341 0.41597 0.14072 0.0
C730 C 0.53864 0.40994 0.15695 0.0
C731 C 0.47452 0.39536 0.16951 0.0
C732 C 0.43541 0.38951 0.16571 0.0
C733 C 0.4995 0.40383 0.15352 0.0
C734 C 0.42149 0.39294 0.14588 0.0
C735 C 0.44612 0.40047 0.12997 0.0
H736 H 0.83485 0.17869 0.40202 0.0
H737 H 0.88413 0.25133 0.44766 0.0
H738 H 0.8737 0.30694 0.42606 0.0
H739 H 0.85716 0.3336 0.3925 0.0
H740 H 0.81424 0.25861 0.34628 0.0
H741 H 0.81514 0.20524 0.36984 0.0
C742 C 0.8428 0.20672 0.40745 0.0
C743 C 0.86046 0.21078 0.42639 0.0
C744 C 0.83798 0.23815 0.39474 0.0
C745 C 0.87063 0.24738 0.4331 0.0
C746 C 0.86477 0.27917 0.42073 0.0
C747 C 0.84725 0.30568 0.38786 0.0
C748 C 0.83543 0.29977 0.36785 0.0
C749 C 0.84942 0.27474 0.40128 0.0
C750 C 0.82334 0.26354 0.36169 0.0
C751 C 0.82397 0.23309 0.37511 0.0
H752 H 0.1301 0.60794 0.63294 0.0
H753 H 0.06857 0.55423 0.68121 0.0
H754 H 0.015 0.54097 0.65848 0.0
H755 H 0.98196 0.55352 0.62626 0.0
H756 H 0.04194 0.61282 0.57908 0.0
H757 H 0.09943 0.61503 0.5998 0.0
C758 C 0.10556 0.59199 0.6382 0.0
C759 C 0.10341 0.58144 0.65855 0.0
C760 C 0.07404 0.58641 0.62533 0.0
C761 C 0.07095 0.56202 0.66546 0.0
C762 C 0.04016 0.55488 0.65254 0.0
C763 C 0.00781 0.56632 0.62042 0.0
C764 C 0.00743 0.58338 0.60125 0.0
C765 C 0.04073 0.56834 0.63265 0.0
C766 C 0.04121 0.59995 0.59391 0.0
C767 C 0.07423 0.60114 0.60572 0.0
H768 H 0.64554 0.23149 0.58611 0.0
H769 H 0.64857 0.13959 0.62929 0.0
H770 H 0.66079 0.1844 0.65641 0.0
H771 H 0.66582 0.24987 0.66847 0.0
H772 H 0.66724 0.34245 0.62598 0.0
H773 H 0.65859 0.29742 0.59801 0.0
C774 C 0.64934 0.22138 0.60143 0.0
C775 C 0.64592 0.18229 0.60565 0.0
C776 C 0.65707 0.24741 0.6171 0.0
C777 C 0.65124 0.16949 0.62556 0.0
C778 C 0.65806 0.1951 0.64115 0.0
C779 C 0.66477 0.26005 0.65304 0.0
C780 C 0.66685 0.2992 0.6492 0.0
C781 C 0.66036 0.2341 0.63717 0.0
C782 C 0.66586 0.31226 0.6292 0.0
C783 C 0.66065 0.28658 0.61326 0.0
H784 H 0.08164 0.40867 0.86624 0.0
H785 H 1.00244 0.37196 0.82022 0.0
H786 H 0.94874 0.38877 0.8419 0.0
H787 H 0.92454 0.40727 0.87545 0.0
H788 H 0.00453 0.43822 0.92212 0.0
H789 H 0.05763 0.43114 0.89862 0.0
C790 C 0.05265 0.40485 0.86081 0.0
C791 C 0.0461 0.38881 0.8417 0.0
C792 C 0.022 0.41365 0.87352 0.0
C793 C 0.0083 0.38396 0.83494 0.0
C794 C 0.97756 0.3936 0.84733 0.0
C795 C 0.95354 0.41348 0.8802 0.0
C796 C 0.96085 0.4236 0.90031 0.0
C797 C 0.98407 0.4076 0.86684 0.0
C798 C 0.99847 0.43066 0.9066 0.0
C799 C 0.02878 0.42636 0.89323 0.0
H800 H 0.85542 0.778 0.08546 0.0
H801 H 0.85618 0.8679 0.12988 0.0
H802 H 0.8376 0.82325 0.15589 0.0
H803 H 0.82637 0.75812 0.16685 0.0
H804 H 0.82233 0.66732 0.12334 0.0
H805 H 0.8361 0.7127 0.09611 0.0
C806 C 0.85113 0.7877 0.1008 0.0
C807 C 0.85743 0.82616 0.10571 0.0
C808 C 0.83971 0.76177 0.11584 0.0
C809 C 0.8514 0.8385 0.12562 0.0
C810 C 0.84085 0.81298 0.14059 0.0
C811 C 0.82769 0.74849 0.15132 0.0
C812 C 0.82342 0.70973 0.14698 0.0
C813 C 0.83555 0.77455 0.13595 0.0
C814 C 0.82512 0.69729 0.1269 0.0
C815 C 0.83341 0.72314 0.11141 0.0
H816 H 0.58245 0.60461 0.38097 0.0
H817 H 0.50752 0.56436 0.42764 0.0
H818 H 0.45279 0.56918 0.40477 0.0
H819 H 0.42565 0.58984 0.3727 0.0
H820 H 0.49888 0.63572 0.32658 0.0
H821 H 0.55489 0.62365 0.3479 0.0
C822 C 0.55419 0.59619 0.38587 0.0
C823 C 0.54882 0.5836 0.40577 0.0
C824 C 0.5226 0.60049 0.37283 0.0
C825 C 0.51212 0.5737 0.41228 0.0
C826 C 0.4809 0.57664 0.39925 0.0
C827 C 0.45387 0.59677 0.36713 0.0
C828 C 0.45799 0.61365 0.34802 0.0
C829 C 0.48568 0.59074 0.37965 0.0
C830 C 0.49484 0.62275 0.34122 0.0
C831 C 0.52688 0.61589 0.35342 0.0
H832 H 0.32467 0.17345 0.11511 0.0
H833 H 0.38184 0.2525 0.07563 0.0
H834 H 0.36488 0.30511 0.09797 0.0
H835 H 0.34074 0.32732 0.13084 0.0
H836 H 0.28796 0.24739 0.17121 0.0
H837 H 0.29567 0.19644 0.14632 0.0
C838 C 0.33292 0.20225 0.11117 0.0
C839 C 0.35483 0.20891 0.09379 0.0
C840 C 0.32382 0.2322 0.12431 0.0
C841 C 0.36517 0.24648 0.08896 0.0
C842 C 0.35554 0.2766 0.10176 0.0
C843 C 0.32988 0.29895 0.1338 0.0
C844 C 0.31315 0.29092 0.15251 0.0
C845 C 0.3358 0.26964 0.11974 0.0
C846 C 0.30023 0.25404 0.15667 0.0
C847 C 0.30498 0.22496 0.14254 0.0
H848 H 0.42618 0.61111 0.88151 0.0
H849 H 0.49849 0.53017 0.91191 0.0
H850 H 0.54761 0.53835 0.88603 0.0
H851 H 0.57282 0.57486 0.85744 0.0
H852 H 0.50096 0.65739 0.82755 0.0
H853 H 0.44856 0.64198 0.85034 0.0
C854 C 0.4522 0.59435 0.88198 0.0
C855 C 0.45871 0.56957 0.89824 0.0
C856 C 0.48054 0.60001 0.86736 0.0
C857 C 0.49278 0.54873 0.89921 0.0
C858 C 0.52094 0.55377 0.88456 0.0
C859 C 0.54552 0.5891 0.8557 0.0
C860 C 0.54103 0.61764 0.84096 0.0
C861 C 0.51562 0.58031 0.86896 0.0
C862 C 0.5053 0.63545 0.83879 0.0
C863 C 0.47533 0.62674 0.85187 0.0
H864 H 0.13242 0.70302 0.64392 0.0
H865 H 0.10417 0.78256 0.69109 0.0
H866 H 0.09878 0.83382 0.66614 0.0
H867 H 0.10482 0.8561 0.63116 0.0
H868 H 0.12816 0.77571 0.58368 0.0
H869 H 0.13296 0.72422 0.60859 0.0
C870 C 0.12496 0.7316 0.6487 0.0
C871 C 0.11918 0.73933 0.66928 0.0
C872 C 0.12139 0.76055 0.63429 0.0
C873 C 0.10874 0.77612 0.67532 0.0
C874 C 0.10588 0.80536 0.66109 0.0
C875 C 0.11117 0.82728 0.62632 0.0
C876 C 0.11704 0.81958 0.60576 0.0
C877 C 0.11271 0.79795 0.6406 0.0
C878 C 0.12402 0.78214 0.59949 0.0
C879 C 0.1267 0.75285 0.6137 0.0
H880 H 0.08476 0.37972 0.37689 0.0
H881 H 0.0402 0.48885 0.39469 0.0
H882 H 0.98752 0.4821 0.37044 0.0
H883 H 0.95031 0.44121 0.34726 0.0
H884 H 0.99682 0.33316 0.32856 0.0
H885 H 0.05297 0.34355 0.34981 0.0
C886 C 0.06401 0.40241 0.37499 0.0
C887 C 0.06608 0.43474 0.38739 0.0
C888 C 0.03406 0.39827 0.36105 0.0
C889 C 0.03919 0.46397 0.38505 0.0
C890 C 0.00896 0.45991 0.37135 0.0
C891 C 0.97308 0.42029 0.3476 0.0
C892 C 0.96923 0.38624 0.33658 0.0
C893 C 0.00548 0.42662 0.35973 0.0
C894 C 0.99911 0.35956 0.33691 0.0
C895 C 0.03113 0.36539 0.34915 0.0
H896 H 0.32221 0.74541 0.35849 0.0
H897 H 0.33629 0.65141 0.39945 0.0
H898 H 0.34584 0.69586 0.42758 0.0
H899 H 0.35643 0.76204 0.43965 0.0
H900 H 0.33837 0.85512 0.39814 0.0
H901 H 0.32371 0.81061 0.37129 0.0
C902 C 0.32666 0.73476 0.37367 0.0
C903 C 0.32879 0.69545 0.37699 0.0
C904 C 0.3317 0.76035 0.38966 0.0
C905 C 0.33431 0.68172 0.39666 0.0
C906 C 0.34007 0.70711 0.41268 0.0
C907 C 0.34874 0.77249 0.4248 0.0
C908 C 0.34898 0.81189 0.42094 0.0
C909 C 0.33979 0.74658 0.40926 0.0
C910 C 0.33852 0.825 0.40164 0.0
C911 C 0.33025 0.79956 0.38616 0.0
H912 H 0.00786 0.56797 0.10741 0.0
H913 H 0.10173 0.60347 0.14497 0.0
H914 H 0.05758 0.61561 0.17296 0.0
H915 H 0.9908 0.6231 0.1851 0.0
H916 H 0.89824 0.58487 0.14689 0.0
H917 H 0.94325 0.56651 0.12101 0.0
C918 C 0.01867 0.57744 0.12192 0.0
C919 C 0.05773 0.58486 0.12424 0.0
C920 C 0.99324 0.58435 0.13776 0.0
C921 C 0.07168 0.59718 0.143 0.0
C922 C 0.04638 0.60449 0.15889 0.0
C923 C 0.9806 0.61024 0.17124 0.0
C924 C 0.94104 0.60602 0.16792 0.0
C925 C 0.00687 0.59929 0.15623 0.0
C926 C 0.92839 0.58884 0.14992 0.0
C927 C 0.95413 0.5783 0.13499 0.0
H928 H 0.1204 0.31248 0.8793 0.0
H929 H 0.22156 0.26133 0.85447 0.0
H930 H 0.21883 0.21046 0.87979 0.0
H931 H 0.18409 0.17791 0.90699 0.0
H932 H 0.08372 0.23041 0.93237 0.0
H933 H 0.09006 0.28388 0.90914 0.0
C934 C 0.1421 0.29043 0.87974 0.0
C935 C 0.17105 0.29018 0.8652 0.0
C936 C 0.1404 0.26164 0.89437 0.0
C937 C 0.19916 0.26181 0.86569 0.0
C938 C 0.19748 0.23279 0.88007 0.0
C939 C 0.16395 0.20135 0.90764 0.0
C940 C 0.13325 0.19998 0.92125 0.0
C941 C 0.16774 0.232 0.89422 0.0
C942 C 0.10762 0.23074 0.92206 0.0
C943 C 0.11106 0.26123 0.90869 0.0
H944 H 0.42634 0.39337 0.63673 0.0
H945 H 0.49287 0.48052 0.60787 0.0
H946 H 0.54289 0.47374 0.63361 0.0
H947 H 0.57083 0.43699 0.66168 0.0
H948 H 0.50375 0.34961 0.69043 0.0
H949 H 0.45058 0.36283 0.66765 0.0
C950 C 0.45128 0.41168 0.63655 0.0
C951 C 0.45598 0.43774 0.62074 0.0
C952 C 0.47999 0.40715 0.6512 0.0
C953 C 0.48858 0.46083 0.62021 0.0
C954 C 0.51726 0.45662 0.63478 0.0
C955 C 0.54435 0.42127 0.66317 0.0
C956 C 0.54154 0.39197 0.67757 0.0
C957 C 0.51382 0.42897 0.64995 0.0
C958 C 0.50684 0.37218 0.67945 0.0
C959 C 0.4764 0.37962 0.66636 0.0
H960 H 0.25071 0.30024 0.23258 0.0
H961 H 0.35758 0.25825 0.25642 0.0
H962 H 0.323 0.21614 0.27929 0.0
H963 H 0.26236 0.19109 0.29242 0.0
H964 H 0.15579 0.23338 0.26829 0.0
H965 H 0.19047 0.27546 0.24563 0.0
C966 C 0.26655 0.28196 0.24279 0.0
C967 C 0.30675 0.28249 0.24276 0.0
C968 C 0.24654 0.25778 0.25584 0.0
C969 C 0.32666 0.25849 0.2561 0.0
C970 C 0.3069 0.23436 0.26919 0.0
C971 C 0.24669 0.20947 0.2822 0.0
C972 C 0.20646 0.20897 0.28209 0.0
C973 C 0.26683 0.23372 0.26916 0.0
C974 C 0.1867 0.23308 0.26873 0.0
C975 C 0.20651 0.25721 0.25575 0.0
H976 H 0.01381 0.93652 0.51936 0.0
H977 H 0.07002 0.03027 0.54932 0.0
H978 H 0.03527 0.0754 0.5282 0.0
H979 H 0.98826 0.08838 0.50164 0.0
H980 H 0.93196 0.9947 0.47167 0.0
H981 H 0.96754 0.94949 0.49238 0.0
C982 C 0.01854 0.96682 0.52126 0.0
C983 C 0.04444 0.97993 0.53595 0.0
C984 C 0.99844 0.99267 0.50908 0.0
C985 C 0.05024 0.01932 0.53816 0.0
C986 C 0.03036 0.0452 0.52609 0.0
C987 C 0.98378 0.05808 0.49959 0.0
C988 C 0.95739 0.04501 0.48514 0.0
C989 C 0.00428 0.0322 0.51157 0.0
C990 C 0.95207 0.00561 0.48268 0.0
C991 C 0.97239 0.97969 0.49454 0.0
H992 H 0.2077 0.72062 0.74563 0.0
H993 H 0.29884 0.67296 0.71004 0.0
H994 H 0.34576 0.70844 0.73023 0.0
H995 H 0.36045 0.75396 0.75801 0.0
H996 H 0.26726 0.80056 0.79269 0.0
H997 H 0.22176 0.76435 0.77281 0.0
C998 C 0.23781 0.71781 0.74217 0.0
C999 C 0.24962 0.69413 0.72626 0.0
C1000 C 0.26436 0.73816 0.75374 0.0
C1001 C 0.28887 0.691 0.72217 0.0
C1002 C 0.31571 0.71129 0.73373 0.0
C1003 C 0.3302 0.75603 0.76124 0.0
C1004 C 0.31744 0.78013 0.77686 0.0
C1005 C 0.30375 0.73507 0.74957 0.0
C1006 C 0.27807 0.78249 0.78077 0.0
C1007 C 0.25189 0.76174 0.7694 0.0
H1008 H 0.44215 0.00404 0.04202 0.0
H1009 H 0.49728 0.10394 0.01788 0.0
H1010 H 0.53624 0.06392 0.99601 0.0
H1011 H 0.55455 1.00077 0.98366 0.0
H1012 H 0.49944 0.90079 1.00768 0.0
H1013 H 0.46052 0.94078 0.02964 0.0
C1014 C 0.46273 0.01712 0.03201 0.0
C1015 C 0.46675 0.057 0.03164 0.0
C1016 C 0.485 0.99395 0.01941 0.0
C1017 C 0.49354 0.07336 0.01852 0.0
C1018 C 0.51584 0.05049 1.00598 0.0
C1019 C 0.53401 0.98764 0.99367 0.0
C1020 C 0.52996 0.94777 0.99398 0.0
C1021 C 0.51177 0.01078 1.00628 0.0
C1022 C 0.50319 0.93137 1.00709 0.0
C1023 C 0.48092 0.95422 0.01968 0.0
H1024 H 0.33122 0.73412 0.26925 0.0
H1025 H 0.23933 0.67831 0.30075 0.0
H1026 H 0.19264 0.71183 0.27992 0.0
H1027 H 0.17764 0.75718 0.25279 0.0
H1028 H 0.26957 0.81303 0.22133 0.0
H1029 H 0.31624 0.77926 0.24204 0.0
C1030 C 0.30099 0.72928 0.27159 0.0
C1031 C 0.28894 0.70368 0.28661 0.0
C1032 C 0.27417 0.74865 0.25952 0.0
C1033 C 0.24957 0.69781 0.28935 0.0
C1034 C 0.22276 0.71698 0.27741 0.0
C1035 C 0.20788 0.76193 0.25041 0.0
C1036 C 0.21994 0.78768 0.23546 0.0
C1037 C 0.2347 0.74246 0.26244 0.0
C1038 C 0.25932 0.79343 0.23268 0.0
C1039 C 0.28612 0.77413 0.24455 0.0
H1040 H 0.44668 1.00073 0.48226 0.0
H1041 H 0.48969 0.89528 0.50688 0.0
H1042 H 0.53171 0.93076 0.52956 0.0
H1043 H 0.55609 0.99166 0.54248 0.0
H1044 H 0.51275 0.09701 0.51787 0.0
H1045 H 0.47103 0.06149 0.49512 0.0
C1046 C 0.46524 0.98541 0.49257 0.0
C1047 C 0.46496 0.94532 0.49283 0.0
C1048 C 0.48929 0.00597 0.50559 0.0
C1049 C 0.48925 0.92608 0.50633 0.0
C1050 C 0.51332 0.94636 0.51932 0.0
C1051 C 0.53755 0.00692 0.53214 0.0
C1052 C 0.53763 0.04702 0.53193 0.0
C1053 C 0.51355 0.98631 0.51909 0.0
C1054 C 0.51334 0.0662 0.51841 0.0
C1055 C 0.48944 0.0459 0.50537 0.0
H1056 H 0.25065 0.30676 0.78507 0.0
H1057 H 0.14703 0.26524 0.75727 0.0
H1058 H 0.18436 0.2262 0.73426 0.0
H1059 H 0.24591 0.20302 0.72231 0.0
H1060 H 0.35009 0.24373 0.74977 0.0
H1061 H 0.31295 0.28399 0.77258 0.0
C1062 C 0.23622 0.28924 0.77395 0.0
C1063 C 0.19599 0.28897 0.77297 0.0
C1064 C 0.25792 0.26668 0.76071 0.0
C1065 C 0.17787 0.26607 0.75843 0.0
C1066 C 0.19921 0.24367 0.74524 0.0
C1067 C 0.26065 0.22071 0.73325 0.0
C1068 C 0.30081 0.22022 0.73432 0.0
C1069 C 0.23919 0.24364 0.7463 0.0
C1070 C 0.31924 0.24349 0.74859 0.0
C1071 C 0.298 0.2665 0.76166 0.0
H1072 H 0.02447 0.07325 0.99966 0.0
H1073 H 0.07126 0.97858 0.9665 0.0
H1074 H 0.03692 0.934 0.98836 0.0
H1075 H 0.9926 0.92228 0.01701 0.0
H1076 H 0.94782 0.01908 0.04953 0.0
H1077 H 0.98243 0.06208 0.02785 0.0
C1078 C 0.02723 0.04287 0.99711 0.0
C1079 C 0.05028 0.02936 0.98139 0.0
C1080 C 0.00771 0.01761 0.0097 0.0
C1081 C 0.05362 0.98982 0.97848 0.0
C1082 C 0.03399 0.9643 0.99099 0.0
C1083 C 0.99059 0.95275 0.01935 0.0
C1084 C 0.9674 0.96718 0.03491 0.0
C1085 C 0.01083 0.97789 1.00668 0.0
C1086 C 0.9652 0.00687 0.03771 0.0
C1087 C 0.98503 0.03171 0.02528 0.0
H1088 H 0.7592 0.80168 0.72845 0.0
H1089 H 0.85736 0.75986 0.76119 0.0
H1090 H 0.8158 0.72141 0.78251 0.0
H1091 H 0.75151 0.69995 0.79205 0.0
H1092 H 0.6535 0.74233 0.75936 0.0
H1093 H 0.69515 0.78017 0.73788 0.0
C1094 C 0.7716 0.78412 0.74021 0.0
C1095 C 0.81143 0.78373 0.74316 0.0
C1096 C 0.74753 0.76215 0.75248 0.0
C1097 C 0.82684 0.7608 0.75855 0.0
C1098 C 0.80307 0.73876 0.77077 0.0
C1099 C 0.73922 0.71741 0.78022 0.0
C1100 C 0.69934 0.71821 0.77737 0.0
C1101 C 0.76336 0.73927 0.7679 0.0
C1102 C 0.68402 0.7411 0.76195 0.0
C1103 C 0.70784 0.7628 0.74962 0.0
H1104 H 0.67611 0.24301 0.25451 0.0
H1105 H 0.76365 0.18025 0.22308 0.0
H1106 H 0.81295 0.2158 0.24103 0.0
H1107 H 0.8314 0.2649 0.26548 0.0
H1108 H 0.74398 0.32763 0.29698 0.0
H1109 H 0.6946 0.29193 0.27912 0.0
C1110 C 0.70596 0.237 0.25161 0.0
C1111 C 0.71606 0.20894 0.23744 0.0
C1112 C 0.73428 0.25763 0.26195 0.0
C1113 C 0.75495 0.20165 0.23389 0.0
C1114 C 0.78324 0.22201 0.24414 0.0
C1115 C 0.80156 0.27085 0.26843 0.0
C1116 C 0.7915 0.299 0.28255 0.0
C1117 C 0.77324 0.25013 0.25816 0.0
C1118 C 0.75262 0.30617 0.2862 0.0
C1119 C 0.72431 0.28574 0.276 0.0
H1120 H 0.74984 0.19836 0.78861 0.0
H1121 H 0.85356 0.24248 0.76268 0.0
H1122 H 0.81592 0.28375 0.74039 0.0
H1123 H 0.753 0.30728 0.7283 0.0
H1124 H 0.6503 0.26183 0.75494 0.0
H1125 H 0.68823 0.22123 0.77683 0.0
C1126 C 0.76441 0.21695 0.77811 0.0
C1127 C 0.80456 0.21724 0.77737 0.0
C1128 C 0.7427 0.24047 0.7654 0.0
C1129 C 0.82271 0.24162 0.7636 0.0
C1130 C 0.80118 0.26524 0.75084 0.0
C1131 C 0.73896 0.28849 0.73889 0.0
C1132 C 0.69873 0.28776 0.73989 0.0
C1133 C 0.76107 0.26492 0.7516 0.0
C1134 C 0.6811 0.26316 0.75375 0.0
C1135 C 0.70278 0.23982 0.76634 0.0
H1136 H 0.75425 0.8076 0.28899 0.0
H1137 H 0.64915 0.76227 0.26475 0.0
H1138 H 0.68536 0.7229 0.24119 0.0
H1139 H 0.7469 0.70082 0.2277 0.0
H1140 H 0.85183 0.74617 0.25219 0.0
H1141 H 0.81554 0.78603 0.27538 0.0
C1142 C 0.73915 0.78918 0.27855 0.0
C1143 C 0.69893 0.78797 0.2787 0.0
C1144 C 0.76015 0.76655 0.26507 0.0
C1145 C 0.68002 0.76385 0.26501 0.0
C1146 C 0.70074 0.74128 0.25152 0.0
C1147 C 0.76189 0.71946 0.23808 0.0
C1148 C 0.80215 0.72038 0.23816 0.0
C1149 C 0.74082 0.74232 0.25145 0.0
C1150 C 0.82095 0.74476 0.25175 0.0
C1151 C 0.80019 0.76761 0.26505 0.0
H1152 H 0.56498 0.50205 0.03915 0.0
H1153 H 0.50598 0.40272 0.01659 0.0
H1154 H 0.46866 0.44243 0.99388 0.0
H1155 H 0.45276 0.50455 0.98027 0.0
H1156 H 0.51065 0.60491 1.00213 0.0
H1157 H 0.54853 0.56546 0.02523 0.0
C1158 C 0.54387 0.48913 0.02931 0.0
C1159 C 0.53836 0.44937 0.02963 0.0
C1160 C 0.52241 0.51223 0.01612 0.0
C1161 C 0.51095 0.43315 0.0167 0.0
C1162 C 0.48954 0.45584 1.00367 0.0
C1163 C 0.47367 0.51802 0.99004 0.0
C1164 C 0.47883 0.55772 0.98942 0.0
C1165 C 0.4951 0.4953 1.00322 0.0
C1166 C 0.5061 0.57443 1.00225 0.0
C1167 C 0.52773 0.55187 0.01548 0.0
H1168 H 0.06084 0.51035 0.46355 0.0
H1169 H 0.02036 0.40849 0.49292 0.0
H1170 H 0.98098 0.44717 0.51539 0.0
H1171 H 0.96074 0.50986 0.52766 0.0
H1172 H 1.0021 0.61158 0.49847 0.0
H1173 H 0.0385 0.57271 0.47481 0.0
C1174 C 0.04329 0.49647 0.47479 0.0
C1175 C 0.04378 0.45653 0.47664 0.0
C1176 C 0.02104 0.51883 0.48771 0.0
C1177 C 0.0206 0.43914 0.4912 0.0
C1178 C 0.99816 0.46125 0.50407 0.0
C1179 C 0.97757 0.52362 0.51608 0.0
C1180 C 0.97889 0.56365 0.51494 0.0
C1181 C 0.99859 0.50113 0.50262 0.0
C1182 C 1.00065 0.58089 0.49973 0.0
C1183 C 0.02151 0.55868 0.48622 0.0
H1184 H 1.00245 0.57781 0.01918 0.0
H1185 H 0.06572 0.49098 0.05102 0.0
H1186 H 0.03279 0.44162 0.0318 0.0
H1187 H 0.98718 0.42303 1.00532 0.0
H1188 H 0.92459 0.51017 0.97331 0.0
H1189 H 0.9561 0.55927 0.99324 0.0
C1190 C 0.00893 0.5481 0.02201 0.0
C1191 C 0.03659 0.53822 0.03652 0.0
C1192 C 0.9901 0.5198 0.01081 0.0
C1193 C 0.04461 0.4995 0.03993 0.0
C1194 C 0.02581 0.47119 0.02893 0.0
C1195 C 0.98034 0.45274 1.00273 0.0
C1196 C 0.9536 0.46279 0.98777 0.0
C1197 C 0.9987 0.481 0.01422 0.0
C1198 C 0.94511 0.5015 0.98467 0.0
C1199 C 0.96312 0.52969 0.99607 0.0
H1200 H 0.5722 0.5004 0.48262 0.0
H1201 H 0.52788 0.60233 0.51051 0.0
H1202 H 0.48861 0.56398 0.5328 0.0
H1203 H 0.46571 0.50228 0.54395 0.0
H1204 H 0.50873 0.39944 0.51659 0.0
H1205 H 0.54994 0.43749 0.49462 0.0
C1206 C 0.55399 0.51421 0.4936 0.0
C1207 C 0.55297 0.55429 0.49479 0.0
C1208 C 0.53131 0.49189 0.50648 0.0
C1209 C 0.52929 0.57164 0.50918 0.0
C1210 C 0.50676 0.54971 0.52197 0.0
C1211 C 0.48411 0.48798 0.53323 0.0
C1212 C 0.48395 0.44799 0.53188 0.0
C1213 C 0.50741 0.50992 0.52067 0.0
C1214 C 0.50827 0.43015 0.51797 0.0
C1215 C 0.53175 0.45192 0.50537 0.0
H1216 H 0.18232 0.07422 0.26524 0.0
H1217 H 0.19606 0.995 0.3143 0.0
H1218 H 0.19489 0.94159 0.29048 0.0
H1219 H 0.18682 0.91762 0.25573 0.0
H1220 H 0.17905 0.99733 0.20652 0.0
H1221 H 0.18116 0.05062 0.23031 0.0
C1222 C 0.18531 0.04521 0.27064 0.0
C1223 C 0.18886 0.03828 0.29141 0.0
C1224 C 0.18554 0.01494 0.25686 0.0
C1225 C 0.19334 1.00081 0.29833 0.0
C1226 C 0.19249 0.97037 0.28474 0.0
C1227 C 0.1858 0.94673 0.25029 0.0
C1228 C 0.18235 0.95378 0.22952 0.0
C1229 C 0.1881 0.9771 0.264 0.0
C1230 C 0.18169 0.99142 0.22249 0.0
C1231 C 0.18278 0.0218 0.23607 0.0
H1232 H 0.17334 0.94273 0.51978 0.0
H1233 H 0.2525 0.92951 0.56915 0.0
H1234 H 0.30598 0.92748 0.54541 0.0
H1235 H 0.32968 0.92669 0.51042 0.0
H1236 H 0.25117 0.94606 0.46131 0.0
H1237 H 0.19782 0.94884 0.48508 0.0
C1238 C 0.20238 0.9396 0.52528 0.0
C1239 C 0.20913 0.93579 0.5461 0.0
C1240 C 0.23292 0.93958 0.5116 0.0
C1241 C 0.24677 0.93243 0.55317 0.0
C1242 C 0.27725 0.93116 0.53961 0.0
C1243 C 0.30087 0.93179 0.50499 0.0
C1244 C 0.29415 0.9358 0.48418 0.0
C1245 C 0.27061 0.93429 0.51878 0.0
C1246 C 0.25692 0.94296 0.47728 0.0
C1247 C 0.22646 0.94436 0.49085 0.0
H1248 H 0.38086 0.04687 0.73008 0.0
H1249 H 0.25798 0.0426 0.72734 0.0
H1250 H 0.25763 0.99281 0.75333 0.0
H1251 H 0.2929 0.95126 0.77733 0.0
H1252 H 0.41598 0.95289 0.77746 0.0
H1253 H 0.41577 0.00332 0.75211 0.0
C1254 C 0.35398 0.03497 0.73515 0.0
C1255 C 0.31947 0.04849 0.72699 0.0
C1256 C 0.35413 0.00616 0.74973 0.0
C1257 C 0.28488 0.03247 0.7334 0.0
C1258 C 0.28471 0.00423 0.74832 0.0
C1259 C 0.31955 0.96295 0.77184 0.0
C1260 C 0.35443 0.94893 0.77936 0.0
C1261 C 0.31919 0.99107 0.75672 0.0
C1262 C 0.38887 0.96349 0.77189 0.0
C1263 C 0.38875 0.99222 0.75741 0.0
H1264 H 0.33434 0.08375 0.01127 0.0
H1265 H 0.25376 0.07108 0.05975 0.0
H1266 H 0.20115 0.06746 0.03539 0.0
H1267 H 0.178 0.07092 1.00034 0.0
H1268 H 0.25886 0.078 0.9517 0.0
H1269 H 0.31169 0.08051 0.97603 0.0
C1270 C 0.30523 0.07999 0.01644 0.0
C1271 C 0.2977 0.07811 0.03721 0.0
C1272 C 0.27536 0.07699 1.00234 0.0
C1273 C 0.26009 0.07259 0.0438 0.0
C1274 C 0.23007 0.07067 0.0299 0.0
C1275 C 0.20726 0.07278 0.99512 0.0
C1276 C 0.2147 0.07471 0.97434 0.0
C1277 C 0.23735 0.07329 1.00915 0.0
C1278 C 0.25261 0.07647 0.96765 0.0
C1279 C 0.28271 0.07806 0.98155 0.0
H1280 H 0.82236 0.07769 0.76038 0.0
H1281 H 0.80753 0.00508 0.81208 0.0
H1282 H 0.80882 0.94874 0.79031 0.0
H1283 H 0.81937 0.92019 0.75682 0.0
H1284 H 0.8286 0.99276 0.70475 0.0
H1285 H 0.82388 0.04928 0.7263 0.0
C1286 C 0.81892 0.04949 0.76677 0.0
C1287 C 0.81525 0.04528 0.78774 0.0
C1288 C 0.81881 0.0174 0.75412 0.0
C1289 C 0.81032 0.00883 0.79595 0.0
C1290 C 0.81125 0.97668 0.78353 0.0
C1291 C 0.81977 0.94845 0.75023 0.0
C1292 C 0.82463 0.95257 0.72934 0.0
C1293 C 0.81624 0.98062 0.76265 0.0
C1294 C 0.82474 0.9891 0.72082 0.0
C1295 C 0.82228 0.02133 0.73314 0.0
H1296 H 0.67118 0.07165 0.5146 0.0
H1297 H 0.75242 0.05757 0.56297 0.0
H1298 H 0.80517 0.06041 0.53881 0.0
H1299 H 0.82792 0.07086 0.50409 0.0
H1300 H 0.7464 0.07947 0.45548 0.0
H1301 H 0.6937 0.07462 0.47953 0.0
C1302 C 0.70048 0.06885 0.51977 0.0
C1303 C 0.70817 0.06481 0.54045 0.0
C1304 C 0.73039 0.06972 0.50579 0.0
C1305 C 0.74602 0.06063 0.54707 0.0
C1306 C 0.77608 0.06246 0.53329 0.0
C1307 C 0.79855 0.07142 0.49882 0.0
C1308 C 0.79079 0.07601 0.47817 0.0
C1309 C 0.76859 0.06764 0.51266 0.0
C1310 C 0.75284 0.07602 0.47135 0.0
C1311 C 0.72281 0.07337 0.48508 0.0
H1312 H 0.67678 0.07865 0.25698 0.0
H1313 H 0.66264 1.00119 0.20713 0.0
H1314 H 0.66494 0.94693 0.23029 0.0
H1315 H 0.66881 0.92186 0.26487 0.0
H1316 H 0.68904 0.99865 0.31442 0.0
H1317 H 0.68689 0.05305 0.29127 0.0
C1318 C 0.67431 0.04982 0.25126 0.0
C1319 C 0.66908 0.04373 0.23048 0.0
C1320 C 0.6768 0.01884 0.26459 0.0
C1321 C 0.66662 0.00639 0.22309 0.0
C1322 C 0.66784 0.97546 0.23632 0.0
C1323 C 0.67293 0.95055 0.27053 0.0
C1324 C 0.67867 0.95648 0.29127 0.0
C1325 C 0.6726 0.98139 0.2571 0.0
C1326 C 0.68462 0.99356 0.29848 0.0
C1327 C 0.68321 0.02458 0.28528 0.0
H1328 H 0.6992 0.97602 0.99462 0.0
H1329 H 0.70792 0.85445 0.98712 0.0
H1330 H 0.75891 0.85188 0.0123 0.0
H1331 H 0.80051 0.88383 0.03653 0.0
H1332 H 0.78946 0.00456 0.04656 0.0
H1333 H 0.73943 0.00794 0.02058 0.0
C1334 C 0.71264 0.94915 0.99845 0.0
C1335 C 0.70041 0.91551 0.98892 0.0
C1336 C 0.74107 0.94772 0.01352 0.0
C1337 C 0.71718 0.88065 0.99424 0.0
C1338 C 0.7462 0.87917 1.00864 0.0
C1339 C 0.78711 0.91092 0.03306 0.0
C1340 C 0.79877 0.94394 0.04333 0.0
C1341 C 0.75824 0.91246 0.01842 0.0
C1342 C 0.78081 0.97872 0.0389 0.0
C1343 C 0.75242 0.98067 0.02397 0.0
H1344 H 0.67103 0.4259 0.75769 0.0
H1345 H 0.67641 0.50029 0.70614 0.0
H1346 H 0.67738 0.55594 0.72837 0.0
H1347 H 0.67299 0.5833 0.76244 0.0
H1348 H 0.67323 0.5091 0.81414 0.0
H1349 H 0.67411 0.45327 0.79194 0.0
C1350 C 0.67269 0.45434 0.7514 0.0
C1351 C 0.67321 0.45923 0.73038 0.0
C1352 C 0.67418 0.48605 0.76428 0.0
C1353 C 0.676 0.49602 0.7223 0.0
C1354 C 0.6764 0.52776 0.73499 0.0
C1355 C 0.67357 0.55484 0.76879 0.0
C1356 C 0.67263 0.55006 0.78979 0.0
C1357 C 0.67495 0.52311 0.75597 0.0
C1358 C 0.67398 0.51327 0.79797 0.0
C1359 C 0.6743 0.48144 0.7853 0.0
H1360 H 0.82792 0.42301 1.00311 0.0
H1361 H 0.74924 0.41528 0.95318 0.0
H1362 H 0.6952 0.41633 0.97659 0.0
H1363 H 0.67091 0.41603 0.01141 0.0
H1364 H 0.74958 0.42871 0.0611 0.0
H1365 H 0.80335 0.4295 0.03761 0.0
C1366 C 0.79887 0.42175 0.9974 0.0
C1367 C 0.79232 0.41854 0.97657 0.0
C1368 C 0.76818 0.42323 0.01087 0.0
C1369 C 0.75475 0.41768 0.9692 0.0
C1370 C 0.72398 0.41815 0.98256 0.0
C1371 C 0.69986 0.41921 0.01703 0.0
C1372 C 0.70652 0.42187 0.0379 0.0
C1373 C 0.73042 0.42039 1.00344 0.0
C1374 C 0.74393 0.42664 0.04507 0.0
C1375 C 0.7746 0.42691 0.03168 0.0
H1376 H 0.82409 0.42894 0.26344 0.0
H1377 H 0.8396 0.50703 0.31291 0.0
H1378 H 0.83456 0.56107 0.28972 0.0
H1379 H 0.82941 0.58563 0.2551 0.0
H1380 H 0.80881 0.508 0.20594 0.0
H1381 H 0.81164 0.45398 0.22929 0.0
C1382 C 0.82616 0.45786 0.26908 0.0
C1383 C 0.83273 0.46425 0.28971 0.0
C1384 C 0.82226 0.48864 0.25575 0.0
C1385 C 0.83464 0.50165 0.29704 0.0
C1386 C 0.83186 0.53244 0.2838 0.0
C1387 C 0.82517 0.55685 0.24958 0.0
C1388 C 0.8193 0.55053 0.2289 0.0
C1389 C 0.82619 0.52622 0.26311 0.0
C1390 C 0.81327 0.51337 0.22185 0.0
C1391 C 0.81513 0.48256 0.23516 0.0
H1392 H 0.6908 0.57869 0.50852 0.0
H1393 H 0.76111 0.56837 0.45561 0.0
H1394 H 0.81855 0.56695 0.47677 0.0
H1395 H 0.84879 0.57357 0.51017 0.0
H1396 H 0.77878 0.57886 0.56332 0.0
H1397 H 0.72093 0.57693 0.5423 0.0
C1398 C 0.71874 0.57574 0.50169 0.0
C1399 C 0.72192 0.57409 0.48056 0.0
C1400 C 0.75149 0.57414 0.51398 0.0
C1401 C 0.75807 0.56967 0.47184 0.0
C1402 C 0.79086 0.56903 0.48392 0.0
C1403 C 0.82078 0.57377 0.5171 0.0
C1404 C 0.81776 0.57668 0.53817 0.0
C1405 C 0.78792 0.57196 0.50496 0.0
C1406 C 0.78157 0.57651 0.54712 0.0
C1407 C 0.74862 0.57564 0.5351 0.0
H1408 H 0.3229 0.57407 0.26795 0.0
H1409 H 0.33507 0.49514 0.31726 0.0
H1410 H 0.33334 0.44154 0.29364 0.0
H1411 H 0.33079 0.41749 0.25879 0.0
H1412 H 0.31234 0.49582 0.20975 0.0
H1413 H 0.31376 0.54952 0.23338 0.0
C1414 C 0.32501 0.54506 0.27345 0.0
C1415 C 0.32956 0.53833 0.2942 0.0
C1416 C 0.32285 0.51448 0.25985 0.0
C1417 C 0.33159 0.5008 0.30131 0.0
C1418 C 0.33071 0.47025 0.28783 0.0
C1419 C 0.32687 0.44636 0.25335 0.0
C1420 C 0.32187 0.45297 0.23263 0.0
C1421 C 0.32672 0.4768 0.26706 0.0
C1422 C 0.31619 0.49025 0.22568 0.0
C1423 C 0.31717 0.52087 0.23916 0.0
H1424 H 0.26473 0.57427 0.96863 0.0
H1425 H 0.35793 0.58734 0.01063 0.0
H1426 H 0.31335 0.5867 0.03889 0.0
H1427 H 0.24738 0.5857 0.05162 0.0
H1428 H 0.1538 0.57971 1.00938 0.0
H1429 H 0.1986 0.57422 0.98136 0.0
C1430 C 0.27512 0.57658 0.984 0.0
C1431 C 0.31439 0.58066 0.98763 0.0
C1432 C 0.24918 0.57768 1.00014 0.0
C1433 C 0.32768 0.58426 1.00754 0.0
C1434 C 0.30225 0.58389 0.02369 0.0
C1435 C 0.23694 0.58284 0.03628 0.0
C1436 C 0.19749 0.58297 0.03252 0.0
C1437 C 0.26288 0.58109 0.02018 0.0
C1438 C 0.18416 0.57983 0.01259 0.0
C1439 C 0.20973 0.57664 0.99657 0.0
H1440 H 0.10614 0.46597 0.79007 0.0
H1441 H 0.22922 0.46559 0.79107 0.0
H1442 H 0.23021 0.52332 0.77037 0.0
H1443 H 0.19587 0.57129 0.75029 0.0
H1444 H 0.07286 0.57446 0.75118 0.0
H1445 H 0.07182 0.51839 0.77316 0.0
C1446 C 0.13312 0.47874 0.7858 0.0
C1447 C 0.16759 0.46147 0.79173 0.0
C1448 C 0.13339 0.51229 0.77435 0.0
C1449 C 0.20241 0.47847 0.78656 0.0
C1450 C 0.20295 0.51134 0.77472 0.0
C1451 C 0.16888 0.55987 0.75551 0.0
C1452 C 0.13446 0.57652 0.74905 0.0
C1453 C 0.16862 0.52811 0.76829 0.0
C1454 C 0.09965 0.56203 0.75606 0.0
C1455 C 0.09909 0.5299 0.76848 0.0
H1456 H 0.25961 0.43242 0.46096 0.0
H1457 H 0.16445 0.46223 0.49866 0.0
H1458 H 0.20663 0.46573 0.52816 0.0
H1459 H 0.26997 0.45509 0.54369 0.0
H1460 H 0.36343 0.41855 0.50626 0.0
H1461 H 0.323 0.42293 0.47632 0.0
C1462 C 0.24848 0.44044 0.47559 0.0
C1463 C 0.20937 0.44767 0.47774 0.0
C1464 C 0.27258 0.44069 0.49259 0.0
C1465 C 0.19473 0.45701 0.49677 0.0
C1466 C 0.21875 0.4588 0.51361 0.0
C1467 C 0.28145 0.44853 0.52893 0.0
C1468 C 0.3195 0.43642 0.52717 0.0
C1469 C 0.25763 0.44992 0.5118 0.0
C1470 C 0.33405 0.4276 0.508 0.0
C1471 C 0.311 0.43018 0.49086 0.0
loop_
_geom_bond_atom_site_label_1
_geom_bond_atom_site_label_2
_geom_bond_distance
_geom_bond_site_symmetry_2
_ccdc_geom_bond_type
C0 O2 1.247 . S
C0 O4 1.258 . S
C1 O8 1.247 . S
C1 O9 1.258 . S
O2 C0 1.247 . S
O2 Zn3 2.028 . S
Zn3 O2 2.028 . S
Zn3 O7 2.035 . S
Zn3 O9 2.035 . S
Zn3 O10 2.028 . S
O4 C0 1.258 . S
O4 Zn5 2.035 . S
Zn5 O4 2.035 . S
Zn5 O6 2.028 . S
Zn5 O8 2.028 . S
Zn5 O11 2.035 . S
O6 Zn5 2.028 . S
O6 C12 1.247 . S
O7 Zn3 2.035 . S
O7 C12 1.258 . S
O8 C1 1.247 . S
O8 Zn5 2.028 . S
O9 C1 1.258 . S
O9 Zn3 2.035 . S
O10 Zn3 2.028 . S
O10 C13 1.247 . S
O11 Zn5 2.035 . S
O11 C13 1.258 . S
C12 O6 1.247 . S
C12 O7 1.258 . S
C13 O10 1.247 . S
C13 O11 1.258 . S
C14 O16 1.247 . S
C14 O18 1.258 . S
C15 O22 1.247 . S
C15 O23 1.258 . S
O16 C14 1.247 . S
O16 Zn17 2.028 . S
Zn17 O16 2.028 . S
Zn17 O21 2.035 . S
Zn17 O23 2.035 . S
Zn17 O24 2.028 . S
O18 C14 1.258 . S
O18 Zn19 2.035 . S
Zn19 O18 2.035 . S
Zn19 O20 2.028 . S
Zn19 O22 2.028 . S
Zn19 O25 2.035 . S
O20 Zn19 2.028 . S
O20 C26 1.247 . S
O21 Zn17 2.035 . S
O21 C26 1.258 . S
O22 C15 1.247 . S
O22 Zn19 2.028 . S
O23 C15 1.258 . S
O23 Zn17 2.035 . S
O24 Zn17 2.028 . S
O24 C27 1.247 . S
O25 Zn19 2.035 . S
O25 C27 1.258 . S
C26 O20 1.247 . S
C26 O21 1.258 . S
C27 O24 1.247 . S
C27 O25 1.258 . S
C28 O30 1.247 . S
C28 O32 1.258 . S
C29 O36 1.247 . S
C29 O37 1.258 . S
O30 C28 1.247 . S
O30 Zn31 2.028 . S
Zn31 O30 2.028 . S
Zn31 O35 2.035 . S
Zn31 O37 2.035 . S
Zn31 O38 2.028 . S
O32 C28 1.258 . S
O32 Zn33 2.035 . S
Zn33 O32 2.035 . S
Zn33 O34 2.028 . S
Zn33 O36 2.028 . S
Zn33 O39 2.035 . S
O34 Zn33 2.028 . S
O34 C40 1.247 . S
O35 Zn31 2.035 . S
O35 C40 1.258 . S
O36 C29 1.247 . S
O36 Zn33 2.028 . S
O37 C29 1.258 . S
O37 Zn31 2.035 . S
O38 Zn31 2.028 . S
O38 C41 1.247 . S
O39 Zn33 2.035 . S
O39 C41 1.258 . S
C40 O34 1.247 . S
C40 O35 1.258 . S
C41 O38 1.247 . S
C41 O39 1.258 . S
C42 O44 1.247 . S
C42 O46 1.258 . S
C43 O50 1.247 . S
C43 O51 1.258 . S
O44 C42 1.247 . S
O44 Zn45 2.028 . S
Zn45 O44 2.028 . S
Zn45 O49 2.035 . S
Zn45 O51 2.035 . S
Zn45 O52 2.028 . S
O46 C42 1.258 . S
O46 Zn47 2.035 . S
Zn47 O46 2.035 . S
Zn47 O48 2.028 . S
Zn47 O50 2.028 . S
Zn47 O53 2.035 . S
O48 Zn47 2.028 . S
O48 C54 1.247 . S
O49 Zn45 2.035 . S
O49 C54 1.258 . S
O50 C43 1.247 . S
O50 Zn47 2.028 . S
O51 C43 1.258 . S
O51 Zn45 2.035 . S
O52 Zn45 2.028 . S
O52 C55 1.247 . S
O53 Zn47 2.035 . S
O53 C55 1.258 . S
C54 O48 1.247 . S
C54 O49 1.258 . S
C55 O52 1.247 . S
C55 O53 1.258 . S
C56 O58 1.247 . S
C56 O60 1.258 . S
C57 O64 1.247 . S
C57 O65 1.258 . S
O58 C56 1.247 . S
O58 Zn59 2.028 . S
Zn59 O58 2.028 . S
Zn59 O63 2.035 . S
Zn59 O65 2.035 . S
Zn59 O66 2.028 . S
O60 C56 1.258 . S
O60 Zn61 2.035 . S
Zn61 O60 2.035 . S
Zn61 O62 2.028 . S
Zn61 O64 2.028 . S
Zn61 O67 2.035 . S
O62 Zn61 2.028 . S
O62 C68 1.247 . S
O63 Zn59 2.035 . S
O63 C68 1.258 . S
O64 C57 1.247 . S
O64 Zn61 2.028 . S
O65 C57 1.258 . S
O65 Zn59 2.035 . S
O66 Zn59 2.028 . S
O66 C69 1.247 . S
O67 Zn61 2.035 . S
O67 C69 1.258 . S
C68 O62 1.247 . S
C68 O63 1.258 . S
C69 O66 1.247 . S
C69 O67 1.258 . S
C70 O72 1.247 . S
C70 O74 1.258 . S
C71 O78 1.247 . S
C71 O79 1.258 . S
O72 C70 1.247 . S
O72 Zn73 2.028 . S
Zn73 O72 2.028 . S
Zn73 O77 2.035 . S
Zn73 O79 2.035 . S
Zn73 O80 2.028 . S
O74 C70 1.258 . S
O74 Zn75 2.035 . S
Zn75 O74 2.035 . S
Zn75 O76 2.028 . S
Zn75 O78 2.028 . S
Zn75 O81 2.035 . S
O76 Zn75 2.028 . S
O76 C82 1.247 . S
O77 Zn73 2.035 . S
O77 C82 1.258 . S
O78 C71 1.247 . S
O78 Zn75 2.028 . S
O79 C71 1.258 . S
O79 Zn73 2.035 . S
O80 Zn73 2.028 . S
O80 C83 1.247 . S
O81 Zn75 2.035 . S
O81 C83 1.258 . S
C82 O76 1.247 . S
C82 O77 1.258 . S
C83 O80 1.247 . S
C83 O81 1.258 . S
C84 O86 1.247 . S
C84 O88 1.258 . S
C85 O92 1.247 . S
C85 O93 1.258 . S
O86 C84 1.247 . S
O86 Zn87 2.028 . S
Zn87 O86 2.028 . S
Zn87 O91 2.035 . S
Zn87 O93 2.035 . S
Zn87 O94 2.028 . S
O88 C84 1.258 . S
O88 Zn89 2.035 . S
Zn89 O88 2.035 . S
Zn89 O90 2.028 . S
Zn89 O92 2.028 . S
Zn89 O95 2.035 . S
O90 Zn89 2.028 . S
O90 C96 1.247 . S
O91 Zn87 2.035 . S
O91 C96 1.258 . S
O92 C85 1.247 . S
O92 Zn89 2.028 . S
O93 C85 1.258 . S
O93 Zn87 2.035 . S
O94 Zn87 2.028 . S
O94 C97 1.247 . S
O95 Zn89 2.035 . S
O95 C97 1.258 . S
C96 O90 1.247 . S
C96 O91 1.258 . S
C97 O94 1.247 . S
C97 O95 1.258 . S
C98 O100 1.247 . S
C98 O102 1.258 . S
C99 O106 1.247 . S
C99 O107 1.258 . S
O100 C98 1.247 . S
O100 Zn101 2.028 . S
Zn101 O100 2.028 . S
Zn101 O105 2.035 . S
Zn101 O107 2.035 . S
Zn101 O108 2.028 . S
O102 C98 1.258 . S
O102 Zn103 2.035 . S
Zn103 O102 2.035 . S
Zn103 O104 2.028 . S
Zn103 O106 2.028 . S
Zn103 O109 2.035 . S
O104 Zn103 2.028 . S
O104 C110 1.247 . S
O105 Zn101 2.035 . S
O105 C110 1.258 . S
O106 C99 1.247 . S
O106 Zn103 2.028 . S
O107 C99 1.258 . S
O107 Zn101 2.035 . S
O108 Zn101 2.028 . S
O108 C111 1.247 . S
O109 Zn103 2.035 . S
O109 C111 1.258 . S
C110 O104 1.247 . S
C110 O105 1.258 . S
C111 O108 1.247 . S
C111 O109 1.258 . S
C112 O114 1.247 . S
C112 O116 1.258 . S
C113 O120 1.247 . S
C113 O121 1.258 . S
O114 C112 1.247 . S
O114 Zn115 2.028 . S
Zn115 O114 2.028 . S
Zn115 O119 2.035 . S
Zn115 O121 2.035 . S
Zn115 O122 2.028 . S
O116 C112 1.258 . S
O116 Zn117 2.035 . S
Zn117 O116 2.035 . S
Zn117 O118 2.028 . S
Zn117 O120 2.028 . S
Zn117 O123 2.035 . S
O118 Zn117 2.028 . S
O118 C124 1.247 . S
O119 Zn115 2.035 . S
O119 C124 1.258 . S
O120 C113 1.247 . S
O120 Zn117 2.028 . S
O121 C113 1.258 . S
O121 Zn115 2.035 . S
O122 Zn115 2.028 . S
O122 C125 1.247 . S
O123 Zn117 2.035 . S
O123 C125 1.258 . S
C124 O118 1.247 . S
C124 O119 1.258 . S
C125 O122 1.247 . S
C125 O123 1.258 . S
C126 O128 1.247 . S
C126 O130 1.258 . S
C127 O134 1.247 . S
C127 O135 1.258 . S
O128 C126 1.247 . S
O128 Zn129 2.028 . S
Zn129 O128 2.028 . S
Zn129 O133 2.035 . S
Zn129 O135 2.035 . S
Zn129 O136 2.028 . S
O130 C126 1.258 . S
O130 Zn131 2.035 . S
Zn131 O130 2.035 . S
Zn131 O132 2.028 . S
Zn131 O134 2.028 . S
Zn131 O137 2.035 . S
O132 Zn131 2.028 . S
O132 C138 1.247 . S
O133 Zn129 2.035 . S
O133 C138 1.258 . S
O134 C127 1.247 . S
O134 Zn131 2.028 . S
O135 C127 1.258 . S
O135 Zn129 2.035 . S
O136 Zn129 2.028 . S
O136 C139 1.247 . S
O137 Zn131 2.035 . S
O137 C139 1.258 . S
C138 O132 1.247 . S
C138 O133 1.258 . S
C139 O136 1.247 . S
C139 O137 1.258 . S
C140 O142 1.247 . S
C140 O144 1.258 . S
C141 O148 1.247 . S
C141 O149 1.258 . S
O142 C140 1.247 . S
O142 Zn143 2.028 . S
Zn143 O142 2.028 . S
Zn143 O147 2.035 . S
Zn143 O149 2.035 . S
Zn143 O150 2.028 . S
O144 C140 1.258 . S
O144 Zn145 2.035 . S
Zn145 O144 2.035 . S
Zn145 O146 2.028 . S
Zn145 O148 2.028 . S
Zn145 O151 2.035 . S
O146 Zn145 2.028 . S
O146 C152 1.247 . S
O147 Zn143 2.035 . S
O147 C152 1.258 . S
O148 C141 1.247 . S
O148 Zn145 2.028 . S
O149 C141 1.258 . S
O149 Zn143 2.035 . S
O150 Zn143 2.028 . S
O150 C153 1.247 . S
O151 Zn145 2.035 . S
O151 C153 1.258 . S
C152 O146 1.247 . S
C152 O147 1.258 . S
C153 O150 1.247 . S
C153 O151 1.258 . S
C154 O156 1.247 . S
C154 O158 1.258 . S
C155 O162 1.247 . S
C155 O163 1.258 . S
O156 C154 1.247 . S
O156 Zn157 2.028 . S
Zn157 O156 2.028 . S
Zn157 O161 2.035 . S
Zn157 O163 2.035 . S
Zn157 O164 2.028 . S
O158 C154 1.258 . S
O158 Zn159 2.035 . S
Zn159 O158 2.035 . S
Zn159 O160 2.028 . S
Zn159 O162 2.028 . S
Zn159 O165 2.035 . S
O160 Zn159 2.028 . S
O160 C166 1.247 . S
O161 Zn157 2.035 . S
O161 C166 1.258 . S
O162 C155 1.247 . S
O162 Zn159 2.028 . S
O163 C155 1.258 . S
O163 Zn157 2.035 . S
O164 Zn157 2.028 . S
O164 C167 1.247 . S
O165 Zn159 2.035 . S
O165 C167 1.258 . S
C166 O160 1.247 . S
C166 O161 1.258 . S
C167 O164 1.247 . S
C167 O165 1.258 . S
C168 O170 1.247 . S
C168 O172 1.258 . S
C169 O176 1.247 . S
C169 O177 1.258 . S
O170 C168 1.247 . S
O170 Zn171 2.028 . S
Zn171 O170 2.028 . S
Zn171 O175 2.035 . S
Zn171 O177 2.035 . S
Zn171 O178 2.028 . S
O172 C168 1.258 . S
O172 Zn173 2.035 . S
Zn173 O172 2.035 . S
Zn173 O174 2.028 . S
Zn173 O176 2.028 . S
Zn173 O179 2.035 . S
O174 Zn173 2.028 . S
O174 C180 1.247 . S
O175 Zn171 2.035 . S
O175 C180 1.258 . S
O176 C169 1.247 . S
O176 Zn173 2.028 . S
O177 C169 1.258 . S
O177 Zn171 2.035 . S
O178 Zn171 2.028 . S
O178 C181 1.247 . S
O179 Zn173 2.035 . S
O179 C181 1.258 . S
C180 O174 1.247 . S
C180 O175 1.258 . S
C181 O178 1.247 . S
C181 O179 1.258 . S
C182 O184 1.247 . S
C182 O186 1.258 . S
C183 O190 1.247 . S
C183 O191 1.258 . S
O184 C182 1.247 . S
O184 Zn185 2.028 . S
Zn185 O184 2.028 . S
Zn185 O189 2.035 . S
Zn185 O191 2.035 . S
Zn185 O192 2.028 . S
O186 C182 1.258 . S
O186 Zn187 2.035 . S
Zn187 O186 2.035 . S
Zn187 O188 2.028 . S
Zn187 O190 2.028 . S
Zn187 O193 2.035 . S
O188 Zn187 2.028 . S
O188 C194 1.247 . S
O189 Zn185 2.035 . S
O189 C194 1.258 . S
O190 C183 1.247 . S
O190 Zn187 2.028 . S
O191 C183 1.258 . S
O191 Zn185 2.035 . S
O192 Zn185 2.028 . S
O192 C195 1.247 . S
O193 Zn187 2.035 . S
O193 C195 1.258 . S
C194 O188 1.247 . S
C194 O189 1.258 . S
C195 O192 1.247 . S
C195 O193 1.258 . S
C196 O198 1.247 . S
C196 O200 1.258 . S
C197 O204 1.247 . S
C197 O205 1.258 . S
O198 C196 1.247 . S
O198 Zn199 2.028 . S
Zn199 O198 2.028 . S
Zn199 O203 2.035 . S
Zn199 O205 2.035 . S
Zn199 O206 2.028 . S
O200 C196 1.258 . S
O200 Zn201 2.035 . S
Zn201 O200 2.035 . S
Zn201 O202 2.028 . S
Zn201 O204 2.028 . S
Zn201 O207 2.035 . S
O202 Zn201 2.028 . S
O202 C208 1.247 . S
O203 Zn199 2.035 . S
O203 C208 1.258 . S
O204 C197 1.247 . S
O204 Zn201 2.028 . S
O205 C197 1.258 . S
O205 Zn199 2.035 . S
O206 Zn199 2.028 . S
O206 C209 1.247 . S
O207 Zn201 2.035 . S
O207 C209 1.258 . S
C208 O202 1.247 . S
C208 O203 1.258 . S
C209 O206 1.247 . S
C209 O207 1.258 . S
C210 O212 1.247 . S
C210 O214 1.258 . S
C211 O218 1.247 . S
C211 O219 1.258 . S
O212 C210 1.247 . S
O212 Zn213 2.028 . S
Zn213 O212 2.028 . S
Zn213 O217 2.035 . S
Zn213 O219 2.035 . S
Zn213 O220 2.028 . S
O214 C210 1.258 . S
O214 Zn215 2.035 . S
Zn215 O214 2.035 . S
Zn215 O216 2.028 . S
Zn215 O218 2.028 . S
Zn215 O221 2.035 . S
O216 Zn215 2.028 . S
O216 C222 1.247 . S
O217 Zn213 2.035 . S
O217 C222 1.258 . S
O218 C211 1.247 . S
O218 Zn215 2.028 . S
O219 C211 1.258 . S
O219 Zn213 2.035 . S
O220 Zn213 2.028 . S
O220 C223 1.247 . S
O221 Zn215 2.035 . S
O221 C223 1.258 . S
C222 O216 1.247 . S
C222 O217 1.258 . S
C223 O220 1.247 . S
C223 O221 1.258 . S
C224 O226 1.247 . S
C224 O228 1.258 . S
C225 O232 1.247 . S
C225 O233 1.258 . S
O226 C224 1.247 . S
O226 Zn227 2.028 . S
Zn227 O226 2.028 . S
Zn227 O231 2.035 . S
Zn227 O233 2.035 . S
Zn227 O234 2.028 . S
O228 C224 1.258 . S
O228 Zn229 2.035 . S
Zn229 O228 2.035 . S
Zn229 O230 2.028 . S
Zn229 O232 2.028 . S
Zn229 O235 2.035 . S
O230 Zn229 2.028 . S
O230 C236 1.247 . S
O231 Zn227 2.035 . S
O231 C236 1.258 . S
O232 C225 1.247 . S
O232 Zn229 2.028 . S
O233 C225 1.258 . S
O233 Zn227 2.035 . S
O234 Zn227 2.028 . S
O234 C237 1.247 . S
O235 Zn229 2.035 . S
O235 C237 1.258 . S
C236 O230 1.247 . S
C236 O231 1.258 . S
C237 O234 1.247 . S
C237 O235 1.258 . S
C238 O240 1.247 . S
C238 O242 1.258 . S
C239 O246 1.247 . S
C239 O247 1.258 . S
O240 C238 1.247 . S
O240 Zn241 2.028 . S
Zn241 O240 2.028 . S
Zn241 O245 2.035 . S
Zn241 O247 2.035 . S
Zn241 O248 2.028 . S
O242 C238 1.258 . S
O242 Zn243 2.035 . S
Zn243 O242 2.035 . S
Zn243 O244 2.028 . S
Zn243 O246 2.028 . S
Zn243 O249 2.035 . S
O244 Zn243 2.028 . S
O244 C250 1.247 . S
O245 Zn241 2.035 . S
O245 C250 1.258 . S
O246 C239 1.247 . S
O246 Zn243 2.028 . S
O247 C239 1.258 . S
O247 Zn241 2.035 . S
O248 Zn241 2.028 . S
O248 C251 1.247 . S
O249 Zn243 2.035 . S
O249 C251 1.258 . S
C250 O244 1.247 . S
C250 O245 1.258 . S
C251 O248 1.247 . S
C251 O249 1.258 . S
C252 O254 1.247 . S
C252 O256 1.258 . S
C253 O260 1.247 . S
C253 O261 1.258 . S
O254 C252 1.247 . S
O254 Zn255 2.028 . S
Zn255 O254 2.028 . S
Zn255 O259 2.035 . S
Zn255 O261 2.035 . S
Zn255 O262 2.028 . S
O256 C252 1.258 . S
O256 Zn257 2.035 . S
Zn257 O256 2.035 . S
Zn257 O258 2.028 . S
Zn257 O260 2.028 . S
Zn257 O263 2.035 . S
O258 Zn257 2.028 . S
O258 C264 1.247 . S
O259 Zn255 2.035 . S
O259 C264 1.258 . S
O260 C253 1.247 . S
O260 Zn257 2.028 . S
O261 C253 1.258 . S
O261 Zn255 2.035 . S
O262 Zn255 2.028 . S
O262 C265 1.247 . S
O263 Zn257 2.035 . S
O263 C265 1.258 . S
C264 O258 1.247 . S
C264 O259 1.258 . S
C265 O262 1.247 . S
C265 O263 1.258 . S
C266 O268 1.247 . S
C266 O270 1.258 . S
C267 O274 1.247 . S
C267 O275 1.258 . S
O268 C266 1.247 . S
O268 Zn269 2.028 . S
Zn269 O268 2.028 . S
Zn269 O273 2.035 . S
Zn269 O275 2.035 . S
Zn269 O276 2.028 . S
O270 C266 1.258 . S
O270 Zn271 2.035 . S
Zn271 O270 2.035 . S
Zn271 O272 2.028 . S
Zn271 O274 2.028 . S
Zn271 O277 2.035 . S
O272 Zn271 2.028 . S
O272 C278 1.247 . S
O273 Zn269 2.035 . S
O273 C278 1.258 . S
O274 C267 1.247 . S
O274 Zn271 2.028 . S
O275 C267 1.258 . S
O275 Zn269 2.035 . S
O276 Zn269 2.028 . S
O276 C279 1.247 . S
O277 Zn271 2.035 . S
O277 C279 1.258 . S
C278 O272 1.247 . S
C278 O273 1.258 . S
C279 O276 1.247 . S
C279 O277 1.258 . S
C280 O282 1.247 . S
C280 O284 1.258 . S
C281 O288 1.247 . S
C281 O289 1.258 . S
O282 C280 1.247 . S
O282 Zn283 2.028 . S
Zn283 O282 2.028 . S
Zn283 O287 2.035 . S
Zn283 O289 2.035 . S
Zn283 O290 2.028 . S
O284 C280 1.258 . S
O284 Zn285 2.035 . S
Zn285 O284 2.035 . S
Zn285 O286 2.028 . S
Zn285 O288 2.028 . S
Zn285 O291 2.035 . S
O286 Zn285 2.028 . S
O286 C292 1.247 . S
O287 Zn283 2.035 . S
O287 C292 1.258 . S
O288 C281 1.247 . S
O288 Zn285 2.028 . S
O289 C281 1.258 . S
O289 Zn283 2.035 . S
O290 Zn283 2.028 . S
O290 C293 1.247 . S
O291 Zn285 2.035 . S
O291 C293 1.258 . S
C292 O286 1.247 . S
C292 O287 1.258 . S
C293 O290 1.247 . S
C293 O291 1.258 . S
C294 O296 1.247 . S
C294 O298 1.258 . S
C295 O302 1.247 . S
C295 O303 1.258 . S
O296 C294 1.247 . S
O296 Zn297 2.028 . S
Zn297 O296 2.028 . S
Zn297 O301 2.035 . S
Zn297 O303 2.035 . S
Zn297 O304 2.028 . S
O298 C294 1.258 . S
O298 Zn299 2.035 . S
Zn299 O298 2.035 . S
Zn299 O300 2.028 . S
Zn299 O302 2.028 . S
Zn299 O305 2.035 . S
O300 Zn299 2.028 . S
O300 C306 1.247 . S
O301 Zn297 2.035 . S
O301 C306 1.258 . S
O302 C295 1.247 . S
O302 Zn299 2.028 . S
O303 C295 1.258 . S
O303 Zn297 2.035 . S
O304 Zn297 2.028 . S
O304 C307 1.247 . S
O305 Zn299 2.035 . S
O305 C307 1.258 . S
C306 O300 1.247 . S
C306 O301 1.258 . S
C307 O304 1.247 . S
C307 O305 1.258 . S
C308 O310 1.247 . S
C308 O312 1.258 . S
C309 O316 1.247 . S
C309 O317 1.258 . S
O310 C308 1.247 . S
O310 Zn311 2.028 . S
Zn311 O310 2.028 . S
Zn311 O315 2.035 . S
Zn311 O317 2.035 . S
Zn311 O318 2.028 . S
O312 C308 1.258 . S
O312 Zn313 2.035 . S
Zn313 O312 2.035 . S
Zn313 O314 2.028 . S
Zn313 O316 2.028 . S
Zn313 O319 2.035 . S
O314 Zn313 2.028 . S
O314 C320 1.247 . S
O315 Zn311 2.035 . S
O315 C320 1.258 . S
O316 C309 1.247 . S
O316 Zn313 2.028 . S
O317 C309 1.258 . S
O317 Zn311 2.035 . S
O318 Zn311 2.028 . S
O318 C321 1.247 . S
O319 Zn313 2.035 . S
O319 C321 1.258 . S
C320 O314 1.247 . S
C320 O315 1.258 . S
C321 O318 1.247 . S
C321 O319 1.258 . S
C322 O324 1.247 . S
C322 O326 1.258 . S
C323 O330 1.247 . S
C323 O331 1.258 . S
O324 C322 1.247 . S
O324 Zn325 2.028 . S
Zn325 O324 2.028 . S
Zn325 O329 2.035 . S
Zn325 O331 2.035 . S
Zn325 O332 2.028 . S
O326 C322 1.258 . S
O326 Zn327 2.035 . S
Zn327 O326 2.035 . S
Zn327 O328 2.028 . S
Zn327 O330 2.028 . S
Zn327 O333 2.035 . S
O328 Zn327 2.028 . S
O328 C334 1.247 . S
O329 Zn325 2.035 . S
O329 C334 1.258 . S
O330 C323 1.247 . S
O330 Zn327 2.028 . S
O331 C323 1.258 . S
O331 Zn325 2.035 . S
O332 Zn325 2.028 . S
O332 C335 1.247 . S
O333 Zn327 2.035 . S
O333 C335 1.258 . S
C334 O328 1.247 . S
C334 O329 1.258 . S
C335 O332 1.247 . S
C335 O333 1.258 . S
C336 O338 1.247 . S
C336 O340 1.258 . S
C337 O344 1.247 . S
C337 O345 1.258 . S
O338 C336 1.247 . S
O338 Zn339 2.028 . S
Zn339 O338 2.028 . S
Zn339 O343 2.035 . S
Zn339 O345 2.035 . S
Zn339 O346 2.028 . S
O340 C336 1.258 . S
O340 Zn341 2.035 . S
Zn341 O340 2.035 . S
Zn341 O342 2.028 . S
Zn341 O344 2.028 . S
Zn341 O347 2.035 . S
O342 Zn341 2.028 . S
O342 C348 1.247 . S
O343 Zn339 2.035 . S
O343 C348 1.258 . S
O344 C337 1.247 . S
O344 Zn341 2.028 . S
O345 C337 1.258 . S
O345 Zn339 2.035 . S
O346 Zn339 2.028 . S
O346 C349 1.247 . S
O347 Zn341 2.035 . S
O347 C349 1.258 . S
C348 O342 1.247 . S
C348 O343 1.258 . S
C349 O346 1.247 . S
C349 O347 1.258 . S
C350 O352 1.247 . S
C350 O354 1.258 . S
C351 O358 1.247 . S
C351 O359 1.258 . S
O352 C350 1.247 . S
O352 Zn353 2.028 . S
Zn353 O352 2.028 . S
Zn353 O357 2.035 . S
Zn353 O359 2.035 . S
Zn353 O360 2.028 . S
O354 C350 1.258 . S
O354 Zn355 2.035 . S
Zn355 O354 2.035 . S
Zn355 O356 2.028 . S
Zn355 O358 2.028 . S
Zn355 O361 2.035 . S
O356 Zn355 2.028 . S
O356 C362 1.247 . S
O357 Zn353 2.035 . S
O357 C362 1.258 . S
O358 C351 1.247 . S
O358 Zn355 2.028 . S
O359 C351 1.258 . S
O359 Zn353 2.035 . S
O360 Zn353 2.028 . S
O360 C363 1.247 . S
O361 Zn355 2.035 . S
O361 C363 1.258 . S
C362 O356 1.247 . S
C362 O357 1.258 . S
C363 O360 1.247 . S
C363 O361 1.258 . S
C364 O366 1.247 . S
C364 O368 1.258 . S
C365 O372 1.247 . S
C365 O373 1.258 . S
O366 C364 1.247 . S
O366 Zn367 2.028 . S
Zn367 O366 2.028 . S
Zn367 O371 2.035 . S
Zn367 O373 2.035 . S
Zn367 O374 2.028 . S
O368 C364 1.258 . S
O368 Zn369 2.035 . S
Zn369 O368 2.035 . S
Zn369 O370 2.028 . S
Zn369 O372 2.028 . S
Zn369 O375 2.035 . S
O370 Zn369 2.028 . S
O370 C376 1.247 . S
O371 Zn367 2.035 . S
O371 C376 1.258 . S
O372 C365 1.247 . S
O372 Zn369 2.028 . S
O373 C365 1.258 . S
O373 Zn367 2.035 . S
O374 Zn367 2.028 . S
O374 C377 1.247 . S
O375 Zn369 2.035 . S
O375 C377 1.258 . S
C376 O370 1.247 . S
C376 O371 1.258 . S
C377 O374 1.247 . S
C377 O375 1.258 . S
C378 O380 1.247 . S
C378 O382 1.258 . S
C379 O386 1.247 . S
C379 O387 1.258 . S
O380 C378 1.247 . S
O380 Zn381 2.028 . S
Zn381 O380 2.028 . S
Zn381 O385 2.035 . S
Zn381 O387 2.035 . S
Zn381 O388 2.028 . S
O382 C378 1.258 . S
O382 Zn383 2.035 . S
Zn383 O382 2.035 . S
Zn383 O384 2.028 . S
Zn383 O386 2.028 . S
Zn383 O389 2.035 . S
O384 Zn383 2.028 . S
O384 C390 1.247 . S
O385 Zn381 2.035 . S
O385 C390 1.258 . S
O386 C379 1.247 . S
O386 Zn383 2.028 . S
O387 C379 1.258 . S
O387 Zn381 2.035 . S
O388 Zn381 2.028 . S
O388 C391 1.247 . S
O389 Zn383 2.035 . S
O389 C391 1.258 . S
C390 O384 1.247 . S
C390 O385 1.258 . S
C391 O388 1.247 . S
C391 O389 1.258 . S
C392 O394 1.247 . S
C392 O396 1.258 . S
C393 O400 1.247 . S
C393 O401 1.258 . S
O394 C392 1.247 . S
O394 Zn395 2.028 . S
Zn395 O394 2.028 . S
Zn395 O399 2.035 . S
Zn395 O401 2.035 . S
Zn395 O402 2.028 . S
O396 C392 1.258 . S
O396 Zn397 2.035 . S
Zn397 O396 2.035 . S
Zn397 O398 2.028 . S
Zn397 O400 2.028 . S
Zn397 O403 2.035 . S
O398 Zn397 2.028 . S
O398 C404 1.247 . S
O399 Zn395 2.035 . S
O399 C404 1.258 . S
O400 C393 1.247 . S
O400 Zn397 2.028 . S
O401 C393 1.258 . S
O401 Zn395 2.035 . S
O402 Zn395 2.028 . S
O402 C405 1.247 . S
O403 Zn397 2.035 . S
O403 C405 1.258 . S
C404 O398 1.247 . S
C404 O399 1.258 . S
C405 O402 1.247 . S
C405 O403 1.258 . S
C406 O408 1.247 . S
C406 O410 1.258 . S
C407 O414 1.247 . S
C407 O415 1.258 . S
O408 C406 1.247 . S
O408 Zn409 2.028 . S
Zn409 O408 2.028 . S
Zn409 O413 2.035 . S
Zn409 O415 2.035 . S
Zn409 O416 2.028 . S
O410 C406 1.258 . S
O410 Zn411 2.035 . S
Zn411 O410 2.035 . S
Zn411 O412 2.028 . S
Zn411 O414 2.028 . S
Zn411 O417 2.035 . S
O412 Zn411 2.028 . S
O412 C418 1.247 . S
O413 Zn409 2.035 . S
O413 C418 1.258 . S
O414 C407 1.247 . S
O414 Zn411 2.028 . S
O415 C407 1.258 . S
O415 Zn409 2.035 . S
O416 Zn409 2.028 . S
O416 C419 1.247 . S
O417 Zn411 2.035 . S
O417 C419 1.258 . S
C418 O412 1.247 . S
C418 O413 1.258 . S
C419 O416 1.247 . S
C419 O417 1.258 . S
C420 O422 1.247 . S
C420 O424 1.258 . S
C421 O428 1.247 . S
C421 O429 1.258 . S
O422 C420 1.247 . S
O422 Zn423 2.028 . S
Zn423 O422 2.028 . S
Zn423 O427 2.035 . S
Zn423 O429 2.035 . S
Zn423 O430 2.028 . S
O424 C420 1.258 . S
O424 Zn425 2.035 . S
Zn425 O424 2.035 . S
Zn425 O426 2.028 . S
Zn425 O428 2.028 . S
Zn425 O431 2.035 . S
O426 Zn425 2.028 . S
O426 C432 1.247 . S
O427 Zn423 2.035 . S
O427 C432 1.258 . S
O428 C421 1.247 . S
O428 Zn425 2.028 . S
O429 C421 1.258 . S
O429 Zn423 2.035 . S
O430 Zn423 2.028 . S
O430 C433 1.247 . S
O431 Zn425 2.035 . S
O431 C433 1.258 . S
C432 O426 1.247 . S
C432 O427 1.258 . S
C433 O430 1.247 . S
C433 O431 1.258 . S
C434 O436 1.247 . S
C434 O438 1.258 . S
C435 O442 1.247 . S
C435 O443 1.258 . S
O436 C434 1.247 . S
O436 Zn437 2.028 . S
Zn437 O436 2.028 . S
Zn437 O441 2.035 . S
Zn437 O443 2.035 . S
Zn437 O444 2.028 . S
O438 C434 1.258 . S
O438 Zn439 2.035 . S
Zn439 O438 2.035 . S
Zn439 O440 2.028 . S
Zn439 O442 2.028 . S
Zn439 O445 2.035 . S
O440 Zn439 2.028 . S
O440 C446 1.247 . S
O441 Zn437 2.035 . S
O441 C446 1.258 . S
O442 C435 1.247 . S
O442 Zn439 2.028 . S
O443 C435 1.258 . S
O443 Zn437 2.035 . S
O444 Zn437 2.028 . S
O444 C447 1.247 . S
O445 Zn439 2.035 . S
O445 C447 1.258 . S
C446 O440 1.247 . S
C446 O441 1.258 . S
C447 O444 1.247 . S
C447 O445 1.258 . S
H448 C454 0.930 . S
H449 C457 0.930 . S
H450 C458 0.930 . S
H451 C459 0.930 . S
H452 C462 0.930 . S
H453 C463 0.930 . S
C454 H448 0.930 . S
C454 C455 1.355 . S
C454 C456 1.415 . S
C455 C454 1.355 . S
C455 C457 1.419 . S
C456 C454 1.415 . S
C456 C461 1.425 . S
C456 C463 1.409 . S
C457 H449 0.930 . S
C457 C455 1.419 . S
C457 C458 1.362 . S
C458 H450 0.930 . S
C458 C457 1.362 . S
C458 C461 1.409 . S
C459 H451 0.930 . S
C459 C460 1.355 . S
C459 C461 1.415 . S
C460 C459 1.355 . S
C460 C462 1.419 . S
C461 C456 1.425 . S
C461 C458 1.409 . S
C461 C459 1.415 . S
C462 H452 0.930 . S
C462 C460 1.419 . S
C462 C463 1.362 . S
C463 H453 0.930 . S
C463 C456 1.409 . S
C463 C462 1.362 . S
H464 C470 0.930 . S
H465 C473 0.930 . S
H466 C474 0.930 . S
H467 C475 0.930 . S
H468 C478 0.930 . S
H469 C479 0.930 . S
C470 H464 0.930 . S
C470 C471 1.355 . S
C470 C472 1.415 1_455 S
C471 C470 1.355 . S
C471 C473 1.419 1_455 S
C472 C470 1.415 1_655 S
C472 C477 1.425 . S
C472 C479 1.409 . S
C473 H465 0.930 . S
C473 C471 1.419 1_655 S
C473 C474 1.362 . S
C474 H466 0.930 . S
C474 C473 1.362 . S
C474 C477 1.409 . S
C475 H467 0.930 . S
C475 C476 1.355 . S
C475 C477 1.415 . S
C476 C475 1.355 . S
C476 C478 1.419 . S
C477 C472 1.425 . S
C477 C474 1.409 . S
C477 C475 1.415 . S
C478 H468 0.930 . S
C478 C476 1.419 . S
C478 C479 1.362 . S
C479 H469 0.930 . S
C479 C472 1.409 . S
C479 C478 1.362 . S
H480 C486 0.930 . S
H481 C489 0.930 . S
H482 C490 0.930 . S
H483 C491 0.930 . S
H484 C494 0.930 . S
H485 C495 0.930 . S
C486 H480 0.930 . S
C486 C487 1.355 . S
C486 C488 1.415 . S
C487 C486 1.355 . S
C487 C489 1.419 . S
C488 C486 1.415 . S
C488 C493 1.425 . S
C488 C495 1.409 . S
C489 H481 0.930 . S
C489 C487 1.419 . S
C489 C490 1.362 . S
C490 H482 0.930 . S
C490 C489 1.362 . S
C490 C493 1.409 . S
C491 H483 0.930 . S
C491 C492 1.355 . S
C491 C493 1.415 . S
C492 C491 1.355 . S
C492 C494 1.419 . S
C493 C488 1.425 . S
C493 C490 1.409 . S
C493 C491 1.415 . S
C494 H484 0.930 . S
C494 C492 1.419 . S
C494 C495 1.362 . S
C495 H485 0.930 . S
C495 C488 1.409 . S
C495 C494 1.362 . S
H496 C502 0.930 . S
H497 C505 0.930 . S
H498 C506 0.930 . S
H499 C507 0.930 . S
H500 C510 0.930 . S
H501 C511 0.930 . S
C502 H496 0.930 . S
C502 C503 1.355 . S
C502 C504 1.415 . S
C503 C502 1.355 . S
C503 C505 1.419 . S
C504 C502 1.415 . S
C504 C509 1.425 . S
C504 C511 1.409 . S
C505 H497 0.930 . S
C505 C503 1.419 . S
C505 C506 1.362 . S
C506 H498 0.930 . S
C506 C505 1.362 . S
C506 C509 1.409 . S
C507 H499 0.930 . S
C507 C508 1.355 . S
C507 C509 1.415 . S
C508 C507 1.355 . S
C508 C510 1.419 . S
C509 C504 1.425 . S
C509 C506 1.409 . S
C509 C507 1.415 . S
C510 H500 0.930 . S
C510 C508 1.419 . S
C510 C511 1.362 . S
C511 H501 0.930 . S
C511 C504 1.409 . S
C511 C510 1.362 . S
H512 C518 0.930 . S
H513 C521 0.930 . S
H514 C522 0.930 . S
H515 C523 0.930 . S
H516 C526 0.930 . S
H517 C527 0.930 . S
C518 H512 0.930 . S
C518 C519 1.355 . S
C518 C520 1.415 . S
C519 C518 1.355 . S
C519 C521 1.419 . S
C520 C518 1.415 . S
C520 C525 1.425 . S
C520 C527 1.409 . S
C521 H513 0.930 . S
C521 C519 1.419 . S
C521 C522 1.362 . S
C522 H514 0.930 . S
C522 C521 1.362 . S
C522 C525 1.409 . S
C523 H515 0.930 . S
C523 C524 1.355 . S
C523 C525 1.415 . S
C524 C523 1.355 . S
C524 C526 1.419 . S
C525 C520 1.425 . S
C525 C522 1.409 . S
C525 C523 1.415 . S
C526 H516 0.930 . S
C526 C524 1.419 . S
C526 C527 1.362 . S
C527 H517 0.930 . S
C527 C520 1.409 . S
C527 C526 1.362 . S
H528 C534 0.930 . S
H529 C537 0.930 . S
H530 C538 0.930 . S
H531 C539 0.930 . S
H532 C542 0.930 . S
H533 C543 0.930 . S
C534 H528 0.930 . S
C534 C535 1.355 . S
C534 C536 1.415 . S
C535 C534 1.355 . S
C535 C537 1.419 . S
C536 C534 1.415 . S
C536 C541 1.425 . S
C536 C543 1.409 . S
C537 H529 0.930 . S
C537 C535 1.419 . S
C537 C538 1.362 . S
C538 H530 0.930 . S
C538 C537 1.362 . S
C538 C541 1.409 . S
C539 H531 0.930 . S
C539 C540 1.355 . S
C539 C541 1.415 . S
C540 C539 1.355 . S
C540 C542 1.419 . S
C541 C536 1.425 . S
C541 C538 1.409 . S
C541 C539 1.415 . S
C542 H532 0.930 . S
C542 C540 1.419 . S
C542 C543 1.362 . S
C543 H533 0.930 . S
C543 C536 1.409 . S
C543 C542 1.362 . S
H544 C550 0.930 . S
H545 C553 0.930 . S
H546 C554 0.930 . S
H547 C555 0.930 . S
H548 C558 0.930 . S
H549 C559 0.930 . S
C550 H544 0.930 . S
C550 C551 1.355 . S
C550 C552 1.415 . S
C551 C550 1.355 . S
C551 C553 1.419 . S
C552 C550 1.415 . S
C552 C557 1.425 . S
C552 C559 1.409 . S
C553 H545 0.930 . S
C553 C551 1.419 . S
C553 C554 1.362 . S
C554 H546 0.930 . S
C554 C553 1.362 . S
C554 C557 1.409 . S
C555 H547 0.930 . S
C555 C556 1.355 . S
C555 C557 1.415 . S
C556 C555 1.355 . S
C556 C558 1.419 . S
C557 C552 1.425 . S
C557 C554 1.409 . S
C557 C555 1.415 . S
C558 H548 0.930 . S
C558 C556 1.419 . S
C558 C559 1.362 . S
C559 H549 0.930 . S
C559 C552 1.409 . S
C559 C558 1.362 . S
H560 C566 0.930 . S
H561 C569 0.930 . S
H562 C570 0.932 . S
H563 C571 0.930 . S
H564 C574 0.930 . S
H565 C575 0.930 . S
C566 H560 0.930 . S
C566 C567 1.355 1_655 S
C566 C568 1.415 . S
C567 C566 1.355 1_455 S
C567 C569 1.419 . S
C568 C566 1.415 . S
C568 C573 1.425 . S
C568 C575 1.409 . S
C569 H561 0.930 . S
C569 C567 1.419 . S
C569 C570 1.362 1_455 S
C570 H562 0.932 . S
C570 C569 1.362 1_655 S
C570 C573 1.409 . S
C571 H563 0.930 . S
C571 C572 1.355 . S
C571 C573 1.415 . S
C572 C571 1.355 . S
C572 C574 1.419 . S
C573 C568 1.425 . S
C573 C570 1.409 . S
C573 C571 1.415 . S
C574 H564 0.930 . S
C574 C572 1.419 . S
C574 C575 1.362 . S
C575 H565 0.930 . S
C575 C568 1.409 . S
C575 C574 1.362 . S
H576 C582 0.930 . S
H577 C585 0.930 . S
H578 C586 0.930 . S
H579 C587 0.930 . S
H580 C590 0.930 . S
H581 C591 0.930 . S
C582 H576 0.930 . S
C582 C583 1.355 . S
C582 C584 1.415 . S
C583 C582 1.355 . S
C583 C585 1.419 . S
C584 C582 1.415 . S
C584 C589 1.425 . S
C584 C591 1.409 . S
C585 H577 0.930 . S
C585 C583 1.419 . S
C585 C586 1.362 . S
C586 H578 0.930 . S
C586 C585 1.362 . S
C586 C589 1.409 . S
C587 H579 0.930 . S
C587 C588 1.355 . S
C587 C589 1.415 . S
C588 C587 1.355 . S
C588 C590 1.419 . S
C589 C584 1.425 . S
C589 C586 1.409 . S
C589 C587 1.415 . S
C590 H580 0.930 . S
C590 C588 1.419 . S
C590 C591 1.362 . S
C591 H581 0.930 . S
C591 C584 1.409 . S
C591 C590 1.362 . S
H592 C598 0.930 . S
H593 C601 0.930 . S
H594 C602 0.930 . S
H595 C603 0.930 . S
H596 C606 0.930 . S
H597 C607 0.930 . S
C598 H592 0.930 . S
C598 C599 1.355 . S
C598 C600 1.415 . S
C599 C598 1.355 . S
C599 C601 1.419 . S
C600 C598 1.415 . S
C600 C605 1.425 . S
C600 C607 1.409 . S
C601 H593 0.930 . S
C601 C599 1.419 . S
C601 C602 1.362 . S
C602 H594 0.930 . S
C602 C601 1.362 . S
C602 C605 1.409 . S
C603 H595 0.930 . S
C603 C604 1.355 1_455 S
C603 C605 1.415 . S
C604 C603 1.355 1_655 S
C604 C606 1.419 . S
C605 C600 1.425 . S
C605 C602 1.409 . S
C605 C603 1.415 . S
C606 H596 0.930 . S
C606 C604 1.419 . S
C606 C607 1.362 1_655 S
C607 H597 0.930 . S
C607 C600 1.409 . S
C607 C606 1.362 1_455 S
H608 C614 0.930 . S
H609 C617 0.930 . S
H610 C618 0.930 . S
H611 C619 0.930 . S
H612 C622 0.930 . S
H613 C623 0.930 . S
C614 H608 0.930 . S
C614 C615 1.355 . S
C614 C616 1.415 . S
C615 C614 1.355 . S
C615 C617 1.419 . S
C616 C614 1.415 . S
C616 C621 1.425 . S
C616 C623 1.409 . S
C617 H609 0.930 . S
C617 C615 1.419 . S
C617 C618 1.362 . S
C618 H610 0.930 . S
C618 C617 1.362 . S
C618 C621 1.409 . S
C619 H611 0.930 . S
C619 C620 1.355 . S
C619 C621 1.415 . S
C620 C619 1.355 . S
C620 C622 1.419 . S
C621 C616 1.425 . S
C621 C618 1.409 . S
C621 C619 1.415 . S
C622 H612 0.930 . S
C622 C620 1.419 . S
C622 C623 1.362 . S
C623 H613 0.930 . S
C623 C616 1.409 . S
C623 C622 1.362 . S
H624 C630 0.930 . S
H625 C633 0.930 . S
H626 C634 0.930 . S
H627 C635 0.930 . S
H628 C638 0.930 . S
H629 C639 0.930 . S
C630 H624 0.930 . S
C630 C631 1.355 . S
C630 C632 1.415 . S
C631 C630 1.355 . S
C631 C633 1.419 . S
C632 C630 1.415 . S
C632 C637 1.425 . S
C632 C639 1.409 . S
C633 H625 0.930 . S
C633 C631 1.419 . S
C633 C634 1.362 . S
C634 H626 0.930 . S
C634 C633 1.362 . S
C634 C637 1.409 . S
C635 H627 0.930 . S
C635 C636 1.355 . S
C635 C637 1.415 . S
C636 C635 1.355 . S
C636 C638 1.419 . S
C637 C632 1.425 . S
C637 C634 1.409 . S
C637 C635 1.415 . S
C638 H628 0.930 . S
C638 C636 1.419 . S
C638 C639 1.362 . S
C639 H629 0.930 . S
C639 C632 1.409 . S
C639 C638 1.362 . S
H640 C646 0.930 . S
H641 C649 0.930 . S
H642 C650 0.930 . S
H643 C651 0.930 . S
H644 C654 0.930 . S
H645 C655 0.930 . S
C646 H640 0.930 . S
C646 C647 1.355 . S
C646 C648 1.415 . S
C647 C646 1.355 . S
C647 C649 1.419 . S
C648 C646 1.415 . S
C648 C653 1.425 . S
C648 C655 1.409 . S
C649 H641 0.930 . S
C649 C647 1.419 . S
C649 C650 1.362 . S
C650 H642 0.930 . S
C650 C649 1.362 . S
C650 C653 1.409 . S
C651 H643 0.930 . S
C651 C652 1.355 . S
C651 C653 1.415 . S
C652 C651 1.355 . S
C652 C654 1.419 . S
C653 C648 1.425 . S
C653 C650 1.409 . S
C653 C651 1.415 . S
C654 H644 0.930 . S
C654 C652 1.419 . S
C654 C655 1.362 . S
C655 H645 0.930 . S
C655 C648 1.409 . S
C655 C654 1.362 . S
H656 C662 0.930 . S
H657 C665 0.930 . S
H658 C666 0.930 . S
H659 C667 0.930 . S
H660 C670 0.930 . S
H661 C671 0.930 . S
C662 H656 0.930 . S
C662 C663 1.355 . S
C662 C664 1.415 . S
C663 C662 1.355 . S
C663 C665 1.419 . S
C664 C662 1.415 . S
C664 C669 1.425 . S
C664 C671 1.409 . S
C665 H657 0.930 . S
C665 C663 1.419 . S
C665 C666 1.362 . S
C666 H658 0.930 . S
C666 C665 1.362 . S
C666 C669 1.409 . S
C667 H659 0.930 . S
C667 C668 1.355 . S
C667 C669 1.415 . S
C668 C667 1.355 . S
C668 C670 1.419 . S
C669 C664 1.425 . S
C669 C666 1.409 . S
C669 C667 1.415 . S
C670 H660 0.930 . S
C670 C668 1.419 . S
C670 C671 1.362 . S
C671 H661 0.930 . S
C671 C664 1.409 . S
C671 C670 1.362 . S
H672 C678 0.930 . S
H673 C681 0.930 . S
H674 C682 0.930 . S
H675 C683 0.930 . S
H676 C686 0.930 . S
H677 C687 0.930 . S
C678 H672 0.930 . S
C678 C679 1.355 . S
C678 C680 1.415 . S
C679 C678 1.355 . S
C679 C681 1.419 . S
C680 C678 1.415 . S
C680 C685 1.425 . S
C680 C687 1.409 . S
C681 H673 0.930 . S
C681 C679 1.419 . S
C681 C682 1.362 . S
C682 H674 0.930 . S
C682 C681 1.362 . S
C682 C685 1.409 . S
C683 H675 0.930 . S
C683 C684 1.355 . S
C683 C685 1.415 . S
C684 C683 1.355 . S
C684 C686 1.419 . S
C685 C680 1.425 . S
C685 C682 1.409 . S
C685 C683 1.415 . S
C686 H676 0.930 . S
C686 C684 1.419 . S
C686 C687 1.362 . S
C687 H677 0.930 . S
C687 C680 1.409 . S
C687 C686 1.362 . S
H688 C694 0.930 . S
H689 C697 0.930 . S
H690 C698 0.930 . S
H691 C699 0.930 1_655 S
H692 C702 0.917 1_655 S
H693 C703 0.930 . S
C694 H688 0.930 . S
C694 C695 1.355 . S
C694 C696 1.415 . S
C695 C694 1.355 . S
C695 C697 1.419 . S
C696 C694 1.415 . S
C696 C701 1.425 . S
C696 C703 1.409 . S
C697 H689 0.930 . S
C697 C695 1.419 . S
C697 C698 1.362 . S
C698 H690 0.930 . S
C698 C697 1.362 . S
C698 C701 1.409 . S
C699 H691 0.930 1_455 S
C699 C700 1.355 1_455 S
C699 C701 1.415 . S
C700 C699 1.355 1_655 S
C700 C702 1.408 1_655 S
C701 C696 1.425 . S
C701 C698 1.409 . S
C701 C699 1.415 . S
C702 H692 0.917 1_455 S
C702 C700 1.408 1_455 S
C702 C703 1.387 . S
C703 H693 0.930 . S
C703 C696 1.409 . S
C703 C702 1.387 . S
H704 C710 0.930 . S
H705 C713 0.930 . S
H706 C714 0.930 . S
H707 C715 0.930 . S
H708 C718 0.930 . S
H709 C719 0.930 . S
C710 H704 0.930 . S
C710 C711 1.355 . S
C710 C712 1.415 . S
C711 C710 1.355 . S
C711 C713 1.419 . S
C712 C710 1.415 . S
C712 C717 1.425 . S
C712 C719 1.409 . S
C713 H705 0.930 . S
C713 C711 1.419 . S
C713 C714 1.362 . S
C714 H706 0.930 . S
C714 C713 1.362 . S
C714 C717 1.409 . S
C715 H707 0.930 . S
C715 C716 1.355 . S
C715 C717 1.415 . S
C716 C715 1.355 . S
C716 C718 1.419 . S
C717 C712 1.425 . S
C717 C714 1.409 . S
C717 C715 1.415 . S
C718 H708 0.930 . S
C718 C716 1.419 . S
C718 C719 1.362 . S
C719 H709 0.930 . S
C719 C712 1.409 . S
C719 C718 1.362 . S
H720 C726 0.930 . S
H721 C729 0.930 . S
H722 C730 0.930 . S
H723 C731 0.930 . S
H724 C734 0.930 . S
H725 C735 0.930 . S
C726 H720 0.930 . S
C726 C727 1.355 . S
C726 C728 1.415 . S
C727 C726 1.355 . S
C727 C729 1.419 . S
C728 C726 1.415 . S
C728 C733 1.425 . S
C728 C735 1.409 . S
C729 H721 0.930 . S
C729 C727 1.419 . S
C729 C730 1.362 . S
C730 H722 0.930 . S
C730 C729 1.362 . S
C730 C733 1.409 . S
C731 H723 0.930 . S
C731 C732 1.355 . S
C731 C733 1.415 . S
C732 C731 1.355 . S
C732 C734 1.419 . S
C733 C728 1.425 . S
C733 C730 1.409 . S
C733 C731 1.415 . S
C734 H724 0.930 . S
C734 C732 1.419 . S
C734 C735 1.362 . S
C735 H725 0.930 . S
C735 C728 1.409 . S
C735 C734 1.362 . S
H736 C742 0.930 . S
H737 C745 0.930 . S
H738 C746 0.930 . S
H739 C747 0.930 . S
H740 C750 0.930 . S
H741 C751 0.930 . S
C742 H736 0.930 . S
C742 C743 1.355 . S
C742 C744 1.415 . S
C743 C742 1.355 . S
C743 C745 1.419 . S
C744 C742 1.415 . S
C744 C749 1.425 . S
C744 C751 1.409 . S
C745 H737 0.930 . S
C745 C743 1.419 . S
C745 C746 1.362 . S
C746 H738 0.930 . S
C746 C745 1.362 . S
C746 C749 1.409 . S
C747 H739 0.930 . S
C747 C748 1.355 . S
C747 C749 1.415 . S
C748 C747 1.355 . S
C748 C750 1.419 . S
C749 C744 1.425 . S
C749 C746 1.409 . S
C749 C747 1.415 . S
C750 H740 0.930 . S
C750 C748 1.419 . S
C750 C751 1.362 . S
C751 H741 0.930 . S
C751 C744 1.409 . S
C751 C750 1.362 . S
H752 C758 0.930 . S
H753 C761 0.930 . S
H754 C762 0.930 . S
H755 C763 0.930 . S
H756 C766 0.930 . S
H757 C767 0.930 . S
C758 H752 0.930 . S
C758 C759 1.355 . S
C758 C760 1.415 . S
C759 C758 1.355 . S
C759 C761 1.419 . S
C760 C758 1.415 . S
C760 C765 1.425 . S
C760 C767 1.409 . S
C761 H753 0.930 . S
C761 C759 1.419 . S
C761 C762 1.362 . S
C762 H754 0.930 . S
C762 C761 1.362 . S
C762 C765 1.409 . S
C763 H755 0.930 . S
C763 C764 1.355 . S
C763 C765 1.415 1_655 S
C764 C763 1.355 . S
C764 C766 1.419 1_655 S
C765 C760 1.425 . S
C765 C762 1.409 . S
C765 C763 1.415 1_455 S
C766 H756 0.930 . S
C766 C764 1.419 1_455 S
C766 C767 1.362 . S
C767 H757 0.930 . S
C767 C760 1.409 . S
C767 C766 1.362 . S
H768 C774 0.930 . S
H769 C777 0.930 . S
H770 C778 0.930 . S
H771 C779 0.930 . S
H772 C782 0.930 . S
H773 C783 0.930 . S
C774 H768 0.930 . S
C774 C775 1.355 . S
C774 C776 1.415 . S
C775 C774 1.355 . S
C775 C777 1.419 . S
C776 C774 1.415 . S
C776 C781 1.425 . S
C776 C783 1.409 . S
C777 H769 0.930 . S
C777 C775 1.419 . S
C777 C778 1.362 . S
C778 H770 0.930 . S
C778 C777 1.362 . S
C778 C781 1.409 . S
C779 H771 0.930 . S
C779 C780 1.355 . S
C779 C781 1.415 . S
C780 C779 1.355 . S
C780 C782 1.419 . S
C781 C776 1.425 . S
C781 C778 1.409 . S
C781 C779 1.415 . S
C782 H772 0.930 . S
C782 C780 1.419 . S
C782 C783 1.362 . S
C783 H773 0.930 . S
C783 C776 1.409 . S
C783 C782 1.362 . S
H784 C790 0.930 . S
H785 C793 0.930 . S
H786 C794 0.930 . S
H787 C795 0.930 . S
H788 C798 0.930 . S
H789 C799 0.930 . S
C790 H784 0.930 . S
C790 C791 1.355 . S
C790 C792 1.415 . S
C791 C790 1.355 . S
C791 C793 1.419 . S
C792 C790 1.415 . S
C792 C797 1.425 . S
C792 C799 1.409 . S
C793 H785 0.930 . S
C793 C791 1.419 . S
C793 C794 1.362 . S
C794 H786 0.930 . S
C794 C793 1.362 . S
C794 C797 1.409 . S
C795 H787 0.930 . S
C795 C796 1.355 . S
C795 C797 1.415 1_655 S
C796 C795 1.355 . S
C796 C798 1.419 1_655 S
C797 C792 1.425 . S
C797 C794 1.409 . S
C797 C795 1.415 1_455 S
C798 H788 0.930 . S
C798 C796 1.419 1_455 S
C798 C799 1.362 . S
C799 H789 0.930 . S
C799 C792 1.409 . S
C799 C798 1.362 . S
H800 C806 0.930 . S
H801 C809 0.930 . S
H802 C810 0.930 . S
H803 C811 0.930 . S
H804 C814 0.930 . S
H805 C815 0.930 . S
C806 H800 0.930 . S
C806 C807 1.355 . S
C806 C808 1.415 . S
C807 C806 1.355 . S
C807 C809 1.419 . S
C808 C806 1.415 . S
C808 C813 1.425 . S
C808 C815 1.409 . S
C809 H801 0.930 . S
C809 C807 1.419 . S
C809 C810 1.362 . S
C810 H802 0.930 . S
C810 C809 1.362 . S
C810 C813 1.409 . S
C811 H803 0.930 . S
C811 C812 1.355 . S
C811 C813 1.415 . S
C812 C811 1.355 . S
C812 C814 1.419 . S
C813 C808 1.425 . S
C813 C810 1.409 . S
C813 C811 1.415 . S
C814 H804 0.930 . S
C814 C812 1.419 . S
C814 C815 1.362 . S
C815 H805 0.930 . S
C815 C808 1.409 . S
C815 C814 1.362 . S
H816 C822 0.930 . S
H817 C825 0.930 . S
H818 C826 0.930 . S
H819 C827 0.930 . S
H820 C830 0.930 . S
H821 C831 0.930 . S
C822 H816 0.930 . S
C822 C823 1.355 . S
C822 C824 1.415 . S
C823 C822 1.355 . S
C823 C825 1.419 . S
C824 C822 1.415 . S
C824 C829 1.425 . S
C824 C831 1.409 . S
C825 H817 0.930 . S
C825 C823 1.419 . S
C825 C826 1.362 . S
C826 H818 0.930 . S
C826 C825 1.362 . S
C826 C829 1.409 . S
C827 H819 0.930 . S
C827 C828 1.355 . S
C827 C829 1.415 . S
C828 C827 1.355 . S
C828 C830 1.419 . S
C829 C824 1.425 . S
C829 C826 1.409 . S
C829 C827 1.415 . S
C830 H820 0.930 . S
C830 C828 1.419 . S
C830 C831 1.362 . S
C831 H821 0.930 . S
C831 C824 1.409 . S
C831 C830 1.362 . S
H832 C838 0.930 . S
H833 C841 0.930 . S
H834 C842 0.930 . S
H835 C843 0.930 . S
H836 C846 0.930 . S
H837 C847 0.930 . S
C838 H832 0.930 . S
C838 C839 1.355 . S
C838 C840 1.415 . S
C839 C838 1.355 . S
C839 C841 1.419 . S
C840 C838 1.415 . S
C840 C845 1.425 . S
C840 C847 1.409 . S
C841 H833 0.930 . S
C841 C839 1.419 . S
C841 C842 1.362 . S
C842 H834 0.930 . S
C842 C841 1.362 . S
C842 C845 1.409 . S
C843 H835 0.930 . S
C843 C844 1.355 . S
C843 C845 1.415 . S
C844 C843 1.355 . S
C844 C846 1.419 . S
C845 C840 1.425 . S
C845 C842 1.409 . S
C845 C843 1.415 . S
C846 H836 0.930 . S
C846 C844 1.419 . S
C846 C847 1.362 . S
C847 H837 0.930 . S
C847 C840 1.409 . S
C847 C846 1.362 . S
H848 C854 0.930 . S
H849 C857 0.930 . S
H850 C858 0.930 . S
H851 C859 0.930 . S
H852 C862 0.930 . S
H853 C863 0.930 . S
C854 H848 0.930 . S
C854 C855 1.355 . S
C854 C856 1.415 . S
C855 C854 1.355 . S
C855 C857 1.419 . S
C856 C854 1.415 . S
C856 C861 1.425 . S
C856 C863 1.409 . S
C857 H849 0.930 . S
C857 C855 1.419 . S
C857 C858 1.362 . S
C858 H850 0.930 . S
C858 C857 1.362 . S
C858 C861 1.409 . S
C859 H851 0.930 . S
C859 C860 1.355 . S
C859 C861 1.415 . S
C860 C859 1.355 . S
C860 C862 1.419 . S
C861 C856 1.425 . S
C861 C858 1.409 . S
C861 C859 1.415 . S
C862 H852 0.930 . S
C862 C860 1.419 . S
C862 C863 1.362 . S
C863 H853 0.930 . S
C863 C856 1.409 . S
C863 C862 1.362 . S
H864 C870 0.930 . S
H865 C873 0.930 . S
H866 C874 0.930 . S
H867 C875 0.930 . S
H868 C878 0.930 . S
H869 C879 0.930 . S
C870 H864 0.930 . S
C870 C871 1.355 . S
C870 C872 1.415 . S
C871 C870 1.355 . S
C871 C873 1.419 . S
C872 C870 1.415 . S
C872 C877 1.425 . S
C872 C879 1.409 . S
C873 H865 0.930 . S
C873 C871 1.419 . S
C873 C874 1.362 . S
C874 H866 0.930 . S
C874 C873 1.362 . S
C874 C877 1.409 . S
C875 H867 0.930 . S
C875 C876 1.355 . S
C875 C877 1.415 . S
C876 C875 1.355 . S
C876 C878 1.419 . S
C877 C872 1.425 . S
C877 C874 1.409 . S
C877 C875 1.415 . S
C878 H868 0.930 . S
C878 C876 1.419 . S
C878 C879 1.362 . S
C879 H869 0.930 . S
C879 C872 1.409 . S
C879 C878 1.362 . S
H880 C886 0.930 . S
H881 C889 0.930 . S
H882 C890 0.930 . S
H883 C891 0.930 . S
H884 C894 0.930 . S
H885 C895 0.930 . S
C886 H880 0.930 . S
C886 C887 1.355 . S
C886 C888 1.415 1_455 S
C887 C886 1.355 . S
C887 C889 1.419 1_455 S
C888 C886 1.415 1_655 S
C888 C893 1.425 . S
C888 C895 1.409 . S
C889 H881 0.930 . S
C889 C887 1.419 1_655 S
C889 C890 1.362 . S
C890 H882 0.930 . S
C890 C889 1.362 . S
C890 C893 1.409 . S
C891 H883 0.930 . S
C891 C892 1.355 . S
C891 C893 1.415 . S
C892 C891 1.355 . S
C892 C894 1.419 . S
C893 C888 1.425 . S
C893 C890 1.409 . S
C893 C891 1.415 . S
C894 H884 0.930 . S
C894 C892 1.419 . S
C894 C895 1.362 . S
C895 H885 0.930 . S
C895 C888 1.409 . S
C895 C894 1.362 . S
H896 C902 0.930 . S
H897 C905 0.930 . S
H898 C906 0.930 . S
H899 C907 0.930 . S
H900 C910 0.930 . S
H901 C911 0.930 . S
C902 H896 0.930 . S
C902 C903 1.355 . S
C902 C904 1.415 . S
C903 C902 1.355 . S
C903 C905 1.419 . S
C904 C902 1.415 . S
C904 C909 1.425 . S
C904 C911 1.409 . S
C905 H897 0.930 . S
C905 C903 1.419 . S
C905 C906 1.362 . S
C906 H898 0.930 . S
C906 C905 1.362 . S
C906 C909 1.409 . S
C907 H899 0.930 . S
C907 C908 1.355 . S
C907 C909 1.415 . S
C908 C907 1.355 . S
C908 C910 1.419 . S
C909 C904 1.425 . S
C909 C906 1.409 . S
C909 C907 1.415 . S
C910 H900 0.930 . S
C910 C908 1.419 . S
C910 C911 1.362 . S
C911 H901 0.930 . S
C911 C904 1.409 . S
C911 C910 1.362 . S
H912 C918 0.930 . S
H913 C921 0.930 . S
H914 C922 0.930 . S
H915 C923 0.930 . S
H916 C926 0.930 . S
H917 C927 0.930 . S
C918 H912 0.930 . S
C918 C919 1.355 1_655 S
C918 C920 1.415 . S
C919 C918 1.355 1_455 S
C919 C921 1.419 . S
C920 C918 1.415 . S
C920 C925 1.425 . S
C920 C927 1.409 . S
C921 H913 0.930 . S
C921 C919 1.419 . S
C921 C922 1.362 1_455 S
C922 H914 0.930 . S
C922 C921 1.362 1_655 S
C922 C925 1.409 . S
C923 H915 0.930 . S
C923 C924 1.355 . S
C923 C925 1.415 . S
C924 C923 1.355 . S
C924 C926 1.419 . S
C925 C920 1.425 . S
C925 C922 1.409 . S
C925 C923 1.415 . S
C926 H916 0.930 . S
C926 C924 1.419 . S
C926 C927 1.362 . S
C927 H917 0.930 . S
C927 C920 1.409 . S
C927 C926 1.362 . S
H928 C934 0.930 . S
H929 C937 0.930 . S
H930 C938 0.930 . S
H931 C939 0.930 . S
H932 C942 0.930 . S
H933 C943 0.930 . S
C934 H928 0.930 . S
C934 C935 1.355 . S
C934 C936 1.415 . S
C935 C934 1.355 . S
C935 C937 1.419 . S
C936 C934 1.415 . S
C936 C941 1.425 . S
C936 C943 1.409 . S
C937 H929 0.930 . S
C937 C935 1.419 . S
C937 C938 1.362 . S
C938 H930 0.930 . S
C938 C937 1.362 . S
C938 C941 1.409 . S
C939 H931 0.930 . S
C939 C940 1.355 . S
C939 C941 1.415 . S
C940 C939 1.355 . S
C940 C942 1.419 . S
C941 C936 1.425 . S
C941 C938 1.409 . S
C941 C939 1.415 . S
C942 H932 0.930 . S
C942 C940 1.419 . S
C942 C943 1.362 . S
C943 H933 0.930 . S
C943 C936 1.409 . S
C943 C942 1.362 . S
H944 C950 0.930 . S
H945 C953 0.930 . S
H946 C954 0.930 . S
H947 C955 0.930 . S
H948 C958 0.930 . S
H949 C959 0.930 . S
C950 H944 0.930 . S
C950 C951 1.355 . S
C950 C952 1.415 . S
C951 C950 1.355 . S
C951 C953 1.419 . S
C952 C950 1.415 . S
C952 C957 1.425 . S
C952 C959 1.409 . S
C953 H945 0.930 . S
C953 C951 1.419 . S
C953 C954 1.362 . S
C954 H946 0.930 . S
C954 C953 1.362 . S
C954 C957 1.409 . S
C955 H947 0.930 . S
C955 C956 1.355 . S
C955 C957 1.415 . S
C956 C955 1.355 . S
C956 C958 1.419 . S
C957 C952 1.425 . S
C957 C954 1.409 . S
C957 C955 1.415 . S
C958 H948 0.930 . S
C958 C956 1.419 . S
C958 C959 1.362 . S
C959 H949 0.930 . S
C959 C952 1.409 . S
C959 C958 1.362 . S
H960 C966 0.930 . S
H961 C969 0.930 . S
H962 C970 0.930 . S
H963 C971 0.930 . S
H964 C974 0.930 . S
H965 C975 0.930 . S
C966 H960 0.930 . S
C966 C967 1.355 . S
C966 C968 1.415 . S
C967 C966 1.355 . S
C967 C969 1.419 . S
C968 C966 1.415 . S
C968 C973 1.425 . S
C968 C975 1.409 . S
C969 H961 0.930 . S
C969 C967 1.419 . S
C969 C970 1.362 . S
C970 H962 0.930 . S
C970 C969 1.362 . S
C970 C973 1.409 . S
C971 H963 0.930 . S
C971 C972 1.355 . S
C971 C973 1.415 . S
C972 C971 1.355 . S
C972 C974 1.419 . S
C973 C968 1.425 . S
C973 C970 1.409 . S
C973 C971 1.415 . S
C974 H964 0.930 . S
C974 C972 1.419 . S
C974 C975 1.362 . S
C975 H965 0.930 . S
C975 C968 1.409 . S
C975 C974 1.362 . S
H976 C982 0.944 . S
H977 C985 0.930 . S
H978 C986 0.930 . S
H979 C987 0.944 . S
H980 C990 0.930 . S
H981 C991 0.930 . S
C982 H976 0.944 . S
C982 C983 1.355 . S
C982 C984 1.415 1_455 S
C983 C982 1.355 . S
C983 C985 1.419 1_565 S
C984 C982 1.415 1_655 S
C984 C989 1.425 1_665 S
C984 C991 1.409 . S
C985 H977 0.930 . S
C985 C983 1.419 1_545 S
C985 C986 1.362 . S
C986 H978 0.930 . S
C986 C985 1.362 . S
C986 C989 1.409 . S
C987 H979 0.944 . S
C987 C988 1.355 . S
C987 C989 1.415 1_655 S
C988 C987 1.355 . S
C988 C990 1.419 1_545 S
C989 C984 1.425 1_445 S
C989 C986 1.409 . S
C989 C987 1.415 1_455 S
C990 H980 0.930 . S
C990 C988 1.419 1_565 S
C990 C991 1.362 . S
C991 H981 0.930 . S
C991 C984 1.409 . S
C991 C990 1.362 . S
H992 C998 0.930 . S
H993 C1001 0.930 . S
H994 C1002 0.930 . S
H995 C1003 0.930 . S
H996 C1006 0.930 . S
H997 C1007 0.930 . S
C998 H992 0.930 . S
C998 C999 1.355 . S
C998 C1000 1.415 . S
C999 C998 1.355 . S
C999 C1001 1.419 . S
C1000 C998 1.415 . S
C1000 C1005 1.425 . S
C1000 C1007 1.409 . S
C1001 H993 0.930 . S
C1001 C999 1.419 . S
C1001 C1002 1.362 . S
C1002 H994 0.930 . S
C1002 C1001 1.362 . S
C1002 C1005 1.409 . S
C1003 H995 0.930 . S
C1003 C1004 1.355 . S
C1003 C1005 1.415 . S
C1004 C1003 1.355 . S
C1004 C1006 1.419 . S
C1005 C1000 1.425 . S
C1005 C1002 1.409 . S
C1005 C1003 1.415 . S
C1006 H996 0.930 . S
C1006 C1004 1.419 . S
C1006 C1007 1.362 . S
C1007 H997 0.930 . S
C1007 C1000 1.409 . S
C1007 C1006 1.362 . S
H1008 C1014 0.930 . S
H1009 C1017 0.930 . S
H1010 C1018 0.930 . S
H1011 C1019 0.930 . S
H1012 C1022 0.930 . S
H1013 C1023 0.930 . S
C1014 H1008 0.930 . S
C1014 C1015 1.355 1_565 S
C1014 C1016 1.415 1_554 S
C1015 C1014 1.355 1_545 S
C1015 C1017 1.419 . S
C1016 C1014 1.415 1_556 S
C1016 C1021 1.425 1_566 S
C1016 C1023 1.409 . S
C1017 H1009 0.930 . S
C1017 C1015 1.419 . S
C1017 C1018 1.362 . S
C1018 H1010 0.930 . S
C1018 C1017 1.362 . S
C1018 C1021 1.409 . S
C1019 H1011 0.930 . S
C1019 C1020 1.355 1_545 S
C1019 C1021 1.415 1_556 S
C1020 C1019 1.355 1_565 S
C1020 C1022 1.419 . S
C1021 C1016 1.425 1_544 S
C1021 C1018 1.409 . S
C1021 C1019 1.415 1_554 S
C1022 H1012 0.930 . S
C1022 C1020 1.419 . S
C1022 C1023 1.362 . S
C1023 H1013 0.930 . S
C1023 C1016 1.409 . S
C1023 C1022 1.362 . S
H1024 C1030 0.930 . S
H1025 C1033 0.930 . S
H1026 C1034 0.930 . S
H1027 C1035 0.930 . S
H1028 C1038 0.930 . S
H1029 C1039 0.930 . S
C1030 H1024 0.930 . S
C1030 C1031 1.355 . S
C1030 C1032 1.415 . S
C1031 C1030 1.355 . S
C1031 C1033 1.419 . S
C1032 C1030 1.415 . S
C1032 C1037 1.425 . S
C1032 C1039 1.409 . S
C1033 H1025 0.930 . S
C1033 C1031 1.419 . S
C1033 C1034 1.362 . S
C1034 H1026 0.930 . S
C1034 C1033 1.362 . S
C1034 C1037 1.409 . S
C1035 H1027 0.930 . S
C1035 C1036 1.355 . S
C1035 C1037 1.415 . S
C1036 C1035 1.355 . S
C1036 C1038 1.419 . S
C1037 C1032 1.425 . S
C1037 C1034 1.409 . S
C1037 C1035 1.415 . S
C1038 H1028 0.930 . S
C1038 C1036 1.419 . S
C1038 C1039 1.362 . S
C1039 H1029 0.930 . S
C1039 C1032 1.409 . S
C1039 C1038 1.362 . S
H1040 C1046 0.930 . S
H1041 C1049 0.930 . S
H1042 C1050 0.930 . S
H1043 C1051 0.930 . S
H1044 C1054 0.930 . S
H1045 C1055 0.930 . S
C1046 H1040 0.930 . S
C1046 C1047 1.355 1_545 S
C1046 C1048 1.415 . S
C1047 C1046 1.355 1_565 S
C1047 C1049 1.419 . S
C1048 C1046 1.415 . S
C1048 C1053 1.425 1_545 S
C1048 C1055 1.409 . S
C1049 H1041 0.930 . S
C1049 C1047 1.419 . S
C1049 C1050 1.362 . S
C1050 H1042 0.930 . S
C1050 C1049 1.362 . S
C1050 C1053 1.409 . S
C1051 H1043 0.930 . S
C1051 C1052 1.355 1_565 S
C1051 C1053 1.415 . S
C1052 C1051 1.355 1_545 S
C1052 C1054 1.419 . S
C1053 C1048 1.425 1_565 S
C1053 C1050 1.409 . S
C1053 C1051 1.415 . S
C1054 H1044 0.930 . S
C1054 C1052 1.419 . S
C1054 C1055 1.362 . S
C1055 H1045 0.930 . S
C1055 C1048 1.409 . S
C1055 C1054 1.362 . S
H1056 C1062 0.930 . S
H1057 C1065 0.930 . S
H1058 C1066 0.930 . S
H1059 C1067 0.930 . S
H1060 C1070 0.930 . S
H1061 C1071 0.930 . S
C1062 H1056 0.930 . S
C1062 C1063 1.355 . S
C1062 C1064 1.415 . S
C1063 C1062 1.355 . S
C1063 C1065 1.419 . S
C1064 C1062 1.415 . S
C1064 C1069 1.425 . S
C1064 C1071 1.409 . S
C1065 H1057 0.930 . S
C1065 C1063 1.419 . S
C1065 C1066 1.362 . S
C1066 H1058 0.930 . S
C1066 C1065 1.362 . S
C1066 C1069 1.409 . S
C1067 H1059 0.930 . S
C1067 C1068 1.355 . S
C1067 C1069 1.415 . S
C1068 C1067 1.355 . S
C1068 C1070 1.419 . S
C1069 C1064 1.425 . S
C1069 C1066 1.409 . S
C1069 C1067 1.415 . S
C1070 H1060 0.930 . S
C1070 C1068 1.419 . S
C1070 C1071 1.362 . S
C1071 H1061 0.930 . S
C1071 C1064 1.409 . S
C1071 C1070 1.362 . S
H1072 C1078 0.930 . S
H1073 C1081 0.930 . S
H1074 C1082 0.930 . S
H1075 C1083 0.930 . S
H1076 C1086 0.930 . S
H1077 C1087 0.930 . S
C1078 H1072 0.930 . S
C1078 C1079 1.355 . S
C1078 C1080 1.415 1_556 S
C1079 C1078 1.355 . S
C1079 C1081 1.420 . S
C1080 C1078 1.415 1_554 S
C1080 C1085 1.425 1_444 S
C1080 C1087 1.409 . S
C1081 H1073 0.930 . S
C1081 C1079 1.420 . S
C1081 C1082 1.361 1_445 S
C1082 H1074 0.930 . S
C1082 C1081 1.361 1_665 S
C1082 C1085 1.409 . S
C1083 H1075 0.930 . S
C1083 C1084 1.355 . S
C1083 C1085 1.415 1_554 S
C1084 C1083 1.355 . S
C1084 C1086 1.420 . S
C1085 C1080 1.425 1_666 S
C1085 C1082 1.409 . S
C1085 C1083 1.415 1_556 S
C1086 H1076 0.930 . S
C1086 C1084 1.420 . S
C1086 C1087 1.361 1_665 S
C1087 H1077 0.930 . S
C1087 C1080 1.409 . S
C1087 C1086 1.361 1_445 S
H1088 C1094 0.930 . S
H1089 C1097 0.930 . S
H1090 C1098 0.930 . S
H1091 C1099 0.930 . S
H1092 C1102 0.930 . S
H1093 C1103 0.930 . S
C1094 H1088 0.930 . S
C1094 C1095 1.355 . S
C1094 C1096 1.415 . S
C1095 C1094 1.355 . S
C1095 C1097 1.419 . S
C1096 C1094 1.415 . S
C1096 C1101 1.425 . S
C1096 C1103 1.409 . S
C1097 H1089 0.930 . S
C1097 C1095 1.419 . S
C1097 C1098 1.362 . S
C1098 H1090 0.930 . S
C1098 C1097 1.362 . S
C1098 C1101 1.409 . S
C1099 H1091 0.930 . S
C1099 C1100 1.355 . S
C1099 C1101 1.415 . S
C1100 C1099 1.355 . S
C1100 C1102 1.419 . S
C1101 C1096 1.425 . S
C1101 C1098 1.409 . S
C1101 C1099 1.415 . S
C1102 H1092 0.930 . S
C1102 C1100 1.419 . S
C1102 C1103 1.362 . S
C1103 H1093 0.930 . S
C1103 C1096 1.409 . S
C1103 C1102 1.362 . S
H1104 C1110 0.930 . S
H1105 C1113 0.930 . S
H1106 C1114 0.930 . S
H1107 C1115 0.930 . S
H1108 C1118 0.930 . S
H1109 C1119 0.930 . S
C1110 H1104 0.930 . S
C1110 C1111 1.355 . S
C1110 C1112 1.415 . S
C1111 C1110 1.355 . S
C1111 C1113 1.419 . S
C1112 C1110 1.415 . S
C1112 C1117 1.425 . S
C1112 C1119 1.409 . S
C1113 H1105 0.930 . S
C1113 C1111 1.419 . S
C1113 C1114 1.362 . S
C1114 H1106 0.930 . S
C1114 C1113 1.362 . S
C1114 C1117 1.409 . S
C1115 H1107 0.930 . S
C1115 C1116 1.355 . S
C1115 C1117 1.415 . S
C1116 C1115 1.355 . S
C1116 C1118 1.419 . S
C1117 C1112 1.425 . S
C1117 C1114 1.409 . S
C1117 C1115 1.415 . S
C1118 H1108 0.930 . S
C1118 C1116 1.419 . S
C1118 C1119 1.362 . S
C1119 H1109 0.930 . S
C1119 C1112 1.409 . S
C1119 C1118 1.362 . S
H1120 C1126 0.930 . S
H1121 C1129 0.930 . S
H1122 C1130 0.930 . S
H1123 C1131 0.930 . S
H1124 C1134 0.930 . S
H1125 C1135 0.930 . S
C1126 H1120 0.930 . S
C1126 C1127 1.355 . S
C1126 C1128 1.415 . S
C1127 C1126 1.355 . S
C1127 C1129 1.419 . S
C1128 C1126 1.415 . S
C1128 C1133 1.425 . S
C1128 C1135 1.409 . S
C1129 H1121 0.930 . S
C1129 C1127 1.419 . S
C1129 C1130 1.362 . S
C1130 H1122 0.930 . S
C1130 C1129 1.362 . S
C1130 C1133 1.409 . S
C1131 H1123 0.930 . S
C1131 C1132 1.355 . S
C1131 C1133 1.415 . S
C1132 C1131 1.355 . S
C1132 C1134 1.419 . S
C1133 C1128 1.425 . S
C1133 C1130 1.409 . S
C1133 C1131 1.415 . S
C1134 H1124 0.930 . S
C1134 C1132 1.419 . S
C1134 C1135 1.362 . S
C1135 H1125 0.930 . S
C1135 C1128 1.409 . S
C1135 C1134 1.362 . S
H1136 C1142 0.930 . S
H1137 C1145 0.930 . S
H1138 C1146 0.930 . S
H1139 C1147 0.930 . S
H1140 C1150 0.930 . S
H1141 C1151 0.930 . S
C1142 H1136 0.930 . S
C1142 C1143 1.355 . S
C1142 C1144 1.415 . S
C1143 C1142 1.355 . S
C1143 C1145 1.419 . S
C1144 C1142 1.415 . S
C1144 C1149 1.425 . S
C1144 C1151 1.409 . S
C1145 H1137 0.930 . S
C1145 C1143 1.419 . S
C1145 C1146 1.362 . S
C1146 H1138 0.930 . S
C1146 C1145 1.362 . S
C1146 C1149 1.409 . S
C1147 H1139 0.930 . S
C1147 C1148 1.355 . S
C1147 C1149 1.415 . S
C1148 C1147 1.355 . S
C1148 C1150 1.419 . S
C1149 C1144 1.425 . S
C1149 C1146 1.409 . S
C1149 C1147 1.415 . S
C1150 H1140 0.930 . S
C1150 C1148 1.419 . S
C1150 C1151 1.362 . S
C1151 H1141 0.930 . S
C1151 C1144 1.409 . S
C1151 C1150 1.362 . S
H1152 C1158 0.930 . S
H1153 C1161 0.930 . S
H1154 C1162 0.930 . S
H1155 C1163 0.930 . S
H1156 C1166 0.930 . S
H1157 C1167 0.930 . S
C1158 H1152 0.930 . S
C1158 C1159 1.355 . S
C1158 C1160 1.415 1_554 S
C1159 C1158 1.355 . S
C1159 C1161 1.419 . S
C1160 C1158 1.415 1_556 S
C1160 C1165 1.425 1_556 S
C1160 C1167 1.409 . S
C1161 H1153 0.930 . S
C1161 C1159 1.419 . S
C1161 C1162 1.362 . S
C1162 H1154 0.930 . S
C1162 C1161 1.362 . S
C1162 C1165 1.409 . S
C1163 H1155 0.930 . S
C1163 C1164 1.355 . S
C1163 C1165 1.415 1_556 S
C1164 C1163 1.355 . S
C1164 C1166 1.419 . S
C1165 C1160 1.425 1_554 S
C1165 C1162 1.409 . S
C1165 C1163 1.415 1_554 S
C1166 H1156 0.930 . S
C1166 C1164 1.419 . S
C1166 C1167 1.362 . S
C1167 H1157 0.930 . S
C1167 C1160 1.409 . S
C1167 C1166 1.362 . S
H1168 C1174 0.930 . S
H1169 C1177 0.930 . S
H1170 C1178 0.930 . S
H1171 C1179 0.930 . S
H1172 C1182 0.930 . S
H1173 C1183 0.930 . S
C1174 H1168 0.930 . S
C1174 C1175 1.355 . S
C1174 C1176 1.415 . S
C1175 C1174 1.355 . S
C1175 C1177 1.419 . S
C1176 C1174 1.415 . S
C1176 C1181 1.425 1_455 S
C1176 C1183 1.409 . S
C1177 H1169 0.930 . S
C1177 C1175 1.419 . S
C1177 C1178 1.362 1_455 S
C1178 H1170 0.930 . S
C1178 C1177 1.362 1_655 S
C1178 C1181 1.409 . S
C1179 H1171 0.930 . S
C1179 C1180 1.355 . S
C1179 C1181 1.415 . S
C1180 C1179 1.355 . S
C1180 C1182 1.419 . S
C1181 C1176 1.425 1_655 S
C1181 C1178 1.409 . S
C1181 C1179 1.415 . S
C1182 H1172 0.930 . S
C1182 C1180 1.419 . S
C1182 C1183 1.362 1_655 S
C1183 H1173 0.930 . S
C1183 C1176 1.409 . S
C1183 C1182 1.362 1_455 S
H1184 C1190 0.930 . S
H1185 C1193 0.930 . S
H1186 C1194 0.930 1_556 S
H1187 C1195 0.930 . S
H1188 C1198 0.930 . S
H1189 C1199 0.930 1_554 S
C1190 H1184 0.930 . S
C1190 C1191 1.355 . S
C1190 C1192 1.415 1_455 S
C1191 C1190 1.355 . S
C1191 C1193 1.419 . S
C1192 C1190 1.415 1_655 S
C1192 C1197 1.425 1_654 S
C1192 C1199 1.409 1_554 S
C1193 H1185 0.930 . S
C1193 C1191 1.419 . S
C1193 C1194 1.362 . S
C1194 H1186 0.930 1_554 S
C1194 C1193 1.362 . S
C1194 C1197 1.409 1_554 S
C1195 H1187 0.930 . S
C1195 C1196 1.355 . S
C1195 C1197 1.415 1_655 S
C1196 C1195 1.355 . S
C1196 C1198 1.419 . S
C1197 C1192 1.425 1_456 S
C1197 C1194 1.409 1_556 S
C1197 C1195 1.415 1_455 S
C1198 H1188 0.930 . S
C1198 C1196 1.419 . S
C1198 C1199 1.362 . S
C1199 H1189 0.930 1_556 S
C1199 C1192 1.409 1_556 S
C1199 C1198 1.362 . S
H1200 C1206 0.930 . S
H1201 C1209 0.930 . S
H1202 C1210 0.930 . S
H1203 C1211 0.930 . S
H1204 C1214 0.930 . S
H1205 C1215 0.930 . S
C1206 H1200 0.930 . S
C1206 C1207 1.355 . S
C1206 C1208 1.415 . S
C1207 C1206 1.355 . S
C1207 C1209 1.419 . S
C1208 C1206 1.415 . S
C1208 C1213 1.425 . S
C1208 C1215 1.409 . S
C1209 H1201 0.930 . S
C1209 C1207 1.419 . S
C1209 C1210 1.362 . S
C1210 H1202 0.930 . S
C1210 C1209 1.362 . S
C1210 C1213 1.409 . S
C1211 H1203 0.930 . S
C1211 C1212 1.355 . S
C1211 C1213 1.415 . S
C1212 C1211 1.355 . S
C1212 C1214 1.419 . S
C1213 C1208 1.425 . S
C1213 C1210 1.409 . S
C1213 C1211 1.415 . S
C1214 H1204 0.930 . S
C1214 C1212 1.419 . S
C1214 C1215 1.362 . S
C1215 H1205 0.930 . S
C1215 C1208 1.409 . S
C1215 C1214 1.362 . S
H1216 C1222 0.930 . S
H1217 C1225 0.930 . S
H1218 C1226 0.930 . S
H1219 C1227 0.930 . S
H1220 C1230 0.930 . S
H1221 C1231 0.930 . S
C1222 H1216 0.930 . S
C1222 C1223 1.355 . S
C1222 C1224 1.415 . S
C1223 C1222 1.355 . S
C1223 C1225 1.419 . S
C1224 C1222 1.415 . S
C1224 C1229 1.425 1_545 S
C1224 C1231 1.409 . S
C1225 H1217 0.930 . S
C1225 C1223 1.419 . S
C1225 C1226 1.362 1_545 S
C1226 H1218 0.930 . S
C1226 C1225 1.362 1_565 S
C1226 C1229 1.409 . S
C1227 H1219 0.930 . S
C1227 C1228 1.355 . S
C1227 C1229 1.415 . S
C1228 C1227 1.355 . S
C1228 C1230 1.419 . S
C1229 C1224 1.425 1_565 S
C1229 C1226 1.409 . S
C1229 C1227 1.415 . S
C1230 H1220 0.930 . S
C1230 C1228 1.419 . S
C1230 C1231 1.362 1_565 S
C1231 H1221 0.930 . S
C1231 C1224 1.409 . S
C1231 C1230 1.362 1_545 S
H1232 C1238 0.930 . S
H1233 C1241 0.930 . S
H1234 C1242 0.930 . S
H1235 C1243 0.930 . S
H1236 C1246 0.930 . S
H1237 C1247 0.930 . S
C1238 H1232 0.930 . S
C1238 C1239 1.355 . S
C1238 C1240 1.415 . S
C1239 C1238 1.355 . S
C1239 C1241 1.419 . S
C1240 C1238 1.415 . S
C1240 C1245 1.425 . S
C1240 C1247 1.409 . S
C1241 H1233 0.930 . S
C1241 C1239 1.419 . S
C1241 C1242 1.362 . S
C1242 H1234 0.930 . S
C1242 C1241 1.362 . S
C1242 C1245 1.409 . S
C1243 H1235 0.930 . S
C1243 C1244 1.355 . S
C1243 C1245 1.415 . S
C1244 C1243 1.355 . S
C1244 C1246 1.419 . S
C1245 C1240 1.425 . S
C1245 C1242 1.409 . S
C1245 C1243 1.415 . S
C1246 H1236 0.930 . S
C1246 C1244 1.419 . S
C1246 C1247 1.362 . S
C1247 H1237 0.930 . S
C1247 C1240 1.409 . S
C1247 C1246 1.362 . S
H1248 C1254 0.930 . S
H1249 C1257 0.930 . S
H1250 C1258 0.930 . S
H1251 C1259 0.930 . S
H1252 C1262 0.930 . S
H1253 C1263 0.930 . S
C1254 H1248 0.930 . S
C1254 C1255 1.355 . S
C1254 C1256 1.415 1_545 S
C1255 C1254 1.355 . S
C1255 C1257 1.419 . S
C1256 C1254 1.415 1_565 S
C1256 C1261 1.425 1_565 S
C1256 C1263 1.409 . S
C1257 H1249 0.930 . S
C1257 C1255 1.419 . S
C1257 C1258 1.362 . S
C1258 H1250 0.930 . S
C1258 C1257 1.362 . S
C1258 C1261 1.409 . S
C1259 H1251 0.930 . S
C1259 C1260 1.355 . S
C1259 C1261 1.415 1_565 S
C1260 C1259 1.355 . S
C1260 C1262 1.419 . S
C1261 C1256 1.425 1_545 S
C1261 C1258 1.409 . S
C1261 C1259 1.415 1_545 S
C1262 H1252 0.930 . S
C1262 C1260 1.419 . S
C1262 C1263 1.362 . S
C1263 H1253 0.930 . S
C1263 C1256 1.409 . S
C1263 C1262 1.362 . S
H1264 C1270 0.930 . S
H1265 C1273 0.930 . S
H1266 C1274 0.930 . S
H1267 C1275 0.930 . S
H1268 C1278 0.930 . S
H1269 C1279 0.930 . S
C1270 H1264 0.930 . S
C1270 C1271 1.355 . S
C1270 C1272 1.415 1_554 S
C1271 C1270 1.355 . S
C1271 C1273 1.419 . S
C1272 C1270 1.415 1_556 S
C1272 C1277 1.425 1_556 S
C1272 C1279 1.409 . S
C1273 H1265 0.930 . S
C1273 C1271 1.419 . S
C1273 C1274 1.362 . S
C1274 H1266 0.930 . S
C1274 C1273 1.362 . S
C1274 C1277 1.409 . S
C1275 H1267 0.930 . S
C1275 C1276 1.355 . S
C1275 C1277 1.415 1_556 S
C1276 C1275 1.355 . S
C1276 C1278 1.419 . S
C1277 C1272 1.425 1_554 S
C1277 C1274 1.409 . S
C1277 C1275 1.415 1_554 S
C1278 H1268 0.930 . S
C1278 C1276 1.419 . S
C1278 C1279 1.362 . S
C1279 H1269 0.930 . S
C1279 C1272 1.409 . S
C1279 C1278 1.362 . S
H1280 C1286 0.930 . S
H1281 C1289 0.930 . S
H1282 C1290 0.930 . S
H1283 C1291 0.930 . S
H1284 C1294 0.930 . S
H1285 C1295 0.930 . S
C1286 H1280 0.930 . S
C1286 C1287 1.355 . S
C1286 C1288 1.415 . S
C1287 C1286 1.355 . S
C1287 C1289 1.419 . S
C1288 C1286 1.415 . S
C1288 C1293 1.425 1_545 S
C1288 C1295 1.409 . S
C1289 H1281 0.930 . S
C1289 C1287 1.419 . S
C1289 C1290 1.362 1_545 S
C1290 H1282 0.930 . S
C1290 C1289 1.362 1_565 S
C1290 C1293 1.409 . S
C1291 H1283 0.930 . S
C1291 C1292 1.355 . S
C1291 C1293 1.415 . S
C1292 C1291 1.355 . S
C1292 C1294 1.419 . S
C1293 C1288 1.425 1_565 S
C1293 C1290 1.409 . S
C1293 C1291 1.415 . S
C1294 H1284 0.930 . S
C1294 C1292 1.419 . S
C1294 C1295 1.362 1_565 S
C1295 H1285 0.930 . S
C1295 C1288 1.409 . S
C1295 C1294 1.362 1_545 S
H1296 C1302 0.930 . S
H1297 C1305 0.930 . S
H1298 C1306 0.930 . S
H1299 C1307 0.930 . S
H1300 C1310 0.930 . S
H1301 C1311 0.930 . S
C1302 H1296 0.930 . S
C1302 C1303 1.355 . S
C1302 C1304 1.415 . S
C1303 C1302 1.355 . S
C1303 C1305 1.419 . S
C1304 C1302 1.415 . S
C1304 C1309 1.425 . S
C1304 C1311 1.409 . S
C1305 H1297 0.930 . S
C1305 C1303 1.419 . S
C1305 C1306 1.362 . S
C1306 H1298 0.930 . S
C1306 C1305 1.362 . S
C1306 C1309 1.409 . S
C1307 H1299 0.930 . S
C1307 C1308 1.355 . S
C1307 C1309 1.415 . S
C1308 C1307 1.355 . S
C1308 C1310 1.419 . S
C1309 C1304 1.425 . S
C1309 C1306 1.409 . S
C1309 C1307 1.415 . S
C1310 H1300 0.930 . S
C1310 C1308 1.419 . S
C1310 C1311 1.362 . S
C1311 H1301 0.930 . S
C1311 C1304 1.409 . S
C1311 C1310 1.362 . S
H1312 C1318 0.930 . S
H1313 C1321 0.930 . S
H1314 C1322 0.930 . S
H1315 C1323 0.930 . S
H1316 C1326 0.930 . S
H1317 C1327 0.930 . S
C1318 H1312 0.930 . S
C1318 C1319 1.355 . S
C1318 C1320 1.415 . S
C1319 C1318 1.355 . S
C1319 C1321 1.419 . S
C1320 C1318 1.415 . S
C1320 C1325 1.425 1_545 S
C1320 C1327 1.409 . S
C1321 H1313 0.930 . S
C1321 C1319 1.419 . S
C1321 C1322 1.362 1_545 S
C1322 H1314 0.930 . S
C1322 C1321 1.362 1_565 S
C1322 C1325 1.409 . S
C1323 H1315 0.930 . S
C1323 C1324 1.355 . S
C1323 C1325 1.415 . S
C1324 C1323 1.355 . S
C1324 C1326 1.419 . S
C1325 C1320 1.425 1_565 S
C1325 C1322 1.409 . S
C1325 C1323 1.415 . S
C1326 H1316 0.930 . S
C1326 C1324 1.419 . S
C1326 C1327 1.362 1_565 S
C1327 H1317 0.930 . S
C1327 C1320 1.409 . S
C1327 C1326 1.362 1_545 S
H1328 C1334 0.930 . S
H1329 C1337 0.930 . S
H1330 C1338 0.930 . S
H1331 C1339 0.930 . S
H1332 C1342 0.930 . S
H1333 C1343 0.930 . S
C1334 H1328 0.930 . S
C1334 C1335 1.355 . S
C1334 C1336 1.415 . S
C1335 C1334 1.355 . S
C1335 C1337 1.419 . S
C1336 C1334 1.415 . S
C1336 C1341 1.425 1_556 S
C1336 C1343 1.409 . S
C1337 H1329 0.930 . S
C1337 C1335 1.419 . S
C1337 C1338 1.362 1_556 S
C1338 H1330 0.930 . S
C1338 C1337 1.362 1_554 S
C1338 C1341 1.409 . S
C1339 H1331 0.930 . S
C1339 C1340 1.355 . S
C1339 C1341 1.415 . S
C1340 C1339 1.355 . S
C1340 C1342 1.419 . S
C1341 C1336 1.425 1_554 S
C1341 C1338 1.409 . S
C1341 C1339 1.415 . S
C1342 H1332 0.930 . S
C1342 C1340 1.419 . S
C1342 C1343 1.362 1_554 S
C1343 H1333 0.930 . S
C1343 C1336 1.409 . S
C1343 C1342 1.362 1_556 S
H1344 C1350 0.930 . S
H1345 C1353 0.930 . S
H1346 C1354 0.930 . S
H1347 C1355 0.930 . S
H1348 C1358 0.930 . S
H1349 C1359 0.930 . S
C1350 H1344 0.930 . S
C1350 C1351 1.355 . S
C1350 C1352 1.415 . S
C1351 C1350 1.355 . S
C1351 C1353 1.419 . S
C1352 C1350 1.415 . S
C1352 C1357 1.425 . S
C1352 C1359 1.409 . S
C1353 H1345 0.930 . S
C1353 C1351 1.419 . S
C1353 C1354 1.362 . S
C1354 H1346 0.930 . S
C1354 C1353 1.362 . S
C1354 C1357 1.409 . S
C1355 H1347 0.930 . S
C1355 C1356 1.355 . S
C1355 C1357 1.415 . S
C1356 C1355 1.355 . S
C1356 C1358 1.419 . S
C1357 C1352 1.425 . S
C1357 C1354 1.409 . S
C1357 C1355 1.415 . S
C1358 H1348 0.930 . S
C1358 C1356 1.419 . S
C1358 C1359 1.362 . S
C1359 H1349 0.930 . S
C1359 C1352 1.409 . S
C1359 C1358 1.362 . S
H1360 C1366 0.930 . S
H1361 C1369 0.930 . S
H1362 C1370 0.930 . S
H1363 C1371 0.930 . S
H1364 C1374 0.930 . S
H1365 C1375 0.930 . S
C1366 H1360 0.930 . S
C1366 C1367 1.355 . S
C1366 C1368 1.415 . S
C1367 C1366 1.355 . S
C1367 C1369 1.419 . S
C1368 C1366 1.415 . S
C1368 C1373 1.425 1_556 S
C1368 C1375 1.409 1_556 S
C1369 H1361 0.930 . S
C1369 C1367 1.419 . S
C1369 C1370 1.362 . S
C1370 H1362 0.930 . S
C1370 C1369 1.362 . S
C1370 C1373 1.409 1_556 S
C1371 H1363 0.930 . S
C1371 C1372 1.355 . S
C1371 C1373 1.415 . S
C1372 C1371 1.355 . S
C1372 C1374 1.419 . S
C1373 C1368 1.425 1_554 S
C1373 C1370 1.409 1_554 S
C1373 C1371 1.415 . S
C1374 H1364 0.930 . S
C1374 C1372 1.419 . S
C1374 C1375 1.362 . S
C1375 H1365 0.930 . S
C1375 C1368 1.409 1_554 S
C1375 C1374 1.362 . S
H1376 C1382 0.930 . S
H1377 C1385 0.930 . S
H1378 C1386 0.930 . S
H1379 C1387 0.930 . S
H1380 C1390 0.930 . S
H1381 C1391 0.930 . S
C1382 H1376 0.930 . S
C1382 C1383 1.355 . S
C1382 C1384 1.415 . S
C1383 C1382 1.355 . S
C1383 C1385 1.419 . S
C1384 C1382 1.415 . S
C1384 C1389 1.425 . S
C1384 C1391 1.409 . S
C1385 H1377 0.930 . S
C1385 C1383 1.419 . S
C1385 C1386 1.362 . S
C1386 H1378 0.930 . S
C1386 C1385 1.362 . S
C1386 C1389 1.409 . S
C1387 H1379 0.930 . S
C1387 C1388 1.355 . S
C1387 C1389 1.415 . S
C1388 C1387 1.355 . S
C1388 C1390 1.419 . S
C1389 C1384 1.425 . S
C1389 C1386 1.409 . S
C1389 C1387 1.415 . S
C1390 H1380 0.930 . S
C1390 C1388 1.419 . S
C1390 C1391 1.362 . S
C1391 H1381 0.930 . S
C1391 C1384 1.409 . S
C1391 C1390 1.362 . S
H1392 C1398 0.930 . S
H1393 C1401 0.930 . S
H1394 C1402 0.930 . S
H1395 C1403 0.930 . S
H1396 C1406 0.930 . S
H1397 C1407 0.930 . S
C1398 H1392 0.930 . S
C1398 C1399 1.355 . S
C1398 C1400 1.415 . S
C1399 C1398 1.355 . S
C1399 C1401 1.419 . S
C1400 C1398 1.415 . S
C1400 C1405 1.425 . S
C1400 C1407 1.409 . S
C1401 H1393 0.930 . S
C1401 C1399 1.419 . S
C1401 C1402 1.362 . S
C1402 H1394 0.930 . S
C1402 C1401 1.362 . S
C1402 C1405 1.409 . S
C1403 H1395 0.930 . S
C1403 C1404 1.355 . S
C1403 C1405 1.415 . S
C1404 C1403 1.355 . S
C1404 C1406 1.419 . S
C1405 C1400 1.425 . S
C1405 C1402 1.409 . S
C1405 C1403 1.415 . S
C1406 H1396 0.930 . S
C1406 C1404 1.419 . S
C1406 C1407 1.362 . S
C1407 H1397 0.930 . S
C1407 C1400 1.409 . S
C1407 C1406 1.362 . S
H1408 C1414 0.930 . S
H1409 C1417 0.930 . S
H1410 C1418 0.930 . S
H1411 C1419 0.930 . S
H1412 C1422 0.930 . S
H1413 C1423 0.930 . S
C1414 H1408 0.930 . S
C1414 C1415 1.355 . S
C1414 C1416 1.415 . S
C1415 C1414 1.355 . S
C1415 C1417 1.419 . S
C1416 C1414 1.415 . S
C1416 C1421 1.425 . S
C1416 C1423 1.409 . S
C1417 H1409 0.930 . S
C1417 C1415 1.419 . S
C1417 C1418 1.362 . S
C1418 H1410 0.930 . S
C1418 C1417 1.362 . S
C1418 C1421 1.409 . S
C1419 H1411 0.930 . S
C1419 C1420 1.355 . S
C1419 C1421 1.415 . S
C1420 C1419 1.355 . S
C1420 C1422 1.419 . S
C1421 C1416 1.425 . S
C1421 C1418 1.409 . S
C1421 C1419 1.415 . S
C1422 H1412 0.930 . S
C1422 C1420 1.419 . S
C1422 C1423 1.362 . S
C1423 H1413 0.930 . S
C1423 C1416 1.409 . S
C1423 C1422 1.362 . S
H1424 C1430 0.930 . S
H1425 C1433 0.930 . S
H1426 C1434 0.930 . S
H1427 C1435 0.930 . S
H1428 C1438 0.930 . S
H1429 C1439 0.930 . S
C1430 H1424 0.930 . S
C1430 C1431 1.355 . S
C1430 C1432 1.415 . S
C1431 C1430 1.355 . S
C1431 C1433 1.419 . S
C1432 C1430 1.415 . S
C1432 C1437 1.425 1_556 S
C1432 C1439 1.409 . S
C1433 H1425 0.930 . S
C1433 C1431 1.419 . S
C1433 C1434 1.362 1_556 S
C1434 H1426 0.930 . S
C1434 C1433 1.362 1_554 S
C1434 C1437 1.409 . S
C1435 H1427 0.930 . S
C1435 C1436 1.355 . S
C1435 C1437 1.415 . S
C1436 C1435 1.355 . S
C1436 C1438 1.419 . S
C1437 C1432 1.425 1_554 S
C1437 C1434 1.409 . S
C1437 C1435 1.415 . S
C1438 H1428 0.930 . S
C1438 C1436 1.419 . S
C1438 C1439 1.362 1_554 S
C1439 H1429 0.930 . S
C1439 C1432 1.409 . S
C1439 C1438 1.362 1_556 S
H1440 C1446 0.930 . S
H1441 C1449 0.930 . S
H1442 C1450 0.930 . S
H1443 C1451 0.930 . S
H1444 C1454 0.930 . S
H1445 C1455 0.930 . S
C1446 H1440 0.930 . S
C1446 C1447 1.355 . S
C1446 C1448 1.415 . S
C1447 C1446 1.355 . S
C1447 C1449 1.419 . S
C1448 C1446 1.415 . S
C1448 C1453 1.425 . S
C1448 C1455 1.409 . S
C1449 H1441 0.930 . S
C1449 C1447 1.419 . S
C1449 C1450 1.362 . S
C1450 H1442 0.930 . S
C1450 C1449 1.362 . S
C1450 C1453 1.409 . S
C1451 H1443 0.930 . S
C1451 C1452 1.355 . S
C1451 C1453 1.415 . S
C1452 C1451 1.355 . S
C1452 C1454 1.419 . S
C1453 C1448 1.425 . S
C1453 C1450 1.409 . S
C1453 C1451 1.415 . S
C1454 H1444 0.930 . S
C1454 C1452 1.419 . S
C1454 C1455 1.362 . S
C1455 H1445 0.930 . S
C1455 C1448 1.409 . S
C1455 C1454 1.362 . S
H1456 C1462 0.930 . S
H1457 C1465 0.930 . S
H1458 C1466 0.930 . S
H1459 C1467 0.930 . S
H1460 C1470 0.930 . S
H1461 C1471 0.930 . S
C1462 H1456 0.930 . S
C1462 C1463 1.355 . S
C1462 C1464 1.415 . S
C1463 C1462 1.355 . S
C1463 C1465 1.419 . S
C1464 C1462 1.415 . S
C1464 C1469 1.425 . S
C1464 C1471 1.409 . S
C1465 H1457 0.930 . S
C1465 C1463 1.419 . S
C1465 C1466 1.362 . S
C1466 H1458 0.930 . S
C1466 C1465 1.362 . S
C1466 C1469 1.409 . S
C1467 H1459 0.930 . S
C1467 C1468 1.355 . S
C1467 C1469 1.415 . S
C1468 C1467 1.355 . S
C1468 C1470 1.419 . S
C1469 C1464 1.425 . S
C1469 C1466 1.409 . S
C1469 C1467 1.415 . S
C1470 H1460 0.930 . S
C1470 C1468 1.419 . S
C1470 C1471 1.362 . S
C1471 H1461 0.930 . S
C1471 C1464 1.409 . S
C1471 C1470 1.362 . S
C455 C390 1.527 . S
C460 C1 1.535 . S
C471 C26 1.505 . S
C476 C112 1.477 . S
C487 C363 1.528 . S
C492 C28 1.533 . S
C503 C42 1.541 . S
C508 C153 1.524 . S
C519 C56 1.533 . S
C524 C419 1.503 . S
C535 C71 1.536 . S
C540 C208 1.508 . S
C551 C96 1.524 . S
C556 C447 1.520 . S
C567 C111 1.541 . S
C572 C181 1.526 . S
C583 C279 1.496 . S
C588 C125 1.511 . S
C599 C12 1.518 . S
C604 C139 1.539 . S
C615 C239 1.473 . S
C620 C140 1.506 . S
C631 C166 1.511 . S
C636 C41 1.471 . S
C647 C306 1.480 . S
C652 C168 1.506 . S
C663 C85 1.500 . S
C668 C182 1.533 . S
C679 C197 1.506 . S
C684 C334 1.487 . S
C695 C69 1.477 . S
C700 C222 1.517 . S
C711 C225 1.509 . S
C716 C155 1.473 . S
C727 C250 1.540 . S
C732 C336 1.525 . S
C743 C126 1.484 . S
C748 C252 1.523 . S
C759 C376 1.471 . S
C764 C266 1.509 . S
C775 C195 1.529 . S
C780 C292 1.540 . S
C791 C433 1.474 . S
C796 C295 1.511 . S
C807 C211 1.529 . S
C812 C320 1.539 . S
C823 C323 1.517 . S
C828 C405 1.506 . S
C839 C55 1.492 . S
C844 C349 1.509 . S
C855 C350 1.507 . S
C860 C236 1.474 . S
C871 C365 1.526 . S
C876 C15 1.521 . S
C887 C379 1.519 . S
C892 C265 1.479 . S
C903 C392 1.541 . S
C908 C82 1.526 . S
C919 C406 1.541 . S
C924 C309 1.524 . S
C935 C420 1.540 . S
C940 C98 1.518 . S
C951 C434 1.510 . S
C956 C281 1.491 . S
C967 C337 1.668 . S
C972 C13 1.665 . S
C983 C14 1.711 . S
C988 C127 1.711 . S
C999 C377 1.685 . S
C1004 C40 1.685 . S
C1015 C54 1.677 . S
C1020 C154 1.673 . S
C1031 C404 1.708 . S
C1036 C68 1.710 . S
C1047 C83 1.665 . S
C1052 C194 1.665 . S
C1063 C432 1.664 . S
C1068 C84 1.668 . S
C1079 C99 1.700 . S
C1084 C210 1.700 . S
C1095 C113 1.721 . S
C1100 C237 1.718 . S
C1111 C152 1.705 . S
C1116 C264 1.707 . S
C1127 C180 1.665 . S
C1132 C280 1.668 . S
C1143 C209 1.668 . S
C1148 C308 1.668 . S
C1159 C238 1.691 . S
C1164 C362 1.688 . S
C1175 C391 1.668 . S
C1180 C278 1.668 . S
C1191 C418 1.732 . S
C1196 C307 1.732 . S
C1207 C335 1.701 . S
C1212 C446 1.701 . S
C1223 C0 1.887 . S
C1228 C57 1.882 . S
C1239 C27 1.882 . S
C1244 C70 1.887 . S
C1255 C97 1.885 . S
C1260 C29 1.872 . S
C1271 C43 1.880 . S
C1276 C110 1.888 . S
C1287 C169 1.887 . S
C1292 C124 1.882 . S
C1303 C183 1.870 . S
C1308 C138 1.885 . S
C1319 C141 1.889 . S
C1324 C196 1.877 . S
C1335 C167 1.870 . S
C1340 C223 1.882 . S
C1351 C293 1.883 . S
C1356 C224 1.886 . S
C1367 C294 1.888 . S
C1372 C251 1.875 . S
C1383 C253 1.884 . S
C1388 C321 1.886 . S
C1399 C322 1.884 . S
C1404 C267 1.872 . S
C1415 C393 1.876 . S
C1420 C348 1.889 . S
C1431 C351 1.873 . S
C1436 C407 1.876 . S
C1447 C421 1.888 . S
C1452 C364 1.875 . S
C1463 C378 1.873 . S
C1468 C435 1.878 . S
