# Generated by pormake.
# Topology umv, (4)-cn, num edge types: 1
# Building blocks:
#     Node 0, Type 0, BuildingBlock: NAHDIM_clean_sbu_0, # of connection points: 4
#     Node 1, Type 0, BuildingBlock: NAHDIM_clean_sbu_0, # of connection points: 4
#     Node 2, Type 0, BuildingBlock: NAHDIM_clean_sbu_0, # of connection points: 4
#     Node 3, Type 0, BuildingBlock: NAHDIM_clean_sbu_0, # of connection points: 4
#     Node 4, Type 0, BuildingBlock: NAHDIM_clean_sbu_0, # of connection points: 4
#     Node 5, Type 0, BuildingBlock: NAHDIM_clean_sbu_0, # of connection points: 4
#     Node 6, Type 0, BuildingBlock: NAHDIM_clean_sbu_0, # of connection points: 4
#     Node 7, Type 0, BuildingBlock: NAHDIM_clean_sbu_0, # of connection points: 4
#     Node 8, Type 0, BuildingBlock: NAHDIM_clean_sbu_0, # of connection points: 4
#     Node 9, Type 0, BuildingBlock: NAHDIM_clean_sbu_0, # of connection points: 4
#     Node 10, Type 0, BuildingBlock: NAHDIM_clean_sbu_0, # of connection points: 4
#     Node 11, Type 0, BuildingBlock: NAHDIM_clean_sbu_0, # of connection points: 4
#     Node 12, Type 0, BuildingBlock: NAHDIM_clean_sbu_0, # of connection points: 4
#     Node 13, Type 0, BuildingBlock: NAHDIM_clean_sbu_0, # of connection points: 4
#     Node 14, Type 0, BuildingBlock: NAHDIM_clean_sbu_0, # of connection points: 4
#     Node 15, Type 0, BuildingBlock: NAHDIM_clean_sbu_0, # of connection points: 4
#     Node 16, Type 0, BuildingBlock: NAHDIM_clean_sbu_0, # of connection points: 4
#     Node 17, Type 0, BuildingBlock: NAHDIM_clean_sbu_0, # of connection points: 4
#     Node 18, Type 0, BuildingBlock: NAHDIM_clean_sbu_0, # of connection points: 4
#     Node 19, Type 0, BuildingBlock: NAHDIM_clean_sbu_0, # of connection points: 4
#     Node 20, Type 0, BuildingBlock: NAHDIM_clean_sbu_0, # of connection points: 4
#     Node 21, Type 0, BuildingBlock: NAHDIM_clean_sbu_0, # of connection points: 4
#     Node 22, Type 0, BuildingBlock: NAHDIM_clean_sbu_0, # of connection points: 4
#     Node 23, Type 0, BuildingBlock: NAHDIM_clean_sbu_0, # of connection points: 4
#     Node 24, Type 0, BuildingBlock: NAHDIM_clean_sbu_0, # of connection points: 4
#     Node 25, Type 0, BuildingBlock: NAHDIM_clean_sbu_0, # of connection points: 4
#     Node 26, Type 0, BuildingBlock: NAHDIM_clean_sbu_0, # of connection points: 4
#     Node 27, Type 0, BuildingBlock: NAHDIM_clean_sbu_0, # of connection points: 4
#     Node 28, Type 0, BuildingBlock: NAHDIM_clean_sbu_0, # of connection points: 4
#     Node 29, Type 0, BuildingBlock: NAHDIM_clean_sbu_0, # of connection points: 4
#     Node 30, Type 0, BuildingBlock: NAHDIM_clean_sbu_0, # of connection points: 4
#     Node 31, Type 0, BuildingBlock: NAHDIM_clean_sbu_0, # of connection points: 4
#     Edge 32, Type (0, 0), BuildingBlock: AJUNOK_clean_linker_0, # of connection points: 2
#     Edge 33, Type (0, 0), BuildingBlock: AJUNOK_clean_linker_0, # of connection points: 2
#     Edge 34, Type (0, 0), BuildingBlock: AJUNOK_clean_linker_0, # of connection points: 2
#     Edge 35, Type (0, 0), BuildingBlock: AJUNOK_clean_linker_0, # of connection points: 2
#     Edge 36, Type (0, 0), BuildingBlock: AJUNOK_clean_linker_0, # of connection points: 2
#     Edge 37, Type (0, 0), BuildingBlock: AJUNOK_clean_linker_0, # of connection points: 2
#     Edge 38, Type (0, 0), BuildingBlock: AJUNOK_clean_linker_0, # of connection points: 2
#     Edge 39, Type (0, 0), BuildingBlock: AJUNOK_clean_linker_0, # of connection points: 2
#     Edge 40, Type (0, 0), BuildingBlock: AJUNOK_clean_linker_0, # of connection points: 2
#     Edge 41, Type (0, 0), BuildingBlock: AJUNOK_clean_linker_0, # of connection points: 2
#     Edge 42, Type (0, 0), BuildingBlock: AJUNOK_clean_linker_0, # of connection points: 2
#     Edge 43, Type (0, 0), BuildingBlock: AJUNOK_clean_linker_0, # of connection points: 2
#     Edge 44, Type (0, 0), BuildingBlock: AJUNOK_clean_linker_0, # of connection points: 2
#     Edge 45, Type (0, 0), BuildingBlock: AJUNOK_clean_linker_0, # of connection points: 2
#     Edge 46, Type (0, 0), BuildingBlock: AJUNOK_clean_linker_0, # of connection points: 2
#     Edge 47, Type (0, 0), BuildingBlock: AJUNOK_clean_linker_0, # of connection points: 2
#     Edge 48, Type (0, 0), BuildingBlock: AJUNOK_clean_linker_0, # of connection points: 2
#     Edge 49, Type (0, 0), BuildingBlock: AJUNOK_clean_linker_0, # of connection points: 2
#     Edge 50, Type (0, 0), BuildingBlock: AJUNOK_clean_linker_0, # of connection points: 2
#     Edge 51, Type (0, 0), BuildingBlock: AJUNOK_clean_linker_0, # of connection points: 2
#     Edge 52, Type (0, 0), BuildingBlock: AJUNOK_clean_linker_0, # of connection points: 2
#     Edge 53, Type (0, 0), BuildingBlock: AJUNOK_clean_linker_0, # of connection points: 2
#     Edge 54, Type (0, 0), BuildingBlock: AJUNOK_clean_linker_0, # of connection points: 2
#     Edge 55, Type (0, 0), BuildingBlock: AJUNOK_clean_linker_0, # of connection points: 2
#     Edge 56, Type (0, 0), BuildingBlock: AJUNOK_clean_linker_0, # of connection points: 2
#     Edge 57, Type (0, 0), BuildingBlock: AJUNOK_clean_linker_0, # of connection points: 2
#     Edge 58, Type (0, 0), BuildingBlock: AJUNOK_clean_linker_0, # of connection points: 2
#     Edge 59, Type (0, 0), BuildingBlock: AJUNOK_clean_linker_0, # of connection points: 2
#     Edge 60, Type (0, 0), BuildingBlock: AJUNOK_clean_linker_0, # of connection points: 2
#     Edge 61, Type (0, 0), BuildingBlock: AJUNOK_clean_linker_0, # of connection points: 2
#     Edge 62, Type (0, 0), BuildingBlock: AJUNOK_clean_linker_0, # of connection points: 2
#     Edge 63, Type (0, 0), BuildingBlock: AJUNOK_clean_linker_0, # of connection points: 2
#     Edge 64, Type (0, 0), BuildingBlock: AJUNOK_clean_linker_0, # of connection points: 2
#     Edge 65, Type (0, 0), BuildingBlock: AJUNOK_clean_linker_0, # of connection points: 2
#     Edge 66, Type (0, 0), BuildingBlock: AJUNOK_clean_linker_0, # of connection points: 2
#     Edge 67, Type (0, 0), BuildingBlock: AJUNOK_clean_linker_0, # of connection points: 2
#     Edge 68, Type (0, 0), BuildingBlock: AJUNOK_clean_linker_0, # of connection points: 2
#     Edge 69, Type (0, 0), BuildingBlock: AJUNOK_clean_linker_0, # of connection points: 2
#     Edge 70, Type (0, 0), BuildingBlock: AJUNOK_clean_linker_0, # of connection points: 2
#     Edge 71, Type (0, 0), BuildingBlock: AJUNOK_clean_linker_0, # of connection points: 2
#     Edge 72, Type (0, 0), BuildingBlock: AJUNOK_clean_linker_0, # of connection points: 2
#     Edge 73, Type (0, 0), BuildingBlock: AJUNOK_clean_linker_0, # of connection points: 2
#     Edge 74, Type (0, 0), BuildingBlock: AJUNOK_clean_linker_0, # of connection points: 2
#     Edge 75, Type (0, 0), BuildingBlock: AJUNOK_clean_linker_0, # of connection points: 2
#     Edge 76, Type (0, 0), BuildingBlock: AJUNOK_clean_linker_0, # of connection points: 2
#     Edge 77, Type (0, 0), BuildingBlock: AJUNOK_clean_linker_0, # of connection points: 2
#     Edge 78, Type (0, 0), BuildingBlock: AJUNOK_clean_linker_0, # of connection points: 2
#     Edge 79, Type (0, 0), BuildingBlock: AJUNOK_clean_linker_0, # of connection points: 2
#     Edge 80, Type (0, 0), BuildingBlock: AJUNOK_clean_linker_0, # of connection points: 2
#     Edge 81, Type (0, 0), BuildingBlock: AJUNOK_clean_linker_0, # of connection points: 2
#     Edge 82, Type (0, 0), BuildingBlock: AJUNOK_clean_linker_0, # of connection points: 2
#     Edge 83, Type (0, 0), BuildingBlock: AJUNOK_clean_linker_0, # of connection points: 2
#     Edge 84, Type (0, 0), BuildingBlock: AJUNOK_clean_linker_0, # of connection points: 2
#     Edge 85, Type (0, 0), BuildingBlock: AJUNOK_clean_linker_0, # of connection points: 2
#     Edge 86, Type (0, 0), BuildingBlock: AJUNOK_clean_linker_0, # of connection points: 2
#     Edge 87, Type (0, 0), BuildingBlock: AJUNOK_clean_linker_0, # of connection points: 2
#     Edge 88, Type (0, 0), BuildingBlock: AJUNOK_clean_linker_0, # of connection points: 2
#     Edge 89, Type (0, 0), BuildingBlock: AJUNOK_clean_linker_0, # of connection points: 2
#     Edge 90, Type (0, 0), BuildingBlock: AJUNOK_clean_linker_0, # of connection points: 2
#     Edge 91, Type (0, 0), BuildingBlock: AJUNOK_clean_linker_0, # of connection points: 2
#     Edge 92, Type (0, 0), BuildingBlock: AJUNOK_clean_linker_0, # of connection points: 2
#     Edge 93, Type (0, 0), BuildingBlock: AJUNOK_clean_linker_0, # of connection points: 2
#     Edge 94, Type (0, 0), BuildingBlock: AJUNOK_clean_linker_0, # of connection points: 2
#     Edge 95, Type (0, 0), BuildingBlock: AJUNOK_clean_linker_0, # of connection points: 2
# Relax obj value: 0.136
# Max RMSD: 0.096
# Mean RMSD: 0.096
data_MOF--net-umv--node1-NAHDIM_clean_sbu_0--edge1-AJUNOK_clean_linker_0
_symmetry_space_group_name_H-M    P1
_symmetry_Int_Tables_number       1
_symmetry_cell_setting            triclinic
loop_
_symmetry_equiv_pos_as_xyz
'x, y, z'
_cell_length_a     71.884509
_cell_length_b     17.341912
_cell_length_c     58.609033
_cell_angle_alpha  89.965056
_cell_angle_beta   90.06045
_cell_angle_gamma 90.015187
loop_
_atom_site_label
_atom_site_type_symbol
_atom_site_fract_x
_atom_site_fract_y
_atom_site_fract_z
_atom_type_partial_charge
C0 C 0.00838 0.1778 0.28428 0.0
O1 O 0.00183 0.19656 0.30446 0.0
O2 O 0.0274 0.02629 0.33025 0.0
Zn3 Zn 0.03695 0.11916 0.31251 0.0
O4 O 0.03438 0.21761 0.33031 0.0
C5 C 0.07439 0.06445 0.31882 0.0
O6 O 0.06625 0.02301 0.33469 0.0
O7 O 0.02317 0.13781 0.28321 0.0
C8 C 0.04659 0.23989 0.34449 0.0
O9 O 0.06077 0.19485 0.34917 0.0
C10 C 0.0256 0.02925 0.35184 0.0
O11 O 0.02835 0.09514 0.36231 0.0
O12 O 0.06444 0.10729 0.30614 0.0
C13 C 0.2217 0.0661 0.28526 0.0
O14 O 0.22854 0.04541 0.30513 0.0
O15 O 0.2004 0.21525 0.33035 0.0
Zn16 Zn 0.19256 0.11784 0.31408 0.0
O17 O 0.19677 0.022 0.33268 0.0
C18 C 0.15448 0.10743 0.32475 0.0
O19 O 0.16207 0.09978 0.34501 0.0
O20 O 0.20639 0.1027 0.28471 0.0
C21 C 0.19861 0.01437 0.3541 0.0
O22 O 0.19862 0.07558 0.36728 0.0
C23 C 0.21484 0.22221 0.34272 0.0
O24 O 0.22629 0.16372 0.34503 0.0
O25 O 0.16498 0.12019 0.30773 0.0
C26 C 0.01131 0.04561 0.94973 0.0
O27 O 0.00641 0.02419 0.92909 0.0
O28 O 0.03689 0.20361 0.90809 0.0
Zn29 Zn 0.04233 0.10401 0.92506 0.0
O30 O 0.04001 0.01081 0.90532 0.0
C31 C 0.08098 0.15157 0.93198 0.0
O32 O 0.07578 0.2182 0.92343 0.0
O33 O 0.0259 0.08625 0.95219 0.0
C34 C 0.05008 0.00084 0.88782 0.0
O35 O 0.06107 0.05641 0.88073 0.0
C36 C 0.02942 0.20559 0.8884 0.0
O37 O 0.0238 0.14096 0.87899 0.0
O38 O 0.06893 0.09925 0.93509 0.0
C39 C 0.22925 0.20137 0.95384 0.0
O40 O 0.23532 0.21004 0.93287 0.0
O41 O 0.20578 0.05156 0.91143 0.0
Zn42 Zn 0.19854 0.14697 0.92896 0.0
O43 O 0.20232 0.2387 0.9091 0.0
C44 C 0.16043 0.09081 0.93582 0.0
O45 O 0.16723 0.02216 0.93137 0.0
O46 O 0.21381 0.1672 0.95698 0.0
C47 C 0.1968 0.30313 0.91681 0.0
O48 O 0.18863 0.30573 0.93685 0.0
C49 C 0.19987 0.0473 0.89099 0.0
O50 O 0.18962 0.10396 0.88303 0.0
O51 O 0.17134 0.14829 0.93639 0.0
C52 C 0.97689 0.82559 0.70478 0.0
O53 O 0.98175 0.8138 0.68347 0.0
O54 O 0.95545 0.99413 0.66616 0.0
Zn55 Zn 0.94716 0.89532 0.68146 0.0
O56 O 0.94783 0.80337 0.66076 0.0
C57 C 0.90989 0.9237 0.67304 0.0
O58 O 0.91788 0.94402 0.6538 0.0
O59 O 0.96251 0.86608 0.70878 0.0
C60 C 0.94663 0.79845 0.63922 0.0
O61 O 0.9456 0.86113 0.62671 0.0
C62 C 0.96771 -0.0001 0.65063 0.0
O63 O 0.97721 0.93865 0.64452 0.0
O64 O 0.92017 0.90392 0.68967 0.0
C65 C 0.76339 0.90917 0.71162 0.0
O66 O 0.75568 0.9204 0.69155 0.0
O67 O 0.78439 0.76223 0.66643 0.0
Zn68 Zn 0.79236 0.8588 0.68301 0.0
O69 O 0.78743 0.95257 0.66416 0.0
C70 C 0.82984 0.87475 0.67078 0.0
O71 O 0.82142 0.88533 0.65113 0.0
O72 O 0.77913 0.87607 0.71257 0.0
C73 C 0.79316 0.01622 0.67223 0.0
O74 O 0.80129 0.01678 0.69233 0.0
C75 C 0.78345 0.7621 0.64475 0.0
O76 O 0.78684 0.82624 0.63357 0.0
O77 O 0.82007 0.85791 0.68814 0.0
C78 C 0.97616 0.91844 0.03097 0.0
O79 O 0.98348 0.93533 0.05091 0.0
O80 O 0.95784 0.77392 0.07807 0.0
Zn81 Zn 0.94808 0.86678 0.06051 0.0
O82 O 0.95206 0.96586 0.07758 0.0
C83 C 0.91072 0.82057 0.0704 0.0
O84 O 0.91941 0.78123 0.0863 0.0
O85 O 0.96082 0.88204 0.03042 0.0
C86 C 0.94187 0.98694 0.09409 0.0
O87 O 0.9289 0.94022 0.1017 0.0
C88 C 0.96336 0.77958 0.09864 0.0
O89 O 0.9645 0.84802 0.10807 0.0
O90 O 0.9203 0.85837 0.05602 0.0
C91 C 0.76358 0.82808 0.03856 0.0
O92 O 0.75731 0.8169 0.05934 0.0
O93 O 0.78625 0.98331 0.08001 0.0
Zn94 Zn 0.79368 0.88373 0.06454 0.0
O95 O 0.79016 0.78975 0.08413 0.0
C96 C 0.83135 0.88328 0.07553 0.0
O97 O 0.82346 0.89302 0.0955 0.0
O98 O 0.77907 0.86244 0.03601 0.0
C99 C 0.79007 0.78076 0.10561 0.0
O100 O 0.79152 0.84102 0.11907 0.0
C101 C 0.77318 0.99064 0.09445 0.0
O102 O 0.76294 0.93066 0.09987 0.0
O103 O 0.82118 0.88384 0.05778 0.0
C104 C 0.01389 0.66944 0.7803 0.0
O105 O 0.00885 0.68713 0.8012 0.0
O106 O 0.03749 0.50305 0.82016 0.0
Zn107 Zn 0.04435 0.60361 0.80445 0.0
O108 O 0.04264 0.69525 0.82505 0.0
C109 C 0.08317 0.56227 0.80446 0.0
O110 O 0.07788 0.51544 0.82084 0.0
O111 O 0.02826 0.62788 0.77741 0.0
C112 C 0.052 0.70388 0.84322 0.0
O113 O 0.06285 0.64805 0.85047 0.0
C114 C 0.03058 0.49918 0.84011 0.0
O115 O 0.02666 0.56318 0.85105 0.0
O116 O 0.07098 0.6025 0.79425 0.0
C117 C 0.23018 0.56596 0.78877 0.0
O118 O 0.23612 0.55462 0.80969 0.0
O119 O 0.20196 0.74695 0.82293 0.0
Zn120 Zn 0.20006 0.63603 0.81287 0.0
O121 O 0.20678 0.56744 0.83877 0.0
C122 C 0.16113 0.6471 0.79677 0.0
O123 O 0.16558 0.71424 0.78792 0.0
O124 O 0.21549 0.60557 0.78569 0.0
C125 C 0.19671 0.56683 0.85651 0.0
O126 O 0.18292 0.61625 0.85807 0.0
C127 C 0.21274 0.76555 0.83925 0.0
O128 O 0.22401 0.71317 0.84769 0.0
O129 O 0.1735 0.60808 0.807 0.0
C130 C 0.0225 0.57359 0.45752 0.0
O131 O 0.01591 0.55507 0.43733 0.0
O132 O 0.04372 0.73439 0.41476 0.0
Zn133 Zn 0.05132 0.63413 0.42967 0.0
O134 O 0.04713 0.54244 0.40938 0.0
C135 C 0.08939 0.62007 0.41932 0.0
O136 O 0.08193 0.61498 0.39892 0.0
O137 O 0.0374 0.61288 0.45868 0.0
C138 C 0.04427 0.53959 0.38802 0.0
O139 O 0.04343 0.60356 0.37607 0.0
C140 C 0.02877 0.74422 0.40349 0.0
O141 O 0.01673 0.6875 0.40181 0.0
O142 O 0.07887 0.63348 0.43627 0.0
C143 C 0.23654 0.65495 0.45881 0.0
O144 O 0.24289 0.66965 0.43825 0.0
O145 O 0.2148 0.50557 0.41516 0.0
Zn146 Zn 0.20645 0.60191 0.43207 0.0
O147 O 0.20937 0.69772 0.41304 0.0
C148 C 0.16847 0.55405 0.42678 0.0
O149 O 0.17606 0.50904 0.41136 0.0
O150 O 0.221 0.62051 0.46076 0.0
C151 C 0.19822 0.71272 0.39682 0.0
O152 O 0.18522 0.66262 0.39154 0.0
C153 C 0.21929 0.50696 0.39417 0.0
O154 O 0.22011 0.57336 0.38347 0.0
O155 O 0.17898 0.59589 0.43906 0.0
C156 C 0.97404 0.31776 0.20418 0.0
O157 O 0.97979 0.30268 0.1834 0.0
O158 O 0.95164 0.48405 0.16412 0.0
Zn159 Zn 0.94439 0.38274 0.17868 0.0
O160 O 0.94713 0.29197 0.15768 0.0
C161 C 0.90632 0.38301 0.1691 0.0
O162 O 0.91364 0.38798 0.14863 0.0
O163 O 0.95929 0.3573 0.20674 0.0
C164 C 0.9482 0.28842 0.13609 0.0
O165 O 0.94807 0.35198 0.12391 0.0
C166 C 0.96518 0.49495 0.15055 0.0
O167 O 0.97631 0.43744 0.14548 0.0
O168 O 0.91708 0.38426 0.18631 0.0
C169 C 0.76045 0.41985 0.21195 0.0
O170 O 0.75326 0.43659 0.19194 0.0
O171 O 0.78017 0.27047 0.16624 0.0
Zn172 Zn 0.78899 0.366 0.18311 0.0
O173 O 0.78512 0.46264 0.16482 0.0
C174 C 0.82684 0.3241 0.17458 0.0
O175 O 0.81891 0.28483 0.15806 0.0
O176 O 0.77573 0.38313 0.2127 0.0
C177 C 0.79351 0.47588 0.14619 0.0
O178 O 0.80457 0.4231 0.13764 0.0
C179 C 0.7722 0.27379 0.14687 0.0
O180 O 0.76779 0.34121 0.13825 0.0
O181 O 0.81663 0.36045 0.1886 0.0
C182 C 0.98603 0.44463 0.53765 0.0
O183 O 0.99116 0.46273 0.55849 0.0
O184 O 0.96233 0.28881 0.57926 0.0
Zn185 Zn 0.95511 0.38637 0.56218 0.0
O186 O 0.95717 0.48098 0.58161 0.0
C187 C 0.91636 0.33796 0.56063 0.0
O188 O 0.92189 0.28377 0.57477 0.0
O189 O 0.97118 0.40597 0.53485 0.0
C190 C 0.94486 0.49773 0.59629 0.0
O191 O 0.93114 0.44934 0.60009 0.0
C192 C 0.96615 0.28885 0.60047 0.0
O193 O 0.96616 0.35446 0.61163 0.0
O194 O 0.92832 0.38395 0.55233 0.0
C195 C 0.76833 0.29243 0.54347 0.0
O196 O 0.76172 0.28548 0.56425 0.0
O197 O 0.79297 0.46161 0.58042 0.0
Zn198 Zn 0.79855 0.35508 0.56849 0.0
O199 O 0.79253 0.27777 0.59246 0.0
C200 C 0.83668 0.39507 0.55571 0.0
O201 O 0.82976 0.46347 0.55115 0.0
O202 O 0.78388 0.32607 0.54063 0.0
C203 C 0.79967 0.27992 0.61222 0.0
O204 O 0.8113 0.33583 0.61733 0.0
C205 C 0.78065 0.47142 0.59571 0.0
O206 O 0.77048 0.41242 0.60217 0.0
O207 O 0.82586 0.34219 0.56264 0.0
C208 C 0.51169 0.2112 0.79493 0.0
O209 O 0.5068 0.23434 0.8154 0.0
O210 O 0.53659 0.05648 0.83771 0.0
Zn211 Zn 0.54271 0.15465 0.82018 0.0
O212 O 0.54062 0.2495 0.83949 0.0
C213 C 0.58132 0.10491 0.81569 0.0
O214 O 0.57586 0.04342 0.82694 0.0
O215 O 0.52637 0.17095 0.79279 0.0
C216 C 0.55225 0.26245 0.85532 0.0
O217 O 0.56488 0.21025 0.86024 0.0
C218 C 0.53094 0.05695 0.85829 0.0
O219 O 0.52775 0.12329 0.86832 0.0
O220 O 0.56941 0.15556 0.81015 0.0
C221 C 0.72955 0.05615 0.79062 0.0
O222 O 0.73654 0.04887 0.81122 0.0
O223 O 0.70667 0.19839 0.83446 0.0
Zn224 Zn 0.69921 0.10276 0.81728 0.0
O225 O 0.70431 0.01094 0.83666 0.0
C226 C 0.66108 0.15767 0.80985 0.0
O227 O 0.66826 0.22721 0.81098 0.0
O228 O 0.71347 0.08575 0.78842 0.0
C229 C 0.69976 0.94574 0.82856 0.0
O230 O 0.69192 0.94243 0.80832 0.0
C231 C 0.70177 0.20152 0.85529 0.0
O232 O 0.69227 0.14362 0.86384 0.0
O233 O 0.67174 0.09963 0.81146 0.0
C234 C 0.52021 0.06995 0.45708 0.0
O235 O 0.51441 0.05405 0.43636 0.0
O236 O 0.54308 0.23472 0.41665 0.0
Zn237 Zn 0.54985 0.13304 0.43128 0.0
O238 O 0.54632 0.04325 0.41009 0.0
C239 C 0.58753 0.12215 0.421 0.0
O240 O 0.57993 0.12781 0.40069 0.0
O241 O 0.53503 0.10921 0.4595 0.0
C242 C 0.54385 0.04115 0.38865 0.0
O243 O 0.54267 0.10551 0.37693 0.0
C244 C 0.52851 0.2465 0.40482 0.0
O245 O 0.5162 0.1911 0.40246 0.0
O246 O 0.57726 0.12973 0.43849 0.0
C247 C 0.73257 0.14901 0.46502 0.0
O248 O 0.73974 0.16133 0.44472 0.0
O249 O 0.7131 -0.00022 0.42064 0.0
Zn250 Zn 0.70368 0.09553 0.4369 0.0
O251 O 0.70728 0.19149 0.4182 0.0
C252 C 0.66613 0.04748 0.42877 0.0
O253 O 0.67455 0.00306 0.41387 0.0
O254 O 0.71693 0.11516 0.46638 0.0
C255 C 0.69705 0.20668 0.40111 0.0
O256 O 0.6845 0.15635 0.39454 0.0
C257 C 0.71897 0.00163 0.40017 0.0
O258 O 0.72037 0.06822 0.38967 0.0
O259 O 0.67597 0.08866 0.44203 0.0
C260 C 0.47781 0.79746 0.2021 0.0
O261 O 0.48381 0.78053 0.18155 0.0
O262 O 0.45593 0.94484 0.15779 0.0
Zn263 Zn 0.44749 0.85127 0.17576 0.0
O264 O 0.45082 0.75586 0.15687 0.0
C265 C 0.40978 0.91447 0.18081 0.0
O266 O 0.41702 0.979 0.17315 0.0
O267 O 0.46256 0.83394 0.20411 0.0
C268 C 0.43736 0.72474 0.14631 0.0
O269 O 0.42087 0.75727 0.14691 0.0
C270 C 0.45106 0.94979 0.13697 0.0
O271 O 0.44075 0.89464 0.12825 0.0
O272 O 0.42028 0.85652 0.18387 0.0
C273 C 0.25995 0.96344 0.20312 0.0
O274 O 0.25359 0.97829 0.18256 0.0
O275 O 0.28415 0.82063 0.15963 0.0
Zn276 Zn 0.2909 0.91892 0.17659 0.0
O277 O 0.28657 0.01329 0.15767 0.0
C278 C 0.32959 0.86739 0.18239 0.0
O279 O 0.32331 0.79824 0.17742 0.0
O280 O 0.27591 0.93259 0.20511 0.0
C281 C 0.29768 0.02979 0.14159 0.0
O282 O 0.31119 0.98178 0.13652 0.0
C283 C 0.27821 0.82051 0.13916 0.0
O284 O 0.27584 0.8864 0.12852 0.0
O285 O 0.31821 0.92304 0.18388 0.0
C286 C 0.48496 0.93781 0.53765 0.0
O287 O 0.49059 0.96124 0.55782 0.0
O288 O 0.46407 0.77755 0.58157 0.0
Zn289 Zn 0.45576 0.87403 0.56461 0.0
O290 O 0.45767 0.96954 0.58382 0.0
C291 C 0.41761 0.82054 0.56585 0.0
O292 O 0.42407 0.77562 0.58206 0.0
O293 O 0.47074 0.89445 0.53639 0.0
C294 C 0.44616 0.98491 0.59956 0.0
O295 O 0.43299 0.93512 0.60449 0.0
C296 C 0.46807 0.77798 0.60273 0.0
O297 O 0.468 0.8437 0.61382 0.0
O298 O 0.42879 0.86535 0.55556 0.0
C299 C 0.27123 0.78347 0.54028 0.0
O300 O 0.26327 0.77072 0.56009 0.0
O301 O 0.29313 0.95479 0.58064 0.0
Zn302 Zn 0.29902 0.84759 0.56938 0.0
O303 O 0.29148 0.7711 0.593 0.0
C304 C 0.33794 0.8653 0.55345 0.0
O305 O 0.33171 0.91602 0.53864 0.0
O306 O 0.28659 0.81975 0.53978 0.0
C307 C 0.29918 0.77451 0.61246 0.0
O308 O 0.31112 0.83017 0.61655 0.0
C309 C 0.28045 0.96517 0.59546 0.0
O310 O 0.27007 0.90649 0.60166 0.0
O311 O 0.32661 0.83306 0.56701 0.0
C312 C 0.51275 0.67351 0.28402 0.0
O313 O 0.50576 0.69301 0.3039 0.0
O314 O 0.53109 0.52761 0.33118 0.0
Zn315 Zn 0.54101 0.61938 0.31331 0.0
O316 O 0.53776 0.71874 0.33051 0.0
C317 C 0.57843 0.56672 0.32106 0.0
O318 O 0.57012 0.52685 0.33714 0.0
O319 O 0.5278 0.63512 0.28354 0.0
C320 C 0.54986 0.74349 0.34448 0.0
O321 O 0.56445 0.7008 0.34921 0.0
C322 C 0.52938 0.53102 0.35277 0.0
O323 O 0.53284 0.59643 0.3632 0.0
O324 O 0.56861 0.60781 0.30774 0.0
C325 C 0.72612 0.55319 0.29279 0.0
O326 O 0.73191 0.53639 0.31346 0.0
O327 O 0.70427 0.71082 0.33488 0.0
Zn328 Zn 0.69641 0.61322 0.31877 0.0
O329 O 0.69897 0.51835 0.33817 0.0
C330 C 0.65831 0.61294 0.32807 0.0
O331 O 0.66555 0.61175 0.34865 0.0
O332 O 0.71124 0.59207 0.29049 0.0
C333 C 0.69985 0.51022 0.35965 0.0
O334 O 0.69982 0.57119 0.37293 0.0
C335 C 0.71791 0.71689 0.34859 0.0
O336 O 0.72868 0.65711 0.35241 0.0
O337 O 0.66914 0.61825 0.31103 0.0
C338 C 0.51518 0.58329 0.96038 0.0
O339 O 0.51209 0.56948 0.93868 0.0
O340 O 0.53956 0.75794 0.92521 0.0
Zn341 Zn 0.54649 0.65762 0.94094 0.0
O342 O 0.54762 0.56663 0.91987 0.0
C343 C 0.58476 0.69181 0.94054 0.0
O344 O 0.57968 0.71866 0.92051 0.0
O345 O 0.52879 0.62648 0.96583 0.0
C346 C 0.55247 0.56176 0.89912 0.0
O347 O 0.557 0.62412 0.88768 0.0
C348 C 0.52995 0.76427 0.90707 0.0
O349 O 0.52286 0.70216 0.89765 0.0
O350 O 0.57231 0.66551 0.95377 0.0
C351 C 0.72907 0.68124 0.95974 0.0
O352 O 0.73628 0.69419 0.93951 0.0
O353 O 0.7039 0.50208 0.9225 0.0
Zn354 Zn 0.70056 0.61226 0.93252 0.0
O355 O 0.70815 0.68349 0.90756 0.0
C356 C 0.6635 0.63099 0.954 0.0
O357 O 0.67118 0.611 0.97347 0.0
O358 O 0.71414 0.64224 0.96117 0.0
C359 C 0.69942 0.68183 0.88876 0.0
O360 O 0.68652 0.62912 0.88571 0.0
C361 C 0.71484 0.48425 0.9063 0.0
O362 O 0.72567 0.53771 0.8976 0.0
O363 O 0.67334 0.63312 0.93604 0.0
C364 C 0.47504 0.3245 0.71273 0.0
O365 O 0.48139 0.3015 0.69285 0.0
O366 O 0.45526 0.48394 0.66807 0.0
Zn367 Zn 0.44692 0.38607 0.6839 0.0
O368 O 0.44964 0.29104 0.66463 0.0
C369 C 0.40942 0.41157 0.67311 0.0
O370 O 0.41763 0.4325 0.65407 0.0
O371 O 0.46053 0.36634 0.71326 0.0
C372 C 0.44835 0.28484 0.64311 0.0
O373 O 0.44617 0.3467 0.63046 0.0
C374 C 0.46795 0.48938 0.65305 0.0
O375 O 0.47775 0.42822 0.64762 0.0
O376 O 0.41949 0.39235 0.68999 0.0
C377 C 0.26261 0.40604 0.71097 0.0
O378 O 0.25514 0.41739 0.69078 0.0
O379 O 0.28345 0.25676 0.666 0.0
Zn380 Zn 0.29158 0.35312 0.68266 0.0
O381 O 0.28722 0.44738 0.66374 0.0
C382 C 0.3292 0.36618 0.67051 0.0
O383 O 0.32085 0.37678 0.65082 0.0
O384 O 0.2782 0.37167 0.71218 0.0
C385 C 0.29291 0.51016 0.67245 0.0
O386 O 0.30019 0.5087 0.69302 0.0
C387 C 0.28269 0.2564 0.6443 0.0
O388 O 0.28624 0.32038 0.63312 0.0
O389 O 0.31932 0.35059 0.6879 0.0
C390 C 0.47614 0.4165 0.03226 0.0
O391 O 0.48077 0.43106 0.05351 0.0
O392 O 0.45012 0.24457 0.06974 0.0
Zn393 Zn 0.44554 0.34815 0.05506 0.0
O394 O 0.44714 0.43561 0.07727 0.0
C395 C 0.40819 0.35199 0.06355 0.0
O396 O 0.41569 0.33628 0.08347 0.0
O397 O 0.46188 0.37507 0.0284 0.0
C398 C 0.44993 0.43735 0.09863 0.0
O399 O 0.45401 0.37399 0.10981 0.0
C400 C 0.46376 0.22507 0.0823 0.0
O401 O 0.47764 0.27332 0.08523 0.0
O402 O 0.41864 0.35406 0.04609 0.0
C403 C 0.26357 0.35917 0.03085 0.0
O404 O 0.25809 0.34047 0.0515 0.0
O405 O 0.28572 0.52744 0.07201 0.0
Zn406 Zn 0.29273 0.42753 0.05643 0.0
O407 O 0.29092 0.33503 0.07687 0.0
C408 C 0.33083 0.44839 0.06383 0.0
O409 O 0.32387 0.47422 0.08309 0.0
O410 O 0.27765 0.40289 0.02859 0.0
C411 C 0.29378 0.32933 0.09817 0.0
O412 O 0.29727 0.39117 0.11035 0.0
C413 C 0.27437 0.53303 0.08854 0.0
O414 O 0.26511 0.47182 0.09527 0.0
O415 O 0.31971 0.42958 0.04795 0.0
C416 C 0.10511 0.04553 0.3377 0.0
C417 C 0.09494 0.07155 0.31868 0.0
C418 C 0.12428 0.05768 0.33937 0.0
C419 C 0.1342 0.0955 0.32197 0.0
H420 H 0.09819 0.01715 0.3518 0.0
H421 H 0.13136 0.03707 0.35452 0.0
S422 S 0.11437 0.17145 0.26797 0.0
N423 N 0.09633 0.13485 0.28164 0.0
N424 N 0.13255 0.15669 0.28467 0.0
C425 C 0.12435 0.12003 0.30252 0.0
C426 C 0.1047 0.10836 0.30091 0.0
C427 C 0.13311 0.17991 0.93688 0.0
C428 C 0.14006 0.10392 0.9373 0.0
C429 C 0.11399 0.19473 0.93583 0.0
C430 C 0.10099 0.13427 0.93542 0.0
H431 H 0.14251 0.22876 0.93664 0.0
H432 H 0.1094 0.25416 0.93493 0.0
S433 S 0.11179 0.92474 0.93776 0.0
N434 N 0.13231 0.9674 0.93838 0.0
N435 N 0.09636 0.99508 0.93658 0.0
C436 C 0.10767 0.05793 0.93677 0.0
C437 C 0.1272 0.04282 0.93765 0.0
C438 C 0.87889 0.93054 0.65421 0.0
C439 C 0.88939 0.91492 0.67394 0.0
C440 C 0.85975 0.91707 0.6535 0.0
C441 C 0.85017 0.8877 0.67253 0.0
H442 H 0.88551 0.95234 0.63891 0.0
H443 H 0.85247 0.92983 0.63776 0.0
S444 S 0.87095 0.83967 0.72879 0.0
N445 N 0.88868 0.87018 0.71332 0.0
N446 N 0.85254 0.84524 0.71201 0.0
C447 C 0.86037 0.87314 0.6926 0.0
C448 C 0.87999 0.88671 0.6933 0.0
C449 C 0.88072 0.86581 0.05303 0.0
C450 C 0.89024 0.83085 0.07135 0.0
C451 C 0.86161 0.8818 0.05431 0.0
C452 C 0.8514 0.86474 0.07412 0.0
H453 H 0.88811 0.88167 0.03762 0.0
H454 H 0.85488 0.90918 0.03988 0.0
S455 S 0.86935 0.76906 0.12639 0.0
N456 N 0.88764 0.77648 0.10955 0.0
N457 N 0.85191 0.80739 0.112 0.0
C458 C 0.86063 0.82847 0.09238 0.0
C459 C 0.87999 0.8112 0.09097 0.0
C460 C 0.10871 0.6445 0.78865 0.0
C461 C 0.1032 0.57732 0.80037 0.0
C462 C 0.12749 0.6654 0.78696 0.0
C463 C 0.14155 0.61976 0.7968 0.0
H464 H 0.09841 0.68301 0.78141 0.0
H465 H 0.13093 0.71887 0.77838 0.0
S466 S 0.13461 0.43341 0.82711 0.0
N467 N 0.11341 0.46197 0.82037 0.0
N468 N 0.14868 0.5006 0.81714 0.0
C469 C 0.13628 0.55033 0.80759 0.0
C470 C 0.11713 0.52931 0.80939 0.0
C471 C 0.11889 0.56232 0.40519 0.0
C472 C 0.10942 0.60284 0.4224 0.0
C473 C 0.13777 0.54434 0.40727 0.0
C474 C 0.14809 0.56705 0.42653 0.0
H475 H 0.11168 0.54395 0.38988 0.0
H476 H 0.14439 0.51409 0.3933 0.0
S477 S 0.12977 0.67236 0.47685 0.0
N478 N 0.11162 0.66319 0.45976 0.0
N479 N 0.1473 0.63049 0.46354 0.0
C480 C 0.13877 0.6067 0.44408 0.0
C481 C 0.11939 0.62426 0.44206 0.0
C482 C 0.87624 0.33827 0.1528 0.0
C483 C 0.88616 0.36798 0.17154 0.0
C484 C 0.85724 0.32205 0.15429 0.0
C485 C 0.84725 0.33589 0.17448 0.0
H486 H 0.88321 0.32686 0.13677 0.0
H487 H 0.85027 0.30007 0.13923 0.0
S488 S 0.8667 0.4121 0.22866 0.0
N489 N 0.88468 0.40915 0.21115 0.0
N490 N 0.84875 0.3799 0.21386 0.0
C491 C 0.85698 0.3651 0.19347 0.0
C492 C 0.87647 0.38075 0.19203 0.0
C493 C 0.88326 0.29518 0.56354 0.0
C494 C 0.89621 0.35161 0.5569 0.0
C495 C 0.8641 0.3091 0.5624 0.0
C496 C 0.85703 0.38036 0.55473 0.0
H497 H 0.88794 0.24006 0.57009 0.0
H498 H 0.85479 0.26397 0.56815 0.0
S499 S 0.88505 0.54658 0.53434 0.0
N500 N 0.90059 0.48084 0.54149 0.0
N501 N 0.86458 0.50705 0.53945 0.0
C502 C 0.8698 0.43663 0.54738 0.0
C503 C 0.88937 0.42224 0.54842 0.0
C504 C 0.63334 0.07113 0.81265 0.0
C505 C 0.64063 0.14566 0.80912 0.0
C506 C 0.61416 0.0583 0.81411 0.0
C507 C 0.60141 0.11924 0.81186 0.0
H508 H 0.64252 0.0222 0.81495 0.0
H509 H 0.60931 0.00019 0.8174 0.0
S510 S 0.61313 0.32481 0.80105 0.0
N511 N 0.63347 0.28089 0.80239 0.0
N512 N 0.59739 0.2568 0.80498 0.0
C513 C 0.60843 0.19372 0.80749 0.0
C514 C 0.62803 0.20691 0.80618 0.0
C515 C 0.63653 0.10219 0.4446 0.0
C516 C 0.64574 0.06007 0.42743 0.0
C517 C 0.61762 0.12121 0.44264 0.0
C518 C 0.60731 0.10004 0.42324 0.0
H519 H 0.64404 0.12155 0.45958 0.0
H520 H 0.61115 0.15425 0.45616 0.0
S521 S 0.62435 0.98499 0.37411 0.0
N522 N 0.64265 0.9943 0.39089 0.0
N523 N 0.60731 0.03088 0.38715 0.0
C524 C 0.61619 0.05642 0.4062 0.0
C525 C 0.63533 0.03611 0.40833 0.0
C526 C 0.36231 0.81969 0.18591 0.0
C527 C 0.3499 0.88199 0.184 0.0
C528 C 0.38161 0.83121 0.18568 0.0
C529 C 0.38933 0.90549 0.18327 0.0
H530 H 0.35712 0.76123 0.18728 0.0
H531 H 0.39051 0.78093 0.18675 0.0
S532 S 0.3629 0.08876 0.17865 0.0
N533 N 0.34675 0.02141 0.18049 0.0
N534 N 0.38298 0.04279 0.1799 0.0
C535 C 0.37709 0.96861 0.18195 0.0
C536 C 0.35741 0.95695 0.18236 0.0
C537 C 0.37117 0.89514 0.54397 0.0
C538 C 0.35815 0.84857 0.5554 0.0
C539 C 0.39034 0.88407 0.5469 0.0
C540 C 0.3973 0.8259 0.56138 0.0
H541 H 0.36656 0.9419 0.53308 0.0
H542 H 0.39975 0.9229 0.53816 0.0
S543 S 0.36906 0.68315 0.59353 0.0
N544 N 0.35361 0.7382 0.58055 0.0
N545 N 0.38957 0.71755 0.58602 0.0
C546 C 0.38444 0.77691 0.57222 0.0
C547 C 0.36491 0.78822 0.56925 0.0
C548 C 0.6279 0.56712 0.34307 0.0
C549 C 0.63807 0.60062 0.32513 0.0
C550 C 0.60879 0.55397 0.34116 0.0
C551 C 0.59894 0.57476 0.32135 0.0
H552 H 0.63475 0.5505 0.3588 0.0
H553 H 0.60164 0.52899 0.35565 0.0
S554 S 0.61912 0.66251 0.26914 0.0
N555 N 0.63702 0.65241 0.28658 0.0
N556 N 0.60088 0.62888 0.2831 0.0
C557 C 0.60894 0.60749 0.3031 0.0
C558 C 0.62855 0.62005 0.30496 0.0
C559 C 0.637 0.68981 0.93283 0.0
C560 C 0.64351 0.65116 0.9524 0.0
C561 C 0.61811 0.70544 0.92973 0.0
C562 C 0.60481 0.6827 0.94597 0.0
H563 H 0.64656 0.70739 0.91952 0.0
H564 H 0.6139 0.73385 0.91408 0.0
S565 S 0.61465 0.58391 0.00096 0.0
N566 N 0.63526 0.59388 0.9889 0.0
N567 N 0.5996 0.62286 0.98304 0.0
C568 C 0.61115 0.64643 0.96607 0.0
C569 C 0.63051 0.63079 0.96928 0.0
C570 C 0.3594 0.40404 0.65301 0.0
C571 C 0.34959 0.37761 0.67225 0.0
C572 C 0.37858 0.4165 0.65375 0.0
C573 C 0.3889 0.4028 0.67374 0.0
H574 H 0.35225 0.41536 0.63708 0.0
H575 H 0.38537 0.43617 0.63831 0.0
S576 S 0.36989 0.33505 0.72916 0.0
N577 N 0.35159 0.33961 0.71216 0.0
N578 N 0.3878 0.36269 0.71355 0.0
C579 C 0.37929 0.37722 0.69328 0.0
C580 C 0.35963 0.36468 0.69253 0.0
C581 C 0.36154 0.42897 0.08253 0.0
C582 C 0.35085 0.42891 0.06243 0.0
C583 C 0.37995 0.40337 0.08258 0.0
C584 C 0.38858 0.37744 0.06248 0.0
H585 H 0.35557 0.44721 0.09861 0.0
H586 H 0.38748 0.40438 0.0986 0.0
S587 S 0.36712 0.36941 0.00495 0.0
N588 N 0.35046 0.40295 0.0216 0.0
N589 N 0.38533 0.35578 0.02169 0.0
C590 C 0.3783 0.37898 0.04207 0.0
C591 C 0.35938 0.40443 0.04205 0.0
C592 C 0.98407 0.2587 0.26536 0.0
C593 C -0.00027 0.21039 0.26339 0.0
C594 C 0.97611 0.29403 0.24622 0.0
C595 C 0.98343 0.2826 0.22423 0.0
H596 H 0.9779 0.26996 0.28188 0.0
H597 H 0.96402 0.33031 0.24876 0.0
S598 S 0.02438 0.16145 0.20964 0.0
N599 N 0.02231 0.15296 0.23756 0.0
N600 N 0.00738 0.21933 0.20159 0.0
C601 C -0.00089 0.23442 0.22195 0.0
C602 C 0.00722 0.19828 0.2415 0.0
C603 C 0.24813 0.00202 0.26516 0.0
C604 C 0.2311 0.04187 0.26392 0.0
C605 C 0.25715 0.97595 0.24548 0.0
C606 C 0.24954 0.9885 0.22366 0.0
H607 H 0.25463 0.99064 0.2815 0.0
H608 H 0.27028 0.94605 0.24745 0.0
S609 S 0.20505 0.08898 0.21095 0.0
N610 N 0.20684 0.09208 0.239 0.0
N611 N 0.22376 0.04303 0.20199 0.0
C612 C 0.23244 0.02795 0.22212 0.0
C613 C 0.22326 0.05471 0.24223 0.0
C614 C 0.00877 0.02854 0.99194 0.0
C615 C 0.00148 0.01482 0.97003 0.0
C616 C 0.00063 0.9961 0.01138 0.0
C617 C 0.98479 0.9487 0.0098 0.0
H618 H 0.02105 0.06398 0.99419 0.0
H619 H 0.00685 0.00878 0.02779 0.0
S620 S 0.95992 0.89579 0.95648 0.0
N621 N 0.97722 0.95122 0.94791 0.0
N622 N 0.96191 0.89034 0.98449 0.0
C623 C 0.97721 0.93484 0.98802 0.0
C624 C 0.98554 0.96792 0.96816 0.0
C625 C 0.23195 0.23098 0.99547 0.0
C626 C 0.23875 0.24031 0.97314 0.0
C627 C 0.23985 0.2708 0.01386 0.0
C628 C 0.25486 0.32186 0.01072 0.0
H629 H 0.22035 0.1928 -0.00115 0.0
H630 H 0.23412 0.26099 0.0307 0.0
S631 S 0.27782 0.36763 0.95559 0.0
N632 N 0.26142 0.305 0.94889 0.0
N633 N 0.2762 0.37987 0.98343 0.0
C634 C 0.2618 0.33202 0.98846 0.0
C635 C 0.25379 0.29116 0.96971 0.0
C636 C 0.98088 0.79609 0.74631 0.0
C637 C 0.98681 0.78584 0.72364 0.0
C638 C 0.98945 0.75686 0.76437 0.0
C639 C 0.00432 0.70563 0.76057 0.0
H640 H 0.96948 0.83469 0.75022 0.0
H641 H 0.98442 0.76752 0.78149 0.0
S642 S 0.02502 0.65713 0.70432 0.0
N643 N 0.00844 0.71973 0.69835 0.0
N644 N 0.02448 0.64601 0.73227 0.0
C645 C 0.01033 0.69429 0.73796 0.0
C646 C 0.00162 0.73444 0.71953 0.0
C647 C 0.73022 0.02183 0.74922 0.0
C648 C 0.73893 0.02053 0.77072 0.0
C649 C 0.73806 0.98432 0.73042 0.0
C650 C 0.75497 0.94386 0.73228 0.0
H651 H 0.71711 0.05158 0.74683 0.0
H652 H 0.73079 0.98756 0.71425 0.0
S653 S 0.78355 0.92317 0.78478 0.0
N654 N 0.76555 0.97559 0.79277 0.0
N655 N 0.78027 0.90504 0.75744 0.0
C656 C 0.76388 0.94207 0.75368 0.0
C657 C 0.7559 0.9805 0.77286 0.0
C658 C 0.754 0.76045 0.97808 0.0
C659 C 0.7375 0.7173 0.98025 0.0
C660 C 0.76205 0.79743 0.99689 0.0
C661 C 0.75396 0.79292 0.01869 0.0
H662 H 0.76085 0.76585 0.9617 0.0
H663 H 0.77487 0.82911 0.99427 0.0
S664 S 0.71037 0.68902 0.03352 0.0
N665 N 0.71311 0.67347 0.00595 0.0
N666 N 0.7282 0.74297 0.04128 0.0
C667 C 0.73733 0.75065 0.0211 0.0
C668 C 0.72914 0.71279 0.00192 0.0
C669 C 0.23137 0.53222 0.74732 0.0
C670 C 0.23909 0.52566 0.7693 0.0
C671 C 0.2388 0.49177 0.72879 0.0
C672 C 0.25433 0.44311 0.73139 0.0
H673 H 0.21937 0.56866 0.74431 0.0
H674 H 0.23237 0.49962 0.71223 0.0
S675 S 0.27973 0.40474 0.78544 0.0
N676 N 0.26315 0.46582 0.79265 0.0
N677 N 0.27712 0.38996 0.75781 0.0
C678 C 0.26219 0.4356 0.75329 0.0
C679 C 0.2546 0.47687 0.77221 0.0
C680 C -0.00242 0.49607 0.47636 0.0
C681 C 0.0135 0.54287 0.4784 0.0
C682 C 0.98909 0.4634 0.49554 0.0
C683 C 0.99612 0.47616 0.51763 0.0
H684 H 0.99157 0.48417 0.45978 0.0
H685 H 0.97679 0.42838 0.49295 0.0
S686 S 0.03768 0.59354 0.5324 0.0
N687 N 0.0361 0.59981 0.50437 0.0
N688 N 0.02015 0.53843 0.54043 0.0
C689 C 0.01211 0.52253 0.51997 0.0
C690 C 0.02077 0.55593 0.50038 0.0
C691 C 0.23787 0.67811 0.5009 0.0
C692 C 0.24621 0.68546 0.4793 0.0
C693 C 0.24601 0.71048 0.52037 0.0
C694 C 0.26287 0.75156 0.51913 0.0
H695 H 0.22478 0.64786 0.50284 0.0
H696 H 0.23893 0.70319 0.53653 0.0
S697 S 0.29077 0.78552 0.46675 0.0
N698 N 0.2726 0.73563 0.45789 0.0
N699 N 0.28789 0.79644 0.49449 0.0
C700 C 0.27151 0.75872 0.49768 0.0
C701 C 0.26321 0.72565 0.4778 0.0
C702 C 0.7357 0.49642 0.23141 0.0
C703 C 0.75186 0.45096 0.23302 0.0
C704 C 0.72773 0.53031 0.25073 0.0
C705 C 0.73555 0.52012 0.27254 0.0
H706 H 0.72911 0.50651 0.21505 0.0
H707 H 0.71522 0.56434 0.24849 0.0
S708 S 0.77799 0.40659 0.28616 0.0
N709 N 0.7755 0.39767 0.2583 0.0
N710 N 0.76054 0.46135 0.29461 0.0
C711 C 0.75175 0.47484 0.27445 0.0
C712 C 0.75988 0.44022 0.25472 0.0
C713 C 0.76605 0.26372 0.50177 0.0
C714 C 0.7587 0.25577 0.52388 0.0
C715 C 0.7577 0.22765 0.48303 0.0
C716 C 0.74163 0.18208 0.48555 0.0
H717 H 0.77839 0.29812 0.49883 0.0
H718 H 0.76388 0.2364 0.46638 0.0
S719 S 0.71705 0.14089 0.53992 0.0
N720 N 0.7345 0.19745 0.54731 0.0
N721 N 0.71882 0.12976 0.51205 0.0
C722 C 0.73418 0.17298 0.50759 0.0
C723 C 0.74268 0.20985 0.52673 0.0
C724 C 0.49981 0.24954 0.73284 0.0
C725 C 0.48399 0.29716 0.73409 0.0
C726 C 0.50837 0.22083 0.75255 0.0
C727 C 0.50151 0.23852 0.7744 0.0
H728 H 0.50572 0.23409 0.71648 0.0
H729 H 0.52061 0.18507 0.75054 0.0
S730 S 0.46013 0.35937 0.78717 0.0
N731 N 0.46157 0.35974 0.75908 0.0
N732 N 0.47765 0.3058 0.79612 0.0
C733 C 0.48558 0.28553 0.77595 0.0
C734 C 0.47685 0.31489 0.75583 0.0
C735 C 0.50929 0.01829 0.51861 0.0
C736 C 0.49393 0.96835 0.51671 0.0
C737 C 0.51749 0.05159 0.49931 0.0
C738 C 0.51067 0.03649 0.47725 0.0
H739 H 0.51505 0.03236 0.53518 0.0
H740 H 0.52933 0.08936 0.50178 0.0
S741 S 0.47071 0.90939 0.46279 0.0
N742 N 0.47222 0.90511 0.49085 0.0
N743 N 0.48757 0.96772 0.45461 0.0
C744 C 0.49531 0.98653 0.47505 0.0
C745 C 0.48698 0.9524 0.49473 0.0
C746 C 0.4798 0.77974 0.24437 0.0
C747 C 0.48746 0.7671 0.22262 0.0
C748 C 0.48793 0.74823 0.26397 0.0
C749 C 0.5041 0.70271 0.2627 0.0
H750 H 0.46728 0.81384 0.24636 0.0
H751 H 0.48144 0.76007 0.28027 0.0
S752 S 0.52994 0.65284 0.20987 0.0
N753 N 0.51238 0.7063 0.20098 0.0
N754 N 0.52764 0.64707 0.23783 0.0
C755 C 0.512 0.68973 0.24107 0.0
C756 C 0.50372 0.72199 0.22106 0.0
C757 C 0.50074 0.50705 0.01846 0.0
C758 C 0.48609 0.45593 0.01337 0.0
C759 C 0.50974 0.549 0.0013 0.0
C760 C 0.50454 0.54161 0.97826 0.0
H761 H 0.50528 0.5154 0.03591 0.0
H762 H 0.52099 0.58711 0.00622 0.0
S763 S 0.46698 0.41548 0.95569 0.0
N764 N 0.46676 0.40029 0.98348 0.0
N765 N 0.48367 0.47904 0.95123 0.0
C766 C 0.4899 0.49068 0.97286 0.0
C767 C 0.48071 0.44783 0.99039 0.0
C768 C 0.05343 0.40147 0.38686 0.0
C769 C 0.04399 0.46372 0.37669 0.0
C770 C 0.0541 0.32927 0.37633 0.0
C771 C 0.04506 0.31614 0.35545 0.0
H772 H 0.06073 0.40886 0.4029 0.0
H773 H 0.06174 0.28338 0.38468 0.0
S774 S 0.0179 0.45938 0.32211 0.0
N775 N 0.02516 0.50749 0.34474 0.0
N776 N 0.02608 0.37094 0.32505 0.0
C777 C 0.03525 0.37744 0.34526 0.0
C778 C 0.03483 0.45151 0.35583 0.0
C779 C 0.20698 0.85196 0.39615 0.0
C780 C 0.19918 0.78776 0.385 0.0
C781 C 0.20684 0.92508 0.38599 0.0
C782 C 0.19922 0.93628 0.36415 0.0
H783 H 0.21281 0.84619 0.41312 0.0
H784 H 0.21272 0.97315 0.39534 0.0
S785 S 0.17783 0.78592 0.32736 0.0
N786 N 0.18411 0.73948 0.35071 0.0
N787 N 0.18406 0.87649 0.33143 0.0
C788 C 0.1918 0.87207 0.35257 0.0
C789 C 0.19171 0.79792 0.36306 0.0
C790 C 0.05008 0.91925 0.85294 0.0
C791 C 0.05051 0.92491 0.87679 0.0
C792 C 0.05027 0.84707 0.84224 0.0
C793 C 0.0515 0.77859 0.85506 0.0
H794 H 0.04931 0.9708 0.84252 0.0
H795 H 0.04976 0.84492 0.82377 0.0
S796 S 0.05366 0.76321 0.91805 0.0
N797 N 0.05233 0.85677 0.913 0.0
N798 N 0.05342 0.72102 0.89279 0.0
C799 C 0.05227 0.78367 0.87892 0.0
C800 C 0.05157 0.85698 0.88983 0.0
C801 C 0.18619 0.49907 0.89177 0.0
C802 C 0.19873 0.50407 0.87341 0.0
C803 C 0.18612 0.43499 0.90628 0.0
C804 C 0.19848 0.37335 0.90283 0.0
H805 H 0.17591 0.54374 0.89458 0.0
H806 H 0.17581 0.43252 0.91973 0.0
S807 S 0.23573 0.36232 0.85921 0.0
N808 N 0.22514 0.44493 0.85407 0.0
N809 N 0.22479 0.32424 0.88124 0.0
C810 C 0.21172 0.37921 0.88532 0.0
C811 C 0.21193 0.44472 0.87065 0.0
C812 C 0.9535 0.71018 0.60672 0.0
C813 C 0.94598 0.72157 0.62855 0.0
C814 C 0.95341 0.63702 0.59661 0.0
C815 C 0.94539 0.57326 0.60778 0.0
H816 H 0.95973 0.75783 0.59752 0.0
H817 H 0.95939 0.63068 0.57975 0.0
S818 S 0.92353 0.57324 0.66503 0.0
N819 N 0.93025 0.6633 0.66105 0.0
N820 N 0.92971 0.52622 0.64176 0.0
C821 C 0.93767 0.58406 0.62951 0.0
C822 C 0.93807 0.65815 0.63999 0.0
C823 C 0.8048 0.14829 0.6634 0.0
C824 C 0.79286 0.0866 0.65808 0.0
C825 C 0.80644 0.21194 0.64887 0.0
C826 C 0.79613 0.21641 0.6285 0.0
H827 H 0.81352 0.14628 0.67849 0.0
H828 H 0.8163 0.2567 0.65333 0.0
S829 S 0.76096 0.07463 0.60837 0.0
N830 N 0.76922 0.03715 0.63221 0.0
N831 N 0.77215 0.1569 0.60491 0.0
C832 C 0.78335 0.15701 0.62362 0.0
C833 C 0.78176 0.09206 0.63839 0.0
C834 C 0.9394 0.14974 0.1368 0.0
C835 C 0.94748 0.21207 0.12503 0.0
C836 C 0.93774 0.07716 0.12667 0.0
C837 C 0.94439 0.06369 0.10451 0.0
H838 H 0.93392 0.1573 0.15387 0.0
H839 H 0.93121 0.03128 0.13632 0.0
S840 S 0.96734 0.20687 0.0667 0.0
N841 N 0.96254 0.25542 0.0902 0.0
N842 N 0.95974 0.11828 0.07116 0.0
C843 C 0.95286 0.12506 0.09266 0.0
C844 C 0.95429 0.19947 0.1029 0.0
C845 C 0.78677 0.61678 0.14821 0.0
C846 C 0.79163 0.55188 0.13511 0.0
C847 C 0.78609 0.6905 0.13849 0.0
C848 C 0.78994 0.70185 0.11523 0.0
H849 H 0.78394 0.61101 0.16629 0.0
H850 H 0.78262 0.73893 0.14935 0.0
S851 S 0.8022 0.54953 0.07321 0.0
N852 N 0.7996 0.50288 0.09754 0.0
N853 N 0.79812 0.64102 0.07908 0.0
C854 C 0.79428 0.63689 0.10177 0.0
C855 C 0.7952 0.56203 0.11176 0.0
C856 C 0.54759 0.40481 0.85465 0.0
C857 C 0.55233 0.33779 0.8669 0.0
C858 C 0.5481 0.47756 0.86503 0.0
C859 C 0.55288 0.48534 0.88815 0.0
H860 H 0.54373 0.40115 0.83681 0.0
H861 H 0.54437 0.52778 0.85501 0.0
S862 S 0.56628 0.32751 0.9277 0.0
N863 N 0.5621 0.2837 0.90322 0.0
N864 N 0.56253 0.42011 0.92299 0.0
C865 C 0.55753 0.41867 0.90061 0.0
C866 C 0.55741 0.34492 0.88991 0.0
C867 C 0.69057 0.74679 0.85235 0.0
C868 C 0.70181 0.74486 0.87201 0.0
C869 C 0.69059 0.81082 0.83783 0.0
C870 C 0.70174 0.87548 0.84252 0.0
H871 H 0.68118 0.6997 0.8485 0.0
H872 H 0.6812 0.81078 0.82336 0.0
S873 S 0.73567 0.89521 0.88991 0.0
N874 N 0.72593 0.81013 0.894 0.0
N875 N 0.72578 0.93068 0.86675 0.0
C876 C 0.71384 0.87264 0.86135 0.0
C877 C 0.71394 0.80722 0.87606 0.0
C878 C 0.55652 0.83403 0.3763 0.0
C879 C 0.54759 0.81942 0.35543 0.0
C880 C 0.55494 0.90568 0.38699 0.0
C881 C 0.54465 0.96594 0.37701 0.0
H882 H 0.56473 0.78965 0.38455 0.0
H883 H 0.56216 0.91424 0.40303 0.0
S884 S 0.51869 0.95755 0.3224 0.0
N885 N 0.52797 0.87089 0.32513 0.0
N886 N 0.52533 0.00655 0.34515 0.0
C887 C 0.53569 0.95242 0.35611 0.0
C888 C 0.53704 0.87882 0.34536 0.0
C889 C 0.70568 0.34604 0.40175 0.0
C890 C 0.69852 0.28234 0.38972 0.0
C891 C 0.7061 0.41961 0.3919 0.0
C892 C 0.6997 0.43181 0.36952 0.0
H893 H 0.71058 0.3395 0.41913 0.0
H894 H 0.71149 0.46718 0.40189 0.0
S895 S 0.68039 0.28312 0.33046 0.0
N896 N 0.68537 0.23564 0.3541 0.0
N897 N 0.68636 0.37348 0.3354 0.0
C898 C 0.69291 0.36814 0.35712 0.0
C899 C 0.69225 0.29352 0.36727 0.0
C900 C 0.45779 0.53183 0.1292 0.0
C901 C 0.4464 0.5097 0.11091 0.0
C902 C 0.45489 0.60216 0.14041 0.0
C903 C 0.44022 0.65155 0.13402 0.0
H904 H 0.46922 0.49534 0.13459 0.0
H905 H 0.4641 0.61751 0.15434 0.0
S906 S 0.40583 0.61689 0.08788 0.0
N907 N 0.4196 0.54079 0.08725 0.0
N908 N 0.41389 0.6721 0.1086 0.0
C909 C 0.42849 0.62901 0.11603 0.0
C910 C 0.43165 0.55824 0.10439 0.0
C911 C 0.28955 0.16946 0.14185 0.0
C912 C 0.29614 0.10467 0.12988 0.0
C913 C 0.28891 0.24229 0.13153 0.0
C914 C 0.29437 0.25224 0.10872 0.0
H915 H 0.28527 0.16426 0.15951 0.0
H916 H 0.28398 0.29095 0.14141 0.0
S917 S 0.31221 0.1004 0.06983 0.0
N918 N 0.30808 0.05483 0.09405 0.0
N919 N 0.30643 0.19124 0.07438 0.0
C920 C 0.30067 0.1876 0.09644 0.0
C921 C 0.30169 0.11388 0.1071 0.0
C922 C 0.45462 0.19744 0.61021 0.0
C923 C 0.44817 0.20755 0.63262 0.0
C924 C 0.45431 0.12468 0.59984 0.0
C925 C 0.44711 0.05994 0.61134 0.0
H926 H 0.46005 0.24597 0.60065 0.0
H927 H 0.45937 0.11951 0.5825 0.0
S928 S 0.42846 0.05592 0.67028 0.0
N929 N 0.43454 0.14665 0.66611 0.0
N930 N 0.43358 0.01033 0.64638 0.0
C931 C 0.4406 0.06926 0.63374 0.0
C932 C 0.44125 0.14297 0.64446 0.0
C933 C 0.28465 0.58197 0.63703 0.0
C934 C 0.29304 0.5817 0.65871 0.0
C935 C 0.28612 0.64582 0.6226 0.0
C936 C 0.29614 0.7119 0.62919 0.0
H937 H 0.27724 0.53176 0.63085 0.0
H938 H 0.27982 0.6421 0.60584 0.0
S939 S 0.31923 0.7435 0.68511 0.0
N940 N 0.3106 0.65548 0.68679 0.0
N941 N 0.31341 0.77554 0.65956 0.0
C942 C 0.3039 0.71389 0.65122 0.0
C943 C 0.30234 0.6488 0.66601 0.0
C944 C 0.03295 0.88629 0.39986 0.0
C945 C 0.0259 0.8171 0.39088 0.0
C946 C 0.03191 0.95525 0.38749 0.0
C947 C 0.0242 0.95737 0.3654 0.0
H948 H 0.03954 0.88699 0.41649 0.0
H949 H 0.03792 0.00663 0.39498 0.0
S950 S 0.00327 0.7922 0.33444 0.0
N951 N 0.01025 0.75518 0.35897 0.0
N952 N 0.00878 0.88464 0.33539 0.0
C953 C 0.01673 0.88888 0.3564 0.0
C954 C 0.01744 0.81881 0.36923 0.0
C955 C 0.2141 0.43407 0.35811 0.0
C956 C 0.22018 0.43444 0.38094 0.0
C957 C 0.21273 0.36518 0.34576 0.0
C958 C 0.21787 0.29437 0.35557 0.0
H959 H 0.20963 0.487 0.34994 0.0
H960 H 0.20743 0.36729 0.32845 0.0
S961 S 0.23564 0.26442 0.41434 0.0
N962 N 0.23188 0.35824 0.41267 0.0
N963 N 0.2299 0.22882 0.38916 0.0
C964 C 0.22466 0.29414 0.37808 0.0
C965 C 0.22563 0.36417 0.39086 0.0
C966 C 0.02917 0.42065 0.87588 0.0
C967 C 0.02884 0.42374 0.85188 0.0
C968 C 0.02909 0.34996 0.88753 0.0
C969 C 0.02832 0.2795 0.87567 0.0
H970 H 0.03007 0.47319 0.88581 0.0
H971 H 0.02977 0.35063 0.90599 0.0
S972 S 0.02625 0.25597 0.81273 0.0
N973 N 0.02712 0.35017 0.81665 0.0
N974 N 0.02662 0.21742 0.83849 0.0
C975 C 0.0274 0.2818 0.85167 0.0
C976 C 0.02777 0.35382 0.8398 0.0
C977 C 0.21545 0.91957 0.88516 0.0
C978 C 0.20392 0.97859 0.87667 0.0
C979 C 0.21878 0.8524 0.87252 0.0
C980 C 0.21065 0.84107 0.85091 0.0
H981 H 0.22176 0.92456 0.90188 0.0
H982 H 0.2274 0.80809 0.88014 0.0
S983 S 0.18042 0.98019 0.82013 0.0
N984 N 0.18516 0.02296 0.8446 0.0
N985 N 0.19137 0.89663 0.82099 0.0
C986 C 0.19957 0.90061 0.84188 0.0
C987 C 0.19622 0.96929 0.8547 0.0
C988 C 0.96459 0.21287 0.63662 0.0
C989 C 0.96844 0.21531 0.61309 0.0
C990 C 0.96491 0.14319 0.64873 0.0
C991 C 0.96948 0.07338 0.63792 0.0
H992 H 0.96064 0.26477 0.64568 0.0
H993 H 0.96127 0.14391 0.66667 0.0
S994 S 0.98188 0.04893 0.57689 0.0
N995 N 0.97772 0.14213 0.5796 0.0
N996 N 0.9787 0.01131 0.60248 0.0
C997 C 0.97411 0.07531 0.6146 0.0
C998 C 0.97346 0.14619 0.60215 0.0
C999 C 0.78665 0.61317 0.59761 0.0
C1000 C 0.77936 0.54625 0.60779 0.0
C1001 C 0.78722 0.68331 0.60942 0.0
C1002 C 0.78081 0.68908 0.63204 0.0
H1003 H 0.79225 0.61117 0.58046 0.0
H1004 H 0.79335 0.73271 0.60096 0.0
S1005 S 0.75947 0.53194 0.66612 0.0
N1006 N 0.76472 0.49111 0.64152 0.0
N1007 N 0.76607 0.6228 0.66381 0.0
C1008 C 0.773 0.62321 0.64224 0.0
C1009 C 0.77218 0.5519 0.63009 0.0
C1010 C 0.97195 0.5708 0.11523 0.0
C1011 C 0.96675 0.56931 0.13836 0.0
C1012 C 0.97123 0.63946 0.10255 0.0
C1013 C 0.96575 0.70933 0.11272 0.0
H1014 H 0.97582 0.51797 0.1066 0.0
H1015 H 0.97472 0.63761 0.08458 0.0
S1016 S 0.952 0.73674 0.17323 0.0
N1017 N 0.95666 0.64379 0.17117 0.0
N1018 N 0.9558 0.77313 0.14762 0.0
C1019 C 0.9613 0.70906 0.13611 0.0
C1020 C 0.96165 0.63894 0.14885 0.0
C1021 C 0.76707 0.13166 0.14324 0.0
C1022 C 0.77054 0.20332 0.13284 0.0
C1023 C 0.76705 0.06325 0.13045 0.0
C1024 C 0.77106 0.06403 0.10696 0.0
H1025 H 0.76456 0.12835 0.16144 0.0
H1026 H 0.76465 0.00911 0.1392 0.0
S1027 S 0.7807 0.23666 0.07155 0.0
N1028 N 0.77745 0.27113 0.0975 0.0
N1029 N 0.77803 0.14234 0.07368 0.0
C1030 C 0.77426 0.13534 0.0963 0.0
C1031 C 0.77382 0.2051 0.10919 0.0
C1032 C 0.52671 0.84275 0.8714 0.0
C1033 C 0.52864 0.83984 0.89529 0.0
C1034 C 0.52723 0.9132 0.8596 0.0
C1035 C 0.52931 0.98363 0.87126 0.0
H1036 H 0.52542 0.79003 0.86162 0.0
H1037 H 0.52613 0.91234 0.84116 0.0
S1038 S 0.53384 0.00775 0.934 0.0
N1039 N 0.53207 0.91367 0.93028 0.0
N1040 N 0.53267 0.04599 0.90823 0.0
C1041 C 0.53063 0.98166 0.89523 0.0
C1042 C 0.53041 0.90984 0.9072 0.0
C1043 C 0.72017 0.39845 0.87265 0.0
C1044 C 0.71305 0.40836 0.89482 0.0
C1045 C 0.71673 0.33098 0.86019 0.0
C1046 C 0.70613 0.27031 0.86943 0.0
H1047 H 0.72797 0.44418 0.86446 0.0
H1048 H 0.72218 0.32712 0.843 0.0
S1049 S 0.68577 0.26447 0.92769 0.0
N1050 N 0.69594 0.34962 0.92611 0.0
N1051 N 0.68953 0.22273 0.90282 0.0
C1052 C 0.69956 0.27814 0.89197 0.0
C1053 C 0.70301 0.34709 0.90461 0.0
C1054 C 0.53423 0.45651 0.38869 0.0
C1055 C 0.52698 0.45969 0.36638 0.0
C1056 C 0.53423 0.38768 0.40118 0.0
C1057 C 0.52658 0.31974 0.3921 0.0
H1058 H 0.54068 0.50681 0.39628 0.0
H1059 H 0.54053 0.38744 0.41799 0.0
S1060 S 0.50472 0.29823 0.33508 0.0
N1061 N 0.51126 0.38949 0.33607 0.0
N1062 N 0.51083 0.26035 0.35984 0.0
C1063 C 0.51855 0.3227 0.37022 0.0
C1064 C 0.51888 0.39258 0.35728 0.0
C1065 C 0.71658 0.92895 0.36363 0.0
C1066 C 0.72094 0.92928 0.38705 0.0
C1067 C 0.71607 0.86003 0.3512 0.0
C1068 C 0.72039 0.78916 0.36156 0.0
H1069 H 0.71274 0.98189 0.35502 0.0
H1070 H 0.71201 0.86214 0.3334 0.0
S1071 S 0.73387 0.75923 0.42202 0.0
N1072 N 0.73032 0.85307 0.41992 0.0
N1073 N 0.72994 0.72361 0.39633 0.0
C1074 C 0.72557 0.78895 0.3847 0.0
C1075 C 0.72567 0.85901 0.39751 0.0
C1076 C 0.45035 0.09397 0.08826 0.0
C1077 C 0.4625 0.15248 0.09561 0.0
C1078 C 0.44717 0.02815 0.10152 0.0
C1079 C 0.45583 0.01824 0.12288 0.0
H1080 H 0.44295 0.09952 0.07223 0.0
H1081 H 0.43744 0.98561 0.09513 0.0
S1082 S 0.48954 0.15314 0.14962 0.0
N1083 N 0.48382 0.19509 0.1253 0.0
N1084 N 0.47774 0.07148 0.15038 0.0
C1085 C 0.46842 0.07537 0.13023 0.0
C1086 C 0.4718 0.14232 0.11655 0.0
C1087 C 0.27772 0.74577 0.10276 0.0
C1088 C 0.27567 0.74705 0.12664 0.0
C1089 C 0.27685 0.67644 0.09053 0.0
C1090 C 0.27344 0.60594 0.10161 0.0
H1091 H 0.28066 0.79841 0.09348 0.0
H1092 H 0.27907 0.67801 0.07225 0.0
S1093 S 0.26605 0.57827 0.16374 0.0
N1094 N 0.2695 0.67193 0.16085 0.0
N1095 N 0.2674 0.5418 0.13778 0.0
C1096 C 0.27069 0.60663 0.12538 0.0
C1097 C 0.27195 0.67711 0.13791 0.0
C1098 C 0.46549 0.63274 0.65098 0.0
C1099 C 0.47015 0.5627 0.64036 0.0
C1100 C 0.46567 0.70239 0.63886 0.0
C1101 C 0.47011 0.70459 0.61548 0.0
H1102 H 0.4614 0.63366 0.66877 0.0
H1103 H 0.46158 0.75446 0.64774 0.0
S1104 S 0.48404 0.53757 0.57985 0.0
N1105 N 0.48013 0.50013 0.60531 0.0
N1106 N 0.48004 0.63095 0.58237 0.0
C1107 C 0.47523 0.63524 0.60475 0.0
C1108 C 0.47539 0.56436 0.61723 0.0
C1109 C 0.2863 0.10707 0.59728 0.0
C1110 C 0.27901 0.04013 0.60745 0.0
C1111 C 0.28672 0.17734 0.60905 0.0
C1112 C 0.28018 0.18321 0.63162 0.0
H1113 H 0.292 0.10499 0.58019 0.0
H1114 H 0.29285 0.22676 0.60061 0.0
S1115 S 0.25889 0.02584 0.66566 0.0
N1116 N 0.26429 0.98494 0.64112 0.0
N1117 N 0.26537 0.11683 0.66332 0.0
C1118 C 0.27239 0.11726 0.6418 0.0
C1119 C 0.27171 0.04583 0.62969 0.0
loop_
_geom_bond_atom_site_label_1
_geom_bond_atom_site_label_2
_geom_bond_distance
_geom_bond_site_symmetry_2
_ccdc_geom_bond_type
C0 O1 1.160 . S
C0 O7 1.185 . S
O1 C0 1.160 . S
O2 Zn3 1.899 . S
O2 C10 1.284 . S
Zn3 O2 1.899 . S
Zn3 O4 2.032 . S
Zn3 O7 2.086 . S
Zn3 O12 1.977 . S
O4 Zn3 2.032 . S
O4 C8 1.278 . S
C5 O6 1.203 . S
C5 O12 1.267 . S
O6 C5 1.203 . S
O7 C0 1.185 . S
O7 Zn3 2.086 . S
C8 O4 1.278 . S
C8 O9 1.211 . S
O9 C8 1.211 . S
C10 O2 1.284 . S
C10 O11 1.273 . S
O11 C10 1.273 . S
O12 Zn3 1.977 . S
O12 C5 1.267 . S
C13 O14 1.160 . S
C13 O20 1.185 . S
O14 C13 1.160 . S
O15 Zn16 1.899 . S
O15 C23 1.284 . S
Zn16 O15 1.899 . S
Zn16 O17 2.032 . S
Zn16 O20 2.086 . S
Zn16 O25 1.977 . S
O17 Zn16 2.032 . S
O17 C21 1.278 1_545 S
C18 O19 1.203 . S
C18 O25 1.267 . S
O19 C18 1.203 . S
O20 C13 1.185 . S
O20 Zn16 2.086 . S
C21 O17 1.278 1_565 S
C21 O22 1.211 1_565 S
O22 C21 1.211 1_545 S
C23 O15 1.284 . S
C23 O24 1.273 . S
O24 C23 1.273 . S
O25 Zn16 1.977 . S
O25 C18 1.267 . S
C26 O27 1.160 . S
C26 O33 1.185 . S
O27 C26 1.160 . S
O28 Zn29 1.899 . S
O28 C36 1.284 . S
Zn29 O28 1.899 . S
Zn29 O30 2.032 . S
Zn29 O33 2.086 . S
Zn29 O38 1.977 . S
O30 Zn29 2.032 . S
O30 C34 1.278 1_545 S
C31 O32 1.203 . S
C31 O38 1.267 . S
O32 C31 1.203 . S
O33 C26 1.185 . S
O33 Zn29 2.086 . S
C34 O30 1.278 1_565 S
C34 O35 1.211 1_565 S
O35 C34 1.211 1_545 S
C36 O28 1.284 . S
C36 O37 1.273 . S
O37 C36 1.273 . S
O38 Zn29 1.977 . S
O38 C31 1.267 . S
C39 O40 1.160 . S
C39 O46 1.185 . S
O40 C39 1.160 . S
O41 Zn42 1.899 . S
O41 C49 1.284 . S
Zn42 O41 1.899 . S
Zn42 O43 2.032 . S
Zn42 O46 2.086 . S
Zn42 O51 1.977 . S
O43 Zn42 2.032 . S
O43 C47 1.278 . S
C44 O45 1.203 . S
C44 O51 1.267 . S
O45 C44 1.203 . S
O46 C39 1.185 . S
O46 Zn42 2.086 . S
C47 O43 1.278 . S
C47 O48 1.211 . S
O48 C47 1.211 . S
C49 O41 1.284 . S
C49 O50 1.273 . S
O50 C49 1.273 . S
O51 Zn42 1.977 . S
O51 C44 1.267 . S
C52 O53 1.160 . S
C52 O59 1.185 . S
O53 C52 1.160 . S
O54 Zn55 1.899 . S
O54 C62 1.284 . S
Zn55 O54 1.899 . S
Zn55 O56 2.032 . S
Zn55 O59 2.086 . S
Zn55 O64 1.977 . S
O56 Zn55 2.032 . S
O56 C60 1.278 . S
C57 O58 1.203 . S
C57 O64 1.267 . S
O58 C57 1.203 . S
O59 C52 1.185 . S
O59 Zn55 2.086 . S
C60 O56 1.278 . S
C60 O61 1.211 . S
O61 C60 1.211 . S
C62 O54 1.284 . S
C62 O63 1.273 . S
O63 C62 1.273 . S
O64 Zn55 1.977 . S
O64 C57 1.267 . S
C65 O66 1.160 . S
C65 O72 1.185 . S
O66 C65 1.160 . S
O67 Zn68 1.899 . S
O67 C75 1.284 . S
Zn68 O67 1.899 . S
Zn68 O69 2.032 . S
Zn68 O72 2.086 . S
Zn68 O77 1.977 . S
O69 Zn68 2.032 . S
O69 C73 1.278 1_565 S
C70 O71 1.203 . S
C70 O77 1.267 . S
O71 C70 1.203 . S
O72 C65 1.185 . S
O72 Zn68 2.086 . S
C73 O69 1.278 1_545 S
C73 O74 1.211 1_545 S
O74 C73 1.211 1_565 S
C75 O67 1.284 . S
C75 O76 1.273 . S
O76 C75 1.273 . S
O77 Zn68 1.977 . S
O77 C70 1.267 . S
C78 O79 1.160 . S
C78 O85 1.185 . S
O79 C78 1.160 . S
O80 Zn81 1.899 . S
O80 C88 1.284 . S
Zn81 O80 1.899 . S
Zn81 O82 2.032 . S
Zn81 O85 2.086 . S
Zn81 O90 1.977 . S
O82 Zn81 2.032 . S
O82 C86 1.278 1_565 S
C83 O84 1.203 . S
C83 O90 1.267 . S
O84 C83 1.203 . S
O85 C78 1.185 . S
O85 Zn81 2.086 . S
C86 O82 1.278 1_545 S
C86 O87 1.211 1_545 S
O87 C86 1.211 1_565 S
C88 O80 1.284 . S
C88 O89 1.273 . S
O89 C88 1.273 . S
O90 Zn81 1.977 . S
O90 C83 1.267 . S
C91 O92 1.160 . S
C91 O98 1.185 . S
O92 C91 1.160 . S
O93 Zn94 1.899 . S
O93 C101 1.284 . S
Zn94 O93 1.899 . S
Zn94 O95 2.032 . S
Zn94 O98 2.086 . S
Zn94 O103 1.977 . S
O95 Zn94 2.032 . S
O95 C99 1.278 . S
C96 O97 1.203 . S
C96 O103 1.267 . S
O97 C96 1.203 . S
O98 C91 1.185 . S
O98 Zn94 2.086 . S
C99 O95 1.278 . S
C99 O100 1.211 . S
O100 C99 1.211 . S
C101 O93 1.284 . S
C101 O102 1.273 . S
O102 C101 1.273 . S
O103 Zn94 1.977 . S
O103 C96 1.267 . S
C104 O105 1.160 . S
C104 O111 1.185 . S
O105 C104 1.160 . S
O106 Zn107 1.899 . S
O106 C114 1.284 . S
Zn107 O106 1.899 . S
Zn107 O108 2.032 . S
Zn107 O111 2.086 . S
Zn107 O116 1.977 . S
O108 Zn107 2.032 . S
O108 C112 1.278 . S
C109 O110 1.203 . S
C109 O116 1.267 . S
O110 C109 1.203 . S
O111 C104 1.185 . S
O111 Zn107 2.086 . S
C112 O108 1.278 . S
C112 O113 1.211 . S
O113 C112 1.211 . S
C114 O106 1.284 . S
C114 O115 1.273 . S
O115 C114 1.273 . S
O116 Zn107 1.977 . S
O116 C109 1.267 . S
C117 O118 1.160 . S
C117 O124 1.185 . S
O118 C117 1.160 . S
O119 Zn120 1.899 . S
O119 C127 1.284 . S
Zn120 O119 1.899 . S
Zn120 O121 2.032 . S
Zn120 O124 2.086 . S
Zn120 O129 1.977 . S
O121 Zn120 2.032 . S
O121 C125 1.278 . S
C122 O123 1.203 . S
C122 O129 1.267 . S
O123 C122 1.203 . S
O124 C117 1.185 . S
O124 Zn120 2.086 . S
C125 O121 1.278 . S
C125 O126 1.211 . S
O126 C125 1.211 . S
C127 O119 1.284 . S
C127 O128 1.273 . S
O128 C127 1.273 . S
O129 Zn120 1.977 . S
O129 C122 1.267 . S
C130 O131 1.160 . S
C130 O137 1.185 . S
O131 C130 1.160 . S
O132 Zn133 1.899 . S
O132 C140 1.284 . S
Zn133 O132 1.899 . S
Zn133 O134 2.032 . S
Zn133 O137 2.086 . S
Zn133 O142 1.977 . S
O134 Zn133 2.032 . S
O134 C138 1.278 . S
C135 O136 1.203 . S
C135 O142 1.267 . S
O136 C135 1.203 . S
O137 C130 1.185 . S
O137 Zn133 2.086 . S
C138 O134 1.278 . S
C138 O139 1.211 . S
O139 C138 1.211 . S
C140 O132 1.284 . S
C140 O141 1.273 . S
O141 C140 1.273 . S
O142 Zn133 1.977 . S
O142 C135 1.267 . S
C143 O144 1.160 . S
C143 O150 1.185 . S
O144 C143 1.160 . S
O145 Zn146 1.899 . S
O145 C153 1.284 . S
Zn146 O145 1.899 . S
Zn146 O147 2.032 . S
Zn146 O150 2.086 . S
Zn146 O155 1.977 . S
O147 Zn146 2.032 . S
O147 C151 1.278 . S
C148 O149 1.203 . S
C148 O155 1.267 . S
O149 C148 1.203 . S
O150 C143 1.185 . S
O150 Zn146 2.086 . S
C151 O147 1.278 . S
C151 O152 1.211 . S
O152 C151 1.211 . S
C153 O145 1.284 . S
C153 O154 1.273 . S
O154 C153 1.273 . S
O155 Zn146 1.977 . S
O155 C148 1.267 . S
C156 O157 1.160 . S
C156 O163 1.185 . S
O157 C156 1.160 . S
O158 Zn159 1.899 . S
O158 C166 1.284 . S
Zn159 O158 1.899 . S
Zn159 O160 2.032 . S
Zn159 O163 2.086 . S
Zn159 O168 1.977 . S
O160 Zn159 2.032 . S
O160 C164 1.278 . S
C161 O162 1.203 . S
C161 O168 1.267 . S
O162 C161 1.203 . S
O163 C156 1.185 . S
O163 Zn159 2.086 . S
C164 O160 1.278 . S
C164 O165 1.211 . S
O165 C164 1.211 . S
C166 O158 1.284 . S
C166 O167 1.273 . S
O167 C166 1.273 . S
O168 Zn159 1.977 . S
O168 C161 1.267 . S
C169 O170 1.160 . S
C169 O176 1.185 . S
O170 C169 1.160 . S
O171 Zn172 1.899 . S
O171 C179 1.284 . S
Zn172 O171 1.899 . S
Zn172 O173 2.032 . S
Zn172 O176 2.086 . S
Zn172 O181 1.977 . S
O173 Zn172 2.032 . S
O173 C177 1.278 . S
C174 O175 1.203 . S
C174 O181 1.267 . S
O175 C174 1.203 . S
O176 C169 1.185 . S
O176 Zn172 2.086 . S
C177 O173 1.278 . S
C177 O178 1.211 . S
O178 C177 1.211 . S
C179 O171 1.284 . S
C179 O180 1.273 . S
O180 C179 1.273 . S
O181 Zn172 1.977 . S
O181 C174 1.267 . S
C182 O183 1.160 . S
C182 O189 1.185 . S
O183 C182 1.160 . S
O184 Zn185 1.899 . S
O184 C192 1.284 . S
Zn185 O184 1.899 . S
Zn185 O186 2.032 . S
Zn185 O189 2.086 . S
Zn185 O194 1.977 . S
O186 Zn185 2.032 . S
O186 C190 1.278 . S
C187 O188 1.203 . S
C187 O194 1.267 . S
O188 C187 1.203 . S
O189 C182 1.185 . S
O189 Zn185 2.086 . S
C190 O186 1.278 . S
C190 O191 1.211 . S
O191 C190 1.211 . S
C192 O184 1.284 . S
C192 O193 1.273 . S
O193 C192 1.273 . S
O194 Zn185 1.977 . S
O194 C187 1.267 . S
C195 O196 1.160 . S
C195 O202 1.185 . S
O196 C195 1.160 . S
O197 Zn198 1.899 . S
O197 C205 1.284 . S
Zn198 O197 1.899 . S
Zn198 O199 2.032 . S
Zn198 O202 2.086 . S
Zn198 O207 1.977 . S
O199 Zn198 2.032 . S
O199 C203 1.278 . S
C200 O201 1.203 . S
C200 O207 1.267 . S
O201 C200 1.203 . S
O202 C195 1.185 . S
O202 Zn198 2.086 . S
C203 O199 1.278 . S
C203 O204 1.211 . S
O204 C203 1.211 . S
C205 O197 1.284 . S
C205 O206 1.273 . S
O206 C205 1.273 . S
O207 Zn198 1.977 . S
O207 C200 1.267 . S
C208 O209 1.160 . S
C208 O215 1.185 . S
O209 C208 1.160 . S
O210 Zn211 1.899 . S
O210 C218 1.284 . S
Zn211 O210 1.899 . S
Zn211 O212 2.032 . S
Zn211 O215 2.086 . S
Zn211 O220 1.977 . S
O212 Zn211 2.032 . S
O212 C216 1.278 . S
C213 O214 1.203 . S
C213 O220 1.267 . S
O214 C213 1.203 . S
O215 C208 1.185 . S
O215 Zn211 2.086 . S
C216 O212 1.278 . S
C216 O217 1.211 . S
O217 C216 1.211 . S
C218 O210 1.284 . S
C218 O219 1.273 . S
O219 C218 1.273 . S
O220 Zn211 1.977 . S
O220 C213 1.267 . S
C221 O222 1.160 . S
C221 O228 1.185 . S
O222 C221 1.160 . S
O223 Zn224 1.899 . S
O223 C231 1.284 . S
Zn224 O223 1.899 . S
Zn224 O225 2.032 . S
Zn224 O228 2.086 . S
Zn224 O233 1.977 . S
O225 Zn224 2.032 . S
O225 C229 1.278 1_545 S
C226 O227 1.203 . S
C226 O233 1.267 . S
O227 C226 1.203 . S
O228 C221 1.185 . S
O228 Zn224 2.086 . S
C229 O225 1.278 1_565 S
C229 O230 1.211 1_565 S
O230 C229 1.211 1_545 S
C231 O223 1.284 . S
C231 O232 1.273 . S
O232 C231 1.273 . S
O233 Zn224 1.977 . S
O233 C226 1.267 . S
C234 O235 1.160 . S
C234 O241 1.185 . S
O235 C234 1.160 . S
O236 Zn237 1.899 . S
O236 C244 1.284 . S
Zn237 O236 1.899 . S
Zn237 O238 2.032 . S
Zn237 O241 2.086 . S
Zn237 O246 1.977 . S
O238 Zn237 2.032 . S
O238 C242 1.278 1_545 S
C239 O240 1.203 . S
C239 O246 1.267 . S
O240 C239 1.203 . S
O241 C234 1.185 . S
O241 Zn237 2.086 . S
C242 O238 1.278 1_565 S
C242 O243 1.211 1_565 S
O243 C242 1.211 1_545 S
C244 O236 1.284 . S
C244 O245 1.273 . S
O245 C244 1.273 . S
O246 Zn237 1.977 . S
O246 C239 1.267 . S
C247 O248 1.160 . S
C247 O254 1.185 . S
O248 C247 1.160 . S
O249 Zn250 1.899 . S
O249 C257 1.284 . S
Zn250 O249 1.899 . S
Zn250 O251 2.032 . S
Zn250 O254 2.086 . S
Zn250 O259 1.977 . S
O251 Zn250 2.032 . S
O251 C255 1.278 . S
C252 O253 1.203 . S
C252 O259 1.267 . S
O253 C252 1.203 . S
O254 C247 1.185 . S
O254 Zn250 2.086 . S
C255 O251 1.278 . S
C255 O256 1.211 . S
O256 C255 1.211 . S
C257 O249 1.284 . S
C257 O258 1.273 . S
O258 C257 1.273 . S
O259 Zn250 1.977 . S
O259 C252 1.267 . S
C260 O261 1.160 . S
C260 O267 1.185 . S
O261 C260 1.160 . S
O262 Zn263 1.899 . S
O262 C270 1.284 . S
Zn263 O262 1.899 . S
Zn263 O264 2.032 . S
Zn263 O267 2.086 . S
Zn263 O272 1.977 . S
O264 Zn263 2.032 . S
O264 C268 1.278 . S
C265 O266 1.203 . S
C265 O272 1.267 . S
O266 C265 1.203 . S
O267 C260 1.185 . S
O267 Zn263 2.086 . S
C268 O264 1.278 . S
C268 O269 1.211 . S
O269 C268 1.211 . S
C270 O262 1.284 . S
C270 O271 1.273 . S
O271 C270 1.273 . S
O272 Zn263 1.977 . S
O272 C265 1.267 . S
C273 O274 1.160 . S
C273 O280 1.185 . S
O274 C273 1.160 . S
O275 Zn276 1.899 . S
O275 C283 1.284 . S
Zn276 O275 1.899 . S
Zn276 O277 2.032 . S
Zn276 O280 2.086 . S
Zn276 O285 1.977 . S
O277 Zn276 2.032 . S
O277 C281 1.278 1_565 S
C278 O279 1.203 . S
C278 O285 1.267 . S
O279 C278 1.203 . S
O280 C273 1.185 . S
O280 Zn276 2.086 . S
C281 O277 1.278 1_545 S
C281 O282 1.211 1_545 S
O282 C281 1.211 1_565 S
C283 O275 1.284 . S
C283 O284 1.273 . S
O284 C283 1.273 . S
O285 Zn276 1.977 . S
O285 C278 1.267 . S
C286 O287 1.160 . S
C286 O293 1.185 . S
O287 C286 1.160 . S
O288 Zn289 1.899 . S
O288 C296 1.284 . S
Zn289 O288 1.899 . S
Zn289 O290 2.032 . S
Zn289 O293 2.086 . S
Zn289 O298 1.977 . S
O290 Zn289 2.032 . S
O290 C294 1.278 1_565 S
C291 O292 1.203 . S
C291 O298 1.267 . S
O292 C291 1.203 . S
O293 C286 1.185 . S
O293 Zn289 2.086 . S
C294 O290 1.278 1_545 S
C294 O295 1.211 1_545 S
O295 C294 1.211 1_565 S
C296 O288 1.284 . S
C296 O297 1.273 . S
O297 C296 1.273 . S
O298 Zn289 1.977 . S
O298 C291 1.267 . S
C299 O300 1.160 . S
C299 O306 1.185 . S
O300 C299 1.160 . S
O301 Zn302 1.899 . S
O301 C309 1.284 . S
Zn302 O301 1.899 . S
Zn302 O303 2.032 . S
Zn302 O306 2.086 . S
Zn302 O311 1.977 . S
O303 Zn302 2.032 . S
O303 C307 1.278 . S
C304 O305 1.203 . S
C304 O311 1.267 . S
O305 C304 1.203 . S
O306 C299 1.185 . S
O306 Zn302 2.086 . S
C307 O303 1.278 . S
C307 O308 1.211 . S
O308 C307 1.211 . S
C309 O301 1.284 . S
C309 O310 1.273 . S
O310 C309 1.273 . S
O311 Zn302 1.977 . S
O311 C304 1.267 . S
C312 O313 1.160 . S
C312 O319 1.185 . S
O313 C312 1.160 . S
O314 Zn315 1.899 . S
O314 C322 1.284 . S
Zn315 O314 1.899 . S
Zn315 O316 2.032 . S
Zn315 O319 2.086 . S
Zn315 O324 1.977 . S
O316 Zn315 2.032 . S
O316 C320 1.278 . S
C317 O318 1.203 . S
C317 O324 1.267 . S
O318 C317 1.203 . S
O319 C312 1.185 . S
O319 Zn315 2.086 . S
C320 O316 1.278 . S
C320 O321 1.211 . S
O321 C320 1.211 . S
C322 O314 1.284 . S
C322 O323 1.273 . S
O323 C322 1.273 . S
O324 Zn315 1.977 . S
O324 C317 1.267 . S
C325 O326 1.160 . S
C325 O332 1.185 . S
O326 C325 1.160 . S
O327 Zn328 1.899 . S
O327 C335 1.284 . S
Zn328 O327 1.899 . S
Zn328 O329 2.032 . S
Zn328 O332 2.086 . S
Zn328 O337 1.977 . S
O329 Zn328 2.032 . S
O329 C333 1.278 . S
C330 O331 1.203 . S
C330 O337 1.267 . S
O331 C330 1.203 . S
O332 C325 1.185 . S
O332 Zn328 2.086 . S
C333 O329 1.278 . S
C333 O334 1.211 . S
O334 C333 1.211 . S
C335 O327 1.284 . S
C335 O336 1.273 . S
O336 C335 1.273 . S
O337 Zn328 1.977 . S
O337 C330 1.267 . S
C338 O339 1.160 . S
C338 O345 1.185 . S
O339 C338 1.160 . S
O340 Zn341 1.899 . S
O340 C348 1.284 . S
Zn341 O340 1.899 . S
Zn341 O342 2.032 . S
Zn341 O345 2.086 . S
Zn341 O350 1.977 . S
O342 Zn341 2.032 . S
O342 C346 1.278 . S
C343 O344 1.203 . S
C343 O350 1.267 . S
O344 C343 1.203 . S
O345 C338 1.185 . S
O345 Zn341 2.086 . S
C346 O342 1.278 . S
C346 O347 1.211 . S
O347 C346 1.211 . S
C348 O340 1.284 . S
C348 O349 1.273 . S
O349 C348 1.273 . S
O350 Zn341 1.977 . S
O350 C343 1.267 . S
C351 O352 1.160 . S
C351 O358 1.185 . S
O352 C351 1.160 . S
O353 Zn354 1.899 . S
O353 C361 1.284 . S
Zn354 O353 1.899 . S
Zn354 O355 2.032 . S
Zn354 O358 2.086 . S
Zn354 O363 1.977 . S
O355 Zn354 2.032 . S
O355 C359 1.278 . S
C356 O357 1.203 . S
C356 O363 1.267 . S
O357 C356 1.203 . S
O358 C351 1.185 . S
O358 Zn354 2.086 . S
C359 O355 1.278 . S
C359 O360 1.211 . S
O360 C359 1.211 . S
C361 O353 1.284 . S
C361 O362 1.273 . S
O362 C361 1.273 . S
O363 Zn354 1.977 . S
O363 C356 1.267 . S
C364 O365 1.160 . S
C364 O371 1.185 . S
O365 C364 1.160 . S
O366 Zn367 1.899 . S
O366 C374 1.284 . S
Zn367 O366 1.899 . S
Zn367 O368 2.032 . S
Zn367 O371 2.086 . S
Zn367 O376 1.977 . S
O368 Zn367 2.032 . S
O368 C372 1.278 . S
C369 O370 1.203 . S
C369 O376 1.267 . S
O370 C369 1.203 . S
O371 C364 1.185 . S
O371 Zn367 2.086 . S
C372 O368 1.278 . S
C372 O373 1.211 . S
O373 C372 1.211 . S
C374 O366 1.284 . S
C374 O375 1.273 . S
O375 C374 1.273 . S
O376 Zn367 1.977 . S
O376 C369 1.267 . S
C377 O378 1.160 . S
C377 O384 1.185 . S
O378 C377 1.160 . S
O379 Zn380 1.899 . S
O379 C387 1.284 . S
Zn380 O379 1.899 . S
Zn380 O381 2.032 . S
Zn380 O384 2.086 . S
Zn380 O389 1.977 . S
O381 Zn380 2.032 . S
O381 C385 1.278 . S
C382 O383 1.203 . S
C382 O389 1.267 . S
O383 C382 1.203 . S
O384 C377 1.185 . S
O384 Zn380 2.086 . S
C385 O381 1.278 . S
C385 O386 1.211 . S
O386 C385 1.211 . S
C387 O379 1.284 . S
C387 O388 1.273 . S
O388 C387 1.273 . S
O389 Zn380 1.977 . S
O389 C382 1.267 . S
C390 O391 1.160 . S
C390 O397 1.185 . S
O391 C390 1.160 . S
O392 Zn393 1.899 . S
O392 C400 1.284 . S
Zn393 O392 1.899 . S
Zn393 O394 2.032 . S
Zn393 O397 2.086 . S
Zn393 O402 1.977 . S
O394 Zn393 2.032 . S
O394 C398 1.278 . S
C395 O396 1.203 . S
C395 O402 1.267 . S
O396 C395 1.203 . S
O397 C390 1.185 . S
O397 Zn393 2.086 . S
C398 O394 1.278 . S
C398 O399 1.211 . S
O399 C398 1.211 . S
C400 O392 1.284 . S
C400 O401 1.273 . S
O401 C400 1.273 . S
O402 Zn393 1.977 . S
O402 C395 1.267 . S
C403 O404 1.160 . S
C403 O410 1.185 . S
O404 C403 1.160 . S
O405 Zn406 1.899 . S
O405 C413 1.284 . S
Zn406 O405 1.899 . S
Zn406 O407 2.032 . S
Zn406 O410 2.086 . S
Zn406 O415 1.977 . S
O407 Zn406 2.032 . S
O407 C411 1.278 . S
C408 O409 1.203 . S
C408 O415 1.267 . S
O409 C408 1.203 . S
O410 C403 1.185 . S
O410 Zn406 2.086 . S
C411 O407 1.278 . S
C411 O412 1.211 . S
O412 C411 1.211 . S
C413 O405 1.284 . S
C413 O414 1.273 . S
O414 C413 1.273 . S
O415 Zn406 1.977 . S
O415 C408 1.267 . S
C416 C417 1.369 . S
C416 C418 1.419 . S
C416 H420 0.930 . S
C417 C416 1.369 . S
C417 C426 1.429 . S
C418 C416 1.419 . S
C418 C419 1.363 . S
C418 H421 0.929 . S
C419 C418 1.363 . S
C419 C425 1.428 . S
H420 C416 0.930 . S
H421 C418 0.929 . S
S422 N423 1.613 . S
S422 N424 1.610 . S
N423 S422 1.613 . S
N423 C426 1.350 . S
N424 S422 1.610 . S
N424 C425 1.351 . S
C425 C419 1.428 . S
C425 N424 1.351 . S
C425 C426 1.434 . S
C426 C417 1.429 . S
C426 N423 1.350 . S
C426 C425 1.434 . S
C427 C428 1.369 . S
C427 C429 1.419 . S
C427 H431 0.930 . S
C428 C427 1.369 . S
C428 C437 1.429 . S
C429 C427 1.419 . S
C429 C430 1.363 . S
C429 H432 0.929 . S
C430 C429 1.363 . S
C430 C436 1.428 . S
H431 C427 0.930 . S
H432 C429 0.929 . S
S433 N434 1.613 1_565 S
S433 N435 1.610 1_565 S
N434 S433 1.613 1_545 S
N434 C437 1.350 . S
N435 S433 1.610 1_545 S
N435 C436 1.351 . S
C436 C430 1.428 . S
C436 N435 1.351 . S
C436 C437 1.434 . S
C437 C428 1.429 . S
C437 N434 1.350 . S
C437 C436 1.434 . S
C438 C439 1.369 . S
C438 C440 1.419 . S
C438 H442 0.930 . S
C439 C438 1.369 . S
C439 C448 1.429 . S
C440 C438 1.419 . S
C440 C441 1.363 . S
C440 H443 0.929 . S
C441 C440 1.363 . S
C441 C447 1.428 . S
H442 C438 0.930 . S
H443 C440 0.929 . S
S444 N445 1.613 . S
S444 N446 1.610 . S
N445 S444 1.613 . S
N445 C448 1.350 . S
N446 S444 1.610 . S
N446 C447 1.351 . S
C447 C441 1.428 . S
C447 N446 1.351 . S
C447 C448 1.434 . S
C448 C439 1.429 . S
C448 N445 1.350 . S
C448 C447 1.434 . S
C449 C450 1.369 . S
C449 C451 1.419 . S
C449 H453 0.930 . S
C450 C449 1.369 . S
C450 C459 1.429 . S
C451 C449 1.419 . S
C451 C452 1.363 . S
C451 H454 0.929 . S
C452 C451 1.363 . S
C452 C458 1.428 . S
H453 C449 0.930 . S
H454 C451 0.929 . S
S455 N456 1.613 . S
S455 N457 1.610 . S
N456 S455 1.613 . S
N456 C459 1.350 . S
N457 S455 1.610 . S
N457 C458 1.351 . S
C458 C452 1.428 . S
C458 N457 1.351 . S
C458 C459 1.434 . S
C459 C450 1.429 . S
C459 N456 1.350 . S
C459 C458 1.434 . S
C460 C461 1.369 . S
C460 C462 1.419 . S
C460 H464 0.930 . S
C461 C460 1.369 . S
C461 C470 1.429 . S
C462 C460 1.419 . S
C462 C463 1.363 . S
C462 H465 0.929 . S
C463 C462 1.363 . S
C463 C469 1.428 . S
H464 C460 0.930 . S
H465 C462 0.929 . S
S466 N467 1.613 . S
S466 N468 1.610 . S
N467 S466 1.613 . S
N467 C470 1.350 . S
N468 S466 1.610 . S
N468 C469 1.351 . S
C469 C463 1.428 . S
C469 N468 1.351 . S
C469 C470 1.434 . S
C470 C461 1.429 . S
C470 N467 1.350 . S
C470 C469 1.434 . S
C471 C472 1.369 . S
C471 C473 1.419 . S
C471 H475 0.930 . S
C472 C471 1.369 . S
C472 C481 1.429 . S
C473 C471 1.419 . S
C473 C474 1.363 . S
C473 H476 0.929 . S
C474 C473 1.363 . S
C474 C480 1.428 . S
H475 C471 0.930 . S
H476 C473 0.929 . S
S477 N478 1.613 . S
S477 N479 1.610 . S
N478 S477 1.613 . S
N478 C481 1.350 . S
N479 S477 1.610 . S
N479 C480 1.351 . S
C480 C474 1.428 . S
C480 N479 1.351 . S
C480 C481 1.434 . S
C481 C472 1.429 . S
C481 N478 1.350 . S
C481 C480 1.434 . S
C482 C483 1.369 . S
C482 C484 1.419 . S
C482 H486 0.930 . S
C483 C482 1.369 . S
C483 C492 1.429 . S
C484 C482 1.419 . S
C484 C485 1.363 . S
C484 H487 0.929 . S
C485 C484 1.363 . S
C485 C491 1.428 . S
H486 C482 0.930 . S
H487 C484 0.929 . S
S488 N489 1.613 . S
S488 N490 1.610 . S
N489 S488 1.613 . S
N489 C492 1.350 . S
N490 S488 1.610 . S
N490 C491 1.351 . S
C491 C485 1.428 . S
C491 N490 1.351 . S
C491 C492 1.434 . S
C492 C483 1.429 . S
C492 N489 1.350 . S
C492 C491 1.434 . S
C493 C494 1.369 . S
C493 C495 1.419 . S
C493 H497 0.930 . S
C494 C493 1.369 . S
C494 C503 1.429 . S
C495 C493 1.419 . S
C495 C496 1.363 . S
C495 H498 0.929 . S
C496 C495 1.363 . S
C496 C502 1.428 . S
H497 C493 0.930 . S
H498 C495 0.929 . S
S499 N500 1.613 . S
S499 N501 1.610 . S
N500 S499 1.613 . S
N500 C503 1.350 . S
N501 S499 1.610 . S
N501 C502 1.351 . S
C502 C496 1.428 . S
C502 N501 1.351 . S
C502 C503 1.434 . S
C503 C494 1.429 . S
C503 N500 1.350 . S
C503 C502 1.434 . S
C504 C505 1.369 . S
C504 C506 1.419 . S
C504 H508 0.930 . S
C505 C504 1.369 . S
C505 C514 1.429 . S
C506 C504 1.419 . S
C506 C507 1.363 . S
C506 H509 0.929 . S
C507 C506 1.363 . S
C507 C513 1.428 . S
H508 C504 0.930 . S
H509 C506 0.929 . S
S510 N511 1.613 . S
S510 N512 1.610 . S
N511 S510 1.613 . S
N511 C514 1.350 . S
N512 S510 1.610 . S
N512 C513 1.351 . S
C513 C507 1.428 . S
C513 N512 1.351 . S
C513 C514 1.434 . S
C514 C505 1.429 . S
C514 N511 1.350 . S
C514 C513 1.434 . S
C515 C516 1.369 . S
C515 C517 1.419 . S
C515 H519 0.930 . S
C516 C515 1.369 . S
C516 C525 1.429 . S
C517 C515 1.419 . S
C517 C518 1.363 . S
C517 H520 0.929 . S
C518 C517 1.363 . S
C518 C524 1.428 . S
H519 C515 0.930 . S
H520 C517 0.929 . S
S521 N522 1.613 . S
S521 N523 1.610 . S
N522 S521 1.613 . S
N522 C525 1.350 . S
N523 S521 1.610 . S
N523 C524 1.351 . S
C524 C518 1.428 . S
C524 N523 1.351 . S
C524 C525 1.434 . S
C525 C516 1.429 . S
C525 N522 1.350 . S
C525 C524 1.434 . S
C526 C527 1.369 . S
C526 C528 1.419 . S
C526 H530 0.930 . S
C527 C526 1.369 . S
C527 C536 1.429 . S
C528 C526 1.419 . S
C528 C529 1.363 . S
C528 H531 0.929 . S
C529 C528 1.363 . S
C529 C535 1.428 . S
H530 C526 0.930 . S
H531 C528 0.929 . S
S532 N533 1.613 . S
S532 N534 1.610 . S
N533 S532 1.613 . S
N533 C536 1.350 1_545 S
N534 S532 1.610 . S
N534 C535 1.351 1_545 S
C535 C529 1.428 . S
C535 N534 1.351 1_565 S
C535 C536 1.434 . S
C536 C527 1.429 . S
C536 N533 1.350 1_565 S
C536 C535 1.434 . S
C537 C538 1.369 . S
C537 C539 1.419 . S
C537 H541 0.930 . S
C538 C537 1.369 . S
C538 C547 1.429 . S
C539 C537 1.419 . S
C539 C540 1.363 . S
C539 H542 0.929 . S
C540 C539 1.363 . S
C540 C546 1.428 . S
H541 C537 0.930 . S
H542 C539 0.929 . S
S543 N544 1.613 . S
S543 N545 1.610 . S
N544 S543 1.613 . S
N544 C547 1.350 . S
N545 S543 1.610 . S
N545 C546 1.351 . S
C546 C540 1.428 . S
C546 N545 1.351 . S
C546 C547 1.434 . S
C547 C538 1.429 . S
C547 N544 1.350 . S
C547 C546 1.434 . S
C548 C549 1.369 . S
C548 C550 1.419 . S
C548 H552 0.930 . S
C549 C548 1.369 . S
C549 C558 1.429 . S
C550 C548 1.419 . S
C550 C551 1.363 . S
C550 H553 0.929 . S
C551 C550 1.363 . S
C551 C557 1.428 . S
H552 C548 0.930 . S
H553 C550 0.929 . S
S554 N555 1.613 . S
S554 N556 1.610 . S
N555 S554 1.613 . S
N555 C558 1.350 . S
N556 S554 1.610 . S
N556 C557 1.351 . S
C557 C551 1.428 . S
C557 N556 1.351 . S
C557 C558 1.434 . S
C558 C549 1.429 . S
C558 N555 1.350 . S
C558 C557 1.434 . S
C559 C560 1.369 . S
C559 C561 1.419 . S
C559 H563 0.930 . S
C560 C559 1.369 . S
C560 C569 1.429 . S
C561 C559 1.419 . S
C561 C562 1.363 . S
C561 H564 0.929 . S
C562 C561 1.363 . S
C562 C568 1.428 . S
H563 C559 0.930 . S
H564 C561 0.929 . S
S565 N566 1.613 . S
S565 N567 1.610 . S
N566 S565 1.613 . S
N566 C569 1.350 . S
N567 S565 1.610 . S
N567 C568 1.351 . S
C568 C562 1.428 . S
C568 N567 1.351 . S
C568 C569 1.434 . S
C569 C560 1.429 . S
C569 N566 1.350 . S
C569 C568 1.434 . S
C570 C571 1.369 . S
C570 C572 1.419 . S
C570 H574 0.930 . S
C571 C570 1.369 . S
C571 C580 1.429 . S
C572 C570 1.419 . S
C572 C573 1.363 . S
C572 H575 0.929 . S
C573 C572 1.363 . S
C573 C579 1.428 . S
H574 C570 0.930 . S
H575 C572 0.929 . S
S576 N577 1.613 . S
S576 N578 1.610 . S
N577 S576 1.613 . S
N577 C580 1.350 . S
N578 S576 1.610 . S
N578 C579 1.351 . S
C579 C573 1.428 . S
C579 N578 1.351 . S
C579 C580 1.434 . S
C580 C571 1.429 . S
C580 N577 1.350 . S
C580 C579 1.434 . S
C581 C582 1.369 . S
C581 C583 1.419 . S
C581 H585 0.930 . S
C582 C581 1.369 . S
C582 C591 1.429 . S
C583 C581 1.419 . S
C583 C584 1.363 . S
C583 H586 0.929 . S
C584 C583 1.363 . S
C584 C590 1.428 . S
H585 C581 0.930 . S
H586 C583 0.929 . S
S587 N588 1.613 . S
S587 N589 1.610 . S
N588 S587 1.613 . S
N588 C591 1.350 . S
N589 S587 1.610 . S
N589 C590 1.351 . S
C590 C584 1.428 . S
C590 N589 1.351 . S
C590 C591 1.434 . S
C591 C582 1.429 . S
C591 N588 1.350 . S
C591 C590 1.434 . S
C592 C593 1.367 1_655 S
C592 C594 1.421 . S
C592 H596 0.929 . S
C593 C592 1.367 1_455 S
C593 C602 1.429 . S
C594 C592 1.421 . S
C594 C595 1.363 . S
C594 H597 0.929 . S
C595 C594 1.363 . S
C595 C601 1.404 1_655 S
H596 C592 0.929 . S
H597 C594 0.929 . S
S598 N599 1.613 . S
S598 N600 1.610 . S
N599 S598 1.613 . S
N599 C602 1.350 . S
N600 S598 1.610 . S
N600 C601 1.359 . S
C601 C595 1.404 1_455 S
C601 N600 1.359 . S
C601 C602 1.458 . S
C602 C593 1.429 . S
C602 N599 1.350 . S
C602 C601 1.458 . S
C603 C604 1.369 1_565 S
C603 C605 1.419 . S
C603 H607 0.930 . S
C604 C603 1.369 1_545 S
C604 C613 1.429 . S
C605 C603 1.419 . S
C605 C606 1.363 . S
C605 H608 0.929 . S
C606 C605 1.363 . S
C606 C612 1.428 1_565 S
H607 C603 0.930 . S
H608 C605 0.929 . S
S609 N610 1.613 . S
S609 N611 1.610 . S
N610 S609 1.613 . S
N610 C613 1.350 . S
N611 S609 1.610 . S
N611 C612 1.351 . S
C612 C606 1.428 1_545 S
C612 N611 1.351 . S
C612 C613 1.434 . S
C613 C604 1.429 . S
C613 N610 1.350 . S
C613 C612 1.434 . S
C614 C615 1.369 1_554 S
C614 C616 1.419 1_455 S
C614 H618 0.930 . S
C615 C614 1.369 1_556 S
C615 C624 1.429 1_545 S
C616 C614 1.419 1_655 S
C616 C617 1.363 1_545 S
C616 H619 0.929 . S
C617 C616 1.363 1_565 S
C617 C623 1.428 1_554 S
H618 C614 0.930 . S
H619 C616 0.929 . S
S620 N621 1.613 1_655 S
S620 N622 1.610 . S
N621 S620 1.613 1_455 S
N621 C624 1.350 . S
N622 S620 1.610 . S
N622 C623 1.351 . S
C623 C617 1.428 1_556 S
C623 N622 1.351 . S
C623 C624 1.434 1_655 S
C624 C615 1.429 1_565 S
C624 N621 1.350 . S
C624 C623 1.434 1_455 S
C625 C626 1.369 1_554 S
C625 C627 1.419 . S
C625 H629 0.930 . S
C626 C625 1.369 1_556 S
C626 C635 1.429 . S
C627 C625 1.419 . S
C627 C628 1.363 . S
C627 H630 0.929 . S
C628 C627 1.363 . S
C628 C634 1.428 1_554 S
H629 C625 0.930 . S
H630 C627 0.929 . S
S631 N632 1.613 . S
S631 N633 1.610 . S
N632 S631 1.613 . S
N632 C635 1.350 . S
N633 S631 1.610 . S
N633 C634 1.351 . S
C634 C628 1.428 1_556 S
C634 N633 1.351 . S
C634 C635 1.434 . S
C635 C626 1.429 . S
C635 N632 1.350 . S
C635 C634 1.434 . S
C636 C637 1.369 . S
C636 C638 1.425 . S
C636 H640 0.930 . S
C637 C636 1.369 . S
C637 C646 1.423 1_655 S
C638 C636 1.425 . S
C638 C639 1.356 1_655 S
C638 H641 0.930 . S
C639 C638 1.356 1_455 S
C639 C645 1.428 . S
H640 C636 0.930 . S
H641 C638 0.930 . S
S642 N643 1.613 . S
S642 N644 1.610 . S
N643 S642 1.613 . S
N643 C646 1.350 . S
N644 S642 1.610 . S
N644 C645 1.351 . S
C645 C639 1.428 . S
C645 N644 1.351 . S
C645 C646 1.439 . S
C646 C637 1.423 1_455 S
C646 N643 1.350 . S
C646 C645 1.439 . S
C647 C648 1.369 1_565 S
C647 C649 1.419 . S
C647 H651 0.930 . S
C648 C647 1.369 1_545 S
C648 C657 1.429 . S
C649 C647 1.419 . S
C649 C650 1.363 . S
C649 H652 0.929 . S
C650 C649 1.363 . S
C650 C656 1.428 1_565 S
H651 C647 0.930 . S
H652 C649 0.929 . S
S653 N654 1.613 . S
S653 N655 1.610 . S
N654 S653 1.613 . S
N654 C657 1.350 . S
N655 S653 1.610 . S
N655 C656 1.351 . S
C656 C650 1.428 1_545 S
C656 N655 1.351 . S
C656 C657 1.434 . S
C657 C648 1.429 . S
C657 N654 1.350 . S
C657 C656 1.434 . S
C658 C659 1.369 . S
C658 C660 1.417 . S
C658 H662 0.930 . S
C659 C658 1.369 . S
C659 C668 1.419 1_556 S
C660 C658 1.417 . S
C660 C661 1.365 1_556 S
C660 H663 0.928 . S
C661 C660 1.365 1_554 S
C661 C667 1.428 . S
H662 C658 0.930 . S
H663 C660 0.928 . S
S664 N665 1.613 . S
S664 N666 1.610 . S
N665 S664 1.613 . S
N665 C668 1.351 . S
N666 S664 1.610 . S
N666 C667 1.351 . S
C667 C661 1.428 . S
C667 N666 1.351 . S
C667 C668 1.443 . S
C668 C659 1.419 1_554 S
C668 N665 1.351 . S
C668 C667 1.443 . S
C669 C670 1.369 . S
C669 C671 1.419 . S
C669 H673 0.930 . S
C670 C669 1.369 . S
C670 C679 1.429 . S
C671 C669 1.419 . S
C671 C672 1.363 . S
C671 H674 0.929 . S
C672 C671 1.363 . S
C672 C678 1.428 . S
H673 C669 0.930 . S
H674 C671 0.929 . S
S675 N676 1.613 . S
S675 N677 1.610 . S
N676 S675 1.613 . S
N676 C679 1.350 . S
N677 S675 1.610 . S
N677 C678 1.351 . S
C678 C672 1.428 . S
C678 N677 1.351 . S
C678 C679 1.434 . S
C679 C670 1.429 . S
C679 N676 1.350 . S
C679 C678 1.434 . S
C680 C681 1.369 . S
C680 C682 1.419 1_455 S
C680 H684 0.930 . S
C681 C680 1.369 . S
C681 C690 1.429 . S
C682 C680 1.419 1_655 S
C682 C683 1.363 . S
C682 H685 0.929 . S
C683 C682 1.363 . S
C683 C689 1.428 . S
H684 C680 0.930 . S
H685 C682 0.929 . S
S686 N687 1.626 . S
S686 N688 1.597 1_455 S
N687 S686 1.626 . S
N687 C690 1.350 . S
N688 S686 1.597 1_655 S
N688 C689 1.351 . S
C689 C683 1.428 . S
C689 N688 1.351 . S
C689 C690 1.434 1_655 S
C690 C681 1.429 . S
C690 N687 1.350 . S
C690 C689 1.434 1_455 S
C691 C692 1.369 . S
C691 C693 1.419 . S
C691 H695 0.930 . S
C692 C691 1.369 . S
C692 C701 1.429 . S
C693 C691 1.419 . S
C693 C694 1.363 . S
C693 H696 0.929 . S
C694 C693 1.363 . S
C694 C700 1.428 . S
H695 C691 0.930 . S
H696 C693 0.929 . S
S697 N698 1.613 . S
S697 N699 1.610 . S
N698 S697 1.613 . S
N698 C701 1.350 . S
N699 S697 1.610 . S
N699 C700 1.351 . S
C700 C694 1.428 . S
C700 N699 1.351 . S
C700 C701 1.434 . S
C701 C692 1.429 . S
C701 N698 1.350 . S
C701 C700 1.434 . S
C702 C703 1.369 . S
C702 C704 1.419 . S
C702 H706 0.930 . S
C703 C702 1.369 . S
C703 C712 1.429 . S
C704 C702 1.419 . S
C704 C705 1.363 . S
C704 H707 0.929 . S
C705 C704 1.363 . S
C705 C711 1.428 . S
H706 C702 0.930 . S
H707 C704 0.929 . S
S708 N709 1.613 . S
S708 N710 1.610 . S
N709 S708 1.613 . S
N709 C712 1.350 . S
N710 S708 1.610 . S
N710 C711 1.351 . S
C711 C705 1.428 . S
C711 N710 1.351 . S
C711 C712 1.434 . S
C712 C703 1.429 . S
C712 N709 1.350 . S
C712 C711 1.434 . S
C713 C714 1.369 . S
C713 C715 1.419 . S
C713 H717 0.930 . S
C714 C713 1.369 . S
C714 C723 1.429 . S
C715 C713 1.419 . S
C715 C716 1.363 . S
C715 H718 0.929 . S
C716 C715 1.363 . S
C716 C722 1.428 . S
H717 C713 0.930 . S
H718 C715 0.929 . S
S719 N720 1.613 . S
S719 N721 1.610 . S
N720 S719 1.613 . S
N720 C723 1.350 . S
N721 S719 1.610 . S
N721 C722 1.351 . S
C722 C716 1.428 . S
C722 N721 1.351 . S
C722 C723 1.434 . S
C723 C714 1.429 . S
C723 N720 1.350 . S
C723 C722 1.434 . S
C724 C725 1.369 . S
C724 C726 1.419 . S
C724 H728 0.930 . S
C725 C724 1.369 . S
C725 C734 1.429 . S
C726 C724 1.419 . S
C726 C727 1.363 . S
C726 H729 0.929 . S
C727 C726 1.363 . S
C727 C733 1.428 . S
H728 C724 0.930 . S
H729 C726 0.929 . S
S730 N731 1.613 . S
S730 N732 1.610 . S
N731 S730 1.613 . S
N731 C734 1.350 . S
N732 S730 1.610 . S
N732 C733 1.351 . S
C733 C727 1.428 . S
C733 N732 1.351 . S
C733 C734 1.434 . S
C734 C725 1.429 . S
C734 N731 1.350 . S
C734 C733 1.434 . S
C735 C736 1.369 . S
C735 C737 1.419 1_565 S
C735 H739 0.930 . S
C736 C735 1.369 . S
C736 C745 1.429 . S
C737 C735 1.419 1_545 S
C737 C738 1.363 . S
C737 H740 0.929 . S
C738 C737 1.363 . S
C738 C744 1.428 . S
H739 C735 0.930 . S
H740 C737 0.929 . S
S741 N742 1.613 . S
S741 N743 1.610 1_565 S
N742 S741 1.613 . S
N742 C745 1.350 . S
N743 S741 1.610 1_545 S
N743 C744 1.351 . S
C744 C738 1.428 . S
C744 N743 1.351 . S
C744 C745 1.434 1_545 S
C745 C736 1.429 . S
C745 N742 1.350 . S
C745 C744 1.434 1_565 S
C746 C747 1.369 . S
C746 C748 1.419 . S
C746 H750 0.930 . S
C747 C746 1.369 . S
C747 C756 1.429 . S
C748 C746 1.419 . S
C748 C749 1.363 . S
C748 H751 0.929 . S
C749 C748 1.363 . S
C749 C755 1.428 . S
H750 C746 0.930 . S
H751 C748 0.929 . S
S752 N753 1.613 . S
S752 N754 1.610 . S
N753 S752 1.613 . S
N753 C756 1.350 . S
N754 S752 1.610 . S
N754 C755 1.351 . S
C755 C749 1.428 . S
C755 N754 1.351 . S
C755 C756 1.434 . S
C756 C747 1.429 . S
C756 N753 1.350 . S
C756 C755 1.434 . S
C757 C758 1.369 . S
C757 C759 1.419 . S
C757 H761 0.930 . S
C758 C757 1.369 . S
C758 C767 1.429 1_554 S
C759 C757 1.419 . S
C759 C760 1.363 1_554 S
C759 H762 0.929 . S
C760 C759 1.363 1_556 S
C760 C766 1.428 . S
H761 C757 0.930 . S
H762 C759 0.929 . S
S763 N764 1.613 . S
S763 N765 1.610 . S
N764 S763 1.613 . S
N764 C767 1.350 . S
N765 S763 1.610 . S
N765 C766 1.351 . S
C766 C760 1.428 . S
C766 N765 1.351 . S
C766 C767 1.434 . S
C767 C758 1.429 1_556 S
C767 N764 1.350 . S
C767 C766 1.434 . S
C768 C769 1.369 . S
C768 C770 1.419 . S
C768 H772 0.930 . S
C769 C768 1.369 . S
C769 C778 1.429 . S
C770 C768 1.419 . S
C770 C771 1.363 . S
C770 H773 0.929 . S
C771 C770 1.363 . S
C771 C777 1.428 . S
H772 C768 0.930 . S
H773 C770 0.929 . S
S774 N775 1.613 . S
S774 N776 1.610 . S
N775 S774 1.613 . S
N775 C778 1.350 . S
N776 S774 1.610 . S
N776 C777 1.351 . S
C777 C771 1.428 . S
C777 N776 1.351 . S
C777 C778 1.434 . S
C778 C769 1.429 . S
C778 N775 1.350 . S
C778 C777 1.434 . S
C779 C780 1.369 . S
C779 C781 1.419 . S
C779 H783 0.930 . S
C780 C779 1.369 . S
C780 C789 1.429 . S
C781 C779 1.419 . S
C781 C782 1.363 . S
C781 H784 0.929 . S
C782 C781 1.363 . S
C782 C788 1.428 . S
H783 C779 0.930 . S
H784 C781 0.929 . S
S785 N786 1.613 . S
S785 N787 1.610 . S
N786 S785 1.613 . S
N786 C789 1.350 . S
N787 S785 1.610 . S
N787 C788 1.351 . S
C788 C782 1.428 . S
C788 N787 1.351 . S
C788 C789 1.434 . S
C789 C780 1.429 . S
C789 N786 1.350 . S
C789 C788 1.434 . S
C790 C791 1.369 . S
C790 C792 1.419 . S
C790 H794 0.930 . S
C791 C790 1.369 . S
C791 C800 1.429 . S
C792 C790 1.419 . S
C792 C793 1.363 . S
C792 H795 0.929 . S
C793 C792 1.363 . S
C793 C799 1.428 . S
H794 C790 0.930 . S
H795 C792 0.929 . S
S796 N797 1.613 . S
S796 N798 1.610 . S
N797 S796 1.613 . S
N797 C800 1.350 . S
N798 S796 1.610 . S
N798 C799 1.351 . S
C799 C793 1.428 . S
C799 N798 1.351 . S
C799 C800 1.434 . S
C800 C791 1.429 . S
C800 N797 1.350 . S
C800 C799 1.434 . S
C801 C802 1.369 . S
C801 C803 1.419 . S
C801 H805 0.930 . S
C802 C801 1.369 . S
C802 C811 1.429 . S
C803 C801 1.419 . S
C803 C804 1.363 . S
C803 H806 0.929 . S
C804 C803 1.363 . S
C804 C810 1.428 . S
H805 C801 0.930 . S
H806 C803 0.929 . S
S807 N808 1.613 . S
S807 N809 1.610 . S
N808 S807 1.613 . S
N808 C811 1.350 . S
N809 S807 1.610 . S
N809 C810 1.351 . S
C810 C804 1.428 . S
C810 N809 1.351 . S
C810 C811 1.434 . S
C811 C802 1.429 . S
C811 N808 1.350 . S
C811 C810 1.434 . S
C812 C813 1.369 . S
C812 C814 1.419 . S
C812 H816 0.930 . S
C813 C812 1.369 . S
C813 C822 1.429 . S
C814 C812 1.419 . S
C814 C815 1.363 . S
C814 H817 0.929 . S
C815 C814 1.363 . S
C815 C821 1.428 . S
H816 C812 0.930 . S
H817 C814 0.929 . S
S818 N819 1.613 . S
S818 N820 1.610 . S
N819 S818 1.613 . S
N819 C822 1.350 . S
N820 S818 1.610 . S
N820 C821 1.351 . S
C821 C815 1.428 . S
C821 N820 1.351 . S
C821 C822 1.434 . S
C822 C813 1.429 . S
C822 N819 1.350 . S
C822 C821 1.434 . S
C823 C824 1.369 . S
C823 C825 1.419 . S
C823 H827 0.930 . S
C824 C823 1.369 . S
C824 C833 1.429 . S
C825 C823 1.419 . S
C825 C826 1.363 . S
C825 H828 0.929 . S
C826 C825 1.363 . S
C826 C832 1.428 . S
H827 C823 0.930 . S
H828 C825 0.929 . S
S829 N830 1.613 . S
S829 N831 1.610 . S
N830 S829 1.613 . S
N830 C833 1.350 . S
N831 S829 1.610 . S
N831 C832 1.351 . S
C832 C826 1.428 . S
C832 N831 1.351 . S
C832 C833 1.434 . S
C833 C824 1.429 . S
C833 N830 1.350 . S
C833 C832 1.434 . S
C834 C835 1.369 . S
C834 C836 1.419 . S
C834 H838 0.930 . S
C835 C834 1.369 . S
C835 C844 1.429 . S
C836 C834 1.419 . S
C836 C837 1.363 . S
C836 H839 0.929 . S
C837 C836 1.363 . S
C837 C843 1.428 . S
H838 C834 0.930 . S
H839 C836 0.929 . S
S840 N841 1.613 . S
S840 N842 1.610 . S
N841 S840 1.613 . S
N841 C844 1.350 . S
N842 S840 1.610 . S
N842 C843 1.351 . S
C843 C837 1.428 . S
C843 N842 1.351 . S
C843 C844 1.434 . S
C844 C835 1.429 . S
C844 N841 1.350 . S
C844 C843 1.434 . S
C845 C846 1.369 . S
C845 C847 1.419 . S
C845 H849 0.930 . S
C846 C845 1.369 . S
C846 C855 1.429 . S
C847 C845 1.419 . S
C847 C848 1.363 . S
C847 H850 0.929 . S
C848 C847 1.363 . S
C848 C854 1.428 . S
H849 C845 0.930 . S
H850 C847 0.929 . S
S851 N852 1.613 . S
S851 N853 1.610 . S
N852 S851 1.613 . S
N852 C855 1.350 . S
N853 S851 1.610 . S
N853 C854 1.351 . S
C854 C848 1.428 . S
C854 N853 1.351 . S
C854 C855 1.434 . S
C855 C846 1.429 . S
C855 N852 1.350 . S
C855 C854 1.434 . S
C856 C857 1.369 . S
C856 C858 1.419 . S
C856 H860 0.930 . S
C857 C856 1.369 . S
C857 C866 1.429 . S
C858 C856 1.419 . S
C858 C859 1.363 . S
C858 H861 0.929 . S
C859 C858 1.363 . S
C859 C865 1.428 . S
H860 C856 0.930 . S
H861 C858 0.929 . S
S862 N863 1.613 . S
S862 N864 1.610 . S
N863 S862 1.613 . S
N863 C866 1.350 . S
N864 S862 1.610 . S
N864 C865 1.351 . S
C865 C859 1.428 . S
C865 N864 1.351 . S
C865 C866 1.434 . S
C866 C857 1.429 . S
C866 N863 1.350 . S
C866 C865 1.434 . S
C867 C868 1.369 . S
C867 C869 1.419 . S
C867 H871 0.930 . S
C868 C867 1.369 . S
C868 C877 1.429 . S
C869 C867 1.419 . S
C869 C870 1.363 . S
C869 H872 0.929 . S
C870 C869 1.363 . S
C870 C876 1.428 . S
H871 C867 0.930 . S
H872 C869 0.929 . S
S873 N874 1.613 . S
S873 N875 1.610 . S
N874 S873 1.613 . S
N874 C877 1.350 . S
N875 S873 1.610 . S
N875 C876 1.351 . S
C876 C870 1.428 . S
C876 N875 1.351 . S
C876 C877 1.434 . S
C877 C868 1.429 . S
C877 N874 1.350 . S
C877 C876 1.434 . S
C878 C879 1.369 . S
C878 C880 1.419 . S
C878 H882 0.930 . S
C879 C878 1.369 . S
C879 C888 1.429 . S
C880 C878 1.419 . S
C880 C881 1.363 . S
C880 H883 0.929 . S
C881 C880 1.363 . S
C881 C887 1.428 . S
H882 C878 0.930 . S
H883 C880 0.929 . S
S884 N885 1.613 . S
S884 N886 1.610 1_565 S
N885 S884 1.613 . S
N885 C888 1.350 . S
N886 S884 1.610 1_545 S
N886 C887 1.351 1_545 S
C887 C881 1.428 . S
C887 N886 1.351 1_565 S
C887 C888 1.434 . S
C888 C879 1.429 . S
C888 N885 1.350 . S
C888 C887 1.434 . S
C889 C890 1.369 . S
C889 C891 1.419 . S
C889 H893 0.930 . S
C890 C889 1.369 . S
C890 C899 1.429 . S
C891 C889 1.419 . S
C891 C892 1.363 . S
C891 H894 0.929 . S
C892 C891 1.363 . S
C892 C898 1.428 . S
H893 C889 0.930 . S
H894 C891 0.929 . S
S895 N896 1.613 . S
S895 N897 1.610 . S
N896 S895 1.613 . S
N896 C899 1.350 . S
N897 S895 1.610 . S
N897 C898 1.351 . S
C898 C892 1.428 . S
C898 N897 1.351 . S
C898 C899 1.434 . S
C899 C890 1.429 . S
C899 N896 1.350 . S
C899 C898 1.434 . S
C900 C901 1.369 . S
C900 C902 1.419 . S
C900 H904 0.930 . S
C901 C900 1.369 . S
C901 C910 1.429 . S
C902 C900 1.419 . S
C902 C903 1.363 . S
C902 H905 0.929 . S
C903 C902 1.363 . S
C903 C909 1.428 . S
H904 C900 0.930 . S
H905 C902 0.929 . S
S906 N907 1.613 . S
S906 N908 1.610 . S
N907 S906 1.613 . S
N907 C910 1.350 . S
N908 S906 1.610 . S
N908 C909 1.351 . S
C909 C903 1.428 . S
C909 N908 1.351 . S
C909 C910 1.434 . S
C910 C901 1.429 . S
C910 N907 1.350 . S
C910 C909 1.434 . S
C911 C912 1.369 . S
C911 C913 1.419 . S
C911 H915 0.930 . S
C912 C911 1.369 . S
C912 C921 1.429 . S
C913 C911 1.419 . S
C913 C914 1.363 . S
C913 H916 0.929 . S
C914 C913 1.363 . S
C914 C920 1.428 . S
H915 C911 0.930 . S
H916 C913 0.929 . S
S917 N918 1.613 1_545 S
S917 N919 1.610 . S
N918 S917 1.613 1_565 S
N918 C921 1.350 1_565 S
N919 S917 1.610 . S
N919 C920 1.351 . S
C920 C914 1.428 . S
C920 N919 1.351 . S
C920 C921 1.434 . S
C921 C912 1.429 . S
C921 N918 1.350 1_545 S
C921 C920 1.434 . S
C922 C923 1.369 . S
C922 C924 1.419 . S
C922 H926 0.930 . S
C923 C922 1.369 . S
C923 C932 1.429 . S
C924 C922 1.419 . S
C924 C925 1.363 . S
C924 H927 0.929 . S
C925 C924 1.363 . S
C925 C931 1.428 . S
H926 C922 0.930 . S
H927 C924 0.929 . S
S928 N929 1.613 . S
S928 N930 1.610 1_545 S
N929 S928 1.613 . S
N929 C932 1.350 . S
N930 S928 1.610 1_565 S
N930 C931 1.351 1_565 S
C931 C925 1.428 . S
C931 N930 1.351 1_545 S
C931 C932 1.434 . S
C932 C923 1.429 . S
C932 N929 1.350 . S
C932 C931 1.434 . S
C933 C934 1.369 . S
C933 C935 1.419 . S
C933 H937 0.930 . S
C934 C933 1.369 . S
C934 C943 1.429 . S
C935 C933 1.419 . S
C935 C936 1.363 . S
C935 H938 0.929 . S
C936 C935 1.363 . S
C936 C942 1.428 . S
H937 C933 0.930 . S
H938 C935 0.929 . S
S939 N940 1.613 . S
S939 N941 1.610 . S
N940 S939 1.613 . S
N940 C943 1.350 . S
N941 S939 1.610 . S
N941 C942 1.351 . S
C942 C936 1.428 . S
C942 N941 1.351 . S
C942 C943 1.434 . S
C943 C934 1.429 . S
C943 N940 1.350 . S
C943 C942 1.434 . S
C944 C945 1.369 . S
C944 C946 1.419 . S
C944 H948 0.930 . S
C945 C944 1.369 . S
C945 C954 1.429 . S
C946 C944 1.419 . S
C946 C947 1.363 . S
C946 H949 0.929 . S
C947 C946 1.363 . S
C947 C953 1.428 . S
H948 C944 0.930 . S
H949 C946 0.929 . S
S950 N951 1.613 . S
S950 N952 1.610 . S
N951 S950 1.613 . S
N951 C954 1.350 . S
N952 S950 1.610 . S
N952 C953 1.351 . S
C953 C947 1.428 . S
C953 N952 1.351 . S
C953 C954 1.434 . S
C954 C945 1.429 . S
C954 N951 1.350 . S
C954 C953 1.434 . S
C955 C956 1.369 . S
C955 C957 1.419 . S
C955 H959 0.930 . S
C956 C955 1.369 . S
C956 C965 1.429 . S
C957 C955 1.419 . S
C957 C958 1.363 . S
C957 H960 0.929 . S
C958 C957 1.363 . S
C958 C964 1.428 . S
H959 C955 0.930 . S
H960 C957 0.929 . S
S961 N962 1.613 . S
S961 N963 1.610 . S
N962 S961 1.613 . S
N962 C965 1.350 . S
N963 S961 1.610 . S
N963 C964 1.351 . S
C964 C958 1.428 . S
C964 N963 1.351 . S
C964 C965 1.434 . S
C965 C956 1.429 . S
C965 N962 1.350 . S
C965 C964 1.434 . S
C966 C967 1.369 . S
C966 C968 1.419 . S
C966 H970 0.930 . S
C967 C966 1.369 . S
C967 C976 1.429 . S
C968 C966 1.419 . S
C968 C969 1.363 . S
C968 H971 0.929 . S
C969 C968 1.363 . S
C969 C975 1.428 . S
H970 C966 0.930 . S
H971 C968 0.929 . S
S972 N973 1.613 . S
S972 N974 1.610 . S
N973 S972 1.613 . S
N973 C976 1.350 . S
N974 S972 1.610 . S
N974 C975 1.351 . S
C975 C969 1.428 . S
C975 N974 1.351 . S
C975 C976 1.434 . S
C976 C967 1.429 . S
C976 N973 1.350 . S
C976 C975 1.434 . S
C977 C978 1.369 . S
C977 C979 1.419 . S
C977 H981 0.930 . S
C978 C977 1.369 . S
C978 C987 1.429 . S
C979 C977 1.419 . S
C979 C980 1.363 . S
C979 H982 0.929 . S
C980 C979 1.363 . S
C980 C986 1.428 . S
H981 C977 0.930 . S
H982 C979 0.929 . S
S983 N984 1.613 1_565 S
S983 N985 1.610 . S
N984 S983 1.613 1_545 S
N984 C987 1.350 1_545 S
N985 S983 1.610 . S
N985 C986 1.351 . S
C986 C980 1.428 . S
C986 N985 1.351 . S
C986 C987 1.434 . S
C987 C978 1.429 . S
C987 N984 1.350 1_565 S
C987 C986 1.434 . S
C988 C989 1.369 . S
C988 C990 1.419 . S
C988 H992 0.930 . S
C989 C988 1.369 . S
C989 C998 1.429 . S
C990 C988 1.419 . S
C990 C991 1.363 . S
C990 H993 0.929 . S
C991 C990 1.363 . S
C991 C997 1.428 . S
H992 C988 0.930 . S
H993 C990 0.929 . S
S994 N995 1.613 . S
S994 N996 1.610 . S
N995 S994 1.613 . S
N995 C998 1.350 . S
N996 S994 1.610 . S
N996 C997 1.351 . S
C997 C991 1.428 . S
C997 N996 1.351 . S
C997 C998 1.434 . S
C998 C989 1.429 . S
C998 N995 1.350 . S
C998 C997 1.434 . S
C999 C1000 1.369 . S
C999 C1001 1.419 . S
C999 H1003 0.930 . S
C1000 C999 1.369 . S
C1000 C1009 1.429 . S
C1001 C999 1.419 . S
C1001 C1002 1.363 . S
C1001 H1004 0.929 . S
C1002 C1001 1.363 . S
C1002 C1008 1.428 . S
H1003 C999 0.930 . S
H1004 C1001 0.929 . S
S1005 N1006 1.613 . S
S1005 N1007 1.610 . S
N1006 S1005 1.613 . S
N1006 C1009 1.350 . S
N1007 S1005 1.610 . S
N1007 C1008 1.351 . S
C1008 C1002 1.428 . S
C1008 N1007 1.351 . S
C1008 C1009 1.434 . S
C1009 C1000 1.429 . S
C1009 N1006 1.350 . S
C1009 C1008 1.434 . S
C1010 C1011 1.369 . S
C1010 C1012 1.419 . S
C1010 H1014 0.930 . S
C1011 C1010 1.369 . S
C1011 C1020 1.429 . S
C1012 C1010 1.419 . S
C1012 C1013 1.363 . S
C1012 H1015 0.929 . S
C1013 C1012 1.363 . S
C1013 C1019 1.428 . S
H1014 C1010 0.930 . S
H1015 C1012 0.929 . S
S1016 N1017 1.613 . S
S1016 N1018 1.610 . S
N1017 S1016 1.613 . S
N1017 C1020 1.350 . S
N1018 S1016 1.610 . S
N1018 C1019 1.351 . S
C1019 C1013 1.428 . S
C1019 N1018 1.351 . S
C1019 C1020 1.434 . S
C1020 C1011 1.429 . S
C1020 N1017 1.350 . S
C1020 C1019 1.434 . S
C1021 C1022 1.369 . S
C1021 C1023 1.419 . S
C1021 H1025 0.930 . S
C1022 C1021 1.369 . S
C1022 C1031 1.429 . S
C1023 C1021 1.419 . S
C1023 C1024 1.363 . S
C1023 H1026 0.929 . S
C1024 C1023 1.363 . S
C1024 C1030 1.428 . S
H1025 C1021 0.930 . S
H1026 C1023 0.929 . S
S1027 N1028 1.613 . S
S1027 N1029 1.610 . S
N1028 S1027 1.613 . S
N1028 C1031 1.350 . S
N1029 S1027 1.610 . S
N1029 C1030 1.351 . S
C1030 C1024 1.428 . S
C1030 N1029 1.351 . S
C1030 C1031 1.434 . S
C1031 C1022 1.429 . S
C1031 N1028 1.350 . S
C1031 C1030 1.434 . S
C1032 C1033 1.369 . S
C1032 C1034 1.419 . S
C1032 H1036 0.930 . S
C1033 C1032 1.369 . S
C1033 C1042 1.429 . S
C1034 C1032 1.419 . S
C1034 C1035 1.363 . S
C1034 H1037 0.929 . S
C1035 C1034 1.363 . S
C1035 C1041 1.428 . S
H1036 C1032 0.930 . S
H1037 C1034 0.929 . S
S1038 N1039 1.613 . S
S1038 N1040 1.610 1_565 S
N1039 S1038 1.613 . S
N1039 C1042 1.350 . S
N1040 S1038 1.610 1_545 S
N1040 C1041 1.351 1_545 S
C1041 C1035 1.428 . S
C1041 N1040 1.351 1_565 S
C1041 C1042 1.434 . S
C1042 C1033 1.429 . S
C1042 N1039 1.350 . S
C1042 C1041 1.434 . S
C1043 C1044 1.369 . S
C1043 C1045 1.419 . S
C1043 H1047 0.930 . S
C1044 C1043 1.369 . S
C1044 C1053 1.429 . S
C1045 C1043 1.419 . S
C1045 C1046 1.363 . S
C1045 H1048 0.929 . S
C1046 C1045 1.363 . S
C1046 C1052 1.428 . S
H1047 C1043 0.930 . S
H1048 C1045 0.929 . S
S1049 N1050 1.613 . S
S1049 N1051 1.610 . S
N1050 S1049 1.613 . S
N1050 C1053 1.350 . S
N1051 S1049 1.610 . S
N1051 C1052 1.351 . S
C1052 C1046 1.428 . S
C1052 N1051 1.351 . S
C1052 C1053 1.434 . S
C1053 C1044 1.429 . S
C1053 N1050 1.350 . S
C1053 C1052 1.434 . S
C1054 C1055 1.369 . S
C1054 C1056 1.419 . S
C1054 H1058 0.930 . S
C1055 C1054 1.369 . S
C1055 C1064 1.429 . S
C1056 C1054 1.419 . S
C1056 C1057 1.363 . S
C1056 H1059 0.929 . S
C1057 C1056 1.363 . S
C1057 C1063 1.428 . S
H1058 C1054 0.930 . S
H1059 C1056 0.929 . S
S1060 N1061 1.613 . S
S1060 N1062 1.610 . S
N1061 S1060 1.613 . S
N1061 C1064 1.350 . S
N1062 S1060 1.610 . S
N1062 C1063 1.351 . S
C1063 C1057 1.428 . S
C1063 N1062 1.351 . S
C1063 C1064 1.434 . S
C1064 C1055 1.429 . S
C1064 N1061 1.350 . S
C1064 C1063 1.434 . S
C1065 C1066 1.369 . S
C1065 C1067 1.419 . S
C1065 H1069 0.930 . S
C1066 C1065 1.369 . S
C1066 C1075 1.429 . S
C1067 C1065 1.419 . S
C1067 C1068 1.363 . S
C1067 H1070 0.929 . S
C1068 C1067 1.363 . S
C1068 C1074 1.428 . S
H1069 C1065 0.930 . S
H1070 C1067 0.929 . S
S1071 N1072 1.613 . S
S1071 N1073 1.610 . S
N1072 S1071 1.613 . S
N1072 C1075 1.350 . S
N1073 S1071 1.610 . S
N1073 C1074 1.351 . S
C1074 C1068 1.428 . S
C1074 N1073 1.351 . S
C1074 C1075 1.434 . S
C1075 C1066 1.429 . S
C1075 N1072 1.350 . S
C1075 C1074 1.434 . S
C1076 C1077 1.369 . S
C1076 C1078 1.419 . S
C1076 H1080 0.930 . S
C1077 C1076 1.369 . S
C1077 C1086 1.429 . S
C1078 C1076 1.419 . S
C1078 C1079 1.363 . S
C1078 H1081 0.929 . S
C1079 C1078 1.363 . S
C1079 C1085 1.428 . S
H1080 C1076 0.930 . S
H1081 C1078 0.929 . S
S1082 N1083 1.613 . S
S1082 N1084 1.610 . S
N1083 S1082 1.613 . S
N1083 C1086 1.350 . S
N1084 S1082 1.610 . S
N1084 C1085 1.351 . S
C1085 C1079 1.428 . S
C1085 N1084 1.351 . S
C1085 C1086 1.434 . S
C1086 C1077 1.429 . S
C1086 N1083 1.350 . S
C1086 C1085 1.434 . S
C1087 C1088 1.369 . S
C1087 C1089 1.419 . S
C1087 H1091 0.930 . S
C1088 C1087 1.369 . S
C1088 C1097 1.429 . S
C1089 C1087 1.419 . S
C1089 C1090 1.363 . S
C1089 H1092 0.929 . S
C1090 C1089 1.363 . S
C1090 C1096 1.428 . S
H1091 C1087 0.930 . S
H1092 C1089 0.929 . S
S1093 N1094 1.613 . S
S1093 N1095 1.610 . S
N1094 S1093 1.613 . S
N1094 C1097 1.350 . S
N1095 S1093 1.610 . S
N1095 C1096 1.351 . S
C1096 C1090 1.428 . S
C1096 N1095 1.351 . S
C1096 C1097 1.434 . S
C1097 C1088 1.429 . S
C1097 N1094 1.350 . S
C1097 C1096 1.434 . S
C1098 C1099 1.369 . S
C1098 C1100 1.419 . S
C1098 H1102 0.930 . S
C1099 C1098 1.369 . S
C1099 C1108 1.429 . S
C1100 C1098 1.419 . S
C1100 C1101 1.363 . S
C1100 H1103 0.929 . S
C1101 C1100 1.363 . S
C1101 C1107 1.428 . S
H1102 C1098 0.930 . S
H1103 C1100 0.929 . S
S1104 N1105 1.613 . S
S1104 N1106 1.610 . S
N1105 S1104 1.613 . S
N1105 C1108 1.350 . S
N1106 S1104 1.610 . S
N1106 C1107 1.351 . S
C1107 C1101 1.428 . S
C1107 N1106 1.351 . S
C1107 C1108 1.434 . S
C1108 C1099 1.429 . S
C1108 N1105 1.350 . S
C1108 C1107 1.434 . S
C1109 C1110 1.369 . S
C1109 C1111 1.419 . S
C1109 H1113 0.930 . S
C1110 C1109 1.369 . S
C1110 C1119 1.429 . S
C1111 C1109 1.419 . S
C1111 C1112 1.363 . S
C1111 H1114 0.929 . S
C1112 C1111 1.363 . S
C1112 C1118 1.428 . S
H1113 C1109 0.930 . S
H1114 C1111 0.929 . S
S1115 N1116 1.613 1_545 S
S1115 N1117 1.610 . S
N1116 S1115 1.613 1_565 S
N1116 C1119 1.350 1_565 S
N1117 S1115 1.610 . S
N1117 C1118 1.351 . S
C1118 C1112 1.428 . S
C1118 N1117 1.351 . S
C1118 C1119 1.434 . S
C1119 C1110 1.429 . S
C1119 N1116 1.350 1_545 S
C1119 C1118 1.434 . S
C417 C5 1.451 . S
C419 C18 1.451 . S
C428 C44 1.447 . S
C430 C31 1.449 . S
C439 C57 1.452 . S
C441 C70 1.451 . S
C450 C83 1.444 . S
C452 C96 1.446 . S
C461 C109 1.444 . S
C463 C122 1.447 . S
C472 C135 1.451 . S
C474 C148 1.451 . S
C483 C161 1.451 . S
C485 C174 1.451 . S
C494 C187 1.445 . S
C496 C200 1.445 . S
C505 C226 1.444 . S
C507 C213 1.446 . S
C516 C252 1.444 . S
C518 C239 1.445 . S
C527 C278 1.446 . S
C529 C265 1.445 . S
C538 C304 1.446 . S
C540 C291 1.445 . S
C549 C330 1.450 . S
C551 C317 1.451 . S
C560 C356 1.448 . S
C562 C343 1.450 . S
C571 C382 1.450 . S
C573 C369 1.449 . S
C582 C408 1.452 . S
C584 C395 1.451 . S
C593 C0 1.475 . S
C595 C156 1.472 . S
C604 C13 1.474 . S
C606 C273 1.472 . S
C615 C26 1.471 . S
C617 C78 1.474 . S
C626 C39 1.472 . S
C628 C403 1.474 . S
C637 C52 1.471 . S
C639 C104 1.474 . S
C648 C221 1.474 . S
C650 C65 1.472 . S
C659 C351 1.473 . S
C661 C91 1.473 . S
C670 C117 1.473 . S
C672 C377 1.473 . S
C681 C130 1.475 . S
C683 C182 1.472 . S
C692 C143 1.474 . S
C694 C299 1.472 . S
C703 C169 1.473 . S
C705 C325 1.473 . S
C714 C195 1.471 . S
C716 C247 1.474 . S
C725 C364 1.474 . S
C727 C208 1.472 . S
C736 C286 1.474 . S
C738 C234 1.472 . S
C747 C260 1.471 . S
C749 C312 1.474 . S
C758 C390 1.474 . S
C760 C338 1.471 . S
C769 C138 1.086 . S
C771 C8 1.084 . S
C780 C151 1.082 . S
C782 C21 1.082 . S
C791 C34 1.083 . S
C793 C112 1.085 . S
C802 C125 1.086 . S
C804 C47 1.087 . S
C813 C60 1.082 . S
C815 C190 1.084 . S
C824 C73 1.089 . S
C826 C203 1.088 . S
C835 C164 1.085 . S
C837 C86 1.084 . S
C846 C177 1.088 . S
C848 C99 1.086 . S
C857 C216 1.086 . S
C859 C346 1.084 . S
C868 C359 1.087 . S
C870 C229 1.088 . S
C879 C320 1.083 . S
C881 C242 1.085 . S
C890 C255 1.090 . S
C892 C333 1.087 . S
C901 C398 1.081 . S
C903 C268 1.083 . S
C912 C281 1.083 . S
C914 C411 1.082 . S
C923 C372 1.088 . S
C925 C294 1.088 . S
C934 C385 1.078 . S
C936 C307 1.080 . S
C945 C140 1.477 . S
C947 C10 1.484 1_565 S
C956 C153 1.485 . S
C958 C23 1.479 . S
C967 C114 1.485 . S
C969 C36 1.478 . S
C978 C49 1.477 1_565 S
C980 C127 1.482 . S
C989 C192 1.481 . S
C991 C62 1.479 1_545 S
C1000 C205 1.477 . S
C1002 C75 1.484 . S
C1011 C166 1.481 . S
C1013 C88 1.479 . S
C1022 C179 1.477 . S
C1024 C101 1.483 1_545 S
C1033 C348 1.485 . S
C1035 C218 1.478 1_565 S
C1044 C361 1.485 . S
C1046 C231 1.479 . S
C1055 C322 1.484 . S
C1057 C244 1.480 . S
C1066 C257 1.485 1_565 S
C1068 C335 1.479 . S
C1077 C400 1.482 . S
C1079 C270 1.483 1_545 S
C1088 C283 1.485 . S
C1090 C413 1.478 . S
C1099 C374 1.479 . S
C1101 C296 1.484 . S
C1110 C309 1.480 1_545 S
C1112 C387 1.484 . S
