# Generated by pormake.
# Topology wli, (5)-cn, num edge types: 1
# Building blocks:
#     Node 0, Type 0, BuildingBlock: XOMCOT_clean_sbu_1, # of connection points: 5
#     Node 1, Type 0, BuildingBlock: XOMCOT_clean_sbu_1, # of connection points: 5
#     Node 2, Type 0, BuildingBlock: XOMCOT_clean_sbu_1, # of connection points: 5
#     Node 3, Type 0, BuildingBlock: XOMCOT_clean_sbu_1, # of connection points: 5
#     Node 4, Type 0, BuildingBlock: XOMCOT_clean_sbu_1, # of connection points: 5
#     Node 5, Type 0, BuildingBlock: XOMCOT_clean_sbu_1, # of connection points: 5
#     Edge 6, Type (0, 0), BuildingBlock: EZIPEK_clean_linker_0, # of connection points: 2
#     Edge 7, Type (0, 0), BuildingBlock: EZIPEK_clean_linker_0, # of connection points: 2
#     Edge 8, Type (0, 0), BuildingBlock: EZIPEK_clean_linker_0, # of connection points: 2
#     Edge 9, Type (0, 0), BuildingBlock: EZIPEK_clean_linker_0, # of connection points: 2
#     Edge 10, Type (0, 0), BuildingBlock: EZIPEK_clean_linker_0, # of connection points: 2
#     Edge 11, Type (0, 0), BuildingBlock: EZIPEK_clean_linker_0, # of connection points: 2
#     Edge 12, Type (0, 0), BuildingBlock: EZIPEK_clean_linker_0, # of connection points: 2
#     Edge 13, Type (0, 0), BuildingBlock: EZIPEK_clean_linker_0, # of connection points: 2
#     Edge 14, Type (0, 0), BuildingBlock: EZIPEK_clean_linker_0, # of connection points: 2
#     Edge 15, Type (0, 0), BuildingBlock: EZIPEK_clean_linker_0, # of connection points: 2
#     Edge 16, Type (0, 0), BuildingBlock: EZIPEK_clean_linker_0, # of connection points: 2
#     Edge 17, Type (0, 0), BuildingBlock: EZIPEK_clean_linker_0, # of connection points: 2
#     Edge 18, Type (0, 0), BuildingBlock: EZIPEK_clean_linker_0, # of connection points: 2
#     Edge 19, Type (0, 0), BuildingBlock: EZIPEK_clean_linker_0, # of connection points: 2
#     Edge 20, Type (0, 0), BuildingBlock: EZIPEK_clean_linker_0, # of connection points: 2
# Relax obj value: 0.117
# Max RMSD: 0.139
# Mean RMSD: 0.139
data_MOF--net-wli--node1-XOMCOT_clean_sbu_1--edge1-EZIPEK_clean_linker_0
_symmetry_space_group_name_H-M    P1
_symmetry_Int_Tables_number       1
_symmetry_cell_setting            triclinic
loop_
_symmetry_equiv_pos_as_xyz
'x, y, z'
_cell_length_a     26.631957
_cell_length_b     26.417933
_cell_length_c     21.391784
_cell_angle_alpha  89.960809
_cell_angle_beta   90.02512
_cell_angle_gamma 119.64571
loop_
_atom_site_label
_atom_site_type_symbol
_atom_site_fract_x
_atom_site_fract_y
_atom_site_fract_z
_atom_type_partial_charge
C0 C 0.25483 0.54286 0.00517 0.0
C1 C 0.2958 0.5914 0.97484 0.0
N2 N 0.34782 0.60441 0.99757 0.0
N3 N 0.28044 0.52422 0.04679 0.0
C4 C 0.33736 0.56446 0.04266 0.0
H5 H 0.20904 0.5231 0.99707 0.0
Co6 Co 0.23782 0.46046 0.10106 0.0
C7 C 0.33415 0.43546 0.05377 0.0
O8 O 0.34876 0.47312 0.00807 0.0
N9 N 0.19073 0.39699 0.15631 0.0
C10 C 0.11827 0.30913 0.18198 0.0
C11 C 0.15989 0.34052 0.13857 0.0
C12 C 0.16759 0.39761 0.21291 0.0
N13 N 0.12287 0.34467 0.2292 0.0
O14 O 0.27926 0.51036 0.1703 0.0
H15 H 0.16331 0.32319 0.09423 0.0
H16 H 0.18061 0.43657 0.24015 0.0
O17 O 0.29356 0.42866 0.09183 0.0
C18 C 0.25244 0.53844 0.18146 0.0
O19 O 0.20368 0.52264 0.15171 0.0
N20 N 0.19344 0.41622 0.03368 0.0
C21 C 0.11653 0.3599 0.93716 0.0
C22 C 0.16652 0.35558 0.94292 0.0
C23 C 0.20583 0.38645 0.98986 0.0
C24 C 0.1427 0.41692 0.03139 0.0
C25 C 0.10457 0.39094 0.98214 0.0
H26 H 0.24528 0.38546 0.99001 0.0
H27 H 0.13333 0.44038 0.06666 0.0
H28 H 0.37086 0.56295 0.06991 0.0
H29 H 0.28846 0.61316 0.9359 0.0
H30 H 0.08549 0.26371 0.17806 0.0
H31 H 0.17653 0.33113 0.90936 0.0
H32 H 0.06621 0.39518 0.97912 0.0
C33 C 0.54162 0.71965 0.67189 0.0
C34 C 0.49197 0.70907 0.64124 0.0
N35 N 0.47825 0.7495 0.65938 0.0
N36 N 0.55965 0.76714 0.70854 0.0
C37 C 0.51967 0.78399 0.70043 0.0
H38 H 0.5635 0.69456 0.66755 0.0
Co39 Co 0.62353 0.79626 0.76214 0.0
C40 C 0.69271 0.91971 0.71811 0.0
O41 O 0.73619 0.90941 0.71549 0.0
N42 N 0.68588 0.82179 0.82024 0.0
C43 C 0.75427 0.86915 0.89223 0.0
C44 C 0.71995 0.87427 0.84711 0.0
C45 C 0.69839 0.78522 0.85275 0.0
N46 N 0.7404 0.81289 0.89571 0.0
O47 O 0.57322 0.7898 0.82986 0.0
H48 H 0.7183 0.91351 0.83741 0.0
H49 H 0.67609 0.73851 0.84643 0.0
O50 O 0.64418 0.87966 0.74068 0.0
C51 C 0.55113 0.73741 0.84973 0.0
O52 O 0.56997 0.70406 0.82586 0.0
N53 N 0.66951 0.7955 0.69462 0.0
C54 C 0.72421 0.78028 0.59168 0.0
C55 C 0.69382 0.81034 0.58538 0.0
C56 C 0.66583 0.81651 0.63715 0.0
C57 C 0.69852 0.76524 0.70068 0.0
C58 C 0.72698 0.75784 0.64987 0.0
H59 H 0.63959 0.83672 0.63046 0.0
H60 H 0.69721 0.74361 0.74362 0.0
H61 H 0.52153 0.82153 0.72298 0.0
H62 H 0.46907 0.67594 0.6062 0.0
H63 H 0.78526 0.90356 0.92203 0.0
H64 H 0.68936 0.82628 0.54021 0.0
H65 H 0.74842 0.73232 0.65514 0.0
C66 C 0.34066 0.8319 0.35555 0.0
C67 C 0.34944 0.79507 0.31744 0.0
N68 N 0.3068 0.74029 0.32835 0.0
N69 N 0.29241 0.80028 0.3898 0.0
C70 C 0.27251 0.74452 0.37197 0.0
H71 H 0.36786 0.87866 0.35865 0.0
Co72 Co 0.26473 0.82975 0.45172 0.0
C73 C 0.13958 0.78132 0.41512 0.0
O74 O 0.14236 0.82876 0.43785 0.0
N75 N 0.24045 0.86041 0.51856 0.0
C76 C 0.19586 0.87123 0.60183 0.0
C77 C 0.19144 0.83506 0.55304 0.0
C78 C 0.27563 0.90941 0.55128 0.0
N79 N 0.24908 0.91813 0.60044 0.0
O80 O 0.27309 0.77899 0.51102 0.0
H81 H 0.15532 0.79196 0.54492 0.0
H82 H 0.32105 0.93718 0.54151 0.0
O83 O 0.18195 0.77153 0.42547 0.0
C84 C 0.32593 0.80797 0.52884 0.0
O85 O 0.35732 0.86169 0.50857 0.0
N86 N 0.26414 0.88297 0.39233 0.0
C87 C 0.28694 0.95972 0.29353 0.0
C88 C 0.2541 0.90002 0.28378 0.0
C89 C 0.24347 0.86239 0.33362 0.0
C90 C 0.2962 0.94166 0.40202 0.0
C91 C 0.30727 0.98096 0.35336 0.0
H92 H 0.22149 0.81632 0.32356 0.0
H93 H 0.31775 0.95895 0.44548 0.0
H94 H 0.23358 0.70785 0.39019 0.0
H95 H 0.38368 0.80743 0.28347 0.0
H96 H 0.16337 0.86285 0.63692 0.0
H97 H 0.23939 0.88252 0.23735 0.0
H98 H 0.33487 1.02721 0.36132 0.0
C99 C 0.54381 0.22226 0.98834 0.0
C100 C 0.59302 0.26162 0.01928 0.0
N101 N 0.60575 0.31551 0.00141 0.0
N102 N 0.52507 0.2513 0.95184 0.0
C103 C 0.56429 0.30818 0.96015 0.0
H104 H 0.52251 0.17536 0.99267 0.0
Co105 Co 0.46044 0.21565 0.89944 0.0
C106 C 0.39025 0.2687 0.94421 0.0
O107 O 0.34773 0.21463 0.94796 0.0
N108 N 0.39723 0.17766 0.84265 0.0
C109 C 0.32704 0.15451 0.77235 0.0
C110 C 0.36181 0.19481 0.81644 0.0
C111 C 0.38497 0.12842 0.81076 0.0
N112 N 0.34196 0.11284 0.76879 0.0
O113 O 0.50946 0.25915 0.83068 0.0
H114 H 0.36271 0.23538 0.82589 0.0
H115 H 0.40809 0.10473 0.81686 0.0
O116 O 0.4388 0.27784 0.92083 0.0
C117 C 0.5318 0.22909 0.81069 0.0
O118 O 0.51364 0.17719 0.83497 0.0
N119 N 0.41608 0.16959 0.96797 0.0
C120 C 0.36449 0.1014 0.07271 0.0
C121 C 0.39405 0.16184 0.07769 0.0
C122 C 0.42056 0.19514 0.02505 0.0
C123 C 0.38782 0.11032 0.96313 0.0
C124 C 0.36094 0.07527 0.01494 0.0
H125 H 0.44628 0.24172 0.03068 0.0
H126 H 0.38857 0.08948 0.92036 0.0
H127 H 0.56178 0.34359 0.93775 0.0
H128 H 0.61614 0.25174 0.05447 0.0
H129 H 0.29503 0.15689 0.7432 0.0
H130 H 0.39904 0.18294 0.1225 0.0
H131 H 0.34006 1.02832 0.0107 0.0
C132 C 0.82693 0.3284 0.65544 0.0
C133 C 0.78618 0.33688 0.68504 0.0
N134 N 0.73423 0.29911 0.66129 0.0
N135 N 0.80127 0.28484 0.61319 0.0
C136 C 0.74465 0.26969 0.61611 0.0
H137 H 0.87265 0.35318 0.6646 0.0
Co138 Co 0.84435 0.26342 0.55993 0.0
C139 C 0.74645 0.14101 0.60464 0.0
O140 O 0.72547 0.16266 0.64525 0.0
N141 N 0.89221 0.24694 0.50562 0.0
C142 C 0.96668 0.23405 0.48155 0.0
C143 C 0.92483 0.22356 0.52478 0.0
C144 C 0.91442 0.26927 0.44826 0.0
N145 N 0.96043 0.26274 0.43301 0.0
O146 O 0.80309 0.27103 0.49004 0.0
H147 H 0.92271 0.20476 0.57009 0.0
H148 H 0.8998 0.29313 0.41962 0.0
O149 O 0.7896 0.17588 0.56999 0.0
C150 C 0.83075 0.3257 0.47801 0.0
O151 O 0.88019 0.35801 0.50678 0.0
N152 N 0.88811 0.26418 0.6281 0.0
C153 C 0.96304 0.28376 0.72643 0.0
C154 C 0.9109 0.23133 0.72243 0.0
C155 C 0.87263 0.22373 0.67457 0.0
C156 C 0.94027 0.31399 0.62944 0.0
C157 C 0.9777 0.32559 0.67933 0.0
H158 H 0.83096 0.18584 0.67637 0.0
H159 H 0.95156 0.34593 0.59267 0.0
H160 H 0.71121 0.23587 0.58778 0.0
H161 H 0.7935 0.36539 0.72448 0.0
H162 H 1.00087 0.2234 0.48658 0.0
H163 H 0.89846 0.19806 0.75806 0.0
H164 H 1.0176 0.36687 0.68122 0.0
C165 C 0.74564 0.53541 0.30946 0.0
C166 C 0.73547 0.48862 0.34629 0.0
N167 N 0.77485 0.4727 0.33161 0.0
N168 N 0.79172 0.54926 0.27246 0.0
C169 C 0.80829 0.50988 0.28665 0.0
H170 H 0.72105 0.55796 0.30944 0.0
Co171 Co 0.8199 0.60714 0.21159 0.0
C172 C 0.94457 0.67769 0.24691 0.0
O173 O 0.93717 0.72294 0.23885 0.0
N174 N 0.84449 0.66351 0.14615 0.0
C175 C 0.88975 0.7233 0.06604 0.0
C176 C 0.89472 0.69098 0.11394 0.0
C177 C 0.80871 0.67678 0.11364 0.0
N178 N 0.8354 0.71417 0.06605 0.0
O179 O 0.80816 0.54855 0.15059 0.0
H180 H 0.93199 0.68601 0.12241 0.0
H181 H 0.76303 0.65786 0.123 0.0
O182 O 0.90257 0.62672 0.2326 0.0
C183 C 0.75516 0.52568 0.13395 0.0
O184 O 0.72459 0.54838 0.1559 0.0
N185 N 0.82391 0.66114 0.27278 0.0
C186 C 0.80553 0.7178 0.37208 0.0
C187 C 0.84008 0.69235 0.38008 0.0
C188 C 0.84776 0.6632 0.33022 0.0
C189 C 0.79117 0.68728 0.26447 0.0
C190 C 0.78203 0.71658 0.31341 0.0
H191 H 0.86917 0.63841 0.33946 0.0
H192 H 0.76751 0.68141 0.22202 0.0
H193 H 0.84449 0.50881 0.26507 0.0
H194 H 0.70311 0.46902 0.38258 0.0
H195 H 0.92276 0.74971 0.03236 0.0
H196 H 0.85691 0.69084 0.42576 0.0
H197 H 0.75325 0.73414 0.30685 0.0
C198 C 0.28027 0.68705 0.22929 0.0
C199 C 0.29543 0.68957 0.29271 0.0
C200 C 0.28845 0.59342 0.28399 0.0
C201 C 0.27696 0.59299 0.21907 0.0
N202 N 0.27864 0.64761 0.12773 0.0
N203 N 0.32223 0.65042 0.37967 0.0
C204 C 0.27807 0.64243 0.19116 0.0
C205 C 0.30209 0.64425 0.31991 0.0
N206 N 0.2655 0.72612 0.20604 0.0
N207 N 0.28382 0.54474 0.31176 0.0
H208 H 0.33118 0.68661 0.40696 0.0
H209 H 0.33364 0.62193 0.40053 0.0
H210 H 0.27555 0.50761 0.28667 0.0
H211 H 0.2851 0.53998 0.35996 0.0
H212 H 0.24819 0.7227 0.16153 0.0
H213 H 0.26473 0.75835 0.23348 0.0
H214 H 0.28532 0.68525 0.10478 0.0
H215 H 0.27928 0.61678 0.09838 0.0
C216 C 0.49517 0.72645 0.94986 0.0
C217 C 0.49733 0.70868 0.88768 0.0
C218 C 0.40631 0.61821 0.90434 0.0
C219 C 0.40092 0.63806 0.96381 0.0
N220 N 0.43571 0.71303 0.04177 0.0
N221 N 0.44635 0.64486 0.80128 0.0
C222 C 0.44415 0.69292 0.98629 0.0
C223 C 0.45034 0.65663 0.86373 0.0
N224 N 0.5423 0.77361 0.97473 0.0
N225 N 0.36972 0.56188 0.88697 0.0
H226 H 0.47639 0.67334 0.7695 0.0
H227 H 0.41001 0.61076 0.78038 0.0
H228 H 0.33696 0.53194 0.91582 0.0
H229 H 0.37562 0.5433 0.84667 0.0
H230 H 0.54551 0.78525 0.02166 0.0
H231 H 0.57985 0.79908 0.94908 0.0
H232 H 0.46275 0.75501 0.05835 0.0
H233 H 0.39925 0.68835 0.06937 0.0
C234 C 0.34636 0.76401 0.62472 0.0
C235 C 0.35712 0.78147 0.56107 0.0
C236 C 0.45016 0.7836 0.56638 0.0
C237 C 0.43784 0.7621 0.62801 0.0
N238 N 0.37206 0.72446 0.71446 0.0
N239 N 0.41181 0.79159 0.4676 0.0
C240 C 0.38507 0.74993 0.65684 0.0
C241 C 0.40682 0.78623 0.53092 0.0
N242 N 0.30093 0.76338 0.655 0.0
N243 N 0.50428 0.80354 0.54237 0.0
H244 H 0.37896 0.79002 0.44038 0.0
H245 H 0.44427 0.78984 0.44217 0.0
H246 H 0.53775 0.80369 0.56785 0.0
H247 H 0.5176 0.82545 0.49983 0.0
H248 H 0.29423 0.75708 0.70299 0.0
H249 H 0.2715 0.77233 0.6323 0.0
H250 H 0.33215 0.70944 0.73608 0.0
H251 H 0.40046 0.71509 0.73883 0.0
C252 C 0.58744 0.27491 0.71043 0.0
C253 C 0.58536 0.2542 0.77227 0.0
C254 C 0.67552 0.25326 0.75401 0.0
C255 C 0.68108 0.27949 0.69507 0.0
N256 N 0.64683 0.3217 0.61866 0.0
N257 N 0.63691 0.24052 0.85767 0.0
C258 C 0.63824 0.29227 0.67358 0.0
C259 C 0.63223 0.24832 0.79535 0.0
N260 N 0.54045 0.27583 0.68624 0.0
N261 N 0.71132 0.23213 0.77026 0.0
H262 H 0.60774 0.24 0.89003 0.0
H263 H 0.67322 0.24192 0.87781 0.0
H264 H 0.74333 0.23414 0.74069 0.0
H265 H 0.70524 0.20721 0.81028 0.0
H266 H 0.53722 0.28496 0.63953 0.0
H267 H 0.50305 0.26379 0.71217 0.0
H268 H 0.62009 0.33739 0.60289 0.0
H269 H 0.68314 0.33339 0.5908 0.0
C270 C 0.7762 0.37972 0.34146 0.0
C271 C 0.78671 0.43358 0.36707 0.0
C272 C 0.80914 0.40685 0.46774 0.0
C273 C 0.80649 0.35634 0.44086 0.0
N274 N 0.79229 0.29703 0.34962 0.0
N275 N 0.82586 0.50417 0.44972 0.0
C276 C 0.79075 0.34292 0.377 0.0
C277 C 0.80676 0.44871 0.42886 0.0
N278 N 0.75172 0.36376 0.28364 0.0
N279 N 0.81221 0.41415 0.53099 0.0
H280 H 0.82678 0.53682 0.42148 0.0
H281 H 0.84658 0.51932 0.49256 0.0
H282 H 0.81147 0.38316 0.56125 0.0
H283 H 0.8085 0.44721 0.55332 0.0
H284 H 0.73769 0.32272 0.26439 0.0
H285 H 0.74184 0.39064 0.25675 0.0
H286 H 0.78747 0.28896 0.30175 0.0
H287 H 0.80187 0.26886 0.37435 0.0
C288 C 0.63105 0.37746 0.09433 0.0
C289 C 0.64501 0.36844 0.03334 0.0
C290 C 0.73575 0.46203 0.03792 0.0
C291 C 0.72339 0.46867 0.10102 0.0
N292 N 0.66644 0.42446 0.19351 0.0
N293 N 0.71268 0.39678 0.94872 0.0
C294 C 0.67314 0.42379 0.13039 0.0
C295 C 0.69818 0.40919 0.00557 0.0
N296 N 0.57656 0.34269 0.11709 0.0
N297 N 0.78153 0.50691 0.00825 0.0
H298 H 0.6851 0.35894 0.92412 0.0
H299 H 0.75303 0.42177 0.92806 0.0
H300 H 0.81002 0.54559 0.03091 0.0
H301 H 0.78931 0.50719 0.96053 0.0
H302 H 0.56192 0.3511 0.15884 0.0
H303 H 0.5441 0.30884 0.09129 0.0
H304 H 0.6337 0.39005 0.2184 0.0
H305 H 0.6977 0.45642 0.22165 0.0
C306 C 0.06125 0.31801 0.77121 0.0
C307 C 1.00145 0.29633 0.78092 0.0
C308 C 1.01731 0.29985 0.89317 0.0
C309 C 0.0776 0.33401 0.88308 0.0
N310 N 0.15539 0.38781 0.80899 0.0
N311 N 0.92516 0.28091 0.85384 0.0
C312 C 0.09956 0.34635 0.82109 0.0
C313 C 0.97975 0.29069 0.8427 0.0
N314 N 0.08148 0.3115 0.71489 0.0
N315 N 0.9959 0.27604 0.95039 0.0
H316 H 0.8976 0.27983 0.81862 0.0
H317 H 0.91013 0.28116 0.89879 0.0
H318 H 1.02253 0.27947 0.98785 0.0
H319 H 0.95203 0.24755 0.95801 0.0
H320 H 0.12471 0.32348 0.70778 0.0
H321 H 0.05409 0.28822 0.678 0.0
H322 H 0.17091 0.40058 0.76363 0.0
H323 H 0.18395 0.41438 0.8434 0.0
C324 C 0.73221 0.69332 0.45571 0.0
C325 C 0.78486 0.73503 0.42757 0.0
C326 C 0.80027 0.80533 0.51006 0.0
C327 C 0.7457 0.76502 0.53545 0.0
N328 N 0.65501 0.67502 0.52766 0.0
N329 N 0.86618 0.83224 0.422 0.0
C330 C 0.71029 0.7102 0.50692 0.0
C331 C 0.81819 0.7916 0.45304 0.0
N332 N 0.70407 0.63703 0.43465 0.0
N333 N 0.83523 0.85594 0.5413 0.0
H334 H 0.88084 0.82298 0.38066 0.0
H335 H 0.88924 0.87598 0.43455 0.0
H336 H 0.82279 0.86758 0.58267 0.0
H337 H 0.87786 0.88455 0.52881 0.0
H338 H 0.66958 0.60314 0.45814 0.0
H339 H 0.71778 0.62285 0.39618 0.0
H340 H 0.62487 0.63789 0.504 0.0
H341 H 0.6374 0.68519 0.56594 0.0
C342 C 0.38166 0.04919 0.15941 0.0
C343 C 0.34441 0.06581 0.12977 0.0
C344 C 0.27246 1.01935 0.21244 0.0
C345 C 0.3077 0.99872 0.23905 0.0
N346 N 0.39151 0.9861 0.23437 0.0
N347 N 0.25299 0.06347 0.12281 0.0
C348 C 0.36123 1.01157 0.21169 0.0
C349 C 0.28936 0.05011 0.15488 0.0
N350 N 0.4371 0.07061 0.13846 0.0
N351 N 0.22349 1.01016 0.24286 0.0
H352 H 0.26466 0.08694 0.08102 0.0
H353 H 0.21008 0.04828 0.13511 0.0
H354 H 0.20963 0.9869 0.28468 0.0
H355 H 0.19869 1.02878 0.22933 0.0
H356 H 0.46838 0.06574 0.16265 0.0
H357 H 0.45352 0.09725 0.09918 0.0
H358 H 0.42688 0.98787 0.21157 0.0
H359 H 0.37899 0.95937 0.27379 0.0
C360 C 0.42467 0.36579 0.00533 0.0
C361 C 0.38053 0.31526 0.97426 0.0
C362 C 0.30929 0.33323 0.02756 0.0
C363 C 0.35185 0.3899 0.04501 0.0
N364 N 0.45287 0.46193 0.04678 0.0
N365 N 0.27975 0.26554 0.94235 0.0
C366 C 0.41051 0.40686 0.03235 0.0
C367 C 0.32246 0.30335 0.98132 0.0
N368 N 0.47872 0.37338 0.01321 0.0
N369 N 0.2566 0.30709 0.05558 0.0
H370 H 0.28817 0.24807 0.90264 0.0
H371 H 0.23764 0.25855 0.94491 0.0
H372 H 0.24909 0.32498 0.09535 0.0
H373 H 0.22482 0.26451 0.04519 0.0
H374 H 0.5104 0.40705 0.03989 0.0
H375 H 0.48967 0.34234 0.00036 0.0
H376 H 0.4956 0.47881 0.03235 0.0
H377 H 0.44427 0.49122 0.07076 0.0
C378 C 0.6723 0.03501 0.62447 0.0
C379 C 0.73108 0.07866 0.61631 0.0
C380 C 0.75919 1.02352 0.68558 0.0
C381 C 0.70171 0.97576 0.68828 0.0
N382 N 0.60569 0.93283 0.64256 0.0
N383 N 0.82873 0.09609 0.61647 0.0
C384 C 0.65848 0.98039 0.65288 0.0
C385 C 0.77404 0.0671 0.63948 0.0
N386 N 0.62953 0.0453 0.60437 0.0
N387 N 0.7997 1.02897 0.72824 0.0
H388 H 0.83824 0.12157 0.57651 0.0
H389 H 0.86098 0.08712 0.63081 0.0
H390 H 0.78954 1.00169 0.76706 0.0
H391 H 0.84111 0.06524 0.72928 0.0
H392 H 0.58613 1.01819 0.61551 0.0
H393 H 0.63816 0.08247 0.57889 0.0
H394 H 0.57517 0.93325 0.61237 0.0
H395 H 0.59469 0.89152 0.65806 0.0
C396 C 0.08908 0.7764 0.31177 0.0
C397 C 0.0936 0.7476 0.3664 0.0
C398 C 1.00237 0.66024 0.33417 0.0
C399 C 1.00018 0.68965 0.27901 0.0
N400 N 0.05646 0.7644 0.20458 0.0
N401 N 0.0594 0.65692 0.42182 0.0
C402 C 0.04914 0.7435 0.26422 0.0
C403 C 0.05221 0.68753 0.37458 0.0
N404 N 0.11942 0.83562 0.30577 0.0
N405 N 0.95632 0.60779 0.34983 0.0
H406 H 0.09335 0.67601 0.45375 0.0
H407 H 1.03417 0.61192 0.42655 0.0
H408 H 0.9219 0.58462 0.31972 0.0
H409 H 0.95161 0.58812 0.39329 0.0
H410 H 0.11247 0.85746 0.26908 0.0
H411 H 0.14663 0.86397 0.33962 0.0
H412 H 0.09386 0.80167 0.19 0.0
H413 H 1.02803 0.74045 0.16867 0.0
C414 C 1.02297 0.34281 0.35779 0.0
C415 C 0.99906 0.28438 0.37939 0.0
C416 C 0.06755 0.27336 0.31241 0.0
C417 C 0.08426 0.32748 0.28285 0.0
N418 N 0.06348 0.40618 0.26821 0.0
N419 N 0.98827 0.18942 0.36067 0.0
C420 C 0.05799 0.36035 0.30281 0.0
C421 C 1.01822 0.24821 0.35156 0.0
N422 N 1.01534 0.38258 0.39089 0.0
N423 N 0.09983 0.2467 0.30493 0.0
H424 H 0.94909 0.16886 0.38475 0.0
H425 H 0.99871 0.16104 0.33768 0.0
H426 H 0.13904 0.26628 0.28089 0.0
H427 H 0.0912 0.20898 0.32919 0.0
H428 H 1.03582 0.42659 0.37889 0.0
H429 H 0.99487 0.37334 0.4342 0.0
H430 H 1.04127 0.42832 0.27899 0.0
H431 H 0.08405 0.41727 0.22494 0.0
C432 C 0.75772 0.79119 0.00417 0.0
C433 C 0.76326 0.78686 0.93873 0.0
C434 C 0.80896 0.72707 0.958 0.0
C435 C 0.81025 0.73796 0.02307 0.0
N436 N 0.79486 0.78933 0.10712 0.0
N437 N 0.80302 0.75886 0.85321 0.0
C438 C 0.78698 0.77246 0.04594 0.0
C439 C 0.79128 0.75691 0.91556 0.0
N440 N 0.72254 0.81099 0.02642 0.0
N441 N 0.82236 0.68641 0.93699 0.0
H442 H 0.7924 0.78193 0.82129 0.0
H443 H 0.82812 0.74247 0.83427 0.0
H444 H 0.833 0.66212 0.96715 0.0
H445 H 0.81706 0.6726 0.89065 0.0
H446 H 0.7125 0.81006 0.07362 0.0
H447 H 0.69858 0.82255 0.99704 0.0
H448 H 0.78359 0.81897 0.12516 0.0
H449 H 0.81788 0.7782 0.13838 0.0
C450 C 0.32267 0.07294 0.66076 0.0
C451 C 0.31937 0.06368 0.7263 0.0
C452 C 0.27699 0.95852 0.70791 0.0
C453 C 0.27333 0.96725 0.64301 0.0
N454 N 0.2829 0.03234 0.55918 0.0
N455 N 0.284 0.99648 0.81268 0.0
C456 C 0.29355 1.02445 0.61981 0.0
C457 C 0.29397 1.00604 0.75004 0.0
N458 N 0.35572 0.12786 0.6375 0.0
N459 N 0.26656 0.9054 0.72897 0.0
H460 H 0.29393 0.03008 0.84443 0.0
H461 H 0.26082 0.95502 0.83216 0.0
H462 H 0.25652 0.87058 0.69894 0.0
H463 H 0.27375 0.89779 0.77503 0.0
H464 H 0.36407 0.13661 0.58997 0.0
H465 H 0.37986 0.16384 0.66611 0.0
H466 H 0.29191 0.07264 0.54123 0.0
H467 H 0.25968 0.99772 0.52864 0.0
loop_
_geom_bond_atom_site_label_1
_geom_bond_atom_site_label_2
_geom_bond_distance
_geom_bond_site_symmetry_2
_ccdc_geom_bond_type
C0 C1 1.351 . S
C0 N3 1.368 1_556 S
C0 H5 0.931 1_556 S
C1 C0 1.351 . S
C1 N2 1.373 . S
C1 H29 0.930 . S
N2 C1 1.373 . S
N2 C4 1.340 . S
N3 C0 1.368 1_554 S
N3 C4 1.321 1_554 S
N3 Co6 2.135 . S
C4 N2 1.340 . S
C4 N3 1.321 1_556 S
C4 H28 0.930 . S
H5 C0 0.931 1_554 S
Co6 N3 2.135 . S
Co6 N9 2.121 . S
Co6 O14 2.055 . S
Co6 O17 2.039 . S
Co6 N20 2.140 . S
C7 O8 1.227 . S
C7 O17 1.265 . S
O8 C7 1.227 . S
N9 Co6 2.121 . S
N9 C11 1.375 . S
N9 C12 1.313 . S
C10 C11 1.338 . S
C10 N13 1.377 . S
C10 H30 0.930 . S
C11 N9 1.375 . S
C11 C10 1.338 . S
C11 H15 0.931 . S
C12 N9 1.313 . S
C12 N13 1.344 . S
C12 H16 0.930 . S
N13 C10 1.377 . S
N13 C12 1.344 . S
O14 Co6 2.055 . S
O14 C18 1.253 . S
H15 C11 0.931 . S
H16 C12 0.930 . S
O17 Co6 2.039 . S
O17 C7 1.265 . S
C18 O14 1.253 . S
C18 O19 1.227 . S
O19 C18 1.227 . S
N20 Co6 2.140 . S
N20 C23 1.346 1_554 S
N20 C24 1.345 . S
C21 C22 1.387 . S
C21 C25 1.391 . S
C22 C21 1.387 . S
C22 C23 1.369 . S
C22 H31 0.929 . S
C23 N20 1.346 1_556 S
C23 C22 1.369 . S
C23 H26 0.928 . S
C24 N20 1.345 . S
C24 C25 1.371 1_554 S
C24 H27 0.931 . S
C25 C21 1.391 . S
C25 C24 1.371 1_556 S
C25 H32 0.930 . S
H26 C23 0.928 . S
H27 C24 0.931 . S
H28 C4 0.930 . S
H29 C1 0.930 . S
H30 C10 0.930 . S
H31 C22 0.929 . S
H32 C25 0.930 . S
C33 C34 1.351 . S
C33 N36 1.368 . S
C33 H38 0.931 . S
C34 C33 1.351 . S
C34 N35 1.373 . S
C34 H62 0.930 . S
N35 C34 1.373 . S
N35 C37 1.340 . S
N36 C33 1.368 . S
N36 C37 1.321 . S
N36 Co39 2.135 . S
C37 N35 1.340 . S
C37 N36 1.321 . S
C37 H61 0.930 . S
H38 C33 0.931 . S
Co39 N36 2.135 . S
Co39 N42 2.121 . S
Co39 O47 2.055 . S
Co39 O50 2.039 . S
Co39 N53 2.140 . S
C40 O41 1.227 . S
C40 O50 1.265 . S
O41 C40 1.227 . S
N42 Co39 2.121 . S
N42 C44 1.375 . S
N42 C45 1.313 . S
C43 C44 1.338 . S
C43 N46 1.377 . S
C43 H63 0.930 . S
C44 N42 1.375 . S
C44 C43 1.338 . S
C44 H48 0.931 . S
C45 N42 1.313 . S
C45 N46 1.344 . S
C45 H49 0.930 . S
N46 C43 1.377 . S
N46 C45 1.344 . S
O47 Co39 2.055 . S
O47 C51 1.253 . S
H48 C44 0.931 . S
H49 C45 0.930 . S
O50 Co39 2.039 . S
O50 C40 1.265 . S
C51 O47 1.253 . S
C51 O52 1.227 . S
O52 C51 1.227 . S
N53 Co39 2.140 . S
N53 C56 1.346 . S
N53 C57 1.345 . S
C54 C55 1.387 . S
C54 C58 1.391 . S
C55 C54 1.387 . S
C55 C56 1.369 . S
C55 H64 0.929 . S
C56 N53 1.346 . S
C56 C55 1.369 . S
C56 H59 0.928 . S
C57 N53 1.345 . S
C57 C58 1.371 . S
C57 H60 0.931 . S
C58 C54 1.391 . S
C58 C57 1.371 . S
C58 H65 0.930 . S
H59 C56 0.928 . S
H60 C57 0.931 . S
H61 C37 0.930 . S
H62 C34 0.930 . S
H63 C43 0.930 . S
H64 C55 0.929 . S
H65 C58 0.930 . S
C66 C67 1.351 . S
C66 N69 1.368 . S
C66 H71 0.931 . S
C67 C66 1.351 . S
C67 N68 1.373 . S
C67 H95 0.930 . S
N68 C67 1.373 . S
N68 C70 1.340 . S
N69 C66 1.368 . S
N69 C70 1.321 . S
N69 Co72 2.135 . S
C70 N68 1.340 . S
C70 N69 1.321 . S
C70 H94 0.930 . S
H71 C66 0.931 . S
Co72 N69 2.135 . S
Co72 N75 2.121 . S
Co72 O80 2.055 . S
Co72 O83 2.039 . S
Co72 N86 2.140 . S
C73 O74 1.227 . S
C73 O83 1.265 . S
O74 C73 1.227 . S
N75 Co72 2.121 . S
N75 C77 1.375 . S
N75 C78 1.313 . S
C76 C77 1.338 . S
C76 N79 1.377 . S
C76 H96 0.930 . S
C77 N75 1.375 . S
C77 C76 1.338 . S
C77 H81 0.931 . S
C78 N75 1.313 . S
C78 N79 1.344 . S
C78 H82 0.930 . S
N79 C76 1.377 . S
N79 C78 1.344 . S
O80 Co72 2.055 . S
O80 C84 1.253 . S
H81 C77 0.931 . S
H82 C78 0.930 . S
O83 Co72 2.039 . S
O83 C73 1.265 . S
C84 O80 1.253 . S
C84 O85 1.227 . S
O85 C84 1.227 . S
N86 Co72 2.140 . S
N86 C89 1.346 . S
N86 C90 1.345 . S
C87 C88 1.387 . S
C87 C91 1.391 . S
C88 C87 1.387 . S
C88 C89 1.369 . S
C88 H97 0.929 . S
C89 N86 1.346 . S
C89 C88 1.369 . S
C89 H92 0.928 . S
C90 N86 1.345 . S
C90 C91 1.371 . S
C90 H93 0.931 . S
C91 C87 1.391 . S
C91 C90 1.371 . S
C91 H98 0.930 . S
H92 C89 0.928 . S
H93 C90 0.931 . S
H94 C70 0.930 . S
H95 C67 0.930 . S
H96 C76 0.930 . S
H97 C88 0.929 . S
H98 C91 0.930 . S
C99 C100 1.351 . S
C99 N102 1.368 1_554 S
C99 H104 0.931 1_554 S
C100 C99 1.351 . S
C100 N101 1.373 . S
C100 H128 0.930 . S
N101 C100 1.373 . S
N101 C103 1.340 . S
N102 C99 1.368 1_556 S
N102 C103 1.321 1_556 S
N102 Co105 2.135 . S
C103 N101 1.340 . S
C103 N102 1.321 1_554 S
C103 H127 0.930 . S
H104 C99 0.931 1_556 S
Co105 N102 2.135 . S
Co105 N108 2.121 . S
Co105 O113 2.055 . S
Co105 O116 2.039 . S
Co105 N119 2.140 . S
C106 O107 1.227 . S
C106 O116 1.265 . S
O107 C106 1.227 . S
N108 Co105 2.121 . S
N108 C110 1.375 . S
N108 C111 1.313 . S
C109 C110 1.338 . S
C109 N112 1.377 . S
C109 H129 0.930 . S
C110 N108 1.375 . S
C110 C109 1.338 . S
C110 H114 0.931 . S
C111 N108 1.313 . S
C111 N112 1.344 . S
C111 H115 0.930 . S
N112 C109 1.377 . S
N112 C111 1.344 . S
O113 Co105 2.055 . S
O113 C117 1.253 . S
H114 C110 0.931 . S
H115 C111 0.930 . S
O116 Co105 2.039 . S
O116 C106 1.265 . S
C117 O113 1.253 . S
C117 O118 1.227 . S
O118 C117 1.227 . S
N119 Co105 2.140 . S
N119 C122 1.346 1_556 S
N119 C123 1.345 . S
C120 C121 1.387 . S
C120 C124 1.391 . S
C121 C120 1.387 . S
C121 C122 1.369 . S
C121 H130 0.929 . S
C122 N119 1.346 1_554 S
C122 C121 1.369 . S
C122 H125 0.928 . S
C123 N119 1.345 . S
C123 C124 1.371 1_556 S
C123 H126 0.931 . S
C124 C120 1.391 . S
C124 C123 1.371 1_554 S
C124 H131 0.930 . S
H125 C122 0.928 . S
H126 C123 0.931 . S
H127 C103 0.930 . S
H128 C100 0.930 . S
H129 C109 0.930 . S
H130 C121 0.929 . S
H131 C124 0.930 . S
C132 C133 1.351 . S
C132 N135 1.368 . S
C132 H137 0.931 . S
C133 C132 1.351 . S
C133 N134 1.373 . S
C133 H161 0.930 . S
N134 C133 1.373 . S
N134 C136 1.340 . S
N135 C132 1.368 . S
N135 C136 1.321 . S
N135 Co138 2.135 . S
C136 N134 1.340 . S
C136 N135 1.321 . S
C136 H160 0.930 . S
H137 C132 0.931 . S
Co138 N135 2.135 . S
Co138 N141 2.121 . S
Co138 O146 2.055 . S
Co138 O149 2.039 . S
Co138 N152 2.140 . S
C139 O140 1.227 . S
C139 O149 1.265 . S
O140 C139 1.227 . S
N141 Co138 2.121 . S
N141 C143 1.375 . S
N141 C144 1.313 . S
C142 C143 1.338 . S
C142 N145 1.377 . S
C142 H162 0.930 . S
C143 N141 1.375 . S
C143 C142 1.338 . S
C143 H147 0.931 . S
C144 N141 1.313 . S
C144 N145 1.344 . S
C144 H148 0.930 . S
N145 C142 1.377 . S
N145 C144 1.344 . S
O146 Co138 2.055 . S
O146 C150 1.253 . S
H147 C143 0.931 . S
H148 C144 0.930 . S
O149 Co138 2.039 . S
O149 C139 1.265 . S
C150 O146 1.253 . S
C150 O151 1.227 . S
O151 C150 1.227 . S
N152 Co138 2.140 . S
N152 C155 1.346 . S
N152 C156 1.345 . S
C153 C154 1.387 . S
C153 C157 1.391 . S
C154 C153 1.387 . S
C154 C155 1.369 . S
C154 H163 0.929 . S
C155 N152 1.346 . S
C155 C154 1.369 . S
C155 H158 0.928 . S
C156 N152 1.345 . S
C156 C157 1.371 . S
C156 H159 0.931 . S
C157 C153 1.391 . S
C157 C156 1.371 . S
C157 H164 0.930 . S
H158 C155 0.928 . S
H159 C156 0.931 . S
H160 C136 0.930 . S
H161 C133 0.930 . S
H162 C142 0.930 . S
H163 C154 0.929 . S
H164 C157 0.930 . S
C165 C166 1.351 . S
C165 N168 1.368 . S
C165 H170 0.931 . S
C166 C165 1.351 . S
C166 N167 1.373 . S
C166 H194 0.930 . S
N167 C166 1.373 . S
N167 C169 1.340 . S
N168 C165 1.368 . S
N168 C169 1.321 . S
N168 Co171 2.135 . S
C169 N167 1.340 . S
C169 N168 1.321 . S
C169 H193 0.930 . S
H170 C165 0.931 . S
Co171 N168 2.135 . S
Co171 N174 2.121 . S
Co171 O179 2.055 . S
Co171 O182 2.039 . S
Co171 N185 2.140 . S
C172 O173 1.227 . S
C172 O182 1.265 . S
O173 C172 1.227 . S
N174 Co171 2.121 . S
N174 C176 1.375 . S
N174 C177 1.313 . S
C175 C176 1.338 . S
C175 N178 1.377 . S
C175 H195 0.930 . S
C176 N174 1.375 . S
C176 C175 1.338 . S
C176 H180 0.931 . S
C177 N174 1.313 . S
C177 N178 1.344 . S
C177 H181 0.930 . S
N178 C175 1.377 . S
N178 C177 1.344 . S
O179 Co171 2.055 . S
O179 C183 1.253 . S
H180 C176 0.931 . S
H181 C177 0.930 . S
O182 Co171 2.039 . S
O182 C172 1.265 . S
C183 O179 1.253 . S
C183 O184 1.227 . S
O184 C183 1.227 . S
N185 Co171 2.140 . S
N185 C188 1.346 . S
N185 C189 1.345 . S
C186 C187 1.387 . S
C186 C190 1.391 . S
C187 C186 1.387 . S
C187 C188 1.369 . S
C187 H196 0.929 . S
C188 N185 1.346 . S
C188 C187 1.369 . S
C188 H191 0.928 . S
C189 N185 1.345 . S
C189 C190 1.371 . S
C189 H192 0.931 . S
C190 C186 1.391 . S
C190 C189 1.371 . S
C190 H197 0.930 . S
H191 C188 0.928 . S
H192 C189 0.931 . S
H193 C169 0.930 . S
H194 C166 0.930 . S
H195 C175 0.930 . S
H196 C187 0.929 . S
H197 C190 0.930 . S
C198 C199 1.363 . S
C198 C204 1.379 . S
C198 N206 1.356 . S
C199 C198 1.363 . S
C199 C205 1.363 . S
C200 C201 1.363 . S
C200 C205 1.379 . S
C200 N207 1.356 . S
C201 C200 1.363 . S
C201 C204 1.363 . S
N202 C204 1.356 . S
N202 H214 0.984 . S
N202 H215 0.985 . S
N203 C205 1.356 . S
N203 H208 0.984 . S
N203 H209 0.985 . S
C204 C198 1.379 . S
C204 C201 1.363 . S
C204 N202 1.356 . S
C205 C199 1.363 . S
C205 C200 1.379 . S
C205 N203 1.356 . S
N206 C198 1.356 . S
N206 H212 0.984 . S
N206 H213 0.984 . S
N207 C200 1.356 . S
N207 H210 0.984 . S
N207 H211 0.985 . S
H208 N203 0.984 . S
H209 N203 0.985 . S
H210 N207 0.984 . S
H211 N207 0.985 . S
H212 N206 0.984 . S
H213 N206 0.984 . S
H214 N202 0.984 . S
H215 N202 0.985 . S
C216 C217 1.363 . S
C216 C222 1.379 . S
C216 N224 1.356 . S
C217 C216 1.363 . S
C217 C223 1.363 . S
C218 C219 1.363 . S
C218 C223 1.379 . S
C218 N225 1.356 . S
C219 C218 1.363 . S
C219 C222 1.363 . S
N220 C222 1.356 . S
N220 H232 0.984 1_556 S
N220 H233 0.985 . S
N221 C223 1.356 . S
N221 H226 0.984 . S
N221 H227 0.985 . S
C222 C216 1.379 . S
C222 C219 1.363 . S
C222 N220 1.356 . S
C223 C217 1.363 . S
C223 C218 1.379 . S
C223 N221 1.356 . S
N224 C216 1.356 . S
N224 H230 0.984 . S
N224 H231 0.984 . S
N225 C218 1.356 . S
N225 H228 0.984 . S
N225 H229 0.985 . S
H226 N221 0.984 . S
H227 N221 0.985 . S
H228 N225 0.984 . S
H229 N225 0.985 . S
H230 N224 0.984 . S
H231 N224 0.984 . S
H232 N220 0.984 1_554 S
H233 N220 0.985 . S
C234 C235 1.363 . S
C234 C240 1.379 . S
C234 N242 1.356 . S
C235 C234 1.363 . S
C235 C241 1.363 . S
C236 C237 1.363 . S
C236 C241 1.379 . S
C236 N243 1.356 . S
C237 C236 1.363 . S
C237 C240 1.363 . S
N238 C240 1.356 . S
N238 H250 0.984 . S
N238 H251 0.985 . S
N239 C241 1.356 . S
N239 H244 0.984 . S
N239 H245 0.985 . S
C240 C234 1.379 . S
C240 C237 1.363 . S
C240 N238 1.356 . S
C241 C235 1.363 . S
C241 C236 1.379 . S
C241 N239 1.356 . S
N242 C234 1.356 . S
N242 H248 0.984 . S
N242 H249 0.984 . S
N243 C236 1.356 . S
N243 H246 0.984 . S
N243 H247 0.985 . S
H244 N239 0.984 . S
H245 N239 0.985 . S
H246 N243 0.984 . S
H247 N243 0.985 . S
H248 N242 0.984 . S
H249 N242 0.984 . S
H250 N238 0.984 . S
H251 N238 0.985 . S
C252 C253 1.363 . S
C252 C258 1.379 . S
C252 N260 1.356 . S
C253 C252 1.363 . S
C253 C259 1.363 . S
C254 C255 1.363 . S
C254 C259 1.379 . S
C254 N261 1.356 . S
C255 C254 1.363 . S
C255 C258 1.363 . S
N256 C258 1.356 . S
N256 H268 0.984 . S
N256 H269 0.985 . S
N257 C259 1.356 . S
N257 H262 0.984 . S
N257 H263 0.985 . S
C258 C252 1.379 . S
C258 C255 1.363 . S
C258 N256 1.356 . S
C259 C253 1.363 . S
C259 C254 1.379 . S
C259 N257 1.356 . S
N260 C252 1.356 . S
N260 H266 0.984 . S
N260 H267 0.984 . S
N261 C254 1.356 . S
N261 H264 0.984 . S
N261 H265 0.985 . S
H262 N257 0.984 . S
H263 N257 0.985 . S
H264 N261 0.984 . S
H265 N261 0.985 . S
H266 N260 0.984 . S
H267 N260 0.984 . S
H268 N256 0.984 . S
H269 N256 0.985 . S
C270 C271 1.363 . S
C270 C276 1.379 . S
C270 N278 1.356 . S
C271 C270 1.363 . S
C271 C277 1.363 . S
C272 C273 1.363 . S
C272 C277 1.379 . S
C272 N279 1.356 . S
C273 C272 1.363 . S
C273 C276 1.363 . S
N274 C276 1.356 . S
N274 H286 0.984 . S
N274 H287 0.985 . S
N275 C277 1.356 . S
N275 H280 0.984 . S
N275 H281 0.985 . S
C276 C270 1.379 . S
C276 C273 1.363 . S
C276 N274 1.356 . S
C277 C271 1.363 . S
C277 C272 1.379 . S
C277 N275 1.356 . S
N278 C270 1.356 . S
N278 H284 0.984 . S
N278 H285 0.984 . S
N279 C272 1.356 . S
N279 H282 0.984 . S
N279 H283 0.985 . S
H280 N275 0.984 . S
H281 N275 0.985 . S
H282 N279 0.984 . S
H283 N279 0.985 . S
H284 N278 0.984 . S
H285 N278 0.984 . S
H286 N274 0.984 . S
H287 N274 0.985 . S
C288 C289 1.363 . S
C288 C294 1.379 . S
C288 N296 1.356 . S
C289 C288 1.363 . S
C289 C295 1.363 . S
C290 C291 1.363 . S
C290 C295 1.379 . S
C290 N297 1.356 . S
C291 C290 1.363 . S
C291 C294 1.363 . S
N292 C294 1.356 . S
N292 H304 0.984 . S
N292 H305 0.985 . S
N293 C295 1.356 . S
N293 H298 0.984 . S
N293 H299 0.985 1_554 S
C294 C288 1.379 . S
C294 C291 1.363 . S
C294 N292 1.356 . S
C295 C289 1.363 . S
C295 C290 1.379 . S
C295 N293 1.356 . S
N296 C288 1.356 . S
N296 H302 0.984 . S
N296 H303 0.984 . S
N297 C290 1.356 . S
N297 H300 0.984 . S
N297 H301 0.985 . S
H298 N293 0.984 . S
H299 N293 0.985 1_556 S
H300 N297 0.984 . S
H301 N297 0.985 . S
H302 N296 0.984 . S
H303 N296 0.984 . S
H304 N292 0.984 . S
H305 N292 0.985 . S
C306 C307 1.363 1_455 S
C306 C312 1.379 . S
C306 N314 1.356 . S
C307 C306 1.363 1_655 S
C307 C313 1.363 . S
C308 C309 1.363 1_655 S
C308 C313 1.379 . S
C308 N315 1.356 . S
C309 C308 1.363 1_455 S
C309 C312 1.363 . S
N310 C312 1.356 . S
N310 H322 0.984 . S
N310 H323 0.985 . S
N311 C313 1.356 . S
N311 H316 0.984 . S
N311 H317 0.985 . S
C312 C306 1.379 . S
C312 C309 1.363 . S
C312 N310 1.356 . S
C313 C307 1.363 . S
C313 C308 1.379 . S
C313 N311 1.356 . S
N314 C306 1.356 . S
N314 H320 0.984 . S
N314 H321 0.984 1_455 S
N315 C308 1.356 . S
N315 H318 0.984 1_655 S
N315 H319 0.985 . S
H316 N311 0.984 . S
H317 N311 0.985 . S
H318 N315 0.984 1_455 S
H319 N315 0.985 . S
H320 N314 0.984 . S
H321 N314 0.984 1_655 S
H322 N310 0.984 . S
H323 N310 0.985 . S
C324 C325 1.363 . S
C324 C330 1.379 . S
C324 N332 1.356 . S
C325 C324 1.363 . S
C325 C331 1.363 . S
C326 C327 1.363 . S
C326 C331 1.379 . S
C326 N333 1.356 . S
C327 C326 1.363 . S
C327 C330 1.363 . S
N328 C330 1.356 . S
N328 H340 0.984 . S
N328 H341 0.985 . S
N329 C331 1.356 . S
N329 H334 0.984 . S
N329 H335 0.985 . S
C330 C324 1.379 . S
C330 C327 1.363 . S
C330 N328 1.356 . S
C331 C325 1.363 . S
C331 C326 1.379 . S
C331 N329 1.356 . S
N332 C324 1.356 . S
N332 H338 0.984 . S
N332 H339 0.984 . S
N333 C326 1.356 . S
N333 H336 0.984 . S
N333 H337 0.985 . S
H334 N329 0.984 . S
H335 N329 0.985 . S
H336 N333 0.984 . S
H337 N333 0.985 . S
H338 N332 0.984 . S
H339 N332 0.984 . S
H340 N328 0.984 . S
H341 N328 0.985 . S
C342 C343 1.363 . S
C342 C348 1.379 . S
C342 N350 1.356 . S
C343 C342 1.363 . S
C343 C349 1.363 1_545 S
C344 C345 1.363 . S
C344 C349 1.379 . S
C344 N351 1.356 . S
C345 C344 1.363 . S
C345 C348 1.363 1_565 S
N346 C348 1.356 . S
N346 H358 0.984 . S
N346 H359 0.985 1_545 S
N347 C349 1.356 . S
N347 H352 0.984 1_565 S
N347 H353 0.985 . S
C348 C342 1.379 . S
C348 C345 1.363 1_545 S
C348 N346 1.356 . S
C349 C343 1.363 1_565 S
C349 C344 1.379 . S
C349 N347 1.356 . S
N350 C342 1.356 . S
N350 H356 0.984 . S
N350 H357 0.984 . S
N351 C344 1.356 . S
N351 H354 0.984 . S
N351 H355 0.985 . S
H352 N347 0.984 1_545 S
H353 N347 0.985 . S
H354 N351 0.984 . S
H355 N351 0.985 . S
H356 N350 0.984 . S
H357 N350 0.984 . S
H358 N346 0.984 . S
H359 N346 0.985 1_565 S
C360 C361 1.368 . S
C360 C366 1.374 1_556 S
C360 N368 1.358 . S
C361 C360 1.368 . S
C361 C367 1.363 . S
C362 C363 1.368 . S
C362 C367 1.374 1_554 S
C362 N369 1.358 . S
C363 C362 1.368 . S
C363 C366 1.363 . S
N364 C366 1.356 . S
N364 H376 0.984 . S
N364 H377 0.985 . S
N365 C367 1.356 . S
N365 H370 0.984 . S
N365 H371 0.985 . S
C366 C360 1.374 1_554 S
C366 C363 1.363 . S
C366 N364 1.356 . S
C367 C361 1.363 . S
C367 C362 1.374 1_556 S
C367 N365 1.356 . S
N368 C360 1.358 . S
N368 H374 0.984 1_556 S
N368 H375 0.984 . S
N369 C362 1.358 . S
N369 H372 0.984 . S
N369 H373 0.985 1_554 S
H370 N365 0.984 . S
H371 N365 0.985 . S
H372 N369 0.984 . S
H373 N369 0.985 1_556 S
H374 N368 0.984 1_554 S
H375 N368 0.984 . S
H376 N364 0.984 . S
H377 N364 0.985 . S
C378 C379 1.363 . S
C378 C384 1.379 1_545 S
C378 N386 1.356 . S
C379 C378 1.363 . S
C379 C385 1.363 . S
C380 C381 1.363 . S
C380 C385 1.379 1_565 S
C380 N387 1.356 . S
C381 C380 1.363 . S
C381 C384 1.363 . S
N382 C384 1.356 . S
N382 H394 0.984 . S
N382 H395 0.985 . S
N383 C385 1.356 . S
N383 H388 0.984 . S
N383 H389 0.985 . S
C384 C378 1.379 1_565 S
C384 C381 1.363 . S
C384 N382 1.356 . S
C385 C379 1.363 . S
C385 C380 1.379 1_545 S
C385 N383 1.356 . S
N386 C378 1.356 . S
N386 H392 0.984 1_545 S
N386 H393 0.984 . S
N387 C380 1.356 . S
N387 H390 0.984 . S
N387 H391 0.985 1_565 S
H388 N383 0.984 . S
H389 N383 0.985 . S
H390 N387 0.984 . S
H391 N387 0.985 1_545 S
H392 N386 0.984 1_565 S
H393 N386 0.984 . S
H394 N382 0.984 . S
H395 N382 0.985 . S
C396 C397 1.363 . S
C396 C402 1.379 1_455 S
C396 N404 1.356 . S
C397 C396 1.363 . S
C397 C403 1.363 . S
C398 C399 1.363 . S
C398 C403 1.379 1_655 S
C398 N405 1.356 . S
C399 C398 1.363 . S
C399 C402 1.363 . S
N400 C402 1.356 . S
N400 H412 0.984 . S
N400 H413 0.985 . S
N401 C403 1.356 . S
N401 H406 0.984 . S
N401 H407 0.985 . S
C402 C396 1.379 1_655 S
C402 C399 1.363 . S
C402 N400 1.356 . S
C403 C397 1.363 . S
C403 C398 1.379 1_455 S
C403 N401 1.356 . S
N404 C396 1.356 . S
N404 H410 0.984 . S
N404 H411 0.984 . S
N405 C398 1.356 . S
N405 H408 0.984 . S
N405 H409 0.985 . S
H406 N401 0.984 . S
H407 N401 0.985 . S
H408 N405 0.984 . S
H409 N405 0.985 . S
H410 N404 0.984 . S
H411 N404 0.984 . S
H412 N400 0.984 . S
H413 N400 0.985 . S
C414 C415 1.363 . S
C414 C420 1.379 1_655 S
C414 N422 1.356 . S
C415 C414 1.363 . S
C415 C421 1.363 . S
C416 C417 1.363 . S
C416 C421 1.379 1_455 S
C416 N423 1.356 . S
C417 C416 1.363 . S
C417 C420 1.363 . S
N418 C420 1.356 . S
N418 H430 0.984 . S
N418 H431 0.985 . S
N419 C421 1.356 . S
N419 H424 0.984 . S
N419 H425 0.985 . S
C420 C414 1.379 1_455 S
C420 C417 1.363 . S
C420 N418 1.356 . S
C421 C415 1.363 . S
C421 C416 1.379 1_655 S
C421 N419 1.356 . S
N422 C414 1.356 . S
N422 H428 0.984 . S
N422 H429 0.984 . S
N423 C416 1.356 . S
N423 H426 0.984 . S
N423 H427 0.985 . S
H424 N419 0.984 . S
H425 N419 0.985 . S
H426 N423 0.984 . S
H427 N423 0.985 . S
H428 N422 0.984 . S
H429 N422 0.984 . S
H430 N418 0.984 . S
H431 N418 0.985 . S
C432 C433 1.362 1_554 S
C432 C438 1.380 . S
C432 N440 1.356 1_554 S
C433 C432 1.362 1_556 S
C433 C439 1.363 . S
C434 C435 1.362 1_556 S
C434 C439 1.380 . S
C434 N441 1.356 1_556 S
C435 C434 1.362 1_554 S
C435 C438 1.363 . S
N436 C438 1.356 . S
N436 H448 0.984 . S
N436 H449 0.985 . S
N437 C439 1.356 . S
N437 H442 0.984 . S
N437 H443 0.985 . S
C438 C432 1.380 . S
C438 C435 1.363 . S
C438 N436 1.356 . S
C439 C433 1.363 . S
C439 C434 1.380 . S
C439 N437 1.356 . S
N440 C432 1.356 1_556 S
N440 H446 0.984 1_556 S
N440 H447 0.984 . S
N441 C434 1.356 1_554 S
N441 H444 0.984 . S
N441 H445 0.985 1_554 S
H442 N437 0.984 . S
H443 N437 0.985 . S
H444 N441 0.984 . S
H445 N441 0.985 1_556 S
H446 N440 0.984 1_554 S
H447 N440 0.984 . S
H448 N436 0.984 . S
H449 N436 0.985 . S
C450 C451 1.363 . S
C450 C456 1.379 1_545 S
C450 N458 1.356 . S
C451 C450 1.363 . S
C451 C457 1.363 . S
C452 C453 1.363 . S
C452 C457 1.379 1_565 S
C452 N459 1.356 . S
C453 C452 1.363 . S
C453 C456 1.363 . S
N454 C456 1.356 . S
N454 H466 0.975 1_565 S
N454 H467 0.985 . S
N455 C457 1.356 . S
N455 H460 0.984 . S
N455 H461 0.975 1_545 S
C456 C450 1.379 1_565 S
C456 C453 1.363 . S
C456 N454 1.356 . S
C457 C451 1.363 . S
C457 C452 1.379 1_545 S
C457 N455 1.356 . S
N458 C450 1.356 . S
N458 H464 0.984 . S
N458 H465 0.984 . S
N459 C452 1.356 . S
N459 H462 0.984 . S
N459 H463 0.985 . S
H460 N455 0.984 . S
H461 N455 0.975 1_565 S
H462 N459 0.984 . S
H463 N459 0.985 . S
H464 N458 0.984 . S
H465 N458 0.984 . S
H466 N454 0.975 1_545 S
H467 N454 0.985 . S
C199 N68 1.261 . S
C201 C18 1.362 . S
C217 C51 1.362 . S
C219 N2 1.261 . S
C235 C84 1.362 . S
C237 N35 1.261 . S
C253 C117 1.362 . S
C255 N134 1.261 . S
C271 N167 1.261 . S
C273 C150 1.362 . S
C289 N101 1.261 . S
C291 C183 1.362 . S
C307 C153 0.868 . S
C309 C21 0.868 . S
C325 C186 0.868 . S
C327 C54 0.868 . S
C343 C120 0.868 . S
C345 C87 0.868 . S
C361 C106 1.619 . S
C363 C7 1.619 . S
C379 C139 1.619 . S
C381 C40 1.619 . S
C397 C73 1.619 . S
C399 C172 1.619 . S
C415 N145 1.877 . S
C417 N13 1.877 . S
C433 N46 1.877 . S
C435 N178 1.877 . S
C451 N112 1.877 . S
C453 N79 1.877 . S
