# Generated by pormake.
# Topology fnt, (5)-cn, num edge types: 1
# Building blocks:
#     Node 0, Type 0, BuildingBlock: BEQFEK_clean_sbu_0, # of connection points: 5
#     Node 1, Type 0, BuildingBlock: BEQFEK_clean_sbu_0, # of connection points: 5
#     Node 2, Type 0, BuildingBlock: BEQFEK_clean_sbu_0, # of connection points: 5
#     Node 3, Type 0, BuildingBlock: BEQFEK_clean_sbu_0, # of connection points: 5
#     Node 4, Type 0, BuildingBlock: BEQFEK_clean_sbu_0, # of connection points: 5
#     Node 5, Type 0, BuildingBlock: BEQFEK_clean_sbu_0, # of connection points: 5
#     Edge 6, Type (0, 0), BuildingBlock: FUNLAD_clean_linker_1, # of connection points: 2
#     Edge 7, Type (0, 0), BuildingBlock: FUNLAD_clean_linker_1, # of connection points: 2
#     Edge 8, Type (0, 0), BuildingBlock: FUNLAD_clean_linker_1, # of connection points: 2
#     Edge 9, Type (0, 0), BuildingBlock: FUNLAD_clean_linker_1, # of connection points: 2
#     Edge 10, Type (0, 0), BuildingBlock: FUNLAD_clean_linker_1, # of connection points: 2
#     Edge 11, Type (0, 0), BuildingBlock: FUNLAD_clean_linker_1, # of connection points: 2
#     Edge 12, Type (0, 0), BuildingBlock: FUNLAD_clean_linker_1, # of connection points: 2
#     Edge 13, Type (0, 0), BuildingBlock: FUNLAD_clean_linker_1, # of connection points: 2
#     Edge 14, Type (0, 0), BuildingBlock: FUNLAD_clean_linker_1, # of connection points: 2
#     Edge 15, Type (0, 0), BuildingBlock: FUNLAD_clean_linker_1, # of connection points: 2
#     Edge 16, Type (0, 0), BuildingBlock: FUNLAD_clean_linker_1, # of connection points: 2
#     Edge 17, Type (0, 0), BuildingBlock: FUNLAD_clean_linker_1, # of connection points: 2
#     Edge 18, Type (0, 0), BuildingBlock: FUNLAD_clean_linker_1, # of connection points: 2
#     Edge 19, Type (0, 0), BuildingBlock: FUNLAD_clean_linker_1, # of connection points: 2
#     Edge 20, Type (0, 0), BuildingBlock: FUNLAD_clean_linker_1, # of connection points: 2
# Relax obj value: 0.224
# Max RMSD: 0.172
# Mean RMSD: 0.172
data_MOF--net-fnt--node1-BEQFEK_clean_sbu_0--edge1-FUNLAD_clean_linker_1
_symmetry_space_group_name_H-M    P1
_symmetry_Int_Tables_number       1
_symmetry_cell_setting            triclinic
loop_
_symmetry_equiv_pos_as_xyz
'x, y, z'
_cell_length_a     27.164157
_cell_length_b     27.131189
_cell_length_c     54.378182
_cell_angle_alpha  89.852345
_cell_angle_beta   89.922656
_cell_angle_gamma 120.30938
loop_
_atom_site_label
_atom_site_type_symbol
_atom_site_fract_x
_atom_site_fract_y
_atom_site_fract_z
_atom_type_partial_charge
Co0 Co 0.14634 0.37385 0.06349 0.0
Co1 Co 0.17334 0.36174 1.00735 0.0
C2 C 0.2618 0.40003 0.04704 0.0
O3 O 0.2286 0.39843 0.064 0.0
O4 O 0.24556 0.38694 1.02485 0.0
C5 C 0.13193 0.3544 0.11711 0.0
O6 O 0.17491 0.34512 0.11609 0.0
C7 C 0.20951 0.32495 0.96193 0.0
C8 C 0.16855 0.3508 0.93365 0.0
C9 C 0.203 0.32727 0.93655 0.0
N10 N 0.17991 0.34615 0.97327 0.0
N11 N 0.15534 0.36103 0.95615 0.0
C12 C 0.2453 0.30595 0.97516 0.0
H13 H 0.24934 0.31743 0.99487 0.0
H14 H 0.22483 0.25885 0.97383 0.0
H15 H 0.28821 0.32541 0.96656 0.0
C16 C 0.05864 0.25351 0.05473 0.0
N17 N 0.10338 0.30309 0.04699 0.0
N18 N 0.11413 0.29787 1.02379 0.0
C19 C 0.07688 0.24466 1.01614 0.0
C20 C 0.04071 0.21493 0.03557 0.0
C21 C 0.035 0.24277 0.08034 0.0
H22 H 0.02244 0.27468 0.08501 0.0
H23 H 0.06852 0.24776 0.0934 0.0
H24 H -0.00251 0.19931 0.08256 0.0
O25 O 0.1353 0.43101 0.04605 0.0
O26 O 0.15461 0.42332 1.00698 0.0
H27 H 0.07489 0.25612 0.97729 0.0
H28 H 0.03474 0.1828 0.98712 0.0
C29 C 0.07405 0.22429 0.99035 0.0
H30 H 0.1119 0.22 0.98667 0.0
H31 H 0.13031 0.3793 0.95984 0.0
O32 O 0.11534 0.36756 0.0976 0.0
C33 C 0.13974 0.44609 1.02359 0.0
Co34 Co 0.77947 0.15143 0.40533 0.0
Co35 Co 0.82019 0.17801 0.34937 0.0
C36 C 0.8515 0.27016 0.38765 0.0
O37 O 0.82386 0.23608 0.40524 0.0
O38 O 0.85256 0.25271 0.366 0.0
C39 C 0.77322 0.13755 0.46005 0.0
O40 O 0.81881 0.1884 0.46209 0.0
C41 C 0.90115 0.22408 0.30682 0.0
C42 C 0.84395 0.17517 0.27629 0.0
C43 C 0.89967 0.21663 0.28149 0.0
N44 N 0.84878 0.18866 0.31613 0.0
N45 N 0.81492 0.15968 0.29768 0.0
C46 C 0.95156 0.26455 0.32179 0.0
H47 H 0.94146 0.25806 0.34172 0.0
H48 H -0.01194 0.25824 0.31773 0.0
H49 H 0.96452 0.30903 0.31654 0.0
C50 C 0.84464 0.09131 0.4018 0.0
N51 N 0.8236 0.12194 0.39147 0.0
N52 N 0.83909 0.13132 0.36814 0.0
C53 C 0.86986 0.10636 0.36288 0.0
C54 C 0.87516 0.08121 0.3841 0.0
C55 C 0.83326 0.06988 0.42777 0.0
H56 H 0.78684 0.04819 0.43152 0.0
H57 H 0.85525 0.10653 0.44051 0.0
H58 H 0.84782 0.03901 0.43131 0.0
O59 O 0.70932 0.12495 0.38613 0.0
O60 O 0.73631 0.1405 0.34691 0.0
H61 H 0.91173 0.07855 0.33705 0.0
H62 H 0.93363 0.15308 0.33575 0.0
C63 C 0.8966 0.10954 0.3384 0.0
H64 H 0.86542 0.10099 0.32355 0.0
H65 H 0.77179 0.12924 0.29967 0.0
O66 O 0.75272 0.11806 0.43894 0.0
C67 C 0.69769 0.12194 0.36337 0.0
Co68 Co 0.60025 0.78049 0.74505 0.0
Co69 Co 0.60923 0.81325 0.68845 0.0
C70 C 0.57589 0.86951 0.72774 0.0
O71 O 0.57872 0.84032 0.74545 0.0
O72 O 0.58602 0.86212 0.70562 0.0
C73 C 0.63074 0.78886 0.79741 0.0
O74 O 0.65936 0.8445 0.79424 0.0
C75 C 0.6538 0.89338 0.64641 0.0
C76 C 0.62192 0.83517 0.61465 0.0
C77 C 0.65261 0.89249 0.6209 0.0
N78 N 0.62522 0.83929 0.65488 0.0
N79 N 0.60626 0.80471 0.63573 0.0
C80 C 0.6816 0.94503 0.66246 0.0
H81 H 0.68221 0.93287 0.68191 0.0
H82 H 0.72587 0.97425 0.65603 0.0
H83 H 0.65791 0.96833 0.66104 0.0
C84 C 0.71974 0.80879 0.73465 0.0
N85 N 0.67023 0.80493 0.72778 0.0
N86 N 0.67341 0.81792 0.70421 0.0
C87 C 0.72472 0.83027 0.69541 0.0
C88 C 0.75599 0.82572 0.71444 0.0
C89 C 0.73014 0.79126 0.75934 0.0
H90 H 0.69147 0.75185 0.76563 0.0
H91 H 0.74016 0.82573 0.77277 0.0
H92 H 0.76624 0.78307 0.75874 0.0
O93 O 0.54017 0.71154 0.72875 0.0
O94 O 0.54738 0.73209 0.68876 0.0
H95 H 0.78351 0.84694 0.66514 0.0
H96 H 0.75123 0.89069 0.66599 0.0
C97 C 0.74365 0.84708 0.66932 0.0
H98 H 0.70976 0.8173 0.65666 0.0
H99 H 0.58225 0.76029 0.63706 0.0
O100 O 0.60391 0.75647 0.77946 0.0
C101 C 0.52441 0.69724 0.70662 0.0
Co102 Co 0.80675 0.62283 0.07925 0.0
Co103 Co 0.79227 0.63166 1.0217 0.0
C104 C 0.69366 0.55723 0.05468 0.0
O105 O 0.72411 0.56959 0.07399 0.0
O106 O 0.7147 0.57833 0.03367 0.0
C107 C 0.79816 0.63936 0.13212 0.0
O108 O 0.75234 0.64184 0.12677 0.0
C109 C 0.75579 0.66041 0.97468 0.0
C110 C 0.82354 0.66773 0.94976 0.0
C111 C 0.77594 0.67372 0.95055 0.0
N112 N 0.79051 0.64759 0.98738 0.0
N113 N 0.83033 0.65133 0.97223 0.0
C114 C 0.70782 0.66425 0.9862 0.0
H115 H 0.71066 0.66402 1.00656 0.0
H116 H 0.70868 0.7037 0.98003 0.0
H117 H 0.66668 0.62693 0.98047 0.0
C118 C 0.85453 0.74845 0.07424 0.0
N119 N 0.82993 0.69542 0.0647 0.0
N120 N 0.82365 0.6987 0.04079 0.0
C121 C 0.84357 0.75356 0.03452 0.0
C122 C 0.86246 0.78634 0.05555 0.0
C123 C 0.87091 0.76294 0.10061 0.0
H124 H 0.89258 0.74014 0.10733 0.0
H125 H 0.83189 0.74922 0.11175 0.0
H126 H 0.89956 0.80957 0.10311 0.0
O127 O 0.85092 0.59094 0.06464 0.0
O128 O 0.84178 0.59834 1.02439 0.0
H129 H 0.88207 0.82156 1.00755 0.0
H130 H 0.80898 0.76788 1.0018 0.0
C131 C 0.85054 0.77525 1.00867 0.0
H132 H 0.86555 0.75255 0.9967 0.0
H133 H 0.86332 0.64441 0.97743 0.0
O134 O 0.82535 0.63131 0.11504 0.0
C135 C 0.86194 0.5847 0.04255 0.0
Co136 Co 0.21815 0.82591 0.4018 0.0
Co137 Co 0.15628 0.80222 0.34994 0.0
C138 C 0.13461 0.70754 0.38479 0.0
O139 O 0.16979 0.74108 0.40079 0.0
O140 O 0.12586 0.72576 0.36458 0.0
C141 C 0.22733 0.83162 0.45535 0.0
O142 O 0.17567 0.78675 0.4552 0.0
C143 C 0.07014 0.75623 0.3097 0.0
C144 C 0.10929 0.8273 0.28298 0.0
C145 C 0.06255 0.77326 0.28659 0.0
N146 N 0.11898 0.79834 0.31934 0.0
N147 N 0.14212 0.84057 0.30317 0.0
C148 C 0.03159 0.70104 0.32248 0.0
H149 H 0.02999 0.70862 0.34243 0.0
H150 H -0.0121 0.6801 0.31472 0.0
H151 H 0.04906 0.67219 0.32019 0.0
C152 C 0.16606 0.89884 0.40644 0.0
N153 N 0.17458 0.86083 0.39403 0.0
N154 N 0.14748 0.84961 0.37286 0.0
C155 C 0.11944 0.87865 0.37149 0.0
C156 C 0.13042 0.91069 0.39277 0.0
C157 C 0.19143 0.92348 0.43095 0.0
H158 H 0.23753 0.93773 0.43089 0.0
H159 H 0.16993 0.89013 0.44528 0.0
H160 H 0.18593 0.96015 0.43573 0.0
O161 O 0.28112 0.85235 0.37788 0.0
O162 O 0.23795 0.83581 0.34162 0.0
H163 H 0.11755 0.90113 0.33404 0.0
H164 H 0.06304 0.90139 0.35241 0.0
C165 C 0.08704 0.87903 0.34928 0.0
H166 H 0.05692 0.83454 0.34356 0.0
H167 H 0.18068 0.87843 0.30586 0.0
O168 O 0.25283 0.85245 0.43506 0.0
C169 C 0.28285 0.85407 0.35446 0.0
Co170 Co 0.35288 0.19642 0.73709 0.0
Co171 Co 0.34244 0.15501 0.68172 0.0
C172 C 0.42087 0.14622 0.71801 0.0
O173 O 0.40923 0.17014 0.73537 0.0
O174 O 0.39783 0.13793 0.6969 0.0
C175 C 0.35418 0.19271 0.79066 0.0
O176 O 0.37295 0.15709 0.78746 0.0
C177 C 0.31629 0.07334 0.6407 0.0
C178 C 0.31679 0.12453 0.60899 0.0
C179 C 0.30948 0.0717 0.61534 0.0
N180 N 0.32709 0.12464 0.64892 0.0
N181 N 0.3274 0.15498 0.6298 0.0
C182 C 0.31325 0.02712 0.65679 0.0
H183 H 0.31355 0.0378 0.6765 0.0
H184 H 0.27401 0.98605 0.65264 0.0
H185 H 0.35038 0.02175 0.65285 0.0
C186 C 0.2294 0.11204 0.73551 0.0
N187 N 0.28114 0.13917 0.72476 0.0
N188 N 0.27615 0.1229 0.70164 0.0
C189 C 0.221 0.08511 0.69691 0.0
C190 C 0.18974 0.07648 0.71837 0.0
C191 C 0.21839 0.12039 0.76173 0.0
H192 H 0.23205 0.16595 0.76474 0.0
H193 H 0.24407 0.10931 0.77393 0.0
H194 H 0.17279 0.0935 0.76683 0.0
O195 O 0.37936 0.267 0.7175 0.0
O196 O 0.37398 0.23838 0.67879 0.0
H197 H 0.22219 0.09642 0.65779 0.0
H198 H 0.15258 0.04902 0.6702 0.0
C199 C 0.1984 0.06285 0.67177 0.0
H200 H 0.20399 0.02589 0.66782 0.0
H201 H 0.33494 0.19662 0.63095 0.0
O202 O 0.34386 0.21442 0.77199 0.0
C203 C 0.38547 0.27737 0.69448 0.0
H204 H 0.34354 0.45668 0.06514 0.0
C205 C 0.32164 0.42048 0.05283 0.0
H206 H 0.32654 0.3604 1.03022 0.0
H207 H 0.58218 0.51116 0.99865 0.0
H208 H 0.5324 0.48228 0.9598 0.0
H209 H 0.42729 0.42864 0.9584 0.0
H210 H 0.37159 0.40278 0.99578 0.0
C211 C 0.34968 0.39727 0.04208 0.0
C212 C 0.41288 0.42543 0.04319 0.0
C213 C 0.44469 0.4414 1.02094 0.0
C214 C 0.50517 0.47422 1.02169 0.0
C215 C 0.53607 0.48782 0.99923 0.0
C216 C 0.50806 0.47127 0.97673 0.0
C217 C 0.44893 0.44099 0.97595 0.0
C218 C 0.41742 0.42621 0.99768 0.0
H219 H 0.61538 0.48226 0.06885 0.0
C220 C 0.63188 0.51923 0.05676 0.0
H221 H 0.61413 0.56939 0.03295 0.0
H222 H 0.36635 0.38802 0.08899 0.0
H223 H 0.41508 0.42218 0.12802 0.0
H224 H 0.51775 0.49383 0.12927 0.0
H225 H 0.57254 0.52943 0.0917 0.0
C226 C 0.59647 0.53157 0.04461 0.0
C227 C 0.53357 0.4932 0.04458 0.0
C228 C 0.50166 0.47701 0.06684 0.0
C229 C 0.44159 0.4402 0.06611 0.0
C230 C 0.41141 0.4193 0.08854 0.0
C231 C 0.43893 0.43813 0.11105 0.0
C232 C 0.49677 0.47814 0.11175 0.0
C233 C 0.52794 0.49767 0.08998 0.0
H234 H 0.86488 0.351 0.40337 0.0
C235 C 0.88398 0.33176 0.39228 0.0
H236 H 0.95439 0.34312 0.37161 0.0
H237 H 0.05512 0.59063 0.33375 0.0
H238 H 0.0304 0.53589 0.29613 0.0
H239 H 0.97381 0.43067 0.29721 0.0
H240 H 0.94265 0.37989 0.3359 0.0
C241 C 0.93598 0.36376 0.38228 0.0
C242 C 0.96643 0.42718 0.38215 0.0
C243 C 0.9819 0.45623 0.35921 0.0
C244 C 0.01198 0.51681 0.3585 0.0
C245 C 0.03001 0.5447 0.33538 0.0
C246 C 0.01647 0.51377 0.31359 0.0
C247 C -0.01518 0.45459 0.31421 0.0
C248 C 0.96756 0.42595 0.33665 0.0
H249 H 0.12277 0.62798 0.40159 0.0
C250 C 0.1036 0.64572 0.38959 0.0
H251 H 0.03368 0.62983 0.36739 0.0
H252 H 0.9531 0.38598 0.4294 0.0
H253 H 0.97042 0.4404 0.46688 0.0
H254 H 0.00828 0.54433 0.46533 0.0
H255 H 0.03107 0.59461 0.42633 0.0
C256 C 0.05264 0.61155 0.37921 0.0
C257 C 0.02368 0.54828 0.38064 0.0
C258 C 0.00667 0.51922 0.40357 0.0
C259 C 0.98049 0.45872 0.40438 0.0
C260 C 0.96942 0.43132 0.42761 0.0
C261 C 0.97972 0.46215 0.4493 0.0
C262 C 0.00133 0.52069 0.44843 0.0
C263 C 0.01472 0.54912 0.4259 0.0
H264 H 0.49804 0.14955 0.73323 0.0
C265 C 0.45931 0.12406 0.72273 0.0
H266 H 0.40576 0.04709 0.70446 0.0
H267 H 0.56256 0.95726 0.67261 0.0
H268 H 0.5317 0.97521 0.63372 0.0
H269 H 0.48076 0.0289 0.63173 0.0
H270 H 0.45969 0.06404 0.66879 0.0
C271 C 0.44535 0.07196 0.71456 0.0
C272 C 0.48402 0.0482 0.71619 0.0
C273 C 0.49876 0.03064 0.69418 0.0
C274 C 0.5303 0.00194 0.69524 0.0
C275 C 0.54076 0.9813 0.67303 0.0
C276 C 0.52293 -0.00901 0.65045 0.0
C277 C 0.49414 0.02104 0.64934 0.0
C278 C 0.48205 0.0407 0.67084 0.0
H279 H 0.52285 0.89934 0.74561 0.0
C280 C 0.55708 0.9107 0.73243 0.0
H281 H 0.61325 0.96984 0.70645 0.0
H282 H 0.45745 0.06927 0.76247 0.0
H283 H 0.49755 0.0612 0.80093 0.0
H284 H 0.56584 0.02656 0.80186 0.0
H285 H 0.59239 -0.00249 0.76429 0.0
C286 C 0.57834 0.95909 0.71918 0.0
C287 C 0.54962 -0.00655 0.71825 0.0
C288 C 0.53879 0.01512 0.74004 0.0
C289 C 0.50344 0.03982 0.73921 0.0
C290 C 0.48747 0.05431 0.76167 0.0
C291 C 0.5097 0.04926 0.78398 0.0
C292 C 0.54786 0.02943 0.78453 0.0
C293 C 0.56234 0.01243 0.76287 0.0
H294 H 0.46404 0.60951 0.71799 0.0
C295 C 0.48428 0.63651 0.70199 0.0
H296 H 0.50448 0.63789 0.6644 0.0
H297 H 0.51532 0.41391 0.68824 0.0
H298 H 0.61242 0.48116 0.676 0.0
H299 H 0.64112 0.58034 0.66495 0.0
H300 H 0.57285 0.6128 0.66617 0.0
C301 C 0.48154 0.61192 0.68026 0.0
C302 C 0.46033 0.5496 0.67977 0.0
C303 C 0.50024 0.53069 0.67777 0.0
C304 C 0.48349 0.47329 0.68379 0.0
C305 C 0.52514 0.45651 0.68326 0.0
C306 C 0.58125 0.49483 0.6764 0.0
C307 C 0.59742 0.55068 0.67021 0.0
C308 C 0.55771 0.56874 0.67099 0.0
H309 H 0.41342 0.34434 0.6659 0.0
C310 C 0.40474 0.33555 0.68544 0.0
H311 H 0.39884 0.3682 0.71984 0.0
H312 H 0.37187 0.57013 0.68076 0.0
H313 H 0.27325 0.50194 0.69143 0.0
H314 H 0.24378 0.40216 0.70183 0.0
H315 H 0.31253 0.3699 0.70162 0.0
C316 C 0.41007 0.37705 0.70049 0.0
C317 C 0.4265 0.4348 0.69114 0.0
C318 C 0.38564 0.45264 0.6912 0.0
C319 C 0.40257 0.5101 0.68537 0.0
C320 C 0.36112 0.52705 0.68551 0.0
C321 C 0.30447 0.48831 0.69144 0.0
C322 C 0.28787 0.43213 0.69728 0.0
C323 C 0.32778 0.41422 0.69717 0.0
H324 H 0.91078 0.54399 0.05361 0.0
C325 C 0.9013 0.56358 0.03823 0.0
H326 H 0.92315 0.59427 1.0016 0.0
H327 H 0.16057 0.60859 0.03183 0.0
H328 H 0.18954 0.70933 0.03313 0.0
H329 H 0.11967 0.74049 1.02579 0.0
H330 H 0.02041 0.67113 1.01707 0.0
C331 C 0.92917 0.57192 1.01686 0.0
C332 C 0.97308 0.55525 1.01495 0.0
C333 C 0.03093 0.59646 1.01926 0.0
C334 C 0.07109 0.57857 1.02351 0.0
C335 C 0.12839 0.62017 1.02855 0.0
C336 C 0.14551 0.67799 1.0293 0.0
C337 C 0.10616 0.69554 1.02517 0.0
C338 C 0.0494 0.65539 1.02025 0.0
H339 H 0.11819 0.49269 0.9964 0.0
C340 C 0.11886 0.48429 1.01593 0.0
H341 H 0.09035 0.49046 0.05137 0.0
H342 H 0.86763 0.46771 1.00249 0.0
H343 H 0.83875 0.36715 1.00004 0.0
H344 H 0.90768 0.33529 1.00839 0.0
H345 H 0.0056 0.40346 1.01903 0.0
C346 C 0.09162 0.49988 0.03187 0.0
C347 C 0.05303 0.51973 1.02321 0.0
C348 C -0.00396 0.47891 1.01693 0.0
C349 C 0.9561 0.49694 1.01255 0.0
C350 C 0.89932 0.45577 1.00638 0.0
C351 C 0.88231 0.3981 1.00483 0.0
C352 C 0.92114 0.38018 1.00949 0.0
C353 C 0.97733 0.41986 1.01555 0.0
H354 H 0.3392 0.88634 0.32183 0.0
C355 C 0.33837 0.8828 0.34177 0.0
H356 H 0.38716 0.9077 0.37437 0.0
H357 H 0.62001 0.97805 0.32071 0.0
H358 H 0.58623 0.87622 0.32151 0.0
H359 H 0.48583 0.80653 0.3315 0.0
H360 H 0.41857 0.8383 0.34082 0.0
C361 C 0.38721 0.9097 0.35442 0.0
C362 C 0.44218 0.94873 0.34227 0.0
C363 C 0.4801 0.92926 0.33618 0.0
C364 C 0.5378 0.96937 0.33037 0.0
C365 C 0.57568 0.94923 0.32525 0.0
C366 C 0.5568 0.89097 0.3256 0.0
C367 C 0.50025 0.85172 0.33123 0.0
C368 C 0.46216 0.87042 0.33657 0.0
H369 H 0.6065 0.08287 0.37114 0.0
C370 C 0.63733 0.09221 0.35647 0.0
H371 H 0.64849 0.07509 0.31955 0.0
H372 H 0.37717 -0.00111 0.34872 0.0
H373 H 0.4096 0.10003 0.34501 0.0
H374 H 0.50957 0.16929 0.3341 0.0
H375 H 0.57784 0.13754 0.32699 0.0
C376 C 0.61871 0.06974 0.33409 0.0
C377 C 0.55699 0.02853 0.33099 0.0
C378 C 0.51731 0.04729 0.33394 0.0
C379 C 0.45974 0.00734 0.33986 0.0
C380 C 0.42144 0.02747 0.34401 0.0
C381 C 0.4395 0.08538 0.34191 0.0
C382 C 0.4958 0.12439 0.33579 0.0
C383 C 0.53452 0.10579 0.33188 0.0
H384 H 0.95702 0.14336 0.04702 0.0
C385 C -0.00418 0.15466 0.03686 0.0
H386 H 0.04515 0.12385 1.02002 0.0
H387 H 0.87566 0.91055 0.09346 0.0
H388 H 0.92953 0.97502 0.12669 0.0
H389 H 0.002 0.07538 0.11804 0.0
H390 H 0.02008 0.11205 0.07634 0.0
C391 C 0.0057 0.11353 1.02938 0.0
C392 C 0.96418 0.05291 0.03467 0.0
C393 C 0.95639 0.03192 0.05914 0.0
C394 C 0.91716 0.9735 0.06401 0.0
C395 C 0.90723 0.95404 0.0887 0.0
C396 C 0.93745 -0.00933 0.10794 0.0
C397 C 0.97806 0.04721 0.10308 0.0
C398 C -0.01229 0.06781 0.07901 0.0
H399 H 0.93018 0.87369 0.06448 0.0
C400 C 0.88735 0.8483 0.05714 0.0
H401 H 0.81612 0.84665 0.04118 0.0
H402 H 0.96613 0.08127 0.98621 0.0
H403 H 0.91117 0.01713 0.95318 0.0
H404 H 0.84463 0.91496 0.96144 0.0
H405 H 0.83256 0.8766 1.00258 0.0
C406 C 0.85912 0.87312 0.04819 0.0
C407 C 0.88877 0.93574 0.04425 0.0
C408 C 0.89399 0.95741 1.02001 0.0
C409 C 0.9322 0.01617 1.01522 0.0
C410 C 0.93776 0.03688 0.99083 0.0
C411 C 0.90644 0.00055 0.9717 0.0
C412 C 0.86903 0.94305 0.97634 0.0
C413 C 0.86273 0.9215 1.00014 0.0
H414 H 0.1428 -0.00657 0.40562 0.0
C415 C 0.11158 0.95116 0.39911 0.0
H416 H 0.0247 0.8927 0.39261 0.0
H417 H 0.92356 0.02224 0.44892 0.0
H418 H 0.91124 0.95328 0.48047 0.0
H419 H 0.95749 0.8953 0.47643 0.0
H420 H 0.01599 0.9057 0.44072 0.0
C421 C 0.0568 0.93628 0.3972 0.0
C422 C 0.03778 0.97774 0.40167 0.0
C423 C 0.00459 0.97158 0.42279 0.0
C424 C 0.97837 0.00518 0.42521 0.0
C425 C 0.94432 -0.00243 0.44619 0.0
C426 C 0.93708 0.9583 0.46445 0.0
C427 C 0.96311 0.92564 0.46217 0.0
C428 C -0.00359 0.9319 0.44158 0.0
H429 H 0.90885 0.02626 0.3726 0.0
C430 C 0.90993 0.05429 0.3871 0.0
H431 H 0.95046 0.09788 0.41986 0.0
H432 H 0.10383 0.00428 0.35978 0.0
H433 H 0.12283 0.07918 0.3305 0.0
H434 H 0.08156 0.14121 0.33622 0.0
H435 H 0.02013 0.12765 0.37119 0.0
C436 C 0.94734 0.06854 0.40557 0.0
C437 C -0.0146 0.04433 0.40641 0.0
C438 C 0.02387 0.05511 0.38675 0.0
C439 C 0.04925 0.02086 0.38403 0.0
C440 C 0.08436 0.02982 0.36323 0.0
C441 C 0.09561 0.07274 0.34619 0.0
C442 C 0.07229 0.10756 0.34937 0.0
C443 C 0.03682 0.09907 0.36939 0.0
H444 H 0.10743 0.05899 0.73391 0.0
C445 C 0.12763 0.04218 0.72201 0.0
H446 H 0.11538 0.97114 0.70122 0.0
H447 H 0.87896 0.80887 0.75509 0.0
H448 H 0.9378 0.77277 0.77172 0.0
H449 H 0.04099 0.82164 0.76281 0.0
H450 H 0.08598 0.90672 0.73714 0.0
C451 C 0.09578 -0.00914 0.71165 0.0
C452 C 0.03321 0.9589 0.71539 0.0
C453 C 0.00782 0.90915 0.73029 0.0
C454 C 0.94851 0.88116 0.73554 0.0
C455 C 0.92395 0.83172 0.75058 0.0
C456 C 0.95721 0.81062 0.76024 0.0
C457 C 0.01532 0.83815 0.75522 0.0
C458 C 0.04061 0.88692 0.74046 0.0
H459 H 0.83263 0.83427 0.69625 0.0
C460 C 0.81628 0.84139 0.7133 0.0
H461 H 0.83875 0.88474 0.74737 0.0
H462 H 0.06735 0.04918 0.68351 0.0
H463 H 0.00871 0.08537 0.6672 0.0
H464 H 0.90668 0.03959 0.67803 0.0
H465 H 0.86279 0.95708 0.705 0.0
C466 C 0.85314 0.87359 0.73077 0.0
C467 C 0.91508 0.90299 0.72578 0.0
C468 C 0.94029 0.95239 0.71064 0.0
C469 C -0.00069 0.97981 0.70506 0.0
C470 C 0.02305 0.02764 0.68901 0.0
C471 C -0.01023 0.0487 0.67938 0.0
C472 C 0.93234 0.02287 0.68543 0.0
C473 C 0.90765 0.97532 0.70087 0.0
H474 H 0.2292 0.3338 0.89793 0.0
C475 C 0.22911 0.31422 0.91543 0.0
H476 H 0.24605 0.25399 0.93235 0.0
H477 H 0.2292 0.13894 0.82811 0.0
H478 H 0.14494 0.06506 0.84878 0.0
H479 H 0.11743 0.08168 0.88982 0.0
H480 H 0.17394 0.17251 0.91042 0.0
C481 C 0.24933 0.27809 0.91591 0.0
C482 C 0.27066 0.26552 0.89277 0.0
C483 C 0.23817 0.21163 0.88127 0.0
C484 C 0.2545 0.2018 0.85769 0.0
C485 C 0.21966 0.14842 0.84621 0.0
C486 C 0.17093 0.10566 0.85781 0.0
C487 C 0.1554 0.11503 0.88091 0.0
C488 C 0.18829 0.16738 0.89254 0.0
H489 H 0.34855 0.18201 0.83106 0.0
C490 C 0.34129 0.2036 0.81584 0.0
H491 H 0.31281 0.26016 0.80549 0.0
H492 H 0.34719 0.37038 0.91131 0.0
H493 H 0.43267 0.44388 0.89104 0.0
H494 H 0.46003 0.42761 0.84988 0.0
H495 H 0.40234 0.33752 0.82881 0.0
C496 C 0.31913 0.2372 0.8204 0.0
C497 C 0.30396 0.24561 0.84583 0.0
C498 C 0.33765 0.2987 0.85778 0.0
C499 C 0.32135 0.30846 0.88135 0.0
C500 C 0.35675 0.36132 0.89312 0.0
C501 C 0.40613 0.40372 0.88177 0.0
C502 C 0.42158 0.39452 0.85861 0.0
C503 C 0.388 0.34268 0.84669 0.0
H504 H 0.0612 0.34892 0.13933 0.0
C505 C 0.09802 0.3432 0.13993 0.0
H506 H 0.14352 0.31409 0.16103 0.0
H507 H 0.97867 0.34681 0.24359 0.0
H508 H 0.038 0.44822 0.23575 0.0
H509 H 0.1126 0.48403 0.20368 0.0
H510 H 0.12768 0.41839 0.17898 0.0
C511 C 0.10837 0.32239 0.16053 0.0
C512 C 0.06737 0.30184 0.18164 0.0
C513 C 0.06045 0.34076 0.19659 0.0
C514 C 0.01882 0.32012 0.21578 0.0
C515 C 0.01087 0.35996 0.22942 0.0
C516 C 0.04446 0.4184 0.22501 0.0
C517 C 0.08635 0.43855 0.20691 0.0
C518 C 0.09441 0.4004 0.19279 0.0
H519 H -0.00968 0.27241 0.27036 0.0
C520 C 0.94729 0.24523 0.26354 0.0
H521 H 0.89548 0.20922 0.2323 0.0
H522 H 0.06991 0.2155 0.15673 0.0
H523 H 0.01319 0.11425 0.16553 0.0
H524 H 0.94426 0.07876 0.19987 0.0
H525 H 0.93125 0.14428 0.2255 0.0
C526 C 0.93832 0.23739 0.23912 0.0
C527 C -0.01455 0.26058 0.22055 0.0
C528 C -0.00625 0.22187 0.20607 0.0
C529 C 0.03441 0.24243 0.18657 0.0
C530 C 0.04038 0.20245 0.17202 0.0
C531 C 0.00798 0.14412 0.17683 0.0
C532 C 0.9691 0.12413 0.19613 0.0
C533 C 0.96192 0.16228 0.21064 0.0
H534 H 0.71241 0.05682 0.47838 0.0
C535 C 0.74764 0.0998 0.48168 0.0
H536 H 0.80345 0.15725 0.50827 0.0
H537 H 0.58436 0.94498 0.57081 0.0
H538 H 0.52533 0.97782 0.55166 0.0
H539 H 0.56594 0.05607 0.52118 0.0
H540 H 0.66562 0.10145 0.50939 0.0
C541 C 0.76708 0.11514 0.50476 0.0
C542 C 0.74362 0.07294 0.52548 0.0
C543 C 0.68558 0.04798 0.53273 0.0
C544 C 0.66242 0.00373 0.55077 0.0
C545 C 0.60411 0.97876 0.55724 0.0
C546 C 0.56979 -0.00265 0.54647 0.0
C547 C 0.59265 0.04133 0.52927 0.0
C548 C 0.64985 0.06668 0.5225 0.0
H549 H 0.70373 0.98469 0.61147 0.0
C550 C 0.67853 0.94209 0.60385 0.0
H551 H 0.64525 0.89376 0.57142 0.0
H552 H 0.85737 0.11391 0.51721 0.0
H553 H 0.91675 0.0831 0.53741 0.0
H554 H 0.87676 0.00737 0.56903 0.0
H555 H 0.77705 0.9619 0.58063 0.0
C556 C 0.67179 0.93583 0.57933 0.0
C557 C 0.69755 0.98556 0.56211 0.0
C558 C 0.75616 0.01233 0.55576 0.0
C559 C 0.77922 0.05608 0.53747 0.0
C560 C 0.8376 0.08093 0.5311 0.0
C561 C 0.87222 0.06354 0.54251 0.0
C562 C 0.84971 0.02089 0.56031 0.0
C563 C 0.79238 -0.00473 0.56685 0.0
H564 H 0.60503 0.71696 0.82315 0.0
C565 C 0.63365 0.76262 0.82079 0.0
H566 H 0.70195 0.83739 0.83599 0.0
H567 H 0.67912 0.75615 0.94587 0.0
H568 H 0.65634 0.83159 0.94916 0.0
H569 H 0.64243 0.87548 0.91202 0.0
H570 H 0.65184 0.84471 0.87132 0.0
C571 C 0.67329 0.79168 0.83803 0.0
C572 C 0.67919 0.76294 0.86042 0.0
C573 C 0.67231 0.78051 0.88412 0.0
C574 C 0.67937 0.7545 0.9056 0.0
C575 C 0.6737 0.77402 0.92898 0.0
C576 C 0.66061 0.81729 0.93114 0.0
C577 C 0.65283 0.84203 0.91022 0.0
C578 C 0.65849 0.82402 0.88695 0.0
H579 H 0.79033 0.71857 0.91534 0.0
C580 C 0.7583 0.69597 0.92951 0.0
H581 H 0.67184 0.66408 0.93923 0.0
H582 H 0.70472 0.72441 0.81823 0.0
H583 H 0.72186 0.64543 0.81502 0.0
H584 H 0.7222 0.59271 0.85199 0.0
H585 H 0.7072 0.62014 0.89248 0.0
C586 C 0.70555 0.68724 0.92591 0.0
C587 C 0.69265 0.71045 0.90341 0.0
C588 C 0.69725 0.69125 0.87971 0.0
C589 C 0.69287 0.71898 0.85826 0.0
C590 C 0.70367 0.70261 0.83505 0.0
C591 C 0.71426 0.65763 0.83294 0.0
C592 C 0.71476 0.62817 0.85375 0.0
C593 C 0.7065 0.64464 0.8769 0.0
H594 H 0.80932 0.67841 0.16881 0.0
C595 C 0.82346 0.65581 0.15691 0.0
H596 H 0.88037 0.6254 0.15205 0.0
H597 H 0.08343 0.80124 0.21565 0.0
H598 H 0.12385 0.82044 0.17468 0.0
H599 H 0.06309 0.77548 0.13847 0.0
H600 H 0.96181 0.71041 0.14305 0.0
C601 C 0.86613 0.64756 0.16417 0.0
C602 C 0.9014 0.67599 0.18638 0.0
C603 C 0.96054 0.71535 0.18332 0.0
C604 C -0.00475 0.74292 0.20414 0.0
C605 C 0.05457 0.78032 0.20051 0.0
C606 C 0.07852 0.7916 0.17706 0.0
C607 C 0.04436 0.76618 0.15669 0.0
C608 C -0.01387 0.72857 0.15964 0.0
H609 H -0.00589 0.69341 0.26983 0.0
C610 C 0.01767 0.73966 0.26827 0.0
H611 H 0.03171 0.81145 0.24768 0.0
H612 H 0.79176 0.59703 0.19941 0.0
H613 H 0.74997 0.58192 0.24013 0.0
H614 H 0.80771 0.63788 0.2755 0.0
H615 H 0.90787 0.70807 0.27051 0.0
C616 C 0.00764 0.76517 0.24923 0.0
C617 C 0.97063 0.73277 0.22799 0.0
C618 C 0.91131 0.69402 0.23105 0.0
C619 C 0.87709 0.66424 0.21034 0.0
C620 C 0.81901 0.62286 0.21422 0.0
C621 C 0.79457 0.61345 0.23755 0.0
C622 C 0.82714 0.64477 0.25748 0.0
C623 C 0.88479 0.68467 0.25438 0.0
H624 H 0.28494 0.9824 0.60605 0.0
C625 C 0.29553 0.02363 0.59838 0.0
H626 H 0.30375 0.07059 0.56613 0.0
H627 H 0.30904 0.84987 0.51685 0.0
H628 H 0.39569 0.87972 0.54022 0.0
H629 H 0.42847 0.9571 0.57072 0.0
H630 H 0.37478 0.00475 0.57823 0.0
C631 C 0.29446 0.02977 0.57383 0.0
C632 C 0.27432 0.98104 0.55634 0.0
C633 C 0.30698 0.95441 0.55182 0.0
C634 C 0.28907 0.91099 0.5336 0.0
C635 C 0.32157 0.88406 0.52996 0.0
C636 C 0.37122 0.90062 0.54332 0.0
C637 C 0.38964 0.94412 0.56052 0.0
C638 C 0.35817 0.97094 0.56476 0.0
H639 H 0.29208 0.90487 0.47662 0.0
C640 C 0.25143 0.86524 0.47805 0.0
H641 H 0.17989 0.81455 0.5005 0.0
H642 H 0.2003 0.02114 0.56111 0.0
H643 H 0.11595 -0.00605 0.53663 0.0
H644 H 0.08741 0.92201 0.50385 0.0
H645 H 0.14262 0.8764 0.49553 0.0
C646 C 0.22182 0.85262 0.49924 0.0
C647 C 0.23953 0.89545 0.51943 0.0
C648 C 0.20675 0.92185 0.52408 0.0
C649 C 0.22394 0.96432 0.5426 0.0
C650 C 0.18995 0.98947 0.54695 0.0
C651 C 0.14124 0.97411 0.53309 0.0
C652 C 0.12511 0.93354 0.51467 0.0
C653 C 0.15723 0.90756 0.51014 0.0
loop_
_geom_bond_atom_site_label_1
_geom_bond_atom_site_label_2
_geom_bond_distance
_geom_bond_site_symmetry_2
_ccdc_geom_bond_type
Co0 O3 1.970 . S
Co0 N17 1.989 . S
Co0 O25 1.967 . S
Co0 O32 1.920 . S
Co1 O4 1.966 . S
Co1 N10 2.022 . S
Co1 N18 1.993 1_556 S
Co1 O26 1.941 . S
C2 O3 1.258 . S
C2 O4 1.263 1_554 S
O3 Co0 1.970 . S
O3 C2 1.258 . S
O4 Co1 1.966 . S
O4 C2 1.263 1_556 S
C5 O6 1.235 . S
C5 O32 1.289 . S
O6 C5 1.235 . S
C7 C9 1.400 . S
C7 N10 1.351 . S
C7 C12 1.501 . S
C8 C9 1.387 . S
C8 N11 1.341 . S
C9 C7 1.400 . S
C9 C8 1.387 . S
N10 Co1 2.022 . S
N10 C7 1.351 . S
N10 N11 1.365 . S
N11 C8 1.341 . S
N11 N10 1.365 . S
N11 H31 0.862 . S
C12 C7 1.501 . S
C12 H13 0.961 . S
C12 H14 0.961 . S
C12 H15 0.960 . S
H13 C12 0.961 . S
H14 C12 0.961 . S
H15 C12 0.960 . S
C16 N17 1.342 . S
C16 C20 1.401 . S
C16 C21 1.499 . S
N17 Co0 1.989 . S
N17 C16 1.342 . S
N17 N18 1.388 . S
N18 Co1 1.993 1_554 S
N18 N17 1.388 . S
N18 C19 1.346 1_554 S
C19 N18 1.346 1_556 S
C19 C20 1.396 1_556 S
C19 C29 1.510 . S
C20 C16 1.401 . S
C20 C19 1.396 1_554 S
C21 C16 1.499 . S
C21 H22 0.959 . S
C21 H23 0.960 . S
C21 H24 0.961 . S
H22 C21 0.959 . S
H23 C21 0.960 . S
H24 C21 0.961 . S
O25 Co0 1.967 . S
O25 C33 1.258 . S
O26 Co1 1.941 . S
O26 C33 1.266 1_556 S
H27 C29 0.959 . S
H28 C29 0.961 . S
C29 C19 1.510 . S
C29 H27 0.959 . S
C29 H28 0.961 . S
C29 H30 0.960 . S
H30 C29 0.960 . S
H31 N11 0.862 . S
O32 Co0 1.920 . S
O32 C5 1.289 . S
C33 O25 1.258 . S
C33 O26 1.266 1_554 S
Co34 O37 1.970 . S
Co34 N51 1.989 . S
Co34 O59 1.967 . S
Co34 O66 1.920 . S
Co35 O38 1.966 . S
Co35 N44 2.022 . S
Co35 N52 1.993 . S
Co35 O60 1.941 . S
C36 O37 1.258 . S
C36 O38 1.263 . S
O37 Co34 1.970 . S
O37 C36 1.258 . S
O38 Co35 1.966 . S
O38 C36 1.263 . S
C39 O40 1.235 . S
C39 O66 1.289 . S
O40 C39 1.235 . S
C41 C43 1.400 . S
C41 N44 1.351 . S
C41 C46 1.501 . S
C42 C43 1.387 . S
C42 N45 1.341 . S
C43 C41 1.400 . S
C43 C42 1.387 . S
N44 Co35 2.022 . S
N44 C41 1.351 . S
N44 N45 1.365 . S
N45 C42 1.341 . S
N45 N44 1.365 . S
N45 H65 0.862 . S
C46 C41 1.501 . S
C46 H47 0.961 . S
C46 H48 0.961 1_655 S
C46 H49 0.960 . S
H47 C46 0.961 . S
H48 C46 0.961 1_455 S
H49 C46 0.960 . S
C50 N51 1.342 . S
C50 C54 1.401 . S
C50 C55 1.499 . S
N51 Co34 1.989 . S
N51 C50 1.342 . S
N51 N52 1.388 . S
N52 Co35 1.993 . S
N52 N51 1.388 . S
N52 C53 1.346 . S
C53 N52 1.346 . S
C53 C54 1.396 . S
C53 C63 1.510 . S
C54 C50 1.401 . S
C54 C53 1.396 . S
C55 C50 1.499 . S
C55 H56 0.959 . S
C55 H57 0.960 . S
C55 H58 0.961 . S
H56 C55 0.959 . S
H57 C55 0.960 . S
H58 C55 0.961 . S
O59 Co34 1.967 . S
O59 C67 1.258 . S
O60 Co35 1.941 . S
O60 C67 1.266 . S
H61 C63 0.959 . S
H62 C63 0.961 . S
C63 C53 1.510 . S
C63 H61 0.959 . S
C63 H62 0.961 . S
C63 H64 0.960 . S
H64 C63 0.960 . S
H65 N45 0.862 . S
O66 Co34 1.920 . S
O66 C39 1.289 . S
C67 O59 1.258 . S
C67 O60 1.266 . S
Co68 O71 1.970 . S
Co68 N85 1.989 . S
Co68 O93 1.967 . S
Co68 O100 1.920 . S
Co69 O72 1.966 . S
Co69 N78 2.022 . S
Co69 N86 1.993 . S
Co69 O94 1.941 . S
C70 O71 1.258 . S
C70 O72 1.263 . S
O71 Co68 1.970 . S
O71 C70 1.258 . S
O72 Co69 1.966 . S
O72 C70 1.263 . S
C73 O74 1.235 . S
C73 O100 1.289 . S
O74 C73 1.235 . S
C75 C77 1.400 . S
C75 N78 1.351 . S
C75 C80 1.501 . S
C76 C77 1.387 . S
C76 N79 1.341 . S
C77 C75 1.400 . S
C77 C76 1.387 . S
N78 Co69 2.022 . S
N78 C75 1.351 . S
N78 N79 1.365 . S
N79 C76 1.341 . S
N79 N78 1.365 . S
N79 H99 0.862 . S
C80 C75 1.501 . S
C80 H81 0.961 . S
C80 H82 0.961 1_565 S
C80 H83 0.960 . S
H81 C80 0.961 . S
H82 C80 0.961 1_545 S
H83 C80 0.960 . S
C84 N85 1.342 . S
C84 C88 1.401 . S
C84 C89 1.499 . S
N85 Co68 1.989 . S
N85 C84 1.342 . S
N85 N86 1.388 . S
N86 Co69 1.993 . S
N86 N85 1.388 . S
N86 C87 1.346 . S
C87 N86 1.346 . S
C87 C88 1.396 . S
C87 C97 1.510 . S
C88 C84 1.401 . S
C88 C87 1.396 . S
C89 C84 1.499 . S
C89 H90 0.959 . S
C89 H91 0.960 . S
C89 H92 0.961 . S
H90 C89 0.959 . S
H91 C89 0.960 . S
H92 C89 0.961 . S
O93 Co68 1.967 . S
O93 C101 1.258 . S
O94 Co69 1.941 . S
O94 C101 1.266 . S
H95 C97 0.959 . S
H96 C97 0.961 . S
C97 C87 1.510 . S
C97 H95 0.959 . S
C97 H96 0.961 . S
C97 H98 0.960 . S
H98 C97 0.960 . S
H99 N79 0.862 . S
O100 Co68 1.920 . S
O100 C73 1.289 . S
C101 O93 1.258 . S
C101 O94 1.266 . S
Co102 O105 1.970 . S
Co102 N119 1.989 . S
Co102 O127 1.967 . S
Co102 O134 1.920 . S
Co103 O106 1.966 . S
Co103 N112 2.022 . S
Co103 N120 1.993 1_556 S
Co103 O128 1.941 . S
C104 O105 1.258 . S
C104 O106 1.263 1_554 S
O105 Co102 1.970 . S
O105 C104 1.258 . S
O106 Co103 1.966 . S
O106 C104 1.263 1_556 S
C107 O108 1.235 . S
C107 O134 1.289 . S
O108 C107 1.235 . S
C109 C111 1.400 . S
C109 N112 1.351 . S
C109 C114 1.501 . S
C110 C111 1.387 . S
C110 N113 1.341 . S
C111 C109 1.400 . S
C111 C110 1.387 . S
N112 Co103 2.022 . S
N112 C109 1.351 . S
N112 N113 1.365 . S
N113 C110 1.341 . S
N113 N112 1.365 . S
N113 H133 0.862 . S
C114 C109 1.501 . S
C114 H115 0.961 . S
C114 H116 0.961 . S
C114 H117 0.960 . S
H115 C114 0.961 . S
H116 C114 0.961 . S
H117 C114 0.960 . S
C118 N119 1.342 . S
C118 C122 1.401 . S
C118 C123 1.499 . S
N119 Co102 1.989 . S
N119 C118 1.342 . S
N119 N120 1.388 . S
N120 Co103 1.993 1_554 S
N120 N119 1.388 . S
N120 C121 1.346 1_554 S
C121 N120 1.346 1_556 S
C121 C122 1.396 1_556 S
C121 C131 1.510 . S
C122 C118 1.401 . S
C122 C121 1.396 1_554 S
C123 C118 1.499 . S
C123 H124 0.959 . S
C123 H125 0.960 . S
C123 H126 0.961 . S
H124 C123 0.959 . S
H125 C123 0.960 . S
H126 C123 0.961 . S
O127 Co102 1.967 . S
O127 C135 1.258 . S
O128 Co103 1.941 . S
O128 C135 1.266 1_556 S
H129 C131 0.959 . S
H130 C131 0.961 . S
C131 C121 1.510 . S
C131 H129 0.959 . S
C131 H130 0.961 . S
C131 H132 0.960 . S
H132 C131 0.960 . S
H133 N113 0.862 . S
O134 Co102 1.920 . S
O134 C107 1.289 . S
C135 O127 1.258 . S
C135 O128 1.266 1_554 S
Co136 O139 1.970 . S
Co136 N153 1.989 . S
Co136 O161 1.967 . S
Co136 O168 1.920 . S
Co137 O140 1.966 . S
Co137 N146 2.022 . S
Co137 N154 1.993 . S
Co137 O162 1.941 . S
C138 O139 1.258 . S
C138 O140 1.263 . S
O139 Co136 1.970 . S
O139 C138 1.258 . S
O140 Co137 1.966 . S
O140 C138 1.263 . S
C141 O142 1.235 . S
C141 O168 1.289 . S
O142 C141 1.235 . S
C143 C145 1.400 . S
C143 N146 1.351 . S
C143 C148 1.501 . S
C144 C145 1.387 . S
C144 N147 1.341 . S
C145 C143 1.400 . S
C145 C144 1.387 . S
N146 Co137 2.022 . S
N146 C143 1.351 . S
N146 N147 1.365 . S
N147 C144 1.341 . S
N147 N146 1.365 . S
N147 H167 0.862 . S
C148 C143 1.501 . S
C148 H149 0.961 . S
C148 H150 0.961 1_455 S
C148 H151 0.960 . S
H149 C148 0.961 . S
H150 C148 0.961 1_655 S
H151 C148 0.960 . S
C152 N153 1.342 . S
C152 C156 1.401 . S
C152 C157 1.499 . S
N153 Co136 1.989 . S
N153 C152 1.342 . S
N153 N154 1.388 . S
N154 Co137 1.993 . S
N154 N153 1.388 . S
N154 C155 1.346 . S
C155 N154 1.346 . S
C155 C156 1.396 . S
C155 C165 1.510 . S
C156 C152 1.401 . S
C156 C155 1.396 . S
C157 C152 1.499 . S
C157 H158 0.959 . S
C157 H159 0.960 . S
C157 H160 0.961 . S
H158 C157 0.959 . S
H159 C157 0.960 . S
H160 C157 0.961 . S
O161 Co136 1.967 . S
O161 C169 1.258 . S
O162 Co137 1.941 . S
O162 C169 1.266 . S
H163 C165 0.959 . S
H164 C165 0.961 . S
C165 C155 1.510 . S
C165 H163 0.959 . S
C165 H164 0.961 . S
C165 H166 0.960 . S
H166 C165 0.960 . S
H167 N147 0.862 . S
O168 Co136 1.920 . S
O168 C141 1.289 . S
C169 O161 1.258 . S
C169 O162 1.266 . S
Co170 O173 1.970 . S
Co170 N187 1.989 . S
Co170 O195 1.967 . S
Co170 O202 1.920 . S
Co171 O174 1.966 . S
Co171 N180 2.022 . S
Co171 N188 1.993 . S
Co171 O196 1.941 . S
C172 O173 1.258 . S
C172 O174 1.263 . S
O173 Co170 1.970 . S
O173 C172 1.258 . S
O174 Co171 1.966 . S
O174 C172 1.263 . S
C175 O176 1.235 . S
C175 O202 1.289 . S
O176 C175 1.235 . S
C177 C179 1.400 . S
C177 N180 1.351 . S
C177 C182 1.501 . S
C178 C179 1.387 . S
C178 N181 1.341 . S
C179 C177 1.400 . S
C179 C178 1.387 . S
N180 Co171 2.022 . S
N180 C177 1.351 . S
N180 N181 1.365 . S
N181 C178 1.341 . S
N181 N180 1.365 . S
N181 H201 0.862 . S
C182 C177 1.501 . S
C182 H183 0.961 . S
C182 H184 0.961 1_545 S
C182 H185 0.960 . S
H183 C182 0.961 . S
H184 C182 0.961 1_565 S
H185 C182 0.960 . S
C186 N187 1.342 . S
C186 C190 1.401 . S
C186 C191 1.499 . S
N187 Co170 1.989 . S
N187 C186 1.342 . S
N187 N188 1.388 . S
N188 Co171 1.993 . S
N188 N187 1.388 . S
N188 C189 1.346 . S
C189 N188 1.346 . S
C189 C190 1.396 . S
C189 C199 1.510 . S
C190 C186 1.401 . S
C190 C189 1.396 . S
C191 C186 1.499 . S
C191 H192 0.959 . S
C191 H193 0.960 . S
C191 H194 0.961 . S
H192 C191 0.959 . S
H193 C191 0.960 . S
H194 C191 0.961 . S
O195 Co170 1.967 . S
O195 C203 1.258 . S
O196 Co171 1.941 . S
O196 C203 1.266 . S
H197 C199 0.959 . S
H198 C199 0.961 . S
C199 C189 1.510 . S
C199 H197 0.959 . S
C199 H198 0.961 . S
C199 H200 0.960 . S
H200 C199 0.960 . S
H201 N181 0.862 . S
O202 Co170 1.920 . S
O202 C175 1.289 . S
C203 O195 1.258 . S
C203 O196 1.266 . S
H204 C205 0.951 . S
C205 H204 0.951 . S
C205 C211 1.265 . S
H206 C211 0.950 . S
H207 C215 0.949 . S
H208 C216 0.950 . S
H209 C217 0.951 . S
H210 C218 0.951 . S
C211 C205 1.265 . S
C211 H206 0.950 . S
C211 C212 1.478 . S
C212 C211 1.478 . S
C212 C213 1.374 1_554 S
C212 C229 1.394 . S
C213 C212 1.374 1_556 S
C213 C214 1.437 1_556 S
C213 C218 1.454 . S
C214 C213 1.437 1_554 S
C214 C215 1.412 1_554 S
C214 C227 1.411 . S
C215 H207 0.949 . S
C215 C214 1.412 1_556 S
C215 C216 1.345 . S
C216 H208 0.950 . S
C216 C215 1.345 . S
C216 C217 1.424 . S
C217 H209 0.951 . S
C217 C216 1.424 . S
C217 C218 1.347 . S
C218 H210 0.951 . S
C218 C213 1.454 . S
C218 C217 1.347 . S
H219 C220 0.951 . S
C220 H219 0.951 . S
C220 C226 1.265 . S
H221 C226 0.950 . S
H222 C230 0.949 . S
H223 C231 0.950 . S
H224 C232 0.951 . S
H225 C233 0.951 . S
C226 C220 1.265 . S
C226 H221 0.950 . S
C226 C227 1.478 . S
C227 C214 1.411 . S
C227 C226 1.478 . S
C227 C228 1.397 . S
C228 C227 1.397 . S
C228 C229 1.438 . S
C228 C233 1.429 . S
C229 C212 1.394 . S
C229 C228 1.438 . S
C229 C230 1.428 . S
C230 H222 0.949 . S
C230 C229 1.428 . S
C230 C231 1.345 . S
C231 H223 0.950 . S
C231 C230 1.345 . S
C231 C232 1.424 . S
C232 H224 0.951 . S
C232 C231 1.424 . S
C232 C233 1.347 . S
C233 H225 0.951 . S
C233 C228 1.429 . S
C233 C232 1.347 . S
H234 C235 0.951 . S
C235 H234 0.951 . S
C235 C241 1.265 . S
H236 C241 0.950 . S
H237 C245 0.949 . S
H238 C246 0.950 . S
H239 C247 0.951 . S
H240 C248 0.951 . S
C241 C235 1.265 . S
C241 H236 0.950 . S
C241 C242 1.478 . S
C242 C241 1.478 . S
C242 C243 1.397 1_655 S
C242 C259 1.394 . S
C243 C242 1.397 1_455 S
C243 C244 1.438 . S
C243 C248 1.429 . S
C244 C243 1.438 . S
C244 C245 1.428 . S
C244 C257 1.394 . S
C245 H237 0.949 . S
C245 C244 1.428 . S
C245 C246 1.345 . S
C246 H238 0.950 . S
C246 C245 1.345 . S
C246 C247 1.424 . S
C247 H239 0.951 . S
C247 C246 1.424 . S
C247 C248 1.347 . S
C248 H240 0.951 . S
C248 C243 1.429 . S
C248 C247 1.347 . S
H249 C250 0.951 . S
C250 H249 0.951 . S
C250 C256 1.265 . S
H251 C256 0.950 . S
H252 C260 0.949 . S
H253 C261 0.950 . S
H254 C262 0.951 . S
H255 C263 0.951 . S
C256 C250 1.265 . S
C256 H251 0.950 . S
C256 C257 1.478 . S
C257 C244 1.394 . S
C257 C256 1.478 . S
C257 C258 1.397 1_455 S
C258 C257 1.397 1_655 S
C258 C259 1.438 . S
C258 C263 1.429 . S
C259 C242 1.394 . S
C259 C258 1.438 . S
C259 C260 1.428 . S
C260 H252 0.949 . S
C260 C259 1.428 . S
C260 C261 1.345 . S
C261 H253 0.950 . S
C261 C260 1.345 . S
C261 C262 1.424 . S
C262 H254 0.951 . S
C262 C261 1.424 . S
C262 C263 1.347 . S
C263 H255 0.951 . S
C263 C258 1.429 . S
C263 C262 1.347 . S
H264 C265 0.951 . S
C265 H264 0.951 . S
C265 C271 1.265 . S
H266 C271 0.950 . S
H267 C275 0.949 . S
H268 C276 0.950 . S
H269 C277 0.951 . S
H270 C278 0.951 . S
C271 C265 1.265 . S
C271 H266 0.950 . S
C271 C272 1.478 . S
C272 C271 1.478 . S
C272 C273 1.397 1_545 S
C272 C289 1.394 . S
C273 C272 1.397 1_565 S
C273 C274 1.438 . S
C273 C278 1.429 . S
C274 C273 1.438 . S
C274 C275 1.428 . S
C274 C287 1.394 . S
C275 H267 0.949 . S
C275 C274 1.428 . S
C275 C276 1.345 . S
C276 H268 0.950 . S
C276 C275 1.345 . S
C276 C277 1.424 . S
C277 H269 0.951 . S
C277 C276 1.424 . S
C277 C278 1.347 . S
C278 H270 0.951 . S
C278 C273 1.429 . S
C278 C277 1.347 . S
H279 C280 0.951 . S
C280 H279 0.951 . S
C280 C286 1.265 . S
H281 C286 0.950 . S
H282 C290 0.949 . S
H283 C291 0.950 . S
H284 C292 0.951 . S
H285 C293 0.951 . S
C286 C280 1.265 . S
C286 H281 0.950 . S
C286 C287 1.478 . S
C287 C274 1.394 . S
C287 C286 1.478 . S
C287 C288 1.397 1_565 S
C288 C287 1.397 1_545 S
C288 C289 1.438 . S
C288 C293 1.429 . S
C289 C272 1.394 . S
C289 C288 1.438 . S
C289 C290 1.428 . S
C290 H282 0.949 . S
C290 C289 1.428 . S
C290 C291 1.345 . S
C291 H283 0.950 . S
C291 C290 1.345 . S
C291 C292 1.424 . S
C292 H284 0.951 . S
C292 C291 1.424 . S
C292 C293 1.347 . S
C293 H285 0.951 . S
C293 C288 1.429 . S
C293 C292 1.347 . S
H294 C295 0.951 . S
C295 H294 0.951 . S
C295 C301 1.265 . S
H296 C301 0.950 . S
H297 C305 0.949 . S
H298 C306 0.950 . S
H299 C307 0.951 . S
H300 C308 0.951 . S
C301 C295 1.265 . S
C301 H296 0.950 . S
C301 C302 1.478 . S
C302 C301 1.478 . S
C302 C303 1.397 . S
C302 C319 1.394 . S
C303 C302 1.397 . S
C303 C304 1.438 . S
C303 C308 1.429 . S
C304 C303 1.438 . S
C304 C305 1.428 . S
C304 C317 1.394 . S
C305 H297 0.949 . S
C305 C304 1.428 . S
C305 C306 1.345 . S
C306 H298 0.950 . S
C306 C305 1.345 . S
C306 C307 1.424 . S
C307 H299 0.951 . S
C307 C306 1.424 . S
C307 C308 1.347 . S
C308 H300 0.951 . S
C308 C303 1.429 . S
C308 C307 1.347 . S
H309 C310 0.951 . S
C310 H309 0.951 . S
C310 C316 1.265 . S
H311 C316 0.950 . S
H312 C320 0.949 . S
H313 C321 0.950 . S
H314 C322 0.951 . S
H315 C323 0.951 . S
C316 C310 1.265 . S
C316 H311 0.950 . S
C316 C317 1.478 . S
C317 C304 1.394 . S
C317 C316 1.478 . S
C317 C318 1.397 . S
C318 C317 1.397 . S
C318 C319 1.438 . S
C318 C323 1.429 . S
C319 C302 1.394 . S
C319 C318 1.438 . S
C319 C320 1.428 . S
C320 H312 0.949 . S
C320 C319 1.428 . S
C320 C321 1.345 . S
C321 H313 0.950 . S
C321 C320 1.345 . S
C321 C322 1.424 . S
C322 H314 0.951 . S
C322 C321 1.424 . S
C322 C323 1.347 . S
C323 H315 0.951 . S
C323 C318 1.429 . S
C323 C322 1.347 . S
H324 C325 0.951 . S
C325 H324 0.951 . S
C325 C331 1.265 . S
H326 C331 0.950 . S
H327 C335 0.949 . S
H328 C336 0.950 . S
H329 C337 0.951 . S
H330 C338 0.951 . S
C331 C325 1.265 . S
C331 H326 0.950 . S
C331 C332 1.478 . S
C332 C331 1.478 . S
C332 C333 1.397 1_655 S
C332 C349 1.394 1_554 S
C333 C332 1.397 1_455 S
C333 C334 1.438 . S
C333 C338 1.429 . S
C334 C333 1.438 . S
C334 C335 1.428 . S
C334 C347 1.394 . S
C335 H327 0.949 . S
C335 C334 1.428 . S
C335 C336 1.345 . S
C336 H328 0.950 . S
C336 C335 1.345 . S
C336 C337 1.424 . S
C337 H329 0.951 . S
C337 C336 1.424 . S
C337 C338 1.347 . S
C338 H330 0.951 . S
C338 C333 1.429 . S
C338 C337 1.347 . S
H339 C340 0.951 . S
C340 H339 0.951 . S
C340 C346 1.265 . S
H341 C346 0.950 . S
H342 C350 0.949 . S
H343 C351 0.950 . S
H344 C352 0.951 . S
H345 C353 0.951 . S
C346 C340 1.265 . S
C346 H341 0.950 . S
C346 C347 1.478 . S
C347 C334 1.394 . S
C347 C346 1.478 . S
C347 C348 1.397 1_454 S
C348 C347 1.397 1_656 S
C348 C349 1.438 . S
C348 C353 1.429 . S
C349 C332 1.394 1_556 S
C349 C348 1.438 . S
C349 C350 1.428 . S
C350 H342 0.949 . S
C350 C349 1.428 . S
C350 C351 1.345 . S
C351 H343 0.950 . S
C351 C350 1.345 . S
C351 C352 1.424 . S
C352 H344 0.951 . S
C352 C351 1.424 . S
C352 C353 1.347 . S
C353 H345 0.951 . S
C353 C348 1.429 . S
C353 C352 1.347 . S
H354 C355 0.951 . S
C355 H354 0.951 . S
C355 C361 1.265 . S
H356 C361 0.950 . S
H357 C365 0.949 . S
H358 C366 0.950 . S
H359 C367 0.951 . S
H360 C368 0.951 . S
C361 C355 1.265 . S
C361 H356 0.950 . S
C361 C362 1.478 . S
C362 C361 1.478 . S
C362 C363 1.397 . S
C362 C379 1.394 . S
C363 C362 1.397 . S
C363 C364 1.438 1_565 S
C363 C368 1.429 . S
C364 C363 1.438 1_545 S
C364 C365 1.428 . S
C364 C377 1.394 . S
C365 H357 0.949 . S
C365 C364 1.428 . S
C365 C366 1.345 1_545 S
C366 H358 0.950 . S
C366 C365 1.345 1_565 S
C366 C367 1.424 . S
C367 H359 0.951 . S
C367 C366 1.424 . S
C367 C368 1.347 . S
C368 H360 0.951 . S
C368 C363 1.429 . S
C368 C367 1.347 . S
H369 C370 0.951 . S
C370 H369 0.951 . S
C370 C376 1.265 . S
H371 C376 0.950 . S
H372 C380 0.949 . S
H373 C381 0.950 . S
H374 C382 0.951 . S
H375 C383 0.951 . S
C376 C370 1.265 . S
C376 H371 0.950 . S
C376 C377 1.478 . S
C377 C364 1.394 . S
C377 C376 1.478 . S
C377 C378 1.397 . S
C378 C377 1.397 . S
C378 C379 1.438 1_545 S
C378 C383 1.429 . S
C379 C362 1.394 . S
C379 C378 1.438 1_565 S
C379 C380 1.428 . S
C380 H372 0.949 . S
C380 C379 1.428 . S
C380 C381 1.345 1_565 S
C381 H373 0.950 . S
C381 C380 1.345 1_545 S
C381 C382 1.424 . S
C382 H374 0.951 . S
C382 C381 1.424 . S
C382 C383 1.347 . S
C383 H375 0.951 . S
C383 C378 1.429 . S
C383 C382 1.347 . S
H384 C385 0.951 . S
C385 H384 0.951 . S
C385 C391 1.265 . S
H386 C391 0.950 . S
H387 C395 0.949 . S
H388 C396 0.950 . S
H389 C397 0.951 . S
H390 C398 0.951 . S
C391 C385 1.265 . S
C391 H386 0.950 . S
C391 C392 1.478 . S
C392 C391 1.478 . S
C392 C393 1.397 . S
C392 C409 1.394 1_554 S
C393 C392 1.397 . S
C393 C394 1.438 1_445 S
C393 C398 1.429 . S
C394 C393 1.438 1_665 S
C394 C395 1.428 . S
C394 C407 1.394 . S
C395 H387 0.949 . S
C395 C394 1.428 . S
C395 C396 1.345 1_655 S
C396 H388 0.950 . S
C396 C395 1.345 1_455 S
C396 C397 1.424 1_565 S
C397 H389 0.951 . S
C397 C396 1.424 1_545 S
C397 C398 1.347 . S
C398 H390 0.951 . S
C398 C393 1.429 . S
C398 C397 1.347 . S
H399 C400 0.951 . S
C400 H399 0.951 . S
C400 C406 1.265 . S
H401 C406 0.950 . S
H402 C410 0.949 . S
H403 C411 0.950 . S
H404 C412 0.951 . S
H405 C413 0.951 . S
C406 C400 1.265 . S
C406 H401 0.950 . S
C406 C407 1.478 . S
C407 C394 1.394 . S
C407 C406 1.478 . S
C407 C408 1.397 1_554 S
C408 C407 1.397 1_556 S
C408 C409 1.438 1_665 S
C408 C413 1.429 . S
C409 C392 1.394 1_556 S
C409 C408 1.438 1_445 S
C409 C410 1.428 . S
C410 H402 0.949 . S
C410 C409 1.428 . S
C410 C411 1.345 1_455 S
C411 H403 0.950 . S
C411 C410 1.345 1_655 S
C411 C412 1.424 1_545 S
C412 H404 0.951 . S
C412 C411 1.424 1_565 S
C412 C413 1.347 . S
C413 H405 0.951 . S
C413 C408 1.429 . S
C413 C412 1.347 . S
H414 C415 0.951 . S
C415 H414 0.951 . S
C415 C421 1.265 . S
H416 C421 0.950 . S
H417 C425 0.949 . S
H418 C426 0.950 1_545 S
H419 C427 0.951 . S
H420 C428 0.951 1_455 S
C421 C415 1.265 . S
C421 H416 0.950 . S
C421 C422 1.478 . S
C422 C421 1.478 . S
C422 C423 1.397 1_455 S
C422 C439 1.394 . S
C423 C422 1.397 1_655 S
C423 C424 1.438 1_565 S
C423 C428 1.429 . S
C424 C423 1.438 1_545 S
C424 C425 1.428 . S
C424 C437 1.394 . S
C425 H417 0.949 . S
C425 C424 1.428 . S
C425 C426 1.345 1_545 S
C426 H418 0.950 1_565 S
C426 C425 1.345 1_565 S
C426 C427 1.424 . S
C427 H419 0.951 . S
C427 C426 1.424 . S
C427 C428 1.347 . S
C428 H420 0.951 1_655 S
C428 C423 1.429 . S
C428 C427 1.347 . S
H429 C430 0.951 . S
C430 H429 0.951 . S
C430 C436 1.265 . S
H431 C436 0.950 . S
H432 C440 0.949 . S
H433 C441 0.950 1_565 S
H434 C442 0.951 . S
H435 C443 0.951 1_655 S
C436 C430 1.265 . S
C436 H431 0.950 . S
C436 C437 1.478 . S
C437 C424 1.394 . S
C437 C436 1.478 . S
C437 C438 1.397 1_655 S
C438 C437 1.397 1_455 S
C438 C439 1.438 1_545 S
C438 C443 1.429 . S
C439 C422 1.394 . S
C439 C438 1.438 1_565 S
C439 C440 1.428 . S
C440 H432 0.949 . S
C440 C439 1.428 . S
C440 C441 1.345 1_565 S
C441 H433 0.950 1_545 S
C441 C440 1.345 1_545 S
C441 C442 1.424 . S
C442 H434 0.951 . S
C442 C441 1.424 . S
C442 C443 1.347 . S
C443 H435 0.951 1_455 S
C443 C438 1.429 . S
C443 C442 1.347 . S
H444 C445 0.951 . S
C445 H444 0.951 . S
C445 C451 1.265 . S
H446 C451 0.950 . S
H447 C455 0.949 . S
H448 C456 0.950 . S
H449 C457 0.951 . S
H450 C458 0.950 . S
C451 C445 1.265 . S
C451 H446 0.950 . S
C451 C452 1.478 . S
C452 C451 1.478 . S
C452 C453 1.397 1_545 S
C452 C469 1.394 . S
C453 C452 1.397 1_565 S
C453 C454 1.438 1_455 S
C453 C458 1.429 . S
C454 C453 1.438 1_655 S
C454 C455 1.428 . S
C454 C467 1.394 . S
C455 H447 0.949 . S
C455 C454 1.428 . S
C455 C456 1.345 . S
C456 H448 0.950 . S
C456 C455 1.345 . S
C456 C457 1.424 1_655 S
C457 H449 0.951 . S
C457 C456 1.424 1_455 S
C457 C458 1.347 . S
C458 H450 0.950 . S
C458 C453 1.429 . S
C458 C457 1.347 . S
H459 C460 0.951 . S
C460 H459 0.951 . S
C460 C466 1.265 . S
H461 C466 0.950 . S
H462 C470 0.949 . S
H463 C471 0.950 . S
H464 C472 0.951 . S
H465 C473 0.950 . S
C466 C460 1.265 . S
C466 H461 0.950 . S
C466 C467 1.478 . S
C467 C454 1.394 . S
C467 C466 1.478 . S
C467 C468 1.397 1_565 S
C468 C467 1.397 1_545 S
C468 C469 1.438 1_655 S
C468 C473 1.429 . S
C469 C452 1.394 . S
C469 C468 1.438 1_455 S
C469 C470 1.428 . S
C470 H462 0.949 . S
C470 C469 1.428 . S
C470 C471 1.345 . S
C471 H463 0.950 . S
C471 C470 1.345 . S
C471 C472 1.424 1_455 S
C472 H464 0.951 . S
C472 C471 1.424 1_655 S
C472 C473 1.347 . S
C473 H465 0.950 . S
C473 C468 1.429 . S
C473 C472 1.347 . S
H474 C475 0.951 . S
C475 H474 0.951 . S
C475 C481 1.265 . S
H476 C481 0.950 . S
H477 C485 0.949 . S
H478 C486 0.950 . S
H479 C487 0.951 . S
H480 C488 0.951 . S
C481 C475 1.265 . S
C481 H476 0.950 . S
C481 C482 1.478 . S
C482 C481 1.478 . S
C482 C483 1.397 . S
C482 C499 1.394 . S
C483 C482 1.397 . S
C483 C484 1.438 . S
C483 C488 1.429 . S
C484 C483 1.438 . S
C484 C485 1.428 . S
C484 C497 1.394 . S
C485 H477 0.949 . S
C485 C484 1.428 . S
C485 C486 1.345 . S
C486 H478 0.950 . S
C486 C485 1.345 . S
C486 C487 1.424 . S
C487 H479 0.951 . S
C487 C486 1.424 . S
C487 C488 1.347 . S
C488 H480 0.951 . S
C488 C483 1.429 . S
C488 C487 1.347 . S
H489 C490 0.951 . S
C490 H489 0.951 . S
C490 C496 1.265 . S
H491 C496 0.950 . S
H492 C500 0.949 . S
H493 C501 0.950 . S
H494 C502 0.951 . S
H495 C503 0.951 . S
C496 C490 1.265 . S
C496 H491 0.950 . S
C496 C497 1.478 . S
C497 C484 1.394 . S
C497 C496 1.478 . S
C497 C498 1.397 . S
C498 C497 1.397 . S
C498 C499 1.438 . S
C498 C503 1.429 . S
C499 C482 1.394 . S
C499 C498 1.438 . S
C499 C500 1.428 . S
C500 H492 0.949 . S
C500 C499 1.428 . S
C500 C501 1.345 . S
C501 H493 0.950 . S
C501 C500 1.345 . S
C501 C502 1.424 . S
C502 H494 0.951 . S
C502 C501 1.424 . S
C502 C503 1.347 . S
C503 H495 0.951 . S
C503 C498 1.429 . S
C503 C502 1.347 . S
H504 C505 0.951 . S
C505 H504 0.951 . S
C505 C511 1.265 . S
H506 C511 0.950 . S
H507 C515 0.949 . S
H508 C516 0.950 . S
H509 C517 0.951 . S
H510 C518 0.951 . S
C511 C505 1.265 . S
C511 H506 0.950 . S
C511 C512 1.478 . S
C512 C511 1.478 . S
C512 C513 1.397 . S
C512 C529 1.394 . S
C513 C512 1.397 . S
C513 C514 1.438 . S
C513 C518 1.429 . S
C514 C513 1.438 . S
C514 C515 1.428 . S
C514 C527 1.394 . S
C515 H507 0.949 . S
C515 C514 1.428 . S
C515 C516 1.345 . S
C516 H508 0.950 . S
C516 C515 1.345 . S
C516 C517 1.424 . S
C517 H509 0.951 . S
C517 C516 1.424 . S
C517 C518 1.347 . S
C518 H510 0.951 . S
C518 C513 1.429 . S
C518 C517 1.347 . S
H519 C520 0.951 1_455 S
C520 H519 0.951 1_655 S
C520 C526 1.265 . S
H521 C526 0.950 . S
H522 C530 0.949 . S
H523 C531 0.950 . S
H524 C532 0.951 . S
H525 C533 0.951 . S
C526 C520 1.265 . S
C526 H521 0.950 . S
C526 C527 1.478 1_655 S
C527 C514 1.394 . S
C527 C526 1.478 1_455 S
C527 C528 1.396 1_455 S
C528 C527 1.396 1_655 S
C528 C529 1.435 1_655 S
C528 C533 1.432 . S
C529 C512 1.394 . S
C529 C528 1.435 1_455 S
C529 C530 1.428 . S
C530 H522 0.949 . S
C530 C529 1.428 . S
C530 C531 1.345 1_455 S
C531 H523 0.950 . S
C531 C530 1.345 1_655 S
C531 C532 1.424 . S
C532 H524 0.951 . S
C532 C531 1.424 . S
C532 C533 1.347 . S
C533 H525 0.951 . S
C533 C528 1.432 . S
C533 C532 1.347 . S
H534 C535 0.951 . S
C535 H534 0.951 . S
C535 C541 1.265 . S
H536 C541 0.950 . S
H537 C545 0.949 . S
H538 C546 0.950 . S
H539 C547 0.951 . S
H540 C548 0.951 . S
C541 C535 1.265 . S
C541 H536 0.950 . S
C541 C542 1.478 . S
C542 C541 1.478 . S
C542 C543 1.397 . S
C542 C559 1.394 . S
C543 C542 1.397 . S
C543 C544 1.438 . S
C543 C548 1.429 . S
C544 C543 1.438 . S
C544 C545 1.428 1_545 S
C544 C557 1.394 . S
C545 H537 0.949 . S
C545 C544 1.428 1_565 S
C545 C546 1.345 . S
C546 H538 0.950 . S
C546 C545 1.345 . S
C546 C547 1.424 1_565 S
C547 H539 0.951 . S
C547 C546 1.424 1_545 S
C547 C548 1.347 . S
C548 H540 0.951 . S
C548 C543 1.429 . S
C548 C547 1.347 . S
H549 C550 0.951 1_545 S
C550 H549 0.951 1_565 S
C550 C556 1.265 . S
H551 C556 0.950 . S
H552 C560 0.949 . S
H553 C561 0.950 . S
H554 C562 0.951 . S
H555 C563 0.951 . S
C556 C550 1.265 . S
C556 H551 0.950 . S
C556 C557 1.478 1_565 S
C557 C544 1.394 . S
C557 C556 1.478 1_545 S
C557 C558 1.397 . S
C558 C557 1.397 . S
C558 C559 1.438 . S
C558 C563 1.429 . S
C559 C542 1.394 . S
C559 C558 1.438 . S
C559 C560 1.428 . S
C560 H552 0.949 . S
C560 C559 1.428 . S
C560 C561 1.345 . S
C561 H553 0.950 . S
C561 C560 1.345 . S
C561 C562 1.424 . S
C562 H554 0.951 . S
C562 C561 1.424 . S
C562 C563 1.347 . S
C563 H555 0.951 . S
C563 C558 1.429 . S
C563 C562 1.347 . S
H564 C565 0.951 . S
C565 H564 0.951 . S
C565 C571 1.265 . S
H566 C571 0.950 . S
H567 C575 0.949 . S
H568 C576 0.950 . S
H569 C577 0.951 . S
H570 C578 0.951 . S
C571 C565 1.265 . S
C571 H566 0.950 . S
C571 C572 1.478 . S
C572 C571 1.478 . S
C572 C573 1.397 . S
C572 C589 1.394 . S
C573 C572 1.397 . S
C573 C574 1.438 . S
C573 C578 1.429 . S
C574 C573 1.438 . S
C574 C575 1.428 . S
C574 C587 1.394 . S
C575 H567 0.949 . S
C575 C574 1.428 . S
C575 C576 1.345 . S
C576 H568 0.950 . S
C576 C575 1.345 . S
C576 C577 1.424 . S
C577 H569 0.951 . S
C577 C576 1.424 . S
C577 C578 1.347 . S
C578 H570 0.951 . S
C578 C573 1.429 . S
C578 C577 1.347 . S
H579 C580 0.951 . S
C580 H579 0.951 . S
C580 C586 1.265 . S
H581 C586 0.950 . S
H582 C590 0.949 . S
H583 C591 0.950 . S
H584 C592 0.951 . S
H585 C593 0.951 . S
C586 C580 1.265 . S
C586 H581 0.950 . S
C586 C587 1.478 . S
C587 C574 1.394 . S
C587 C586 1.478 . S
C587 C588 1.397 . S
C588 C587 1.397 . S
C588 C589 1.438 . S
C588 C593 1.429 . S
C589 C572 1.394 . S
C589 C588 1.438 . S
C589 C590 1.428 . S
C590 H582 0.949 . S
C590 C589 1.428 . S
C590 C591 1.345 . S
C591 H583 0.950 . S
C591 C590 1.345 . S
C591 C592 1.424 . S
C592 H584 0.951 . S
C592 C591 1.424 . S
C592 C593 1.347 . S
C593 H585 0.951 . S
C593 C588 1.429 . S
C593 C592 1.347 . S
H594 C595 0.951 . S
C595 H594 0.951 . S
C595 C601 1.265 . S
H596 C601 0.950 . S
H597 C605 0.949 . S
H598 C606 0.950 . S
H599 C607 0.951 . S
H600 C608 0.951 . S
C601 C595 1.265 . S
C601 H596 0.950 . S
C601 C602 1.478 . S
C602 C601 1.478 . S
C602 C603 1.397 . S
C602 C619 1.394 . S
C603 C602 1.397 . S
C603 C604 1.438 . S
C603 C608 1.429 1_655 S
C604 C603 1.438 . S
C604 C605 1.428 1_655 S
C604 C617 1.394 . S
C605 H597 0.949 . S
C605 C604 1.428 1_455 S
C605 C606 1.345 . S
C606 H598 0.950 . S
C606 C605 1.345 . S
C606 C607 1.424 . S
C607 H599 0.951 . S
C607 C606 1.424 . S
C607 C608 1.347 . S
C608 H600 0.951 . S
C608 C603 1.429 1_455 S
C608 C607 1.347 . S
H609 C610 0.951 . S
C610 H609 0.951 . S
C610 C616 1.265 1_455 S
H611 C616 0.950 . S
H612 C620 0.949 . S
H613 C621 0.950 . S
H614 C622 0.951 . S
H615 C623 0.951 . S
C616 C610 1.265 1_655 S
C616 H611 0.950 . S
C616 C617 1.478 . S
C617 C604 1.394 . S
C617 C616 1.478 . S
C617 C618 1.397 . S
C618 C617 1.397 . S
C618 C619 1.438 . S
C618 C623 1.429 . S
C619 C602 1.394 . S
C619 C618 1.438 . S
C619 C620 1.428 . S
C620 H612 0.949 . S
C620 C619 1.428 . S
C620 C621 1.345 . S
C621 H613 0.950 . S
C621 C620 1.345 . S
C621 C622 1.424 . S
C622 H614 0.951 . S
C622 C621 1.424 . S
C622 C623 1.347 . S
C623 H615 0.951 . S
C623 C618 1.429 . S
C623 C622 1.347 . S
H624 C625 0.951 1_565 S
C625 H624 0.951 1_545 S
C625 C631 1.265 . S
H626 C631 0.950 . S
H627 C635 0.949 . S
H628 C636 0.950 . S
H629 C637 0.951 . S
H630 C638 0.951 . S
C631 C625 1.265 . S
C631 H626 0.950 . S
C631 C632 1.478 1_545 S
C632 C631 1.478 1_565 S
C632 C633 1.397 . S
C632 C649 1.394 . S
C633 C632 1.397 . S
C633 C634 1.438 . S
C633 C638 1.429 . S
C634 C633 1.438 . S
C634 C635 1.428 . S
C634 C647 1.394 . S
C635 H627 0.949 . S
C635 C634 1.428 . S
C635 C636 1.345 . S
C636 H628 0.950 . S
C636 C635 1.345 . S
C636 C637 1.424 . S
C637 H629 0.951 . S
C637 C636 1.424 . S
C637 C638 1.347 . S
C638 H630 0.951 . S
C638 C633 1.429 . S
C638 C637 1.347 . S
H639 C640 0.951 . S
C640 H639 0.951 . S
C640 C646 1.265 . S
H641 C646 0.950 . S
H642 C650 0.949 . S
H643 C651 0.950 . S
H644 C652 0.951 . S
H645 C653 0.951 . S
C646 C640 1.265 . S
C646 H641 0.950 . S
C646 C647 1.478 . S
C647 C634 1.394 . S
C647 C646 1.478 . S
C647 C648 1.397 . S
C648 C647 1.397 . S
C648 C649 1.438 . S
C648 C653 1.429 . S
C649 C632 1.394 . S
C649 C648 1.438 . S
C649 C650 1.428 1_565 S
C650 H642 0.949 . S
C650 C649 1.428 1_545 S
C650 C651 1.345 . S
C651 H643 0.950 . S
C651 C650 1.345 . S
C651 C652 1.424 . S
C652 H644 0.951 . S
C652 C651 1.424 . S
C652 C653 1.347 1_545 S
C653 H645 0.951 . S
C653 C648 1.429 . S
C653 C652 1.347 1_565 S
C205 C2 1.426 . S
C220 C104 1.425 . S
C235 C36 1.426 . S
C250 C138 1.426 . S
C265 C172 1.427 . S
C280 C70 1.425 . S
C295 C101 2.052 . S
C310 C203 2.052 . S
C325 C135 2.052 . S
C340 C33 2.052 . S
C355 C169 2.037 . S
C370 C67 2.037 . S
C385 C20 0.608 . S
C400 C122 0.606 . S
C415 C156 0.608 . S
C430 C54 0.603 . S
C445 C190 0.608 . S
C460 C88 0.606 . S
C475 C9 1.597 . S
C490 C175 1.690 . S
C505 C5 1.668 . S
C520 C43 1.638 . S
C535 C39 1.654 . S
C550 C77 1.671 . S
C565 C73 1.691 . S
C580 C111 1.592 . S
C595 C107 1.676 . S
C610 C145 1.629 . S
C625 C179 1.630 . S
C640 C141 1.672 . S
