# Generated by pormake.
# Topology qtz, (4)-cn, num edge types: 1
# Building blocks:
#     Node 0, Type 0, BuildingBlock: UXUYUI_clean_sbu_0, # of connection points: 4
#     Node 1, Type 0, BuildingBlock: UXUYUI_clean_sbu_0, # of connection points: 4
#     Node 2, Type 0, BuildingBlock: UXUYUI_clean_sbu_0, # of connection points: 4
#     Edge 3, Type (0, 0), BuildingBlock: EYOCIG_clean_linker_4, # of connection points: 2
#     Edge 4, Type (0, 0), BuildingBlock: EYOCIG_clean_linker_4, # of connection points: 2
#     Edge 5, Type (0, 0), BuildingBlock: EYOCIG_clean_linker_4, # of connection points: 2
#     Edge 6, Type (0, 0), BuildingBlock: EYOCIG_clean_linker_4, # of connection points: 2
#     Edge 7, Type (0, 0), BuildingBlock: EYOCIG_clean_linker_4, # of connection points: 2
#     Edge 8, Type (0, 0), BuildingBlock: EYOCIG_clean_linker_4, # of connection points: 2
# Relax obj value: 0.181
# Max RMSD: 0.212
# Mean RMSD: 0.212
data_MOF--net-qtz--node1-UXUYUI_clean_sbu_0--edge1-EYOCIG_clean_linker_4
_symmetry_space_group_name_H-M    P1
_symmetry_Int_Tables_number       1
_symmetry_cell_setting            triclinic
loop_
_symmetry_equiv_pos_as_xyz
'x, y, z'
_cell_length_a     29.424984
_cell_length_b     29.432289
_cell_length_c     35.081882
_cell_angle_alpha  89.987592
_cell_angle_beta   90.014997
_cell_angle_gamma 119.98268
loop_
_atom_site_label
_atom_site_type_symbol
_atom_site_fract_x
_atom_site_fract_y
_atom_site_fract_z
_atom_type_partial_charge
Li0 Li 0.03489 0.48641 0.14173 0.0
Li1 Li 0.03504 0.54826 0.19068 0.0
Li2 Li 0.96571 0.45204 0.19072 0.0
Li3 Li 0.96591 0.51377 0.14164 0.0
C4 C 0.07179 0.46693 0.21465 0.0
N5 N 0.13047 0.42925 0.24954 0.0
C6 C 0.11768 0.50117 0.23426 0.0
C7 C 0.05558 0.41355 0.21283 0.0
C8 C 0.14686 0.48135 0.25169 0.0
C9 C 0.08585 0.39526 0.23065 0.0
C10 C 0.0719 0.60455 0.1177 0.0
C11 C 0.08597 0.69031 0.10184 0.0
N12 N 0.13033 0.70078 0.08264 0.0
C13 C 0.11753 0.61604 0.09778 0.0
C14 C 0.05583 0.64183 0.11975 0.0
C15 C 0.14659 0.66497 0.08027 0.0
C16 C 0.06027 0.45478 0.07375 0.0
N17 N 0.07726 0.47105 0.10991 0.0
C18 C 0.15669 0.47015 0.09792 0.0
C19 C 0.12437 0.47878 0.12239 0.0
C20 C 0.14022 0.45395 0.06046 0.0
C21 C 0.09142 0.4458 0.04831 0.0
H22 H 0.02296 0.44976 0.06451 0.0
H23 H 0.13741 0.49277 0.151 0.0
C24 C 0.0606 0.60536 0.25863 0.0
N25 N 0.07756 0.60592 0.22249 0.0
C26 C 0.09182 0.6455 0.28402 0.0
C27 C 0.15711 0.68609 0.23442 0.0
C28 C 0.12471 0.64514 0.20998 0.0
C29 C 0.14066 0.686 0.27185 0.0
H30 H 0.02323 0.5732 0.26788 0.0
H31 H 0.13771 0.64406 0.18138 0.0
C32 C 0.92876 0.39557 0.11785 0.0
N33 N 0.87001 0.29925 0.083 0.0
C34 C 0.88302 0.38407 0.09806 0.0
C35 C 0.94477 0.35825 0.11986 0.0
C36 C 0.8538 0.3351 0.08066 0.0
C37 C 0.91447 0.30971 0.10207 0.0
C38 C 0.92889 0.53331 0.21448 0.0
C39 C 0.88295 0.49901 0.23403 0.0
C40 C 0.94505 0.58669 0.21269 0.0
C41 C 0.8537 0.51876 0.25141 0.0
C42 C 0.91471 0.6049 0.23047 0.0
N43 N 0.87005 0.57085 0.24929 0.0
C44 C 0.94009 0.39507 0.25874 0.0
C45 C 0.87594 0.35528 0.21011 0.0
C46 C 0.90883 0.35502 0.28418 0.0
N47 N 0.92314 0.39446 0.22258 0.0
C48 C 0.8435 0.31441 0.23459 0.0
C49 C 0.85994 0.31455 0.27204 0.0
H50 H 0.97749 0.42721 0.26797 0.0
H51 H 0.86294 0.35632 0.1815 0.0
C52 C 0.94056 0.5453 0.07356 0.0
N53 N 0.92357 0.52908 0.10972 0.0
C54 C 0.90943 0.55427 0.04808 0.0
C55 C 0.84416 0.52999 0.09765 0.0
C56 C 0.87646 0.52137 0.12217 0.0
C57 C 0.86063 0.54615 0.0602 0.0
H58 H 0.97787 0.5503 0.06434 0.0
H59 H 0.86341 0.50741 0.15078 0.0
O60 O 0.04248 0.4857 0.19798 0.0
O61 O 0.04273 0.55656 0.13446 0.0
O62 O 0.95809 0.44362 0.13449 0.0
O63 O 0.95827 0.51461 0.19786 0.0
H64 H 0.13056 0.54259 0.23603 0.0
H65 H 0.01987 0.38652 0.19806 0.0
H66 H 0.18248 0.50738 0.26698 0.0
H67 H 0.0738 0.35403 0.22954 0.0
H68 H 0.07402 0.71958 0.10312 0.0
H69 H 0.1303 0.58741 0.09583 0.0
H70 H 0.02033 0.63328 0.13476 0.0
H71 H 0.182 0.67443 0.06474 0.0
H72 H 0.19454 0.47717 0.10785 0.0
H73 H 0.07806 0.43373 0.01934 0.0
H74 H 0.07847 0.64435 0.31298 0.0
H75 H 0.19499 0.7168 0.22446 0.0
H76 H 0.87029 0.41273 0.09613 0.0
H77 H 0.98036 0.3668 0.13477 0.0
H78 H 0.8183 0.32563 0.06523 0.0
H79 H 0.92638 0.28042 0.10332 0.0
H80 H 0.8701 0.45759 0.23578 0.0
H81 H 0.98079 0.61376 0.19798 0.0
H82 H 0.81805 0.49269 0.26665 0.0
H83 H 0.92673 0.64613 0.22938 0.0
H84 H 0.92218 0.35621 0.31315 0.0
H85 H 0.80559 0.28373 0.22466 0.0
H86 H 0.92279 0.56631 0.0191 0.0
H87 H 0.80631 0.52299 0.10756 0.0
Li88 Li 0.54839 0.03471 0.47509 0.0
Li89 Li 0.48665 0.03456 0.52414 0.0
Li90 Li 0.51386 0.96547 0.52404 0.0
Li91 Li 0.45213 0.9655 0.47506 0.0
C92 C 0.60484 0.07155 0.54794 0.0
N93 N 0.70123 0.13028 0.58274 0.0
C94 C 0.61642 0.11735 0.56765 0.0
C95 C 0.64212 0.05547 0.54599 0.0
C96 C 0.66543 0.14656 0.58503 0.0
C97 C 0.69069 0.08576 0.56376 0.0
C98 C 0.46707 0.07155 0.45127 0.0
C99 C 0.39536 0.0856 0.43534 0.0
N100 N 0.42932 0.13017 0.41638 0.0
C101 C 0.50127 0.11739 0.43159 0.0
C102 C 0.41369 0.05537 0.45315 0.0
C103 C 0.48142 0.14654 0.41417 0.0
C104 C 0.60534 0.0603 0.40708 0.0
N105 N 0.60599 0.07725 0.44324 0.0
C106 C 0.68608 0.15684 0.43122 0.0
C107 C 0.64522 0.12441 0.45571 0.0
C108 C 0.68588 0.14042 0.39376 0.0
C109 C 0.64538 0.09155 0.38163 0.0
H110 H 0.57317 0.02293 0.39785 0.0
H111 H 0.64421 0.13741 0.48432 0.0
C112 C 0.4552 0.05994 0.59222 0.0
N113 N 0.47144 0.07694 0.55606 0.0
C114 C 0.44635 0.09111 0.61771 0.0
C115 C 0.47075 0.15643 0.56815 0.0
C116 C 0.47925 0.12408 0.54362 0.0
C117 C 0.45458 0.13995 0.60561 0.0
H118 H 0.45011 0.02259 0.60142 0.0
H119 H 0.49321 0.13712 0.51501 0.0
C120 C 0.53333 0.92856 0.4512 0.0
N121 N 0.57085 0.86969 0.41644 0.0
C122 C 0.49902 0.88265 0.43164 0.0
C123 C 0.5867 0.94469 0.45302 0.0
C124 C 0.51875 0.85338 0.41428 0.0
C125 C 0.60491 0.91433 0.43528 0.0
C126 C 0.39569 0.92845 0.54794 0.0
C127 C 0.38412 0.88262 0.56761 0.0
C128 C 0.35844 0.94458 0.54605 0.0
C129 C 0.33513 0.85343 0.58502 0.0
C130 C 0.3099 0.9143 0.56385 0.0
N131 N 0.29935 0.86974 0.5828 0.0
C132 C 0.54538 0.93999 0.59205 0.0
C133 C 0.52136 0.87592 0.54341 0.0
C134 C 0.5543 0.90882 0.61751 0.0
N135 N 0.52912 0.92302 0.55588 0.0
C136 C 0.52994 0.84358 0.56791 0.0
C137 C 0.54611 0.86002 0.60537 0.0
H138 H 0.55043 0.97731 0.60127 0.0
H139 H 0.50738 0.86289 0.5148 0.0
C140 C 0.3953 0.94011 0.40698 0.0
N141 N 0.39451 0.92311 0.44316 0.0
C142 C 0.35527 0.90896 0.38149 0.0
C143 C 0.31429 0.84369 0.43106 0.0
C144 C 0.35515 0.87601 0.4556 0.0
C145 C 0.31463 0.86016 0.39359 0.0
H146 H 0.42758 0.97742 0.39778 0.0
H147 H 0.35604 0.86297 0.48422 0.0
O148 O 0.55676 0.04223 0.53133 0.0
O149 O 0.48588 0.04229 0.46792 0.0
O150 O 0.51464 0.95796 0.46779 0.0
O151 O 0.44374 0.95776 0.53129 0.0
H152 H 0.58779 0.13014 0.56953 0.0
H153 H 0.63351 0.01984 0.53114 0.0
H154 H 0.67496 0.1821 0.60039 0.0
H155 H 0.71995 0.0738 0.56255 0.0
H156 H 0.35412 0.07357 0.4365 0.0
H157 H 0.5427 0.13026 0.42976 0.0
H158 H 0.38669 0.0197 0.46797 0.0
H159 H 0.50741 0.18211 0.39883 0.0
H160 H 0.71679 0.19474 0.44114 0.0
H161 H 0.64415 0.07822 0.35266 0.0
H162 H 0.43429 0.07774 0.64668 0.0
H163 H 0.47783 0.1943 0.55825 0.0
H164 H 0.4576 0.86983 0.42986 0.0
H165 H 0.61378 0.98041 0.46775 0.0
H166 H 0.49268 0.81774 0.39904 0.0
H167 H 0.64615 0.92632 0.43639 0.0
H168 H 0.41272 0.8698 0.56944 0.0
H169 H 0.36706 0.98025 0.53124 0.0
H170 H 0.3256 0.81786 0.60035 0.0
H171 H 0.28066 0.9263 0.56269 0.0
H172 H 0.56635 0.92217 0.64649 0.0
H173 H 0.52288 0.80573 0.55799 0.0
H174 H 0.35661 0.92232 0.35251 0.0
H175 H 0.28347 0.80583 0.44096 0.0
Li176 Li 0.48672 0.45187 0.80843 0.0
Li177 Li 0.5484 0.51364 0.85744 0.0
Li178 Li 0.45208 0.4864 0.85743 0.0
Li179 Li 0.51371 0.54812 0.8084 0.0
C180 C 0.46725 0.39551 0.88138 0.0
N181 N 0.42954 0.29925 0.91636 0.0
C182 C 0.50143 0.38399 0.90124 0.0
C183 C 0.4139 0.35824 0.87936 0.0
C184 C 0.4816 0.33505 0.91871 0.0
C185 C 0.3956 0.30974 0.89722 0.0
C186 C 0.60478 0.53314 0.78449 0.0
C187 C 0.69051 0.6048 0.76854 0.0
N188 N 0.70106 0.57085 0.74951 0.0
C189 C 0.61636 0.49895 0.76474 0.0
C190 C 0.64199 0.5865 0.7864 0.0
C191 C 0.66531 0.51877 0.74727 0.0
C192 C 0.45517 0.39474 0.74048 0.0
N193 N 0.4716 0.39422 0.77662 0.0
C194 C 0.47112 0.3141 0.76471 0.0
C195 C 0.47962 0.35504 0.78913 0.0
C196 C 0.45473 0.31416 0.72727 0.0
C197 C 0.4463 0.35461 0.71509 0.0
H198 H 0.44991 0.42687 0.73122 0.0
H199 H 0.49373 0.35615 0.81773 0.0
C200 C 0.60557 0.54536 0.92539 0.0
N201 N 0.60612 0.52893 0.88925 0.0
C202 C 0.64576 0.55434 0.95078 0.0
C203 C 0.68638 0.52967 0.90118 0.0
C204 C 0.64537 0.52104 0.87675 0.0
C205 C 0.6863 0.54604 0.9386 0.0
H206 H 0.57337 0.55051 0.93464 0.0
H207 H 0.64429 0.50692 0.84817 0.0
C208 C 0.39561 0.46691 0.78453 0.0
N209 N 0.29928 0.42934 0.74964 0.0
C210 C 0.38402 0.50118 0.76488 0.0
C211 C 0.35839 0.41355 0.78638 0.0
C212 C 0.33504 0.48142 0.74745 0.0
C213 C 0.30985 0.39532 0.76856 0.0
C214 C 0.53318 0.60453 0.88133 0.0
C215 C 0.49894 0.61602 0.90112 0.0
C216 C 0.58652 0.64182 0.87937 0.0
C217 C 0.51871 0.66496 0.91858 0.0
C218 C 0.60477 0.69032 0.89722 0.0
N219 N 0.57078 0.70078 0.91628 0.0
C220 C 0.39513 0.45486 0.92545 0.0
C221 C 0.35503 0.47886 0.87681 0.0
C222 C 0.35502 0.44588 0.95089 0.0
N223 N 0.3944 0.47112 0.88929 0.0
C224 C 0.31409 0.47024 0.90129 0.0
C225 C 0.31436 0.45403 0.93874 0.0
H226 H 0.42742 0.44982 0.93469 0.0
H227 H 0.35597 0.49285 0.8482 0.0
C228 C 0.54518 0.6051 0.74039 0.0
N229 N 0.52888 0.60576 0.77654 0.0
C230 C 0.55413 0.64522 0.71496 0.0
C231 C 0.52966 0.68601 0.76456 0.0
C232 C 0.52107 0.64507 0.78903 0.0
C233 C 0.54592 0.68581 0.72712 0.0
H234 H 0.55028 0.57286 0.73115 0.0
H235 H 0.50706 0.64408 0.81764 0.0
O236 O 0.48603 0.44353 0.86466 0.0
O237 O 0.55675 0.51436 0.80121 0.0
O238 O 0.44367 0.48562 0.80119 0.0
O239 O 0.51445 0.55651 0.86463 0.0
H240 H 0.54282 0.41261 0.90316 0.0
H241 H 0.38692 0.36682 0.86439 0.0
H242 H 0.50758 0.32556 0.93418 0.0
H243 H 0.35439 0.28049 0.89597 0.0
H244 H 0.71972 0.64602 0.76971 0.0
H245 H 0.58779 0.45754 0.7629 0.0
H246 H 0.63337 0.6135 0.80128 0.0
H247 H 0.67484 0.49278 0.73188 0.0
H248 H 0.47836 0.28343 0.77466 0.0
H249 H 0.43407 0.35574 0.68613 0.0
H250 H 0.64461 0.56656 0.97973 0.0
H251 H 0.71712 0.52252 0.89123 0.0
H252 H 0.4126 0.54258 0.76309 0.0
H253 H 0.36702 0.38649 0.80117 0.0
H254 H 0.32549 0.50747 0.73214 0.0
H255 H 0.28062 0.3541 0.76969 0.0
H256 H 0.45755 0.58739 0.903 0.0
H257 H 0.61355 0.63327 0.86446 0.0
H258 H 0.49269 0.67443 0.934 0.0
H259 H 0.64597 0.71959 0.896 0.0
H260 H 0.35631 0.4338 0.97987 0.0
H261 H 0.28326 0.47726 0.89136 0.0
H262 H 0.56625 0.64399 0.68599 0.0
H263 H 0.52259 0.71679 0.7745 0.0
C264 C 0.24116 0.44473 0.98686 0.0
C265 C 0.27473 0.44884 0.96518 0.0
C266 C 0.20416 0.44471 0.01235 0.0
C267 C 0.17468 0.44879 0.03402 0.0
C268 C 0.79592 0.24144 0.32014 0.0
C269 C 0.82543 0.27497 0.29847 0.0
C270 C 0.75895 0.20445 0.34563 0.0
C271 C 0.72544 0.17493 0.36732 0.0
C272 C 0.55527 0.79606 0.65353 0.0
C273 C 0.55123 0.82555 0.63184 0.0
C274 C 0.55523 0.75904 0.67902 0.0
C275 C 0.55111 0.72546 0.70069 0.0
C276 C 0.75963 0.55537 0.98662 0.0
C277 C 0.726 0.55125 0.96499 0.0
C278 C 0.79669 0.5554 0.01207 0.0
C279 C 0.8262 0.55132 0.03373 0.0
C280 C 0.24159 0.79624 0.3454 0.0
C281 C 0.27509 0.82572 0.3671 0.0
C282 C 0.20463 0.75924 0.3199 0.0
C283 C 0.17515 0.72566 0.29824 0.0
C284 C 0.44554 0.24093 0.67925 0.0
C285 C 0.4496 0.27451 0.70089 0.0
C286 C 0.4455 0.20391 0.65378 0.0
C287 C 0.44951 0.17441 0.63209 0.0
loop_
_geom_bond_atom_site_label_1
_geom_bond_atom_site_label_2
_geom_bond_distance
_geom_bond_site_symmetry_2
_ccdc_geom_bond_type
Li0 N17 1.990 . S
Li0 O60 1.956 . S
Li0 O61 1.970 . S
Li0 O62 1.961 1_455 S
Li1 N25 1.990 . S
Li1 O60 1.970 . S
Li1 O61 1.956 . S
Li1 O63 1.961 1_455 S
Li2 N47 1.990 . S
Li2 O60 1.961 1_655 S
Li2 O62 1.956 . S
Li2 O63 1.970 . S
Li3 N53 1.990 . S
Li3 O61 1.961 1_655 S
Li3 O62 1.970 . S
Li3 O63 1.956 . S
C4 C6 1.348 . S
C4 C7 1.356 . S
C4 O60 1.325 . S
N5 C8 1.314 . S
N5 C9 1.279 . S
C6 C4 1.348 . S
C6 C8 1.353 . S
C6 H64 0.929 . S
C7 C4 1.356 . S
C7 C9 1.358 . S
C7 H65 0.930 . S
C8 N5 1.314 . S
C8 C6 1.353 . S
C8 H66 0.930 . S
C9 N5 1.279 . S
C9 C7 1.358 . S
C9 H67 0.930 . S
C10 C13 1.348 . S
C10 C14 1.356 . S
C10 O61 1.325 . S
C11 N12 1.279 . S
C11 C14 1.358 . S
C11 H68 0.930 . S
N12 C11 1.279 . S
N12 C15 1.314 . S
C13 C10 1.348 . S
C13 C15 1.353 . S
C13 H69 0.929 . S
C14 C10 1.356 . S
C14 C11 1.358 . S
C14 H70 0.930 . S
C15 N12 1.314 . S
C15 C13 1.353 . S
C15 H71 0.930 . S
C16 N17 1.314 . S
C16 C21 1.353 . S
C16 H22 0.930 . S
N17 Li0 1.990 . S
N17 C16 1.314 . S
N17 C19 1.279 . S
C18 C19 1.358 . S
C18 C20 1.356 . S
C18 H72 0.930 . S
C19 N17 1.279 . S
C19 C18 1.358 . S
C19 H23 0.930 . S
C20 C18 1.356 . S
C20 C21 1.348 . S
C21 C16 1.353 . S
C21 C20 1.348 . S
C21 H73 0.929 . S
H22 C16 0.930 . S
H23 C19 0.930 . S
C24 N25 1.314 . S
C24 C26 1.353 . S
C24 H30 0.930 . S
N25 Li1 1.990 . S
N25 C24 1.314 . S
N25 C28 1.279 . S
C26 C24 1.353 . S
C26 C29 1.348 . S
C26 H74 0.929 . S
C27 C28 1.358 . S
C27 C29 1.356 . S
C27 H75 0.930 . S
C28 N25 1.279 . S
C28 C27 1.358 . S
C28 H31 0.930 . S
C29 C26 1.348 . S
C29 C27 1.356 . S
H30 C24 0.930 . S
H31 C28 0.930 . S
C32 C34 1.348 . S
C32 C35 1.356 . S
C32 O62 1.325 . S
N33 C36 1.314 . S
N33 C37 1.279 . S
C34 C32 1.348 . S
C34 C36 1.353 . S
C34 H76 0.929 . S
C35 C32 1.356 . S
C35 C37 1.358 . S
C35 H77 0.930 . S
C36 N33 1.314 . S
C36 C34 1.353 . S
C36 H78 0.930 . S
C37 N33 1.279 . S
C37 C35 1.358 . S
C37 H79 0.930 . S
C38 C39 1.348 . S
C38 C40 1.356 . S
C38 O63 1.325 . S
C39 C38 1.348 . S
C39 C41 1.353 . S
C39 H80 0.929 . S
C40 C38 1.356 . S
C40 C42 1.358 . S
C40 H81 0.930 . S
C41 C39 1.353 . S
C41 N43 1.314 . S
C41 H82 0.930 . S
C42 C40 1.358 . S
C42 N43 1.279 . S
C42 H83 0.930 . S
N43 C41 1.314 . S
N43 C42 1.279 . S
C44 C46 1.353 . S
C44 N47 1.314 . S
C44 H50 0.930 . S
C45 N47 1.279 . S
C45 C48 1.358 . S
C45 H51 0.930 . S
C46 C44 1.353 . S
C46 C49 1.348 . S
C46 H84 0.929 . S
N47 Li2 1.990 . S
N47 C44 1.314 . S
N47 C45 1.279 . S
C48 C45 1.358 . S
C48 C49 1.356 . S
C48 H85 0.930 . S
C49 C46 1.348 . S
C49 C48 1.356 . S
H50 C44 0.930 . S
H51 C45 0.930 . S
C52 N53 1.314 . S
C52 C54 1.353 . S
C52 H58 0.930 . S
N53 Li3 1.990 . S
N53 C52 1.314 . S
N53 C56 1.279 . S
C54 C52 1.353 . S
C54 C57 1.348 . S
C54 H86 0.929 . S
C55 C56 1.358 . S
C55 C57 1.356 . S
C55 H87 0.930 . S
C56 N53 1.279 . S
C56 C55 1.358 . S
C56 H59 0.930 . S
C57 C54 1.348 . S
C57 C55 1.356 . S
H58 C52 0.930 . S
H59 C56 0.930 . S
O60 Li0 1.956 . S
O60 Li1 1.970 . S
O60 Li2 1.961 1_455 S
O60 C4 1.325 . S
O61 Li0 1.970 . S
O61 Li1 1.956 . S
O61 Li3 1.961 1_455 S
O61 C10 1.325 . S
O62 Li0 1.961 1_655 S
O62 Li2 1.956 . S
O62 Li3 1.970 . S
O62 C32 1.325 . S
O63 Li1 1.961 1_655 S
O63 Li2 1.970 . S
O63 Li3 1.956 . S
O63 C38 1.325 . S
H64 C6 0.929 . S
H65 C7 0.930 . S
H66 C8 0.930 . S
H67 C9 0.930 . S
H68 C11 0.930 . S
H69 C13 0.929 . S
H70 C14 0.930 . S
H71 C15 0.930 . S
H72 C18 0.930 . S
H73 C21 0.929 . S
H74 C26 0.929 . S
H75 C27 0.930 . S
H76 C34 0.929 . S
H77 C35 0.930 . S
H78 C36 0.930 . S
H79 C37 0.930 . S
H80 C39 0.929 . S
H81 C40 0.930 . S
H82 C41 0.930 . S
H83 C42 0.930 . S
H84 C46 0.929 . S
H85 C48 0.930 . S
H86 C54 0.929 . S
H87 C55 0.930 . S
Li88 N105 1.990 . S
Li88 O148 1.956 . S
Li88 O149 1.970 . S
Li88 O150 1.961 1_545 S
Li89 N113 1.990 . S
Li89 O148 1.970 . S
Li89 O149 1.956 . S
Li89 O151 1.961 1_545 S
Li90 N135 1.990 . S
Li90 O148 1.961 1_565 S
Li90 O150 1.956 . S
Li90 O151 1.970 . S
Li91 N141 1.990 . S
Li91 O149 1.961 1_565 S
Li91 O150 1.970 . S
Li91 O151 1.956 . S
C92 C94 1.348 . S
C92 C95 1.356 . S
C92 O148 1.325 . S
N93 C96 1.314 . S
N93 C97 1.279 . S
C94 C92 1.348 . S
C94 C96 1.353 . S
C94 H152 0.929 . S
C95 C92 1.356 . S
C95 C97 1.358 . S
C95 H153 0.930 . S
C96 N93 1.314 . S
C96 C94 1.353 . S
C96 H154 0.930 . S
C97 N93 1.279 . S
C97 C95 1.358 . S
C97 H155 0.930 . S
C98 C101 1.348 . S
C98 C102 1.356 . S
C98 O149 1.325 . S
C99 N100 1.279 . S
C99 C102 1.358 . S
C99 H156 0.930 . S
N100 C99 1.279 . S
N100 C103 1.314 . S
C101 C98 1.348 . S
C101 C103 1.353 . S
C101 H157 0.929 . S
C102 C98 1.356 . S
C102 C99 1.358 . S
C102 H158 0.930 . S
C103 N100 1.314 . S
C103 C101 1.353 . S
C103 H159 0.930 . S
C104 N105 1.314 . S
C104 C109 1.353 . S
C104 H110 0.930 . S
N105 Li88 1.990 . S
N105 C104 1.314 . S
N105 C107 1.279 . S
C106 C107 1.358 . S
C106 C108 1.356 . S
C106 H160 0.930 . S
C107 N105 1.279 . S
C107 C106 1.358 . S
C107 H111 0.930 . S
C108 C106 1.356 . S
C108 C109 1.348 . S
C109 C104 1.353 . S
C109 C108 1.348 . S
C109 H161 0.929 . S
H110 C104 0.930 . S
H111 C107 0.930 . S
C112 N113 1.314 . S
C112 C114 1.353 . S
C112 H118 0.930 . S
N113 Li89 1.990 . S
N113 C112 1.314 . S
N113 C116 1.279 . S
C114 C112 1.353 . S
C114 C117 1.348 . S
C114 H162 0.929 . S
C115 C116 1.358 . S
C115 C117 1.356 . S
C115 H163 0.930 . S
C116 N113 1.279 . S
C116 C115 1.358 . S
C116 H119 0.930 . S
C117 C114 1.348 . S
C117 C115 1.356 . S
H118 C112 0.930 . S
H119 C116 0.930 . S
C120 C122 1.348 . S
C120 C123 1.356 . S
C120 O150 1.325 . S
N121 C124 1.314 . S
N121 C125 1.279 . S
C122 C120 1.348 . S
C122 C124 1.353 . S
C122 H164 0.929 . S
C123 C120 1.356 . S
C123 C125 1.358 . S
C123 H165 0.930 . S
C124 N121 1.314 . S
C124 C122 1.353 . S
C124 H166 0.930 . S
C125 N121 1.279 . S
C125 C123 1.358 . S
C125 H167 0.930 . S
C126 C127 1.348 . S
C126 C128 1.356 . S
C126 O151 1.325 . S
C127 C126 1.348 . S
C127 C129 1.353 . S
C127 H168 0.929 . S
C128 C126 1.356 . S
C128 C130 1.358 . S
C128 H169 0.930 . S
C129 C127 1.353 . S
C129 N131 1.314 . S
C129 H170 0.930 . S
C130 C128 1.358 . S
C130 N131 1.279 . S
C130 H171 0.930 . S
N131 C129 1.314 . S
N131 C130 1.279 . S
C132 C134 1.353 . S
C132 N135 1.314 . S
C132 H138 0.930 . S
C133 N135 1.279 . S
C133 C136 1.358 . S
C133 H139 0.930 . S
C134 C132 1.353 . S
C134 C137 1.348 . S
C134 H172 0.929 . S
N135 Li90 1.990 . S
N135 C132 1.314 . S
N135 C133 1.279 . S
C136 C133 1.358 . S
C136 C137 1.356 . S
C136 H173 0.930 . S
C137 C134 1.348 . S
C137 C136 1.356 . S
H138 C132 0.930 . S
H139 C133 0.930 . S
C140 N141 1.314 . S
C140 C142 1.353 . S
C140 H146 0.930 . S
N141 Li91 1.990 . S
N141 C140 1.314 . S
N141 C144 1.279 . S
C142 C140 1.353 . S
C142 C145 1.348 . S
C142 H174 0.929 . S
C143 C144 1.358 . S
C143 C145 1.356 . S
C143 H175 0.930 . S
C144 N141 1.279 . S
C144 C143 1.358 . S
C144 H147 0.930 . S
C145 C142 1.348 . S
C145 C143 1.356 . S
H146 C140 0.930 . S
H147 C144 0.930 . S
O148 Li88 1.956 . S
O148 Li89 1.970 . S
O148 Li90 1.961 1_545 S
O148 C92 1.325 . S
O149 Li88 1.970 . S
O149 Li89 1.956 . S
O149 Li91 1.961 1_545 S
O149 C98 1.325 . S
O150 Li88 1.961 1_565 S
O150 Li90 1.956 . S
O150 Li91 1.970 . S
O150 C120 1.325 . S
O151 Li89 1.961 1_565 S
O151 Li90 1.970 . S
O151 Li91 1.956 . S
O151 C126 1.325 . S
H152 C94 0.929 . S
H153 C95 0.930 . S
H154 C96 0.930 . S
H155 C97 0.930 . S
H156 C99 0.930 . S
H157 C101 0.929 . S
H158 C102 0.930 . S
H159 C103 0.930 . S
H160 C106 0.930 . S
H161 C109 0.929 . S
H162 C114 0.929 . S
H163 C115 0.930 . S
H164 C122 0.929 . S
H165 C123 0.930 . S
H166 C124 0.930 . S
H167 C125 0.930 . S
H168 C127 0.929 . S
H169 C128 0.930 . S
H170 C129 0.930 . S
H171 C130 0.930 . S
H172 C134 0.929 . S
H173 C136 0.930 . S
H174 C142 0.929 . S
H175 C143 0.930 . S
Li176 N193 1.990 . S
Li176 O236 1.956 . S
Li176 O237 1.970 . S
Li176 O238 1.961 . S
Li177 N201 1.990 . S
Li177 O236 1.970 . S
Li177 O237 1.956 . S
Li177 O239 1.961 . S
Li178 N223 1.990 . S
Li178 O236 1.961 . S
Li178 O238 1.956 . S
Li178 O239 1.970 . S
Li179 N229 1.990 . S
Li179 O237 1.961 . S
Li179 O238 1.970 . S
Li179 O239 1.956 . S
C180 C182 1.348 . S
C180 C183 1.356 . S
C180 O236 1.325 . S
N181 C184 1.314 . S
N181 C185 1.279 . S
C182 C180 1.348 . S
C182 C184 1.353 . S
C182 H240 0.929 . S
C183 C180 1.356 . S
C183 C185 1.358 . S
C183 H241 0.930 . S
C184 N181 1.314 . S
C184 C182 1.353 . S
C184 H242 0.930 . S
C185 N181 1.279 . S
C185 C183 1.358 . S
C185 H243 0.930 . S
C186 C189 1.348 . S
C186 C190 1.356 . S
C186 O237 1.325 . S
C187 N188 1.279 . S
C187 C190 1.358 . S
C187 H244 0.930 . S
N188 C187 1.279 . S
N188 C191 1.314 . S
C189 C186 1.348 . S
C189 C191 1.353 . S
C189 H245 0.929 . S
C190 C186 1.356 . S
C190 C187 1.358 . S
C190 H246 0.930 . S
C191 N188 1.314 . S
C191 C189 1.353 . S
C191 H247 0.930 . S
C192 N193 1.314 . S
C192 C197 1.353 . S
C192 H198 0.930 . S
N193 Li176 1.990 . S
N193 C192 1.314 . S
N193 C195 1.279 . S
C194 C195 1.358 . S
C194 C196 1.356 . S
C194 H248 0.930 . S
C195 N193 1.279 . S
C195 C194 1.358 . S
C195 H199 0.930 . S
C196 C194 1.356 . S
C196 C197 1.348 . S
C197 C192 1.353 . S
C197 C196 1.348 . S
C197 H249 0.929 . S
H198 C192 0.930 . S
H199 C195 0.930 . S
C200 N201 1.314 . S
C200 C202 1.353 . S
C200 H206 0.930 . S
N201 Li177 1.990 . S
N201 C200 1.314 . S
N201 C204 1.279 . S
C202 C200 1.353 . S
C202 C205 1.348 . S
C202 H250 0.929 . S
C203 C204 1.358 . S
C203 C205 1.356 . S
C203 H251 0.930 . S
C204 N201 1.279 . S
C204 C203 1.358 . S
C204 H207 0.930 . S
C205 C202 1.348 . S
C205 C203 1.356 . S
H206 C200 0.930 . S
H207 C204 0.930 . S
C208 C210 1.348 . S
C208 C211 1.356 . S
C208 O238 1.325 . S
N209 C212 1.314 . S
N209 C213 1.279 . S
C210 C208 1.348 . S
C210 C212 1.353 . S
C210 H252 0.929 . S
C211 C208 1.356 . S
C211 C213 1.358 . S
C211 H253 0.930 . S
C212 N209 1.314 . S
C212 C210 1.353 . S
C212 H254 0.930 . S
C213 N209 1.279 . S
C213 C211 1.358 . S
C213 H255 0.930 . S
C214 C215 1.348 . S
C214 C216 1.356 . S
C214 O239 1.325 . S
C215 C214 1.348 . S
C215 C217 1.353 . S
C215 H256 0.929 . S
C216 C214 1.356 . S
C216 C218 1.358 . S
C216 H257 0.930 . S
C217 C215 1.353 . S
C217 N219 1.314 . S
C217 H258 0.930 . S
C218 C216 1.358 . S
C218 N219 1.279 . S
C218 H259 0.930 . S
N219 C217 1.314 . S
N219 C218 1.279 . S
C220 C222 1.353 . S
C220 N223 1.314 . S
C220 H226 0.930 . S
C221 N223 1.279 . S
C221 C224 1.358 . S
C221 H227 0.930 . S
C222 C220 1.353 . S
C222 C225 1.348 . S
C222 H260 0.929 . S
N223 Li178 1.990 . S
N223 C220 1.314 . S
N223 C221 1.279 . S
C224 C221 1.358 . S
C224 C225 1.356 . S
C224 H261 0.930 . S
C225 C222 1.348 . S
C225 C224 1.356 . S
H226 C220 0.930 . S
H227 C221 0.930 . S
C228 N229 1.314 . S
C228 C230 1.353 . S
C228 H234 0.930 . S
N229 Li179 1.990 . S
N229 C228 1.314 . S
N229 C232 1.279 . S
C230 C228 1.353 . S
C230 C233 1.348 . S
C230 H262 0.929 . S
C231 C232 1.358 . S
C231 C233 1.356 . S
C231 H263 0.930 . S
C232 N229 1.279 . S
C232 C231 1.358 . S
C232 H235 0.930 . S
C233 C230 1.348 . S
C233 C231 1.356 . S
H234 C228 0.930 . S
H235 C232 0.930 . S
O236 Li176 1.956 . S
O236 Li177 1.970 . S
O236 Li178 1.961 . S
O236 C180 1.325 . S
O237 Li176 1.970 . S
O237 Li177 1.956 . S
O237 Li179 1.961 . S
O237 C186 1.325 . S
O238 Li176 1.961 . S
O238 Li178 1.956 . S
O238 Li179 1.970 . S
O238 C208 1.325 . S
O239 Li177 1.961 . S
O239 Li178 1.970 . S
O239 Li179 1.956 . S
O239 C214 1.325 . S
H240 C182 0.929 . S
H241 C183 0.930 . S
H242 C184 0.930 . S
H243 C185 0.930 . S
H244 C187 0.930 . S
H245 C189 0.929 . S
H246 C190 0.930 . S
H247 C191 0.930 . S
H248 C194 0.930 . S
H249 C197 0.929 . S
H250 C202 0.929 . S
H251 C203 0.930 . S
H252 C210 0.929 . S
H253 C211 0.930 . S
H254 C212 0.930 . S
H255 C213 0.930 . S
H256 C215 0.929 . S
H257 C216 0.930 . S
H258 C217 0.930 . S
H259 C218 0.930 . S
H260 C222 0.929 . S
H261 C224 0.930 . S
H262 C230 0.929 . S
H263 C231 0.930 . S
C264 C265 1.170 . S
C264 C266 1.380 1_556 S
C265 C264 1.170 . S
C266 C264 1.380 1_554 S
C266 C267 1.170 . S
C267 C266 1.170 . S
C268 C269 1.170 . S
C268 C270 1.380 . S
C269 C268 1.170 . S
C270 C268 1.380 . S
C270 C271 1.170 . S
C271 C270 1.170 . S
C272 C273 1.170 . S
C272 C274 1.380 . S
C273 C272 1.170 . S
C274 C272 1.380 . S
C274 C275 1.170 . S
C275 C274 1.170 . S
C276 C277 1.170 . S
C276 C278 1.380 1_556 S
C277 C276 1.170 . S
C278 C276 1.380 1_554 S
C278 C279 1.170 . S
C279 C278 1.170 . S
C280 C281 1.170 . S
C280 C282 1.380 . S
C281 C280 1.170 . S
C282 C280 1.380 . S
C282 C283 1.170 . S
C283 C282 1.170 . S
C284 C285 1.170 . S
C284 C286 1.380 . S
C285 C284 1.170 . S
C286 C284 1.380 . S
C286 C287 1.170 . S
C287 C286 1.170 . S
C265 C225 1.277 . S
C267 C20 1.276 . S
C269 C49 1.266 . S
C271 C108 1.263 . S
C273 C137 1.273 . S
C275 C233 1.280 . S
C277 C205 1.280 . S
C279 C57 1.269 . S
C281 C145 1.266 . S
C283 C29 1.280 . S
C285 C196 1.273 . S
C287 C117 1.261 . S
