# Generated by pormake.
# Topology uoq, (4)-cn, num edge types: 1
# Building blocks:
#     Node 0, Type 0, BuildingBlock: UXUYUI_clean_sbu_0, # of connection points: 4
#     Node 1, Type 0, BuildingBlock: UXUYUI_clean_sbu_0, # of connection points: 4
#     Node 2, Type 0, BuildingBlock: UXUYUI_clean_sbu_0, # of connection points: 4
#     Node 3, Type 0, BuildingBlock: UXUYUI_clean_sbu_0, # of connection points: 4
#     Node 4, Type 0, BuildingBlock: UXUYUI_clean_sbu_0, # of connection points: 4
#     Node 5, Type 0, BuildingBlock: UXUYUI_clean_sbu_0, # of connection points: 4
#     Node 6, Type 0, BuildingBlock: UXUYUI_clean_sbu_0, # of connection points: 4
#     Node 7, Type 0, BuildingBlock: UXUYUI_clean_sbu_0, # of connection points: 4
#     Node 8, Type 0, BuildingBlock: UXUYUI_clean_sbu_0, # of connection points: 4
#     Node 9, Type 0, BuildingBlock: UXUYUI_clean_sbu_0, # of connection points: 4
#     Node 10, Type 0, BuildingBlock: UXUYUI_clean_sbu_0, # of connection points: 4
#     Node 11, Type 0, BuildingBlock: UXUYUI_clean_sbu_0, # of connection points: 4
#     Edge 12, Type (0, 0), BuildingBlock: TEMPAE_clean_linker_10, # of connection points: 2
#     Edge 13, Type (0, 0), BuildingBlock: TEMPAE_clean_linker_10, # of connection points: 2
#     Edge 14, Type (0, 0), BuildingBlock: TEMPAE_clean_linker_10, # of connection points: 2
#     Edge 15, Type (0, 0), BuildingBlock: TEMPAE_clean_linker_10, # of connection points: 2
#     Edge 16, Type (0, 0), BuildingBlock: TEMPAE_clean_linker_10, # of connection points: 2
#     Edge 17, Type (0, 0), BuildingBlock: TEMPAE_clean_linker_10, # of connection points: 2
#     Edge 18, Type (0, 0), BuildingBlock: TEMPAE_clean_linker_10, # of connection points: 2
#     Edge 19, Type (0, 0), BuildingBlock: TEMPAE_clean_linker_10, # of connection points: 2
#     Edge 20, Type (0, 0), BuildingBlock: TEMPAE_clean_linker_10, # of connection points: 2
#     Edge 21, Type (0, 0), BuildingBlock: TEMPAE_clean_linker_10, # of connection points: 2
#     Edge 22, Type (0, 0), BuildingBlock: TEMPAE_clean_linker_10, # of connection points: 2
#     Edge 23, Type (0, 0), BuildingBlock: TEMPAE_clean_linker_10, # of connection points: 2
#     Edge 24, Type (0, 0), BuildingBlock: TEMPAE_clean_linker_10, # of connection points: 2
#     Edge 25, Type (0, 0), BuildingBlock: TEMPAE_clean_linker_10, # of connection points: 2
#     Edge 26, Type (0, 0), BuildingBlock: TEMPAE_clean_linker_10, # of connection points: 2
#     Edge 27, Type (0, 0), BuildingBlock: TEMPAE_clean_linker_10, # of connection points: 2
#     Edge 28, Type (0, 0), BuildingBlock: TEMPAE_clean_linker_10, # of connection points: 2
#     Edge 29, Type (0, 0), BuildingBlock: TEMPAE_clean_linker_10, # of connection points: 2
#     Edge 30, Type (0, 0), BuildingBlock: TEMPAE_clean_linker_10, # of connection points: 2
#     Edge 31, Type (0, 0), BuildingBlock: TEMPAE_clean_linker_10, # of connection points: 2
#     Edge 32, Type (0, 0), BuildingBlock: TEMPAE_clean_linker_10, # of connection points: 2
#     Edge 33, Type (0, 0), BuildingBlock: TEMPAE_clean_linker_10, # of connection points: 2
#     Edge 34, Type (0, 0), BuildingBlock: TEMPAE_clean_linker_10, # of connection points: 2
#     Edge 35, Type (0, 0), BuildingBlock: TEMPAE_clean_linker_10, # of connection points: 2
# Relax obj value: 0.147
# Max RMSD: 0.104
# Mean RMSD: 0.104
data_MOF--net-uoq--node1-UXUYUI_clean_sbu_0--edge1-TEMPAE_clean_linker_10
_symmetry_space_group_name_H-M    P1
_symmetry_Int_Tables_number       1
_symmetry_cell_setting            triclinic
loop_
_symmetry_equiv_pos_as_xyz
'x, y, z'
_cell_length_a     85.383355
_cell_length_b     85.407837
_cell_length_c     35.6732
_cell_angle_alpha  89.992537
_cell_angle_beta   90.001148
_cell_angle_gamma 120.00157
loop_
_atom_site_label
_atom_site_type_symbol
_atom_site_fract_x
_atom_site_fract_y
_atom_site_fract_z
_atom_type_partial_charge
Li0 Li 0.29024 0.44337 0.28084 0.0
Li1 Li 0.30743 0.43068 0.25157 0.0
Li2 Li 0.31936 0.46353 0.25217 0.0
Li3 Li 0.29363 0.4433 0.21234 0.0
C4 C 0.32829 0.45607 0.31836 0.0
N5 N 0.35846 0.47589 0.36264 0.0
C6 C 0.34253 0.45242 0.31773 0.0
C7 C 0.32934 0.46971 0.34172 0.0
C8 C 0.35766 0.4626 0.34033 0.0
C9 C 0.34473 0.47962 0.36379 0.0
C10 C 0.27405 0.40429 0.25098 0.0
C11 C 0.26841 0.37543 0.22765 0.0
N12 N 0.26109 0.36779 0.26132 0.0
C13 C 0.26639 0.39615 0.28528 0.0
C14 C 0.27499 0.39386 0.22183 0.0
C15 C 0.25994 0.37768 0.28997 0.0
C16 C 0.25841 0.43911 0.31679 0.0
N17 N 0.27474 0.44029 0.32189 0.0
C18 C 0.27017 0.4372 0.38812 0.0
C19 C 0.28058 0.43902 0.35657 0.0
C20 C 0.2536 0.43681 0.38403 0.0
C21 C 0.24768 0.43762 0.34764 0.0
H22 H 0.25382 0.43958 0.28881 0.0
H23 H 0.29332 0.43935 0.35977 0.0
C24 C 0.32381 0.40914 0.23483 0.0
N25 N 0.31422 0.41287 0.26012 0.0
C26 C 0.33048 0.39769 0.24464 0.0
C27 C 0.31686 0.39387 0.30583 0.0
C28 C 0.31052 0.40538 0.2949 0.0
C29 C 0.32726 0.39011 0.28082 0.0
H30 H 0.32676 0.41549 0.20752 0.0
H31 H 0.30321 0.40893 0.3147 0.0
C32 C 0.28586 0.47044 0.25548 0.0
N33 N 0.26367 0.4836 0.27823 0.0
C34 C 0.27089 0.46723 0.23381 0.0
C35 C 0.28956 0.48039 0.28866 0.0
C36 C 0.25985 0.47401 0.24579 0.0
C37 C 0.27817 0.48689 0.29972 0.0
C38 C 0.32264 0.45084 0.17293 0.0
C39 C 0.33281 0.46842 0.15899 0.0
C40 C 0.31564 0.43617 0.14827 0.0
C41 C 0.33567 0.47105 0.12037 0.0
C42 C 0.31877 0.43936 0.10984 0.0
N43 N 0.32863 0.45659 0.09681 0.0
C44 C 0.357 0.48662 0.25755 0.0
C45 C 0.33993 0.50121 0.26741 0.0
C46 C 0.37281 0.50209 0.2689 0.0
N47 N 0.34092 0.48629 0.25822 0.0
C48 C 0.35544 0.51704 0.27864 0.0
C49 C 0.37206 0.51741 0.2805 0.0
H50 H 0.35738 0.47455 0.24992 0.0
H51 H 0.32701 0.50063 0.26744 0.0
C52 C 0.26606 0.42602 0.15759 0.0
N53 N 0.28143 0.44165 0.16621 0.0
C54 C 0.25587 0.42509 0.12611 0.0
C55 C 0.27771 0.45626 0.11251 0.0
C56 C 0.28739 0.45662 0.14439 0.0
C57 C 0.26153 0.44041 0.10323 0.0
H58 H 0.26139 0.41442 0.17582 0.0
H59 H 0.29944 0.46901 0.15232 0.0
O60 O 0.31357 0.44662 0.29564 0.0
O61 O 0.28081 0.42243 0.2461 0.0
O62 O 0.29682 0.46388 0.24425 0.0
O63 O 0.31948 0.448 0.21054 0.0
H64 H 0.34205 0.44205 0.29958 0.0
H65 H 0.31847 0.47274 0.34246 0.0
H66 H 0.36883 0.46 0.33995 0.0
H67 H 0.34579 0.4903 0.38176 0.0
H68 H 0.26915 0.3672 0.20543 0.0
H69 H 0.26559 0.40404 0.30813 0.0
H70 H 0.28091 0.39997 0.19514 0.0
H71 H 0.25407 0.37121 0.31643 0.0
H72 H 0.27507 0.43606 0.4154 0.0
H73 H 0.23507 0.43746 0.343 0.0
H74 H 0.33833 0.39505 0.2244 0.0
H75 H 0.31432 0.38864 0.33419 0.0
H76 H 0.26774 0.45951 0.20815 0.0
H77 H 0.30095 0.48283 0.30601 0.0
H78 H 0.2482 0.47159 0.22934 0.0
H79 H 0.28081 0.49451 0.32546 0.0
H80 H 0.33831 0.47992 0.17775 0.0
H81 H 0.30776 0.42248 0.15868 0.0
H82 H 0.34344 0.48458 0.10913 0.0
H83 H 0.31334 0.42815 0.09038 0.0
H84 H 0.38542 0.50193 0.26942 0.0
H85 H 0.35428 0.52855 0.28743 0.0
H86 H 0.24336 0.41267 0.12054 0.0
H87 H 0.28276 0.46835 0.09556 0.0
Li88 Li 0.84768 0.29281 0.61415 0.0
Li89 Li 0.87584 0.30994 0.58231 0.0
Li90 Li 0.85439 0.32129 0.5838 0.0
Li91 Li 0.8479 0.29284 0.54618 0.0
C92 C 0.87218 0.32511 0.65959 0.0
N93 N 0.88315 0.34125 0.72917 0.0
C94 C 0.88627 0.32467 0.67863 0.0
C95 C 0.86377 0.33391 0.67591 0.0
C96 C 0.89159 0.33287 0.71378 0.0
C97 C 0.86948 0.34193 0.71112 0.0
C98 C 0.86653 0.27391 0.59686 0.0
C99 C 0.87492 0.25083 0.59497 0.0
N100 N 0.8812 0.25507 0.63071 0.0
C101 C 0.873 0.27799 0.63359 0.0
C102 C 0.86742 0.26019 0.57738 0.0
C103 C 0.88039 0.26833 0.65022 0.0
C104 C 0.82836 0.25939 0.65229 0.0
N105 N 0.83581 0.27758 0.65637 0.0
C106 C 0.82596 0.27387 0.72004 0.0
C107 C 0.83464 0.2849 0.68932 0.0
C108 C 0.81835 0.25507 0.71689 0.0
C109 C 0.81954 0.24781 0.68237 0.0
H110 H 0.82924 0.25388 0.62559 0.0
H111 H 0.84009 0.29926 0.69168 0.0
C112 C 0.91052 0.33704 0.59807 0.0
N113 N 0.90137 0.31949 0.58686 0.0
C114 C 0.92854 0.34498 0.60918 0.0
C115 C 0.92786 0.31699 0.59494 0.0
C116 C 0.90978 0.30957 0.5839 0.0
C117 C 0.93729 0.33476 0.60893 0.0
H118 H 0.90351 0.34462 0.60007 0.0
H119 H 0.90232 0.29571 0.57449 0.0
C120 C 0.81591 0.28823 0.59986 0.0
N121 N 0.78479 0.26944 0.64207 0.0
C122 C 0.80333 0.2703 0.59105 0.0
C123 C 0.81261 0.29664 0.63002 0.0
C124 C 0.78769 0.26102 0.61276 0.0
C125 C 0.79681 0.28691 0.65104 0.0
C126 C 0.88263 0.32602 0.51771 0.0
C127 C 0.89422 0.34472 0.51657 0.0
C128 C 0.88714 0.31464 0.49819 0.0
C129 C 0.91025 0.35175 0.49598 0.0
C130 C 0.90329 0.3222 0.47792 0.0
N131 N 0.91442 0.34044 0.47726 0.0
C132 C 0.86817 0.35818 0.59593 0.0
C133 C 0.83637 0.34172 0.5875 0.0
C134 C 0.86755 0.37372 0.60541 0.0
N135 N 0.85268 0.34254 0.58796 0.0
C136 C 0.8351 0.35691 0.59715 0.0
C137 C 0.8508 0.37307 0.60697 0.0
H138 H 0.8809 0.35832 0.59668 0.0
H139 H 0.82426 0.32909 0.58105 0.0
C140 C 0.82635 0.26045 0.50753 0.0
N141 N 0.8363 0.27866 0.50301 0.0
C142 C 0.81634 0.24936 0.47769 0.0
C143 C 0.82759 0.27593 0.43856 0.0
C144 C 0.83723 0.28654 0.46935 0.0
C145 C 0.81673 0.25705 0.44256 0.0
H146 H 0.82587 0.25457 0.53468 0.0
H147 H 0.8453 0.30107 0.46654 0.0
O148 O 0.86703 0.31753 0.62469 0.0
O149 O 0.85928 0.28319 0.57986 0.0
O150 O 0.83159 0.29735 0.57974 0.0
O151 O 0.86715 0.31881 0.53855 0.0
H152 H 0.89316 0.31818 0.66641 0.0
H153 H 0.8528 0.33435 0.6618 0.0
H154 H 0.90248 0.33262 0.72877 0.0
H155 H 0.86302 0.34869 0.7241 0.0
H156 H 0.87574 0.24021 0.5802 0.0
H157 H 0.8722 0.28839 0.64916 0.0
H158 H 0.86242 0.25685 0.54893 0.0
H159 H 0.88545 0.27136 0.67864 0.0
H160 H 0.82493 0.28 0.7458 0.0
H161 H 0.81387 0.23339 0.67876 0.0
H162 H 0.93539 0.35885 0.61889 0.0
H163 H 0.93408 0.30863 0.5942 0.0
H164 H 0.80567 0.26357 0.56789 0.0
H165 H 0.82232 0.31041 0.63762 0.0
H166 H 0.77789 0.24711 0.60636 0.0
H167 H 0.79417 0.2932 0.67464 0.0
H168 H 0.89092 0.35369 0.53164 0.0
H169 H 0.87834 0.30011 0.49905 0.0
H170 H 0.91939 0.3662 0.49494 0.0
H171 H 0.90701 0.31356 0.46281 0.0
H172 H 0.87994 0.38584 0.61319 0.0
H173 H 0.82196 0.35593 0.59767 0.0
H174 H 0.80802 0.23497 0.48248 0.0
H175 H 0.82863 0.28249 0.41196 0.0
Li176 Li 0.5687 0.87619 0.92071 0.0
Li177 Li 0.55603 0.84649 0.95129 0.0
Li178 Li 0.55587 0.84926 0.88261 0.0
Li179 Li 0.5358 0.85515 0.92219 0.0
C180 C 0.59512 0.86841 0.92008 0.0
N181 N 0.63205 0.89033 0.92824 0.0
C182 C 0.60362 0.86785 0.95313 0.0
C183 C 0.60541 0.87998 0.89103 0.0
C184 C 0.62231 0.87907 0.95674 0.0
C185 C 0.62406 0.891 0.89575 0.0
C186 C 0.54366 0.87248 0.98744 0.0
C187 C 0.51981 0.86603 0.0317 0.0
N188 N 0.52434 0.88372 0.03095 0.0
C189 C 0.54813 0.89062 0.98723 0.0
C190 C 0.52946 0.86009 0.01002 0.0
C191 C 0.53819 0.89603 0.00942 0.0
C192 C 0.58684 0.91383 0.9041 0.0
N193 N 0.58644 0.90098 0.92722 0.0
C194 C 0.60866 0.92362 0.96731 0.0
C195 C 0.59703 0.9055 0.95833 0.0
C196 C 0.60897 0.93719 0.94463 0.0
C197 C 0.59803 0.93216 0.91245 0.0
H198 H 0.57796 0.90984 0.88004 0.0
H199 H 0.59592 0.89502 0.97699 0.0
C200 C 0.5612 0.81968 0.98801 0.0
N201 N 0.55905 0.83429 0.99286 0.0
C202 C 0.56236 0.81036 0.01908 0.0
C203 C 0.56034 0.83203 0.05937 0.0
C204 C 0.559 0.84077 0.02759 0.0
C205 C 0.56172 0.81639 0.05544 0.0
H206 H 0.56169 0.81509 0.96004 0.0
H207 H 0.55788 0.85275 0.03068 0.0
C208 C 0.54823 0.87045 0.8423 0.0
N209 N 0.54241 0.87026 0.76612 0.0
C210 C 0.53061 0.86256 0.82832 0.0
C211 C 0.5629 0.87839 0.81764 0.0
C212 C 0.52795 0.86258 0.78968 0.0
C213 C 0.55967 0.8781 0.77919 0.0
C214 C 0.52922 0.81485 0.92728 0.0
C215 C 0.53297 0.80317 0.90672 0.0
C216 C 0.51914 0.80874 0.96034 0.0
C217 C 0.52662 0.78558 0.9197 0.0
C218 C 0.51307 0.79106 0.97242 0.0
N219 N 0.5169 0.77994 0.95202 0.0
C220 C 0.57333 0.839 0.82834 0.0
C221 C 0.54258 0.82917 0.81506 0.0
C222 C 0.57445 0.82977 0.79703 0.0
N223 N 0.55754 0.83846 0.83683 0.0
C224 C 0.54315 0.81989 0.78327 0.0
C225 C 0.55918 0.81992 0.77419 0.0
H226 H 0.58494 0.84623 0.84641 0.0
H227 H 0.53006 0.82854 0.82299 0.0
C228 C 0.51232 0.86938 0.92794 0.0
N229 N 0.51293 0.85378 0.92774 0.0
C230 C 0.49645 0.86922 0.93821 0.0
C231 C 0.4818 0.83677 0.94525 0.0
C232 C 0.49799 0.83759 0.93514 0.0
C233 C 0.481 0.85278 0.94789 0.0
H234 H 0.52442 0.88207 0.9218 0.0
H235 H 0.49877 0.82536 0.93426 0.0
O236 O 0.57683 0.85769 0.91617 0.0
O237 O 0.55294 0.86681 0.96524 0.0
O238 O 0.55111 0.87032 0.87993 0.0
O239 O 0.53542 0.83217 0.91516 0.0
H240 H 0.59585 0.85895 0.97586 0.0
H241 H 0.59903 0.88053 0.86526 0.0
H242 H 0.62906 0.87886 0.98223 0.0
H243 H 0.63218 0.9001 0.8736 0.0
H244 H 0.50869 0.85656 0.04904 0.0
H245 H 0.55901 0.90039 0.96984 0.0
H246 H 0.52578 0.846 0.01042 0.0
H247 H 0.54144 0.91 0.00939 0.0
H248 H 0.61665 0.92698 0.9927 0.0
H249 H 0.5979 0.94229 0.8944 0.0
H250 H 0.56334 0.79834 0.01461 0.0
H251 H 0.56032 0.8375 0.08674 0.0
H252 H 0.51912 0.85635 0.84709 0.0
H253 H 0.57662 0.88459 0.8281 0.0
H254 H 0.51439 0.85644 0.77841 0.0
H255 H 0.57088 0.8841 0.75973 0.0
H256 H 0.5408 0.80766 0.88117 0.0
H257 H 0.51624 0.81763 0.97679 0.0
H258 H 0.52947 0.77641 0.90413 0.0
H259 H 0.50536 0.7862 0.99809 0.0
H260 H 0.5871 0.83023 0.7909 0.0
H261 H 0.531 0.81225 0.76675 0.0
H262 H 0.49655 0.88192 0.94009 0.0
H263 H 0.47012 0.82375 0.95157 0.0
Li264 Li 0.7131 0.55809 0.28937 0.0
Li265 Li 0.69478 0.56918 0.2611 0.0
Li266 Li 0.68394 0.53663 0.26527 0.0
Li267 Li 0.70873 0.55598 0.22092 0.0
C268 C 0.69297 0.55804 0.34324 0.0
N269 N 0.7018 0.56665 0.41787 0.0
C270 C 0.69827 0.57543 0.35627 0.0
C271 C 0.69215 0.54502 0.36823 0.0
C272 C 0.70266 0.5795 0.39409 0.0
C273 C 0.69668 0.54965 0.40582 0.0
C274 C 0.72896 0.59374 0.23195 0.0
C275 C 0.72943 0.61031 0.17683 0.0
N276 N 0.74512 0.62478 0.18887 0.0
C277 C 0.74512 0.60873 0.24374 0.0
C278 C 0.72107 0.59451 0.19822 0.0
C279 C 0.75306 0.62432 0.2216 0.0
C280 C 0.73149 0.5484 0.34163 0.0
N281 N 0.7301 0.56249 0.328 0.0
C282 C 0.75097 0.58237 0.37381 0.0
C283 C 0.73971 0.57932 0.34299 0.0
C284 C 0.75225 0.56791 0.38931 0.0
C285 C 0.74243 0.55077 0.37255 0.0
H286 H 0.72372 0.53519 0.32916 0.0
H287 H 0.73827 0.59026 0.33156 0.0
C288 C 0.66912 0.5777 0.28295 0.0
N289 N 0.68606 0.58578 0.26823 0.0
C290 C 0.66154 0.58798 0.29486 0.0
C291 C 0.68902 0.61497 0.27672 0.0
C292 C 0.69605 0.60408 0.26473 0.0
C293 C 0.67163 0.60692 0.29268 0.0
H294 H 0.66176 0.56324 0.28706 0.0
H295 H 0.70973 0.61038 0.25429 0.0
C296 C 0.70177 0.51935 0.25233 0.0
N297 N 0.68969 0.48291 0.24353 0.0
C298 C 0.70206 0.51244 0.21699 0.0
C299 C 0.69541 0.50773 0.28323 0.0
C300 C 0.69589 0.49397 0.21312 0.0
C301 C 0.68932 0.48935 0.27819 0.0
C302 C 0.66856 0.55032 0.2052 0.0
C303 C 0.65195 0.5419 0.22393 0.0
C304 C 0.66994 0.55842 0.17036 0.0
C305 C 0.63713 0.54212 0.20796 0.0
C306 C 0.6548 0.55834 0.15529 0.0
N307 N 0.63885 0.55029 0.17427 0.0
C308 C 0.65467 0.51227 0.30836 0.0
C309 C 0.65584 0.49977 0.24987 0.0
C310 C 0.63962 0.49606 0.31912 0.0
N311 N 0.6627 0.51376 0.27464 0.0
C312 C 0.64068 0.4832 0.2595 0.0
C313 C 0.63256 0.48117 0.29483 0.0
H314 H 0.65989 0.52373 0.327 0.0
H315 H 0.66228 0.50138 0.22293 0.0
C316 C 0.73913 0.56544 0.17723 0.0
N317 N 0.72083 0.55737 0.17506 0.0
C318 C 0.74927 0.56631 0.1458 0.0
C319 C 0.72152 0.5505 0.11027 0.0
C320 C 0.7119 0.55005 0.14245 0.0
C321 C 0.74048 0.55866 0.11177 0.0
H322 H 0.74584 0.57098 0.20366 0.0
H323 H 0.69731 0.54359 0.14162 0.0
O324 O 0.68914 0.55392 0.30604 0.0
O325 O 0.72111 0.57837 0.25322 0.0
O326 O 0.7077 0.5374 0.25663 0.0
O327 O 0.68324 0.55018 0.22028 0.0
H328 H 0.69926 0.58577 0.33736 0.0
H329 H 0.68837 0.53158 0.35857 0.0
H330 H 0.70685 0.59293 0.40451 0.0
H331 H 0.69624 0.53975 0.42537 0.0
H332 H 0.72345 0.61108 0.15066 0.0
H333 H 0.75144 0.60833 0.26974 0.0
H334 H 0.70863 0.58303 0.18874 0.0
H335 H 0.76555 0.63604 0.2304 0.0
H336 H 0.75848 0.59586 0.38547 0.0
H337 H 0.74273 0.53916 0.38381 0.0
H338 H 0.648 0.5811 0.30643 0.0
H339 H 0.69741 0.62953 0.27495 0.0
H340 H 0.70698 0.5212 0.19279 0.0
H341 H 0.69477 0.51276 0.31069 0.0
H342 H 0.69601 0.48844 0.18592 0.0
H343 H 0.68421 0.48019 0.3018 0.0
H344 H 0.65053 0.53542 0.25071 0.0
H345 H 0.68252 0.5646 0.1549 0.0
H346 H 0.62425 0.53579 0.22235 0.0
H347 H 0.65571 0.56463 0.12844 0.0
H348 H 0.63347 0.49526 0.34614 0.0
H349 H 0.63558 0.47204 0.23989 0.0
H350 H 0.76381 0.57249 0.14841 0.0
H351 H 0.71423 0.54454 0.08454 0.0
Li352 Li 0.15249 0.708 0.61557 0.0
Li353 Li 0.12438 0.69105 0.58273 0.0
Li354 Li 0.14589 0.67983 0.58402 0.0
Li355 Li 0.15247 0.70845 0.54731 0.0
C356 C 0.12716 0.67395 0.65808 0.0
N357 N 0.1151 0.65495 0.72459 0.0
C358 C 0.11196 0.67252 0.6762 0.0
C359 C 0.13629 0.66581 0.67406 0.0
C360 C 0.10606 0.66283 0.70971 0.0
C361 C 0.12997 0.65625 0.70761 0.0
C362 C 0.13411 0.727 0.60074 0.0
C363 C 0.12733 0.75118 0.6043 0.0
N364 N 0.12031 0.74551 0.63917 0.0
C365 C 0.12691 0.72146 0.63666 0.0
C366 C 0.1344 0.74201 0.58444 0.0
C367 C 0.11997 0.73097 0.65562 0.0
C368 C 0.17637 0.74057 0.65274 0.0
N369 N 0.16411 0.72282 0.65849 0.0
C370 C 0.16933 0.72633 0.72451 0.0
C371 C 0.16035 0.71566 0.69356 0.0
C372 C 0.18251 0.74456 0.71944 0.0
C373 C 0.18588 0.75172 0.68293 0.0
H374 H 0.179 0.74597 0.62456 0.0
H375 H 0.15048 0.70167 0.6978 0.0
C376 C 0.08957 0.66331 0.59457 0.0
N377 N 0.0988 0.68129 0.58674 0.0
C378 C 0.07158 0.65498 0.60608 0.0
C379 C 0.07244 0.68353 0.59894 0.0
C380 C 0.09047 0.69133 0.58729 0.0
C381 C 0.06297 0.66525 0.60981 0.0
H382 H 0.09654 0.65567 0.59399 0.0
H383 H 0.09799 0.70555 0.58053 0.0
C384 C 0.18468 0.71284 0.59965 0.0
N385 N 0.21673 0.73161 0.63893 0.0
C386 C 0.1984 0.72951 0.58642 0.0
C387 C 0.18733 0.70564 0.63264 0.0
C388 C 0.2145 0.7388 0.60672 0.0
C389 C 0.2036 0.71536 0.65217 0.0
C390 C 0.11823 0.67568 0.51681 0.0
C391 C 0.10709 0.65699 0.51302 0.0
C392 C 0.11374 0.68736 0.4985 0.0
C393 C 0.0915 0.65028 0.49105 0.0
C394 C 0.09804 0.68012 0.47677 0.0
N395 N 0.08733 0.66188 0.47355 0.0
C396 C 0.13241 0.64277 0.59333 0.0
C397 C 0.16442 0.66015 0.59061 0.0
C398 C 0.13318 0.62737 0.60332 0.0
N399 N 0.1479 0.65878 0.58794 0.0
C400 C 0.16583 0.64511 0.60083 0.0
C401 C 0.15007 0.62855 0.6081 0.0
H402 H 0.11949 0.64222 0.59183 0.0
H403 H 0.17651 0.67309 0.58638 0.0
C404 C 0.1743 0.74097 0.50872 0.0
N405 N 0.16415 0.72276 0.50428 0.0
C406 C 0.18417 0.75198 0.47863 0.0
C407 C 0.17247 0.72534 0.43961 0.0
C408 C 0.16295 0.71483 0.47057 0.0
C409 C 0.18348 0.74421 0.44345 0.0
H410 H 0.17506 0.74689 0.53595 0.0
H411 H 0.15475 0.7003 0.46784 0.0
O412 O 0.13306 0.68326 0.62499 0.0
O413 O 0.14104 0.71796 0.58159 0.0
O414 O 0.16864 0.70376 0.58071 0.0
O415 O 0.1333 0.68255 0.53891 0.0
H416 H 0.1048 0.67887 0.66467 0.0
H417 H 0.14821 0.66696 0.66091 0.0
H418 H 0.0943 0.6616 0.72393 0.0
H419 H 0.1369 0.64988 0.7202 0.0
H420 H 0.12742 0.7628 0.592 0.0
H421 H 0.12667 0.70995 0.64975 0.0
H422 H 0.14001 0.74651 0.55669 0.0
H423 H 0.11432 0.7268 0.6834 0.0
H424 H 0.16594 0.7203 0.75216 0.0
H425 H 0.19602 0.76566 0.67759 0.0
H426 H 0.06469 0.64075 0.61328 0.0
H427 H 0.06634 0.69196 0.6013 0.0
H428 H 0.19661 0.73525 0.56088 0.0
H429 H 0.17682 0.69281 0.64336 0.0
H430 H 0.2252 0.75176 0.59692 0.0
H431 H 0.20576 0.71002 0.67793 0.0
H432 H 0.1104 0.64779 0.52708 0.0
H433 H 0.12221 0.70187 0.50137 0.0
H434 H 0.0827 0.63585 0.48795 0.0
H435 H 0.09434 0.68899 0.46256 0.0
H436 H 0.12073 0.61492 0.60912 0.0
H437 H 0.17909 0.64652 0.60389 0.0
H438 H 0.19262 0.76638 0.48323 0.0
H439 H 0.17123 0.71874 0.41297 0.0
Li440 Li 0.4441 0.15527 0.95047 0.0
Li441 Li 0.43362 0.12612 0.92402 0.0
Li442 Li 0.46566 0.14722 0.9255 0.0
Li443 Li 0.445 0.15153 0.88063 0.0
C444 C 0.45007 0.13928 0.00595 0.0
N445 N 0.45158 0.14566 0.0822 0.0
C446 C 0.43513 0.12852 0.02868 0.0
C447 C 0.46579 0.15323 0.02209 0.0
C448 C 0.43617 0.13196 0.06715 0.0
C449 C 0.46627 0.15627 0.06065 0.0
C450 C 0.40583 0.13113 0.90758 0.0
C451 C 0.38092 0.11679 0.86413 0.0
N452 N 0.36952 0.10819 0.89324 0.0
C453 C 0.39385 0.1222 0.93707 0.0
C454 C 0.39933 0.12844 0.8708 0.0
C455 C 0.37555 0.11063 0.92924 0.0
C456 C 0.45301 0.18681 0.99203 0.0
N457 N 0.44057 0.16901 0.9881 0.0
C458 C 0.42457 0.16992 0.0422 0.0
C459 C 0.42624 0.16062 0.01176 0.0
C460 C 0.43759 0.18817 0.0479 0.0
C461 C 0.45175 0.19672 0.02181 0.0
H462 H 0.46407 0.19326 0.9724 0.0
H463 H 0.41646 0.14651 0.00789 0.0
C464 C 0.42202 0.09366 0.96116 0.0
N465 N 0.41717 0.10061 0.93204 0.0
C466 C 0.41097 0.07581 0.97239 0.0
C467 C 0.39068 0.07181 0.92143 0.0
C468 C 0.40207 0.08994 0.91146 0.0
C469 C 0.39493 0.06474 0.95285 0.0
H470 H 0.43449 0.10203 0.97602 0.0
H471 H 0.39876 0.09546 0.8875 0.0
C472 C 0.48177 0.18263 0.90812 0.0
N473 N 0.51721 0.20873 0.89372 0.0
C474 C 0.48773 0.18748 0.87119 0.0
C475 C 0.49383 0.19113 0.93772 0.0
C476 C 0.50569 0.2007 0.8645 0.0
C477 C 0.5117 0.20425 0.92986 0.0
C478 C 0.44544 0.11521 0.86865 0.0
C479 C 0.45195 0.10455 0.88423 0.0
C480 C 0.43224 0.10809 0.84065 0.0
C481 C 0.44501 0.0868 0.87164 0.0
C482 C 0.42568 0.09029 0.82878 0.0
N483 N 0.43213 0.0801 0.84442 0.0
C484 C 0.48927 0.13946 0.9639 0.0
C485 C 0.50321 0.15791 0.91086 0.0
C486 C 0.50525 0.13983 0.97349 0.0
N487 N 0.48858 0.14872 0.93356 0.0
C488 C 0.51956 0.1586 0.91936 0.0
C489 C 0.52075 0.14953 0.95123 0.0
H490 H 0.47735 0.13174 0.98087 0.0
H491 H 0.50222 0.16465 0.88612 0.0
C492 C 0.43966 0.17581 0.83977 0.0
N493 N 0.44305 0.16201 0.83499 0.0
C494 C 0.43844 0.18517 0.80889 0.0
C495 C 0.44412 0.16585 0.76843 0.0
C496 C 0.4453 0.15687 0.80025 0.0
C497 C 0.44066 0.18026 0.77252 0.0
H498 H 0.43811 0.17969 0.8678 0.0
H499 H 0.44813 0.14593 0.79727 0.0
O500 O 0.44922 0.13636 0.96804 0.0
O501 O 0.42376 0.14267 0.91466 0.0
O502 O 0.46422 0.1697 0.91526 0.0
O503 O 0.4517 0.13242 0.88134 0.0
H504 H 0.42272 0.11785 0.01669 0.0
H505 H 0.47746 0.16169 0.00499 0.0
H506 H 0.42467 0.12382 0.085 0.0
H507 H 0.47833 0.16708 0.07344 0.0
H508 H 0.37571 0.11455 0.83581 0.0
H509 H 0.39866 0.12393 0.96562 0.0
H510 H 0.40837 0.13521 0.84761 0.0
H511 H 0.36615 0.10354 0.95176 0.0
H512 H 0.41352 0.16269 0.0617 0.0
H513 H 0.46186 0.21088 0.02452 0.0
H514 H 0.41496 0.07068 0.99612 0.0
H515 H 0.37851 0.06356 0.90537 0.0
H516 H 0.47867 0.18103 0.84789 0.0
H517 H 0.48949 0.18761 0.96646 0.0
H518 H 0.51049 0.20454 0.83606 0.0
H519 H 0.52118 0.21087 0.9525 0.0
H520 H 0.4621 0.10987 0.90609 0.0
H521 H 0.42693 0.11612 0.82864 0.0
H522 H 0.44983 0.07834 0.88359 0.0
H523 H 0.41538 0.08454 0.80729 0.0
H524 H 0.50549 0.13274 0.99846 0.0
H525 H 0.53106 0.16596 0.90096 0.0
H526 H 0.43613 0.19637 0.81359 0.0
H527 H 0.44579 0.1615 0.74095 0.0
Li528 Li 0.53487 0.67908 0.41653 0.0
Li529 Li 0.55571 0.7083 0.45293 0.0
Li530 Li 0.55485 0.70771 0.3847 0.0
Li531 Li 0.56798 0.69237 0.41716 0.0
C532 C 0.52624 0.71038 0.4019 0.0
N533 N 0.51074 0.72748 0.3641 0.0
C534 C 0.52841 0.72673 0.41526 0.0
C535 C 0.51601 0.70262 0.36957 0.0
C536 C 0.5205 0.73518 0.39571 0.0
C537 C 0.50835 0.71151 0.35077 0.0
C538 C 0.55948 0.67676 0.48352 0.0
C539 C 0.58445 0.68245 0.52378 0.0
N540 N 0.57765 0.66432 0.52731 0.0
C541 C 0.55267 0.65819 0.48764 0.0
C542 C 0.57544 0.68901 0.50179 0.0
C543 C 0.56208 0.65217 0.50987 0.0
C544 C 0.51367 0.64196 0.40502 0.0
N545 N 0.51267 0.65701 0.41279 0.0
C546 C 0.48077 0.64104 0.4021 0.0
C547 C 0.49664 0.65678 0.41237 0.0
C548 C 0.48155 0.62554 0.39193 0.0
C549 C 0.49819 0.626 0.39441 0.0
H550 H 0.52667 0.64267 0.40508 0.0
H551 H 0.4963 0.66903 0.41824 0.0
C552 C 0.56523 0.74051 0.49153 0.0
N553 N 0.55778 0.72236 0.49602 0.0
C554 C 0.56616 0.75137 0.52171 0.0
C555 C 0.55219 0.72473 0.56089 0.0
C556 C 0.5514 0.71435 0.52983 0.0
C557 C 0.55949 0.74352 0.55704 0.0
H558 H 0.57012 0.74649 0.46422 0.0
H559 H 0.54557 0.69988 0.5326 0.0
C560 C 0.54807 0.67419 0.3423 0.0
N561 N 0.54143 0.65492 0.27626 0.0
C562 C 0.56202 0.67305 0.32432 0.0
C563 C 0.53077 0.66563 0.32643 0.0
C564 C 0.55839 0.66322 0.29103 0.0
C565 C 0.52768 0.65592 0.29312 0.0
C566 C 0.59213 0.72881 0.39823 0.0
C567 C 0.59408 0.72323 0.36255 0.0
C568 C 0.60617 0.74473 0.41344 0.0
C569 C 0.61014 0.73364 0.34276 0.0
C570 C 0.62204 0.75477 0.39277 0.0
N571 N 0.62368 0.74906 0.35816 0.0
C572 C 0.56116 0.73958 0.34773 0.0
C573 C 0.5542 0.71518 0.30666 0.0
C574 C 0.5623 0.75054 0.31758 0.0
N575 N 0.55689 0.72216 0.34184 0.0
C576 C 0.55544 0.72569 0.27573 0.0
C577 C 0.55932 0.74358 0.28092 0.0
H578 H 0.56346 0.74488 0.37598 0.0
H579 H 0.55114 0.70148 0.30231 0.0
C580 C 0.57733 0.6661 0.4073 0.0
N581 N 0.58509 0.68418 0.41329 0.0
C582 C 0.58789 0.65851 0.3975 0.0
C583 C 0.61446 0.68816 0.40165 0.0
C584 C 0.60335 0.69517 0.41192 0.0
C585 C 0.60668 0.66965 0.39319 0.0
H586 H 0.56278 0.65769 0.40842 0.0
H587 H 0.60928 0.70947 0.41721 0.0
O588 O 0.53425 0.70212 0.42014 0.0
O589 O 0.55073 0.68295 0.46122 0.0
O590 O 0.55133 0.68361 0.3752 0.0
O591 O 0.57649 0.71896 0.4181 0.0
H592 H 0.53621 0.73288 0.44032 0.0
H593 H 0.51422 0.68999 0.35884 0.0
H594 H 0.52215 0.7479 0.40561 0.0
H595 H 0.50053 0.70573 0.32553 0.0
H596 H 0.59687 0.69177 0.53796 0.0
H597 H 0.54033 0.64856 0.47359 0.0
H598 H 0.5809 0.70343 0.4987 0.0
H599 H 0.55703 0.63784 0.51321 0.0
H600 H 0.46824 0.64128 0.40026 0.0
H601 H 0.49933 0.61429 0.38718 0.0
H602 H 0.57166 0.76571 0.51712 0.0
H603 H 0.54714 0.71808 0.58762 0.0
H604 H 0.57556 0.67973 0.33579 0.0
H605 H 0.51983 0.66651 0.33953 0.0
H606 H 0.56906 0.66221 0.2769 0.0
H607 H 0.51434 0.6492 0.28065 0.0
H608 H 0.58333 0.71102 0.35027 0.0
H609 H 0.60482 0.74927 0.44097 0.0
H610 H 0.61184 0.72946 0.31516 0.0
H611 H 0.63304 0.76711 0.40423 0.0
H612 H 0.56518 0.7642 0.32303 0.0
H613 H 0.55348 0.71985 0.248 0.0
H614 H 0.5813 0.6441 0.39233 0.0
H615 H 0.62886 0.69729 0.39873 0.0
Li616 Li 0.8489 0.55718 0.78924 0.0
Li617 Li 0.85463 0.53677 0.74874 0.0
Li618 Li 0.87717 0.56935 0.75428 0.0
Li619 Li 0.84842 0.55921 0.72186 0.0
C620 C 0.87784 0.55811 0.82687 0.0
N621 N 0.89679 0.57332 0.89218 0.0
C622 C 0.88263 0.54812 0.85046 0.0
C623 C 0.8827 0.57584 0.83645 0.0
C624 C 0.89221 0.55605 0.88337 0.0
C625 C 0.89227 0.58328 0.8696 0.0
C626 C 0.81528 0.53255 0.74081 0.0
C627 C 0.79237 0.51819 0.69315 0.0
N628 N 0.78119 0.52207 0.71317 0.0
C629 C 0.80349 0.53627 0.76106 0.0
C630 C 0.80962 0.52329 0.70674 0.0
C631 C 0.78633 0.5309 0.74657 0.0
C632 C 0.83385 0.57226 0.83745 0.0
N633 N 0.83741 0.5585 0.83397 0.0
C634 C 0.8216 0.54517 0.89101 0.0
C635 C 0.83167 0.54515 0.86007 0.0
C636 C 0.81734 0.55901 0.89498 0.0
C637 C 0.82385 0.57282 0.86789 0.0
H638 H 0.83838 0.58256 0.81601 0.0
H639 H 0.83451 0.53425 0.85631 0.0
C640 C 0.86792 0.51315 0.73675 0.0
N641 N 0.85242 0.5138 0.74057 0.0
C642 C 0.86726 0.49724 0.72501 0.0
C643 C 0.83466 0.48284 0.72224 0.0
C644 C 0.83594 0.49901 0.7343 0.0
C645 C 0.85049 0.48192 0.71687 0.0
H646 H 0.88084 0.52524 0.74135 0.0
H647 H 0.82385 0.49996 0.73731 0.0
C648 C 0.8679 0.59581 0.73967 0.0
N649 N 0.88257 0.62846 0.70212 0.0
C650 C 0.8755 0.59765 0.70406 0.0
C651 C 0.86779 0.6106 0.75614 0.0
C652 C 0.88283 0.61425 0.68554 0.0
C653 C 0.87528 0.62699 0.73673 0.0
C654 C 0.87203 0.54911 0.67641 0.0
C655 C 0.88876 0.5601 0.65927 0.0
C656 C 0.85953 0.53286 0.65934 0.0
C657 C 0.89282 0.5545 0.62567 0.0
C658 C 0.86411 0.52772 0.62578 0.0
N659 N 0.88053 0.53855 0.60979 0.0
C660 C 0.91177 0.57575 0.74408 0.0
C661 C 0.91145 0.60319 0.75046 0.0
C662 C 0.92984 0.58509 0.73291 0.0
N663 N 0.90278 0.58481 0.7511 0.0
C664 C 0.92954 0.6131 0.73913 0.0
C665 C 0.93878 0.60398 0.72882 0.0
H666 H 0.90455 0.56113 0.74499 0.0
H667 H 0.90417 0.61018 0.7569 0.0
C668 C 0.8236 0.56771 0.68815 0.0
N669 N 0.83719 0.56422 0.68073 0.0
C670 C 0.81448 0.5706 0.65886 0.0
C671 C 0.83446 0.56769 0.61502 0.0
C672 C 0.84291 0.56448 0.64505 0.0
C673 C 0.8199 0.57051 0.62179 0.0
H674 H 0.8197 0.56805 0.71684 0.0
H675 H 0.85404 0.56223 0.63968 0.0
O676 O 0.86842 0.55046 0.79464 0.0
O677 O 0.83221 0.53788 0.75438 0.0
O678 O 0.86044 0.57965 0.75837 0.0
O679 O 0.8679 0.55438 0.70946 0.0
H680 H 0.87896 0.53437 0.84339 0.0
H681 H 0.87914 0.58381 0.81859 0.0
H682 H 0.896 0.54847 0.90191 0.0
H683 H 0.89612 0.59699 0.87738 0.0
H684 H 0.78789 0.51116 0.66666 0.0
H685 H 0.80756 0.54332 0.78757 0.0
H686 H 0.81851 0.52025 0.69072 0.0
H687 H 0.77712 0.53378 0.76186 0.0
H688 H 0.81671 0.53414 0.91093 0.0
H689 H 0.82113 0.58389 0.87 0.0
H690 H 0.87979 0.49716 0.72082 0.0
H691 H 0.82146 0.47128 0.7166 0.0
H692 H 0.8759 0.58649 0.69088 0.0
H693 H 0.86203 0.60946 0.78371 0.0
H694 H 0.88877 0.61585 0.65802 0.0
H695 H 0.87529 0.63854 0.74919 0.0
H696 H 0.89845 0.57293 0.67151 0.0
H697 H 0.84644 0.52432 0.67178 0.0
H698 H 0.90574 0.56288 0.61216 0.0
H699 H 0.85459 0.51513 0.61241 0.0
H700 H 0.93654 0.57751 0.72624 0.0
H701 H 0.93589 0.62765 0.73657 0.0
H702 H 0.80339 0.57292 0.66504 0.0
H703 H 0.83898 0.56753 0.58671 0.0
Li704 Li 0.31821 0.85522 0.07764 0.0
Li705 Li 0.29252 0.8498 0.11762 0.0
Li706 Li 0.28913 0.84647 0.04904 0.0
Li707 Li 0.30646 0.87633 0.07853 0.0
C708 C 0.28444 0.81491 0.07423 0.0
N709 N 0.26188 0.77968 0.0513 0.0
C710 C 0.26926 0.80335 0.09559 0.0
C711 C 0.28818 0.80852 0.04129 0.0
C712 C 0.25803 0.78559 0.08352 0.0
C713 C 0.27659 0.79068 0.03013 0.0
C714 C 0.32169 0.87118 0.15697 0.0
C715 C 0.3184 0.87924 0.22004 0.0
N716 N 0.32795 0.87152 0.23298 0.0
C717 C 0.33156 0.86341 0.17081 0.0
C718 C 0.31514 0.87926 0.18167 0.0
C719 C 0.33456 0.8637 0.20937 0.0
C720 C 0.35585 0.86943 0.07102 0.0
N721 N 0.33966 0.85381 0.07164 0.0
C722 C 0.35376 0.83681 0.05389 0.0
C723 C 0.33841 0.83761 0.06431 0.0
C724 C 0.37054 0.85284 0.05087 0.0
C725 C 0.37152 0.86928 0.06042 0.0
H726 H 0.35643 0.88212 0.07709 0.0
H727 H 0.32543 0.82537 0.06551 0.0
C728 C 0.26492 0.83979 0.172 0.0
N729 N 0.28025 0.83936 0.16378 0.0
C730 C 0.25461 0.83069 0.20347 0.0
C731 C 0.27627 0.82121 0.21797 0.0
C732 C 0.28606 0.83034 0.186 0.0
C733 C 0.26017 0.82109 0.22674 0.0
H734 H 0.26042 0.84679 0.15357 0.0
H735 H 0.29801 0.82977 0.17827 0.0
C736 C 0.32714 0.8718 0.0114 0.0
N737 N 0.35705 0.88224 0.96625 0.0
C738 C 0.34109 0.88982 0.01099 0.0
C739 C 0.32834 0.85912 0.98862 0.0
C740 C 0.3561 0.89482 0.98798 0.0
C741 C 0.3436 0.86465 0.96609 0.0
C742 C 0.27259 0.86903 0.07981 0.0
C743 C 0.26366 0.86861 0.04668 0.0
C744 C 0.27414 0.88078 0.10868 0.0
C745 C 0.25659 0.88016 0.04281 0.0
C746 C 0.26691 0.89213 0.10371 0.0
N747 N 0.25836 0.89159 0.07115 0.0
C748 C 0.25727 0.81921 0.0124 0.0
C749 C 0.27983 0.84146 0.97324 0.0
C750 C 0.2467 0.81016 0.98123 0.0
N751 N 0.27372 0.83427 0.00776 0.0
C752 C 0.26963 0.83303 0.9414 0.0
C753 C 0.25295 0.81695 0.94503 0.0
H754 H 0.25247 0.81408 0.04025 0.0
H755 H 0.29266 0.85379 0.97037 0.0
C756 C 0.32563 0.91419 0.09352 0.0
N757 N 0.31356 0.901 0.07046 0.0
C758 C 0.33292 0.93238 0.08369 0.0
C759 C 0.31466 0.92298 0.02745 0.0
C760 C 0.30796 0.90503 0.03805 0.0
C761 C 0.32759 0.93691 0.05 0.0
H762 H 0.33015 0.91058 0.1187 0.0
H763 H 0.29886 0.89425 0.01961 0.0
O764 O 0.29557 0.83237 0.08552 0.0
O765 O 0.3184 0.87081 0.11941 0.0
O766 O 0.31251 0.86652 0.0344 0.0
O767 O 0.27983 0.85802 0.08394 0.0
H768 H 0.26609 0.80805 0.12106 0.0
H769 H 0.29976 0.8173 0.02425 0.0
H770 H 0.24621 0.77651 0.09971 0.0
H771 H 0.27926 0.7856 0.00459 0.0
H772 H 0.31332 0.88535 0.23954 0.0
H773 H 0.33671 0.8571 0.15201 0.0
H774 H 0.30753 0.88537 0.17131 0.0
H775 H 0.34209 0.85767 0.22054 0.0
H776 H 0.35242 0.82378 0.04767 0.0
H777 H 0.38409 0.882 0.05824 0.0
H778 H 0.24234 0.83102 0.20934 0.0
H779 H 0.28089 0.81376 0.23484 0.0
H780 H 0.34045 0.8998 0.02857 0.0
H781 H 0.31768 0.84512 0.98864 0.0
H782 H 0.36704 0.9087 0.98753 0.0
H783 H 0.34477 0.85495 0.94856 0.0
H784 H 0.26232 0.85957 0.02408 0.0
H785 H 0.281 0.88123 0.13451 0.0
H786 H 0.24972 0.88006 0.01725 0.0
H787 H 0.2681 0.90138 0.12572 0.0
H788 H 0.23397 0.79779 0.98548 0.0
H789 H 0.27476 0.83908 0.91423 0.0
H790 H 0.34288 0.94278 0.10178 0.0
H791 H 0.31046 0.92592 0.00097 0.0
Li792 Li 0.46412 0.31946 0.41371 0.0
Li793 Li 0.4443 0.2925 0.45185 0.0
Li794 Li 0.44337 0.29099 0.38474 0.0
Li795 Li 0.43149 0.30737 0.41595 0.0
C796 C 0.47471 0.29176 0.39664 0.0
N797 N 0.49522 0.28198 0.35308 0.0
C798 C 0.47494 0.27583 0.40433 0.0
C799 C 0.48498 0.30274 0.36686 0.0
C800 C 0.48538 0.27111 0.38196 0.0
C801 C 0.49524 0.29757 0.34516 0.0
C802 C 0.46019 0.32648 0.4879 0.0
C803 C 0.4689 0.34674 0.54076 0.0
N804 N 0.48278 0.34366 0.54797 0.0
C805 C 0.47456 0.32353 0.4958 0.0
C806 C 0.45734 0.33819 0.51049 0.0
C807 C 0.48581 0.33234 0.52631 0.0
C808 C 0.48645 0.35506 0.39096 0.0
N809 N 0.48678 0.34099 0.40791 0.0
C810 C 0.51909 0.35694 0.40707 0.0
C811 C 0.50263 0.34176 0.41678 0.0
C812 C 0.51917 0.37143 0.38816 0.0
C813 C 0.50255 0.37049 0.38078 0.0
H814 H 0.47361 0.35403 0.38425 0.0
H815 H 0.5025 0.33032 0.43015 0.0
C816 C 0.44069 0.26217 0.48874 0.0
N817 N 0.44221 0.27852 0.49563 0.0
C818 C 0.43965 0.25097 0.51828 0.0
C819 C 0.4409 0.27324 0.56176 0.0
C820 C 0.44197 0.28406 0.53128 0.0
C821 C 0.43991 0.2565 0.55549 0.0
H822 H 0.4403 0.25785 0.46012 0.0
H823 H 0.44255 0.29682 0.5362 0.0
C824 C 0.43807 0.31501 0.34065 0.0
N825 N 0.41868 0.31501 0.27861 0.0
C826 C 0.42131 0.29986 0.33245 0.0
C827 C 0.44498 0.33013 0.3172 0.0
C828 C 0.41171 0.30013 0.301 0.0
C829 C 0.43497 0.32987 0.28599 0.0
C830 C 0.40754 0.27303 0.44203 0.0
C831 C 0.39332 0.25569 0.43395 0.0
C832 C 0.40647 0.28221 0.4735 0.0
C833 C 0.37823 0.24781 0.45749 0.0
C834 C 0.39116 0.27386 0.49637 0.0
N835 N 0.37747 0.25698 0.48796 0.0
C836 C 0.42968 0.25822 0.34384 0.0
C837 C 0.45031 0.28479 0.31107 0.0
C838 C 0.42768 0.24764 0.31235 0.0
N839 N 0.44085 0.27642 0.34252 0.0
C840 C 0.44888 0.27477 0.2792 0.0
C841 C 0.43736 0.25593 0.27941 0.0
H842 H 0.42226 0.25198 0.36926 0.0
H843 H 0.45904 0.29931 0.31078 0.0
C844 C 0.42042 0.33307 0.41373 0.0
N845 N 0.41407 0.31501 0.41113 0.0
C846 C 0.40954 0.34025 0.40309 0.0
C847 C 0.38558 0.31002 0.38843 0.0
C848 C 0.3969 0.30342 0.39945 0.0
C849 C 0.39201 0.32872 0.38935 0.0
H850 H 0.43427 0.342 0.42223 0.0
H851 H 0.3923 0.28917 0.39672 0.0
O852 O 0.46435 0.29649 0.41789 0.0
O853 O 0.44899 0.31815 0.45809 0.0
O854 O 0.44765 0.3152 0.37161 0.0
O855 O 0.4224 0.28078 0.41916 0.0
H856 H 0.46721 0.2672 0.42734 0.0
H857 H 0.48473 0.31495 0.36 0.0
H858 H 0.48565 0.25881 0.38759 0.0
H859 H 0.50314 0.30589 0.32188 0.0
H860 H 0.46684 0.35582 0.5585 0.0
H861 H 0.47695 0.31447 0.47883 0.0
H862 H 0.4463 0.34063 0.50467 0.0
H863 H 0.49695 0.33016 0.53279 0.0
H864 H 0.5316 0.35722 0.41377 0.0
H865 H 0.50195 0.38124 0.36598 0.0
H866 H 0.43896 0.23824 0.51195 0.0
H867 H 0.44072 0.27789 0.58991 0.0
H868 H 0.4157 0.28804 0.35026 0.0
H869 H 0.45795 0.34195 0.32305 0.0
H870 H 0.3987 0.28853 0.29442 0.0
H871 H 0.44015 0.34149 0.26763 0.0
H872 H 0.39395 0.24841 0.40969 0.0
H873 H 0.41728 0.29563 0.4803 0.0
H874 H 0.36712 0.2344 0.45156 0.0
H875 H 0.39015 0.28081 0.5208 0.0
H876 H 0.41849 0.23319 0.31367 0.0
H877 H 0.45688 0.28172 0.25478 0.0
H878 H 0.41514 0.35476 0.40378 0.0
H879 H 0.37212 0.30065 0.37828 0.0
Li880 Li 0.14444 0.46356 0.74421 0.0
Li881 Li 0.15196 0.44244 0.78346 0.0
Li882 Li 0.15152 0.44148 0.71376 0.0
Li883 Li 0.1242 0.4313 0.74789 0.0
C884 C 0.18328 0.46983 0.72786 0.0
N885 N 0.21466 0.48328 0.68614 0.0
C886 C 0.19743 0.46733 0.74002 0.0
C887 C 0.18512 0.47927 0.69461 0.0
C888 C 0.21319 0.47423 0.71851 0.0
C889 C 0.20107 0.48593 0.67387 0.0
C890 C 0.1177 0.44299 0.81268 0.0
C891 C 0.09561 0.42044 0.85406 0.0
N892 N 0.08716 0.43031 0.85687 0.0
C893 C 0.10893 0.45303 0.81631 0.0
C894 C 0.11112 0.42667 0.832 0.0
C895 C 0.09346 0.44635 0.83866 0.0
C896 C 0.1313 0.48742 0.73306 0.0
N897 N 0.14666 0.4867 0.7387 0.0
C898 C 0.16489 0.51831 0.72614 0.0
C899 C 0.16326 0.50177 0.73638 0.0
C900 C 0.14927 0.51932 0.71856 0.0
C901 C 0.13229 0.5037 0.72303 0.0
H902 H 0.11829 0.4752 0.73498 0.0
H903 H 0.17526 0.50083 0.74123 0.0
C904 C 0.17491 0.43315 0.82135 0.0
N905 N 0.16414 0.4405 0.82632 0.0
C906 C 0.18504 0.43228 0.85118 0.0
C907 C 0.17237 0.44602 0.89107 0.0
C908 C 0.16256 0.44675 0.86034 0.0
C909 C 0.18397 0.43891 0.88657 0.0
H910 H 0.1758 0.4282 0.79398 0.0
H911 H 0.15389 0.45254 0.86345 0.0
C912 C 0.1188 0.4386 0.67666 0.0
N913 N 0.09044 0.42088 0.62691 0.0
C914 C 0.11457 0.4217 0.66235 0.0
C915 C 0.10878 0.44661 0.6652 0.0
C916 C 0.10014 0.41292 0.63736 0.0
C917 C 0.09445 0.4374 0.64013 0.0
C918 C 0.13488 0.40359 0.75296 0.0
C919 C 0.13304 0.39323 0.72116 0.0
C920 C 0.13088 0.39544 0.78831 0.0
C921 C 0.12674 0.37476 0.72519 0.0
C922 C 0.12463 0.37692 0.79116 0.0
N923 N 0.12267 0.36705 0.7598 0.0
C924 C 0.17483 0.43208 0.67608 0.0
C925 C 0.16005 0.44322 0.63724 0.0
C926 C 0.18436 0.43093 0.64538 0.0
N927 N 0.16309 0.4383 0.67147 0.0
C928 C 0.16904 0.44203 0.60576 0.0
C929 C 0.18159 0.43604 0.60958 0.0
H930 H 0.1771 0.42844 0.70379 0.0
H931 H 0.15085 0.44839 0.63446 0.0
C932 C 0.08838 0.42288 0.74194 0.0
N933 N 0.0985 0.4147 0.74473 0.0
C934 C 0.07038 0.41313 0.73054 0.0
C935 C 0.07305 0.38633 0.7269 0.0
C936 C 0.09107 0.39664 0.73847 0.0
C937 C 0.06266 0.39473 0.72158 0.0
H938 H 0.09467 0.43732 0.74596 0.0
H939 H 0.0993 0.39037 0.7401 0.0
O940 O 0.16751 0.46267 0.74784 0.0
O941 O 0.13275 0.44921 0.79061 0.0
O942 O 0.13245 0.44706 0.70234 0.0
O943 O 0.14116 0.42172 0.74957 0.0
H944 H 0.19624 0.46006 0.76566 0.0
H945 H 0.17419 0.48111 0.68456 0.0
H946 H 0.22423 0.47234 0.72751 0.0
H947 H 0.20261 0.49311 0.64792 0.0
H948 H 0.09029 0.40775 0.86895 0.0
H949 H 0.11398 0.46581 0.80193 0.0
H950 H 0.11785 0.41885 0.82977 0.0
H951 H 0.08647 0.45391 0.84153 0.0
H952 H 0.17823 0.53011 0.72348 0.0
H953 H 0.11992 0.50385 0.71717 0.0
H954 H 0.19363 0.42648 0.84659 0.0
H955 H 0.17124 0.45138 0.91781 0.0
H956 H 0.12217 0.41532 0.67094 0.0
H957 H 0.11192 0.45973 0.6757 0.0
H958 H 0.09661 0.39975 0.62641 0.0
H959 H 0.08648 0.44338 0.63127 0.0
H960 H 0.13646 0.39939 0.69367 0.0
H961 H 0.13272 0.40332 0.81331 0.0
H962 H 0.12514 0.36656 0.7008 0.0
H963 H 0.1214 0.37042 0.81832 0.0
H964 H 0.1941 0.42652 0.64986 0.0
H965 H 0.16621 0.44583 0.57873 0.0
H966 H 0.0628 0.42011 0.72732 0.0
H967 H 0.06766 0.37219 0.72009 0.0
Li968 Li 0.70824 0.15046 0.11791 0.0
Li969 Li 0.68402 0.14671 0.07619 0.0
Li970 Li 0.69609 0.12564 0.07596 0.0
Li971 Li 0.71429 0.15607 0.0508 0.0
C972 C 0.6779 0.12915 0.1531 0.0
N973 N 0.66894 0.12838 0.22775 0.0
C974 C 0.66871 0.13797 0.16495 0.0
C975 C 0.68234 0.11976 0.1791 0.0
C976 C 0.66434 0.13746 0.20284 0.0
C977 C 0.67776 0.11959 0.21676 0.0
C978 C 0.7206 0.18604 0.09642 0.0
C979 C 0.73131 0.21702 0.11418 0.0
N980 N 0.7483 0.21964 0.1181 0.0
C981 C 0.73819 0.18905 0.10066 0.0
C982 C 0.71712 0.20012 0.10333 0.0
C983 C 0.752 0.20612 0.11164 0.0
C984 C 0.73422 0.15904 0.17543 0.0
N985 N 0.71929 0.15994 0.1657 0.0
C986 C 0.72322 0.17875 0.2187 0.0
C987 C 0.71363 0.16948 0.18666 0.0
C988 C 0.73899 0.17849 0.22877 0.0
C989 C 0.74432 0.16827 0.20697 0.0
H990 H 0.73874 0.15178 0.15787 0.0
H991 H 0.70211 0.17054 0.17761 0.0
C992 C 0.64953 0.13395 0.04714 0.0
N993 N 0.66284 0.14806 0.06641 0.0
C994 C 0.63446 0.13471 0.03454 0.0
C995 C 0.64665 0.16415 0.06337 0.0
C996 C 0.66164 0.16292 0.07504 0.0
C997 C 0.633 0.15004 0.04222 0.0
H998 H 0.6509 0.12233 0.0406 0.0
H999 H 0.6725 0.17397 0.09021 0.0
C1000 C 0.72947 0.13211 0.08585 0.0
N1001 N 0.74357 0.10921 0.08675 0.0
C1002 C 0.74195 0.13374 0.05859 0.0
C1003 C 0.72439 0.11905 0.11393 0.0
C1004 C 0.74887 0.12198 0.05944 0.0
C1005 C 0.7316 0.10753 0.1138 0.0
C1006 C 0.68658 0.14101 0.99903 0.0
C1007 C 0.68055 0.12847 0.96978 0.0
C1008 C 0.6884 0.15804 0.99334 0.0
C1009 C 0.67635 0.13315 0.93523 0.0
C1010 C 0.68406 0.1622 0.95839 0.0
N1011 N 0.67817 0.14977 0.9303 0.0
C1012 C 0.67451 0.08763 0.08355 0.0
C1013 C 0.69683 0.09758 0.03598 0.0
C1014 C 0.66739 0.06967 0.07218 0.0
N1015 N 0.68883 0.10112 0.06513 0.0
C1016 C 0.69037 0.07981 0.0241 0.0
C1017 C 0.67516 0.06555 0.04165 0.0
H1018 H 0.66817 0.0909 0.10611 0.0
H1019 H 0.70793 0.10861 0.02126 0.0
C1020 C 0.73673 0.18721 0.00556 0.0
N1021 N 0.72988 0.16914 0.0102 0.0
C1022 C 0.74684 0.19591 0.97374 0.0
C1023 C 0.74222 0.16719 0.95137 0.0
C1024 C 0.73236 0.15908 0.98385 0.0
C1025 C 0.74956 0.18586 0.94589 0.0
H1026 H 0.73402 0.19488 0.02592 0.0
H1027 H 0.7262 0.14462 0.98764 0.0
O1028 O 0.68251 0.12972 0.11622 0.0
O1029 O 0.70673 0.16927 0.08688 0.0
O1030 O 0.72239 0.14338 0.08526 0.0
O1031 O 0.69086 0.13665 0.03294 0.0
H1032 H 0.66515 0.14529 0.14519 0.0
H1033 H 0.68926 0.11269 0.17033 0.0
H1034 H 0.65733 0.14433 0.21246 0.0
H1035 H 0.6812 0.11245 0.23723 0.0
H1036 H 0.72881 0.22804 0.11959 0.0
H1037 H 0.74117 0.17833 0.09558 0.0
H1038 H 0.70359 0.19802 0.10045 0.0
H1039 H 0.76565 0.20862 0.11506 0.0
H1040 H 0.71881 0.1867 0.23443 0.0
H1041 H 0.75638 0.16769 0.21386 0.0
H1042 H 0.62411 0.12346 0.01872 0.0
H1043 H 0.64602 0.17622 0.06971 0.0
H1044 H 0.7463 0.14399 0.03708 0.0
H1045 H 0.71488 0.11773 0.13539 0.0
H1046 H 0.75847 0.12302 0.03841 0.0
H1047 H 0.72767 0.09726 0.1352 0.0
H1048 H 0.67915 0.11526 0.97377 0.0
H1049 H 0.69316 0.16796 0.01564 0.0
H1050 H 0.67165 0.12357 0.91232 0.0
H1051 H 0.68539 0.17532 0.95357 0.0
H1052 H 0.65548 0.05927 0.08622 0.0
H1053 H 0.69704 0.07737 0.0009 0.0
H1054 H 0.75233 0.21035 0.97089 0.0
H1055 H 0.74361 0.15884 0.93033 0.0
C1056 C 0.32598 0.36414 0.31657 0.0
C1057 C 0.33564 0.37937 0.29357 0.0
C1058 C 0.33428 0.35492 0.33171 0.0
C1059 C 0.35268 0.36102 0.32361 0.0
C1060 C 0.36235 0.37603 0.29951 0.0
C1061 C 0.35373 0.38503 0.28483 0.0
C1062 C 0.32348 0.3389 0.3571 0.0
C1063 C 0.38198 0.38294 0.29013 0.0
C1064 C 0.38044 0.35055 0.39183 0.0
C1065 C 0.38105 0.3363 0.37369 0.0
C1066 C 0.37101 0.35852 0.37611 0.0
C1067 C 0.36202 0.35213 0.34134 0.0
C1068 C 0.36235 0.33756 0.32318 0.0
C1069 C 0.37185 0.32982 0.33956 0.0
C1070 C 0.37089 0.37396 0.39647 0.0
C1071 C 0.353 0.33041 0.28602 0.0
H1072 H 0.31194 0.35954 0.32306 0.0
H1073 H 0.36137 0.39691 0.26753 0.0
H1074 H 0.32393 0.32692 0.34653 0.0
H1075 H 0.32953 0.34189 0.38557 0.0
H1076 H 0.30912 0.33541 0.35941 0.0
H1077 H 0.38731 0.39417 0.26946 0.0
H1078 H 0.39026 0.38783 0.316 0.0
H1079 H 0.38371 0.37184 0.27861 0.0
H1080 H 0.38737 0.3555 0.41837 0.0
H1081 H 0.3725 0.31901 0.32506 0.0
H1082 H 0.35677 0.37069 0.40171 0.0
H1083 H 0.37737 0.3863 0.37881 0.0
H1084 H 0.37815 0.37702 0.42371 0.0
H1085 H 0.33852 0.32645 0.28821 0.0
H1086 H 0.35392 0.31854 0.27626 0.0
H1087 H 0.35917 0.34118 0.26445 0.0
C1088 C 0.96891 0.33958 0.60797 0.0
C1089 C 0.95573 0.34237 0.62522 0.0
C1090 C 0.98641 0.34705 0.62314 0.0
C1091 C 0.99081 0.35755 0.6563 0.0
C1092 C 0.97747 0.36012 0.67416 0.0
C1093 C 0.96012 0.35247 0.6585 0.0
C1094 C 1.00028 0.344 0.60333 0.0
C1095 C 0.98159 0.37119 0.70959 0.0
C1096 C 0.03187 0.36707 0.7151 0.0
C1097 C 0.04437 0.38482 0.7043 0.0
C1098 C 0.0145 0.35783 0.6991 0.0
C1099 C 0.00955 0.36655 0.67163 0.0
C1100 C 0.02226 0.38431 0.66007 0.0
C1101 C 0.03949 0.3932 0.67646 0.0
C1102 C 0.00132 0.33888 0.71211 0.0
C1103 C 0.01755 0.39408 0.63082 0.0
H1104 H 0.96565 0.33185 0.5822 0.0
H1105 H 0.94991 0.35434 0.67252 0.0
H1106 H 0.01159 0.35711 0.59339 0.0
H1107 H 0.00607 0.33819 0.62305 0.0
H1108 H 0.99448 0.33479 0.5789 0.0
H1109 H 0.96956 0.37146 0.7206 0.0
H1110 H 0.98664 0.36564 0.7316 0.0
H1111 H 0.99243 0.38529 0.70409 0.0
H1112 H 0.03554 0.36053 0.73663 0.0
H1113 H 0.04923 0.40675 0.66729 0.0
H1114 H 0.99604 0.32959 0.68774 0.0
H1115 H 0.98959 0.33867 0.72596 0.0
H1116 H 0.00757 0.33364 0.73214 0.0
H1117 H 0.01289 0.38594 0.60475 0.0
H1118 H 0.02919 0.4076 0.62391 0.0
H1119 H 0.00626 0.39586 0.64103 0.0
C1120 C 0.6113 0.96686 0.95934 0.0
C1121 C 0.61967 0.95639 0.95622 0.0
C1122 C 0.62081 0.98463 0.97304 0.0
C1123 C 0.63923 0.99222 0.98319 0.0
C1124 C 0.64788 0.98183 0.97922 0.0
C1125 C 0.63792 0.96395 0.96616 0.0
C1126 C 0.61101 0.99514 0.97746 0.0
C1127 C 0.66759 0.98957 0.98898 0.0
C1128 C 0.66644 0.04351 0.98817 0.0
C1129 C 0.66685 0.04668 0.02692 0.0
C1130 C 0.65798 0.02587 0.97367 0.0
C1131 C 0.64935 0.01097 0.99836 0.0
C1132 C 0.64982 0.014 0.03747 0.0
C1133 C 0.65871 0.03179 0.05129 0.0
C1134 C 0.65799 0.0232 0.93182 0.0
C1135 C 0.64061 0.99845 0.06471 0.0
H1136 H 0.59711 0.96092 0.95216 0.0
H1137 H 0.6444 0.95585 0.96362 0.0
H1138 H 0.61136 0.99904 0.00725 0.0
H1139 H 0.6179 0.00781 0.96087 0.0
H1140 H 0.59668 0.98728 0.96829 0.0
H1141 H 0.67247 0.97997 0.98291 0.0
H1142 H 0.67596 0.00221 0.97294 0.0
H1143 H 0.66975 0.99313 0.01917 0.0
H1144 H 0.67233 0.05482 0.96889 0.0
H1145 H 0.65919 0.034 0.08127 0.0
H1146 H 0.64396 0.01689 0.92092 0.0
H1147 H 0.66313 0.01387 0.92534 0.0
H1148 H 0.66641 0.03613 0.91668 0.0
H1149 H 0.62592 0.99055 0.05841 0.0
H1150 H 0.64236 0.00308 0.09431 0.0
H1151 H 0.64607 0.98916 0.06159 0.0
C1152 C 0.66687 0.63376 0.29027 0.0
C1153 C 0.66418 0.61802 0.30844 0.0
C1154 C 0.65906 0.6437 0.3042 0.0
C1155 C 0.64817 0.63766 0.33684 0.0
C1156 C 0.64583 0.6221 0.35587 0.0
C1157 C 0.65398 0.6126 0.34166 0.0
C1158 C 0.66205 0.66037 0.28341 0.0
C1159 C 0.63424 0.61514 0.39063 0.0
C1160 C 0.63533 0.66792 0.39143 0.0
C1161 C 0.61778 0.66205 0.37808 0.0
C1162 C 0.64564 0.66053 0.37746 0.0
C1163 C 0.63816 0.64679 0.34983 0.0
C1164 C 0.6206 0.64103 0.33585 0.0
C1165 C 0.61072 0.64882 0.34985 0.0
C1166 C 0.66442 0.66718 0.39273 0.0
C1167 C 0.61205 0.62633 0.30658 0.0
H1168 H 0.67467 0.63804 0.26456 0.0
H1169 H 0.65223 0.60077 0.35655 0.0
H1170 H 0.64911 0.65793 0.27098 0.0
H1171 H 0.66666 0.67193 0.30305 0.0
H1172 H 0.67218 0.66421 0.2606 0.0
H1173 H 0.63435 0.60324 0.40292 0.0
H1174 H 0.63901 0.62592 0.41217 0.0
H1175 H 0.62007 0.61121 0.3837 0.0
H1176 H 0.64089 0.67806 0.41332 0.0
H1177 H 0.5974 0.64453 0.33851 0.0
H1178 H 0.67429 0.67124 0.3694 0.0
H1179 H 0.66481 0.6561 0.40816 0.0
H1180 H 0.66879 0.67885 0.41201 0.0
H1181 H 0.62075 0.63013 0.28129 0.0
H1182 H 0.5984 0.62363 0.2981 0.0
H1183 H 0.61082 0.61361 0.31762 0.0
C1184 C 0.96127 0.60624 0.6809 0.0
C1185 C 0.9571 0.61382 0.71155 0.0
C1186 C 0.97839 0.61519 0.66399 0.0
C1187 C 0.99169 0.63226 0.67777 0.0
C1188 C 0.98753 0.64017 0.70827 0.0
C1189 C 0.97029 0.63084 0.72485 0.0
C1190 C 0.98228 0.60627 0.63156 0.0
C1191 C 0.00137 0.65837 0.72369 0.0
C1192 C 0.04057 0.64574 0.65855 0.0
C1193 C 0.04473 0.65716 0.62732 0.0
C1194 C 0.02347 0.63778 0.67549 0.0
C1195 C 0.01017 0.64141 0.66111 0.0
C1196 C 0.01434 0.65319 0.63004 0.0
C1197 C 0.03157 0.66092 0.61349 0.0
C1198 C 0.01959 0.62531 0.70856 0.0
C1199 C 0.00051 0.6574 0.61397 0.0
H1200 H 0.95105 0.59331 0.66979 0.0
H1201 H 0.96723 0.63677 0.74859 0.0
H1202 H 0.98662 0.61529 0.60672 0.0
H1203 H 0.99356 0.60391 0.63896 0.0
H1204 H 0.97033 0.59312 0.62371 0.0
H1205 H 0.99577 0.66302 0.74643 0.0
H1206 H 0.01312 0.65766 0.73489 0.0
H1207 H 0.00648 0.66862 0.70098 0.0
H1208 H 0.05078 0.6431 0.67003 0.0
H1209 H 0.03465 0.66966 0.58931 0.0
H1210 H 0.00834 0.6116 0.7016 0.0
H1211 H 0.01521 0.63022 0.73297 0.0
H1212 H 0.03155 0.62422 0.71688 0.0
H1213 H 0.98877 0.64484 0.6031 0.0
H1214 H 0.00611 0.66744 0.59085 0.0
H1215 H 0.99537 0.66274 0.63624 0.0
C1216 C 0.32608 0.96319 0.02276 0.0
C1217 C 0.33643 0.95592 0.03684 0.0
C1218 C 0.33441 0.98089 0.00853 0.0
C1219 C 0.35352 0.99143 0.00781 0.0
C1220 C 0.36401 0.98412 0.02198 0.0
C1221 C 0.35533 0.9665 0.03657 0.0
C1222 C 0.32277 0.98833 0.9943 0.0
C1223 C 0.38443 0.99483 0.02132 0.0
C1224 C 0.37724 0.03136 0.94115 0.0
C1225 C 0.38285 0.04597 0.9658 0.0
C1226 C 0.3673 0.01347 0.95426 0.0
C1227 C 0.36267 0.0102 0.99276 0.0
C1228 C 0.36767 0.02495 0.01737 0.0
C1229 C 0.37782 0.04265 0.00364 0.0
C1230 C 0.36239 0.9981 0.92724 0.0
C1231 C 0.36273 0.02206 0.05844 0.0
H1232 H 0.31145 0.95503 0.02309 0.0
H1233 H 0.36336 0.9608 0.04688 0.0
H1234 H 0.32595 0.00082 0.00988 0.0
H1235 H 0.32575 0.99207 0.96431 0.0
H1236 H 0.3081 0.97849 0.99729 0.0
H1237 H 0.39059 0.98706 0.03279 0.0
H1238 H 0.38926 0.9989 0.99213 0.0
H1239 H 0.38934 0.0074 0.03795 0.0
H1240 H 0.38123 0.03394 0.91194 0.0
H1241 H 0.38202 0.05398 0.02262 0.0
H1242 H 0.34764 0.98837 0.92834 0.0
H1243 H 0.36939 0.99064 0.93548 0.0
H1244 H 0.36617 0.00287 0.8979 0.0
H1245 H 0.34799 0.01269 0.06179 0.0
H1246 H 0.36643 0.03491 0.07317 0.0
H1247 H 0.3698 0.0157 0.0723 0.0
C1248 C 0.18781 0.43333 0.95424 0.0
C1249 C 0.19524 0.43878 0.91829 0.0
C1250 C 0.19838 0.43324 0.98437 0.0
C1251 C 0.21687 0.4389 0.97853 0.0
C1252 C 0.22445 0.44444 0.94231 0.0
C1253 C 0.21354 0.44425 0.91264 0.0
C1254 C 0.18975 0.42708 0.02248 0.0
C1255 C 0.24415 0.45077 0.93498 0.0
C1256 C 0.24836 0.45512 0.0629 0.0
C1257 C 0.2503 0.44007 0.07082 0.0
C1258 C 0.2376 0.45495 0.03291 0.0
C1259 C 0.22838 0.43927 0.01038 0.0
C1260 C 0.23021 0.42401 0.01821 0.0
C1261 C 0.24119 0.42462 0.04818 0.0
C1262 C 0.23607 0.47153 0.02542 0.0
C1263 C 0.22055 0.40702 0.99491 0.0
H1264 H 0.17364 0.42891 0.9587 0.0
H1265 H 0.21943 0.44871 0.88505 0.0
H1266 H 0.19124 0.41556 0.03229 0.0
H1267 H 0.19672 0.43816 0.04314 0.0
H1268 H 0.17514 0.42283 0.02226 0.0
H1269 H 0.24792 0.45449 0.90516 0.0
H1270 H 0.25278 0.46269 0.95273 0.0
H1271 H 0.2472 0.43999 0.94267 0.0
H1272 H 0.25502 0.46701 0.08056 0.0
H1273 H 0.24276 0.413 0.05368 0.0
H1274 H 0.22175 0.46812 0.02792 0.0
H1275 H 0.24047 0.47636 0.99636 0.0
H1276 H 0.24436 0.48275 0.04511 0.0
H1277 H 0.20576 0.4018 0.99548 0.0
H1278 H 0.22315 0.39622 0.00499 0.0
H1279 H 0.22496 0.41008 0.96526 0.0
C1280 C 0.79717 0.25173 0.38573 0.0
C1281 C 0.80556 0.24549 0.4107 0.0
C1282 C 0.78637 0.24089 0.35605 0.0
C1283 C 0.78363 0.22323 0.35143 0.0
C1284 C 0.79197 0.21679 0.37652 0.0
C1285 C 0.80294 0.22802 0.4056 0.0
C1286 C 0.77785 0.24833 0.32968 0.0
C1287 C 0.7893 0.19799 0.37269 0.0
C1288 C 0.74257 0.18955 0.29515 0.0
C1289 C 0.75038 0.18963 0.26053 0.0
C1290 C 0.75324 0.20026 0.32512 0.0
C1291 C 0.77214 0.21154 0.32013 0.0
C1292 C 0.78007 0.21174 0.28514 0.0
C1293 C 0.76911 0.20071 0.25586 0.0
C1294 C 0.74431 0.19948 0.36214 0.0
C1295 C 0.8001 0.22377 0.27847 0.0
H1296 H 0.79878 0.26504 0.38967 0.0
H1297 H 0.80956 0.22311 0.42422 0.0
H1298 H 0.78204 0.24791 0.30042 0.0
H1299 H 0.7629 0.23983 0.33079 0.0
H1300 H 0.78165 0.26248 0.33654 0.0
H1301 H 0.79635 0.19484 0.39507 0.0
H1302 H 0.77466 0.18783 0.3738 0.0
H1303 H 0.79441 0.19654 0.34509 0.0
H1304 H 0.72811 0.18092 0.29891 0.0
H1305 H 0.77517 0.20102 0.22896 0.0
H1306 H 0.74651 0.21306 0.36942 0.0
H1307 H 0.75051 0.19545 0.38474 0.0
H1308 H 0.72953 0.18977 0.36166 0.0
H1309 H 0.80399 0.23811 0.28313 0.0
H1310 H 0.80415 0.22238 0.24962 0.0
H1311 H 0.80787 0.22046 0.29875 0.0
C1312 C 0.56767 0.79826 0.74607 0.0
C1313 C 0.55976 0.80915 0.74197 0.0
C1314 C 0.56788 0.7876 0.7163 0.0
C1315 C 0.56013 0.78793 0.68142 0.0
C1316 C 0.55229 0.79904 0.67697 0.0
C1317 C 0.55212 0.80943 0.70735 0.0
C1318 C 0.57618 0.77579 0.72234 0.0
C1319 C 0.54407 0.79992 0.64012 0.0
C1320 C 0.5745 0.77236 0.59459 0.0
C1321 C 0.55982 0.75481 0.58934 0.0
C1322 C 0.57475 0.78329 0.62429 0.0
C1323 C 0.56005 0.7765 0.6497 0.0
C1324 C 0.54528 0.75876 0.64485 0.0
C1325 C 0.5453 0.74819 0.61468 0.0
C1326 C 0.59074 0.80215 0.62843 0.0
C1327 C 0.52939 0.75098 0.67144 0.0
H1328 H 0.57338 0.79779 0.7729 0.0
H1329 H 0.54613 0.81794 0.70392 0.0
H1330 H 0.56585 0.76141 0.71763 0.0
H1331 H 0.5872 0.77931 0.70178 0.0
H1332 H 0.58177 0.77719 0.75105 0.0
H1333 H 0.53881 0.80947 0.64104 0.0
H1334 H 0.55432 0.80422 0.61749 0.0
H1335 H 0.53281 0.78632 0.63256 0.0
H1336 H 0.58592 0.77754 0.57561 0.0
H1337 H 0.53374 0.7348 0.61063 0.0
H1338 H 0.59733 0.80355 0.65599 0.0
H1339 H 0.58611 0.81219 0.62766 0.0
H1340 H 0.60097 0.80552 0.60601 0.0
H1341 H 0.53411 0.75127 0.70054 0.0
H1342 H 0.51914 0.73682 0.66428 0.0
H1343 H 0.52278 0.75933 0.67092 0.0
C1344 C 0.76754 0.57439 0.06957 0.0
C1345 C 0.75112 0.55883 0.07851 0.0
C1346 C 0.77819 0.57451 0.03943 0.0
C1347 C 0.77232 0.55867 0.01768 0.0
C1348 C 0.75565 0.54299 0.02625 0.0
C1349 C 0.74523 0.54327 0.05649 0.0
C1350 C 0.79578 0.59156 0.03102 0.0
C1351 C 0.74896 0.52581 0.00384 0.0
C1352 C 0.79242 0.56355 0.92025 0.0
C1353 C 0.80577 0.55883 0.9265 0.0
C1354 C 0.78141 0.56349 0.94957 0.0
C1355 C 0.78372 0.55852 0.98613 0.0
C1356 C 0.79708 0.55361 0.99264 0.0
C1357 C 0.80794 0.55384 0.96279 0.0
C1358 C 0.76731 0.56877 0.94143 0.0
C1359 C 0.79998 0.54824 0.03123 0.0
H1360 H 0.77206 0.58653 0.08616 0.0
H1361 H 0.73268 0.53113 0.06349 0.0
H1362 H 0.80721 0.58891 0.03343 0.0
H1363 H 0.79571 0.59596 0.0018 0.0
H1364 H 0.7983 0.60281 0.05028 0.0
H1365 H 0.73556 0.51489 0.01362 0.0
H1366 H 0.7479 0.52847 0.97377 0.0
H1367 H 0.7588 0.52095 0.00592 0.0
H1368 H 0.7904 0.56711 0.89221 0.0
H1369 H 0.81833 0.55036 0.96801 0.0
H1370 H 0.76984 0.58056 0.95888 0.0
H1371 H 0.75369 0.5575 0.94893 0.0
H1372 H 0.76721 0.57228 0.91148 0.0
H1373 H 0.80386 0.5596 0.05109 0.0
H1374 H 0.81067 0.54445 0.03151 0.0
H1375 H 0.78721 0.53663 0.04172 0.0
C1376 C 0.19693 0.77302 0.4058 0.0
C1377 C 0.19447 0.75565 0.41131 0.0
C1378 C 0.20763 0.78409 0.37625 0.0
C1379 C 0.21596 0.77759 0.35124 0.0
C1380 C 0.21343 0.76003 0.35637 0.0
C1381 C 0.20282 0.74934 0.3864 0.0
C1382 C 0.21006 0.80276 0.37183 0.0
C1383 C 0.22199 0.75256 0.3302 0.0
C1384 C 0.23008 0.79918 0.25471 0.0
C1385 C 0.24883 0.81037 0.25902 0.0
C1386 C 0.21924 0.78849 0.28448 0.0
C1387 C 0.22728 0.78912 0.31958 0.0
C1388 C 0.24617 0.80057 0.32424 0.0
C1389 C 0.25673 0.81097 0.29385 0.0
C1390 C 0.1992 0.77631 0.2782 0.0
C1391 C 0.25523 0.80179 0.36133 0.0
H1392 H 0.19034 0.77797 0.42445 0.0
H1393 H 0.20132 0.73609 0.39067 0.0
H1394 H 0.22465 0.81306 0.37273 0.0
H1395 H 0.20484 0.80395 0.34413 0.0
H1396 H 0.20295 0.80593 0.39403 0.0
H1397 H 0.2184 0.73851 0.33755 0.0
H1398 H 0.21762 0.75268 0.30096 0.0
H1399 H 0.23692 0.76122 0.33097 0.0
H1400 H 0.22394 0.79847 0.22771 0.0
H1401 H 0.27118 0.81971 0.29741 0.0
H1402 H 0.19143 0.77961 0.29851 0.0
H1403 H 0.19545 0.76203 0.28308 0.0
H1404 H 0.195 0.77754 0.24937 0.0
H1405 H 0.24897 0.80586 0.38371 0.0
H1406 H 0.26998 0.81164 0.36062 0.0
H1407 H 0.25325 0.78834 0.36912 0.0
C1408 C 0.42705 0.19634 0.73832 0.0
C1409 C 0.43971 0.19041 0.73938 0.0
C1410 C 0.42662 0.2068 0.70838 0.0
C1411 C 0.43905 0.21136 0.67847 0.0
C1412 C 0.45162 0.20511 0.67889 0.0
C1413 C 0.45183 0.19477 0.70935 0.0
C1414 C 0.41301 0.21318 0.70901 0.0
C1415 C 0.46504 0.20961 0.64744 0.0
C1416 C 0.42838 0.22604 0.58572 0.0
C1417 C 0.43935 0.24494 0.58741 0.0
C1418 C 0.42818 0.21496 0.61505 0.0
C1419 C 0.43911 0.22293 0.64707 0.0
C1420 C 0.45007 0.24198 0.64918 0.0
C1421 C 0.4501 0.25273 0.61934 0.0
C1422 C 0.41629 0.19471 0.61173 0.0
C1423 C 0.46188 0.25101 0.6829 0.0
H1424 H 0.41741 0.19279 0.761 0.0
H1425 H 0.46181 0.19047 0.71006 0.0
H1426 H 0.42014 0.22817 0.70877 0.0
H1427 H 0.40443 0.20843 0.68353 0.0
H1428 H 0.40411 0.20827 0.73408 0.0
H1429 H 0.47348 0.2032 0.65129 0.0
H1430 H 0.45783 0.20509 0.62025 0.0
H1431 H 0.47408 0.22447 0.64568 0.0
H1432 H 0.41981 0.21988 0.56149 0.0
H1433 H 0.45881 0.26727 0.62074 0.0
H1434 H 0.40647 0.18948 0.63522 0.0
H1435 H 0.42466 0.18814 0.61374 0.0
H1436 H 0.40869 0.19062 0.58488 0.0
H1437 H 0.45347 0.24721 0.70865 0.0
H1438 H 0.46942 0.26598 0.68046 0.0
H1439 H 0.47175 0.24628 0.68647 0.0
C1440 C 0.19607 0.42165 0.57234 0.0
C1441 C 0.19198 0.43556 0.57652 0.0
C1442 C 0.206 0.42122 0.54139 0.0
C1443 C 0.21171 0.43485 0.51367 0.0
C1444 C 0.2075 0.44881 0.51749 0.0
C1445 C 0.19787 0.44911 0.54903 0.0
C1446 C 0.21048 0.40625 0.53847 0.0
C1447 C 0.21323 0.46351 0.48832 0.0
C1448 C 0.25145 0.44508 0.45056 0.0
C1449 C 0.24277 0.43584 0.41756 0.0
C1450 C 0.2415 0.44449 0.48233 0.0
C1451 C 0.22238 0.43473 0.48089 0.0
C1452 C 0.2135 0.42538 0.44778 0.0
C1453 C 0.2238 0.42591 0.41663 0.0
C1454 C 0.25145 0.45448 0.5173 0.0
C1455 C 0.19312 0.41502 0.44509 0.0
H1456 H 0.19139 0.41099 0.59311 0.0
H1457 H 0.19515 0.46014 0.55232 0.0
H1458 H 0.20471 0.39845 0.5123 0.0
H1459 H 0.22536 0.4121 0.53702 0.0
H1460 H 0.20521 0.39679 0.56263 0.0
H1461 H 0.20826 0.473 0.49476 0.0
H1462 H 0.2282 0.47134 0.4864 0.0
H1463 H 0.20804 0.45742 0.46036 0.0
H1464 H 0.26607 0.45308 0.45146 0.0
H1465 H 0.21694 0.41847 0.39157 0.0
H1466 H 0.24682 0.44516 0.54167 0.0
H1467 H 0.24842 0.46541 0.52354 0.0
H1468 H 0.26634 0.46058 0.51453 0.0
H1469 H 0.18736 0.40452 0.46724 0.0
H1470 H 0.18829 0.40839 0.41739 0.0
H1471 H 0.18775 0.42432 0.4498 0.0
C1472 C 0.81617 0.24834 0.78555 0.0
C1473 C 0.80893 0.24321 0.74939 0.0
C1474 C 0.80679 0.23808 0.81698 0.0
C1475 C 0.78981 0.22224 0.81211 0.0
C1476 C 0.78273 0.21659 0.77559 0.0
C1477 C 0.79236 0.22718 0.74463 0.0
C1478 C 0.8148 0.24454 0.85549 0.0
C1479 C 0.7647 0.1997 0.76933 0.0
C1480 C 0.77141 0.18983 0.89456 0.0
C1481 C 0.75955 0.19477 0.91095 0.0
C1482 C 0.78107 0.19837 0.86186 0.0
C1483 C 0.77898 0.2123 0.84546 0.0
C1484 C 0.76691 0.21721 0.86161 0.0
C1485 C 0.75726 0.20831 0.89397 0.0
C1486 C 0.79372 0.19268 0.84519 0.0
C1487 C 0.76436 0.23206 0.84499 0.0
H1488 H 0.82913 0.26053 0.78933 0.0
H1489 H 0.78662 0.22321 0.71679 0.0
H1490 H 0.80594 0.24801 0.87201 0.0
H1491 H 0.81555 0.23363 0.87078 0.0
H1492 H 0.82856 0.25662 0.85431 0.0
H1493 H 0.76181 0.19637 0.73911 0.0
H1494 H 0.76431 0.18804 0.78391 0.0
H1495 H 0.75375 0.20155 0.78137 0.0
H1496 H 0.77339 0.17951 0.90765 0.0
H1497 H 0.74784 0.21194 0.9059 0.0
H1498 H 0.80782 0.20413 0.84628 0.0
H1499 H 0.79035 0.18902 0.81525 0.0
H1500 H 0.79309 0.18098 0.86018 0.0
H1501 H 0.77744 0.24497 0.84493 0.0
H1502 H 0.7543 0.23411 0.86073 0.0
H1503 H 0.75984 0.22884 0.81543 0.0
C1504 C 0.55127 0.80439 0.12031 0.0
C1505 C 0.56211 0.8063 0.0891 0.0
C1506 C 0.5513 0.79479 0.15216 0.0
C1507 C 0.5622 0.78664 0.15266 0.0
C1508 C 0.5732 0.78851 0.12136 0.0
C1509 C 0.5731 0.79841 0.09003 0.0
C1510 C 0.53946 0.79318 0.18511 0.0
C1511 C 0.58489 0.77986 0.12079 0.0
C1512 C 0.57304 0.77322 0.2465 0.0
C1513 C 0.56009 0.75475 0.2482 0.0
C1514 C 0.57388 0.7838 0.2156 0.0
C1515 C 0.56163 0.77566 0.18549 0.0
C1516 C 0.5486 0.75704 0.18692 0.0
C1517 C 0.54788 0.74686 0.21836 0.0
C1518 C 0.58783 0.80368 0.2152 0.0
C1519 C 0.53537 0.74785 0.15524 0.0
H1520 H 0.54248 0.81015 0.11965 0.0
H1521 H 0.58172 0.80003 0.06632 0.0
H1522 H 0.52912 0.77879 0.18962 0.0
H1523 H 0.54772 0.79801 0.21103 0.0
H1524 H 0.53245 0.80105 0.18099 0.0
H1525 H 0.5928 0.78275 0.09444 0.0
H1526 H 0.59442 0.78479 0.1448 0.0
H1527 H 0.57631 0.76499 0.12391 0.0
H1528 H 0.58268 0.77939 0.26914 0.0
H1529 H 0.53759 0.7327 0.21968 0.0
H1530 H 0.58105 0.81182 0.21247 0.0
H1531 H 0.59685 0.80682 0.19058 0.0
H1532 H 0.59625 0.80798 0.241 0.0
H1533 H 0.52678 0.75411 0.15158 0.0
H1534 H 0.52643 0.73314 0.1602 0.0
H1535 H 0.54279 0.74972 0.12857 0.0
C1536 C 0.76368 0.58152 0.45287 0.0
C1537 C 0.7633 0.57043 0.4234 0.0
C1538 C 0.77326 0.58318 0.48601 0.0
C1539 C 0.7824 0.57329 0.48999 0.0
C1540 C 0.78229 0.5623 0.4602 0.0
C1541 C 0.7729 0.56115 0.42716 0.0
C1542 C 0.77332 0.59524 0.51702 0.0
C1543 C 0.79178 0.55144 0.46349 0.0
C1544 C 0.81941 0.58531 0.56185 0.0
C1545 C 0.81001 0.57258 0.59 0.0
C1546 C 0.8104 0.58628 0.52983 0.0
C1547 C 0.79168 0.57394 0.52563 0.0
C1548 C 0.78206 0.56136 0.5545 0.0
C1549 C 0.79135 0.56095 0.58657 0.0
C1550 C 0.82102 0.60013 0.50001 0.0
C1551 C 0.76216 0.54778 0.55075 0.0
H1552 H 0.75612 0.58856 0.45047 0.0
H1553 H 0.77299 0.55284 0.40429 0.0
H1554 H 0.76622 0.58696 0.54196 0.0
H1555 H 0.78741 0.60493 0.52562 0.0
H1556 H 0.76661 0.60297 0.50852 0.0
H1557 H 0.7904 0.54355 0.43771 0.0
H1558 H 0.80637 0.56054 0.46919 0.0
H1559 H 0.78612 0.54192 0.48745 0.0
H1560 H 0.83385 0.59437 0.56477 0.0
H1561 H 0.78416 0.551 0.60828 0.0
H1562 H 0.81417 0.60784 0.49253 0.0
H1563 H 0.82165 0.59321 0.47423 0.0
H1564 H 0.83505 0.6098 0.50914 0.0
H1565 H 0.75445 0.55476 0.54451 0.0
H1566 H 0.75649 0.53953 0.57652 0.0
H1567 H 0.76002 0.53855 0.52695 0.0
C1568 C 0.19729 0.77399 0.75471 0.0
C1569 C 0.19282 0.75582 0.7521 0.0
C1570 C 0.20697 0.78464 0.78557 0.0
C1571 C 0.21212 0.77686 0.81468 0.0
C1572 C 0.20759 0.75854 0.81232 0.0
C1573 C 0.19816 0.74831 0.78095 0.0
C1574 C 0.21176 0.8042 0.787 0.0
C1575 C 0.21278 0.74974 0.84291 0.0
C1576 C 0.25133 0.80632 0.87889 0.0
C1577 C 0.2424 0.8072 0.91118 0.0
C1578 C 0.24165 0.79693 0.84692 0.0
C1579 C 0.22253 0.78791 0.84742 0.0
C1580 C 0.21339 0.78879 0.87974 0.0
C1581 C 0.22344 0.79852 0.91116 0.0
C1582 C 0.25188 0.7964 0.81285 0.0
C1583 C 0.193 0.77918 0.88137 0.0
H1584 H 0.19304 0.77986 0.73281 0.0
H1585 H 0.19511 0.7344 0.77886 0.0
H1586 H 0.20581 0.80667 0.8124 0.0
H1587 H 0.22664 0.81305 0.78897 0.0
H1588 H 0.20687 0.80823 0.76195 0.0
H1589 H 0.20771 0.73519 0.83735 0.0
H1590 H 0.22771 0.75674 0.8457 0.0
H1591 H 0.20728 0.75101 0.87021 0.0
H1592 H 0.26595 0.81268 0.87877 0.0
H1593 H 0.21642 0.79936 0.9357 0.0
H1594 H 0.24762 0.80095 0.78769 0.0
H1595 H 0.2487 0.78231 0.80755 0.0
H1596 H 0.26675 0.80505 0.81618 0.0
H1597 H 0.18768 0.78378 0.85807 0.0
H1598 H 0.18797 0.78153 0.90831 0.0
H1599 H 0.1874 0.76442 0.8778 0.0
C1600 C 0.42008 0.19499 0.09538 0.0
C1601 C 0.43676 0.19801 0.08153 0.0
C1602 C 0.41914 0.20374 0.12787 0.0
C1603 C 0.43529 0.21602 0.14661 0.0
C1604 C 0.45217 0.21928 0.13263 0.0
C1605 C 0.45269 0.21014 0.10046 0.0
C1606 C 0.40089 0.19982 0.14219 0.0
C1607 C 0.46969 0.23242 0.15171 0.0
C1608 C 0.43573 0.25195 0.20965 0.0
C1609 C 0.43568 0.24511 0.24546 0.0
C1610 C 0.43537 0.24251 0.17724 0.0
C1611 C 0.43462 0.22565 0.18068 0.0
C1612 C 0.43394 0.21834 0.21666 0.0
C1613 C 0.43461 0.22822 0.24864 0.0
C1614 C 0.43623 0.25078 0.13933 0.0
C1615 C 0.43293 0.20029 0.22137 0.0
H1616 H 0.40772 0.18584 0.0807 0.0
H1617 H 0.46561 0.21231 0.09048 0.0
H1618 H 0.39899 0.19484 0.1715 0.0
H1619 H 0.40014 0.21242 0.14245 0.0
H1620 H 0.38959 0.18959 0.12485 0.0
H1621 H 0.48171 0.23369 0.13684 0.0
H1622 H 0.47096 0.24598 0.15325 0.0
H1623 H 0.46976 0.22796 0.18089 0.0
H1624 H 0.43616 0.26479 0.20689 0.0
H1625 H 0.43475 0.2229 0.27614 0.0
H1626 H 0.42449 0.24134 0.12197 0.0
H1627 H 0.44862 0.25318 0.12431 0.0
H1628 H 0.43635 0.26382 0.14149 0.0
H1629 H 0.42142 0.18976 0.20502 0.0
H1630 H 0.4313 0.19597 0.25117 0.0
H1631 H 0.44544 0.20106 0.21028 0.0
C1632 C 0.39895 0.53088 0.32303 0.0
C1633 C 0.38828 0.53332 0.29639 0.0
C1634 C 0.41402 0.54574 0.3393 0.0
C1635 C 0.41859 0.56347 0.3285 0.0
C1636 C 0.4079 0.56603 0.30152 0.0
C1637 C 0.39281 0.55092 0.28591 0.0
C1638 C 0.42499 0.54245 0.36818 0.0
C1639 C 0.41244 0.58473 0.28904 0.0
C1640 C 0.44837 0.60268 0.39311 0.0
C1641 C 0.46541 0.60942 0.37637 0.0
C1642 C 0.43301 0.58767 0.37794 0.0
C1643 C 0.43472 0.57934 0.34506 0.0
C1644 C 0.45188 0.58613 0.328 0.0
C1645 C 0.467 0.60105 0.3439 0.0
C1646 C 0.41496 0.58072 0.39709 0.0
C1647 C 0.45423 0.57773 0.29275 0.0
H1648 H 0.39531 0.51731 0.3317 0.0
H1649 H 0.38465 0.55285 0.26517 0.0
H1650 H 0.43918 0.54837 0.3585 0.0
H1651 H 0.42526 0.54926 0.39487 0.0
H1652 H 0.4195 0.52783 0.37383 0.0
H1653 H 0.40275 0.58441 0.26783 0.0
H1654 H 0.41241 0.59274 0.31349 0.0
H1655 H 0.42625 0.59191 0.27688 0.0
H1656 H 0.4471 0.60904 0.41831 0.0
H1657 H 0.48008 0.60641 0.33045 0.0
H1658 H 0.40941 0.56636 0.4052 0.0
H1659 H 0.40516 0.58126 0.37747 0.0
H1660 H 0.41594 0.58864 0.42257 0.0
H1661 H 0.44979 0.56328 0.29778 0.0
H1662 H 0.46848 0.58467 0.28289 0.0
H1663 H 0.44561 0.57823 0.27006 0.0
C1664 C 0.8602 0.45864 0.71628 0.0
C1665 C 0.84961 0.4654 0.7011 0.0
C1666 C 0.85997 0.44343 0.70073 0.0
C1667 C 0.849 0.43486 0.66902 0.0
C1668 C 0.83822 0.44158 0.65366 0.0
C1669 C 0.83861 0.45673 0.66997 0.0
C1670 C 0.87152 0.43656 0.71813 0.0
C1671 C 0.82649 0.43292 0.61968 0.0
C1672 C 0.86201 0.40638 0.60887 0.0
C1673 C 0.84968 0.38884 0.6211 0.0
C1674 C 0.86173 0.42146 0.62373 0.0
C1675 C 0.84893 0.41895 0.65178 0.0
C1676 C 0.83631 0.40125 0.66392 0.0
C1677 C 0.83679 0.3864 0.64832 0.0
C1678 C 0.87526 0.44011 0.60974 0.0
C1679 C 0.82257 0.39802 0.69401 0.0
H1680 H 0.86861 0.46522 0.74052 0.0
H1681 H 0.8306 0.46206 0.65779 0.0
H1682 H 0.86293 0.42221 0.72654 0.0
H1683 H 0.88143 0.43711 0.6973 0.0
H1684 H 0.87901 0.44453 0.74315 0.0
H1685 H 0.81879 0.43969 0.61136 0.0
H1686 H 0.835 0.43343 0.59568 0.0
H1687 H 0.81675 0.41846 0.62537 0.0
H1688 H 0.8719 0.4083 0.58763 0.0
H1689 H 0.82741 0.37289 0.65826 0.0
H1690 H 0.88414 0.44832 0.63313 0.0
H1691 H 0.86813 0.44712 0.59931 0.0
H1692 H 0.88388 0.43971 0.58686 0.0
H1693 H 0.82961 0.40472 0.7204 0.0
H1694 H 0.81344 0.3834 0.6997 0.0
H1695 H 0.81425 0.40407 0.68562 0.0
C1696 C 0.4547 0.84104 0.99224 0.0
C1697 C 0.46445 0.85244 0.96227 0.0
C1698 C 0.43933 0.84083 0.00683 0.0
C1699 C 0.43364 0.85243 0.9914 0.0
C1700 C 0.44339 0.86398 0.96119 0.0
C1701 C 0.45863 0.86379 0.9469 0.0
C1702 C 0.42925 0.82827 0.03895 0.0
C1703 C 0.43776 0.87658 0.94406 0.0
C1704 C 0.38499 0.841 0.00648 0.0
C1705 C 0.38672 0.8525 0.03628 0.0
C1706 C 0.40012 0.84078 0.99176 0.0
C1707 C 0.41747 0.85247 0.00689 0.0
C1708 C 0.41934 0.86414 0.03689 0.0
C1709 C 0.40395 0.86396 0.05132 0.0
C1710 C 0.39755 0.82807 0.95987 0.0
C1711 C 0.43763 0.87685 0.05368 0.0
H1712 H 0.45927 0.83247 0.00482 0.0
H1713 H 0.46593 0.87249 0.9235 0.0
H1714 H 0.42933 0.83621 0.06362 0.0
H1715 H 0.41491 0.81919 0.03104 0.0
H1716 H 0.43523 0.81984 0.0473 0.0
H1717 H 0.44687 0.88482 0.92092 0.0
H1718 H 0.42378 0.8687 0.93298 0.0
H1719 H 0.43773 0.88584 0.96583 0.0
H1720 H 0.37181 0.83235 0.99415 0.0
H1721 H 0.40541 0.87275 0.07459 0.0
H1722 H 0.40281 0.81901 0.96796 0.0
H1723 H 0.40538 0.83591 0.93505 0.0
H1724 H 0.38313 0.81963 0.95167 0.0
H1725 H 0.44376 0.86904 0.06499 0.0
H1726 H 0.43682 0.88522 0.0766 0.0
H1727 H 0.44687 0.88598 0.03167 0.0
C1728 C 0.60204 0.4541 0.28243 0.0
C1729 C 0.6167 0.46378 0.3067 0.0
C1730 C 0.58637 0.43849 0.29471 0.0
C1731 C 0.58541 0.43242 0.33207 0.0
C1732 C 0.60042 0.4418 0.35625 0.0
C1733 C 0.61587 0.45735 0.34327 0.0
C1734 C 0.57063 0.42883 0.26811 0.0
C1735 C 0.59999 0.43569 0.39615 0.0
C1736 C 0.53922 0.40473 0.37739 0.0
C1737 C 0.53638 0.38711 0.37474 0.0
C1738 C 0.55507 0.41956 0.36343 0.0
C1739 C 0.56845 0.41673 0.34646 0.0
C1740 C 0.56573 0.39901 0.34389 0.0
C1741 C 0.54973 0.38441 0.35803 0.0
C1742 C 0.55751 0.43828 0.36688 0.0
C1743 C 0.57969 0.39546 0.32601 0.0
H1744 H 0.60257 0.45908 0.25424 0.0
H1745 H 0.62729 0.46462 0.36194 0.0
H1746 H 0.56643 0.41428 0.2665 0.0
H1747 H 0.55888 0.4297 0.27875 0.0
H1748 H 0.5739 0.43464 0.23941 0.0
H1749 H 0.6131 0.44399 0.41079 0.0
H1750 H 0.58928 0.43655 0.41207 0.0
H1751 H 0.59661 0.42135 0.39666 0.0
H1752 H 0.52907 0.40695 0.39063 0.0
H1753 H 0.54751 0.37081 0.35533 0.0
H1754 H 0.55953 0.44453 0.33872 0.0
H1755 H 0.56978 0.44702 0.38365 0.0
H1756 H 0.54572 0.43816 0.38038 0.0
H1757 H 0.582 0.40023 0.29652 0.0
H1758 H 0.57556 0.38089 0.32635 0.0
H1759 H 0.59279 0.40315 0.34093 0.0
C1760 C 0.13982 0.59545 0.60918 0.0
C1761 C 0.1512 0.61292 0.62304 0.0
C1762 C 0.14007 0.58045 0.62459 0.0
C1763 C 0.15186 0.58298 0.65483 0.0
C1764 C 0.16352 0.60061 0.66868 0.0
C1765 C 0.16309 0.61537 0.65253 0.0
C1766 C 0.12759 0.56188 0.60878 0.0
C1767 C 0.17616 0.60383 0.70108 0.0
C1768 C 0.1392 0.54232 0.71734 0.0
C1769 C 0.15064 0.53623 0.70384 0.0
C1770 C 0.13967 0.5577 0.70207 0.0
C1771 C 0.15177 0.56711 0.67235 0.0
C1772 C 0.16351 0.56116 0.65892 0.0
C1773 C 0.16285 0.54582 0.67492 0.0
C1774 C 0.12708 0.56376 0.71742 0.0
C1775 C 0.1765 0.57075 0.62711 0.0
H1776 H 0.13071 0.59352 0.58622 0.0
H1777 H 0.17171 0.62882 0.66372 0.0
H1778 H 0.13551 0.55548 0.59973 0.0
H1779 H 0.11804 0.55311 0.63078 0.0
H1780 H 0.11965 0.56228 0.58449 0.0
H1781 H 0.18463 0.61841 0.70801 0.0
H1782 H 0.16824 0.59657 0.72629 0.0
H1783 H 0.1852 0.59836 0.69441 0.0
H1784 H 0.12985 0.53503 0.73991 0.0
H1785 H 0.17154 0.54102 0.66401 0.0
H1786 H 0.11773 0.56309 0.69508 0.0
H1787 H 0.13494 0.57804 0.72677 0.0
H1788 H 0.11892 0.55532 0.74141 0.0
H1789 H 0.16885 0.57024 0.60155 0.0
H1790 H 0.18504 0.56467 0.62055 0.0
H1791 H 0.18547 0.58522 0.63418 0.0
C1792 C 0.6077 0.15659 0.05085 0.0
C1793 C 0.61745 0.15136 0.02744 0.0
C1794 C 0.59244 0.15703 0.03749 0.0
C1795 C 0.587 0.15236 0.99969 0.0
C1796 C 0.59713 0.14758 0.97566 0.0
C1797 C 0.61217 0.14704 0.98989 0.0
C1798 C 0.58186 0.162 0.06408 0.0
C1799 C 0.59191 0.14276 0.93508 0.0
C1800 C 0.5376 0.13468 0.97613 0.0
C1801 C 0.53793 0.15013 0.96162 0.0
C1802 C 0.55346 0.13524 0.98847 0.0
C1803 C 0.57018 0.15159 0.98581 0.0
C1804 C 0.57073 0.16712 0.97028 0.0
C1805 C 0.55459 0.16623 0.9585 0.0
C1806 C 0.55229 0.11837 0.00485 0.0
C1807 C 0.58834 0.18474 0.96664 0.0
H1808 H 0.6117 0.15984 0.07994 0.0
H1809 H 0.61987 0.14325 0.97158 0.0
H1810 H 0.58062 0.17338 0.05248 0.0
H1811 H 0.56796 0.15035 0.06739 0.0
H1812 H 0.58826 0.16593 0.09221 0.0
H1813 H 0.6018 0.14034 0.9196 0.0
H1814 H 0.57842 0.13038 0.93332 0.0
H1815 H 0.59087 0.15376 0.92089 0.0
H1816 H 0.52486 0.12208 0.97794 0.0
H1817 H 0.55498 0.17827 0.94768 0.0
H1818 H 0.55744 0.121 0.03407 0.0
H1819 H 0.56092 0.11453 0.98857 0.0
H1820 H 0.53823 0.10675 0.00499 0.0
H1821 H 0.59422 0.18972 0.99483 0.0
H1822 H 0.58659 0.19535 0.95249 0.0
H1823 H 0.59825 0.18264 0.95051 0.0
loop_
_geom_bond_atom_site_label_1
_geom_bond_atom_site_label_2
_geom_bond_distance
_geom_bond_site_symmetry_2
_ccdc_geom_bond_type
Li0 N17 1.990 . S
Li0 O60 1.956 . S
Li0 O61 1.970 . S
Li0 O62 1.961 . S
Li1 N25 1.990 . S
Li1 O60 1.970 . S
Li1 O61 1.956 . S
Li1 O63 1.961 . S
Li2 N47 1.990 . S
Li2 O60 1.961 . S
Li2 O62 1.956 . S
Li2 O63 1.970 . S
Li3 N53 1.990 . S
Li3 O61 1.961 . S
Li3 O62 1.970 . S
Li3 O63 1.956 . S
C4 C6 1.348 . S
C4 C7 1.356 . S
C4 O60 1.325 . S
N5 C8 1.314 . S
N5 C9 1.279 . S
C6 C4 1.348 . S
C6 C8 1.353 . S
C6 H64 0.929 . S
C7 C4 1.356 . S
C7 C9 1.358 . S
C7 H65 0.930 . S
C8 N5 1.314 . S
C8 C6 1.353 . S
C8 H66 0.930 . S
C9 N5 1.279 . S
C9 C7 1.358 . S
C9 H67 0.930 . S
C10 C13 1.348 . S
C10 C14 1.356 . S
C10 O61 1.325 . S
C11 N12 1.279 . S
C11 C14 1.358 . S
C11 H68 0.930 . S
N12 C11 1.279 . S
N12 C15 1.314 . S
C13 C10 1.348 . S
C13 C15 1.353 . S
C13 H69 0.929 . S
C14 C10 1.356 . S
C14 C11 1.358 . S
C14 H70 0.930 . S
C15 N12 1.314 . S
C15 C13 1.353 . S
C15 H71 0.930 . S
C16 N17 1.314 . S
C16 C21 1.353 . S
C16 H22 0.930 . S
N17 Li0 1.990 . S
N17 C16 1.314 . S
N17 C19 1.279 . S
C18 C19 1.358 . S
C18 C20 1.356 . S
C18 H72 0.930 . S
C19 N17 1.279 . S
C19 C18 1.358 . S
C19 H23 0.930 . S
C20 C18 1.356 . S
C20 C21 1.348 . S
C21 C16 1.353 . S
C21 C20 1.348 . S
C21 H73 0.929 . S
H22 C16 0.930 . S
H23 C19 0.930 . S
C24 N25 1.314 . S
C24 C26 1.353 . S
C24 H30 0.930 . S
N25 Li1 1.990 . S
N25 C24 1.314 . S
N25 C28 1.279 . S
C26 C24 1.353 . S
C26 C29 1.348 . S
C26 H74 0.929 . S
C27 C28 1.358 . S
C27 C29 1.356 . S
C27 H75 0.930 . S
C28 N25 1.279 . S
C28 C27 1.358 . S
C28 H31 0.930 . S
C29 C26 1.348 . S
C29 C27 1.356 . S
H30 C24 0.930 . S
H31 C28 0.930 . S
C32 C34 1.348 . S
C32 C35 1.356 . S
C32 O62 1.325 . S
N33 C36 1.314 . S
N33 C37 1.279 . S
C34 C32 1.348 . S
C34 C36 1.353 . S
C34 H76 0.929 . S
C35 C32 1.356 . S
C35 C37 1.358 . S
C35 H77 0.930 . S
C36 N33 1.314 . S
C36 C34 1.353 . S
C36 H78 0.930 . S
C37 N33 1.279 . S
C37 C35 1.358 . S
C37 H79 0.930 . S
C38 C39 1.348 . S
C38 C40 1.356 . S
C38 O63 1.325 . S
C39 C38 1.348 . S
C39 C41 1.353 . S
C39 H80 0.929 . S
C40 C38 1.356 . S
C40 C42 1.358 . S
C40 H81 0.930 . S
C41 C39 1.353 . S
C41 N43 1.314 . S
C41 H82 0.930 . S
C42 C40 1.358 . S
C42 N43 1.279 . S
C42 H83 0.930 . S
N43 C41 1.314 . S
N43 C42 1.279 . S
C44 C46 1.353 . S
C44 N47 1.314 . S
C44 H50 0.930 . S
C45 N47 1.279 . S
C45 C48 1.358 . S
C45 H51 0.930 . S
C46 C44 1.353 . S
C46 C49 1.348 . S
C46 H84 0.929 . S
N47 Li2 1.990 . S
N47 C44 1.314 . S
N47 C45 1.279 . S
C48 C45 1.358 . S
C48 C49 1.356 . S
C48 H85 0.930 . S
C49 C46 1.348 . S
C49 C48 1.356 . S
H50 C44 0.930 . S
H51 C45 0.930 . S
C52 N53 1.314 . S
C52 C54 1.353 . S
C52 H58 0.930 . S
N53 Li3 1.990 . S
N53 C52 1.314 . S
N53 C56 1.279 . S
C54 C52 1.353 . S
C54 C57 1.348 . S
C54 H86 0.929 . S
C55 C56 1.358 . S
C55 C57 1.356 . S
C55 H87 0.930 . S
C56 N53 1.279 . S
C56 C55 1.358 . S
C56 H59 0.930 . S
C57 C54 1.348 . S
C57 C55 1.356 . S
H58 C52 0.930 . S
H59 C56 0.930 . S
O60 Li0 1.956 . S
O60 Li1 1.970 . S
O60 Li2 1.961 . S
O60 C4 1.325 . S
O61 Li0 1.970 . S
O61 Li1 1.956 . S
O61 Li3 1.961 . S
O61 C10 1.325 . S
O62 Li0 1.961 . S
O62 Li2 1.956 . S
O62 Li3 1.970 . S
O62 C32 1.325 . S
O63 Li1 1.961 . S
O63 Li2 1.970 . S
O63 Li3 1.956 . S
O63 C38 1.325 . S
H64 C6 0.929 . S
H65 C7 0.930 . S
H66 C8 0.930 . S
H67 C9 0.930 . S
H68 C11 0.930 . S
H69 C13 0.929 . S
H70 C14 0.930 . S
H71 C15 0.930 . S
H72 C18 0.930 . S
H73 C21 0.929 . S
H74 C26 0.929 . S
H75 C27 0.930 . S
H76 C34 0.929 . S
H77 C35 0.930 . S
H78 C36 0.930 . S
H79 C37 0.930 . S
H80 C39 0.929 . S
H81 C40 0.930 . S
H82 C41 0.930 . S
H83 C42 0.930 . S
H84 C46 0.929 . S
H85 C48 0.930 . S
H86 C54 0.929 . S
H87 C55 0.930 . S
Li88 N105 1.990 . S
Li88 O148 1.956 . S
Li88 O149 1.970 . S
Li88 O150 1.961 . S
Li89 N113 1.990 . S
Li89 O148 1.970 . S
Li89 O149 1.956 . S
Li89 O151 1.961 . S
Li90 N135 1.990 . S
Li90 O148 1.961 . S
Li90 O150 1.956 . S
Li90 O151 1.970 . S
Li91 N141 1.990 . S
Li91 O149 1.961 . S
Li91 O150 1.970 . S
Li91 O151 1.956 . S
C92 C94 1.348 . S
C92 C95 1.356 . S
C92 O148 1.325 . S
N93 C96 1.314 . S
N93 C97 1.279 . S
C94 C92 1.348 . S
C94 C96 1.353 . S
C94 H152 0.929 . S
C95 C92 1.356 . S
C95 C97 1.358 . S
C95 H153 0.930 . S
C96 N93 1.314 . S
C96 C94 1.353 . S
C96 H154 0.930 . S
C97 N93 1.279 . S
C97 C95 1.358 . S
C97 H155 0.930 . S
C98 C101 1.348 . S
C98 C102 1.356 . S
C98 O149 1.325 . S
C99 N100 1.279 . S
C99 C102 1.358 . S
C99 H156 0.930 . S
N100 C99 1.279 . S
N100 C103 1.314 . S
C101 C98 1.348 . S
C101 C103 1.353 . S
C101 H157 0.929 . S
C102 C98 1.356 . S
C102 C99 1.358 . S
C102 H158 0.930 . S
C103 N100 1.314 . S
C103 C101 1.353 . S
C103 H159 0.930 . S
C104 N105 1.314 . S
C104 C109 1.353 . S
C104 H110 0.930 . S
N105 Li88 1.990 . S
N105 C104 1.314 . S
N105 C107 1.279 . S
C106 C107 1.358 . S
C106 C108 1.356 . S
C106 H160 0.930 . S
C107 N105 1.279 . S
C107 C106 1.358 . S
C107 H111 0.930 . S
C108 C106 1.356 . S
C108 C109 1.348 . S
C109 C104 1.353 . S
C109 C108 1.348 . S
C109 H161 0.929 . S
H110 C104 0.930 . S
H111 C107 0.930 . S
C112 N113 1.314 . S
C112 C114 1.353 . S
C112 H118 0.930 . S
N113 Li89 1.990 . S
N113 C112 1.314 . S
N113 C116 1.279 . S
C114 C112 1.353 . S
C114 C117 1.348 . S
C114 H162 0.929 . S
C115 C116 1.358 . S
C115 C117 1.356 . S
C115 H163 0.930 . S
C116 N113 1.279 . S
C116 C115 1.358 . S
C116 H119 0.930 . S
C117 C114 1.348 . S
C117 C115 1.356 . S
H118 C112 0.930 . S
H119 C116 0.930 . S
C120 C122 1.348 . S
C120 C123 1.356 . S
C120 O150 1.325 . S
N121 C124 1.314 . S
N121 C125 1.279 . S
C122 C120 1.348 . S
C122 C124 1.353 . S
C122 H164 0.929 . S
C123 C120 1.356 . S
C123 C125 1.358 . S
C123 H165 0.930 . S
C124 N121 1.314 . S
C124 C122 1.353 . S
C124 H166 0.930 . S
C125 N121 1.279 . S
C125 C123 1.358 . S
C125 H167 0.930 . S
C126 C127 1.348 . S
C126 C128 1.356 . S
C126 O151 1.325 . S
C127 C126 1.348 . S
C127 C129 1.353 . S
C127 H168 0.929 . S
C128 C126 1.356 . S
C128 C130 1.358 . S
C128 H169 0.930 . S
C129 C127 1.353 . S
C129 N131 1.314 . S
C129 H170 0.930 . S
C130 C128 1.358 . S
C130 N131 1.279 . S
C130 H171 0.930 . S
N131 C129 1.314 . S
N131 C130 1.279 . S
C132 C134 1.353 . S
C132 N135 1.314 . S
C132 H138 0.930 . S
C133 N135 1.279 . S
C133 C136 1.358 . S
C133 H139 0.930 . S
C134 C132 1.353 . S
C134 C137 1.348 . S
C134 H172 0.929 . S
N135 Li90 1.990 . S
N135 C132 1.314 . S
N135 C133 1.279 . S
C136 C133 1.358 . S
C136 C137 1.356 . S
C136 H173 0.930 . S
C137 C134 1.348 . S
C137 C136 1.356 . S
H138 C132 0.930 . S
H139 C133 0.930 . S
C140 N141 1.314 . S
C140 C142 1.353 . S
C140 H146 0.930 . S
N141 Li91 1.990 . S
N141 C140 1.314 . S
N141 C144 1.279 . S
C142 C140 1.353 . S
C142 C145 1.348 . S
C142 H174 0.929 . S
C143 C144 1.358 . S
C143 C145 1.356 . S
C143 H175 0.930 . S
C144 N141 1.279 . S
C144 C143 1.358 . S
C144 H147 0.930 . S
C145 C142 1.348 . S
C145 C143 1.356 . S
H146 C140 0.930 . S
H147 C144 0.930 . S
O148 Li88 1.956 . S
O148 Li89 1.970 . S
O148 Li90 1.961 . S
O148 C92 1.325 . S
O149 Li88 1.970 . S
O149 Li89 1.956 . S
O149 Li91 1.961 . S
O149 C98 1.325 . S
O150 Li88 1.961 . S
O150 Li90 1.956 . S
O150 Li91 1.970 . S
O150 C120 1.325 . S
O151 Li89 1.961 . S
O151 Li90 1.970 . S
O151 Li91 1.956 . S
O151 C126 1.325 . S
H152 C94 0.929 . S
H153 C95 0.930 . S
H154 C96 0.930 . S
H155 C97 0.930 . S
H156 C99 0.930 . S
H157 C101 0.929 . S
H158 C102 0.930 . S
H159 C103 0.930 . S
H160 C106 0.930 . S
H161 C109 0.929 . S
H162 C114 0.929 . S
H163 C115 0.930 . S
H164 C122 0.929 . S
H165 C123 0.930 . S
H166 C124 0.930 . S
H167 C125 0.930 . S
H168 C127 0.929 . S
H169 C128 0.930 . S
H170 C129 0.930 . S
H171 C130 0.930 . S
H172 C134 0.929 . S
H173 C136 0.930 . S
H174 C142 0.929 . S
H175 C143 0.930 . S
Li176 N193 1.990 . S
Li176 O236 1.956 . S
Li176 O237 1.970 . S
Li176 O238 1.961 . S
Li177 N201 1.990 1_556 S
Li177 O236 1.970 . S
Li177 O237 1.956 . S
Li177 O239 1.961 . S
Li178 N223 1.990 . S
Li178 O236 1.961 . S
Li178 O238 1.956 . S
Li178 O239 1.970 . S
Li179 N229 1.990 . S
Li179 O237 1.961 . S
Li179 O238 1.970 . S
Li179 O239 1.956 . S
C180 C182 1.348 . S
C180 C183 1.356 . S
C180 O236 1.325 . S
N181 C184 1.314 . S
N181 C185 1.279 . S
C182 C180 1.348 . S
C182 C184 1.353 . S
C182 H240 0.929 . S
C183 C180 1.356 . S
C183 C185 1.358 . S
C183 H241 0.930 . S
C184 N181 1.314 . S
C184 C182 1.353 . S
C184 H242 0.930 . S
C185 N181 1.279 . S
C185 C183 1.358 . S
C185 H243 0.930 . S
C186 C189 1.348 . S
C186 C190 1.356 . S
C186 O237 1.325 1_554 S
C187 N188 1.279 . S
C187 C190 1.358 . S
C187 H244 0.930 . S
N188 C187 1.279 . S
N188 C191 1.314 . S
C189 C186 1.348 . S
C189 C191 1.353 . S
C189 H245 0.929 . S
C190 C186 1.356 . S
C190 C187 1.358 . S
C190 H246 0.930 . S
C191 N188 1.314 . S
C191 C189 1.353 . S
C191 H247 0.930 . S
C192 N193 1.314 . S
C192 C197 1.353 . S
C192 H198 0.930 . S
N193 Li176 1.990 . S
N193 C192 1.314 . S
N193 C195 1.279 . S
C194 C195 1.358 . S
C194 C196 1.356 . S
C194 H248 0.930 . S
C195 N193 1.279 . S
C195 C194 1.358 . S
C195 H199 0.930 . S
C196 C194 1.356 . S
C196 C197 1.348 . S
C197 C192 1.353 . S
C197 C196 1.348 . S
C197 H249 0.929 . S
H198 C192 0.930 . S
H199 C195 0.930 . S
C200 N201 1.314 . S
C200 C202 1.353 . S
C200 H206 0.930 1_554 S
N201 Li177 1.990 1_554 S
N201 C200 1.314 . S
N201 C204 1.279 . S
C202 C200 1.353 . S
C202 C205 1.348 . S
C202 H250 0.929 . S
C203 C204 1.358 . S
C203 C205 1.356 . S
C203 H251 0.930 . S
C204 N201 1.279 . S
C204 C203 1.358 . S
C204 H207 0.930 . S
C205 C202 1.348 . S
C205 C203 1.356 . S
H206 C200 0.930 1_556 S
H207 C204 0.930 . S
C208 C210 1.348 . S
C208 C211 1.356 . S
C208 O238 1.325 . S
N209 C212 1.314 . S
N209 C213 1.279 . S
C210 C208 1.348 . S
C210 C212 1.353 . S
C210 H252 0.929 . S
C211 C208 1.356 . S
C211 C213 1.358 . S
C211 H253 0.930 . S
C212 N209 1.314 . S
C212 C210 1.353 . S
C212 H254 0.930 . S
C213 N209 1.279 . S
C213 C211 1.358 . S
C213 H255 0.930 . S
C214 C215 1.348 . S
C214 C216 1.356 . S
C214 O239 1.325 . S
C215 C214 1.348 . S
C215 C217 1.353 . S
C215 H256 0.929 . S
C216 C214 1.356 . S
C216 C218 1.358 . S
C216 H257 0.930 . S
C217 C215 1.353 . S
C217 N219 1.314 . S
C217 H258 0.930 . S
C218 C216 1.358 . S
C218 N219 1.279 . S
C218 H259 0.930 . S
N219 C217 1.314 . S
N219 C218 1.279 . S
C220 C222 1.353 . S
C220 N223 1.314 . S
C220 H226 0.930 . S
C221 N223 1.279 . S
C221 C224 1.358 . S
C221 H227 0.930 . S
C222 C220 1.353 . S
C222 C225 1.348 . S
C222 H260 0.929 . S
N223 Li178 1.990 . S
N223 C220 1.314 . S
N223 C221 1.279 . S
C224 C221 1.358 . S
C224 C225 1.356 . S
C224 H261 0.930 . S
C225 C222 1.348 . S
C225 C224 1.356 . S
H226 C220 0.930 . S
H227 C221 0.930 . S
C228 N229 1.314 . S
C228 C230 1.353 . S
C228 H234 0.930 . S
N229 Li179 1.990 . S
N229 C228 1.314 . S
N229 C232 1.279 . S
C230 C228 1.353 . S
C230 C233 1.348 . S
C230 H262 0.929 . S
C231 C232 1.358 . S
C231 C233 1.356 . S
C231 H263 0.930 . S
C232 N229 1.279 . S
C232 C231 1.358 . S
C232 H235 0.930 . S
C233 C230 1.348 . S
C233 C231 1.356 . S
H234 C228 0.930 . S
H235 C232 0.930 . S
O236 Li176 1.956 . S
O236 Li177 1.970 . S
O236 Li178 1.961 . S
O236 C180 1.325 . S
O237 Li176 1.970 . S
O237 Li177 1.956 . S
O237 Li179 1.961 . S
O237 C186 1.325 1_556 S
O238 Li176 1.961 . S
O238 Li178 1.956 . S
O238 Li179 1.970 . S
O238 C208 1.325 . S
O239 Li177 1.961 . S
O239 Li178 1.970 . S
O239 Li179 1.956 . S
O239 C214 1.325 . S
H240 C182 0.929 . S
H241 C183 0.930 . S
H242 C184 0.930 . S
H243 C185 0.930 . S
H244 C187 0.930 . S
H245 C189 0.929 . S
H246 C190 0.930 . S
H247 C191 0.930 . S
H248 C194 0.930 . S
H249 C197 0.929 . S
H250 C202 0.929 . S
H251 C203 0.930 . S
H252 C210 0.929 . S
H253 C211 0.930 . S
H254 C212 0.930 . S
H255 C213 0.930 . S
H256 C215 0.929 . S
H257 C216 0.930 . S
H258 C217 0.930 . S
H259 C218 0.930 . S
H260 C222 0.929 . S
H261 C224 0.930 . S
H262 C230 0.929 . S
H263 C231 0.930 . S
Li264 N281 1.990 . S
Li264 O324 1.956 . S
Li264 O325 1.970 . S
Li264 O326 1.961 . S
Li265 N289 1.990 . S
Li265 O324 1.970 . S
Li265 O325 1.956 . S
Li265 O327 1.961 . S
Li266 N311 1.990 . S
Li266 O324 1.961 . S
Li266 O326 1.956 . S
Li266 O327 1.970 . S
Li267 N317 1.990 . S
Li267 O325 1.961 . S
Li267 O326 1.970 . S
Li267 O327 1.956 . S
C268 C270 1.348 . S
C268 C271 1.356 . S
C268 O324 1.325 . S
N269 C272 1.314 . S
N269 C273 1.279 . S
C270 C268 1.348 . S
C270 C272 1.353 . S
C270 H328 0.929 . S
C271 C268 1.356 . S
C271 C273 1.358 . S
C271 H329 0.930 . S
C272 N269 1.314 . S
C272 C270 1.353 . S
C272 H330 0.930 . S
C273 N269 1.279 . S
C273 C271 1.358 . S
C273 H331 0.930 . S
C274 C277 1.348 . S
C274 C278 1.356 . S
C274 O325 1.325 . S
C275 N276 1.279 . S
C275 C278 1.358 . S
C275 H332 0.930 . S
N276 C275 1.279 . S
N276 C279 1.314 . S
C277 C274 1.348 . S
C277 C279 1.353 . S
C277 H333 0.929 . S
C278 C274 1.356 . S
C278 C275 1.358 . S
C278 H334 0.930 . S
C279 N276 1.314 . S
C279 C277 1.353 . S
C279 H335 0.930 . S
C280 N281 1.314 . S
C280 C285 1.353 . S
C280 H286 0.930 . S
N281 Li264 1.990 . S
N281 C280 1.314 . S
N281 C283 1.279 . S
C282 C283 1.358 . S
C282 C284 1.356 . S
C282 H336 0.930 . S
C283 N281 1.279 . S
C283 C282 1.358 . S
C283 H287 0.930 . S
C284 C282 1.356 . S
C284 C285 1.348 . S
C285 C280 1.353 . S
C285 C284 1.348 . S
C285 H337 0.929 . S
H286 C280 0.930 . S
H287 C283 0.930 . S
C288 N289 1.314 . S
C288 C290 1.353 . S
C288 H294 0.930 . S
N289 Li265 1.990 . S
N289 C288 1.314 . S
N289 C292 1.279 . S
C290 C288 1.353 . S
C290 C293 1.348 . S
C290 H338 0.929 . S
C291 C292 1.358 . S
C291 C293 1.356 . S
C291 H339 0.930 . S
C292 N289 1.279 . S
C292 C291 1.358 . S
C292 H295 0.930 . S
C293 C290 1.348 . S
C293 C291 1.356 . S
H294 C288 0.930 . S
H295 C292 0.930 . S
C296 C298 1.348 . S
C296 C299 1.356 . S
C296 O326 1.325 . S
N297 C300 1.314 . S
N297 C301 1.279 . S
C298 C296 1.348 . S
C298 C300 1.353 . S
C298 H340 0.929 . S
C299 C296 1.356 . S
C299 C301 1.358 . S
C299 H341 0.930 . S
C300 N297 1.314 . S
C300 C298 1.353 . S
C300 H342 0.930 . S
C301 N297 1.279 . S
C301 C299 1.358 . S
C301 H343 0.930 . S
C302 C303 1.348 . S
C302 C304 1.356 . S
C302 O327 1.325 . S
C303 C302 1.348 . S
C303 C305 1.353 . S
C303 H344 0.929 . S
C304 C302 1.356 . S
C304 C306 1.358 . S
C304 H345 0.930 . S
C305 C303 1.353 . S
C305 N307 1.314 . S
C305 H346 0.930 . S
C306 C304 1.358 . S
C306 N307 1.279 . S
C306 H347 0.930 . S
N307 C305 1.314 . S
N307 C306 1.279 . S
C308 C310 1.353 . S
C308 N311 1.314 . S
C308 H314 0.930 . S
C309 N311 1.279 . S
C309 C312 1.358 . S
C309 H315 0.930 . S
C310 C308 1.353 . S
C310 C313 1.348 . S
C310 H348 0.929 . S
N311 Li266 1.990 . S
N311 C308 1.314 . S
N311 C309 1.279 . S
C312 C309 1.358 . S
C312 C313 1.356 . S
C312 H349 0.930 . S
C313 C310 1.348 . S
C313 C312 1.356 . S
H314 C308 0.930 . S
H315 C309 0.930 . S
C316 N317 1.314 . S
C316 C318 1.353 . S
C316 H322 0.930 . S
N317 Li267 1.990 . S
N317 C316 1.314 . S
N317 C320 1.279 . S
C318 C316 1.353 . S
C318 C321 1.348 . S
C318 H350 0.929 . S
C319 C320 1.358 . S
C319 C321 1.356 . S
C319 H351 0.930 . S
C320 N317 1.279 . S
C320 C319 1.358 . S
C320 H323 0.930 . S
C321 C318 1.348 . S
C321 C319 1.356 . S
H322 C316 0.930 . S
H323 C320 0.930 . S
O324 Li264 1.956 . S
O324 Li265 1.970 . S
O324 Li266 1.961 . S
O324 C268 1.325 . S
O325 Li264 1.970 . S
O325 Li265 1.956 . S
O325 Li267 1.961 . S
O325 C274 1.325 . S
O326 Li264 1.961 . S
O326 Li266 1.956 . S
O326 Li267 1.970 . S
O326 C296 1.325 . S
O327 Li265 1.961 . S
O327 Li266 1.970 . S
O327 Li267 1.956 . S
O327 C302 1.325 . S
H328 C270 0.929 . S
H329 C271 0.930 . S
H330 C272 0.930 . S
H331 C273 0.930 . S
H332 C275 0.930 . S
H333 C277 0.929 . S
H334 C278 0.930 . S
H335 C279 0.930 . S
H336 C282 0.930 . S
H337 C285 0.929 . S
H338 C290 0.929 . S
H339 C291 0.930 . S
H340 C298 0.929 . S
H341 C299 0.930 . S
H342 C300 0.930 . S
H343 C301 0.930 . S
H344 C303 0.929 . S
H345 C304 0.930 . S
H346 C305 0.930 . S
H347 C306 0.930 . S
H348 C310 0.929 . S
H349 C312 0.930 . S
H350 C318 0.929 . S
H351 C319 0.930 . S
Li352 N369 1.990 . S
Li352 O412 1.956 . S
Li352 O413 1.970 . S
Li352 O414 1.961 . S
Li353 N377 1.990 . S
Li353 O412 1.970 . S
Li353 O413 1.956 . S
Li353 O415 1.961 . S
Li354 N399 1.990 . S
Li354 O412 1.961 . S
Li354 O414 1.956 . S
Li354 O415 1.970 . S
Li355 N405 1.990 . S
Li355 O413 1.961 . S
Li355 O414 1.970 . S
Li355 O415 1.956 . S
C356 C358 1.348 . S
C356 C359 1.356 . S
C356 O412 1.325 . S
N357 C360 1.314 . S
N357 C361 1.279 . S
C358 C356 1.348 . S
C358 C360 1.353 . S
C358 H416 0.929 . S
C359 C356 1.356 . S
C359 C361 1.358 . S
C359 H417 0.930 . S
C360 N357 1.314 . S
C360 C358 1.353 . S
C360 H418 0.930 . S
C361 N357 1.279 . S
C361 C359 1.358 . S
C361 H419 0.930 . S
C362 C365 1.348 . S
C362 C366 1.356 . S
C362 O413 1.325 . S
C363 N364 1.279 . S
C363 C366 1.358 . S
C363 H420 0.930 . S
N364 C363 1.279 . S
N364 C367 1.314 . S
C365 C362 1.348 . S
C365 C367 1.353 . S
C365 H421 0.929 . S
C366 C362 1.356 . S
C366 C363 1.358 . S
C366 H422 0.930 . S
C367 N364 1.314 . S
C367 C365 1.353 . S
C367 H423 0.930 . S
C368 N369 1.314 . S
C368 C373 1.353 . S
C368 H374 0.930 . S
N369 Li352 1.990 . S
N369 C368 1.314 . S
N369 C371 1.279 . S
C370 C371 1.358 . S
C370 C372 1.356 . S
C370 H424 0.930 . S
C371 N369 1.279 . S
C371 C370 1.358 . S
C371 H375 0.930 . S
C372 C370 1.356 . S
C372 C373 1.348 . S
C373 C368 1.353 . S
C373 C372 1.348 . S
C373 H425 0.929 . S
H374 C368 0.930 . S
H375 C371 0.930 . S
C376 N377 1.314 . S
C376 C378 1.353 . S
C376 H382 0.930 . S
N377 Li353 1.990 . S
N377 C376 1.314 . S
N377 C380 1.279 . S
C378 C376 1.353 . S
C378 C381 1.348 . S
C378 H426 0.929 . S
C379 C380 1.358 . S
C379 C381 1.356 . S
C379 H427 0.930 . S
C380 N377 1.279 . S
C380 C379 1.358 . S
C380 H383 0.930 . S
C381 C378 1.348 . S
C381 C379 1.356 . S
H382 C376 0.930 . S
H383 C380 0.930 . S
C384 C386 1.348 . S
C384 C387 1.356 . S
C384 O414 1.325 . S
N385 C388 1.314 . S
N385 C389 1.279 . S
C386 C384 1.348 . S
C386 C388 1.353 . S
C386 H428 0.929 . S
C387 C384 1.356 . S
C387 C389 1.358 . S
C387 H429 0.930 . S
C388 N385 1.314 . S
C388 C386 1.353 . S
C388 H430 0.930 . S
C389 N385 1.279 . S
C389 C387 1.358 . S
C389 H431 0.930 . S
C390 C391 1.348 . S
C390 C392 1.356 . S
C390 O415 1.325 . S
C391 C390 1.348 . S
C391 C393 1.353 . S
C391 H432 0.929 . S
C392 C390 1.356 . S
C392 C394 1.358 . S
C392 H433 0.930 . S
C393 C391 1.353 . S
C393 N395 1.314 . S
C393 H434 0.930 . S
C394 C392 1.358 . S
C394 N395 1.279 . S
C394 H435 0.930 . S
N395 C393 1.314 . S
N395 C394 1.279 . S
C396 C398 1.353 . S
C396 N399 1.314 . S
C396 H402 0.930 . S
C397 N399 1.279 . S
C397 C400 1.358 . S
C397 H403 0.930 . S
C398 C396 1.353 . S
C398 C401 1.348 . S
C398 H436 0.929 . S
N399 Li354 1.990 . S
N399 C396 1.314 . S
N399 C397 1.279 . S
C400 C397 1.358 . S
C400 C401 1.356 . S
C400 H437 0.930 . S
C401 C398 1.348 . S
C401 C400 1.356 . S
H402 C396 0.930 . S
H403 C397 0.930 . S
C404 N405 1.314 . S
C404 C406 1.353 . S
C404 H410 0.930 . S
N405 Li355 1.990 . S
N405 C404 1.314 . S
N405 C408 1.279 . S
C406 C404 1.353 . S
C406 C409 1.348 . S
C406 H438 0.929 . S
C407 C408 1.358 . S
C407 C409 1.356 . S
C407 H439 0.930 . S
C408 N405 1.279 . S
C408 C407 1.358 . S
C408 H411 0.930 . S
C409 C406 1.348 . S
C409 C407 1.356 . S
H410 C404 0.930 . S
H411 C408 0.930 . S
O412 Li352 1.956 . S
O412 Li353 1.970 . S
O412 Li354 1.961 . S
O412 C356 1.325 . S
O413 Li352 1.970 . S
O413 Li353 1.956 . S
O413 Li355 1.961 . S
O413 C362 1.325 . S
O414 Li352 1.961 . S
O414 Li354 1.956 . S
O414 Li355 1.970 . S
O414 C384 1.325 . S
O415 Li353 1.961 . S
O415 Li354 1.970 . S
O415 Li355 1.956 . S
O415 C390 1.325 . S
H416 C358 0.929 . S
H417 C359 0.930 . S
H418 C360 0.930 . S
H419 C361 0.930 . S
H420 C363 0.930 . S
H421 C365 0.929 . S
H422 C366 0.930 . S
H423 C367 0.930 . S
H424 C370 0.930 . S
H425 C373 0.929 . S
H426 C378 0.929 . S
H427 C379 0.930 . S
H428 C386 0.929 . S
H429 C387 0.930 . S
H430 C388 0.930 . S
H431 C389 0.930 . S
H432 C391 0.929 . S
H433 C392 0.930 . S
H434 C393 0.930 . S
H435 C394 0.930 . S
H436 C398 0.929 . S
H437 C400 0.930 . S
H438 C406 0.929 . S
H439 C407 0.930 . S
Li440 N457 1.990 1_556 S
Li440 O500 1.956 . S
Li440 O501 1.970 . S
Li440 O502 1.961 . S
Li441 N465 1.990 . S
Li441 O500 1.970 . S
Li441 O501 1.956 . S
Li441 O503 1.961 . S
Li442 N487 1.990 . S
Li442 O500 1.961 . S
Li442 O502 1.956 . S
Li442 O503 1.970 . S
Li443 N493 1.990 . S
Li443 O501 1.961 . S
Li443 O502 1.970 . S
Li443 O503 1.956 . S
C444 C446 1.348 . S
C444 C447 1.356 . S
C444 O500 1.325 1_554 S
N445 C448 1.314 . S
N445 C449 1.279 . S
C446 C444 1.348 . S
C446 C448 1.353 . S
C446 H504 0.929 . S
C447 C444 1.356 . S
C447 C449 1.358 . S
C447 H505 0.930 . S
C448 N445 1.314 . S
C448 C446 1.353 . S
C448 H506 0.930 . S
C449 N445 1.279 . S
C449 C447 1.358 . S
C449 H507 0.930 . S
C450 C453 1.348 . S
C450 C454 1.356 . S
C450 O501 1.325 . S
C451 N452 1.279 . S
C451 C454 1.358 . S
C451 H508 0.930 . S
N452 C451 1.279 . S
N452 C455 1.314 . S
C453 C450 1.348 . S
C453 C455 1.353 . S
C453 H509 0.929 . S
C454 C450 1.356 . S
C454 C451 1.358 . S
C454 H510 0.930 . S
C455 N452 1.314 . S
C455 C453 1.353 . S
C455 H511 0.930 . S
C456 N457 1.314 . S
C456 C461 1.353 . S
C456 H462 0.930 1_554 S
N457 Li440 1.990 1_554 S
N457 C456 1.314 . S
N457 C459 1.279 . S
C458 C459 1.358 . S
C458 C460 1.356 . S
C458 H512 0.930 . S
C459 N457 1.279 . S
C459 C458 1.358 . S
C459 H463 0.930 . S
C460 C458 1.356 . S
C460 C461 1.348 . S
C461 C456 1.353 . S
C461 C460 1.348 . S
C461 H513 0.929 . S
H462 C456 0.930 1_556 S
H463 C459 0.930 . S
C464 N465 1.314 . S
C464 C466 1.353 . S
C464 H470 0.930 . S
N465 Li441 1.990 . S
N465 C464 1.314 . S
N465 C468 1.279 . S
C466 C464 1.353 . S
C466 C469 1.348 . S
C466 H514 0.929 . S
C467 C468 1.358 . S
C467 C469 1.356 . S
C467 H515 0.930 . S
C468 N465 1.279 . S
C468 C467 1.358 . S
C468 H471 0.930 . S
C469 C466 1.348 . S
C469 C467 1.356 . S
H470 C464 0.930 . S
H471 C468 0.930 . S
C472 C474 1.348 . S
C472 C475 1.356 . S
C472 O502 1.325 . S
N473 C476 1.314 . S
N473 C477 1.279 . S
C474 C472 1.348 . S
C474 C476 1.353 . S
C474 H516 0.929 . S
C475 C472 1.356 . S
C475 C477 1.358 . S
C475 H517 0.930 . S
C476 N473 1.314 . S
C476 C474 1.353 . S
C476 H518 0.930 . S
C477 N473 1.279 . S
C477 C475 1.358 . S
C477 H519 0.930 . S
C478 C479 1.348 . S
C478 C480 1.356 . S
C478 O503 1.325 . S
C479 C478 1.348 . S
C479 C481 1.353 . S
C479 H520 0.929 . S
C480 C478 1.356 . S
C480 C482 1.358 . S
C480 H521 0.930 . S
C481 C479 1.353 . S
C481 N483 1.314 . S
C481 H522 0.930 . S
C482 C480 1.358 . S
C482 N483 1.279 . S
C482 H523 0.930 . S
N483 C481 1.314 . S
N483 C482 1.279 . S
C484 C486 1.353 . S
C484 N487 1.314 . S
C484 H490 0.930 . S
C485 N487 1.279 . S
C485 C488 1.358 . S
C485 H491 0.930 . S
C486 C484 1.353 . S
C486 C489 1.348 . S
C486 H524 0.929 . S
N487 Li442 1.990 . S
N487 C484 1.314 . S
N487 C485 1.279 . S
C488 C485 1.358 . S
C488 C489 1.356 . S
C488 H525 0.930 . S
C489 C486 1.348 . S
C489 C488 1.356 . S
H490 C484 0.930 . S
H491 C485 0.930 . S
C492 N493 1.314 . S
C492 C494 1.353 . S
C492 H498 0.930 . S
N493 Li443 1.990 . S
N493 C492 1.314 . S
N493 C496 1.279 . S
C494 C492 1.353 . S
C494 C497 1.348 . S
C494 H526 0.929 . S
C495 C496 1.358 . S
C495 C497 1.356 . S
C495 H527 0.930 . S
C496 N493 1.279 . S
C496 C495 1.358 . S
C496 H499 0.930 . S
C497 C494 1.348 . S
C497 C495 1.356 . S
H498 C492 0.930 . S
H499 C496 0.930 . S
O500 Li440 1.956 . S
O500 Li441 1.970 . S
O500 Li442 1.961 . S
O500 C444 1.325 1_556 S
O501 Li440 1.970 . S
O501 Li441 1.956 . S
O501 Li443 1.961 . S
O501 C450 1.325 . S
O502 Li440 1.961 . S
O502 Li442 1.956 . S
O502 Li443 1.970 . S
O502 C472 1.325 . S
O503 Li441 1.961 . S
O503 Li442 1.970 . S
O503 Li443 1.956 . S
O503 C478 1.325 . S
H504 C446 0.929 . S
H505 C447 0.930 . S
H506 C448 0.930 . S
H507 C449 0.930 . S
H508 C451 0.930 . S
H509 C453 0.929 . S
H510 C454 0.930 . S
H511 C455 0.930 . S
H512 C458 0.930 . S
H513 C461 0.929 . S
H514 C466 0.929 . S
H515 C467 0.930 . S
H516 C474 0.929 . S
H517 C475 0.930 . S
H518 C476 0.930 . S
H519 C477 0.930 . S
H520 C479 0.929 . S
H521 C480 0.930 . S
H522 C481 0.930 . S
H523 C482 0.930 . S
H524 C486 0.929 . S
H525 C488 0.930 . S
H526 C494 0.929 . S
H527 C495 0.930 . S
Li528 N545 1.990 . S
Li528 O588 1.956 . S
Li528 O589 1.970 . S
Li528 O590 1.961 . S
Li529 N553 1.990 . S
Li529 O588 1.970 . S
Li529 O589 1.956 . S
Li529 O591 1.961 . S
Li530 N575 1.990 . S
Li530 O588 1.961 . S
Li530 O590 1.956 . S
Li530 O591 1.970 . S
Li531 N581 1.990 . S
Li531 O589 1.961 . S
Li531 O590 1.970 . S
Li531 O591 1.956 . S
C532 C534 1.348 . S
C532 C535 1.356 . S
C532 O588 1.325 . S
N533 C536 1.314 . S
N533 C537 1.279 . S
C534 C532 1.348 . S
C534 C536 1.353 . S
C534 H592 0.929 . S
C535 C532 1.356 . S
C535 C537 1.358 . S
C535 H593 0.930 . S
C536 N533 1.314 . S
C536 C534 1.353 . S
C536 H594 0.930 . S
C537 N533 1.279 . S
C537 C535 1.358 . S
C537 H595 0.930 . S
C538 C541 1.348 . S
C538 C542 1.356 . S
C538 O589 1.325 . S
C539 N540 1.279 . S
C539 C542 1.358 . S
C539 H596 0.930 . S
N540 C539 1.279 . S
N540 C543 1.314 . S
C541 C538 1.348 . S
C541 C543 1.353 . S
C541 H597 0.929 . S
C542 C538 1.356 . S
C542 C539 1.358 . S
C542 H598 0.930 . S
C543 N540 1.314 . S
C543 C541 1.353 . S
C543 H599 0.930 . S
C544 N545 1.314 . S
C544 C549 1.353 . S
C544 H550 0.930 . S
N545 Li528 1.990 . S
N545 C544 1.314 . S
N545 C547 1.279 . S
C546 C547 1.358 . S
C546 C548 1.356 . S
C546 H600 0.930 . S
C547 N545 1.279 . S
C547 C546 1.358 . S
C547 H551 0.930 . S
C548 C546 1.356 . S
C548 C549 1.348 . S
C549 C544 1.353 . S
C549 C548 1.348 . S
C549 H601 0.929 . S
H550 C544 0.930 . S
H551 C547 0.930 . S
C552 N553 1.314 . S
C552 C554 1.353 . S
C552 H558 0.930 . S
N553 Li529 1.990 . S
N553 C552 1.314 . S
N553 C556 1.279 . S
C554 C552 1.353 . S
C554 C557 1.348 . S
C554 H602 0.929 . S
C555 C556 1.358 . S
C555 C557 1.356 . S
C555 H603 0.930 . S
C556 N553 1.279 . S
C556 C555 1.358 . S
C556 H559 0.930 . S
C557 C554 1.348 . S
C557 C555 1.356 . S
H558 C552 0.930 . S
H559 C556 0.930 . S
C560 C562 1.348 . S
C560 C563 1.356 . S
C560 O590 1.325 . S
N561 C564 1.314 . S
N561 C565 1.279 . S
C562 C560 1.348 . S
C562 C564 1.353 . S
C562 H604 0.929 . S
C563 C560 1.356 . S
C563 C565 1.358 . S
C563 H605 0.930 . S
C564 N561 1.314 . S
C564 C562 1.353 . S
C564 H606 0.930 . S
C565 N561 1.279 . S
C565 C563 1.358 . S
C565 H607 0.930 . S
C566 C567 1.348 . S
C566 C568 1.356 . S
C566 O591 1.325 . S
C567 C566 1.348 . S
C567 C569 1.353 . S
C567 H608 0.929 . S
C568 C566 1.356 . S
C568 C570 1.358 . S
C568 H609 0.930 . S
C569 C567 1.353 . S
C569 N571 1.314 . S
C569 H610 0.930 . S
C570 C568 1.358 . S
C570 N571 1.279 . S
C570 H611 0.930 . S
N571 C569 1.314 . S
N571 C570 1.279 . S
C572 C574 1.353 . S
C572 N575 1.314 . S
C572 H578 0.930 . S
C573 N575 1.279 . S
C573 C576 1.358 . S
C573 H579 0.930 . S
C574 C572 1.353 . S
C574 C577 1.348 . S
C574 H612 0.929 . S
N575 Li530 1.990 . S
N575 C572 1.314 . S
N575 C573 1.279 . S
C576 C573 1.358 . S
C576 C577 1.356 . S
C576 H613 0.930 . S
C577 C574 1.348 . S
C577 C576 1.356 . S
H578 C572 0.930 . S
H579 C573 0.930 . S
C580 N581 1.314 . S
C580 C582 1.353 . S
C580 H586 0.930 . S
N581 Li531 1.990 . S
N581 C580 1.314 . S
N581 C584 1.279 . S
C582 C580 1.353 . S
C582 C585 1.348 . S
C582 H614 0.929 . S
C583 C584 1.358 . S
C583 C585 1.356 . S
C583 H615 0.930 . S
C584 N581 1.279 . S
C584 C583 1.358 . S
C584 H587 0.930 . S
C585 C582 1.348 . S
C585 C583 1.356 . S
H586 C580 0.930 . S
H587 C584 0.930 . S
O588 Li528 1.956 . S
O588 Li529 1.970 . S
O588 Li530 1.961 . S
O588 C532 1.325 . S
O589 Li528 1.970 . S
O589 Li529 1.956 . S
O589 Li531 1.961 . S
O589 C538 1.325 . S
O590 Li528 1.961 . S
O590 Li530 1.956 . S
O590 Li531 1.970 . S
O590 C560 1.325 . S
O591 Li529 1.961 . S
O591 Li530 1.970 . S
O591 Li531 1.956 . S
O591 C566 1.325 . S
H592 C534 0.929 . S
H593 C535 0.930 . S
H594 C536 0.930 . S
H595 C537 0.930 . S
H596 C539 0.930 . S
H597 C541 0.929 . S
H598 C542 0.930 . S
H599 C543 0.930 . S
H600 C546 0.930 . S
H601 C549 0.929 . S
H602 C554 0.929 . S
H603 C555 0.930 . S
H604 C562 0.929 . S
H605 C563 0.930 . S
H606 C564 0.930 . S
H607 C565 0.930 . S
H608 C567 0.929 . S
H609 C568 0.930 . S
H610 C569 0.930 . S
H611 C570 0.930 . S
H612 C574 0.929 . S
H613 C576 0.930 . S
H614 C582 0.929 . S
H615 C583 0.930 . S
Li616 N633 1.990 . S
Li616 O676 1.956 . S
Li616 O677 1.970 . S
Li616 O678 1.961 . S
Li617 N641 1.990 . S
Li617 O676 1.970 . S
Li617 O677 1.956 . S
Li617 O679 1.961 . S
Li618 N663 1.990 . S
Li618 O676 1.961 . S
Li618 O678 1.956 . S
Li618 O679 1.970 . S
Li619 N669 1.990 . S
Li619 O677 1.961 . S
Li619 O678 1.970 . S
Li619 O679 1.956 . S
C620 C622 1.348 . S
C620 C623 1.356 . S
C620 O676 1.325 . S
N621 C624 1.314 . S
N621 C625 1.279 . S
C622 C620 1.348 . S
C622 C624 1.353 . S
C622 H680 0.929 . S
C623 C620 1.356 . S
C623 C625 1.358 . S
C623 H681 0.930 . S
C624 N621 1.314 . S
C624 C622 1.353 . S
C624 H682 0.930 . S
C625 N621 1.279 . S
C625 C623 1.358 . S
C625 H683 0.930 . S
C626 C629 1.348 . S
C626 C630 1.356 . S
C626 O677 1.325 . S
C627 N628 1.279 . S
C627 C630 1.358 . S
C627 H684 0.930 . S
N628 C627 1.279 . S
N628 C631 1.314 . S
C629 C626 1.348 . S
C629 C631 1.353 . S
C629 H685 0.929 . S
C630 C626 1.356 . S
C630 C627 1.358 . S
C630 H686 0.930 . S
C631 N628 1.314 . S
C631 C629 1.353 . S
C631 H687 0.930 . S
C632 N633 1.314 . S
C632 C637 1.353 . S
C632 H638 0.930 . S
N633 Li616 1.990 . S
N633 C632 1.314 . S
N633 C635 1.279 . S
C634 C635 1.358 . S
C634 C636 1.356 . S
C634 H688 0.930 . S
C635 N633 1.279 . S
C635 C634 1.358 . S
C635 H639 0.930 . S
C636 C634 1.356 . S
C636 C637 1.348 . S
C637 C632 1.353 . S
C637 C636 1.348 . S
C637 H689 0.929 . S
H638 C632 0.930 . S
H639 C635 0.930 . S
C640 N641 1.314 . S
C640 C642 1.353 . S
C640 H646 0.930 . S
N641 Li617 1.990 . S
N641 C640 1.314 . S
N641 C644 1.279 . S
C642 C640 1.353 . S
C642 C645 1.348 . S
C642 H690 0.929 . S
C643 C644 1.358 . S
C643 C645 1.356 . S
C643 H691 0.930 . S
C644 N641 1.279 . S
C644 C643 1.358 . S
C644 H647 0.930 . S
C645 C642 1.348 . S
C645 C643 1.356 . S
H646 C640 0.930 . S
H647 C644 0.930 . S
C648 C650 1.348 . S
C648 C651 1.356 . S
C648 O678 1.325 . S
N649 C652 1.314 . S
N649 C653 1.279 . S
C650 C648 1.348 . S
C650 C652 1.353 . S
C650 H692 0.929 . S
C651 C648 1.356 . S
C651 C653 1.358 . S
C651 H693 0.930 . S
C652 N649 1.314 . S
C652 C650 1.353 . S
C652 H694 0.930 . S
C653 N649 1.279 . S
C653 C651 1.358 . S
C653 H695 0.930 . S
C654 C655 1.348 . S
C654 C656 1.356 . S
C654 O679 1.325 . S
C655 C654 1.348 . S
C655 C657 1.353 . S
C655 H696 0.929 . S
C656 C654 1.356 . S
C656 C658 1.358 . S
C656 H697 0.930 . S
C657 C655 1.353 . S
C657 N659 1.314 . S
C657 H698 0.930 . S
C658 C656 1.358 . S
C658 N659 1.279 . S
C658 H699 0.930 . S
N659 C657 1.314 . S
N659 C658 1.279 . S
C660 C662 1.353 . S
C660 N663 1.314 . S
C660 H666 0.930 . S
C661 N663 1.279 . S
C661 C664 1.358 . S
C661 H667 0.930 . S
C662 C660 1.353 . S
C662 C665 1.348 . S
C662 H700 0.929 . S
N663 Li618 1.990 . S
N663 C660 1.314 . S
N663 C661 1.279 . S
C664 C661 1.358 . S
C664 C665 1.356 . S
C664 H701 0.930 . S
C665 C662 1.348 . S
C665 C664 1.356 . S
H666 C660 0.930 . S
H667 C661 0.930 . S
C668 N669 1.314 . S
C668 C670 1.353 . S
C668 H674 0.930 . S
N669 Li619 1.990 . S
N669 C668 1.314 . S
N669 C672 1.279 . S
C670 C668 1.353 . S
C670 C673 1.348 . S
C670 H702 0.929 . S
C671 C672 1.358 . S
C671 C673 1.356 . S
C671 H703 0.930 . S
C672 N669 1.279 . S
C672 C671 1.358 . S
C672 H675 0.930 . S
C673 C670 1.348 . S
C673 C671 1.356 . S
H674 C668 0.930 . S
H675 C672 0.930 . S
O676 Li616 1.956 . S
O676 Li617 1.970 . S
O676 Li618 1.961 . S
O676 C620 1.325 . S
O677 Li616 1.970 . S
O677 Li617 1.956 . S
O677 Li619 1.961 . S
O677 C626 1.325 . S
O678 Li616 1.961 . S
O678 Li618 1.956 . S
O678 Li619 1.970 . S
O678 C648 1.325 . S
O679 Li617 1.961 . S
O679 Li618 1.970 . S
O679 Li619 1.956 . S
O679 C654 1.325 . S
H680 C622 0.929 . S
H681 C623 0.930 . S
H682 C624 0.930 . S
H683 C625 0.930 . S
H684 C627 0.930 . S
H685 C629 0.929 . S
H686 C630 0.930 . S
H687 C631 0.930 . S
H688 C634 0.930 . S
H689 C637 0.929 . S
H690 C642 0.929 . S
H691 C643 0.930 . S
H692 C650 0.929 . S
H693 C651 0.930 . S
H694 C652 0.930 . S
H695 C653 0.930 . S
H696 C655 0.929 . S
H697 C656 0.930 . S
H698 C657 0.930 . S
H699 C658 0.930 . S
H700 C662 0.929 . S
H701 C664 0.930 . S
H702 C670 0.929 . S
H703 C671 0.930 . S
Li704 N721 1.990 . S
Li704 O764 1.956 . S
Li704 O765 1.970 . S
Li704 O766 1.961 . S
Li705 N729 1.990 . S
Li705 O764 1.970 . S
Li705 O765 1.956 . S
Li705 O767 1.961 . S
Li706 N751 1.990 1_554 S
Li706 O764 1.961 . S
Li706 O766 1.956 . S
Li706 O767 1.970 . S
Li707 N757 1.990 . S
Li707 O765 1.961 . S
Li707 O766 1.970 . S
Li707 O767 1.956 . S
C708 C710 1.348 . S
C708 C711 1.356 . S
C708 O764 1.325 . S
N709 C712 1.314 . S
N709 C713 1.279 . S
C710 C708 1.348 . S
C710 C712 1.353 . S
C710 H768 0.929 . S
C711 C708 1.356 . S
C711 C713 1.358 . S
C711 H769 0.930 . S
C712 N709 1.314 . S
C712 C710 1.353 . S
C712 H770 0.930 . S
C713 N709 1.279 . S
C713 C711 1.358 . S
C713 H771 0.930 . S
C714 C717 1.348 . S
C714 C718 1.356 . S
C714 O765 1.325 . S
C715 N716 1.279 . S
C715 C718 1.358 . S
C715 H772 0.930 . S
N716 C715 1.279 . S
N716 C719 1.314 . S
C717 C714 1.348 . S
C717 C719 1.353 . S
C717 H773 0.929 . S
C718 C714 1.356 . S
C718 C715 1.358 . S
C718 H774 0.930 . S
C719 N716 1.314 . S
C719 C717 1.353 . S
C719 H775 0.930 . S
C720 N721 1.314 . S
C720 C725 1.353 . S
C720 H726 0.930 . S
N721 Li704 1.990 . S
N721 C720 1.314 . S
N721 C723 1.279 . S
C722 C723 1.358 . S
C722 C724 1.356 . S
C722 H776 0.930 . S
C723 N721 1.279 . S
C723 C722 1.358 . S
C723 H727 0.930 . S
C724 C722 1.356 . S
C724 C725 1.348 . S
C725 C720 1.353 . S
C725 C724 1.348 . S
C725 H777 0.929 . S
H726 C720 0.930 . S
H727 C723 0.930 . S
C728 N729 1.314 . S
C728 C730 1.353 . S
C728 H734 0.930 . S
N729 Li705 1.990 . S
N729 C728 1.314 . S
N729 C732 1.279 . S
C730 C728 1.353 . S
C730 C733 1.348 . S
C730 H778 0.929 . S
C731 C732 1.358 . S
C731 C733 1.356 . S
C731 H779 0.930 . S
C732 N729 1.279 . S
C732 C731 1.358 . S
C732 H735 0.930 . S
C733 C730 1.348 . S
C733 C731 1.356 . S
H734 C728 0.930 . S
H735 C732 0.930 . S
C736 C738 1.348 . S
C736 C739 1.356 . S
C736 O766 1.325 1_556 S
N737 C740 1.314 . S
N737 C741 1.279 . S
C738 C736 1.348 . S
C738 C740 1.353 . S
C738 H780 0.929 . S
C739 C736 1.356 . S
C739 C741 1.358 . S
C739 H781 0.930 . S
C740 N737 1.314 . S
C740 C738 1.353 . S
C740 H782 0.930 . S
C741 N737 1.279 . S
C741 C739 1.358 . S
C741 H783 0.930 . S
C742 C743 1.348 . S
C742 C744 1.356 . S
C742 O767 1.325 . S
C743 C742 1.348 . S
C743 C745 1.353 . S
C743 H784 0.929 . S
C744 C742 1.356 . S
C744 C746 1.358 . S
C744 H785 0.930 . S
C745 C743 1.353 . S
C745 N747 1.314 . S
C745 H786 0.930 . S
C746 C744 1.358 . S
C746 N747 1.279 . S
C746 H787 0.930 . S
N747 C745 1.314 . S
N747 C746 1.279 . S
C748 C750 1.353 . S
C748 N751 1.314 . S
C748 H754 0.930 1_556 S
C749 N751 1.279 . S
C749 C752 1.358 . S
C749 H755 0.930 . S
C750 C748 1.353 . S
C750 C753 1.348 . S
C750 H788 0.929 . S
N751 Li706 1.990 1_556 S
N751 C748 1.314 . S
N751 C749 1.279 . S
C752 C749 1.358 . S
C752 C753 1.356 . S
C752 H789 0.930 . S
C753 C750 1.348 . S
C753 C752 1.356 . S
H754 C748 0.930 1_554 S
H755 C749 0.930 . S
C756 N757 1.314 . S
C756 C758 1.353 . S
C756 H762 0.930 . S
N757 Li707 1.990 . S
N757 C756 1.314 . S
N757 C760 1.279 . S
C758 C756 1.353 . S
C758 C761 1.348 . S
C758 H790 0.929 . S
C759 C760 1.358 . S
C759 C761 1.356 . S
C759 H791 0.930 . S
C760 N757 1.279 . S
C760 C759 1.358 . S
C760 H763 0.930 . S
C761 C758 1.348 . S
C761 C759 1.356 . S
H762 C756 0.930 . S
H763 C760 0.930 . S
O764 Li704 1.956 . S
O764 Li705 1.970 . S
O764 Li706 1.961 . S
O764 C708 1.325 . S
O765 Li704 1.970 . S
O765 Li705 1.956 . S
O765 Li707 1.961 . S
O765 C714 1.325 . S
O766 Li704 1.961 . S
O766 Li706 1.956 . S
O766 Li707 1.970 . S
O766 C736 1.325 1_554 S
O767 Li705 1.961 . S
O767 Li706 1.970 . S
O767 Li707 1.956 . S
O767 C742 1.325 . S
H768 C710 0.929 . S
H769 C711 0.930 . S
H770 C712 0.930 . S
H771 C713 0.930 . S
H772 C715 0.930 . S
H773 C717 0.929 . S
H774 C718 0.930 . S
H775 C719 0.930 . S
H776 C722 0.930 . S
H777 C725 0.929 . S
H778 C730 0.929 . S
H779 C731 0.930 . S
H780 C738 0.929 . S
H781 C739 0.930 . S
H782 C740 0.930 . S
H783 C741 0.930 . S
H784 C743 0.929 . S
H785 C744 0.930 . S
H786 C745 0.930 . S
H787 C746 0.930 . S
H788 C750 0.929 . S
H789 C752 0.930 . S
H790 C758 0.929 . S
H791 C759 0.930 . S
Li792 N809 1.990 . S
Li792 O852 1.956 . S
Li792 O853 1.970 . S
Li792 O854 1.961 . S
Li793 N817 1.990 . S
Li793 O852 1.970 . S
Li793 O853 1.956 . S
Li793 O855 1.961 . S
Li794 N839 1.990 . S
Li794 O852 1.961 . S
Li794 O854 1.956 . S
Li794 O855 1.970 . S
Li795 N845 1.990 . S
Li795 O853 1.961 . S
Li795 O854 1.970 . S
Li795 O855 1.956 . S
C796 C798 1.348 . S
C796 C799 1.356 . S
C796 O852 1.325 . S
N797 C800 1.314 . S
N797 C801 1.279 . S
C798 C796 1.348 . S
C798 C800 1.353 . S
C798 H856 0.929 . S
C799 C796 1.356 . S
C799 C801 1.358 . S
C799 H857 0.930 . S
C800 N797 1.314 . S
C800 C798 1.353 . S
C800 H858 0.930 . S
C801 N797 1.279 . S
C801 C799 1.358 . S
C801 H859 0.930 . S
C802 C805 1.348 . S
C802 C806 1.356 . S
C802 O853 1.325 . S
C803 N804 1.279 . S
C803 C806 1.358 . S
C803 H860 0.930 . S
N804 C803 1.279 . S
N804 C807 1.314 . S
C805 C802 1.348 . S
C805 C807 1.353 . S
C805 H861 0.929 . S
C806 C802 1.356 . S
C806 C803 1.358 . S
C806 H862 0.930 . S
C807 N804 1.314 . S
C807 C805 1.353 . S
C807 H863 0.930 . S
C808 N809 1.314 . S
C808 C813 1.353 . S
C808 H814 0.930 . S
N809 Li792 1.990 . S
N809 C808 1.314 . S
N809 C811 1.279 . S
C810 C811 1.358 . S
C810 C812 1.356 . S
C810 H864 0.930 . S
C811 N809 1.279 . S
C811 C810 1.358 . S
C811 H815 0.930 . S
C812 C810 1.356 . S
C812 C813 1.348 . S
C813 C808 1.353 . S
C813 C812 1.348 . S
C813 H865 0.929 . S
H814 C808 0.930 . S
H815 C811 0.930 . S
C816 N817 1.314 . S
C816 C818 1.353 . S
C816 H822 0.930 . S
N817 Li793 1.990 . S
N817 C816 1.314 . S
N817 C820 1.279 . S
C818 C816 1.353 . S
C818 C821 1.348 . S
C818 H866 0.929 . S
C819 C820 1.358 . S
C819 C821 1.356 . S
C819 H867 0.930 . S
C820 N817 1.279 . S
C820 C819 1.358 . S
C820 H823 0.930 . S
C821 C818 1.348 . S
C821 C819 1.356 . S
H822 C816 0.930 . S
H823 C820 0.930 . S
C824 C826 1.348 . S
C824 C827 1.356 . S
C824 O854 1.325 . S
N825 C828 1.314 . S
N825 C829 1.279 . S
C826 C824 1.348 . S
C826 C828 1.353 . S
C826 H868 0.929 . S
C827 C824 1.356 . S
C827 C829 1.358 . S
C827 H869 0.930 . S
C828 N825 1.314 . S
C828 C826 1.353 . S
C828 H870 0.930 . S
C829 N825 1.279 . S
C829 C827 1.358 . S
C829 H871 0.930 . S
C830 C831 1.348 . S
C830 C832 1.356 . S
C830 O855 1.325 . S
C831 C830 1.348 . S
C831 C833 1.353 . S
C831 H872 0.929 . S
C832 C830 1.356 . S
C832 C834 1.358 . S
C832 H873 0.930 . S
C833 C831 1.353 . S
C833 N835 1.314 . S
C833 H874 0.930 . S
C834 C832 1.358 . S
C834 N835 1.279 . S
C834 H875 0.930 . S
N835 C833 1.314 . S
N835 C834 1.279 . S
C836 C838 1.353 . S
C836 N839 1.314 . S
C836 H842 0.930 . S
C837 N839 1.279 . S
C837 C840 1.358 . S
C837 H843 0.930 . S
C838 C836 1.353 . S
C838 C841 1.348 . S
C838 H876 0.929 . S
N839 Li794 1.990 . S
N839 C836 1.314 . S
N839 C837 1.279 . S
C840 C837 1.358 . S
C840 C841 1.356 . S
C840 H877 0.930 . S
C841 C838 1.348 . S
C841 C840 1.356 . S
H842 C836 0.930 . S
H843 C837 0.930 . S
C844 N845 1.314 . S
C844 C846 1.353 . S
C844 H850 0.930 . S
N845 Li795 1.990 . S
N845 C844 1.314 . S
N845 C848 1.279 . S
C846 C844 1.353 . S
C846 C849 1.348 . S
C846 H878 0.929 . S
C847 C848 1.358 . S
C847 C849 1.356 . S
C847 H879 0.930 . S
C848 N845 1.279 . S
C848 C847 1.358 . S
C848 H851 0.930 . S
C849 C846 1.348 . S
C849 C847 1.356 . S
H850 C844 0.930 . S
H851 C848 0.930 . S
O852 Li792 1.956 . S
O852 Li793 1.970 . S
O852 Li794 1.961 . S
O852 C796 1.325 . S
O853 Li792 1.970 . S
O853 Li793 1.956 . S
O853 Li795 1.961 . S
O853 C802 1.325 . S
O854 Li792 1.961 . S
O854 Li794 1.956 . S
O854 Li795 1.970 . S
O854 C824 1.325 . S
O855 Li793 1.961 . S
O855 Li794 1.970 . S
O855 Li795 1.956 . S
O855 C830 1.325 . S
H856 C798 0.929 . S
H857 C799 0.930 . S
H858 C800 0.930 . S
H859 C801 0.930 . S
H860 C803 0.930 . S
H861 C805 0.929 . S
H862 C806 0.930 . S
H863 C807 0.930 . S
H864 C810 0.930 . S
H865 C813 0.929 . S
H866 C818 0.929 . S
H867 C819 0.930 . S
H868 C826 0.929 . S
H869 C827 0.930 . S
H870 C828 0.930 . S
H871 C829 0.930 . S
H872 C831 0.929 . S
H873 C832 0.930 . S
H874 C833 0.930 . S
H875 C834 0.930 . S
H876 C838 0.929 . S
H877 C840 0.930 . S
H878 C846 0.929 . S
H879 C847 0.930 . S
Li880 N897 1.990 . S
Li880 O940 1.956 . S
Li880 O941 1.970 . S
Li880 O942 1.961 . S
Li881 N905 1.990 . S
Li881 O940 1.970 . S
Li881 O941 1.956 . S
Li881 O943 1.961 . S
Li882 N927 1.990 . S
Li882 O940 1.961 . S
Li882 O942 1.956 . S
Li882 O943 1.970 . S
Li883 N933 1.990 . S
Li883 O941 1.961 . S
Li883 O942 1.970 . S
Li883 O943 1.956 . S
C884 C886 1.348 . S
C884 C887 1.356 . S
C884 O940 1.325 . S
N885 C888 1.314 . S
N885 C889 1.279 . S
C886 C884 1.348 . S
C886 C888 1.353 . S
C886 H944 0.929 . S
C887 C884 1.356 . S
C887 C889 1.358 . S
C887 H945 0.930 . S
C888 N885 1.314 . S
C888 C886 1.353 . S
C888 H946 0.930 . S
C889 N885 1.279 . S
C889 C887 1.358 . S
C889 H947 0.930 . S
C890 C893 1.348 . S
C890 C894 1.356 . S
C890 O941 1.325 . S
C891 N892 1.279 . S
C891 C894 1.358 . S
C891 H948 0.930 . S
N892 C891 1.279 . S
N892 C895 1.314 . S
C893 C890 1.348 . S
C893 C895 1.353 . S
C893 H949 0.929 . S
C894 C890 1.356 . S
C894 C891 1.358 . S
C894 H950 0.930 . S
C895 N892 1.314 . S
C895 C893 1.353 . S
C895 H951 0.930 . S
C896 N897 1.314 . S
C896 C901 1.353 . S
C896 H902 0.930 . S
N897 Li880 1.990 . S
N897 C896 1.314 . S
N897 C899 1.279 . S
C898 C899 1.358 . S
C898 C900 1.356 . S
C898 H952 0.930 . S
C899 N897 1.279 . S
C899 C898 1.358 . S
C899 H903 0.930 . S
C900 C898 1.356 . S
C900 C901 1.348 . S
C901 C896 1.353 . S
C901 C900 1.348 . S
C901 H953 0.929 . S
H902 C896 0.930 . S
H903 C899 0.930 . S
C904 N905 1.314 . S
C904 C906 1.353 . S
C904 H910 0.930 . S
N905 Li881 1.990 . S
N905 C904 1.314 . S
N905 C908 1.279 . S
C906 C904 1.353 . S
C906 C909 1.348 . S
C906 H954 0.929 . S
C907 C908 1.358 . S
C907 C909 1.356 . S
C907 H955 0.930 . S
C908 N905 1.279 . S
C908 C907 1.358 . S
C908 H911 0.930 . S
C909 C906 1.348 . S
C909 C907 1.356 . S
H910 C904 0.930 . S
H911 C908 0.930 . S
C912 C914 1.348 . S
C912 C915 1.356 . S
C912 O942 1.325 . S
N913 C916 1.314 . S
N913 C917 1.279 . S
C914 C912 1.348 . S
C914 C916 1.353 . S
C914 H956 0.929 . S
C915 C912 1.356 . S
C915 C917 1.358 . S
C915 H957 0.930 . S
C916 N913 1.314 . S
C916 C914 1.353 . S
C916 H958 0.930 . S
C917 N913 1.279 . S
C917 C915 1.358 . S
C917 H959 0.930 . S
C918 C919 1.348 . S
C918 C920 1.356 . S
C918 O943 1.325 . S
C919 C918 1.348 . S
C919 C921 1.353 . S
C919 H960 0.929 . S
C920 C918 1.356 . S
C920 C922 1.358 . S
C920 H961 0.930 . S
C921 C919 1.353 . S
C921 N923 1.314 . S
C921 H962 0.930 . S
C922 C920 1.358 . S
C922 N923 1.279 . S
C922 H963 0.930 . S
N923 C921 1.314 . S
N923 C922 1.279 . S
C924 C926 1.353 . S
C924 N927 1.314 . S
C924 H930 0.930 . S
C925 N927 1.279 . S
C925 C928 1.358 . S
C925 H931 0.930 . S
C926 C924 1.353 . S
C926 C929 1.348 . S
C926 H964 0.929 . S
N927 Li882 1.990 . S
N927 C924 1.314 . S
N927 C925 1.279 . S
C928 C925 1.358 . S
C928 C929 1.356 . S
C928 H965 0.930 . S
C929 C926 1.348 . S
C929 C928 1.356 . S
H930 C924 0.930 . S
H931 C925 0.930 . S
C932 N933 1.314 . S
C932 C934 1.353 . S
C932 H938 0.930 . S
N933 Li883 1.990 . S
N933 C932 1.314 . S
N933 C936 1.279 . S
C934 C932 1.353 . S
C934 C937 1.348 . S
C934 H966 0.929 . S
C935 C936 1.358 . S
C935 C937 1.356 . S
C935 H967 0.930 . S
C936 N933 1.279 . S
C936 C935 1.358 . S
C936 H939 0.930 . S
C937 C934 1.348 . S
C937 C935 1.356 . S
H938 C932 0.930 . S
H939 C936 0.930 . S
O940 Li880 1.956 . S
O940 Li881 1.970 . S
O940 Li882 1.961 . S
O940 C884 1.325 . S
O941 Li880 1.970 . S
O941 Li881 1.956 . S
O941 Li883 1.961 . S
O941 C890 1.325 . S
O942 Li880 1.961 . S
O942 Li882 1.956 . S
O942 Li883 1.970 . S
O942 C912 1.325 . S
O943 Li881 1.961 . S
O943 Li882 1.970 . S
O943 Li883 1.956 . S
O943 C918 1.325 . S
H944 C886 0.929 . S
H945 C887 0.930 . S
H946 C888 0.930 . S
H947 C889 0.930 . S
H948 C891 0.930 . S
H949 C893 0.929 . S
H950 C894 0.930 . S
H951 C895 0.930 . S
H952 C898 0.930 . S
H953 C901 0.929 . S
H954 C906 0.929 . S
H955 C907 0.930 . S
H956 C914 0.929 . S
H957 C915 0.930 . S
H958 C916 0.930 . S
H959 C917 0.930 . S
H960 C919 0.929 . S
H961 C920 0.930 . S
H962 C921 0.930 . S
H963 C922 0.930 . S
H964 C926 0.929 . S
H965 C928 0.930 . S
H966 C934 0.929 . S
H967 C935 0.930 . S
Li968 N985 1.990 . S
Li968 O1028 1.956 . S
Li968 O1029 1.970 . S
Li968 O1030 1.961 . S
Li969 N993 1.990 . S
Li969 O1028 1.970 . S
Li969 O1029 1.956 . S
Li969 O1031 1.961 . S
Li970 N1015 1.990 . S
Li970 O1028 1.961 . S
Li970 O1030 1.956 . S
Li970 O1031 1.970 . S
Li971 N1021 1.990 1_554 S
Li971 O1029 1.961 . S
Li971 O1030 1.970 . S
Li971 O1031 1.956 . S
C972 C974 1.348 . S
C972 C975 1.356 . S
C972 O1028 1.325 . S
N973 C976 1.314 . S
N973 C977 1.279 . S
C974 C972 1.348 . S
C974 C976 1.353 . S
C974 H1032 0.929 . S
C975 C972 1.356 . S
C975 C977 1.358 . S
C975 H1033 0.930 . S
C976 N973 1.314 . S
C976 C974 1.353 . S
C976 H1034 0.930 . S
C977 N973 1.279 . S
C977 C975 1.358 . S
C977 H1035 0.930 . S
C978 C981 1.348 . S
C978 C982 1.356 . S
C978 O1029 1.325 . S
C979 N980 1.279 . S
C979 C982 1.358 . S
C979 H1036 0.930 . S
N980 C979 1.279 . S
N980 C983 1.314 . S
C981 C978 1.348 . S
C981 C983 1.353 . S
C981 H1037 0.929 . S
C982 C978 1.356 . S
C982 C979 1.358 . S
C982 H1038 0.930 . S
C983 N980 1.314 . S
C983 C981 1.353 . S
C983 H1039 0.930 . S
C984 N985 1.314 . S
C984 C989 1.353 . S
C984 H990 0.930 . S
N985 Li968 1.990 . S
N985 C984 1.314 . S
N985 C987 1.279 . S
C986 C987 1.358 . S
C986 C988 1.356 . S
C986 H1040 0.930 . S
C987 N985 1.279 . S
C987 C986 1.358 . S
C987 H991 0.930 . S
C988 C986 1.356 . S
C988 C989 1.348 . S
C989 C984 1.353 . S
C989 C988 1.348 . S
C989 H1041 0.929 . S
H990 C984 0.930 . S
H991 C987 0.930 . S
C992 N993 1.314 . S
C992 C994 1.353 . S
C992 H998 0.930 . S
N993 Li969 1.990 . S
N993 C992 1.314 . S
N993 C996 1.279 . S
C994 C992 1.353 . S
C994 C997 1.348 . S
C994 H1042 0.929 . S
C995 C996 1.358 . S
C995 C997 1.356 . S
C995 H1043 0.930 . S
C996 N993 1.279 . S
C996 C995 1.358 . S
C996 H999 0.930 . S
C997 C994 1.348 . S
C997 C995 1.356 . S
H998 C992 0.930 . S
H999 C996 0.930 . S
C1000 C1002 1.348 . S
C1000 C1003 1.356 . S
C1000 O1030 1.325 . S
N1001 C1004 1.314 . S
N1001 C1005 1.279 . S
C1002 C1000 1.348 . S
C1002 C1004 1.353 . S
C1002 H1044 0.929 . S
C1003 C1000 1.356 . S
C1003 C1005 1.358 . S
C1003 H1045 0.930 . S
C1004 N1001 1.314 . S
C1004 C1002 1.353 . S
C1004 H1046 0.930 . S
C1005 N1001 1.279 . S
C1005 C1003 1.358 . S
C1005 H1047 0.930 . S
C1006 C1007 1.348 . S
C1006 C1008 1.356 . S
C1006 O1031 1.325 1_556 S
C1007 C1006 1.348 . S
C1007 C1009 1.353 . S
C1007 H1048 0.929 . S
C1008 C1006 1.356 . S
C1008 C1010 1.358 . S
C1008 H1049 0.930 . S
C1009 C1007 1.353 . S
C1009 N1011 1.314 . S
C1009 H1050 0.930 . S
C1010 C1008 1.358 . S
C1010 N1011 1.279 . S
C1010 H1051 0.930 . S
N1011 C1009 1.314 . S
N1011 C1010 1.279 . S
C1012 C1014 1.353 . S
C1012 N1015 1.314 . S
C1012 H1018 0.930 . S
C1013 N1015 1.279 . S
C1013 C1016 1.358 . S
C1013 H1019 0.930 . S
C1014 C1012 1.353 . S
C1014 C1017 1.348 . S
C1014 H1052 0.929 . S
N1015 Li970 1.990 . S
N1015 C1012 1.314 . S
N1015 C1013 1.279 . S
C1016 C1013 1.358 . S
C1016 C1017 1.356 . S
C1016 H1053 0.930 . S
C1017 C1014 1.348 . S
C1017 C1016 1.356 . S
H1018 C1012 0.930 . S
H1019 C1013 0.930 . S
C1020 N1021 1.314 . S
C1020 C1022 1.353 . S
C1020 H1026 0.930 1_556 S
N1021 Li971 1.990 1_556 S
N1021 C1020 1.314 . S
N1021 C1024 1.279 . S
C1022 C1020 1.353 . S
C1022 C1025 1.348 . S
C1022 H1054 0.929 . S
C1023 C1024 1.358 . S
C1023 C1025 1.356 . S
C1023 H1055 0.930 . S
C1024 N1021 1.279 . S
C1024 C1023 1.358 . S
C1024 H1027 0.930 . S
C1025 C1022 1.348 . S
C1025 C1023 1.356 . S
H1026 C1020 0.930 1_554 S
H1027 C1024 0.930 . S
O1028 Li968 1.956 . S
O1028 Li969 1.970 . S
O1028 Li970 1.961 . S
O1028 C972 1.325 . S
O1029 Li968 1.970 . S
O1029 Li969 1.956 . S
O1029 Li971 1.961 . S
O1029 C978 1.325 . S
O1030 Li968 1.961 . S
O1030 Li970 1.956 . S
O1030 Li971 1.970 . S
O1030 C1000 1.325 . S
O1031 Li969 1.961 . S
O1031 Li970 1.970 . S
O1031 Li971 1.956 . S
O1031 C1006 1.325 1_554 S
H1032 C974 0.929 . S
H1033 C975 0.930 . S
H1034 C976 0.930 . S
H1035 C977 0.930 . S
H1036 C979 0.930 . S
H1037 C981 0.929 . S
H1038 C982 0.930 . S
H1039 C983 0.930 . S
H1040 C986 0.930 . S
H1041 C989 0.929 . S
H1042 C994 0.929 . S
H1043 C995 0.930 . S
H1044 C1002 0.929 . S
H1045 C1003 0.930 . S
H1046 C1004 0.930 . S
H1047 C1005 0.930 . S
H1048 C1007 0.929 . S
H1049 C1008 0.930 . S
H1050 C1009 0.930 . S
H1051 C1010 0.930 . S
H1052 C1014 0.929 . S
H1053 C1016 0.930 . S
H1054 C1022 0.929 . S
H1055 C1023 0.930 . S
C1056 C1057 1.391 . S
C1056 C1058 1.394 . S
C1056 H1072 0.931 . S
C1057 C1056 1.391 . S
C1057 C1061 1.376 . S
C1058 C1056 1.394 . S
C1058 C1059 1.369 . S
C1058 C1062 1.531 . S
C1059 C1058 1.369 . S
C1059 C1060 1.410 . S
C1059 C1067 1.503 . S
C1060 C1059 1.410 . S
C1060 C1061 1.392 . S
C1060 C1063 1.511 . S
C1061 C1057 1.376 . S
C1061 C1060 1.392 . S
C1061 H1073 0.929 . S
C1062 C1058 1.531 . S
C1062 H1074 0.960 . S
C1062 H1075 0.962 . S
C1062 H1076 0.960 . S
C1063 C1060 1.511 . S
C1063 H1077 0.961 . S
C1063 H1078 0.961 . S
C1063 H1079 0.961 . S
C1064 C1065 1.370 . S
C1064 C1066 1.363 . S
C1064 H1080 0.931 . S
C1065 C1064 1.370 . S
C1065 C1069 1.408 . S
C1066 C1064 1.363 . S
C1066 C1067 1.370 . S
C1066 C1070 1.524 . S
C1067 C1059 1.503 . S
C1067 C1066 1.370 . S
C1067 C1068 1.403 . S
C1068 C1067 1.403 . S
C1068 C1069 1.404 . S
C1068 C1071 1.539 . S
C1069 C1065 1.408 . S
C1069 C1068 1.404 . S
C1069 H1081 0.930 . S
C1070 C1066 1.524 . S
C1070 H1082 0.956 . S
C1070 H1083 0.961 . S
C1070 H1084 0.961 . S
C1071 C1068 1.539 . S
C1071 H1085 0.958 . S
C1071 H1086 0.961 . S
C1071 H1087 0.960 . S
H1072 C1056 0.931 . S
H1073 C1061 0.929 . S
H1074 C1062 0.960 . S
H1075 C1062 0.962 . S
H1076 C1062 0.960 . S
H1077 C1063 0.961 . S
H1078 C1063 0.961 . S
H1079 C1063 0.961 . S
H1080 C1064 0.931 . S
H1081 C1069 0.930 . S
H1082 C1070 0.956 . S
H1083 C1070 0.961 . S
H1084 C1070 0.961 . S
H1085 C1071 0.958 . S
H1086 C1071 0.961 . S
H1087 C1071 0.960 . S
C1088 C1089 1.391 . S
C1088 C1090 1.394 . S
C1088 H1104 0.931 . S
C1089 C1088 1.391 . S
C1089 C1093 1.376 . S
C1090 C1088 1.394 . S
C1090 C1091 1.369 . S
C1090 C1094 1.591 . S
C1091 C1090 1.369 . S
C1091 C1092 1.410 . S
C1091 C1099 1.503 1_655 S
C1092 C1091 1.410 . S
C1092 C1093 1.392 . S
C1092 C1095 1.511 . S
C1093 C1089 1.376 . S
C1093 C1092 1.392 . S
C1093 H1105 0.929 . S
C1094 C1090 1.591 . S
C1094 H1106 0.923 1_655 S
C1094 H1107 0.938 . S
C1094 H1108 0.973 . S
C1095 C1092 1.511 . S
C1095 H1109 0.961 . S
C1095 H1110 0.961 . S
C1095 H1111 0.961 . S
C1096 C1097 1.370 . S
C1096 C1098 1.363 . S
C1096 H1112 0.931 . S
C1097 C1096 1.370 . S
C1097 C1101 1.408 . S
C1098 C1096 1.363 . S
C1098 C1099 1.370 . S
C1098 C1102 1.515 1_455 S
C1099 C1091 1.503 1_455 S
C1099 C1098 1.370 . S
C1099 C1100 1.403 . S
C1100 C1099 1.403 . S
C1100 C1101 1.404 . S
C1100 C1103 1.539 . S
C1101 C1097 1.408 . S
C1101 C1100 1.404 . S
C1101 H1113 0.930 . S
C1102 C1098 1.515 1_655 S
C1102 H1114 0.954 . S
C1102 H1115 0.985 . S
C1102 H1116 0.947 1_655 S
C1103 C1100 1.539 . S
C1103 H1117 0.958 . S
C1103 H1118 0.961 . S
C1103 H1119 0.960 . S
H1104 C1088 0.931 . S
H1105 C1093 0.929 . S
H1106 C1094 0.923 1_455 S
H1107 C1094 0.938 . S
H1108 C1094 0.973 . S
H1109 C1095 0.961 . S
H1110 C1095 0.961 . S
H1111 C1095 0.961 . S
H1112 C1096 0.931 . S
H1113 C1101 0.930 . S
H1114 C1102 0.954 . S
H1115 C1102 0.985 . S
H1116 C1102 0.947 1_455 S
H1117 C1103 0.958 . S
H1118 C1103 0.961 . S
H1119 C1103 0.960 . S
C1120 C1121 1.391 . S
C1120 C1122 1.394 . S
C1120 H1136 0.931 . S
C1121 C1120 1.391 . S
C1121 C1125 1.376 . S
C1122 C1120 1.394 . S
C1122 C1123 1.369 1_556 S
C1122 C1126 1.531 1_556 S
C1123 C1122 1.369 1_554 S
C1123 C1124 1.410 1_554 S
C1123 C1131 1.503 1_565 S
C1124 C1123 1.410 1_556 S
C1124 C1125 1.392 . S
C1124 C1127 1.511 . S
C1125 C1121 1.376 . S
C1125 C1124 1.392 . S
C1125 H1137 0.929 . S
C1126 C1122 1.531 1_554 S
C1126 H1138 0.960 . S
C1126 H1139 0.962 1_554 S
C1126 H1140 0.960 . S
C1127 C1124 1.511 . S
C1127 H1141 0.961 . S
C1127 H1142 0.961 1_565 S
C1127 H1143 0.961 1_556 S
C1128 C1129 1.370 1_556 S
C1128 C1130 1.363 . S
C1128 H1144 0.931 . S
C1129 C1128 1.370 1_554 S
C1129 C1133 1.408 . S
C1130 C1128 1.363 . S
C1130 C1131 1.370 1_556 S
C1130 C1134 1.524 . S
C1131 C1123 1.503 1_545 S
C1131 C1130 1.370 1_554 S
C1131 C1132 1.403 . S
C1132 C1131 1.403 . S
C1132 C1133 1.404 . S
C1132 C1135 1.513 1_545 S
C1133 C1129 1.408 . S
C1133 C1132 1.404 . S
C1133 H1145 0.930 . S
C1134 C1130 1.524 . S
C1134 H1146 0.956 . S
C1134 H1147 0.961 . S
C1134 H1148 0.961 . S
C1135 C1132 1.513 1_565 S
C1135 H1149 0.950 . S
C1135 H1150 0.960 1_565 S
C1135 H1151 0.998 . S
H1136 C1120 0.931 . S
H1137 C1125 0.929 . S
H1138 C1126 0.960 . S
H1139 C1126 0.962 1_556 S
H1140 C1126 0.960 . S
H1141 C1127 0.961 . S
H1142 C1127 0.961 1_545 S
H1143 C1127 0.961 1_554 S
H1144 C1128 0.931 . S
H1145 C1133 0.930 . S
H1146 C1134 0.956 . S
H1147 C1134 0.961 . S
H1148 C1134 0.961 . S
H1149 C1135 0.950 . S
H1150 C1135 0.960 1_545 S
H1151 C1135 0.998 . S
C1152 C1153 1.391 . S
C1152 C1154 1.394 . S
C1152 H1168 0.931 . S
C1153 C1152 1.391 . S
C1153 C1157 1.376 . S
C1154 C1152 1.394 . S
C1154 C1155 1.369 . S
C1154 C1158 1.531 . S
C1155 C1154 1.369 . S
C1155 C1156 1.410 . S
C1155 C1163 1.503 . S
C1156 C1155 1.410 . S
C1156 C1157 1.392 . S
C1156 C1159 1.511 . S
C1157 C1153 1.376 . S
C1157 C1156 1.392 . S
C1157 H1169 0.929 . S
C1158 C1154 1.531 . S
C1158 H1170 0.960 . S
C1158 H1171 0.962 . S
C1158 H1172 0.960 . S
C1159 C1156 1.511 . S
C1159 H1173 0.961 . S
C1159 H1174 0.961 . S
C1159 H1175 0.961 . S
C1160 C1161 1.370 . S
C1160 C1162 1.363 . S
C1160 H1176 0.931 . S
C1161 C1160 1.370 . S
C1161 C1165 1.408 . S
C1162 C1160 1.363 . S
C1162 C1163 1.370 . S
C1162 C1166 1.524 . S
C1163 C1155 1.503 . S
C1163 C1162 1.370 . S
C1163 C1164 1.403 . S
C1164 C1163 1.403 . S
C1164 C1165 1.404 . S
C1164 C1167 1.539 . S
C1165 C1161 1.408 . S
C1165 C1164 1.404 . S
C1165 H1177 0.930 . S
C1166 C1162 1.524 . S
C1166 H1178 0.956 . S
C1166 H1179 0.961 . S
C1166 H1180 0.961 . S
C1167 C1164 1.539 . S
C1167 H1181 0.958 . S
C1167 H1182 0.961 . S
C1167 H1183 0.960 . S
H1168 C1152 0.931 . S
H1169 C1157 0.929 . S
H1170 C1158 0.960 . S
H1171 C1158 0.962 . S
H1172 C1158 0.960 . S
H1173 C1159 0.961 . S
H1174 C1159 0.961 . S
H1175 C1159 0.961 . S
H1176 C1160 0.931 . S
H1177 C1165 0.930 . S
H1178 C1166 0.956 . S
H1179 C1166 0.961 . S
H1180 C1166 0.961 . S
H1181 C1167 0.958 . S
H1182 C1167 0.961 . S
H1183 C1167 0.960 . S
C1184 C1185 1.391 . S
C1184 C1186 1.394 . S
C1184 H1200 0.931 . S
C1185 C1184 1.391 . S
C1185 C1189 1.376 . S
C1186 C1184 1.394 . S
C1186 C1187 1.369 . S
C1186 C1190 1.531 . S
C1187 C1186 1.369 . S
C1187 C1188 1.410 . S
C1187 C1195 1.503 1_655 S
C1188 C1187 1.410 . S
C1188 C1189 1.392 . S
C1188 C1191 1.511 . S
C1189 C1185 1.376 . S
C1189 C1188 1.392 . S
C1189 H1201 0.929 . S
C1190 C1186 1.531 . S
C1190 H1202 0.960 . S
C1190 H1203 0.962 . S
C1190 H1204 0.960 . S
C1191 C1188 1.511 . S
C1191 H1205 0.961 . S
C1191 H1206 0.961 1_655 S
C1191 H1207 0.961 . S
C1192 C1193 1.370 . S
C1192 C1194 1.363 . S
C1192 H1208 0.931 . S
C1193 C1192 1.370 . S
C1193 C1197 1.408 . S
C1194 C1192 1.363 . S
C1194 C1195 1.370 . S
C1194 C1198 1.524 . S
C1195 C1187 1.503 1_455 S
C1195 C1194 1.370 . S
C1195 C1196 1.403 . S
C1196 C1195 1.403 . S
C1196 C1197 1.404 . S
C1196 C1199 1.539 . S
C1197 C1193 1.408 . S
C1197 C1196 1.404 . S
C1197 H1209 0.930 . S
C1198 C1194 1.524 . S
C1198 H1210 0.956 . S
C1198 H1211 0.961 . S
C1198 H1212 0.961 . S
C1199 C1196 1.539 . S
C1199 H1213 0.958 1_455 S
C1199 H1214 0.961 . S
C1199 H1215 0.960 1_455 S
H1200 C1184 0.931 . S
H1201 C1189 0.929 . S
H1202 C1190 0.960 . S
H1203 C1190 0.962 . S
H1204 C1190 0.960 . S
H1205 C1191 0.961 . S
H1206 C1191 0.961 1_455 S
H1207 C1191 0.961 . S
H1208 C1192 0.931 . S
H1209 C1197 0.930 . S
H1210 C1198 0.956 . S
H1211 C1198 0.961 . S
H1212 C1198 0.961 . S
H1213 C1199 0.958 1_655 S
H1214 C1199 0.961 . S
H1215 C1199 0.960 1_655 S
C1216 C1217 1.391 . S
C1216 C1218 1.394 . S
C1216 H1232 0.931 . S
C1217 C1216 1.391 . S
C1217 C1221 1.376 . S
C1218 C1216 1.394 . S
C1218 C1219 1.369 . S
C1218 C1222 1.531 . S
C1219 C1218 1.369 . S
C1219 C1220 1.410 . S
C1219 C1227 1.503 1_564 S
C1220 C1219 1.410 . S
C1220 C1221 1.392 . S
C1220 C1223 1.511 1_554 S
C1221 C1217 1.376 . S
C1221 C1220 1.392 . S
C1221 H1233 0.929 . S
C1222 C1218 1.531 . S
C1222 H1234 0.960 1_565 S
C1222 H1235 0.962 . S
C1222 H1236 0.960 . S
C1223 C1220 1.511 1_556 S
C1223 H1237 0.961 . S
C1223 H1238 0.961 . S
C1223 H1239 0.978 . S
C1224 C1225 1.370 . S
C1224 C1226 1.363 . S
C1224 H1240 0.931 . S
C1225 C1224 1.370 . S
C1225 C1229 1.408 1_556 S
C1226 C1224 1.363 . S
C1226 C1227 1.370 . S
C1226 C1230 1.524 1_545 S
C1227 C1219 1.503 1_546 S
C1227 C1226 1.370 . S
C1227 C1228 1.403 1_556 S
C1228 C1227 1.403 1_554 S
C1228 C1229 1.404 . S
C1228 C1231 1.539 . S
C1229 C1225 1.408 1_554 S
C1229 C1228 1.404 . S
C1229 H1241 0.930 . S
C1230 C1226 1.524 1_565 S
C1230 H1242 0.956 . S
C1230 H1243 0.961 . S
C1230 H1244 0.961 1_565 S
C1231 C1228 1.539 . S
C1231 H1245 0.958 . S
C1231 H1246 0.961 . S
C1231 H1247 0.960 . S
H1232 C1216 0.931 . S
H1233 C1221 0.929 . S
H1234 C1222 0.960 1_545 S
H1235 C1222 0.962 . S
H1236 C1222 0.960 . S
H1237 C1223 0.961 . S
H1238 C1223 0.961 . S
H1239 C1223 0.978 . S
H1240 C1224 0.931 . S
H1241 C1229 0.930 . S
H1242 C1230 0.956 . S
H1243 C1230 0.961 . S
H1244 C1230 0.961 1_545 S
H1245 C1231 0.958 . S
H1246 C1231 0.961 . S
H1247 C1231 0.960 . S
C1248 C1249 1.391 . S
C1248 C1250 1.394 . S
C1248 H1264 0.931 . S
C1249 C1248 1.391 . S
C1249 C1253 1.376 . S
C1250 C1248 1.394 . S
C1250 C1251 1.369 . S
C1250 C1254 1.531 1_556 S
C1251 C1250 1.369 . S
C1251 C1252 1.410 . S
C1251 C1259 1.503 1_556 S
C1252 C1251 1.410 . S
C1252 C1253 1.392 . S
C1252 C1255 1.511 . S
C1253 C1249 1.376 . S
C1253 C1252 1.392 . S
C1253 H1265 0.929 . S
C1254 C1250 1.531 1_554 S
C1254 H1266 0.960 . S
C1254 H1267 0.962 . S
C1254 H1268 0.960 . S
C1255 C1252 1.511 . S
C1255 H1269 0.961 . S
C1255 H1270 0.961 . S
C1255 H1271 0.961 . S
C1256 C1257 1.370 . S
C1256 C1258 1.363 . S
C1256 H1272 0.931 . S
C1257 C1256 1.370 . S
C1257 C1261 1.408 . S
C1258 C1256 1.363 . S
C1258 C1259 1.370 . S
C1258 C1262 1.524 . S
C1259 C1251 1.503 1_554 S
C1259 C1258 1.370 . S
C1259 C1260 1.403 . S
C1260 C1259 1.403 . S
C1260 C1261 1.404 . S
C1260 C1263 1.539 . S
C1261 C1257 1.408 . S
C1261 C1260 1.404 . S
C1261 H1273 0.930 . S
C1262 C1258 1.524 . S
C1262 H1274 0.956 . S
C1262 H1275 0.961 1_554 S
C1262 H1276 0.961 . S
C1263 C1260 1.539 . S
C1263 H1277 0.958 . S
C1263 H1278 0.961 . S
C1263 H1279 0.960 1_554 S
H1264 C1248 0.931 . S
H1265 C1253 0.929 . S
H1266 C1254 0.960 . S
H1267 C1254 0.962 . S
H1268 C1254 0.960 . S
H1269 C1255 0.961 . S
H1270 C1255 0.961 . S
H1271 C1255 0.961 . S
H1272 C1256 0.931 . S
H1273 C1261 0.930 . S
H1274 C1262 0.956 . S
H1275 C1262 0.961 1_556 S
H1276 C1262 0.961 . S
H1277 C1263 0.958 . S
H1278 C1263 0.961 . S
H1279 C1263 0.960 1_556 S
C1280 C1281 1.391 . S
C1280 C1282 1.394 . S
C1280 H1296 0.931 . S
C1281 C1280 1.391 . S
C1281 C1285 1.376 . S
C1282 C1280 1.394 . S
C1282 C1283 1.369 . S
C1282 C1286 1.531 . S
C1283 C1282 1.369 . S
C1283 C1284 1.410 . S
C1283 C1291 1.503 . S
C1284 C1283 1.410 . S
C1284 C1285 1.392 . S
C1284 C1287 1.511 . S
C1285 C1281 1.376 . S
C1285 C1284 1.392 . S
C1285 H1297 0.929 . S
C1286 C1282 1.531 . S
C1286 H1298 0.960 . S
C1286 H1299 0.962 . S
C1286 H1300 0.960 . S
C1287 C1284 1.511 . S
C1287 H1301 0.961 . S
C1287 H1302 0.961 . S
C1287 H1303 0.961 . S
C1288 C1289 1.370 . S
C1288 C1290 1.363 . S
C1288 H1304 0.931 . S
C1289 C1288 1.370 . S
C1289 C1293 1.408 . S
C1290 C1288 1.363 . S
C1290 C1291 1.370 . S
C1290 C1294 1.524 . S
C1291 C1283 1.503 . S
C1291 C1290 1.370 . S
C1291 C1292 1.403 . S
C1292 C1291 1.403 . S
C1292 C1293 1.404 . S
C1292 C1295 1.539 . S
C1293 C1289 1.408 . S
C1293 C1292 1.404 . S
C1293 H1305 0.930 . S
C1294 C1290 1.524 . S
C1294 H1306 0.956 . S
C1294 H1307 0.961 . S
C1294 H1308 0.961 . S
C1295 C1292 1.539 . S
C1295 H1309 0.958 . S
C1295 H1310 0.961 . S
C1295 H1311 0.960 . S
H1296 C1280 0.931 . S
H1297 C1285 0.929 . S
H1298 C1286 0.960 . S
H1299 C1286 0.962 . S
H1300 C1286 0.960 . S
H1301 C1287 0.961 . S
H1302 C1287 0.961 . S
H1303 C1287 0.961 . S
H1304 C1288 0.931 . S
H1305 C1293 0.930 . S
H1306 C1294 0.956 . S
H1307 C1294 0.961 . S
H1308 C1294 0.961 . S
H1309 C1295 0.958 . S
H1310 C1295 0.961 . S
H1311 C1295 0.960 . S
C1312 C1313 1.391 . S
C1312 C1314 1.394 . S
C1312 H1328 0.931 . S
C1313 C1312 1.391 . S
C1313 C1317 1.376 . S
C1314 C1312 1.394 . S
C1314 C1315 1.369 . S
C1314 C1318 1.531 . S
C1315 C1314 1.369 . S
C1315 C1316 1.410 . S
C1315 C1323 1.503 . S
C1316 C1315 1.410 . S
C1316 C1317 1.392 . S
C1316 C1319 1.511 . S
C1317 C1313 1.376 . S
C1317 C1316 1.392 . S
C1317 H1329 0.929 . S
C1318 C1314 1.531 . S
C1318 H1330 0.960 . S
C1318 H1331 0.962 . S
C1318 H1332 0.960 . S
C1319 C1316 1.511 . S
C1319 H1333 0.961 . S
C1319 H1334 0.961 . S
C1319 H1335 0.961 . S
C1320 C1321 1.370 . S
C1320 C1322 1.363 . S
C1320 H1336 0.931 . S
C1321 C1320 1.370 . S
C1321 C1325 1.408 . S
C1322 C1320 1.363 . S
C1322 C1323 1.370 . S
C1322 C1326 1.524 . S
C1323 C1315 1.503 . S
C1323 C1322 1.370 . S
C1323 C1324 1.403 . S
C1324 C1323 1.403 . S
C1324 C1325 1.404 . S
C1324 C1327 1.539 . S
C1325 C1321 1.408 . S
C1325 C1324 1.404 . S
C1325 H1337 0.930 . S
C1326 C1322 1.524 . S
C1326 H1338 0.956 . S
C1326 H1339 0.961 . S
C1326 H1340 0.961 . S
C1327 C1324 1.539 . S
C1327 H1341 0.958 . S
C1327 H1342 0.961 . S
C1327 H1343 0.960 . S
H1328 C1312 0.931 . S
H1329 C1317 0.929 . S
H1330 C1318 0.960 . S
H1331 C1318 0.962 . S
H1332 C1318 0.960 . S
H1333 C1319 0.961 . S
H1334 C1319 0.961 . S
H1335 C1319 0.961 . S
H1336 C1320 0.931 . S
H1337 C1325 0.930 . S
H1338 C1326 0.956 . S
H1339 C1326 0.961 . S
H1340 C1326 0.961 . S
H1341 C1327 0.958 . S
H1342 C1327 0.961 . S
H1343 C1327 0.960 . S
C1344 C1345 1.391 . S
C1344 C1346 1.394 . S
C1344 H1360 0.931 . S
C1345 C1344 1.391 . S
C1345 C1349 1.376 . S
C1346 C1344 1.394 . S
C1346 C1347 1.369 . S
C1346 C1350 1.531 . S
C1347 C1346 1.369 . S
C1347 C1348 1.410 . S
C1347 C1355 1.503 1_554 S
C1348 C1347 1.410 . S
C1348 C1349 1.392 . S
C1348 C1351 1.511 . S
C1349 C1345 1.376 . S
C1349 C1348 1.392 . S
C1349 H1361 0.929 . S
C1350 C1346 1.531 . S
C1350 H1362 0.960 . S
C1350 H1363 0.962 . S
C1350 H1364 0.960 . S
C1351 C1348 1.511 . S
C1351 H1365 0.961 . S
C1351 H1366 0.961 1_554 S
C1351 H1367 0.961 . S
C1352 C1353 1.370 . S
C1352 C1354 1.363 . S
C1352 H1368 0.931 . S
C1353 C1352 1.370 . S
C1353 C1357 1.408 . S
C1354 C1352 1.363 . S
C1354 C1355 1.370 . S
C1354 C1358 1.524 . S
C1355 C1347 1.503 1_556 S
C1355 C1354 1.370 . S
C1355 C1356 1.403 . S
C1356 C1355 1.403 . S
C1356 C1357 1.404 . S
C1356 C1359 1.539 1_556 S
C1357 C1353 1.408 . S
C1357 C1356 1.404 . S
C1357 H1369 0.930 . S
C1358 C1354 1.524 . S
C1358 H1370 0.956 . S
C1358 H1371 0.961 . S
C1358 H1372 0.961 . S
C1359 C1356 1.539 1_554 S
C1359 H1373 0.958 . S
C1359 H1374 0.961 . S
C1359 H1375 0.960 . S
H1360 C1344 0.931 . S
H1361 C1349 0.929 . S
H1362 C1350 0.960 . S
H1363 C1350 0.962 . S
H1364 C1350 0.960 . S
H1365 C1351 0.961 . S
H1366 C1351 0.961 1_556 S
H1367 C1351 0.961 . S
H1368 C1352 0.931 . S
H1369 C1357 0.930 . S
H1370 C1358 0.956 . S
H1371 C1358 0.961 . S
H1372 C1358 0.961 . S
H1373 C1359 0.958 . S
H1374 C1359 0.961 . S
H1375 C1359 0.960 . S
C1376 C1377 1.391 . S
C1376 C1378 1.394 . S
C1376 H1392 0.931 . S
C1377 C1376 1.391 . S
C1377 C1381 1.376 . S
C1378 C1376 1.394 . S
C1378 C1379 1.369 . S
C1378 C1382 1.531 . S
C1379 C1378 1.369 . S
C1379 C1380 1.410 . S
C1379 C1387 1.503 . S
C1380 C1379 1.410 . S
C1380 C1381 1.392 . S
C1380 C1383 1.511 . S
C1381 C1377 1.376 . S
C1381 C1380 1.392 . S
C1381 H1393 0.929 . S
C1382 C1378 1.531 . S
C1382 H1394 0.960 . S
C1382 H1395 0.962 . S
C1382 H1396 0.960 . S
C1383 C1380 1.511 . S
C1383 H1397 0.961 . S
C1383 H1398 0.961 . S
C1383 H1399 0.961 . S
C1384 C1385 1.370 . S
C1384 C1386 1.363 . S
C1384 H1400 0.931 . S
C1385 C1384 1.370 . S
C1385 C1389 1.408 . S
C1386 C1384 1.363 . S
C1386 C1387 1.370 . S
C1386 C1390 1.524 . S
C1387 C1379 1.503 . S
C1387 C1386 1.370 . S
C1387 C1388 1.403 . S
C1388 C1387 1.403 . S
C1388 C1389 1.404 . S
C1388 C1391 1.539 . S
C1389 C1385 1.408 . S
C1389 C1388 1.404 . S
C1389 H1401 0.930 . S
C1390 C1386 1.524 . S
C1390 H1402 0.956 . S
C1390 H1403 0.961 . S
C1390 H1404 0.961 . S
C1391 C1388 1.539 . S
C1391 H1405 0.958 . S
C1391 H1406 0.961 . S
C1391 H1407 0.960 . S
H1392 C1376 0.931 . S
H1393 C1381 0.929 . S
H1394 C1382 0.960 . S
H1395 C1382 0.962 . S
H1396 C1382 0.960 . S
H1397 C1383 0.961 . S
H1398 C1383 0.961 . S
H1399 C1383 0.961 . S
H1400 C1384 0.931 . S
H1401 C1389 0.930 . S
H1402 C1390 0.956 . S
H1403 C1390 0.961 . S
H1404 C1390 0.961 . S
H1405 C1391 0.958 . S
H1406 C1391 0.961 . S
H1407 C1391 0.960 . S
C1408 C1409 1.391 . S
C1408 C1410 1.394 . S
C1408 H1424 0.931 . S
C1409 C1408 1.391 . S
C1409 C1413 1.376 . S
C1410 C1408 1.394 . S
C1410 C1411 1.369 . S
C1410 C1414 1.531 . S
C1411 C1410 1.369 . S
C1411 C1412 1.410 . S
C1411 C1419 1.503 . S
C1412 C1411 1.410 . S
C1412 C1413 1.392 . S
C1412 C1415 1.511 . S
C1413 C1409 1.376 . S
C1413 C1412 1.392 . S
C1413 H1425 0.929 . S
C1414 C1410 1.531 . S
C1414 H1426 0.960 . S
C1414 H1427 0.962 . S
C1414 H1428 0.960 . S
C1415 C1412 1.511 . S
C1415 H1429 0.961 . S
C1415 H1430 0.961 . S
C1415 H1431 0.961 . S
C1416 C1417 1.370 . S
C1416 C1418 1.363 . S
C1416 H1432 0.931 . S
C1417 C1416 1.370 . S
C1417 C1421 1.408 . S
C1418 C1416 1.363 . S
C1418 C1419 1.370 . S
C1418 C1422 1.524 . S
C1419 C1411 1.503 . S
C1419 C1418 1.370 . S
C1419 C1420 1.403 . S
C1420 C1419 1.403 . S
C1420 C1421 1.404 . S
C1420 C1423 1.539 . S
C1421 C1417 1.408 . S
C1421 C1420 1.404 . S
C1421 H1433 0.930 . S
C1422 C1418 1.524 . S
C1422 H1434 0.956 . S
C1422 H1435 0.961 . S
C1422 H1436 0.961 . S
C1423 C1420 1.539 . S
C1423 H1437 0.958 . S
C1423 H1438 0.961 . S
C1423 H1439 0.960 . S
H1424 C1408 0.931 . S
H1425 C1413 0.929 . S
H1426 C1414 0.960 . S
H1427 C1414 0.962 . S
H1428 C1414 0.960 . S
H1429 C1415 0.961 . S
H1430 C1415 0.961 . S
H1431 C1415 0.961 . S
H1432 C1416 0.931 . S
H1433 C1421 0.930 . S
H1434 C1422 0.956 . S
H1435 C1422 0.961 . S
H1436 C1422 0.961 . S
H1437 C1423 0.958 . S
H1438 C1423 0.961 . S
H1439 C1423 0.960 . S
C1440 C1441 1.391 . S
C1440 C1442 1.394 . S
C1440 H1456 0.931 . S
C1441 C1440 1.391 . S
C1441 C1445 1.376 . S
C1442 C1440 1.394 . S
C1442 C1443 1.369 . S
C1442 C1446 1.531 . S
C1443 C1442 1.369 . S
C1443 C1444 1.410 . S
C1443 C1451 1.503 . S
C1444 C1443 1.410 . S
C1444 C1445 1.392 . S
C1444 C1447 1.511 . S
C1445 C1441 1.376 . S
C1445 C1444 1.392 . S
C1445 H1457 0.929 . S
C1446 C1442 1.531 . S
C1446 H1458 0.960 . S
C1446 H1459 0.962 . S
C1446 H1460 0.960 . S
C1447 C1444 1.511 . S
C1447 H1461 0.961 . S
C1447 H1462 0.961 . S
C1447 H1463 0.961 . S
C1448 C1449 1.370 . S
C1448 C1450 1.363 . S
C1448 H1464 0.931 . S
C1449 C1448 1.370 . S
C1449 C1453 1.408 . S
C1450 C1448 1.363 . S
C1450 C1451 1.370 . S
C1450 C1454 1.524 . S
C1451 C1443 1.503 . S
C1451 C1450 1.370 . S
C1451 C1452 1.403 . S
C1452 C1451 1.403 . S
C1452 C1453 1.404 . S
C1452 C1455 1.539 . S
C1453 C1449 1.408 . S
C1453 C1452 1.404 . S
C1453 H1465 0.930 . S
C1454 C1450 1.524 . S
C1454 H1466 0.956 . S
C1454 H1467 0.961 . S
C1454 H1468 0.961 . S
C1455 C1452 1.539 . S
C1455 H1469 0.958 . S
C1455 H1470 0.961 . S
C1455 H1471 0.960 . S
H1456 C1440 0.931 . S
H1457 C1445 0.929 . S
H1458 C1446 0.960 . S
H1459 C1446 0.962 . S
H1460 C1446 0.960 . S
H1461 C1447 0.961 . S
H1462 C1447 0.961 . S
H1463 C1447 0.961 . S
H1464 C1448 0.931 . S
H1465 C1453 0.930 . S
H1466 C1454 0.956 . S
H1467 C1454 0.961 . S
H1468 C1454 0.961 . S
H1469 C1455 0.958 . S
H1470 C1455 0.961 . S
H1471 C1455 0.960 . S
C1472 C1473 1.391 . S
C1472 C1474 1.394 . S
C1472 H1488 0.931 . S
C1473 C1472 1.391 . S
C1473 C1477 1.376 . S
C1474 C1472 1.394 . S
C1474 C1475 1.369 . S
C1474 C1478 1.531 . S
C1475 C1474 1.369 . S
C1475 C1476 1.410 . S
C1475 C1483 1.503 . S
C1476 C1475 1.410 . S
C1476 C1477 1.392 . S
C1476 C1479 1.511 . S
C1477 C1473 1.376 . S
C1477 C1476 1.392 . S
C1477 H1489 0.929 . S
C1478 C1474 1.531 . S
C1478 H1490 0.960 . S
C1478 H1491 0.962 . S
C1478 H1492 0.960 . S
C1479 C1476 1.511 . S
C1479 H1493 0.961 . S
C1479 H1494 0.961 . S
C1479 H1495 0.961 . S
C1480 C1481 1.370 . S
C1480 C1482 1.363 . S
C1480 H1496 0.931 . S
C1481 C1480 1.370 . S
C1481 C1485 1.408 . S
C1482 C1480 1.363 . S
C1482 C1483 1.370 . S
C1482 C1486 1.524 . S
C1483 C1475 1.503 . S
C1483 C1482 1.370 . S
C1483 C1484 1.403 . S
C1484 C1483 1.403 . S
C1484 C1485 1.404 . S
C1484 C1487 1.539 . S
C1485 C1481 1.408 . S
C1485 C1484 1.404 . S
C1485 H1497 0.930 . S
C1486 C1482 1.524 . S
C1486 H1498 0.956 . S
C1486 H1499 0.961 . S
C1486 H1500 0.961 . S
C1487 C1484 1.539 . S
C1487 H1501 0.958 . S
C1487 H1502 0.961 . S
C1487 H1503 0.960 . S
H1488 C1472 0.931 . S
H1489 C1477 0.929 . S
H1490 C1478 0.960 . S
H1491 C1478 0.962 . S
H1492 C1478 0.960 . S
H1493 C1479 0.961 . S
H1494 C1479 0.961 . S
H1495 C1479 0.961 . S
H1496 C1480 0.931 . S
H1497 C1485 0.930 . S
H1498 C1486 0.956 . S
H1499 C1486 0.961 . S
H1500 C1486 0.961 . S
H1501 C1487 0.958 . S
H1502 C1487 0.961 . S
H1503 C1487 0.960 . S
C1504 C1505 1.391 . S
C1504 C1506 1.394 . S
C1504 H1520 0.931 . S
C1505 C1504 1.391 . S
C1505 C1509 1.376 . S
C1506 C1504 1.394 . S
C1506 C1507 1.369 . S
C1506 C1510 1.531 . S
C1507 C1506 1.369 . S
C1507 C1508 1.410 . S
C1507 C1515 1.503 . S
C1508 C1507 1.410 . S
C1508 C1509 1.392 . S
C1508 C1511 1.511 . S
C1509 C1505 1.376 . S
C1509 C1508 1.392 . S
C1509 H1521 0.929 . S
C1510 C1506 1.531 . S
C1510 H1522 0.960 . S
C1510 H1523 0.962 . S
C1510 H1524 0.960 . S
C1511 C1508 1.511 . S
C1511 H1525 0.961 . S
C1511 H1526 0.961 . S
C1511 H1527 0.961 . S
C1512 C1513 1.370 . S
C1512 C1514 1.363 . S
C1512 H1528 0.931 . S
C1513 C1512 1.370 . S
C1513 C1517 1.408 . S
C1514 C1512 1.363 . S
C1514 C1515 1.370 . S
C1514 C1518 1.524 . S
C1515 C1507 1.503 . S
C1515 C1514 1.370 . S
C1515 C1516 1.403 . S
C1516 C1515 1.403 . S
C1516 C1517 1.404 . S
C1516 C1519 1.539 . S
C1517 C1513 1.408 . S
C1517 C1516 1.404 . S
C1517 H1529 0.930 . S
C1518 C1514 1.524 . S
C1518 H1530 0.956 . S
C1518 H1531 0.961 . S
C1518 H1532 0.961 . S
C1519 C1516 1.539 . S
C1519 H1533 0.958 . S
C1519 H1534 0.961 . S
C1519 H1535 0.960 . S
H1520 C1504 0.931 . S
H1521 C1509 0.929 . S
H1522 C1510 0.960 . S
H1523 C1510 0.962 . S
H1524 C1510 0.960 . S
H1525 C1511 0.961 . S
H1526 C1511 0.961 . S
H1527 C1511 0.961 . S
H1528 C1512 0.931 . S
H1529 C1517 0.930 . S
H1530 C1518 0.956 . S
H1531 C1518 0.961 . S
H1532 C1518 0.961 . S
H1533 C1519 0.958 . S
H1534 C1519 0.961 . S
H1535 C1519 0.960 . S
C1536 C1537 1.391 . S
C1536 C1538 1.394 . S
C1536 H1552 0.931 . S
C1537 C1536 1.391 . S
C1537 C1541 1.376 . S
C1538 C1536 1.394 . S
C1538 C1539 1.369 . S
C1538 C1542 1.531 . S
C1539 C1538 1.369 . S
C1539 C1540 1.410 . S
C1539 C1547 1.503 . S
C1540 C1539 1.410 . S
C1540 C1541 1.392 . S
C1540 C1543 1.511 . S
C1541 C1537 1.376 . S
C1541 C1540 1.392 . S
C1541 H1553 0.929 . S
C1542 C1538 1.531 . S
C1542 H1554 0.960 . S
C1542 H1555 0.962 . S
C1542 H1556 0.960 . S
C1543 C1540 1.511 . S
C1543 H1557 0.961 . S
C1543 H1558 0.961 . S
C1543 H1559 0.961 . S
C1544 C1545 1.370 . S
C1544 C1546 1.363 . S
C1544 H1560 0.931 . S
C1545 C1544 1.370 . S
C1545 C1549 1.408 . S
C1546 C1544 1.363 . S
C1546 C1547 1.370 . S
C1546 C1550 1.524 . S
C1547 C1539 1.503 . S
C1547 C1546 1.370 . S
C1547 C1548 1.403 . S
C1548 C1547 1.403 . S
C1548 C1549 1.404 . S
C1548 C1551 1.539 . S
C1549 C1545 1.408 . S
C1549 C1548 1.404 . S
C1549 H1561 0.930 . S
C1550 C1546 1.524 . S
C1550 H1562 0.956 . S
C1550 H1563 0.961 . S
C1550 H1564 0.961 . S
C1551 C1548 1.539 . S
C1551 H1565 0.958 . S
C1551 H1566 0.961 . S
C1551 H1567 0.960 . S
H1552 C1536 0.931 . S
H1553 C1541 0.929 . S
H1554 C1542 0.960 . S
H1555 C1542 0.962 . S
H1556 C1542 0.960 . S
H1557 C1543 0.961 . S
H1558 C1543 0.961 . S
H1559 C1543 0.961 . S
H1560 C1544 0.931 . S
H1561 C1549 0.930 . S
H1562 C1550 0.956 . S
H1563 C1550 0.961 . S
H1564 C1550 0.961 . S
H1565 C1551 0.958 . S
H1566 C1551 0.961 . S
H1567 C1551 0.960 . S
C1568 C1569 1.391 . S
C1568 C1570 1.394 . S
C1568 H1584 0.931 . S
C1569 C1568 1.391 . S
C1569 C1573 1.376 . S
C1570 C1568 1.394 . S
C1570 C1571 1.369 . S
C1570 C1574 1.531 . S
C1571 C1570 1.369 . S
C1571 C1572 1.410 . S
C1571 C1579 1.503 . S
C1572 C1571 1.410 . S
C1572 C1573 1.392 . S
C1572 C1575 1.511 . S
C1573 C1569 1.376 . S
C1573 C1572 1.392 . S
C1573 H1585 0.929 . S
C1574 C1570 1.531 . S
C1574 H1586 0.960 . S
C1574 H1587 0.962 . S
C1574 H1588 0.960 . S
C1575 C1572 1.511 . S
C1575 H1589 0.961 . S
C1575 H1590 0.961 . S
C1575 H1591 0.961 . S
C1576 C1577 1.370 . S
C1576 C1578 1.363 . S
C1576 H1592 0.931 . S
C1577 C1576 1.370 . S
C1577 C1581 1.408 . S
C1578 C1576 1.363 . S
C1578 C1579 1.370 . S
C1578 C1582 1.524 . S
C1579 C1571 1.503 . S
C1579 C1578 1.370 . S
C1579 C1580 1.403 . S
C1580 C1579 1.403 . S
C1580 C1581 1.404 . S
C1580 C1583 1.539 . S
C1581 C1577 1.408 . S
C1581 C1580 1.404 . S
C1581 H1593 0.930 . S
C1582 C1578 1.524 . S
C1582 H1594 0.956 . S
C1582 H1595 0.961 . S
C1582 H1596 0.961 . S
C1583 C1580 1.539 . S
C1583 H1597 0.958 . S
C1583 H1598 0.961 . S
C1583 H1599 0.960 . S
H1584 C1568 0.931 . S
H1585 C1573 0.929 . S
H1586 C1574 0.960 . S
H1587 C1574 0.962 . S
H1588 C1574 0.960 . S
H1589 C1575 0.961 . S
H1590 C1575 0.961 . S
H1591 C1575 0.961 . S
H1592 C1576 0.931 . S
H1593 C1581 0.930 . S
H1594 C1582 0.956 . S
H1595 C1582 0.961 . S
H1596 C1582 0.961 . S
H1597 C1583 0.958 . S
H1598 C1583 0.961 . S
H1599 C1583 0.960 . S
C1600 C1601 1.391 . S
C1600 C1602 1.394 . S
C1600 H1616 0.931 . S
C1601 C1600 1.391 . S
C1601 C1605 1.376 . S
C1602 C1600 1.394 . S
C1602 C1603 1.369 . S
C1602 C1606 1.531 . S
C1603 C1602 1.369 . S
C1603 C1604 1.410 . S
C1603 C1611 1.503 . S
C1604 C1603 1.410 . S
C1604 C1605 1.392 . S
C1604 C1607 1.511 . S
C1605 C1601 1.376 . S
C1605 C1604 1.392 . S
C1605 H1617 0.929 . S
C1606 C1602 1.531 . S
C1606 H1618 0.960 . S
C1606 H1619 0.962 . S
C1606 H1620 0.960 . S
C1607 C1604 1.511 . S
C1607 H1621 0.961 . S
C1607 H1622 0.961 . S
C1607 H1623 0.961 . S
C1608 C1609 1.370 . S
C1608 C1610 1.363 . S
C1608 H1624 0.931 . S
C1609 C1608 1.370 . S
C1609 C1613 1.408 . S
C1610 C1608 1.363 . S
C1610 C1611 1.370 . S
C1610 C1614 1.524 . S
C1611 C1603 1.503 . S
C1611 C1610 1.370 . S
C1611 C1612 1.403 . S
C1612 C1611 1.403 . S
C1612 C1613 1.404 . S
C1612 C1615 1.539 . S
C1613 C1609 1.408 . S
C1613 C1612 1.404 . S
C1613 H1625 0.930 . S
C1614 C1610 1.524 . S
C1614 H1626 0.956 . S
C1614 H1627 0.961 . S
C1614 H1628 0.961 . S
C1615 C1612 1.539 . S
C1615 H1629 0.958 . S
C1615 H1630 0.961 . S
C1615 H1631 0.960 . S
H1616 C1600 0.931 . S
H1617 C1605 0.929 . S
H1618 C1606 0.960 . S
H1619 C1606 0.962 . S
H1620 C1606 0.960 . S
H1621 C1607 0.961 . S
H1622 C1607 0.961 . S
H1623 C1607 0.961 . S
H1624 C1608 0.931 . S
H1625 C1613 0.930 . S
H1626 C1614 0.956 . S
H1627 C1614 0.961 . S
H1628 C1614 0.961 . S
H1629 C1615 0.958 . S
H1630 C1615 0.961 . S
H1631 C1615 0.960 . S
C1632 C1633 1.391 . S
C1632 C1634 1.394 . S
C1632 H1648 0.931 . S
C1633 C1632 1.391 . S
C1633 C1637 1.376 . S
C1634 C1632 1.394 . S
C1634 C1635 1.369 . S
C1634 C1638 1.531 . S
C1635 C1634 1.369 . S
C1635 C1636 1.410 . S
C1635 C1643 1.503 . S
C1636 C1635 1.410 . S
C1636 C1637 1.392 . S
C1636 C1639 1.511 . S
C1637 C1633 1.376 . S
C1637 C1636 1.392 . S
C1637 H1649 0.929 . S
C1638 C1634 1.531 . S
C1638 H1650 0.960 . S
C1638 H1651 0.962 . S
C1638 H1652 0.960 . S
C1639 C1636 1.511 . S
C1639 H1653 0.961 . S
C1639 H1654 0.961 . S
C1639 H1655 0.961 . S
C1640 C1641 1.370 . S
C1640 C1642 1.363 . S
C1640 H1656 0.931 . S
C1641 C1640 1.370 . S
C1641 C1645 1.408 . S
C1642 C1640 1.363 . S
C1642 C1643 1.370 . S
C1642 C1646 1.524 . S
C1643 C1635 1.503 . S
C1643 C1642 1.370 . S
C1643 C1644 1.403 . S
C1644 C1643 1.403 . S
C1644 C1645 1.404 . S
C1644 C1647 1.539 . S
C1645 C1641 1.408 . S
C1645 C1644 1.404 . S
C1645 H1657 0.930 . S
C1646 C1642 1.524 . S
C1646 H1658 0.956 . S
C1646 H1659 0.961 . S
C1646 H1660 0.961 . S
C1647 C1644 1.539 . S
C1647 H1661 0.958 . S
C1647 H1662 0.961 . S
C1647 H1663 0.960 . S
H1648 C1632 0.931 . S
H1649 C1637 0.929 . S
H1650 C1638 0.960 . S
H1651 C1638 0.962 . S
H1652 C1638 0.960 . S
H1653 C1639 0.961 . S
H1654 C1639 0.961 . S
H1655 C1639 0.961 . S
H1656 C1640 0.931 . S
H1657 C1645 0.930 . S
H1658 C1646 0.956 . S
H1659 C1646 0.961 . S
H1660 C1646 0.961 . S
H1661 C1647 0.958 . S
H1662 C1647 0.961 . S
H1663 C1647 0.960 . S
C1664 C1665 1.391 . S
C1664 C1666 1.394 . S
C1664 H1680 0.931 . S
C1665 C1664 1.391 . S
C1665 C1669 1.376 . S
C1666 C1664 1.394 . S
C1666 C1667 1.369 . S
C1666 C1670 1.531 . S
C1667 C1666 1.369 . S
C1667 C1668 1.410 . S
C1667 C1675 1.503 . S
C1668 C1667 1.410 . S
C1668 C1669 1.392 . S
C1668 C1671 1.511 . S
C1669 C1665 1.376 . S
C1669 C1668 1.392 . S
C1669 H1681 0.929 . S
C1670 C1666 1.531 . S
C1670 H1682 0.960 . S
C1670 H1683 0.962 . S
C1670 H1684 0.960 . S
C1671 C1668 1.511 . S
C1671 H1685 0.961 . S
C1671 H1686 0.961 . S
C1671 H1687 0.961 . S
C1672 C1673 1.370 . S
C1672 C1674 1.363 . S
C1672 H1688 0.931 . S
C1673 C1672 1.370 . S
C1673 C1677 1.408 . S
C1674 C1672 1.363 . S
C1674 C1675 1.370 . S
C1674 C1678 1.524 . S
C1675 C1667 1.503 . S
C1675 C1674 1.370 . S
C1675 C1676 1.403 . S
C1676 C1675 1.403 . S
C1676 C1677 1.404 . S
C1676 C1679 1.539 . S
C1677 C1673 1.408 . S
C1677 C1676 1.404 . S
C1677 H1689 0.930 . S
C1678 C1674 1.524 . S
C1678 H1690 0.956 . S
C1678 H1691 0.961 . S
C1678 H1692 0.961 . S
C1679 C1676 1.539 . S
C1679 H1693 0.958 . S
C1679 H1694 0.961 . S
C1679 H1695 0.960 . S
H1680 C1664 0.931 . S
H1681 C1669 0.929 . S
H1682 C1670 0.960 . S
H1683 C1670 0.962 . S
H1684 C1670 0.960 . S
H1685 C1671 0.961 . S
H1686 C1671 0.961 . S
H1687 C1671 0.961 . S
H1688 C1672 0.931 . S
H1689 C1677 0.930 . S
H1690 C1678 0.956 . S
H1691 C1678 0.961 . S
H1692 C1678 0.961 . S
H1693 C1679 0.958 . S
H1694 C1679 0.961 . S
H1695 C1679 0.960 . S
C1696 C1697 1.391 1_554 S
C1696 C1698 1.394 . S
C1696 H1712 0.931 . S
C1697 C1696 1.391 1_556 S
C1697 C1701 1.376 . S
C1698 C1696 1.394 . S
C1698 C1699 1.369 1_554 S
C1698 C1702 1.531 . S
C1699 C1698 1.369 1_556 S
C1699 C1700 1.410 . S
C1699 C1707 1.503 1_556 S
C1700 C1699 1.410 . S
C1700 C1701 1.392 . S
C1700 C1703 1.511 . S
C1701 C1697 1.376 . S
C1701 C1700 1.392 . S
C1701 H1713 0.929 . S
C1702 C1698 1.531 . S
C1702 H1714 0.960 . S
C1702 H1715 0.962 . S
C1702 H1716 0.960 . S
C1703 C1700 1.511 . S
C1703 H1717 0.961 . S
C1703 H1718 0.961 . S
C1703 H1719 0.961 . S
C1704 C1705 1.370 . S
C1704 C1706 1.363 . S
C1704 H1720 0.931 . S
C1705 C1704 1.370 . S
C1705 C1709 1.408 . S
C1706 C1704 1.363 . S
C1706 C1707 1.370 . S
C1706 C1710 1.524 . S
C1707 C1699 1.503 1_554 S
C1707 C1706 1.370 . S
C1707 C1708 1.403 . S
C1708 C1707 1.403 . S
C1708 C1709 1.405 . S
C1708 C1711 1.537 1_554 S
C1709 C1705 1.408 . S
C1709 C1708 1.405 . S
C1709 H1721 0.930 . S
C1710 C1706 1.524 . S
C1710 H1722 0.956 . S
C1710 H1723 0.961 . S
C1710 H1724 0.961 . S
C1711 C1708 1.537 1_556 S
C1711 H1725 0.958 . S
C1711 H1726 0.961 . S
C1711 H1727 0.960 . S
H1712 C1696 0.931 . S
H1713 C1701 0.929 . S
H1714 C1702 0.960 . S
H1715 C1702 0.962 . S
H1716 C1702 0.960 . S
H1717 C1703 0.961 . S
H1718 C1703 0.961 . S
H1719 C1703 0.961 . S
H1720 C1704 0.931 . S
H1721 C1709 0.930 . S
H1722 C1710 0.956 . S
H1723 C1710 0.961 . S
H1724 C1710 0.961 . S
H1725 C1711 0.958 . S
H1726 C1711 0.961 . S
H1727 C1711 0.960 . S
C1728 C1729 1.391 . S
C1728 C1730 1.394 . S
C1728 H1744 0.931 . S
C1729 C1728 1.391 . S
C1729 C1733 1.376 . S
C1730 C1728 1.394 . S
C1730 C1731 1.369 . S
C1730 C1734 1.531 . S
C1731 C1730 1.369 . S
C1731 C1732 1.410 . S
C1731 C1739 1.503 . S
C1732 C1731 1.410 . S
C1732 C1733 1.392 . S
C1732 C1735 1.511 . S
C1733 C1729 1.376 . S
C1733 C1732 1.392 . S
C1733 H1745 0.929 . S
C1734 C1730 1.531 . S
C1734 H1746 0.960 . S
C1734 H1747 0.962 . S
C1734 H1748 0.960 . S
C1735 C1732 1.511 . S
C1735 H1749 0.961 . S
C1735 H1750 0.961 . S
C1735 H1751 0.961 . S
C1736 C1737 1.370 . S
C1736 C1738 1.363 . S
C1736 H1752 0.931 . S
C1737 C1736 1.370 . S
C1737 C1741 1.408 . S
C1738 C1736 1.363 . S
C1738 C1739 1.370 . S
C1738 C1742 1.524 . S
C1739 C1731 1.503 . S
C1739 C1738 1.370 . S
C1739 C1740 1.403 . S
C1740 C1739 1.403 . S
C1740 C1741 1.404 . S
C1740 C1743 1.539 . S
C1741 C1737 1.408 . S
C1741 C1740 1.404 . S
C1741 H1753 0.930 . S
C1742 C1738 1.524 . S
C1742 H1754 0.956 . S
C1742 H1755 0.961 . S
C1742 H1756 0.961 . S
C1743 C1740 1.539 . S
C1743 H1757 0.958 . S
C1743 H1758 0.961 . S
C1743 H1759 0.960 . S
H1744 C1728 0.931 . S
H1745 C1733 0.929 . S
H1746 C1734 0.960 . S
H1747 C1734 0.962 . S
H1748 C1734 0.960 . S
H1749 C1735 0.961 . S
H1750 C1735 0.961 . S
H1751 C1735 0.961 . S
H1752 C1736 0.931 . S
H1753 C1741 0.930 . S
H1754 C1742 0.956 . S
H1755 C1742 0.961 . S
H1756 C1742 0.961 . S
H1757 C1743 0.958 . S
H1758 C1743 0.961 . S
H1759 C1743 0.960 . S
C1760 C1761 1.391 . S
C1760 C1762 1.394 . S
C1760 H1776 0.931 . S
C1761 C1760 1.391 . S
C1761 C1765 1.376 . S
C1762 C1760 1.394 . S
C1762 C1763 1.369 . S
C1762 C1766 1.531 . S
C1763 C1762 1.369 . S
C1763 C1764 1.410 . S
C1763 C1771 1.503 . S
C1764 C1763 1.410 . S
C1764 C1765 1.392 . S
C1764 C1767 1.511 . S
C1765 C1761 1.376 . S
C1765 C1764 1.392 . S
C1765 H1777 0.929 . S
C1766 C1762 1.531 . S
C1766 H1778 0.960 . S
C1766 H1779 0.962 . S
C1766 H1780 0.960 . S
C1767 C1764 1.511 . S
C1767 H1781 0.961 . S
C1767 H1782 0.961 . S
C1767 H1783 0.961 . S
C1768 C1769 1.370 . S
C1768 C1770 1.363 . S
C1768 H1784 0.931 . S
C1769 C1768 1.370 . S
C1769 C1773 1.408 . S
C1770 C1768 1.363 . S
C1770 C1771 1.370 . S
C1770 C1774 1.524 . S
C1771 C1763 1.503 . S
C1771 C1770 1.370 . S
C1771 C1772 1.403 . S
C1772 C1771 1.403 . S
C1772 C1773 1.404 . S
C1772 C1775 1.539 . S
C1773 C1769 1.408 . S
C1773 C1772 1.404 . S
C1773 H1785 0.930 . S
C1774 C1770 1.524 . S
C1774 H1786 0.956 . S
C1774 H1787 0.961 . S
C1774 H1788 0.961 . S
C1775 C1772 1.539 . S
C1775 H1789 0.958 . S
C1775 H1790 0.961 . S
C1775 H1791 0.960 . S
H1776 C1760 0.931 . S
H1777 C1765 0.929 . S
H1778 C1766 0.960 . S
H1779 C1766 0.962 . S
H1780 C1766 0.960 . S
H1781 C1767 0.961 . S
H1782 C1767 0.961 . S
H1783 C1767 0.961 . S
H1784 C1768 0.931 . S
H1785 C1773 0.930 . S
H1786 C1774 0.956 . S
H1787 C1774 0.961 . S
H1788 C1774 0.961 . S
H1789 C1775 0.958 . S
H1790 C1775 0.961 . S
H1791 C1775 0.960 . S
C1792 C1793 1.391 . S
C1792 C1794 1.394 . S
C1792 H1808 0.931 . S
C1793 C1792 1.391 . S
C1793 C1797 1.376 1_554 S
C1794 C1792 1.394 . S
C1794 C1795 1.369 . S
C1794 C1798 1.531 . S
C1795 C1794 1.369 . S
C1795 C1796 1.410 1_554 S
C1795 C1803 1.503 1_554 S
C1796 C1795 1.410 1_556 S
C1796 C1797 1.392 . S
C1796 C1799 1.511 . S
C1797 C1793 1.376 1_556 S
C1797 C1796 1.392 . S
C1797 H1809 0.929 . S
C1798 C1794 1.531 . S
C1798 H1810 0.960 . S
C1798 H1811 0.962 . S
C1798 H1812 0.960 . S
C1799 C1796 1.511 . S
C1799 H1813 0.961 . S
C1799 H1814 0.961 . S
C1799 H1815 0.961 . S
C1800 C1801 1.370 . S
C1800 C1802 1.363 . S
C1800 H1816 0.931 . S
C1801 C1800 1.370 . S
C1801 C1805 1.408 . S
C1802 C1800 1.363 . S
C1802 C1803 1.370 . S
C1802 C1806 1.524 . S
C1803 C1795 1.503 1_556 S
C1803 C1802 1.370 . S
C1803 C1804 1.403 . S
C1804 C1803 1.403 . S
C1804 C1805 1.404 . S
C1804 C1807 1.539 1_556 S
C1805 C1801 1.408 . S
C1805 C1804 1.404 . S
C1805 H1817 0.930 . S
C1806 C1802 1.524 . S
C1806 H1818 0.956 1_556 S
C1806 H1819 0.961 . S
C1806 H1820 0.961 . S
C1807 C1804 1.539 1_554 S
C1807 H1821 0.958 . S
C1807 H1822 0.961 1_554 S
C1807 H1823 0.960 . S
H1808 C1792 0.931 . S
H1809 C1797 0.929 . S
H1810 C1798 0.960 . S
H1811 C1798 0.962 . S
H1812 C1798 0.960 . S
H1813 C1799 0.961 . S
H1814 C1799 0.961 . S
H1815 C1799 0.961 . S
H1816 C1800 0.931 . S
H1817 C1805 0.930 . S
H1818 C1806 0.956 1_554 S
H1819 C1806 0.961 . S
H1820 C1806 0.961 . S
H1821 C1807 0.958 . S
H1822 C1807 0.961 1_556 S
H1823 C1807 0.960 . S
C1057 C29 1.412 . S
C1065 C849 1.394 . S
C1089 C117 1.398 . S
C1097 C937 1.392 . S
C1121 C196 1.384 . S
C1129 C1017 1.407 . S
C1153 C293 1.394 . S
C1161 C585 1.392 . S
C1185 C665 1.396 . S
C1193 C381 1.408 . S
C1217 C761 1.401 . S
C1225 C469 1.392 . S
C1249 C909 1.962 . S
C1257 C57 1.967 . S
C1281 C145 1.964 . S
C1289 C988 1.962 . S
C1313 C225 1.959 . S
C1321 C557 1.962 . S
C1345 C321 1.954 . S
C1353 C636 1.966 . S
C1377 C409 1.954 . S
C1385 C733 1.966 . S
C1409 C497 1.954 . S
C1417 C821 1.964 . S
C1441 C929 0.160 . S
C1449 C20 0.242 . S
C1473 C108 0.105 . S
C1481 C1025 0.191 . S
C1505 C205 0.278 . S
C1513 C577 0.161 . S
C1537 C284 0.184 . S
C1545 C673 0.161 . S
C1569 C372 0.242 . S
C1577 C753 0.248 . S
C1601 C460 0.129 . S
C1609 C841 0.234 . S
C1633 C49 1.678 . S
C1641 C548 1.668 . S
C1665 C645 1.683 . S
C1673 C137 1.670 . S
C1697 C233 1.670 . S
C1705 C724 1.669 . S
C1729 C313 1.669 . S
C1737 C812 1.677 . S
C1761 C401 1.680 . S
C1769 C900 1.672 . S
C1793 C997 1.676 . S
C1801 C489 1.674 . S
