# Generated by pormake.
# Topology sml, (6)-cn, num edge types: 1
# Building blocks:
#     Node 0, Type 0, BuildingBlock: KUMBUR_clean_sbu_0, # of connection points: 6
#     Node 1, Type 0, BuildingBlock: KUMBUR_clean_sbu_0, # of connection points: 6
#     Node 2, Type 0, BuildingBlock: KUMBUR_clean_sbu_0, # of connection points: 6
#     Node 3, Type 0, BuildingBlock: KUMBUR_clean_sbu_0, # of connection points: 6
#     Node 4, Type 0, BuildingBlock: KUMBUR_clean_sbu_0, # of connection points: 6
#     Node 5, Type 0, BuildingBlock: KUMBUR_clean_sbu_0, # of connection points: 6
#     Edge 6, Type (0, 0), BuildingBlock: XUDNAN_clean_linker_2, # of connection points: 2
#     Edge 7, Type (0, 0), BuildingBlock: XUDNAN_clean_linker_2, # of connection points: 2
#     Edge 8, Type (0, 0), BuildingBlock: XUDNAN_clean_linker_2, # of connection points: 2
#     Edge 9, Type (0, 0), BuildingBlock: XUDNAN_clean_linker_2, # of connection points: 2
#     Edge 10, Type (0, 0), BuildingBlock: XUDNAN_clean_linker_2, # of connection points: 2
#     Edge 11, Type (0, 0), BuildingBlock: XUDNAN_clean_linker_2, # of connection points: 2
#     Edge 12, Type (0, 0), BuildingBlock: XUDNAN_clean_linker_2, # of connection points: 2
#     Edge 13, Type (0, 0), BuildingBlock: XUDNAN_clean_linker_2, # of connection points: 2
#     Edge 14, Type (0, 0), BuildingBlock: XUDNAN_clean_linker_2, # of connection points: 2
#     Edge 15, Type (0, 0), BuildingBlock: XUDNAN_clean_linker_2, # of connection points: 2
#     Edge 16, Type (0, 0), BuildingBlock: XUDNAN_clean_linker_2, # of connection points: 2
#     Edge 17, Type (0, 0), BuildingBlock: XUDNAN_clean_linker_2, # of connection points: 2
#     Edge 18, Type (0, 0), BuildingBlock: XUDNAN_clean_linker_2, # of connection points: 2
#     Edge 19, Type (0, 0), BuildingBlock: XUDNAN_clean_linker_2, # of connection points: 2
#     Edge 20, Type (0, 0), BuildingBlock: XUDNAN_clean_linker_2, # of connection points: 2
#     Edge 21, Type (0, 0), BuildingBlock: XUDNAN_clean_linker_2, # of connection points: 2
#     Edge 22, Type (0, 0), BuildingBlock: XUDNAN_clean_linker_2, # of connection points: 2
#     Edge 23, Type (0, 0), BuildingBlock: XUDNAN_clean_linker_2, # of connection points: 2
# Relax obj value: 0.028
# Max RMSD: 0.150
# Mean RMSD: 0.150
data_MOF--net-sml--node1-KUMBUR_clean_sbu_0--edge1-XUDNAN_clean_linker_2
_symmetry_space_group_name_H-M    P1
_symmetry_Int_Tables_number       1
_symmetry_cell_setting            triclinic
loop_
_symmetry_equiv_pos_as_xyz
'x, y, z'
_cell_length_a     32.717756
_cell_length_b     32.75358
_cell_length_c     23.62769
_cell_angle_alpha  89.864892
_cell_angle_beta   89.982174
_cell_angle_gamma 120.16114
loop_
_atom_site_label
_atom_site_type_symbol
_atom_site_fract_x
_atom_site_fract_y
_atom_site_fract_z
_atom_type_partial_charge
Tb0 Tb 0.18867 0.42952 0.99727 0.0
C1 C 0.35792 0.41455 0.08579 0.0
C2 C 0.33368 0.33199 0.07726 0.0
C3 C 0.417 0.39138 0.0709 0.0
C4 C 0.32262 0.36814 0.08392 0.0
C5 C 0.40568 0.42691 0.08033 0.0
C6 C 0.38101 0.3439 0.06954 0.0
C7 C 0.4274 0.50772 0.09951 0.0
N8 N 0.34541 0.44741 0.09633 0.0
C9 C 0.37947 0.4935 0.10515 0.0
C10 C 0.44055 0.47434 0.08642 0.0
Tb11 Tb 0.26607 0.42154 0.10279 0.0
N12 N 0.27768 0.35834 0.0928 0.0
C13 C 0.24227 0.31254 0.09956 0.0
C14 C 0.29709 0.28505 0.0809 0.0
C15 C 0.25132 0.27532 0.09312 0.0
H16 H 0.36968 0.51965 0.11487 0.0
H17 H 0.22287 0.23914 0.09727 0.0
H18 H 0.39024 0.31668 0.06391 0.0
H19 H 0.45413 0.5444 0.10527 0.0
H20 H 0.2066 0.30423 0.10859 0.0
H21 H 0.21475 0.60619 0.99424 0.0
H22 H 0.30402 0.25619 0.07604 0.0
H23 H 0.08915 0.32514 0.99129 0.0
H24 H 0.2376 0.54586 0.98059 0.0
H25 H 1.004 0.29385 1.00516 0.0
H26 H 0.45347 0.40012 0.06616 0.0
H27 H 0.13288 0.5825 1.02251 0.0
H28 H 0.04967 0.51678 0.04208 0.0
H29 H 0.47764 0.48527 0.08252 0.0
H30 H 0.99175 0.43145 0.04288 0.0
N31 N 0.16995 0.48823 1.00296 0.0
C32 C 0.20175 0.53477 0.99289 0.0
C33 C 0.14275 0.55579 1.01652 0.0
C34 C 0.10939 0.5078 1.02228 0.0
C35 C 0.18892 0.56925 1.00048 0.0
C36 C 0.12423 0.4746 1.01415 0.0
H37 H 0.97412 0.34806 1.02685 0.0
N38 N 0.10807 0.39694 1.00455 0.0
C39 C 0.02838 0.33147 1.00796 0.0
C40 C 0.09189 0.42711 1.01431 0.0
C41 C 0.07685 0.3495 0.99974 0.0
C42 C 0.01165 0.36215 1.02032 0.0
C43 C 0.04351 0.41071 1.02337 0.0
O44 O 0.16757 0.39491 0.91856 0.0
O45 O 0.23134 0.39963 1.02279 0.0
O46 O 0.30891 0.4576 1.02694 0.0
O47 O 0.26285 0.48665 0.98768 0.0
O48 O 0.17259 0.35675 0.97895 0.0
O49 O 0.21559 0.4701 0.92316 0.0
O50 O 0.28978 0.45467 0.18188 0.0
O51 O 0.22711 0.45464 0.07524 0.0
O52 O 0.14853 0.40247 0.07621 0.0
O53 O 0.1899 0.36826 0.11421 0.0
O54 O 0.2844 0.49353 0.12578 0.0
O55 O 0.23769 0.38067 0.17637 0.0
C56 C 0.20942 0.35915 1.00144 0.0
C57 C 0.17651 0.43997 0.83575 0.0
C58 C 0.18525 0.44567 0.73258 0.0
C59 C 0.19972 0.43891 0.78624 0.0
C60 C 0.14639 0.45297 0.72961 0.0
C61 C 0.13805 0.44739 0.83204 0.0
C62 C 0.12303 0.45374 0.77899 0.0
C63 C 0.3029 0.48552 0.99087 0.0
C64 C 0.19412 0.43355 0.89021 0.0
C65 C 0.02865 0.44335 0.03466 0.0
C66 C 0.06161 0.49189 0.03424 0.0
C67 C 0.24999 0.49385 0.10028 0.0
C68 C 0.28586 0.40597 0.25774 0.0
C69 C 0.27722 0.41536 0.31318 0.0
C70 C 0.29838 0.40639 0.35983 0.0
C71 C 0.32783 0.38731 0.34988 0.0
C72 C 0.31559 0.38731 0.24879 0.0
C73 C 0.33631 0.37787 0.2948 0.0
C74 C 0.15178 0.37295 0.11179 0.0
C75 C 0.26341 0.41585 0.21 0.0
H76 H 0.22896 0.43233 0.78978 0.0
H77 H 0.13446 0.45886 0.68929 0.0
H78 H 0.11987 0.44833 0.86993 0.0
H79 H 0.09335 0.45958 0.77611 0.0
H80 H 0.25463 0.43033 0.31983 0.0
H81 H 0.34383 0.37919 0.38483 0.0
H82 H 0.3226 0.37989 0.20642 0.0
H83 H 0.35893 0.36308 0.28769 0.0
Tb84 Tb 0.75856 0.17567 0.31849 0.0
C85 C 0.94008 0.34989 0.41395 0.0
C86 C 1.00147 0.32955 0.4102 0.0
C87 C 0.02238 0.41199 0.40659 0.0
C88 C 0.95327 0.31621 0.41305 0.0
C89 C 0.97435 0.3983 0.41125 0.0
C90 C 0.03596 0.37764 0.40643 0.0
C91 C 0.91142 0.41582 0.42266 0.0
N92 N 0.89356 0.3351 0.42006 0.0
C93 C 0.87893 0.36737 0.42607 0.0
C94 C 0.95936 0.43138 0.41486 0.0
Tb95 Tb 0.84236 0.25512 0.42432 0.0
N96 N 0.91887 0.2704 0.41804 0.0
C97 C 0.93075 0.23609 0.42376 0.0
C98 C 0.01355 0.29428 0.41297 0.0
C99 C 0.97802 0.24737 0.42045 0.0
H100 H 0.84196 0.35581 0.43193 0.0
H101 H 0.98698 0.21982 0.4237 0.0
H102 H 0.07315 0.38861 0.40397 0.0
H103 H 0.89948 0.4411 0.42629 0.0
H104 H 0.90395 0.19963 0.42962 0.0
H105 H 0.60413 0.19554 0.31337 0.0
H106 H 0.05014 0.30298 0.41077 0.0
H107 H 0.7663 0.07816 0.31433 0.0
H108 H 0.68793 0.22041 0.2986 0.0
H109 H 0.71402 0.9928 0.33007 0.0
H110 H 0.0493 0.44899 0.40426 0.0
H111 H 0.54811 0.11453 0.34658 0.0
H112 H 0.53309 0.03275 0.36947 0.0
H113 H 0.98454 0.4689 0.41284 0.0
H114 H 0.56244 0.9766 0.37063 0.0
N115 N 0.68034 0.15474 0.32503 0.0
C116 C 0.66406 0.18487 0.31284 0.0
C117 C 0.58489 0.12515 0.33985 0.0
C118 C 0.6009 0.09313 0.34712 0.0
C119 C 0.6164 0.17088 0.32107 0.0
C120 C 0.64925 0.10913 0.3383 0.0
H121 H 0.62967 0.96109 0.35361 0.0
N122 N 0.71219 0.09512 0.3286 0.0
C123 C 0.69997 0.01641 0.33296 0.0
C124 C 0.66561 0.07788 0.3392 0.0
C125 C 0.72948 0.06491 0.32372 0.0
C126 C 0.65238 0.99863 0.34635 0.0
C127 C 0.63455 0.02946 0.3494 0.0
O128 O 0.77177 0.15333 0.24053 0.0
O129 O 0.8312 0.22095 0.34391 0.0
O130 O 0.84828 0.29695 0.34795 0.0
O131 O 0.77366 0.24891 0.30757 0.0
O132 O 0.81736 0.16265 0.3001 0.0
O133 O 0.74253 0.19932 0.24344 0.0
O134 O 0.82967 0.27633 0.50329 0.0
O135 O 0.77069 0.2149 0.39532 0.0
O136 O 0.74664 0.13673 0.39814 0.0
O137 O 0.82264 0.17997 0.43433 0.0
O138 O 0.78671 0.27082 0.44697 0.0
O139 O 0.85305 0.2254 0.49793 0.0
C140 C 0.85093 0.20018 0.3226 0.0
C141 C 0.72468 0.15036 0.16328 0.0
C142 C 0.71456 0.13606 0.06124 0.0
C143 C 0.74325 0.16022 0.108 0.0
C144 C 0.66676 0.10219 0.07096 0.0
C145 C 0.6771 0.11636 0.17198 0.0
C146 C 0.6483 0.09252 0.1259 0.0
C147 C 0.81394 0.28991 0.31195 0.0
C148 C 0.75573 0.17592 0.21107 0.0
C149 C 0.58681 0.01355 0.36161 0.0
C150 C 0.57007 0.04547 0.36086 0.0
C151 C 0.75282 0.23615 0.42069 0.0
C152 C 0.86523 0.26559 0.58508 0.0
C153 C 0.84234 0.24167 0.63501 0.0
C154 C 0.86458 0.25647 0.68807 0.0
C155 C 0.91032 0.29631 0.6901 0.0
C156 C 0.91081 0.30497 0.58782 0.0
C157 C 0.93316 0.32026 0.64029 0.0
C158 C 0.78007 0.14138 0.43344 0.0
C159 C 0.8399 0.24833 0.53129 0.0
H160 H 0.78027 0.1861 0.10162 0.0
H161 H 0.64345 0.0834 0.03603 0.0
H162 H 0.66229 0.1083 0.21424 0.0
H163 H 0.6115 0.0664 0.13275 0.0
H164 H 0.80675 0.21167 0.63239 0.0
H165 H 0.92878 0.3085 0.72999 0.0
H166 H 0.92889 0.32377 0.54963 0.0
H167 H 0.96843 0.35068 0.64238 0.0
Tb168 Tb 0.59505 0.7528 0.64308 0.0
C169 C 0.58673 0.92521 0.73731 0.0
C170 C 0.66775 0.98911 0.73587 0.0
C171 C 0.6038 1.00631 0.72885 0.0
C172 C 0.63421 0.94043 0.73828 0.0
C173 C 0.57073 0.95786 0.73332 0.0
C174 C 0.6523 0.02195 0.73041 0.0
C175 C 0.49095 0.89268 0.74334 0.0
N176 N 0.55617 0.8783 0.74281 0.0
C177 C 0.50867 0.86178 0.74762 0.0
C178 C 0.52208 0.94091 0.7355 0.0
Tb179 Tb 0.58798 0.82983 0.74736 0.0
N180 N 0.64745 0.90758 0.74471 0.0
C181 C 0.69409 0.92164 0.75303 0.0
C182 C 0.71564 1.00332 0.7407 0.0
C183 C 0.72879 0.96945 0.75024 0.0
H184 H 0.48406 0.82462 0.75336 0.0
H185 H 0.7657 0.98009 0.75526 0.0
H186 H 0.67752 0.05947 0.72818 0.0
H187 H 0.45327 0.87924 0.74597 0.0
H188 H 0.7053 0.89628 0.76021 0.0
H189 H 0.42028 0.59845 0.65215 0.0
H190 H 0.74259 0.04027 0.73851 0.0
H191 H 0.70111 0.76239 0.63504 0.0
H192 H 0.47838 0.68236 0.63459 0.0
H193 H 0.73541 0.71115 0.64956 0.0
H194 H 0.59227 0.03198 0.72543 0.0
H195 H 0.44741 0.54296 0.67934 0.0
H196 H 0.51575 0.52892 0.69643 0.0
H197 H 0.5083 0.96479 0.73242 0.0
H198 H 0.60142 0.55915 0.69337 0.0
N199 N 0.53808 0.67484 0.65248 0.0
C200 C 0.49084 0.65849 0.64571 0.0
C201 C 0.47315 0.57967 0.67114 0.0
C202 C 0.52168 0.596 0.67418 0.0
C203 C 0.4577 0.61089 0.65574 0.0
C204 C 0.55351 0.64422 0.66367 0.0
H205 H 0.68368 0.62697 0.67478 0.0
N206 N 0.63045 0.70782 0.6519 0.0
C207 C 0.69766 0.69671 0.65369 0.0
C208 C 0.60147 0.66121 0.66279 0.0
C209 C 0.67802 0.72563 0.64529 0.0
C210 C 0.66836 0.64919 0.66786 0.0
C211 C 0.61953 0.63076 0.67214 0.0
O212 O 0.63291 0.77119 0.56627 0.0
O213 O 0.61721 0.82387 0.66885 0.0
O214 O 0.55694 0.83916 0.66863 0.0
O215 O 0.53759 0.76788 0.62447 0.0
O216 O 0.66671 0.81384 0.6305 0.0
O217 O 0.55692 0.72856 0.56715 0.0
O218 O 0.54786 0.81112 0.82265 0.0
O219 O 0.5644 0.7583 0.72144 0.0
O220 O 0.62524 0.74358 0.72095 0.0
O221 O 0.64663 0.81531 0.76457 0.0
O222 O 0.51507 0.77126 0.7546 0.0
O223 O 0.62369 0.8427 0.82511 0.0
C224 C 0.65925 0.84566 0.65154 0.0
C225 C 0.59673 0.72143 0.48758 0.0
C226 C 0.5914 0.70812 0.3853 0.0
C227 C 0.59022 0.73367 0.43253 0.0
C228 C 0.5998 0.67044 0.39415 0.0
C229 C 0.60494 0.68374 0.49548 0.0
C230 C 0.60661 0.6585 0.44882 0.0
C231 C 0.53557 0.80741 0.6278 0.0
C232 C 0.59481 0.74868 0.53579 0.0
C233 C 0.58826 0.58304 0.68504 0.0
C234 C 0.53941 0.56577 0.6865 0.0
C235 C 0.52159 0.738 0.73659 0.0
C236 C 0.58616 0.84712 0.90885 0.0
C237 C 0.58182 0.82205 0.95895 0.0
C238 C 0.58217 0.84126 1.01242 0.0
C239 C 0.58784 0.88681 1.01452 0.0
C240 C 0.5917 0.8923 0.91178 0.0
C241 C 0.59266 0.91204 0.96457 0.0
C242 C 0.64894 0.77598 0.75974 0.0
C243 C 0.58483 0.82463 0.85462 0.0
H244 H 0.58336 0.76253 0.42665 0.0
H245 H 0.60146 0.65039 0.35872 0.0
H246 H 0.61006 0.6739 0.53752 0.0
H247 H 0.61314 0.62951 0.45503 0.0
H248 H 0.57857 0.78752 0.95599 0.0
H249 H 0.58776 0.90269 0.05463 0.0
H250 H 0.59524 0.91211 0.8735 0.0
H251 H 0.59684 0.94695 0.96681 0.0
Tb252 Tb 0.83621 0.58001 0.96767 0.0
C253 C 0.68085 0.60682 0.07169 0.0
C254 C 0.71338 0.69135 0.06878 0.0
C255 C 0.62831 0.63891 0.06375 0.0
C256 C 0.71948 0.65171 0.07141 0.0
C257 C 0.6347 0.59973 0.06888 0.0
C258 C 0.66763 0.6847 0.06373 0.0
C259 C 0.60478 0.51624 0.08193 0.0
N260 N 0.68857 0.57012 0.07783 0.0
C261 C 0.65129 0.52524 0.08532 0.0
C262 C 0.59644 0.55361 0.07303 0.0
Tb263 Tb 0.76588 0.58797 0.08026 0.0
N264 N 0.76289 0.6565 0.07723 0.0
C265 C 0.80164 0.70033 0.08472 0.0
C266 C 0.75324 0.73634 0.07342 0.0
C267 C 0.79745 0.74079 0.08245 0.0
H268 H 0.65749 0.49615 0.09197 0.0
H269 H 0.82843 0.7754 0.0872 0.0
H270 H 0.66221 0.71468 0.06115 0.0
H271 H 0.57541 0.48053 0.08628 0.0
H272 H 0.83622 0.70469 0.09114 0.0
H273 H 0.79221 0.39727 0.9743 0.0
H274 H 0.75011 0.76772 0.07161 0.0
H275 H 0.93938 0.67903 0.95189 0.0
H276 H 0.77549 0.46234 0.96681 0.0
H277 H 0.0239 0.70321 0.95108 0.0
H278 H 0.59314 0.63423 0.06109 0.0
H279 H 0.87473 0.41438 0.98226 0.0
H280 H 0.96154 0.4747 0.98222 0.0
H281 H 0.56046 0.54671 0.07081 0.0
H282 H 0.02468 0.55803 0.97528 0.0
N283 N 0.84775 0.51656 0.97314 0.0
C284 C 0.81172 0.47068 0.97066 0.0
C285 C 0.86761 0.44326 0.97944 0.0
C286 C 0.90451 0.49019 0.97869 0.0
C287 C 0.82101 0.43347 0.97482 0.0
C288 C 0.89323 0.5264 0.97527 0.0
H289 H 0.04828 0.64347 0.96373 0.0
N290 N 0.91576 0.60622 0.96633 0.0
C291 C 0.99743 0.66644 0.95709 0.0
C292 C 0.92857 0.57292 0.97148 0.0
C293 C 0.9494 0.65253 0.95745 0.0
C294 C 0.01107 0.63263 0.96432 0.0
C295 C 0.97645 0.5851 0.97095 0.0
O296 O 0.85632 0.61459 0.88879 0.0
O297 O 0.79702 0.61177 0.99866 0.0
O298 O 0.71916 0.55775 1.00587 0.0
O299 O 0.7605 0.52754 0.95793 0.0
O300 O 0.85518 0.65418 0.95335 0.0
O301 O 0.80824 0.53942 0.8942 0.0
O302 O 0.73894 0.54862 0.15531 0.0
O303 O 0.80472 0.55534 0.05011 0.0
O304 O 0.88293 0.60812 0.03993 0.0
O305 O 0.84363 0.63576 0.09695 0.0
O306 O 0.7427 0.51277 0.09022 0.0
O307 O 0.79174 0.62278 0.15776 0.0
C308 C 0.81999 0.65292 0.97902 0.0
C309 C 0.85391 0.56805 0.81123 0.0
C310 C 0.85259 0.55435 0.7097 0.0
C311 C 0.83327 0.56345 0.75787 0.0
C312 C 0.89321 0.55035 0.71559 0.0
C313 C 0.89452 0.5642 0.81641 0.0
C314 C 0.91411 0.55549 0.76866 0.0
C315 C 0.72216 0.53091 0.96588 0.0
C316 C 0.83146 0.57555 0.86069 0.0
C317 C 0.98809 0.54939 0.97575 0.0
C318 C 0.95216 0.502 0.97971 0.0
C319 C 0.77906 0.51362 0.06814 0.0
C320 C 0.7421 0.59065 0.23783 0.0
C321 C 0.75102 0.57624 0.28994 0.0
C322 C 0.73094 0.5812 0.34023 0.0
C323 C 0.70193 0.60147 0.33751 0.0
C324 C 0.71284 0.61045 0.23554 0.0
C325 C 0.69289 0.61584 0.28538 0.0
C326 C 0.88182 0.63293 0.08338 0.0
C327 C 0.76476 0.58495 0.18729 0.0
H328 H 0.80152 0.56591 0.75407 0.0
H329 H 0.909 0.54364 0.67909 0.0
H330 H 0.91089 0.56769 0.85713 0.0
H331 H 0.94547 0.55252 0.77281 0.0
H332 H 0.77442 0.56177 0.2913 0.0
H333 H 0.68581 0.60566 0.37544 0.0
H334 H 0.70567 0.62184 0.19559 0.0
H335 H 0.67033 0.6312 0.28362 0.0
Tb336 Tb 0.2651 0.85271 0.31116 0.0
C337 C 0.11147 0.66115 0.39991 0.0
C338 C 0.04082 0.66649 0.3902 0.0
C339 C 0.0363 0.59039 0.38087 0.0
C340 C 0.08995 0.6879 0.39873 0.0
C341 C 0.08492 0.61186 0.39244 0.0
C342 C 0.01425 0.6177 0.37979 0.0
C343 C 0.15549 0.60868 0.4139 0.0
N344 N 0.15822 0.68335 0.4118 0.0
C345 C 0.18015 0.65772 0.42131 0.0
C346 C 0.10778 0.58569 0.39858 0.0
Tb347 Tb 0.19657 0.764 0.41917 0.0
N348 N 0.11695 0.73468 0.40932 0.0
C349 C 0.09632 0.76173 0.4163 0.0
C350 C 0.01982 0.69451 0.39424 0.0
C351 C 0.04761 0.7422 0.40829 0.0
H352 H 0.21716 0.67545 0.43252 0.0
H353 H 0.03162 0.76403 0.4125 0.0
H354 H 0.97651 0.60059 0.37243 0.0
H355 H 0.1733 0.58869 0.41984 0.0
H356 H 0.11755 0.79876 0.42647 0.0
H357 H 0.44338 0.88667 0.28507 0.0
H358 H 0.98215 0.67945 0.38809 0.0
H359 H 0.22271 0.92583 0.32946 0.0
H360 H 0.35667 0.83807 0.28805 0.0
H361 H 0.25419 0.01109 0.33947 0.0
H362 H 0.01527 0.55263 0.37426 0.0
H363 H 0.48218 0.97302 0.29852 0.0
H364 H 0.47401 0.04465 0.31432 0.0
H365 H 0.0887 0.54771 0.39307 0.0
H366 H 0.42257 0.07859 0.32857 0.0
N367 N 0.34604 0.89524 0.3084 0.0
C368 C 0.37302 0.8753 0.29656 0.0
C369 C 0.44408 0.95165 0.30151 0.0
C370 C 0.41623 0.97228 0.31106 0.0
C371 C 0.4223 0.90293 0.29387 0.0
C372 C 0.36673 0.94273 0.31387 0.0
H373 H 0.34053 0.06634 0.33788 0.0
N374 N 0.29051 0.93179 0.32166 0.0
C375 C 0.27817 0.9977 0.33391 0.0
C376 C 0.33793 0.9618 0.3204 0.0
C377 C 0.26044 0.94918 0.32767 0.0
C378 C 0.32691 0.02878 0.33312 0.0
C379 C 0.3575 0.01099 0.32609 0.0
O380 O 0.24019 0.8646 0.23422 0.0
O381 O 0.19755 0.79706 0.34057 0.0
O382 O 0.20309 0.72647 0.34467 0.0
O383 O 0.26959 0.78835 0.30039 0.0
O384 O 0.19581 0.8479 0.29631 0.0
O385 O 0.28698 0.83606 0.23524 0.0
O386 O 0.21304 0.74562 0.49774 0.0
O387 O 0.26423 0.81364 0.38491 0.0
O388 O 0.2785 0.88801 0.39282 0.0
O389 O 0.2063 0.83567 0.43384 0.0
O390 O 0.26286 0.76775 0.44441 0.0
O391 O 0.17457 0.78314 0.49316 0.0
C392 C 0.16875 0.80769 0.31966 0.0
C393 C 0.28318 0.87269 0.15022 0.0
C394 C 0.276 0.87361 0.04712 0.0
C395 C 0.25822 0.85223 0.10015 0.0
C396 C 0.31991 0.91584 0.04525 0.0
C397 C 0.32669 0.91483 0.14766 0.0
C398 C 0.34496 0.9362 0.09521 0.0
C399 C 0.23721 0.7428 0.30559 0.0
C400 C 0.26237 0.84858 0.20398 0.0
C401 C 0.40681 0.04068 0.3244 0.0
C402 C 0.43612 0.02135 0.31662 0.0
C403 C 0.29055 0.80345 0.41371 0.0
C404 C 0.16219 0.73581 0.57396 0.0
C405 C 0.17308 0.75502 0.62874 0.0
C406 C 0.14539 0.72915 0.67555 0.0
C407 C 0.10669 0.68351 0.66633 0.0
C408 C 0.1234 0.69047 0.56569 0.0
C409 C 0.09585 0.66447 0.61182 0.0
C410 C 0.2464 0.87719 0.43285 0.0
C411 C 0.19198 0.76381 0.5263 0.0
H412 H 0.22496 0.81917 0.10266 0.0
H413 H 0.33454 0.93358 1.00537 0.0
H414 H 0.34636 0.93104 0.18593 0.0
H415 H 0.37856 0.96881 0.09325 0.0
H416 H 0.20275 0.79041 0.63465 0.0
H417 H 0.085 0.66225 0.70133 0.0
H418 H 0.11454 0.67522 0.52378 0.0
H419 H 0.06602 0.62935 0.60534 0.0
Tb420 Tb 0.41594 0.26128 0.63892 0.0
C421 C 0.45146 0.10559 0.72962 0.0
C422 C 0.37327 0.03725 0.73643 0.0
C423 C 0.44077 0.02701 0.71877 0.0
C424 C 0.40369 0.08663 0.73639 0.0
C425 C 0.47095 0.07616 0.72183 0.0
C426 C 0.39193 0.00754 0.72628 0.0
C427 C 0.54846 0.14571 0.72629 0.0
N428 N 0.47912 0.15301 0.73394 0.0
C429 C 0.52731 0.1733 0.73424 0.0
C430 C 0.52015 0.09696 0.71922 0.0
Tb431 Tb 0.4417 0.19614 0.74276 0.0
N432 N 0.3875 0.11667 0.74682 0.0
C433 C 0.34136 0.09915 0.7624 0.0
C434 C 0.32544 0.01931 0.74878 0.0
C435 C 0.30962 0.05041 0.7629 0.0
H436 H 0.54963 0.21098 0.73901 0.0
H437 H 0.2729 0.03691 0.77384 0.0
H438 H 0.3691 0.96952 0.72555 0.0
H439 H 0.58658 0.16212 0.72543 0.0
H440 H 0.32822 0.12246 0.77299 0.0
H441 H 0.56852 0.43009 0.59011 0.0
H442 H 0.30084 0.9816 0.74924 0.0
H443 H 0.30383 0.23089 0.66765 0.0
H444 H 0.52345 0.34364 0.60116 0.0
H445 H 0.25826 0.27076 0.68309 0.0
H446 H 0.45492 1.00375 0.71223 0.0
H447 H 0.53014 0.47725 0.6094 0.0
H448 H 0.45573 0.47844 0.6328 0.0
H449 H 0.53659 0.07565 0.71321 0.0
H450 H 0.3716 0.4353 0.65904 0.0
N451 N 0.46125 0.34168 0.63121 0.0
C452 C 0.50666 0.36375 0.61167 0.0
C453 C 0.51047 0.43931 0.61554 0.0
C454 C 0.46304 0.41625 0.63225 0.0
C455 C 0.53222 0.41283 0.60462 0.0
C456 C 0.43915 0.36682 0.63966 0.0
H457 H 0.29767 0.35785 0.67802 0.0
N458 N 0.36959 0.29467 0.65498 0.0
C459 C 0.29574 0.29138 0.67419 0.0
C460 C 0.39156 0.34246 0.65204 0.0
C461 C 0.32188 0.26886 0.66498 0.0
C462 C 0.31812 0.34053 0.67153 0.0
C463 C 0.3665 0.3667 0.65967 0.0
O464 O 0.37177 0.2417 0.5671 0.0
O465 O 0.40357 0.1934 0.66767 0.0
O466 O 0.47278 0.19112 0.66138 0.0
O467 O 0.47914 0.25749 0.61575 0.0
O468 O 0.3473 0.1951 0.63604 0.0
O469 O 0.44724 0.27384 0.5585 0.0
O470 O 0.48613 0.21807 0.81452 0.0
O471 O 0.45747 0.26441 0.71161 0.0
O472 O 0.39965 0.27745 0.72282 0.0
O473 O 0.38097 0.20617 0.76479 0.0
O474 O 0.51195 0.25967 0.74435 0.0
O475 O 0.41071 0.18646 0.82325 0.0
C476 C 0.36054 0.16726 0.65616 0.0
C477 C 0.40761 0.28625 0.48369 0.0
C478 C 0.421 0.30542 0.38253 0.0
C479 C 0.41744 0.2765 0.42886 0.0
C480 C 0.41441 0.34414 0.39244 0.0
C481 C 0.40089 0.32477 0.49214 0.0
C482 C 0.40453 0.35365 0.44677 0.0
C483 C 0.48954 0.22321 0.62 0.0
C484 C 0.4073 0.25756 0.53188 0.0
C485 C 0.39028 0.41604 0.65388 0.0
C486 C 0.43834 0.4407 0.63955 0.0
C487 C 0.50119 0.2889 0.72231 0.0
C488 C 0.45223 0.18464 0.90405 0.0
C489 C 0.4526 0.20804 0.95405 0.0
C490 C 0.45299 0.18925 1.00771 0.0
C491 C 0.45257 0.14607 1.01009 0.0
C492 C 0.45179 0.14175 0.90734 0.0
C493 C 0.45195 0.12262 0.96028 0.0
C494 C 0.37857 0.24555 0.76318 0.0
C495 C 0.45104 0.20568 0.84949 0.0
H496 H 0.42356 0.24721 0.42273 0.0
H497 H 0.41668 0.36714 0.35814 0.0
H498 H 0.39326 0.33278 0.53379 0.0
H499 H 0.39994 0.38373 0.45388 0.0
H500 H 0.45191 0.24072 0.9509 0.0
H501 H 0.45349 0.13072 0.05037 0.0
H502 H 0.45118 0.12316 0.86919 0.0
H503 H 0.45174 0.08951 0.96277 0.0
H504 H 0.39022 0.33012 0.80068 0.0
H505 H 0.30142 0.17857 0.82136 0.0
H506 H 0.25052 0.19125 0.88806 0.0
H507 H 0.38439 0.35863 0.9477 0.0
H508 H 0.38278 0.41185 0.93311 0.0
H509 H 0.41306 0.39299 0.88543 0.0
H510 H 0.36314 0.39195 0.80074 0.0
H511 H 0.33376 0.4132 0.84629 0.0
H512 H 0.29959 0.35987 0.80605 0.0
H513 H 0.20406 0.22052 0.94341 0.0
H514 H 0.17125 0.26429 0.99314 0.0
H515 H 0.29491 0.3966 0.94594 0.0
C516 C 0.36018 0.29961 0.81954 0.0
C517 C 0.34958 0.25324 0.80559 0.0
C518 C 0.31026 0.21432 0.8315 0.0
C519 C 0.2811 0.22122 0.86933 0.0
C520 C 0.29228 0.26731 0.88188 0.0
C521 C 0.33137 0.30591 0.85851 0.0
C522 C 0.33585 0.35177 0.87967 0.0
C523 C 0.38174 0.38053 0.91351 0.0
C524 C 0.33289 0.3809 0.83026 0.0
C525 C 0.29267 0.33292 0.91778 0.0
C526 C 0.26768 0.2841 0.91782 0.0
C527 C 0.22406 0.25869 0.94507 0.0
C528 C 0.20565 0.28375 0.97316 0.0
C529 C 0.23154 0.33362 0.97576 0.0
C530 C 0.27554 0.35844 0.9474 0.0
H531 H 0.07864 0.38701 0.14529 0.0
H532 H 0.13065 0.28892 0.16104 0.0
H533 H 0.0615 0.23651 0.21995 0.0
H534 H 0.03659 0.37269 0.28866 0.0
H535 H 0.98409 0.37575 0.27379 0.0
H536 H 0.03579 0.40695 0.22955 0.0
H537 H 0.98986 0.36586 0.14063 0.0
H538 H 0.93623 0.33472 0.18124 0.0
H539 H 0.95546 0.30227 0.13783 0.0
H540 H 0.98334 0.19116 0.26995 0.0
H541 H 0.90472 0.15925 0.3148 0.0
H542 H 0.9061 0.28927 0.27595 0.0
C543 C 0.07545 0.35447 0.16112 0.0
C544 C 0.11016 0.34202 0.14812 0.0
C545 C 0.10479 0.29937 0.1703 0.0
C546 C 0.06549 0.26927 0.20381 0.0
C547 C 0.03201 0.28249 0.21581 0.0
C548 C 0.03675 0.32431 0.1957 0.0
C549 C 0.99601 0.33045 0.21612 0.0
C550 C 0.01414 0.37405 0.25433 0.0
C551 C 0.9677 0.33344 0.16594 0.0
C552 C 0.96715 0.28502 0.2497 0.0
C553 C 0.98849 0.25777 0.2485 0.0
C554 C 0.96685 0.21265 0.27228 0.0
C555 C 0.92223 0.19477 0.29765 0.0
C556 C 0.90013 0.22234 0.30079 0.0
C557 C 0.92304 0.26816 0.27648 0.0
H558 H 0.69355 0.06691 0.46751 0.0
H559 H 0.8448 0.12454 0.48555 0.0
H560 H 0.82989 0.05769 0.54744 0.0
H561 H 0.66551 0.02701 0.61246 0.0
H562 H 0.61088 0.9733 0.59757 0.0
H563 H 0.63053 0.02424 0.5523 0.0
H564 H 0.62765 0.97748 0.46522 0.0
H565 H 0.6068 0.92474 0.50698 0.0
H566 H 0.65917 0.94542 0.46403 0.0
H567 H 0.79906 0.98134 0.60058 0.0
H568 H 0.75398 0.90301 0.64661 0.0
H569 H 0.62285 0.89732 0.60168 0.0
C570 C 0.72354 0.06542 0.48443 0.0
C571 C 0.77049 0.10102 0.47122 0.0
C572 C 0.80861 0.09792 0.4949 0.0
C573 C 0.80048 0.05999 0.53016 0.0
C574 C 0.75396 0.02558 0.54232 0.0
C575 C 0.71604 0.02807 0.52064 0.0
C576 C 0.66954 0.98659 0.54126 0.0
C577 C 0.64246 1.00376 0.57812 0.0
C578 C 0.63904 0.95678 0.49137 0.0
C579 C 0.68735 0.95973 0.57637 0.0
C580 C 0.73618 0.9829 0.57626 0.0
C581 C 0.76085 0.96339 0.60197 0.0
C582 C 0.73503 0.91893 0.62799 0.0
C583 C 0.68506 0.89481 0.62954 0.0
C584 C 0.66099 0.9157 0.60346 0.0
H585 H 0.63655 0.69079 0.79551 0.0
H586 H 0.73042 0.84184 0.81251 0.0
H587 H 0.78289 0.82708 0.87429 0.0
H588 H 0.64834 0.66294 0.94161 0.0
H589 H 0.64583 0.608 0.92511 0.0
H590 H 0.61513 0.62909 0.88126 0.0
H591 H 0.65864 0.62573 0.79268 0.0
H592 H 0.68934 0.60362 0.83432 0.0
H593 H 0.72237 0.65597 0.79174 0.0
H594 H 0.82948 0.79491 0.92566 0.0
H595 H 0.86139 0.74845 0.97117 0.0
H596 H 0.7327 0.61922 0.92937 0.0
C597 C 0.66803 0.72082 0.81244 0.0
C598 C 0.6796 0.76758 0.79883 0.0
C599 C 0.72086 0.8058 0.82234 0.0
C600 C 0.75088 0.79771 0.85741 0.0
C601 C 0.73858 0.75117 0.86976 0.0
C602 C 0.69764 0.71338 0.84874 0.0
C603 C 0.69194 0.6668 0.86915 0.0
C604 C 0.64768 0.64011 0.90651 0.0
C605 C 0.69055 0.63627 0.81897 0.0
C606 C 0.73676 0.68418 0.90365 0.0
C607 C 0.76341 0.73294 0.90313 0.0
C608 C 0.80824 0.75681 0.92767 0.0
C609 C 0.82612 0.73021 0.95341 0.0
C610 C 0.79869 0.68038 0.9563 0.0
C611 C 0.7535 0.65725 0.93076 0.0
H612 H 0.08948 0.81497 0.29484 0.0
H613 H 0.1487 0.72371 0.27294 0.0
H614 H 0.08047 0.66928 0.21676 0.0
H615 H 0.96287 0.71612 0.30236 0.0
H616 H 0.9414 0.74926 0.26424 0.0
H617 H 0.99355 0.77959 0.30768 0.0
H618 H 0.03973 0.8303 0.22059 0.0
H619 H 0.98787 0.79903 0.17704 0.0
H620 H 0.04214 0.80131 0.15693 0.0
H621 H 0.01363 0.63064 0.15279 0.0
H622 H 0.94439 0.60212 0.09278 0.0
H623 H 0.91809 0.71097 0.1577 0.0
C624 C 0.08738 0.78297 0.27907 0.0
C625 C 0.1242 0.77302 0.29036 0.0
C626 C 0.12067 0.73145 0.2676 0.0
C627 C 0.08196 0.70035 0.23476 0.0
C628 C 0.04646 0.71097 0.22455 0.0
C629 C 0.04803 0.7507 0.24656 0.0
C630 C 1.00471 0.75325 0.22745 0.0
C631 C 0.97381 0.74933 0.27849 0.0
C632 C 0.01951 0.79868 0.19348 0.0
C633 C 0.97973 0.70961 0.18983 0.0
C634 C 1.00515 0.68634 0.18895 0.0
C635 C 0.99261 0.64767 0.15435 0.0
C636 C 0.95275 0.63168 0.12015 0.0
C637 C 0.92434 0.65319 0.1211 0.0
C638 C 0.93816 0.69291 0.15681 0.0
H639 H 0.39989 0.12215 0.59794 0.0
H640 H 0.26798 0.10205 0.66565 0.0
H641 H 0.22517 0.02255 0.62272 0.0
H642 H 0.35305 0.07264 0.46553 0.0
H643 H 0.38852 0.04535 0.45538 0.0
H644 H 0.41016 0.09716 0.49888 0.0
H645 H 0.42083 0.05236 0.58373 0.0
H646 H 0.40074 1.00146 0.53867 0.0
H647 H 0.37162 0.9962 0.60519 0.0
H648 H 0.19579 0.94681 0.56816 0.0
H649 H 0.18142 0.88323 0.50076 0.0
H650 H 0.33124 0.95528 0.46105 0.0
C651 C 0.36227 0.10027 0.60528 0.0
C652 C 0.33734 0.11745 0.63692 0.0
C653 C 0.28774 0.08893 0.64282 0.0
C654 C 0.26319 0.04377 0.61859 0.0
C655 C 0.28851 0.02793 0.58705 0.0
C656 C 0.33695 0.05543 0.57991 0.0
C657 C 0.35479 0.03222 0.53877 0.0
C658 C 0.37798 0.06373 0.48656 0.0
C659 C 0.38905 0.01985 0.56837 0.0
C660 C 0.30877 0.98792 0.52333 0.0
C661 C 0.27111 0.98567 0.55252 0.0
C662 C 0.22505 0.94817 0.54514 0.0
C663 C 0.21717 0.91216 0.50674 0.0
C664 C 0.25499 0.91424 0.47527 0.0
C665 C 0.30141 0.95268 0.48413 0.0
H666 H 0.1485 0.40978 0.62671 0.0
H667 H 0.28082 0.48151 0.71951 0.0
H668 H 0.32347 0.47886 0.63504 0.0
H669 H 0.17453 0.33316 0.54626 0.0
H670 H 0.14661 0.33737 0.48249 0.0
H671 H 0.12611 0.34454 0.55045 0.0
H672 H 0.13894 0.42586 0.51883 0.0
H673 H 0.1597 0.41907 0.45085 0.0
H674 H 0.19623 0.47037 0.49331 0.0
H675 H 0.35186 0.46662 0.54134 0.0
H676 H 0.36439 0.44917 0.44334 0.0
H677 H 0.2145 0.38816 0.40959 0.0
C678 C 0.1865 0.42546 0.62922 0.0
C679 C 0.21106 0.44548 0.68036 0.0
C680 C 0.26084 0.46503 0.68155 0.0
C681 C 0.28554 0.46399 0.63355 0.0
C682 C 0.26019 0.44363 0.58421 0.0
C683 C 0.21184 0.42502 0.58148 0.0
C684 C 0.19317 0.40537 0.523 0.0
C685 C 0.15804 0.35194 0.52574 0.0
C686 C 0.1707 0.43177 0.49485 0.0
C687 C 0.23861 0.41589 0.49336 0.0
C688 C 0.27678 0.4377 0.5296 0.0
C689 C 0.32227 0.44979 0.51249 0.0
C690 C 0.32899 0.43948 0.45681 0.0
C691 C 0.29049 0.4174 0.41864 0.0
C692 C 0.24475 0.40564 0.43743 0.0
H693 H 0.77656 0.22186 1.01141 0.0
H694 H 0.69743 0.07118 0.97821 0.0
H695 H 0.72813 0.08576 0.88048 0.0
H696 H 0.75937 0.25924 0.87555 0.0
H697 H 0.81786 0.31025 0.87146 0.0
H698 H 0.79057 0.28818 0.93939 0.0
H699 H 0.86237 0.28075 0.97083 0.0
H700 H 0.88994 0.30283 0.90297 0.0
H701 H 0.88042 0.2468 0.9285 0.0
H702 H 0.76649 0.11622 0.78647 0.0
H703 H 0.80971 0.1605 0.70138 0.0
H704 H 0.86387 0.29201 0.79415 0.0
C705 C 0.7661 0.19189 0.9838 0.0
C706 C 0.73434 0.14531 1.00264 0.0
C707 C 0.72109 0.10719 0.96472 0.0
C708 C 0.73861 0.11508 0.90917 0.0
C709 C 0.76954 0.16133 0.89194 0.0
C710 C 0.78326 0.19914 0.92803 0.0
C711 C 0.81633 0.24542 0.8983 0.0
C712 C 0.79472 0.27766 0.89604 0.0
C713 C 0.86515 0.27041 0.92685 0.0
C714 C 0.81881 0.22762 0.83982 0.0
C715 C 0.79163 0.179 0.83728 0.0
C716 C 0.78786 0.1543 0.78784 0.0
C717 C 0.81231 0.1799 0.73954 0.0
C718 C 0.84009 0.22991 0.74062 0.0
C719 C 0.84344 0.25386 0.79184 0.0
H720 H 0.6287 0.79598 0.33491 0.0
H721 H 0.53476 0.64659 0.30385 0.0
H722 H 0.52097 0.66474 0.20667 0.0
H723 H 0.56329 0.8387 0.25368 0.0
H724 H 0.61559 0.88959 0.22643 0.0
H725 H 0.61719 0.86525 0.29428 0.0
H726 H 0.68759 0.85625 0.26064 0.0
H727 H 0.68626 0.88063 0.19273 0.0
H728 H 0.68192 0.82362 0.19692 0.0
H729 H 0.51692 0.69865 0.11326 0.0
H730 H 0.52512 0.74563 0.02819 0.0
H731 H 0.62451 0.87337 0.1173 0.0
C732 C 0.60487 0.76717 0.3078 0.0
C733 C 0.58279 0.71978 0.32706 0.0
C734 C 0.55241 0.68306 0.28994 0.0
C735 C 0.54414 0.69305 0.23475 0.0
C736 C 0.5666 0.73999 0.21701 0.0
C737 C 0.5965 0.7765 0.25224 0.0
C738 C 0.61737 0.82372 0.22177 0.0
C739 C 0.60245 0.85622 0.25077 0.0
C740 C 0.67149 0.84744 0.21778 0.0
C741 C 0.59448 0.80795 0.16397 0.0
C742 C 0.56515 0.75954 0.16239 0.0
C743 C 0.54007 0.73657 0.11386 0.0
C744 C 0.54534 0.76366 0.06545 0.0
C745 C 0.57593 0.81338 0.0653 0.0
C746 C 0.60052 0.83561 0.11573 0.0
H747 H 0.8239 0.61129 0.659 0.0
H748 H 0.83057 0.48361 0.63388 0.0
H749 H 0.79398 0.47342 0.53964 0.0
H750 H 0.71161 0.57256 0.58559 0.0
H751 H 0.731 0.62974 0.55451 0.0
H752 H 0.75447 0.62525 0.62172 0.0
H753 H 0.8396 0.67347 0.58204 0.0
H754 H 0.81651 0.67829 0.51481 0.0
H755 H 0.85504 0.65388 0.51849 0.0
H756 H 0.75943 0.47829 0.44772 0.0
H757 H 0.7338 0.50048 0.36066 0.0
H758 H 0.7519 0.62679 0.44328 0.0
C759 C 0.81699 0.58086 0.63388 0.0
C760 C 0.82985 0.54808 0.65365 0.0
C761 C 0.82119 0.5092 0.61929 0.0
C762 C 0.80012 0.50296 0.56597 0.0
C763 C 0.78806 0.53599 0.54759 0.0
C764 C 0.79638 0.57434 0.58026 0.0
C765 C 0.78287 0.60628 0.54884 0.0
C766 C 0.74258 0.60856 0.57948 0.0
C767 C 0.82608 0.6559 0.54055 0.0
C768 C 0.76628 0.58018 0.49309 0.0
C769 C 0.76905 0.53943 0.49368 0.0
C770 C 0.75709 0.51009 0.44671 0.0
C771 C 0.74285 0.52317 0.39734 0.0
C772 C 0.74117 0.56556 0.39492 0.0
C773 C 0.75225 0.59391 0.44395 0.0
H774 H 0.23297 0.7827 0.7256 0.0
H775 H 0.0827 0.72214 0.7574 0.0
H776 H 0.10008 0.75398 0.85438 0.0
H777 H 0.2635 0.76046 0.86226 0.0
H778 H 0.31916 0.81505 0.86579 0.0
H779 H 0.29519 0.78865 0.79817 0.0
H780 H 0.29968 0.86618 0.76459 0.0
H781 H 0.32369 0.89286 0.83214 0.0
H782 H 0.27115 0.89107 0.80573 0.0
H783 H 0.13328 0.79152 0.94803 0.0
H784 H 0.17998 0.831 0.03299 0.0
H785 H 0.30905 0.86695 0.9416 0.0
C786 C 0.20372 0.77665 0.75265 0.0
C787 C 0.15637 0.74968 0.73367 0.0
C788 C 0.11919 0.74201 0.77099 0.0
C789 C 0.12872 0.7603 0.82609 0.0
C790 C 0.17566 0.78647 0.84342 0.0
C791 C 0.2126 0.79473 0.80789 0.0
C792 C 0.25982 0.82316 0.83764 0.0
C793 C 0.28594 0.79514 0.84117 0.0
C794 C 0.29037 0.87116 0.80828 0.0
C795 C 0.24355 0.82912 0.89563 0.0
C796 C 0.19488 0.80789 0.89782 0.0
C797 C 0.17142 0.80818 0.94687 0.0
C798 C 0.19832 0.83043 0.99513 0.0
C799 C 0.24831 0.85187 0.99446 0.0
C800 C 0.27104 0.85139 0.9436 0.0
H801 H 0.38989 0.21957 0.32862 0.0
H802 H 0.47908 0.3709 0.30413 0.0
H803 H 0.49626 0.35739 0.20679 0.0
H804 H 0.46368 0.18618 0.24863 0.0
H805 H 0.41423 0.13412 0.21903 0.0
H806 H 0.40876 0.1554 0.2872 0.0
H807 H 0.33598 0.15931 0.25162 0.0
H808 H 0.34131 0.1382 0.18327 0.0
H809 H 0.34108 0.19297 0.18882 0.0
H810 H 0.50372 0.32821 0.11181 0.0
H811 H 0.50186 0.28505 1.02579 0.0
H812 H 0.40788 0.1522 0.11026 0.0
C813 C 0.41348 0.24987 0.30307 0.0
C814 C 0.43274 0.29642 0.32432 0.0
C815 C 0.46303 0.33497 0.28888 0.0
C816 C 0.47334 0.32766 0.23348 0.0
C817 C 0.45345 0.28153 0.2138 0.0
C818 C 0.42431 0.2432 0.24747 0.0
C819 C 0.40734 0.19725 0.21547 0.0
C820 C 0.42454 0.16644 0.2443 0.0
C821 C 0.35321 0.17036 0.20944 0.0
C822 C 0.4315 0.21587 0.15864 0.0
C823 C 0.45787 0.26459 0.15873 0.0
C824 C 0.48312 0.29003 0.1112 0.0
C825 C 0.48149 0.2651 0.06224 0.0
C826 C 0.45452 0.21505 0.06066 0.0
C827 C 0.4293 0.19033 0.10992 0.0
H828 H 0.17928 0.49723 0.15899 0.0
H829 H 0.30757 0.58127 0.06255 0.0
H830 H 0.31219 0.65403 0.09808 0.0
H831 H 0.1339 0.58553 0.15139 0.0
H832 H 0.11263 0.57255 0.22331 0.0
H833 H 0.11226 0.52712 0.17987 0.0
H834 H 0.16076 0.5136 0.25643 0.0
H835 H 0.16237 0.55966 0.29939 0.0
H836 H 0.21676 0.56246 0.27871 0.0
H837 H 0.31294 0.71547 0.15588 0.0
H838 H 0.30629 0.76555 0.22695 0.0
H839 H 0.1769 0.64531 0.29086 0.0
C840 C 0.20651 0.53108 0.14288 0.0
C841 C 0.24184 0.53387 0.1057 0.0
C842 C 0.27921 0.5786 0.08894 0.0
C843 C 0.28224 0.62007 0.10927 0.0
C844 C 0.24814 0.61638 0.14752 0.0
C845 C 0.21047 0.57323 0.16379 0.0
C846 C 0.18228 0.5798 0.21081 0.0
C847 C 0.13229 0.56541 0.19012 0.0
C848 C 0.18047 0.55224 0.26449 0.0
C849 C 0.21163 0.63294 0.22028 0.0
C850 C 0.24896 0.65297 0.18252 0.0
C851 C 0.2832 0.70048 0.18475 0.0
C852 C 0.27908 0.72872 0.22589 0.0
C853 C 0.2408 0.70989 0.26485 0.0
C854 C 0.20653 0.66105 0.26184 0.0
H855 H 0.67903 0.16557 0.47999 0.0
H856 H 0.72128 0.29107 0.37911 0.0
H857 H 0.6501 0.2925 0.40965 0.0
H858 H 0.54367 0.11481 0.46877 0.0
H859 H 0.53524 0.0956 0.54155 0.0
H860 H 0.58169 0.09592 0.49999 0.0
H861 H 0.6428 0.14823 0.57584 0.0
H862 H 0.59656 0.14829 0.6168 0.0
H863 H 0.64717 0.20348 0.59549 0.0
H864 H 0.58581 0.29051 0.46213 0.0
H865 H 0.52973 0.2856 0.53295 0.0
H866 H 0.526 0.1621 0.6073 0.0
C867 C 0.6714 0.19141 0.46186 0.0
C868 C 0.70405 0.2267 0.42455 0.0
C869 C 0.69547 0.26258 0.40542 0.0
C870 C 0.65522 0.26372 0.42279 0.0
C871 C 0.62436 0.22944 0.4608 0.0
C872 C 0.63152 0.19364 0.48008 0.0
C873 C 0.59656 0.1659 0.52736 0.0
C874 C 0.56225 0.11503 0.50829 0.0
C875 C 0.62236 0.16657 0.5821 0.0
C876 C 0.57105 0.19381 0.53397 0.0
C877 C 0.58712 0.22938 0.49386 0.0
C878 C 0.57217 0.26221 0.49299 0.0
C879 C 0.54009 0.25905 0.53409 0.0
C880 C 0.52278 0.22332 0.57641 0.0
C881 C 0.53824 0.1898 0.57575 0.0
H882 H 0.30326 0.54816 0.9133 0.0
H883 H 0.39124 0.49438 0.9784 0.0
H884 H 0.45553 0.54797 0.9134 0.0
H885 H 0.34356 0.5602 0.76585 0.0
H886 H 0.33928 0.6124 0.75504 0.0
H887 H 0.30026 0.5677 0.80449 0.0
H888 H 0.32822 0.63115 0.88367 0.0
H889 H 0.36725 0.67563 0.83434 0.0
H890 H 0.39045 0.66627 0.89918 0.0
H891 H 0.5127 0.61315 0.84426 0.0
H892 H 0.55586 0.68284 0.7819 0.0
H893 H 0.42811 0.68977 0.76006 0.0
C894 C 0.3358 0.54713 0.91397 0.0
C895 C 0.34212 0.5172 0.95185 0.0
C896 C 0.38557 0.51738 0.95063 0.0
C897 C 0.42221 0.54747 0.91338 0.0
C898 C 0.41467 0.57668 0.87682 0.0
C899 C 0.37227 0.57633 0.87677 0.0
C900 C 0.37293 0.6117 0.83486 0.0
C901 C 0.33685 0.58649 0.78726 0.0
C902 C 0.36422 0.64835 0.86482 0.0
C903 C 0.42305 0.63365 0.81278 0.0
C904 C 0.44656 0.61265 0.83667 0.0
C905 C 0.49421 0.62916 0.82474 0.0
C906 C 0.51851 0.66869 0.78883 0.0
C907 C 0.49513 0.69117 0.76499 0.0
C908 C 0.44663 0.67268 0.77665 0.0
H909 H 0.74588 0.29437 0.24911 0.0
H910 H 0.89556 0.37405 0.28878 0.0
H911 H 0.90481 0.43734 0.22321 0.0
H912 H 0.75614 0.3263 0.10026 0.0
H913 H 0.70277 0.32956 0.10075 0.0
H914 H 0.70882 0.28986 0.14839 0.0
H915 H 0.69167 0.32854 0.23392 0.0
H916 H 0.68517 0.36797 0.18649 0.0
H917 H 0.72704 0.39151 0.2438 0.0
H918 H 0.89652 0.49309 0.15414 0.0
H919 H 0.87034 0.53829 0.09604 0.0
H920 H 0.7264 0.42211 0.1025 0.0
C921 C 0.78077 0.32492 0.24399 0.0
C922 C 0.82002 0.32906 0.27425 0.0
C923 C 0.86487 0.37006 0.2664 0.0
C924 C 0.87052 0.40604 0.22887 0.0
C925 C 0.831 0.40054 0.19947 0.0
C926 C 0.78695 0.36106 0.20703 0.0
C927 C 0.74956 0.36437 0.17274 0.0
C928 C 0.72806 0.32519 0.12788 0.0
C929 C 0.71111 0.36304 0.21156 0.0
C930 C 0.77912 0.41243 0.14546 0.0
C931 C 0.82616 0.43246 0.16058 0.0
C932 C 0.85981 0.47743 0.14187 0.0
C933 C 0.84474 0.50295 0.10844 0.0
C934 C 0.79659 0.48376 0.09389 0.0
C935 C 0.76364 0.43752 0.11211 0.0
H936 H 0.34848 0.86621 0.49103 0.0
H937 H 0.34308 0.77689 0.3537 0.0
H938 H 0.41768 0.7838 0.38585 0.0
H939 H 0.48562 0.93767 0.51111 0.0
H940 H 0.47838 0.93451 0.58693 0.0
H941 H 0.43565 0.93831 0.54232 0.0
H942 H 0.36921 0.86268 0.58948 0.0
H943 H 0.41153 0.85776 0.63303 0.0
H944 H 0.37236 0.80927 0.5882 0.0
H945 H 0.47934 0.78331 0.44286 0.0
H946 H 0.52485 0.77569 0.51975 0.0
H947 H 0.4895 0.85989 0.62871 0.0
C948 C 0.36535 0.85148 0.46537 0.0
C949 C 0.34215 0.82442 0.41678 0.0
C950 C 0.36221 0.80102 0.38786 0.0
C951 C 0.40433 0.80419 0.40657 0.0
C952 C 0.42521 0.82933 0.45596 0.0
C953 C 0.40668 0.85294 0.48509 0.0
C954 C 0.4302 0.86891 0.54291 0.0
C955 C 0.4592 0.92308 0.54598 0.0
C956 C 0.39363 0.8484 0.59121 0.0
C957 C 0.46236 0.84781 0.54307 0.0
C958 C 0.45967 0.82639 0.49174 0.0
C959 C 0.48233 0.80068 0.48281 0.0
C960 C 0.50778 0.79603 0.5274 0.0
C961 C 0.51052 0.81656 0.58103 0.0
C962 C 0.48841 0.84394 0.58836 0.0
H963 H 0.62684 0.46191 0.97567 0.0
H964 H 0.73563 0.55049 0.85516 0.0
H965 H 0.68358 0.50539 0.77644 0.0
H966 H 0.58772 0.35681 0.90877 0.0
H967 H 0.52524 0.33158 0.92117 0.0
H968 H 0.56705 0.37556 0.9686 0.0
H969 H 0.52894 0.42729 0.95181 0.0
H970 H 0.48665 0.38294 0.90469 0.0
H971 H 0.52246 0.44304 0.88056 0.0
H972 H 0.63234 0.43887 0.71562 0.0
H973 H 0.5774 0.36214 0.67331 0.0
H974 H 0.49085 0.32167 0.8239 0.0
C975 C 0.63869 0.47278 0.9326 0.0
C976 C 0.68549 0.50946 0.92135 0.0
C977 C 0.70031 0.52205 0.86461 0.0
C978 C 0.67077 0.49686 0.81954 0.0
C979 C 0.62575 0.45947 0.83157 0.0
C980 C 0.60895 0.44806 0.8865 0.0
C981 C 0.56022 0.40368 0.88694 0.0
C982 C 0.5601 0.36462 0.92351 0.0
C983 C 0.52233 0.41494 0.9072 0.0
C984 C 0.55398 0.39065 0.82432 0.0
C985 C 0.59246 0.4235 0.79341 0.0
C986 C 0.60022 0.41464 0.73791 0.0
C987 C 0.56818 0.37122 0.71346 0.0
C988 C 0.5268 0.33829 0.74239 0.0
C989 C 0.51972 0.34828 0.79878 0.0
loop_
_geom_bond_atom_site_label_1
_geom_bond_atom_site_label_2
_geom_bond_distance
_geom_bond_site_symmetry_2
_ccdc_geom_bond_type
Tb0 N31 2.660 . S
Tb0 N38 2.600 . S
Tb0 O44 2.546 . S
Tb0 O45 2.610 . S
Tb0 O47 2.320 . S
Tb0 O48 2.552 . S
Tb0 O49 2.413 . S
Tb0 O51 2.362 1_556 S
Tb0 O52 2.421 1_556 S
Tb0 C64 2.833 . S
C1 C4 1.432 . S
C1 C5 1.414 . S
C1 N8 1.359 . S
C2 C4 1.417 . S
C2 C6 1.432 . S
C2 C14 1.410 . S
C3 C5 1.444 . S
C3 C6 1.317 . S
C3 H26 0.929 . S
C4 C1 1.432 . S
C4 C2 1.417 . S
C4 N12 1.360 . S
C5 C1 1.414 . S
C5 C3 1.444 . S
C5 C10 1.385 . S
C6 C2 1.432 . S
C6 C3 1.317 . S
C6 H18 0.930 . S
C7 C9 1.392 . S
C7 C10 1.370 . S
C7 H19 0.931 . S
N8 C1 1.359 . S
N8 C9 1.327 . S
N8 Tb11 2.600 . S
C9 C7 1.392 . S
C9 N8 1.327 . S
C9 H16 0.930 . S
C10 C5 1.385 . S
C10 C7 1.370 . S
C10 H29 0.930 . S
Tb11 N8 2.600 . S
Tb11 N12 2.660 . S
Tb11 O45 2.362 1_554 S
Tb11 O46 2.421 . S
Tb11 O50 2.546 . S
Tb11 O51 2.610 . S
Tb11 O53 2.320 . S
Tb11 O54 2.552 . S
Tb11 O55 2.413 . S
Tb11 C75 2.833 . S
N12 C4 1.360 . S
N12 Tb11 2.660 . S
N12 C13 1.305 . S
C13 N12 1.305 . S
C13 C15 1.407 . S
C13 H20 0.930 . S
C14 C2 1.410 . S
C14 C15 1.345 . S
C14 H22 0.930 . S
C15 C13 1.407 . S
C15 C14 1.345 . S
C15 H17 0.930 . S
H16 C9 0.930 . S
H17 C15 0.930 . S
H18 C6 0.930 . S
H19 C7 0.931 . S
H20 C13 0.930 . S
H21 C35 0.930 . S
H22 C14 0.930 . S
H23 C41 0.930 . S
H24 C32 0.930 . S
H25 C39 0.931 1_655 S
H26 C3 0.929 . S
H27 C33 0.930 . S
H28 C66 0.930 . S
H29 C10 0.930 . S
H30 C65 0.929 . S
N31 Tb0 2.660 . S
N31 C32 1.305 . S
N31 C36 1.360 . S
C32 H24 0.930 . S
C32 N31 1.305 . S
C32 C35 1.407 . S
C33 H27 0.930 . S
C33 C34 1.410 . S
C33 C35 1.345 . S
C34 C33 1.410 . S
C34 C36 1.417 . S
C34 C66 1.432 . S
C35 H21 0.930 . S
C35 C32 1.407 . S
C35 C33 1.345 . S
C36 N31 1.360 . S
C36 C34 1.417 . S
C36 C40 1.432 . S
H37 C42 0.930 1_655 S
N38 Tb0 2.600 . S
N38 C40 1.359 . S
N38 C41 1.327 . S
C39 H25 0.931 1_455 S
C39 C41 1.392 . S
C39 C42 1.370 . S
C40 C36 1.432 . S
C40 N38 1.359 . S
C40 C43 1.414 . S
C41 H23 0.930 . S
C41 N38 1.327 . S
C41 C39 1.392 . S
C42 H37 0.930 1_455 S
C42 C39 1.370 . S
C42 C43 1.385 . S
C43 C40 1.414 . S
C43 C42 1.385 . S
C43 C65 1.444 . S
O44 Tb0 2.546 . S
O44 C64 1.251 . S
O45 Tb0 2.610 . S
O45 Tb11 2.362 1_556 S
O45 C56 1.283 . S
O46 Tb11 2.421 . S
O46 C63 1.262 1_554 S
O47 Tb0 2.320 . S
O47 C63 1.260 . S
O48 Tb0 2.552 . S
O48 C56 1.243 . S
O49 Tb0 2.413 . S
O49 C64 1.256 . S
O50 Tb11 2.546 . S
O50 C75 1.251 . S
O51 Tb0 2.362 1_554 S
O51 Tb11 2.610 . S
O51 C67 1.283 . S
O52 Tb0 2.421 1_554 S
O52 C74 1.262 . S
O53 Tb11 2.320 . S
O53 C74 1.260 . S
O54 Tb11 2.552 . S
O54 C67 1.243 . S
O55 Tb11 2.413 . S
O55 C75 1.256 . S
C56 O45 1.283 . S
C56 O48 1.243 . S
C57 C59 1.382 . S
C57 C61 1.393 . S
C57 C64 1.500 . S
C58 C59 1.400 . S
C58 C60 1.384 . S
C59 C57 1.382 . S
C59 C58 1.400 . S
C59 H76 0.930 . S
C60 C58 1.384 . S
C60 C62 1.392 . S
C60 H77 0.931 . S
C61 C57 1.393 . S
C61 C62 1.401 . S
C61 H78 0.930 . S
C62 C60 1.392 . S
C62 C61 1.401 . S
C62 H79 0.930 . S
C63 O46 1.262 1_556 S
C63 O47 1.260 . S
C64 Tb0 2.833 . S
C64 O44 1.251 . S
C64 O49 1.256 . S
C64 C57 1.500 . S
C65 H30 0.929 . S
C65 C43 1.444 . S
C65 C66 1.317 . S
C66 H28 0.930 . S
C66 C34 1.432 . S
C66 C65 1.317 . S
C67 O51 1.283 . S
C67 O54 1.243 . S
C68 C69 1.382 . S
C68 C72 1.393 . S
C68 C75 1.500 . S
C69 C68 1.382 . S
C69 C70 1.400 . S
C69 H80 0.930 . S
C70 C69 1.400 . S
C70 C71 1.384 . S
C71 C70 1.384 . S
C71 C73 1.392 . S
C71 H81 0.931 . S
C72 C68 1.393 . S
C72 C73 1.401 . S
C72 H82 0.930 . S
C73 C71 1.392 . S
C73 C72 1.401 . S
C73 H83 0.930 . S
C74 O52 1.262 . S
C74 O53 1.260 . S
C75 Tb11 2.833 . S
C75 O50 1.251 . S
C75 O55 1.256 . S
C75 C68 1.500 . S
H76 C59 0.930 . S
H77 C60 0.931 . S
H78 C61 0.930 . S
H79 C62 0.930 . S
H80 C69 0.930 . S
H81 C71 0.931 . S
H82 C72 0.930 . S
H83 C73 0.930 . S
Tb84 N115 2.660 . S
Tb84 N122 2.600 . S
Tb84 O128 2.546 . S
Tb84 O129 2.610 . S
Tb84 O131 2.320 . S
Tb84 O132 2.552 . S
Tb84 O133 2.413 . S
Tb84 O135 2.362 . S
Tb84 O136 2.421 . S
Tb84 C148 2.833 . S
C85 C88 1.432 . S
C85 C89 1.414 . S
C85 N92 1.359 . S
C86 C88 1.417 . S
C86 C90 1.432 1_655 S
C86 C98 1.410 . S
C87 C89 1.444 1_455 S
C87 C90 1.317 . S
C87 H110 0.929 . S
C88 C85 1.432 . S
C88 C86 1.417 . S
C88 N96 1.360 . S
C89 C85 1.414 . S
C89 C87 1.444 1_655 S
C89 C94 1.385 . S
C90 C86 1.432 1_455 S
C90 C87 1.317 . S
C90 H102 0.930 . S
C91 C93 1.392 . S
C91 C94 1.370 . S
C91 H103 0.931 . S
N92 C85 1.359 . S
N92 C93 1.327 . S
N92 Tb95 2.600 . S
C93 C91 1.392 . S
C93 N92 1.327 . S
C93 H100 0.930 . S
C94 C89 1.385 . S
C94 C91 1.370 . S
C94 H113 0.930 1_655 S
Tb95 N92 2.600 . S
Tb95 N96 2.660 . S
Tb95 O129 2.362 . S
Tb95 O130 2.421 . S
Tb95 O134 2.546 . S
Tb95 O135 2.610 . S
Tb95 O137 2.320 . S
Tb95 O138 2.552 . S
Tb95 O139 2.413 . S
Tb95 C159 2.833 . S
N96 C88 1.360 . S
N96 Tb95 2.660 . S
N96 C97 1.305 . S
C97 N96 1.305 . S
C97 C99 1.407 . S
C97 H104 0.930 . S
C98 C86 1.410 . S
C98 C99 1.345 . S
C98 H106 0.930 1_655 S
C99 C97 1.407 . S
C99 C98 1.345 . S
C99 H101 0.930 . S
H100 C93 0.930 . S
H101 C99 0.930 . S
H102 C90 0.930 . S
H103 C91 0.931 . S
H104 C97 0.930 . S
H105 C119 0.930 . S
H106 C98 0.930 1_455 S
H107 C125 0.930 . S
H108 C116 0.930 . S
H109 C123 0.931 1_565 S
H110 C87 0.929 . S
H111 C117 0.930 . S
H112 C150 0.930 . S
H113 C94 0.930 1_455 S
H114 C149 0.929 . S
N115 Tb84 2.660 . S
N115 C116 1.305 . S
N115 C120 1.360 . S
C116 H108 0.930 . S
C116 N115 1.305 . S
C116 C119 1.407 . S
C117 H111 0.930 . S
C117 C118 1.410 . S
C117 C119 1.345 . S
C118 C117 1.410 . S
C118 C120 1.417 . S
C118 C150 1.432 . S
C119 H105 0.930 . S
C119 C116 1.407 . S
C119 C117 1.345 . S
C120 N115 1.360 . S
C120 C118 1.417 . S
C120 C124 1.432 . S
H121 C126 0.930 1_565 S
N122 Tb84 2.600 . S
N122 C124 1.359 . S
N122 C125 1.327 . S
C123 H109 0.931 1_545 S
C123 C125 1.392 . S
C123 C126 1.370 . S
C124 C120 1.432 . S
C124 N122 1.359 . S
C124 C127 1.414 . S
C125 H107 0.930 . S
C125 N122 1.327 . S
C125 C123 1.392 . S
C126 H121 0.930 1_545 S
C126 C123 1.370 . S
C126 C127 1.385 . S
C127 C124 1.414 . S
C127 C126 1.385 . S
C127 C149 1.444 . S
O128 Tb84 2.546 . S
O128 C148 1.251 . S
O129 Tb84 2.610 . S
O129 Tb95 2.362 . S
O129 C140 1.283 . S
O130 Tb95 2.421 . S
O130 C147 1.262 . S
O131 Tb84 2.320 . S
O131 C147 1.260 . S
O132 Tb84 2.552 . S
O132 C140 1.243 . S
O133 Tb84 2.413 . S
O133 C148 1.256 . S
O134 Tb95 2.546 . S
O134 C159 1.251 . S
O135 Tb84 2.362 . S
O135 Tb95 2.610 . S
O135 C151 1.283 . S
O136 Tb84 2.421 . S
O136 C158 1.262 . S
O137 Tb95 2.320 . S
O137 C158 1.260 . S
O138 Tb95 2.552 . S
O138 C151 1.243 . S
O139 Tb95 2.413 . S
O139 C159 1.256 . S
C140 O129 1.283 . S
C140 O132 1.243 . S
C141 C143 1.382 . S
C141 C145 1.393 . S
C141 C148 1.500 . S
C142 C143 1.400 . S
C142 C144 1.379 1_554 S
C143 C141 1.382 . S
C143 C142 1.400 . S
C143 H160 0.930 . S
C144 C142 1.379 1_556 S
C144 C146 1.382 1_556 S
C144 H161 0.947 . S
C145 C141 1.393 . S
C145 C146 1.401 . S
C145 H162 0.930 . S
C146 C144 1.382 1_554 S
C146 C145 1.401 . S
C146 H163 0.930 . S
C147 O130 1.262 . S
C147 O131 1.260 . S
C148 Tb84 2.833 . S
C148 O128 1.251 . S
C148 O133 1.256 . S
C148 C141 1.500 . S
C149 H114 0.929 . S
C149 C127 1.444 . S
C149 C150 1.317 . S
C150 H112 0.930 . S
C150 C118 1.432 . S
C150 C149 1.317 . S
C151 O135 1.283 . S
C151 O138 1.243 . S
C152 C153 1.382 . S
C152 C156 1.393 . S
C152 C159 1.500 . S
C153 C152 1.382 . S
C153 C154 1.400 . S
C153 H164 0.930 . S
C154 C153 1.400 . S
C154 C155 1.384 . S
C155 C154 1.384 . S
C155 C157 1.392 . S
C155 H165 0.931 . S
C156 C152 1.393 . S
C156 C157 1.401 . S
C156 H166 0.930 . S
C157 C155 1.392 . S
C157 C156 1.401 . S
C157 H167 0.930 . S
C158 O136 1.262 . S
C158 O137 1.260 . S
C159 Tb95 2.833 . S
C159 O134 1.251 . S
C159 O139 1.256 . S
C159 C152 1.500 . S
H160 C143 0.930 . S
H161 C144 0.947 . S
H162 C145 0.930 . S
H163 C146 0.930 . S
H164 C153 0.930 . S
H165 C155 0.931 . S
H166 C156 0.930 . S
H167 C157 0.930 . S
Tb168 N199 2.660 . S
Tb168 N206 2.600 . S
Tb168 O212 2.546 . S
Tb168 O213 2.610 . S
Tb168 O215 2.320 . S
Tb168 O216 2.552 . S
Tb168 O217 2.413 . S
Tb168 O219 2.362 . S
Tb168 O220 2.421 . S
Tb168 C232 2.833 . S
C169 C172 1.432 . S
C169 C173 1.414 . S
C169 N176 1.359 . S
C170 C172 1.417 . S
C170 C174 1.432 1_565 S
C170 C182 1.410 . S
C171 C173 1.444 1_545 S
C171 C174 1.317 . S
C171 H194 0.929 . S
C172 C169 1.432 . S
C172 C170 1.417 . S
C172 N180 1.360 . S
C173 C169 1.414 . S
C173 C171 1.444 1_565 S
C173 C178 1.385 . S
C174 C170 1.432 1_545 S
C174 C171 1.317 . S
C174 H186 0.930 . S
C175 C177 1.392 . S
C175 C178 1.370 . S
C175 H187 0.931 . S
N176 C169 1.359 . S
N176 C177 1.327 . S
N176 Tb179 2.600 . S
C177 C175 1.392 . S
C177 N176 1.327 . S
C177 H184 0.930 . S
C178 C173 1.385 . S
C178 C175 1.370 . S
C178 H197 0.930 1_565 S
Tb179 N176 2.600 . S
Tb179 N180 2.660 . S
Tb179 O213 2.362 . S
Tb179 O214 2.421 . S
Tb179 O218 2.546 . S
Tb179 O219 2.610 . S
Tb179 O221 2.320 . S
Tb179 O222 2.552 . S
Tb179 O223 2.413 . S
Tb179 C243 2.833 . S
N180 C172 1.360 . S
N180 Tb179 2.660 . S
N180 C181 1.305 . S
C181 N180 1.305 . S
C181 C183 1.407 . S
C181 H188 0.930 . S
C182 C170 1.410 . S
C182 C183 1.345 . S
C182 H190 0.930 1_565 S
C183 C181 1.407 . S
C183 C182 1.345 . S
C183 H185 0.930 . S
H184 C177 0.930 . S
H185 C183 0.930 . S
H186 C174 0.930 . S
H187 C175 0.931 . S
H188 C181 0.930 . S
H189 C203 0.930 . S
H190 C182 0.930 1_545 S
H191 C209 0.930 . S
H192 C200 0.930 . S
H193 C207 0.931 . S
H194 C171 0.929 . S
H195 C201 0.930 . S
H196 C234 0.930 . S
H197 C178 0.930 1_545 S
H198 C233 0.929 . S
N199 Tb168 2.660 . S
N199 C200 1.305 . S
N199 C204 1.360 . S
C200 H192 0.930 . S
C200 N199 1.305 . S
C200 C203 1.407 . S
C201 H195 0.930 . S
C201 C202 1.410 . S
C201 C203 1.345 . S
C202 C201 1.410 . S
C202 C204 1.417 . S
C202 C234 1.432 . S
C203 H189 0.930 . S
C203 C200 1.407 . S
C203 C201 1.345 . S
C204 N199 1.360 . S
C204 C202 1.417 . S
C204 C208 1.432 . S
H205 C210 0.930 . S
N206 Tb168 2.600 . S
N206 C208 1.359 . S
N206 C209 1.327 . S
C207 H193 0.931 . S
C207 C209 1.392 . S
C207 C210 1.370 . S
C208 C204 1.432 . S
C208 N206 1.359 . S
C208 C211 1.414 . S
C209 H191 0.930 . S
C209 N206 1.327 . S
C209 C207 1.392 . S
C210 H205 0.930 . S
C210 C207 1.370 . S
C210 C211 1.385 . S
C211 C208 1.414 . S
C211 C210 1.385 . S
C211 C233 1.444 . S
O212 Tb168 2.546 . S
O212 C232 1.251 . S
O213 Tb168 2.610 . S
O213 Tb179 2.362 . S
O213 C224 1.283 . S
O214 Tb179 2.421 . S
O214 C231 1.262 . S
O215 Tb168 2.320 . S
O215 C231 1.260 . S
O216 Tb168 2.552 . S
O216 C224 1.243 . S
O217 Tb168 2.413 . S
O217 C232 1.256 . S
O218 Tb179 2.546 . S
O218 C243 1.251 . S
O219 Tb168 2.362 . S
O219 Tb179 2.610 . S
O219 C235 1.283 . S
O220 Tb168 2.421 . S
O220 C242 1.262 . S
O221 Tb179 2.320 . S
O221 C242 1.260 . S
O222 Tb179 2.552 . S
O222 C235 1.243 . S
O223 Tb179 2.413 . S
O223 C243 1.256 . S
C224 O213 1.283 . S
C224 O216 1.243 . S
C225 C227 1.382 . S
C225 C229 1.393 . S
C225 C232 1.500 . S
C226 C227 1.400 . S
C226 C228 1.384 . S
C227 C225 1.382 . S
C227 C226 1.400 . S
C227 H244 0.930 . S
C228 C226 1.384 . S
C228 C230 1.392 . S
C228 H245 0.931 . S
C229 C225 1.393 . S
C229 C230 1.401 . S
C229 H246 0.930 . S
C230 C228 1.392 . S
C230 C229 1.401 . S
C230 H247 0.930 . S
C231 O214 1.262 . S
C231 O215 1.260 . S
C232 Tb168 2.833 . S
C232 O212 1.251 . S
C232 O217 1.256 . S
C232 C225 1.500 . S
C233 H198 0.929 . S
C233 C211 1.444 . S
C233 C234 1.317 . S
C234 H196 0.930 . S
C234 C202 1.432 . S
C234 C233 1.317 . S
C235 O219 1.283 . S
C235 O222 1.243 . S
C236 C237 1.382 . S
C236 C240 1.393 . S
C236 C243 1.500 . S
C237 C236 1.382 . S
C237 C238 1.400 . S
C237 H248 0.930 . S
C238 C237 1.400 . S
C238 C239 1.384 1_556 S
C239 C238 1.384 1_554 S
C239 C241 1.392 1_554 S
C239 H249 0.931 . S
C240 C236 1.393 . S
C240 C241 1.401 . S
C240 H250 0.930 . S
C241 C239 1.392 1_556 S
C241 C240 1.401 . S
C241 H251 0.930 . S
C242 O220 1.262 . S
C242 O221 1.260 . S
C243 Tb179 2.833 . S
C243 O218 1.251 . S
C243 O223 1.256 . S
C243 C236 1.500 . S
H244 C227 0.930 . S
H245 C228 0.931 . S
H246 C229 0.930 . S
H247 C230 0.930 . S
H248 C237 0.930 . S
H249 C239 0.931 . S
H250 C240 0.930 . S
H251 C241 0.930 . S
Tb252 N283 2.660 . S
Tb252 N290 2.600 . S
Tb252 O296 2.546 . S
Tb252 O297 2.610 . S
Tb252 O299 2.320 . S
Tb252 O300 2.552 . S
Tb252 O301 2.413 . S
Tb252 O303 2.362 1_556 S
Tb252 O304 2.421 1_556 S
Tb252 C316 2.833 . S
C253 C256 1.432 . S
C253 C257 1.414 . S
C253 N260 1.359 . S
C254 C256 1.417 . S
C254 C258 1.432 . S
C254 C266 1.410 . S
C255 C257 1.444 . S
C255 C258 1.317 . S
C255 H278 0.929 . S
C256 C253 1.432 . S
C256 C254 1.417 . S
C256 N264 1.360 . S
C257 C253 1.414 . S
C257 C255 1.444 . S
C257 C262 1.385 . S
C258 C254 1.432 . S
C258 C255 1.317 . S
C258 H270 0.930 . S
C259 C261 1.392 . S
C259 C262 1.370 . S
C259 H271 0.931 . S
N260 C253 1.359 . S
N260 C261 1.327 . S
N260 Tb263 2.600 . S
C261 C259 1.392 . S
C261 N260 1.327 . S
C261 H268 0.930 . S
C262 C257 1.385 . S
C262 C259 1.370 . S
C262 H281 0.930 . S
Tb263 N260 2.600 . S
Tb263 N264 2.660 . S
Tb263 O297 2.362 1_554 S
Tb263 O298 2.421 . S
Tb263 O302 2.546 . S
Tb263 O303 2.610 . S
Tb263 O305 2.320 . S
Tb263 O306 2.552 . S
Tb263 O307 2.413 . S
Tb263 C327 2.833 . S
N264 C256 1.360 . S
N264 Tb263 2.660 . S
N264 C265 1.305 . S
C265 N264 1.305 . S
C265 C267 1.407 . S
C265 H272 0.930 . S
C266 C254 1.410 . S
C266 C267 1.345 . S
C266 H274 0.930 . S
C267 C265 1.407 . S
C267 C266 1.345 . S
C267 H269 0.930 . S
H268 C261 0.930 . S
H269 C267 0.930 . S
H270 C258 0.930 . S
H271 C259 0.931 . S
H272 C265 0.930 . S
H273 C287 0.930 . S
H274 C266 0.930 . S
H275 C293 0.930 . S
H276 C284 0.930 . S
H277 C291 0.931 1_455 S
H278 C255 0.929 . S
H279 C285 0.930 . S
H280 C318 0.930 . S
H281 C262 0.930 . S
H282 C317 0.929 . S
N283 Tb252 2.660 . S
N283 C284 1.305 . S
N283 C288 1.360 . S
C284 H276 0.930 . S
C284 N283 1.305 . S
C284 C287 1.407 . S
C285 H279 0.930 . S
C285 C286 1.410 . S
C285 C287 1.345 . S
C286 C285 1.410 . S
C286 C288 1.417 . S
C286 C318 1.432 . S
C287 H273 0.930 . S
C287 C284 1.407 . S
C287 C285 1.345 . S
C288 N283 1.360 . S
C288 C286 1.417 . S
C288 C292 1.432 . S
H289 C294 0.930 1_455 S
N290 Tb252 2.600 . S
N290 C292 1.359 . S
N290 C293 1.327 . S
C291 H277 0.931 1_655 S
C291 C293 1.392 . S
C291 C294 1.370 . S
C292 C288 1.432 . S
C292 N290 1.359 . S
C292 C295 1.414 . S
C293 H275 0.930 . S
C293 N290 1.327 . S
C293 C291 1.392 . S
C294 H289 0.930 1_655 S
C294 C291 1.370 . S
C294 C295 1.385 . S
C295 C292 1.414 . S
C295 C294 1.385 . S
C295 C317 1.444 . S
O296 Tb252 2.546 . S
O296 C316 1.251 . S
O297 Tb252 2.610 . S
O297 Tb263 2.362 1_556 S
O297 C308 1.283 . S
O298 Tb263 2.421 . S
O298 C315 1.262 1_554 S
O299 Tb252 2.320 . S
O299 C315 1.260 . S
O300 Tb252 2.552 . S
O300 C308 1.243 . S
O301 Tb252 2.413 . S
O301 C316 1.256 . S
O302 Tb263 2.546 . S
O302 C327 1.251 . S
O303 Tb252 2.362 1_554 S
O303 Tb263 2.610 . S
O303 C319 1.283 . S
O304 Tb252 2.421 1_554 S
O304 C326 1.262 . S
O305 Tb263 2.320 . S
O305 C326 1.260 . S
O306 Tb263 2.552 . S
O306 C319 1.243 . S
O307 Tb263 2.413 . S
O307 C327 1.256 . S
C308 O297 1.283 . S
C308 O300 1.243 . S
C309 C311 1.382 . S
C309 C313 1.393 . S
C309 C316 1.500 . S
C310 C311 1.400 . S
C310 C312 1.384 . S
C311 C309 1.382 . S
C311 C310 1.400 . S
C311 H328 0.930 . S
C312 C310 1.384 . S
C312 C314 1.392 . S
C312 H329 0.931 . S
C313 C309 1.393 . S
C313 C314 1.401 . S
C313 H330 0.930 . S
C314 C312 1.392 . S
C314 C313 1.401 . S
C314 H331 0.930 . S
C315 O298 1.262 1_556 S
C315 O299 1.260 . S
C316 Tb252 2.833 . S
C316 O296 1.251 . S
C316 O301 1.256 . S
C316 C309 1.500 . S
C317 H282 0.929 . S
C317 C295 1.444 . S
C317 C318 1.317 . S
C318 H280 0.930 . S
C318 C286 1.432 . S
C318 C317 1.317 . S
C319 O303 1.283 . S
C319 O306 1.243 . S
C320 C321 1.382 . S
C320 C324 1.393 . S
C320 C327 1.500 . S
C321 C320 1.382 . S
C321 C322 1.400 . S
C321 H332 0.930 . S
C322 C321 1.400 . S
C322 C323 1.384 . S
C323 C322 1.384 . S
C323 C325 1.392 . S
C323 H333 0.931 . S
C324 C320 1.393 . S
C324 C325 1.401 . S
C324 H334 0.930 . S
C325 C323 1.392 . S
C325 C324 1.401 . S
C325 H335 0.930 . S
C326 O304 1.262 . S
C326 O305 1.260 . S
C327 Tb263 2.833 . S
C327 O302 1.251 . S
C327 O307 1.256 . S
C327 C320 1.500 . S
H328 C311 0.930 . S
H329 C312 0.931 . S
H330 C313 0.930 . S
H331 C314 0.930 . S
H332 C321 0.930 . S
H333 C323 0.931 . S
H334 C324 0.930 . S
H335 C325 0.930 . S
Tb336 N367 2.660 . S
Tb336 N374 2.600 . S
Tb336 O380 2.546 . S
Tb336 O381 2.610 . S
Tb336 O383 2.320 . S
Tb336 O384 2.552 . S
Tb336 O385 2.413 . S
Tb336 O387 2.362 . S
Tb336 O388 2.421 . S
Tb336 C400 2.833 . S
C337 C340 1.432 . S
C337 C341 1.414 . S
C337 N344 1.359 . S
C338 C340 1.417 . S
C338 C342 1.432 1_455 S
C338 C350 1.410 . S
C339 C341 1.444 1_655 S
C339 C342 1.317 . S
C339 H362 0.929 . S
C340 C337 1.432 . S
C340 C338 1.417 . S
C340 N348 1.360 . S
C341 C337 1.414 . S
C341 C339 1.444 1_455 S
C341 C346 1.385 . S
C342 C338 1.432 1_655 S
C342 C339 1.317 . S
C342 H354 0.930 . S
C343 C345 1.392 . S
C343 C346 1.370 . S
C343 H355 0.931 . S
N344 C337 1.359 . S
N344 C345 1.327 . S
N344 Tb347 2.600 . S
C345 C343 1.392 . S
C345 N344 1.327 . S
C345 H352 0.930 . S
C346 C341 1.385 . S
C346 C343 1.370 . S
C346 H365 0.930 1_455 S
Tb347 N344 2.600 . S
Tb347 N348 2.660 . S
Tb347 O381 2.362 . S
Tb347 O382 2.421 . S
Tb347 O386 2.546 . S
Tb347 O387 2.610 . S
Tb347 O389 2.320 . S
Tb347 O390 2.552 . S
Tb347 O391 2.413 . S
Tb347 C411 2.833 . S
N348 C340 1.360 . S
N348 Tb347 2.660 . S
N348 C349 1.305 . S
C349 N348 1.305 . S
C349 C351 1.407 . S
C349 H356 0.930 . S
C350 C338 1.410 . S
C350 C351 1.345 . S
C350 H358 0.930 1_455 S
C351 C349 1.407 . S
C351 C350 1.345 . S
C351 H353 0.930 . S
H352 C345 0.930 . S
H353 C351 0.930 . S
H354 C342 0.930 . S
H355 C343 0.931 . S
H356 C349 0.930 . S
H357 C371 0.930 . S
H358 C350 0.930 1_655 S
H359 C377 0.930 . S
H360 C368 0.930 . S
H361 C375 0.931 1_545 S
H362 C339 0.929 . S
H363 C369 0.930 . S
H364 C402 0.930 . S
H365 C346 0.930 1_655 S
H366 C401 0.929 . S
N367 Tb336 2.660 . S
N367 C368 1.305 . S
N367 C372 1.360 . S
C368 H360 0.930 . S
C368 N367 1.305 . S
C368 C371 1.407 . S
C369 H363 0.930 . S
C369 C370 1.410 . S
C369 C371 1.345 . S
C370 C369 1.410 . S
C370 C372 1.417 . S
C370 C402 1.432 . S
C371 H357 0.930 . S
C371 C368 1.407 . S
C371 C369 1.345 . S
C372 N367 1.360 . S
C372 C370 1.417 . S
C372 C376 1.432 . S
H373 C378 0.930 1_545 S
N374 Tb336 2.600 . S
N374 C376 1.359 . S
N374 C377 1.327 . S
C375 H361 0.931 1_565 S
C375 C377 1.392 . S
C375 C378 1.370 . S
C376 C372 1.432 . S
C376 N374 1.359 . S
C376 C379 1.414 . S
C377 H359 0.930 . S
C377 N374 1.327 . S
C377 C375 1.392 . S
C378 H373 0.930 1_565 S
C378 C375 1.370 . S
C378 C379 1.385 . S
C379 C376 1.414 . S
C379 C378 1.385 . S
C379 C401 1.444 . S
O380 Tb336 2.546 . S
O380 C400 1.251 . S
O381 Tb336 2.610 . S
O381 Tb347 2.362 . S
O381 C392 1.283 . S
O382 Tb347 2.421 . S
O382 C399 1.262 . S
O383 Tb336 2.320 . S
O383 C399 1.260 . S
O384 Tb336 2.552 . S
O384 C392 1.243 . S
O385 Tb336 2.413 . S
O385 C400 1.256 . S
O386 Tb347 2.546 . S
O386 C411 1.251 . S
O387 Tb336 2.362 . S
O387 Tb347 2.610 . S
O387 C403 1.283 . S
O388 Tb336 2.421 . S
O388 C410 1.262 . S
O389 Tb347 2.320 . S
O389 C410 1.260 . S
O390 Tb347 2.552 . S
O390 C403 1.243 . S
O391 Tb347 2.413 . S
O391 C411 1.256 . S
C392 O381 1.283 . S
C392 O384 1.243 . S
C393 C395 1.382 . S
C393 C397 1.393 . S
C393 C400 1.500 . S
C394 C395 1.400 . S
C394 C396 1.379 1_554 S
C395 C393 1.382 . S
C395 C394 1.400 . S
C395 H412 0.930 . S
C396 C394 1.379 1_556 S
C396 C398 1.382 1_556 S
C396 H413 0.947 . S
C397 C393 1.393 . S
C397 C398 1.401 . S
C397 H414 0.930 . S
C398 C396 1.382 1_554 S
C398 C397 1.401 . S
C398 H415 0.930 . S
C399 O382 1.262 . S
C399 O383 1.260 . S
C400 Tb336 2.833 . S
C400 O380 1.251 . S
C400 O385 1.256 . S
C400 C393 1.500 . S
C401 H366 0.929 . S
C401 C379 1.444 . S
C401 C402 1.317 . S
C402 H364 0.930 . S
C402 C370 1.432 . S
C402 C401 1.317 . S
C403 O387 1.283 . S
C403 O390 1.243 . S
C404 C405 1.382 . S
C404 C408 1.393 . S
C404 C411 1.500 . S
C405 C404 1.382 . S
C405 C406 1.400 . S
C405 H416 0.930 . S
C406 C405 1.400 . S
C406 C407 1.384 . S
C407 C406 1.384 . S
C407 C409 1.392 . S
C407 H417 0.931 . S
C408 C404 1.393 . S
C408 C409 1.401 . S
C408 H418 0.930 . S
C409 C407 1.392 . S
C409 C408 1.401 . S
C409 H419 0.930 . S
C410 O388 1.262 . S
C410 O389 1.260 . S
C411 Tb347 2.833 . S
C411 O386 1.251 . S
C411 O391 1.256 . S
C411 C404 1.500 . S
H412 C395 0.930 . S
H413 C396 0.947 . S
H414 C397 0.930 . S
H415 C398 0.930 . S
H416 C405 0.930 . S
H417 C407 0.931 . S
H418 C408 0.930 . S
H419 C409 0.930 . S
Tb420 N451 2.660 . S
Tb420 N458 2.600 . S
Tb420 O464 2.546 . S
Tb420 O465 2.610 . S
Tb420 O467 2.320 . S
Tb420 O468 2.552 . S
Tb420 O469 2.413 . S
Tb420 O471 2.362 . S
Tb420 O472 2.421 . S
Tb420 C484 2.833 . S
C421 C424 1.432 . S
C421 C425 1.414 . S
C421 N428 1.359 . S
C422 C424 1.417 . S
C422 C426 1.432 1_545 S
C422 C434 1.410 . S
C423 C425 1.444 1_565 S
C423 C426 1.317 . S
C423 H446 0.929 . S
C424 C421 1.432 . S
C424 C422 1.417 . S
C424 N432 1.360 . S
C425 C421 1.414 . S
C425 C423 1.444 1_545 S
C425 C430 1.385 . S
C426 C422 1.432 1_565 S
C426 C423 1.317 . S
C426 H438 0.930 . S
C427 C429 1.392 . S
C427 C430 1.370 . S
C427 H439 0.931 . S
N428 C421 1.359 . S
N428 C429 1.327 . S
N428 Tb431 2.600 . S
C429 C427 1.392 . S
C429 N428 1.327 . S
C429 H436 0.930 . S
C430 C425 1.385 . S
C430 C427 1.370 . S
C430 H449 0.930 1_545 S
Tb431 N428 2.600 . S
Tb431 N432 2.660 . S
Tb431 O465 2.362 . S
Tb431 O466 2.421 . S
Tb431 O470 2.546 . S
Tb431 O471 2.610 . S
Tb431 O473 2.320 . S
Tb431 O474 2.552 . S
Tb431 O475 2.413 . S
Tb431 C495 2.833 . S
N432 C424 1.360 . S
N432 Tb431 2.660 . S
N432 C433 1.305 . S
C433 N432 1.305 . S
C433 C435 1.407 . S
C433 H440 0.930 . S
C434 C422 1.410 . S
C434 C435 1.345 . S
C434 H442 0.930 1_545 S
C435 C433 1.407 . S
C435 C434 1.345 . S
C435 H437 0.930 . S
H436 C429 0.930 . S
H437 C435 0.930 . S
H438 C426 0.930 . S
H439 C427 0.931 . S
H440 C433 0.930 . S
H441 C455 0.930 . S
H442 C434 0.930 1_565 S
H443 C461 0.930 . S
H444 C452 0.930 . S
H445 C459 0.931 . S
H446 C423 0.929 . S
H447 C453 0.930 . S
H448 C486 0.930 . S
H449 C430 0.930 1_565 S
H450 C485 0.929 . S
N451 Tb420 2.660 . S
N451 C452 1.305 . S
N451 C456 1.360 . S
C452 H444 0.930 . S
C452 N451 1.305 . S
C452 C455 1.407 . S
C453 H447 0.930 . S
C453 C454 1.410 . S
C453 C455 1.345 . S
C454 C453 1.410 . S
C454 C456 1.417 . S
C454 C486 1.432 . S
C455 H441 0.930 . S
C455 C452 1.407 . S
C455 C453 1.345 . S
C456 N451 1.360 . S
C456 C454 1.417 . S
C456 C460 1.432 . S
H457 C462 0.930 . S
N458 Tb420 2.600 . S
N458 C460 1.359 . S
N458 C461 1.327 . S
C459 H445 0.931 . S
C459 C461 1.392 . S
C459 C462 1.370 . S
C460 C456 1.432 . S
C460 N458 1.359 . S
C460 C463 1.414 . S
C461 H443 0.930 . S
C461 N458 1.327 . S
C461 C459 1.392 . S
C462 H457 0.930 . S
C462 C459 1.370 . S
C462 C463 1.385 . S
C463 C460 1.414 . S
C463 C462 1.385 . S
C463 C485 1.444 . S
O464 Tb420 2.546 . S
O464 C484 1.251 . S
O465 Tb420 2.610 . S
O465 Tb431 2.362 . S
O465 C476 1.283 . S
O466 Tb431 2.421 . S
O466 C483 1.262 . S
O467 Tb420 2.320 . S
O467 C483 1.260 . S
O468 Tb420 2.552 . S
O468 C476 1.243 . S
O469 Tb420 2.413 . S
O469 C484 1.256 . S
O470 Tb431 2.546 . S
O470 C495 1.251 . S
O471 Tb420 2.362 . S
O471 Tb431 2.610 . S
O471 C487 1.283 . S
O472 Tb420 2.421 . S
O472 C494 1.262 . S
O473 Tb431 2.320 . S
O473 C494 1.260 . S
O474 Tb431 2.552 . S
O474 C487 1.243 . S
O475 Tb431 2.413 . S
O475 C495 1.256 . S
C476 O465 1.283 . S
C476 O468 1.243 . S
C477 C479 1.382 . S
C477 C481 1.393 . S
C477 C484 1.500 . S
C478 C479 1.400 . S
C478 C480 1.384 . S
C479 C477 1.382 . S
C479 C478 1.400 . S
C479 H496 0.930 . S
C480 C478 1.384 . S
C480 C482 1.392 . S
C480 H497 0.931 . S
C481 C477 1.393 . S
C481 C482 1.401 . S
C481 H498 0.930 . S
C482 C480 1.392 . S
C482 C481 1.401 . S
C482 H499 0.930 . S
C483 O466 1.262 . S
C483 O467 1.260 . S
C484 Tb420 2.833 . S
C484 O464 1.251 . S
C484 O469 1.256 . S
C484 C477 1.500 . S
C485 H450 0.929 . S
C485 C463 1.444 . S
C485 C486 1.317 . S
C486 H448 0.930 . S
C486 C454 1.432 . S
C486 C485 1.317 . S
C487 O471 1.283 . S
C487 O474 1.243 . S
C488 C489 1.382 . S
C488 C492 1.393 . S
C488 C495 1.500 . S
C489 C488 1.382 . S
C489 C490 1.400 . S
C489 H500 0.930 . S
C490 C489 1.400 . S
C490 C491 1.384 1_556 S
C491 C490 1.384 1_554 S
C491 C493 1.392 1_554 S
C491 H501 0.931 . S
C492 C488 1.393 . S
C492 C493 1.401 . S
C492 H502 0.930 . S
C493 C491 1.392 1_556 S
C493 C492 1.401 . S
C493 H503 0.930 . S
C494 O472 1.262 . S
C494 O473 1.260 . S
C495 Tb431 2.833 . S
C495 O470 1.251 . S
C495 O475 1.256 . S
C495 C488 1.500 . S
H496 C479 0.930 . S
H497 C480 0.931 . S
H498 C481 0.930 . S
H499 C482 0.930 . S
H500 C489 0.930 . S
H501 C491 0.931 . S
H502 C492 0.930 . S
H503 C493 0.930 . S
H504 C516 0.930 . S
H505 C518 0.930 . S
H506 C519 0.930 . S
H507 C523 0.959 . S
H508 C523 0.959 . S
H509 C523 0.961 . S
H510 C524 0.960 . S
H511 C524 0.961 . S
H512 C524 0.959 . S
H513 C527 0.929 . S
H514 C528 0.931 . S
H515 C530 0.930 . S
C516 H504 0.930 . S
C516 C517 1.399 . S
C516 C521 1.399 . S
C517 C516 1.399 . S
C517 C518 1.376 . S
C518 H505 0.930 . S
C518 C517 1.376 . S
C518 C519 1.388 . S
C519 H506 0.930 . S
C519 C518 1.388 . S
C519 C520 1.390 . S
C520 C519 1.390 . S
C520 C521 1.394 . S
C520 C526 1.465 . S
C521 C516 1.399 . S
C521 C520 1.394 . S
C521 C522 1.516 . S
C522 C521 1.516 . S
C522 C523 1.502 . S
C522 C524 1.561 . S
C522 C525 1.526 . S
C523 H507 0.959 . S
C523 H508 0.959 . S
C523 H509 0.961 . S
C523 C522 1.502 . S
C524 H510 0.960 . S
C524 H511 0.961 . S
C524 H512 0.959 . S
C524 C522 1.561 . S
C525 C522 1.526 . S
C525 C526 1.396 . S
C525 C530 1.390 . S
C526 C520 1.465 . S
C526 C525 1.396 . S
C526 C527 1.399 . S
C527 H513 0.929 . S
C527 C526 1.399 . S
C527 C528 1.385 . S
C528 H514 0.931 . S
C528 C527 1.385 . S
C528 C529 1.389 . S
C529 C528 1.389 . S
C529 C530 1.387 . S
C530 H515 0.930 . S
C530 C525 1.390 . S
C530 C529 1.387 . S
H531 C543 0.930 . S
H532 C545 0.930 . S
H533 C546 0.930 1_655 S
H534 C550 0.959 . S
H535 C550 0.959 . S
H536 C550 0.961 . S
H537 C551 0.960 . S
H538 C551 0.961 . S
H539 C551 0.959 . S
H540 C554 0.929 . S
H541 C555 0.931 . S
H542 C557 0.930 . S
C543 H531 0.930 . S
C543 C544 1.399 . S
C543 C548 1.399 . S
C544 C543 1.399 . S
C544 C545 1.376 . S
C545 H532 0.930 . S
C545 C544 1.376 . S
C545 C546 1.388 . S
C546 H533 0.930 1_455 S
C546 C545 1.388 . S
C546 C547 1.390 . S
C547 C546 1.390 . S
C547 C548 1.394 . S
C547 C553 1.465 1_455 S
C548 C543 1.399 . S
C548 C547 1.394 . S
C548 C549 1.516 . S
C549 C548 1.516 . S
C549 C550 1.502 . S
C549 C551 1.561 . S
C549 C552 1.526 1_455 S
C550 H534 0.959 . S
C550 H535 0.959 . S
C550 H536 0.961 . S
C550 C549 1.502 . S
C551 H537 0.960 . S
C551 H538 0.961 . S
C551 H539 0.959 . S
C551 C549 1.561 . S
C552 C549 1.526 1_655 S
C552 C553 1.396 . S
C552 C557 1.390 . S
C553 C547 1.465 1_655 S
C553 C552 1.396 . S
C553 C554 1.399 . S
C554 H540 0.929 . S
C554 C553 1.399 . S
C554 C555 1.385 . S
C555 H541 0.931 . S
C555 C554 1.385 . S
C555 C556 1.389 . S
C556 C555 1.389 . S
C556 C557 1.387 . S
C557 H542 0.930 . S
C557 C552 1.390 . S
C557 C556 1.387 . S
H558 C570 0.930 . S
H559 C572 0.930 . S
H560 C573 0.930 . S
H561 C577 0.959 . S
H562 C577 0.959 . S
H563 C577 0.961 . S
H564 C578 0.960 . S
H565 C578 0.961 . S
H566 C578 0.959 . S
H567 C581 0.929 1_545 S
H568 C582 0.931 . S
H569 C584 0.930 . S
C570 H558 0.930 . S
C570 C571 1.399 . S
C570 C575 1.399 . S
C571 C570 1.399 . S
C571 C572 1.376 . S
C572 H559 0.930 . S
C572 C571 1.376 . S
C572 C573 1.388 . S
C573 H560 0.930 . S
C573 C572 1.388 . S
C573 C574 1.390 . S
C574 C573 1.390 . S
C574 C575 1.394 . S
C574 C580 1.465 1_545 S
C575 C570 1.399 . S
C575 C574 1.394 . S
C575 C576 1.516 1_545 S
C576 C575 1.516 1_565 S
C576 C577 1.502 . S
C576 C578 1.561 . S
C576 C579 1.526 . S
C577 H561 0.959 . S
C577 H562 0.959 . S
C577 H563 0.961 . S
C577 C576 1.502 . S
C578 H564 0.960 . S
C578 H565 0.961 . S
C578 H566 0.959 . S
C578 C576 1.561 . S
C579 C576 1.526 . S
C579 C580 1.396 . S
C579 C584 1.390 . S
C580 C574 1.465 1_565 S
C580 C579 1.396 . S
C580 C581 1.399 . S
C581 H567 0.929 1_565 S
C581 C580 1.399 . S
C581 C582 1.385 . S
C582 H568 0.931 . S
C582 C581 1.385 . S
C582 C583 1.389 . S
C583 C582 1.389 . S
C583 C584 1.387 . S
C584 H569 0.930 . S
C584 C579 1.390 . S
C584 C583 1.387 . S
H585 C597 0.930 . S
H586 C599 0.930 . S
H587 C600 0.930 . S
H588 C604 0.959 . S
H589 C604 0.959 . S
H590 C604 0.961 . S
H591 C605 0.960 . S
H592 C605 0.961 . S
H593 C605 0.959 . S
H594 C608 0.929 . S
H595 C609 0.931 . S
H596 C611 0.930 . S
C597 H585 0.930 . S
C597 C598 1.399 . S
C597 C602 1.399 . S
C598 C597 1.399 . S
C598 C599 1.376 . S
C599 H586 0.930 . S
C599 C598 1.376 . S
C599 C600 1.388 . S
C600 H587 0.930 . S
C600 C599 1.388 . S
C600 C601 1.390 . S
C601 C600 1.390 . S
C601 C602 1.394 . S
C601 C607 1.465 . S
C602 C597 1.399 . S
C602 C601 1.394 . S
C602 C603 1.516 . S
C603 C602 1.516 . S
C603 C604 1.502 . S
C603 C605 1.561 . S
C603 C606 1.526 . S
C604 H588 0.959 . S
C604 H589 0.959 . S
C604 H590 0.961 . S
C604 C603 1.502 . S
C605 H591 0.960 . S
C605 H592 0.961 . S
C605 H593 0.959 . S
C605 C603 1.561 . S
C606 C603 1.526 . S
C606 C607 1.396 . S
C606 C611 1.390 . S
C607 C601 1.465 . S
C607 C606 1.396 . S
C607 C608 1.399 . S
C608 H594 0.929 . S
C608 C607 1.399 . S
C608 C609 1.385 . S
C609 H595 0.931 . S
C609 C608 1.385 . S
C609 C610 1.389 . S
C610 C609 1.389 . S
C610 C611 1.387 . S
C611 H596 0.930 . S
C611 C606 1.390 . S
C611 C610 1.387 . S
H612 C624 0.930 . S
H613 C626 0.930 . S
H614 C627 0.930 . S
H615 C631 0.959 . S
H616 C631 0.959 . S
H617 C631 0.961 1_455 S
H618 C632 0.960 . S
H619 C632 0.961 . S
H620 C632 0.959 . S
H621 C635 0.929 . S
H622 C636 0.931 . S
H623 C638 0.930 . S
C624 H612 0.930 . S
C624 C625 1.399 . S
C624 C629 1.399 . S
C625 C624 1.399 . S
C625 C626 1.376 . S
C626 H613 0.930 . S
C626 C625 1.376 . S
C626 C627 1.388 . S
C627 H614 0.930 . S
C627 C626 1.388 . S
C627 C628 1.390 . S
C628 C627 1.390 . S
C628 C629 1.394 . S
C628 C634 1.465 1_455 S
C629 C624 1.399 . S
C629 C628 1.394 . S
C629 C630 1.516 . S
C630 C629 1.516 . S
C630 C631 1.502 1_455 S
C630 C632 1.561 . S
C630 C633 1.526 1_455 S
C631 H615 0.959 . S
C631 H616 0.959 . S
C631 H617 0.961 1_655 S
C631 C630 1.502 1_655 S
C632 H618 0.960 . S
C632 H619 0.961 . S
C632 H620 0.959 . S
C632 C630 1.561 . S
C633 C630 1.526 1_655 S
C633 C634 1.396 . S
C633 C638 1.390 . S
C634 C628 1.465 1_655 S
C634 C633 1.396 . S
C634 C635 1.399 . S
C635 H621 0.929 . S
C635 C634 1.399 . S
C635 C636 1.385 . S
C636 H622 0.931 . S
C636 C635 1.385 . S
C636 C637 1.389 . S
C637 C636 1.389 . S
C637 C638 1.387 . S
C638 H623 0.930 . S
C638 C633 1.390 . S
C638 C637 1.387 . S
H639 C651 0.930 . S
H640 C653 0.930 . S
H641 C654 0.930 1_565 S
H642 C658 0.959 . S
H643 C658 0.959 . S
H644 C658 0.961 . S
H645 C659 0.960 . S
H646 C659 0.961 . S
H647 C659 0.959 . S
H648 C662 0.929 . S
H649 C663 0.931 . S
H650 C665 0.930 . S
C651 H639 0.930 . S
C651 C652 1.399 . S
C651 C656 1.399 . S
C652 C651 1.399 . S
C652 C653 1.376 . S
C653 H640 0.930 . S
C653 C652 1.376 . S
C653 C654 1.388 . S
C654 H641 0.930 1_545 S
C654 C653 1.388 . S
C654 C655 1.390 . S
C655 C654 1.390 . S
C655 C656 1.394 . S
C655 C661 1.465 1_545 S
C656 C651 1.399 . S
C656 C655 1.394 . S
C656 C657 1.516 . S
C657 C656 1.516 . S
C657 C658 1.502 . S
C657 C659 1.561 . S
C657 C660 1.526 1_545 S
C658 H642 0.959 . S
C658 H643 0.959 . S
C658 H644 0.961 . S
C658 C657 1.502 . S
C659 H645 0.960 . S
C659 H646 0.961 . S
C659 H647 0.959 . S
C659 C657 1.561 . S
C660 C657 1.526 1_565 S
C660 C661 1.396 . S
C660 C665 1.390 . S
C661 C655 1.465 1_565 S
C661 C660 1.396 . S
C661 C662 1.399 . S
C662 H648 0.929 . S
C662 C661 1.399 . S
C662 C663 1.385 . S
C663 H649 0.931 . S
C663 C662 1.385 . S
C663 C664 1.389 . S
C664 C663 1.389 . S
C664 C665 1.387 . S
C665 H650 0.930 . S
C665 C660 1.390 . S
C665 C664 1.387 . S
H666 C678 0.930 . S
H667 C680 0.930 . S
H668 C681 0.930 . S
H669 C685 0.959 . S
H670 C685 0.959 . S
H671 C685 0.961 . S
H672 C686 0.960 . S
H673 C686 0.961 . S
H674 C686 0.959 . S
H675 C689 0.929 . S
H676 C690 0.931 . S
H677 C692 0.930 . S
C678 H666 0.930 . S
C678 C679 1.399 . S
C678 C683 1.399 . S
C679 C678 1.399 . S
C679 C680 1.376 . S
C680 H667 0.930 . S
C680 C679 1.376 . S
C680 C681 1.388 . S
C681 H668 0.930 . S
C681 C680 1.388 . S
C681 C682 1.390 . S
C682 C681 1.390 . S
C682 C683 1.394 . S
C682 C688 1.465 . S
C683 C678 1.399 . S
C683 C682 1.394 . S
C683 C684 1.516 . S
C684 C683 1.516 . S
C684 C685 1.502 . S
C684 C686 1.561 . S
C684 C687 1.526 . S
C685 H669 0.959 . S
C685 H670 0.959 . S
C685 H671 0.961 . S
C685 C684 1.502 . S
C686 H672 0.960 . S
C686 H673 0.961 . S
C686 H674 0.959 . S
C686 C684 1.561 . S
C687 C684 1.526 . S
C687 C688 1.396 . S
C687 C692 1.390 . S
C688 C682 1.465 . S
C688 C687 1.396 . S
C688 C689 1.399 . S
C689 H675 0.929 . S
C689 C688 1.399 . S
C689 C690 1.385 . S
C690 H676 0.931 . S
C690 C689 1.385 . S
C690 C691 1.389 . S
C691 C690 1.389 . S
C691 C692 1.387 . S
C692 H677 0.930 . S
C692 C687 1.390 . S
C692 C691 1.387 . S
H693 C705 0.930 . S
H694 C707 0.930 . S
H695 C708 0.930 . S
H696 C712 0.959 . S
H697 C712 0.959 . S
H698 C712 0.961 . S
H699 C713 0.960 . S
H700 C713 0.961 . S
H701 C713 0.959 . S
H702 C716 0.929 . S
H703 C717 0.931 . S
H704 C719 0.930 . S
C705 H693 0.930 . S
C705 C706 1.399 . S
C705 C710 1.399 . S
C706 C705 1.399 . S
C706 C707 1.376 . S
C707 H694 0.930 . S
C707 C706 1.376 . S
C707 C708 1.388 . S
C708 H695 0.930 . S
C708 C707 1.388 . S
C708 C709 1.390 . S
C709 C708 1.390 . S
C709 C710 1.394 . S
C709 C715 1.465 . S
C710 C705 1.399 . S
C710 C709 1.394 . S
C710 C711 1.516 . S
C711 C710 1.516 . S
C711 C712 1.502 . S
C711 C713 1.561 . S
C711 C714 1.526 . S
C712 H696 0.959 . S
C712 H697 0.959 . S
C712 H698 0.961 . S
C712 C711 1.502 . S
C713 H699 0.960 . S
C713 H700 0.961 . S
C713 H701 0.959 . S
C713 C711 1.561 . S
C714 C711 1.526 . S
C714 C715 1.396 . S
C714 C719 1.390 . S
C715 C709 1.465 . S
C715 C714 1.396 . S
C715 C716 1.399 . S
C716 H702 0.929 . S
C716 C715 1.399 . S
C716 C717 1.385 . S
C717 H703 0.931 . S
C717 C716 1.385 . S
C717 C718 1.389 . S
C718 C717 1.389 . S
C718 C719 1.387 . S
C719 H704 0.930 . S
C719 C714 1.390 . S
C719 C718 1.387 . S
H720 C732 0.930 . S
H721 C734 0.930 . S
H722 C735 0.930 . S
H723 C739 0.959 . S
H724 C739 0.959 . S
H725 C739 0.961 . S
H726 C740 0.960 . S
H727 C740 0.961 . S
H728 C740 0.959 . S
H729 C743 0.929 . S
H730 C744 0.931 . S
H731 C746 0.930 . S
C732 H720 0.930 . S
C732 C733 1.399 . S
C732 C737 1.399 . S
C733 C732 1.399 . S
C733 C734 1.376 . S
C734 H721 0.930 . S
C734 C733 1.376 . S
C734 C735 1.388 . S
C735 H722 0.930 . S
C735 C734 1.388 . S
C735 C736 1.390 . S
C736 C735 1.390 . S
C736 C737 1.394 . S
C736 C742 1.465 . S
C737 C732 1.399 . S
C737 C736 1.394 . S
C737 C738 1.516 . S
C738 C737 1.516 . S
C738 C739 1.502 . S
C738 C740 1.561 . S
C738 C741 1.526 . S
C739 H723 0.959 . S
C739 H724 0.959 . S
C739 H725 0.961 . S
C739 C738 1.502 . S
C740 H726 0.960 . S
C740 H727 0.961 . S
C740 H728 0.959 . S
C740 C738 1.561 . S
C741 C738 1.526 . S
C741 C742 1.396 . S
C741 C746 1.390 . S
C742 C736 1.465 . S
C742 C741 1.396 . S
C742 C743 1.399 . S
C743 H729 0.929 . S
C743 C742 1.399 . S
C743 C744 1.385 . S
C744 H730 0.931 . S
C744 C743 1.385 . S
C744 C745 1.389 . S
C745 C744 1.389 . S
C745 C746 1.387 . S
C746 H731 0.930 . S
C746 C741 1.390 . S
C746 C745 1.387 . S
H747 C759 0.930 . S
H748 C761 0.930 . S
H749 C762 0.930 . S
H750 C766 0.959 . S
H751 C766 0.959 . S
H752 C766 0.961 . S
H753 C767 0.960 . S
H754 C767 0.961 . S
H755 C767 0.959 . S
H756 C770 0.929 . S
H757 C771 0.931 . S
H758 C773 0.930 . S
C759 H747 0.930 . S
C759 C760 1.399 . S
C759 C764 1.399 . S
C760 C759 1.399 . S
C760 C761 1.376 . S
C761 H748 0.930 . S
C761 C760 1.376 . S
C761 C762 1.388 . S
C762 H749 0.930 . S
C762 C761 1.388 . S
C762 C763 1.390 . S
C763 C762 1.390 . S
C763 C764 1.394 . S
C763 C769 1.465 . S
C764 C759 1.399 . S
C764 C763 1.394 . S
C764 C765 1.516 . S
C765 C764 1.516 . S
C765 C766 1.502 . S
C765 C767 1.561 . S
C765 C768 1.526 . S
C766 H750 0.959 . S
C766 H751 0.959 . S
C766 H752 0.961 . S
C766 C765 1.502 . S
C767 H753 0.960 . S
C767 H754 0.961 . S
C767 H755 0.959 . S
C767 C765 1.561 . S
C768 C765 1.526 . S
C768 C769 1.396 . S
C768 C773 1.390 . S
C769 C763 1.465 . S
C769 C768 1.396 . S
C769 C770 1.399 . S
C770 H756 0.929 . S
C770 C769 1.399 . S
C770 C771 1.385 . S
C771 H757 0.931 . S
C771 C770 1.385 . S
C771 C772 1.389 . S
C772 C771 1.389 . S
C772 C773 1.387 . S
C773 H758 0.930 . S
C773 C768 1.390 . S
C773 C772 1.387 . S
H774 C786 0.930 . S
H775 C788 0.930 . S
H776 C789 0.930 . S
H777 C793 0.959 . S
H778 C793 0.959 . S
H779 C793 0.961 . S
H780 C794 0.960 . S
H781 C794 0.961 . S
H782 C794 0.959 . S
H783 C797 0.929 . S
H784 C798 0.931 . S
H785 C800 0.930 . S
C786 H774 0.930 . S
C786 C787 1.399 . S
C786 C791 1.399 . S
C787 C786 1.399 . S
C787 C788 1.376 . S
C788 H775 0.930 . S
C788 C787 1.376 . S
C788 C789 1.388 . S
C789 H776 0.930 . S
C789 C788 1.388 . S
C789 C790 1.390 . S
C790 C789 1.390 . S
C790 C791 1.394 . S
C790 C796 1.465 . S
C791 C786 1.399 . S
C791 C790 1.394 . S
C791 C792 1.516 . S
C792 C791 1.516 . S
C792 C793 1.502 . S
C792 C794 1.561 . S
C792 C795 1.526 . S
C793 H777 0.959 . S
C793 H778 0.959 . S
C793 H779 0.961 . S
C793 C792 1.502 . S
C794 H780 0.960 . S
C794 H781 0.961 . S
C794 H782 0.959 . S
C794 C792 1.561 . S
C795 C792 1.526 . S
C795 C796 1.396 . S
C795 C800 1.390 . S
C796 C790 1.465 . S
C796 C795 1.396 . S
C796 C797 1.399 . S
C797 H783 0.929 . S
C797 C796 1.399 . S
C797 C798 1.385 . S
C798 H784 0.931 . S
C798 C797 1.385 . S
C798 C799 1.389 . S
C799 C798 1.389 . S
C799 C800 1.387 . S
C800 H785 0.930 . S
C800 C795 1.390 . S
C800 C799 1.387 . S
H801 C813 0.930 . S
H802 C815 0.930 . S
H803 C816 0.930 . S
H804 C820 0.959 . S
H805 C820 0.959 . S
H806 C820 0.961 . S
H807 C821 0.960 . S
H808 C821 0.961 . S
H809 C821 0.959 . S
H810 C824 0.929 . S
H811 C825 0.931 . S
H812 C827 0.930 . S
C813 H801 0.930 . S
C813 C814 1.399 . S
C813 C818 1.399 . S
C814 C813 1.399 . S
C814 C815 1.376 . S
C815 H802 0.930 . S
C815 C814 1.376 . S
C815 C816 1.388 . S
C816 H803 0.930 . S
C816 C815 1.388 . S
C816 C817 1.390 . S
C817 C816 1.390 . S
C817 C818 1.394 . S
C817 C823 1.465 . S
C818 C813 1.399 . S
C818 C817 1.394 . S
C818 C819 1.516 . S
C819 C818 1.516 . S
C819 C820 1.502 . S
C819 C821 1.561 . S
C819 C822 1.526 . S
C820 H804 0.959 . S
C820 H805 0.959 . S
C820 H806 0.961 . S
C820 C819 1.502 . S
C821 H807 0.960 . S
C821 H808 0.961 . S
C821 H809 0.959 . S
C821 C819 1.561 . S
C822 C819 1.526 . S
C822 C823 1.396 . S
C822 C827 1.390 . S
C823 C817 1.465 . S
C823 C822 1.396 . S
C823 C824 1.399 . S
C824 H810 0.929 . S
C824 C823 1.399 . S
C824 C825 1.385 . S
C825 H811 0.931 . S
C825 C824 1.385 . S
C825 C826 1.389 . S
C826 C825 1.389 . S
C826 C827 1.387 . S
C827 H812 0.930 . S
C827 C822 1.390 . S
C827 C826 1.387 . S
H828 C840 0.930 . S
H829 C842 0.930 . S
H830 C843 0.930 . S
H831 C847 0.959 . S
H832 C847 0.959 . S
H833 C847 0.961 . S
H834 C848 0.960 . S
H835 C848 0.961 . S
H836 C848 0.959 . S
H837 C851 0.929 . S
H838 C852 0.931 . S
H839 C854 0.930 . S
C840 H828 0.930 . S
C840 C841 1.399 . S
C840 C845 1.399 . S
C841 C840 1.399 . S
C841 C842 1.376 . S
C842 H829 0.930 . S
C842 C841 1.376 . S
C842 C843 1.388 . S
C843 H830 0.930 . S
C843 C842 1.388 . S
C843 C844 1.390 . S
C844 C843 1.390 . S
C844 C845 1.394 . S
C844 C850 1.465 . S
C845 C840 1.399 . S
C845 C844 1.394 . S
C845 C846 1.516 . S
C846 C845 1.516 . S
C846 C847 1.502 . S
C846 C848 1.561 . S
C846 C849 1.526 . S
C847 H831 0.959 . S
C847 H832 0.959 . S
C847 H833 0.961 . S
C847 C846 1.502 . S
C848 H834 0.960 . S
C848 H835 0.961 . S
C848 H836 0.959 . S
C848 C846 1.561 . S
C849 C846 1.526 . S
C849 C850 1.396 . S
C849 C854 1.390 . S
C850 C844 1.465 . S
C850 C849 1.396 . S
C850 C851 1.399 . S
C851 H837 0.929 . S
C851 C850 1.399 . S
C851 C852 1.385 . S
C852 H838 0.931 . S
C852 C851 1.385 . S
C852 C853 1.389 . S
C853 C852 1.389 . S
C853 C854 1.387 . S
C854 H839 0.930 . S
C854 C849 1.390 . S
C854 C853 1.387 . S
H855 C867 0.930 . S
H856 C869 0.930 . S
H857 C870 0.930 . S
H858 C874 0.959 . S
H859 C874 0.959 . S
H860 C874 0.961 . S
H861 C875 0.960 . S
H862 C875 0.961 . S
H863 C875 0.959 . S
H864 C878 0.929 . S
H865 C879 0.931 . S
H866 C881 0.930 . S
C867 H855 0.930 . S
C867 C868 1.399 . S
C867 C872 1.399 . S
C868 C867 1.399 . S
C868 C869 1.376 . S
C869 H856 0.930 . S
C869 C868 1.376 . S
C869 C870 1.388 . S
C870 H857 0.930 . S
C870 C869 1.388 . S
C870 C871 1.390 . S
C871 C870 1.390 . S
C871 C872 1.394 . S
C871 C877 1.465 . S
C872 C867 1.399 . S
C872 C871 1.394 . S
C872 C873 1.516 . S
C873 C872 1.516 . S
C873 C874 1.502 . S
C873 C875 1.561 . S
C873 C876 1.526 . S
C874 H858 0.959 . S
C874 H859 0.959 . S
C874 H860 0.961 . S
C874 C873 1.502 . S
C875 H861 0.960 . S
C875 H862 0.961 . S
C875 H863 0.959 . S
C875 C873 1.561 . S
C876 C873 1.526 . S
C876 C877 1.396 . S
C876 C881 1.390 . S
C877 C871 1.465 . S
C877 C876 1.396 . S
C877 C878 1.399 . S
C878 H864 0.929 . S
C878 C877 1.399 . S
C878 C879 1.385 . S
C879 H865 0.931 . S
C879 C878 1.385 . S
C879 C880 1.389 . S
C880 C879 1.389 . S
C880 C881 1.387 . S
C881 H866 0.930 . S
C881 C876 1.390 . S
C881 C880 1.387 . S
H882 C894 0.930 . S
H883 C896 0.930 . S
H884 C897 0.930 . S
H885 C901 0.959 . S
H886 C901 0.959 . S
H887 C901 0.961 . S
H888 C902 0.960 . S
H889 C902 0.961 . S
H890 C902 0.959 . S
H891 C905 0.929 . S
H892 C906 0.931 . S
H893 C908 0.930 . S
C894 H882 0.930 . S
C894 C895 1.399 . S
C894 C899 1.399 . S
C895 C894 1.399 . S
C895 C896 1.376 . S
C896 H883 0.930 . S
C896 C895 1.376 . S
C896 C897 1.388 . S
C897 H884 0.930 . S
C897 C896 1.388 . S
C897 C898 1.390 . S
C898 C897 1.390 . S
C898 C899 1.394 . S
C898 C904 1.465 . S
C899 C894 1.399 . S
C899 C898 1.394 . S
C899 C900 1.516 . S
C900 C899 1.516 . S
C900 C901 1.502 . S
C900 C902 1.561 . S
C900 C903 1.526 . S
C901 H885 0.959 . S
C901 H886 0.959 . S
C901 H887 0.961 . S
C901 C900 1.502 . S
C902 H888 0.960 . S
C902 H889 0.961 . S
C902 H890 0.959 . S
C902 C900 1.561 . S
C903 C900 1.526 . S
C903 C904 1.396 . S
C903 C908 1.390 . S
C904 C898 1.465 . S
C904 C903 1.396 . S
C904 C905 1.399 . S
C905 H891 0.929 . S
C905 C904 1.399 . S
C905 C906 1.385 . S
C906 H892 0.931 . S
C906 C905 1.385 . S
C906 C907 1.389 . S
C907 C906 1.389 . S
C907 C908 1.387 . S
C908 H893 0.930 . S
C908 C903 1.390 . S
C908 C907 1.387 . S
H909 C921 0.930 . S
H910 C923 0.930 . S
H911 C924 0.930 . S
H912 C928 0.959 . S
H913 C928 0.959 . S
H914 C928 0.961 . S
H915 C929 0.960 . S
H916 C929 0.961 . S
H917 C929 0.959 . S
H918 C932 0.929 . S
H919 C933 0.931 . S
H920 C935 0.930 . S
C921 H909 0.930 . S
C921 C922 1.399 . S
C921 C926 1.399 . S
C922 C921 1.399 . S
C922 C923 1.376 . S
C923 H910 0.930 . S
C923 C922 1.376 . S
C923 C924 1.388 . S
C924 H911 0.930 . S
C924 C923 1.388 . S
C924 C925 1.390 . S
C925 C924 1.390 . S
C925 C926 1.394 . S
C925 C931 1.465 . S
C926 C921 1.399 . S
C926 C925 1.394 . S
C926 C927 1.516 . S
C927 C926 1.516 . S
C927 C928 1.502 . S
C927 C929 1.561 . S
C927 C930 1.526 . S
C928 H912 0.959 . S
C928 H913 0.959 . S
C928 H914 0.961 . S
C928 C927 1.502 . S
C929 H915 0.960 . S
C929 H916 0.961 . S
C929 H917 0.959 . S
C929 C927 1.561 . S
C930 C927 1.526 . S
C930 C931 1.396 . S
C930 C935 1.390 . S
C931 C925 1.465 . S
C931 C930 1.396 . S
C931 C932 1.399 . S
C932 H918 0.929 . S
C932 C931 1.399 . S
C932 C933 1.385 . S
C933 H919 0.931 . S
C933 C932 1.385 . S
C933 C934 1.389 . S
C934 C933 1.389 . S
C934 C935 1.387 . S
C935 H920 0.930 . S
C935 C930 1.390 . S
C935 C934 1.387 . S
H936 C948 0.930 . S
H937 C950 0.930 . S
H938 C951 0.930 . S
H939 C955 0.959 . S
H940 C955 0.959 . S
H941 C955 0.961 . S
H942 C956 0.960 . S
H943 C956 0.961 . S
H944 C956 0.959 . S
H945 C959 0.929 . S
H946 C960 0.931 . S
H947 C962 0.930 . S
C948 H936 0.930 . S
C948 C949 1.399 . S
C948 C953 1.399 . S
C949 C948 1.399 . S
C949 C950 1.376 . S
C950 H937 0.930 . S
C950 C949 1.376 . S
C950 C951 1.388 . S
C951 H938 0.930 . S
C951 C950 1.388 . S
C951 C952 1.390 . S
C952 C951 1.390 . S
C952 C953 1.394 . S
C952 C958 1.465 . S
C953 C948 1.399 . S
C953 C952 1.394 . S
C953 C954 1.516 . S
C954 C953 1.516 . S
C954 C955 1.502 . S
C954 C956 1.561 . S
C954 C957 1.526 . S
C955 H939 0.959 . S
C955 H940 0.959 . S
C955 H941 0.961 . S
C955 C954 1.502 . S
C956 H942 0.960 . S
C956 H943 0.961 . S
C956 H944 0.959 . S
C956 C954 1.561 . S
C957 C954 1.526 . S
C957 C958 1.396 . S
C957 C962 1.390 . S
C958 C952 1.465 . S
C958 C957 1.396 . S
C958 C959 1.399 . S
C959 H945 0.929 . S
C959 C958 1.399 . S
C959 C960 1.385 . S
C960 H946 0.931 . S
C960 C959 1.385 . S
C960 C961 1.389 . S
C961 C960 1.389 . S
C961 C962 1.387 . S
C962 H947 0.930 . S
C962 C957 1.390 . S
C962 C961 1.387 . S
H963 C975 0.930 . S
H964 C977 0.930 . S
H965 C978 0.930 . S
H966 C982 0.959 . S
H967 C982 0.959 . S
H968 C982 0.961 . S
H969 C983 0.960 . S
H970 C983 0.961 . S
H971 C983 0.959 . S
H972 C986 0.929 . S
H973 C987 0.931 . S
H974 C989 0.930 . S
C975 H963 0.930 . S
C975 C976 1.399 . S
C975 C980 1.399 . S
C976 C975 1.399 . S
C976 C977 1.376 . S
C977 H964 0.930 . S
C977 C976 1.376 . S
C977 C978 1.388 . S
C978 H965 0.930 . S
C978 C977 1.388 . S
C978 C979 1.390 . S
C979 C978 1.390 . S
C979 C980 1.394 . S
C979 C985 1.465 . S
C980 C975 1.399 . S
C980 C979 1.394 . S
C980 C981 1.516 . S
C981 C980 1.516 . S
C981 C982 1.502 . S
C981 C983 1.561 . S
C981 C984 1.526 . S
C982 H966 0.959 . S
C982 H967 0.959 . S
C982 H968 0.961 . S
C982 C981 1.502 . S
C983 H969 0.960 . S
C983 H970 0.961 . S
C983 H971 0.959 . S
C983 C981 1.561 . S
C984 C981 1.526 . S
C984 C985 1.396 . S
C984 C989 1.390 . S
C985 C979 1.465 . S
C985 C984 1.396 . S
C985 C986 1.399 . S
C986 H972 0.929 . S
C986 C985 1.399 . S
C986 C987 1.385 . S
C987 H973 0.931 . S
C987 C986 1.385 . S
C987 C988 1.389 . S
C988 C987 1.389 . S
C988 C989 1.387 . S
C989 H974 0.930 . S
C989 C984 1.390 . S
C989 C988 1.387 . S
C517 C494 1.424 . S
C529 C56 1.370 . S
C544 C74 1.427 . S
C556 C140 1.345 . S
C571 C158 1.439 . S
C583 C224 1.423 . S
C598 C242 1.431 . S
C610 C308 1.403 . S
C625 C392 1.376 . S
C637 C326 1.443 . S
C652 C476 1.427 . S
C664 C410 1.446 . S
C679 C58 1.336 . S
C691 C70 1.277 . S
C706 C142 1.292 1_556 S
C718 C154 1.346 . S
C733 C226 1.260 . S
C745 C238 1.360 1_554 S
C760 C310 1.299 . S
C772 C322 1.311 . S
C787 C406 1.277 . S
C799 C394 1.356 1_556 S
C814 C478 1.260 . S
C826 C490 1.361 1_554 S
C841 C67 1.324 . S
C853 C399 1.396 . S
C868 C151 1.316 . S
C880 C483 1.386 . S
C895 C63 1.465 . S
C907 C235 1.425 . S
C922 C147 1.400 . S
C934 C319 1.342 . S
C949 C403 1.315 . S
C961 C231 1.387 . S
C976 C315 1.460 . S
C988 C487 1.416 . S
