# Generated by pormake.
# Topology yfs, (5)-cn, num edge types: 1
# Building blocks:
#     Node 0, Type 0, BuildingBlock: XOMCOT_clean_sbu_1, # of connection points: 5
#     Node 1, Type 0, BuildingBlock: XOMCOT_clean_sbu_1, # of connection points: 5
#     Node 2, Type 0, BuildingBlock: XOMCOT_clean_sbu_1, # of connection points: 5
#     Node 3, Type 0, BuildingBlock: XOMCOT_clean_sbu_1, # of connection points: 5
#     Node 4, Type 0, BuildingBlock: XOMCOT_clean_sbu_1, # of connection points: 5
#     Node 5, Type 0, BuildingBlock: XOMCOT_clean_sbu_1, # of connection points: 5
#     Node 6, Type 0, BuildingBlock: XOMCOT_clean_sbu_1, # of connection points: 5
#     Node 7, Type 0, BuildingBlock: XOMCOT_clean_sbu_1, # of connection points: 5
#     Node 8, Type 0, BuildingBlock: XOMCOT_clean_sbu_1, # of connection points: 5
#     Node 9, Type 0, BuildingBlock: XOMCOT_clean_sbu_1, # of connection points: 5
#     Node 10, Type 0, BuildingBlock: XOMCOT_clean_sbu_1, # of connection points: 5
#     Node 11, Type 0, BuildingBlock: XOMCOT_clean_sbu_1, # of connection points: 5
#     Node 12, Type 0, BuildingBlock: XOMCOT_clean_sbu_1, # of connection points: 5
#     Node 13, Type 0, BuildingBlock: XOMCOT_clean_sbu_1, # of connection points: 5
#     Node 14, Type 0, BuildingBlock: XOMCOT_clean_sbu_1, # of connection points: 5
#     Node 15, Type 0, BuildingBlock: XOMCOT_clean_sbu_1, # of connection points: 5
#     Node 16, Type 0, BuildingBlock: XOMCOT_clean_sbu_1, # of connection points: 5
#     Node 17, Type 0, BuildingBlock: XOMCOT_clean_sbu_1, # of connection points: 5
#     Node 18, Type 0, BuildingBlock: XOMCOT_clean_sbu_1, # of connection points: 5
#     Node 19, Type 0, BuildingBlock: XOMCOT_clean_sbu_1, # of connection points: 5
#     Node 20, Type 0, BuildingBlock: XOMCOT_clean_sbu_1, # of connection points: 5
#     Node 21, Type 0, BuildingBlock: XOMCOT_clean_sbu_1, # of connection points: 5
#     Node 22, Type 0, BuildingBlock: XOMCOT_clean_sbu_1, # of connection points: 5
#     Node 23, Type 0, BuildingBlock: XOMCOT_clean_sbu_1, # of connection points: 5
#     Node 24, Type 0, BuildingBlock: XOMCOT_clean_sbu_1, # of connection points: 5
#     Node 25, Type 0, BuildingBlock: XOMCOT_clean_sbu_1, # of connection points: 5
#     Node 26, Type 0, BuildingBlock: XOMCOT_clean_sbu_1, # of connection points: 5
#     Node 27, Type 0, BuildingBlock: XOMCOT_clean_sbu_1, # of connection points: 5
#     Node 28, Type 0, BuildingBlock: XOMCOT_clean_sbu_1, # of connection points: 5
#     Node 29, Type 0, BuildingBlock: XOMCOT_clean_sbu_1, # of connection points: 5
#     Node 30, Type 0, BuildingBlock: XOMCOT_clean_sbu_1, # of connection points: 5
#     Node 31, Type 0, BuildingBlock: XOMCOT_clean_sbu_1, # of connection points: 5
#     Edge 32, Type (0, 0), BuildingBlock: CIFDUS_clean_linker_0, # of connection points: 2
#     Edge 33, Type (0, 0), BuildingBlock: CIFDUS_clean_linker_0, # of connection points: 2
#     Edge 34, Type (0, 0), BuildingBlock: CIFDUS_clean_linker_0, # of connection points: 2
#     Edge 35, Type (0, 0), BuildingBlock: CIFDUS_clean_linker_0, # of connection points: 2
#     Edge 36, Type (0, 0), BuildingBlock: CIFDUS_clean_linker_0, # of connection points: 2
#     Edge 37, Type (0, 0), BuildingBlock: CIFDUS_clean_linker_0, # of connection points: 2
#     Edge 38, Type (0, 0), BuildingBlock: CIFDUS_clean_linker_0, # of connection points: 2
#     Edge 39, Type (0, 0), BuildingBlock: CIFDUS_clean_linker_0, # of connection points: 2
#     Edge 40, Type (0, 0), BuildingBlock: CIFDUS_clean_linker_0, # of connection points: 2
#     Edge 41, Type (0, 0), BuildingBlock: CIFDUS_clean_linker_0, # of connection points: 2
#     Edge 42, Type (0, 0), BuildingBlock: CIFDUS_clean_linker_0, # of connection points: 2
#     Edge 43, Type (0, 0), BuildingBlock: CIFDUS_clean_linker_0, # of connection points: 2
#     Edge 44, Type (0, 0), BuildingBlock: CIFDUS_clean_linker_0, # of connection points: 2
#     Edge 45, Type (0, 0), BuildingBlock: CIFDUS_clean_linker_0, # of connection points: 2
#     Edge 46, Type (0, 0), BuildingBlock: CIFDUS_clean_linker_0, # of connection points: 2
#     Edge 47, Type (0, 0), BuildingBlock: CIFDUS_clean_linker_0, # of connection points: 2
#     Edge 48, Type (0, 0), BuildingBlock: CIFDUS_clean_linker_0, # of connection points: 2
#     Edge 49, Type (0, 0), BuildingBlock: CIFDUS_clean_linker_0, # of connection points: 2
#     Edge 50, Type (0, 0), BuildingBlock: CIFDUS_clean_linker_0, # of connection points: 2
#     Edge 51, Type (0, 0), BuildingBlock: CIFDUS_clean_linker_0, # of connection points: 2
#     Edge 52, Type (0, 0), BuildingBlock: CIFDUS_clean_linker_0, # of connection points: 2
#     Edge 53, Type (0, 0), BuildingBlock: CIFDUS_clean_linker_0, # of connection points: 2
#     Edge 54, Type (0, 0), BuildingBlock: CIFDUS_clean_linker_0, # of connection points: 2
#     Edge 55, Type (0, 0), BuildingBlock: CIFDUS_clean_linker_0, # of connection points: 2
#     Edge 56, Type (0, 0), BuildingBlock: CIFDUS_clean_linker_0, # of connection points: 2
#     Edge 57, Type (0, 0), BuildingBlock: CIFDUS_clean_linker_0, # of connection points: 2
#     Edge 58, Type (0, 0), BuildingBlock: CIFDUS_clean_linker_0, # of connection points: 2
#     Edge 59, Type (0, 0), BuildingBlock: CIFDUS_clean_linker_0, # of connection points: 2
#     Edge 60, Type (0, 0), BuildingBlock: CIFDUS_clean_linker_0, # of connection points: 2
#     Edge 61, Type (0, 0), BuildingBlock: CIFDUS_clean_linker_0, # of connection points: 2
#     Edge 62, Type (0, 0), BuildingBlock: CIFDUS_clean_linker_0, # of connection points: 2
#     Edge 63, Type (0, 0), BuildingBlock: CIFDUS_clean_linker_0, # of connection points: 2
#     Edge 64, Type (0, 0), BuildingBlock: CIFDUS_clean_linker_0, # of connection points: 2
#     Edge 65, Type (0, 0), BuildingBlock: CIFDUS_clean_linker_0, # of connection points: 2
#     Edge 66, Type (0, 0), BuildingBlock: CIFDUS_clean_linker_0, # of connection points: 2
#     Edge 67, Type (0, 0), BuildingBlock: CIFDUS_clean_linker_0, # of connection points: 2
#     Edge 68, Type (0, 0), BuildingBlock: CIFDUS_clean_linker_0, # of connection points: 2
#     Edge 69, Type (0, 0), BuildingBlock: CIFDUS_clean_linker_0, # of connection points: 2
#     Edge 70, Type (0, 0), BuildingBlock: CIFDUS_clean_linker_0, # of connection points: 2
#     Edge 71, Type (0, 0), BuildingBlock: CIFDUS_clean_linker_0, # of connection points: 2
#     Edge 72, Type (0, 0), BuildingBlock: CIFDUS_clean_linker_0, # of connection points: 2
#     Edge 73, Type (0, 0), BuildingBlock: CIFDUS_clean_linker_0, # of connection points: 2
#     Edge 74, Type (0, 0), BuildingBlock: CIFDUS_clean_linker_0, # of connection points: 2
#     Edge 75, Type (0, 0), BuildingBlock: CIFDUS_clean_linker_0, # of connection points: 2
#     Edge 76, Type (0, 0), BuildingBlock: CIFDUS_clean_linker_0, # of connection points: 2
#     Edge 77, Type (0, 0), BuildingBlock: CIFDUS_clean_linker_0, # of connection points: 2
#     Edge 78, Type (0, 0), BuildingBlock: CIFDUS_clean_linker_0, # of connection points: 2
#     Edge 79, Type (0, 0), BuildingBlock: CIFDUS_clean_linker_0, # of connection points: 2
#     Edge 80, Type (0, 0), BuildingBlock: CIFDUS_clean_linker_0, # of connection points: 2
#     Edge 81, Type (0, 0), BuildingBlock: CIFDUS_clean_linker_0, # of connection points: 2
#     Edge 82, Type (0, 0), BuildingBlock: CIFDUS_clean_linker_0, # of connection points: 2
#     Edge 83, Type (0, 0), BuildingBlock: CIFDUS_clean_linker_0, # of connection points: 2
#     Edge 84, Type (0, 0), BuildingBlock: CIFDUS_clean_linker_0, # of connection points: 2
#     Edge 85, Type (0, 0), BuildingBlock: CIFDUS_clean_linker_0, # of connection points: 2
#     Edge 86, Type (0, 0), BuildingBlock: CIFDUS_clean_linker_0, # of connection points: 2
#     Edge 87, Type (0, 0), BuildingBlock: CIFDUS_clean_linker_0, # of connection points: 2
#     Edge 88, Type (0, 0), BuildingBlock: CIFDUS_clean_linker_0, # of connection points: 2
#     Edge 89, Type (0, 0), BuildingBlock: CIFDUS_clean_linker_0, # of connection points: 2
#     Edge 90, Type (0, 0), BuildingBlock: CIFDUS_clean_linker_0, # of connection points: 2
#     Edge 91, Type (0, 0), BuildingBlock: CIFDUS_clean_linker_0, # of connection points: 2
#     Edge 92, Type (0, 0), BuildingBlock: CIFDUS_clean_linker_0, # of connection points: 2
#     Edge 93, Type (0, 0), BuildingBlock: CIFDUS_clean_linker_0, # of connection points: 2
#     Edge 94, Type (0, 0), BuildingBlock: CIFDUS_clean_linker_0, # of connection points: 2
#     Edge 95, Type (0, 0), BuildingBlock: CIFDUS_clean_linker_0, # of connection points: 2
#     Edge 96, Type (0, 0), BuildingBlock: CIFDUS_clean_linker_0, # of connection points: 2
#     Edge 97, Type (0, 0), BuildingBlock: CIFDUS_clean_linker_0, # of connection points: 2
#     Edge 98, Type (0, 0), BuildingBlock: CIFDUS_clean_linker_0, # of connection points: 2
#     Edge 99, Type (0, 0), BuildingBlock: CIFDUS_clean_linker_0, # of connection points: 2
#     Edge 100, Type (0, 0), BuildingBlock: CIFDUS_clean_linker_0, # of connection points: 2
#     Edge 101, Type (0, 0), BuildingBlock: CIFDUS_clean_linker_0, # of connection points: 2
#     Edge 102, Type (0, 0), BuildingBlock: CIFDUS_clean_linker_0, # of connection points: 2
#     Edge 103, Type (0, 0), BuildingBlock: CIFDUS_clean_linker_0, # of connection points: 2
#     Edge 104, Type (0, 0), BuildingBlock: CIFDUS_clean_linker_0, # of connection points: 2
#     Edge 105, Type (0, 0), BuildingBlock: CIFDUS_clean_linker_0, # of connection points: 2
#     Edge 106, Type (0, 0), BuildingBlock: CIFDUS_clean_linker_0, # of connection points: 2
#     Edge 107, Type (0, 0), BuildingBlock: CIFDUS_clean_linker_0, # of connection points: 2
#     Edge 108, Type (0, 0), BuildingBlock: CIFDUS_clean_linker_0, # of connection points: 2
#     Edge 109, Type (0, 0), BuildingBlock: CIFDUS_clean_linker_0, # of connection points: 2
#     Edge 110, Type (0, 0), BuildingBlock: CIFDUS_clean_linker_0, # of connection points: 2
#     Edge 111, Type (0, 0), BuildingBlock: CIFDUS_clean_linker_0, # of connection points: 2
# Relax obj value: 0.545
# Max RMSD: 0.264
# Mean RMSD: 0.264
data_MOF--net-yfs--node1-XOMCOT_clean_sbu_1--edge1-CIFDUS_clean_linker_0
_symmetry_space_group_name_H-M    P1
_symmetry_Int_Tables_number       1
_symmetry_cell_setting            triclinic
loop_
_symmetry_equiv_pos_as_xyz
'x, y, z'
_cell_length_a     38.116173
_cell_length_b     74.171982
_cell_length_c     1.3294186
_cell_angle_alpha  89.938311
_cell_angle_beta   90.141773
_cell_angle_gamma 38.009297
loop_
_atom_site_label
_atom_site_type_symbol
_atom_site_fract_x
_atom_site_fract_y
_atom_site_fract_z
_atom_type_partial_charge
C0 C 0.33605 0.06695 11.98652 0.0
C1 C 0.36851 0.06137 11.23246 0.0
N2 N 0.33371 0.07983 10.46231 0.0
N3 N 0.28074 0.08899 11.69938 0.0
C4 C 0.28094 0.09635 10.76653 0.0
H5 H 0.35205 0.05557 12.69977 0.0
Co6 Co 0.21752 0.10595 12.45244 0.0
C7 C 0.15503 0.12177 10.46956 0.0
O8 O 0.17028 0.0987 10.34911 0.0
N9 N 0.15444 0.12285 13.17987 0.0
C10 C 0.07205 0.14292 13.52991 0.0
C11 C 0.11653 0.12573 12.86355 0.0
C12 C 0.13324 0.13747 14.06175 0.0
N13 N 0.08234 0.15056 14.27749 0.0
O14 O 0.24553 0.07033 12.37343 0.0
H15 H 0.12007 0.1166 12.17795 0.0
H16 H 0.15307 0.13998 14.50435 0.0
O17 O 0.17266 0.12347 11.22978 0.0
C18 C 0.27015 0.05964 13.23639 0.0
O19 O 0.2716 0.07369 13.79277 0.0
N20 N 0.19334 0.13908 12.6784 0.0
C21 C 0.15059 0.18353 13.9168 0.0
C22 C 0.11552 0.18909 13.19643 0.0
C23 C 0.13797 0.16672 12.57161 0.0
C24 C 0.22928 0.13367 13.29671 0.0
C25 C 0.20925 0.15559 13.90155 0.0
H26 H 0.10893 0.17076 12.10873 0.0
H27 H 0.27272 0.11157 13.39493 0.0
H28 H 0.24305 0.11376 10.31569 0.0
H29 H 0.41431 0.04454 11.23975 0.0
H30 H 0.03477 0.14951 13.46429 0.0
H31 H 0.07043 0.20984 13.13426 0.0
H32 H 0.24035 0.14966 14.37034 0.0
C33 C 0.03638 0.10311 26.69315 0.0
C34 C 0.02253 0.12036 25.91946 0.0
N35 N -0.00328 0.1214 25.17527 0.0
N36 N 0.01899 0.09342 26.44811 0.0
C37 C -0.00112 0.10321 25.49554 0.0
H38 H 0.04867 0.10218 27.445 0.0
Co39 Co -0.01235 0.08987 27.38574 0.0
C40 C -0.06377 0.08118 26.14686 0.0
O41 O -0.10508 0.09716 26.80852 0.0
N42 N -0.04457 0.08647 28.31834 0.0
C43 C -0.09624 0.09326 29.47405 0.0
C44 C -0.08833 0.10607 28.96271 0.0
C45 C -0.02624 0.06195 28.4632 0.0
N46 N -0.0572 0.06539 29.15526 0.0
O47 O 0.06377 0.0512 27.78977 0.0
H48 H -0.11312 0.12826 29.05588 0.0
H49 H 0.00851 0.0422 28.03889 0.0
O50 O -0.02239 0.07556 26.28805 0.0
C51 C 0.06975 0.05607 28.66283 0.0
O52 O 0.02664 0.08254 29.0337 0.0
N53 N -0.08261 0.12933 27.13689 0.0
C54 C -0.14932 0.18642 26.6702 0.0
C55 C -0.15323 0.17205 26.09648 0.0
C56 C -0.1186 0.14326 26.32738 0.0
C57 C -0.08133 0.1437 27.73691 0.0
C58 C -0.11228 0.17158 27.49637 0.0
H59 H -0.11814 0.13203 25.80481 0.0
H60 H -0.05157 0.13235 28.35511 0.0
H61 H -0.02213 0.10078 25.11118 0.0
H62 H 0.02417 0.13423 25.97344 0.0
H63 H -0.12808 0.10378 30.04386 0.0
H64 H -0.18255 0.18279 25.46834 0.0
H65 H -0.10799 0.18166 27.96847 0.0
C66 C -1.07737 0.76904 40.18644 0.0
C67 C -1.10743 0.77163 39.46724 0.0
N68 N -1.07007 0.74954 38.80545 0.0
N69 N -1.02118 0.7454 39.98103 0.0
C70 C -1.01868 0.73462 39.12545 0.0
H71 H -1.0954 0.7823 40.85376 0.0
Co72 Co -0.95708 0.72407 40.81505 0.0
C73 C -0.88857 0.7137 38.9793 0.0
O74 O -0.89077 0.73219 39.08054 0.0
N75 N -0.89386 0.70299 41.61617 0.0
C76 C -0.81992 0.68702 42.30965 0.0
C77 C -0.86535 0.70721 41.66294 0.0
C78 C -0.86519 0.68018 42.23911 0.0
N79 N -0.81983 0.66998 42.66455 0.0
O80 O -0.98563 0.75945 41.14985 0.0
H81 H -0.8763 0.72361 41.23889 0.0
H82 H -0.87682 0.67097 42.36972 0.0
O83 O -0.91304 0.71358 39.62912 0.0
C84 C -1.01292 0.76793 41.97194 0.0
O85 O -1.01877 0.75361 42.28948 0.0
N86 N -0.93275 0.69073 40.61374 0.0
C87 C -0.92803 0.65423 39.87435 0.0
C88 C -0.88348 0.64825 39.67701 0.0
C89 C -0.88609 0.66666 40.07837 0.0
C90 C -0.97079 0.69376 40.95075 0.0
C91 C -0.96956 0.67583 40.58102 0.0
H92 H -0.85291 0.66278 39.90164 0.0
H93 H -1.00562 0.71206 41.42587 0.0
H94 H -0.97914 0.71408 38.81326 0.0
H95 H -1.15288 0.78762 39.4682 0.0
H96 H -0.78819 0.68434 42.47748 0.0
H97 H -0.8489 0.63069 39.17928 0.0
H98 H -1.00244 0.67978 40.81086 0.0
C99 C -0.76821 0.69646 53.96929 0.0
C100 C -0.73775 0.67408 53.28465 0.0
N101 N -0.70712 0.67304 52.71625 0.0
N102 N -0.75541 0.709 53.87009 0.0
C103 C -0.71983 0.6948 53.06472 0.0
H104 H -0.79942 0.70358 54.47565 0.0
Co105 Co -0.78577 0.74196 54.57819 0.0
C106 C -0.71255 0.74024 53.56733 0.0
O107 O -0.68461 0.73319 54.39088 0.0
N108 N -0.81919 0.77569 55.20021 0.0
C109 C 0.39341 -0.01387 55.83639 0.0
C110 C -0.8759 0.79976 55.34114 0.0
C111 C -0.79841 0.7828 55.59838 0.0
N112 N -0.83966 0.80988 56.00103 0.0
O113 O -0.82395 0.7419 55.56784 0.0
H114 H -0.90612 0.80178 55.1089 0.0
H115 H -0.75376 0.76796 55.65284 0.0
O116 O -0.75141 0.74393 53.5856 0.0
C117 C -0.80496 0.72254 56.19571 0.0
O118 O -0.75152 0.69564 56.16055 0.0
N119 N -0.72072 0.71684 55.46073 0.0
C120 C -0.63087 0.67566 56.81159 0.0
C121 C -0.62276 0.67006 55.77922 0.0
C122 C -0.66784 0.69094 55.11889 0.0
C123 C -0.72809 0.72321 56.46873 0.0
C124 C -0.68353 0.70293 57.15683 0.0
H125 H -0.65932 0.6861 54.33221 0.0
H126 H -0.76963 0.74325 56.76409 0.0
H127 H -0.7021 0.69977 52.74463 0.0
H128 H -0.73977 0.66042 53.18719 0.0
H129 H 0.3514 0.0076 56.05809 0.0
H130 H -0.58141 0.64972 55.48064 0.0
H131 H -0.71861 0.72191 2.15714 0.0
C132 C -0.84513 0.794 20.09198 0.0
C133 C -0.82851 0.80019 20.77663 0.0
N134 N -0.77821 0.77482 21.17716 0.0
N135 N -0.80418 0.76467 20.0109 0.0
C136 C -0.76599 0.75394 20.73645 0.0
H137 H -0.88506 0.8101 19.68312 0.0
Co138 Co -0.80724 0.74443 19.20841 0.0
C139 C -0.70651 0.68543 20.26134 0.0
O140 O -0.6722 0.67357 19.49435 0.0
N141 N -0.81382 0.72522 18.50665 0.0
C142 C -0.85113 0.71607 17.76851 0.0
C143 C -0.86302 0.73665 18.27866 0.0
C144 C -0.77282 0.69762 18.14701 0.0
N145 N -0.79418 0.69164 17.67956 0.0
O146 O -0.85841 0.77703 18.18501 0.0
H147 H -0.9049 0.75868 18.4614 0.0
H148 H -0.72795 0.68237 18.19029 0.0
O149 O -0.75791 0.71209 20.2133 0.0
C150 C -0.84949 0.78868 17.75354 0.0
O151 O -0.80922 0.783 18.10499 0.0
N152 N -0.74414 0.72624 18.36187 0.0
C153 C -0.66429 0.70767 17.00715 0.0
C154 C -0.65895 0.70868 18.04052 0.0
C155 C -0.69891 0.71785 18.70065 0.0
C156 C -0.74927 0.72517 17.34469 0.0
C157 C -0.70976 0.71576 16.65981 0.0
H158 H -0.69112 0.71678 19.48249 0.0
H159 H -0.78554 0.73271 17.03986 0.0
H160 H -0.72955 0.73109 20.94522 0.0
H161 H -0.85223 0.82177 20.97755 0.0
H162 H -0.88191 0.71915 17.4601 0.0
H163 H -0.62257 0.70113 18.34601 0.0
H164 H -0.71477 0.71483 15.86628 0.0
C165 C 0.12923 0.11442 33.86135 0.0
C166 C 0.09216 0.13817 34.50707 0.0
N167 N 0.11697 0.14352 34.82176 0.0
N168 N 0.17737 0.10474 33.7725 0.0
C169 C 0.16795 0.12323 34.35453 0.0
H170 H 0.12158 0.10479 33.48833 0.0
Co171 Co 0.24384 0.07397 32.99361 0.0
C172 C 0.29224 0.06044 35.11945 0.0
O173 O 0.24854 0.07139 35.60439 0.0
N174 N 0.31103 0.04366 32.2405 0.0
C175 C 0.40205 0.00128 31.91478 0.0
C176 C 0.35752 0.0157 32.55243 0.0
C177 C 0.32795 0.04547 31.39713 0.0
N178 N 0.38357 0.02019 31.19391 0.0
O179 O 0.24079 0.04933 33.21415 0.0
H180 H 0.35993 0.00692 33.23924 0.0
H181 H 0.30081 0.06539 30.9681 0.0
O182 O 0.29309 0.05984 34.15808 0.0
C183 C 0.2224 0.05197 32.34006 0.0
O184 O 0.20901 0.07005 31.68919 0.0
N185 N 0.24176 0.09837 32.61018 0.0
C186 C 0.23879 0.13056 31.45433 0.0
C187 C 0.27706 0.11348 32.27403 0.0
C188 C 0.27878 0.09691 32.83297 0.0
C189 C 0.2024 0.11596 31.86224 0.0
C190 C 0.20127 0.13154 31.25538 0.0
H191 H 0.31071 0.08239 33.41436 0.0
H192 H 0.17394 0.11643 31.69612 0.0
H193 H 0.19862 0.12158 34.44393 0.0
H194 H 0.05102 0.14992 34.74941 0.0
H195 H -0.8364 0.81372 32.01994 0.0
H196 H 0.30551 0.11278 32.48842 0.0
H197 H 0.17163 0.14382 30.62977 0.0
C198 C 0.08797 0.02711 48.24123 0.0
C199 C 0.06296 0.02411 48.8244 0.0
N200 N 0.00606 0.04882 48.75136 0.0
N201 N 0.04756 0.0537 47.78692 0.0
C202 C -0.00214 0.06635 48.12033 0.0
H203 H 0.13336 0.01055 48.16007 0.0
Co204 Co 0.06172 0.06902 46.95075 0.0
C205 C 0.00318 0.12305 48.03665 0.0
O206 O -0.00807 0.1355 47.17517 0.0
N207 N 0.07571 0.08458 46.14682 0.0
C208 C 0.10775 0.0992 45.78026 0.0
C209 C 0.11421 0.08186 46.39379 0.0
C210 C 0.04648 0.10392 45.36165 0.0
N211 N 0.06432 0.11365 45.14012 0.0
O212 O 0.13749 0.04034 47.49153 0.0
H213 H 0.14283 0.0698 47.03158 0.0
H214 H 0.00931 0.11292 45.01928 0.0
O215 O 0.0301 0.09708 48.05249 0.0
C216 C 0.18348 0.01827 47.00742 0.0
O217 O 0.23251 0.00231 47.43464 0.0
N218 N -0.00828 0.09422 46.32555 0.0
C219 C -0.10167 0.12362 45.14725 0.0
C220 C -0.10853 0.13616 46.03826 0.0
C221 C -0.06117 0.12086 46.62888 0.0
C222 C -0.00125 0.08204 45.45142 0.0
C223 C -0.04762 0.09632 44.84971 0.0
H224 H -0.06815 0.12976 47.35104 0.0
H225 H 0.04076 0.06107 45.21877 0.0
H226 H -0.04389 0.0883 47.93001 0.0
H227 H 0.08519 0.00494 49.25963 0.0
H228 H 0.13175 0.10189 45.83874 0.0
H229 H -0.15058 0.15675 46.30656 0.0
H230 H -0.04158 0.08588 44.17692 0.0
C231 C -0.87728 0.66804 5.79851 0.0
C232 C -0.83597 0.64516 6.44916 0.0
N233 N -0.86164 0.64934 7.28141 0.0
N234 N -0.92927 0.68671 6.20873 0.0
C235 C -0.91823 0.67466 7.11821 0.0
H236 H -0.86963 0.67077 5.06647 0.0
Co237 Co -0.99753 0.72085 5.53381 0.0
C238 C -1.0493 0.74525 7.67228 0.0
O239 O -1.01146 0.73959 8.16481 0.0
N240 N -1.06483 0.75483 4.86542 0.0
C241 C -1.15058 0.80093 4.55859 0.0
C242 C -1.10442 0.78255 5.19873 0.0
C243 C -1.08681 0.75698 4.0056 0.0
N244 N -1.13972 0.78472 3.81341 0.0
O245 O -0.97747 0.73761 5.64889 0.0
H246 H -1.10106 0.78882 5.88938 0.0
H247 H -1.06521 0.73823 3.55524 0.0
O248 O -1.04101 0.7377 6.75744 0.0
C249 C -0.95967 0.73318 4.75418 0.0
O250 O -0.9589 0.71935 4.11488 0.0
N251 N -1.01432 0.70359 5.29127 0.0
C252 C -1.04503 0.68572 4.18221 0.0
C253 C -1.08294 0.70853 4.88255 0.0
C254 C -1.06633 0.71687 5.44437 0.0
C255 C -0.97601 0.6804 4.66101 0.0
C256 C -0.98985 0.67065 4.12255 0.0
H257 H -1.09744 0.73594 5.91372 0.0
H258 H -0.93589 0.67069 4.51185 0.0
H259 H -0.95079 0.68402 7.64959 0.0
H260 H -0.79038 0.6273 6.33286 0.0
H261 H -1.19029 0.82412 4.66987 0.0
H262 H -0.12861 0.72073 4.96414 0.0
H263 H -0.95755 0.65185 3.64074 0.0
C264 C -0.58844 0.7571 47.41748 0.0
C265 C -0.62099 0.76119 48.1141 0.0
N266 N -0.58684 0.7425 48.88613 0.0
N267 N -0.53422 0.73602 47.75368 0.0
C268 C -0.53453 0.7273 48.6404 0.0
H269 H -0.6036 0.7691 46.72103 0.0
Co270 Co -0.47261 0.72254 47.1616 0.0
C271 C -0.38369 0.68964 48.80754 0.0
O272 O -0.34377 0.67464 48.12323 0.0
N273 N -0.41067 0.70934 46.56244 0.0
C274 C -0.3455 0.70353 46.16067 0.0
C275 C -0.39315 0.71937 46.72963 0.0
C276 C -0.37419 0.68817 45.87206 0.0
N277 N -0.33358 0.68372 45.63181 0.0
O278 O -0.51381 0.7619 47.18412 0.0
H279 H -0.41273 0.7365 47.25523 0.0
H280 H -0.37692 0.67606 45.54293 0.0
O281 O -0.43632 0.7106 48.52847 0.0
C282 C -0.52897 0.76895 46.25449 0.0
O283 O -0.51379 0.74976 45.64701 0.0
N284 N -0.43889 0.68638 46.95743 0.0
C285 C -0.39366 0.63685 46.11972 0.0
C286 C -0.37843 0.63601 47.10083 0.0
C287 C -0.40193 0.66119 47.51165 0.0
C288 C -0.45792 0.68809 46.04799 0.0
C289 C -0.43438 0.66351 45.59884 0.0
H290 H -0.39084 0.66015 48.27184 0.0
H291 H -0.48946 0.70844 45.63609 0.0
H292 H -0.49695 0.70999 49.09915 0.0
H293 H -0.66646 0.77729 48.07007 0.0
H294 H -0.32073 0.7058 46.16028 0.0
H295 H -0.34963 0.61634 47.55665 0.0
H296 H -0.44792 0.66555 44.84362 0.0
C297 C -0.27204 0.69743 34.23352 0.0
C298 C -0.24708 0.67398 34.81308 0.0
N299 N -0.19764 0.6603 35.19344 0.0
N300 N -0.23781 0.69821 34.20334 0.0
C301 C -0.19469 0.67626 34.84327 0.0
H302 H -0.31307 0.71309 33.86366 0.0
Co303 Co -0.25415 0.72791 33.59077 0.0
C304 C -0.16289 0.70835 34.96388 0.0
O305 O -0.12017 0.688 34.35736 0.0
N306 N -0.27213 0.75879 33.07844 0.0
C307 C -0.25407 0.78008 32.67383 0.0
C308 C -0.23462 0.7574 33.16918 0.0
C309 C -0.315 0.78328 32.50631 0.0
N310 N -0.30413 0.79625 32.2442 0.0
O311 O -0.29833 0.73403 32.4757 0.0
H312 H -0.19263 0.73958 33.48762 0.0
H313 H -0.35091 0.79011 32.2281 0.0
O314 O -0.21314 0.72338 34.72366 0.0
C315 C -0.28079 0.7134 31.95974 0.0
O316 O -0.23371 0.68602 32.2307 0.0
N317 N -0.1887 0.70057 32.68274 0.0
C318 C -0.10058 0.6679 31.28428 0.0
C319 C -0.09292 0.65491 32.17246 0.0
C320 C -0.13776 0.67143 32.85047 0.0
C321 C -0.19804 0.71174 31.74475 0.0
C322 C -0.15459 0.69618 31.05044 0.0
H323 H -0.12908 0.66062 33.52545 0.0
H324 H -0.23952 0.73316 31.51226 0.0
H325 H -0.1615 0.67207 35.05492 0.0
H326 H -0.26489 0.66799 34.95265 0.0
H327 H -0.23115 0.78335 32.57503 0.0
H328 H -0.05157 0.63276 32.37751 0.0
H329 H -0.16272 0.7066 30.35245 0.0
C330 C 0.81568 0.06959 19.64252 0.0
C331 C 0.84741 0.06485 20.39189 0.0
N332 N 0.81463 0.07986 21.21613 0.0
N333 N 0.7629 0.08742 19.98549 0.0
C334 C 0.7635 0.09347 20.94318 0.0
H335 H 0.83051 0.06042 18.89525 0.0
Co336 Co 0.70334 0.1003 19.25241 0.0
C337 C 0.60576 0.13791 20.68997 0.0
O338 O 0.57083 0.1531 19.91735 0.0
N339 N 0.6436 0.11285 18.50733 0.0
C340 C 0.58136 0.11691 18.02482 0.0
C341 C 0.62566 0.10303 18.67034 0.0
C342 C 0.60949 0.13252 17.74648 0.0
N343 N 0.57106 0.13565 17.44877 0.0
O344 O 0.74244 0.06147 19.33853 0.0
H345 H 0.64269 0.08726 19.24359 0.0
H346 H 0.61177 0.14468 17.40508 0.0
O347 O 0.65966 0.11485 20.53302 0.0
C348 C 0.76751 0.05088 18.48315 0.0
O349 O 0.76225 0.06695 17.88182 0.0
N350 N 0.67147 0.13573 19.01558 0.0
C351 C 0.61956 0.18678 18.16382 0.0
C352 C 0.61252 0.18565 19.19273 0.0
C353 C 0.63958 0.15964 19.60999 0.0
C354 C 0.68545 0.1353 18.06862 0.0
C355 C 0.65769 0.16083 17.60931 0.0
H356 H 0.63494 0.15892 20.40261 0.0
H357 H 0.71379 0.11566 17.62513 0.0
H358 H 0.72679 0.10795 21.42892 0.0
H359 H 0.89162 0.05093 20.33415 0.0
H360 H 0.55754 0.11407 18.00397 0.0
H361 H 0.58731 0.2044 19.67743 0.0
H362 H 0.66546 0.16004 16.81905 0.0
C363 C 0.51841 0.11856 5.29235 0.0
C364 C 0.50357 0.13493 6.11325 0.0
N365 N 0.46478 0.1415 6.65832 0.0
N366 N 0.48889 0.11493 5.31693 0.0
C367 C 0.45747 0.12871 6.16718 0.0
H368 H 0.54542 0.11183 4.67937 0.0
Co369 Co 0.47602 0.10342 4.27665 0.0
C370 C 0.4522 0.07806 5.45341 0.0
O371 O 0.43024 0.07854 4.67464 0.0
N372 N 0.4621 0.09232 3.22254 0.0
C373 C 0.45292 0.0812 57.6369 0.0
C374 C 0.42406 0.11004 2.46605 0.0
C375 C 0.48772 0.06602 3.00878 0.0
N376 N 0.4649 0.06734 2.18602 0.0
O377 O 0.55709 0.06824 4.02578 0.0
H378 H 0.39653 0.13275 2.37623 0.0
H379 H 0.52038 0.0467 3.47601 0.0
O380 O 0.47273 0.08569 5.34705 0.0
C381 C 0.5605 0.07666 3.22786 0.0
O382 O 0.51487 0.10401 2.9343 0.0
N383 N 0.39864 0.1397 4.35984 0.0
C384 C 0.29243 0.19139 3.60934 0.0
C385 C 0.30052 0.17209 4.15462 0.0
C386 C 0.35439 0.14616 4.53172 0.0
C387 C 0.38937 0.16009 3.94969 0.0
C388 C 0.33622 0.1863 3.56893 0.0
H389 H 0.36055 0.13077 4.87785 0.0
H390 H 0.42483 0.15469 3.81828 0.0
H391 H 0.42543 0.13183 6.36787 0.0
H392 H 0.51797 0.14269 6.26667 0.0
H393 H 0.42498 0.09004 57.00115 0.0
H394 H 0.26653 0.17605 4.22536 0.0
H395 H 0.33104 0.20098 3.16451 0.0
C396 C 0.55687 0.02942 39.30805 0.0
C397 C 0.53338 0.0251 38.75079 0.0
N398 N 0.48162 0.0513 38.42878 0.0
N399 N 0.51977 0.05836 39.36752 0.0
C400 C 0.47524 0.07087 38.78198 0.0
H401 H 0.59931 0.01219 39.62671 0.0
Co402 Co 0.53676 0.0748 39.93236 0.0
C403 C 0.43216 0.13553 38.99791 0.0
O404 O 0.40174 0.1472 39.82188 0.0
N405 N 0.55659 0.08997 40.39439 0.0
C406 C 0.60696 0.09187 41.07284 0.0
C407 C 0.60977 0.07415 40.60852 0.0
C408 C 0.52249 0.11746 40.69292 0.0
N409 N 0.55174 0.1191 41.14152 0.0
O410 O 0.59363 0.04124 40.87631 0.0
H411 H 0.64794 0.05082 40.49204 0.0
H412 H 0.47669 0.13541 40.65818 0.0
O413 O 0.48233 0.10835 38.98155 0.0
C414 C 0.58732 0.03144 41.54263 0.0
O415 O 0.54082 0.04039 41.54349 0.0
N416 N 0.48177 0.09462 41.00902 0.0
C417 C 0.40417 0.12541 42.58449 0.0
C418 C 0.3935 0.12008 41.70091 0.0
C419 C 0.43247 0.10491 40.92115 0.0
C420 C 0.4955 0.09637 41.93255 0.0
C421 C 0.45641 0.11267 42.71554 0.0
H422 H 0.4199 0.10378 40.23274 0.0
H423 H 0.5366 0.08577 42.07119 0.0
H424 H 0.43883 0.09396 38.59922 0.0
H425 H 0.5527 0.00431 38.60098 0.0
H426 H 0.64263 0.08466 41.3967 0.0
H427 H 0.35263 0.13017 41.574 0.0
H428 H 0.46595 0.11633 43.39428 0.0
C429 C -0.40727 0.70936 24.98196 0.0
C430 C -0.36777 0.68492 24.37474 0.0
N431 N -0.38698 0.67602 24.16749 0.0
N432 N -0.45015 0.71517 25.2013 0.0
C433 C -0.43814 0.69578 24.62208 0.0
H434 H -0.40399 0.72171 25.2561 0.0
Co435 Co -0.51665 0.74522 26.0283 0.0
C436 C -0.56784 0.72978 25.35263 0.0
O437 O -0.55087 0.71408 26.15554 0.0
N438 N -0.58445 0.77623 26.75029 0.0
C439 C -0.65661 0.81744 27.59942 0.0
C440 C -0.60932 0.80196 27.0176 0.0
C441 C -0.6181 0.77699 27.1526 0.0
N442 N -0.66151 0.80139 27.69096 0.0
O443 O -0.48012 0.75033 26.79943 0.0
H444 H -0.59305 0.80859 26.83059 0.0
H445 H -0.60929 0.75925 27.09624 0.0
O446 O -0.55628 0.74192 25.25396 0.0
C447 C -0.43097 0.73058 27.22663 0.0
O448 O -0.39562 0.70278 27.08432 0.0
N449 N -0.48816 0.7176 27.08055 0.0
C450 C -0.45235 0.68115 28.67479 0.0
C451 C -0.43386 0.6704 27.6943 0.0
C452 C -0.45246 0.68889 26.91227 0.0
C453 C -0.50053 0.72704 28.06203 0.0
C454 C -0.48481 0.70957 28.86367 0.0
H455 H -0.44074 0.67999 26.17615 0.0
H456 H -0.52389 0.74859 28.24201 0.0
H457 H -0.46555 0.69528 24.56019 0.0
H458 H -0.32745 0.67414 24.13297 0.0
H459 H 0.59839 0.0037 27.96122 0.0
H460 H -0.40982 0.64861 27.51513 0.0
H461 H -0.50008 0.71864 29.61407 0.0
C462 C -0.3267 0.78579 11.95379 0.0
C463 C -0.31682 0.79651 11.3393 0.0
N464 N -0.26758 0.77383 10.85376 0.0
N465 N -0.28172 0.75617 11.91364 0.0
C466 C -0.24945 0.75023 11.16887 0.0
H467 H -0.36295 0.79889 12.44366 0.0
Co468 Co -0.26294 0.72756 12.70601 0.0
C469 C -0.15816 0.67645 11.36796 0.0
O470 O -0.12038 0.66914 11.94567 0.0
N471 N -0.24496 0.69878 13.40689 0.0
C472 C -0.1914 0.65438 13.96197 0.0
C473 C -0.19126 0.6705 13.4785 0.0
C474 C -0.27728 0.69928 13.87808 0.0
N475 N -0.24523 0.6723 14.2105 0.0
O476 O -0.31744 0.75697 13.80711 0.0
H477 H -0.15337 0.662 13.23868 0.0
H478 H -0.32292 0.71881 13.97336 0.0
O479 O -0.21114 0.6981 11.60758 0.0
C480 C -0.31967 0.77314 14.26456 0.0
O481 O -0.28851 0.77402 13.93761 0.0
N482 N -0.20383 0.71626 13.46228 0.0
C483 C -0.12801 0.7043 14.72134 0.0
C484 C -0.13217 0.71007 13.69657 0.0
C485 C -0.1699 0.71588 13.08647 0.0
C486 C -0.20131 0.71169 14.47796 0.0
C487 C -0.16449 0.70606 15.11647 0.0
H488 H -0.16799 0.71807 12.3056 0.0
H489 H -0.229 0.71304 14.81904 0.0
H490 H -0.20994 0.72849 10.90996 0.0
H491 H -0.34161 0.81885 11.30974 0.0
H492 H -0.15441 0.63135 14.15445 0.0
H493 H -0.10329 0.70784 13.34468 0.0
H494 H -0.16264 0.70169 15.90577 0.0
C495 C 0.6449 0.1171 53.96883 0.0
C496 C 0.60171 0.13987 53.32281 0.0
N497 N 0.62349 0.14279 52.65439 0.0
N498 N 0.6938 0.10559 53.70512 0.0
C499 C 0.67897 0.12209 52.91268 0.0
H500 H 0.64102 0.10914 54.58053 0.0
Co501 Co 0.76602 0.0739 54.31845 0.0
C502 C 0.80882 0.06142 52.08313 0.0
O503 O 0.77005 0.06832 51.56375 0.0
N504 N 0.83865 0.04222 54.89384 0.0
C505 C 0.92906 -0.00253 55.07349 0.0
C506 C 0.88051 0.01499 54.50733 0.0
C507 C 0.86252 0.04075 55.69903 0.0
N508 N 0.91776 0.01372 55.82142 0.0
O509 O 0.76174 0.0495 54.1843 0.0
H510 H 0.87628 0.00849 53.83906 0.0
H511 H 0.84001 0.05918 56.17994 0.0
O512 O 0.80538 0.0635 53.04267 0.0
C513 C 0.75138 0.04954 55.1088 0.0
O514 O 0.74821 0.06393 55.77016 0.0
N515 N 0.76469 0.09838 54.64778 0.0
C516 C 0.75764 0.13381 55.65597 0.0
C517 C 0.79378 0.11727 54.81799 0.0
C518 C 0.79726 0.09923 54.32607 0.0
C519 C 0.7291 0.11453 55.44506 0.0
C520 C 0.72552 0.132 55.96852 0.0
H521 H 0.82672 0.08563 53.71171 0.0
H522 H 0.70452 0.11305 55.69789 0.0
H523 H 0.70829 0.11902 52.52451 0.0
H524 H 0.5584 0.15239 53.31579 0.0
H525 H -0.31196 0.8093 54.92295 0.0
H526 H 0.8188 0.11834 54.54191 0.0
H527 H 0.69807 0.14375 56.61949 0.0
C528 C 0.16112 0.47862 40.58344 0.0
C529 C 0.1917 0.47839 40.01128 0.0
N530 N 0.16315 0.49279 39.14253 0.0
N531 N 0.11358 0.49306 40.07616 0.0
C532 C 0.11706 0.50063 39.19699 0.0
H533 H 0.17039 0.47111 41.35313 0.0
Co534 Co 0.04734 0.50903 40.58397 0.0
C535 C 0.01133 0.51038 38.33324 0.0
O536 O 0.03044 0.48702 38.0166 0.0
N537 N -0.01733 0.52457 41.07603 0.0
C538 C -0.08827 0.5346 41.41968 0.0
C539 C -0.04076 0.51802 40.83481 0.0
C540 C -0.05032 0.54469 41.80485 0.0
N541 N -0.09408 0.55141 42.02248 0.0
O542 O 0.08982 0.47039 40.91034 0.0
H543 H -0.02422 0.50217 40.27493 0.0
H544 H -0.04185 0.55396 42.17712 0.0
O545 O 0.02539 0.50995 39.21928 0.0
C546 C 0.09902 0.46798 41.85993 0.0
O547 O 0.07944 0.49021 42.32777 0.0
N548 N 0.00834 0.5462 40.40952 0.0
C549 C -0.01572 0.5909 39.90167 0.0
C550 C -0.04896 0.59044 39.49789 0.0
C551 C -0.03667 0.56772 39.78464 0.0
C552 C 0.03169 0.55025 40.96416 0.0
C553 C 0.02043 0.57255 40.71789 0.0
H554 H -0.06026 0.56623 39.45892 0.0
H555 H 0.06366 0.53427 41.52812 0.0
H556 H 0.08421 0.51348 38.6375 0.0
H557 H 0.22926 0.47047 40.25441 0.0
H558 H -0.11673 0.53465 41.39305 0.0
H559 H -0.08036 0.60578 38.91746 0.0
H560 H 0.04403 0.57361 41.09443 0.0
C561 C -0.24698 0.57441 55.15775 0.0
C562 C -0.27075 0.59661 54.52044 0.0
N563 N -0.24678 0.58518 53.60943 0.0
N564 N -0.2086 0.54873 54.65536 0.0
C565 C -0.2079 0.55602 53.72208 0.0
H566 H -0.25814 0.57743 55.93794 0.0
Co567 Co -0.16695 0.51105 55.12299 0.0
C568 C -0.21498 0.51753 53.18399 0.0
O569 O -0.26284 0.54505 53.41934 0.0
N570 N -0.12575 0.47385 55.56413 0.0
C571 C -0.08035 0.42915 55.51042 0.0
C572 C -0.09074 0.4493 55.00784 0.0
C573 C -0.13396 0.46756 56.41738 0.0
N574 N -0.10816 0.44087 56.39365 0.0
O575 O -0.09695 0.49535 54.86697 0.0
H576 H -0.07681 0.44691 54.25497 0.0
H577 H -0.16226 0.48315 57.01197 0.0
O578 O -0.17155 0.50168 53.76503 0.0
C579 C -0.08337 0.49458 55.76482 0.0
O580 O -0.11624 0.50279 56.50904 0.0
N581 N -0.23337 0.52659 55.55998 0.0
C582 C -0.31951 0.54559 56.69434 0.0
C583 C -0.30211 0.53088 55.77697 0.0
C584 C -0.25714 0.52038 55.24406 0.0
C585 C -0.24695 0.53884 56.47959 0.0
C586 C -0.28892 0.548 57.06393 0.0
H587 H -0.24059 0.50649 54.60624 0.0
H588 H -0.22238 0.53983 56.7937 0.0
H589 H -0.18137 0.54037 53.11841 0.0
H590 H -0.30341 0.6195 54.71582 0.0
H591 H -0.05649 0.4081 55.22656 0.0
H592 H -0.32297 0.52761 55.46198 0.0
H593 H -0.32521 0.5708 2.00465 0.0
C594 C 0.0636 0.34687 11.40163 0.0
C595 C 0.0322 0.34877 10.76455 0.0
N596 N 0.06637 0.32193 10.39929 0.0
N597 N 0.11744 0.31875 11.48283 0.0
C598 C 0.11798 0.30453 10.82152 0.0
H599 H 0.04789 0.36535 11.75315 0.0
Co600 Co 0.18095 0.30384 12.19234 0.0
C601 C 0.27098 0.2412 11.42634 0.0
O602 O 0.27889 0.23041 12.30744 0.0
N603 N 0.24351 0.29004 12.80187 0.0
C604 C 0.29975 0.28938 13.33914 0.0
C605 C 0.25096 0.30501 12.80691 0.0
C606 C 0.28909 0.26505 13.31361 0.0
N607 N 0.32361 0.26423 13.66928 0.0
O608 O 0.12859 0.33951 13.05584 0.0
H609 H 0.22203 0.32626 12.46004 0.0
H610 H 0.29478 0.24866 13.47978 0.0
O611 O 0.23464 0.26869 11.31951 0.0
C612 C 0.08777 0.35089 13.62904 0.0
O613 O 0.07027 0.34114 13.60124 0.0
N614 N 0.18066 0.2857 13.22999 0.0
C615 C 0.16033 0.26959 14.78834 0.0
C616 C 0.15746 0.26528 13.78109 0.0
C617 C 0.16767 0.27345 13.01794 0.0
C618 C 0.18685 0.28837 14.22023 0.0
C619 C 0.1771 0.28032 15.01071 0.0
H620 H 0.16584 0.26934 12.2605 0.0
H621 H 0.19579 0.2986 14.41447 0.0
H622 H 0.15616 0.28172 10.63733 0.0
H623 H -0.01229 0.36869 10.57927 0.0
H624 H 0.3156 0.29642 13.4803 0.0
H625 H 0.14722 0.25562 13.58284 0.0
H626 H 0.18075 0.28337 15.78271 0.0
C627 C 0.44331 0.25726 27.00865 0.0
C628 C 0.46102 0.23679 26.35326 0.0
N629 N 0.45546 0.2453 25.4065 0.0
N630 N 0.42676 0.27862 26.48086 0.0
C631 C 0.43409 0.2708 25.5052 0.0
H632 H 0.44674 0.2554 27.81971 0.0
Co633 Co 0.42 0.30479 27.02285 0.0
C634 C 0.38614 0.34189 25.25031 0.0
O635 O 0.34418 0.36643 25.74684 0.0
N636 N 0.41666 0.33038 27.5523 0.0
C637 C 0.44632 0.34683 27.7083 0.0
C638 C 0.44472 0.33275 27.10058 0.0
C639 C 0.40207 0.34334 28.45985 0.0
N640 N 0.41969 0.35359 28.57141 0.0
O641 O 0.33878 0.33425 27.23291 0.0
H642 H 0.4676 0.32258 26.40174 0.0
H643 H 0.3818 0.34384 29.04715 0.0
O644 O 0.4128 0.31784 25.64977 0.0
C645 C 0.33609 0.33019 28.15486 0.0
O646 O 0.38411 0.30909 28.65919 0.0
N647 N 0.49762 0.27553 26.97294 0.0
C648 C 0.58989 0.26037 27.21653 0.0
C649 C 0.57698 0.25829 26.25975 0.0
C650 C 0.52937 0.26657 26.14992 0.0
C651 C 0.51862 0.2696 27.9143 0.0
C652 C 0.56363 0.26314 28.05915 0.0
H653 H 0.51474 0.26892 25.40503 0.0
H654 H 0.49382 0.27547 28.55706 0.0
H655 H 0.42881 0.28206 24.87681 0.0
H656 H 0.47888 0.21661 26.5592 0.0
H657 H -0.52762 0.34966 27.5476 0.0
H658 H 0.59994 0.25271 25.58873 0.0
H659 H 0.57264 0.26345 28.82311 0.0
C660 C 0.41927 0.32468 46.82928 0.0
C661 C 0.43879 0.32917 47.52251 0.0
N662 N 0.45533 0.31362 48.36099 0.0
N663 N 0.42308 0.30642 47.2226 0.0
C664 C 0.4451 0.30013 48.15784 0.0
H665 H 0.4043 0.33373 46.07715 0.0
Co666 Co 0.4072 0.29115 46.5301 0.0
C667 C 0.43407 0.25128 47.99503 0.0
O668 O 0.45148 0.23461 47.22717 0.0
N669 N 0.39024 0.27603 45.8311 0.0
C670 C 0.3485 0.26662 45.48657 0.0
C671 C 0.34744 0.28211 46.08928 0.0
C672 C 0.4153 0.25749 45.0426 0.0
N673 N 0.39166 0.25088 44.82925 0.0
O674 O 0.3261 0.3288 46.58559 0.0
H675 H 0.31859 0.29606 46.70804 0.0
H676 H 0.45039 0.24871 44.62697 0.0
O677 O 0.41098 0.27611 47.83512 0.0
C678 C 0.3182 0.3377 45.68266 0.0
O679 O 0.36295 0.32167 45.10688 0.0
N680 N 0.48489 0.25694 46.3158 0.0
C681 C 0.59567 0.20973 45.62154 0.0
C682 C 0.5837 0.21145 46.64025 0.0
C683 C 0.52781 0.23579 46.97963 0.0
C684 C 0.49721 0.25677 45.35374 0.0
C685 C 0.55165 0.23289 44.97786 0.0
H686 H 0.51986 0.23789 47.77353 0.0
H687 H 0.46385 0.27481 44.85415 0.0
H688 H 0.45544 0.28508 48.66951 0.0
H689 H 0.44061 0.34288 47.41299 0.0
H690 H 0.32083 0.26624 45.5584 0.0
H691 H 0.61741 0.19488 47.1758 0.0
H692 H 0.55929 0.23283 44.19286 0.0
C693 C 0.02101 0.52591 6.07311 0.0
C694 C -0.01609 0.54813 6.76631 0.0
N695 N 0.00585 0.55486 7.10477 0.0
N696 N 0.0657 0.51907 5.93719 0.0
C697 C 0.05558 0.53665 6.60535 0.0
H698 H 0.01666 0.51452 5.73421 0.0
Co699 Co 0.13373 0.48686 5.18022 0.0
C700 C 0.2067 0.46784 6.75526 0.0
O701 O 0.2139 0.44743 6.85017 0.0
N702 N 0.20106 0.45447 4.49855 0.0
C703 C 0.27192 0.41029 3.81437 0.0
C704 C 0.22274 0.42904 4.37138 0.0
C705 C 0.23816 0.45056 4.03037 0.0
N706 N 0.28125 0.424 3.59271 0.0
O707 O 0.09289 0.48591 4.30622 0.0
H708 H 0.20333 0.42467 4.65103 0.0
H709 H 0.23322 0.46706 3.9994 0.0
O710 O 0.17511 0.48649 6.04589 0.0
C711 C 0.04662 0.50591 3.79305 0.0
O712 O 0.01488 0.53331 3.86287 0.0
N713 N 0.11766 0.51229 4.24001 0.0
C714 C 0.06787 0.55695 2.93188 0.0
C715 C 0.07933 0.55709 3.93094 0.0
C716 C 0.10485 0.53437 4.57091 0.0
C717 C 0.11662 0.50926 3.22411 0.0
C718 C 0.08997 0.53197 2.55529 0.0
H719 H 0.11203 0.53537 5.33746 0.0
H720 H 0.13188 0.49037 2.9345 0.0
H721 H 0.08524 0.53536 6.76352 0.0
H722 H -0.05452 0.55735 7.04137 0.0
H723 H 0.29767 0.38866 3.56203 0.0
H724 H 0.06539 0.57559 4.23001 0.0
H725 H 0.11179 0.51698 57.5682 0.0
C726 C -0.23679 0.49836 18.81189 0.0
C727 C -0.24669 0.48936 19.52958 0.0
N728 N -0.2204 0.4836 20.38978 0.0
N729 N -0.2051 0.49897 19.2119 0.0
C730 C -0.19334 0.48826 20.15857 0.0
H731 H -0.25352 0.50475 18.05626 0.0
Co732 Co -0.18551 0.51408 18.64808 0.0
C733 C -0.23115 0.54261 20.65335 0.0
O734 O -0.27169 0.54703 20.51644 0.0
N735 N -0.16564 0.52875 18.11911 0.0
C736 C -0.14474 0.54952 18.09417 0.0
C737 C -0.13847 0.53109 18.61842 0.0
C738 C -0.18549 0.54471 17.26992 0.0
N739 N -0.17472 0.55818 17.25171 0.0
O740 O -0.10602 0.47576 18.77506 0.0
H741 H -0.11849 0.52154 19.34872 0.0
H742 H -0.21129 0.54836 16.7116 0.0
O743 O -0.1917 0.52817 19.99357 0.0
C744 C -0.09593 0.46729 17.85885 0.0
O745 O -0.13784 0.48503 17.20213 0.0
N746 N -0.26127 0.55001 18.33 0.0
C747 C -0.3579 0.59979 17.2461 0.0
C748 C -0.34263 0.60226 18.15046 0.0
C749 C -0.29289 0.57711 18.6563 0.0
C750 C -0.27481 0.54729 17.4454 0.0
C751 C -0.32194 0.57164 16.88574 0.0
H752 H -0.27847 0.57976 19.26234 0.0
H753 H -0.24568 0.52596 17.11654 0.0
H754 H -0.16881 0.4861 20.69497 0.0
H755 H -0.27271 0.48799 19.42723 0.0
H756 H -0.13024 0.55685 18.33005 0.0
H757 H -0.36806 0.62328 18.46635 0.0
H758 H -0.32881 0.56807 16.16367 0.0
C759 C 0.26097 0.28819 33.82686 0.0
C760 C 0.2955 0.26806 34.60245 0.0
N761 N 0.27083 0.2634 35.01159 0.0
N762 N 0.2149 0.29602 33.7454 0.0
C763 C 0.22242 0.2805 34.48039 0.0
H764 H 0.27056 0.29536 33.32525 0.0
Co765 Co 0.15911 0.31672 32.71352 0.0
C766 C 0.09021 0.34196 34.62635 0.0
O767 O 0.11364 0.34718 34.9912 0.0
N768 N 0.10333 0.33663 31.69521 0.0
C769 C 0.06336 0.34723 30.20797 0.0
C770 C 0.11375 0.33022 30.70683 0.0
C771 C 0.04625 0.35761 31.77809 0.0
N772 N 0.02066 0.36442 30.88327 0.0
O773 O 0.14339 0.34877 32.75118 0.0
H774 H 0.15563 0.31356 30.37229 0.0
H775 H 0.02416 0.36693 32.48842 0.0
O776 O 0.10283 0.33182 33.73504 0.0
C777 C 0.17509 0.34038 32.00074 0.0
O778 O 0.20786 0.31472 31.60211 0.0
N779 N 0.1811 0.28463 32.50452 0.0
C780 C 0.22032 0.23759 31.61962 0.0
C781 C 0.16753 0.25917 32.12089 0.0
C782 C 0.14811 0.28297 32.54986 0.0
C783 C 0.23341 0.26323 32.06621 0.0
C784 C 0.25388 0.2395 31.61534 0.0
H785 H 0.10591 0.30058 32.86751 0.0
H786 H 0.2584 0.2653 32.02176 0.0
H787 H 0.19463 0.28026 34.58385 0.0
H788 H 0.33607 0.25726 34.83289 0.0
H789 H 0.05901 0.34665 29.40861 0.0
H790 H 0.14098 0.258 32.16371 0.0
H791 H 0.29461 0.22342 31.23696 0.0
C792 C -0.41405 0.35452 20.7765 0.0
C793 C -0.45748 0.36687 21.40513 0.0
N794 N -0.44358 0.34529 21.82237 0.0
N795 N -0.37328 0.32514 20.74838 0.0
C796 C -0.39143 0.32032 21.44829 0.0
H797 H -0.41237 0.36647 20.37072 0.0
Co798 Co -0.30183 0.29832 20.03556 0.0
C799 C -0.23963 0.2428 21.09158 0.0
O800 O -0.23354 0.23177 20.23563 0.0
N801 N -0.22834 0.27219 19.41956 0.0
C802 C -0.1335 0.23469 19.28051 0.0
C803 C -0.17813 0.24874 19.89372 0.0
C804 C -0.21171 0.2729 18.53035 0.0
N805 N -0.15436 0.24973 18.41451 0.0
O806 O -0.3384 0.32834 18.94697 0.0
H807 H -0.17276 0.24215 20.65496 0.0
H808 H -0.24085 0.29019 17.97647 0.0
O809 O -0.26517 0.26846 21.11074 0.0
C810 C -0.38478 0.34339 18.46934 0.0
O811 O -0.41673 0.34295 18.78615 0.0
N812 N -0.31798 0.284 19.1926 0.0
C813 C -0.36403 0.27703 17.86879 0.0
C814 C -0.36974 0.27746 18.91235 0.0
C815 C -0.34612 0.28065 19.55466 0.0
C816 C -0.30841 0.28117 18.1757 0.0
C817 C -0.33132 0.27799 17.50534 0.0
H818 H -0.3493 0.27937 20.34135 0.0
H819 H -0.28787 0.28416 17.84326 0.0
H820 H -0.36588 0.29892 21.72814 0.0
H821 H -0.49635 0.39004 21.54095 0.0
H822 H -0.08896 0.21445 19.45651 0.0
H823 H -0.39078 0.27439 19.23978 0.0
H824 H -0.32459 0.27706 16.70591 0.0
C825 C -0.05438 0.25412 4.47713 0.0
C826 C -0.027 0.23002 5.03181 0.0
N827 N -0.03967 0.23765 6.00433 0.0
N828 N -0.08482 0.27732 5.0911 0.0
C829 C -0.07526 0.26642 6.02257 0.0
H830 H -0.05244 0.25424 3.6709 0.0
Co831 Co -0.13083 0.31629 4.7313 0.0
C832 C -0.05481 0.29984 6.388 0.0
O833 O -0.01153 0.27334 6.01454 0.0
N834 N -0.17626 0.35473 4.38726 0.0
C835 C -0.21824 0.39841 4.56242 0.0
C836 C -0.20414 0.37677 5.03712 0.0
C837 C -0.17642 0.36415 3.51218 0.0
N838 N -0.19964 0.39013 3.60532 0.0
O839 O -0.19321 0.33167 5.46359 0.0
H840 H -0.20954 0.37606 5.82853 0.0
H841 H -0.15449 0.35084 2.84544 0.0
O842 O -0.10383 0.31856 5.95686 0.0
C843 C -0.23363 0.33893 5.06127 0.0
O844 O -0.2782 0.35282 5.60663 0.0
N845 N -0.07296 0.30244 3.93089 0.0
C846 C 0.00046 0.28765 2.516 0.0
C847 C -0.00888 0.29992 3.44663 0.0
C848 C -0.04672 0.30784 4.128 0.0
C849 C -0.06887 0.2933 2.99679 0.0
C850 C -0.03183 0.2854 2.28085 0.0
H851 H -0.05636 0.31947 4.79046 0.0
H852 H -0.09623 0.29323 2.79264 0.0
H853 H -0.0932 0.27919 6.70487 0.0
H854 H 0.00145 0.20825 4.74468 0.0
H855 H -0.23735 0.41777 4.91668 0.0
H856 H 0.01399 0.30266 3.67387 0.0
H857 H -4e-05 0.2635 57.35168 0.0
C858 C -0.28619 0.44454 48.34778 0.0
C859 C -0.25714 0.44221 49.08841 0.0
N860 N -0.29493 0.46773 49.5861 0.0
N861 N -0.34176 0.47197 48.33741 0.0
C862 C -0.34553 0.48461 49.14478 0.0
H863 H -0.26739 0.42702 47.85613 0.0
Co864 Co -0.40514 0.49005 47.50367 0.0
C865 C -0.49488 0.55005 48.51712 0.0
O866 O -0.50009 0.56257 47.72439 0.0
N867 N -0.46767 0.50675 46.77424 0.0
C868 C -0.53293 0.51409 46.18252 0.0
C869 C -0.48023 0.49425 46.6412 0.0
C870 C -0.5132 0.53403 46.39585 0.0
N871 N -0.55361 0.53921 46.03854 0.0
O872 O -0.35363 0.45795 46.4758 0.0
H873 H -0.45343 0.47238 46.88935 0.0
H874 H -0.51635 0.54975 46.35225 0.0
O875 O -0.45969 0.52251 48.50797 0.0
C876 C -0.31254 0.44853 45.98334 0.0
O877 O -0.29245 0.45609 46.27701 0.0
N878 N -0.4027 0.51098 46.71314 0.0
C879 C -0.38169 0.53265 45.51195 0.0
C880 C -0.37721 0.53183 46.55835 0.0
C881 C -0.38816 0.5212 47.14001 0.0
C882 C -0.40917 0.51268 45.68486 0.0
C883 C -0.39926 0.52364 45.0715 0.0
H884 H -0.38712 0.52263 47.93538 0.0
H885 H -0.41966 0.50433 45.32129 0.0
H886 H -0.38466 0.50667 49.38385 0.0
H887 H -0.21199 0.42315 49.25201 0.0
H888 H -0.55486 0.51056 45.9971 0.0
H889 H -0.36714 0.54034 46.93296 0.0
H890 H -0.40461 0.52472 44.26401 0.0
C891 C -0.62275 0.53665 34.41332 0.0
C892 C -0.64737 0.56018 34.9794 0.0
N893 N -0.696 0.57357 35.38552 0.0
N894 N -0.65622 0.53537 34.42277 0.0
C895 C -0.69882 0.55741 35.05973 0.0
H896 H -0.58209 0.52108 34.03842 0.0
Co897 Co -0.64094 0.50533 33.8867 0.0
C898 C -0.73632 0.5287 35.25349 0.0
O899 O -0.77899 0.54913 34.63822 0.0
N900 N -0.62504 0.47458 33.44858 0.0
C901 C -0.64394 0.45319 33.16618 0.0
C902 C -0.66184 0.47577 33.62138 0.0
C903 C -0.58467 0.4505 32.8548 0.0
N904 N -0.59583 0.43731 32.66704 0.0
O905 O -0.59193 0.49566 32.79335 0.0
H906 H -0.70296 0.49347 33.9607 0.0
H907 H -0.55059 0.4442 32.50358 0.0
O908 O -0.68563 0.51277 35.00609 0.0
C909 C -0.60464 0.51377 32.19214 0.0
O910 O -0.65206 0.54204 32.3279 0.0
N911 N -0.70411 0.53185 32.92941 0.0
C912 C -0.78973 0.56403 31.46358 0.0
C913 C -0.79828 0.57753 32.342 0.0
C914 C -0.75461 0.56121 33.05435 0.0
C915 C -0.69385 0.51983 32.01094 0.0
C916 C -0.73591 0.53525 31.28022 0.0
H917 H -0.76372 0.5724 33.71982 0.0
H918 H -0.65256 0.49797 31.81688 0.0
H919 H -0.73144 0.56145 35.29297 0.0
H920 H -0.62982 0.56639 35.0921 0.0
H921 H -0.66836 0.45072 33.11222 0.0
H922 H -0.83948 0.60001 32.51135 0.0
H923 H -0.7269 0.52435 30.59213 0.0
C924 C -0.61828 0.45318 13.0274 0.0
C925 C -0.62775 0.44336 12.35116 0.0
N926 N -0.64893 0.45908 11.49375 0.0
N927 N -0.63311 0.47502 12.60647 0.0
C928 C -0.65214 0.47834 11.67235 0.0
H929 H -0.60259 0.44522 13.78788 0.0
Co930 Co -0.62954 0.49561 13.29083 0.0
C931 C -0.6561 0.53541 11.75029 0.0
O932 O -0.6601 0.5493 12.45422 0.0
N933 N -0.62571 0.51633 14.0117 0.0
C934 C -0.59421 0.52974 14.61977 0.0
C935 C -0.58077 0.50953 14.04636 0.0
C936 C -0.66566 0.54074 14.5847 0.0
N937 N -0.64799 0.54962 14.95266 0.0
O938 O -0.54696 0.4614 13.23375 0.0
H939 H -0.54103 0.49154 13.65385 0.0
H940 H -0.70796 0.55265 14.69878 0.0
O941 O -0.6403 0.51291 11.97829 0.0
C942 C -0.53529 0.45105 14.12576 0.0
O943 O -0.5774 0.46531 14.7521 0.0
N944 N -0.70709 0.52564 13.50142 0.0
C945 C -0.81267 0.56868 14.41108 0.0
C946 C -0.80528 0.57366 13.46142 0.0
C947 C -0.75184 0.55156 13.00901 0.0
C948 C -0.71522 0.5196 14.37176 0.0
C949 C -0.76755 0.54091 14.84726 0.0
H950 H -0.74684 0.55583 12.28841 0.0
H951 H -0.67979 0.4986 14.73453 0.0
H952 H -0.6682 0.49459 11.13527 0.0
H953 H -0.62091 0.42639 12.495 0.0
H954 H -0.56638 0.52981 14.765 0.0
H955 H -0.84022 0.59453 13.07919 0.0
H956 H -0.77183 0.53603 15.56974 0.0
C957 C -0.21966 0.28038 53.1992 0.0
C958 C -0.17786 0.25793 52.54444 0.0
N959 N -0.1981 0.25206 52.02037 0.0
N960 N -0.26537 0.28778 53.13482 0.0
C961 C -0.25156 0.27109 52.35904 0.0
H962 H -0.2168 0.29109 53.66455 0.0
Co963 Co -0.33566 0.31709 53.88164 0.0
C964 C -0.39794 0.31094 52.87882 0.0
O965 O -0.40406 0.30472 53.73105 0.0
N966 N -0.40577 0.34746 54.55138 0.0
C967 C -0.4822 0.39279 55.12029 0.0
C968 C -0.43322 0.37451 54.565 0.0
C969 C -0.43951 0.34996 55.09617 0.0
N970 N -0.48612 0.3773 55.45992 0.0
O971 O -0.30248 0.32074 54.89217 0.0
H972 H -0.41774 0.38038 54.20745 0.0
H973 H -0.4296 0.332 55.24727 0.0
O974 O -0.37192 0.31563 52.86749 0.0
C975 C -0.25769 0.30216 55.45202 0.0
O976 O -0.22035 0.27401 55.33101 0.0
N977 N -0.31225 0.28787 54.7219 0.0
C978 C -0.26031 0.24134 55.96209 0.0
C979 C -0.25773 0.23873 54.91688 0.0
C980 C -0.28483 0.26232 54.31374 0.0
C981 C -0.31757 0.29113 55.74891 0.0
C982 C -0.29219 0.26814 56.38361 0.0
H983 H -0.28428 0.25987 53.51877 0.0
H984 H -0.33971 0.31127 56.09118 0.0
H985 H -0.27978 0.27243 52.04573 0.0
H986 H -0.13673 0.24755 52.43283 0.0
H987 H -0.51159 0.41551 55.28599 0.0
H988 H -0.23667 0.21883 54.56644 0.0
H989 H -0.29718 0.2712 57.191 0.0
C990 C -0.09394 0.34889 40.44922 0.0
C991 C -0.08028 0.35823 39.88295 0.0
N992 N -0.05402 0.34215 39.037 0.0
N993 N -0.07693 0.32694 39.97174 0.0
C994 C -0.05337 0.32359 39.10065 0.0
H995 H -0.11214 0.35654 41.19335 0.0
Co996 Co -0.07761 0.30421 40.61095 0.0
C997 C -0.02862 0.25917 39.16022 0.0
O998 O 0.00235 0.24109 39.92529 0.0
N999 N -0.07926 0.28141 41.24944 0.0
C1000 C -0.10774 0.26458 41.50785 0.0
C1001 C -0.11802 0.28443 40.98832 0.0
C1002 C -0.04577 0.25929 41.93944 0.0
N1003 N -0.06196 0.24854 42.10473 0.0
O1004 O -0.16072 0.3376 40.55021 0.0
H1005 H -0.15113 0.2997 40.42936 0.0
H1006 H -0.00836 0.25001 42.27984 0.0
O1007 O -0.06515 0.28671 39.28729 0.0
C1008 C -0.17159 0.34657 41.46326 0.0
O1009 O -0.12882 0.33178 42.08371 0.0
N1010 N -0.00015 0.27569 40.86282 0.0
C1011 C 0.10166 0.24859 41.56887 0.0
C1012 C 0.09506 0.24721 40.54434 0.0
C1013 C 0.04314 0.26125 40.20063 0.0
C1014 C 0.00605 0.27761 41.85186 0.0
C1015 C 0.05674 0.2638 42.22443 0.0
H1016 H 0.03732 0.26145 39.4045 0.0
H1017 H -0.02897 0.29036 42.3638 0.0
H1018 H -0.03263 0.30661 38.55692 0.0
H1019 H -0.08691 0.37481 40.10156 0.0
H1020 H -0.13212 0.26212 41.44325 0.0
H1021 H 0.12941 0.23561 40.01852 0.0
H1022 H 0.0604 0.26552 43.01756 0.0
C1023 C -0.53291 0.54681 26.03873 0.0
C1024 C -0.56741 0.56468 25.22219 0.0
N1025 N -0.54134 0.56676 24.66015 0.0
N1026 N -0.48529 0.53771 25.99406 0.0
C1027 C -0.49171 0.5501 25.14049 0.0
H1028 H -0.54374 0.54228 26.65137 0.0
Co1029 Co -0.42913 0.51929 26.9884 0.0
C1030 C -0.32383 0.48523 25.65014 0.0
O1031 O -0.29146 0.47886 26.36408 0.0
N1032 N -0.37375 0.50151 28.00065 0.0
C1033 C -0.33415 0.49793 29.35456 0.0
C1034 C -0.38313 0.51615 28.7967 0.0
C1035 C -0.31944 0.47375 28.13326 0.0
N1036 N -0.29339 0.47116 28.93207 0.0
O1037 O -0.41705 0.48889 27.18136 0.0
H1038 H -0.42274 0.53903 28.95002 0.0
H1039 H -0.29888 0.45604 27.62962 0.0
O1040 O -0.3734 0.49908 25.86352 0.0
C1041 C -0.44996 0.4996 27.9358 0.0
O1042 O -0.48037 0.5255 28.26848 0.0
N1043 N -0.44752 0.55103 26.94758 0.0
C1044 C -0.47532 0.59552 27.74477 0.0
C1045 C -0.42543 0.57318 27.17735 0.0
C1046 C -0.41204 0.55089 26.78495 0.0
C1047 C -0.49923 0.5744 27.38987 0.0
C1048 C -0.51402 0.59693 27.79832 0.0
H1049 H -0.37141 0.53271 26.43412 0.0
H1050 H -0.52666 0.57406 27.52356 0.0
H1051 H -0.46245 0.54877 24.91596 0.0
H1052 H -0.60914 0.57595 25.07101 0.0
H1053 H -0.32865 0.50456 29.9928 0.0
H1054 H -0.39544 0.57202 27.08743 0.0
H1055 H -0.55314 0.61388 28.22206 0.0
H1056 H -0.0325 0.19681 14.25518 0.0
H1057 H 0.11339 0.14831 16.14878 0.0
H1058 H 0.05082 0.17847 17.5879 0.0
H1059 H -0.04406 0.21509 18.33544 0.0
H1060 H -0.1898 0.26172 16.46966 0.0
H1061 H -0.12893 0.23667 14.98302 0.0
C1062 C -0.01448 0.19285 14.98367 0.0
C1063 C 0.0451 0.16995 15.10127 0.0
C1064 C -0.05073 0.2101 15.80885 0.0
C1065 C 0.06778 0.16569 16.04086 0.0
C1066 C 0.03201 0.18288 16.86353 0.0
C1067 C -0.06268 0.21988 17.60411 0.0
C1068 C -0.12134 0.2398 17.52072 0.0
C1069 C -0.02713 0.20462 16.76087 0.0
C1070 C -0.14491 0.24649 16.55956 0.0
C1071 C -0.10995 0.2319 15.70987 0.0
H1072 H -0.25625 0.78926 30.58376 0.0
H1073 H 0.87245 0.01917 32.3291 0.0
H1074 H 0.84312 0.05858 31.42863 0.0
H1075 H 0.86948 0.0736 30.33487 0.0
H1076 H 0.03267 0.00691 28.74547 0.0
H1077 H -1.23131 0.80427 29.39187 0.0
C1078 C -0.29705 0.81204 30.7389 0.0
C1079 C -0.33093 0.81869 31.51398 0.0
C1080 C 0.97052 -0.00037 30.26537 0.0
C1081 C 0.89865 0.01362 31.72343 0.0
C1082 C 0.8826 0.03603 31.22147 0.0
C1083 C 0.90839 0.05103 30.12527 0.0
C1084 C -0.04885 0.04354 29.49405 0.0
C1085 C 0.9196 0.02919 30.52394 0.0
C1086 C 0.00067 0.01394 29.22308 0.0
C1087 C 1.00852 -0.00763 29.59592 0.0
H1088 H -0.61678 0.54642 44.67697 0.0
H1089 H -0.61225 0.59349 46.43433 0.0
H1090 H -0.69631 0.63867 45.56089 0.0
H1091 H -0.76759 0.66436 44.22393 0.0
H1092 H -0.77554 0.61859 42.49495 0.0
H1093 H -0.69467 0.57352 43.44624 0.0
C1094 C -0.63474 0.56663 44.87943 0.0
C1095 C -0.60725 0.56632 45.60149 0.0
C1096 C -0.68374 0.59279 44.37963 0.0
C1097 C -0.63128 0.59281 45.85776 0.0
C1098 C -0.67969 0.61878 45.36429 0.0
C1099 C -0.75167 0.6445 44.06305 0.0
C1100 C -0.77677 0.64454 43.29031 0.0
C1101 C -0.70546 0.61888 44.60961 0.0
C1102 C -0.75678 0.61896 43.09316 0.0
C1103 C -0.71043 0.59321 43.63148 0.0
H1104 H -0.76036 0.80358 55.678 0.0
H1105 H 0.37852 0.01312 57.54684 0.0
H1106 H 0.35767 0.05296 2.61234 0.0
H1107 H 0.40009 0.06608 2.74954 0.0
H1108 H 0.56878 0.00993 56.6561 0.0
H1109 H -0.71382 0.81446 55.89404 0.0
C1110 C -0.78947 0.81861 56.28131 0.0
C1111 C 0.44911 -0.0106 56.53878 0.0
C1112 C 0.49663 -0.00075 56.76839 0.0
C1113 C 0.41148 0.00911 57.319 0.0
C1114 C 0.38777 0.03766 2.02203 0.0
C1115 C 0.43123 0.04974 2.18686 0.0
C1116 C 0.49891 0.03281 57.65949 0.0
C1117 C 0.45748 0.01954 57.53499 0.0
C1118 C 0.53861 0.01218 56.9189 0.0
C1119 C 0.53782 -0.00468 56.48064 0.0
H1120 H -0.62616 0.57636 15.17388 0.0
H1121 H -0.74622 0.58339 15.99348 0.0
H1122 H -0.80365 0.62881 16.87883 0.0
H1123 H -0.81918 0.66644 17.45201 0.0
H1124 H -0.69681 0.65783 16.65838 0.0
H1125 H -0.64035 0.6128 15.75644 0.0
C1126 C -0.6643 0.58739 15.5556 0.0
C1127 C -0.68129 0.57609 15.5103 0.0
C1128 C -0.69683 0.61332 16.07709 0.0
C1129 C -0.73193 0.59146 15.99903 0.0
C1130 C -0.76487 0.61749 16.51302 0.0
C1131 C -0.78034 0.65474 17.07575 0.0
C1132 C -0.76208 0.66539 17.12967 0.0
C1133 C -0.74776 0.62866 16.55715 0.0
C1134 C -0.71136 0.64988 16.6452 0.0
C1135 C -0.67917 0.62419 16.1231 0.0
H1136 H 0.51527 0.01954 28.30628 0.0
H1137 H -0.64341 0.76102 28.51267 0.0
H1138 H -0.70793 0.76973 29.54478 0.0
H1139 H -0.79813 0.80327 30.43135 0.0
H1140 H 0.36243 0.06159 30.34627 0.0
H1141 H 0.42442 0.05342 29.2243 0.0
C1142 C 0.52809 0.00119 28.58075 0.0
C1143 C -0.70034 0.80697 28.31492 0.0
C1144 C 0.49093 0.00626 29.19647 0.0
C1145 C -0.6847 0.78346 28.67638 0.0
C1146 C -0.72149 0.78836 29.27775 0.0
C1147 C -0.81106 0.82175 30.17196 0.0
C1148 C 0.41835 0.01569 30.47603 0.0
C1149 C -0.77463 0.81688 29.54537 0.0
C1150 C 0.40208 0.03941 30.1157 0.0
C1151 C 0.43787 0.03475 29.47946 0.0
H1152 H 0.06904 0.1482 45.28968 0.0
H1153 H -0.00251 0.13413 43.50183 0.0
H1154 H -0.04862 0.175 42.40521 0.0
H1155 H -0.06714 0.21414 41.93744 0.0
H1156 H 0.00495 0.22774 43.73898 0.0
H1157 H 0.05088 0.18694 44.82614 0.0
C1158 C 0.04421 0.15359 44.65316 0.0
C1159 C 0.03747 0.13764 44.47931 0.0
C1160 C 0.0181 0.17701 44.0219 0.0
C1161 C 0.00344 0.14591 43.6614 0.0
C1162 C -0.0228 0.16926 43.03009 0.0
C1163 C -0.04189 0.20846 42.57222 0.0
C1164 C -0.03481 0.22426 42.74973 0.0
C1165 C -0.01574 0.18496 43.2027 0.0
C1166 C -0.0009 0.21596 43.57065 0.0
C1167 C 0.02519 0.19266 44.1988 0.0
H1168 H 0.04988 0.005 3.08159 0.0
H1169 H -1.13826 0.75155 2.88293 0.0
H1170 H -0.18269 0.75426 57.48737 0.0
H1171 H -0.27147 0.79368 56.53801 0.0
H1172 H 0.91531 0.0473 56.74455 0.0
H1173 H -0.03967 0.04465 2.13568 0.0
C1174 C -1.22697 0.82395 2.78312 0.0
C1175 C -1.1796 0.79429 3.07108 0.0
C1176 C 0.0141 -0.00086 2.11214 0.0
C1177 C -1.17342 0.77439 2.66398 0.0
C1178 C -0.21646 0.78383 1.99006 0.0
C1179 C -0.27666 0.80927 56.83516 0.0
C1180 C 0.95779 0.00438 56.55059 0.0
C1181 C -0.23591 0.79965 57.50577 0.0
C1182 C 0.9511 0.02443 56.9597 0.0
C1183 C -0.00568 0.01501 57.6304 0.0
H1184 H -0.28516 0.63205 45.25303 0.0
H1185 H -0.27504 0.68468 44.54669 0.0
H1186 H -0.19784 0.64736 43.36579 0.0
H1187 H -0.13709 0.60115 42.48515 0.0
H1188 H -0.15037 0.54975 43.1457 0.0
H1189 H -0.22512 0.58621 44.37376 0.0
C1190 C -0.26683 0.63568 44.83094 0.0
C1191 C -0.28639 0.66133 44.97523 0.0
C1192 C -0.22381 0.61462 44.14072 0.0
C1193 C -0.26056 0.66508 44.45012 0.0
C1194 C -0.21682 0.64389 43.77101 0.0
C1195 C -0.15595 0.59781 42.90643 0.0
C1196 C -0.13833 0.57285 42.73259 0.0
C1197 C -0.19861 0.61876 43.60479 0.0
C1198 C -0.16381 0.56898 43.26414 0.0
C1199 C -0.20611 0.58966 43.96832 0.0
H1200 H 0.5191 0.18781 16.91961 0.0
H1201 H 0.5225 0.12939 16.29398 0.0
H1202 H 0.44727 0.16372 15.03339 0.0
H1203 H 0.38118 0.21001 14.11221 0.0
H1204 H 0.37608 0.26908 14.78454 0.0
H1205 H 0.45315 0.23409 15.99102 0.0
C1206 C 0.50405 0.18233 16.49938 0.0
C1207 C 0.52678 0.15589 16.70038 0.0
C1208 C 0.46081 0.20216 15.77567 0.0
C1209 C 0.50553 0.14963 16.16226 0.0
C1210 C 0.46272 0.16919 15.43664 0.0
C1211 C 0.39617 0.2156 14.52407 0.0
C1212 C 0.37173 0.24262 14.34916 0.0
C1213 C 0.43993 0.19557 15.23916 0.0
C1214 C 0.3936 0.24864 14.88565 0.0
C1215 C 0.43769 0.22863 15.58641 0.0
H1216 H 0.49459 0.20825 43.89641 0.0
H1217 H 0.33429 0.24476 44.12221 0.0
H1218 H 0.36961 0.20733 42.98926 0.0
H1219 H 0.44661 0.16349 41.98053 0.0
H1220 H 0.6046 0.12882 41.67201 0.0
H1221 H 0.5688 0.16673 42.78989 0.0
C1222 C 0.46656 0.20863 43.68965 0.0
C1223 C 0.41153 0.22963 44.10811 0.0
C1224 C 0.48677 0.18727 43.02211 0.0
C1225 C 0.377 0.22887 43.83201 0.0
C1226 C 0.39708 0.20748 43.17634 0.0
C1227 C 0.47306 0.16441 42.13514 0.0
C1228 C 0.52856 0.14306 41.73579 0.0
C1229 C 0.45201 0.18647 42.77188 0.0
C1230 C 0.56213 0.1446 41.97398 0.0
C1231 C 0.54157 0.16639 42.6118 0.0
H1232 H -0.23544 0.63404 13.68279 0.0
H1233 H -0.28127 0.68755 16.12191 0.0
H1234 H -0.26647 0.65689 17.32793 0.0
H1235 H -0.22426 0.60988 17.69117 0.0
H1236 H -0.17759 0.55618 15.23996 0.0
H1237 H -0.20874 0.59169 14.02436 0.0
C1238 C -0.24473 0.63965 14.47439 0.0
C1239 C -0.25985 0.663 14.81893 0.0
C1240 C -0.23398 0.62127 15.15758 0.0
C1241 C -0.27076 0.66999 15.84432 0.0
C1242 C -0.26111 0.65209 16.53229 0.0
C1243 C -0.22133 0.60617 16.88993 0.0
C1244 C -0.19732 0.58022 16.54821 0.0
C1245 C -0.2399 0.62684 16.20022 0.0
C1246 C -0.19523 0.57588 15.51268 0.0
C1247 C -0.21312 0.59617 14.8212 0.0
H1248 H -0.11741 0.40934 55.92359 0.0
H1249 H -0.15184 0.46309 2.60617 0.0
H1250 H -0.17519 0.44792 3.75807 0.0
H1251 H -0.19217 0.42263 4.06365 0.0
H1252 H -0.16023 0.36991 57.37211 0.0
H1253 H -0.13698 0.38509 56.22401 0.0
C1254 C -0.12311 0.41436 56.71749 0.0
C1255 C -0.11828 0.43019 57.07739 0.0
C1256 C -0.13726 0.40588 57.37272 0.0
C1257 C -0.15528 0.45093 2.31143 0.0
C1258 C -0.16868 0.44228 2.96941 0.0
C1259 C -0.18735 0.41788 3.26954 0.0
C1260 C -0.19208 0.40196 2.91318 0.0
C1261 C -0.17399 0.42671 2.61136 0.0
C1262 C -0.15641 0.38187 57.67271 0.0
C1263 C -0.14311 0.39056 57.01389 0.0
H1264 H -0.5907 0.39914 32.72935 0.0
H1265 H -0.55703 0.43131 30.82567 0.0
H1266 H -0.54786 0.40756 29.37248 0.0
H1267 H -0.56146 0.3833 28.62444 0.0
H1268 H 0.39977 0.3519 30.51931 0.0
H1269 H 0.39985 0.37149 31.99185 0.0
C1270 C -0.58035 0.40049 31.99794 0.0
C1271 C -0.57482 0.41711 31.88536 0.0
C1272 C -0.57785 0.38797 31.16183 0.0
C1273 C -0.56081 0.41843 30.93706 0.0
C1274 C -0.55664 0.40529 30.10345 0.0
C1275 C -0.56819 0.38007 29.35709 0.0
C1276 C 0.41798 0.36585 29.44962 0.0
C1277 C -0.567 0.39089 30.2032 0.0
C1278 C 0.40774 0.36291 30.41345 0.0
C1279 C 0.40842 0.37385 31.26017 0.0
H1280 H -0.47663 0.34493 56.73028 0.0
H1281 H -0.5941 0.4333 55.68585 0.0
H1282 H -0.66615 0.45145 56.84488 0.0
H1283 H 0.27251 0.45614 2.35074 0.0
H1284 H 0.3883 0.36787 3.36352 0.0
H1285 H -0.53578 0.34951 2.21789 0.0
C1286 C -0.51812 0.36811 56.74495 0.0
C1287 C -0.52946 0.38765 56.11915 0.0
C1288 C -0.55983 0.37847 57.41018 0.0
C1289 C -0.58353 0.41771 56.1659 0.0
C1290 C -0.62503 0.42816 56.82697 0.0
C1291 C 0.31397 0.43294 2.32963 0.0
C1292 C 0.32502 0.41342 2.94618 0.0
C1293 C -0.61361 0.40877 57.45564 0.0
C1294 C 0.37862 0.38332 2.89316 0.0
C1295 C 0.42047 0.37283 2.23945 0.0
H1296 H -0.02632 0.36749 29.23052 0.0
H1297 H -0.06902 0.40798 32.11074 0.0
H1298 H -0.16924 0.44248 31.79761 0.0
H1299 H -0.24535 0.46257 30.69018 0.0
H1300 H -0.20404 0.42494 27.75184 0.0
H1301 H -0.10291 0.38775 28.11721 0.0
C1302 C -0.05724 0.38393 29.78988 0.0
C1303 C -0.03916 0.38486 30.69515 0.0
C1304 C -0.11544 0.40426 29.59797 0.0
C1305 C -0.08071 0.40622 31.41215 0.0
C1306 C -0.13845 0.42619 31.23177 0.0
C1307 C -0.21458 0.44645 30.12266 0.0
C1308 C -0.2332 0.44707 29.18798 0.0
C1309 C -0.15634 0.42559 30.32425 0.0
C1310 C -0.19176 0.4252 28.48034 0.0
C1311 C -0.13361 0.40396 28.68539 0.0
H1312 H 0.09277 0.13214 8.92473 0.0
H1313 H 0.13266 0.16685 10.33824 0.0
H1314 H 0.07065 0.20767 9.15838 0.0
H1315 H 0.00832 0.23265 7.65818 0.0
H1316 H -0.02726 0.19673 6.17621 0.0
H1317 H 0.0287 0.15777 7.44545 0.0
C1318 C 0.08784 0.14864 8.97537 0.0
C1319 C 0.11721 0.14636 9.72909 0.0
C1320 C 0.05239 0.17211 8.28085 0.0
C1321 C 0.11014 0.16808 9.77926 0.0
C1322 C 0.07469 0.19151 9.10024 0.0
C1323 C 0.01196 0.21661 7.62961 0.0
C1324 C -0.01387 0.21763 6.83318 0.0
C1325 C 0.04576 0.19373 8.34421 0.0
C1326 C -0.00782 0.19635 6.78709 0.0
C1327 C 0.02439 0.17402 7.50891 0.0
H1328 H -0.09186 0.06494 21.65284 0.0
H1329 H 0.76195 0.09585 23.00939 0.0
H1330 H 0.78835 0.09733 24.64026 0.0
H1331 H 0.85049 0.09067 25.68979 0.0
H1332 H -0.00303 0.05997 24.37838 0.0
H1333 H -0.02698 0.0567 22.73176 0.0
C1334 C 0.88001 0.07175 22.3032 0.0
C1335 C 0.83117 0.08046 22.19048 0.0
C1336 C -0.10138 0.07231 23.25429 0.0
C1337 C 0.79898 0.0895 23.05343 0.0
C1338 C 0.81437 0.09012 23.99509 0.0
C1339 C -0.12012 0.08303 25.04793 0.0
C1340 C -0.07298 0.07558 25.16418 0.0
C1341 C 0.8625 0.08169 24.10399 0.0
C1342 C -0.0393 0.06569 24.31757 0.0
C1343 C -0.05328 0.06402 23.373 0.0
H1344 H -0.89561 0.68307 38.11531 0.0
H1345 H -0.79321 0.68973 38.10587 0.0
H1346 H -0.72459 0.64721 36.99182 0.0
H1347 H -0.69163 0.60671 36.07782 0.0
H1348 H -0.79577 0.60071 36.16408 0.0
H1349 H -0.86409 0.64359 37.20637 0.0
C1350 C -0.85825 0.67523 37.88287 0.0
C1351 C -0.84963 0.68955 38.21837 0.0
C1352 C -0.81842 0.6504 37.25892 0.0
C1353 C -0.80134 0.6793 37.86737 0.0
C1354 C -0.76172 0.65476 37.23387 0.0
C1355 C -0.72899 0.61453 36.32066 0.0
C1356 C -0.73691 0.59952 36.02699 0.0
C1357 C -0.76937 0.63982 36.93401 0.0
C1358 C -0.78668 0.61083 36.36288 0.0
C1359 C -0.82664 0.63579 36.96557 0.0
H1360 H -0.67409 0.75472 49.17357 0.0
H1361 H -0.53581 0.72578 50.7011 0.0
H1362 H -0.56236 0.72231 52.27923 0.0
H1363 H -0.62531 0.72807 53.23496 0.0
H1364 H -0.764 0.75695 51.72847 0.0
H1365 H -0.73725 0.76021 50.13742 0.0
C1366 C -0.65007 0.74785 49.85321 0.0
C1367 C -0.60291 0.74042 49.81525 0.0
C1368 C -0.66577 0.74602 50.76409 0.0
C1369 C -0.5717 0.73117 50.70182 0.0
C1370 C -0.58711 0.72939 51.60858 0.0
C1371 C -0.64987 0.73517 52.56038 0.0
C1372 C -0.69678 0.74242 52.60329 0.0
C1373 C -0.6341 0.73681 51.64881 0.0
C1374 C -0.72779 0.75133 51.71823 0.0
C1375 C -0.71251 0.75319 50.80733 0.0
H1376 H -0.59694 0.63201 20.69624 0.0
H1377 H -0.76746 0.69767 21.87979 0.0
H1378 H -0.73158 0.66633 23.33792 0.0
H1379 H -0.65138 0.61992 24.27376 0.0
H1380 H -0.48117 0.55524 23.09367 0.0
H1381 H -0.51728 0.58653 21.63783 0.0
C1382 C -0.62644 0.63956 21.27164 0.0
C1383 C -0.68499 0.66718 21.17266 0.0
C1384 C -0.60548 0.62151 22.1088 0.0
C1385 C -0.72225 0.67658 21.93429 0.0
C1386 C -0.70174 0.6586 22.76763 0.0
C1387 C -0.62237 0.61259 23.69228 0.0
C1388 C -0.56363 0.58515 23.78959 0.0
C1389 C -0.64346 0.63094 22.86054 0.0
C1390 C -0.52642 0.57625 23.03926 0.0
C1391 C -0.54709 0.59413 22.20572 0.0
H1392 H 0.27596 0.08879 36.74496 0.0
H1393 H 0.40538 0.01827 34.69377 0.0
H1394 H 0.47596 0.00884 35.54109 0.0
H1395 H 0.50094 0.02092 36.86981 0.0
H1396 H 0.36895 0.0948 38.79479 0.0
H1397 H 0.29925 0.10303 37.98843 0.0
C1398 C 0.31971 0.07122 36.48851 0.0
C1399 C 0.3356 0.05386 35.6686 0.0
C1400 C 0.3595 0.06677 36.95241 0.0
C1401 C 0.3922 0.03167 35.33045 0.0
C1402 C 0.43252 0.02636 35.81284 0.0
C1403 C 0.45685 0.03884 37.10844 0.0
C1404 C 0.44017 0.05718 37.89459 0.0
C1405 C 0.4167 0.04381 36.62397 0.0
C1406 C 0.38273 0.08055 38.18806 0.0
C1407 C 0.34299 0.08511 37.7312 0.0
H1408 H -0.09052 0.19574 52.05189 0.0
H1409 H -0.24222 0.26067 50.22548 0.0
H1410 H -0.19333 0.22577 48.83903 0.0
H1411 H -0.10626 0.17773 48.12052 0.0
H1412 H 0.04428 0.11094 49.95948 0.0
H1413 H -0.00513 0.14535 51.37603 0.0
C1414 C -0.11258 0.20207 51.3485 0.0
C1415 C -0.16958 0.23082 51.23069 0.0
C1416 C -0.08443 0.18158 50.56287 0.0
C1417 C -0.19838 0.23872 50.32789 0.0
C1418 C -0.1704 0.2188 49.53683 0.0
C1419 C -0.08438 0.17066 48.83457 0.0
C1420 C -0.02724 0.14203 48.93524 0.0
C1421 C -0.1133 0.19033 49.64193 0.0
C1422 C 0.00034 0.13291 49.86685 0.0
C1423 C -0.02785 0.15263 50.67252 0.0
H1424 H -0.26989 0.78955 9.00121 0.0
H1425 H -0.1807 0.75412 11.83375 0.0
H1426 H -1.10399 0.74365 11.12761 0.0
H1427 H -1.06059 0.74088 9.6568 0.0
H1428 H -1.15183 0.77827 6.83448 0.0
H1429 H -0.23167 0.79191 7.57491 0.0
C1430 C -0.23477 0.78009 9.46255 0.0
C1431 C -0.23012 0.77229 10.46198 0.0
C1432 C -0.19247 0.77424 9.04908 0.0
C1433 C -0.18442 0.7599 11.05794 0.0
C1434 C -1.1395 0.75397 10.65479 0.0
C1435 C -1.09781 0.75249 9.21031 0.0
C1436 C -1.09963 0.75779 8.18454 0.0
C1437 C -1.14237 0.76048 9.64442 0.0
C1438 C -1.14839 0.773 7.61757 0.0
C1439 C -1.19276 0.78101 8.04209 0.0
H1440 H -0.35018 0.64144 53.14335 0.0
H1441 H -0.18009 0.56523 51.99811 0.0
H1442 H -0.20689 0.59176 50.44946 0.0
H1443 H -0.27843 0.63589 49.40778 0.0
H1444 H -0.44999 0.71192 50.50035 0.0
H1445 H -0.4224 0.68635 52.09277 0.0
C1446 C -0.31866 0.6307 52.56196 0.0
C1447 C -0.26281 0.60123 52.69654 0.0
C1448 C -0.33459 0.64614 51.6658 0.0
C1449 C -0.22324 0.58766 51.91853 0.0
C1450 C -0.23854 0.60293 51.0332 0.0
C1451 C -0.30992 0.64721 49.99616 0.0
C1452 C -0.36642 0.67606 49.8294 0.0
C1453 C -0.29405 0.63212 50.89781 0.0
C1454 C -0.40631 0.68989 50.60408 0.0
C1455 C -0.39051 0.67517 51.5144 0.0
H1456 H -1.16313 0.76552 38.56258 0.0
H1457 H -0.99887 0.71166 37.2836 0.0
H1458 H -1.01029 0.69223 36.07109 0.0
H1459 H -0.06974 0.69116 35.32938 0.0
H1460 H -0.23725 0.74729 36.48166 0.0
H1461 H -0.22446 0.76523 37.78079 0.0
C1462 C -1.13006 0.74984 38.01335 0.0
C1463 C -1.07986 0.74004 38.03311 0.0
C1464 C -0.14014 0.73902 37.29211 0.0
C1465 C -1.0375 0.71938 37.31181 0.0
C1466 C -1.04404 0.70825 36.60886 0.0
C1467 C -0.10347 0.70715 35.86822 0.0
C1468 C -0.15435 0.71775 35.80814 0.0
C1469 C -1.09367 0.71789 36.59167 0.0
C1470 C -0.19758 0.73867 36.51078 0.0
C1471 C -0.19034 0.74902 37.25151 0.0
H1472 H 0.50748 0.19561 21.06398 0.0
H1473 H 0.65563 0.11386 22.56742 0.0
H1474 H 0.62085 0.13978 24.17744 0.0
H1475 H 0.54911 0.18635 25.14789 0.0
H1476 H 0.40577 0.26777 23.58156 0.0
H1477 H 0.43811 0.24133 22.00432 0.0
C1478 C 0.53203 0.18321 21.74379 0.0
C1479 C 0.5838 0.15259 21.69268 0.0
C1480 C 0.51269 0.19836 22.65618 0.0
C1481 C 0.61541 0.1373 22.58325 0.0
C1482 C 0.59556 0.15218 23.50378 0.0
C1483 C 0.52468 0.19821 24.46279 0.0
C1484 C 0.47461 0.22909 24.48587 0.0
C1485 C 0.54435 0.18278 23.54913 0.0
C1486 C 0.44426 0.24414 23.58543 0.0
C1487 C 0.46272 0.22899 22.68389 0.0
H1488 H 0.37382 0.08448 5.94491 0.0
H1489 H 0.50123 0.0675 7.2748 0.0
H1490 H 0.47664 0.06595 8.95146 0.0
H1491 H 0.41733 0.07013 10.04352 0.0
H1492 H 0.28634 0.09045 8.67672 0.0
H1493 H 0.31359 0.09023 7.01384 0.0
C1494 C 0.39685 0.08011 6.59773 0.0
C1495 C 0.44014 0.0756 6.47714 0.0
C1496 C 0.38136 0.08012 7.55695 0.0
C1497 C 0.46824 0.07071 7.34092 0.0
C1498 C 0.45401 0.06993 8.30079 0.0
C1499 C 0.39499 0.07441 9.37972 0.0
C1500 C 0.34979 0.08027 9.48624 0.0
C1501 C 0.41046 0.07468 8.41915 0.0
C1502 C 0.32076 0.08617 8.61929 0.0
C1503 C 0.33659 0.08587 7.66654 0.0
H1504 H 0.37981 0.2086 35.3063 0.0
H1505 H 0.20976 0.27241 36.47684 0.0
H1506 H 0.24429 0.23812 37.7971 0.0
H1507 H 0.32295 0.19023 38.63278 0.0
H1508 H 0.49286 0.12523 37.42924 0.0
H1509 H 0.45841 0.15946 36.10558 0.0
C1510 C 0.35059 0.21497 35.85667 0.0
C1511 C 0.29239 0.24311 35.80119 0.0
C1512 C 0.37066 0.19482 36.60248 0.0
C1513 C 0.25468 0.2509 36.50544 0.0
C1514 C 0.27443 0.2313 37.25964 0.0
C1515 C 0.35248 0.18344 38.07776 0.0
C1516 C 0.41051 0.15514 38.13412 0.0
C1517 C 0.33231 0.2032 37.31597 0.0
C1518 C 0.44795 0.14675 37.40245 0.0
C1519 C 0.42831 0.16642 36.6481 0.0
H1520 H -0.70289 0.73072 22.52656 0.0
H1521 H -0.77364 0.80924 21.41298 0.0
H1522 H -0.71307 0.80176 22.5712 0.0
H1523 H -0.64027 0.77305 23.92424 0.0
H1524 H -0.57147 0.69506 25.04637 0.0
H1525 H -0.62989 0.70188 23.85235 0.0
C1526 C -0.70487 0.74611 22.5307 0.0
C1527 C -0.74316 0.7706 21.88308 0.0
C1528 C -0.66987 0.74168 23.20025 0.0
C1529 C -0.74541 0.79047 21.9128 0.0
C1530 C -0.71038 0.78608 22.57066 0.0
C1531 C -0.63779 0.75745 23.90115 0.0
C1532 C -0.60149 0.7336 24.57666 0.0
C1533 C -0.67247 0.76179 23.22095 0.0
C1534 C -0.5992 0.71372 24.54105 0.0
C1535 C -0.63266 0.71759 23.85744 0.0
H1536 H -0.04939 0.62944 10.69383 0.0
H1537 H -0.2206 0.68069 10.05857 0.0
H1538 H -0.18506 0.64771 8.67486 0.0
H1539 H -0.10459 0.60354 7.663 0.0
H1540 H 0.06621 0.55231 8.35393 0.0
H1541 H 0.02987 0.58617 9.68672 0.0
C1542 C -0.07922 0.63359 10.25252 0.0
C1543 C -0.13776 0.65763 10.48581 0.0
C1544 C -0.05846 0.61445 9.46361 0.0
C1545 C -0.17541 0.66247 9.89877 0.0
C1546 C -0.15503 0.64353 9.10771 0.0
C1547 C -0.07527 0.59967 8.10818 0.0
C1548 C -0.01635 0.57526 7.89695 0.0
C1549 C -0.09651 0.61928 8.88753 0.0
C1550 C 0.02073 0.57098 8.47886 0.0
C1551 C -3e-05 0.59031 9.25026 0.0
H1552 H 0.80055 0.08122 50.23122 0.0
H1553 H 0.91365 0.02911 52.77442 0.0
H1554 H -0.01381 0.02068 51.9755 0.0
H1555 H 0.01532 0.0283 50.55938 0.0
H1556 H -0.09928 0.08252 48.05298 0.0
H1557 H 0.82861 0.09027 48.83357 0.0
C1558 C 0.84072 0.06776 50.60587 0.0
C1559 C 0.85199 0.05545 51.55911 0.0
C1560 C 0.8803 0.06363 50.1509 0.0
C1561 C 0.90382 0.03868 52.04051 0.0
C1562 C 0.94377 0.03391 51.58366 0.0
C1563 C -0.02468 0.04172 50.18004 0.0
C1564 C -0.03627 0.05463 49.24039 0.0
C1565 C -0.06467 0.04629 50.63984 0.0
C1566 C -0.08909 0.07244 48.77551 0.0
C1567 C 0.86851 0.07672 49.22056 0.0
H1568 H -0.19387 0.62279 35.6573 0.0
H1569 H -0.10419 0.6367 36.15011 0.0
H1570 H -0.03133 0.59144 37.09196 0.0
H1571 H 0.0078 0.54776 37.78981 0.0
H1572 H -0.08247 0.53424 37.418 0.0
H1573 H -0.1553 0.57922 36.40971 0.0
C1574 C -0.15895 0.61631 35.9755 0.0
C1575 C -0.15557 0.63379 35.81063 0.0
C1576 C -0.11676 0.59005 36.54255 0.0
C1577 C -0.10884 0.62419 36.23537 0.0
C1578 C -0.06661 0.59804 36.78338 0.0
C1579 C -0.02782 0.55459 37.50518 0.0
C1580 C -0.03212 0.53775 37.70922 0.0
C1581 C -0.07009 0.5808 36.94313 0.0
C1582 C -0.07827 0.5469 37.28903 0.0
C1583 C -0.1201 0.57272 36.71394 0.0
H1584 H -0.19743 0.44728 49.96604 0.0
H1585 H -0.37025 0.50945 50.98301 0.0
H1586 H -0.36073 0.53087 52.12278 0.0
H1587 H -0.30574 0.53341 52.80598 0.0
H1588 H -0.13011 0.46942 51.96814 0.0
H1589 H -0.13807 0.4471 50.79133 0.0
C1590 C -0.23265 0.46519 50.44815 0.0
C1591 C -0.28507 0.47711 50.36302 0.0
C1592 C -0.2266 0.47729 51.12856 0.0
C1593 C -0.33006 0.50031 51.001 0.0
C1594 C -0.32463 0.51257 51.66103 0.0
C1595 C -0.26916 0.51473 52.35963 0.0
C1596 C -0.21781 0.50355 52.4546 0.0
C1597 C -0.27361 0.50162 51.71782 0.0
C1598 C -0.17037 0.4787 51.89659 0.0
C1599 C -0.17495 0.46591 51.22749 0.0
H1600 H 0.42097 0.14007 8.19418 0.0
H1601 H 0.42957 0.19016 6.94774 0.0
H1602 H 0.36746 0.22655 8.27757 0.0
H1603 H 0.31072 0.24418 9.81393 0.0
H1604 H 0.30668 0.19249 11.10406 0.0
H1605 H 0.36573 0.15716 9.7376 0.0
C1606 C 0.40918 0.15897 8.2146 0.0
C1607 C 0.43023 0.16224 7.47385 0.0
C1608 C 0.37375 0.17972 8.98821 0.0
C1609 C 0.41485 0.18679 7.51581 0.0
C1610 C 0.37887 0.20777 8.2725 0.0
C1611 C 0.32247 0.22529 9.78911 0.0
C1612 C 0.30418 0.22102 10.5575 0.0
C1613 C 0.358 0.20451 9.01408 0.0
C1614 C 0.32036 0.19623 10.52371 0.0
C1615 C 0.3542 0.17598 9.74256 0.0
H1616 H 0.38089 0.38027 24.88092 0.0
H1617 H 0.4621 0.29869 23.85206 0.0
H1618 H 0.52287 0.29177 22.7318 0.0
H1619 H -0.44263 0.30847 22.06116 0.0
H1620 H -0.52331 0.3897 23.12648 0.0
H1621 H -0.58542 0.39707 24.20611 0.0
C1622 C 0.41096 0.36126 24.39628 0.0
C1623 C 0.41619 0.3402 24.44768 0.0
C1624 C 0.4466 0.35715 23.76433 0.0
C1625 C 0.45669 0.31537 23.82815 0.0
C1626 C 0.49178 0.31131 23.18953 0.0
C1627 C -0.47343 0.32766 22.53583 0.0
C1628 C -0.47803 0.34852 22.50468 0.0
C1629 C 0.48765 0.33188 23.15859 0.0
C1630 C -0.51894 0.37341 23.12025 0.0
C1631 C -0.55459 0.37765 23.74189 0.0
H1632 H 0.51576 0.19923 52.4433 0.0
H1633 H 0.67045 0.12555 50.82191 0.0
H1634 H 0.62455 0.1529 49.24752 0.0
H1635 H 0.54035 0.19658 48.32177 0.0
H1636 H 0.38666 0.2729 49.89456 0.0
H1637 H 0.4319 0.24584 51.50193 0.0
C1638 C 0.53919 0.18937 51.74351 0.0
C1639 C 0.59641 0.16031 51.74775 0.0
C1640 C 0.51262 0.2056 50.83613 0.0
C1641 C 0.62668 0.14784 50.83967 0.0
C1642 C 0.60032 0.16343 49.93834 0.0
C1643 C 0.51651 0.2074 49.01583 0.0
C1644 C 0.45982 0.23654 48.98886 0.0
C1645 C 0.54328 0.19211 49.92693 0.0
C1646 C 0.43015 0.25042 49.89661 0.0
C1647 C 0.45607 0.23491 50.8129 0.0
H1648 H 0.29186 0.42625 8.07882 0.0
H1649 H 0.17681 0.51507 7.14856 0.0
H1650 H -0.78546 0.52018 8.51526 0.0
H1651 H -0.72564 0.50003 10.0453 0.0
H1652 H -0.60852 0.41031 10.90098 0.0
H1653 H 0.35624 0.40511 9.50013 0.0
C1654 C 0.27459 0.4467 8.16979 0.0
C1655 C 0.23138 0.47029 7.51717 0.0
C1656 C 0.29501 0.44944 8.95255 0.0
C1657 C 0.21004 0.49653 7.64059 0.0
C1658 C -0.76729 0.4995 8.42513 0.0
C1659 C -0.70669 0.47924 9.91896 0.0
C1660 C -0.66537 0.45581 10.59927 0.0
C1661 C -0.72526 0.47619 9.09627 0.0
C1662 C -0.64145 0.42904 10.41476 0.0
C1663 C 0.33749 0.42592 9.60611 0.0
H1664 H -0.30058 0.64303 22.8081 0.0
H1665 H -0.40463 0.64744 24.4626 0.0
H1666 H -0.36029 0.60449 23.60186 0.0
H1667 H -0.2974 0.56762 22.29864 0.0
H1668 H -0.1919 0.56174 20.6274 0.0
H1669 H -0.22938 0.60224 21.60156 0.0
C1670 C -0.31319 0.63446 22.98658 0.0
C1671 C -0.35748 0.64933 23.68064 0.0
C1672 C -0.2867 0.60912 22.49335 0.0
C1673 C -0.37259 0.6375 23.9063 0.0
C1674 C -0.34662 0.61254 23.4226 0.0
C1675 C -0.28174 0.57481 22.15885 0.0
C1676 C -0.24214 0.56173 21.38692 0.0
C1677 C -0.30448 0.59851 22.70252 0.0
C1678 C -0.22204 0.57121 21.22158 0.0
C1679 C -0.24406 0.59468 21.77093 0.0
H1680 H 0.07672 0.34993 36.66289 0.0
H1681 H 0.03147 0.33476 34.13285 0.0
H1682 H -0.01487 0.33204 35.26338 0.0
H1683 H -0.04307 0.33397 36.99968 0.0
H1684 H 0.00291 0.34952 39.49654 0.0
H1685 H 0.04908 0.35193 38.36103 0.0
C1686 C 0.05632 0.34629 36.35327 0.0
C1687 C 0.0578 0.34263 35.30689 0.0
C1688 C 0.02979 0.34465 37.00976 0.0
C1689 C 0.03137 0.33763 34.93138 0.0
C1690 C 0.00479 0.33602 35.58052 0.0
C1691 C -0.02267 0.33773 37.29233 0.0
C1692 C -0.02432 0.34187 38.33711 0.0
C1693 C 0.00386 0.33936 36.62526 0.0
C1694 C 0.00238 0.34679 38.69935 0.0
C1695 C 0.0291 0.34809 38.04856 0.0
H1696 H -0.08736 0.13772 24.12844 0.0
H1697 H -0.00822 0.15798 24.47353 0.0
H1698 H -0.08008 0.2002 23.36681 0.0
H1699 H -0.16542 0.2315 22.29339 0.0
H1700 H -0.23794 0.20812 21.83151 0.0
H1701 H -0.17057 0.16801 23.04926 0.0
C1702 C -0.08481 0.15094 23.96816 0.0
C1703 C -0.04187 0.14435 24.41494 0.0
C1704 C -0.12638 0.1753 23.32707 0.0
C1705 C -0.04079 0.1624 24.16855 0.0
C1706 C -0.08215 0.18674 23.53307 0.0
C1707 C -0.16666 0.21773 22.46057 0.0
C1708 C -0.20659 0.22274 21.96915 0.0
C1709 C -0.12543 0.19356 23.11395 0.0
C1710 C -0.20771 0.20473 22.20221 0.0
C1711 C -0.16877 0.1816 22.88901 0.0
H1712 H -0.0345 0.35767 9.38899 0.0
H1713 H 0.13236 0.26654 9.84045 0.0
H1714 H 0.10848 0.25219 8.68287 0.0
H1715 H 0.0417 0.26486 7.50936 0.0
H1716 H -0.1257 0.35543 7.06586 0.0
H1717 H -0.10317 0.37029 8.26786 0.0
C1718 C -0.00309 0.33462 9.2443 0.0
C1719 C 0.05133 0.31347 9.70879 0.0
C1720 C -0.01732 0.32622 8.5782 0.0
C1721 C 0.09063 0.2837 9.4949 0.0
C1722 C 0.07687 0.27529 8.83174 0.0
C1723 C 0.00986 0.28789 7.67766 0.0
C1724 C -0.04366 0.30896 7.19086 0.0
C1725 C 0.02323 0.29631 8.36476 0.0
C1726 C -0.08426 0.33866 7.42825 0.0
C1727 C -0.07124 0.3472 8.11314 0.0
H1728 H -0.64144 0.61657 52.50968 0.0
H1729 H -0.68857 0.68549 51.05098 0.0
H1730 H -0.62605 0.65318 49.64732 0.0
H1731 H -0.55961 0.606 48.81605 0.0
H1732 H -0.50962 0.53594 50.24791 0.0
H1733 H -0.57147 0.56797 51.67908 0.0
C1734 C -0.63822 0.62451 51.8809 0.0
C1735 C -0.66993 0.65354 51.88735 0.0
C1736 C -0.60163 0.6056 51.07191 0.0
C1737 C -0.66445 0.6633 51.07325 0.0
C1738 C -0.62882 0.64483 50.26654 0.0
C1739 C -0.56203 0.59757 49.43892 0.0
C1740 C -0.53016 0.56855 49.41641 0.0
C1741 C -0.59738 0.61602 50.25642 0.0
C1742 C -0.53368 0.55814 50.24081 0.0
C1743 C -0.56918 0.5765 51.059 0.0
H1744 H -0.83636 0.55481 35.87418 0.0
H1745 H -0.65623 0.48202 36.54471 0.0
H1746 H -0.67048 0.46438 37.81666 0.0
H1747 H 0.26329 0.46848 38.68506 0.0
H1748 H 0.08375 0.54115 37.95207 0.0
H1749 H 0.09801 0.55947 36.75253 0.0
C1750 C -0.80012 0.53521 36.30313 0.0
C1751 C -0.7453 0.51982 36.11128 0.0
C1752 C 0.18884 0.52482 37.01493 0.0
C1753 C -0.699 0.49445 36.67806 0.0
C1754 C -0.70705 0.48422 37.4019 0.0
C1755 C 0.22731 0.48835 38.26543 0.0
C1756 C 0.17267 0.50304 38.40933 0.0
C1757 C -0.76149 0.49902 37.56766 0.0
C1758 C 0.12665 0.52869 37.84679 0.0
C1759 C 0.13455 0.53953 37.1646 0.0
H1760 H -0.7541 0.59355 11.54885 0.0
H1761 H -0.63109 0.51383 9.82755 0.0
H1762 H -0.68511 0.54226 8.27665 0.0
H1763 H -0.7665 0.59041 7.41458 0.0
H1764 H -0.89213 0.66903 9.1877 0.0
H1765 H -0.83841 0.64038 10.72241 0.0
C1766 C -0.73876 0.58233 10.83303 0.0
C1767 C -0.68778 0.55165 10.79793 0.0
C1768 C -0.77091 0.59867 9.95873 0.0
C1769 C -0.66968 0.53741 9.87085 0.0
C1770 C -0.70066 0.55369 8.98686 0.0
C1771 C -0.78213 0.60114 8.13945 0.0
C1772 C -0.83312 0.63186 8.18833 0.0
C1773 C -0.75118 0.58439 9.02144 0.0
C1774 C -0.85339 0.64549 9.13183 0.0
C1775 C -0.82241 0.62912 10.0074 0.0
H1776 H -0.48573 0.3228 48.54934 0.0
H1777 H 0.45531 0.29919 50.24131 0.0
H1778 H 0.49573 0.29573 51.77373 0.0
H1779 H -0.45176 0.30028 52.6492 0.0
H1780 H -0.39578 0.32408 50.96559 0.0
H1781 H -0.43504 0.32687 49.42316 0.0
C1782 C 0.50752 0.31714 49.25254 0.0
C1783 C 0.47993 0.31137 49.2699 0.0
C1784 C -0.46639 0.31528 50.13829 0.0
C1785 C 0.47656 0.3035 50.19369 0.0
C1786 C 0.49949 0.30166 51.07557 0.0
C1787 C -0.44801 0.30608 51.94606 0.0
C1788 C -0.42089 0.3121 51.93101 0.0
C1789 C 0.52654 0.30759 51.05848 0.0
C1790 C -0.41645 0.31942 51.00632 0.0
C1791 C -0.43896 0.32102 50.12146 0.0
H1792 H 0.00719 0.19699 35.27238 0.0
H1793 H 0.18228 0.13641 36.09845 0.0
H1794 H 0.15171 0.16899 37.42368 0.0
H1795 H 0.07621 0.21267 38.43585 0.0
H1796 H -0.09971 0.27424 37.68224 0.0
H1797 H -0.0702 0.24384 36.23393 0.0
C1798 C 0.03851 0.19103 35.7417 0.0
C1799 C 0.0972 0.16406 35.58077 0.0
C1800 C 0.02043 0.21018 36.51284 0.0
C1801 C 0.13711 0.15694 36.19148 0.0
C1802 C 0.11962 0.17558 36.95569 0.0
C1803 C 0.04424 0.21976 37.94197 0.0
C1804 C -0.0138 0.24568 38.16161 0.0
C1805 C 0.06157 0.20201 37.13065 0.0
C1806 C -0.05479 0.25461 37.51881 0.0
C1807 C -0.03779 0.23699 36.69956 0.0
H1808 H -0.22942 0.46442 24.95127 0.0
H1809 H -0.38343 0.50056 23.93063 0.0
H1810 H -0.36385 0.50225 22.20789 0.0
H1811 H -0.30637 0.49646 21.01091 0.0
H1812 H -0.15214 0.46009 22.03479 0.0
H1813 H -0.16896 0.45581 23.73508 0.0
C1814 C -0.25851 0.47235 24.35262 0.0
C1815 C -0.30821 0.48255 24.58036 0.0
C1816 C -0.24723 0.4735 23.36177 0.0
C1817 C -0.34508 0.49271 23.78636 0.0
C1818 C -0.33392 0.49373 22.79797 0.0
C1819 C -0.27565 0.48705 21.59643 0.0
C1820 C -0.22789 0.47869 21.38123 0.0
C1821 C -0.28556 0.4846 22.57878 0.0
C1822 C -0.18954 0.46707 22.16904 0.0
C1823 C -0.19903 0.46449 23.1452 0.0
H1824 H 0.06108 0.29313 15.12418 0.0
H1825 H 0.23436 0.22555 16.16869 0.0
H1826 H 0.23642 0.19203 16.37123 0.0
H1827 H 0.20297 0.17787 15.59714 0.0
H1828 H 0.04109 0.24336 14.01213 0.0
H1829 H 0.01877 0.28118 14.72294 0.0
C1830 C 0.09796 0.27156 15.45371 0.0
C1831 C 0.1485 0.26095 15.57255 0.0
C1832 C 0.1015 0.25134 15.41656 0.0
C1833 C 0.19553 0.2337 16.03895 0.0
C1834 C 0.19707 0.21432 16.12906 0.0
C1835 C 0.16337 0.20016 15.37081 0.0
C1836 C 0.12772 0.20676 14.62904 0.0
C1837 C 0.15288 0.22198 15.69855 0.0
C1838 C 0.07278 0.23647 14.49778 0.0
C1839 C 0.05928 0.25861 14.91502 0.0
H1840 H -0.37604 0.27217 25.75449 0.0
H1841 H -0.35588 0.25361 28.95277 0.0
H1842 H -0.28312 0.24655 29.04633 0.0
H1843 H -0.2032 0.22632 28.16595 0.0
H1844 H -0.19886 0.22221 24.94578 0.0
H1845 H -0.30176 0.25917 24.89174 0.0
C1846 C -0.35531 0.26588 26.47312 0.0
C1847 C -0.36949 0.26114 27.32334 0.0
C1848 C -0.30805 0.25812 26.50899 0.0
C1849 C -0.34564 0.25635 28.26283 0.0
C1850 C -0.30341 0.25232 28.32445 0.0
C1851 C -0.22501 0.23413 27.44708 0.0
C1852 C -0.19336 0.21853 26.56948 0.0
C1853 C -0.28067 0.25021 27.44094 0.0
C1854 C -0.22229 0.23194 25.64463 0.0
C1855 C -0.28096 0.25243 25.61562 0.0
H1856 H 0.08069 0.56798 39.36928 0.0
H1857 H -0.10148 0.64894 39.33822 0.0
H1858 H -0.08874 0.67601 38.97363 0.0
H1859 H -1.02291 0.67676 39.13174 0.0
H1860 H -0.84159 0.5955 39.4837 0.0
H1861 H -0.85332 0.56803 39.18478 0.0
C1862 C 0.04375 0.59148 39.25197 0.0
C1863 C -0.01109 0.60674 39.41329 0.0
C1864 C 0.05166 0.60666 39.10496 0.0
C1865 C -0.05888 0.63699 39.23884 0.0
C1866 C -0.05148 0.65235 39.03646 0.0
C1867 C -0.98594 0.653 39.12953 0.0
C1868 C -0.93188 0.63806 39.37991 0.0
C1869 C 0.0036 0.63751 39.0437 0.0
C1870 C -0.88377 0.60743 39.31716 0.0
C1871 C -0.89056 0.59175 39.15727 0.0
H1872 H -0.41892 0.60889 2.03001 0.0
H1873 H -0.36987 0.53218 56.71801 0.0
H1874 H -0.47088 0.56742 56.98686 0.0
H1875 H -0.56613 0.61978 57.04253 0.0
H1876 H -0.61264 0.69595 2.2439 0.0
H1877 H -0.51069 0.65639 2.59284 0.0
C1878 C -0.40696 0.58818 57.68169 0.0
C1879 C -0.37305 0.56147 57.19384 0.0
C1880 C -0.49297 0.62235 2.0315 0.0
C1881 C -0.39561 0.55325 57.03647 0.0
C1882 C -0.45334 0.5733 57.19932 0.0
C1883 C -0.54792 0.62439 57.3843 0.0
C1884 C -0.5816 0.65356 57.48357 0.0
C1885 C -0.48896 0.60175 57.51585 0.0
C1886 C -0.58688 0.67352 2.15037 0.0
C1887 C -0.5285 0.65094 2.333 0.0
H1888 H -0.61224 0.71905 16.83969 0.0
H1889 H -0.60873 0.66313 15.71887 0.0
H1890 H -0.50715 0.6245 15.40405 0.0
H1891 H -0.42067 0.60261 16.05135 0.0
H1892 H -0.42075 0.65697 17.23768 0.0
H1893 H -0.52295 0.70027 16.94115 0.0
C1894 C -0.58945 0.69886 16.48087 0.0
C1895 C -0.61666 0.69319 16.34595 0.0
C1896 C -0.53042 0.67609 16.36496 0.0
C1897 C -0.58808 0.66763 15.84941 0.0
C1898 C -0.52976 0.64534 15.68522 0.0
C1899 C -0.44156 0.62375 16.20733 0.0
C1900 C -0.41315 0.62608 16.73466 0.0
C1901 C -0.5001 0.6485 16.03564 0.0
C1902 C -0.44209 0.65417 16.9 0.0
C1903 C -0.50054 0.67908 16.71773 0.0
H1904 H 0.15788 0.23952 30.5277 0.0
H1905 H 0.32923 0.18015 31.58237 0.0
H1906 H 0.35588 0.1385 31.18698 0.0
H1907 H 0.32278 0.1209 31.05318 0.0
H1908 H 0.14339 0.18353 30.52736 0.0
H1909 H 0.12864 0.22084 30.13678 0.0
C1910 C 0.20121 0.2174 30.66017 0.0
C1911 C 0.24066 0.21286 31.1278 0.0
C1912 C 0.21475 0.19385 30.52474 0.0
C1913 C 0.29759 0.18423 31.24221 0.0
C1914 C 0.3128 0.16037 31.02317 0.0
C1915 C 0.28041 0.1427 30.85304 0.0
C1916 C 0.23395 0.14961 30.88472 0.0
C1917 C 0.27043 0.16517 30.749 0.0
C1918 C 0.18028 0.17731 30.53775 0.0
C1919 C 0.17135 0.19904 30.32473 0.0
H1920 H -0.13828 0.10483 45.31746 0.0
H1921 H -0.17854 0.17259 43.99172 0.0
H1922 H -0.27847 0.20418 43.81618 0.0
H1923 H 0.64259 0.21627 44.45767 0.0
H1924 H 0.68088 0.15098 46.00362 0.0
H1925 H 0.78256 0.11432 45.68967 0.0
C1926 C -0.16878 0.126 44.94661 0.0
C1927 C -0.15228 0.13673 44.66528 0.0
C1928 C 0.77088 0.14463 44.92508 0.0
C1929 C -0.1912 0.16418 44.20286 0.0
C1930 C -0.24814 0.18226 44.11801 0.0
C1931 C 0.67289 0.19377 44.6927 0.0
C1932 C 0.65477 0.18627 45.26397 0.0
C1933 C 0.73071 0.17337 44.54056 0.0
C1934 C 0.69442 0.1572 45.57875 0.0
C1935 C 0.75227 0.13631 45.39616 0.0
H1936 H -0.04312 0.60472 3.24685 0.0
H1937 H 0.11997 0.55677 57.19211 0.0
H1938 H 0.07263 0.60525 57.0965 0.0
H1939 H -1.00831 0.66287 2.2889 0.0
H1940 H -0.12046 0.68701 4.63904 0.0
H1941 H -0.11197 0.6533 3.96828 0.0
C1942 C -0.02609 0.60852 2.77766 0.0
C1943 C 0.02822 0.58438 2.35813 0.0
C1944 C -0.04892 0.63508 2.8555 0.0
C1945 C 0.0784 0.57518 57.53137 0.0
C1946 C 0.05182 0.60279 57.49652 0.0
C1947 C -0.03344 0.66089 2.65171 0.0
C1948 C -0.06274 0.67578 3.55901 0.0
C1949 C -0.02202 0.63861 2.35028 0.0
C1950 C -0.09566 0.67506 3.96379 0.0
C1951 C -0.09029 0.65544 3.58551 0.0
H1952 H -0.29268 0.51954 45.53465 0.0
H1953 H -0.45946 0.579 44.24503 0.0
H1954 H -0.47308 0.61701 44.12114 0.0
H1955 H -0.45087 0.63666 44.90447 0.0
H1956 H -0.28707 0.57874 46.33097 0.0
H1957 H -0.25966 0.5368 45.91444 0.0
C1958 C -0.33073 0.54042 45.1809 0.0
C1959 C -0.37593 0.5471 44.93459 0.0
C1960 C -0.34002 0.56279 45.19247 0.0
C1961 C -0.42455 0.57368 44.45373 0.0
C1962 C -0.43278 0.59559 44.40381 0.0
C1963 C -0.40815 0.61489 45.08987 0.0
C1964 C -0.3718 0.61101 45.67867 0.0
C1965 C -0.39294 0.59105 44.85533 0.0
C1966 C -0.31681 0.58245 45.91382 0.0
C1967 C -0.30084 0.55843 45.66606 0.0
H1968 H -0.01184 0.61205 30.61544 0.0
H1969 H -0.0774 0.69285 30.724 0.0
H1970 H -0.97935 0.66637 30.47372 0.0
H1971 H -0.87737 0.61999 30.76642 0.0
H1972 H -0.81233 0.53926 30.81445 0.0
H1973 H 0.09069 0.56565 30.42567 0.0
C1974 C -0.0053 0.62383 30.54244 0.0
C1975 C -0.05066 0.65401 30.72071 0.0
C1976 C 0.04986 0.60835 30.44603 0.0
C1977 C -0.04266 0.66943 30.60087 0.0
C1978 C -0.98528 0.65428 30.46983 0.0
C1979 C -0.88368 0.60819 30.65456 0.0
C1980 C -0.83885 0.57805 30.85243 0.0
C1981 C -0.93845 0.62363 30.47597 0.0
C1982 C -0.84656 0.56263 30.67802 0.0
C1983 C 0.09661 0.57773 30.46616 0.0
H1984 H 0.66324 0.19019 16.67526 0.0
H1985 H 0.51624 0.24446 18.6003 0.0
H1986 H 0.49236 0.28567 18.2929 0.0
H1987 H 0.53338 0.29889 17.96247 0.0
H1988 H -0.30881 0.24026 16.24929 0.0
H1989 H -0.31239 0.20978 15.88379 0.0
C1990 C 0.62429 0.2112 16.99422 0.0
C1991 C 0.59353 0.21366 17.70953 0.0
C1992 C 0.61184 0.23438 16.83778 0.0
C1993 C 0.5427 0.24149 18.09385 0.0
C1994 C 0.52865 0.26516 17.91027 0.0
C1995 C 0.56508 0.27999 17.47712 0.0
C1996 C -0.3839 0.2705 17.19888 0.0
C1997 C 0.5661 0.26088 17.36046 0.0
C1998 C -0.3452 0.24739 16.51211 0.0
C1999 C -0.34664 0.22957 16.31628 0.0
H2000 H 0.25 0.18493 2.28775 0.0
H2001 H 0.22169 0.24932 3.52126 0.0
H2002 H 0.12619 0.28868 2.76892 0.0
H2003 H 0.0447 0.30354 2.22344 0.0
H2004 H 0.09887 0.22355 57.19629 0.0
H2005 H 0.20093 0.18682 57.19796 0.0
C2006 C 0.22304 0.20763 2.37544 0.0
C2007 C 0.24092 0.21462 2.99339 0.0
C2008 C 0.16774 0.22986 1.99033 0.0
C2009 C 0.20752 0.24375 3.06988 0.0
C2010 C 0.15318 0.26614 2.6384 0.0
C2011 C 0.07289 0.28112 2.02374 0.0
C2012 C 0.07857 0.25892 57.70047 0.0
C2013 C 0.13156 0.25941 2.16506 0.0
C2014 C 0.11468 0.2306 57.34305 0.0
C2015 C 0.17348 0.20929 57.3651 0.0
H2016 H 0.1618 0.20904 43.05367 0.0
H2017 H 0.16093 0.25446 41.00464 0.0
H2018 H 0.25599 0.22489 41.59349 0.0
H2019 H 0.34505 0.17925 42.36735 0.0
H2020 H 0.35154 0.12713 44.05117 0.0
H2021 H 0.24756 0.16744 44.03307 0.0
C2022 C 0.18217 0.21279 42.75571 0.0
C2023 C 0.15579 0.23322 41.97883 0.0
C2024 C 0.23732 0.19487 43.06142 0.0
C2025 C 0.18173 0.23821 41.58893 0.0
C2026 C 0.23552 0.22158 41.93245 0.0
C2027 C 0.32311 0.17756 42.77869 0.0
C2028 C 0.35486 0.15042 43.18492 0.0
C2029 C 0.2647 0.19891 42.62995 0.0
C2030 C 0.3273 0.14797 43.72753 0.0
C2031 C 0.26808 0.17066 43.68863 0.0
H2032 H -0.54305 0.69908 29.20421 0.0
H2033 H -0.36135 0.62809 29.61009 0.0
H2034 H -0.35546 0.59284 29.56465 0.0
H2035 H -0.39728 0.58257 28.82502 0.0
H2036 H -0.57565 0.65427 28.01299 0.0
H2037 H -0.58813 0.68889 28.77871 0.0
C2038 C -0.50271 0.67598 29.34217 0.0
C2039 C -0.45246 0.66584 29.36874 0.0
C2040 C -0.49899 0.65594 29.174 0.0
C2041 C -0.40041 0.63615 29.57134 0.0
C2042 C -0.39695 0.616 29.5139 0.0
C2043 C -0.43894 0.60578 28.82115 0.0
C2044 C -0.48497 0.61603 28.32935 0.0
C2045 C -0.44508 0.62561 29.2127 0.0
C2046 C -0.53931 0.64592 28.37093 0.0
C2047 C -0.54649 0.66572 28.80994 0.0
H2048 H -0.06117 0.65565 15.83416 0.0
H2049 H -1.07388 0.71687 14.80581 0.0
H2050 H -0.97024 0.67804 14.822 0.0
H2051 H -0.87919 0.62518 14.61561 0.0
H2052 H 0.129 0.56433 15.40091 0.0
H2053 H 0.03135 0.60438 16.00064 0.0
C2054 C -0.04219 0.66094 15.66233 0.0
C2055 C -0.07598 0.68859 15.27072 0.0
C2056 C 0.0169 0.63815 15.59037 0.0
C2057 C -1.04817 0.69534 15.07894 0.0
C2058 C -0.98897 0.67304 15.07129 0.0
C2059 C -0.89816 0.62078 14.93089 0.0
C2060 C -0.86758 0.59213 14.93402 0.0
C2061 C -0.95506 0.64401 15.23439 0.0
C2062 C -0.89135 0.58633 15.37863 0.0
C2063 C 0.05002 0.60921 15.72083 0.0
H2064 H -0.15858 0.12651 56.04474 0.0
H2065 H 0.65946 0.18753 56.42714 0.0
H2066 H 0.64311 0.22452 57.01578 0.0
H2067 H -0.32385 0.24347 56.94555 0.0
H2068 H -0.15017 0.18603 56.2234 0.0
H2069 H -0.12449 0.1437 56.29045 0.0
C2070 C -0.20104 0.14781 56.26553 0.0
C2071 C 0.7503 0.15433 56.1676 0.0
C2072 C -0.21104 0.16975 56.54898 0.0
C2073 C 0.69581 0.18172 56.49215 0.0
C2074 C 0.68617 0.20309 56.82588 0.0
C2075 C -0.2798 0.22144 56.86066 0.0
C2076 C -0.23911 0.2176 56.56171 0.0
C2077 C -0.26699 0.19791 56.79687 0.0
C2078 C -0.18205 0.18921 56.45092 0.0
C2079 C -0.16777 0.16517 56.46618 0.0
H2080 H -0.95527 0.82419 16.90213 0.0
H2081 H -0.79032 0.78039 16.26707 0.0
H2082 H -0.82315 0.80351 14.62549 0.0
H2083 H 0.3799 0.00788 13.49877 0.0
H2084 H 0.21209 0.05601 14.14854 0.0
H2085 H 0.24907 0.02465 15.6178 0.0
C2086 C -0.92653 0.81946 16.39556 0.0
C2087 C -0.87084 0.80111 16.72024 0.0
C2088 C 0.33577 -0.00098 15.44459 0.0
C2089 C -0.83387 0.795 16.05118 0.0
C2090 C -0.85242 0.80807 15.10494 0.0
C2091 C 0.35213 0.01037 13.93017 0.0
C2092 C 0.29377 0.03369 13.70203 0.0
C2093 C -0.90893 0.82814 14.80797 0.0
C2094 C 0.25761 0.03753 14.28931 0.0
C2095 C 0.27859 0.02005 15.14613 0.0
H2096 H 0.25957 0.02301 30.60825 0.0
H2097 H 0.16122 0.04965 33.23287 0.0
H2098 H 0.11388 0.04447 32.30134 0.0
H2099 H 0.08374 0.04518 30.64336 0.0
H2100 H 0.17393 0.02485 27.97904 0.0
H2101 H 0.24248 0.01377 29.01683 0.0
C2102 C 0.2297 0.0263 30.98951 0.0
C2103 C 0.214 0.0366 31.99074 0.0
C2104 C 0.20054 0.02488 30.42941 0.0
C2105 C 0.17477 0.04121 32.47297 0.0
C2106 C 0.14701 0.03874 31.93148 0.0
C2107 C 0.12025 0.03681 30.29549 0.0
C2108 C 0.12387 0.03574 29.23423 0.0
C2109 C 0.15715 0.03235 30.89507 0.0
C2110 C 0.17072 0.02533 28.79052 0.0
C2111 C 0.20922 0.01961 29.3859 0.0
H2112 H -1.10271 0.8034 43.21903 0.0
H2113 H -0.96312 0.7809 42.32277 0.0
H2114 H -0.98065 0.80772 43.77507 0.0
H2115 H 0.25372 -0.00244 45.42628 0.0
H2116 H 0.11583 0.01847 46.29277 0.0
H2117 H 0.1251 -0.00208 44.73669 0.0
C2118 C -1.0769 0.80494 43.32679 0.0
C2119 C -1.03157 0.79011 42.66247 0.0
C2120 C -1.0865 0.8198 44.17207 0.0
C2121 C -0.99865 0.79236 42.81342 0.0
C2122 C -1.00827 0.80739 43.65305 0.0
C2123 C 0.22506 -0.00193 45.26476 0.0
C2124 C 0.18362 0.00989 45.98369 0.0
C2125 C -1.05089 0.82035 44.35737 0.0
C2126 C 0.14731 0.01011 45.76072 0.0
C2127 C 0.15292 -0.00191 44.86674 0.0
H2128 H -1.00989 0.77347 3.34421 0.0
H2129 H -0.86078 0.70995 5.2335 0.0
H2130 H -0.80742 0.70672 4.02995 0.0
H2131 H -0.79902 0.71489 2.29828 0.0
H2132 H -0.91973 0.76357 56.17657 0.0
H2133 H -0.97779 0.77426 57.52631 0.0
C2134 C -0.96659 0.76015 3.51469 0.0
C2135 C -0.93929 0.74228 4.37792 0.0
C2136 C -0.9357 0.75733 2.79438 0.0
C2137 C -0.88288 0.72445 4.58567 0.0
C2138 C -0.85208 0.72209 3.88493 0.0
C2139 C -0.84426 0.73098 2.18129 0.0
C2140 C -0.84102 0.73097 57.03075 0.0
C2141 C -0.87725 0.73717 2.96262 0.0
C2142 C -0.89982 0.75243 56.89366 0.0
C2143 C -0.93294 0.7586 57.66525 0.0
H2144 H -0.49947 0.77958 44.78557 0.0
H2145 H -0.64122 0.82045 46.60645 0.0
H2146 H 0.57449 0.02155 45.26354 0.0
H2147 H 0.55912 0.03458 43.46351 0.0
H2148 H 0.70156 -0.00757 41.61891 0.0
H2149 H -0.51624 0.79786 43.07085 0.0
C2150 C -0.54512 0.79737 44.90817 0.0
C2151 C -0.56553 0.79768 45.79981 0.0
C2152 C -0.58244 0.81653 44.10809 0.0
C2153 C -0.62456 0.82025 45.94091 0.0
C2154 C 0.61967 0.00557 45.15958 0.0
C2155 C 0.60424 0.01906 43.38021 0.0
C2156 C 0.626 0.01495 42.42747 0.0
C2157 C 0.6406 0.00277 44.22141 0.0
C2158 C 0.68409 -0.00445 42.33885 0.0
C2159 C -0.56134 0.81359 43.17024 0.0
H2160 H -0.3267 0.70067 27.66585 0.0
H2161 H -0.50165 0.77566 28.59368 0.0
H2162 H -0.47177 0.77942 30.13246 0.0
H2163 H -0.39329 0.75689 31.31492 0.0
H2164 H -0.21921 0.68089 30.33006 0.0
H2165 H -0.25117 0.68216 28.71979 0.0
C2166 C -0.35843 0.71827 28.19418 0.0
C2167 C -0.41612 0.7378 28.01853 0.0
C2168 C -0.34087 0.71984 29.07828 0.0
C2169 C -0.4569 0.76053 28.70756 0.0
C2170 C -0.43971 0.76245 29.59312 0.0
C2171 C -0.36272 0.74106 30.73806 0.0
C2172 C -0.30393 0.71851 30.94889 0.0
C2173 C -0.3815 0.74162 29.80315 0.0
C2174 C -0.26465 0.69811 30.19485 0.0
C2175 C -0.28281 0.69882 29.27045 0.0
H2176 H 0.88054 0.00171 18.40477 0.0
H2177 H 0.72426 0.03937 17.50403 0.0
H2178 H 0.7733 0.00441 16.11645 0.0
H2179 H -0.42489 0.80419 14.96091 0.0
H2180 H -0.27156 0.77006 15.84993 0.0
H2181 H -0.31503 0.7965 17.42764 0.0
C2182 C 0.85808 0.00106 17.94064 0.0
C2183 C 0.79925 0.02256 18.07484 0.0
C2184 C -0.39605 0.81655 17.11186 0.0
C2185 C 0.77002 0.02235 17.43922 0.0
C2186 C 0.79787 0.00279 16.62845 0.0
C2187 C -0.40077 0.80204 15.51304 0.0
C2188 C -0.34534 0.78553 15.27872 0.0
C2189 C -0.42673 0.81803 16.42463 0.0
C2190 C -0.31462 0.78302 16.0017 0.0
C2191 C -0.33938 0.79809 16.90886 0.0
H2192 H 0.7878 0.01941 56.821 0.0
H2193 H 0.67386 0.05715 54.31447 0.0
H2194 H 0.61836 0.05827 55.32276 0.0
H2195 H 0.59036 0.05942 57.01461 0.0
H2196 H 0.67046 0.04061 3.77327 0.0
H2197 H 0.74091 0.02599 2.6546 0.0
C2198 C 0.75234 0.02658 56.48076 0.0
C2199 C 0.73515 0.03803 55.48939 0.0
C2200 C 0.71895 0.02868 57.08626 0.0
C2201 C 0.68872 0.04767 55.06305 0.0
C2202 C 0.65634 0.04884 55.64959 0.0
C2203 C 0.6305 0.04801 57.31995 0.0
C2204 C 0.61138 0.05786 2.57941 0.0
C2205 C 0.66929 0.04097 56.67607 0.0
C2206 C 0.66308 0.04339 2.96826 0.0
C2207 C 0.70289 0.03547 2.32745 0.0
H2208 H 0.10365 0.46286 43.88814 0.0
H2209 H 0.17314 0.41218 41.16459 0.0
H2210 H 0.24125 0.36701 42.16708 0.0
H2211 H 0.28873 0.34222 43.78488 0.0
H2212 H 0.22387 0.39245 46.50022 0.0
H2213 H 0.14467 0.43785 45.5346 0.0
C2214 C 0.13321 0.44195 43.51164 0.0
C2215 C 0.13388 0.44085 42.4484 0.0
C2216 C 0.17278 0.41615 44.09284 0.0
C2217 C 0.17181 0.41364 41.9772 0.0
C2218 C 0.21085 0.38785 42.55137 0.0
C2219 C 0.25646 0.36311 44.17045 0.0
C2220 C 0.26219 0.36411 45.21184 0.0
C2221 C 0.21279 0.38888 43.60488 0.0
C2222 C 0.22006 0.39115 45.70378 0.0
C2223 C 0.17534 0.41705 45.1475 0.0
H2224 H -0.00426 0.53165 1.97725 0.0
H2225 H 0.06528 0.46214 3.90781 0.0
H2226 H 0.03277 0.45206 2.72917 0.0
H2227 H 0.00089 0.45406 57.07434 0.0
H2228 H -0.06943 0.52366 55.14794 0.0
H2229 H -0.02291 0.52819 56.16641 0.0
C2230 C 0.00409 0.51415 2.1345 0.0
C2231 C 0.03159 0.49809 3.03957 0.0
C2232 C 0.01399 0.49449 57.23847 0.0
C2233 C 0.0436 0.47499 3.22269 0.0
C2234 C 0.02514 0.4692 2.5478 0.0
C2235 C -0.00184 0.46922 56.85034 0.0
C2236 C -0.03688 0.48822 56.02985 0.0
C2237 C 0.02306 0.47242 57.46383 0.0
C2238 C -0.04144 0.50829 55.75875 0.0
C2239 C -0.01592 0.51132 56.35644 0.0
H2240 H -0.03406 0.45703 16.39214 0.0
H2241 H -0.04112 0.41408 18.37825 0.0
H2242 H 0.01976 0.37228 17.23078 0.0
H2243 H 0.06041 0.3524 15.53008 0.0
H2244 H 0.06665 0.39567 13.53442 0.0
H2245 H 0.0203 0.43314 14.81341 0.0
C2246 C -0.01981 0.43782 16.59607 0.0
C2247 C -0.04116 0.43835 17.4764 0.0
C2248 C 0.01317 0.41453 15.91201 0.0
C2249 C -0.02389 0.41379 17.72151 0.0
C2250 C 0.00982 0.39021 17.05237 0.0
C2251 C 0.05205 0.36992 15.37987 0.0
C2252 C 0.06558 0.37178 14.43081 0.0
C2253 C 0.02613 0.39108 16.12372 0.0
C2254 C 0.056 0.39404 14.2541 0.0
C2255 C 0.02961 0.4154 14.98588 0.0
H2256 H 0.31066 0.34645 30.10079 0.0
H2257 H 0.24437 0.34825 27.41549 0.0
H2258 H 0.17397 0.3604 28.4274 0.0
H2259 H 0.14674 0.3596 30.0966 0.0
H2260 H 0.21902 0.35368 32.77689 0.0
H2261 H 0.26998 0.35523 31.75369 0.0
C2262 C 0.2795 0.35047 29.73268 0.0
C2263 C 0.28294 0.3463 28.68227 0.0
C2264 C 0.24027 0.35668 30.32458 0.0
C2265 C 0.24238 0.35157 28.21699 0.0
C2266 C 0.20251 0.35823 28.79968 0.0
C2267 C 0.17109 0.36038 30.45869 0.0
C2268 C 0.17829 0.35702 31.51595 0.0
C2269 C 0.20288 0.3595 29.8575 0.0
C2270 C 0.21137 0.3571 31.97261 0.0
C2271 C 0.24164 0.35726 31.3823 0.0
H2272 H -0.48849 0.39954 14.2034 0.0
H2273 H -0.46096 0.44352 15.06544 0.0
H2274 H -0.40229 0.40997 16.49578 0.0
H2275 H -0.37767 0.37536 17.71053 0.0
H2276 H -0.41891 0.33729 16.89562 0.0
H2277 H -0.45251 0.36071 15.2594 0.0
C2278 C -0.46671 0.4006 14.66976 0.0
C2279 C -0.47808 0.42357 14.5153 0.0
C2280 C -0.43714 0.38282 15.53409 0.0
C2281 C -0.45146 0.42545 15.14923 0.0
C2282 C -0.41915 0.40672 15.98557 0.0
C2283 C -0.39277 0.37173 17.16345 0.0
C2284 C -0.39609 0.35472 17.43276 0.0
C2285 C -0.4146 0.38645 16.22109 0.0
C2286 C -0.41614 0.35037 16.71582 0.0
C2287 C -0.43547 0.3638 15.77447 0.0
H2288 H -0.30661 0.37497 3.49382 0.0
H2289 H -0.15921 0.28445 4.34775 0.0
H2290 H -0.15604 0.26927 2.68905 0.0
H2291 H -0.17341 0.26791 56.86062 0.0
H2292 H -0.32931 0.35846 56.05892 0.0
H2293 H -0.32401 0.37383 57.61918 0.0
C2294 C -0.27318 0.35197 3.30313 0.0
C2295 C -0.23029 0.33066 4.01717 0.0
C2296 C -0.27429 0.34352 2.36286 0.0
C2297 C -0.18893 0.30102 3.78028 0.0
C2298 C -0.18845 0.29243 2.84065 0.0
C2299 C -0.20598 0.29107 57.01634 0.0
C2300 C -0.2517 0.31196 56.33708 0.0
C2301 C -0.23145 0.31346 2.13231 0.0
C2302 C -0.2935 0.34184 56.56266 0.0
C2303 C -0.2906 0.35066 57.45861 0.0
H2304 H -0.31763 0.41608 45.1731 0.0
H2305 H -0.27526 0.45406 44.44781 0.0
H2306 H -0.24518 0.43289 42.78057 0.0
H2307 H -0.21631 0.3975 41.62539 0.0
H2308 H -0.24583 0.35395 42.38564 0.0
H2309 H -0.298 0.38424 43.89312 0.0
C2310 C -0.30223 0.41985 44.6458 0.0
C2311 C -0.29741 0.43606 44.95277 0.0
C2312 C -0.28351 0.40694 43.67729 0.0
C2313 C -0.27796 0.441 44.25126 0.0
C2314 C -0.26122 0.42914 43.28774 0.0
C2315 C -0.23701 0.39582 42.09078 0.0
C2316 C -0.22797 0.37382 41.87961 0.0
C2317 C -0.26217 0.41138 43.00176 0.0
C2318 C -0.25355 0.3713 42.5104 0.0
C2319 C -0.2819 0.38804 43.39238 0.0
H2320 H -0.49051 0.47381 31.82924 0.0
H2321 H -0.65375 0.5335 30.37163 0.0
H2322 H -0.61383 0.52734 28.77929 0.0
H2323 H -0.53852 0.51295 27.89436 0.0
H2324 H -0.37721 0.45685 29.34885 0.0
H2325 H -0.40887 0.45259 30.82422 0.0
C2326 C -0.51662 0.48469 31.15426 0.0
C2327 C -0.57511 0.50428 31.21858 0.0
C2328 C -0.49353 0.48166 30.23599 0.0
C2329 C -0.60875 0.51853 30.34183 0.0
C2330 C -0.58596 0.51502 29.42953 0.0
C2331 C -0.5092 0.49844 28.51129 0.0
C2332 C -0.45518 0.48471 28.50257 0.0
C2333 C -0.5291 0.49763 29.37693 0.0
C2334 C -0.41832 0.46687 29.32332 0.0
C2335 C -0.43705 0.46504 30.17848 0.0
loop_
_geom_bond_atom_site_label_1
_geom_bond_atom_site_label_2
_geom_bond_distance
_geom_bond_site_symmetry_2
_ccdc_geom_bond_type
C0 C1 1.351 . S
C0 N3 1.368 . S
C0 H5 0.931 . S
C1 C0 1.351 . S
C1 N2 1.373 . S
C1 H29 0.930 . S
N2 C1 1.373 . S
N2 C4 1.340 . S
N3 C0 1.368 . S
N3 C4 1.321 . S
N3 Co6 2.135 . S
C4 N2 1.340 . S
C4 N3 1.321 . S
C4 H28 0.930 . S
H5 C0 0.931 . S
Co6 N3 2.135 . S
Co6 N9 2.121 . S
Co6 O14 2.055 . S
Co6 O17 2.039 . S
Co6 N20 2.140 . S
C7 O8 1.227 . S
C7 O17 1.265 . S
O8 C7 1.227 . S
N9 Co6 2.121 . S
N9 C11 1.375 . S
N9 C12 1.313 . S
C10 C11 1.338 . S
C10 N13 1.377 . S
C10 H30 0.930 . S
C11 N9 1.375 . S
C11 C10 1.338 . S
C11 H15 0.931 . S
C12 N9 1.313 . S
C12 N13 1.344 . S
C12 H16 0.930 . S
N13 C10 1.377 . S
N13 C12 1.344 . S
O14 Co6 2.055 . S
O14 C18 1.253 . S
H15 C11 0.931 . S
H16 C12 0.930 . S
O17 Co6 2.039 . S
O17 C7 1.265 . S
C18 O14 1.253 . S
C18 O19 1.227 . S
O19 C18 1.227 . S
N20 Co6 2.140 . S
N20 C23 1.346 . S
N20 C24 1.345 . S
C21 C22 1.387 . S
C21 C25 1.391 . S
C22 C21 1.387 . S
C22 C23 1.369 . S
C22 H31 0.929 . S
C23 N20 1.346 . S
C23 C22 1.369 . S
C23 H26 0.928 . S
C24 N20 1.345 . S
C24 C25 1.371 . S
C24 H27 0.931 . S
C25 C21 1.391 . S
C25 C24 1.371 . S
C25 H32 0.930 . S
H26 C23 0.928 . S
H27 C24 0.931 . S
H28 C4 0.930 . S
H29 C1 0.930 . S
H30 C10 0.930 . S
H31 C22 0.929 . S
H32 C25 0.930 . S
C33 C34 1.351 . S
C33 N36 1.368 . S
C33 H38 0.931 . S
C34 C33 1.351 . S
C34 N35 1.373 . S
C34 H62 0.930 . S
N35 C34 1.373 . S
N35 C37 1.340 . S
N36 C33 1.368 . S
N36 C37 1.321 . S
N36 Co39 2.135 . S
C37 N35 1.340 . S
C37 N36 1.321 . S
C37 H61 0.930 . S
H38 C33 0.931 . S
Co39 N36 2.135 . S
Co39 N42 2.121 . S
Co39 O47 2.055 . S
Co39 O50 2.039 . S
Co39 N53 2.140 . S
C40 O41 1.227 . S
C40 O50 1.265 . S
O41 C40 1.227 . S
N42 Co39 2.121 . S
N42 C44 1.375 . S
N42 C45 1.313 . S
C43 C44 1.338 . S
C43 N46 1.377 . S
C43 H63 0.930 . S
C44 N42 1.375 . S
C44 C43 1.338 . S
C44 H48 0.931 . S
C45 N42 1.313 . S
C45 N46 1.344 . S
C45 H49 0.930 . S
N46 C43 1.377 . S
N46 C45 1.344 . S
O47 Co39 2.055 . S
O47 C51 1.253 . S
H48 C44 0.931 . S
H49 C45 0.930 . S
O50 Co39 2.039 . S
O50 C40 1.265 . S
C51 O47 1.253 . S
C51 O52 1.227 . S
O52 C51 1.227 . S
N53 Co39 2.140 . S
N53 C56 1.346 . S
N53 C57 1.345 . S
C54 C55 1.387 . S
C54 C58 1.391 . S
C55 C54 1.387 . S
C55 C56 1.369 . S
C55 H64 0.929 . S
C56 N53 1.346 . S
C56 C55 1.369 . S
C56 H59 0.928 . S
C57 N53 1.345 . S
C57 C58 1.371 . S
C57 H60 0.931 . S
C58 C54 1.391 . S
C58 C57 1.371 . S
C58 H65 0.930 . S
H59 C56 0.928 . S
H60 C57 0.931 . S
H61 C37 0.930 . S
H62 C34 0.930 . S
H63 C43 0.930 . S
H64 C55 0.929 . S
H65 C58 0.930 . S
C66 C67 1.351 . S
C66 N69 1.368 . S
C66 H71 0.931 . S
C67 C66 1.351 . S
C67 N68 1.373 . S
C67 H95 0.930 . S
N68 C67 1.373 . S
N68 C70 1.340 . S
N69 C66 1.368 . S
N69 C70 1.321 . S
N69 Co72 2.135 . S
C70 N68 1.340 . S
C70 N69 1.321 . S
C70 H94 0.930 . S
H71 C66 0.931 . S
Co72 N69 2.135 . S
Co72 N75 2.121 . S
Co72 O80 2.055 . S
Co72 O83 2.039 . S
Co72 N86 2.140 . S
C73 O74 1.227 . S
C73 O83 1.265 . S
O74 C73 1.227 . S
N75 Co72 2.121 . S
N75 C77 1.375 . S
N75 C78 1.313 . S
C76 C77 1.338 . S
C76 N79 1.377 . S
C76 H96 0.930 . S
C77 N75 1.375 . S
C77 C76 1.338 . S
C77 H81 0.931 . S
C78 N75 1.313 . S
C78 N79 1.344 . S
C78 H82 0.930 . S
N79 C76 1.377 . S
N79 C78 1.344 . S
O80 Co72 2.055 . S
O80 C84 1.253 . S
H81 C77 0.931 . S
H82 C78 0.930 . S
O83 Co72 2.039 . S
O83 C73 1.265 . S
C84 O80 1.253 . S
C84 O85 1.227 . S
O85 C84 1.227 . S
N86 Co72 2.140 . S
N86 C89 1.346 . S
N86 C90 1.345 . S
C87 C88 1.387 . S
C87 C91 1.391 . S
C88 C87 1.387 . S
C88 C89 1.369 . S
C88 H97 0.929 . S
C89 N86 1.346 . S
C89 C88 1.369 . S
C89 H92 0.928 . S
C90 N86 1.345 . S
C90 C91 1.371 . S
C90 H93 0.931 . S
C91 C87 1.391 . S
C91 C90 1.371 . S
C91 H98 0.930 . S
H92 C89 0.928 . S
H93 C90 0.931 . S
H94 C70 0.930 . S
H95 C67 0.930 . S
H96 C76 0.930 . S
H97 C88 0.929 . S
H98 C91 0.930 . S
C99 C100 1.351 . S
C99 N102 1.368 . S
C99 H104 0.931 . S
C100 C99 1.351 . S
C100 N101 1.373 . S
C100 H128 0.930 . S
N101 C100 1.373 . S
N101 C103 1.340 . S
N102 C99 1.368 . S
N102 C103 1.321 . S
N102 Co105 2.135 . S
C103 N101 1.340 . S
C103 N102 1.321 . S
C103 H127 0.930 . S
H104 C99 0.931 . S
Co105 N102 2.135 . S
Co105 N108 2.121 . S
Co105 O113 2.055 . S
Co105 O116 2.039 . S
Co105 N119 2.140 . S
C106 O107 1.227 . S
C106 O116 1.265 . S
O107 C106 1.227 . S
N108 Co105 2.121 . S
N108 C110 1.375 . S
N108 C111 1.313 . S
C109 C110 1.338 . S
C109 N112 1.377 . S
C109 H129 0.930 . S
C110 N108 1.375 . S
C110 C109 1.338 . S
C110 H114 0.931 . S
C111 N108 1.313 . S
C111 N112 1.344 . S
C111 H115 0.930 . S
N112 C109 1.377 . S
N112 C111 1.344 . S
O113 Co105 2.055 . S
O113 C117 1.253 . S
H114 C110 0.931 . S
H115 C111 0.930 . S
O116 Co105 2.039 . S
O116 C106 1.265 . S
C117 O113 1.253 . S
C117 O118 1.227 . S
O118 C117 1.227 . S
N119 Co105 2.140 . S
N119 C122 1.346 . S
N119 C123 1.345 . S
C120 C121 1.387 . S
C120 C124 1.391 . S
C121 C120 1.387 . S
C121 C122 1.369 . S
C121 H130 0.929 . S
C122 N119 1.346 . S
C122 C121 1.369 . S
C122 H125 0.928 . S
C123 N119 1.345 . S
C123 C124 1.371 . S
C123 H126 0.931 . S
C124 C120 1.391 . S
C124 C123 1.371 . S
C124 H131 0.930 . S
H125 C122 0.928 . S
H126 C123 0.931 . S
H127 C103 0.930 . S
H128 C100 0.930 . S
H129 C109 0.930 . S
H130 C121 0.929 . S
H131 C124 0.930 . S
C132 C133 1.351 . S
C132 N135 1.368 . S
C132 H137 0.931 . S
C133 C132 1.351 . S
C133 N134 1.373 . S
C133 H161 0.930 . S
N134 C133 1.373 . S
N134 C136 1.340 . S
N135 C132 1.368 . S
N135 C136 1.321 . S
N135 Co138 2.135 . S
C136 N134 1.340 . S
C136 N135 1.321 . S
C136 H160 0.930 . S
H137 C132 0.931 . S
Co138 N135 2.135 . S
Co138 N141 2.121 . S
Co138 O146 2.055 . S
Co138 O149 2.039 . S
Co138 N152 2.140 . S
C139 O140 1.227 . S
C139 O149 1.265 . S
O140 C139 1.227 . S
N141 Co138 2.121 . S
N141 C143 1.375 . S
N141 C144 1.313 . S
C142 C143 1.338 . S
C142 N145 1.377 . S
C142 H162 0.930 . S
C143 N141 1.375 . S
C143 C142 1.338 . S
C143 H147 0.931 . S
C144 N141 1.313 . S
C144 N145 1.344 . S
C144 H148 0.930 . S
N145 C142 1.377 . S
N145 C144 1.344 . S
O146 Co138 2.055 . S
O146 C150 1.253 . S
H147 C143 0.931 . S
H148 C144 0.930 . S
O149 Co138 2.039 . S
O149 C139 1.265 . S
C150 O146 1.253 . S
C150 O151 1.227 . S
O151 C150 1.227 . S
N152 Co138 2.140 . S
N152 C155 1.346 . S
N152 C156 1.345 . S
C153 C154 1.387 . S
C153 C157 1.391 . S
C154 C153 1.387 . S
C154 C155 1.369 . S
C154 H163 0.929 . S
C155 N152 1.346 . S
C155 C154 1.369 . S
C155 H158 0.928 . S
C156 N152 1.345 . S
C156 C157 1.371 . S
C156 H159 0.931 . S
C157 C153 1.391 . S
C157 C156 1.371 . S
C157 H164 0.930 . S
H158 C155 0.928 . S
H159 C156 0.931 . S
H160 C136 0.930 . S
H161 C133 0.930 . S
H162 C142 0.930 . S
H163 C154 0.929 . S
H164 C157 0.930 . S
C165 C166 1.351 . S
C165 N168 1.368 . S
C165 H170 0.931 . S
C166 C165 1.351 . S
C166 N167 1.373 . S
C166 H194 0.930 . S
N167 C166 1.373 . S
N167 C169 1.340 . S
N168 C165 1.368 . S
N168 C169 1.321 . S
N168 Co171 2.135 . S
C169 N167 1.340 . S
C169 N168 1.321 . S
C169 H193 0.930 . S
H170 C165 0.931 . S
Co171 N168 2.135 . S
Co171 N174 2.121 . S
Co171 O179 2.055 . S
Co171 O182 2.039 . S
Co171 N185 2.140 . S
C172 O173 1.227 . S
C172 O182 1.265 . S
O173 C172 1.227 . S
N174 Co171 2.121 . S
N174 C176 1.375 . S
N174 C177 1.313 . S
C175 C176 1.338 . S
C175 N178 1.377 . S
C175 H195 0.930 . S
C176 N174 1.375 . S
C176 C175 1.338 . S
C176 H180 0.931 . S
C177 N174 1.313 . S
C177 N178 1.344 . S
C177 H181 0.930 . S
N178 C175 1.377 . S
N178 C177 1.344 . S
O179 Co171 2.055 . S
O179 C183 1.253 . S
H180 C176 0.931 . S
H181 C177 0.930 . S
O182 Co171 2.039 . S
O182 C172 1.265 . S
C183 O179 1.253 . S
C183 O184 1.227 . S
O184 C183 1.227 . S
N185 Co171 2.140 . S
N185 C188 1.346 . S
N185 C189 1.345 . S
C186 C187 1.387 . S
C186 C190 1.391 . S
C187 C186 1.387 . S
C187 C188 1.369 . S
C187 H196 0.929 . S
C188 N185 1.346 . S
C188 C187 1.369 . S
C188 H191 0.928 . S
C189 N185 1.345 . S
C189 C190 1.371 . S
C189 H192 0.931 . S
C190 C186 1.391 . S
C190 C189 1.371 . S
C190 H197 0.930 . S
H191 C188 0.928 . S
H192 C189 0.931 . S
H193 C169 0.930 . S
H194 C166 0.930 . S
H195 C175 0.930 . S
H196 C187 0.929 . S
H197 C190 0.930 . S
C198 C199 1.351 . S
C198 N201 1.368 . S
C198 H203 0.931 . S
C199 C198 1.351 . S
C199 N200 1.373 . S
C199 H227 0.930 . S
N200 C199 1.373 . S
N200 C202 1.340 . S
N201 C198 1.368 . S
N201 C202 1.321 . S
N201 Co204 2.135 . S
C202 N200 1.340 . S
C202 N201 1.321 . S
C202 H226 0.930 . S
H203 C198 0.931 . S
Co204 N201 2.135 . S
Co204 N207 2.121 . S
Co204 O212 2.055 . S
Co204 O215 2.039 . S
Co204 N218 2.140 . S
C205 O206 1.227 . S
C205 O215 1.265 . S
O206 C205 1.227 . S
N207 Co204 2.121 . S
N207 C209 1.375 . S
N207 C210 1.313 . S
C208 C209 1.338 . S
C208 N211 1.377 . S
C208 H228 0.930 . S
C209 N207 1.375 . S
C209 C208 1.338 . S
C209 H213 0.931 . S
C210 N207 1.313 . S
C210 N211 1.344 . S
C210 H214 0.930 . S
N211 C208 1.377 . S
N211 C210 1.344 . S
O212 Co204 2.055 . S
O212 C216 1.253 . S
H213 C209 0.931 . S
H214 C210 0.930 . S
O215 Co204 2.039 . S
O215 C205 1.265 . S
C216 O212 1.253 . S
C216 O217 1.227 . S
O217 C216 1.227 . S
N218 Co204 2.140 . S
N218 C221 1.346 . S
N218 C222 1.345 . S
C219 C220 1.387 . S
C219 C223 1.391 . S
C220 C219 1.387 . S
C220 C221 1.369 . S
C220 H229 0.929 . S
C221 N218 1.346 . S
C221 C220 1.369 . S
C221 H224 0.928 . S
C222 N218 1.345 . S
C222 C223 1.371 . S
C222 H225 0.931 . S
C223 C219 1.391 . S
C223 C222 1.371 . S
C223 H230 0.930 . S
H224 C221 0.928 . S
H225 C222 0.931 . S
H226 C202 0.930 . S
H227 C199 0.930 . S
H228 C208 0.930 . S
H229 C220 0.929 . S
H230 C223 0.930 . S
C231 C232 1.351 . S
C231 N234 1.368 . S
C231 H236 0.931 . S
C232 C231 1.351 . S
C232 N233 1.373 . S
C232 H260 0.930 . S
N233 C232 1.373 . S
N233 C235 1.340 . S
N234 C231 1.368 . S
N234 C235 1.321 . S
N234 Co237 2.135 . S
C235 N233 1.340 . S
C235 N234 1.321 . S
C235 H259 0.930 . S
H236 C231 0.931 . S
Co237 N234 2.135 . S
Co237 N240 2.121 . S
Co237 O245 2.055 . S
Co237 O248 2.039 . S
Co237 N251 2.140 . S
C238 O239 1.227 . S
C238 O248 1.265 . S
O239 C238 1.227 . S
N240 Co237 2.121 . S
N240 C242 1.375 . S
N240 C243 1.313 . S
C241 C242 1.338 . S
C241 N244 1.377 . S
C241 H261 0.930 . S
C242 N240 1.375 . S
C242 C241 1.338 . S
C242 H246 0.931 . S
C243 N240 1.313 . S
C243 N244 1.344 . S
C243 H247 0.930 . S
N244 C241 1.377 . S
N244 C243 1.344 . S
O245 Co237 2.055 . S
O245 C249 1.253 . S
H246 C242 0.931 . S
H247 C243 0.930 . S
O248 Co237 2.039 . S
O248 C238 1.265 . S
C249 O245 1.253 . S
C249 O250 1.227 . S
O250 C249 1.227 . S
N251 Co237 2.140 . S
N251 C254 1.346 . S
N251 C255 1.345 . S
C252 C253 1.387 . S
C252 C256 1.391 . S
C253 C252 1.387 . S
C253 C254 1.369 . S
C253 H262 0.929 . S
C254 N251 1.346 . S
C254 C253 1.369 . S
C254 H257 0.928 . S
C255 N251 1.345 . S
C255 C256 1.371 . S
C255 H258 0.931 . S
C256 C252 1.391 . S
C256 C255 1.371 . S
C256 H263 0.930 . S
H257 C254 0.928 . S
H258 C255 0.931 . S
H259 C235 0.930 . S
H260 C232 0.930 . S
H261 C241 0.930 . S
H262 C253 0.929 . S
H263 C256 0.930 . S
C264 C265 1.351 . S
C264 N267 1.368 . S
C264 H269 0.931 . S
C265 C264 1.351 . S
C265 N266 1.373 . S
C265 H293 0.930 . S
N266 C265 1.373 . S
N266 C268 1.340 . S
N267 C264 1.368 . S
N267 C268 1.321 . S
N267 Co270 2.135 . S
C268 N266 1.340 . S
C268 N267 1.321 . S
C268 H292 0.930 . S
H269 C264 0.931 . S
Co270 N267 2.135 . S
Co270 N273 2.121 . S
Co270 O278 2.055 . S
Co270 O281 2.039 . S
Co270 N284 2.140 . S
C271 O272 1.227 . S
C271 O281 1.265 . S
O272 C271 1.227 . S
N273 Co270 2.121 . S
N273 C275 1.375 . S
N273 C276 1.313 . S
C274 C275 1.338 . S
C274 N277 1.377 . S
C274 H294 0.930 . S
C275 N273 1.375 . S
C275 C274 1.338 . S
C275 H279 0.931 . S
C276 N273 1.313 . S
C276 N277 1.344 . S
C276 H280 0.930 . S
N277 C274 1.377 . S
N277 C276 1.344 . S
O278 Co270 2.055 . S
O278 C282 1.253 . S
H279 C275 0.931 . S
H280 C276 0.930 . S
O281 Co270 2.039 . S
O281 C271 1.265 . S
C282 O278 1.253 . S
C282 O283 1.227 . S
O283 C282 1.227 . S
N284 Co270 2.140 . S
N284 C287 1.346 . S
N284 C288 1.345 . S
C285 C286 1.387 . S
C285 C289 1.391 . S
C286 C285 1.387 . S
C286 C287 1.369 . S
C286 H295 0.929 . S
C287 N284 1.346 . S
C287 C286 1.369 . S
C287 H290 0.928 . S
C288 N284 1.345 . S
C288 C289 1.371 . S
C288 H291 0.931 . S
C289 C285 1.391 . S
C289 C288 1.371 . S
C289 H296 0.930 . S
H290 C287 0.928 . S
H291 C288 0.931 . S
H292 C268 0.930 . S
H293 C265 0.930 . S
H294 C274 0.930 . S
H295 C286 0.929 . S
H296 C289 0.930 . S
C297 C298 1.351 . S
C297 N300 1.368 . S
C297 H302 0.931 . S
C298 C297 1.351 . S
C298 N299 1.373 . S
C298 H326 0.930 . S
N299 C298 1.373 . S
N299 C301 1.340 . S
N300 C297 1.368 . S
N300 C301 1.321 . S
N300 Co303 2.135 . S
C301 N299 1.340 . S
C301 N300 1.321 . S
C301 H325 0.930 . S
H302 C297 0.931 . S
Co303 N300 2.135 . S
Co303 N306 2.121 . S
Co303 O311 2.055 . S
Co303 O314 2.039 . S
Co303 N317 2.140 . S
C304 O305 1.227 . S
C304 O314 1.265 . S
O305 C304 1.227 . S
N306 Co303 2.121 . S
N306 C308 1.375 . S
N306 C309 1.313 . S
C307 C308 1.338 . S
C307 N310 1.377 . S
C307 H327 0.930 . S
C308 N306 1.375 . S
C308 C307 1.338 . S
C308 H312 0.931 . S
C309 N306 1.313 . S
C309 N310 1.344 . S
C309 H313 0.930 . S
N310 C307 1.377 . S
N310 C309 1.344 . S
O311 Co303 2.055 . S
O311 C315 1.253 . S
H312 C308 0.931 . S
H313 C309 0.930 . S
O314 Co303 2.039 . S
O314 C304 1.265 . S
C315 O311 1.253 . S
C315 O316 1.227 . S
O316 C315 1.227 . S
N317 Co303 2.140 . S
N317 C320 1.346 . S
N317 C321 1.345 . S
C318 C319 1.387 . S
C318 C322 1.391 . S
C319 C318 1.387 . S
C319 C320 1.369 . S
C319 H328 0.929 . S
C320 N317 1.346 . S
C320 C319 1.369 . S
C320 H323 0.928 . S
C321 N317 1.345 . S
C321 C322 1.371 . S
C321 H324 0.931 . S
C322 C318 1.391 . S
C322 C321 1.371 . S
C322 H329 0.930 . S
H323 C320 0.928 . S
H324 C321 0.931 . S
H325 C301 0.930 . S
H326 C298 0.930 . S
H327 C307 0.930 . S
H328 C319 0.929 . S
H329 C322 0.930 . S
C330 C331 1.351 . S
C330 N333 1.368 . S
C330 H335 0.931 . S
C331 C330 1.351 . S
C331 N332 1.373 . S
C331 H359 0.930 . S
N332 C331 1.373 . S
N332 C334 1.340 . S
N333 C330 1.368 . S
N333 C334 1.321 . S
N333 Co336 2.135 . S
C334 N332 1.340 . S
C334 N333 1.321 . S
C334 H358 0.930 . S
H335 C330 0.931 . S
Co336 N333 2.135 . S
Co336 N339 2.121 . S
Co336 O344 2.055 . S
Co336 O347 2.039 . S
Co336 N350 2.140 . S
C337 O338 1.227 . S
C337 O347 1.265 . S
O338 C337 1.227 . S
N339 Co336 2.121 . S
N339 C341 1.375 . S
N339 C342 1.313 . S
C340 C341 1.338 . S
C340 N343 1.377 . S
C340 H360 0.930 . S
C341 N339 1.375 . S
C341 C340 1.338 . S
C341 H345 0.931 . S
C342 N339 1.313 . S
C342 N343 1.344 . S
C342 H346 0.930 . S
N343 C340 1.377 . S
N343 C342 1.344 . S
O344 Co336 2.055 . S
O344 C348 1.253 . S
H345 C341 0.931 . S
H346 C342 0.930 . S
O347 Co336 2.039 . S
O347 C337 1.265 . S
C348 O344 1.253 . S
C348 O349 1.227 . S
O349 C348 1.227 . S
N350 Co336 2.140 . S
N350 C353 1.346 . S
N350 C354 1.345 . S
C351 C352 1.387 . S
C351 C355 1.391 . S
C352 C351 1.387 . S
C352 C353 1.369 . S
C352 H361 0.929 . S
C353 N350 1.346 . S
C353 C352 1.369 . S
C353 H356 0.928 . S
C354 N350 1.345 . S
C354 C355 1.371 . S
C354 H357 0.931 . S
C355 C351 1.391 . S
C355 C354 1.371 . S
C355 H362 0.930 . S
H356 C353 0.928 . S
H357 C354 0.931 . S
H358 C334 0.930 . S
H359 C331 0.930 . S
H360 C340 0.930 . S
H361 C352 0.929 . S
H362 C355 0.930 . S
C363 C364 1.351 . S
C363 N366 1.368 . S
C363 H368 0.931 . S
C364 C363 1.351 . S
C364 N365 1.373 . S
C364 H392 0.930 . S
N365 C364 1.373 . S
N365 C367 1.340 . S
N366 C363 1.368 . S
N366 C367 1.321 . S
N366 Co369 2.135 . S
C367 N365 1.340 . S
C367 N366 1.321 . S
C367 H391 0.930 . S
H368 C363 0.931 . S
Co369 N366 2.135 . S
Co369 N372 2.121 . S
Co369 O377 2.055 . S
Co369 O380 2.039 . S
Co369 N383 2.140 . S
C370 O371 1.227 . S
C370 O380 1.265 . S
O371 C370 1.227 . S
N372 Co369 2.121 . S
N372 C374 1.375 . S
N372 C375 1.313 . S
C373 C374 1.338 . S
C373 N376 1.377 . S
C373 H393 0.930 . S
C374 N372 1.375 . S
C374 C373 1.338 . S
C374 H378 0.931 . S
C375 N372 1.313 . S
C375 N376 1.344 . S
C375 H379 0.930 . S
N376 C373 1.377 . S
N376 C375 1.344 . S
O377 Co369 2.055 . S
O377 C381 1.253 . S
H378 C374 0.931 . S
H379 C375 0.930 . S
O380 Co369 2.039 . S
O380 C370 1.265 . S
C381 O377 1.253 . S
C381 O382 1.227 . S
O382 C381 1.227 . S
N383 Co369 2.140 . S
N383 C386 1.346 . S
N383 C387 1.345 . S
C384 C385 1.387 . S
C384 C388 1.391 . S
C385 C384 1.387 . S
C385 C386 1.369 . S
C385 H394 0.929 . S
C386 N383 1.346 . S
C386 C385 1.369 . S
C386 H389 0.928 . S
C387 N383 1.345 . S
C387 C388 1.371 . S
C387 H390 0.931 . S
C388 C384 1.391 . S
C388 C387 1.371 . S
C388 H395 0.930 . S
H389 C386 0.928 . S
H390 C387 0.931 . S
H391 C367 0.930 . S
H392 C364 0.930 . S
H393 C373 0.930 . S
H394 C385 0.929 . S
H395 C388 0.930 . S
C396 C397 1.351 . S
C396 N399 1.368 . S
C396 H401 0.931 . S
C397 C396 1.351 . S
C397 N398 1.373 . S
C397 H425 0.930 . S
N398 C397 1.373 . S
N398 C400 1.340 . S
N399 C396 1.368 . S
N399 C400 1.321 . S
N399 Co402 2.135 . S
C400 N398 1.340 . S
C400 N399 1.321 . S
C400 H424 0.930 . S
H401 C396 0.931 . S
Co402 N399 2.135 . S
Co402 N405 2.121 . S
Co402 O410 2.055 . S
Co402 O413 2.039 . S
Co402 N416 2.140 . S
C403 O404 1.227 . S
C403 O413 1.265 . S
O404 C403 1.227 . S
N405 Co402 2.121 . S
N405 C407 1.375 . S
N405 C408 1.313 . S
C406 C407 1.338 . S
C406 N409 1.377 . S
C406 H426 0.930 . S
C407 N405 1.375 . S
C407 C406 1.338 . S
C407 H411 0.931 . S
C408 N405 1.313 . S
C408 N409 1.344 . S
C408 H412 0.930 . S
N409 C406 1.377 . S
N409 C408 1.344 . S
O410 Co402 2.055 . S
O410 C414 1.253 . S
H411 C407 0.931 . S
H412 C408 0.930 . S
O413 Co402 2.039 . S
O413 C403 1.265 . S
C414 O410 1.253 . S
C414 O415 1.227 . S
O415 C414 1.227 . S
N416 Co402 2.140 . S
N416 C419 1.346 . S
N416 C420 1.345 . S
C417 C418 1.387 . S
C417 C421 1.391 . S
C418 C417 1.387 . S
C418 C419 1.369 . S
C418 H427 0.929 . S
C419 N416 1.346 . S
C419 C418 1.369 . S
C419 H422 0.928 . S
C420 N416 1.345 . S
C420 C421 1.371 . S
C420 H423 0.931 . S
C421 C417 1.391 . S
C421 C420 1.371 . S
C421 H428 0.930 . S
H422 C419 0.928 . S
H423 C420 0.931 . S
H424 C400 0.930 . S
H425 C397 0.930 . S
H426 C406 0.930 . S
H427 C418 0.929 . S
H428 C421 0.930 . S
C429 C430 1.351 . S
C429 N432 1.368 . S
C429 H434 0.931 . S
C430 C429 1.351 . S
C430 N431 1.373 . S
C430 H458 0.930 . S
N431 C430 1.373 . S
N431 C433 1.340 . S
N432 C429 1.368 . S
N432 C433 1.321 . S
N432 Co435 2.135 . S
C433 N431 1.340 . S
C433 N432 1.321 . S
C433 H457 0.930 . S
H434 C429 0.931 . S
Co435 N432 2.135 . S
Co435 N438 2.121 . S
Co435 O443 2.055 . S
Co435 O446 2.039 . S
Co435 N449 2.140 . S
C436 O437 1.227 . S
C436 O446 1.265 . S
O437 C436 1.227 . S
N438 Co435 2.121 . S
N438 C440 1.375 . S
N438 C441 1.313 . S
C439 C440 1.338 . S
C439 N442 1.377 . S
C439 H459 0.930 . S
C440 N438 1.375 . S
C440 C439 1.338 . S
C440 H444 0.931 . S
C441 N438 1.313 . S
C441 N442 1.344 . S
C441 H445 0.930 . S
N442 C439 1.377 . S
N442 C441 1.344 . S
O443 Co435 2.055 . S
O443 C447 1.253 . S
H444 C440 0.931 . S
H445 C441 0.930 . S
O446 Co435 2.039 . S
O446 C436 1.265 . S
C447 O443 1.253 . S
C447 O448 1.227 . S
O448 C447 1.227 . S
N449 Co435 2.140 . S
N449 C452 1.346 . S
N449 C453 1.345 . S
C450 C451 1.387 . S
C450 C454 1.391 . S
C451 C450 1.387 . S
C451 C452 1.369 . S
C451 H460 0.929 . S
C452 N449 1.346 . S
C452 C451 1.369 . S
C452 H455 0.928 . S
C453 N449 1.345 . S
C453 C454 1.371 . S
C453 H456 0.931 . S
C454 C450 1.391 . S
C454 C453 1.371 . S
C454 H461 0.930 . S
H455 C452 0.928 . S
H456 C453 0.931 . S
H457 C433 0.930 . S
H458 C430 0.930 . S
H459 C439 0.930 . S
H460 C451 0.929 . S
H461 C454 0.930 . S
C462 C463 1.351 . S
C462 N465 1.368 . S
C462 H467 0.931 . S
C463 C462 1.351 . S
C463 N464 1.373 . S
C463 H491 0.930 . S
N464 C463 1.373 . S
N464 C466 1.340 . S
N465 C462 1.368 . S
N465 C466 1.321 . S
N465 Co468 2.135 . S
C466 N464 1.340 . S
C466 N465 1.321 . S
C466 H490 0.930 . S
H467 C462 0.931 . S
Co468 N465 2.135 . S
Co468 N471 2.121 . S
Co468 O476 2.055 . S
Co468 O479 2.039 . S
Co468 N482 2.140 . S
C469 O470 1.227 . S
C469 O479 1.265 . S
O470 C469 1.227 . S
N471 Co468 2.121 . S
N471 C473 1.375 . S
N471 C474 1.313 . S
C472 C473 1.338 . S
C472 N475 1.377 . S
C472 H492 0.930 . S
C473 N471 1.375 . S
C473 C472 1.338 . S
C473 H477 0.931 . S
C474 N471 1.313 . S
C474 N475 1.344 . S
C474 H478 0.930 . S
N475 C472 1.377 . S
N475 C474 1.344 . S
O476 Co468 2.055 . S
O476 C480 1.253 . S
H477 C473 0.931 . S
H478 C474 0.930 . S
O479 Co468 2.039 . S
O479 C469 1.265 . S
C480 O476 1.253 . S
C480 O481 1.227 . S
O481 C480 1.227 . S
N482 Co468 2.140 . S
N482 C485 1.346 . S
N482 C486 1.345 . S
C483 C484 1.387 . S
C483 C487 1.391 . S
C484 C483 1.387 . S
C484 C485 1.369 . S
C484 H493 0.929 . S
C485 N482 1.346 . S
C485 C484 1.369 . S
C485 H488 0.928 . S
C486 N482 1.345 . S
C486 C487 1.371 . S
C486 H489 0.931 . S
C487 C483 1.391 . S
C487 C486 1.371 . S
C487 H494 0.930 . S
H488 C485 0.928 . S
H489 C486 0.931 . S
H490 C466 0.930 . S
H491 C463 0.930 . S
H492 C472 0.930 . S
H493 C484 0.929 . S
H494 C487 0.930 . S
C495 C496 1.351 . S
C495 N498 1.368 . S
C495 H500 0.931 . S
C496 C495 1.351 . S
C496 N497 1.373 . S
C496 H524 0.930 . S
N497 C496 1.373 . S
N497 C499 1.340 . S
N498 C495 1.368 . S
N498 C499 1.321 . S
N498 Co501 2.135 . S
C499 N497 1.340 . S
C499 N498 1.321 . S
C499 H523 0.930 . S
H500 C495 0.931 . S
Co501 N498 2.135 . S
Co501 N504 2.121 . S
Co501 O509 2.055 . S
Co501 O512 2.039 . S
Co501 N515 2.140 . S
C502 O503 1.227 . S
C502 O512 1.265 . S
O503 C502 1.227 . S
N504 Co501 2.121 . S
N504 C506 1.375 . S
N504 C507 1.313 . S
C505 C506 1.338 . S
C505 N508 1.377 . S
C505 H525 0.930 . S
C506 N504 1.375 . S
C506 C505 1.338 . S
C506 H510 0.931 . S
C507 N504 1.313 . S
C507 N508 1.344 . S
C507 H511 0.930 . S
N508 C505 1.377 . S
N508 C507 1.344 . S
O509 Co501 2.055 . S
O509 C513 1.253 . S
H510 C506 0.931 . S
H511 C507 0.930 . S
O512 Co501 2.039 . S
O512 C502 1.265 . S
C513 O509 1.253 . S
C513 O514 1.227 . S
O514 C513 1.227 . S
N515 Co501 2.140 . S
N515 C518 1.346 . S
N515 C519 1.345 . S
C516 C517 1.387 . S
C516 C520 1.391 . S
C517 C516 1.387 . S
C517 C518 1.369 . S
C517 H526 0.929 . S
C518 N515 1.346 . S
C518 C517 1.369 . S
C518 H521 0.928 . S
C519 N515 1.345 . S
C519 C520 1.371 . S
C519 H522 0.931 . S
C520 C516 1.391 . S
C520 C519 1.371 . S
C520 H527 0.930 . S
H521 C518 0.928 . S
H522 C519 0.931 . S
H523 C499 0.930 . S
H524 C496 0.930 . S
H525 C505 0.930 . S
H526 C517 0.929 . S
H527 C520 0.930 . S
C528 C529 1.351 . S
C528 N531 1.368 . S
C528 H533 0.931 . S
C529 C528 1.351 . S
C529 N530 1.373 . S
C529 H557 0.930 . S
N530 C529 1.373 . S
N530 C532 1.340 . S
N531 C528 1.368 . S
N531 C532 1.321 . S
N531 Co534 2.135 . S
C532 N530 1.340 . S
C532 N531 1.321 . S
C532 H556 0.930 . S
H533 C528 0.931 . S
Co534 N531 2.135 . S
Co534 N537 2.121 . S
Co534 O542 2.055 . S
Co534 O545 2.039 . S
Co534 N548 2.140 . S
C535 O536 1.227 . S
C535 O545 1.265 . S
O536 C535 1.227 . S
N537 Co534 2.121 . S
N537 C539 1.375 . S
N537 C540 1.313 . S
C538 C539 1.338 . S
C538 N541 1.377 . S
C538 H558 0.930 . S
C539 N537 1.375 . S
C539 C538 1.338 . S
C539 H543 0.931 . S
C540 N537 1.313 . S
C540 N541 1.344 . S
C540 H544 0.930 . S
N541 C538 1.377 . S
N541 C540 1.344 . S
O542 Co534 2.055 . S
O542 C546 1.253 . S
H543 C539 0.931 . S
H544 C540 0.930 . S
O545 Co534 2.039 . S
O545 C535 1.265 . S
C546 O542 1.253 . S
C546 O547 1.227 . S
O547 C546 1.227 . S
N548 Co534 2.140 . S
N548 C551 1.346 . S
N548 C552 1.345 . S
C549 C550 1.387 . S
C549 C553 1.391 . S
C550 C549 1.387 . S
C550 C551 1.369 . S
C550 H559 0.929 . S
C551 N548 1.346 . S
C551 C550 1.369 . S
C551 H554 0.928 . S
C552 N548 1.345 . S
C552 C553 1.371 . S
C552 H555 0.931 . S
C553 C549 1.391 . S
C553 C552 1.371 . S
C553 H560 0.930 . S
H554 C551 0.928 . S
H555 C552 0.931 . S
H556 C532 0.930 . S
H557 C529 0.930 . S
H558 C538 0.930 . S
H559 C550 0.929 . S
H560 C553 0.930 . S
C561 C562 1.351 . S
C561 N564 1.368 . S
C561 H566 0.931 . S
C562 C561 1.351 . S
C562 N563 1.373 . S
C562 H590 0.930 . S
N563 C562 1.373 . S
N563 C565 1.340 . S
N564 C561 1.368 . S
N564 C565 1.321 . S
N564 Co567 2.135 . S
C565 N563 1.340 . S
C565 N564 1.321 . S
C565 H589 0.930 . S
H566 C561 0.931 . S
Co567 N564 2.135 . S
Co567 N570 2.121 . S
Co567 O575 2.055 . S
Co567 O578 2.039 . S
Co567 N581 2.140 . S
C568 O569 1.227 . S
C568 O578 1.265 . S
O569 C568 1.227 . S
N570 Co567 2.121 . S
N570 C572 1.375 . S
N570 C573 1.313 . S
C571 C572 1.338 . S
C571 N574 1.377 . S
C571 H591 0.930 . S
C572 N570 1.375 . S
C572 C571 1.338 . S
C572 H576 0.931 . S
C573 N570 1.313 . S
C573 N574 1.344 . S
C573 H577 0.930 . S
N574 C571 1.377 . S
N574 C573 1.344 . S
O575 Co567 2.055 . S
O575 C579 1.253 . S
H576 C572 0.931 . S
H577 C573 0.930 . S
O578 Co567 2.039 . S
O578 C568 1.265 . S
C579 O575 1.253 . S
C579 O580 1.227 . S
O580 C579 1.227 . S
N581 Co567 2.140 . S
N581 C584 1.346 . S
N581 C585 1.345 . S
C582 C583 1.387 . S
C582 C586 1.391 . S
C583 C582 1.387 . S
C583 C584 1.369 . S
C583 H592 0.929 . S
C584 N581 1.346 . S
C584 C583 1.369 . S
C584 H587 0.928 . S
C585 N581 1.345 . S
C585 C586 1.371 . S
C585 H588 0.931 . S
C586 C582 1.391 . S
C586 C585 1.371 . S
C586 H593 0.930 . S
H587 C584 0.928 . S
H588 C585 0.931 . S
H589 C565 0.930 . S
H590 C562 0.930 . S
H591 C571 0.930 . S
H592 C583 0.929 . S
H593 C586 0.930 . S
C594 C595 1.351 . S
C594 N597 1.368 . S
C594 H599 0.931 . S
C595 C594 1.351 . S
C595 N596 1.373 . S
C595 H623 0.930 . S
N596 C595 1.373 . S
N596 C598 1.340 . S
N597 C594 1.368 . S
N597 C598 1.321 . S
N597 Co600 2.135 . S
C598 N596 1.340 . S
C598 N597 1.321 . S
C598 H622 0.930 . S
H599 C594 0.931 . S
Co600 N597 2.135 . S
Co600 N603 2.121 . S
Co600 O608 2.055 . S
Co600 O611 2.039 . S
Co600 N614 2.140 . S
C601 O602 1.227 . S
C601 O611 1.265 . S
O602 C601 1.227 . S
N603 Co600 2.121 . S
N603 C605 1.375 . S
N603 C606 1.313 . S
C604 C605 1.338 . S
C604 N607 1.377 . S
C604 H624 0.930 . S
C605 N603 1.375 . S
C605 C604 1.338 . S
C605 H609 0.931 . S
C606 N603 1.313 . S
C606 N607 1.344 . S
C606 H610 0.930 . S
N607 C604 1.377 . S
N607 C606 1.344 . S
O608 Co600 2.055 . S
O608 C612 1.253 . S
H609 C605 0.931 . S
H610 C606 0.930 . S
O611 Co600 2.039 . S
O611 C601 1.265 . S
C612 O608 1.253 . S
C612 O613 1.227 . S
O613 C612 1.227 . S
N614 Co600 2.140 . S
N614 C617 1.346 . S
N614 C618 1.345 . S
C615 C616 1.387 . S
C615 C619 1.391 . S
C616 C615 1.387 . S
C616 C617 1.369 . S
C616 H625 0.929 . S
C617 N614 1.346 . S
C617 C616 1.369 . S
C617 H620 0.928 . S
C618 N614 1.345 . S
C618 C619 1.371 . S
C618 H621 0.931 . S
C619 C615 1.391 . S
C619 C618 1.371 . S
C619 H626 0.930 . S
H620 C617 0.928 . S
H621 C618 0.931 . S
H622 C598 0.930 . S
H623 C595 0.930 . S
H624 C604 0.930 . S
H625 C616 0.929 . S
H626 C619 0.930 . S
C627 C628 1.351 . S
C627 N630 1.368 . S
C627 H632 0.931 . S
C628 C627 1.351 . S
C628 N629 1.373 . S
C628 H656 0.930 . S
N629 C628 1.373 . S
N629 C631 1.340 . S
N630 C627 1.368 . S
N630 C631 1.321 . S
N630 Co633 2.135 . S
C631 N629 1.340 . S
C631 N630 1.321 . S
C631 H655 0.930 . S
H632 C627 0.931 . S
Co633 N630 2.135 . S
Co633 N636 2.121 . S
Co633 O641 2.055 . S
Co633 O644 2.039 . S
Co633 N647 2.140 . S
C634 O635 1.227 . S
C634 O644 1.265 . S
O635 C634 1.227 . S
N636 Co633 2.121 . S
N636 C638 1.375 . S
N636 C639 1.313 . S
C637 C638 1.338 . S
C637 N640 1.377 . S
C637 H657 0.930 . S
C638 N636 1.375 . S
C638 C637 1.338 . S
C638 H642 0.931 . S
C639 N636 1.313 . S
C639 N640 1.344 . S
C639 H643 0.930 . S
N640 C637 1.377 . S
N640 C639 1.344 . S
O641 Co633 2.055 . S
O641 C645 1.253 . S
H642 C638 0.931 . S
H643 C639 0.930 . S
O644 Co633 2.039 . S
O644 C634 1.265 . S
C645 O641 1.253 . S
C645 O646 1.227 . S
O646 C645 1.227 . S
N647 Co633 2.140 . S
N647 C650 1.346 . S
N647 C651 1.345 . S
C648 C649 1.387 . S
C648 C652 1.391 . S
C649 C648 1.387 . S
C649 C650 1.369 . S
C649 H658 0.929 . S
C650 N647 1.346 . S
C650 C649 1.369 . S
C650 H653 0.928 . S
C651 N647 1.345 . S
C651 C652 1.371 . S
C651 H654 0.931 . S
C652 C648 1.391 . S
C652 C651 1.371 . S
C652 H659 0.930 . S
H653 C650 0.928 . S
H654 C651 0.931 . S
H655 C631 0.930 . S
H656 C628 0.930 . S
H657 C637 0.930 . S
H658 C649 0.929 . S
H659 C652 0.930 . S
C660 C661 1.351 . S
C660 N663 1.368 . S
C660 H665 0.931 . S
C661 C660 1.351 . S
C661 N662 1.373 . S
C661 H689 0.930 . S
N662 C661 1.373 . S
N662 C664 1.340 . S
N663 C660 1.368 . S
N663 C664 1.321 . S
N663 Co666 2.135 . S
C664 N662 1.340 . S
C664 N663 1.321 . S
C664 H688 0.930 . S
H665 C660 0.931 . S
Co666 N663 2.135 . S
Co666 N669 2.121 . S
Co666 O674 2.055 . S
Co666 O677 2.039 . S
Co666 N680 2.140 . S
C667 O668 1.227 . S
C667 O677 1.265 . S
O668 C667 1.227 . S
N669 Co666 2.121 . S
N669 C671 1.375 . S
N669 C672 1.313 . S
C670 C671 1.338 . S
C670 N673 1.377 . S
C670 H690 0.930 . S
C671 N669 1.375 . S
C671 C670 1.338 . S
C671 H675 0.931 . S
C672 N669 1.313 . S
C672 N673 1.344 . S
C672 H676 0.930 . S
N673 C670 1.377 . S
N673 C672 1.344 . S
O674 Co666 2.055 . S
O674 C678 1.253 . S
H675 C671 0.931 . S
H676 C672 0.930 . S
O677 Co666 2.039 . S
O677 C667 1.265 . S
C678 O674 1.253 . S
C678 O679 1.227 . S
O679 C678 1.227 . S
N680 Co666 2.140 . S
N680 C683 1.346 . S
N680 C684 1.345 . S
C681 C682 1.387 . S
C681 C685 1.391 . S
C682 C681 1.387 . S
C682 C683 1.369 . S
C682 H691 0.929 . S
C683 N680 1.346 . S
C683 C682 1.369 . S
C683 H686 0.928 . S
C684 N680 1.345 . S
C684 C685 1.371 . S
C684 H687 0.931 . S
C685 C681 1.391 . S
C685 C684 1.371 . S
C685 H692 0.930 . S
H686 C683 0.928 . S
H687 C684 0.931 . S
H688 C664 0.930 . S
H689 C661 0.930 . S
H690 C670 0.930 . S
H691 C682 0.929 . S
H692 C685 0.930 . S
C693 C694 1.351 . S
C693 N696 1.368 . S
C693 H698 0.931 . S
C694 C693 1.351 . S
C694 N695 1.373 . S
C694 H722 0.930 . S
N695 C694 1.373 . S
N695 C697 1.340 . S
N696 C693 1.368 . S
N696 C697 1.321 . S
N696 Co699 2.135 . S
C697 N695 1.340 . S
C697 N696 1.321 . S
C697 H721 0.930 . S
H698 C693 0.931 . S
Co699 N696 2.135 . S
Co699 N702 2.121 . S
Co699 O707 2.055 . S
Co699 O710 2.039 . S
Co699 N713 2.140 . S
C700 O701 1.227 . S
C700 O710 1.265 . S
O701 C700 1.227 . S
N702 Co699 2.121 . S
N702 C704 1.375 . S
N702 C705 1.313 . S
C703 C704 1.338 . S
C703 N706 1.377 . S
C703 H723 0.930 . S
C704 N702 1.375 . S
C704 C703 1.338 . S
C704 H708 0.931 . S
C705 N702 1.313 . S
C705 N706 1.344 . S
C705 H709 0.930 . S
N706 C703 1.377 . S
N706 C705 1.344 . S
O707 Co699 2.055 . S
O707 C711 1.253 . S
H708 C704 0.931 . S
H709 C705 0.930 . S
O710 Co699 2.039 . S
O710 C700 1.265 . S
C711 O707 1.253 . S
C711 O712 1.227 . S
O712 C711 1.227 . S
N713 Co699 2.140 . S
N713 C716 1.346 . S
N713 C717 1.345 . S
C714 C715 1.387 . S
C714 C718 1.391 . S
C715 C714 1.387 . S
C715 C716 1.369 . S
C715 H724 0.929 . S
C716 N713 1.346 . S
C716 C715 1.369 . S
C716 H719 0.928 . S
C717 N713 1.345 . S
C717 C718 1.371 . S
C717 H720 0.931 . S
C718 C714 1.391 . S
C718 C717 1.371 . S
C718 H725 0.930 . S
H719 C716 0.928 . S
H720 C717 0.931 . S
H721 C697 0.930 . S
H722 C694 0.930 . S
H723 C703 0.930 . S
H724 C715 0.929 . S
H725 C718 0.930 . S
C726 C727 1.351 . S
C726 N729 1.368 . S
C726 H731 0.931 . S
C727 C726 1.351 . S
C727 N728 1.373 . S
C727 H755 0.930 . S
N728 C727 1.373 . S
N728 C730 1.340 . S
N729 C726 1.368 . S
N729 C730 1.321 . S
N729 Co732 2.135 . S
C730 N728 1.340 . S
C730 N729 1.321 . S
C730 H754 0.930 . S
H731 C726 0.931 . S
Co732 N729 2.135 . S
Co732 N735 2.121 . S
Co732 O740 2.055 . S
Co732 O743 2.039 . S
Co732 N746 2.140 . S
C733 O734 1.227 . S
C733 O743 1.265 . S
O734 C733 1.227 . S
N735 Co732 2.121 . S
N735 C737 1.375 . S
N735 C738 1.313 . S
C736 C737 1.338 . S
C736 N739 1.377 . S
C736 H756 0.930 . S
C737 N735 1.375 . S
C737 C736 1.338 . S
C737 H741 0.931 . S
C738 N735 1.313 . S
C738 N739 1.344 . S
C738 H742 0.930 . S
N739 C736 1.377 . S
N739 C738 1.344 . S
O740 Co732 2.055 . S
O740 C744 1.253 . S
H741 C737 0.931 . S
H742 C738 0.930 . S
O743 Co732 2.039 . S
O743 C733 1.265 . S
C744 O740 1.253 . S
C744 O745 1.227 . S
O745 C744 1.227 . S
N746 Co732 2.140 . S
N746 C749 1.346 . S
N746 C750 1.345 . S
C747 C748 1.387 . S
C747 C751 1.391 . S
C748 C747 1.387 . S
C748 C749 1.369 . S
C748 H757 0.929 . S
C749 N746 1.346 . S
C749 C748 1.369 . S
C749 H752 0.928 . S
C750 N746 1.345 . S
C750 C751 1.371 . S
C750 H753 0.931 . S
C751 C747 1.391 . S
C751 C750 1.371 . S
C751 H758 0.930 . S
H752 C749 0.928 . S
H753 C750 0.931 . S
H754 C730 0.930 . S
H755 C727 0.930 . S
H756 C736 0.930 . S
H757 C748 0.929 . S
H758 C751 0.930 . S
C759 C760 1.351 . S
C759 N762 1.368 . S
C759 H764 0.931 . S
C760 C759 1.351 . S
C760 N761 1.373 . S
C760 H788 0.930 . S
N761 C760 1.373 . S
N761 C763 1.340 . S
N762 C759 1.368 . S
N762 C763 1.321 . S
N762 Co765 2.135 . S
C763 N761 1.340 . S
C763 N762 1.321 . S
C763 H787 0.930 . S
H764 C759 0.931 . S
Co765 N762 2.135 . S
Co765 N768 2.121 . S
Co765 O773 2.055 . S
Co765 O776 2.039 . S
Co765 N779 2.140 . S
C766 O767 1.227 . S
C766 O776 1.265 . S
O767 C766 1.227 . S
N768 Co765 2.121 . S
N768 C770 1.375 . S
N768 C771 1.313 . S
C769 C770 1.338 . S
C769 N772 1.377 . S
C769 H789 0.930 . S
C770 N768 1.375 . S
C770 C769 1.338 . S
C770 H774 0.931 . S
C771 N768 1.313 . S
C771 N772 1.344 . S
C771 H775 0.930 . S
N772 C769 1.377 . S
N772 C771 1.344 . S
O773 Co765 2.055 . S
O773 C777 1.253 . S
H774 C770 0.931 . S
H775 C771 0.930 . S
O776 Co765 2.039 . S
O776 C766 1.265 . S
C777 O773 1.253 . S
C777 O778 1.227 . S
O778 C777 1.227 . S
N779 Co765 2.140 . S
N779 C782 1.346 . S
N779 C783 1.345 . S
C780 C781 1.387 . S
C780 C784 1.391 . S
C781 C780 1.387 . S
C781 C782 1.369 . S
C781 H790 0.929 . S
C782 N779 1.346 . S
C782 C781 1.369 . S
C782 H785 0.928 . S
C783 N779 1.345 . S
C783 C784 1.371 . S
C783 H786 0.931 . S
C784 C780 1.391 . S
C784 C783 1.371 . S
C784 H791 0.930 . S
H785 C782 0.928 . S
H786 C783 0.931 . S
H787 C763 0.930 . S
H788 C760 0.930 . S
H789 C769 0.930 . S
H790 C781 0.929 . S
H791 C784 0.930 . S
C792 C793 1.351 . S
C792 N795 1.368 . S
C792 H797 0.931 . S
C793 C792 1.351 . S
C793 N794 1.373 . S
C793 H821 0.930 . S
N794 C793 1.373 . S
N794 C796 1.340 . S
N795 C792 1.368 . S
N795 C796 1.321 . S
N795 Co798 2.135 . S
C796 N794 1.340 . S
C796 N795 1.321 . S
C796 H820 0.930 . S
H797 C792 0.931 . S
Co798 N795 2.135 . S
Co798 N801 2.121 . S
Co798 O806 2.055 . S
Co798 O809 2.039 . S
Co798 N812 2.140 . S
C799 O800 1.227 . S
C799 O809 1.265 . S
O800 C799 1.227 . S
N801 Co798 2.121 . S
N801 C803 1.375 . S
N801 C804 1.313 . S
C802 C803 1.338 . S
C802 N805 1.377 . S
C802 H822 0.930 . S
C803 N801 1.375 . S
C803 C802 1.338 . S
C803 H807 0.931 . S
C804 N801 1.313 . S
C804 N805 1.344 . S
C804 H808 0.930 . S
N805 C802 1.377 . S
N805 C804 1.344 . S
O806 Co798 2.055 . S
O806 C810 1.253 . S
H807 C803 0.931 . S
H808 C804 0.930 . S
O809 Co798 2.039 . S
O809 C799 1.265 . S
C810 O806 1.253 . S
C810 O811 1.227 . S
O811 C810 1.227 . S
N812 Co798 2.140 . S
N812 C815 1.346 . S
N812 C816 1.345 . S
C813 C814 1.387 . S
C813 C817 1.391 . S
C814 C813 1.387 . S
C814 C815 1.369 . S
C814 H823 0.929 . S
C815 N812 1.346 . S
C815 C814 1.369 . S
C815 H818 0.928 . S
C816 N812 1.345 . S
C816 C817 1.371 . S
C816 H819 0.931 . S
C817 C813 1.391 . S
C817 C816 1.371 . S
C817 H824 0.930 . S
H818 C815 0.928 . S
H819 C816 0.931 . S
H820 C796 0.930 . S
H821 C793 0.930 . S
H822 C802 0.930 . S
H823 C814 0.929 . S
H824 C817 0.930 . S
C825 C826 1.351 . S
C825 N828 1.368 . S
C825 H830 0.931 . S
C826 C825 1.351 . S
C826 N827 1.373 . S
C826 H854 0.930 . S
N827 C826 1.373 . S
N827 C829 1.340 . S
N828 C825 1.368 . S
N828 C829 1.321 . S
N828 Co831 2.135 . S
C829 N827 1.340 . S
C829 N828 1.321 . S
C829 H853 0.930 . S
H830 C825 0.931 . S
Co831 N828 2.135 . S
Co831 N834 2.121 . S
Co831 O839 2.055 . S
Co831 O842 2.039 . S
Co831 N845 2.140 . S
C832 O833 1.227 . S
C832 O842 1.265 . S
O833 C832 1.227 . S
N834 Co831 2.121 . S
N834 C836 1.375 . S
N834 C837 1.313 . S
C835 C836 1.338 . S
C835 N838 1.377 . S
C835 H855 0.930 . S
C836 N834 1.375 . S
C836 C835 1.338 . S
C836 H840 0.931 . S
C837 N834 1.313 . S
C837 N838 1.344 . S
C837 H841 0.930 . S
N838 C835 1.377 . S
N838 C837 1.344 . S
O839 Co831 2.055 . S
O839 C843 1.253 . S
H840 C836 0.931 . S
H841 C837 0.930 . S
O842 Co831 2.039 . S
O842 C832 1.265 . S
C843 O839 1.253 . S
C843 O844 1.227 . S
O844 C843 1.227 . S
N845 Co831 2.140 . S
N845 C848 1.346 . S
N845 C849 1.345 . S
C846 C847 1.387 . S
C846 C850 1.391 . S
C847 C846 1.387 . S
C847 C848 1.369 . S
C847 H856 0.929 . S
C848 N845 1.346 . S
C848 C847 1.369 . S
C848 H851 0.928 . S
C849 N845 1.345 . S
C849 C850 1.371 . S
C849 H852 0.931 . S
C850 C846 1.391 . S
C850 C849 1.371 . S
C850 H857 0.930 . S
H851 C848 0.928 . S
H852 C849 0.931 . S
H853 C829 0.930 . S
H854 C826 0.930 . S
H855 C835 0.930 . S
H856 C847 0.929 . S
H857 C850 0.930 . S
C858 C859 1.351 . S
C858 N861 1.368 . S
C858 H863 0.931 . S
C859 C858 1.351 . S
C859 N860 1.373 . S
C859 H887 0.930 . S
N860 C859 1.373 . S
N860 C862 1.340 . S
N861 C858 1.368 . S
N861 C862 1.321 . S
N861 Co864 2.135 . S
C862 N860 1.340 . S
C862 N861 1.321 . S
C862 H886 0.930 . S
H863 C858 0.931 . S
Co864 N861 2.135 . S
Co864 N867 2.121 . S
Co864 O872 2.055 . S
Co864 O875 2.039 . S
Co864 N878 2.140 . S
C865 O866 1.227 . S
C865 O875 1.265 . S
O866 C865 1.227 . S
N867 Co864 2.121 . S
N867 C869 1.375 . S
N867 C870 1.313 . S
C868 C869 1.338 . S
C868 N871 1.377 . S
C868 H888 0.930 . S
C869 N867 1.375 . S
C869 C868 1.338 . S
C869 H873 0.931 . S
C870 N867 1.313 . S
C870 N871 1.344 . S
C870 H874 0.930 . S
N871 C868 1.377 . S
N871 C870 1.344 . S
O872 Co864 2.055 . S
O872 C876 1.253 . S
H873 C869 0.931 . S
H874 C870 0.930 . S
O875 Co864 2.039 . S
O875 C865 1.265 . S
C876 O872 1.253 . S
C876 O877 1.227 . S
O877 C876 1.227 . S
N878 Co864 2.140 . S
N878 C881 1.346 . S
N878 C882 1.345 . S
C879 C880 1.387 . S
C879 C883 1.391 . S
C880 C879 1.387 . S
C880 C881 1.369 . S
C880 H889 0.929 . S
C881 N878 1.346 . S
C881 C880 1.369 . S
C881 H884 0.928 . S
C882 N878 1.345 . S
C882 C883 1.371 . S
C882 H885 0.931 . S
C883 C879 1.391 . S
C883 C882 1.371 . S
C883 H890 0.930 . S
H884 C881 0.928 . S
H885 C882 0.931 . S
H886 C862 0.930 . S
H887 C859 0.930 . S
H888 C868 0.930 . S
H889 C880 0.929 . S
H890 C883 0.930 . S
C891 C892 1.351 . S
C891 N894 1.368 . S
C891 H896 0.931 . S
C892 C891 1.351 . S
C892 N893 1.373 . S
C892 H920 0.930 . S
N893 C892 1.373 . S
N893 C895 1.340 . S
N894 C891 1.368 . S
N894 C895 1.321 . S
N894 Co897 2.135 . S
C895 N893 1.340 . S
C895 N894 1.321 . S
C895 H919 0.930 . S
H896 C891 0.931 . S
Co897 N894 2.135 . S
Co897 N900 2.121 . S
Co897 O905 2.055 . S
Co897 O908 2.039 . S
Co897 N911 2.140 . S
C898 O899 1.227 . S
C898 O908 1.265 . S
O899 C898 1.227 . S
N900 Co897 2.121 . S
N900 C902 1.375 . S
N900 C903 1.313 . S
C901 C902 1.338 . S
C901 N904 1.377 . S
C901 H921 0.930 . S
C902 N900 1.375 . S
C902 C901 1.338 . S
C902 H906 0.931 . S
C903 N900 1.313 . S
C903 N904 1.344 . S
C903 H907 0.930 . S
N904 C901 1.377 . S
N904 C903 1.344 . S
O905 Co897 2.055 . S
O905 C909 1.253 . S
H906 C902 0.931 . S
H907 C903 0.930 . S
O908 Co897 2.039 . S
O908 C898 1.265 . S
C909 O905 1.253 . S
C909 O910 1.227 . S
O910 C909 1.227 . S
N911 Co897 2.140 . S
N911 C914 1.346 . S
N911 C915 1.345 . S
C912 C913 1.387 . S
C912 C916 1.391 . S
C913 C912 1.387 . S
C913 C914 1.369 . S
C913 H922 0.929 . S
C914 N911 1.346 . S
C914 C913 1.369 . S
C914 H917 0.928 . S
C915 N911 1.345 . S
C915 C916 1.371 . S
C915 H918 0.931 . S
C916 C912 1.391 . S
C916 C915 1.371 . S
C916 H923 0.930 . S
H917 C914 0.928 . S
H918 C915 0.931 . S
H919 C895 0.930 . S
H920 C892 0.930 . S
H921 C901 0.930 . S
H922 C913 0.929 . S
H923 C916 0.930 . S
C924 C925 1.351 . S
C924 N927 1.368 . S
C924 H929 0.931 . S
C925 C924 1.351 . S
C925 N926 1.373 . S
C925 H953 0.930 . S
N926 C925 1.373 . S
N926 C928 1.340 . S
N927 C924 1.368 . S
N927 C928 1.321 . S
N927 Co930 2.135 . S
C928 N926 1.340 . S
C928 N927 1.321 . S
C928 H952 0.930 . S
H929 C924 0.931 . S
Co930 N927 2.135 . S
Co930 N933 2.121 . S
Co930 O938 2.055 . S
Co930 O941 2.039 . S
Co930 N944 2.140 . S
C931 O932 1.227 . S
C931 O941 1.265 . S
O932 C931 1.227 . S
N933 Co930 2.121 . S
N933 C935 1.375 . S
N933 C936 1.313 . S
C934 C935 1.338 . S
C934 N937 1.377 . S
C934 H954 0.930 . S
C935 N933 1.375 . S
C935 C934 1.338 . S
C935 H939 0.931 . S
C936 N933 1.313 . S
C936 N937 1.344 . S
C936 H940 0.930 . S
N937 C934 1.377 . S
N937 C936 1.344 . S
O938 Co930 2.055 . S
O938 C942 1.253 . S
H939 C935 0.931 . S
H940 C936 0.930 . S
O941 Co930 2.039 . S
O941 C931 1.265 . S
C942 O938 1.253 . S
C942 O943 1.227 . S
O943 C942 1.227 . S
N944 Co930 2.140 . S
N944 C947 1.346 . S
N944 C948 1.345 . S
C945 C946 1.387 . S
C945 C949 1.391 . S
C946 C945 1.387 . S
C946 C947 1.369 . S
C946 H955 0.929 . S
C947 N944 1.346 . S
C947 C946 1.369 . S
C947 H950 0.928 . S
C948 N944 1.345 . S
C948 C949 1.371 . S
C948 H951 0.931 . S
C949 C945 1.391 . S
C949 C948 1.371 . S
C949 H956 0.930 . S
H950 C947 0.928 . S
H951 C948 0.931 . S
H952 C928 0.930 . S
H953 C925 0.930 . S
H954 C934 0.930 . S
H955 C946 0.929 . S
H956 C949 0.930 . S
C957 C958 1.351 . S
C957 N960 1.368 . S
C957 H962 0.931 . S
C958 C957 1.351 . S
C958 N959 1.373 . S
C958 H986 0.930 . S
N959 C958 1.373 . S
N959 C961 1.340 . S
N960 C957 1.368 . S
N960 C961 1.321 . S
N960 Co963 2.135 . S
C961 N959 1.340 . S
C961 N960 1.321 . S
C961 H985 0.930 . S
H962 C957 0.931 . S
Co963 N960 2.135 . S
Co963 N966 2.121 . S
Co963 O971 2.055 . S
Co963 O974 2.039 . S
Co963 N977 2.140 . S
C964 O965 1.227 . S
C964 O974 1.265 . S
O965 C964 1.227 . S
N966 Co963 2.121 . S
N966 C968 1.375 . S
N966 C969 1.313 . S
C967 C968 1.338 . S
C967 N970 1.377 . S
C967 H987 0.930 . S
C968 N966 1.375 . S
C968 C967 1.338 . S
C968 H972 0.931 . S
C969 N966 1.313 . S
C969 N970 1.344 . S
C969 H973 0.930 . S
N970 C967 1.377 . S
N970 C969 1.344 . S
O971 Co963 2.055 . S
O971 C975 1.253 . S
H972 C968 0.931 . S
H973 C969 0.930 . S
O974 Co963 2.039 . S
O974 C964 1.265 . S
C975 O971 1.253 . S
C975 O976 1.227 . S
O976 C975 1.227 . S
N977 Co963 2.140 . S
N977 C980 1.346 . S
N977 C981 1.345 . S
C978 C979 1.387 . S
C978 C982 1.391 . S
C979 C978 1.387 . S
C979 C980 1.369 . S
C979 H988 0.929 . S
C980 N977 1.346 . S
C980 C979 1.369 . S
C980 H983 0.928 . S
C981 N977 1.345 . S
C981 C982 1.371 . S
C981 H984 0.931 . S
C982 C978 1.391 . S
C982 C981 1.371 . S
C982 H989 0.930 . S
H983 C980 0.928 . S
H984 C981 0.931 . S
H985 C961 0.930 . S
H986 C958 0.930 . S
H987 C967 0.930 . S
H988 C979 0.929 . S
H989 C982 0.930 . S
C990 C991 1.351 . S
C990 N993 1.368 . S
C990 H995 0.931 . S
C991 C990 1.351 . S
C991 N992 1.373 . S
C991 H1019 0.930 . S
N992 C991 1.373 . S
N992 C994 1.340 . S
N993 C990 1.368 . S
N993 C994 1.321 . S
N993 Co996 2.135 . S
C994 N992 1.340 . S
C994 N993 1.321 . S
C994 H1018 0.930 . S
H995 C990 0.931 . S
Co996 N993 2.135 . S
Co996 N999 2.121 . S
Co996 O1004 2.055 . S
Co996 O1007 2.039 . S
Co996 N1010 2.140 . S
C997 O998 1.227 . S
C997 O1007 1.265 . S
O998 C997 1.227 . S
N999 Co996 2.121 . S
N999 C1001 1.375 . S
N999 C1002 1.313 . S
C1000 C1001 1.338 . S
C1000 N1003 1.377 . S
C1000 H1020 0.930 . S
C1001 N999 1.375 . S
C1001 C1000 1.338 . S
C1001 H1005 0.931 . S
C1002 N999 1.313 . S
C1002 N1003 1.344 . S
C1002 H1006 0.930 . S
N1003 C1000 1.377 . S
N1003 C1002 1.344 . S
O1004 Co996 2.055 . S
O1004 C1008 1.253 . S
H1005 C1001 0.931 . S
H1006 C1002 0.930 . S
O1007 Co996 2.039 . S
O1007 C997 1.265 . S
C1008 O1004 1.253 . S
C1008 O1009 1.227 . S
O1009 C1008 1.227 . S
N1010 Co996 2.140 . S
N1010 C1013 1.346 . S
N1010 C1014 1.345 . S
C1011 C1012 1.387 . S
C1011 C1015 1.391 . S
C1012 C1011 1.387 . S
C1012 C1013 1.369 . S
C1012 H1021 0.929 . S
C1013 N1010 1.346 . S
C1013 C1012 1.369 . S
C1013 H1016 0.928 . S
C1014 N1010 1.345 . S
C1014 C1015 1.371 . S
C1014 H1017 0.931 . S
C1015 C1011 1.391 . S
C1015 C1014 1.371 . S
C1015 H1022 0.930 . S
H1016 C1013 0.928 . S
H1017 C1014 0.931 . S
H1018 C994 0.930 . S
H1019 C991 0.930 . S
H1020 C1000 0.930 . S
H1021 C1012 0.929 . S
H1022 C1015 0.930 . S
C1023 C1024 1.351 . S
C1023 N1026 1.368 . S
C1023 H1028 0.931 . S
C1024 C1023 1.351 . S
C1024 N1025 1.373 . S
C1024 H1052 0.930 . S
N1025 C1024 1.373 . S
N1025 C1027 1.340 . S
N1026 C1023 1.368 . S
N1026 C1027 1.321 . S
N1026 Co1029 2.135 . S
C1027 N1025 1.340 . S
C1027 N1026 1.321 . S
C1027 H1051 0.930 . S
H1028 C1023 0.931 . S
Co1029 N1026 2.135 . S
Co1029 N1032 2.121 . S
Co1029 O1037 2.055 . S
Co1029 O1040 2.039 . S
Co1029 N1043 2.140 . S
C1030 O1031 1.227 . S
C1030 O1040 1.265 . S
O1031 C1030 1.227 . S
N1032 Co1029 2.121 . S
N1032 C1034 1.375 . S
N1032 C1035 1.313 . S
C1033 C1034 1.338 . S
C1033 N1036 1.377 . S
C1033 H1053 0.930 . S
C1034 N1032 1.375 . S
C1034 C1033 1.338 . S
C1034 H1038 0.931 . S
C1035 N1032 1.313 . S
C1035 N1036 1.344 . S
C1035 H1039 0.930 . S
N1036 C1033 1.377 . S
N1036 C1035 1.344 . S
O1037 Co1029 2.055 . S
O1037 C1041 1.253 . S
H1038 C1034 0.931 . S
H1039 C1035 0.930 . S
O1040 Co1029 2.039 . S
O1040 C1030 1.265 . S
C1041 O1037 1.253 . S
C1041 O1042 1.227 . S
O1042 C1041 1.227 . S
N1043 Co1029 2.140 . S
N1043 C1046 1.346 . S
N1043 C1047 1.345 . S
C1044 C1045 1.387 . S
C1044 C1048 1.391 . S
C1045 C1044 1.387 . S
C1045 C1046 1.369 . S
C1045 H1054 0.929 . S
C1046 N1043 1.346 . S
C1046 C1045 1.369 . S
C1046 H1049 0.928 . S
C1047 N1043 1.345 . S
C1047 C1048 1.371 . S
C1047 H1050 0.931 . S
C1048 C1044 1.391 . S
C1048 C1047 1.371 . S
C1048 H1055 0.930 . S
H1049 C1046 0.928 . S
H1050 C1047 0.931 . S
H1051 C1027 0.930 . S
H1052 C1024 0.930 . S
H1053 C1033 0.930 . S
H1054 C1045 0.929 . S
H1055 C1048 0.930 . S
H1056 C1062 0.930 . S
H1057 C1065 0.930 . S
H1058 C1066 0.930 . S
H1059 C1067 0.930 . S
H1060 C1070 0.930 . S
H1061 C1071 0.930 . S
C1062 H1056 0.930 . S
C1062 C1063 1.355 . S
C1062 C1064 1.415 . S
C1063 C1062 1.355 . S
C1063 C1065 1.419 . S
C1064 C1062 1.415 . S
C1064 C1069 1.425 . S
C1064 C1071 1.409 . S
C1065 H1057 0.930 . S
C1065 C1063 1.419 . S
C1065 C1066 1.362 . S
C1066 H1058 0.930 . S
C1066 C1065 1.362 . S
C1066 C1069 1.409 . S
C1067 H1059 0.930 . S
C1067 C1068 1.355 . S
C1067 C1069 1.415 . S
C1068 C1067 1.355 . S
C1068 C1070 1.419 . S
C1069 C1064 1.425 . S
C1069 C1066 1.409 . S
C1069 C1067 1.415 . S
C1070 H1060 0.930 . S
C1070 C1068 1.419 . S
C1070 C1071 1.362 . S
C1071 H1061 0.930 . S
C1071 C1064 1.409 . S
C1071 C1070 1.362 . S
H1072 C1078 0.930 . S
H1073 C1081 0.929 1_545 S
H1074 C1082 0.930 1_455 S
H1075 C1083 0.930 . S
H1076 C1086 0.929 1_565 S
H1077 C1087 0.930 1_655 S
C1078 H1072 0.930 . S
C1078 C1079 1.355 . S
C1078 C1080 1.415 . S
C1079 C1078 1.355 . S
C1079 C1081 1.421 . S
C1080 C1078 1.415 . S
C1080 C1085 1.425 1_665 S
C1080 C1087 1.409 1_655 S
C1081 H1073 0.929 1_565 S
C1081 C1079 1.421 . S
C1081 C1082 1.361 1_565 S
C1082 H1074 0.930 1_655 S
C1082 C1081 1.361 1_545 S
C1082 C1085 1.409 1_655 S
C1083 H1075 0.930 . S
C1083 C1084 1.355 . S
C1083 C1085 1.415 . S
C1084 C1083 1.355 . S
C1084 C1086 1.421 . S
C1085 C1080 1.425 1_445 S
C1085 C1082 1.409 1_455 S
C1085 C1083 1.415 . S
C1086 H1076 0.929 1_545 S
C1086 C1084 1.421 . S
C1086 C1087 1.361 1_545 S
C1087 H1077 0.930 1_455 S
C1087 C1080 1.409 1_455 S
C1087 C1086 1.361 1_565 S
H1088 C1094 0.930 . S
H1089 C1097 0.930 . S
H1090 C1098 0.930 . S
H1091 C1099 0.930 . S
H1092 C1102 0.930 . S
H1093 C1103 0.930 . S
C1094 H1088 0.930 . S
C1094 C1095 1.355 . S
C1094 C1096 1.415 . S
C1095 C1094 1.355 . S
C1095 C1097 1.419 . S
C1096 C1094 1.415 . S
C1096 C1101 1.425 . S
C1096 C1103 1.409 . S
C1097 H1089 0.930 . S
C1097 C1095 1.419 . S
C1097 C1098 1.362 . S
C1098 H1090 0.930 . S
C1098 C1097 1.362 . S
C1098 C1101 1.409 . S
C1099 H1091 0.930 . S
C1099 C1100 1.355 . S
C1099 C1101 1.415 . S
C1100 C1099 1.355 . S
C1100 C1102 1.419 . S
C1101 C1096 1.425 . S
C1101 C1098 1.409 . S
C1101 C1099 1.415 . S
C1102 H1092 0.930 . S
C1102 C1100 1.419 . S
C1102 C1103 1.362 . S
C1103 H1093 0.930 . S
C1103 C1096 1.409 . S
C1103 C1102 1.362 . S
H1104 C1110 0.930 . S
H1105 C1113 0.930 . S
H1106 C1114 0.930 . S
H1107 C1115 0.930 . S
H1108 C1118 0.930 . S
H1109 C1119 0.930 . S
C1110 H1104 0.930 . S
C1110 C1111 1.355 . S
C1110 C1112 1.415 . S
C1111 C1110 1.355 . S
C1111 C1113 1.419 1_556 S
C1112 C1110 1.415 . S
C1112 C1117 1.425 1_566 S
C1112 C1119 1.409 1_565 S
C1113 H1105 0.930 . S
C1113 C1111 1.419 1_554 S
C1113 C1114 1.362 . S
C1114 H1106 0.930 . S
C1114 C1113 1.362 . S
C1114 C1117 1.409 1_565 S
C1115 H1107 0.930 . S
C1115 C1116 1.355 . S
C1115 C1117 1.415 . S
C1116 C1115 1.355 . S
C1116 C1118 1.419 1_554 S
C1117 C1112 1.425 1_544 S
C1117 C1114 1.409 1_545 S
C1117 C1115 1.415 . S
C1118 H1108 0.930 . S
C1118 C1116 1.419 1_556 S
C1118 C1119 1.362 . S
C1119 H1109 0.930 . S
C1119 C1112 1.409 1_545 S
C1119 C1118 1.362 . S
H1120 C1126 0.930 . S
H1121 C1129 0.930 . S
H1122 C1130 0.930 . S
H1123 C1131 0.930 . S
H1124 C1134 0.930 . S
H1125 C1135 0.930 . S
C1126 H1120 0.930 . S
C1126 C1127 1.355 . S
C1126 C1128 1.415 . S
C1127 C1126 1.355 . S
C1127 C1129 1.419 . S
C1128 C1126 1.415 . S
C1128 C1133 1.425 . S
C1128 C1135 1.409 . S
C1129 H1121 0.930 . S
C1129 C1127 1.419 . S
C1129 C1130 1.362 . S
C1130 H1122 0.930 . S
C1130 C1129 1.362 . S
C1130 C1133 1.409 . S
C1131 H1123 0.930 . S
C1131 C1132 1.355 . S
C1131 C1133 1.415 . S
C1132 C1131 1.355 . S
C1132 C1134 1.419 . S
C1133 C1128 1.425 . S
C1133 C1130 1.409 . S
C1133 C1131 1.415 . S
C1134 H1124 0.930 . S
C1134 C1132 1.419 . S
C1134 C1135 1.362 . S
C1135 H1125 0.930 . S
C1135 C1128 1.409 . S
C1135 C1134 1.362 . S
H1136 C1142 0.930 . S
H1137 C1145 0.930 . S
H1138 C1146 0.930 . S
H1139 C1147 0.930 . S
H1140 C1150 0.930 . S
H1141 C1151 0.930 . S
C1142 H1136 0.930 . S
C1142 C1143 1.355 . S
C1142 C1144 1.415 . S
C1143 C1142 1.355 . S
C1143 C1145 1.419 1_565 S
C1144 C1142 1.415 . S
C1144 C1149 1.425 1_565 S
C1144 C1151 1.409 . S
C1145 H1137 0.930 . S
C1145 C1143 1.419 1_545 S
C1145 C1146 1.362 . S
C1146 H1138 0.930 . S
C1146 C1145 1.362 . S
C1146 C1149 1.409 . S
C1147 H1139 0.930 . S
C1147 C1148 1.355 . S
C1147 C1149 1.415 . S
C1148 C1147 1.355 . S
C1148 C1150 1.419 1_545 S
C1149 C1144 1.425 1_545 S
C1149 C1146 1.409 . S
C1149 C1147 1.415 . S
C1150 H1140 0.930 . S
C1150 C1148 1.419 1_565 S
C1150 C1151 1.362 . S
C1151 H1141 0.930 . S
C1151 C1144 1.409 . S
C1151 C1150 1.362 . S
H1152 C1158 0.930 . S
H1153 C1161 0.930 . S
H1154 C1162 0.930 . S
H1155 C1163 0.930 . S
H1156 C1166 0.930 . S
H1157 C1167 0.930 . S
C1158 H1152 0.930 . S
C1158 C1159 1.355 . S
C1158 C1160 1.415 . S
C1159 C1158 1.355 . S
C1159 C1161 1.419 . S
C1160 C1158 1.415 . S
C1160 C1165 1.425 . S
C1160 C1167 1.409 . S
C1161 H1153 0.930 . S
C1161 C1159 1.419 . S
C1161 C1162 1.362 . S
C1162 H1154 0.930 . S
C1162 C1161 1.362 . S
C1162 C1165 1.409 . S
C1163 H1155 0.930 . S
C1163 C1164 1.355 . S
C1163 C1165 1.415 . S
C1164 C1163 1.355 . S
C1164 C1166 1.419 . S
C1165 C1160 1.425 . S
C1165 C1162 1.409 . S
C1165 C1163 1.415 . S
C1166 H1156 0.930 . S
C1166 C1164 1.419 . S
C1166 C1167 1.362 . S
C1167 H1157 0.930 . S
C1167 C1160 1.409 . S
C1167 C1166 1.362 . S
H1168 C1174 0.930 . S
H1169 C1177 0.930 . S
H1170 C1178 0.930 . S
H1171 C1179 0.930 . S
H1172 C1182 0.930 . S
H1173 C1183 0.930 . S
C1174 H1168 0.930 . S
C1174 C1175 1.355 1_545 S
C1174 C1176 1.415 1_554 S
C1175 C1174 1.355 1_565 S
C1175 C1177 1.419 . S
C1176 C1174 1.415 1_556 S
C1176 C1181 1.425 1_446 S
C1176 C1183 1.409 . S
C1177 H1169 0.930 . S
C1177 C1175 1.419 . S
C1177 C1178 1.362 1_455 S
C1178 H1170 0.930 . S
C1178 C1177 1.362 1_655 S
C1178 C1181 1.409 . S
C1179 H1171 0.930 . S
C1179 C1180 1.355 1_565 S
C1179 C1181 1.415 1_556 S
C1180 C1179 1.355 1_545 S
C1180 C1182 1.419 . S
C1181 C1176 1.425 1_664 S
C1181 C1178 1.409 . S
C1181 C1179 1.415 1_554 S
C1182 H1172 0.930 . S
C1182 C1180 1.419 . S
C1182 C1183 1.362 1_655 S
C1183 H1173 0.930 . S
C1183 C1176 1.409 . S
C1183 C1182 1.362 1_455 S
H1184 C1190 0.930 . S
H1185 C1193 0.930 . S
H1186 C1194 0.930 . S
H1187 C1195 0.930 . S
H1188 C1198 0.930 . S
H1189 C1199 0.930 . S
C1190 H1184 0.930 . S
C1190 C1191 1.355 . S
C1190 C1192 1.415 . S
C1191 C1190 1.355 . S
C1191 C1193 1.419 . S
C1192 C1190 1.415 . S
C1192 C1197 1.425 . S
C1192 C1199 1.409 . S
C1193 H1185 0.930 . S
C1193 C1191 1.419 . S
C1193 C1194 1.362 . S
C1194 H1186 0.930 . S
C1194 C1193 1.362 . S
C1194 C1197 1.409 . S
C1195 H1187 0.930 . S
C1195 C1196 1.355 . S
C1195 C1197 1.415 . S
C1196 C1195 1.355 . S
C1196 C1198 1.419 . S
C1197 C1192 1.425 . S
C1197 C1194 1.409 . S
C1197 C1195 1.415 . S
C1198 H1188 0.930 . S
C1198 C1196 1.419 . S
C1198 C1199 1.362 . S
C1199 H1189 0.930 . S
C1199 C1192 1.409 . S
C1199 C1198 1.362 . S
H1200 C1206 0.930 . S
H1201 C1209 0.930 . S
H1202 C1210 0.930 . S
H1203 C1211 0.930 . S
H1204 C1214 0.930 . S
H1205 C1215 0.930 . S
C1206 H1200 0.930 . S
C1206 C1207 1.355 . S
C1206 C1208 1.415 . S
C1207 C1206 1.355 . S
C1207 C1209 1.419 . S
C1208 C1206 1.415 . S
C1208 C1213 1.425 . S
C1208 C1215 1.409 . S
C1209 H1201 0.930 . S
C1209 C1207 1.419 . S
C1209 C1210 1.362 . S
C1210 H1202 0.930 . S
C1210 C1209 1.362 . S
C1210 C1213 1.409 . S
C1211 H1203 0.930 . S
C1211 C1212 1.355 . S
C1211 C1213 1.415 . S
C1212 C1211 1.355 . S
C1212 C1214 1.419 . S
C1213 C1208 1.425 . S
C1213 C1210 1.409 . S
C1213 C1211 1.415 . S
C1214 H1204 0.930 . S
C1214 C1212 1.419 . S
C1214 C1215 1.362 . S
C1215 H1205 0.930 . S
C1215 C1208 1.409 . S
C1215 C1214 1.362 . S
H1216 C1222 0.930 . S
H1217 C1225 0.930 . S
H1218 C1226 0.930 . S
H1219 C1227 0.930 . S
H1220 C1230 0.930 . S
H1221 C1231 0.930 . S
C1222 H1216 0.930 . S
C1222 C1223 1.355 . S
C1222 C1224 1.415 . S
C1223 C1222 1.355 . S
C1223 C1225 1.419 . S
C1224 C1222 1.415 . S
C1224 C1229 1.425 . S
C1224 C1231 1.409 . S
C1225 H1217 0.930 . S
C1225 C1223 1.419 . S
C1225 C1226 1.362 . S
C1226 H1218 0.930 . S
C1226 C1225 1.362 . S
C1226 C1229 1.409 . S
C1227 H1219 0.930 . S
C1227 C1228 1.355 . S
C1227 C1229 1.415 . S
C1228 C1227 1.355 . S
C1228 C1230 1.419 . S
C1229 C1224 1.425 . S
C1229 C1226 1.409 . S
C1229 C1227 1.415 . S
C1230 H1220 0.930 . S
C1230 C1228 1.419 . S
C1230 C1231 1.362 . S
C1231 H1221 0.930 . S
C1231 C1224 1.409 . S
C1231 C1230 1.362 . S
H1232 C1238 0.930 . S
H1233 C1241 0.930 . S
H1234 C1242 0.930 . S
H1235 C1243 0.930 . S
H1236 C1246 0.930 . S
H1237 C1247 0.930 . S
C1238 H1232 0.930 . S
C1238 C1239 1.355 . S
C1238 C1240 1.415 . S
C1239 C1238 1.355 . S
C1239 C1241 1.419 . S
C1240 C1238 1.415 . S
C1240 C1245 1.425 . S
C1240 C1247 1.409 . S
C1241 H1233 0.930 . S
C1241 C1239 1.419 . S
C1241 C1242 1.362 . S
C1242 H1234 0.930 . S
C1242 C1241 1.362 . S
C1242 C1245 1.409 . S
C1243 H1235 0.930 . S
C1243 C1244 1.355 . S
C1243 C1245 1.415 . S
C1244 C1243 1.355 . S
C1244 C1246 1.419 . S
C1245 C1240 1.425 . S
C1245 C1242 1.409 . S
C1245 C1243 1.415 . S
C1246 H1236 0.930 . S
C1246 C1244 1.419 . S
C1246 C1247 1.362 . S
C1247 H1237 0.930 . S
C1247 C1240 1.409 . S
C1247 C1246 1.362 . S
H1248 C1254 0.930 . S
H1249 C1257 0.930 . S
H1250 C1258 0.931 . S
H1251 C1259 0.930 . S
H1252 C1262 0.930 . S
H1253 C1263 0.931 . S
C1254 H1248 0.930 . S
C1254 C1255 1.355 . S
C1254 C1256 1.415 . S
C1255 C1254 1.355 . S
C1255 C1257 1.419 . S
C1256 C1254 1.415 . S
C1256 C1261 1.425 1_556 S
C1256 C1263 1.409 1_556 S
C1257 H1249 0.930 . S
C1257 C1255 1.419 . S
C1257 C1258 1.362 . S
C1258 H1250 0.931 . S
C1258 C1257 1.362 . S
C1258 C1261 1.409 1_556 S
C1259 H1251 0.930 . S
C1259 C1260 1.355 . S
C1259 C1261 1.415 . S
C1260 C1259 1.355 . S
C1260 C1262 1.419 . S
C1261 C1256 1.425 1_554 S
C1261 C1258 1.409 1_554 S
C1261 C1259 1.415 . S
C1262 H1252 0.930 . S
C1262 C1260 1.419 . S
C1262 C1263 1.362 . S
C1263 H1253 0.931 . S
C1263 C1256 1.409 1_554 S
C1263 C1262 1.362 . S
H1264 C1270 0.930 . S
H1265 C1273 0.930 . S
H1266 C1274 0.930 . S
H1267 C1275 0.930 . S
H1268 C1278 0.930 . S
H1269 C1279 0.930 . S
C1270 H1264 0.930 . S
C1270 C1271 1.355 . S
C1270 C1272 1.415 1_455 S
C1271 C1270 1.355 . S
C1271 C1273 1.419 . S
C1272 C1270 1.415 1_655 S
C1272 C1277 1.425 1_655 S
C1272 C1279 1.409 . S
C1273 H1265 0.930 . S
C1273 C1271 1.419 . S
C1273 C1274 1.362 . S
C1274 H1266 0.930 . S
C1274 C1273 1.362 . S
C1274 C1277 1.409 . S
C1275 H1267 0.930 . S
C1275 C1276 1.355 . S
C1275 C1277 1.415 1_655 S
C1276 C1275 1.355 . S
C1276 C1278 1.419 . S
C1277 C1272 1.425 1_455 S
C1277 C1274 1.409 . S
C1277 C1275 1.415 1_455 S
C1278 H1268 0.930 . S
C1278 C1276 1.419 . S
C1278 C1279 1.362 . S
C1279 H1269 0.930 . S
C1279 C1272 1.409 . S
C1279 C1278 1.362 . S
H1280 C1286 0.901 1_554 S
H1281 C1289 0.930 . S
H1282 C1290 0.930 . S
H1283 C1291 0.901 1_556 S
H1284 C1294 0.930 . S
H1285 C1295 0.930 . S
C1286 H1280 0.901 1_556 S
C1286 C1287 1.400 . S
C1286 C1288 1.399 1_556 S
C1287 C1286 1.400 . S
C1287 C1289 1.419 . S
C1288 C1286 1.399 1_554 S
C1288 C1293 1.425 1_454 S
C1288 C1295 1.409 . S
C1289 H1281 0.930 . S
C1289 C1287 1.419 . S
C1289 C1290 1.362 1_455 S
C1290 H1282 0.930 . S
C1290 C1289 1.362 1_655 S
C1290 C1293 1.409 . S
C1291 H1283 0.901 1_554 S
C1291 C1292 1.400 . S
C1291 C1293 1.399 1_554 S
C1292 C1291 1.400 . S
C1292 C1294 1.419 . S
C1293 C1288 1.425 1_656 S
C1293 C1290 1.409 . S
C1293 C1291 1.399 1_556 S
C1294 H1284 0.930 . S
C1294 C1292 1.419 . S
C1294 C1295 1.362 1_655 S
C1295 H1285 0.930 . S
C1295 C1288 1.409 . S
C1295 C1294 1.362 1_455 S
H1296 C1302 0.930 . S
H1297 C1305 0.930 . S
H1298 C1306 0.930 . S
H1299 C1307 0.930 . S
H1300 C1310 0.930 . S
H1301 C1311 0.930 . S
C1302 H1296 0.930 . S
C1302 C1303 1.355 . S
C1302 C1304 1.415 . S
C1303 C1302 1.355 . S
C1303 C1305 1.419 . S
C1304 C1302 1.415 . S
C1304 C1309 1.425 . S
C1304 C1311 1.409 . S
C1305 H1297 0.930 . S
C1305 C1303 1.419 . S
C1305 C1306 1.362 . S
C1306 H1298 0.930 . S
C1306 C1305 1.362 . S
C1306 C1309 1.409 . S
C1307 H1299 0.930 . S
C1307 C1308 1.355 . S
C1307 C1309 1.415 . S
C1308 C1307 1.355 . S
C1308 C1310 1.419 . S
C1309 C1304 1.425 . S
C1309 C1306 1.409 . S
C1309 C1307 1.415 . S
C1310 H1300 0.930 . S
C1310 C1308 1.419 . S
C1310 C1311 1.362 . S
C1311 H1301 0.930 . S
C1311 C1304 1.409 . S
C1311 C1310 1.362 . S
H1312 C1318 0.930 . S
H1313 C1321 0.930 . S
H1314 C1322 0.930 . S
H1315 C1323 0.930 . S
H1316 C1326 0.930 . S
H1317 C1327 0.930 . S
C1318 H1312 0.930 . S
C1318 C1319 1.355 . S
C1318 C1320 1.415 . S
C1319 C1318 1.355 . S
C1319 C1321 1.419 . S
C1320 C1318 1.415 . S
C1320 C1325 1.425 . S
C1320 C1327 1.409 . S
C1321 H1313 0.930 . S
C1321 C1319 1.419 . S
C1321 C1322 1.362 . S
C1322 H1314 0.930 . S
C1322 C1321 1.362 . S
C1322 C1325 1.409 . S
C1323 H1315 0.930 . S
C1323 C1324 1.355 . S
C1323 C1325 1.415 . S
C1324 C1323 1.355 . S
C1324 C1326 1.419 . S
C1325 C1320 1.425 . S
C1325 C1322 1.409 . S
C1325 C1323 1.415 . S
C1326 H1316 0.930 . S
C1326 C1324 1.419 . S
C1326 C1327 1.362 . S
C1327 H1317 0.930 . S
C1327 C1320 1.409 . S
C1327 C1326 1.362 . S
H1328 C1334 0.930 . S
H1329 C1337 0.930 . S
H1330 C1338 0.930 . S
H1331 C1339 0.930 . S
H1332 C1342 0.930 . S
H1333 C1343 0.930 . S
C1334 H1328 0.930 . S
C1334 C1335 1.355 . S
C1334 C1336 1.415 1_655 S
C1335 C1334 1.355 . S
C1335 C1337 1.419 . S
C1336 C1334 1.415 1_455 S
C1336 C1341 1.425 . S
C1336 C1343 1.409 . S
C1337 H1329 0.930 . S
C1337 C1335 1.419 . S
C1337 C1338 1.362 . S
C1338 H1330 0.930 . S
C1338 C1337 1.362 . S
C1338 C1341 1.409 1_655 S
C1339 H1331 0.930 . S
C1339 C1340 1.355 . S
C1339 C1341 1.415 . S
C1340 C1339 1.355 . S
C1340 C1342 1.419 . S
C1341 C1336 1.425 . S
C1341 C1338 1.409 1_455 S
C1341 C1339 1.415 . S
C1342 H1332 0.930 . S
C1342 C1340 1.419 . S
C1342 C1343 1.362 . S
C1343 H1333 0.930 . S
C1343 C1336 1.409 . S
C1343 C1342 1.362 . S
H1344 C1350 0.930 . S
H1345 C1353 0.930 . S
H1346 C1354 0.930 . S
H1347 C1355 0.930 . S
H1348 C1358 0.930 . S
H1349 C1359 0.930 . S
C1350 H1344 0.930 . S
C1350 C1351 1.355 . S
C1350 C1352 1.415 . S
C1351 C1350 1.355 . S
C1351 C1353 1.419 . S
C1352 C1350 1.415 . S
C1352 C1357 1.425 . S
C1352 C1359 1.409 . S
C1353 H1345 0.930 . S
C1353 C1351 1.419 . S
C1353 C1354 1.362 . S
C1354 H1346 0.930 . S
C1354 C1353 1.362 . S
C1354 C1357 1.409 . S
C1355 H1347 0.930 . S
C1355 C1356 1.355 . S
C1355 C1357 1.415 . S
C1356 C1355 1.355 . S
C1356 C1358 1.419 . S
C1357 C1352 1.425 . S
C1357 C1354 1.409 . S
C1357 C1355 1.415 . S
C1358 H1348 0.930 . S
C1358 C1356 1.419 . S
C1358 C1359 1.362 . S
C1359 H1349 0.930 . S
C1359 C1352 1.409 . S
C1359 C1358 1.362 . S
H1360 C1366 0.930 . S
H1361 C1369 0.930 . S
H1362 C1370 0.930 . S
H1363 C1371 0.930 . S
H1364 C1374 0.930 . S
H1365 C1375 0.930 . S
C1366 H1360 0.930 . S
C1366 C1367 1.355 . S
C1366 C1368 1.415 . S
C1367 C1366 1.355 . S
C1367 C1369 1.419 . S
C1368 C1366 1.415 . S
C1368 C1373 1.425 . S
C1368 C1375 1.409 . S
C1369 H1361 0.930 . S
C1369 C1367 1.419 . S
C1369 C1370 1.362 . S
C1370 H1362 0.930 . S
C1370 C1369 1.362 . S
C1370 C1373 1.409 . S
C1371 H1363 0.930 . S
C1371 C1372 1.355 . S
C1371 C1373 1.415 . S
C1372 C1371 1.355 . S
C1372 C1374 1.419 . S
C1373 C1368 1.425 . S
C1373 C1370 1.409 . S
C1373 C1371 1.415 . S
C1374 H1364 0.930 . S
C1374 C1372 1.419 . S
C1374 C1375 1.362 . S
C1375 H1365 0.930 . S
C1375 C1368 1.409 . S
C1375 C1374 1.362 . S
H1376 C1382 0.930 . S
H1377 C1385 0.930 . S
H1378 C1386 0.930 . S
H1379 C1387 0.930 . S
H1380 C1390 0.930 . S
H1381 C1391 0.930 . S
C1382 H1376 0.930 . S
C1382 C1383 1.355 . S
C1382 C1384 1.415 . S
C1383 C1382 1.355 . S
C1383 C1385 1.419 . S
C1384 C1382 1.415 . S
C1384 C1389 1.425 . S
C1384 C1391 1.409 . S
C1385 H1377 0.930 . S
C1385 C1383 1.419 . S
C1385 C1386 1.362 . S
C1386 H1378 0.930 . S
C1386 C1385 1.362 . S
C1386 C1389 1.409 . S
C1387 H1379 0.930 . S
C1387 C1388 1.355 . S
C1387 C1389 1.415 . S
C1388 C1387 1.355 . S
C1388 C1390 1.419 . S
C1389 C1384 1.425 . S
C1389 C1386 1.409 . S
C1389 C1387 1.415 . S
C1390 H1380 0.930 . S
C1390 C1388 1.419 . S
C1390 C1391 1.362 . S
C1391 H1381 0.930 . S
C1391 C1384 1.409 . S
C1391 C1390 1.362 . S
H1392 C1398 0.930 . S
H1393 C1401 0.930 . S
H1394 C1402 0.930 . S
H1395 C1403 0.930 . S
H1396 C1406 0.930 . S
H1397 C1407 0.930 . S
C1398 H1392 0.930 . S
C1398 C1399 1.355 . S
C1398 C1400 1.415 . S
C1399 C1398 1.355 . S
C1399 C1401 1.419 . S
C1400 C1398 1.415 . S
C1400 C1405 1.425 . S
C1400 C1407 1.409 . S
C1401 H1393 0.930 . S
C1401 C1399 1.419 . S
C1401 C1402 1.362 . S
C1402 H1394 0.930 . S
C1402 C1401 1.362 . S
C1402 C1405 1.409 . S
C1403 H1395 0.930 . S
C1403 C1404 1.355 . S
C1403 C1405 1.415 . S
C1404 C1403 1.355 . S
C1404 C1406 1.419 . S
C1405 C1400 1.425 . S
C1405 C1402 1.409 . S
C1405 C1403 1.415 . S
C1406 H1396 0.930 . S
C1406 C1404 1.419 . S
C1406 C1407 1.362 . S
C1407 H1397 0.930 . S
C1407 C1400 1.409 . S
C1407 C1406 1.362 . S
H1408 C1414 0.930 . S
H1409 C1417 0.930 . S
H1410 C1418 0.930 . S
H1411 C1419 0.930 . S
H1412 C1422 0.930 . S
H1413 C1423 0.930 . S
C1414 H1408 0.930 . S
C1414 C1415 1.355 . S
C1414 C1416 1.415 . S
C1415 C1414 1.355 . S
C1415 C1417 1.419 . S
C1416 C1414 1.415 . S
C1416 C1421 1.425 . S
C1416 C1423 1.409 . S
C1417 H1409 0.930 . S
C1417 C1415 1.419 . S
C1417 C1418 1.362 . S
C1418 H1410 0.930 . S
C1418 C1417 1.362 . S
C1418 C1421 1.409 . S
C1419 H1411 0.930 . S
C1419 C1420 1.355 . S
C1419 C1421 1.415 . S
C1420 C1419 1.355 . S
C1420 C1422 1.419 . S
C1421 C1416 1.425 . S
C1421 C1418 1.409 . S
C1421 C1419 1.415 . S
C1422 H1412 0.930 . S
C1422 C1420 1.419 . S
C1422 C1423 1.362 . S
C1423 H1413 0.930 . S
C1423 C1416 1.409 . S
C1423 C1422 1.362 . S
H1424 C1430 0.930 . S
H1425 C1433 0.930 . S
H1426 C1434 0.930 . S
H1427 C1435 0.930 . S
H1428 C1438 0.930 . S
H1429 C1439 0.930 1_655 S
C1430 H1424 0.930 . S
C1430 C1431 1.355 . S
C1430 C1432 1.415 . S
C1431 C1430 1.355 . S
C1431 C1433 1.419 . S
C1432 C1430 1.415 . S
C1432 C1437 1.425 1_655 S
C1432 C1439 1.409 1_655 S
C1433 H1425 0.930 . S
C1433 C1431 1.419 . S
C1433 C1434 1.362 1_655 S
C1434 H1426 0.930 . S
C1434 C1433 1.362 1_455 S
C1434 C1437 1.409 . S
C1435 H1427 0.930 . S
C1435 C1436 1.355 . S
C1435 C1437 1.415 . S
C1436 C1435 1.355 . S
C1436 C1438 1.419 . S
C1437 C1432 1.425 1_455 S
C1437 C1434 1.409 . S
C1437 C1435 1.415 . S
C1438 H1428 0.930 . S
C1438 C1436 1.419 . S
C1438 C1439 1.362 . S
C1439 H1429 0.930 1_455 S
C1439 C1432 1.409 1_455 S
C1439 C1438 1.362 . S
H1440 C1446 0.930 . S
H1441 C1449 0.930 . S
H1442 C1450 0.930 . S
H1443 C1451 0.930 . S
H1444 C1454 0.930 . S
H1445 C1455 0.930 . S
C1446 H1440 0.930 . S
C1446 C1447 1.355 . S
C1446 C1448 1.415 . S
C1447 C1446 1.355 . S
C1447 C1449 1.419 . S
C1448 C1446 1.415 . S
C1448 C1453 1.425 . S
C1448 C1455 1.409 . S
C1449 H1441 0.930 . S
C1449 C1447 1.419 . S
C1449 C1450 1.362 . S
C1450 H1442 0.930 . S
C1450 C1449 1.362 . S
C1450 C1453 1.409 . S
C1451 H1443 0.930 . S
C1451 C1452 1.355 . S
C1451 C1453 1.415 . S
C1452 C1451 1.355 . S
C1452 C1454 1.419 . S
C1453 C1448 1.425 . S
C1453 C1450 1.409 . S
C1453 C1451 1.415 . S
C1454 H1444 0.930 . S
C1454 C1452 1.419 . S
C1454 C1455 1.362 . S
C1455 H1445 0.930 . S
C1455 C1448 1.409 . S
C1455 C1454 1.362 . S
H1456 C1462 0.930 . S
H1457 C1465 0.930 . S
H1458 C1466 0.930 . S
H1459 C1467 0.930 . S
H1460 C1470 0.930 . S
H1461 C1471 0.930 . S
C1462 H1456 0.930 . S
C1462 C1463 1.355 . S
C1462 C1464 1.415 1_455 S
C1463 C1462 1.355 . S
C1463 C1465 1.419 . S
C1464 C1462 1.415 1_655 S
C1464 C1469 1.425 . S
C1464 C1471 1.409 . S
C1465 H1457 0.930 . S
C1465 C1463 1.419 . S
C1465 C1466 1.362 . S
C1466 H1458 0.930 . S
C1466 C1465 1.362 . S
C1466 C1469 1.409 1_455 S
C1467 H1459 0.930 . S
C1467 C1468 1.355 . S
C1467 C1469 1.415 . S
C1468 C1467 1.355 . S
C1468 C1470 1.419 . S
C1469 C1464 1.425 . S
C1469 C1466 1.409 1_655 S
C1469 C1467 1.415 . S
C1470 H1460 0.930 . S
C1470 C1468 1.419 . S
C1470 C1471 1.362 . S
C1471 H1461 0.930 . S
C1471 C1464 1.409 . S
C1471 C1470 1.362 . S
H1472 C1478 0.930 . S
H1473 C1481 0.930 . S
H1474 C1482 0.930 . S
H1475 C1483 0.930 . S
H1476 C1486 0.930 . S
H1477 C1487 0.930 . S
C1478 H1472 0.930 . S
C1478 C1479 1.355 . S
C1478 C1480 1.415 . S
C1479 C1478 1.355 . S
C1479 C1481 1.419 . S
C1480 C1478 1.415 . S
C1480 C1485 1.425 . S
C1480 C1487 1.409 . S
C1481 H1473 0.930 . S
C1481 C1479 1.419 . S
C1481 C1482 1.362 . S
C1482 H1474 0.930 . S
C1482 C1481 1.362 . S
C1482 C1485 1.409 . S
C1483 H1475 0.930 . S
C1483 C1484 1.355 . S
C1483 C1485 1.415 . S
C1484 C1483 1.355 . S
C1484 C1486 1.419 . S
C1485 C1480 1.425 . S
C1485 C1482 1.409 . S
C1485 C1483 1.415 . S
C1486 H1476 0.930 . S
C1486 C1484 1.419 . S
C1486 C1487 1.362 . S
C1487 H1477 0.930 . S
C1487 C1480 1.409 . S
C1487 C1486 1.362 . S
H1488 C1494 0.930 . S
H1489 C1497 0.930 . S
H1490 C1498 0.930 . S
H1491 C1499 0.930 . S
H1492 C1502 0.930 . S
H1493 C1503 0.930 . S
C1494 H1488 0.930 . S
C1494 C1495 1.355 . S
C1494 C1496 1.415 . S
C1495 C1494 1.355 . S
C1495 C1497 1.419 . S
C1496 C1494 1.415 . S
C1496 C1501 1.425 . S
C1496 C1503 1.409 . S
C1497 H1489 0.930 . S
C1497 C1495 1.419 . S
C1497 C1498 1.362 . S
C1498 H1490 0.930 . S
C1498 C1497 1.362 . S
C1498 C1501 1.409 . S
C1499 H1491 0.930 . S
C1499 C1500 1.355 . S
C1499 C1501 1.415 . S
C1500 C1499 1.355 . S
C1500 C1502 1.419 . S
C1501 C1496 1.425 . S
C1501 C1498 1.409 . S
C1501 C1499 1.415 . S
C1502 H1492 0.930 . S
C1502 C1500 1.419 . S
C1502 C1503 1.362 . S
C1503 H1493 0.930 . S
C1503 C1496 1.409 . S
C1503 C1502 1.362 . S
H1504 C1510 0.930 . S
H1505 C1513 0.930 . S
H1506 C1514 0.930 . S
H1507 C1515 0.930 . S
H1508 C1518 0.930 . S
H1509 C1519 0.930 . S
C1510 H1504 0.930 . S
C1510 C1511 1.355 . S
C1510 C1512 1.415 . S
C1511 C1510 1.355 . S
C1511 C1513 1.419 . S
C1512 C1510 1.415 . S
C1512 C1517 1.425 . S
C1512 C1519 1.409 . S
C1513 H1505 0.930 . S
C1513 C1511 1.419 . S
C1513 C1514 1.362 . S
C1514 H1506 0.930 . S
C1514 C1513 1.362 . S
C1514 C1517 1.409 . S
C1515 H1507 0.930 . S
C1515 C1516 1.355 . S
C1515 C1517 1.415 . S
C1516 C1515 1.355 . S
C1516 C1518 1.419 . S
C1517 C1512 1.425 . S
C1517 C1514 1.409 . S
C1517 C1515 1.415 . S
C1518 H1508 0.930 . S
C1518 C1516 1.419 . S
C1518 C1519 1.362 . S
C1519 H1509 0.930 . S
C1519 C1512 1.409 . S
C1519 C1518 1.362 . S
H1520 C1526 0.930 . S
H1521 C1529 0.930 . S
H1522 C1530 0.930 . S
H1523 C1531 0.930 . S
H1524 C1534 0.930 . S
H1525 C1535 0.930 . S
C1526 H1520 0.930 . S
C1526 C1527 1.355 . S
C1526 C1528 1.415 . S
C1527 C1526 1.355 . S
C1527 C1529 1.419 . S
C1528 C1526 1.415 . S
C1528 C1533 1.425 . S
C1528 C1535 1.409 . S
C1529 H1521 0.930 . S
C1529 C1527 1.419 . S
C1529 C1530 1.362 . S
C1530 H1522 0.930 . S
C1530 C1529 1.362 . S
C1530 C1533 1.409 . S
C1531 H1523 0.930 . S
C1531 C1532 1.355 . S
C1531 C1533 1.415 . S
C1532 C1531 1.355 . S
C1532 C1534 1.419 . S
C1533 C1528 1.425 . S
C1533 C1530 1.409 . S
C1533 C1531 1.415 . S
C1534 H1524 0.930 . S
C1534 C1532 1.419 . S
C1534 C1535 1.362 . S
C1535 H1525 0.930 . S
C1535 C1528 1.409 . S
C1535 C1534 1.362 . S
H1536 C1542 0.930 . S
H1537 C1545 0.930 . S
H1538 C1546 0.930 . S
H1539 C1547 0.930 . S
H1540 C1550 0.930 . S
H1541 C1551 0.930 . S
C1542 H1536 0.930 . S
C1542 C1543 1.355 . S
C1542 C1544 1.415 . S
C1543 C1542 1.355 . S
C1543 C1545 1.419 . S
C1544 C1542 1.415 . S
C1544 C1549 1.425 . S
C1544 C1551 1.409 . S
C1545 H1537 0.930 . S
C1545 C1543 1.419 . S
C1545 C1546 1.362 . S
C1546 H1538 0.930 . S
C1546 C1545 1.362 . S
C1546 C1549 1.409 . S
C1547 H1539 0.930 . S
C1547 C1548 1.355 . S
C1547 C1549 1.415 . S
C1548 C1547 1.355 . S
C1548 C1550 1.419 . S
C1549 C1544 1.425 . S
C1549 C1546 1.409 . S
C1549 C1547 1.415 . S
C1550 H1540 0.930 . S
C1550 C1548 1.419 . S
C1550 C1551 1.362 . S
C1551 H1541 0.930 . S
C1551 C1544 1.409 . S
C1551 C1550 1.362 . S
H1552 C1558 0.930 . S
H1553 C1561 0.930 . S
H1554 C1562 0.930 . S
H1555 C1563 0.930 . S
H1556 C1566 0.930 . S
H1557 C1567 0.930 . S
C1558 H1552 0.930 . S
C1558 C1559 1.355 . S
C1558 C1560 1.415 . S
C1559 C1558 1.355 . S
C1559 C1561 1.419 . S
C1560 C1558 1.415 . S
C1560 C1565 1.425 . S
C1560 C1567 1.409 . S
C1561 H1553 0.930 . S
C1561 C1559 1.419 . S
C1561 C1562 1.362 . S
C1562 H1554 0.930 . S
C1562 C1561 1.362 . S
C1562 C1565 1.409 . S
C1563 H1555 0.930 . S
C1563 C1564 1.355 . S
C1563 C1565 1.415 1_455 S
C1564 C1563 1.355 . S
C1564 C1566 1.419 . S
C1565 C1560 1.425 . S
C1565 C1562 1.409 . S
C1565 C1563 1.415 1_655 S
C1566 H1556 0.930 . S
C1566 C1564 1.419 . S
C1566 C1567 1.362 1_455 S
C1567 H1557 0.930 . S
C1567 C1560 1.409 . S
C1567 C1566 1.362 1_655 S
H1568 C1574 0.930 . S
H1569 C1577 0.930 . S
H1570 C1578 0.930 . S
H1571 C1579 0.930 . S
H1572 C1582 0.930 . S
H1573 C1583 0.930 . S
C1574 H1568 0.930 . S
C1574 C1575 1.355 . S
C1574 C1576 1.415 . S
C1575 C1574 1.355 . S
C1575 C1577 1.419 . S
C1576 C1574 1.415 . S
C1576 C1581 1.425 . S
C1576 C1583 1.409 . S
C1577 H1569 0.930 . S
C1577 C1575 1.419 . S
C1577 C1578 1.362 . S
C1578 H1570 0.930 . S
C1578 C1577 1.362 . S
C1578 C1581 1.409 . S
C1579 H1571 0.930 . S
C1579 C1580 1.355 . S
C1579 C1581 1.415 . S
C1580 C1579 1.355 . S
C1580 C1582 1.419 . S
C1581 C1576 1.425 . S
C1581 C1578 1.409 . S
C1581 C1579 1.415 . S
C1582 H1572 0.930 . S
C1582 C1580 1.419 . S
C1582 C1583 1.362 . S
C1583 H1573 0.930 . S
C1583 C1576 1.409 . S
C1583 C1582 1.362 . S
H1584 C1590 0.930 . S
H1585 C1593 0.930 . S
H1586 C1594 0.930 . S
H1587 C1595 0.930 . S
H1588 C1598 0.930 . S
H1589 C1599 0.930 . S
C1590 H1584 0.930 . S
C1590 C1591 1.355 . S
C1590 C1592 1.415 . S
C1591 C1590 1.355 . S
C1591 C1593 1.419 . S
C1592 C1590 1.415 . S
C1592 C1597 1.425 . S
C1592 C1599 1.409 . S
C1593 H1585 0.930 . S
C1593 C1591 1.419 . S
C1593 C1594 1.362 . S
C1594 H1586 0.930 . S
C1594 C1593 1.362 . S
C1594 C1597 1.409 . S
C1595 H1587 0.930 . S
C1595 C1596 1.355 . S
C1595 C1597 1.415 . S
C1596 C1595 1.355 . S
C1596 C1598 1.419 . S
C1597 C1592 1.425 . S
C1597 C1594 1.409 . S
C1597 C1595 1.415 . S
C1598 H1588 0.930 . S
C1598 C1596 1.419 . S
C1598 C1599 1.362 . S
C1599 H1589 0.930 . S
C1599 C1592 1.409 . S
C1599 C1598 1.362 . S
H1600 C1606 0.930 . S
H1601 C1609 0.930 . S
H1602 C1610 0.930 . S
H1603 C1611 0.930 . S
H1604 C1614 0.930 . S
H1605 C1615 0.930 . S
C1606 H1600 0.930 . S
C1606 C1607 1.355 . S
C1606 C1608 1.415 . S
C1607 C1606 1.355 . S
C1607 C1609 1.419 . S
C1608 C1606 1.415 . S
C1608 C1613 1.425 . S
C1608 C1615 1.409 . S
C1609 H1601 0.930 . S
C1609 C1607 1.419 . S
C1609 C1610 1.362 . S
C1610 H1602 0.930 . S
C1610 C1609 1.362 . S
C1610 C1613 1.409 . S
C1611 H1603 0.930 . S
C1611 C1612 1.355 . S
C1611 C1613 1.415 . S
C1612 C1611 1.355 . S
C1612 C1614 1.419 . S
C1613 C1608 1.425 . S
C1613 C1610 1.409 . S
C1613 C1611 1.415 . S
C1614 H1604 0.930 . S
C1614 C1612 1.419 . S
C1614 C1615 1.362 . S
C1615 H1605 0.930 . S
C1615 C1608 1.409 . S
C1615 C1614 1.362 . S
H1616 C1622 0.930 . S
H1617 C1625 0.930 . S
H1618 C1626 0.930 1_455 S
H1619 C1627 0.930 . S
H1620 C1630 0.930 . S
H1621 C1631 0.930 . S
C1622 H1616 0.930 . S
C1622 C1623 1.355 . S
C1622 C1624 1.415 . S
C1623 C1622 1.355 . S
C1623 C1625 1.419 . S
C1624 C1622 1.415 . S
C1624 C1629 1.425 1_655 S
C1624 C1631 1.409 . S
C1625 H1617 0.930 . S
C1625 C1623 1.419 . S
C1625 C1626 1.362 . S
C1626 H1618 0.930 1_655 S
C1626 C1625 1.362 . S
C1626 C1629 1.409 1_655 S
C1627 H1619 0.930 . S
C1627 C1628 1.355 . S
C1627 C1629 1.415 . S
C1628 C1627 1.355 . S
C1628 C1630 1.419 . S
C1629 C1624 1.425 1_455 S
C1629 C1626 1.409 1_455 S
C1629 C1627 1.415 . S
C1630 H1620 0.930 . S
C1630 C1628 1.419 . S
C1630 C1631 1.362 1_455 S
C1631 H1621 0.930 . S
C1631 C1624 1.409 . S
C1631 C1630 1.362 1_655 S
H1632 C1638 0.930 . S
H1633 C1641 0.930 . S
H1634 C1642 0.930 . S
H1635 C1643 0.930 . S
H1636 C1646 0.930 . S
H1637 C1647 0.930 . S
C1638 H1632 0.930 . S
C1638 C1639 1.355 . S
C1638 C1640 1.415 . S
C1639 C1638 1.355 . S
C1639 C1641 1.419 . S
C1640 C1638 1.415 . S
C1640 C1645 1.425 . S
C1640 C1647 1.409 . S
C1641 H1633 0.930 . S
C1641 C1639 1.419 . S
C1641 C1642 1.362 . S
C1642 H1634 0.930 . S
C1642 C1641 1.362 . S
C1642 C1645 1.409 . S
C1643 H1635 0.930 . S
C1643 C1644 1.355 . S
C1643 C1645 1.415 . S
C1644 C1643 1.355 . S
C1644 C1646 1.419 . S
C1645 C1640 1.425 . S
C1645 C1642 1.409 . S
C1645 C1643 1.415 . S
C1646 H1636 0.930 . S
C1646 C1644 1.419 . S
C1646 C1647 1.362 . S
C1647 H1637 0.930 . S
C1647 C1640 1.409 . S
C1647 C1646 1.362 . S
H1648 C1654 0.930 . S
H1649 C1657 0.930 . S
H1650 C1658 0.930 . S
H1651 C1659 0.930 . S
H1652 C1662 0.930 . S
H1653 C1663 0.930 . S
C1654 H1648 0.930 . S
C1654 C1655 1.355 . S
C1654 C1656 1.415 . S
C1655 C1654 1.355 . S
C1655 C1657 1.419 . S
C1656 C1654 1.415 . S
C1656 C1661 1.425 . S
C1656 C1663 1.409 1_655 S
C1657 H1649 0.930 . S
C1657 C1655 1.419 . S
C1657 C1658 1.362 . S
C1658 H1650 0.930 . S
C1658 C1657 1.362 . S
C1658 C1661 1.409 . S
C1659 H1651 0.930 . S
C1659 C1660 1.355 . S
C1659 C1661 1.415 1_455 S
C1660 C1659 1.355 . S
C1660 C1662 1.419 . S
C1661 C1656 1.425 . S
C1661 C1658 1.409 . S
C1661 C1659 1.415 1_655 S
C1662 H1652 0.930 . S
C1662 C1660 1.419 . S
C1662 C1663 1.362 . S
C1663 H1653 0.930 . S
C1663 C1656 1.409 1_455 S
C1663 C1662 1.362 . S
H1664 C1670 0.930 . S
H1665 C1673 0.930 . S
H1666 C1674 0.930 . S
H1667 C1675 0.930 . S
H1668 C1678 0.930 . S
H1669 C1679 0.930 . S
C1670 H1664 0.930 . S
C1670 C1671 1.355 . S
C1670 C1672 1.415 . S
C1671 C1670 1.355 . S
C1671 C1673 1.419 . S
C1672 C1670 1.415 . S
C1672 C1677 1.425 . S
C1672 C1679 1.409 . S
C1673 H1665 0.930 . S
C1673 C1671 1.419 . S
C1673 C1674 1.362 . S
C1674 H1666 0.930 . S
C1674 C1673 1.362 . S
C1674 C1677 1.409 . S
C1675 H1667 0.930 . S
C1675 C1676 1.355 . S
C1675 C1677 1.415 . S
C1676 C1675 1.355 . S
C1676 C1678 1.419 . S
C1677 C1672 1.425 . S
C1677 C1674 1.409 . S
C1677 C1675 1.415 . S
C1678 H1668 0.930 . S
C1678 C1676 1.419 . S
C1678 C1679 1.362 . S
C1679 H1669 0.930 . S
C1679 C1672 1.409 . S
C1679 C1678 1.362 . S
H1680 C1686 0.930 . S
H1681 C1689 0.930 . S
H1682 C1690 0.930 . S
H1683 C1691 0.930 . S
H1684 C1694 0.930 . S
H1685 C1695 0.930 . S
C1686 H1680 0.930 . S
C1686 C1687 1.355 . S
C1686 C1688 1.415 . S
C1687 C1686 1.355 . S
C1687 C1689 1.419 . S
C1688 C1686 1.415 . S
C1688 C1693 1.425 . S
C1688 C1695 1.409 . S
C1689 H1681 0.930 . S
C1689 C1687 1.419 . S
C1689 C1690 1.362 . S
C1690 H1682 0.930 . S
C1690 C1689 1.362 . S
C1690 C1693 1.409 . S
C1691 H1683 0.930 . S
C1691 C1692 1.355 . S
C1691 C1693 1.415 . S
C1692 C1691 1.355 . S
C1692 C1694 1.419 . S
C1693 C1688 1.425 . S
C1693 C1690 1.409 . S
C1693 C1691 1.415 . S
C1694 H1684 0.930 . S
C1694 C1692 1.419 . S
C1694 C1695 1.362 . S
C1695 H1685 0.930 . S
C1695 C1688 1.409 . S
C1695 C1694 1.362 . S
H1696 C1702 0.930 . S
H1697 C1705 0.930 . S
H1698 C1706 0.930 . S
H1699 C1707 0.930 . S
H1700 C1710 0.930 . S
H1701 C1711 0.930 . S
C1702 H1696 0.930 . S
C1702 C1703 1.355 . S
C1702 C1704 1.415 . S
C1703 C1702 1.355 . S
C1703 C1705 1.419 . S
C1704 C1702 1.415 . S
C1704 C1709 1.425 . S
C1704 C1711 1.409 . S
C1705 H1697 0.930 . S
C1705 C1703 1.419 . S
C1705 C1706 1.362 . S
C1706 H1698 0.930 . S
C1706 C1705 1.362 . S
C1706 C1709 1.409 . S
C1707 H1699 0.930 . S
C1707 C1708 1.355 . S
C1707 C1709 1.415 . S
C1708 C1707 1.355 . S
C1708 C1710 1.419 . S
C1709 C1704 1.425 . S
C1709 C1706 1.409 . S
C1709 C1707 1.415 . S
C1710 H1700 0.930 . S
C1710 C1708 1.419 . S
C1710 C1711 1.362 . S
C1711 H1701 0.930 . S
C1711 C1704 1.409 . S
C1711 C1710 1.362 . S
H1712 C1718 0.930 . S
H1713 C1721 0.930 . S
H1714 C1722 0.930 . S
H1715 C1723 0.930 . S
H1716 C1726 0.930 . S
H1717 C1727 0.930 . S
C1718 H1712 0.930 . S
C1718 C1719 1.355 . S
C1718 C1720 1.415 . S
C1719 C1718 1.355 . S
C1719 C1721 1.419 . S
C1720 C1718 1.415 . S
C1720 C1725 1.425 . S
C1720 C1727 1.409 . S
C1721 H1713 0.930 . S
C1721 C1719 1.419 . S
C1721 C1722 1.362 . S
C1722 H1714 0.930 . S
C1722 C1721 1.362 . S
C1722 C1725 1.409 . S
C1723 H1715 0.930 . S
C1723 C1724 1.355 . S
C1723 C1725 1.415 . S
C1724 C1723 1.355 . S
C1724 C1726 1.419 . S
C1725 C1720 1.425 . S
C1725 C1722 1.409 . S
C1725 C1723 1.415 . S
C1726 H1716 0.930 . S
C1726 C1724 1.419 . S
C1726 C1727 1.362 . S
C1727 H1717 0.930 . S
C1727 C1720 1.409 . S
C1727 C1726 1.362 . S
H1728 C1734 0.930 . S
H1729 C1737 0.930 . S
H1730 C1738 0.930 . S
H1731 C1739 0.930 . S
H1732 C1742 0.930 . S
H1733 C1743 0.930 . S
C1734 H1728 0.930 . S
C1734 C1735 1.355 . S
C1734 C1736 1.415 . S
C1735 C1734 1.355 . S
C1735 C1737 1.419 . S
C1736 C1734 1.415 . S
C1736 C1741 1.425 . S
C1736 C1743 1.409 . S
C1737 H1729 0.930 . S
C1737 C1735 1.419 . S
C1737 C1738 1.362 . S
C1738 H1730 0.930 . S
C1738 C1737 1.362 . S
C1738 C1741 1.409 . S
C1739 H1731 0.930 . S
C1739 C1740 1.355 . S
C1739 C1741 1.415 . S
C1740 C1739 1.355 . S
C1740 C1742 1.419 . S
C1741 C1736 1.425 . S
C1741 C1738 1.409 . S
C1741 C1739 1.415 . S
C1742 H1732 0.930 . S
C1742 C1740 1.419 . S
C1742 C1743 1.362 . S
C1743 H1733 0.930 . S
C1743 C1736 1.409 . S
C1743 C1742 1.362 . S
H1744 C1750 0.930 . S
H1745 C1753 0.930 . S
H1746 C1754 0.930 . S
H1747 C1755 0.930 . S
H1748 C1758 0.930 . S
H1749 C1759 0.930 . S
C1750 H1744 0.930 . S
C1750 C1751 1.355 . S
C1750 C1752 1.415 . S
C1751 C1750 1.355 . S
C1751 C1753 1.419 . S
C1752 C1750 1.415 . S
C1752 C1757 1.425 . S
C1752 C1759 1.409 1_455 S
C1753 H1745 0.930 . S
C1753 C1751 1.419 . S
C1753 C1754 1.362 . S
C1754 H1746 0.930 . S
C1754 C1753 1.362 . S
C1754 C1757 1.409 . S
C1755 H1747 0.930 . S
C1755 C1756 1.355 . S
C1755 C1757 1.415 1_655 S
C1756 C1755 1.355 . S
C1756 C1758 1.419 . S
C1757 C1752 1.425 . S
C1757 C1754 1.409 . S
C1757 C1755 1.415 1_455 S
C1758 H1748 0.930 . S
C1758 C1756 1.419 . S
C1758 C1759 1.362 . S
C1759 H1749 0.930 . S
C1759 C1752 1.409 1_655 S
C1759 C1758 1.362 . S
H1760 C1766 0.930 . S
H1761 C1769 0.930 . S
H1762 C1770 0.930 . S
H1763 C1771 0.930 . S
H1764 C1774 0.930 . S
H1765 C1775 0.930 . S
C1766 H1760 0.930 . S
C1766 C1767 1.355 . S
C1766 C1768 1.415 . S
C1767 C1766 1.355 . S
C1767 C1769 1.419 . S
C1768 C1766 1.415 . S
C1768 C1773 1.425 . S
C1768 C1775 1.409 . S
C1769 H1761 0.930 . S
C1769 C1767 1.419 . S
C1769 C1770 1.362 . S
C1770 H1762 0.930 . S
C1770 C1769 1.362 . S
C1770 C1773 1.409 . S
C1771 H1763 0.930 . S
C1771 C1772 1.355 . S
C1771 C1773 1.415 . S
C1772 C1771 1.355 . S
C1772 C1774 1.419 . S
C1773 C1768 1.425 . S
C1773 C1770 1.409 . S
C1773 C1771 1.415 . S
C1774 H1764 0.930 . S
C1774 C1772 1.419 . S
C1774 C1775 1.362 . S
C1775 H1765 0.930 . S
C1775 C1768 1.409 . S
C1775 C1774 1.362 . S
H1776 C1782 0.930 . S
H1777 C1785 0.930 . S
H1778 C1786 0.930 1_455 S
H1779 C1787 0.930 . S
H1780 C1790 0.930 . S
H1781 C1791 0.930 . S
C1782 H1776 0.930 . S
C1782 C1783 1.355 . S
C1782 C1784 1.415 1_655 S
C1783 C1782 1.355 . S
C1783 C1785 1.419 . S
C1784 C1782 1.415 1_455 S
C1784 C1789 1.425 . S
C1784 C1791 1.409 . S
C1785 H1777 0.930 . S
C1785 C1783 1.419 . S
C1785 C1786 1.362 . S
C1786 H1778 0.930 1_655 S
C1786 C1785 1.362 . S
C1786 C1789 1.409 1_655 S
C1787 H1779 0.930 . S
C1787 C1788 1.355 . S
C1787 C1789 1.415 . S
C1788 C1787 1.355 . S
C1788 C1790 1.419 . S
C1789 C1784 1.425 . S
C1789 C1786 1.409 1_455 S
C1789 C1787 1.415 . S
C1790 H1780 0.930 . S
C1790 C1788 1.419 . S
C1790 C1791 1.362 . S
C1791 H1781 0.930 . S
C1791 C1784 1.409 . S
C1791 C1790 1.362 . S
H1792 C1798 0.930 . S
H1793 C1801 0.930 . S
H1794 C1802 0.930 . S
H1795 C1803 0.930 . S
H1796 C1806 0.930 . S
H1797 C1807 0.930 . S
C1798 H1792 0.930 . S
C1798 C1799 1.355 . S
C1798 C1800 1.415 . S
C1799 C1798 1.355 . S
C1799 C1801 1.419 . S
C1800 C1798 1.415 . S
C1800 C1805 1.425 . S
C1800 C1807 1.409 . S
C1801 H1793 0.930 . S
C1801 C1799 1.419 . S
C1801 C1802 1.362 . S
C1802 H1794 0.930 . S
C1802 C1801 1.362 . S
C1802 C1805 1.409 . S
C1803 H1795 0.930 . S
C1803 C1804 1.355 . S
C1803 C1805 1.415 . S
C1804 C1803 1.355 . S
C1804 C1806 1.419 . S
C1805 C1800 1.425 . S
C1805 C1802 1.409 . S
C1805 C1803 1.415 . S
C1806 H1796 0.930 . S
C1806 C1804 1.419 . S
C1806 C1807 1.362 . S
C1807 H1797 0.930 . S
C1807 C1800 1.409 . S
C1807 C1806 1.362 . S
H1808 C1814 0.930 . S
H1809 C1817 0.930 . S
H1810 C1818 0.930 . S
H1811 C1819 0.930 . S
H1812 C1822 0.930 . S
H1813 C1823 0.930 . S
C1814 H1808 0.930 . S
C1814 C1815 1.355 . S
C1814 C1816 1.415 . S
C1815 C1814 1.355 . S
C1815 C1817 1.419 . S
C1816 C1814 1.415 . S
C1816 C1821 1.425 . S
C1816 C1823 1.409 . S
C1817 H1809 0.930 . S
C1817 C1815 1.419 . S
C1817 C1818 1.362 . S
C1818 H1810 0.930 . S
C1818 C1817 1.362 . S
C1818 C1821 1.409 . S
C1819 H1811 0.930 . S
C1819 C1820 1.355 . S
C1819 C1821 1.415 . S
C1820 C1819 1.355 . S
C1820 C1822 1.419 . S
C1821 C1816 1.425 . S
C1821 C1818 1.409 . S
C1821 C1819 1.415 . S
C1822 H1812 0.930 . S
C1822 C1820 1.419 . S
C1822 C1823 1.362 . S
C1823 H1813 0.930 . S
C1823 C1816 1.409 . S
C1823 C1822 1.362 . S
H1824 C1830 0.930 . S
H1825 C1833 0.930 . S
H1826 C1834 0.930 . S
H1827 C1835 0.930 . S
H1828 C1838 0.930 . S
H1829 C1839 0.930 . S
C1830 H1824 0.930 . S
C1830 C1831 1.355 . S
C1830 C1832 1.415 . S
C1831 C1830 1.355 . S
C1831 C1833 1.419 . S
C1832 C1830 1.415 . S
C1832 C1837 1.425 . S
C1832 C1839 1.409 . S
C1833 H1825 0.930 . S
C1833 C1831 1.419 . S
C1833 C1834 1.362 . S
C1834 H1826 0.930 . S
C1834 C1833 1.362 . S
C1834 C1837 1.409 . S
C1835 H1827 0.930 . S
C1835 C1836 1.355 . S
C1835 C1837 1.415 . S
C1836 C1835 1.355 . S
C1836 C1838 1.419 . S
C1837 C1832 1.425 . S
C1837 C1834 1.409 . S
C1837 C1835 1.415 . S
C1838 H1828 0.930 . S
C1838 C1836 1.419 . S
C1838 C1839 1.362 . S
C1839 H1829 0.930 . S
C1839 C1832 1.409 . S
C1839 C1838 1.362 . S
H1840 C1846 0.930 . S
H1841 C1849 0.930 . S
H1842 C1850 0.930 . S
H1843 C1851 0.930 . S
H1844 C1854 0.930 . S
H1845 C1855 0.930 . S
C1846 H1840 0.930 . S
C1846 C1847 1.355 . S
C1846 C1848 1.415 1_655 S
C1847 C1846 1.355 . S
C1847 C1849 1.419 . S
C1848 C1846 1.415 1_455 S
C1848 C1853 1.425 1_455 S
C1848 C1855 1.409 . S
C1849 H1841 0.930 . S
C1849 C1847 1.419 . S
C1849 C1850 1.362 . S
C1850 H1842 0.930 . S
C1850 C1849 1.362 . S
C1850 C1853 1.409 . S
C1851 H1843 0.930 . S
C1851 C1852 1.355 . S
C1851 C1853 1.415 1_455 S
C1852 C1851 1.355 . S
C1852 C1854 1.419 . S
C1853 C1848 1.425 1_655 S
C1853 C1850 1.409 . S
C1853 C1851 1.415 1_655 S
C1854 H1844 0.930 . S
C1854 C1852 1.419 . S
C1854 C1855 1.362 . S
C1855 H1845 0.930 . S
C1855 C1848 1.409 . S
C1855 C1854 1.362 . S
H1856 C1862 0.930 1_455 S
H1857 C1865 0.930 . S
H1858 C1866 0.930 . S
H1859 C1867 0.930 1_655 S
H1860 C1870 0.930 . S
H1861 C1871 0.930 . S
C1862 H1856 0.930 1_655 S
C1862 C1863 1.355 . S
C1862 C1864 1.415 1_655 S
C1863 C1862 1.355 . S
C1863 C1865 1.419 . S
C1864 C1862 1.415 1_455 S
C1864 C1869 1.425 1_455 S
C1864 C1871 1.409 . S
C1865 H1857 0.930 . S
C1865 C1863 1.419 . S
C1865 C1866 1.362 . S
C1866 H1858 0.930 . S
C1866 C1865 1.362 . S
C1866 C1869 1.409 . S
C1867 H1859 0.930 1_455 S
C1867 C1868 1.355 . S
C1867 C1869 1.415 1_455 S
C1868 C1867 1.355 . S
C1868 C1870 1.419 . S
C1869 C1864 1.425 1_655 S
C1869 C1866 1.409 . S
C1869 C1867 1.415 1_655 S
C1870 H1860 0.930 . S
C1870 C1868 1.419 . S
C1870 C1871 1.362 . S
C1871 H1861 0.930 . S
C1871 C1864 1.409 . S
C1871 C1870 1.362 . S
H1872 C1878 0.930 . S
H1873 C1881 0.930 . S
H1874 C1882 0.930 . S
H1875 C1883 0.930 . S
H1876 C1886 0.930 . S
H1877 C1887 0.930 . S
C1878 H1872 0.930 . S
C1878 C1879 1.355 . S
C1878 C1880 1.415 . S
C1879 C1878 1.355 . S
C1879 C1881 1.419 . S
C1880 C1878 1.415 . S
C1880 C1885 1.425 . S
C1880 C1887 1.409 . S
C1881 H1873 0.930 . S
C1881 C1879 1.419 . S
C1881 C1882 1.362 . S
C1882 H1874 0.930 . S
C1882 C1881 1.362 . S
C1882 C1885 1.409 . S
C1883 H1875 0.930 . S
C1883 C1884 1.355 . S
C1883 C1885 1.415 . S
C1884 C1883 1.355 . S
C1884 C1886 1.419 . S
C1885 C1880 1.425 . S
C1885 C1882 1.409 . S
C1885 C1883 1.415 . S
C1886 H1876 0.930 . S
C1886 C1884 1.419 . S
C1886 C1887 1.362 . S
C1887 H1877 0.930 . S
C1887 C1880 1.409 . S
C1887 C1886 1.362 . S
H1888 C1894 0.930 . S
H1889 C1897 0.930 . S
H1890 C1898 0.930 . S
H1891 C1899 0.930 . S
H1892 C1902 0.930 . S
H1893 C1903 0.930 . S
C1894 H1888 0.930 . S
C1894 C1895 1.355 . S
C1894 C1896 1.415 . S
C1895 C1894 1.355 . S
C1895 C1897 1.419 . S
C1896 C1894 1.415 . S
C1896 C1901 1.425 . S
C1896 C1903 1.409 . S
C1897 H1889 0.930 . S
C1897 C1895 1.419 . S
C1897 C1898 1.362 . S
C1898 H1890 0.930 . S
C1898 C1897 1.362 . S
C1898 C1901 1.409 . S
C1899 H1891 0.930 . S
C1899 C1900 1.355 . S
C1899 C1901 1.415 . S
C1900 C1899 1.355 . S
C1900 C1902 1.419 . S
C1901 C1896 1.425 . S
C1901 C1898 1.409 . S
C1901 C1899 1.415 . S
C1902 H1892 0.930 . S
C1902 C1900 1.419 . S
C1902 C1903 1.362 . S
C1903 H1893 0.930 . S
C1903 C1896 1.409 . S
C1903 C1902 1.362 . S
H1904 C1910 0.930 . S
H1905 C1913 0.930 . S
H1906 C1914 0.930 . S
H1907 C1915 0.930 . S
H1908 C1918 0.930 . S
H1909 C1919 0.930 . S
C1910 H1904 0.930 . S
C1910 C1911 1.355 . S
C1910 C1912 1.415 . S
C1911 C1910 1.355 . S
C1911 C1913 1.419 . S
C1912 C1910 1.415 . S
C1912 C1917 1.425 . S
C1912 C1919 1.409 . S
C1913 H1905 0.930 . S
C1913 C1911 1.419 . S
C1913 C1914 1.362 . S
C1914 H1906 0.930 . S
C1914 C1913 1.362 . S
C1914 C1917 1.409 . S
C1915 H1907 0.930 . S
C1915 C1916 1.355 . S
C1915 C1917 1.415 . S
C1916 C1915 1.355 . S
C1916 C1918 1.419 . S
C1917 C1912 1.425 . S
C1917 C1914 1.409 . S
C1917 C1915 1.415 . S
C1918 H1908 0.930 . S
C1918 C1916 1.419 . S
C1918 C1919 1.362 . S
C1919 H1909 0.930 . S
C1919 C1912 1.409 . S
C1919 C1918 1.362 . S
H1920 C1926 0.930 1_655 S
H1921 C1929 0.930 . S
H1922 C1930 0.930 . S
H1923 C1931 0.930 1_455 S
H1924 C1934 0.930 . S
H1925 C1935 0.930 . S
C1926 H1920 0.930 1_455 S
C1926 C1927 1.355 . S
C1926 C1928 1.415 1_455 S
C1927 C1926 1.355 . S
C1927 C1929 1.419 . S
C1928 C1926 1.415 1_655 S
C1928 C1933 1.425 1_655 S
C1928 C1935 1.409 . S
C1929 H1921 0.930 . S
C1929 C1927 1.419 . S
C1929 C1930 1.362 . S
C1930 H1922 0.930 . S
C1930 C1929 1.362 . S
C1930 C1933 1.409 . S
C1931 H1923 0.930 1_655 S
C1931 C1932 1.355 . S
C1931 C1933 1.415 1_655 S
C1932 C1931 1.355 . S
C1932 C1934 1.419 . S
C1933 C1928 1.425 1_455 S
C1933 C1930 1.409 . S
C1933 C1931 1.415 1_455 S
C1934 H1924 0.930 . S
C1934 C1932 1.419 . S
C1934 C1935 1.362 . S
C1935 H1925 0.930 . S
C1935 C1928 1.409 . S
C1935 C1934 1.362 . S
H1936 C1942 0.930 . S
H1937 C1945 0.930 . S
H1938 C1946 0.930 . S
H1939 C1947 0.930 . S
H1940 C1950 0.930 . S
H1941 C1951 0.930 . S
C1942 H1936 0.930 . S
C1942 C1943 1.355 . S
C1942 C1944 1.415 . S
C1943 C1942 1.355 . S
C1943 C1945 1.419 . S
C1944 C1942 1.415 . S
C1944 C1949 1.425 1_655 S
C1944 C1951 1.409 . S
C1945 H1937 0.930 . S
C1945 C1943 1.419 . S
C1945 C1946 1.362 1_655 S
C1946 H1938 0.930 . S
C1946 C1945 1.362 1_455 S
C1946 C1949 1.409 . S
C1947 H1939 0.930 . S
C1947 C1948 1.355 . S
C1947 C1949 1.415 . S
C1948 C1947 1.355 . S
C1948 C1950 1.419 . S
C1949 C1944 1.425 1_455 S
C1949 C1946 1.409 . S
C1949 C1947 1.415 . S
C1950 H1940 0.930 . S
C1950 C1948 1.419 . S
C1950 C1951 1.362 1_455 S
C1951 H1941 0.930 . S
C1951 C1944 1.409 . S
C1951 C1950 1.362 1_655 S
H1952 C1958 0.930 . S
H1953 C1961 0.930 . S
H1954 C1962 0.930 . S
H1955 C1963 0.930 . S
H1956 C1966 0.930 . S
H1957 C1967 0.930 . S
C1958 H1952 0.930 . S
C1958 C1959 1.355 . S
C1958 C1960 1.415 . S
C1959 C1958 1.355 . S
C1959 C1961 1.419 . S
C1960 C1958 1.415 . S
C1960 C1965 1.425 . S
C1960 C1967 1.409 . S
C1961 H1953 0.930 . S
C1961 C1959 1.419 . S
C1961 C1962 1.362 . S
C1962 H1954 0.930 . S
C1962 C1961 1.362 . S
C1962 C1965 1.409 . S
C1963 H1955 0.930 . S
C1963 C1964 1.355 . S
C1963 C1965 1.415 . S
C1964 C1963 1.355 . S
C1964 C1966 1.419 . S
C1965 C1960 1.425 . S
C1965 C1962 1.409 . S
C1965 C1963 1.415 . S
C1966 H1956 0.930 . S
C1966 C1964 1.419 . S
C1966 C1967 1.362 . S
C1967 H1957 0.930 . S
C1967 C1960 1.409 . S
C1967 C1966 1.362 . S
H1968 C1974 0.930 . S
H1969 C1977 0.930 . S
H1970 C1978 0.930 . S
H1971 C1979 0.930 . S
H1972 C1982 0.930 . S
H1973 C1983 0.930 . S
C1974 H1968 0.930 . S
C1974 C1975 1.355 . S
C1974 C1976 1.415 . S
C1975 C1974 1.355 . S
C1975 C1977 1.419 . S
C1976 C1974 1.415 . S
C1976 C1981 1.425 1_655 S
C1976 C1983 1.409 . S
C1977 H1969 0.930 . S
C1977 C1975 1.419 . S
C1977 C1978 1.362 1_655 S
C1978 H1970 0.930 . S
C1978 C1977 1.362 1_455 S
C1978 C1981 1.409 . S
C1979 H1971 0.930 . S
C1979 C1980 1.355 . S
C1979 C1981 1.415 . S
C1980 C1979 1.355 . S
C1980 C1982 1.419 . S
C1981 C1976 1.425 1_455 S
C1981 C1978 1.409 . S
C1981 C1979 1.415 . S
C1982 H1972 0.930 . S
C1982 C1980 1.419 . S
C1982 C1983 1.362 1_455 S
C1983 H1973 0.930 . S
C1983 C1976 1.409 . S
C1983 C1982 1.362 1_655 S
H1984 C1990 0.930 1_455 S
H1985 C1993 0.930 . S
H1986 C1994 0.930 . S
H1987 C1995 0.930 1_655 S
H1988 C1998 0.930 . S
H1989 C1999 0.930 . S
C1990 H1984 0.930 1_655 S
C1990 C1991 1.355 . S
C1990 C1992 1.415 1_655 S
C1991 C1990 1.355 . S
C1991 C1993 1.419 . S
C1992 C1990 1.415 1_455 S
C1992 C1997 1.425 1_455 S
C1992 C1999 1.409 . S
C1993 H1985 0.930 . S
C1993 C1991 1.419 . S
C1993 C1994 1.362 . S
C1994 H1986 0.930 . S
C1994 C1993 1.362 . S
C1994 C1997 1.409 . S
C1995 H1987 0.930 1_455 S
C1995 C1996 1.355 . S
C1995 C1997 1.415 1_455 S
C1996 C1995 1.355 . S
C1996 C1998 1.419 . S
C1997 C1992 1.425 1_655 S
C1997 C1994 1.409 . S
C1997 C1995 1.415 1_655 S
C1998 H1988 0.930 . S
C1998 C1996 1.419 . S
C1998 C1999 1.362 . S
C1999 H1989 0.930 . S
C1999 C1992 1.409 . S
C1999 C1998 1.362 . S
H2000 C2006 0.930 . S
H2001 C2009 0.930 . S
H2002 C2010 0.930 . S
H2003 C2011 0.930 . S
H2004 C2014 0.930 . S
H2005 C2015 0.930 . S
C2006 H2000 0.930 . S
C2006 C2007 1.355 . S
C2006 C2008 1.415 . S
C2007 C2006 1.355 . S
C2007 C2009 1.419 . S
C2008 C2006 1.415 . S
C2008 C2013 1.425 . S
C2008 C2015 1.409 . S
C2009 H2001 0.930 . S
C2009 C2007 1.419 . S
C2009 C2010 1.362 . S
C2010 H2002 0.930 . S
C2010 C2009 1.362 . S
C2010 C2013 1.409 . S
C2011 H2003 0.930 . S
C2011 C2012 1.355 . S
C2011 C2013 1.415 . S
C2012 C2011 1.355 . S
C2012 C2014 1.419 . S
C2013 C2008 1.425 . S
C2013 C2010 1.409 . S
C2013 C2011 1.415 . S
C2014 H2004 0.930 . S
C2014 C2012 1.419 . S
C2014 C2015 1.362 . S
C2015 H2005 0.930 . S
C2015 C2008 1.409 . S
C2015 C2014 1.362 . S
H2016 C2022 0.930 . S
H2017 C2025 0.930 . S
H2018 C2026 0.930 . S
H2019 C2027 0.930 . S
H2020 C2030 0.930 . S
H2021 C2031 0.930 . S
C2022 H2016 0.930 . S
C2022 C2023 1.355 . S
C2022 C2024 1.415 . S
C2023 C2022 1.355 . S
C2023 C2025 1.419 . S
C2024 C2022 1.415 . S
C2024 C2029 1.425 . S
C2024 C2031 1.409 . S
C2025 H2017 0.930 . S
C2025 C2023 1.419 . S
C2025 C2026 1.362 . S
C2026 H2018 0.930 . S
C2026 C2025 1.362 . S
C2026 C2029 1.409 . S
C2027 H2019 0.930 . S
C2027 C2028 1.355 . S
C2027 C2029 1.415 . S
C2028 C2027 1.355 . S
C2028 C2030 1.419 . S
C2029 C2024 1.425 . S
C2029 C2026 1.409 . S
C2029 C2027 1.415 . S
C2030 H2020 0.930 . S
C2030 C2028 1.419 . S
C2030 C2031 1.362 . S
C2031 H2021 0.930 . S
C2031 C2024 1.409 . S
C2031 C2030 1.362 . S
H2032 C2038 0.930 . S
H2033 C2041 0.930 . S
H2034 C2042 0.930 . S
H2035 C2043 0.930 . S
H2036 C2046 0.930 . S
H2037 C2047 0.930 . S
C2038 H2032 0.930 . S
C2038 C2039 1.355 . S
C2038 C2040 1.415 . S
C2039 C2038 1.355 . S
C2039 C2041 1.419 . S
C2040 C2038 1.415 . S
C2040 C2045 1.425 . S
C2040 C2047 1.409 . S
C2041 H2033 0.930 . S
C2041 C2039 1.419 . S
C2041 C2042 1.362 . S
C2042 H2034 0.930 . S
C2042 C2041 1.362 . S
C2042 C2045 1.409 . S
C2043 H2035 0.930 . S
C2043 C2044 1.355 . S
C2043 C2045 1.415 . S
C2044 C2043 1.355 . S
C2044 C2046 1.419 . S
C2045 C2040 1.425 . S
C2045 C2042 1.409 . S
C2045 C2043 1.415 . S
C2046 H2036 0.930 . S
C2046 C2044 1.419 . S
C2046 C2047 1.362 . S
C2047 H2037 0.930 . S
C2047 C2040 1.409 . S
C2047 C2046 1.362 . S
H2048 C2054 0.930 . S
H2049 C2057 0.929 . S
H2050 C2058 0.930 . S
H2051 C2059 0.930 . S
H2052 C2062 0.929 . S
H2053 C2063 0.930 . S
C2054 H2048 0.930 . S
C2054 C2055 1.355 . S
C2054 C2056 1.415 . S
C2055 C2054 1.355 . S
C2055 C2057 1.419 . S
C2056 C2054 1.415 . S
C2056 C2061 1.425 1_655 S
C2056 C2063 1.409 . S
C2057 H2049 0.929 . S
C2057 C2055 1.419 . S
C2057 C2058 1.362 1_655 S
C2058 H2050 0.930 . S
C2058 C2057 1.362 1_455 S
C2058 C2061 1.409 . S
C2059 H2051 0.930 . S
C2059 C2060 1.355 . S
C2059 C2061 1.415 . S
C2060 C2059 1.355 . S
C2060 C2062 1.419 . S
C2061 C2056 1.425 1_455 S
C2061 C2058 1.409 . S
C2061 C2059 1.415 . S
C2062 H2052 0.929 . S
C2062 C2060 1.419 . S
C2062 C2063 1.362 1_455 S
C2063 H2053 0.930 . S
C2063 C2056 1.409 . S
C2063 C2062 1.362 1_655 S
H2064 C2070 0.930 . S
H2065 C2073 0.930 . S
H2066 C2074 0.930 . S
H2067 C2075 0.930 . S
H2068 C2078 0.930 . S
H2069 C2079 0.930 . S
C2070 H2064 0.930 . S
C2070 C2071 1.355 . S
C2070 C2072 1.415 1_655 S
C2071 C2070 1.355 . S
C2071 C2073 1.419 . S
C2072 C2070 1.415 1_455 S
C2072 C2077 1.425 1_455 S
C2072 C2079 1.409 . S
C2073 H2065 0.930 . S
C2073 C2071 1.419 . S
C2073 C2074 1.362 . S
C2074 H2066 0.930 . S
C2074 C2073 1.362 . S
C2074 C2077 1.409 . S
C2075 H2067 0.930 . S
C2075 C2076 1.355 . S
C2075 C2077 1.415 1_455 S
C2076 C2075 1.355 . S
C2076 C2078 1.419 . S
C2077 C2072 1.425 1_655 S
C2077 C2074 1.409 . S
C2077 C2075 1.415 1_655 S
C2078 H2068 0.930 . S
C2078 C2076 1.419 . S
C2078 C2079 1.362 . S
C2079 H2069 0.930 . S
C2079 C2072 1.409 . S
C2079 C2078 1.362 . S
H2080 C2086 0.930 1_545 S
H2081 C2089 0.930 . S
H2082 C2090 0.930 . S
H2083 C2091 0.930 1_565 S
H2084 C2094 0.930 . S
H2085 C2095 0.930 . S
C2086 H2080 0.930 1_565 S
C2086 C2087 1.355 . S
C2086 C2088 1.415 1_565 S
C2087 C2086 1.355 . S
C2087 C2089 1.419 . S
C2088 C2086 1.415 1_545 S
C2088 C2093 1.425 1_545 S
C2088 C2095 1.409 . S
C2089 H2081 0.930 . S
C2089 C2087 1.419 . S
C2089 C2090 1.362 . S
C2090 H2082 0.930 . S
C2090 C2089 1.362 . S
C2090 C2093 1.409 . S
C2091 H2083 0.930 1_545 S
C2091 C2092 1.355 . S
C2091 C2093 1.415 1_545 S
C2092 C2091 1.355 . S
C2092 C2094 1.419 . S
C2093 C2088 1.425 1_565 S
C2093 C2090 1.409 . S
C2093 C2091 1.415 1_565 S
C2094 H2084 0.930 . S
C2094 C2092 1.419 . S
C2094 C2095 1.362 . S
C2095 H2085 0.930 . S
C2095 C2088 1.409 . S
C2095 C2094 1.362 . S
H2096 C2102 0.930 . S
H2097 C2105 0.930 . S
H2098 C2106 0.930 . S
H2099 C2107 0.930 . S
H2100 C2110 0.930 . S
H2101 C2111 0.930 . S
C2102 H2096 0.930 . S
C2102 C2103 1.355 . S
C2102 C2104 1.415 . S
C2103 C2102 1.355 . S
C2103 C2105 1.419 . S
C2104 C2102 1.415 . S
C2104 C2109 1.425 . S
C2104 C2111 1.409 . S
C2105 H2097 0.930 . S
C2105 C2103 1.419 . S
C2105 C2106 1.362 . S
C2106 H2098 0.930 . S
C2106 C2105 1.362 . S
C2106 C2109 1.409 . S
C2107 H2099 0.930 . S
C2107 C2108 1.355 . S
C2107 C2109 1.415 . S
C2108 C2107 1.355 . S
C2108 C2110 1.419 . S
C2109 C2104 1.425 . S
C2109 C2106 1.409 . S
C2109 C2107 1.415 . S
C2110 H2100 0.930 . S
C2110 C2108 1.419 . S
C2110 C2111 1.362 . S
C2111 H2101 0.930 . S
C2111 C2104 1.409 . S
C2111 C2110 1.362 . S
H2112 C2118 0.930 1_545 S
H2113 C2121 0.930 . S
H2114 C2122 0.930 . S
H2115 C2123 0.930 1_565 S
H2116 C2126 0.930 . S
H2117 C2127 0.930 . S
C2118 H2112 0.930 1_565 S
C2118 C2119 1.355 . S
C2118 C2120 1.415 1_565 S
C2119 C2118 1.355 . S
C2119 C2121 1.419 . S
C2120 C2118 1.415 1_545 S
C2120 C2125 1.425 1_545 S
C2120 C2127 1.409 . S
C2121 H2113 0.930 . S
C2121 C2119 1.419 . S
C2121 C2122 1.362 . S
C2122 H2114 0.930 . S
C2122 C2121 1.362 . S
C2122 C2125 1.409 . S
C2123 H2115 0.930 1_545 S
C2123 C2124 1.355 . S
C2123 C2125 1.415 1_545 S
C2124 C2123 1.355 . S
C2124 C2126 1.419 . S
C2125 C2120 1.425 1_565 S
C2125 C2122 1.409 . S
C2125 C2123 1.415 1_565 S
C2126 H2116 0.930 . S
C2126 C2124 1.419 . S
C2126 C2127 1.362 . S
C2127 H2117 0.930 . S
C2127 C2120 1.409 . S
C2127 C2126 1.362 . S
H2128 C2134 0.930 . S
H2129 C2137 0.930 . S
H2130 C2138 0.930 . S
H2131 C2139 0.930 . S
H2132 C2142 0.930 . S
H2133 C2143 0.930 . S
C2134 H2128 0.930 . S
C2134 C2135 1.355 . S
C2134 C2136 1.375 1_554 S
C2135 C2134 1.355 . S
C2135 C2137 1.419 . S
C2136 C2134 1.375 1_556 S
C2136 C2141 1.420 1_556 S
C2136 C2143 1.453 . S
C2137 H2129 0.930 . S
C2137 C2135 1.419 . S
C2137 C2138 1.362 . S
C2138 H2130 0.930 . S
C2138 C2137 1.362 . S
C2138 C2141 1.454 . S
C2139 H2131 0.930 . S
C2139 C2140 1.355 . S
C2139 C2141 1.375 1_556 S
C2140 C2139 1.355 . S
C2140 C2142 1.419 . S
C2141 C2136 1.420 1_554 S
C2141 C2138 1.454 . S
C2141 C2139 1.375 1_554 S
C2142 H2132 0.930 . S
C2142 C2140 1.419 . S
C2142 C2143 1.362 . S
C2143 H2133 0.930 . S
C2143 C2136 1.453 . S
C2143 C2142 1.362 . S
H2144 C2150 0.930 . S
H2145 C2153 0.930 . S
H2146 C2154 0.930 . S
H2147 C2155 0.930 . S
H2148 C2158 0.930 . S
H2149 C2159 0.930 . S
C2150 H2144 0.930 . S
C2150 C2151 1.355 . S
C2150 C2152 1.415 . S
C2151 C2150 1.355 . S
C2151 C2153 1.419 1_565 S
C2152 C2150 1.415 . S
C2152 C2157 1.425 1_565 S
C2152 C2159 1.409 . S
C2153 H2145 0.930 . S
C2153 C2151 1.419 1_545 S
C2153 C2154 1.362 . S
C2154 H2146 0.930 . S
C2154 C2153 1.362 . S
C2154 C2157 1.409 . S
C2155 H2147 0.930 . S
C2155 C2156 1.355 . S
C2155 C2157 1.415 . S
C2156 C2155 1.355 . S
C2156 C2158 1.419 1_545 S
C2157 C2152 1.425 1_545 S
C2157 C2154 1.409 . S
C2157 C2155 1.415 . S
C2158 H2148 0.930 . S
C2158 C2156 1.419 1_565 S
C2158 C2159 1.362 . S
C2159 H2149 0.930 . S
C2159 C2152 1.409 . S
C2159 C2158 1.362 . S
H2160 C2166 0.930 . S
H2161 C2169 0.930 . S
H2162 C2170 0.930 . S
H2163 C2171 0.930 . S
H2164 C2174 0.930 . S
H2165 C2175 0.930 . S
C2166 H2160 0.930 . S
C2166 C2167 1.355 . S
C2166 C2168 1.415 . S
C2167 C2166 1.355 . S
C2167 C2169 1.419 . S
C2168 C2166 1.415 . S
C2168 C2173 1.425 . S
C2168 C2175 1.409 . S
C2169 H2161 0.930 . S
C2169 C2167 1.419 . S
C2169 C2170 1.362 . S
C2170 H2162 0.930 . S
C2170 C2169 1.362 . S
C2170 C2173 1.409 . S
C2171 H2163 0.930 . S
C2171 C2172 1.355 . S
C2171 C2173 1.415 . S
C2172 C2171 1.355 . S
C2172 C2174 1.419 . S
C2173 C2168 1.425 . S
C2173 C2170 1.409 . S
C2173 C2171 1.415 . S
C2174 H2164 0.930 . S
C2174 C2172 1.419 . S
C2174 C2175 1.362 . S
C2175 H2165 0.930 . S
C2175 C2168 1.409 . S
C2175 C2174 1.362 . S
H2176 C2182 0.931 . S
H2177 C2185 0.930 . S
H2178 C2186 0.930 . S
H2179 C2187 0.931 . S
H2180 C2190 0.930 . S
H2181 C2191 0.930 . S
C2182 H2176 0.931 . S
C2182 C2183 1.355 . S
C2182 C2184 1.415 1_545 S
C2183 C2182 1.355 . S
C2183 C2185 1.419 . S
C2184 C2182 1.415 1_565 S
C2184 C2189 1.425 1_565 S
C2184 C2191 1.409 . S
C2185 H2177 0.930 . S
C2185 C2183 1.419 . S
C2185 C2186 1.362 . S
C2186 H2178 0.930 . S
C2186 C2185 1.362 . S
C2186 C2189 1.409 . S
C2187 H2179 0.931 . S
C2187 C2188 1.355 . S
C2187 C2189 1.415 1_565 S
C2188 C2187 1.355 . S
C2188 C2190 1.419 . S
C2189 C2184 1.425 1_545 S
C2189 C2186 1.409 . S
C2189 C2187 1.415 1_545 S
C2190 H2180 0.930 . S
C2190 C2188 1.419 . S
C2190 C2191 1.362 . S
C2191 H2181 0.930 . S
C2191 C2184 1.409 . S
C2191 C2190 1.362 . S
H2192 C2198 0.930 . S
H2193 C2201 0.930 . S
H2194 C2202 0.930 . S
H2195 C2203 0.930 . S
H2196 C2206 0.930 . S
H2197 C2207 0.930 . S
C2198 H2192 0.930 . S
C2198 C2199 1.355 . S
C2198 C2200 1.415 1_556 S
C2199 C2198 1.355 . S
C2199 C2201 1.419 . S
C2200 C2198 1.415 1_554 S
C2200 C2205 1.425 1_554 S
C2200 C2207 1.409 . S
C2201 H2193 0.930 . S
C2201 C2199 1.419 . S
C2201 C2202 1.362 . S
C2202 H2194 0.930 . S
C2202 C2201 1.362 . S
C2202 C2205 1.409 . S
C2203 H2195 0.930 . S
C2203 C2204 1.355 . S
C2203 C2205 1.415 1_554 S
C2204 C2203 1.355 . S
C2204 C2206 1.419 . S
C2205 C2200 1.425 1_556 S
C2205 C2202 1.409 . S
C2205 C2203 1.415 1_556 S
C2206 H2196 0.930 . S
C2206 C2204 1.419 . S
C2206 C2207 1.362 . S
C2207 H2197 0.930 . S
C2207 C2200 1.409 . S
C2207 C2206 1.362 . S
H2208 C2214 0.930 . S
H2209 C2217 0.930 . S
H2210 C2218 0.930 . S
H2211 C2219 0.930 . S
H2212 C2222 0.930 . S
H2213 C2223 0.930 . S
C2214 H2208 0.930 . S
C2214 C2215 1.355 . S
C2214 C2216 1.415 . S
C2215 C2214 1.355 . S
C2215 C2217 1.419 . S
C2216 C2214 1.415 . S
C2216 C2221 1.425 . S
C2216 C2223 1.409 . S
C2217 H2209 0.930 . S
C2217 C2215 1.419 . S
C2217 C2218 1.362 . S
C2218 H2210 0.930 . S
C2218 C2217 1.362 . S
C2218 C2221 1.409 . S
C2219 H2211 0.930 . S
C2219 C2220 1.355 . S
C2219 C2221 1.415 . S
C2220 C2219 1.355 . S
C2220 C2222 1.419 . S
C2221 C2216 1.425 . S
C2221 C2218 1.409 . S
C2221 C2219 1.415 . S
C2222 H2212 0.930 . S
C2222 C2220 1.419 . S
C2222 C2223 1.362 . S
C2223 H2213 0.930 . S
C2223 C2216 1.409 . S
C2223 C2222 1.362 . S
H2224 C2230 0.930 . S
H2225 C2233 0.930 . S
H2226 C2234 0.930 . S
H2227 C2235 0.930 . S
H2228 C2238 0.930 . S
H2229 C2239 0.930 . S
C2230 H2224 0.930 . S
C2230 C2231 1.355 . S
C2230 C2232 1.415 1_554 S
C2231 C2230 1.355 . S
C2231 C2233 1.419 . S
C2232 C2230 1.415 1_556 S
C2232 C2237 1.425 1_556 S
C2232 C2239 1.409 . S
C2233 H2225 0.930 . S
C2233 C2231 1.419 . S
C2233 C2234 1.362 . S
C2234 H2226 0.930 . S
C2234 C2233 1.362 . S
C2234 C2237 1.409 . S
C2235 H2227 0.930 . S
C2235 C2236 1.355 . S
C2235 C2237 1.415 1_556 S
C2236 C2235 1.355 . S
C2236 C2238 1.419 . S
C2237 C2232 1.425 1_554 S
C2237 C2234 1.409 . S
C2237 C2235 1.415 1_554 S
C2238 H2228 0.930 . S
C2238 C2236 1.419 . S
C2238 C2239 1.362 . S
C2239 H2229 0.930 . S
C2239 C2232 1.409 . S
C2239 C2238 1.362 . S
H2240 C2246 0.930 . S
H2241 C2249 0.930 . S
H2242 C2250 0.930 . S
H2243 C2251 0.930 . S
H2244 C2254 0.930 . S
H2245 C2255 0.930 . S
C2246 H2240 0.930 . S
C2246 C2247 1.355 . S
C2246 C2248 1.415 . S
C2247 C2246 1.355 . S
C2247 C2249 1.419 . S
C2248 C2246 1.415 . S
C2248 C2253 1.425 . S
C2248 C2255 1.409 . S
C2249 H2241 0.930 . S
C2249 C2247 1.419 . S
C2249 C2250 1.362 . S
C2250 H2242 0.930 . S
C2250 C2249 1.362 . S
C2250 C2253 1.409 . S
C2251 H2243 0.930 . S
C2251 C2252 1.355 . S
C2251 C2253 1.415 . S
C2252 C2251 1.355 . S
C2252 C2254 1.419 . S
C2253 C2248 1.425 . S
C2253 C2250 1.409 . S
C2253 C2251 1.415 . S
C2254 H2244 0.930 . S
C2254 C2252 1.419 . S
C2254 C2255 1.362 . S
C2255 H2245 0.930 . S
C2255 C2248 1.409 . S
C2255 C2254 1.362 . S
H2256 C2262 0.930 . S
H2257 C2265 0.930 . S
H2258 C2266 0.930 . S
H2259 C2267 0.930 . S
H2260 C2270 0.930 . S
H2261 C2271 0.930 . S
C2262 H2256 0.930 . S
C2262 C2263 1.355 . S
C2262 C2264 1.415 . S
C2263 C2262 1.355 . S
C2263 C2265 1.419 . S
C2264 C2262 1.415 . S
C2264 C2269 1.425 . S
C2264 C2271 1.409 . S
C2265 H2257 0.930 . S
C2265 C2263 1.419 . S
C2265 C2266 1.362 . S
C2266 H2258 0.930 . S
C2266 C2265 1.362 . S
C2266 C2269 1.409 . S
C2267 H2259 0.930 . S
C2267 C2268 1.355 . S
C2267 C2269 1.415 . S
C2268 C2267 1.355 . S
C2268 C2270 1.419 . S
C2269 C2264 1.425 . S
C2269 C2266 1.409 . S
C2269 C2267 1.415 . S
C2270 H2260 0.930 . S
C2270 C2268 1.419 . S
C2270 C2271 1.362 . S
C2271 H2261 0.930 . S
C2271 C2264 1.409 . S
C2271 C2270 1.362 . S
H2272 C2278 0.930 . S
H2273 C2281 0.930 . S
H2274 C2282 0.930 . S
H2275 C2283 0.930 . S
H2276 C2286 0.930 . S
H2277 C2287 0.930 . S
C2278 H2272 0.930 . S
C2278 C2279 1.355 . S
C2278 C2280 1.415 . S
C2279 C2278 1.355 . S
C2279 C2281 1.419 . S
C2280 C2278 1.415 . S
C2280 C2285 1.425 . S
C2280 C2287 1.409 . S
C2281 H2273 0.930 . S
C2281 C2279 1.419 . S
C2281 C2282 1.362 . S
C2282 H2274 0.930 . S
C2282 C2281 1.362 . S
C2282 C2285 1.409 . S
C2283 H2275 0.930 . S
C2283 C2284 1.355 . S
C2283 C2285 1.415 . S
C2284 C2283 1.355 . S
C2284 C2286 1.419 . S
C2285 C2280 1.425 . S
C2285 C2282 1.409 . S
C2285 C2283 1.415 . S
C2286 H2276 0.930 . S
C2286 C2284 1.419 . S
C2286 C2287 1.362 . S
C2287 H2277 0.930 . S
C2287 C2280 1.409 . S
C2287 C2286 1.362 . S
H2288 C2294 0.930 . S
H2289 C2297 0.930 . S
H2290 C2298 0.930 . S
H2291 C2299 0.930 . S
H2292 C2302 0.930 . S
H2293 C2303 0.930 . S
C2294 H2288 0.930 . S
C2294 C2295 1.355 . S
C2294 C2296 1.415 1_554 S
C2295 C2294 1.355 . S
C2295 C2297 1.419 . S
C2296 C2294 1.415 1_556 S
C2296 C2301 1.425 1_556 S
C2296 C2303 1.409 . S
C2297 H2289 0.930 . S
C2297 C2295 1.419 . S
C2297 C2298 1.362 . S
C2298 H2290 0.930 . S
C2298 C2297 1.362 . S
C2298 C2301 1.409 . S
C2299 H2291 0.930 . S
C2299 C2300 1.355 . S
C2299 C2301 1.415 1_556 S
C2300 C2299 1.355 . S
C2300 C2302 1.419 . S
C2301 C2296 1.425 1_554 S
C2301 C2298 1.409 . S
C2301 C2299 1.415 1_554 S
C2302 H2292 0.930 . S
C2302 C2300 1.419 . S
C2302 C2303 1.362 . S
C2303 H2293 0.930 . S
C2303 C2296 1.409 . S
C2303 C2302 1.362 . S
H2304 C2310 0.930 . S
H2305 C2313 0.930 . S
H2306 C2314 0.930 . S
H2307 C2315 0.930 . S
H2308 C2318 0.930 . S
H2309 C2319 0.930 . S
C2310 H2304 0.930 . S
C2310 C2311 1.355 . S
C2310 C2312 1.415 . S
C2311 C2310 1.355 . S
C2311 C2313 1.419 . S
C2312 C2310 1.415 . S
C2312 C2317 1.425 . S
C2312 C2319 1.409 . S
C2313 H2305 0.930 . S
C2313 C2311 1.419 . S
C2313 C2314 1.362 . S
C2314 H2306 0.930 . S
C2314 C2313 1.362 . S
C2314 C2317 1.409 . S
C2315 H2307 0.930 . S
C2315 C2316 1.355 . S
C2315 C2317 1.415 . S
C2316 C2315 1.355 . S
C2316 C2318 1.419 . S
C2317 C2312 1.425 . S
C2317 C2314 1.409 . S
C2317 C2315 1.415 . S
C2318 H2308 0.930 . S
C2318 C2316 1.419 . S
C2318 C2319 1.362 . S
C2319 H2309 0.930 . S
C2319 C2312 1.409 . S
C2319 C2318 1.362 . S
H2320 C2326 0.930 . S
H2321 C2329 0.930 . S
H2322 C2330 0.930 . S
H2323 C2331 0.930 . S
H2324 C2334 0.930 . S
H2325 C2335 0.930 . S
C2326 H2320 0.930 . S
C2326 C2327 1.355 . S
C2326 C2328 1.415 . S
C2327 C2326 1.355 . S
C2327 C2329 1.419 . S
C2328 C2326 1.415 . S
C2328 C2333 1.425 . S
C2328 C2335 1.409 . S
C2329 H2321 0.930 . S
C2329 C2327 1.419 . S
C2329 C2330 1.362 . S
C2330 H2322 0.930 . S
C2330 C2329 1.362 . S
C2330 C2333 1.409 . S
C2331 H2323 0.930 . S
C2331 C2332 1.355 . S
C2331 C2333 1.415 . S
C2332 C2331 1.355 . S
C2332 C2334 1.419 . S
C2333 C2328 1.425 . S
C2333 C2330 1.409 . S
C2333 C2331 1.415 . S
C2334 H2324 0.930 . S
C2334 C2332 1.419 . S
C2334 C2335 1.362 . S
C2335 H2325 0.930 . S
C2335 C2328 1.409 . S
C2335 C2334 1.362 . S
C1063 N13 1.530 . S
C1068 N805 1.530 . S
C1079 N310 1.532 . S
C1084 N46 1.532 . S
C1095 N871 1.554 . S
C1100 N79 1.554 . S
C1111 N112 1.610 . S
C1116 N376 1.610 . S
C1127 N937 1.580 . S
C1132 N145 1.580 . S
C1143 N442 1.605 . S
C1148 N178 1.605 . S
C1159 N211 1.536 . S
C1164 N1003 1.536 . S
C1175 N244 1.523 . S
C1180 N508 1.523 . S
C1191 N277 1.550 . S
C1196 N541 1.550 . S
C1207 N343 1.600 . S
C1212 N607 1.600 . S
C1223 N673 1.611 . S
C1228 N409 1.611 . S
C1239 N475 1.546 . S
C1244 N739 1.546 . S
C1255 N574 1.614 . S
C1260 N838 1.614 . S
C1271 N904 1.621 . S
C1276 N640 1.621 . S
C1287 N970 1.527 . S
C1292 N706 1.527 . S
C1303 N772 1.531 . S
C1308 N1036 1.531 . S
C1319 C7 1.165 . S
C1324 N827 1.287 . S
C1335 N332 1.339 . S
C1340 C40 1.272 . S
C1351 C73 1.165 . S
C1356 N893 1.286 . S
C1367 N266 1.303 . S
C1372 C106 1.174 . S
C1383 C139 1.272 . S
C1388 N1025 1.294 . S
C1399 C172 1.165 . S
C1404 N398 1.285 . S
C1415 N959 1.300 . S
C1420 C205 1.278 . S
C1431 N464 1.267 . S
C1436 C238 1.187 . S
C1447 N563 1.321 . S
C1452 C271 1.196 . S
C1463 N68 1.333 . S
C1468 C304 1.285 . S
C1479 C337 1.273 . S
C1484 N629 1.295 . S
C1495 C370 1.284 . S
C1500 N2 1.334 . S
C1511 N761 1.294 . S
C1516 C403 1.271 . S
C1527 N134 1.300 . S
C1532 C436 1.172 . S
C1543 C469 1.250 . S
C1548 N695 1.280 . S
C1559 C502 1.167 . S
C1564 N200 1.278 . S
C1575 N299 1.276 . S
C1580 C535 1.241 . S
C1591 N860 1.339 . S
C1596 C568 1.272 . S
C1607 N365 1.285 . S
C1612 C601 1.165 . S
C1623 C634 1.170 . S
C1628 N794 1.274 . S
C1639 N497 1.340 . S
C1644 C667 1.257 . S
C1655 C700 1.207 . S
C1660 N926 1.327 . S
C1671 N431 1.278 . S
C1676 C733 1.246 . S
C1687 C766 1.165 . S
C1692 N992 1.283 . S
C1703 N35 1.272 . S
C1708 C799 1.172 . S
C1719 N596 1.327 . S
C1724 C832 1.289 . S
C1735 N101 1.338 . S
C1740 C865 1.238 . S
C1751 C898 1.280 . S
C1756 N530 1.337 . S
C1767 C931 1.198 . S
C1772 N233 1.322 . S
C1783 N662 1.318 . S
C1788 C964 1.191 . S
C1799 N167 1.322 . S
C1804 C997 1.289 . S
C1815 C1030 1.281 . S
C1820 N728 1.336 . S
C1831 C615 0.347 . S
C1836 C21 0.227 . S
C1847 C648 0.411 . S
C1852 C54 0.482 . S
C1863 C549 0.359 . S
C1868 C87 0.225 . S
C1879 C582 0.289 . S
C1884 C120 0.259 . S
C1895 C153 0.432 . S
C1900 C747 0.256 . S
C1911 C780 0.428 . S
C1916 C186 0.478 . S
C1927 C219 0.279 . S
C1932 C681 0.268 . S
C1943 C714 0.247 . S
C1948 C252 0.304 . S
C1959 C879 0.244 . S
C1964 C285 0.309 . S
C1975 C318 0.242 . S
C1980 C912 0.312 . S
C1991 C351 0.249 . S
C1996 C813 0.301 . S
C2007 C384 0.482 . S
C2012 C846 0.362 . S
C2023 C1011 0.471 . S
C2028 C417 0.442 . S
C2039 C450 0.478 . S
C2044 C1044 0.341 . S
C2055 C483 0.430 . S
C2060 C945 0.477 . S
C2071 C516 0.484 . S
C2076 C978 0.397 . S
C2087 C150 1.872 . S
C2092 C18 1.880 . S
C2103 C183 1.928 . S
C2108 C51 1.919 . S
C2119 C84 1.875 . S
C2124 C216 1.875 . S
C2135 C249 1.928 . S
C2140 C117 1.917 . S
C2151 C282 1.926 . S
C2156 C414 1.924 . S
C2167 C447 1.884 . S
C2172 C315 1.872 . S
C2183 C348 1.882 . S
C2188 C480 1.872 . S
C2199 C513 1.928 . S
C2204 C381 1.913 . S
C2215 C546 1.928 . S
C2220 C678 1.920 . S
C2231 C711 1.913 . S
C2236 C579 1.928 . S
C2247 C744 1.909 . S
C2252 C612 1.927 . S
C2263 C645 1.921 . S
C2268 C777 1.927 . S
C2279 C942 1.888 . S
C2284 C810 1.872 . S
C2295 C843 1.925 . S
C2300 C975 1.925 . S
C2311 C876 1.874 . S
C2316 C1008 1.876 . S
C2327 C909 1.877 . S
C2332 C1041 1.874 . S
