# Generated by pormake.
# Topology uoq, (4)-cn, num edge types: 1
# Building blocks:
#     Node 0, Type 0, BuildingBlock: TATPOV_clean_sbu_0, # of connection points: 4
#     Node 1, Type 0, BuildingBlock: TATPOV_clean_sbu_0, # of connection points: 4
#     Node 2, Type 0, BuildingBlock: TATPOV_clean_sbu_0, # of connection points: 4
#     Node 3, Type 0, BuildingBlock: TATPOV_clean_sbu_0, # of connection points: 4
#     Node 4, Type 0, BuildingBlock: TATPOV_clean_sbu_0, # of connection points: 4
#     Node 5, Type 0, BuildingBlock: TATPOV_clean_sbu_0, # of connection points: 4
#     Node 6, Type 0, BuildingBlock: TATPOV_clean_sbu_0, # of connection points: 4
#     Node 7, Type 0, BuildingBlock: TATPOV_clean_sbu_0, # of connection points: 4
#     Node 8, Type 0, BuildingBlock: TATPOV_clean_sbu_0, # of connection points: 4
#     Node 9, Type 0, BuildingBlock: TATPOV_clean_sbu_0, # of connection points: 4
#     Node 10, Type 0, BuildingBlock: TATPOV_clean_sbu_0, # of connection points: 4
#     Node 11, Type 0, BuildingBlock: TATPOV_clean_sbu_0, # of connection points: 4
#     Edge 12, Type (0, 0), BuildingBlock: EZIPEK_clean_linker_0, # of connection points: 2
#     Edge 13, Type (0, 0), BuildingBlock: EZIPEK_clean_linker_0, # of connection points: 2
#     Edge 14, Type (0, 0), BuildingBlock: EZIPEK_clean_linker_0, # of connection points: 2
#     Edge 15, Type (0, 0), BuildingBlock: EZIPEK_clean_linker_0, # of connection points: 2
#     Edge 16, Type (0, 0), BuildingBlock: EZIPEK_clean_linker_0, # of connection points: 2
#     Edge 17, Type (0, 0), BuildingBlock: EZIPEK_clean_linker_0, # of connection points: 2
#     Edge 18, Type (0, 0), BuildingBlock: EZIPEK_clean_linker_0, # of connection points: 2
#     Edge 19, Type (0, 0), BuildingBlock: EZIPEK_clean_linker_0, # of connection points: 2
#     Edge 20, Type (0, 0), BuildingBlock: EZIPEK_clean_linker_0, # of connection points: 2
#     Edge 21, Type (0, 0), BuildingBlock: EZIPEK_clean_linker_0, # of connection points: 2
#     Edge 22, Type (0, 0), BuildingBlock: EZIPEK_clean_linker_0, # of connection points: 2
#     Edge 23, Type (0, 0), BuildingBlock: EZIPEK_clean_linker_0, # of connection points: 2
#     Edge 24, Type (0, 0), BuildingBlock: EZIPEK_clean_linker_0, # of connection points: 2
#     Edge 25, Type (0, 0), BuildingBlock: EZIPEK_clean_linker_0, # of connection points: 2
#     Edge 26, Type (0, 0), BuildingBlock: EZIPEK_clean_linker_0, # of connection points: 2
#     Edge 27, Type (0, 0), BuildingBlock: EZIPEK_clean_linker_0, # of connection points: 2
#     Edge 28, Type (0, 0), BuildingBlock: EZIPEK_clean_linker_0, # of connection points: 2
#     Edge 29, Type (0, 0), BuildingBlock: EZIPEK_clean_linker_0, # of connection points: 2
#     Edge 30, Type (0, 0), BuildingBlock: EZIPEK_clean_linker_0, # of connection points: 2
#     Edge 31, Type (0, 0), BuildingBlock: EZIPEK_clean_linker_0, # of connection points: 2
#     Edge 32, Type (0, 0), BuildingBlock: EZIPEK_clean_linker_0, # of connection points: 2
#     Edge 33, Type (0, 0), BuildingBlock: EZIPEK_clean_linker_0, # of connection points: 2
#     Edge 34, Type (0, 0), BuildingBlock: EZIPEK_clean_linker_0, # of connection points: 2
#     Edge 35, Type (0, 0), BuildingBlock: EZIPEK_clean_linker_0, # of connection points: 2
# Relax obj value: 0.070
# Max RMSD: 0.061
# Mean RMSD: 0.061
data_MOF--net-uoq--node1-TATPOV_clean_sbu_0--edge1-EZIPEK_clean_linker_0
_symmetry_space_group_name_H-M    P1
_symmetry_Int_Tables_number       1
_symmetry_cell_setting            triclinic
loop_
_symmetry_equiv_pos_as_xyz
'x, y, z'
_cell_length_a     44.74993
_cell_length_b     44.665265
_cell_length_c     17.585072
_cell_angle_alpha  89.988116
_cell_angle_beta   89.489259
_cell_angle_gamma 120.2881
loop_
_atom_site_label
_atom_site_type_symbol
_atom_site_fract_x
_atom_site_fract_y
_atom_site_fract_z
_atom_type_partial_charge
Zn0 Zn 0.28078 0.44199 0.41197 0.0
Zn1 Zn 0.2614 0.43518 0.26703 0.0
O2 O 0.27352 0.39537 0.28304 0.0
O3 O 0.28746 0.40197 0.4049 0.0
O4 O 0.24322 0.43451 0.15749 0.0
O5 O 0.23753 0.43584 0.45251 0.0
O6 O 0.22075 0.43008 0.3331 0.0
C7 C 0.2832 0.38616 0.34288 0.0
C8 C 0.32529 0.50188 0.3294 0.0
O9 O 0.30548 0.48444 0.27469 0.0
O10 O 0.32014 0.48932 0.3957 0.0
C11 C 0.21098 0.41932 0.14163 0.0
O12 O 0.18812 0.40012 0.19389 0.0
C13 C 0.2151 0.43115 0.40387 0.0
Zn14 Zn 0.82292 0.26713 0.76228 0.0
Zn15 Zn 0.8136 0.24545 0.63346 0.0
O16 O 0.86801 0.27263 0.63608 0.0
O17 O 0.87241 0.29995 0.74335 0.0
O18 O 0.79633 0.22402 0.52507 0.0
O19 O 0.81408 0.22596 0.81729 0.0
O20 O 0.79661 0.20206 0.70573 0.0
C21 C 0.88666 0.29488 0.68641 0.0
C22 C 0.78824 0.29401 0.70605 0.0
O23 O 0.79655 0.28176 0.64891 0.0
O24 O 0.79157 0.28564 0.77251 0.0
C25 C 0.76435 0.20934 0.50666 0.0
O26 O 0.74192 0.20833 0.55679 0.0
C27 C 0.80197 0.19937 0.77613 0.0
Zn28 Zn 0.48481 0.83286 0.06821 0.0
Zn29 Zn 0.49201 0.82468 0.93625 0.0
O30 O 0.52033 0.8787 0.94777 0.0
O31 O 0.49668 0.88171 0.056 0.0
O32 O 0.49677 0.8103 0.82505 0.0
O33 O 0.522 0.82746 0.11045 0.0
O34 O 0.51706 0.80428 0.99847 0.0
C35 C 0.51681 0.89664 1.00029 0.0
C36 C 0.42098 0.7948 0.02066 0.0
O37 O 0.43887 0.80673 0.95928 0.0
O38 O 0.43602 0.79522 0.08128 0.0
C39 C 0.48906 0.77908 0.81076 0.0
O40 O 0.47633 0.75593 0.86574 0.0
C41 C 0.53043 0.81127 0.06457 0.0
Zn42 Zn 0.59786 0.50927 0.44178 0.0
Zn43 Zn 0.64622 0.523 0.26861 0.0
O44 O 0.64121 0.56798 0.25876 0.0
O45 O 0.6184 0.54001 0.35934 0.0
O46 O 0.67692 0.52404 0.17611 0.0
O47 O 0.6408 0.51262 0.47889 0.0
O48 O 0.67089 0.52266 0.36889 0.0
C49 C 0.62488 0.56555 0.31948 0.0
C50 C 0.57266 0.45681 0.31559 0.0
O51 O 0.5981 0.47591 0.27021 0.0
O52 O 0.56968 0.46581 0.38267 0.0
C53 C 0.67894 0.49842 0.14961 0.0
O54 O 0.66001 0.46765 0.18082 0.0
C55 C 0.66775 0.51861 0.44152 0.0
Zn56 Zn 0.07277 0.67269 0.75248 0.0
Zn57 Zn 0.09403 0.68801 0.63133 0.0
O58 O 0.03875 0.66113 0.62286 0.0
O59 O 0.02867 0.6321 0.73041 0.0
O60 O 0.11758 0.7075 0.52373 0.0
O61 O 0.07021 0.71495 0.77801 0.0
O62 O 0.1162 0.72963 0.70804 0.0
C63 C 0.01776 0.63713 0.6688 0.0
C64 C 0.1146 0.64746 0.73432 0.0
O65 O 0.10702 0.65134 0.66639 0.0
O66 O 0.1108 0.66429 0.78762 0.0
C67 C 0.1426 0.73845 0.51116 0.0
O68 O 0.15462 0.76036 0.56798 0.0
C69 C 0.10125 0.73643 0.76197 0.0
Zn70 Zn 0.44844 0.10946 0.03624 0.0
Zn71 Zn 0.43052 0.1244 0.90865 0.0
O72 O 0.4001 0.06939 0.91777 0.0
O73 O 0.42137 0.05937 0.02153 0.0
O74 O 0.41924 0.14124 0.80619 0.0
O75 O 0.42758 0.1296 0.10023 0.0
O76 O 0.41483 0.14613 0.99274 0.0
C77 C 0.4004 0.04829 0.96707 0.0
C78 C 0.50758 0.14771 0.95166 0.0
O79 O 0.48477 0.14455 0.90366 0.0
O80 O 0.49841 0.13525 0.01775 0.0
C81 C 0.42101 0.17073 0.80018 0.0
O82 O 0.42934 0.19067 0.86039 0.0
C83 C 0.41436 0.14462 0.06525 0.0
Zn84 Zn 0.52312 0.66078 0.29192 0.0
Zn85 Zn 0.52195 0.6837 0.40902 0.0
O86 O 0.55826 0.66599 0.41927 0.0
O87 O 0.54055 0.63101 0.32068 0.0
O88 O 0.52031 0.70693 0.5119 0.0
O89 O 0.55693 0.7025 0.23709 0.0
O90 O 0.53357 0.72075 0.32202 0.0
C91 C 0.55923 0.64261 0.37854 0.0
C92 C 0.45633 0.62824 0.33208 0.0
O93 O 0.47189 0.6411 0.39469 0.0
O94 O 0.47295 0.63807 0.27004 0.0
C95 C 0.50489 0.72438 0.51922 0.0
O96 O 0.48985 0.72857 0.45961 0.0
C97 C 0.54946 0.7248 0.25854 0.0
Zn98 Zn 0.81387 0.48444 0.6186 0.0
Zn99 Zn 0.79975 0.49403 0.75942 0.0
O100 O 0.85285 0.5322 0.74495 0.0
O101 O 0.86243 0.52054 0.62782 0.0
O102 O 0.78061 0.49749 0.86746 0.0
O103 O 0.78305 0.49659 0.56889 0.0
O104 O 0.76893 0.50263 0.6863 0.0
C105 C 0.87317 0.53841 0.68749 0.0
C106 C 0.79124 0.4238 0.70078 0.0
O107 O 0.79141 0.44307 0.75497 0.0
O108 O 0.79933 0.4355 0.63389 0.0
C109 C 0.76151 0.51101 0.8778 0.0
O110 O 0.75552 0.52577 0.82 0.0
C111 C 0.76556 0.50346 0.61456 0.0
Zn112 Zn 0.27635 0.83537 0.9451 0.0
Zn113 Zn 0.25659 0.83211 0.08628 0.0
O114 O 0.29097 0.8859 0.07227 0.0
O115 O 0.30982 0.88538 0.95565 0.0
O116 O 0.23596 0.81941 0.19778 0.0
O117 O 0.23167 0.82382 0.90185 0.0
O118 O 0.21341 0.81865 0.02016 0.0
C119 C 0.31015 0.90186 0.01429 0.0
C120 C 0.29443 0.79345 0.0195 0.0
O121 O 0.28293 0.80444 0.07309 0.0
O122 O 0.2923 0.80138 0.95163 0.0
C123 C 0.2086 0.79016 0.21189 0.0
O124 O 0.1934 0.76865 0.15544 0.0
C125 C 0.20798 0.81834 0.94896 0.0
Zn126 Zn 0.378 0.28046 0.26422 0.0
Zn127 Zn 0.38737 0.26782 0.39979 0.0
O128 O 0.35021 0.28448 0.40384 0.0
O129 O 0.34276 0.29254 0.28312 0.0
O130 O 0.39101 0.24885 0.50745 0.0
O131 O 0.36548 0.23751 0.21324 0.0
O132 O 0.38084 0.2285 0.32577 0.0
C133 C 0.33616 0.29372 0.35241 0.0
C134 C 0.44624 0.32819 0.31348 0.0
O135 O 0.43523 0.31163 0.37645 0.0
O136 O 0.42701 0.31892 0.25578 0.0
C137 C 0.40109 0.22672 0.51514 0.0
O138 O 0.40965 0.21562 0.4543 0.0
C139 C 0.37273 0.21971 0.25655 0.0
Zn140 Zn 0.07586 0.46299 0.65566 0.0
Zn141 Zn 0.10373 0.4476 0.76202 0.0
O142 O 0.0523 0.40606 0.74961 0.0
O143 O 0.02771 0.42764 0.67734 0.0
O144 O 0.12417 0.43623 0.85677 0.0
O145 O 0.10052 0.45202 0.5772 0.0
O146 O 0.13021 0.4452 0.66873 0.0
C147 C 0.02564 0.40262 0.71507 0.0
C148 C 0.10999 0.52061 0.74214 0.0
O149 O 0.11448 0.49902 0.78129 0.0
O150 O 0.09365 0.51146 0.68059 0.0
C151 C 0.15559 0.44334 0.86217 0.0
O152 O 0.17683 0.45802 0.80424 0.0
C153 C 0.12397 0.44616 0.59836 0.0
Zn154 Zn 0.64648 0.1003 0.95066 0.0
Zn155 Zn 0.66317 0.11492 0.07485 0.0
O156 O 0.62962 0.06119 0.08229 0.0
O157 O 0.60191 0.0585 0.97736 0.0
O158 O 0.68113 0.13627 0.18361 0.0
O159 O 0.68143 0.08979 0.91507 0.0
O160 O 0.70737 0.12403 1.01075 0.0
C161 C 0.60482 0.04388 0.03594 0.0
C162 C 0.63137 0.14711 0.96738 0.0
O163 O 0.63322 0.13644 0.03394 0.0
O164 O 0.64759 0.14307 0.91313 0.0
C165 C 0.70993 0.14243 0.21223 0.0
O166 O 0.72974 0.13392 0.1736 0.0
C167 C 0.7088 0.10802 0.95149 0.0
C168 C 0.33083 0.37374 0.35758 0.0
C169 C 0.29547 0.36095 0.34087 0.0
C170 C 0.28451 0.30135 0.34801 0.0
C171 C 0.31942 0.3143 0.3696 0.0
N172 N 0.37371 0.36231 0.41124 0.0
N173 N 0.2373 0.31281 0.33085 0.0
C174 C 0.34176 0.35034 0.3803 0.0
C175 C 0.27182 0.32474 0.33913 0.0
N176 N 0.35428 0.40832 0.34875 0.0
N177 N 0.26388 0.26675 0.33415 0.0
H178 H 0.22752 0.32935 0.32176 0.0
H179 H 0.21828 0.28685 0.33713 0.0
H180 H 0.272 0.24896 0.34468 0.0
H181 H 0.23951 0.256 0.3097 0.0
H182 H 0.38094 0.41878 0.35229 0.0
H183 H 0.34737 0.42615 0.32998 0.0
H184 H 0.38989 0.38803 0.42691 0.0
H185 H 0.38273 0.34597 0.4284 0.0
C186 C 0.94219 0.31723 0.75494 0.0
C187 C 0.92511 0.31408 0.68496 0.0
C188 C -0.01989 0.35866 0.63086 0.0
C189 C -0.0062 0.3683 0.70541 0.0
N190 N -0.01268 0.3561 0.84021 0.0
N191 N 0.92845 0.33296 0.55469 0.0
C192 C -0.02493 0.347 0.76805 0.0
C193 C 0.94434 0.33457 0.62173 0.0
N194 N 0.92672 0.29173 0.8088 0.0
N195 N 0.00148 0.3723 0.56888 0.0
H196 H 0.90236 0.31569 0.54496 0.0
H197 H 0.94084 0.35055 0.5103 0.0
H198 H 0.02816 0.38874 0.57383 0.0
H199 H -0.00662 0.36407 0.51351 0.0
H200 H 0.93901 0.29128 0.85848 0.0
H201 H 0.90307 0.26915 0.7994 0.0
H202 H -0.02733 0.34338 0.88843 0.0
H203 H 0.01112 0.37787 0.85235 0.0
C204 C 0.52531 0.95616 0.01266 0.0
C205 C 0.54001 0.9346 1.00568 0.0
C206 C 0.5978 -0.01536 0.02708 0.0
C207 C 0.58279 0.00571 0.03968 0.0
N208 N 0.53204 0.01053 0.05808 0.0
N209 N 0.58903 0.92665 0.02543 0.0
C210 C 0.54638 -0.00896 0.03676 0.0
C211 C 0.57591 0.94832 0.0183 0.0
N212 N 0.49142 0.94348 0.99408 0.0
N213 N 0.63287 -0.00067 0.01913 0.0
H214 H 0.57415 0.89981 0.01996 0.0
H215 H 0.61412 0.93506 0.04368 0.0
H216 H 0.65024 0.02574 0.02534 0.0
H217 H 0.64461 -0.01443 1.00024 0.0
H218 H 0.47997 0.95875 0.99088 0.0
H219 H 0.47549 0.91818 0.97506 0.0
H220 H 0.5055 0.0006 0.06385 0.0
H221 H 0.54695 0.03601 0.07705 0.0
C222 C 0.57569 0.57143 0.36981 0.0
C223 C 0.61027 0.58784 0.34117 0.0
C224 C 0.61566 0.64465 0.36366 0.0
C225 C 0.58151 0.62779 0.39387 0.0
N226 N 0.53389 0.57675 0.44855 0.0
N227 N 0.66593 0.64025 0.32876 0.0
C228 C 0.56363 0.59168 0.40596 0.0
C229 C 0.63124 0.62459 0.34359 0.0
N230 N 0.55339 0.53695 0.35716 0.0
N231 N 0.63243 0.67955 0.35069 0.0
H232 H 0.67823 0.62642 0.31461 0.0
H233 H 0.68291 0.66664 0.33669 0.0
H234 H 0.6221 0.69482 0.36824 0.0
H235 H 0.6556 0.69288 0.32015 0.0
H236 H 0.52716 0.52453 0.3714 0.0
H237 H 0.55989 0.52168 0.32404 0.0
H238 H 0.52082 0.55066 0.4643 0.0
H239 H 0.52462 0.5916 0.47431 0.0
C240 C 0.93453 0.55405 0.67303 0.0
C241 C 0.9104 0.56516 0.68787 0.0
C242 C -0.04302 0.62582 0.67416 0.0
C243 C -0.01959 0.61432 0.65487 0.0
N244 N -0.00978 0.56808 0.61924 0.0
N245 N 0.8971 0.61118 0.68977 0.0
C246 C -0.03143 0.57852 0.64855 0.0
C247 C 0.92115 0.60098 0.68487 0.0
N248 N 0.92512 0.52014 0.68502 0.0
N249 N -0.03077 0.66034 0.68524 0.0
H250 H 0.87086 0.59381 0.6995 0.0
H251 H 0.90282 0.6365 0.67946 0.0
H252 H -0.00504 0.67918 0.6744 0.0
H253 H 0.95437 0.67008 0.70845 0.0
H254 H 0.94241 0.51102 0.6821 0.0
H255 H 0.90066 0.50171 0.70548 0.0
H256 H -0.01765 0.54237 0.60675 0.0
H257 H 0.01526 0.58576 0.6003 0.0
C258 C 0.36858 0.95364 0.996 0.0
C259 C 0.33279 0.94009 1.01065 0.0
C260 C 0.34019 -0.00222 0.9879 0.0
C261 C 0.37535 0.01048 0.96704 0.0
N262 N 0.42129 -0.00085 0.93731 0.0
N263 N 0.28307 0.94762 1.00789 0.0
C264 C 0.38893 -0.01214 0.96677 0.0
C265 C 0.31814 0.96171 1.00327 0.0
N266 N 0.38323 0.93392 0.01193 0.0
N267 N 0.3282 0.02032 0.99645 0.0
H268 H 0.26611 0.92158 0.02082 0.0
H269 H 0.27061 0.96123 0.99382 0.0
H270 H 0.3431 0.04669 0.9838 0.0
H271 H 0.3042 0.01327 0.02071 0.0
H272 H 0.40976 0.94334 1.00938 0.0
H273 H 0.36908 0.90898 0.03502 0.0
H274 H 0.43164 -0.01691 0.92898 0.0
H275 H 0.4365 0.02395 0.91415 0.0
C276 C 0.16923 0.45368 1.00274 0.0
C277 C 0.1691 0.43664 0.93435 0.0
C278 C 0.20115 0.41243 0.99923 0.0
C279 C 0.19852 0.42692 0.06909 0.0
N280 N 0.17747 0.45908 0.13941 0.0
N281 N 0.18059 0.39582 0.86995 0.0
C282 C 0.18165 0.44675 0.07136 0.0
C283 C 0.1841 0.41509 0.93321 0.0
N284 N 0.1593 0.47806 1.00134 0.0
N285 N 0.22004 0.39613 0.99592 0.0
H286 H 0.16775 0.39651 0.82136 0.0
H287 H 0.18761 0.37689 0.86766 0.0
H288 H 0.23171 0.39259 0.04348 0.0
H289 H 0.22634 0.38837 0.94538 0.0
H290 H 0.16255 0.49436 0.0467 0.0
H291 H 0.15045 0.48423 0.9525 0.0
H292 H 0.16143 0.46949 0.14699 0.0
H293 H 0.18861 0.45728 0.18977 0.0
C294 C 0.7243 0.15699 0.42736 0.0
C295 C 0.75151 0.19224 0.43043 0.0
C296 C 0.75162 0.19471 0.28992 0.0
C297 C 0.72251 0.16045 0.28747 0.0
N298 N 0.67814 0.11063 0.35479 0.0
N299 N 0.78711 0.24639 0.36452 0.0
C300 C 0.70785 0.14222 0.3566 0.0
C301 C 0.76425 0.21152 0.36157 0.0
N302 N 0.71541 0.13692 0.49163 0.0
N303 N 0.76741 0.21129 0.2235 0.0
H304 H 0.79669 0.25973 0.41533 0.0
H305 H 0.79441 0.26271 0.31725 0.0
H306 H 0.75767 0.20109 0.17005 0.0
H307 H 0.79122 0.23422 0.22123 0.0
H308 H 0.69842 0.11025 0.49201 0.0
H309 H 0.72767 0.14623 0.54359 0.0
H310 H 0.66389 0.09775 0.40325 0.0
H311 H 0.66615 0.09843 0.30428 0.0
C312 C 0.46434 0.74483 0.69047 0.0
C313 C 0.49389 0.76786 0.73316 0.0
C314 C 0.53129 0.76372 0.63421 0.0
C315 C 0.50155 0.73831 0.59502 0.0
N316 N 0.43964 0.70023 0.59381 0.0
N317 N 0.55546 0.7956 0.75129 0.0
C318 C 0.46803 0.72778 0.62528 0.0
C319 C 0.52739 0.77638 0.70642 0.0
N320 N 0.43263 0.73984 0.71137 0.0
N321 N 0.56325 0.77681 0.60114 0.0
H322 H 0.55376 0.80595 0.80324 0.0
H323 H 0.57994 0.79926 0.73974 0.0
H324 H 0.56718 0.76824 0.54888 0.0
H325 H 0.58551 0.79803 0.62238 0.0
H326 H 0.41058 0.72645 0.67832 0.0
H327 H 0.42899 0.75187 0.75854 0.0
H328 H 0.41493 0.68886 0.61778 0.0
H329 H 0.44123 0.6864 0.54768 0.0
C330 C 0.68436 0.48564 1.01169 0.0
C331 C 0.70075 0.5023 0.08047 0.0
C332 C 0.75784 0.52423 0.01761 0.0
C333 C 0.74133 0.50579 0.95042 0.0
N334 N 0.68907 0.46355 0.88868 0.0
N335 N 0.75308 0.53328 0.15275 0.0
C336 C 0.70462 0.48496 0.94911 0.0
C337 C 0.73754 0.5205 0.08443 0.0
N338 N 0.64938 0.47154 1.00502 0.0
N339 N 0.79283 0.54628 0.01676 0.0
H340 H 0.73918 0.5315 0.20215 0.0
H341 H 0.7794 0.54339 0.16191 0.0
H342 H 0.80841 0.54889 0.96981 0.0
H343 H 0.80615 0.56353 0.06039 0.0
H344 H 0.63629 0.46252 0.95396 0.0
H345 H 0.6337 0.47168 0.04912 0.0
H346 H 0.66284 0.44498 0.8875 0.0
H347 H 0.70295 0.46194 0.84242 0.0
C348 C 0.14083 0.75521 0.37361 0.0
C349 C 0.15918 0.75038 0.43349 0.0
C350 C 0.21072 0.77254 0.34874 0.0
C351 C 0.19305 0.77946 0.2907 0.0
N352 N 0.14331 0.78279 0.25249 0.0
N353 N 0.21284 0.75759 0.4808 0.0
C354 C 0.15857 0.77209 0.30444 0.0
C355 C 0.19455 0.76017 0.4218 0.0
N356 N 0.10633 0.74368 0.38275 0.0
N357 N 0.2423 0.77606 0.33283 0.0
H358 H 0.20147 0.746 0.53276 0.0
H359 H 0.2396 0.76843 0.4798 0.0
H360 H 0.25509 0.78533 0.28081 0.0
H361 H 0.25485 0.76754 0.36884 0.0
H362 H 0.0904 0.74252 0.33872 0.0
H363 H 0.09286 0.73291 0.43342 0.0
H364 H 0.11972 0.78159 0.26157 0.0
H365 H 0.15584 0.79606 0.20273 0.0
C366 C 0.44157 0.21728 0.698 0.0
C367 C 0.41561 0.18413 0.72567 0.0
C368 C 0.37947 0.17912 0.61533 0.0
C369 C 0.40421 0.21342 0.59161 0.0
N370 N 0.45653 0.26712 0.6169 0.0
N371 N 0.35722 0.13603 0.71684 0.0
C372 C 0.43445 0.23312 0.63531 0.0
C373 C 0.38387 0.16565 0.68577 0.0
N374 N 0.47387 0.23288 0.72896 0.0
N375 N 0.35184 0.15913 0.56993 0.0
H376 H 0.35924 0.12551 0.76813 0.0
H377 H 0.33224 0.12343 0.69523 0.0
H378 H 0.34669 0.16861 0.52054 0.0
H379 H 0.33523 0.13268 0.57868 0.0
H380 H 0.49497 0.25522 0.70661 0.0
H381 H 0.48066 0.22159 0.77236 0.0
H382 H 0.47699 0.28405 0.65113 0.0
H383 H 0.45265 0.27927 0.57048 0.0
C384 C 0.1396 0.40666 0.53228 0.0
C385 C 0.14368 0.44012 0.53977 0.0
C386 C 0.18245 0.46077 0.42939 0.0
C387 C 0.18359 0.42976 0.43177 0.0
N388 N 0.16271 0.37214 0.47993 0.0
N389 N 0.16961 0.49981 0.49865 0.0
C390 C 0.1615 0.40211 0.48086 0.0
C391 C 0.16477 0.46729 0.48828 0.0
N392 N 0.11448 0.37935 0.57316 0.0
N393 N 0.19902 0.4842 0.37199 0.0
H394 H 0.15767 0.50588 0.54232 0.0
H395 H 0.1876 0.52151 0.46797 0.0
H396 H 0.21242 0.48003 0.3284 0.0
H397 H 0.19668 0.50598 0.36331 0.0
H398 H 0.10815 0.35374 0.56499 0.0
H399 H 0.09794 0.38188 0.61143 0.0
H400 H 0.15062 0.35251 0.52046 0.0
H401 H 0.17705 0.36757 0.43919 0.0
C402 C 0.76466 0.13383 0.78412 0.0
C403 C 0.79058 0.16557 0.8148 0.0
C404 C 0.77376 0.14272 0.94363 0.0
C405 C 0.74213 0.117 0.91323 0.0
N406 N 0.7188 0.07492 0.81297 0.0
N407 N 0.83217 0.18962 0.91549 0.0
C408 C 0.7414 0.10792 0.83569 0.0
C409 C 0.79953 0.1663 0.89236 0.0
N410 N 0.76193 0.12887 0.70744 0.0
N411 N 0.77837 0.14484 0.0203 0.0
H412 H 0.85137 0.20566 0.87645 0.0
H413 H 0.84085 0.19081 0.97075 0.0
H414 H 0.76066 0.12519 0.05636 0.0
H415 H 0.79942 0.16522 0.04717 0.0
H416 H 0.74088 0.108 0.68168 0.0
H417 H 0.78155 0.14545 0.66996 0.0
H418 H 0.71796 0.0661 0.75778 0.0
H419 H 0.70339 0.0556 0.85237 0.0
C420 C 0.54015 0.76154 0.07263 0.0
C421 C 0.55015 0.79546 0.09483 0.0
C422 C 0.57119 0.78607 0.2157 0.0
C423 C 0.55181 0.74997 0.20141 0.0
N424 N 0.51433 0.70283 0.11702 0.0
N425 N 0.58514 0.84394 0.17523 0.0
C426 C 0.53582 0.73747 0.12953 0.0
C427 C 0.5694 0.80911 0.16245 0.0
N428 N 0.53487 0.75241 0.99784 0.0
N429 N 0.59111 0.79796 0.27932 0.0
H430 H 0.58634 0.86106 0.13317 0.0
H431 H 0.59689 0.85583 0.22597 0.0
H432 H 0.59279 0.78139 0.31864 0.0
H433 H 0.60739 0.82406 0.29142 0.0
H434 H 0.52945 0.72811 0.97858 0.0
H435 H 0.54098 0.77072 0.95475 0.0
H436 H 0.49985 0.69331 0.06765 0.0
H437 H 0.50779 0.68384 0.15852 0.0
C438 C 0.68425 0.4831 0.51773 0.0
C439 C 0.69393 0.51569 0.48435 0.0
C440 C 0.75004 0.54211 0.54617 0.0
C441 C 0.73944 0.50989 0.58244 0.0
N442 N 0.69487 0.45196 0.61643 0.0
N443 N 0.73303 0.57735 0.47413 0.0
C444 C 0.70588 0.48113 0.57292 0.0
C445 C 0.72604 0.54564 0.50052 0.0
N446 N 0.65509 0.45382 0.49406 0.0
N447 N 0.78323 0.56891 0.55423 0.0
H448 H 0.71619 0.5806 0.43903 0.0
H449 H 0.75443 0.60064 0.49064 0.0
H450 H 0.80075 0.56767 0.59106 0.0
H451 H 0.79386 0.59168 0.52227 0.0
H452 H 0.6486 0.42887 0.51072 0.0
H453 H 0.63896 0.45409 0.45191 0.0
H454 H 0.66943 0.4314 0.61729 0.0
H455 H 0.7104 0.44962 0.65714 0.0
C456 C 0.14453 0.7976 0.7955 0.0
C457 C 0.12217 0.76283 0.81888 0.0
C458 C 0.14476 0.77792 0.94784 0.0
C459 C 0.1734 0.80793 0.91827 0.0
N460 N 0.19664 0.85251 0.82271 0.0
N461 N 0.10302 0.71893 0.91944 0.0
C462 C 0.17156 0.82007 0.84495 0.0
C463 C 0.122 0.75277 0.8962 0.0
N464 N 0.14004 0.80862 0.72631 0.0
N465 N 0.13981 0.77315 0.02449 0.0
H466 H 0.08772 0.69829 0.88397 0.0
H467 H 0.10544 0.71072 0.97337 0.0
H468 H 0.15516 0.79266 0.06266 0.0
H469 H 0.11785 0.75228 0.04888 0.0
H470 H 0.1543 0.83412 0.7071 0.0
H471 H 0.12007 0.7924 0.68993 0.0
H472 H 0.19941 0.86224 0.76774 0.0
H473 H 0.21509 0.86967 0.86091 0.0
C474 C 0.42771 0.196 0.14082 0.0
C475 C 0.40237 0.16384 0.11086 0.0
C476 C 0.35702 0.16562 0.18566 0.0
C477 C 0.38275 0.19682 0.219 0.0
N478 N 0.44326 0.23917 0.23845 0.0
N479 N 0.34408 0.11523 0.10948 0.0
C480 C 0.41835 0.21107 0.20014 0.0
C481 C 0.36727 0.14775 0.1346 0.0
N482 N 0.4605 0.21264 0.11052 0.0
N483 N 0.32288 0.15366 0.20175 0.0
H484 H 0.35062 0.10212 0.06961 0.0
H485 H 0.31898 0.10051 0.13086 0.0
H486 H 0.31487 0.16523 0.24243 0.0
H487 H 0.30258 0.13332 0.17291 0.0
H488 H 0.47919 0.23798 0.1238 0.0
H489 H 0.46827 0.20231 0.06651 0.0
H490 H 0.46962 0.24802 0.23323 0.0
H491 H 0.4379 0.25223 0.28045 0.0
C492 C 0.35886 0.56626 0.34607 0.0
C493 C 0.35688 0.53572 0.3165 0.0
C494 C 0.41983 0.56524 0.30547 0.0
C495 C 0.42192 0.59644 0.33092 0.0
N496 N 0.39393 0.62848 0.36595 0.0
N497 N 0.38427 0.50764 0.25414 0.0
C498 C 0.39153 0.59753 0.34855 0.0
C499 C 0.38701 0.53584 0.29114 0.0
N500 N 0.32954 0.56502 0.37324 0.0
N501 N 0.44921 0.5631 0.29929 0.0
H502 H 0.36062 0.48527 0.24406 0.0
H503 H 0.40508 0.50757 0.22728 0.0
H504 H 0.47374 0.58362 0.31214 0.0
H505 H 0.44904 0.54006 0.28907 0.0
H506 H 0.32957 0.58503 0.40361 0.0
H507 H 0.30503 0.54307 0.36797 0.0
H508 H 0.3726 0.63178 0.37189 0.0
H509 H 0.41758 0.65157 0.36988 0.0
C510 C 0.75639 0.35877 0.71079 0.0
C511 C 0.78868 0.39004 0.71532 0.0
C512 C 0.81936 0.35818 0.69827 0.0
C513 C 0.78721 0.32647 0.69876 0.0
N514 N 0.72533 0.29571 0.7157 0.0
N515 N 0.85038 0.4191 0.73092 0.0
C516 C 0.7557 0.32648 0.7083 0.0
C517 C 0.81998 0.38951 0.71471 0.0
N518 N 0.72662 0.36011 0.70681 0.0
N519 N 0.84938 0.35851 0.68081 0.0
H520 H 0.85154 0.44244 0.74417 0.0
H521 H 0.87373 0.41976 0.73894 0.0
H522 H 0.85032 0.33626 0.66799 0.0
H523 H 0.87299 0.38116 0.67171 0.0
H524 H 0.70253 0.33869 0.69509 0.0
H525 H 0.72643 0.3833 0.71192 0.0
H526 H 0.7019 0.29387 0.73071 0.0
H527 H 0.72401 0.27179 0.71044 0.0
C528 C 0.35897 0.76502 0.9744 0.0
C529 C 0.38465 0.78747 0.02636 0.0
C530 C 0.34024 0.79272 0.09751 0.0
C531 C 0.31784 0.77931 0.03511 0.0
N532 N 0.30185 0.74502 0.92142 0.0
N533 N 0.39991 0.82846 0.13047 0.0
C534 C 0.32588 0.76267 0.97598 0.0
C535 C 0.37532 0.80257 0.08684 0.0
N536 N 0.36599 0.74569 0.92505 0.0
N537 N 0.32828 0.79621 0.16659 0.0
H538 H 0.4264 0.83994 0.11998 0.0
H539 H 0.39381 0.8417 0.17085 0.0
H540 H 0.30195 0.78596 0.17767 0.0
H541 H 0.34376 0.80437 0.21483 0.0
H542 H 0.34765 0.72691 0.88951 0.0
H543 H 0.38973 0.74657 0.92384 0.0
H544 H 0.30697 0.73572 0.87167 0.0
H545 H 0.27648 0.74009 0.92651 0.0
C546 C 0.51335 0.42169 0.26847 0.0
C547 C 0.54401 0.42288 0.29168 0.0
C548 C 0.51143 0.36044 0.3192 0.0
C549 C 0.48017 0.36063 0.3076 0.0
N550 N 0.45112 0.39281 0.28162 0.0
N551 N 0.57341 0.39447 0.34029 0.0
C552 C 0.48102 0.39154 0.28407 0.0
C553 C 0.54345 0.39239 0.31647 0.0
N554 N 0.51533 0.44985 0.23296 0.0
N555 N 0.51056 0.32977 0.33113 0.0
H556 H 0.59741 0.41717 0.33471 0.0
H557 H 0.57434 0.37436 0.36804 0.0
H558 H 0.48755 0.30601 0.33427 0.0
H559 H 0.53261 0.32754 0.33238 0.0
H560 H 0.49414 0.44974 0.2086 0.0
H561 H 0.53898 0.47221 0.22117 0.0
H562 H 0.4506 0.41558 0.27249 0.0
H563 H 0.42693 0.37187 0.29633 0.0
C564 C 0.09753 0.59167 0.80439 0.0
C565 C 0.12055 0.61846 0.7532 0.0
C566 C 0.14691 0.58381 0.71804 0.0
C567 C 0.12273 0.55673 0.76607 0.0
N568 N 0.08461 0.53946 0.87409 0.0
N569 N 0.17294 0.64402 0.67792 0.0
C570 C 0.10174 0.56261 0.81666 0.0
C571 C 0.14733 0.61588 0.71563 0.0
N572 N 0.06959 0.59201 0.8356 0.0
N573 N 0.16813 0.5779 0.672 0.0
H574 H 0.17383 0.66782 0.67602 0.0
H575 H 0.1947 0.64475 0.65426 0.0
H576 H 0.16932 0.55519 0.67612 0.0
H577 H 0.1835 0.59469 0.62877 0.0
H578 H 0.0501 0.57119 0.86601 0.0
H579 H 0.06362 0.61133 0.82549 0.0
H580 H 0.07106 0.54372 0.91716 0.0
H581 H 0.08726 0.51781 0.88289 0.0
C582 C 0.601 0.18103 0.99035 0.0
C583 C 0.60371 0.15515 0.94932 0.0
C584 C 0.55207 0.14292 0.87699 0.0
C585 C 0.54452 0.16144 0.93105 0.0
N586 N 0.56353 0.20279 0.0324 0.0
N587 N 0.57789 0.10754 0.85889 0.0
C588 C 0.57001 0.18256 0.98474 0.0
C589 C 0.57866 0.1355 0.89271 0.0
N590 N 0.6279 0.20391 0.03423 0.0
N591 N 0.53311 0.13136 0.81218 0.0
H592 H 0.5946 0.09855 0.87208 0.0
H593 H 0.55786 0.09059 0.82364 0.0
H594 H 0.5143 0.1376 0.7984 0.0
H595 H 0.53926 0.11973 0.7681 0.0
H596 H 0.62869 0.22504 0.06114 0.0
H597 H 0.65084 0.20332 0.03861 0.0
H598 H 0.57875 0.21582 0.07897 0.0
H599 H 0.54188 0.20559 0.02565 0.0
loop_
_geom_bond_atom_site_label_1
_geom_bond_atom_site_label_2
_geom_bond_distance
_geom_bond_site_symmetry_2
_ccdc_geom_bond_type
Zn0 O3 2.031 . S
Zn0 O5 2.049 . S
Zn0 O10 2.067 . S
Zn1 O2 1.962 . S
Zn1 O4 1.986 . S
Zn1 O6 1.996 . S
Zn1 O9 1.943 . S
O2 Zn1 1.962 . S
O2 C7 1.254 . S
O3 Zn0 2.031 . S
O3 C7 1.269 . S
O4 Zn1 1.986 . S
O4 C11 1.262 . S
O5 Zn0 2.049 . S
O5 C13 1.260 . S
O6 Zn1 1.996 . S
O6 C13 1.257 . S
C7 O2 1.254 . S
C7 O3 1.269 . S
C8 O9 1.249 . S
C8 O10 1.270 . S
O9 Zn1 1.943 . S
O9 C8 1.249 . S
O10 Zn0 2.067 . S
O10 C8 1.270 . S
C11 O4 1.262 . S
C11 O12 1.232 . S
O12 C11 1.232 . S
C13 O5 1.260 . S
C13 O6 1.257 . S
Zn14 O17 2.031 . S
Zn14 O19 2.049 . S
Zn14 O24 2.067 . S
Zn15 O16 1.962 . S
Zn15 O18 1.986 . S
Zn15 O20 1.996 . S
Zn15 O23 1.943 . S
O16 Zn15 1.962 . S
O16 C21 1.254 . S
O17 Zn14 2.031 . S
O17 C21 1.269 . S
O18 Zn15 1.986 . S
O18 C25 1.262 . S
O19 Zn14 2.049 . S
O19 C27 1.260 . S
O20 Zn15 1.996 . S
O20 C27 1.257 . S
C21 O16 1.254 . S
C21 O17 1.269 . S
C22 O23 1.249 . S
C22 O24 1.270 . S
O23 Zn15 1.943 . S
O23 C22 1.249 . S
O24 Zn14 2.067 . S
O24 C22 1.270 . S
C25 O18 1.262 . S
C25 O26 1.232 . S
O26 C25 1.232 . S
C27 O19 1.260 . S
C27 O20 1.257 . S
Zn28 O31 2.031 . S
Zn28 O33 2.049 . S
Zn28 O38 2.067 . S
Zn29 O30 1.962 . S
Zn29 O32 1.986 . S
Zn29 O34 1.996 1_556 S
Zn29 O37 1.943 . S
O30 Zn29 1.962 . S
O30 C35 1.254 . S
O31 Zn28 2.031 . S
O31 C35 1.269 1_554 S
O32 Zn29 1.986 . S
O32 C39 1.262 . S
O33 Zn28 2.049 . S
O33 C41 1.260 . S
O34 Zn29 1.996 1_554 S
O34 C41 1.257 . S
C35 O30 1.254 . S
C35 O31 1.269 1_556 S
C36 O37 1.249 . S
C36 O38 1.270 1_556 S
O37 Zn29 1.943 . S
O37 C36 1.249 . S
O38 Zn28 2.067 . S
O38 C36 1.270 1_554 S
C39 O32 1.262 . S
C39 O40 1.232 . S
O40 C39 1.232 . S
C41 O33 1.260 . S
C41 O34 1.257 . S
Zn42 O45 2.031 . S
Zn42 O47 2.049 . S
Zn42 O52 2.067 . S
Zn43 O44 1.962 . S
Zn43 O46 1.986 . S
Zn43 O48 1.996 . S
Zn43 O51 1.943 . S
O44 Zn43 1.962 . S
O44 C49 1.254 . S
O45 Zn42 2.031 . S
O45 C49 1.269 . S
O46 Zn43 1.986 . S
O46 C53 1.262 . S
O47 Zn42 2.049 . S
O47 C55 1.260 . S
O48 Zn43 1.996 . S
O48 C55 1.257 . S
C49 O44 1.254 . S
C49 O45 1.269 . S
C50 O51 1.249 . S
C50 O52 1.270 . S
O51 Zn43 1.943 . S
O51 C50 1.249 . S
O52 Zn42 2.067 . S
O52 C50 1.270 . S
C53 O46 1.262 . S
C53 O54 1.232 . S
O54 C53 1.232 . S
C55 O47 1.260 . S
C55 O48 1.257 . S
Zn56 O59 2.031 . S
Zn56 O61 2.049 . S
Zn56 O66 2.067 . S
Zn57 O58 1.962 . S
Zn57 O60 1.986 . S
Zn57 O62 1.996 . S
Zn57 O65 1.943 . S
O58 Zn57 1.962 . S
O58 C63 1.254 . S
O59 Zn56 2.031 . S
O59 C63 1.269 . S
O60 Zn57 1.986 . S
O60 C67 1.262 . S
O61 Zn56 2.049 . S
O61 C69 1.260 . S
O62 Zn57 1.996 . S
O62 C69 1.257 . S
C63 O58 1.254 . S
C63 O59 1.269 . S
C64 O65 1.249 . S
C64 O66 1.270 . S
O65 Zn57 1.943 . S
O65 C64 1.249 . S
O66 Zn56 2.067 . S
O66 C64 1.270 . S
C67 O60 1.262 . S
C67 O68 1.232 . S
O68 C67 1.232 . S
C69 O61 1.260 . S
C69 O62 1.257 . S
Zn70 O73 2.031 . S
Zn70 O75 2.049 . S
Zn70 O80 2.067 . S
Zn71 O72 1.962 . S
Zn71 O74 1.986 . S
Zn71 O76 1.996 1_556 S
Zn71 O79 1.943 . S
O72 Zn71 1.962 . S
O72 C77 1.254 . S
O73 Zn70 2.031 . S
O73 C77 1.269 1_554 S
O74 Zn71 1.986 . S
O74 C81 1.262 . S
O75 Zn70 2.049 . S
O75 C83 1.260 . S
O76 Zn71 1.996 1_554 S
O76 C83 1.257 . S
C77 O72 1.254 . S
C77 O73 1.269 1_556 S
C78 O79 1.249 . S
C78 O80 1.270 1_556 S
O79 Zn71 1.943 . S
O79 C78 1.249 . S
O80 Zn70 2.067 . S
O80 C78 1.270 1_554 S
C81 O74 1.262 . S
C81 O82 1.232 . S
O82 C81 1.232 . S
C83 O75 1.260 . S
C83 O76 1.257 . S
Zn84 O87 2.031 . S
Zn84 O89 2.049 . S
Zn84 O94 2.067 . S
Zn85 O86 1.962 . S
Zn85 O88 1.986 . S
Zn85 O90 1.996 . S
Zn85 O93 1.943 . S
O86 Zn85 1.962 . S
O86 C91 1.254 . S
O87 Zn84 2.031 . S
O87 C91 1.269 . S
O88 Zn85 1.986 . S
O88 C95 1.262 . S
O89 Zn84 2.049 . S
O89 C97 1.260 . S
O90 Zn85 1.996 . S
O90 C97 1.257 . S
C91 O86 1.254 . S
C91 O87 1.269 . S
C92 O93 1.249 . S
C92 O94 1.270 . S
O93 Zn85 1.943 . S
O93 C92 1.249 . S
O94 Zn84 2.067 . S
O94 C92 1.270 . S
C95 O88 1.262 . S
C95 O96 1.232 . S
O96 C95 1.232 . S
C97 O89 1.260 . S
C97 O90 1.257 . S
Zn98 O101 2.031 . S
Zn98 O103 2.049 . S
Zn98 O108 2.067 . S
Zn99 O100 1.962 . S
Zn99 O102 1.986 . S
Zn99 O104 1.996 . S
Zn99 O107 1.943 . S
O100 Zn99 1.962 . S
O100 C105 1.254 . S
O101 Zn98 2.031 . S
O101 C105 1.269 . S
O102 Zn99 1.986 . S
O102 C109 1.262 . S
O103 Zn98 2.049 . S
O103 C111 1.260 . S
O104 Zn99 1.996 . S
O104 C111 1.257 . S
C105 O100 1.254 . S
C105 O101 1.269 . S
C106 O107 1.249 . S
C106 O108 1.270 . S
O107 Zn99 1.943 . S
O107 C106 1.249 . S
O108 Zn98 2.067 . S
O108 C106 1.270 . S
C109 O102 1.262 . S
C109 O110 1.232 . S
O110 C109 1.232 . S
C111 O103 1.260 . S
C111 O104 1.257 . S
Zn112 O115 2.031 . S
Zn112 O117 2.049 . S
Zn112 O122 2.067 . S
Zn113 O114 1.962 . S
Zn113 O116 1.986 . S
Zn113 O118 1.996 1_554 S
Zn113 O121 1.943 . S
O114 Zn113 1.962 . S
O114 C119 1.254 . S
O115 Zn112 2.031 . S
O115 C119 1.269 1_556 S
O116 Zn113 1.986 . S
O116 C123 1.262 . S
O117 Zn112 2.049 . S
O117 C125 1.260 . S
O118 Zn113 1.996 1_556 S
O118 C125 1.257 . S
C119 O114 1.254 . S
C119 O115 1.269 1_554 S
C120 O121 1.249 . S
C120 O122 1.270 1_554 S
O121 Zn113 1.943 . S
O121 C120 1.249 . S
O122 Zn112 2.067 . S
O122 C120 1.270 1_556 S
C123 O116 1.262 . S
C123 O124 1.232 . S
O124 C123 1.232 . S
C125 O117 1.260 . S
C125 O118 1.257 . S
Zn126 O129 2.031 . S
Zn126 O131 2.049 . S
Zn126 O136 2.067 . S
Zn127 O128 1.962 . S
Zn127 O130 1.986 . S
Zn127 O132 1.996 . S
Zn127 O135 1.943 . S
O128 Zn127 1.962 . S
O128 C133 1.254 . S
O129 Zn126 2.031 . S
O129 C133 1.269 . S
O130 Zn127 1.986 . S
O130 C137 1.262 . S
O131 Zn126 2.049 . S
O131 C139 1.260 . S
O132 Zn127 1.996 . S
O132 C139 1.257 . S
C133 O128 1.254 . S
C133 O129 1.269 . S
C134 O135 1.249 . S
C134 O136 1.270 . S
O135 Zn127 1.943 . S
O135 C134 1.249 . S
O136 Zn126 2.067 . S
O136 C134 1.270 . S
C137 O130 1.262 . S
C137 O138 1.232 . S
O138 C137 1.232 . S
C139 O131 1.260 . S
C139 O132 1.257 . S
Zn140 O143 2.031 . S
Zn140 O145 2.049 . S
Zn140 O150 2.067 . S
Zn141 O142 1.962 . S
Zn141 O144 1.986 . S
Zn141 O146 1.996 . S
Zn141 O149 1.943 . S
O142 Zn141 1.962 . S
O142 C147 1.254 . S
O143 Zn140 2.031 . S
O143 C147 1.269 . S
O144 Zn141 1.986 . S
O144 C151 1.262 . S
O145 Zn140 2.049 . S
O145 C153 1.260 . S
O146 Zn141 1.996 . S
O146 C153 1.257 . S
C147 O142 1.254 . S
C147 O143 1.269 . S
C148 O149 1.249 . S
C148 O150 1.270 . S
O149 Zn141 1.943 . S
O149 C148 1.249 . S
O150 Zn140 2.067 . S
O150 C148 1.270 . S
C151 O144 1.262 . S
C151 O152 1.232 . S
O152 C151 1.232 . S
C153 O145 1.260 . S
C153 O146 1.257 . S
Zn154 O157 2.031 . S
Zn154 O159 2.049 . S
Zn154 O164 2.067 . S
Zn155 O156 1.962 . S
Zn155 O158 1.986 . S
Zn155 O160 1.996 1_554 S
Zn155 O163 1.943 . S
O156 Zn155 1.962 . S
O156 C161 1.254 . S
O157 Zn154 2.031 . S
O157 C161 1.269 1_556 S
O158 Zn155 1.986 . S
O158 C165 1.262 . S
O159 Zn154 2.049 . S
O159 C167 1.260 . S
O160 Zn155 1.996 1_556 S
O160 C167 1.257 . S
C161 O156 1.254 . S
C161 O157 1.269 1_554 S
C162 O163 1.249 . S
C162 O164 1.270 1_554 S
O163 Zn155 1.943 . S
O163 C162 1.249 . S
O164 Zn154 2.067 . S
O164 C162 1.270 1_556 S
C165 O158 1.262 . S
C165 O166 1.232 . S
O166 C165 1.232 . S
C167 O159 1.260 . S
C167 O160 1.257 . S
C168 C169 1.363 . S
C168 C174 1.379 . S
C168 N176 1.356 . S
C169 C168 1.363 . S
C169 C175 1.363 . S
C170 C171 1.363 . S
C170 C175 1.379 . S
C170 N177 1.356 . S
C171 C170 1.363 . S
C171 C174 1.363 . S
N172 C174 1.356 . S
N172 H184 0.984 . S
N172 H185 0.985 . S
N173 C175 1.356 . S
N173 H178 0.984 . S
N173 H179 0.985 . S
C174 C168 1.379 . S
C174 C171 1.363 . S
C174 N172 1.356 . S
C175 C169 1.363 . S
C175 C170 1.379 . S
C175 N173 1.356 . S
N176 C168 1.356 . S
N176 H182 0.984 . S
N176 H183 0.984 . S
N177 C170 1.356 . S
N177 H180 0.984 . S
N177 H181 0.985 . S
H178 N173 0.984 . S
H179 N173 0.985 . S
H180 N177 0.984 . S
H181 N177 0.985 . S
H182 N176 0.984 . S
H183 N176 0.984 . S
H184 N172 0.984 . S
H185 N172 0.985 . S
C186 C187 1.363 . S
C186 C192 1.379 1_655 S
C186 N194 1.356 . S
C187 C186 1.363 . S
C187 C193 1.363 . S
C188 C189 1.363 . S
C188 C193 1.379 1_455 S
C188 N195 1.356 . S
C189 C188 1.363 . S
C189 C192 1.363 . S
N190 C192 1.356 . S
N190 H202 0.984 . S
N190 H203 0.985 . S
N191 C193 1.356 . S
N191 H196 0.984 . S
N191 H197 0.985 . S
C192 C186 1.379 1_455 S
C192 C189 1.363 . S
C192 N190 1.356 . S
C193 C187 1.363 . S
C193 C188 1.379 1_655 S
C193 N191 1.356 . S
N194 C186 1.356 . S
N194 H200 0.984 . S
N194 H201 0.984 . S
N195 C188 1.356 . S
N195 H198 0.984 . S
N195 H199 0.985 . S
H196 N191 0.984 . S
H197 N191 0.985 . S
H198 N195 0.984 . S
H199 N195 0.985 . S
H200 N194 0.984 . S
H201 N194 0.984 . S
H202 N190 0.984 . S
H203 N190 0.985 . S
C204 C205 1.363 1_554 S
C204 C210 1.379 1_565 S
C204 N212 1.356 . S
C205 C204 1.363 1_556 S
C205 C211 1.363 . S
C206 C207 1.363 1_556 S
C206 C211 1.379 1_545 S
C206 N213 1.356 . S
C207 C206 1.363 1_554 S
C207 C210 1.363 . S
N208 C210 1.356 . S
N208 H220 0.984 . S
N208 H221 0.985 . S
N209 C211 1.356 . S
N209 H214 0.984 . S
N209 H215 0.985 . S
C210 C204 1.379 1_545 S
C210 C207 1.363 . S
C210 N208 1.356 . S
C211 C205 1.363 . S
C211 C206 1.379 1_565 S
C211 N209 1.356 . S
N212 C204 1.356 . S
N212 H218 0.984 . S
N212 H219 0.984 . S
N213 C206 1.356 . S
N213 H216 0.984 . S
N213 H217 0.985 . S
H214 N209 0.984 . S
H215 N209 0.985 . S
H216 N213 0.984 . S
H217 N213 0.985 . S
H218 N212 0.984 . S
H219 N212 0.984 . S
H220 N208 0.984 . S
H221 N208 0.985 . S
C222 C223 1.363 . S
C222 C228 1.379 . S
C222 N230 1.356 . S
C223 C222 1.363 . S
C223 C229 1.363 . S
C224 C225 1.363 . S
C224 C229 1.379 . S
C224 N231 1.356 . S
C225 C224 1.363 . S
C225 C228 1.363 . S
N226 C228 1.356 . S
N226 H238 0.984 . S
N226 H239 0.985 . S
N227 C229 1.356 . S
N227 H232 0.984 . S
N227 H233 0.985 . S
C228 C222 1.379 . S
C228 C225 1.363 . S
C228 N226 1.356 . S
C229 C223 1.363 . S
C229 C224 1.379 . S
C229 N227 1.356 . S
N230 C222 1.356 . S
N230 H236 0.984 . S
N230 H237 0.984 . S
N231 C224 1.356 . S
N231 H234 0.984 . S
N231 H235 0.985 . S
H232 N227 0.984 . S
H233 N227 0.985 . S
H234 N231 0.984 . S
H235 N231 0.985 . S
H236 N230 0.984 . S
H237 N230 0.984 . S
H238 N226 0.984 . S
H239 N226 0.985 . S
C240 C241 1.363 . S
C240 C246 1.379 1_655 S
C240 N248 1.356 . S
C241 C240 1.363 . S
C241 C247 1.363 . S
C242 C243 1.363 . S
C242 C247 1.379 1_455 S
C242 N249 1.356 . S
C243 C242 1.363 . S
C243 C246 1.363 . S
N244 C246 1.356 . S
N244 H256 0.984 . S
N244 H257 0.985 . S
N245 C247 1.356 . S
N245 H250 0.984 . S
N245 H251 0.985 . S
C246 C240 1.379 1_455 S
C246 C243 1.363 . S
C246 N244 1.356 . S
C247 C241 1.363 . S
C247 C242 1.379 1_655 S
C247 N245 1.356 . S
N248 C240 1.356 . S
N248 H254 0.984 . S
N248 H255 0.984 . S
N249 C242 1.356 . S
N249 H252 0.984 . S
N249 H253 0.985 . S
H250 N245 0.984 . S
H251 N245 0.985 . S
H252 N249 0.984 . S
H253 N249 0.985 . S
H254 N248 0.984 . S
H255 N248 0.984 . S
H256 N244 0.984 . S
H257 N244 0.985 . S
C258 C259 1.363 1_556 S
C258 C264 1.379 1_565 S
C258 N266 1.356 . S
C259 C258 1.363 1_554 S
C259 C265 1.363 . S
C260 C261 1.363 1_554 S
C260 C265 1.379 1_545 S
C260 N267 1.356 . S
C261 C260 1.363 1_556 S
C261 C264 1.363 . S
N262 C264 1.356 . S
N262 H274 0.984 . S
N262 H275 0.985 . S
N263 C265 1.356 . S
N263 H268 0.984 . S
N263 H269 0.985 . S
C264 C258 1.379 1_545 S
C264 C261 1.363 . S
C264 N262 1.356 . S
C265 C259 1.363 . S
C265 C260 1.379 1_565 S
C265 N263 1.356 . S
N266 C258 1.356 . S
N266 H272 0.984 . S
N266 H273 0.984 . S
N267 C260 1.356 . S
N267 H270 0.984 . S
N267 H271 0.985 . S
H268 N263 0.984 . S
H269 N263 0.985 . S
H270 N267 0.984 . S
H271 N267 0.985 . S
H272 N266 0.984 . S
H273 N266 0.984 . S
H274 N262 0.984 . S
H275 N262 0.985 . S
C276 C277 1.363 . S
C276 C282 1.379 1_556 S
C276 N284 1.356 . S
C277 C276 1.363 . S
C277 C283 1.363 . S
C278 C279 1.363 . S
C278 C283 1.379 1_554 S
C278 N285 1.356 . S
C279 C278 1.363 . S
C279 C282 1.363 . S
N280 C282 1.356 . S
N280 H292 0.984 . S
N280 H293 0.985 . S
N281 C283 1.356 . S
N281 H286 0.984 . S
N281 H287 0.985 . S
C282 C276 1.379 1_554 S
C282 C279 1.363 . S
C282 N280 1.356 . S
C283 C277 1.363 . S
C283 C278 1.379 1_556 S
C283 N281 1.356 . S
N284 C276 1.356 . S
N284 H290 0.984 . S
N284 H291 0.984 . S
N285 C278 1.356 . S
N285 H288 0.984 . S
N285 H289 0.985 . S
H286 N281 0.984 . S
H287 N281 0.985 . S
H288 N285 0.984 . S
H289 N285 0.985 . S
H290 N284 0.984 . S
H291 N284 0.984 . S
H292 N280 0.984 . S
H293 N280 0.985 . S
C294 C295 1.363 . S
C294 C300 1.379 . S
C294 N302 1.356 . S
C295 C294 1.363 . S
C295 C301 1.363 . S
C296 C297 1.363 . S
C296 C301 1.379 . S
C296 N303 1.356 . S
C297 C296 1.363 . S
C297 C300 1.363 . S
N298 C300 1.356 . S
N298 H310 0.984 . S
N298 H311 0.985 . S
N299 C301 1.356 . S
N299 H304 0.984 . S
N299 H305 0.985 . S
C300 C294 1.379 . S
C300 C297 1.363 . S
C300 N298 1.356 . S
C301 C295 1.363 . S
C301 C296 1.379 . S
C301 N299 1.356 . S
N302 C294 1.356 . S
N302 H308 0.984 . S
N302 H309 0.984 . S
N303 C296 1.356 . S
N303 H306 0.984 . S
N303 H307 0.985 . S
H304 N299 0.984 . S
H305 N299 0.985 . S
H306 N303 0.984 . S
H307 N303 0.985 . S
H308 N302 0.984 . S
H309 N302 0.984 . S
H310 N298 0.984 . S
H311 N298 0.985 . S
C312 C313 1.363 . S
C312 C318 1.379 . S
C312 N320 1.356 . S
C313 C312 1.363 . S
C313 C319 1.363 . S
C314 C315 1.363 . S
C314 C319 1.379 . S
C314 N321 1.356 . S
C315 C314 1.363 . S
C315 C318 1.363 . S
N316 C318 1.356 . S
N316 H328 0.984 . S
N316 H329 0.985 . S
N317 C319 1.356 . S
N317 H322 0.984 . S
N317 H323 0.985 . S
C318 C312 1.379 . S
C318 C315 1.363 . S
C318 N316 1.356 . S
C319 C313 1.363 . S
C319 C314 1.379 . S
C319 N317 1.356 . S
N320 C312 1.356 . S
N320 H326 0.984 . S
N320 H327 0.984 . S
N321 C314 1.356 . S
N321 H324 0.984 . S
N321 H325 0.985 . S
H322 N317 0.984 . S
H323 N317 0.985 . S
H324 N321 0.984 . S
H325 N321 0.985 . S
H326 N320 0.984 . S
H327 N320 0.984 . S
H328 N316 0.984 . S
H329 N316 0.985 . S
C330 C331 1.363 . S
C330 C336 1.379 1_554 S
C330 N338 1.356 . S
C331 C330 1.363 . S
C331 C337 1.363 . S
C332 C333 1.363 . S
C332 C337 1.379 1_556 S
C332 N339 1.356 . S
C333 C332 1.363 . S
C333 C336 1.363 . S
N334 C336 1.356 . S
N334 H346 0.984 . S
N334 H347 0.985 . S
N335 C337 1.356 . S
N335 H340 0.984 . S
N335 H341 0.985 . S
C336 C330 1.379 1_556 S
C336 C333 1.363 . S
C336 N334 1.356 . S
C337 C331 1.363 . S
C337 C332 1.379 1_554 S
C337 N335 1.356 . S
N338 C330 1.356 . S
N338 H344 0.984 . S
N338 H345 0.984 . S
N339 C332 1.356 . S
N339 H342 0.984 . S
N339 H343 0.985 . S
H340 N335 0.984 . S
H341 N335 0.985 . S
H342 N339 0.984 . S
H343 N339 0.985 . S
H344 N338 0.984 . S
H345 N338 0.984 . S
H346 N334 0.984 . S
H347 N334 0.985 . S
C348 C349 1.363 . S
C348 C354 1.379 . S
C348 N356 1.356 . S
C349 C348 1.363 . S
C349 C355 1.363 . S
C350 C351 1.363 . S
C350 C355 1.379 . S
C350 N357 1.356 . S
C351 C350 1.363 . S
C351 C354 1.363 . S
N352 C354 1.356 . S
N352 H364 0.984 . S
N352 H365 0.985 . S
N353 C355 1.356 . S
N353 H358 0.984 . S
N353 H359 0.985 . S
C354 C348 1.379 . S
C354 C351 1.363 . S
C354 N352 1.356 . S
C355 C349 1.363 . S
C355 C350 1.379 . S
C355 N353 1.356 . S
N356 C348 1.356 . S
N356 H362 0.984 . S
N356 H363 0.984 . S
N357 C350 1.356 . S
N357 H360 0.984 . S
N357 H361 0.985 . S
H358 N353 0.984 . S
H359 N353 0.985 . S
H360 N357 0.984 . S
H361 N357 0.985 . S
H362 N356 0.984 . S
H363 N356 0.984 . S
H364 N352 0.984 . S
H365 N352 0.985 . S
C366 C367 1.363 . S
C366 C372 1.379 . S
C366 N374 1.356 . S
C367 C366 1.363 . S
C367 C373 1.363 . S
C368 C369 1.363 . S
C368 C373 1.379 . S
C368 N375 1.356 . S
C369 C368 1.363 . S
C369 C372 1.363 . S
N370 C372 1.356 . S
N370 H382 0.984 . S
N370 H383 0.985 . S
N371 C373 1.356 . S
N371 H376 0.984 . S
N371 H377 0.985 . S
C372 C366 1.379 . S
C372 C369 1.363 . S
C372 N370 1.356 . S
C373 C367 1.363 . S
C373 C368 1.379 . S
C373 N371 1.356 . S
N374 C366 1.356 . S
N374 H380 0.984 . S
N374 H381 0.984 . S
N375 C368 1.356 . S
N375 H378 0.984 . S
N375 H379 0.985 . S
H376 N371 0.984 . S
H377 N371 0.985 . S
H378 N375 0.984 . S
H379 N375 0.985 . S
H380 N374 0.984 . S
H381 N374 0.984 . S
H382 N370 0.984 . S
H383 N370 0.985 . S
C384 C385 1.363 . S
C384 C390 1.379 . S
C384 N392 1.356 . S
C385 C384 1.363 . S
C385 C391 1.363 . S
C386 C387 1.363 . S
C386 C391 1.379 . S
C386 N393 1.356 . S
C387 C386 1.363 . S
C387 C390 1.363 . S
N388 C390 1.356 . S
N388 H400 0.984 . S
N388 H401 0.985 . S
N389 C391 1.356 . S
N389 H394 0.984 . S
N389 H395 0.985 . S
C390 C384 1.379 . S
C390 C387 1.363 . S
C390 N388 1.356 . S
C391 C385 1.363 . S
C391 C386 1.379 . S
C391 N389 1.356 . S
N392 C384 1.356 . S
N392 H398 0.984 . S
N392 H399 0.984 . S
N393 C386 1.356 . S
N393 H396 0.984 . S
N393 H397 0.985 . S
H394 N389 0.984 . S
H395 N389 0.985 . S
H396 N393 0.984 . S
H397 N393 0.985 . S
H398 N392 0.984 . S
H399 N392 0.984 . S
H400 N388 0.984 . S
H401 N388 0.985 . S
C402 C403 1.363 . S
C402 C408 1.379 . S
C402 N410 1.356 . S
C403 C402 1.363 . S
C403 C409 1.363 . S
C404 C405 1.363 . S
C404 C409 1.379 . S
C404 N411 1.356 . S
C405 C404 1.363 . S
C405 C408 1.363 . S
N406 C408 1.356 . S
N406 H418 0.984 . S
N406 H419 0.985 . S
N407 C409 1.356 . S
N407 H412 0.984 . S
N407 H413 0.985 . S
C408 C402 1.379 . S
C408 C405 1.363 . S
C408 N406 1.356 . S
C409 C403 1.363 . S
C409 C404 1.379 . S
C409 N407 1.356 . S
N410 C402 1.356 . S
N410 H416 0.984 . S
N410 H417 0.984 . S
N411 C404 1.356 . S
N411 H414 0.984 1_556 S
N411 H415 0.985 . S
H412 N407 0.984 . S
H413 N407 0.985 . S
H414 N411 0.984 1_554 S
H415 N411 0.985 . S
H416 N410 0.984 . S
H417 N410 0.984 . S
H418 N406 0.984 . S
H419 N406 0.985 . S
C420 C421 1.363 . S
C420 C426 1.379 . S
C420 N428 1.356 . S
C421 C420 1.363 . S
C421 C427 1.363 . S
C422 C423 1.363 . S
C422 C427 1.379 . S
C422 N429 1.356 . S
C423 C422 1.363 . S
C423 C426 1.363 . S
N424 C426 1.356 . S
N424 H436 0.984 . S
N424 H437 0.985 . S
N425 C427 1.356 . S
N425 H430 0.984 . S
N425 H431 0.985 . S
C426 C420 1.379 . S
C426 C423 1.363 . S
C426 N424 1.356 . S
C427 C421 1.363 . S
C427 C422 1.379 . S
C427 N425 1.356 . S
N428 C420 1.356 . S
N428 H434 0.984 . S
N428 H435 0.984 . S
N429 C422 1.356 . S
N429 H432 0.984 . S
N429 H433 0.985 . S
H430 N425 0.984 . S
H431 N425 0.985 . S
H432 N429 0.984 . S
H433 N429 0.985 . S
H434 N428 0.984 . S
H435 N428 0.984 . S
H436 N424 0.984 . S
H437 N424 0.985 . S
C438 C439 1.363 . S
C438 C444 1.379 . S
C438 N446 1.356 . S
C439 C438 1.363 . S
C439 C445 1.363 . S
C440 C441 1.363 . S
C440 C445 1.379 . S
C440 N447 1.356 . S
C441 C440 1.363 . S
C441 C444 1.363 . S
N442 C444 1.356 . S
N442 H454 0.984 . S
N442 H455 0.985 . S
N443 C445 1.356 . S
N443 H448 0.984 . S
N443 H449 0.985 . S
C444 C438 1.379 . S
C444 C441 1.363 . S
C444 N442 1.356 . S
C445 C439 1.363 . S
C445 C440 1.379 . S
C445 N443 1.356 . S
N446 C438 1.356 . S
N446 H452 0.984 . S
N446 H453 0.984 . S
N447 C440 1.356 . S
N447 H450 0.984 . S
N447 H451 0.985 . S
H448 N443 0.984 . S
H449 N443 0.985 . S
H450 N447 0.984 . S
H451 N447 0.985 . S
H452 N446 0.984 . S
H453 N446 0.984 . S
H454 N442 0.984 . S
H455 N442 0.985 . S
C456 C457 1.363 . S
C456 C462 1.379 . S
C456 N464 1.356 . S
C457 C456 1.363 . S
C457 C463 1.363 . S
C458 C459 1.363 . S
C458 C463 1.379 . S
C458 N465 1.356 . S
C459 C458 1.363 . S
C459 C462 1.363 . S
N460 C462 1.356 . S
N460 H472 0.984 . S
N460 H473 0.985 . S
N461 C463 1.356 . S
N461 H466 0.984 . S
N461 H467 0.985 . S
C462 C456 1.379 . S
C462 C459 1.363 . S
C462 N460 1.356 . S
C463 C457 1.363 . S
C463 C458 1.379 . S
C463 N461 1.356 . S
N464 C456 1.356 . S
N464 H470 0.984 . S
N464 H471 0.984 . S
N465 C458 1.356 . S
N465 H468 0.984 1_556 S
N465 H469 0.985 . S
H466 N461 0.984 . S
H467 N461 0.985 . S
H468 N465 0.984 1_554 S
H469 N465 0.985 . S
H470 N464 0.984 . S
H471 N464 0.984 . S
H472 N460 0.984 . S
H473 N460 0.985 . S
C474 C475 1.363 . S
C474 C480 1.379 . S
C474 N482 1.356 . S
C475 C474 1.363 . S
C475 C481 1.363 . S
C476 C477 1.363 . S
C476 C481 1.379 . S
C476 N483 1.356 . S
C477 C476 1.363 . S
C477 C480 1.363 . S
N478 C480 1.356 . S
N478 H490 0.984 . S
N478 H491 0.985 . S
N479 C481 1.356 . S
N479 H484 0.984 . S
N479 H485 0.985 . S
C480 C474 1.379 . S
C480 C477 1.363 . S
C480 N478 1.356 . S
C481 C475 1.363 . S
C481 C476 1.379 . S
C481 N479 1.356 . S
N482 C474 1.356 . S
N482 H488 0.984 . S
N482 H489 0.984 . S
N483 C476 1.356 . S
N483 H486 0.984 . S
N483 H487 0.985 . S
H484 N479 0.984 . S
H485 N479 0.985 . S
H486 N483 0.984 . S
H487 N483 0.985 . S
H488 N482 0.984 . S
H489 N482 0.984 . S
H490 N478 0.984 . S
H491 N478 0.985 . S
C492 C493 1.363 . S
C492 C498 1.379 . S
C492 N500 1.356 . S
C493 C492 1.363 . S
C493 C499 1.363 . S
C494 C495 1.363 . S
C494 C499 1.379 . S
C494 N501 1.356 . S
C495 C494 1.363 . S
C495 C498 1.363 . S
N496 C498 1.356 . S
N496 H508 0.984 . S
N496 H509 0.985 . S
N497 C499 1.356 . S
N497 H502 0.984 . S
N497 H503 0.985 . S
C498 C492 1.379 . S
C498 C495 1.363 . S
C498 N496 1.356 . S
C499 C493 1.363 . S
C499 C494 1.379 . S
C499 N497 1.356 . S
N500 C492 1.356 . S
N500 H506 0.984 . S
N500 H507 0.984 . S
N501 C494 1.356 . S
N501 H504 0.984 . S
N501 H505 0.985 . S
H502 N497 0.984 . S
H503 N497 0.985 . S
H504 N501 0.984 . S
H505 N501 0.985 . S
H506 N500 0.984 . S
H507 N500 0.984 . S
H508 N496 0.984 . S
H509 N496 0.985 . S
C510 C511 1.363 . S
C510 C516 1.379 . S
C510 N518 1.356 . S
C511 C510 1.363 . S
C511 C517 1.363 . S
C512 C513 1.363 . S
C512 C517 1.379 . S
C512 N519 1.356 . S
C513 C512 1.363 . S
C513 C516 1.363 . S
N514 C516 1.356 . S
N514 H526 0.984 . S
N514 H527 0.985 . S
N515 C517 1.356 . S
N515 H520 0.984 . S
N515 H521 0.985 . S
C516 C510 1.379 . S
C516 C513 1.363 . S
C516 N514 1.356 . S
C517 C511 1.363 . S
C517 C512 1.379 . S
C517 N515 1.356 . S
N518 C510 1.356 . S
N518 H524 0.984 . S
N518 H525 0.984 . S
N519 C512 1.356 . S
N519 H522 0.984 . S
N519 H523 0.985 . S
H520 N515 0.984 . S
H521 N515 0.985 . S
H522 N519 0.984 . S
H523 N519 0.985 . S
H524 N518 0.984 . S
H525 N518 0.984 . S
H526 N514 0.984 . S
H527 N514 0.985 . S
C528 C529 1.363 . S
C528 C534 1.379 . S
C528 N536 1.356 . S
C529 C528 1.363 . S
C529 C535 1.363 1_556 S
C530 C531 1.363 . S
C530 C535 1.379 . S
C530 N537 1.356 . S
C531 C530 1.363 . S
C531 C534 1.363 1_554 S
N532 C534 1.356 . S
N532 H544 0.984 . S
N532 H545 0.985 . S
N533 C535 1.356 . S
N533 H538 0.984 . S
N533 H539 0.985 . S
C534 C528 1.379 . S
C534 C531 1.363 1_556 S
C534 N532 1.356 . S
C535 C529 1.363 1_554 S
C535 C530 1.379 . S
C535 N533 1.356 . S
N536 C528 1.356 . S
N536 H542 0.984 . S
N536 H543 0.984 . S
N537 C530 1.356 . S
N537 H540 0.984 . S
N537 H541 0.985 . S
H538 N533 0.984 . S
H539 N533 0.985 . S
H540 N537 0.984 . S
H541 N537 0.985 . S
H542 N536 0.984 . S
H543 N536 0.984 . S
H544 N532 0.984 . S
H545 N532 0.985 . S
C546 C547 1.363 . S
C546 C552 1.379 . S
C546 N554 1.356 . S
C547 C546 1.363 . S
C547 C553 1.363 . S
C548 C549 1.363 . S
C548 C553 1.379 . S
C548 N555 1.356 . S
C549 C548 1.363 . S
C549 C552 1.363 . S
N550 C552 1.356 . S
N550 H562 0.984 . S
N550 H563 0.985 . S
N551 C553 1.356 . S
N551 H556 0.984 . S
N551 H557 0.985 . S
C552 C546 1.379 . S
C552 C549 1.363 . S
C552 N550 1.356 . S
C553 C547 1.363 . S
C553 C548 1.379 . S
C553 N551 1.356 . S
N554 C546 1.356 . S
N554 H560 0.984 . S
N554 H561 0.984 . S
N555 C548 1.356 . S
N555 H558 0.984 . S
N555 H559 0.985 . S
H556 N551 0.984 . S
H557 N551 0.985 . S
H558 N555 0.984 . S
H559 N555 0.985 . S
H560 N554 0.984 . S
H561 N554 0.984 . S
H562 N550 0.984 . S
H563 N550 0.985 . S
C564 C565 1.363 . S
C564 C570 1.379 . S
C564 N572 1.356 . S
C565 C564 1.363 . S
C565 C571 1.363 . S
C566 C567 1.363 . S
C566 C571 1.379 . S
C566 N573 1.356 . S
C567 C566 1.363 . S
C567 C570 1.363 . S
N568 C570 1.356 . S
N568 H580 0.984 . S
N568 H581 0.985 . S
N569 C571 1.356 . S
N569 H574 0.984 . S
N569 H575 0.985 . S
C570 C564 1.379 . S
C570 C567 1.363 . S
C570 N568 1.356 . S
C571 C565 1.363 . S
C571 C566 1.379 . S
C571 N569 1.356 . S
N572 C564 1.356 . S
N572 H578 0.984 . S
N572 H579 0.984 . S
N573 C566 1.356 . S
N573 H576 0.984 . S
N573 H577 0.985 . S
H574 N569 0.984 . S
H575 N569 0.985 . S
H576 N573 0.984 . S
H577 N573 0.985 . S
H578 N572 0.984 . S
H579 N572 0.984 . S
H580 N568 0.984 . S
H581 N568 0.985 . S
C582 C583 1.363 . S
C582 C588 1.379 . S
C582 N590 1.356 . S
C583 C582 1.363 . S
C583 C589 1.363 1_554 S
C584 C585 1.363 . S
C584 C589 1.379 . S
C584 N591 1.356 . S
C585 C584 1.363 . S
C585 C588 1.363 1_556 S
N586 C588 1.356 . S
N586 H598 0.984 . S
N586 H599 0.985 . S
N587 C589 1.356 . S
N587 H592 0.984 . S
N587 H593 0.985 . S
C588 C582 1.379 . S
C588 C585 1.363 1_554 S
C588 N586 1.356 . S
C589 C583 1.363 1_556 S
C589 C584 1.379 . S
C589 N587 1.356 . S
N590 C582 1.356 . S
N590 H596 0.984 . S
N590 H597 0.984 . S
N591 C584 1.356 . S
N591 H594 0.984 . S
N591 H595 0.985 . S
H592 N587 0.984 . S
H593 N587 0.985 . S
H594 N591 0.984 . S
H595 N591 0.985 . S
H596 N590 0.984 . S
H597 N590 0.984 . S
H598 N586 0.984 . S
H599 N586 0.985 . S
C169 C7 1.404 . S
C171 C133 1.404 . S
C187 C21 1.404 . S
C189 C147 1.404 . S
C205 C35 1.404 . S
C207 C161 1.404 . S
C223 C49 1.404 . S
C225 C91 1.404 . S
C241 C105 1.404 . S
C243 C63 1.404 . S
C259 C119 1.404 . S
C261 C77 1.404 . S
C277 C151 1.705 . S
C279 C11 1.705 . S
C295 C25 1.705 . S
C297 C165 1.705 . S
C313 C39 1.705 . S
C315 C95 1.705 . S
C331 C53 1.705 . S
C333 C109 1.705 . S
C349 C67 1.705 . S
C351 C123 1.705 . S
C367 C81 1.705 . S
C369 C137 1.705 . S
C385 C153 0.936 . S
C387 C13 0.936 . S
C403 C27 0.936 . S
C405 C167 0.936 . S
C421 C41 0.936 . S
C423 C97 0.936 . S
C439 C55 0.936 . S
C441 C111 0.936 . S
C457 C69 0.936 . S
C459 C125 0.936 . S
C475 C83 0.936 . S
C477 C139 0.936 . S
C493 C8 1.504 . S
C495 C92 1.504 . S
C511 C106 1.504 . S
C513 C22 1.504 . S
C529 C36 1.504 . S
C531 C120 1.504 . S
C547 C50 1.504 . S
C549 C134 1.504 . S
C565 C64 1.504 . S
C567 C148 1.504 . S
C583 C162 1.504 . S
C585 C78 1.504 . S
