# Generated by pormake.
# Topology yfh, (5)-cn, num edge types: 1
# Building blocks:
#     Node 0, Type 0, BuildingBlock: XOMCOT_clean_sbu_0, # of connection points: 5
#     Node 1, Type 0, BuildingBlock: XOMCOT_clean_sbu_0, # of connection points: 5
#     Node 2, Type 0, BuildingBlock: XOMCOT_clean_sbu_0, # of connection points: 5
#     Node 3, Type 0, BuildingBlock: XOMCOT_clean_sbu_0, # of connection points: 5
#     Node 4, Type 0, BuildingBlock: XOMCOT_clean_sbu_0, # of connection points: 5
#     Node 5, Type 0, BuildingBlock: XOMCOT_clean_sbu_0, # of connection points: 5
#     Node 6, Type 0, BuildingBlock: XOMCOT_clean_sbu_0, # of connection points: 5
#     Node 7, Type 0, BuildingBlock: XOMCOT_clean_sbu_0, # of connection points: 5
#     Edge 8, Type (0, 0), BuildingBlock: MIFKUJ_clean_linker_0, # of connection points: 2
#     Edge 9, Type (0, 0), BuildingBlock: MIFKUJ_clean_linker_0, # of connection points: 2
#     Edge 10, Type (0, 0), BuildingBlock: MIFKUJ_clean_linker_0, # of connection points: 2
#     Edge 11, Type (0, 0), BuildingBlock: MIFKUJ_clean_linker_0, # of connection points: 2
#     Edge 12, Type (0, 0), BuildingBlock: MIFKUJ_clean_linker_0, # of connection points: 2
#     Edge 13, Type (0, 0), BuildingBlock: MIFKUJ_clean_linker_0, # of connection points: 2
#     Edge 14, Type (0, 0), BuildingBlock: MIFKUJ_clean_linker_0, # of connection points: 2
#     Edge 15, Type (0, 0), BuildingBlock: MIFKUJ_clean_linker_0, # of connection points: 2
#     Edge 16, Type (0, 0), BuildingBlock: MIFKUJ_clean_linker_0, # of connection points: 2
#     Edge 17, Type (0, 0), BuildingBlock: MIFKUJ_clean_linker_0, # of connection points: 2
#     Edge 18, Type (0, 0), BuildingBlock: MIFKUJ_clean_linker_0, # of connection points: 2
#     Edge 19, Type (0, 0), BuildingBlock: MIFKUJ_clean_linker_0, # of connection points: 2
#     Edge 20, Type (0, 0), BuildingBlock: MIFKUJ_clean_linker_0, # of connection points: 2
#     Edge 21, Type (0, 0), BuildingBlock: MIFKUJ_clean_linker_0, # of connection points: 2
#     Edge 22, Type (0, 0), BuildingBlock: MIFKUJ_clean_linker_0, # of connection points: 2
#     Edge 23, Type (0, 0), BuildingBlock: MIFKUJ_clean_linker_0, # of connection points: 2
#     Edge 24, Type (0, 0), BuildingBlock: MIFKUJ_clean_linker_0, # of connection points: 2
#     Edge 25, Type (0, 0), BuildingBlock: MIFKUJ_clean_linker_0, # of connection points: 2
#     Edge 26, Type (0, 0), BuildingBlock: MIFKUJ_clean_linker_0, # of connection points: 2
#     Edge 27, Type (0, 0), BuildingBlock: MIFKUJ_clean_linker_0, # of connection points: 2
# Relax obj value: 0.357
# Max RMSD: 0.264
# Mean RMSD: 0.264
data_MOF--net-yfh--node1-XOMCOT_clean_sbu_0--edge1-MIFKUJ_clean_linker_0
_symmetry_space_group_name_H-M    P1
_symmetry_Int_Tables_number       1
_symmetry_cell_setting            triclinic
loop_
_symmetry_equiv_pos_as_xyz
'x, y, z'
_cell_length_a     35.956077
_cell_length_b     35.93581
_cell_length_c     73.492169
_cell_angle_alpha  89.990835
_cell_angle_beta   89.875021
_cell_angle_gamma 90.046189
loop_
_atom_site_label
_atom_site_type_symbol
_atom_site_fract_x
_atom_site_fract_y
_atom_site_fract_z
_atom_type_partial_charge
Co0 Co 0.34999 0.18391 0.12833 0.0
C1 C 0.35225 0.20336 0.089 0.0
C2 C 0.30029 0.17874 0.09696 0.0
C3 C 0.29921 0.18575 0.07858 0.0
N4 N 0.33394 0.18887 0.10337 0.0
N5 N 0.33192 0.20114 0.07371 0.0
H6 H 0.37975 0.2152 0.08945 0.0
H7 H 0.27835 0.16648 0.10508 0.0
C8 C 0.33471 0.10663 0.11487 0.0
O9 O 0.35177 0.11616 0.09974 0.0
N10 N 0.36561 0.17961 0.15328 0.0
C11 C 0.39137 0.20107 0.16143 0.0
C12 C 0.39729 0.1878 0.17871 0.0
C13 C 0.35614 0.15355 0.16566 0.0
N14 N 0.37528 0.15783 0.18134 0.0
C15 C 0.42361 0.19943 0.11547 0.0
C16 C 0.44608 0.12684 0.11048 0.0
C17 C 0.46582 0.15544 0.10164 0.0
C18 C 0.45622 0.19224 0.10589 0.0
C19 C 0.4145 0.13563 0.12083 0.0
N20 N 0.40078 0.17109 0.12083 0.0
H21 H 0.4155 0.22807 0.11714 0.0
H22 H 0.40018 0.1135 0.12784 0.0
H23 H 0.40548 0.22432 0.15511 0.0
H24 H 0.3366 0.13128 0.16307 0.0
O25 O 0.35596 0.23712 0.12942 0.0
O26 O 0.30353 0.20794 0.13576 0.0
O27 O 0.33247 0.12976 0.12816 0.0
C28 C 0.32108 0.23944 0.13364 0.0
H29 H 0.27613 0.18034 0.06951 0.0
H30 H 0.41647 0.19932 0.18855 0.0
H31 H 0.45333 0.09787 0.10869 0.0
H32 H 0.4723 0.21558 0.10088 0.0
Co33 Co 0.32692 0.8362 0.38285 0.0
C34 C 0.31062 0.81836 0.34453 0.0
C35 C 0.33789 0.77335 0.35839 0.0
C36 C 0.33235 0.76315 0.3406 0.0
N37 N 0.32461 0.80801 0.36072 0.0
N38 N 0.31544 0.79156 0.33191 0.0
H39 H 0.29816 0.84525 0.34198 0.0
H40 H 0.35085 0.75679 0.3689 0.0
C41 C 0.40977 0.83535 0.38932 0.0
O42 O 0.40884 0.87071 0.39386 0.0
N43 N 0.32895 0.86336 0.40571 0.0
C44 C 0.30602 0.89056 0.41162 0.0
C45 C 0.31542 0.8999 0.42917 0.0
C46 C 0.35047 0.85522 0.4202 0.0
N47 N 0.34359 0.87777 0.43452 0.0
C48 C 0.32083 0.90967 0.36781 0.0
C49 C 0.37987 0.90342 0.34386 0.0
C50 C 0.35614 0.93408 0.34245 0.0
C51 C 0.32677 0.93745 0.35485 0.0
C52 C 0.37265 0.87602 0.35685 0.0
N53 N 0.34353 0.8793 0.36879 0.0
H54 H 0.29605 0.91133 0.37594 0.0
H55 H 0.38868 0.85071 0.35613 0.0
H56 H 0.28271 0.90181 0.40425 0.0
H57 H 0.37065 0.83299 0.42033 0.0
O58 O 0.27412 0.84467 0.38148 0.0
O59 O 0.30041 0.79606 0.39491 0.0
O60 O 0.37967 0.81778 0.38582 0.0
C61 C 0.27014 0.81322 0.38996 0.0
H62 H 0.33986 0.73669 0.3346 0.0
H63 H 0.30175 0.92062 0.4375 0.0
H64 H 0.40209 0.89917 0.3341 0.0
H65 H 0.3074 0.96046 0.35396 0.0
Co66 Co 0.66978 0.83326 0.63364 0.0
C67 C 0.70191 0.80412 0.59889 0.0
C68 C 0.74262 0.82917 0.61624 0.0
C69 C 0.76057 0.81466 0.60133 0.0
N70 N 0.70574 0.82311 0.61459 0.0
N71 N 0.73487 0.79882 0.59049 0.0
H72 H 0.67596 0.79401 0.59361 0.0
H73 H 0.75563 0.84268 0.62774 0.0
C74 C 0.69932 0.90652 0.62163 0.0
O75 O 0.69731 0.89328 0.60501 0.0
N76 N 0.63527 0.84238 0.65311 0.0
C77 C 0.60184 0.82607 0.65542 0.0
C78 C 0.5877 0.83671 0.67204 0.0
C79 C 0.64107 0.86281 0.66819 0.0
N80 N 0.6124 0.85979 0.67998 0.0
C81 C 0.61423 0.8193 0.6066 0.0
C82 C 0.58994 0.89167 0.60248 0.0
C83 C 0.57508 0.86384 0.5913 0.0
C84 C 0.58684 0.82715 0.59382 0.0
C85 C 0.617 0.88242 0.61536 0.0
N86 N 0.63086 0.84701 0.61637 0.0
H87 H 0.62216 0.79064 0.60847 0.0
H88 H 0.62633 0.90381 0.62456 0.0
H89 H 0.58919 0.8069 0.64592 0.0
H90 H 0.6664 0.87816 0.67084 0.0
O91 O 0.65919 0.78094 0.63511 0.0
O92 O 0.70413 0.80897 0.65038 0.0
O93 O 0.6885 0.8867 0.63518 0.0
C94 C 0.68748 0.77803 0.64589 0.0
H95 H 0.79026 0.81499 0.59888 0.0
H96 H 0.56155 0.82784 0.67796 0.0
H97 H 0.58031 0.92015 0.60146 0.0
H98 H 0.57547 0.80467 0.58573 0.0
Co99 Co 0.66911 0.14659 0.88231 0.0
C100 C 0.68253 0.1674 0.84307 0.0
C101 C 0.65521 0.2097 0.85875 0.0
C102 C 0.65953 0.22259 0.84132 0.0
N103 N 0.66872 0.17475 0.8598 0.0
N104 N 0.67661 0.19595 0.83153 0.0
H105 H 0.69682 0.14232 0.83921 0.0
H106 H 0.64304 0.22484 0.87 0.0
C107 C 0.58992 0.16124 0.87411 0.0
O108 O 0.59819 0.14939 0.85767 0.0
N109 N 0.66959 0.12038 0.9051 0.0
C110 C 0.6876 0.08858 0.90903 0.0
C111 C 0.68046 0.07953 0.92692 0.0
C112 C 0.652 0.13044 0.9205 0.0
N113 N 0.65808 0.10591 0.93411 0.0
C114 C 0.67887 0.08363 0.85893 0.0
C115 C 0.60981 0.05173 0.8644 0.0
C116 C 0.63333 0.0372 0.85097 0.0
C117 C 0.66886 0.05244 0.84887 0.0
C118 C 0.62152 0.08252 0.87456 0.0
N119 N 0.65411 0.10037 0.87039 0.0
H120 H 0.70651 0.09464 0.85716 0.0
H121 H 0.60376 0.09268 0.88533 0.0
H122 H 0.70472 0.07314 0.89956 0.0
H123 H 0.63478 0.15501 0.92159 0.0
O124 O 0.72188 0.14019 0.88004 0.0
O125 O 0.69547 0.1885 0.89344 0.0
O126 O 0.6151 0.1621 0.88648 0.0
C127 C 0.7259 0.17216 0.88791 0.0
H128 H 0.65158 0.24978 0.83632 0.0
H129 H 0.69139 0.05566 0.93412 0.0
H130 H 0.58261 0.03973 0.86685 0.0
H131 H 0.68823 0.04139 0.83893 0.0
Co132 Co 0.83509 0.33979 0.60959 0.0
C133 C 0.80314 0.31573 0.64454 0.0
C134 C 0.76809 0.3553 0.63098 0.0
C135 C 0.75108 0.3447 0.64691 0.0
N136 N 0.80076 0.33733 0.62964 0.0
N137 N 0.77306 0.31965 0.65542 0.0
H138 H 0.82615 0.2971 0.64707 0.0
H139 H 0.75715 0.37444 0.62099 0.0
C140 C 0.84054 0.42201 0.6045 0.0
O141 O 0.87679 0.41769 0.60352 0.0
N142 N 0.86837 0.34175 0.58863 0.0
C143 C 0.89518 0.3173 0.58382 0.0
C144 C 0.90922 0.32704 0.56705 0.0
C145 C 0.86513 0.36454 0.5741 0.0
N146 N 0.89041 0.35697 0.561 0.0
C147 C 0.9059 0.33542 0.62789 0.0
C148 C 0.8899 0.38891 0.65377 0.0
C149 C 0.92275 0.36839 0.65531 0.0
C150 C 0.93109 0.34192 0.64196 0.0
C151 C 0.86575 0.38192 0.63936 0.0
N152 N 0.87381 0.35549 0.62652 0.0
H153 H 0.91125 0.31249 0.61895 0.0
H154 H 0.83953 0.39656 0.6391 0.0
H155 H 0.90294 0.29274 0.59136 0.0
H156 H 0.84354 0.38523 0.57273 0.0
O157 O 0.84278 0.28708 0.61144 0.0
O158 O 0.79835 0.31355 0.595 0.0
O159 O 0.81938 0.39339 0.60557 0.0
C160 C 0.81384 0.28316 0.60111 0.0
H161 H 0.7246 0.35493 0.65178 0.0
H162 H 0.93119 0.31274 0.55981 0.0
H163 H 0.8823 0.40933 0.66396 0.0
H164 H 0.9557 0.32469 0.64304 0.0
Co165 Co 0.17193 0.3426 0.86842 0.0
C166 C 0.21333 0.32082 0.90142 0.0
C167 C 0.16711 0.28472 0.8968 0.0
C168 C 0.18833 0.27003 0.91059 0.0
N169 N 0.18212 0.31734 0.89134 0.0
N170 N 0.21765 0.2927 0.91335 0.0
H171 H 0.23479 0.34103 0.89873 0.0
H172 H 0.14406 0.27077 0.89031 0.0
C173 C 0.09626 0.3265 0.88278 0.0
O174 O 0.10829 0.34099 0.89811 0.0
N175 N 0.16306 0.36634 0.84541 0.0
C176 C 0.18027 0.39706 0.8391 0.0
C177 C 0.16729 0.40446 0.82189 0.0
C178 C 0.1398 0.35544 0.83211 0.0
N179 N 0.14185 0.37833 0.81757 0.0
C180 C 0.18169 0.40441 0.89265 0.0
C181 C 0.11231 0.43574 0.88753 0.0
C182 C 0.13485 0.44864 0.9017 0.0
C183 C 0.17057 0.43386 0.90364 0.0
C184 C 0.12459 0.40588 0.87686 0.0
N185 N 0.15766 0.38864 0.88059 0.0
H186 H 0.20952 0.39413 0.89408 0.0
H187 H 0.10663 0.39531 0.86628 0.0
H188 H 0.20084 0.41291 0.84652 0.0
H189 H 0.12226 0.331 0.83291 0.0
O190 O 0.22411 0.35269 0.86575 0.0
O191 O 0.19649 0.30108 0.85637 0.0
O192 O 0.11838 0.32389 0.8691 0.0
C193 C 0.22735 0.31959 0.85886 0.0
H194 H 0.18331 0.24379 0.91737 0.0
H195 H 0.17552 0.42752 0.81329 0.0
H196 H 0.08485 0.44726 0.88533 0.0
H197 H 0.18944 0.44443 0.9139 0.0
Co198 Co 0.15401 0.68482 0.10655 0.0
C199 C 0.1825 0.70672 0.14308 0.0
C200 C 0.22229 0.67627 0.12728 0.0
C201 C 0.23933 0.68802 0.14297 0.0
N202 N 0.18646 0.68747 0.12746 0.0
N203 N 0.21418 0.70713 0.15281 0.0
H204 H 0.15814 0.72226 0.14689 0.0
H205 H 0.23551 0.66169 0.11613 0.0
C206 C 0.17401 0.60679 0.11535 0.0
O207 O 0.1658 0.61565 0.13223 0.0
N208 N 0.12301 0.68289 0.0853 0.0
C209 C 0.0923 0.70336 0.08218 0.0
C210 C 0.07899 0.69479 0.06514 0.0
C211 C 0.128 0.66207 0.07028 0.0
N212 N 0.10143 0.66878 0.05776 0.0
C213 C 0.0954 0.69429 0.13265 0.0
C214 C 0.06551 0.62365 0.13013 0.0
C215 C 0.05212 0.64798 0.1435 0.0
C216 C 0.06641 0.68414 0.1442 0.0
C217 C 0.09411 0.63541 0.1185 0.0
N218 N 0.11109 0.66913 0.12104 0.0
H219 H 0.1051 0.72261 0.13313 0.0
H220 H 0.10299 0.61701 0.10773 0.0
H221 H 0.08048 0.72318 0.09164 0.0
H222 H 0.15089 0.6429 0.06842 0.0
O223 O 0.1462 0.73766 0.10805 0.0
O224 O 0.19256 0.71149 0.09298 0.0
O225 O 0.17062 0.63102 0.10261 0.0
C226 C 0.17632 0.74191 0.09859 0.0
H227 H 0.26804 0.68335 0.14673 0.0
H228 H 0.05445 0.70632 0.05876 0.0
H229 H 0.05403 0.59594 0.12869 0.0
H230 H 0.05605 0.70418 0.15399 0.0
Co231 Co 0.82313 0.65933 0.35858 0.0
C232 C 0.79559 0.68355 0.39532 0.0
C233 C 0.81794 0.72819 0.37938 0.0
C234 C 0.8059 0.74245 0.39568 0.0
N235 N 0.8124 0.69106 0.37931 0.0
N236 N 0.79192 0.71428 0.40571 0.0
H237 H 0.78519 0.65674 0.39928 0.0
H238 H 0.83038 0.74377 0.36833 0.0
C239 C 0.89489 0.69038 0.37095 0.0
O240 O 0.88293 0.68263 0.38743 0.0
N241 N 0.83289 0.62924 0.33748 0.0
C242 C 0.81725 0.59619 0.33344 0.0
C243 C 0.8299 0.585 0.3166 0.0
C244 C 0.85494 0.6377 0.32323 0.0
N245 N 0.85361 0.61109 0.31029 0.0
C246 C 0.81635 0.59996 0.3844 0.0
C247 C 0.89076 0.58138 0.38608 0.0
C248 C 0.86619 0.5668 0.39906 0.0
C249 C 0.8283 0.57485 0.39753 0.0
C250 C 0.87745 0.60678 0.37319 0.0
N251 N 0.84129 0.61863 0.37377 0.0
H252 H 0.78695 0.60534 0.38332 0.0
H253 H 0.89658 0.61773 0.36318 0.0
H254 H 0.79768 0.58152 0.34204 0.0
H255 H 0.87078 0.66322 0.32211 0.0
O256 O 0.77179 0.64526 0.35798 0.0
O257 O 0.79471 0.69467 0.34395 0.0
O258 O 0.875 0.6821 0.35703 0.0
C259 C 0.76553 0.6754 0.34883 0.0
H260 H 0.80812 0.77119 0.39992 0.0
H261 H 0.82237 0.55964 0.30956 0.0
H262 H 0.92007 0.57446 0.38634 0.0
H263 H 0.80815 0.56243 0.40669 0.0
H264 H 0.31793 0.16522 0.04246 0.0
H265 H 0.33041 0.18785 0.01173 0.0
H266 H 0.38325 0.28571 0.0339 0.0
H267 H 0.37078 0.2628 0.0648 0.0
H268 H 0.32511 0.30181 0.0125 0.0
H269 H 0.43372 0.2334 0.00584 0.0
H270 H 0.47801 0.18133 0.00794 0.0
H271 H 0.40946 0.11593 0.97245 0.0
H272 H 0.36436 0.16728 0.97035 0.0
H273 H 0.26831 0.34434 0.92439 0.0
H274 H 0.31756 0.33584 0.94658 0.0
H275 H 0.28692 0.2204 0.95241 0.0
H276 H 0.2391 0.22788 0.92939 0.0
H277 H 0.3615 0.2301 0.9576 0.0
H278 H 0.24438 0.2893 0.97797 0.0
H279 H 0.1977 0.33959 0.97713 0.0
H280 H 0.28283 0.42027 0.98828 0.0
H281 H 0.33006 0.3704 0.98897 0.0
C282 C 0.33277 0.19122 0.04071 0.0
C283 C 0.34296 0.21259 0.05584 0.0
C284 C 0.3405 0.20384 0.0232 0.0
C285 C 0.35823 0.23824 0.02055 0.0
C286 C 0.37007 0.25883 0.03569 0.0
C287 C 0.36279 0.24588 0.05326 0.0
C288 C 0.35679 0.25536 0.00231 0.0
C289 C 0.33438 0.28699 0.00044 0.0
C290 C 0.36878 0.23588 0.98664 0.0
C291 C 0.3955 0.20438 0.98797 0.0
C292 C 0.42784 0.20782 -0.00139 0.0
C293 C 0.45316 0.17841 -0.00023 0.0
C294 C 0.44654 0.14534 0.99034 0.0
C295 C 0.41456 0.14159 0.97974 0.0
C296 C 0.38913 0.17091 0.97852 0.0
C297 C 0.27258 0.3168 0.9299 0.0
C298 C 0.24893 0.28696 0.92529 0.0
C299 C 0.30088 0.31206 0.94264 0.0
C300 C 0.30547 0.27769 0.95135 0.0
C301 C 0.28379 0.24724 0.94587 0.0
C302 C 0.25586 0.25178 0.93294 0.0
C303 C 0.32772 0.27458 0.96816 0.0
C304 C 0.35397 0.24584 0.96965 0.0
C305 C 0.31909 0.29643 0.98363 0.0
C306 C 0.29074 0.3263 0.98326 0.0
C307 C 0.25312 0.31781 0.98013 0.0
C308 C 0.22659 0.34621 0.97969 0.0
C309 C 0.23732 0.38313 0.98258 0.0
C310 C 0.27459 0.39169 0.98598 0.0
C311 C 0.30125 0.36339 0.98639 0.0
H312 H 0.21674 0.40508 0.98223 0.0
H313 H 0.46621 0.12262 0.99124 0.0
H314 H 0.16402 0.71502 0.17982 0.0
H315 H 0.17511 0.74171 0.20996 0.0
H316 H 0.28842 0.76641 0.19473 0.0
H317 H 0.27739 0.73992 0.16451 0.0
H318 H 0.22928 0.71169 0.23297 0.0
H319 H 0.31366 0.8455 0.21925 0.0
H320 H 0.3176 0.89554 0.19635 0.0
H321 H 0.20277 0.87887 0.18265 0.0
H322 H 0.19794 0.8292 0.2057 0.0
H323 H 0.34797 0.75445 0.30418 0.0
H324 H 0.32618 0.75095 0.27284 0.0
H325 H 0.23852 0.82883 0.28518 0.0
H326 H 0.25962 0.83187 0.31682 0.0
H327 H 0.27401 0.83787 0.24951 0.0
H328 H 0.21685 0.74491 0.28772 0.0
H329 H 0.21791 0.69405 0.31029 0.0
H330 H 0.2825 0.62696 0.2737 0.0
H331 H 0.28265 0.67776 0.25113 0.0
C332 C 0.19105 0.72679 0.18281 0.0
C333 C 0.21998 0.72517 0.16997 0.0
C334 C 0.19733 0.74194 0.19997 0.0
C335 C 0.23245 0.75617 0.20442 0.0
C336 C 0.26101 0.7559 0.19141 0.0
C337 C 0.25484 0.7404 0.17429 0.0
C338 C 0.24059 0.76714 0.22328 0.0
C339 C 0.23885 0.73935 0.23662 0.0
C340 C 0.25314 0.80322 0.22787 0.0
C341 C 0.25552 0.83346 0.21415 0.0
C342 C 0.28919 0.85265 0.21143 0.0
C343 C 0.29159 0.88094 0.19841 0.0
C344 C 0.26048 0.89031 0.18802 0.0
C345 C 0.22687 0.8715 0.19067 0.0
C346 C 0.2243 0.84326 0.20371 0.0
C347 C 0.32406 0.77085 0.30027 0.0
C348 C 0.30499 0.79277 0.31306 0.0
C349 C 0.31194 0.76914 0.28233 0.0
C350 C 0.28052 0.78925 0.2769 0.0
C351 C 0.26282 0.81311 0.28924 0.0
C352 C 0.27489 0.81475 0.30728 0.0
C353 C 0.26414 0.78203 0.25891 0.0
C354 C 0.2643 0.81037 0.24581 0.0
C355 C 0.25073 0.74622 0.25438 0.0
C356 C 0.2499 0.71527 0.26779 0.0
C357 C 0.23144 0.7194 0.28455 0.0
C358 C 0.23184 0.69059 0.29734 0.0
C359 C 0.25022 0.65731 0.29342 0.0
C360 C 0.26825 0.65276 0.27671 0.0
C361 C 0.26811 0.68156 0.26392 0.0
H362 H 0.25049 0.63503 0.30334 0.0
H363 H 0.26236 0.91218 0.17794 0.0
H364 H 0.76585 0.77513 0.42345 0.0
H365 H 0.75124 0.77979 0.45574 0.0
H366 H 0.77066 0.66205 0.46209 0.0
H367 H 0.78756 0.65748 0.4301 0.0
H368 H 0.70199 0.7504 0.4787 0.0
H369 H 0.81245 0.6472 0.50179 0.0
H370 H 0.86967 0.61779 0.49003 0.0
H371 H 0.89406 0.71581 0.45875 0.0
H372 H 0.83699 0.74577 0.47037 0.0
H373 H 0.69267 0.74476 0.57509 0.0
H374 H 0.69896 0.72001 0.54427 0.0
H375 H 0.79725 0.78689 0.53608 0.0
H376 H 0.7908 0.81228 0.56671 0.0
H377 H 0.8036 0.71611 0.52116 0.0
H378 H 0.71646 0.81931 0.52269 0.0
H379 H 0.66012 0.85182 0.5334 0.0
H380 H 0.59226 0.76144 0.5145 0.0
H381 H 0.64831 0.72808 0.50396 0.0
C382 C 0.76716 0.75022 0.43168 0.0
C383 C 0.77858 0.71611 0.42417 0.0
C384 C 0.7583 0.75284 0.4501 0.0
C385 C 0.76045 0.72137 0.46133 0.0
C386 C 0.76941 0.68678 0.45368 0.0
C387 C 0.77875 0.68421 0.43531 0.0
C388 C 0.75632 0.72569 0.48121 0.0
C389 C 0.72399 0.74253 0.48802 0.0
C390 C 0.7852 0.71559 0.49331 0.0
C391 C 0.82038 0.69856 0.48685 0.0
C392 C 0.83018 0.66253 0.4925 0.0
C393 C 0.86253 0.64575 0.48583 0.0
C394 C 0.88548 0.66491 0.47363 0.0
C395 C 0.87622 0.70097 0.46816 0.0
C396 C 0.84386 0.71785 0.47477 0.0
C397 C 0.71564 0.75419 0.56675 0.0
C398 C 0.74089 0.781 0.57322 0.0
C399 C 0.71934 0.73978 0.54922 0.0
C400 C 0.74833 0.75197 0.53793 0.0
C401 C 0.77475 0.7771 0.54467 0.0
C402 C 0.77103 0.79157 0.56217 0.0
C403 C 0.74948 0.74126 0.51858 0.0
C404 C 0.78125 0.72322 0.51189 0.0
C405 C 0.72033 0.7508 0.50655 0.0
C406 C 0.68661 0.77099 0.51275 0.0
C407 C 0.68955 0.80622 0.52096 0.0
C408 C 0.65767 0.82482 0.52699 0.0
C409 C 0.62264 0.80865 0.52469 0.0
C410 C 0.61942 0.77389 0.51631 0.0
C411 C 0.65123 0.75512 0.51032 0.0
H412 H 0.59798 0.82311 0.52935 0.0
H413 H 0.9104 0.65183 0.4684 0.0
H414 H 0.82265 0.28254 0.67684 0.0
H415 H 0.80997 0.25272 0.70604 0.0
H416 H 0.69496 0.28539 0.7024 0.0
H417 H 0.70659 0.31374 0.67292 0.0
H418 H 0.73702 0.30707 0.73548 0.0
H419 H 0.70935 0.2022 0.69588 0.0
H420 H 0.72595 0.15706 0.67193 0.0
H421 H 0.8156 0.11613 0.70481 0.0
H422 H 0.79994 0.16154 0.72884 0.0
H423 H 0.63727 0.22811 0.80486 0.0
H424 H 0.65822 0.2404 0.77382 0.0
H425 H 0.76096 0.18262 0.78467 0.0
H426 H 0.73962 0.16974 0.81587 0.0
H427 H 0.73478 0.17159 0.74881 0.0
H428 H 0.76261 0.27182 0.78886 0.0
H429 H 0.75 0.31789 0.81295 0.0
H430 H 0.66632 0.36881 0.77963 0.0
H431 H 0.67798 0.32264 0.75545 0.0
C432 C 0.79447 0.2829 0.68199 0.0
C433 C 0.76572 0.30096 0.67243 0.0
C434 C 0.78739 0.26588 0.69873 0.0
C435 C 0.75161 0.26699 0.70624 0.0
C436 C 0.7228 0.28445 0.69674 0.0
C437 C 0.72967 0.30095 0.67993 0.0
C438 C 0.74429 0.25202 0.72453 0.0
C439 C 0.73628 0.27747 0.7384 0.0
C440 C 0.74491 0.21346 0.72833 0.0
C441 C 0.75378 0.18562 0.71406 0.0
C442 C 0.73282 0.18383 0.69794 0.0
C443 C 0.74201 0.15814 0.68437 0.0
C444 C 0.77191 0.13387 0.68682 0.0
C445 C 0.79251 0.13504 0.70291 0.0
C446 C 0.78347 0.16073 0.71652 0.0
C447 C 0.66412 0.2177 0.80054 0.0
C448 C 0.68716 0.19862 0.81275 0.0
C449 C 0.67599 0.22455 0.78283 0.0
C450 C 0.7114 0.21303 0.77713 0.0
C451 C 0.73357 0.19179 0.78889 0.0
C452 C 0.72144 0.18453 0.80665 0.0
C453 C 0.72617 0.22671 0.75961 0.0
C454 C 0.73588 0.20118 0.74594 0.0
C455 C 0.72779 0.26536 0.75599 0.0
C456 C 0.72101 0.29358 0.77039 0.0
C457 C 0.74135 0.29269 0.78671 0.0
C458 C 0.73439 0.31883 0.80038 0.0
C459 C 0.70734 0.34622 0.79783 0.0
C460 C 0.68726 0.34757 0.78159 0.0
C461 C 0.69406 0.32144 0.76789 0.0
H462 H 0.70198 0.36643 0.80844 0.0
H463 H 0.7791 0.11417 0.67626 0.0
H464 H 0.63554 0.16747 0.95244 0.0
H465 H 0.60944 0.17013 0.98301 0.0
H466 H 0.62253 0.05135 0.98842 0.0
H467 H 0.64741 0.04821 0.95746 0.0
H468 H 0.55567 0.07292 0.00043 0.0
H469 H 0.68092 0.11078 0.01075 0.0
H470 H 0.73853 0.1466 0.00567 0.0
H471 H 0.68079 0.24809 0.018 0.0
H472 H 0.62268 0.21295 0.0229 0.0
H473 H 0.51195 0.09404 0.09694 0.0
H474 H 0.55063 0.07971 0.07035 0.0
H475 H 0.52132 0.18492 0.04627 0.0
H476 H 0.48071 0.19844 0.07168 0.0
H477 H 0.60304 0.16221 0.04641 0.0
H478 H 0.47686 0.12466 0.0307 0.0
H479 H 0.41882 0.08943 0.03543 0.0
H480 H 0.47983 0.98678 0.03367 0.0
H481 H 0.53837 0.02158 0.0291 0.0
C482 C 0.63268 0.14182 0.96002 0.0
C483 C 0.64361 0.1076 0.95242 0.0
C484 C 0.61814 0.14346 0.97762 0.0
C485 C 0.61457 0.11101 0.98812 0.0
C486 C 0.62529 0.07677 0.9806 0.0
C487 C 0.63978 0.07508 0.96295 0.0
C488 C 0.59849 0.11296 0.0067 0.0
C489 C 0.5666 0.09181 0.01062 0.0
C490 C 0.61243 0.13794 0.01995 0.0
C491 C 0.64737 0.15922 0.01708 0.0
C492 C 0.68044 0.14077 0.01226 0.0
C493 C 0.7132 0.16095 0.00943 0.0
C494 C 0.71331 0.1996 0.01148 0.0
C495 C 0.68067 0.21814 0.01641 0.0
C496 C 0.64782 0.1981 0.01924 0.0
C497 C 0.5135 0.11415 0.08601 0.0
C498 C 0.49313 0.14765 0.08676 0.0
C499 C 0.5359 0.10598 0.0709 0.0
C500 C 0.53886 0.13143 0.0565 0.0
C501 C 0.51972 0.1652 0.05741 0.0
C502 C 0.49673 0.17299 0.07218 0.0
C503 C 0.56023 0.12261 0.03989 0.0
C504 C 0.59288 0.14265 0.03633 0.0
C505 C 0.54709 0.09662 0.027 0.0
C506 C 0.51202 0.07572 0.02983 0.0
C507 C 0.47796 0.09462 0.03153 0.0
C508 C 0.44495 0.07472 0.03412 0.0
C509 C 0.44565 0.03588 0.03494 0.0
C510 C 0.47935 0.01687 0.03309 0.0
C511 C 0.51244 0.03667 0.03048 0.0
H512 H 0.42007 0.02051 0.03695 0.0
H513 H 0.7387 0.21517 0.00929 0.0
H514 H 0.30098 0.95447 0.31935 0.0
H515 H 0.30623 0.99267 0.29191 0.0
H516 H 0.42315 0.00878 0.30229 0.0
H517 H 0.41812 0.97008 0.3298 0.0
H518 H 0.3821 0.0753 0.29226 0.0
H519 H 0.40529 0.95137 0.27181 0.0
H520 H 0.3932 0.88414 0.26882 0.0
H521 H 0.28941 0.90714 0.24232 0.0
H522 H 0.30068 0.97457 0.24535 0.0
H523 H 0.43052 0.14658 0.20574 0.0
H524 H 0.42788 0.1088 0.23325 0.0
H525 H 0.31487 0.07775 0.22078 0.0
H526 H 0.31726 0.11579 0.19315 0.0
H527 H 0.35544 0.0184 0.23212 0.0
H528 H 0.33277 0.14314 0.25287 0.0
H529 H 0.34564 0.21021 0.25616 0.0
H530 H 0.44934 0.18555 0.28239 0.0
H531 H 0.43731 0.1183 0.27902 0.0
C532 C 0.32769 0.9666 0.31593 0.0
C533 C 0.35913 0.9596 0.32672 0.0
C534 C 0.33069 0.98814 0.3002 0.0
C535 C 0.36509 0.0033 0.29508 0.0
C536 C 0.39638 0.99724 0.30607 0.0
C537 C 0.39351 0.97516 0.3217 0.0
C538 C 0.36826 0.02487 0.27802 0.0
C539 C 0.37683 0.06283 0.27906 0.0
C540 C 0.36058 0.00857 0.26092 0.0
C541 C 0.35365 0.96804 0.25899 0.0
C542 C 0.37972 0.94211 0.26549 0.0
C543 C 0.37307 0.90396 0.26375 0.0
C544 C 0.34056 0.89136 0.2554 0.0
C545 C 0.31462 0.9169 0.24876 0.0
C546 C 0.32114 0.95511 0.25048 0.0
C547 C 0.40495 0.13205 0.20889 0.0
C548 C 0.37393 0.13459 0.19732 0.0
C549 C 0.40353 0.11035 0.22462 0.0
C550 C 0.371 0.09092 0.22921 0.0
C551 C 0.34024 0.09261 0.2175 0.0
C552 C 0.34167 0.11429 0.2017 0.0
C553 C 0.36912 0.06906 0.2463 0.0
C554 C 0.36075 0.03096 0.24528 0.0
C555 C 0.37706 0.08526 0.26344 0.0
C556 C 0.3843 0.12569 0.26553 0.0
C557 C 0.35845 0.15202 0.25921 0.0
C558 C 0.36557 0.19007 0.26111 0.0
C559 C 0.39833 0.20214 0.26944 0.0
C560 C 0.42399 0.17617 0.27592 0.0
C561 C 0.41703 0.13808 0.27403 0.0
H562 H 0.40379 0.2316 0.27091 0.0
H563 H 0.33564 0.86179 0.25405 0.0
H564 H 0.34901 0.93638 0.45768 0.0
H565 H 0.38614 0.93988 0.4854 0.0
H566 H 0.42104 0.8262 0.47773 0.0
H567 H 0.38345 0.82209 0.45023 0.0
H568 H 0.38593 0.89948 0.51748 0.0
H569 H 0.51408 0.82187 0.48859 0.0
H570 H 0.54329 0.80967 0.45878 0.0
H571 H 0.49699 0.91089 0.43765 0.0
H572 H 0.46809 0.92406 0.46741 0.0
H573 H 0.50938 0.82873 0.58447 0.0
H574 H 0.46771 0.83866 0.55863 0.0
H575 H 0.53798 0.92793 0.53956 0.0
H576 H 0.57988 0.91803 0.56544 0.0
H577 H 0.52164 0.87594 0.51281 0.0
H578 H 0.4564 0.9496 0.55659 0.0
H579 H 0.42664 0.96299 0.58612 0.0
H580 H 0.34803 0.8749 0.57716 0.0
H581 H 0.37766 0.86062 0.54768 0.0
C582 C 0.36402 0.91187 0.46201 0.0
C583 C 0.36339 0.87903 0.45156 0.0
C584 C 0.38535 0.914 0.47784 0.0
C585 C 0.40669 0.88348 0.48344 0.0
C586 C 0.40522 0.85028 0.47344 0.0
C587 C 0.38381 0.84806 0.45765 0.0
C588 C 0.43141 0.88661 0.49944 0.0
C589 C 0.41561 0.89443 0.51649 0.0
C590 C 0.47022 0.8807 0.49801 0.0
C591 C 0.48859 0.87373 0.4802 0.0
C592 C 0.51033 0.84165 0.47762 0.0
C593 C 0.52681 0.83455 0.46072 0.0
C594 C 0.52188 0.85941 0.4463 0.0
C595 C 0.50068 0.89158 0.4488 0.0
C596 C 0.48423 0.89887 0.46569 0.0
C597 C 0.51569 0.85072 0.57486 0.0
C598 C 0.54779 0.87262 0.5769 0.0
C599 C 0.49183 0.85647 0.56018 0.0
C600 C 0.49975 0.88409 0.54725 0.0
C601 C 0.5314 0.90652 0.54944 0.0
C602 C 0.5551 0.90104 0.56425 0.0
C603 C 0.47602 0.88795 0.53093 0.0
C604 C 0.49201 0.88132 0.51381 0.0
C605 C 0.43746 0.89525 0.53228 0.0
C606 C 0.41944 0.90386 0.54997 0.0
C607 C 0.43294 0.93289 0.56097 0.0
C608 C 0.41606 0.94068 0.5777 0.0
C609 C 0.38551 0.91977 0.58353 0.0
C610 C 0.37171 0.89107 0.57263 0.0
C611 C 0.38851 0.88315 0.5559 0.0
H612 H 0.37248 0.92584 0.59648 0.0
H613 H 0.53452 0.85378 0.43321 0.0
H614 H 0.66662 0.97143 0.84235 0.0
H615 H 0.65516 0.93435 0.815 0.0
H616 H 0.56143 0.0042 0.80182 0.0
H617 H 0.57217 0.04056 0.82949 0.0
H618 H 0.5502 0.93502 0.78927 0.0
H619 H 0.64598 0.02694 0.78643 0.0
H620 H 0.70281 0.05911 0.79666 0.0
H621 H 0.76626 0.95944 0.78804 0.0
H622 H 0.7096 0.92647 0.77807 0.0
H623 H 0.63453 0.92834 0.69011 0.0
H624 H 0.63075 0.95545 0.72063 0.0
H625 H 0.58283 0.85321 0.74088 0.0
H626 H 0.58508 0.82694 0.7102 0.0
H627 H 0.66257 0.9401 0.74999 0.0
H628 H 0.52924 0.86783 0.77784 0.0
H629 H 0.46899 0.84475 0.76644 0.0
H630 H 0.47485 0.92101 0.72154 0.0
H631 H 0.53486 0.94488 0.73279 0.0
C632 C 0.64278 0.97792 0.83394 0.0
C633 C 0.62045 0.00894 0.83785 0.0
C634 C 0.63634 0.95689 0.8183 0.0
C635 C 0.60807 0.96719 0.80614 0.0
C636 C 0.5835 0.99589 0.81098 0.0
C637 C 0.5896 0.0166 0.82679 0.0
C638 C 0.60754 0.95181 0.78743 0.0
C639 C 0.57476 0.93585 0.78068 0.0
C640 C 0.63922 0.95426 0.77601 0.0
C641 C 0.6735 0.97414 0.78167 0.0
C642 C 0.67201 0.01183 0.78682 0.0
C643 C 0.70419 0.0302 0.79257 0.0
C644 C 0.73811 0.0113 0.79303 0.0
C645 C 0.73995 0.97402 0.7877 0.0
C646 C 0.70781 0.95547 0.782 0.0
C647 C 0.62302 0.91189 0.70111 0.0
C648 C 0.60989 0.87574 0.69786 0.0
C649 C 0.62086 0.92729 0.71853 0.0
C650 C 0.60607 0.90659 0.73309 0.0
C651 C 0.59341 0.87019 0.72984 0.0
C652 C 0.59483 0.85511 0.71234 0.0
C653 C 0.60526 0.92264 0.75173 0.0
C654 C 0.63792 0.9389 0.75852 0.0
C655 C 0.57299 0.92177 0.76286 0.0
C656 C 0.53674 0.90784 0.75607 0.0
C657 C 0.5176 0.87975 0.76557 0.0
C658 C 0.4835 0.86652 0.75912 0.0
C659 C 0.46817 0.88132 0.74324 0.0
C660 C 0.48683 0.90947 0.7338 0.0
C661 C 0.52091 0.92283 0.74019 0.0
H662 H 0.44178 0.87101 0.73827 0.0
H663 H 0.763 0.02557 0.79749 0.0
H664 H 0.07067 0.35578 0.81379 0.0
H665 H 0.03461 0.35385 0.78562 0.0
H666 H 0.13046 0.39252 0.75556 0.0
H667 H 0.16608 0.39561 0.78385 0.0
H668 H 0.07294 0.42811 0.74443 0.0
H669 H 0.09935 0.2995 0.75428 0.0
H670 H 0.10228 0.24045 0.77131 0.0
H671 H 0.98337 0.24027 0.77687 0.0
H672 H 0.97976 0.2996 0.76008 0.0
H673 H 0.99819 0.37701 0.65695 0.0
H674 H 0.03699 0.37918 0.68442 0.0
H675 H 0.93891 0.36799 0.71788 0.0
H676 H 0.90008 0.3662 0.69056 0.0
H677 H 0.99905 0.31758 0.72628 0.0
H678 H 0.9751 0.44835 0.7162 0.0
H679 H 0.97452 0.506 0.69801 0.0
H680 H 0.09299 0.49936 0.69131 0.0
H681 H 0.0942 0.44131 0.70925 0.0
C682 C 0.08403 0.36352 0.80113 0.0
C683 C 0.1211 0.37578 0.80094 0.0
C684 C 0.06349 0.36234 0.78503 0.0
C685 C 0.07996 0.37253 0.76839 0.0
C686 C 0.11711 0.38459 0.76821 0.0
C687 C 0.13744 0.38635 0.78435 0.0
C688 C 0.05819 0.37159 0.75126 0.0
C689 C 0.05729 0.40369 0.74035 0.0
C690 C 0.03729 0.33994 0.746 0.0
C691 C 0.03933 0.30418 0.75606 0.0
C692 C 0.07385 0.28701 0.75925 0.0
C693 C 0.07562 0.25346 0.76884 0.0
C694 C 0.04304 0.23667 0.77521 0.0
C695 C 0.00859 0.25334 0.77195 0.0
C696 C 0.00666 0.2869 0.76238 0.0
C697 C 0.98502 0.37527 0.6702 0.0
C698 C 0.94623 0.37174 0.67171 0.0
C699 C 0.0071 0.37655 0.68582 0.0
C700 C 0.99068 0.37379 0.70311 0.0
C701 C 0.95199 0.37019 0.70463 0.0
C702 C 0.92989 0.36948 0.68906 0.0
C703 C 0.01385 0.37403 0.71967 0.0
C704 C 0.01495 0.34182 0.73041 0.0
C705 C 0.03537 0.4053 0.72461 0.0
C706 C 0.03468 0.44027 0.71389 0.0
C707 C 1.00099 0.45898 0.7107 0.0
C708 C 1.00055 0.49178 0.70047 0.0
C709 C 0.03368 0.50628 0.69346 0.0
C710 C 0.06734 0.48806 0.69672 0.0
C711 C 0.06792 0.45523 0.70693 0.0
H712 H 0.03329 0.53167 0.68555 0.0
H713 H 0.04447 0.2107 0.78263 0.0
H714 H 0.1041 0.5177 0.89625 0.0
H715 H 0.08571 0.5627 0.91994 0.0
H716 H 0.11564 0.48323 0.96143 0.0
H717 H 0.13403 0.43878 0.93802 0.0
H718 H 0.04944 0.51971 0.96904 0.0
H719 H 0.17616 0.5475 0.94937 0.0
H720 H 0.22349 0.56493 0.92657 0.0
H721 H 0.16455 0.66625 0.91538 0.0
H722 H 0.11656 0.64911 0.93798 0.0
H723 H 0.11696 0.59746 0.04945 0.0
H724 H 0.11005 0.56734 0.0198 0.0
H725 H 0.07014 0.67027 -0.00315 0.0
H726 H 0.07683 0.70057 0.02666 0.0
H727 H 0.12767 0.63263 0.97609 0.0
H728 H 0.00858 0.60941 0.00171 0.0
H729 H 0.96369 0.59106 0.02547 0.0
H730 H 0.00914 0.48062 0.02608 0.0
H731 H 0.05473 0.49845 0.00251 0.0
C732 C 0.10624 0.50992 0.91045 0.0
C733 C 0.1208 0.47512 0.91541 0.0
C734 C 0.09583 0.53551 0.92391 0.0
C735 C 0.09947 0.52623 0.9424 0.0
C736 C 0.11252 0.49087 0.94725 0.0
C737 C 0.12328 0.46565 0.9339 0.0
C738 C 0.0923 0.55364 0.95699 0.0
C739 C 0.06632 0.54455 0.97055 0.0
C740 C 0.11373 0.58649 0.95868 0.0
C741 C 0.14254 0.5968 0.94515 0.0
C742 C 0.17313 0.57333 0.94192 0.0
C743 C 0.2001 0.58318 0.92906 0.0
C744 C 0.19696 0.61661 0.91948 0.0
C745 C 0.16689 0.64031 0.92278 0.0
C746 C 0.1398 0.63055 0.9356 0.0
C747 C 0.10685 0.61366 0.03807 0.0
C748 C 0.09743 0.65127 0.0403 0.0
C749 C 0.10265 0.59642 0.02121 0.0
C750 C 0.08929 0.61658 0.00624 0.0
C751 C 0.08029 0.65429 0.00831 0.0
C752 C 0.08395 0.67144 0.0253 0.0
C753 C 0.08577 0.59791 0.98842 0.0
C754 C 0.10982 0.60856 0.9743 0.0
C755 C 0.06269 0.56637 0.98626 0.0
C756 C 0.03524 0.55536 0.00039 0.0
C757 C 0.00921 0.58128 0.007 0.0
C758 C 0.9836 0.57096 0.02042 0.0
C759 C 0.98359 0.53471 0.0273 0.0
C760 C 0.00918 0.50869 0.02074 0.0
C761 C 0.03488 0.51888 0.00732 0.0
H762 H 0.96374 0.52677 0.03769 0.0
H763 H 0.21788 0.6242 0.90954 0.0
H764 H 0.98754 0.68221 0.15331 0.0
H765 H 0.95006 0.66952 0.18044 0.0
H766 H 0.01947 0.57499 0.19285 0.0
H767 H 0.0564 0.58707 0.1654 0.0
H768 H 0.94966 0.56161 0.20337 0.0
H769 H 0.03855 0.65863 0.2113 0.0
H770 H 0.07094 0.71714 0.20372 0.0
H771 H 0.96922 0.77796 0.21094 0.0
H772 H 0.93607 0.71967 0.21827 0.0
H773 H 0.92328 0.63549 0.30369 0.0
H774 H 0.95599 0.63543 0.27444 0.0
H775 H 0.85896 0.58826 0.24866 0.0
H776 H 0.827 0.58686 0.27808 0.0
H777 H 0.94583 0.66999 0.24518 0.0
H778 H 0.88143 0.53845 0.21145 0.0
H779 H 0.85748 0.47679 0.2205 0.0
H780 H 0.92497 0.47937 0.26861 0.0
H781 H 0.94969 0.5408 0.25974 0.0
C782 C 0.99416 0.6582 0.16161 0.0
C783 C 0.02499 0.6358 0.15742 0.0
C784 C 0.97287 0.65104 0.17711 0.0
C785 C 0.98257 0.62187 0.1889 0.0
C786 C 0.0116 0.59774 0.18399 0.0
C787 C 0.03263 0.6046 0.16831 0.0
C788 C 0.96498 0.619 0.20714 0.0
C789 C 0.94865 0.58528 0.21252 0.0
C790 C 0.96485 0.64953 0.21932 0.0
C791 C 0.98476 0.68474 0.21517 0.0
C792 C 0.02304 0.68445 0.21116 0.0
C793 C 0.04154 0.71757 0.20691 0.0
C794 C 0.02213 0.75124 0.20681 0.0
C795 C 0.9842 0.75185 0.211 0.0
C796 C 0.96554 0.71878 0.21522 0.0
C797 C 0.90912 0.62501 0.29175 0.0
C798 C 0.87276 0.61104 0.2931 0.0
C799 C 0.92775 0.62496 0.27505 0.0
C800 C 0.91019 0.61141 0.25931 0.0
C801 C 0.87357 0.59793 0.26063 0.0
C802 C 0.85523 0.59728 0.27742 0.0
C803 C 0.92976 0.61266 0.24145 0.0
C804 C 0.9466 0.6462 0.2361 0.0
C805 C 0.93153 0.58151 0.22963 0.0
C806 C 0.9171 0.5444 0.23501 0.0
C807 C 0.89125 0.52579 0.22393 0.0
C808 C 0.87753 0.49089 0.22903 0.0
C809 C 0.8896 0.47423 0.24515 0.0
C810 C 0.91553 0.49237 0.25617 0.0
C811 C 0.92937 0.52725 0.25112 0.0
H812 H 0.87892 0.44723 0.24908 0.0
H813 H 0.03649 0.77685 0.20351 0.0
H814 H 0.8511 0.57958 0.43452 0.0
H815 H 0.86858 0.54178 0.46071 0.0
H816 H 0.92861 0.46687 0.42541 0.0
H817 H 0.91103 0.50503 0.39894 0.0
H818 H 0.87923 0.43105 0.44887 0.0
H819 H 0.97633 0.51989 0.45307 0.0
H820 H 0.00456 0.58241 0.45336 0.0
H821 H 0.94286 0.60994 0.50158 0.0
H822 H 0.91343 0.54798 0.50132 0.0
H823 H 0.92215 0.33071 0.52986 0.0
H824 H 0.93067 0.36438 0.50129 0.0
H825 H 0.87829 0.4611 0.52479 0.0
H826 H 0.87123 0.42832 0.5536 0.0
H827 H 0.93684 0.48122 0.50504 0.0
H828 H 0.83075 0.39967 0.49684 0.0
H829 H 0.79844 0.33911 0.49615 0.0
H830 H 0.87463 0.29984 0.45539 0.0
H831 H 0.90768 0.36006 0.45602 0.0
C832 C 0.86823 0.55516 0.43236 0.0
C833 C 0.87952 0.54493 0.41476 0.0
C834 C 0.87844 0.53378 0.44733 0.0
C835 C 0.9001 0.50169 0.445 0.0
C836 C 0.91201 0.49166 0.42745 0.0
C837 C 0.90211 0.51342 0.41241 0.0
C838 C 0.90773 0.47763 0.4609 0.0
C839 C 0.89272 0.44161 0.46102 0.0
C840 C 0.92465 0.49185 0.47682 0.0
C841 C 0.94252 0.52919 0.47713 0.0
C842 C 0.96852 0.53934 0.46367 0.0
C843 C 0.98475 0.57471 0.46382 0.0
C844 C 0.97553 0.6001 0.47749 0.0
C845 C 0.95004 0.59019 0.49102 0.0
C846 C 0.93354 0.55495 0.49087 0.0
C847 C 0.91282 0.35926 0.52906 0.0
C848 C 0.89564 0.37662 0.54405 0.0
C849 C 0.91749 0.3784 0.51264 0.0
C850 C 0.90474 0.41513 0.51083 0.0
C851 C 0.8883 0.43275 0.52585 0.0
C852 C 0.88382 0.41375 0.54227 0.0
C853 C 0.90725 0.43509 0.49318 0.0
C854 C 0.92416 0.47033 0.49276 0.0
C855 C 0.89177 0.42034 0.47701 0.0
C856 C 0.87196 0.38415 0.47665 0.0
C857 C 0.84079 0.378 0.48785 0.0
C858 C 0.82232 0.34377 0.48745 0.0
C859 C 0.83456 0.3156 0.47578 0.0
C860 C 0.86524 0.32165 0.46445 0.0
C861 C 0.88385 0.35582 0.46482 0.0
H862 H 0.8202 0.28912 0.47548 0.0
H863 H 0.98814 0.62746 0.4776 0.0
H864 H 0.14178 0.808 0.1039 0.0
H865 H 0.17006 0.86925 0.1067 0.0
H866 H 0.27712 0.82284 0.09299 0.0
H867 H 0.24876 0.76071 0.09047 0.0
H868 H 0.2815 0.86675 0.12283 0.0
H869 H 0.23054 0.87957 0.06312 0.0
H870 H 0.18213 0.87648 0.03946 0.0
H871 H 0.11568 0.95509 0.06914 0.0
H872 H 0.16348 0.95827 0.09311 0.0
H873 H 0.3668 0.04403 0.10173 0.0
H874 H 0.34044 0.98123 0.10062 0.0
H875 H 0.24308 0.01974 0.12928 0.0
H876 H 0.27011 0.08273 0.13101 0.0
H877 H 0.2341 0.98032 0.09232 0.0
H878 H 0.28515 0.9673 0.15197 0.0
H879 H 0.33318 0.96964 0.17581 0.0
H880 H 0.39977 0.89148 0.14593 0.0
H881 H 0.35231 0.88906 0.12176 0.0
C882 C 0.17125 0.81082 0.10113 0.0
C883 C 0.193 0.77948 0.09686 0.0
C884 C 0.18741 0.84599 0.10272 0.0
C885 C 0.22572 0.85086 0.09996 0.0
C886 C 0.24747 0.81979 0.09517 0.0
C887 C 0.2312 0.78439 0.09353 0.0
C888 C 0.24295 0.8881 0.10301 0.0
C889 C 0.27155 0.89146 0.11591 0.0
C890 C 0.22923 0.92063 0.09443 0.0
C891 C 0.20048 0.91891 0.07999 0.0
C892 C 0.20548 0.89598 0.06467 0.0
C893 C 0.17817 0.89426 0.05119 0.0
C894 C 0.14581 0.91551 0.05281 0.0
C895 C 0.14074 0.93861 0.0679 0.0
C896 C 0.16796 0.94042 0.08143 0.0
C897 C 0.34007 0.03895 0.1081 0.0
C898 C 0.32045 0.06816 0.11646 0.0
C899 C 0.3251 0.00309 0.10747 0.0
C900 C 0.28984 0.99588 0.11484 0.0
C901 C 0.27042 0.02479 0.12356 0.0
C902 C 0.2859 0.06061 0.12463 0.0
C903 C 0.27249 0.95881 0.11209 0.0
C904 C 0.24398 0.95553 0.0992 0.0
C905 C 0.28637 0.92641 0.12062 0.0
C906 C 0.31538 0.92841 0.13492 0.0
C907 C 0.31029 0.95105 0.15033 0.0
C908 C 0.33734 0.95227 0.16395 0.0
C909 C 0.36958 0.93084 0.16235 0.0
C910 C 0.37481 0.90812 0.14713 0.0
C911 C 0.34782 0.90679 0.13348 0.0
H912 H 0.39045 0.93175 0.17293 0.0
H913 H 0.1247 0.91413 0.04236 0.0
H914 H 0.70781 0.65324 0.3696 0.0
H915 H 0.6477 0.68204 0.37304 0.0
H916 H 0.67468 0.76071 0.3306 0.0
H917 H 0.73726 0.73319 0.32807 0.0
H918 H 0.64049 0.79605 0.35514 0.0
H919 H 0.60929 0.68452 0.32488 0.0
H920 H 0.60953 0.61734 0.31804 0.0
H921 H 0.5615 0.59418 0.37037 0.0
H922 H 0.56143 0.66116 0.37764 0.0
H923 H 0.42162 0.78357 0.36309 0.0
H924 H 0.48068 0.75914 0.3523 0.0
H925 H 0.53825 0.82212 0.39365 0.0
H926 H 0.47886 0.84875 0.40368 0.0
H927 H 0.52826 0.71773 0.36397 0.0
H928 H 0.62602 0.84215 0.38192 0.0
H929 H 0.62292 0.91066 0.38355 0.0
H930 H 0.53201 0.91088 0.34576 0.0
H931 H 0.53489 0.84246 0.34371 0.0
C932 C 0.70099 0.67624 0.36068 0.0
C933 C 0.72724 0.69051 0.34829 0.0
C934 C 0.66624 0.69269 0.36263 0.0
C935 C 0.65585 0.72297 0.35173 0.0
C936 C 0.68181 0.73715 0.3391 0.0
C937 C 0.71741 0.72125 0.33751 0.0
C938 C 0.61849 0.74026 0.3544 0.0
C939 C 0.61587 0.77895 0.35689 0.0
C940 C 0.58589 0.71829 0.35618 0.0
C941 C 0.58551 0.67791 0.35183 0.0
C942 C 0.59894 0.66509 0.33496 0.0
C943 C 0.59903 0.62704 0.33101 0.0
C944 C 0.58558 0.60151 0.34377 0.0
C945 C 0.5719 0.61399 0.3605 0.0
C946 C 0.57176 0.65201 0.36453 0.0
C947 C 0.44683 0.7921 0.36997 0.0
C948 C 0.44562 0.81801 0.38428 0.0
C949 C 0.48073 0.77813 0.36374 0.0
C950 C 0.5143 0.78904 0.37191 0.0
C951 C 0.51301 0.814 0.38669 0.0
C952 C 0.47903 0.82889 0.39259 0.0
C953 C 0.55029 0.77348 0.36514 0.0
C954 C 0.55266 0.73502 0.36195 0.0
C955 C 0.58205 0.79593 0.36182 0.0
C956 C 0.58048 0.83714 0.3628 0.0
C957 C 0.60549 0.85683 0.3739 0.0
C958 C 0.60374 0.89565 0.37491 0.0
C959 C 0.57721 0.9151 0.36481 0.0
C960 C 0.55246 0.89578 0.35362 0.0
C961 C 0.55412 0.85698 0.35255 0.0
H962 H 0.57589 0.94514 0.36562 0.0
H963 H 0.58571 0.57206 0.34069 0.0
H964 H 0.75613 0.94073 0.60446 0.0
H965 H 0.77082 0.00724 0.60421 0.0
H966 H 0.68176 0.02773 0.64226 0.0
H967 H 0.66775 0.96049 0.64308 0.0
H968 H 0.68763 0.07058 0.6036 0.0
H969 H 0.74749 0.04567 0.66068 0.0
H970 H 0.78846 0.01152 0.6817 0.0
H971 H 0.88203 0.0331 0.64686 0.0
H972 H 0.84148 0.06694 0.62548 0.0
H973 H 0.74081 0.26483 0.60529 0.0
H974 H 0.71608 0.20229 0.61102 0.0
H975 H 0.82425 0.15551 0.59964 0.0
H976 H 0.84919 0.21806 0.59495 0.0
H977 H 0.80129 0.12806 0.62941 0.0
H978 H 0.74276 0.14618 0.5708 0.0
H979 H 0.70325 0.17848 0.54841 0.0
H980 H 0.60915 0.16794 0.58412 0.0
H981 H 0.64823 0.13595 0.60682 0.0
C982 C 0.74022 0.95932 0.61309 0.0
C983 C 0.71102 0.94559 0.62389 0.0
C984 C 0.74855 0.99725 0.61288 0.0
C985 C 0.7273 0.02231 0.62315 0.0
C986 C 0.69848 0.00871 0.63427 0.0
C987 C 0.69072 0.97041 0.63485 0.0
C988 C 0.73458 0.06272 0.62127 0.0
C989 C 0.71201 0.08357 0.60953 0.0
C990 C 0.7669 0.07911 0.62864 0.0
C991 C 0.79133 0.05849 0.64137 0.0
C992 C 0.77669 0.0427 0.65737 0.0
C993 C 0.79988 0.02354 0.66939 0.0
C994 C 0.8378 0.02004 0.66559 0.0
C995 C 0.85264 0.03579 0.64978 0.0
C996 C 0.82957 0.05502 0.63772 0.0
C997 C 0.75886 0.241 0.60341 0.0
C998 C 0.79674 0.24607 0.59942 0.0
C999 C 0.74479 0.20523 0.60679 0.0
C1000 C 0.76822 0.1739 0.60578 0.0
C1001 C 0.80559 0.17908 0.60069 0.0
C1002 C 0.81977 0.21477 0.59776 0.0
C1003 C 0.75501 0.13604 0.61116 0.0
C1004 C 0.77655 0.11554 0.62359 0.0
C1005 C 0.72197 0.11988 0.60422 0.0
C1006 C 0.6985 0.13907 0.59058 0.0
C1007 C 0.71371 0.15101 0.57393 0.0
C1008 C 0.69138 0.16921 0.56117 0.0
C1009 C 0.65374 0.17536 0.56486 0.0
C1010 C 0.63832 0.16322 0.5813 0.0
C1011 C 0.66053 0.14503 0.5941 0.0
H1012 H 0.6365 0.18945 0.55497 0.0
H1013 H 0.85572 0.00521 0.67492 0.0
H1014 H 0.56299 0.22111 0.89332 0.0
H1015 H 0.49851 0.24395 0.89311 0.0
H1016 H 0.46484 0.14675 0.86278 0.0
H1017 H 0.52901 0.12494 0.86242 0.0
H1018 H 0.44198 0.20377 0.84591 0.0
H1019 H 0.43672 0.16548 0.9079 0.0
H1020 H 0.45465 0.16095 0.94019 0.0
H1021 H 0.43807 0.27846 0.94671 0.0
H1022 H 0.4207 0.28391 0.91438 0.0
H1023 H 0.2452 0.2478 0.84896 0.0
H1024 H 0.30553 0.21677 0.85315 0.0
H1025 H 0.3528 0.31951 0.87268 0.0
H1026 H 0.29344 0.35071 0.86821 0.0
H1027 H 0.36582 0.25683 0.89584 0.0
H1028 H 0.37586 0.29328 0.83252 0.0
H1029 H 0.35519 0.29535 0.80056 0.0
H1030 H 0.3596 0.17608 0.79772 0.0
H1031 H 0.37981 0.1733 0.82976 0.0
C1032 C 0.54152 0.2043 0.88707 0.0
C1033 C 0.55087 0.17145 0.8778 0.0
C1034 C 0.50466 0.21729 0.88693 0.0
C1035 C 0.47663 0.19719 0.87783 0.0
C1036 C 0.48584 0.16304 0.86971 0.0
C1037 C 0.52253 0.1505 0.86958 0.0
C1038 C 0.43882 0.21322 0.8749 0.0
C1039 C 0.42518 0.21469 0.85696 0.0
C1040 C 0.41689 0.22824 0.88917 0.0
C1041 C 0.42796 0.22519 0.90858 0.0
C1042 C 0.43737 0.19047 0.91614 0.0
C1043 C 0.44735 0.18772 0.93447 0.0
C1044 C 0.4478 0.21945 0.94544 0.0
C1045 C 0.43796 0.25395 0.93815 0.0
C1046 C 0.42804 0.25688 0.91982 0.0
C1047 C 0.26868 0.26392 0.85374 0.0
C1048 C 0.2645 0.30177 0.85814 0.0
C1049 C 0.30302 0.24612 0.85628 0.0
C1050 C 0.33349 0.26581 0.86342 0.0
C1051 C 0.32958 0.30374 0.86732 0.0
C1052 C 0.29562 0.32159 0.86456 0.0
C1053 C 0.36957 0.24714 0.867 0.0
C1054 C 0.38277 0.24541 0.88496 0.0
C1055 C 0.39097 0.23139 0.85285 0.0
C1056 C 0.37892 0.23307 0.83359 0.0
C1057 C 0.37209 0.26748 0.82513 0.0
C1058 C 0.36053 0.26879 0.80699 0.0
C1059 C 0.35597 0.23586 0.79713 0.0
C1060 C 0.36307 0.20156 0.80538 0.0
C1061 C 0.3746 0.2001 0.82352 0.0
H1062 H 0.34703 0.23692 0.78309 0.0
H1063 H 0.45569 0.21729 0.95959 0.0
H1064 H 0.76722 0.44224 0.6077 0.0
H1065 H 0.74259 0.50311 0.61649 0.0
H1066 H 0.8539 0.54776 0.61783 0.0
H1067 H 0.87878 0.48711 0.60907 0.0
H1068 H 0.81459 0.56622 0.64842 0.0
H1069 H 0.7974 0.57164 0.58403 0.0
H1070 H 0.77636 0.55024 0.55389 0.0
H1071 H 0.66299 0.55159 0.57235 0.0
H1072 H 0.6834 0.57251 0.60271 0.0
H1073 H 0.76074 0.76014 0.65086 0.0
H1074 H 0.78826 0.69838 0.64637 0.0
H1075 H 0.67848 0.6506 0.6423 0.0
H1076 H 0.65105 0.7121 0.64651 0.0
H1077 H 0.71901 0.63425 0.61308 0.0
H1078 H 0.73705 0.62965 0.67779 0.0
H1079 H 0.75906 0.65203 0.7076 0.0
H1080 H 0.87179 0.65044 0.68822 0.0
H1081 H 0.8504 0.62853 0.6582 0.0
C1082 C 0.78645 0.4651 0.60963 0.0
C1083 C 0.82499 0.45972 0.60765 0.0
C1084 C 0.77232 0.49991 0.61467 0.0
C1085 C 0.79642 0.53002 0.61784 0.0
C1086 C 0.83481 0.52491 0.61554 0.0
C1087 C 0.84894 0.49022 0.61039 0.0
C1088 C 0.78163 0.56657 0.62397 0.0
C1089 C 0.79401 0.58137 0.6406 0.0
C1090 C 0.75436 0.58601 0.61392 0.0
C1091 C 0.74198 0.57325 0.59571 0.0
C1092 C 0.76801 0.56703 0.58172 0.0
C1093 C 0.75619 0.55506 0.56458 0.0
C1094 C 0.71837 0.54945 0.56122 0.0
C1095 C 0.69228 0.55588 0.57498 0.0
C1096 C 0.70396 0.56782 0.59215 0.0
C1097 C 0.74254 0.73622 0.64976 0.0
C1098 C 0.70377 0.74088 0.64905 0.0
C1099 C 0.75828 0.70093 0.64706 0.0
C1100 C 0.73543 0.66983 0.64383 0.0
C1101 C 0.69668 0.67417 0.6446 0.0
C1102 C 0.68102 0.70931 0.64716 0.0
C1103 C 0.75145 0.63374 0.63772 0.0
C1104 C 0.73946 0.61909 0.62099 0.0
C1105 C 0.77915 0.61459 0.64765 0.0
C1106 C 0.79207 0.62782 0.66568 0.0
C1107 C 0.7665 0.63439 0.67983 0.0
C1108 C 0.77887 0.64693 0.69678 0.0
C1109 C 0.81679 0.65276 0.69978 0.0
C1110 C 0.84242 0.64597 0.68586 0.0
C1111 C 0.83019 0.63346 0.66888 0.0
H1112 H 0.82632 0.66245 0.71292 0.0
H1113 H 0.70927 0.54021 0.54794 0.0
H1114 H 0.74967 0.23319 0.90773 0.0
H1115 H 0.81186 0.26183 0.90697 0.0
H1116 H 0.84695 0.1809 0.86707 0.0
H1117 H 0.78631 0.15155 0.86847 0.0
H1118 H 0.89937 0.18796 0.88907 0.0
H1119 H 0.82392 0.27599 0.85682 0.0
H1120 H 0.77155 0.31929 0.85231 0.0
H1121 H 0.80896 0.38536 0.8974 0.0
H1122 H 0.86134 0.34219 0.9023 0.0
H1123 H 0.06388 0.27991 0.85757 0.0
H1124 H 0.99969 0.25621 0.85779 0.0
H1125 H 0.97617 0.32076 0.9059 0.0
H1126 H 0.03983 0.34421 0.90587 0.0
H1127 H 0.9185 0.32338 0.88 0.0
H1128 H 0.99569 0.23216 0.91071 0.0
H1129 H 0.04868 0.1888 0.91268 0.0
H1130 H 0.00731 0.12825 0.86659 0.0
H1131 H 0.95434 0.1716 0.8642 0.0
C1132 C 0.77085 0.2215 0.89893 0.0
C1133 C 0.76312 0.18996 0.88829 0.0
C1134 C 0.8063 0.23802 0.89836 0.0
C1135 C 0.83425 0.22383 0.88679 0.0
C1136 C 0.82624 0.19236 0.87621 0.0
C1137 C 0.79134 0.17556 0.87703 0.0
C1138 C 0.87208 0.24096 0.88564 0.0
C1139 C 0.90333 0.21755 0.88685 0.0
C1140 C 0.87772 0.27964 0.88296 0.0
C1141 C 0.8463 0.30565 0.88005 0.0
C1142 C 0.82081 0.29961 0.86585 0.0
C1143 C 0.79116 0.32415 0.86321 0.0
C1144 C 0.78687 0.355 0.8746 0.0
C1145 C 0.81228 0.36142 0.88861 0.0
C1146 C 0.84198 0.33695 0.89132 0.0
C1147 C 0.04492 0.28922 0.8681 0.0
C1148 C 0.05709 0.31362 0.8818 0.0
C1149 C 0.0083 0.27565 0.86823 0.0
C1150 C 0.98321 0.28656 0.88195 0.0
C1151 C 0.99498 0.31198 0.8952 0.0
C1152 C 0.03153 0.32515 0.8952 0.0
C1153 C 0.94526 0.27023 0.88317 0.0
C1154 C 0.91421 0.29381 0.88211 0.0
C1155 C 0.93968 0.2316 0.88559 0.0
C1156 C 0.97128 0.20532 0.88717 0.0
C1157 C 0.99805 0.20975 0.90092 0.0
C1158 C 0.02805 0.18516 0.90213 0.0
C1159 C 0.03141 0.15585 0.88974 0.0
C1160 C 0.00471 0.151 0.87616 0.0
C1161 C 0.97468 0.17555 0.87488 0.0
H1162 H 0.05466 0.13684 0.8907 0.0
H1163 H 0.76389 0.37397 0.87253 0.0
H1164 H 0.13163 0.5467 0.12255 0.0
H1165 H 0.15123 0.48155 0.12288 0.0
H1166 H 0.25879 0.51367 0.10191 0.0
H1167 H 0.23828 0.57895 0.10076 0.0
H1168 H 0.24124 0.44703 0.08916 0.0
H1169 H 0.24147 0.50301 0.14849 0.0
H1170 H 0.21442 0.53689 0.17453 0.0
H1171 H 0.13261 0.45089 0.18142 0.0
H1172 H 0.15887 0.41674 0.15524 0.0
H1173 H 0.35299 0.30667 0.12728 0.0
H1174 H 0.3224 0.36611 0.12211 0.0
H1175 H 0.21594 0.31588 0.13342 0.0
H1176 H 0.24654 0.25542 0.13839 0.0
H1177 H 0.22866 0.38842 0.15005 0.0
H1178 H 0.23562 0.32915 0.0918 0.0
H1179 H 0.26718 0.29588 0.06683 0.0
H1180 H 0.34024 0.38899 0.05876 0.0
H1181 H 0.3097 0.42253 0.08397 0.0
C1182 C 0.15906 0.53961 0.11749 0.0
C1183 C 0.18344 0.56763 0.11155 0.0
C1184 C 0.17041 0.50243 0.11785 0.0
C1185 C 0.20691 0.49265 0.11294 0.0
C1186 C 0.23056 0.52043 0.10588 0.0
C1187 C 0.21885 0.55769 0.10514 0.0
C1188 C 0.22114 0.45428 0.11656 0.0
C1189 C 0.23869 0.43438 0.1025 0.0
C1190 C 0.21745 0.43729 0.13392 0.0
C1191 C 0.20189 0.45752 0.1498 0.0
C1192 C 0.21757 0.49144 0.1555 0.0
C1193 C 0.2024 0.51068 0.17028 0.0
C1194 C 0.17175 0.4961 0.17959 0.0
C1195 C 0.15631 0.46218 0.17417 0.0
C1196 C 0.17134 0.44286 0.15937 0.0
C1197 C 0.32307 0.30812 0.12889 0.0
C1198 C 0.30218 0.27615 0.13322 0.0
C1199 C 0.30563 0.34221 0.12582 0.0
C1200 C 0.26688 0.34533 0.12709 0.0
C1201 C 0.24591 0.31398 0.13226 0.0
C1202 C 0.26341 0.27953 0.13516 0.0
C1203 C 0.24873 0.3814 0.1227 0.0
C1204 C 0.23069 0.40092 0.13664 0.0
C1205 C 0.25246 0.39815 0.10532 0.0
C1206 C 0.27051 0.37828 0.08991 0.0
C1207 C 0.25861 0.34245 0.08482 0.0
C1208 C 0.27631 0.32353 0.0706 0.0
C1209 C 0.30572 0.34029 0.06123 0.0
C1210 C 0.31746 0.37603 0.06604 0.0
C1211 C 0.29996 0.39502 0.08029 0.0
H1212 H 0.31935 0.32563 0.05022 0.0
H1213 H 0.16003 0.51104 0.19103 0.0
H1214 H 0.25127 0.7416 0.38242 0.0
H1215 H 0.18793 0.71694 0.37836 0.0
H1216 H 0.14241 0.82176 0.39615 0.0
H1217 H 0.20552 0.84704 0.39934 0.0
H1218 H 0.11169 0.74027 0.41059 0.0
H1219 H 0.14137 0.82276 0.35892 0.0
H1220 H 0.17891 0.84175 0.33241 0.0
H1221 H 0.16058 0.7351 0.30767 0.0
H1222 H 0.12473 0.71476 0.33448 0.0
H1223 H 0.92406 0.74535 0.39116 0.0
H1224 H 0.98931 0.76326 0.39343 0.0
H1225 H 0.01698 0.68616 0.35046 0.0
H1226 H 0.9508 0.66927 0.34766 0.0
H1227 H 0.05999 0.74552 0.34805 0.0
H1228 H 0.02865 0.66214 0.39548 0.0
H1229 H 0.99159 0.63674 0.42089 0.0
H1230 H 0.01336 0.73499 0.45236 0.0
H1231 H 0.05017 0.76123 0.42704 0.0
C1232 C 0.22769 0.75898 0.38587 0.0
C1233 C 0.23305 0.79605 0.39134 0.0
C1234 C 0.19165 0.74501 0.38341 0.0
C1235 C 0.16066 0.7677 0.38683 0.0
C1236 C 0.16605 0.80393 0.39341 0.0
C1237 C 0.20198 0.81826 0.39529 0.0
C1238 C 0.1226 0.75454 0.38268 0.0
C1239 C 0.10022 0.74161 0.39697 0.0
C1240 C 0.10833 0.75492 0.36474 0.0
C1241 C 0.1311 0.76692 0.34894 0.0
C1242 C 0.14625 0.80297 0.34809 0.0
C1243 C 0.16719 0.81402 0.33297 0.0
C1244 C 0.17251 0.78951 0.31844 0.0
C1245 C 0.15697 0.75389 0.31903 0.0
C1246 C 0.13648 0.74253 0.33422 0.0
C1247 C 0.94397 0.73289 0.3819 0.0
C1248 C 0.9326 0.70595 0.36926 0.0
C1249 C 0.9813 0.74283 0.38333 0.0
C1250 C 0.00829 0.72516 0.37255 0.0
C1251 C 0.9967 0.69989 0.35906 0.0
C1252 C 0.95896 0.69041 0.35738 0.0
C1253 C 0.04843 0.73223 0.37607 0.0
C1254 C 0.07137 0.74383 0.36168 0.0
C1255 C 0.06355 0.7297 0.39386 0.0
C1256 C 0.04198 0.71378 0.40929 0.0
C1257 C 0.0254 0.67843 0.40778 0.0
C1258 C 0.00444 0.66386 0.42217 0.0
C1259 C 1.00005 0.68428 0.43821 0.0
C1260 C 0.01677 0.71922 0.43992 0.0
C1261 C 0.03774 0.73393 0.42556 0.0
H1262 H 0.98372 0.67301 0.44931 0.0
H1263 H 0.18829 0.79827 0.30665 0.0
loop_
_geom_bond_atom_site_label_1
_geom_bond_atom_site_label_2
_geom_bond_distance
_geom_bond_site_symmetry_2
_ccdc_geom_bond_type
Co0 N4 2.148 . S
Co0 N10 2.128 . S
Co0 N20 2.194 . S
Co0 O25 2.351 . S
Co0 O26 2.155 . S
Co0 O27 2.096 . S
C1 N4 1.301 . S
C1 N5 1.328 . S
C1 H6 0.930 . S
C2 C3 1.333 . S
C2 N4 1.317 . S
C2 H7 0.930 . S
C3 C2 1.333 . S
C3 N5 1.350 . S
C3 H29 0.931 . S
N4 Co0 2.148 . S
N4 C1 1.301 . S
N4 C2 1.317 . S
N5 C1 1.328 . S
N5 C3 1.350 . S
H6 C1 0.930 . S
H7 C2 0.930 . S
C8 O9 1.224 . S
C8 O27 1.247 . S
O9 C8 1.224 . S
N10 Co0 2.128 . S
N10 C11 1.355 . S
N10 C13 1.311 . S
C11 N10 1.355 . S
C11 C12 1.363 . S
C11 H23 0.929 . S
C12 C11 1.363 . S
C12 N14 1.375 . S
C12 H30 0.931 . S
C13 N10 1.311 . S
C13 N14 1.347 . S
C13 H24 0.929 . S
N14 C12 1.375 . S
N14 C13 1.347 . S
C15 C18 1.365 . S
C15 N20 1.328 . S
C15 H21 0.929 . S
C16 C17 1.362 . S
C16 C19 1.378 . S
C16 H31 0.929 . S
C17 C16 1.362 . S
C17 C18 1.366 . S
C18 C15 1.365 . S
C18 C17 1.366 . S
C18 H32 0.930 . S
C19 C16 1.378 . S
C19 N20 1.315 . S
C19 H22 0.930 . S
N20 Co0 2.194 . S
N20 C15 1.328 . S
N20 C19 1.315 . S
H21 C15 0.929 . S
H22 C19 0.930 . S
H23 C11 0.929 . S
H24 C13 0.929 . S
O25 Co0 2.351 . S
O25 C28 1.244 . S
O26 Co0 2.155 . S
O26 C28 1.240 . S
O27 Co0 2.096 . S
O27 C8 1.247 . S
C28 O25 1.244 . S
C28 O26 1.240 . S
H29 C3 0.931 . S
H30 C12 0.931 . S
H31 C16 0.929 . S
H32 C18 0.930 . S
Co33 N37 2.148 . S
Co33 N43 2.128 . S
Co33 N53 2.194 . S
Co33 O58 2.351 . S
Co33 O59 2.155 . S
Co33 O60 2.096 . S
C34 N37 1.301 . S
C34 N38 1.328 . S
C34 H39 0.930 . S
C35 C36 1.333 . S
C35 N37 1.317 . S
C35 H40 0.930 . S
C36 C35 1.333 . S
C36 N38 1.350 . S
C36 H62 0.931 . S
N37 Co33 2.148 . S
N37 C34 1.301 . S
N37 C35 1.317 . S
N38 C34 1.328 . S
N38 C36 1.350 . S
H39 C34 0.930 . S
H40 C35 0.930 . S
C41 O42 1.224 . S
C41 O60 1.247 . S
O42 C41 1.224 . S
N43 Co33 2.128 . S
N43 C44 1.355 . S
N43 C46 1.311 . S
C44 N43 1.355 . S
C44 C45 1.363 . S
C44 H56 0.929 . S
C45 C44 1.363 . S
C45 N47 1.375 . S
C45 H63 0.931 . S
C46 N43 1.311 . S
C46 N47 1.347 . S
C46 H57 0.929 . S
N47 C45 1.375 . S
N47 C46 1.347 . S
C48 C51 1.365 . S
C48 N53 1.328 . S
C48 H54 0.929 . S
C49 C50 1.362 . S
C49 C52 1.378 . S
C49 H64 0.929 . S
C50 C49 1.362 . S
C50 C51 1.366 . S
C51 C48 1.365 . S
C51 C50 1.366 . S
C51 H65 0.930 . S
C52 C49 1.378 . S
C52 N53 1.315 . S
C52 H55 0.930 . S
N53 Co33 2.194 . S
N53 C48 1.328 . S
N53 C52 1.315 . S
H54 C48 0.929 . S
H55 C52 0.930 . S
H56 C44 0.929 . S
H57 C46 0.929 . S
O58 Co33 2.351 . S
O58 C61 1.244 . S
O59 Co33 2.155 . S
O59 C61 1.240 . S
O60 Co33 2.096 . S
O60 C41 1.247 . S
C61 O58 1.244 . S
C61 O59 1.240 . S
H62 C36 0.931 . S
H63 C45 0.931 . S
H64 C49 0.929 . S
H65 C51 0.930 . S
Co66 N70 2.148 . S
Co66 N76 2.128 . S
Co66 N86 2.194 . S
Co66 O91 2.351 . S
Co66 O92 2.155 . S
Co66 O93 2.096 . S
C67 N70 1.301 . S
C67 N71 1.328 . S
C67 H72 0.930 . S
C68 C69 1.333 . S
C68 N70 1.317 . S
C68 H73 0.930 . S
C69 C68 1.333 . S
C69 N71 1.350 . S
C69 H95 0.931 . S
N70 Co66 2.148 . S
N70 C67 1.301 . S
N70 C68 1.317 . S
N71 C67 1.328 . S
N71 C69 1.350 . S
H72 C67 0.930 . S
H73 C68 0.930 . S
C74 O75 1.224 . S
C74 O93 1.247 . S
O75 C74 1.224 . S
N76 Co66 2.128 . S
N76 C77 1.355 . S
N76 C79 1.311 . S
C77 N76 1.355 . S
C77 C78 1.363 . S
C77 H89 0.929 . S
C78 C77 1.363 . S
C78 N80 1.375 . S
C78 H96 0.931 . S
C79 N76 1.311 . S
C79 N80 1.347 . S
C79 H90 0.929 . S
N80 C78 1.375 . S
N80 C79 1.347 . S
C81 C84 1.365 . S
C81 N86 1.328 . S
C81 H87 0.929 . S
C82 C83 1.362 . S
C82 C85 1.378 . S
C82 H97 0.929 . S
C83 C82 1.362 . S
C83 C84 1.366 . S
C84 C81 1.365 . S
C84 C83 1.366 . S
C84 H98 0.930 . S
C85 C82 1.378 . S
C85 N86 1.315 . S
C85 H88 0.930 . S
N86 Co66 2.194 . S
N86 C81 1.328 . S
N86 C85 1.315 . S
H87 C81 0.929 . S
H88 C85 0.930 . S
H89 C77 0.929 . S
H90 C79 0.929 . S
O91 Co66 2.351 . S
O91 C94 1.244 . S
O92 Co66 2.155 . S
O92 C94 1.240 . S
O93 Co66 2.096 . S
O93 C74 1.247 . S
C94 O91 1.244 . S
C94 O92 1.240 . S
H95 C69 0.931 . S
H96 C78 0.931 . S
H97 C82 0.929 . S
H98 C84 0.930 . S
Co99 N103 2.148 . S
Co99 N109 2.128 . S
Co99 N119 2.194 . S
Co99 O124 2.351 . S
Co99 O125 2.155 . S
Co99 O126 2.096 . S
C100 N103 1.301 . S
C100 N104 1.328 . S
C100 H105 0.930 . S
C101 C102 1.333 . S
C101 N103 1.317 . S
C101 H106 0.930 . S
C102 C101 1.333 . S
C102 N104 1.350 . S
C102 H128 0.931 . S
N103 Co99 2.148 . S
N103 C100 1.301 . S
N103 C101 1.317 . S
N104 C100 1.328 . S
N104 C102 1.350 . S
H105 C100 0.930 . S
H106 C101 0.930 . S
C107 O108 1.224 . S
C107 O126 1.247 . S
O108 C107 1.224 . S
N109 Co99 2.128 . S
N109 C110 1.355 . S
N109 C112 1.311 . S
C110 N109 1.355 . S
C110 C111 1.363 . S
C110 H122 0.929 . S
C111 C110 1.363 . S
C111 N113 1.375 . S
C111 H129 0.931 . S
C112 N109 1.311 . S
C112 N113 1.347 . S
C112 H123 0.929 . S
N113 C111 1.375 . S
N113 C112 1.347 . S
C114 C117 1.365 . S
C114 N119 1.328 . S
C114 H120 0.929 . S
C115 C116 1.362 . S
C115 C118 1.378 . S
C115 H130 0.929 . S
C116 C115 1.362 . S
C116 C117 1.366 . S
C117 C114 1.365 . S
C117 C116 1.366 . S
C117 H131 0.930 . S
C118 C115 1.378 . S
C118 N119 1.315 . S
C118 H121 0.930 . S
N119 Co99 2.194 . S
N119 C114 1.328 . S
N119 C118 1.315 . S
H120 C114 0.929 . S
H121 C118 0.930 . S
H122 C110 0.929 . S
H123 C112 0.929 . S
O124 Co99 2.351 . S
O124 C127 1.244 . S
O125 Co99 2.155 . S
O125 C127 1.240 . S
O126 Co99 2.096 . S
O126 C107 1.247 . S
C127 O124 1.244 . S
C127 O125 1.240 . S
H128 C102 0.931 . S
H129 C111 0.931 . S
H130 C115 0.929 . S
H131 C117 0.930 . S
Co132 N136 2.148 . S
Co132 N142 2.128 . S
Co132 N152 2.194 . S
Co132 O157 2.351 . S
Co132 O158 2.155 . S
Co132 O159 2.096 . S
C133 N136 1.301 . S
C133 N137 1.328 . S
C133 H138 0.930 . S
C134 C135 1.333 . S
C134 N136 1.317 . S
C134 H139 0.930 . S
C135 C134 1.333 . S
C135 N137 1.350 . S
C135 H161 0.931 . S
N136 Co132 2.148 . S
N136 C133 1.301 . S
N136 C134 1.317 . S
N137 C133 1.328 . S
N137 C135 1.350 . S
H138 C133 0.930 . S
H139 C134 0.930 . S
C140 O141 1.224 . S
C140 O159 1.247 . S
O141 C140 1.224 . S
N142 Co132 2.128 . S
N142 C143 1.355 . S
N142 C145 1.311 . S
C143 N142 1.355 . S
C143 C144 1.363 . S
C143 H155 0.929 . S
C144 C143 1.363 . S
C144 N146 1.375 . S
C144 H162 0.931 . S
C145 N142 1.311 . S
C145 N146 1.347 . S
C145 H156 0.929 . S
N146 C144 1.375 . S
N146 C145 1.347 . S
C147 C150 1.365 . S
C147 N152 1.328 . S
C147 H153 0.929 . S
C148 C149 1.362 . S
C148 C151 1.378 . S
C148 H163 0.929 . S
C149 C148 1.362 . S
C149 C150 1.366 . S
C150 C147 1.365 . S
C150 C149 1.366 . S
C150 H164 0.930 . S
C151 C148 1.378 . S
C151 N152 1.315 . S
C151 H154 0.930 . S
N152 Co132 2.194 . S
N152 C147 1.328 . S
N152 C151 1.315 . S
H153 C147 0.929 . S
H154 C151 0.930 . S
H155 C143 0.929 . S
H156 C145 0.929 . S
O157 Co132 2.351 . S
O157 C160 1.244 . S
O158 Co132 2.155 . S
O158 C160 1.240 . S
O159 Co132 2.096 . S
O159 C140 1.247 . S
C160 O157 1.244 . S
C160 O158 1.240 . S
H161 C135 0.931 . S
H162 C144 0.931 . S
H163 C148 0.929 . S
H164 C150 0.930 . S
Co165 N169 2.148 . S
Co165 N175 2.128 . S
Co165 N185 2.194 . S
Co165 O190 2.351 . S
Co165 O191 2.155 . S
Co165 O192 2.096 . S
C166 N169 1.301 . S
C166 N170 1.328 . S
C166 H171 0.930 . S
C167 C168 1.333 . S
C167 N169 1.317 . S
C167 H172 0.930 . S
C168 C167 1.333 . S
C168 N170 1.350 . S
C168 H194 0.931 . S
N169 Co165 2.148 . S
N169 C166 1.301 . S
N169 C167 1.317 . S
N170 C166 1.328 . S
N170 C168 1.350 . S
H171 C166 0.930 . S
H172 C167 0.930 . S
C173 O174 1.224 . S
C173 O192 1.247 . S
O174 C173 1.224 . S
N175 Co165 2.128 . S
N175 C176 1.355 . S
N175 C178 1.311 . S
C176 N175 1.355 . S
C176 C177 1.363 . S
C176 H188 0.929 . S
C177 C176 1.363 . S
C177 N179 1.375 . S
C177 H195 0.931 . S
C178 N175 1.311 . S
C178 N179 1.347 . S
C178 H189 0.929 . S
N179 C177 1.375 . S
N179 C178 1.347 . S
C180 C183 1.365 . S
C180 N185 1.328 . S
C180 H186 0.929 . S
C181 C182 1.362 . S
C181 C184 1.378 . S
C181 H196 0.929 . S
C182 C181 1.362 . S
C182 C183 1.366 . S
C183 C180 1.365 . S
C183 C182 1.366 . S
C183 H197 0.930 . S
C184 C181 1.378 . S
C184 N185 1.315 . S
C184 H187 0.930 . S
N185 Co165 2.194 . S
N185 C180 1.328 . S
N185 C184 1.315 . S
H186 C180 0.929 . S
H187 C184 0.930 . S
H188 C176 0.929 . S
H189 C178 0.929 . S
O190 Co165 2.351 . S
O190 C193 1.244 . S
O191 Co165 2.155 . S
O191 C193 1.240 . S
O192 Co165 2.096 . S
O192 C173 1.247 . S
C193 O190 1.244 . S
C193 O191 1.240 . S
H194 C168 0.931 . S
H195 C177 0.931 . S
H196 C181 0.929 . S
H197 C183 0.930 . S
Co198 N202 2.148 . S
Co198 N208 2.128 . S
Co198 N218 2.194 . S
Co198 O223 2.351 . S
Co198 O224 2.155 . S
Co198 O225 2.096 . S
C199 N202 1.301 . S
C199 N203 1.328 . S
C199 H204 0.930 . S
C200 C201 1.333 . S
C200 N202 1.317 . S
C200 H205 0.930 . S
C201 C200 1.333 . S
C201 N203 1.350 . S
C201 H227 0.931 . S
N202 Co198 2.148 . S
N202 C199 1.301 . S
N202 C200 1.317 . S
N203 C199 1.328 . S
N203 C201 1.350 . S
H204 C199 0.930 . S
H205 C200 0.930 . S
C206 O207 1.224 . S
C206 O225 1.247 . S
O207 C206 1.224 . S
N208 Co198 2.128 . S
N208 C209 1.355 . S
N208 C211 1.311 . S
C209 N208 1.355 . S
C209 C210 1.363 . S
C209 H221 0.929 . S
C210 C209 1.363 . S
C210 N212 1.375 . S
C210 H228 0.931 . S
C211 N208 1.311 . S
C211 N212 1.347 . S
C211 H222 0.929 . S
N212 C210 1.375 . S
N212 C211 1.347 . S
C213 C216 1.365 . S
C213 N218 1.328 . S
C213 H219 0.929 . S
C214 C215 1.362 . S
C214 C217 1.378 . S
C214 H229 0.929 . S
C215 C214 1.362 . S
C215 C216 1.366 . S
C216 C213 1.365 . S
C216 C215 1.366 . S
C216 H230 0.930 . S
C217 C214 1.378 . S
C217 N218 1.315 . S
C217 H220 0.930 . S
N218 Co198 2.194 . S
N218 C213 1.328 . S
N218 C217 1.315 . S
H219 C213 0.929 . S
H220 C217 0.930 . S
H221 C209 0.929 . S
H222 C211 0.929 . S
O223 Co198 2.351 . S
O223 C226 1.244 . S
O224 Co198 2.155 . S
O224 C226 1.240 . S
O225 Co198 2.096 . S
O225 C206 1.247 . S
C226 O223 1.244 . S
C226 O224 1.240 . S
H227 C201 0.931 . S
H228 C210 0.931 . S
H229 C214 0.929 . S
H230 C216 0.930 . S
Co231 N235 2.148 . S
Co231 N241 2.128 . S
Co231 N251 2.194 . S
Co231 O256 2.351 . S
Co231 O257 2.155 . S
Co231 O258 2.096 . S
C232 N235 1.301 . S
C232 N236 1.328 . S
C232 H237 0.930 . S
C233 C234 1.333 . S
C233 N235 1.317 . S
C233 H238 0.930 . S
C234 C233 1.333 . S
C234 N236 1.350 . S
C234 H260 0.931 . S
N235 Co231 2.148 . S
N235 C232 1.301 . S
N235 C233 1.317 . S
N236 C232 1.328 . S
N236 C234 1.350 . S
H237 C232 0.930 . S
H238 C233 0.930 . S
C239 O240 1.224 . S
C239 O258 1.247 . S
O240 C239 1.224 . S
N241 Co231 2.128 . S
N241 C242 1.355 . S
N241 C244 1.311 . S
C242 N241 1.355 . S
C242 C243 1.363 . S
C242 H254 0.929 . S
C243 C242 1.363 . S
C243 N245 1.375 . S
C243 H261 0.931 . S
C244 N241 1.311 . S
C244 N245 1.347 . S
C244 H255 0.929 . S
N245 C243 1.375 . S
N245 C244 1.347 . S
C246 C249 1.365 . S
C246 N251 1.328 . S
C246 H252 0.929 . S
C247 C248 1.362 . S
C247 C250 1.378 . S
C247 H262 0.929 . S
C248 C247 1.362 . S
C248 C249 1.366 . S
C249 C246 1.365 . S
C249 C248 1.366 . S
C249 H263 0.930 . S
C250 C247 1.378 . S
C250 N251 1.315 . S
C250 H253 0.930 . S
N251 Co231 2.194 . S
N251 C246 1.328 . S
N251 C250 1.315 . S
H252 C246 0.929 . S
H253 C250 0.930 . S
H254 C242 0.929 . S
H255 C244 0.929 . S
O256 Co231 2.351 . S
O256 C259 1.244 . S
O257 Co231 2.155 . S
O257 C259 1.240 . S
O258 Co231 2.096 . S
O258 C239 1.247 . S
C259 O256 1.244 . S
C259 O257 1.240 . S
H260 C234 0.931 . S
H261 C243 0.931 . S
H262 C247 0.929 . S
H263 C249 0.930 . S
H264 C282 0.951 . S
H265 C284 0.951 . S
H266 C286 0.950 . S
H267 C287 0.950 . S
H268 C289 0.950 . S
H269 C292 0.950 . S
H270 C293 0.950 1_554 S
H271 C295 0.950 . S
H272 C296 0.950 . S
H273 C297 0.951 . S
H274 C299 0.951 . S
H275 C301 0.950 . S
H276 C302 0.950 . S
H277 C304 0.950 . S
H278 C307 0.950 . S
H279 C308 0.950 1_556 S
H280 C310 0.950 . S
H281 C311 0.950 . S
C282 H264 0.951 . S
C282 C283 1.366 . S
C282 C284 1.388 . S
C283 C282 1.366 . S
C283 C287 1.385 . S
C284 H265 0.951 . S
C284 C282 1.388 . S
C284 C285 1.366 . S
C285 C284 1.366 . S
C285 C286 1.414 . S
C285 C288 1.499 . S
C286 H266 0.950 . S
C286 C285 1.414 . S
C286 C287 1.374 . S
C287 H267 0.950 . S
C287 C283 1.385 . S
C287 C286 1.374 . S
C288 C285 1.499 . S
C288 C289 1.373 . S
C288 C290 1.389 1_554 S
C289 H268 0.950 . S
C289 C288 1.373 . S
C289 C305 1.377 . S
C290 C288 1.389 1_556 S
C290 C291 1.524 . S
C290 C304 1.377 . S
C291 C290 1.524 . S
C291 C292 1.397 1_556 S
C291 C296 1.363 . S
C292 H269 0.950 . S
C292 C291 1.397 1_554 S
C292 C293 1.334 1_554 S
C293 H270 0.950 1_556 S
C293 C292 1.334 1_556 S
C293 C294 1.287 . S
C294 C293 1.287 . S
C294 C295 1.524 . S
C294 H313 0.913 . S
C295 H271 0.950 . S
C295 C294 1.524 . S
C295 C296 1.415 . S
C296 H272 0.950 . S
C296 C291 1.363 . S
C296 C295 1.415 . S
C297 H273 0.951 . S
C297 C298 1.366 . S
C297 C299 1.388 . S
C298 C297 1.366 . S
C298 C302 1.385 . S
C299 H274 0.951 . S
C299 C297 1.388 . S
C299 C300 1.366 . S
C300 C299 1.366 . S
C300 C301 1.414 . S
C300 C303 1.499 . S
C301 H275 0.950 . S
C301 C300 1.414 . S
C301 C302 1.374 . S
C302 H276 0.950 . S
C302 C298 1.385 . S
C302 C301 1.374 . S
C303 C300 1.499 . S
C303 C304 1.373 . S
C303 C305 1.389 1_556 S
C304 H277 0.950 . S
C304 C290 1.377 . S
C304 C303 1.373 . S
C305 C289 1.377 . S
C305 C303 1.389 1_554 S
C305 C306 1.524 . S
C306 C305 1.524 . S
C306 C307 1.397 1_554 S
C306 C311 1.363 . S
C307 H278 0.950 . S
C307 C306 1.397 1_556 S
C307 C308 1.334 1_556 S
C308 H279 0.950 1_554 S
C308 C307 1.334 1_554 S
C308 C309 1.287 . S
C309 C308 1.287 . S
C309 C310 1.524 . S
C309 H312 0.999 . S
C310 H280 0.950 . S
C310 C309 1.524 . S
C310 C311 1.415 . S
C311 H281 0.950 . S
C311 C306 1.363 . S
C311 C310 1.415 . S
H312 C309 0.999 . S
H313 C294 0.913 . S
H314 C332 0.951 . S
H315 C334 0.951 . S
H316 C336 0.950 . S
H317 C337 0.950 . S
H318 C339 0.950 . S
H319 C342 0.950 . S
H320 C343 0.950 . S
H321 C345 0.950 . S
H322 C346 0.950 . S
H323 C347 0.951 . S
H324 C349 0.951 . S
H325 C351 0.950 . S
H326 C352 0.950 . S
H327 C354 0.950 . S
H328 C357 0.950 . S
H329 C358 0.950 . S
H330 C360 0.950 . S
H331 C361 0.950 . S
C332 H314 0.951 . S
C332 C333 1.366 . S
C332 C334 1.388 . S
C333 C332 1.366 . S
C333 C337 1.385 . S
C334 H315 0.951 . S
C334 C332 1.388 . S
C334 C335 1.366 . S
C335 C334 1.366 . S
C335 C336 1.414 . S
C335 C338 1.499 . S
C336 H316 0.950 . S
C336 C335 1.414 . S
C336 C337 1.374 . S
C337 H317 0.950 . S
C337 C333 1.385 . S
C337 C336 1.374 . S
C338 C335 1.499 . S
C338 C339 1.373 . S
C338 C340 1.389 . S
C339 H318 0.950 . S
C339 C338 1.373 . S
C339 C355 1.377 . S
C340 C338 1.389 . S
C340 C341 1.524 . S
C340 C354 1.377 . S
C341 C340 1.524 . S
C341 C342 1.397 . S
C341 C346 1.363 . S
C342 H319 0.950 . S
C342 C341 1.397 . S
C342 C343 1.334 . S
C343 H320 0.950 . S
C343 C342 1.334 . S
C343 C344 1.287 . S
C344 C343 1.287 . S
C344 C345 1.524 . S
C344 H363 0.913 . S
C345 H321 0.950 . S
C345 C344 1.524 . S
C345 C346 1.415 . S
C346 H322 0.950 . S
C346 C341 1.363 . S
C346 C345 1.415 . S
C347 H323 0.951 . S
C347 C348 1.366 . S
C347 C349 1.388 . S
C348 C347 1.366 . S
C348 C352 1.385 . S
C349 H324 0.951 . S
C349 C347 1.388 . S
C349 C350 1.366 . S
C350 C349 1.366 . S
C350 C351 1.414 . S
C350 C353 1.499 . S
C351 H325 0.950 . S
C351 C350 1.414 . S
C351 C352 1.374 . S
C352 H326 0.950 . S
C352 C348 1.385 . S
C352 C351 1.374 . S
C353 C350 1.499 . S
C353 C354 1.373 . S
C353 C355 1.389 . S
C354 H327 0.950 . S
C354 C340 1.377 . S
C354 C353 1.373 . S
C355 C339 1.377 . S
C355 C353 1.389 . S
C355 C356 1.524 . S
C356 C355 1.524 . S
C356 C357 1.397 . S
C356 C361 1.363 . S
C357 H328 0.950 . S
C357 C356 1.397 . S
C357 C358 1.334 . S
C358 H329 0.950 . S
C358 C357 1.334 . S
C358 C359 1.287 . S
C359 C358 1.287 . S
C359 C360 1.524 . S
C359 H362 0.999 . S
C360 H330 0.950 . S
C360 C359 1.524 . S
C360 C361 1.415 . S
C361 H331 0.950 . S
C361 C356 1.363 . S
C361 C360 1.415 . S
H362 C359 0.999 . S
H363 C344 0.913 . S
H364 C382 0.951 . S
H365 C384 0.951 . S
H366 C386 0.950 . S
H367 C387 0.950 . S
H368 C389 0.950 . S
H369 C392 0.950 . S
H370 C393 0.950 . S
H371 C395 0.950 . S
H372 C396 0.950 . S
H373 C397 0.951 . S
H374 C399 0.951 . S
H375 C401 0.950 . S
H376 C402 0.950 . S
H377 C404 0.950 . S
H378 C407 0.950 . S
H379 C408 0.950 . S
H380 C410 0.950 . S
H381 C411 0.950 . S
C382 H364 0.951 . S
C382 C383 1.366 . S
C382 C384 1.388 . S
C383 C382 1.366 . S
C383 C387 1.385 . S
C384 H365 0.951 . S
C384 C382 1.388 . S
C384 C385 1.366 . S
C385 C384 1.366 . S
C385 C386 1.414 . S
C385 C388 1.499 . S
C386 H366 0.950 . S
C386 C385 1.414 . S
C386 C387 1.374 . S
C387 H367 0.950 . S
C387 C383 1.385 . S
C387 C386 1.374 . S
C388 C385 1.499 . S
C388 C389 1.373 . S
C388 C390 1.389 . S
C389 H368 0.950 . S
C389 C388 1.373 . S
C389 C405 1.377 . S
C390 C388 1.389 . S
C390 C391 1.524 . S
C390 C404 1.377 . S
C391 C390 1.524 . S
C391 C392 1.397 . S
C391 C396 1.363 . S
C392 H369 0.950 . S
C392 C391 1.397 . S
C392 C393 1.334 . S
C393 H370 0.950 . S
C393 C392 1.334 . S
C393 C394 1.287 . S
C394 C393 1.287 . S
C394 C395 1.524 . S
C394 H413 0.913 . S
C395 H371 0.950 . S
C395 C394 1.524 . S
C395 C396 1.415 . S
C396 H372 0.950 . S
C396 C391 1.363 . S
C396 C395 1.415 . S
C397 H373 0.951 . S
C397 C398 1.366 . S
C397 C399 1.388 . S
C398 C397 1.366 . S
C398 C402 1.385 . S
C399 H374 0.951 . S
C399 C397 1.388 . S
C399 C400 1.366 . S
C400 C399 1.366 . S
C400 C401 1.414 . S
C400 C403 1.499 . S
C401 H375 0.950 . S
C401 C400 1.414 . S
C401 C402 1.374 . S
C402 H376 0.950 . S
C402 C398 1.385 . S
C402 C401 1.374 . S
C403 C400 1.499 . S
C403 C404 1.373 . S
C403 C405 1.389 . S
C404 H377 0.950 . S
C404 C390 1.377 . S
C404 C403 1.373 . S
C405 C389 1.377 . S
C405 C403 1.389 . S
C405 C406 1.524 . S
C406 C405 1.524 . S
C406 C407 1.397 . S
C406 C411 1.363 . S
C407 H378 0.950 . S
C407 C406 1.397 . S
C407 C408 1.334 . S
C408 H379 0.950 . S
C408 C407 1.334 . S
C408 C409 1.287 . S
C409 C408 1.287 . S
C409 C410 1.524 . S
C409 H412 0.999 . S
C410 H380 0.950 . S
C410 C409 1.524 . S
C410 C411 1.415 . S
C411 H381 0.950 . S
C411 C406 1.363 . S
C411 C410 1.415 . S
H412 C409 0.999 . S
H413 C394 0.913 . S
H414 C432 0.951 . S
H415 C434 0.951 . S
H416 C436 0.950 . S
H417 C437 0.950 . S
H418 C439 0.950 . S
H419 C442 0.950 . S
H420 C443 0.950 . S
H421 C445 0.950 . S
H422 C446 0.950 . S
H423 C447 0.951 . S
H424 C449 0.951 . S
H425 C451 0.950 . S
H426 C452 0.950 . S
H427 C454 0.950 . S
H428 C457 0.950 . S
H429 C458 0.950 . S
H430 C460 0.950 . S
H431 C461 0.950 . S
C432 H414 0.951 . S
C432 C433 1.366 . S
C432 C434 1.388 . S
C433 C432 1.366 . S
C433 C437 1.385 . S
C434 H415 0.951 . S
C434 C432 1.388 . S
C434 C435 1.366 . S
C435 C434 1.366 . S
C435 C436 1.414 . S
C435 C438 1.499 . S
C436 H416 0.950 . S
C436 C435 1.414 . S
C436 C437 1.374 . S
C437 H417 0.950 . S
C437 C433 1.385 . S
C437 C436 1.374 . S
C438 C435 1.499 . S
C438 C439 1.373 . S
C438 C440 1.389 . S
C439 H418 0.950 . S
C439 C438 1.373 . S
C439 C455 1.377 . S
C440 C438 1.389 . S
C440 C441 1.524 . S
C440 C454 1.377 . S
C441 C440 1.524 . S
C441 C442 1.397 . S
C441 C446 1.363 . S
C442 H419 0.950 . S
C442 C441 1.397 . S
C442 C443 1.334 . S
C443 H420 0.950 . S
C443 C442 1.334 . S
C443 C444 1.287 . S
C444 C443 1.287 . S
C444 C445 1.524 . S
C444 H463 0.913 . S
C445 H421 0.950 . S
C445 C444 1.524 . S
C445 C446 1.415 . S
C446 H422 0.950 . S
C446 C441 1.363 . S
C446 C445 1.415 . S
C447 H423 0.951 . S
C447 C448 1.366 . S
C447 C449 1.388 . S
C448 C447 1.366 . S
C448 C452 1.385 . S
C449 H424 0.951 . S
C449 C447 1.388 . S
C449 C450 1.366 . S
C450 C449 1.366 . S
C450 C451 1.414 . S
C450 C453 1.499 . S
C451 H425 0.950 . S
C451 C450 1.414 . S
C451 C452 1.374 . S
C452 H426 0.950 . S
C452 C448 1.385 . S
C452 C451 1.374 . S
C453 C450 1.499 . S
C453 C454 1.373 . S
C453 C455 1.389 . S
C454 H427 0.950 . S
C454 C440 1.377 . S
C454 C453 1.373 . S
C455 C439 1.377 . S
C455 C453 1.389 . S
C455 C456 1.524 . S
C456 C455 1.524 . S
C456 C457 1.397 . S
C456 C461 1.363 . S
C457 H428 0.950 . S
C457 C456 1.397 . S
C457 C458 1.334 . S
C458 H429 0.950 . S
C458 C457 1.334 . S
C458 C459 1.287 . S
C459 C458 1.287 . S
C459 C460 1.524 . S
C459 H462 0.999 . S
C460 H430 0.950 . S
C460 C459 1.524 . S
C460 C461 1.415 . S
C461 H431 0.950 . S
C461 C456 1.363 . S
C461 C460 1.415 . S
H462 C459 0.999 . S
H463 C444 0.913 . S
H464 C482 0.951 . S
H465 C484 0.951 . S
H466 C486 0.950 . S
H467 C487 0.950 . S
H468 C489 0.950 . S
H469 C492 0.950 . S
H470 C493 0.950 . S
H471 C495 0.950 . S
H472 C496 0.950 . S
H473 C497 0.951 . S
H474 C499 0.951 . S
H475 C501 0.950 . S
H476 C502 0.950 . S
H477 C504 0.950 . S
H478 C507 0.950 . S
H479 C508 0.950 . S
H480 C510 0.950 1_565 S
H481 C511 0.950 . S
C482 H464 0.951 . S
C482 C483 1.366 . S
C482 C484 1.388 . S
C483 C482 1.366 . S
C483 C487 1.385 . S
C484 H465 0.951 . S
C484 C482 1.388 . S
C484 C485 1.366 . S
C485 C484 1.366 . S
C485 C486 1.414 . S
C485 C488 1.499 . S
C486 H466 0.950 . S
C486 C485 1.414 . S
C486 C487 1.374 . S
C487 H467 0.950 . S
C487 C483 1.385 . S
C487 C486 1.374 . S
C488 C485 1.499 . S
C488 C489 1.373 . S
C488 C490 1.389 . S
C489 H468 0.950 . S
C489 C488 1.373 . S
C489 C505 1.377 1_556 S
C490 C488 1.389 . S
C490 C491 1.524 . S
C490 C504 1.377 1_556 S
C491 C490 1.524 . S
C491 C492 1.397 . S
C491 C496 1.363 . S
C492 H469 0.950 . S
C492 C491 1.397 . S
C492 C493 1.334 . S
C493 H470 0.950 . S
C493 C492 1.334 . S
C493 C494 1.287 . S
C494 C493 1.287 . S
C494 C495 1.524 . S
C494 H513 0.913 . S
C495 H471 0.950 . S
C495 C494 1.524 . S
C495 C496 1.415 . S
C496 H472 0.950 . S
C496 C491 1.363 . S
C496 C495 1.415 . S
C497 H473 0.951 . S
C497 C498 1.366 . S
C497 C499 1.388 . S
C498 C497 1.366 . S
C498 C502 1.385 . S
C499 H474 0.951 . S
C499 C497 1.388 . S
C499 C500 1.366 . S
C500 C499 1.366 . S
C500 C501 1.414 . S
C500 C503 1.499 . S
C501 H475 0.950 . S
C501 C500 1.414 . S
C501 C502 1.374 . S
C502 H476 0.950 . S
C502 C498 1.385 . S
C502 C501 1.374 . S
C503 C500 1.499 . S
C503 C504 1.373 . S
C503 C505 1.389 . S
C504 H477 0.950 . S
C504 C490 1.377 1_554 S
C504 C503 1.373 . S
C505 C489 1.377 1_554 S
C505 C503 1.389 . S
C505 C506 1.524 . S
C506 C505 1.524 . S
C506 C507 1.397 . S
C506 C511 1.363 . S
C507 H478 0.950 . S
C507 C506 1.397 . S
C507 C508 1.334 . S
C508 H479 0.950 . S
C508 C507 1.334 . S
C508 C509 1.287 . S
C509 C508 1.287 . S
C509 C510 1.524 . S
C509 H512 0.999 . S
C510 H480 0.950 1_545 S
C510 C509 1.524 . S
C510 C511 1.415 . S
C511 H481 0.950 . S
C511 C506 1.363 . S
C511 C510 1.415 . S
H512 C509 0.999 . S
H513 C494 0.913 . S
H514 C532 0.951 . S
H515 C534 0.951 . S
H516 C536 0.950 . S
H517 C537 0.950 . S
H518 C539 0.950 . S
H519 C542 0.950 . S
H520 C543 0.950 . S
H521 C545 0.950 . S
H522 C546 0.950 . S
H523 C547 0.951 . S
H524 C549 0.951 . S
H525 C551 0.950 . S
H526 C552 0.950 . S
H527 C554 0.950 . S
H528 C557 0.950 . S
H529 C558 0.950 . S
H530 C560 0.950 . S
H531 C561 0.950 . S
C532 H514 0.951 . S
C532 C533 1.366 . S
C532 C534 1.388 . S
C533 C532 1.366 . S
C533 C537 1.385 . S
C534 H515 0.951 . S
C534 C532 1.388 . S
C534 C535 1.366 . S
C535 C534 1.366 . S
C535 C536 1.414 . S
C535 C538 1.499 . S
C536 H516 0.950 . S
C536 C535 1.414 . S
C536 C537 1.374 . S
C537 H517 0.950 . S
C537 C533 1.385 . S
C537 C536 1.374 . S
C538 C535 1.499 . S
C538 C539 1.373 . S
C538 C540 1.389 . S
C539 H518 0.950 . S
C539 C538 1.373 . S
C539 C555 1.377 . S
C540 C538 1.389 . S
C540 C541 1.524 1_545 S
C540 C554 1.377 . S
C541 C540 1.524 1_565 S
C541 C542 1.397 . S
C541 C546 1.363 . S
C542 H519 0.950 . S
C542 C541 1.397 . S
C542 C543 1.334 . S
C543 H520 0.950 . S
C543 C542 1.334 . S
C543 C544 1.287 . S
C544 C543 1.287 . S
C544 C545 1.524 . S
C544 H563 0.913 . S
C545 H521 0.950 . S
C545 C544 1.524 . S
C545 C546 1.415 . S
C546 H522 0.950 . S
C546 C541 1.363 . S
C546 C545 1.415 . S
C547 H523 0.951 . S
C547 C548 1.366 . S
C547 C549 1.388 . S
C548 C547 1.366 . S
C548 C552 1.385 . S
C549 H524 0.951 . S
C549 C547 1.388 . S
C549 C550 1.366 . S
C550 C549 1.366 . S
C550 C551 1.414 . S
C550 C553 1.499 . S
C551 H525 0.950 . S
C551 C550 1.414 . S
C551 C552 1.374 . S
C552 H526 0.950 . S
C552 C548 1.385 . S
C552 C551 1.374 . S
C553 C550 1.499 . S
C553 C554 1.373 . S
C553 C555 1.389 . S
C554 H527 0.950 . S
C554 C540 1.377 . S
C554 C553 1.373 . S
C555 C539 1.377 . S
C555 C553 1.389 . S
C555 C556 1.524 . S
C556 C555 1.524 . S
C556 C557 1.397 . S
C556 C561 1.363 . S
C557 H528 0.950 . S
C557 C556 1.397 . S
C557 C558 1.334 . S
C558 H529 0.950 . S
C558 C557 1.334 . S
C558 C559 1.287 . S
C559 C558 1.287 . S
C559 C560 1.524 . S
C559 H562 0.999 . S
C560 H530 0.950 . S
C560 C559 1.524 . S
C560 C561 1.415 . S
C561 H531 0.950 . S
C561 C556 1.363 . S
C561 C560 1.415 . S
H562 C559 0.999 . S
H563 C544 0.913 . S
H564 C582 0.951 . S
H565 C584 0.951 . S
H566 C586 0.950 . S
H567 C587 0.950 . S
H568 C589 0.950 . S
H569 C592 0.950 . S
H570 C593 0.950 . S
H571 C595 0.950 . S
H572 C596 0.950 . S
H573 C597 0.951 . S
H574 C599 0.951 . S
H575 C601 0.950 . S
H576 C602 0.950 . S
H577 C604 0.950 . S
H578 C607 0.950 . S
H579 C608 0.950 . S
H580 C610 0.950 . S
H581 C611 0.950 . S
C582 H564 0.951 . S
C582 C583 1.366 . S
C582 C584 1.388 . S
C583 C582 1.366 . S
C583 C587 1.385 . S
C584 H565 0.951 . S
C584 C582 1.388 . S
C584 C585 1.366 . S
C585 C584 1.366 . S
C585 C586 1.414 . S
C585 C588 1.499 . S
C586 H566 0.950 . S
C586 C585 1.414 . S
C586 C587 1.374 . S
C587 H567 0.950 . S
C587 C583 1.385 . S
C587 C586 1.374 . S
C588 C585 1.499 . S
C588 C589 1.373 . S
C588 C590 1.389 . S
C589 H568 0.950 . S
C589 C588 1.373 . S
C589 C605 1.377 . S
C590 C588 1.389 . S
C590 C591 1.524 . S
C590 C604 1.377 . S
C591 C590 1.524 . S
C591 C592 1.397 . S
C591 C596 1.363 . S
C592 H569 0.950 . S
C592 C591 1.397 . S
C592 C593 1.334 . S
C593 H570 0.950 . S
C593 C592 1.334 . S
C593 C594 1.287 . S
C594 C593 1.287 . S
C594 C595 1.524 . S
C594 H613 0.913 . S
C595 H571 0.950 . S
C595 C594 1.524 . S
C595 C596 1.415 . S
C596 H572 0.950 . S
C596 C591 1.363 . S
C596 C595 1.415 . S
C597 H573 0.951 . S
C597 C598 1.366 . S
C597 C599 1.388 . S
C598 C597 1.366 . S
C598 C602 1.385 . S
C599 H574 0.951 . S
C599 C597 1.388 . S
C599 C600 1.366 . S
C600 C599 1.366 . S
C600 C601 1.414 . S
C600 C603 1.499 . S
C601 H575 0.950 . S
C601 C600 1.414 . S
C601 C602 1.374 . S
C602 H576 0.950 . S
C602 C598 1.385 . S
C602 C601 1.374 . S
C603 C600 1.499 . S
C603 C604 1.373 . S
C603 C605 1.389 . S
C604 H577 0.950 . S
C604 C590 1.377 . S
C604 C603 1.373 . S
C605 C589 1.377 . S
C605 C603 1.389 . S
C605 C606 1.524 . S
C606 C605 1.524 . S
C606 C607 1.397 . S
C606 C611 1.363 . S
C607 H578 0.950 . S
C607 C606 1.397 . S
C607 C608 1.334 . S
C608 H579 0.950 . S
C608 C607 1.334 . S
C608 C609 1.287 . S
C609 C608 1.287 . S
C609 C610 1.524 . S
C609 H612 0.999 . S
C610 H580 0.950 . S
C610 C609 1.524 . S
C610 C611 1.415 . S
C611 H581 0.950 . S
C611 C606 1.363 . S
C611 C610 1.415 . S
H612 C609 0.999 . S
H613 C594 0.913 . S
H614 C632 0.951 . S
H615 C634 0.951 . S
H616 C636 0.950 1_545 S
H617 C637 0.950 . S
H618 C639 0.950 . S
H619 C642 0.950 . S
H620 C643 0.926 1_545 S
H621 C645 0.950 . S
H622 C646 0.950 . S
H623 C647 0.951 . S
H624 C649 0.951 . S
H625 C651 0.950 . S
H626 C652 0.950 . S
H627 C654 0.950 . S
H628 C657 0.950 . S
H629 C658 0.950 . S
H630 C660 0.950 . S
H631 C661 0.950 . S
C632 H614 0.951 . S
C632 C633 1.366 . S
C632 C634 1.388 . S
C633 C632 1.366 . S
C633 C637 1.385 1_565 S
C634 H615 0.951 . S
C634 C632 1.388 . S
C634 C635 1.366 . S
C635 C634 1.366 . S
C635 C636 1.414 . S
C635 C638 1.499 . S
C636 H616 0.950 1_565 S
C636 C635 1.414 . S
C636 C637 1.374 1_565 S
C637 H617 0.950 . S
C637 C633 1.385 1_545 S
C637 C636 1.374 1_545 S
C638 C635 1.499 . S
C638 C639 1.373 . S
C638 C640 1.389 . S
C639 H618 0.950 . S
C639 C638 1.373 . S
C639 C655 1.377 . S
C640 C638 1.389 . S
C640 C641 1.524 . S
C640 C654 1.377 . S
C641 C640 1.524 . S
C641 C642 1.397 . S
C641 C646 1.363 . S
C642 H619 0.950 . S
C642 C641 1.397 . S
C642 C643 1.334 . S
C643 H620 0.926 1_565 S
C643 C642 1.334 . S
C643 C644 1.287 . S
C644 C643 1.287 . S
C644 C645 1.524 . S
C644 H663 0.913 . S
C645 H621 0.950 . S
C645 C644 1.524 . S
C645 C646 1.415 . S
C646 H622 0.950 . S
C646 C641 1.363 . S
C646 C645 1.415 . S
C647 H623 0.951 . S
C647 C648 1.366 . S
C647 C649 1.388 . S
C648 C647 1.366 . S
C648 C652 1.385 . S
C649 H624 0.951 . S
C649 C647 1.388 . S
C649 C650 1.366 . S
C650 C649 1.366 . S
C650 C651 1.414 . S
C650 C653 1.499 . S
C651 H625 0.950 . S
C651 C650 1.414 . S
C651 C652 1.374 . S
C652 H626 0.950 . S
C652 C648 1.385 . S
C652 C651 1.374 . S
C653 C650 1.499 . S
C653 C654 1.373 . S
C653 C655 1.389 . S
C654 H627 0.950 . S
C654 C640 1.377 . S
C654 C653 1.373 . S
C655 C639 1.377 . S
C655 C653 1.389 . S
C655 C656 1.524 . S
C656 C655 1.524 . S
C656 C657 1.397 . S
C656 C661 1.363 . S
C657 H628 0.950 . S
C657 C656 1.397 . S
C657 C658 1.334 . S
C658 H629 0.950 . S
C658 C657 1.334 . S
C658 C659 1.287 . S
C659 C658 1.287 . S
C659 C660 1.524 . S
C659 H662 0.999 . S
C660 H630 0.950 . S
C660 C659 1.524 . S
C660 C661 1.415 . S
C661 H631 0.950 . S
C661 C656 1.363 . S
C661 C660 1.415 . S
H662 C659 0.999 . S
H663 C644 0.913 . S
H664 C682 0.951 . S
H665 C684 0.951 . S
H666 C686 0.950 . S
H667 C687 0.950 . S
H668 C689 0.950 . S
H669 C692 0.950 . S
H670 C693 0.950 . S
H671 C695 0.950 . S
H672 C696 0.950 . S
H673 C697 0.951 . S
H674 C699 0.951 . S
H675 C701 0.950 . S
H676 C702 0.950 1_655 S
H677 C704 0.950 . S
H678 C707 0.950 . S
H679 C708 0.950 . S
H680 C710 0.950 . S
H681 C711 0.950 . S
C682 H664 0.951 . S
C682 C683 1.366 . S
C682 C684 1.388 . S
C683 C682 1.366 . S
C683 C687 1.385 . S
C684 H665 0.951 . S
C684 C682 1.388 . S
C684 C685 1.366 . S
C685 C684 1.366 . S
C685 C686 1.414 . S
C685 C688 1.499 . S
C686 H666 0.950 . S
C686 C685 1.414 . S
C686 C687 1.374 . S
C687 H667 0.950 . S
C687 C683 1.385 . S
C687 C686 1.374 . S
C688 C685 1.499 . S
C688 C689 1.373 . S
C688 C690 1.389 . S
C689 H668 0.950 . S
C689 C688 1.373 . S
C689 C705 1.377 . S
C690 C688 1.389 . S
C690 C691 1.524 . S
C690 C704 1.377 . S
C691 C690 1.524 . S
C691 C692 1.397 . S
C691 C696 1.363 . S
C692 H669 0.950 . S
C692 C691 1.397 . S
C692 C693 1.334 . S
C693 H670 0.950 . S
C693 C692 1.334 . S
C693 C694 1.287 . S
C694 C693 1.287 . S
C694 C695 1.524 . S
C694 H713 0.913 . S
C695 H671 0.950 . S
C695 C694 1.524 . S
C695 C696 1.415 . S
C696 H672 0.950 . S
C696 C691 1.363 . S
C696 C695 1.415 . S
C697 H673 0.951 . S
C697 C698 1.366 . S
C697 C699 1.388 . S
C698 C697 1.366 . S
C698 C702 1.385 . S
C699 H674 0.951 . S
C699 C697 1.388 . S
C699 C700 1.366 . S
C700 C699 1.366 . S
C700 C701 1.414 . S
C700 C703 1.499 . S
C701 H675 0.950 . S
C701 C700 1.414 . S
C701 C702 1.374 . S
C702 H676 0.950 1_455 S
C702 C698 1.385 . S
C702 C701 1.374 . S
C703 C700 1.499 . S
C703 C704 1.373 . S
C703 C705 1.389 . S
C704 H677 0.950 . S
C704 C690 1.377 . S
C704 C703 1.373 . S
C705 C689 1.377 . S
C705 C703 1.389 . S
C705 C706 1.524 . S
C706 C705 1.524 . S
C706 C707 1.397 1_455 S
C706 C711 1.363 . S
C707 H678 0.950 . S
C707 C706 1.397 1_655 S
C707 C708 1.334 . S
C708 H679 0.950 . S
C708 C707 1.334 . S
C708 C709 1.287 . S
C709 C708 1.287 . S
C709 C710 1.524 1_655 S
C709 H712 0.999 . S
C710 H680 0.950 . S
C710 C709 1.524 1_455 S
C710 C711 1.415 . S
C711 H681 0.950 . S
C711 C706 1.363 . S
C711 C710 1.415 . S
H712 C709 0.999 . S
H713 C694 0.913 . S
H714 C732 0.951 . S
H715 C734 0.951 . S
H716 C736 0.950 . S
H717 C737 0.950 . S
H718 C739 0.950 . S
H719 C742 0.950 . S
H720 C743 0.950 . S
H721 C745 0.950 . S
H722 C746 0.958 . S
H723 C747 0.951 . S
H724 C749 0.951 . S
H725 C751 0.950 . S
H726 C752 0.950 . S
H727 C754 0.950 . S
H728 C757 0.950 . S
H729 C758 0.950 . S
H730 C760 0.950 . S
H731 C761 0.950 . S
C732 H714 0.951 . S
C732 C733 1.366 . S
C732 C734 1.388 . S
C733 C732 1.366 . S
C733 C737 1.385 . S
C734 H715 0.951 . S
C734 C732 1.388 . S
C734 C735 1.366 . S
C735 C734 1.366 . S
C735 C736 1.414 . S
C735 C738 1.499 . S
C736 H716 0.950 . S
C736 C735 1.414 . S
C736 C737 1.374 . S
C737 H717 0.950 . S
C737 C733 1.385 . S
C737 C736 1.374 . S
C738 C735 1.499 . S
C738 C739 1.373 . S
C738 C740 1.426 . S
C739 H718 0.950 . S
C739 C738 1.373 . S
C739 C755 1.377 1_556 S
C740 C738 1.426 . S
C740 C741 1.540 . S
C740 C754 1.322 1_556 S
C741 C740 1.540 . S
C741 C742 1.397 . S
C741 C746 1.363 . S
C742 H719 0.950 . S
C742 C741 1.397 . S
C742 C743 1.334 . S
C743 H720 0.950 . S
C743 C742 1.334 . S
C743 C744 1.287 . S
C744 C743 1.287 . S
C744 C745 1.524 . S
C744 H763 0.913 . S
C745 H721 0.950 . S
C745 C744 1.524 . S
C745 C746 1.415 . S
C746 H722 0.958 . S
C746 C741 1.363 . S
C746 C745 1.415 . S
C747 H723 0.951 . S
C747 C748 1.366 . S
C747 C749 1.388 . S
C748 C747 1.366 . S
C748 C752 1.385 . S
C749 H724 0.951 . S
C749 C747 1.388 . S
C749 C750 1.366 . S
C750 C749 1.366 . S
C750 C751 1.414 . S
C750 C753 1.499 . S
C751 H725 0.950 . S
C751 C750 1.414 . S
C751 C752 1.374 . S
C752 H726 0.950 . S
C752 C748 1.385 . S
C752 C751 1.374 . S
C753 C750 1.499 . S
C753 C754 1.373 . S
C753 C755 1.389 . S
C754 H727 0.950 . S
C754 C740 1.322 1_554 S
C754 C753 1.373 . S
C755 C739 1.377 1_554 S
C755 C753 1.389 . S
C755 C756 1.524 . S
C756 C755 1.524 . S
C756 C757 1.397 . S
C756 C761 1.363 . S
C757 H728 0.950 . S
C757 C756 1.397 . S
C757 C758 1.334 1_455 S
C758 H729 0.950 . S
C758 C757 1.334 1_655 S
C758 C759 1.287 . S
C759 C758 1.287 . S
C759 C760 1.524 . S
C759 H762 0.999 . S
C760 H730 0.950 . S
C760 C759 1.524 . S
C760 C761 1.415 1_655 S
C761 H731 0.950 . S
C761 C756 1.363 . S
C761 C760 1.415 1_455 S
H762 C759 0.999 . S
H763 C744 0.913 . S
H764 C782 0.951 . S
H765 C784 0.951 . S
H766 C786 0.950 1_455 S
H767 C787 0.950 . S
H768 C789 0.950 . S
H769 C792 0.950 . S
H770 C793 0.950 1_455 S
H771 C795 0.950 . S
H772 C796 0.950 . S
H773 C797 0.951 . S
H774 C799 0.951 . S
H775 C801 0.950 . S
H776 C802 0.950 . S
H777 C804 0.950 . S
H778 C807 0.950 . S
H779 C808 0.950 . S
H780 C810 0.950 . S
H781 C811 0.950 . S
C782 H764 0.951 . S
C782 C783 1.366 . S
C782 C784 1.388 . S
C783 C782 1.366 . S
C783 C787 1.385 1_655 S
C784 H765 0.951 . S
C784 C782 1.388 . S
C784 C785 1.366 . S
C785 C784 1.366 . S
C785 C786 1.414 . S
C785 C788 1.499 . S
C786 H766 0.950 1_655 S
C786 C785 1.414 . S
C786 C787 1.374 1_655 S
C787 H767 0.950 . S
C787 C783 1.385 1_455 S
C787 C786 1.374 1_455 S
C788 C785 1.499 . S
C788 C789 1.373 . S
C788 C790 1.389 . S
C789 H768 0.950 . S
C789 C788 1.373 . S
C789 C805 1.377 . S
C790 C788 1.389 . S
C790 C791 1.524 . S
C790 C804 1.377 . S
C791 C790 1.524 . S
C791 C792 1.397 . S
C791 C796 1.363 . S
C792 H769 0.950 . S
C792 C791 1.397 . S
C792 C793 1.334 . S
C793 H770 0.950 1_655 S
C793 C792 1.334 . S
C793 C794 1.287 . S
C794 C793 1.287 . S
C794 C795 1.524 . S
C794 H813 0.913 . S
C795 H771 0.950 . S
C795 C794 1.524 . S
C795 C796 1.415 . S
C796 H772 0.950 . S
C796 C791 1.363 . S
C796 C795 1.415 . S
C797 H773 0.951 . S
C797 C798 1.366 . S
C797 C799 1.388 . S
C798 C797 1.366 . S
C798 C802 1.385 . S
C799 H774 0.951 . S
C799 C797 1.388 . S
C799 C800 1.366 . S
C800 C799 1.366 . S
C800 C801 1.414 . S
C800 C803 1.499 . S
C801 H775 0.950 . S
C801 C800 1.414 . S
C801 C802 1.374 . S
C802 H776 0.950 . S
C802 C798 1.385 . S
C802 C801 1.374 . S
C803 C800 1.499 . S
C803 C804 1.373 . S
C803 C805 1.389 . S
C804 H777 0.950 . S
C804 C790 1.377 . S
C804 C803 1.373 . S
C805 C789 1.377 . S
C805 C803 1.389 . S
C805 C806 1.524 . S
C806 C805 1.524 . S
C806 C807 1.397 . S
C806 C811 1.363 . S
C807 H778 0.950 . S
C807 C806 1.397 . S
C807 C808 1.334 . S
C808 H779 0.950 . S
C808 C807 1.334 . S
C808 C809 1.287 . S
C809 C808 1.287 . S
C809 C810 1.524 . S
C809 H812 0.999 . S
C810 H780 0.950 . S
C810 C809 1.524 . S
C810 C811 1.415 . S
C811 H781 0.950 . S
C811 C806 1.363 . S
C811 C810 1.415 . S
H812 C809 0.999 . S
H813 C794 0.913 . S
H814 C832 0.951 . S
H815 C834 0.951 . S
H816 C836 0.950 . S
H817 C837 0.950 . S
H818 C839 0.950 . S
H819 C842 0.950 . S
H820 C843 0.950 . S
H821 C845 0.950 . S
H822 C846 0.950 . S
H823 C847 0.951 . S
H824 C849 0.951 . S
H825 C851 0.950 . S
H826 C852 0.950 . S
H827 C854 0.950 . S
H828 C857 0.950 . S
H829 C858 0.950 . S
H830 C860 0.950 . S
H831 C861 0.950 . S
C832 H814 0.951 . S
C832 C833 1.366 . S
C832 C834 1.388 . S
C833 C832 1.366 . S
C833 C837 1.385 . S
C834 H815 0.951 . S
C834 C832 1.388 . S
C834 C835 1.366 . S
C835 C834 1.366 . S
C835 C836 1.414 . S
C835 C838 1.499 . S
C836 H816 0.950 . S
C836 C835 1.414 . S
C836 C837 1.374 . S
C837 H817 0.950 . S
C837 C833 1.385 . S
C837 C836 1.374 . S
C838 C835 1.499 . S
C838 C839 1.373 . S
C838 C840 1.389 . S
C839 H818 0.950 . S
C839 C838 1.373 . S
C839 C855 1.377 . S
C840 C838 1.389 . S
C840 C841 1.524 . S
C840 C854 1.377 . S
C841 C840 1.524 . S
C841 C842 1.397 . S
C841 C846 1.363 . S
C842 H819 0.950 . S
C842 C841 1.397 . S
C842 C843 1.334 . S
C843 H820 0.950 . S
C843 C842 1.334 . S
C843 C844 1.287 . S
C844 C843 1.287 . S
C844 C845 1.524 . S
C844 H863 0.913 . S
C845 H821 0.950 . S
C845 C844 1.524 . S
C845 C846 1.415 . S
C846 H822 0.950 . S
C846 C841 1.363 . S
C846 C845 1.415 . S
C847 H823 0.951 . S
C847 C848 1.366 . S
C847 C849 1.388 . S
C848 C847 1.366 . S
C848 C852 1.385 . S
C849 H824 0.951 . S
C849 C847 1.388 . S
C849 C850 1.366 . S
C850 C849 1.366 . S
C850 C851 1.414 . S
C850 C853 1.499 . S
C851 H825 0.950 . S
C851 C850 1.414 . S
C851 C852 1.374 . S
C852 H826 0.950 . S
C852 C848 1.385 . S
C852 C851 1.374 . S
C853 C850 1.499 . S
C853 C854 1.373 . S
C853 C855 1.389 . S
C854 H827 0.950 . S
C854 C840 1.377 . S
C854 C853 1.373 . S
C855 C839 1.377 . S
C855 C853 1.389 . S
C855 C856 1.524 . S
C856 C855 1.524 . S
C856 C857 1.397 . S
C856 C861 1.363 . S
C857 H828 0.950 . S
C857 C856 1.397 . S
C857 C858 1.334 . S
C858 H829 0.950 . S
C858 C857 1.334 . S
C858 C859 1.287 . S
C859 C858 1.287 . S
C859 C860 1.524 . S
C859 H862 0.999 . S
C860 H830 0.950 . S
C860 C859 1.524 . S
C860 C861 1.415 . S
C861 H831 0.950 . S
C861 C856 1.363 . S
C861 C860 1.415 . S
H862 C859 0.999 . S
H863 C844 0.913 . S
H864 C882 0.951 . S
H865 C884 0.951 . S
H866 C886 0.950 . S
H867 C887 0.950 . S
H868 C889 0.950 . S
H869 C892 0.950 . S
H870 C893 0.950 . S
H871 C895 0.950 . S
H872 C896 0.950 . S
H873 C897 0.951 . S
H874 C899 0.951 . S
H875 C901 0.950 . S
H876 C902 0.950 . S
H877 C904 0.950 . S
H878 C907 0.950 . S
H879 C908 0.950 . S
H880 C910 0.950 . S
H881 C911 0.950 . S
C882 H864 0.951 . S
C882 C883 1.366 . S
C882 C884 1.388 . S
C883 C882 1.366 . S
C883 C887 1.385 . S
C884 H865 0.951 . S
C884 C882 1.388 . S
C884 C885 1.366 . S
C885 C884 1.366 . S
C885 C886 1.414 . S
C885 C888 1.499 . S
C886 H866 0.950 . S
C886 C885 1.414 . S
C886 C887 1.374 . S
C887 H867 0.950 . S
C887 C883 1.385 . S
C887 C886 1.374 . S
C888 C885 1.499 . S
C888 C889 1.373 . S
C888 C890 1.389 . S
C889 H868 0.950 . S
C889 C888 1.373 . S
C889 C905 1.377 . S
C890 C888 1.389 . S
C890 C891 1.524 . S
C890 C904 1.377 . S
C891 C890 1.524 . S
C891 C892 1.397 . S
C891 C896 1.363 . S
C892 H869 0.950 . S
C892 C891 1.397 . S
C892 C893 1.334 . S
C893 H870 0.950 . S
C893 C892 1.334 . S
C893 C894 1.287 . S
C894 C893 1.287 . S
C894 C895 1.524 . S
C894 H913 0.913 . S
C895 H871 0.950 . S
C895 C894 1.524 . S
C895 C896 1.415 . S
C896 H872 0.950 . S
C896 C891 1.363 . S
C896 C895 1.415 . S
C897 H873 0.951 . S
C897 C898 1.366 . S
C897 C899 1.388 1_545 S
C898 C897 1.366 . S
C898 C902 1.385 . S
C899 H874 0.951 . S
C899 C897 1.388 1_565 S
C899 C900 1.366 . S
C900 C899 1.366 . S
C900 C901 1.414 1_565 S
C900 C903 1.499 . S
C901 H875 0.950 . S
C901 C900 1.414 1_545 S
C901 C902 1.374 . S
C902 H876 0.950 . S
C902 C898 1.385 . S
C902 C901 1.374 . S
C903 C900 1.499 . S
C903 C904 1.373 . S
C903 C905 1.389 . S
C904 H877 0.950 . S
C904 C890 1.377 . S
C904 C903 1.373 . S
C905 C889 1.377 . S
C905 C903 1.389 . S
C905 C906 1.524 . S
C906 C905 1.524 . S
C906 C907 1.397 . S
C906 C911 1.363 . S
C907 H878 0.950 . S
C907 C906 1.397 . S
C907 C908 1.334 . S
C908 H879 0.950 . S
C908 C907 1.334 . S
C908 C909 1.287 . S
C909 C908 1.287 . S
C909 C910 1.524 . S
C909 H912 0.999 . S
C910 H880 0.950 . S
C910 C909 1.524 . S
C910 C911 1.415 . S
C911 H881 0.950 . S
C911 C906 1.363 . S
C911 C910 1.415 . S
H912 C909 0.999 . S
H913 C894 0.913 . S
H914 C932 0.951 . S
H915 C934 0.951 . S
H916 C936 0.950 . S
H917 C937 0.950 . S
H918 C939 0.950 . S
H919 C942 0.950 . S
H920 C943 0.950 . S
H921 C945 0.950 . S
H922 C946 0.950 . S
H923 C947 0.951 . S
H924 C949 0.951 . S
H925 C951 0.950 . S
H926 C952 0.950 . S
H927 C954 0.950 . S
H928 C957 0.950 . S
H929 C958 0.950 . S
H930 C960 0.950 . S
H931 C961 0.950 . S
C932 H914 0.951 . S
C932 C933 1.366 . S
C932 C934 1.388 . S
C933 C932 1.366 . S
C933 C937 1.385 . S
C934 H915 0.951 . S
C934 C932 1.388 . S
C934 C935 1.366 . S
C935 C934 1.366 . S
C935 C936 1.414 . S
C935 C938 1.499 . S
C936 H916 0.950 . S
C936 C935 1.414 . S
C936 C937 1.374 . S
C937 H917 0.950 . S
C937 C933 1.385 . S
C937 C936 1.374 . S
C938 C935 1.499 . S
C938 C939 1.373 . S
C938 C940 1.389 . S
C939 H918 0.950 . S
C939 C938 1.373 . S
C939 C955 1.377 . S
C940 C938 1.389 . S
C940 C941 1.524 . S
C940 C954 1.377 . S
C941 C940 1.524 . S
C941 C942 1.397 . S
C941 C946 1.363 . S
C942 H919 0.950 . S
C942 C941 1.397 . S
C942 C943 1.334 . S
C943 H920 0.950 . S
C943 C942 1.334 . S
C943 C944 1.287 . S
C944 C943 1.287 . S
C944 C945 1.524 . S
C944 H963 0.913 . S
C945 H921 0.950 . S
C945 C944 1.524 . S
C945 C946 1.415 . S
C946 H922 0.950 . S
C946 C941 1.363 . S
C946 C945 1.415 . S
C947 H923 0.951 . S
C947 C948 1.366 . S
C947 C949 1.388 . S
C948 C947 1.366 . S
C948 C952 1.385 . S
C949 H924 0.951 . S
C949 C947 1.388 . S
C949 C950 1.366 . S
C950 C949 1.366 . S
C950 C951 1.414 . S
C950 C953 1.499 . S
C951 H925 0.950 . S
C951 C950 1.414 . S
C951 C952 1.374 . S
C952 H926 0.950 . S
C952 C948 1.385 . S
C952 C951 1.374 . S
C953 C950 1.499 . S
C953 C954 1.373 . S
C953 C955 1.389 . S
C954 H927 0.950 . S
C954 C940 1.377 . S
C954 C953 1.373 . S
C955 C939 1.377 . S
C955 C953 1.389 . S
C955 C956 1.524 . S
C956 C955 1.524 . S
C956 C957 1.397 . S
C956 C961 1.363 . S
C957 H928 0.950 . S
C957 C956 1.397 . S
C957 C958 1.334 . S
C958 H929 0.950 . S
C958 C957 1.334 . S
C958 C959 1.287 . S
C959 C958 1.287 . S
C959 C960 1.524 . S
C959 H962 0.999 . S
C960 H930 0.950 . S
C960 C959 1.524 . S
C960 C961 1.415 . S
C961 H931 0.950 . S
C961 C956 1.363 . S
C961 C960 1.415 . S
H962 C959 0.999 . S
H963 C944 0.913 . S
H964 C982 0.951 . S
H965 C984 0.951 . S
H966 C986 0.950 . S
H967 C987 0.950 . S
H968 C989 0.950 . S
H969 C992 0.949 . S
H970 C993 0.950 . S
H971 C995 0.950 . S
H972 C996 0.950 . S
H973 C997 0.951 . S
H974 C999 0.951 . S
H975 C1001 0.950 . S
H976 C1002 0.950 . S
H977 C1004 0.950 . S
H978 C1007 0.950 . S
H979 C1008 0.950 . S
H980 C1010 0.950 . S
H981 C1011 0.950 . S
C982 H964 0.951 . S
C982 C983 1.366 . S
C982 C984 1.388 . S
C983 C982 1.366 . S
C983 C987 1.385 . S
C984 H965 0.951 . S
C984 C982 1.388 . S
C984 C985 1.366 1_565 S
C985 C984 1.366 1_545 S
C985 C986 1.414 . S
C985 C988 1.499 . S
C986 H966 0.950 . S
C986 C985 1.414 . S
C986 C987 1.374 1_545 S
C987 H967 0.950 . S
C987 C983 1.385 . S
C987 C986 1.374 1_565 S
C988 C985 1.499 . S
C988 C989 1.373 . S
C988 C990 1.389 . S
C989 H968 0.950 . S
C989 C988 1.373 . S
C989 C1005 1.377 . S
C990 C988 1.389 . S
C990 C991 1.524 . S
C990 C1004 1.377 . S
C991 C990 1.524 . S
C991 C992 1.397 1_545 S
C991 C996 1.363 . S
C992 H969 0.949 . S
C992 C991 1.397 1_565 S
C992 C993 1.334 . S
C993 H970 0.950 . S
C993 C992 1.334 . S
C993 C994 1.287 . S
C994 C993 1.287 . S
C994 C995 1.524 . S
C994 H1013 0.913 . S
C995 H971 0.950 . S
C995 C994 1.524 . S
C995 C996 1.415 1_565 S
C996 H972 0.950 . S
C996 C991 1.363 . S
C996 C995 1.415 1_545 S
C997 H973 0.951 . S
C997 C998 1.366 . S
C997 C999 1.388 . S
C998 C997 1.366 . S
C998 C1002 1.385 . S
C999 H974 0.951 . S
C999 C997 1.388 . S
C999 C1000 1.366 . S
C1000 C999 1.366 . S
C1000 C1001 1.414 . S
C1000 C1003 1.499 . S
C1001 H975 0.950 . S
C1001 C1000 1.414 . S
C1001 C1002 1.374 . S
C1002 H976 0.950 . S
C1002 C998 1.385 . S
C1002 C1001 1.374 . S
C1003 C1000 1.499 . S
C1003 C1004 1.373 . S
C1003 C1005 1.389 . S
C1004 H977 0.950 . S
C1004 C990 1.377 . S
C1004 C1003 1.373 . S
C1005 C989 1.377 . S
C1005 C1003 1.389 . S
C1005 C1006 1.524 . S
C1006 C1005 1.524 . S
C1006 C1007 1.397 . S
C1006 C1011 1.363 . S
C1007 H978 0.950 . S
C1007 C1006 1.397 . S
C1007 C1008 1.334 . S
C1008 H979 0.950 . S
C1008 C1007 1.334 . S
C1008 C1009 1.287 . S
C1009 C1008 1.287 . S
C1009 C1010 1.524 . S
C1009 H1012 0.999 . S
C1010 H980 0.950 . S
C1010 C1009 1.524 . S
C1010 C1011 1.415 . S
C1011 H981 0.950 . S
C1011 C1006 1.363 . S
C1011 C1010 1.415 . S
H1012 C1009 0.999 . S
H1013 C994 0.913 . S
H1014 C1032 0.951 . S
H1015 C1034 0.951 . S
H1016 C1036 0.950 . S
H1017 C1037 0.950 . S
H1018 C1039 0.950 . S
H1019 C1042 0.950 . S
H1020 C1043 0.950 . S
H1021 C1045 0.950 . S
H1022 C1046 0.950 . S
H1023 C1047 0.951 . S
H1024 C1049 0.951 . S
H1025 C1051 0.950 . S
H1026 C1052 0.950 . S
H1027 C1054 0.950 . S
H1028 C1057 0.950 . S
H1029 C1058 0.950 . S
H1030 C1060 0.950 . S
H1031 C1061 0.950 . S
C1032 H1014 0.951 . S
C1032 C1033 1.366 . S
C1032 C1034 1.388 . S
C1033 C1032 1.366 . S
C1033 C1037 1.385 . S
C1034 H1015 0.951 . S
C1034 C1032 1.388 . S
C1034 C1035 1.366 . S
C1035 C1034 1.366 . S
C1035 C1036 1.414 . S
C1035 C1038 1.499 . S
C1036 H1016 0.950 . S
C1036 C1035 1.414 . S
C1036 C1037 1.374 . S
C1037 H1017 0.950 . S
C1037 C1033 1.385 . S
C1037 C1036 1.374 . S
C1038 C1035 1.499 . S
C1038 C1039 1.373 . S
C1038 C1040 1.389 . S
C1039 H1018 0.950 . S
C1039 C1038 1.373 . S
C1039 C1055 1.377 . S
C1040 C1038 1.389 . S
C1040 C1041 1.524 . S
C1040 C1054 1.377 . S
C1041 C1040 1.524 . S
C1041 C1042 1.397 . S
C1041 C1046 1.363 . S
C1042 H1019 0.950 . S
C1042 C1041 1.397 . S
C1042 C1043 1.334 . S
C1043 H1020 0.950 . S
C1043 C1042 1.334 . S
C1043 C1044 1.287 . S
C1044 C1043 1.287 . S
C1044 C1045 1.524 . S
C1044 H1063 0.913 . S
C1045 H1021 0.950 . S
C1045 C1044 1.524 . S
C1045 C1046 1.415 . S
C1046 H1022 0.950 . S
C1046 C1041 1.363 . S
C1046 C1045 1.415 . S
C1047 H1023 0.951 . S
C1047 C1048 1.366 . S
C1047 C1049 1.388 . S
C1048 C1047 1.366 . S
C1048 C1052 1.385 . S
C1049 H1024 0.951 . S
C1049 C1047 1.388 . S
C1049 C1050 1.366 . S
C1050 C1049 1.366 . S
C1050 C1051 1.414 . S
C1050 C1053 1.499 . S
C1051 H1025 0.950 . S
C1051 C1050 1.414 . S
C1051 C1052 1.374 . S
C1052 H1026 0.950 . S
C1052 C1048 1.385 . S
C1052 C1051 1.374 . S
C1053 C1050 1.499 . S
C1053 C1054 1.373 . S
C1053 C1055 1.389 . S
C1054 H1027 0.950 . S
C1054 C1040 1.377 . S
C1054 C1053 1.373 . S
C1055 C1039 1.377 . S
C1055 C1053 1.389 . S
C1055 C1056 1.524 . S
C1056 C1055 1.524 . S
C1056 C1057 1.397 . S
C1056 C1061 1.363 . S
C1057 H1028 0.950 . S
C1057 C1056 1.397 . S
C1057 C1058 1.334 . S
C1058 H1029 0.950 . S
C1058 C1057 1.334 . S
C1058 C1059 1.287 . S
C1059 C1058 1.287 . S
C1059 C1060 1.524 . S
C1059 H1062 0.999 . S
C1060 H1030 0.950 . S
C1060 C1059 1.524 . S
C1060 C1061 1.415 . S
C1061 H1031 0.950 . S
C1061 C1056 1.363 . S
C1061 C1060 1.415 . S
H1062 C1059 0.999 . S
H1063 C1044 0.913 . S
H1064 C1082 0.951 . S
H1065 C1084 0.951 . S
H1066 C1086 0.950 . S
H1067 C1087 0.950 . S
H1068 C1089 0.950 . S
H1069 C1092 0.950 . S
H1070 C1093 0.950 . S
H1071 C1095 0.950 . S
H1072 C1096 0.950 . S
H1073 C1097 0.951 . S
H1074 C1099 0.951 . S
H1075 C1101 0.950 . S
H1076 C1102 0.950 . S
H1077 C1104 0.950 . S
H1078 C1107 0.950 . S
H1079 C1108 0.950 . S
H1080 C1110 0.950 . S
H1081 C1111 0.950 . S
C1082 H1064 0.951 . S
C1082 C1083 1.366 . S
C1082 C1084 1.388 . S
C1083 C1082 1.366 . S
C1083 C1087 1.385 . S
C1084 H1065 0.951 . S
C1084 C1082 1.388 . S
C1084 C1085 1.366 . S
C1085 C1084 1.366 . S
C1085 C1086 1.414 . S
C1085 C1088 1.499 . S
C1086 H1066 0.950 . S
C1086 C1085 1.414 . S
C1086 C1087 1.374 . S
C1087 H1067 0.950 . S
C1087 C1083 1.385 . S
C1087 C1086 1.374 . S
C1088 C1085 1.499 . S
C1088 C1089 1.373 . S
C1088 C1090 1.389 . S
C1089 H1068 0.950 . S
C1089 C1088 1.373 . S
C1089 C1105 1.377 . S
C1090 C1088 1.389 . S
C1090 C1091 1.524 . S
C1090 C1104 1.377 . S
C1091 C1090 1.524 . S
C1091 C1092 1.397 . S
C1091 C1096 1.363 . S
C1092 H1069 0.950 . S
C1092 C1091 1.397 . S
C1092 C1093 1.334 . S
C1093 H1070 0.950 . S
C1093 C1092 1.334 . S
C1093 C1094 1.287 . S
C1094 C1093 1.287 . S
C1094 C1095 1.524 . S
C1094 H1113 0.913 . S
C1095 H1071 0.950 . S
C1095 C1094 1.524 . S
C1095 C1096 1.415 . S
C1096 H1072 0.950 . S
C1096 C1091 1.363 . S
C1096 C1095 1.415 . S
C1097 H1073 0.951 . S
C1097 C1098 1.366 . S
C1097 C1099 1.388 . S
C1098 C1097 1.366 . S
C1098 C1102 1.385 . S
C1099 H1074 0.951 . S
C1099 C1097 1.388 . S
C1099 C1100 1.366 . S
C1100 C1099 1.366 . S
C1100 C1101 1.414 . S
C1100 C1103 1.499 . S
C1101 H1075 0.950 . S
C1101 C1100 1.414 . S
C1101 C1102 1.374 . S
C1102 H1076 0.950 . S
C1102 C1098 1.385 . S
C1102 C1101 1.374 . S
C1103 C1100 1.499 . S
C1103 C1104 1.373 . S
C1103 C1105 1.389 . S
C1104 H1077 0.950 . S
C1104 C1090 1.377 . S
C1104 C1103 1.373 . S
C1105 C1089 1.377 . S
C1105 C1103 1.389 . S
C1105 C1106 1.524 . S
C1106 C1105 1.524 . S
C1106 C1107 1.397 . S
C1106 C1111 1.363 . S
C1107 H1078 0.950 . S
C1107 C1106 1.397 . S
C1107 C1108 1.334 . S
C1108 H1079 0.950 . S
C1108 C1107 1.334 . S
C1108 C1109 1.287 . S
C1109 C1108 1.287 . S
C1109 C1110 1.524 . S
C1109 H1112 0.999 . S
C1110 H1080 0.950 . S
C1110 C1109 1.524 . S
C1110 C1111 1.415 . S
C1111 H1081 0.950 . S
C1111 C1106 1.363 . S
C1111 C1110 1.415 . S
H1112 C1109 0.999 . S
H1113 C1094 0.913 . S
H1114 C1132 0.951 . S
H1115 C1134 0.951 . S
H1116 C1136 0.950 . S
H1117 C1137 0.950 . S
H1118 C1139 0.950 . S
H1119 C1142 0.950 . S
H1120 C1143 0.950 . S
H1121 C1145 0.950 . S
H1122 C1146 0.950 . S
H1123 C1147 0.951 . S
H1124 C1149 0.955 . S
H1125 C1151 0.950 1_655 S
H1126 C1152 0.950 . S
H1127 C1154 0.950 . S
H1128 C1157 0.950 . S
H1129 C1158 0.950 . S
H1130 C1160 0.950 . S
H1131 C1161 0.950 . S
C1132 H1114 0.951 . S
C1132 C1133 1.366 . S
C1132 C1134 1.388 . S
C1133 C1132 1.366 . S
C1133 C1137 1.385 . S
C1134 H1115 0.951 . S
C1134 C1132 1.388 . S
C1134 C1135 1.366 . S
C1135 C1134 1.366 . S
C1135 C1136 1.414 . S
C1135 C1138 1.499 . S
C1136 H1116 0.950 . S
C1136 C1135 1.414 . S
C1136 C1137 1.374 . S
C1137 H1117 0.950 . S
C1137 C1133 1.385 . S
C1137 C1136 1.374 . S
C1138 C1135 1.499 . S
C1138 C1139 1.373 . S
C1138 C1140 1.389 . S
C1139 H1118 0.950 . S
C1139 C1138 1.373 . S
C1139 C1155 1.377 . S
C1140 C1138 1.389 . S
C1140 C1141 1.524 . S
C1140 C1154 1.377 . S
C1141 C1140 1.524 . S
C1141 C1142 1.397 . S
C1141 C1146 1.363 . S
C1142 H1119 0.950 . S
C1142 C1141 1.397 . S
C1142 C1143 1.334 . S
C1143 H1120 0.950 . S
C1143 C1142 1.334 . S
C1143 C1144 1.287 . S
C1144 C1143 1.287 . S
C1144 C1145 1.524 . S
C1144 H1163 0.913 . S
C1145 H1121 0.950 . S
C1145 C1144 1.524 . S
C1145 C1146 1.415 . S
C1146 H1122 0.950 . S
C1146 C1141 1.363 . S
C1146 C1145 1.415 . S
C1147 H1123 0.951 . S
C1147 C1148 1.366 . S
C1147 C1149 1.380 1_455 S
C1148 C1147 1.366 . S
C1148 C1152 1.385 . S
C1149 H1124 0.955 . S
C1149 C1147 1.380 1_655 S
C1149 C1150 1.369 . S
C1150 C1149 1.369 . S
C1150 C1151 1.414 1_655 S
C1150 C1153 1.499 . S
C1151 H1125 0.950 1_455 S
C1151 C1150 1.414 1_455 S
C1151 C1152 1.374 . S
C1152 H1126 0.950 . S
C1152 C1148 1.385 . S
C1152 C1151 1.374 . S
C1153 C1150 1.499 . S
C1153 C1154 1.373 . S
C1153 C1155 1.389 . S
C1154 H1127 0.950 . S
C1154 C1140 1.377 . S
C1154 C1153 1.373 . S
C1155 C1139 1.377 . S
C1155 C1153 1.389 . S
C1155 C1156 1.524 . S
C1156 C1155 1.524 . S
C1156 C1157 1.397 1_655 S
C1156 C1161 1.363 . S
C1157 H1128 0.950 . S
C1157 C1156 1.397 1_455 S
C1157 C1158 1.334 . S
C1158 H1129 0.950 . S
C1158 C1157 1.334 . S
C1158 C1159 1.287 . S
C1159 C1158 1.287 . S
C1159 C1160 1.524 1_455 S
C1159 H1162 0.999 . S
C1160 H1130 0.950 . S
C1160 C1159 1.524 1_655 S
C1160 C1161 1.415 . S
C1161 H1131 0.950 . S
C1161 C1156 1.363 . S
C1161 C1160 1.415 . S
H1162 C1159 0.999 . S
H1163 C1144 0.913 . S
H1164 C1182 0.951 . S
H1165 C1184 0.951 . S
H1166 C1186 0.950 . S
H1167 C1187 0.950 . S
H1168 C1189 0.950 . S
H1169 C1192 0.950 . S
H1170 C1193 0.950 . S
H1171 C1195 0.950 . S
H1172 C1196 0.950 . S
H1173 C1197 0.951 . S
H1174 C1199 0.951 . S
H1175 C1201 0.950 . S
H1176 C1202 0.950 . S
H1177 C1204 0.950 . S
H1178 C1207 0.950 . S
H1179 C1208 0.950 . S
H1180 C1210 0.950 . S
H1181 C1211 0.950 . S
C1182 H1164 0.951 . S
C1182 C1183 1.366 . S
C1182 C1184 1.388 . S
C1183 C1182 1.366 . S
C1183 C1187 1.385 . S
C1184 H1165 0.951 . S
C1184 C1182 1.388 . S
C1184 C1185 1.366 . S
C1185 C1184 1.366 . S
C1185 C1186 1.414 . S
C1185 C1188 1.499 . S
C1186 H1166 0.950 . S
C1186 C1185 1.414 . S
C1186 C1187 1.374 . S
C1187 H1167 0.950 . S
C1187 C1183 1.385 . S
C1187 C1186 1.374 . S
C1188 C1185 1.499 . S
C1188 C1189 1.373 . S
C1188 C1190 1.389 . S
C1189 H1168 0.950 . S
C1189 C1188 1.373 . S
C1189 C1205 1.377 . S
C1190 C1188 1.389 . S
C1190 C1191 1.524 . S
C1190 C1204 1.377 . S
C1191 C1190 1.524 . S
C1191 C1192 1.397 . S
C1191 C1196 1.363 . S
C1192 H1169 0.950 . S
C1192 C1191 1.397 . S
C1192 C1193 1.334 . S
C1193 H1170 0.950 . S
C1193 C1192 1.334 . S
C1193 C1194 1.287 . S
C1194 C1193 1.287 . S
C1194 C1195 1.524 . S
C1194 H1213 0.913 . S
C1195 H1171 0.950 . S
C1195 C1194 1.524 . S
C1195 C1196 1.415 . S
C1196 H1172 0.950 . S
C1196 C1191 1.363 . S
C1196 C1195 1.415 . S
C1197 H1173 0.951 . S
C1197 C1198 1.366 . S
C1197 C1199 1.388 . S
C1198 C1197 1.366 . S
C1198 C1202 1.385 . S
C1199 H1174 0.951 . S
C1199 C1197 1.388 . S
C1199 C1200 1.366 . S
C1200 C1199 1.366 . S
C1200 C1201 1.414 . S
C1200 C1203 1.499 . S
C1201 H1175 0.950 . S
C1201 C1200 1.414 . S
C1201 C1202 1.374 . S
C1202 H1176 0.950 . S
C1202 C1198 1.385 . S
C1202 C1201 1.374 . S
C1203 C1200 1.499 . S
C1203 C1204 1.373 . S
C1203 C1205 1.389 . S
C1204 H1177 0.950 . S
C1204 C1190 1.377 . S
C1204 C1203 1.373 . S
C1205 C1189 1.377 . S
C1205 C1203 1.389 . S
C1205 C1206 1.524 . S
C1206 C1205 1.524 . S
C1206 C1207 1.397 . S
C1206 C1211 1.363 . S
C1207 H1178 0.950 . S
C1207 C1206 1.397 . S
C1207 C1208 1.334 . S
C1208 H1179 0.950 . S
C1208 C1207 1.334 . S
C1208 C1209 1.287 . S
C1209 C1208 1.287 . S
C1209 C1210 1.524 . S
C1209 H1212 0.999 . S
C1210 H1180 0.950 . S
C1210 C1209 1.524 . S
C1210 C1211 1.415 . S
C1211 H1181 0.950 . S
C1211 C1206 1.363 . S
C1211 C1210 1.415 . S
H1212 C1209 0.999 . S
H1213 C1194 0.913 . S
H1214 C1232 0.951 . S
H1215 C1234 0.951 . S
H1216 C1236 0.950 . S
H1217 C1237 0.950 . S
H1218 C1239 0.950 . S
H1219 C1242 0.950 . S
H1220 C1243 0.950 . S
H1221 C1245 0.950 . S
H1222 C1246 0.950 . S
H1223 C1247 0.951 . S
H1224 C1249 0.951 . S
H1225 C1251 0.950 . S
H1226 C1252 0.950 . S
H1227 C1254 0.950 . S
H1228 C1257 0.950 . S
H1229 C1258 0.950 . S
H1230 C1260 0.950 . S
H1231 C1261 0.950 . S
C1232 H1214 0.951 . S
C1232 C1233 1.366 . S
C1232 C1234 1.388 . S
C1233 C1232 1.366 . S
C1233 C1237 1.385 . S
C1234 H1215 0.951 . S
C1234 C1232 1.388 . S
C1234 C1235 1.366 . S
C1235 C1234 1.366 . S
C1235 C1236 1.414 . S
C1235 C1238 1.499 . S
C1236 H1216 0.950 . S
C1236 C1235 1.414 . S
C1236 C1237 1.374 . S
C1237 H1217 0.950 . S
C1237 C1233 1.385 . S
C1237 C1236 1.374 . S
C1238 C1235 1.499 . S
C1238 C1239 1.373 . S
C1238 C1240 1.389 . S
C1239 H1218 0.950 . S
C1239 C1238 1.373 . S
C1239 C1255 1.377 . S
C1240 C1238 1.389 . S
C1240 C1241 1.524 . S
C1240 C1254 1.377 . S
C1241 C1240 1.524 . S
C1241 C1242 1.397 . S
C1241 C1246 1.363 . S
C1242 H1219 0.950 . S
C1242 C1241 1.397 . S
C1242 C1243 1.334 . S
C1243 H1220 0.950 . S
C1243 C1242 1.334 . S
C1243 C1244 1.287 . S
C1244 C1243 1.287 . S
C1244 C1245 1.524 . S
C1244 H1263 0.913 . S
C1245 H1221 0.950 . S
C1245 C1244 1.524 . S
C1245 C1246 1.415 . S
C1246 H1222 0.950 . S
C1246 C1241 1.363 . S
C1246 C1245 1.415 . S
C1247 H1223 0.951 . S
C1247 C1248 1.366 . S
C1247 C1249 1.388 . S
C1248 C1247 1.366 . S
C1248 C1252 1.385 . S
C1249 H1224 0.951 . S
C1249 C1247 1.388 . S
C1249 C1250 1.366 1_655 S
C1250 C1249 1.366 1_455 S
C1250 C1251 1.414 . S
C1250 C1253 1.499 . S
C1251 H1225 0.950 . S
C1251 C1250 1.414 . S
C1251 C1252 1.374 1_455 S
C1252 H1226 0.950 . S
C1252 C1248 1.385 . S
C1252 C1251 1.374 1_655 S
C1253 C1250 1.499 . S
C1253 C1254 1.373 . S
C1253 C1255 1.389 . S
C1254 H1227 0.950 . S
C1254 C1240 1.377 . S
C1254 C1253 1.373 . S
C1255 C1239 1.377 . S
C1255 C1253 1.389 . S
C1255 C1256 1.524 . S
C1256 C1255 1.524 . S
C1256 C1257 1.397 . S
C1256 C1261 1.363 . S
C1257 H1228 0.950 . S
C1257 C1256 1.397 . S
C1257 C1258 1.334 . S
C1258 H1229 0.950 . S
C1258 C1257 1.334 . S
C1258 C1259 1.287 . S
C1259 C1258 1.287 . S
C1259 C1260 1.524 . S
C1259 H1262 0.999 1_455 S
C1260 H1230 0.950 . S
C1260 C1259 1.524 . S
C1260 C1261 1.415 . S
C1261 H1231 0.950 . S
C1261 C1256 1.363 . S
C1261 C1260 1.415 . S
H1262 C1259 0.999 1_655 S
H1263 C1244 0.913 . S
C283 N5 0.307 . S
C298 N170 0.309 . S
C333 N203 0.306 . S
C348 N38 0.310 . S
C383 N236 0.309 . S
C398 N71 0.307 . S
C433 N137 0.306 . S
C448 N104 0.310 . S
C483 N113 1.151 . S
C498 C17 1.091 . S
C533 C50 1.091 1_545 S
C548 N14 1.151 . S
C583 N47 1.149 . S
C598 C83 1.089 . S
C633 C116 1.090 1_565 S
C648 N80 1.150 . S
C683 N179 1.151 . S
C698 C149 1.091 1_455 S
C733 C182 1.090 . S
C748 N212 1.150 . S
C783 C215 1.091 1_655 S
C798 N245 1.150 . S
C833 C248 1.091 . S
C848 N146 1.151 . S
C883 C226 1.957 . S
C898 C8 1.980 . S
C933 C259 1.957 . S
C948 C41 1.980 . S
C983 C74 1.980 . S
C998 C160 1.957 . S
C1033 C107 1.980 . S
C1048 C193 1.957 . S
C1083 C140 1.980 . S
C1098 C94 1.957 . S
C1133 C127 1.957 . S
C1148 C173 1.980 . S
C1183 C206 1.980 . S
C1198 C28 1.957 . S
C1233 C61 1.957 . S
C1248 C239 1.980 . S
