# Generated by pormake.
# Topology yfq, (5)-cn, num edge types: 1
# Building blocks:
#     Node 0, Type 0, BuildingBlock: BEQFEK_clean_sbu_0, # of connection points: 5
#     Node 1, Type 0, BuildingBlock: BEQFEK_clean_sbu_0, # of connection points: 5
#     Node 2, Type 0, BuildingBlock: BEQFEK_clean_sbu_0, # of connection points: 5
#     Node 3, Type 0, BuildingBlock: BEQFEK_clean_sbu_0, # of connection points: 5
#     Node 4, Type 0, BuildingBlock: BEQFEK_clean_sbu_0, # of connection points: 5
#     Node 5, Type 0, BuildingBlock: BEQFEK_clean_sbu_0, # of connection points: 5
#     Node 6, Type 0, BuildingBlock: BEQFEK_clean_sbu_0, # of connection points: 5
#     Node 7, Type 0, BuildingBlock: BEQFEK_clean_sbu_0, # of connection points: 5
#     Node 8, Type 0, BuildingBlock: BEQFEK_clean_sbu_0, # of connection points: 5
#     Node 9, Type 0, BuildingBlock: BEQFEK_clean_sbu_0, # of connection points: 5
#     Node 10, Type 0, BuildingBlock: BEQFEK_clean_sbu_0, # of connection points: 5
#     Node 11, Type 0, BuildingBlock: BEQFEK_clean_sbu_0, # of connection points: 5
#     Node 12, Type 0, BuildingBlock: BEQFEK_clean_sbu_0, # of connection points: 5
#     Node 13, Type 0, BuildingBlock: BEQFEK_clean_sbu_0, # of connection points: 5
#     Node 14, Type 0, BuildingBlock: BEQFEK_clean_sbu_0, # of connection points: 5
#     Node 15, Type 0, BuildingBlock: BEQFEK_clean_sbu_0, # of connection points: 5
#     Node 16, Type 0, BuildingBlock: BEQFEK_clean_sbu_0, # of connection points: 5
#     Node 17, Type 0, BuildingBlock: BEQFEK_clean_sbu_0, # of connection points: 5
#     Node 18, Type 0, BuildingBlock: BEQFEK_clean_sbu_0, # of connection points: 5
#     Node 19, Type 0, BuildingBlock: BEQFEK_clean_sbu_0, # of connection points: 5
#     Node 20, Type 0, BuildingBlock: BEQFEK_clean_sbu_0, # of connection points: 5
#     Node 21, Type 0, BuildingBlock: BEQFEK_clean_sbu_0, # of connection points: 5
#     Node 22, Type 0, BuildingBlock: BEQFEK_clean_sbu_0, # of connection points: 5
#     Node 23, Type 0, BuildingBlock: BEQFEK_clean_sbu_0, # of connection points: 5
#     Node 24, Type 0, BuildingBlock: BEQFEK_clean_sbu_0, # of connection points: 5
#     Node 25, Type 0, BuildingBlock: BEQFEK_clean_sbu_0, # of connection points: 5
#     Node 26, Type 0, BuildingBlock: BEQFEK_clean_sbu_0, # of connection points: 5
#     Node 27, Type 0, BuildingBlock: BEQFEK_clean_sbu_0, # of connection points: 5
#     Node 28, Type 0, BuildingBlock: BEQFEK_clean_sbu_0, # of connection points: 5
#     Node 29, Type 0, BuildingBlock: BEQFEK_clean_sbu_0, # of connection points: 5
#     Node 30, Type 0, BuildingBlock: BEQFEK_clean_sbu_0, # of connection points: 5
#     Node 31, Type 0, BuildingBlock: BEQFEK_clean_sbu_0, # of connection points: 5
#     Edge 32, Type (0, 0), None
#     Edge 33, Type (0, 0), None
#     Edge 34, Type (0, 0), None
#     Edge 35, Type (0, 0), None
#     Edge 36, Type (0, 0), None
#     Edge 37, Type (0, 0), None
#     Edge 38, Type (0, 0), None
#     Edge 39, Type (0, 0), None
#     Edge 40, Type (0, 0), None
#     Edge 41, Type (0, 0), None
#     Edge 42, Type (0, 0), None
#     Edge 43, Type (0, 0), None
#     Edge 44, Type (0, 0), None
#     Edge 45, Type (0, 0), None
#     Edge 46, Type (0, 0), None
#     Edge 47, Type (0, 0), None
#     Edge 48, Type (0, 0), None
#     Edge 49, Type (0, 0), None
#     Edge 50, Type (0, 0), None
#     Edge 51, Type (0, 0), None
#     Edge 52, Type (0, 0), None
#     Edge 53, Type (0, 0), None
#     Edge 54, Type (0, 0), None
#     Edge 55, Type (0, 0), None
#     Edge 56, Type (0, 0), None
#     Edge 57, Type (0, 0), None
#     Edge 58, Type (0, 0), None
#     Edge 59, Type (0, 0), None
#     Edge 60, Type (0, 0), None
#     Edge 61, Type (0, 0), None
#     Edge 62, Type (0, 0), None
#     Edge 63, Type (0, 0), None
#     Edge 64, Type (0, 0), None
#     Edge 65, Type (0, 0), None
#     Edge 66, Type (0, 0), None
#     Edge 67, Type (0, 0), None
#     Edge 68, Type (0, 0), None
#     Edge 69, Type (0, 0), None
#     Edge 70, Type (0, 0), None
#     Edge 71, Type (0, 0), None
#     Edge 72, Type (0, 0), None
#     Edge 73, Type (0, 0), None
#     Edge 74, Type (0, 0), None
#     Edge 75, Type (0, 0), None
#     Edge 76, Type (0, 0), None
#     Edge 77, Type (0, 0), None
#     Edge 78, Type (0, 0), None
#     Edge 79, Type (0, 0), None
#     Edge 80, Type (0, 0), None
#     Edge 81, Type (0, 0), None
#     Edge 82, Type (0, 0), None
#     Edge 83, Type (0, 0), None
#     Edge 84, Type (0, 0), None
#     Edge 85, Type (0, 0), None
#     Edge 86, Type (0, 0), None
#     Edge 87, Type (0, 0), None
#     Edge 88, Type (0, 0), None
#     Edge 89, Type (0, 0), None
#     Edge 90, Type (0, 0), None
#     Edge 91, Type (0, 0), None
#     Edge 92, Type (0, 0), None
#     Edge 93, Type (0, 0), None
#     Edge 94, Type (0, 0), None
#     Edge 95, Type (0, 0), None
#     Edge 96, Type (0, 0), None
#     Edge 97, Type (0, 0), None
#     Edge 98, Type (0, 0), None
#     Edge 99, Type (0, 0), None
#     Edge 100, Type (0, 0), None
#     Edge 101, Type (0, 0), None
#     Edge 102, Type (0, 0), None
#     Edge 103, Type (0, 0), None
#     Edge 104, Type (0, 0), None
#     Edge 105, Type (0, 0), None
#     Edge 106, Type (0, 0), None
#     Edge 107, Type (0, 0), None
#     Edge 108, Type (0, 0), None
#     Edge 109, Type (0, 0), None
#     Edge 110, Type (0, 0), None
#     Edge 111, Type (0, 0), None
# Relax obj value: 0.365
# Max RMSD: 0.232
# Mean RMSD: 0.232
data_MOF--net-yfq--node1-BEQFEK_clean_sbu_0--edge1-none
_symmetry_space_group_name_H-M    P1
_symmetry_Int_Tables_number       1
_symmetry_cell_setting            triclinic
loop_
_symmetry_equiv_pos_as_xyz
'x, y, z'
_cell_length_a     28.304354
_cell_length_b     28.304405
_cell_length_c     33.879742
_cell_angle_alpha  90.0
_cell_angle_beta   90.0
_cell_angle_gamma 90.000001
loop_
_atom_site_label
_atom_site_type_symbol
_atom_site_fract_x
_atom_site_fract_y
_atom_site_fract_z
_atom_type_partial_charge
Co0 Co 0.10813 0.22462 0.35606 0.0
Co1 Co 0.08557 0.16823 0.27974 0.0
C2 C 0.01399 0.23077 0.31073 0.0
O3 O 0.03961 0.2366 0.3414 0.0
O4 O 0.02967 0.20971 0.2803 0.0
C5 C 0.12692 0.31125 0.39723 0.0
O6 O 0.12971 0.32884 0.36141 0.0
C7 C 0.08368 0.15682 0.19464 0.0
C8 C 0.1043 0.08235 0.18596 0.0
C9 C 0.09577 0.1242 0.166 0.0
N10 N 0.08546 0.13554 0.23013 0.0
N11 N 0.09677 0.09068 0.22468 0.0
C12 C 0.07652 0.20874 0.1889 0.0
H13 H 0.08574 0.22839 0.21616 0.0
H14 H 0.09801 0.22189 0.16378 0.0
H15 H 0.03875 0.21535 0.18208 0.0
C16 C 0.19473 0.24671 0.31348 0.0
N17 N 0.15003 0.23084 0.31401 0.0
N18 N 0.1425 0.2042 0.28305 0.0
C19 C 0.18226 0.2024 0.26133 0.0
C20 C 0.21534 0.23363 0.27754 0.0
C21 C 0.22071 0.25536 0.35144 0.0
H22 H 0.20408 0.23485 0.37564 0.0
H23 H 0.2186 0.29318 0.35967 0.0
H24 H 0.25813 0.24402 0.34941 0.0
O25 O 0.11327 0.16063 0.3755 0.0
O26 O 0.07446 0.12556 0.32672 0.0
H27 H 0.23233 0.15147 0.23819 0.0
H28 H 0.18172 0.16374 0.2067 0.0
C29 C 0.19398 0.15932 0.23752 0.0
H30 H 0.17594 0.12816 0.2503 0.0
H31 H 0.10241 0.06659 0.24751 0.0
O32 O 0.12363 0.26679 0.40107 0.0
C33 C 0.08883 0.12652 0.36252 0.0
Co34 Co 0.00445 0.85816 0.60607 0.0
Co35 Co 0.06084 0.83559 0.52976 0.0
C36 C -0.00174 0.76403 0.56074 0.0
O37 O -0.00757 0.78965 0.59141 0.0
O38 O 0.01934 0.7797 0.53031 0.0
C39 C 0.91783 0.87695 0.64724 0.0
O40 O 0.90023 0.87973 0.61142 0.0
C41 C 0.07225 0.8337 0.44465 0.0
C42 C 0.14673 0.8543 0.43598 0.0
C43 C 0.10488 0.84579 0.41601 0.0
N44 N 0.09353 0.83547 0.48014 0.0
N45 N 0.13839 0.84677 0.47469 0.0
C46 C 0.02033 0.82657 0.4389 0.0
H47 H 0.00068 0.83577 0.46617 0.0
H48 H 0.00718 0.84808 0.4138 0.0
H49 H 0.01371 0.7888 0.43206 0.0
C50 C 0.98239 0.94477 0.56349 0.0
N51 N -0.00175 0.90006 0.56403 0.0
N52 N 0.02489 0.89253 0.53306 0.0
C53 C 0.02669 0.93229 0.51134 0.0
C54 C -0.00453 0.96537 0.52755 0.0
C55 C 0.97373 0.97075 0.60146 0.0
H56 H -0.00576 0.95412 0.62565 0.0
H57 H 0.93591 0.96863 0.60968 0.0
H58 H 0.98506 0.00817 0.59942 0.0
O59 O 0.06844 0.86325 0.62552 0.0
O60 O 0.10352 0.82447 0.57673 0.0
H61 H 0.07762 0.98235 0.4882 0.0
H62 H 0.06534 0.93174 0.45671 0.0
C63 C 0.06977 0.944 0.48753 0.0
H64 H 0.10092 0.92596 0.50031 0.0
H65 H 0.16248 0.8524 0.49753 0.0
O66 O 0.96229 0.87368 0.65108 0.0
C67 C 0.10256 0.83883 0.61253 0.0
Co68 Co 0.37098 0.75448 0.85606 0.0
Co69 Co 0.39354 0.81088 0.77974 0.0
C70 C 0.46512 0.74833 0.81073 0.0
O71 O 0.4395 0.7425 0.8414 0.0
O72 O 0.44944 0.7694 0.7803 0.0
C73 C 0.35218 0.66786 0.89723 0.0
O74 O 0.34939 0.65026 0.86141 0.0
C75 C 0.39543 0.82228 0.69464 0.0
C76 C 0.37481 0.89675 0.68596 0.0
C77 C 0.38333 0.8549 0.666 0.0
N78 N 0.39365 0.84356 0.73013 0.0
N79 N 0.38234 0.88843 0.72468 0.0
C80 C 0.40259 0.77036 0.6889 0.0
H81 H 0.39336 0.75072 0.71616 0.0
H82 H 0.38109 0.75721 0.66378 0.0
H83 H 0.44036 0.76375 0.68208 0.0
C84 C 0.28438 0.7324 0.81348 0.0
N85 N 0.32908 0.74827 0.81401 0.0
N86 N 0.33661 0.77491 0.78305 0.0
C87 C 0.29685 0.7767 0.76133 0.0
C88 C 0.26377 0.74547 0.77754 0.0
C89 C 0.2584 0.72374 0.85144 0.0
H90 H 0.27503 0.74426 0.87564 0.0
H91 H 0.26051 0.68593 0.85967 0.0
H92 H 0.22097 0.73508 0.84941 0.0
O93 O 0.36583 0.81847 0.8755 0.0
O94 O 0.40465 0.85354 0.82672 0.0
H95 H 0.24678 0.82763 0.73819 0.0
H96 H 0.29739 0.81537 0.7067 0.0
C97 C 0.28513 0.81978 0.73752 0.0
H98 H 0.30317 0.85094 0.7503 0.0
H99 H 0.37669 0.91252 0.74751 0.0
O100 O 0.35548 0.71232 0.90107 0.0
C101 C 0.39028 0.85259 0.86252 0.0
Co102 Co 0.47466 0.12094 0.10607 0.0
Co103 Co 0.41827 0.14352 0.02976 0.0
C104 C 0.48085 0.21508 0.06074 0.0
O105 O 0.48667 0.18945 0.09141 0.0
O106 O 0.45976 0.19941 0.03031 0.0
C107 C 0.56128 0.10216 0.14724 0.0
O108 O 0.57888 0.09938 0.11142 0.0
C109 C 0.40686 0.1454 0.94465 0.0
C110 C 0.33238 0.1248 0.93598 0.0
C111 C 0.37423 0.13331 0.91601 0.0
N112 N 0.38558 0.14363 0.98014 0.0
N113 N 0.34071 0.13233 0.97469 0.0
C114 C 0.45878 0.15254 0.9389 0.0
H115 H 0.47842 0.14334 0.96617 0.0
H116 H 0.47192 0.13102 0.9138 0.0
H117 H 0.4654 0.19031 0.93206 0.0
C118 C 0.49672 0.03434 0.06349 0.0
N119 N 0.48085 0.07904 0.06403 0.0
N120 N 0.45422 0.08658 0.03306 0.0
C121 C 0.45242 0.04682 1.01134 0.0
C122 C 0.48364 0.01373 0.02755 0.0
C123 C 0.50538 0.00836 0.10146 0.0
H124 H 0.48487 0.02498 0.12565 0.0
H125 H 0.54319 0.01048 0.10968 0.0
H126 H 0.49404 0.97093 0.09942 0.0
O127 O 0.41067 0.11585 0.12552 0.0
O128 O 0.37559 0.15464 0.07673 0.0
H129 H 0.40148 -0.00324 0.9882 0.0
H130 H 0.41376 0.04736 0.95671 0.0
C131 C 0.40934 0.0351 0.98753 0.0
H132 H 0.37818 0.05315 1.00031 0.0
H133 H 0.31662 0.1267 0.99753 0.0
O134 O 0.51682 0.10542 0.15108 0.0
C135 C 0.37655 0.14028 0.11253 0.0
Co136 Co 0.10813 0.75448 0.18383 0.0
Co137 Co 0.08557 0.81088 0.26015 0.0
C138 C 0.01399 0.74833 0.22916 0.0
O139 O 0.03961 0.74251 0.19849 0.0
O140 O 0.02967 0.76939 0.25959 0.0
C141 C 0.12693 0.66787 0.14264 0.0
O142 O 0.12973 0.65026 0.17846 0.0
C143 C 0.08374 0.82222 0.34525 0.0
C144 C 0.10433 0.89669 0.35397 0.0
C145 C 0.0959 0.85481 0.3739 0.0
N146 N 0.08546 0.84353 0.30977 0.0
N147 N 0.09676 0.8884 0.31525 0.0
C148 C 0.0766 0.77029 0.35097 0.0
H149 H 0.08577 0.75067 0.32368 0.0
H150 H 0.09814 0.75712 0.37605 0.0
H151 H 0.03884 0.76367 0.35783 0.0
C152 C 0.19473 0.73239 0.2264 0.0
N153 N 0.15002 0.74826 0.22587 0.0
N154 N 0.1425 0.77491 0.25683 0.0
C155 C 0.18226 0.77671 0.27855 0.0
C156 C 0.21534 0.74547 0.26234 0.0
C157 C 0.22071 0.72373 0.18844 0.0
H158 H 0.20408 0.74424 0.16424 0.0
H159 H 0.2186 0.68591 0.18022 0.0
H160 H 0.25813 0.73507 0.19048 0.0
O161 O 0.11327 0.81848 0.1644 0.0
O162 O 0.07445 0.85355 0.21317 0.0
H163 H 0.23234 0.82765 0.30166 0.0
H164 H 0.18176 0.81538 0.33317 0.0
C165 C 0.19399 0.81979 0.30234 0.0
H166 H 0.17594 0.85095 0.28957 0.0
H167 H 0.10235 0.91252 0.29243 0.0
O168 O 0.12362 0.71233 0.13881 0.0
C169 C 0.08882 0.85259 0.17738 0.0
Co170 Co 0.47466 0.85816 0.43381 0.0
Co171 Co 0.41827 0.83559 0.51014 0.0
C172 C 0.48085 0.76403 0.47914 0.0
O173 O 0.48667 0.78965 0.44848 0.0
O174 O 0.45977 0.7797 0.50957 0.0
C175 C 0.56127 0.87695 0.39264 0.0
O176 O 0.57887 0.87974 0.42845 0.0
C177 C 0.40692 0.83377 0.59524 0.0
C178 C 0.33244 0.85434 0.60395 0.0
C179 C 0.37433 0.84592 0.62388 0.0
N180 N 0.38561 0.83548 0.55976 0.0
N181 N 0.34074 0.84676 0.56524 0.0
C182 C 0.45885 0.82665 0.60096 0.0
H183 H 0.47847 0.8358 0.57367 0.0
H184 H 0.47202 0.84821 0.62603 0.0
H185 H 0.46548 0.78889 0.60785 0.0
C186 C 0.49672 0.94477 0.47639 0.0
N187 N 0.48085 0.90006 0.47586 0.0
N188 N 0.45422 0.89253 0.50682 0.0
C189 C 0.45242 0.93229 0.52854 0.0
C190 C 0.48364 0.96537 0.51233 0.0
C191 C 0.50539 0.97075 0.43843 0.0
H192 H 0.48489 0.95412 0.41423 0.0
H193 H 0.54321 0.96863 0.43021 0.0
H194 H 0.49405 0.00817 0.44047 0.0
O195 O 0.41066 0.86324 0.41437 0.0
O196 O 0.37558 0.82447 0.46317 0.0
H197 H 0.40147 0.98236 0.55166 0.0
H198 H 0.41375 0.93178 0.58317 0.0
C199 C 0.40933 0.94402 0.55234 0.0
H200 H 0.37818 0.92596 0.53957 0.0
H201 H 0.31662 0.85234 0.54241 0.0
O202 O 0.51681 0.87368 0.3888 0.0
C203 C 0.37654 0.83882 0.42737 0.0
Co204 Co 0.37098 0.22462 0.68383 0.0
Co205 Co 0.39354 0.16823 0.76015 0.0
C206 C 0.46512 0.23077 0.72916 0.0
O207 O 0.4395 0.2366 0.69849 0.0
O208 O 0.44944 0.20971 0.75959 0.0
C209 C 0.35218 0.31124 0.64264 0.0
O210 O 0.34938 0.32884 0.67846 0.0
C211 C 0.39536 0.15689 0.84525 0.0
C212 C 0.37477 0.08241 0.85397 0.0
C213 C 0.38321 0.1243 0.8739 0.0
N214 N 0.39364 0.13557 0.80977 0.0
N215 N 0.38235 0.09071 0.81525 0.0
C216 C 0.4025 0.20882 0.85097 0.0
H217 H 0.39333 0.22843 0.82368 0.0
H218 H 0.38096 0.22199 0.87605 0.0
H219 H 0.44026 0.21544 0.85783 0.0
C220 C 0.28438 0.24671 0.7264 0.0
N221 N 0.32908 0.23084 0.72587 0.0
N222 N 0.33661 0.2042 0.75683 0.0
C223 C 0.29684 0.2024 0.77855 0.0
C224 C 0.26377 0.23363 0.76234 0.0
C225 C 0.2584 0.25537 0.68844 0.0
H226 H 0.27503 0.23487 0.66424 0.0
H227 H 0.26051 0.29319 0.68022 0.0
H228 H 0.22098 0.24403 0.69048 0.0
O229 O 0.36584 0.16063 0.6644 0.0
O230 O 0.40466 0.12555 0.71317 0.0
H231 H 0.24677 0.15146 0.80166 0.0
H232 H 0.29735 0.16372 0.83317 0.0
C233 C 0.28511 0.15931 0.80234 0.0
H234 H 0.30317 0.12816 0.78957 0.0
H235 H 0.37676 0.06659 0.79243 0.0
O236 O 0.35548 0.26678 0.63881 0.0
C237 C 0.39028 0.12651 0.67738 0.0
Co238 Co 0.00445 0.12095 0.93381 0.0
Co239 Co 0.06084 0.14352 1.01014 0.0
C240 C -0.00174 0.21508 0.97914 0.0
O241 O -0.00757 0.18945 0.94848 0.0
O242 O 0.01934 0.19941 1.00957 0.0
C243 C 0.91784 0.10215 0.89264 0.0
O244 O 0.90024 0.09937 0.92845 0.0
C245 C 0.07218 0.14534 0.09524 0.0
C246 C 0.14667 0.12477 0.10395 0.0
C247 C 0.10478 0.13319 0.12388 0.0
N248 N 0.0935 0.14363 0.05976 0.0
N249 N 0.13837 0.13235 0.06524 0.0
C250 C 0.02025 0.15246 0.10096 0.0
H251 H 0.00064 0.14331 0.07367 0.0
H252 H 0.00709 0.13089 0.12603 0.0
H253 H 0.01362 0.19021 0.10785 0.0
C254 C 0.98239 0.03434 0.97639 0.0
N255 N -0.00175 0.07904 0.97586 0.0
N256 N 0.02489 0.08658 1.00682 0.0
C257 C 0.02669 0.04681 0.02854 0.0
C258 C -0.00454 0.01373 1.01233 0.0
C259 C 0.97372 0.00836 0.93843 0.0
H260 H -0.00578 0.02499 0.91423 0.0
H261 H 0.9359 0.01048 0.93021 0.0
H262 H 0.98505 0.97093 0.94047 0.0
O263 O 0.06845 0.11586 0.91437 0.0
O264 O 0.10352 0.15464 0.96317 0.0
H265 H 0.07764 -0.00325 0.05166 0.0
H266 H 0.06536 0.04733 0.08317 0.0
C267 C 0.06978 0.03509 0.05234 0.0
H268 H 0.10093 0.05315 0.03957 0.0
H269 H 0.16249 0.12677 0.04241 0.0
O270 O 0.9623 0.10543 0.8888 0.0
C271 C 0.10257 0.14028 0.92737 0.0
Co272 Co 0.87096 0.75447 0.68382 0.0
Co273 Co 0.89354 0.81087 0.76013 0.0
C274 C 0.96512 0.74833 0.72913 0.0
O275 O 0.93949 0.74251 0.69846 0.0
O276 O 0.94944 0.76939 0.75957 0.0
C277 C 0.85219 0.66784 0.64266 0.0
O278 O 0.84941 0.65025 0.67847 0.0
C279 C 0.89543 0.82227 0.84523 0.0
C280 C 0.87481 0.89674 0.85392 0.0
C281 C 0.88333 0.85488 0.87388 0.0
N282 N 0.89365 0.84355 0.80975 0.0
N283 N 0.88234 0.88841 0.81521 0.0
C284 C 0.90258 0.77034 0.85098 0.0
H285 H 0.89339 0.7507 0.82371 0.0
H286 H 0.88107 0.75719 0.87608 0.0
H287 H 0.94035 0.76373 0.85782 0.0
C288 C 0.78438 0.73237 0.7264 0.0
N289 N 0.82909 0.74824 0.72587 0.0
N290 N 0.83661 0.77489 0.75683 0.0
C291 C 0.79685 0.77668 0.77856 0.0
C292 C 0.76378 0.74545 0.76234 0.0
C293 C 0.7584 0.72372 0.68844 0.0
H294 H 0.77503 0.74424 0.66425 0.0
H295 H 0.76051 0.68591 0.68021 0.0
H296 H 0.72098 0.73506 0.69048 0.0
O297 O 0.86578 0.81847 0.66438 0.0
O298 O 0.90463 0.85354 0.71315 0.0
H299 H 0.74678 0.82761 0.80169 0.0
H300 H 0.79739 0.81535 0.83318 0.0
C301 C 0.78513 0.81976 0.80236 0.0
H302 H 0.80317 0.85092 0.78958 0.0
H303 H 0.8767 0.9125 0.79237 0.0
O304 O 0.85547 0.7123 0.63881 0.0
C305 C 0.89021 0.85259 0.67737 0.0
Co306 Co 0.97465 0.12094 0.43382 0.0
Co307 Co 0.91825 0.14353 0.51013 0.0
C308 C 0.98085 0.21508 0.47914 0.0
O309 O 0.98668 0.18945 0.44848 0.0
O310 O 0.95976 0.19941 0.50957 0.0
C311 C 0.06126 0.10208 0.39264 0.0
O312 O 0.07893 0.0993 0.42843 0.0
C313 C 0.90686 0.14541 0.59523 0.0
C314 C 0.83237 0.12485 0.60392 0.0
C315 C 0.87423 0.13334 0.62388 0.0
N316 N 0.88557 0.14366 0.55974 0.0
N317 N 0.8407 0.13238 0.5652 0.0
C318 C 0.95878 0.15252 0.60098 0.0
H319 H 0.97842 0.14333 0.57371 0.0
H320 H 0.97192 0.13098 0.62607 0.0
H321 H 0.96542 0.19028 0.60784 0.0
C322 C -0.00336 0.03431 0.47638 0.0
N323 N 0.98082 0.07903 0.47586 0.0
N324 N 0.95418 0.08657 0.50683 0.0
C325 C 0.95235 0.0468 0.52853 0.0
C326 C 0.98352 0.01369 0.5123 0.0
C327 C 0.00527 0.00834 0.43841 0.0
H328 H 0.98475 0.02498 0.41422 0.0
H329 H 0.04309 0.01046 0.43016 0.0
H330 H -0.00606 0.97092 0.44044 0.0
O331 O 0.91066 0.11587 0.41436 0.0
O332 O 0.87558 0.15465 0.46316 0.0
H333 H 0.90138 -0.00323 0.55167 0.0
H334 H 0.91367 0.04737 0.58316 0.0
C335 C 0.90925 0.03511 0.55233 0.0
H336 H 0.87811 0.05317 0.53955 0.0
H337 H 0.8166 0.12676 0.54237 0.0
O338 O 0.0168 0.10539 0.38881 0.0
C339 C 0.87654 0.14029 0.42736 0.0
Co340 Co 0.60814 0.22463 0.18382 0.0
Co341 Co 0.58557 0.16824 0.26013 0.0
C342 C 0.51399 0.23077 0.22913 0.0
O343 O 0.53961 0.23659 0.19846 0.0
O344 O 0.52966 0.20971 0.25957 0.0
C345 C 0.62692 0.31126 0.14266 0.0
O346 O 0.6297 0.32885 0.17847 0.0
C347 C 0.58368 0.15684 0.34523 0.0
C348 C 0.6043 0.08237 0.35392 0.0
C349 C 0.59577 0.12422 0.37388 0.0
N350 N 0.58546 0.13556 0.30975 0.0
N351 N 0.59677 0.09069 0.31521 0.0
C352 C 0.57652 0.20876 0.35098 0.0
H353 H 0.58572 0.2284 0.32371 0.0
H354 H 0.59804 0.22192 0.37608 0.0
H355 H 0.53876 0.21537 0.35782 0.0
C356 C 0.69473 0.24673 0.2264 0.0
N357 N 0.65002 0.23086 0.22587 0.0
N358 N 0.64249 0.20422 0.25683 0.0
C359 C 0.68225 0.20243 0.27856 0.0
C360 C 0.71533 0.23366 0.26234 0.0
C361 C 0.72071 0.25538 0.18844 0.0
H362 H 0.70408 0.23487 0.16425 0.0
H363 H 0.71859 0.2932 0.18021 0.0
H364 H 0.75813 0.24405 0.19048 0.0
O365 O 0.61332 0.16064 0.16438 0.0
O366 O 0.57447 0.12556 0.21315 0.0
H367 H 0.73233 0.1515 0.30169 0.0
H368 H 0.68172 0.16376 0.33318 0.0
C369 C 0.69398 0.15935 0.30236 0.0
H370 H 0.67594 0.12819 0.28958 0.0
H371 H 0.60241 0.0666 0.29237 0.0
O372 O 0.62364 0.2668 0.13881 0.0
C373 C 0.5889 0.12652 0.17737 0.0
Co374 Co 0.50446 0.85817 0.93382 0.0
Co375 Co 0.56085 0.83558 1.01013 0.0
C376 C 0.49826 0.76403 0.97914 0.0
O377 O 0.49243 0.78966 0.94848 0.0
O378 O 0.51935 0.77969 1.00957 0.0
C379 C 0.41785 0.87702 0.89264 0.0
O380 O 0.40018 0.87981 0.92843 0.0
C381 C 0.57225 0.83369 0.09523 0.0
C382 C 0.64674 0.85426 0.10392 0.0
C383 C 0.60488 0.84577 0.12388 0.0
N384 N 0.59353 0.83545 0.05974 0.0
N385 N 0.63841 0.84673 0.0652 0.0
C386 C 0.52032 0.82658 0.10098 0.0
H387 H 0.50069 0.83578 0.07371 0.0
H388 H 0.50719 0.84812 0.12607 0.0
H389 H 0.51369 0.78882 0.10784 0.0
C390 C 0.48247 0.94479 0.97638 0.0
N391 N 0.49829 0.90007 0.97586 0.0
N392 N 0.52492 0.89253 1.00683 0.0
C393 C 0.52676 0.9323 0.02853 0.0
C394 C 0.49558 0.96541 1.0123 0.0
C395 C 0.47383 0.97076 0.93841 0.0
H396 H 0.49436 0.95412 0.91422 0.0
H397 H 0.43602 0.96865 0.93016 0.0
H398 H 0.48517 0.00819 0.94044 0.0
O399 O 0.56845 0.86324 0.91436 0.0
O400 O 0.60353 0.82446 0.96316 0.0
H401 H 0.57773 0.98234 0.05167 0.0
H402 H 0.56543 0.93173 0.08316 0.0
C403 C 0.56985 0.94399 0.05233 0.0
H404 H 0.601 0.92593 0.03955 0.0
H405 H 0.6625 0.85235 0.04237 0.0
O406 O 0.46231 0.87371 0.88881 0.0
C407 C 0.60257 0.83881 0.92736 0.0
Co408 Co 0.87097 0.22463 0.85607 0.0
Co409 Co 0.89354 0.16824 0.77974 0.0
C410 C 0.96512 0.23077 0.81075 0.0
O411 O 0.93949 0.23659 0.84142 0.0
O412 O 0.94944 0.20972 0.78031 0.0
C413 C 0.85219 0.31125 0.89724 0.0
O414 O 0.8494 0.32885 0.86142 0.0
C415 C 0.89536 0.15691 0.69464 0.0
C416 C 0.87478 0.08243 0.68592 0.0
C417 C 0.88321 0.12432 0.66599 0.0
N418 N 0.89364 0.13559 0.73012 0.0
N419 N 0.88235 0.09072 0.72463 0.0
C420 C 0.9025 0.20883 0.68893 0.0
H421 H 0.89336 0.22845 0.71622 0.0
H422 H 0.88094 0.22201 0.66386 0.0
H423 H 0.94025 0.21546 0.68204 0.0
C424 C 0.78438 0.24674 0.81348 0.0
N425 N 0.82909 0.23086 0.81401 0.0
N426 N 0.83661 0.20422 0.78305 0.0
C427 C 0.79685 0.20242 0.76133 0.0
C428 C 0.76378 0.23366 0.77754 0.0
C429 C 0.7584 0.2554 0.85144 0.0
H430 H 0.77503 0.23489 0.87564 0.0
H431 H 0.76051 0.29322 0.85966 0.0
H432 H 0.72098 0.24406 0.8494 0.0
O433 O 0.86579 0.16063 0.87549 0.0
O434 O 0.90464 0.12556 0.82672 0.0
H435 H 0.74677 0.15148 0.73823 0.0
H436 H 0.79735 0.16375 0.70671 0.0
C437 C 0.78512 0.15933 0.73754 0.0
H438 H 0.80317 0.12818 0.75031 0.0
H439 H 0.87676 0.0666 0.74746 0.0
O440 O 0.85548 0.26679 0.90108 0.0
C441 C 0.89021 0.12651 0.8625 0.0
Co442 Co 0.50446 0.12094 0.60606 0.0
Co443 Co 0.56085 0.14353 0.52974 0.0
C444 C 0.49826 0.21508 0.56074 0.0
O445 O 0.49243 0.18945 0.5914 0.0
O446 O 0.51935 0.19941 0.53031 0.0
C447 C 0.41786 0.10208 0.64725 0.0
O448 O 0.40018 0.09928 0.61146 0.0
C449 C 0.57219 0.14534 0.44464 0.0
C450 C 0.64668 0.12482 0.43592 0.0
C451 C 0.60478 0.13321 0.41599 0.0
N452 N 0.59351 0.14365 0.48012 0.0
N453 N 0.63838 0.13239 0.47464 0.0
C454 C 0.52025 0.15244 0.43892 0.0
H455 H 0.50064 0.1433 0.46622 0.0
H456 H 0.50709 0.13085 0.41387 0.0
H457 H 0.5136 0.19019 0.43202 0.0
C458 C 0.48246 0.03431 0.56351 0.0
N459 N 0.49829 0.07903 0.56402 0.0
N460 N 0.52493 0.08657 0.53306 0.0
C461 C 0.52676 0.0468 0.51135 0.0
C462 C 0.49558 0.01369 0.52759 0.0
C463 C 0.47382 0.00835 0.60148 0.0
H464 H 0.49434 0.02498 0.62566 0.0
H465 H 0.43601 0.01046 0.60971 0.0
H466 H 0.48516 0.97092 0.59944 0.0
O467 O 0.56846 0.11588 0.62551 0.0
O468 O 0.60354 0.15465 0.57671 0.0
H469 H 0.57774 -0.00324 0.48825 0.0
H470 H 0.56545 0.04734 0.45674 0.0
C471 C 0.56986 0.0351 0.48756 0.0
H472 H 0.601 0.05317 0.50034 0.0
H473 H 0.66251 0.12682 0.49746 0.0
O474 O 0.46232 0.1054 0.65108 0.0
C475 C 0.60258 0.1403 0.61251 0.0
Co476 Co 0.60814 0.75448 0.35607 0.0
Co477 Co 0.58557 0.81087 0.27974 0.0
C478 C 0.51399 0.74833 0.31075 0.0
O479 O 0.53961 0.74251 0.34142 0.0
O480 O 0.52967 0.76939 0.28031 0.0
C481 C 0.62692 0.66785 0.39724 0.0
O482 O 0.62971 0.65026 0.36142 0.0
C483 C 0.58374 0.8222 0.19464 0.0
C484 C 0.60433 0.89668 0.18592 0.0
C485 C 0.5959 0.85479 0.16599 0.0
N486 N 0.58546 0.84352 0.23012 0.0
N487 N 0.59675 0.88839 0.22463 0.0
C488 C 0.57661 0.77027 0.18893 0.0
H489 H 0.58575 0.75066 0.21622 0.0
H490 H 0.59817 0.7571 0.16386 0.0
H491 H 0.53885 0.76365 0.18204 0.0
C492 C 0.69472 0.73237 0.31348 0.0
N493 N 0.65002 0.74824 0.31401 0.0
N494 N 0.64249 0.77489 0.28305 0.0
C495 C 0.68226 0.77668 0.26133 0.0
C496 C 0.71533 0.74545 0.27754 0.0
C497 C 0.7207 0.72371 0.35144 0.0
H498 H 0.70408 0.74422 0.37564 0.0
H499 H 0.71859 0.68589 0.35966 0.0
H500 H 0.75813 0.73505 0.3494 0.0
O501 O 0.61332 0.81847 0.37549 0.0
O502 O 0.57447 0.85355 0.32672 0.0
H503 H 0.73234 0.82762 0.23823 0.0
H504 H 0.68175 0.81536 0.20671 0.0
C505 C 0.69399 0.81977 0.23754 0.0
H506 H 0.67594 0.85093 0.25031 0.0
H507 H 0.60234 0.91251 0.24746 0.0
O508 O 0.62363 0.71231 0.40108 0.0
C509 C 0.58889 0.85259 0.3625 0.0
Co510 Co 0.97465 0.85816 0.10606 0.0
Co511 Co 0.91825 0.83558 0.02974 0.0
C512 C 0.98085 0.76403 0.06074 0.0
O513 O 0.98668 0.78966 0.0914 0.0
O514 O 0.95976 0.7797 0.03031 0.0
C515 C 0.06125 0.87703 0.14725 0.0
O516 O 0.07893 0.87982 0.11146 0.0
C517 C 0.90692 0.83376 0.94464 0.0
C518 C 0.83243 0.85429 0.93592 0.0
C519 C 0.87433 0.84589 0.91599 0.0
N520 N 0.8856 0.83546 0.98012 0.0
N521 N 0.84073 0.84671 0.97464 0.0
C522 C 0.95886 0.82666 0.93892 0.0
H523 H 0.97846 0.83581 0.96622 0.0
H524 H 0.97202 0.84825 0.91387 0.0
H525 H 0.9655 0.78892 0.93202 0.0
C526 C -0.00335 0.94479 0.06351 0.0
N527 N 0.98082 0.90007 0.06402 0.0
N528 N 0.95418 0.89253 0.03306 0.0
C529 C 0.95234 0.93231 1.01135 0.0
C530 C 0.98352 0.96541 0.02759 0.0
C531 C 0.00529 0.97076 0.10148 0.0
H532 H 0.98477 0.95412 0.12566 0.0
H533 H 0.0431 0.96865 0.10971 0.0
H534 H -0.00605 0.00819 0.09944 0.0
O535 O 0.91065 0.86323 0.12551 0.0
O536 O 0.87557 0.82445 0.07671 0.0
H537 H 0.90137 0.98235 0.98825 0.0
H538 H 0.91366 0.93177 0.95674 0.0
C539 C 0.90924 0.94401 0.98756 0.0
H540 H 0.8781 0.92593 1.00034 0.0
H541 H 0.8166 0.85228 0.99746 0.0
O542 O 0.01679 0.87371 0.15108 0.0
C543 C 0.87653 0.83881 0.11251 0.0
Co544 Co 0.6082 0.72464 0.85607 0.0
Co545 Co 0.58561 0.66825 0.77975 0.0
C546 C 0.51407 0.73085 0.81073 0.0
O547 O 0.53969 0.73667 0.8414 0.0
O548 O 0.52974 0.70977 0.7803 0.0
C549 C 0.62703 0.81125 0.89724 0.0
O550 O 0.62982 0.82892 0.86145 0.0
C551 C 0.58373 0.65684 0.69465 0.0
C552 C 0.60429 0.58235 0.68597 0.0
C553 C 0.5958 0.62421 0.66601 0.0
N554 N 0.58549 0.63556 0.73014 0.0
N555 N 0.59676 0.59069 0.72469 0.0
C556 C 0.57661 0.70876 0.6889 0.0
H557 H 0.58583 0.7284 0.71616 0.0
H558 H 0.59813 0.7219 0.66379 0.0
H559 H 0.53885 0.7154 0.68207 0.0
C560 C 0.69483 0.74663 0.81352 0.0
N561 N 0.65011 0.7308 0.81403 0.0
N562 N 0.64257 0.70417 0.78306 0.0
C563 C 0.68234 0.70233 0.76136 0.0
C564 C 0.71545 0.7335 0.7776 0.0
C565 C 0.7208 0.75526 0.85149 0.0
H566 H 0.70416 0.73474 0.87567 0.0
H567 H 0.71867 0.79308 0.85973 0.0
H568 H 0.75822 0.74394 0.84946 0.0
O569 O 0.61327 0.66065 0.87552 0.0
O570 O 0.57446 0.62559 0.82673 0.0
H571 H 0.73237 0.65136 0.73822 0.0
H572 H 0.68177 0.66366 0.70673 0.0
C573 C 0.69403 0.65924 0.73755 0.0
H574 H 0.67597 0.6281 0.75034 0.0
H575 H 0.60239 0.56659 0.74752 0.0
O576 O 0.62374 0.76679 0.90107 0.0
C577 C 0.58882 0.62654 0.86253 0.0
Co578 Co 0.50449 0.35817 0.10607 0.0
Co579 Co 0.56087 0.3356 0.02975 0.0
C580 C 0.49833 0.26403 0.06074 0.0
O581 O 0.49252 0.28965 0.09141 0.0
O582 O 0.51938 0.27971 0.0303 0.0
C583 C 0.41785 0.37692 0.14723 0.0
O584 O 0.40026 0.37971 0.11141 0.0
C585 C 0.57228 0.33371 0.94465 0.0
C586 C 0.64675 0.35433 0.93597 0.0
C587 C 0.60491 0.3458 0.91601 0.0
N588 N 0.59356 0.33549 0.98014 0.0
N589 N 0.63842 0.3468 0.97468 0.0
C590 C 0.52036 0.32655 0.9389 0.0
H591 H 0.50071 0.33577 0.96616 0.0
H592 H 0.50722 0.34805 0.91378 0.0
H593 H 0.51375 0.28878 0.93208 0.0
C594 C 0.48239 0.44476 0.06349 0.0
N595 N 0.49826 0.40006 0.06402 0.0
N596 N 0.5249 0.39253 0.03306 0.0
C597 C 0.52669 0.43229 1.01134 0.0
C598 C 0.49547 0.46537 0.02755 0.0
C599 C 0.47373 0.47074 0.10145 0.0
H600 H 0.49425 0.45411 0.12565 0.0
H601 H 0.43592 0.46862 0.10968 0.0
H602 H 0.48506 0.50816 0.09942 0.0
O603 O 0.56848 0.36335 0.1255 0.0
O604 O 0.60353 0.32448 0.07674 0.0
H605 H 0.57762 0.48236 0.9882 0.0
H606 H 0.56535 0.43176 0.95671 0.0
C607 C 0.56977 0.44402 0.98753 0.0
H608 H 0.60093 0.42597 1.00031 0.0
H609 H 0.66251 0.35245 0.99752 0.0
O610 O 0.46231 0.37366 0.15108 0.0
C611 C 0.60258 0.3389 0.11251 0.0
Co612 Co 0.87091 0.25447 0.35607 0.0
Co613 Co 0.8935 0.31086 0.27975 0.0
C614 C 0.96503 0.24826 0.31073 0.0
O615 O 0.93941 0.24244 0.3414 0.0
O616 O 0.94937 0.26934 0.2803 0.0
C617 C 0.85207 0.16786 0.39724 0.0
O618 O 0.84928 0.15019 0.36145 0.0
C619 C 0.89538 0.32227 0.19465 0.0
C620 C 0.87482 0.39675 0.18597 0.0
C621 C 0.88331 0.3549 0.16601 0.0
N622 N 0.89362 0.34354 0.23014 0.0
N623 N 0.88234 0.38842 0.22469 0.0
C624 C 0.9025 0.27034 0.1889 0.0
H625 H 0.89328 0.2507 0.21616 0.0
H626 H 0.88098 0.25721 0.16379 0.0
H627 H 0.94026 0.2637 0.18207 0.0
C628 C 0.78427 0.23248 0.31352 0.0
N629 N 0.829 0.2483 0.31403 0.0
N630 N 0.83654 0.27494 0.28306 0.0
C631 C 0.79676 0.27677 0.26136 0.0
C632 C 0.76365 0.2456 0.2776 0.0
C633 C 0.75831 0.22384 0.35149 0.0
H634 H 0.77495 0.24437 0.37567 0.0
H635 H 0.76044 0.18603 0.35973 0.0
H636 H 0.72088 0.23517 0.34946 0.0
O637 O 0.86584 0.31846 0.37552 0.0
O638 O 0.90465 0.35352 0.32673 0.0
H639 H 0.74673 0.32774 0.23822 0.0
H640 H 0.79734 0.31544 0.20673 0.0
C641 C 0.78507 0.31987 0.23755 0.0
H642 H 0.80314 0.35101 0.25034 0.0
H643 H 0.87672 0.41251 0.24752 0.0
O644 O 0.85537 0.21232 0.40107 0.0
C645 C 0.89029 0.35256 0.36253 0.0
Co646 Co 0.97462 0.62093 0.60607 0.0
Co647 Co 0.91823 0.64351 0.52975 0.0
C648 C 0.98078 0.71508 0.56074 0.0
O649 O 0.98659 0.68946 0.59141 0.0
O650 O 0.95972 0.6994 0.5303 0.0
C651 C 0.06125 0.60218 0.64723 0.0
O652 O 0.07884 0.59939 0.61141 0.0
C653 C 0.90682 0.6454 0.44465 0.0
C654 C 0.83235 0.62478 0.43597 0.0
C655 C 0.8742 0.6333 0.41601 0.0
N656 N 0.88555 0.64362 0.48014 0.0
N657 N 0.84068 0.6323 0.47468 0.0
C658 C 0.95875 0.65255 0.4389 0.0
H659 H 0.97839 0.64333 0.46616 0.0
H660 H 0.97189 0.63106 0.41378 0.0
H661 H 0.96535 0.69033 0.43208 0.0
C662 C -0.00328 0.53434 0.56349 0.0
N663 N 0.98085 0.57905 0.56402 0.0
N664 N 0.95421 0.58657 0.53306 0.0
C665 C 0.95241 0.54681 0.51134 0.0
C666 C 0.98364 0.51373 0.52755 0.0
C667 C 0.00538 0.50837 0.60145 0.0
H668 H 0.98486 0.525 0.62565 0.0
H669 H 0.04319 0.51049 0.60968 0.0
H670 H -0.00596 0.47094 0.59942 0.0
O671 O 0.91063 0.61575 0.6255 0.0
O672 O 0.87557 0.65463 0.57674 0.0
H673 H 0.90148 0.49674 0.4882 0.0
H674 H 0.91375 0.54735 0.45671 0.0
C675 C 0.90933 0.53509 0.48753 0.0
H676 H 0.87817 0.55313 0.50031 0.0
H677 H 0.81659 0.62666 0.49752 0.0
O678 O 0.01679 0.60544 0.65108 0.0
C679 C 0.87652 0.6402 0.61251 0.0
Co680 Co 0.6082 0.25447 0.68382 0.0
Co681 Co 0.58561 0.31086 0.76014 0.0
C682 C 0.51407 0.24825 0.72916 0.0
O683 O 0.53969 0.24244 0.69849 0.0
O684 O 0.52974 0.26933 0.75959 0.0
C685 C 0.62704 0.16786 0.64263 0.0
O686 O 0.62984 0.15019 0.67842 0.0
C687 C 0.58379 0.3222 0.84524 0.0
C688 C 0.60432 0.39669 0.85396 0.0
C689 C 0.59592 0.3548 0.87389 0.0
N690 N 0.58549 0.34352 0.80976 0.0
N691 N 0.59675 0.38839 0.81524 0.0
C692 C 0.57669 0.27027 0.85097 0.0
H693 H 0.58586 0.25066 0.82368 0.0
H694 H 0.59826 0.25711 0.87604 0.0
H695 H 0.53894 0.26362 0.85785 0.0
C696 C 0.69483 0.23248 0.72637 0.0
N697 N 0.65011 0.2483 0.72586 0.0
N698 N 0.64257 0.27494 0.75682 0.0
C699 C 0.68235 0.27678 0.77852 0.0
C700 C 0.71545 0.2456 0.76229 0.0
C701 C 0.72079 0.22383 0.6884 0.0
H702 H 0.70416 0.24435 0.66421 0.0
H703 H 0.71867 0.18601 0.68017 0.0
H704 H 0.75822 0.23516 0.69043 0.0
O705 O 0.61326 0.31847 0.66438 0.0
O706 O 0.57445 0.35353 0.71316 0.0
H707 H 0.73239 0.32776 0.80163 0.0
H708 H 0.68181 0.31546 0.83314 0.0
C709 C 0.69404 0.31988 0.80231 0.0
H710 H 0.67597 0.35102 0.78954 0.0
H711 H 0.60232 0.41251 0.79242 0.0
O712 O 0.62374 0.21232 0.6388 0.0
C713 C 0.58881 0.35257 0.67737 0.0
Co714 Co 0.97462 0.35817 0.93382 0.0
Co715 Co 0.91824 0.3356 1.01014 0.0
C716 C 0.98078 0.26403 0.97915 0.0
O717 O 0.98659 0.28965 0.94847 0.0
O718 O 0.95973 0.27971 1.00959 0.0
C719 C 0.06124 0.37693 0.89264 0.0
O720 O 0.07884 0.37972 0.92846 0.0
C721 C 0.90689 0.33378 0.09524 0.0
C722 C 0.83241 0.35436 0.10396 0.0
C723 C 0.8743 0.34593 0.12389 0.0
N724 N 0.88558 0.3355 0.05977 0.0
N725 N 0.84071 0.34679 0.06524 0.0
C726 C 0.95882 0.32663 0.10097 0.0
H727 H 0.97844 0.3358 0.07368 0.0
H728 H 0.97199 0.34818 0.12604 0.0
H729 H 0.96544 0.28888 0.10783 0.0
C730 C -0.00328 0.44476 0.9764 0.0
N731 N 0.98085 0.40006 0.97587 0.0
N732 N 0.9542 0.39253 1.00683 0.0
C733 C 0.95241 0.4323 0.02854 0.0
C734 C 0.98364 0.46537 1.01233 0.0
C735 C 0.00539 0.47074 0.93843 0.0
H736 H 0.98488 0.45411 0.91423 0.0
H737 H 0.04321 0.46862 0.93021 0.0
H738 H -0.00595 0.50816 0.94047 0.0
O739 O 0.91062 0.36335 0.91439 0.0
O740 O 0.87557 0.32447 0.96316 0.0
H741 H 0.90147 0.48237 0.05165 0.0
H742 H 0.91374 0.43179 0.08317 0.0
C743 C 0.90932 0.44403 0.05234 0.0
H744 H 0.87817 0.42597 0.03957 0.0
H745 H 0.81659 0.35238 0.04242 0.0
O746 O 0.01678 0.37366 0.8888 0.0
C747 C 0.87652 0.3389 0.92738 0.0
Co748 Co 0.87091 0.72464 0.18382 0.0
Co749 Co 0.8935 0.66825 0.26014 0.0
C750 C 0.96503 0.73085 0.22916 0.0
O751 O 0.93941 0.73667 0.19849 0.0
O752 O 0.94937 0.70977 0.25959 0.0
C753 C 0.85207 0.81124 0.14263 0.0
O754 O 0.84927 0.82891 0.17842 0.0
C755 C 0.89531 0.6569 0.34524 0.0
C756 C 0.87478 0.58241 0.35396 0.0
C757 C 0.88318 0.6243 0.37389 0.0
N758 N 0.89361 0.63559 0.30976 0.0
N759 N 0.88236 0.59071 0.31524 0.0
C760 C 0.90241 0.70884 0.35097 0.0
H761 H 0.89325 0.72845 0.32368 0.0
H762 H 0.88085 0.72199 0.37604 0.0
H763 H 0.94016 0.71548 0.35785 0.0
C764 C 0.78428 0.74663 0.22637 0.0
N765 N 0.829 0.73081 0.22586 0.0
N766 N 0.83653 0.70417 0.25682 0.0
C767 C 0.79676 0.70233 0.27852 0.0
C768 C 0.76365 0.7335 0.26229 0.0
C769 C 0.75831 0.75528 0.1884 0.0
H770 H 0.77495 0.73476 0.16421 0.0
H771 H 0.76044 0.79309 0.18017 0.0
H772 H 0.72089 0.74395 0.19043 0.0
O773 O 0.86585 0.66064 0.16438 0.0
O774 O 0.90465 0.62558 0.21316 0.0
H775 H 0.74672 0.65135 0.30163 0.0
H776 H 0.7973 0.66365 0.33314 0.0
C777 C 0.78506 0.65923 0.30231 0.0
H778 H 0.80314 0.62809 0.28954 0.0
H779 H 0.87679 0.56659 0.29242 0.0
O780 O 0.85537 0.76678 0.1388 0.0
C781 C 0.8903 0.62654 0.17737 0.0
Co782 Co 0.50449 0.62093 0.43382 0.0
Co783 Co 0.56087 0.64351 0.51014 0.0
C784 C 0.49833 0.71508 0.47915 0.0
O785 O 0.49252 0.68946 0.44847 0.0
O786 O 0.51938 0.6994 0.50959 0.0
C787 C 0.41786 0.60218 0.39264 0.0
O788 O 0.40027 0.59938 0.42846 0.0
C789 C 0.57222 0.64533 0.59524 0.0
C790 C 0.64669 0.62474 0.60396 0.0
C791 C 0.60481 0.63318 0.62389 0.0
N792 N 0.59353 0.64361 0.55977 0.0
N793 N 0.6384 0.63232 0.56524 0.0
C794 C 0.52029 0.65247 0.60097 0.0
H795 H 0.50067 0.6433 0.57368 0.0
H796 H 0.50712 0.63093 0.62604 0.0
H797 H 0.51367 0.69023 0.60783 0.0
C798 C 0.48239 0.53434 0.4764 0.0
N799 N 0.49826 0.57905 0.47587 0.0
N800 N 0.5249 0.58657 0.50683 0.0
C801 C 0.5267 0.54681 0.52854 0.0
C802 C 0.49546 0.51373 0.51233 0.0
C803 C 0.47372 0.50837 0.43843 0.0
H804 H 0.49423 0.525 0.41423 0.0
H805 H 0.4359 0.51049 0.43021 0.0
H806 H 0.48505 0.47094 0.44047 0.0
O807 O 0.56849 0.61576 0.41439 0.0
O808 O 0.60354 0.65463 0.46316 0.0
H809 H 0.57764 0.49673 0.55165 0.0
H810 H 0.56537 0.54732 0.58317 0.0
C811 C 0.56978 0.53508 0.55234 0.0
H812 H 0.60094 0.55313 0.53957 0.0
H813 H 0.66252 0.62673 0.54242 0.0
O814 O 0.46232 0.60545 0.3888 0.0
C815 C 0.60259 0.64021 0.42738 0.0
Co816 Co 0.3709 0.25446 0.18381 0.0
Co817 Co 0.3935 0.31085 0.26012 0.0
C818 C 0.46504 0.24826 0.22913 0.0
O819 O 0.43941 0.24244 0.19846 0.0
O820 O 0.44937 0.26933 0.25956 0.0
C821 C 0.35208 0.16784 0.14264 0.0
O822 O 0.3493 0.15018 0.17844 0.0
C823 C 0.39538 0.32225 0.34523 0.0
C824 C 0.37482 0.39674 0.35391 0.0
C825 C 0.38331 0.35488 0.37387 0.0
N826 N 0.39362 0.34353 0.30974 0.0
N827 N 0.38235 0.3884 0.3152 0.0
C828 C 0.40249 0.27032 0.35097 0.0
H829 H 0.3933 0.25069 0.3237 0.0
H830 H 0.38095 0.25719 0.37607 0.0
H831 H 0.44025 0.26369 0.35784 0.0
C832 C 0.28428 0.23245 0.22637 0.0
N833 N 0.329 0.24828 0.22585 0.0
N834 N 0.33654 0.27492 0.25682 0.0
C835 C 0.29677 0.27675 0.27852 0.0
C836 C 0.26366 0.24557 0.26229 0.0
C837 C 0.25831 0.22382 0.1884 0.0
H838 H 0.27495 0.24435 0.16421 0.0
H839 H 0.26044 0.18601 0.18015 0.0
H840 H 0.22089 0.23515 0.19043 0.0
O841 O 0.36579 0.31845 0.16436 0.0
O842 O 0.40463 0.35352 0.21314 0.0
H843 H 0.24674 0.32772 0.30166 0.0
H844 H 0.29734 0.31542 0.33315 0.0
C845 C 0.28508 0.31984 0.30233 0.0
H846 H 0.30314 0.35099 0.28955 0.0
H847 H 0.37673 0.4125 0.29236 0.0
O848 O 0.35536 0.2123 0.1388 0.0
C849 C 0.39022 0.35256 0.17736 0.0
Co850 Co 0.47461 0.62093 0.93382 0.0
Co851 Co 0.41822 0.64352 1.01014 0.0
C852 C 0.48078 0.71508 0.97914 0.0
O853 O 0.48659 0.68945 0.94847 0.0
O854 O 0.45972 0.6994 1.00958 0.0
C855 C 0.56124 0.60211 0.89265 0.0
O856 O 0.5789 0.59931 0.92844 0.0
C857 C 0.40682 0.6454 0.09524 0.0
C858 C 0.33234 0.62483 0.10393 0.0
C859 C 0.3742 0.63333 0.12388 0.0
N860 N 0.38554 0.64364 0.05975 0.0
N861 N 0.34067 0.63235 0.06521 0.0
C862 C 0.45875 0.65254 0.10098 0.0
H863 H 0.47839 0.64332 0.07372 0.0
H864 H 0.47189 0.63102 0.12609 0.0
H865 H 0.46538 0.6903 0.10782 0.0
C866 C 0.49664 0.53432 0.97638 0.0
N867 N 0.48082 0.57904 0.97587 0.0
N868 N 0.45417 0.58657 1.00683 0.0
C869 C 0.45234 0.5468 0.02854 0.0
C870 C 0.48352 0.51369 1.0123 0.0
C871 C 0.50527 0.50835 0.93841 0.0
H872 H 0.48474 0.52499 0.91423 0.0
H873 H 0.54308 0.51047 0.93016 0.0
H874 H 0.49394 0.47093 0.94044 0.0
O875 O 0.41062 0.61577 0.91439 0.0
O876 O 0.37556 0.65464 0.96315 0.0
H877 H 0.40138 0.49676 0.05167 0.0
H878 H 0.41366 0.54736 0.08316 0.0
C879 C 0.40925 0.5351 0.05233 0.0
H880 H 0.3781 0.55316 0.03955 0.0
H881 H 0.31657 0.62672 0.04238 0.0
O882 O 0.51678 0.60541 0.88881 0.0
C883 C 0.37651 0.64022 0.92737 0.0
Co884 Co 0.10821 0.72465 0.68381 0.0
Co885 Co 0.08561 0.66826 0.76012 0.0
C886 C 0.01407 0.73085 0.72913 0.0
O887 O 0.0397 0.73666 0.69846 0.0
O888 O 0.02974 0.70977 0.75956 0.0
C889 C 0.12703 0.81127 0.64264 0.0
O890 O 0.12981 0.82893 0.67844 0.0
C891 C 0.08373 0.65686 0.84523 0.0
C892 C 0.10429 0.58237 0.85391 0.0
C893 C 0.0958 0.62423 0.87387 0.0
N894 N 0.08548 0.63558 0.80974 0.0
N895 N 0.09676 0.5907 0.8152 0.0
C896 C 0.07662 0.70878 0.85097 0.0
H897 H 0.08581 0.72842 0.8237 0.0
H898 H 0.09816 0.72192 0.87607 0.0
H899 H 0.03886 0.71542 0.85784 0.0
C900 C 0.19483 0.74665 0.72637 0.0
N901 N 0.15011 0.73083 0.72585 0.0
N902 N 0.14257 0.70419 0.75682 0.0
C903 C 0.18234 0.70235 0.77852 0.0
C904 C 0.21545 0.73353 0.76229 0.0
C905 C 0.22079 0.75529 0.6884 0.0
H906 H 0.20416 0.73476 0.66421 0.0
H907 H 0.21867 0.7931 0.68015 0.0
H908 H 0.25822 0.74396 0.69043 0.0
O909 O 0.11332 0.66065 0.66436 0.0
O910 O 0.07448 0.62559 0.71314 0.0
H911 H 0.23237 0.65139 0.80166 0.0
H912 H 0.18177 0.66369 0.83315 0.0
C913 C 0.19403 0.65926 0.80233 0.0
H914 H 0.17597 0.62812 0.78955 0.0
H915 H 0.10238 0.56661 0.79236 0.0
O916 O 0.12375 0.76681 0.6388 0.0
C917 C 0.08889 0.62654 0.67736 0.0
Co918 Co 0.0045 0.35818 0.43382 0.0
Co919 Co 0.06089 0.33559 0.51014 0.0
C920 C -0.00167 0.26403 0.47914 0.0
O921 O -0.00748 0.28965 0.44847 0.0
O922 O 0.01939 0.27971 0.50958 0.0
C923 C 0.91787 0.377 0.39265 0.0
O924 O 0.90021 0.37979 0.42844 0.0
C925 C 0.07228 0.3337 0.59524 0.0
C926 C 0.14676 0.35428 0.60393 0.0
C927 C 0.10491 0.34578 0.62388 0.0
N928 N 0.09357 0.33547 0.55975 0.0
N929 N 0.13844 0.34676 0.56521 0.0
C930 C 0.02036 0.32657 0.60098 0.0
H931 H 0.00072 0.33578 0.57372 0.0
H932 H 0.00722 0.34809 0.62609 0.0
H933 H 0.01373 0.2888 0.60782 0.0
C934 C 0.98246 0.44479 0.47638 0.0
N935 N -0.00171 0.40007 0.47587 0.0
N936 N 0.02493 0.39253 0.50683 0.0
C937 C 0.02677 0.43231 0.52854 0.0
C938 C -0.00442 0.46541 0.5123 0.0
C939 C 0.97383 0.47075 0.43841 0.0
H940 H -0.00564 0.45411 0.41423 0.0
H941 H 0.93602 0.46863 0.43016 0.0
H942 H 0.98517 0.50818 0.44044 0.0
O943 O 0.06849 0.36334 0.41439 0.0
O944 O 0.10355 0.32446 0.46315 0.0
H945 H 0.07773 0.48235 0.55167 0.0
H946 H 0.06544 0.43175 0.58316 0.0
C947 C 0.06986 0.44401 0.55233 0.0
H948 H 0.101 0.42595 0.53955 0.0
H949 H 0.16253 0.35239 0.54238 0.0
O950 O 0.96233 0.3737 0.38881 0.0
C951 C 0.10259 0.33889 0.42737 0.0
Co952 Co 0.3709 0.72464 0.35608 0.0
Co953 Co 0.3935 0.66826 0.27975 0.0
C954 C 0.46504 0.73085 0.31075 0.0
O955 O 0.43941 0.73666 0.34142 0.0
O956 O 0.44937 0.70978 0.28032 0.0
C957 C 0.35208 0.81126 0.39725 0.0
O958 O 0.34929 0.82892 0.36146 0.0
C959 C 0.39531 0.65692 0.19465 0.0
C960 C 0.37479 0.58243 0.18593 0.0
C961 C 0.38319 0.62432 0.166 0.0
N962 N 0.39361 0.6356 0.23012 0.0
N963 N 0.38236 0.59073 0.22464 0.0
C964 C 0.40241 0.70886 0.18893 0.0
H965 H 0.39327 0.72846 0.21622 0.0
H966 H 0.38082 0.72201 0.16387 0.0
H967 H 0.44015 0.7155 0.18202 0.0
C968 C 0.28428 0.74666 0.31351 0.0
N969 N 0.329 0.73083 0.31403 0.0
N970 N 0.33654 0.70419 0.28307 0.0
C971 C 0.29677 0.70235 0.26136 0.0
C972 C 0.26366 0.73353 0.2776 0.0
C973 C 0.25832 0.7553 0.35148 0.0
H974 H 0.27495 0.73478 0.37567 0.0
H975 H 0.26044 0.79311 0.35972 0.0
H976 H 0.22089 0.74397 0.34945 0.0
O977 O 0.3658 0.66065 0.37551 0.0
O978 O 0.40464 0.62558 0.32673 0.0
H979 H 0.24672 0.65137 0.23825 0.0
H980 H 0.2973 0.66367 0.20674 0.0
C981 C 0.28507 0.65925 0.23757 0.0
H982 H 0.30314 0.62811 0.25034 0.0
H983 H 0.37679 0.5666 0.24747 0.0
O984 O 0.35536 0.7668 0.40109 0.0
C985 C 0.39023 0.62654 0.36251 0.0
Co986 Co 0.0045 0.62093 0.10606 0.0
Co987 Co 0.06088 0.64352 0.02974 0.0
C988 C -0.00167 0.71508 0.06074 0.0
O989 O -0.00748 0.68945 0.09141 0.0
O990 O 0.01938 0.6994 0.0303 0.0
C991 C 0.91788 0.6021 0.14725 0.0
O992 O 0.90021 0.5993 0.11145 0.0
C993 C 0.07222 0.64534 0.94464 0.0
C994 C 0.1467 0.62479 0.93591 0.0
C995 C 0.10481 0.63321 0.91599 0.0
N996 N 0.09354 0.64363 0.98011 0.0
N997 N 0.13841 0.63236 0.97463 0.0
C998 C 0.02029 0.65245 0.93892 0.0
H999 H 0.00068 0.64329 0.96621 0.0
H1000 H 0.00712 0.63089 0.91385 0.0
H1001 H 0.01365 0.69021 0.93204 0.0
C1002 C 0.98246 0.53432 0.0635 0.0
N1003 N -0.00171 0.57904 0.06401 0.0
N1004 N 0.02494 0.58657 0.03305 0.0
C1005 C 0.02677 0.54679 1.01135 0.0
C1006 C -0.00442 0.51369 0.02758 0.0
C1007 C 0.97382 0.50836 0.10147 0.0
H1008 H -0.00566 0.525 0.12566 0.0
H1009 H 0.93601 0.51047 0.10971 0.0
H1010 H 0.98516 0.47093 0.09944 0.0
O1011 O 0.0685 0.61577 0.12549 0.0
O1012 O 0.10355 0.65465 0.07672 0.0
H1013 H 0.07774 0.49675 0.98825 0.0
H1014 H 0.06546 0.54732 0.95674 0.0
C1015 C 0.06987 0.53509 0.98756 0.0
H1016 H 0.10101 0.55316 1.00034 0.0
H1017 H 0.16254 0.62678 0.99745 0.0
O1018 O 0.96234 0.60542 0.15108 0.0
C1019 C 0.1026 0.64023 0.1125 0.0
Co1020 Co 0.10821 0.25446 0.85608 0.0
Co1021 Co 0.08561 0.31085 0.77975 0.0
C1022 C 0.01407 0.24826 0.81075 0.0
O1023 O 0.0397 0.24244 0.84142 0.0
O1024 O 0.02974 0.26933 0.78032 0.0
C1025 C 0.12703 0.16785 0.89725 0.0
O1026 O 0.12982 0.15018 0.86146 0.0
C1027 C 0.08379 0.32218 0.69465 0.0
C1028 C 0.10432 0.39668 0.68593 0.0
C1029 C 0.09592 0.35478 0.666 0.0
N1030 N 0.08549 0.3435 0.73012 0.0
N1031 N 0.09675 0.38838 0.72464 0.0
C1032 C 0.0767 0.27025 0.68893 0.0
H1033 H 0.08584 0.25064 0.71622 0.0
H1034 H 0.09829 0.25709 0.66387 0.0
H1035 H 0.03895 0.2636 0.68202 0.0
C1036 C 0.19483 0.23245 0.81351 0.0
N1037 N 0.15011 0.24828 0.81403 0.0
N1038 N 0.14257 0.27492 0.78307 0.0
C1039 C 0.18234 0.27676 0.76136 0.0
C1040 C 0.21545 0.24557 0.7776 0.0
C1041 C 0.22079 0.22381 0.85148 0.0
H1042 H 0.20416 0.24433 0.87567 0.0
H1043 H 0.21867 0.18599 0.85972 0.0
H1044 H 0.25822 0.23514 0.84945 0.0
O1045 O 0.11331 0.31846 0.87551 0.0
O1046 O 0.07447 0.35352 0.82673 0.0
H1047 H 0.23238 0.32773 0.73825 0.0
H1048 H 0.1818 0.31543 0.70674 0.0
C1049 C 0.19404 0.31985 0.73757 0.0
H1050 H 0.17597 0.35099 0.75034 0.0
H1051 H 0.10231 0.4125 0.74747 0.0
O1052 O 0.12374 0.21231 0.90109 0.0
C1053 C 0.08888 0.35257 0.86251 0.0
Co1054 Co 0.47461 0.35818 0.60606 0.0
Co1055 Co 0.41822 0.33559 0.52974 0.0
C1056 C 0.48078 0.26403 0.56074 0.0
O1057 O 0.48659 0.28965 0.59141 0.0
O1058 O 0.45972 0.27971 0.5303 0.0
C1059 C 0.56123 0.377 0.64725 0.0
O1060 O 0.57889 0.37981 0.61145 0.0
C1061 C 0.40689 0.33377 0.44464 0.0
C1062 C 0.3324 0.35431 0.43591 0.0
C1063 C 0.3743 0.3459 0.41599 0.0
N1064 N 0.38557 0.33548 0.48011 0.0
N1065 N 0.3407 0.34674 0.47463 0.0
C1066 C 0.45882 0.32665 0.43892 0.0
H1067 H 0.47843 0.33581 0.46621 0.0
H1068 H 0.47199 0.34822 0.41385 0.0
H1069 H 0.46546 0.2889 0.43204 0.0
C1070 C 0.49665 0.44479 0.5635 0.0
N1071 N 0.48082 0.40007 0.56401 0.0
N1072 N 0.45417 0.39254 0.53305 0.0
C1073 C 0.45234 0.43231 0.51135 0.0
C1074 C 0.48352 0.46541 0.52758 0.0
C1075 C 0.50529 0.47075 0.60147 0.0
H1076 H 0.48476 0.45411 0.62566 0.0
H1077 H 0.5431 0.46863 0.60971 0.0
H1078 H 0.49395 0.50818 0.59944 0.0
O1079 O 0.41061 0.36333 0.62549 0.0
O1080 O 0.37555 0.32446 0.57672 0.0
H1081 H 0.40136 0.48236 0.48825 0.0
H1082 H 0.41365 0.43178 0.45674 0.0
C1083 C 0.40924 0.44402 0.48756 0.0
H1084 H 0.37809 0.42595 0.50034 0.0
H1085 H 0.31657 0.35232 0.49745 0.0
O1086 O 0.51677 0.37369 0.65108 0.0
C1087 C 0.37651 0.33888 0.6125 0.0
loop_
_geom_bond_atom_site_label_1
_geom_bond_atom_site_label_2
_geom_bond_distance
_geom_bond_site_symmetry_2
_ccdc_geom_bond_type
Co0 O3 1.970 . S
Co0 N17 1.989 . S
Co0 O25 1.967 . S
Co0 O32 1.920 . S
Co1 O4 1.966 . S
Co1 N10 2.022 . S
Co1 N18 1.993 . S
Co1 O26 1.941 . S
C2 O3 1.258 . S
C2 O4 1.263 . S
O3 Co0 1.970 . S
O3 C2 1.258 . S
O4 Co1 1.966 . S
O4 C2 1.263 . S
C5 O6 1.235 . S
C5 O32 1.289 . S
O6 C5 1.235 . S
C7 C9 1.400 . S
C7 N10 1.351 . S
C7 C12 1.501 . S
C8 C9 1.387 . S
C8 N11 1.341 . S
C9 C7 1.400 . S
C9 C8 1.387 . S
N10 Co1 2.022 . S
N10 C7 1.351 . S
N10 N11 1.365 . S
N11 C8 1.341 . S
N11 N10 1.365 . S
N11 H31 0.862 . S
C12 C7 1.501 . S
C12 H13 0.961 . S
C12 H14 0.961 . S
C12 H15 0.960 . S
H13 C12 0.961 . S
H14 C12 0.961 . S
H15 C12 0.960 . S
C16 N17 1.342 . S
C16 C20 1.401 . S
C16 C21 1.499 . S
N17 Co0 1.989 . S
N17 C16 1.342 . S
N17 N18 1.388 . S
N18 Co1 1.993 . S
N18 N17 1.388 . S
N18 C19 1.346 . S
C19 N18 1.346 . S
C19 C20 1.396 . S
C19 C29 1.510 . S
C20 C16 1.401 . S
C20 C19 1.396 . S
C21 C16 1.499 . S
C21 H22 0.959 . S
C21 H23 0.960 . S
C21 H24 0.961 . S
H22 C21 0.959 . S
H23 C21 0.960 . S
H24 C21 0.961 . S
O25 Co0 1.967 . S
O25 C33 1.258 . S
O26 Co1 1.941 . S
O26 C33 1.266 . S
H27 C29 0.959 . S
H28 C29 0.961 . S
C29 C19 1.510 . S
C29 H27 0.959 . S
C29 H28 0.961 . S
C29 H30 0.960 . S
H30 C29 0.960 . S
H31 N11 0.862 . S
O32 Co0 1.920 . S
O32 C5 1.289 . S
C33 O25 1.258 . S
C33 O26 1.266 . S
Co34 O37 1.970 1_455 S
Co34 N51 1.989 . S
Co34 O59 1.967 . S
Co34 O66 1.920 1_455 S
Co35 O38 1.966 . S
Co35 N44 2.022 . S
Co35 N52 1.993 . S
Co35 O60 1.941 . S
C36 O37 1.258 1_455 S
C36 O38 1.263 . S
O37 Co34 1.970 1_655 S
O37 C36 1.258 1_655 S
O38 Co35 1.966 . S
O38 C36 1.263 . S
C39 O40 1.235 . S
C39 O66 1.289 . S
O40 C39 1.235 . S
C41 C43 1.400 . S
C41 N44 1.351 . S
C41 C46 1.501 . S
C42 C43 1.387 . S
C42 N45 1.341 . S
C43 C41 1.400 . S
C43 C42 1.387 . S
N44 Co35 2.022 . S
N44 C41 1.351 . S
N44 N45 1.365 . S
N45 C42 1.341 . S
N45 N44 1.365 . S
N45 H65 0.862 . S
C46 C41 1.501 . S
C46 H47 0.961 . S
C46 H48 0.961 . S
C46 H49 0.960 . S
H47 C46 0.961 . S
H48 C46 0.961 . S
H49 C46 0.960 . S
C50 N51 1.342 . S
C50 C54 1.401 . S
C50 C55 1.499 1_455 S
N51 Co34 1.989 . S
N51 C50 1.342 . S
N51 N52 1.388 . S
N52 Co35 1.993 . S
N52 N51 1.388 . S
N52 C53 1.346 . S
C53 N52 1.346 . S
C53 C54 1.396 . S
C53 C63 1.510 . S
C54 C50 1.401 . S
C54 C53 1.396 . S
C55 C50 1.499 1_655 S
C55 H56 0.959 . S
C55 H57 0.960 . S
C55 H58 0.961 1_565 S
H56 C55 0.959 . S
H57 C55 0.960 . S
H58 C55 0.961 1_545 S
O59 Co34 1.967 . S
O59 C67 1.258 . S
O60 Co35 1.941 . S
O60 C67 1.266 . S
H61 C63 0.959 . S
H62 C63 0.961 . S
C63 C53 1.510 . S
C63 H61 0.959 . S
C63 H62 0.961 . S
C63 H64 0.960 . S
H64 C63 0.960 . S
H65 N45 0.862 . S
O66 Co34 1.920 1_655 S
O66 C39 1.289 . S
C67 O59 1.258 . S
C67 O60 1.266 . S
Co68 O71 1.970 . S
Co68 N85 1.989 . S
Co68 O93 1.967 . S
Co68 O100 1.920 . S
Co69 O72 1.966 . S
Co69 N78 2.022 . S
Co69 N86 1.993 . S
Co69 O94 1.941 . S
C70 O71 1.258 . S
C70 O72 1.263 . S
O71 Co68 1.970 . S
O71 C70 1.258 . S
O72 Co69 1.966 . S
O72 C70 1.263 . S
C73 O74 1.235 . S
C73 O100 1.289 . S
O74 C73 1.235 . S
C75 C77 1.400 . S
C75 N78 1.351 . S
C75 C80 1.501 . S
C76 C77 1.387 . S
C76 N79 1.341 . S
C77 C75 1.400 . S
C77 C76 1.387 . S
N78 Co69 2.022 . S
N78 C75 1.351 . S
N78 N79 1.365 . S
N79 C76 1.341 . S
N79 N78 1.365 . S
N79 H99 0.862 . S
C80 C75 1.501 . S
C80 H81 0.961 . S
C80 H82 0.961 . S
C80 H83 0.960 . S
H81 C80 0.961 . S
H82 C80 0.961 . S
H83 C80 0.960 . S
C84 N85 1.342 . S
C84 C88 1.401 . S
C84 C89 1.499 . S
N85 Co68 1.989 . S
N85 C84 1.342 . S
N85 N86 1.388 . S
N86 Co69 1.993 . S
N86 N85 1.388 . S
N86 C87 1.346 . S
C87 N86 1.346 . S
C87 C88 1.396 . S
C87 C97 1.510 . S
C88 C84 1.401 . S
C88 C87 1.396 . S
C89 C84 1.499 . S
C89 H90 0.959 . S
C89 H91 0.960 . S
C89 H92 0.961 . S
H90 C89 0.959 . S
H91 C89 0.960 . S
H92 C89 0.961 . S
O93 Co68 1.967 . S
O93 C101 1.258 . S
O94 Co69 1.941 . S
O94 C101 1.266 . S
H95 C97 0.959 . S
H96 C97 0.961 . S
C97 C87 1.510 . S
C97 H95 0.959 . S
C97 H96 0.961 . S
C97 H98 0.960 . S
H98 C97 0.960 . S
H99 N79 0.862 . S
O100 Co68 1.920 . S
O100 C73 1.289 . S
C101 O93 1.258 . S
C101 O94 1.266 . S
Co102 O105 1.970 . S
Co102 N119 1.989 . S
Co102 O127 1.967 . S
Co102 O134 1.920 . S
Co103 O106 1.966 . S
Co103 N112 2.022 1_554 S
Co103 N120 1.993 . S
Co103 O128 1.941 . S
C104 O105 1.258 . S
C104 O106 1.263 . S
O105 Co102 1.970 . S
O105 C104 1.258 . S
O106 Co103 1.966 . S
O106 C104 1.263 . S
C107 O108 1.235 . S
C107 O134 1.289 . S
O108 C107 1.235 . S
C109 C111 1.400 . S
C109 N112 1.351 . S
C109 C114 1.501 . S
C110 C111 1.387 . S
C110 N113 1.341 . S
C111 C109 1.400 . S
C111 C110 1.387 . S
N112 Co103 2.022 1_556 S
N112 C109 1.351 . S
N112 N113 1.365 . S
N113 C110 1.341 . S
N113 N112 1.365 . S
N113 H133 0.862 . S
C114 C109 1.501 . S
C114 H115 0.961 . S
C114 H116 0.961 . S
C114 H117 0.960 . S
H115 C114 0.961 . S
H116 C114 0.961 . S
H117 C114 0.960 . S
C118 N119 1.342 . S
C118 C122 1.401 . S
C118 C123 1.499 . S
N119 Co102 1.989 . S
N119 C118 1.342 . S
N119 N120 1.388 . S
N120 Co103 1.993 . S
N120 N119 1.388 . S
N120 C121 1.346 1_554 S
C121 N120 1.346 1_556 S
C121 C122 1.396 1_556 S
C121 C131 1.510 . S
C122 C118 1.401 . S
C122 C121 1.396 1_554 S
C123 C118 1.499 . S
C123 H124 0.959 . S
C123 H125 0.960 . S
C123 H126 0.961 1_545 S
H124 C123 0.959 . S
H125 C123 0.960 . S
H126 C123 0.961 1_565 S
O127 Co102 1.967 . S
O127 C135 1.258 . S
O128 Co103 1.941 . S
O128 C135 1.266 . S
H129 C131 0.959 . S
H130 C131 0.961 . S
C131 C121 1.510 . S
C131 H129 0.959 . S
C131 H130 0.961 . S
C131 H132 0.960 . S
H132 C131 0.960 . S
H133 N113 0.862 . S
O134 Co102 1.920 . S
O134 C107 1.289 . S
C135 O127 1.258 . S
C135 O128 1.266 . S
Co136 O139 1.970 . S
Co136 N153 1.989 . S
Co136 O161 1.967 . S
Co136 O168 1.920 . S
Co137 O140 1.966 . S
Co137 N146 2.022 . S
Co137 N154 1.993 . S
Co137 O162 1.941 . S
C138 O139 1.258 . S
C138 O140 1.263 . S
O139 Co136 1.970 . S
O139 C138 1.258 . S
O140 Co137 1.966 . S
O140 C138 1.263 . S
C141 O142 1.235 . S
C141 O168 1.289 . S
O142 C141 1.235 . S
C143 C145 1.400 . S
C143 N146 1.351 . S
C143 C148 1.501 . S
C144 C145 1.387 . S
C144 N147 1.341 . S
C145 C143 1.400 . S
C145 C144 1.387 . S
N146 Co137 2.022 . S
N146 C143 1.351 . S
N146 N147 1.365 . S
N147 C144 1.341 . S
N147 N146 1.365 . S
N147 H167 0.862 . S
C148 C143 1.501 . S
C148 H149 0.961 . S
C148 H150 0.961 . S
C148 H151 0.960 . S
H149 C148 0.961 . S
H150 C148 0.961 . S
H151 C148 0.960 . S
C152 N153 1.342 . S
C152 C156 1.401 . S
C152 C157 1.499 . S
N153 Co136 1.989 . S
N153 C152 1.342 . S
N153 N154 1.388 . S
N154 Co137 1.993 . S
N154 N153 1.388 . S
N154 C155 1.346 . S
C155 N154 1.346 . S
C155 C156 1.396 . S
C155 C165 1.510 . S
C156 C152 1.401 . S
C156 C155 1.396 . S
C157 C152 1.499 . S
C157 H158 0.959 . S
C157 H159 0.960 . S
C157 H160 0.961 . S
H158 C157 0.959 . S
H159 C157 0.960 . S
H160 C157 0.961 . S
O161 Co136 1.967 . S
O161 C169 1.258 . S
O162 Co137 1.941 . S
O162 C169 1.266 . S
H163 C165 0.959 . S
H164 C165 0.961 . S
C165 C155 1.510 . S
C165 H163 0.959 . S
C165 H164 0.961 . S
C165 H166 0.960 . S
H166 C165 0.960 . S
H167 N147 0.862 . S
O168 Co136 1.920 . S
O168 C141 1.289 . S
C169 O161 1.258 . S
C169 O162 1.266 . S
Co170 O173 1.970 . S
Co170 N187 1.989 . S
Co170 O195 1.967 . S
Co170 O202 1.920 . S
Co171 O174 1.966 . S
Co171 N180 2.022 . S
Co171 N188 1.993 . S
Co171 O196 1.941 . S
C172 O173 1.258 . S
C172 O174 1.263 . S
O173 Co170 1.970 . S
O173 C172 1.258 . S
O174 Co171 1.966 . S
O174 C172 1.263 . S
C175 O176 1.235 . S
C175 O202 1.289 . S
O176 C175 1.235 . S
C177 C179 1.400 . S
C177 N180 1.351 . S
C177 C182 1.501 . S
C178 C179 1.387 . S
C178 N181 1.341 . S
C179 C177 1.400 . S
C179 C178 1.387 . S
N180 Co171 2.022 . S
N180 C177 1.351 . S
N180 N181 1.365 . S
N181 C178 1.341 . S
N181 N180 1.365 . S
N181 H201 0.862 . S
C182 C177 1.501 . S
C182 H183 0.961 . S
C182 H184 0.961 . S
C182 H185 0.960 . S
H183 C182 0.961 . S
H184 C182 0.961 . S
H185 C182 0.960 . S
C186 N187 1.342 . S
C186 C190 1.401 . S
C186 C191 1.499 . S
N187 Co170 1.989 . S
N187 C186 1.342 . S
N187 N188 1.388 . S
N188 Co171 1.993 . S
N188 N187 1.388 . S
N188 C189 1.346 . S
C189 N188 1.346 . S
C189 C190 1.396 . S
C189 C199 1.510 . S
C190 C186 1.401 . S
C190 C189 1.396 . S
C191 C186 1.499 . S
C191 H192 0.959 . S
C191 H193 0.960 . S
C191 H194 0.961 1_565 S
H192 C191 0.959 . S
H193 C191 0.960 . S
H194 C191 0.961 1_545 S
O195 Co170 1.967 . S
O195 C203 1.258 . S
O196 Co171 1.941 . S
O196 C203 1.266 . S
H197 C199 0.959 . S
H198 C199 0.961 . S
C199 C189 1.510 . S
C199 H197 0.959 . S
C199 H198 0.961 . S
C199 H200 0.960 . S
H200 C199 0.960 . S
H201 N181 0.862 . S
O202 Co170 1.920 . S
O202 C175 1.289 . S
C203 O195 1.258 . S
C203 O196 1.266 . S
Co204 O207 1.970 . S
Co204 N221 1.989 . S
Co204 O229 1.967 . S
Co204 O236 1.920 . S
Co205 O208 1.966 . S
Co205 N214 2.022 . S
Co205 N222 1.993 . S
Co205 O230 1.941 . S
C206 O207 1.258 . S
C206 O208 1.263 . S
O207 Co204 1.970 . S
O207 C206 1.258 . S
O208 Co205 1.966 . S
O208 C206 1.263 . S
C209 O210 1.235 . S
C209 O236 1.289 . S
O210 C209 1.235 . S
C211 C213 1.400 . S
C211 N214 1.351 . S
C211 C216 1.501 . S
C212 C213 1.387 . S
C212 N215 1.341 . S
C213 C211 1.400 . S
C213 C212 1.387 . S
N214 Co205 2.022 . S
N214 C211 1.351 . S
N214 N215 1.365 . S
N215 C212 1.341 . S
N215 N214 1.365 . S
N215 H235 0.862 . S
C216 C211 1.501 . S
C216 H217 0.961 . S
C216 H218 0.961 . S
C216 H219 0.960 . S
H217 C216 0.961 . S
H218 C216 0.961 . S
H219 C216 0.960 . S
C220 N221 1.342 . S
C220 C224 1.401 . S
C220 C225 1.499 . S
N221 Co204 1.989 . S
N221 C220 1.342 . S
N221 N222 1.388 . S
N222 Co205 1.993 . S
N222 N221 1.388 . S
N222 C223 1.346 . S
C223 N222 1.346 . S
C223 C224 1.396 . S
C223 C233 1.510 . S
C224 C220 1.401 . S
C224 C223 1.396 . S
C225 C220 1.499 . S
C225 H226 0.959 . S
C225 H227 0.960 . S
C225 H228 0.961 . S
H226 C225 0.959 . S
H227 C225 0.960 . S
H228 C225 0.961 . S
O229 Co204 1.967 . S
O229 C237 1.258 . S
O230 Co205 1.941 . S
O230 C237 1.266 . S
H231 C233 0.959 . S
H232 C233 0.961 . S
C233 C223 1.510 . S
C233 H231 0.959 . S
C233 H232 0.961 . S
C233 H234 0.960 . S
H234 C233 0.960 . S
H235 N215 0.862 . S
O236 Co204 1.920 . S
O236 C209 1.289 . S
C237 O229 1.258 . S
C237 O230 1.266 . S
Co238 O241 1.970 1_455 S
Co238 N255 1.989 . S
Co238 O263 1.967 . S
Co238 O270 1.920 1_455 S
Co239 O242 1.966 . S
Co239 N248 2.022 1_556 S
Co239 N256 1.993 . S
Co239 O264 1.941 . S
C240 O241 1.258 1_455 S
C240 O242 1.263 . S
O241 Co238 1.970 1_655 S
O241 C240 1.258 1_655 S
O242 Co239 1.966 . S
O242 C240 1.263 . S
C243 O244 1.235 . S
C243 O270 1.289 . S
O244 C243 1.235 . S
C245 C247 1.400 . S
C245 N248 1.351 . S
C245 C250 1.501 . S
C246 C247 1.387 . S
C246 N249 1.341 . S
C247 C245 1.400 . S
C247 C246 1.387 . S
N248 Co239 2.022 1_554 S
N248 C245 1.351 . S
N248 N249 1.365 . S
N249 C246 1.341 . S
N249 N248 1.365 . S
N249 H269 0.862 . S
C250 C245 1.501 . S
C250 H251 0.961 . S
C250 H252 0.961 . S
C250 H253 0.960 . S
H251 C250 0.961 . S
H252 C250 0.961 . S
H253 C250 0.960 . S
C254 N255 1.342 . S
C254 C258 1.401 . S
C254 C259 1.499 1_455 S
N255 Co238 1.989 . S
N255 C254 1.342 . S
N255 N256 1.388 . S
N256 Co239 1.993 . S
N256 N255 1.388 . S
N256 C257 1.346 1_556 S
C257 N256 1.346 1_554 S
C257 C258 1.396 1_554 S
C257 C267 1.510 . S
C258 C254 1.401 . S
C258 C257 1.396 1_556 S
C259 C254 1.499 1_655 S
C259 H260 0.959 . S
C259 H261 0.960 . S
C259 H262 0.961 1_545 S
H260 C259 0.959 . S
H261 C259 0.960 . S
H262 C259 0.961 1_565 S
O263 Co238 1.967 . S
O263 C271 1.258 . S
O264 Co239 1.941 . S
O264 C271 1.266 . S
H265 C267 0.959 . S
H266 C267 0.961 . S
C267 C257 1.510 . S
C267 H265 0.959 . S
C267 H266 0.961 . S
C267 H268 0.960 . S
H268 C267 0.960 . S
H269 N249 0.862 . S
O270 Co238 1.920 1_655 S
O270 C243 1.289 . S
C271 O263 1.258 . S
C271 O264 1.266 . S
Co272 O275 1.970 . S
Co272 N289 1.989 . S
Co272 O297 1.967 . S
Co272 O304 1.920 . S
Co273 O276 1.966 . S
Co273 N282 2.022 . S
Co273 N290 1.993 . S
Co273 O298 1.941 . S
C274 O275 1.258 . S
C274 O276 1.263 . S
O275 Co272 1.970 . S
O275 C274 1.258 . S
O276 Co273 1.966 . S
O276 C274 1.263 . S
C277 O278 1.235 . S
C277 O304 1.289 . S
O278 C277 1.235 . S
C279 C281 1.400 . S
C279 N282 1.351 . S
C279 C284 1.501 . S
C280 C281 1.387 . S
C280 N283 1.341 . S
C281 C279 1.400 . S
C281 C280 1.387 . S
N282 Co273 2.022 . S
N282 C279 1.351 . S
N282 N283 1.365 . S
N283 C280 1.341 . S
N283 N282 1.365 . S
N283 H303 0.862 . S
C284 C279 1.501 . S
C284 H285 0.961 . S
C284 H286 0.961 . S
C284 H287 0.960 . S
H285 C284 0.961 . S
H286 C284 0.961 . S
H287 C284 0.960 . S
C288 N289 1.342 . S
C288 C292 1.401 . S
C288 C293 1.499 . S
N289 Co272 1.989 . S
N289 C288 1.342 . S
N289 N290 1.388 . S
N290 Co273 1.993 . S
N290 N289 1.388 . S
N290 C291 1.346 . S
C291 N290 1.346 . S
C291 C292 1.396 . S
C291 C301 1.510 . S
C292 C288 1.401 . S
C292 C291 1.396 . S
C293 C288 1.499 . S
C293 H294 0.959 . S
C293 H295 0.960 . S
C293 H296 0.961 . S
H294 C293 0.959 . S
H295 C293 0.960 . S
H296 C293 0.961 . S
O297 Co272 1.967 . S
O297 C305 1.258 . S
O298 Co273 1.941 . S
O298 C305 1.266 . S
H299 C301 0.959 . S
H300 C301 0.961 . S
C301 C291 1.510 . S
C301 H299 0.959 . S
C301 H300 0.961 . S
C301 H302 0.960 . S
H302 C301 0.960 . S
H303 N283 0.862 . S
O304 Co272 1.920 . S
O304 C277 1.289 . S
C305 O297 1.258 . S
C305 O298 1.266 . S
Co306 O309 1.970 1_655 S
Co306 N323 1.989 . S
Co306 O331 1.967 . S
Co306 O338 1.920 1_655 S
Co307 O310 1.966 . S
Co307 N316 2.022 . S
Co307 N324 1.993 . S
Co307 O332 1.941 . S
C308 O309 1.258 1_655 S
C308 O310 1.263 . S
O309 Co306 1.970 1_455 S
O309 C308 1.258 1_455 S
O310 Co307 1.966 . S
O310 C308 1.263 . S
C311 O312 1.235 . S
C311 O338 1.289 . S
O312 C311 1.235 . S
C313 C315 1.400 . S
C313 N316 1.351 . S
C313 C318 1.501 . S
C314 C315 1.387 . S
C314 N317 1.341 . S
C315 C313 1.400 . S
C315 C314 1.387 . S
N316 Co307 2.022 . S
N316 C313 1.351 . S
N316 N317 1.365 . S
N317 C314 1.341 . S
N317 N316 1.365 . S
N317 H337 0.862 . S
C318 C313 1.501 . S
C318 H319 0.961 . S
C318 H320 0.961 . S
C318 H321 0.960 . S
H319 C318 0.961 . S
H320 C318 0.961 . S
H321 C318 0.960 . S
C322 N323 1.342 . S
C322 C326 1.401 . S
C322 C327 1.499 1_655 S
N323 Co306 1.989 . S
N323 C322 1.342 . S
N323 N324 1.388 . S
N324 Co307 1.993 . S
N324 N323 1.388 . S
N324 C325 1.346 . S
C325 N324 1.346 . S
C325 C326 1.396 . S
C325 C335 1.510 . S
C326 C322 1.401 . S
C326 C325 1.396 . S
C327 C322 1.499 1_455 S
C327 H328 0.959 . S
C327 H329 0.960 . S
C327 H330 0.961 1_545 S
H328 C327 0.959 . S
H329 C327 0.960 . S
H330 C327 0.961 1_565 S
O331 Co306 1.967 . S
O331 C339 1.258 . S
O332 Co307 1.941 . S
O332 C339 1.266 . S
H333 C335 0.959 . S
H334 C335 0.961 . S
C335 C325 1.510 . S
C335 H333 0.959 . S
C335 H334 0.961 . S
C335 H336 0.960 . S
H336 C335 0.960 . S
H337 N317 0.862 . S
O338 Co306 1.920 1_455 S
O338 C311 1.289 . S
C339 O331 1.258 . S
C339 O332 1.266 . S
Co340 O343 1.970 . S
Co340 N357 1.989 . S
Co340 O365 1.967 . S
Co340 O372 1.920 . S
Co341 O344 1.966 . S
Co341 N350 2.022 . S
Co341 N358 1.993 . S
Co341 O366 1.941 . S
C342 O343 1.258 . S
C342 O344 1.263 . S
O343 Co340 1.970 . S
O343 C342 1.258 . S
O344 Co341 1.966 . S
O344 C342 1.263 . S
C345 O346 1.235 . S
C345 O372 1.289 . S
O346 C345 1.235 . S
C347 C349 1.400 . S
C347 N350 1.351 . S
C347 C352 1.501 . S
C348 C349 1.387 . S
C348 N351 1.341 . S
C349 C347 1.400 . S
C349 C348 1.387 . S
N350 Co341 2.022 . S
N350 C347 1.351 . S
N350 N351 1.365 . S
N351 C348 1.341 . S
N351 N350 1.365 . S
N351 H371 0.862 . S
C352 C347 1.501 . S
C352 H353 0.961 . S
C352 H354 0.961 . S
C352 H355 0.960 . S
H353 C352 0.961 . S
H354 C352 0.961 . S
H355 C352 0.960 . S
C356 N357 1.342 . S
C356 C360 1.401 . S
C356 C361 1.499 . S
N357 Co340 1.989 . S
N357 C356 1.342 . S
N357 N358 1.388 . S
N358 Co341 1.993 . S
N358 N357 1.388 . S
N358 C359 1.346 . S
C359 N358 1.346 . S
C359 C360 1.396 . S
C359 C369 1.510 . S
C360 C356 1.401 . S
C360 C359 1.396 . S
C361 C356 1.499 . S
C361 H362 0.959 . S
C361 H363 0.960 . S
C361 H364 0.961 . S
H362 C361 0.959 . S
H363 C361 0.960 . S
H364 C361 0.961 . S
O365 Co340 1.967 . S
O365 C373 1.258 . S
O366 Co341 1.941 . S
O366 C373 1.266 . S
H367 C369 0.959 . S
H368 C369 0.961 . S
C369 C359 1.510 . S
C369 H367 0.959 . S
C369 H368 0.961 . S
C369 H370 0.960 . S
H370 C369 0.960 . S
H371 N351 0.862 . S
O372 Co340 1.920 . S
O372 C345 1.289 . S
C373 O365 1.258 . S
C373 O366 1.266 . S
Co374 O377 1.970 . S
Co374 N391 1.989 . S
Co374 O399 1.967 . S
Co374 O406 1.920 . S
Co375 O378 1.966 . S
Co375 N384 2.022 1_556 S
Co375 N392 1.993 . S
Co375 O400 1.941 . S
C376 O377 1.258 . S
C376 O378 1.263 . S
O377 Co374 1.970 . S
O377 C376 1.258 . S
O378 Co375 1.966 . S
O378 C376 1.263 . S
C379 O380 1.235 . S
C379 O406 1.289 . S
O380 C379 1.235 . S
C381 C383 1.400 . S
C381 N384 1.351 . S
C381 C386 1.501 . S
C382 C383 1.387 . S
C382 N385 1.341 . S
C383 C381 1.400 . S
C383 C382 1.387 . S
N384 Co375 2.022 1_554 S
N384 C381 1.351 . S
N384 N385 1.365 . S
N385 C382 1.341 . S
N385 N384 1.365 . S
N385 H405 0.862 . S
C386 C381 1.501 . S
C386 H387 0.961 . S
C386 H388 0.961 . S
C386 H389 0.960 . S
H387 C386 0.961 . S
H388 C386 0.961 . S
H389 C386 0.960 . S
C390 N391 1.342 . S
C390 C394 1.401 . S
C390 C395 1.499 . S
N391 Co374 1.989 . S
N391 C390 1.342 . S
N391 N392 1.388 . S
N392 Co375 1.993 . S
N392 N391 1.388 . S
N392 C393 1.346 1_556 S
C393 N392 1.346 1_554 S
C393 C394 1.396 1_554 S
C393 C403 1.510 . S
C394 C390 1.401 . S
C394 C393 1.396 1_556 S
C395 C390 1.499 . S
C395 H396 0.959 . S
C395 H397 0.960 . S
C395 H398 0.961 1_565 S
H396 C395 0.959 . S
H397 C395 0.960 . S
H398 C395 0.961 1_545 S
O399 Co374 1.967 . S
O399 C407 1.258 . S
O400 Co375 1.941 . S
O400 C407 1.266 . S
H401 C403 0.959 . S
H402 C403 0.961 . S
C403 C393 1.510 . S
C403 H401 0.959 . S
C403 H402 0.961 . S
C403 H404 0.960 . S
H404 C403 0.960 . S
H405 N385 0.862 . S
O406 Co374 1.920 . S
O406 C379 1.289 . S
C407 O399 1.258 . S
C407 O400 1.266 . S
Co408 O411 1.970 . S
Co408 N425 1.989 . S
Co408 O433 1.967 . S
Co408 O440 1.920 . S
Co409 O412 1.966 . S
Co409 N418 2.022 . S
Co409 N426 1.993 . S
Co409 O434 1.941 . S
C410 O411 1.258 . S
C410 O412 1.263 . S
O411 Co408 1.970 . S
O411 C410 1.258 . S
O412 Co409 1.966 . S
O412 C410 1.263 . S
C413 O414 1.235 . S
C413 O440 1.289 . S
O414 C413 1.235 . S
C415 C417 1.400 . S
C415 N418 1.351 . S
C415 C420 1.501 . S
C416 C417 1.387 . S
C416 N419 1.341 . S
C417 C415 1.400 . S
C417 C416 1.387 . S
N418 Co409 2.022 . S
N418 C415 1.351 . S
N418 N419 1.365 . S
N419 C416 1.341 . S
N419 N418 1.365 . S
N419 H439 0.862 . S
C420 C415 1.501 . S
C420 H421 0.961 . S
C420 H422 0.961 . S
C420 H423 0.960 . S
H421 C420 0.961 . S
H422 C420 0.961 . S
H423 C420 0.960 . S
C424 N425 1.342 . S
C424 C428 1.401 . S
C424 C429 1.499 . S
N425 Co408 1.989 . S
N425 C424 1.342 . S
N425 N426 1.388 . S
N426 Co409 1.993 . S
N426 N425 1.388 . S
N426 C427 1.346 . S
C427 N426 1.346 . S
C427 C428 1.396 . S
C427 C437 1.510 . S
C428 C424 1.401 . S
C428 C427 1.396 . S
C429 C424 1.499 . S
C429 H430 0.959 . S
C429 H431 0.960 . S
C429 H432 0.961 . S
H430 C429 0.959 . S
H431 C429 0.960 . S
H432 C429 0.961 . S
O433 Co408 1.967 . S
O433 C441 1.258 . S
O434 Co409 1.941 . S
O434 C441 1.266 . S
H435 C437 0.959 . S
H436 C437 0.961 . S
C437 C427 1.510 . S
C437 H435 0.959 . S
C437 H436 0.961 . S
C437 H438 0.960 . S
H438 C437 0.960 . S
H439 N419 0.862 . S
O440 Co408 1.920 . S
O440 C413 1.289 . S
C441 O433 1.258 . S
C441 O434 1.266 . S
Co442 O445 1.970 . S
Co442 N459 1.989 . S
Co442 O467 1.967 . S
Co442 O474 1.920 . S
Co443 O446 1.966 . S
Co443 N452 2.022 . S
Co443 N460 1.993 . S
Co443 O468 1.941 . S
C444 O445 1.258 . S
C444 O446 1.263 . S
O445 Co442 1.970 . S
O445 C444 1.258 . S
O446 Co443 1.966 . S
O446 C444 1.263 . S
C447 O448 1.235 . S
C447 O474 1.289 . S
O448 C447 1.235 . S
C449 C451 1.400 . S
C449 N452 1.351 . S
C449 C454 1.501 . S
C450 C451 1.387 . S
C450 N453 1.341 . S
C451 C449 1.400 . S
C451 C450 1.387 . S
N452 Co443 2.022 . S
N452 C449 1.351 . S
N452 N453 1.365 . S
N453 C450 1.341 . S
N453 N452 1.365 . S
N453 H473 0.862 . S
C454 C449 1.501 . S
C454 H455 0.961 . S
C454 H456 0.961 . S
C454 H457 0.960 . S
H455 C454 0.961 . S
H456 C454 0.961 . S
H457 C454 0.960 . S
C458 N459 1.342 . S
C458 C462 1.401 . S
C458 C463 1.499 . S
N459 Co442 1.989 . S
N459 C458 1.342 . S
N459 N460 1.388 . S
N460 Co443 1.993 . S
N460 N459 1.388 . S
N460 C461 1.346 . S
C461 N460 1.346 . S
C461 C462 1.396 . S
C461 C471 1.510 . S
C462 C458 1.401 . S
C462 C461 1.396 . S
C463 C458 1.499 . S
C463 H464 0.959 . S
C463 H465 0.960 . S
C463 H466 0.961 1_545 S
H464 C463 0.959 . S
H465 C463 0.960 . S
H466 C463 0.961 1_565 S
O467 Co442 1.967 . S
O467 C475 1.258 . S
O468 Co443 1.941 . S
O468 C475 1.266 . S
H469 C471 0.959 . S
H470 C471 0.961 . S
C471 C461 1.510 . S
C471 H469 0.959 . S
C471 H470 0.961 . S
C471 H472 0.960 . S
H472 C471 0.960 . S
H473 N453 0.862 . S
O474 Co442 1.920 . S
O474 C447 1.289 . S
C475 O467 1.258 . S
C475 O468 1.266 . S
Co476 O479 1.970 . S
Co476 N493 1.989 . S
Co476 O501 1.967 . S
Co476 O508 1.920 . S
Co477 O480 1.966 . S
Co477 N486 2.022 . S
Co477 N494 1.993 . S
Co477 O502 1.941 . S
C478 O479 1.258 . S
C478 O480 1.263 . S
O479 Co476 1.970 . S
O479 C478 1.258 . S
O480 Co477 1.966 . S
O480 C478 1.263 . S
C481 O482 1.235 . S
C481 O508 1.289 . S
O482 C481 1.235 . S
C483 C485 1.400 . S
C483 N486 1.351 . S
C483 C488 1.501 . S
C484 C485 1.387 . S
C484 N487 1.341 . S
C485 C483 1.400 . S
C485 C484 1.387 . S
N486 Co477 2.022 . S
N486 C483 1.351 . S
N486 N487 1.365 . S
N487 C484 1.341 . S
N487 N486 1.365 . S
N487 H507 0.862 . S
C488 C483 1.501 . S
C488 H489 0.961 . S
C488 H490 0.961 . S
C488 H491 0.960 . S
H489 C488 0.961 . S
H490 C488 0.961 . S
H491 C488 0.960 . S
C492 N493 1.342 . S
C492 C496 1.401 . S
C492 C497 1.499 . S
N493 Co476 1.989 . S
N493 C492 1.342 . S
N493 N494 1.388 . S
N494 Co477 1.993 . S
N494 N493 1.388 . S
N494 C495 1.346 . S
C495 N494 1.346 . S
C495 C496 1.396 . S
C495 C505 1.510 . S
C496 C492 1.401 . S
C496 C495 1.396 . S
C497 C492 1.499 . S
C497 H498 0.959 . S
C497 H499 0.960 . S
C497 H500 0.961 . S
H498 C497 0.959 . S
H499 C497 0.960 . S
H500 C497 0.961 . S
O501 Co476 1.967 . S
O501 C509 1.258 . S
O502 Co477 1.941 . S
O502 C509 1.266 . S
H503 C505 0.959 . S
H504 C505 0.961 . S
C505 C495 1.510 . S
C505 H503 0.959 . S
C505 H504 0.961 . S
C505 H506 0.960 . S
H506 C505 0.960 . S
H507 N487 0.862 . S
O508 Co476 1.920 . S
O508 C481 1.289 . S
C509 O501 1.258 . S
C509 O502 1.266 . S
Co510 O513 1.970 1_655 S
Co510 N527 1.989 . S
Co510 O535 1.967 . S
Co510 O542 1.920 1_655 S
Co511 O514 1.966 . S
Co511 N520 2.022 1_554 S
Co511 N528 1.993 . S
Co511 O536 1.941 . S
C512 O513 1.258 1_655 S
C512 O514 1.263 . S
O513 Co510 1.970 1_455 S
O513 C512 1.258 1_455 S
O514 Co511 1.966 . S
O514 C512 1.263 . S
C515 O516 1.235 . S
C515 O542 1.289 . S
O516 C515 1.235 . S
C517 C519 1.400 . S
C517 N520 1.351 . S
C517 C522 1.501 . S
C518 C519 1.387 . S
C518 N521 1.341 . S
C519 C517 1.400 . S
C519 C518 1.387 . S
N520 Co511 2.022 1_556 S
N520 C517 1.351 . S
N520 N521 1.365 . S
N521 C518 1.341 . S
N521 N520 1.365 . S
N521 H541 0.862 . S
C522 C517 1.501 . S
C522 H523 0.961 . S
C522 H524 0.961 . S
C522 H525 0.960 . S
H523 C522 0.961 . S
H524 C522 0.961 . S
H525 C522 0.960 . S
C526 N527 1.342 . S
C526 C530 1.401 . S
C526 C531 1.499 1_655 S
N527 Co510 1.989 . S
N527 C526 1.342 . S
N527 N528 1.388 . S
N528 Co511 1.993 . S
N528 N527 1.388 . S
N528 C529 1.346 1_554 S
C529 N528 1.346 1_556 S
C529 C530 1.396 1_556 S
C529 C539 1.510 . S
C530 C526 1.401 . S
C530 C529 1.396 1_554 S
C531 C526 1.499 1_455 S
C531 H532 0.959 . S
C531 H533 0.960 . S
C531 H534 0.961 1_565 S
H532 C531 0.959 . S
H533 C531 0.960 . S
H534 C531 0.961 1_545 S
O535 Co510 1.967 . S
O535 C543 1.258 . S
O536 Co511 1.941 . S
O536 C543 1.266 . S
H537 C539 0.959 . S
H538 C539 0.961 . S
C539 C529 1.510 . S
C539 H537 0.959 . S
C539 H538 0.961 . S
C539 H540 0.960 . S
H540 C539 0.960 . S
H541 N521 0.862 . S
O542 Co510 1.920 1_455 S
O542 C515 1.289 . S
C543 O535 1.258 . S
C543 O536 1.266 . S
Co544 O547 1.970 . S
Co544 N561 1.989 . S
Co544 O569 1.967 . S
Co544 O576 1.920 . S
Co545 O548 1.966 . S
Co545 N554 2.022 . S
Co545 N562 1.993 . S
Co545 O570 1.941 . S
C546 O547 1.258 . S
C546 O548 1.263 . S
O547 Co544 1.970 . S
O547 C546 1.258 . S
O548 Co545 1.966 . S
O548 C546 1.263 . S
C549 O550 1.235 . S
C549 O576 1.289 . S
O550 C549 1.235 . S
C551 C553 1.400 . S
C551 N554 1.351 . S
C551 C556 1.501 . S
C552 C553 1.387 . S
C552 N555 1.341 . S
C553 C551 1.400 . S
C553 C552 1.387 . S
N554 Co545 2.022 . S
N554 C551 1.351 . S
N554 N555 1.365 . S
N555 C552 1.341 . S
N555 N554 1.365 . S
N555 H575 0.862 . S
C556 C551 1.501 . S
C556 H557 0.961 . S
C556 H558 0.961 . S
C556 H559 0.960 . S
H557 C556 0.961 . S
H558 C556 0.961 . S
H559 C556 0.960 . S
C560 N561 1.342 . S
C560 C564 1.401 . S
C560 C565 1.499 . S
N561 Co544 1.989 . S
N561 C560 1.342 . S
N561 N562 1.388 . S
N562 Co545 1.993 . S
N562 N561 1.388 . S
N562 C563 1.346 . S
C563 N562 1.346 . S
C563 C564 1.396 . S
C563 C573 1.510 . S
C564 C560 1.401 . S
C564 C563 1.396 . S
C565 C560 1.499 . S
C565 H566 0.959 . S
C565 H567 0.960 . S
C565 H568 0.961 . S
H566 C565 0.959 . S
H567 C565 0.960 . S
H568 C565 0.961 . S
O569 Co544 1.967 . S
O569 C577 1.258 . S
O570 Co545 1.941 . S
O570 C577 1.266 . S
H571 C573 0.959 . S
H572 C573 0.961 . S
C573 C563 1.510 . S
C573 H571 0.959 . S
C573 H572 0.961 . S
C573 H574 0.960 . S
H574 C573 0.960 . S
H575 N555 0.862 . S
O576 Co544 1.920 . S
O576 C549 1.289 . S
C577 O569 1.258 . S
C577 O570 1.266 . S
Co578 O581 1.970 . S
Co578 N595 1.989 . S
Co578 O603 1.967 . S
Co578 O610 1.920 . S
Co579 O582 1.966 . S
Co579 N588 2.022 1_554 S
Co579 N596 1.993 . S
Co579 O604 1.941 . S
C580 O581 1.258 . S
C580 O582 1.263 . S
O581 Co578 1.970 . S
O581 C580 1.258 . S
O582 Co579 1.966 . S
O582 C580 1.263 . S
C583 O584 1.235 . S
C583 O610 1.289 . S
O584 C583 1.235 . S
C585 C587 1.400 . S
C585 N588 1.351 . S
C585 C590 1.501 . S
C586 C587 1.387 . S
C586 N589 1.341 . S
C587 C585 1.400 . S
C587 C586 1.387 . S
N588 Co579 2.022 1_556 S
N588 C585 1.351 . S
N588 N589 1.365 . S
N589 C586 1.341 . S
N589 N588 1.365 . S
N589 H609 0.862 . S
C590 C585 1.501 . S
C590 H591 0.961 . S
C590 H592 0.961 . S
C590 H593 0.960 . S
H591 C590 0.961 . S
H592 C590 0.961 . S
H593 C590 0.960 . S
C594 N595 1.342 . S
C594 C598 1.401 . S
C594 C599 1.499 . S
N595 Co578 1.989 . S
N595 C594 1.342 . S
N595 N596 1.388 . S
N596 Co579 1.993 . S
N596 N595 1.388 . S
N596 C597 1.346 1_554 S
C597 N596 1.346 1_556 S
C597 C598 1.396 1_556 S
C597 C607 1.510 . S
C598 C594 1.401 . S
C598 C597 1.396 1_554 S
C599 C594 1.499 . S
C599 H600 0.959 . S
C599 H601 0.960 . S
C599 H602 0.961 . S
H600 C599 0.959 . S
H601 C599 0.960 . S
H602 C599 0.961 . S
O603 Co578 1.967 . S
O603 C611 1.258 . S
O604 Co579 1.941 . S
O604 C611 1.266 . S
H605 C607 0.959 . S
H606 C607 0.961 . S
C607 C597 1.510 . S
C607 H605 0.959 . S
C607 H606 0.961 . S
C607 H608 0.960 . S
H608 C607 0.960 . S
H609 N589 0.862 . S
O610 Co578 1.920 . S
O610 C583 1.289 . S
C611 O603 1.258 . S
C611 O604 1.266 . S
Co612 O615 1.970 . S
Co612 N629 1.989 . S
Co612 O637 1.967 . S
Co612 O644 1.920 . S
Co613 O616 1.966 . S
Co613 N622 2.022 . S
Co613 N630 1.993 . S
Co613 O638 1.941 . S
C614 O615 1.258 . S
C614 O616 1.263 . S
O615 Co612 1.970 . S
O615 C614 1.258 . S
O616 Co613 1.966 . S
O616 C614 1.263 . S
C617 O618 1.235 . S
C617 O644 1.289 . S
O618 C617 1.235 . S
C619 C621 1.400 . S
C619 N622 1.351 . S
C619 C624 1.501 . S
C620 C621 1.387 . S
C620 N623 1.341 . S
C621 C619 1.400 . S
C621 C620 1.387 . S
N622 Co613 2.022 . S
N622 C619 1.351 . S
N622 N623 1.365 . S
N623 C620 1.341 . S
N623 N622 1.365 . S
N623 H643 0.862 . S
C624 C619 1.501 . S
C624 H625 0.961 . S
C624 H626 0.961 . S
C624 H627 0.960 . S
H625 C624 0.961 . S
H626 C624 0.961 . S
H627 C624 0.960 . S
C628 N629 1.342 . S
C628 C632 1.401 . S
C628 C633 1.499 . S
N629 Co612 1.989 . S
N629 C628 1.342 . S
N629 N630 1.388 . S
N630 Co613 1.993 . S
N630 N629 1.388 . S
N630 C631 1.346 . S
C631 N630 1.346 . S
C631 C632 1.396 . S
C631 C641 1.510 . S
C632 C628 1.401 . S
C632 C631 1.396 . S
C633 C628 1.499 . S
C633 H634 0.959 . S
C633 H635 0.960 . S
C633 H636 0.961 . S
H634 C633 0.959 . S
H635 C633 0.960 . S
H636 C633 0.961 . S
O637 Co612 1.967 . S
O637 C645 1.258 . S
O638 Co613 1.941 . S
O638 C645 1.266 . S
H639 C641 0.959 . S
H640 C641 0.961 . S
C641 C631 1.510 . S
C641 H639 0.959 . S
C641 H640 0.961 . S
C641 H642 0.960 . S
H642 C641 0.960 . S
H643 N623 0.862 . S
O644 Co612 1.920 . S
O644 C617 1.289 . S
C645 O637 1.258 . S
C645 O638 1.266 . S
Co646 O649 1.970 1_655 S
Co646 N663 1.989 . S
Co646 O671 1.967 . S
Co646 O678 1.920 1_655 S
Co647 O650 1.966 . S
Co647 N656 2.022 . S
Co647 N664 1.993 . S
Co647 O672 1.941 . S
C648 O649 1.258 1_655 S
C648 O650 1.263 . S
O649 Co646 1.970 1_455 S
O649 C648 1.258 1_455 S
O650 Co647 1.966 . S
O650 C648 1.263 . S
C651 O652 1.235 . S
C651 O678 1.289 . S
O652 C651 1.235 . S
C653 C655 1.400 . S
C653 N656 1.351 . S
C653 C658 1.501 . S
C654 C655 1.387 . S
C654 N657 1.341 . S
C655 C653 1.400 . S
C655 C654 1.387 . S
N656 Co647 2.022 . S
N656 C653 1.351 . S
N656 N657 1.365 . S
N657 C654 1.341 . S
N657 N656 1.365 . S
N657 H677 0.862 . S
C658 C653 1.501 . S
C658 H659 0.961 . S
C658 H660 0.961 . S
C658 H661 0.960 . S
H659 C658 0.961 . S
H660 C658 0.961 . S
H661 C658 0.960 . S
C662 N663 1.342 . S
C662 C666 1.401 . S
C662 C667 1.499 1_655 S
N663 Co646 1.989 . S
N663 C662 1.342 . S
N663 N664 1.388 . S
N664 Co647 1.993 . S
N664 N663 1.388 . S
N664 C665 1.346 . S
C665 N664 1.346 . S
C665 C666 1.396 . S
C665 C675 1.510 . S
C666 C662 1.401 . S
C666 C665 1.396 . S
C667 C662 1.499 1_455 S
C667 H668 0.959 . S
C667 H669 0.960 . S
C667 H670 0.961 . S
H668 C667 0.959 . S
H669 C667 0.960 . S
H670 C667 0.961 . S
O671 Co646 1.967 . S
O671 C679 1.258 . S
O672 Co647 1.941 . S
O672 C679 1.266 . S
H673 C675 0.959 . S
H674 C675 0.961 . S
C675 C665 1.510 . S
C675 H673 0.959 . S
C675 H674 0.961 . S
C675 H676 0.960 . S
H676 C675 0.960 . S
H677 N657 0.862 . S
O678 Co646 1.920 1_455 S
O678 C651 1.289 . S
C679 O671 1.258 . S
C679 O672 1.266 . S
Co680 O683 1.970 . S
Co680 N697 1.989 . S
Co680 O705 1.967 . S
Co680 O712 1.920 . S
Co681 O684 1.966 . S
Co681 N690 2.022 . S
Co681 N698 1.993 . S
Co681 O706 1.941 . S
C682 O683 1.258 . S
C682 O684 1.263 . S
O683 Co680 1.970 . S
O683 C682 1.258 . S
O684 Co681 1.966 . S
O684 C682 1.263 . S
C685 O686 1.235 . S
C685 O712 1.289 . S
O686 C685 1.235 . S
C687 C689 1.400 . S
C687 N690 1.351 . S
C687 C692 1.501 . S
C688 C689 1.387 . S
C688 N691 1.341 . S
C689 C687 1.400 . S
C689 C688 1.387 . S
N690 Co681 2.022 . S
N690 C687 1.351 . S
N690 N691 1.365 . S
N691 C688 1.341 . S
N691 N690 1.365 . S
N691 H711 0.862 . S
C692 C687 1.501 . S
C692 H693 0.961 . S
C692 H694 0.961 . S
C692 H695 0.960 . S
H693 C692 0.961 . S
H694 C692 0.961 . S
H695 C692 0.960 . S
C696 N697 1.342 . S
C696 C700 1.401 . S
C696 C701 1.499 . S
N697 Co680 1.989 . S
N697 C696 1.342 . S
N697 N698 1.388 . S
N698 Co681 1.993 . S
N698 N697 1.388 . S
N698 C699 1.346 . S
C699 N698 1.346 . S
C699 C700 1.396 . S
C699 C709 1.510 . S
C700 C696 1.401 . S
C700 C699 1.396 . S
C701 C696 1.499 . S
C701 H702 0.959 . S
C701 H703 0.960 . S
C701 H704 0.961 . S
H702 C701 0.959 . S
H703 C701 0.960 . S
H704 C701 0.961 . S
O705 Co680 1.967 . S
O705 C713 1.258 . S
O706 Co681 1.941 . S
O706 C713 1.266 . S
H707 C709 0.959 . S
H708 C709 0.961 . S
C709 C699 1.510 . S
C709 H707 0.959 . S
C709 H708 0.961 . S
C709 H710 0.960 . S
H710 C709 0.960 . S
H711 N691 0.862 . S
O712 Co680 1.920 . S
O712 C685 1.289 . S
C713 O705 1.258 . S
C713 O706 1.266 . S
Co714 O717 1.970 1_655 S
Co714 N731 1.989 . S
Co714 O739 1.967 . S
Co714 O746 1.920 1_655 S
Co715 O718 1.966 . S
Co715 N724 2.022 1_556 S
Co715 N732 1.993 . S
Co715 O740 1.941 . S
C716 O717 1.258 1_655 S
C716 O718 1.263 . S
O717 Co714 1.970 1_455 S
O717 C716 1.258 1_455 S
O718 Co715 1.966 . S
O718 C716 1.263 . S
C719 O720 1.235 . S
C719 O746 1.289 . S
O720 C719 1.235 . S
C721 C723 1.400 . S
C721 N724 1.351 . S
C721 C726 1.501 . S
C722 C723 1.387 . S
C722 N725 1.341 . S
C723 C721 1.400 . S
C723 C722 1.387 . S
N724 Co715 2.022 1_554 S
N724 C721 1.351 . S
N724 N725 1.365 . S
N725 C722 1.341 . S
N725 N724 1.365 . S
N725 H745 0.862 . S
C726 C721 1.501 . S
C726 H727 0.961 . S
C726 H728 0.961 . S
C726 H729 0.960 . S
H727 C726 0.961 . S
H728 C726 0.961 . S
H729 C726 0.960 . S
C730 N731 1.342 . S
C730 C734 1.401 . S
C730 C735 1.499 1_655 S
N731 Co714 1.989 . S
N731 C730 1.342 . S
N731 N732 1.388 . S
N732 Co715 1.993 . S
N732 N731 1.388 . S
N732 C733 1.346 1_556 S
C733 N732 1.346 1_554 S
C733 C734 1.396 1_554 S
C733 C743 1.510 . S
C734 C730 1.401 . S
C734 C733 1.396 1_556 S
C735 C730 1.499 1_455 S
C735 H736 0.959 . S
C735 H737 0.960 . S
C735 H738 0.961 . S
H736 C735 0.959 . S
H737 C735 0.960 . S
H738 C735 0.961 . S
O739 Co714 1.967 . S
O739 C747 1.258 . S
O740 Co715 1.941 . S
O740 C747 1.266 . S
H741 C743 0.959 . S
H742 C743 0.961 . S
C743 C733 1.510 . S
C743 H741 0.959 . S
C743 H742 0.961 . S
C743 H744 0.960 . S
H744 C743 0.960 . S
H745 N725 0.862 . S
O746 Co714 1.920 1_455 S
O746 C719 1.289 . S
C747 O739 1.258 . S
C747 O740 1.266 . S
Co748 O751 1.970 . S
Co748 N765 1.989 . S
Co748 O773 1.967 . S
Co748 O780 1.920 . S
Co749 O752 1.966 . S
Co749 N758 2.022 . S
Co749 N766 1.993 . S
Co749 O774 1.941 . S
C750 O751 1.258 . S
C750 O752 1.263 . S
O751 Co748 1.970 . S
O751 C750 1.258 . S
O752 Co749 1.966 . S
O752 C750 1.263 . S
C753 O754 1.235 . S
C753 O780 1.289 . S
O754 C753 1.235 . S
C755 C757 1.400 . S
C755 N758 1.351 . S
C755 C760 1.501 . S
C756 C757 1.387 . S
C756 N759 1.341 . S
C757 C755 1.400 . S
C757 C756 1.387 . S
N758 Co749 2.022 . S
N758 C755 1.351 . S
N758 N759 1.365 . S
N759 C756 1.341 . S
N759 N758 1.365 . S
N759 H779 0.862 . S
C760 C755 1.501 . S
C760 H761 0.961 . S
C760 H762 0.961 . S
C760 H763 0.960 . S
H761 C760 0.961 . S
H762 C760 0.961 . S
H763 C760 0.960 . S
C764 N765 1.342 . S
C764 C768 1.401 . S
C764 C769 1.499 . S
N765 Co748 1.989 . S
N765 C764 1.342 . S
N765 N766 1.388 . S
N766 Co749 1.993 . S
N766 N765 1.388 . S
N766 C767 1.346 . S
C767 N766 1.346 . S
C767 C768 1.396 . S
C767 C777 1.510 . S
C768 C764 1.401 . S
C768 C767 1.396 . S
C769 C764 1.499 . S
C769 H770 0.959 . S
C769 H771 0.960 . S
C769 H772 0.961 . S
H770 C769 0.959 . S
H771 C769 0.960 . S
H772 C769 0.961 . S
O773 Co748 1.967 . S
O773 C781 1.258 . S
O774 Co749 1.941 . S
O774 C781 1.266 . S
H775 C777 0.959 . S
H776 C777 0.961 . S
C777 C767 1.510 . S
C777 H775 0.959 . S
C777 H776 0.961 . S
C777 H778 0.960 . S
H778 C777 0.960 . S
H779 N759 0.862 . S
O780 Co748 1.920 . S
O780 C753 1.289 . S
C781 O773 1.258 . S
C781 O774 1.266 . S
Co782 O785 1.970 . S
Co782 N799 1.989 . S
Co782 O807 1.967 . S
Co782 O814 1.920 . S
Co783 O786 1.966 . S
Co783 N792 2.022 . S
Co783 N800 1.993 . S
Co783 O808 1.941 . S
C784 O785 1.258 . S
C784 O786 1.263 . S
O785 Co782 1.970 . S
O785 C784 1.258 . S
O786 Co783 1.966 . S
O786 C784 1.263 . S
C787 O788 1.235 . S
C787 O814 1.289 . S
O788 C787 1.235 . S
C789 C791 1.400 . S
C789 N792 1.351 . S
C789 C794 1.501 . S
C790 C791 1.387 . S
C790 N793 1.341 . S
C791 C789 1.400 . S
C791 C790 1.387 . S
N792 Co783 2.022 . S
N792 C789 1.351 . S
N792 N793 1.365 . S
N793 C790 1.341 . S
N793 N792 1.365 . S
N793 H813 0.862 . S
C794 C789 1.501 . S
C794 H795 0.961 . S
C794 H796 0.961 . S
C794 H797 0.960 . S
H795 C794 0.961 . S
H796 C794 0.961 . S
H797 C794 0.960 . S
C798 N799 1.342 . S
C798 C802 1.401 . S
C798 C803 1.499 . S
N799 Co782 1.989 . S
N799 C798 1.342 . S
N799 N800 1.388 . S
N800 Co783 1.993 . S
N800 N799 1.388 . S
N800 C801 1.346 . S
C801 N800 1.346 . S
C801 C802 1.396 . S
C801 C811 1.510 . S
C802 C798 1.401 . S
C802 C801 1.396 . S
C803 C798 1.499 . S
C803 H804 0.959 . S
C803 H805 0.960 . S
C803 H806 0.961 . S
H804 C803 0.959 . S
H805 C803 0.960 . S
H806 C803 0.961 . S
O807 Co782 1.967 . S
O807 C815 1.258 . S
O808 Co783 1.941 . S
O808 C815 1.266 . S
H809 C811 0.959 . S
H810 C811 0.961 . S
C811 C801 1.510 . S
C811 H809 0.959 . S
C811 H810 0.961 . S
C811 H812 0.960 . S
H812 C811 0.960 . S
H813 N793 0.862 . S
O814 Co782 1.920 . S
O814 C787 1.289 . S
C815 O807 1.258 . S
C815 O808 1.266 . S
Co816 O819 1.970 . S
Co816 N833 1.989 . S
Co816 O841 1.967 . S
Co816 O848 1.920 . S
Co817 O820 1.966 . S
Co817 N826 2.022 . S
Co817 N834 1.993 . S
Co817 O842 1.941 . S
C818 O819 1.258 . S
C818 O820 1.263 . S
O819 Co816 1.970 . S
O819 C818 1.258 . S
O820 Co817 1.966 . S
O820 C818 1.263 . S
C821 O822 1.235 . S
C821 O848 1.289 . S
O822 C821 1.235 . S
C823 C825 1.400 . S
C823 N826 1.351 . S
C823 C828 1.501 . S
C824 C825 1.387 . S
C824 N827 1.341 . S
C825 C823 1.400 . S
C825 C824 1.387 . S
N826 Co817 2.022 . S
N826 C823 1.351 . S
N826 N827 1.365 . S
N827 C824 1.341 . S
N827 N826 1.365 . S
N827 H847 0.862 . S
C828 C823 1.501 . S
C828 H829 0.961 . S
C828 H830 0.961 . S
C828 H831 0.960 . S
H829 C828 0.961 . S
H830 C828 0.961 . S
H831 C828 0.960 . S
C832 N833 1.342 . S
C832 C836 1.401 . S
C832 C837 1.499 . S
N833 Co816 1.989 . S
N833 C832 1.342 . S
N833 N834 1.388 . S
N834 Co817 1.993 . S
N834 N833 1.388 . S
N834 C835 1.346 . S
C835 N834 1.346 . S
C835 C836 1.396 . S
C835 C845 1.510 . S
C836 C832 1.401 . S
C836 C835 1.396 . S
C837 C832 1.499 . S
C837 H838 0.959 . S
C837 H839 0.960 . S
C837 H840 0.961 . S
H838 C837 0.959 . S
H839 C837 0.960 . S
H840 C837 0.961 . S
O841 Co816 1.967 . S
O841 C849 1.258 . S
O842 Co817 1.941 . S
O842 C849 1.266 . S
H843 C845 0.959 . S
H844 C845 0.961 . S
C845 C835 1.510 . S
C845 H843 0.959 . S
C845 H844 0.961 . S
C845 H846 0.960 . S
H846 C845 0.960 . S
H847 N827 0.862 . S
O848 Co816 1.920 . S
O848 C821 1.289 . S
C849 O841 1.258 . S
C849 O842 1.266 . S
Co850 O853 1.970 . S
Co850 N867 1.989 . S
Co850 O875 1.967 . S
Co850 O882 1.920 . S
Co851 O854 1.966 . S
Co851 N860 2.022 1_556 S
Co851 N868 1.993 . S
Co851 O876 1.941 . S
C852 O853 1.258 . S
C852 O854 1.263 . S
O853 Co850 1.970 . S
O853 C852 1.258 . S
O854 Co851 1.966 . S
O854 C852 1.263 . S
C855 O856 1.235 . S
C855 O882 1.289 . S
O856 C855 1.235 . S
C857 C859 1.400 . S
C857 N860 1.351 . S
C857 C862 1.501 . S
C858 C859 1.387 . S
C858 N861 1.341 . S
C859 C857 1.400 . S
C859 C858 1.387 . S
N860 Co851 2.022 1_554 S
N860 C857 1.351 . S
N860 N861 1.365 . S
N861 C858 1.341 . S
N861 N860 1.365 . S
N861 H881 0.862 . S
C862 C857 1.501 . S
C862 H863 0.961 . S
C862 H864 0.961 . S
C862 H865 0.960 . S
H863 C862 0.961 . S
H864 C862 0.961 . S
H865 C862 0.960 . S
C866 N867 1.342 . S
C866 C870 1.401 . S
C866 C871 1.499 . S
N867 Co850 1.989 . S
N867 C866 1.342 . S
N867 N868 1.388 . S
N868 Co851 1.993 . S
N868 N867 1.388 . S
N868 C869 1.346 1_556 S
C869 N868 1.346 1_554 S
C869 C870 1.396 1_554 S
C869 C879 1.510 . S
C870 C866 1.401 . S
C870 C869 1.396 1_556 S
C871 C866 1.499 . S
C871 H872 0.959 . S
C871 H873 0.960 . S
C871 H874 0.961 . S
H872 C871 0.959 . S
H873 C871 0.960 . S
H874 C871 0.961 . S
O875 Co850 1.967 . S
O875 C883 1.258 . S
O876 Co851 1.941 . S
O876 C883 1.266 . S
H877 C879 0.959 . S
H878 C879 0.961 . S
C879 C869 1.510 . S
C879 H877 0.959 . S
C879 H878 0.961 . S
C879 H880 0.960 . S
H880 C879 0.960 . S
H881 N861 0.862 . S
O882 Co850 1.920 . S
O882 C855 1.289 . S
C883 O875 1.258 . S
C883 O876 1.266 . S
Co884 O887 1.970 . S
Co884 N901 1.989 . S
Co884 O909 1.967 . S
Co884 O916 1.920 . S
Co885 O888 1.966 . S
Co885 N894 2.022 . S
Co885 N902 1.993 . S
Co885 O910 1.941 . S
C886 O887 1.258 . S
C886 O888 1.263 . S
O887 Co884 1.970 . S
O887 C886 1.258 . S
O888 Co885 1.966 . S
O888 C886 1.263 . S
C889 O890 1.235 . S
C889 O916 1.289 . S
O890 C889 1.235 . S
C891 C893 1.400 . S
C891 N894 1.351 . S
C891 C896 1.501 . S
C892 C893 1.387 . S
C892 N895 1.341 . S
C893 C891 1.400 . S
C893 C892 1.387 . S
N894 Co885 2.022 . S
N894 C891 1.351 . S
N894 N895 1.365 . S
N895 C892 1.341 . S
N895 N894 1.365 . S
N895 H915 0.862 . S
C896 C891 1.501 . S
C896 H897 0.961 . S
C896 H898 0.961 . S
C896 H899 0.960 . S
H897 C896 0.961 . S
H898 C896 0.961 . S
H899 C896 0.960 . S
C900 N901 1.342 . S
C900 C904 1.401 . S
C900 C905 1.499 . S
N901 Co884 1.989 . S
N901 C900 1.342 . S
N901 N902 1.388 . S
N902 Co885 1.993 . S
N902 N901 1.388 . S
N902 C903 1.346 . S
C903 N902 1.346 . S
C903 C904 1.396 . S
C903 C913 1.510 . S
C904 C900 1.401 . S
C904 C903 1.396 . S
C905 C900 1.499 . S
C905 H906 0.959 . S
C905 H907 0.960 . S
C905 H908 0.961 . S
H906 C905 0.959 . S
H907 C905 0.960 . S
H908 C905 0.961 . S
O909 Co884 1.967 . S
O909 C917 1.258 . S
O910 Co885 1.941 . S
O910 C917 1.266 . S
H911 C913 0.959 . S
H912 C913 0.961 . S
C913 C903 1.510 . S
C913 H911 0.959 . S
C913 H912 0.961 . S
C913 H914 0.960 . S
H914 C913 0.960 . S
H915 N895 0.862 . S
O916 Co884 1.920 . S
O916 C889 1.289 . S
C917 O909 1.258 . S
C917 O910 1.266 . S
Co918 O921 1.970 1_455 S
Co918 N935 1.989 . S
Co918 O943 1.967 . S
Co918 O950 1.920 1_455 S
Co919 O922 1.966 . S
Co919 N928 2.022 . S
Co919 N936 1.993 . S
Co919 O944 1.941 . S
C920 O921 1.258 1_455 S
C920 O922 1.263 . S
O921 Co918 1.970 1_655 S
O921 C920 1.258 1_655 S
O922 Co919 1.966 . S
O922 C920 1.263 . S
C923 O924 1.235 . S
C923 O950 1.289 . S
O924 C923 1.235 . S
C925 C927 1.400 . S
C925 N928 1.351 . S
C925 C930 1.501 . S
C926 C927 1.387 . S
C926 N929 1.341 . S
C927 C925 1.400 . S
C927 C926 1.387 . S
N928 Co919 2.022 . S
N928 C925 1.351 . S
N928 N929 1.365 . S
N929 C926 1.341 . S
N929 N928 1.365 . S
N929 H949 0.862 . S
C930 C925 1.501 . S
C930 H931 0.961 . S
C930 H932 0.961 . S
C930 H933 0.960 . S
H931 C930 0.961 . S
H932 C930 0.961 . S
H933 C930 0.960 . S
C934 N935 1.342 . S
C934 C938 1.401 . S
C934 C939 1.499 1_455 S
N935 Co918 1.989 . S
N935 C934 1.342 . S
N935 N936 1.388 . S
N936 Co919 1.993 . S
N936 N935 1.388 . S
N936 C937 1.346 . S
C937 N936 1.346 . S
C937 C938 1.396 . S
C937 C947 1.510 . S
C938 C934 1.401 . S
C938 C937 1.396 . S
C939 C934 1.499 1_655 S
C939 H940 0.959 . S
C939 H941 0.960 . S
C939 H942 0.961 . S
H940 C939 0.959 . S
H941 C939 0.960 . S
H942 C939 0.961 . S
O943 Co918 1.967 . S
O943 C951 1.258 . S
O944 Co919 1.941 . S
O944 C951 1.266 . S
H945 C947 0.959 . S
H946 C947 0.961 . S
C947 C937 1.510 . S
C947 H945 0.959 . S
C947 H946 0.961 . S
C947 H948 0.960 . S
H948 C947 0.960 . S
H949 N929 0.862 . S
O950 Co918 1.920 1_655 S
O950 C923 1.289 . S
C951 O943 1.258 . S
C951 O944 1.266 . S
Co952 O955 1.970 . S
Co952 N969 1.989 . S
Co952 O977 1.967 . S
Co952 O984 1.920 . S
Co953 O956 1.966 . S
Co953 N962 2.022 . S
Co953 N970 1.993 . S
Co953 O978 1.941 . S
C954 O955 1.258 . S
C954 O956 1.263 . S
O955 Co952 1.970 . S
O955 C954 1.258 . S
O956 Co953 1.966 . S
O956 C954 1.263 . S
C957 O958 1.235 . S
C957 O984 1.289 . S
O958 C957 1.235 . S
C959 C961 1.400 . S
C959 N962 1.351 . S
C959 C964 1.501 . S
C960 C961 1.387 . S
C960 N963 1.341 . S
C961 C959 1.400 . S
C961 C960 1.387 . S
N962 Co953 2.022 . S
N962 C959 1.351 . S
N962 N963 1.365 . S
N963 C960 1.341 . S
N963 N962 1.365 . S
N963 H983 0.862 . S
C964 C959 1.501 . S
C964 H965 0.961 . S
C964 H966 0.961 . S
C964 H967 0.960 . S
H965 C964 0.961 . S
H966 C964 0.961 . S
H967 C964 0.960 . S
C968 N969 1.342 . S
C968 C972 1.401 . S
C968 C973 1.499 . S
N969 Co952 1.989 . S
N969 C968 1.342 . S
N969 N970 1.388 . S
N970 Co953 1.993 . S
N970 N969 1.388 . S
N970 C971 1.346 . S
C971 N970 1.346 . S
C971 C972 1.396 . S
C971 C981 1.510 . S
C972 C968 1.401 . S
C972 C971 1.396 . S
C973 C968 1.499 . S
C973 H974 0.959 . S
C973 H975 0.960 . S
C973 H976 0.961 . S
H974 C973 0.959 . S
H975 C973 0.960 . S
H976 C973 0.961 . S
O977 Co952 1.967 . S
O977 C985 1.258 . S
O978 Co953 1.941 . S
O978 C985 1.266 . S
H979 C981 0.959 . S
H980 C981 0.961 . S
C981 C971 1.510 . S
C981 H979 0.959 . S
C981 H980 0.961 . S
C981 H982 0.960 . S
H982 C981 0.960 . S
H983 N963 0.862 . S
O984 Co952 1.920 . S
O984 C957 1.289 . S
C985 O977 1.258 . S
C985 O978 1.266 . S
Co986 O989 1.970 1_455 S
Co986 N1003 1.989 . S
Co986 O1011 1.967 . S
Co986 O1018 1.920 1_455 S
Co987 O990 1.966 . S
Co987 N996 2.022 1_554 S
Co987 N1004 1.993 . S
Co987 O1012 1.941 . S
C988 O989 1.258 1_455 S
C988 O990 1.263 . S
O989 Co986 1.970 1_655 S
O989 C988 1.258 1_655 S
O990 Co987 1.966 . S
O990 C988 1.263 . S
C991 O992 1.235 . S
C991 O1018 1.289 . S
O992 C991 1.235 . S
C993 C995 1.400 . S
C993 N996 1.351 . S
C993 C998 1.501 . S
C994 C995 1.387 . S
C994 N997 1.341 . S
C995 C993 1.400 . S
C995 C994 1.387 . S
N996 Co987 2.022 1_556 S
N996 C993 1.351 . S
N996 N997 1.365 . S
N997 C994 1.341 . S
N997 N996 1.365 . S
N997 H1017 0.862 . S
C998 C993 1.501 . S
C998 H999 0.961 . S
C998 H1000 0.961 . S
C998 H1001 0.960 . S
H999 C998 0.961 . S
H1000 C998 0.961 . S
H1001 C998 0.960 . S
C1002 N1003 1.342 . S
C1002 C1006 1.401 . S
C1002 C1007 1.499 1_455 S
N1003 Co986 1.989 . S
N1003 C1002 1.342 . S
N1003 N1004 1.388 . S
N1004 Co987 1.993 . S
N1004 N1003 1.388 . S
N1004 C1005 1.346 1_554 S
C1005 N1004 1.346 1_556 S
C1005 C1006 1.396 1_556 S
C1005 C1015 1.510 . S
C1006 C1002 1.401 . S
C1006 C1005 1.396 1_554 S
C1007 C1002 1.499 1_655 S
C1007 H1008 0.959 . S
C1007 H1009 0.960 . S
C1007 H1010 0.961 . S
H1008 C1007 0.959 . S
H1009 C1007 0.960 . S
H1010 C1007 0.961 . S
O1011 Co986 1.967 . S
O1011 C1019 1.258 . S
O1012 Co987 1.941 . S
O1012 C1019 1.266 . S
H1013 C1015 0.959 . S
H1014 C1015 0.961 . S
C1015 C1005 1.510 . S
C1015 H1013 0.959 . S
C1015 H1014 0.961 . S
C1015 H1016 0.960 . S
H1016 C1015 0.960 . S
H1017 N997 0.862 . S
O1018 Co986 1.920 1_655 S
O1018 C991 1.289 . S
C1019 O1011 1.258 . S
C1019 O1012 1.266 . S
Co1020 O1023 1.970 . S
Co1020 N1037 1.989 . S
Co1020 O1045 1.967 . S
Co1020 O1052 1.920 . S
Co1021 O1024 1.966 . S
Co1021 N1030 2.022 . S
Co1021 N1038 1.993 . S
Co1021 O1046 1.941 . S
C1022 O1023 1.258 . S
C1022 O1024 1.263 . S
O1023 Co1020 1.970 . S
O1023 C1022 1.258 . S
O1024 Co1021 1.966 . S
O1024 C1022 1.263 . S
C1025 O1026 1.235 . S
C1025 O1052 1.289 . S
O1026 C1025 1.235 . S
C1027 C1029 1.400 . S
C1027 N1030 1.351 . S
C1027 C1032 1.501 . S
C1028 C1029 1.387 . S
C1028 N1031 1.341 . S
C1029 C1027 1.400 . S
C1029 C1028 1.387 . S
N1030 Co1021 2.022 . S
N1030 C1027 1.351 . S
N1030 N1031 1.365 . S
N1031 C1028 1.341 . S
N1031 N1030 1.365 . S
N1031 H1051 0.862 . S
C1032 C1027 1.501 . S
C1032 H1033 0.961 . S
C1032 H1034 0.961 . S
C1032 H1035 0.960 . S
H1033 C1032 0.961 . S
H1034 C1032 0.961 . S
H1035 C1032 0.960 . S
C1036 N1037 1.342 . S
C1036 C1040 1.401 . S
C1036 C1041 1.499 . S
N1037 Co1020 1.989 . S
N1037 C1036 1.342 . S
N1037 N1038 1.388 . S
N1038 Co1021 1.993 . S
N1038 N1037 1.388 . S
N1038 C1039 1.346 . S
C1039 N1038 1.346 . S
C1039 C1040 1.396 . S
C1039 C1049 1.510 . S
C1040 C1036 1.401 . S
C1040 C1039 1.396 . S
C1041 C1036 1.499 . S
C1041 H1042 0.959 . S
C1041 H1043 0.960 . S
C1041 H1044 0.961 . S
H1042 C1041 0.959 . S
H1043 C1041 0.960 . S
H1044 C1041 0.961 . S
O1045 Co1020 1.967 . S
O1045 C1053 1.258 . S
O1046 Co1021 1.941 . S
O1046 C1053 1.266 . S
H1047 C1049 0.959 . S
H1048 C1049 0.961 . S
C1049 C1039 1.510 . S
C1049 H1047 0.959 . S
C1049 H1048 0.961 . S
C1049 H1050 0.960 . S
H1050 C1049 0.960 . S
H1051 N1031 0.862 . S
O1052 Co1020 1.920 . S
O1052 C1025 1.289 . S
C1053 O1045 1.258 . S
C1053 O1046 1.266 . S
Co1054 O1057 1.970 . S
Co1054 N1071 1.989 . S
Co1054 O1079 1.967 . S
Co1054 O1086 1.920 . S
Co1055 O1058 1.966 . S
Co1055 N1064 2.022 . S
Co1055 N1072 1.993 . S
Co1055 O1080 1.941 . S
C1056 O1057 1.258 . S
C1056 O1058 1.263 . S
O1057 Co1054 1.970 . S
O1057 C1056 1.258 . S
O1058 Co1055 1.966 . S
O1058 C1056 1.263 . S
C1059 O1060 1.235 . S
C1059 O1086 1.289 . S
O1060 C1059 1.235 . S
C1061 C1063 1.400 . S
C1061 N1064 1.351 . S
C1061 C1066 1.501 . S
C1062 C1063 1.387 . S
C1062 N1065 1.341 . S
C1063 C1061 1.400 . S
C1063 C1062 1.387 . S
N1064 Co1055 2.022 . S
N1064 C1061 1.351 . S
N1064 N1065 1.365 . S
N1065 C1062 1.341 . S
N1065 N1064 1.365 . S
N1065 H1085 0.862 . S
C1066 C1061 1.501 . S
C1066 H1067 0.961 . S
C1066 H1068 0.961 . S
C1066 H1069 0.960 . S
H1067 C1066 0.961 . S
H1068 C1066 0.961 . S
H1069 C1066 0.960 . S
C1070 N1071 1.342 . S
C1070 C1074 1.401 . S
C1070 C1075 1.499 . S
N1071 Co1054 1.989 . S
N1071 C1070 1.342 . S
N1071 N1072 1.388 . S
N1072 Co1055 1.993 . S
N1072 N1071 1.388 . S
N1072 C1073 1.346 . S
C1073 N1072 1.346 . S
C1073 C1074 1.396 . S
C1073 C1083 1.510 . S
C1074 C1070 1.401 . S
C1074 C1073 1.396 . S
C1075 C1070 1.499 . S
C1075 H1076 0.959 . S
C1075 H1077 0.960 . S
C1075 H1078 0.961 . S
H1076 C1075 0.959 . S
H1077 C1075 0.960 . S
H1078 C1075 0.961 . S
O1079 Co1054 1.967 . S
O1079 C1087 1.258 . S
O1080 Co1055 1.941 . S
O1080 C1087 1.266 . S
H1081 C1083 0.959 . S
H1082 C1083 0.961 . S
C1083 C1073 1.510 . S
C1083 H1081 0.959 . S
C1083 H1082 0.961 . S
C1083 H1084 0.960 . S
H1084 C1083 0.960 . S
H1085 N1065 0.862 . S
O1086 Co1054 1.920 . S
O1086 C1059 1.289 . S
C1087 O1079 1.258 . S
C1087 O1080 1.266 . S
C247 C9 2.191 . S
C43 C145 2.191 . S
C77 C179 2.191 . S
C213 C111 2.191 . S
C519 C281 2.191 . S
C417 C315 2.191 . S
C349 C451 2.191 . S
C383 C485 2.191 . S
C791 C553 2.191 . S
C587 C689 2.191 . S
C621 C723 2.191 . S
C757 C655 2.191 . S
C1063 C825 2.191 . S
C859 C961 2.191 . S
C995 C893 2.191 . S
C1029 C927 2.191 . S
C614 C2 1.764 1_655 S
C648 C36 1.764 1_655 S
C70 C546 1.764 . S
C104 C580 1.764 . S
C750 C138 1.764 1_655 S
C784 C172 1.764 . S
C206 C682 1.764 . S
C240 C716 1.764 1_455 S
C274 C886 1.764 1_655 S
C920 C308 1.764 1_455 S
C818 C342 1.764 . S
C376 C852 1.764 . S
C410 C1022 1.764 1_655 S
C1056 C444 1.764 . S
C954 C478 1.764 . S
C988 C512 1.764 1_455 S
C5 C951 1.210 . S
C305 C39 1.210 . S
C883 C73 1.210 . S
C107 C373 1.210 . S
C1019 C141 1.210 . S
C509 C175 1.210 . S
C209 C1087 1.210 . S
C243 C441 1.210 . S
C277 C679 1.210 . S
C311 C33 1.210 . S
C611 C345 1.210 . S
C379 C101 1.210 . S
C747 C413 1.210 . S
C447 C237 1.210 . S
C481 C815 1.210 . S
C169 C515 1.210 . S
C549 C407 1.210 . S
C849 C583 1.210 . S
C339 C617 1.210 . S
C651 C917 1.210 . S
C685 C475 1.210 . S
C1053 C719 1.210 . S
C753 C543 1.210 . S
C985 C787 1.210 . S
C135 C821 1.210 . S
C577 C855 1.210 . S
C67 C889 1.210 . S
C645 C923 1.210 . S
C957 C203 1.210 . S
C781 C991 1.210 . S
C271 C1025 1.210 . S
C713 C1059 1.210 . S
C20 C836 1.985 . S
C54 C326 1.985 1_465 S
C904 C88 1.985 . S
C394 C122 1.985 1_566 S
C972 C156 1.985 . S
C462 C190 1.985 1_545 S
C1040 C224 1.985 . S
C530 C258 1.985 1_664 S
C292 C564 1.985 . S
C632 C360 1.985 . S
C428 C700 1.985 . S
C496 C768 1.985 . S
C870 C598 1.985 1_556 S
C666 C938 1.985 1_655 S
C1006 C734 1.985 1_454 S
C1074 C802 1.985 . S
