# Generated by pormake.
# Topology uto, (3)-cn, num edge types: 1
# Building blocks:
#     Node 0, Type 0, BuildingBlock: OLANEW_clean_sbu_2, # of connection points: 3
#     Node 1, Type 0, BuildingBlock: OLANEW_clean_sbu_2, # of connection points: 3
#     Node 2, Type 0, BuildingBlock: OLANEW_clean_sbu_2, # of connection points: 3
#     Node 3, Type 0, BuildingBlock: OLANEW_clean_sbu_2, # of connection points: 3
#     Node 4, Type 0, BuildingBlock: OLANEW_clean_sbu_2, # of connection points: 3
#     Node 5, Type 0, BuildingBlock: OLANEW_clean_sbu_2, # of connection points: 3
#     Node 6, Type 0, BuildingBlock: OLANEW_clean_sbu_2, # of connection points: 3
#     Node 7, Type 0, BuildingBlock: OLANEW_clean_sbu_2, # of connection points: 3
#     Node 8, Type 0, BuildingBlock: OLANEW_clean_sbu_2, # of connection points: 3
#     Node 9, Type 0, BuildingBlock: OLANEW_clean_sbu_2, # of connection points: 3
#     Node 10, Type 0, BuildingBlock: OLANEW_clean_sbu_2, # of connection points: 3
#     Node 11, Type 0, BuildingBlock: OLANEW_clean_sbu_2, # of connection points: 3
#     Node 12, Type 0, BuildingBlock: OLANEW_clean_sbu_2, # of connection points: 3
#     Node 13, Type 0, BuildingBlock: OLANEW_clean_sbu_2, # of connection points: 3
#     Node 14, Type 0, BuildingBlock: OLANEW_clean_sbu_2, # of connection points: 3
#     Node 15, Type 0, BuildingBlock: OLANEW_clean_sbu_2, # of connection points: 3
#     Node 16, Type 0, BuildingBlock: OLANEW_clean_sbu_2, # of connection points: 3
#     Node 17, Type 0, BuildingBlock: OLANEW_clean_sbu_2, # of connection points: 3
#     Node 18, Type 0, BuildingBlock: OLANEW_clean_sbu_2, # of connection points: 3
#     Node 19, Type 0, BuildingBlock: OLANEW_clean_sbu_2, # of connection points: 3
#     Node 20, Type 0, BuildingBlock: OLANEW_clean_sbu_2, # of connection points: 3
#     Node 21, Type 0, BuildingBlock: OLANEW_clean_sbu_2, # of connection points: 3
#     Node 22, Type 0, BuildingBlock: OLANEW_clean_sbu_2, # of connection points: 3
#     Node 23, Type 0, BuildingBlock: OLANEW_clean_sbu_2, # of connection points: 3
#     Node 24, Type 0, BuildingBlock: OLANEW_clean_sbu_2, # of connection points: 3
#     Node 25, Type 0, BuildingBlock: OLANEW_clean_sbu_2, # of connection points: 3
#     Node 26, Type 0, BuildingBlock: OLANEW_clean_sbu_2, # of connection points: 3
#     Node 27, Type 0, BuildingBlock: OLANEW_clean_sbu_2, # of connection points: 3
#     Node 28, Type 0, BuildingBlock: OLANEW_clean_sbu_2, # of connection points: 3
#     Node 29, Type 0, BuildingBlock: OLANEW_clean_sbu_2, # of connection points: 3
#     Node 30, Type 0, BuildingBlock: OLANEW_clean_sbu_2, # of connection points: 3
#     Node 31, Type 0, BuildingBlock: OLANEW_clean_sbu_2, # of connection points: 3
#     Edge 32, Type (0, 0), BuildingBlock: KIFKEQ_clean_linker_1, # of connection points: 2
#     Edge 33, Type (0, 0), BuildingBlock: KIFKEQ_clean_linker_1, # of connection points: 2
#     Edge 34, Type (0, 0), BuildingBlock: KIFKEQ_clean_linker_1, # of connection points: 2
#     Edge 35, Type (0, 0), BuildingBlock: KIFKEQ_clean_linker_1, # of connection points: 2
#     Edge 36, Type (0, 0), BuildingBlock: KIFKEQ_clean_linker_1, # of connection points: 2
#     Edge 37, Type (0, 0), BuildingBlock: KIFKEQ_clean_linker_1, # of connection points: 2
#     Edge 38, Type (0, 0), BuildingBlock: KIFKEQ_clean_linker_1, # of connection points: 2
#     Edge 39, Type (0, 0), BuildingBlock: KIFKEQ_clean_linker_1, # of connection points: 2
#     Edge 40, Type (0, 0), BuildingBlock: KIFKEQ_clean_linker_1, # of connection points: 2
#     Edge 41, Type (0, 0), BuildingBlock: KIFKEQ_clean_linker_1, # of connection points: 2
#     Edge 42, Type (0, 0), BuildingBlock: KIFKEQ_clean_linker_1, # of connection points: 2
#     Edge 43, Type (0, 0), BuildingBlock: KIFKEQ_clean_linker_1, # of connection points: 2
#     Edge 44, Type (0, 0), BuildingBlock: KIFKEQ_clean_linker_1, # of connection points: 2
#     Edge 45, Type (0, 0), BuildingBlock: KIFKEQ_clean_linker_1, # of connection points: 2
#     Edge 46, Type (0, 0), BuildingBlock: KIFKEQ_clean_linker_1, # of connection points: 2
#     Edge 47, Type (0, 0), BuildingBlock: KIFKEQ_clean_linker_1, # of connection points: 2
#     Edge 48, Type (0, 0), BuildingBlock: KIFKEQ_clean_linker_1, # of connection points: 2
#     Edge 49, Type (0, 0), BuildingBlock: KIFKEQ_clean_linker_1, # of connection points: 2
#     Edge 50, Type (0, 0), BuildingBlock: KIFKEQ_clean_linker_1, # of connection points: 2
#     Edge 51, Type (0, 0), BuildingBlock: KIFKEQ_clean_linker_1, # of connection points: 2
#     Edge 52, Type (0, 0), BuildingBlock: KIFKEQ_clean_linker_1, # of connection points: 2
#     Edge 53, Type (0, 0), BuildingBlock: KIFKEQ_clean_linker_1, # of connection points: 2
#     Edge 54, Type (0, 0), BuildingBlock: KIFKEQ_clean_linker_1, # of connection points: 2
#     Edge 55, Type (0, 0), BuildingBlock: KIFKEQ_clean_linker_1, # of connection points: 2
#     Edge 56, Type (0, 0), BuildingBlock: KIFKEQ_clean_linker_1, # of connection points: 2
#     Edge 57, Type (0, 0), BuildingBlock: KIFKEQ_clean_linker_1, # of connection points: 2
#     Edge 58, Type (0, 0), BuildingBlock: KIFKEQ_clean_linker_1, # of connection points: 2
#     Edge 59, Type (0, 0), BuildingBlock: KIFKEQ_clean_linker_1, # of connection points: 2
#     Edge 60, Type (0, 0), BuildingBlock: KIFKEQ_clean_linker_1, # of connection points: 2
#     Edge 61, Type (0, 0), BuildingBlock: KIFKEQ_clean_linker_1, # of connection points: 2
#     Edge 62, Type (0, 0), BuildingBlock: KIFKEQ_clean_linker_1, # of connection points: 2
#     Edge 63, Type (0, 0), BuildingBlock: KIFKEQ_clean_linker_1, # of connection points: 2
#     Edge 64, Type (0, 0), BuildingBlock: KIFKEQ_clean_linker_1, # of connection points: 2
#     Edge 65, Type (0, 0), BuildingBlock: KIFKEQ_clean_linker_1, # of connection points: 2
#     Edge 66, Type (0, 0), BuildingBlock: KIFKEQ_clean_linker_1, # of connection points: 2
#     Edge 67, Type (0, 0), BuildingBlock: KIFKEQ_clean_linker_1, # of connection points: 2
#     Edge 68, Type (0, 0), BuildingBlock: KIFKEQ_clean_linker_1, # of connection points: 2
#     Edge 69, Type (0, 0), BuildingBlock: KIFKEQ_clean_linker_1, # of connection points: 2
#     Edge 70, Type (0, 0), BuildingBlock: KIFKEQ_clean_linker_1, # of connection points: 2
#     Edge 71, Type (0, 0), BuildingBlock: KIFKEQ_clean_linker_1, # of connection points: 2
#     Edge 72, Type (0, 0), BuildingBlock: KIFKEQ_clean_linker_1, # of connection points: 2
#     Edge 73, Type (0, 0), BuildingBlock: KIFKEQ_clean_linker_1, # of connection points: 2
#     Edge 74, Type (0, 0), BuildingBlock: KIFKEQ_clean_linker_1, # of connection points: 2
#     Edge 75, Type (0, 0), BuildingBlock: KIFKEQ_clean_linker_1, # of connection points: 2
#     Edge 76, Type (0, 0), BuildingBlock: KIFKEQ_clean_linker_1, # of connection points: 2
#     Edge 77, Type (0, 0), BuildingBlock: KIFKEQ_clean_linker_1, # of connection points: 2
#     Edge 78, Type (0, 0), BuildingBlock: KIFKEQ_clean_linker_1, # of connection points: 2
#     Edge 79, Type (0, 0), BuildingBlock: KIFKEQ_clean_linker_1, # of connection points: 2
# Relax obj value: 0.003
# Max RMSD: 0.061
# Mean RMSD: 0.060
data_MOF--net-uto--node1-OLANEW_clean_sbu_2--edge1-KIFKEQ_clean_linker_1
_symmetry_space_group_name_H-M    P1
_symmetry_Int_Tables_number       1
_symmetry_cell_setting            triclinic
loop_
_symmetry_equiv_pos_as_xyz
'x, y, z'
_cell_length_a     56.387981
_cell_length_b     56.49465
_cell_length_c     88.942025
_cell_angle_alpha  90.021207
_cell_angle_beta   89.962738
_cell_angle_gamma 89.984344
loop_
_atom_site_label
_atom_site_type_symbol
_atom_site_fract_x
_atom_site_fract_y
_atom_site_fract_z
_atom_type_partial_charge
O0 O 0.2256 0.09312 0.27067 0.0
Cd1 Cd 0.24667 0.12232 0.28605 0.0
O2 O 0.21088 0.07513 0.29051 0.0
Cd3 Cd 0.22997 0.09693 0.30669 0.0
O4 O 0.25625 0.09465 0.32456 0.0
C5 C 0.27022 0.07711 0.32325 0.0
O6 O 0.26837 0.06357 0.31129 0.0
C7 C 0.21298 0.0767 0.27632 0.0
C8 C 0.25024 0.16753 0.27364 0.0
O9 O 0.26463 0.151 0.26985 0.0
O10 O 0.23379 0.16258 0.28309 0.0
O11 O 0.17189 0.96936 0.53165 0.0
Cd12 Cd 0.13916 0.97537 0.54941 0.0
O13 O 0.19694 0.9666 0.55051 0.0
Cd14 Cd 0.17269 0.97939 0.56775 0.0
O15 O 0.17126 0.00386 0.58665 0.0
C16 C 0.18628 0.02058 0.58583 0.0
O17 O 0.19962 0.02216 0.57375 0.0
C18 C 0.19274 0.96537 0.53649 0.0
C19 C 0.09569 0.9872 0.53649 0.0
O20 O 0.10979 0.00331 0.5413 0.0
O21 O 0.10235 0.96557 0.53754 0.0
O22 O 0.24588 0.90473 0.77234 0.0
Cd23 Cd 0.23148 0.86979 0.78596 0.0
O24 O 0.28036 0.90738 0.78373 0.0
Cd25 Cd 0.26898 0.88063 0.79981 0.0
O26 O 0.24642 0.88118 0.81972 0.0
C27 C 0.23117 0.89776 0.81954 0.0
O28 O 0.22976 0.91121 0.80752 0.0
C29 C 0.26583 0.91497 0.77393 0.0
C30 C 0.24337 0.82618 0.77321 0.0
O31 O 0.22514 0.83775 0.76874 0.0
O32 O 0.25628 0.83545 0.7835 0.0
O33 O 0.34819 0.01086 0.01977 0.0
Cd34 Cd 0.3812 0.99828 0.03582 0.0
O35 O 0.33172 0.03184 0.0378 0.0
Cd36 Cd 0.35547 0.01843 0.05512 0.0
O37 O 0.35237 0.99519 0.07456 0.0
C38 C 0.33589 0.97998 0.07325 0.0
O39 O 0.32416 0.97894 0.0605 0.0
C40 C 0.3318 0.02466 0.02425 0.0
C41 C 0.42487 0.99536 0.02108 0.0
O42 O 0.41053 0.97777 0.02128 0.0
O43 O 0.41842 0.01449 0.02768 0.0
O44 O 0.2138 0.91795 0.2153 0.0
Cd45 Cd 0.22675 0.88652 0.19811 0.0
O46 O 0.19306 0.93576 0.19769 0.0
Cd47 Cd 0.20615 0.91239 0.18008 0.0
O48 O 0.23239 0.90914 0.16222 0.0
C49 C 0.25039 0.92243 0.16387 0.0
O50 O 0.25198 0.93534 0.17613 0.0
C51 C 0.20013 0.93471 0.21124 0.0
C52 C 0.23583 0.84275 0.21145 0.0
O53 O 0.25207 0.85855 0.21043 0.0
O54 O 0.21514 0.84784 0.20643 0.0
O55 O 0.34535 0.97776 0.46602 0.0
Cd56 Cd 0.37597 0.98727 0.4474 0.0
O57 O 0.32834 0.95113 0.45156 0.0
Cd58 Cd 0.35041 0.96068 0.43241 0.0
O59 O 0.35206 0.98395 0.41293 0.0
C60 C 0.34004 0.00286 0.41433 0.0
O61 O 0.32941 0.00705 0.42721 0.0
C62 C 0.32935 0.96218 0.464 0.0
C63 C 0.4196 0.99976 0.45989 0.0
O64 O 0.40362 0.01538 0.45732 0.0
O65 O 0.41483 0.97814 0.45672 0.0
O66 O 0.25865 0.0882 0.72714 0.0
Cd67 Cd 0.24926 0.12175 0.71069 0.0
O68 O 0.29399 0.08121 0.71765 0.0
Cd69 Cd 0.28741 0.10724 0.70009 0.0
O70 O 0.26572 0.10689 0.67981 0.0
C71 C 0.24998 0.09078 0.68006 0.0
O72 O 0.24801 0.07763 0.69218 0.0
C73 C 0.27771 0.07611 0.727 0.0
C74 C 0.24264 0.16543 0.72472 0.0
O75 O 0.2259 0.1501 0.72413 0.0
O76 O 0.26277 0.15987 0.71901 0.0
O77 O 0.16367 0.01818 0.9693 0.0
Cd78 Cd 0.12811 0.00965 0.95438 0.0
O79 O 0.18442 0.02444 0.94873 0.0
Cd80 Cd 0.15817 0.01048 0.9331 0.0
O81 O 0.15607 0.986 0.91419 0.0
C82 C 0.1716 0.96969 0.91451 0.0
O83 O 0.18581 0.96842 0.92619 0.0
C84 C 0.18296 0.02438 0.96299 0.0
C85 C 0.08615 0.00593 0.97095 0.0
O86 O 0.09841 0.98752 0.96767 0.0
O87 O 0.09394 0.02613 0.96662 0.0
O88 O 0.81329 0.90668 0.74008 0.0
Cd89 Cd 0.83085 0.86889 0.73239 0.0
O90 O 0.79522 0.90722 0.71832 0.0
Cd91 Cd 0.7752 0.92313 0.69983 0.0
O92 O 0.7573 0.93747 0.68006 0.0
C93 C 0.75756 0.92576 0.66786 0.0
O94 O 0.76846 0.9052 0.66752 0.0
C95 C 0.79979 0.91722 0.73081 0.0
C96 C 0.81152 0.82827 0.74541 0.0
O97 O 0.82876 0.83932 0.75166 0.0
O98 O 0.803 0.8368 0.73319 0.0
O99 O 0.85624 0.03721 0.48952 0.0
Cd100 Cd 0.8941 0.03445 0.4761 0.0
O101 O 0.84429 0.01813 0.46959 0.0
Cd102 Cd 0.81924 0.00387 0.45321 0.0
O103 O 0.80331 0.99193 0.4322 0.0
C104 C 0.78943 0.00539 0.42489 0.0
O105 O 0.78398 0.02622 0.4305 0.0
C106 C 0.83942 0.02783 0.48212 0.0
C107 C 0.93479 0.02569 0.49298 0.0
O108 O 0.92866 0.0469 0.48962 0.0
O109 O 0.92123 0.00871 0.48879 0.0
O110 O 0.7173 0.10442 0.24186 0.0
Cd111 Cd 0.72133 0.14308 0.22965 0.0
O112 O 0.74799 0.09617 0.22788 0.0
Cd113 Cd 0.77338 0.07446 0.21545 0.0
O114 O 0.79491 0.06328 0.19637 0.0
C115 C 0.80363 0.04268 0.19483 0.0
O116 O 0.80015 0.02683 0.20541 0.0
C117 C 0.73227 0.08931 0.23716 0.0
C118 C 0.72711 0.18292 0.24777 0.0
O119 O 0.70646 0.1765 0.24331 0.0
O120 O 0.74489 0.16998 0.24411 0.0
O121 O 0.66417 0.97504 0.97171 0.0
Cd122 Cd 0.62832 0.97283 0.95618 0.0
O123 O 0.68691 0.9665 0.95233 0.0
Cd124 Cd 0.65913 0.96694 0.9353 0.0
O125 O 0.64905 0.97675 0.91248 0.0
C126 C 0.64948 0.99866 0.90929 0.0
O127 O 0.65401 0.01394 0.92005 0.0
C128 C 0.68466 0.97103 0.96626 0.0
C129 C 0.58582 0.97877 0.97194 0.0
O130 O 0.59548 0.95832 0.97064 0.0
O131 O 0.59647 0.99649 0.96599 0.0
O132 O 0.75081 0.10073 0.7448 0.0
Cd133 Cd 0.7327 0.13798 0.75309 0.0
O134 O 0.72623 0.08719 0.76168 0.0
Cd135 Cd 0.7103 0.06151 0.77703 0.0
O136 O 0.69539 0.04417 0.7968 0.0
C137 C 0.67969 0.05513 0.80434 0.0
O138 O 0.67254 0.07601 0.79966 0.0
C139 C 0.74205 0.08318 0.75181 0.0
C140 C 0.74775 0.18014 0.73986 0.0
O141 O 0.75775 0.17223 0.75178 0.0
O142 O 0.73128 0.16763 0.73388 0.0
O143 O 0.65554 0.05934 0.50752 0.0
Cd144 Cd 0.61658 0.06823 0.51832 0.0
O145 O 0.6611 0.03573 0.52668 0.0
Cd146 Cd 0.68151 0.01406 0.54241 0.0
O147 O 0.69709 0.99577 0.56164 0.0
C148 C 0.68565 0.99593 0.57396 0.0
O149 O 0.66505 0.00678 0.57451 0.0
C150 C 0.66899 0.04535 0.51476 0.0
C151 C 0.57731 0.05029 0.50302 0.0
O152 O 0.58606 0.07056 0.49966 0.0
O153 O 0.58756 0.03821 0.51335 0.0
O154 O 0.70116 0.90231 0.25113 0.0
Cd155 Cd 0.68959 0.86356 0.26108 0.0
O156 O 0.71396 0.90813 0.27398 0.0
Cd157 Cd 0.7263 0.92782 0.29361 0.0
O158 O 0.73624 0.93909 0.3162 0.0
C159 C 0.7401 0.96061 0.31953 0.0
O160 O 0.73826 0.97684 0.30901 0.0
C161 C 0.71042 0.91606 0.26079 0.0
C162 C 0.70384 0.82325 0.24536 0.0
O163 O 0.6843 0.83377 0.24223 0.0
O164 O 0.71708 0.83233 0.25557 0.0
O165 O 0.85129 0.98423 0.02649 0.0
Cd166 Cd 0.88675 0.99135 0.04177 0.0
O167 O 0.83039 0.00873 0.04045 0.0
Cd168 Cd 0.85703 0.01426 0.05786 0.0
O169 O 0.86348 0.01838 0.08189 0.0
C170 C 0.85462 0.00258 0.09037 0.0
O171 O 0.84404 0.98432 0.08413 0.0
C172 C 0.8319 0.99497 0.02918 0.0
C173 C 0.9289 0.99355 0.02526 0.0
O174 O 0.92211 0.97416 0.03139 0.0
O175 O 0.91561 0.01181 0.02676 0.0
O176 O 0.7425 0.59311 0.77965 0.0
Cd177 Cd 0.74575 0.62583 0.79767 0.0
O178 O 0.709 0.57975 0.78906 0.0
Cd179 Cd 0.71273 0.603 0.80844 0.0
O180 O 0.73468 0.60444 0.82858 0.0
C181 C 0.75298 0.59135 0.82778 0.0
O182 O 0.75702 0.57972 0.81524 0.0
C183 C 0.72535 0.57847 0.77923 0.0
C184 C 0.75914 0.6691 0.78512 0.0
O185 O 0.77469 0.65434 0.78989 0.0
O186 O 0.73723 0.66322 0.78606 0.0
O187 O 0.6581 0.4797 0.01727 0.0
Cd188 Cd 0.62192 0.48684 0.03194 0.0
O189 O 0.67611 0.46557 0.03727 0.0
Cd190 Cd 0.6498 0.47797 0.05339 0.0
O191 O 0.65159 0.50116 0.07294 0.0
C192 C 0.66809 0.51643 0.07212 0.0
O193 O 0.68069 0.5176 0.05971 0.0
C194 C 0.67614 0.46998 0.02326 0.0
C195 C 0.58032 0.49223 0.01522 0.0
O196 O 0.59251 0.51027 0.0193 0.0
O197 O 0.58806 0.47164 0.01876 0.0
O198 O 0.7674 0.42052 0.28709 0.0
Cd199 Cd 0.76481 0.38859 0.30573 0.0
O200 O 0.79713 0.43782 0.29873 0.0
Cd201 Cd 0.79099 0.41671 0.31882 0.0
O202 O 0.76768 0.41509 0.33835 0.0
C203 C 0.74602 0.42008 0.33596 0.0
O204 O 0.73912 0.42421 0.3221 0.0
C205 C 0.78311 0.4367 0.28756 0.0
C206 C 0.75596 0.34397 0.29352 0.0
O207 O 0.77711 0.35219 0.29432 0.0
O208 O 0.73894 0.35698 0.29833 0.0
O209 O 0.84069 0.49211 0.52127 0.0
Cd210 Cd 0.87511 0.48142 0.53672 0.0
O211 O 0.83727 0.52829 0.53014 0.0
Cd212 Cd 0.86286 0.52012 0.54769 0.0
O213 O 0.86062 0.49992 0.56852 0.0
C214 C 0.8437 0.48505 0.56858 0.0
O215 O 0.83079 0.48275 0.55637 0.0
C216 C 0.83029 0.51212 0.52123 0.0
C217 C 0.91848 0.48123 0.52151 0.0
O218 O 0.90513 0.46287 0.5217 0.0
O219 O 0.91113 0.49986 0.52831 0.0
O220 O 0.76542 0.42522 0.71303 0.0
Cd221 Cd 0.77821 0.39488 0.69503 0.0
O222 O 0.72886 0.42777 0.70457 0.0
Cd223 Cd 0.73808 0.40548 0.68548 0.0
O224 O 0.75901 0.40725 0.66491 0.0
C225 C 0.77286 0.42498 0.66451 0.0
O226 O 0.7735 0.43927 0.67617 0.0
C227 C 0.74472 0.43414 0.71389 0.0
C228 C 0.77267 0.34839 0.70508 0.0
O229 O 0.79216 0.3596 0.70717 0.0
O230 O 0.75571 0.3593 0.69843 0.0
O231 O 0.84677 0.49163 0.97435 0.0
Cd232 Cd 0.88108 0.50715 0.96055 0.0
O233 O 0.83056 0.47763 0.9537 0.0
Cd234 Cd 0.85552 0.49442 0.93836 0.0
O235 O 0.85136 0.51858 0.91945 0.0
C236 C 0.83268 0.53111 0.92033 0.0
O237 O 0.81942 0.52929 0.93243 0.0
C238 C 0.8301 0.48037 0.96788 0.0
C239 C 0.92381 0.50638 0.97646 0.0
O240 O 0.90954 0.52398 0.97749 0.0
O241 O 0.91769 0.48893 0.9681 0.0
O242 O 0.75119 0.58338 0.21378 0.0
Cd243 Cd 0.74128 0.61299 0.19464 0.0
O244 O 0.78758 0.57754 0.20565 0.0
Cd245 Cd 0.77994 0.59826 0.18559 0.0
O246 O 0.75843 0.59648 0.16525 0.0
C247 C 0.74317 0.57992 0.16553 0.0
O248 O 0.74167 0.56668 0.17764 0.0
C249 C 0.77122 0.57319 0.21511 0.0
C250 C 0.73486 0.65871 0.20582 0.0
O251 O 0.71749 0.64415 0.20488 0.0
O252 O 0.75541 0.65152 0.20165 0.0
O253 O 0.65793 0.50362 0.47064 0.0
Cd254 Cd 0.62195 0.49848 0.45546 0.0
O255 O 0.66887 0.53574 0.45852 0.0
Cd256 Cd 0.6436 0.5287 0.44059 0.0
O257 O 0.64601 0.50706 0.42036 0.0
C258 C 0.65496 0.4866 0.42219 0.0
O259 O 0.65991 0.47951 0.4359 0.0
C260 C 0.6722 0.52092 0.46906 0.0
C261 C 0.57958 0.49968 0.47175 0.0
O262 O 0.58927 0.51878 0.46698 0.0
O263 O 0.59012 0.48003 0.46903 0.0
O264 O 0.30753 0.4086 0.23568 0.0
Cd265 Cd 0.32167 0.36914 0.22866 0.0
O266 O 0.27582 0.40693 0.22141 0.0
Cd267 Cd 0.24641 0.42337 0.20925 0.0
O268 O 0.22392 0.44012 0.19234 0.0
C269 C 0.20746 0.42864 0.18585 0.0
O270 O 0.20342 0.40663 0.18987 0.0
C271 C 0.28907 0.41843 0.23037 0.0
C272 C 0.29658 0.33005 0.23929 0.0
O273 O 0.31195 0.34055 0.24755 0.0
O274 O 0.29243 0.33856 0.22619 0.0
O275 O 0.34359 0.51913 0.9653 0.0
Cd276 Cd 0.37789 0.51336 0.94872 0.0
O277 O 0.32694 0.48645 0.95696 0.0
Cd278 Cd 0.35211 0.47985 0.9388 0.0
O279 O 0.35581 0.472 0.91489 0.0
C280 C 0.34596 0.48641 0.90588 0.0
O281 O 0.33611 0.50564 0.91138 0.0
C282 C 0.3267 0.50421 0.96574 0.0
C283 C 0.42116 0.5096 0.96388 0.0
O284 O 0.414 0.52954 0.95871 0.0
O285 O 0.40773 0.49152 0.96205 0.0
O286 O 0.26753 0.58333 0.73496 0.0
Cd287 Cd 0.28353 0.61693 0.72073 0.0
O288 O 0.30231 0.56847 0.74103 0.0
Cd289 Cd 0.32047 0.59217 0.72548 0.0
O290 O 0.33055 0.59805 0.70206 0.0
C291 C 0.31469 0.59293 0.69245 0.0
O292 O 0.29387 0.58572 0.69727 0.0
C293 C 0.2798 0.56782 0.74184 0.0
C294 C 0.27455 0.66134 0.73332 0.0
O295 O 0.25924 0.65117 0.72485 0.0
O296 O 0.29396 0.65034 0.73604 0.0
O297 O 0.15827 0.47235 0.47264 0.0
Cd298 Cd 0.12299 0.47016 0.45659 0.0
O299 O 0.18199 0.46577 0.45342 0.0
Cd300 Cd 0.15528 0.46746 0.43573 0.0
O301 O 0.15046 0.48104 0.41299 0.0
C302 C 0.15038 0.50339 0.41139 0.0
O303 O 0.15091 0.51678 0.42347 0.0
C304 C 0.17906 0.46918 0.46742 0.0
C305 C 0.07997 0.47356 0.47212 0.0
O306 O 0.09035 0.45356 0.47034 0.0
O307 O 0.09011 0.49202 0.46675 0.0
O308 O 0.28522 0.60298 0.25602 0.0
Cd309 Cd 0.28944 0.6409 0.26913 0.0
O310 O 0.25574 0.59588 0.27125 0.0
Cd311 Cd 0.22699 0.5781 0.28336 0.0
O312 O 0.20575 0.56402 0.30182 0.0
C313 C 0.21048 0.57229 0.31476 0.0
O314 O 0.22708 0.58851 0.31597 0.0
C315 C 0.2696 0.58869 0.26089 0.0
C316 C 0.27558 0.68161 0.25374 0.0
O317 O 0.29668 0.67338 0.25245 0.0
O318 O 0.26081 0.67013 0.26193 0.0
O319 O 0.16182 0.51555 0.02692 0.0
Cd320 Cd 0.12684 0.51454 0.04329 0.0
O321 O 0.18391 0.53206 0.04441 0.0
Cd322 Cd 0.15787 0.52885 0.06245 0.0
O323 O 0.15145 0.51605 0.08523 0.0
C324 C 0.15321 0.49388 0.08735 0.0
O325 O 0.15671 0.48005 0.07567 0.0
C326 C 0.18156 0.52432 0.03107 0.0
C327 C 0.08378 0.51208 0.02777 0.0
O328 O 0.09353 0.53205 0.03072 0.0
O329 O 0.09453 0.49324 0.03201 0.0
O330 O 0.18785 0.40686 0.7611 0.0
Cd331 Cd 0.1662 0.36936 0.76229 0.0
O332 O 0.21741 0.39482 0.77525 0.0
Cd333 Cd 0.24897 0.4019 0.7888 0.0
O334 O 0.27387 0.41208 0.80643 0.0
C335 C 0.28323 0.43254 0.80661 0.0
O336 O 0.27848 0.4474 0.79566 0.0
C337 C 0.20742 0.41105 0.76765 0.0
C338 C 0.19184 0.32833 0.75582 0.0
O339 O 0.18324 0.3412 0.74528 0.0
O340 O 0.18895 0.33524 0.76943 0.0
O341 O 0.34377 0.49605 0.52767 0.0
Cd342 Cd 0.37904 0.50853 0.54169 0.0
O343 O 0.32116 0.52062 0.54048 0.0
Cd344 Cd 0.34777 0.53327 0.55636 0.0
O345 O 0.35437 0.54816 0.57862 0.0
C346 C 0.34061 0.5649 0.58252 0.0
O347 O 0.32499 0.57273 0.57275 0.0
C348 C 0.32352 0.50519 0.53017 0.0
C349 C 0.42137 0.50524 0.52542 0.0
O350 O 0.41434 0.48817 0.5338 0.0
O351 O 0.40824 0.52372 0.52457 0.0
H352 H 0.30797 0.03878 0.41236 0.0
H353 H 0.36106 0.00144 0.38654 0.0
H354 H 0.29556 0.05981 0.38997 0.0
H355 H 0.34932 0.02335 0.36412 0.0
H356 H 0.29557 0.0363 0.32582 0.0
H357 H 0.31668 0.02184 0.34768 0.0
H358 H 0.30257 0.08772 0.3708 0.0
H359 H 0.28041 0.10181 0.349 0.0
C360 C 0.31739 0.03545 0.40195 0.0
C361 C 0.33525 0.01815 0.40118 0.0
C362 C 0.31038 0.0477 0.38908 0.0
C363 C 0.32125 0.04316 0.37514 0.0
C364 C 0.34019 0.02693 0.37459 0.0
C365 C 0.34702 0.01445 0.38746 0.0
C366 C 0.29721 0.04786 0.33548 0.0
C367 C 0.286 0.07007 0.33575 0.0
C368 C 0.30954 0.03962 0.34802 0.0
C369 C 0.31122 0.0535 0.36111 0.0
C370 C 0.30121 0.07634 0.36103 0.0
C371 C 0.28863 0.08449 0.34851 0.0
H372 H 0.22279 0.05163 0.58938 0.0
H373 H 0.16075 0.02421 0.61196 0.0
H374 H 0.23434 0.07229 0.61211 0.0
H375 H 0.17177 0.04582 0.63466 0.0
H376 H 0.22009 0.05349 0.67623 0.0
H377 H 0.20109 0.0406 0.65324 0.0
H378 H 0.22821 0.10233 0.6302 0.0
H379 H 0.24817 0.11476 0.65325 0.0
C380 C 0.2113 0.05045 0.59911 0.0
C381 C 0.19105 0.03596 0.59894 0.0
C382 C 0.21784 0.0625 0.61216 0.0
C383 C 0.20414 0.06057 0.62533 0.0
C384 C 0.18303 0.04729 0.62483 0.0
C385 C 0.17662 0.035 0.61181 0.0
C386 C 0.22181 0.0645 0.66632 0.0
C387 C 0.23593 0.08498 0.66652 0.0
C388 C 0.21068 0.0572 0.65312 0.0
C389 C 0.21319 0.07031 0.63978 0.0
C390 C 0.22627 0.09154 0.64019 0.0
C391 C 0.23761 0.09875 0.65341 0.0
H392 H 0.22934 0.874 0.84642 0.0
H393 H 0.20206 0.9357 0.82352 0.0
H394 H 0.21043 0.88718 0.86966 0.0
H395 H 0.18406 0.94929 0.84672 0.0
H396 H 0.14521 0.96655 0.88869 0.0
H397 H 0.15517 0.94482 0.86583 0.0
H398 H 0.21814 0.91747 0.88743 0.0
H399 H 0.2077 0.93833 0.91032 0.0
C400 C 0.21915 0.89025 0.84631 0.0
C401 C 0.21744 0.90393 0.83317 0.0
C402 C 0.20841 0.89789 0.85965 0.0
C403 C 0.1959 0.91945 0.86014 0.0
C404 C 0.19326 0.93247 0.84678 0.0
C405 C 0.2038 0.92475 0.83345 0.0
C406 C 0.16095 0.95556 0.88861 0.0
C407 C 0.1758 0.95439 0.90127 0.0
C408 C 0.16674 0.9432 0.87548 0.0
C409 C 0.18762 0.92957 0.87469 0.0
C410 C 0.20178 0.92751 0.88763 0.0
C411 C 0.19588 0.93968 0.90077 0.0
H412 H 0.35666 0.97621 0.10103 0.0
H413 H 0.29639 0.95247 0.07513 0.0
H414 H 0.34015 0.9573 0.12337 0.0
H415 H 0.27944 0.93459 0.09742 0.0
H416 H 0.25481 0.89654 0.13796 0.0
H417 H 0.27984 0.90549 0.11631 0.0
H418 H 0.30873 0.96582 0.13997 0.0
H419 H 0.28464 0.95623 0.16171 0.0
C420 C 0.34 0.96679 0.10008 0.0
C421 C 0.32771 0.96608 0.08635 0.0
C422 C 0.33045 0.95606 0.1129 0.0
C423 C 0.30828 0.94462 0.1123 0.0
C424 C 0.29666 0.94293 0.09835 0.0
C425 C 0.30632 0.9534 0.08554 0.0
C426 C 0.26683 0.91146 0.13859 0.0
C427 C 0.26753 0.92585 0.15147 0.0
C428 C 0.28109 0.91669 0.12616 0.0
C429 C 0.29613 0.93659 0.12627 0.0
C430 C 0.29765 0.9502 0.13948 0.0
C431 C 0.28363 0.9448 0.15195 0.0
H432 H 0.66618 0.99447 0.60208 0.0
H433 H 0.72756 0.97184 0.57673 0.0
H434 H 0.68282 0.97671 0.62469 0.0
H435 H 0.74436 0.9544 0.59944 0.0
H436 H 0.75605 0.90576 0.63988 0.0
H437 H 0.73797 0.92187 0.61718 0.0
H438 H 0.71569 0.98372 0.64202 0.0
H439 H 0.73341 0.96748 0.66478 0.0
C440 C 0.68323 0.98572 0.60132 0.0
C441 C 0.69557 0.98463 0.5876 0.0
C442 C 0.69282 0.97565 0.61431 0.0
C443 C 0.71495 0.96422 0.61388 0.0
C444 C 0.72716 0.96286 0.60011 0.0
C445 C 0.71759 0.97298 0.58712 0.0
C446 C 0.74724 0.92277 0.64052 0.0
C447 C 0.74621 0.93535 0.65414 0.0
C448 C 0.73699 0.93205 0.62748 0.0
C449 C 0.72544 0.95409 0.62779 0.0
C450 C 0.72422 0.96657 0.64145 0.0
C451 C 0.73451 0.95731 0.65447 0.0
H452 H 0.75873 0.02934 0.40657 0.0
H453 H 0.8008 0.96551 0.40906 0.0
H454 H 0.74589 0.0184 0.38132 0.0
H455 H 0.78845 0.9549 0.38373 0.0
H456 H 0.74383 0.93145 0.34391 0.0
H457 H 0.75439 0.9421 0.36956 0.0
H458 H 0.76197 0.01519 0.3561 0.0
H459 H 0.75084 0.00463 0.33047 0.0
C460 C 0.76523 0.01298 0.40174 0.0
C461 C 0.7808 0.99831 0.40983 0.0
C462 C 0.758 0.00679 0.38723 0.0
C463 C 0.76621 0.98582 0.38047 0.0
C464 C 0.78155 0.97102 0.38866 0.0
C465 C 0.78872 0.97717 0.40317 0.0
C466 C 0.7477 0.94982 0.34641 0.0
C467 C 0.74652 0.9672 0.33512 0.0
C468 C 0.75388 0.95589 0.36111 0.0
C469 C 0.75908 0.97949 0.36489 0.0
C470 C 0.75777 0.9969 0.35362 0.0
C471 C 0.75155 0.99082 0.3389 0.0
H472 H 0.82216 0.99963 0.18672 0.0
H473 H 0.8131 0.07141 0.17093 0.0
H474 H 0.8396 0.98872 0.16254 0.0
H475 H 0.8299 0.06043 0.14679 0.0
H476 H 0.87252 0.03943 0.10688 0.0
H477 H 0.8649 0.04819 0.1333 0.0
H478 H 0.8247 0.98338 0.13728 0.0
H479 H 0.83282 0.97433 0.11107 0.0
C480 C 0.82404 0.01311 0.17815 0.0
C481 C 0.81605 0.03634 0.18072 0.0
C482 C 0.83394 0.00684 0.16428 0.0
C483 C 0.83608 0.02367 0.1527 0.0
C484 C 0.82886 0.04708 0.1555 0.0
C485 C 0.81901 0.05333 0.16933 0.0
C486 C 0.86241 0.02685 0.11347 0.0
C487 C 0.85303 0.00633 0.10681 0.0
C488 C 0.85793 0.03194 0.12859 0.0
C489 C 0.84394 0.01664 0.13737 0.0
C490 C 0.83571 0.99547 0.13091 0.0
C491 C 0.84024 0.99035 0.11582 0.0
H492 H 0.6918 0.01319 0.81763 0.0
H493 H 0.64805 0.07527 0.82382 0.0
H494 H 0.68038 0.99909 0.84247 0.0
H495 H 0.63629 0.06091 0.84858 0.0
H496 H 0.65232 0.04391 0.89871 0.0
H497 H 0.65611 0.05659 0.8727 0.0
H498 H 0.64781 0.98423 0.85788 0.0
H499 H 0.64446 0.97141 0.884 0.0
C500 C 0.67949 0.02368 0.8242 0.0
C501 C 0.67101 0.04546 0.81879 0.0
C502 C 0.6728 0.0155 0.83841 0.0
C503 C 0.65748 0.02892 0.84753 0.0
C504 C 0.64836 0.05031 0.8419 0.0
C505 C 0.65503 0.05848 0.82768 0.0
C506 C 0.65097 0.03071 0.88992 0.0
C507 C 0.64834 0.00661 0.89345 0.0
C508 C 0.65301 0.03802 0.87497 0.0
C509 C 0.65245 0.02139 0.86321 0.0
C510 C 0.64869 0.99742 0.86671 0.0
C511 C 0.64662 0.9901 0.88167 0.0
H512 H 0.75145 0.61381 0.85511 0.0
H513 H 0.78874 0.55927 0.83056 0.0
H514 H 0.77404 0.60393 0.87766 0.0
H515 H 0.81052 0.5488 0.85308 0.0
H516 H 0.8556 0.53954 0.89365 0.0
H517 H 0.83944 0.55877 0.87132 0.0
H518 H 0.77407 0.57246 0.89524 0.0
H519 H 0.79051 0.55419 0.91758 0.0
C520 C 0.76456 0.59982 0.8545 0.0
C521 C 0.76813 0.58718 0.84109 0.0
C522 C 0.77743 0.59406 0.86744 0.0
C523 C 0.794 0.57541 0.86726 0.0
C524 C 0.7982 0.56347 0.85364 0.0
C525 C 0.78551 0.56936 0.84071 0.0
C526 C 0.83793 0.54702 0.89418 0.0
C527 C 0.82426 0.54512 0.90733 0.0
C528 C 0.8286 0.55792 0.88136 0.0
C529 C 0.80532 0.56697 0.88139 0.0
C530 C 0.79214 0.566 0.8948 0.0
C531 C 0.80153 0.55531 0.90762 0.0
H532 H 0.73986 0.60461 0.13905 0.0
H533 H 0.71342 0.54244 0.16184 0.0
H534 H 0.71793 0.59331 0.1165 0.0
H535 H 0.69232 0.53073 0.13929 0.0
H536 H 0.64605 0.5189 0.09957 0.0
H537 H 0.66076 0.53819 0.12228 0.0
H538 H 0.72155 0.56386 0.09754 0.0
H539 H 0.70644 0.54543 0.07485 0.0
C540 C 0.7293 0.5886 0.13927 0.0
C541 C 0.72855 0.57432 0.15219 0.0
C542 C 0.71681 0.58206 0.12633 0.0
C543 C 0.70343 0.56102 0.12602 0.0
C544 C 0.70209 0.54723 0.13915 0.0
C545 C 0.71441 0.55385 0.15208 0.0
C546 C 0.66235 0.529 0.09895 0.0
C547 C 0.67521 0.53041 0.08545 0.0
C548 C 0.67087 0.53994 0.11198 0.0
C549 C 0.69251 0.55236 0.11181 0.0
C550 C 0.70471 0.5547 0.09811 0.0
C551 C 0.69611 0.54394 0.08508 0.0
H552 H 0.67589 0.44299 0.42244 0.0
H553 H 0.65309 0.49864 0.39241 0.0
H554 H 0.69479 0.42261 0.40146 0.0
H555 H 0.67238 0.47851 0.37151 0.0
H556 H 0.69913 0.43198 0.3345 0.0
H557 H 0.67339 0.44409 0.35515 0.0
H558 H 0.7301 0.43069 0.38666 0.0
H559 H 0.75567 0.41815 0.36608 0.0
C560 C 0.67464 0.45074 0.41133 0.0
C561 C 0.6632 0.47259 0.40912 0.0
C562 C 0.6856 0.43911 0.39933 0.0
C563 C 0.68534 0.44905 0.38485 0.0
C564 C 0.67275 0.47024 0.38249 0.0
C565 C 0.66178 0.48186 0.3945 0.0
C566 C 0.706 0.43127 0.34586 0.0
C567 C 0.72955 0.42435 0.34864 0.0
C568 C 0.69126 0.43833 0.35768 0.0
C569 C 0.69974 0.43858 0.37253 0.0
C570 C 0.72291 0.4305 0.37537 0.0
C571 C 0.73764 0.42343 0.36356 0.0
H572 H 0.80587 0.45576 0.5726 0.0
H573 H 0.86589 0.48581 0.59601 0.0
H574 H 0.79166 0.43867 0.59595 0.0
H575 H 0.85203 0.46796 0.61941 0.0
H576 H 0.80029 0.46388 0.65959 0.0
H577 H 0.82017 0.47536 0.63651 0.0
H578 H 0.79744 0.41021 0.61549 0.0
H579 H 0.77679 0.39903 0.63856 0.0
C580 C 0.81629 0.45838 0.5827 0.0
C581 C 0.83688 0.47239 0.58248 0.0
C582 C 0.80821 0.44839 0.5961 0.0
C583 C 0.8206 0.45203 0.60961 0.0
C584 C 0.84182 0.46515 0.60925 0.0
C585 C 0.84985 0.47527 0.59583 0.0
C586 C 0.79968 0.45187 0.6501 0.0
C587 C 0.78675 0.43064 0.65086 0.0
C588 C 0.81128 0.45838 0.63687 0.0
C589 C 0.81038 0.44376 0.6241 0.0
C590 C 0.79819 0.42207 0.62505 0.0
C591 C 0.78644 0.4156 0.63828 0.0
H592 H 0.15063 0.51794 0.11406 0.0
H593 H 0.16016 0.44785 0.09554 0.0
H594 H 0.15918 0.50263 0.13913 0.0
H595 H 0.1692 0.43271 0.12047 0.0
H596 H 0.17324 0.40814 0.16833 0.0
H597 H 0.1551 0.42423 0.14563 0.0
H598 H 0.19507 0.48885 0.15132 0.0
H599 H 0.21278 0.47303 0.17412 0.0
C600 C 0.15425 0.49923 0.11535 0.0
C601 C 0.15497 0.48417 0.10277 0.0
C602 C 0.15929 0.49048 0.12971 0.0
C603 C 0.16513 0.4665 0.13179 0.0
C604 C 0.16457 0.45123 0.11931 0.0
C605 C 0.15953 0.45996 0.10498 0.0
C606 C 0.17791 0.4259 0.16484 0.0
C607 C 0.19463 0.43921 0.17296 0.0
C608 C 0.16759 0.43508 0.15179 0.0
C609 C 0.17373 0.45777 0.14659 0.0
C610 C 0.18971 0.47143 0.15508 0.0
C611 C 0.20002 0.46227 0.16811 0.0
H612 H 0.29452 0.40682 0.83161 0.0
H613 H 0.30401 0.47571 0.81136 0.0
H614 H 0.31402 0.42066 0.85433 0.0
H615 H 0.32409 0.48942 0.83405 0.0
H616 H 0.32257 0.5118 0.88442 0.0
H617 H 0.31154 0.49891 0.85931 0.0
H618 H 0.35055 0.43387 0.8658 0.0
H619 H 0.36114 0.44655 0.89116 0.0
C620 C 0.30111 0.42482 0.83191 0.0
C621 C 0.29747 0.44023 0.81972 0.0
C622 C 0.31249 0.43272 0.84492 0.0
C623 C 0.32055 0.4562 0.84605 0.0
C624 C 0.31779 0.47133 0.83362 0.0
C625 C 0.30637 0.46343 0.82059 0.0
C626 C 0.3291 0.49489 0.88044 0.0
C627 C 0.34248 0.48007 0.88988 0.0
C628 C 0.32289 0.48755 0.86597 0.0
C629 C 0.32997 0.46525 0.86058 0.0
C630 C 0.34446 0.45098 0.86972 0.0
C631 C 0.35064 0.45831 0.88422 0.0
H632 H 0.28318 0.58843 0.66949 0.0
H633 H 0.35792 0.59751 0.67856 0.0
H634 H 0.29163 0.58508 0.64276 0.0
H635 H 0.36636 0.59425 0.65162 0.0
H636 H 0.3688 0.55112 0.60607 0.0
H637 H 0.36405 0.56151 0.63256 0.0
H638 H 0.30625 0.60825 0.62106 0.0
H639 H 0.3108 0.5978 0.59465 0.0
C640 C 0.30141 0.58998 0.66576 0.0
C641 C 0.31989 0.59313 0.67615 0.0
C642 C 0.30623 0.58821 0.65042 0.0
C643 C 0.32966 0.58941 0.64509 0.0
C644 C 0.34815 0.5931 0.65543 0.0
C645 C 0.34329 0.59509 0.67082 0.0
C646 C 0.35531 0.56387 0.60916 0.0
C647 C 0.34 0.57341 0.59826 0.0
C648 C 0.35268 0.56991 0.62433 0.0
C649 C 0.33462 0.58551 0.62889 0.0
C650 C 0.32009 0.5959 0.6179 0.0
C651 C 0.32278 0.58997 0.60276 0.0
H652 H 0.21813 0.58544 0.34383 0.0
H653 H 0.1754 0.53874 0.3165 0.0
H654 H 0.19988 0.56949 0.36638 0.0
H655 H 0.15667 0.52305 0.3392 0.0
H656 H 0.1563 0.48068 0.38442 0.0
H657 H 0.16785 0.4983 0.36051 0.0
H658 H 0.16309 0.56798 0.38031 0.0
H659 H 0.15206 0.55037 0.4043 0.0
C660 C 0.20464 0.57194 0.34261 0.0
C661 C 0.1983 0.56331 0.32836 0.0
C662 C 0.19401 0.56291 0.35557 0.0
C663 C 0.17672 0.54505 0.35461 0.0
C664 C 0.17008 0.53665 0.34033 0.0
C665 C 0.18074 0.54571 0.32733 0.0
C666 C 0.15736 0.49978 0.38362 0.0
C667 C 0.15357 0.5141 0.39633 0.0
C668 C 0.16389 0.50989 0.36988 0.0
C669 C 0.16671 0.53453 0.36855 0.0
C670 C 0.16156 0.54891 0.38105 0.0
C671 C 0.15508 0.53881 0.39478 0.0
H672 H 0.29408 0.31251 0.26787 0.0
H673 H 0.27402 0.29703 0.22203 0.0
H674 H 0.27941 0.2737 0.27571 0.0
H675 H 0.25969 0.25809 0.22989 0.0
H676 H 0.27529 0.18138 0.24891 0.0
H677 H 0.28285 0.22176 0.24033 0.0
H678 H 0.24025 0.24906 0.27675 0.0
H679 H 0.23232 0.20861 0.28525 0.0
C680 C 0.28629 0.30095 0.25951 0.0
C681 C 0.28529 0.30778 0.24433 0.0
C682 C 0.27781 0.27879 0.26401 0.0
C683 C 0.26853 0.26291 0.25338 0.0
C684 C 0.2669 0.26998 0.23828 0.0
C685 C 0.27499 0.2923 0.23382 0.0
C686 C 0.26731 0.19598 0.25499 0.0
C687 C 0.25327 0.19184 0.26778 0.0
C688 C 0.27154 0.21906 0.25003 0.0
C689 C 0.26214 0.23848 0.2579 0.0
C690 C 0.24776 0.23437 0.27053 0.0
C691 C 0.24317 0.21125 0.27534 0.0
H692 H 0.94899 0.98442 0.5062 0.0
H693 H 0.97208 0.05584 0.49697 0.0
H694 H 0.9874 0.9756 0.51738 0.0
H695 H 0.01086 0.04679 0.50748 0.0
H696 H 0.07214 0.02933 0.5387 0.0
H697 H 0.03267 0.03887 0.52938 0.0
H698 H 0.02697 0.96862 0.51039 0.0
H699 H 0.06595 0.95883 0.52033 0.0
C700 C 0.9623 0.99824 0.50655 0.0
C701 C 0.95751 0.02081 0.50069 0.0
C702 C 0.98443 0.99313 0.51284 0.0
C703 C 0.00244 0.01038 0.51322 0.0
C704 C 0.99741 0.03312 0.50759 0.0
C705 C 0.97517 0.03831 0.50149 0.0
C706 C 0.06244 0.01595 0.53252 0.0
C707 C 0.07214 0.99332 0.53027 0.0
C708 C 0.03982 0.02145 0.52711 0.0
C709 C 0.02648 0.00452 0.51914 0.0
C710 C 0.03641 0.98197 0.51675 0.0
C711 C 0.05889 0.97639 0.52233 0.0
H712 H 0.30648 0.69122 0.74649 0.0
H713 H 0.23273 0.68576 0.7339 0.0
H714 H 0.29966 0.73131 0.7556 0.0
H715 H 0.2256 0.72543 0.74359 0.0
H716 H 0.22449 0.80519 0.74826 0.0
H717 H 0.23257 0.76571 0.73852 0.0
H718 H 0.28191 0.75361 0.77492 0.0
H719 H 0.27455 0.79348 0.78423 0.0
C720 C 0.28874 0.6985 0.74583 0.0
C721 C 0.27016 0.68533 0.73945 0.0
C722 C 0.28478 0.72148 0.75112 0.0
C723 C 0.26206 0.73176 0.75033 0.0
C724 C 0.24343 0.71837 0.74412 0.0
C725 C 0.24746 0.6955 0.73867 0.0
C726 C 0.23716 0.79413 0.75412 0.0
C727 C 0.24888 0.80247 0.76701 0.0
C728 C 0.24167 0.77138 0.74861 0.0
C729 C 0.2578 0.75628 0.75596 0.0
C730 C 0.26964 0.76478 0.76881 0.0
C731 C 0.26534 0.78763 0.77421 0.0
H732 H 0.46074 0.02799 0.02094 0.0
H733 H 0.44225 0.95835 0.00463 0.0
H734 H 0.49993 0.02418 0.00959 0.0
H735 H 0.48114 0.95481 0.99294 0.0
H736 H 0.56062 0.9453 0.98735 0.0
H737 H 0.52208 0.94972 -0.00059 0.0
H738 H 0.51984 0.02307 0.98572 0.0
H739 H 0.55871 0.01881 0.97403 0.0
C740 C 0.46497 0.01194 0.01483 0.0
C741 C 0.44838 0.99345 0.01372 0.0
C742 C 0.48742 0.0098 0.00826 0.0
C743 C 0.49378 0.98915 0.00038 0.0
C744 C 0.47704 0.97078 -0.00085 0.0
C745 C 0.45465 0.97289 0.00576 0.0
C746 C 0.55196 0.9624 0.98697 0.0
C747 C 0.56274 0.98169 0.9797 0.0
C748 C 0.52976 0.9649 0.9938 0.0
C749 C 0.51773 0.98672 0.99347 0.0
C750 C 0.52868 0.00608 0.98635 0.0
C751 C 0.55094 0.00361 0.97957 0.0
H752 H 0.27743 0.82726 0.22375 0.0
H753 H 0.20606 0.80464 0.21348 0.0
H754 H 0.2864 0.78802 0.23356 0.0
H755 H 0.2152 0.7652 0.22297 0.0
H756 H 0.23349 0.70538 0.2562 0.0
H757 H 0.22358 0.74422 0.24606 0.0
H758 H 0.29244 0.74797 0.22486 0.0
H759 H 0.30256 0.7094 0.23529 0.0
C760 C 0.26365 0.8139 0.22356 0.0
C761 C 0.24103 0.81909 0.21783 0.0
C762 C 0.26885 0.79133 0.22908 0.0
C763 C 0.25157 0.77338 0.22897 0.0
C764 C 0.22886 0.77866 0.22337 0.0
C765 C 0.22364 0.80126 0.21787 0.0
C766 C 0.24646 0.71442 0.24929 0.0
C767 C 0.26885 0.70432 0.2466 0.0
C768 C 0.24074 0.73667 0.24343 0.0
C769 C 0.25726 0.74931 0.23472 0.0
C770 C 0.27945 0.73892 0.23175 0.0
C771 C 0.28519 0.71671 0.23763 0.0
H772 H 0.55304 0.00938 0.50885 0.0
H773 H 0.55172 0.07179 0.4808 0.0
H774 H 0.51522 0.99677 0.49826 0.0
H775 H 0.51417 0.05894 0.46998 0.0
H776 H 0.4346 0.04392 0.46802 0.0
H777 H 0.4732 0.05529 0.47792 0.0
H778 H 0.49642 0.98251 0.47539 0.0
H779 H 0.45758 0.97103 0.46576 0.0
C780 C 0.54482 0.02028 0.5003 0.0
C781 C 0.55534 0.04165 0.49573 0.0
C782 C 0.52318 0.01299 0.49418 0.0
C783 C 0.51157 0.02692 0.48334 0.0
C784 C 0.52242 0.048 0.4785 0.0
C785 C 0.54404 0.05529 0.48463 0.0
C786 C 0.44791 0.03032 0.46959 0.0
C787 C 0.443 0.00657 0.4661 0.0
C788 C 0.47012 0.03688 0.47516 0.0
C789 C 0.48797 0.01984 0.47737 0.0
C790 C 0.48301 0.99604 0.47396 0.0
C791 C 0.46077 0.98948 0.46838 0.0
H792 H 0.26879 0.20556 0.72032 0.0
H793 H 0.20663 0.1792 0.74327 0.0
H794 H 0.25946 0.24569 0.72888 0.0
H795 H 0.19758 0.21922 0.75197 0.0
H796 H 0.20048 0.29169 0.77508 0.0
H797 H 0.2155 0.25228 0.7688 0.0
H798 H 0.22421 0.27376 0.72256 0.0
H799 H 0.2089 0.31306 0.72874 0.0
C800 C 0.25335 0.20827 0.72737 0.0
C801 C 0.23837 0.18925 0.73108 0.0
C802 C 0.24798 0.23123 0.7322 0.0
C803 C 0.22781 0.23552 0.74106 0.0
C804 C 0.21335 0.21637 0.74525 0.0
C805 C 0.21847 0.1935 0.74021 0.0
C806 C 0.20589 0.28811 0.76362 0.0
C807 C 0.2034 0.30543 0.75238 0.0
C808 C 0.21437 0.26553 0.76003 0.0
C809 C 0.22093 0.25999 0.7452 0.0
C810 C 0.21942 0.27762 0.7341 0.0
C811 C 0.21056 0.30006 0.73763 0.0
H812 H 0.94421 0.02892 0.00669 0.0
H813 H 0.96511 0.96142 0.02521 0.0
H814 H 0.98191 0.03156 0.99342 0.0
H815 H 0.00324 0.96447 0.01252 0.0
H816 H 0.0604 0.9659 0.97642 0.0
H817 H 0.02218 0.96273 0.98901 0.0
H818 H 0.02266 0.0382 0.99716 0.0
H819 H 0.06037 0.04141 0.98397 0.0
C820 C 0.95694 0.0147 0.00799 0.0
C821 C 0.95166 0.99496 0.01699 0.0
C822 C 0.97867 0.01628 0.00047 0.0
C823 C 0.9958 0.99829 0.00191 0.0
C824 C 0.99042 0.97851 0.01091 0.0
C825 C 0.96857 0.9768 0.01828 0.0
C826 C 0.05235 0.9818 0.98093 0.0
C827 C 0.0634 0.00391 0.97918 0.0
C828 C 0.03045 0.97998 0.98823 0.0
C829 C 0.01919 1.0002 0.99413 0.0
C830 C 0.03048 0.02228 0.99253 0.0
C831 C 0.05224 0.02413 0.98506 0.0
H832 H 0.82687 0.80518 0.77059 0.0
H833 H 0.77578 0.80033 0.73453 0.0
H834 H 0.81356 0.76705 0.78023 0.0
H835 H 0.76274 0.76198 0.74404 0.0
H836 H 0.73044 0.70431 0.77435 0.0
H837 H 0.74223 0.74329 0.76518 0.0
H838 H 0.81577 0.72556 0.77283 0.0
H839 H 0.804 0.68679 0.78222 0.0
C840 C 0.81275 0.79602 0.76474 0.0
C841 C 0.80244 0.80578 0.75176 0.0
C842 C 0.80523 0.77407 0.7702 0.0
C843 C 0.78721 0.76137 0.76284 0.0
C844 C 0.77653 0.77138 0.75005 0.0
C845 C 0.78408 0.79333 0.74456 0.0
C846 C 0.74913 0.70872 0.77404 0.0
C847 C 0.76628 0.69245 0.77904 0.0
C848 C 0.75589 0.73103 0.76873 0.0
C849 C 0.77994 0.73759 0.76834 0.0
C850 C 0.79707 0.72122 0.77322 0.0
C851 C 0.79033 0.69892 0.7785 0.0
H852 H 0.71514 0.31807 0.29541 0.0
H853 H 0.78652 0.31573 0.27783 0.0
H854 H 0.70791 0.27834 0.28577 0.0
H855 H 0.77906 0.27646 0.26763 0.0
H856 H 0.76701 0.19818 0.26224 0.0
H857 H 0.77359 0.23639 0.27423 0.0
H858 H 0.70184 0.25714 0.26326 0.0
H859 H 0.69504 0.21858 0.25186 0.0
C860 C 0.72923 0.30913 0.28937 0.0
C861 C 0.7514 0.32004 0.28738 0.0
C862 C 0.72506 0.28637 0.28378 0.0
C863 C 0.74289 0.27407 0.27591 0.0
C864 C 0.76504 0.28512 0.27388 0.0
C865 C 0.76928 0.30775 0.27963 0.0
C866 C 0.75258 0.21082 0.26254 0.0
C867 C 0.73053 0.20536 0.25608 0.0
C868 C 0.7564 0.23284 0.2693 0.0
C869 C 0.73834 0.25004 0.2696 0.0
C870 C 0.7161 0.2443 0.26343 0.0
C871 C 0.7122 0.22218 0.25682 0.0
H872 H 0.73253 0.32135 0.70443 0.0
H873 H 0.80661 0.31902 0.71671 0.0
H874 H 0.72797 0.28034 0.71228 0.0
H875 H 0.80224 0.27771 0.72416 0.0
H876 H 0.77772 0.21315 0.7519 0.0
H877 H 0.78442 0.25351 0.74325 0.0
H878 H 0.73857 0.24082 0.70517 0.0
H879 H 0.73134 0.20069 0.71407 0.0
C880 C 0.74789 0.31204 0.70873 0.0
C881 C 0.76992 0.32348 0.70996 0.0
C882 C 0.74533 0.28844 0.71313 0.0
C883 C 0.76477 0.27562 0.71878 0.0
C884 C 0.78682 0.2871 0.72002 0.0
C885 C 0.78936 0.31077 0.71569 0.0
C886 C 0.76924 0.2189 0.74161 0.0
C887 C 0.75387 0.20374 0.73373 0.0
C888 C 0.77315 0.24204 0.73661 0.0
C889 C 0.76186 0.25053 0.72358 0.0
C890 C 0.74716 0.23505 0.71542 0.0
C891 C 0.74316 0.21196 0.72046 0.0
H892 H 0.67873 0.79904 0.22406 0.0
H893 H 0.74301 0.79575 0.25041 0.0
H894 H 0.68712 0.75988 0.21388 0.0
H895 H 0.75117 0.75637 0.2404 0.0
H896 H 0.76799 0.6938 0.20907 0.0
H897 H 0.76154 0.73442 0.21754 0.0
H898 H 0.687 0.71949 0.22354 0.0
H899 H 0.69333 0.6791 0.21487 0.0
C900 C 0.69474 0.79004 0.22761 0.0
C901 C 0.71013 0.80048 0.23811 0.0
C902 C 0.69945 0.76751 0.22185 0.0
C903 C 0.71968 0.75488 0.22645 0.0
C904 C 0.73552 0.76567 0.23655 0.0
C905 C 0.73078 0.78821 0.24233 0.0
C906 C 0.75023 0.69919 0.2122 0.0
C907 C 0.73117 0.68321 0.21128 0.0
C908 C 0.74655 0.72245 0.2171 0.0
C909 C 0.72373 0.73024 0.22114 0.0
C910 C 0.70473 0.71419 0.22027 0.0
C911 C 0.7084 0.69097 0.21541 0.0
H912 H 0.55452 0.53273 0.01142 0.0
H913 H 0.5546 0.45816 0.00074 0.0
H914 H 0.51605 0.53705 -0.00068 0.0
H915 H 0.51662 0.46259 0.98804 0.0
H916 H 0.43765 0.47239 0.98048 0.0
H917 H 0.47602 0.46856 0.99277 0.0
H918 H 0.49612 0.53761 0.97612 0.0
H919 H 0.45732 0.54179 0.96441 0.0
C920 C 0.54645 0.51731 0.00631 0.0
C921 C 0.55758 0.49509 0.00708 0.0
C922 C 0.5244 0.51979 -0.00071 0.0
C923 C 0.51306 0.50017 0.9927 0.0
C924 C 0.5245 0.47803 0.99324 0.0
C925 C 0.54641 0.4755 0.00043 0.0
C926 C 0.45025 0.48678 0.97949 0.0
C927 C 0.44442 0.5074 0.97148 0.0
C928 C 0.47237 0.48452 0.98644 0.0
C929 C 0.48935 0.50272 0.98541 0.0
C930 C 0.48344 0.52336 0.97738 0.0
C931 C 0.4612 0.52573 0.97058 0.0
H932 H 0.05125 0.51236 0.47489 0.0
H933 H 0.05597 0.43835 0.48671 0.0
H934 H 0.01217 0.51452 0.48654 0.0
H935 H 0.01723 0.44066 0.49876 0.0
H936 H 0.93727 0.44576 0.50434 0.0
H937 H 0.97619 0.44437 0.4925 0.0
H938 H 0.99208 0.51378 0.51027 0.0
H939 H 0.95283 0.51544 0.52174 0.0
C940 C 0.04404 0.4966 0.48009 0.0
C941 C 0.0567 0.47516 0.47982 0.0
C942 C 0.02166 0.49786 0.48685 0.0
C943 C 0.01144 0.47774 0.49355 0.0
C944 C 0.02432 0.4564 0.49346 0.0
C945 C 0.04663 0.45511 0.48665 0.0
C946 C 0.94903 0.46076 0.50568 0.0
C947 C 0.94194 0.4807 0.51399 0.0
C948 C 0.97145 0.4599 0.49898 0.0
C949 C 0.9874 0.4789 0.50049 0.0
C950 C 0.98019 0.49894 0.50871 0.0
C951 C 0.95771 0.49985 0.51535 0.0
H952 H 0.9404 0.53931 0.99637 0.0
H953 H 0.95964 0.47387 0.97437 0.0
H954 H 0.97886 0.54022 0.0088 0.0
H955 H 0.99839 0.47511 0.98647 0.0
H956 H 0.05662 0.47287 0.02235 0.0
H957 H 0.0178 0.47111 0.01034 0.0
H958 H 0.0199 0.54675 0.00324 0.0
H959 H 0.05837 0.54858 0.01562 0.0
C960 C 0.95286 0.52513 0.99416 0.0
C961 C 0.94694 0.50652 0.98436 0.0
C962 C 0.975 0.52574 0.00121 0.0
C963 C 0.99184 0.50782 -0.00141 0.0
C964 C 0.9858 0.48907 0.9889 0.0
C965 C 0.9636 0.48841 0.9819 0.0
C966 C 0.04881 0.48912 0.0182 0.0
C967 C 0.06058 0.51087 0.01998 0.0
C968 C 0.02658 0.4881 0.01125 0.0
C969 C 0.01563 0.5088 0.00585 0.0
C970 C 0.02758 0.53051 0.00749 0.0
C971 C 0.04974 0.53154 0.0145 0.0
H972 H 0.43848 0.53579 0.50418 0.0
H973 H 0.45607 0.47172 0.5282 0.0
H974 H 0.47642 0.53407 0.49113 0.0
H975 H 0.49438 0.47041 0.51556 0.0
H976 H 0.55144 0.46224 0.47955 0.0
H977 H 0.513 0.46328 0.49205 0.0
H978 H 0.51768 0.5395 0.49521 0.0
H979 H 0.55571 0.53846 0.48223 0.0
C980 C 0.45049 0.52138 0.50672 0.0
C981 C 0.44424 0.5039 0.51723 0.0
C982 C 0.47236 0.52047 0.49931 0.0
C983 C 0.48861 0.50217 0.50232 0.0
C984 C 0.48224 0.4846 0.51278 0.0
C985 C 0.46029 0.4854 0.5201 0.0
C986 C 0.54428 0.47921 0.48294 0.0
C987 C 0.55663 0.50027 0.47987 0.0
C988 C 0.52226 0.47982 0.49018 0.0
C989 C 0.51213 0.50148 0.49464 0.0
C990 C 0.52467 0.52252 0.4917 0.0
C991 C 0.5466 0.52192 0.48435 0.0
H992 H 0.2113 0.93822 0.24112 0.0
H993 H 0.17733 0.97625 0.20488 0.0
H994 H 0.2085 0.97333 0.25696 0.0
H995 H 0.17449 0.01131 0.22078 0.0
H996 H 0.2146 0.07343 0.24559 0.0
H997 H 0.20575 0.03869 0.23033 0.0
H998 H 0.18136 0.00163 0.26987 0.0
H999 H 0.19027 0.03628 0.28519 0.0
C1000 C 0.2028 0.95389 0.23663 0.0
C1001 C 0.19478 0.95447 0.22168 0.0
C1002 C 0.20109 0.974 0.24573 0.0
C1003 C 0.19145 0.99515 0.24006 0.0
C1004 C 0.18227 0.99535 0.22539 0.0
C1005 C 0.1838 0.9752 0.21632 0.0
C1006 C 0.20687 0.05808 0.251 0.0
C1007 C 0.20343 0.05757 0.26664 0.0
C1008 C 0.20171 0.03818 0.24223 0.0
C1009 C 0.1931 0.01734 0.24894 0.0
C1010 C 0.18829 0.01733 0.26443 0.0
C1011 C 0.19329 0.03726 0.27318 0.0
H1012 H 0.23889 0.95613 0.54358 0.0
H1013 H 0.19172 0.96425 0.50562 0.0
H1014 H 0.27239 0.952 0.52654 0.0
H1015 H 0.22546 0.96036 0.48855 0.0
H1016 H 0.28936 0.93497 0.4617 0.0
H1017 H 0.25642 0.93259 0.47943 0.0
H1018 H 0.29371 0.97924 0.50977 0.0
H1019 H 0.32672 0.98148 0.49216 0.0
C1020 C 0.2356 0.95688 0.53159 0.0
C1021 C 0.2126 0.96071 0.52597 0.0
C1022 C 0.25487 0.95461 0.52184 0.0
C1023 C 0.25162 0.95605 0.50622 0.0
C1024 C 0.22851 0.95899 0.50054 0.0
C1025 C 0.20919 0.96132 0.51032 0.0
C1026 C 0.2907 0.94446 0.47224 0.0
C1027 C 0.31067 0.9585 0.47548 0.0
C1028 C 0.27173 0.94322 0.48234 0.0
C1029 C 0.27239 0.95583 0.49595 0.0
C1030 C 0.29273 0.96914 0.49944 0.0
C1031 C 0.31163 0.9705 0.48931 0.0
H1032 H 0.3145 0.04428 0.72837 0.0
H1033 H 0.24416 0.05772 0.74579 0.0
H1034 H 0.31366 0.00471 0.73952 0.0
H1035 H 0.24346 0.01834 0.75684 0.0
H1036 H 0.23633 0.93852 0.75479 0.0
H1037 H 0.24144 0.97809 0.74454 0.0
H1038 H 0.31097 0.98238 0.76462 0.0
H1039 H 0.30594 0.94256 0.77499 0.0
C1040 C 0.29907 0.03901 0.7348 0.0
C1041 C 0.27929 0.05412 0.73605 0.0
C1042 C 0.29861 0.01634 0.74116 0.0
C1043 C 0.27831 0.00832 0.74877 0.0
C1044 C 0.25914 0.0239 0.75075 0.0
C1045 C 0.25965 0.04655 0.74452 0.0
C1046 C 0.25287 0.94769 0.75689 0.0
C1047 C 0.27065 0.93739 0.76582 0.0
C1048 C 0.25569 0.97047 0.75112 0.0
C1049 C 0.27641 0.98347 0.75403 0.0
C1050 C 0.29478 0.97278 0.76226 0.0
C1051 C 0.29188 0.94997 0.76817 0.0
H1052 H 0.22635 0.03856 0.95275 0.0
H1053 H 0.18826 0.02217 0.99363 0.0
H1054 H 0.26283 0.04304 0.96708 0.0
H1055 H 0.22494 0.02636 0.00794 0.0
H1056 H 0.29191 0.04997 0.03127 0.0
H1057 H 0.25595 0.05408 0.0163 0.0
H1058 H 0.28909 0.01528 0.98008 0.0
H1059 H 0.32515 0.01138 0.99494 0.0
C1060 C 0.22568 0.03612 0.96482 0.0
C1061 C 0.20438 0.02979 0.97203 0.0
C1062 C 0.24665 0.03859 0.97301 0.0
C1063 C 0.24684 0.03485 0.98862 0.0
C1064 C 0.22535 0.02956 0.99594 0.0
C1065 C 0.20434 0.02705 0.98773 0.0
C1066 C 0.2917 0.04264 0.02001 0.0
C1067 C 0.31139 0.03018 0.01435 0.0
C1068 C 0.271 0.04487 0.01149 0.0
C1069 C 0.26957 0.03482 0.99707 0.0
C1070 C 0.28967 0.0234 0.99111 0.0
C1071 C 0.31033 0.02108 -0.00034 0.0
H1072 H 0.75723 0.93682 0.72279 0.0
H1073 H 0.82191 0.95161 0.74695 0.0
H1074 H 0.74353 0.97715 0.72751 0.0
H1075 H 0.80795 0.99178 0.75207 0.0
H1076 H 0.78621 0.06927 0.74288 0.0
H1077 H 0.80005 0.02895 0.73792 0.0
H1078 H 0.73043 0.00196 0.74872 0.0
H1079 H 0.71652 0.04221 0.75324 0.0
C1080 C 0.76863 0.94878 0.72895 0.0
C1081 C 0.79087 0.94125 0.7342 0.0
C1082 C 0.76064 0.97177 0.73186 0.0
C1083 C 0.77474 0.98772 0.74008 0.0
C1084 C 0.79684 0.98003 0.74551 0.0
C1085 C 0.80474 0.95699 0.74269 0.0
C1086 C 0.77391 0.05469 0.74419 0.0
C1087 C 0.75043 0.05883 0.74877 0.0
C1088 C 0.78185 0.03161 0.74145 0.0
C1089 C 0.76637 0.01224 0.74303 0.0
C1090 C 0.74278 0.01649 0.74738 0.0
C1091 C 0.73491 0.03952 0.75021 0.0
H1092 H 0.6975 0.07735 0.50091 0.0
H1093 H 0.69634 0.00543 0.51727 0.0
H1094 H 0.73893 0.07251 0.49346 0.0
H1095 H 0.73795 1.00067 0.51 0.0
H1096 H 0.80365 0.99575 0.47821 0.0
H1097 H 0.76226 0.99953 0.48607 0.0
H1098 H 0.77822 0.06688 0.50669 0.0
H1099 H 0.81955 0.06322 0.49864 0.0
C1100 C 0.70613 0.06051 0.50292 0.0
C1101 C 0.69384 0.0419 0.50991 0.0
C1102 C 0.72988 0.05781 0.49877 0.0
C1103 C 0.74173 0.03629 0.50129 0.0
C1104 C 0.72927 0.01746 0.50795 0.0
C1105 C 0.70556 0.02028 0.51228 0.0
C1106 C 0.79824 0.01147 0.48426 0.0
C1107 C 0.81468 0.02943 0.48754 0.0
C1108 C 0.77464 0.01349 0.48894 0.0
C1109 C 0.76698 0.03359 0.49689 0.0
C1110 C 0.78356 0.05133 0.50041 0.0
C1111 C 0.80721 0.04917 0.49589 0.0
H1112 H 0.76756 0.05619 0.23984 0.0
H1113 H 0.69189 0.06556 0.2443 0.0
H1114 H 0.76313 0.01397 0.24525 0.0
H1115 H 0.6875 0.02349 0.24996 0.0
H1116 H 0.68642 0.94354 0.24089 0.0
H1117 H 0.69241 0.98549 0.23549 0.0
H1118 H 0.75103 0.98718 0.26668 0.0
H1119 H 0.7453 0.94504 0.27187 0.0
C1120 C 0.74999 0.0492 0.24186 0.0
C1121 C 0.73002 0.06407 0.24136 0.0
C1122 C 0.74748 0.0251 0.24514 0.0
C1123 C 0.72494 0.01539 0.24788 0.0
C1124 C 0.70505 0.0304 0.24767 0.0
C1125 C 0.70759 0.05451 0.24456 0.0
C1126 C 0.70066 0.95284 0.24653 0.0
C1127 C 0.7151 0.94113 0.25703 0.0
C1128 C 0.70397 0.97689 0.24353 0.0
C1129 C 0.722 0.98968 0.2508 0.0
C1130 C 0.73695 0.97779 0.26094 0.0
C1131 C 0.73347 0.95375 0.26406 0.0
H1132 H 0.82607 0.96264 0.00643 0.0
H1133 H 0.78956 0.01827 0.03049 0.0
H1134 H 0.79032 0.95518 0.99172 0.0
H1135 H 0.75419 0.01128 0.01556 0.0
H1136 H 0.68724 0.97853 0.99671 0.0
H1137 H 0.72291 0.98309 0.01197 0.0
H1138 H 0.76632 0.97262 0.97246 0.0
H1139 H 0.73084 0.96738 0.95735 0.0
C1140 C 0.81051 0.97341 0.0085 0.0
C1141 C 0.8107 0.99102 0.01965 0.0
C1142 C 0.79002 0.96918 4e-05 0.0
C1143 C 0.76929 0.98255 0.00251 0.0
C1144 C 0.76963 1.00032 0.01356 0.0
C1145 C 0.79004 0.00447 0.02204 0.0
C1146 C 0.7044 0.97703 0.99131 0.0
C1147 C 0.70614 0.97265 0.9758 0.0
C1148 C 0.72486 0.9798 4e-05 0.0
C1149 C 0.74752 0.97836 0.99343 0.0
C1150 C 0.74921 0.97355 0.97797 0.0
C1151 C 0.7288 0.97067 0.96928 0.0
H1152 H 0.75982 0.56784 0.75871 0.0
H1153 H 0.69212 0.54353 0.77552 0.0
H1154 H 0.76309 0.53235 0.74331 0.0
H1155 H 0.69557 0.50787 0.76014 0.0
H1156 H 0.70306 0.45827 0.71827 0.0
H1157 H 0.69693 0.49372 0.73353 0.0
H1158 H 0.76949 0.48982 0.74882 0.0
H1159 H 0.77574 0.45461 0.73355 0.0
C1160 C 0.74551 0.55507 0.75901 0.0
C1161 C 0.72578 0.55849 0.76843 0.0
C1162 C 0.74749 0.53462 0.75028 0.0
C1163 C 0.72976 0.51715 0.7507 0.0
C1164 C 0.70951 0.52102 0.75958 0.0
C1165 C 0.70757 0.54145 0.76839 0.0
C1166 C 0.71762 0.46481 0.72503 0.0
C1167 C 0.73994 0.45366 0.72461 0.0
C1168 C 0.71409 0.48511 0.73377 0.0
C1169 C 0.73283 0.49475 0.74218 0.0
C1170 C 0.75485 0.48309 0.74221 0.0
C1171 C 0.75835 0.46276 0.73355 0.0
H1172 H 0.7178 0.45086 0.03316 0.0
H1173 H 0.68442 0.48003 0.99354 0.0
H1174 H 0.75546 0.4488 0.01984 0.0
H1175 H 0.72226 0.47816 0.98027 0.0
H1176 H 0.79041 0.45852 0.95698 0.0
H1177 H 0.75311 0.45162 0.97008 0.0
H1178 H 0.7838 0.47891 0.01104 0.0
H1179 H 0.82124 0.48564 -0.00199 0.0
C1180 C 0.71839 0.45657 0.02155 0.0
C1181 C 0.69808 0.46581 0.01446 0.0
C1182 C 0.74005 0.4555 0.01395 0.0
C1183 C 0.74191 0.46351 -0.00094 0.0
C1184 C 0.72138 0.47167 0.99171 0.0
C1185 C 0.69969 0.47283 -0.00067 0.0
C1186 C 0.78938 0.46271 0.96885 0.0
C1187 C 0.80881 0.47284 0.97641 0.0
C1188 C 0.76791 0.45888 0.97631 0.0
C1189 C 0.76541 0.46494 0.99154 0.0
C1190 C 0.7852 0.47389 -0.00068 0.0
C1191 C 0.80666 0.47782 0.99184 0.0
H1192 H 0.812 0.54906 0.22202 0.0
H1193 H 0.73798 0.5549 0.23418 0.0
H1194 H 0.81621 0.51542 0.23909 0.0
H1195 H 0.74229 0.52141 0.25119 0.0
H1196 H 0.75108 0.44437 0.26503 0.0
H1197 H 0.74943 0.4779 0.24781 0.0
H1198 H 0.81429 0.50544 0.26673 0.0
H1199 H 0.81607 0.47185 0.28398 0.0
C1200 C 0.79671 0.54336 0.22844 0.0
C1201 C 0.77462 0.55462 0.22668 0.0
C1202 C 0.79914 0.52411 0.23822 0.0
C1203 C 0.7795 0.51561 0.24631 0.0
C1204 C 0.75763 0.52731 0.24488 0.0
C1205 C 0.75524 0.54665 0.23523 0.0
C1206 C 0.76516 0.4574 0.26542 0.0
C1207 C 0.78364 0.45548 0.27594 0.0
C1208 C 0.76409 0.47671 0.25564 0.0
C1209 C 0.78157 0.49442 0.25607 0.0
C1210 C 0.80059 0.49203 0.26614 0.0
C1211 C 0.80156 0.47281 0.27603 0.0
H1212 H 0.80742 0.4794 0.5039 0.0
H1213 H 0.80323 0.55227 0.51855 0.0
H1214 H 0.76873 0.48315 0.49201 0.0
H1215 H 0.76435 0.5559 0.50664 0.0
H1216 H 0.70576 0.55598 0.46918 0.0
H1217 H 0.74455 0.55515 0.48136 0.0
H1218 H 0.72733 0.48781 0.50153 0.0
H1219 H 0.68865 0.48848 0.48933 0.0
C1220 C 0.7984 0.49631 0.50444 0.0
C1221 C 0.80841 0.5155 0.51225 0.0
C1222 C 0.77611 0.49837 0.49775 0.0
C1223 C 0.76335 0.51969 0.49861 0.0
C1224 C 0.77377 0.53923 0.50581 0.0
C1225 C 0.79605 0.53714 0.51262 0.0
C1226 C 0.7101 0.54114 0.47638 0.0
C1227 C 0.69413 0.52221 0.4782 0.0
C1228 C 0.73232 0.5407 0.48336 0.0
C1229 C 0.7391 0.52125 0.4922 0.0
C1230 C 0.72276 0.50282 0.49453 0.0
C1231 C 0.7005 0.50333 0.48766 0.0
H1232 H 0.24627 0.43984 0.23565 0.0
H1233 H 0.32148 0.45354 0.23307 0.0
H1234 H 0.23922 0.48162 0.24186 0.0
H1235 H 0.31443 0.49517 0.23908 0.0
H1236 H 0.28916 0.57215 0.23491 0.0
H1237 H 0.29229 0.53112 0.22648 0.0
H1238 H 0.25236 0.50824 0.2652 0.0
H1239 H 0.25028 0.54886 0.27407 0.0
C1240 C 0.26121 0.45185 0.23619 0.0
C1241 C 0.28439 0.44357 0.23377 0.0
C1242 C 0.2572 0.47565 0.23983 0.0
C1243 C 0.27628 0.49158 0.24081 0.0
C1244 C 0.2994 0.4833 0.23821 0.0
C1245 C 0.30343 0.45949 0.23488 0.0
C1246 C 0.2808 0.55844 0.24157 0.0
C1247 C 0.26897 0.56405 0.25505 0.0
C1248 C 0.28262 0.53497 0.23672 0.0
C1249 C 0.27242 0.5166 0.24515 0.0
C1250 C 0.25998 0.52216 0.25835 0.0
C1251 C 0.25853 0.54559 0.26335 0.0
H1252 H 0.2895 0.47425 0.97041 0.0
H1253 H 0.31687 0.54259 0.98367 0.0
H1254 H 0.25443 0.48081 0.98573 0.0
H1255 H 0.28134 0.54939 -0.0012 0.0
H1256 H 0.22654 0.53966 0.03707 0.0
H1257 H 0.26165 0.53564 0.02137 0.0
H1258 H 0.21894 0.50472 0.98615 0.0
H1259 H 0.18383 0.50821 0.00202 0.0
C1260 C 0.28804 0.49072 0.97659 0.0
C1261 C 0.30603 0.50791 0.97579 0.0
C1262 C 0.26778 0.49457 0.98527 0.0
C1263 C 0.26491 0.51574 0.99337 0.0
C1264 C 0.28306 0.53282 0.99278 0.0
C1265 C 0.30341 0.52894 0.98409 0.0
C1266 C 0.22456 0.53218 0.02593 0.0
C1267 C 0.20235 0.52409 0.02085 0.0
C1268 C 0.24472 0.52998 0.01689 0.0
C1269 C 0.24319 0.51967 0.00255 0.0
C1270 C 0.22083 0.51233 0.99727 0.0
C1271 C 0.20066 0.51449 0.00632 0.0
H1272 H 0.299 0.53558 0.76136 0.0
H1273 H 0.23397 0.55348 0.73838 0.0
H1274 H 0.28103 0.4989 0.77025 0.0
H1275 H 0.21644 0.51648 0.74654 0.0
H1276 H 0.18432 0.45318 0.76851 0.0
H1277 H 0.20108 0.49267 0.76547 0.0
H1278 H 0.27087 0.46184 0.76031 0.0
H1279 H 0.25404 0.42258 0.76405 0.0
C1280 C 0.2808 0.53177 0.75831 0.0
C1281 C 0.26796 0.54739 0.7491 0.0
C1282 C 0.27055 0.51062 0.76328 0.0
C1283 C 0.24734 0.50442 0.75896 0.0
C1284 C 0.23421 0.52064 0.7503 0.0
C1285 C 0.24432 0.54192 0.74554 0.0
C1286 C 0.20328 0.45498 0.7669 0.0
C1287 C 0.21794 0.43491 0.76664 0.0
C1288 C 0.21291 0.47759 0.76507 0.0
C1289 C 0.23739 0.4806 0.76256 0.0
C1290 C 0.25205 0.4604 0.76252 0.0
C1291 C 0.24243 0.43782 0.76463 0.0
H1292 H 0.32038 0.47054 0.50857 0.0
H1293 H 0.27879 0.52336 0.53187 0.0
H1294 H 0.2853 0.45882 0.49429 0.0
H1295 H 0.24411 0.51216 0.51738 0.0
H1296 H 0.18035 0.47544 0.49803 0.0
H1297 H 0.21529 0.48154 0.51375 0.0
H1298 H 0.26032 0.47392 0.47471 0.0
H1299 H 0.22563 0.46712 0.45916 0.0
C1300 C 0.30381 0.4797 0.51062 0.0
C1301 C 0.30244 0.49792 0.52134 0.0
C1302 C 0.2837 0.47303 0.5024 0.0
C1303 C 0.26182 0.4845 0.50471 0.0
C1304 C 0.26051 0.50262 0.5155 0.0
C1305 C 0.28052 0.50921 0.52372 0.0
C1306 C 0.19773 0.4748 0.49285 0.0
C1307 C 0.20014 0.47093 0.47732 0.0
C1308 C 0.21776 0.47845 0.50184 0.0
C1309 C 0.24065 0.47843 0.49548 0.0
C1310 C 0.24305 0.47379 0.48004 0.0
C1311 C 0.22307 0.47004 0.47108 0.0
loop_
_geom_bond_atom_site_label_1
_geom_bond_atom_site_label_2
_geom_bond_distance
_geom_bond_site_symmetry_2
_ccdc_geom_bond_type
O0 Cd1 2.300 . S
O0 C7 1.275 . S
Cd1 O0 2.300 . S
Cd1 O9 2.381 . S
Cd1 O10 2.378 . S
O2 Cd3 2.385 . S
O2 C7 1.255 . S
Cd3 O2 2.385 . S
Cd3 O4 2.317 . S
O4 Cd3 2.317 . S
O4 C5 1.232 . S
C5 O4 1.232 . S
C5 O6 1.218 . S
O6 C5 1.218 . S
C7 O0 1.275 . S
C7 O2 1.255 . S
C8 O9 1.258 . S
C8 O10 1.256 . S
O9 Cd1 2.381 . S
O9 C8 1.258 . S
O10 Cd1 2.378 . S
O10 C8 1.256 . S
O11 Cd12 2.300 . S
O11 C18 1.275 . S
Cd12 O11 2.300 . S
Cd12 O20 2.381 . S
Cd12 O21 2.378 . S
O13 Cd14 2.385 . S
O13 C18 1.255 . S
Cd14 O13 2.385 . S
Cd14 O15 2.317 . S
O15 Cd14 2.317 . S
O15 C16 1.232 1_565 S
C16 O15 1.232 1_545 S
C16 O17 1.218 1_545 S
O17 C16 1.218 1_565 S
C18 O11 1.275 . S
C18 O13 1.255 . S
C19 O20 1.258 . S
C19 O21 1.256 . S
O20 Cd12 2.381 . S
O20 C19 1.258 . S
O21 Cd12 2.378 . S
O21 C19 1.256 . S
O22 Cd23 2.300 . S
O22 C29 1.275 . S
Cd23 O22 2.300 . S
Cd23 O31 2.381 . S
Cd23 O32 2.378 . S
O24 Cd25 2.385 . S
O24 C29 1.255 . S
Cd25 O24 2.385 . S
Cd25 O26 2.317 . S
O26 Cd25 2.317 . S
O26 C27 1.232 . S
C27 O26 1.232 . S
C27 O28 1.218 . S
O28 C27 1.218 . S
C29 O22 1.275 . S
C29 O24 1.255 . S
C30 O31 1.258 . S
C30 O32 1.256 . S
O31 Cd23 2.381 . S
O31 C30 1.258 . S
O32 Cd23 2.378 . S
O32 C30 1.256 . S
O33 Cd34 2.300 . S
O33 C40 1.275 . S
Cd34 O33 2.300 . S
Cd34 O42 2.381 . S
Cd34 O43 2.378 . S
O35 Cd36 2.385 . S
O35 C40 1.255 . S
Cd36 O35 2.385 . S
Cd36 O37 2.317 . S
O37 Cd36 2.317 . S
O37 C38 1.232 1_545 S
C38 O37 1.232 1_565 S
C38 O39 1.218 1_565 S
O39 C38 1.218 1_545 S
C40 O33 1.275 . S
C40 O35 1.255 . S
C41 O42 1.258 . S
C41 O43 1.256 . S
O42 Cd34 2.381 . S
O42 C41 1.258 . S
O43 Cd34 2.378 . S
O43 C41 1.256 . S
O44 Cd45 2.300 . S
O44 C51 1.275 . S
Cd45 O44 2.300 . S
Cd45 O53 2.381 . S
Cd45 O54 2.378 . S
O46 Cd47 2.385 . S
O46 C51 1.255 . S
Cd47 O46 2.385 . S
Cd47 O48 2.317 . S
O48 Cd47 2.317 . S
O48 C49 1.232 . S
C49 O48 1.232 . S
C49 O50 1.218 . S
O50 C49 1.218 . S
C51 O44 1.275 . S
C51 O46 1.255 . S
C52 O53 1.258 . S
C52 O54 1.256 . S
O53 Cd45 2.381 . S
O53 C52 1.258 . S
O54 Cd45 2.378 . S
O54 C52 1.256 . S
O55 Cd56 2.300 . S
O55 C62 1.275 . S
Cd56 O55 2.300 . S
Cd56 O64 2.381 . S
Cd56 O65 2.378 . S
O57 Cd58 2.385 . S
O57 C62 1.255 . S
Cd58 O57 2.385 . S
Cd58 O59 2.317 . S
O59 Cd58 2.317 . S
O59 C60 1.232 1_565 S
C60 O59 1.232 1_545 S
C60 O61 1.218 1_545 S
O61 C60 1.218 1_565 S
C62 O55 1.275 . S
C62 O57 1.255 . S
C63 O64 1.258 . S
C63 O65 1.256 . S
O64 Cd56 2.381 . S
O64 C63 1.258 . S
O65 Cd56 2.378 . S
O65 C63 1.256 . S
O66 Cd67 2.300 . S
O66 C73 1.275 . S
Cd67 O66 2.300 . S
Cd67 O75 2.381 . S
Cd67 O76 2.378 . S
O68 Cd69 2.385 . S
O68 C73 1.255 . S
Cd69 O68 2.385 . S
Cd69 O70 2.317 . S
O70 Cd69 2.317 . S
O70 C71 1.232 . S
C71 O70 1.232 . S
C71 O72 1.218 . S
O72 C71 1.218 . S
C73 O66 1.275 . S
C73 O68 1.255 . S
C74 O75 1.258 . S
C74 O76 1.256 . S
O75 Cd67 2.381 . S
O75 C74 1.258 . S
O76 Cd67 2.378 . S
O76 C74 1.256 . S
O77 Cd78 2.300 . S
O77 C84 1.275 . S
Cd78 O77 2.300 . S
Cd78 O86 2.381 . S
Cd78 O87 2.378 . S
O79 Cd80 2.385 . S
O79 C84 1.255 . S
Cd80 O79 2.385 . S
Cd80 O81 2.317 . S
O81 Cd80 2.317 . S
O81 C82 1.232 1_545 S
C82 O81 1.232 1_565 S
C82 O83 1.218 1_565 S
O83 C82 1.218 1_545 S
C84 O77 1.275 . S
C84 O79 1.255 . S
C85 O86 1.258 . S
C85 O87 1.256 . S
O86 Cd78 2.381 . S
O86 C85 1.258 . S
O87 Cd78 2.378 . S
O87 C85 1.256 . S
O88 Cd89 2.300 . S
O88 C95 1.275 . S
Cd89 O88 2.300 . S
Cd89 O97 2.381 . S
Cd89 O98 2.378 . S
O90 Cd91 2.385 . S
O90 C95 1.255 . S
Cd91 O90 2.385 . S
Cd91 O92 2.317 . S
O92 Cd91 2.317 . S
O92 C93 1.232 . S
C93 O92 1.232 . S
C93 O94 1.218 . S
O94 C93 1.218 . S
C95 O88 1.275 . S
C95 O90 1.255 . S
C96 O97 1.258 . S
C96 O98 1.256 . S
O97 Cd89 2.381 . S
O97 C96 1.258 . S
O98 Cd89 2.378 . S
O98 C96 1.256 . S
O99 Cd100 2.300 1_545 S
O99 C106 1.275 . S
Cd100 O99 2.300 1_565 S
Cd100 O108 2.381 1_565 S
Cd100 O109 2.378 . S
O101 Cd102 2.385 . S
O101 C106 1.255 1_565 S
Cd102 O101 2.385 . S
Cd102 O103 2.317 . S
O103 Cd102 2.317 . S
O103 C104 1.232 . S
C104 O103 1.232 . S
C104 O105 1.218 . S
O105 C104 1.218 . S
C106 O99 1.275 . S
C106 O101 1.255 1_545 S
C107 O108 1.258 . S
C107 O109 1.256 1_545 S
O108 Cd100 2.381 1_545 S
O108 C107 1.258 . S
O109 Cd100 2.378 . S
O109 C107 1.256 1_565 S
O110 Cd111 2.300 . S
O110 C117 1.275 . S
Cd111 O110 2.300 . S
Cd111 O119 2.381 . S
Cd111 O120 2.378 . S
O112 Cd113 2.385 . S
O112 C117 1.255 . S
Cd113 O112 2.385 . S
Cd113 O114 2.317 . S
O114 Cd113 2.317 . S
O114 C115 1.232 . S
C115 O114 1.232 . S
C115 O116 1.218 . S
O116 C115 1.218 . S
C117 O110 1.275 . S
C117 O112 1.255 . S
C118 O119 1.258 . S
C118 O120 1.256 . S
O119 Cd111 2.381 . S
O119 C118 1.258 . S
O120 Cd111 2.378 . S
O120 C118 1.256 . S
O121 Cd122 2.300 1_565 S
O121 C128 1.275 . S
Cd122 O121 2.300 1_545 S
Cd122 O130 2.381 1_545 S
Cd122 O131 2.378 . S
O123 Cd124 2.385 . S
O123 C128 1.255 1_545 S
Cd124 O123 2.385 . S
Cd124 O125 2.317 . S
O125 Cd124 2.317 . S
O125 C126 1.232 . S
C126 O125 1.232 . S
C126 O127 1.218 . S
O127 C126 1.218 . S
C128 O121 1.275 . S
C128 O123 1.255 1_565 S
C129 O130 1.258 . S
C129 O131 1.256 1_565 S
O130 Cd122 2.381 1_565 S
O130 C129 1.258 . S
O131 Cd122 2.378 . S
O131 C129 1.256 1_545 S
O132 Cd133 2.300 . S
O132 C139 1.275 . S
Cd133 O132 2.300 . S
Cd133 O141 2.381 . S
Cd133 O142 2.378 . S
O134 Cd135 2.385 . S
O134 C139 1.255 . S
Cd135 O134 2.385 . S
Cd135 O136 2.317 . S
O136 Cd135 2.317 . S
O136 C137 1.232 . S
C137 O136 1.232 . S
C137 O138 1.218 . S
O138 C137 1.218 . S
C139 O132 1.275 . S
C139 O134 1.255 . S
C140 O141 1.258 . S
C140 O142 1.256 . S
O141 Cd133 2.381 . S
O141 C140 1.258 . S
O142 Cd133 2.378 . S
O142 C140 1.256 . S
O143 Cd144 2.300 1_545 S
O143 C150 1.275 . S
Cd144 O143 2.300 1_565 S
Cd144 O152 2.381 1_565 S
Cd144 O153 2.378 . S
O145 Cd146 2.385 . S
O145 C150 1.255 1_565 S
Cd146 O145 2.385 . S
Cd146 O147 2.317 . S
O147 Cd146 2.317 . S
O147 C148 1.232 . S
C148 O147 1.232 . S
C148 O149 1.218 . S
O149 C148 1.218 . S
C150 O143 1.275 . S
C150 O145 1.255 1_545 S
C151 O152 1.258 . S
C151 O153 1.256 1_545 S
O152 Cd144 2.381 1_545 S
O152 C151 1.258 . S
O153 Cd144 2.378 . S
O153 C151 1.256 1_565 S
O154 Cd155 2.300 . S
O154 C161 1.275 . S
Cd155 O154 2.300 . S
Cd155 O163 2.381 . S
Cd155 O164 2.378 . S
O156 Cd157 2.385 . S
O156 C161 1.255 . S
Cd157 O156 2.385 . S
Cd157 O158 2.317 . S
O158 Cd157 2.317 . S
O158 C159 1.232 . S
C159 O158 1.232 . S
C159 O160 1.218 . S
O160 C159 1.218 . S
C161 O154 1.275 . S
C161 O156 1.255 . S
C162 O163 1.258 . S
C162 O164 1.256 . S
O163 Cd155 2.381 . S
O163 C162 1.258 . S
O164 Cd155 2.378 . S
O164 C162 1.256 . S
O165 Cd166 2.300 1_565 S
O165 C172 1.275 . S
Cd166 O165 2.300 1_545 S
Cd166 O174 2.381 1_545 S
Cd166 O175 2.378 . S
O167 Cd168 2.385 . S
O167 C172 1.255 1_545 S
Cd168 O167 2.385 . S
Cd168 O169 2.317 . S
O169 Cd168 2.317 . S
O169 C170 1.232 . S
C170 O169 1.232 . S
C170 O171 1.218 . S
O171 C170 1.218 . S
C172 O165 1.275 . S
C172 O167 1.255 1_565 S
C173 O174 1.258 . S
C173 O175 1.256 1_565 S
O174 Cd166 2.381 1_565 S
O174 C173 1.258 . S
O175 Cd166 2.378 . S
O175 C173 1.256 1_545 S
O176 Cd177 2.300 . S
O176 C183 1.275 . S
Cd177 O176 2.300 . S
Cd177 O185 2.381 . S
Cd177 O186 2.378 . S
O178 Cd179 2.385 . S
O178 C183 1.255 . S
Cd179 O178 2.385 . S
Cd179 O180 2.317 . S
O180 Cd179 2.317 . S
O180 C181 1.232 . S
C181 O180 1.232 . S
C181 O182 1.218 . S
O182 C181 1.218 . S
C183 O176 1.275 . S
C183 O178 1.255 . S
C184 O185 1.258 . S
C184 O186 1.256 . S
O185 Cd177 2.381 . S
O185 C184 1.258 . S
O186 Cd177 2.378 . S
O186 C184 1.256 . S
O187 Cd188 2.300 . S
O187 C194 1.275 . S
Cd188 O187 2.300 . S
Cd188 O196 2.381 . S
Cd188 O197 2.378 . S
O189 Cd190 2.385 . S
O189 C194 1.255 . S
Cd190 O189 2.385 . S
Cd190 O191 2.317 . S
O191 Cd190 2.317 . S
O191 C192 1.232 . S
C192 O191 1.232 . S
C192 O193 1.218 . S
O193 C192 1.218 . S
C194 O187 1.275 . S
C194 O189 1.255 . S
C195 O196 1.258 . S
C195 O197 1.256 . S
O196 Cd188 2.381 . S
O196 C195 1.258 . S
O197 Cd188 2.378 . S
O197 C195 1.256 . S
O198 Cd199 2.300 . S
O198 C205 1.275 . S
Cd199 O198 2.300 . S
Cd199 O207 2.381 . S
Cd199 O208 2.378 . S
O200 Cd201 2.385 . S
O200 C205 1.255 . S
Cd201 O200 2.385 . S
Cd201 O202 2.317 . S
O202 Cd201 2.317 . S
O202 C203 1.232 . S
C203 O202 1.232 . S
C203 O204 1.218 . S
O204 C203 1.218 . S
C205 O198 1.275 . S
C205 O200 1.255 . S
C206 O207 1.258 . S
C206 O208 1.256 . S
O207 Cd199 2.381 . S
O207 C206 1.258 . S
O208 Cd199 2.378 . S
O208 C206 1.256 . S
O209 Cd210 2.300 . S
O209 C216 1.275 . S
Cd210 O209 2.300 . S
Cd210 O218 2.381 . S
Cd210 O219 2.378 . S
O211 Cd212 2.385 . S
O211 C216 1.255 . S
Cd212 O211 2.385 . S
Cd212 O213 2.317 . S
O213 Cd212 2.317 . S
O213 C214 1.232 . S
C214 O213 1.232 . S
C214 O215 1.218 . S
O215 C214 1.218 . S
C216 O209 1.275 . S
C216 O211 1.255 . S
C217 O218 1.258 . S
C217 O219 1.256 . S
O218 Cd210 2.381 . S
O218 C217 1.258 . S
O219 Cd210 2.378 . S
O219 C217 1.256 . S
O220 Cd221 2.300 . S
O220 C227 1.275 . S
Cd221 O220 2.300 . S
Cd221 O229 2.381 . S
Cd221 O230 2.378 . S
O222 Cd223 2.385 . S
O222 C227 1.255 . S
Cd223 O222 2.385 . S
Cd223 O224 2.317 . S
O224 Cd223 2.317 . S
O224 C225 1.232 . S
C225 O224 1.232 . S
C225 O226 1.218 . S
O226 C225 1.218 . S
C227 O220 1.275 . S
C227 O222 1.255 . S
C228 O229 1.258 . S
C228 O230 1.256 . S
O229 Cd221 2.381 . S
O229 C228 1.258 . S
O230 Cd221 2.378 . S
O230 C228 1.256 . S
O231 Cd232 2.300 . S
O231 C238 1.275 . S
Cd232 O231 2.300 . S
Cd232 O240 2.381 . S
Cd232 O241 2.378 . S
O233 Cd234 2.385 . S
O233 C238 1.255 . S
Cd234 O233 2.385 . S
Cd234 O235 2.317 . S
O235 Cd234 2.317 . S
O235 C236 1.232 . S
C236 O235 1.232 . S
C236 O237 1.218 . S
O237 C236 1.218 . S
C238 O231 1.275 . S
C238 O233 1.255 . S
C239 O240 1.258 . S
C239 O241 1.256 . S
O240 Cd232 2.381 . S
O240 C239 1.258 . S
O241 Cd232 2.378 . S
O241 C239 1.256 . S
O242 Cd243 2.300 . S
O242 C249 1.275 . S
Cd243 O242 2.300 . S
Cd243 O251 2.381 . S
Cd243 O252 2.378 . S
O244 Cd245 2.385 . S
O244 C249 1.255 . S
Cd245 O244 2.385 . S
Cd245 O246 2.317 . S
O246 Cd245 2.317 . S
O246 C247 1.232 . S
C247 O246 1.232 . S
C247 O248 1.218 . S
O248 C247 1.218 . S
C249 O242 1.275 . S
C249 O244 1.255 . S
C250 O251 1.258 . S
C250 O252 1.256 . S
O251 Cd243 2.381 . S
O251 C250 1.258 . S
O252 Cd243 2.378 . S
O252 C250 1.256 . S
O253 Cd254 2.300 . S
O253 C260 1.275 . S
Cd254 O253 2.300 . S
Cd254 O262 2.381 . S
Cd254 O263 2.378 . S
O255 Cd256 2.385 . S
O255 C260 1.255 . S
Cd256 O255 2.385 . S
Cd256 O257 2.317 . S
O257 Cd256 2.317 . S
O257 C258 1.232 . S
C258 O257 1.232 . S
C258 O259 1.218 . S
O259 C258 1.218 . S
C260 O253 1.275 . S
C260 O255 1.255 . S
C261 O262 1.258 . S
C261 O263 1.256 . S
O262 Cd254 2.381 . S
O262 C261 1.258 . S
O263 Cd254 2.378 . S
O263 C261 1.256 . S
O264 Cd265 2.300 . S
O264 C271 1.275 . S
Cd265 O264 2.300 . S
Cd265 O273 2.381 . S
Cd265 O274 2.378 . S
O266 Cd267 2.385 . S
O266 C271 1.255 . S
Cd267 O266 2.385 . S
Cd267 O268 2.317 . S
O268 Cd267 2.317 . S
O268 C269 1.232 . S
C269 O268 1.232 . S
C269 O270 1.218 . S
O270 C269 1.218 . S
C271 O264 1.275 . S
C271 O266 1.255 . S
C272 O273 1.258 . S
C272 O274 1.256 . S
O273 Cd265 2.381 . S
O273 C272 1.258 . S
O274 Cd265 2.378 . S
O274 C272 1.256 . S
O275 Cd276 2.300 . S
O275 C282 1.275 . S
Cd276 O275 2.300 . S
Cd276 O284 2.381 . S
Cd276 O285 2.378 . S
O277 Cd278 2.385 . S
O277 C282 1.255 . S
Cd278 O277 2.385 . S
Cd278 O279 2.317 . S
O279 Cd278 2.317 . S
O279 C280 1.232 . S
C280 O279 1.232 . S
C280 O281 1.218 . S
O281 C280 1.218 . S
C282 O275 1.275 . S
C282 O277 1.255 . S
C283 O284 1.258 . S
C283 O285 1.256 . S
O284 Cd276 2.381 . S
O284 C283 1.258 . S
O285 Cd276 2.378 . S
O285 C283 1.256 . S
O286 Cd287 2.300 . S
O286 C293 1.275 . S
Cd287 O286 2.300 . S
Cd287 O295 2.381 . S
Cd287 O296 2.378 . S
O288 Cd289 2.385 . S
O288 C293 1.255 . S
Cd289 O288 2.385 . S
Cd289 O290 2.317 . S
O290 Cd289 2.317 . S
O290 C291 1.232 . S
C291 O290 1.232 . S
C291 O292 1.218 . S
O292 C291 1.218 . S
C293 O286 1.275 . S
C293 O288 1.255 . S
C294 O295 1.258 . S
C294 O296 1.256 . S
O295 Cd287 2.381 . S
O295 C294 1.258 . S
O296 Cd287 2.378 . S
O296 C294 1.256 . S
O297 Cd298 2.300 . S
O297 C304 1.275 . S
Cd298 O297 2.300 . S
Cd298 O306 2.381 . S
Cd298 O307 2.378 . S
O299 Cd300 2.385 . S
O299 C304 1.255 . S
Cd300 O299 2.385 . S
Cd300 O301 2.317 . S
O301 Cd300 2.317 . S
O301 C302 1.232 . S
C302 O301 1.232 . S
C302 O303 1.218 . S
O303 C302 1.218 . S
C304 O297 1.275 . S
C304 O299 1.255 . S
C305 O306 1.258 . S
C305 O307 1.256 . S
O306 Cd298 2.381 . S
O306 C305 1.258 . S
O307 Cd298 2.378 . S
O307 C305 1.256 . S
O308 Cd309 2.300 . S
O308 C315 1.275 . S
Cd309 O308 2.300 . S
Cd309 O317 2.381 . S
Cd309 O318 2.378 . S
O310 Cd311 2.385 . S
O310 C315 1.255 . S
Cd311 O310 2.385 . S
Cd311 O312 2.317 . S
O312 Cd311 2.317 . S
O312 C313 1.232 . S
C313 O312 1.232 . S
C313 O314 1.218 . S
O314 C313 1.218 . S
C315 O308 1.275 . S
C315 O310 1.255 . S
C316 O317 1.258 . S
C316 O318 1.256 . S
O317 Cd309 2.381 . S
O317 C316 1.258 . S
O318 Cd309 2.378 . S
O318 C316 1.256 . S
O319 Cd320 2.300 . S
O319 C326 1.275 . S
Cd320 O319 2.300 . S
Cd320 O328 2.381 . S
Cd320 O329 2.378 . S
O321 Cd322 2.385 . S
O321 C326 1.255 . S
Cd322 O321 2.385 . S
Cd322 O323 2.317 . S
O323 Cd322 2.317 . S
O323 C324 1.232 . S
C324 O323 1.232 . S
C324 O325 1.218 . S
O325 C324 1.218 . S
C326 O319 1.275 . S
C326 O321 1.255 . S
C327 O328 1.258 . S
C327 O329 1.256 . S
O328 Cd320 2.381 . S
O328 C327 1.258 . S
O329 Cd320 2.378 . S
O329 C327 1.256 . S
O330 Cd331 2.300 . S
O330 C337 1.275 . S
Cd331 O330 2.300 . S
Cd331 O339 2.381 . S
Cd331 O340 2.378 . S
O332 Cd333 2.385 . S
O332 C337 1.255 . S
Cd333 O332 2.385 . S
Cd333 O334 2.317 . S
O334 Cd333 2.317 . S
O334 C335 1.232 . S
C335 O334 1.232 . S
C335 O336 1.218 . S
O336 C335 1.218 . S
C337 O330 1.275 . S
C337 O332 1.255 . S
C338 O339 1.258 . S
C338 O340 1.256 . S
O339 Cd331 2.381 . S
O339 C338 1.258 . S
O340 Cd331 2.378 . S
O340 C338 1.256 . S
O341 Cd342 2.300 . S
O341 C348 1.275 . S
Cd342 O341 2.300 . S
Cd342 O350 2.381 . S
Cd342 O351 2.378 . S
O343 Cd344 2.385 . S
O343 C348 1.255 . S
Cd344 O343 2.385 . S
Cd344 O345 2.317 . S
O345 Cd344 2.317 . S
O345 C346 1.232 . S
C346 O345 1.232 . S
C346 O347 1.218 . S
O347 C346 1.218 . S
C348 O341 1.275 . S
C348 O343 1.255 . S
C349 O350 1.258 . S
C349 O351 1.256 . S
O350 Cd342 2.381 . S
O350 C349 1.258 . S
O351 Cd342 2.378 . S
O351 C349 1.256 . S
H352 C360 0.950 . S
H353 C365 0.918 1_565 S
H354 C362 0.950 . S
H355 C364 0.950 . S
H356 C366 0.950 . S
H357 C368 0.950 . S
H358 C370 0.950 . S
H359 C371 0.950 . S
C360 H352 0.950 . S
C360 C361 1.386 . S
C360 C362 1.391 . S
C361 C360 1.386 . S
C361 C365 1.393 . S
C362 H354 0.950 . S
C362 C360 1.391 . S
C362 C363 1.400 . S
C363 C362 1.400 . S
C363 C364 1.398 . S
C363 C369 1.491 . S
C364 H355 0.950 . S
C364 C363 1.398 . S
C364 C365 1.391 . S
C365 H353 0.918 1_545 S
C365 C361 1.393 . S
C365 C364 1.391 . S
C366 H356 0.950 . S
C366 C367 1.386 . S
C366 C368 1.391 . S
C367 C366 1.386 . S
C367 C371 1.393 . S
C368 H357 0.950 . S
C368 C366 1.391 . S
C368 C369 1.400 . S
C369 C363 1.491 . S
C369 C368 1.400 . S
C369 C370 1.398 . S
C370 H358 0.950 . S
C370 C369 1.398 . S
C370 C371 1.391 . S
C371 H359 0.950 . S
C371 C367 1.393 . S
C371 C370 1.391 . S
H372 C380 0.950 . S
H373 C385 0.950 1_565 S
H374 C382 0.950 . S
H375 C384 0.950 . S
H376 C386 0.950 . S
H377 C388 0.950 . S
H378 C390 0.950 . S
H379 C391 0.950 . S
C380 H372 0.950 . S
C380 C381 1.386 . S
C380 C382 1.391 . S
C381 C380 1.386 . S
C381 C385 1.393 . S
C382 H374 0.950 . S
C382 C380 1.391 . S
C382 C383 1.400 . S
C383 C382 1.400 . S
C383 C384 1.398 . S
C383 C389 1.491 . S
C384 H375 0.950 . S
C384 C383 1.398 . S
C384 C385 1.391 . S
C385 H373 0.950 1_545 S
C385 C381 1.393 . S
C385 C384 1.391 . S
C386 H376 0.950 . S
C386 C387 1.386 . S
C386 C388 1.391 . S
C387 C386 1.386 . S
C387 C391 1.393 . S
C388 H377 0.950 . S
C388 C386 1.391 . S
C388 C389 1.400 . S
C389 C383 1.491 . S
C389 C388 1.400 . S
C389 C390 1.398 . S
C390 H378 0.950 . S
C390 C389 1.398 . S
C390 C391 1.391 . S
C391 H379 0.950 . S
C391 C387 1.393 . S
C391 C390 1.391 . S
H392 C400 0.950 . S
H393 C405 0.950 . S
H394 C402 0.950 . S
H395 C404 0.950 . S
H396 C406 0.950 1_545 S
H397 C408 0.950 . S
H398 C410 0.950 . S
H399 C411 0.950 . S
C400 H392 0.950 . S
C400 C401 1.386 . S
C400 C402 1.391 . S
C401 C400 1.386 . S
C401 C405 1.393 . S
C402 H394 0.950 . S
C402 C400 1.391 . S
C402 C403 1.400 . S
C403 C402 1.400 . S
C403 C404 1.398 . S
C403 C409 1.491 . S
C404 H395 0.950 . S
C404 C403 1.398 . S
C404 C405 1.391 . S
C405 H393 0.950 . S
C405 C401 1.393 . S
C405 C404 1.391 . S
C406 H396 0.950 1_565 S
C406 C407 1.386 . S
C406 C408 1.391 . S
C407 C406 1.386 . S
C407 C411 1.393 . S
C408 H397 0.950 . S
C408 C406 1.391 . S
C408 C409 1.400 . S
C409 C403 1.491 . S
C409 C408 1.400 . S
C409 C410 1.398 . S
C410 H398 0.950 . S
C410 C409 1.398 . S
C410 C411 1.391 . S
C411 H399 0.950 . S
C411 C407 1.393 . S
C411 C410 1.391 . S
H412 C420 0.950 . S
H413 C425 0.950 . S
H414 C422 0.950 . S
H415 C424 0.950 . S
H416 C426 0.950 . S
H417 C428 0.950 . S
H418 C430 0.950 . S
H419 C431 0.950 . S
C420 H412 0.950 . S
C420 C421 1.386 . S
C420 C422 1.391 . S
C421 C420 1.386 . S
C421 C425 1.393 . S
C422 H414 0.950 . S
C422 C420 1.391 . S
C422 C423 1.400 . S
C423 C422 1.400 . S
C423 C424 1.398 . S
C423 C429 1.491 . S
C424 H415 0.950 . S
C424 C423 1.398 . S
C424 C425 1.391 . S
C425 H413 0.950 . S
C425 C421 1.393 . S
C425 C424 1.391 . S
C426 H416 0.950 . S
C426 C427 1.386 . S
C426 C428 1.391 . S
C427 C426 1.386 . S
C427 C431 1.393 . S
C428 H417 0.950 . S
C428 C426 1.391 . S
C428 C429 1.400 . S
C429 C423 1.491 . S
C429 C428 1.400 . S
C429 C430 1.398 . S
C430 H418 0.950 . S
C430 C429 1.398 . S
C430 C431 1.391 . S
C431 H419 0.950 . S
C431 C427 1.393 . S
C431 C430 1.391 . S
H432 C440 0.950 . S
H433 C445 0.950 . S
H434 C442 0.950 . S
H435 C444 0.950 . S
H436 C446 0.950 . S
H437 C448 0.950 . S
H438 C450 0.950 . S
H439 C451 0.950 . S
C440 H432 0.950 . S
C440 C441 1.386 . S
C440 C442 1.391 . S
C441 C440 1.386 . S
C441 C445 1.393 . S
C442 H434 0.950 . S
C442 C440 1.391 . S
C442 C443 1.400 . S
C443 C442 1.400 . S
C443 C444 1.398 . S
C443 C449 1.491 . S
C444 H435 0.950 . S
C444 C443 1.398 . S
C444 C445 1.391 . S
C445 H433 0.950 . S
C445 C441 1.393 . S
C445 C444 1.391 . S
C446 H436 0.950 . S
C446 C447 1.386 . S
C446 C448 1.391 . S
C447 C446 1.386 . S
C447 C451 1.393 . S
C448 H437 0.950 . S
C448 C446 1.391 . S
C448 C449 1.400 . S
C449 C443 1.491 . S
C449 C448 1.400 . S
C449 C450 1.398 . S
C450 H438 0.950 . S
C450 C449 1.398 . S
C450 C451 1.391 . S
C451 H439 0.950 . S
C451 C447 1.393 . S
C451 C450 1.391 . S
H452 C460 0.950 1_545 S
H453 C465 0.950 . S
H454 C462 0.950 . S
H455 C464 0.950 . S
H456 C466 0.950 . S
H457 C468 0.950 . S
H458 C470 0.950 . S
H459 C471 0.950 . S
C460 H452 0.950 1_565 S
C460 C461 1.386 . S
C460 C462 1.391 . S
C461 C460 1.386 . S
C461 C465 1.393 . S
C462 H454 0.950 . S
C462 C460 1.391 . S
C462 C463 1.400 . S
C463 C462 1.400 . S
C463 C464 1.398 . S
C463 C469 1.491 . S
C464 H455 0.950 . S
C464 C463 1.398 . S
C464 C465 1.391 . S
C465 H453 0.950 . S
C465 C461 1.393 . S
C465 C464 1.391 . S
C466 H456 0.950 . S
C466 C467 1.386 . S
C466 C468 1.391 . S
C467 C466 1.386 . S
C467 C471 1.393 . S
C468 H457 0.950 . S
C468 C466 1.391 . S
C468 C469 1.400 . S
C469 C463 1.491 . S
C469 C468 1.400 . S
C469 C470 1.398 . S
C470 H458 0.950 . S
C470 C469 1.398 . S
C470 C471 1.391 . S
C471 H459 0.950 . S
C471 C467 1.393 . S
C471 C470 1.391 . S
H472 C480 0.950 . S
H473 C485 0.950 . S
H474 C482 0.950 . S
H475 C484 0.950 . S
H476 C486 0.950 . S
H477 C488 0.950 . S
H478 C490 0.950 . S
H479 C491 0.950 1_565 S
C480 H472 0.950 . S
C480 C481 1.386 . S
C480 C482 1.391 . S
C481 C480 1.386 . S
C481 C485 1.393 . S
C482 H474 0.950 . S
C482 C480 1.391 . S
C482 C483 1.400 . S
C483 C482 1.400 . S
C483 C484 1.398 . S
C483 C489 1.491 . S
C484 H475 0.950 . S
C484 C483 1.398 . S
C484 C485 1.391 . S
C485 H473 0.950 . S
C485 C481 1.393 . S
C485 C484 1.391 . S
C486 H476 0.950 . S
C486 C487 1.386 . S
C486 C488 1.391 . S
C487 C486 1.386 . S
C487 C491 1.393 . S
C488 H477 0.950 . S
C488 C486 1.391 . S
C488 C489 1.400 . S
C489 C483 1.491 . S
C489 C488 1.400 . S
C489 C490 1.398 . S
C490 H478 0.950 . S
C490 C489 1.398 . S
C490 C491 1.391 . S
C491 H479 0.950 1_545 S
C491 C487 1.393 . S
C491 C490 1.391 . S
H492 C500 0.950 . S
H493 C505 0.950 . S
H494 C502 0.950 . S
H495 C504 0.950 . S
H496 C506 0.950 . S
H497 C508 0.950 . S
H498 C510 0.950 . S
H499 C511 0.950 . S
C500 H492 0.950 . S
C500 C501 1.386 . S
C500 C502 1.391 . S
C501 C500 1.386 . S
C501 C505 1.393 . S
C502 H494 0.950 . S
C502 C500 1.391 . S
C502 C503 1.400 . S
C503 C502 1.400 . S
C503 C504 1.398 . S
C503 C509 1.491 . S
C504 H495 0.950 . S
C504 C503 1.398 . S
C504 C505 1.391 . S
C505 H493 0.950 . S
C505 C501 1.393 . S
C505 C504 1.391 . S
C506 H496 0.950 . S
C506 C507 1.386 . S
C506 C508 1.391 . S
C507 C506 1.386 . S
C507 C511 1.393 . S
C508 H497 0.950 . S
C508 C506 1.391 . S
C508 C509 1.400 . S
C509 C503 1.491 . S
C509 C508 1.400 . S
C509 C510 1.398 . S
C510 H498 0.950 . S
C510 C509 1.398 . S
C510 C511 1.391 . S
C511 H499 0.950 . S
C511 C507 1.393 . S
C511 C510 1.391 . S
H512 C520 0.950 . S
H513 C525 0.950 . S
H514 C522 0.950 . S
H515 C524 0.950 . S
H516 C526 0.950 . S
H517 C528 0.950 . S
H518 C530 0.950 . S
H519 C531 0.950 . S
C520 H512 0.950 . S
C520 C521 1.386 . S
C520 C522 1.391 . S
C521 C520 1.386 . S
C521 C525 1.393 . S
C522 H514 0.950 . S
C522 C520 1.391 . S
C522 C523 1.400 . S
C523 C522 1.400 . S
C523 C524 1.398 . S
C523 C529 1.491 . S
C524 H515 0.950 . S
C524 C523 1.398 . S
C524 C525 1.391 . S
C525 H513 0.950 . S
C525 C521 1.393 . S
C525 C524 1.391 . S
C526 H516 0.950 . S
C526 C527 1.386 . S
C526 C528 1.391 . S
C527 C526 1.386 . S
C527 C531 1.393 . S
C528 H517 0.950 . S
C528 C526 1.391 . S
C528 C529 1.400 . S
C529 C523 1.491 . S
C529 C528 1.400 . S
C529 C530 1.398 . S
C530 H518 0.950 . S
C530 C529 1.398 . S
C530 C531 1.391 . S
C531 H519 0.950 . S
C531 C527 1.393 . S
C531 C530 1.391 . S
H532 C540 0.950 . S
H533 C545 0.950 . S
H534 C542 0.950 . S
H535 C544 0.950 . S
H536 C546 0.950 . S
H537 C548 0.950 . S
H538 C550 0.950 . S
H539 C551 0.950 . S
C540 H532 0.950 . S
C540 C541 1.386 . S
C540 C542 1.391 . S
C541 C540 1.386 . S
C541 C545 1.393 . S
C542 H534 0.950 . S
C542 C540 1.391 . S
C542 C543 1.400 . S
C543 C542 1.400 . S
C543 C544 1.398 . S
C543 C549 1.491 . S
C544 H535 0.950 . S
C544 C543 1.398 . S
C544 C545 1.391 . S
C545 H533 0.950 . S
C545 C541 1.393 . S
C545 C544 1.391 . S
C546 H536 0.950 . S
C546 C547 1.386 . S
C546 C548 1.391 . S
C547 C546 1.386 . S
C547 C551 1.393 . S
C548 H537 0.950 . S
C548 C546 1.391 . S
C548 C549 1.400 . S
C549 C543 1.491 . S
C549 C548 1.400 . S
C549 C550 1.398 . S
C550 H538 0.950 . S
C550 C549 1.398 . S
C550 C551 1.391 . S
C551 H539 0.950 . S
C551 C547 1.393 . S
C551 C550 1.391 . S
H552 C560 0.950 . S
H553 C565 0.950 . S
H554 C562 0.950 . S
H555 C564 0.950 . S
H556 C566 0.950 . S
H557 C568 0.950 . S
H558 C570 0.950 . S
H559 C571 0.950 . S
C560 H552 0.950 . S
C560 C561 1.386 . S
C560 C562 1.391 . S
C561 C560 1.386 . S
C561 C565 1.393 . S
C562 H554 0.950 . S
C562 C560 1.391 . S
C562 C563 1.400 . S
C563 C562 1.400 . S
C563 C564 1.398 . S
C563 C569 1.491 . S
C564 H555 0.950 . S
C564 C563 1.398 . S
C564 C565 1.391 . S
C565 H553 0.950 . S
C565 C561 1.393 . S
C565 C564 1.391 . S
C566 H556 0.950 . S
C566 C567 1.386 . S
C566 C568 1.391 . S
C567 C566 1.386 . S
C567 C571 1.393 . S
C568 H557 0.950 . S
C568 C566 1.391 . S
C568 C569 1.400 . S
C569 C563 1.491 . S
C569 C568 1.400 . S
C569 C570 1.398 . S
C570 H558 0.950 . S
C570 C569 1.398 . S
C570 C571 1.391 . S
C571 H559 0.950 . S
C571 C567 1.393 . S
C571 C570 1.391 . S
H572 C580 0.950 . S
H573 C585 0.950 . S
H574 C582 0.950 . S
H575 C584 0.950 . S
H576 C586 0.950 . S
H577 C588 0.950 . S
H578 C590 0.950 . S
H579 C591 0.950 . S
C580 H572 0.950 . S
C580 C581 1.386 . S
C580 C582 1.391 . S
C581 C580 1.386 . S
C581 C585 1.393 . S
C582 H574 0.950 . S
C582 C580 1.391 . S
C582 C583 1.400 . S
C583 C582 1.400 . S
C583 C584 1.398 . S
C583 C589 1.491 . S
C584 H575 0.950 . S
C584 C583 1.398 . S
C584 C585 1.391 . S
C585 H573 0.950 . S
C585 C581 1.393 . S
C585 C584 1.391 . S
C586 H576 0.950 . S
C586 C587 1.386 . S
C586 C588 1.391 . S
C587 C586 1.386 . S
C587 C591 1.393 . S
C588 H577 0.950 . S
C588 C586 1.391 . S
C588 C589 1.400 . S
C589 C583 1.491 . S
C589 C588 1.400 . S
C589 C590 1.398 . S
C590 H578 0.950 . S
C590 C589 1.398 . S
C590 C591 1.391 . S
C591 H579 0.950 . S
C591 C587 1.393 . S
C591 C590 1.391 . S
H592 C600 0.950 . S
H593 C605 0.950 . S
H594 C602 0.950 . S
H595 C604 0.950 . S
H596 C606 0.950 . S
H597 C608 0.950 . S
H598 C610 0.950 . S
H599 C611 0.950 . S
C600 H592 0.950 . S
C600 C601 1.386 . S
C600 C602 1.391 . S
C601 C600 1.386 . S
C601 C605 1.393 . S
C602 H594 0.950 . S
C602 C600 1.391 . S
C602 C603 1.400 . S
C603 C602 1.400 . S
C603 C604 1.398 . S
C603 C609 1.491 . S
C604 H595 0.950 . S
C604 C603 1.398 . S
C604 C605 1.391 . S
C605 H593 0.950 . S
C605 C601 1.393 . S
C605 C604 1.391 . S
C606 H596 0.950 . S
C606 C607 1.386 . S
C606 C608 1.391 . S
C607 C606 1.386 . S
C607 C611 1.393 . S
C608 H597 0.950 . S
C608 C606 1.391 . S
C608 C609 1.400 . S
C609 C603 1.491 . S
C609 C608 1.400 . S
C609 C610 1.398 . S
C610 H598 0.950 . S
C610 C609 1.398 . S
C610 C611 1.391 . S
C611 H599 0.950 . S
C611 C607 1.393 . S
C611 C610 1.391 . S
H612 C620 0.950 . S
H613 C625 0.950 . S
H614 C622 0.950 . S
H615 C624 0.950 . S
H616 C626 0.950 . S
H617 C628 0.950 . S
H618 C630 0.950 . S
H619 C631 0.950 . S
C620 H612 0.950 . S
C620 C621 1.386 . S
C620 C622 1.391 . S
C621 C620 1.386 . S
C621 C625 1.393 . S
C622 H614 0.950 . S
C622 C620 1.391 . S
C622 C623 1.400 . S
C623 C622 1.400 . S
C623 C624 1.398 . S
C623 C629 1.491 . S
C624 H615 0.950 . S
C624 C623 1.398 . S
C624 C625 1.391 . S
C625 H613 0.950 . S
C625 C621 1.393 . S
C625 C624 1.391 . S
C626 H616 0.950 . S
C626 C627 1.386 . S
C626 C628 1.391 . S
C627 C626 1.386 . S
C627 C631 1.393 . S
C628 H617 0.950 . S
C628 C626 1.391 . S
C628 C629 1.400 . S
C629 C623 1.491 . S
C629 C628 1.400 . S
C629 C630 1.398 . S
C630 H618 0.950 . S
C630 C629 1.398 . S
C630 C631 1.391 . S
C631 H619 0.950 . S
C631 C627 1.393 . S
C631 C630 1.391 . S
H632 C640 0.950 . S
H633 C645 0.950 . S
H634 C642 0.950 . S
H635 C644 0.950 . S
H636 C646 0.950 . S
H637 C648 0.950 . S
H638 C650 0.950 . S
H639 C651 0.950 . S
C640 H632 0.950 . S
C640 C641 1.386 . S
C640 C642 1.391 . S
C641 C640 1.386 . S
C641 C645 1.393 . S
C642 H634 0.950 . S
C642 C640 1.391 . S
C642 C643 1.400 . S
C643 C642 1.400 . S
C643 C644 1.398 . S
C643 C649 1.491 . S
C644 H635 0.950 . S
C644 C643 1.398 . S
C644 C645 1.391 . S
C645 H633 0.950 . S
C645 C641 1.393 . S
C645 C644 1.391 . S
C646 H636 0.950 . S
C646 C647 1.386 . S
C646 C648 1.391 . S
C647 C646 1.386 . S
C647 C651 1.393 . S
C648 H637 0.950 . S
C648 C646 1.391 . S
C648 C649 1.400 . S
C649 C643 1.491 . S
C649 C648 1.400 . S
C649 C650 1.398 . S
C650 H638 0.950 . S
C650 C649 1.398 . S
C650 C651 1.391 . S
C651 H639 0.950 . S
C651 C647 1.393 . S
C651 C650 1.391 . S
H652 C660 0.950 . S
H653 C665 0.950 . S
H654 C662 0.950 . S
H655 C664 0.950 . S
H656 C666 0.950 . S
H657 C668 0.950 . S
H658 C670 0.950 . S
H659 C671 0.950 . S
C660 H652 0.950 . S
C660 C661 1.386 . S
C660 C662 1.391 . S
C661 C660 1.386 . S
C661 C665 1.393 . S
C662 H654 0.950 . S
C662 C660 1.391 . S
C662 C663 1.400 . S
C663 C662 1.400 . S
C663 C664 1.398 . S
C663 C669 1.491 . S
C664 H655 0.950 . S
C664 C663 1.398 . S
C664 C665 1.391 . S
C665 H653 0.950 . S
C665 C661 1.393 . S
C665 C664 1.391 . S
C666 H656 0.950 . S
C666 C667 1.386 . S
C666 C668 1.391 . S
C667 C666 1.386 . S
C667 C671 1.393 . S
C668 H657 0.950 . S
C668 C666 1.391 . S
C668 C669 1.400 . S
C669 C663 1.491 . S
C669 C668 1.400 . S
C669 C670 1.398 . S
C670 H658 0.950 . S
C670 C669 1.398 . S
C670 C671 1.391 . S
C671 H659 0.950 . S
C671 C667 1.393 . S
C671 C670 1.391 . S
H672 C680 0.950 . S
H673 C685 0.950 . S
H674 C682 0.950 . S
H675 C684 0.950 . S
H676 C686 0.950 . S
H677 C688 0.950 . S
H678 C690 0.950 . S
H679 C691 0.950 . S
C680 H672 0.950 . S
C680 C681 1.386 . S
C680 C682 1.391 . S
C681 C680 1.386 . S
C681 C685 1.393 . S
C682 H674 0.950 . S
C682 C680 1.391 . S
C682 C683 1.400 . S
C683 C682 1.400 . S
C683 C684 1.398 . S
C683 C689 1.491 . S
C684 H675 0.950 . S
C684 C683 1.398 . S
C684 C685 1.391 . S
C685 H673 0.950 . S
C685 C681 1.393 . S
C685 C684 1.391 . S
C686 H676 0.950 . S
C686 C687 1.386 . S
C686 C688 1.391 . S
C687 C686 1.386 . S
C687 C691 1.393 . S
C688 H677 0.950 . S
C688 C686 1.391 . S
C688 C689 1.400 . S
C689 C683 1.491 . S
C689 C688 1.400 . S
C689 C690 1.398 . S
C690 H678 0.950 . S
C690 C689 1.398 . S
C690 C691 1.391 . S
C691 H679 0.950 . S
C691 C687 1.393 . S
C691 C690 1.391 . S
H692 C700 0.950 . S
H693 C705 0.950 . S
H694 C702 0.950 . S
H695 C704 0.926 1_455 S
H696 C706 0.950 . S
H697 C708 0.950 . S
H698 C710 0.926 1_655 S
H699 C711 0.950 . S
C700 H692 0.950 . S
C700 C701 1.386 1_565 S
C700 C702 1.391 . S
C701 C700 1.386 1_545 S
C701 C705 1.393 . S
C702 H694 0.950 . S
C702 C700 1.391 . S
C702 C703 1.400 1_565 S
C703 C702 1.400 1_545 S
C703 C704 1.398 . S
C703 C709 1.491 1_645 S
C704 H695 0.926 1_655 S
C704 C703 1.398 . S
C704 C705 1.391 . S
C705 H693 0.950 . S
C705 C701 1.393 . S
C705 C704 1.391 . S
C706 H696 0.950 . S
C706 C707 1.386 1_545 S
C706 C708 1.391 . S
C707 C706 1.386 1_565 S
C707 C711 1.393 . S
C708 H697 0.950 . S
C708 C706 1.391 . S
C708 C709 1.400 1_545 S
C709 C703 1.491 1_465 S
C709 C708 1.400 1_565 S
C709 C710 1.398 . S
C710 H698 0.926 1_455 S
C710 C709 1.398 . S
C710 C711 1.391 . S
C711 H699 0.950 . S
C711 C707 1.393 . S
C711 C710 1.391 . S
H712 C720 0.950 . S
H713 C725 0.950 . S
H714 C722 0.950 . S
H715 C724 0.950 . S
H716 C726 0.950 . S
H717 C728 0.950 . S
H718 C730 0.950 . S
H719 C731 0.950 . S
C720 H712 0.950 . S
C720 C721 1.386 . S
C720 C722 1.391 . S
C721 C720 1.386 . S
C721 C725 1.393 . S
C722 H714 0.950 . S
C722 C720 1.391 . S
C722 C723 1.400 . S
C723 C722 1.400 . S
C723 C724 1.398 . S
C723 C729 1.491 . S
C724 H715 0.950 . S
C724 C723 1.398 . S
C724 C725 1.391 . S
C725 H713 0.950 . S
C725 C721 1.393 . S
C725 C724 1.391 . S
C726 H716 0.950 . S
C726 C727 1.386 . S
C726 C728 1.391 . S
C727 C726 1.386 . S
C727 C731 1.393 . S
C728 H717 0.950 . S
C728 C726 1.391 . S
C728 C729 1.400 . S
C729 C723 1.491 . S
C729 C728 1.400 . S
C729 C730 1.398 . S
C730 H718 0.950 . S
C730 C729 1.398 . S
C730 C731 1.391 . S
C731 H719 0.950 . S
C731 C727 1.393 . S
C731 C730 1.391 . S
H732 C740 0.950 . S
H733 C745 0.950 . S
H734 C742 0.982 . S
H735 C744 0.950 . S
H736 C746 0.950 . S
H737 C748 0.982 . S
H738 C750 0.950 . S
H739 C751 0.950 . S
C740 H732 0.950 . S
C740 C741 1.386 . S
C740 C742 1.373 1_554 S
C741 C740 1.386 . S
C741 C745 1.393 1_545 S
C742 H734 0.982 . S
C742 C740 1.373 1_556 S
C742 C743 1.389 1_556 S
C743 C742 1.389 1_554 S
C743 C744 1.398 1_545 S
C743 C749 1.491 1_544 S
C744 H735 0.950 . S
C744 C743 1.398 1_565 S
C744 C745 1.391 . S
C745 H733 0.950 . S
C745 C741 1.393 1_565 S
C745 C744 1.391 . S
C746 H736 0.950 . S
C746 C747 1.386 . S
C746 C748 1.373 1_556 S
C747 C746 1.386 . S
C747 C751 1.393 1_565 S
C748 H737 0.982 . S
C748 C746 1.373 1_554 S
C748 C749 1.389 1_554 S
C749 C743 1.491 1_566 S
C749 C748 1.389 1_556 S
C749 C750 1.398 1_565 S
C750 H738 0.950 . S
C750 C749 1.398 1_545 S
C750 C751 1.391 . S
C751 H739 0.950 . S
C751 C747 1.393 1_545 S
C751 C750 1.391 . S
H752 C760 0.950 . S
H753 C765 0.950 . S
H754 C762 0.950 . S
H755 C764 0.950 . S
H756 C766 0.950 . S
H757 C768 0.950 . S
H758 C770 0.950 . S
H759 C771 0.950 . S
C760 H752 0.950 . S
C760 C761 1.386 . S
C760 C762 1.391 . S
C761 C760 1.386 . S
C761 C765 1.393 . S
C762 H754 0.950 . S
C762 C760 1.391 . S
C762 C763 1.400 . S
C763 C762 1.400 . S
C763 C764 1.398 . S
C763 C769 1.491 . S
C764 H755 0.950 . S
C764 C763 1.398 . S
C764 C765 1.391 . S
C765 H753 0.950 . S
C765 C761 1.393 . S
C765 C764 1.391 . S
C766 H756 0.950 . S
C766 C767 1.386 . S
C766 C768 1.391 . S
C767 C766 1.386 . S
C767 C771 1.393 . S
C768 H757 0.950 . S
C768 C766 1.391 . S
C768 C769 1.400 . S
C769 C763 1.491 . S
C769 C768 1.400 . S
C769 C770 1.398 . S
C770 H758 0.950 . S
C770 C769 1.398 . S
C770 C771 1.391 . S
C771 H759 0.950 . S
C771 C767 1.393 . S
C771 C770 1.391 . S
H772 C780 0.950 . S
H773 C785 0.950 . S
H774 C782 0.950 . S
H775 C784 0.950 . S
H776 C786 0.950 . S
H777 C788 0.950 . S
H778 C790 0.950 . S
H779 C791 0.950 . S
C780 H772 0.950 . S
C780 C781 1.386 1_565 S
C780 C782 1.391 . S
C781 C780 1.386 1_545 S
C781 C785 1.393 . S
C782 H774 0.950 . S
C782 C780 1.391 . S
C782 C783 1.400 1_565 S
C783 C782 1.400 1_545 S
C783 C784 1.398 . S
C783 C789 1.491 1_545 S
C784 H775 0.950 . S
C784 C783 1.398 . S
C784 C785 1.391 . S
C785 H773 0.950 . S
C785 C781 1.393 . S
C785 C784 1.391 . S
C786 H776 0.950 . S
C786 C787 1.386 1_545 S
C786 C788 1.391 . S
C787 C786 1.386 1_565 S
C787 C791 1.393 . S
C788 H777 0.950 . S
C788 C786 1.391 . S
C788 C789 1.400 1_545 S
C789 C783 1.491 1_565 S
C789 C788 1.400 1_565 S
C789 C790 1.398 . S
C790 H778 0.950 . S
C790 C789 1.398 . S
C790 C791 1.391 . S
C791 H779 0.950 . S
C791 C787 1.393 . S
C791 C790 1.391 . S
H792 C800 0.950 . S
H793 C805 0.950 . S
H794 C802 0.950 . S
H795 C804 0.950 . S
H796 C806 0.950 . S
H797 C808 0.950 . S
H798 C810 0.950 . S
H799 C811 0.950 . S
C800 H792 0.950 . S
C800 C801 1.386 . S
C800 C802 1.391 . S
C801 C800 1.386 . S
C801 C805 1.393 . S
C802 H794 0.950 . S
C802 C800 1.391 . S
C802 C803 1.400 . S
C803 C802 1.400 . S
C803 C804 1.398 . S
C803 C809 1.491 . S
C804 H795 0.950 . S
C804 C803 1.398 . S
C804 C805 1.391 . S
C805 H793 0.950 . S
C805 C801 1.393 . S
C805 C804 1.391 . S
C806 H796 0.950 . S
C806 C807 1.386 . S
C806 C808 1.391 . S
C807 C806 1.386 . S
C807 C811 1.393 . S
C808 H797 0.950 . S
C808 C806 1.391 . S
C808 C809 1.400 . S
C809 C803 1.491 . S
C809 C808 1.400 . S
C809 C810 1.398 . S
C810 H798 0.950 . S
C810 C809 1.398 . S
C810 C811 1.391 . S
C811 H799 0.950 . S
C811 C807 1.393 . S
C811 C810 1.391 . S
H812 C820 0.950 . S
H813 C825 0.950 . S
H814 C822 0.950 . S
H815 C824 0.947 . S
H816 C826 0.950 . S
H817 C828 0.950 . S
H818 C830 0.947 . S
H819 C831 0.950 . S
C820 H812 0.950 . S
C820 C821 1.386 1_545 S
C820 C822 1.391 1_554 S
C821 C820 1.386 1_565 S
C821 C825 1.393 . S
C822 H814 0.950 . S
C822 C820 1.391 1_556 S
C822 C823 1.400 1_546 S
C823 C822 1.400 1_564 S
C823 C824 1.398 . S
C823 C829 1.491 1_664 S
C824 H815 0.947 . S
C824 C823 1.398 . S
C824 C825 1.391 . S
C825 H813 0.950 . S
C825 C821 1.393 . S
C825 C824 1.391 . S
C826 H816 0.950 . S
C826 C827 1.386 1_565 S
C826 C828 1.391 1_556 S
C827 C826 1.386 1_545 S
C827 C831 1.393 . S
C828 H817 0.950 . S
C828 C826 1.391 1_554 S
C828 C829 1.400 1_564 S
C829 C823 1.491 1_446 S
C829 C828 1.400 1_546 S
C829 C830 1.398 . S
C830 H818 0.947 . S
C830 C829 1.398 . S
C830 C831 1.391 . S
C831 H819 0.950 . S
C831 C827 1.393 . S
C831 C830 1.391 . S
H832 C840 0.950 . S
H833 C845 0.950 . S
H834 C842 0.950 . S
H835 C844 0.950 . S
H836 C846 0.950 . S
H837 C848 0.950 . S
H838 C850 0.950 . S
H839 C851 0.950 . S
C840 H832 0.950 . S
C840 C841 1.386 . S
C840 C842 1.391 . S
C841 C840 1.386 . S
C841 C845 1.393 . S
C842 H834 0.950 . S
C842 C840 1.391 . S
C842 C843 1.400 . S
C843 C842 1.400 . S
C843 C844 1.398 . S
C843 C849 1.491 . S
C844 H835 0.950 . S
C844 C843 1.398 . S
C844 C845 1.391 . S
C845 H833 0.950 . S
C845 C841 1.393 . S
C845 C844 1.391 . S
C846 H836 0.950 . S
C846 C847 1.386 . S
C846 C848 1.391 . S
C847 C846 1.386 . S
C847 C851 1.393 . S
C848 H837 0.950 . S
C848 C846 1.391 . S
C848 C849 1.400 . S
C849 C843 1.491 . S
C849 C848 1.400 . S
C849 C850 1.398 . S
C850 H838 0.950 . S
C850 C849 1.398 . S
C850 C851 1.391 . S
C851 H839 0.950 . S
C851 C847 1.393 . S
C851 C850 1.391 . S
H852 C860 0.950 . S
H853 C865 0.950 . S
H854 C862 0.950 . S
H855 C864 0.950 . S
H856 C866 0.950 . S
H857 C868 0.950 . S
H858 C870 0.950 . S
H859 C871 0.950 . S
C860 H852 0.950 . S
C860 C861 1.386 . S
C860 C862 1.391 . S
C861 C860 1.386 . S
C861 C865 1.393 . S
C862 H854 0.950 . S
C862 C860 1.391 . S
C862 C863 1.400 . S
C863 C862 1.400 . S
C863 C864 1.398 . S
C863 C869 1.491 . S
C864 H855 0.950 . S
C864 C863 1.398 . S
C864 C865 1.391 . S
C865 H853 0.950 . S
C865 C861 1.393 . S
C865 C864 1.391 . S
C866 H856 0.950 . S
C866 C867 1.386 . S
C866 C868 1.391 . S
C867 C866 1.386 . S
C867 C871 1.393 . S
C868 H857 0.950 . S
C868 C866 1.391 . S
C868 C869 1.400 . S
C869 C863 1.491 . S
C869 C868 1.400 . S
C869 C870 1.398 . S
C870 H858 0.950 . S
C870 C869 1.398 . S
C870 C871 1.391 . S
C871 H859 0.950 . S
C871 C867 1.393 . S
C871 C870 1.391 . S
H872 C880 0.950 . S
H873 C885 0.950 . S
H874 C882 0.950 . S
H875 C884 0.950 . S
H876 C886 0.950 . S
H877 C888 0.950 . S
H878 C890 0.950 . S
H879 C891 0.950 . S
C880 H872 0.950 . S
C880 C881 1.386 . S
C880 C882 1.391 . S
C881 C880 1.386 . S
C881 C885 1.393 . S
C882 H874 0.950 . S
C882 C880 1.391 . S
C882 C883 1.400 . S
C883 C882 1.400 . S
C883 C884 1.398 . S
C883 C889 1.491 . S
C884 H875 0.950 . S
C884 C883 1.398 . S
C884 C885 1.391 . S
C885 H873 0.950 . S
C885 C881 1.393 . S
C885 C884 1.391 . S
C886 H876 0.950 . S
C886 C887 1.386 . S
C886 C888 1.391 . S
C887 C886 1.386 . S
C887 C891 1.393 . S
C888 H877 0.950 . S
C888 C886 1.391 . S
C888 C889 1.400 . S
C889 C883 1.491 . S
C889 C888 1.400 . S
C889 C890 1.398 . S
C890 H878 0.950 . S
C890 C889 1.398 . S
C890 C891 1.391 . S
C891 H879 0.950 . S
C891 C887 1.393 . S
C891 C890 1.391 . S
H892 C900 0.950 . S
H893 C905 0.950 . S
H894 C902 0.950 . S
H895 C904 0.950 . S
H896 C906 0.950 . S
H897 C908 0.950 . S
H898 C910 0.950 . S
H899 C911 0.950 . S
C900 H892 0.950 . S
C900 C901 1.386 . S
C900 C902 1.391 . S
C901 C900 1.386 . S
C901 C905 1.393 . S
C902 H894 0.950 . S
C902 C900 1.391 . S
C902 C903 1.400 . S
C903 C902 1.400 . S
C903 C904 1.398 . S
C903 C909 1.491 . S
C904 H895 0.950 . S
C904 C903 1.398 . S
C904 C905 1.391 . S
C905 H893 0.950 . S
C905 C901 1.393 . S
C905 C904 1.391 . S
C906 H896 0.950 . S
C906 C907 1.386 . S
C906 C908 1.391 . S
C907 C906 1.386 . S
C907 C911 1.393 . S
C908 H897 0.950 . S
C908 C906 1.391 . S
C908 C909 1.400 . S
C909 C903 1.491 . S
C909 C908 1.400 . S
C909 C910 1.398 . S
C910 H898 0.950 . S
C910 C909 1.398 . S
C910 C911 1.391 . S
C911 H899 0.950 . S
C911 C907 1.393 . S
C911 C910 1.391 . S
H912 C920 0.950 . S
H913 C925 0.950 . S
H914 C922 0.950 . S
H915 C924 0.950 . S
H916 C926 0.950 . S
H917 C928 0.950 . S
H918 C930 0.950 . S
H919 C931 0.950 . S
C920 H912 0.950 . S
C920 C921 1.386 . S
C920 C922 1.391 1_554 S
C921 C920 1.386 . S
C921 C925 1.393 . S
C922 H914 0.950 . S
C922 C920 1.391 1_556 S
C922 C923 1.400 1_556 S
C923 C922 1.400 1_554 S
C923 C924 1.398 . S
C923 C929 1.491 1_554 S
C924 H915 0.950 . S
C924 C923 1.398 . S
C924 C925 1.391 . S
C925 H913 0.950 . S
C925 C921 1.393 . S
C925 C924 1.391 . S
C926 H916 0.950 . S
C926 C927 1.386 . S
C926 C928 1.391 1_556 S
C927 C926 1.386 . S
C927 C931 1.393 . S
C928 H917 0.950 . S
C928 C926 1.391 1_554 S
C928 C929 1.400 1_554 S
C929 C923 1.491 1_556 S
C929 C928 1.400 1_556 S
C929 C930 1.398 . S
C930 H918 0.950 . S
C930 C929 1.398 . S
C930 C931 1.391 . S
C931 H919 0.950 . S
C931 C927 1.393 . S
C931 C930 1.391 . S
H932 C940 0.950 . S
H933 C945 0.950 . S
H934 C942 0.950 . S
H935 C944 0.950 . S
H936 C946 0.950 . S
H937 C948 0.950 . S
H938 C950 0.950 . S
H939 C951 0.950 . S
C940 H932 0.950 . S
C940 C941 1.386 . S
C940 C942 1.391 . S
C941 C940 1.386 . S
C941 C945 1.393 . S
C942 H934 0.950 . S
C942 C940 1.391 . S
C942 C943 1.400 . S
C943 C942 1.400 . S
C943 C944 1.398 . S
C943 C949 1.491 1_455 S
C944 H935 0.950 . S
C944 C943 1.398 . S
C944 C945 1.391 . S
C945 H933 0.950 . S
C945 C941 1.393 . S
C945 C944 1.391 . S
C946 H936 0.950 . S
C946 C947 1.386 . S
C946 C948 1.391 . S
C947 C946 1.386 . S
C947 C951 1.393 . S
C948 H937 0.950 . S
C948 C946 1.391 . S
C948 C949 1.400 . S
C949 C943 1.491 1_655 S
C949 C948 1.400 . S
C949 C950 1.398 . S
C950 H938 0.950 . S
C950 C949 1.398 . S
C950 C951 1.391 . S
C951 H939 0.950 . S
C951 C947 1.393 . S
C951 C950 1.391 . S
H952 C960 0.950 . S
H953 C965 0.950 . S
H954 C962 0.950 . S
H955 C964 0.950 . S
H956 C966 0.950 . S
H957 C968 0.950 . S
H958 C970 0.950 . S
H959 C971 0.950 . S
C960 H952 0.950 . S
C960 C961 1.386 . S
C960 C962 1.391 . S
C961 C960 1.386 . S
C961 C965 1.393 . S
C962 H954 0.950 . S
C962 C960 1.391 . S
C962 C963 1.400 . S
C963 C962 1.400 . S
C963 C964 1.398 . S
C963 C969 1.491 1_656 S
C964 H955 0.950 . S
C964 C963 1.398 . S
C964 C965 1.391 . S
C965 H953 0.950 . S
C965 C961 1.393 . S
C965 C964 1.391 . S
C966 H956 0.950 . S
C966 C967 1.386 . S
C966 C968 1.391 . S
C967 C966 1.386 . S
C967 C971 1.393 . S
C968 H957 0.950 . S
C968 C966 1.391 . S
C968 C969 1.400 . S
C969 C963 1.491 1_454 S
C969 C968 1.400 . S
C969 C970 1.398 . S
C970 H958 0.950 . S
C970 C969 1.398 . S
C970 C971 1.391 . S
C971 H959 0.950 . S
C971 C967 1.393 . S
C971 C970 1.391 . S
H972 C980 0.950 . S
H973 C985 0.950 . S
H974 C982 0.950 . S
H975 C984 0.950 . S
H976 C986 0.950 . S
H977 C988 0.950 . S
H978 C990 0.950 . S
H979 C991 0.950 . S
C980 H972 0.950 . S
C980 C981 1.386 . S
C980 C982 1.391 . S
C981 C980 1.386 . S
C981 C985 1.393 . S
C982 H974 0.950 . S
C982 C980 1.391 . S
C982 C983 1.400 . S
C983 C982 1.400 . S
C983 C984 1.398 . S
C983 C989 1.491 . S
C984 H975 0.950 . S
C984 C983 1.398 . S
C984 C985 1.391 . S
C985 H973 0.950 . S
C985 C981 1.393 . S
C985 C984 1.391 . S
C986 H976 0.950 . S
C986 C987 1.386 . S
C986 C988 1.391 . S
C987 C986 1.386 . S
C987 C991 1.393 . S
C988 H977 0.950 . S
C988 C986 1.391 . S
C988 C989 1.400 . S
C989 C983 1.491 . S
C989 C988 1.400 . S
C989 C990 1.398 . S
C990 H978 0.950 . S
C990 C989 1.398 . S
C990 C991 1.391 . S
C991 H979 0.950 . S
C991 C987 1.393 . S
C991 C990 1.391 . S
H992 C1000 0.950 . S
H993 C1005 0.950 . S
H994 C1002 0.950 . S
H995 C1004 0.950 1_545 S
H996 C1006 0.950 . S
H997 C1008 0.950 . S
H998 C1010 0.950 1_565 S
H999 C1011 0.950 . S
C1000 H992 0.950 . S
C1000 C1001 1.386 . S
C1000 C1002 1.391 . S
C1001 C1000 1.386 . S
C1001 C1005 1.393 . S
C1002 H994 0.950 . S
C1002 C1000 1.391 . S
C1002 C1003 1.400 . S
C1003 C1002 1.400 . S
C1003 C1004 1.398 . S
C1003 C1009 1.491 1_565 S
C1004 H995 0.950 1_565 S
C1004 C1003 1.398 . S
C1004 C1005 1.391 . S
C1005 H993 0.950 . S
C1005 C1001 1.393 . S
C1005 C1004 1.391 . S
C1006 H996 0.950 . S
C1006 C1007 1.386 . S
C1006 C1008 1.391 . S
C1007 C1006 1.386 . S
C1007 C1011 1.393 . S
C1008 H997 0.950 . S
C1008 C1006 1.391 . S
C1008 C1009 1.400 . S
C1009 C1003 1.491 1_545 S
C1009 C1008 1.400 . S
C1009 C1010 1.398 . S
C1010 H998 0.950 1_545 S
C1010 C1009 1.398 . S
C1010 C1011 1.391 . S
C1011 H999 0.950 . S
C1011 C1007 1.393 . S
C1011 C1010 1.391 . S
H1012 C1020 0.942 1_545 S
H1013 C1025 0.950 . S
H1014 C1022 0.950 1_545 S
H1015 C1024 0.950 . S
H1016 C1026 0.950 . S
H1017 C1028 0.950 . S
H1018 C1030 0.945 1_545 S
H1019 C1031 0.944 1_545 S
C1020 H1012 0.942 1_565 S
C1020 C1021 1.386 . S
C1020 C1022 1.391 . S
C1021 C1020 1.386 . S
C1021 C1025 1.393 . S
C1022 H1014 0.950 1_565 S
C1022 C1020 1.391 . S
C1022 C1023 1.400 . S
C1023 C1022 1.400 . S
C1023 C1024 1.398 . S
C1023 C1029 1.491 . S
C1024 H1015 0.950 . S
C1024 C1023 1.398 . S
C1024 C1025 1.391 . S
C1025 H1013 0.950 . S
C1025 C1021 1.393 . S
C1025 C1024 1.391 . S
C1026 H1016 0.950 . S
C1026 C1027 1.386 . S
C1026 C1028 1.391 . S
C1027 C1026 1.386 . S
C1027 C1031 1.399 . S
C1028 H1017 0.950 . S
C1028 C1026 1.391 . S
C1028 C1029 1.400 . S
C1029 C1023 1.491 . S
C1029 C1028 1.400 . S
C1029 C1030 1.403 . S
C1030 H1018 0.945 1_565 S
C1030 C1029 1.403 . S
C1030 C1031 1.391 . S
C1031 H1019 0.944 1_565 S
C1031 C1027 1.399 . S
C1031 C1030 1.391 . S
H1032 C1040 0.950 . S
H1033 C1045 0.950 . S
H1034 C1042 0.950 . S
H1035 C1044 0.950 . S
H1036 C1046 0.950 . S
H1037 C1048 0.950 . S
H1038 C1050 0.950 . S
H1039 C1051 0.950 . S
C1040 H1032 0.950 . S
C1040 C1041 1.386 . S
C1040 C1042 1.391 . S
C1041 C1040 1.386 . S
C1041 C1045 1.393 . S
C1042 H1034 0.950 . S
C1042 C1040 1.391 . S
C1042 C1043 1.400 . S
C1043 C1042 1.400 . S
C1043 C1044 1.398 . S
C1043 C1049 1.491 1_545 S
C1044 H1035 0.950 . S
C1044 C1043 1.398 . S
C1044 C1045 1.391 . S
C1045 H1033 0.950 . S
C1045 C1041 1.393 . S
C1045 C1044 1.391 . S
C1046 H1036 0.950 . S
C1046 C1047 1.386 . S
C1046 C1048 1.391 . S
C1047 C1046 1.386 . S
C1047 C1051 1.393 . S
C1048 H1037 0.950 . S
C1048 C1046 1.391 . S
C1048 C1049 1.400 . S
C1049 C1043 1.491 1_565 S
C1049 C1048 1.400 . S
C1049 C1050 1.398 . S
C1050 H1038 0.950 . S
C1050 C1049 1.398 . S
C1050 C1051 1.391 . S
C1051 H1039 0.950 . S
C1051 C1047 1.393 . S
C1051 C1050 1.391 . S
H1052 C1060 0.950 . S
H1053 C1065 0.946 1_565 S
H1054 C1062 0.950 . S
H1055 C1064 0.954 . S
H1056 C1066 0.950 1_565 S
H1057 C1068 0.950 1_565 S
H1058 C1070 0.950 . S
H1059 C1071 0.950 . S
C1060 H1052 0.950 . S
C1060 C1061 1.386 . S
C1060 C1062 1.391 . S
C1061 C1060 1.386 . S
C1061 C1065 1.393 . S
C1062 H1054 0.950 . S
C1062 C1060 1.391 . S
C1062 C1063 1.400 . S
C1063 C1062 1.400 . S
C1063 C1064 1.398 1_556 S
C1063 C1069 1.491 1_556 S
C1064 H1055 0.954 . S
C1064 C1063 1.398 1_554 S
C1064 C1065 1.391 1_554 S
C1065 H1053 0.946 1_545 S
C1065 C1061 1.393 . S
C1065 C1064 1.391 1_556 S
C1066 H1056 0.950 1_545 S
C1066 C1067 1.386 . S
C1066 C1068 1.391 . S
C1067 C1066 1.386 . S
C1067 C1071 1.393 . S
C1068 H1057 0.950 1_545 S
C1068 C1066 1.391 . S
C1068 C1069 1.400 . S
C1069 C1063 1.491 1_554 S
C1069 C1068 1.400 . S
C1069 C1070 1.398 1_554 S
C1070 H1058 0.950 . S
C1070 C1069 1.398 1_556 S
C1070 C1071 1.391 1_556 S
C1071 H1059 0.950 . S
C1071 C1067 1.393 . S
C1071 C1070 1.391 1_554 S
H1072 C1080 0.950 . S
H1073 C1085 0.950 . S
H1074 C1082 0.950 . S
H1075 C1084 0.950 . S
H1076 C1086 0.950 . S
H1077 C1088 0.950 . S
H1078 C1090 0.950 . S
H1079 C1091 0.950 . S
C1080 H1072 0.950 . S
C1080 C1081 1.386 . S
C1080 C1082 1.391 . S
C1081 C1080 1.386 . S
C1081 C1085 1.393 . S
C1082 H1074 0.950 . S
C1082 C1080 1.391 . S
C1082 C1083 1.400 . S
C1083 C1082 1.400 . S
C1083 C1084 1.398 . S
C1083 C1089 1.491 1_565 S
C1084 H1075 0.950 . S
C1084 C1083 1.398 . S
C1084 C1085 1.391 . S
C1085 H1073 0.950 . S
C1085 C1081 1.393 . S
C1085 C1084 1.391 . S
C1086 H1076 0.950 . S
C1086 C1087 1.386 . S
C1086 C1088 1.391 . S
C1087 C1086 1.386 . S
C1087 C1091 1.393 . S
C1088 H1077 0.950 . S
C1088 C1086 1.391 . S
C1088 C1089 1.400 . S
C1089 C1083 1.491 1_545 S
C1089 C1088 1.400 . S
C1089 C1090 1.398 . S
C1090 H1078 0.950 . S
C1090 C1089 1.398 . S
C1090 C1091 1.391 . S
C1091 H1079 0.950 . S
C1091 C1087 1.393 . S
C1091 C1090 1.391 . S
H1092 C1100 0.950 . S
H1093 C1105 0.950 . S
H1094 C1102 0.950 . S
H1095 C1104 0.950 . S
H1096 C1106 0.950 . S
H1097 C1108 0.950 . S
H1098 C1110 0.950 . S
H1099 C1111 0.950 . S
C1100 H1092 0.950 . S
C1100 C1101 1.386 . S
C1100 C1102 1.391 . S
C1101 C1100 1.386 . S
C1101 C1105 1.393 1_545 S
C1102 H1094 0.950 . S
C1102 C1100 1.391 . S
C1102 C1103 1.400 . S
C1103 C1102 1.400 . S
C1103 C1104 1.398 1_545 S
C1103 C1109 1.491 . S
C1104 H1095 0.950 . S
C1104 C1103 1.398 1_565 S
C1104 C1105 1.391 . S
C1105 H1093 0.950 . S
C1105 C1101 1.393 1_565 S
C1105 C1104 1.391 . S
C1106 H1096 0.950 . S
C1106 C1107 1.386 1_565 S
C1106 C1108 1.391 . S
C1107 C1106 1.386 1_545 S
C1107 C1111 1.393 . S
C1108 H1097 0.950 . S
C1108 C1106 1.391 . S
C1108 C1109 1.400 1_565 S
C1109 C1103 1.491 . S
C1109 C1108 1.400 1_545 S
C1109 C1110 1.398 . S
C1110 H1098 0.950 . S
C1110 C1109 1.398 . S
C1110 C1111 1.391 . S
C1111 H1099 0.950 . S
C1111 C1107 1.393 . S
C1111 C1110 1.391 . S
H1112 C1120 0.950 . S
H1113 C1125 0.950 . S
H1114 C1122 0.950 . S
H1115 C1124 0.950 . S
H1116 C1126 0.950 . S
H1117 C1128 0.950 . S
H1118 C1130 0.950 . S
H1119 C1131 0.950 . S
C1120 H1112 0.950 . S
C1120 C1121 1.386 . S
C1120 C1122 1.391 . S
C1121 C1120 1.386 . S
C1121 C1125 1.393 . S
C1122 H1114 0.950 . S
C1122 C1120 1.391 . S
C1122 C1123 1.400 . S
C1123 C1122 1.400 . S
C1123 C1124 1.398 . S
C1123 C1129 1.491 1_545 S
C1124 H1115 0.950 . S
C1124 C1123 1.398 . S
C1124 C1125 1.391 . S
C1125 H1113 0.950 . S
C1125 C1121 1.393 . S
C1125 C1124 1.391 . S
C1126 H1116 0.950 . S
C1126 C1127 1.386 . S
C1126 C1128 1.391 . S
C1127 C1126 1.386 . S
C1127 C1131 1.393 . S
C1128 H1117 0.950 . S
C1128 C1126 1.391 . S
C1128 C1129 1.400 . S
C1129 C1123 1.491 1_565 S
C1129 C1128 1.400 . S
C1129 C1130 1.398 . S
C1130 H1118 0.950 . S
C1130 C1129 1.398 . S
C1130 C1131 1.391 . S
C1131 H1119 0.950 . S
C1131 C1127 1.393 . S
C1131 C1130 1.391 . S
H1132 C1140 0.950 . S
H1133 C1145 0.950 . S
H1134 C1142 0.950 . S
H1135 C1144 0.950 . S
H1136 C1146 0.950 . S
H1137 C1148 0.950 . S
H1138 C1150 0.950 . S
H1139 C1151 0.950 . S
C1140 H1132 0.950 . S
C1140 C1141 1.386 . S
C1140 C1142 1.391 1_554 S
C1141 C1140 1.386 . S
C1141 C1145 1.393 . S
C1142 H1134 0.950 . S
C1142 C1140 1.391 1_556 S
C1142 C1143 1.400 1_556 S
C1143 C1142 1.400 1_554 S
C1143 C1144 1.398 . S
C1143 C1149 1.491 1_554 S
C1144 H1135 0.950 . S
C1144 C1143 1.398 . S
C1144 C1145 1.391 . S
C1145 H1133 0.950 . S
C1145 C1141 1.393 . S
C1145 C1144 1.391 . S
C1146 H1136 0.950 . S
C1146 C1147 1.386 . S
C1146 C1148 1.391 1_556 S
C1147 C1146 1.386 . S
C1147 C1151 1.393 . S
C1148 H1137 0.950 . S
C1148 C1146 1.391 1_554 S
C1148 C1149 1.400 1_554 S
C1149 C1143 1.491 1_556 S
C1149 C1148 1.400 1_556 S
C1149 C1150 1.398 . S
C1150 H1138 0.950 . S
C1150 C1149 1.398 . S
C1150 C1151 1.391 . S
C1151 H1139 0.950 . S
C1151 C1147 1.393 . S
C1151 C1150 1.391 . S
H1152 C1160 0.950 . S
H1153 C1165 0.950 . S
H1154 C1162 0.950 . S
H1155 C1164 0.950 . S
H1156 C1166 0.950 . S
H1157 C1168 0.950 . S
H1158 C1170 0.950 . S
H1159 C1171 0.950 . S
C1160 H1152 0.950 . S
C1160 C1161 1.386 . S
C1160 C1162 1.391 . S
C1161 C1160 1.386 . S
C1161 C1165 1.393 . S
C1162 H1154 0.950 . S
C1162 C1160 1.391 . S
C1162 C1163 1.400 . S
C1163 C1162 1.400 . S
C1163 C1164 1.398 . S
C1163 C1169 1.491 . S
C1164 H1155 0.950 . S
C1164 C1163 1.398 . S
C1164 C1165 1.391 . S
C1165 H1153 0.950 . S
C1165 C1161 1.393 . S
C1165 C1164 1.391 . S
C1166 H1156 0.950 . S
C1166 C1167 1.386 . S
C1166 C1168 1.391 . S
C1167 C1166 1.386 . S
C1167 C1171 1.393 . S
C1168 H1157 0.950 . S
C1168 C1166 1.391 . S
C1168 C1169 1.400 . S
C1169 C1163 1.491 . S
C1169 C1168 1.400 . S
C1169 C1170 1.398 . S
C1170 H1158 0.950 . S
C1170 C1169 1.398 . S
C1170 C1171 1.391 . S
C1171 H1159 0.950 . S
C1171 C1167 1.393 . S
C1171 C1170 1.391 . S
H1172 C1180 0.950 . S
H1173 C1185 0.950 . S
H1174 C1182 0.950 . S
H1175 C1184 0.948 . S
H1176 C1186 0.950 . S
H1177 C1188 0.950 . S
H1178 C1190 0.948 . S
H1179 C1191 0.950 . S
C1180 H1172 0.950 . S
C1180 C1181 1.386 . S
C1180 C1182 1.391 . S
C1181 C1180 1.386 . S
C1181 C1185 1.393 . S
C1182 H1174 0.950 . S
C1182 C1180 1.391 . S
C1182 C1183 1.400 . S
C1183 C1182 1.400 . S
C1183 C1184 1.399 1_554 S
C1183 C1189 1.491 1_554 S
C1184 H1175 0.948 . S
C1184 C1183 1.399 1_556 S
C1184 C1185 1.392 1_556 S
C1185 H1173 0.950 . S
C1185 C1181 1.393 . S
C1185 C1184 1.392 1_554 S
C1186 H1176 0.950 . S
C1186 C1187 1.386 . S
C1186 C1188 1.391 . S
C1187 C1186 1.386 . S
C1187 C1191 1.393 . S
C1188 H1177 0.950 . S
C1188 C1186 1.391 . S
C1188 C1189 1.400 . S
C1189 C1183 1.491 1_556 S
C1189 C1188 1.400 . S
C1189 C1190 1.399 1_556 S
C1190 H1178 0.948 . S
C1190 C1189 1.399 1_554 S
C1190 C1191 1.392 1_554 S
C1191 H1179 0.950 . S
C1191 C1187 1.393 . S
C1191 C1190 1.392 1_556 S
H1192 C1200 0.950 . S
H1193 C1205 0.950 . S
H1194 C1202 0.950 . S
H1195 C1204 0.950 . S
H1196 C1206 0.950 . S
H1197 C1208 0.950 . S
H1198 C1210 0.950 . S
H1199 C1211 0.950 . S
C1200 H1192 0.950 . S
C1200 C1201 1.386 . S
C1200 C1202 1.391 . S
C1201 C1200 1.386 . S
C1201 C1205 1.393 . S
C1202 H1194 0.950 . S
C1202 C1200 1.391 . S
C1202 C1203 1.400 . S
C1203 C1202 1.400 . S
C1203 C1204 1.398 . S
C1203 C1209 1.491 . S
C1204 H1195 0.950 . S
C1204 C1203 1.398 . S
C1204 C1205 1.391 . S
C1205 H1193 0.950 . S
C1205 C1201 1.393 . S
C1205 C1204 1.391 . S
C1206 H1196 0.950 . S
C1206 C1207 1.386 . S
C1206 C1208 1.391 . S
C1207 C1206 1.386 . S
C1207 C1211 1.393 . S
C1208 H1197 0.950 . S
C1208 C1206 1.391 . S
C1208 C1209 1.400 . S
C1209 C1203 1.491 . S
C1209 C1208 1.400 . S
C1209 C1210 1.398 . S
C1210 H1198 0.950 . S
C1210 C1209 1.398 . S
C1210 C1211 1.391 . S
C1211 H1199 0.950 . S
C1211 C1207 1.393 . S
C1211 C1210 1.391 . S
H1212 C1220 0.950 . S
H1213 C1225 0.950 . S
H1214 C1222 0.950 . S
H1215 C1224 0.950 . S
H1216 C1226 0.950 . S
H1217 C1228 0.950 . S
H1218 C1230 0.950 . S
H1219 C1231 0.950 . S
C1220 H1212 0.950 . S
C1220 C1221 1.386 . S
C1220 C1222 1.391 . S
C1221 C1220 1.386 . S
C1221 C1225 1.393 . S
C1222 H1214 0.950 . S
C1222 C1220 1.391 . S
C1222 C1223 1.400 . S
C1223 C1222 1.400 . S
C1223 C1224 1.398 . S
C1223 C1229 1.491 . S
C1224 H1215 0.950 . S
C1224 C1223 1.398 . S
C1224 C1225 1.391 . S
C1225 H1213 0.950 . S
C1225 C1221 1.393 . S
C1225 C1224 1.391 . S
C1226 H1216 0.950 . S
C1226 C1227 1.386 . S
C1226 C1228 1.391 . S
C1227 C1226 1.386 . S
C1227 C1231 1.393 . S
C1228 H1217 0.950 . S
C1228 C1226 1.391 . S
C1228 C1229 1.400 . S
C1229 C1223 1.491 . S
C1229 C1228 1.400 . S
C1229 C1230 1.398 . S
C1230 H1218 0.950 . S
C1230 C1229 1.398 . S
C1230 C1231 1.391 . S
C1231 H1219 0.950 . S
C1231 C1227 1.393 . S
C1231 C1230 1.391 . S
H1232 C1240 0.950 . S
H1233 C1245 0.950 . S
H1234 C1242 0.950 . S
H1235 C1244 0.950 . S
H1236 C1246 0.950 . S
H1237 C1248 0.950 . S
H1238 C1250 0.950 . S
H1239 C1251 0.950 . S
C1240 H1232 0.950 . S
C1240 C1241 1.386 . S
C1240 C1242 1.391 . S
C1241 C1240 1.386 . S
C1241 C1245 1.393 . S
C1242 H1234 0.950 . S
C1242 C1240 1.391 . S
C1242 C1243 1.400 . S
C1243 C1242 1.400 . S
C1243 C1244 1.398 . S
C1243 C1249 1.491 . S
C1244 H1235 0.950 . S
C1244 C1243 1.398 . S
C1244 C1245 1.391 . S
C1245 H1233 0.950 . S
C1245 C1241 1.393 . S
C1245 C1244 1.391 . S
C1246 H1236 0.950 . S
C1246 C1247 1.386 . S
C1246 C1248 1.391 . S
C1247 C1246 1.386 . S
C1247 C1251 1.393 . S
C1248 H1237 0.950 . S
C1248 C1246 1.391 . S
C1248 C1249 1.400 . S
C1249 C1243 1.491 . S
C1249 C1248 1.400 . S
C1249 C1250 1.398 . S
C1250 H1238 0.950 . S
C1250 C1249 1.398 . S
C1250 C1251 1.391 . S
C1251 H1239 0.950 . S
C1251 C1247 1.393 . S
C1251 C1250 1.391 . S
H1252 C1260 0.950 . S
H1253 C1265 0.950 . S
H1254 C1262 0.950 . S
H1255 C1264 0.950 . S
H1256 C1266 0.950 . S
H1257 C1268 0.950 . S
H1258 C1270 0.950 . S
H1259 C1271 0.950 . S
C1260 H1252 0.950 . S
C1260 C1261 1.386 . S
C1260 C1262 1.391 . S
C1261 C1260 1.386 . S
C1261 C1265 1.393 . S
C1262 H1254 0.950 . S
C1262 C1260 1.391 . S
C1262 C1263 1.400 . S
C1263 C1262 1.400 . S
C1263 C1264 1.398 1_556 S
C1263 C1269 1.491 1_556 S
C1264 H1255 0.950 . S
C1264 C1263 1.398 1_554 S
C1264 C1265 1.391 1_554 S
C1265 H1253 0.950 . S
C1265 C1261 1.393 . S
C1265 C1264 1.391 1_556 S
C1266 H1256 0.950 . S
C1266 C1267 1.386 . S
C1266 C1268 1.391 . S
C1267 C1266 1.386 . S
C1267 C1271 1.393 . S
C1268 H1257 0.950 . S
C1268 C1266 1.391 . S
C1268 C1269 1.400 . S
C1269 C1263 1.491 1_554 S
C1269 C1268 1.400 . S
C1269 C1270 1.398 1_554 S
C1270 H1258 0.950 . S
C1270 C1269 1.398 1_556 S
C1270 C1271 1.391 1_556 S
C1271 H1259 0.950 . S
C1271 C1267 1.393 . S
C1271 C1270 1.391 1_554 S
H1272 C1280 0.950 . S
H1273 C1285 0.950 . S
H1274 C1282 0.950 . S
H1275 C1284 0.950 . S
H1276 C1286 0.950 . S
H1277 C1288 0.950 . S
H1278 C1290 0.950 . S
H1279 C1291 0.950 . S
C1280 H1272 0.950 . S
C1280 C1281 1.386 . S
C1280 C1282 1.391 . S
C1281 C1280 1.386 . S
C1281 C1285 1.393 . S
C1282 H1274 0.950 . S
C1282 C1280 1.391 . S
C1282 C1283 1.400 . S
C1283 C1282 1.400 . S
C1283 C1284 1.398 . S
C1283 C1289 1.491 . S
C1284 H1275 0.950 . S
C1284 C1283 1.398 . S
C1284 C1285 1.391 . S
C1285 H1273 0.950 . S
C1285 C1281 1.393 . S
C1285 C1284 1.391 . S
C1286 H1276 0.950 . S
C1286 C1287 1.386 . S
C1286 C1288 1.391 . S
C1287 C1286 1.386 . S
C1287 C1291 1.393 . S
C1288 H1277 0.950 . S
C1288 C1286 1.391 . S
C1288 C1289 1.400 . S
C1289 C1283 1.491 . S
C1289 C1288 1.400 . S
C1289 C1290 1.398 . S
C1290 H1278 0.950 . S
C1290 C1289 1.398 . S
C1290 C1291 1.391 . S
C1291 H1279 0.950 . S
C1291 C1287 1.393 . S
C1291 C1290 1.391 . S
H1292 C1300 0.950 . S
H1293 C1305 0.950 . S
H1294 C1302 0.950 . S
H1295 C1304 0.950 . S
H1296 C1306 0.950 . S
H1297 C1308 0.950 . S
H1298 C1310 0.950 . S
H1299 C1311 0.950 . S
C1300 H1292 0.950 . S
C1300 C1301 1.386 . S
C1300 C1302 1.391 . S
C1301 C1300 1.386 . S
C1301 C1305 1.393 . S
C1302 H1294 0.950 . S
C1302 C1300 1.391 . S
C1302 C1303 1.400 . S
C1303 C1302 1.400 . S
C1303 C1304 1.398 . S
C1303 C1309 1.491 . S
C1304 H1295 0.950 . S
C1304 C1303 1.398 . S
C1304 C1305 1.391 . S
C1305 H1293 0.950 . S
C1305 C1301 1.393 . S
C1305 C1304 1.391 . S
C1306 H1296 0.950 . S
C1306 C1307 1.386 . S
C1306 C1308 1.391 . S
C1307 C1306 1.386 . S
C1307 C1311 1.393 . S
C1308 H1297 0.950 . S
C1308 C1306 1.391 . S
C1308 C1309 1.400 . S
C1309 C1303 1.491 . S
C1309 C1308 1.400 . S
C1309 C1310 1.398 . S
C1310 H1298 0.950 . S
C1310 C1309 1.398 . S
C1310 C1311 1.391 . S
C1311 H1299 0.950 . S
C1311 C1307 1.393 . S
C1311 C1310 1.391 . S
C361 C60 1.431 . S
C367 C5 1.442 . S
C381 C16 1.452 . S
C387 C71 1.428 . S
C401 C27 1.429 . S
C407 C82 1.454 . S
C421 C38 1.421 . S
C427 C49 1.461 . S
C441 C148 1.300 . S
C447 C93 1.315 . S
C461 C104 1.332 . S
C467 C159 1.333 . S
C481 C115 1.334 . S
C487 C170 1.329 . S
C501 C137 1.317 . S
C507 C126 1.300 . S
C521 C181 1.444 . S
C527 C236 1.469 . S
C541 C247 1.453 . S
C547 C192 1.481 . S
C561 C258 1.481 . S
C567 C203 1.452 . S
C581 C214 1.473 . S
C587 C225 1.442 . S
C601 C324 1.304 . S
C607 C269 1.326 . S
C621 C335 1.302 . S
C627 C280 1.289 . S
C641 C291 1.343 . S
C647 C346 1.336 . S
C661 C313 1.321 . S
C667 C302 1.338 . S
C681 C272 1.581 . S
C687 C8 1.635 . S
C701 C107 1.567 . S
C707 C19 1.613 . S
C721 C294 1.586 . S
C727 C30 1.636 . S
C741 C41 1.615 . S
C747 C129 1.582 . S
C761 C52 1.635 . S
C767 C316 1.584 . S
C781 C151 1.581 . S
C787 C63 1.614 . S
C801 C74 1.635 . S
C807 C338 1.580 . S
C821 C173 1.568 . S
C827 C85 1.613 . S
C841 C96 1.581 . S
C847 C184 1.634 . S
C861 C206 1.634 . S
C867 C118 1.581 . S
C881 C228 1.635 . S
C887 C140 1.583 . S
C901 C162 1.594 . S
C907 C250 1.635 . S
C921 C195 1.644 . S
C927 C283 1.605 . S
C941 C305 1.608 . S
C947 C217 1.646 . S
C961 C239 1.643 . S
C967 C327 1.597 . S
C981 C349 1.608 . S
C987 C261 1.645 . S
C1001 C51 1.639 . S
C1007 C7 1.628 . S
C1021 C18 1.604 . S
C1027 C62 1.616 . S
C1041 C73 1.624 . S
C1047 C29 1.628 . S
C1061 C84 1.601 . S
C1067 C40 1.612 . S
C1081 C95 1.587 . S
C1087 C139 1.574 . S
C1101 C150 1.580 . S
C1107 C106 1.573 . S
C1121 C117 1.578 . S
C1127 C161 1.576 . S
C1141 C172 1.576 . S
C1147 C128 1.559 . S
C1161 C183 1.642 . S
C1167 C227 1.640 . S
C1181 C194 1.628 . S
C1187 C238 1.639 . S
C1201 C249 1.626 . S
C1207 C205 1.630 . S
C1221 C216 1.634 . S
C1227 C260 1.640 . S
C1241 C271 1.581 . S
C1247 C315 1.576 . S
C1261 C282 1.573 . S
C1267 C326 1.590 . S
C1281 C293 1.594 . S
C1287 C337 1.577 . S
C1301 C348 1.596 . S
C1307 C304 1.578 . S
