# Generated by pormake.
# Topology uoe, (4)-cn, num edge types: 1
# Building blocks:
#     Node 0, Type 0, BuildingBlock: GALJAG_clean_sbu_0, # of connection points: 4
#     Node 1, Type 0, BuildingBlock: GALJAG_clean_sbu_0, # of connection points: 4
#     Node 2, Type 0, BuildingBlock: GALJAG_clean_sbu_0, # of connection points: 4
#     Node 3, Type 0, BuildingBlock: GALJAG_clean_sbu_0, # of connection points: 4
#     Node 4, Type 0, BuildingBlock: GALJAG_clean_sbu_0, # of connection points: 4
#     Node 5, Type 0, BuildingBlock: GALJAG_clean_sbu_0, # of connection points: 4
#     Node 6, Type 0, BuildingBlock: GALJAG_clean_sbu_0, # of connection points: 4
#     Node 7, Type 0, BuildingBlock: GALJAG_clean_sbu_0, # of connection points: 4
#     Node 8, Type 0, BuildingBlock: GALJAG_clean_sbu_0, # of connection points: 4
#     Node 9, Type 0, BuildingBlock: GALJAG_clean_sbu_0, # of connection points: 4
#     Node 10, Type 0, BuildingBlock: GALJAG_clean_sbu_0, # of connection points: 4
#     Node 11, Type 0, BuildingBlock: GALJAG_clean_sbu_0, # of connection points: 4
#     Node 12, Type 0, BuildingBlock: GALJAG_clean_sbu_0, # of connection points: 4
#     Node 13, Type 0, BuildingBlock: GALJAG_clean_sbu_0, # of connection points: 4
#     Node 14, Type 0, BuildingBlock: GALJAG_clean_sbu_0, # of connection points: 4
#     Node 15, Type 0, BuildingBlock: GALJAG_clean_sbu_0, # of connection points: 4
#     Node 16, Type 0, BuildingBlock: GALJAG_clean_sbu_0, # of connection points: 4
#     Node 17, Type 0, BuildingBlock: GALJAG_clean_sbu_0, # of connection points: 4
#     Node 18, Type 0, BuildingBlock: GALJAG_clean_sbu_0, # of connection points: 4
#     Node 19, Type 0, BuildingBlock: GALJAG_clean_sbu_0, # of connection points: 4
#     Node 20, Type 0, BuildingBlock: GALJAG_clean_sbu_0, # of connection points: 4
#     Node 21, Type 0, BuildingBlock: GALJAG_clean_sbu_0, # of connection points: 4
#     Node 22, Type 0, BuildingBlock: GALJAG_clean_sbu_0, # of connection points: 4
#     Node 23, Type 0, BuildingBlock: GALJAG_clean_sbu_0, # of connection points: 4
#     Node 24, Type 0, BuildingBlock: GALJAG_clean_sbu_0, # of connection points: 4
#     Node 25, Type 0, BuildingBlock: GALJAG_clean_sbu_0, # of connection points: 4
#     Node 26, Type 0, BuildingBlock: GALJAG_clean_sbu_0, # of connection points: 4
#     Node 27, Type 0, BuildingBlock: GALJAG_clean_sbu_0, # of connection points: 4
#     Node 28, Type 0, BuildingBlock: GALJAG_clean_sbu_0, # of connection points: 4
#     Node 29, Type 0, BuildingBlock: GALJAG_clean_sbu_0, # of connection points: 4
#     Node 30, Type 0, BuildingBlock: GALJAG_clean_sbu_0, # of connection points: 4
#     Node 31, Type 0, BuildingBlock: GALJAG_clean_sbu_0, # of connection points: 4
#     Edge 32, Type (0, 0), BuildingBlock: OJICUG_clean_linker_0, # of connection points: 2
#     Edge 33, Type (0, 0), BuildingBlock: OJICUG_clean_linker_0, # of connection points: 2
#     Edge 34, Type (0, 0), BuildingBlock: OJICUG_clean_linker_0, # of connection points: 2
#     Edge 35, Type (0, 0), BuildingBlock: OJICUG_clean_linker_0, # of connection points: 2
#     Edge 36, Type (0, 0), BuildingBlock: OJICUG_clean_linker_0, # of connection points: 2
#     Edge 37, Type (0, 0), BuildingBlock: OJICUG_clean_linker_0, # of connection points: 2
#     Edge 38, Type (0, 0), BuildingBlock: OJICUG_clean_linker_0, # of connection points: 2
#     Edge 39, Type (0, 0), BuildingBlock: OJICUG_clean_linker_0, # of connection points: 2
#     Edge 40, Type (0, 0), BuildingBlock: OJICUG_clean_linker_0, # of connection points: 2
#     Edge 41, Type (0, 0), BuildingBlock: OJICUG_clean_linker_0, # of connection points: 2
#     Edge 42, Type (0, 0), BuildingBlock: OJICUG_clean_linker_0, # of connection points: 2
#     Edge 43, Type (0, 0), BuildingBlock: OJICUG_clean_linker_0, # of connection points: 2
#     Edge 44, Type (0, 0), BuildingBlock: OJICUG_clean_linker_0, # of connection points: 2
#     Edge 45, Type (0, 0), BuildingBlock: OJICUG_clean_linker_0, # of connection points: 2
#     Edge 46, Type (0, 0), BuildingBlock: OJICUG_clean_linker_0, # of connection points: 2
#     Edge 47, Type (0, 0), BuildingBlock: OJICUG_clean_linker_0, # of connection points: 2
#     Edge 48, Type (0, 0), BuildingBlock: OJICUG_clean_linker_0, # of connection points: 2
#     Edge 49, Type (0, 0), BuildingBlock: OJICUG_clean_linker_0, # of connection points: 2
#     Edge 50, Type (0, 0), BuildingBlock: OJICUG_clean_linker_0, # of connection points: 2
#     Edge 51, Type (0, 0), BuildingBlock: OJICUG_clean_linker_0, # of connection points: 2
#     Edge 52, Type (0, 0), BuildingBlock: OJICUG_clean_linker_0, # of connection points: 2
#     Edge 53, Type (0, 0), BuildingBlock: OJICUG_clean_linker_0, # of connection points: 2
#     Edge 54, Type (0, 0), BuildingBlock: OJICUG_clean_linker_0, # of connection points: 2
#     Edge 55, Type (0, 0), BuildingBlock: OJICUG_clean_linker_0, # of connection points: 2
#     Edge 56, Type (0, 0), BuildingBlock: OJICUG_clean_linker_0, # of connection points: 2
#     Edge 57, Type (0, 0), BuildingBlock: OJICUG_clean_linker_0, # of connection points: 2
#     Edge 58, Type (0, 0), BuildingBlock: OJICUG_clean_linker_0, # of connection points: 2
#     Edge 59, Type (0, 0), BuildingBlock: OJICUG_clean_linker_0, # of connection points: 2
#     Edge 60, Type (0, 0), BuildingBlock: OJICUG_clean_linker_0, # of connection points: 2
#     Edge 61, Type (0, 0), BuildingBlock: OJICUG_clean_linker_0, # of connection points: 2
#     Edge 62, Type (0, 0), BuildingBlock: OJICUG_clean_linker_0, # of connection points: 2
#     Edge 63, Type (0, 0), BuildingBlock: OJICUG_clean_linker_0, # of connection points: 2
#     Edge 64, Type (0, 0), BuildingBlock: OJICUG_clean_linker_0, # of connection points: 2
#     Edge 65, Type (0, 0), BuildingBlock: OJICUG_clean_linker_0, # of connection points: 2
#     Edge 66, Type (0, 0), BuildingBlock: OJICUG_clean_linker_0, # of connection points: 2
#     Edge 67, Type (0, 0), BuildingBlock: OJICUG_clean_linker_0, # of connection points: 2
#     Edge 68, Type (0, 0), BuildingBlock: OJICUG_clean_linker_0, # of connection points: 2
#     Edge 69, Type (0, 0), BuildingBlock: OJICUG_clean_linker_0, # of connection points: 2
#     Edge 70, Type (0, 0), BuildingBlock: OJICUG_clean_linker_0, # of connection points: 2
#     Edge 71, Type (0, 0), BuildingBlock: OJICUG_clean_linker_0, # of connection points: 2
#     Edge 72, Type (0, 0), BuildingBlock: OJICUG_clean_linker_0, # of connection points: 2
#     Edge 73, Type (0, 0), BuildingBlock: OJICUG_clean_linker_0, # of connection points: 2
#     Edge 74, Type (0, 0), BuildingBlock: OJICUG_clean_linker_0, # of connection points: 2
#     Edge 75, Type (0, 0), BuildingBlock: OJICUG_clean_linker_0, # of connection points: 2
#     Edge 76, Type (0, 0), BuildingBlock: OJICUG_clean_linker_0, # of connection points: 2
#     Edge 77, Type (0, 0), BuildingBlock: OJICUG_clean_linker_0, # of connection points: 2
#     Edge 78, Type (0, 0), BuildingBlock: OJICUG_clean_linker_0, # of connection points: 2
#     Edge 79, Type (0, 0), BuildingBlock: OJICUG_clean_linker_0, # of connection points: 2
#     Edge 80, Type (0, 0), BuildingBlock: OJICUG_clean_linker_0, # of connection points: 2
#     Edge 81, Type (0, 0), BuildingBlock: OJICUG_clean_linker_0, # of connection points: 2
#     Edge 82, Type (0, 0), BuildingBlock: OJICUG_clean_linker_0, # of connection points: 2
#     Edge 83, Type (0, 0), BuildingBlock: OJICUG_clean_linker_0, # of connection points: 2
#     Edge 84, Type (0, 0), BuildingBlock: OJICUG_clean_linker_0, # of connection points: 2
#     Edge 85, Type (0, 0), BuildingBlock: OJICUG_clean_linker_0, # of connection points: 2
#     Edge 86, Type (0, 0), BuildingBlock: OJICUG_clean_linker_0, # of connection points: 2
#     Edge 87, Type (0, 0), BuildingBlock: OJICUG_clean_linker_0, # of connection points: 2
#     Edge 88, Type (0, 0), BuildingBlock: OJICUG_clean_linker_0, # of connection points: 2
#     Edge 89, Type (0, 0), BuildingBlock: OJICUG_clean_linker_0, # of connection points: 2
#     Edge 90, Type (0, 0), BuildingBlock: OJICUG_clean_linker_0, # of connection points: 2
#     Edge 91, Type (0, 0), BuildingBlock: OJICUG_clean_linker_0, # of connection points: 2
#     Edge 92, Type (0, 0), BuildingBlock: OJICUG_clean_linker_0, # of connection points: 2
#     Edge 93, Type (0, 0), BuildingBlock: OJICUG_clean_linker_0, # of connection points: 2
#     Edge 94, Type (0, 0), BuildingBlock: OJICUG_clean_linker_0, # of connection points: 2
#     Edge 95, Type (0, 0), BuildingBlock: OJICUG_clean_linker_0, # of connection points: 2
# Relax obj value: 0.106
# Max RMSD: 0.167
# Mean RMSD: 0.167
data_MOF--net-uoe--node1-GALJAG_clean_sbu_0--edge1-OJICUG_clean_linker_0
_symmetry_space_group_name_H-M    P1
_symmetry_Int_Tables_number       1
_symmetry_cell_setting            triclinic
loop_
_symmetry_equiv_pos_as_xyz
'x, y, z'
_cell_length_a     53.939242
_cell_length_b     53.950546
_cell_length_c     20.374762
_cell_angle_alpha  90.008717
_cell_angle_beta   90.025737
_cell_angle_gamma 90.051411
loop_
_atom_site_label
_atom_site_type_symbol
_atom_site_fract_x
_atom_site_fract_y
_atom_site_fract_z
_atom_type_partial_charge
In0 In 0.1098 0.49142 0.10345 0.0
O1 O 0.10977 0.44975 0.12733 0.0
O2 O 0.14409 0.46828 0.10947 0.0
C3 C 0.06169 0.50441 0.09745 0.0
C4 C 0.12371 0.50398 0.22455 0.0
C5 C 0.12391 0.50629 0.98336 0.0
O6 O 0.06892 0.48257 0.08493 0.0
O7 O 0.07867 0.51932 0.11348 0.0
O8 O 0.12557 0.52031 0.03298 0.0
O9 O 0.11592 0.4847 0.99494 0.0
C10 C 0.13326 0.44878 0.1285 0.0
O11 O 0.13297 0.51491 0.17519 0.0
O12 O 0.10653 0.48886 0.21207 0.0
In13 In 0.79097 0.84991 0.29419 0.0
O14 O 0.79354 0.88501 0.35672 0.0
O15 O 0.76034 0.86386 0.35981 0.0
C16 C 0.78461 0.8657 0.16854 0.0
C17 C 0.83342 0.84747 0.36439 0.0
C18 C 0.77104 0.80395 0.29583 0.0
O19 O 0.76987 0.87079 0.21448 0.0
O20 O 0.80342 0.85348 0.1862 0.0
O21 O 0.79298 0.80807 0.27694 0.0
O22 O 0.75916 0.823 0.31263 0.0
C23 C 0.77282 0.88148 0.38378 0.0
O24 O 0.81403 0.83574 0.37962 0.0
O25 O 0.83218 0.8588 0.31001 0.0
In26 In 0.39503 0.52686 0.54844 0.0
O27 O 0.36081 0.52325 0.61388 0.0
O28 O 0.3855 0.4928 0.60903 0.0
C29 C 0.38718 0.52228 0.41712 0.0
C30 C 0.38818 0.57101 0.60798 0.0
C31 C 0.44221 0.51139 0.56365 0.0
O32 O 0.37282 0.51256 0.45878 0.0
O33 O 0.40429 0.53517 0.44174 0.0
O34 O 0.43641 0.53404 0.55985 0.0
O35 O 0.4242 0.49653 0.55947 0.0
C36 C 0.36706 0.50254 0.63708 0.0
O37 O 0.40255 0.55456 0.62991 0.0
O38 O 0.37876 0.56609 0.55255 0.0
In39 In 0.70569 0.15383 0.79683 0.0
O40 O 0.72654 0.13097 0.87335 0.0
O41 O 0.71663 0.16848 0.89493 0.0
C42 C 0.71699 0.13166 0.68248 0.0
C43 C 0.66227 0.13893 0.84848 0.0
C44 C 0.72434 0.19915 0.77247 0.0
O45 O 0.73035 0.12978 0.73311 0.0
O46 O 0.69713 0.14376 0.69041 0.0
O47 O 0.70116 0.19498 0.77099 0.0
O48 O 0.73762 0.18039 0.78376 0.0
C49 C 0.72632 0.14858 0.91443 0.0
O50 O 0.66497 0.16082 0.8271 0.0
O51 O 0.68026 0.12465 0.83753 0.0
In52 In 0.10626 0.54342 0.58942 0.0
O53 O 0.09507 0.57071 0.50947 0.0
O54 O 0.12154 0.58278 0.57982 0.0
C55 C 0.0592 0.52605 0.5889 0.0
C56 C 0.13294 0.52135 0.49481 0.0
C57 C 0.12219 0.5366 0.71411 0.0
O58 O 0.06422 0.54849 0.60113 0.0
O59 O 0.0778 0.51264 0.57785 0.0
O60 O 0.12881 0.52296 0.66711 0.0
O61 O 0.10832 0.55438 0.69795 0.0
C62 C 0.11014 0.58738 0.52692 0.0
O63 O 0.13957 0.54162 0.52009 0.0
O64 O 0.11467 0.51118 0.52246 0.0
In65 In 0.7419 0.86139 0.7724 0.0
O66 O 0.70017 0.8628 0.75009 0.0
O67 O 0.72011 0.89671 0.76157 0.0
C68 C 0.75206 0.81252 0.76976 0.0
C69 C 0.75628 0.87607 0.65319 0.0
C70 C 0.75627 0.87206 0.89628 0.0
O71 O 0.73046 0.82072 0.78081 0.0
O72 O 0.76832 0.82897 0.76037 0.0
O73 O 0.77087 0.87393 0.84793 0.0
O74 O 0.73436 0.86587 0.8816 0.0
C75 C 0.7001 0.88622 0.74486 0.0
O76 O 0.7669 0.88467 0.70391 0.0
O77 O 0.74058 0.85922 0.66352 0.0
In78 In 0.39815 0.47375 0.02318 0.0
O79 O 0.40618 0.43267 0.00661 0.0
O80 O 0.37096 0.44278 0.04483 0.0
C81 C 0.44382 0.49199 0.00171 0.0
C82 C 0.37643 0.48234 0.90607 0.0
C83 C 0.39041 0.48997 0.14707 0.0
O84 O 0.43975 0.46956 0.01611 0.0
O85 O 0.42471 0.50545 0.99797 0.0
O86 O 0.37437 0.49316 0.10243 0.0
O87 O 0.40952 0.4783 0.12939 0.0
C88 C 0.38457 0.42578 0.02198 0.0
O89 O 0.37243 0.49661 0.95441 0.0
O90 O 0.39145 0.46509 0.91735 0.0
In91 In 0.77046 0.14319 0.3068 0.0
O92 O 0.74513 0.12834 0.22634 0.0
O93 O 0.76935 0.15903 0.20636 0.0
C94 C 0.75539 0.12516 0.42256 0.0
C95 C 0.80836 0.11646 0.26066 0.0
C96 C 0.75823 0.19069 0.32731 0.0
O97 O 0.7421 0.12406 0.37145 0.0
O98 O 0.77688 0.13409 0.41421 0.0
O99 O 0.78072 0.18363 0.32943 0.0
O100 O 0.74258 0.17369 0.31746 0.0
C101 C 0.75341 0.14391 0.18505 0.0
O102 O 0.81199 0.13814 0.28309 0.0
O103 O 0.78679 0.10795 0.26934 0.0
In104 In 0.91034 0.54502 0.07233 0.0
O105 O 0.89277 0.51573 0.00619 0.0
O106 O 0.91269 0.54588 0.96279 0.0
C107 C 0.89679 0.52911 0.19201 0.0
C108 C 0.88294 0.5847 0.03965 0.0
C109 C 0.95909 0.53453 0.07918 0.0
O110 O 0.89358 0.51632 0.14072 0.0
O111 O 0.90581 0.55048 0.18255 0.0
O112 O 0.951 0.55608 0.0918 0.0
O113 O 0.94272 0.51905 0.06301 0.0
C114 C 0.89983 0.52663 0.95439 0.0
O115 O 0.90643 0.58564 0.0397 0.0
O116 O 0.87394 0.56505 0.06363 0.0
In117 In 0.20929 0.15234 0.80022 0.0
O118 O 0.23457 0.12684 0.73991 0.0
O119 O 0.20713 0.14854 0.69108 0.0
C120 C 0.2227 0.1406 0.92364 0.0
C121 C 0.16379 0.13405 0.77733 0.0
C122 C 0.22778 0.19863 0.7908 0.0
O123 O 0.23472 0.13342 0.87392 0.0
O124 O 0.20337 0.15298 0.91106 0.0
O125 O 0.20526 0.19464 0.80481 0.0
O126 O 0.24061 0.17943 0.78224 0.0
C127 C 0.22411 0.13269 0.68647 0.0
O128 O 0.16886 0.15669 0.76802 0.0
O129 O 0.18083 0.12171 0.80476 0.0
In130 In 0.59186 0.4703 0.53889 0.0
O131 O 0.60808 0.49552 0.45985 0.0
O132 O 0.57448 0.47579 0.44009 0.0
C133 C 0.61166 0.48528 0.65347 0.0
C134 C 0.61668 0.43171 0.48877 0.0
C135 C 0.54444 0.48057 0.56701 0.0
O136 O 0.61141 0.49878 0.60278 0.0
O137 O 0.60316 0.46362 0.64527 0.0
O138 O 0.55197 0.45831 0.56294 0.0
O139 O 0.56092 0.49689 0.5586 0.0
C140 C 0.59119 0.49008 0.4191 0.0
O141 O 0.59513 0.42874 0.51253 0.0
O142 O 0.62601 0.45288 0.49771 0.0
In143 In 0.28898 0.838 0.31088 0.0
O144 O 0.28676 0.87046 0.2386 0.0
O145 O 0.25637 0.84555 0.24428 0.0
C146 C 0.28139 0.8549 0.43496 0.0
C147 C 0.33264 0.84059 0.24618 0.0
C148 C 0.27195 0.79088 0.31334 0.0
O149 O 0.26824 0.86132 0.38677 0.0
O150 O 0.29931 0.84096 0.42024 0.0
O151 O 0.29421 0.79614 0.32702 0.0
O152 O 0.2586 0.80927 0.29956 0.0
C153 C 0.26632 0.86353 0.21478 0.0
O154 O 0.31562 0.82563 0.23081 0.0
O155 O 0.32857 0.85277 0.29818 0.0
In156 In 0.91115 0.47402 0.57405 0.0
O157 O 0.90787 0.43262 0.6007 0.0
O158 O 0.87513 0.4537 0.58248 0.0
C159 C 0.95897 0.48828 0.57522 0.0
C160 C 0.89947 0.49093 0.69266 0.0
C161 C 0.89812 0.48883 0.45301 0.0
O162 O 0.95301 0.46591 0.56389 0.0
O163 O 0.94099 0.5027 0.58483 0.0
O164 O 0.89293 0.50114 0.50397 0.0
O165 O 0.90914 0.46849 0.46327 0.0
C166 C 0.88437 0.43357 0.60259 0.0
O167 O 0.89248 0.50213 0.64122 0.0
O168 O 0.91265 0.47195 0.68364 0.0
In169 In 0.27556 0.14635 0.3117 0.0
O170 O 0.31669 0.14166 0.33853 0.0
O171 O 0.29599 0.11007 0.30752 0.0
C172 C 0.26474 0.19503 0.32231 0.0
C173 C 0.25866 0.13021 0.42702 0.0
C174 C 0.25994 0.13763 0.18841 0.0
O175 O 0.28639 0.18763 0.30802 0.0
O176 O 0.2491 0.178 0.3308 0.0
O177 O 0.24694 0.13251 0.23822 0.0
O178 O 0.28116 0.14647 0.20083 0.0
C179 C 0.31603 0.11833 0.33118 0.0
O180 O 0.24692 0.12589 0.37434 0.0
O181 O 0.27804 0.14304 0.42093 0.0
In182 In 0.59155 0.53811 0.02938 0.0
O183 O 0.59402 0.57888 0.06407 0.0
O184 O 0.62588 0.55552 0.06926 0.0
C185 C 0.54461 0.52685 -0.00121 0.0
C186 C 0.59098 0.51679 0.14729 0.0
C187 C 0.6116 0.5246 0.91405 0.0
O188 O 0.55153 0.54932 0.00368 0.0
O189 O 0.56143 0.51096 0.00785 0.0
O190 O 0.61195 0.51083 0.96424 0.0
O191 O 0.6024 0.54593 0.92316 0.0
C192 C 0.61603 0.57589 0.08469 0.0
O193 O 0.60807 0.51221 0.10643 0.0
O194 O 0.57402 0.53093 0.1272 0.0
In195 In 0.23019 0.84631 0.82202 0.0
O196 O 0.18869 0.8488 0.84576 0.0
O197 O 0.20892 0.88205 0.82705 0.0
C198 C 0.23953 0.79733 0.81687 0.0
C199 C 0.24372 0.85835 0.94433 0.0
C200 C 0.24736 0.85888 0.7022 0.0
O201 O 0.21848 0.80608 0.8019 0.0
O202 O 0.25536 0.81323 0.83436 0.0
O203 O 0.26084 0.85989 0.75301 0.0
O204 O 0.22515 0.85249 0.71246 0.0
C205 C 0.18885 0.87229 0.8461 0.0
O206 O 0.25512 0.86736 0.89535 0.0
O207 O 0.22727 0.84257 0.93071 0.0
In208 In 0.59623 0.97668 0.56152 0.0
O209 O 0.60606 0.93637 0.58768 0.0
O210 O 0.63514 0.96221 0.56845 0.0
C211 C 0.54663 0.98263 0.56522 0.0
C212 C 0.60712 0.9953 0.67879 0.0
C213 C 0.60486 0.99279 0.43887 0.0
O214 O 0.55631 0.96157 0.55447 0.0
O215 O 0.56193 -3e-05 0.57384 0.0
O216 O 0.60797 0.00633 0.48884 0.0
O217 O 0.59841 0.97069 0.45095 0.0
C218 C 0.62915 0.94089 0.58875 0.0
O219 O 0.612 0.00722 0.62676 0.0
O220 O 0.59605 0.97492 0.67099 0.0
In221 In 0.2872 0.34239 0.80783 0.0
O222 O 0.32805 0.34032 0.84226 0.0
O223 O 0.30747 0.37385 0.85409 0.0
C224 C 0.27044 0.29665 0.78201 0.0
C225 C 0.26316 0.3456 0.92062 0.0
C226 C 0.27832 0.36328 0.69118 0.0
O227 O 0.2935 0.30098 0.78804 0.0
O228 O 0.25661 0.31543 0.78639 0.0
O229 O 0.26408 0.36588 0.73985 0.0
O230 O 0.29796 0.35117 0.70244 0.0
C231 C 0.32712 0.36207 0.86582 0.0
O232 O 0.26208 0.36295 0.8789 0.0
O233 O 0.27567 0.32686 0.90439 0.0
In234 In 0.89773 0.01484 0.08187 0.0
O235 O 0.89608 0.05608 0.10886 0.0
O236 O 0.86337 0.03848 0.07358 0.0
C237 C 0.94595 0.00308 0.09513 0.0
C238 C 0.88058 0.99797 0.19689 0.0
C239 C 0.89152 0.00064 0.95589 0.0
O240 O 0.93873 0.02503 0.08419 0.0
O241 O 0.92882 0.98723 0.09989 0.0
O242 O 0.87867 0.99148 0.00188 0.0
O243 O 0.90642 0.01749 0.97328 0.0
C244 C 0.87295 0.05754 0.09931 0.0
O245 O 0.87715 0.98584 0.14432 0.0
O246 O 0.89314 0.01749 0.19075 0.0
In247 In 0.21752 0.6435 0.29746 0.0
O248 O 0.21895 0.61384 0.37858 0.0
O249 O 0.25051 0.63649 0.36411 0.0
C250 C 0.22629 0.62822 0.17229 0.0
C251 C 0.1716 0.63863 0.34855 0.0
C252 C 0.23381 0.69091 0.30051 0.0
O253 O 0.23843 0.62027 0.22078 0.0
O254 O 0.20899 0.64284 0.18716 0.0
O255 O 0.21163 0.68555 0.2863 0.0
O256 O 0.2474 0.67251 0.3123 0.0
C257 C 0.24003 0.6203 0.39896 0.0
O258 O 0.18616 0.65594 0.36477 0.0
O259 O 0.17961 0.62475 0.3032 0.0
In260 In 0.58233 0.04344 0.05364 0.0
O261 O 0.60826 0.0192 0.99225 0.0
O262 O 0.58516 0.04586 0.94452 0.0
C263 C 0.59606 0.0303 0.17558 0.0
C264 C 0.59992 0.08912 0.0288 0.0
C265 C 0.53708 0.0222 0.04608 0.0
O266 O 0.60345 0.01893 0.12501 0.0
O267 O 0.58228 0.04883 0.16457 0.0
O268 O 0.5397 0.04465 0.06314 0.0
O269 O 0.55701 0.01104 0.03366 0.0
C270 C 0.60164 0.02948 0.93918 0.0
O271 O 0.57741 0.08356 0.01876 0.0
O272 O 0.61225 0.07266 0.05848 0.0
In273 In 0.2249 0.34616 0.31559 0.0
O274 O 0.18411 0.35638 0.2944 0.0
O275 O 0.21238 0.38425 0.29253 0.0
C276 C 0.23625 0.29829 0.33249 0.0
C277 C 0.23775 0.34657 0.19096 0.0
C278 C 0.24155 0.3629 0.43013 0.0
O279 O 0.214 0.3059 0.33823 0.0
O280 O 0.25211 0.31493 0.32049 0.0
O281 O 0.25471 0.36338 0.37867 0.0
O282 O 0.21977 0.35442 0.42316 0.0
C283 C 0.19002 0.3787 0.28134 0.0
O284 O 0.24945 0.35951 0.23285 0.0
O285 O 0.22051 0.33306 0.21294 0.0
In286 In 0.90265 0.94826 0.56578 0.0
O287 O 0.91297 0.90931 0.53261 0.0
O288 O 0.87758 0.91444 0.5763 0.0
C289 C 0.947 0.9695 0.54141 0.0
C290 C 0.87868 0.96355 0.45708 0.0
C291 C 0.89516 0.96021 0.69322 0.0
O292 O 0.94475 0.94678 0.55552 0.0
O293 O 0.92692 0.98145 0.53979 0.0
O294 O 0.87827 0.96271 0.65066 0.0
O295 O 0.91495 0.95069 0.67201 0.0
C296 C 0.89199 0.90005 0.54554 0.0
O297 O 0.87847 0.97637 0.50915 0.0
O298 O 0.89039 0.94354 0.4612 0.0
In299 In 0.27802 0.64531 0.78835 0.0
O300 O 0.31789 0.65196 0.7562 0.0
O301 O 0.30823 0.61587 0.7901 0.0
C302 C 0.2655 0.69359 0.79982 0.0
C303 C 0.26468 0.62941 0.66806 0.0
C304 C 0.2611 0.62914 0.90576 0.0
O305 O 0.28641 0.68539 0.81743 0.0
O306 O 0.25103 0.67747 0.77655 0.0
O307 O 0.24753 0.62987 0.85517 0.0
O308 O 0.28335 0.63554 0.89635 0.0
C309 C 0.32447 0.62972 0.76446 0.0
O310 O 0.2562 0.619 0.71904 0.0
O311 O 0.27815 0.64801 0.6787 0.0
In312 In 0.39225 0.00987 0.54679 0.0
O313 O 0.39317 0.05054 0.50971 0.0
O314 O 0.35935 0.03032 0.50626 0.0
C315 C 0.44119 0.00216 0.56405 0.0
C316 C 0.38547 0.98354 0.43729 0.0
C317 C 0.37548 0.99659 0.66664 0.0
O318 O 0.43203 0.02383 0.5632 0.0
O319 O 0.42561 0.98488 0.5575 0.0
O320 O 0.37527 0.98229 0.61776 0.0
O321 O 0.38304 0.01828 0.65453 0.0
C322 C 0.3708 0.04983 0.491 0.0
O323 O 0.36811 0.98631 0.47817 0.0
O324 O 0.40585 0.99331 0.45269 0.0
In325 In 0.7134 0.65861 0.29922 0.0
O326 O 0.67176 0.65708 0.2752 0.0
O327 O 0.69223 0.6234 0.28502 0.0
C328 C 0.73007 0.70514 0.3103 0.0
C329 C 0.72682 0.65405 0.17452 0.0
C330 C 0.72915 0.64257 0.41638 0.0
O331 O 0.7073 0.70006 0.31962 0.0
O332 O 0.74377 0.68678 0.29783 0.0
O333 O 0.74137 0.63884 0.36421 0.0
O334 O 0.70856 0.6535 0.40876 0.0
C335 C 0.67209 0.63367 0.26884 0.0
O336 O 0.73588 0.63984 0.21806 0.0
O337 O 0.71188 0.67027 0.19493 0.0
In338 In 0.09738 0.96856 0.05918 0.0
O339 O 0.11053 0.99502 0.97953 0.0
O340 O 0.08003 0.97058 0.95992 0.0
C341 C 0.11601 0.98442 0.17358 0.0
C342 C 0.12634 0.93276 0.01036 0.0
C343 C 0.04969 0.97719 0.08793 0.0
O344 O 0.11536 0.99794 0.12288 0.0
O345 O 0.1085 0.96238 0.16541 0.0
O346 O 0.05817 0.95519 0.08614 0.0
O347 O 0.06539 0.99403 0.07676 0.0
C348 C 0.09473 0.98692 0.93873 0.0
O349 O 0.10471 0.92771 0.03115 0.0
O350 O 0.13357 0.9546 0.02156 0.0
In351 In 0.78203 0.34484 0.79209 0.0
O352 O 0.75481 0.3668 0.72914 0.0
O353 O 0.78394 0.34622 0.68289 0.0
C354 C 0.76835 0.35447 0.9161 0.0
C355 C 0.82299 0.37104 0.766 0.0
C356 C 0.76604 0.29774 0.78132 0.0
O357 O 0.75563 0.36115 0.86707 0.0
O358 O 0.78857 0.34373 0.90251 0.0
O359 O 0.78862 0.30262 0.79347 0.0
O360 O 0.75222 0.31641 0.77541 0.0
C361 C 0.7658 0.36074 0.67652 0.0
O362 O 0.82337 0.34751 0.76468 0.0
O363 O 0.80333 0.38038 0.78894 0.0
In364 In 0.39989 0.94594 0.04448 0.0
O365 O 0.40967 0.90574 0.06851 0.0
O366 O 0.37186 0.91477 0.04947 0.0
C367 C 0.44335 0.9702 0.03465 0.0
C368 C 0.38936 0.9556 0.16955 0.0
C369 C 0.38069 0.95947 0.9287 0.0
O370 O 0.44143 0.94733 0.02089 0.0
O371 O 0.4234 0.98051 0.05176 0.0
O372 O 0.37571 0.97102 0.98118 0.0
O373 O 0.3945 0.9407 0.93541 0.0
C374 C 0.38728 0.89865 0.06827 0.0
O375 O 0.37481 0.96269 0.12433 0.0
O376 O 0.40884 0.94499 0.15042 0.0
In377 In 0.78303 0.65944 0.79537 0.0
O378 O 0.75822 0.63747 0.86553 0.0
O379 O 0.76872 0.67445 0.89053 0.0
C380 C 0.76902 0.64188 0.67705 0.0
C381 C 0.82189 0.63688 0.85308 0.0
C382 C 0.77504 0.70792 0.77354 0.0
O383 O 0.75514 0.64164 0.72682 0.0
O384 O 0.79074 0.64982 0.68757 0.0
O385 O 0.79684 0.69903 0.77434 0.0
O386 O 0.75795 0.69227 0.78213 0.0
C387 C 0.75749 0.65494 0.90677 0.0
O388 O 0.82307 0.6595 0.83675 0.0
O389 O 0.8028 0.62571 0.83315 0.0
In390 In 0.08867 0.03314 0.54877 0.0
O391 O 0.08623 0.07439 0.57911 0.0
O392 O 0.12021 0.0546 0.59111 0.0
C393 C 0.04332 0.0153 0.52235 0.0
C394 C 0.09109 0.01257 0.66699 0.0
C395 C 0.11053 0.02238 0.43402 0.0
O396 O 0.04726 0.03851 0.52577 0.0
O397 O 0.06228 0.00189 0.5297 0.0
O398 O 0.11254 0.00876 0.48418 0.0
O399 O 0.09844 0.04223 0.44272 0.0
C400 C 0.10811 0.07414 0.60207 0.0
O401 O 0.1084 0.00968 0.6257 0.0
O402 O 0.07262 0.02479 0.64735 0.0
In403 In 0.71531 0.3414 0.3027 0.0
O404 O 0.67428 0.34321 0.33194 0.0
O405 O 0.69219 0.37604 0.29823 0.0
C406 C 0.72772 0.29315 0.31339 0.0
C407 C 0.73163 0.35912 0.41686 0.0
C408 C 0.73084 0.35171 0.18035 0.0
O409 O 0.70601 0.29987 0.29768 0.0
O410 O 0.74275 0.31064 0.32287 0.0
O411 O 0.7436 0.35671 0.23066 0.0
O412 O 0.70991 0.34204 0.19177 0.0
C413 C 0.67312 0.36647 0.32384 0.0
O414 O 0.74303 0.36369 0.3639 0.0
O415 O 0.713 0.3452 0.41169 0.0
C416 C 0.00378 0.54424 0.10289 0.0
C417 C 0.98546 0.52727 0.08359 0.0
H418 H 0.04235 0.55027 0.12253 0.0
C419 C 0.99242 0.50274 0.06897 0.0
H420 H 0.99897 0.56323 0.11451 0.0
C421 C 0.01714 0.49529 0.07365 0.0
C422 C 0.03548 0.51221 0.09302 0.0
H423 H 0.97873 0.48917 0.05396 0.0
H424 H 0.02187 0.47628 0.06202 0.0
C425 C 0.02858 0.53678 0.10754 0.0
C426 C 0.77517 0.75804 0.2875 0.0
C427 C 0.76032 0.7788 0.30002 0.0
H428 H 0.77729 0.71862 0.28179 0.0
C429 C 0.73533 0.77526 0.31771 0.0
H430 H 0.7945 0.76015 0.27413 0.0
C431 C 0.72535 0.75133 0.32205 0.0
C432 C 0.74026 0.73058 0.3092 0.0
H433 H 0.72346 0.79098 0.32785 0.0
H434 H 0.706 0.74908 0.33502 0.0
C435 C 0.76529 0.73422 0.29222 0.0
C436 C 0.48722 0.52047 0.57732 0.0
C437 C 0.46814 0.50299 0.57047 0.0
H438 H 0.52618 0.52697 0.58275 0.0
C439 C 0.47421 0.47764 0.56805 0.0
H440 H 0.48313 0.54011 0.57988 0.0
C441 C 0.49904 0.47003 0.56974 0.0
C442 C 0.51812 0.48767 0.57399 0.0
H443 H 0.45983 0.46374 0.56308 0.0
H444 H 0.50329 0.45047 0.56556 0.0
C445 C 0.5119 0.5129 0.57915 0.0
C446 C 0.72015 0.24515 0.7607 0.0
C447 C 0.73527 0.22426 0.76878 0.0
H448 H 0.71809 0.28469 0.75825 0.0
C449 C 0.76093 0.22764 0.77832 0.0
H450 H 0.70035 0.24315 0.75343 0.0
C451 C 0.77114 0.25147 0.78159 0.0
C452 C 0.75589 0.27236 0.77516 0.0
H453 H 0.77309 0.21187 0.78487 0.0
H454 H 0.79086 0.25352 0.79011 0.0
C455 C 0.73035 0.26894 0.76374 0.0
C456 C 0.02929 0.49102 0.57151 0.0
C457 C 0.03364 0.51618 0.58609 0.0
H458 H 0.00222 0.46233 0.55648 0.0
C459 C 0.01335 0.53185 0.5969 0.0
H460 H 0.04462 0.47848 0.56282 0.0
C461 C 0.98921 0.52262 0.5931 0.0
C462 C 0.98478 0.4975 0.57844 0.0
H463 H 0.01609 0.55129 0.60811 0.0
H464 H 0.97397 0.53528 0.60174 0.0
C465 C 0.00506 0.48175 0.56776 0.0
C466 C 0.74475 0.74282 0.77403 0.0
C467 C 0.76944 0.73469 0.76851 0.0
H468 H 0.71993 0.7737 0.77911 0.0
C469 C 0.78837 0.75236 0.76167 0.0
H470 H 0.7297 0.72967 0.77948 0.0
C471 C 0.78269 0.7777 0.76132 0.0
C472 C 0.75801 0.78578 0.76817 0.0
H473 H 0.80755 0.74665 0.75748 0.0
H474 H 0.79768 0.79095 0.75656 0.0
C475 C 0.73911 0.76807 0.77404 0.0
C476 C 0.49881 0.53584 0.99313 0.0
C477 C 0.51857 0.51892 0.99031 0.0
H478 H 0.4593 0.54053 0.99863 0.0
C479 C 0.51332 0.49346 0.98551 0.0
H480 H 0.50233 0.55556 0.99693 0.0
C481 C 0.48897 0.48493 0.98714 0.0
C482 C 0.46922 0.50164 0.99304 0.0
H483 H 0.5281 0.47992 0.98278 0.0
H484 H 0.48567 0.46513 0.98537 0.0
C485 C 0.47425 0.52724 0.99425 0.0
C486 C 0.76035 0.26089 0.33176 0.0
C487 C 0.73534 0.26695 0.32004 0.0
H488 H 0.7873 0.23198 0.34356 0.0
C489 C 0.7179 0.24781 0.31438 0.0
H490 H 0.77424 0.2753 0.33658 0.0
C491 C 0.72537 0.22309 0.31907 0.0
C492 C 0.75046 0.21697 0.32908 0.0
H493 H 0.69851 0.2519 0.30575 0.0
H494 H 0.71147 0.20874 0.31337 0.0
C495 C 0.76786 0.23612 0.33603 0.0
C496 C 0.23386 0.26836 0.78308 0.0
C497 C 0.25972 0.27148 0.77844 0.0
H498 H 0.2035 0.24293 0.79133 0.0
C499 C 0.27491 0.25043 0.77559 0.0
H500 H 0.22162 0.28424 0.7856 0.0
C501 C 0.26444 0.22672 0.77859 0.0
C502 C 0.23863 0.22367 0.78516 0.0
H503 H 0.29487 0.25227 0.77225 0.0
H504 H 0.27662 0.21078 0.77705 0.0
C505 C 0.22343 0.24471 0.78673 0.0
C506 C 0.23722 0.76098 0.29458 0.0
C507 C 0.26216 0.76531 0.31141 0.0
H508 H 0.20866 0.73404 0.2778 0.0
C509 C 0.2776 0.74503 0.32484 0.0
H510 H 0.22486 0.77627 0.28386 0.0
C511 C 0.2683 0.72088 0.32123 0.0
C512 C 0.24339 0.71654 0.3041 0.0
H513 H 0.29688 0.7478 0.33782 0.0
H514 H 0.28068 0.70559 0.33177 0.0
C515 C 0.22792 0.73682 0.29098 0.0
C516 C 0.27543 0.24024 0.31984 0.0
C517 C 0.25772 0.22147 0.32793 0.0
H518 H 0.28251 0.27919 0.31571 0.0
C519 C 0.23293 0.22813 0.34064 0.0
H520 H 0.29465 0.23572 0.31024 0.0
C521 C 0.22589 0.25307 0.34373 0.0
C522 C 0.24354 0.27185 0.33443 0.0
H523 H 0.21883 0.21404 0.34729 0.0
H524 H 0.20661 0.25763 0.35234 0.0
C525 C 0.26842 0.26515 0.32317 0.0
C526 C 0.23486 0.72814 0.78597 0.0
C527 C 0.25855 0.72002 0.80526 0.0
H528 H 0.21015 0.75901 0.77466 0.0
C529 C 0.27565 0.73742 0.82923 0.0
H530 H 0.22128 0.71511 0.76734 0.0
C531 C 0.26929 0.76246 0.83329 0.0
C532 C 0.24568 0.77065 0.81362 0.0
H533 H 0.29402 0.73174 0.8445 0.0
H534 H 0.28298 0.77543 0.85166 0.0
C535 C 0.22847 0.75323 0.79019 0.0
C536 C 0.48521 0.01647 0.57506 0.0
C537 C 0.46812 0.99709 0.56759 0.0
H538 H 0.52337 0.02702 0.58035 0.0
C539 C 0.47701 0.97268 0.56072 0.0
H540 H 0.47895 0.03544 0.58036 0.0
C541 C 0.5025 0.96781 0.56026 0.0
C542 C 0.51959 0.98725 0.56698 0.0
H543 H 0.46427 0.95731 0.5547 0.0
H544 H 0.5088 0.94889 0.55423 0.0
C545 C 0.51066 0.0116 0.57493 0.0
C546 C 0.97978 0.97124 0.10232 0.0
C547 C 0.97245 0.99626 0.09901 0.0
H548 H 0.0101 0.94543 0.1016 0.0
C549 C 0.99072 0.01473 0.09674 0.0
H550 H 0.96606 0.95659 0.10425 0.0
C551 C 0.01577 0.00835 0.09568 0.0
C552 C 0.02317 0.98335 0.09653 0.0
H553 H 0.98568 0.03414 0.09454 0.0
H554 H 0.02935 0.02311 0.0925 0.0
C555 C 0.00496 0.96483 0.10094 0.0
C556 C 0.51193 0.98439 0.02143 0.0
C557 C 0.51286 0.0094 0.04115 0.0
H558 H 0.48929 0.95243 0.0036 0.0
C559 C 0.49067 0.02162 0.0565 0.0
H560 H 0.52872 0.97445 0.00905 0.0
C561 C 0.46804 0.00895 0.05317 0.0
C562 C 0.46718 0.98382 0.03444 0.0
H563 H 0.4908 0.04086 0.07168 0.0
H564 H 0.45124 0.01878 0.0661 0.0
C565 C 0.48934 0.97174 0.01814 0.0
C566 C 0.9968 0.0186 0.52017 0.0
C567 C 0.01835 0.00403 0.51872 0.0
H568 H 0.95715 0.01903 0.52825 0.0
C569 C 0.01602 0.97806 0.52025 0.0
H570 H 0.99802 0.03864 0.51924 0.0
C571 C 0.9928 0.96689 0.52614 0.0
C572 C 0.97132 0.98141 0.53011 0.0
H573 H 0.03226 0.96626 0.51908 0.0
H574 H 0.99174 0.94686 0.52891 0.0
C575 C 0.97345 0.00736 0.52558 0.0
C576 C 0.12403 0.54006 0.89943 0.0
C577 C 0.12805 0.51508 0.91571 0.0
H578 H 0.11876 0.56652 0.82204 0.0
C579 C 0.13313 0.49801 0.86553 0.0
H580 H 0.11995 0.55356 0.93726 0.0
C581 C 0.13299 0.50551 0.79992 0.0
C582 C 0.12714 0.53008 0.78326 0.0
H583 H 0.13634 0.47865 0.87687 0.0
H584 H 0.136 0.4917 0.76213 0.0
C585 C 0.12327 0.54745 0.8336 0.0
C586 C 0.74709 0.87832 0.0153 0.0
C587 C 0.76453 0.87419 0.96537 0.0
H588 H 0.73996 0.87951 0.11852 0.0
C589 C 0.78934 0.86957 0.98277 0.0
H590 H 0.72786 0.88195 0.00334 0.0
C591 C 0.79622 0.86766 0.049 0.0
C592 C 0.77852 0.87088 0.0989 0.0
H593 H 0.80315 0.86616 0.94527 0.0
H594 H 0.8152 0.86297 0.06108 0.0
C595 C 0.75406 0.87696 0.08129 0.0
C596 C 0.3658 0.49949 0.24927 0.0
C597 C 0.38822 0.50016 0.21416 0.0
H598 H 0.34788 0.50555 0.34238 0.0
C599 C 0.4095 0.50964 0.24486 0.0
H600 H 0.34917 0.49217 0.2266 0.0
C601 C 0.4086 0.51794 0.30966 0.0
C602 C 0.38657 0.51626 0.34616 0.0
H603 H 0.42698 0.51046 0.21876 0.0
H604 H 0.42552 0.52474 0.33203 0.0
C605 C 0.36508 0.5071 0.31531 0.0
C606 C 0.70993 0.12424 0.56274 0.0
C607 C 0.72598 0.12417 0.61699 0.0
H608 H 0.70674 0.12382 0.45802 0.0
C609 C 0.75146 0.12034 0.60673 0.0
H610 H 0.6902 0.12708 0.5693 0.0
C611 C 0.76099 0.11893 0.54307 0.0
C612 C 0.74513 0.12079 0.48869 0.0
H613 H 0.7643 0.12019 0.64764 0.0
H614 H 0.78088 0.11768 0.53641 0.0
C615 C 0.71941 0.1223 0.49909 0.0
C616 C 0.89401 0.49293 0.26805 0.0
C617 C 0.89331 0.51872 0.2584 0.0
H618 H 0.89639 0.46319 0.33762 0.0
C619 C 0.89179 0.53439 0.31324 0.0
H620 H 0.89531 0.48041 0.22661 0.0
C621 C 0.89189 0.52449 0.37667 0.0
C622 C 0.89412 0.49879 0.38635 0.0
H623 H 0.89122 0.55433 0.30714 0.0
H624 H 0.89148 0.53706 0.41812 0.0
C625 C 0.89472 0.48306 0.3315 0.0
C626 C 0.25739 0.13421 0.00306 0.0
C627 C 0.23187 0.13695 0.99124 0.0
H628 H 0.28637 0.13267 0.07511 0.0
C629 C 0.21554 0.13811 0.04477 0.0
H630 H 0.27041 0.13342 0.96263 0.0
C631 C 0.22462 0.13706 0.10904 0.0
C632 C 0.25025 0.13555 0.12084 0.0
H633 H 0.19578 0.14023 0.03695 0.0
H634 H 0.21167 0.13852 0.14948 0.0
C635 C 0.26654 0.13386 0.06731 0.0
C636 C 0.6175 0.53084 0.79325 0.0
C637 C 0.61731 0.51494 0.8478 0.0
H638 H 0.6165 0.53384 0.6885 0.0
C639 C 0.61912 0.48922 0.83745 0.0
H640 H 0.6162 0.55073 0.79972 0.0
C641 C 0.61892 0.47952 0.7738 0.0
C642 C 0.61733 0.49536 0.71931 0.0
H643 H 0.61902 0.47647 0.87852 0.0
H644 H 0.61874 0.45958 0.7674 0.0
C645 C 0.61772 0.52114 0.72956 0.0
C646 C 0.28223 0.85693 0.62105 0.0
C647 C 0.25723 0.86205 0.63496 0.0
H648 H 0.30955 0.8504 0.54636 0.0
C649 C 0.24109 0.86753 0.58288 0.0
H650 H 0.29505 0.8525 0.66027 0.0
C651 C 0.24949 0.86686 0.51797 0.0
C652 C 0.27406 0.86009 0.50369 0.0
H653 H 0.22173 0.87157 0.59219 0.0
H654 H 0.23633 0.87029 0.47884 0.0
C655 C 0.29051 0.85566 0.55591 0.0
C656 C 0.60655 0.99612 0.25348 0.0
C657 C 0.60129 0.0213 0.24258 0.0
H658 H 0.61152 0.96723 0.32461 0.0
C659 C 0.59929 0.03733 0.29659 0.0
H660 H 0.60807 0.98335 0.21266 0.0
C661 C 0.60187 0.02821 0.36047 0.0
C662 C 0.60583 0.0028 0.37149 0.0
H663 H 0.59529 0.05682 0.28949 0.0
H664 H 0.59961 0.04087 0.4013 0.0
C665 C 0.60847 0.98689 0.31743 0.0
C666 C 0.23575 0.37327 0.54804 0.0
C667 C 0.25176 0.36874 0.49522 0.0
H668 H 0.23192 0.37599 0.65209 0.0
C669 C 0.27736 0.36671 0.50675 0.0
H670 H 0.21597 0.37513 0.54023 0.0
C671 C 0.28649 0.36678 0.57093 0.0
C672 C 0.27018 0.36938 0.62414 0.0
H673 H 0.29009 0.36325 0.46668 0.0
H674 H 0.30605 0.36339 0.57901 0.0
C675 C 0.24493 0.37387 0.612 0.0
C676 C 0.91379 0.99054 0.85264 0.0
C677 C 0.89154 0.99063 0.88829 0.0
H678 H 0.93235 0.98019 0.76406 0.0
C679 C 0.87012 0.98045 0.85951 0.0
H680 H 0.93063 0.99805 0.87379 0.0
C681 C 0.87095 0.97077 0.79545 0.0
C682 C 0.89344 0.97026 0.76059 0.0
H683 H 0.85274 0.98028 0.88614 0.0
H684 H 0.85421 0.96332 0.77367 0.0
C685 C 0.91482 0.98013 0.79002 0.0
C686 C 0.26727 0.61825 0.02412 0.0
C687 C 0.25119 0.62445 0.97239 0.0
H688 H 0.27174 0.61383 0.128 0.0
C689 C 0.22609 0.62895 0.98641 0.0
H690 H 0.2867 0.61467 0.01472 0.0
C691 C 0.21763 0.629 0.05141 0.0
C692 C 0.23398 0.62394 0.10343 0.0
H693 H 0.21329 0.63389 0.94757 0.0
H694 H 0.1985 0.63387 0.06114 0.0
C695 C 0.25867 0.61769 0.08894 0.0
C696 C 0.37307 0.95251 0.80969 0.0
C697 C 0.37389 0.96885 0.86318 0.0
H698 H 0.37209 0.94856 0.7054 0.0
C699 C 0.37161 0.99444 0.85193 0.0
H700 H 0.3747 0.93269 0.81715 0.0
C701 C 0.37065 0.00364 0.78769 0.0
C702 C 0.3714 0.98731 0.734 0.0
H703 H 0.37233 0.00743 0.89245 0.0
H704 H 0.37051 0.02351 0.78004 0.0
C705 C 0.37153 0.96163 0.74574 0.0
C706 C 0.76521 0.63656 0.49205 0.0
C707 C 0.73942 0.63755 0.48223 0.0
H708 H 0.79497 0.6373 0.562 0.0
C709 C 0.72364 0.63667 0.53689 0.0
H710 H 0.7778 0.6373 0.45069 0.0
C711 C 0.73344 0.63621 0.60033 0.0
C712 C 0.75922 0.63716 0.61041 0.0
H713 H 0.7037 0.6373 0.53069 0.0
H714 H 0.72074 0.6366 0.64149 0.0
C715 C 0.77504 0.63662 0.55569 0.0
C716 C 0.1224 0.98835 0.35742 0.0
C717 C 0.11786 0.01369 0.36812 0.0
H718 H 0.12537 0.95909 0.28673 0.0
C719 C 0.1169 0.02977 0.31405 0.0
H720 H 0.12327 0.97549 0.39819 0.0
C721 C 0.11855 0.02041 0.25022 0.0
C722 C 0.12071 0.99475 0.2395 0.0
H723 H 0.11354 0.0494 0.32092 0.0
H724 H 0.1163 0.03307 0.20938 0.0
C725 C 0.12357 0.97892 0.29361 0.0
C726 C 0.72416 0.35672 0.05971 0.0
C727 C 0.74047 0.3551 0.11319 0.0
H728 H 0.72034 0.35851 0.95518 0.0
C729 C 0.76616 0.35514 0.10163 0.0
H730 H 0.70428 0.35677 0.06736 0.0
C731 C 0.77534 0.35556 0.03745 0.0
C732 C 0.759 0.35664 0.9839 0.0
H733 H 0.77914 0.3538 0.14207 0.0
H734 H 0.79519 0.35464 0.02968 0.0
C735 C 0.73336 0.35782 0.99564 0.0
C736 C 0.14621 0.53321 0.38203 0.0
C737 C 0.1395 0.51458 0.42715 0.0
H738 H 0.14614 0.54459 0.28086 0.0
C739 C 0.13226 0.49128 0.4037 0.0
H740 H 0.15171 0.55145 0.39895 0.0
C741 C 0.12874 0.48759 0.33684 0.0
C742 C 0.13255 0.50708 0.29225 0.0
H743 H 0.12712 0.4766 0.43738 0.0
H744 H 0.12158 0.46986 0.32042 0.0
C745 C 0.14275 0.52945 0.3146 0.0
C746 C 0.78352 0.89193 0.56252 0.0
C747 C 0.76002 0.88539 0.58618 0.0
H748 H 0.80603 0.89677 0.47681 0.0
C749 C 0.73983 0.88459 0.54267 0.0
H750 H 0.79928 0.89285 0.59542 0.0
C751 C 0.74354 0.88706 0.47547 0.0
C752 C 0.76753 0.89023 0.45069 0.0
H753 H 0.72136 0.88022 0.56022 0.0
H754 H 0.72802 0.88395 0.44265 0.0
C755 C 0.78727 0.8944 0.49474 0.0
C756 C 0.36656 0.4713 0.72616 0.0
C757 C 0.3602 0.49506 0.70428 0.0
H758 H 0.37616 0.44862 0.80798 0.0
C759 C 0.35393 0.51334 0.75086 0.0
H760 H 0.37139 0.45688 0.69142 0.0
C761 C 0.3572 0.50881 0.81808 0.0
C762 C 0.36649 0.48588 0.83916 0.0
H763 H 0.34905 0.53191 0.73532 0.0
H764 H 0.35446 0.5238 0.85268 0.0
C765 C 0.36956 0.46672 0.79298 0.0
C766 C 0.74885 0.16662 0.08099 0.0
C767 C 0.74605 0.14444 0.11605 0.0
H768 H 0.74493 0.18506 0.98903 0.0
C769 C 0.73787 0.12299 0.08361 0.0
H770 H 0.75523 0.18338 0.10501 0.0
C771 C 0.73255 0.12383 0.01646 0.0
C772 C 0.73493 0.14623 0.98204 0.0
H773 H 0.73593 0.10563 0.10985 0.0
H774 H 0.72585 0.10729 0.99204 0.0
C775 C 0.74312 0.16756 0.01471 0.0
C776 C 0.89313 0.52545 0.77126 0.0
C777 C 0.89452 0.49997 0.75902 0.0
H778 H 0.89397 0.55393 0.84433 0.0
C779 C 0.8942 0.48316 0.8117 0.0
H780 H 0.89338 0.53868 0.73124 0.0
C781 C 0.89403 0.49181 0.87617 0.0
C782 C 0.89483 0.51733 0.88831 0.0
H783 H 0.89508 0.46336 0.803 0.0
H784 H 0.89496 0.47862 0.91619 0.0
C785 C 0.8936 0.53411 0.83568 0.0
C786 C 0.25789 0.1217 0.60931 0.0
C787 C 0.23253 0.12441 0.62184 0.0
H788 H 0.28618 0.1215 0.53573 0.0
C789 C 0.21556 0.12391 0.56949 0.0
H790 H 0.27124 0.1221 0.64904 0.0
C791 C 0.22401 0.12317 0.50487 0.0
C792 C 0.24951 0.12349 0.49228 0.0
H793 H 0.19584 0.12583 0.57845 0.0
H794 H 0.21073 0.12465 0.46516 0.0
C795 C 0.26637 0.12151 0.54467 0.0
C796 C 0.61403 0.5063 0.2496 0.0
C797 C 0.59149 0.50847 0.21562 0.0
H798 H 0.63156 0.49954 0.34252 0.0
C799 C 0.56906 0.50526 0.24928 0.0
H800 H 0.63151 0.50916 0.22457 0.0
C801 C 0.56909 0.49967 0.3159 0.0
C802 C 0.59154 0.49786 0.35028 0.0
H803 H 0.55147 0.50709 0.224 0.0
H804 H 0.55153 0.4969 0.34067 0.0
C805 C 0.61404 0.50128 0.31693 0.0
C806 C 0.27109 0.8753 0.03373 0.0
C807 C 0.2483 0.86547 0.01306 0.0
H808 H 0.29466 0.88306 0.11604 0.0
C809 C 0.22984 0.86049 0.05991 0.0
H810 H 0.28549 0.87954 0.99842 0.0
C811 C 0.23488 0.86279 0.12658 0.0
C812 C 0.2585 0.87005 0.14777 0.0
H813 H 0.21184 0.8535 0.04519 0.0
H814 H 0.2209 0.857 0.16156 0.0
C815 C 0.27619 0.87757 0.10095 0.0
C816 C 0.61086 0.03021 0.75746 0.0
C817 C 0.61211 0.00476 0.74473 0.0
H818 H 0.60655 0.05812 0.83119 0.0
C819 C 0.61477 0.98797 0.79701 0.0
H820 H 0.60888 0.04342 0.71776 0.0
C821 C 0.61397 0.99636 0.86165 0.0
C822 C 0.60995 0.02153 0.87429 0.0
H823 H 0.61606 0.96822 0.7879 0.0
H824 H 0.61431 0.98298 0.9013 0.0
C825 C 0.6095 0.03855 0.82209 0.0
C826 C 0.23748 0.32646 0.08234 0.0
C827 C 0.24313 0.34724 0.12088 0.0
H828 H 0.23949 0.30988 0.98725 0.0
C829 C 0.25305 0.36858 0.09157 0.0
H830 H 0.22966 0.30988 0.10408 0.0
C831 C 0.25781 0.36885 0.02427 0.0
C832 C 0.25323 0.34758 0.98664 0.0
H833 H 0.25717 0.3849 0.12061 0.0
H834 H 0.26627 0.3851 0.0024 0.0
C835 C 0.24285 0.32651 0.01575 0.0
C836 C 0.87116 0.99821 0.37938 0.0
C837 C 0.8708 0.97274 0.39246 0.0
H838 H 0.87453 0.02621 0.30568 0.0
C839 C 0.86846 0.95589 0.34003 0.0
H840 H 0.87297 0.01155 0.41886 0.0
C841 C 0.86932 0.96424 0.27519 0.0
C842 C 0.87279 0.98949 0.2623 0.0
H843 H 0.86797 0.9361 0.34908 0.0
H844 H 0.86943 0.9508 0.23568 0.0
C845 C 0.87231 0.00653 0.31461 0.0
C846 C 0.27766 0.62683 0.55188 0.0
C847 C 0.26005 0.62104 0.6003 0.0
H848 H 0.28542 0.63011 0.44952 0.0
C849 C 0.23764 0.60984 0.58168 0.0
H850 H 0.29535 0.63499 0.5651 0.0
C851 C 0.23192 0.607 0.51488 0.0
C852 C 0.24866 0.61518 0.46639 0.0
H853 H 0.22387 0.60508 0.61825 0.0
H854 H 0.21365 0.60035 0.5014 0.0
C855 C 0.27208 0.62382 0.48565 0.0
C856 C 0.36502 0.97357 0.26346 0.0
C857 C 0.38512 0.95961 0.24 0.0
H858 H 0.34899 0.99177 0.34721 0.0
C859 C 0.40264 0.95027 0.28467 0.0
H860 H 0.35119 0.98077 0.23 0.0
C861 C 0.40143 0.95656 0.35055 0.0
C862 C 0.3824 0.97184 0.37332 0.0
H863 H 0.41812 0.93907 0.26834 0.0
H864 H 0.41611 0.95052 0.3832 0.0
C865 C 0.36361 0.97959 0.33026 0.0
C866 C 0.74414 0.63164 0.07693 0.0
C867 C 0.73327 0.65282 0.1047 0.0
H868 H 0.75972 0.6154 0.98989 0.0
C869 C 0.72827 0.67348 0.06495 0.0
H870 H 0.74794 0.61544 0.10668 0.0
C871 C 0.73507 0.6735 -0.00069 0.0
C872 C 0.74646 0.65268 0.97183 0.0
H873 H 0.71982 0.69004 0.08505 0.0
H874 H 0.73201 0.69007 0.97035 0.0
C875 C 0.7505 0.63148 0.01033 0.0
C876 C 0.07161 0.99328 0.83563 0.0
C877 C 0.09413 0.99436 0.86982 0.0
H878 H 0.05316 0.99824 0.74377 0.0
C879 C 0.11604 0.00039 0.83634 0.0
H880 H 0.05453 0.98848 0.86059 0.0
C881 C 0.11538 0.00515 0.76896 0.0
C882 C 0.09271 0.00448 0.73521 0.0
H883 H 0.13365 0.0009 0.86191 0.0
H884 H 0.13236 0.01007 0.74373 0.0
C885 C 0.07085 0.99863 0.76898 0.0
C886 C 0.77419 0.36849 0.55905 0.0
C887 C 0.75714 0.36771 0.61115 0.0
H888 H 0.77922 0.36708 0.45487 0.0
C889 C 0.73172 0.36929 0.59824 0.0
H890 H 0.79395 0.36754 0.56838 0.0
C891 C 0.72336 0.36862 0.53355 0.0
C892 C 0.74039 0.36689 0.48156 0.0
H893 H 0.71833 0.36874 0.63783 0.0
H894 H 0.70358 0.36777 0.52435 0.0
C895 C 0.76583 0.36835 0.49435 0.0
C896 C 0.17187 0.43435 0.1814 0.0
C897 C 0.14725 0.42929 0.16371 0.0
H898 H 0.20389 0.42312 0.23401 0.0
C899 C 0.13603 0.40741 0.18702 0.0
H900 H 0.18104 0.45118 0.16549 0.0
C901 C 0.1495 0.39081 0.22674 0.0
C902 C 0.17409 0.39628 0.24481 0.0
H903 H 0.11693 0.40323 0.17491 0.0
H904 H 0.14076 0.37382 0.24308 0.0
C905 C 0.18494 0.41829 0.22177 0.0
C906 C 0.89015 0.87601 0.44145 0.0
C907 C 0.88184 0.8793 0.50641 0.0
H908 H 0.88097 0.86348 0.34443 0.0
C909 C 0.86001 0.86735 0.52642 0.0
H910 H 0.90676 0.88526 0.4243 0.0
C911 C 0.84563 0.85425 0.48094 0.0
C912 C 0.85242 0.85362 0.41422 0.0
H913 H 0.85305 0.86978 0.57587 0.0
H914 H 0.82795 0.84685 0.49688 0.0
C915 C 0.87534 0.86364 0.39546 0.0
C916 C 0.36601 0.61121 0.62533 0.0
C917 C 0.3776 0.59015 0.65148 0.0
H918 H 0.34072 0.64111 0.64255 0.0
C919 C 0.37491 0.58493 0.71881 0.0
H920 H 0.36763 0.61549 0.57357 0.0
C921 C 0.35886 0.599 0.75764 0.0
C922 C 0.3461 0.61914 0.73047 0.0
H923 H 0.38341 0.56862 0.74016 0.0
H924 H 0.35536 0.59332 0.8078 0.0
C925 C 0.35071 0.62588 0.66491 0.0
C926 C 0.65309 0.12554 0.96133 0.0
C927 C 0.64403 0.13223 0.89923 0.0
H928 H 0.64575 0.10756 0.05267 0.0
C929 C 0.61875 0.12919 0.88543 0.0
H930 H 0.67256 0.12789 0.97308 0.0
C931 C 0.60322 0.11749 0.93143 0.0
C932 C 0.61292 0.10875 0.99144 0.0
H933 H 0.61145 0.13416 0.83768 0.0
H934 H 0.58427 0.11337 0.91763 0.0
C935 C 0.6377 0.11406 0.00708 0.0
C936 C 0.15014 0.638 0.45697 0.0
C937 C 0.15043 0.63121 0.39029 0.0
H938 H 0.13686 0.62925 0.55344 0.0
C939 C 0.13331 0.61354 0.36781 0.0
H940 H 0.16322 0.65148 0.47582 0.0
C941 C 0.11776 0.60127 0.41212 0.0
C942 C 0.11957 0.60601 0.47989 0.0
H943 H 0.13315 0.60794 0.31674 0.0
H944 H 0.10615 0.58639 0.3939 0.0
C945 C 0.13505 0.62527 0.50154 0.0
C946 C 0.67045 0.93573 0.64082 0.0
C947 C 0.64731 0.9254 0.62484 0.0
H948 H 0.70451 0.93199 0.6928 0.0
C949 C 0.6411 0.902 0.65059 0.0
H950 H 0.67581 0.95384 0.62268 0.0
C951 C 0.65791 0.88919 0.69111 0.0
C952 C 0.68085 0.89993 0.70782 0.0
H953 H 0.62326 0.8937 0.63984 0.0
H954 H 0.65297 0.871 0.70936 0.0
C955 C 0.68683 0.92333 0.68214 0.0
C956 C 0.36981 0.37552 0.90022 0.0
C957 C 0.34467 0.37192 0.91449 0.0
H958 H 0.40291 0.39545 0.92542 0.0
C959 C 0.33485 0.38152 0.97301 0.0
H960 H 0.37768 0.36827 0.85526 0.0
C961 C 0.34913 0.39672 0.0133 0.0
C962 C 0.37346 0.40284 0.99539 0.0
H963 H 0.3155 0.37866 0.98528 0.0
H964 H 0.34038 0.40547 0.0552 0.0
C965 C 0.3842 0.39095 0.94065 0.0
C966 C 0.85155 0.1072 0.21861 0.0
C967 C 0.82579 0.10345 0.2165 0.0
H968 H 0.8871 0.09553 0.18216 0.0
C969 C 0.81593 0.08728 0.16911 0.0
H970 H 0.85957 0.11989 0.25393 0.0
C971 C 0.83138 0.07413 0.12703 0.0
C972 C 0.85722 0.07639 0.13184 0.0
H973 H 0.79609 0.08455 0.16479 0.0
H974 H 0.82302 0.06119 0.09289 0.0
C975 C 0.86722 0.09353 0.17696 0.0
C976 C 0.842 0.59583 0.99263 0.0
C977 C 0.86726 0.60149 -0.00034 0.0
H978 H 0.80843 0.60208 0.94007 0.0
C979 C 0.87757 0.62024 0.95991 0.0
H980 H 0.83337 0.58154 0.02223 0.0
C981 C 0.86296 0.63236 0.91245 0.0
C982 C 0.8381 0.62537 0.9031 0.0
H983 H 0.89706 0.62488 0.96378 0.0
H984 H 0.87127 0.64649 0.88173 0.0
C985 C 0.82774 0.60738 0.94467 0.0
C986 C 0.1264 0.08137 0.71103 0.0
C987 C 0.11709 0.09151 0.65254 0.0
H988 H 0.14756 0.08726 0.79815 0.0
C989 C 0.11896 0.11711 0.64195 0.0
H990 H 0.12478 0.06167 0.72073 0.0
C991 C 0.13219 0.13193 0.68673 0.0
C992 C 0.14342 0.12122 0.74247 0.0
H993 H 0.11183 0.12528 0.59721 0.0
H994 H 0.13526 0.15127 0.67499 0.0
C995 C 0.13926 0.09606 0.75569 0.0
C996 C 0.63809 0.37246 0.40433 0.0
C997 C 0.65456 0.38225 0.35725 0.0
H998 H 0.61291 0.38049 0.48377 0.0
C999 C 0.65661 0.40806 0.35108 0.0
H1000 H 0.63628 0.35261 0.41058 0.0
C1001 C 0.64403 0.42371 0.39382 0.0
C1002 C 0.62866 0.41407 0.44327 0.0
H1003 H 0.66902 0.41626 0.31533 0.0
H1004 H 0.64665 0.44354 0.38855 0.0
C1005 C 0.62499 0.38833 0.44673 0.0
C1006 C 0.35806 0.86356 0.08598 0.0
C1007 C 0.37868 0.87725 0.10699 0.0
H1008 H 0.32792 0.84005 0.11383 0.0
C1009 C 0.38678 0.87487 0.17233 0.0
H1010 H 0.35121 0.8655 0.03625 0.0
C1011 C 0.37289 0.86111 0.21757 0.0
C1012 C 0.35123 0.84883 0.19753 0.0
H1013 H 0.4023 0.88575 0.19006 0.0
H1014 H 0.37813 0.86145 0.2689 0.0
C1015 C 0.34474 0.84904 0.13059 0.0
C1016 C 0.86376 0.37851 0.70696 0.0
C1017 C 0.84007 0.38655 0.72656 0.0
H1018 H 0.89682 0.38723 0.65209 0.0
C1019 C 0.83098 0.40904 0.70169 0.0
H1020 H 0.87103 0.36101 0.72449 0.0
C1021 C 0.84501 0.42322 0.65861 0.0
C1022 C 0.86894 0.41579 0.64013 0.0
H1023 H 0.8126 0.41558 0.71427 0.0
H1024 H 0.83719 0.44051 0.64126 0.0
C1025 C 0.87831 0.39328 0.66487 0.0
C1026 C 0.36538 0.09334 0.44673 0.0
C1027 C 0.3595 0.06797 0.44565 0.0
H1028 H 0.3561 0.12965 0.41051 0.0
C1029 C 0.34209 0.0593 0.39983 0.0
H1030 H 0.37899 0.1004 0.48108 0.0
C1031 C 0.32971 0.07567 0.35848 0.0
C1032 C 0.33401 0.10128 0.36262 0.0
H1033 H 0.33765 0.03974 0.39661 0.0
H1034 H 0.31574 0.06827 0.32565 0.0
C1035 C 0.35249 0.10998 0.40589 0.0
C1036 C 0.64303 0.57993 0.1819 0.0
C1037 C 0.62775 0.5916 0.13544 0.0
H1038 H 0.66787 0.58399 0.26247 0.0
C1039 C 0.62389 0.6173 0.14008 0.0
H1040 H 0.64573 0.56003 0.18113 0.0
C1041 C 0.63686 0.63127 0.18739 0.0
C1042 C 0.65336 0.61954 0.23115 0.0
H1043 H 0.61182 0.62664 0.10554 0.0
H1044 H 0.63503 0.65126 0.1873 0.0
C1045 C 0.65548 0.59365 0.22933 0.0
C1046 C 0.1732 0.91309 0.88366 0.0
C1047 C 0.16989 0.88734 0.88036 0.0
H1048 H 0.16254 0.94716 0.92794 0.0
C1049 C 0.15108 0.87633 0.91854 0.0
H1050 H 0.18748 0.92221 0.85507 0.0
C1051 C 0.13649 0.89087 0.96093 0.0
C1052 C 0.1409 0.91646 0.96645 0.0
H1053 H 0.14826 0.85646 0.91751 0.0
H1054 H 0.12232 0.88205 0.99049 0.0
C1055 C 0.15907 0.92738 0.92634 0.0
loop_
_geom_bond_atom_site_label_1
_geom_bond_atom_site_label_2
_geom_bond_distance
_geom_bond_site_symmetry_2
_ccdc_geom_bond_type
In0 O1 2.294 . S
In0 O2 2.326 . S
In0 O6 2.266 . S
In0 O7 2.326 . S
In0 O8 2.266 1_554 S
In0 O9 2.326 1_554 S
In0 O11 2.294 . S
In0 O12 2.326 . S
O1 In0 2.294 . S
O1 C10 1.240 . S
O2 In0 2.326 . S
O2 C10 1.252 . S
C3 O6 1.252 . S
C3 O7 1.260 . S
C4 O11 1.240 . S
C4 O12 1.252 . S
C5 O8 1.252 . S
C5 O9 1.260 . S
O6 In0 2.266 . S
O6 C3 1.252 . S
O7 In0 2.326 . S
O7 C3 1.260 . S
O8 In0 2.266 1_556 S
O8 C5 1.252 . S
O9 In0 2.326 1_556 S
O9 C5 1.260 . S
C10 O1 1.240 . S
C10 O2 1.252 . S
O11 In0 2.294 . S
O11 C4 1.240 . S
O12 In0 2.326 . S
O12 C4 1.252 . S
In13 O14 2.294 . S
In13 O15 2.326 . S
In13 O19 2.266 . S
In13 O20 2.326 . S
In13 O21 2.266 . S
In13 O22 2.326 . S
In13 O24 2.294 . S
In13 O25 2.326 . S
O14 In13 2.294 . S
O14 C23 1.240 . S
O15 In13 2.326 . S
O15 C23 1.252 . S
C16 O19 1.252 . S
C16 O20 1.260 . S
C17 O24 1.240 . S
C17 O25 1.252 . S
C18 O21 1.252 . S
C18 O22 1.260 . S
O19 In13 2.266 . S
O19 C16 1.252 . S
O20 In13 2.326 . S
O20 C16 1.260 . S
O21 In13 2.266 . S
O21 C18 1.252 . S
O22 In13 2.326 . S
O22 C18 1.260 . S
C23 O14 1.240 . S
C23 O15 1.252 . S
O24 In13 2.294 . S
O24 C17 1.240 . S
O25 In13 2.326 . S
O25 C17 1.252 . S
In26 O27 2.294 . S
In26 O28 2.326 . S
In26 O32 2.266 . S
In26 O33 2.326 . S
In26 O34 2.266 . S
In26 O35 2.326 . S
In26 O37 2.294 . S
In26 O38 2.326 . S
O27 In26 2.294 . S
O27 C36 1.240 . S
O28 In26 2.326 . S
O28 C36 1.252 . S
C29 O32 1.252 . S
C29 O33 1.260 . S
C30 O37 1.240 . S
C30 O38 1.252 . S
C31 O34 1.252 . S
C31 O35 1.260 . S
O32 In26 2.266 . S
O32 C29 1.252 . S
O33 In26 2.326 . S
O33 C29 1.260 . S
O34 In26 2.266 . S
O34 C31 1.252 . S
O35 In26 2.326 . S
O35 C31 1.260 . S
C36 O27 1.240 . S
C36 O28 1.252 . S
O37 In26 2.294 . S
O37 C30 1.240 . S
O38 In26 2.326 . S
O38 C30 1.252 . S
In39 O40 2.294 . S
In39 O41 2.326 . S
In39 O45 2.266 . S
In39 O46 2.326 . S
In39 O47 2.266 . S
In39 O48 2.326 . S
In39 O50 2.294 . S
In39 O51 2.326 . S
O40 In39 2.294 . S
O40 C49 1.240 . S
O41 In39 2.326 . S
O41 C49 1.252 . S
C42 O45 1.252 . S
C42 O46 1.260 . S
C43 O50 1.240 . S
C43 O51 1.252 . S
C44 O47 1.252 . S
C44 O48 1.260 . S
O45 In39 2.266 . S
O45 C42 1.252 . S
O46 In39 2.326 . S
O46 C42 1.260 . S
O47 In39 2.266 . S
O47 C44 1.252 . S
O48 In39 2.326 . S
O48 C44 1.260 . S
C49 O40 1.240 . S
C49 O41 1.252 . S
O50 In39 2.294 . S
O50 C43 1.240 . S
O51 In39 2.326 . S
O51 C43 1.252 . S
In52 O53 2.294 . S
In52 O54 2.326 . S
In52 O58 2.266 . S
In52 O59 2.326 . S
In52 O60 2.266 . S
In52 O61 2.326 . S
In52 O63 2.294 . S
In52 O64 2.326 . S
O53 In52 2.294 . S
O53 C62 1.240 . S
O54 In52 2.326 . S
O54 C62 1.252 . S
C55 O58 1.252 . S
C55 O59 1.260 . S
C56 O63 1.240 . S
C56 O64 1.252 . S
C57 O60 1.252 . S
C57 O61 1.260 . S
O58 In52 2.266 . S
O58 C55 1.252 . S
O59 In52 2.326 . S
O59 C55 1.260 . S
O60 In52 2.266 . S
O60 C57 1.252 . S
O61 In52 2.326 . S
O61 C57 1.260 . S
C62 O53 1.240 . S
C62 O54 1.252 . S
O63 In52 2.294 . S
O63 C56 1.240 . S
O64 In52 2.326 . S
O64 C56 1.252 . S
In65 O66 2.294 . S
In65 O67 2.326 . S
In65 O71 2.266 . S
In65 O72 2.326 . S
In65 O73 2.266 . S
In65 O74 2.326 . S
In65 O76 2.294 . S
In65 O77 2.326 . S
O66 In65 2.294 . S
O66 C75 1.240 . S
O67 In65 2.326 . S
O67 C75 1.252 . S
C68 O71 1.252 . S
C68 O72 1.260 . S
C69 O76 1.240 . S
C69 O77 1.252 . S
C70 O73 1.252 . S
C70 O74 1.260 . S
O71 In65 2.266 . S
O71 C68 1.252 . S
O72 In65 2.326 . S
O72 C68 1.260 . S
O73 In65 2.266 . S
O73 C70 1.252 . S
O74 In65 2.326 . S
O74 C70 1.260 . S
C75 O66 1.240 . S
C75 O67 1.252 . S
O76 In65 2.294 . S
O76 C69 1.240 . S
O77 In65 2.326 . S
O77 C69 1.252 . S
In78 O79 2.294 . S
In78 O80 2.326 . S
In78 O84 2.266 . S
In78 O85 2.326 . S
In78 O86 2.266 . S
In78 O87 2.326 . S
In78 O89 2.294 1_554 S
In78 O90 2.326 1_554 S
O79 In78 2.294 . S
O79 C88 1.240 . S
O80 In78 2.326 . S
O80 C88 1.252 . S
C81 O84 1.252 . S
C81 O85 1.260 . S
C82 O89 1.240 . S
C82 O90 1.252 . S
C83 O86 1.252 . S
C83 O87 1.260 . S
O84 In78 2.266 . S
O84 C81 1.252 . S
O85 In78 2.326 . S
O85 C81 1.260 . S
O86 In78 2.266 . S
O86 C83 1.252 . S
O87 In78 2.326 . S
O87 C83 1.260 . S
C88 O79 1.240 . S
C88 O80 1.252 . S
O89 In78 2.294 1_556 S
O89 C82 1.240 . S
O90 In78 2.326 1_556 S
O90 C82 1.252 . S
In91 O92 2.294 . S
In91 O93 2.326 . S
In91 O97 2.266 . S
In91 O98 2.326 . S
In91 O99 2.266 . S
In91 O100 2.326 . S
In91 O102 2.294 . S
In91 O103 2.326 . S
O92 In91 2.294 . S
O92 C101 1.240 . S
O93 In91 2.326 . S
O93 C101 1.252 . S
C94 O97 1.252 . S
C94 O98 1.260 . S
C95 O102 1.240 . S
C95 O103 1.252 . S
C96 O99 1.252 . S
C96 O100 1.260 . S
O97 In91 2.266 . S
O97 C94 1.252 . S
O98 In91 2.326 . S
O98 C94 1.260 . S
O99 In91 2.266 . S
O99 C96 1.252 . S
O100 In91 2.326 . S
O100 C96 1.260 . S
C101 O92 1.240 . S
C101 O93 1.252 . S
O102 In91 2.294 . S
O102 C95 1.240 . S
O103 In91 2.326 . S
O103 C95 1.252 . S
In104 O105 2.294 1_554 S
In104 O106 2.326 1_554 S
In104 O110 2.266 . S
In104 O111 2.326 . S
In104 O112 2.266 . S
In104 O113 2.326 . S
In104 O115 2.294 . S
In104 O116 2.326 . S
O105 In104 2.294 1_556 S
O105 C114 1.240 . S
O106 In104 2.326 1_556 S
O106 C114 1.252 . S
C107 O110 1.252 . S
C107 O111 1.260 . S
C108 O115 1.240 . S
C108 O116 1.252 . S
C109 O112 1.252 . S
C109 O113 1.260 . S
O110 In104 2.266 . S
O110 C107 1.252 . S
O111 In104 2.326 . S
O111 C107 1.260 . S
O112 In104 2.266 . S
O112 C109 1.252 . S
O113 In104 2.326 . S
O113 C109 1.260 . S
C114 O105 1.240 . S
C114 O106 1.252 . S
O115 In104 2.294 . S
O115 C108 1.240 . S
O116 In104 2.326 . S
O116 C108 1.252 . S
In117 O118 2.294 . S
In117 O119 2.326 . S
In117 O123 2.266 . S
In117 O124 2.326 . S
In117 O125 2.266 . S
In117 O126 2.326 . S
In117 O128 2.294 . S
In117 O129 2.326 . S
O118 In117 2.294 . S
O118 C127 1.240 . S
O119 In117 2.326 . S
O119 C127 1.252 . S
C120 O123 1.252 . S
C120 O124 1.260 . S
C121 O128 1.240 . S
C121 O129 1.252 . S
C122 O125 1.252 . S
C122 O126 1.260 . S
O123 In117 2.266 . S
O123 C120 1.252 . S
O124 In117 2.326 . S
O124 C120 1.260 . S
O125 In117 2.266 . S
O125 C122 1.252 . S
O126 In117 2.326 . S
O126 C122 1.260 . S
C127 O118 1.240 . S
C127 O119 1.252 . S
O128 In117 2.294 . S
O128 C121 1.240 . S
O129 In117 2.326 . S
O129 C121 1.252 . S
In130 O131 2.294 . S
In130 O132 2.326 . S
In130 O136 2.266 . S
In130 O137 2.326 . S
In130 O138 2.266 . S
In130 O139 2.326 . S
In130 O141 2.294 . S
In130 O142 2.326 . S
O131 In130 2.294 . S
O131 C140 1.240 . S
O132 In130 2.326 . S
O132 C140 1.252 . S
C133 O136 1.252 . S
C133 O137 1.260 . S
C134 O141 1.240 . S
C134 O142 1.252 . S
C135 O138 1.252 . S
C135 O139 1.260 . S
O136 In130 2.266 . S
O136 C133 1.252 . S
O137 In130 2.326 . S
O137 C133 1.260 . S
O138 In130 2.266 . S
O138 C135 1.252 . S
O139 In130 2.326 . S
O139 C135 1.260 . S
C140 O131 1.240 . S
C140 O132 1.252 . S
O141 In130 2.294 . S
O141 C134 1.240 . S
O142 In130 2.326 . S
O142 C134 1.252 . S
In143 O144 2.294 . S
In143 O145 2.326 . S
In143 O149 2.266 . S
In143 O150 2.326 . S
In143 O151 2.266 . S
In143 O152 2.326 . S
In143 O154 2.294 . S
In143 O155 2.326 . S
O144 In143 2.294 . S
O144 C153 1.240 . S
O145 In143 2.326 . S
O145 C153 1.252 . S
C146 O149 1.252 . S
C146 O150 1.260 . S
C147 O154 1.240 . S
C147 O155 1.252 . S
C148 O151 1.252 . S
C148 O152 1.260 . S
O149 In143 2.266 . S
O149 C146 1.252 . S
O150 In143 2.326 . S
O150 C146 1.260 . S
O151 In143 2.266 . S
O151 C148 1.252 . S
O152 In143 2.326 . S
O152 C148 1.260 . S
C153 O144 1.240 . S
C153 O145 1.252 . S
O154 In143 2.294 . S
O154 C147 1.240 . S
O155 In143 2.326 . S
O155 C147 1.252 . S
In156 O157 2.294 . S
In156 O158 2.326 . S
In156 O162 2.266 . S
In156 O163 2.326 . S
In156 O164 2.266 . S
In156 O165 2.326 . S
In156 O167 2.294 . S
In156 O168 2.326 . S
O157 In156 2.294 . S
O157 C166 1.240 . S
O158 In156 2.326 . S
O158 C166 1.252 . S
C159 O162 1.252 . S
C159 O163 1.260 . S
C160 O167 1.240 . S
C160 O168 1.252 . S
C161 O164 1.252 . S
C161 O165 1.260 . S
O162 In156 2.266 . S
O162 C159 1.252 . S
O163 In156 2.326 . S
O163 C159 1.260 . S
O164 In156 2.266 . S
O164 C161 1.252 . S
O165 In156 2.326 . S
O165 C161 1.260 . S
C166 O157 1.240 . S
C166 O158 1.252 . S
O167 In156 2.294 . S
O167 C160 1.240 . S
O168 In156 2.326 . S
O168 C160 1.252 . S
In169 O170 2.294 . S
In169 O171 2.326 . S
In169 O175 2.266 . S
In169 O176 2.326 . S
In169 O177 2.266 . S
In169 O178 2.326 . S
In169 O180 2.294 . S
In169 O181 2.326 . S
O170 In169 2.294 . S
O170 C179 1.240 . S
O171 In169 2.326 . S
O171 C179 1.252 . S
C172 O175 1.252 . S
C172 O176 1.260 . S
C173 O180 1.240 . S
C173 O181 1.252 . S
C174 O177 1.252 . S
C174 O178 1.260 . S
O175 In169 2.266 . S
O175 C172 1.252 . S
O176 In169 2.326 . S
O176 C172 1.260 . S
O177 In169 2.266 . S
O177 C174 1.252 . S
O178 In169 2.326 . S
O178 C174 1.260 . S
C179 O170 1.240 . S
C179 O171 1.252 . S
O180 In169 2.294 . S
O180 C173 1.240 . S
O181 In169 2.326 . S
O181 C173 1.252 . S
In182 O183 2.294 . S
In182 O184 2.326 . S
In182 O188 2.266 . S
In182 O189 2.326 . S
In182 O190 2.266 1_554 S
In182 O191 2.326 1_554 S
In182 O193 2.294 . S
In182 O194 2.326 . S
O183 In182 2.294 . S
O183 C192 1.240 . S
O184 In182 2.326 . S
O184 C192 1.252 . S
C185 O188 1.252 . S
C185 O189 1.260 . S
C186 O193 1.240 . S
C186 O194 1.252 . S
C187 O190 1.252 . S
C187 O191 1.260 . S
O188 In182 2.266 . S
O188 C185 1.252 . S
O189 In182 2.326 . S
O189 C185 1.260 . S
O190 In182 2.266 1_556 S
O190 C187 1.252 . S
O191 In182 2.326 1_556 S
O191 C187 1.260 . S
C192 O183 1.240 . S
C192 O184 1.252 . S
O193 In182 2.294 . S
O193 C186 1.240 . S
O194 In182 2.326 . S
O194 C186 1.252 . S
In195 O196 2.294 . S
In195 O197 2.326 . S
In195 O201 2.266 . S
In195 O202 2.326 . S
In195 O203 2.266 . S
In195 O204 2.326 . S
In195 O206 2.294 . S
In195 O207 2.326 . S
O196 In195 2.294 . S
O196 C205 1.240 . S
O197 In195 2.326 . S
O197 C205 1.252 . S
C198 O201 1.252 . S
C198 O202 1.260 . S
C199 O206 1.240 . S
C199 O207 1.252 . S
C200 O203 1.252 . S
C200 O204 1.260 . S
O201 In195 2.266 . S
O201 C198 1.252 . S
O202 In195 2.326 . S
O202 C198 1.260 . S
O203 In195 2.266 . S
O203 C200 1.252 . S
O204 In195 2.326 . S
O204 C200 1.260 . S
C205 O196 1.240 . S
C205 O197 1.252 . S
O206 In195 2.294 . S
O206 C199 1.240 . S
O207 In195 2.326 . S
O207 C199 1.252 . S
In208 O209 2.294 . S
In208 O210 2.326 . S
In208 O214 2.266 . S
In208 O215 2.326 1_565 S
In208 O216 2.266 1_565 S
In208 O217 2.326 . S
In208 O219 2.294 1_565 S
In208 O220 2.326 . S
O209 In208 2.294 . S
O209 C218 1.240 . S
O210 In208 2.326 . S
O210 C218 1.252 . S
C211 O214 1.252 . S
C211 O215 1.260 1_565 S
C212 O219 1.240 . S
C212 O220 1.252 1_545 S
C213 O216 1.252 1_565 S
C213 O217 1.260 . S
O214 In208 2.266 . S
O214 C211 1.252 . S
O215 In208 2.326 1_545 S
O215 C211 1.260 1_545 S
O216 In208 2.266 1_545 S
O216 C213 1.252 1_545 S
O217 In208 2.326 . S
O217 C213 1.260 . S
C218 O209 1.240 . S
C218 O210 1.252 . S
O219 In208 2.294 1_545 S
O219 C212 1.240 . S
O220 In208 2.326 . S
O220 C212 1.252 1_565 S
In221 O222 2.294 . S
In221 O223 2.326 . S
In221 O227 2.266 . S
In221 O228 2.326 . S
In221 O229 2.266 . S
In221 O230 2.326 . S
In221 O232 2.294 . S
In221 O233 2.326 . S
O222 In221 2.294 . S
O222 C231 1.240 . S
O223 In221 2.326 . S
O223 C231 1.252 . S
C224 O227 1.252 . S
C224 O228 1.260 . S
C225 O232 1.240 . S
C225 O233 1.252 . S
C226 O229 1.252 . S
C226 O230 1.260 . S
O227 In221 2.266 . S
O227 C224 1.252 . S
O228 In221 2.326 . S
O228 C224 1.260 . S
O229 In221 2.266 . S
O229 C226 1.252 . S
O230 In221 2.326 . S
O230 C226 1.260 . S
C231 O222 1.240 . S
C231 O223 1.252 . S
O232 In221 2.294 . S
O232 C225 1.240 . S
O233 In221 2.326 . S
O233 C225 1.252 . S
In234 O235 2.294 . S
In234 O236 2.326 . S
In234 O240 2.266 . S
In234 O241 2.326 1_545 S
In234 O242 2.266 1_544 S
In234 O243 2.326 1_554 S
In234 O245 2.294 1_545 S
In234 O246 2.326 . S
O235 In234 2.294 . S
O235 C244 1.240 . S
O236 In234 2.326 . S
O236 C244 1.252 . S
C237 O240 1.252 . S
C237 O241 1.260 1_545 S
C238 O245 1.240 . S
C238 O246 1.252 1_565 S
C239 O242 1.252 1_545 S
C239 O243 1.260 . S
O240 In234 2.266 . S
O240 C237 1.252 . S
O241 In234 2.326 1_565 S
O241 C237 1.260 1_565 S
O242 In234 2.266 1_566 S
O242 C239 1.252 1_565 S
O243 In234 2.326 1_556 S
O243 C239 1.260 . S
C244 O235 1.240 . S
C244 O236 1.252 . S
O245 In234 2.294 1_565 S
O245 C238 1.240 . S
O246 In234 2.326 . S
O246 C238 1.252 1_545 S
In247 O248 2.294 . S
In247 O249 2.326 . S
In247 O253 2.266 . S
In247 O254 2.326 . S
In247 O255 2.266 . S
In247 O256 2.326 . S
In247 O258 2.294 . S
In247 O259 2.326 . S
O248 In247 2.294 . S
O248 C257 1.240 . S
O249 In247 2.326 . S
O249 C257 1.252 . S
C250 O253 1.252 . S
C250 O254 1.260 . S
C251 O258 1.240 . S
C251 O259 1.252 . S
C252 O255 1.252 . S
C252 O256 1.260 . S
O253 In247 2.266 . S
O253 C250 1.252 . S
O254 In247 2.326 . S
O254 C250 1.260 . S
O255 In247 2.266 . S
O255 C252 1.252 . S
O256 In247 2.326 . S
O256 C252 1.260 . S
C257 O248 1.240 . S
C257 O249 1.252 . S
O258 In247 2.294 . S
O258 C251 1.240 . S
O259 In247 2.326 . S
O259 C251 1.252 . S
In260 O261 2.294 1_544 S
In260 O262 2.326 1_554 S
In260 O266 2.266 1_545 S
In260 O267 2.326 . S
In260 O268 2.266 . S
In260 O269 2.326 1_545 S
In260 O271 2.294 . S
In260 O272 2.326 . S
O261 In260 2.294 1_566 S
O261 C270 1.240 . S
O262 In260 2.326 1_556 S
O262 C270 1.252 1_545 S
C263 O266 1.252 1_545 S
C263 O267 1.260 . S
C264 O271 1.240 . S
C264 O272 1.252 . S
C265 O268 1.252 . S
C265 O269 1.260 1_545 S
O266 In260 2.266 1_565 S
O266 C263 1.252 1_565 S
O267 In260 2.326 . S
O267 C263 1.260 . S
O268 In260 2.266 . S
O268 C265 1.252 . S
O269 In260 2.326 1_565 S
O269 C265 1.260 1_565 S
C270 O261 1.240 . S
C270 O262 1.252 1_565 S
O271 In260 2.294 . S
O271 C264 1.240 . S
O272 In260 2.326 . S
O272 C264 1.252 . S
In273 O274 2.294 . S
In273 O275 2.326 . S
In273 O279 2.266 . S
In273 O280 2.326 . S
In273 O281 2.266 . S
In273 O282 2.326 . S
In273 O284 2.294 . S
In273 O285 2.326 . S
O274 In273 2.294 . S
O274 C283 1.240 . S
O275 In273 2.326 . S
O275 C283 1.252 . S
C276 O279 1.252 . S
C276 O280 1.260 . S
C277 O284 1.240 . S
C277 O285 1.252 . S
C278 O281 1.252 . S
C278 O282 1.260 . S
O279 In273 2.266 . S
O279 C276 1.252 . S
O280 In273 2.326 . S
O280 C276 1.260 . S
O281 In273 2.266 . S
O281 C278 1.252 . S
O282 In273 2.326 . S
O282 C278 1.260 . S
C283 O274 1.240 . S
C283 O275 1.252 . S
O284 In273 2.294 . S
O284 C277 1.240 . S
O285 In273 2.326 . S
O285 C277 1.252 . S
In286 O287 2.294 . S
In286 O288 2.326 . S
In286 O292 2.266 . S
In286 O293 2.326 1_565 S
In286 O294 2.266 1_565 S
In286 O295 2.326 . S
In286 O297 2.294 1_565 S
In286 O298 2.326 . S
O287 In286 2.294 . S
O287 C296 1.240 . S
O288 In286 2.326 . S
O288 C296 1.252 . S
C289 O292 1.252 . S
C289 O293 1.260 1_565 S
C290 O297 1.240 . S
C290 O298 1.252 1_545 S
C291 O294 1.252 1_565 S
C291 O295 1.260 . S
O292 In286 2.266 . S
O292 C289 1.252 . S
O293 In286 2.326 1_545 S
O293 C289 1.260 1_545 S
O294 In286 2.266 1_545 S
O294 C291 1.252 1_545 S
O295 In286 2.326 . S
O295 C291 1.260 . S
C296 O287 1.240 . S
C296 O288 1.252 . S
O297 In286 2.294 1_545 S
O297 C290 1.240 . S
O298 In286 2.326 . S
O298 C290 1.252 1_565 S
In299 O300 2.294 . S
In299 O301 2.326 . S
In299 O305 2.266 . S
In299 O306 2.326 . S
In299 O307 2.266 . S
In299 O308 2.326 . S
In299 O310 2.294 . S
In299 O311 2.326 . S
O300 In299 2.294 . S
O300 C309 1.240 . S
O301 In299 2.326 . S
O301 C309 1.252 . S
C302 O305 1.252 . S
C302 O306 1.260 . S
C303 O310 1.240 . S
C303 O311 1.252 . S
C304 O307 1.252 . S
C304 O308 1.260 . S
O305 In299 2.266 . S
O305 C302 1.252 . S
O306 In299 2.326 . S
O306 C302 1.260 . S
O307 In299 2.266 . S
O307 C304 1.252 . S
O308 In299 2.326 . S
O308 C304 1.260 . S
C309 O300 1.240 . S
C309 O301 1.252 . S
O310 In299 2.294 . S
O310 C303 1.240 . S
O311 In299 2.326 . S
O311 C303 1.252 . S
In312 O313 2.294 . S
In312 O314 2.326 . S
In312 O318 2.266 . S
In312 O319 2.326 1_545 S
In312 O320 2.266 1_545 S
In312 O321 2.326 . S
In312 O323 2.294 1_545 S
In312 O324 2.326 . S
O313 In312 2.294 . S
O313 C322 1.240 . S
O314 In312 2.326 . S
O314 C322 1.252 . S
C315 O318 1.252 . S
C315 O319 1.260 1_545 S
C316 O323 1.240 . S
C316 O324 1.252 1_565 S
C317 O320 1.252 1_545 S
C317 O321 1.260 . S
O318 In312 2.266 . S
O318 C315 1.252 . S
O319 In312 2.326 1_565 S
O319 C315 1.260 1_565 S
O320 In312 2.266 1_565 S
O320 C317 1.252 1_565 S
O321 In312 2.326 . S
O321 C317 1.260 . S
C322 O313 1.240 . S
C322 O314 1.252 . S
O323 In312 2.294 1_565 S
O323 C316 1.240 . S
O324 In312 2.326 . S
O324 C316 1.252 1_545 S
In325 O326 2.294 . S
In325 O327 2.326 . S
In325 O331 2.266 . S
In325 O332 2.326 . S
In325 O333 2.266 . S
In325 O334 2.326 . S
In325 O336 2.294 . S
In325 O337 2.326 . S
O326 In325 2.294 . S
O326 C335 1.240 . S
O327 In325 2.326 . S
O327 C335 1.252 . S
C328 O331 1.252 . S
C328 O332 1.260 . S
C329 O336 1.240 . S
C329 O337 1.252 . S
C330 O333 1.252 . S
C330 O334 1.260 . S
O331 In325 2.266 . S
O331 C328 1.252 . S
O332 In325 2.326 . S
O332 C328 1.260 . S
O333 In325 2.266 . S
O333 C330 1.252 . S
O334 In325 2.326 . S
O334 C330 1.260 . S
C335 O326 1.240 . S
C335 O327 1.252 . S
O336 In325 2.294 . S
O336 C329 1.240 . S
O337 In325 2.326 . S
O337 C329 1.252 . S
In338 O339 2.294 1_564 S
In338 O340 2.326 1_554 S
In338 O344 2.266 1_565 S
In338 O345 2.326 . S
In338 O346 2.266 . S
In338 O347 2.326 1_565 S
In338 O349 2.294 . S
In338 O350 2.326 . S
O339 In338 2.294 1_546 S
O339 C348 1.240 . S
O340 In338 2.326 1_556 S
O340 C348 1.252 1_565 S
C341 O344 1.252 1_565 S
C341 O345 1.260 . S
C342 O349 1.240 . S
C342 O350 1.252 . S
C343 O346 1.252 . S
C343 O347 1.260 1_565 S
O344 In338 2.266 1_545 S
O344 C341 1.252 1_545 S
O345 In338 2.326 . S
O345 C341 1.260 . S
O346 In338 2.266 . S
O346 C343 1.252 . S
O347 In338 2.326 1_545 S
O347 C343 1.260 1_545 S
C348 O339 1.240 . S
C348 O340 1.252 1_545 S
O349 In338 2.294 . S
O349 C342 1.240 . S
O350 In338 2.326 . S
O350 C342 1.252 . S
In351 O352 2.294 . S
In351 O353 2.326 . S
In351 O357 2.266 . S
In351 O358 2.326 . S
In351 O359 2.266 . S
In351 O360 2.326 . S
In351 O362 2.294 . S
In351 O363 2.326 . S
O352 In351 2.294 . S
O352 C361 1.240 . S
O353 In351 2.326 . S
O353 C361 1.252 . S
C354 O357 1.252 . S
C354 O358 1.260 . S
C355 O362 1.240 . S
C355 O363 1.252 . S
C356 O359 1.252 . S
C356 O360 1.260 . S
O357 In351 2.266 . S
O357 C354 1.252 . S
O358 In351 2.326 . S
O358 C354 1.260 . S
O359 In351 2.266 . S
O359 C356 1.252 . S
O360 In351 2.326 . S
O360 C356 1.260 . S
C361 O352 1.240 . S
C361 O353 1.252 . S
O362 In351 2.294 . S
O362 C355 1.240 . S
O363 In351 2.326 . S
O363 C355 1.252 . S
In364 O365 2.294 . S
In364 O366 2.326 . S
In364 O370 2.266 . S
In364 O371 2.326 1_565 S
In364 O372 2.266 1_564 S
In364 O373 2.326 1_554 S
In364 O375 2.294 1_565 S
In364 O376 2.326 . S
O365 In364 2.294 . S
O365 C374 1.240 . S
O366 In364 2.326 . S
O366 C374 1.252 . S
C367 O370 1.252 . S
C367 O371 1.260 1_565 S
C368 O375 1.240 . S
C368 O376 1.252 1_545 S
C369 O372 1.252 1_565 S
C369 O373 1.260 . S
O370 In364 2.266 . S
O370 C367 1.252 . S
O371 In364 2.326 1_545 S
O371 C367 1.260 1_545 S
O372 In364 2.266 1_546 S
O372 C369 1.252 1_545 S
O373 In364 2.326 1_556 S
O373 C369 1.260 . S
C374 O365 1.240 . S
C374 O366 1.252 . S
O375 In364 2.294 1_545 S
O375 C368 1.240 . S
O376 In364 2.326 . S
O376 C368 1.252 1_565 S
In377 O378 2.294 . S
In377 O379 2.326 . S
In377 O383 2.266 . S
In377 O384 2.326 . S
In377 O385 2.266 . S
In377 O386 2.326 . S
In377 O388 2.294 . S
In377 O389 2.326 . S
O378 In377 2.294 . S
O378 C387 1.240 . S
O379 In377 2.326 . S
O379 C387 1.252 . S
C380 O383 1.252 . S
C380 O384 1.260 . S
C381 O388 1.240 . S
C381 O389 1.252 . S
C382 O385 1.252 . S
C382 O386 1.260 . S
O383 In377 2.266 . S
O383 C380 1.252 . S
O384 In377 2.326 . S
O384 C380 1.260 . S
O385 In377 2.266 . S
O385 C382 1.252 . S
O386 In377 2.326 . S
O386 C382 1.260 . S
C387 O378 1.240 . S
C387 O379 1.252 . S
O388 In377 2.294 . S
O388 C381 1.240 . S
O389 In377 2.326 . S
O389 C381 1.252 . S
In390 O391 2.294 . S
In390 O392 2.326 . S
In390 O396 2.266 . S
In390 O397 2.326 1_545 S
In390 O398 2.266 1_545 S
In390 O399 2.326 . S
In390 O401 2.294 1_545 S
In390 O402 2.326 . S
O391 In390 2.294 . S
O391 C400 1.240 . S
O392 In390 2.326 . S
O392 C400 1.252 . S
C393 O396 1.252 . S
C393 O397 1.260 1_545 S
C394 O401 1.240 . S
C394 O402 1.252 1_565 S
C395 O398 1.252 1_545 S
C395 O399 1.260 . S
O396 In390 2.266 . S
O396 C393 1.252 . S
O397 In390 2.326 1_565 S
O397 C393 1.260 1_565 S
O398 In390 2.266 1_565 S
O398 C395 1.252 1_565 S
O399 In390 2.326 . S
O399 C395 1.260 . S
C400 O391 1.240 . S
C400 O392 1.252 . S
O401 In390 2.294 1_565 S
O401 C394 1.240 . S
O402 In390 2.326 . S
O402 C394 1.252 1_545 S
In403 O404 2.294 . S
In403 O405 2.326 . S
In403 O409 2.266 . S
In403 O410 2.326 . S
In403 O411 2.266 . S
In403 O412 2.326 . S
In403 O414 2.294 . S
In403 O415 2.326 . S
O404 In403 2.294 . S
O404 C413 1.240 . S
O405 In403 2.326 . S
O405 C413 1.252 . S
C406 O409 1.252 . S
C406 O410 1.260 . S
C407 O414 1.240 . S
C407 O415 1.252 . S
C408 O411 1.252 . S
C408 O412 1.260 . S
O409 In403 2.266 . S
O409 C406 1.252 . S
O410 In403 2.326 . S
O410 C406 1.260 . S
O411 In403 2.266 . S
O411 C408 1.252 . S
O412 In403 2.326 . S
O412 C408 1.260 . S
C413 O404 1.240 . S
C413 O405 1.252 . S
O414 In403 2.294 . S
O414 C407 1.240 . S
O415 In403 2.326 . S
O415 C407 1.252 . S
C416 C417 1.387 . S
C416 H420 0.950 . S
C416 C425 1.390 1_655 S
C417 C416 1.387 . S
C417 C419 1.387 . S
H418 C425 0.950 . S
C419 C417 1.387 . S
C419 C421 1.390 1_654 S
C419 H423 0.950 1_554 S
H420 C416 0.950 . S
C421 C419 1.390 1_456 S
C421 C422 1.387 1_556 S
C421 H424 0.950 . S
C422 C421 1.387 1_554 S
C422 C425 1.387 . S
H423 C419 0.950 1_556 S
H424 C421 0.950 . S
C425 C416 1.390 1_455 S
C425 H418 0.950 . S
C425 C422 1.387 . S
C426 C427 1.387 . S
C426 H430 0.950 . S
C426 C435 1.390 . S
C427 C426 1.387 . S
C427 C429 1.387 . S
H428 C435 0.950 . S
C429 C427 1.387 . S
C429 C431 1.390 . S
C429 H433 0.950 . S
H430 C426 0.950 . S
C431 C429 1.390 . S
C431 C432 1.387 . S
C431 H434 0.950 . S
C432 C431 1.387 . S
C432 C435 1.387 . S
H433 C429 0.950 . S
H434 C431 0.950 . S
C435 C426 1.390 . S
C435 H428 0.950 . S
C435 C432 1.387 . S
C436 C437 1.387 . S
C436 H440 0.950 . S
C436 C445 1.390 . S
C437 C436 1.387 . S
C437 C439 1.387 . S
H438 C445 0.950 . S
C439 C437 1.387 . S
C439 C441 1.390 . S
C439 H443 0.950 . S
H440 C436 0.950 . S
C441 C439 1.390 . S
C441 C442 1.387 . S
C441 H444 0.950 . S
C442 C441 1.387 . S
C442 C445 1.387 . S
H443 C439 0.950 . S
H444 C441 0.950 . S
C445 C436 1.390 . S
C445 H438 0.950 . S
C445 C442 1.387 . S
C446 C447 1.387 . S
C446 H450 0.950 . S
C446 C455 1.390 . S
C447 C446 1.387 . S
C447 C449 1.387 . S
H448 C455 0.950 . S
C449 C447 1.387 . S
C449 C451 1.390 . S
C449 H453 0.950 . S
H450 C446 0.950 . S
C451 C449 1.390 . S
C451 C452 1.387 . S
C451 H454 0.950 . S
C452 C451 1.387 . S
C452 C455 1.387 . S
H453 C449 0.950 . S
H454 C451 0.950 . S
C455 C446 1.390 . S
C455 H448 0.950 . S
C455 C452 1.387 . S
C456 C457 1.387 . S
C456 H460 0.950 . S
C456 C465 1.390 1_455 S
C457 C456 1.387 . S
C457 C459 1.387 . S
H458 C465 0.950 . S
C459 C457 1.387 . S
C459 C461 1.390 1_455 S
C459 H463 0.950 . S
H460 C456 0.950 . S
C461 C459 1.390 1_655 S
C461 C462 1.387 . S
C461 H464 0.950 . S
C462 C461 1.387 . S
C462 C465 1.387 . S
H463 C459 0.950 . S
H464 C461 0.950 . S
C465 C456 1.390 1_655 S
C465 H458 0.950 . S
C465 C462 1.387 . S
C466 C467 1.387 . S
C466 H470 0.950 . S
C466 C475 1.390 . S
C467 C466 1.387 . S
C467 C469 1.387 . S
H468 C475 0.950 . S
C469 C467 1.387 . S
C469 C471 1.390 . S
C469 H473 0.950 . S
H470 C466 0.950 . S
C471 C469 1.390 . S
C471 C472 1.387 . S
C471 H474 0.950 . S
C472 C471 1.387 . S
C472 C475 1.387 . S
H473 C469 0.950 . S
H474 C471 0.950 . S
C475 C466 1.390 . S
C475 H468 0.950 . S
C475 C472 1.387 . S
C476 C477 1.387 . S
C476 H480 0.950 1_554 S
C476 C485 1.390 . S
C477 C476 1.387 . S
C477 C479 1.387 . S
H478 C485 0.950 . S
C479 C477 1.387 . S
C479 C481 1.390 . S
C479 H483 0.950 . S
H480 C476 0.950 1_556 S
C481 C479 1.390 . S
C481 C482 1.387 . S
C481 H484 0.950 . S
C482 C481 1.387 . S
C482 C485 1.387 . S
H483 C479 0.950 . S
H484 C481 0.950 . S
C485 C476 1.390 . S
C485 H478 0.950 . S
C485 C482 1.387 . S
C486 C487 1.387 . S
C486 H490 0.950 . S
C486 C495 1.390 . S
C487 C486 1.387 . S
C487 C489 1.387 . S
H488 C495 0.950 . S
C489 C487 1.387 . S
C489 C491 1.390 . S
C489 H493 0.950 . S
H490 C486 0.950 . S
C491 C489 1.390 . S
C491 C492 1.387 . S
C491 H494 0.950 . S
C492 C491 1.387 . S
C492 C495 1.387 . S
H493 C489 0.950 . S
H494 C491 0.950 . S
C495 C486 1.390 . S
C495 H488 0.950 . S
C495 C492 1.387 . S
C496 C497 1.387 . S
C496 H500 0.950 . S
C496 C505 1.390 . S
C497 C496 1.387 . S
C497 C499 1.387 . S
H498 C505 0.950 . S
C499 C497 1.387 . S
C499 C501 1.390 . S
C499 H503 0.950 . S
H500 C496 0.950 . S
C501 C499 1.390 . S
C501 C502 1.387 . S
C501 H504 0.950 . S
C502 C501 1.387 . S
C502 C505 1.387 . S
H503 C499 0.950 . S
H504 C501 0.950 . S
C505 C496 1.390 . S
C505 H498 0.950 . S
C505 C502 1.387 . S
C506 C507 1.387 . S
C506 H510 0.950 . S
C506 C515 1.390 . S
C507 C506 1.387 . S
C507 C509 1.387 . S
H508 C515 0.950 . S
C509 C507 1.387 . S
C509 C511 1.390 . S
C509 H513 0.950 . S
H510 C506 0.950 . S
C511 C509 1.390 . S
C511 C512 1.387 . S
C511 H514 0.950 . S
C512 C511 1.387 . S
C512 C515 1.387 . S
H513 C509 0.950 . S
H514 C511 0.950 . S
C515 C506 1.390 . S
C515 H508 0.950 . S
C515 C512 1.387 . S
C516 C517 1.387 . S
C516 H520 0.950 . S
C516 C525 1.390 . S
C517 C516 1.387 . S
C517 C519 1.387 . S
H518 C525 0.950 . S
C519 C517 1.387 . S
C519 C521 1.390 . S
C519 H523 0.950 . S
H520 C516 0.950 . S
C521 C519 1.390 . S
C521 C522 1.387 . S
C521 H524 0.950 . S
C522 C521 1.387 . S
C522 C525 1.387 . S
H523 C519 0.950 . S
H524 C521 0.950 . S
C525 C516 1.390 . S
C525 H518 0.950 . S
C525 C522 1.387 . S
C526 C527 1.387 . S
C526 H530 0.950 . S
C526 C535 1.390 . S
C527 C526 1.387 . S
C527 C529 1.387 . S
H528 C535 0.950 . S
C529 C527 1.387 . S
C529 C531 1.390 . S
C529 H533 0.950 . S
H530 C526 0.950 . S
C531 C529 1.390 . S
C531 C532 1.387 . S
C531 H534 0.950 . S
C532 C531 1.387 . S
C532 C535 1.387 . S
H533 C529 0.950 . S
H534 C531 0.950 . S
C535 C526 1.390 . S
C535 H528 0.950 . S
C535 C532 1.387 . S
C536 C537 1.387 . S
C536 H540 0.950 . S
C536 C545 1.390 . S
C537 C536 1.387 . S
C537 C539 1.387 1_545 S
H538 C545 0.950 . S
C539 C537 1.387 1_565 S
C539 C541 1.390 . S
C539 H543 0.950 . S
H540 C536 0.950 . S
C541 C539 1.390 . S
C541 C542 1.387 . S
C541 H544 0.950 . S
C542 C541 1.387 . S
C542 C545 1.387 1_565 S
H543 C539 0.950 . S
H544 C541 0.950 . S
C545 C536 1.390 . S
C545 H538 0.950 . S
C545 C542 1.387 1_545 S
C546 C547 1.396 1_556 S
C546 H550 0.951 . S
C546 C555 1.381 1_646 S
C547 C546 1.396 1_554 S
C547 C549 1.387 . S
H548 C555 0.950 1_556 S
C549 C547 1.387 . S
C549 C551 1.381 1_645 S
C549 H553 0.950 . S
H550 C546 0.951 . S
C551 C549 1.381 1_465 S
C551 C552 1.396 . S
C551 H554 0.951 . S
C552 C551 1.396 . S
C552 C555 1.387 . S
H553 C549 0.950 . S
H554 C551 0.951 . S
C555 C546 1.381 1_464 S
C555 H548 0.950 1_554 S
C555 C552 1.387 . S
C556 C557 1.387 1_565 S
C556 H560 0.950 . S
C556 C565 1.390 . S
C557 C556 1.387 1_545 S
C557 C559 1.387 . S
H558 C565 0.950 . S
C559 C557 1.387 . S
C559 C561 1.390 1_554 S
C559 H563 0.950 1_554 S
H560 C556 0.950 . S
C561 C559 1.390 1_556 S
C561 C562 1.387 1_546 S
C561 H564 0.950 . S
C562 C561 1.387 1_564 S
C562 C565 1.387 . S
H563 C559 0.950 1_556 S
H564 C561 0.950 . S
C565 C556 1.390 . S
C565 H558 0.950 . S
C565 C562 1.387 . S
C566 C567 1.387 . S
C566 H570 0.950 . S
C566 C575 1.391 1_455 S
C567 C566 1.387 . S
C567 C569 1.387 1_545 S
H568 C575 0.950 . S
C569 C567 1.387 1_565 S
C569 C571 1.391 1_455 S
C569 H573 0.950 . S
H570 C566 0.950 . S
C571 C569 1.391 1_655 S
C571 C572 1.387 . S
C571 H574 0.950 . S
C572 C571 1.387 . S
C572 C575 1.387 1_565 S
H573 C569 0.950 . S
H574 C571 0.950 . S
C575 C566 1.391 1_655 S
C575 H568 0.950 . S
C575 C572 1.387 1_545 S
C576 C577 1.387 . S
C576 H580 0.950 . S
C576 C585 1.390 . S
C577 C576 1.387 . S
C577 C579 1.387 . S
H578 C585 0.950 . S
C579 C577 1.387 . S
C579 C581 1.390 . S
C579 H583 0.950 . S
H580 C576 0.950 . S
C581 C579 1.390 . S
C581 C582 1.387 . S
C581 H584 0.950 . S
C582 C581 1.387 . S
C582 C585 1.387 . S
H583 C579 0.950 . S
H584 C581 0.950 . S
C585 C576 1.390 . S
C585 H578 0.950 . S
C585 C582 1.387 . S
C586 C587 1.387 1_554 S
C586 H590 0.950 1_554 S
C586 C595 1.390 . S
C587 C586 1.387 1_556 S
C587 C589 1.387 1_556 S
H588 C595 0.950 . S
C589 C587 1.387 1_554 S
C589 C591 1.390 . S
C589 H593 0.950 1_554 S
H590 C586 0.950 1_556 S
C591 C589 1.390 . S
C591 C592 1.387 . S
C591 H594 0.950 . S
C592 C591 1.387 . S
C592 C595 1.387 . S
H593 C589 0.950 1_556 S
H594 C591 0.950 . S
C595 C586 1.390 . S
C595 H588 0.950 . S
C595 C592 1.387 . S
C596 C597 1.387 . S
C596 H600 0.950 . S
C596 C605 1.390 . S
C597 C596 1.387 . S
C597 C599 1.387 . S
H598 C605 0.950 . S
C599 C597 1.387 . S
C599 C601 1.390 . S
C599 H603 0.950 . S
H600 C596 0.950 . S
C601 C599 1.390 . S
C601 C602 1.387 . S
C601 H604 0.950 . S
C602 C601 1.387 . S
C602 C605 1.387 . S
H603 C599 0.950 . S
H604 C601 0.950 . S
C605 C596 1.390 . S
C605 H598 0.950 . S
C605 C602 1.387 . S
C606 C607 1.387 . S
C606 H610 0.950 . S
C606 C615 1.390 . S
C607 C606 1.387 . S
C607 C609 1.387 . S
H608 C615 0.950 . S
C609 C607 1.387 . S
C609 C611 1.390 . S
C609 H613 0.950 . S
H610 C606 0.950 . S
C611 C609 1.390 . S
C611 C612 1.387 . S
C611 H614 0.950 . S
C612 C611 1.387 . S
C612 C615 1.387 . S
H613 C609 0.950 . S
H614 C611 0.950 . S
C615 C606 1.390 . S
C615 H608 0.950 . S
C615 C612 1.387 . S
C616 C617 1.387 . S
C616 H620 0.950 . S
C616 C625 1.390 . S
C617 C616 1.387 . S
C617 C619 1.387 . S
H618 C625 0.950 . S
C619 C617 1.387 . S
C619 C621 1.390 . S
C619 H623 0.950 . S
H620 C616 0.950 . S
C621 C619 1.390 . S
C621 C622 1.387 . S
C621 H624 0.950 . S
C622 C621 1.387 . S
C622 C625 1.387 . S
H623 C619 0.950 . S
H624 C621 0.950 . S
C625 C616 1.390 . S
C625 H618 0.950 . S
C625 C622 1.387 . S
C626 C627 1.387 1_554 S
C626 H630 0.950 1_554 S
C626 C635 1.390 . S
C627 C626 1.387 1_556 S
C627 C629 1.387 1_556 S
H628 C635 0.950 . S
C629 C627 1.387 1_554 S
C629 C631 1.390 . S
C629 H633 0.950 1_554 S
H630 C626 0.950 1_556 S
C631 C629 1.390 . S
C631 C632 1.387 . S
C631 H634 0.950 . S
C632 C631 1.387 . S
C632 C635 1.387 . S
H633 C629 0.950 1_556 S
H634 C631 0.950 . S
C635 C626 1.390 . S
C635 H628 0.950 . S
C635 C632 1.387 . S
C636 C637 1.387 . S
C636 H640 0.950 . S
C636 C645 1.390 . S
C637 C636 1.387 . S
C637 C639 1.387 . S
H638 C645 0.950 . S
C639 C637 1.387 . S
C639 C641 1.390 . S
C639 H643 0.950 . S
H640 C636 0.950 . S
C641 C639 1.390 . S
C641 C642 1.387 . S
C641 H644 0.950 . S
C642 C641 1.387 . S
C642 C645 1.387 . S
H643 C639 0.950 . S
H644 C641 0.950 . S
C645 C636 1.390 . S
C645 H638 0.950 . S
C645 C642 1.387 . S
C646 C647 1.387 . S
C646 H650 0.950 . S
C646 C655 1.390 . S
C647 C646 1.387 . S
C647 C649 1.387 . S
H648 C655 0.950 . S
C649 C647 1.387 . S
C649 C651 1.390 . S
C649 H653 0.950 . S
H650 C646 0.950 . S
C651 C649 1.390 . S
C651 C652 1.387 . S
C651 H654 0.950 . S
C652 C651 1.387 . S
C652 C655 1.387 . S
H653 C649 0.950 . S
H654 C651 0.950 . S
C655 C646 1.390 . S
C655 H648 0.950 . S
C655 C652 1.387 . S
C656 C657 1.387 . S
C656 H660 0.952 . S
C656 C665 1.389 1_565 S
C657 C656 1.387 . S
C657 C659 1.387 . S
H658 C665 0.950 . S
C659 C657 1.387 . S
C659 C661 1.389 1_565 S
C659 H663 0.950 . S
H660 C656 0.952 . S
C661 C659 1.389 1_545 S
C661 C662 1.387 . S
C661 H664 0.952 . S
C662 C661 1.387 . S
C662 C665 1.387 . S
H663 C659 0.950 . S
H664 C661 0.952 . S
C665 C656 1.389 1_545 S
C665 H658 0.950 . S
C665 C662 1.387 . S
C666 C667 1.387 . S
C666 H670 0.950 . S
C666 C675 1.390 . S
C667 C666 1.387 . S
C667 C669 1.387 . S
H668 C675 0.950 . S
C669 C667 1.387 . S
C669 C671 1.390 . S
C669 H673 0.950 . S
H670 C666 0.950 . S
C671 C669 1.390 . S
C671 C672 1.387 . S
C671 H674 0.950 . S
C672 C671 1.387 . S
C672 C675 1.387 . S
H673 C669 0.950 . S
H674 C671 0.950 . S
C675 C666 1.390 . S
C675 H668 0.950 . S
C675 C672 1.387 . S
C676 C677 1.387 . S
C676 H680 0.950 . S
C676 C685 1.390 1_565 S
C677 C676 1.387 . S
C677 C679 1.387 . S
H678 C685 0.950 . S
C679 C677 1.387 . S
C679 C681 1.390 1_565 S
C679 H683 0.950 . S
H680 C676 0.950 . S
C681 C679 1.390 1_545 S
C681 C682 1.387 . S
C681 H684 0.950 . S
C682 C681 1.387 . S
C682 C685 1.387 . S
H683 C679 0.950 . S
H684 C681 0.950 . S
C685 C676 1.390 1_545 S
C685 H678 0.950 . S
C685 C682 1.387 . S
C686 C687 1.387 1_554 S
C686 H690 0.950 1_554 S
C686 C695 1.390 . S
C687 C686 1.387 1_556 S
C687 C689 1.387 1_556 S
H688 C695 0.950 . S
C689 C687 1.387 1_554 S
C689 C691 1.390 . S
C689 H693 0.950 1_554 S
H690 C686 0.950 1_556 S
C691 C689 1.390 . S
C691 C692 1.387 . S
C691 H694 0.950 . S
C692 C691 1.387 . S
C692 C695 1.387 . S
H693 C689 0.950 1_556 S
H694 C691 0.950 . S
C695 C686 1.390 . S
C695 H688 0.950 . S
C695 C692 1.387 . S
C696 C697 1.387 . S
C696 H700 0.951 . S
C696 C705 1.389 1_545 S
C697 C696 1.387 . S
C697 C699 1.387 . S
H698 C705 0.950 . S
C699 C697 1.387 . S
C699 C701 1.389 1_545 S
C699 H703 0.950 . S
H700 C696 0.951 . S
C701 C699 1.389 1_565 S
C701 C702 1.387 . S
C701 H704 0.949 . S
C702 C701 1.387 . S
C702 C705 1.387 . S
H703 C699 0.950 . S
H704 C701 0.949 . S
C705 C696 1.389 1_565 S
C705 H698 0.950 . S
C705 C702 1.387 . S
C706 C707 1.387 . S
C706 H710 0.950 . S
C706 C715 1.390 . S
C707 C706 1.387 . S
C707 C709 1.387 . S
H708 C715 0.950 . S
C709 C707 1.387 . S
C709 C711 1.390 . S
C709 H713 0.950 . S
H710 C706 0.950 . S
C711 C709 1.390 . S
C711 C712 1.387 . S
C711 H714 0.950 . S
C712 C711 1.387 . S
C712 C715 1.387 . S
H713 C709 0.950 . S
H714 C711 0.950 . S
C715 C706 1.390 . S
C715 H708 0.950 . S
C715 C712 1.387 . S
C716 C717 1.387 . S
C716 H720 0.951 . S
C716 C725 1.390 . S
C717 C716 1.387 . S
C717 C719 1.387 1_565 S
H718 C725 0.950 . S
C719 C717 1.387 1_545 S
C719 C721 1.390 . S
C719 H723 0.950 . S
H720 C716 0.951 . S
C721 C719 1.390 . S
C721 C722 1.387 . S
C721 H724 0.951 . S
C722 C721 1.387 . S
C722 C725 1.387 1_545 S
H723 C719 0.950 . S
H724 C721 0.951 . S
C725 C716 1.390 . S
C725 H718 0.950 . S
C725 C722 1.387 1_565 S
C726 C727 1.387 . S
C726 H730 0.950 . S
C726 C735 1.390 . S
C727 C726 1.387 . S
C727 C729 1.387 . S
H728 C735 0.950 1_556 S
C729 C727 1.387 . S
C729 C731 1.390 . S
C729 H733 0.950 . S
H730 C726 0.950 . S
C731 C729 1.390 . S
C731 C732 1.387 1_554 S
C731 H734 0.950 1_554 S
C732 C731 1.387 1_556 S
C732 C735 1.387 1_556 S
H733 C729 0.950 . S
H734 C731 0.950 1_556 S
C735 C726 1.390 . S
C735 H728 0.950 1_554 S
C735 C732 1.387 1_554 S
C736 C737 1.387 . S
C736 H740 0.950 . S
C736 C745 1.390 . S
C737 C736 1.387 . S
C737 C739 1.387 . S
H738 C745 0.950 . S
C739 C737 1.387 . S
C739 C741 1.390 . S
C739 H743 0.950 . S
H740 C736 0.950 . S
C741 C739 1.390 . S
C741 C742 1.387 . S
C741 H744 0.950 . S
C742 C741 1.387 . S
C742 C745 1.387 . S
H743 C739 0.950 . S
H744 C741 0.950 . S
C745 C736 1.390 . S
C745 H738 0.950 . S
C745 C742 1.387 . S
C746 C747 1.387 . S
C746 H750 0.950 . S
C746 C755 1.390 . S
C747 C746 1.387 . S
C747 C749 1.387 . S
H748 C755 0.950 . S
C749 C747 1.387 . S
C749 C751 1.390 . S
C749 H753 0.950 . S
H750 C746 0.950 . S
C751 C749 1.390 . S
C751 C752 1.387 . S
C751 H754 0.950 . S
C752 C751 1.387 . S
C752 C755 1.387 . S
H753 C749 0.950 . S
H754 C751 0.950 . S
C755 C746 1.390 . S
C755 H748 0.950 . S
C755 C752 1.387 . S
C756 C757 1.387 . S
C756 H760 0.950 . S
C756 C765 1.390 . S
C757 C756 1.387 . S
C757 C759 1.387 . S
H758 C765 0.950 . S
C759 C757 1.387 . S
C759 C761 1.390 . S
C759 H763 0.950 . S
H760 C756 0.950 . S
C761 C759 1.390 . S
C761 C762 1.387 . S
C761 H764 0.950 . S
C762 C761 1.387 . S
C762 C765 1.387 . S
H763 C759 0.950 . S
H764 C761 0.950 . S
C765 C756 1.390 . S
C765 H758 0.950 . S
C765 C762 1.387 . S
C766 C767 1.387 . S
C766 H770 0.950 . S
C766 C775 1.390 . S
C767 C766 1.387 . S
C767 C769 1.387 . S
H768 C775 0.950 . S
C769 C767 1.387 . S
C769 C771 1.390 . S
C769 H773 0.950 . S
H770 C766 0.950 . S
C771 C769 1.390 . S
C771 C772 1.387 1_554 S
C771 H774 0.950 . S
C772 C771 1.387 1_556 S
C772 C775 1.387 1_556 S
H773 C769 0.950 . S
H774 C771 0.950 . S
C775 C766 1.390 . S
C775 H768 0.950 . S
C775 C772 1.387 1_554 S
C776 C777 1.387 . S
C776 H780 0.950 . S
C776 C785 1.390 . S
C777 C776 1.387 . S
C777 C779 1.387 . S
H778 C785 0.950 . S
C779 C777 1.387 . S
C779 C781 1.390 . S
C779 H783 0.950 . S
H780 C776 0.950 . S
C781 C779 1.390 . S
C781 C782 1.387 . S
C781 H784 0.950 . S
C782 C781 1.387 . S
C782 C785 1.387 . S
H783 C779 0.950 . S
H784 C781 0.950 . S
C785 C776 1.390 . S
C785 H778 0.950 . S
C785 C782 1.387 . S
C786 C787 1.387 . S
C786 H790 0.950 . S
C786 C795 1.390 . S
C787 C786 1.387 . S
C787 C789 1.387 . S
H788 C795 0.950 . S
C789 C787 1.387 . S
C789 C791 1.390 . S
C789 H793 0.950 . S
H790 C786 0.950 . S
C791 C789 1.390 . S
C791 C792 1.387 . S
C791 H794 0.950 . S
C792 C791 1.387 . S
C792 C795 1.387 . S
H793 C789 0.950 . S
H794 C791 0.950 . S
C795 C786 1.390 . S
C795 H788 0.950 . S
C795 C792 1.387 . S
C796 C797 1.387 . S
C796 H800 0.950 . S
C796 C805 1.390 . S
C797 C796 1.387 . S
C797 C799 1.387 . S
H798 C805 0.950 . S
C799 C797 1.387 . S
C799 C801 1.390 . S
C799 H803 0.950 . S
H800 C796 0.950 . S
C801 C799 1.390 . S
C801 C802 1.387 . S
C801 H804 0.950 . S
C802 C801 1.387 . S
C802 C805 1.387 . S
H803 C799 0.950 . S
H804 C801 0.950 . S
C805 C796 1.390 . S
C805 H798 0.950 . S
C805 C802 1.387 . S
C806 C807 1.387 1_554 S
C806 H810 0.950 . S
C806 C815 1.390 . S
C807 C806 1.387 1_556 S
C807 C809 1.387 1_556 S
H808 C815 0.950 . S
C809 C807 1.387 1_554 S
C809 C811 1.390 . S
C809 H813 0.950 . S
H810 C806 0.950 . S
C811 C809 1.390 . S
C811 C812 1.387 . S
C811 H814 0.950 . S
C812 C811 1.387 . S
C812 C815 1.387 . S
H813 C809 0.950 . S
H814 C811 0.950 . S
C815 C806 1.390 . S
C815 H808 0.950 . S
C815 C812 1.387 . S
C816 C817 1.387 . S
C816 H820 0.950 . S
C816 C825 1.390 1_545 S
C817 C816 1.387 . S
C817 C819 1.387 . S
H818 C825 0.950 . S
C819 C817 1.387 . S
C819 C821 1.390 1_545 S
C819 H823 0.950 . S
H820 C816 0.950 . S
C821 C819 1.390 1_565 S
C821 C822 1.387 . S
C821 H824 0.950 . S
C822 C821 1.387 . S
C822 C825 1.387 . S
H823 C819 0.950 . S
H824 C821 0.950 . S
C825 C816 1.390 1_565 S
C825 H818 0.950 . S
C825 C822 1.387 . S
C826 C827 1.387 . S
C826 H830 0.950 . S
C826 C835 1.390 . S
C827 C826 1.387 . S
C827 C829 1.387 . S
H828 C835 0.950 . S
C829 C827 1.387 . S
C829 C831 1.390 . S
C829 H833 0.950 . S
H830 C826 0.950 . S
C831 C829 1.390 . S
C831 C832 1.387 1_554 S
C831 H834 0.950 . S
C832 C831 1.387 1_556 S
C832 C835 1.387 1_556 S
H833 C829 0.950 . S
H834 C831 0.950 . S
C835 C826 1.390 . S
C835 H828 0.950 . S
C835 C832 1.387 1_554 S
C836 C837 1.387 . S
C836 H840 0.950 . S
C836 C845 1.390 1_545 S
C837 C836 1.387 . S
C837 C839 1.387 . S
H838 C845 0.950 . S
C839 C837 1.387 . S
C839 C841 1.390 1_545 S
C839 H843 0.950 . S
H840 C836 0.950 . S
C841 C839 1.390 1_565 S
C841 C842 1.387 . S
C841 H844 0.950 . S
C842 C841 1.387 . S
C842 C845 1.387 . S
H843 C839 0.950 . S
H844 C841 0.950 . S
C845 C836 1.390 1_565 S
C845 H838 0.950 . S
C845 C842 1.387 . S
C846 C847 1.387 . S
C846 H850 0.950 . S
C846 C855 1.390 . S
C847 C846 1.387 . S
C847 C849 1.387 . S
H848 C855 0.950 . S
C849 C847 1.387 . S
C849 C851 1.390 . S
C849 H853 0.950 . S
H850 C846 0.950 . S
C851 C849 1.390 . S
C851 C852 1.387 . S
C851 H854 0.950 . S
C852 C851 1.387 . S
C852 C855 1.387 . S
H853 C849 0.950 . S
H854 C851 0.950 . S
C855 C846 1.390 . S
C855 H848 0.950 . S
C855 C852 1.387 . S
C856 C857 1.387 . S
C856 H860 0.950 . S
C856 C865 1.390 1_545 S
C857 C856 1.387 . S
C857 C859 1.387 . S
H858 C865 0.950 . S
C859 C857 1.387 . S
C859 C861 1.390 1_545 S
C859 H863 0.950 . S
H860 C856 0.950 . S
C861 C859 1.390 1_565 S
C861 C862 1.387 . S
C861 H864 0.950 . S
C862 C861 1.387 . S
C862 C865 1.387 . S
H863 C859 0.950 . S
H864 C861 0.950 . S
C865 C856 1.390 1_565 S
C865 H858 0.950 . S
C865 C862 1.387 . S
C866 C867 1.387 . S
C866 H870 0.950 . S
C866 C875 1.390 . S
C867 C866 1.387 . S
C867 C869 1.387 . S
H868 C875 0.950 . S
C869 C867 1.387 . S
C869 C871 1.390 . S
C869 H873 0.950 . S
H870 C866 0.950 . S
C871 C869 1.390 . S
C871 C872 1.387 1_554 S
C871 H874 0.950 . S
C872 C871 1.387 1_556 S
C872 C875 1.387 1_556 S
H873 C869 0.950 . S
H874 C871 0.950 . S
C875 C866 1.390 . S
C875 H868 0.950 . S
C875 C872 1.387 1_554 S
C876 C877 1.387 . S
C876 H880 0.950 . S
C876 C885 1.390 1_545 S
C877 C876 1.387 . S
C877 C879 1.387 . S
H878 C885 0.950 . S
C879 C877 1.387 . S
C879 C881 1.390 1_545 S
C879 H883 0.950 . S
H880 C876 0.950 . S
C881 C879 1.390 1_565 S
C881 C882 1.387 . S
C881 H884 0.950 . S
C882 C881 1.387 . S
C882 C885 1.387 . S
H883 C879 0.950 . S
H884 C881 0.950 . S
C885 C876 1.390 1_565 S
C885 H878 0.950 . S
C885 C882 1.387 . S
C886 C887 1.387 . S
C886 H890 0.950 . S
C886 C895 1.390 . S
C887 C886 1.387 . S
C887 C889 1.387 . S
H888 C895 0.950 . S
C889 C887 1.387 . S
C889 C891 1.390 . S
C889 H893 0.950 . S
H890 C886 0.950 . S
C891 C889 1.390 . S
C891 C892 1.387 . S
C891 H894 0.950 . S
C892 C891 1.387 . S
C892 C895 1.387 . S
H893 C889 0.950 . S
H894 C891 0.950 . S
C895 C886 1.390 . S
C895 H888 0.950 . S
C895 C892 1.387 . S
C896 C897 1.387 . S
C896 H900 0.950 . S
C896 C905 1.390 . S
C897 C896 1.387 . S
C897 C899 1.387 . S
H898 C905 0.950 . S
C899 C897 1.387 . S
C899 C901 1.390 . S
C899 H903 0.950 . S
H900 C896 0.950 . S
C901 C899 1.390 . S
C901 C902 1.387 . S
C901 H904 0.950 . S
C902 C901 1.387 . S
C902 C905 1.387 . S
H903 C899 0.950 . S
H904 C901 0.950 . S
C905 C896 1.390 . S
C905 H898 0.950 . S
C905 C902 1.387 . S
C906 C907 1.387 . S
C906 H910 0.950 . S
C906 C915 1.390 . S
C907 C906 1.387 . S
C907 C909 1.387 . S
H908 C915 0.950 . S
C909 C907 1.387 . S
C909 C911 1.390 . S
C909 H913 0.950 . S
H910 C906 0.950 . S
C911 C909 1.390 . S
C911 C912 1.387 . S
C911 H914 0.950 . S
C912 C911 1.387 . S
C912 C915 1.387 . S
H913 C909 0.950 . S
H914 C911 0.950 . S
C915 C906 1.390 . S
C915 H908 0.950 . S
C915 C912 1.387 . S
C916 C917 1.387 . S
C916 H920 0.950 . S
C916 C925 1.390 . S
C917 C916 1.387 . S
C917 C919 1.387 . S
H918 C925 0.950 . S
C919 C917 1.387 . S
C919 C921 1.390 . S
C919 H923 0.950 . S
H920 C916 0.950 . S
C921 C919 1.390 . S
C921 C922 1.387 . S
C921 H924 0.950 . S
C922 C921 1.387 . S
C922 C925 1.387 . S
H923 C919 0.950 . S
H924 C921 0.950 . S
C925 C916 1.390 . S
C925 H918 0.950 . S
C925 C922 1.387 . S
C926 C927 1.387 . S
C926 H930 0.950 . S
C926 C935 1.390 . S
C927 C926 1.387 . S
C927 C929 1.387 . S
H928 C935 0.950 1_554 S
C929 C927 1.387 . S
C929 C931 1.390 . S
C929 H933 0.950 . S
H930 C926 0.950 . S
C931 C929 1.390 . S
C931 C932 1.387 . S
C931 H934 0.950 . S
C932 C931 1.387 . S
C932 C935 1.387 . S
H933 C929 0.950 . S
H934 C931 0.950 . S
C935 C926 1.390 . S
C935 H928 0.950 1_556 S
C935 C932 1.387 . S
C936 C937 1.387 . S
C936 H940 0.950 . S
C936 C945 1.390 . S
C937 C936 1.387 . S
C937 C939 1.387 . S
H938 C945 0.950 . S
C939 C937 1.387 . S
C939 C941 1.390 . S
C939 H943 0.950 . S
H940 C936 0.950 . S
C941 C939 1.390 . S
C941 C942 1.387 . S
C941 H944 0.950 . S
C942 C941 1.387 . S
C942 C945 1.387 . S
H943 C939 0.950 . S
H944 C941 0.950 . S
C945 C936 1.390 . S
C945 H938 0.950 . S
C945 C942 1.387 . S
C946 C947 1.387 . S
C946 H950 0.950 . S
C946 C955 1.390 . S
C947 C946 1.387 . S
C947 C949 1.387 . S
H948 C955 0.950 . S
C949 C947 1.387 . S
C949 C951 1.390 . S
C949 H953 0.950 . S
H950 C946 0.950 . S
C951 C949 1.390 . S
C951 C952 1.387 . S
C951 H954 0.950 . S
C952 C951 1.387 . S
C952 C955 1.387 . S
H953 C949 0.950 . S
H954 C951 0.950 . S
C955 C946 1.390 . S
C955 H948 0.950 . S
C955 C952 1.387 . S
C956 C957 1.387 . S
C956 H960 0.950 . S
C956 C965 1.390 . S
C957 C956 1.387 . S
C957 C959 1.387 . S
H958 C965 0.950 . S
C959 C957 1.387 . S
C959 C961 1.390 . S
C959 H963 0.950 . S
H960 C956 0.950 . S
C961 C959 1.390 . S
C961 C962 1.387 . S
C961 H964 0.950 1_556 S
C962 C961 1.387 . S
C962 C965 1.387 . S
H963 C959 0.950 . S
H964 C961 0.950 1_554 S
C965 C956 1.390 . S
C965 H958 0.950 . S
C965 C962 1.387 . S
C966 C967 1.387 . S
C966 H970 0.950 . S
C966 C975 1.390 . S
C967 C966 1.387 . S
C967 C969 1.387 . S
H968 C975 0.950 . S
C969 C967 1.387 . S
C969 C971 1.390 . S
C969 H973 0.950 . S
H970 C966 0.950 . S
C971 C969 1.390 . S
C971 C972 1.387 . S
C971 H974 0.950 . S
C972 C971 1.387 . S
C972 C975 1.387 . S
H973 C969 0.950 . S
H974 C971 0.950 . S
C975 C966 1.390 . S
C975 H968 0.950 . S
C975 C972 1.387 . S
C976 C977 1.387 . S
C976 H980 0.950 1_556 S
C976 C985 1.390 . S
C977 C976 1.387 . S
C977 C979 1.387 . S
H978 C985 0.950 . S
C979 C977 1.387 . S
C979 C981 1.390 . S
C979 H983 0.950 . S
H980 C976 0.950 1_554 S
C981 C979 1.390 . S
C981 C982 1.387 . S
C981 H984 0.950 . S
C982 C981 1.387 . S
C982 C985 1.387 . S
H983 C979 0.950 . S
H984 C981 0.950 . S
C985 C976 1.390 . S
C985 H978 0.950 . S
C985 C982 1.387 . S
C986 C987 1.387 . S
C986 H990 0.950 . S
C986 C995 1.390 . S
C987 C986 1.387 . S
C987 C989 1.387 . S
H988 C995 0.950 . S
C989 C987 1.387 . S
C989 C991 1.390 . S
C989 H993 0.950 . S
H990 C986 0.950 . S
C991 C989 1.390 . S
C991 C992 1.387 . S
C991 H994 0.950 . S
C992 C991 1.387 . S
C992 C995 1.387 . S
H993 C989 0.950 . S
H994 C991 0.950 . S
C995 C986 1.390 . S
C995 H988 0.950 . S
C995 C992 1.387 . S
C996 C997 1.387 . S
C996 H1000 0.950 . S
C996 C1005 1.390 . S
C997 C996 1.387 . S
C997 C999 1.387 . S
H998 C1005 0.950 . S
C999 C997 1.387 . S
C999 C1001 1.390 . S
C999 H1003 0.950 . S
H1000 C996 0.950 . S
C1001 C999 1.390 . S
C1001 C1002 1.387 . S
C1001 H1004 0.950 . S
C1002 C1001 1.387 . S
C1002 C1005 1.387 . S
H1003 C999 0.950 . S
H1004 C1001 0.950 . S
C1005 C996 1.390 . S
C1005 H998 0.950 . S
C1005 C1002 1.387 . S
C1006 C1007 1.387 . S
C1006 H1010 0.950 . S
C1006 C1015 1.390 . S
C1007 C1006 1.387 . S
C1007 C1009 1.387 . S
H1008 C1015 0.950 . S
C1009 C1007 1.387 . S
C1009 C1011 1.390 . S
C1009 H1013 0.950 . S
H1010 C1006 0.950 . S
C1011 C1009 1.390 . S
C1011 C1012 1.387 . S
C1011 H1014 0.950 . S
C1012 C1011 1.387 . S
C1012 C1015 1.387 . S
H1013 C1009 0.950 . S
H1014 C1011 0.950 . S
C1015 C1006 1.390 . S
C1015 H1008 0.950 . S
C1015 C1012 1.387 . S
C1016 C1017 1.387 . S
C1016 H1020 0.950 . S
C1016 C1025 1.390 . S
C1017 C1016 1.387 . S
C1017 C1019 1.387 . S
H1018 C1025 0.950 . S
C1019 C1017 1.387 . S
C1019 C1021 1.390 . S
C1019 H1023 0.950 . S
H1020 C1016 0.950 . S
C1021 C1019 1.390 . S
C1021 C1022 1.387 . S
C1021 H1024 0.950 . S
C1022 C1021 1.387 . S
C1022 C1025 1.387 . S
H1023 C1019 0.950 . S
H1024 C1021 0.950 . S
C1025 C1016 1.390 . S
C1025 H1018 0.950 . S
C1025 C1022 1.387 . S
C1026 C1027 1.387 . S
C1026 H1030 0.950 . S
C1026 C1035 1.390 . S
C1027 C1026 1.387 . S
C1027 C1029 1.387 . S
H1028 C1035 0.950 . S
C1029 C1027 1.387 . S
C1029 C1031 1.390 . S
C1029 H1033 0.950 . S
H1030 C1026 0.950 . S
C1031 C1029 1.390 . S
C1031 C1032 1.387 . S
C1031 H1034 0.950 . S
C1032 C1031 1.387 . S
C1032 C1035 1.387 . S
H1033 C1029 0.950 . S
H1034 C1031 0.950 . S
C1035 C1026 1.390 . S
C1035 H1028 0.950 . S
C1035 C1032 1.387 . S
C1036 C1037 1.387 . S
C1036 H1040 0.950 . S
C1036 C1045 1.390 . S
C1037 C1036 1.387 . S
C1037 C1039 1.387 . S
H1038 C1045 0.950 . S
C1039 C1037 1.387 . S
C1039 C1041 1.390 . S
C1039 H1043 0.950 . S
H1040 C1036 0.950 . S
C1041 C1039 1.390 . S
C1041 C1042 1.387 . S
C1041 H1044 0.950 . S
C1042 C1041 1.387 . S
C1042 C1045 1.387 . S
H1043 C1039 0.950 . S
H1044 C1041 0.950 . S
C1045 C1036 1.390 . S
C1045 H1038 0.950 . S
C1045 C1042 1.387 . S
C1046 C1047 1.387 . S
C1046 H1050 0.950 . S
C1046 C1055 1.390 . S
C1047 C1046 1.387 . S
C1047 C1049 1.387 . S
H1048 C1055 0.950 . S
C1049 C1047 1.387 . S
C1049 C1051 1.390 . S
C1049 H1053 0.950 . S
H1050 C1046 0.950 . S
C1051 C1049 1.390 . S
C1051 C1052 1.387 . S
C1051 H1054 0.950 1_556 S
C1052 C1051 1.387 . S
C1052 C1055 1.387 . S
H1053 C1049 0.950 . S
H1054 C1051 0.950 1_554 S
C1055 C1046 1.390 . S
C1055 H1048 0.950 . S
C1055 C1052 1.387 . S
C417 C109 1.527 . S
C422 C3 1.527 . S
C427 C18 1.527 . S
C432 C328 1.527 . S
C437 C31 1.527 . S
C442 C135 1.527 . S
C447 C44 1.527 . S
C452 C356 1.527 . S
C457 C55 1.525 . S
C462 C159 1.525 . S
C467 C382 1.527 . S
C472 C68 1.527 . S
C477 C185 1.526 . S
C482 C81 1.526 . S
C487 C406 1.527 . S
C492 C96 1.527 . S
C497 C224 1.527 . S
C502 C122 1.527 . S
C507 C148 1.527 . S
C512 C252 1.527 . S
C517 C172 1.525 . S
C522 C276 1.525 . S
C527 C302 1.526 . S
C532 C198 1.526 . S
C537 C315 1.525 . S
C542 C211 1.525 . S
C547 C237 1.525 . S
C552 C343 1.525 . S
C557 C265 1.525 . S
C562 C367 1.525 . S
C567 C393 1.525 . S
C572 C289 1.525 . S
C577 C5 1.600 . S
C582 C57 1.600 . S
C587 C70 1.600 . S
C592 C16 1.600 . S
C597 C83 1.602 . S
C602 C29 1.602 . S
C607 C42 1.600 . S
C612 C94 1.600 . S
C617 C107 1.602 . S
C622 C161 1.602 . S
C627 C120 1.602 . S
C632 C174 1.602 . S
C637 C187 1.600 . S
C642 C133 1.600 . S
C647 C200 1.602 . S
C652 C146 1.602 . S
C657 C263 1.597 1_565 S
C662 C213 1.597 1_545 S
C667 C278 1.600 . S
C672 C226 1.600 . S
C677 C239 1.597 1_565 S
C682 C291 1.597 1_545 S
C687 C304 1.602 . S
C692 C250 1.602 . S
C697 C369 1.597 1_545 S
C702 C317 1.597 1_565 S
C707 C330 1.600 . S
C712 C380 1.600 . S
C717 C395 1.597 1_565 S
C722 C341 1.597 1_545 S
C727 C408 1.602 . S
C732 C354 1.602 . S
C737 C56 0.961 . S
C742 C4 0.961 . S
C747 C69 0.961 . S
C752 C23 0.961 . S
C757 C36 0.967 . S
C762 C82 0.967 . S
C767 C101 0.967 . S
C772 C49 0.967 . S
C777 C160 0.961 . S
C782 C114 0.961 . S
C787 C127 0.967 . S
C792 C173 0.967 . S
C797 C186 0.967 . S
C802 C140 0.967 . S
C807 C199 0.967 . S
C812 C153 0.967 . S
C817 C212 0.961 . S
C822 C270 0.961 . S
C827 C277 0.967 . S
C832 C225 0.967 . S
C837 C290 0.967 . S
C842 C238 0.967 . S
C847 C303 0.967 . S
C852 C257 0.967 . S
C857 C368 0.967 . S
C862 C316 0.967 . S
C867 C329 0.967 . S
C872 C387 0.967 . S
C877 C348 0.961 . S
C882 C394 0.961 . S
C887 C361 0.967 . S
C892 C407 0.967 . S
C897 C10 1.534 . S
C902 C283 1.534 . S
C907 C296 1.532 . S
C912 C17 1.533 . S
C917 C30 1.533 . S
C922 C309 1.533 . S
C927 C43 1.533 . S
C932 C264 1.533 1_556 S
C937 C251 1.533 . S
C942 C62 1.533 . S
C947 C218 1.534 . S
C952 C75 1.534 . S
C957 C231 1.532 . S
C962 C88 1.532 1_556 S
C967 C95 1.533 . S
C972 C244 1.533 . S
C977 C108 1.532 1_556 S
C982 C381 1.532 . S
C987 C400 1.532 . S
C992 C121 1.532 . S
C997 C413 1.534 . S
C1002 C134 1.534 . S
C1007 C374 1.532 . S
C1012 C147 1.533 . S
C1017 C355 1.533 . S
C1022 C166 1.534 . S
C1027 C322 1.533 . S
C1032 C179 1.534 . S
C1037 C192 1.532 . S
C1042 C335 1.532 . S
C1047 C205 1.532 . S
C1052 C342 1.532 1_556 S
