# Generated by pormake.
# Topology vbf, (5)-cn, num edge types: 1
# Building blocks:
#     Node 0, Type 0, BuildingBlock: XOMCOT_clean_sbu_0, # of connection points: 5
#     Node 1, Type 0, BuildingBlock: XOMCOT_clean_sbu_0, # of connection points: 5
#     Node 2, Type 0, BuildingBlock: XOMCOT_clean_sbu_0, # of connection points: 5
#     Node 3, Type 0, BuildingBlock: XOMCOT_clean_sbu_0, # of connection points: 5
#     Node 4, Type 0, BuildingBlock: XOMCOT_clean_sbu_0, # of connection points: 5
#     Node 5, Type 0, BuildingBlock: XOMCOT_clean_sbu_0, # of connection points: 5
#     Node 6, Type 0, BuildingBlock: XOMCOT_clean_sbu_0, # of connection points: 5
#     Node 7, Type 0, BuildingBlock: XOMCOT_clean_sbu_0, # of connection points: 5
#     Node 8, Type 0, BuildingBlock: XOMCOT_clean_sbu_0, # of connection points: 5
#     Node 9, Type 0, BuildingBlock: XOMCOT_clean_sbu_0, # of connection points: 5
#     Node 10, Type 0, BuildingBlock: XOMCOT_clean_sbu_0, # of connection points: 5
#     Node 11, Type 0, BuildingBlock: XOMCOT_clean_sbu_0, # of connection points: 5
#     Node 12, Type 0, BuildingBlock: XOMCOT_clean_sbu_0, # of connection points: 5
#     Node 13, Type 0, BuildingBlock: XOMCOT_clean_sbu_0, # of connection points: 5
#     Node 14, Type 0, BuildingBlock: XOMCOT_clean_sbu_0, # of connection points: 5
#     Node 15, Type 0, BuildingBlock: XOMCOT_clean_sbu_0, # of connection points: 5
#     Edge 16, Type (0, 0), BuildingBlock: AJUNOK_clean_linker_0, # of connection points: 2
#     Edge 17, Type (0, 0), BuildingBlock: AJUNOK_clean_linker_0, # of connection points: 2
#     Edge 18, Type (0, 0), BuildingBlock: AJUNOK_clean_linker_0, # of connection points: 2
#     Edge 19, Type (0, 0), BuildingBlock: AJUNOK_clean_linker_0, # of connection points: 2
#     Edge 20, Type (0, 0), BuildingBlock: AJUNOK_clean_linker_0, # of connection points: 2
#     Edge 21, Type (0, 0), BuildingBlock: AJUNOK_clean_linker_0, # of connection points: 2
#     Edge 22, Type (0, 0), BuildingBlock: AJUNOK_clean_linker_0, # of connection points: 2
#     Edge 23, Type (0, 0), BuildingBlock: AJUNOK_clean_linker_0, # of connection points: 2
#     Edge 24, Type (0, 0), BuildingBlock: AJUNOK_clean_linker_0, # of connection points: 2
#     Edge 25, Type (0, 0), BuildingBlock: AJUNOK_clean_linker_0, # of connection points: 2
#     Edge 26, Type (0, 0), BuildingBlock: AJUNOK_clean_linker_0, # of connection points: 2
#     Edge 27, Type (0, 0), BuildingBlock: AJUNOK_clean_linker_0, # of connection points: 2
#     Edge 28, Type (0, 0), BuildingBlock: AJUNOK_clean_linker_0, # of connection points: 2
#     Edge 29, Type (0, 0), BuildingBlock: AJUNOK_clean_linker_0, # of connection points: 2
#     Edge 30, Type (0, 0), BuildingBlock: AJUNOK_clean_linker_0, # of connection points: 2
#     Edge 31, Type (0, 0), BuildingBlock: AJUNOK_clean_linker_0, # of connection points: 2
#     Edge 32, Type (0, 0), BuildingBlock: AJUNOK_clean_linker_0, # of connection points: 2
#     Edge 33, Type (0, 0), BuildingBlock: AJUNOK_clean_linker_0, # of connection points: 2
#     Edge 34, Type (0, 0), BuildingBlock: AJUNOK_clean_linker_0, # of connection points: 2
#     Edge 35, Type (0, 0), BuildingBlock: AJUNOK_clean_linker_0, # of connection points: 2
#     Edge 36, Type (0, 0), BuildingBlock: AJUNOK_clean_linker_0, # of connection points: 2
#     Edge 37, Type (0, 0), BuildingBlock: AJUNOK_clean_linker_0, # of connection points: 2
#     Edge 38, Type (0, 0), BuildingBlock: AJUNOK_clean_linker_0, # of connection points: 2
#     Edge 39, Type (0, 0), BuildingBlock: AJUNOK_clean_linker_0, # of connection points: 2
#     Edge 40, Type (0, 0), BuildingBlock: AJUNOK_clean_linker_0, # of connection points: 2
#     Edge 41, Type (0, 0), BuildingBlock: AJUNOK_clean_linker_0, # of connection points: 2
#     Edge 42, Type (0, 0), BuildingBlock: AJUNOK_clean_linker_0, # of connection points: 2
#     Edge 43, Type (0, 0), BuildingBlock: AJUNOK_clean_linker_0, # of connection points: 2
#     Edge 44, Type (0, 0), BuildingBlock: AJUNOK_clean_linker_0, # of connection points: 2
#     Edge 45, Type (0, 0), BuildingBlock: AJUNOK_clean_linker_0, # of connection points: 2
#     Edge 46, Type (0, 0), BuildingBlock: AJUNOK_clean_linker_0, # of connection points: 2
#     Edge 47, Type (0, 0), BuildingBlock: AJUNOK_clean_linker_0, # of connection points: 2
#     Edge 48, Type (0, 0), BuildingBlock: AJUNOK_clean_linker_0, # of connection points: 2
#     Edge 49, Type (0, 0), BuildingBlock: AJUNOK_clean_linker_0, # of connection points: 2
#     Edge 50, Type (0, 0), BuildingBlock: AJUNOK_clean_linker_0, # of connection points: 2
#     Edge 51, Type (0, 0), BuildingBlock: AJUNOK_clean_linker_0, # of connection points: 2
#     Edge 52, Type (0, 0), BuildingBlock: AJUNOK_clean_linker_0, # of connection points: 2
#     Edge 53, Type (0, 0), BuildingBlock: AJUNOK_clean_linker_0, # of connection points: 2
#     Edge 54, Type (0, 0), BuildingBlock: AJUNOK_clean_linker_0, # of connection points: 2
#     Edge 55, Type (0, 0), BuildingBlock: AJUNOK_clean_linker_0, # of connection points: 2
# Relax obj value: 0.129
# Max RMSD: 0.206
# Mean RMSD: 0.206
data_MOF--net-vbf--node1-XOMCOT_clean_sbu_0--edge1-AJUNOK_clean_linker_0
_symmetry_space_group_name_H-M    P1
_symmetry_Int_Tables_number       1
_symmetry_cell_setting            triclinic
loop_
_symmetry_equiv_pos_as_xyz
'x, y, z'
_cell_length_a     33.958131
_cell_length_b     56.179896
_cell_length_c     19.172257
_cell_angle_alpha  89.808513
_cell_angle_beta   89.98188
_cell_angle_gamma 89.753897
loop_
_atom_site_label
_atom_site_type_symbol
_atom_site_fract_x
_atom_site_fract_y
_atom_site_fract_z
_atom_type_partial_charge
Co0 Co 0.1064 0.32381 1.01995 0.0
C1 C 0.18634 0.30122 0.99833 0.0
C2 C 0.14057 0.2759 1.01818 0.0
C3 C 0.17527 0.26372 1.0087 0.0
N4 N 0.14723 0.29945 1.01135 0.0
N5 N 0.20407 0.2796 0.99641 0.0
H6 H 0.20176 0.31779 0.99073 0.0
H7 H 0.1123 0.26808 0.03015 0.0
C8 C 0.10669 0.30311 0.16254 0.0
O9 O 0.14466 0.3074 0.16508 0.0
N10 N 0.06477 0.34738 0.03012 0.0
C11 C 0.04341 0.35687 0.97776 0.0
C12 C 1.01138 0.36858 1.00573 0.0
C13 C 0.04572 0.35379 0.08943 0.0
N14 N 1.01254 0.36639 0.07586 0.0
C15 C 0.08619 0.2985 0.89919 0.0
C16 C 1.01361 0.28136 0.94073 0.0
C17 C 0.02831 0.27556 0.87444 0.0
C18 C 0.06493 0.28427 0.85409 0.0
C19 C 0.03618 0.29585 0.98509 0.0
N20 N 0.07209 0.30407 0.96376 0.0
H21 H 0.1147 0.30477 0.8825 0.0
H22 H 0.02481 0.30056 0.03589 0.0
H23 H 0.04938 0.35421 0.92291 0.0
H24 H 0.05459 0.34823 0.14113 0.0
O25 O 0.12844 0.34165 0.94437 0.0
O26 O 0.14555 0.34686 0.05422 0.0
O27 O 0.08723 0.30819 0.10771 0.0
C28 C 0.15001 0.35292 0.98868 0.0
H29 H 0.17935 0.24465 1.01334 0.0
H30 H 0.98811 0.37728 0.9765 0.0
H31 H 0.98505 0.27503 0.9575 0.0
H32 H 0.07702 0.28016 0.80316 0.0
Co33 Co 0.93403 0.70323 0.02618 0.0
C34 C 0.86557 0.73401 0.9797 0.0
C35 C 0.89226 0.74665 0.07341 0.0
C36 C 0.861 0.76115 0.05791 0.0
N37 N 0.89578 0.72956 0.02434 0.0
N38 N 0.8441 0.75328 0.99902 0.0
H39 H 0.85849 0.72318 0.93522 0.0
H40 H 0.91046 0.74853 0.11889 0.0
C41 C 0.98531 0.71798 0.14476 0.0
O42 O 1.01531 0.7149 0.10237 0.0
N43 N 0.97167 0.67642 0.0318 0.0
C44 C 0.98541 0.66269 0.97942 0.0
C45 C 1.01245 0.64668 1.00557 0.0
C46 C 0.98874 0.66699 0.09001 0.0
N47 N 1.01474 0.64943 0.0753 0.0
C48 C 0.98726 0.71732 0.91809 0.0
C49 C 0.99871 0.76361 0.96101 0.0
C50 C 1.01276 0.75657 0.89565 0.0
C51 C 1.00797 0.73296 0.87534 0.0
C52 C 0.97916 0.74708 1.00349 0.0
N53 N 0.9728 0.72421 0.98143 0.0
H54 H 0.98009 0.70032 0.89668 0.0
H55 H 0.96776 0.7532 0.05265 0.0
H56 H 0.9761 0.6636 0.92569 0.0
H57 H 0.98194 0.67235 0.14269 0.0
O58 O 0.91209 0.6908 0.9413 0.0
O59 O 0.89095 0.68075 0.04613 0.0
O60 O 0.95036 0.71337 0.12369 0.0
C61 C 0.88745 0.67867 0.97844 0.0
H62 H 0.84995 0.77547 0.09021 0.0
H63 H 0.02955 0.63421 0.97501 0.0
H64 H 1.00135 0.78193 0.97777 0.0
H65 H 1.01723 0.72713 0.82402 0.0
Co66 Co 0.18022 0.57448 0.27952 0.0
C67 C 0.11539 0.53826 0.24864 0.0
C68 C 0.11333 0.55437 0.34979 0.0
C69 C 0.0835 0.53818 0.34584 0.0
N70 N 0.13417 0.55418 0.28978 0.0
N71 N 0.08502 0.52801 0.28264 0.0
H72 H 0.1226 0.53426 0.19528 0.0
H73 H 0.11968 0.56563 0.394 0.0
C74 C 0.19837 0.54089 0.39468 0.0
O75 O 0.18572 0.52426 0.35227 0.0
N76 N 0.2255 0.59531 0.27601 0.0
C77 C 0.24781 0.60106 0.22054 0.0
C78 C 0.281 0.61272 0.24401 0.0
C79 C 0.2452 0.60367 0.33212 0.0
N80 N 0.27949 0.61425 0.31438 0.0
C81 C 0.19679 0.54428 0.16525 0.0
C82 C 0.26741 0.52506 0.2096 0.0
C83 C 0.25201 0.51821 0.14462 0.0
C84 C 0.21652 0.52834 0.12281 0.0
C85 C 0.24615 0.54126 0.25151 0.0
N86 N 0.21035 0.54996 0.23006 0.0
H87 H 0.17073 0.55249 0.14416 0.0
H88 H 0.25881 0.54709 0.30024 0.0
H89 H 0.24137 0.59613 0.16727 0.0
H90 H 0.23557 0.60088 0.38518 0.0
O91 O 0.15829 0.58894 0.1975 0.0
O92 O 0.14484 0.60154 0.3032 0.0
O93 O 0.19875 0.56266 0.3745 0.0
C94 C 0.13741 0.60274 0.23624 0.0
H95 H 0.06135 0.53474 0.38522 0.0
H96 H 0.30487 0.6191 0.21163 0.0
H97 H 0.29542 0.51811 0.22755 0.0
H98 H 0.20439 0.52447 0.07181 0.0
Co99 Co 0.84439 0.44027 0.26002 0.0
C100 C 0.92346 0.46318 0.23811 0.0
C101 C 0.87692 0.48799 0.26026 0.0
C102 C 0.91092 0.50055 0.25018 0.0
N103 N 0.88449 0.46457 0.25209 0.0
N104 N 0.94007 0.48497 0.23644 0.0
H105 H 0.9396 0.44686 0.22992 0.0
H106 H 0.84852 0.49549 0.27348 0.0
C107 C 0.79517 0.45575 0.38571 0.0
O108 O 0.76453 0.4442 0.36197 0.0
N109 N 0.80378 0.41622 0.2689 0.0
C110 C 0.77535 0.41162 0.22203 0.0
C111 C 0.74964 0.39544 0.25062 0.0
C112 C 0.79582 0.40204 0.32454 0.0
N113 N 0.76222 0.38959 0.3153 0.0
C114 C 0.82669 0.46373 0.13444 0.0
C115 C 0.76011 0.48904 0.17089 0.0
C116 C 0.77608 0.49214 0.10392 0.0
C117 C 0.80987 0.47923 0.08659 0.0
C118 C 0.77828 0.47318 0.21829 0.0
N119 N 0.81129 0.46056 0.19971 0.0
H120 H 0.85384 0.45522 0.11939 0.0
H121 H 0.76592 0.47184 0.26936 0.0
H122 H 0.77248 0.42018 0.17169 0.0
H123 H 0.81266 0.40214 0.37248 0.0
O124 O 0.86738 0.42175 0.18596 0.0
O125 O 0.88395 0.41739 0.29626 0.0
O126 O 0.82726 0.45644 0.35042 0.0
C127 C 0.88887 0.41083 0.23147 0.0
H128 H 0.91443 0.5196 0.25556 0.0
H129 H 0.7225 0.38945 0.22701 0.0
H130 H 0.73394 0.49873 0.18651 0.0
H131 H 0.82407 0.48149 0.03638 0.0
Co132 Co 0.09619 0.82564 0.5234 0.0
C133 C 0.16617 0.79734 0.47205 0.0
C134 C 0.13492 0.77972 0.55425 0.0
C135 C 0.16576 0.76556 0.53491 0.0
N136 N 0.13431 0.79961 0.51443 0.0
N137 N 0.18545 0.77657 0.4835 0.0
H138 H 0.1758 0.81061 0.43491 0.0
H139 H 0.11518 0.77568 0.59641 0.0
C140 C 0.04843 0.80955 0.64644 0.0
O141 O 1.01699 0.81359 0.60809 0.0
N142 N 0.05847 0.85201 0.53507 0.0
C143 C 0.03902 0.86431 0.48516 0.0
C144 C 1.01055 0.87827 0.51595 0.0
C145 C 0.04349 0.86051 0.59586 0.0
N146 N 1.01274 0.87547 0.58569 0.0
C147 C 0.04505 0.81178 0.41235 0.0
C148 C 0.02874 0.76633 0.45861 0.0
C149 C 1.01861 0.7728 0.39059 0.0
C150 C 0.02555 0.79604 0.36845 0.0
C151 C 0.04738 0.78289 0.50176 0.0
N152 N 0.05655 0.80529 0.47815 0.0
H153 H 0.05394 0.82841 0.38993 0.0
H154 H 0.0561 0.77684 0.55257 0.0
H155 H 0.04442 0.86332 0.4299 0.0
H156 H 0.05329 0.8549 0.64687 0.0
O157 O 0.11581 0.84006 0.43938 0.0
O158 O 0.13965 0.84778 0.54366 0.0
O159 O 0.08273 0.81366 0.62117 0.0
C160 C 0.14089 0.85175 0.47642 0.0
H161 H 0.17457 0.74901 0.5596 0.0
H162 H 0.98897 0.88911 0.48883 0.0
H163 H 0.02426 0.74829 0.47695 0.0
H164 H 1.01909 0.8014 0.31529 0.0
Co165 Co 0.94067 0.20088 0.51441 0.0
C166 C 0.86814 0.22661 0.46192 0.0
C167 C 0.89526 0.2446 0.54717 0.0
C168 C 0.8613 0.25645 0.53047 0.0
N169 N 0.90052 0.22598 0.50361 0.0
N170 N 0.84393 0.24503 0.47746 0.0
H171 H 0.86076 0.21318 0.42411 0.0
H172 H 0.91303 0.24863 0.59189 0.0
C173 C 0.98575 0.22259 0.63325 0.0
O174 O 1.01816 0.22074 0.59626 0.0
N175 N 0.97974 0.17514 0.52816 0.0
C176 C 0.99009 0.15836 0.48108 0.0
C177 C 1.01881 0.14389 0.50895 0.0
C178 C 1.00092 0.16927 0.58607 0.0
N179 N 0.02581 0.15081 0.57489 0.0
C180 C 0.999 0.21181 0.41084 0.0
C181 C 1.0067 0.25972 0.4385 0.0
C182 C 0.02651 0.25008 0.38114 0.0
C183 C 0.02305 0.22576 0.36825 0.0
C184 C 0.98351 0.24499 0.48081 0.0
N185 N 0.97967 0.22118 0.46709 0.0
H186 H 0.99432 0.19371 0.39547 0.0
H187 H 0.96841 0.25302 0.52381 0.0
H188 H 0.97798 0.15661 0.42927 0.0
H189 H 0.99865 0.17807 0.63569 0.0
O190 O 0.9217 0.18568 0.43171 0.0
O191 O 0.89862 0.17813 0.53708 0.0
O192 O 0.95321 0.21421 0.61053 0.0
C193 C 0.89689 0.17405 0.46999 0.0
H194 H 0.84822 0.27088 0.55993 0.0
H195 H 0.0337 0.12942 0.48252 0.0
H196 H 1.0084 0.27858 0.44959 0.0
H197 H 0.03706 0.21782 0.32312 0.0
Co198 Co 0.19548 0.07973 0.77805 0.0
C199 C 0.12434 0.05009 0.79249 0.0
C200 C 0.15431 0.04345 0.69593 0.0
C201 C 0.12073 0.02997 0.69759 0.0
N202 N 0.15694 0.05569 0.75603 0.0
N203 N 0.10165 0.03417 0.75813 0.0
H204 H 0.11674 0.05853 0.84118 0.0
H205 H 0.17491 0.04463 0.65306 0.0
C206 C 0.19686 0.0676 0.93221 0.0
O207 O 0.17122 0.0845 0.94602 0.0
N208 N 0.23429 0.10418 0.79978 0.0
C209 C 0.24109 0.12424 0.7628 0.0
C210 C 0.27141 0.13655 0.79328 0.0
C211 C 0.26086 0.10472 0.85268 0.0
N212 N 0.28366 0.12436 0.84988 0.0
C213 C 0.25296 0.06857 0.67478 0.0
C214 C 0.25606 0.02043 0.70567 0.0
C215 C 0.26938 0.02833 0.64051 0.0
C216 C 0.26998 0.05285 0.62695 0.0
C217 C 0.23947 0.03671 0.75217 0.0
N218 N 0.23583 0.06022 0.73435 0.0
H219 H 0.25004 0.08712 0.66066 0.0
H220 H 0.22528 0.02981 0.79834 0.0
H221 H 0.2257 0.12961 0.71599 0.0
H222 H 0.26458 0.09084 0.89119 0.0
O223 O 0.17828 0.09684 0.69661 0.0
O224 O 0.15211 0.10162 0.80106 0.0
O225 O 0.20721 0.06357 0.86945 0.0
C226 C 0.15141 0.10689 0.73457 0.0
H227 H 0.11111 0.01803 0.65684 0.0
H228 H 0.28375 0.15318 0.77502 0.0
H229 H 0.25559 1.00162 0.71823 0.0
H230 H 0.28022 0.05962 0.57721 0.0
Co231 Co 0.85824 0.94472 0.81404 0.0
C232 C 0.92896 0.97865 0.80158 0.0
C233 C 0.93037 0.95374 0.88629 0.0
C234 C 0.96408 0.96683 0.8886 0.0
N235 N 0.90809 0.96081 0.83171 0.0
N236 N 0.96312 0.98275 0.8361 0.0
H237 H 0.91992 0.98874 0.75655 0.0
H238 H 0.92267 0.93961 0.92214 0.0
C239 C 0.8457 0.97499 0.93753 0.0
O240 O 0.86131 0.99202 0.8996 0.0
N241 N 0.80945 0.92731 0.80308 0.0
C242 C 0.78981 0.92262 0.74381 0.0
C243 C 0.7557 0.9106 0.76065 0.0
C244 C 0.78726 0.91795 0.85497 0.0
N245 N 0.75385 0.90791 0.83074 0.0
C246 C 0.84848 0.97995 0.7086 0.0
C247 C 0.77388 0.99485 0.74594 0.0
C248 C 0.7894 1.0022 0.68145 0.0
C249 C 0.82762 0.99506 0.66421 0.0
C250 C 0.79644 0.98014 0.79032 0.0
N251 N 0.83323 0.97257 0.77096 0.0
H252 H 0.87577 0.97261 0.68945 0.0
H253 H 0.78307 0.97334 0.83749 0.0
H254 H 0.79944 0.92773 0.69212 0.0
H255 H 0.79499 0.91882 0.90963 0.0
O256 O 0.87833 0.93168 0.7288 0.0
O257 O 0.88668 0.91464 0.83168 0.0
O258 O 0.84094 0.9543 0.91117 0.0
C259 C 0.89398 0.91466 0.7647 0.0
H260 H 0.98815 0.9641 0.92479 0.0
H261 H 0.73425 0.90408 0.72374 0.0
H262 H 0.74402 0.99954 0.76045 0.0
H263 H 0.84017 0.9995 0.61387 0.0
Co264 Co 0.6042 0.32018 0.55422 0.0
C265 C 0.66114 0.28395 0.49984 0.0
C266 C 0.65432 0.28175 0.61076 0.0
C267 C 0.68277 0.26575 0.59074 0.0
N268 N 0.64041 0.29315 0.55381 0.0
N269 N 0.6873 0.26725 0.52112 0.0
H270 H 0.65878 0.29011 0.4467 0.0
H271 H 0.64668 0.28585 0.66394 0.0
C272 C 0.55399 0.30628 0.67606 0.0
O273 O 0.52368 0.30852 0.63391 0.0
N274 N 0.56918 0.34831 0.55735 0.0
C275 C 0.56149 0.36367 0.50455 0.0
C276 C 0.53477 0.38053 0.52655 0.0
C277 C 0.54901 0.35756 0.61241 0.0
N278 N 0.52663 0.37648 0.59423 0.0
C279 C 0.54425 0.30753 0.4565 0.0
C280 C 0.54291 0.25965 0.48962 0.0
C281 C 0.52555 0.2674 0.42724 0.0
C282 C 0.52483 0.29177 0.4126 0.0
C283 C 0.56119 0.27619 0.53342 0.0
N284 N 0.56331 0.29975 0.51506 0.0
H285 H 0.54706 0.32555 0.43886 0.0
H286 H 0.57623 0.26971 0.57937 0.0
H287 H 0.57368 0.36258 0.45258 0.0
H288 H 0.55007 0.35085 0.66505 0.0
O289 O 0.62484 0.33023 0.46599 0.0
O290 O 0.65008 0.34138 0.56647 0.0
O291 O 0.58869 0.31144 0.65415 0.0
C292 C 0.65226 0.34163 0.49819 0.0
H293 H 0.70155 0.25557 0.62552 0.0
H294 H 0.52162 0.39441 0.49481 0.0
H295 H 0.54418 0.24087 0.50247 0.0
H296 H 0.51258 0.29841 0.36407 0.0
Co297 Co 0.43472 0.6942 0.50756 0.0
C298 C 0.36327 0.72477 0.46929 0.0
C299 C 0.36133 0.70857 0.5708 0.0
C300 C 0.32738 0.72141 0.56151 0.0
N301 N 0.38427 0.71074 0.5136 0.0
N302 N 0.32881 0.73159 0.49813 0.0
H303 H 0.37192 0.72981 0.41734 0.0
H304 H 0.36893 0.69821 0.61652 0.0
C305 C 0.44323 0.72963 0.62147 0.0
O306 O 0.42569 0.7448 0.57932 0.0
N307 N 0.48419 0.67699 0.50646 0.0
C308 C 0.50958 0.67494 0.45296 0.0
C309 C 0.54177 0.66198 0.4752 0.0
C310 C 0.50116 0.66522 0.5605 0.0
N311 N 0.53637 0.65565 0.54264 0.0
C312 C 0.4457 0.72315 0.38769 0.0
C313 C 0.50789 0.75044 0.43328 0.0
C314 C 0.49243 0.75445 0.36624 0.0
C315 C 0.46134 0.7403 0.34374 0.0
C316 C 0.49079 0.73297 0.47664 0.0
N317 N 0.45891 0.72018 0.45443 0.0
H318 H 0.42272 0.71211 0.36691 0.0
H319 H 0.5037 0.72947 0.52715 0.0
H320 H 0.50522 0.68254 0.40163 0.0
H321 H 0.48776 0.66344 0.61149 0.0
O322 O 0.41641 0.67636 0.4285 0.0
O323 O 0.40667 0.6653 0.53755 0.0
O324 O 0.45043 0.70838 0.60089 0.0
C325 C 0.40035 0.66153 0.47125 0.0
H326 H 0.30315 0.72298 0.59799 0.0
H327 H 0.56746 0.65779 0.44408 0.0
H328 H 0.53272 0.76065 0.45186 0.0
H329 H 0.44948 0.74217 0.29151 0.0
Co330 Co 0.6942 0.5742 0.75396 0.0
C331 C 0.62441 0.54545 0.70481 0.0
C332 C 0.65067 0.53113 0.7974 0.0
C333 C 0.61913 0.51733 0.78043 0.0
N334 N 0.65491 0.5487 0.74954 0.0
N335 N 0.60249 0.52627 0.72241 0.0
H336 H 0.61718 0.55722 0.66209 0.0
H337 H 0.66829 0.52854 0.8436 0.0
C338 C 0.74147 0.55644 0.87587 0.0
O339 O 0.77318 0.55904 0.83742 0.0
N340 N 0.73283 0.60005 0.76242 0.0
C341 C 0.74744 0.61393 0.71115 0.0
C342 C 0.77372 0.62978 0.73918 0.0
C343 C 0.74888 0.60903 0.82179 0.0
N344 N 0.77504 0.62669 0.809 0.0
C345 C 0.74738 0.55941 0.64595 0.0
C346 C 0.75532 0.51266 0.68777 0.0
C347 C 0.76779 0.51907 0.62066 0.0
C348 C 0.76521 0.54302 0.60126 0.0
C349 C 0.73736 0.52964 0.73066 0.0
N350 N 0.73272 0.55277 0.70954 0.0
H351 H 0.74202 0.57687 0.62543 0.0
H352 H 0.72488 0.52362 0.77866 0.0
H353 H 0.73887 0.61344 0.65701 0.0
H354 H 0.74049 0.60344 0.87356 0.0
O355 O 0.67475 0.58749 0.66845 0.0
O356 O 0.65134 0.59742 0.77139 0.0
O357 O 0.70783 0.56295 0.85226 0.0
C358 C 0.64937 0.59975 0.70347 0.0
H359 H 0.60742 0.50288 0.81156 0.0
H360 H 0.79056 0.64266 0.70972 0.0
H361 H 0.75716 0.49436 0.70545 0.0
H362 H 0.77378 0.54875 0.54944 0.0
Co363 Co 0.35575 0.45244 0.78123 0.0
C364 C 0.42275 0.48088 0.72279 0.0
C365 C 0.39516 0.49839 0.80897 0.0
C366 C 0.42658 0.51181 0.78777 0.0
N367 N 0.39243 0.47887 0.76849 0.0
N368 N 0.44427 0.50073 0.73404 0.0
H369 H 0.42976 0.46788 0.68327 0.0
H370 H 0.37642 0.50257 0.85244 0.0
C371 C 0.30564 0.47053 0.89828 0.0
O372 O 0.27526 0.46636 0.85771 0.0
N373 N 0.31967 0.4253 0.79535 0.0
C374 C 0.30858 0.40937 0.7465 0.0
C375 C 0.28114 0.39417 0.7743 0.0
C376 C 0.30068 0.41792 0.85418 0.0
N377 N 0.27577 0.39971 0.84185 0.0
C378 C 0.30167 0.4617 0.67043 0.0
C379 C 0.28348 0.50838 0.70185 0.0
C380 C 0.26956 0.4987 0.6393 0.0
C381 C 0.27853 0.47494 0.62463 0.0
C382 C 0.30648 0.4943 0.74702 0.0
N383 N 0.31537 0.47107 0.73135 0.0
H384 H 0.31049 0.4443 0.65379 0.0
H385 H 0.3175 0.50242 0.79383 0.0
H386 H 0.31939 0.40855 0.69366 0.0
H387 H 0.30413 0.42572 0.90507 0.0
O388 O 0.37727 0.43708 0.70045 0.0
O389 O 0.40021 0.43156 0.80694 0.0
O390 O 0.34047 0.46573 0.87662 0.0
C391 C 0.40249 0.42646 0.74055 0.0
H392 H 0.4372 0.52774 0.81313 0.0
H393 H 0.26555 0.38037 0.74648 0.0
H394 H 0.27714 0.5267 0.71532 0.0
H395 H 0.26936 0.46689 0.57602 0.0
Co396 Co 0.58833 0.82581 1.00697 0.0
C397 C 0.66366 0.80059 0.9677 0.0
C398 C 0.62659 0.77949 0.03349 0.0
C399 C 0.66061 0.76702 1.02124 0.0
N400 N 0.6281 0.80064 1.00004 0.0
N401 N 0.68418 0.78027 0.98033 0.0
H402 H 0.67473 0.81517 0.93663 0.0
H403 H 0.60324 0.77363 0.06736 0.0
C404 C 0.53664 0.81013 0.12541 0.0
O405 O 0.50628 0.81615 0.08652 0.0
N406 N 0.54871 0.85115 1.01621 0.0
C407 C 0.52622 0.86075 0.96535 0.0
C408 C 0.50069 0.87701 0.99415 0.0
C409 C 0.5372 0.8626 0.07534 0.0
N410 N 0.50736 0.87817 0.06335 0.0
C411 C 0.5473 0.81141 0.88385 0.0
C412 C 0.51635 0.76904 0.93139 0.0
C413 C 0.51085 0.7755 0.86154 0.0
C414 C 0.52637 0.797 0.83819 0.0
C415 C 0.53718 0.78428 0.97617 0.0
N416 N 0.55212 0.80554 0.95273 0.0
H417 H 0.56051 0.8271 0.86197 0.0
H418 H 0.54191 0.77831 0.02879 0.0
H419 H 0.52767 0.85648 0.91077 0.0
H420 H 0.54978 0.85927 0.12632 0.0
O421 O 0.61124 0.84249 0.92901 0.0
O422 O 0.62903 0.84831 0.03814 0.0
O423 O 0.57154 0.81224 0.10096 0.0
C424 C 0.63316 0.85395 0.97241 0.0
H425 H 0.66844 0.75004 0.04443 0.0
H426 H 0.47809 0.88681 0.96628 0.0
H427 H 0.50505 0.7523 0.95099 0.0
H428 H 0.52323 0.80238 0.78411 0.0
Co429 Co 0.44839 0.19489 0.05795 0.0
C430 C 0.38451 0.2297 1.01456 0.0
C431 C 0.38502 0.22062 0.12348 0.0
C432 C 0.35487 0.23628 0.11215 0.0
N433 N 0.4044 0.21687 0.06319 0.0
N434 N 0.35452 0.2421 0.04407 0.0
H435 H 0.39124 0.22962 0.95938 0.0
H436 H 0.39135 0.2117 0.17225 0.0
C437 C 0.49676 0.21495 0.17423 0.0
O438 O 0.52724 0.21489 0.13198 0.0
N439 N 0.49158 0.17143 0.05861 0.0
C440 C 0.50343 0.15695 1.00638 0.0
C441 C 0.53296 0.14215 0.03028 0.0
C442 C 0.51244 0.1637 0.11482 0.0
N443 N 0.53867 0.14646 0.09857 0.0
C444 C 0.49984 0.21301 0.95249 0.0
C445 C 0.49586 0.26047 0.98868 0.0
C446 C 0.51491 0.25406 0.92636 0.0
C447 C 0.51756 0.22993 0.90977 0.0
C448 C 0.47904 0.24274 0.0312 0.0
N449 N 0.48085 0.21924 1.01254 0.0
H450 H 0.49907 0.1951 0.93376 0.0
H451 H 0.46299 0.24804 0.07737 0.0
H452 H 0.49096 0.15654 0.95455 0.0
H453 H 0.50835 0.17014 0.16717 0.0
O454 O 0.42773 0.18178 0.97375 0.0
O455 O 0.41124 0.16908 0.07893 0.0
O456 O 0.46391 0.20617 0.15452 0.0
C457 C 0.4067 0.16748 1.01129 0.0
H458 H 0.3333 0.242 0.15029 0.0
H459 H 0.54846 0.12883 1.00006 0.0
H460 H 0.49288 0.279 1.00321 0.0
H461 H 0.53087 0.22421 0.86121 0.0
Co462 Co 0.69259 0.06621 0.30849 0.0
C463 C 0.61729 0.04245 0.26649 0.0
C464 C 0.62411 0.0449 0.37724 0.0
C465 C 0.5871 0.03647 0.36341 0.0
N466 N 0.64395 0.04794 0.31673 0.0
N467 N 0.58306 0.03486 0.29395 0.0
H468 H 0.62079 0.04615 0.21158 0.0
H469 H 0.63444 0.05028 0.42805 0.0
C470 C 0.70959 0.03508 0.43167 0.0
O471 O 0.69623 0.01734 0.39407 0.0
N472 N 0.73961 0.08545 0.30231 0.0
C473 C 0.76371 0.08738 0.24691 0.0
C474 C 0.79376 0.10268 0.26354 0.0
C475 C 0.755 0.09983 0.35172 0.0
N476 N 0.78808 0.1108 0.32911 0.0
C477 C 0.7069 0.03063 0.20559 0.0
C478 C 0.78146 0.01753 0.2486 0.0
C479 C 0.7672 1.00898 0.18467 0.0
C480 C 0.72894 0.01511 0.16478 0.0
C481 C 0.75791 0.03282 0.28896 0.0
N482 N 0.72116 0.0395 0.26668 0.0
H483 H 0.67972 0.037 0.18422 0.0
H484 H 0.77033 0.04057 0.33551 0.0
H485 H 0.75994 0.07806 0.19809 0.0
H486 H 0.74192 0.10249 0.40261 0.0
O487 O 0.67381 0.08008 0.22302 0.0
O488 O 0.66096 0.09466 0.3277 0.0
O489 O 0.7094 0.05625 0.40641 0.0
C490 C 0.6558 0.09594 0.26018 0.0
H491 H 0.56398 0.03318 0.40111 0.0
H492 H 0.81829 0.10716 0.23002 0.0
H493 H 0.81113 0.01337 0.26555 0.0
H494 H 0.71721 1.00956 0.11487 0.0
Co495 Co 0.34512 0.95271 0.27889 0.0
C496 C 0.40633 0.98899 0.23671 0.0
C497 C 0.39882 0.98494 0.3472 0.0
C498 C 0.42822 1.00091 0.336 0.0
N499 N 0.38415 0.97776 0.28545 0.0
N500 N 0.43325 1.00342 0.26689 0.0
H501 H 0.40411 0.98594 0.18126 0.0
H502 H 0.39129 0.97757 0.39746 0.0
C503 C 0.29276 0.96988 0.39483 0.0
O504 O 0.26236 0.9681 0.35281 0.0
N505 N 0.30685 0.92647 0.27875 0.0
C506 C 0.2976 0.9116 0.22602 0.0
C507 C 0.26932 0.89576 0.24852 0.0
C508 C 0.28597 0.91797 0.33401 0.0
N509 N 0.2618 0.89997 0.31637 0.0
C510 C 0.29116 0.96774 0.17265 0.0
C511 C 0.28399 0.01482 0.2121 0.0
C512 C 0.26731 1.00755 0.14876 0.0
C513 C 0.27032 0.98357 0.13034 0.0
C514 C 0.30473 0.99822 0.2535 0.0
N515 N 0.30814 0.97487 0.23361 0.0
H516 H 0.29586 0.95011 0.15314 0.0
H517 H 0.31938 1.00441 0.30005 0.0
H518 H 0.31052 0.91195 0.17451 0.0
H519 H 0.28813 0.92452 0.38663 0.0
O520 O 0.36903 0.94148 0.1943 0.0
O521 O 0.38755 0.92948 0.29894 0.0
O522 O 0.32677 0.96257 0.37542 0.0
C523 C 0.39327 0.92895 0.23139 0.0
H524 H 0.44726 1.00834 0.37562 0.0
H525 H 0.25541 0.88213 0.21738 0.0
H526 H 0.28292 0.03334 0.22749 0.0
H527 H 0.25843 0.97733 0.08126 0.0
C528 C 0.17543 0.37824 0.89279 0.0
C529 C 0.18073 0.36929 0.96091 0.0
C530 C 0.20623 0.38882 0.8558 0.0
C531 C 0.24386 0.39124 0.88516 0.0
H532 H 0.14752 0.37607 0.86619 0.0
H533 H 0.20082 0.39465 0.80276 0.0
S534 S 0.27253 0.37369 0.06471 0.0
N535 N 0.22593 0.36551 0.0587 0.0
N536 N 0.28401 0.38597 0.98892 0.0
C537 C 0.24911 0.38405 0.95499 0.0
C538 C 0.21751 0.37297 0.99295 0.0
C539 C 0.84086 0.67487 0.87903 0.0
C540 C 0.85527 0.66553 0.94233 0.0
C541 C 0.81337 0.66264 0.83847 0.0
C542 C 0.79966 0.63991 0.85746 0.0
H543 H 0.85135 0.69178 0.85947 0.0
H544 H 0.80343 0.67106 0.79079 0.0
S545 S 0.82883 0.60704 1.01841 0.0
N546 N 0.85325 0.63236 1.02349 0.0
N547 N 0.80312 0.60846 0.94532 0.0
C548 C 0.81335 0.63036 0.92155 0.0
C549 C 0.84081 0.64332 0.9642 0.0
C550 C 0.06046 0.64909 0.17774 0.0
C551 C 0.04127 0.63707 0.12266 0.0
C552 C 0.09038 0.63788 0.21787 0.0
C553 C 0.10207 0.61429 0.20396 0.0
H554 H 0.05352 0.66757 0.18776 0.0
H555 H 0.1056 0.64804 0.25739 0.0
S556 S 0.05673 0.57402 0.07307 0.0
N557 N 0.03297 0.59946 0.0631 0.0
N558 N 0.08881 0.57865 0.13611 0.0
C559 C 0.08127 0.60181 0.15189 0.0
C560 C 0.05104 0.61309 0.11187 0.0
C561 C 0.99014 0.3864 0.18492 0.0
C562 C 0.98172 0.37337 0.12399 0.0
C563 C 0.95961 0.39664 0.22537 0.0
C564 C 0.91978 0.3941 0.20599 0.0
H565 H 0.02046 0.38992 0.19879 0.0
H566 H 0.96738 0.40804 0.26864 0.0
S567 S 0.88228 0.35748 0.05997 0.0
N568 N 0.93065 0.35535 0.0535 0.0
N569 N 0.87379 0.37468 0.12804 0.0
C570 C 0.91122 0.37932 0.149 0.0
C571 C 0.94202 0.36896 0.10831 0.0
C572 C 0.20871 0.87047 0.46768 0.0
C573 C 0.17068 0.8669 0.44028 0.0
C574 C 0.23838 0.88169 0.42765 0.0
C575 C 0.23111 0.88943 0.35871 0.0
H576 H 0.21603 0.86376 0.51911 0.0
H577 H 0.26751 0.88364 0.44979 0.0
S578 S 0.13526 0.88746 0.26666 0.0
N579 N 0.12665 0.87446 0.34242 0.0
N580 N 0.18215 0.89502 0.26816 0.0
C581 C 0.19285 0.88693 0.33231 0.0
C582 C 0.16275 0.87582 0.37283 0.0
C583 C 0.84641 0.1408 0.47251 0.0
C584 C 0.86669 0.15874 0.43586 0.0
C585 C 0.81973 0.12559 0.43803 0.0
C586 C 0.81244 0.12778 0.36583 0.0
H587 H 0.8519 0.1381 0.52762 0.0
H588 H 0.80552 0.11166 0.46757 0.0
S589 S 0.85226 0.1746 0.24889 0.0
N590 N 0.87383 0.17938 0.32456 0.0
N591 N 0.82345 0.15144 0.2616 0.0
C592 C 0.83072 0.14654 0.32988 0.0
C593 C 0.85789 0.1618 0.36439 0.0
C594 C 0.09434 0.13726 0.5894 0.0
C595 C 0.05737 0.14217 0.61904 0.0
C596 C 0.12491 0.12721 0.62875 0.0
C597 C 0.12 0.1213 0.69974 0.0
H598 H 0.09955 0.141 0.53473 0.0
H599 H 0.15239 0.12339 0.60227 0.0
S600 S 0.02929 0.13165 0.80351 0.0
N601 N 1.01788 0.14149 0.72469 0.0
N602 N 0.07537 0.12216 0.79896 0.0
C603 C 0.08361 0.12695 0.73106 0.0
C604 C 0.05233 0.13748 0.6907 0.0
C605 C 0.91375 0.89125 0.66148 0.0
C606 C 0.92277 0.89898 0.72925 0.0
C607 C 0.94311 0.88306 0.61605 0.0
C608 C 0.98301 0.88247 0.63596 0.0
H609 H 0.88386 0.89272 0.64205 0.0
H610 H 0.93451 0.87765 0.56413 0.0
S611 S 0.02214 0.90011 0.8089 0.0
N612 N 0.97419 0.90475 0.81533 0.0
N613 N 0.02972 0.88947 0.72974 0.0
C614 C 0.9923 0.88906 0.70489 0.0
C615 C 0.96212 0.8973 0.75155 0.0
C616 C 0.73356 0.38385 0.43419 0.0
C617 C 0.74024 0.37568 0.36555 0.0
C618 C 0.70635 0.37236 0.47896 0.0
C619 C 0.68483 0.35244 0.45621 0.0
H620 H 0.74804 0.39983 0.4521 0.0
H621 H 0.70087 0.37973 0.53019 0.0
S622 S 0.69671 0.32217 0.28477 0.0
N623 N 0.72706 0.34496 0.2808 0.0
N624 N 0.67576 0.32381 0.3622 0.0
C625 C 0.69327 0.34349 0.38894 0.0
C626 C 0.72099 0.35497 0.34439 0.0
C627 C 0.3498 0.62242 0.33968 0.0
C628 C 0.30999 0.62327 0.3604 0.0
C629 C 0.37957 0.63298 0.37976 0.0
C630 C 0.37114 0.64448 0.44312 0.0
H631 H 0.35801 0.61409 0.29098 0.0
H632 H 0.40932 0.6331 0.35927 0.0
S633 S 0.27235 0.6514 0.5227 0.0
N634 N 0.26412 0.63643 0.45018 0.0
N635 N 0.32041 0.65563 0.52593 0.0
C636 C 0.33195 0.64444 0.46661 0.0
C637 C 0.30134 0.63398 0.42524 0.0
C638 C 0.56942 0.64583 0.65581 0.0
C639 C 0.56236 0.6409 0.58469 0.0
C640 C 0.59691 0.63233 0.69524 0.0
C641 C 0.61837 0.61351 0.66475 0.0
H642 H 0.55439 0.6606 0.68053 0.0
H643 H 0.60206 0.63703 0.7492 0.0
S644 S 0.60618 0.59139 0.48301 0.0
N645 N 0.57571 0.61423 0.48838 0.0
N646 N 0.62754 0.58954 0.56004 0.0
C647 C 0.61018 0.60798 0.59431 0.0
C648 C 0.58219 0.62147 0.55497 0.0
C649 C 0.50122 0.39603 0.70187 0.0
C650 C 0.49507 0.38714 0.63407 0.0
C651 C 0.47072 0.40783 0.7385 0.0
C652 C 0.43309 0.41082 0.7086 0.0
H653 H 0.53011 0.39462 0.72544 0.0
H654 H 0.47711 0.41548 0.789 0.0
S655 S 0.40059 0.38687 0.53759 0.0
N656 N 0.44762 0.37958 0.54257 0.0
N657 N 0.39059 0.40122 0.61047 0.0
C658 C 0.42626 0.40059 0.64267 0.0
C659 C 0.45715 0.3889 0.60565 0.0
C660 C 0.70176 0.87113 0.96882 0.0
C661 C 0.66262 0.87107 0.94483 0.0
C662 C 0.73136 0.8837 0.93247 0.0
C663 C 0.72277 0.89674 0.87112 0.0
H664 H 0.70996 0.8604 1.01359 0.0
H665 H 0.76141 0.88239 0.9509 0.0
S666 S 0.62325 0.90568 0.795 0.0
N667 N 0.61604 0.88732 0.86112 0.0
N668 N 0.67089 0.91138 0.79465 0.0
C669 C 0.68315 0.89807 0.84987 0.0
C670 C 0.65332 0.88516 0.88629 0.0
C671 C 0.38136 0.14891 0.90288 0.0
C672 C 0.37756 0.15197 0.97556 0.0
C673 C 0.35134 0.13878 0.86303 0.0
C674 C 0.3163 0.13088 0.89392 0.0
H675 H 0.40715 0.15538 0.8756 0.0
H676 H 0.35499 0.13781 0.80699 0.0
S677 S 0.2926 0.13234 0.08259 0.0
N678 N 0.33673 0.14456 0.07753 0.0
N679 N 0.28035 0.125 1.00205 0.0
C680 C 0.31292 0.13222 0.96698 0.0
C681 C 0.34356 0.14286 1.00795 0.0
C682 C 0.63453 0.11874 0.15534 0.0
C683 C 0.62761 0.11234 0.22531 0.0
C684 C 0.60566 0.13024 0.11518 0.0
C685 C 0.56841 0.13577 0.14296 0.0
H686 H 0.66225 0.11419 0.13062 0.0
H687 H 0.6124 0.13459 0.06145 0.0
S688 S 0.53497 0.12243 0.3233 0.0
N689 N 0.58075 0.11239 0.32097 0.0
N690 N 0.52615 0.13388 0.24533 0.0
C691 C 0.56132 0.13003 0.21353 0.0
C692 C 0.59099 0.11836 0.25471 0.0
C693 C 0.46968 0.88209 0.17488 0.0
C694 C 0.48454 0.89211 0.11254 0.0
C695 C 0.44157 0.8944 0.21618 0.0
C696 C 0.42718 0.91696 0.19586 0.0
H697 H 0.4783 0.86421 0.18982 0.0
H698 H 0.42959 0.88571 0.26195 0.0
S699 S 0.46165 0.95223 0.04323 0.0
N700 N 0.48667 0.92707 0.03839 0.0
N701 N 0.43345 0.94959 0.11286 0.0
C702 C 0.44374 0.92751 0.13582 0.0
C703 C 0.47249 0.91527 0.09504 0.0
C704 C 0.08806 0.2629 0.31939 0.0
C705 C 0.04731 0.26545 0.33029 0.0
C706 C 0.1074 0.2758 0.26662 0.0
C707 C 0.08641 0.29116 0.2217 0.0
H708 H 0.10495 0.25063 0.35133 0.0
H709 H 0.13873 0.27307 0.25947 0.0
S710 S 0.97905 0.30406 0.22973 0.0
N711 N 0.98674 0.2848 0.29359 0.0
N712 N 0.02246 0.30841 0.19318 0.0
C713 C 0.04561 0.29395 0.23281 0.0
C714 C 0.02622 0.28125 0.28742 0.0
C715 C 0.97002 0.75417 0.3097 0.0
C716 C 1.00808 0.7548 0.3381 0.0
C717 C 0.96203 0.74066 0.24989 0.0
C718 C 0.99224 0.72817 0.21502 0.0
H719 H 0.94672 0.76488 0.33232 0.0
H720 H 0.93246 0.74108 0.2291 0.0
S721 S 0.09605 0.72242 0.27408 0.0
N722 N 0.07526 0.7402 0.33192 0.0
N723 N 0.06093 0.71552 0.21826 0.0
C724 C 0.02994 0.7277 0.24564 0.0
C725 C 0.03772 0.74093 0.30737 0.0
C726 C 0.19699 0.51309 0.49563 0.0
C727 C 0.2129 0.53359 0.46442 0.0
C728 C 0.21379 0.50304 0.55554 0.0
C729 C 0.24748 0.51293 0.58651 0.0
H730 H 0.17207 0.50418 0.47214 0.0
H731 H 0.20137 0.4867 0.57596 0.0
S732 S 0.29884 0.5677 0.52819 0.0
N733 N 0.26253 0.56452 0.47171 0.0
N734 N 0.29473 0.54536 0.58399 0.0
C735 C 0.26233 0.53429 0.55842 0.0
C736 C 0.24491 0.54468 0.49739 0.0
C737 C 0.81013 0.50405 0.52217 0.0
C738 C 0.77782 0.5008 0.56728 0.0
C739 C 0.81662 0.48884 0.46516 0.0
C740 C 0.79073 0.46998 0.45058 0.0
H741 H 0.83001 0.51883 0.53001 0.0
H742 H 0.84124 0.49247 0.43086 0.0
S743 S 0.7027 0.45316 0.55476 0.0
N744 N 0.72038 0.4768 0.59459 0.0
N745 N 0.73276 0.44812 0.48878 0.0
C746 C 0.75916 0.46603 0.49692 0.0
C747 C 0.75267 0.48144 0.5549 0.0
C748 C 0.99733 0.78878 0.81121 0.0
C749 C 0.02571 0.77409 0.84288 0.0
C750 C 1.00582 0.8012 0.74959 0.0
C751 C 0.04314 0.79959 0.7177 0.0
H752 H 0.9676 0.78944 0.83168 0.0
H753 H 0.98235 0.81139 0.72534 0.0
S754 S 0.12927 0.76614 0.78696 0.0
N755 N 0.09337 0.76015 0.84239 0.0
N756 N 0.1102 0.78445 0.72831 0.0
C757 C 0.07275 0.78651 0.75242 0.0
C758 C 0.06376 0.77343 0.81446 0.0
C759 C 1.01102 0.23658 0.82083 0.0
C760 C 1.00615 0.26145 0.82295 0.0
C761 C 1.00169 0.22366 0.76032 0.0
C762 C 0.98735 0.23528 0.70037 0.0
H763 H 0.02479 0.22736 0.86419 0.0
H764 H 1.00786 0.20472 0.75904 0.0
S765 S 0.96884 0.30005 0.68059 0.0
N766 N 0.98482 0.29698 0.76145 0.0
N767 N 0.96816 0.27294 0.64764 0.0
C768 C 0.98079 0.25995 0.70318 0.0
C769 C 0.98989 0.27299 0.76469 0.0
C770 C 0.19953 0.05226 0.05673 0.0
C771 C 0.21623 0.05366 0.9894 0.0
C772 C 0.21678 0.03805 0.10956 0.0
C773 C 0.25134 0.02483 0.09683 0.0
H774 H 0.17242 0.06168 0.06821 0.0
H775 H 0.20236 0.03681 0.15983 0.0
S776 S 0.30967 0.02456 0.93339 0.0
N777 N 0.27174 0.04204 0.9161 0.0
N778 N 0.30343 0.01561 1.01467 0.0
C779 C 0.26917 0.02691 0.03107 0.0
C780 C 0.25183 0.04123 0.97759 0.0
C781 C 0.79803 0.9687 0.03583 0.0
C782 C 0.83075 0.98076 1.0082 0.0
C783 C 0.77929 0.97679 0.09671 0.0
C784 C 0.79295 0.99698 0.13267 0.0
H785 H 0.78532 0.95384 1.00803 0.0
H786 H 0.75267 0.96794 0.11378 0.0
S787 S 0.88078 0.03281 0.08692 0.0
N788 N 0.87858 0.01231 0.02557 0.0
N789 N 0.84326 0.02751 0.13941 0.0
C790 C 0.82739 1.00804 0.10845 0.0
C791 C 0.84627 0.99995 0.04629 0.0
C792 C 0.57474 0.28218 0.78053 0.0
C793 C 0.54708 0.29726 0.74805 0.0
C794 C 0.56521 0.26957 0.8417 0.0
C795 C 0.52791 0.27186 0.87337 0.0
H796 H 0.60294 0.27881 0.75626 0.0
H797 H 0.58647 0.25697 0.8624 0.0
S798 S 0.4471 0.31173 0.81452 0.0
N799 N 0.48239 0.31579 0.75644 0.0
N800 N 0.46463 0.29216 0.8711 0.0
C801 C 0.50119 0.28832 0.84447 0.0
C802 C 0.51072 0.30096 0.78186 0.0
C803 C 0.50955 0.74145 0.77741 0.0
C804 C 0.48977 0.76025 0.81106 0.0
C805 C 0.49325 0.73042 0.71823 0.0
C806 C 0.45698 0.73815 0.69042 0.0
H807 H 0.53869 0.73615 0.79462 0.0
H808 H 0.51022 0.71679 0.69176 0.0
S809 S 0.39166 0.78463 0.76526 0.0
N810 N 0.43069 0.78452 0.81663 0.0
N811 N 0.40005 0.76401 0.70581 0.0
C812 C 0.43603 0.75596 0.72637 0.0
C813 C 0.45247 0.76699 0.78656 0.0
C814 C 0.75648 0.50033 0.98116 0.0
C815 C 0.75909 0.50848 0.0503 0.0
C816 C 0.74973 0.51599 0.92577 0.0
C817 C 0.74364 0.5404 0.93699 0.0
H818 H 0.76188 0.48175 0.96922 0.0
H819 H 0.75082 0.50881 0.87367 0.0
S820 S 0.74374 0.57082 0.10798 0.0
N821 N 0.75316 0.54266 0.12729 0.0
N822 N 0.73801 0.57199 1.0224 0.0
C823 C 0.7435 0.54873 1.00595 0.0
C824 C 0.75149 0.53277 0.06285 0.0
C825 C 0.24967 0.48369 0.06393 0.0
C826 C 0.27213 0.50164 0.09569 0.0
C827 C 0.26217 0.47272 1.00237 0.0
C828 C 0.29802 0.47889 0.97051 0.0
H829 H 0.22073 0.47935 0.08403 0.0
H830 H 0.24261 0.46007 0.9778 0.0
S831 S 0.37128 0.52147 0.04014 0.0
N832 N 0.33416 0.52298 0.09573 0.0
N833 N 0.3587 0.50141 0.9815 0.0
C834 C 0.32284 0.49484 1.00589 0.0
C835 C 0.30966 0.50643 0.06826 0.0
C836 C 0.48132 0.78838 0.28478 0.0
C837 C 0.508 0.77256 0.31685 0.0
C838 C 0.49173 0.80135 0.22516 0.0
C839 C 0.52935 0.79913 0.19498 0.0
H840 H 0.45132 0.78972 0.30371 0.0
H841 H 0.46943 0.81249 0.20099 0.0
S842 S 0.61173 0.76237 0.26449 0.0
N843 N 0.57474 0.75695 0.31816 0.0
N844 N 0.5949 0.7818 0.2068 0.0
C845 C 0.55741 0.78484 0.22989 0.0
C846 C 0.5466 0.77145 0.29068 0.0
C847 C 0.54313 0.23514 0.34371 0.0
C848 C 0.51433 0.25047 0.3716 0.0
C849 C 0.53664 0.22297 0.28097 0.0
C850 C 0.50087 0.22538 0.2446 0.0
H851 H 0.5718 0.23369 0.36822 0.0
H852 H 0.56021 0.21214 0.25975 0.0
S853 S 0.41512 0.26212 0.29832 0.0
N854 N 0.4481 0.26644 0.36025 0.0
N855 N 0.43569 0.2434 0.24284 0.0
C856 C 0.47109 0.23964 0.27396 0.0
C857 C 0.47788 0.25225 0.33733 0.0
C858 C 0.73085 1.00267 0.60211 0.0
C859 C 0.76484 0.01406 0.62696 0.0
C860 C 0.71221 1.01028 0.54044 0.0
C861 C 0.7264 0.02984 0.50177 0.0
H862 H 0.72002 0.98683 0.62805 0.0
H863 H 0.68718 1.00027 0.52169 0.0
S864 S 0.81266 0.06686 0.54792 0.0
N865 N 0.81061 0.04667 0.61058 0.0
N866 N 0.77524 0.06127 0.49548 0.0
C867 C 0.75897 0.04225 0.52836 0.0
C868 C 0.77828 0.03427 0.59064 0.0
C869 C 0.31208 0.01229 0.54464 0.0
C870 C 0.27699 0.01118 0.58331 0.0
C871 C 0.3177 0.99798 0.48554 0.0
C872 C 0.28819 0.98235 0.4623 0.0
H873 H 0.33496 0.02468 0.5593 0.0
H874 H 0.34455 1.00014 0.45603 0.0
S875 S 0.19101 0.97273 0.54564 0.0
N876 N 0.21246 0.99296 0.59486 0.0
N877 N 0.22298 0.96628 0.48351 0.0
C878 C 0.25325 0.98081 0.50121 0.0
C879 C 0.2477 0.99513 0.56184 0.0
C880 C 0.29619 0.24375 0.96876 0.0
C881 C 0.32305 0.2554 1.01235 0.0
C882 C 0.25797 0.25286 0.95904 0.0
C883 C 0.24551 0.27396 0.99231 0.0
H884 H 0.30348 0.22642 0.94769 0.0
H885 H 0.23716 0.24254 0.92904 0.0
S886 S 0.30711 0.3124 0.10455 0.0
N887 N 0.33646 0.29013 0.08274 0.0
N888 N 0.26481 0.30732 0.06493 0.0
C889 C 0.27347 0.28684 0.03061 0.0
C890 C 0.31222 0.27752 0.04048 0.0
C891 C 0.77647 0.74395 0.96161 0.0
C892 C 0.80594 0.76085 0.97434 0.0
C893 C 0.73671 0.75078 0.95759 0.0
C894 C 0.72499 0.77473 0.96594 0.0
H895 H 0.78378 0.72517 0.96046 0.0
H896 H 0.7147 0.73702 0.95223 0.0
S897 S 0.79207 0.82618 0.98697 0.0
N898 N 0.82166 0.80279 0.98439 0.0
N899 N 0.74704 0.81563 0.97828 0.0
C900 C 0.75465 0.792 0.97171 0.0
C901 C 0.7951 0.78503 0.97567 0.0
C902 C 0.02915 0.52176 0.20474 0.0
C903 C 0.05506 0.51284 0.25541 0.0
C904 C 0.9925 0.51109 0.19382 0.0
C905 C 0.98098 0.49104 0.23282 0.0
H906 H 0.03564 0.53835 0.17859 0.0
H907 H 0.97181 0.51954 0.15852 0.0
S908 S 0.04098 0.45923 0.36499 0.0
N909 N 0.06891 0.48168 0.33968 0.0
N910 N 1.00011 0.46124 0.31854 0.0
C911 C 1.00828 0.48065 0.27876 0.0
C912 C 0.04534 0.49172 0.29038 0.0
C913 C 0.26457 0.73365 0.4418 0.0
C914 C 0.2976 0.74545 0.46837 0.0
C915 C 0.22803 0.74523 0.43751 0.0
C916 C 0.22349 0.76891 0.45983 0.0
H917 H 0.26618 0.71475 0.43119 0.0
H918 H 0.2023 0.73494 0.42371 0.0
S919 S 0.30244 0.80825 0.52465 0.0
N920 N 0.32481 0.78255 0.50998 0.0
N921 N 0.25599 0.80448 0.5016 0.0
C922 C 0.25725 0.78159 0.47923 0.0
C923 C 0.29441 0.76974 0.48389 0.0
C924 C 0.7881 0.27081 0.44707 0.0
C925 C 0.80282 0.24787 0.46154 0.0
C926 C 0.74831 0.27648 0.45816 0.0
C927 C 0.72221 0.25944 0.48532 0.0
H928 H 0.80831 0.28496 0.43356 0.0
H929 H 0.73899 0.29486 0.45284 0.0
S930 S 0.74453 0.19596 0.52015 0.0
N931 N 0.78697 0.20726 0.49435 0.0
N932 N 0.71231 0.21807 0.51668 0.0
C933 C 0.73561 0.2359 0.49271 0.0
C934 C 0.77593 0.23004 0.48032 0.0
C935 C 0.03801 0.01532 0.72859 0.0
C936 C 0.06455 0.02382 0.77935 0.0
C937 C 1.00383 1.00295 0.74738 0.0
C938 C 0.99454 0.99878 0.81765 0.0
H939 H 0.04399 0.01777 0.67368 0.0
H940 H 0.9855 0.99572 0.70644 0.0
S941 S 0.05067 0.02004 0.97133 0.0
N942 N 0.07721 0.02845 0.9036 0.0
N943 N 1.01168 1.00674 0.93846 0.0
C944 C 0.01918 1.00861 0.86906 0.0
C945 C 0.05442 0.02079 0.85001 0.0
C946 C 0.49397 0.5308 0.70304 0.0
C947 C 0.48282 0.5067 0.70774 0.0
C948 C 0.53373 0.53738 0.69887 0.0
C949 C 0.56359 0.52002 0.69953 0.0
H950 H 0.47195 0.54469 0.70818 0.0
H951 H 0.54123 0.55605 0.70228 0.0
S952 S 0.55019 0.45466 0.69666 0.0
N953 N 0.50501 0.4655 0.70201 0.0
N954 N 0.57954 0.478 0.69336 0.0
C955 C 0.55269 0.49598 0.69577 0.0
C956 C 0.51231 0.48924 0.70005 0.0
C957 C 0.47642 0.03752 0.25439 0.0
C958 C 0.46854 0.01356 0.23883 0.0
C959 C 0.51509 0.04538 0.26465 0.0
C960 C 0.547 0.02956 0.25863 0.0
H961 H 0.45234 0.04936 0.26775 0.0
H962 H 0.51988 0.06319 0.28429 0.0
S963 S 0.54258 0.96635 0.20648 0.0
N964 N 0.49607 0.9751 0.20836 0.0
N965 N 0.56897 0.99004 0.22637 0.0
C966 C 0.53992 1.0065 0.23424 0.0
C967 C 0.50052 0.99848 0.22409 0.0
loop_
_geom_bond_atom_site_label_1
_geom_bond_atom_site_label_2
_geom_bond_distance
_geom_bond_site_symmetry_2
_ccdc_geom_bond_type
Co0 N4 2.148 . S
Co0 N10 2.128 . S
Co0 N20 2.194 1_554 S
Co0 O25 2.351 1_554 S
Co0 O26 2.155 . S
Co0 O27 2.096 . S
C1 N4 1.301 1_556 S
C1 N5 1.328 . S
C1 H6 0.930 . S
C2 C3 1.333 . S
C2 N4 1.317 . S
C2 H7 0.930 . S
C3 C2 1.333 . S
C3 N5 1.350 1_554 S
C3 H29 0.931 . S
N4 Co0 2.148 . S
N4 C1 1.301 1_554 S
N4 C2 1.317 . S
N5 C1 1.328 . S
N5 C3 1.350 1_556 S
H6 C1 0.930 . S
H7 C2 0.930 . S
C8 O9 1.224 . S
C8 O27 1.247 . S
O9 C8 1.224 . S
N10 Co0 2.128 . S
N10 C11 1.355 1_554 S
N10 C13 1.311 . S
C11 N10 1.355 1_556 S
C11 C12 1.363 1_455 S
C11 H23 0.929 . S
C12 C11 1.363 1_655 S
C12 N14 1.375 1_556 S
C12 H30 0.931 . S
C13 N10 1.311 . S
C13 N14 1.347 1_455 S
C13 H24 0.929 . S
N14 C12 1.375 1_554 S
N14 C13 1.347 1_655 S
C15 C18 1.365 . S
C15 N20 1.328 . S
C15 H21 0.929 . S
C16 C17 1.362 . S
C16 C19 1.378 . S
C16 H31 0.929 1_455 S
C17 C16 1.362 . S
C17 C18 1.366 . S
C18 C15 1.365 . S
C18 C17 1.366 . S
C18 H32 0.930 . S
C19 C16 1.378 . S
C19 N20 1.315 . S
C19 H22 0.930 . S
N20 Co0 2.194 1_556 S
N20 C15 1.328 . S
N20 C19 1.315 . S
H21 C15 0.929 . S
H22 C19 0.930 . S
H23 C11 0.929 . S
H24 C13 0.929 . S
O25 Co0 2.351 1_556 S
O25 C28 1.244 . S
O26 Co0 2.155 . S
O26 C28 1.240 1_554 S
O27 Co0 2.096 . S
O27 C8 1.247 . S
C28 O25 1.244 . S
C28 O26 1.240 1_556 S
H29 C3 0.931 . S
H30 C12 0.931 . S
H31 C16 0.929 1_655 S
H32 C18 0.930 . S
Co33 N37 2.148 . S
Co33 N43 2.128 . S
Co33 N53 2.194 1_554 S
Co33 O58 2.351 1_554 S
Co33 O59 2.155 . S
Co33 O60 2.096 . S
C34 N37 1.301 1_556 S
C34 N38 1.328 . S
C34 H39 0.930 . S
C35 C36 1.333 . S
C35 N37 1.317 . S
C35 H40 0.930 . S
C36 C35 1.333 . S
C36 N38 1.350 1_554 S
C36 H62 0.931 . S
N37 Co33 2.148 . S
N37 C34 1.301 1_554 S
N37 C35 1.317 . S
N38 C34 1.328 . S
N38 C36 1.350 1_556 S
H39 C34 0.930 . S
H40 C35 0.930 . S
C41 O42 1.224 . S
C41 O60 1.247 . S
O42 C41 1.224 . S
N43 Co33 2.128 . S
N43 C44 1.355 1_554 S
N43 C46 1.311 . S
C44 N43 1.355 1_556 S
C44 C45 1.363 1_655 S
C44 H56 0.929 . S
C45 C44 1.363 1_455 S
C45 N47 1.375 1_556 S
C45 H63 0.931 . S
C46 N43 1.311 . S
C46 N47 1.347 1_655 S
C46 H57 0.929 . S
N47 C45 1.375 1_554 S
N47 C46 1.347 1_455 S
C48 C51 1.365 . S
C48 N53 1.328 . S
C48 H54 0.929 . S
C49 C50 1.362 . S
C49 C52 1.378 . S
C49 H64 0.929 1_655 S
C50 C49 1.362 . S
C50 C51 1.366 . S
C51 C48 1.365 . S
C51 C50 1.366 . S
C51 H65 0.930 . S
C52 C49 1.378 . S
C52 N53 1.315 . S
C52 H55 0.930 . S
N53 Co33 2.194 1_556 S
N53 C48 1.328 . S
N53 C52 1.315 . S
H54 C48 0.929 . S
H55 C52 0.930 . S
H56 C44 0.929 . S
H57 C46 0.929 . S
O58 Co33 2.351 1_556 S
O58 C61 1.244 . S
O59 Co33 2.155 . S
O59 C61 1.240 1_554 S
O60 Co33 2.096 . S
O60 C41 1.247 . S
C61 O58 1.244 . S
C61 O59 1.240 1_556 S
H62 C36 0.931 . S
H63 C45 0.931 . S
H64 C49 0.929 1_455 S
H65 C51 0.930 . S
Co66 N70 2.148 . S
Co66 N76 2.128 . S
Co66 N86 2.194 . S
Co66 O91 2.351 . S
Co66 O92 2.155 . S
Co66 O93 2.096 . S
C67 N70 1.301 . S
C67 N71 1.328 . S
C67 H72 0.930 . S
C68 C69 1.333 . S
C68 N70 1.317 . S
C68 H73 0.930 . S
C69 C68 1.333 . S
C69 N71 1.350 . S
C69 H95 0.931 . S
N70 Co66 2.148 . S
N70 C67 1.301 . S
N70 C68 1.317 . S
N71 C67 1.328 . S
N71 C69 1.350 . S
H72 C67 0.930 . S
H73 C68 0.930 . S
C74 O75 1.224 . S
C74 O93 1.247 . S
O75 C74 1.224 . S
N76 Co66 2.128 . S
N76 C77 1.355 . S
N76 C79 1.311 . S
C77 N76 1.355 . S
C77 C78 1.363 . S
C77 H89 0.929 . S
C78 C77 1.363 . S
C78 N80 1.375 . S
C78 H96 0.931 . S
C79 N76 1.311 . S
C79 N80 1.347 . S
C79 H90 0.929 . S
N80 C78 1.375 . S
N80 C79 1.347 . S
C81 C84 1.365 . S
C81 N86 1.328 . S
C81 H87 0.929 . S
C82 C83 1.362 . S
C82 C85 1.378 . S
C82 H97 0.929 . S
C83 C82 1.362 . S
C83 C84 1.366 . S
C84 C81 1.365 . S
C84 C83 1.366 . S
C84 H98 0.930 . S
C85 C82 1.378 . S
C85 N86 1.315 . S
C85 H88 0.930 . S
N86 Co66 2.194 . S
N86 C81 1.328 . S
N86 C85 1.315 . S
H87 C81 0.929 . S
H88 C85 0.930 . S
H89 C77 0.929 . S
H90 C79 0.929 . S
O91 Co66 2.351 . S
O91 C94 1.244 . S
O92 Co66 2.155 . S
O92 C94 1.240 . S
O93 Co66 2.096 . S
O93 C74 1.247 . S
C94 O91 1.244 . S
C94 O92 1.240 . S
H95 C69 0.931 . S
H96 C78 0.931 . S
H97 C82 0.929 . S
H98 C84 0.930 . S
Co99 N103 2.148 . S
Co99 N109 2.128 . S
Co99 N119 2.194 . S
Co99 O124 2.351 . S
Co99 O125 2.155 . S
Co99 O126 2.096 . S
C100 N103 1.301 . S
C100 N104 1.328 . S
C100 H105 0.930 . S
C101 C102 1.333 . S
C101 N103 1.317 . S
C101 H106 0.930 . S
C102 C101 1.333 . S
C102 N104 1.350 . S
C102 H128 0.931 . S
N103 Co99 2.148 . S
N103 C100 1.301 . S
N103 C101 1.317 . S
N104 C100 1.328 . S
N104 C102 1.350 . S
H105 C100 0.930 . S
H106 C101 0.930 . S
C107 O108 1.224 . S
C107 O126 1.247 . S
O108 C107 1.224 . S
N109 Co99 2.128 . S
N109 C110 1.355 . S
N109 C112 1.311 . S
C110 N109 1.355 . S
C110 C111 1.363 . S
C110 H122 0.929 . S
C111 C110 1.363 . S
C111 N113 1.375 . S
C111 H129 0.931 . S
C112 N109 1.311 . S
C112 N113 1.347 . S
C112 H123 0.929 . S
N113 C111 1.375 . S
N113 C112 1.347 . S
C114 C117 1.365 . S
C114 N119 1.328 . S
C114 H120 0.929 . S
C115 C116 1.362 . S
C115 C118 1.378 . S
C115 H130 0.929 . S
C116 C115 1.362 . S
C116 C117 1.366 . S
C117 C114 1.365 . S
C117 C116 1.366 . S
C117 H131 0.930 . S
C118 C115 1.378 . S
C118 N119 1.315 . S
C118 H121 0.930 . S
N119 Co99 2.194 . S
N119 C114 1.328 . S
N119 C118 1.315 . S
H120 C114 0.929 . S
H121 C118 0.930 . S
H122 C110 0.929 . S
H123 C112 0.929 . S
O124 Co99 2.351 . S
O124 C127 1.244 . S
O125 Co99 2.155 . S
O125 C127 1.240 . S
O126 Co99 2.096 . S
O126 C107 1.247 . S
C127 O124 1.244 . S
C127 O125 1.240 . S
H128 C102 0.931 . S
H129 C111 0.931 . S
H130 C115 0.929 . S
H131 C117 0.930 . S
Co132 N136 2.148 . S
Co132 N142 2.128 . S
Co132 N152 2.194 . S
Co132 O157 2.351 . S
Co132 O158 2.155 . S
Co132 O159 2.096 . S
C133 N136 1.301 . S
C133 N137 1.328 . S
C133 H138 0.930 . S
C134 C135 1.333 . S
C134 N136 1.317 . S
C134 H139 0.930 . S
C135 C134 1.333 . S
C135 N137 1.350 . S
C135 H161 0.931 . S
N136 Co132 2.148 . S
N136 C133 1.301 . S
N136 C134 1.317 . S
N137 C133 1.328 . S
N137 C135 1.350 . S
H138 C133 0.930 . S
H139 C134 0.930 . S
C140 O141 1.224 . S
C140 O159 1.247 . S
O141 C140 1.224 . S
N142 Co132 2.128 . S
N142 C143 1.355 . S
N142 C145 1.311 . S
C143 N142 1.355 . S
C143 C144 1.363 1_455 S
C143 H155 0.929 . S
C144 C143 1.363 1_655 S
C144 N146 1.375 . S
C144 H162 0.931 . S
C145 N142 1.311 . S
C145 N146 1.347 1_455 S
C145 H156 0.929 . S
N146 C144 1.375 . S
N146 C145 1.347 1_655 S
C147 C150 1.365 . S
C147 N152 1.328 . S
C147 H153 0.929 . S
C148 C149 1.362 . S
C148 C151 1.378 . S
C148 H163 0.929 1_455 S
C149 C148 1.362 . S
C149 C150 1.366 . S
C150 C147 1.365 . S
C150 C149 1.366 . S
C150 H164 0.930 . S
C151 C148 1.378 . S
C151 N152 1.315 . S
C151 H154 0.930 . S
N152 Co132 2.194 . S
N152 C147 1.328 . S
N152 C151 1.315 . S
H153 C147 0.929 . S
H154 C151 0.930 . S
H155 C143 0.929 . S
H156 C145 0.929 . S
O157 Co132 2.351 . S
O157 C160 1.244 . S
O158 Co132 2.155 . S
O158 C160 1.240 . S
O159 Co132 2.096 . S
O159 C140 1.247 . S
C160 O157 1.244 . S
C160 O158 1.240 . S
H161 C135 0.931 . S
H162 C144 0.931 . S
H163 C148 0.929 1_655 S
H164 C150 0.930 . S
Co165 N169 2.148 . S
Co165 N175 2.128 . S
Co165 N185 2.194 . S
Co165 O190 2.351 . S
Co165 O191 2.155 . S
Co165 O192 2.096 . S
C166 N169 1.301 . S
C166 N170 1.328 . S
C166 H171 0.930 . S
C167 C168 1.333 . S
C167 N169 1.317 . S
C167 H172 0.930 . S
C168 C167 1.333 . S
C168 N170 1.350 . S
C168 H194 0.931 . S
N169 Co165 2.148 . S
N169 C166 1.301 . S
N169 C167 1.317 . S
N170 C166 1.328 . S
N170 C168 1.350 . S
H171 C166 0.930 . S
H172 C167 0.930 . S
C173 O174 1.224 . S
C173 O192 1.247 . S
O174 C173 1.224 . S
N175 Co165 2.128 . S
N175 C176 1.355 . S
N175 C178 1.311 . S
C176 N175 1.355 . S
C176 C177 1.363 1_655 S
C176 H188 0.929 . S
C177 C176 1.363 1_455 S
C177 N179 1.375 . S
C177 H195 0.931 . S
C178 N175 1.311 . S
C178 N179 1.347 1_655 S
C178 H189 0.929 . S
N179 C177 1.375 . S
N179 C178 1.347 1_455 S
C180 C183 1.365 . S
C180 N185 1.328 . S
C180 H186 0.929 . S
C181 C182 1.362 . S
C181 C184 1.378 . S
C181 H196 0.929 1_655 S
C182 C181 1.362 . S
C182 C183 1.366 . S
C183 C180 1.365 . S
C183 C182 1.366 . S
C183 H197 0.930 . S
C184 C181 1.378 . S
C184 N185 1.315 . S
C184 H187 0.930 . S
N185 Co165 2.194 . S
N185 C180 1.328 . S
N185 C184 1.315 . S
H186 C180 0.929 . S
H187 C184 0.930 . S
H188 C176 0.929 . S
H189 C178 0.929 . S
O190 Co165 2.351 . S
O190 C193 1.244 . S
O191 Co165 2.155 . S
O191 C193 1.240 . S
O192 Co165 2.096 . S
O192 C173 1.247 . S
C193 O190 1.244 . S
C193 O191 1.240 . S
H194 C168 0.931 . S
H195 C177 0.931 . S
H196 C181 0.929 1_455 S
H197 C183 0.930 . S
Co198 N202 2.148 . S
Co198 N208 2.128 . S
Co198 N218 2.194 . S
Co198 O223 2.351 . S
Co198 O224 2.155 . S
Co198 O225 2.096 . S
C199 N202 1.301 . S
C199 N203 1.328 . S
C199 H204 0.930 . S
C200 C201 1.333 . S
C200 N202 1.317 . S
C200 H205 0.930 . S
C201 C200 1.333 . S
C201 N203 1.350 . S
C201 H227 0.931 1_545 S
N202 Co198 2.148 . S
N202 C199 1.301 . S
N202 C200 1.317 . S
N203 C199 1.328 . S
N203 C201 1.350 . S
H204 C199 0.930 . S
H205 C200 0.930 . S
C206 O207 1.224 . S
C206 O225 1.247 . S
O207 C206 1.224 . S
N208 Co198 2.128 . S
N208 C209 1.355 . S
N208 C211 1.311 . S
C209 N208 1.355 . S
C209 C210 1.363 . S
C209 H221 0.929 . S
C210 C209 1.363 . S
C210 N212 1.375 . S
C210 H228 0.931 . S
C211 N208 1.311 . S
C211 N212 1.347 . S
C211 H222 0.929 . S
N212 C210 1.375 . S
N212 C211 1.347 . S
C213 C216 1.365 . S
C213 N218 1.328 . S
C213 H219 0.929 . S
C214 C215 1.362 . S
C214 C217 1.378 . S
C214 H229 0.933 1_545 S
C215 C214 1.362 . S
C215 C216 1.366 . S
C216 C213 1.365 . S
C216 C215 1.366 . S
C216 H230 0.930 . S
C217 C214 1.378 . S
C217 N218 1.315 . S
C217 H220 0.930 . S
N218 Co198 2.194 . S
N218 C213 1.328 . S
N218 C217 1.315 . S
H219 C213 0.929 . S
H220 C217 0.930 . S
H221 C209 0.929 . S
H222 C211 0.929 . S
O223 Co198 2.351 . S
O223 C226 1.244 . S
O224 Co198 2.155 . S
O224 C226 1.240 . S
O225 Co198 2.096 . S
O225 C206 1.247 . S
C226 O223 1.244 . S
C226 O224 1.240 . S
H227 C201 0.931 1_565 S
H228 C210 0.931 . S
H229 C214 0.933 1_565 S
H230 C216 0.930 . S
Co231 N235 2.148 . S
Co231 N241 2.128 . S
Co231 N251 2.194 . S
Co231 O256 2.351 . S
Co231 O257 2.155 . S
Co231 O258 2.096 . S
C232 N235 1.301 . S
C232 N236 1.328 . S
C232 H237 0.930 . S
C233 C234 1.333 . S
C233 N235 1.317 . S
C233 H238 0.930 . S
C234 C233 1.333 . S
C234 N236 1.350 . S
C234 H260 0.931 1_565 S
N235 Co231 2.148 . S
N235 C232 1.301 . S
N235 C233 1.317 . S
N236 C232 1.328 . S
N236 C234 1.350 . S
H237 C232 0.930 . S
H238 C233 0.930 . S
C239 O240 1.224 . S
C239 O258 1.247 . S
O240 C239 1.224 . S
N241 Co231 2.128 . S
N241 C242 1.355 . S
N241 C244 1.311 . S
C242 N241 1.355 . S
C242 C243 1.363 . S
C242 H254 0.929 . S
C243 C242 1.363 . S
C243 N245 1.375 . S
C243 H261 0.931 . S
C244 N241 1.311 . S
C244 N245 1.347 . S
C244 H255 0.929 . S
N245 C243 1.375 . S
N245 C244 1.347 . S
C246 C249 1.365 . S
C246 N251 1.328 . S
C246 H252 0.929 . S
C247 C248 1.362 . S
C247 C250 1.378 . S
C247 H262 0.932 1_565 S
C248 C247 1.362 . S
C248 C249 1.366 . S
C249 C246 1.365 . S
C249 C248 1.366 . S
C249 H263 0.930 . S
C250 C247 1.378 . S
C250 N251 1.315 . S
C250 H253 0.930 . S
N251 Co231 2.194 . S
N251 C246 1.328 . S
N251 C250 1.315 . S
H252 C246 0.929 . S
H253 C250 0.930 . S
H254 C242 0.929 . S
H255 C244 0.929 . S
O256 Co231 2.351 . S
O256 C259 1.244 . S
O257 Co231 2.155 . S
O257 C259 1.240 . S
O258 Co231 2.096 . S
O258 C239 1.247 . S
C259 O256 1.244 . S
C259 O257 1.240 . S
H260 C234 0.931 1_545 S
H261 C243 0.931 . S
H262 C247 0.932 1_545 S
H263 C249 0.930 . S
Co264 N268 2.148 . S
Co264 N274 2.128 . S
Co264 N284 2.194 . S
Co264 O289 2.351 . S
Co264 O290 2.155 . S
Co264 O291 2.096 . S
C265 N268 1.301 . S
C265 N269 1.328 . S
C265 H270 0.930 . S
C266 C267 1.333 . S
C266 N268 1.317 . S
C266 H271 0.930 . S
C267 C266 1.333 . S
C267 N269 1.350 . S
C267 H293 0.931 . S
N268 Co264 2.148 . S
N268 C265 1.301 . S
N268 C266 1.317 . S
N269 C265 1.328 . S
N269 C267 1.350 . S
H270 C265 0.930 . S
H271 C266 0.930 . S
C272 O273 1.224 . S
C272 O291 1.247 . S
O273 C272 1.224 . S
N274 Co264 2.128 . S
N274 C275 1.355 . S
N274 C277 1.311 . S
C275 N274 1.355 . S
C275 C276 1.363 . S
C275 H287 0.929 . S
C276 C275 1.363 . S
C276 N278 1.375 . S
C276 H294 0.931 . S
C277 N274 1.311 . S
C277 N278 1.347 . S
C277 H288 0.929 . S
N278 C276 1.375 . S
N278 C277 1.347 . S
C279 C282 1.365 . S
C279 N284 1.328 . S
C279 H285 0.929 . S
C280 C281 1.362 . S
C280 C283 1.378 . S
C280 H295 0.929 . S
C281 C280 1.362 . S
C281 C282 1.366 . S
C282 C279 1.365 . S
C282 C281 1.366 . S
C282 H296 0.930 . S
C283 C280 1.378 . S
C283 N284 1.315 . S
C283 H286 0.930 . S
N284 Co264 2.194 . S
N284 C279 1.328 . S
N284 C283 1.315 . S
H285 C279 0.929 . S
H286 C283 0.930 . S
H287 C275 0.929 . S
H288 C277 0.929 . S
O289 Co264 2.351 . S
O289 C292 1.244 . S
O290 Co264 2.155 . S
O290 C292 1.240 . S
O291 Co264 2.096 . S
O291 C272 1.247 . S
C292 O289 1.244 . S
C292 O290 1.240 . S
H293 C267 0.931 . S
H294 C276 0.931 . S
H295 C280 0.929 . S
H296 C282 0.930 . S
Co297 N301 2.148 . S
Co297 N307 2.128 . S
Co297 N317 2.194 . S
Co297 O322 2.351 . S
Co297 O323 2.155 . S
Co297 O324 2.096 . S
C298 N301 1.301 . S
C298 N302 1.328 . S
C298 H303 0.930 . S
C299 C300 1.333 . S
C299 N301 1.317 . S
C299 H304 0.930 . S
C300 C299 1.333 . S
C300 N302 1.350 . S
C300 H326 0.931 . S
N301 Co297 2.148 . S
N301 C298 1.301 . S
N301 C299 1.317 . S
N302 C298 1.328 . S
N302 C300 1.350 . S
H303 C298 0.930 . S
H304 C299 0.930 . S
C305 O306 1.224 . S
C305 O324 1.247 . S
O306 C305 1.224 . S
N307 Co297 2.128 . S
N307 C308 1.355 . S
N307 C310 1.311 . S
C308 N307 1.355 . S
C308 C309 1.363 . S
C308 H320 0.929 . S
C309 C308 1.363 . S
C309 N311 1.375 . S
C309 H327 0.931 . S
C310 N307 1.311 . S
C310 N311 1.347 . S
C310 H321 0.929 . S
N311 C309 1.375 . S
N311 C310 1.347 . S
C312 C315 1.365 . S
C312 N317 1.328 . S
C312 H318 0.929 . S
C313 C314 1.362 . S
C313 C316 1.378 . S
C313 H328 0.929 . S
C314 C313 1.362 . S
C314 C315 1.366 . S
C315 C312 1.365 . S
C315 C314 1.366 . S
C315 H329 0.930 . S
C316 C313 1.378 . S
C316 N317 1.315 . S
C316 H319 0.930 . S
N317 Co297 2.194 . S
N317 C312 1.328 . S
N317 C316 1.315 . S
H318 C312 0.929 . S
H319 C316 0.930 . S
H320 C308 0.929 . S
H321 C310 0.929 . S
O322 Co297 2.351 . S
O322 C325 1.244 . S
O323 Co297 2.155 . S
O323 C325 1.240 . S
O324 Co297 2.096 . S
O324 C305 1.247 . S
C325 O322 1.244 . S
C325 O323 1.240 . S
H326 C300 0.931 . S
H327 C309 0.931 . S
H328 C313 0.929 . S
H329 C315 0.930 . S
Co330 N334 2.148 . S
Co330 N340 2.128 . S
Co330 N350 2.194 . S
Co330 O355 2.351 . S
Co330 O356 2.155 . S
Co330 O357 2.096 . S
C331 N334 1.301 . S
C331 N335 1.328 . S
C331 H336 0.930 . S
C332 C333 1.333 . S
C332 N334 1.317 . S
C332 H337 0.930 . S
C333 C332 1.333 . S
C333 N335 1.350 . S
C333 H359 0.931 . S
N334 Co330 2.148 . S
N334 C331 1.301 . S
N334 C332 1.317 . S
N335 C331 1.328 . S
N335 C333 1.350 . S
H336 C331 0.930 . S
H337 C332 0.930 . S
C338 O339 1.224 . S
C338 O357 1.247 . S
O339 C338 1.224 . S
N340 Co330 2.128 . S
N340 C341 1.355 . S
N340 C343 1.311 . S
C341 N340 1.355 . S
C341 C342 1.363 . S
C341 H353 0.929 . S
C342 C341 1.363 . S
C342 N344 1.375 . S
C342 H360 0.931 . S
C343 N340 1.311 . S
C343 N344 1.347 . S
C343 H354 0.929 . S
N344 C342 1.375 . S
N344 C343 1.347 . S
C345 C348 1.365 . S
C345 N350 1.328 . S
C345 H351 0.929 . S
C346 C347 1.362 . S
C346 C349 1.378 . S
C346 H361 0.929 . S
C347 C346 1.362 . S
C347 C348 1.366 . S
C348 C345 1.365 . S
C348 C347 1.366 . S
C348 H362 0.930 . S
C349 C346 1.378 . S
C349 N350 1.315 . S
C349 H352 0.930 . S
N350 Co330 2.194 . S
N350 C345 1.328 . S
N350 C349 1.315 . S
H351 C345 0.929 . S
H352 C349 0.930 . S
H353 C341 0.929 . S
H354 C343 0.929 . S
O355 Co330 2.351 . S
O355 C358 1.244 . S
O356 Co330 2.155 . S
O356 C358 1.240 . S
O357 Co330 2.096 . S
O357 C338 1.247 . S
C358 O355 1.244 . S
C358 O356 1.240 . S
H359 C333 0.931 . S
H360 C342 0.931 . S
H361 C346 0.929 . S
H362 C348 0.930 . S
Co363 N367 2.148 . S
Co363 N373 2.128 . S
Co363 N383 2.194 . S
Co363 O388 2.351 . S
Co363 O389 2.155 . S
Co363 O390 2.096 . S
C364 N367 1.301 . S
C364 N368 1.328 . S
C364 H369 0.930 . S
C365 C366 1.333 . S
C365 N367 1.317 . S
C365 H370 0.930 . S
C366 C365 1.333 . S
C366 N368 1.350 . S
C366 H392 0.931 . S
N367 Co363 2.148 . S
N367 C364 1.301 . S
N367 C365 1.317 . S
N368 C364 1.328 . S
N368 C366 1.350 . S
H369 C364 0.930 . S
H370 C365 0.930 . S
C371 O372 1.224 . S
C371 O390 1.247 . S
O372 C371 1.224 . S
N373 Co363 2.128 . S
N373 C374 1.355 . S
N373 C376 1.311 . S
C374 N373 1.355 . S
C374 C375 1.363 . S
C374 H386 0.929 . S
C375 C374 1.363 . S
C375 N377 1.375 . S
C375 H393 0.931 . S
C376 N373 1.311 . S
C376 N377 1.347 . S
C376 H387 0.929 . S
N377 C375 1.375 . S
N377 C376 1.347 . S
C378 C381 1.365 . S
C378 N383 1.328 . S
C378 H384 0.929 . S
C379 C380 1.362 . S
C379 C382 1.378 . S
C379 H394 0.929 . S
C380 C379 1.362 . S
C380 C381 1.366 . S
C381 C378 1.365 . S
C381 C380 1.366 . S
C381 H395 0.930 . S
C382 C379 1.378 . S
C382 N383 1.315 . S
C382 H385 0.930 . S
N383 Co363 2.194 . S
N383 C378 1.328 . S
N383 C382 1.315 . S
H384 C378 0.929 . S
H385 C382 0.930 . S
H386 C374 0.929 . S
H387 C376 0.929 . S
O388 Co363 2.351 . S
O388 C391 1.244 . S
O389 Co363 2.155 . S
O389 C391 1.240 . S
O390 Co363 2.096 . S
O390 C371 1.247 . S
C391 O388 1.244 . S
C391 O389 1.240 . S
H392 C366 0.931 . S
H393 C375 0.931 . S
H394 C379 0.929 . S
H395 C381 0.930 . S
Co396 N400 2.148 . S
Co396 N406 2.128 . S
Co396 N416 2.194 1_554 S
Co396 O421 2.351 1_554 S
Co396 O422 2.155 . S
Co396 O423 2.096 . S
C397 N400 1.301 1_556 S
C397 N401 1.328 . S
C397 H402 0.930 . S
C398 C399 1.333 . S
C398 N400 1.317 . S
C398 H403 0.930 . S
C399 C398 1.333 . S
C399 N401 1.350 1_554 S
C399 H425 0.931 . S
N400 Co396 2.148 . S
N400 C397 1.301 1_554 S
N400 C398 1.317 . S
N401 C397 1.328 . S
N401 C399 1.350 1_556 S
H402 C397 0.930 . S
H403 C398 0.930 . S
C404 O405 1.224 . S
C404 O423 1.247 . S
O405 C404 1.224 . S
N406 Co396 2.128 . S
N406 C407 1.355 1_554 S
N406 C409 1.311 . S
C407 N406 1.355 1_556 S
C407 C408 1.363 . S
C407 H419 0.929 . S
C408 C407 1.363 . S
C408 N410 1.375 1_556 S
C408 H426 0.931 . S
C409 N406 1.311 . S
C409 N410 1.347 . S
C409 H420 0.929 . S
N410 C408 1.375 1_554 S
N410 C409 1.347 . S
C411 C414 1.365 . S
C411 N416 1.328 . S
C411 H417 0.929 . S
C412 C413 1.362 . S
C412 C415 1.378 . S
C412 H427 0.929 . S
C413 C412 1.362 . S
C413 C414 1.366 . S
C414 C411 1.365 . S
C414 C413 1.366 . S
C414 H428 0.930 . S
C415 C412 1.378 . S
C415 N416 1.315 . S
C415 H418 0.930 . S
N416 Co396 2.194 1_556 S
N416 C411 1.328 . S
N416 C415 1.315 . S
H417 C411 0.929 . S
H418 C415 0.930 . S
H419 C407 0.929 . S
H420 C409 0.929 . S
O421 Co396 2.351 1_556 S
O421 C424 1.244 . S
O422 Co396 2.155 . S
O422 C424 1.240 1_554 S
O423 Co396 2.096 . S
O423 C404 1.247 . S
C424 O421 1.244 . S
C424 O422 1.240 1_556 S
H425 C399 0.931 . S
H426 C408 0.931 . S
H427 C412 0.929 . S
H428 C414 0.930 . S
Co429 N433 2.148 . S
Co429 N439 2.128 . S
Co429 N449 2.194 1_554 S
Co429 O454 2.351 1_554 S
Co429 O455 2.155 . S
Co429 O456 2.096 . S
C430 N433 1.301 1_556 S
C430 N434 1.328 . S
C430 H435 0.930 . S
C431 C432 1.333 . S
C431 N433 1.317 . S
C431 H436 0.930 . S
C432 C431 1.333 . S
C432 N434 1.350 1_554 S
C432 H458 0.931 . S
N433 Co429 2.148 . S
N433 C430 1.301 1_554 S
N433 C431 1.317 . S
N434 C430 1.328 . S
N434 C432 1.350 1_556 S
H435 C430 0.930 . S
H436 C431 0.930 . S
C437 O438 1.224 . S
C437 O456 1.247 . S
O438 C437 1.224 . S
N439 Co429 2.128 . S
N439 C440 1.355 1_554 S
N439 C442 1.311 . S
C440 N439 1.355 1_556 S
C440 C441 1.363 . S
C440 H452 0.929 . S
C441 C440 1.363 . S
C441 N443 1.375 1_556 S
C441 H459 0.931 . S
C442 N439 1.311 . S
C442 N443 1.347 . S
C442 H453 0.929 . S
N443 C441 1.375 1_554 S
N443 C442 1.347 . S
C444 C447 1.365 . S
C444 N449 1.328 . S
C444 H450 0.929 . S
C445 C446 1.362 . S
C445 C448 1.378 . S
C445 H460 0.929 . S
C446 C445 1.362 . S
C446 C447 1.366 . S
C447 C444 1.365 . S
C447 C446 1.366 . S
C447 H461 0.930 . S
C448 C445 1.378 . S
C448 N449 1.315 . S
C448 H451 0.930 . S
N449 Co429 2.194 1_556 S
N449 C444 1.328 . S
N449 C448 1.315 . S
H450 C444 0.929 . S
H451 C448 0.930 . S
H452 C440 0.929 . S
H453 C442 0.929 . S
O454 Co429 2.351 1_556 S
O454 C457 1.244 . S
O455 Co429 2.155 . S
O455 C457 1.240 1_554 S
O456 Co429 2.096 . S
O456 C437 1.247 . S
C457 O454 1.244 . S
C457 O455 1.240 1_556 S
H458 C432 0.931 . S
H459 C441 0.931 . S
H460 C445 0.929 . S
H461 C447 0.930 . S
Co462 N466 2.148 . S
Co462 N472 2.128 . S
Co462 N482 2.194 . S
Co462 O487 2.351 . S
Co462 O488 2.155 . S
Co462 O489 2.096 . S
C463 N466 1.301 . S
C463 N467 1.328 . S
C463 H468 0.930 . S
C464 C465 1.333 . S
C464 N466 1.317 . S
C464 H469 0.930 . S
C465 C464 1.333 . S
C465 N467 1.350 . S
C465 H491 0.931 1_545 S
N466 Co462 2.148 . S
N466 C463 1.301 . S
N466 C464 1.317 . S
N467 C463 1.328 . S
N467 C465 1.350 . S
H468 C463 0.930 . S
H469 C464 0.930 . S
C470 O471 1.224 . S
C470 O489 1.247 . S
O471 C470 1.224 . S
N472 Co462 2.128 . S
N472 C473 1.355 . S
N472 C475 1.311 . S
C473 N472 1.355 . S
C473 C474 1.363 . S
C473 H485 0.929 . S
C474 C473 1.363 . S
C474 N476 1.375 . S
C474 H492 0.931 . S
C475 N472 1.311 . S
C475 N476 1.347 . S
C475 H486 0.929 . S
N476 C474 1.375 . S
N476 C475 1.347 . S
C477 C480 1.365 . S
C477 N482 1.328 . S
C477 H483 0.929 . S
C478 C479 1.362 . S
C478 C481 1.378 . S
C478 H493 0.933 1_545 S
C479 C478 1.362 . S
C479 C480 1.366 . S
C480 C477 1.365 . S
C480 C479 1.366 . S
C480 H494 0.930 . S
C481 C478 1.378 . S
C481 N482 1.315 . S
C481 H484 0.930 . S
N482 Co462 2.194 . S
N482 C477 1.328 . S
N482 C481 1.315 . S
H483 C477 0.929 . S
H484 C481 0.930 . S
H485 C473 0.929 . S
H486 C475 0.929 . S
O487 Co462 2.351 . S
O487 C490 1.244 . S
O488 Co462 2.155 . S
O488 C490 1.240 . S
O489 Co462 2.096 . S
O489 C470 1.247 . S
C490 O487 1.244 . S
C490 O488 1.240 . S
H491 C465 0.931 1_565 S
H492 C474 0.931 . S
H493 C478 0.933 1_565 S
H494 C480 0.930 . S
Co495 N499 2.148 . S
Co495 N505 2.128 . S
Co495 N515 2.194 . S
Co495 O520 2.351 . S
Co495 O521 2.155 . S
Co495 O522 2.096 . S
C496 N499 1.301 . S
C496 N500 1.328 . S
C496 H501 0.930 . S
C497 C498 1.333 . S
C497 N499 1.317 . S
C497 H502 0.930 . S
C498 C497 1.333 . S
C498 N500 1.350 . S
C498 H524 0.931 1_565 S
N499 Co495 2.148 . S
N499 C496 1.301 . S
N499 C497 1.317 . S
N500 C496 1.328 . S
N500 C498 1.350 . S
H501 C496 0.930 . S
H502 C497 0.930 . S
C503 O504 1.224 . S
C503 O522 1.247 . S
O504 C503 1.224 . S
N505 Co495 2.128 . S
N505 C506 1.355 . S
N505 C508 1.311 . S
C506 N505 1.355 . S
C506 C507 1.363 . S
C506 H518 0.929 . S
C507 C506 1.363 . S
C507 N509 1.375 . S
C507 H525 0.931 . S
C508 N505 1.311 . S
C508 N509 1.347 . S
C508 H519 0.929 . S
N509 C507 1.375 . S
N509 C508 1.347 . S
C510 C513 1.365 . S
C510 N515 1.328 . S
C510 H516 0.929 . S
C511 C512 1.362 . S
C511 C514 1.378 . S
C511 H526 0.932 1_565 S
C512 C511 1.362 . S
C512 C513 1.366 . S
C513 C510 1.365 . S
C513 C512 1.366 . S
C513 H527 0.930 . S
C514 C511 1.378 . S
C514 N515 1.315 . S
C514 H517 0.930 . S
N515 Co495 2.194 . S
N515 C510 1.328 . S
N515 C514 1.315 . S
H516 C510 0.929 . S
H517 C514 0.930 . S
H518 C506 0.929 . S
H519 C508 0.929 . S
O520 Co495 2.351 . S
O520 C523 1.244 . S
O521 Co495 2.155 . S
O521 C523 1.240 . S
O522 Co495 2.096 . S
O522 C503 1.247 . S
C523 O520 1.244 . S
C523 O521 1.240 . S
H524 C498 0.931 1_545 S
H525 C507 0.931 . S
H526 C511 0.932 1_545 S
H527 C513 0.930 . S
C528 C529 1.369 . S
C528 C530 1.419 . S
C528 H532 0.930 . S
C529 C528 1.369 . S
C529 C538 1.429 . S
C530 C528 1.419 . S
C530 C531 1.363 . S
C530 H533 0.929 . S
C531 C530 1.363 . S
C531 C537 1.428 . S
H532 C528 0.930 . S
H533 C530 0.929 . S
S534 N535 1.613 . S
S534 N536 1.610 . S
N535 S534 1.613 . S
N535 C538 1.350 . S
N536 S534 1.610 . S
N536 C537 1.351 . S
C537 C531 1.428 . S
C537 N536 1.351 . S
C537 C538 1.434 . S
C538 C529 1.429 . S
C538 N535 1.350 . S
C538 C537 1.434 . S
C539 C540 1.369 . S
C539 C541 1.419 . S
C539 H543 0.930 . S
C540 C539 1.369 . S
C540 C549 1.429 . S
C541 C539 1.419 . S
C541 C542 1.363 . S
C541 H544 0.929 . S
C542 C541 1.363 . S
C542 C548 1.428 . S
H543 C539 0.930 . S
H544 C541 0.929 . S
S545 N546 1.613 . S
S545 N547 1.610 1_554 S
N546 S545 1.613 . S
N546 C549 1.350 1_554 S
N547 S545 1.610 1_556 S
N547 C548 1.351 . S
C548 C542 1.428 . S
C548 N547 1.351 . S
C548 C549 1.434 . S
C549 C540 1.429 . S
C549 N546 1.350 1_556 S
C549 C548 1.434 . S
C550 C551 1.369 . S
C550 C552 1.419 . S
C550 H554 0.930 . S
C551 C550 1.369 . S
C551 C560 1.429 . S
C552 C550 1.419 . S
C552 C553 1.363 . S
C552 H555 0.929 . S
C553 C552 1.363 . S
C553 C559 1.428 . S
H554 C550 0.930 . S
H555 C552 0.929 . S
S556 N557 1.613 . S
S556 N558 1.610 . S
N557 S556 1.613 . S
N557 C560 1.350 . S
N558 S556 1.610 . S
N558 C559 1.351 . S
C559 C553 1.428 . S
C559 N558 1.351 . S
C559 C560 1.434 . S
C560 C551 1.429 . S
C560 N557 1.350 . S
C560 C559 1.434 . S
C561 C562 1.369 . S
C561 C563 1.419 . S
C561 H565 0.930 . S
C562 C561 1.369 . S
C562 C571 1.429 . S
C563 C561 1.419 . S
C563 C564 1.363 . S
C563 H566 0.929 . S
C564 C563 1.363 . S
C564 C570 1.428 . S
H565 C561 0.930 . S
H566 C563 0.929 . S
S567 N568 1.613 . S
S567 N569 1.610 . S
N568 S567 1.613 . S
N568 C571 1.350 . S
N569 S567 1.610 . S
N569 C570 1.351 . S
C570 C564 1.428 . S
C570 N569 1.351 . S
C570 C571 1.434 . S
C571 C562 1.429 . S
C571 N568 1.350 . S
C571 C570 1.434 . S
C572 C573 1.369 . S
C572 C574 1.419 . S
C572 H576 0.930 . S
C573 C572 1.369 . S
C573 C582 1.429 . S
C574 C572 1.419 . S
C574 C575 1.363 . S
C574 H577 0.929 . S
C575 C574 1.363 . S
C575 C581 1.428 . S
H576 C572 0.930 . S
H577 C574 0.929 . S
S578 N579 1.613 . S
S578 N580 1.610 . S
N579 S578 1.613 . S
N579 C582 1.350 . S
N580 S578 1.610 . S
N580 C581 1.351 . S
C581 C575 1.428 . S
C581 N580 1.351 . S
C581 C582 1.434 . S
C582 C573 1.429 . S
C582 N579 1.350 . S
C582 C581 1.434 . S
C583 C584 1.369 . S
C583 C585 1.419 . S
C583 H587 0.930 . S
C584 C583 1.369 . S
C584 C593 1.429 . S
C585 C583 1.419 . S
C585 C586 1.363 . S
C585 H588 0.929 . S
C586 C585 1.363 . S
C586 C592 1.428 . S
H587 C583 0.930 . S
H588 C585 0.929 . S
S589 N590 1.613 . S
S589 N591 1.610 . S
N590 S589 1.613 . S
N590 C593 1.350 . S
N591 S589 1.610 . S
N591 C592 1.351 . S
C592 C586 1.428 . S
C592 N591 1.351 . S
C592 C593 1.434 . S
C593 C584 1.429 . S
C593 N590 1.350 . S
C593 C592 1.434 . S
C594 C595 1.369 . S
C594 C596 1.419 . S
C594 H598 0.930 . S
C595 C594 1.369 . S
C595 C604 1.429 . S
C596 C594 1.419 . S
C596 C597 1.363 . S
C596 H599 0.929 . S
C597 C596 1.363 . S
C597 C603 1.428 . S
H598 C594 0.930 . S
H599 C596 0.929 . S
S600 N601 1.616 . S
S600 N602 1.633 . S
N601 S600 1.616 . S
N601 C604 1.350 . S
N602 S600 1.633 . S
N602 C603 1.351 . S
C603 C597 1.428 . S
C603 N602 1.351 . S
C603 C604 1.434 . S
C604 C595 1.429 . S
C604 N601 1.350 . S
C604 C603 1.434 . S
C605 C606 1.369 . S
C605 C607 1.419 . S
C605 H609 0.930 . S
C606 C605 1.369 . S
C606 C615 1.429 . S
C607 C605 1.419 . S
C607 C608 1.363 . S
C607 H610 0.929 . S
C608 C607 1.363 . S
C608 C614 1.428 . S
H609 C605 0.930 . S
H610 C607 0.929 . S
S611 N612 1.633 . S
S611 N613 1.613 . S
N612 S611 1.633 . S
N612 C615 1.350 . S
N613 S611 1.613 . S
N613 C614 1.351 . S
C614 C608 1.428 . S
C614 N613 1.351 . S
C614 C615 1.434 . S
C615 C606 1.429 . S
C615 N612 1.350 . S
C615 C614 1.434 . S
C616 C617 1.369 . S
C616 C618 1.419 . S
C616 H620 0.930 . S
C617 C616 1.369 . S
C617 C626 1.429 . S
C618 C616 1.419 . S
C618 C619 1.363 . S
C618 H621 0.929 . S
C619 C618 1.363 . S
C619 C625 1.428 . S
H620 C616 0.930 . S
H621 C618 0.929 . S
S622 N623 1.613 . S
S622 N624 1.610 . S
N623 S622 1.613 . S
N623 C626 1.350 . S
N624 S622 1.610 . S
N624 C625 1.351 . S
C625 C619 1.428 . S
C625 N624 1.351 . S
C625 C626 1.434 . S
C626 C617 1.429 . S
C626 N623 1.350 . S
C626 C625 1.434 . S
C627 C628 1.369 . S
C627 C629 1.419 . S
C627 H631 0.930 . S
C628 C627 1.369 . S
C628 C637 1.429 . S
C629 C627 1.419 . S
C629 C630 1.363 . S
C629 H632 0.929 . S
C630 C629 1.363 . S
C630 C636 1.428 . S
H631 C627 0.930 . S
H632 C629 0.929 . S
S633 N634 1.613 . S
S633 N635 1.610 . S
N634 S633 1.613 . S
N634 C637 1.350 . S
N635 S633 1.610 . S
N635 C636 1.351 . S
C636 C630 1.428 . S
C636 N635 1.351 . S
C636 C637 1.434 . S
C637 C628 1.429 . S
C637 N634 1.350 . S
C637 C636 1.434 . S
C638 C639 1.369 . S
C638 C640 1.419 . S
C638 H642 0.930 . S
C639 C638 1.369 . S
C639 C648 1.429 . S
C640 C638 1.419 . S
C640 C641 1.363 . S
C640 H643 0.929 . S
C641 C640 1.363 . S
C641 C647 1.428 . S
H642 C638 0.930 . S
H643 C640 0.929 . S
S644 N645 1.613 . S
S644 N646 1.610 . S
N645 S644 1.613 . S
N645 C648 1.350 . S
N646 S644 1.610 . S
N646 C647 1.351 . S
C647 C641 1.428 . S
C647 N646 1.351 . S
C647 C648 1.434 . S
C648 C639 1.429 . S
C648 N645 1.350 . S
C648 C647 1.434 . S
C649 C650 1.369 . S
C649 C651 1.419 . S
C649 H653 0.930 . S
C650 C649 1.369 . S
C650 C659 1.429 . S
C651 C649 1.419 . S
C651 C652 1.363 . S
C651 H654 0.929 . S
C652 C651 1.363 . S
C652 C658 1.428 . S
H653 C649 0.930 . S
H654 C651 0.929 . S
S655 N656 1.613 . S
S655 N657 1.610 . S
N656 S655 1.613 . S
N656 C659 1.350 . S
N657 S655 1.610 . S
N657 C658 1.351 . S
C658 C652 1.428 . S
C658 N657 1.351 . S
C658 C659 1.434 . S
C659 C650 1.429 . S
C659 N656 1.350 . S
C659 C658 1.434 . S
C660 C661 1.369 . S
C660 C662 1.419 . S
C660 H664 0.930 . S
C661 C660 1.369 . S
C661 C670 1.429 . S
C662 C660 1.419 . S
C662 C663 1.363 . S
C662 H665 0.929 . S
C663 C662 1.363 . S
C663 C669 1.428 . S
H664 C660 0.930 . S
H665 C662 0.929 . S
S666 N667 1.613 . S
S666 N668 1.610 . S
N667 S666 1.613 . S
N667 C670 1.350 . S
N668 S666 1.610 . S
N668 C669 1.351 . S
C669 C663 1.428 . S
C669 N668 1.351 . S
C669 C670 1.434 . S
C670 C661 1.429 . S
C670 N667 1.350 . S
C670 C669 1.434 . S
C671 C672 1.369 . S
C671 C673 1.419 . S
C671 H675 0.930 . S
C672 C671 1.369 . S
C672 C681 1.429 . S
C673 C671 1.419 . S
C673 C674 1.363 . S
C673 H676 0.929 . S
C674 C673 1.363 . S
C674 C680 1.428 . S
H675 C671 0.930 . S
H676 C673 0.929 . S
S677 N678 1.613 . S
S677 N679 1.610 1_554 S
N678 S677 1.613 . S
N678 C681 1.350 1_554 S
N679 S677 1.610 1_556 S
N679 C680 1.351 . S
C680 C674 1.428 . S
C680 N679 1.351 . S
C680 C681 1.434 . S
C681 C672 1.429 . S
C681 N678 1.350 1_556 S
C681 C680 1.434 . S
C682 C683 1.369 . S
C682 C684 1.419 . S
C682 H686 0.930 . S
C683 C682 1.369 . S
C683 C692 1.429 . S
C684 C682 1.419 . S
C684 C685 1.363 . S
C684 H687 0.929 . S
C685 C684 1.363 . S
C685 C691 1.428 . S
H686 C682 0.930 . S
H687 C684 0.929 . S
S688 N689 1.613 . S
S688 N690 1.610 . S
N689 S688 1.613 . S
N689 C692 1.350 . S
N690 S688 1.610 . S
N690 C691 1.351 . S
C691 C685 1.428 . S
C691 N690 1.351 . S
C691 C692 1.434 . S
C692 C683 1.429 . S
C692 N689 1.350 . S
C692 C691 1.434 . S
C693 C694 1.369 . S
C693 C695 1.419 . S
C693 H697 0.930 . S
C694 C693 1.369 . S
C694 C703 1.429 . S
C695 C693 1.419 . S
C695 C696 1.363 . S
C695 H698 0.929 . S
C696 C695 1.363 . S
C696 C702 1.428 . S
H697 C693 0.930 . S
H698 C695 0.929 . S
S699 N700 1.613 . S
S699 N701 1.610 . S
N700 S699 1.613 . S
N700 C703 1.350 . S
N701 S699 1.610 . S
N701 C702 1.351 . S
C702 C696 1.428 . S
C702 N701 1.351 . S
C702 C703 1.434 . S
C703 C694 1.429 . S
C703 N700 1.350 . S
C703 C702 1.434 . S
C704 C705 1.369 . S
C704 C706 1.419 . S
C704 H708 0.930 . S
C705 C704 1.369 . S
C705 C714 1.429 1_455 S
C706 C704 1.419 . S
C706 C707 1.363 . S
C706 H709 0.929 . S
C707 C706 1.363 . S
C707 C713 1.428 . S
H708 C704 0.930 . S
H709 C706 0.929 . S
S710 N711 1.613 . S
S710 N712 1.610 . S
N711 S710 1.613 . S
N711 C714 1.350 . S
N712 S710 1.610 . S
N712 C713 1.351 1_655 S
C713 C707 1.428 . S
C713 N712 1.351 1_455 S
C713 C714 1.434 1_455 S
C714 C705 1.429 1_655 S
C714 N711 1.350 . S
C714 C713 1.434 1_655 S
C715 C716 1.369 . S
C715 C717 1.419 . S
C715 H719 0.930 . S
C716 C715 1.369 . S
C716 C725 1.429 1_655 S
C717 C715 1.419 . S
C717 C718 1.363 . S
C717 H720 0.929 . S
C718 C717 1.363 . S
C718 C724 1.428 . S
H719 C715 0.930 . S
H720 C717 0.929 . S
S721 N722 1.613 . S
S721 N723 1.610 . S
N722 S721 1.613 . S
N722 C725 1.350 . S
N723 S721 1.610 . S
N723 C724 1.351 1_455 S
C724 C718 1.428 . S
C724 N723 1.351 1_655 S
C724 C725 1.434 1_655 S
C725 C716 1.429 1_455 S
C725 N722 1.350 . S
C725 C724 1.434 1_455 S
C726 C727 1.369 . S
C726 C728 1.419 . S
C726 H730 0.930 . S
C727 C726 1.369 . S
C727 C736 1.429 . S
C728 C726 1.419 . S
C728 C729 1.363 . S
C728 H731 0.929 . S
C729 C728 1.363 . S
C729 C735 1.428 . S
H730 C726 0.930 . S
H731 C728 0.929 . S
S732 N733 1.613 . S
S732 N734 1.610 . S
N733 S732 1.613 . S
N733 C736 1.350 . S
N734 S732 1.610 . S
N734 C735 1.351 . S
C735 C729 1.428 . S
C735 N734 1.351 . S
C735 C736 1.434 . S
C736 C727 1.429 . S
C736 N733 1.350 . S
C736 C735 1.434 . S
C737 C738 1.369 . S
C737 C739 1.419 . S
C737 H741 0.930 . S
C738 C737 1.369 . S
C738 C747 1.429 . S
C739 C737 1.419 . S
C739 C740 1.363 . S
C739 H742 0.929 . S
C740 C739 1.363 . S
C740 C746 1.428 . S
H741 C737 0.930 . S
H742 C739 0.929 . S
S743 N744 1.613 . S
S743 N745 1.610 . S
N744 S743 1.613 . S
N744 C747 1.350 . S
N745 S743 1.610 . S
N745 C746 1.351 . S
C746 C740 1.428 . S
C746 N745 1.351 . S
C746 C747 1.434 . S
C747 C738 1.429 . S
C747 N744 1.350 . S
C747 C746 1.434 . S
C748 C749 1.369 1_655 S
C748 C750 1.419 . S
C748 H752 0.930 . S
C749 C748 1.369 1_455 S
C749 C758 1.429 . S
C750 C748 1.419 . S
C750 C751 1.363 1_655 S
C750 H753 0.929 . S
C751 C750 1.363 1_455 S
C751 C757 1.428 . S
H752 C748 0.930 . S
H753 C750 0.929 . S
S754 N755 1.613 . S
S754 N756 1.610 . S
N755 S754 1.613 . S
N755 C758 1.350 . S
N756 S754 1.610 . S
N756 C757 1.351 . S
C757 C751 1.428 . S
C757 N756 1.351 . S
C757 C758 1.434 . S
C758 C749 1.429 . S
C758 N755 1.350 . S
C758 C757 1.434 . S
C759 C760 1.369 1_455 S
C759 C761 1.419 1_455 S
C759 H763 0.930 . S
C760 C759 1.369 1_655 S
C760 C769 1.429 . S
C761 C759 1.419 1_655 S
C761 C762 1.363 . S
C761 H764 0.929 1_655 S
C762 C761 1.363 . S
C762 C768 1.428 . S
H763 C759 0.930 . S
H764 C761 0.929 1_455 S
S765 N766 1.613 . S
S765 N767 1.610 . S
N766 S765 1.613 . S
N766 C769 1.350 . S
N767 S765 1.610 . S
N767 C768 1.351 . S
C768 C762 1.428 . S
C768 N767 1.351 . S
C768 C769 1.434 . S
C769 C760 1.429 . S
C769 N766 1.350 . S
C769 C768 1.434 . S
C770 C771 1.369 1_554 S
C770 C772 1.419 . S
C770 H774 0.930 . S
C771 C770 1.369 1_556 S
C771 C780 1.429 . S
C772 C770 1.419 . S
C772 C773 1.363 1_545 S
C772 H775 0.929 . S
C773 C772 1.363 1_565 S
C773 C779 1.428 1_554 S
H774 C770 0.930 . S
H775 C772 0.929 . S
S776 N777 1.613 1_565 S
S776 N778 1.610 . S
N777 S776 1.613 1_545 S
N777 C780 1.350 . S
N778 S776 1.610 . S
N778 C779 1.351 . S
C779 C773 1.428 1_556 S
C779 N778 1.351 . S
C779 C780 1.434 1_565 S
C780 C771 1.429 . S
C780 N777 1.350 . S
C780 C779 1.434 1_545 S
C781 C782 1.369 . S
C781 C783 1.419 . S
C781 H785 0.930 . S
C782 C781 1.369 . S
C782 C791 1.429 . S
C783 C781 1.419 . S
C783 C784 1.363 1_566 S
C783 H786 0.942 . S
C784 C783 1.363 1_544 S
C784 C790 1.428 1_545 S
H785 C781 0.930 . S
H786 C783 0.942 . S
S787 N788 1.613 . S
S787 N789 1.610 1_565 S
N788 S787 1.613 . S
N788 C791 1.350 1_554 S
N789 S787 1.610 1_545 S
N789 C790 1.351 1_545 S
C790 C784 1.428 1_565 S
C790 N789 1.351 1_565 S
C790 C791 1.434 1_554 S
C791 C782 1.429 . S
C791 N788 1.350 1_556 S
C791 C790 1.434 1_556 S
C792 C793 1.369 . S
C792 C794 1.419 . S
C792 H796 0.930 . S
C793 C792 1.369 . S
C793 C802 1.429 . S
C794 C792 1.419 . S
C794 C795 1.363 . S
C794 H797 0.929 . S
C795 C794 1.363 . S
C795 C801 1.428 . S
H796 C792 0.930 . S
H797 C794 0.929 . S
S798 N799 1.613 . S
S798 N800 1.610 . S
N799 S798 1.613 . S
N799 C802 1.350 . S
N800 S798 1.610 . S
N800 C801 1.351 . S
C801 C795 1.428 . S
C801 N800 1.351 . S
C801 C802 1.434 . S
C802 C793 1.429 . S
C802 N799 1.350 . S
C802 C801 1.434 . S
C803 C804 1.369 . S
C803 C805 1.419 . S
C803 H807 0.930 . S
C804 C803 1.369 . S
C804 C813 1.429 . S
C805 C803 1.419 . S
C805 C806 1.363 . S
C805 H808 0.929 . S
C806 C805 1.363 . S
C806 C812 1.428 . S
H807 C803 0.930 . S
H808 C805 0.929 . S
S809 N810 1.613 . S
S809 N811 1.610 . S
N810 S809 1.613 . S
N810 C813 1.350 . S
N811 S809 1.610 . S
N811 C812 1.351 . S
C812 C806 1.428 . S
C812 N811 1.351 . S
C812 C813 1.434 . S
C813 C804 1.429 . S
C813 N810 1.350 . S
C813 C812 1.434 . S
C814 C815 1.369 1_556 S
C814 C816 1.419 . S
C814 H818 0.930 . S
C815 C814 1.369 1_554 S
C815 C824 1.429 . S
C816 C814 1.419 . S
C816 C817 1.363 . S
C816 H819 0.929 . S
C817 C816 1.363 . S
C817 C823 1.428 1_556 S
H818 C814 0.930 . S
H819 C816 0.929 . S
S820 N821 1.613 . S
S820 N822 1.610 . S
N821 S820 1.613 . S
N821 C824 1.350 . S
N822 S820 1.610 . S
N822 C823 1.351 . S
C823 C817 1.428 1_554 S
C823 N822 1.351 . S
C823 C824 1.434 . S
C824 C815 1.429 . S
C824 N821 1.350 . S
C824 C823 1.434 . S
C825 C826 1.369 . S
C825 C827 1.419 1_554 S
C825 H829 0.930 . S
C826 C825 1.369 . S
C826 C835 1.429 . S
C827 C825 1.419 1_556 S
C827 C828 1.363 . S
C827 H830 0.929 . S
C828 C827 1.363 . S
C828 C834 1.428 . S
H829 C825 0.930 . S
H830 C827 0.929 . S
S831 N832 1.613 1_556 S
S831 N833 1.610 . S
N832 S831 1.613 1_554 S
N832 C835 1.350 . S
N833 S831 1.610 . S
N833 C834 1.351 . S
C834 C828 1.428 . S
C834 N833 1.351 . S
C834 C835 1.434 1_556 S
C835 C826 1.429 . S
C835 N832 1.350 . S
C835 C834 1.434 1_554 S
C836 C837 1.369 . S
C836 C838 1.419 . S
C836 H840 0.930 . S
C837 C836 1.369 . S
C837 C846 1.429 . S
C838 C836 1.419 . S
C838 C839 1.363 . S
C838 H841 0.929 . S
C839 C838 1.363 . S
C839 C845 1.428 . S
H840 C836 0.930 . S
H841 C838 0.929 . S
S842 N843 1.613 . S
S842 N844 1.610 . S
N843 S842 1.613 . S
N843 C846 1.350 . S
N844 S842 1.610 . S
N844 C845 1.351 . S
C845 C839 1.428 . S
C845 N844 1.351 . S
C845 C846 1.434 . S
C846 C837 1.429 . S
C846 N843 1.350 . S
C846 C845 1.434 . S
C847 C848 1.369 . S
C847 C849 1.419 . S
C847 H851 0.930 . S
C848 C847 1.369 . S
C848 C857 1.429 . S
C849 C847 1.419 . S
C849 C850 1.363 . S
C849 H852 0.929 . S
C850 C849 1.363 . S
C850 C856 1.428 . S
H851 C847 0.930 . S
H852 C849 0.929 . S
S853 N854 1.613 . S
S853 N855 1.610 . S
N854 S853 1.613 . S
N854 C857 1.350 . S
N855 S853 1.610 . S
N855 C856 1.351 . S
C856 C850 1.428 . S
C856 N855 1.351 . S
C856 C857 1.434 . S
C857 C848 1.429 . S
C857 N854 1.350 . S
C857 C856 1.434 . S
C858 C859 1.369 . S
C858 C860 1.419 1_565 S
C858 H862 0.930 . S
C859 C858 1.369 . S
C859 C868 1.429 1_565 S
C860 C858 1.419 1_545 S
C860 C861 1.363 . S
C860 H863 0.929 . S
C861 C860 1.363 . S
C861 C867 1.428 . S
H862 C858 0.930 . S
H863 C860 0.929 . S
S864 N865 1.613 . S
S864 N866 1.610 . S
N865 S864 1.613 . S
N865 C868 1.350 . S
N866 S864 1.610 . S
N866 C867 1.351 . S
C867 C861 1.428 . S
C867 N866 1.351 . S
C867 C868 1.434 . S
C868 C859 1.429 1_545 S
C868 N865 1.350 . S
C868 C867 1.434 . S
C869 C870 1.369 . S
C869 C871 1.419 1_545 S
C869 H873 0.930 . S
C870 C869 1.369 . S
C870 C879 1.429 1_545 S
C871 C869 1.419 1_565 S
C871 C872 1.363 . S
C871 H874 0.929 . S
C872 C871 1.363 . S
C872 C878 1.428 . S
H873 C869 0.930 . S
H874 C871 0.929 . S
S875 N876 1.613 . S
S875 N877 1.610 . S
N876 S875 1.613 . S
N876 C879 1.350 . S
N877 S875 1.610 . S
N877 C878 1.351 . S
C878 C872 1.428 . S
C878 N877 1.351 . S
C878 C879 1.434 . S
C879 C870 1.429 1_565 S
C879 N876 1.350 . S
C879 C878 1.434 . S
C880 C881 1.369 . S
C880 C882 1.419 . S
C880 H884 0.930 . S
C881 C880 1.369 . S
C881 C890 1.429 1_556 S
C882 C880 1.419 . S
C882 C883 1.363 . S
C882 H885 0.929 . S
C883 C882 1.363 . S
C883 C889 1.428 1_556 S
H884 C880 0.930 . S
H885 C882 0.929 . S
S886 N887 1.613 . S
S886 N888 1.610 . S
N887 S886 1.613 . S
N887 C890 1.350 . S
N888 S886 1.610 . S
N888 C889 1.351 . S
C889 C883 1.428 1_554 S
C889 N888 1.351 . S
C889 C890 1.434 . S
C890 C881 1.429 1_554 S
C890 N887 1.350 . S
C890 C889 1.434 . S
C891 C892 1.369 1_554 S
C891 C893 1.419 . S
C891 H895 0.930 . S
C892 C891 1.369 1_556 S
C892 C901 1.429 . S
C893 C891 1.419 . S
C893 C894 1.363 1_554 S
C893 H896 0.929 . S
C894 C893 1.363 1_556 S
C894 C900 1.428 . S
H895 C891 0.930 . S
H896 C893 0.929 . S
S897 N898 1.613 . S
S897 N899 1.610 . S
N898 S897 1.613 . S
N898 C901 1.350 . S
N899 S897 1.610 . S
N899 C900 1.351 . S
C900 C894 1.428 . S
C900 N899 1.351 . S
C900 C901 1.434 . S
C901 C892 1.429 . S
C901 N898 1.350 . S
C901 C900 1.434 . S
C902 C903 1.369 . S
C902 C904 1.419 1_455 S
C902 H906 0.930 . S
C903 C902 1.369 . S
C903 C912 1.429 . S
C904 C902 1.419 1_655 S
C904 C905 1.363 . S
C904 H907 0.929 . S
C905 C904 1.363 . S
C905 C911 1.428 . S
H906 C902 0.930 . S
H907 C904 0.929 . S
S908 N909 1.613 . S
S908 N910 1.610 1_455 S
N909 S908 1.613 . S
N909 C912 1.350 . S
N910 S908 1.610 1_655 S
N910 C911 1.351 . S
C911 C905 1.428 . S
C911 N910 1.351 . S
C911 C912 1.434 1_655 S
C912 C903 1.429 . S
C912 N909 1.350 . S
C912 C911 1.434 1_455 S
C913 C914 1.369 . S
C913 C915 1.419 . S
C913 H917 0.930 . S
C914 C913 1.369 . S
C914 C923 1.429 . S
C915 C913 1.419 . S
C915 C916 1.363 . S
C915 H918 0.929 . S
C916 C915 1.363 . S
C916 C922 1.428 . S
H917 C913 0.930 . S
H918 C915 0.929 . S
S919 N920 1.613 . S
S919 N921 1.610 . S
N920 S919 1.613 . S
N920 C923 1.350 . S
N921 S919 1.610 . S
N921 C922 1.351 . S
C922 C916 1.428 . S
C922 N921 1.351 . S
C922 C923 1.434 . S
C923 C914 1.429 . S
C923 N920 1.350 . S
C923 C922 1.434 . S
C924 C925 1.369 . S
C924 C926 1.419 . S
C924 H928 0.930 . S
C925 C924 1.369 . S
C925 C934 1.429 . S
C926 C924 1.419 . S
C926 C927 1.363 . S
C926 H929 0.929 . S
C927 C926 1.363 . S
C927 C933 1.428 . S
H928 C924 0.930 . S
H929 C926 0.929 . S
S930 N931 1.613 . S
S930 N932 1.610 . S
N931 S930 1.613 . S
N931 C934 1.350 . S
N932 S930 1.610 . S
N932 C933 1.351 . S
C933 C927 1.428 . S
C933 N932 1.351 . S
C933 C934 1.434 . S
C934 C925 1.429 . S
C934 N931 1.350 . S
C934 C933 1.434 . S
C935 C936 1.369 1_565 S
C935 C937 1.419 1_455 S
C935 H939 0.930 . S
C936 C935 1.369 1_545 S
C936 C945 1.429 . S
C937 C935 1.419 1_655 S
C937 C938 1.363 . S
C937 H940 0.929 . S
C938 C937 1.363 . S
C938 C944 1.428 1_565 S
H939 C935 0.930 . S
H940 C937 0.929 . S
S941 N942 1.613 1_655 S
S941 N943 1.610 . S
N942 S941 1.613 1_455 S
N942 C945 1.350 . S
N943 S941 1.610 . S
N943 C944 1.351 . S
C944 C938 1.428 1_545 S
C944 N943 1.351 . S
C944 C945 1.434 1_655 S
C945 C936 1.429 . S
C945 N942 1.350 . S
C945 C944 1.434 1_455 S
C946 C947 1.369 . S
C946 C948 1.419 . S
C946 H950 0.930 . S
C947 C946 1.369 . S
C947 C956 1.429 . S
C948 C946 1.419 . S
C948 C949 1.363 . S
C948 H951 0.929 . S
C949 C948 1.363 . S
C949 C955 1.428 . S
H950 C946 0.930 . S
H951 C948 0.929 . S
S952 N953 1.613 . S
S952 N954 1.610 . S
N953 S952 1.613 . S
N953 C956 1.350 . S
N954 S952 1.610 . S
N954 C955 1.351 . S
C955 C949 1.428 . S
C955 N954 1.351 . S
C955 C956 1.434 . S
C956 C947 1.429 . S
C956 N953 1.350 . S
C956 C955 1.434 . S
C957 C958 1.369 1_545 S
C957 C959 1.419 . S
C957 H961 0.930 . S
C958 C957 1.369 1_565 S
C958 C967 1.429 . S
C959 C957 1.419 . S
C959 C960 1.363 . S
C959 H962 0.929 . S
C960 C959 1.363 . S
C960 C966 1.428 1_545 S
H961 C957 0.930 . S
H962 C959 0.929 . S
S963 N964 1.613 . S
S963 N965 1.610 . S
N964 S963 1.613 . S
N964 C967 1.350 . S
N965 S963 1.610 . S
N965 C966 1.351 . S
C966 C960 1.428 1_565 S
C966 N965 1.351 . S
C966 C967 1.434 . S
C967 C958 1.429 . S
C967 N964 1.350 . S
C967 C966 1.434 . S
C529 C28 1.775 . S
C531 N377 1.797 . S
C540 C61 1.775 . S
C542 N344 1.800 . S
C551 N47 1.797 . S
C553 C94 1.772 . S
C562 N14 1.800 . S
C564 C127 1.770 . S
C573 C160 1.771 . S
C575 N509 1.801 . S
C584 C193 1.771 . S
C586 N476 1.798 . S
C595 N179 1.796 . S
C597 C226 1.774 . S
C606 C259 1.773 . S
C608 N146 1.798 . S
C617 N113 1.799 . S
C619 C292 1.770 . S
C628 N80 1.796 . S
C630 C325 1.774 . S
C639 N311 1.798 . S
C641 C358 1.771 . S
C650 N278 1.802 . S
C652 C391 1.772 . S
C661 C424 1.770 . S
C663 N245 1.801 . S
C672 C457 1.777 . S
C674 N212 1.798 . S
C683 C490 1.776 . S
C685 N443 1.797 . S
C694 N410 1.797 . S
C696 C523 1.774 . S
C705 C182 1.271 1_455 S
C707 C8 1.241 . S
C716 C149 1.267 1_655 S
C718 C41 1.245 . S
C727 C74 1.242 . S
C729 C380 1.269 . S
C738 C347 1.268 . S
C740 C107 1.249 . S
C749 C50 1.271 1_455 S
C751 C140 1.247 . S
C760 C17 1.273 1_655 S
C762 C173 1.245 . S
C771 C206 1.240 . S
C773 C512 1.271 . S
C782 C239 1.249 . S
C784 C479 1.270 . S
C793 C272 1.249 . S
C795 C446 1.267 . S
C804 C413 1.270 . S
C806 C305 1.247 . S
C815 C116 1.268 . S
C817 C338 1.249 . S
C826 C83 1.273 . S
C828 C371 1.243 . S
C837 C314 1.273 . S
C839 C404 1.242 . S
C848 C281 1.272 . S
C850 C437 1.245 . S
C859 C248 1.267 . S
C861 C470 1.245 . S
C870 C215 1.267 . S
C872 C503 1.247 . S
C881 N434 1.440 . S
C883 N5 1.441 . S
C892 N38 1.447 . S
C894 N401 1.444 . S
C903 N71 1.449 . S
C905 N104 1.446 . S
C914 N302 1.443 . S
C916 N137 1.442 . S
C925 N170 1.446 . S
C927 N269 1.447 . S
C936 N203 1.439 . S
C938 N236 1.441 . S
C947 N368 1.446 . S
C949 N335 1.448 . S
C958 N500 1.441 . S
C960 N467 1.444 . S
