# Generated by pormake.
# Topology une, (4)-cn, num edge types: 1
# Building blocks:
#     Node 0, Type 0, BuildingBlock: UXUYUI_clean_sbu_0, # of connection points: 4
#     Node 1, Type 0, BuildingBlock: UXUYUI_clean_sbu_0, # of connection points: 4
#     Node 2, Type 0, BuildingBlock: UXUYUI_clean_sbu_0, # of connection points: 4
#     Node 3, Type 0, BuildingBlock: UXUYUI_clean_sbu_0, # of connection points: 4
#     Node 4, Type 0, BuildingBlock: UXUYUI_clean_sbu_0, # of connection points: 4
#     Node 5, Type 0, BuildingBlock: UXUYUI_clean_sbu_0, # of connection points: 4
#     Node 6, Type 0, BuildingBlock: UXUYUI_clean_sbu_0, # of connection points: 4
#     Node 7, Type 0, BuildingBlock: UXUYUI_clean_sbu_0, # of connection points: 4
#     Node 8, Type 0, BuildingBlock: UXUYUI_clean_sbu_0, # of connection points: 4
#     Node 9, Type 0, BuildingBlock: UXUYUI_clean_sbu_0, # of connection points: 4
#     Node 10, Type 0, BuildingBlock: UXUYUI_clean_sbu_0, # of connection points: 4
#     Node 11, Type 0, BuildingBlock: UXUYUI_clean_sbu_0, # of connection points: 4
#     Node 12, Type 0, BuildingBlock: UXUYUI_clean_sbu_0, # of connection points: 4
#     Node 13, Type 0, BuildingBlock: UXUYUI_clean_sbu_0, # of connection points: 4
#     Node 14, Type 0, BuildingBlock: UXUYUI_clean_sbu_0, # of connection points: 4
#     Node 15, Type 0, BuildingBlock: UXUYUI_clean_sbu_0, # of connection points: 4
#     Node 16, Type 0, BuildingBlock: UXUYUI_clean_sbu_0, # of connection points: 4
#     Node 17, Type 0, BuildingBlock: UXUYUI_clean_sbu_0, # of connection points: 4
#     Edge 18, Type (0, 0), BuildingBlock: AJUNOK_clean_linker_0, # of connection points: 2
#     Edge 19, Type (0, 0), BuildingBlock: AJUNOK_clean_linker_0, # of connection points: 2
#     Edge 20, Type (0, 0), BuildingBlock: AJUNOK_clean_linker_0, # of connection points: 2
#     Edge 21, Type (0, 0), BuildingBlock: AJUNOK_clean_linker_0, # of connection points: 2
#     Edge 22, Type (0, 0), BuildingBlock: AJUNOK_clean_linker_0, # of connection points: 2
#     Edge 23, Type (0, 0), BuildingBlock: AJUNOK_clean_linker_0, # of connection points: 2
#     Edge 24, Type (0, 0), BuildingBlock: AJUNOK_clean_linker_0, # of connection points: 2
#     Edge 25, Type (0, 0), BuildingBlock: AJUNOK_clean_linker_0, # of connection points: 2
#     Edge 26, Type (0, 0), BuildingBlock: AJUNOK_clean_linker_0, # of connection points: 2
#     Edge 27, Type (0, 0), BuildingBlock: AJUNOK_clean_linker_0, # of connection points: 2
#     Edge 28, Type (0, 0), BuildingBlock: AJUNOK_clean_linker_0, # of connection points: 2
#     Edge 29, Type (0, 0), BuildingBlock: AJUNOK_clean_linker_0, # of connection points: 2
#     Edge 30, Type (0, 0), BuildingBlock: AJUNOK_clean_linker_0, # of connection points: 2
#     Edge 31, Type (0, 0), BuildingBlock: AJUNOK_clean_linker_0, # of connection points: 2
#     Edge 32, Type (0, 0), BuildingBlock: AJUNOK_clean_linker_0, # of connection points: 2
#     Edge 33, Type (0, 0), BuildingBlock: AJUNOK_clean_linker_0, # of connection points: 2
#     Edge 34, Type (0, 0), BuildingBlock: AJUNOK_clean_linker_0, # of connection points: 2
#     Edge 35, Type (0, 0), BuildingBlock: AJUNOK_clean_linker_0, # of connection points: 2
#     Edge 36, Type (0, 0), BuildingBlock: AJUNOK_clean_linker_0, # of connection points: 2
#     Edge 37, Type (0, 0), BuildingBlock: AJUNOK_clean_linker_0, # of connection points: 2
#     Edge 38, Type (0, 0), BuildingBlock: AJUNOK_clean_linker_0, # of connection points: 2
#     Edge 39, Type (0, 0), BuildingBlock: AJUNOK_clean_linker_0, # of connection points: 2
#     Edge 40, Type (0, 0), BuildingBlock: AJUNOK_clean_linker_0, # of connection points: 2
#     Edge 41, Type (0, 0), BuildingBlock: AJUNOK_clean_linker_0, # of connection points: 2
#     Edge 42, Type (0, 0), BuildingBlock: AJUNOK_clean_linker_0, # of connection points: 2
#     Edge 43, Type (0, 0), BuildingBlock: AJUNOK_clean_linker_0, # of connection points: 2
#     Edge 44, Type (0, 0), BuildingBlock: AJUNOK_clean_linker_0, # of connection points: 2
#     Edge 45, Type (0, 0), BuildingBlock: AJUNOK_clean_linker_0, # of connection points: 2
#     Edge 46, Type (0, 0), BuildingBlock: AJUNOK_clean_linker_0, # of connection points: 2
#     Edge 47, Type (0, 0), BuildingBlock: AJUNOK_clean_linker_0, # of connection points: 2
#     Edge 48, Type (0, 0), BuildingBlock: AJUNOK_clean_linker_0, # of connection points: 2
#     Edge 49, Type (0, 0), BuildingBlock: AJUNOK_clean_linker_0, # of connection points: 2
#     Edge 50, Type (0, 0), BuildingBlock: AJUNOK_clean_linker_0, # of connection points: 2
#     Edge 51, Type (0, 0), BuildingBlock: AJUNOK_clean_linker_0, # of connection points: 2
#     Edge 52, Type (0, 0), BuildingBlock: AJUNOK_clean_linker_0, # of connection points: 2
#     Edge 53, Type (0, 0), BuildingBlock: AJUNOK_clean_linker_0, # of connection points: 2
# Relax obj value: 0.347
# Max RMSD: 0.226
# Mean RMSD: 0.222
data_MOF--net-une--node1-UXUYUI_clean_sbu_0--edge1-AJUNOK_clean_linker_0
_symmetry_space_group_name_H-M    P1
_symmetry_Int_Tables_number       1
_symmetry_cell_setting            triclinic
loop_
_symmetry_equiv_pos_as_xyz
'x, y, z'
_cell_length_a     45.577386
_cell_length_b     45.538781
_cell_length_c     64.995079
_cell_angle_alpha  89.949554
_cell_angle_beta   89.962352
_cell_angle_gamma 120.02706
loop_
_atom_site_label
_atom_site_type_symbol
_atom_site_fract_x
_atom_site_fract_y
_atom_site_fract_z
_atom_type_partial_charge
Li0 Li 0.35269 0.07557 0.04614 0.0
Li1 Li 0.35898 0.07329 0.08365 0.0
Li2 Li 0.38558 0.04978 0.0596 0.0
Li3 Li 0.32448 0.01976 0.066 0.0
C4 C 0.4242 0.12348 0.05392 0.0
N5 N 0.48242 0.17556 0.0365 0.0
C6 C 0.44793 0.14991 0.06618 0.0
C7 C 0.43009 0.12358 0.03282 0.0
C8 C 0.47721 0.17601 0.05708 0.0
C9 C 0.45966 0.15009 0.02429 0.0
C10 C 0.29972 0.07141 0.07808 0.0
C11 C 0.25887 0.06545 0.10377 0.0
N12 N 0.26704 0.09817 0.10045 0.0
C13 C 0.30748 0.10487 0.07478 0.0
C14 C 0.27503 0.05141 0.09257 0.0
C15 C 0.29078 0.11798 0.0863 0.0
C16 C 0.32468 0.08243 0.0092 0.0
N17 N 0.34692 0.09982 0.02454 0.0
C18 C 0.35916 0.1527 0.00978 0.0
C19 C 0.36396 0.13424 0.02518 0.0
C20 C 0.33641 0.13549 0.99371 0.0
C21 C 0.31894 0.09991 0.9935 0.0
H22 H 0.31111 0.055 0.00933 0.0
H23 H 0.38076 0.14734 0.03789 0.0
C24 C 0.3743 0.13317 0.10494 0.0
N25 N 0.36092 0.09916 0.10749 0.0
C26 C 0.36931 0.15233 0.11988 0.0
C27 C 0.33789 0.1014 0.14015 0.0
C28 C 0.34372 0.08328 0.12491 0.0
C29 C 0.34996 0.1362 0.13745 0.0
H30 H 0.38696 0.14504 0.09069 0.0
H31 H 0.33291 0.05624 0.12653 0.0
C32 C 0.35245 0.01595 0.02234 0.0
N33 N 0.36047 0.98426 0.98823 0.0
C34 C 0.3413 0.98122 0.02278 0.0
C35 C 0.36704 0.03435 0.00431 0.0
C36 C 0.34579 0.96573 0.00547 0.0
C37 C 0.37104 0.01794 0.9873 0.0
C38 C 0.3502 0.00417 0.09966 0.0
C39 C 0.36866 0.98753 0.10252 0.0
C40 C 0.31987 0.99314 0.11039 0.0
C41 C 0.35632 0.95996 0.11601 0.0
C42 C 0.30836 0.96546 0.12373 0.0
N43 N 0.32667 0.94957 0.12624 0.0
C44 C 0.4517 0.06319 0.04505 0.0
C45 C 0.40894 0.00591 0.04978 0.0
C46 C 0.47181 0.05304 0.03434 0.0
N47 N 0.42026 0.03964 0.05174 0.0
C48 C 0.42793 0.99468 0.03897 0.0
C49 C 0.45921 0.01844 0.03045 0.0
H50 H 0.46071 0.08984 0.04714 0.0
H51 H 0.38412 0.98768 0.05554 0.0
C52 C 0.25671 0.97481 0.0578 0.0
N53 N 0.28515 0.97619 0.06537 0.0
C54 C 0.22902 0.94377 0.05208 0.0
C55 C 0.25966 0.91599 0.06327 0.0
C56 C 0.28681 0.94757 0.0687 0.0
C57 C 0.23082 0.91402 0.05416 0.0
H58 H 0.25647 0.99806 0.05484 0.0
H59 H 0.31009 0.94937 0.07403 0.0
O60 O 0.39506 0.09813 0.06254 0.0
O61 O 0.31649 0.05844 0.06737 0.0
O62 O 0.34819 0.03156 0.0392 0.0
O63 O 0.36189 0.0311 0.08643 0.0
H64 H 0.44379 0.15026 0.08255 0.0
H65 H 0.41209 0.10338 0.02317 0.0
H66 H 0.49578 0.19664 0.06638 0.0
H67 H 0.4645 0.15041 0.00797 0.0
H68 H 0.23987 0.05035 0.11513 0.0
H69 H 0.3266 0.12072 0.06368 0.0
H70 H 0.26852 0.02538 0.09519 0.0
H71 H 0.29678 0.14395 0.08406 0.0
H72 H 0.37227 0.18011 0.0108 0.0
H73 H 0.3009 0.08587 0.98146 0.0
H74 H 0.37891 0.1791 0.11722 0.0
H75 H 0.32326 0.08817 0.15365 0.0
H76 H 0.32975 0.9664 0.03643 0.0
H77 H 0.37485 0.06091 0.00328 0.0
H78 H 0.33762 0.93896 0.00575 0.0
H79 H 0.3824 0.03196 0.9733 0.0
H80 H 0.39234 0.99592 0.09448 0.0
H81 H 0.305 0.00534 0.10811 0.0
H82 H 0.37032 0.94683 0.11837 0.0
H83 H 0.28479 0.95651 0.13201 0.0
H84 H 0.49611 0.07206 0.02823 0.0
H85 H 0.41775 0.96773 0.03669 0.0
H86 H 0.20762 0.94346 0.04463 0.0
H87 H 0.26205 0.8936 0.06494 0.0
Li88 Li 0.95351 0.33812 0.06039 0.0
Li89 Li 0.98378 0.30664 0.06232 0.0
Li90 Li 0.92827 0.28178 0.04494 0.0
Li91 Li 0.93293 0.28668 0.08309 0.0
C92 C 0.97137 0.33731 0.01956 0.0
N93 N 0.9731 0.37001 0.98338 0.0
C94 C 0.00124 0.35379 0.00805 0.0
C95 C 0.94235 0.33737 0.01267 0.0
C96 C 0.00159 0.37016 0.98978 0.0
C97 C 0.94376 0.35409 0.99435 0.0
C98 C 0.99796 0.34301 0.10087 0.0
C99 C 0.02371 0.33268 0.13031 0.0
N100 N 0.04383 0.36671 0.13294 0.0
C101 C 0.01872 0.37788 0.10394 0.0
C102 C 0.00031 0.3202 0.11421 0.0
C103 C 0.04182 0.38936 0.12021 0.0
C104 C 0.93876 0.39023 0.04834 0.0
N105 N 0.96307 0.38279 0.05387 0.0
C106 C 0.00639 0.43469 0.03926 0.0
C107 C 0.9964 0.40464 0.05003 0.0
C108 C 0.98185 0.44241 0.03233 0.0
C109 C 0.94772 0.42033 0.03767 0.0
H110 H 0.91234 0.3719 0.05101 0.0
H111 H 0.01499 0.3974 0.05394 0.0
C112 C 0.03005 0.29457 0.04243 0.0
N113 N 0.02761 0.31231 0.0585 0.0
C114 C 0.0615 0.29948 0.03639 0.0
C115 C 0.08756 0.34102 0.06349 0.0
C116 C 0.05548 0.33503 0.06916 0.0
C117 C 0.09073 0.32348 0.0467 0.0
H118 H 0.00757 0.27737 0.03388 0.0
H119 H 0.05319 0.34954 0.0815 0.0
C120 C 0.87206 0.27646 0.06647 0.0
N121 N 0.80431 0.22974 0.07247 0.0
C122 C 0.86135 0.24189 0.0681 0.0
C123 C 0.84831 0.28723 0.0679 0.0
C124 C 0.82699 0.21869 0.07114 0.0
C125 C 0.81417 0.26321 0.07092 0.0
C126 C 0.95476 0.23611 0.06418 0.0
C127 C 0.9382 0.2075 0.0516 0.0
C128 C 0.98147 0.2401 0.07669 0.0
C129 C 0.94917 0.18383 0.05135 0.0
C130 C 0.99172 0.2159 0.076 0.0
N131 N 0.97553 0.18852 0.06343 0.0
C132 C 0.92014 0.24353 0.00966 0.0
C133 C 0.87236 0.24926 0.01715 0.0
C134 C 0.90294 0.2215 0.99344 0.0
N135 N 0.90418 0.25572 0.02163 0.0
C136 C 0.85417 0.22724 0.00119 0.0
C137 C 0.86909 0.21219 0.98956 0.0
H138 H 0.94589 0.25002 0.01319 0.0
H139 H 0.86069 0.26048 0.02622 0.0
C140 C 0.88552 0.2654 0.11723 0.0
N141 N 0.91021 0.26196 0.10766 0.0
C142 C 0.86596 0.24274 0.13287 0.0
C143 C 0.89846 0.21444 0.129 0.0
C144 C 0.91712 0.23736 0.11347 0.0
C145 C 0.87203 0.21646 0.13865 0.0
H146 H 0.88018 0.28492 0.11225 0.0
H147 H 0.93651 0.2348 0.10564 0.0
O148 O 0.97096 0.3222 0.03783 0.0
O149 O 0.97539 0.33147 0.08493 0.0
O150 O 0.90565 0.29985 0.06391 0.0
O151 O 0.94439 0.25966 0.06441 0.0
H152 H 0.02395 0.35412 0.01327 0.0
H153 H 0.91915 0.32513 0.02156 0.0
H154 H 0.02455 0.3831 0.98073 0.0
H155 H 0.92157 0.35457 0.98891 0.0
H156 H 0.02588 0.3153 0.14071 0.0
H157 H 0.01708 0.39588 0.09381 0.0
H158 H 0.98436 0.29321 0.11214 0.0
H159 H 0.05814 0.41627 0.12272 0.0
H160 H 0.0329 0.45074 0.03537 0.0
H161 H 0.92804 0.42566 0.03304 0.0
H162 H 0.06315 0.28594 0.02315 0.0
H163 H 0.10972 0.35985 0.07167 0.0
H164 H 0.87928 0.233 0.06704 0.0
H165 H 0.85622 0.3139 0.06674 0.0
H166 H 0.81836 0.1919 0.07246 0.0
H167 H 0.79551 0.2712 0.07206 0.0
H168 H 0.91679 0.20333 0.04232 0.0
H169 H 0.99438 0.2618 0.08672 0.0
H170 H 0.93663 0.16165 0.04162 0.0
H171 H 0.01256 0.21889 0.08547 0.0
H172 H 0.9156 0.2111 0.98445 0.0
H173 H 0.82817 0.22088 0.9986 0.0
H174 H 0.84611 0.24549 0.14017 0.0
H175 H 0.90392 0.19453 0.13291 0.0
Li176 Li 0.68864 0.67423 0.06147 0.0
Li177 Li 0.7097 0.64195 0.07851 0.0
Li178 Li 0.72232 0.65663 0.04121 0.0
Li179 Li 0.66257 0.61546 0.05223 0.0
C180 C 0.76192 0.7167 0.07166 0.0
N181 N 0.81436 0.7785 0.08479 0.0
C182 C 0.76522 0.72528 0.09251 0.0
C183 C 0.78535 0.73953 0.0575 0.0
C184 C 0.79189 0.75664 0.09884 0.0
C185 C 0.81165 0.77067 0.06444 0.0
C186 C 0.64416 0.64404 0.09191 0.0
C187 C 0.59089 0.63855 0.10245 0.0
N188 N 0.60775 0.66535 0.11538 0.0
C189 C 0.66093 0.67136 0.1054 0.0
C190 C 0.60883 0.62734 0.09049 0.0
C191 C 0.64209 0.68183 0.11708 0.0
C192 C 0.64527 0.70145 0.05969 0.0
N193 N 0.67826 0.7102 0.06234 0.0
C194 C 0.69606 0.76847 0.05612 0.0
C195 C 0.70342 0.74316 0.0614 0.0
C196 C 0.66249 0.75976 0.05184 0.0
C197 C 0.6367 0.72605 0.05485 0.0
H198 H 0.62578 0.67505 0.05971 0.0
H199 H 0.72947 0.7497 0.06304 0.0
C200 C 0.7612 0.63661 0.09721 0.0
N201 N 0.73316 0.6386 0.1018 0.0
C202 C 0.78415 0.64038 0.11261 0.0
C203 C 0.74875 0.64777 0.13733 0.0
C204 C 0.72622 0.64349 0.12144 0.0
C205 C 0.77843 0.64664 0.13295 0.0
H206 H 0.76639 0.63341 0.08137 0.0
H207 H 0.70417 0.64578 0.1246 0.0
C208 C 0.67567 0.67568 0.0207 0.0
N209 N 0.66706 0.71891 0.99485 0.0
C210 C 0.64351 0.66638 0.0131 0.0
C211 C 0.70344 0.70695 0.0152 0.0
C212 C 0.63971 0.68854 0.99997 0.0
C213 C 0.69854 0.72852 0.00217 0.0
C214 C 0.69562 0.57915 0.06059 0.0
C215 C 0.70648 0.5603 0.04926 0.0
C216 C 0.67537 0.56489 0.07802 0.0
C217 C 0.69688 0.52735 0.05557 0.0
C218 C 0.66631 0.53187 0.08383 0.0
N219 N 0.67716 0.51394 0.07258 0.0
C220 C 0.78621 0.67437 0.0267 0.0
C221 C 0.74595 0.66296 1.00029 0.0
C222 C 0.81089 0.67975 0.01219 0.0
N223 N 0.75457 0.66614 0.02052 0.0
C224 C 0.76991 0.66809 0.98521 0.0
C225 C 0.80273 0.67627 0.99117 0.0
H226 H 0.79202 0.67621 0.04295 0.0
H227 H 0.72038 0.65593 0.99591 0.0
C228 C 0.59512 0.55457 0.05011 0.0
N229 N 0.62362 0.57809 0.04025 0.0
C230 C 0.56686 0.53128 0.03867 0.0
C231 C 0.59824 0.55668 0.00746 0.0
C232 C 0.62582 0.57893 0.01939 0.0
C233 C 0.56812 0.53243 0.017 0.0
H234 H 0.594 0.55441 0.06673 0.0
H235 H 0.64874 0.59793 0.01194 0.0
O236 O 0.73611 0.68606 0.06509 0.0
O237 O 0.66213 0.63344 0.08028 0.0
O238 O 0.67992 0.65427 0.03352 0.0
O239 O 0.70471 0.61136 0.05452 0.0
H240 H 0.74744 0.70799 0.1037 0.0
H241 H 0.78311 0.73341 0.04129 0.0
H242 H 0.79474 0.7636 0.11493 0.0
H243 H 0.8299 0.78861 0.05364 0.0
H244 H 0.56356 0.62599 0.10143 0.0
H245 H 0.68822 0.68461 0.10663 0.0
H246 H 0.59545 0.60616 0.08011 0.0
H247 H 0.65478 0.7031 0.12748 0.0
H248 H 0.71679 0.7941 0.05382 0.0
H249 H 0.61038 0.71835 0.05212 0.0
H250 H 0.80654 0.6391 0.10856 0.0
H251 H 0.74368 0.65331 0.15269 0.0
H252 H 0.62172 0.64233 0.01733 0.0
H253 H 0.72845 0.71458 0.02108 0.0
H254 H 0.61498 0.68166 0.99393 0.0
H255 H 0.71976 0.75289 0.99787 0.0
H256 H 0.72215 0.57102 0.03572 0.0
H257 H 0.66673 0.57909 0.087 0.0
H258 H 0.70509 0.51244 0.04695 0.0
H259 H 0.65066 0.5205 0.09728 0.0
H260 H 0.83584 0.68564 0.01737 0.0
H261 H 0.76283 0.66547 0.96913 0.0
H262 H 0.54412 0.51297 0.04666 0.0
H263 H 0.6002 0.55945 0.99089 0.0
Li264 Li 0.61352 0.95622 0.94499 0.0
Li265 Li 0.674 0.98938 0.93831 0.0
Li266 Li 0.64388 0.93778 0.91782 0.0
Li267 Li 0.65222 0.9355 0.95466 0.0
C268 C 0.65001 0.0086 0.90812 0.0
N269 N 0.67954 0.07099 0.88878 0.0
C270 C 0.64167 0.03295 0.91419 0.0
C271 C 0.6732 0.01587 0.89214 0.0
C272 C 0.65691 0.06437 0.90424 0.0
C273 C 0.68791 0.0476 0.88258 0.0
C274 C 0.66084 0.99764 0.98048 0.0
C275 C 0.69469 0.02329 0.01076 0.0
N276 N 0.6811 0.04382 0.0124 0.0
C277 C 0.64688 0.01871 0.98265 0.0
C278 C 0.68463 0.99965 0.99482 0.0
C279 C 0.65757 0.042 0.99881 0.0
C280 C 0.57015 0.95016 0.97595 0.0
N281 N 0.57573 0.95852 0.95567 0.0
C282 C 0.5379 0.98062 0.95683 0.0
C283 C 0.55964 0.97286 0.94583 0.0
C284 C 0.53315 0.9738 0.97806 0.0
C285 C 0.54898 0.95769 0.98749 0.0
H286 H 0.58397 0.93964 0.9835 0.0
H287 H 0.56501 0.97985 0.92979 0.0
C288 C 0.74173 0.04125 0.93003 0.0
N289 N 0.71127 0.03496 0.93757 0.0
C290 C 0.7707 0.07271 0.9333 0.0
C291 C 0.73564 0.09188 0.94965 0.0
C292 C 0.70748 0.06006 0.94615 0.0
C293 C 0.76791 0.09785 0.9441 0.0
H294 H 0.74389 0.02134 0.92241 0.0
H295 H 0.68281 0.05507 0.95102 0.0
C296 C 0.59572 0.87817 0.94657 0.0
N297 N 0.57187 0.81402 0.96277 0.0
C298 C 0.60605 0.85654 0.93817 0.0
C299 C 0.57304 0.86705 0.9631 0.0
C300 C 0.59375 0.82422 0.94659 0.0
C301 C 0.56135 0.83457 0.97111 0.0
C302 C 0.7158 0.9559 0.93924 0.0
C303 C 0.72768 0.93662 0.92933 0.0
C304 C 0.73376 0.97627 0.95594 0.0
C305 C 0.75727 0.93795 0.93638 0.0
C306 C 0.76328 0.97699 0.96251 0.0
N307 N 0.77431 0.95795 0.95268 0.0
C308 C 0.67522 0.92831 0.88395 0.0
C309 C 0.61698 0.88686 0.88613 0.0
C310 C 0.68034 0.90987 0.86863 0.0
N311 N 0.64421 0.91611 0.89277 0.0
C312 C 0.62093 0.86763 0.87071 0.0
C313 C 0.65325 0.8785 0.8623 0.0
H314 H 0.69653 0.95144 0.88971 0.0
H315 H 0.59266 0.8775 0.89357 0.0
C316 C 0.64598 0.90808 0.99456 0.0
N317 N 0.65756 0.90885 0.97515 0.0
C318 C 0.64552 0.88512 0.00902 0.0
C319 C 0.66933 0.86475 0.98325 0.0
C320 C 0.66945 0.88807 0.96939 0.0
C321 C 0.65657 0.86264 0.00315 0.0
H322 H 0.63588 0.92435 0.99855 0.0
H323 H 0.67734 0.88829 0.95371 0.0
O324 O 0.63594 0.97796 0.91794 0.0
O325 O 0.65017 0.97417 0.96496 0.0
O326 O 0.60821 0.91024 0.93887 0.0
O327 O 0.68671 0.95473 0.93262 0.0
H328 H 0.62407 0.02786 0.92669 0.0
H329 H 0.67998 0.99731 0.88731 0.0
H330 H 0.65088 0.08356 0.90887 0.0
H331 H 0.70603 0.05365 0.87026 0.0
H332 H 0.71318 0.02518 0.0219 0.0
H333 H 0.62841 0.01757 0.97175 0.0
H334 H 0.69498 0.98291 0.99383 0.0
H335 H 0.64719 0.05865 1.00053 0.0
H336 H 0.52637 0.99338 0.94909 0.0
H337 H 0.54591 0.95201 0.0038 0.0
H338 H 0.79517 0.07677 0.92838 0.0
H339 H 0.73245 0.1108 0.95784 0.0
H340 H 0.62402 0.86488 0.9256 0.0
H341 H 0.56467 0.88337 0.96975 0.0
H342 H 0.6018 0.80736 0.94038 0.0
H343 H 0.54394 0.82572 0.98398 0.0
H344 H 0.71398 0.92047 0.91648 0.0
H345 H 0.72523 0.9917 0.96356 0.0
H346 H 0.76665 0.92304 0.92892 0.0
H347 H 0.77747 0.99276 0.97537 0.0
H348 H 0.70566 0.91921 0.86261 0.0
H349 H 0.59916 0.84399 0.86591 0.0
H350 H 0.63538 0.88393 0.02427 0.0
H351 H 0.67815 0.84778 0.97828 0.0
Li352 Li 0.06879 0.70848 0.91698 0.0
Li353 Li 0.07021 0.72269 0.95314 0.0
Li354 Li 0.04699 0.6617 0.94609 0.0
Li355 Li 0.01715 0.69141 0.93685 0.0
C356 C 0.12482 0.71616 0.94942 0.0
N357 N 0.18625 0.74851 0.9698 0.0
C358 C 0.15269 0.74421 0.94051 0.0
C359 C 0.12829 0.70445 0.96864 0.0
C360 C 0.18351 0.76023 0.95106 0.0
C361 C 0.15951 0.72119 0.97872 0.0
C362 C 0.06583 0.77142 0.93205 0.0
C363 C 0.06341 0.81824 0.94768 0.0
N364 N 0.09144 0.84038 0.93689 0.0
C365 C 0.09461 0.79472 0.92109 0.0
C366 C 0.05005 0.78334 0.9454 0.0
C367 C 0.10716 0.82943 0.92375 0.0
C368 C 0.07542 0.74133 0.88012 0.0
N369 N 0.09021 0.72678 0.8911 0.0
C370 C 0.14028 0.75507 0.87041 0.0
C371 C 0.12146 0.73204 0.88606 0.0
C372 C 0.12669 0.77274 0.86014 0.0
C373 C 0.09331 0.76453 0.86451 0.0
H374 H 0.05091 0.73736 0.88475 0.0
H375 H 0.13273 0.72028 0.89508 0.0
C376 C 0.08857 0.7495 0.99352 0.0
N377 N 0.09674 0.75622 0.97325 0.0
C378 C 0.10847 0.77301 0.00853 0.0
C379 C 0.14518 0.80949 0.98156 0.0
C380 C 0.12454 0.78547 0.96714 0.0
C381 C 0.13722 0.80336 0.00253 0.0
H382 H 0.06699 0.72561 0.99808 0.0
H383 H 0.13131 0.78986 0.95109 0.0
C384 C 0.99612 0.6424 0.90912 0.0
N385 N 0.93361 0.60415 0.89064 0.0
C386 C 0.97422 0.60917 0.91568 0.0
C387 C 0.98635 0.65607 0.89305 0.0
C388 C 0.9427 0.59026 0.90616 0.0
C389 C 0.9546 0.63636 0.88395 0.0
C390 C 0.00318 0.6769 0.97705 0.0
C391 C 0.97974 0.64343 0.98245 0.0
C392 C 0.99883 0.7033 0.98441 0.0
C393 C 0.95206 0.63694 0.99484 0.0
C394 C 0.97077 0.69578 0.99671 0.0
N395 N 0.94815 0.66302 0.00161 0.0
C396 C 0.04277 0.62205 0.97913 0.0
C397 C 0.03458 0.59218 0.9479 0.0
C398 C 0.03441 0.59301 0.99057 0.0
N399 N 0.04195 0.62104 0.95823 0.0
C400 C 0.02638 0.56241 0.95881 0.0
C401 C 0.02538 0.56241 0.98049 0.0
H402 H 0.04846 0.64521 0.98701 0.0
H403 H 0.0341 0.59197 0.93126 0.0
C404 C 0.96901 0.71238 0.93032 0.0
N405 N 0.97258 0.68535 0.9353 0.0
C406 C 0.93831 0.71133 0.93392 0.0
C407 C 0.91465 0.65344 0.94563 0.0
C408 C 0.94572 0.65562 0.94176 0.0
C409 C 0.91113 0.68202 0.9425 0.0
H410 H 0.99047 0.7354 0.92463 0.0
H411 H 0.94902 0.63432 0.94535 0.0
O412 O 0.09423 0.70047 0.93952 0.0
O413 O 0.05286 0.73722 0.92949 0.0
O414 O 0.02695 0.6614 0.91838 0.0
O415 O 0.03021 0.68378 0.96464 0.0
H416 H 0.15039 0.75408 0.92585 0.0
H417 H 0.10703 0.68287 0.9758 0.0
H418 H 0.20518 0.78215 0.94441 0.0
H419 H 0.16247 0.7125 0.99366 0.0
H420 H 0.05143 0.82773 0.95799 0.0
H421 H 0.1078 0.78629 0.91106 0.0
H422 H 0.0276 0.76588 0.95385 0.0
H423 H 0.12953 0.84766 0.91546 0.0
H424 H 0.16593 0.76068 0.86735 0.0
H425 H 0.08186 0.77734 0.85672 0.0
H426 H 0.10197 0.76721 0.02463 0.0
H427 H 0.16729 0.83261 0.97639 0.0
H428 H 0.98125 0.59827 0.92819 0.0
H429 H 0.00296 0.68172 0.88781 0.0
H430 H 0.9254 0.5646 0.91117 0.0
H431 H 0.94662 0.6467 0.87159 0.0
H432 H 0.98232 0.62256 0.97671 0.0
H433 H 0.01697 0.72934 0.98071 0.0
H434 H 0.93356 0.61114 0.99894 0.0
H435 H 0.96702 0.71598 0.00238 0.0
H436 H 0.03384 0.5943 0.00719 0.0
H437 H 0.02053 0.53964 0.95037 0.0
H438 H 0.93641 0.73378 0.93114 0.0
H439 H 0.89456 0.63052 0.95256 0.0
Li440 Li 0.28573 0.35822 0.95087 0.0
Li441 Li 0.30564 0.32391 0.93274 0.0
Li442 Li 0.34244 0.38433 0.93722 0.0
Li443 Li 0.29163 0.36131 0.91272 0.0
C444 C 0.34567 0.35533 0.97311 0.0
N445 N 0.39625 0.36966 0.00148 0.0
C446 C 0.36336 0.33758 0.97266 0.0
C447 C 0.35351 0.38013 0.98812 0.0
C448 C 0.38884 0.34521 0.98712 0.0
C449 C 0.37926 0.38712 0.00226 0.0
C450 C 0.23584 0.29002 0.93003 0.0
C451 C 0.19843 0.2386 0.91173 0.0
N452 N 0.18343 0.22354 0.92983 0.0
C453 C 0.21983 0.27416 0.94842 0.0
C454 C 0.22489 0.27223 0.9115 0.0
C455 C 0.19348 0.24048 0.94801 0.0
C456 C 0.23075 0.36194 0.96605 0.0
N457 N 0.2565 0.35687 0.97184 0.0
C458 C 0.23614 0.34558 0.00645 0.0
C459 C 0.25962 0.34871 0.99154 0.0
C460 C 0.20974 0.35136 0.00089 0.0
C461 C 0.20719 0.35975 0.98048 0.0
H462 H 0.22823 0.36714 0.95012 0.0
H463 H 0.27978 0.34379 0.99553 0.0
C464 C 0.31809 0.2689 0.92189 0.0
N465 N 0.30346 0.28121 0.93494 0.0
C466 C 0.32021 0.24034 0.92736 0.0
C467 C 0.29079 0.23684 0.95903 0.0
C468 C 0.28935 0.2654 0.95301 0.0
C469 C 0.30734 0.22467 0.94644 0.0
H470 H 0.32963 0.28193 0.90776 0.0
H471 H 0.27885 0.2763 0.96338 0.0
C472 C 0.29796 0.42054 0.94104 0.0
N473 N 0.27434 0.4607 0.95763 0.0
C474 C 0.27689 0.42834 0.92949 0.0
C475 C 0.30743 0.4336 0.96091 0.0
C476 C 0.26513 0.44859 0.93817 0.0
C477 C 0.29509 0.45371 0.96907 0.0
C478 C 0.34183 0.34363 0.89493 0.0
C479 C 0.37519 0.35087 0.89203 0.0
C480 C 0.31667 0.32221 0.88115 0.0
C481 C 0.38277 0.33632 0.87543 0.0
C482 C 0.32527 0.3082 0.86472 0.0
N483 N 0.35786 0.31546 0.86223 0.0
C484 C 0.41052 0.40553 0.94529 0.0
C485 C 0.39612 0.44801 0.95152 0.0
C486 C 0.44106 0.42416 0.95586 0.0
N487 N 0.38824 0.41707 0.94402 0.0
C488 C 0.42678 0.46787 0.96182 0.0
C489 C 0.44932 0.45555 0.96467 0.0
H490 H 0.40331 0.38052 0.9396 0.0
H491 H 0.37789 0.45652 0.95047 0.0
C492 C 0.23474 0.35385 0.89453 0.0
N493 N 0.26715 0.3631 0.88938 0.0
C494 C 0.21145 0.35021 0.87947 0.0
C495 C 0.25523 0.36603 0.8538 0.0
C496 C 0.27792 0.36953 0.86949 0.0
C497 C 0.22149 0.35621 0.85879 0.0
H498 H 0.22677 0.34858 0.91043 0.0
H499 H 0.30375 0.37655 0.86575 0.0
O500 O 0.32101 0.34865 0.95884 0.0
O501 O 0.26174 0.32296 0.93012 0.0
O502 O 0.30925 0.40027 0.9329 0.0
O503 O 0.33404 0.35775 0.91106 0.0
H504 H 0.35794 0.31854 0.96106 0.0
H505 H 0.34005 0.39404 0.98876 0.0
H506 H 0.40288 0.33184 0.98686 0.0
H507 H 0.38578 0.40646 0.01385 0.0
H508 H 0.18976 0.2245 0.89751 0.0
H509 H 0.22784 0.28759 0.96289 0.0
H510 H 0.23653 0.28427 0.89708 0.0
H511 H 0.18103 0.22782 0.96215 0.0
H512 H 0.23834 0.3385 0.02205 0.0
H513 H 0.18656 0.36351 0.97564 0.0
H514 H 0.333 0.23146 0.91722 0.0
H515 H 0.28103 0.22576 0.974 0.0
H516 H 0.26966 0.41884 0.91399 0.0
H517 H 0.32374 0.42789 0.97005 0.0
H518 H 0.24866 0.45467 0.92945 0.0
H519 H 0.30196 0.4637 0.98451 0.0
H520 H 0.39503 0.36756 0.90248 0.0
H521 H 0.29078 0.3163 0.88318 0.0
H522 H 0.40847 0.34163 0.87303 0.0
H523 H 0.30602 0.29151 0.85397 0.0
H524 H 0.45694 0.41301 0.95812 0.0
H525 H 0.43224 0.49208 0.96814 0.0
H526 H 0.18554 0.34188 0.88394 0.0
H527 H 0.26385 0.37075 0.83798 0.0
Li528 Li 0.03446 0.40884 0.3833 0.0
Li529 Li 0.03078 0.40119 0.42143 0.0
Li530 Li 0.06263 0.38043 0.39831 0.0
Li531 Li 0.00141 0.35222 0.39876 0.0
C532 C 0.09249 0.46105 0.39806 0.0
N533 N 0.13137 0.52801 0.38599 0.0
C534 C 0.09382 0.48694 0.41028 0.0
C535 C 0.11111 0.46926 0.37977 0.0
C536 C 0.1136 0.52063 0.4039 0.0
C537 C 0.13053 0.50324 0.3739 0.0
C538 C 0.96056 0.37761 0.3971 0.0
C539 C 0.90196 0.33986 0.40609 0.0
N540 N 0.89229 0.34681 0.38779 0.0
C541 C 0.94997 0.38451 0.37844 0.0
C542 C 0.9363 0.35526 0.41111 0.0
C543 C 0.91537 0.36866 0.374 0.0
C544 C 0.02847 0.42537 0.34211 0.0
N545 N 0.03502 0.43722 0.36176 0.0
C546 C 0.03717 0.48856 0.35152 0.0
C547 C 0.03888 0.46792 0.36673 0.0
C548 C 0.03047 0.47699 0.33114 0.0
C549 C 0.02599 0.44498 0.32643 0.0
H550 H 0.02385 0.4002 0.33873 0.0
H551 H 0.04227 0.47596 0.3826 0.0
C552 C 0.0522 0.43944 0.45997 0.0
N553 N 0.02696 0.42278 0.44599 0.0
C554 C 0.04784 0.45716 0.47627 0.0
C555 C 0.9915 0.43932 0.46376 0.0
C556 C 0.9971 0.42255 0.44767 0.0
C557 C 0.01707 0.4571 0.47824 0.0
H558 H 0.07596 0.43977 0.45816 0.0
H559 H 0.97767 0.40991 0.43624 0.0
C560 C 0.04242 0.35376 0.35971 0.0
N561 N 0.06377 0.3276 0.32854 0.0
C562 C 0.0279 0.31866 0.35747 0.0
C563 C 0.06815 0.37551 0.34627 0.0
C564 C 0.03897 0.30594 0.34157 0.0
C565 C 0.07859 0.3618 0.33062 0.0
C566 C 0.01498 0.33281 0.43708 0.0
C567 C 0.02135 0.30593 0.43909 0.0
C568 C 0.99197 0.33487 0.45038 0.0
C569 C 0.00422 0.28132 0.45421 0.0
C570 C 0.97537 0.30977 0.46531 0.0
N571 N 0.98176 0.28372 0.46688 0.0
C572 C 0.12932 0.39568 0.38585 0.0
C573 C 0.08914 0.33769 0.39132 0.0
C574 C 0.15106 0.38692 0.37579 0.0
N575 N 0.09853 0.37105 0.39274 0.0
C576 C 0.11005 0.32784 0.38144 0.0
C577 C 0.14083 0.35255 0.37275 0.0
H578 H 0.13612 0.42199 0.38693 0.0
H579 H 0.06417 0.31859 0.39634 0.0
C580 C 0.95104 0.30925 0.3734 0.0
N581 N 0.96177 0.3099 0.39298 0.0
C582 C 0.9236 0.2801 0.36558 0.0
C583 C 0.91772 0.25255 0.39837 0.0
C584 C 0.94552 0.28248 0.40562 0.0
C585 C 0.90692 0.25115 0.37799 0.0
H586 H 0.96436 0.3314 0.3637 0.0
H587 H 0.95421 0.28343 0.42114 0.0
O588 O 0.07302 0.42789 0.404 0.0
O589 O 0.99443 0.39236 0.40154 0.0
O590 O 0.03118 0.36671 0.3748 0.0
O591 O 0.03174 0.35728 0.42246 0.0
H592 H 0.0795 0.48112 0.42443 0.0
H593 H 0.11018 0.4496 0.37003 0.0
H594 H 0.11475 0.5409 0.41316 0.0
H595 H 0.14486 0.50991 0.3597 0.0
H596 H 0.883 0.32228 0.41671 0.0
H597 H 0.96816 0.40178 0.36741 0.0
H598 H 0.94389 0.34938 0.42557 0.0
H599 H 0.90688 0.37369 0.35958 0.0
H600 H 0.03958 0.51267 0.35578 0.0
H601 H 0.01999 0.43505 0.31092 0.0
H602 H 0.06826 0.47088 0.48711 0.0
H603 H 0.96772 0.43926 0.46449 0.0
H604 H 0.00839 0.30139 0.36792 0.0
H605 H 0.0798 0.40271 0.34782 0.0
H606 H 0.02789 0.27885 0.33962 0.0
H607 H 0.09839 0.37835 0.32007 0.0
H608 H 0.03934 0.30407 0.42913 0.0
H609 H 0.98679 0.35547 0.44916 0.0
H610 H 0.00883 0.26033 0.45588 0.0
H611 H 0.95738 0.311 0.47562 0.0
H612 H 0.17465 0.40675 0.36937 0.0
H613 H 0.1015 0.30108 0.3798 0.0
H614 H 0.91575 0.28002 0.34983 0.0
H615 H 0.90551 0.23053 0.40831 0.0
Li616 Li 0.6185 0.674 0.39417 0.0
Li617 Li 0.64882 0.64122 0.40076 0.0
Li618 Li 0.59663 0.61651 0.38096 0.0
Li619 Li 0.59416 0.62073 0.41713 0.0
C620 C 0.64568 0.65727 0.3545 0.0
N621 N 0.65686 0.65569 0.31284 0.0
C622 C 0.65884 0.63745 0.34703 0.0
C623 C 0.63814 0.67625 0.34079 0.0
C624 C 0.6643 0.63697 0.32591 0.0
C625 C 0.64403 0.67514 0.31979 0.0
C626 C 0.66461 0.68496 0.43261 0.0
C627 C 0.70745 0.68815 0.45577 0.0
N628 N 0.72287 0.72258 0.45541 0.0
C629 C 0.68074 0.72036 0.43258 0.0
C630 C 0.67791 0.66868 0.4444 0.0
C631 C 0.71021 0.73894 0.44417 0.0
C632 C 0.60734 0.73019 0.38415 0.0
N633 N 0.62964 0.71882 0.38646 0.0
C634 C 0.67278 0.76731 0.36878 0.0
C635 C 0.66215 0.73729 0.37968 0.0
C636 C 0.64969 0.7784 0.36471 0.0
C637 C 0.61697 0.76026 0.37324 0.0
H638 H 0.58171 0.7152 0.38983 0.0
H639 H 0.67932 0.7276 0.38172 0.0
C640 C 0.69673 0.62094 0.39417 0.0
N641 N 0.69323 0.6478 0.39972 0.0
C642 C 0.72808 0.62603 0.38768 0.0
C643 C 0.75209 0.6861 0.39382 0.0
C644 C 0.72016 0.67991 0.39996 0.0
C645 C 0.75589 0.65912 0.38667 0.0
H646 H 0.67464 0.59594 0.39309 0.0
H647 H 0.71648 0.701 0.40352 0.0
C648 C 0.54148 0.62 0.38464 0.0
N649 N 0.48322 0.59007 0.36102 0.0
C650 C 0.51914 0.58503 0.38579 0.0
C651 C 0.53406 0.63974 0.3715 0.0
C652 C 0.48989 0.57037 0.37371 0.0
C653 C 0.50449 0.62415 0.3597 0.0
C654 C 0.60262 0.56664 0.41333 0.0
C655 C 0.5701 0.53826 0.4122 0.0
C656 C 0.6265 0.56613 0.42661 0.0
C657 C 0.56199 0.50993 0.4244 0.0
C658 C 0.61742 0.53729 0.43855 0.0
N659 N 0.58564 0.51002 0.43718 0.0
C660 C 0.5748 0.55855 0.35686 0.0
C661 C 0.56451 0.59952 0.34115 0.0
C662 C 0.55877 0.53607 0.34073 0.0
N663 N 0.57651 0.58918 0.35711 0.0
C664 C 0.5481 0.57772 0.32468 0.0
C665 C 0.54477 0.54538 0.32451 0.0
H666 H 0.58539 0.55129 0.36938 0.0
H667 H 0.5671 0.62442 0.34137 0.0
C668 C 0.53408 0.5829 0.4414 0.0
N669 N 0.5684 0.59717 0.4413 0.0
C670 C 0.51455 0.55899 0.45643 0.0
C671 C 0.56611 0.56651 0.47176 0.0
C672 C 0.58461 0.59056 0.45662 0.0
C673 C 0.53059 0.54961 0.47136 0.0
H674 H 0.52169 0.58888 0.4293 0.0
H675 H 0.61186 0.60236 0.4564 0.0
O676 O 0.63999 0.65792 0.37512 0.0
O677 O 0.63583 0.66643 0.42126 0.0
O678 O 0.57047 0.63477 0.39622 0.0
O679 O 0.61114 0.59456 0.40135 0.0
H680 H 0.66443 0.62231 0.35738 0.0
H681 H 0.6275 0.69137 0.34626 0.0
H682 H 0.67438 0.62167 0.31991 0.0
H683 H 0.63827 0.68966 0.309 0.0
H684 H 0.71818 0.67588 0.46481 0.0
H685 H 0.67058 0.73338 0.42376 0.0
H686 H 0.66596 0.64137 0.44449 0.0
H687 H 0.72301 0.76635 0.44424 0.0
H688 H 0.6985 0.78108 0.36296 0.0
H689 H 0.59856 0.76827 0.3706 0.0
H690 H 0.72988 0.60465 0.38197 0.0
H691 H 0.77305 0.71194 0.39344 0.0
H692 H 0.52454 0.56929 0.39569 0.0
H693 H 0.55119 0.66668 0.37009 0.0
H694 H 0.47255 0.54331 0.37437 0.0
H695 H 0.49858 0.63912 0.34939 0.0
H696 H 0.55131 0.53801 0.40197 0.0
H697 H 0.65167 0.58788 0.42791 0.0
H698 H 0.5369 0.48785 0.42371 0.0
H699 H 0.63562 0.53664 0.44894 0.0
H700 H 0.55621 0.51112 0.34138 0.0
H701 H 0.53765 0.58577 0.3124 0.0
H702 H 0.48718 0.54669 0.45576 0.0
H703 H 0.57938 0.56038 0.48328 0.0
Li704 Li 0.34773 0.9955 0.39819 0.0
Li705 Li 0.3683 0.95926 0.4135 0.0
Li706 Li 0.37512 0.9712 0.37643 0.0
Li707 Li 0.31859 0.93409 0.39192 0.0
C708 C 0.41792 0.03633 0.40286 0.0
N709 N 0.46441 0.10363 0.41054 0.0
C710 C 0.43077 0.04673 0.4227 0.0
C711 C 0.42892 0.06011 0.3869 0.0
C712 C 0.45426 0.08088 0.42627 0.0
C713 C 0.45232 0.09403 0.39111 0.0
C714 C 0.29298 0.94146 0.42692 0.0
C715 C 0.24697 0.89088 0.44192 0.0
N716 N 0.22772 0.90602 0.44221 0.0
C717 C 0.27289 0.95665 0.42753 0.0
C718 C 0.28009 0.90845 0.43433 0.0
C719 C 0.2399 0.93826 0.43526 0.0
C720 C 0.3167 0.03161 0.38703 0.0
N721 N 0.34107 0.03332 0.3998 0.0
C722 C 0.3603 0.09155 0.40704 0.0
C723 C 0.36146 0.06191 0.41067 0.0
C724 C 0.33768 0.09129 0.39229 0.0
C725 C 0.31456 0.06049 0.38299 0.0
H726 H 0.30028 0.0083 0.37896 0.0
H727 H 0.37977 0.06231 0.42133 0.0
C728 C 0.42728 0.96723 0.43086 0.0
N729 N 0.39489 0.9583 0.43588 0.0
C730 C 0.45116 0.97369 0.44618 0.0
C731 C 0.40787 0.96117 0.47173 0.0
C732 C 0.38464 0.9547 0.45583 0.0
C733 C 0.44182 0.97156 0.46693 0.0
H734 H 0.43506 0.97118 0.4149 0.0
H735 H 0.35893 0.94832 0.4594 0.0
C736 C 0.33026 0.97957 0.35215 0.0
N737 N 0.32616 0.99607 0.31175 0.0
C738 C 0.30875 0.95442 0.33837 0.0
C739 C 0.34953 0.01312 0.34542 0.0
C740 C 0.30708 0.96327 0.318 0.0
C741 C 0.34715 0.02095 0.32493 0.0
C742 C 0.37155 0.90783 0.39694 0.0
C743 C 0.40236 0.91346 0.38883 0.0
C744 C 0.35536 0.88338 0.41227 0.0
C745 C 0.41677 0.89487 0.39648 0.0
C746 C 0.3706 0.86533 0.41952 0.0
N747 N 0.40075 0.87142 0.41156 0.0
C748 C 0.43773 0.99928 0.35718 0.0
C749 C 0.39214 0.96293 0.33542 0.0
C750 C 0.46108 0.00417 0.34185 0.0
N751 N 0.40405 0.97892 0.35374 0.0
C752 C 0.41467 0.96726 0.31955 0.0
C753 C 0.44967 0.98772 0.32284 0.0
H754 H 0.44655 0.01077 0.3721 0.0
H755 H 0.36528 0.94611 0.3333 0.0
C756 C 0.25046 0.90679 0.38155 0.0
N757 N 0.27525 0.89865 0.38342 0.0
C758 C 0.22125 0.88614 0.37024 0.0
C759 C 0.24336 0.84882 0.36306 0.0
C760 C 0.27207 0.87004 0.37475 0.0
C761 C 0.21777 0.85718 0.36033 0.0
H762 H 0.25439 0.93057 0.38762 0.0
H763 H 0.29284 0.865 0.37568 0.0
O764 O 0.39481 0.00302 0.39907 0.0
O765 O 0.32522 0.95895 0.41928 0.0
O766 O 0.33222 0.97139 0.37217 0.0
O767 O 0.35729 0.92613 0.38988 0.0
H768 H 0.42243 0.02878 0.43529 0.0
H769 H 0.41951 0.05246 0.37142 0.0
H770 H 0.4643 0.08931 0.44156 0.0
H771 H 0.46092 0.11273 0.37892 0.0
H772 H 0.23658 0.86523 0.4476 0.0
H773 H 0.28258 0.98228 0.42199 0.0
H774 H 0.29546 0.89649 0.43415 0.0
H775 H 0.22397 0.9496 0.43572 0.0
H776 H 0.37801 0.11475 0.41484 0.0
H777 H 0.2967 0.05926 0.37156 0.0
H778 H 0.47711 0.98198 0.44184 0.0
H779 H 0.39963 0.95892 0.48757 0.0
H780 H 0.29369 0.92831 0.34329 0.0
H781 H 0.36602 0.03293 0.35593 0.0
H782 H 0.29063 0.94405 0.30715 0.0
H783 H 0.36194 0.04681 0.31951 0.0
H784 H 0.41515 0.93217 0.37689 0.0
H785 H 0.33137 0.87852 0.41856 0.0
H786 H 0.44072 0.89912 0.39045 0.0
H787 H 0.35846 0.84647 0.43148 0.0
H788 H 0.48789 0.01961 0.34514 0.0
H789 H 0.4049 0.9543 0.30506 0.0
H790 H 0.20221 0.89357 0.36855 0.0
H791 H 0.24223 0.82728 0.35526 0.0
Li792 Li 0.35554 0.31839 0.27626 0.0
Li793 Li 0.29669 0.29136 0.2852 0.0
Li794 Li 0.33167 0.26607 0.29428 0.0
Li795 Li 0.31882 0.26857 0.25751 0.0
C796 C 0.34658 0.33757 0.31433 0.0
N797 N 0.37056 0.39825 0.33503 0.0
C798 C 0.34018 0.36254 0.30671 0.0
C799 C 0.36514 0.34341 0.33246 0.0
C800 C 0.35254 0.39306 0.3174 0.0
C801 C 0.37703 0.37427 0.34271 0.0
C802 C 0.29351 0.31024 0.24491 0.0
C803 C 0.23964 0.27658 0.22802 0.0
N804 N 0.2431 0.3051 0.21898 0.0
C805 C 0.29653 0.33918 0.23543 0.0
C806 C 0.26482 0.27864 0.24118 0.0
C807 C 0.27077 0.33607 0.22239 0.0
C808 C 0.39785 0.38763 0.26413 0.0
N809 N 0.39529 0.36174 0.2759 0.0
C810 C 0.44733 0.39867 0.29281 0.0
C811 C 0.41934 0.36663 0.28996 0.0
C812 C 0.45023 0.42612 0.28139 0.0
C813 C 0.42529 0.42045 0.26676 0.0
H814 H 0.37788 0.38307 0.25341 0.0
H815 H 0.41588 0.34591 0.29972 0.0
C816 C 0.26145 0.29501 0.31854 0.0
N817 N 0.26273 0.29881 0.29773 0.0
C818 C 0.24122 0.30329 0.33048 0.0
C819 C 0.22279 0.31834 0.29939 0.0
C820 C 0.24383 0.31013 0.28799 0.0
C821 C 0.22169 0.31528 0.32095 0.0
H822 H 0.27682 0.28613 0.32595 0.0
H823 H 0.2456 0.31362 0.27151 0.0
C824 C 0.39591 0.29466 0.26611 0.0
N825 N 0.46452 0.32741 0.25749 0.0
C826 C 0.40826 0.31257 0.24769 0.0
C827 C 0.4185 0.29335 0.28013 0.0
C828 C 0.44301 0.32899 0.24363 0.0
C829 C 0.45308 0.31007 0.27549 0.0
C830 C 0.26914 0.21406 0.2914 0.0
C831 C 0.27799 0.18896 0.28894 0.0
C832 C 0.24369 0.20891 0.30538 0.0
C833 C 0.26167 0.15943 0.30079 0.0
C834 C 0.22789 0.179 0.31691 0.0
N835 N 0.23718 0.15511 0.31443 0.0
C836 C 0.32569 0.2404 0.33429 0.0
C837 C 0.35245 0.22206 0.31032 0.0
C838 C 0.32793 0.2202 0.34966 0.0
N839 N 0.33774 0.24076 0.3151 0.0
C840 C 0.3554 0.2017 0.32521 0.0
C841 C 0.343 0.20061 0.34514 0.0
H842 H 0.31373 0.2553 0.33748 0.0
H843 H 0.36099 0.22224 0.29476 0.0
C844 C 0.33075 0.26304 0.21512 0.0
N845 N 0.31278 0.24522 0.23189 0.0
C846 C 0.3339 0.24613 0.19803 0.0
C847 C 0.29789 0.19281 0.21516 0.0
C848 C 0.29546 0.21075 0.23189 0.0
C849 C 0.31815 0.21055 0.19817 0.0
H850 H 0.34403 0.29044 0.2154 0.0
H851 H 0.28117 0.19713 0.2453 0.0
O852 O 0.33547 0.30784 0.30382 0.0
O853 O 0.31866 0.31322 0.25774 0.0
O854 O 0.36196 0.27872 0.27047 0.0
O855 O 0.28542 0.24355 0.28029 0.0
H856 H 0.32621 0.35857 0.29254 0.0
H857 H 0.37044 0.32437 0.33846 0.0
H858 H 0.34792 0.41268 0.31164 0.0
H859 H 0.39149 0.37919 0.35675 0.0
H860 H 0.21732 0.25231 0.22501 0.0
H861 H 0.31852 0.36384 0.23817 0.0
H862 H 0.26184 0.25589 0.24833 0.0
H863 H 0.27277 0.35829 0.21498 0.0
H864 H 0.46548 0.40233 0.30471 0.0
H865 H 0.42654 0.44128 0.25799 0.0
H866 H 0.24088 0.30041 0.34704 0.0
H867 H 0.20828 0.32786 0.29153 0.0
H868 H 0.39131 0.31439 0.23684 0.0
H869 H 0.40962 0.28013 0.29461 0.0
H870 H 0.45291 0.34313 0.22949 0.0
H871 H 0.47084 0.30942 0.28625 0.0
H872 H 0.29793 0.19263 0.2784 0.0
H873 H 0.23605 0.2277 0.30725 0.0
H874 H 0.26862 0.14004 0.29922 0.0
H875 H 0.20822 0.17476 0.32783 0.0
H876 H 0.31778 0.21962 0.36483 0.0
H877 H 0.36623 0.18612 0.321 0.0
H878 H 0.34945 0.26075 0.18514 0.0
H879 H 0.28563 0.16544 0.21608 0.0
Li880 Li 0.72653 0.04138 0.25283 0.0
Li881 Li 0.72726 0.05311 0.29007 0.0
Li882 Li 0.70667 0.99383 0.27865 0.0
Li883 Li 0.67474 0.02126 0.27131 0.0
C884 C 0.77693 0.02937 0.26682 0.0
N885 N 0.82582 0.01927 0.24846 0.0
C886 C 0.81125 0.05266 0.26989 0.0
C887 C 0.76742 0.00102 0.25436 0.0
C888 C 0.8356 0.04709 0.26049 0.0
C889 C 0.79255 0.99634 0.24524 0.0
C890 C 0.70348 0.09193 0.25919 0.0
C891 C 0.69546 0.14009 0.26344 0.0
N892 N 0.69032 0.14022 0.24283 0.0
C893 C 0.69838 0.09274 0.23804 0.0
C894 C 0.70231 0.116 0.27198 0.0
C895 C 0.69167 0.11727 0.23007 0.0
C896 C 0.74637 0.0564 0.20961 0.0
N897 N 0.75356 0.06552 0.2297 0.0
C898 C 0.79937 0.12002 0.2202 0.0
C899 C 0.77974 0.09635 0.23517 0.0
C900 C 0.79191 0.11204 0.19932 0.0
C901 C 0.76542 0.07949 0.19404 0.0
H902 H 0.72525 0.03179 0.20568 0.0
H903 H 0.78451 0.10299 0.25128 0.0
C904 C 0.75546 0.07847 0.32974 0.0
N905 N 0.75311 0.08607 0.30978 0.0
C906 C 0.77846 0.10375 0.34295 0.0
C907 C 0.79535 0.14383 0.31479 0.0
C908 C 0.77213 0.11795 0.30221 0.0
C909 C 0.79913 0.1367 0.3353 0.0
H910 H 0.74041 0.05265 0.33517 0.0
H911 H 0.77 0.12298 0.28618 0.0
C912 C 0.65546 0.97786 0.24193 0.0
N913 N 0.59213 0.94555 0.22383 0.0
C914 C 0.62995 0.94689 0.24972 0.0
C915 C 0.64882 0.99229 0.22486 0.0
C916 C 0.59809 0.93098 0.24037 0.0
C917 C 0.61663 0.97559 0.21594 0.0
C918 C 0.67193 0.01679 0.3154 0.0
C919 C 0.66295 0.99546 0.33254 0.0
C920 C 0.66585 0.04396 0.31543 0.0
C921 C 0.64802 0.00173 0.34949 0.0
C922 C 0.65082 0.04936 0.33265 0.0
N923 N 0.64231 0.02832 0.34919 0.0
C924 C 0.71507 0.95713 0.30906 0.0
C925 C 0.6874 0.92282 0.28006 0.0
C926 C 0.70833 0.92865 0.32068 0.0
N927 N 0.70397 0.95368 0.28934 0.0
C928 C 0.68006 0.89352 0.29117 0.0
C929 C 0.68993 0.89625 0.31192 0.0
H930 H 0.72772 0.98198 0.3161 0.0
H931 H 0.6785 0.92075 0.26443 0.0
C932 C 0.61775 0.03058 0.26111 0.0
N933 N 0.62875 0.01165 0.27112 0.0
C934 C 0.58487 0.02452 0.26435 0.0
C935 C 0.57476 0.97839 0.28711 0.0
C936 C 0.60764 0.98525 0.28338 0.0
C937 C 0.56324 0.99864 0.27791 0.0
H938 H 0.63459 0.05101 0.25114 0.0
H939 H 0.61686 0.97031 0.29099 0.0
O940 O 0.75283 0.0348 0.27563 0.0
O941 O 0.71082 0.06857 0.26728 0.0
O942 O 0.68655 0.99426 0.2512 0.0
O943 O 0.68656 0.01092 0.2987 0.0
H944 H 0.81894 0.07486 0.27939 0.0
H945 H 0.74096 0.98292 0.25167 0.0
H946 H 0.86228 0.06489 0.26272 0.0
H947 H 0.78558 0.97452 0.23555 0.0
H948 H 0.69437 0.15877 0.27317 0.0
H949 H 0.69926 0.07447 0.22787 0.0
H950 H 0.7068 0.11622 0.28834 0.0
H951 H 0.68751 0.11805 0.21375 0.0
H952 H 0.81945 0.14481 0.22494 0.0
H953 H 0.75926 0.07216 0.17808 0.0
H954 H 0.7811 0.09733 0.35863 0.0
H955 H 0.81086 0.16901 0.30842 0.0
H956 H 0.63445 0.9356 0.26312 0.0
H957 H 0.6682 0.01621 0.21863 0.0
H958 H 0.57803 0.90715 0.24635 0.0
H959 H 0.6111 0.98656 0.20278 0.0
H960 H 0.66745 0.97426 0.33274 0.0
H961 H 0.67239 0.06049 0.30224 0.0
H962 H 0.64095 0.98543 0.36287 0.0
H963 H 0.64588 0.07026 0.33285 0.0
H964 H 0.71658 0.93187 0.33655 0.0
H965 H 0.66539 0.86897 0.28392 0.0
H966 H 0.57683 0.04065 0.25696 0.0
H967 H 0.55929 0.95871 0.29806 0.0
Li968 Li 0.94213 0.67328 0.28737 0.0
Li969 Li 0.97098 0.64634 0.2703 0.0
Li970 Li -9e-05 0.70745 0.27512 0.0
Li971 Li 0.95054 0.67751 0.24975 0.0
C972 C 0.00581 0.68109 0.31147 0.0
N973 N 0.05362 0.69999 0.34232 0.0
C974 C 0.02601 0.66604 0.31287 0.0
C975 C 0.01038 0.70615 0.32562 0.0
C976 C 0.04993 0.67585 0.32861 0.0
C977 C 0.03466 0.71535 0.34109 0.0
C978 C 0.90409 0.60189 0.2696 0.0
C979 C 0.88549 0.54461 0.25843 0.0
N980 N 0.86643 0.53246 0.27577 0.0
C981 C 0.88424 0.58871 0.28732 0.0
C982 C 0.90463 0.57954 0.25502 0.0
C983 C 0.86541 0.5536 0.29014 0.0
C984 C 0.8808 0.66532 0.30071 0.0
N985 N 0.91067 0.66949 0.3078 0.0
C986 C 0.89456 0.6715 0.34252 0.0
C987 C 0.9176 0.67169 0.32827 0.0
C988 C 0.86426 0.66891 0.33549 0.0
C989 C 0.85711 0.665 0.31435 0.0
H990 H 0.87562 0.66266 0.28438 0.0
H991 H 0.94103 0.67387 0.33355 0.0
C992 C 0.00249 0.60636 0.26133 0.0
N993 N 0.97886 0.60922 0.27261 0.0
C994 C 0.01118 0.58188 0.26648 0.0
C995 C 0.97014 0.56304 0.29411 0.0
C996 C 0.96274 0.58816 0.28872 0.0
C997 C 0.99519 0.56031 0.28325 0.0
H998 H 0.01594 0.62407 0.2491 0.0
H999 H 0.94546 0.59211 0.29811 0.0
C1000 C 0.94422 0.73066 0.27762 0.0
N1001 N 0.90812 0.75902 0.29412 0.0
C1002 C 0.91685 0.72901 0.26688 0.0
C1003 C 0.95328 0.74691 0.29671 0.0
C1004 C 0.89894 0.7435 0.27547 0.0
C1005 C 0.93468 0.76099 0.30482 0.0
C1006 C 0.00816 0.67401 0.232 0.0
C1007 C 0.04267 0.69168 0.22713 0.0
C1008 C 0.98546 0.64828 0.21897 0.0
C1009 C 0.05393 0.68302 0.20938 0.0
C1010 C 0.99769 0.64037 0.20136 0.0
N1011 N 0.0314 0.65774 0.19698 0.0
C1012 C 0.06895 0.73505 0.28212 0.0
C1013 C 0.04915 0.77221 0.29193 0.0
C1014 C 0.09934 0.75474 0.29266 0.0
N1015 N 0.04419 0.74342 0.28252 0.0
C1016 C 0.07916 0.79256 0.30279 0.0
C1017 C 0.10414 0.7831 0.30393 0.0
H1018 H 0.06407 0.71162 0.27494 0.0
H1019 H 0.02904 0.7782 0.29221 0.0
C1020 C 0.90242 0.64522 0.21929 0.0
N1021 N 0.92729 0.67672 0.22486 0.0
C1022 C 0.87948 0.64095 0.20386 0.0
C1023 C 0.90833 0.70173 0.19948 0.0
C1024 C 0.93118 0.70484 0.21498 0.0
C1025 C 0.8814 0.66942 0.19424 0.0
H1026 H 0.89951 0.62328 0.22737 0.0
H1027 H 0.95083 0.7297 0.21986 0.0
O1028 O 0.98157 0.67117 0.29646 0.0
O1029 O 0.92284 0.63632 0.26658 0.0
O1030 O 0.96155 0.71586 0.26967 0.0
O1031 O 0.99681 0.68211 0.24939 0.0
H1032 H 0.0234 0.64704 0.30194 0.0
H1033 H 0.99552 0.71858 0.32459 0.0
H1034 H 0.06561 0.6643 0.32991 0.0
H1035 H 0.03843 0.73471 0.35212 0.0
H1036 H 0.88591 0.52715 0.24731 0.0
H1037 H 0.88349 0.60522 0.29891 0.0
H1038 H 0.92009 0.58894 0.24136 0.0
H1039 H 0.85007 0.54317 0.30381 0.0
H1040 H 0.90059 0.67402 0.35877 0.0
H1041 H 0.83348 0.6618 0.30843 0.0
H1042 H 0.03101 0.58063 0.25801 0.0
H1043 H 0.95796 0.54732 0.30746 0.0
H1044 H 0.90907 0.71615 0.25225 0.0
H1045 H 0.97397 0.74801 0.30541 0.0
H1046 H 0.87759 0.74219 0.26738 0.0
H1047 H 0.94125 0.77334 0.31967 0.0
H1048 H 0.06059 0.71189 0.23695 0.0
H1049 H 0.95875 0.63455 0.22242 0.0
H1050 H 0.08058 0.69642 0.20546 0.0
H1051 H 0.98037 0.62043 0.19117 0.0
H1052 H 0.11824 0.74697 0.29272 0.0
H1053 H 0.08187 0.81428 0.31122 0.0
H1054 H 0.85982 0.61552 0.19986 0.0
H1055 H 0.91079 0.72434 0.19233 0.0
Li1056 Li 0.68356 0.74277 0.70966 0.0
Li1057 Li 0.68709 0.73619 0.74803 0.0
Li1058 Li 0.71882 0.71944 0.72301 0.0
Li1059 Li 0.65814 0.687 0.72646 0.0
C1060 C 0.73467 0.79913 0.73134 0.0
N1061 N 0.75434 0.86613 0.73909 0.0
C1062 C 0.71027 0.80887 0.734 0.0
C1063 C 0.76905 0.82346 0.73261 0.0
C1064 C 0.72074 0.84287 0.73792 0.0
C1065 C 0.77848 0.85721 0.73653 0.0
C1066 C 0.61232 0.708 0.73131 0.0
C1067 C 0.55883 0.66515 0.74548 0.0
N1068 N 0.54226 0.6749 0.7322 0.0
C1069 C 0.59473 0.71795 0.71807 0.0
C1070 C 0.59421 0.68176 0.7454 0.0
C1071 C 0.55934 0.70079 0.71866 0.0
C1072 C 0.6514 0.7507 0.67518 0.0
N1073 N 0.67957 0.76706 0.6871 0.0
C1074 C 0.69951 0.81757 0.66719 0.0
C1075 C 0.70415 0.79939 0.68286 0.0
C1076 C 0.66956 0.8021 0.65558 0.0
C1077 C 0.64574 0.76789 0.65928 0.0
H1078 H 0.63295 0.72449 0.67836 0.0
H1079 H 0.72716 0.81141 0.69179 0.0
C1080 C 0.71393 0.78467 0.78168 0.0
N1081 N 0.68588 0.75794 0.77332 0.0
C1082 C 0.71062 0.80382 0.79746 0.0
C1083 C 0.65002 0.76641 0.79658 0.0
C1084 C 0.65442 0.74844 0.78069 0.0
C1085 C 0.67823 0.79486 0.80491 0.0
H1086 H 0.73871 0.79211 0.77548 0.0
H1087 H 0.63248 0.72761 0.77375 0.0
C1088 C 0.68624 0.68016 0.68809 0.0
N1089 N 0.69076 0.63522 0.66158 0.0
C1090 C 0.68551 0.65115 0.69579 0.0
C1091 C 0.68923 0.68634 0.66693 0.0
C1092 C 0.68785 0.62874 0.68214 0.0
C1093 C 0.69151 0.66331 0.65377 0.0
C1094 C 0.68031 0.66831 0.76153 0.0
C1095 C 0.68785 0.64236 0.75864 0.0
C1096 C 0.66072 0.66703 0.77843 0.0
C1097 C 0.67526 0.61535 0.77256 0.0
C1098 C 0.64857 0.63958 0.792 0.0
N1099 N 0.65602 0.61451 0.7888 0.0
C1100 C 0.76796 0.69661 0.72275 0.0
C1101 C 0.7675 0.72954 0.6946 0.0
C1102 C 0.78905 0.68791 0.71182 0.0
N1103 N 0.75692 0.7163 0.71373 0.0
C1104 C 0.78805 0.72111 0.68308 0.0
C1105 C 0.79817 0.6992 0.69146 0.0
H1106 H 0.75896 0.68616 0.73789 0.0
H1107 H 0.75788 0.74468 0.68771 0.0
C1108 C 0.60393 0.64274 0.70396 0.0
N1109 N 0.61948 0.64317 0.72187 0.0
C1110 C 0.57454 0.61372 0.69785 0.0
C1111 C 0.5776 0.58543 0.72858 0.0
C1112 C 0.60697 0.6153 0.73423 0.0
C1113 C 0.56095 0.5847 0.71028 0.0
H1114 H 0.61433 0.66528 0.69448 0.0
H1115 H 0.61925 0.61611 0.74853 0.0
O1116 O 0.7251 0.76589 0.72784 0.0
O1117 O 0.64705 0.72421 0.73063 0.0
O1118 O 0.6845 0.70272 0.7012 0.0
O1119 O 0.69293 0.69531 0.7483 0.0
H1120 H 0.68354 0.79044 0.73309 0.0
H1121 H 0.78822 0.81628 0.73065 0.0
H1122 H 0.70215 0.85075 0.74004 0.0
H1123 H 0.805 0.87632 0.73758 0.0
H1124 H 0.54456 0.64448 0.75609 0.0
H1125 H 0.60821 0.73898 0.70761 0.0
H1126 H 0.60731 0.67385 0.75592 0.0
H1127 H 0.54545 0.70816 0.7084 0.0
H1128 H 0.71862 0.84385 0.66471 0.0
H1129 H 0.62275 0.75483 0.65027 0.0
H1130 H 0.73301 0.82573 0.80351 0.0
H1131 H 0.62459 0.75899 0.80165 0.0
H1132 H 0.68321 0.64606 0.71213 0.0
H1133 H 0.68993 0.70878 0.66076 0.0
H1134 H 0.68739 0.60621 0.68789 0.0
H1135 H 0.69393 0.66779 0.63734 0.0
H1136 H 0.70308 0.6429 0.74575 0.0
H1137 H 0.65491 0.68698 0.78106 0.0
H1138 H 0.68077 0.59504 0.77045 0.0
H1139 H 0.63326 0.63823 0.80508 0.0
H1140 H 0.79653 0.671 0.71875 0.0
H1141 H 0.79487 0.73051 0.66748 0.0
H1142 H 0.56275 0.61384 0.68341 0.0
H1143 H 0.56777 0.56333 0.73846 0.0
Li1144 Li 0.32005 0.97784 0.72995 0.0
Li1145 Li 0.28825 0.00921 0.72913 0.0
Li1146 Li 0.26765 0.95828 0.74928 0.0
Li1147 Li 0.26255 0.95423 0.71195 0.0
C1148 C 0.3154 0.00184 0.77344 0.0
N1149 N 0.32066 -4e-05 0.81569 0.0
C1150 C 0.29988 0.01492 0.78608 0.0
C1151 C 0.33366 0.98789 0.78225 0.0
C1152 C 0.30283 0.01372 0.80742 0.0
C1153 C 0.33599 0.98713 0.80365 0.0
C1154 C 0.31607 0.01741 0.69034 0.0
C1155 C 0.30264 0.04327 0.66227 0.0
N1156 N 0.33621 0.06593 0.65981 0.0
C1157 C 0.35044 0.04079 0.68748 0.0
C1158 C 0.29195 0.01845 0.67758 0.0
C1159 C 0.36011 0.06519 0.67197 0.0
C1160 C 0.36532 0.96199 0.71206 0.0
N1161 N 0.36282 0.98211 0.72653 0.0
C1162 C 0.42277 0.01266 0.7312 0.0
C1163 C 0.39053 0.00684 0.7363 0.0
C1164 C 0.42623 0.99314 0.71569 0.0
C1165 C 0.39697 0.96698 0.70644 0.0
H1166 H 0.34276 0.94299 0.70431 0.0
H1167 H 0.38767 0.02283 0.74748 0.0
C1168 C 0.27325 0.05881 0.71422 0.0
N1169 N 0.29727 0.05404 0.72352 0.0
C1170 C 0.28248 0.08941 0.70416 0.0
C1171 C 0.34064 0.10987 0.7141 0.0
C1172 C 0.33027 0.07909 0.72418 0.0
C1173 C 0.31673 0.11494 0.70349 0.0
H1174 H 0.24745 0.03799 0.71324 0.0
H1175 H 0.34895 0.07412 0.73108 0.0
C1176 C 0.27745 0.90136 0.73329 0.0
N1177 N 0.27311 0.83898 0.73814 0.0
C1178 C 0.24965 0.87205 0.72544 0.0
C1179 C 0.3033 0.89894 0.74331 0.0
C1180 C 0.24786 0.84076 0.72812 0.0
C1181 C 0.30054 0.86717 0.74571 0.0
C1182 C 0.20628 0.94955 0.73222 0.0
C1183 C 0.19422 0.9148 0.73418 0.0
C1184 C 0.18329 0.96133 0.73114 0.0
C1185 C 0.15932 0.89235 0.73504 0.0
C1186 C 0.14856 0.93807 0.73202 0.0
N1187 N 0.1374 0.90435 0.73394 0.0
C1188 C 0.21658 0.93003 0.78146 0.0
C1189 C 0.25866 0.91414 0.78235 0.0
C1190 C 0.19789 0.90605 0.79668 0.0
N1191 N 0.24572 0.93265 0.77401 0.0
C1192 C 0.24104 0.89014 0.79766 0.0
C1193 C 0.20973 0.88514 0.80465 0.0
H1194 H 0.20694 0.94539 0.77498 0.0
H1195 H 0.28234 0.91734 0.77676 0.0
C1196 C 0.25441 0.91282 0.67894 0.0
N1197 N 0.23922 0.92797 0.6888 0.0
C1198 C 0.23722 0.88905 0.66354 0.0
C1199 C 0.18993 0.89858 0.66789 0.0
C1200 C 0.20822 0.92248 0.68304 0.0
C1201 C 0.20398 0.88066 0.65849 0.0
H1202 H 0.27935 0.91817 0.68371 0.0
H1203 H 0.19707 0.93556 0.69074 0.0
O1204 O 0.31258 0.00253 0.75255 0.0
O1205 O 0.30605 0.9939 0.70576 0.0
O1206 O 0.28014 0.93242 0.73038 0.0
O1207 O 0.24033 0.97207 0.73111 0.0
H1208 H 0.28562 0.02575 0.77946 0.0
H1209 H 0.34553 0.97735 0.77267 0.0
H1210 H 0.29093 0.02371 0.81742 0.0
H1211 H 0.34989 0.97625 0.81068 0.0
H1212 H 0.28425 0.04459 0.65238 0.0
H1213 H 0.36939 0.04029 0.69728 0.0
H1214 H 0.26522 0.00059 0.67969 0.0
H1215 H 0.3866 0.08362 0.66965 0.0
H1216 H 0.44477 0.03283 0.7388 0.0
H1217 H 0.39865 0.95169 0.69424 0.0
H1218 H 0.26342 0.09221 0.69585 0.0
H1219 H 0.36728 0.12896 0.71384 0.0
H1220 H 0.22972 0.87334 0.71719 0.0
H1221 H 0.32515 0.92136 0.74933 0.0
H1222 H 0.22646 0.8179 0.72215 0.0
H1223 H 0.32026 0.86494 0.75357 0.0
H1224 H 0.21162 0.90534 0.73528 0.0
H1225 H 0.19221 0.98817 0.72958 0.0
H1226 H 0.14969 0.86539 0.73662 0.0
H1227 H 0.13048 0.94684 0.73117 0.0
H1228 H 0.17374 0.90295 0.80147 0.0
H1229 H 0.2515 0.87513 0.80367 0.0
H1230 H 0.24924 0.87639 0.65625 0.0
H1231 H 0.16439 0.8929 0.66437 0.0
Li1232 Li 0.04301 0.31164 0.74289 0.0
Li1233 Li 0.02266 0.34354 0.72455 0.0
Li1234 Li 0.99032 0.28353 0.72086 0.0
Li1235 Li 0.04573 0.31491 0.70553 0.0
C1236 C 0.98717 0.32704 0.75857 0.0
N1237 N 0.96478 0.36352 0.78108 0.0
C1238 C 0.00951 0.35338 0.77141 0.0
C1239 C 0.9533 0.31889 0.75745 0.0
C1240 C 0.99776 0.37163 0.78259 0.0
C1241 C 0.9425 0.33772 0.76888 0.0
C1242 C 0.09272 0.38072 0.71554 0.0
C1243 C 0.10731 0.42322 0.68921 0.0
N1244 N 0.14016 0.43881 0.69549 0.0
C1245 C 0.12664 0.39712 0.72169 0.0
C1246 C 0.08297 0.3938 0.69913 0.0
C1247 C 0.15024 0.42646 0.71136 0.0
C1248 C 0.0716 0.28828 0.77528 0.0
N1249 N 0.07005 0.31455 0.76637 0.0
C1250 C 0.11545 0.3544 0.78763 0.0
C1251 C 0.09138 0.3471 0.77231 0.0
C1252 C 0.11778 0.32794 0.79707 0.0
C1253 C 0.09543 0.29447 0.79075 0.0
H1254 H 0.05505 0.26262 0.77017 0.0
H1255 H 0.09035 0.36768 0.76469 0.0
C1256 C 0.98935 0.37882 0.7161 0.0
N1257 N 0.01757 0.38227 0.72538 0.0
C1258 C 0.98517 0.40686 0.71361 0.0
C1259 C 0.03842 0.44118 0.73125 0.0
C1260 C 0.0415 0.41234 0.73349 0.0
C1261 C 0.01042 0.4387 0.72067 0.0
H1262 H 0.97071 0.35446 0.70997 0.0
H1263 H 0.06353 0.41415 0.74098 0.0
C1264 C 0.01805 0.24357 0.73333 0.0
N1265 N 0.99708 0.18401 0.75499 0.0
C1266 C 0.03218 0.22315 0.7291 0.0
C1267 C 0.9931 0.23355 0.74856 0.0
C1268 C 0.0213 0.19319 0.74023 0.0
C1269 C 0.98287 0.20338 0.75932 0.0
C1270 C 0.99198 0.30288 0.68044 0.0
C1271 C 0.99303 0.27395 0.67442 0.0
C1272 C 0.97617 0.31563 0.66778 0.0
C1273 C 0.9781 0.25818 0.65584 0.0
C1274 C 0.96152 0.29912 0.64931 0.0
N1275 N 0.96276 0.27096 0.64378 0.0
C1276 C 0.92375 0.25947 0.70936 0.0
C1277 C 0.93873 0.21661 0.70806 0.0
C1278 C 0.89428 0.23932 0.69814 0.0
N1279 N 0.94555 0.24814 0.71381 0.0
C1280 C 0.90941 0.19555 0.69682 0.0
C1281 C 0.88722 0.20725 0.69127 0.0
H1282 H 0.93068 0.2853 0.71297 0.0
H1283 H 0.95721 0.20877 0.71064 0.0
C1284 C 0.08839 0.29792 0.68504 0.0
N1285 N 0.0727 0.31641 0.68292 0.0
C1286 C 0.1091 0.2976 0.66939 0.0
C1287 C 0.09749 0.33575 0.64969 0.0
C1288 C 0.07643 0.33484 0.66562 0.0
C1289 C 0.11396 0.31685 0.65155 0.0
H1290 H 0.08514 0.28379 0.69904 0.0
H1291 H 0.06334 0.34904 0.66425 0.0
O1292 O 0.99842 0.30938 0.74714 0.0
O1293 O 0.06939 0.352 0.72561 0.0
O1294 O 0.02852 0.2729 0.72241 0.0
O1295 O 0.00537 0.31821 0.6989 0.0
H1296 H 0.03574 0.36 0.77252 0.0
H1297 H 0.93547 0.29817 0.74795 0.0
H1298 H 0.01488 0.3923 0.79243 0.0
H1299 H 0.91639 0.33177 0.76807 0.0
H1300 H 0.10008 0.43364 0.67652 0.0
H1301 H 0.13466 0.38725 0.7343 0.0
H1302 H 0.05692 0.3814 0.69402 0.0
H1303 H 0.17657 0.43942 0.71597 0.0
H1304 H 0.13272 0.38061 0.79164 0.0
H1305 H 0.09653 0.27336 0.79763 0.0
H1306 H 0.96335 0.40403 0.70526 0.0
H1307 H 0.05818 0.46531 0.73708 0.0
H1308 H 0.05136 0.23034 0.71731 0.0
H1309 H 0.98149 0.24862 0.75201 0.0
H1310 H 0.03209 0.17721 0.73712 0.0
H1311 H 0.9636 0.19534 0.77112 0.0
H1312 H 0.00489 0.2635 0.68407 0.0
H1313 H 0.97503 0.33793 0.67225 0.0
H1314 H 0.97859 0.23568 0.65105 0.0
H1315 H 0.94909 0.30865 0.6394 0.0
H1316 H 0.87796 0.24937 0.69407 0.0
H1317 H 0.90537 0.17134 0.69135 0.0
H1318 H 0.12203 0.2833 0.67148 0.0
H1319 H 0.10099 0.35106 0.63615 0.0
Li1320 Li 0.94736 0.62401 0.61194 0.0
Li1321 Li 0.00998 0.65418 0.60925 0.0
Li1322 Li 0.9786 0.60011 0.59136 0.0
Li1323 Li 0.98116 0.60239 0.62805 0.0
C1324 C 0.99404 0.66972 0.57397 0.0
N1325 N 0.03331 0.72661 0.55031 0.0
C1326 C 0.98724 0.69642 0.57367 0.0
C1327 C 0.02064 0.67181 0.56214 0.0
C1328 C 0.00742 0.725 0.56162 0.0
C1329 C 0.04025 0.70083 0.5503 0.0
C1330 C 0.97931 0.64803 0.65398 0.0
C1331 C 0.00384 0.67432 0.68647 0.0
N1332 N 0.97385 0.65338 0.69595 0.0
C1333 C 0.94874 0.62676 0.66402 0.0
C1334 C 0.00711 0.67203 0.66524 0.0
C1335 C 0.94649 0.62987 0.68526 0.0
C1336 C 0.88049 0.6098 0.62468 0.0
N1337 N 0.9123 0.63374 0.61877 0.0
C1338 C 0.90449 0.67783 0.63295 0.0
C1339 C 0.92429 0.66724 0.62247 0.0
C1340 C 0.87195 0.65372 0.63966 0.0
C1341 C 0.85956 0.61939 0.63497 0.0
H1342 H 0.87216 0.5832 0.62273 0.0
H1343 H 0.95022 0.68554 0.61857 0.0
C1344 C 0.07898 0.70351 0.60362 0.0
N1345 N 0.04787 0.69811 0.60903 0.0
C1346 C 0.10765 0.73512 0.60706 0.0
C1347 C 0.07119 0.75536 0.62009 0.0
C1348 C 0.04332 0.72338 0.61651 0.0
C1349 C 0.10388 0.76104 0.61608 0.0
H1350 H 0.08163 0.68284 0.59756 0.0
H1351 H 0.01816 0.71811 0.62069 0.0
C1352 C 0.915 0.54988 0.60075 0.0
N1353 N 0.86538 0.49615 0.57866 0.0
C1354 C 0.91383 0.51861 0.60062 0.0
C1355 C 0.89118 0.55394 0.58945 0.0
C1356 C 0.88852 0.49174 0.58937 0.0
C1357 C 0.86616 0.5264 0.57847 0.0
C1358 C 0.03577 0.60161 0.61698 0.0
C1359 C 0.02159 0.56644 0.61557 0.0
C1360 C 0.06645 0.62088 0.62735 0.0
C1361 C 0.03825 0.55108 0.62473 0.0
C1362 C 0.08236 0.60456 0.63626 0.0
N1363 N 0.06804 0.57031 0.63478 0.0
C1364 C 0.01383 0.58075 0.56482 0.0
C1365 C 0.95597 0.55439 0.55555 0.0
C1366 C 0.01975 0.56204 0.55012 0.0
N1367 N 0.98214 0.57591 0.56783 0.0
C1368 C 0.96081 0.53516 0.5405 0.0
C1369 C 0.99293 0.53826 0.53801 0.0
H1370 H 0.03466 0.59878 0.57415 0.0
H1371 H 0.93126 0.55172 0.55753 0.0
C1372 C 0.95971 0.54667 0.65451 0.0
N1373 N 0.98355 0.57982 0.65205 0.0
C1374 C 0.96358 0.52732 0.66972 0.0
C1375 C 0.01507 0.57728 0.68065 0.0
C1376 C 0.01022 0.59567 0.66517 0.0
C1377 C 0.99222 0.54237 0.6825 0.0
H1378 H 0.93856 0.53488 0.64403 0.0
H1379 H 0.02872 0.62214 0.66291 0.0
O1380 O 0.97527 0.64195 0.58611 0.0
O1381 O 0.9821 0.64534 0.63322 0.0
O1382 O 0.93941 0.57639 0.61182 0.0
O1383 O 0.01951 0.61701 0.60838 0.0
H1384 H 0.96665 0.69513 0.58266 0.0
H1385 H 0.02636 0.65144 0.56231 0.0
H1386 H 0.00253 0.74592 0.56129 0.0
H1387 H 0.06106 0.7029 0.54117 0.0
H1388 H 0.02515 0.69272 0.69541 0.0
H1389 H 0.92711 0.60782 0.65553 0.0
H1390 H 0.031 0.68856 0.65769 0.0
H1391 H 0.92301 0.61353 0.69325 0.0
H1392 H 0.91495 0.70448 0.63645 0.0
H1393 H 0.83481 0.60004 0.6403 0.0
H1394 H 0.13254 0.73881 0.60364 0.0
H1395 H 0.0674 0.77471 0.62721 0.0
H1396 H 0.93237 0.51514 0.60901 0.0
H1397 H 0.89224 0.57819 0.58892 0.0
H1398 H 0.88732 0.46741 0.58913 0.0
H1399 H 0.84754 0.52916 0.56968 0.0
H1400 H 0.99775 0.55114 0.6077 0.0
H1401 H 0.07763 0.64807 0.62875 0.0
H1402 H 0.02745 0.52388 0.6239 0.0
H1403 H 0.10601 0.61911 0.64444 0.0
H1404 H 0.04498 0.56555 0.54864 0.0
H1405 H 0.93962 0.51801 0.53098 0.0
H1406 H 0.94545 0.50042 0.67064 0.0
H1407 H 0.0372 0.58984 0.69044 0.0
Li1408 Li 0.39012 0.38569 0.62101 0.0
Li1409 Li 0.39112 0.37216 0.58485 0.0
Li1410 Li 0.33796 0.34859 0.60396 0.0
Li1411 Li 0.37486 0.32644 0.61378 0.0
C1412 C 0.36344 0.42186 0.60088 0.0
N1413 N 0.35045 0.47394 0.60859 0.0
C1414 C 0.37804 0.45089 0.58851 0.0
C1415 C 0.34218 0.41929 0.61712 0.0
C1416 C 0.3712 0.47697 0.59268 0.0
C1417 C 0.3359 0.44587 0.62077 0.0
C1418 C 0.44979 0.39069 0.61659 0.0
C1419 C 0.49252 0.40256 0.64223 0.0
N1420 N 0.51041 0.43512 0.63539 0.0
C1421 C 0.46872 0.42421 0.6097 0.0
C1422 C 0.46185 0.37969 0.63289 0.0
C1423 C 0.49927 0.44631 0.61944 0.0
C1424 C 0.41764 0.41097 0.66009 0.0
N1425 N 0.41298 0.42018 0.641 0.0
C1426 C 0.447 0.47877 0.64937 0.0
C1427 C 0.42713 0.45329 0.63545 0.0
C1428 C 0.45264 0.47006 0.66908 0.0
C1429 C 0.43765 0.43571 0.67448 0.0
H1430 H 0.40673 0.38438 0.66388 0.0
H1431 H 0.42445 0.46 0.61993 0.0
C1432 C 0.39794 0.40459 0.54721 0.0
N1433 N 0.41392 0.39329 0.55987 0.0
C1434 C 0.41566 0.42722 0.53127 0.0
C1435 C 0.46586 0.42565 0.54138 0.0
C1436 C 0.44702 0.40265 0.55698 0.0
C1437 C 0.45035 0.43878 0.52849 0.0
H1438 H 0.37191 0.3976 0.55024 0.0
H1439 H 0.45935 0.39397 0.56758 0.0
C1440 C 0.33125 0.33262 0.64804 0.0
N1441 N 0.28883 0.30972 0.68193 0.0
C1442 C 0.31257 0.29792 0.65249 0.0
C1443 C 0.32872 0.35567 0.66106 0.0
C1444 C 0.29117 0.28685 0.66962 0.0
C1445 C 0.30702 0.3436 0.67804 0.0
C1446 C 0.32305 0.30204 0.57658 0.0
C1447 C 0.30052 0.27046 0.58515 0.0
C1448 C 0.31396 0.31279 0.55878 0.0
C1449 C 0.26909 0.25019 0.57581 0.0
C1450 C 0.28228 0.29179 0.5499 0.0
N1451 N 0.26068 0.2612 0.55854 0.0
C1452 C 0.28196 0.35649 0.59184 0.0
C1453 C 0.26829 0.30879 0.61281 0.0
C1454 C 0.24921 0.35132 0.59414 0.0
N1455 N 0.29126 0.33633 0.60204 0.0
C1456 C 0.23543 0.30268 0.61554 0.0
C1457 C 0.22588 0.32481 0.60675 0.0
H1458 H 0.30039 0.37765 0.5828 0.0
H1459 H 0.2758 0.29228 0.61999 0.0
C1460 C 0.38213 0.29306 0.64687 0.0
N1461 N 0.37526 0.28879 0.62638 0.0
C1462 C 0.37518 0.26539 0.65933 0.0
C1463 C 0.35667 0.22961 0.62916 0.0
C1464 C 0.36363 0.25807 0.61723 0.0
C1465 C 0.36132 0.23305 0.65057 0.0
H1466 H 0.39074 0.31763 0.6538 0.0
H1467 H 0.35797 0.25526 0.60096 0.0
O1468 O 0.37024 0.39629 0.59712 0.0
O1469 O 0.41928 0.36899 0.60767 0.0
O1470 O 0.35301 0.34401 0.63158 0.0
O1471 O 0.35359 0.32262 0.58579 0.0
H1472 H 0.39471 0.45338 0.57594 0.0
H1473 H 0.33031 0.39682 0.62661 0.0
H1474 H 0.38241 0.49964 0.58328 0.0
H1475 H 0.31941 0.44414 0.63326 0.0
H1476 H 0.50207 0.39443 0.65494 0.0
H1477 H 0.45953 0.4333 0.59729 0.0
H1478 H 0.44762 0.35381 0.63835 0.0
H1479 H 0.51399 0.4724 0.61442 0.0
H1480 H 0.45911 0.505 0.64443 0.0
H1481 H 0.44191 0.42814 0.68948 0.0
H1482 H 0.40263 0.43652 0.52168 0.0
H1483 H 0.49269 0.43443 0.54021 0.0
H1484 H 0.31411 0.27962 0.64262 0.0
H1485 H 0.34358 0.38266 0.65826 0.0
H1486 H 0.2764 0.26006 0.67312 0.0
H1487 H 0.30477 0.36118 0.6882 0.0
H1488 H 0.30693 0.26197 0.5991 0.0
H1489 H 0.33107 0.33717 0.55198 0.0
H1490 H 0.25129 0.2258 0.58236 0.0
H1491 H 0.27484 0.29985 0.53617 0.0
H1492 H 0.24269 0.36876 0.58695 0.0
H1493 H 0.2185 0.28216 0.6256 0.0
H1494 H 0.37928 0.26895 0.67577 0.0
H1495 H 0.34598 0.20495 0.62193 0.0
Li1496 Li 0.64315 0.99663 0.6007 0.0
Li1497 Li 0.61965 0.0249 0.61931 0.0
Li1498 Li 0.6228 0.02793 0.58198 0.0
Li1499 Li 0.67491 0.0563 0.60362 0.0
C1500 C 0.57349 0.95863 0.60925 0.0
N1501 N 0.52712 0.89991 0.62923 0.0
C1502 C 0.58291 0.94794 0.62697 0.0
C1503 C 0.54047 0.93951 0.60174 0.0
C1504 C 0.55912 0.91816 0.63682 0.0
C1505 C 0.51739 0.90989 0.61205 0.0
C1506 C 0.67385 0.03881 0.64441 0.0
C1507 C 0.68674 0.08401 0.66845 0.0
N1508 N 0.7023 0.07195 0.6809 0.0
C1509 C 0.68993 0.02685 0.65746 0.0
C1510 C 0.67215 0.06759 0.64996 0.0
C1511 C 0.70413 0.04394 0.67585 0.0
C1512 C 0.6765 0.96207 0.61074 0.0
N1513 N 0.64825 0.95783 0.60107 0.0
C1514 C 0.62641 0.89818 0.59833 0.0
C1515 C 0.62392 0.92694 0.59417 0.0
C1516 C 0.65428 0.9016 0.60953 0.0
C1517 C 0.68013 0.93413 0.61509 0.0
H1518 H 0.69542 0.98702 0.61594 0.0
H1519 H 0.60185 0.92442 0.58634 0.0
C1520 C 0.57104 0.03584 0.63674 0.0
N1521 N 0.59153 0.02304 0.64116 0.0
C1522 C 0.5478 0.03419 0.65124 0.0
C1523 C 0.56745 0.00648 0.67474 0.0
C1524 C 0.59041 0.00869 0.65973 0.0
C1525 C 0.54577 0.0193 0.6705 0.0
H1526 H 0.57229 0.04665 0.62171 0.0
H1527 H 0.60687 0.99845 0.66275 0.0
C1528 C 0.67428 0.00926 0.56605 0.0
N1529 N 0.68812 0.96627 0.54344 0.0
C1530 C 0.70695 0.01382 0.56592 0.0
C1531 C 0.64868 0.983 0.55457 0.0
C1532 C 0.71343 0.99176 0.55442 0.0
C1533 C 0.65618 0.96151 0.54326 0.0
C1534 C 0.64608 0.09591 0.59206 0.0
C1535 C 0.66442 0.1034 0.57367 0.0
C1536 C 0.63758 0.11911 0.60014 0.0
C1537 C 0.67399 0.13408 0.56369 0.0
C1538 C 0.64765 0.14953 0.58971 0.0
N1539 N 0.66549 0.15632 0.57185 0.0
C1540 C 0.56435 0.01989 0.56485 0.0
C1541 C 0.60496 0.02877 0.53918 0.0
C1542 C 0.53981 0.01326 0.54994 0.0
N1543 N 0.59598 0.02698 0.55929 0.0
C1544 C 0.5811 0.0223 0.52368 0.0
C1545 C 0.54789 0.01404 0.52903 0.0
H1546 H 0.55782 0.01805 0.581 0.0
H1547 H 0.63019 0.03404 0.53519 0.0
C1548 C 0.74188 0.0812 0.61351 0.0
N1549 N 0.71953 0.09215 0.60995 0.0
C1550 C 0.77124 0.10101 0.62489 0.0
C1551 C 0.75522 0.14402 0.62774 0.0
C1552 C 0.72603 0.12333 0.61627 0.0
C1553 C 0.77745 0.1322 0.6329 0.0
H1554 H 0.7354 0.05578 0.60911 0.0
H1555 H 0.7073 0.13095 0.61406 0.0
O1556 O 0.59626 0.98767 0.59924 0.0
O1557 O 0.66053 0.02263 0.62614 0.0
O1558 O 0.66717 0.03003 0.57758 0.0
O1559 O 0.63636 0.06611 0.60222 0.0
H1560 H 0.60832 0.96232 0.63303 0.0
H1561 H 0.53278 0.94747 0.58806 0.0
H1562 H 0.5661 0.90954 0.6505 0.0
H1563 H 0.49175 0.89483 0.6064 0.0
H1564 H 0.68575 0.10639 0.67287 0.0
H1565 H 0.69153 0.00465 0.65338 0.0
H1566 H 0.65995 0.07735 0.64006 0.0
H1567 H 0.71673 0.03501 0.68607 0.0
H1568 H 0.60617 0.87344 0.59366 0.0
H1569 H 0.70188 0.9377 0.62386 0.0
H1570 H 0.5308 0.04343 0.64717 0.0
H1571 H 0.56633 0.99456 0.68937 0.0
H1572 H 0.72709 0.03411 0.57463 0.0
H1573 H 0.62315 0.97889 0.55471 0.0
H1574 H 0.73858 0.9949 0.55424 0.0
H1575 H 0.63656 0.94092 0.53443 0.0
H1576 H 0.67122 0.08582 0.56712 0.0
H1577 H 0.62341 0.11366 0.61437 0.0
H1578 H 0.68818 0.14022 0.54946 0.0
H1579 H 0.64128 0.16774 0.59581 0.0
H1580 H 0.51439 0.00623 0.55479 0.0
H1581 H 0.58831 0.02315 0.50772 0.0
H1582 H 0.788 0.09121 0.62832 0.0
H1583 H 0.75907 0.16787 0.63375 0.0
C1584 C 0.51153 0.01646 0.02101 0.0
C1585 C 0.47777 0.00722 0.01675 0.0
C1586 C 0.52918 0.00553 0.00837 0.0
C1587 C 0.51389 0.98545 0.99083 0.0
H1588 H 0.5242 0.03183 0.03436 0.0
H1589 H 0.55509 0.013 0.01229 0.0
S1590 S 0.42644 0.95566 0.97255 0.0
N1591 N 0.42998 0.97763 0.99353 0.0
N1592 N 0.46328 0.95734 0.9697 0.0
C1593 C 0.48037 0.9766 0.9862 0.0
C1594 C 0.46227 0.98736 0.99921 0.0
C1595 C 0.02108 0.5037 0.02366 0.0
C1596 C 0.99208 0.47256 0.01885 0.0
C1597 C 0.03197 0.5322 0.01095 0.0
C1598 C 0.01435 0.53092 0.99286 0.0
H1599 H 0.03541 0.50619 0.03749 0.0
H1600 H 0.05449 0.55551 0.01538 0.0
S1601 S 0.9373 0.45517 0.97297 0.0
N1602 N 0.94667 0.44174 0.99422 0.0
N1603 N 0.96624 0.49568 0.97083 0.0
C1604 C 0.98541 0.49986 0.98777 0.0
C1605 C 0.97444 0.47069 1.00066 0.0
C1606 C 0.47768 0.48858 0.99666 0.0
C1607 C 0.47996 0.47425 0.97793 0.0
C1608 C 0.50595 0.50632 0.0095 0.0
C1609 C 0.53771 0.51034 0.00424 0.0
H1610 H 0.45378 0.48606 0.00151 0.0
H1611 H 0.50304 0.51773 0.0234 0.0
S1612 S 0.55702 0.47616 0.9575 0.0
N1613 N 0.51673 0.465 0.95496 0.0
N1614 N 0.56924 0.49659 0.9796 0.0
C1615 C 0.54013 0.49522 0.98588 0.0
C1616 C 0.51146 0.47759 0.97265 0.0
C1617 C 0.19619 0.35717 0.36244 0.0
C1618 C 0.16104 0.34256 0.35947 0.0
C1619 C 0.21562 0.34825 0.3499 0.0
C1620 C 0.20075 0.3249 0.33367 0.0
H1621 H 0.20868 0.37533 0.3747 0.0
H1622 H 0.24256 0.35987 0.35283 0.0
S1623 S 0.11001 0.27992 0.31913 0.0
N1624 N 0.11234 0.30372 0.33891 0.0
N1625 N 0.14898 0.28742 0.31528 0.0
C1626 C 0.1658 0.31041 0.33039 0.0
C1627 C 0.14593 0.31908 0.34331 0.0
C1628 C 0.6545 0.83466 0.35698 0.0
C1629 C 0.65941 0.80785 0.35084 0.0
C1630 C 0.6645 0.86309 0.34429 0.0
C1631 C 0.67945 0.86562 0.32489 0.0
H1632 H 0.64334 0.83391 0.37183 0.0
H1633 H 0.66027 0.88318 0.34968 0.0
S1634 S 0.69651 0.80151 0.30132 0.0
N1635 N 0.67905 0.78496 0.32377 0.0
N1636 N 0.69821 0.83856 0.30009 0.0
C1637 C 0.68399 0.83871 0.31844 0.0
C1638 C 0.67394 0.80984 0.33139 0.0
C1639 C 0.15234 0.83705 0.31813 0.0
C1640 C 0.13383 0.8014 0.3179 0.0
C1641 C 0.17942 0.85475 0.33181 0.0
C1642 C 0.18891 0.83755 0.34598 0.0
H1643 H 0.14599 0.85142 0.30755 0.0
H1644 H 0.19321 0.88221 0.33114 0.0
S1645 S 0.14737 0.74424 0.35246 0.0
N1646 N 0.12646 0.74951 0.33345 0.0
N1647 N 0.17674 0.78276 0.35941 0.0
C1648 C 0.17052 0.8019 0.34598 0.0
C1649 C 0.14316 0.78387 0.33191 0.0
C1650 C 0.86654 0.68217 0.67124 0.0
C1651 C 0.85228 0.66432 0.65285 0.0
C1652 C 0.84868 0.69284 0.68393 0.0
C1653 C 0.81626 0.6866 0.67843 0.0
H1654 H 0.89163 0.68775 0.6759 0.0
H1655 H 0.86053 0.70658 0.69792 0.0
S1656 S 0.76754 0.6405 0.63211 0.0
N1657 N 0.80359 0.64034 0.63005 0.0
N1658 N 0.77029 0.66093 0.65366 0.0
C1659 C 0.80168 0.66864 0.66016 0.0
C1660 C 0.8196 0.65732 0.64744 0.0
C1661 C 0.3632 0.1814 0.66202 0.0
C1662 C 0.34953 0.20289 0.66402 0.0
C1663 C 0.35281 0.15332 0.67509 0.0
C1664 C 0.32793 0.14541 0.69033 0.0
H1665 H 0.38233 0.1866 0.65045 0.0
H1666 H 0.36401 0.13741 0.67309 0.0
S1667 S 0.28372 0.19334 0.70135 0.0
N1668 N 0.30965 0.21427 0.68217 0.0
N1669 N 0.28976 0.16121 0.70649 0.0
C1670 C 0.31379 0.16649 0.69228 0.0
C1671 C 0.32472 0.19532 0.67919 0.0
C1672 C 0.82817 0.18574 0.64533 0.0
C1673 C 0.80531 0.1509 0.64791 0.0
C1674 C 0.85442 0.20373 0.65948 0.0
C1675 C 0.85865 0.18762 0.67684 0.0
H1676 H 0.826 0.19908 0.63214 0.0
H1677 H 0.87187 0.2304 0.65665 0.0
S1678 S 0.80357 0.0975 0.69162 0.0
N1679 N 0.78734 0.10141 0.66978 0.0
N1680 N 0.83656 0.13527 0.69636 0.0
C1681 C 0.8356 0.15294 0.67977 0.0
C1682 C 0.80895 0.1346 0.66534 0.0
C1683 C 0.36671 0.18579 0.16097 0.0
C1684 C 0.34118 0.15529 0.15241 0.0
C1685 C 0.35891 0.20385 0.17537 0.0
C1686 C 0.32525 0.19224 0.18166 0.0
H1687 H 0.39299 0.19538 0.15683 0.0
H1688 H 0.37955 0.22663 0.18204 0.0
S1689 S 0.24879 0.11591 0.16188 0.0
N1690 N 0.2807 0.11562 0.15002 0.0
N1691 N 0.26599 0.14971 0.17686 0.0
C1692 C 0.2994 0.16235 0.17267 0.0
C1693 C 0.30737 0.14387 0.15811 0.0
C1694 C 0.86641 0.18208 0.17007 0.0
C1695 C 0.8508 0.19056 0.15429 0.0
C1696 C 0.84719 0.15651 0.18438 0.0
C1697 C 0.81156 0.13812 0.18341 0.0
H1698 H 0.89377 0.19541 0.17139 0.0
H1699 H 0.86036 0.15091 0.19624 0.0
S1700 S 0.75829 0.15043 0.14512 0.0
N1701 N 0.79756 0.17834 0.13845 0.0
N1702 N 0.76139 0.13061 0.16558 0.0
C1703 C 0.79559 0.14635 0.16774 0.0
C1704 C 0.8152 0.17254 0.15319 0.0
C1705 C 0.86366 0.68097 0.15996 0.0
C1706 C 0.85473 0.665 0.1793 0.0
C1707 C 0.83883 0.67509 0.14518 0.0
C1708 C 0.80408 0.65317 0.14919 0.0
H1709 H 0.89008 0.69749 0.15603 0.0
H1710 H 0.84696 0.68784 0.13046 0.0
S1711 S 0.76731 0.60665 0.19796 0.0
N1712 N 0.80856 0.62786 0.20213 0.0
N1713 N 0.76214 0.61603 0.17419 0.0
C1714 C 0.7948 0.63767 0.16866 0.0
C1715 C 0.82004 0.64374 0.18372 0.0
C1716 C 0.67952 0.8708 0.83017 0.0
C1717 C 0.65939 0.85667 0.84788 0.0
C1718 C 0.68635 0.85088 0.81667 0.0
C1719 C 0.67325 0.81606 0.82033 0.0
H1720 H 0.68973 0.89739 0.82657 0.0
H1721 H 0.70131 0.86263 0.803 0.0
S1722 S 0.622 0.76738 0.86539 0.0
N1723 N 0.6286 0.8061 0.86904 0.0
N1724 N 0.64095 0.7687 0.84346 0.0
C1725 C 0.65369 0.80176 0.83814 0.0
C1726 C 0.64687 0.82202 0.85194 0.0
C1727 C 0.16484 0.79739 0.82941 0.0
C1728 C 0.14804 0.80165 0.84627 0.0
C1729 C 0.18478 0.82454 0.81612 0.0
C1730 C 0.18893 0.85706 0.8193 0.0
H1731 H 0.16212 0.77278 0.8263 0.0
H1732 H 0.19663 0.81986 0.80305 0.0
S1733 S 0.15302 0.88207 0.86262 0.0
N1734 N 0.13849 0.84118 0.86626 0.0
N1735 N 0.17631 0.89226 0.84152 0.0
C1736 C 0.17286 0.86175 0.83643 0.0
C1737 C 0.15239 0.83407 0.84986 0.0
C1738 C 0.19134 0.3294 0.8258 0.0
C1739 C 0.19619 0.3508 0.84262 0.0
C1740 C 0.16567 0.32176 0.81129 0.0
C1741 C 0.14414 0.33552 0.81295 0.0
H1742 H 0.20702 0.31787 0.8241 0.0
H1743 H 0.16284 0.30518 0.79857 0.0
S1744 S 0.14682 0.39352 0.85392 0.0
N1745 N 0.17784 0.38624 0.85983 0.0
N1746 N 0.12943 0.37158 0.83278 0.0
C1747 C 0.14898 0.35723 0.82959 0.0
C1748 C 0.17501 0.36491 0.84436 0.0
C1749 C 0.03418 0.51185 0.49641 0.0
C1750 C 0.01175 0.47679 0.49456 0.0
C1751 C 0.02778 0.53152 0.51036 0.0
C1752 C 0.99878 0.51686 0.52307 0.0
H1753 H 0.05633 0.52432 0.48659 0.0
H1754 H 0.04543 0.55855 0.51094 0.0
S1755 S 0.93401 0.4254 0.52547 0.0
N1756 N 0.96053 0.42782 0.50733 0.0
N1757 N 0.94881 0.46454 0.53383 0.0
C1758 C 0.97666 0.48162 0.52171 0.0
C1759 C 0.98309 0.46167 0.50742 0.0
C1760 C 0.48526 0.52138 0.49819 0.0
C1761 C 0.51035 0.52114 0.48575 0.0
C1762 C 0.46593 0.4946 0.51183 0.0
C1763 C 0.47061 0.46629 0.51336 0.0
H1764 H 0.48092 0.54268 0.4976 0.0
H1765 H 0.44754 0.4964 0.52151 0.0
S1766 S 0.53096 0.45214 0.48248 0.0
N1767 N 0.53773 0.48967 0.47495 0.0
N1768 N 0.50083 0.43891 0.50009 0.0
C1769 C 0.49514 0.46548 0.50059 0.0
C1770 C 0.51509 0.49295 0.48691 0.0
C1771 C 0.51669 0.98035 0.49787 0.0
C1772 C 0.52117 0.00426 0.51307 0.0
C1773 C 0.4907 0.96953 0.48322 0.0
C1774 C 0.46807 0.9821 0.48324 0.0
H1775 H 0.53307 0.96947 0.4975 0.0
H1776 H 0.48814 0.951 0.47186 0.0
S1777 S 0.47068 0.04728 0.51859 0.0
N1778 N 0.50196 0.04163 0.52644 0.0
N1779 N 0.4531 0.02122 0.49898 0.0
C1780 C 0.47253 0.00634 0.49816 0.0
C1781 C 0.49905 0.01743 0.51303 0.0
C1782 C 0.21729 0.86696 0.02969 0.0
C1783 C 0.2057 0.88256 0.04363 0.0
C1784 C 0.19473 0.84048 0.01701 0.0
C1785 C 0.15974 0.82849 0.01786 0.0
H1786 H 0.24417 0.87636 0.02783 0.0
H1787 H 0.20484 0.82989 0.00606 0.0
S1788 S 0.11619 0.85879 0.05279 0.0
N1789 N 0.15678 0.88264 0.05849 0.0
N1790 N 0.11422 0.83278 0.03443 0.0
C1791 C 0.14757 0.84271 0.03235 0.0
C1792 C 0.17062 0.86985 0.04524 0.0
C1793 C 0.13256 0.30692 0.03492 0.0
C1794 C 0.1243 0.33242 0.03836 0.0
C1795 C 0.16177 0.31385 0.0239 0.0
C1796 C 0.1832 0.34631 0.01575 0.0
H1797 H 0.11566 0.28122 0.04012 0.0
H1798 H 0.16659 0.29327 0.02075 0.0
S1799 S 0.17388 0.42212 0.02151 0.0
N1800 N 0.1408 0.3917 0.03373 0.0
N1801 N 0.19555 0.40455 0.01281 0.0
C1802 C 0.17605 0.37231 0.01985 0.0
C1803 C 0.1466 0.36541 0.03126 0.0
C1804 C 0.67191 0.81874 0.04788 0.0
C1805 C 0.65559 0.78467 0.04135 0.0
C1806 C 0.67068 0.84385 0.03601 0.0
C1807 C 0.65336 0.83568 0.01716 0.0
H1808 H 0.68674 0.82621 0.0619 0.0
H1809 H 0.6847 0.86999 0.04109 0.0
S1810 S 0.60386 0.7503 0.99397 0.0
N1811 N 0.6196 0.74411 0.01532 0.0
N1812 N 0.61716 0.7913 0.9933 0.0
C1813 C 0.63539 0.80163 0.01102 0.0
C1814 C 0.63648 0.77609 0.02306 0.0
C1815 C 0.8015 0.1604 0.95019 0.0
C1816 C 0.79823 0.12816 0.95222 0.0
C1817 C 0.82607 0.18818 0.96132 0.0
C1818 C 0.84807 0.1846 0.97495 0.0
H1819 H 0.78399 0.16381 0.9406 0.0
H1820 H 0.82694 0.21232 0.95992 0.0
S1821 S 0.8501 0.10551 0.98543 0.0
N1822 N 0.81959 0.09438 0.96833 0.0
N1823 N 0.86553 0.14644 0.9894 0.0
C1824 C 0.84608 0.15283 0.97635 0.0
C1825 C 0.82119 0.12463 0.96495 0.0
C1826 C 0.86139 0.70785 0.97701 0.0
C1827 C 0.82837 0.67987 0.97586 0.0
C1828 C 0.88758 0.70939 0.96499 0.0
C1829 C 0.88171 0.68295 0.95142 0.0
H1830 H 0.8673 0.72809 0.98788 0.0
H1831 H 0.91299 0.7305 0.96728 0.0
S1832 S 0.79907 0.60576 0.9412 0.0
N1833 N 0.79064 0.62625 0.95907 0.0
N1834 N 0.83993 0.62949 0.93614 0.0
C1835 C 0.84841 0.65581 0.94921 0.0
C1836 C 0.82169 0.65423 0.96148 0.0
C1837 C 0.2883 0.1691 0.96386 0.0
C1838 C 0.31447 0.19859 0.95466 0.0
C1839 C 0.29544 0.14746 0.97542 0.0
C1840 C 0.32901 0.15482 0.97832 0.0
H1841 H 0.26229 0.16357 0.96288 0.0
H1842 H 0.27474 0.12597 0.98314 0.0
S1843 S 0.40624 0.22697 0.95582 0.0
N1844 N 0.37499 0.23269 0.948 0.0
N1845 N 0.3883 0.19171 0.96955 0.0
C1846 C 0.35517 0.18304 0.96817 0.0
C1847 C 0.34792 0.20499 0.95634 0.0
C1848 C 0.88559 0.20821 0.3501 0.0
C1849 C 0.87963 0.21944 0.36894 0.0
C1850 C 0.85954 0.18069 0.33975 0.0
C1851 C 0.82653 0.16331 0.34786 0.0
H1852 H 0.91051 0.2213 0.34308 0.0
H1853 H 0.86513 0.17332 0.32507 0.0
S1854 S 0.79799 0.18175 0.3971 0.0
N1855 N 0.83869 0.21046 0.39572 0.0
N1856 N 0.78941 0.15829 0.37616 0.0
C1857 C 0.82043 0.1733 0.36709 0.0
C1858 C 0.84709 0.2015 0.37767 0.0
C1859 C 0.82786 0.64764 0.36696 0.0
C1860 C 0.83978 0.66985 0.35002 0.0
C1861 C 0.80168 0.64537 0.37942 0.0
C1862 C 0.78685 0.66548 0.37547 0.0
H1863 H 0.8378 0.63089 0.37005 0.0
H1864 H 0.79232 0.6271 0.39188 0.0
S1865 S 0.81108 0.72947 0.33384 0.0
N1866 N 0.83676 0.71405 0.33082 0.0
N1867 N 0.78701 0.70925 0.35383 0.0
C1868 C 0.79966 0.68884 0.35909 0.0
C1869 C 0.82625 0.69113 0.34646 0.0
C1870 C 0.31315 0.15255 0.36979 0.0
C1871 C 0.34356 0.17697 0.36052 0.0
C1872 C 0.31182 0.12596 0.3814 0.0
C1873 C 0.34092 0.12317 0.38425 0.0
H1874 H 0.28983 0.1528 0.36704 0.0
H1875 H 0.28756 0.10657 0.38736 0.0
S1876 S 0.42741 0.18286 0.36494 0.0
N1877 N 0.40395 0.1986 0.35647 0.0
N1878 N 0.40145 0.1484 0.37805 0.0
C1879 C 0.3719 0.14871 0.37617 0.0
C1880 C 0.37321 0.17566 0.36432 0.0
C1881 C 0.49025 0.51268 0.30553 0.0
C1882 C 0.5237 0.51985 0.30889 0.0
C1883 C 0.4671 0.48354 0.29479 0.0
C1884 C 0.47671 0.46074 0.28712 0.0
H1885 H 0.48118 0.52821 0.31258 0.0
H1886 H 0.44091 0.47747 0.29393 0.0
S1887 S 0.56283 0.47155 0.28827 0.0
N1888 N 0.56656 0.50467 0.30095 0.0
N1889 N 0.5228 0.44959 0.28098 0.0
C1890 C 0.51077 0.46923 0.28875 0.0
C1891 C 0.53435 0.49891 0.29959 0.0
C1892 C 0.53081 0.02477 0.29201 0.0
C1893 C 0.53091 0.99568 0.28487 0.0
C1894 C 0.50325 0.02211 0.30309 0.0
C1895 C 0.47481 0.99029 0.30743 0.0
H1896 H 0.55308 0.04962 0.29027 0.0
H1897 H 0.50494 0.04503 0.30922 0.0
S1898 S 0.46069 0.90682 0.28957 0.0
N1899 N 0.49856 0.93448 0.28062 0.0
N1900 N 0.44707 0.92931 0.30202 0.0
C1901 C 0.4735 0.96121 0.29902 0.0
C1902 C 0.50152 0.96395 0.28763 0.0
C1903 C 0.98406 0.50322 0.29416 0.0
C1904 C 0.00713 0.53795 0.29141 0.0
C1905 C 0.99278 0.48291 0.30588 0.0
C1906 C 0.0246 0.49694 0.31549 0.0
H1907 H 0.9586 0.49211 0.28803 0.0
H1908 H 0.97377 0.45664 0.30853 0.0
S1909 S 0.09468 0.5859 0.31174 0.0
N1910 N 0.06373 0.58501 0.29803 0.0
N1911 N 0.08002 0.54683 0.3203 0.0
C1912 C 0.04846 0.53119 0.31195 0.0
C1913 C 0.03975 0.55173 0.29981 0.0
C1914 C 0.50488 0.49551 0.69067 0.0
C1915 C 0.47675 0.49693 0.68302 0.0
C1916 C 0.5313 0.52343 0.70073 0.0
C1917 C 0.53034 0.55356 0.70339 0.0
H1918 H 0.50743 0.47346 0.68779 0.0
H1919 H 0.55346 0.52214 0.70536 0.0
S1920 S 0.45974 0.56795 0.68926 0.0
N1921 N 0.44756 0.52921 0.68102 0.0
N1922 N 0.49726 0.58174 0.69994 0.0
C1923 C 0.50127 0.55438 0.69713 0.0
C1924 C 0.47444 0.52603 0.68692 0.0
C1925 C 0.4966 0.98211 0.693 0.0
C1926 C 0.519 0.01464 0.68523 0.0
C1927 C 0.4675 0.97571 0.70393 0.0
C1928 C 0.45994 0.00166 0.70757 0.0
H1929 H 0.50054 0.96104 0.68962 0.0
H1930 H 0.45009 0.94999 0.70888 0.0
S1931 S 0.51257 0.09199 0.69231 0.0
N1932 N 0.53355 0.07372 0.68357 0.0
N1933 N 0.47843 0.06161 0.70371 0.0
C1934 C 0.48323 0.03473 0.70094 0.0
C1935 C 0.51285 0.04122 0.68984 0.0
C1936 C 0.9788 0.47018 0.71743 0.0
C1937 C 0.00896 0.46929 0.7147 0.0
C1938 C 0.97435 0.49542 0.70811 0.0
C1939 C -0.0001 0.5206 0.69574 0.0
H1940 H 0.95794 0.45032 0.72606 0.0
H1941 H 0.9502 0.49437 0.70983 0.0
S1942 S 0.08397 0.53001 0.68432 0.0
N1943 N 0.06518 0.49636 0.69939 0.0
N1944 N 0.05685 0.54379 0.68187 0.0
C1945 C 0.03086 0.52103 0.69381 0.0
C1946 C 0.03538 0.49536 0.7033 0.0
C1947 C 0.16167 0.85314 0.63013 0.0
C1948 C 0.18259 0.85103 0.64528 0.0
C1949 C 0.13743 0.82411 0.61975 0.0
C1950 C 0.13349 0.79208 0.62407 0.0
H1951 H 0.16328 0.87721 0.62678 0.0
H1952 H 0.12084 0.82651 0.60879 0.0
S1953 S 0.18181 0.77282 0.66236 0.0
N1954 N 0.19777 0.81422 0.66399 0.0
N1955 N 0.15259 0.75989 0.64425 0.0
C1956 C 0.15513 0.78982 0.63856 0.0
C1957 C 0.17961 0.81925 0.64922 0.0
C1958 C 0.16773 0.35064 0.63213 0.0
C1959 C 0.1386 0.31921 0.63597 0.0
C1960 C 0.19503 0.35257 0.62108 0.0
C1961 C 0.19395 0.32311 0.61343 0.0
H1962 H 0.17041 0.37357 0.63894 0.0
H1963 H 0.21802 0.37698 0.61986 0.0
S1964 S 0.12047 0.23565 0.61596 0.0
N1965 N 0.1082 0.25873 0.62904 0.0
N1966 N 0.15921 0.26234 0.60776 0.0
C1967 C 0.16365 0.29196 0.61558 0.0
C1968 C 0.13603 0.29 0.627 0.0
C1969 C 0.6879 0.84497 0.62725 0.0
C1970 C 0.66248 0.82271 0.64091 0.0
C1971 C 0.68415 0.8691 0.61596 0.0
C1972 C 0.6548 0.87166 0.61788 0.0
H1973 H 0.71143 0.84464 0.62592 0.0
H1974 H 0.70495 0.88684 0.60634 0.0
S1975 S 0.58042 0.81871 0.65103 0.0
N1976 N 0.60653 0.8041 0.65521 0.0
N1977 N 0.59944 0.8493 0.63386 0.0
C1978 C 0.62846 0.84841 0.63063 0.0
C1979 C 0.63231 0.82393 0.64219 0.0
loop_
_geom_bond_atom_site_label_1
_geom_bond_atom_site_label_2
_geom_bond_distance
_geom_bond_site_symmetry_2
_ccdc_geom_bond_type
Li0 N17 1.990 . S
Li0 O60 1.956 . S
Li0 O61 1.970 . S
Li0 O62 1.961 . S
Li1 N25 1.990 . S
Li1 O60 1.970 . S
Li1 O61 1.956 . S
Li1 O63 1.961 . S
Li2 N47 1.990 . S
Li2 O60 1.961 . S
Li2 O62 1.956 . S
Li2 O63 1.970 . S
Li3 N53 1.990 . S
Li3 O61 1.961 1_565 S
Li3 O62 1.970 1_565 S
Li3 O63 1.956 1_565 S
C4 C6 1.348 . S
C4 C7 1.356 . S
C4 O60 1.325 . S
N5 C8 1.314 . S
N5 C9 1.279 . S
C6 C4 1.348 . S
C6 C8 1.353 . S
C6 H64 0.929 . S
C7 C4 1.356 . S
C7 C9 1.358 . S
C7 H65 0.930 . S
C8 N5 1.314 . S
C8 C6 1.353 . S
C8 H66 0.930 . S
C9 N5 1.279 . S
C9 C7 1.358 . S
C9 H67 0.930 . S
C10 C13 1.348 . S
C10 C14 1.356 . S
C10 O61 1.325 . S
C11 N12 1.279 . S
C11 C14 1.358 . S
C11 H68 0.920 1_545 S
N12 C11 1.279 . S
N12 C15 1.314 . S
C13 C10 1.348 . S
C13 C15 1.353 . S
C13 H69 0.929 . S
C14 C10 1.356 . S
C14 C11 1.358 . S
C14 H70 0.930 1_545 S
C15 N12 1.314 . S
C15 C13 1.353 . S
C15 H71 0.930 . S
C16 N17 1.314 . S
C16 C21 1.353 1_554 S
C16 H22 0.930 . S
N17 Li0 1.990 . S
N17 C16 1.314 . S
N17 C19 1.279 . S
C18 C19 1.358 . S
C18 C20 1.324 1_554 S
C18 H72 0.930 . S
C19 N17 1.279 . S
C19 C18 1.358 . S
C19 H23 0.930 . S
C20 C18 1.324 1_556 S
C20 C21 1.357 . S
C21 C16 1.353 1_556 S
C21 C20 1.357 . S
C21 H73 0.929 . S
H22 C16 0.930 . S
H23 C19 0.930 . S
C24 N25 1.314 . S
C24 C26 1.353 . S
C24 H30 0.930 . S
N25 Li1 1.990 . S
N25 C24 1.314 . S
N25 C28 1.279 . S
C26 C24 1.353 . S
C26 C29 1.348 . S
C26 H74 0.929 . S
C27 C28 1.358 . S
C27 C29 1.356 . S
C27 H75 0.930 . S
C28 N25 1.279 . S
C28 C27 1.358 . S
C28 H31 0.930 . S
C29 C26 1.348 . S
C29 C27 1.356 . S
H30 C24 0.930 . S
H31 C28 0.930 . S
C32 C34 1.348 1_545 S
C32 C35 1.356 1_554 S
C32 O62 1.325 . S
N33 C36 1.322 . S
N33 C37 1.266 1_565 S
C34 C32 1.348 1_565 S
C34 C36 1.353 1_554 S
C34 H76 0.929 . S
C35 C32 1.356 1_556 S
C35 C37 1.358 . S
C35 H77 0.926 1_556 S
C36 N33 1.322 . S
C36 C34 1.353 1_556 S
C36 H78 0.930 . S
C37 N33 1.266 1_545 S
C37 C35 1.358 . S
C37 H79 0.930 . S
C38 C39 1.348 . S
C38 C40 1.356 . S
C38 O63 1.325 1_565 S
C39 C38 1.348 . S
C39 C41 1.353 . S
C39 H80 0.929 . S
C40 C38 1.356 . S
C40 C42 1.358 . S
C40 H81 0.930 . S
C41 C39 1.353 . S
C41 N43 1.314 . S
C41 H82 0.930 . S
C42 C40 1.358 . S
C42 N43 1.279 . S
C42 H83 0.930 . S
N43 C41 1.314 . S
N43 C42 1.279 . S
C44 C46 1.353 . S
C44 N47 1.314 . S
C44 H50 0.930 . S
C45 N47 1.279 . S
C45 C48 1.358 . S
C45 H51 0.930 . S
C46 C44 1.353 . S
C46 C49 1.348 . S
C46 H84 0.929 . S
N47 Li2 1.990 . S
N47 C44 1.314 . S
N47 C45 1.279 . S
C48 C45 1.358 . S
C48 C49 1.356 . S
C48 H85 0.930 . S
C49 C46 1.348 . S
C49 C48 1.356 . S
H50 C44 0.930 . S
H51 C45 0.930 . S
C52 N53 1.314 . S
C52 C54 1.353 . S
C52 H58 0.930 . S
N53 Li3 1.990 . S
N53 C52 1.314 . S
N53 C56 1.279 . S
C54 C52 1.353 . S
C54 C57 1.348 . S
C54 H86 0.929 . S
C55 C56 1.358 . S
C55 C57 1.356 . S
C55 H87 0.930 . S
C56 N53 1.279 . S
C56 C55 1.358 . S
C56 H59 0.930 . S
C57 C54 1.348 . S
C57 C55 1.356 . S
H58 C52 0.930 . S
H59 C56 0.930 . S
O60 Li0 1.956 . S
O60 Li1 1.970 . S
O60 Li2 1.961 . S
O60 C4 1.325 . S
O61 Li0 1.970 . S
O61 Li1 1.956 . S
O61 Li3 1.961 1_545 S
O61 C10 1.325 . S
O62 Li0 1.961 . S
O62 Li2 1.956 . S
O62 Li3 1.970 1_545 S
O62 C32 1.325 . S
O63 Li1 1.961 . S
O63 Li2 1.970 . S
O63 Li3 1.956 1_545 S
O63 C38 1.325 1_545 S
H64 C6 0.929 . S
H65 C7 0.930 . S
H66 C8 0.930 . S
H67 C9 0.930 . S
H68 C11 0.920 1_565 S
H69 C13 0.929 . S
H70 C14 0.930 1_565 S
H71 C15 0.930 . S
H72 C18 0.930 . S
H73 C21 0.929 . S
H74 C26 0.929 . S
H75 C27 0.930 . S
H76 C34 0.929 . S
H77 C35 0.926 1_554 S
H78 C36 0.930 . S
H79 C37 0.930 . S
H80 C39 0.929 . S
H81 C40 0.930 . S
H82 C41 0.930 . S
H83 C42 0.930 . S
H84 C46 0.929 . S
H85 C48 0.930 . S
H86 C54 0.929 . S
H87 C55 0.930 . S
Li88 N105 1.990 . S
Li88 O148 1.956 . S
Li88 O149 1.970 . S
Li88 O150 1.961 . S
Li89 N113 1.990 . S
Li89 O148 1.970 1_455 S
Li89 O149 1.956 1_455 S
Li89 O151 1.961 1_455 S
Li90 N135 1.990 . S
Li90 O148 1.961 . S
Li90 O150 1.956 . S
Li90 O151 1.970 . S
Li91 N141 1.990 . S
Li91 O149 1.961 . S
Li91 O150 1.970 . S
Li91 O151 1.956 . S
C92 C94 1.348 1_655 S
C92 C95 1.356 1_554 S
C92 O148 1.325 . S
N93 C96 1.315 . S
N93 C97 1.279 1_455 S
C94 C92 1.348 1_455 S
C94 C96 1.353 1_554 S
C94 H152 0.929 . S
C95 C92 1.356 1_556 S
C95 C97 1.358 . S
C95 H153 0.934 . S
C96 N93 1.315 . S
C96 C94 1.353 1_556 S
C96 H154 0.930 . S
C97 N93 1.279 1_655 S
C97 C95 1.358 . S
C97 H155 0.930 . S
C98 C101 1.348 . S
C98 C102 1.356 . S
C98 O149 1.325 1_455 S
C99 N100 1.279 . S
C99 C102 1.358 . S
C99 H156 0.930 . S
N100 C99 1.279 . S
N100 C103 1.314 . S
C101 C98 1.348 . S
C101 C103 1.353 . S
C101 H157 0.929 . S
C102 C98 1.356 . S
C102 C99 1.358 . S
C102 H158 0.930 . S
C103 N100 1.314 . S
C103 C101 1.353 . S
C103 H159 0.930 . S
C104 N105 1.314 . S
C104 C109 1.353 . S
C104 H110 0.930 . S
N105 Li88 1.990 . S
N105 C104 1.314 . S
N105 C107 1.279 . S
C106 C107 1.358 . S
C106 C108 1.356 . S
C106 H160 0.930 . S
C107 N105 1.279 . S
C107 C106 1.358 . S
C107 H111 0.930 . S
C108 C106 1.356 . S
C108 C109 1.348 . S
C109 C104 1.353 . S
C109 C108 1.348 . S
C109 H161 0.929 . S
H110 C104 0.930 . S
H111 C107 0.930 . S
C112 N113 1.314 . S
C112 C114 1.353 . S
C112 H118 0.930 . S
N113 Li89 1.990 . S
N113 C112 1.314 . S
N113 C116 1.279 . S
C114 C112 1.353 . S
C114 C117 1.348 . S
C114 H162 0.929 . S
C115 C116 1.358 . S
C115 C117 1.356 . S
C115 H163 0.930 . S
C116 N113 1.279 . S
C116 C115 1.358 . S
C116 H119 0.930 . S
C117 C114 1.348 . S
C117 C115 1.356 . S
H118 C112 0.930 . S
H119 C116 0.930 . S
C120 C122 1.348 . S
C120 C123 1.356 . S
C120 O150 1.325 . S
N121 C124 1.314 . S
N121 C125 1.279 . S
C122 C120 1.348 . S
C122 C124 1.353 . S
C122 H164 0.929 . S
C123 C120 1.356 . S
C123 C125 1.358 . S
C123 H165 0.930 . S
C124 N121 1.314 . S
C124 C122 1.353 . S
C124 H166 0.930 . S
C125 N121 1.279 . S
C125 C123 1.358 . S
C125 H167 0.930 . S
C126 C127 1.348 . S
C126 C128 1.356 . S
C126 O151 1.325 . S
C127 C126 1.348 . S
C127 C129 1.353 . S
C127 H168 0.929 . S
C128 C126 1.356 . S
C128 C130 1.358 . S
C128 H169 0.930 1_655 S
C129 C127 1.353 . S
C129 N131 1.314 . S
C129 H170 0.930 . S
C130 C128 1.358 . S
C130 N131 1.279 . S
C130 H171 0.930 1_655 S
N131 C129 1.314 . S
N131 C130 1.279 . S
C132 C134 1.353 1_554 S
C132 N135 1.314 . S
C132 H138 0.930 . S
C133 N135 1.279 . S
C133 C136 1.358 . S
C133 H139 0.930 . S
C134 C132 1.353 1_556 S
C134 C137 1.348 . S
C134 H172 0.929 . S
N135 Li90 1.990 . S
N135 C132 1.314 . S
N135 C133 1.279 . S
C136 C133 1.358 . S
C136 C137 1.356 1_554 S
C136 H173 0.930 . S
C137 C134 1.348 . S
C137 C136 1.356 1_556 S
H138 C132 0.930 . S
H139 C133 0.930 . S
C140 N141 1.314 . S
C140 C142 1.353 . S
C140 H146 0.930 . S
N141 Li91 1.990 . S
N141 C140 1.314 . S
N141 C144 1.279 . S
C142 C140 1.353 . S
C142 C145 1.348 . S
C142 H174 0.929 . S
C143 C144 1.358 . S
C143 C145 1.356 . S
C143 H175 0.930 . S
C144 N141 1.279 . S
C144 C143 1.358 . S
C144 H147 0.930 . S
C145 C142 1.348 . S
C145 C143 1.356 . S
H146 C140 0.930 . S
H147 C144 0.930 . S
O148 Li88 1.956 . S
O148 Li89 1.970 1_655 S
O148 Li90 1.961 . S
O148 C92 1.325 . S
O149 Li88 1.970 . S
O149 Li89 1.956 1_655 S
O149 Li91 1.961 . S
O149 C98 1.325 1_655 S
O150 Li88 1.961 . S
O150 Li90 1.956 . S
O150 Li91 1.970 . S
O150 C120 1.325 . S
O151 Li89 1.961 1_655 S
O151 Li90 1.970 . S
O151 Li91 1.956 . S
O151 C126 1.325 . S
H152 C94 0.929 . S
H153 C95 0.934 . S
H154 C96 0.930 . S
H155 C97 0.930 . S
H156 C99 0.930 . S
H157 C101 0.929 . S
H158 C102 0.930 . S
H159 C103 0.930 . S
H160 C106 0.930 . S
H161 C109 0.929 . S
H162 C114 0.929 . S
H163 C115 0.930 . S
H164 C122 0.929 . S
H165 C123 0.930 . S
H166 C124 0.930 . S
H167 C125 0.930 . S
H168 C127 0.929 . S
H169 C128 0.930 1_455 S
H170 C129 0.930 . S
H171 C130 0.930 1_455 S
H172 C134 0.929 . S
H173 C136 0.930 . S
H174 C142 0.929 . S
H175 C143 0.930 . S
Li176 N193 1.990 . S
Li176 O236 1.956 . S
Li176 O237 1.970 . S
Li176 O238 1.961 . S
Li177 N201 1.990 . S
Li177 O236 1.970 . S
Li177 O237 1.956 . S
Li177 O239 1.961 . S
Li178 N223 1.990 . S
Li178 O236 1.961 . S
Li178 O238 1.956 . S
Li178 O239 1.970 . S
Li179 N229 1.990 . S
Li179 O237 1.961 . S
Li179 O238 1.970 . S
Li179 O239 1.956 . S
C180 C182 1.348 . S
C180 C183 1.356 . S
C180 O236 1.325 . S
N181 C184 1.314 . S
N181 C185 1.279 . S
C182 C180 1.348 . S
C182 C184 1.353 . S
C182 H240 0.929 . S
C183 C180 1.356 . S
C183 C185 1.358 . S
C183 H241 0.930 . S
C184 N181 1.314 . S
C184 C182 1.353 . S
C184 H242 0.930 . S
C185 N181 1.279 . S
C185 C183 1.358 . S
C185 H243 0.930 . S
C186 C189 1.348 . S
C186 C190 1.356 . S
C186 O237 1.325 . S
C187 N188 1.279 . S
C187 C190 1.358 . S
C187 H244 0.930 . S
N188 C187 1.279 . S
N188 C191 1.314 . S
C189 C186 1.348 . S
C189 C191 1.353 . S
C189 H245 0.929 . S
C190 C186 1.356 . S
C190 C187 1.358 . S
C190 H246 0.930 . S
C191 N188 1.314 . S
C191 C189 1.353 . S
C191 H247 0.930 . S
C192 N193 1.314 . S
C192 C197 1.353 . S
C192 H198 0.930 . S
N193 Li176 1.990 . S
N193 C192 1.314 . S
N193 C195 1.279 . S
C194 C195 1.358 . S
C194 C196 1.356 . S
C194 H248 0.930 . S
C195 N193 1.279 . S
C195 C194 1.358 . S
C195 H199 0.930 . S
C196 C194 1.356 . S
C196 C197 1.348 . S
C197 C192 1.353 . S
C197 C196 1.348 . S
C197 H249 0.929 . S
H198 C192 0.930 . S
H199 C195 0.930 . S
C200 N201 1.314 . S
C200 C202 1.353 . S
C200 H206 0.930 . S
N201 Li177 1.990 . S
N201 C200 1.314 . S
N201 C204 1.279 . S
C202 C200 1.353 . S
C202 C205 1.348 . S
C202 H250 0.929 . S
C203 C204 1.358 . S
C203 C205 1.356 . S
C203 H251 0.930 . S
C204 N201 1.279 . S
C204 C203 1.358 . S
C204 H207 0.930 . S
C205 C202 1.348 . S
C205 C203 1.356 . S
H206 C200 0.930 . S
H207 C204 0.930 . S
C208 C210 1.349 1_554 S
C208 C211 1.333 1_554 S
C208 O238 1.325 . S
N209 C212 1.314 . S
N209 C213 1.279 . S
C210 C208 1.349 1_556 S
C210 C212 1.351 . S
C210 H252 0.930 1_556 S
C211 C208 1.333 1_556 S
C211 C213 1.399 . S
C211 H253 0.913 1_556 S
C212 N209 1.314 . S
C212 C210 1.351 . S
C212 H254 0.930 . S
C213 N209 1.279 . S
C213 C211 1.399 . S
C213 H255 0.930 . S
C214 C215 1.348 . S
C214 C216 1.356 . S
C214 O239 1.325 . S
C215 C214 1.348 . S
C215 C217 1.353 . S
C215 H256 0.929 . S
C216 C214 1.356 . S
C216 C218 1.358 . S
C216 H257 0.930 . S
C217 C215 1.353 . S
C217 N219 1.314 . S
C217 H258 0.930 . S
C218 C216 1.358 . S
C218 N219 1.279 . S
C218 H259 0.930 . S
N219 C217 1.314 . S
N219 C218 1.279 . S
C220 C222 1.353 . S
C220 N223 1.314 . S
C220 H226 0.930 . S
C221 N223 1.279 . S
C221 C224 1.358 1_554 S
C221 H227 0.930 1_554 S
C222 C220 1.353 . S
C222 C225 1.320 1_554 S
C222 H260 0.929 . S
N223 Li178 1.990 . S
N223 C220 1.314 . S
N223 C221 1.279 . S
C224 C221 1.358 1_556 S
C224 C225 1.367 . S
C224 H261 0.930 . S
C225 C222 1.320 1_556 S
C225 C224 1.367 . S
H226 C220 0.930 . S
H227 C221 0.930 1_556 S
C228 N229 1.314 . S
C228 C230 1.353 . S
C228 H234 0.930 . S
N229 Li179 1.990 . S
N229 C228 1.314 . S
N229 C232 1.279 . S
C230 C228 1.353 . S
C230 C233 1.348 . S
C230 H262 0.929 . S
C231 C232 1.358 . S
C231 C233 1.356 . S
C231 H263 0.930 . S
C232 N229 1.279 . S
C232 C231 1.358 . S
C232 H235 0.930 . S
C233 C230 1.348 . S
C233 C231 1.356 . S
H234 C228 0.930 . S
H235 C232 0.930 . S
O236 Li176 1.956 . S
O236 Li177 1.970 . S
O236 Li178 1.961 . S
O236 C180 1.325 . S
O237 Li176 1.970 . S
O237 Li177 1.956 . S
O237 Li179 1.961 . S
O237 C186 1.325 . S
O238 Li176 1.961 . S
O238 Li178 1.956 . S
O238 Li179 1.970 . S
O238 C208 1.325 . S
O239 Li177 1.961 . S
O239 Li178 1.970 . S
O239 Li179 1.956 . S
O239 C214 1.325 . S
H240 C182 0.929 . S
H241 C183 0.930 . S
H242 C184 0.930 . S
H243 C185 0.930 . S
H244 C187 0.930 . S
H245 C189 0.929 . S
H246 C190 0.930 . S
H247 C191 0.930 . S
H248 C194 0.930 . S
H249 C197 0.929 . S
H250 C202 0.929 . S
H251 C203 0.930 . S
H252 C210 0.930 1_554 S
H253 C211 0.913 1_554 S
H254 C212 0.930 . S
H255 C213 0.930 . S
H256 C215 0.929 . S
H257 C216 0.930 . S
H258 C217 0.930 . S
H259 C218 0.930 . S
H260 C222 0.929 . S
H261 C224 0.930 . S
H262 C230 0.929 . S
H263 C231 0.930 . S
Li264 N281 1.990 . S
Li264 O324 1.956 . S
Li264 O325 1.970 . S
Li264 O326 1.961 . S
Li265 N289 1.990 . S
Li265 O324 1.970 1_545 S
Li265 O325 1.956 1_545 S
Li265 O327 1.961 1_545 S
Li266 N311 1.990 . S
Li266 O324 1.961 . S
Li266 O326 1.956 . S
Li266 O327 1.970 . S
Li267 N317 1.990 . S
Li267 O325 1.961 . S
Li267 O326 1.970 . S
Li267 O327 1.956 . S
C268 C270 1.348 . S
C268 C271 1.356 . S
C268 O324 1.325 1_545 S
N269 C272 1.314 . S
N269 C273 1.279 . S
C270 C268 1.348 . S
C270 C272 1.353 . S
C270 H328 0.929 . S
C271 C268 1.356 . S
C271 C273 1.358 . S
C271 H329 0.930 1_545 S
C272 N269 1.314 . S
C272 C270 1.353 . S
C272 H330 0.930 . S
C273 N269 1.279 . S
C273 C271 1.358 . S
C273 H331 0.930 . S
C274 C277 1.348 . S
C274 C278 1.356 1_556 S
C274 O325 1.325 . S
C275 N276 1.279 1_565 S
C275 C278 1.358 . S
C275 H332 0.930 . S
N276 C275 1.279 1_545 S
N276 C279 1.314 . S
C277 C274 1.348 . S
C277 C279 1.353 1_566 S
C277 H333 0.929 1_565 S
C278 C274 1.356 1_554 S
C278 C275 1.358 . S
C278 H334 0.924 1_554 S
C279 N276 1.314 . S
C279 C277 1.353 1_544 S
C279 H335 0.930 . S
C280 N281 1.314 . S
C280 C285 1.353 . S
C280 H286 0.930 . S
N281 Li264 1.990 . S
N281 C280 1.314 . S
N281 C283 1.279 . S
C282 C283 1.358 . S
C282 C284 1.356 . S
C282 H336 0.930 1_565 S
C283 N281 1.279 . S
C283 C282 1.358 . S
C283 H287 0.930 1_565 S
C284 C282 1.356 . S
C284 C285 1.348 . S
C285 C280 1.353 . S
C285 C284 1.348 . S
C285 H337 0.929 . S
H286 C280 0.930 . S
H287 C283 0.930 1_545 S
C288 N289 1.314 . S
C288 C290 1.353 . S
C288 H294 0.930 . S
N289 Li265 1.990 . S
N289 C288 1.314 . S
N289 C292 1.279 . S
C290 C288 1.353 . S
C290 C293 1.348 . S
C290 H338 0.929 . S
C291 C292 1.358 . S
C291 C293 1.356 . S
C291 H339 0.930 . S
C292 N289 1.279 . S
C292 C291 1.358 . S
C292 H295 0.930 . S
C293 C290 1.348 . S
C293 C291 1.356 . S
H294 C288 0.930 . S
H295 C292 0.930 . S
C296 C298 1.348 . S
C296 C299 1.356 . S
C296 O326 1.325 . S
N297 C300 1.314 . S
N297 C301 1.279 . S
C298 C296 1.348 . S
C298 C300 1.353 . S
C298 H340 0.929 . S
C299 C296 1.356 . S
C299 C301 1.358 . S
C299 H341 0.930 . S
C300 N297 1.314 . S
C300 C298 1.353 . S
C300 H342 0.930 . S
C301 N297 1.279 . S
C301 C299 1.358 . S
C301 H343 0.930 . S
C302 C303 1.348 . S
C302 C304 1.356 . S
C302 O327 1.325 . S
C303 C302 1.348 . S
C303 C305 1.353 . S
C303 H344 0.929 . S
C304 C302 1.356 . S
C304 C306 1.358 . S
C304 H345 0.930 . S
C305 C303 1.353 . S
C305 N307 1.314 . S
C305 H346 0.930 . S
C306 C304 1.358 . S
C306 N307 1.279 . S
C306 H347 0.930 . S
N307 C305 1.314 . S
N307 C306 1.279 . S
C308 C310 1.353 . S
C308 N311 1.314 . S
C308 H314 0.930 . S
C309 N311 1.279 . S
C309 C312 1.358 . S
C309 H315 0.930 . S
C310 C308 1.353 . S
C310 C313 1.348 . S
C310 H348 0.929 . S
N311 Li266 1.990 . S
N311 C308 1.314 . S
N311 C309 1.279 . S
C312 C309 1.358 . S
C312 C313 1.356 . S
C312 H349 0.930 . S
C313 C310 1.348 . S
C313 C312 1.356 . S
H314 C308 0.930 . S
H315 C309 0.930 . S
C316 N317 1.314 . S
C316 C318 1.353 1_556 S
C316 H322 0.930 . S
N317 Li267 1.990 . S
N317 C316 1.314 . S
N317 C320 1.279 . S
C318 C316 1.353 1_554 S
C318 C321 1.348 . S
C318 H350 0.929 . S
C319 C320 1.358 . S
C319 C321 1.356 1_556 S
C319 H351 0.930 . S
C320 N317 1.279 . S
C320 C319 1.358 . S
C320 H323 0.930 . S
C321 C318 1.348 . S
C321 C319 1.356 1_554 S
H322 C316 0.930 . S
H323 C320 0.930 . S
O324 Li264 1.956 . S
O324 Li265 1.970 1_565 S
O324 Li266 1.961 . S
O324 C268 1.325 1_565 S
O325 Li264 1.970 . S
O325 Li265 1.956 1_565 S
O325 Li267 1.961 . S
O325 C274 1.325 . S
O326 Li264 1.961 . S
O326 Li266 1.956 . S
O326 Li267 1.970 . S
O326 C296 1.325 . S
O327 Li265 1.961 1_565 S
O327 Li266 1.970 . S
O327 Li267 1.956 . S
O327 C302 1.325 . S
H328 C270 0.929 . S
H329 C271 0.930 1_565 S
H330 C272 0.930 . S
H331 C273 0.930 . S
H332 C275 0.930 . S
H333 C277 0.929 1_545 S
H334 C278 0.924 1_556 S
H335 C279 0.930 . S
H336 C282 0.930 1_545 S
H337 C285 0.929 . S
H338 C290 0.929 . S
H339 C291 0.930 . S
H340 C298 0.929 . S
H341 C299 0.930 . S
H342 C300 0.930 . S
H343 C301 0.930 . S
H344 C303 0.929 . S
H345 C304 0.930 . S
H346 C305 0.930 . S
H347 C306 0.930 . S
H348 C310 0.929 . S
H349 C312 0.930 . S
H350 C318 0.929 . S
H351 C319 0.930 . S
Li352 N369 1.990 . S
Li352 O412 1.956 . S
Li352 O413 1.970 . S
Li352 O414 1.959 . S
Li353 N377 1.990 . S
Li353 O412 1.970 . S
Li353 O413 1.956 . S
Li353 O415 1.961 . S
Li354 N399 1.990 . S
Li354 O412 1.961 . S
Li354 O414 1.953 . S
Li354 O415 1.970 . S
Li355 N405 1.990 . S
Li355 O413 1.961 1_655 S
Li355 O414 1.972 1_655 S
Li355 O415 1.956 1_655 S
C356 C358 1.348 . S
C356 C359 1.356 . S
C356 O412 1.325 . S
N357 C360 1.314 . S
N357 C361 1.279 . S
C358 C356 1.348 . S
C358 C360 1.353 . S
C358 H416 0.929 . S
C359 C356 1.356 . S
C359 C361 1.358 . S
C359 H417 0.930 . S
C360 N357 1.314 . S
C360 C358 1.353 . S
C360 H418 0.930 . S
C361 N357 1.279 . S
C361 C359 1.358 . S
C361 H419 0.930 . S
C362 C365 1.348 . S
C362 C366 1.356 . S
C362 O413 1.325 . S
C363 N364 1.279 . S
C363 C366 1.358 . S
C363 H420 0.930 . S
N364 C363 1.279 . S
N364 C367 1.314 . S
C365 C362 1.348 . S
C365 C367 1.353 . S
C365 H421 0.929 . S
C366 C362 1.356 . S
C366 C363 1.358 . S
C366 H422 0.930 . S
C367 N364 1.314 . S
C367 C365 1.353 . S
C367 H423 0.930 . S
C368 N369 1.314 . S
C368 C373 1.353 . S
C368 H374 0.930 . S
N369 Li352 1.990 . S
N369 C368 1.314 . S
N369 C371 1.279 . S
C370 C371 1.358 . S
C370 C372 1.356 . S
C370 H424 0.930 . S
C371 N369 1.279 . S
C371 C370 1.358 . S
C371 H375 0.930 . S
C372 C370 1.356 . S
C372 C373 1.348 . S
C373 C368 1.353 . S
C373 C372 1.348 . S
C373 H425 0.929 . S
H374 C368 0.930 . S
H375 C371 0.930 . S
C376 N377 1.314 . S
C376 C378 1.353 1_556 S
C376 H382 0.930 . S
N377 Li353 1.990 . S
N377 C376 1.314 . S
N377 C380 1.279 . S
C378 C376 1.353 1_554 S
C378 C381 1.348 . S
C378 H426 0.929 . S
C379 C380 1.358 . S
C379 C381 1.356 1_556 S
C379 H427 0.930 . S
C380 N377 1.279 . S
C380 C379 1.358 . S
C380 H383 0.930 . S
C381 C378 1.348 . S
C381 C379 1.356 1_554 S
H382 C376 0.930 . S
H383 C380 0.930 . S
C384 C386 1.348 . S
C384 C387 1.356 . S
C384 O414 1.326 1_655 S
N385 C388 1.314 . S
N385 C389 1.279 . S
C386 C384 1.348 . S
C386 C388 1.353 . S
C386 H428 0.929 . S
C387 C384 1.356 . S
C387 C389 1.358 . S
C387 H429 0.930 1_655 S
C388 N385 1.314 . S
C388 C386 1.353 . S
C388 H430 0.930 . S
C389 N385 1.279 . S
C389 C387 1.358 . S
C389 H431 0.930 . S
C390 C391 1.348 . S
C390 C392 1.356 1_556 S
C390 O415 1.325 . S
C391 C390 1.348 . S
C391 C393 1.353 1_456 S
C391 H432 0.930 1_455 S
C392 C390 1.356 1_554 S
C392 C394 1.358 . S
C392 H433 0.923 1_554 S
C393 C391 1.353 1_654 S
C393 N395 1.314 . S
C393 H434 0.930 . S
C394 C392 1.358 . S
C394 N395 1.279 1_455 S
C394 H435 0.930 . S
N395 C393 1.314 . S
N395 C394 1.279 1_655 S
C396 C398 1.353 . S
C396 N399 1.314 . S
C396 H402 0.930 . S
C397 N399 1.279 . S
C397 C400 1.363 1_455 S
C397 H403 0.930 1_455 S
C398 C396 1.353 . S
C398 C401 1.348 . S
C398 H436 0.929 . S
N399 Li354 1.990 . S
N399 C396 1.314 . S
N399 C397 1.279 . S
C400 C397 1.363 1_655 S
C400 C401 1.347 1_655 S
C400 H437 0.934 . S
C401 C398 1.348 . S
C401 C400 1.347 1_455 S
H402 C396 0.930 . S
H403 C397 0.930 1_655 S
C404 N405 1.314 . S
C404 C406 1.353 . S
C404 H410 0.930 . S
N405 Li355 1.990 . S
N405 C404 1.314 . S
N405 C408 1.279 . S
C406 C404 1.353 . S
C406 C409 1.348 . S
C406 H438 0.929 . S
C407 C408 1.358 . S
C407 C409 1.356 . S
C407 H439 0.930 . S
C408 N405 1.279 . S
C408 C407 1.358 . S
C408 H411 0.930 . S
C409 C406 1.348 . S
C409 C407 1.356 . S
H410 C404 0.930 . S
H411 C408 0.930 . S
O412 Li352 1.956 . S
O412 Li353 1.970 . S
O412 Li354 1.961 . S
O412 C356 1.325 . S
O413 Li352 1.970 . S
O413 Li353 1.956 . S
O413 Li355 1.961 1_455 S
O413 C362 1.325 . S
O414 Li352 1.959 . S
O414 Li354 1.953 . S
O414 Li355 1.972 1_455 S
O414 C384 1.326 1_455 S
O415 Li353 1.961 . S
O415 Li354 1.970 . S
O415 Li355 1.956 1_455 S
O415 C390 1.325 . S
H416 C358 0.929 . S
H417 C359 0.930 . S
H418 C360 0.930 . S
H419 C361 0.930 . S
H420 C363 0.930 . S
H421 C365 0.929 . S
H422 C366 0.930 . S
H423 C367 0.930 . S
H424 C370 0.930 . S
H425 C373 0.929 . S
H426 C378 0.929 . S
H427 C379 0.930 . S
H428 C386 0.929 . S
H429 C387 0.930 1_455 S
H430 C388 0.930 . S
H431 C389 0.930 . S
H432 C391 0.930 1_655 S
H433 C392 0.923 1_556 S
H434 C393 0.930 . S
H435 C394 0.930 . S
H436 C398 0.929 . S
H437 C400 0.934 . S
H438 C406 0.929 . S
H439 C407 0.930 . S
Li440 N457 1.990 . S
Li440 O500 1.956 . S
Li440 O501 1.970 . S
Li440 O502 1.961 . S
Li441 N465 1.990 . S
Li441 O500 1.970 . S
Li441 O501 1.956 . S
Li441 O503 1.961 . S
Li442 N487 1.990 . S
Li442 O500 1.961 . S
Li442 O502 1.956 . S
Li442 O503 1.970 . S
Li443 N493 1.990 . S
Li443 O501 1.961 . S
Li443 O502 1.970 . S
Li443 O503 1.956 . S
C444 C446 1.348 . S
C444 C447 1.332 1_556 S
C444 O500 1.325 . S
N445 C448 1.314 . S
N445 C449 1.279 . S
C446 C444 1.348 . S
C446 C448 1.353 1_556 S
C446 H504 0.929 . S
C447 C444 1.332 1_554 S
C447 C449 1.399 . S
C447 H505 0.915 1_554 S
C448 N445 1.314 . S
C448 C446 1.353 1_554 S
C448 H506 0.930 . S
C449 N445 1.279 . S
C449 C447 1.399 . S
C449 H507 0.930 . S
C450 C453 1.348 . S
C450 C454 1.356 . S
C450 O501 1.325 . S
C451 N452 1.279 . S
C451 C454 1.358 . S
C451 H508 0.930 . S
N452 C451 1.279 . S
N452 C455 1.314 . S
C453 C450 1.348 . S
C453 C455 1.353 . S
C453 H509 0.929 . S
C454 C450 1.356 . S
C454 C451 1.358 . S
C454 H510 0.930 . S
C455 N452 1.314 . S
C455 C453 1.353 . S
C455 H511 0.930 . S
C456 N457 1.314 . S
C456 C461 1.353 . S
C456 H462 0.930 . S
N457 Li440 1.990 . S
N457 C456 1.314 . S
N457 C459 1.279 . S
C458 C459 1.358 1_554 S
C458 C460 1.346 1_554 S
C458 H512 0.930 . S
C459 N457 1.279 . S
C459 C458 1.358 1_556 S
C459 H463 0.930 1_556 S
C460 C458 1.346 1_556 S
C460 C461 1.374 . S
C461 C456 1.353 . S
C461 C460 1.374 . S
C461 H513 0.929 . S
H462 C456 0.930 . S
H463 C459 0.930 1_554 S
C464 N465 1.314 . S
C464 C466 1.353 . S
C464 H470 0.930 . S
N465 Li441 1.990 . S
N465 C464 1.314 . S
N465 C468 1.279 . S
C466 C464 1.353 . S
C466 C469 1.348 . S
C466 H514 0.929 . S
C467 C468 1.358 . S
C467 C469 1.356 . S
C467 H515 0.930 . S
C468 N465 1.279 . S
C468 C467 1.358 . S
C468 H471 0.930 . S
C469 C466 1.348 . S
C469 C467 1.356 . S
H470 C464 0.930 . S
H471 C468 0.930 . S
C472 C474 1.348 . S
C472 C475 1.356 . S
C472 O502 1.325 . S
N473 C476 1.314 . S
N473 C477 1.279 . S
C474 C472 1.348 . S
C474 C476 1.353 . S
C474 H516 0.929 . S
C475 C472 1.356 . S
C475 C477 1.358 . S
C475 H517 0.930 . S
C476 N473 1.314 . S
C476 C474 1.353 . S
C476 H518 0.930 . S
C477 N473 1.279 . S
C477 C475 1.358 . S
C477 H519 0.930 . S
C478 C479 1.348 . S
C478 C480 1.356 . S
C478 O503 1.325 . S
C479 C478 1.348 . S
C479 C481 1.353 . S
C479 H520 0.929 . S
C480 C478 1.356 . S
C480 C482 1.358 . S
C480 H521 0.930 . S
C481 C479 1.353 . S
C481 N483 1.314 . S
C481 H522 0.930 . S
C482 C480 1.358 . S
C482 N483 1.279 . S
C482 H523 0.930 . S
N483 C481 1.314 . S
N483 C482 1.279 . S
C484 C486 1.353 . S
C484 N487 1.314 . S
C484 H490 0.930 . S
C485 N487 1.279 . S
C485 C488 1.358 . S
C485 H491 0.930 . S
C486 C484 1.353 . S
C486 C489 1.348 . S
C486 H524 0.929 . S
N487 Li442 1.990 . S
N487 C484 1.314 . S
N487 C485 1.279 . S
C488 C485 1.358 . S
C488 C489 1.356 . S
C488 H525 0.930 . S
C489 C486 1.348 . S
C489 C488 1.356 . S
H490 C484 0.930 . S
H491 C485 0.930 . S
C492 N493 1.314 . S
C492 C494 1.353 . S
C492 H498 0.930 . S
N493 Li443 1.990 . S
N493 C492 1.314 . S
N493 C496 1.279 . S
C494 C492 1.353 . S
C494 C497 1.348 . S
C494 H526 0.929 . S
C495 C496 1.358 . S
C495 C497 1.356 . S
C495 H527 0.930 . S
C496 N493 1.279 . S
C496 C495 1.358 . S
C496 H499 0.930 . S
C497 C494 1.348 . S
C497 C495 1.356 . S
H498 C492 0.930 . S
H499 C496 0.930 . S
O500 Li440 1.956 . S
O500 Li441 1.970 . S
O500 Li442 1.961 . S
O500 C444 1.325 . S
O501 Li440 1.970 . S
O501 Li441 1.956 . S
O501 Li443 1.961 . S
O501 C450 1.325 . S
O502 Li440 1.961 . S
O502 Li442 1.956 . S
O502 Li443 1.970 . S
O502 C472 1.325 . S
O503 Li441 1.961 . S
O503 Li442 1.970 . S
O503 Li443 1.956 . S
O503 C478 1.325 . S
H504 C446 0.929 . S
H505 C447 0.915 1_556 S
H506 C448 0.930 . S
H507 C449 0.930 . S
H508 C451 0.930 . S
H509 C453 0.929 . S
H510 C454 0.930 . S
H511 C455 0.930 . S
H512 C458 0.930 . S
H513 C461 0.929 . S
H514 C466 0.929 . S
H515 C467 0.930 . S
H516 C474 0.929 . S
H517 C475 0.930 . S
H518 C476 0.930 . S
H519 C477 0.930 . S
H520 C479 0.929 . S
H521 C480 0.930 . S
H522 C481 0.930 . S
H523 C482 0.930 . S
H524 C486 0.929 . S
H525 C488 0.930 . S
H526 C494 0.929 . S
H527 C495 0.930 . S
Li528 N545 1.981 . S
Li528 O588 1.974 . S
Li528 O589 1.957 1_455 S
Li528 O590 1.971 1_455 S
Li529 N553 1.990 . S
Li529 O588 1.970 1_655 S
Li529 O589 1.956 . S
Li529 O591 1.961 1_655 S
Li530 N575 1.990 . S
Li530 O588 1.961 . S
Li530 O590 1.956 1_455 S
Li530 O591 1.970 . S
Li531 N581 1.990 . S
Li531 O589 1.961 . S
Li531 O590 1.970 . S
Li531 O591 1.956 1_655 S
C532 C534 1.348 . S
C532 C535 1.356 . S
C532 O588 1.325 . S
N533 C536 1.314 . S
N533 C537 1.279 . S
C534 C532 1.348 . S
C534 C536 1.353 . S
C534 H592 0.929 . S
C535 C532 1.356 . S
C535 C537 1.358 . S
C535 H593 0.930 . S
C536 N533 1.314 . S
C536 C534 1.353 . S
C536 H594 0.930 . S
C537 N533 1.279 . S
C537 C535 1.358 . S
C537 H595 0.930 . S
C538 C541 1.348 . S
C538 C542 1.356 . S
C538 O589 1.325 . S
C539 N540 1.279 . S
C539 C542 1.358 . S
C539 H596 0.930 . S
N540 C539 1.279 . S
N540 C543 1.314 . S
C541 C538 1.348 . S
C541 C543 1.353 . S
C541 H597 0.929 . S
C542 C538 1.356 . S
C542 C539 1.358 . S
C542 H598 0.930 . S
C543 N540 1.314 . S
C543 C541 1.353 . S
C543 H599 0.930 . S
C544 N545 1.314 1_655 S
C544 C549 1.353 . S
C544 H550 0.930 . S
N545 Li528 1.981 . S
N545 C544 1.314 1_455 S
N545 C547 1.279 . S
C546 C547 1.358 . S
C546 C548 1.356 1_455 S
C546 H600 0.930 . S
C547 N545 1.279 . S
C547 C546 1.358 . S
C547 H551 0.930 . S
C548 C546 1.356 1_655 S
C548 C549 1.348 . S
C549 C544 1.353 . S
C549 C548 1.348 . S
C549 H601 0.929 . S
H550 C544 0.930 . S
H551 C547 0.930 . S
C552 N553 1.314 1_455 S
C552 C554 1.353 . S
C552 H558 0.930 . S
N553 Li529 1.990 . S
N553 C552 1.314 1_655 S
N553 C556 1.279 . S
C554 C552 1.353 . S
C554 C557 1.348 . S
C554 H602 0.929 . S
C555 C556 1.358 . S
C555 C557 1.356 1_655 S
C555 H603 0.930 . S
C556 N553 1.279 . S
C556 C555 1.358 . S
C556 H559 0.930 . S
C557 C554 1.348 . S
C557 C555 1.356 1_455 S
H558 C552 0.930 . S
H559 C556 0.930 . S
C560 C562 1.349 . S
C560 C563 1.349 1_655 S
C560 O590 1.328 . S
N561 C564 1.314 1_455 S
N561 C565 1.279 . S
C562 C560 1.349 . S
C562 C564 1.353 . S
C562 H604 0.929 . S
C563 C560 1.349 1_455 S
C563 C565 1.358 . S
C563 H605 0.930 . S
C564 N561 1.314 1_655 S
C564 C562 1.353 . S
C564 H606 0.930 . S
C565 N561 1.279 . S
C565 C563 1.358 . S
C565 H607 0.930 . S
C566 C567 1.348 . S
C566 C568 1.356 1_455 S
C566 O591 1.325 . S
C567 C566 1.348 . S
C567 C569 1.353 . S
C567 H608 0.929 . S
C568 C566 1.356 1_655 S
C568 C570 1.358 . S
C568 H609 0.930 . S
C569 C567 1.353 . S
C569 N571 1.308 1_455 S
C569 H610 0.930 . S
C570 C568 1.358 . S
C570 N571 1.292 . S
C570 H611 0.930 . S
N571 C569 1.308 1_655 S
N571 C570 1.292 . S
C572 C574 1.353 . S
C572 N575 1.314 . S
C572 H578 0.930 . S
C573 N575 1.279 . S
C573 C576 1.358 . S
C573 H579 0.930 . S
C574 C572 1.353 . S
C574 C577 1.348 . S
C574 H612 0.929 . S
N575 Li530 1.990 . S
N575 C572 1.314 . S
N575 C573 1.279 . S
C576 C573 1.358 . S
C576 C577 1.356 . S
C576 H613 0.930 . S
C577 C574 1.348 . S
C577 C576 1.356 . S
H578 C572 0.930 . S
H579 C573 0.930 . S
C580 N581 1.314 . S
C580 C582 1.353 . S
C580 H586 0.930 . S
N581 Li531 1.990 . S
N581 C580 1.314 . S
N581 C584 1.279 . S
C582 C580 1.353 . S
C582 C585 1.348 . S
C582 H614 0.929 . S
C583 C584 1.358 . S
C583 C585 1.356 . S
C583 H615 0.930 . S
C584 N581 1.279 . S
C584 C583 1.358 . S
C584 H587 0.930 . S
C585 C582 1.348 . S
C585 C583 1.356 . S
H586 C580 0.930 . S
H587 C584 0.930 . S
O588 Li528 1.974 . S
O588 Li529 1.970 1_455 S
O588 Li530 1.961 . S
O588 C532 1.325 . S
O589 Li528 1.957 1_655 S
O589 Li529 1.956 . S
O589 Li531 1.961 . S
O589 C538 1.325 . S
O590 Li528 1.971 1_655 S
O590 Li530 1.956 1_655 S
O590 Li531 1.970 . S
O590 C560 1.328 . S
O591 Li529 1.961 1_455 S
O591 Li530 1.970 . S
O591 Li531 1.956 1_455 S
O591 C566 1.325 . S
H592 C534 0.929 . S
H593 C535 0.930 . S
H594 C536 0.930 . S
H595 C537 0.930 . S
H596 C539 0.930 . S
H597 C541 0.929 . S
H598 C542 0.930 . S
H599 C543 0.930 . S
H600 C546 0.930 . S
H601 C549 0.929 . S
H602 C554 0.929 . S
H603 C555 0.930 . S
H604 C562 0.929 . S
H605 C563 0.930 . S
H606 C564 0.930 . S
H607 C565 0.930 . S
H608 C567 0.929 . S
H609 C568 0.930 . S
H610 C569 0.930 . S
H611 C570 0.930 . S
H612 C574 0.929 . S
H613 C576 0.930 . S
H614 C582 0.929 . S
H615 C583 0.930 . S
Li616 N633 1.990 . S
Li616 O676 1.956 . S
Li616 O677 1.970 . S
Li616 O678 1.961 . S
Li617 N641 1.990 . S
Li617 O676 1.970 . S
Li617 O677 1.956 . S
Li617 O679 1.961 . S
Li618 N663 1.990 . S
Li618 O676 1.961 . S
Li618 O678 1.956 . S
Li618 O679 1.970 . S
Li619 N669 1.990 . S
Li619 O677 1.961 . S
Li619 O678 1.970 . S
Li619 O679 1.956 . S
C620 C622 1.348 . S
C620 C623 1.356 . S
C620 O676 1.325 . S
N621 C624 1.314 . S
N621 C625 1.279 . S
C622 C620 1.348 . S
C622 C624 1.353 . S
C622 H680 0.929 . S
C623 C620 1.356 . S
C623 C625 1.358 . S
C623 H681 0.930 . S
C624 N621 1.314 . S
C624 C622 1.353 . S
C624 H682 0.930 . S
C625 N621 1.279 . S
C625 C623 1.358 . S
C625 H683 0.930 . S
C626 C629 1.348 . S
C626 C630 1.356 . S
C626 O677 1.325 . S
C627 N628 1.279 . S
C627 C630 1.358 . S
C627 H684 0.930 . S
N628 C627 1.279 . S
N628 C631 1.314 . S
C629 C626 1.348 . S
C629 C631 1.353 . S
C629 H685 0.929 . S
C630 C626 1.356 . S
C630 C627 1.358 . S
C630 H686 0.930 . S
C631 N628 1.314 . S
C631 C629 1.353 . S
C631 H687 0.930 . S
C632 N633 1.314 . S
C632 C637 1.353 . S
C632 H638 0.930 . S
N633 Li616 1.990 . S
N633 C632 1.314 . S
N633 C635 1.279 . S
C634 C635 1.358 . S
C634 C636 1.356 . S
C634 H688 0.930 . S
C635 N633 1.279 . S
C635 C634 1.358 . S
C635 H639 0.930 . S
C636 C634 1.356 . S
C636 C637 1.348 . S
C637 C632 1.353 . S
C637 C636 1.348 . S
C637 H689 0.929 . S
H638 C632 0.930 . S
H639 C635 0.930 . S
C640 N641 1.314 . S
C640 C642 1.353 . S
C640 H646 0.930 . S
N641 Li617 1.990 . S
N641 C640 1.314 . S
N641 C644 1.279 . S
C642 C640 1.353 . S
C642 C645 1.348 . S
C642 H690 0.929 . S
C643 C644 1.358 . S
C643 C645 1.356 . S
C643 H691 0.930 . S
C644 N641 1.279 . S
C644 C643 1.358 . S
C644 H647 0.930 . S
C645 C642 1.348 . S
C645 C643 1.356 . S
H646 C640 0.930 . S
H647 C644 0.930 . S
C648 C650 1.348 . S
C648 C651 1.356 . S
C648 O678 1.325 . S
N649 C652 1.314 . S
N649 C653 1.279 . S
C650 C648 1.348 . S
C650 C652 1.353 . S
C650 H692 0.929 . S
C651 C648 1.356 . S
C651 C653 1.358 . S
C651 H693 0.930 . S
C652 N649 1.314 . S
C652 C650 1.353 . S
C652 H694 0.930 . S
C653 N649 1.279 . S
C653 C651 1.358 . S
C653 H695 0.930 . S
C654 C655 1.348 . S
C654 C656 1.356 . S
C654 O679 1.325 . S
C655 C654 1.348 . S
C655 C657 1.353 . S
C655 H696 0.929 . S
C656 C654 1.356 . S
C656 C658 1.358 . S
C656 H697 0.930 . S
C657 C655 1.353 . S
C657 N659 1.314 . S
C657 H698 0.930 . S
C658 C656 1.358 . S
C658 N659 1.279 . S
C658 H699 0.930 . S
N659 C657 1.314 . S
N659 C658 1.279 . S
C660 C662 1.353 . S
C660 N663 1.314 . S
C660 H666 0.930 . S
C661 N663 1.279 . S
C661 C664 1.358 . S
C661 H667 0.930 . S
C662 C660 1.353 . S
C662 C665 1.348 . S
C662 H700 0.929 . S
N663 Li618 1.990 . S
N663 C660 1.314 . S
N663 C661 1.279 . S
C664 C661 1.358 . S
C664 C665 1.356 . S
C664 H701 0.930 . S
C665 C662 1.348 . S
C665 C664 1.356 . S
H666 C660 0.930 . S
H667 C661 0.930 . S
C668 N669 1.314 . S
C668 C670 1.353 . S
C668 H674 0.930 . S
N669 Li619 1.990 . S
N669 C668 1.314 . S
N669 C672 1.279 . S
C670 C668 1.353 . S
C670 C673 1.348 . S
C670 H702 0.929 . S
C671 C672 1.358 . S
C671 C673 1.356 . S
C671 H703 0.930 . S
C672 N669 1.279 . S
C672 C671 1.358 . S
C672 H675 0.930 . S
C673 C670 1.348 . S
C673 C671 1.356 . S
H674 C668 0.930 . S
H675 C672 0.930 . S
O676 Li616 1.956 . S
O676 Li617 1.970 . S
O676 Li618 1.961 . S
O676 C620 1.325 . S
O677 Li616 1.970 . S
O677 Li617 1.956 . S
O677 Li619 1.961 . S
O677 C626 1.325 . S
O678 Li616 1.961 . S
O678 Li618 1.956 . S
O678 Li619 1.970 . S
O678 C648 1.325 . S
O679 Li617 1.961 . S
O679 Li618 1.970 . S
O679 Li619 1.956 . S
O679 C654 1.325 . S
H680 C622 0.929 . S
H681 C623 0.930 . S
H682 C624 0.930 . S
H683 C625 0.930 . S
H684 C627 0.930 . S
H685 C629 0.929 . S
H686 C630 0.930 . S
H687 C631 0.930 . S
H688 C634 0.930 . S
H689 C637 0.929 . S
H690 C642 0.929 . S
H691 C643 0.930 . S
H692 C650 0.929 . S
H693 C651 0.930 . S
H694 C652 0.930 . S
H695 C653 0.930 . S
H696 C655 0.929 . S
H697 C656 0.930 . S
H698 C657 0.930 . S
H699 C658 0.930 . S
H700 C662 0.929 . S
H701 C664 0.930 . S
H702 C670 0.929 . S
H703 C671 0.930 . S
Li704 N721 1.990 . S
Li704 O764 1.956 . S
Li704 O765 1.957 1_545 S
Li704 O766 1.959 . S
Li705 N729 1.990 . S
Li705 O764 1.970 1_565 S
Li705 O765 1.971 . S
Li705 O767 1.961 . S
Li706 N751 1.990 . S
Li706 O764 1.961 . S
Li706 O766 1.957 . S
Li706 O767 1.970 1_545 S
Li707 N757 1.990 . S
Li707 O765 1.984 . S
Li707 O766 1.972 1_565 S
Li707 O767 1.956 . S
C708 C710 1.348 . S
C708 C711 1.356 . S
C708 O764 1.325 . S
N709 C712 1.314 . S
N709 C713 1.279 . S
C710 C708 1.348 . S
C710 C712 1.353 . S
C710 H768 0.929 . S
C711 C708 1.356 . S
C711 C713 1.358 . S
C711 H769 0.930 . S
C712 N709 1.314 . S
C712 C710 1.353 . S
C712 H770 0.930 . S
C713 N709 1.279 . S
C713 C711 1.358 . S
C713 H771 0.930 . S
C714 C717 1.348 1_565 S
C714 C718 1.356 . S
C714 O765 1.314 . S
C715 N716 1.279 . S
C715 C718 1.358 . S
C715 H772 0.930 . S
N716 C715 1.279 . S
N716 C719 1.314 1_565 S
C717 C714 1.348 1_545 S
C717 C719 1.353 . S
C717 H773 0.929 . S
C718 C714 1.356 . S
C718 C715 1.358 . S
C718 H774 0.930 . S
C719 N716 1.314 1_545 S
C719 C717 1.353 . S
C719 H775 0.930 . S
C720 N721 1.314 . S
C720 C725 1.353 . S
C720 H726 0.930 . S
N721 Li704 1.990 . S
N721 C720 1.314 . S
N721 C723 1.279 . S
C722 C723 1.358 . S
C722 C724 1.356 . S
C722 H776 0.930 . S
C723 N721 1.279 . S
C723 C722 1.358 . S
C723 H727 0.930 . S
C724 C722 1.356 . S
C724 C725 1.348 . S
C725 C720 1.353 . S
C725 C724 1.348 . S
C725 H777 0.929 . S
H726 C720 0.930 . S
H727 C723 0.930 . S
C728 N729 1.314 . S
C728 C730 1.353 . S
C728 H734 0.930 . S
N729 Li705 1.990 . S
N729 C728 1.314 . S
N729 C732 1.279 1_565 S
C730 C728 1.353 . S
C730 C733 1.348 . S
C730 H778 0.929 . S
C731 C732 1.358 . S
C731 C733 1.356 1_545 S
C731 H779 0.930 . S
C732 N729 1.279 1_545 S
C732 C731 1.358 . S
C732 H735 0.930 . S
C733 C730 1.348 . S
C733 C731 1.356 1_565 S
H734 C728 0.930 . S
H735 C732 0.930 . S
C736 C738 1.325 1_545 S
C736 C739 1.383 . S
C736 O766 1.320 . S
N737 C740 1.314 1_545 S
N737 C741 1.279 . S
C738 C736 1.325 1_565 S
C738 C740 1.353 . S
C738 H780 0.929 . S
C739 C736 1.383 . S
C739 C741 1.358 . S
C739 H781 0.930 . S
C740 N737 1.314 1_565 S
C740 C738 1.353 . S
C740 H782 0.930 . S
C741 N737 1.279 . S
C741 C739 1.358 . S
C741 H783 0.930 . S
C742 C743 1.348 . S
C742 C744 1.356 . S
C742 O767 1.325 . S
C743 C742 1.348 . S
C743 C745 1.353 . S
C743 H784 0.929 . S
C744 C742 1.356 . S
C744 C746 1.358 . S
C744 H785 0.930 . S
C745 C743 1.353 . S
C745 N747 1.314 . S
C745 H786 0.930 . S
C746 C744 1.358 . S
C746 N747 1.279 . S
C746 H787 0.930 . S
N747 C745 1.314 . S
N747 C746 1.279 . S
C748 C750 1.353 . S
C748 N751 1.314 . S
C748 H754 0.930 . S
C749 N751 1.279 1_565 S
C749 C752 1.358 . S
C749 H755 0.930 . S
C750 C748 1.353 . S
C750 C753 1.348 . S
C750 H788 0.929 . S
N751 Li706 1.990 . S
N751 C748 1.314 . S
N751 C749 1.279 1_545 S
C752 C749 1.358 . S
C752 C753 1.356 1_565 S
C752 H789 0.930 . S
C753 C750 1.348 . S
C753 C752 1.356 1_545 S
H754 C748 0.930 . S
H755 C749 0.930 . S
C756 N757 1.314 . S
C756 C758 1.353 . S
C756 H762 0.930 . S
N757 Li707 1.990 . S
N757 C756 1.314 . S
N757 C760 1.279 . S
C758 C756 1.353 . S
C758 C761 1.348 . S
C758 H790 0.929 . S
C759 C760 1.358 . S
C759 C761 1.356 . S
C759 H791 0.930 . S
C760 N757 1.279 . S
C760 C759 1.358 . S
C760 H763 0.930 . S
C761 C758 1.348 . S
C761 C759 1.356 . S
H762 C756 0.930 . S
H763 C760 0.930 . S
O764 Li704 1.956 . S
O764 Li705 1.970 1_545 S
O764 Li706 1.961 . S
O764 C708 1.325 . S
O765 Li704 1.957 1_565 S
O765 Li705 1.971 . S
O765 Li707 1.984 . S
O765 C714 1.314 . S
O766 Li704 1.959 . S
O766 Li706 1.957 . S
O766 Li707 1.972 1_545 S
O766 C736 1.320 . S
O767 Li705 1.961 . S
O767 Li706 1.970 1_565 S
O767 Li707 1.956 . S
O767 C742 1.325 . S
H768 C710 0.929 . S
H769 C711 0.930 . S
H770 C712 0.930 . S
H771 C713 0.930 . S
H772 C715 0.930 . S
H773 C717 0.929 . S
H774 C718 0.930 . S
H775 C719 0.930 . S
H776 C722 0.930 . S
H777 C725 0.929 . S
H778 C730 0.929 . S
H779 C731 0.930 . S
H780 C738 0.929 . S
H781 C739 0.930 . S
H782 C740 0.930 . S
H783 C741 0.930 . S
H784 C743 0.929 . S
H785 C744 0.930 . S
H786 C745 0.930 . S
H787 C746 0.930 . S
H788 C750 0.929 . S
H789 C752 0.930 . S
H790 C758 0.929 . S
H791 C759 0.930 . S
Li792 N809 1.990 . S
Li792 O852 1.956 . S
Li792 O853 1.970 . S
Li792 O854 1.961 . S
Li793 N817 1.990 . S
Li793 O852 1.970 . S
Li793 O853 1.956 . S
Li793 O855 1.961 . S
Li794 N839 1.990 . S
Li794 O852 1.961 . S
Li794 O854 1.956 . S
Li794 O855 1.970 . S
Li795 N845 1.990 . S
Li795 O853 1.961 . S
Li795 O854 1.970 . S
Li795 O855 1.956 . S
C796 C798 1.348 . S
C796 C799 1.356 . S
C796 O852 1.325 . S
N797 C800 1.314 . S
N797 C801 1.279 . S
C798 C796 1.348 . S
C798 C800 1.353 . S
C798 H856 0.929 . S
C799 C796 1.356 . S
C799 C801 1.358 . S
C799 H857 0.930 . S
C800 N797 1.314 . S
C800 C798 1.353 . S
C800 H858 0.930 . S
C801 N797 1.279 . S
C801 C799 1.358 . S
C801 H859 0.930 . S
C802 C805 1.348 . S
C802 C806 1.356 . S
C802 O853 1.325 . S
C803 N804 1.279 . S
C803 C806 1.358 . S
C803 H860 0.930 . S
N804 C803 1.279 . S
N804 C807 1.314 . S
C805 C802 1.348 . S
C805 C807 1.353 . S
C805 H861 0.929 . S
C806 C802 1.356 . S
C806 C803 1.358 . S
C806 H862 0.930 . S
C807 N804 1.314 . S
C807 C805 1.353 . S
C807 H863 0.930 . S
C808 N809 1.314 . S
C808 C813 1.353 . S
C808 H814 0.930 . S
N809 Li792 1.990 . S
N809 C808 1.314 . S
N809 C811 1.279 . S
C810 C811 1.358 . S
C810 C812 1.356 . S
C810 H864 0.930 . S
C811 N809 1.279 . S
C811 C810 1.358 . S
C811 H815 0.930 . S
C812 C810 1.356 . S
C812 C813 1.348 . S
C813 C808 1.353 . S
C813 C812 1.348 . S
C813 H865 0.929 . S
H814 C808 0.930 . S
H815 C811 0.930 . S
C816 N817 1.314 . S
C816 C818 1.353 . S
C816 H822 0.930 . S
N817 Li793 1.990 . S
N817 C816 1.314 . S
N817 C820 1.279 . S
C818 C816 1.353 . S
C818 C821 1.348 . S
C818 H866 0.929 . S
C819 C820 1.358 . S
C819 C821 1.356 . S
C819 H867 0.930 . S
C820 N817 1.279 . S
C820 C819 1.358 . S
C820 H823 0.930 . S
C821 C818 1.348 . S
C821 C819 1.356 . S
H822 C816 0.930 . S
H823 C820 0.930 . S
C824 C826 1.348 . S
C824 C827 1.356 . S
C824 O854 1.325 . S
N825 C828 1.314 . S
N825 C829 1.279 . S
C826 C824 1.348 . S
C826 C828 1.353 . S
C826 H868 0.929 . S
C827 C824 1.356 . S
C827 C829 1.358 . S
C827 H869 0.930 . S
C828 N825 1.314 . S
C828 C826 1.353 . S
C828 H870 0.930 . S
C829 N825 1.279 . S
C829 C827 1.358 . S
C829 H871 0.930 . S
C830 C831 1.348 . S
C830 C832 1.356 . S
C830 O855 1.325 . S
C831 C830 1.348 . S
C831 C833 1.353 . S
C831 H872 0.929 . S
C832 C830 1.356 . S
C832 C834 1.358 . S
C832 H873 0.930 . S
C833 C831 1.353 . S
C833 N835 1.314 . S
C833 H874 0.930 . S
C834 C832 1.358 . S
C834 N835 1.279 . S
C834 H875 0.930 . S
N835 C833 1.314 . S
N835 C834 1.279 . S
C836 C838 1.353 . S
C836 N839 1.314 . S
C836 H842 0.930 . S
C837 N839 1.279 . S
C837 C840 1.358 . S
C837 H843 0.930 . S
C838 C836 1.353 . S
C838 C841 1.348 . S
C838 H876 0.929 . S
N839 Li794 1.990 . S
N839 C836 1.314 . S
N839 C837 1.279 . S
C840 C837 1.358 . S
C840 C841 1.356 . S
C840 H877 0.930 . S
C841 C838 1.348 . S
C841 C840 1.356 . S
H842 C836 0.930 . S
H843 C837 0.930 . S
C844 N845 1.314 . S
C844 C846 1.353 . S
C844 H850 0.930 . S
N845 Li795 1.990 . S
N845 C844 1.314 . S
N845 C848 1.279 . S
C846 C844 1.353 . S
C846 C849 1.348 . S
C846 H878 0.929 . S
C847 C848 1.358 . S
C847 C849 1.356 . S
C847 H879 0.930 . S
C848 N845 1.279 . S
C848 C847 1.358 . S
C848 H851 0.930 . S
C849 C846 1.348 . S
C849 C847 1.356 . S
H850 C844 0.930 . S
H851 C848 0.930 . S
O852 Li792 1.956 . S
O852 Li793 1.970 . S
O852 Li794 1.961 . S
O852 C796 1.325 . S
O853 Li792 1.970 . S
O853 Li793 1.956 . S
O853 Li795 1.961 . S
O853 C802 1.325 . S
O854 Li792 1.961 . S
O854 Li794 1.956 . S
O854 Li795 1.970 . S
O854 C824 1.325 . S
O855 Li793 1.961 . S
O855 Li794 1.970 . S
O855 Li795 1.956 . S
O855 C830 1.325 . S
H856 C798 0.929 . S
H857 C799 0.930 . S
H858 C800 0.930 . S
H859 C801 0.930 . S
H860 C803 0.930 . S
H861 C805 0.929 . S
H862 C806 0.930 . S
H863 C807 0.930 . S
H864 C810 0.930 . S
H865 C813 0.929 . S
H866 C818 0.929 . S
H867 C819 0.930 . S
H868 C826 0.929 . S
H869 C827 0.930 . S
H870 C828 0.930 . S
H871 C829 0.930 . S
H872 C831 0.929 . S
H873 C832 0.930 . S
H874 C833 0.930 . S
H875 C834 0.930 . S
H876 C838 0.929 . S
H877 C840 0.930 . S
H878 C846 0.929 . S
H879 C847 0.930 . S
Li880 N897 1.990 . S
Li880 O940 1.956 . S
Li880 O941 1.970 . S
Li880 O942 1.961 . S
Li881 N905 1.990 . S
Li881 O940 1.970 . S
Li881 O941 1.956 . S
Li881 O943 1.961 . S
Li882 N927 1.990 1_545 S
Li882 O940 1.961 . S
Li882 O942 1.956 . S
Li882 O943 1.970 . S
Li883 N933 1.990 . S
Li883 O941 1.961 . S
Li883 O942 1.970 . S
Li883 O943 1.956 . S
C884 C886 1.348 . S
C884 C887 1.356 . S
C884 O940 1.325 . S
N885 C888 1.314 . S
N885 C889 1.279 . S
C886 C884 1.348 . S
C886 C888 1.353 . S
C886 H944 0.929 . S
C887 C884 1.356 . S
C887 C889 1.358 . S
C887 H945 0.930 . S
C888 N885 1.314 . S
C888 C886 1.353 . S
C888 H946 0.930 . S
C889 N885 1.279 . S
C889 C887 1.358 . S
C889 H947 0.930 . S
C890 C893 1.348 . S
C890 C894 1.356 . S
C890 O941 1.325 . S
C891 N892 1.279 . S
C891 C894 1.358 . S
C891 H948 0.930 . S
N892 C891 1.279 . S
N892 C895 1.314 . S
C893 C890 1.348 . S
C893 C895 1.353 . S
C893 H949 0.929 . S
C894 C890 1.356 . S
C894 C891 1.358 . S
C894 H950 0.930 . S
C895 N892 1.314 . S
C895 C893 1.353 . S
C895 H951 0.930 . S
C896 N897 1.314 . S
C896 C901 1.353 . S
C896 H902 0.930 . S
N897 Li880 1.990 . S
N897 C896 1.314 . S
N897 C899 1.279 . S
C898 C899 1.358 . S
C898 C900 1.356 . S
C898 H952 0.930 . S
C899 N897 1.279 . S
C899 C898 1.358 . S
C899 H903 0.930 . S
C900 C898 1.356 . S
C900 C901 1.348 . S
C901 C896 1.353 . S
C901 C900 1.348 . S
C901 H953 0.929 . S
H902 C896 0.930 . S
H903 C899 0.930 . S
C904 N905 1.314 . S
C904 C906 1.353 . S
C904 H910 0.930 . S
N905 Li881 1.990 . S
N905 C904 1.314 . S
N905 C908 1.279 . S
C906 C904 1.353 . S
C906 C909 1.348 . S
C906 H954 0.929 . S
C907 C908 1.358 . S
C907 C909 1.356 . S
C907 H955 0.930 . S
C908 N905 1.279 . S
C908 C907 1.358 . S
C908 H911 0.930 . S
C909 C906 1.348 . S
C909 C907 1.356 . S
H910 C904 0.930 . S
H911 C908 0.930 . S
C912 C914 1.348 . S
C912 C915 1.356 . S
C912 O942 1.325 1_565 S
N913 C916 1.314 . S
N913 C917 1.279 . S
C914 C912 1.348 . S
C914 C916 1.353 . S
C914 H956 0.929 . S
C915 C912 1.356 . S
C915 C917 1.358 . S
C915 H957 0.930 . S
C916 N913 1.314 . S
C916 C914 1.353 . S
C916 H958 0.930 . S
C917 N913 1.279 . S
C917 C915 1.358 . S
C917 H959 0.930 . S
C918 C919 1.348 1_545 S
C918 C920 1.356 . S
C918 O943 1.325 . S
C919 C918 1.348 1_565 S
C919 C921 1.353 . S
C919 H960 0.929 . S
C920 C918 1.356 . S
C920 C922 1.358 . S
C920 H961 0.930 . S
C921 C919 1.353 . S
C921 N923 1.314 1_565 S
C921 H962 0.930 . S
C922 C920 1.358 . S
C922 N923 1.279 . S
C922 H963 0.930 . S
N923 C921 1.314 1_545 S
N923 C922 1.279 . S
C924 C926 1.353 . S
C924 N927 1.314 . S
C924 H930 0.930 . S
C925 N927 1.279 . S
C925 C928 1.358 . S
C925 H931 0.930 . S
C926 C924 1.353 . S
C926 C929 1.348 . S
C926 H964 0.929 . S
N927 Li882 1.990 1_565 S
N927 C924 1.314 . S
N927 C925 1.279 . S
C928 C925 1.358 . S
C928 C929 1.356 . S
C928 H965 0.930 . S
C929 C926 1.348 . S
C929 C928 1.356 . S
H930 C924 0.930 . S
H931 C925 0.930 . S
C932 N933 1.314 . S
C932 C934 1.353 . S
C932 H938 0.930 . S
N933 Li883 1.990 . S
N933 C932 1.314 . S
N933 C936 1.279 . S
C934 C932 1.353 . S
C934 C937 1.348 . S
C934 H966 0.929 . S
C935 C936 1.358 . S
C935 C937 1.356 . S
C935 H967 0.930 . S
C936 N933 1.279 . S
C936 C935 1.358 . S
C936 H939 0.930 . S
C937 C934 1.348 . S
C937 C935 1.356 . S
H938 C932 0.930 . S
H939 C936 0.930 . S
O940 Li880 1.956 . S
O940 Li881 1.970 . S
O940 Li882 1.961 . S
O940 C884 1.325 . S
O941 Li880 1.970 . S
O941 Li881 1.956 . S
O941 Li883 1.961 . S
O941 C890 1.325 . S
O942 Li880 1.961 . S
O942 Li882 1.956 . S
O942 Li883 1.970 . S
O942 C912 1.325 1_545 S
O943 Li881 1.961 . S
O943 Li882 1.970 . S
O943 Li883 1.956 . S
O943 C918 1.325 . S
H944 C886 0.929 . S
H945 C887 0.930 . S
H946 C888 0.930 . S
H947 C889 0.930 . S
H948 C891 0.930 . S
H949 C893 0.929 . S
H950 C894 0.930 . S
H951 C895 0.930 . S
H952 C898 0.930 . S
H953 C901 0.929 . S
H954 C906 0.929 . S
H955 C907 0.930 . S
H956 C914 0.929 . S
H957 C915 0.930 . S
H958 C916 0.930 . S
H959 C917 0.930 . S
H960 C919 0.929 . S
H961 C920 0.930 . S
H962 C921 0.930 . S
H963 C922 0.930 . S
H964 C926 0.929 . S
H965 C928 0.930 . S
H966 C934 0.929 . S
H967 C935 0.930 . S
Li968 N985 1.990 . S
Li968 O1028 1.956 . S
Li968 O1029 1.970 . S
Li968 O1030 1.961 . S
Li969 N993 1.990 . S
Li969 O1028 1.970 . S
Li969 O1029 1.956 . S
Li969 O1031 1.961 . S
Li970 N1015 1.990 1_655 S
Li970 O1028 1.961 . S
Li970 O1030 1.956 . S
Li970 O1031 1.970 . S
Li971 N1021 1.990 . S
Li971 O1029 1.961 . S
Li971 O1030 1.970 . S
Li971 O1031 1.956 . S
C972 C974 1.348 . S
C972 C975 1.356 . S
C972 O1028 1.325 . S
N973 C976 1.314 . S
N973 C977 1.279 . S
C974 C972 1.348 . S
C974 C976 1.353 . S
C974 H1032 0.929 . S
C975 C972 1.356 . S
C975 C977 1.358 . S
C975 H1033 0.930 . S
C976 N973 1.314 . S
C976 C974 1.353 . S
C976 H1034 0.930 . S
C977 N973 1.279 . S
C977 C975 1.358 . S
C977 H1035 0.930 1_655 S
C978 C981 1.348 . S
C978 C982 1.356 . S
C978 O1029 1.325 . S
C979 N980 1.279 . S
C979 C982 1.358 . S
C979 H1036 0.930 . S
N980 C979 1.279 . S
N980 C983 1.314 . S
C981 C978 1.348 . S
C981 C983 1.353 . S
C981 H1037 0.929 . S
C982 C978 1.356 . S
C982 C979 1.358 . S
C982 H1038 0.930 . S
C983 N980 1.314 . S
C983 C981 1.353 . S
C983 H1039 0.930 . S
C984 N985 1.314 . S
C984 C989 1.353 . S
C984 H990 0.930 . S
N985 Li968 1.990 . S
N985 C984 1.314 . S
N985 C987 1.279 . S
C986 C987 1.358 . S
C986 C988 1.356 . S
C986 H1040 0.930 . S
C987 N985 1.279 . S
C987 C986 1.358 . S
C987 H991 0.930 . S
C988 C986 1.356 . S
C988 C989 1.348 . S
C989 C984 1.353 . S
C989 C988 1.348 . S
C989 H1041 0.929 . S
H990 C984 0.930 . S
H991 C987 0.930 . S
C992 N993 1.314 . S
C992 C994 1.353 . S
C992 H998 0.930 1_655 S
N993 Li969 1.990 . S
N993 C992 1.314 . S
N993 C996 1.279 . S
C994 C992 1.353 . S
C994 C997 1.348 . S
C994 H1042 0.929 1_655 S
C995 C996 1.358 . S
C995 C997 1.356 . S
C995 H1043 0.930 . S
C996 N993 1.279 . S
C996 C995 1.358 . S
C996 H999 0.930 . S
C997 C994 1.348 . S
C997 C995 1.356 . S
H998 C992 0.930 1_455 S
H999 C996 0.930 . S
C1000 C1002 1.348 . S
C1000 C1003 1.356 . S
C1000 O1030 1.325 . S
N1001 C1004 1.314 . S
N1001 C1005 1.279 . S
C1002 C1000 1.348 . S
C1002 C1004 1.353 . S
C1002 H1044 0.929 . S
C1003 C1000 1.356 . S
C1003 C1005 1.358 . S
C1003 H1045 0.930 . S
C1004 N1001 1.314 . S
C1004 C1002 1.353 . S
C1004 H1046 0.930 . S
C1005 N1001 1.279 . S
C1005 C1003 1.358 . S
C1005 H1047 0.930 . S
C1006 C1007 1.348 . S
C1006 C1008 1.356 . S
C1006 O1031 1.325 1_455 S
C1007 C1006 1.348 . S
C1007 C1009 1.353 . S
C1007 H1048 0.929 . S
C1008 C1006 1.356 . S
C1008 C1010 1.358 . S
C1008 H1049 0.930 1_455 S
C1009 C1007 1.353 . S
C1009 N1011 1.314 . S
C1009 H1050 0.930 . S
C1010 C1008 1.358 . S
C1010 N1011 1.279 . S
C1010 H1051 0.930 . S
N1011 C1009 1.314 . S
N1011 C1010 1.279 . S
C1012 C1014 1.353 . S
C1012 N1015 1.314 . S
C1012 H1018 0.930 . S
C1013 N1015 1.279 . S
C1013 C1016 1.358 . S
C1013 H1019 0.930 . S
C1014 C1012 1.353 . S
C1014 C1017 1.348 . S
C1014 H1052 0.929 . S
N1015 Li970 1.990 1_455 S
N1015 C1012 1.314 . S
N1015 C1013 1.279 . S
C1016 C1013 1.358 . S
C1016 C1017 1.356 . S
C1016 H1053 0.930 . S
C1017 C1014 1.348 . S
C1017 C1016 1.356 . S
H1018 C1012 0.930 . S
H1019 C1013 0.930 . S
C1020 N1021 1.314 . S
C1020 C1022 1.353 . S
C1020 H1026 0.930 . S
N1021 Li971 1.990 . S
N1021 C1020 1.314 . S
N1021 C1024 1.279 . S
C1022 C1020 1.353 . S
C1022 C1025 1.348 . S
C1022 H1054 0.929 . S
C1023 C1024 1.358 . S
C1023 C1025 1.356 . S
C1023 H1055 0.930 . S
C1024 N1021 1.279 . S
C1024 C1023 1.358 . S
C1024 H1027 0.930 . S
C1025 C1022 1.348 . S
C1025 C1023 1.356 . S
H1026 C1020 0.930 . S
H1027 C1024 0.930 . S
O1028 Li968 1.956 . S
O1028 Li969 1.970 . S
O1028 Li970 1.961 . S
O1028 C972 1.325 . S
O1029 Li968 1.970 . S
O1029 Li969 1.956 . S
O1029 Li971 1.961 . S
O1029 C978 1.325 . S
O1030 Li968 1.961 . S
O1030 Li970 1.956 . S
O1030 Li971 1.970 . S
O1030 C1000 1.325 . S
O1031 Li969 1.961 . S
O1031 Li970 1.970 . S
O1031 Li971 1.956 . S
O1031 C1006 1.325 1_655 S
H1032 C974 0.929 . S
H1033 C975 0.930 . S
H1034 C976 0.930 . S
H1035 C977 0.930 1_455 S
H1036 C979 0.930 . S
H1037 C981 0.929 . S
H1038 C982 0.930 . S
H1039 C983 0.930 . S
H1040 C986 0.930 . S
H1041 C989 0.929 . S
H1042 C994 0.929 1_455 S
H1043 C995 0.930 . S
H1044 C1002 0.929 . S
H1045 C1003 0.930 . S
H1046 C1004 0.930 . S
H1047 C1005 0.930 . S
H1048 C1007 0.929 . S
H1049 C1008 0.930 1_655 S
H1050 C1009 0.930 . S
H1051 C1010 0.930 . S
H1052 C1014 0.929 . S
H1053 C1016 0.930 . S
H1054 C1022 0.929 . S
H1055 C1023 0.930 . S
Li1056 N1073 1.990 . S
Li1056 O1116 1.956 . S
Li1056 O1117 1.970 . S
Li1056 O1118 1.961 . S
Li1057 N1081 1.990 . S
Li1057 O1116 1.970 . S
Li1057 O1117 1.956 . S
Li1057 O1119 1.961 . S
Li1058 N1103 1.990 . S
Li1058 O1116 1.961 . S
Li1058 O1118 1.956 . S
Li1058 O1119 1.970 . S
Li1059 N1109 1.990 . S
Li1059 O1117 1.961 . S
Li1059 O1118 1.970 . S
Li1059 O1119 1.956 . S
C1060 C1062 1.348 . S
C1060 C1063 1.356 . S
C1060 O1116 1.325 . S
N1061 C1064 1.314 . S
N1061 C1065 1.279 . S
C1062 C1060 1.348 . S
C1062 C1064 1.353 . S
C1062 H1120 0.929 . S
C1063 C1060 1.356 . S
C1063 C1065 1.358 . S
C1063 H1121 0.930 . S
C1064 N1061 1.314 . S
C1064 C1062 1.353 . S
C1064 H1122 0.930 . S
C1065 N1061 1.279 . S
C1065 C1063 1.358 . S
C1065 H1123 0.930 . S
C1066 C1069 1.348 . S
C1066 C1070 1.356 . S
C1066 O1117 1.325 . S
C1067 N1068 1.279 . S
C1067 C1070 1.358 . S
C1067 H1124 0.930 . S
N1068 C1067 1.279 . S
N1068 C1071 1.314 . S
C1069 C1066 1.348 . S
C1069 C1071 1.353 . S
C1069 H1125 0.929 . S
C1070 C1066 1.356 . S
C1070 C1067 1.358 . S
C1070 H1126 0.930 . S
C1071 N1068 1.314 . S
C1071 C1069 1.353 . S
C1071 H1127 0.930 . S
C1072 N1073 1.314 . S
C1072 C1077 1.353 . S
C1072 H1078 0.930 . S
N1073 Li1056 1.990 . S
N1073 C1072 1.314 . S
N1073 C1075 1.279 . S
C1074 C1075 1.358 . S
C1074 C1076 1.356 . S
C1074 H1128 0.930 . S
C1075 N1073 1.279 . S
C1075 C1074 1.358 . S
C1075 H1079 0.930 . S
C1076 C1074 1.356 . S
C1076 C1077 1.348 . S
C1077 C1072 1.353 . S
C1077 C1076 1.348 . S
C1077 H1129 0.929 . S
H1078 C1072 0.930 . S
H1079 C1075 0.930 . S
C1080 N1081 1.314 . S
C1080 C1082 1.353 . S
C1080 H1086 0.930 . S
N1081 Li1057 1.990 . S
N1081 C1080 1.314 . S
N1081 C1084 1.279 . S
C1082 C1080 1.353 . S
C1082 C1085 1.348 . S
C1082 H1130 0.929 . S
C1083 C1084 1.358 . S
C1083 C1085 1.356 . S
C1083 H1131 0.930 . S
C1084 N1081 1.279 . S
C1084 C1083 1.358 . S
C1084 H1087 0.930 . S
C1085 C1082 1.348 . S
C1085 C1083 1.356 . S
H1086 C1080 0.930 . S
H1087 C1084 0.930 . S
C1088 C1090 1.348 . S
C1088 C1091 1.356 . S
C1088 O1118 1.325 . S
N1089 C1092 1.314 . S
N1089 C1093 1.279 . S
C1090 C1088 1.348 . S
C1090 C1092 1.353 . S
C1090 H1132 0.929 . S
C1091 C1088 1.356 . S
C1091 C1093 1.358 . S
C1091 H1133 0.930 . S
C1092 N1089 1.314 . S
C1092 C1090 1.353 . S
C1092 H1134 0.930 . S
C1093 N1089 1.279 . S
C1093 C1091 1.358 . S
C1093 H1135 0.930 . S
C1094 C1095 1.348 . S
C1094 C1096 1.356 . S
C1094 O1119 1.325 . S
C1095 C1094 1.348 . S
C1095 C1097 1.353 . S
C1095 H1136 0.929 . S
C1096 C1094 1.356 . S
C1096 C1098 1.358 . S
C1096 H1137 0.930 . S
C1097 C1095 1.353 . S
C1097 N1099 1.314 . S
C1097 H1138 0.930 . S
C1098 C1096 1.358 . S
C1098 N1099 1.279 . S
C1098 H1139 0.930 . S
N1099 C1097 1.314 . S
N1099 C1098 1.279 . S
C1100 C1102 1.353 . S
C1100 N1103 1.314 . S
C1100 H1106 0.930 . S
C1101 N1103 1.279 . S
C1101 C1104 1.358 . S
C1101 H1107 0.930 . S
C1102 C1100 1.353 . S
C1102 C1105 1.348 . S
C1102 H1140 0.929 . S
N1103 Li1058 1.990 . S
N1103 C1100 1.314 . S
N1103 C1101 1.279 . S
C1104 C1101 1.358 . S
C1104 C1105 1.356 . S
C1104 H1141 0.930 . S
C1105 C1102 1.348 . S
C1105 C1104 1.356 . S
H1106 C1100 0.930 . S
H1107 C1101 0.930 . S
C1108 N1109 1.314 . S
C1108 C1110 1.353 . S
C1108 H1114 0.930 . S
N1109 Li1059 1.990 . S
N1109 C1108 1.314 . S
N1109 C1112 1.279 . S
C1110 C1108 1.353 . S
C1110 C1113 1.348 . S
C1110 H1142 0.929 . S
C1111 C1112 1.358 . S
C1111 C1113 1.356 . S
C1111 H1143 0.930 . S
C1112 N1109 1.279 . S
C1112 C1111 1.358 . S
C1112 H1115 0.930 . S
C1113 C1110 1.348 . S
C1113 C1111 1.356 . S
H1114 C1108 0.930 . S
H1115 C1112 0.930 . S
O1116 Li1056 1.956 . S
O1116 Li1057 1.970 . S
O1116 Li1058 1.961 . S
O1116 C1060 1.325 . S
O1117 Li1056 1.970 . S
O1117 Li1057 1.956 . S
O1117 Li1059 1.961 . S
O1117 C1066 1.325 . S
O1118 Li1056 1.961 . S
O1118 Li1058 1.956 . S
O1118 Li1059 1.970 . S
O1118 C1088 1.325 . S
O1119 Li1057 1.961 . S
O1119 Li1058 1.970 . S
O1119 Li1059 1.956 . S
O1119 C1094 1.325 . S
H1120 C1062 0.929 . S
H1121 C1063 0.930 . S
H1122 C1064 0.930 . S
H1123 C1065 0.930 . S
H1124 C1067 0.930 . S
H1125 C1069 0.929 . S
H1126 C1070 0.930 . S
H1127 C1071 0.930 . S
H1128 C1074 0.930 . S
H1129 C1077 0.929 . S
H1130 C1082 0.929 . S
H1131 C1083 0.930 . S
H1132 C1090 0.929 . S
H1133 C1091 0.930 . S
H1134 C1092 0.930 . S
H1135 C1093 0.930 . S
H1136 C1095 0.929 . S
H1137 C1096 0.930 . S
H1138 C1097 0.930 . S
H1139 C1098 0.930 . S
H1140 C1102 0.929 . S
H1141 C1104 0.930 . S
H1142 C1110 0.929 . S
H1143 C1111 0.930 . S
Li1144 N1161 1.990 . S
Li1144 O1204 1.956 . S
Li1144 O1205 1.970 . S
Li1144 O1206 1.961 . S
Li1145 N1169 1.990 1_565 S
Li1145 O1204 1.970 . S
Li1145 O1205 1.956 . S
Li1145 O1207 1.961 . S
Li1146 N1191 1.990 . S
Li1146 O1204 1.961 . S
Li1146 O1206 1.956 . S
Li1146 O1207 1.970 . S
Li1147 N1197 1.990 . S
Li1147 O1205 1.961 . S
Li1147 O1206 1.970 . S
Li1147 O1207 1.956 . S
C1148 C1150 1.348 . S
C1148 C1151 1.356 . S
C1148 O1204 1.325 1_545 S
N1149 C1152 1.314 . S
N1149 C1153 1.279 . S
C1150 C1148 1.348 . S
C1150 C1152 1.353 . S
C1150 H1208 0.929 . S
C1151 C1148 1.356 . S
C1151 C1153 1.358 . S
C1151 H1209 0.930 1_545 S
C1152 N1149 1.314 . S
C1152 C1150 1.353 . S
C1152 H1210 0.930 . S
C1153 N1149 1.279 . S
C1153 C1151 1.358 . S
C1153 H1211 0.930 . S
C1154 C1157 1.348 . S
C1154 C1158 1.356 . S
C1154 O1205 1.325 . S
C1155 N1156 1.279 . S
C1155 C1158 1.358 . S
C1155 H1212 0.930 . S
N1156 C1155 1.279 . S
N1156 C1159 1.304 . S
C1157 C1154 1.348 . S
C1157 C1159 1.360 . S
C1157 H1213 0.929 . S
C1158 C1154 1.356 . S
C1158 C1155 1.358 . S
C1158 H1214 0.930 . S
C1159 N1156 1.304 . S
C1159 C1157 1.360 . S
C1159 H1215 0.935 1_565 S
C1160 N1161 1.314 . S
C1160 C1165 1.353 . S
C1160 H1166 0.930 . S
N1161 Li1144 1.990 . S
N1161 C1160 1.314 . S
N1161 C1163 1.279 . S
C1162 C1163 1.358 . S
C1162 C1164 1.356 . S
C1162 H1216 0.930 1_565 S
C1163 N1161 1.279 . S
C1163 C1162 1.358 . S
C1163 H1167 0.930 1_565 S
C1164 C1162 1.356 . S
C1164 C1165 1.348 . S
C1165 C1160 1.353 . S
C1165 C1164 1.348 . S
C1165 H1217 0.929 . S
H1166 C1160 0.930 . S
H1167 C1163 0.930 1_545 S
C1168 N1169 1.314 . S
C1168 C1170 1.353 . S
C1168 H1174 0.930 . S
N1169 Li1145 1.990 1_545 S
N1169 C1168 1.314 . S
N1169 C1172 1.279 . S
C1170 C1168 1.353 . S
C1170 C1173 1.348 . S
C1170 H1218 0.929 . S
C1171 C1172 1.358 . S
C1171 C1173 1.356 . S
C1171 H1219 0.930 . S
C1172 N1169 1.279 . S
C1172 C1171 1.358 . S
C1172 H1175 0.930 . S
C1173 C1170 1.348 . S
C1173 C1171 1.356 . S
H1174 C1168 0.930 . S
H1175 C1172 0.930 . S
C1176 C1178 1.348 . S
C1176 C1179 1.356 . S
C1176 O1206 1.325 . S
N1177 C1180 1.314 . S
N1177 C1181 1.279 . S
C1178 C1176 1.348 . S
C1178 C1180 1.353 . S
C1178 H1220 0.929 . S
C1179 C1176 1.356 . S
C1179 C1181 1.358 . S
C1179 H1221 0.930 . S
C1180 N1177 1.314 . S
C1180 C1178 1.353 . S
C1180 H1222 0.930 . S
C1181 N1177 1.279 . S
C1181 C1179 1.358 . S
C1181 H1223 0.930 . S
C1182 C1183 1.348 . S
C1182 C1184 1.356 . S
C1182 O1207 1.325 . S
C1183 C1182 1.348 . S
C1183 C1185 1.353 . S
C1183 H1224 0.929 . S
C1184 C1182 1.356 . S
C1184 C1186 1.358 . S
C1184 H1225 0.930 . S
C1185 C1183 1.353 . S
C1185 N1187 1.314 . S
C1185 H1226 0.930 . S
C1186 C1184 1.358 . S
C1186 N1187 1.279 . S
C1186 H1227 0.930 . S
N1187 C1185 1.314 . S
N1187 C1186 1.279 . S
C1188 C1190 1.353 . S
C1188 N1191 1.314 . S
C1188 H1194 0.930 . S
C1189 N1191 1.279 . S
C1189 C1192 1.358 . S
C1189 H1195 0.930 . S
C1190 C1188 1.353 . S
C1190 C1193 1.348 . S
C1190 H1228 0.929 . S
N1191 Li1146 1.990 . S
N1191 C1188 1.314 . S
N1191 C1189 1.279 . S
C1192 C1189 1.358 . S
C1192 C1193 1.356 . S
C1192 H1229 0.930 . S
C1193 C1190 1.348 . S
C1193 C1192 1.356 . S
H1194 C1188 0.930 . S
H1195 C1189 0.930 . S
C1196 N1197 1.314 . S
C1196 C1198 1.353 . S
C1196 H1202 0.930 . S
N1197 Li1147 1.990 . S
N1197 C1196 1.314 . S
N1197 C1200 1.279 . S
C1198 C1196 1.353 . S
C1198 C1201 1.348 . S
C1198 H1230 0.929 . S
C1199 C1200 1.358 . S
C1199 C1201 1.356 . S
C1199 H1231 0.930 . S
C1200 N1197 1.279 . S
C1200 C1199 1.358 . S
C1200 H1203 0.930 . S
C1201 C1198 1.348 . S
C1201 C1199 1.356 . S
H1202 C1196 0.930 . S
H1203 C1200 0.930 . S
O1204 Li1144 1.956 . S
O1204 Li1145 1.970 . S
O1204 Li1146 1.961 . S
O1204 C1148 1.325 1_565 S
O1205 Li1144 1.970 . S
O1205 Li1145 1.956 . S
O1205 Li1147 1.961 . S
O1205 C1154 1.325 . S
O1206 Li1144 1.961 . S
O1206 Li1146 1.956 . S
O1206 Li1147 1.970 . S
O1206 C1176 1.325 . S
O1207 Li1145 1.961 . S
O1207 Li1146 1.970 . S
O1207 Li1147 1.956 . S
O1207 C1182 1.325 . S
H1208 C1150 0.929 . S
H1209 C1151 0.930 1_565 S
H1210 C1152 0.930 . S
H1211 C1153 0.930 . S
H1212 C1155 0.930 . S
H1213 C1157 0.929 . S
H1214 C1158 0.930 . S
H1215 C1159 0.935 1_545 S
H1216 C1162 0.930 1_545 S
H1217 C1165 0.929 . S
H1218 C1170 0.929 . S
H1219 C1171 0.930 . S
H1220 C1178 0.929 . S
H1221 C1179 0.930 . S
H1222 C1180 0.930 . S
H1223 C1181 0.930 . S
H1224 C1183 0.929 . S
H1225 C1184 0.930 . S
H1226 C1185 0.930 . S
H1227 C1186 0.930 . S
H1228 C1190 0.929 . S
H1229 C1192 0.930 . S
H1230 C1198 0.929 . S
H1231 C1199 0.930 . S
Li1232 N1249 1.990 . S
Li1232 O1292 1.956 . S
Li1232 O1293 1.970 . S
Li1232 O1294 1.961 . S
Li1233 N1257 1.990 . S
Li1233 O1292 1.970 . S
Li1233 O1293 1.956 . S
Li1233 O1295 1.961 . S
Li1234 N1279 1.990 1_455 S
Li1234 O1292 1.961 . S
Li1234 O1294 1.956 . S
Li1234 O1295 1.970 . S
Li1235 N1285 1.990 . S
Li1235 O1293 1.961 . S
Li1235 O1294 1.970 . S
Li1235 O1295 1.956 . S
C1236 C1238 1.348 . S
C1236 C1239 1.356 . S
C1236 O1292 1.325 1_655 S
N1237 C1240 1.314 . S
N1237 C1241 1.279 . S
C1238 C1236 1.348 . S
C1238 C1240 1.353 . S
C1238 H1296 0.929 . S
C1239 C1236 1.356 . S
C1239 C1241 1.358 . S
C1239 H1297 0.930 . S
C1240 N1237 1.314 . S
C1240 C1238 1.353 . S
C1240 H1298 0.930 . S
C1241 N1237 1.279 . S
C1241 C1239 1.358 . S
C1241 H1299 0.930 . S
C1242 C1245 1.348 . S
C1242 C1246 1.356 . S
C1242 O1293 1.325 . S
C1243 N1244 1.279 . S
C1243 C1246 1.358 . S
C1243 H1300 0.930 . S
N1244 C1243 1.279 . S
N1244 C1247 1.314 . S
C1245 C1242 1.348 . S
C1245 C1247 1.353 . S
C1245 H1301 0.929 . S
C1246 C1242 1.356 . S
C1246 C1243 1.358 . S
C1246 H1302 0.930 . S
C1247 N1244 1.314 . S
C1247 C1245 1.353 . S
C1247 H1303 0.930 . S
C1248 N1249 1.314 . S
C1248 C1253 1.353 . S
C1248 H1254 0.930 . S
N1249 Li1232 1.990 . S
N1249 C1248 1.314 . S
N1249 C1251 1.279 . S
C1250 C1251 1.358 . S
C1250 C1252 1.356 . S
C1250 H1304 0.930 . S
C1251 N1249 1.279 . S
C1251 C1250 1.358 . S
C1251 H1255 0.930 . S
C1252 C1250 1.356 . S
C1252 C1253 1.348 . S
C1253 C1248 1.353 . S
C1253 C1252 1.348 . S
C1253 H1305 0.929 . S
H1254 C1248 0.930 . S
H1255 C1251 0.930 . S
C1256 N1257 1.314 . S
C1256 C1258 1.353 . S
C1256 H1262 0.930 1_455 S
N1257 Li1233 1.990 . S
N1257 C1256 1.314 . S
N1257 C1260 1.279 . S
C1258 C1256 1.353 . S
C1258 C1261 1.348 . S
C1258 H1306 0.929 1_455 S
C1259 C1260 1.358 . S
C1259 C1261 1.356 . S
C1259 H1307 0.930 . S
C1260 N1257 1.279 . S
C1260 C1259 1.358 . S
C1260 H1263 0.930 . S
C1261 C1258 1.348 . S
C1261 C1259 1.356 . S
H1262 C1256 0.930 1_655 S
H1263 C1260 0.930 . S
C1264 C1266 1.348 . S
C1264 C1267 1.356 . S
C1264 O1294 1.325 . S
N1265 C1268 1.314 . S
N1265 C1269 1.279 . S
C1266 C1264 1.348 . S
C1266 C1268 1.353 . S
C1266 H1308 0.929 . S
C1267 C1264 1.356 . S
C1267 C1269 1.358 . S
C1267 H1309 0.930 . S
C1268 N1265 1.314 . S
C1268 C1266 1.353 . S
C1268 H1310 0.930 . S
C1269 N1265 1.279 . S
C1269 C1267 1.358 . S
C1269 H1311 0.930 . S
C1270 C1271 1.344 1_455 S
C1270 C1272 1.356 . S
C1270 O1295 1.325 . S
C1271 C1270 1.344 1_655 S
C1271 C1273 1.356 . S
C1271 H1312 0.930 . S
C1272 C1270 1.356 . S
C1272 C1274 1.358 . S
C1272 H1313 0.930 . S
C1273 C1271 1.356 . S
C1273 N1275 1.314 1_655 S
C1273 H1314 0.930 . S
C1274 C1272 1.358 . S
C1274 N1275 1.279 . S
C1274 H1315 0.930 . S
N1275 C1273 1.314 1_455 S
N1275 C1274 1.279 . S
C1276 C1278 1.353 . S
C1276 N1279 1.314 . S
C1276 H1282 0.930 . S
C1277 N1279 1.279 . S
C1277 C1280 1.358 . S
C1277 H1283 0.930 . S
C1278 C1276 1.353 . S
C1278 C1281 1.348 . S
C1278 H1316 0.929 . S
N1279 Li1234 1.990 1_655 S
N1279 C1276 1.314 . S
N1279 C1277 1.279 . S
C1280 C1277 1.358 . S
C1280 C1281 1.356 . S
C1280 H1317 0.930 . S
C1281 C1278 1.348 . S
C1281 C1280 1.356 . S
H1282 C1276 0.930 . S
H1283 C1277 0.930 . S
C1284 N1285 1.314 . S
C1284 C1286 1.353 . S
C1284 H1290 0.930 . S
N1285 Li1235 1.990 . S
N1285 C1284 1.314 . S
N1285 C1288 1.279 . S
C1286 C1284 1.353 . S
C1286 C1289 1.348 . S
C1286 H1318 0.929 . S
C1287 C1288 1.358 . S
C1287 C1289 1.356 . S
C1287 H1319 0.930 . S
C1288 N1285 1.279 . S
C1288 C1287 1.358 . S
C1288 H1291 0.930 . S
C1289 C1286 1.348 . S
C1289 C1287 1.356 . S
H1290 C1284 0.930 . S
H1291 C1288 0.930 . S
O1292 Li1232 1.956 . S
O1292 Li1233 1.970 . S
O1292 Li1234 1.961 . S
O1292 C1236 1.325 1_455 S
O1293 Li1232 1.970 . S
O1293 Li1233 1.956 . S
O1293 Li1235 1.961 . S
O1293 C1242 1.325 . S
O1294 Li1232 1.961 . S
O1294 Li1234 1.956 . S
O1294 Li1235 1.970 . S
O1294 C1264 1.325 . S
O1295 Li1233 1.961 . S
O1295 Li1234 1.970 . S
O1295 Li1235 1.956 . S
O1295 C1270 1.325 . S
H1296 C1238 0.929 . S
H1297 C1239 0.930 . S
H1298 C1240 0.930 . S
H1299 C1241 0.930 . S
H1300 C1243 0.930 . S
H1301 C1245 0.929 . S
H1302 C1246 0.930 . S
H1303 C1247 0.930 . S
H1304 C1250 0.930 . S
H1305 C1253 0.929 . S
H1306 C1258 0.929 1_655 S
H1307 C1259 0.930 . S
H1308 C1266 0.929 . S
H1309 C1267 0.930 . S
H1310 C1268 0.930 . S
H1311 C1269 0.930 . S
H1312 C1271 0.930 . S
H1313 C1272 0.930 . S
H1314 C1273 0.930 . S
H1315 C1274 0.930 . S
H1316 C1278 0.929 . S
H1317 C1280 0.930 . S
H1318 C1286 0.929 . S
H1319 C1287 0.930 . S
Li1320 N1337 1.990 . S
Li1320 O1380 1.954 1_655 S
Li1320 O1381 1.970 . S
Li1320 O1382 1.961 . S
Li1321 N1345 1.990 . S
Li1321 O1380 1.974 . S
Li1321 O1381 1.956 1_455 S
Li1321 O1383 1.961 . S
Li1322 N1367 1.990 . S
Li1322 O1380 1.963 1_655 S
Li1322 O1382 1.956 . S
Li1322 O1383 1.970 1_655 S
Li1323 N1373 1.990 . S
Li1323 O1381 1.961 1_455 S
Li1323 O1382 1.970 1_455 S
Li1323 O1383 1.956 . S
C1324 C1326 1.348 1_655 S
C1324 C1327 1.356 . S
C1324 O1380 1.323 1_655 S
N1325 C1328 1.314 1_655 S
N1325 C1329 1.279 . S
C1326 C1324 1.348 1_455 S
C1326 C1328 1.353 . S
C1326 H1384 0.929 . S
C1327 C1324 1.356 . S
C1327 C1329 1.358 . S
C1327 H1385 0.930 . S
C1328 N1325 1.314 1_455 S
C1328 C1326 1.353 . S
C1328 H1386 0.930 . S
C1329 N1325 1.279 . S
C1329 C1327 1.358 . S
C1329 H1387 0.930 . S
C1330 C1333 1.332 1_455 S
C1330 C1334 1.370 . S
C1330 O1381 1.327 1_455 S
C1331 N1332 1.279 . S
C1331 C1334 1.358 . S
C1331 H1388 0.930 . S
N1332 C1331 1.279 . S
N1332 C1335 1.314 1_455 S
C1333 C1330 1.332 1_655 S
C1333 C1335 1.353 . S
C1333 H1389 0.929 . S
C1334 C1330 1.370 . S
C1334 C1331 1.358 . S
C1334 H1390 0.930 . S
C1335 N1332 1.314 1_655 S
C1335 C1333 1.353 . S
C1335 H1391 0.930 . S
C1336 N1337 1.314 . S
C1336 C1341 1.353 . S
C1336 H1342 0.930 . S
N1337 Li1320 1.990 . S
N1337 C1336 1.314 . S
N1337 C1339 1.279 . S
C1338 C1339 1.358 . S
C1338 C1340 1.356 . S
C1338 H1392 0.930 . S
C1339 N1337 1.279 . S
C1339 C1338 1.358 . S
C1339 H1343 0.930 . S
C1340 C1338 1.356 . S
C1340 C1341 1.348 . S
C1341 C1336 1.353 . S
C1341 C1340 1.348 . S
C1341 H1393 0.929 . S
H1342 C1336 0.930 . S
H1343 C1339 0.930 . S
C1344 N1345 1.314 . S
C1344 C1346 1.353 . S
C1344 H1350 0.930 . S
N1345 Li1321 1.990 . S
N1345 C1344 1.314 . S
N1345 C1348 1.279 . S
C1346 C1344 1.353 . S
C1346 C1349 1.348 . S
C1346 H1394 0.929 . S
C1347 C1348 1.358 . S
C1347 C1349 1.356 . S
C1347 H1395 0.930 . S
C1348 N1345 1.279 . S
C1348 C1347 1.358 . S
C1348 H1351 0.930 . S
C1349 C1346 1.348 . S
C1349 C1347 1.356 . S
H1350 C1344 0.930 . S
H1351 C1348 0.930 . S
C1352 C1354 1.348 . S
C1352 C1355 1.356 . S
C1352 O1382 1.325 . S
N1353 C1356 1.314 . S
N1353 C1357 1.279 . S
C1354 C1352 1.348 . S
C1354 C1356 1.353 . S
C1354 H1396 0.929 . S
C1355 C1352 1.356 . S
C1355 C1357 1.358 . S
C1355 H1397 0.930 . S
C1356 N1353 1.314 . S
C1356 C1354 1.353 . S
C1356 H1398 0.930 . S
C1357 N1353 1.279 . S
C1357 C1355 1.358 . S
C1357 H1399 0.930 . S
C1358 C1359 1.348 . S
C1358 C1360 1.356 . S
C1358 O1383 1.325 . S
C1359 C1358 1.348 . S
C1359 C1361 1.353 . S
C1359 H1400 0.929 . S
C1360 C1358 1.356 . S
C1360 C1362 1.358 . S
C1360 H1401 0.930 . S
C1361 C1359 1.353 . S
C1361 N1363 1.314 . S
C1361 H1402 0.930 . S
C1362 C1360 1.358 . S
C1362 N1363 1.279 . S
C1362 H1403 0.930 . S
N1363 C1361 1.314 . S
N1363 C1362 1.279 . S
C1364 C1366 1.353 . S
C1364 N1367 1.314 1_455 S
C1364 H1370 0.930 . S
C1365 N1367 1.279 . S
C1365 C1368 1.358 . S
C1365 H1371 0.930 . S
C1366 C1364 1.353 . S
C1366 C1369 1.348 1_455 S
C1366 H1404 0.929 . S
N1367 Li1322 1.990 . S
N1367 C1364 1.314 1_655 S
N1367 C1365 1.279 . S
C1368 C1365 1.358 . S
C1368 C1369 1.356 . S
C1368 H1405 0.930 . S
C1369 C1366 1.348 1_655 S
C1369 C1368 1.356 . S
H1370 C1364 0.930 . S
H1371 C1365 0.930 . S
C1372 N1373 1.314 1_655 S
C1372 C1374 1.353 . S
C1372 H1378 0.930 . S
N1373 Li1323 1.990 . S
N1373 C1372 1.314 1_455 S
N1373 C1376 1.279 . S
C1374 C1372 1.353 . S
C1374 C1377 1.348 1_655 S
C1374 H1406 0.929 . S
C1375 C1376 1.358 . S
C1375 C1377 1.356 . S
C1375 H1407 0.930 . S
C1376 N1373 1.279 . S
C1376 C1375 1.358 . S
C1376 H1379 0.930 . S
C1377 C1374 1.348 1_455 S
C1377 C1375 1.356 . S
H1378 C1372 0.930 . S
H1379 C1376 0.930 . S
O1380 Li1320 1.954 1_455 S
O1380 Li1321 1.974 . S
O1380 Li1322 1.963 1_455 S
O1380 C1324 1.323 1_455 S
O1381 Li1320 1.970 . S
O1381 Li1321 1.956 1_655 S
O1381 Li1323 1.961 1_655 S
O1381 C1330 1.327 1_655 S
O1382 Li1320 1.961 . S
O1382 Li1322 1.956 . S
O1382 Li1323 1.970 1_655 S
O1382 C1352 1.325 . S
O1383 Li1321 1.961 . S
O1383 Li1322 1.970 1_455 S
O1383 Li1323 1.956 . S
O1383 C1358 1.325 . S
H1384 C1326 0.929 . S
H1385 C1327 0.930 . S
H1386 C1328 0.930 . S
H1387 C1329 0.930 . S
H1388 C1331 0.930 . S
H1389 C1333 0.929 . S
H1390 C1334 0.930 . S
H1391 C1335 0.930 . S
H1392 C1338 0.930 . S
H1393 C1341 0.929 . S
H1394 C1346 0.929 . S
H1395 C1347 0.930 . S
H1396 C1354 0.929 . S
H1397 C1355 0.930 . S
H1398 C1356 0.930 . S
H1399 C1357 0.930 . S
H1400 C1359 0.929 . S
H1401 C1360 0.930 . S
H1402 C1361 0.930 . S
H1403 C1362 0.930 . S
H1404 C1366 0.929 . S
H1405 C1368 0.930 . S
H1406 C1374 0.929 . S
H1407 C1375 0.930 . S
Li1408 N1425 1.990 . S
Li1408 O1468 1.956 . S
Li1408 O1469 1.970 . S
Li1408 O1470 1.961 . S
Li1409 N1433 1.990 . S
Li1409 O1468 1.970 . S
Li1409 O1469 1.956 . S
Li1409 O1471 1.961 . S
Li1410 N1455 1.990 . S
Li1410 O1468 1.961 . S
Li1410 O1470 1.956 . S
Li1410 O1471 1.970 . S
Li1411 N1461 1.990 . S
Li1411 O1469 1.961 . S
Li1411 O1470 1.970 . S
Li1411 O1471 1.956 . S
C1412 C1414 1.348 . S
C1412 C1415 1.356 . S
C1412 O1468 1.325 . S
N1413 C1416 1.314 . S
N1413 C1417 1.279 . S
C1414 C1412 1.348 . S
C1414 C1416 1.353 . S
C1414 H1472 0.929 . S
C1415 C1412 1.356 . S
C1415 C1417 1.358 . S
C1415 H1473 0.930 . S
C1416 N1413 1.314 . S
C1416 C1414 1.353 . S
C1416 H1474 0.930 . S
C1417 N1413 1.279 . S
C1417 C1415 1.358 . S
C1417 H1475 0.930 . S
C1418 C1421 1.348 . S
C1418 C1422 1.356 . S
C1418 O1469 1.325 . S
C1419 N1420 1.279 . S
C1419 C1422 1.358 . S
C1419 H1476 0.930 . S
N1420 C1419 1.279 . S
N1420 C1423 1.314 . S
C1421 C1418 1.348 . S
C1421 C1423 1.353 . S
C1421 H1477 0.929 . S
C1422 C1418 1.356 . S
C1422 C1419 1.358 . S
C1422 H1478 0.930 . S
C1423 N1420 1.314 . S
C1423 C1421 1.353 . S
C1423 H1479 0.930 . S
C1424 N1425 1.314 . S
C1424 C1429 1.353 . S
C1424 H1430 0.930 . S
N1425 Li1408 1.990 . S
N1425 C1424 1.314 . S
N1425 C1427 1.279 . S
C1426 C1427 1.358 . S
C1426 C1428 1.356 . S
C1426 H1480 0.930 . S
C1427 N1425 1.279 . S
C1427 C1426 1.358 . S
C1427 H1431 0.930 . S
C1428 C1426 1.356 . S
C1428 C1429 1.348 . S
C1429 C1424 1.353 . S
C1429 C1428 1.348 . S
C1429 H1481 0.929 . S
H1430 C1424 0.930 . S
H1431 C1427 0.930 . S
C1432 N1433 1.314 . S
C1432 C1434 1.353 . S
C1432 H1438 0.930 . S
N1433 Li1409 1.990 . S
N1433 C1432 1.314 . S
N1433 C1436 1.279 . S
C1434 C1432 1.353 . S
C1434 C1437 1.348 . S
C1434 H1482 0.929 . S
C1435 C1436 1.358 . S
C1435 C1437 1.356 . S
C1435 H1483 0.930 . S
C1436 N1433 1.279 . S
C1436 C1435 1.358 . S
C1436 H1439 0.930 . S
C1437 C1434 1.348 . S
C1437 C1435 1.356 . S
H1438 C1432 0.930 . S
H1439 C1436 0.930 . S
C1440 C1442 1.348 . S
C1440 C1443 1.356 . S
C1440 O1470 1.325 . S
N1441 C1444 1.314 . S
N1441 C1445 1.279 . S
C1442 C1440 1.348 . S
C1442 C1444 1.353 . S
C1442 H1484 0.929 . S
C1443 C1440 1.356 . S
C1443 C1445 1.358 . S
C1443 H1485 0.930 . S
C1444 N1441 1.314 . S
C1444 C1442 1.353 . S
C1444 H1486 0.930 . S
C1445 N1441 1.279 . S
C1445 C1443 1.358 . S
C1445 H1487 0.930 . S
C1446 C1447 1.348 . S
C1446 C1448 1.356 . S
C1446 O1471 1.325 . S
C1447 C1446 1.348 . S
C1447 C1449 1.353 . S
C1447 H1488 0.929 . S
C1448 C1446 1.356 . S
C1448 C1450 1.358 . S
C1448 H1489 0.930 . S
C1449 C1447 1.353 . S
C1449 N1451 1.314 . S
C1449 H1490 0.930 . S
C1450 C1448 1.358 . S
C1450 N1451 1.279 . S
C1450 H1491 0.930 . S
N1451 C1449 1.314 . S
N1451 C1450 1.279 . S
C1452 C1454 1.353 . S
C1452 N1455 1.314 . S
C1452 H1458 0.930 . S
C1453 N1455 1.279 . S
C1453 C1456 1.358 . S
C1453 H1459 0.930 . S
C1454 C1452 1.353 . S
C1454 C1457 1.348 . S
C1454 H1492 0.929 . S
N1455 Li1410 1.990 . S
N1455 C1452 1.314 . S
N1455 C1453 1.279 . S
C1456 C1453 1.358 . S
C1456 C1457 1.356 . S
C1456 H1493 0.930 . S
C1457 C1454 1.348 . S
C1457 C1456 1.356 . S
H1458 C1452 0.930 . S
H1459 C1453 0.930 . S
C1460 N1461 1.314 . S
C1460 C1462 1.353 . S
C1460 H1466 0.930 . S
N1461 Li1411 1.990 . S
N1461 C1460 1.314 . S
N1461 C1464 1.279 . S
C1462 C1460 1.353 . S
C1462 C1465 1.348 . S
C1462 H1494 0.929 . S
C1463 C1464 1.358 . S
C1463 C1465 1.356 . S
C1463 H1495 0.930 . S
C1464 N1461 1.279 . S
C1464 C1463 1.358 . S
C1464 H1467 0.930 . S
C1465 C1462 1.348 . S
C1465 C1463 1.356 . S
H1466 C1460 0.930 . S
H1467 C1464 0.930 . S
O1468 Li1408 1.956 . S
O1468 Li1409 1.970 . S
O1468 Li1410 1.961 . S
O1468 C1412 1.325 . S
O1469 Li1408 1.970 . S
O1469 Li1409 1.956 . S
O1469 Li1411 1.961 . S
O1469 C1418 1.325 . S
O1470 Li1408 1.961 . S
O1470 Li1410 1.956 . S
O1470 Li1411 1.970 . S
O1470 C1440 1.325 . S
O1471 Li1409 1.961 . S
O1471 Li1410 1.970 . S
O1471 Li1411 1.956 . S
O1471 C1446 1.325 . S
H1472 C1414 0.929 . S
H1473 C1415 0.930 . S
H1474 C1416 0.930 . S
H1475 C1417 0.930 . S
H1476 C1419 0.930 . S
H1477 C1421 0.929 . S
H1478 C1422 0.930 . S
H1479 C1423 0.930 . S
H1480 C1426 0.930 . S
H1481 C1429 0.929 . S
H1482 C1434 0.929 . S
H1483 C1435 0.930 . S
H1484 C1442 0.929 . S
H1485 C1443 0.930 . S
H1486 C1444 0.930 . S
H1487 C1445 0.930 . S
H1488 C1447 0.929 . S
H1489 C1448 0.930 . S
H1490 C1449 0.930 . S
H1491 C1450 0.930 . S
H1492 C1454 0.929 . S
H1493 C1456 0.930 . S
H1494 C1462 0.929 . S
H1495 C1463 0.930 . S
Li1496 N1513 1.990 . S
Li1496 O1556 1.956 . S
Li1496 O1557 1.989 . S
Li1496 O1558 1.961 1_565 S
Li1497 N1521 1.978 1_565 S
Li1497 O1556 1.976 . S
Li1497 O1557 1.947 . S
Li1497 O1559 1.956 1_565 S
Li1498 N1543 1.991 . S
Li1498 O1556 1.959 . S
Li1498 O1558 1.954 1_565 S
Li1498 O1559 1.973 1_565 S
Li1499 N1549 1.990 . S
Li1499 O1557 1.946 1_545 S
Li1499 O1558 1.970 . S
Li1499 O1559 1.956 . S
C1500 C1502 1.348 . S
C1500 C1503 1.356 . S
C1500 O1556 1.325 . S
N1501 C1504 1.314 . S
N1501 C1505 1.279 . S
C1502 C1500 1.348 . S
C1502 C1504 1.353 . S
C1502 H1560 0.929 . S
C1503 C1500 1.356 . S
C1503 C1505 1.358 . S
C1503 H1561 0.930 . S
C1504 N1501 1.314 . S
C1504 C1502 1.353 . S
C1504 H1562 0.930 . S
C1505 N1501 1.279 . S
C1505 C1503 1.358 . S
C1505 H1563 0.930 . S
C1506 C1509 1.366 . S
C1506 C1510 1.339 1_565 S
C1506 O1557 1.325 . S
C1507 N1508 1.278 . S
C1507 C1510 1.358 . S
C1507 H1564 0.930 . S
N1508 C1507 1.278 . S
N1508 C1511 1.316 1_545 S
C1509 C1506 1.366 . S
C1509 C1511 1.353 . S
C1509 H1565 0.929 . S
C1510 C1506 1.339 1_545 S
C1510 C1507 1.358 . S
C1510 H1566 0.930 . S
C1511 N1508 1.316 1_565 S
C1511 C1509 1.353 . S
C1511 H1567 0.930 . S
C1512 N1513 1.314 . S
C1512 C1517 1.353 . S
C1512 H1518 0.930 . S
N1513 Li1496 1.990 . S
N1513 C1512 1.314 . S
N1513 C1515 1.279 . S
C1514 C1515 1.358 . S
C1514 C1516 1.356 . S
C1514 H1568 0.930 . S
C1515 N1513 1.279 . S
C1515 C1514 1.358 . S
C1515 H1519 0.930 . S
C1516 C1514 1.356 . S
C1516 C1517 1.348 . S
C1517 C1512 1.353 . S
C1517 C1516 1.348 . S
C1517 H1569 0.929 . S
H1518 C1512 0.930 . S
H1519 C1515 0.930 . S
C1520 N1521 1.327 . S
C1520 C1522 1.353 . S
C1520 H1526 0.930 . S
N1521 Li1497 1.978 1_545 S
N1521 C1520 1.327 . S
N1521 C1524 1.275 1_545 S
C1522 C1520 1.353 . S
C1522 C1525 1.348 1_545 S
C1522 H1570 0.929 . S
C1523 C1524 1.358 . S
C1523 C1525 1.356 . S
C1523 H1571 0.930 . S
C1524 N1521 1.275 1_565 S
C1524 C1523 1.358 . S
C1524 H1527 0.930 . S
C1525 C1522 1.348 1_565 S
C1525 C1523 1.356 . S
H1526 C1520 0.930 . S
H1527 C1524 0.930 . S
C1528 C1530 1.348 . S
C1528 C1531 1.356 1_545 S
C1528 O1558 1.325 . S
N1529 C1532 1.314 . S
N1529 C1533 1.279 1_545 S
C1530 C1528 1.348 . S
C1530 C1532 1.353 . S
C1530 H1572 0.929 . S
C1531 C1528 1.356 1_565 S
C1531 C1533 1.358 . S
C1531 H1573 0.930 . S
C1532 N1529 1.314 . S
C1532 C1530 1.353 . S
C1532 H1574 0.930 . S
C1533 N1529 1.279 1_565 S
C1533 C1531 1.358 . S
C1533 H1575 0.930 . S
C1534 C1535 1.348 . S
C1534 C1536 1.356 . S
C1534 O1559 1.325 . S
C1535 C1534 1.348 . S
C1535 C1537 1.353 . S
C1535 H1576 0.929 . S
C1536 C1534 1.356 . S
C1536 C1538 1.358 . S
C1536 H1577 0.930 . S
C1537 C1535 1.353 . S
C1537 N1539 1.314 . S
C1537 H1578 0.930 . S
C1538 C1536 1.358 . S
C1538 N1539 1.279 . S
C1538 H1579 0.930 . S
N1539 C1537 1.314 . S
N1539 C1538 1.279 . S
C1540 C1542 1.353 . S
C1540 N1543 1.314 . S
C1540 H1546 0.930 . S
C1541 N1543 1.279 1_545 S
C1541 C1544 1.358 . S
C1541 H1547 0.930 . S
C1542 C1540 1.353 . S
C1542 C1545 1.348 1_565 S
C1542 H1580 0.929 . S
N1543 Li1498 1.991 . S
N1543 C1540 1.314 . S
N1543 C1541 1.279 1_565 S
C1544 C1541 1.358 . S
C1544 C1545 1.356 . S
C1544 H1581 0.930 . S
C1545 C1542 1.348 1_545 S
C1545 C1544 1.356 . S
H1546 C1540 0.930 . S
H1547 C1541 0.930 . S
C1548 N1549 1.314 . S
C1548 C1550 1.353 . S
C1548 H1554 0.930 . S
N1549 Li1499 1.990 . S
N1549 C1548 1.314 . S
N1549 C1552 1.279 . S
C1550 C1548 1.353 . S
C1550 C1553 1.348 . S
C1550 H1582 0.929 . S
C1551 C1552 1.358 . S
C1551 C1553 1.356 . S
C1551 H1583 0.930 . S
C1552 N1549 1.279 . S
C1552 C1551 1.358 . S
C1552 H1555 0.930 . S
C1553 C1550 1.348 . S
C1553 C1551 1.356 . S
H1554 C1548 0.930 . S
H1555 C1552 0.930 . S
O1556 Li1496 1.956 . S
O1556 Li1497 1.976 . S
O1556 Li1498 1.959 . S
O1556 C1500 1.325 . S
O1557 Li1496 1.989 . S
O1557 Li1497 1.947 . S
O1557 Li1499 1.946 1_565 S
O1557 C1506 1.325 . S
O1558 Li1496 1.961 1_545 S
O1558 Li1498 1.954 1_545 S
O1558 Li1499 1.970 . S
O1558 C1528 1.325 . S
O1559 Li1497 1.956 1_545 S
O1559 Li1498 1.973 1_545 S
O1559 Li1499 1.956 . S
O1559 C1534 1.325 . S
H1560 C1502 0.929 . S
H1561 C1503 0.930 . S
H1562 C1504 0.930 . S
H1563 C1505 0.930 . S
H1564 C1507 0.930 . S
H1565 C1509 0.929 . S
H1566 C1510 0.930 . S
H1567 C1511 0.930 . S
H1568 C1514 0.930 . S
H1569 C1517 0.929 . S
H1570 C1522 0.929 . S
H1571 C1523 0.930 . S
H1572 C1530 0.929 . S
H1573 C1531 0.930 . S
H1574 C1532 0.930 . S
H1575 C1533 0.930 . S
H1576 C1535 0.929 . S
H1577 C1536 0.930 . S
H1578 C1537 0.930 . S
H1579 C1538 0.930 . S
H1580 C1542 0.929 . S
H1581 C1544 0.930 . S
H1582 C1550 0.929 . S
H1583 C1551 0.930 . S
C1584 C1585 1.369 . S
C1584 C1586 1.419 1_545 S
C1584 H1588 0.930 . S
C1585 C1584 1.369 . S
C1585 C1594 1.430 1_554 S
C1586 C1584 1.419 1_565 S
C1586 C1587 1.363 1_554 S
C1586 H1589 0.929 . S
C1587 C1586 1.363 1_556 S
C1587 C1593 1.428 . S
H1588 C1584 0.930 . S
H1589 C1586 0.929 . S
S1590 N1591 1.613 . S
S1590 N1592 1.610 . S
N1591 S1590 1.613 . S
N1591 C1594 1.357 1_565 S
N1592 S1590 1.610 . S
N1592 C1593 1.351 . S
C1593 C1587 1.428 . S
C1593 N1592 1.351 . S
C1593 C1594 1.424 1_565 S
C1594 C1585 1.430 1_556 S
C1594 N1591 1.357 1_545 S
C1594 C1593 1.424 1_545 S
C1595 C1596 1.369 1_455 S
C1595 C1597 1.417 1_554 S
C1595 H1599 0.930 . S
C1596 C1595 1.369 1_655 S
C1596 C1605 1.419 1_554 S
C1597 C1595 1.417 1_556 S
C1597 C1598 1.365 . S
C1597 H1600 0.929 1_556 S
C1598 C1597 1.365 . S
C1598 C1604 1.428 1_455 S
H1599 C1595 0.930 . S
H1600 C1597 0.929 1_554 S
S1601 N1602 1.613 . S
S1601 N1603 1.610 . S
N1602 S1601 1.613 . S
N1602 C1605 1.352 . S
N1603 S1601 1.610 . S
N1603 C1604 1.351 . S
C1604 C1598 1.428 1_655 S
C1604 N1603 1.351 . S
C1604 C1605 1.443 . S
C1605 C1596 1.419 1_556 S
C1605 N1602 1.352 . S
C1605 C1604 1.443 . S
C1606 C1607 1.369 . S
C1606 C1608 1.419 1_556 S
C1606 H1610 0.930 . S
C1607 C1606 1.369 . S
C1607 C1616 1.429 . S
C1608 C1606 1.419 1_554 S
C1608 C1609 1.363 . S
C1608 H1611 0.929 . S
C1609 C1608 1.363 . S
C1609 C1615 1.428 . S
H1610 C1606 0.930 . S
H1611 C1608 0.929 . S
S1612 N1613 1.613 . S
S1612 N1614 1.610 1_556 S
N1613 S1612 1.613 . S
N1613 C1616 1.350 . S
N1614 S1612 1.610 1_554 S
N1614 C1615 1.351 . S
C1615 C1609 1.428 . S
C1615 N1614 1.351 . S
C1615 C1616 1.434 1_554 S
C1616 C1607 1.429 . S
C1616 N1613 1.350 . S
C1616 C1615 1.434 1_556 S
C1617 C1618 1.369 . S
C1617 C1619 1.419 . S
C1617 H1621 0.930 . S
C1618 C1617 1.369 . S
C1618 C1627 1.429 . S
C1619 C1617 1.419 . S
C1619 C1620 1.363 . S
C1619 H1622 0.929 . S
C1620 C1619 1.363 . S
C1620 C1626 1.428 . S
H1621 C1617 0.930 . S
H1622 C1619 0.929 . S
S1623 N1624 1.613 . S
S1623 N1625 1.610 . S
N1624 S1623 1.613 . S
N1624 C1627 1.350 . S
N1625 S1623 1.610 . S
N1625 C1626 1.351 . S
C1626 C1620 1.428 . S
C1626 N1625 1.351 . S
C1626 C1627 1.434 . S
C1627 C1618 1.429 . S
C1627 N1624 1.350 . S
C1627 C1626 1.434 . S
C1628 C1629 1.369 . S
C1628 C1630 1.419 . S
C1628 H1632 0.930 . S
C1629 C1628 1.369 . S
C1629 C1638 1.429 . S
C1630 C1628 1.419 . S
C1630 C1631 1.363 . S
C1630 H1633 0.929 . S
C1631 C1630 1.363 . S
C1631 C1637 1.428 . S
H1632 C1628 0.930 . S
H1633 C1630 0.929 . S
S1634 N1635 1.613 . S
S1634 N1636 1.610 . S
N1635 S1634 1.613 . S
N1635 C1638 1.350 . S
N1636 S1634 1.610 . S
N1636 C1637 1.351 . S
C1637 C1631 1.428 . S
C1637 N1636 1.351 . S
C1637 C1638 1.434 . S
C1638 C1629 1.429 . S
C1638 N1635 1.350 . S
C1638 C1637 1.434 . S
C1639 C1640 1.369 . S
C1639 C1641 1.419 . S
C1639 H1643 0.930 . S
C1640 C1639 1.369 . S
C1640 C1649 1.429 . S
C1641 C1639 1.419 . S
C1641 C1642 1.363 . S
C1641 H1644 0.929 . S
C1642 C1641 1.363 . S
C1642 C1648 1.428 . S
H1643 C1639 0.930 . S
H1644 C1641 0.929 . S
S1645 N1646 1.613 . S
S1645 N1647 1.610 . S
N1646 S1645 1.613 . S
N1646 C1649 1.350 . S
N1647 S1645 1.610 . S
N1647 C1648 1.351 . S
C1648 C1642 1.428 . S
C1648 N1647 1.351 . S
C1648 C1649 1.434 . S
C1649 C1640 1.429 . S
C1649 N1646 1.350 . S
C1649 C1648 1.434 . S
C1650 C1651 1.369 . S
C1650 C1652 1.419 . S
C1650 H1654 0.930 . S
C1651 C1650 1.369 . S
C1651 C1660 1.429 . S
C1652 C1650 1.419 . S
C1652 C1653 1.363 . S
C1652 H1655 0.929 . S
C1653 C1652 1.363 . S
C1653 C1659 1.428 . S
H1654 C1650 0.930 . S
H1655 C1652 0.929 . S
S1656 N1657 1.613 . S
S1656 N1658 1.610 . S
N1657 S1656 1.613 . S
N1657 C1660 1.350 . S
N1658 S1656 1.610 . S
N1658 C1659 1.351 . S
C1659 C1653 1.428 . S
C1659 N1658 1.351 . S
C1659 C1660 1.434 . S
C1660 C1651 1.429 . S
C1660 N1657 1.350 . S
C1660 C1659 1.434 . S
C1661 C1662 1.369 . S
C1661 C1663 1.419 . S
C1661 H1665 0.930 . S
C1662 C1661 1.369 . S
C1662 C1671 1.429 . S
C1663 C1661 1.419 . S
C1663 C1664 1.363 . S
C1663 H1666 0.929 . S
C1664 C1663 1.363 . S
C1664 C1670 1.428 . S
H1665 C1661 0.930 . S
H1666 C1663 0.929 . S
S1667 N1668 1.613 . S
S1667 N1669 1.610 . S
N1668 S1667 1.613 . S
N1668 C1671 1.350 . S
N1669 S1667 1.610 . S
N1669 C1670 1.351 . S
C1670 C1664 1.428 . S
C1670 N1669 1.351 . S
C1670 C1671 1.434 . S
C1671 C1662 1.429 . S
C1671 N1668 1.350 . S
C1671 C1670 1.434 . S
C1672 C1673 1.369 . S
C1672 C1674 1.419 . S
C1672 H1676 0.930 . S
C1673 C1672 1.369 . S
C1673 C1682 1.429 . S
C1674 C1672 1.419 . S
C1674 C1675 1.363 . S
C1674 H1677 0.929 . S
C1675 C1674 1.363 . S
C1675 C1681 1.428 . S
H1676 C1672 0.930 . S
H1677 C1674 0.929 . S
S1678 N1679 1.613 . S
S1678 N1680 1.610 . S
N1679 S1678 1.613 . S
N1679 C1682 1.350 . S
N1680 S1678 1.610 . S
N1680 C1681 1.351 . S
C1681 C1675 1.428 . S
C1681 N1680 1.351 . S
C1681 C1682 1.434 . S
C1682 C1673 1.429 . S
C1682 N1679 1.350 . S
C1682 C1681 1.434 . S
C1683 C1684 1.369 . S
C1683 C1685 1.419 . S
C1683 H1687 0.930 . S
C1684 C1683 1.369 . S
C1684 C1693 1.429 . S
C1685 C1683 1.419 . S
C1685 C1686 1.363 . S
C1685 H1688 0.929 . S
C1686 C1685 1.363 . S
C1686 C1692 1.428 . S
H1687 C1683 0.930 . S
H1688 C1685 0.929 . S
S1689 N1690 1.613 . S
S1689 N1691 1.610 . S
N1690 S1689 1.613 . S
N1690 C1693 1.350 . S
N1691 S1689 1.610 . S
N1691 C1692 1.351 . S
C1692 C1686 1.428 . S
C1692 N1691 1.351 . S
C1692 C1693 1.434 . S
C1693 C1684 1.429 . S
C1693 N1690 1.350 . S
C1693 C1692 1.434 . S
C1694 C1695 1.369 . S
C1694 C1696 1.419 . S
C1694 H1698 0.930 . S
C1695 C1694 1.369 . S
C1695 C1704 1.429 . S
C1696 C1694 1.419 . S
C1696 C1697 1.363 . S
C1696 H1699 0.929 . S
C1697 C1696 1.363 . S
C1697 C1703 1.428 . S
H1698 C1694 0.930 . S
H1699 C1696 0.929 . S
S1700 N1701 1.613 . S
S1700 N1702 1.610 . S
N1701 S1700 1.613 . S
N1701 C1704 1.350 . S
N1702 S1700 1.610 . S
N1702 C1703 1.351 . S
C1703 C1697 1.428 . S
C1703 N1702 1.351 . S
C1703 C1704 1.434 . S
C1704 C1695 1.429 . S
C1704 N1701 1.350 . S
C1704 C1703 1.434 . S
C1705 C1706 1.369 . S
C1705 C1707 1.419 . S
C1705 H1709 0.930 . S
C1706 C1705 1.369 . S
C1706 C1715 1.429 . S
C1707 C1705 1.419 . S
C1707 C1708 1.363 . S
C1707 H1710 0.929 . S
C1708 C1707 1.363 . S
C1708 C1714 1.428 . S
H1709 C1705 0.930 . S
H1710 C1707 0.929 . S
S1711 N1712 1.613 . S
S1711 N1713 1.610 . S
N1712 S1711 1.613 . S
N1712 C1715 1.350 . S
N1713 S1711 1.610 . S
N1713 C1714 1.351 . S
C1714 C1708 1.428 . S
C1714 N1713 1.351 . S
C1714 C1715 1.434 . S
C1715 C1706 1.429 . S
C1715 N1712 1.350 . S
C1715 C1714 1.434 . S
C1716 C1717 1.369 . S
C1716 C1718 1.419 . S
C1716 H1720 0.930 . S
C1717 C1716 1.369 . S
C1717 C1726 1.429 . S
C1718 C1716 1.419 . S
C1718 C1719 1.363 . S
C1718 H1721 0.929 . S
C1719 C1718 1.363 . S
C1719 C1725 1.428 . S
H1720 C1716 0.930 . S
H1721 C1718 0.929 . S
S1722 N1723 1.613 . S
S1722 N1724 1.610 . S
N1723 S1722 1.613 . S
N1723 C1726 1.350 . S
N1724 S1722 1.610 . S
N1724 C1725 1.351 . S
C1725 C1719 1.428 . S
C1725 N1724 1.351 . S
C1725 C1726 1.434 . S
C1726 C1717 1.429 . S
C1726 N1723 1.350 . S
C1726 C1725 1.434 . S
C1727 C1728 1.369 . S
C1727 C1729 1.419 . S
C1727 H1731 0.930 . S
C1728 C1727 1.369 . S
C1728 C1737 1.429 . S
C1729 C1727 1.419 . S
C1729 C1730 1.363 . S
C1729 H1732 0.929 . S
C1730 C1729 1.363 . S
C1730 C1736 1.428 . S
H1731 C1727 0.930 . S
H1732 C1729 0.929 . S
S1733 N1734 1.613 . S
S1733 N1735 1.610 . S
N1734 S1733 1.613 . S
N1734 C1737 1.350 . S
N1735 S1733 1.610 . S
N1735 C1736 1.351 . S
C1736 C1730 1.428 . S
C1736 N1735 1.351 . S
C1736 C1737 1.434 . S
C1737 C1728 1.429 . S
C1737 N1734 1.350 . S
C1737 C1736 1.434 . S
C1738 C1739 1.369 . S
C1738 C1740 1.419 . S
C1738 H1742 0.930 . S
C1739 C1738 1.369 . S
C1739 C1748 1.429 . S
C1740 C1738 1.419 . S
C1740 C1741 1.363 . S
C1740 H1743 0.929 . S
C1741 C1740 1.363 . S
C1741 C1747 1.428 . S
H1742 C1738 0.930 . S
H1743 C1740 0.929 . S
S1744 N1745 1.613 . S
S1744 N1746 1.610 . S
N1745 S1744 1.613 . S
N1745 C1748 1.350 . S
N1746 S1744 1.610 . S
N1746 C1747 1.351 . S
C1747 C1741 1.428 . S
C1747 N1746 1.351 . S
C1747 C1748 1.434 . S
C1748 C1739 1.429 . S
C1748 N1745 1.350 . S
C1748 C1747 1.434 . S
C1749 C1750 1.369 . S
C1749 C1751 1.419 . S
C1749 H1753 0.930 . S
C1750 C1749 1.369 . S
C1750 C1759 1.429 1_455 S
C1751 C1749 1.419 . S
C1751 C1752 1.364 . S
C1751 H1754 0.929 . S
C1752 C1751 1.364 . S
C1752 C1758 1.428 1_455 S
H1753 C1749 0.930 . S
H1754 C1751 0.929 . S
S1755 N1756 1.613 . S
S1755 N1757 1.610 . S
N1756 S1755 1.613 . S
N1756 C1759 1.350 . S
N1757 S1755 1.610 . S
N1757 C1758 1.351 . S
C1758 C1752 1.428 1_655 S
C1758 N1757 1.351 . S
C1758 C1759 1.434 . S
C1759 C1750 1.429 1_655 S
C1759 N1756 1.350 . S
C1759 C1758 1.434 . S
C1760 C1761 1.369 . S
C1760 C1762 1.419 . S
C1760 H1764 0.930 . S
C1761 C1760 1.369 . S
C1761 C1770 1.429 . S
C1762 C1760 1.419 . S
C1762 C1763 1.363 . S
C1762 H1765 0.929 . S
C1763 C1762 1.363 . S
C1763 C1769 1.428 . S
H1764 C1760 0.930 . S
H1765 C1762 0.929 . S
S1766 N1767 1.613 . S
S1766 N1768 1.610 . S
N1767 S1766 1.613 . S
N1767 C1770 1.350 . S
N1768 S1766 1.610 . S
N1768 C1769 1.351 . S
C1769 C1763 1.428 . S
C1769 N1768 1.351 . S
C1769 C1770 1.434 . S
C1770 C1761 1.429 . S
C1770 N1767 1.350 . S
C1770 C1769 1.434 . S
C1771 C1772 1.369 1_565 S
C1771 C1773 1.419 . S
C1771 H1775 0.930 . S
C1772 C1771 1.369 1_545 S
C1772 C1781 1.429 . S
C1773 C1771 1.419 . S
C1773 C1774 1.361 . S
C1773 H1776 0.929 . S
C1774 C1773 1.361 . S
C1774 C1780 1.429 1_565 S
H1775 C1771 0.930 . S
H1776 C1773 0.929 . S
S1777 N1778 1.613 . S
S1777 N1779 1.610 . S
N1778 S1777 1.613 . S
N1778 C1781 1.350 . S
N1779 S1777 1.610 . S
N1779 C1780 1.351 . S
C1780 C1774 1.429 1_545 S
C1780 N1779 1.351 . S
C1780 C1781 1.434 . S
C1781 C1772 1.429 . S
C1781 N1778 1.350 . S
C1781 C1780 1.434 . S
C1782 C1783 1.369 . S
C1782 C1784 1.419 . S
C1782 H1786 0.930 . S
C1783 C1782 1.369 . S
C1783 C1792 1.429 . S
C1784 C1782 1.419 . S
C1784 C1785 1.363 . S
C1784 H1787 0.929 1_554 S
C1785 C1784 1.363 . S
C1785 C1791 1.428 . S
H1786 C1782 0.930 . S
H1787 C1784 0.929 1_556 S
S1788 N1789 1.613 . S
S1788 N1790 1.610 . S
N1789 S1788 1.613 . S
N1789 C1792 1.350 . S
N1790 S1788 1.610 . S
N1790 C1791 1.351 . S
C1791 C1785 1.428 . S
C1791 N1790 1.351 . S
C1791 C1792 1.434 . S
C1792 C1783 1.429 . S
C1792 N1789 1.350 . S
C1792 C1791 1.434 . S
C1793 C1794 1.369 . S
C1793 C1795 1.419 . S
C1793 H1797 0.930 . S
C1794 C1793 1.369 . S
C1794 C1803 1.429 . S
C1795 C1793 1.419 . S
C1795 C1796 1.363 . S
C1795 H1798 0.929 . S
C1796 C1795 1.363 . S
C1796 C1802 1.428 . S
H1797 C1793 0.930 . S
H1798 C1795 0.929 . S
S1799 N1800 1.613 . S
S1799 N1801 1.610 1_554 S
N1800 S1799 1.613 . S
N1800 C1803 1.350 . S
N1801 S1799 1.610 1_556 S
N1801 C1802 1.351 1_556 S
C1802 C1796 1.428 . S
C1802 N1801 1.351 1_554 S
C1802 C1803 1.434 . S
C1803 C1794 1.429 . S
C1803 N1800 1.350 . S
C1803 C1802 1.434 . S
C1804 C1805 1.369 . S
C1804 C1806 1.419 . S
C1804 H1808 0.930 . S
C1805 C1804 1.369 . S
C1805 C1814 1.429 . S
C1806 C1804 1.419 . S
C1806 C1807 1.363 . S
C1806 H1809 0.929 . S
C1807 C1806 1.363 . S
C1807 C1813 1.428 . S
H1808 C1804 0.930 . S
H1809 C1806 0.929 . S
S1810 N1811 1.613 1_556 S
S1810 N1812 1.610 . S
N1811 S1810 1.613 1_554 S
N1811 C1814 1.350 . S
N1812 S1810 1.610 . S
N1812 C1813 1.351 1_556 S
C1813 C1807 1.428 . S
C1813 N1812 1.351 1_554 S
C1813 C1814 1.434 . S
C1814 C1805 1.429 . S
C1814 N1811 1.350 . S
C1814 C1813 1.434 . S
C1815 C1816 1.369 . S
C1815 C1817 1.419 . S
C1815 H1819 0.930 . S
C1816 C1815 1.369 . S
C1816 C1825 1.429 . S
C1817 C1815 1.419 . S
C1817 C1818 1.363 . S
C1817 H1820 0.929 . S
C1818 C1817 1.363 . S
C1818 C1824 1.428 . S
H1819 C1815 0.930 . S
H1820 C1817 0.929 . S
S1821 N1822 1.613 1_554 S
S1821 N1823 1.610 . S
N1822 S1821 1.613 1_556 S
N1822 C1825 1.350 . S
N1823 S1821 1.610 . S
N1823 C1824 1.351 1_554 S
C1824 C1818 1.428 . S
C1824 N1823 1.351 1_556 S
C1824 C1825 1.434 . S
C1825 C1816 1.429 . S
C1825 N1822 1.350 . S
C1825 C1824 1.434 . S
C1826 C1827 1.369 . S
C1826 C1828 1.419 . S
C1826 H1830 0.930 1_556 S
C1827 C1826 1.369 . S
C1827 C1836 1.429 . S
C1828 C1826 1.419 . S
C1828 C1829 1.363 . S
C1828 H1831 0.929 . S
C1829 C1828 1.363 . S
C1829 C1835 1.428 . S
H1830 C1826 0.930 1_554 S
H1831 C1828 0.929 . S
S1832 N1833 1.613 . S
S1832 N1834 1.610 . S
N1833 S1832 1.613 . S
N1833 C1836 1.350 . S
N1834 S1832 1.610 . S
N1834 C1835 1.351 . S
C1835 C1829 1.428 . S
C1835 N1834 1.351 . S
C1835 C1836 1.434 . S
C1836 C1827 1.429 . S
C1836 N1833 1.350 . S
C1836 C1835 1.434 . S
C1837 C1838 1.369 . S
C1837 C1839 1.419 . S
C1837 H1841 0.930 . S
C1838 C1837 1.369 . S
C1838 C1847 1.429 . S
C1839 C1837 1.419 . S
C1839 C1840 1.363 . S
C1839 H1842 0.929 . S
C1840 C1839 1.363 . S
C1840 C1846 1.428 . S
H1841 C1837 0.930 . S
H1842 C1839 0.929 . S
S1843 N1844 1.613 . S
S1843 N1845 1.610 . S
N1844 S1843 1.613 . S
N1844 C1847 1.350 . S
N1845 S1843 1.610 . S
N1845 C1846 1.351 . S
C1846 C1840 1.428 . S
C1846 N1845 1.351 . S
C1846 C1847 1.434 . S
C1847 C1838 1.429 . S
C1847 N1844 1.350 . S
C1847 C1846 1.434 . S
C1848 C1849 1.369 . S
C1848 C1850 1.419 . S
C1848 H1852 0.930 . S
C1849 C1848 1.369 . S
C1849 C1858 1.429 . S
C1850 C1848 1.419 . S
C1850 C1851 1.363 . S
C1850 H1853 0.929 . S
C1851 C1850 1.363 . S
C1851 C1857 1.428 . S
H1852 C1848 0.930 . S
H1853 C1850 0.929 . S
S1854 N1855 1.613 . S
S1854 N1856 1.610 . S
N1855 S1854 1.613 . S
N1855 C1858 1.350 . S
N1856 S1854 1.610 . S
N1856 C1857 1.351 . S
C1857 C1851 1.428 . S
C1857 N1856 1.351 . S
C1857 C1858 1.434 . S
C1858 C1849 1.429 . S
C1858 N1855 1.350 . S
C1858 C1857 1.434 . S
C1859 C1860 1.369 . S
C1859 C1861 1.419 . S
C1859 H1863 0.930 . S
C1860 C1859 1.369 . S
C1860 C1869 1.429 . S
C1861 C1859 1.419 . S
C1861 C1862 1.363 . S
C1861 H1864 0.929 . S
C1862 C1861 1.363 . S
C1862 C1868 1.428 . S
H1863 C1859 0.930 . S
H1864 C1861 0.929 . S
S1865 N1866 1.613 . S
S1865 N1867 1.610 . S
N1866 S1865 1.613 . S
N1866 C1869 1.350 . S
N1867 S1865 1.610 . S
N1867 C1868 1.351 . S
C1868 C1862 1.428 . S
C1868 N1867 1.351 . S
C1868 C1869 1.434 . S
C1869 C1860 1.429 . S
C1869 N1866 1.350 . S
C1869 C1868 1.434 . S
C1870 C1871 1.369 . S
C1870 C1872 1.419 . S
C1870 H1874 0.930 . S
C1871 C1870 1.369 . S
C1871 C1880 1.429 . S
C1872 C1870 1.419 . S
C1872 C1873 1.363 . S
C1872 H1875 0.929 . S
C1873 C1872 1.363 . S
C1873 C1879 1.428 . S
H1874 C1870 0.930 . S
H1875 C1872 0.929 . S
S1876 N1877 1.613 . S
S1876 N1878 1.610 . S
N1877 S1876 1.613 . S
N1877 C1880 1.350 . S
N1878 S1876 1.610 . S
N1878 C1879 1.351 . S
C1879 C1873 1.428 . S
C1879 N1878 1.351 . S
C1879 C1880 1.434 . S
C1880 C1871 1.429 . S
C1880 N1877 1.350 . S
C1880 C1879 1.434 . S
C1881 C1882 1.369 . S
C1881 C1883 1.419 . S
C1881 H1885 0.930 . S
C1882 C1881 1.369 . S
C1882 C1891 1.429 . S
C1883 C1881 1.419 . S
C1883 C1884 1.363 . S
C1883 H1886 0.929 . S
C1884 C1883 1.363 . S
C1884 C1890 1.428 . S
H1885 C1881 0.930 . S
H1886 C1883 0.929 . S
S1887 N1888 1.613 . S
S1887 N1889 1.610 . S
N1888 S1887 1.613 . S
N1888 C1891 1.350 . S
N1889 S1887 1.610 . S
N1889 C1890 1.351 . S
C1890 C1884 1.428 . S
C1890 N1889 1.351 . S
C1890 C1891 1.434 . S
C1891 C1882 1.429 . S
C1891 N1888 1.350 . S
C1891 C1890 1.434 . S
C1892 C1893 1.369 . S
C1892 C1894 1.419 . S
C1892 H1896 0.930 . S
C1893 C1892 1.369 . S
C1893 C1902 1.429 1_545 S
C1894 C1892 1.419 . S
C1894 C1895 1.377 . S
C1894 H1897 0.929 . S
C1895 C1894 1.377 . S
C1895 C1901 1.416 1_545 S
H1896 C1892 0.930 . S
H1897 C1894 0.929 . S
S1898 N1899 1.613 . S
S1898 N1900 1.610 . S
N1899 S1898 1.613 . S
N1899 C1902 1.350 . S
N1900 S1898 1.610 . S
N1900 C1901 1.351 . S
C1901 C1895 1.416 1_565 S
C1901 N1900 1.351 . S
C1901 C1902 1.434 . S
C1902 C1893 1.429 1_565 S
C1902 N1899 1.350 . S
C1902 C1901 1.434 . S
C1903 C1904 1.369 . S
C1903 C1905 1.419 . S
C1903 H1907 0.930 . S
C1904 C1903 1.369 . S
C1904 C1913 1.433 . S
C1905 C1903 1.419 . S
C1905 C1906 1.363 . S
C1905 H1908 0.929 . S
C1906 C1905 1.363 . S
C1906 C1912 1.428 1_655 S
H1907 C1903 0.930 . S
H1908 C1905 0.929 . S
S1909 N1910 1.613 . S
S1909 N1911 1.610 . S
N1910 S1909 1.613 . S
N1910 C1913 1.349 1_455 S
N1911 S1909 1.610 . S
N1911 C1912 1.351 . S
C1912 C1906 1.428 1_455 S
C1912 N1911 1.351 . S
C1912 C1913 1.430 1_455 S
C1913 C1904 1.433 . S
C1913 N1910 1.349 1_655 S
C1913 C1912 1.430 1_655 S
C1914 C1915 1.369 . S
C1914 C1916 1.419 . S
C1914 H1918 0.930 . S
C1915 C1914 1.369 . S
C1915 C1924 1.429 . S
C1916 C1914 1.419 . S
C1916 C1917 1.363 . S
C1916 H1919 0.929 . S
C1917 C1916 1.363 . S
C1917 C1923 1.428 . S
H1918 C1914 0.930 . S
H1919 C1916 0.929 . S
S1920 N1921 1.613 . S
S1920 N1922 1.610 . S
N1921 S1920 1.613 . S
N1921 C1924 1.350 . S
N1922 S1920 1.610 . S
N1922 C1923 1.351 . S
C1923 C1917 1.428 . S
C1923 N1922 1.351 . S
C1923 C1924 1.434 . S
C1924 C1915 1.429 . S
C1924 N1921 1.350 . S
C1924 C1923 1.434 . S
C1925 C1926 1.369 . S
C1925 C1927 1.419 . S
C1925 H1929 0.930 . S
C1926 C1925 1.369 . S
C1926 C1935 1.429 1_565 S
C1927 C1925 1.419 . S
C1927 C1928 1.363 . S
C1927 H1930 0.929 . S
C1928 C1927 1.363 . S
C1928 C1934 1.428 1_565 S
H1929 C1925 0.930 . S
H1930 C1927 0.929 . S
S1931 N1932 1.613 . S
S1931 N1933 1.610 . S
N1932 S1931 1.613 . S
N1932 C1935 1.350 . S
N1933 S1931 1.610 . S
N1933 C1934 1.351 . S
C1934 C1928 1.428 1_545 S
C1934 N1933 1.351 . S
C1934 C1935 1.434 . S
C1935 C1926 1.429 1_545 S
C1935 N1932 1.350 . S
C1935 C1934 1.434 . S
C1936 C1937 1.369 . S
C1936 C1938 1.408 1_455 S
C1936 H1940 0.930 . S
C1937 C1936 1.369 . S
C1937 C1946 1.429 . S
C1938 C1936 1.408 1_655 S
C1938 C1939 1.348 1_655 S
C1938 H1941 0.947 . S
C1939 C1938 1.348 1_455 S
C1939 C1945 1.462 . S
H1940 C1936 0.930 . S
H1941 C1938 0.947 . S
S1942 N1943 1.613 . S
S1942 N1944 1.610 . S
N1943 S1942 1.613 . S
N1943 C1946 1.350 . S
N1944 S1942 1.610 . S
N1944 C1945 1.351 . S
C1945 C1939 1.462 . S
C1945 N1944 1.351 . S
C1945 C1946 1.434 . S
C1946 C1937 1.429 . S
C1946 N1943 1.350 . S
C1946 C1945 1.434 . S
C1947 C1948 1.369 . S
C1947 C1949 1.419 . S
C1947 H1951 0.930 . S
C1948 C1947 1.369 . S
C1948 C1957 1.429 . S
C1949 C1947 1.419 . S
C1949 C1950 1.363 . S
C1949 H1952 0.929 . S
C1950 C1949 1.363 . S
C1950 C1956 1.428 . S
H1951 C1947 0.930 . S
H1952 C1949 0.929 . S
S1953 N1954 1.613 . S
S1953 N1955 1.610 . S
N1954 S1953 1.613 . S
N1954 C1957 1.350 . S
N1955 S1953 1.610 . S
N1955 C1956 1.351 . S
C1956 C1950 1.428 . S
C1956 N1955 1.351 . S
C1956 C1957 1.434 . S
C1957 C1948 1.429 . S
C1957 N1954 1.350 . S
C1957 C1956 1.434 . S
C1958 C1959 1.369 . S
C1958 C1960 1.419 . S
C1958 H1962 0.930 . S
C1959 C1958 1.369 . S
C1959 C1968 1.429 . S
C1960 C1958 1.419 . S
C1960 C1961 1.363 . S
C1960 H1963 0.929 . S
C1961 C1960 1.363 . S
C1961 C1967 1.428 . S
H1962 C1958 0.930 . S
H1963 C1960 0.929 . S
S1964 N1965 1.613 . S
S1964 N1966 1.610 . S
N1965 S1964 1.613 . S
N1965 C1968 1.350 . S
N1966 S1964 1.610 . S
N1966 C1967 1.351 . S
C1967 C1961 1.428 . S
C1967 N1966 1.351 . S
C1967 C1968 1.434 . S
C1968 C1959 1.429 . S
C1968 N1965 1.350 . S
C1968 C1967 1.434 . S
C1969 C1970 1.369 . S
C1969 C1971 1.419 . S
C1969 H1973 0.930 . S
C1970 C1969 1.369 . S
C1970 C1979 1.429 . S
C1971 C1969 1.419 . S
C1971 C1972 1.363 . S
C1971 H1974 0.929 . S
C1972 C1971 1.363 . S
C1972 C1978 1.428 . S
H1973 C1969 0.930 . S
H1974 C1971 0.929 . S
S1975 N1976 1.613 . S
S1975 N1977 1.610 . S
N1976 S1975 1.613 . S
N1976 C1979 1.350 . S
N1977 S1975 1.610 . S
N1977 C1978 1.351 . S
C1978 C1972 1.428 . S
C1978 N1977 1.351 . S
C1978 C1979 1.434 . S
C1979 C1970 1.429 . S
C1979 N1976 1.350 . S
C1979 C1978 1.434 . S
C1585 C49 1.999 . S
C1587 C284 2.026 . S
C1596 C108 2.029 . S
C1598 C401 2.051 . S
C1607 C489 2.038 . S
C1609 C233 2.057 . S
C1618 C577 2.002 . S
C1620 C821 2.033 . S
C1629 C636 2.010 . S
C1631 C929 2.031 . S
C1640 C1017 1.999 . S
C1642 C761 2.019 . S
C1651 C1340 2.030 . S
C1653 C1105 2.005 . S
C1662 C1465 2.029 . S
C1664 C1173 2.013 . S
C1673 C1553 1.999 . S
C1675 C1281 2.019 . S
C1684 C29 2.839 . S
C1686 C849 2.837 . S
C1695 C145 2.839 . S
C1697 C900 2.839 . S
C1706 C1025 2.923 . S
C1708 C205 2.924 . S
C1717 C313 2.835 . S
C1719 C1085 2.842 . S
C1728 C372 2.834 . S
C1730 C1193 2.843 . S
C1739 C497 2.920 . S
C1741 C1252 2.927 . S
C1750 C557 2.888 . S
C1752 C1369 2.886 1_455 S
C1761 C673 2.905 . S
C1763 C1437 2.909 . S
C1772 C1545 2.803 . S
C1774 C733 2.804 . S
C1783 C57 0.589 . S
C1785 C381 0.484 . S
C1794 C117 0.558 . S
C1796 C460 0.479 1_554 S
C1805 C196 0.593 . S
C1807 C321 0.508 . S
C1816 C293 0.585 . S
C1818 C137 0.479 . S
C1827 C225 0.494 . S
C1829 C409 0.609 . S
C1838 C469 0.601 . S
C1840 C20 0.544 . S
C1849 C585 0.587 . S
C1851 C909 0.500 . S
C1860 C988 0.529 . S
C1862 C645 0.594 . S
C1871 C841 0.426 . S
C1873 C724 0.545 . S
C1882 C665 0.464 . S
C1884 C812 0.615 . S
C1893 C937 0.611 . S
C1895 C753 0.533 . S
C1904 C997 0.618 . S
C1906 C548 0.560 . S
C1915 C1428 0.484 . S
C1917 C1113 0.583 . S
C1926 C1525 0.505 . S
C1928 C1164 0.581 . S
C1937 C1261 0.616 . S
C1939 C1377 0.531 . S
C1948 C1201 0.489 . S
C1950 C1349 0.587 . S
C1959 C1289 0.519 . S
C1961 C1457 0.638 . S
C1970 C1076 0.454 . S
C1972 C1516 0.546 . S
