# Generated by pormake.
# Topology dmp, (4)-cn, num edge types: 1
# Building blocks:
#     Node 0, Type 0, BuildingBlock: CEKHIL_clean_sbu_0, # of connection points: 4
#     Node 1, Type 0, BuildingBlock: CEKHIL_clean_sbu_0, # of connection points: 4
#     Node 2, Type 0, BuildingBlock: CEKHIL_clean_sbu_0, # of connection points: 4
#     Node 3, Type 0, BuildingBlock: CEKHIL_clean_sbu_0, # of connection points: 4
#     Edge 4, Type (0, 0), BuildingBlock: ZUJKAS_clean_linker_0, # of connection points: 2
#     Edge 5, Type (0, 0), BuildingBlock: ZUJKAS_clean_linker_0, # of connection points: 2
#     Edge 6, Type (0, 0), BuildingBlock: ZUJKAS_clean_linker_0, # of connection points: 2
#     Edge 7, Type (0, 0), BuildingBlock: ZUJKAS_clean_linker_0, # of connection points: 2
#     Edge 8, Type (0, 0), BuildingBlock: ZUJKAS_clean_linker_0, # of connection points: 2
#     Edge 9, Type (0, 0), BuildingBlock: ZUJKAS_clean_linker_0, # of connection points: 2
#     Edge 10, Type (0, 0), BuildingBlock: ZUJKAS_clean_linker_0, # of connection points: 2
#     Edge 11, Type (0, 0), BuildingBlock: ZUJKAS_clean_linker_0, # of connection points: 2
# Relax obj value: 0.089
# Max RMSD: 0.197
# Mean RMSD: 0.197
data_MOF--net-dmp--node1-CEKHIL_clean_sbu_0--edge1-ZUJKAS_clean_linker_0
_symmetry_space_group_name_H-M    P1
_symmetry_Int_Tables_number       1
_symmetry_cell_setting            triclinic
loop_
_symmetry_equiv_pos_as_xyz
'x, y, z'
_cell_length_a     50.992812
_cell_length_b     24.946833
_cell_length_c     18.845096
_cell_angle_alpha  89.953589
_cell_angle_beta   89.986658
_cell_angle_gamma 90.813057
loop_
_atom_site_label
_atom_site_type_symbol
_atom_site_fract_x
_atom_site_fract_y
_atom_site_fract_z
_atom_type_partial_charge
Co0 Co 0.10179 0.23731 0.2575 0.0
O1 O 0.07709 0.29435 0.24974 0.0
O2 O 0.09806 0.27298 0.3484 0.0
C3 C 0.07683 0.17614 0.19987 0.0
O4 O 0.12827 0.18014 0.28503 0.0
Co5 Co 0.12564 0.18764 0.12098 0.0
O6 O 0.13752 0.13151 0.18785 0.0
C7 C 0.14547 0.29226 0.17343 0.0
C8 C 0.08112 0.30334 0.3166 0.0
C9 C 0.1391 0.13988 0.25445 0.0
O10 O 0.13125 0.28751 0.22955 0.0
O11 O 0.14449 0.25894 0.12175 0.0
O12 O 0.07314 0.18497 0.26704 0.0
O13 O 0.09381 0.20716 0.16915 0.0
Co14 Co 0.39578 0.74171 0.25508 0.0
O15 O 0.42221 0.68802 0.2477 0.0
O16 O 0.39958 0.70473 0.3452 0.0
C17 C 0.41943 0.80699 0.20106 0.0
O18 O 0.36731 0.79509 0.28179 0.0
Co19 Co 0.37226 0.7884 0.11567 0.0
O20 O 0.35277 0.83479 0.18181 0.0
C21 C 0.35455 0.68213 0.16675 0.0
C22 C 0.41765 0.67698 0.31378 0.0
C23 C 0.35264 0.8287 0.24896 0.0
O24 O 0.36811 0.68835 0.22382 0.0
O25 O 0.35529 0.7154 0.11497 0.0
O26 O 0.42274 0.79732 0.26818 0.0
O27 O 0.40386 0.77424 0.16822 0.0
Co28 Co 0.89599 0.746 0.73273 0.0
O29 O 0.92064 0.68877 0.73638 0.0
O30 O 0.89937 0.71341 0.6396 0.0
C31 C 0.9211 0.80529 0.79317 0.0
O32 O 0.86948 0.80433 0.70996 0.0
Co33 Co 0.87281 0.78911 0.87411 0.0
O34 O 0.85982 0.84702 0.81169 0.0
C35 C 0.85329 0.68655 0.81534 0.0
C36 C 0.91634 0.68188 0.66925 0.0
C37 C 0.8583 0.84241 0.7444 0.0
O38 O 0.86665 0.69475 0.75834 0.0
O39 O 0.85482 0.717 0.86994 0.0
O40 O 0.92458 0.79866 0.72547 0.0
O41 O 0.90438 0.77294 0.82253 0.0
Co42 Co 0.60236 0.2356 0.73716 0.0
O43 O 0.57724 0.29203 0.74028 0.0
O44 O 0.59913 0.26845 0.64411 0.0
C45 C 0.5774 0.17545 0.79669 0.0
O46 O 0.62933 0.1781 0.71468 0.0
Co47 Co 0.62541 0.19231 0.87857 0.0
O48 O 0.6389 0.13498 0.81619 0.0
C49 C 0.64469 0.29548 0.82067 0.0
C50 C 0.58174 0.29923 0.67326 0.0
C51 C 0.64061 0.14005 0.74899 0.0
O52 O 0.63124 0.28759 0.76378 0.0
O53 O 0.6434 0.26442 0.87476 0.0
O54 O 0.57412 0.18227 0.72894 0.0
O55 O 0.59384 0.20803 0.82666 0.0
H56 H 0.3011 0.81894 0.22557 0.0
H57 H 0.26606 0.87367 0.27366 0.0
H58 H 0.32205 0.95775 0.40607 0.0
H59 H 0.35752 0.90206 0.35758 0.0
H60 H 0.24729 0.89586 0.4135 0.0
H61 H 0.2902 0.07508 0.27653 0.0
H62 H 0.30105 0.00818 0.25709 0.0
H63 H 0.31039 0.03983 0.3389 0.0
C64 C 0.30585 0.84846 0.26593 0.0
C65 C 0.33188 0.85664 0.28782 0.0
C66 C 0.28583 0.87956 0.29354 0.0
C67 C 0.29145 0.92011 0.34291 0.0
C68 C 0.31734 0.92685 0.36763 0.0
H69 H 0.1708 0.16818 0.36583 0.0
H70 H 0.20763 0.11651 0.41278 0.0
C71 C 0.33751 0.89498 0.34037 0.0
C72 C 0.27025 0.95765 0.36186 0.0
H73 H 0.24695 0.08057 0.31611 0.0
C74 C 0.24743 0.93679 0.394 0.0
C75 C 0.27045 0.01104 0.33636 0.0
C76 C 0.29421 0.03514 0.29995 0.0
C77 C 0.22429 0.96661 0.39684 0.0
C78 C 0.22394 0.01831 0.36626 0.0
C79 C 0.24731 0.04087 0.33958 0.0
C80 C 0.19903 0.04581 0.35012 0.0
C81 C 0.20004 0.94161 0.42942 0.0
C82 C 0.18173 0.02277 0.30054 0.0
C83 C 0.161 0.05227 0.27312 0.0
C84 C 0.15701 0.10532 0.29517 0.0
C85 C 0.17323 0.12716 0.34849 0.0
C86 C 0.19432 0.09781 0.37513 0.0
H87 H 0.20517 0.91084 0.46955 0.0
H88 H 0.18766 0.97241 0.45489 0.0
H89 H 0.18832 0.92159 0.38722 0.0
H90 H 0.18525 0.9831 0.27952 0.0
H91 H 0.14885 0.03447 0.23201 0.0
H92 H 0.17424 0.32564 0.05858 0.0
H93 H 0.21009 0.39158 0.0568 0.0
H94 H 0.19813 0.42298 0.27936 0.0
H95 H 0.16189 0.35784 0.2816 0.0
H96 H 0.20667 0.51518 0.20007 0.0
H97 H 0.28218 0.36308 0.14204 0.0
H98 H 0.2557 0.36395 0.0793 0.0
H99 H 0.24933 0.34516 0.16989 0.0
C100 C 0.1791 0.34675 0.10714 0.0
C101 C 0.16535 0.33602 0.17043 0.0
C102 C 0.1997 0.38417 0.10606 0.0
C103 C 0.20714 0.41106 0.16835 0.0
C104 C 0.1928 0.4022 0.23088 0.0
H105 H 0.34778 0.59935 0.26137 0.0
H106 H 0.31256 0.53156 0.26182 0.0
C107 C 0.17206 0.36504 0.23196 0.0
C108 C 0.23005 0.44806 0.16847 0.0
H109 H 0.29603 0.45451 0.13725 0.0
C110 C 0.22621 0.50191 0.18655 0.0
C111 C 0.25558 0.43035 0.1517 0.0
C112 C 0.26108 0.37238 0.13529 0.0
C113 C 0.24717 0.53888 0.18665 0.0
C114 C 0.27246 0.52147 0.16777 0.0
C115 C 0.27648 0.46752 0.15111 0.0
C116 C 0.29489 0.55926 0.16444 0.0
C117 C 0.24228 0.59634 0.20708 0.0
C118 C 0.29685 0.59597 0.10842 0.0
C119 C 0.31696 0.63444 0.1076 0.0
C120 C 0.3354 0.63702 0.16315 0.0
C121 C 0.33389 0.59866 0.2179 0.0
C122 C 0.31381 0.55994 0.21835 0.0
H123 H 0.22243 0.60167 0.2301 0.0
H124 H 0.25716 0.61031 0.24618 0.0
H125 H 0.24412 0.6222 0.15933 0.0
H126 H 0.28244 0.59558 0.06615 0.0
H127 H 0.31748 0.66322 0.06455 0.0
H128 H 0.66386 0.15356 0.61809 0.0
H129 H 0.6998 0.10084 0.56856 0.0
H130 H 0.69501 -0.0064 0.74792 0.0
H131 H 0.65909 0.0447 0.79634 0.0
H132 H 0.74641 0.0908 0.62905 0.0
H133 H 0.70599 0.88748 0.59298 0.0
H134 H 0.68512 0.94486 0.60337 0.0
H135 H 0.69759 0.91012 0.68007 0.0
C136 C 0.66994 0.11773 0.64571 0.0
C137 C 0.65867 0.10355 0.71141 0.0
C138 C 0.69056 0.08776 0.61747 0.0
C139 C 0.69996 0.04275 0.65395 0.0
C140 C 0.68776 0.02717 0.71761 0.0
H141 H 0.84107 0.93893 0.7908 0.0
H142 H 0.80508 -0.00944 0.74359 0.0
C143 C 0.66731 0.05694 0.74575 0.0
C144 C 0.72461 0.01611 0.6322 0.0
H145 H 0.75243 0.89259 0.63002 0.0
C146 C 0.74764 0.04746 0.62707 0.0
C147 C 0.72638 0.95965 0.62748 0.0
C148 C 0.70234 0.92378 0.62544 0.0
C149 C 0.77244 0.02371 0.62528 0.0
C150 C 0.77426 0.96728 0.63053 0.0
C151 C 0.75119 0.93592 0.62759 0.0
C152 C 0.79911 0.94072 0.65077 0.0
C153 C 0.79645 0.05955 0.62088 0.0
C154 C 0.80802 0.89527 0.6144 0.0
C155 C 0.82868 0.86503 0.64195 0.0
C156 C 0.84047 0.8794 0.70686 0.0
C157 C 0.83241 0.92655 0.74084 0.0
C158 C 0.81193 0.95661 0.71336 0.0
H159 H 0.79246 0.09561 0.58818 0.0
H160 H 0.80176 0.07361 0.67492 0.0
H161 H 0.81343 0.03829 0.59781 0.0
H162 H 0.7983 0.88196 0.5663 0.0
H163 H 0.83431 0.82879 0.61464 0.0
H164 H 0.83023 0.6395 0.93109 0.0
H165 H 0.79542 0.57117 0.93199 0.0
H166 H 0.79653 0.56692 0.70314 0.0
H167 H 0.83193 0.63378 0.7018 0.0
H168 H 0.74726 0.57962 0.87896 0.0
H169 H 0.79663 0.40996 0.74745 0.0
H170 H 0.81443 0.46824 0.77896 0.0
H171 H 0.79763 0.46993 0.69497 0.0
C172 C 0.82334 0.62342 0.88097 0.0
C173 C 0.8339 0.64194 0.81638 0.0
C174 C 0.80342 0.58444 0.88158 0.0
C175 C 0.79358 0.56345 0.81769 0.0
C176 C 0.80428 0.58145 0.75315 0.0
H177 H 0.66084 0.35863 0.70956 0.0
H178 H 0.6959 0.42654 0.70981 0.0
C179 C 0.82445 0.61989 0.75249 0.0
C180 C 0.77104 0.52533 0.81858 0.0
H181 H 0.75015 0.40249 0.76003 0.0
C182 C 0.74797 0.54073 0.8534 0.0
C183 C 0.77199 0.47463 0.78507 0.0
C184 C 0.79659 0.45446 0.75013 0.0
C185 C 0.72572 0.50707 0.85483 0.0
C186 C 0.72662 0.45685 0.8206 0.0
C187 C 0.74958 0.44136 0.78572 0.0
C188 C 0.70413 0.41902 0.82188 0.0
C189 C 0.70128 0.52557 0.89209 0.0
C190 C 0.69712 0.39288 0.88506 0.0
C191 C 0.67721 0.3539 0.88519 0.0
C192 C 0.66394 0.34046 0.82202 0.0
C193 C 0.67057 0.36804 0.75919 0.0
C194 C 0.69063 0.40673 0.75908 0.0
H195 H 0.70215 0.5691 0.90442 0.0
H196 H 0.68366 0.51713 0.85909 0.0
H197 H 0.69895 0.50322 0.9427 0.0
H198 H 0.70754 0.40162 0.93388 0.0
H199 H 0.6726 0.33357 0.93454 0.0
H200 H 0.03943 0.10657 0.25076 0.0
H201 H 0.01335 0.0413 0.18269 0.0
H202 H 0.05424 0.08827 0.99163 0.0
H203 H 0.08059 0.15282 0.05921 0.0
H204 H 0.98022 0.06402 0.06874 0.0
H205 H 0.05873 0.92504 0.98741 0.0
H206 H 0.06309 0.97343 0.05777 0.0
H207 H 0.06564 -0.00598 0.96653 0.0
C208 C 0.04305 0.1025 0.1944 0.0
C209 C 0.06207 0.13464 0.16029 0.0
C210 C 0.02813 0.06533 0.15564 0.0
C211 C 0.03212 0.05956 0.08237 0.0
C212 C 0.05124 0.09134 0.04838 0.0
H213 H 0.95835 0.87617 0.74506 0.0
H214 H 0.98434 0.94005 0.81554 0.0
C215 C 0.06617 0.12839 0.08703 0.0
C216 C 0.01542 0.02229 0.04066 0.0
H217 H 0.01745 0.91425 0.92999 0.0
C218 C 0.9883 0.03101 0.03878 0.0
C219 C 0.02609 0.97952 0.00143 0.0
C220 C 0.05495 0.96701 0.00374 0.0
C221 C 0.97157 -0.00138 -0.0025 0.0
C222 C 0.98227 0.95601 0.95804 0.0
C223 C 0.00937 0.94718 0.9601 0.0
C224 C 0.96565 0.91941 0.91517 0.0
C225 C 0.9427 0.01101 -0.00481 0.0
C226 C 0.9466 0.88677 0.94801 0.0
C227 C 0.93173 0.85042 0.90798 0.0
C228 C 0.93581 0.84586 0.83449 0.0
C229 C 0.95475 0.87892 0.80158 0.0
C230 C 0.96962 0.9153 0.84171 0.0
H231 H 0.93879 0.05256 0.0131 0.0
H232 H 0.93475 0.00575 0.94075 0.0
H233 H 0.93195 0.98303 0.031 0.0
H234 H 0.94359 0.88865 0.00485 0.0
H235 H 0.91736 0.82528 0.93486 0.0
H236 H 0.58358 0.14905 0.93595 0.0
H237 H 0.55722 0.08545 0.00559 0.0
H238 H 0.51073 0.0482 0.82038 0.0
H239 H 0.53736 0.11091 0.75002 0.0
H240 H 0.50416 0.08977 0.03082 0.0
H241 H 0.52895 0.90025 0.89407 0.0
H242 H 0.54772 0.96144 0.88178 0.0
H243 H 0.51722 0.9513 0.83545 0.0
C244 C 0.56793 0.12685 0.90987 0.0
C245 C 0.56254 0.13479 0.83753 0.0
C246 C 0.55288 0.09064 0.94974 0.0
C247 C 0.53224 0.06172 0.91795 0.0
C248 C 0.52694 0.06929 0.84557 0.0
H249 H 0.41322 0.83834 0.06381 0.0
H250 H 0.43989 0.90347 -0.00223 0.0
C251 C 0.54208 0.10529 0.80554 0.0
C252 C 0.51548 0.02559 0.96134 0.0
H253 H 0.49339 0.89635 0.97561 0.0
C254 C 0.5019 0.04739 0.0191 0.0
C255 C 0.5126 0.9704 0.94576 0.0
C256 C 0.52758 0.94428 0.88631 0.0
C257 C 0.48502 0.01565 0.06089 0.0
C258 C 0.48198 0.96056 0.04492 0.0
C259 C 0.49569 0.93871 0.98744 0.0
C260 C 0.46468 0.92459 0.08692 0.0
C261 C 0.47013 0.04158 0.12064 0.0
C262 C 0.46966 0.91534 0.15912 0.0
C263 C 0.45433 0.87838 0.19715 0.0
C264 C 0.43401 0.8497 0.16324 0.0
C265 C 0.42877 0.85981 0.09132 0.0
C266 C 0.444 0.89691 0.05349 0.0
H267 H 0.46936 0.08581 0.11426 0.0
H268 H 0.44977 0.02538 0.12395 0.0
H269 H 0.48012 0.033 0.17161 0.0
H270 H 0.48586 0.93554 0.18553 0.0
H271 H 0.45891 0.87109 0.25241 0.0
H272 H 0.94454 0.60039 0.72432 0.0
H273 H 0.97193 0.53677 0.66122 0.0
H274 H 0.94924 0.60671 0.46154 0.0
H275 H 0.92156 0.67103 0.52472 0.0
H276 H 0.95804 0.46097 0.55189 0.0
H277 H 0.03131 0.61464 0.46418 0.0
H278 H 0.008 0.62685 0.53427 0.0
H279 H 0.99759 0.62796 0.44332 0.0
C280 C 0.94523 0.60219 0.66692 0.0
C281 C 0.93102 0.64097 0.62944 0.0
C282 C 0.96088 0.56571 0.63099 0.0
C283 C 0.96288 0.56753 0.55691 0.0
C284 C 0.94819 0.60519 0.51891 0.0
H285 H 0.0524 0.38255 0.25729 0.0
H286 H 0.02437 0.44689 0.31727 0.0
C287 C 0.93228 0.64161 0.55494 0.0
C288 C 0.98077 0.53032 0.52026 0.0
H289 H 0.03797 0.52565 0.42621 0.0
C290 C 0.97552 0.47503 0.52436 0.0
C291 C 0.00361 0.54891 0.48489 0.0
C292 C 0.01071 0.60777 0.4816 0.0
C293 C 0.99237 0.43777 0.49314 0.0
C294 C 0.01525 0.45635 0.45797 0.0
C295 C 0.02045 0.51163 0.45359 0.0
C296 C 0.03347 0.41897 0.42294 0.0
C297 C 0.98537 0.37887 0.49677 0.0
C298 C 0.04836 0.38276 0.46275 0.0
C299 C 0.06463 0.34604 0.42858 0.0
C300 C 0.06606 0.34488 0.35412 0.0
C301 C 0.05161 0.38221 0.31473 0.0
C302 C 0.0356 0.41907 0.34885 0.0
H303 H 0.96476 0.37193 0.51401 0.0
H304 H 0.98821 0.3596 0.44427 0.0
H305 H 0.99848 0.35894 0.53535 0.0
H306 H 0.04718 0.38257 0.52014 0.0
H307 H 0.07551 0.31775 0.46026 0.0
H308 H 0.45178 0.60743 0.25429 0.0
H309 H 0.47905 0.54166 0.31368 0.0
H310 H 0.44663 0.58753 0.51577 0.0
H311 H 0.41872 0.65312 0.4562 0.0
H312 H 0.51701 0.56 0.41287 0.0
H313 H 0.43951 0.42505 0.52196 0.0
H314 H 0.43285 0.47493 0.45516 0.0
H315 H 0.43598 0.49402 0.54681 0.0
C316 C 0.45022 0.60331 0.31136 0.0
C317 C 0.43303 0.63546 0.3506 0.0
C318 C 0.46589 0.56568 0.34521 0.0
C319 C 0.46473 0.55925 0.41904 0.0
C320 C 0.44747 0.59105 0.45853 0.0
H321 H 0.54824 0.37261 0.7266 0.0
H322 H 0.52117 0.43565 0.66172 0.0
C323 C 0.43162 0.62867 0.42453 0.0
C324 C 0.48239 0.52068 0.4544 0.0
H325 H 0.48306 0.41011 0.56119 0.0
C326 C 0.5096 0.52703 0.44503 0.0
C327 C 0.47267 0.47756 0.49599 0.0
C328 C 0.44366 0.46702 0.50516 0.0
C329 C 0.52738 0.49225 0.47759 0.0
C330 C 0.51767 0.44958 0.5199 0.0
C331 C 0.49046 0.44292 0.52874 0.0
C332 C 0.53531 0.41262 0.5581 0.0
C333 C 0.55642 0.50234 0.46804 0.0
C334 C 0.55245 0.37881 0.52134 0.0
C335 C 0.56817 0.34263 0.5585 0.0
C336 C 0.56677 0.33949 0.63289 0.0
C337 C 0.54979 0.37388 0.6693 0.0
C338 C 0.53423 0.40994 0.63231 0.0
H339 H 0.56068 0.54327 0.4474 0.0
H340 H 0.56702 0.49709 0.51899 0.0
H341 H 0.56423 0.47302 0.42946 0.0
H342 H 0.55328 0.37962 0.46393 0.0
H343 H 0.58093 0.3164 0.529 0.0
loop_
_geom_bond_atom_site_label_1
_geom_bond_atom_site_label_2
_geom_bond_distance
_geom_bond_site_symmetry_2
_ccdc_geom_bond_type
Co0 O1 2.216 . S
Co0 O2 2.091 . S
Co0 O4 2.004 . S
Co0 O10 2.021 . S
Co0 O12 2.137 . S
Co0 O13 2.244 . S
O1 Co0 2.216 . S
O1 C8 1.247 . S
O2 Co0 2.091 . S
O2 C8 1.261 . S
C3 O12 1.247 . S
C3 O13 1.272 . S
O4 Co0 2.004 . S
O4 C9 1.259 . S
Co5 O6 2.061 . S
Co5 O11 2.052 . S
Co5 O13 2.135 . S
O6 Co5 2.061 . S
O6 C9 1.235 . S
C7 O10 1.238 . S
C7 O11 1.241 . S
C8 O1 1.247 . S
C8 O2 1.261 . S
C9 O4 1.259 . S
C9 O6 1.235 . S
O10 Co0 2.021 . S
O10 C7 1.238 . S
O11 Co5 2.052 . S
O11 C7 1.241 . S
O12 Co0 2.137 . S
O12 C3 1.247 . S
O13 Co0 2.244 . S
O13 C3 1.272 . S
O13 Co5 2.135 . S
Co14 O15 2.216 . S
Co14 O16 2.091 . S
Co14 O18 2.004 . S
Co14 O24 2.021 . S
Co14 O26 2.137 . S
Co14 O27 2.244 . S
O15 Co14 2.216 . S
O15 C22 1.247 . S
O16 Co14 2.091 . S
O16 C22 1.261 . S
C17 O26 1.247 . S
C17 O27 1.272 . S
O18 Co14 2.004 . S
O18 C23 1.259 . S
Co19 O20 2.061 . S
Co19 O25 2.052 . S
Co19 O27 2.135 . S
O20 Co19 2.061 . S
O20 C23 1.235 . S
C21 O24 1.238 . S
C21 O25 1.241 . S
C22 O15 1.247 . S
C22 O16 1.261 . S
C23 O18 1.259 . S
C23 O20 1.235 . S
O24 Co14 2.021 . S
O24 C21 1.238 . S
O25 Co19 2.052 . S
O25 C21 1.241 . S
O26 Co14 2.137 . S
O26 C17 1.247 . S
O27 Co14 2.244 . S
O27 C17 1.272 . S
O27 Co19 2.135 . S
Co28 O29 2.216 . S
Co28 O30 2.091 . S
Co28 O32 2.004 . S
Co28 O38 2.021 . S
Co28 O40 2.137 . S
Co28 O41 2.244 . S
O29 Co28 2.216 . S
O29 C36 1.247 . S
O30 Co28 2.091 . S
O30 C36 1.261 . S
C31 O40 1.247 . S
C31 O41 1.272 . S
O32 Co28 2.004 . S
O32 C37 1.259 . S
Co33 O34 2.061 . S
Co33 O39 2.052 . S
Co33 O41 2.135 . S
O34 Co33 2.061 . S
O34 C37 1.235 . S
C35 O38 1.238 . S
C35 O39 1.241 . S
C36 O29 1.247 . S
C36 O30 1.261 . S
C37 O32 1.259 . S
C37 O34 1.235 . S
O38 Co28 2.021 . S
O38 C35 1.238 . S
O39 Co33 2.052 . S
O39 C35 1.241 . S
O40 Co28 2.137 . S
O40 C31 1.247 . S
O41 Co28 2.244 . S
O41 C31 1.272 . S
O41 Co33 2.135 . S
Co42 O43 2.216 . S
Co42 O44 2.091 . S
Co42 O46 2.004 . S
Co42 O52 2.021 . S
Co42 O54 2.137 . S
Co42 O55 2.244 . S
O43 Co42 2.216 . S
O43 C50 1.247 . S
O44 Co42 2.091 . S
O44 C50 1.261 . S
C45 O54 1.247 . S
C45 O55 1.272 . S
O46 Co42 2.004 . S
O46 C51 1.259 . S
Co47 O48 2.061 . S
Co47 O53 2.052 . S
Co47 O55 2.135 . S
O48 Co47 2.061 . S
O48 C51 1.235 . S
C49 O52 1.238 . S
C49 O53 1.241 . S
C50 O43 1.247 . S
C50 O44 1.261 . S
C51 O46 1.259 . S
C51 O48 1.235 . S
O52 Co42 2.021 . S
O52 C49 1.238 . S
O53 Co47 2.052 . S
O53 C49 1.241 . S
O54 Co42 2.137 . S
O54 C45 1.247 . S
O55 Co42 2.244 . S
O55 C45 1.272 . S
O55 Co47 2.135 . S
H56 C64 0.929 . S
H57 C66 0.930 . S
H58 C68 0.930 . S
H59 C71 0.929 . S
H60 C74 0.930 . S
H61 C76 0.960 . S
H62 C76 0.960 . S
H63 C76 0.960 . S
C64 H56 0.929 . S
C64 C65 1.377 . S
C64 C66 1.384 . S
C65 C64 1.377 . S
C65 C71 1.390 . S
C66 H57 0.930 . S
C66 C64 1.384 . S
C66 C67 1.372 . S
C67 C66 1.372 . S
C67 C68 1.400 . S
C67 C72 1.490 . S
C68 H58 0.930 . S
C68 C67 1.400 . S
C68 C71 1.386 . S
H69 C85 0.930 . S
H70 C86 0.931 . S
C71 H59 0.929 . S
C71 C65 1.390 . S
C71 C68 1.386 . S
C72 C67 1.490 . S
C72 C74 1.395 . S
C72 C75 1.403 1_565 S
H73 C79 0.930 . S
C74 H60 0.930 . S
C74 C72 1.395 . S
C74 C77 1.403 . S
C75 C72 1.403 1_545 S
C75 C76 1.524 . S
C75 C79 1.400 . S
C76 H61 0.960 . S
C76 H62 0.960 . S
C76 H63 0.960 . S
C76 C75 1.524 . S
C77 C74 1.403 . S
C77 C78 1.392 1_565 S
C77 C81 1.495 . S
C78 C77 1.392 1_545 S
C78 C79 1.385 . S
C78 C80 1.478 . S
C79 H73 0.930 . S
C79 C75 1.400 . S
C79 C78 1.385 . S
C80 C78 1.478 . S
C80 C82 1.381 . S
C80 C86 1.383 . S
C81 C77 1.495 . S
C81 H87 0.959 . S
C81 H88 0.961 . S
C81 H89 0.960 . S
C82 C80 1.381 . S
C82 C83 1.394 . S
C82 H90 0.930 . S
C83 C82 1.394 . S
C83 C84 1.383 . S
C83 H91 0.929 . S
C84 C83 1.383 . S
C84 C85 1.377 . S
C85 H69 0.930 . S
C85 C84 1.377 . S
C85 C86 1.379 . S
C86 H70 0.931 . S
C86 C80 1.383 . S
C86 C85 1.379 . S
H87 C81 0.959 . S
H88 C81 0.961 . S
H89 C81 0.960 . S
H90 C82 0.930 . S
H91 C83 0.929 . S
H92 C100 0.929 . S
H93 C102 0.930 . S
H94 C104 0.930 . S
H95 C107 0.929 . S
H96 C110 0.930 . S
H97 C112 0.960 . S
H98 C112 0.960 . S
H99 C112 0.960 . S
C100 H92 0.929 . S
C100 C101 1.377 . S
C100 C102 1.384 . S
C101 C100 1.377 . S
C101 C107 1.390 . S
C102 H93 0.930 . S
C102 C100 1.384 . S
C102 C103 1.372 . S
C103 C102 1.372 . S
C103 C104 1.400 . S
C103 C108 1.490 . S
C104 H94 0.930 . S
C104 C103 1.400 . S
C104 C107 1.386 . S
H105 C121 0.930 . S
H106 C122 0.931 . S
C107 H95 0.929 . S
C107 C101 1.390 . S
C107 C104 1.386 . S
C108 C103 1.490 . S
C108 C110 1.395 . S
C108 C111 1.403 . S
H109 C115 0.930 . S
C110 H96 0.930 . S
C110 C108 1.395 . S
C110 C113 1.403 . S
C111 C108 1.403 . S
C111 C112 1.524 . S
C111 C115 1.400 . S
C112 H97 0.960 . S
C112 H98 0.960 . S
C112 H99 0.960 . S
C112 C111 1.524 . S
C113 C110 1.403 . S
C113 C114 1.392 . S
C113 C117 1.495 . S
C114 C113 1.392 . S
C114 C115 1.385 . S
C114 C116 1.478 . S
C115 H109 0.930 . S
C115 C111 1.400 . S
C115 C114 1.385 . S
C116 C114 1.478 . S
C116 C118 1.381 . S
C116 C122 1.383 . S
C117 C113 1.495 . S
C117 H123 0.959 . S
C117 H124 0.961 . S
C117 H125 0.960 . S
C118 C116 1.381 . S
C118 C119 1.394 . S
C118 H126 0.930 . S
C119 C118 1.394 . S
C119 C120 1.383 . S
C119 H127 0.929 . S
C120 C119 1.383 . S
C120 C121 1.377 . S
C121 H105 0.930 . S
C121 C120 1.377 . S
C121 C122 1.379 . S
C122 H106 0.931 . S
C122 C116 1.383 . S
C122 C121 1.379 . S
H123 C117 0.959 . S
H124 C117 0.961 . S
H125 C117 0.960 . S
H126 C118 0.930 . S
H127 C119 0.929 . S
H128 C136 0.929 . S
H129 C138 0.930 . S
H130 C140 0.930 . S
H131 C143 0.929 . S
H132 C146 0.930 . S
H133 C148 0.960 . S
H134 C148 0.960 . S
H135 C148 0.960 . S
C136 H128 0.929 . S
C136 C137 1.377 . S
C136 C138 1.384 . S
C137 C136 1.377 . S
C137 C143 1.390 . S
C138 H129 0.930 . S
C138 C136 1.384 . S
C138 C139 1.372 . S
C139 C138 1.372 . S
C139 C140 1.400 . S
C139 C144 1.490 . S
C140 H130 0.930 . S
C140 C139 1.400 . S
C140 C143 1.386 . S
H141 C157 0.930 . S
H142 C158 0.931 . S
C143 H131 0.929 . S
C143 C137 1.390 . S
C143 C140 1.386 . S
C144 C139 1.490 . S
C144 C146 1.395 . S
C144 C147 1.403 1_545 S
H145 C151 0.930 . S
C146 H132 0.930 . S
C146 C144 1.395 . S
C146 C149 1.403 . S
C147 C144 1.403 1_565 S
C147 C148 1.524 . S
C147 C151 1.400 . S
C148 H133 0.960 . S
C148 H134 0.960 . S
C148 H135 0.960 . S
C148 C147 1.524 . S
C149 C146 1.403 . S
C149 C150 1.392 1_545 S
C149 C153 1.495 . S
C150 C149 1.392 1_565 S
C150 C151 1.385 . S
C150 C152 1.478 . S
C151 H145 0.930 . S
C151 C147 1.400 . S
C151 C150 1.385 . S
C152 C150 1.478 . S
C152 C154 1.381 . S
C152 C158 1.383 . S
C153 C149 1.495 . S
C153 H159 0.959 . S
C153 H160 0.961 . S
C153 H161 0.960 . S
C154 C152 1.381 . S
C154 C155 1.394 . S
C154 H162 0.930 . S
C155 C154 1.394 . S
C155 C156 1.383 . S
C155 H163 0.929 . S
C156 C155 1.383 . S
C156 C157 1.377 . S
C157 H141 0.930 . S
C157 C156 1.377 . S
C157 C158 1.379 . S
C158 H142 0.931 . S
C158 C152 1.383 . S
C158 C157 1.379 . S
H159 C153 0.959 . S
H160 C153 0.961 . S
H161 C153 0.960 . S
H162 C154 0.930 . S
H163 C155 0.929 . S
H164 C172 0.929 . S
H165 C174 0.930 . S
H166 C176 0.930 . S
H167 C179 0.929 . S
H168 C182 0.930 . S
H169 C184 0.960 . S
H170 C184 0.960 . S
H171 C184 0.960 . S
C172 H164 0.929 . S
C172 C173 1.377 . S
C172 C174 1.384 . S
C173 C172 1.377 . S
C173 C179 1.390 . S
C174 H165 0.930 . S
C174 C172 1.384 . S
C174 C175 1.372 . S
C175 C174 1.372 . S
C175 C176 1.400 . S
C175 C180 1.490 . S
C176 H166 0.930 . S
C176 C175 1.400 . S
C176 C179 1.386 . S
H177 C193 0.930 . S
H178 C194 0.931 . S
C179 H167 0.929 . S
C179 C173 1.390 . S
C179 C176 1.386 . S
C180 C175 1.490 . S
C180 C182 1.395 . S
C180 C183 1.403 . S
H181 C187 0.930 . S
C182 H168 0.930 . S
C182 C180 1.395 . S
C182 C185 1.403 . S
C183 C180 1.403 . S
C183 C184 1.524 . S
C183 C187 1.400 . S
C184 H169 0.960 . S
C184 H170 0.960 . S
C184 H171 0.960 . S
C184 C183 1.524 . S
C185 C182 1.403 . S
C185 C186 1.392 . S
C185 C189 1.495 . S
C186 C185 1.392 . S
C186 C187 1.385 . S
C186 C188 1.478 . S
C187 H181 0.930 . S
C187 C183 1.400 . S
C187 C186 1.385 . S
C188 C186 1.478 . S
C188 C190 1.381 . S
C188 C194 1.383 . S
C189 C185 1.495 . S
C189 H195 0.959 . S
C189 H196 0.961 . S
C189 H197 0.960 . S
C190 C188 1.381 . S
C190 C191 1.394 . S
C190 H198 0.930 . S
C191 C190 1.394 . S
C191 C192 1.383 . S
C191 H199 0.929 . S
C192 C191 1.383 . S
C192 C193 1.377 . S
C193 H177 0.930 . S
C193 C192 1.377 . S
C193 C194 1.379 . S
C194 H178 0.931 . S
C194 C188 1.383 . S
C194 C193 1.379 . S
H195 C189 0.959 . S
H196 C189 0.961 . S
H197 C189 0.960 . S
H198 C190 0.930 . S
H199 C191 0.929 . S
H200 C208 0.929 . S
H201 C210 0.930 . S
H202 C212 0.930 1_556 S
H203 C215 0.929 . S
H204 C218 0.930 . S
H205 C220 0.960 . S
H206 C220 0.960 1_554 S
H207 C220 0.960 1_545 S
C208 H200 0.929 . S
C208 C209 1.377 . S
C208 C210 1.384 . S
C209 C208 1.377 . S
C209 C215 1.390 . S
C210 H201 0.930 . S
C210 C208 1.384 . S
C210 C211 1.372 . S
C211 C210 1.372 . S
C211 C212 1.400 . S
C211 C216 1.490 . S
C212 H202 0.930 1_554 S
C212 C211 1.400 . S
C212 C215 1.386 . S
H213 C229 0.930 . S
H214 C230 0.931 . S
C215 H203 0.929 . S
C215 C209 1.390 . S
C215 C212 1.386 . S
C216 C211 1.490 . S
C216 C218 1.395 1_455 S
C216 C219 1.403 1_544 S
H217 C223 0.930 . S
C218 H204 0.930 . S
C218 C216 1.395 1_655 S
C218 C221 1.403 . S
C219 C216 1.403 1_566 S
C219 C220 1.524 . S
C219 C223 1.400 . S
C220 H205 0.960 . S
C220 H206 0.960 1_556 S
C220 H207 0.960 1_565 S
C220 C219 1.524 . S
C221 C218 1.403 . S
C221 C222 1.392 1_544 S
C221 C225 1.495 . S
C222 C221 1.392 1_566 S
C222 C223 1.385 1_655 S
C222 C224 1.478 . S
C223 H217 0.930 . S
C223 C219 1.400 . S
C223 C222 1.385 1_455 S
C224 C222 1.478 . S
C224 C226 1.381 . S
C224 C230 1.383 . S
C225 C221 1.495 . S
C225 H231 0.959 . S
C225 H232 0.961 . S
C225 H233 0.960 1_545 S
C226 C224 1.381 . S
C226 C227 1.394 . S
C226 H234 0.930 1_556 S
C227 C226 1.394 . S
C227 C228 1.383 . S
C227 H235 0.929 . S
C228 C227 1.383 . S
C228 C229 1.377 . S
C229 H213 0.930 . S
C229 C228 1.377 . S
C229 C230 1.379 . S
C230 H214 0.931 . S
C230 C224 1.383 . S
C230 C229 1.379 . S
H231 C225 0.959 . S
H232 C225 0.961 . S
H233 C225 0.960 1_565 S
H234 C226 0.930 1_554 S
H235 C227 0.929 . S
H236 C244 0.929 . S
H237 C246 0.930 . S
H238 C248 0.930 . S
H239 C251 0.929 . S
H240 C254 0.930 . S
H241 C256 0.973 . S
H242 C256 0.965 . S
H243 C256 0.943 1_545 S
C244 H236 0.929 . S
C244 C245 1.377 . S
C244 C246 1.384 . S
C245 C244 1.377 . S
C245 C251 1.390 . S
C246 H237 0.930 . S
C246 C244 1.384 . S
C246 C247 1.372 . S
C247 C246 1.372 . S
C247 C248 1.400 . S
C247 C252 1.490 . S
C248 H238 0.930 . S
C248 C247 1.400 . S
C248 C251 1.386 . S
H249 C265 0.930 . S
H250 C266 0.931 . S
C251 H239 0.929 . S
C251 C245 1.390 . S
C251 C248 1.386 . S
C252 C247 1.490 . S
C252 C254 1.395 1_556 S
C252 C255 1.403 . S
H253 C259 0.930 . S
C254 H240 0.930 . S
C254 C252 1.395 1_554 S
C254 C257 1.403 1_545 S
C255 C252 1.403 . S
C255 C256 1.523 1_545 S
C255 C259 1.400 1_545 S
C256 H241 0.973 . S
C256 H242 0.965 . S
C256 H243 0.943 1_565 S
C256 C255 1.523 1_565 S
C257 C254 1.403 1_565 S
C257 C258 1.392 . S
C257 C261 1.495 . S
C258 C257 1.392 . S
C258 C259 1.385 1_554 S
C258 C260 1.478 . S
C259 H253 0.930 . S
C259 C255 1.400 1_565 S
C259 C258 1.385 1_556 S
C260 C258 1.478 . S
C260 C262 1.381 . S
C260 C266 1.383 . S
C261 C257 1.495 . S
C261 H267 0.959 1_565 S
C261 H268 0.961 1_565 S
C261 H269 0.960 . S
C262 C260 1.381 . S
C262 C263 1.394 . S
C262 H270 0.930 . S
C263 C262 1.394 . S
C263 C264 1.383 . S
C263 H271 0.929 . S
C264 C263 1.383 . S
C264 C265 1.377 . S
C265 H249 0.930 . S
C265 C264 1.377 . S
C265 C266 1.379 . S
C266 H250 0.931 . S
C266 C260 1.383 . S
C266 C265 1.379 . S
H267 C261 0.959 1_545 S
H268 C261 0.961 1_545 S
H269 C261 0.960 . S
H270 C262 0.930 . S
H271 C263 0.929 . S
H272 C280 0.929 . S
H273 C282 0.930 . S
H274 C284 0.930 . S
H275 C287 0.929 . S
H276 C290 0.930 . S
H277 C292 0.960 . S
H278 C292 0.960 . S
H279 C292 0.960 . S
C280 H272 0.929 . S
C280 C281 1.377 . S
C280 C282 1.384 . S
C281 C280 1.377 . S
C281 C287 1.390 . S
C282 H273 0.930 . S
C282 C280 1.384 . S
C282 C283 1.372 . S
C283 C282 1.372 . S
C283 C284 1.400 . S
C283 C288 1.490 . S
C284 H274 0.930 . S
C284 C283 1.400 . S
C284 C287 1.386 . S
H285 C301 0.930 . S
H286 C302 0.931 . S
C287 H275 0.929 . S
C287 C281 1.390 . S
C287 C284 1.386 . S
C288 C283 1.490 . S
C288 C290 1.395 . S
C288 C291 1.403 1_655 S
H289 C295 0.930 . S
C290 H276 0.930 . S
C290 C288 1.395 . S
C290 C293 1.403 . S
C291 C288 1.403 1_455 S
C291 C292 1.524 . S
C291 C295 1.400 . S
C292 H277 0.960 . S
C292 H278 0.960 . S
C292 H279 0.960 . S
C292 C291 1.524 . S
C293 C290 1.403 . S
C293 C294 1.392 1_655 S
C293 C297 1.495 . S
C294 C293 1.392 1_455 S
C294 C295 1.385 . S
C294 C296 1.478 . S
C295 H289 0.930 . S
C295 C291 1.400 . S
C295 C294 1.385 . S
C296 C294 1.478 . S
C296 C298 1.381 . S
C296 C302 1.383 . S
C297 C293 1.495 . S
C297 H303 0.959 . S
C297 H304 0.961 . S
C297 H305 0.960 . S
C298 C296 1.381 . S
C298 C299 1.394 . S
C298 H306 0.930 . S
C299 C298 1.394 . S
C299 C300 1.383 . S
C299 H307 0.929 . S
C300 C299 1.383 . S
C300 C301 1.377 . S
C301 H285 0.930 . S
C301 C300 1.377 . S
C301 C302 1.379 . S
C302 H286 0.931 . S
C302 C296 1.383 . S
C302 C301 1.379 . S
H303 C297 0.959 . S
H304 C297 0.961 . S
H305 C297 0.960 . S
H306 C298 0.930 . S
H307 C299 0.929 . S
H308 C316 0.929 . S
H309 C318 0.930 . S
H310 C320 0.930 . S
H311 C323 0.929 . S
H312 C326 0.930 . S
H313 C328 0.960 . S
H314 C328 0.960 . S
H315 C328 0.960 . S
C316 H308 0.929 . S
C316 C317 1.377 . S
C316 C318 1.384 . S
C317 C316 1.377 . S
C317 C323 1.390 . S
C318 H309 0.930 . S
C318 C316 1.384 . S
C318 C319 1.372 . S
C319 C318 1.372 . S
C319 C320 1.400 . S
C319 C324 1.490 . S
C320 H310 0.930 . S
C320 C319 1.400 . S
C320 C323 1.386 . S
H321 C337 0.930 . S
H322 C338 0.931 . S
C323 H311 0.929 . S
C323 C317 1.390 . S
C323 C320 1.386 . S
C324 C319 1.490 . S
C324 C326 1.395 . S
C324 C327 1.403 . S
H325 C331 0.930 . S
C326 H312 0.930 . S
C326 C324 1.395 . S
C326 C329 1.403 . S
C327 C324 1.403 . S
C327 C328 1.524 . S
C327 C331 1.400 . S
C328 H313 0.960 . S
C328 H314 0.960 . S
C328 H315 0.960 . S
C328 C327 1.524 . S
C329 C326 1.403 . S
C329 C330 1.392 . S
C329 C333 1.495 . S
C330 C329 1.392 . S
C330 C331 1.385 . S
C330 C332 1.478 . S
C331 H325 0.930 . S
C331 C327 1.400 . S
C331 C330 1.385 . S
C332 C330 1.478 . S
C332 C334 1.381 . S
C332 C338 1.383 . S
C333 C329 1.495 . S
C333 H339 0.959 . S
C333 H340 0.961 . S
C333 H341 0.960 . S
C334 C332 1.381 . S
C334 C335 1.394 . S
C334 H342 0.930 . S
C335 C334 1.394 . S
C335 C336 1.383 . S
C335 H343 0.929 . S
C336 C335 1.383 . S
C336 C337 1.377 . S
C337 H321 0.930 . S
C337 C336 1.377 . S
C337 C338 1.379 . S
C338 H322 0.931 . S
C338 C332 1.383 . S
C338 C337 1.379 . S
H339 C333 0.959 . S
H340 C333 0.961 . S
H341 C333 0.960 . S
H342 C334 0.930 . S
H343 C335 0.929 . S
C65 C23 0.914 . S
C84 C9 0.955 . S
C101 C7 0.798 . S
C120 C21 0.776 . S
C137 C51 0.930 . S
C156 C37 0.948 . S
C173 C35 0.804 . S
C192 C49 0.814 . S
C209 C3 1.503 . S
C228 C31 1.506 . S
C245 C45 1.504 . S
C264 C17 1.485 . S
C281 C36 1.520 . S
C300 C8 1.520 . S
C317 C22 1.521 . S
C336 C50 1.519 . S
