# Generated by pormake.
# Topology uni, (4)-cn, num edge types: 1
# Building blocks:
#     Node 0, Type 0, BuildingBlock: ICAMEG_clean_sbu_1, # of connection points: 4
#     Node 1, Type 0, BuildingBlock: ICAMEG_clean_sbu_1, # of connection points: 4
#     Node 2, Type 0, BuildingBlock: ICAMEG_clean_sbu_1, # of connection points: 4
#     Node 3, Type 0, BuildingBlock: ICAMEG_clean_sbu_1, # of connection points: 4
#     Node 4, Type 0, BuildingBlock: ICAMEG_clean_sbu_1, # of connection points: 4
#     Node 5, Type 0, BuildingBlock: ICAMEG_clean_sbu_1, # of connection points: 4
#     Edge 6, Type (0, 0), BuildingBlock: CIFDUS_clean_linker_0, # of connection points: 2
#     Edge 7, Type (0, 0), BuildingBlock: CIFDUS_clean_linker_0, # of connection points: 2
#     Edge 8, Type (0, 0), BuildingBlock: CIFDUS_clean_linker_0, # of connection points: 2
#     Edge 9, Type (0, 0), BuildingBlock: CIFDUS_clean_linker_0, # of connection points: 2
#     Edge 10, Type (0, 0), BuildingBlock: CIFDUS_clean_linker_0, # of connection points: 2
#     Edge 11, Type (0, 0), BuildingBlock: CIFDUS_clean_linker_0, # of connection points: 2
#     Edge 12, Type (0, 0), BuildingBlock: CIFDUS_clean_linker_0, # of connection points: 2
#     Edge 13, Type (0, 0), BuildingBlock: CIFDUS_clean_linker_0, # of connection points: 2
#     Edge 14, Type (0, 0), BuildingBlock: CIFDUS_clean_linker_0, # of connection points: 2
#     Edge 15, Type (0, 0), BuildingBlock: CIFDUS_clean_linker_0, # of connection points: 2
#     Edge 16, Type (0, 0), BuildingBlock: CIFDUS_clean_linker_0, # of connection points: 2
#     Edge 17, Type (0, 0), BuildingBlock: CIFDUS_clean_linker_0, # of connection points: 2
# Relax obj value: 0.140
# Max RMSD: 0.183
# Mean RMSD: 0.183
data_MOF--net-uni--node1-ICAMEG_clean_sbu_1--edge1-CIFDUS_clean_linker_0
_symmetry_space_group_name_H-M    P1
_symmetry_Int_Tables_number       1
_symmetry_cell_setting            triclinic
loop_
_symmetry_equiv_pos_as_xyz
'x, y, z'
_cell_length_a     35.635345
_cell_length_b     35.592492
_cell_length_c     21.51385
_cell_angle_alpha  90.073275
_cell_angle_beta   90.041971
_cell_angle_gamma 119.95266
loop_
_atom_site_label
_atom_site_type_symbol
_atom_site_fract_x
_atom_site_fract_y
_atom_site_fract_z
_atom_type_partial_charge
Co0 Co 0.64863 0.02653 0.06246 0.0
Co1 Co 0.73811 0.1061 0.13943 0.0
O2 O 0.70112 0.0844 0.06477 0.0
C3 C 0.628 0.08451 0.9826 0.0
O4 O 0.66485 0.11884 0.99766 0.0
C5 C 0.80142 0.13576 0.03245 0.0
O6 O 0.77356 0.1043 0.99669 0.0
O7 O 0.74568 0.05436 0.13849 0.0
O8 O 0.67819 1.00197 0.11463 0.0
H9 H 0.78775 0.09086 0.3518 0.0
H10 H 0.69191 0.07296 0.9443 0.0
O11 O 0.61664 0.04789 1.00783 0.0
H12 H 0.68135 0.92999 0.92908 0.0
H13 H 0.51686 0.90108 0.96471 0.0
H14 H 0.60211 0.95847 0.15721 0.0
H15 H 0.65372 0.94929 0.02122 0.0
H16 H 0.58331 0.97267 0.9655 0.0
O17 O 0.79181 0.13917 0.08825 0.0
H18 H 0.74169 0.06579 0.25814 0.0
H19 H 0.81356 0.19119 0.17813 0.0
H20 H 0.5361 0.88651 0.15825 0.0
H21 H 0.71873 0.0546 0.85075 0.0
H22 H 0.49295 0.85737 0.0615 0.0
H23 H 0.71385 0.9827 0.84256 0.0
O24 O 0.62586 0.04045 0.13917 0.0
H25 H 0.73562 0.23314 0.04198 0.0
H26 H 0.7158 0.15222 0.23623 0.0
H27 H 0.70513 0.21545 0.23653 0.0
H28 H 0.71521 0.25656 0.13885 0.0
H29 H 0.74519 0.16922 0.04372 0.0
H30 H 0.8606 0.21745 0.27067 0.0
H31 H 0.84772 0.16719 0.3585 0.0
O32 O 0.68676 0.07525 0.19524 0.0
C33 C 0.71656 0.01447 0.13424 0.0
C34 C 0.79361 0.1131 0.31392 0.0
C35 C 0.83452 0.18413 0.26836 0.0
N36 N 0.77468 0.12702 0.21283 0.0
C37 C 0.76756 0.09912 0.26081 0.0
C38 C 0.80782 0.16902 0.21599 0.0
C39 C 0.82727 0.15592 0.31762 0.0
C40 C 0.68862 0.0413 0.94106 0.0
N41 N 0.67056 0.01214 0.98845 0.0
C42 C 0.70436 0.03121 0.88793 0.0
C43 C 0.70175 0.99094 0.88343 0.0
C44 C 0.68359 0.96141 0.93196 0.0
C45 C 0.66819 0.97266 0.98433 0.0
C46 C 0.5354 0.91341 1.00715 0.0
C47 C 0.58367 0.94593 0.11482 0.0
C48 C 0.57299 0.95403 1.00797 0.0
N49 N 0.59674 0.96972 0.06133 0.0
C50 C 0.54624 0.9052 0.11574 0.0
C51 C 0.52202 0.88889 0.06146 0.0
C52 C 0.64561 0.05541 0.19075 0.0
C53 C 0.731 0.21544 0.08482 0.0
C54 C 0.71948 0.16937 0.1934 0.0
C55 C 0.71377 0.20544 0.19392 0.0
C56 C 0.71952 0.22854 0.13915 0.0
N57 N 0.73052 0.15653 0.13988 0.0
C58 C 0.73645 0.17921 0.08612 0.0
Co59 Co 0.66792 0.62627 0.19161 0.0
Co60 Co 0.67579 0.71061 0.27892 0.0
O61 O 0.66034 0.67664 0.20163 0.0
C62 C 0.58645 0.60431 0.11736 0.0
O63 O 0.58957 0.642 0.12849 0.0
C64 C 0.72484 0.80175 0.23128 0.0
O65 O 0.75651 0.8099 0.2701 0.0
O66 O 0.73631 0.72059 0.27385 0.0
O67 O 0.72228 0.65491 0.24176 0.0
H68 H 0.74501 0.75753 0.48941 0.0
H69 H 0.66254 0.67597 0.08253 0.0
O70 O 0.61364 0.59469 0.14011 0.0
H71 H 0.7955 0.66872 0.05021 0.0
H72 H 0.66421 0.50076 0.07715 0.0
H73 H 0.69288 0.57753 0.27779 0.0
H74 H 0.75007 0.63516 0.14224 0.0
H75 H 0.65677 0.56575 0.08745 0.0
O76 O 0.69237 0.76349 0.22705 0.0
H77 H 0.72425 0.71443 0.39272 0.0
H78 H 0.66087 0.78106 0.32755 0.0
H79 H 0.70116 0.51294 0.26933 0.0
H80 H 0.7065 0.70923 0.98953 0.0
H81 H 0.68677 0.47408 0.16844 0.0
H82 H 0.77367 0.70585 0.97265 0.0
O83 O 0.63304 0.60013 0.2678 0.0
H84 H 0.54153 0.70384 0.19183 0.0
H85 H 0.6089 0.68328 0.37897 0.0
H86 H 0.53376 0.66869 0.38412 0.0
H87 H 0.49957 0.67916 0.29005 0.0
H88 H 0.61632 0.71719 0.18861 0.0
H89 H 0.68098 0.82489 0.42349 0.0
H90 H 0.72334 0.81323 0.50527 0.0
O91 O 0.65762 0.65751 0.3318 0.0
C92 C 0.74792 0.69244 0.26392 0.0
C93 C 0.72655 0.76291 0.45413 0.0
C94 C 0.69061 0.80072 0.41714 0.0
N95 N 0.69141 0.74521 0.3545 0.0
C96 C 0.71471 0.73862 0.39928 0.0
C97 C 0.67933 0.7758 0.3629 0.0
C98 C 0.71438 0.79416 0.46299 0.0
C99 C 0.69098 0.67334 0.07535 0.0
N100 N 0.7027 0.65229 0.11739 0.0
C101 C 0.71612 0.69272 0.02262 0.0
C102 C 0.75385 0.69092 1.01324 0.0
C103 C 0.76609 0.67009 0.05671 0.0
C104 C 0.74014 0.65109 0.10885 0.0
C105 C 0.67065 0.51746 0.12133 0.0
C106 C 0.68684 0.56098 0.23361 0.0
C107 C 0.66635 0.5542 0.12751 0.0
N108 N 0.67471 0.57564 0.18308 0.0
C109 C 0.69145 0.52434 0.22915 0.0
C110 C 0.68333 0.50252 0.17256 0.0
C111 C 0.63677 0.6166 0.32176 0.0
C112 C 0.55599 0.69902 0.2331 0.0
C113 C 0.59406 0.68707 0.33761 0.0
C114 C 0.55158 0.67917 0.34092 0.0
C115 C 0.53246 0.68514 0.28818 0.0
N116 N 0.61691 0.70045 0.28335 0.0
C117 C 0.5984 0.70659 0.23158 0.0
Co118 Co 0.07888 0.66921 0.38755 0.0
Co119 Co 1.01059 0.69919 0.45251 0.0
O120 O 0.02689 0.67454 0.38323 0.0
C121 C 0.01608 0.59579 0.30247 0.0
O122 O 0.98565 0.60578 0.31097 0.0
C123 C 0.98312 0.75654 0.39035 0.0
O124 O 1.00924 0.7884 0.42729 0.0
O125 O 0.06747 0.75405 0.44536 0.0
O126 O 0.1097 0.72412 0.43762 0.0
H127 H 0.03736 0.78353 0.65098 0.0
H128 H 0.03976 0.67723 0.26758 0.0
O129 O 0.05109 0.61462 0.33437 0.0
H130 H 0.19479 0.78575 0.25443 0.0
H131 H 0.19083 0.63424 0.30686 0.0
H132 H 0.14043 0.68116 0.48875 0.0
H133 H 0.16568 0.73994 0.34716 0.0
H134 H 0.12701 0.64362 0.29882 0.0
O135 O 0.98331 0.72077 0.39101 0.0
H136 H 0.05626 0.75119 0.5637 0.0
H137 H 0.92984 0.70051 0.48827 0.0
H138 H 0.20476 0.67274 0.49853 0.0
H139 H 0.06763 0.72165 0.1738 0.0
H140 H 0.23035 0.64908 0.40717 0.0
H141 H 0.14576 0.77655 0.16643 0.0
O142 O 0.05672 0.63444 0.46635 0.0
H143 H 0.87363 0.57372 0.36787 0.0
H144 H 0.96013 0.63964 0.55693 0.0
H145 H 0.89139 0.57055 0.56478 0.0
H146 H 0.84744 0.53718 0.46981 0.0
H147 H 0.94299 0.6424 0.36202 0.0
H148 H 0.90959 0.73224 0.57482 0.0
H149 H 0.96356 0.77415 0.65696 0.0
O150 O 0.03642 0.67702 0.51517 0.0
C151 C 0.1046 0.75676 0.4473 0.0
C152 C 0.01358 0.76539 0.61543 0.0
C153 C 0.94186 0.73658 0.57273 0.0
N154 N 0.9943 0.72409 0.52072 0.0
C155 C 0.02411 0.74705 0.56581 0.0
C156 C 0.95353 0.71866 0.52383 0.0
C157 C 0.97216 0.7601 0.61878 0.0
C158 C 0.07387 0.69999 0.26477 0.0
N159 N 0.10112 0.70445 0.31257 0.0
C160 C 0.08947 0.72557 0.21145 0.0
C161 C 0.13326 0.75645 0.2074 0.0
C162 C 0.16076 0.76159 0.25671 0.0
C163 C 0.144 0.7354 0.30922 0.0
C164 C 0.18 0.64457 0.34701 0.0
C165 C 0.15145 0.67106 0.44867 0.0
C166 C 0.1437 0.64971 0.34285 0.0
N167 N 0.12997 0.66302 0.39327 0.0
C168 C 0.18787 0.66626 0.45454 0.0
C169 C 0.20218 0.65293 0.40328 0.0
C170 C 0.04682 0.64749 0.51599 0.0
C171 C 0.89249 0.5879 0.4096 0.0
C172 C 0.94162 0.6251 0.51525 0.0
C173 C 0.9025 0.58607 0.52005 0.0
C174 C 0.87783 0.5674 0.46678 0.0
N175 N 0.95584 0.64506 0.45899 0.0
C176 C 0.93178 0.62688 0.4066 0.0
Co177 Co 0.47595 0.07871 0.56315 0.0
Co178 Co 0.38102 1.0063 0.63421 0.0
O179 O 0.41974 0.02514 0.56221 0.0
C180 C 0.48682 0.01635 0.47796 0.0
O181 O 0.44724 0.98507 0.48896 0.0
C182 C 0.29552 0.98227 0.57701 0.0
O183 O 0.2922 0.00919 0.61542 0.0
O184 O 0.38155 0.06271 0.63359 0.0
O185 O 0.45219 0.10797 0.61661 0.0
H186 H 0.32952 0.02587 0.84259 0.0
H187 H 0.4271 0.03776 0.44508 0.0
O188 O 0.50253 0.05234 0.50728 0.0
H189 H 0.46266 0.19023 0.43593 0.0
H190 H 0.61707 0.19429 0.47207 0.0
H191 H 0.52757 0.14239 0.66131 0.0
H192 H 0.48481 0.16334 0.52595 0.0
H193 H 0.54522 0.12826 0.46915 0.0
O194 O 0.33028 0.98025 0.57563 0.0
H195 H 0.37832 0.04786 0.75201 0.0
H196 H 0.29968 0.92457 0.66833 0.0
H197 H 0.59905 0.20882 0.66609 0.0
H198 H 0.4051 0.06347 0.35397 0.0
H199 H 0.64436 0.23519 0.571 0.0
H200 H 0.4228 0.14028 0.3487 0.0
O201 O 0.49309 0.05851 0.63924 0.0
H202 H 0.36848 0.87286 0.53382 0.0
H203 H 0.39189 0.95208 0.73097 0.0
H204 H 0.39304 0.88346 0.73024 0.0
H205 H 0.38105 0.84317 0.63106 0.0
H206 H 0.36856 0.9421 0.53671 0.0
H207 H 0.25 0.90131 0.7579 0.0
H208 H 0.2648 0.95212 0.84589 0.0
O209 O 0.43131 0.03089 0.69402 0.0
C210 C 0.4146 0.10077 0.63209 0.0
C211 C 0.32273 1.00343 0.80454 0.0
C212 C 0.2781 0.93352 0.75703 0.0
N213 N 0.34192 0.98757 0.70493 0.0
C214 C 0.35026 0.0157 0.75315 0.0
C215 C 0.30635 0.9469 0.70642 0.0
C216 C 0.28642 0.96205 0.80637 0.0
C217 C 0.43599 0.07138 0.44304 0.0
N218 N 0.45869 0.09919 0.4904 0.0
C219 C 0.42296 0.08571 0.39131 0.0
C220 C 0.43277 0.12876 0.38844 0.0
C221 C 0.45515 0.15679 0.43732 0.0
C222 C 0.46768 0.14131 0.48824 0.0
C223 C 0.59763 0.18313 0.51383 0.0
C224 C 0.54698 0.15372 0.61965 0.0
C225 C 0.55697 0.14562 0.51255 0.0
N226 N 0.53211 0.13143 0.56504 0.0
C227 C 0.58748 0.19134 0.62267 0.0
C228 C 0.61291 0.20608 0.56933 0.0
C229 C 0.47216 0.04559 0.6904 0.0
C230 C 0.37398 0.8902 0.57729 0.0
C231 C 0.38771 0.93536 0.68754 0.0
C232 C 0.38789 0.89621 0.68745 0.0
C233 C 0.38105 0.87357 0.63184 0.0
N234 N 0.38104 0.95166 0.63383 0.0
C235 C 0.37405 0.92946 0.57923 0.0
Co236 Co 0.41516 0.45851 0.68909 0.0
Co237 Co 0.4196 0.37921 0.77735 0.0
O238 O 0.4275 0.41085 0.69908 0.0
C239 C 0.49907 0.48672 0.61855 0.0
O240 O 0.49892 0.45085 0.6327 0.0
C241 C 0.36505 0.28721 0.73792 0.0
O242 O 0.33583 0.28335 0.77852 0.0
O243 O 0.3592 0.3683 0.78539 0.0
O244 O 0.36074 0.4256 0.7386 0.0
H245 H 0.37443 0.3411 1.00021 0.0
H246 H 0.4269 0.413 0.57961 0.0
O247 O 0.46931 0.49376 0.63809 0.0
H248 H 0.28652 0.40531 0.54623 0.0
H249 H 0.40724 0.57765 0.57397 0.0
H250 H 0.38345 0.50193 0.77436 0.0
H251 H 0.33028 0.44158 0.63899 0.0
H252 H 0.42156 0.51696 0.58482 0.0
O253 O 0.39863 0.32414 0.72853 0.0
H254 H 0.38457 0.38044 0.90177 0.0
H255 H 0.43937 0.31062 0.81856 0.0
H256 H 0.36824 0.56215 0.76533 0.0
H257 H 0.38466 0.37719 0.48592 0.0
H258 H 0.38017 0.60046 0.66457 0.0
H259 H 0.31378 0.37304 0.46855 0.0
O260 O 0.44905 0.48778 0.76574 0.0
H261 H 0.54435 0.3804 0.66633 0.0
H262 H 0.49629 0.41479 0.86229 0.0
H263 H 0.57124 0.42926 0.85326 0.0
H264 H 0.5957 0.41181 0.75482 0.0
H265 H 0.46992 0.36734 0.67688 0.0
H266 H 0.42976 0.27046 0.91602 0.0
H267 H 0.39707 0.28561 1.00776 0.0
O268 O 0.44089 0.43332 0.8271 0.0
C269 C 0.34174 0.39078 0.77045 0.0
C270 C 0.38857 0.33409 0.9605 0.0
C271 C 0.41963 0.29446 0.91326 0.0
N272 N 0.41211 0.34757 0.85423 0.0
C273 C 0.39428 0.35619 0.90459 0.0
C274 C 0.42489 0.31724 0.85814 0.0
C275 C 0.4013 0.30298 0.96472 0.0
C276 C 0.39664 0.41219 0.5723 0.0
N277 N 0.38177 0.43039 0.61451 0.0
C278 C 0.37258 0.39146 0.51915 0.0
C279 C 0.33278 0.38905 0.50948 0.0
C280 C 0.31748 0.40714 0.55302 0.0
C281 C 0.34245 0.42762 0.60558 0.0
C282 C 0.40186 0.56116 0.61809 0.0
C283 C 0.38842 0.51825 0.73024 0.0
C284 C 0.41006 0.52687 0.62459 0.0
N285 N 0.40305 0.50571 0.68009 0.0
C286 C 0.37989 0.55241 0.72546 0.0
C287 C 0.38664 0.57393 0.66894 0.0
C288 C 0.45344 0.4732 0.81778 0.0
C289 C 0.53409 0.38814 0.70948 0.0
C290 C 0.50677 0.40772 0.81897 0.0
C291 C 0.54922 0.41569 0.81429 0.0
C292 C 0.5629 0.40582 0.7591 0.0
N293 N 0.47868 0.39042 0.77005 0.0
C294 C 0.49189 0.38063 0.71584 0.0
Co295 Co 0.02958 0.44009 0.88607 0.0
Co296 Co 0.10691 0.43028 0.97003 0.0
O297 O 0.08644 0.44447 0.89407 0.0
C298 C 0.05068 0.52505 0.82783 0.0
O299 O 0.02847 0.53085 0.87178 0.0
C300 C 0.12475 0.38293 0.87016 0.0
O301 O 0.08802 0.37323 0.84305 0.0
O302 O 0.05308 0.37268 0.97445 0.0
O303 O 1.00136 0.38548 0.93706 0.0
H304 H 0.09265 0.37678 0.18957 0.0
H305 H 0.08171 0.44685 0.77443 0.0
O306 O 0.05734 0.49308 0.83117 0.0
H307 H 0.94204 0.31221 0.74511 0.0
H308 H 0.90837 0.44398 0.76973 0.0
H309 H 0.9588 0.423 0.97337 0.0
H310 H 0.955 0.3579 0.83786 0.0
H311 H 0.97936 0.44838 0.7798 0.0
O312 O 0.13604 0.40453 0.92051 0.0
H313 H 0.06829 0.39601 0.0936 0.0
H314 H 0.18934 0.43374 1.00792 0.0
H315 H 0.88752 0.41826 0.96531 0.0
H316 H 0.06979 0.4028 0.68025 0.0
H317 H 0.8619 0.42884 0.86293 0.0
H318 H 0.99965 0.33474 0.66526 0.0
O319 O 0.04027 0.47637 0.96377 0.0
H320 H 0.23429 0.5514 0.86058 0.0
H321 H 0.15884 0.50117 0.06112 0.0
H322 H 0.22477 0.57293 0.05488 0.0
H323 H 0.26313 0.59843 0.95402 0.0
H324 H 0.16786 0.48007 0.86888 0.0
H325 H 0.21487 0.41459 0.10277 0.0
H326 H 0.16644 0.38601 0.19456 0.0
O327 O 0.07945 0.45619 0.02205 0.0
C328 C 0.01356 0.36116 0.96348 0.0
C329 C 0.11407 0.38922 0.1499 0.0
C330 C 0.18264 0.41039 0.10115 0.0
N331 N 0.1273 0.41598 0.04518 0.0
C332 C 0.10046 0.4002 0.09544 0.0
C333 C 0.16792 0.42102 0.04747 0.0
C334 C 0.15546 0.39439 0.15265 0.0
C335 C 0.0509 0.41755 0.76803 0.0
N336 N 0.01918 0.40479 0.81201 0.0
C337 C 0.04443 0.39261 0.71468 0.0
C338 C 1.00511 0.3544 0.70637 0.0
C339 C 0.97283 0.34169 0.7512 0.0
C340 C 0.98048 0.36745 0.80395 0.0
C341 C 0.91919 0.43937 0.81462 0.0
C342 C 0.94792 0.42771 0.92866 0.0
C343 C 0.95941 0.44189 0.82066 0.0
N344 N 0.9734 0.43622 0.87727 0.0
C345 C 0.9075 0.42494 0.92438 0.0
C346 C 0.89314 0.43087 0.86692 0.0
C347 C 0.05746 0.47527 1.01568 0.0
C348 C 0.21786 0.54068 0.90478 0.0
C349 C 0.17496 0.51222 0.01701 0.0
C350 C 0.21247 0.5528 1.01378 0.0
C351 C 0.234 0.56706 0.95721 0.0
N352 N 0.15931 0.4865 0.96543 0.0
C353 C 0.18024 0.50029 0.90979 0.0
H354 H 0.558 1.00287 0.21369 0.0
H355 H 0.67832 0.09494 0.30205 0.0
H356 H 0.64049 0.09037 0.39738 0.0
H357 H 0.57331 0.06224 0.45648 0.0
H358 H 0.45304 0.96578 0.37404 0.0
H359 H 0.49069 0.96936 0.27714 0.0
C360 C 0.57588 0.02199 0.25373 0.0
C361 C 0.62098 0.05031 0.24926 0.0
C362 C 0.55398 0.0181 0.31027 0.0
C363 C 0.64358 0.07387 0.3026 0.0
C364 C 0.62199 0.07104 0.35787 0.0
C365 C 0.55538 0.04161 0.41757 0.0
C366 C 0.51044 0.01388 0.42263 0.0
C367 C 0.57722 0.04357 0.3622 0.0
C368 C 0.48777 0.98721 0.37174 0.0
C369 C 0.50924 0.9895 0.31601 0.0
H370 H 0.62167 0.63757 0.43785 0.0
H371 H 0.60293 0.52855 0.32638 0.0
H372 H 0.56255 0.47923 0.4111 0.0
H373 H 0.52795 0.4664 0.51426 0.0
H374 H 0.53901 0.57467 0.61931 0.0
H375 H 0.58646 0.62492 0.5395 0.0
C376 C 0.60853 0.60306 0.43159 0.0
C377 C 0.61483 0.58696 0.37503 0.0
C378 C 0.58377 0.57466 0.47953 0.0
C379 C 0.59827 0.54201 0.36893 0.0
C380 C 0.57512 0.51369 0.41744 0.0
C381 C 0.54133 0.50107 0.51994 0.0
C382 C 0.53052 0.51698 0.5728 0.0
C383 C 0.56703 0.52956 0.47256 0.0
C384 C 0.54714 0.56181 0.57909 0.0
C385 C 0.57417 0.59048 0.53345 0.0
H386 H 0.03237 0.58855 0.79685 0.0
H387 H 0.08682 0.51381 0.72164 0.0
H388 H 0.09076 0.54448 0.61881 0.0
H389 H 0.07507 0.59014 0.54798 0.0
H390 H 0.02202 0.66552 0.62655 0.0
H391 H 0.02116 0.63694 0.72868 0.0
C392 C 0.04565 0.57932 0.75827 0.0
C393 C 0.05905 0.54867 0.76751 0.0
C394 C 0.04758 0.59685 0.69888 0.0
C395 C 0.07616 0.53728 0.71642 0.0
C396 C 0.07824 0.55468 0.65721 0.0
C397 C 0.0633 0.60027 0.5874 0.0
C398 C 0.04793 0.62951 0.57841 0.0
C399 C 0.06332 0.584 0.64747 0.0
C400 C 0.03349 0.64263 0.63084 0.0
C401 C 0.0331 0.62642 0.68993 0.0
H402 H 0.54201 0.03407 0.95696 0.0
H403 H 0.66126 0.13644 0.88081 0.0
H404 H 0.62464 0.13233 0.7827 0.0
H405 H 0.55879 0.09785 0.71691 0.0
H406 H 0.43817 1.00166 0.79875 0.0
H407 H 0.47514 1.00471 0.89496 0.0
C408 C 0.55984 0.05581 0.9191 0.0
C409 C 0.60428 0.08553 0.92636 0.0
C410 C 0.5384 0.05386 0.8631 0.0
C411 C 0.6269 0.11357 0.87685 0.0
C412 C 0.60605 0.11099 0.82042 0.0
C413 C 0.5406 0.07745 0.75567 0.0
C414 C 0.49576 0.04851 0.74925 0.0
C415 C 0.56183 0.08091 0.81268 0.0
C416 C 0.47275 0.02326 0.80096 0.0
C417 C 0.49387 0.02526 0.85664 0.0
H418 H 0.55653 0.62443 1.01298 0.0
H419 H 0.54751 0.51678 0.11727 0.0
H420 H 0.50327 0.46666 0.03535 0.0
H421 H 0.47151 0.45392 0.93213 0.0
H422 H 0.48379 0.56118 0.82279 0.0
H423 H 0.52221 0.61091 0.90879 0.0
C424 C 0.54411 0.5899 0.01812 0.0
C425 C 0.55497 0.57423 0.07126 0.0
C426 C 0.5198 0.5613 0.96969 0.0
C427 C 0.53946 0.52954 0.07688 0.0
C428 C 0.51432 0.50091 0.02997 0.0
C429 C 0.48244 0.48814 0.9267 0.0
C430 C 0.47505 0.50369 0.87046 0.0
C431 C 0.50506 0.51653 0.97571 0.0
C432 C 0.48926 0.54822 0.86519 0.0
C433 C 0.51121 0.5767 0.91444 0.0
H434 H 1.00121 0.50672 0.03959 0.0
H435 H 0.10262 0.49082 0.12362 0.0
H436 H 0.09783 0.52463 0.21801 0.0
H437 H 0.06636 0.55989 0.27841 0.0
H438 H 0.96241 0.57371 0.20056 0.0
H439 H 0.9661 0.53906 0.10411 0.0
C440 C 0.02237 0.51088 0.0784 0.0
C441 C 0.05298 0.49685 0.07288 0.0
C442 C 0.01871 0.52962 0.13474 0.0
C443 C 0.07938 0.50187 0.1248 0.0
C444 C 0.07651 0.52105 0.17968 0.0
C445 C 0.04418 0.55503 0.24065 0.0
C446 C 0.01422 0.56953 0.24713 0.0
C447 C 0.04646 0.53514 0.18529 0.0
C448 C 0.98566 0.56264 0.19741 0.0
C449 C 0.98798 0.54308 0.14183 0.0
H450 H 0.77966 0.88967 0.24368 0.0
H451 H 0.66209 0.79483 0.15212 0.0
H452 H 0.64952 0.85198 0.11501 0.0
H453 H 0.66863 0.92766 0.11401 0.0
H454 H 0.78758 0.02455 0.19954 0.0
H455 H 0.80244 0.96771 0.23417 0.0
C456 C 0.75166 0.88157 0.21482 0.0
C457 C 0.7217 0.83775 0.20142 0.0
C458 C 0.74447 0.91487 0.19318 0.0
C459 C 0.68562 0.82804 0.1638 0.0
C460 C 0.67823 0.86076 0.14257 0.0
C461 C 0.69822 0.93673 0.13933 0.0
C462 C 0.72693 0.98055 0.1538 0.0
C463 C 0.70695 0.90412 0.15794 0.0
C464 C 0.76484 0.99116 0.1875 0.0
C465 C 0.77338 0.95863 0.20734 0.0
H466 H 0.9233 0.69524 0.31463 0.0
H467 H 0.95756 0.81783 0.40051 0.0
H468 H 0.88845 0.81041 0.3666 0.0
H469 H 0.81504 0.76534 0.31988 0.0
H470 H 0.78209 0.64046 0.24182 0.0
H471 H 0.85333 0.65257 0.26604 0.0
C472 C 0.91607 0.72071 0.32554 0.0
C473 C 0.94563 0.75687 0.36048 0.0
C474 C 0.87591 0.71554 0.30793 0.0
C475 C 0.93555 0.78962 0.37351 0.0
C476 C 0.89579 0.78519 0.3546 0.0
C477 C 0.82359 0.74096 0.30786 0.0
C478 C 0.79275 0.70209 0.27872 0.0
C479 C 0.86513 0.74767 0.32306 0.0
C480 C 0.80466 0.67086 0.26381 0.0
C481 C 0.84567 0.67763 0.27771 0.0
H482 H 0.11048 0.83295 0.48954 0.0
H483 H 0.18808 0.77437 0.44421 0.0
H484 H 0.25326 0.84034 0.4726 0.0
H485 H 0.28866 0.91266 0.51583 0.0
H486 H 0.21349 0.97175 0.57054 0.0
H487 H 0.14745 0.90811 0.53223 0.0
C488 C 0.14167 0.83478 0.48545 0.0
C489 C 0.14394 0.79846 0.46402 0.0
C490 C 0.17972 0.87302 0.50359 0.0
C491 C 0.18483 0.80153 0.45972 0.0
C492 C 0.22245 0.8394 0.47619 0.0
C493 C 0.25805 0.91214 0.51884 0.0
C494 C 0.25625 0.94712 0.54615 0.0
C495 C 0.22027 0.87509 0.49877 0.0
C496 C 0.21597 0.94538 0.54965 0.0
C497 C 0.17811 0.90884 0.52805 0.0
H498 H 0.4323 0.28258 0.68851 0.0
H499 H 0.29726 0.20313 0.73554 0.0
H500 H 0.29989 0.13787 0.70606 0.0
H501 H 0.34202 0.10335 0.67066 0.0
H502 H 0.47842 0.18535 0.63123 0.0
H503 H 0.47354 0.24924 0.65433 0.0
C504 C 0.40314 0.25114 0.69158 0.0
C505 C 0.36455 0.24789 0.71377 0.0
C506 C 0.40523 0.21394 0.67647 0.0
C507 C 0.32738 0.20662 0.7183 0.0
C508 C 0.32894 0.16927 0.70174 0.0
C509 C 0.37063 0.13518 0.6671 0.0
C510 C 0.41041 0.13911 0.64862 0.0
C511 C 0.36793 0.17247 0.68151 0.0
C512 C 0.44718 0.18084 0.64471 0.0
C513 C 0.44455 0.2177 0.65796 0.0
H514 H 0.17937 0.36081 0.92404 0.0
H515 H 0.14295 0.38883 0.7464 0.0
H516 H 0.20613 0.39072 0.698 0.0
H517 H 0.27587 0.39241 0.7094 0.0
H518 H 0.30995 0.36045 0.88593 0.0
H519 H 0.24317 0.3514 0.93166 0.0
C520 C 0.18486 0.3664 0.87446 0.0
C521 C 0.15692 0.37499 0.83877 0.0
C522 C 0.22095 0.36712 0.84706 0.0
C523 C 0.16398 0.38191 0.77459 0.0
C524 C 0.20026 0.38335 0.7471 0.0
C525 C 0.26838 0.38299 0.75764 0.0
C526 C 0.29816 0.37795 0.7946 0.0
C527 C 0.22963 0.37728 0.78331 0.0
C528 C 0.28767 0.36472 0.85666 0.0
C529 C 0.24957 0.35974 0.88288 0.0
H530 H 0.94708 0.2999 0.89491 0.0
H531 H 1.00494 0.32425 0.07702 0.0
H532 H 0.94569 0.25467 0.11349 0.0
H533 H 0.87482 0.18963 0.09529 0.0
H534 H 0.81792 0.16404 0.91208 0.0
H535 H 0.87966 0.23133 0.87387 0.0
C536 C 0.94657 0.29007 0.94255 0.0
C537 C 0.97972 0.31759 0.98366 0.0
C538 C 0.91271 0.24978 0.96277 0.0
C539 C 0.97959 0.30373 0.04473 0.0
C540 C 0.94569 0.26401 0.06555 0.0
C541 C 0.87622 0.1985 0.04676 0.0
C542 C 0.84172 0.17207 1.00663 0.0
C543 C 0.91173 0.23714 0.02524 0.0
C544 C 0.84415 0.1837 0.94379 0.0
C545 C 0.87927 0.22235 0.92209 0.0
loop_
_geom_bond_atom_site_label_1
_geom_bond_atom_site_label_2
_geom_bond_distance
_geom_bond_site_symmetry_2
_ccdc_geom_bond_type
Co0 O2 2.143 . S
Co0 O8 2.074 1_545 S
Co0 O11 2.093 1_554 S
Co0 O24 2.097 . S
Co0 N41 2.151 1_544 S
Co0 N49 2.214 1_545 S
Co1 O2 2.160 . S
Co1 O7 2.058 . S
Co1 O17 2.057 . S
Co1 O32 2.037 . S
Co1 N36 2.145 . S
Co1 N57 2.257 . S
O2 Co0 2.143 . S
O2 Co1 2.160 . S
C3 O4 1.278 . S
C3 O11 1.224 . S
O4 C3 1.278 . S
C5 O6 1.245 1_554 S
C5 O17 1.232 . S
O6 C5 1.245 1_556 S
O7 Co1 2.058 . S
O7 C33 1.292 . S
O8 Co0 2.074 1_565 S
O8 C33 1.262 1_565 S
H9 C34 0.930 . S
H10 C40 0.930 . S
O11 Co0 2.093 1_556 S
O11 C3 1.224 . S
H12 C44 0.929 . S
H13 C46 0.930 1_556 S
H14 C47 0.930 . S
H15 C45 0.929 . S
H16 C48 0.928 . S
O17 Co1 2.057 . S
O17 C5 1.232 . S
H18 C37 0.929 . S
H19 C38 0.929 . S
H20 C50 0.931 . S
H21 C42 0.929 1_545 S
H22 C51 0.930 . S
H23 C43 0.931 . S
O24 Co0 2.097 . S
O24 C52 1.214 . S
H25 C53 0.929 . S
H26 C54 0.929 . S
H27 C55 0.930 . S
H28 C56 0.929 . S
H29 C58 0.930 . S
H30 C35 0.930 . S
H31 C39 0.930 . S
O32 Co1 2.037 . S
O32 C52 1.234 . S
C33 O7 1.292 . S
C33 O8 1.262 1_545 S
C34 H9 0.930 . S
C34 C37 1.388 . S
C34 C39 1.418 . S
C35 H30 0.930 . S
C35 C38 1.404 . S
C35 C39 1.353 . S
N36 Co1 2.145 . S
N36 C37 1.397 . S
N36 C38 1.334 . S
C37 H18 0.929 . S
C37 C34 1.388 . S
C37 N36 1.397 . S
C38 H19 0.929 . S
C38 C35 1.404 . S
C38 N36 1.334 . S
C39 H31 0.930 . S
C39 C34 1.418 . S
C39 C35 1.353 . S
C40 H10 0.930 . S
C40 N41 1.330 1_545 S
C40 C42 1.446 1_545 S
N41 Co0 2.151 1_566 S
N41 C40 1.330 1_565 S
N41 C45 1.418 . S
C42 H21 0.929 1_565 S
C42 C40 1.446 1_565 S
C42 C43 1.332 . S
C43 H23 0.931 . S
C43 C42 1.332 . S
C43 C44 1.267 . S
C44 H12 0.929 . S
C44 C43 1.267 . S
C44 C45 1.251 . S
C45 H15 0.929 . S
C45 N41 1.418 . S
C45 C44 1.251 . S
C46 H13 0.930 1_554 S
C46 C48 1.406 1_554 S
C46 C51 1.261 . S
C47 H14 0.930 . S
C47 N49 1.325 . S
C47 C50 1.357 . S
C48 H16 0.928 . S
C48 C46 1.406 1_556 S
C48 N49 1.261 1_556 S
N49 Co0 2.214 1_565 S
N49 C47 1.325 . S
N49 C48 1.261 1_554 S
C50 H20 0.931 . S
C50 C47 1.357 . S
C50 C51 1.312 . S
C51 H22 0.930 . S
C51 C46 1.261 . S
C51 C50 1.312 . S
C52 O24 1.214 . S
C52 O32 1.234 . S
C53 H25 0.929 . S
C53 C56 1.391 . S
C53 C58 1.391 . S
C54 H26 0.929 . S
C54 C55 1.390 . S
C54 N57 1.391 . S
C55 H27 0.930 . S
C55 C54 1.390 . S
C55 C56 1.392 . S
C56 H28 0.929 . S
C56 C53 1.391 . S
C56 C55 1.392 . S
N57 Co1 2.257 . S
N57 C54 1.391 . S
N57 C58 1.388 . S
C58 H29 0.930 . S
C58 C53 1.391 . S
C58 N57 1.388 . S
Co59 O61 2.143 . S
Co59 O67 2.074 . S
Co59 O70 2.093 . S
Co59 O83 2.097 . S
Co59 N100 2.151 . S
Co59 N108 2.214 . S
Co60 O61 2.160 . S
Co60 O66 2.058 . S
Co60 O76 2.057 . S
Co60 O91 2.037 . S
Co60 N95 2.145 . S
Co60 N116 2.257 . S
O61 Co59 2.143 . S
O61 Co60 2.160 . S
C62 O63 1.278 . S
C62 O70 1.224 . S
O63 C62 1.278 . S
C64 O65 1.245 . S
C64 O76 1.232 . S
O65 C64 1.245 . S
O66 Co60 2.058 . S
O66 C92 1.269 . S
O67 Co59 2.074 . S
O67 C92 1.257 . S
H68 C93 0.930 . S
H69 C99 0.930 . S
O70 Co59 2.093 . S
O70 C62 1.224 . S
H71 C103 0.929 . S
H72 C105 0.930 . S
H73 C106 0.930 . S
H74 C104 0.929 . S
H75 C107 0.928 . S
O76 Co60 2.057 . S
O76 C64 1.232 . S
H77 C96 0.929 . S
H78 C97 0.929 . S
H79 C109 0.931 . S
H80 C101 0.929 1_556 S
H81 C110 0.930 . S
H82 C102 0.931 1_556 S
O83 Co59 2.097 . S
O83 C111 1.214 . S
H84 C112 0.929 . S
H85 C113 0.929 . S
H86 C114 0.930 . S
H87 C115 0.929 . S
H88 C117 0.930 . S
H89 C94 0.930 . S
H90 C98 0.930 . S
O91 Co60 2.037 . S
O91 C111 1.234 . S
C92 O66 1.269 . S
C92 O67 1.257 . S
C93 H68 0.930 . S
C93 C96 1.388 . S
C93 C98 1.418 . S
C94 H89 0.930 . S
C94 C97 1.404 . S
C94 C98 1.353 . S
N95 Co60 2.145 . S
N95 C96 1.397 . S
N95 C97 1.334 . S
C96 H77 0.929 . S
C96 C93 1.388 . S
C96 N95 1.397 . S
C97 H78 0.929 . S
C97 C94 1.404 . S
C97 N95 1.334 . S
C98 H90 0.930 . S
C98 C93 1.418 . S
C98 C94 1.353 . S
C99 H69 0.930 . S
C99 N100 1.330 . S
C99 C101 1.446 . S
N100 Co59 2.151 . S
N100 C99 1.330 . S
N100 C104 1.418 . S
C101 H80 0.929 1_554 S
C101 C99 1.446 . S
C101 C102 1.332 . S
C102 H82 0.931 1_554 S
C102 C101 1.332 . S
C102 C103 1.267 . S
C103 H71 0.929 . S
C103 C102 1.267 . S
C103 C104 1.251 . S
C104 H74 0.929 . S
C104 N100 1.418 . S
C104 C103 1.251 . S
C105 H72 0.930 . S
C105 C107 1.406 . S
C105 C110 1.261 . S
C106 H73 0.930 . S
C106 N108 1.325 . S
C106 C109 1.357 . S
C107 H75 0.928 . S
C107 C105 1.406 . S
C107 N108 1.261 . S
N108 Co59 2.214 . S
N108 C106 1.325 . S
N108 C107 1.261 . S
C109 H79 0.931 . S
C109 C106 1.357 . S
C109 C110 1.312 . S
C110 H81 0.930 . S
C110 C105 1.261 . S
C110 C109 1.312 . S
C111 O83 1.214 . S
C111 O91 1.234 . S
C112 H84 0.929 . S
C112 C115 1.391 . S
C112 C117 1.391 . S
C113 H85 0.929 . S
C113 C114 1.390 . S
C113 N116 1.391 . S
C114 H86 0.930 . S
C114 C113 1.390 . S
C114 C115 1.392 . S
C115 H87 0.929 . S
C115 C112 1.391 . S
C115 C114 1.392 . S
N116 Co60 2.257 . S
N116 C113 1.391 . S
N116 C117 1.388 . S
C117 H88 0.930 . S
C117 C112 1.391 . S
C117 N116 1.388 . S
Co118 O120 2.143 . S
Co118 O126 2.074 . S
Co118 O129 2.093 . S
Co118 O142 2.097 . S
Co118 N159 2.151 . S
Co118 N167 2.214 . S
Co119 O120 2.160 1_655 S
Co119 O125 2.058 1_655 S
Co119 O135 2.057 . S
Co119 O150 2.037 1_655 S
Co119 N154 2.145 . S
Co119 N175 2.257 . S
O120 Co118 2.143 . S
O120 Co119 2.160 1_455 S
C121 O122 1.278 1_455 S
C121 O129 1.224 . S
O122 C121 1.278 1_655 S
C123 O124 1.245 . S
C123 O135 1.232 . S
O124 C123 1.245 . S
O125 Co119 2.058 1_455 S
O125 C151 1.269 . S
O126 Co118 2.074 . S
O126 C151 1.257 . S
H127 C152 0.930 . S
H128 C158 0.930 . S
O129 Co118 2.093 . S
O129 C121 1.224 . S
H130 C162 0.929 . S
H131 C164 0.930 . S
H132 C165 0.930 . S
H133 C163 0.929 . S
H134 C166 0.928 . S
O135 Co119 2.057 . S
O135 C123 1.232 . S
H136 C155 0.929 1_455 S
H137 C156 0.929 . S
H138 C168 0.931 . S
H139 C160 0.929 . S
H140 C169 0.930 . S
H141 C161 0.931 . S
O142 Co118 2.097 . S
O142 C170 1.214 . S
H143 C171 0.929 . S
H144 C172 0.929 . S
H145 C173 0.930 . S
H146 C174 0.929 . S
H147 C176 0.930 . S
H148 C153 0.930 . S
H149 C157 0.930 . S
O150 Co119 2.037 1_455 S
O150 C170 1.234 . S
C151 O125 1.269 . S
C151 O126 1.257 . S
C152 H127 0.930 . S
C152 C155 1.388 . S
C152 C157 1.418 . S
C153 H148 0.930 . S
C153 C156 1.404 . S
C153 C157 1.353 . S
N154 Co119 2.145 . S
N154 C155 1.397 . S
N154 C156 1.334 . S
C155 H136 0.929 1_655 S
C155 C152 1.388 . S
C155 N154 1.397 . S
C156 H137 0.929 . S
C156 C153 1.404 . S
C156 N154 1.334 . S
C157 H149 0.930 . S
C157 C152 1.418 . S
C157 C153 1.353 . S
C158 H128 0.930 . S
C158 N159 1.330 . S
C158 C160 1.446 . S
N159 Co118 2.151 . S
N159 C158 1.330 . S
N159 C163 1.418 . S
C160 H139 0.929 . S
C160 C158 1.446 . S
C160 C161 1.332 . S
C161 H141 0.931 . S
C161 C160 1.332 . S
C161 C162 1.267 . S
C162 H130 0.929 . S
C162 C161 1.267 . S
C162 C163 1.251 . S
C163 H133 0.929 . S
C163 N159 1.418 . S
C163 C162 1.251 . S
C164 H131 0.930 . S
C164 C166 1.406 . S
C164 C169 1.261 . S
C165 H132 0.930 . S
C165 N167 1.325 . S
C165 C168 1.357 . S
C166 H134 0.928 . S
C166 C164 1.406 . S
C166 N167 1.261 . S
N167 Co118 2.214 . S
N167 C165 1.325 . S
N167 C166 1.261 . S
C168 H138 0.931 . S
C168 C165 1.357 . S
C168 C169 1.312 . S
C169 H140 0.930 . S
C169 C164 1.261 . S
C169 C168 1.312 . S
C170 O142 1.214 . S
C170 O150 1.234 . S
C171 H143 0.929 . S
C171 C174 1.391 . S
C171 C176 1.391 . S
C172 H144 0.929 . S
C172 C173 1.390 . S
C172 N175 1.391 . S
C173 H145 0.930 . S
C173 C172 1.390 . S
C173 C174 1.392 . S
C174 H146 0.929 . S
C174 C171 1.391 . S
C174 C173 1.392 . S
N175 Co119 2.257 . S
N175 C172 1.391 . S
N175 C176 1.388 . S
C176 H147 0.930 . S
C176 C171 1.391 . S
C176 N175 1.388 . S
Co177 O179 2.143 . S
Co177 O185 2.074 . S
Co177 O188 2.093 . S
Co177 O201 2.097 . S
Co177 N218 2.151 . S
Co177 N226 2.214 . S
Co178 O179 2.160 1_565 S
Co178 O184 2.058 1_565 S
Co178 O194 2.057 . S
Co178 O209 2.037 1_565 S
Co178 N213 2.145 . S
Co178 N234 2.257 . S
O179 Co177 2.143 . S
O179 Co178 2.160 1_545 S
C180 O181 1.278 1_545 S
C180 O188 1.224 . S
O181 C180 1.278 1_565 S
C182 O183 1.245 . S
C182 O194 1.232 . S
O183 C182 1.245 . S
O184 Co178 2.058 1_545 S
O184 C210 1.269 . S
O185 Co177 2.074 . S
O185 C210 1.257 . S
H186 C211 0.930 . S
H187 C217 0.930 . S
O188 Co177 2.093 . S
O188 C180 1.224 . S
H189 C221 0.929 . S
H190 C223 0.930 . S
H191 C224 0.930 . S
H192 C222 0.929 . S
H193 C225 0.928 . S
O194 Co178 2.057 . S
O194 C182 1.232 . S
H195 C214 0.929 1_545 S
H196 C215 0.929 . S
H197 C227 0.931 . S
H198 C219 0.929 . S
H199 C228 0.930 . S
H200 C220 0.931 . S
O201 Co177 2.097 . S
O201 C229 1.214 . S
H202 C230 0.929 . S
H203 C231 0.929 . S
H204 C232 0.930 . S
H205 C233 0.929 . S
H206 C235 0.930 . S
H207 C212 0.930 . S
H208 C216 0.930 . S
O209 Co178 2.037 1_545 S
O209 C229 1.234 . S
C210 O184 1.269 . S
C210 O185 1.257 . S
C211 H186 0.930 . S
C211 C214 1.388 . S
C211 C216 1.418 . S
C212 H207 0.930 . S
C212 C215 1.404 . S
C212 C216 1.353 . S
N213 Co178 2.145 . S
N213 C214 1.397 . S
N213 C215 1.334 . S
C214 H195 0.929 1_565 S
C214 C211 1.388 . S
C214 N213 1.397 . S
C215 H196 0.929 . S
C215 C212 1.404 . S
C215 N213 1.334 . S
C216 H208 0.930 . S
C216 C211 1.418 . S
C216 C212 1.353 . S
C217 H187 0.930 . S
C217 N218 1.330 . S
C217 C219 1.446 . S
N218 Co177 2.151 . S
N218 C217 1.330 . S
N218 C222 1.418 . S
C219 H198 0.929 . S
C219 C217 1.446 . S
C219 C220 1.332 . S
C220 H200 0.931 . S
C220 C219 1.332 . S
C220 C221 1.267 . S
C221 H189 0.929 . S
C221 C220 1.267 . S
C221 C222 1.251 . S
C222 H192 0.929 . S
C222 N218 1.418 . S
C222 C221 1.251 . S
C223 H190 0.930 . S
C223 C225 1.406 . S
C223 C228 1.261 . S
C224 H191 0.930 . S
C224 N226 1.325 . S
C224 C227 1.357 . S
C225 H193 0.928 . S
C225 C223 1.406 . S
C225 N226 1.261 . S
N226 Co177 2.214 . S
N226 C224 1.325 . S
N226 C225 1.261 . S
C227 H197 0.931 . S
C227 C224 1.357 . S
C227 C228 1.312 . S
C228 H199 0.930 . S
C228 C223 1.261 . S
C228 C227 1.312 . S
C229 O201 1.214 . S
C229 O209 1.234 . S
C230 H202 0.929 . S
C230 C233 1.391 . S
C230 C235 1.391 . S
C231 H203 0.929 . S
C231 C232 1.390 . S
C231 N234 1.391 . S
C232 H204 0.930 . S
C232 C231 1.390 . S
C232 C233 1.392 . S
C233 H205 0.929 . S
C233 C230 1.391 . S
C233 C232 1.392 . S
N234 Co178 2.257 . S
N234 C231 1.391 . S
N234 C235 1.388 . S
C235 H206 0.930 . S
C235 C230 1.391 . S
C235 N234 1.388 . S
Co236 O238 2.143 . S
Co236 O244 2.074 . S
Co236 O247 2.093 . S
Co236 O260 2.097 . S
Co236 N277 2.151 . S
Co236 N285 2.214 . S
Co237 O238 2.160 . S
Co237 O243 2.058 . S
Co237 O253 2.057 . S
Co237 O268 2.037 . S
Co237 N272 2.145 . S
Co237 N293 2.257 . S
O238 Co236 2.143 . S
O238 Co237 2.160 . S
C239 O240 1.278 . S
C239 O247 1.224 . S
O240 C239 1.278 . S
C241 O242 1.245 . S
C241 O253 1.232 . S
O242 C241 1.245 . S
O243 Co237 2.058 . S
O243 C269 1.269 . S
O244 Co236 2.074 . S
O244 C269 1.257 . S
H245 C270 0.930 1_554 S
H246 C276 0.930 . S
O247 Co236 2.093 . S
O247 C239 1.224 . S
H248 C280 0.929 . S
H249 C282 0.930 . S
H250 C283 0.930 . S
H251 C281 0.929 . S
H252 C284 0.928 . S
O253 Co237 2.057 . S
O253 C241 1.232 . S
H254 C273 0.929 . S
H255 C274 0.929 . S
H256 C286 0.931 . S
H257 C278 0.929 . S
H258 C287 0.930 . S
H259 C279 0.931 . S
O260 Co236 2.097 . S
O260 C288 1.214 . S
H261 C289 0.929 . S
H262 C290 0.929 . S
H263 C291 0.930 . S
H264 C292 0.929 . S
H265 C294 0.930 . S
H266 C271 0.930 . S
H267 C275 0.930 1_554 S
O268 Co237 2.037 . S
O268 C288 1.234 . S
C269 O243 1.269 . S
C269 O244 1.257 . S
C270 H245 0.930 1_556 S
C270 C273 1.388 . S
C270 C275 1.418 . S
C271 H266 0.930 . S
C271 C274 1.404 . S
C271 C275 1.353 . S
N272 Co237 2.145 . S
N272 C273 1.397 . S
N272 C274 1.334 . S
C273 H254 0.929 . S
C273 C270 1.388 . S
C273 N272 1.397 . S
C274 H255 0.929 . S
C274 C271 1.404 . S
C274 N272 1.334 . S
C275 H267 0.930 1_556 S
C275 C270 1.418 . S
C275 C271 1.353 . S
C276 H246 0.930 . S
C276 N277 1.330 . S
C276 C278 1.446 . S
N277 Co236 2.151 . S
N277 C276 1.330 . S
N277 C281 1.418 . S
C278 H257 0.929 . S
C278 C276 1.446 . S
C278 C279 1.332 . S
C279 H259 0.931 . S
C279 C278 1.332 . S
C279 C280 1.267 . S
C280 H248 0.929 . S
C280 C279 1.267 . S
C280 C281 1.251 . S
C281 H251 0.929 . S
C281 N277 1.418 . S
C281 C280 1.251 . S
C282 H249 0.930 . S
C282 C284 1.406 . S
C282 C287 1.261 . S
C283 H250 0.930 . S
C283 N285 1.325 . S
C283 C286 1.357 . S
C284 H252 0.928 . S
C284 C282 1.406 . S
C284 N285 1.261 . S
N285 Co236 2.214 . S
N285 C283 1.325 . S
N285 C284 1.261 . S
C286 H256 0.931 . S
C286 C283 1.357 . S
C286 C287 1.312 . S
C287 H258 0.930 . S
C287 C282 1.261 . S
C287 C286 1.312 . S
C288 O260 1.214 . S
C288 O268 1.234 . S
C289 H261 0.929 . S
C289 C292 1.391 . S
C289 C294 1.391 . S
C290 H262 0.929 . S
C290 C291 1.390 . S
C290 N293 1.391 . S
C291 H263 0.930 . S
C291 C290 1.390 . S
C291 C292 1.392 . S
C292 H264 0.929 . S
C292 C289 1.391 . S
C292 C291 1.392 . S
N293 Co237 2.257 . S
N293 C290 1.391 . S
N293 C294 1.388 . S
C294 H265 0.930 . S
C294 C289 1.391 . S
C294 N293 1.388 . S
Co295 O297 2.143 . S
Co295 O303 2.074 1_455 S
Co295 O306 2.093 . S
Co295 O319 2.097 . S
Co295 N336 2.151 1_455 S
Co295 N344 2.214 1_455 S
Co296 O297 2.160 . S
Co296 O302 2.058 . S
Co296 O312 2.057 . S
Co296 O327 2.037 . S
Co296 N331 2.145 1_556 S
Co296 N352 2.257 . S
O297 Co295 2.143 . S
O297 Co296 2.160 . S
C298 O299 1.278 . S
C298 O306 1.224 . S
O299 C298 1.278 . S
C300 O301 1.245 . S
C300 O312 1.232 . S
O301 C300 1.245 . S
O302 Co296 2.058 . S
O302 C328 1.269 1_455 S
O303 Co295 2.074 1_655 S
O303 C328 1.257 . S
H304 C329 0.930 . S
H305 C335 0.931 1_455 S
O306 Co295 2.093 . S
O306 C298 1.224 . S
H307 C339 0.929 . S
H308 C341 0.930 . S
H309 C342 0.930 . S
H310 C340 0.929 . S
H311 C343 0.928 . S
O312 Co296 2.057 . S
O312 C300 1.232 . S
H313 C332 0.929 . S
H314 C333 0.929 1_556 S
H315 C345 0.931 . S
H316 C337 0.929 . S
H317 C346 0.930 . S
H318 C338 0.931 . S
O319 Co295 2.097 . S
O319 C347 1.214 . S
H320 C348 0.929 . S
H321 C349 0.929 1_554 S
H322 C350 0.930 1_554 S
H323 C351 0.929 . S
H324 C353 0.930 . S
H325 C330 0.930 . S
H326 C334 0.930 . S
O327 Co296 2.037 . S
O327 C347 1.234 . S
C328 O302 1.269 1_655 S
C328 O303 1.257 . S
C329 H304 0.930 . S
C329 C332 1.388 . S
C329 C334 1.418 . S
C330 H325 0.930 . S
C330 C333 1.404 . S
C330 C334 1.353 . S
N331 Co296 2.145 1_554 S
N331 C332 1.397 . S
N331 C333 1.334 . S
C332 H313 0.929 . S
C332 C329 1.388 . S
C332 N331 1.397 . S
C333 H314 0.929 1_554 S
C333 C330 1.404 . S
C333 N331 1.334 . S
C334 H326 0.930 . S
C334 C329 1.418 . S
C334 C330 1.353 . S
C335 H305 0.931 1_655 S
C335 N336 1.329 . S
C335 C337 1.446 . S
N336 Co295 2.151 1_655 S
N336 C335 1.329 . S
N336 C340 1.418 . S
C337 H316 0.929 . S
C337 C335 1.446 . S
C337 C338 1.332 . S
C338 H318 0.931 . S
C338 C337 1.332 . S
C338 C339 1.267 . S
C339 H307 0.929 . S
C339 C338 1.267 . S
C339 C340 1.251 . S
C340 H310 0.929 . S
C340 N336 1.418 . S
C340 C339 1.251 . S
C341 H308 0.930 . S
C341 C343 1.406 . S
C341 C346 1.261 . S
C342 H309 0.930 . S
C342 N344 1.325 . S
C342 C345 1.357 . S
C343 H311 0.928 . S
C343 C341 1.406 . S
C343 N344 1.261 . S
N344 Co295 2.214 1_655 S
N344 C342 1.325 . S
N344 C343 1.261 . S
C345 H315 0.931 . S
C345 C342 1.357 . S
C345 C346 1.312 . S
C346 H317 0.930 . S
C346 C341 1.261 . S
C346 C345 1.312 . S
C347 O319 1.214 . S
C347 O327 1.234 . S
C348 H320 0.929 . S
C348 C351 1.391 . S
C348 C353 1.391 . S
C349 H321 0.929 1_556 S
C349 C350 1.390 . S
C349 N352 1.391 . S
C350 H322 0.930 1_556 S
C350 C349 1.390 . S
C350 C351 1.392 . S
C351 H323 0.929 . S
C351 C348 1.391 . S
C351 C350 1.392 . S
N352 Co296 2.257 . S
N352 C349 1.391 . S
N352 C353 1.388 . S
C353 H324 0.930 . S
C353 C348 1.391 . S
C353 N352 1.388 . S
H354 C360 0.930 1_565 S
H355 C363 0.930 . S
H356 C364 0.930 . S
H357 C365 0.930 . S
H358 C368 0.930 . S
H359 C369 0.930 . S
C360 H354 0.930 1_545 S
C360 C361 1.355 . S
C360 C362 1.415 . S
C361 C360 1.355 . S
C361 C363 1.419 . S
C362 C360 1.415 . S
C362 C367 1.425 . S
C362 C369 1.409 1_545 S
C363 H355 0.930 . S
C363 C361 1.419 . S
C363 C364 1.362 . S
C364 H356 0.930 . S
C364 C363 1.362 . S
C364 C367 1.409 . S
C365 H357 0.930 . S
C365 C366 1.355 . S
C365 C367 1.415 . S
C366 C365 1.355 . S
C366 C368 1.419 1_545 S
C367 C362 1.425 . S
C367 C364 1.409 . S
C367 C365 1.415 . S
C368 H358 0.930 . S
C368 C366 1.419 1_565 S
C368 C369 1.362 . S
C369 H359 0.930 . S
C369 C362 1.409 1_565 S
C369 C368 1.362 . S
H370 C376 0.930 . S
H371 C379 0.930 . S
H372 C380 0.930 . S
H373 C381 0.930 . S
H374 C384 0.930 . S
H375 C385 0.930 . S
C376 H370 0.930 . S
C376 C377 1.355 . S
C376 C378 1.415 . S
C377 C376 1.355 . S
C377 C379 1.419 . S
C378 C376 1.415 . S
C378 C383 1.425 . S
C378 C385 1.409 . S
C379 H371 0.930 . S
C379 C377 1.419 . S
C379 C380 1.362 . S
C380 H372 0.930 . S
C380 C379 1.362 . S
C380 C383 1.409 . S
C381 H373 0.930 . S
C381 C382 1.355 . S
C381 C383 1.415 . S
C382 C381 1.355 . S
C382 C384 1.419 . S
C383 C378 1.425 . S
C383 C380 1.409 . S
C383 C381 1.415 . S
C384 H374 0.930 . S
C384 C382 1.419 . S
C384 C385 1.362 . S
C385 H375 0.930 . S
C385 C378 1.409 . S
C385 C384 1.362 . S
H386 C392 0.930 . S
H387 C395 0.930 . S
H388 C396 0.930 . S
H389 C397 0.930 . S
H390 C400 0.930 . S
H391 C401 0.930 . S
C392 H386 0.930 . S
C392 C393 1.355 . S
C392 C394 1.415 . S
C393 C392 1.355 . S
C393 C395 1.419 . S
C394 C392 1.415 . S
C394 C399 1.425 . S
C394 C401 1.409 . S
C395 H387 0.930 . S
C395 C393 1.419 . S
C395 C396 1.362 . S
C396 H388 0.930 . S
C396 C395 1.362 . S
C396 C399 1.409 . S
C397 H389 0.930 . S
C397 C398 1.355 . S
C397 C399 1.415 . S
C398 C397 1.355 . S
C398 C400 1.419 . S
C399 C394 1.425 . S
C399 C396 1.409 . S
C399 C397 1.415 . S
C400 H390 0.930 . S
C400 C398 1.419 . S
C400 C401 1.362 . S
C401 H391 0.930 . S
C401 C394 1.409 . S
C401 C400 1.362 . S
H402 C408 0.930 . S
H403 C411 0.930 . S
H404 C412 0.930 . S
H405 C413 0.930 . S
H406 C416 0.930 . S
H407 C417 0.930 . S
C408 H402 0.930 . S
C408 C409 1.355 . S
C408 C410 1.415 . S
C409 C408 1.355 . S
C409 C411 1.419 . S
C410 C408 1.415 . S
C410 C415 1.425 . S
C410 C417 1.409 . S
C411 H403 0.930 . S
C411 C409 1.419 . S
C411 C412 1.362 . S
C412 H404 0.930 . S
C412 C411 1.362 . S
C412 C415 1.409 . S
C413 H405 0.930 . S
C413 C414 1.355 . S
C413 C415 1.415 . S
C414 C413 1.355 . S
C414 C416 1.419 . S
C415 C410 1.425 . S
C415 C412 1.409 . S
C415 C413 1.415 . S
C416 H406 0.930 . S
C416 C414 1.419 . S
C416 C417 1.362 . S
C417 H407 0.930 . S
C417 C410 1.409 . S
C417 C416 1.362 . S
H418 C424 0.930 . S
H419 C427 0.930 . S
H420 C428 0.930 . S
H421 C429 0.930 . S
H422 C432 0.930 . S
H423 C433 0.930 . S
C424 H418 0.930 . S
C424 C425 1.355 1_556 S
C424 C426 1.415 . S
C425 C424 1.355 1_554 S
C425 C427 1.419 . S
C426 C424 1.415 . S
C426 C431 1.425 . S
C426 C433 1.409 . S
C427 H419 0.930 . S
C427 C425 1.419 . S
C427 C428 1.362 . S
C428 H420 0.930 . S
C428 C427 1.362 . S
C428 C431 1.409 1_554 S
C429 H421 0.930 . S
C429 C430 1.355 . S
C429 C431 1.415 . S
C430 C429 1.355 . S
C430 C432 1.419 . S
C431 C426 1.425 . S
C431 C428 1.409 1_556 S
C431 C429 1.415 . S
C432 H422 0.930 . S
C432 C430 1.419 . S
C432 C433 1.362 . S
C433 H423 0.930 . S
C433 C426 1.409 . S
C433 C432 1.362 . S
H434 C440 0.930 1_655 S
H435 C443 0.930 . S
H436 C444 0.930 . S
H437 C445 0.930 . S
H438 C448 0.930 . S
H439 C449 0.930 . S
C440 H434 0.930 1_455 S
C440 C441 1.355 . S
C440 C442 1.415 . S
C441 C440 1.355 . S
C441 C443 1.419 . S
C442 C440 1.415 . S
C442 C447 1.425 . S
C442 C449 1.409 1_455 S
C443 H435 0.930 . S
C443 C441 1.419 . S
C443 C444 1.362 . S
C444 H436 0.930 . S
C444 C443 1.362 . S
C444 C447 1.409 . S
C445 H437 0.930 . S
C445 C446 1.355 . S
C445 C447 1.415 . S
C446 C445 1.355 . S
C446 C448 1.419 1_455 S
C447 C442 1.425 . S
C447 C444 1.409 . S
C447 C445 1.415 . S
C448 H438 0.930 . S
C448 C446 1.419 1_655 S
C448 C449 1.362 . S
C449 H439 0.930 . S
C449 C442 1.409 1_655 S
C449 C448 1.362 . S
H450 C456 0.930 . S
H451 C459 0.930 . S
H452 C460 0.930 . S
H453 C461 0.930 . S
H454 C464 0.930 . S
H455 C465 0.930 . S
C456 H450 0.930 . S
C456 C457 1.355 . S
C456 C458 1.415 . S
C457 C456 1.355 . S
C457 C459 1.419 . S
C458 C456 1.415 . S
C458 C463 1.425 . S
C458 C465 1.409 . S
C459 H451 0.930 . S
C459 C457 1.419 . S
C459 C460 1.362 . S
C460 H452 0.930 . S
C460 C459 1.362 . S
C460 C463 1.409 . S
C461 H453 0.930 . S
C461 C462 1.355 . S
C461 C463 1.415 . S
C462 C461 1.355 . S
C462 C464 1.419 . S
C463 C458 1.425 . S
C463 C460 1.409 . S
C463 C461 1.415 . S
C464 H454 0.930 . S
C464 C462 1.419 . S
C464 C465 1.362 . S
C465 H455 0.930 . S
C465 C458 1.409 . S
C465 C464 1.362 . S
H466 C472 0.930 . S
H467 C475 0.930 . S
H468 C476 0.930 . S
H469 C477 0.930 . S
H470 C480 0.930 . S
H471 C481 0.930 . S
C472 H466 0.930 . S
C472 C473 1.355 . S
C472 C474 1.415 . S
C473 C472 1.355 . S
C473 C475 1.419 . S
C474 C472 1.415 . S
C474 C479 1.425 . S
C474 C481 1.409 . S
C475 H467 0.930 . S
C475 C473 1.419 . S
C475 C476 1.362 . S
C476 H468 0.930 . S
C476 C475 1.362 . S
C476 C479 1.409 . S
C477 H469 0.930 . S
C477 C478 1.355 . S
C477 C479 1.415 . S
C478 C477 1.355 . S
C478 C480 1.419 . S
C479 C474 1.425 . S
C479 C476 1.409 . S
C479 C477 1.415 . S
C480 H470 0.930 . S
C480 C478 1.419 . S
C480 C481 1.362 . S
C481 H471 0.930 . S
C481 C474 1.409 . S
C481 C480 1.362 . S
H482 C488 0.930 . S
H483 C491 0.930 . S
H484 C492 0.930 . S
H485 C493 0.930 . S
H486 C496 0.930 . S
H487 C497 0.930 . S
C488 H482 0.930 . S
C488 C489 1.355 . S
C488 C490 1.415 . S
C489 C488 1.355 . S
C489 C491 1.419 . S
C490 C488 1.415 . S
C490 C495 1.425 . S
C490 C497 1.409 . S
C491 H483 0.930 . S
C491 C489 1.419 . S
C491 C492 1.362 . S
C492 H484 0.930 . S
C492 C491 1.362 . S
C492 C495 1.409 . S
C493 H485 0.930 . S
C493 C494 1.355 . S
C493 C495 1.415 . S
C494 C493 1.355 . S
C494 C496 1.419 . S
C495 C490 1.425 . S
C495 C492 1.409 . S
C495 C493 1.415 . S
C496 H486 0.930 . S
C496 C494 1.419 . S
C496 C497 1.362 . S
C497 H487 0.930 . S
C497 C490 1.409 . S
C497 C496 1.362 . S
H498 C504 0.930 . S
H499 C507 0.930 . S
H500 C508 0.930 . S
H501 C509 0.930 . S
H502 C512 0.930 . S
H503 C513 0.930 . S
C504 H498 0.930 . S
C504 C505 1.355 . S
C504 C506 1.415 . S
C505 C504 1.355 . S
C505 C507 1.419 . S
C506 C504 1.415 . S
C506 C511 1.425 . S
C506 C513 1.409 . S
C507 H499 0.930 . S
C507 C505 1.419 . S
C507 C508 1.362 . S
C508 H500 0.930 . S
C508 C507 1.362 . S
C508 C511 1.409 . S
C509 H501 0.930 . S
C509 C510 1.355 . S
C509 C511 1.415 . S
C510 C509 1.355 . S
C510 C512 1.419 . S
C511 C506 1.425 . S
C511 C508 1.409 . S
C511 C509 1.415 . S
C512 H502 0.930 . S
C512 C510 1.419 . S
C512 C513 1.362 . S
C513 H503 0.930 . S
C513 C506 1.409 . S
C513 C512 1.362 . S
H514 C520 0.930 . S
H515 C523 0.930 . S
H516 C524 0.930 . S
H517 C525 0.930 . S
H518 C528 0.930 . S
H519 C529 0.930 . S
C520 H514 0.930 . S
C520 C521 1.355 . S
C520 C522 1.415 . S
C521 C520 1.355 . S
C521 C523 1.419 . S
C522 C520 1.415 . S
C522 C527 1.425 . S
C522 C529 1.409 . S
C523 H515 0.930 . S
C523 C521 1.419 . S
C523 C524 1.362 . S
C524 H516 0.930 . S
C524 C523 1.362 . S
C524 C527 1.409 . S
C525 H517 0.930 . S
C525 C526 1.355 . S
C525 C527 1.415 . S
C526 C525 1.355 . S
C526 C528 1.419 . S
C527 C522 1.425 . S
C527 C524 1.409 . S
C527 C525 1.415 . S
C528 H518 0.930 . S
C528 C526 1.419 . S
C528 C529 1.362 . S
C529 H519 0.930 . S
C529 C522 1.409 . S
C529 C528 1.362 . S
H530 C536 0.930 . S
H531 C539 0.932 . S
H532 C540 0.930 . S
H533 C541 0.930 . S
H534 C544 0.930 . S
H535 C545 0.930 . S
C536 H530 0.930 . S
C536 C537 1.355 . S
C536 C538 1.415 . S
C537 C536 1.355 . S
C537 C539 1.419 . S
C538 C536 1.415 . S
C538 C543 1.425 . S
C538 C545 1.409 . S
C539 H531 0.932 . S
C539 C537 1.419 . S
C539 C540 1.362 . S
C540 H532 0.930 . S
C540 C539 1.362 . S
C540 C543 1.409 . S
C541 H533 0.930 . S
C541 C542 1.355 . S
C541 C543 1.415 . S
C542 C541 1.355 . S
C542 C544 1.419 . S
C543 C538 1.425 . S
C543 C540 1.409 . S
C543 C541 1.415 . S
C544 H534 0.930 . S
C544 C542 1.419 . S
C544 C545 1.362 . S
C545 H535 0.930 . S
C545 C538 1.409 . S
C545 C544 1.362 . S
C361 C52 1.785 . S
C366 C180 1.796 . S
C377 C111 1.799 . S
C382 C239 1.768 . S
C393 C298 1.777 . S
C398 C170 1.802 . S
C409 C3 1.788 . S
C414 C229 1.800 . S
C425 C62 1.777 . S
C430 C288 1.787 . S
C441 C347 1.789 1_554 S
C446 C121 1.798 . S
C457 C64 1.440 . S
C462 C33 1.388 1_565 S
C473 C123 1.459 . S
C478 C92 1.433 . S
C489 C151 1.418 . S
C494 C182 1.449 . S
C505 C241 1.431 . S
C510 C210 1.450 . S
C521 C300 1.444 . S
C526 C269 1.458 . S
C537 C328 1.456 . S
C542 C5 1.437 1_556 S
