# Generated by pormake.
# Topology afw, (4)-cn, num edge types: 1
# Building blocks:
#     Node 0, Type 0, BuildingBlock: ICAMEG_clean_sbu_1, # of connection points: 4
#     Node 1, Type 0, BuildingBlock: ICAMEG_clean_sbu_1, # of connection points: 4
#     Node 2, Type 0, BuildingBlock: ICAMEG_clean_sbu_1, # of connection points: 4
#     Node 3, Type 0, BuildingBlock: ICAMEG_clean_sbu_1, # of connection points: 4
#     Node 4, Type 0, BuildingBlock: ICAMEG_clean_sbu_1, # of connection points: 4
#     Node 5, Type 0, BuildingBlock: ICAMEG_clean_sbu_1, # of connection points: 4
#     Node 6, Type 0, BuildingBlock: ICAMEG_clean_sbu_1, # of connection points: 4
#     Node 7, Type 0, BuildingBlock: ICAMEG_clean_sbu_1, # of connection points: 4
#     Node 8, Type 0, BuildingBlock: ICAMEG_clean_sbu_1, # of connection points: 4
#     Edge 9, Type (0, 0), BuildingBlock: CIFDUS_clean_linker_0, # of connection points: 2
#     Edge 10, Type (0, 0), BuildingBlock: CIFDUS_clean_linker_0, # of connection points: 2
#     Edge 11, Type (0, 0), BuildingBlock: CIFDUS_clean_linker_0, # of connection points: 2
#     Edge 12, Type (0, 0), BuildingBlock: CIFDUS_clean_linker_0, # of connection points: 2
#     Edge 13, Type (0, 0), BuildingBlock: CIFDUS_clean_linker_0, # of connection points: 2
#     Edge 14, Type (0, 0), BuildingBlock: CIFDUS_clean_linker_0, # of connection points: 2
#     Edge 15, Type (0, 0), BuildingBlock: CIFDUS_clean_linker_0, # of connection points: 2
#     Edge 16, Type (0, 0), BuildingBlock: CIFDUS_clean_linker_0, # of connection points: 2
#     Edge 17, Type (0, 0), BuildingBlock: CIFDUS_clean_linker_0, # of connection points: 2
#     Edge 18, Type (0, 0), BuildingBlock: CIFDUS_clean_linker_0, # of connection points: 2
#     Edge 19, Type (0, 0), BuildingBlock: CIFDUS_clean_linker_0, # of connection points: 2
#     Edge 20, Type (0, 0), BuildingBlock: CIFDUS_clean_linker_0, # of connection points: 2
#     Edge 21, Type (0, 0), BuildingBlock: CIFDUS_clean_linker_0, # of connection points: 2
#     Edge 22, Type (0, 0), BuildingBlock: CIFDUS_clean_linker_0, # of connection points: 2
#     Edge 23, Type (0, 0), BuildingBlock: CIFDUS_clean_linker_0, # of connection points: 2
#     Edge 24, Type (0, 0), BuildingBlock: CIFDUS_clean_linker_0, # of connection points: 2
#     Edge 25, Type (0, 0), BuildingBlock: CIFDUS_clean_linker_0, # of connection points: 2
#     Edge 26, Type (0, 0), BuildingBlock: CIFDUS_clean_linker_0, # of connection points: 2
# Relax obj value: 0.100
# Max RMSD: 0.140
# Mean RMSD: 0.140
data_MOF--net-afw--node1-ICAMEG_clean_sbu_1--edge1-CIFDUS_clean_linker_0
_symmetry_space_group_name_H-M    P1
_symmetry_Int_Tables_number       1
_symmetry_cell_setting            triclinic
loop_
_symmetry_equiv_pos_as_xyz
'x, y, z'
_cell_length_a     40.577364
_cell_length_b     40.601471
_cell_length_c     31.159277
_cell_angle_alpha  90.111046
_cell_angle_beta   89.975391
_cell_angle_gamma 119.9121
loop_
_atom_site_label
_atom_site_type_symbol
_atom_site_fract_x
_atom_site_fract_y
_atom_site_fract_z
_atom_type_partial_charge
Co0 Co 0.01351 0.19702 0.05701 0.0
Co1 Co 0.01583 0.20515 0.94629 0.0
O2 O 0.01448 0.22345 0.00418 0.0
C3 C 0.94336 0.18671 0.09865 0.0
O4 O 0.93021 0.14993 0.09665 0.0
C5 C 0.08231 0.27012 0.90625 0.0
O6 O 0.09438 0.24634 0.89699 0.0
O7 O 0.0592 0.19731 0.96249 0.0
O8 O 0.05121 0.18425 0.03307 0.0
H9 H 0.02393 0.11734 0.83826 0.0
H10 H 0.02762 0.27593 0.06163 0.0
O11 O 0.97567 0.20986 0.08239 0.0
H12 H 0.14105 0.28088 0.12588 0.0
H13 H 0.01265 0.18067 0.21745 0.0
H14 H 0.0104 0.12411 0.07651 0.0
H15 H 0.08821 0.22036 0.09893 0.0
H16 H 0.01436 0.21394 0.15062 0.0
O17 O 0.05219 0.2589 0.92855 0.0
H18 H 0.02244 0.14089 0.91083 0.0
H19 H 0.01135 0.23115 0.85767 0.0
H20 H 0.00881 0.08995 0.14253 0.0
H21 H 0.07961 0.33701 0.08866 0.0
H22 H 0.00992 0.11823 0.21365 0.0
H23 H 0.13686 0.33974 0.12101 0.0
O24 O 0.97163 0.14804 0.03396 0.0
H25 H 0.94541 0.27764 0.9397 0.0
H26 H 0.94066 0.15706 0.90349 0.0
H27 H 0.88612 0.16542 0.88561 0.0
H28 H 0.88833 0.22613 0.90355 0.0
H29 H 0.99917 0.26793 0.95751 0.0
H30 H 0.01277 0.20859 0.78452 0.0
H31 H 0.01909 0.15129 0.77447 0.0
O32 O 0.97968 0.15173 0.96257 0.0
C33 C 0.06769 0.18675 0.99741 0.0
C34 C 0.02118 0.14235 0.84222 0.0
C35 C 0.01489 0.19355 0.81206 0.0
N36 N 0.01686 0.18738 0.88854 0.0
C37 C 0.02033 0.15583 0.88324 0.0
C38 C 0.0141 0.20618 0.85356 0.0
C39 C 0.01845 0.16141 0.80645 0.0
C40 C 0.05234 0.27685 0.07591 0.0
N41 N 0.05478 0.24457 0.07887 0.0
C42 C 0.08173 0.31154 0.09105 0.0
C43 C 0.11387 0.31306 0.10916 0.0
C44 C 0.11625 0.28005 0.11186 0.0
C45 C 0.0863 0.24588 0.09639 0.0
C46 C 0.01217 0.16806 0.18666 0.0
C47 C 0.01098 0.13665 0.10734 0.0
C48 C 0.01309 0.18675 0.14871 0.0
N49 N 0.01255 0.17102 0.10969 0.0
C50 C 0.01004 0.11716 0.14461 0.0
C51 C 0.01065 0.13303 0.1845 0.0
C52 C 0.96352 0.13337 0.99648 0.0
C53 C 0.94415 0.2511 0.9316 0.0
C54 C 0.94179 0.18348 0.91167 0.0
C55 C 0.91085 0.18809 0.90132 0.0
C56 C 0.91212 0.22217 0.91136 0.0
N57 N 0.97323 0.21209 0.93129 0.0
C58 C 0.97457 0.24549 0.94145 0.0
Co59 Co 0.83748 0.84171 0.9583 0.0
Co60 Co 0.8413 0.84149 0.0693 0.0
O61 O 0.81639 0.81821 0.01442 0.0
C62 C 0.75636 0.8234 0.95235 0.0
O63 O 0.75587 0.83071 0.99331 0.0
C64 C 0.8258 0.76143 0.07888 0.0
O65 O 0.83238 0.75944 0.03797 0.0
O66 O 0.89069 0.84755 0.04876 0.0
O67 O 0.88984 0.85823 0.97831 0.0
H68 H 0.94656 0.93959 0.16087 0.0
H69 H 0.77538 0.76163 0.96208 0.0
O70 O 0.7859 0.82592 0.93512 0.0
H71 H 0.88235 0.75757 0.89222 0.0
H72 H 0.84105 0.84808 0.79674 0.0
H73 H 0.90409 0.91431 0.93076 0.0
H74 H 0.88853 0.81865 0.9147 0.0
H75 H 0.81523 0.8186 0.86698 0.0
O76 O 0.82756 0.79116 0.09449 0.0
H77 H 0.91403 0.9099 0.09296 0.0
H78 H 0.82151 0.82233 0.16184 0.0
H79 H 0.93102 0.94465 0.86118 0.0
H80 H 0.76778 0.69992 0.93965 0.0
H81 H 0.89944 0.9115 0.79351 0.0
H82 H 0.82157 0.69762 0.90455 0.0
O83 O 0.84294 0.89127 0.97729 0.0
H84 H 0.70011 0.76927 0.0932 0.0
H85 H 0.81769 0.89221 0.11279 0.0
H86 H 0.7566 0.88503 0.13691 0.0
H87 H 0.69721 0.82313 0.12728 0.0
H88 H 0.76183 0.77794 0.069 0.0
H89 H 0.8532 0.85093 0.23046 0.0
H90 H 0.91613 0.91006 0.23027 0.0
O91 O 0.85579 0.89277 0.04745 0.0
C92 C 0.90682 0.85719 0.01212 0.0
C93 C 0.9191 0.91389 0.16138 0.0
C94 C 0.86672 0.8641 0.20043 0.0
N95 N 0.86581 0.86452 0.12338 0.0
C96 C 0.90049 0.89698 0.12302 0.0
C97 C 0.84895 0.84799 0.16145 0.0
C98 C 0.90203 0.89728 0.2003 0.0
C99 C 0.7988 0.76088 0.94651 0.0
N100 N 0.83234 0.79373 0.93966 0.0
C101 C 0.79438 0.72585 0.93402 0.0
C102 C 0.82459 0.72457 0.91439 0.0
C103 C 0.85871 0.75819 0.9075 0.0
C104 C 0.86211 0.7927 0.92047 0.0
C105 C 0.8551 0.86278 0.82599 0.0
C106 C 0.89028 0.89959 0.90146 0.0
C107 C 0.84057 0.84627 0.86589 0.0
N108 N 0.85824 0.86462 0.90298 0.0
C109 C 0.90562 0.91697 0.86215 0.0
C110 C 0.88787 0.89836 0.82421 0.0
C111 C 0.85333 0.9085 0.0133 0.0
C112 C 0.72579 0.79637 0.09761 0.0
C113 C 0.79199 0.86536 0.10807 0.0
C114 C 0.75747 0.86137 0.12202 0.0
C115 C 0.72417 0.82662 0.11667 0.0
N116 N 0.79335 0.8356 0.08936 0.0
C117 C 0.76083 0.80141 0.08411 0.0
Co118 Co 0.19983 0.02544 0.08519 0.0
Co119 Co 0.19702 0.02601 0.97429 0.0
O120 O 0.22178 0.0265 0.02865 0.0
C121 C 0.27954 0.09015 0.09276 0.0
O122 O 0.27927 0.09925 0.05243 0.0
C123 C 0.20936 0.96024 0.96152 0.0
O124 O 0.1928 0.94666 0.99863 0.0
O125 O 0.14798 0.98111 0.99289 0.0
O126 O 0.14811 0.98896 0.06414 0.0
H127 H 0.09177 0.01918 0.88291 0.0
H128 H 0.26399 0.01059 0.07745 0.0
O129 O 0.25084 0.06176 0.10929 0.0
H130 H 0.15984 0.89503 0.14312 0.0
H131 H 0.19552 0.02155 0.2468 0.0
H132 H 0.13121 0.027 0.11497 0.0
H133 H 0.1512 0.94941 0.12549 0.0
H134 H 0.2224 0.02209 0.17565 0.0
O135 O 0.21363 0.99165 0.9479 0.0
H136 H 0.12356 0.02037 0.95079 0.0
H137 H 0.21833 0.02997 0.88191 0.0
H138 H 0.10317 0.02616 0.18547 0.0
H139 H 0.27401 0.95698 0.0949 0.0
H140 H 0.13539 0.02343 0.25203 0.0
H141 H 0.22165 0.89863 0.12788 0.0
O142 O 0.19217 0.06876 0.06924 0.0
H143 H 0.33834 0.09996 0.95131 0.0
H144 H 0.21812 0.10137 0.93596 0.0
H145 H 0.27827 0.15742 0.91381 0.0
H146 H 0.33895 0.1569 0.92131 0.0
H147 H 0.27756 0.0447 0.97359 0.0
H148 H 0.18741 0.02857 0.81328 0.0
H149 H 0.12373 0.02329 0.8135 0.0
O150 O 0.18014 0.06065 0.99851 0.0
C151 C 0.13164 0.97238 0.02947 0.0
C152 C 0.11956 0.02159 0.88239 0.0
C153 C 0.17322 0.02681 0.84331 0.0
N154 N 0.17287 0.02546 0.92035 0.0
C155 C 0.13776 0.02237 0.92073 0.0
C156 C 0.19055 0.02749 0.88228 0.0
C157 C 0.1375 0.02386 0.84346 0.0
C158 C 0.24117 0.9854 0.09209 0.0
N159 N 0.20709 0.98319 0.10056 0.0
C160 C 0.24697 0.95509 0.10177 0.0
C161 C 0.21757 0.92235 0.12023 0.0
C162 C 0.18288 0.92029 0.12876 0.0
C163 C 0.1781 0.95114 0.11859 0.0
C164 C 0.18118 0.02268 0.21803 0.0
C165 C 0.14529 0.02559 0.14377 0.0
C166 C 0.19631 0.02308 0.17764 0.0
N167 N 0.17828 0.02435 0.14115 0.0
C168 C 0.12933 0.02522 0.18361 0.0
C169 C 0.14744 0.02372 0.22094 0.0
C170 C 0.18148 0.07675 0.03413 0.0
C171 C 0.31208 0.10051 0.94781 0.0
C172 C 0.24441 0.10103 0.93966 0.0
C173 C 0.27838 0.1328 0.92688 0.0
C174 C 0.31241 0.13247 0.93104 0.0
N175 N 0.24431 0.06979 0.95607 0.0
C176 C 0.27756 0.06924 0.96021 0.0
Co177 Co 0.68739 0.53565 0.28984 0.0
Co178 Co 0.69179 0.55009 0.39988 0.0
O179 O 0.68812 0.56468 0.34073 0.0
C180 C 0.75162 0.61268 0.27058 0.0
O181 O 0.76342 0.61513 0.31031 0.0
C182 C 0.62631 0.54717 0.44423 0.0
O183 O 0.61667 0.51208 0.45421 0.0
O184 O 0.64916 0.49713 0.3896 0.0
O185 O 0.65323 0.48723 0.31939 0.0
H186 H 0.69612 0.46468 0.51361 0.0
H187 H 0.66891 0.59727 0.28122 0.0
O188 O 0.72149 0.58335 0.25796 0.0
H189 H 0.5549 0.48143 0.23029 0.0
H190 H 0.68079 0.50828 0.13132 0.0
H191 H 0.69191 0.46574 0.27599 0.0
H192 H 0.61122 0.47882 0.25514 0.0
H193 H 0.68127 0.54423 0.19543 0.0
O194 O 0.65464 0.56631 0.41941 0.0
H195 H 0.69129 0.48362 0.43978 0.0
H196 H 0.70116 0.58667 0.48603 0.0
H197 H 0.69119 0.42876 0.21278 0.0
H198 H 0.61332 0.60128 0.25623 0.0
H199 H 0.68561 0.45 0.13978 0.0
H200 H 0.55577 0.54304 0.23059 0.0
O201 O 0.73255 0.53289 0.31057 0.0
H202 H 0.75606 0.69246 0.39278 0.0
H203 H 0.7704 0.58345 0.43577 0.0
H204 H 0.82408 0.64853 0.44556 0.0
H205 H 0.81707 0.70361 0.4241 0.0
H206 H 0.7032 0.62687 0.38312 0.0
H207 H 0.70603 0.56878 0.56036 0.0
H208 H 0.7035 0.50738 0.57453 0.0
O209 O 0.72855 0.53379 0.38233 0.0
C210 C 0.6392 0.47566 0.35652 0.0
C211 C 0.69726 0.49151 0.50784 0.0
C212 C 0.70284 0.54994 0.53408 0.0
N213 N 0.69596 0.53622 0.45854 0.0
C214 C 0.69455 0.5024 0.4661 0.0
C215 C 0.7001 0.55992 0.49192 0.0
C216 C 0.70141 0.51548 0.54201 0.0
C217 C 0.64403 0.57186 0.2699 0.0
N218 N 0.64335 0.53788 0.26954 0.0
C219 C 0.61261 0.57428 0.25589 0.0
C220 C 0.58032 0.54158 0.24154 0.0
C221 C 0.5798 0.507 0.24139 0.0
C222 C 0.61174 0.50567 0.25566 0.0
C223 C 0.68318 0.49871 0.16295 0.0
C224 C 0.68927 0.47506 0.24436 0.0
C225 C 0.68358 0.51901 0.19938 0.0
N226 N 0.68643 0.507 0.23945 0.0
C227 C 0.68897 0.45405 0.20867 0.0
C228 C 0.68588 0.46601 0.16773 0.0
C229 C 0.74318 0.52958 0.3481 0.0
C230 C 0.75941 0.6687 0.40241 0.0
C231 C 0.76715 0.60723 0.42617 0.0
C232 C 0.79762 0.64404 0.43192 0.0
C233 C 0.79366 0.67493 0.41991 0.0
N234 N 0.73359 0.60135 0.40912 0.0
C235 C 0.72953 0.6315 0.3972 0.0
Co236 Co 0.51187 0.17852 0.29689 0.0
Co237 Co 0.50197 0.18722 0.40579 0.0
O238 O 0.48383 0.16043 0.35094 0.0
C239 C 0.43683 0.16936 0.27589 0.0
O240 O 0.43808 0.18561 0.31277 0.0
C241 C 0.48863 0.11069 0.43145 0.0
O242 O 0.51244 0.11278 0.40158 0.0
O243 O 0.55257 0.19067 0.39838 0.0
O244 O 0.56076 0.19434 0.32687 0.0
H245 H 0.59563 0.28944 0.50398 0.0
H246 H 0.44616 0.10039 0.30244 0.0
O247 O 0.46364 0.16343 0.26497 0.0
H248 H 0.55552 0.08487 0.26377 0.0
H249 H 0.53282 0.17126 0.13863 0.0
H250 H 0.58423 0.24642 0.27114 0.0
H251 H 0.56349 0.14876 0.27321 0.0
H252 H 0.4983 0.14873 0.20715 0.0
O253 O 0.48138 0.13754 0.43638 0.0
H254 H 0.57236 0.25583 0.435 0.0
H255 H 0.46947 0.17405 0.4942 0.0
H256 H 0.61986 0.26979 0.20342 0.0
H257 H 0.43682 0.03591 0.29301 0.0
H258 H 0.59415 0.23212 0.13652 0.0
H259 H 0.49178 0.02787 0.2736 0.0
O260 O 0.51903 0.2303 0.30578 0.0
H261 H 0.35927 0.12183 0.40423 0.0
H262 H 0.47755 0.24329 0.42872 0.0
H263 H 0.41573 0.24062 0.43569 0.0
H264 H 0.35601 0.17954 0.42347 0.0
H265 H 0.42171 0.12585 0.39722 0.0
H266 H 0.49179 0.20661 0.5639 0.0
H267 H 0.55523 0.26483 0.56907 0.0
O268 O 0.52234 0.23744 0.37733 0.0
C269 C 0.57307 0.19651 0.36497 0.0
C270 C 0.56789 0.26415 0.50212 0.0
C271 C 0.50963 0.21763 0.53576 0.0
N272 N 0.5195 0.21314 0.46049 0.0
C273 C 0.55452 0.24504 0.46312 0.0
C274 C 0.49719 0.19927 0.49621 0.0
C275 C 0.54523 0.25031 0.53863 0.0
C276 C 0.47014 0.09709 0.29371 0.0
N277 N 0.50527 0.12828 0.28819 0.0
C278 C 0.46471 0.06053 0.28854 0.0
C279 C 0.49557 0.05603 0.2777 0.0
C280 C 0.53134 0.088 0.2722 0.0
C281 C 0.53571 0.12411 0.27769 0.0
C282 C 0.54435 0.18789 0.16758 0.0
C283 C 0.57297 0.22973 0.24223 0.0
C284 C 0.52489 0.17532 0.20645 0.0
N285 N 0.53937 0.1961 0.24317 0.0
C286 C 0.59322 0.24317 0.20395 0.0
C287 C 0.57877 0.22204 0.16642 0.0
C288 C 0.52566 0.25052 0.33951 0.0
C289 C 0.38508 0.14858 0.40977 0.0
C290 C 0.45171 0.21663 0.42321 0.0
C291 C 0.41678 0.21527 0.42732 0.0
C292 C 0.38328 0.18099 0.42049 0.0
N293 N 0.45325 0.18472 0.41272 0.0
C294 C 0.42052 0.151 0.40602 0.0
Co295 Co 0.86966 0.35776 0.29385 0.0
Co296 Co 0.86118 0.36151 0.40378 0.0
O297 O 0.88756 0.35834 0.35245 0.0
C298 C 0.86764 0.29035 0.25514 0.0
O299 O 0.83133 0.27742 0.24799 0.0
C300 C 0.94085 0.42359 0.41659 0.0
O301 O 0.94214 0.43266 0.37597 0.0
O302 O 0.85947 0.40631 0.38018 0.0
O303 O 0.85247 0.39433 0.30948 0.0
H304 H 0.76019 0.37441 0.48275 0.0
H305 H 0.94842 0.37308 0.30698 0.0
O306 O 0.88698 0.32112 0.2763 0.0
H307 H 0.96194 0.48758 0.2359 0.0
H308 H 0.87958 0.36115 0.13235 0.0
H309 H 0.79997 0.35224 0.25633 0.0
H310 H 0.89842 0.43338 0.25174 0.0
H311 H 0.90184 0.362 0.20619 0.0
O312 O 0.91083 0.39609 0.43233 0.0
H313 H 0.7935 0.36976 0.41882 0.0
H314 H 0.87378 0.36078 0.49814 0.0
H315 H 0.77666 0.35135 0.18304 0.0
H316 H 0.01248 0.42645 0.29119 0.0
H317 H 0.81658 0.35583 0.12041 0.0
H318 H 0.01954 0.48429 0.25554 0.0
O319 O 0.81817 0.31485 0.30884 0.0
H320 H 0.92389 0.28523 0.44036 0.0
H321 H 0.80413 0.28858 0.44466 0.0
H322 H 0.80552 0.23262 0.47294 0.0
H323 H 0.86578 0.23076 0.47104 0.0
H324 H 0.9211 0.34049 0.41201 0.0
H325 H 0.84151 0.36565 0.56293 0.0
H326 H 0.78419 0.37236 0.55546 0.0
O327 O 0.81077 0.32672 0.37749 0.0
C328 C 0.85213 0.41285 0.34234 0.0
C329 C 0.78507 0.37138 0.48643 0.0
C330 C 0.83075 0.36652 0.53142 0.0
N331 N 0.8354 0.36476 0.45472 0.0
C332 C 0.804 0.36864 0.45035 0.0
C333 C 0.84895 0.36387 0.49461 0.0
C334 C 0.79858 0.37027 0.52721 0.0
C335 C 0.95123 0.39795 0.29098 0.0
N336 N 0.91967 0.39997 0.28009 0.0
C337 C 0.98759 0.42817 0.28232 0.0
C338 C 0.99154 0.46064 0.2624 0.0
C339 C 0.95923 0.46252 0.25142 0.0
C340 C 0.92332 0.43178 0.26062 0.0
C341 C 0.86193 0.3592 0.15938 0.0
C342 C 0.81753 0.35422 0.22926 0.0
C343 C 0.87438 0.35967 0.20127 0.0
N344 N 0.85224 0.35721 0.23559 0.0
C345 C 0.80417 0.3537 0.18782 0.0
C346 C 0.82658 0.35621 0.1527 0.0
C347 C 0.79783 0.30867 0.34239 0.0
C348 C 0.89748 0.28573 0.44143 0.0
C349 C 0.83038 0.28789 0.44344 0.0
C350 C 0.83103 0.25617 0.45965 0.0
C351 C 0.86485 0.25516 0.4586 0.0
N352 N 0.86252 0.31782 0.42678 0.0
C353 C 0.89575 0.31698 0.42552 0.0
Co354 Co 0.35826 0.87756 0.74057 0.0
Co355 Co 0.34684 0.87114 0.62986 0.0
O356 O 0.35375 0.89739 0.68481 0.0
C357 C 0.29626 0.87577 0.79215 0.0
O358 O 0.28577 0.84015 0.8004 0.0
C359 C 0.41278 0.92582 0.57884 0.0
O360 O 0.42046 0.89821 0.57401 0.0
O361 O 0.38848 0.86029 0.6438 0.0
O362 O 0.39201 0.86 0.71567 0.0
H363 H 0.33304 0.76483 0.53479 0.0
H364 H 0.37416 0.95703 0.73458 0.0
O365 O 0.32411 0.89502 0.76677 0.0
H366 H 0.4938 0.96655 0.78504 0.0
H367 H 0.37871 0.88362 0.90075 0.0
H368 H 0.35485 0.80651 0.76979 0.0
H369 H 0.4374 0.90397 0.77113 0.0
H370 H 0.37241 0.90781 0.83048 0.0
O371 O 0.38467 0.92068 0.60218 0.0
H372 H 0.34227 0.79883 0.60333 0.0
H373 H 0.33601 0.88771 0.53903 0.0
H374 H 0.36103 0.78128 0.83938 0.0
H375 H 0.42979 0.02019 0.74859 0.0
H376 H 0.37302 0.81992 0.90551 0.0
H377 H 0.49016 0.02522 0.77397 0.0
O378 O 0.31317 0.82663 0.72792 0.0
H379 H 0.28753 0.95371 0.61723 0.0
H380 H 0.2667 0.82397 0.59941 0.0
H381 H 0.21442 0.83653 0.58372 0.0
H382 H 0.22473 0.90184 0.59241 0.0
H383 H 0.33892 0.9398 0.63305 0.0
H384 H 0.32685 0.85472 0.46975 0.0
H385 H 0.32528 0.7928 0.46735 0.0
O386 O 0.30963 0.82182 0.65605 0.0
C387 C 0.40206 0.85526 0.6785 0.0
C388 C 0.33364 0.79178 0.53542 0.0
C389 C 0.33016 0.84222 0.49892 0.0
N390 N 0.33955 0.84515 0.57523 0.0
C391 C 0.33882 0.81115 0.57414 0.0
C392 C 0.33534 0.86076 0.53824 0.0
C393 C 0.32929 0.80749 0.4976 0.0
C394 C 0.40024 0.95897 0.74595 0.0
N395 N 0.40241 0.92682 0.75233 0.0
C396 C 0.43169 0.99482 0.75367 0.0
C397 C 0.46557 0.99763 0.76785 0.0
C398 C 0.46764 0.96472 0.77404 0.0
C399 C 0.43563 0.92936 0.76596 0.0
C400 C 0.37352 0.86652 0.87217 0.0
C401 C 0.36011 0.82353 0.79841 0.0
C402 C 0.36995 0.88007 0.83229 0.0
N403 N 0.3633 0.85861 0.79603 0.0
C404 C 0.36358 0.80908 0.83773 0.0
C405 C 0.37031 0.83077 0.87481 0.0
C406 C 0.29863 0.80795 0.69339 0.0
C407 C 0.28273 0.92516 0.61319 0.0
C408 C 0.27135 0.85242 0.60354 0.0
C409 C 0.24167 0.85938 0.59446 0.0
C410 C 0.24748 0.89604 0.59932 0.0
N411 N 0.30592 0.8812 0.61686 0.0
C412 C 0.31176 0.91715 0.62195 0.0
Co413 Co 0.17677 0.5158 0.61766 0.0
Co414 Co 0.16533 0.5181 0.72752 0.0
O415 O 0.14893 0.49393 0.6711 0.0
C416 C 0.09953 0.50247 0.59921 0.0
O417 O 0.09947 0.51577 0.63763 0.0
C418 C 0.15948 0.44339 0.74176 0.0
O419 O 0.17905 0.44914 0.70625 0.0
O420 O 0.21783 0.5272 0.71839 0.0
O421 O 0.22617 0.53223 0.64696 0.0
H422 H 0.25295 0.61927 0.83075 0.0
H423 H 0.1135 0.43612 0.61879 0.0
O424 O 0.12801 0.50003 0.58642 0.0
H425 H 0.22673 0.42893 0.57583 0.0
H426 H 0.19876 0.51758 0.45841 0.0
H427 H 0.24719 0.587 0.59486 0.0
H428 H 0.2314 0.49092 0.5899 0.0
H429 H 0.16451 0.49052 0.5262 0.0
O430 O 0.15045 0.46773 0.75422 0.0
H431 H 0.23187 0.58875 0.75985 0.0
H432 H 0.13317 0.49742 0.81586 0.0
H433 H 0.28253 0.61493 0.52788 0.0
H434 H 0.10747 0.37353 0.60469 0.0
H435 H 0.25833 0.58014 0.45901 0.0
H436 H 0.1644 0.36967 0.58316 0.0
O437 O 0.18136 0.56601 0.63071 0.0
H438 H 0.02275 0.44013 0.72718 0.0
H439 H 0.13332 0.56658 0.75627 0.0
H440 H 0.06856 0.55641 0.76598 0.0
H441 H 0.01272 0.49279 0.75144 0.0
H442 H 0.08802 0.45164 0.71757 0.0
H443 H 0.15338 0.52677 0.88746 0.0
H444 H 0.21359 0.58823 0.89519 0.0
O445 O 0.18092 0.56901 0.70267 0.0
C446 C 0.23852 0.53428 0.68502 0.0
C447 C 0.2266 0.59255 0.82778 0.0
C448 C 0.17074 0.54061 0.85961 0.0
N449 N 0.18116 0.54152 0.78367 0.0
C450 C 0.21445 0.57519 0.7877 0.0
C451 C 0.15948 0.52409 0.819 0.0
C452 C 0.20452 0.5751 0.86392 0.0
C453 C 0.13831 0.43467 0.60904 0.0
N454 N 0.17269 0.46713 0.60493 0.0
C455 C 0.13476 0.39915 0.60127 0.0
C456 C 0.16673 0.39701 0.58924 0.0
C457 C 0.20171 0.43024 0.58514 0.0
C458 C 0.2042 0.46526 0.59324 0.0
C459 C 0.20964 0.53298 0.48822 0.0
C460 C 0.2366 0.57159 0.56506 0.0
C461 C 0.19032 0.51784 0.5267 0.0
N462 N 0.204 0.53704 0.56449 0.0
C463 C 0.25668 0.58759 0.52722 0.0
C464 C 0.24306 0.56807 0.48859 0.0
C465 C 0.18506 0.58396 0.6657 0.0
C466 C 0.04685 0.46794 0.73375 0.0
C467 C 0.10916 0.53885 0.74977 0.0
C468 C 0.07256 0.53324 0.75542 0.0
C469 C 0.04125 0.49752 0.74729 0.0
N470 N 0.11441 0.50967 0.73653 0.0
C471 C 0.08386 0.47458 0.72853 0.0
Co472 Co 0.52446 0.68253 0.7459 0.0
Co473 Co 0.53764 0.70123 0.63693 0.0
O474 O 0.55336 0.69124 0.6926 0.0
C475 C 0.60006 0.7469 0.76783 0.0
O476 O 0.59989 0.7617 0.73047 0.0
C477 C 0.54523 0.63396 0.61752 0.0
O478 O 0.52508 0.61816 0.65218 0.0
O479 O 0.48519 0.65712 0.64367 0.0
O480 O 0.47586 0.65047 0.71493 0.0
H481 H 0.4508 0.71815 0.53578 0.0
H482 H 0.58892 0.66777 0.74333 0.0
O483 O 0.57241 0.71477 0.77873 0.0
H484 H 0.47652 0.54469 0.77935 0.0
H485 H 0.50012 0.65531 0.90389 0.0
H486 H 0.45278 0.68083 0.76945 0.0
H487 H 0.47061 0.60172 0.76881 0.0
H488 H 0.53566 0.66596 0.83627 0.0
O489 O 0.55389 0.66771 0.60751 0.0
H490 H 0.47097 0.70577 0.60566 0.0
H491 H 0.57151 0.71735 0.54916 0.0
H492 H 0.41616 0.66995 0.83624 0.0
H493 H 0.59619 0.6115 0.75391 0.0
H494 H 0.43982 0.6571 0.9041 0.0
H495 H 0.53969 0.5494 0.77196 0.0
O496 O 0.51882 0.72796 0.73594 0.0
H497 H 0.68031 0.76742 0.6406 0.0
H498 H 0.56894 0.78267 0.61335 0.0
H499 H 0.63342 0.83816 0.60692 0.0
H500 H 0.68966 0.8307 0.62055 0.0
H501 H 0.61529 0.71274 0.64698 0.0
H502 H 0.55223 0.72949 0.47856 0.0
H503 H 0.49156 0.73012 0.47159 0.0
O504 O 0.5208 0.73468 0.66433 0.0
C505 C 0.46404 0.64202 0.67642 0.0
C506 C 0.47736 0.71807 0.53842 0.0
C507 C 0.53426 0.72439 0.5063 0.0
N508 N 0.52253 0.71115 0.58157 0.0
C509 C 0.48899 0.71118 0.57794 0.0
C510 C 0.54499 0.71742 0.54634 0.0
C511 C 0.50022 0.72475 0.50242 0.0
C512 C 0.56428 0.6409 0.75154 0.0
N513 N 0.52944 0.63806 0.75569 0.0
C514 C 0.56854 0.60911 0.75733 0.0
C515 C 0.53681 0.57427 0.76741 0.0
C516 C 0.50136 0.5716 0.77154 0.0
C517 C 0.49817 0.60397 0.76545 0.0
C518 C 0.48948 0.6608 0.87451 0.0
C519 C 0.46314 0.67501 0.79879 0.0
C520 C 0.50952 0.66694 0.83614 0.0
N521 N 0.49615 0.67372 0.79888 0.0
C522 C 0.44233 0.66898 0.83654 0.0
C523 C 0.45564 0.66181 0.8746 0.0
C524 C 0.51548 0.74352 0.70194 0.0
C525 C 0.65603 0.771 0.63445 0.0
C526 C 0.59327 0.77922 0.61942 0.0
C527 C 0.62971 0.81073 0.61564 0.0
C528 C 0.66126 0.80651 0.62327 0.0
N529 N 0.58839 0.74448 0.63034 0.0
C530 C 0.61917 0.74012 0.63784 0.0
H531 H 0.16444 0.10695 0.96537 0.0
H532 H 0.165 0.10711 0.10405 0.0
H533 H 0.1329 0.14443 0.10452 0.0
H534 H 0.09957 0.17153 0.06585 0.0
H535 H 0.09843 0.17097 0.9272 0.0
H536 H 0.13648 0.13958 0.92662 0.0
C537 C 0.15809 0.11552 0.9958 0.0
C538 C 0.16692 0.10382 0.03466 0.0
C539 C 0.13938 0.13674 0.99587 0.0
C540 C 0.15856 0.11555 0.07366 0.0
C541 C 0.14005 0.1368 0.07396 0.0
C542 C 0.10801 0.1651 0.03538 0.0
C543 C 0.0957 0.17334 0.99659 0.0
C544 C 0.12955 0.14674 0.03528 0.0
C545 C 0.10733 0.16496 0.95755 0.0
C546 C 0.12896 0.14682 0.95719 0.0
H547 H 0.87101 0.95955 0.94773 0.0
H548 H 0.86567 0.95045 0.086 0.0
H549 H 0.89534 0.01879 0.09273 0.0
H550 H 0.92903 0.08159 0.06026 0.0
H551 H 0.93732 0.09198 0.92221 0.0
H552 H 0.9002 0.02312 0.91481 0.0
C553 C 0.87568 0.97246 0.97928 0.0
C554 C 0.86613 0.94962 0.01618 0.0
C555 C 0.89376 0.01226 0.98316 0.0
C556 C 0.87263 0.96703 0.05687 0.0
C557 C 0.88982 0.00632 0.06089 0.0
C558 C 0.92226 0.06895 0.02849 0.0
C559 C 0.93638 0.09209 0.99199 0.0
C560 C 0.90145 0.02927 0.02435 0.0
C561 C 0.92714 0.07497 0.95106 0.0
C562 C 0.90592 0.03548 0.9467 0.0
H563 H 0.95844 0.87345 0.07651 0.0
H564 H 0.94851 0.8731 0.93844 0.0
H565 H 0.01716 0.90493 0.93129 0.0
H566 H 0.08043 0.9393 0.96417 0.0
H567 H 0.09025 0.94148 0.10234 0.0
H568 H 0.02177 0.90239 0.1091 0.0
C569 C 0.97121 0.8797 0.04483 0.0
C570 C 0.94813 0.87111 0.00824 0.0
C571 C 0.01099 0.89876 0.04077 0.0
C572 C 0.96537 0.8795 0.96739 0.0
C573 C 0.0048 0.89787 0.96313 0.0
C574 C 0.06769 0.93067 0.99571 0.0
C575 C 0.09066 0.94375 0.03254 0.0
C576 C 0.02796 0.90863 0.99962 0.0
C577 C 0.07347 0.93217 0.07323 0.0
C578 C 0.03413 0.90981 0.07728 0.0
H579 H 0.83809 0.45275 0.40345 0.0
H580 H 0.83653 0.43578 0.26635 0.0
H581 H 0.80636 0.47392 0.25559 0.0
H582 H 0.77413 0.50632 0.2853 0.0
H583 H 0.77487 0.52255 0.42247 0.0
H584 H 0.8119 0.49107 0.43255 0.0
C585 C 0.83175 0.45787 0.37115 0.0
C586 C 0.83923 0.44088 0.33595 0.0
C587 C 0.8139 0.47959 0.36502 0.0
C588 C 0.83087 0.44809 0.29427 0.0
C589 C 0.81349 0.46993 0.28796 0.0
C590 C 0.78295 0.50362 0.31735 0.0
C591 C 0.77118 0.51644 0.35298 0.0
C592 C 0.80391 0.48495 0.32316 0.0
C593 C 0.7831 0.51272 0.39429 0.0
C594 C 0.80428 0.49458 0.40022 0.0
H595 H 0.54261 0.30226 0.40366 0.0
H596 H 0.54313 0.29226 0.26552 0.0
H597 H 0.57517 0.36125 0.25902 0.0
H598 H 0.60777 0.42378 0.29242 0.0
H599 H 0.60969 0.43446 0.43054 0.0
H600 H 0.57141 0.36533 0.43701 0.0
C601 C 0.54931 0.31501 0.37202 0.0
C602 C 0.54072 0.29194 0.33511 0.0
C603 C 0.56829 0.35472 0.3685 0.0
C604 C 0.54946 0.30918 0.29447 0.0
C605 C 0.5679 0.34867 0.29072 0.0
C606 C 0.59955 0.41124 0.32406 0.0
C607 C 0.61195 0.43445 0.36099 0.0
C608 C 0.57818 0.37164 0.32754 0.0
C609 C 0.60066 0.4174 0.40158 0.0
C610 C 0.5789 0.37785 0.40529 0.0
H611 H 0.62349 0.20609 0.30196 0.0
H612 H 0.61595 0.2193 0.43865 0.0
H613 H 0.68523 0.25257 0.44389 0.0
H614 H 0.74741 0.28347 0.40866 0.0
H615 H 0.75483 0.27171 0.27166 0.0
H616 H 0.68574 0.2321 0.26774 0.0
C617 C 0.63682 0.2157 0.33311 0.0
C618 C 0.61435 0.21048 0.36982 0.0
C619 C 0.67662 0.23541 0.33578 0.0
C620 C 0.63237 0.22293 0.40985 0.0
C621 C 0.67204 0.24218 0.41283 0.0
C622 C 0.73412 0.27193 0.37792 0.0
C623 C 0.75647 0.28095 0.34041 0.0
C624 C 0.69439 0.24948 0.37582 0.0
C625 C 0.73849 0.26541 0.30102 0.0
C626 C 0.69894 0.24281 0.29873 0.0
H627 H 0.433 0.83602 0.74474 0.0
H628 H 0.43136 0.84082 0.60623 0.0
H629 H 0.47019 0.81058 0.60187 0.0
H630 H 0.49967 0.778 0.6368 0.0
H631 H 0.49808 0.7695 0.77511 0.0
H632 H 0.46583 0.80656 0.77991 0.0
C633 C 0.44141 0.83089 0.71352 0.0
C634 C 0.42898 0.84062 0.67585 0.0
C635 C 0.46307 0.81271 0.71115 0.0
C636 C 0.44037 0.8337 0.63578 0.0
C637 C 0.46253 0.81628 0.63323 0.0
C638 C 0.49274 0.78453 0.66814 0.0
C639 C 0.50109 0.77058 0.70553 0.0
C640 C 0.47333 0.80495 0.67066 0.0
C641 C 0.49196 0.77968 0.74575 0.0
C642 C 0.47335 0.80076 0.74854 0.0
H643 H 0.26348 0.75886 0.62723 0.0
H644 H 0.27024 0.76401 0.76572 0.0
H645 H 0.2316 0.69486 0.76917 0.0
H646 H 0.20207 0.63308 0.73282 0.0
H647 H 0.19886 0.62822 0.59419 0.0
H648 H 0.22975 0.69734 0.59111 0.0
C649 C 0.25619 0.74507 0.65832 0.0
C650 C 0.27023 0.76681 0.69617 0.0
C651 C 0.23481 0.70528 0.66007 0.0
C652 C 0.26005 0.74816 0.73603 0.0
C653 C 0.23806 0.70855 0.73804 0.0
C654 C 0.20761 0.64697 0.70184 0.0
C655 C 0.19842 0.62528 0.66377 0.0
C656 C 0.22622 0.68681 0.70022 0.0
C657 C 0.20571 0.64402 0.62404 0.0
C658 C 0.22352 0.68362 0.62222 0.0
H659 H 0.29185 0.55458 0.6222 0.0
H660 H 0.27793 0.54473 0.75998 0.0
H661 H 0.34656 0.57352 0.76883 0.0
H662 H 0.41032 0.60632 0.73803 0.0
H663 H 0.42457 0.6192 0.60048 0.0
H664 H 0.35565 0.5837 0.59113 0.0
C665 C 0.30365 0.55831 0.65424 0.0
C666 C 0.27961 0.54777 0.6904 0.0
C667 C 0.34317 0.5755 0.65918 0.0
C668 C 0.29562 0.55271 0.73156 0.0
C669 C 0.33492 0.56924 0.73668 0.0
C670 C 0.39854 0.60109 0.70587 0.0
C671 C 0.42277 0.61583 0.67002 0.0
C672 C 0.35896 0.58149 0.70076 0.0
C673 C 0.40673 0.60837 0.62869 0.0
C674 C 0.36728 0.5882 0.62331 0.0
H675 H 0.12645 0.29168 0.83464 0.0
H676 H 0.07265 0.33038 0.92541 0.0
H677 H 0.09223 0.38759 0.8827 0.0
H678 H 0.12193 0.42507 0.81806 0.0
H679 H 0.17401 0.38549 0.72595 0.0
H680 H 0.1575 0.33001 0.77065 0.0
C681 C 0.11952 0.3129 0.84548 0.0
C682 C 0.09828 0.30683 0.88332 0.0
C683 C 0.13008 0.34531 0.82022 0.0
C684 C 0.08906 0.33439 0.89649 0.0
C685 C 0.10009 0.36703 0.87198 0.0
C686 C 0.12972 0.40436 0.80767 0.0
C687 C 0.14909 0.40945 0.76855 0.0
C688 C 0.12008 0.37249 0.83346 0.0
C689 C 0.159 0.38229 0.7558 0.0
C690 C 0.14965 0.35057 0.78141 0.0
H691 H 0.7552 0.83536 0.86756 0.0
H692 H 0.68147 0.7821 0.97594 0.0
H693 H 0.62604 0.75402 0.92804 0.0
H694 H 0.59944 0.74158 0.85466 0.0
H695 H 0.67348 0.79746 0.74711 0.0
H696 H 0.72817 0.82766 0.7955 0.0
C697 C 0.72694 0.81783 0.88075 0.0
C698 C 0.72233 0.81042 0.9251 0.0
C699 C 0.69546 0.8021 0.85316 0.0
C700 C 0.68561 0.78822 0.94191 0.0
C701 C 0.65403 0.772 0.9145 0.0
C702 C 0.62757 0.76049 0.8419 0.0
C703 C 0.6326 0.76698 0.79736 0.0
C704 C 0.65874 0.77821 0.86999 0.0
C705 C 0.66898 0.79201 0.78125 0.0
C706 C 0.70022 0.80919 0.80887 0.0
H707 H 0.25377 0.85065 0.86497 0.0
H708 H 0.30299 0.9451 0.77681 0.0
H709 H 0.28018 0.97922 0.82133 0.0
H710 H 0.24792 0.983 0.88605 0.0
H711 H 0.20029 0.88953 0.9756 0.0
H712 H 0.22112 0.85437 0.9298 0.0
C713 C 0.25918 0.87853 0.85521 0.0
C714 C 0.27991 0.89518 0.81741 0.0
C715 C 0.2466 0.89831 0.88141 0.0
C716 C 0.28706 0.93156 0.80563 0.0
C717 C 0.27411 0.95115 0.83115 0.0
C718 C 0.24199 0.95491 0.89565 0.0
C719 C 0.22249 0.93896 0.93432 0.0
C720 C 0.25416 0.93494 0.86928 0.0
C721 C 0.21527 0.90256 0.94613 0.0
C722 C 0.2271 0.88239 0.91988 0.0
H723 H 0.43698 0.16582 0.18906 0.0
H724 H 0.36348 0.14595 0.29773 0.0
H725 H 0.30833 0.12133 0.24991 0.0
H726 H 0.28085 0.10218 0.17787 0.0
H727 H 0.35423 0.12504 0.06847 0.0
H728 H 0.40996 0.15242 0.1159 0.0
C729 C 0.40887 0.15623 0.20217 0.0
C730 C 0.40408 0.15718 0.24682 0.0
C731 C 0.37749 0.14283 0.17442 0.0
C732 C 0.36774 0.14539 0.26346 0.0
C733 C 0.33627 0.13126 0.23617 0.0
C734 C 0.30912 0.11351 0.1644 0.0
C735 C 0.31357 0.11135 0.11988 0.0
C736 C 0.34078 0.12939 0.19172 0.0
C737 C 0.35024 0.12655 0.10265 0.0
C738 C 0.38199 0.14192 0.12977 0.0
H739 H 0.97473 0.25214 0.14464 0.0
H740 H 0.8673 0.15308 0.11394 0.0
H741 H 0.83437 0.17551 0.16124 0.0
H742 H 0.83618 0.2236 0.21083 0.0
H743 H 0.94425 0.32109 0.24407 0.0
H744 H 0.97687 0.29855 0.19696 0.0
C745 C 0.94406 0.23567 0.14803 0.0
C746 C 0.92335 0.2013 0.12538 0.0
C747 C 0.9255 0.24817 0.17619 0.0
C748 C 0.88377 0.17977 0.13083 0.0
C749 C 0.86498 0.19251 0.15796 0.0
C750 C 0.8669 0.23975 0.2081 0.0
C751 C 0.88764 0.27402 0.23098 0.0
C752 C 0.88557 0.22663 0.18089 0.0
C753 C 0.92749 0.29449 0.22712 0.0
C754 C 0.94621 0.28179 0.19988 0.0
H755 H 0.74994 0.60855 0.18367 0.0
H756 H 0.79956 0.68762 0.28891 0.0
H757 H 0.82897 0.74046 0.23811 0.0
H758 H 0.83693 0.76427 0.16442 0.0
H759 H 0.7887 0.68553 0.05878 0.0
H760 H 0.76268 0.63212 0.10926 0.0
C761 C 0.76735 0.63735 0.19548 0.0
C762 C 0.77222 0.64428 0.24003 0.0
C763 C 0.78434 0.66747 0.1661 0.0
C764 C 0.79537 0.6816 0.25483 0.0
C765 C 0.81206 0.71178 0.22581 0.0
C766 C 0.82094 0.73538 0.15238 0.0
C767 C 0.81431 0.72878 0.10799 0.0
C768 C 0.8062 0.70506 0.18148 0.0
C769 C 0.79417 0.69127 0.09278 0.0
C770 C 0.77913 0.66081 0.12165 0.0
H771 H 0.09893 0.50069 0.51225 0.0
H772 H 0.02554 0.47483 0.62229 0.0
H773 H 0.9699 0.44907 0.57512 0.0
H774 H 0.94209 0.43142 0.5029 0.0
H775 H 0.01553 0.46028 0.3925 0.0
H776 H 0.07139 0.48777 0.43953 0.0
C777 C 0.07073 0.48952 0.52585 0.0
C778 C 0.06622 0.48927 0.57067 0.0
C779 C 0.03902 0.47538 0.49851 0.0
C780 C 0.02967 0.47531 0.58789 0.0
C781 C 0.99789 0.4605 0.56095 0.0
C782 C 0.97036 0.44394 0.48913 0.0
C783 C 0.97475 0.44356 0.44435 0.0
C784 C 0.00222 0.46003 0.51628 0.0
C785 C 0.01149 0.46033 0.42687 0.0
C786 C 0.04337 0.47586 0.45375 0.0
H787 H 0.58168 0.52143 0.51524 0.0
H788 H 0.63563 0.61788 0.43017 0.0
H789 H 0.61499 0.65305 0.47618 0.0
H790 H 0.58404 0.65734 0.54205 0.0
H791 H 0.53179 0.56141 0.62809 0.0
H792 H 0.54971 0.52525 0.58025 0.0
C793 C 0.58853 0.54996 0.50635 0.0
C794 C 0.61007 0.56689 0.46912 0.0
C795 C 0.57731 0.5703 0.53343 0.0
C796 C 0.61899 0.60408 0.45851 0.0
C797 C 0.60736 0.62428 0.48493 0.0
C798 C 0.57654 0.62852 0.55043 0.0
C799 C 0.55666 0.61221 0.58879 0.0
C800 C 0.58698 0.60787 0.52278 0.0
C801 C 0.54714 0.57477 0.59892 0.0
C802 C 0.55731 0.55401 0.5715 0.0
H803 H 0.39585 0.98237 0.56789 0.0
H804 H 0.47497 0.94638 0.52826 0.0
H805 H 0.50496 -0.0003 0.47858 0.0
H806 H 0.50787 0.0559 0.44483 0.0
H807 H 0.42885 0.09185 0.48507 0.0
H808 H 0.39972 0.03922 0.53558 0.0
C809 C 0.4199 0.98638 0.54874 0.0
C810 C 0.43306 0.96033 0.5519 0.0
C811 C 0.43689 0.01697 0.51987 0.0
C812 C 0.46416 0.96593 0.52655 0.0
C813 C 0.4813 0.99639 0.49795 0.0
C814 C 0.48419 0.05211 0.46452 0.0
C815 C 0.47057 0.07776 0.46097 0.0
C816 C 0.46767 0.02188 0.49397 0.0
C817 C 0.44002 0.07259 0.48708 0.0
C818 C 0.4233 0.04249 0.51609 0.0
loop_
_geom_bond_atom_site_label_1
_geom_bond_atom_site_label_2
_geom_bond_distance
_geom_bond_site_symmetry_2
_ccdc_geom_bond_type
Co0 O2 2.143 . S
Co0 O8 2.074 . S
Co0 O11 2.093 1_455 S
Co0 O24 2.097 1_455 S
Co0 N41 2.151 . S
Co0 N49 2.214 . S
Co1 O2 2.160 1_556 S
Co1 O7 2.058 . S
Co1 O17 2.057 . S
Co1 O32 2.037 1_455 S
Co1 N36 2.145 . S
Co1 N57 2.257 1_455 S
O2 Co0 2.143 . S
O2 Co1 2.160 1_554 S
C3 O4 1.278 . S
C3 O11 1.224 . S
O4 C3 1.278 . S
C5 O6 1.245 . S
C5 O17 1.232 . S
O6 C5 1.245 . S
O7 Co1 2.058 . S
O7 C33 1.269 1_556 S
O8 Co0 2.074 . S
O8 C33 1.257 . S
H9 C34 0.930 . S
H10 C40 0.930 . S
O11 Co0 2.093 1_655 S
O11 C3 1.224 . S
H12 C44 0.929 . S
H13 C46 0.930 . S
H14 C47 0.930 . S
H15 C45 0.929 . S
H16 C48 0.928 . S
O17 Co1 2.057 . S
O17 C5 1.232 . S
H18 C37 0.929 . S
H19 C38 0.929 . S
H20 C50 0.931 . S
H21 C42 0.929 . S
H22 C51 0.930 . S
H23 C43 0.931 . S
O24 Co0 2.097 1_655 S
O24 C52 1.214 . S
H25 C53 0.929 . S
H26 C54 0.929 . S
H27 C55 0.930 . S
H28 C56 0.929 . S
H29 C58 0.930 . S
H30 C35 0.930 . S
H31 C39 0.930 . S
O32 Co1 2.037 1_655 S
O32 C52 1.234 1_556 S
C33 O7 1.269 1_554 S
C33 O8 1.257 . S
C34 H9 0.930 . S
C34 C37 1.388 . S
C34 C39 1.418 . S
C35 H30 0.930 . S
C35 C38 1.404 . S
C35 C39 1.353 1_455 S
N36 Co1 2.145 . S
N36 C37 1.397 1_455 S
N36 C38 1.334 . S
C37 H18 0.929 . S
C37 C34 1.388 . S
C37 N36 1.397 1_655 S
C38 H19 0.929 . S
C38 C35 1.404 . S
C38 N36 1.334 . S
C39 H31 0.930 . S
C39 C34 1.418 . S
C39 C35 1.353 1_655 S
C40 H10 0.930 . S
C40 N41 1.330 . S
C40 C42 1.446 . S
N41 Co0 2.151 . S
N41 C40 1.330 . S
N41 C45 1.418 . S
C42 H21 0.929 . S
C42 C40 1.446 . S
C42 C43 1.332 . S
C43 H23 0.931 . S
C43 C42 1.332 . S
C43 C44 1.267 . S
C44 H12 0.929 . S
C44 C43 1.267 . S
C44 C45 1.251 . S
C45 H15 0.929 . S
C45 N41 1.418 . S
C45 C44 1.251 . S
C46 H13 0.930 . S
C46 C48 1.406 . S
C46 C51 1.261 . S
C47 H14 0.930 . S
C47 N49 1.325 . S
C47 C50 1.357 . S
C48 H16 0.928 . S
C48 C46 1.406 . S
C48 N49 1.261 . S
N49 Co0 2.214 . S
N49 C47 1.325 . S
N49 C48 1.261 . S
C50 H20 0.931 . S
C50 C47 1.357 . S
C50 C51 1.312 . S
C51 H22 0.930 . S
C51 C46 1.261 . S
C51 C50 1.312 . S
C52 O24 1.214 . S
C52 O32 1.234 1_554 S
C53 H25 0.929 . S
C53 C56 1.391 . S
C53 C58 1.391 . S
C54 H26 0.929 . S
C54 C55 1.390 . S
C54 N57 1.391 . S
C55 H27 0.930 . S
C55 C54 1.390 . S
C55 C56 1.392 . S
C56 H28 0.929 . S
C56 C53 1.391 . S
C56 C55 1.392 . S
N57 Co1 2.257 1_655 S
N57 C54 1.391 . S
N57 C58 1.388 . S
C58 H29 0.930 . S
C58 C53 1.391 . S
C58 N57 1.388 . S
Co59 O61 2.143 1_556 S
Co59 O67 2.074 . S
Co59 O70 2.093 . S
Co59 O83 2.097 . S
Co59 N100 2.151 . S
Co59 N108 2.214 . S
Co60 O61 2.160 . S
Co60 O66 2.058 . S
Co60 O76 2.057 . S
Co60 O91 2.037 . S
Co60 N95 2.145 . S
Co60 N116 2.257 . S
O61 Co59 2.143 1_554 S
O61 Co60 2.160 . S
C62 O63 1.278 . S
C62 O70 1.224 . S
O63 C62 1.278 . S
C64 O65 1.245 . S
C64 O76 1.232 . S
O65 C64 1.245 . S
O66 Co60 2.058 . S
O66 C92 1.269 . S
O67 Co59 2.074 . S
O67 C92 1.257 1_556 S
H68 C93 0.930 . S
H69 C99 0.930 . S
O70 Co59 2.093 . S
O70 C62 1.224 . S
H71 C103 0.929 . S
H72 C105 0.930 . S
H73 C106 0.930 . S
H74 C104 0.929 . S
H75 C107 0.928 . S
O76 Co60 2.057 . S
O76 C64 1.232 . S
H77 C96 0.929 . S
H78 C97 0.929 . S
H79 C109 0.931 . S
H80 C101 0.929 . S
H81 C110 0.930 . S
H82 C102 0.931 . S
O83 Co59 2.097 . S
O83 C111 1.214 1_556 S
H84 C112 0.929 . S
H85 C113 0.929 . S
H86 C114 0.930 . S
H87 C115 0.929 . S
H88 C117 0.930 . S
H89 C94 0.930 . S
H90 C98 0.930 . S
O91 Co60 2.037 . S
O91 C111 1.234 . S
C92 O66 1.269 . S
C92 O67 1.257 1_554 S
C93 H68 0.930 . S
C93 C96 1.388 . S
C93 C98 1.418 . S
C94 H89 0.930 . S
C94 C97 1.404 . S
C94 C98 1.353 . S
N95 Co60 2.145 . S
N95 C96 1.397 . S
N95 C97 1.334 . S
C96 H77 0.929 . S
C96 C93 1.388 . S
C96 N95 1.397 . S
C97 H78 0.929 . S
C97 C94 1.404 . S
C97 N95 1.334 . S
C98 H90 0.930 . S
C98 C93 1.418 . S
C98 C94 1.353 . S
C99 H69 0.930 . S
C99 N100 1.330 . S
C99 C101 1.446 . S
N100 Co59 2.151 . S
N100 C99 1.330 . S
N100 C104 1.418 . S
C101 H80 0.929 . S
C101 C99 1.446 . S
C101 C102 1.332 . S
C102 H82 0.931 . S
C102 C101 1.332 . S
C102 C103 1.267 . S
C103 H71 0.929 . S
C103 C102 1.267 . S
C103 C104 1.251 . S
C104 H74 0.929 . S
C104 N100 1.418 . S
C104 C103 1.251 . S
C105 H72 0.930 . S
C105 C107 1.406 . S
C105 C110 1.261 . S
C106 H73 0.930 . S
C106 N108 1.325 . S
C106 C109 1.357 . S
C107 H75 0.928 . S
C107 C105 1.406 . S
C107 N108 1.261 . S
N108 Co59 2.214 . S
N108 C106 1.325 . S
N108 C107 1.261 . S
C109 H79 0.931 . S
C109 C106 1.357 . S
C109 C110 1.312 . S
C110 H81 0.930 . S
C110 C105 1.261 . S
C110 C109 1.312 . S
C111 O83 1.214 1_554 S
C111 O91 1.234 . S
C112 H84 0.929 . S
C112 C115 1.391 . S
C112 C117 1.391 . S
C113 H85 0.929 . S
C113 C114 1.390 . S
C113 N116 1.391 . S
C114 H86 0.930 . S
C114 C113 1.390 . S
C114 C115 1.392 . S
C115 H87 0.929 . S
C115 C112 1.391 . S
C115 C114 1.392 . S
N116 Co60 2.257 . S
N116 C113 1.391 . S
N116 C117 1.388 . S
C117 H88 0.930 . S
C117 C112 1.391 . S
C117 N116 1.388 . S
Co118 O120 2.143 . S
Co118 O126 2.074 1_545 S
Co118 O129 2.093 . S
Co118 O142 2.097 . S
Co118 N159 2.151 1_545 S
Co118 N167 2.214 . S
Co119 O120 2.160 1_556 S
Co119 O125 2.058 1_545 S
Co119 O135 2.057 . S
Co119 O150 2.037 . S
Co119 N154 2.145 . S
Co119 N175 2.257 . S
O120 Co118 2.143 . S
O120 Co119 2.160 1_554 S
C121 O122 1.278 . S
C121 O129 1.224 . S
O122 C121 1.278 . S
C123 O124 1.245 . S
C123 O135 1.232 1_565 S
O124 C123 1.245 . S
O125 Co119 2.058 1_565 S
O125 C151 1.269 1_556 S
O126 Co118 2.074 1_565 S
O126 C151 1.257 . S
H127 C152 0.930 . S
H128 C158 0.930 . S
O129 Co118 2.093 . S
O129 C121 1.224 . S
H130 C162 0.929 . S
H131 C164 0.930 . S
H132 C165 0.930 . S
H133 C163 0.929 . S
H134 C166 0.928 . S
O135 Co119 2.057 . S
O135 C123 1.232 1_545 S
H136 C155 0.929 . S
H137 C156 0.929 . S
H138 C168 0.931 . S
H139 C160 0.929 . S
H140 C169 0.930 . S
H141 C161 0.931 . S
O142 Co118 2.097 . S
O142 C170 1.214 . S
H143 C171 0.929 . S
H144 C172 0.929 . S
H145 C173 0.930 . S
H146 C174 0.929 . S
H147 C176 0.930 . S
H148 C153 0.930 . S
H149 C157 0.930 . S
O150 Co119 2.037 . S
O150 C170 1.234 1_556 S
C151 O125 1.269 1_554 S
C151 O126 1.257 . S
C152 H127 0.930 . S
C152 C155 1.388 . S
C152 C157 1.418 . S
C153 H148 0.930 . S
C153 C156 1.404 . S
C153 C157 1.353 . S
N154 Co119 2.145 . S
N154 C155 1.397 . S
N154 C156 1.334 . S
C155 H136 0.929 . S
C155 C152 1.388 . S
C155 N154 1.397 . S
C156 H137 0.929 . S
C156 C153 1.404 . S
C156 N154 1.334 . S
C157 H149 0.930 . S
C157 C152 1.418 . S
C157 C153 1.353 . S
C158 H128 0.930 . S
C158 N159 1.330 . S
C158 C160 1.446 . S
N159 Co118 2.151 1_565 S
N159 C158 1.330 . S
N159 C163 1.418 . S
C160 H139 0.929 . S
C160 C158 1.446 . S
C160 C161 1.332 . S
C161 H141 0.931 . S
C161 C160 1.332 . S
C161 C162 1.267 . S
C162 H130 0.929 . S
C162 C161 1.267 . S
C162 C163 1.251 . S
C163 H133 0.929 . S
C163 N159 1.418 . S
C163 C162 1.251 . S
C164 H131 0.930 . S
C164 C166 1.406 . S
C164 C169 1.261 . S
C165 H132 0.930 . S
C165 N167 1.325 . S
C165 C168 1.357 . S
C166 H134 0.928 . S
C166 C164 1.406 . S
C166 N167 1.261 . S
N167 Co118 2.214 . S
N167 C165 1.325 . S
N167 C166 1.261 . S
C168 H138 0.931 . S
C168 C165 1.357 . S
C168 C169 1.312 . S
C169 H140 0.930 . S
C169 C164 1.261 . S
C169 C168 1.312 . S
C170 O142 1.214 . S
C170 O150 1.234 1_554 S
C171 H143 0.929 . S
C171 C174 1.391 . S
C171 C176 1.391 . S
C172 H144 0.929 . S
C172 C173 1.390 . S
C172 N175 1.391 . S
C173 H145 0.930 . S
C173 C172 1.390 . S
C173 C174 1.392 . S
C174 H146 0.929 . S
C174 C171 1.391 . S
C174 C173 1.392 . S
N175 Co119 2.257 . S
N175 C172 1.391 . S
N175 C176 1.388 . S
C176 H147 0.930 . S
C176 C171 1.391 . S
C176 N175 1.388 . S
Co177 O179 2.143 . S
Co177 O185 2.074 . S
Co177 O188 2.093 . S
Co177 O201 2.097 . S
Co177 N218 2.151 . S
Co177 N226 2.214 . S
Co178 O179 2.160 . S
Co178 O184 2.058 . S
Co178 O194 2.057 . S
Co178 O209 2.037 . S
Co178 N213 2.145 . S
Co178 N234 2.257 . S
O179 Co177 2.143 . S
O179 Co178 2.160 . S
C180 O181 1.278 . S
C180 O188 1.224 . S
O181 C180 1.278 . S
C182 O183 1.245 . S
C182 O194 1.232 . S
O183 C182 1.245 . S
O184 Co178 2.058 . S
O184 C210 1.269 . S
O185 Co177 2.074 . S
O185 C210 1.257 . S
H186 C211 0.930 . S
H187 C217 0.930 . S
O188 Co177 2.093 . S
O188 C180 1.224 . S
H189 C221 0.929 . S
H190 C223 0.930 . S
H191 C224 0.930 . S
H192 C222 0.929 . S
H193 C225 0.928 . S
O194 Co178 2.057 . S
O194 C182 1.232 . S
H195 C214 0.929 . S
H196 C215 0.929 . S
H197 C227 0.931 . S
H198 C219 0.929 . S
H199 C228 0.930 . S
H200 C220 0.931 . S
O201 Co177 2.097 . S
O201 C229 1.214 . S
H202 C230 0.929 . S
H203 C231 0.929 . S
H204 C232 0.930 . S
H205 C233 0.929 . S
H206 C235 0.930 . S
H207 C212 0.930 . S
H208 C216 0.930 . S
O209 Co178 2.037 . S
O209 C229 1.234 . S
C210 O184 1.269 . S
C210 O185 1.257 . S
C211 H186 0.930 . S
C211 C214 1.388 . S
C211 C216 1.418 . S
C212 H207 0.930 . S
C212 C215 1.404 . S
C212 C216 1.353 . S
N213 Co178 2.145 . S
N213 C214 1.397 . S
N213 C215 1.334 . S
C214 H195 0.929 . S
C214 C211 1.388 . S
C214 N213 1.397 . S
C215 H196 0.929 . S
C215 C212 1.404 . S
C215 N213 1.334 . S
C216 H208 0.930 . S
C216 C211 1.418 . S
C216 C212 1.353 . S
C217 H187 0.930 . S
C217 N218 1.330 . S
C217 C219 1.446 . S
N218 Co177 2.151 . S
N218 C217 1.330 . S
N218 C222 1.418 . S
C219 H198 0.929 . S
C219 C217 1.446 . S
C219 C220 1.332 . S
C220 H200 0.931 . S
C220 C219 1.332 . S
C220 C221 1.267 . S
C221 H189 0.929 . S
C221 C220 1.267 . S
C221 C222 1.251 . S
C222 H192 0.929 . S
C222 N218 1.418 . S
C222 C221 1.251 . S
C223 H190 0.930 . S
C223 C225 1.406 . S
C223 C228 1.261 . S
C224 H191 0.930 . S
C224 N226 1.325 . S
C224 C227 1.357 . S
C225 H193 0.928 . S
C225 C223 1.406 . S
C225 N226 1.261 . S
N226 Co177 2.214 . S
N226 C224 1.325 . S
N226 C225 1.261 . S
C227 H197 0.931 . S
C227 C224 1.357 . S
C227 C228 1.312 . S
C228 H199 0.930 . S
C228 C223 1.261 . S
C228 C227 1.312 . S
C229 O201 1.214 . S
C229 O209 1.234 . S
C230 H202 0.929 . S
C230 C233 1.391 . S
C230 C235 1.391 . S
C231 H203 0.929 . S
C231 C232 1.390 . S
C231 N234 1.391 . S
C232 H204 0.930 . S
C232 C231 1.390 . S
C232 C233 1.392 . S
C233 H205 0.929 . S
C233 C230 1.391 . S
C233 C232 1.392 . S
N234 Co178 2.257 . S
N234 C231 1.391 . S
N234 C235 1.388 . S
C235 H206 0.930 . S
C235 C230 1.391 . S
C235 N234 1.388 . S
Co236 O238 2.143 . S
Co236 O244 2.074 . S
Co236 O247 2.093 . S
Co236 O260 2.097 . S
Co236 N277 2.151 . S
Co236 N285 2.214 . S
Co237 O238 2.160 . S
Co237 O243 2.058 . S
Co237 O253 2.057 . S
Co237 O268 2.037 . S
Co237 N272 2.145 . S
Co237 N293 2.257 . S
O238 Co236 2.143 . S
O238 Co237 2.160 . S
C239 O240 1.278 . S
C239 O247 1.224 . S
O240 C239 1.278 . S
C241 O242 1.245 . S
C241 O253 1.232 . S
O242 C241 1.245 . S
O243 Co237 2.058 . S
O243 C269 1.269 . S
O244 Co236 2.074 . S
O244 C269 1.257 . S
H245 C270 0.930 . S
H246 C276 0.930 . S
O247 Co236 2.093 . S
O247 C239 1.224 . S
H248 C280 0.929 . S
H249 C282 0.930 . S
H250 C283 0.930 . S
H251 C281 0.929 . S
H252 C284 0.928 . S
O253 Co237 2.057 . S
O253 C241 1.232 . S
H254 C273 0.929 . S
H255 C274 0.929 . S
H256 C286 0.931 . S
H257 C278 0.929 . S
H258 C287 0.930 . S
H259 C279 0.931 . S
O260 Co236 2.097 . S
O260 C288 1.214 . S
H261 C289 0.929 . S
H262 C290 0.929 . S
H263 C291 0.930 . S
H264 C292 0.929 . S
H265 C294 0.930 . S
H266 C271 0.930 . S
H267 C275 0.930 . S
O268 Co237 2.037 . S
O268 C288 1.234 . S
C269 O243 1.269 . S
C269 O244 1.257 . S
C270 H245 0.930 . S
C270 C273 1.388 . S
C270 C275 1.418 . S
C271 H266 0.930 . S
C271 C274 1.404 . S
C271 C275 1.353 . S
N272 Co237 2.145 . S
N272 C273 1.397 . S
N272 C274 1.334 . S
C273 H254 0.929 . S
C273 C270 1.388 . S
C273 N272 1.397 . S
C274 H255 0.929 . S
C274 C271 1.404 . S
C274 N272 1.334 . S
C275 H267 0.930 . S
C275 C270 1.418 . S
C275 C271 1.353 . S
C276 H246 0.930 . S
C276 N277 1.330 . S
C276 C278 1.446 . S
N277 Co236 2.151 . S
N277 C276 1.330 . S
N277 C281 1.418 . S
C278 H257 0.929 . S
C278 C276 1.446 . S
C278 C279 1.332 . S
C279 H259 0.931 . S
C279 C278 1.332 . S
C279 C280 1.267 . S
C280 H248 0.929 . S
C280 C279 1.267 . S
C280 C281 1.251 . S
C281 H251 0.929 . S
C281 N277 1.418 . S
C281 C280 1.251 . S
C282 H249 0.930 . S
C282 C284 1.406 . S
C282 C287 1.261 . S
C283 H250 0.930 . S
C283 N285 1.325 . S
C283 C286 1.357 . S
C284 H252 0.928 . S
C284 C282 1.406 . S
C284 N285 1.261 . S
N285 Co236 2.214 . S
N285 C283 1.325 . S
N285 C284 1.261 . S
C286 H256 0.931 . S
C286 C283 1.357 . S
C286 C287 1.312 . S
C287 H258 0.930 . S
C287 C282 1.261 . S
C287 C286 1.312 . S
C288 O260 1.214 . S
C288 O268 1.234 . S
C289 H261 0.929 . S
C289 C292 1.391 . S
C289 C294 1.391 . S
C290 H262 0.929 . S
C290 C291 1.390 . S
C290 N293 1.391 . S
C291 H263 0.930 . S
C291 C290 1.390 . S
C291 C292 1.392 . S
C292 H264 0.929 . S
C292 C289 1.391 . S
C292 C291 1.392 . S
N293 Co237 2.257 . S
N293 C290 1.391 . S
N293 C294 1.388 . S
C294 H265 0.930 . S
C294 C289 1.391 . S
C294 N293 1.388 . S
Co295 O297 2.143 . S
Co295 O303 2.074 . S
Co295 O306 2.093 . S
Co295 O319 2.097 . S
Co295 N336 2.151 . S
Co295 N344 2.214 . S
Co296 O297 2.160 . S
Co296 O302 2.058 . S
Co296 O312 2.057 . S
Co296 O327 2.037 . S
Co296 N331 2.145 . S
Co296 N352 2.257 . S
O297 Co295 2.143 . S
O297 Co296 2.160 . S
C298 O299 1.278 . S
C298 O306 1.224 . S
O299 C298 1.278 . S
C300 O301 1.245 . S
C300 O312 1.232 . S
O301 C300 1.245 . S
O302 Co296 2.058 . S
O302 C328 1.269 . S
O303 Co295 2.074 . S
O303 C328 1.257 . S
H304 C329 0.930 . S
H305 C335 0.930 . S
O306 Co295 2.093 . S
O306 C298 1.224 . S
H307 C339 0.929 . S
H308 C341 0.930 . S
H309 C342 0.930 . S
H310 C340 0.929 . S
H311 C343 0.928 . S
O312 Co296 2.057 . S
O312 C300 1.232 . S
H313 C332 0.929 . S
H314 C333 0.929 . S
H315 C345 0.931 . S
H316 C337 0.929 . S
H317 C346 0.930 . S
H318 C338 0.931 . S
O319 Co295 2.097 . S
O319 C347 1.214 . S
H320 C348 0.929 . S
H321 C349 0.929 . S
H322 C350 0.930 . S
H323 C351 0.929 . S
H324 C353 0.930 . S
H325 C330 0.930 . S
H326 C334 0.930 . S
O327 Co296 2.037 . S
O327 C347 1.234 . S
C328 O302 1.269 . S
C328 O303 1.257 . S
C329 H304 0.930 . S
C329 C332 1.388 . S
C329 C334 1.418 . S
C330 H325 0.930 . S
C330 C333 1.404 . S
C330 C334 1.353 . S
N331 Co296 2.145 . S
N331 C332 1.397 . S
N331 C333 1.334 . S
C332 H313 0.929 . S
C332 C329 1.388 . S
C332 N331 1.397 . S
C333 H314 0.929 . S
C333 C330 1.404 . S
C333 N331 1.334 . S
C334 H326 0.930 . S
C334 C329 1.418 . S
C334 C330 1.353 . S
C335 H305 0.930 . S
C335 N336 1.330 . S
C335 C337 1.446 . S
N336 Co295 2.151 . S
N336 C335 1.330 . S
N336 C340 1.418 . S
C337 H316 0.929 . S
C337 C335 1.446 . S
C337 C338 1.332 . S
C338 H318 0.931 . S
C338 C337 1.332 . S
C338 C339 1.267 . S
C339 H307 0.929 . S
C339 C338 1.267 . S
C339 C340 1.251 . S
C340 H310 0.929 . S
C340 N336 1.418 . S
C340 C339 1.251 . S
C341 H308 0.930 . S
C341 C343 1.406 . S
C341 C346 1.261 . S
C342 H309 0.930 . S
C342 N344 1.325 . S
C342 C345 1.357 . S
C343 H311 0.928 . S
C343 C341 1.406 . S
C343 N344 1.261 . S
N344 Co295 2.214 . S
N344 C342 1.325 . S
N344 C343 1.261 . S
C345 H315 0.931 . S
C345 C342 1.357 . S
C345 C346 1.312 . S
C346 H317 0.930 . S
C346 C341 1.261 . S
C346 C345 1.312 . S
C347 O319 1.214 . S
C347 O327 1.234 . S
C348 H320 0.929 . S
C348 C351 1.391 . S
C348 C353 1.391 . S
C349 H321 0.929 . S
C349 C350 1.390 . S
C349 N352 1.391 . S
C350 H322 0.930 . S
C350 C349 1.390 . S
C350 C351 1.392 . S
C351 H323 0.929 . S
C351 C348 1.391 . S
C351 C350 1.392 . S
N352 Co296 2.257 . S
N352 C349 1.391 . S
N352 C353 1.388 . S
C353 H324 0.930 . S
C353 C348 1.391 . S
C353 N352 1.388 . S
Co354 O356 2.143 . S
Co354 O362 2.074 . S
Co354 O365 2.093 . S
Co354 O378 2.097 . S
Co354 N395 2.151 . S
Co354 N403 2.214 . S
Co355 O356 2.160 . S
Co355 O361 2.058 . S
Co355 O371 2.057 . S
Co355 O386 2.037 . S
Co355 N390 2.145 . S
Co355 N411 2.257 . S
O356 Co354 2.143 . S
O356 Co355 2.160 . S
C357 O358 1.278 . S
C357 O365 1.224 . S
O358 C357 1.278 . S
C359 O360 1.245 . S
C359 O371 1.232 . S
O360 C359 1.245 . S
O361 Co355 2.058 . S
O361 C387 1.269 . S
O362 Co354 2.074 . S
O362 C387 1.257 . S
H363 C388 0.930 . S
H364 C394 0.930 . S
O365 Co354 2.093 . S
O365 C357 1.224 . S
H366 C398 0.929 . S
H367 C400 0.930 . S
H368 C401 0.930 . S
H369 C399 0.929 . S
H370 C402 0.928 . S
O371 Co355 2.057 . S
O371 C359 1.232 . S
H372 C391 0.929 . S
H373 C392 0.929 . S
H374 C404 0.931 . S
H375 C396 0.929 1_545 S
H376 C405 0.930 . S
H377 C397 0.931 . S
O378 Co354 2.097 . S
O378 C406 1.214 . S
H379 C407 0.929 . S
H380 C408 0.929 . S
H381 C409 0.930 . S
H382 C410 0.929 . S
H383 C412 0.930 . S
H384 C389 0.930 . S
H385 C393 0.930 . S
O386 Co355 2.037 . S
O386 C406 1.234 . S
C387 O361 1.269 . S
C387 O362 1.257 . S
C388 H363 0.930 . S
C388 C391 1.388 . S
C388 C393 1.418 . S
C389 H384 0.930 . S
C389 C392 1.404 . S
C389 C393 1.353 . S
N390 Co355 2.145 . S
N390 C391 1.397 . S
N390 C392 1.334 . S
C391 H372 0.929 . S
C391 C388 1.388 . S
C391 N390 1.397 . S
C392 H373 0.929 . S
C392 C389 1.404 . S
C392 N390 1.334 . S
C393 H385 0.930 . S
C393 C388 1.418 . S
C393 C389 1.353 . S
C394 H364 0.930 . S
C394 N395 1.330 . S
C394 C396 1.446 . S
N395 Co354 2.151 . S
N395 C394 1.330 . S
N395 C399 1.418 . S
C396 H375 0.929 1_565 S
C396 C394 1.446 . S
C396 C397 1.332 . S
C397 H377 0.931 . S
C397 C396 1.332 . S
C397 C398 1.267 . S
C398 H366 0.929 . S
C398 C397 1.267 . S
C398 C399 1.251 . S
C399 H369 0.929 . S
C399 N395 1.418 . S
C399 C398 1.251 . S
C400 H367 0.930 . S
C400 C402 1.406 . S
C400 C405 1.261 . S
C401 H368 0.930 . S
C401 N403 1.325 . S
C401 C404 1.357 . S
C402 H370 0.928 . S
C402 C400 1.406 . S
C402 N403 1.261 . S
N403 Co354 2.214 . S
N403 C401 1.325 . S
N403 C402 1.261 . S
C404 H374 0.931 . S
C404 C401 1.357 . S
C404 C405 1.312 . S
C405 H376 0.930 . S
C405 C400 1.261 . S
C405 C404 1.312 . S
C406 O378 1.214 . S
C406 O386 1.234 . S
C407 H379 0.929 . S
C407 C410 1.391 . S
C407 C412 1.391 . S
C408 H380 0.929 . S
C408 C409 1.390 . S
C408 N411 1.391 . S
C409 H381 0.930 . S
C409 C408 1.390 . S
C409 C410 1.392 . S
C410 H382 0.929 . S
C410 C407 1.391 . S
C410 C409 1.392 . S
N411 Co355 2.257 . S
N411 C408 1.391 . S
N411 C412 1.388 . S
C412 H383 0.930 . S
C412 C407 1.391 . S
C412 N411 1.388 . S
Co413 O415 2.143 . S
Co413 O421 2.074 . S
Co413 O424 2.093 . S
Co413 O437 2.097 . S
Co413 N454 2.151 . S
Co413 N462 2.214 . S
Co414 O415 2.160 . S
Co414 O420 2.058 . S
Co414 O430 2.057 . S
Co414 O445 2.037 . S
Co414 N449 2.145 . S
Co414 N470 2.257 . S
O415 Co413 2.143 . S
O415 Co414 2.160 . S
C416 O417 1.278 . S
C416 O424 1.224 . S
O417 C416 1.278 . S
C418 O419 1.245 . S
C418 O430 1.232 . S
O419 C418 1.245 . S
O420 Co414 2.058 . S
O420 C446 1.269 . S
O421 Co413 2.074 . S
O421 C446 1.257 . S
H422 C447 0.930 . S
H423 C453 0.930 . S
O424 Co413 2.093 . S
O424 C416 1.224 . S
H425 C457 0.929 . S
H426 C459 0.930 . S
H427 C460 0.930 . S
H428 C458 0.929 . S
H429 C461 0.928 . S
O430 Co414 2.057 . S
O430 C418 1.232 . S
H431 C450 0.929 . S
H432 C451 0.929 . S
H433 C463 0.931 . S
H434 C455 0.929 . S
H435 C464 0.930 . S
H436 C456 0.931 . S
O437 Co413 2.097 . S
O437 C465 1.214 . S
H438 C466 0.929 . S
H439 C467 0.929 . S
H440 C468 0.930 . S
H441 C469 0.929 . S
H442 C471 0.930 . S
H443 C448 0.930 . S
H444 C452 0.930 . S
O445 Co414 2.037 . S
O445 C465 1.234 . S
C446 O420 1.269 . S
C446 O421 1.257 . S
C447 H422 0.930 . S
C447 C450 1.388 . S
C447 C452 1.418 . S
C448 H443 0.930 . S
C448 C451 1.404 . S
C448 C452 1.353 . S
N449 Co414 2.145 . S
N449 C450 1.397 . S
N449 C451 1.334 . S
C450 H431 0.929 . S
C450 C447 1.388 . S
C450 N449 1.397 . S
C451 H432 0.929 . S
C451 C448 1.404 . S
C451 N449 1.334 . S
C452 H444 0.930 . S
C452 C447 1.418 . S
C452 C448 1.353 . S
C453 H423 0.930 . S
C453 N454 1.330 . S
C453 C455 1.446 . S
N454 Co413 2.151 . S
N454 C453 1.330 . S
N454 C458 1.418 . S
C455 H434 0.929 . S
C455 C453 1.446 . S
C455 C456 1.332 . S
C456 H436 0.931 . S
C456 C455 1.332 . S
C456 C457 1.267 . S
C457 H425 0.929 . S
C457 C456 1.267 . S
C457 C458 1.251 . S
C458 H428 0.929 . S
C458 N454 1.418 . S
C458 C457 1.251 . S
C459 H426 0.930 . S
C459 C461 1.406 . S
C459 C464 1.261 . S
C460 H427 0.930 . S
C460 N462 1.325 . S
C460 C463 1.357 . S
C461 H429 0.928 . S
C461 C459 1.406 . S
C461 N462 1.261 . S
N462 Co413 2.214 . S
N462 C460 1.325 . S
N462 C461 1.261 . S
C463 H433 0.931 . S
C463 C460 1.357 . S
C463 C464 1.312 . S
C464 H435 0.930 . S
C464 C459 1.261 . S
C464 C463 1.312 . S
C465 O437 1.214 . S
C465 O445 1.234 . S
C466 H438 0.929 . S
C466 C469 1.391 . S
C466 C471 1.391 . S
C467 H439 0.929 . S
C467 C468 1.390 . S
C467 N470 1.391 . S
C468 H440 0.930 . S
C468 C467 1.390 . S
C468 C469 1.392 . S
C469 H441 0.929 . S
C469 C466 1.391 . S
C469 C468 1.392 . S
N470 Co414 2.257 . S
N470 C467 1.391 . S
N470 C471 1.388 . S
C471 H442 0.930 . S
C471 C466 1.391 . S
C471 N470 1.388 . S
Co472 O474 2.143 . S
Co472 O480 2.074 . S
Co472 O483 2.093 . S
Co472 O496 2.097 . S
Co472 N513 2.151 . S
Co472 N521 2.214 . S
Co473 O474 2.160 . S
Co473 O479 2.058 . S
Co473 O489 2.057 . S
Co473 O504 2.037 . S
Co473 N508 2.145 . S
Co473 N529 2.257 . S
O474 Co472 2.143 . S
O474 Co473 2.160 . S
C475 O476 1.278 . S
C475 O483 1.224 . S
O476 C475 1.278 . S
C477 O478 1.245 . S
C477 O489 1.232 . S
O478 C477 1.245 . S
O479 Co473 2.058 . S
O479 C505 1.269 . S
O480 Co472 2.074 . S
O480 C505 1.257 . S
H481 C506 0.930 . S
H482 C512 0.930 . S
O483 Co472 2.093 . S
O483 C475 1.224 . S
H484 C516 0.929 . S
H485 C518 0.930 . S
H486 C519 0.930 . S
H487 C517 0.929 . S
H488 C520 0.928 . S
O489 Co473 2.057 . S
O489 C477 1.232 . S
H490 C509 0.929 . S
H491 C510 0.929 . S
H492 C522 0.931 . S
H493 C514 0.929 . S
H494 C523 0.930 . S
H495 C515 0.931 . S
O496 Co472 2.097 . S
O496 C524 1.214 . S
H497 C525 0.929 . S
H498 C526 0.929 . S
H499 C527 0.930 . S
H500 C528 0.929 . S
H501 C530 0.930 . S
H502 C507 0.930 . S
H503 C511 0.930 . S
O504 Co473 2.037 . S
O504 C524 1.234 . S
C505 O479 1.269 . S
C505 O480 1.257 . S
C506 H481 0.930 . S
C506 C509 1.388 . S
C506 C511 1.418 . S
C507 H502 0.930 . S
C507 C510 1.404 . S
C507 C511 1.353 . S
N508 Co473 2.145 . S
N508 C509 1.397 . S
N508 C510 1.334 . S
C509 H490 0.929 . S
C509 C506 1.388 . S
C509 N508 1.397 . S
C510 H491 0.929 . S
C510 C507 1.404 . S
C510 N508 1.334 . S
C511 H503 0.930 . S
C511 C506 1.418 . S
C511 C507 1.353 . S
C512 H482 0.930 . S
C512 N513 1.330 . S
C512 C514 1.446 . S
N513 Co472 2.151 . S
N513 C512 1.330 . S
N513 C517 1.418 . S
C514 H493 0.929 . S
C514 C512 1.446 . S
C514 C515 1.332 . S
C515 H495 0.931 . S
C515 C514 1.332 . S
C515 C516 1.267 . S
C516 H484 0.929 . S
C516 C515 1.267 . S
C516 C517 1.251 . S
C517 H487 0.929 . S
C517 N513 1.418 . S
C517 C516 1.251 . S
C518 H485 0.930 . S
C518 C520 1.406 . S
C518 C523 1.261 . S
C519 H486 0.930 . S
C519 N521 1.325 . S
C519 C522 1.357 . S
C520 H488 0.928 . S
C520 C518 1.406 . S
C520 N521 1.261 . S
N521 Co472 2.214 . S
N521 C519 1.325 . S
N521 C520 1.261 . S
C522 H492 0.931 . S
C522 C519 1.357 . S
C522 C523 1.312 . S
C523 H494 0.930 . S
C523 C518 1.261 . S
C523 C522 1.312 . S
C524 O496 1.214 . S
C524 O504 1.234 . S
C525 H497 0.929 . S
C525 C528 1.391 . S
C525 C530 1.391 . S
C526 H498 0.929 . S
C526 C527 1.390 . S
C526 N529 1.391 . S
C527 H499 0.930 . S
C527 C526 1.390 . S
C527 C528 1.392 . S
C528 H500 0.929 . S
C528 C525 1.391 . S
C528 C527 1.392 . S
N529 Co473 2.257 . S
N529 C526 1.391 . S
N529 C530 1.388 . S
C530 H501 0.930 . S
C530 C525 1.391 . S
C530 N529 1.388 . S
H531 C537 0.930 . S
H532 C540 0.930 1_556 S
H533 C541 0.930 . S
H534 C542 0.930 . S
H535 C545 0.930 . S
H536 C546 0.930 . S
C537 H531 0.930 . S
C537 C538 1.355 . S
C537 C539 1.415 . S
C538 C537 1.355 . S
C538 C540 1.419 . S
C539 C537 1.415 . S
C539 C544 1.425 . S
C539 C546 1.409 . S
C540 H532 0.930 1_554 S
C540 C538 1.419 . S
C540 C541 1.362 1_554 S
C541 H533 0.930 . S
C541 C540 1.362 1_556 S
C541 C544 1.409 1_556 S
C542 H534 0.930 . S
C542 C543 1.355 1_556 S
C542 C544 1.415 1_556 S
C543 C542 1.355 1_554 S
C543 C545 1.419 . S
C544 C539 1.425 . S
C544 C541 1.409 1_554 S
C544 C542 1.415 1_554 S
C545 H535 0.930 . S
C545 C543 1.419 . S
C545 C546 1.362 . S
C546 H536 0.930 . S
C546 C539 1.409 . S
C546 C545 1.362 . S
H547 C553 0.930 . S
H548 C556 0.930 . S
H549 C557 0.930 . S
H550 C558 0.930 . S
H551 C561 0.930 . S
H552 C562 0.930 . S
C553 H547 0.930 . S
C553 C554 1.355 1_556 S
C553 C555 1.415 1_565 S
C554 C553 1.355 1_554 S
C554 C556 1.419 . S
C555 C553 1.415 1_545 S
C555 C560 1.425 1_556 S
C555 C562 1.409 . S
C556 H548 0.930 . S
C556 C554 1.419 . S
C556 C557 1.362 1_565 S
C557 H549 0.930 . S
C557 C556 1.362 1_545 S
C557 C560 1.409 . S
C558 H550 0.930 . S
C558 C559 1.355 . S
C558 C560 1.415 . S
C559 C558 1.355 . S
C559 C561 1.419 1_554 S
C560 C555 1.425 1_554 S
C560 C557 1.409 . S
C560 C558 1.415 . S
C561 H551 0.930 . S
C561 C559 1.419 1_556 S
C561 C562 1.362 . S
C562 H552 0.930 . S
C562 C555 1.409 . S
C562 C561 1.362 . S
H563 C569 0.930 . S
H564 C572 0.930 . S
H565 C573 0.930 1_455 S
H566 C574 0.930 . S
H567 C577 0.946 . S
H568 C578 0.930 . S
C569 H563 0.930 . S
C569 C570 1.355 . S
C569 C571 1.415 1_655 S
C570 C569 1.355 . S
C570 C572 1.419 1_554 S
C571 C569 1.415 1_455 S
C571 C576 1.425 . S
C571 C578 1.409 . S
C572 H564 0.930 . S
C572 C570 1.419 1_556 S
C572 C573 1.362 . S
C573 H565 0.930 1_655 S
C573 C572 1.362 . S
C573 C576 1.409 1_656 S
C574 H566 0.930 . S
C574 C575 1.355 1_556 S
C574 C576 1.415 1_556 S
C575 C574 1.355 1_554 S
C575 C577 1.419 . S
C576 C571 1.425 . S
C576 C573 1.409 1_454 S
C576 C574 1.415 1_554 S
C577 H567 0.946 . S
C577 C575 1.419 . S
C577 C578 1.362 . S
C578 H568 0.930 . S
C578 C571 1.409 . S
C578 C577 1.362 . S
H579 C585 0.930 . S
H580 C588 0.930 . S
H581 C589 0.930 . S
H582 C590 0.930 . S
H583 C593 0.930 . S
H584 C594 0.930 . S
C585 H579 0.930 . S
C585 C586 1.355 . S
C585 C587 1.415 . S
C586 C585 1.355 . S
C586 C588 1.419 . S
C587 C585 1.415 . S
C587 C592 1.425 . S
C587 C594 1.409 . S
C588 H580 0.930 . S
C588 C586 1.419 . S
C588 C589 1.362 . S
C589 H581 0.930 . S
C589 C588 1.362 . S
C589 C592 1.409 . S
C590 H582 0.930 . S
C590 C591 1.355 . S
C590 C592 1.415 . S
C591 C590 1.355 . S
C591 C593 1.419 . S
C592 C587 1.425 . S
C592 C589 1.409 . S
C592 C590 1.415 . S
C593 H583 0.930 . S
C593 C591 1.419 . S
C593 C594 1.362 . S
C594 H584 0.930 . S
C594 C587 1.409 . S
C594 C593 1.362 . S
H595 C601 0.930 . S
H596 C604 0.930 . S
H597 C605 0.930 . S
H598 C606 0.930 . S
H599 C609 0.930 . S
H600 C610 0.930 . S
C601 H595 0.930 . S
C601 C602 1.355 . S
C601 C603 1.415 . S
C602 C601 1.355 . S
C602 C604 1.419 . S
C603 C601 1.415 . S
C603 C608 1.425 . S
C603 C610 1.409 . S
C604 H596 0.930 . S
C604 C602 1.419 . S
C604 C605 1.362 . S
C605 H597 0.930 . S
C605 C604 1.362 . S
C605 C608 1.409 . S
C606 H598 0.930 . S
C606 C607 1.355 . S
C606 C608 1.415 . S
C607 C606 1.355 . S
C607 C609 1.419 . S
C608 C603 1.425 . S
C608 C605 1.409 . S
C608 C606 1.415 . S
C609 H599 0.930 . S
C609 C607 1.419 . S
C609 C610 1.362 . S
C610 H600 0.930 . S
C610 C603 1.409 . S
C610 C609 1.362 . S
H611 C617 0.930 . S
H612 C620 0.930 . S
H613 C621 0.930 . S
H614 C622 0.930 . S
H615 C625 0.930 . S
H616 C626 0.930 . S
C617 H611 0.930 . S
C617 C618 1.355 . S
C617 C619 1.415 . S
C618 C617 1.355 . S
C618 C620 1.419 . S
C619 C617 1.415 . S
C619 C624 1.425 . S
C619 C626 1.409 . S
C620 H612 0.930 . S
C620 C618 1.419 . S
C620 C621 1.362 . S
C621 H613 0.930 . S
C621 C620 1.362 . S
C621 C624 1.409 . S
C622 H614 0.930 . S
C622 C623 1.355 . S
C622 C624 1.415 . S
C623 C622 1.355 . S
C623 C625 1.419 . S
C624 C619 1.425 . S
C624 C621 1.409 . S
C624 C622 1.415 . S
C625 H615 0.930 . S
C625 C623 1.419 . S
C625 C626 1.362 . S
C626 H616 0.930 . S
C626 C619 1.409 . S
C626 C625 1.362 . S
H627 C633 0.930 . S
H628 C636 0.930 . S
H629 C637 0.930 . S
H630 C638 0.930 . S
H631 C641 0.930 . S
H632 C642 0.930 . S
C633 H627 0.930 . S
C633 C634 1.355 . S
C633 C635 1.415 . S
C634 C633 1.355 . S
C634 C636 1.419 . S
C635 C633 1.415 . S
C635 C640 1.425 . S
C635 C642 1.409 . S
C636 H628 0.930 . S
C636 C634 1.419 . S
C636 C637 1.362 . S
C637 H629 0.930 . S
C637 C636 1.362 . S
C637 C640 1.409 . S
C638 H630 0.930 . S
C638 C639 1.355 . S
C638 C640 1.415 . S
C639 C638 1.355 . S
C639 C641 1.419 . S
C640 C635 1.425 . S
C640 C637 1.409 . S
C640 C638 1.415 . S
C641 H631 0.930 . S
C641 C639 1.419 . S
C641 C642 1.362 . S
C642 H632 0.930 . S
C642 C635 1.409 . S
C642 C641 1.362 . S
H643 C649 0.930 . S
H644 C652 0.930 . S
H645 C653 0.930 . S
H646 C654 0.930 . S
H647 C657 0.930 . S
H648 C658 0.930 . S
C649 H643 0.930 . S
C649 C650 1.355 . S
C649 C651 1.415 . S
C650 C649 1.355 . S
C650 C652 1.419 . S
C651 C649 1.415 . S
C651 C656 1.425 . S
C651 C658 1.409 . S
C652 H644 0.930 . S
C652 C650 1.419 . S
C652 C653 1.362 . S
C653 H645 0.930 . S
C653 C652 1.362 . S
C653 C656 1.409 . S
C654 H646 0.930 . S
C654 C655 1.355 . S
C654 C656 1.415 . S
C655 C654 1.355 . S
C655 C657 1.419 . S
C656 C651 1.425 . S
C656 C653 1.409 . S
C656 C654 1.415 . S
C657 H647 0.930 . S
C657 C655 1.419 . S
C657 C658 1.362 . S
C658 H648 0.930 . S
C658 C651 1.409 . S
C658 C657 1.362 . S
H659 C665 0.930 . S
H660 C668 0.930 . S
H661 C669 0.930 . S
H662 C670 0.930 . S
H663 C673 0.930 . S
H664 C674 0.930 . S
C665 H659 0.930 . S
C665 C666 1.355 . S
C665 C667 1.415 . S
C666 C665 1.355 . S
C666 C668 1.419 . S
C667 C665 1.415 . S
C667 C672 1.425 . S
C667 C674 1.409 . S
C668 H660 0.930 . S
C668 C666 1.419 . S
C668 C669 1.362 . S
C669 H661 0.930 . S
C669 C668 1.362 . S
C669 C672 1.409 . S
C670 H662 0.930 . S
C670 C671 1.355 . S
C670 C672 1.415 . S
C671 C670 1.355 . S
C671 C673 1.419 . S
C672 C667 1.425 . S
C672 C669 1.409 . S
C672 C670 1.415 . S
C673 H663 0.930 . S
C673 C671 1.419 . S
C673 C674 1.362 . S
C674 H664 0.930 . S
C674 C667 1.409 . S
C674 C673 1.362 . S
H675 C681 0.930 . S
H676 C684 0.930 . S
H677 C685 0.930 . S
H678 C686 0.930 . S
H679 C689 0.930 . S
H680 C690 0.930 . S
C681 H675 0.930 . S
C681 C682 1.355 . S
C681 C683 1.415 . S
C682 C681 1.355 . S
C682 C684 1.419 . S
C683 C681 1.415 . S
C683 C688 1.425 . S
C683 C690 1.409 . S
C684 H676 0.930 . S
C684 C682 1.419 . S
C684 C685 1.362 . S
C685 H677 0.930 . S
C685 C684 1.362 . S
C685 C688 1.409 . S
C686 H678 0.930 . S
C686 C687 1.355 . S
C686 C688 1.415 . S
C687 C686 1.355 . S
C687 C689 1.419 . S
C688 C683 1.425 . S
C688 C685 1.409 . S
C688 C686 1.415 . S
C689 H679 0.930 . S
C689 C687 1.419 . S
C689 C690 1.362 . S
C690 H680 0.930 . S
C690 C683 1.409 . S
C690 C689 1.362 . S
H691 C697 0.930 . S
H692 C700 0.930 . S
H693 C701 0.930 . S
H694 C702 0.930 . S
H695 C705 0.930 . S
H696 C706 0.930 . S
C697 H691 0.930 . S
C697 C698 1.355 . S
C697 C699 1.415 . S
C698 C697 1.355 . S
C698 C700 1.419 . S
C699 C697 1.415 . S
C699 C704 1.425 . S
C699 C706 1.409 . S
C700 H692 0.930 . S
C700 C698 1.419 . S
C700 C701 1.362 . S
C701 H693 0.930 . S
C701 C700 1.362 . S
C701 C704 1.409 . S
C702 H694 0.930 . S
C702 C703 1.355 . S
C702 C704 1.415 . S
C703 C702 1.355 . S
C703 C705 1.419 . S
C704 C699 1.425 . S
C704 C701 1.409 . S
C704 C702 1.415 . S
C705 H695 0.930 . S
C705 C703 1.419 . S
C705 C706 1.362 . S
C706 H696 0.930 . S
C706 C699 1.409 . S
C706 C705 1.362 . S
H707 C713 0.930 . S
H708 C716 0.930 . S
H709 C717 0.930 . S
H710 C718 0.930 . S
H711 C721 0.930 . S
H712 C722 0.930 . S
C713 H707 0.930 . S
C713 C714 1.355 . S
C713 C715 1.415 . S
C714 C713 1.355 . S
C714 C716 1.419 . S
C715 C713 1.415 . S
C715 C720 1.425 . S
C715 C722 1.409 . S
C716 H708 0.930 . S
C716 C714 1.419 . S
C716 C717 1.362 . S
C717 H709 0.930 . S
C717 C716 1.362 . S
C717 C720 1.409 . S
C718 H710 0.930 . S
C718 C719 1.355 . S
C718 C720 1.415 . S
C719 C718 1.355 . S
C719 C721 1.419 . S
C720 C715 1.425 . S
C720 C717 1.409 . S
C720 C718 1.415 . S
C721 H711 0.930 . S
C721 C719 1.419 . S
C721 C722 1.362 . S
C722 H712 0.930 . S
C722 C715 1.409 . S
C722 C721 1.362 . S
H723 C729 0.930 . S
H724 C732 0.930 . S
H725 C733 0.930 . S
H726 C734 0.930 . S
H727 C737 0.930 . S
H728 C738 0.930 . S
C729 H723 0.930 . S
C729 C730 1.355 . S
C729 C731 1.415 . S
C730 C729 1.355 . S
C730 C732 1.419 . S
C731 C729 1.415 . S
C731 C736 1.425 . S
C731 C738 1.409 . S
C732 H724 0.930 . S
C732 C730 1.419 . S
C732 C733 1.362 . S
C733 H725 0.930 . S
C733 C732 1.362 . S
C733 C736 1.409 . S
C734 H726 0.930 . S
C734 C735 1.355 . S
C734 C736 1.415 . S
C735 C734 1.355 . S
C735 C737 1.419 . S
C736 C731 1.425 . S
C736 C733 1.409 . S
C736 C734 1.415 . S
C737 H727 0.930 . S
C737 C735 1.419 . S
C737 C738 1.362 . S
C738 H728 0.930 . S
C738 C731 1.409 . S
C738 C737 1.362 . S
H739 C745 0.930 . S
H740 C748 0.930 . S
H741 C749 0.930 . S
H742 C750 0.930 . S
H743 C753 0.930 . S
H744 C754 0.930 . S
C745 H739 0.930 . S
C745 C746 1.355 . S
C745 C747 1.415 . S
C746 C745 1.355 . S
C746 C748 1.419 . S
C747 C745 1.415 . S
C747 C752 1.425 . S
C747 C754 1.409 . S
C748 H740 0.930 . S
C748 C746 1.419 . S
C748 C749 1.362 . S
C749 H741 0.930 . S
C749 C748 1.362 . S
C749 C752 1.409 . S
C750 H742 0.930 . S
C750 C751 1.355 . S
C750 C752 1.415 . S
C751 C750 1.355 . S
C751 C753 1.419 . S
C752 C747 1.425 . S
C752 C749 1.409 . S
C752 C750 1.415 . S
C753 H743 0.930 . S
C753 C751 1.419 . S
C753 C754 1.362 . S
C754 H744 0.930 . S
C754 C747 1.409 . S
C754 C753 1.362 . S
H755 C761 0.930 . S
H756 C764 0.930 . S
H757 C765 0.930 . S
H758 C766 0.930 . S
H759 C769 0.930 . S
H760 C770 0.930 . S
C761 H755 0.930 . S
C761 C762 1.355 . S
C761 C763 1.415 . S
C762 C761 1.355 . S
C762 C764 1.419 . S
C763 C761 1.415 . S
C763 C768 1.425 . S
C763 C770 1.409 . S
C764 H756 0.930 . S
C764 C762 1.419 . S
C764 C765 1.362 . S
C765 H757 0.930 . S
C765 C764 1.362 . S
C765 C768 1.409 . S
C766 H758 0.930 . S
C766 C767 1.355 . S
C766 C768 1.415 . S
C767 C766 1.355 . S
C767 C769 1.419 . S
C768 C763 1.425 . S
C768 C765 1.409 . S
C768 C766 1.415 . S
C769 H759 0.930 . S
C769 C767 1.419 . S
C769 C770 1.362 . S
C770 H760 0.930 . S
C770 C763 1.409 . S
C770 C769 1.362 . S
H771 C777 0.930 . S
H772 C780 0.930 . S
H773 C781 0.930 1_655 S
H774 C782 0.930 . S
H775 C785 0.930 . S
H776 C786 0.930 . S
C777 H771 0.930 . S
C777 C778 1.355 . S
C777 C779 1.415 . S
C778 C777 1.355 . S
C778 C780 1.419 . S
C779 C777 1.415 . S
C779 C784 1.425 . S
C779 C786 1.409 . S
C780 H772 0.930 . S
C780 C778 1.419 . S
C780 C781 1.362 . S
C781 H773 0.930 1_455 S
C781 C780 1.362 . S
C781 C784 1.409 . S
C782 H774 0.930 . S
C782 C783 1.355 . S
C782 C784 1.415 1_655 S
C783 C782 1.355 . S
C783 C785 1.419 1_655 S
C784 C779 1.425 . S
C784 C781 1.409 . S
C784 C782 1.415 1_455 S
C785 H775 0.930 . S
C785 C783 1.419 1_455 S
C785 C786 1.362 . S
C786 H776 0.930 . S
C786 C779 1.409 . S
C786 C785 1.362 . S
H787 C793 0.930 . S
H788 C796 0.930 . S
H789 C797 0.930 . S
H790 C798 0.930 . S
H791 C801 0.930 . S
H792 C802 0.930 . S
C793 H787 0.930 . S
C793 C794 1.355 . S
C793 C795 1.415 . S
C794 C793 1.355 . S
C794 C796 1.419 . S
C795 C793 1.415 . S
C795 C800 1.425 . S
C795 C802 1.409 . S
C796 H788 0.930 . S
C796 C794 1.419 . S
C796 C797 1.362 . S
C797 H789 0.930 . S
C797 C796 1.362 . S
C797 C800 1.409 . S
C798 H790 0.930 . S
C798 C799 1.355 . S
C798 C800 1.415 . S
C799 C798 1.355 . S
C799 C801 1.419 . S
C800 C795 1.425 . S
C800 C797 1.409 . S
C800 C798 1.415 . S
C801 H791 0.930 . S
C801 C799 1.419 . S
C801 C802 1.362 . S
C802 H792 0.930 . S
C802 C795 1.409 . S
C802 C801 1.362 . S
H803 C809 0.930 . S
H804 C812 0.930 . S
H805 C813 0.930 . S
H806 C814 0.930 . S
H807 C817 0.930 . S
H808 C818 0.930 . S
C809 H803 0.930 . S
C809 C810 1.355 1_545 S
C809 C811 1.415 . S
C810 C809 1.355 1_565 S
C810 C812 1.419 . S
C811 C809 1.415 . S
C811 C816 1.425 . S
C811 C818 1.409 . S
C812 H804 0.930 . S
C812 C810 1.419 . S
C812 C813 1.362 . S
C813 H805 0.930 . S
C813 C812 1.362 . S
C813 C816 1.409 1_565 S
C814 H806 0.930 . S
C814 C815 1.355 . S
C814 C816 1.415 . S
C815 C814 1.355 . S
C815 C817 1.419 . S
C816 C811 1.425 . S
C816 C813 1.409 1_545 S
C816 C814 1.415 . S
C817 H807 0.930 . S
C817 C815 1.419 . S
C817 C818 1.362 . S
C818 H808 0.930 . S
C818 C811 1.409 . S
C818 C817 1.362 . S
C538 C170 1.247 . S
C543 C33 1.277 . S
C554 C111 1.246 . S
C559 C52 1.271 . S
C570 C92 1.263 . S
C575 C151 1.235 . S
C586 C328 1.247 . S
C591 C229 1.251 . S
C602 C288 1.272 . S
C607 C210 1.230 . S
C618 C269 1.270 . S
C623 C347 1.245 . S
C634 C387 1.276 . S
C639 C524 1.256 . S
C650 C406 1.261 . S
C655 C465 1.244 . S
C666 C446 1.272 . S
C671 C505 1.229 . S
C682 C5 1.493 . S
C687 C418 1.486 . S
C698 C62 1.482 . S
C703 C475 1.500 . S
C714 C357 1.489 . S
C719 C123 1.486 . S
C730 C239 1.479 . S
C735 C121 1.498 . S
C746 C3 1.467 . S
C751 C298 1.479 . S
C762 C180 1.494 . S
C767 C64 1.497 . S
C778 C416 1.477 . S
C783 C300 1.498 . S
C794 C182 1.490 . S
C799 C477 1.484 . S
C810 C359 1.487 . S
C815 C241 1.486 . S
