# Generated by pormake.
# Topology unm, (4)-cn, num edge types: 1
# Building blocks:
#     Node 0, Type 0, BuildingBlock: CEKHIL_clean_sbu_0, # of connection points: 4
#     Node 1, Type 0, BuildingBlock: CEKHIL_clean_sbu_0, # of connection points: 4
#     Node 2, Type 0, BuildingBlock: CEKHIL_clean_sbu_0, # of connection points: 4
#     Node 3, Type 0, BuildingBlock: CEKHIL_clean_sbu_0, # of connection points: 4
#     Node 4, Type 0, BuildingBlock: CEKHIL_clean_sbu_0, # of connection points: 4
#     Node 5, Type 0, BuildingBlock: CEKHIL_clean_sbu_0, # of connection points: 4
#     Node 6, Type 0, BuildingBlock: CEKHIL_clean_sbu_0, # of connection points: 4
#     Node 7, Type 0, BuildingBlock: CEKHIL_clean_sbu_0, # of connection points: 4
#     Edge 8, Type (0, 0), BuildingBlock: KIFKEQ_clean_linker_1, # of connection points: 2
#     Edge 9, Type (0, 0), BuildingBlock: KIFKEQ_clean_linker_1, # of connection points: 2
#     Edge 10, Type (0, 0), BuildingBlock: KIFKEQ_clean_linker_1, # of connection points: 2
#     Edge 11, Type (0, 0), BuildingBlock: KIFKEQ_clean_linker_1, # of connection points: 2
#     Edge 12, Type (0, 0), BuildingBlock: KIFKEQ_clean_linker_1, # of connection points: 2
#     Edge 13, Type (0, 0), BuildingBlock: KIFKEQ_clean_linker_1, # of connection points: 2
#     Edge 14, Type (0, 0), BuildingBlock: KIFKEQ_clean_linker_1, # of connection points: 2
#     Edge 15, Type (0, 0), BuildingBlock: KIFKEQ_clean_linker_1, # of connection points: 2
#     Edge 16, Type (0, 0), BuildingBlock: KIFKEQ_clean_linker_1, # of connection points: 2
#     Edge 17, Type (0, 0), BuildingBlock: KIFKEQ_clean_linker_1, # of connection points: 2
#     Edge 18, Type (0, 0), BuildingBlock: KIFKEQ_clean_linker_1, # of connection points: 2
#     Edge 19, Type (0, 0), BuildingBlock: KIFKEQ_clean_linker_1, # of connection points: 2
#     Edge 20, Type (0, 0), BuildingBlock: KIFKEQ_clean_linker_1, # of connection points: 2
#     Edge 21, Type (0, 0), BuildingBlock: KIFKEQ_clean_linker_1, # of connection points: 2
#     Edge 22, Type (0, 0), BuildingBlock: KIFKEQ_clean_linker_1, # of connection points: 2
#     Edge 23, Type (0, 0), BuildingBlock: KIFKEQ_clean_linker_1, # of connection points: 2
# Relax obj value: 0.188
# Max RMSD: 0.152
# Mean RMSD: 0.152
data_MOF--net-unm--node1-CEKHIL_clean_sbu_0--edge1-KIFKEQ_clean_linker_1
_symmetry_space_group_name_H-M    P1
_symmetry_Int_Tables_number       1
_symmetry_cell_setting            triclinic
loop_
_symmetry_equiv_pos_as_xyz
'x, y, z'
_cell_length_a     25.516045
_cell_length_b     25.516333
_cell_length_c     44.011437
_cell_angle_alpha  90.002064
_cell_angle_beta   89.999067
_cell_angle_gamma 90.003103
loop_
_atom_site_label
_atom_site_type_symbol
_atom_site_fract_x
_atom_site_fract_y
_atom_site_fract_z
_atom_type_partial_charge
Co0 Co 0.18502 0.26197 0.1839 0.0
O1 O 0.24547 0.22128 0.19622 0.0
O2 O 0.24727 0.30531 0.18408 0.0
C3 C 0.12921 0.23662 0.22123 0.0
O4 O 0.13213 0.31803 0.17219 0.0
Co5 Co 0.08012 0.2109 0.1637 0.0
O6 O 0.0518 0.28189 0.17165 0.0
C7 C 0.16566 0.22382 0.11875 0.0
C8 C 0.27241 0.26434 0.19383 0.0
C9 C 0.08184 0.32175 0.17158 0.0
O10 O 0.19603 0.24346 0.13929 0.0
O11 O 0.11924 0.20732 0.12429 0.0
O12 O 0.16465 0.27205 0.22623 0.0
O13 O 0.13288 0.2129 0.19532 0.0
Co14 Co 0.24246 0.68488 0.68476 0.0
O15 O 0.28446 0.74537 0.6957 0.0
O16 O 0.19955 0.74733 0.6859 0.0
C17 C 0.27066 0.62893 0.72141 0.0
O18 O 0.18506 0.63223 0.67488 0.0
Co19 Co 0.29086 0.57926 0.66335 0.0
O20 O 0.22051 0.55162 0.67367 0.0
C21 C 0.27571 0.66493 0.61873 0.0
C22 C 0.24135 0.77248 0.69435 0.0
C23 C 0.18091 0.58196 0.6746 0.0
O24 O 0.25733 0.69535 0.63964 0.0
O25 O 0.29241 0.61848 0.62393 0.0
O26 O 0.23636 0.66501 0.72751 0.0
O27 O 0.29186 0.63238 0.69475 0.0
Co28 Co 0.8167 0.74293 0.18416 0.0
O29 O 0.75637 0.78473 0.19559 0.0
O30 O 0.75425 0.70003 0.18517 0.0
C31 C 0.87297 0.77025 0.22087 0.0
O32 O 0.86917 0.68576 0.17366 0.0
Co33 Co 0.92225 0.79181 0.16289 0.0
O34 O 0.94986 0.721 0.17211 0.0
C35 C 0.83631 0.77736 0.11834 0.0
C36 C 0.72923 0.74166 0.19402 0.0
C37 C 0.9194 0.68148 0.17287 0.0
O38 O 0.80591 0.75875 0.13919 0.0
O39 O 0.88281 0.79392 0.12356 0.0
O40 O 0.83692 0.73584 0.2268 0.0
O41 O 0.86934 0.79206 0.19439 0.0
Co42 Co 0.76039 0.31486 0.68466 0.0
O43 O 0.71854 0.25431 0.69563 0.0
O44 O 0.80342 0.25251 0.68572 0.0
C45 C 0.73224 0.37076 0.72133 0.0
O46 O 0.81765 0.36762 0.67471 0.0
Co47 Co 0.7117 0.42037 0.66329 0.0
O48 O 0.78206 0.44817 0.67344 0.0
C49 C 0.72675 0.33467 0.61869 0.0
C50 C 0.76169 0.22728 0.6942 0.0
C51 C 0.82172 0.4179 0.67438 0.0
O52 O 0.74534 0.30434 0.63957 0.0
O53 O 0.70998 0.38111 0.62389 0.0
O54 O 0.76662 0.33474 0.72739 0.0
O55 O 0.71094 0.36728 0.69471 0.0
Co56 Co 0.68377 0.24414 0.33064 0.0
O57 O 0.74481 0.28608 0.32054 0.0
O58 O 0.74542 0.20041 0.32834 0.0
C59 C 0.62776 0.27456 0.29469 0.0
O60 O 0.63058 0.18678 0.33947 0.0
Co61 Co 0.57904 0.29292 0.35337 0.0
O62 O 0.5505 0.22211 0.34539 0.0
C63 C 0.66525 0.27517 0.39721 0.0
C64 C 0.77107 0.24239 0.32081 0.0
C65 C 0.58055 0.18259 0.34237 0.0
O66 O 0.69479 0.25647 0.37598 0.0
O67 O 0.61917 0.29321 0.39245 0.0
O68 O 0.66371 0.24054 0.2879 0.0
O69 O 0.6316 0.29457 0.32164 0.0
Co70 Co 0.26058 0.18483 0.83081 0.0
O71 O 0.21852 0.24532 0.81996 0.0
O72 O 0.30345 0.24732 0.82966 0.0
C73 C 0.23226 0.12896 0.79416 0.0
O74 O 0.31808 0.1322 0.84056 0.0
Co75 Co 0.21242 0.07907 0.85218 0.0
O76 O 0.28273 0.05155 0.84167 0.0
C77 C 0.22766 0.1646 0.89686 0.0
C78 C 0.26161 0.27245 0.82127 0.0
C79 C 0.32229 0.08193 0.84072 0.0
O80 O 0.24582 0.19517 0.87595 0.0
O81 O 0.21116 0.11808 0.89166 0.0
O82 O 0.26653 0.16506 0.78804 0.0
O83 O 0.21118 0.13231 0.82084 0.0
Co84 Co 0.31675 0.75968 0.33091 0.0
O85 O 0.2565 0.71742 0.31983 0.0
O86 O 0.25422 0.80238 0.32946 0.0
C87 C 0.37339 0.73167 0.29462 0.0
O88 O 0.36903 0.81738 0.34075 0.0
Co89 Co 0.42202 0.71133 0.35308 0.0
O90 O 0.44959 0.78271 0.34566 0.0
C91 C 0.33561 0.72634 0.3971 0.0
C92 C 0.22927 0.76047 0.321 0.0
C93 C 0.41907 0.82201 0.34334 0.0
O94 O 0.30571 0.74507 0.37605 0.0
O95 O 0.38202 0.70933 0.39218 0.0
O96 O 0.33712 0.76562 0.28827 0.0
O97 O 0.36963 0.71045 0.32126 0.0
Co98 Co 0.74305 0.815 0.83036 0.0
O99 O 0.78498 0.75439 0.81961 0.0
O100 O 0.70004 0.75261 0.82932 0.0
C101 C 0.77148 0.87065 0.79364 0.0
O102 O 0.68568 0.8678 0.84006 0.0
Co103 Co 0.79147 0.92076 0.85156 0.0
O104 O 0.72117 0.9484 0.84115 0.0
C105 C 0.776 0.83544 0.89637 0.0
C106 C 0.74183 0.72735 0.82096 0.0
C107 C 0.68156 0.91808 0.84024 0.0
O108 O 0.75776 0.80483 0.87552 0.0
O109 O 0.79267 0.88188 0.89109 0.0
O110 O 0.73714 0.83459 0.78757 0.0
O111 O 0.79256 0.86736 0.82033 0.0
H112 H 0.26353 0.20303 0.09482 0.0
H113 H 0.1053 0.24424 0.06969 0.0
H114 H 0.28673 0.19612 0.0406 0.0
H115 H 0.12872 0.23893 0.01608 0.0
H116 H 0.20074 0.26056 0.92106 0.0
H117 H 0.19285 0.28267 0.97538 0.0
H118 H 0.2496 0.12878 0.99919 0.0
H119 H 0.25592 0.10632 0.94541 0.0
C120 C 0.23407 0.21137 0.07778 0.0
C121 C 0.18248 0.22345 0.08647 0.0
C122 C 0.24727 0.20749 0.04684 0.0
C123 C 0.20952 0.21729 0.02415 0.0
C124 C 0.15873 0.23172 0.03299 0.0
C125 C 0.14526 0.23421 0.06371 0.0
C126 C 0.21216 0.2319 0.93797 0.0
C127 C 0.22835 0.18158 0.92907 0.0
C128 C 0.20764 0.24444 0.96896 0.0
C129 C 0.22081 0.20742 0.99148 0.0
C130 C 0.23969 0.15823 0.98242 0.0
C131 C 0.24285 0.14529 0.95162 0.0
H132 H 0.2972 0.7626 0.59485 0.0
H133 H 0.25245 0.60532 0.56977 0.0
H134 H 0.30386 0.78581 0.54064 0.0
H135 H 0.25761 0.62876 0.51614 0.0
H136 H 0.239 0.70037 0.42088 0.0
H137 H 0.21607 0.69286 0.47511 0.0
H138 H 0.37022 0.74813 0.49955 0.0
H139 H 0.39344 0.7541 0.4459 0.0
C140 C 0.28791 0.73339 0.57782 0.0
C141 C 0.27498 0.68201 0.58651 0.0
C142 C 0.29169 0.74659 0.54688 0.0
C143 C 0.28101 0.70908 0.52419 0.0
C144 C 0.26552 0.65861 0.53304 0.0
C145 C 0.26308 0.64511 0.56377 0.0
C146 C 0.26754 0.71154 0.43791 0.0
C147 C 0.31813 0.72722 0.42923 0.0
C148 C 0.25453 0.70724 0.46885 0.0
C149 C 0.29138 0.72011 0.49153 0.0
C150 C 0.34088 0.73847 0.48266 0.0
C151 C 0.35426 0.74142 0.45193 0.0
H152 H 0.739 0.80008 0.09432 0.0
H153 H 0.89576 0.75309 0.06952 0.0
H154 H 0.71605 0.80663 0.04005 0.0
H155 H 0.87257 0.75812 0.01586 0.0
H156 H 0.80056 0.73891 0.9207 0.0
H157 H 0.80768 0.71672 0.97504 0.0
H158 H 0.75511 0.87217 0.99868 0.0
H159 H 0.74953 0.89466 0.9449 0.0
C160 C 0.76813 0.79029 0.07734 0.0
C161 C 0.8193 0.77674 0.08611 0.0
C162 C 0.75509 0.79401 0.04637 0.0
C163 C 0.79253 0.78263 0.02376 0.0
C164 C 0.84277 0.76657 0.0327 0.0
C165 C 0.85613 0.76421 0.06345 0.0
C166 C 0.78993 0.76793 0.93757 0.0
C167 C 0.77513 0.81865 0.92862 0.0
C168 C 0.79399 0.75533 0.96858 0.0
C169 C 0.78174 0.79273 0.99106 0.0
C170 C 0.76428 0.84242 0.98194 0.0
C171 C 0.76157 0.85538 0.95114 0.0
H172 H 0.76243 0.29896 0.42086 0.0
H173 H 0.60719 0.24779 0.44601 0.0
H174 H 0.78576 0.30568 0.47506 0.0
H175 H 0.63079 0.25297 0.49965 0.0
H176 H 0.70401 0.23727 0.59487 0.0
H177 H 0.69688 0.21411 0.54066 0.0
H178 H 0.74521 0.37051 0.5161 0.0
H179 H 0.75081 0.39391 0.56973 0.0
C180 C 0.73379 0.28813 0.43791 0.0
C181 C 0.68288 0.27343 0.42929 0.0
C182 C 0.74704 0.29199 0.46884 0.0
C183 C 0.71007 0.27966 0.49155 0.0
C184 C 0.66022 0.26219 0.48273 0.0
C185 C 0.64662 0.25968 0.45202 0.0
C186 C 0.71367 0.26632 0.57782 0.0
C187 C 0.72731 0.31753 0.58648 0.0
C188 C 0.70962 0.25315 0.54689 0.0
C189 C 0.72073 0.29051 0.52419 0.0
C190 C 0.73696 0.34078 0.53302 0.0
C191 C 0.73966 0.35426 0.56374 0.0
H192 H 0.33135 0.35255 0.2032 0.0
H193 H 0.33805 0.18377 0.20917 0.0
H194 H 0.41918 0.35836 0.22523 0.0
H195 H 0.42585 0.18961 0.23105 0.0
H196 H 0.54392 0.34024 0.30341 0.0
H197 H 0.46012 0.33968 0.27629 0.0
H198 H 0.5173 0.2166 0.21774 0.0
H199 H 0.60085 0.21722 0.24467 0.0
C200 C 0.35179 0.31665 0.20885 0.0
C201 C 0.32766 0.26766 0.20438 0.0
C202 C 0.40197 0.32003 0.22169 0.0
C203 C 0.42951 0.27449 0.22998 0.0
C204 C 0.40594 0.22546 0.22468 0.0
C205 C 0.35553 0.2221 0.2122 0.0
C206 C 0.53884 0.3136 0.28448 0.0
C207 C 0.57911 0.27877 0.27626 0.0
C208 C 0.49087 0.31334 0.26889 0.0
C209 C 0.48189 0.27784 0.24496 0.0
C210 C 0.52269 0.244 0.23628 0.0
C211 C 0.57076 0.24466 0.25161 0.0
H212 H 0.15417 0.83332 0.7025 0.0
H213 H 0.32286 0.83699 0.71008 0.0
H214 H 0.14936 0.92155 0.72389 0.0
H215 H 0.318 0.92522 0.73151 0.0
H216 H 0.29311 0.10082 0.74565 0.0
H217 H 0.29412 0.01709 0.71879 0.0
H218 H 0.16573 0.96259 0.77431 0.0
H219 H 0.16467 0.04645 0.80119 0.0
C220 C 0.1903 0.85314 0.70841 0.0
C221 C 0.23893 0.828 0.70457 0.0
C222 C 0.18748 0.90361 0.72088 0.0
C223 C 0.23325 0.93045 0.72955 0.0
C224 C 0.28199 0.90591 0.72483 0.0
C225 C 0.28478 0.85522 0.71263 0.0
C226 C 0.26459 0.07127 0.75187 0.0
C227 C 0.22875 0.0804 0.77559 0.0
C228 C 0.26549 0.02308 0.73662 0.0
C229 C 0.2302 0.98296 0.74446 0.0
C230 C 0.19318 0.99275 0.7675 0.0
C231 C 0.19263 0.04079 0.78297 0.0
H232 H 0.4567 0.66516 0.3023 0.0
H233 H 0.40102 0.79169 0.24572 0.0
H234 H 0.54048 0.66629 0.27529 0.0
H235 H 0.48466 0.79282 0.2188 0.0
H236 H 0.66903 0.65421 0.20275 0.0
H237 H 0.58109 0.64911 0.22455 0.0
H238 H 0.57653 0.8178 0.23153 0.0
H239 H 0.66449 0.82295 0.20975 0.0
C240 C 0.46207 0.69274 0.28385 0.0
C241 C 0.42212 0.7283 0.2762 0.0
C242 C 0.51005 0.69332 0.26831 0.0
C243 C 0.51942 0.72985 0.24495 0.0
C244 C 0.47898 0.76459 0.23688 0.0
C245 C 0.43086 0.76364 0.25219 0.0
C246 C 0.64906 0.69028 0.20861 0.0
C247 C 0.67387 0.73902 0.20448 0.0
C248 C 0.59878 0.68729 0.22132 0.0
C249 C 0.57179 0.733 0.22991 0.0
C250 C 0.59599 0.78184 0.22493 0.0
C251 C 0.64651 0.78479 0.21252 0.0
H252 H 0.849 0.16654 0.70212 0.0
H253 H 0.68035 0.16261 0.70998 0.0
H254 H 0.85405 0.07823 0.72337 0.0
H255 H 0.68545 0.0743 0.73127 0.0
H256 H 0.71055 0.89875 0.74516 0.0
H257 H 0.70942 0.98252 0.71835 0.0
H258 H 0.83794 0.03701 0.77378 0.0
H259 H 0.83913 0.95311 0.80061 0.0
C260 C 0.81293 0.14665 0.70806 0.0
C261 C 0.76424 0.17173 0.70434 0.0
C262 C 0.81589 0.09613 0.72045 0.0
C263 C 0.7702 0.06919 0.72915 0.0
C264 C 0.72139 0.09369 0.72456 0.0
C265 C 0.71847 0.14442 0.71244 0.0
C266 C 0.73908 0.9283 0.75137 0.0
C267 C 0.77498 0.91917 0.77505 0.0
C268 C 0.73811 0.97651 0.73615 0.0
C269 C 0.77339 0.01665 0.74399 0.0
C270 C 0.81049 0.00684 0.76697 0.0
C271 C 0.81112 0.95878 0.78241 0.0
H272 H 0.84947 0.31449 0.32825 0.0
H273 H 0.81584 0.16415 0.28822 0.0
H274 H 0.93834 0.31074 0.30828 0.0
H275 H 0.90227 0.16205 0.2655 0.0
H276 H 0.07093 0.15149 0.23795 0.0
H277 H 0.98844 0.15084 0.2658 0.0
H278 H 0.99156 0.32062 0.26884 0.0
H279 H 0.07625 0.31987 0.24405 0.0
C280 C 0.86119 0.28076 0.31493 0.0
C281 C 0.82594 0.23952 0.30994 0.0
C282 C 0.91215 0.27871 0.30301 0.0
C283 C 0.92862 0.23625 0.28467 0.0
C284 C 0.89269 0.19498 0.27992 0.0
C285 C 0.84253 0.19623 0.2928 0.0
C286 C 0.05407 0.18841 0.24517 0.0
C287 C 0.08018 0.23559 0.2392 0.0
C288 C 0.00617 0.18835 0.26085 0.0
C289 C 0.98191 0.23577 0.26981 0.0
C290 C 0.00862 0.28297 0.26345 0.0
C291 C 0.05739 0.28275 0.2489 0.0
H292 H 0.20968 0.60071 0.76984 0.0
H293 H 0.3383 0.54645 0.71441 0.0
H294 H 0.20866 0.51698 0.7967 0.0
H295 H 0.33724 0.46259 0.74128 0.0
H296 H 0.18008 0.33689 0.8055 0.0
H297 H 0.1849 0.42509 0.78403 0.0
H298 H 0.35354 0.42156 0.79171 0.0
H299 H 0.34876 0.33337 0.81313 0.0
C300 C 0.23823 0.57119 0.76364 0.0
C301 C 0.27414 0.58035 0.73996 0.0
C302 C 0.23734 0.52299 0.77889 0.0
C303 C 0.27268 0.4829 0.77108 0.0
C304 C 0.30975 0.49273 0.74807 0.0
C305 C 0.3103 0.54077 0.73261 0.0
C306 C 0.21814 0.35515 0.80295 0.0
C307 C 0.264 0.32797 0.81104 0.0
C308 C 0.22092 0.40582 0.79072 0.0
C309 C 0.26965 0.4304 0.78601 0.0
C310 C 0.31542 0.4036 0.79471 0.0
C311 C 0.31262 0.35315 0.8072 0.0
H312 H 0.16818 0.84748 0.31303 0.0
H313 H 0.16521 0.67888 0.30473 0.0
H314 H 0.08011 0.85224 0.29147 0.0
H315 H 0.07711 0.68369 0.28311 0.0
H316 H 0.95548 0.83792 0.21412 0.0
H317 H 0.03937 0.8365 0.24096 0.0
H318 H 0.98509 0.70707 0.29574 0.0
H319 H 0.90133 0.70844 0.26892 0.0
C320 C 0.14855 0.81135 0.30692 0.0
C321 C 0.17384 0.76276 0.31062 0.0
C322 C 0.09817 0.81415 0.29434 0.0
C323 C 0.07155 0.7684 0.28542 0.0
C324 C 0.09625 0.71968 0.28997 0.0
C325 C 0.14686 0.71692 0.30229 0.0
C326 C 0.9612 0.80963 0.23216 0.0
C327 C 0.92164 0.77336 0.23936 0.0
C328 C 0.00925 0.80887 0.24761 0.0
C329 C 0.01911 0.77149 0.27044 0.0
C330 C 0.97905 0.73599 0.27807 0.0
C331 C 0.93085 0.73708 0.26284 0.0
H332 H 0.66469 0.45331 0.7143 0.0
H333 H 0.79317 0.3989 0.7698 0.0
H334 H 0.66585 0.53719 0.74115 0.0
H335 H 0.79428 0.48265 0.79663 0.0
H336 H 0.82324 0.66269 0.80529 0.0
H337 H 0.81824 0.57444 0.78391 0.0
H338 H 0.64961 0.57835 0.79154 0.0
H339 H 0.65456 0.6666 0.81288 0.0
C340 C 0.69268 0.45896 0.73251 0.0
C341 C 0.72879 0.41934 0.73988 0.0
C342 C 0.69329 0.50702 0.74797 0.0
C343 C 0.73035 0.51681 0.77098 0.0
C344 C 0.76562 0.47667 0.77881 0.0
C345 C 0.76467 0.42846 0.76357 0.0
C346 C 0.78513 0.6445 0.80276 0.0
C347 C 0.73933 0.6718 0.8108 0.0
C348 C 0.78226 0.59381 0.79058 0.0
C349 C 0.73348 0.56932 0.78588 0.0
C350 C 0.68775 0.59624 0.79454 0.0
C351 C 0.69065 0.64672 0.80698 0.0
H352 H 0.01967 0.65451 0.18737 0.0
H353 H 0.87219 0.58923 0.15735 0.0
H354 H 0.05853 0.5675 0.187 0.0
H355 H 0.91158 0.50233 0.15586 0.0
H356 H 0.98241 0.34826 0.18804 0.0
H357 H 0.94321 0.43515 0.18846 0.0
H358 H 0.08741 0.50058 0.15341 0.0
H359 H 0.12719 0.41383 0.15409 0.0
C360 C 0.9957 0.6216 0.18038 0.0
C361 C 0.94289 0.62868 0.17236 0.0
C362 C 0.01805 0.57173 0.18002 0.0
C363 C 0.98825 0.5279 0.1713 0.0
C364 C 0.93544 0.5351 0.16315 0.0
C365 C 0.9129 0.58493 0.16386 0.0
C366 C 0.00563 0.3812 0.18029 0.0
C367 C 0.05783 0.37428 0.17098 0.0
C368 C 0.9831 0.43099 0.18041 0.0
C369 C 0.01211 0.47488 0.17092 0.0
C370 C 0.06423 0.46778 0.16135 0.0
C371 C 0.08696 0.41804 0.16157 0.0
H372 H 0.91478 0.37169 0.65946 0.0
H373 H 0.84759 0.51789 0.69014 0.0
H374 H 0.0014 0.41173 0.65914 0.0
H375 H 0.93433 0.55738 0.69097 0.0
H376 H 0.0882 0.62777 0.65865 0.0
H377 H 0.00155 0.58775 0.65818 0.0
H378 H 0.0679 0.44318 0.6921 0.0
H379 H 0.15468 0.48261 0.6914 0.0
C380 C 0.91861 0.41225 0.66638 0.0
C381 C 0.87439 0.44172 0.67467 0.0
C382 C 0.96829 0.43516 0.66637 0.0
C383 C 0.97488 0.48783 0.67502 0.0
C384 C 0.9306 0.51706 0.68361 0.0
C385 C 0.88088 0.49434 0.68328 0.0
C386 C 0.08419 0.58745 0.66601 0.0
C387 C 0.12821 0.55824 0.6749 0.0
C388 C 0.0345 0.56457 0.6659 0.0
C389 C 0.02771 0.51219 0.67508 0.0
C390 C 0.0718 0.48325 0.68431 0.0
C391 C 0.12153 0.50592 0.68406 0.0
H392 H 0.48112 0.1557 0.35931 0.0
H393 H 0.62627 0.09 0.32583 0.0
H394 H 0.44226 0.06873 0.36012 0.0
H395 H 0.58676 0.00317 0.32569 0.0
H396 H 0.37219 0.91445 0.32762 0.0
H397 H 0.41139 0.00142 0.32685 0.0
H398 H 0.55722 0.93658 0.35982 0.0
H399 H 0.51863 0.84948 0.35963 0.0
C400 C 0.50465 0.12275 0.3519 0.0
C401 C 0.55686 0.12977 0.34257 0.0
C402 C 0.48223 0.07289 0.35221 0.0
C403 C 0.51135 0.02897 0.34294 0.0
C404 C 0.5635 0.03605 0.33345 0.0
C405 C 0.58608 0.08588 0.33338 0.0
C406 C 0.41258 0.91878 0.33477 0.0
C407 C 0.44228 0.87503 0.34366 0.0
C408 C 0.435 0.96868 0.33445 0.0
C409 C 0.48747 0.97597 0.34326 0.0
C410 C 0.51699 0.93223 0.35239 0.0
C411 C 0.49473 0.88231 0.35246 0.0
H412 H 0.34834 0.98235 0.82425 0.0
H413 H 0.41528 0.12805 0.85591 0.0
H414 H 0.43512 0.94298 0.82326 0.0
H415 H 0.50195 0.08809 0.85607 0.0
H416 H 0.65548 0.01769 0.82383 0.0
H417 H 0.56871 0.05715 0.82309 0.0
H418 H 0.50205 0.91209 0.8561 0.0
H419 H 0.58868 0.87207 0.8557 0.0
C420 C 0.38159 0.00581 0.83129 0.0
C421 C 0.37502 0.05825 0.84024 0.0
C422 C 0.43132 0.98316 0.83086 0.0
C423 C 0.47555 0.01226 0.8397 0.0
C424 C 0.46888 0.06477 0.84866 0.0
C425 C 0.41918 0.08763 0.84873 0.0
C426 C 0.62227 0.99427 0.83096 0.0
C427 C 0.62886 0.94182 0.83989 0.0
C428 C 0.57254 0.01696 0.83068 0.0
C429 C 0.52837 0.98789 0.83964 0.0
C430 C 0.53507 0.93539 0.84859 0.0
C431 C 0.58475 0.91249 0.84852 0.0
loop_
_geom_bond_atom_site_label_1
_geom_bond_atom_site_label_2
_geom_bond_distance
_geom_bond_site_symmetry_2
_ccdc_geom_bond_type
Co0 O1 2.216 . S
Co0 O2 2.091 . S
Co0 O4 2.004 . S
Co0 O10 2.021 . S
Co0 O12 2.137 . S
Co0 O13 2.244 . S
O1 Co0 2.216 . S
O1 C8 1.247 . S
O2 Co0 2.091 . S
O2 C8 1.261 . S
C3 O12 1.247 . S
C3 O13 1.272 . S
O4 Co0 2.004 . S
O4 C9 1.259 . S
Co5 O6 2.061 . S
Co5 O11 2.052 . S
Co5 O13 2.135 . S
O6 Co5 2.061 . S
O6 C9 1.235 . S
C7 O10 1.238 . S
C7 O11 1.241 . S
C8 O1 1.247 . S
C8 O2 1.261 . S
C9 O4 1.259 . S
C9 O6 1.235 . S
O10 Co0 2.021 . S
O10 C7 1.238 . S
O11 Co5 2.052 . S
O11 C7 1.241 . S
O12 Co0 2.137 . S
O12 C3 1.247 . S
O13 Co0 2.244 . S
O13 C3 1.272 . S
O13 Co5 2.135 . S
Co14 O15 2.216 . S
Co14 O16 2.091 . S
Co14 O18 2.004 . S
Co14 O24 2.021 . S
Co14 O26 2.137 . S
Co14 O27 2.244 . S
O15 Co14 2.216 . S
O15 C22 1.247 . S
O16 Co14 2.091 . S
O16 C22 1.261 . S
C17 O26 1.247 . S
C17 O27 1.272 . S
O18 Co14 2.004 . S
O18 C23 1.259 . S
Co19 O20 2.061 . S
Co19 O25 2.052 . S
Co19 O27 2.135 . S
O20 Co19 2.061 . S
O20 C23 1.235 . S
C21 O24 1.238 . S
C21 O25 1.241 . S
C22 O15 1.247 . S
C22 O16 1.261 . S
C23 O18 1.259 . S
C23 O20 1.235 . S
O24 Co14 2.021 . S
O24 C21 1.238 . S
O25 Co19 2.052 . S
O25 C21 1.241 . S
O26 Co14 2.137 . S
O26 C17 1.247 . S
O27 Co14 2.244 . S
O27 C17 1.272 . S
O27 Co19 2.135 . S
Co28 O29 2.216 . S
Co28 O30 2.091 . S
Co28 O32 2.004 . S
Co28 O38 2.021 . S
Co28 O40 2.137 . S
Co28 O41 2.244 . S
O29 Co28 2.216 . S
O29 C36 1.247 . S
O30 Co28 2.091 . S
O30 C36 1.261 . S
C31 O40 1.247 . S
C31 O41 1.272 . S
O32 Co28 2.004 . S
O32 C37 1.259 . S
Co33 O34 2.061 . S
Co33 O39 2.052 . S
Co33 O41 2.135 . S
O34 Co33 2.061 . S
O34 C37 1.235 . S
C35 O38 1.238 . S
C35 O39 1.241 . S
C36 O29 1.247 . S
C36 O30 1.261 . S
C37 O32 1.259 . S
C37 O34 1.235 . S
O38 Co28 2.021 . S
O38 C35 1.238 . S
O39 Co33 2.052 . S
O39 C35 1.241 . S
O40 Co28 2.137 . S
O40 C31 1.247 . S
O41 Co28 2.244 . S
O41 C31 1.272 . S
O41 Co33 2.135 . S
Co42 O43 2.216 . S
Co42 O44 2.091 . S
Co42 O46 2.004 . S
Co42 O52 2.021 . S
Co42 O54 2.137 . S
Co42 O55 2.244 . S
O43 Co42 2.216 . S
O43 C50 1.247 . S
O44 Co42 2.091 . S
O44 C50 1.261 . S
C45 O54 1.247 . S
C45 O55 1.272 . S
O46 Co42 2.004 . S
O46 C51 1.259 . S
Co47 O48 2.061 . S
Co47 O53 2.052 . S
Co47 O55 2.135 . S
O48 Co47 2.061 . S
O48 C51 1.235 . S
C49 O52 1.238 . S
C49 O53 1.241 . S
C50 O43 1.247 . S
C50 O44 1.261 . S
C51 O46 1.259 . S
C51 O48 1.235 . S
O52 Co42 2.021 . S
O52 C49 1.238 . S
O53 Co47 2.052 . S
O53 C49 1.241 . S
O54 Co42 2.137 . S
O54 C45 1.247 . S
O55 Co42 2.244 . S
O55 C45 1.272 . S
O55 Co47 2.135 . S
Co56 O57 2.216 . S
Co56 O58 2.091 . S
Co56 O60 2.004 . S
Co56 O66 2.021 . S
Co56 O68 2.137 . S
Co56 O69 2.244 . S
O57 Co56 2.216 . S
O57 C64 1.247 . S
O58 Co56 2.091 . S
O58 C64 1.261 . S
C59 O68 1.247 . S
C59 O69 1.272 . S
O60 Co56 2.004 . S
O60 C65 1.259 . S
Co61 O62 2.061 . S
Co61 O67 2.052 . S
Co61 O69 2.135 . S
O62 Co61 2.061 . S
O62 C65 1.235 . S
C63 O66 1.238 . S
C63 O67 1.241 . S
C64 O57 1.247 . S
C64 O58 1.261 . S
C65 O60 1.259 . S
C65 O62 1.235 . S
O66 Co56 2.021 . S
O66 C63 1.238 . S
O67 Co61 2.052 . S
O67 C63 1.241 . S
O68 Co56 2.137 . S
O68 C59 1.247 . S
O69 Co56 2.244 . S
O69 C59 1.272 . S
O69 Co61 2.135 . S
Co70 O71 2.216 . S
Co70 O72 2.091 . S
Co70 O74 2.004 . S
Co70 O80 2.021 . S
Co70 O82 2.137 . S
Co70 O83 2.244 . S
O71 Co70 2.216 . S
O71 C78 1.247 . S
O72 Co70 2.091 . S
O72 C78 1.261 . S
C73 O82 1.247 . S
C73 O83 1.272 . S
O74 Co70 2.004 . S
O74 C79 1.259 . S
Co75 O76 2.061 . S
Co75 O81 2.052 . S
Co75 O83 2.135 . S
O76 Co75 2.061 . S
O76 C79 1.235 . S
C77 O80 1.238 . S
C77 O81 1.241 . S
C78 O71 1.247 . S
C78 O72 1.261 . S
C79 O74 1.259 . S
C79 O76 1.235 . S
O80 Co70 2.021 . S
O80 C77 1.238 . S
O81 Co75 2.052 . S
O81 C77 1.241 . S
O82 Co70 2.137 . S
O82 C73 1.247 . S
O83 Co70 2.244 . S
O83 C73 1.272 . S
O83 Co75 2.135 . S
Co84 O85 2.216 . S
Co84 O86 2.091 . S
Co84 O88 2.004 . S
Co84 O94 2.021 . S
Co84 O96 2.137 . S
Co84 O97 2.244 . S
O85 Co84 2.216 . S
O85 C92 1.247 . S
O86 Co84 2.091 . S
O86 C92 1.261 . S
C87 O96 1.247 . S
C87 O97 1.272 . S
O88 Co84 2.004 . S
O88 C93 1.259 . S
Co89 O90 2.061 . S
Co89 O95 2.052 . S
Co89 O97 2.135 . S
O90 Co89 2.061 . S
O90 C93 1.235 . S
C91 O94 1.238 . S
C91 O95 1.241 . S
C92 O85 1.247 . S
C92 O86 1.261 . S
C93 O88 1.259 . S
C93 O90 1.235 . S
O94 Co84 2.021 . S
O94 C91 1.238 . S
O95 Co89 2.052 . S
O95 C91 1.241 . S
O96 Co84 2.137 . S
O96 C87 1.247 . S
O97 Co84 2.244 . S
O97 C87 1.272 . S
O97 Co89 2.135 . S
Co98 O99 2.216 . S
Co98 O100 2.091 . S
Co98 O102 2.004 . S
Co98 O108 2.021 . S
Co98 O110 2.137 . S
Co98 O111 2.244 . S
O99 Co98 2.216 . S
O99 C106 1.247 . S
O100 Co98 2.091 . S
O100 C106 1.261 . S
C101 O110 1.247 . S
C101 O111 1.272 . S
O102 Co98 2.004 . S
O102 C107 1.259 . S
Co103 O104 2.061 . S
Co103 O109 2.052 . S
Co103 O111 2.135 . S
O104 Co103 2.061 . S
O104 C107 1.235 . S
C105 O108 1.238 . S
C105 O109 1.241 . S
C106 O99 1.247 . S
C106 O100 1.261 . S
C107 O102 1.259 . S
C107 O104 1.235 . S
O108 Co98 2.021 . S
O108 C105 1.238 . S
O109 Co103 2.052 . S
O109 C105 1.241 . S
O110 Co98 2.137 . S
O110 C101 1.247 . S
O111 Co98 2.244 . S
O111 C101 1.272 . S
O111 Co103 2.135 . S
H112 C120 0.950 . S
H113 C125 0.950 . S
H114 C122 0.950 . S
H115 C124 0.950 . S
H116 C126 0.950 . S
H117 C128 0.950 . S
H118 C130 0.950 . S
H119 C131 0.950 . S
C120 H112 0.950 . S
C120 C121 1.386 . S
C120 C122 1.391 . S
C121 C120 1.386 . S
C121 C125 1.393 . S
C122 H114 0.950 . S
C122 C120 1.391 . S
C122 C123 1.400 . S
C123 C122 1.400 . S
C123 C124 1.398 . S
C123 C129 1.491 1_554 S
C124 H115 0.950 . S
C124 C123 1.398 . S
C124 C125 1.391 . S
C125 H113 0.950 . S
C125 C121 1.393 . S
C125 C124 1.391 . S
C126 H116 0.950 . S
C126 C127 1.386 . S
C126 C128 1.391 . S
C127 C126 1.386 . S
C127 C131 1.393 . S
C128 H117 0.950 . S
C128 C126 1.391 . S
C128 C129 1.400 . S
C129 C123 1.491 1_556 S
C129 C128 1.400 . S
C129 C130 1.398 . S
C130 H118 0.950 . S
C130 C129 1.398 . S
C130 C131 1.391 . S
C131 H119 0.950 . S
C131 C127 1.393 . S
C131 C130 1.391 . S
H132 C140 0.950 . S
H133 C145 0.950 . S
H134 C142 0.950 . S
H135 C144 0.950 . S
H136 C146 0.950 . S
H137 C148 0.950 . S
H138 C150 0.950 . S
H139 C151 0.950 . S
C140 H132 0.950 . S
C140 C141 1.386 . S
C140 C142 1.391 . S
C141 C140 1.386 . S
C141 C145 1.393 . S
C142 H134 0.950 . S
C142 C140 1.391 . S
C142 C143 1.400 . S
C143 C142 1.400 . S
C143 C144 1.398 . S
C143 C149 1.491 . S
C144 H135 0.950 . S
C144 C143 1.398 . S
C144 C145 1.391 . S
C145 H133 0.950 . S
C145 C141 1.393 . S
C145 C144 1.391 . S
C146 H136 0.950 . S
C146 C147 1.386 . S
C146 C148 1.391 . S
C147 C146 1.386 . S
C147 C151 1.393 . S
C148 H137 0.950 . S
C148 C146 1.391 . S
C148 C149 1.400 . S
C149 C143 1.491 . S
C149 C148 1.400 . S
C149 C150 1.398 . S
C150 H138 0.950 . S
C150 C149 1.398 . S
C150 C151 1.391 . S
C151 H139 0.950 . S
C151 C147 1.393 . S
C151 C150 1.391 . S
H152 C160 0.950 . S
H153 C165 0.950 . S
H154 C162 0.950 . S
H155 C164 0.950 . S
H156 C166 0.950 . S
H157 C168 0.950 . S
H158 C170 0.950 . S
H159 C171 0.950 . S
C160 H152 0.950 . S
C160 C161 1.386 . S
C160 C162 1.391 . S
C161 C160 1.386 . S
C161 C165 1.393 . S
C162 H154 0.950 . S
C162 C160 1.391 . S
C162 C163 1.400 . S
C163 C162 1.400 . S
C163 C164 1.398 . S
C163 C169 1.491 1_554 S
C164 H155 0.950 . S
C164 C163 1.398 . S
C164 C165 1.391 . S
C165 H153 0.950 . S
C165 C161 1.393 . S
C165 C164 1.391 . S
C166 H156 0.950 . S
C166 C167 1.386 . S
C166 C168 1.391 . S
C167 C166 1.386 . S
C167 C171 1.393 . S
C168 H157 0.950 . S
C168 C166 1.391 . S
C168 C169 1.400 . S
C169 C163 1.491 1_556 S
C169 C168 1.400 . S
C169 C170 1.398 . S
C170 H158 0.950 . S
C170 C169 1.398 . S
C170 C171 1.391 . S
C171 H159 0.950 . S
C171 C167 1.393 . S
C171 C170 1.391 . S
H172 C180 0.950 . S
H173 C185 0.950 . S
H174 C182 0.950 . S
H175 C184 0.950 . S
H176 C186 0.950 . S
H177 C188 0.950 . S
H178 C190 0.950 . S
H179 C191 0.950 . S
C180 H172 0.950 . S
C180 C181 1.386 . S
C180 C182 1.391 . S
C181 C180 1.386 . S
C181 C185 1.393 . S
C182 H174 0.950 . S
C182 C180 1.391 . S
C182 C183 1.400 . S
C183 C182 1.400 . S
C183 C184 1.398 . S
C183 C189 1.491 . S
C184 H175 0.950 . S
C184 C183 1.398 . S
C184 C185 1.391 . S
C185 H173 0.950 . S
C185 C181 1.393 . S
C185 C184 1.391 . S
C186 H176 0.950 . S
C186 C187 1.386 . S
C186 C188 1.391 . S
C187 C186 1.386 . S
C187 C191 1.393 . S
C188 H177 0.950 . S
C188 C186 1.391 . S
C188 C189 1.400 . S
C189 C183 1.491 . S
C189 C188 1.400 . S
C189 C190 1.398 . S
C190 H178 0.950 . S
C190 C189 1.398 . S
C190 C191 1.391 . S
C191 H179 0.950 . S
C191 C187 1.393 . S
C191 C190 1.391 . S
H192 C200 0.950 . S
H193 C205 0.950 . S
H194 C202 0.950 . S
H195 C204 0.950 . S
H196 C206 0.950 . S
H197 C208 0.950 . S
H198 C210 0.950 . S
H199 C211 0.950 . S
C200 H192 0.950 . S
C200 C201 1.386 . S
C200 C202 1.391 . S
C201 C200 1.386 . S
C201 C205 1.393 . S
C202 H194 0.950 . S
C202 C200 1.391 . S
C202 C203 1.400 . S
C203 C202 1.400 . S
C203 C204 1.398 . S
C203 C209 1.491 . S
C204 H195 0.950 . S
C204 C203 1.398 . S
C204 C205 1.391 . S
C205 H193 0.950 . S
C205 C201 1.393 . S
C205 C204 1.391 . S
C206 H196 0.950 . S
C206 C207 1.386 . S
C206 C208 1.391 . S
C207 C206 1.386 . S
C207 C211 1.393 . S
C208 H197 0.950 . S
C208 C206 1.391 . S
C208 C209 1.400 . S
C209 C203 1.491 . S
C209 C208 1.400 . S
C209 C210 1.398 . S
C210 H198 0.950 . S
C210 C209 1.398 . S
C210 C211 1.391 . S
C211 H199 0.950 . S
C211 C207 1.393 . S
C211 C210 1.391 . S
H212 C220 0.950 . S
H213 C225 0.950 . S
H214 C222 0.950 . S
H215 C224 0.950 . S
H216 C226 0.950 . S
H217 C228 0.950 . S
H218 C230 0.950 . S
H219 C231 0.950 1_565 S
C220 H212 0.950 . S
C220 C221 1.386 . S
C220 C222 1.391 . S
C221 C220 1.386 . S
C221 C225 1.393 . S
C222 H214 0.950 . S
C222 C220 1.391 . S
C222 C223 1.400 . S
C223 C222 1.400 . S
C223 C224 1.398 . S
C223 C229 1.491 . S
C224 H215 0.950 . S
C224 C223 1.398 . S
C224 C225 1.391 . S
C225 H213 0.950 . S
C225 C221 1.393 . S
C225 C224 1.391 . S
C226 H216 0.950 . S
C226 C227 1.386 . S
C226 C228 1.391 . S
C227 C226 1.386 . S
C227 C231 1.399 . S
C228 H217 0.950 . S
C228 C226 1.391 . S
C228 C229 1.400 1_545 S
C229 C223 1.491 . S
C229 C228 1.400 1_565 S
C229 C230 1.398 . S
C230 H218 0.950 . S
C230 C229 1.398 . S
C230 C231 1.384 1_565 S
C231 H219 0.950 1_545 S
C231 C227 1.399 . S
C231 C230 1.384 1_545 S
H232 C240 0.950 . S
H233 C245 0.950 . S
H234 C242 0.950 . S
H235 C244 0.950 . S
H236 C246 0.950 . S
H237 C248 0.950 . S
H238 C250 0.950 . S
H239 C251 0.950 . S
C240 H232 0.950 . S
C240 C241 1.386 . S
C240 C242 1.391 . S
C241 C240 1.386 . S
C241 C245 1.393 . S
C242 H234 0.950 . S
C242 C240 1.391 . S
C242 C243 1.400 . S
C243 C242 1.400 . S
C243 C244 1.398 . S
C243 C249 1.491 . S
C244 H235 0.950 . S
C244 C243 1.398 . S
C244 C245 1.391 . S
C245 H233 0.950 . S
C245 C241 1.393 . S
C245 C244 1.391 . S
C246 H236 0.950 . S
C246 C247 1.386 . S
C246 C248 1.391 . S
C247 C246 1.386 . S
C247 C251 1.393 . S
C248 H237 0.950 . S
C248 C246 1.391 . S
C248 C249 1.400 . S
C249 C243 1.491 . S
C249 C248 1.400 . S
C249 C250 1.398 . S
C250 H238 0.950 . S
C250 C249 1.398 . S
C250 C251 1.391 . S
C251 H239 0.950 . S
C251 C247 1.393 . S
C251 C250 1.391 . S
H252 C260 0.950 . S
H253 C265 0.950 . S
H254 C262 0.950 . S
H255 C264 0.950 . S
H256 C266 0.950 . S
H257 C268 0.950 . S
H258 C270 0.950 . S
H259 C271 0.950 . S
C260 H252 0.950 . S
C260 C261 1.386 . S
C260 C262 1.391 . S
C261 C260 1.386 . S
C261 C265 1.393 . S
C262 H254 0.950 . S
C262 C260 1.391 . S
C262 C263 1.400 . S
C263 C262 1.400 . S
C263 C264 1.398 . S
C263 C269 1.491 . S
C264 H255 0.950 . S
C264 C263 1.398 . S
C264 C265 1.391 . S
C265 H253 0.950 . S
C265 C261 1.393 . S
C265 C264 1.391 . S
C266 H256 0.950 . S
C266 C267 1.386 . S
C266 C268 1.391 1_565 S
C267 C266 1.386 . S
C267 C271 1.393 . S
C268 H257 0.950 . S
C268 C266 1.391 1_545 S
C268 C269 1.400 . S
C269 C263 1.491 . S
C269 C268 1.400 . S
C269 C270 1.398 . S
C270 H258 0.950 . S
C270 C269 1.398 . S
C270 C271 1.391 1_545 S
C271 H259 0.950 . S
C271 C267 1.393 . S
C271 C270 1.391 1_565 S
H272 C280 0.950 . S
H273 C285 0.950 . S
H274 C282 0.950 . S
H275 C284 0.950 . S
H276 C286 0.950 . S
H277 C288 0.950 . S
H278 C290 0.950 . S
H279 C291 0.950 . S
C280 H272 0.950 . S
C280 C281 1.386 . S
C280 C282 1.391 . S
C281 C280 1.386 . S
C281 C285 1.393 . S
C282 H274 0.950 . S
C282 C280 1.391 . S
C282 C283 1.400 . S
C283 C282 1.400 . S
C283 C284 1.398 . S
C283 C289 1.491 . S
C284 H275 0.950 . S
C284 C283 1.398 . S
C284 C285 1.391 . S
C285 H273 0.950 . S
C285 C281 1.393 . S
C285 C284 1.391 . S
C286 H276 0.950 . S
C286 C287 1.386 . S
C286 C288 1.391 1_455 S
C287 C286 1.386 . S
C287 C291 1.393 . S
C288 H277 0.950 . S
C288 C286 1.391 1_655 S
C288 C289 1.400 . S
C289 C283 1.491 . S
C289 C288 1.400 . S
C289 C290 1.398 . S
C290 H278 0.950 . S
C290 C289 1.398 . S
C290 C291 1.391 1_655 S
C291 H279 0.950 . S
C291 C287 1.393 . S
C291 C290 1.391 1_455 S
H292 C300 0.950 . S
H293 C305 0.950 . S
H294 C302 0.950 . S
H295 C304 0.950 . S
H296 C306 0.950 . S
H297 C308 0.950 . S
H298 C310 0.950 . S
H299 C311 0.950 . S
C300 H292 0.950 . S
C300 C301 1.386 . S
C300 C302 1.391 . S
C301 C300 1.386 . S
C301 C305 1.393 . S
C302 H294 0.950 . S
C302 C300 1.391 . S
C302 C303 1.400 . S
C303 C302 1.400 . S
C303 C304 1.398 . S
C303 C309 1.491 . S
C304 H295 0.950 . S
C304 C303 1.398 . S
C304 C305 1.391 . S
C305 H293 0.950 . S
C305 C301 1.393 . S
C305 C304 1.391 . S
C306 H296 0.950 . S
C306 C307 1.386 . S
C306 C308 1.391 . S
C307 C306 1.386 . S
C307 C311 1.393 . S
C308 H297 0.950 . S
C308 C306 1.391 . S
C308 C309 1.400 . S
C309 C303 1.491 . S
C309 C308 1.400 . S
C309 C310 1.398 . S
C310 H298 0.950 . S
C310 C309 1.398 . S
C310 C311 1.391 . S
C311 H299 0.950 . S
C311 C307 1.393 . S
C311 C310 1.391 . S
H312 C320 0.950 . S
H313 C325 0.950 . S
H314 C322 0.950 . S
H315 C324 0.950 . S
H316 C326 0.950 . S
H317 C328 0.950 . S
H318 C330 0.950 . S
H319 C331 0.950 . S
C320 H312 0.950 . S
C320 C321 1.386 . S
C320 C322 1.391 . S
C321 C320 1.386 . S
C321 C325 1.393 . S
C322 H314 0.950 . S
C322 C320 1.391 . S
C322 C323 1.400 . S
C323 C322 1.400 . S
C323 C324 1.398 . S
C323 C329 1.491 . S
C324 H315 0.950 . S
C324 C323 1.398 . S
C324 C325 1.391 . S
C325 H313 0.950 . S
C325 C321 1.393 . S
C325 C324 1.391 . S
C326 H316 0.950 . S
C326 C327 1.386 1_455 S
C326 C328 1.391 . S
C327 C326 1.386 1_655 S
C327 C331 1.393 . S
C328 H317 0.950 . S
C328 C326 1.391 . S
C328 C329 1.400 . S
C329 C323 1.491 . S
C329 C328 1.400 . S
C329 C330 1.398 1_455 S
C330 H318 0.950 . S
C330 C329 1.398 1_655 S
C330 C331 1.391 . S
C331 H319 0.950 . S
C331 C327 1.393 . S
C331 C330 1.391 . S
H332 C340 0.950 . S
H333 C345 0.950 . S
H334 C342 0.950 . S
H335 C344 0.950 . S
H336 C346 0.950 . S
H337 C348 0.950 . S
H338 C350 0.950 . S
H339 C351 0.950 . S
C340 H332 0.950 . S
C340 C341 1.386 . S
C340 C342 1.391 . S
C341 C340 1.386 . S
C341 C345 1.393 . S
C342 H334 0.950 . S
C342 C340 1.391 . S
C342 C343 1.400 . S
C343 C342 1.400 . S
C343 C344 1.398 . S
C343 C349 1.491 . S
C344 H335 0.950 . S
C344 C343 1.398 . S
C344 C345 1.391 . S
C345 H333 0.950 . S
C345 C341 1.393 . S
C345 C344 1.391 . S
C346 H336 0.950 . S
C346 C347 1.386 . S
C346 C348 1.391 . S
C347 C346 1.386 . S
C347 C351 1.393 . S
C348 H337 0.950 . S
C348 C346 1.391 . S
C348 C349 1.400 . S
C349 C343 1.491 . S
C349 C348 1.400 . S
C349 C350 1.398 . S
C350 H338 0.950 . S
C350 C349 1.398 . S
C350 C351 1.391 . S
C351 H339 0.950 . S
C351 C347 1.393 . S
C351 C350 1.391 . S
H352 C360 0.950 . S
H353 C365 0.950 . S
H354 C362 0.950 1_455 S
H355 C364 0.950 . S
H356 C366 0.950 . S
H357 C368 0.950 1_655 S
H358 C370 0.950 . S
H359 C371 0.950 . S
C360 H352 0.950 . S
C360 C361 1.386 . S
C360 C362 1.391 . S
C361 C360 1.386 . S
C361 C365 1.393 . S
C362 H354 0.950 1_655 S
C362 C360 1.391 . S
C362 C363 1.400 . S
C363 C362 1.400 . S
C363 C364 1.398 . S
C363 C369 1.491 1_655 S
C364 H355 0.950 . S
C364 C363 1.398 . S
C364 C365 1.391 . S
C365 H353 0.950 . S
C365 C361 1.393 . S
C365 C364 1.391 . S
C366 H356 0.950 . S
C366 C367 1.386 . S
C366 C368 1.391 . S
C367 C366 1.386 . S
C367 C371 1.393 . S
C368 H357 0.950 1_455 S
C368 C366 1.391 . S
C368 C369 1.400 . S
C369 C363 1.491 1_455 S
C369 C368 1.400 . S
C369 C370 1.398 . S
C370 H358 0.950 . S
C370 C369 1.398 . S
C370 C371 1.391 . S
C371 H359 0.950 . S
C371 C367 1.393 . S
C371 C370 1.391 . S
H372 C380 0.950 . S
H373 C385 0.950 . S
H374 C382 0.950 1_455 S
H375 C384 0.950 . S
H376 C386 0.950 . S
H377 C388 0.950 1_655 S
H378 C390 0.950 . S
H379 C391 0.950 . S
C380 H372 0.950 . S
C380 C381 1.386 . S
C380 C382 1.391 . S
C381 C380 1.386 . S
C381 C385 1.393 . S
C382 H374 0.950 1_655 S
C382 C380 1.391 . S
C382 C383 1.400 . S
C383 C382 1.400 . S
C383 C384 1.398 . S
C383 C389 1.491 1_655 S
C384 H375 0.950 . S
C384 C383 1.398 . S
C384 C385 1.391 . S
C385 H373 0.950 . S
C385 C381 1.393 . S
C385 C384 1.391 . S
C386 H376 0.950 . S
C386 C387 1.386 . S
C386 C388 1.391 . S
C387 C386 1.386 . S
C387 C391 1.393 . S
C388 H377 0.950 1_455 S
C388 C386 1.391 . S
C388 C389 1.400 . S
C389 C383 1.491 1_455 S
C389 C388 1.400 . S
C389 C390 1.398 . S
C390 H378 0.950 . S
C390 C389 1.398 . S
C390 C391 1.391 . S
C391 H379 0.950 . S
C391 C387 1.393 . S
C391 C390 1.391 . S
H392 C400 0.950 . S
H393 C405 0.950 . S
H394 C402 0.950 1_565 S
H395 C404 0.950 . S
H396 C406 0.950 . S
H397 C408 0.950 1_545 S
H398 C410 0.950 . S
H399 C411 0.950 . S
C400 H392 0.950 . S
C400 C401 1.386 . S
C400 C402 1.391 . S
C401 C400 1.386 . S
C401 C405 1.393 . S
C402 H394 0.950 1_545 S
C402 C400 1.391 . S
C402 C403 1.400 . S
C403 C402 1.400 . S
C403 C404 1.398 . S
C403 C409 1.491 1_545 S
C404 H395 0.950 . S
C404 C403 1.398 . S
C404 C405 1.391 . S
C405 H393 0.950 . S
C405 C401 1.393 . S
C405 C404 1.391 . S
C406 H396 0.950 . S
C406 C407 1.386 . S
C406 C408 1.391 . S
C407 C406 1.386 . S
C407 C411 1.393 . S
C408 H397 0.950 1_565 S
C408 C406 1.391 . S
C408 C409 1.400 . S
C409 C403 1.491 1_565 S
C409 C408 1.400 . S
C409 C410 1.398 . S
C410 H398 0.950 . S
C410 C409 1.398 . S
C410 C411 1.391 . S
C411 H399 0.950 . S
C411 C407 1.393 . S
C411 C410 1.391 . S
H412 C420 0.950 . S
H413 C425 0.950 . S
H414 C422 0.950 1_565 S
H415 C424 0.950 . S
H416 C426 0.950 . S
H417 C428 0.950 1_545 S
H418 C430 0.950 . S
H419 C431 0.950 . S
C420 H412 0.950 . S
C420 C421 1.386 . S
C420 C422 1.391 . S
C421 C420 1.386 . S
C421 C425 1.393 . S
C422 H414 0.950 1_545 S
C422 C420 1.391 . S
C422 C423 1.400 . S
C423 C422 1.400 . S
C423 C424 1.398 . S
C423 C429 1.491 1_545 S
C424 H415 0.950 . S
C424 C423 1.398 . S
C424 C425 1.391 . S
C425 H413 0.950 . S
C425 C421 1.393 . S
C425 C424 1.391 . S
C426 H416 0.950 . S
C426 C427 1.386 . S
C426 C428 1.391 . S
C427 C426 1.386 . S
C427 C431 1.393 . S
C428 H417 0.950 1_565 S
C428 C426 1.391 . S
C428 C429 1.400 . S
C429 C423 1.491 1_565 S
C429 C428 1.400 . S
C429 C430 1.398 . S
C430 H418 0.950 . S
C430 C429 1.398 . S
C430 C431 1.391 . S
C431 H419 0.950 . S
C431 C427 1.393 . S
C431 C430 1.391 . S
C121 C7 1.303 . S
C127 C77 1.317 . S
C141 C21 1.304 . S
C147 C91 1.318 . S
C161 C35 1.305 . S
C167 C105 1.318 . S
C181 C63 1.297 . S
C187 C49 1.311 . S
C201 C8 1.636 . S
C207 C59 1.611 . S
C221 C22 1.645 . S
C227 C73 1.626 . S
C241 C87 1.625 . S
C247 C36 1.644 . S
C261 C50 1.639 . S
C267 C101 1.618 . S
C281 C64 1.645 . S
C287 C3 1.620 . S
C301 C17 1.610 . S
C307 C78 1.636 . S
C321 C92 1.635 . S
C327 C31 1.607 . S
C341 C45 1.618 . S
C347 C106 1.639 . S
C361 C37 0.586 . S
C367 C9 0.596 . S
C381 C51 0.593 . S
C387 C23 0.583 . S
C401 C65 0.538 . S
C407 C93 0.534 . S
C421 C79 0.562 . S
C427 C107 0.572 . S
