# Generated by pormake.
# Topology ukr, (4)-cn, num edge types: 1
# Building blocks:
#     Node 0, Type 0, BuildingBlock: QUQFOY_clean_sbu_1, # of connection points: 4
#     Node 1, Type 0, BuildingBlock: QUQFOY_clean_sbu_1, # of connection points: 4
#     Node 2, Type 0, BuildingBlock: QUQFOY_clean_sbu_1, # of connection points: 4
#     Node 3, Type 0, BuildingBlock: QUQFOY_clean_sbu_1, # of connection points: 4
#     Node 4, Type 0, BuildingBlock: QUQFOY_clean_sbu_1, # of connection points: 4
#     Node 5, Type 0, BuildingBlock: QUQFOY_clean_sbu_1, # of connection points: 4
#     Node 6, Type 0, BuildingBlock: QUQFOY_clean_sbu_1, # of connection points: 4
#     Node 7, Type 0, BuildingBlock: QUQFOY_clean_sbu_1, # of connection points: 4
#     Node 8, Type 0, BuildingBlock: QUQFOY_clean_sbu_1, # of connection points: 4
#     Node 9, Type 0, BuildingBlock: QUQFOY_clean_sbu_1, # of connection points: 4
#     Node 10, Type 0, BuildingBlock: QUQFOY_clean_sbu_1, # of connection points: 4
#     Node 11, Type 0, BuildingBlock: QUQFOY_clean_sbu_1, # of connection points: 4
#     Node 12, Type 0, BuildingBlock: QUQFOY_clean_sbu_1, # of connection points: 4
#     Node 13, Type 0, BuildingBlock: QUQFOY_clean_sbu_1, # of connection points: 4
#     Node 14, Type 0, BuildingBlock: QUQFOY_clean_sbu_1, # of connection points: 4
#     Node 15, Type 0, BuildingBlock: QUQFOY_clean_sbu_1, # of connection points: 4
#     Node 16, Type 0, BuildingBlock: QUQFOY_clean_sbu_1, # of connection points: 4
#     Node 17, Type 0, BuildingBlock: QUQFOY_clean_sbu_1, # of connection points: 4
#     Node 18, Type 0, BuildingBlock: QUQFOY_clean_sbu_1, # of connection points: 4
#     Node 19, Type 0, BuildingBlock: QUQFOY_clean_sbu_1, # of connection points: 4
#     Node 20, Type 0, BuildingBlock: QUQFOY_clean_sbu_1, # of connection points: 4
#     Node 21, Type 0, BuildingBlock: QUQFOY_clean_sbu_1, # of connection points: 4
#     Node 22, Type 0, BuildingBlock: QUQFOY_clean_sbu_1, # of connection points: 4
#     Node 23, Type 0, BuildingBlock: QUQFOY_clean_sbu_1, # of connection points: 4
#     Node 24, Type 0, BuildingBlock: QUQFOY_clean_sbu_1, # of connection points: 4
#     Node 25, Type 0, BuildingBlock: QUQFOY_clean_sbu_1, # of connection points: 4
#     Node 26, Type 0, BuildingBlock: QUQFOY_clean_sbu_1, # of connection points: 4
#     Node 27, Type 0, BuildingBlock: QUQFOY_clean_sbu_1, # of connection points: 4
#     Node 28, Type 0, BuildingBlock: QUQFOY_clean_sbu_1, # of connection points: 4
#     Node 29, Type 0, BuildingBlock: QUQFOY_clean_sbu_1, # of connection points: 4
#     Node 30, Type 0, BuildingBlock: QUQFOY_clean_sbu_1, # of connection points: 4
#     Node 31, Type 0, BuildingBlock: QUQFOY_clean_sbu_1, # of connection points: 4
#     Node 32, Type 0, BuildingBlock: QUQFOY_clean_sbu_1, # of connection points: 4
#     Node 33, Type 0, BuildingBlock: QUQFOY_clean_sbu_1, # of connection points: 4
#     Node 34, Type 0, BuildingBlock: QUQFOY_clean_sbu_1, # of connection points: 4
#     Node 35, Type 0, BuildingBlock: QUQFOY_clean_sbu_1, # of connection points: 4
#     Node 36, Type 0, BuildingBlock: QUQFOY_clean_sbu_1, # of connection points: 4
#     Node 37, Type 0, BuildingBlock: QUQFOY_clean_sbu_1, # of connection points: 4
#     Node 38, Type 0, BuildingBlock: QUQFOY_clean_sbu_1, # of connection points: 4
#     Node 39, Type 0, BuildingBlock: QUQFOY_clean_sbu_1, # of connection points: 4
#     Node 40, Type 0, BuildingBlock: QUQFOY_clean_sbu_1, # of connection points: 4
#     Node 41, Type 0, BuildingBlock: QUQFOY_clean_sbu_1, # of connection points: 4
#     Node 42, Type 0, BuildingBlock: QUQFOY_clean_sbu_1, # of connection points: 4
#     Node 43, Type 0, BuildingBlock: QUQFOY_clean_sbu_1, # of connection points: 4
#     Node 44, Type 0, BuildingBlock: QUQFOY_clean_sbu_1, # of connection points: 4
#     Node 45, Type 0, BuildingBlock: QUQFOY_clean_sbu_1, # of connection points: 4
#     Node 46, Type 0, BuildingBlock: QUQFOY_clean_sbu_1, # of connection points: 4
#     Node 47, Type 0, BuildingBlock: QUQFOY_clean_sbu_1, # of connection points: 4
#     Edge 48, Type (0, 0), BuildingBlock: OJICUG_clean_linker_0, # of connection points: 2
#     Edge 49, Type (0, 0), BuildingBlock: OJICUG_clean_linker_0, # of connection points: 2
#     Edge 50, Type (0, 0), BuildingBlock: OJICUG_clean_linker_0, # of connection points: 2
#     Edge 51, Type (0, 0), BuildingBlock: OJICUG_clean_linker_0, # of connection points: 2
#     Edge 52, Type (0, 0), BuildingBlock: OJICUG_clean_linker_0, # of connection points: 2
#     Edge 53, Type (0, 0), BuildingBlock: OJICUG_clean_linker_0, # of connection points: 2
#     Edge 54, Type (0, 0), BuildingBlock: OJICUG_clean_linker_0, # of connection points: 2
#     Edge 55, Type (0, 0), BuildingBlock: OJICUG_clean_linker_0, # of connection points: 2
#     Edge 56, Type (0, 0), BuildingBlock: OJICUG_clean_linker_0, # of connection points: 2
#     Edge 57, Type (0, 0), BuildingBlock: OJICUG_clean_linker_0, # of connection points: 2
#     Edge 58, Type (0, 0), BuildingBlock: OJICUG_clean_linker_0, # of connection points: 2
#     Edge 59, Type (0, 0), BuildingBlock: OJICUG_clean_linker_0, # of connection points: 2
#     Edge 60, Type (0, 0), BuildingBlock: OJICUG_clean_linker_0, # of connection points: 2
#     Edge 61, Type (0, 0), BuildingBlock: OJICUG_clean_linker_0, # of connection points: 2
#     Edge 62, Type (0, 0), BuildingBlock: OJICUG_clean_linker_0, # of connection points: 2
#     Edge 63, Type (0, 0), BuildingBlock: OJICUG_clean_linker_0, # of connection points: 2
#     Edge 64, Type (0, 0), BuildingBlock: OJICUG_clean_linker_0, # of connection points: 2
#     Edge 65, Type (0, 0), BuildingBlock: OJICUG_clean_linker_0, # of connection points: 2
#     Edge 66, Type (0, 0), BuildingBlock: OJICUG_clean_linker_0, # of connection points: 2
#     Edge 67, Type (0, 0), BuildingBlock: OJICUG_clean_linker_0, # of connection points: 2
#     Edge 68, Type (0, 0), BuildingBlock: OJICUG_clean_linker_0, # of connection points: 2
#     Edge 69, Type (0, 0), BuildingBlock: OJICUG_clean_linker_0, # of connection points: 2
#     Edge 70, Type (0, 0), BuildingBlock: OJICUG_clean_linker_0, # of connection points: 2
#     Edge 71, Type (0, 0), BuildingBlock: OJICUG_clean_linker_0, # of connection points: 2
#     Edge 72, Type (0, 0), BuildingBlock: OJICUG_clean_linker_0, # of connection points: 2
#     Edge 73, Type (0, 0), BuildingBlock: OJICUG_clean_linker_0, # of connection points: 2
#     Edge 74, Type (0, 0), BuildingBlock: OJICUG_clean_linker_0, # of connection points: 2
#     Edge 75, Type (0, 0), BuildingBlock: OJICUG_clean_linker_0, # of connection points: 2
#     Edge 76, Type (0, 0), BuildingBlock: OJICUG_clean_linker_0, # of connection points: 2
#     Edge 77, Type (0, 0), BuildingBlock: OJICUG_clean_linker_0, # of connection points: 2
#     Edge 78, Type (0, 0), BuildingBlock: OJICUG_clean_linker_0, # of connection points: 2
#     Edge 79, Type (0, 0), BuildingBlock: OJICUG_clean_linker_0, # of connection points: 2
#     Edge 80, Type (0, 0), BuildingBlock: OJICUG_clean_linker_0, # of connection points: 2
#     Edge 81, Type (0, 0), BuildingBlock: OJICUG_clean_linker_0, # of connection points: 2
#     Edge 82, Type (0, 0), BuildingBlock: OJICUG_clean_linker_0, # of connection points: 2
#     Edge 83, Type (0, 0), BuildingBlock: OJICUG_clean_linker_0, # of connection points: 2
#     Edge 84, Type (0, 0), BuildingBlock: OJICUG_clean_linker_0, # of connection points: 2
#     Edge 85, Type (0, 0), BuildingBlock: OJICUG_clean_linker_0, # of connection points: 2
#     Edge 86, Type (0, 0), BuildingBlock: OJICUG_clean_linker_0, # of connection points: 2
#     Edge 87, Type (0, 0), BuildingBlock: OJICUG_clean_linker_0, # of connection points: 2
#     Edge 88, Type (0, 0), BuildingBlock: OJICUG_clean_linker_0, # of connection points: 2
#     Edge 89, Type (0, 0), BuildingBlock: OJICUG_clean_linker_0, # of connection points: 2
#     Edge 90, Type (0, 0), BuildingBlock: OJICUG_clean_linker_0, # of connection points: 2
#     Edge 91, Type (0, 0), BuildingBlock: OJICUG_clean_linker_0, # of connection points: 2
#     Edge 92, Type (0, 0), BuildingBlock: OJICUG_clean_linker_0, # of connection points: 2
#     Edge 93, Type (0, 0), BuildingBlock: OJICUG_clean_linker_0, # of connection points: 2
#     Edge 94, Type (0, 0), BuildingBlock: OJICUG_clean_linker_0, # of connection points: 2
#     Edge 95, Type (0, 0), BuildingBlock: OJICUG_clean_linker_0, # of connection points: 2
#     Edge 96, Type (0, 0), BuildingBlock: OJICUG_clean_linker_0, # of connection points: 2
#     Edge 97, Type (0, 0), BuildingBlock: OJICUG_clean_linker_0, # of connection points: 2
#     Edge 98, Type (0, 0), BuildingBlock: OJICUG_clean_linker_0, # of connection points: 2
#     Edge 99, Type (0, 0), BuildingBlock: OJICUG_clean_linker_0, # of connection points: 2
#     Edge 100, Type (0, 0), BuildingBlock: OJICUG_clean_linker_0, # of connection points: 2
#     Edge 101, Type (0, 0), BuildingBlock: OJICUG_clean_linker_0, # of connection points: 2
#     Edge 102, Type (0, 0), BuildingBlock: OJICUG_clean_linker_0, # of connection points: 2
#     Edge 103, Type (0, 0), BuildingBlock: OJICUG_clean_linker_0, # of connection points: 2
#     Edge 104, Type (0, 0), BuildingBlock: OJICUG_clean_linker_0, # of connection points: 2
#     Edge 105, Type (0, 0), BuildingBlock: OJICUG_clean_linker_0, # of connection points: 2
#     Edge 106, Type (0, 0), BuildingBlock: OJICUG_clean_linker_0, # of connection points: 2
#     Edge 107, Type (0, 0), BuildingBlock: OJICUG_clean_linker_0, # of connection points: 2
#     Edge 108, Type (0, 0), BuildingBlock: OJICUG_clean_linker_0, # of connection points: 2
#     Edge 109, Type (0, 0), BuildingBlock: OJICUG_clean_linker_0, # of connection points: 2
#     Edge 110, Type (0, 0), BuildingBlock: OJICUG_clean_linker_0, # of connection points: 2
#     Edge 111, Type (0, 0), BuildingBlock: OJICUG_clean_linker_0, # of connection points: 2
#     Edge 112, Type (0, 0), BuildingBlock: OJICUG_clean_linker_0, # of connection points: 2
#     Edge 113, Type (0, 0), BuildingBlock: OJICUG_clean_linker_0, # of connection points: 2
#     Edge 114, Type (0, 0), BuildingBlock: OJICUG_clean_linker_0, # of connection points: 2
#     Edge 115, Type (0, 0), BuildingBlock: OJICUG_clean_linker_0, # of connection points: 2
#     Edge 116, Type (0, 0), BuildingBlock: OJICUG_clean_linker_0, # of connection points: 2
#     Edge 117, Type (0, 0), BuildingBlock: OJICUG_clean_linker_0, # of connection points: 2
#     Edge 118, Type (0, 0), BuildingBlock: OJICUG_clean_linker_0, # of connection points: 2
#     Edge 119, Type (0, 0), BuildingBlock: OJICUG_clean_linker_0, # of connection points: 2
#     Edge 120, Type (0, 0), BuildingBlock: OJICUG_clean_linker_0, # of connection points: 2
#     Edge 121, Type (0, 0), BuildingBlock: OJICUG_clean_linker_0, # of connection points: 2
#     Edge 122, Type (0, 0), BuildingBlock: OJICUG_clean_linker_0, # of connection points: 2
#     Edge 123, Type (0, 0), BuildingBlock: OJICUG_clean_linker_0, # of connection points: 2
#     Edge 124, Type (0, 0), BuildingBlock: OJICUG_clean_linker_0, # of connection points: 2
#     Edge 125, Type (0, 0), BuildingBlock: OJICUG_clean_linker_0, # of connection points: 2
#     Edge 126, Type (0, 0), BuildingBlock: OJICUG_clean_linker_0, # of connection points: 2
#     Edge 127, Type (0, 0), BuildingBlock: OJICUG_clean_linker_0, # of connection points: 2
#     Edge 128, Type (0, 0), BuildingBlock: OJICUG_clean_linker_0, # of connection points: 2
#     Edge 129, Type (0, 0), BuildingBlock: OJICUG_clean_linker_0, # of connection points: 2
#     Edge 130, Type (0, 0), BuildingBlock: OJICUG_clean_linker_0, # of connection points: 2
#     Edge 131, Type (0, 0), BuildingBlock: OJICUG_clean_linker_0, # of connection points: 2
#     Edge 132, Type (0, 0), BuildingBlock: OJICUG_clean_linker_0, # of connection points: 2
#     Edge 133, Type (0, 0), BuildingBlock: OJICUG_clean_linker_0, # of connection points: 2
#     Edge 134, Type (0, 0), BuildingBlock: OJICUG_clean_linker_0, # of connection points: 2
#     Edge 135, Type (0, 0), BuildingBlock: OJICUG_clean_linker_0, # of connection points: 2
#     Edge 136, Type (0, 0), BuildingBlock: OJICUG_clean_linker_0, # of connection points: 2
#     Edge 137, Type (0, 0), BuildingBlock: OJICUG_clean_linker_0, # of connection points: 2
#     Edge 138, Type (0, 0), BuildingBlock: OJICUG_clean_linker_0, # of connection points: 2
#     Edge 139, Type (0, 0), BuildingBlock: OJICUG_clean_linker_0, # of connection points: 2
#     Edge 140, Type (0, 0), BuildingBlock: OJICUG_clean_linker_0, # of connection points: 2
#     Edge 141, Type (0, 0), BuildingBlock: OJICUG_clean_linker_0, # of connection points: 2
#     Edge 142, Type (0, 0), BuildingBlock: OJICUG_clean_linker_0, # of connection points: 2
#     Edge 143, Type (0, 0), BuildingBlock: OJICUG_clean_linker_0, # of connection points: 2
# Relax obj value: 0.368
# Max RMSD: 0.186
# Mean RMSD: 0.186
data_MOF--net-ukr--node1-QUQFOY_clean_sbu_1--edge1-OJICUG_clean_linker_0
_symmetry_space_group_name_H-M    P1
_symmetry_Int_Tables_number       1
_symmetry_cell_setting            triclinic
loop_
_symmetry_equiv_pos_as_xyz
'x, y, z'
_cell_length_a     55.063524
_cell_length_b     55.109697
_cell_length_c     55.134288
_cell_angle_alpha  90.010146
_cell_angle_beta   90.006634
_cell_angle_gamma 90.008557
loop_
_atom_site_label
_atom_site_type_symbol
_atom_site_fract_x
_atom_site_fract_y
_atom_site_fract_z
_atom_type_partial_charge
O0 O 0.08878 0.21611 0.18553 0.0
Cd1 Cd 0.08662 0.24477 0.16173 0.0
Cd2 Cd 0.11693 0.26824 0.19495 0.0
O3 O 0.10635 0.23779 0.21405 0.0
O4 O 0.05724 0.23905 0.14204 0.0
O5 O 0.06123 0.27028 0.1671 0.0
C6 C 0.04799 0.25808 0.15205 0.0
C7 C 0.13325 0.29662 0.22238 0.0
C8 C 0.097 0.21797 0.20695 0.0
C9 C 0.13593 0.2549 0.14412 0.0
O10 O 0.13958 0.26309 0.16537 0.0
O11 O 0.11494 0.24776 0.13789 0.0
O12 O 0.14299 0.27593 0.2183 0.0
O13 O 0.11396 0.30208 0.21033 0.0
O14 O 0.2714 0.59428 0.70062 0.0
Cd15 Cd 0.2457 0.58933 0.67396 0.0
Cd16 Cd 0.21932 0.62046 0.7007 0.0
O17 O 0.24882 0.61783 0.72362 0.0
O18 O 0.25691 0.56017 0.65645 0.0
O19 O 0.22207 0.56158 0.67644 0.0
C20 C 0.2375 0.54933 0.66371 0.0
C21 C 0.18239 0.62695 0.72043 0.0
C22 C 0.26871 0.60682 0.71975 0.0
C23 C 0.23557 0.63666 0.65073 0.0
O24 O 0.22453 0.64173 0.67031 0.0
O25 O 0.24468 0.61573 0.64772 0.0
O26 O 0.19912 0.64313 0.71974 0.0
O27 O 0.18626 0.60646 0.70984 0.0
O28 O 0.90833 0.77833 0.1874 0.0
Cd29 Cd 0.91139 0.75145 0.1618 0.0
Cd30 Cd 0.87621 0.72697 0.19171 0.0
O31 O 0.88574 0.75681 0.21237 0.0
O32 O 0.94174 0.75894 0.14434 0.0
O33 O 0.93675 0.72565 0.16633 0.0
C34 C 0.95066 0.73919 0.15315 0.0
C35 C 0.85435 0.69944 0.21619 0.0
C36 C 0.8974 0.7761 0.20752 0.0
C37 C 0.86372 0.7427 0.13917 0.0
O38 O 0.85811 0.73282 0.15925 0.0
O39 O 0.88493 0.75095 0.13575 0.0
O40 O 0.87542 0.69342 0.20798 0.0
O41 O 0.84621 0.72038 0.21031 0.0
O42 O 0.7177 0.40358 0.69179 0.0
Cd43 Cd 0.74283 0.40722 0.66445 0.0
Cd44 Cd 0.76938 0.37347 0.69151 0.0
O45 O 0.73989 0.37892 0.71409 0.0
O46 O 0.73371 0.43722 0.64726 0.0
O47 O 0.76862 0.43294 0.66681 0.0
C48 C 0.75409 0.44636 0.6542 0.0
C49 C 0.80218 0.35556 0.71206 0.0
C50 C 0.72048 0.39095 0.71085 0.0
C51 C 0.75124 0.36025 0.64043 0.0
O52 O 0.76301 0.35498 0.65952 0.0
O53 O 0.7417 0.38104 0.63811 0.0
O54 O 0.78216 0.34443 0.70809 0.0
O55 O 0.80395 0.37772 0.70485 0.0
O56 O 0.09496 0.77356 0.79979 0.0
Cd57 Cd 0.09197 0.7468 0.82569 0.0
Cd58 Cd 0.12104 0.72155 0.79652 0.0
O59 O 0.11569 0.75108 0.77418 0.0
O60 O 0.06309 0.75576 0.84488 0.0
O61 O 0.06521 0.72217 0.82289 0.0
C62 C 0.05278 0.73636 0.83683 0.0
C63 C 0.12609 0.68502 0.77573 0.0
C64 C 0.10545 0.77104 0.77945 0.0
C65 C 0.14093 0.73717 0.84531 0.0
O66 O 0.14489 0.72708 0.82496 0.0
O67 O 0.11993 0.74526 0.85025 0.0
O68 O 0.14182 0.70216 0.7747 0.0
O69 O 0.107 0.68815 0.7889 0.0
O70 O 0.71433 0.58866 0.30844 0.0
Cd71 Cd 0.74141 0.58611 0.3339 0.0
Cd72 Cd 0.7656 0.62056 0.30378 0.0
O73 O 0.73583 0.61082 0.28309 0.0
O74 O 0.73437 0.5559 0.35167 0.0
O75 O 0.7675 0.56106 0.32942 0.0
C76 C 0.75418 0.54714 0.34281 0.0
C77 C 0.79381 0.64127 0.27907 0.0
C78 C 0.71653 0.59925 0.28814 0.0
C79 C 0.7497 0.63402 0.35593 0.0
O80 O 0.7595 0.63943 0.33576 0.0
O81 O 0.74172 0.61277 0.35968 0.0
O82 O 0.7729 0.64989 0.28442 0.0
O83 O 0.79941 0.6204 0.28801 0.0
O84 O 0.90607 0.21594 0.80787 0.0
Cd85 Cd 0.90841 0.24434 0.83196 0.0
Cd86 Cd 0.87837 0.26841 0.79934 0.0
O87 O 0.88855 0.23814 0.77976 0.0
O88 O 0.93811 0.23878 0.85118 0.0
O89 O 0.93348 0.27008 0.82629 0.0
C90 C 0.94707 0.25791 0.84106 0.0
C91 C 0.86248 0.29725 0.77219 0.0
C92 C 0.89777 0.21816 0.78652 0.0
C93 C 0.85927 0.25445 0.84992 0.0
O94 O 0.85564 0.26302 0.82882 0.0
O95 O 0.88023 0.24709 0.856 0.0
O96 O 0.85245 0.27666 0.77605 0.0
O97 O 0.88175 0.30242 0.78439 0.0
O98 O 0.27771 0.40435 0.30271 0.0
Cd99 Cd 0.2523 0.40857 0.32968 0.0
Cd100 Cd 0.22575 0.37451 0.30305 0.0
O101 O 0.25526 0.37987 0.28046 0.0
O102 O 0.2598 0.43979 0.34547 0.0
O103 O 0.2256 0.43298 0.32533 0.0
C104 C 0.23931 0.44773 0.33739 0.0
C105 C 0.19345 0.35557 0.28253 0.0
C106 C 0.2748 0.3917 0.28369 0.0
C107 C 0.24373 0.36223 0.35457 0.0
O108 O 0.23211 0.35672 0.33545 0.0
O109 O 0.25328 0.38305 0.35671 0.0
O110 O 0.21363 0.3449 0.28693 0.0
O111 O 0.19122 0.37782 0.28934 0.0
O112 O 0.18421 0.08845 0.21421 0.0
Cd113 Cd 0.15914 0.08636 0.2417 0.0
Cd114 Cd 0.1901 0.12162 0.26499 0.0
O115 O 0.20983 0.11128 0.23476 0.0
O116 O 0.14091 0.05609 0.23573 0.0
O117 O 0.16401 0.06179 0.26817 0.0
C118 C 0.15011 0.04772 0.25554 0.0
C119 C 0.21568 0.14297 0.29203 0.0
C120 C 0.20449 0.09925 0.21583 0.0
C121 C 0.13736 0.13455 0.25016 0.0
O122 O 0.15767 0.14008 0.25966 0.0
O123 O 0.13358 0.1133 0.24217 0.0
O124 O 0.20964 0.15119 0.27116 0.0
O125 O 0.20696 0.12218 0.29825 0.0
O126 O 0.403 0.68175 0.71741 0.0
Cd127 Cd 0.40478 0.66036 0.74791 0.0
Cd128 Cd 0.37686 0.69709 0.76873 0.0
O129 O 0.38914 0.71342 0.73729 0.0
O130 O 0.43325 0.63915 0.74317 0.0
O131 O 0.43104 0.66693 0.7722 0.0
C132 C 0.44346 0.65052 0.76091 0.0
C133 C 0.36245 0.72703 0.79557 0.0
C134 C 0.39707 0.70398 0.71784 0.0
C135 C 0.35486 0.64641 0.75966 0.0
O136 O 0.35238 0.66861 0.76545 0.0
O137 O 0.37552 0.63823 0.75359 0.0
O138 O 0.35257 0.72276 0.77498 0.0
O139 O 0.3808 0.7139 0.80174 0.0
O140 O 0.81053 0.90381 0.21721 0.0
Cd141 Cd 0.83642 0.90667 0.24389 0.0
Cd142 Cd 0.80648 0.87229 0.26887 0.0
O143 O 0.78595 0.88071 0.23865 0.0
O144 O 0.85465 0.93645 0.23601 0.0
O145 O 0.83281 0.93234 0.26952 0.0
C146 C 0.84638 0.9457 0.25583 0.0
C147 C 0.78195 0.85139 0.29704 0.0
C148 C 0.79061 0.89245 0.21939 0.0
C149 C 0.85868 0.85887 0.25317 0.0
O150 O 0.83873 0.85371 0.26356 0.0
O151 O 0.86209 0.87982 0.24431 0.0
O152 O 0.78796 0.84254 0.27644 0.0
O153 O 0.78995 0.87273 0.3023 0.0
O154 O 0.58866 0.31168 0.71667 0.0
Cd155 Cd 0.5869 0.33533 0.74547 0.0
Cd156 Cd 0.6174 0.30143 0.76858 0.0
O157 O 0.6058 0.2828 0.73821 0.0
O158 O 0.55729 0.3549 0.74057 0.0
O159 O 0.56201 0.32936 0.77131 0.0
C160 C 0.54842 0.34445 0.75954 0.0
C161 C 0.63492 0.27325 0.79552 0.0
C162 C 0.59642 0.29008 0.71848 0.0
C163 C 0.63634 0.35258 0.75552 0.0
O164 O 0.63987 0.33124 0.76354 0.0
O165 O 0.61538 0.35901 0.74844 0.0
O166 O 0.64395 0.27812 0.77469 0.0
O167 O 0.61572 0.28494 0.80198 0.0
O168 O 0.18225 0.90508 0.77661 0.0
Cd169 Cd 0.1593 0.90639 0.74724 0.0
Cd170 Cd 0.19489 0.87613 0.72551 0.0
O171 O 0.21248 0.88896 0.75608 0.0
O172 O 0.13855 0.93508 0.75272 0.0
O173 O 0.16456 0.93225 0.72217 0.0
C174 C 0.14886 0.94491 0.73417 0.0
C175 C 0.22365 0.85864 0.69908 0.0
C176 C 0.2042 0.89818 0.7755 0.0
C177 C 0.14351 0.85655 0.73723 0.0
O178 O 0.16527 0.85329 0.73021 0.0
O179 O 0.13634 0.87746 0.74363 0.0
O180 O 0.21896 0.85002 0.72013 0.0
O181 O 0.21165 0.87751 0.69225 0.0
O182 O 0.58836 0.6862 0.27624 0.0
Cd183 Cd 0.58591 0.65983 0.25 0.0
Cd184 Cd 0.62087 0.68937 0.22508 0.0
O185 O 0.61201 0.71035 0.25489 0.0
O186 O 0.55592 0.64172 0.25746 0.0
O187 O 0.56082 0.66304 0.22372 0.0
C188 C 0.54716 0.64961 0.23726 0.0
C189 C 0.64264 0.71299 0.1968 0.0
C190 C 0.59988 0.70602 0.274 0.0
C191 C 0.63383 0.63737 0.24177 0.0
O192 O 0.63915 0.65711 0.23112 0.0
O193 O 0.61277 0.63416 0.25049 0.0
O194 O 0.65097 0.70745 0.21774 0.0
O195 O 0.62127 0.70521 0.19132 0.0
O196 O 0.81115 0.08815 0.77822 0.0
Cd197 Cd 0.83625 0.08651 0.75073 0.0
Cd198 Cd 0.80483 0.12145 0.72751 0.0
O199 O 0.7853 0.11069 0.75769 0.0
O200 O 0.85522 0.05685 0.75726 0.0
O201 O 0.83224 0.06143 0.72458 0.0
C202 C 0.84643 0.04794 0.73751 0.0
C203 C 0.77847 0.14228 0.70088 0.0
C204 C 0.79074 0.09868 0.77658 0.0
C205 C 0.85732 0.13512 0.74239 0.0
O206 O 0.83695 0.14047 0.73288 0.0
O207 O 0.86132 0.11388 0.75025 0.0
O208 O 0.78462 0.1506 0.72168 0.0
O209 O 0.7877 0.1218 0.69439 0.0
O210 O 0.40583 0.31105 0.27728 0.0
Cd211 Cd 0.40786 0.33502 0.24876 0.0
Cd212 Cd 0.37703 0.30156 0.2252 0.0
O213 O 0.38796 0.28268 0.25564 0.0
O214 O 0.43718 0.3548 0.25464 0.0
O215 O 0.43336 0.32986 0.22329 0.0
C216 C 0.44653 0.34489 0.23561 0.0
C217 C 0.35984 0.27366 0.19777 0.0
C218 C 0.39754 0.28966 0.27538 0.0
C219 C 0.35847 0.35268 0.23862 0.0
O220 O 0.35476 0.33149 0.23026 0.0
O221 O 0.37944 0.35879 0.24593 0.0
O222 O 0.35046 0.27845 0.21846 0.0
O223 O 0.37918 0.28532 0.19169 0.0
O224 O 0.21611 0.19075 0.09168 0.0
Cd225 Cd 0.24078 0.16321 0.08689 0.0
Cd226 Cd 0.2683 0.18957 0.12167 0.0
O227 O 0.23871 0.21213 0.1168 0.0
O228 O 0.23008 0.14696 0.05685 0.0
O229 O 0.26554 0.16563 0.06018 0.0
C230 C 0.25014 0.15383 0.04699 0.0
C231 C 0.30025 0.21054 0.1408 0.0
C232 C 0.2192 0.20943 0.10479 0.0
C233 C 0.25008 0.13795 0.13323 0.0
O234 O 0.26218 0.15676 0.13884 0.0
O235 O 0.24002 0.13635 0.1126 0.0
O236 O 0.28027 0.20542 0.15151 0.0
O237 O 0.30257 0.20394 0.1185 0.0
O238 O 0.21771 0.80451 0.89958 0.0
Cd239 Cd 0.24069 0.83341 0.90462 0.0
Cd240 Cd 0.26968 0.80968 0.86953 0.0
O241 O 0.24094 0.78574 0.87299 0.0
O242 O 0.22949 0.8487 0.93499 0.0
O243 O 0.26592 0.83214 0.93098 0.0
C244 C 0.2501 0.84298 0.94448 0.0
C245 C 0.30327 0.79048 0.85145 0.0
C246 C 0.22156 0.78673 0.88546 0.0
C247 C 0.24896 0.86037 0.85896 0.0
O248 O 0.26262 0.84273 0.85316 0.0
O249 O 0.23816 0.86051 0.87927 0.0
O250 O 0.28371 0.79525 0.83984 0.0
O251 O 0.30426 0.79653 0.874 0.0
O252 O 0.6827 0.7142 0.40413 0.0
Cd253 Cd 0.65747 0.74157 0.40636 0.0
Cd254 Cd 0.68936 0.76624 0.37368 0.0
O255 O 0.70922 0.73613 0.38387 0.0
O256 O 0.63844 0.73432 0.43579 0.0
O257 O 0.66147 0.7671 0.43203 0.0
C258 C 0.64734 0.7538 0.44522 0.0
C259 C 0.71595 0.79348 0.3541 0.0
C260 C 0.70351 0.71655 0.39457 0.0
C261 C 0.6376 0.75128 0.35769 0.0
O262 O 0.65814 0.76086 0.35332 0.0
O263 O 0.63282 0.74302 0.37863 0.0
O264 O 0.71024 0.77277 0.34529 0.0
O265 O 0.70606 0.79961 0.37438 0.0
O266 O 0.77877 0.18959 0.9012 0.0
Cd267 Cd 0.75385 0.1622 0.9055 0.0
Cd268 Cd 0.72685 0.1887 0.87078 0.0
O269 O 0.75645 0.21118 0.87604 0.0
O270 O 0.76373 0.1458 0.9357 0.0
O271 O 0.72855 0.16487 0.93165 0.0
C272 C 0.74353 0.15287 0.94513 0.0
C273 C 0.69498 0.20986 0.85178 0.0
C274 C 0.77584 0.20836 0.88821 0.0
C275 C 0.74491 0.13708 0.85909 0.0
O276 O 0.73296 0.15597 0.85343 0.0
O277 O 0.75479 0.13538 0.87978 0.0
O278 O 0.71498 0.20484 0.84107 0.0
O279 O 0.69259 0.20303 0.874 0.0
O280 O 0.30971 0.28127 0.40401 0.0
Cd281 Cd 0.33529 0.2543 0.40652 0.0
Cd282 Cd 0.3048 0.23038 0.37103 0.0
O283 O 0.28463 0.26053 0.38076 0.0
O284 O 0.35373 0.26222 0.43619 0.0
O285 O 0.33176 0.22877 0.43235 0.0
C286 C 0.34542 0.24249 0.44559 0.0
C287 C 0.27989 0.20246 0.35003 0.0
C288 C 0.28963 0.2795 0.39288 0.0
C289 C 0.35743 0.24576 0.35844 0.0
O290 O 0.3373 0.23593 0.3528 0.0
O291 O 0.36091 0.25394 0.37964 0.0
O292 O 0.28567 0.22325 0.34141 0.0
O293 O 0.28843 0.19686 0.37106 0.0
O294 O 0.78329 0.80848 0.08957 0.0
Cd295 Cd 0.75577 0.83356 0.08723 0.0
Cd296 Cd 0.73127 0.802 0.11996 0.0
O297 O 0.76152 0.78209 0.11019 0.0
O298 O 0.76284 0.85255 0.05777 0.0
O299 O 0.73013 0.82943 0.06167 0.0
C300 C 0.7433 0.84366 0.04845 0.0
C301 C 0.70332 0.77588 0.13918 0.0
C302 C 0.78109 0.78779 0.09942 0.0
C303 C 0.74609 0.85376 0.13574 0.0
O304 O 0.73655 0.83324 0.14026 0.0
O305 O 0.75434 0.85839 0.11478 0.0
O306 O 0.72405 0.78119 0.14824 0.0
O307 O 0.69766 0.7858 0.11879 0.0
O308 O 0.68453 0.28021 0.59035 0.0
Cd309 Cd 0.65841 0.25379 0.58764 0.0
Cd310 Cd 0.68795 0.22908 0.62318 0.0
O311 O 0.7087 0.25903 0.61413 0.0
O312 O 0.64045 0.26203 0.55779 0.0
O313 O 0.66168 0.22813 0.5619 0.0
C314 C 0.64846 0.24212 0.5485 0.0
C315 C 0.71241 0.20077 0.64411 0.0
C316 C 0.70433 0.27806 0.60189 0.0
C317 C 0.63558 0.24542 0.63542 0.0
O318 O 0.65534 0.23492 0.64113 0.0
O319 O 0.63258 0.25399 0.6143 0.0
O320 O 0.7065 0.22141 0.65299 0.0
O321 O 0.70417 0.1955 0.62287 0.0
O322 O 0.30227 0.71214 0.59392 0.0
Cd323 Cd 0.33045 0.73578 0.58814 0.0
Cd324 Cd 0.30585 0.76484 0.6234 0.0
O325 O 0.28246 0.73572 0.61942 0.0
O326 O 0.34554 0.72434 0.55776 0.0
O327 O 0.3281 0.76038 0.5613 0.0
C328 C 0.33904 0.74452 0.54792 0.0
C329 C 0.28588 0.79737 0.64271 0.0
C330 C 0.28411 0.71603 0.60753 0.0
C331 C 0.35742 0.74537 0.6335 0.0
O332 O 0.33927 0.75835 0.63938 0.0
O333 O 0.35789 0.73454 0.61321 0.0
O334 O 0.29113 0.77753 0.65359 0.0
O335 O 0.29192 0.79926 0.62021 0.0
O336 O 0.90668 0.77695 0.80405 0.0
Cd337 Cd 0.91038 0.75131 0.83085 0.0
Cd338 Cd 0.87588 0.72506 0.80285 0.0
O339 O 0.88289 0.75465 0.78091 0.0
O340 O 0.941 0.75938 0.8476 0.0
O341 O 0.93553 0.72518 0.82713 0.0
C342 C 0.94964 0.73914 0.83966 0.0
C343 C 0.85499 0.69494 0.78086 0.0
C344 C 0.89466 0.77413 0.78461 0.0
C345 C 0.86334 0.74255 0.85465 0.0
O346 O 0.85798 0.73132 0.83525 0.0
O347 O 0.88424 0.75185 0.85729 0.0
O348 O 0.8457 0.7156 0.78601 0.0
O349 O 0.87691 0.69088 0.78793 0.0
O350 O 0.72032 0.40108 0.30031 0.0
Cd351 Cd 0.74516 0.40497 0.32791 0.0
Cd352 Cd 0.77184 0.372 0.30165 0.0
O353 O 0.74249 0.37588 0.27861 0.0
O354 O 0.73522 0.43472 0.3451 0.0
O355 O 0.77051 0.4312 0.32612 0.0
C356 C 0.75554 0.44427 0.33858 0.0
C357 C 0.80691 0.35811 0.28199 0.0
C358 C 0.72307 0.38799 0.28155 0.0
C359 C 0.75357 0.35803 0.35215 0.0
O360 O 0.76562 0.35279 0.33323 0.0
O361 O 0.74393 0.3788 0.35429 0.0
O362 O 0.7881 0.34477 0.285 0.0
O363 O 0.80614 0.38015 0.28973 0.0
O364 O 0.09042 0.21775 0.80447 0.0
Cd365 Cd 0.08864 0.24666 0.82804 0.0
Cd366 Cd 0.11694 0.26977 0.79457 0.0
O367 O 0.1067 0.23939 0.77522 0.0
O368 O 0.06001 0.24057 0.84869 0.0
O369 O 0.06261 0.27166 0.82329 0.0
C370 C 0.05006 0.25931 0.8388 0.0
C371 C 0.12845 0.3009 0.76793 0.0
C372 C 0.09794 0.21948 0.78278 0.0
C373 C 0.13859 0.25664 0.84393 0.0
O374 O 0.14165 0.26436 0.82242 0.0
O375 O 0.11765 0.25018 0.85102 0.0
O376 O 0.13999 0.28079 0.76946 0.0
O377 O 0.11015 0.30418 0.78212 0.0
O378 O 0.27087 0.59297 0.29577 0.0
Cd379 Cd 0.24333 0.58993 0.32088 0.0
Cd380 Cd 0.21908 0.61905 0.29047 0.0
O381 O 0.2491 0.61297 0.26898 0.0
O382 O 0.25271 0.56169 0.3408 0.0
O383 O 0.21954 0.56238 0.3181 0.0
C384 C 0.23381 0.55066 0.33256 0.0
C385 C 0.18326 0.62494 0.26863 0.0
C386 C 0.26894 0.60298 0.27512 0.0
C387 C 0.23328 0.63913 0.33965 0.0
O388 O 0.22424 0.64309 0.31881 0.0
O389 O 0.24073 0.61805 0.34515 0.0
O390 O 0.20094 0.64006 0.26783 0.0
O391 O 0.18542 0.60598 0.28213 0.0
O392 O 0.90413 0.21791 0.18617 0.0
Cd393 Cd 0.90624 0.24647 0.16224 0.0
Cd394 Cd 0.87754 0.2704 0.19499 0.0
O395 O 0.88696 0.23995 0.21461 0.0
O396 O 0.93529 0.24034 0.14221 0.0
O397 O 0.93203 0.27165 0.16728 0.0
C398 C 0.94495 0.25921 0.15214 0.0
C399 C 0.86573 0.30131 0.22176 0.0
C400 C 0.89599 0.21996 0.2076 0.0
C401 C 0.85665 0.25684 0.14536 0.0
O402 O 0.85341 0.26527 0.16659 0.0
O403 O 0.87755 0.24966 0.13883 0.0
O404 O 0.85391 0.28142 0.21954 0.0
O405 O 0.8844 0.30458 0.20807 0.0
O406 O 0.27653 0.40053 0.69655 0.0
Cd407 Cd 0.25251 0.40617 0.66856 0.0
Cd408 Cd 0.22455 0.37268 0.69227 0.0
O409 O 0.25337 0.37459 0.71625 0.0
O410 O 0.26222 0.43731 0.65385 0.0
O411 O 0.22664 0.43166 0.6718 0.0
C412 C 0.24161 0.44598 0.66078 0.0
C413 C 0.18865 0.35868 0.71031 0.0
C414 C 0.27305 0.38651 0.71448 0.0
C415 C 0.24399 0.36082 0.64165 0.0
O416 O 0.23118 0.35503 0.65989 0.0
O417 O 0.25424 0.3814 0.64083 0.0
O418 O 0.20717 0.34502 0.70697 0.0
O419 O 0.19019 0.38108 0.70383 0.0
O420 O 0.09692 0.77383 0.19521 0.0
Cd421 Cd 0.09309 0.74818 0.1683 0.0
Cd422 Cd 0.12296 0.72184 0.19534 0.0
O423 O 0.11966 0.75093 0.21868 0.0
O424 O 0.06372 0.75779 0.15021 0.0
O425 O 0.06653 0.72327 0.17063 0.0
C426 C 0.05378 0.7379 0.15747 0.0
C427 C 0.12775 0.68431 0.21424 0.0
C428 C 0.10884 0.77089 0.2147 0.0
C429 C 0.14107 0.7387 0.14634 0.0
O430 O 0.14553 0.72745 0.16594 0.0
O431 O 0.12019 0.74775 0.14277 0.0
O432 O 0.14424 0.70074 0.21494 0.0
O433 O 0.1079 0.68886 0.20272 0.0
O434 O 0.71369 0.59061 0.68513 0.0
Cd435 Cd 0.74158 0.58812 0.6605 0.0
Cd436 Cd 0.76599 0.61967 0.69219 0.0
O437 O 0.73587 0.60976 0.7122 0.0
O438 O 0.73491 0.55846 0.64169 0.0
O439 O 0.76715 0.56269 0.66543 0.0
C440 C 0.75423 0.54924 0.65119 0.0
C441 C 0.79447 0.63724 0.71878 0.0
C442 C 0.71604 0.59972 0.70612 0.0
C443 C 0.75129 0.63676 0.64097 0.0
O444 O 0.76042 0.64103 0.66172 0.0
O445 O 0.74355 0.61571 0.63579 0.0
O446 O 0.77385 0.64688 0.7141 0.0
O447 O 0.79985 0.61736 0.70771 0.0
O448 O 0.8128 0.90446 0.77736 0.0
Cd449 Cd 0.837 0.9064 0.74905 0.0
Cd450 Cd 0.80399 0.87441 0.72558 0.0
O451 O 0.78505 0.88521 0.75604 0.0
O452 O 0.85664 0.93566 0.7554 0.0
O453 O 0.83223 0.93202 0.72363 0.0
C454 C 0.84703 0.94512 0.73628 0.0
C455 C 0.7762 0.85588 0.69885 0.0
C456 C 0.79165 0.89552 0.77555 0.0
C457 C 0.85569 0.85732 0.73916 0.0
O458 O 0.8347 0.85315 0.73049 0.0
O459 O 0.8612 0.87834 0.74673 0.0
O460 O 0.78188 0.84685 0.71946 0.0
O461 O 0.7869 0.87567 0.69246 0.0
O462 O 0.58985 0.31164 0.27741 0.0
Cd463 Cd 0.58818 0.33487 0.24827 0.0
Cd464 Cd 0.61702 0.29983 0.22538 0.0
O465 O 0.60503 0.28168 0.25588 0.0
O466 O 0.5593 0.35539 0.25366 0.0
O467 O 0.56246 0.32937 0.22313 0.0
C468 C 0.54961 0.34496 0.23508 0.0
C469 C 0.6326 0.27114 0.19785 0.0
C470 C 0.59654 0.28967 0.27573 0.0
C471 C 0.63804 0.35027 0.23767 0.0
O472 O 0.64084 0.3286 0.23026 0.0
O473 O 0.61728 0.35765 0.24438 0.0
O474 O 0.64216 0.27519 0.21862 0.0
O475 O 0.61397 0.28393 0.1918 0.0
O476 O 0.1824 0.08816 0.77714 0.0
Cd477 Cd 0.15773 0.0864 0.74929 0.0
Cd478 Cd 0.18995 0.12091 0.72633 0.0
O479 O 0.2091 0.10978 0.75666 0.0
O480 O 0.13878 0.05658 0.75529 0.0
O481 O 0.16247 0.06145 0.72315 0.0
C482 C 0.14812 0.04779 0.73573 0.0
C483 C 0.21643 0.142 0.69996 0.0
C484 C 0.2031 0.09817 0.77564 0.0
C485 C 0.13727 0.13505 0.74044 0.0
O486 O 0.1579 0.14012 0.73138 0.0
O487 O 0.13278 0.11388 0.74822 0.0
O488 O 0.21032 0.15006 0.72087 0.0
O489 O 0.20725 0.12155 0.69328 0.0
O490 O 0.40335 0.67888 0.27785 0.0
Cd491 Cd 0.4054 0.6566 0.24806 0.0
Cd492 Cd 0.3761 0.6924 0.22597 0.0
O493 O 0.38798 0.70941 0.25724 0.0
O494 O 0.43434 0.63619 0.2533 0.0
O495 O 0.43137 0.66296 0.22341 0.0
C496 C 0.4442 0.6472 0.23515 0.0
C497 C 0.35984 0.72192 0.19963 0.0
C498 C 0.39659 0.70086 0.27682 0.0
C499 C 0.35597 0.64094 0.23614 0.0
O500 O 0.35299 0.66278 0.22928 0.0
O501 O 0.37664 0.63368 0.24322 0.0
O502 O 0.35032 0.7167 0.22016 0.0
O503 O 0.37887 0.70993 0.19319 0.0
O504 O 0.81167 0.08876 0.2142 0.0
Cd505 Cd 0.83642 0.08715 0.24199 0.0
Cd506 Cd 0.80422 0.12098 0.26527 0.0
O507 O 0.78492 0.10989 0.23505 0.0
O508 O 0.85567 0.05768 0.23552 0.0
O509 O 0.83221 0.06191 0.26791 0.0
C510 C 0.8466 0.04856 0.25505 0.0
C511 C 0.77732 0.14103 0.29195 0.0
C512 C 0.79088 0.0985 0.21593 0.0
C513 C 0.85649 0.13596 0.25086 0.0
O514 O 0.83586 0.14083 0.26004 0.0
O515 O 0.86112 0.11481 0.24309 0.0
O516 O 0.7832 0.14953 0.27116 0.0
O517 O 0.78716 0.12083 0.29843 0.0
O518 O 0.40521 0.30891 0.71888 0.0
Cd519 Cd 0.40685 0.33159 0.74849 0.0
Cd520 Cd 0.37843 0.29637 0.77057 0.0
O521 O 0.39 0.27854 0.73975 0.0
O522 O 0.43531 0.35268 0.743 0.0
O523 O 0.43301 0.32624 0.77322 0.0
C524 C 0.44541 0.34224 0.76135 0.0
C525 C 0.36468 0.26762 0.79889 0.0
C526 C 0.39844 0.28694 0.72006 0.0
C527 C 0.35675 0.34646 0.75908 0.0
O528 O 0.35395 0.32462 0.76597 0.0
O529 O 0.37759 0.35408 0.75288 0.0
O530 O 0.35438 0.27097 0.77835 0.0
O531 O 0.38296 0.28117 0.80428 0.0
O532 O 0.18519 0.9047 0.21661 0.0
Cd533 Cd 0.16257 0.90623 0.24625 0.0
Cd534 Cd 0.1984 0.87764 0.26811 0.0
O535 O 0.21595 0.89007 0.2374 0.0
O536 O 0.14134 0.93451 0.24053 0.0
O537 O 0.1678 0.93261 0.27077 0.0
C538 C 0.15179 0.94484 0.25875 0.0
C539 C 0.22733 0.86285 0.29583 0.0
C540 C 0.20733 0.89844 0.21776 0.0
C541 C 0.1479 0.85618 0.25689 0.0
O542 O 0.16985 0.85343 0.26353 0.0
O543 O 0.14015 0.87696 0.25073 0.0
O544 O 0.22375 0.85319 0.27501 0.0
O545 O 0.21403 0.88114 0.30176 0.0
O546 O 0.58651 0.68566 0.71621 0.0
Cd547 Cd 0.58481 0.66049 0.74362 0.0
Cd548 Cd 0.6199 0.69157 0.76677 0.0
O549 O 0.60913 0.71142 0.7368 0.0
O550 O 0.55472 0.64193 0.73773 0.0
O551 O 0.5603 0.66494 0.77024 0.0
C552 C 0.54635 0.65089 0.75764 0.0
C553 C 0.64154 0.71713 0.79354 0.0
C554 C 0.59712 0.70604 0.71787 0.0
C555 C 0.63328 0.63915 0.75151 0.0
O556 O 0.6387 0.65948 0.761 0.0
O557 O 0.61196 0.63517 0.74379 0.0
O558 O 0.6494 0.71131 0.77248 0.0
O559 O 0.62094 0.70821 0.80013 0.0
O560 O 0.78253 0.8086 0.90413 0.0
Cd561 Cd 0.75568 0.83432 0.90668 0.0
Cd562 Cd 0.73136 0.80429 0.8718 0.0
O563 O 0.7614 0.7837 0.88105 0.0
O564 O 0.76321 0.85247 0.93658 0.0
O565 O 0.72977 0.83054 0.93208 0.0
C566 C 0.74333 0.84408 0.94562 0.0
C567 C 0.70269 0.78001 0.85115 0.0
C568 C 0.78053 0.78855 0.893 0.0
C569 C 0.74721 0.85658 0.85881 0.0
O570 O 0.73714 0.83655 0.85333 0.0
O571 O 0.75556 0.86005 0.87995 0.0
O572 O 0.7235 0.78537 0.84228 0.0
O573 O 0.69756 0.7885 0.87232 0.0
O574 O 0.77693 0.19185 0.09279 0.0
Cd575 Cd 0.753 0.16365 0.08806 0.0
Cd576 Cd 0.72516 0.1884 0.12311 0.0
O577 O 0.75441 0.21163 0.11924 0.0
O578 O 0.76372 0.14776 0.05787 0.0
O579 O 0.7278 0.16544 0.0617 0.0
C580 C 0.74329 0.15397 0.04834 0.0
C581 C 0.69211 0.20834 0.14133 0.0
C582 C 0.7737 0.20991 0.10672 0.0
C583 C 0.74449 0.13725 0.13394 0.0
O584 O 0.7316 0.15543 0.13982 0.0
O585 O 0.75487 0.13655 0.11343 0.0
O586 O 0.71176 0.20344 0.15274 0.0
O587 O 0.69077 0.2021 0.11885 0.0
O588 O 0.311 0.28146 0.59065 0.0
Cd589 Cd 0.33664 0.25461 0.58774 0.0
Cd590 Cd 0.30643 0.22988 0.62267 0.0
O591 O 0.28611 0.26015 0.61359 0.0
O592 O 0.35472 0.2624 0.55784 0.0
O593 O 0.3327 0.22901 0.56206 0.0
C594 C 0.34622 0.24267 0.5486 0.0
C595 C 0.28166 0.20157 0.64327 0.0
C596 C 0.29095 0.27936 0.60179 0.0
C597 C 0.359 0.2453 0.6355 0.0
O598 O 0.33898 0.23514 0.64091 0.0
O599 O 0.36236 0.25406 0.61451 0.0
O600 O 0.28752 0.22218 0.65227 0.0
O601 O 0.29002 0.19639 0.62206 0.0
O602 O 0.2184 0.80594 0.09266 0.0
Cd603 Cd 0.24237 0.83404 0.08788 0.0
Cd604 Cd 0.27053 0.80846 0.12351 0.0
O605 O 0.24124 0.78553 0.11835 0.0
O606 O 0.23113 0.85002 0.05787 0.0
O607 O 0.26705 0.83224 0.06102 0.0
C608 C 0.2513 0.84363 0.0479 0.0
C609 C 0.30212 0.78749 0.14332 0.0
C610 C 0.22185 0.78753 0.10604 0.0
C611 C 0.25125 0.85994 0.1341 0.0
O612 O 0.26397 0.84161 0.13996 0.0
O613 O 0.24094 0.86088 0.11356 0.0
O614 O 0.2821 0.793 0.15376 0.0
O615 O 0.30479 0.79394 0.12101 0.0
O616 O 0.6854 0.71685 0.59048 0.0
Cd617 Cd 0.65839 0.74238 0.58731 0.0
Cd618 Cd 0.68674 0.76872 0.62191 0.0
O619 O 0.70831 0.73889 0.61473 0.0
O620 O 0.64077 0.73363 0.5574 0.0
O621 O 0.66109 0.76809 0.5616 0.0
C622 C 0.64821 0.75379 0.54818 0.0
C623 C 0.70989 0.79843 0.64221 0.0
C624 C 0.70478 0.71959 0.60264 0.0
C625 C 0.63497 0.7514 0.63468 0.0
O626 O 0.65426 0.76292 0.63993 0.0
O627 O 0.63245 0.7418 0.61393 0.0
O628 O 0.70423 0.77804 0.65179 0.0
O629 O 0.70238 0.80255 0.62047 0.0
O630 O 0.21732 0.19197 0.89809 0.0
Cd631 Cd 0.24056 0.16334 0.90359 0.0
Cd632 Cd 0.26944 0.18689 0.86951 0.0
O633 O 0.24058 0.21081 0.87162 0.0
O634 O 0.22928 0.14817 0.93397 0.0
O635 O 0.26558 0.16508 0.93012 0.0
C636 C 0.24976 0.15417 0.94356 0.0
C637 C 0.30438 0.20563 0.85385 0.0
C638 C 0.22104 0.20964 0.88381 0.0
C639 C 0.24933 0.13631 0.85813 0.0
O640 O 0.26284 0.15412 0.8525 0.0
O641 O 0.2385 0.13599 0.87842 0.0
O642 O 0.28552 0.20133 0.84094 0.0
O643 O 0.3038 0.19951 0.87639 0.0
O644 O 0.29864 0.71484 0.39768 0.0
Cd645 Cd 0.32799 0.73692 0.40404 0.0
Cd646 Cd 0.30636 0.76692 0.36877 0.0
O647 O 0.28187 0.73847 0.37016 0.0
O648 O 0.34225 0.72431 0.43436 0.0
O649 O 0.32705 0.76137 0.43115 0.0
C650 C 0.33715 0.74482 0.44434 0.0
C651 C 0.28843 0.80168 0.35168 0.0
C652 C 0.28178 0.71904 0.38256 0.0
C653 C 0.35682 0.7454 0.35947 0.0
O654 O 0.33987 0.7598 0.35339 0.0
O655 O 0.35578 0.73407 0.37946 0.0
O656 O 0.29331 0.78264 0.33929 0.0
O657 O 0.29364 0.80145 0.37447 0.0
O658 O 0.68616 0.27918 0.40339 0.0
Cd659 Cd 0.6594 0.25343 0.40634 0.0
Cd660 Cd 0.68791 0.22789 0.37048 0.0
O661 O 0.70925 0.25762 0.37887 0.0
O662 O 0.64174 0.26222 0.43621 0.0
O663 O 0.66206 0.22777 0.43214 0.0
C664 C 0.64918 0.2421 0.44551 0.0
C665 C 0.71156 0.19911 0.34928 0.0
C666 C 0.7056 0.27668 0.39131 0.0
C667 C 0.63576 0.24519 0.35885 0.0
O668 O 0.6551 0.23402 0.35302 0.0
O669 O 0.63338 0.25423 0.37986 0.0
O670 O 0.70568 0.21973 0.34033 0.0
O671 O 0.7038 0.19415 0.37076 0.0
C672 C 0.98399 0.27874 0.16491 0.0
C673 C 0.97098 0.26428 0.1484 0.0
H674 H 0.01902 0.2883 0.17892 0.0
C675 C 0.98372 0.25158 0.13036 0.0
H676 H 0.97462 0.28882 0.17894 0.0
C677 C 0.00901 0.25128 0.13036 0.0
C678 C 0.02205 0.26368 0.14839 0.0
H679 H 0.97418 0.24058 0.11714 0.0
H680 H 0.01826 0.24006 0.11713 0.0
C681 C 0.00941 0.27844 0.1649 0.0
C682 C 0.25068 0.51126 0.64353 0.0
C683 C 0.23459 0.52309 0.65935 0.0
H684 H 0.2652 0.47751 0.63135 0.0
C685 C 0.21804 0.50921 0.67293 0.0
H686 H 0.26341 0.52146 0.63255 0.0
C687 C 0.21905 0.48382 0.6722 0.0
C688 C 0.23665 0.4721 0.65792 0.0
H689 H 0.20537 0.51788 0.6852 0.0
H690 H 0.20714 0.47348 0.68393 0.0
C691 C 0.25171 0.48604 0.64285 0.0
C692 C 0.01418 0.71769 0.16718 0.0
C693 C 0.02781 0.73358 0.15262 0.0
H694 H 0.97859 0.70682 0.17866 0.0
C695 C 0.01582 0.74795 0.13535 0.0
H696 H 0.02301 0.70633 0.18057 0.0
C697 C 0.99057 0.74819 0.13422 0.0
C698 C 0.9768 0.73411 0.15037 0.0
H699 H 0.02587 0.76008 0.1236 0.0
H700 H 0.98186 0.76053 0.12164 0.0
C701 C 0.98878 0.71796 0.16607 0.0
C702 C 0.74549 0.48456 0.63204 0.0
C703 C 0.75913 0.4722 0.64963 0.0
H704 H 0.73377 0.5188 0.61837 0.0
C705 C 0.77479 0.48541 0.66482 0.0
H706 H 0.73358 0.4748 0.61982 0.0
C707 C 0.77485 0.51081 0.66404 0.0
C708 C 0.75931 0.52317 0.64803 0.0
H709 H 0.78558 0.47628 0.67847 0.0
H710 H 0.78569 0.52068 0.67714 0.0
C711 C 0.74563 0.50979 0.6312 0.0
C712 C 0.9894 0.7477 0.8591 0.0
C713 C 0.97567 0.73375 0.84281 0.0
H714 H 0.02471 0.75904 0.8703 0.0
C715 C 0.98762 0.71731 0.82741 0.0
H716 H 0.98068 0.76026 0.87147 0.0
C717 C 0.01304 0.71662 0.82671 0.0
C718 C 0.02671 0.73236 0.84142 0.0
H719 H 0.97745 0.70626 0.81472 0.0
H720 H 0.02187 0.70505 0.8135 0.0
C721 C 0.01466 0.747 0.85843 0.0
C722 C 0.77557 0.50913 0.3299 0.0
C723 C 0.75951 0.52109 0.34571 0.0
H724 H 0.7871 0.47492 0.31531 0.0
C725 C 0.74562 0.50733 0.36204 0.0
H726 H 0.78657 0.51932 0.31718 0.0
C727 C 0.74586 0.48212 0.3609 0.0
C728 C 0.76006 0.47015 0.34349 0.0
H729 H 0.73337 0.51603 0.37472 0.0
H730 H 0.73382 0.47205 0.37275 0.0
C731 C 0.77587 0.48375 0.32881 0.0
C732 C 0.01178 0.25165 0.86143 0.0
C733 C 0.0241 0.26433 0.84309 0.0
H734 H 0.97755 0.24009 0.87542 0.0
C735 C 0.01072 0.27872 0.82683 0.0
H736 H 0.02162 0.24071 0.87446 0.0
C737 C 0.9853 0.27837 0.8274 0.0
C738 C 0.97304 0.26362 0.84421 0.0
H739 H 0.01976 0.28879 0.81258 0.0
H740 H 0.97537 0.28818 0.81356 0.0
C741 C 0.9865 0.2513 0.86198 0.0
C742 C 0.21662 0.48487 0.32418 0.0
C743 C 0.23328 0.47367 0.33992 0.0
H744 H 0.20354 0.51847 0.30954 0.0
C745 C 0.24676 0.48807 0.35603 0.0
H746 H 0.20592 0.47417 0.31163 0.0
C747 C 0.24537 0.51326 0.35489 0.0
C748 C 0.23051 0.52457 0.33756 0.0
H749 H 0.25946 0.47992 0.36865 0.0
H750 H 0.25705 0.52384 0.36665 0.0
C751 C 0.21526 0.51022 0.32299 0.0
C752 C 0.16401 0.98444 0.27749 0.0
C753 C 0.14763 0.97089 0.26337 0.0
H754 H 0.17751 0.01986 0.2863 0.0
C755 C 0.12933 0.98308 0.25048 0.0
H756 H 0.17823 0.97551 0.28771 0.0
C757 C 0.12897 0.00833 0.24963 0.0
C758 C 0.14684 0.02189 0.26172 0.0
H759 H 0.1162 0.97315 0.23973 0.0
H760 H 0.11558 0.01717 0.23826 0.0
C761 C 0.16359 0.00983 0.2767 0.0
C762 C 0.50743 0.62878 0.7523 0.0
C763 C 0.52062 0.64717 0.76398 0.0
H764 H 0.47249 0.61508 0.74271 0.0
C765 C 0.50823 0.66395 0.77863 0.0
H766 H 0.51655 0.61535 0.7412 0.0
C767 C 0.48282 0.66387 0.77944 0.0
C768 C 0.46959 0.64694 0.76566 0.0
H769 H 0.51799 0.67826 0.78793 0.0
H770 H 0.4736 0.67812 0.78935 0.0
C771 C 0.48216 0.62862 0.75319 0.0
C772 C 0.83447 0.01001 0.27585 0.0
C773 C 0.85045 0.02266 0.26052 0.0
H774 H 0.82074 0.97521 0.28659 0.0
C775 C 0.86798 0.00965 0.24738 0.0
H776 H 0.82084 0.01961 0.28627 0.0
C777 C 0.8679 0.9844 0.24754 0.0
C778 C 0.85032 0.97167 0.26087 0.0
H779 H 0.88081 0.01892 0.23572 0.0
H780 H 0.88067 0.97488 0.236 0.0
C781 C 0.83441 0.98461 0.27604 0.0
C782 C 0.51026 0.33046 0.77992 0.0
C783 C 0.52247 0.34755 0.76546 0.0
H784 H 0.47584 0.31545 0.79019 0.0
C785 C 0.50897 0.36557 0.75354 0.0
H786 H 0.52022 0.31642 0.78941 0.0
C787 C 0.48369 0.36503 0.75399 0.0
C788 C 0.4714 0.34644 0.76635 0.0
H789 H 0.51789 0.37922 0.74255 0.0
H790 H 0.47382 0.37828 0.74334 0.0
C791 C 0.48485 0.3299 0.78036 0.0
C792 C 0.12654 0.00873 0.74213 0.0
C793 C 0.14458 0.02192 0.72989 0.0
H794 H 0.11345 0.97382 0.75259 0.0
C795 C 0.16125 0.00946 0.71516 0.0
H796 H 0.1132 0.01786 0.75332 0.0
C797 C 0.16144 0.98406 0.71477 0.0
C798 C 0.14492 0.9709 0.72908 0.0
H799 H 0.17529 0.0192 0.70543 0.0
H800 H 0.17561 0.97483 0.70475 0.0
C801 C 0.12669 0.98346 0.7417 0.0
C802 C 0.48342 0.62647 0.24343 0.0
C803 C 0.47037 0.64402 0.23035 0.0
H804 H 0.51817 0.61435 0.25557 0.0
C805 C 0.48312 0.66066 0.21581 0.0
H806 H 0.47412 0.61316 0.25451 0.0
C807 C 0.50854 0.66126 0.21634 0.0
C808 C 0.5214 0.64529 0.2315 0.0
H809 H 0.47353 0.67431 0.20543 0.0
H810 H 0.51794 0.67535 0.20638 0.0
C811 C 0.50868 0.62716 0.24405 0.0
C812 C 0.8342 0.0094 0.71676 0.0
C813 C 0.85042 0.02212 0.73179 0.0
H814 H 0.8205 0.97455 0.70619 0.0
C815 C 0.86838 0.00921 0.74442 0.0
H816 H 0.82023 0.01893 0.70673 0.0
C817 C 0.86855 0.98395 0.74409 0.0
C818 C 0.85074 0.97111 0.73116 0.0
H819 H 0.88139 0.01855 0.75584 0.0
H820 H 0.88169 0.97451 0.75528 0.0
C821 C 0.83435 0.984 0.71645 0.0
C822 C 0.51068 0.33206 0.2154 0.0
C823 C 0.52359 0.34865 0.22985 0.0
H824 H 0.47572 0.31796 0.20567 0.0
C825 C 0.51074 0.36673 0.2424 0.0
H826 H 0.52012 0.318 0.20542 0.0
C827 C 0.48545 0.36669 0.24256 0.0
C828 C 0.47249 0.34859 0.23015 0.0
H829 H 0.52018 0.38001 0.25341 0.0
H830 H 0.4761 0.37994 0.25367 0.0
C831 C 0.48526 0.33204 0.21553 0.0
C832 C 0.27134 0.16367 0.00793 0.0
C833 C 0.2539 0.15018 0.02076 0.0
H834 H 0.28387 0.17543 0.973 0.0
C835 C 0.23778 0.13524 0.00786 0.0
H836 H 0.28405 0.17528 0.01743 0.0
C837 C 0.23766 0.13535 0.98263 0.0
C838 C 0.25368 0.15038 0.96974 0.0
H839 H 0.22436 0.12434 0.01724 0.0
H840 H 0.22416 0.12454 0.97327 0.0
C841 C 0.27124 0.16375 0.98252 0.0
C842 C 0.23829 0.8619 0.00884 0.0
C843 C 0.25479 0.84731 0.02164 0.0
H844 H 0.22418 0.87222 0.97432 0.0
C845 C 0.27239 0.83413 0.0087 0.0
H846 H 0.22474 0.87256 0.0183 0.0
C847 C 0.27208 0.83395 0.98329 0.0
C848 C 0.25415 0.84694 0.97061 0.0
H849 H 0.28539 0.82279 0.01813 0.0
H850 H 0.28485 0.82249 0.9737 0.0
C851 C 0.23796 0.8617 0.9836 0.0
C852 C 0.65934 0.77455 0.50932 0.0
C853 C 0.64409 0.7587 0.52223 0.0
H854 H 0.67225 0.7856 0.47433 0.0
C855 C 0.62698 0.74477 0.5095 0.0
H856 H 0.67263 0.78557 0.51872 0.0
C857 C 0.62671 0.74482 0.48426 0.0
C858 C 0.6436 0.75876 0.47124 0.0
H859 H 0.61471 0.73268 0.519 0.0
H860 H 0.61425 0.73276 0.47499 0.0
C861 C 0.65911 0.77456 0.48393 0.0
C862 C 0.72211 0.16373 0.00928 0.0
C863 C 0.73915 0.14987 0.02226 0.0
H864 H 0.70999 0.17548 0.97422 0.0
C865 C 0.75462 0.1341 0.00958 0.0
H866 H 0.7099 0.17596 0.01864 0.0
C867 C 0.75465 0.1338 0.98436 0.0
C868 C 0.73923 0.14928 0.97127 0.0
H869 H 0.76767 0.1229 0.01912 0.0
H870 H 0.76773 0.12238 0.97514 0.0
C871 C 0.72216 0.16344 0.98388 0.0
C872 C 0.3669 0.25137 0.50954 0.0
C873 C 0.34982 0.23768 0.52258 0.0
H874 H 0.37916 0.26322 0.47481 0.0
C875 C 0.33412 0.22205 0.50992 0.0
H876 H 0.3795 0.26329 0.51881 0.0
C877 C 0.33392 0.222 0.48452 0.0
C878 C 0.34943 0.23759 0.47157 0.0
H879 H 0.32084 0.21121 0.51954 0.0
H880 H 0.32049 0.21113 0.47514 0.0
C881 C 0.3667 0.25133 0.4843 0.0
C882 C 0.72282 0.83172 0.00966 0.0
C883 C 0.73807 0.84761 0.02253 0.0
H884 H 0.71232 0.81824 0.9747 0.0
C885 C 0.75132 0.86521 0.00974 0.0
H886 H 0.71231 0.81804 0.0191 0.0
C887 C 0.75133 0.86531 0.9845 0.0
C888 C 0.73808 0.84783 0.97155 0.0
H889 H 0.76293 0.87798 0.01918 0.0
H890 H 0.76295 0.87815 0.97517 0.0
C891 C 0.72281 0.83184 0.98427 0.0
C892 C 0.62806 0.25155 0.50947 0.0
C893 C 0.64469 0.23729 0.52247 0.0
H894 H 0.61618 0.26385 0.47476 0.0
C895 C 0.65989 0.22121 0.50978 0.0
H896 H 0.61584 0.26383 0.51876 0.0
C897 C 0.66007 0.22121 0.48438 0.0
C898 C 0.64507 0.2373 0.47148 0.0
H899 H 0.67283 0.20993 0.51937 0.0
H900 H 0.67315 0.20994 0.47496 0.0
C901 C 0.62826 0.25156 0.48423 0.0
C902 C 0.32892 0.76624 0.48365 0.0
C903 C 0.34119 0.74811 0.47056 0.0
H904 H 0.31868 0.77946 0.5188 0.0
C905 C 0.35547 0.73119 0.48315 0.0
H906 H 0.31785 0.77956 0.47436 0.0
C907 C 0.35599 0.73116 0.50838 0.0
C908 C 0.3422 0.74802 0.52159 0.0
H909 H 0.36543 0.71722 0.47355 0.0
H910 H 0.36632 0.71715 0.51751 0.0
C911 C 0.32941 0.76618 0.50905 0.0
C912 C 0.17374 0.31666 0.27301 0.0
C913 C 0.17412 0.34192 0.27012 0.0
H914 H 0.16011 0.2828 0.26046 0.0
C915 C 0.15809 0.35284 0.25353 0.0
H916 H 0.18558 0.30779 0.28597 0.0
C917 C 0.1433 0.33829 0.23863 0.0
C918 C 0.14456 0.31286 0.24036 0.0
H919 H 0.15809 0.37233 0.25105 0.0
H920 H 0.13209 0.3468 0.22491 0.0
C921 C 0.15915 0.30233 0.25835 0.0
C922 C 0.14434 0.64431 0.77272 0.0
C923 C 0.1307 0.66286 0.76188 0.0
H924 H 0.17161 0.61709 0.76719 0.0
C925 C 0.1293 0.66417 0.73653 0.0
H926 H 0.1461 0.64344 0.79227 0.0
C927 C 0.14381 0.64912 0.72222 0.0
C928 C 0.15984 0.63269 0.73319 0.0
H929 H 0.11929 0.67873 0.72789 0.0
H930 H 0.1447 0.65242 0.70286 0.0
C931 C 0.15891 0.62925 0.75838 0.0
C932 C 0.80206 0.67789 0.2544 0.0
C933 C 0.81011 0.65531 0.26302 0.0
H934 H 0.80946 0.70907 0.23308 0.0
C935 C 0.83316 0.64686 0.25591 0.0
H936 H 0.78442 0.68503 0.2594 0.0
C937 C 0.84783 0.66095 0.24046 0.0
C938 C 0.83956 0.68359 0.23203 0.0
H939 H 0.8398 0.62949 0.26224 0.0
H940 H 0.86555 0.65422 0.23525 0.0
C941 C 0.81651 0.69176 0.23919 0.0
C942 C 0.83811 0.30311 0.73526 0.0
C943 C 0.8516 0.31361 0.7541 0.0
H944 H 0.81234 0.30844 0.70698 0.0
C945 C 0.85186 0.33901 0.75663 0.0
H946 H 0.83795 0.28362 0.73258 0.0
C947 C 0.83701 0.35344 0.74169 0.0
C948 C 0.82194 0.34242 0.72428 0.0
H949 H 0.8622 0.34747 0.77105 0.0
H950 H 0.83608 0.37281 0.74483 0.0
C951 C 0.82346 0.31732 0.72057 0.0
C952 C 0.25637 0.19384 0.31267 0.0
C953 C 0.2638 0.18629 0.33583 0.0
H954 H 0.23563 0.18631 0.28109 0.0
C955 C 0.25537 0.1639 0.34479 0.0
H956 H 0.26248 0.21092 0.30509 0.0
C957 C 0.23963 0.1495 0.33074 0.0
C958 C 0.2322 0.15735 0.3076 0.0
H959 H 0.26078 0.15763 0.3626 0.0
H960 H 0.23328 0.13236 0.33795 0.0
C961 C 0.24085 0.17964 0.29882 0.0
C962 C 0.32473 0.7805 0.81353 0.0
C963 C 0.32302 0.77771 0.83874 0.0
H964 H 0.339 0.76687 0.78033 0.0
C965 C 0.33771 0.76038 0.85039 0.0
H966 H 0.31391 0.79397 0.80412 0.0
C967 C 0.35226 0.74461 0.83657 0.0
C968 C 0.3521 0.74617 0.81111 0.0
H969 H 0.33664 0.75791 0.86985 0.0
H970 H 0.36221 0.73027 0.84561 0.0
C971 C 0.33909 0.76494 0.79989 0.0
C972 C 0.74547 0.79896 0.32077 0.0
C973 C 0.73356 0.80888 0.34097 0.0
H974 H 0.77002 0.80438 0.29161 0.0
C975 C 0.73861 0.83299 0.34771 0.0
H976 H 0.74232 0.78038 0.31516 0.0
C977 C 0.75485 0.84705 0.3339 0.0
C978 C 0.76615 0.83707 0.31329 0.0
H979 H 0.72975 0.84105 0.36329 0.0
H980 H 0.75816 0.86574 0.33902 0.0
C981 C 0.76148 0.8128 0.30719 0.0
C982 C 0.67673 0.22258 0.813 0.0
C983 C 0.67617 0.22339 0.8384 0.0
H984 H 0.66387 0.23739 0.7798 0.0
C985 C 0.65948 0.23884 0.85001 0.0
H986 H 0.68907 0.21055 0.80352 0.0
C987 C 0.64482 0.25452 0.8362 0.0
C988 C 0.64683 0.25476 0.81076 0.0
H989 H 0.65872 0.23973 0.86962 0.0
H990 H 0.63293 0.2672 0.84537 0.0
C991 C 0.66228 0.23803 0.79938 0.0
C992 C 0.25739 0.83324 0.64454 0.0
C993 C 0.27277 0.81647 0.65612 0.0
H994 H 0.22937 0.86013 0.64921 0.0
C995 C 0.27382 0.81614 0.68153 0.0
H996 H 0.25629 0.83383 0.62494 0.0
C997 C 0.25867 0.83091 0.69518 0.0
C998 C 0.242 0.84645 0.68384 0.0
H999 H 0.28579 0.80373 0.691 0.0
H1000 H 0.25946 0.82947 0.71477 0.0
C1001 C 0.24202 0.84821 0.65838 0.0
C1002 C 0.66297 0.75474 0.14557 0.0
C1003 C 0.68729 0.75883 0.15228 0.0
H1004 H 0.62936 0.73676 0.15448 0.0
C1005 C 0.6967 0.74669 0.17258 0.0
H1006 H 0.65528 0.7638 0.12992 0.0
C1007 C 0.68216 0.73148 0.18635 0.0
C1008 C 0.65767 0.72786 0.18032 0.0
H1009 H 0.71542 0.74909 0.17815 0.0
H1010 H 0.69019 0.72276 0.20203 0.0
C1011 C 0.6482 0.73929 0.15954 0.0
C1012 C 0.75076 0.17729 0.69547 0.0
C1013 C 0.76113 0.15614 0.68575 0.0
H1014 H 0.72736 0.20745 0.69018 0.0
C1015 C 0.75468 0.14898 0.66211 0.0
H1016 H 0.75509 0.18332 0.71366 0.0
C1017 C 0.73843 0.1631 0.64837 0.0
C1018 C 0.7285 0.1845 0.65817 0.0
H1019 H 0.76232 0.1327 0.65419 0.0
H1020 H 0.73395 0.15751 0.63007 0.0
C1021 C 0.73473 0.1912 0.68193 0.0
C1022 C 0.31871 0.22267 0.17966 0.0
C1023 C 0.31909 0.22393 0.15427 0.0
H1024 H 0.33157 0.2371 0.21304 0.0
C1025 C 0.33554 0.23976 0.14284 0.0
H1026 H 0.30656 0.21033 0.189 0.0
C1027 C 0.3501 0.25539 0.15684 0.0
C1028 C 0.34819 0.2552 0.18228 0.0
H1029 H 0.33615 0.24102 0.12324 0.0
H1030 H 0.36176 0.26839 0.14782 0.0
C1031 C 0.33305 0.23807 0.19346 0.0
C1032 C 0.83585 0.64507 0.73718 0.0
C1033 C 0.81063 0.64912 0.73652 0.0
H1034 H 0.87017 0.6566 0.75207 0.0
C1035 C 0.80039 0.6662 0.75238 0.0
H1036 H 0.84415 0.63188 0.72521 0.0
C1037 C 0.81499 0.68003 0.76748 0.0
C1038 C 0.84029 0.67723 0.76722 0.0
H1039 H 0.78098 0.66942 0.75273 0.0
H1040 H 0.80638 0.6935 0.77893 0.0
C1041 C 0.85067 0.65911 0.75253 0.0
C1042 C 0.84951 0.30984 0.2623 0.0
C1043 C 0.85758 0.31894 0.23998 0.0
H1044 H 0.8274 0.31579 0.2935 0.0
C1045 C 0.85317 0.34334 0.23404 0.0
H1046 H 0.85286 0.29111 0.26729 0.0
C1047 C 0.83847 0.35762 0.24923 0.0
C1048 C 0.8283 0.34743 0.27027 0.0
H1049 H 0.85911 0.35059 0.21677 0.0
H1050 H 0.83326 0.37566 0.24342 0.0
C1051 C 0.83499 0.32395 0.27729 0.0
C1052 C 0.14145 0.34314 0.75702 0.0
C1053 C 0.13677 0.319 0.75025 0.0
H1054 H 0.16197 0.37543 0.74898 0.0
C1055 C 0.14491 0.31054 0.7277 0.0
H1056 H 0.13546 0.3499 0.77447 0.0
C1057 C 0.15981 0.32492 0.71334 0.0
C1058 C 0.16682 0.34803 0.72125 0.0
H1059 H 0.14136 0.29203 0.72206 0.0
H1060 H 0.16748 0.31718 0.69697 0.0
C1061 C 0.15653 0.35769 0.74248 0.0
C1062 C 0.16328 0.62981 0.22915 0.0
C1063 C 0.16143 0.63033 0.25451 0.0
H1064 H 0.15262 0.64665 0.19583 0.0
C1065 C 0.14289 0.64393 0.26542 0.0
H1066 H 0.17784 0.61982 0.22048 0.0
C1067 C 0.12851 0.65938 0.25131 0.0
C1068 C 0.13257 0.66115 0.22625 0.0
H1069 H 0.14161 0.645 0.28501 0.0
H1070 H 0.11644 0.67203 0.26031 0.0
C1071 C 0.14886 0.64514 0.21506 0.0
C1072 C 0.75474 0.84825 0.65894 0.0
C1073 C 0.75775 0.84351 0.68384 0.0
H1074 H 0.73692 0.83756 0.62582 0.0
C1075 C 0.74333 0.82563 0.69484 0.0
H1076 H 0.76555 0.86205 0.65006 0.0
C1077 C 0.72719 0.81194 0.68125 0.0
C1078 C 0.72493 0.81564 0.65618 0.0
H1079 H 0.7448 0.82179 0.71406 0.0
H1080 H 0.71684 0.79797 0.69043 0.0
C1081 C 0.73837 0.83433 0.64514 0.0
C1082 C 0.643 0.25398 0.15669 0.0
C1083 C 0.6434 0.2524 0.18215 0.0
H1084 H 0.65841 0.24081 0.12325 0.0
C1085 C 0.6568 0.23382 0.19324 0.0
H1086 H 0.63273 0.26815 0.14775 0.0
C1087 C 0.67119 0.21844 0.17947 0.0
C1088 C 0.67257 0.2212 0.15424 0.0
H1089 H 0.65706 0.23184 0.21279 0.0
H1090 H 0.68222 0.20508 0.18878 0.0
C1091 C 0.6576 0.23838 0.14273 0.0
C1092 C 0.25907 0.19187 0.68091 0.0
C1093 C 0.26562 0.18516 0.65724 0.0
H1094 H 0.23872 0.1837 0.71258 0.0
C1095 C 0.2562 0.16349 0.64751 0.0
H1096 H 0.266 0.20834 0.68911 0.0
C1097 C 0.24021 0.14907 0.66125 0.0
C1098 C 0.23351 0.15619 0.68483 0.0
H1099 H 0.26094 0.15787 0.62929 0.0
H1100 H 0.233 0.13257 0.65339 0.0
C1101 C 0.2433 0.17766 0.69446 0.0
C1102 C 0.31928 0.77373 0.18232 0.0
C1103 C 0.32046 0.77349 0.15692 0.0
H1104 H 0.33104 0.75792 0.21549 0.0
C1105 C 0.33719 0.75801 0.14539 0.0
H1106 H 0.30688 0.78573 0.19176 0.0
C1107 C 0.35125 0.74179 0.15921 0.0
C1108 C 0.3486 0.741 0.18457 0.0
H1109 H 0.33842 0.75752 0.1258 0.0
H1110 H 0.36316 0.72913 0.15003 0.0
C1111 C 0.33313 0.75772 0.19594 0.0
C1112 C 0.7318 0.18834 0.31066 0.0
C1113 C 0.72714 0.18256 0.335 0.0
H1114 H 0.75096 0.17989 0.27833 0.0
C1115 C 0.73838 0.16201 0.34519 0.0
H1116 H 0.72332 0.20388 0.3021 0.0
C1117 C 0.75457 0.14798 0.33129 0.0
C1118 C 0.75965 0.1544 0.30711 0.0
H1119 H 0.73511 0.15714 0.36393 0.0
H1120 H 0.76339 0.13248 0.33954 0.0
C1121 C 0.74777 0.17453 0.29696 0.0
C1122 C 0.33771 0.23683 0.85391 0.0
C1123 C 0.32522 0.21776 0.84242 0.0
H1124 H 0.36063 0.26812 0.8488 0.0
C1125 C 0.32974 0.2129 0.81789 0.0
H1126 H 0.33437 0.24092 0.87283 0.0
C1127 C 0.34448 0.2282 0.80438 0.0
C1128 C 0.35503 0.24873 0.81509 0.0
H1129 H 0.32055 0.19811 0.80872 0.0
H1130 H 0.34636 0.22482 0.7851 0.0
C1131 C 0.35264 0.25234 0.84021 0.0
C1132 C 0.28066 0.82546 0.31468 0.0
C1133 C 0.27642 0.82222 0.33953 0.0
H1134 H 0.2686 0.84135 0.28159 0.0
C1135 C 0.25824 0.836 0.351 0.0
H1136 H 0.2948 0.81533 0.30547 0.0
C1137 C 0.24301 0.85108 0.33714 0.0
C1138 C 0.24598 0.85235 0.31184 0.0
H1139 H 0.25464 0.83371 0.37017 0.0
H1140 H 0.22796 0.86022 0.34587 0.0
C1141 C 0.26563 0.84034 0.301 0.0
C1142 C 0.67789 0.74294 0.79948 0.0
C1143 C 0.65616 0.73358 0.80895 0.0
H1144 H 0.70916 0.76476 0.80516 0.0
C1145 C 0.6492 0.74009 0.83263 0.0
H1146 H 0.68384 0.73849 0.78129 0.0
C1147 C 0.66402 0.7555 0.84661 0.0
C1148 C 0.68593 0.7645 0.83701 0.0
H1149 H 0.6325 0.73318 0.84037 0.0
H1150 H 0.6585 0.76013 0.86488 0.0
C1151 C 0.69251 0.75812 0.81326 0.0
C1152 C 0.11292 0.19781 0.24428 0.0
C1153 C 0.10027 0.19604 0.22217 0.0
H1154 H 0.13443 0.17941 0.27083 0.0
C1155 C 0.09503 0.17286 0.21287 0.0
H1156 H 0.11693 0.21533 0.25225 0.0
C1157 C 0.10489 0.15216 0.22377 0.0
C1158 C 0.12032 0.15436 0.244 0.0
H1159 H 0.08507 0.17082 0.19605 0.0
H1160 H 0.10233 0.13478 0.21495 0.0
C1161 C 0.12297 0.17718 0.25501 0.0
C1162 C 0.3339 0.6111 0.74026 0.0
C1163 C 0.33283 0.63159 0.75543 0.0
H1164 H 0.31424 0.58693 0.71709 0.0
C1165 C 0.30999 0.64033 0.76269 0.0
H1166 H 0.35121 0.60377 0.73447 0.0
C1167 C 0.28876 0.63058 0.75281 0.0
C1168 C 0.29 0.61204 0.73533 0.0
H1169 H 0.30852 0.65588 0.77463 0.0
H1170 H 0.27157 0.63893 0.75746 0.0
C1171 C 0.31267 0.60147 0.73022 0.0
C1172 C 0.87151 0.81561 0.25669 0.0
C1173 C 0.87536 0.8388 0.24682 0.0
H1174 H 0.87599 0.77739 0.2522 0.0
C1175 C 0.89154 0.84128 0.22723 0.0
H1176 H 0.85949 0.8131 0.27205 0.0
C1177 C 0.90095 0.82071 0.2157 0.0
C1178 C 0.89437 0.79738 0.22366 0.0
H1179 H 0.89511 0.85892 0.21932 0.0
H1180 H 0.91156 0.82313 0.19934 0.0
C1181 C 0.88095 0.79509 0.24524 0.0
C1182 C 0.68091 0.36073 0.75762 0.0
C1183 C 0.65769 0.36791 0.74985 0.0
H1184 H 0.71918 0.36281 0.75167 0.0
C1185 C 0.65575 0.38683 0.73284 0.0
H1186 H 0.68306 0.34648 0.77097 0.0
C1187 C 0.67653 0.39615 0.72161 0.0
C1188 C 0.6996 0.38677 0.72729 0.0
H1189 H 0.63813 0.39297 0.7266 0.0
H1190 H 0.6743 0.40927 0.70716 0.0
C1191 C 0.70166 0.37011 0.74649 0.0
C1192 C 0.10038 0.81534 0.77042 0.0
C1193 C 0.10954 0.79247 0.76375 0.0
H1194 H 0.10362 0.85384 0.7667 0.0
C1195 C 0.12599 0.79102 0.74429 0.0
H1196 H 0.08744 0.81708 0.78511 0.0
C1197 C 0.13538 0.8121 0.73383 0.0
C1198 C 0.12831 0.83503 0.74246 0.0
H1199 H 0.13317 0.77369 0.73841 0.0
H1200 H 0.1495 0.81041 0.72025 0.0
C1201 C 0.10961 0.83644 0.75978 0.0
C1202 C 0.65128 0.60506 0.26846 0.0
C1203 C 0.65383 0.62074 0.2485 0.0
H1204 H 0.66939 0.5856 0.29677 0.0
C1205 C 0.67703 0.6242 0.23848 0.0
H1206 H 0.63362 0.60181 0.27649 0.0
C1207 C 0.69753 0.61492 0.2501 0.0
C1208 C 0.69521 0.60203 0.27199 0.0
H1209 H 0.67958 0.63583 0.22284 0.0
H1210 H 0.71527 0.6196 0.24299 0.0
C1211 C 0.67183 0.5958 0.28016 0.0
C1212 C 0.88118 0.19856 0.74916 0.0
C1213 C 0.89428 0.19648 0.77098 0.0
H1214 H 0.85934 0.18048 0.72266 0.0
C1215 C 0.89988 0.17319 0.77974 0.0
H1216 H 0.87688 0.21619 0.74162 0.0
C1217 C 0.88999 0.15261 0.76862 0.0
C1218 C 0.87418 0.15505 0.74871 0.0
H1219 H 0.91019 0.17091 0.79632 0.0
H1220 H 0.8929 0.13509 0.77703 0.0
C1221 C 0.87111 0.17806 0.73822 0.0
C1222 C 0.33943 0.387 0.2615 0.0
C1223 C 0.33726 0.36815 0.24443 0.0
H1224 H 0.32118 0.40953 0.28733 0.0
C1225 C 0.31395 0.36119 0.23673 0.0
H1226 H 0.35712 0.39298 0.26769 0.0
C1227 C 0.29332 0.37071 0.24797 0.0
C1228 C 0.29561 0.38731 0.26721 0.0
H1229 H 0.31161 0.347 0.22333 0.0
H1230 H 0.27572 0.36359 0.24283 0.0
C1231 C 0.31878 0.39646 0.27285 0.0
C1232 C 0.22266 0.10602 0.15035 0.0
C1233 C 0.24336 0.1208 0.15278 0.0
H1234 H 0.19403 0.08721 0.16869 0.0
C1235 C 0.25422 0.12304 0.17574 0.0
H1236 H 0.21396 0.10369 0.13288 0.0
C1237 C 0.24276 0.11364 0.19627 0.0
C1238 C 0.22025 0.10178 0.19421 0.0
H1239 H 0.27043 0.13392 0.17819 0.0
H1240 H 0.25055 0.11747 0.2139 0.0
C1241 C 0.21117 0.09658 0.17094 0.0
C1242 C 0.3755 0.7519 0.67445 0.0
C1243 C 0.37511 0.73879 0.6526 0.0
H1244 H 0.38346 0.75134 0.71234 0.0
C1245 C 0.3876 0.71656 0.65137 0.0
H1246 H 0.3664 0.76927 0.67589 0.0
C1247 C 0.39724 0.7061 0.6724 0.0
C1248 C 0.39466 0.71782 0.69491 0.0
H1249 H 0.38782 0.70608 0.63474 0.0
H1250 H 0.40472 0.68796 0.67131 0.0
C1251 C 0.38527 0.74155 0.69539 0.0
C1252 C 0.75365 0.87455 0.2001 0.0
C1253 C 0.77459 0.88903 0.19806 0.0
H1254 H 0.72773 0.85232 0.1817 0.0
C1255 C 0.78217 0.89645 0.17486 0.0
H1256 H 0.74699 0.86888 0.2177 0.0
C1257 C 0.77095 0.88703 0.15413 0.0
C1258 C 0.75207 0.86996 0.1563 0.0
H1259 H 0.79802 0.90787 0.17264 0.0
H1260 H 0.77858 0.8914 0.13656 0.0
C1261 C 0.74254 0.86506 0.17942 0.0
C1262 C 0.59438 0.28423 0.6734 0.0
C1263 C 0.59912 0.27472 0.69658 0.0
H1264 H 0.60185 0.28189 0.6354 0.0
C1265 C 0.6108 0.25208 0.69841 0.0
H1266 H 0.58514 0.30145 0.67132 0.0
C1267 C 0.62052 0.24095 0.67785 0.0
C1268 C 0.61851 0.2521 0.65504 0.0
H1269 H 0.61436 0.24394 0.71594 0.0
H1270 H 0.63131 0.22467 0.68014 0.0
C1271 C 0.60392 0.27294 0.65276 0.0
C1272 C 0.24268 0.88692 0.7967 0.0
C1273 C 0.21896 0.8963 0.79791 0.0
H1274 H 0.27122 0.86857 0.81549 0.0
C1275 C 0.20813 0.89937 0.8208 0.0
H1276 H 0.2518 0.88477 0.77942 0.0
C1277 C 0.2194 0.89016 0.8416 0.0
C1278 C 0.24161 0.87767 0.83977 0.0
H1279 H 0.19001 0.90684 0.82243 0.0
H1280 H 0.20956 0.89073 0.8586 0.0
C1281 C 0.25388 0.87766 0.81743 0.0
C1282 C 0.61759 0.74314 0.29313 0.0
C1283 C 0.60301 0.72228 0.29519 0.0
H1284 H 0.63965 0.76918 0.31156 0.0
C1285 C 0.59524 0.71499 0.31837 0.0
H1286 H 0.62353 0.74958 0.27555 0.0
C1287 C 0.60442 0.72639 0.33911 0.0
C1288 C 0.62159 0.74517 0.33698 0.0
H1289 H 0.58374 0.6992 0.3206 0.0
H1290 H 0.59979 0.71895 0.3567 0.0
C1291 C 0.62682 0.75445 0.31383 0.0
C1292 C 0.78399 0.09585 0.82145 0.0
C1293 C 0.77491 0.10101 0.79817 0.0
H1294 H 0.78113 0.10296 0.85949 0.0
C1295 C 0.75233 0.11273 0.79609 0.0
H1296 H 0.80118 0.08657 0.8237 0.0
C1297 C 0.74082 0.1221 0.8166 0.0
C1298 C 0.75169 0.11993 0.83956 0.0
H1299 H 0.74454 0.11652 0.77845 0.0
H1300 H 0.72457 0.1329 0.81414 0.0
C1301 C 0.77243 0.10523 0.84201 0.0
C1302 C 0.39955 0.28357 0.32043 0.0
C1303 C 0.39445 0.27429 0.29722 0.0
H1304 H 0.39214 0.2813 0.35846 0.0
C1305 C 0.38207 0.25202 0.29535 0.0
H1306 H 0.4093 0.30051 0.32255 0.0
C1307 C 0.37209 0.24111 0.31589 0.0
C1308 C 0.37453 0.2521 0.33874 0.0
H1309 H 0.37821 0.24407 0.27779 0.0
H1310 H 0.36081 0.22517 0.31358 0.0
C1311 C 0.38974 0.27249 0.34106 0.0
C1312 C 0.17542 0.22096 0.09998 0.0
C1313 C 0.1986 0.22609 0.10939 0.0
H1314 H 0.13714 0.22658 0.10329 0.0
C1315 C 0.20105 0.24498 0.12637 0.0
H1316 H 0.17292 0.20677 0.08661 0.0
C1317 C 0.18052 0.25634 0.13595 0.0
C1318 C 0.15715 0.24908 0.12869 0.0
H1319 H 0.21867 0.24974 0.1337 0.0
H1320 H 0.18294 0.26943 0.15041 0.0
C1321 C 0.15487 0.23241 0.10951 0.0
C1322 C 0.2054 0.75052 0.86334 0.0
C1323 C 0.20188 0.76908 0.88049 0.0
H1324 H 0.18874 0.72527 0.83908 0.0
C1325 C 0.17843 0.77286 0.88985 0.0
H1326 H 0.22329 0.74679 0.85606 0.0
C1327 C 0.15856 0.76043 0.88012 0.0
C1328 C 0.16179 0.74403 0.86083 0.0
H1329 H 0.17512 0.78676 0.90334 0.0
H1330 H 0.14053 0.76521 0.88635 0.0
C1331 C 0.18555 0.7381 0.85362 0.0
C1332 C 0.74155 0.69755 0.37882 0.0
C1333 C 0.71961 0.6952 0.39169 0.0
H1334 H 0.76873 0.67969 0.35766 0.0
C1335 C 0.71135 0.67182 0.39771 0.0
H1336 H 0.74874 0.71527 0.37428 0.0
C1337 C 0.72303 0.65132 0.38831 0.0
C1338 C 0.74301 0.65394 0.37264 0.0
H1339 H 0.69471 0.66936 0.40789 0.0
H1340 H 0.71494 0.63368 0.39143 0.0
C1341 C 0.75309 0.67711 0.36931 0.0
C1342 C 0.81964 0.21972 0.89332 0.0
C1343 C 0.7965 0.22507 0.88396 0.0
H1344 H 0.85794 0.22536 0.8902 0.0
C1345 C 0.79411 0.2443 0.86737 0.0
H1346 H 0.8221 0.20526 0.9064 0.0
C1347 C 0.81467 0.25583 0.85808 0.0
C1348 C 0.83802 0.2484 0.86523 0.0
H1349 H 0.77651 0.24923 0.86011 0.0
H1350 H 0.8123 0.26922 0.84389 0.0
C1351 C 0.84024 0.23134 0.88407 0.0
C1352 C 0.25146 0.29888 0.37797 0.0
C1353 C 0.27373 0.30101 0.39024 0.0
H1354 H 0.22391 0.31695 0.35755 0.0
C1355 C 0.28248 0.32432 0.39589 0.0
H1356 H 0.24393 0.28121 0.37377 0.0
C1357 C 0.27091 0.34493 0.38659 0.0
C1358 C 0.25047 0.34248 0.37148 0.0
H1359 H 0.29943 0.32662 0.4056 0.0
H1360 H 0.27937 0.36246 0.3893 0.0
C1361 C 0.23992 0.31942 0.36871 0.0
C1362 C 0.82597 0.78044 0.09678 0.0
C1363 C 0.80259 0.77193 0.10253 0.0
H1364 H 0.8641 0.77734 0.10357 0.0
C1365 C 0.80034 0.75001 0.11542 0.0
H1366 H 0.82836 0.79708 0.0866 0.0
C1367 C 0.82081 0.73875 0.12521 0.0
C1368 C 0.84393 0.74909 0.12216 0.0
H1369 H 0.78263 0.74264 0.11977 0.0
H1370 H 0.81827 0.72312 0.13685 0.0
C1371 C 0.8465 0.76905 0.10647 0.0
C1372 C 0.75426 0.31711 0.62707 0.0
C1373 C 0.74435 0.34037 0.62372 0.0
H1374 H 0.74949 0.27894 0.62232 0.0
C1375 C 0.72438 0.3431 0.60805 0.0
H1376 H 0.76992 0.31441 0.63866 0.0
C1377 C 0.71259 0.32266 0.59866 0.0
C1378 C 0.72063 0.29924 0.60481 0.0
H1379 H 0.71644 0.36079 0.60486 0.0
H1380 H 0.69598 0.32524 0.58846 0.0
C1381 C 0.7425 0.29673 0.61772 0.0
C1382 C 0.25965 0.65269 0.61571 0.0
C1383 C 0.24225 0.65658 0.63398 0.0
H1384 H 0.28651 0.66864 0.59266 0.0
C1385 C 0.23509 0.6805 0.63921 0.0
H1386 H 0.26539 0.63449 0.61099 0.0
C1387 C 0.24728 0.7001 0.62875 0.0
C1388 C 0.2668 0.69615 0.6128 0.0
H1389 H 0.22146 0.68418 0.6529 0.0
H1390 H 0.24259 0.71826 0.63462 0.0
C1391 C 0.27183 0.67231 0.6052 0.0
C1392 C 0.86544 0.81313 0.7368 0.0
C1393 C 0.87156 0.83645 0.7451 0.0
H1394 H 0.86843 0.77493 0.74252 0.0
C1395 C 0.88973 0.83881 0.76289 0.0
H1396 H 0.85181 0.81068 0.72285 0.0
C1397 C 0.89919 0.81823 0.77435 0.0
C1398 C 0.89072 0.79498 0.7681 0.0
H1399 H 0.89506 0.85652 0.76954 0.0
H1400 H 0.9116 0.82071 0.78939 0.0
C1401 C 0.87498 0.79259 0.74815 0.0
C1402 C 0.68293 0.35672 0.23591 0.0
C1403 C 0.65988 0.36502 0.24306 0.0
H1404 H 0.72119 0.35786 0.24218 0.0
C1405 C 0.6584 0.38472 0.25921 0.0
H1406 H 0.68474 0.34181 0.22322 0.0
C1407 C 0.67936 0.39387 0.27023 0.0
C1408 C 0.70217 0.38355 0.2652 0.0
H1409 H 0.64094 0.39173 0.26494 0.0
H1410 H 0.67743 0.40773 0.28403 0.0
C1411 C 0.70388 0.36593 0.24682 0.0
C1412 C 0.10493 0.15345 0.76641 0.0
C1413 C 0.1206 0.15526 0.74634 0.0
H1414 H 0.08514 0.17261 0.79381 0.0
C1415 C 0.12385 0.17797 0.73529 0.0
H1416 H 0.10193 0.13616 0.77527 0.0
C1417 C 0.11406 0.19884 0.74579 0.0
C1418 C 0.10111 0.19741 0.76775 0.0
H1419 H 0.13555 0.1799 0.7196 0.0
H1420 H 0.1185 0.21624 0.7378 0.0
C1421 C 0.09534 0.17439 0.77711 0.0
C1422 C 0.33502 0.60695 0.2577 0.0
C1423 C 0.33425 0.62573 0.24044 0.0
H1424 H 0.31471 0.58475 0.28226 0.0
C1425 C 0.31164 0.63285 0.23101 0.0
H1426 H 0.35216 0.60091 0.26521 0.0
C1427 C 0.29017 0.62345 0.24066 0.0
C1428 C 0.2909 0.60696 0.26012 0.0
H1429 H 0.31046 0.64703 0.21746 0.0
H1430 H 0.27306 0.6307 0.23422 0.0
C1431 C 0.31352 0.59773 0.26755 0.0
C1432 C 0.88909 0.1542 0.22509 0.0
C1433 C 0.87298 0.15626 0.24479 0.0
H1434 H 0.9093 0.17298 0.19773 0.0
C1435 C 0.86928 0.17917 0.25529 0.0
H1436 H 0.89246 0.13677 0.21666 0.0
C1437 C 0.8791 0.19991 0.24457 0.0
C1438 C 0.89256 0.19815 0.22294 0.0
H1439 H 0.85726 0.18131 0.2707 0.0
H1440 H 0.87435 0.21743 0.25211 0.0
C1441 C 0.89871 0.175 0.21416 0.0
C1442 C 0.29114 0.36219 0.74828 0.0
C1443 C 0.2934 0.38098 0.73118 0.0
H1444 H 0.30955 0.33672 0.77102 0.0
C1445 C 0.31631 0.39169 0.72766 0.0
H1446 H 0.27372 0.35375 0.75175 0.0
C1447 C 0.33691 0.38197 0.73886 0.0
C1448 C 0.33498 0.36129 0.75368 0.0
H1449 H 0.31865 0.40644 0.71489 0.0
H1450 H 0.35451 0.38946 0.73427 0.0
C1451 C 0.31174 0.35241 0.75939 0.0
C1452 C 0.11308 0.8358 0.23599 0.0
C1453 C 0.13302 0.83437 0.25187 0.0
H1454 H 0.08952 0.81663 0.21178 0.0
C1455 C 0.14125 0.81137 0.25921 0.0
H1456 H 0.10615 0.85322 0.23011 0.0
C1457 C 0.13162 0.79037 0.2488 0.0
C1458 C 0.11371 0.79197 0.23067 0.0
H1459 H 0.15635 0.80963 0.27169 0.0
H1460 H 0.13961 0.77306 0.25357 0.0
C1461 C 0.10358 0.81478 0.2254 0.0
C1462 C 0.67119 0.59702 0.7136 0.0
C1463 C 0.69457 0.60293 0.72199 0.0
H1464 H 0.63303 0.60354 0.7169 0.0
C1465 C 0.69685 0.61597 0.74382 0.0
H1466 H 0.66877 0.58673 0.69704 0.0
C1467 C 0.67638 0.62571 0.75512 0.0
C1468 C 0.65323 0.62241 0.74495 0.0
H1469 H 0.71456 0.62046 0.75109 0.0
H1470 H 0.67891 0.63745 0.77068 0.0
C1471 C 0.65065 0.60662 0.72506 0.0
C1472 C 0.74276 0.87079 0.81611 0.0
C1473 C 0.75365 0.87348 0.83898 0.0
H1474 H 0.74597 0.87637 0.77795 0.0
C1475 C 0.77408 0.88865 0.84122 0.0
H1476 H 0.72677 0.85955 0.81385 0.0
C1477 C 0.78531 0.89815 0.82052 0.0
C1478 C 0.77615 0.89274 0.79734 0.0
H1479 H 0.78281 0.89125 0.85863 0.0
H1480 H 0.80228 0.90787 0.82262 0.0
C1481 C 0.75384 0.88043 0.79549 0.0
C1482 C 0.61016 0.25157 0.29615 0.0
C1483 C 0.59915 0.27455 0.29781 0.0
H1484 H 0.6302 0.22389 0.31452 0.0
C1485 C 0.59505 0.28455 0.32092 0.0
H1486 H 0.61321 0.24308 0.27869 0.0
C1487 C 0.60461 0.27331 0.34158 0.0
C1488 C 0.61858 0.25205 0.33939 0.0
H1489 H 0.58633 0.30205 0.32288 0.0
H1490 H 0.60307 0.28258 0.35883 0.0
C1491 C 0.6199 0.24049 0.31673 0.0
C1492 C 0.24175 0.11112 0.79546 0.0
C1493 C 0.2187 0.10035 0.79742 0.0
H1494 H 0.27009 0.13045 0.81354 0.0
C1495 C 0.20909 0.09601 0.82065 0.0
H1496 H 0.24993 0.11426 0.77786 0.0
C1497 C 0.22072 0.10532 0.84121 0.0
C1498 C 0.2421 0.11909 0.83881 0.0
H1499 H 0.19151 0.08747 0.82282 0.0
H1500 H 0.2117 0.10372 0.85859 0.0
C1501 C 0.25337 0.12038 0.81597 0.0
C1502 C 0.37558 0.75043 0.31859 0.0
C1503 C 0.37462 0.73793 0.34078 0.0
H1504 H 0.38391 0.74861 0.28081 0.0
C1505 C 0.38663 0.71548 0.34277 0.0
H1506 H 0.3669 0.76795 0.31655 0.0
C1507 C 0.39632 0.70427 0.32216 0.0
C1508 C 0.39421 0.71539 0.29931 0.0
H1509 H 0.38647 0.70547 0.35967 0.0
H1510 H 0.4034 0.68601 0.32383 0.0
C1511 C 0.38532 0.73928 0.29805 0.0
C1512 C 0.74053 0.12119 0.17605 0.0
C1513 C 0.75164 0.11988 0.15314 0.0
H1514 H 0.74414 0.1149 0.21409 0.0
C1515 C 0.77284 0.10588 0.15053 0.0
H1516 H 0.72393 0.13143 0.17862 0.0
C1517 C 0.78453 0.09641 0.17098 0.0
C1518 C 0.77513 0.10077 0.19428 0.0
H1519 H 0.78173 0.10425 0.13308 0.0
H1520 H 0.80201 0.08771 0.16865 0.0
C1521 C 0.75217 0.11173 0.19644 0.0
C1522 C 0.38389 0.24971 0.69866 0.0
C1523 C 0.39561 0.27239 0.69762 0.0
H1524 H 0.36325 0.22303 0.67946 0.0
C1525 C 0.40027 0.28274 0.67478 0.0
H1526 H 0.38037 0.24096 0.7159 0.0
C1527 C 0.39065 0.27221 0.65377 0.0
C1528 C 0.37605 0.25131 0.65535 0.0
H1529 H 0.40952 0.30002 0.67329 0.0
H1530 H 0.39268 0.28177 0.63673 0.0
C1531 C 0.37407 0.23937 0.67774 0.0
C1532 C 0.21117 0.89952 0.17244 0.0
C1533 C 0.22199 0.89625 0.19531 0.0
H1534 H 0.21241 0.89097 0.13461 0.0
C1535 C 0.24554 0.88643 0.19646 0.0
H1536 H 0.19319 0.90734 0.17085 0.0
C1537 C 0.25652 0.87696 0.1757 0.0
C1538 C 0.24424 0.87729 0.15337 0.0
H1539 H 0.25465 0.88407 0.21372 0.0
H1540 H 0.27369 0.86753 0.17759 0.0
C1541 C 0.22226 0.89018 0.1516 0.0
C1542 C 0.62111 0.75547 0.67757 0.0
C1543 C 0.61819 0.7448 0.6546 0.0
H1544 H 0.61617 0.75173 0.7158 0.0
C1545 C 0.60298 0.72441 0.65236 0.0
H1546 H 0.63234 0.77144 0.67988 0.0
C1547 C 0.59373 0.71298 0.67306 0.0
C1548 C 0.59952 0.72184 0.69627 0.0
H1549 H 0.60013 0.71587 0.63489 0.0
H1550 H 0.58398 0.69605 0.67091 0.0
C1551 C 0.61185 0.74411 0.69821 0.0
C1552 C 0.84589 0.76928 0.88696 0.0
C1553 C 0.84341 0.74921 0.8714 0.0
H1554 H 0.82767 0.79756 0.90637 0.0
C1555 C 0.82024 0.739 0.86812 0.0
H1556 H 0.8635 0.77747 0.89007 0.0
C1557 C 0.7997 0.75055 0.87741 0.0
C1558 C 0.80193 0.77251 0.89018 0.0
H1559 H 0.81773 0.72327 0.8566 0.0
H1560 H 0.78199 0.7433 0.87285 0.0
C1561 C 0.82529 0.78087 0.89627 0.0
C1562 C 0.83747 0.23462 0.11069 0.0
C1563 C 0.83518 0.25072 0.13036 0.0
H1564 H 0.81962 0.2091 0.0875 0.0
C1565 C 0.8118 0.25703 0.1384 0.0
H1566 H 0.85519 0.22955 0.10384 0.0
C1567 C 0.79138 0.24528 0.12902 0.0
C1568 C 0.79396 0.22697 0.11144 0.0
H1569 H 0.80935 0.26964 0.15327 0.0
H1570 H 0.77381 0.24929 0.1369 0.0
C1571 C 0.81703 0.22281 0.10134 0.0
C1572 C 0.24069 0.31834 0.62636 0.0
C1573 C 0.25115 0.34152 0.62437 0.0
H1574 H 0.245 0.28029 0.62034 0.0
C1575 C 0.27179 0.34447 0.60963 0.0
H1576 H 0.22453 0.31548 0.6372 0.0
C1577 C 0.28359 0.32419 0.59992 0.0
C1578 C 0.2749 0.3007 0.60483 0.0
H1579 H 0.28017 0.36212 0.60748 0.0
H1580 H 0.30065 0.32684 0.59052 0.0
C1581 C 0.25248 0.29811 0.61672 0.0
C1582 C 0.20518 0.75052 0.1263 0.0
C1583 C 0.20173 0.77028 0.11054 0.0
H1584 H 0.1885 0.72445 0.14963 0.0
C1585 C 0.17811 0.77553 0.1024 0.0
H1586 H 0.22318 0.74566 0.13257 0.0
C1587 C 0.15815 0.76329 0.11219 0.0
C1588 C 0.16149 0.74561 0.13029 0.0
H1589 H 0.17483 0.7904 0.08998 0.0
H1590 H 0.14009 0.76916 0.10707 0.0
C1591 C 0.18525 0.73828 0.13606 0.0
C1592 C 0.75335 0.68089 0.63099 0.0
C1593 C 0.74502 0.65752 0.62512 0.0
H1594 H 0.7474 0.71905 0.62801 0.0
C1595 C 0.72689 0.65503 0.6073 0.0
H1596 H 0.76757 0.68344 0.64434 0.0
C1597 C 0.71516 0.67553 0.59801 0.0
C1598 C 0.72146 0.69882 0.6063 0.0
H1599 H 0.7202 0.63727 0.60217 0.0
H1600 H 0.69987 0.67295 0.58591 0.0
C1601 C 0.74172 0.70134 0.62163 0.0
C1602 C 0.18356 0.2559 0.85016 0.0
C1603 C 0.16015 0.25055 0.85881 0.0
H1604 H 0.22138 0.24739 0.8516 0.0
C1605 C 0.15776 0.23546 0.87924 0.0
H1606 H 0.1861 0.26772 0.83468 0.0
C1607 C 0.17804 0.22367 0.88891 0.0
C1608 C 0.20108 0.22683 0.87838 0.0
H1609 H 0.14002 0.23116 0.88656 0.0
H1610 H 0.17533 0.21073 0.90344 0.0
C1611 C 0.20383 0.24417 0.85987 0.0
C1612 C 0.26686 0.67624 0.38616 0.0
C1613 C 0.26415 0.69967 0.37646 0.0
H1614 H 0.2587 0.6385 0.38236 0.0
C1615 C 0.24685 0.70343 0.35807 0.0
H1616 H 0.27976 0.67275 0.40058 0.0
C1617 C 0.23472 0.68377 0.34765 0.0
C1618 C 0.23967 0.65997 0.35538 0.0
H1619 H 0.24397 0.72132 0.35047 0.0
H1620 H 0.22294 0.68711 0.33226 0.0
C1621 C 0.25472 0.65655 0.37572 0.0
C1622 C 0.75584 0.31474 0.36524 0.0
C1623 C 0.74649 0.3382 0.36884 0.0
H1624 H 0.75034 0.27667 0.36997 0.0
C1625 C 0.72687 0.34129 0.38488 0.0
H1626 H 0.77121 0.31174 0.35335 0.0
C1627 C 0.71484 0.32109 0.39444 0.0
C1628 C 0.72226 0.29752 0.38809 0.0
H1629 H 0.71939 0.35915 0.38829 0.0
H1630 H 0.69849 0.32399 0.40497 0.0
C1631 C 0.74381 0.29459 0.37475 0.0
loop_
_geom_bond_atom_site_label_1
_geom_bond_atom_site_label_2
_geom_bond_distance
_geom_bond_site_symmetry_2
_ccdc_geom_bond_type
O0 Cd1 2.223 . S
O0 C8 1.315 . S
Cd1 O0 2.223 . S
Cd1 O4 2.297 . S
Cd1 O5 2.439 . S
Cd1 O11 2.240 . S
Cd2 O3 2.240 . S
Cd2 O10 2.223 . S
Cd2 O12 2.297 . S
Cd2 O13 2.439 . S
O3 Cd2 2.240 . S
O3 C8 1.279 . S
O4 Cd1 2.297 . S
O4 C6 1.247 . S
O5 Cd1 2.439 . S
O5 C6 1.208 . S
C6 O4 1.247 . S
C6 O5 1.208 . S
C7 O12 1.247 . S
C7 O13 1.208 . S
C8 O0 1.315 . S
C8 O3 1.279 . S
C9 O10 1.315 . S
C9 O11 1.279 . S
O10 Cd2 2.223 . S
O10 C9 1.315 . S
O11 Cd1 2.240 . S
O11 C9 1.279 . S
O12 Cd2 2.297 . S
O12 C7 1.247 . S
O13 Cd2 2.439 . S
O13 C7 1.208 . S
O14 Cd15 2.223 . S
O14 C22 1.315 . S
Cd15 O14 2.223 . S
Cd15 O18 2.297 . S
Cd15 O19 2.439 . S
Cd15 O25 2.240 . S
Cd16 O17 2.240 . S
Cd16 O24 2.223 . S
Cd16 O26 2.297 . S
Cd16 O27 2.439 . S
O17 Cd16 2.240 . S
O17 C22 1.279 . S
O18 Cd15 2.297 . S
O18 C20 1.247 . S
O19 Cd15 2.439 . S
O19 C20 1.208 . S
C20 O18 1.247 . S
C20 O19 1.208 . S
C21 O26 1.247 . S
C21 O27 1.208 . S
C22 O14 1.315 . S
C22 O17 1.279 . S
C23 O24 1.315 . S
C23 O25 1.279 . S
O24 Cd16 2.223 . S
O24 C23 1.315 . S
O25 Cd15 2.240 . S
O25 C23 1.279 . S
O26 Cd16 2.297 . S
O26 C21 1.247 . S
O27 Cd16 2.439 . S
O27 C21 1.208 . S
O28 Cd29 2.223 . S
O28 C36 1.315 . S
Cd29 O28 2.223 . S
Cd29 O32 2.297 . S
Cd29 O33 2.439 . S
Cd29 O39 2.240 . S
Cd30 O31 2.240 . S
Cd30 O38 2.223 . S
Cd30 O40 2.297 . S
Cd30 O41 2.439 . S
O31 Cd30 2.240 . S
O31 C36 1.279 . S
O32 Cd29 2.297 . S
O32 C34 1.247 . S
O33 Cd29 2.439 . S
O33 C34 1.208 . S
C34 O32 1.247 . S
C34 O33 1.208 . S
C35 O40 1.247 . S
C35 O41 1.208 . S
C36 O28 1.315 . S
C36 O31 1.279 . S
C37 O38 1.315 . S
C37 O39 1.279 . S
O38 Cd30 2.223 . S
O38 C37 1.315 . S
O39 Cd29 2.240 . S
O39 C37 1.279 . S
O40 Cd30 2.297 . S
O40 C35 1.247 . S
O41 Cd30 2.439 . S
O41 C35 1.208 . S
O42 Cd43 2.223 . S
O42 C50 1.315 . S
Cd43 O42 2.223 . S
Cd43 O46 2.297 . S
Cd43 O47 2.439 . S
Cd43 O53 2.240 . S
Cd44 O45 2.240 . S
Cd44 O52 2.223 . S
Cd44 O54 2.297 . S
Cd44 O55 2.439 . S
O45 Cd44 2.240 . S
O45 C50 1.279 . S
O46 Cd43 2.297 . S
O46 C48 1.247 . S
O47 Cd43 2.439 . S
O47 C48 1.208 . S
C48 O46 1.247 . S
C48 O47 1.208 . S
C49 O54 1.247 . S
C49 O55 1.208 . S
C50 O42 1.315 . S
C50 O45 1.279 . S
C51 O52 1.315 . S
C51 O53 1.279 . S
O52 Cd44 2.223 . S
O52 C51 1.315 . S
O53 Cd43 2.240 . S
O53 C51 1.279 . S
O54 Cd44 2.297 . S
O54 C49 1.247 . S
O55 Cd44 2.439 . S
O55 C49 1.208 . S
O56 Cd57 2.223 . S
O56 C64 1.315 . S
Cd57 O56 2.223 . S
Cd57 O60 2.297 . S
Cd57 O61 2.439 . S
Cd57 O67 2.240 . S
Cd58 O59 2.240 . S
Cd58 O66 2.223 . S
Cd58 O68 2.297 . S
Cd58 O69 2.439 . S
O59 Cd58 2.240 . S
O59 C64 1.279 . S
O60 Cd57 2.297 . S
O60 C62 1.247 . S
O61 Cd57 2.439 . S
O61 C62 1.208 . S
C62 O60 1.247 . S
C62 O61 1.208 . S
C63 O68 1.247 . S
C63 O69 1.208 . S
C64 O56 1.315 . S
C64 O59 1.279 . S
C65 O66 1.315 . S
C65 O67 1.279 . S
O66 Cd58 2.223 . S
O66 C65 1.315 . S
O67 Cd57 2.240 . S
O67 C65 1.279 . S
O68 Cd58 2.297 . S
O68 C63 1.247 . S
O69 Cd58 2.439 . S
O69 C63 1.208 . S
O70 Cd71 2.223 . S
O70 C78 1.315 . S
Cd71 O70 2.223 . S
Cd71 O74 2.297 . S
Cd71 O75 2.439 . S
Cd71 O81 2.240 . S
Cd72 O73 2.240 . S
Cd72 O80 2.223 . S
Cd72 O82 2.297 . S
Cd72 O83 2.439 . S
O73 Cd72 2.240 . S
O73 C78 1.279 . S
O74 Cd71 2.297 . S
O74 C76 1.247 . S
O75 Cd71 2.439 . S
O75 C76 1.208 . S
C76 O74 1.247 . S
C76 O75 1.208 . S
C77 O82 1.247 . S
C77 O83 1.208 . S
C78 O70 1.315 . S
C78 O73 1.279 . S
C79 O80 1.315 . S
C79 O81 1.279 . S
O80 Cd72 2.223 . S
O80 C79 1.315 . S
O81 Cd71 2.240 . S
O81 C79 1.279 . S
O82 Cd72 2.297 . S
O82 C77 1.247 . S
O83 Cd72 2.439 . S
O83 C77 1.208 . S
O84 Cd85 2.223 . S
O84 C92 1.315 . S
Cd85 O84 2.223 . S
Cd85 O88 2.297 . S
Cd85 O89 2.439 . S
Cd85 O95 2.240 . S
Cd86 O87 2.240 . S
Cd86 O94 2.223 . S
Cd86 O96 2.297 . S
Cd86 O97 2.439 . S
O87 Cd86 2.240 . S
O87 C92 1.279 . S
O88 Cd85 2.297 . S
O88 C90 1.247 . S
O89 Cd85 2.439 . S
O89 C90 1.208 . S
C90 O88 1.247 . S
C90 O89 1.208 . S
C91 O96 1.247 . S
C91 O97 1.208 . S
C92 O84 1.315 . S
C92 O87 1.279 . S
C93 O94 1.315 . S
C93 O95 1.279 . S
O94 Cd86 2.223 . S
O94 C93 1.315 . S
O95 Cd85 2.240 . S
O95 C93 1.279 . S
O96 Cd86 2.297 . S
O96 C91 1.247 . S
O97 Cd86 2.439 . S
O97 C91 1.208 . S
O98 Cd99 2.223 . S
O98 C106 1.315 . S
Cd99 O98 2.223 . S
Cd99 O102 2.297 . S
Cd99 O103 2.439 . S
Cd99 O109 2.240 . S
Cd100 O101 2.240 . S
Cd100 O108 2.223 . S
Cd100 O110 2.297 . S
Cd100 O111 2.439 . S
O101 Cd100 2.240 . S
O101 C106 1.279 . S
O102 Cd99 2.297 . S
O102 C104 1.247 . S
O103 Cd99 2.439 . S
O103 C104 1.208 . S
C104 O102 1.247 . S
C104 O103 1.208 . S
C105 O110 1.247 . S
C105 O111 1.208 . S
C106 O98 1.315 . S
C106 O101 1.279 . S
C107 O108 1.315 . S
C107 O109 1.279 . S
O108 Cd100 2.223 . S
O108 C107 1.315 . S
O109 Cd99 2.240 . S
O109 C107 1.279 . S
O110 Cd100 2.297 . S
O110 C105 1.247 . S
O111 Cd100 2.439 . S
O111 C105 1.208 . S
O112 Cd113 2.223 . S
O112 C120 1.315 . S
Cd113 O112 2.223 . S
Cd113 O116 2.297 . S
Cd113 O117 2.439 . S
Cd113 O123 2.240 . S
Cd114 O115 2.240 . S
Cd114 O122 2.223 . S
Cd114 O124 2.297 . S
Cd114 O125 2.439 . S
O115 Cd114 2.240 . S
O115 C120 1.279 . S
O116 Cd113 2.297 . S
O116 C118 1.247 . S
O117 Cd113 2.439 . S
O117 C118 1.208 . S
C118 O116 1.247 . S
C118 O117 1.208 . S
C119 O124 1.247 . S
C119 O125 1.208 . S
C120 O112 1.315 . S
C120 O115 1.279 . S
C121 O122 1.315 . S
C121 O123 1.279 . S
O122 Cd114 2.223 . S
O122 C121 1.315 . S
O123 Cd113 2.240 . S
O123 C121 1.279 . S
O124 Cd114 2.297 . S
O124 C119 1.247 . S
O125 Cd114 2.439 . S
O125 C119 1.208 . S
O126 Cd127 2.223 . S
O126 C134 1.315 . S
Cd127 O126 2.223 . S
Cd127 O130 2.297 . S
Cd127 O131 2.439 . S
Cd127 O137 2.240 . S
Cd128 O129 2.240 . S
Cd128 O136 2.223 . S
Cd128 O138 2.297 . S
Cd128 O139 2.439 . S
O129 Cd128 2.240 . S
O129 C134 1.279 . S
O130 Cd127 2.297 . S
O130 C132 1.247 . S
O131 Cd127 2.439 . S
O131 C132 1.208 . S
C132 O130 1.247 . S
C132 O131 1.208 . S
C133 O138 1.247 . S
C133 O139 1.208 . S
C134 O126 1.315 . S
C134 O129 1.279 . S
C135 O136 1.315 . S
C135 O137 1.279 . S
O136 Cd128 2.223 . S
O136 C135 1.315 . S
O137 Cd127 2.240 . S
O137 C135 1.279 . S
O138 Cd128 2.297 . S
O138 C133 1.247 . S
O139 Cd128 2.439 . S
O139 C133 1.208 . S
O140 Cd141 2.223 . S
O140 C148 1.315 . S
Cd141 O140 2.223 . S
Cd141 O144 2.297 . S
Cd141 O145 2.439 . S
Cd141 O151 2.240 . S
Cd142 O143 2.240 . S
Cd142 O150 2.223 . S
Cd142 O152 2.297 . S
Cd142 O153 2.439 . S
O143 Cd142 2.240 . S
O143 C148 1.279 . S
O144 Cd141 2.297 . S
O144 C146 1.247 . S
O145 Cd141 2.439 . S
O145 C146 1.208 . S
C146 O144 1.247 . S
C146 O145 1.208 . S
C147 O152 1.247 . S
C147 O153 1.208 . S
C148 O140 1.315 . S
C148 O143 1.279 . S
C149 O150 1.315 . S
C149 O151 1.279 . S
O150 Cd142 2.223 . S
O150 C149 1.315 . S
O151 Cd141 2.240 . S
O151 C149 1.279 . S
O152 Cd142 2.297 . S
O152 C147 1.247 . S
O153 Cd142 2.439 . S
O153 C147 1.208 . S
O154 Cd155 2.223 . S
O154 C162 1.315 . S
Cd155 O154 2.223 . S
Cd155 O158 2.297 . S
Cd155 O159 2.439 . S
Cd155 O165 2.240 . S
Cd156 O157 2.240 . S
Cd156 O164 2.223 . S
Cd156 O166 2.297 . S
Cd156 O167 2.439 . S
O157 Cd156 2.240 . S
O157 C162 1.279 . S
O158 Cd155 2.297 . S
O158 C160 1.247 . S
O159 Cd155 2.439 . S
O159 C160 1.208 . S
C160 O158 1.247 . S
C160 O159 1.208 . S
C161 O166 1.247 . S
C161 O167 1.208 . S
C162 O154 1.315 . S
C162 O157 1.279 . S
C163 O164 1.315 . S
C163 O165 1.279 . S
O164 Cd156 2.223 . S
O164 C163 1.315 . S
O165 Cd155 2.240 . S
O165 C163 1.279 . S
O166 Cd156 2.297 . S
O166 C161 1.247 . S
O167 Cd156 2.439 . S
O167 C161 1.208 . S
O168 Cd169 2.223 . S
O168 C176 1.315 . S
Cd169 O168 2.223 . S
Cd169 O172 2.297 . S
Cd169 O173 2.439 . S
Cd169 O179 2.240 . S
Cd170 O171 2.240 . S
Cd170 O178 2.223 . S
Cd170 O180 2.297 . S
Cd170 O181 2.439 . S
O171 Cd170 2.240 . S
O171 C176 1.279 . S
O172 Cd169 2.297 . S
O172 C174 1.247 . S
O173 Cd169 2.439 . S
O173 C174 1.208 . S
C174 O172 1.247 . S
C174 O173 1.208 . S
C175 O180 1.247 . S
C175 O181 1.208 . S
C176 O168 1.315 . S
C176 O171 1.279 . S
C177 O178 1.315 . S
C177 O179 1.279 . S
O178 Cd170 2.223 . S
O178 C177 1.315 . S
O179 Cd169 2.240 . S
O179 C177 1.279 . S
O180 Cd170 2.297 . S
O180 C175 1.247 . S
O181 Cd170 2.439 . S
O181 C175 1.208 . S
O182 Cd183 2.223 . S
O182 C190 1.315 . S
Cd183 O182 2.223 . S
Cd183 O186 2.297 . S
Cd183 O187 2.439 . S
Cd183 O193 2.240 . S
Cd184 O185 2.240 . S
Cd184 O192 2.223 . S
Cd184 O194 2.297 . S
Cd184 O195 2.439 . S
O185 Cd184 2.240 . S
O185 C190 1.279 . S
O186 Cd183 2.297 . S
O186 C188 1.247 . S
O187 Cd183 2.439 . S
O187 C188 1.208 . S
C188 O186 1.247 . S
C188 O187 1.208 . S
C189 O194 1.247 . S
C189 O195 1.208 . S
C190 O182 1.315 . S
C190 O185 1.279 . S
C191 O192 1.315 . S
C191 O193 1.279 . S
O192 Cd184 2.223 . S
O192 C191 1.315 . S
O193 Cd183 2.240 . S
O193 C191 1.279 . S
O194 Cd184 2.297 . S
O194 C189 1.247 . S
O195 Cd184 2.439 . S
O195 C189 1.208 . S
O196 Cd197 2.223 . S
O196 C204 1.315 . S
Cd197 O196 2.223 . S
Cd197 O200 2.297 . S
Cd197 O201 2.439 . S
Cd197 O207 2.240 . S
Cd198 O199 2.240 . S
Cd198 O206 2.223 . S
Cd198 O208 2.297 . S
Cd198 O209 2.439 . S
O199 Cd198 2.240 . S
O199 C204 1.279 . S
O200 Cd197 2.297 . S
O200 C202 1.247 . S
O201 Cd197 2.439 . S
O201 C202 1.208 . S
C202 O200 1.247 . S
C202 O201 1.208 . S
C203 O208 1.247 . S
C203 O209 1.208 . S
C204 O196 1.315 . S
C204 O199 1.279 . S
C205 O206 1.315 . S
C205 O207 1.279 . S
O206 Cd198 2.223 . S
O206 C205 1.315 . S
O207 Cd197 2.240 . S
O207 C205 1.279 . S
O208 Cd198 2.297 . S
O208 C203 1.247 . S
O209 Cd198 2.439 . S
O209 C203 1.208 . S
O210 Cd211 2.223 . S
O210 C218 1.315 . S
Cd211 O210 2.223 . S
Cd211 O214 2.297 . S
Cd211 O215 2.439 . S
Cd211 O221 2.240 . S
Cd212 O213 2.240 . S
Cd212 O220 2.223 . S
Cd212 O222 2.297 . S
Cd212 O223 2.439 . S
O213 Cd212 2.240 . S
O213 C218 1.279 . S
O214 Cd211 2.297 . S
O214 C216 1.247 . S
O215 Cd211 2.439 . S
O215 C216 1.208 . S
C216 O214 1.247 . S
C216 O215 1.208 . S
C217 O222 1.247 . S
C217 O223 1.208 . S
C218 O210 1.315 . S
C218 O213 1.279 . S
C219 O220 1.315 . S
C219 O221 1.279 . S
O220 Cd212 2.223 . S
O220 C219 1.315 . S
O221 Cd211 2.240 . S
O221 C219 1.279 . S
O222 Cd212 2.297 . S
O222 C217 1.247 . S
O223 Cd212 2.439 . S
O223 C217 1.208 . S
O224 Cd225 2.223 . S
O224 C232 1.315 . S
Cd225 O224 2.223 . S
Cd225 O228 2.297 . S
Cd225 O229 2.439 . S
Cd225 O235 2.240 . S
Cd226 O227 2.240 . S
Cd226 O234 2.223 . S
Cd226 O236 2.297 . S
Cd226 O237 2.439 . S
O227 Cd226 2.240 . S
O227 C232 1.279 . S
O228 Cd225 2.297 . S
O228 C230 1.247 . S
O229 Cd225 2.439 . S
O229 C230 1.208 . S
C230 O228 1.247 . S
C230 O229 1.208 . S
C231 O236 1.247 . S
C231 O237 1.208 . S
C232 O224 1.315 . S
C232 O227 1.279 . S
C233 O234 1.315 . S
C233 O235 1.279 . S
O234 Cd226 2.223 . S
O234 C233 1.315 . S
O235 Cd225 2.240 . S
O235 C233 1.279 . S
O236 Cd226 2.297 . S
O236 C231 1.247 . S
O237 Cd226 2.439 . S
O237 C231 1.208 . S
O238 Cd239 2.223 . S
O238 C246 1.315 . S
Cd239 O238 2.223 . S
Cd239 O242 2.297 . S
Cd239 O243 2.439 . S
Cd239 O249 2.240 . S
Cd240 O241 2.240 . S
Cd240 O248 2.223 . S
Cd240 O250 2.297 . S
Cd240 O251 2.439 . S
O241 Cd240 2.240 . S
O241 C246 1.279 . S
O242 Cd239 2.297 . S
O242 C244 1.247 . S
O243 Cd239 2.439 . S
O243 C244 1.208 . S
C244 O242 1.247 . S
C244 O243 1.208 . S
C245 O250 1.247 . S
C245 O251 1.208 . S
C246 O238 1.315 . S
C246 O241 1.279 . S
C247 O248 1.315 . S
C247 O249 1.279 . S
O248 Cd240 2.223 . S
O248 C247 1.315 . S
O249 Cd239 2.240 . S
O249 C247 1.279 . S
O250 Cd240 2.297 . S
O250 C245 1.247 . S
O251 Cd240 2.439 . S
O251 C245 1.208 . S
O252 Cd253 2.223 . S
O252 C260 1.315 . S
Cd253 O252 2.223 . S
Cd253 O256 2.297 . S
Cd253 O257 2.439 . S
Cd253 O263 2.240 . S
Cd254 O255 2.240 . S
Cd254 O262 2.223 . S
Cd254 O264 2.297 . S
Cd254 O265 2.439 . S
O255 Cd254 2.240 . S
O255 C260 1.279 . S
O256 Cd253 2.297 . S
O256 C258 1.247 . S
O257 Cd253 2.439 . S
O257 C258 1.208 . S
C258 O256 1.247 . S
C258 O257 1.208 . S
C259 O264 1.247 . S
C259 O265 1.208 . S
C260 O252 1.315 . S
C260 O255 1.279 . S
C261 O262 1.315 . S
C261 O263 1.279 . S
O262 Cd254 2.223 . S
O262 C261 1.315 . S
O263 Cd253 2.240 . S
O263 C261 1.279 . S
O264 Cd254 2.297 . S
O264 C259 1.247 . S
O265 Cd254 2.439 . S
O265 C259 1.208 . S
O266 Cd267 2.223 . S
O266 C274 1.315 . S
Cd267 O266 2.223 . S
Cd267 O270 2.297 . S
Cd267 O271 2.439 . S
Cd267 O277 2.240 . S
Cd268 O269 2.240 . S
Cd268 O276 2.223 . S
Cd268 O278 2.297 . S
Cd268 O279 2.439 . S
O269 Cd268 2.240 . S
O269 C274 1.279 . S
O270 Cd267 2.297 . S
O270 C272 1.247 . S
O271 Cd267 2.439 . S
O271 C272 1.208 . S
C272 O270 1.247 . S
C272 O271 1.208 . S
C273 O278 1.247 . S
C273 O279 1.208 . S
C274 O266 1.315 . S
C274 O269 1.279 . S
C275 O276 1.315 . S
C275 O277 1.279 . S
O276 Cd268 2.223 . S
O276 C275 1.315 . S
O277 Cd267 2.240 . S
O277 C275 1.279 . S
O278 Cd268 2.297 . S
O278 C273 1.247 . S
O279 Cd268 2.439 . S
O279 C273 1.208 . S
O280 Cd281 2.223 . S
O280 C288 1.315 . S
Cd281 O280 2.223 . S
Cd281 O284 2.297 . S
Cd281 O285 2.439 . S
Cd281 O291 2.240 . S
Cd282 O283 2.240 . S
Cd282 O290 2.223 . S
Cd282 O292 2.297 . S
Cd282 O293 2.439 . S
O283 Cd282 2.240 . S
O283 C288 1.279 . S
O284 Cd281 2.297 . S
O284 C286 1.247 . S
O285 Cd281 2.439 . S
O285 C286 1.208 . S
C286 O284 1.247 . S
C286 O285 1.208 . S
C287 O292 1.247 . S
C287 O293 1.208 . S
C288 O280 1.315 . S
C288 O283 1.279 . S
C289 O290 1.315 . S
C289 O291 1.279 . S
O290 Cd282 2.223 . S
O290 C289 1.315 . S
O291 Cd281 2.240 . S
O291 C289 1.279 . S
O292 Cd282 2.297 . S
O292 C287 1.247 . S
O293 Cd282 2.439 . S
O293 C287 1.208 . S
O294 Cd295 2.223 . S
O294 C302 1.315 . S
Cd295 O294 2.223 . S
Cd295 O298 2.297 . S
Cd295 O299 2.439 . S
Cd295 O305 2.240 . S
Cd296 O297 2.240 . S
Cd296 O304 2.223 . S
Cd296 O306 2.297 . S
Cd296 O307 2.439 . S
O297 Cd296 2.240 . S
O297 C302 1.279 . S
O298 Cd295 2.297 . S
O298 C300 1.247 . S
O299 Cd295 2.439 . S
O299 C300 1.208 . S
C300 O298 1.247 . S
C300 O299 1.208 . S
C301 O306 1.247 . S
C301 O307 1.208 . S
C302 O294 1.315 . S
C302 O297 1.279 . S
C303 O304 1.315 . S
C303 O305 1.279 . S
O304 Cd296 2.223 . S
O304 C303 1.315 . S
O305 Cd295 2.240 . S
O305 C303 1.279 . S
O306 Cd296 2.297 . S
O306 C301 1.247 . S
O307 Cd296 2.439 . S
O307 C301 1.208 . S
O308 Cd309 2.223 . S
O308 C316 1.315 . S
Cd309 O308 2.223 . S
Cd309 O312 2.297 . S
Cd309 O313 2.439 . S
Cd309 O319 2.240 . S
Cd310 O311 2.240 . S
Cd310 O318 2.223 . S
Cd310 O320 2.297 . S
Cd310 O321 2.439 . S
O311 Cd310 2.240 . S
O311 C316 1.279 . S
O312 Cd309 2.297 . S
O312 C314 1.247 . S
O313 Cd309 2.439 . S
O313 C314 1.208 . S
C314 O312 1.247 . S
C314 O313 1.208 . S
C315 O320 1.247 . S
C315 O321 1.208 . S
C316 O308 1.315 . S
C316 O311 1.279 . S
C317 O318 1.315 . S
C317 O319 1.279 . S
O318 Cd310 2.223 . S
O318 C317 1.315 . S
O319 Cd309 2.240 . S
O319 C317 1.279 . S
O320 Cd310 2.297 . S
O320 C315 1.247 . S
O321 Cd310 2.439 . S
O321 C315 1.208 . S
O322 Cd323 2.223 . S
O322 C330 1.315 . S
Cd323 O322 2.223 . S
Cd323 O326 2.297 . S
Cd323 O327 2.439 . S
Cd323 O333 2.240 . S
Cd324 O325 2.240 . S
Cd324 O332 2.223 . S
Cd324 O334 2.297 . S
Cd324 O335 2.439 . S
O325 Cd324 2.240 . S
O325 C330 1.279 . S
O326 Cd323 2.297 . S
O326 C328 1.247 . S
O327 Cd323 2.439 . S
O327 C328 1.208 . S
C328 O326 1.247 . S
C328 O327 1.208 . S
C329 O334 1.247 . S
C329 O335 1.208 . S
C330 O322 1.315 . S
C330 O325 1.279 . S
C331 O332 1.315 . S
C331 O333 1.279 . S
O332 Cd324 2.223 . S
O332 C331 1.315 . S
O333 Cd323 2.240 . S
O333 C331 1.279 . S
O334 Cd324 2.297 . S
O334 C329 1.247 . S
O335 Cd324 2.439 . S
O335 C329 1.208 . S
O336 Cd337 2.223 . S
O336 C344 1.315 . S
Cd337 O336 2.223 . S
Cd337 O340 2.297 . S
Cd337 O341 2.439 . S
Cd337 O347 2.240 . S
Cd338 O339 2.240 . S
Cd338 O346 2.223 . S
Cd338 O348 2.297 . S
Cd338 O349 2.439 . S
O339 Cd338 2.240 . S
O339 C344 1.279 . S
O340 Cd337 2.297 . S
O340 C342 1.247 . S
O341 Cd337 2.439 . S
O341 C342 1.208 . S
C342 O340 1.247 . S
C342 O341 1.208 . S
C343 O348 1.247 . S
C343 O349 1.208 . S
C344 O336 1.315 . S
C344 O339 1.279 . S
C345 O346 1.315 . S
C345 O347 1.279 . S
O346 Cd338 2.223 . S
O346 C345 1.315 . S
O347 Cd337 2.240 . S
O347 C345 1.279 . S
O348 Cd338 2.297 . S
O348 C343 1.247 . S
O349 Cd338 2.439 . S
O349 C343 1.208 . S
O350 Cd351 2.223 . S
O350 C358 1.315 . S
Cd351 O350 2.223 . S
Cd351 O354 2.297 . S
Cd351 O355 2.439 . S
Cd351 O361 2.240 . S
Cd352 O353 2.240 . S
Cd352 O360 2.223 . S
Cd352 O362 2.297 . S
Cd352 O363 2.439 . S
O353 Cd352 2.240 . S
O353 C358 1.279 . S
O354 Cd351 2.297 . S
O354 C356 1.247 . S
O355 Cd351 2.439 . S
O355 C356 1.208 . S
C356 O354 1.247 . S
C356 O355 1.208 . S
C357 O362 1.247 . S
C357 O363 1.208 . S
C358 O350 1.315 . S
C358 O353 1.279 . S
C359 O360 1.315 . S
C359 O361 1.279 . S
O360 Cd352 2.223 . S
O360 C359 1.315 . S
O361 Cd351 2.240 . S
O361 C359 1.279 . S
O362 Cd352 2.297 . S
O362 C357 1.247 . S
O363 Cd352 2.439 . S
O363 C357 1.208 . S
O364 Cd365 2.223 . S
O364 C372 1.315 . S
Cd365 O364 2.223 . S
Cd365 O368 2.297 . S
Cd365 O369 2.439 . S
Cd365 O375 2.240 . S
Cd366 O367 2.240 . S
Cd366 O374 2.223 . S
Cd366 O376 2.297 . S
Cd366 O377 2.439 . S
O367 Cd366 2.240 . S
O367 C372 1.279 . S
O368 Cd365 2.297 . S
O368 C370 1.247 . S
O369 Cd365 2.439 . S
O369 C370 1.208 . S
C370 O368 1.247 . S
C370 O369 1.208 . S
C371 O376 1.247 . S
C371 O377 1.208 . S
C372 O364 1.315 . S
C372 O367 1.279 . S
C373 O374 1.315 . S
C373 O375 1.279 . S
O374 Cd366 2.223 . S
O374 C373 1.315 . S
O375 Cd365 2.240 . S
O375 C373 1.279 . S
O376 Cd366 2.297 . S
O376 C371 1.247 . S
O377 Cd366 2.439 . S
O377 C371 1.208 . S
O378 Cd379 2.223 . S
O378 C386 1.315 . S
Cd379 O378 2.223 . S
Cd379 O382 2.297 . S
Cd379 O383 2.439 . S
Cd379 O389 2.240 . S
Cd380 O381 2.240 . S
Cd380 O388 2.223 . S
Cd380 O390 2.297 . S
Cd380 O391 2.439 . S
O381 Cd380 2.240 . S
O381 C386 1.279 . S
O382 Cd379 2.297 . S
O382 C384 1.247 . S
O383 Cd379 2.439 . S
O383 C384 1.208 . S
C384 O382 1.247 . S
C384 O383 1.208 . S
C385 O390 1.247 . S
C385 O391 1.208 . S
C386 O378 1.315 . S
C386 O381 1.279 . S
C387 O388 1.315 . S
C387 O389 1.279 . S
O388 Cd380 2.223 . S
O388 C387 1.315 . S
O389 Cd379 2.240 . S
O389 C387 1.279 . S
O390 Cd380 2.297 . S
O390 C385 1.247 . S
O391 Cd380 2.439 . S
O391 C385 1.208 . S
O392 Cd393 2.223 . S
O392 C400 1.315 . S
Cd393 O392 2.223 . S
Cd393 O396 2.297 . S
Cd393 O397 2.439 . S
Cd393 O403 2.240 . S
Cd394 O395 2.240 . S
Cd394 O402 2.223 . S
Cd394 O404 2.297 . S
Cd394 O405 2.439 . S
O395 Cd394 2.240 . S
O395 C400 1.279 . S
O396 Cd393 2.297 . S
O396 C398 1.247 . S
O397 Cd393 2.439 . S
O397 C398 1.208 . S
C398 O396 1.247 . S
C398 O397 1.208 . S
C399 O404 1.247 . S
C399 O405 1.208 . S
C400 O392 1.315 . S
C400 O395 1.279 . S
C401 O402 1.315 . S
C401 O403 1.279 . S
O402 Cd394 2.223 . S
O402 C401 1.315 . S
O403 Cd393 2.240 . S
O403 C401 1.279 . S
O404 Cd394 2.297 . S
O404 C399 1.247 . S
O405 Cd394 2.439 . S
O405 C399 1.208 . S
O406 Cd407 2.223 . S
O406 C414 1.315 . S
Cd407 O406 2.223 . S
Cd407 O410 2.297 . S
Cd407 O411 2.439 . S
Cd407 O417 2.240 . S
Cd408 O409 2.240 . S
Cd408 O416 2.223 . S
Cd408 O418 2.297 . S
Cd408 O419 2.439 . S
O409 Cd408 2.240 . S
O409 C414 1.279 . S
O410 Cd407 2.297 . S
O410 C412 1.247 . S
O411 Cd407 2.439 . S
O411 C412 1.208 . S
C412 O410 1.247 . S
C412 O411 1.208 . S
C413 O418 1.247 . S
C413 O419 1.208 . S
C414 O406 1.315 . S
C414 O409 1.279 . S
C415 O416 1.315 . S
C415 O417 1.279 . S
O416 Cd408 2.223 . S
O416 C415 1.315 . S
O417 Cd407 2.240 . S
O417 C415 1.279 . S
O418 Cd408 2.297 . S
O418 C413 1.247 . S
O419 Cd408 2.439 . S
O419 C413 1.208 . S
O420 Cd421 2.223 . S
O420 C428 1.315 . S
Cd421 O420 2.223 . S
Cd421 O424 2.297 . S
Cd421 O425 2.439 . S
Cd421 O431 2.240 . S
Cd422 O423 2.240 . S
Cd422 O430 2.223 . S
Cd422 O432 2.297 . S
Cd422 O433 2.439 . S
O423 Cd422 2.240 . S
O423 C428 1.279 . S
O424 Cd421 2.297 . S
O424 C426 1.247 . S
O425 Cd421 2.439 . S
O425 C426 1.208 . S
C426 O424 1.247 . S
C426 O425 1.208 . S
C427 O432 1.247 . S
C427 O433 1.208 . S
C428 O420 1.315 . S
C428 O423 1.279 . S
C429 O430 1.315 . S
C429 O431 1.279 . S
O430 Cd422 2.223 . S
O430 C429 1.315 . S
O431 Cd421 2.240 . S
O431 C429 1.279 . S
O432 Cd422 2.297 . S
O432 C427 1.247 . S
O433 Cd422 2.439 . S
O433 C427 1.208 . S
O434 Cd435 2.223 . S
O434 C442 1.315 . S
Cd435 O434 2.223 . S
Cd435 O438 2.297 . S
Cd435 O439 2.439 . S
Cd435 O445 2.240 . S
Cd436 O437 2.240 . S
Cd436 O444 2.223 . S
Cd436 O446 2.297 . S
Cd436 O447 2.439 . S
O437 Cd436 2.240 . S
O437 C442 1.279 . S
O438 Cd435 2.297 . S
O438 C440 1.247 . S
O439 Cd435 2.439 . S
O439 C440 1.208 . S
C440 O438 1.247 . S
C440 O439 1.208 . S
C441 O446 1.247 . S
C441 O447 1.208 . S
C442 O434 1.315 . S
C442 O437 1.279 . S
C443 O444 1.315 . S
C443 O445 1.279 . S
O444 Cd436 2.223 . S
O444 C443 1.315 . S
O445 Cd435 2.240 . S
O445 C443 1.279 . S
O446 Cd436 2.297 . S
O446 C441 1.247 . S
O447 Cd436 2.439 . S
O447 C441 1.208 . S
O448 Cd449 2.223 . S
O448 C456 1.315 . S
Cd449 O448 2.223 . S
Cd449 O452 2.297 . S
Cd449 O453 2.439 . S
Cd449 O459 2.240 . S
Cd450 O451 2.240 . S
Cd450 O458 2.223 . S
Cd450 O460 2.297 . S
Cd450 O461 2.439 . S
O451 Cd450 2.240 . S
O451 C456 1.279 . S
O452 Cd449 2.297 . S
O452 C454 1.247 . S
O453 Cd449 2.439 . S
O453 C454 1.208 . S
C454 O452 1.247 . S
C454 O453 1.208 . S
C455 O460 1.247 . S
C455 O461 1.208 . S
C456 O448 1.315 . S
C456 O451 1.279 . S
C457 O458 1.315 . S
C457 O459 1.279 . S
O458 Cd450 2.223 . S
O458 C457 1.315 . S
O459 Cd449 2.240 . S
O459 C457 1.279 . S
O460 Cd450 2.297 . S
O460 C455 1.247 . S
O461 Cd450 2.439 . S
O461 C455 1.208 . S
O462 Cd463 2.223 . S
O462 C470 1.315 . S
Cd463 O462 2.223 . S
Cd463 O466 2.297 . S
Cd463 O467 2.439 . S
Cd463 O473 2.240 . S
Cd464 O465 2.240 . S
Cd464 O472 2.223 . S
Cd464 O474 2.297 . S
Cd464 O475 2.439 . S
O465 Cd464 2.240 . S
O465 C470 1.279 . S
O466 Cd463 2.297 . S
O466 C468 1.247 . S
O467 Cd463 2.439 . S
O467 C468 1.208 . S
C468 O466 1.247 . S
C468 O467 1.208 . S
C469 O474 1.247 . S
C469 O475 1.208 . S
C470 O462 1.315 . S
C470 O465 1.279 . S
C471 O472 1.315 . S
C471 O473 1.279 . S
O472 Cd464 2.223 . S
O472 C471 1.315 . S
O473 Cd463 2.240 . S
O473 C471 1.279 . S
O474 Cd464 2.297 . S
O474 C469 1.247 . S
O475 Cd464 2.439 . S
O475 C469 1.208 . S
O476 Cd477 2.223 . S
O476 C484 1.315 . S
Cd477 O476 2.223 . S
Cd477 O480 2.297 . S
Cd477 O481 2.439 . S
Cd477 O487 2.240 . S
Cd478 O479 2.240 . S
Cd478 O486 2.223 . S
Cd478 O488 2.297 . S
Cd478 O489 2.439 . S
O479 Cd478 2.240 . S
O479 C484 1.279 . S
O480 Cd477 2.297 . S
O480 C482 1.247 . S
O481 Cd477 2.439 . S
O481 C482 1.208 . S
C482 O480 1.247 . S
C482 O481 1.208 . S
C483 O488 1.247 . S
C483 O489 1.208 . S
C484 O476 1.315 . S
C484 O479 1.279 . S
C485 O486 1.315 . S
C485 O487 1.279 . S
O486 Cd478 2.223 . S
O486 C485 1.315 . S
O487 Cd477 2.240 . S
O487 C485 1.279 . S
O488 Cd478 2.297 . S
O488 C483 1.247 . S
O489 Cd478 2.439 . S
O489 C483 1.208 . S
O490 Cd491 2.223 . S
O490 C498 1.315 . S
Cd491 O490 2.223 . S
Cd491 O494 2.297 . S
Cd491 O495 2.439 . S
Cd491 O501 2.240 . S
Cd492 O493 2.240 . S
Cd492 O500 2.223 . S
Cd492 O502 2.297 . S
Cd492 O503 2.439 . S
O493 Cd492 2.240 . S
O493 C498 1.279 . S
O494 Cd491 2.297 . S
O494 C496 1.247 . S
O495 Cd491 2.439 . S
O495 C496 1.208 . S
C496 O494 1.247 . S
C496 O495 1.208 . S
C497 O502 1.247 . S
C497 O503 1.208 . S
C498 O490 1.315 . S
C498 O493 1.279 . S
C499 O500 1.315 . S
C499 O501 1.279 . S
O500 Cd492 2.223 . S
O500 C499 1.315 . S
O501 Cd491 2.240 . S
O501 C499 1.279 . S
O502 Cd492 2.297 . S
O502 C497 1.247 . S
O503 Cd492 2.439 . S
O503 C497 1.208 . S
O504 Cd505 2.223 . S
O504 C512 1.315 . S
Cd505 O504 2.223 . S
Cd505 O508 2.297 . S
Cd505 O509 2.439 . S
Cd505 O515 2.240 . S
Cd506 O507 2.240 . S
Cd506 O514 2.223 . S
Cd506 O516 2.297 . S
Cd506 O517 2.439 . S
O507 Cd506 2.240 . S
O507 C512 1.279 . S
O508 Cd505 2.297 . S
O508 C510 1.247 . S
O509 Cd505 2.439 . S
O509 C510 1.208 . S
C510 O508 1.247 . S
C510 O509 1.208 . S
C511 O516 1.247 . S
C511 O517 1.208 . S
C512 O504 1.315 . S
C512 O507 1.279 . S
C513 O514 1.315 . S
C513 O515 1.279 . S
O514 Cd506 2.223 . S
O514 C513 1.315 . S
O515 Cd505 2.240 . S
O515 C513 1.279 . S
O516 Cd506 2.297 . S
O516 C511 1.247 . S
O517 Cd506 2.439 . S
O517 C511 1.208 . S
O518 Cd519 2.223 . S
O518 C526 1.315 . S
Cd519 O518 2.223 . S
Cd519 O522 2.297 . S
Cd519 O523 2.439 . S
Cd519 O529 2.240 . S
Cd520 O521 2.240 . S
Cd520 O528 2.223 . S
Cd520 O530 2.297 . S
Cd520 O531 2.439 . S
O521 Cd520 2.240 . S
O521 C526 1.279 . S
O522 Cd519 2.297 . S
O522 C524 1.247 . S
O523 Cd519 2.439 . S
O523 C524 1.208 . S
C524 O522 1.247 . S
C524 O523 1.208 . S
C525 O530 1.247 . S
C525 O531 1.208 . S
C526 O518 1.315 . S
C526 O521 1.279 . S
C527 O528 1.315 . S
C527 O529 1.279 . S
O528 Cd520 2.223 . S
O528 C527 1.315 . S
O529 Cd519 2.240 . S
O529 C527 1.279 . S
O530 Cd520 2.297 . S
O530 C525 1.247 . S
O531 Cd520 2.439 . S
O531 C525 1.208 . S
O532 Cd533 2.223 . S
O532 C540 1.315 . S
Cd533 O532 2.223 . S
Cd533 O536 2.297 . S
Cd533 O537 2.439 . S
Cd533 O543 2.240 . S
Cd534 O535 2.240 . S
Cd534 O542 2.223 . S
Cd534 O544 2.297 . S
Cd534 O545 2.439 . S
O535 Cd534 2.240 . S
O535 C540 1.279 . S
O536 Cd533 2.297 . S
O536 C538 1.247 . S
O537 Cd533 2.439 . S
O537 C538 1.208 . S
C538 O536 1.247 . S
C538 O537 1.208 . S
C539 O544 1.247 . S
C539 O545 1.208 . S
C540 O532 1.315 . S
C540 O535 1.279 . S
C541 O542 1.315 . S
C541 O543 1.279 . S
O542 Cd534 2.223 . S
O542 C541 1.315 . S
O543 Cd533 2.240 . S
O543 C541 1.279 . S
O544 Cd534 2.297 . S
O544 C539 1.247 . S
O545 Cd534 2.439 . S
O545 C539 1.208 . S
O546 Cd547 2.223 . S
O546 C554 1.315 . S
Cd547 O546 2.223 . S
Cd547 O550 2.297 . S
Cd547 O551 2.439 . S
Cd547 O557 2.240 . S
Cd548 O549 2.240 . S
Cd548 O556 2.223 . S
Cd548 O558 2.297 . S
Cd548 O559 2.439 . S
O549 Cd548 2.240 . S
O549 C554 1.279 . S
O550 Cd547 2.297 . S
O550 C552 1.247 . S
O551 Cd547 2.439 . S
O551 C552 1.208 . S
C552 O550 1.247 . S
C552 O551 1.208 . S
C553 O558 1.247 . S
C553 O559 1.208 . S
C554 O546 1.315 . S
C554 O549 1.279 . S
C555 O556 1.315 . S
C555 O557 1.279 . S
O556 Cd548 2.223 . S
O556 C555 1.315 . S
O557 Cd547 2.240 . S
O557 C555 1.279 . S
O558 Cd548 2.297 . S
O558 C553 1.247 . S
O559 Cd548 2.439 . S
O559 C553 1.208 . S
O560 Cd561 2.223 . S
O560 C568 1.315 . S
Cd561 O560 2.223 . S
Cd561 O564 2.297 . S
Cd561 O565 2.439 . S
Cd561 O571 2.240 . S
Cd562 O563 2.240 . S
Cd562 O570 2.223 . S
Cd562 O572 2.297 . S
Cd562 O573 2.439 . S
O563 Cd562 2.240 . S
O563 C568 1.279 . S
O564 Cd561 2.297 . S
O564 C566 1.247 . S
O565 Cd561 2.439 . S
O565 C566 1.208 . S
C566 O564 1.247 . S
C566 O565 1.208 . S
C567 O572 1.247 . S
C567 O573 1.208 . S
C568 O560 1.315 . S
C568 O563 1.279 . S
C569 O570 1.315 . S
C569 O571 1.279 . S
O570 Cd562 2.223 . S
O570 C569 1.315 . S
O571 Cd561 2.240 . S
O571 C569 1.279 . S
O572 Cd562 2.297 . S
O572 C567 1.247 . S
O573 Cd562 2.439 . S
O573 C567 1.208 . S
O574 Cd575 2.223 . S
O574 C582 1.315 . S
Cd575 O574 2.223 . S
Cd575 O578 2.297 . S
Cd575 O579 2.439 . S
Cd575 O585 2.240 . S
Cd576 O577 2.240 . S
Cd576 O584 2.223 . S
Cd576 O586 2.297 . S
Cd576 O587 2.439 . S
O577 Cd576 2.240 . S
O577 C582 1.279 . S
O578 Cd575 2.297 . S
O578 C580 1.247 . S
O579 Cd575 2.439 . S
O579 C580 1.208 . S
C580 O578 1.247 . S
C580 O579 1.208 . S
C581 O586 1.247 . S
C581 O587 1.208 . S
C582 O574 1.315 . S
C582 O577 1.279 . S
C583 O584 1.315 . S
C583 O585 1.279 . S
O584 Cd576 2.223 . S
O584 C583 1.315 . S
O585 Cd575 2.240 . S
O585 C583 1.279 . S
O586 Cd576 2.297 . S
O586 C581 1.247 . S
O587 Cd576 2.439 . S
O587 C581 1.208 . S
O588 Cd589 2.223 . S
O588 C596 1.315 . S
Cd589 O588 2.223 . S
Cd589 O592 2.297 . S
Cd589 O593 2.439 . S
Cd589 O599 2.240 . S
Cd590 O591 2.240 . S
Cd590 O598 2.223 . S
Cd590 O600 2.297 . S
Cd590 O601 2.439 . S
O591 Cd590 2.240 . S
O591 C596 1.279 . S
O592 Cd589 2.297 . S
O592 C594 1.247 . S
O593 Cd589 2.439 . S
O593 C594 1.208 . S
C594 O592 1.247 . S
C594 O593 1.208 . S
C595 O600 1.247 . S
C595 O601 1.208 . S
C596 O588 1.315 . S
C596 O591 1.279 . S
C597 O598 1.315 . S
C597 O599 1.279 . S
O598 Cd590 2.223 . S
O598 C597 1.315 . S
O599 Cd589 2.240 . S
O599 C597 1.279 . S
O600 Cd590 2.297 . S
O600 C595 1.247 . S
O601 Cd590 2.439 . S
O601 C595 1.208 . S
O602 Cd603 2.223 . S
O602 C610 1.315 . S
Cd603 O602 2.223 . S
Cd603 O606 2.297 . S
Cd603 O607 2.439 . S
Cd603 O613 2.240 . S
Cd604 O605 2.240 . S
Cd604 O612 2.223 . S
Cd604 O614 2.297 . S
Cd604 O615 2.439 . S
O605 Cd604 2.240 . S
O605 C610 1.279 . S
O606 Cd603 2.297 . S
O606 C608 1.247 . S
O607 Cd603 2.439 . S
O607 C608 1.208 . S
C608 O606 1.247 . S
C608 O607 1.208 . S
C609 O614 1.247 . S
C609 O615 1.208 . S
C610 O602 1.315 . S
C610 O605 1.279 . S
C611 O612 1.315 . S
C611 O613 1.279 . S
O612 Cd604 2.223 . S
O612 C611 1.315 . S
O613 Cd603 2.240 . S
O613 C611 1.279 . S
O614 Cd604 2.297 . S
O614 C609 1.247 . S
O615 Cd604 2.439 . S
O615 C609 1.208 . S
O616 Cd617 2.223 . S
O616 C624 1.315 . S
Cd617 O616 2.223 . S
Cd617 O620 2.297 . S
Cd617 O621 2.439 . S
Cd617 O627 2.240 . S
Cd618 O619 2.240 . S
Cd618 O626 2.223 . S
Cd618 O628 2.297 . S
Cd618 O629 2.439 . S
O619 Cd618 2.240 . S
O619 C624 1.279 . S
O620 Cd617 2.297 . S
O620 C622 1.247 . S
O621 Cd617 2.439 . S
O621 C622 1.208 . S
C622 O620 1.247 . S
C622 O621 1.208 . S
C623 O628 1.247 . S
C623 O629 1.208 . S
C624 O616 1.315 . S
C624 O619 1.279 . S
C625 O626 1.315 . S
C625 O627 1.279 . S
O626 Cd618 2.223 . S
O626 C625 1.315 . S
O627 Cd617 2.240 . S
O627 C625 1.279 . S
O628 Cd618 2.297 . S
O628 C623 1.247 . S
O629 Cd618 2.439 . S
O629 C623 1.208 . S
O630 Cd631 2.223 . S
O630 C638 1.315 . S
Cd631 O630 2.223 . S
Cd631 O634 2.297 . S
Cd631 O635 2.439 . S
Cd631 O641 2.240 . S
Cd632 O633 2.240 . S
Cd632 O640 2.223 . S
Cd632 O642 2.297 . S
Cd632 O643 2.439 . S
O633 Cd632 2.240 . S
O633 C638 1.279 . S
O634 Cd631 2.297 . S
O634 C636 1.247 . S
O635 Cd631 2.439 . S
O635 C636 1.208 . S
C636 O634 1.247 . S
C636 O635 1.208 . S
C637 O642 1.247 . S
C637 O643 1.208 . S
C638 O630 1.315 . S
C638 O633 1.279 . S
C639 O640 1.315 . S
C639 O641 1.279 . S
O640 Cd632 2.223 . S
O640 C639 1.315 . S
O641 Cd631 2.240 . S
O641 C639 1.279 . S
O642 Cd632 2.297 . S
O642 C637 1.247 . S
O643 Cd632 2.439 . S
O643 C637 1.208 . S
O644 Cd645 2.223 . S
O644 C652 1.315 . S
Cd645 O644 2.223 . S
Cd645 O648 2.297 . S
Cd645 O649 2.439 . S
Cd645 O655 2.240 . S
Cd646 O647 2.240 . S
Cd646 O654 2.223 . S
Cd646 O656 2.297 . S
Cd646 O657 2.439 . S
O647 Cd646 2.240 . S
O647 C652 1.279 . S
O648 Cd645 2.297 . S
O648 C650 1.247 . S
O649 Cd645 2.439 . S
O649 C650 1.208 . S
C650 O648 1.247 . S
C650 O649 1.208 . S
C651 O656 1.247 . S
C651 O657 1.208 . S
C652 O644 1.315 . S
C652 O647 1.279 . S
C653 O654 1.315 . S
C653 O655 1.279 . S
O654 Cd646 2.223 . S
O654 C653 1.315 . S
O655 Cd645 2.240 . S
O655 C653 1.279 . S
O656 Cd646 2.297 . S
O656 C651 1.247 . S
O657 Cd646 2.439 . S
O657 C651 1.208 . S
O658 Cd659 2.223 . S
O658 C666 1.315 . S
Cd659 O658 2.223 . S
Cd659 O662 2.297 . S
Cd659 O663 2.439 . S
Cd659 O669 2.240 . S
Cd660 O661 2.240 . S
Cd660 O668 2.223 . S
Cd660 O670 2.297 . S
Cd660 O671 2.439 . S
O661 Cd660 2.240 . S
O661 C666 1.279 . S
O662 Cd659 2.297 . S
O662 C664 1.247 . S
O663 Cd659 2.439 . S
O663 C664 1.208 . S
C664 O662 1.247 . S
C664 O663 1.208 . S
C665 O670 1.247 . S
C665 O671 1.208 . S
C666 O658 1.315 . S
C666 O661 1.279 . S
C667 O668 1.315 . S
C667 O669 1.279 . S
O668 Cd660 2.223 . S
O668 C667 1.315 . S
O669 Cd659 2.240 . S
O669 C667 1.279 . S
O670 Cd660 2.297 . S
O670 C665 1.247 . S
O671 Cd660 2.439 . S
O671 C665 1.208 . S
C672 C673 1.387 . S
C672 H676 0.950 . S
C672 C681 1.390 1_655 S
C673 C672 1.387 . S
C673 C675 1.387 . S
H674 C681 0.950 . S
C675 C673 1.387 . S
C675 C677 1.390 1_655 S
C675 H679 0.950 . S
H676 C672 0.950 . S
C677 C675 1.390 1_455 S
C677 C678 1.387 . S
C677 H680 0.950 . S
C678 C677 1.387 . S
C678 C681 1.387 . S
H679 C675 0.950 . S
H680 C677 0.950 . S
C681 C672 1.390 1_455 S
C681 H674 0.950 . S
C681 C678 1.387 . S
C682 C683 1.387 . S
C682 H686 0.950 . S
C682 C691 1.390 . S
C683 C682 1.387 . S
C683 C685 1.387 . S
H684 C691 0.950 . S
C685 C683 1.387 . S
C685 C687 1.390 . S
C685 H689 0.950 . S
H686 C682 0.950 . S
C687 C685 1.390 . S
C687 C688 1.387 . S
C687 H690 0.950 . S
C688 C687 1.387 . S
C688 C691 1.387 . S
H689 C685 0.950 . S
H690 C687 0.950 . S
C691 C682 1.390 . S
C691 H684 0.950 . S
C691 C688 1.387 . S
C692 C693 1.387 . S
C692 H696 0.950 . S
C692 C701 1.390 1_455 S
C693 C692 1.387 . S
C693 C695 1.387 . S
H694 C701 0.950 . S
C695 C693 1.387 . S
C695 C697 1.390 1_455 S
C695 H699 0.950 . S
H696 C692 0.950 . S
C697 C695 1.390 1_655 S
C697 C698 1.387 . S
C697 H700 0.950 . S
C698 C697 1.387 . S
C698 C701 1.387 . S
H699 C695 0.950 . S
H700 C697 0.950 . S
C701 C692 1.390 1_655 S
C701 H694 0.950 . S
C701 C698 1.387 . S
C702 C703 1.387 . S
C702 H706 0.950 . S
C702 C711 1.390 . S
C703 C702 1.387 . S
C703 C705 1.387 . S
H704 C711 0.950 . S
C705 C703 1.387 . S
C705 C707 1.390 . S
C705 H709 0.950 . S
H706 C702 0.950 . S
C707 C705 1.390 . S
C707 C708 1.387 . S
C707 H710 0.950 . S
C708 C707 1.387 . S
C708 C711 1.387 . S
H709 C705 0.950 . S
H710 C707 0.950 . S
C711 C702 1.390 . S
C711 H704 0.950 . S
C711 C708 1.387 . S
C712 C713 1.387 . S
C712 H716 0.950 . S
C712 C721 1.390 1_655 S
C713 C712 1.387 . S
C713 C715 1.387 . S
H714 C721 0.950 . S
C715 C713 1.387 . S
C715 C717 1.390 1_655 S
C715 H719 0.950 . S
H716 C712 0.950 . S
C717 C715 1.390 1_455 S
C717 C718 1.387 . S
C717 H720 0.950 . S
C718 C717 1.387 . S
C718 C721 1.387 . S
H719 C715 0.950 . S
H720 C717 0.950 . S
C721 C712 1.390 1_455 S
C721 H714 0.950 . S
C721 C718 1.387 . S
C722 C723 1.387 . S
C722 H726 0.950 . S
C722 C731 1.390 . S
C723 C722 1.387 . S
C723 C725 1.387 . S
H724 C731 0.950 . S
C725 C723 1.387 . S
C725 C727 1.390 . S
C725 H729 0.950 . S
H726 C722 0.950 . S
C727 C725 1.390 . S
C727 C728 1.387 . S
C727 H730 0.950 . S
C728 C727 1.387 . S
C728 C731 1.387 . S
H729 C725 0.950 . S
H730 C727 0.950 . S
C731 C722 1.390 . S
C731 H724 0.950 . S
C731 C728 1.387 . S
C732 C733 1.387 . S
C732 H736 0.950 . S
C732 C741 1.390 1_455 S
C733 C732 1.387 . S
C733 C735 1.387 . S
H734 C741 0.950 . S
C735 C733 1.387 . S
C735 C737 1.390 1_455 S
C735 H739 0.950 . S
H736 C732 0.950 . S
C737 C735 1.390 1_655 S
C737 C738 1.387 . S
C737 H740 0.950 . S
C738 C737 1.387 . S
C738 C741 1.387 . S
H739 C735 0.950 . S
H740 C737 0.950 . S
C741 C732 1.390 1_655 S
C741 H734 0.950 . S
C741 C738 1.387 . S
C742 C743 1.387 . S
C742 H746 0.950 . S
C742 C751 1.390 . S
C743 C742 1.387 . S
C743 C745 1.387 . S
H744 C751 0.950 . S
C745 C743 1.387 . S
C745 C747 1.390 . S
C745 H749 0.950 . S
H746 C742 0.950 . S
C747 C745 1.390 . S
C747 C748 1.387 . S
C747 H750 0.950 . S
C748 C747 1.387 . S
C748 C751 1.387 . S
H749 C745 0.950 . S
H750 C747 0.950 . S
C751 C742 1.390 . S
C751 H744 0.950 . S
C751 C748 1.387 . S
C752 C753 1.387 . S
C752 H756 0.950 . S
C752 C761 1.390 1_565 S
C753 C752 1.387 . S
C753 C755 1.387 . S
H754 C761 0.950 . S
C755 C753 1.387 . S
C755 C757 1.390 1_565 S
C755 H759 0.950 . S
H756 C752 0.950 . S
C757 C755 1.390 1_545 S
C757 C758 1.387 . S
C757 H760 0.950 . S
C758 C757 1.387 . S
C758 C761 1.387 . S
H759 C755 0.950 . S
H760 C757 0.950 . S
C761 C752 1.390 1_545 S
C761 H754 0.950 . S
C761 C758 1.387 . S
C762 C763 1.387 . S
C762 H766 0.950 . S
C762 C771 1.390 . S
C763 C762 1.387 . S
C763 C765 1.387 . S
H764 C771 0.950 . S
C765 C763 1.387 . S
C765 C767 1.390 . S
C765 H769 0.950 . S
H766 C762 0.950 . S
C767 C765 1.390 . S
C767 C768 1.387 . S
C767 H770 0.950 . S
C768 C767 1.387 . S
C768 C771 1.387 . S
H769 C765 0.950 . S
H770 C767 0.950 . S
C771 C762 1.390 . S
C771 H764 0.950 . S
C771 C768 1.387 . S
C772 C773 1.387 . S
C772 H776 0.950 . S
C772 C781 1.390 1_545 S
C773 C772 1.387 . S
C773 C775 1.387 . S
H774 C781 0.950 . S
C775 C773 1.387 . S
C775 C777 1.390 1_545 S
C775 H779 0.950 . S
H776 C772 0.950 . S
C777 C775 1.390 1_565 S
C777 C778 1.387 . S
C777 H780 0.950 . S
C778 C777 1.387 . S
C778 C781 1.387 . S
H779 C775 0.950 . S
H780 C777 0.950 . S
C781 C772 1.390 1_565 S
C781 H774 0.950 . S
C781 C778 1.387 . S
C782 C783 1.387 . S
C782 H786 0.950 . S
C782 C791 1.390 . S
C783 C782 1.387 . S
C783 C785 1.387 . S
H784 C791 0.950 . S
C785 C783 1.387 . S
C785 C787 1.390 . S
C785 H789 0.950 . S
H786 C782 0.950 . S
C787 C785 1.390 . S
C787 C788 1.387 . S
C787 H790 0.950 . S
C788 C787 1.387 . S
C788 C791 1.387 . S
H789 C785 0.950 . S
H790 C787 0.950 . S
C791 C782 1.390 . S
C791 H784 0.950 . S
C791 C788 1.387 . S
C792 C793 1.387 . S
C792 H796 0.950 . S
C792 C801 1.390 1_545 S
C793 C792 1.387 . S
C793 C795 1.387 . S
H794 C801 0.950 . S
C795 C793 1.387 . S
C795 C797 1.390 1_545 S
C795 H799 0.950 . S
H796 C792 0.950 . S
C797 C795 1.390 1_565 S
C797 C798 1.387 . S
C797 H800 0.950 . S
C798 C797 1.387 . S
C798 C801 1.387 . S
H799 C795 0.950 . S
H800 C797 0.950 . S
C801 C792 1.390 1_565 S
C801 H794 0.950 . S
C801 C798 1.387 . S
C802 C803 1.387 . S
C802 H806 0.950 . S
C802 C811 1.390 . S
C803 C802 1.387 . S
C803 C805 1.387 . S
H804 C811 0.950 . S
C805 C803 1.387 . S
C805 C807 1.390 . S
C805 H809 0.950 . S
H806 C802 0.950 . S
C807 C805 1.390 . S
C807 C808 1.387 . S
C807 H810 0.950 . S
C808 C807 1.387 . S
C808 C811 1.387 . S
H809 C805 0.950 . S
H810 C807 0.950 . S
C811 C802 1.390 . S
C811 H804 0.950 . S
C811 C808 1.387 . S
C812 C813 1.387 . S
C812 H816 0.950 . S
C812 C821 1.390 1_545 S
C813 C812 1.387 . S
C813 C815 1.387 . S
H814 C821 0.950 . S
C815 C813 1.387 . S
C815 C817 1.390 1_545 S
C815 H819 0.950 . S
H816 C812 0.950 . S
C817 C815 1.390 1_565 S
C817 C818 1.387 . S
C817 H820 0.950 . S
C818 C817 1.387 . S
C818 C821 1.387 . S
H819 C815 0.950 . S
H820 C817 0.950 . S
C821 C812 1.390 1_565 S
C821 H814 0.950 . S
C821 C818 1.387 . S
C822 C823 1.387 . S
C822 H826 0.950 . S
C822 C831 1.390 . S
C823 C822 1.387 . S
C823 C825 1.387 . S
H824 C831 0.950 . S
C825 C823 1.387 . S
C825 C827 1.390 . S
C825 H829 0.950 . S
H826 C822 0.950 . S
C827 C825 1.390 . S
C827 C828 1.387 . S
C827 H830 0.950 . S
C828 C827 1.387 . S
C828 C831 1.387 . S
H829 C825 0.950 . S
H830 C827 0.950 . S
C831 C822 1.390 . S
C831 H824 0.950 . S
C831 C828 1.387 . S
C832 C833 1.387 . S
C832 H836 0.950 . S
C832 C841 1.390 1_554 S
C833 C832 1.387 . S
C833 C835 1.387 . S
H834 C841 0.950 . S
C835 C833 1.387 . S
C835 C837 1.390 1_554 S
C835 H839 0.950 . S
H836 C832 0.950 . S
C837 C835 1.390 1_556 S
C837 C838 1.387 . S
C837 H840 0.950 . S
C838 C837 1.387 . S
C838 C841 1.387 . S
H839 C835 0.950 . S
H840 C837 0.950 . S
C841 C832 1.390 1_556 S
C841 H834 0.950 . S
C841 C838 1.387 . S
C842 C843 1.387 . S
C842 H846 0.950 . S
C842 C851 1.390 1_554 S
C843 C842 1.387 . S
C843 C845 1.387 . S
H844 C851 0.950 . S
C845 C843 1.387 . S
C845 C847 1.390 1_554 S
C845 H849 0.950 . S
H846 C842 0.950 . S
C847 C845 1.390 1_556 S
C847 C848 1.387 . S
C847 H850 0.950 . S
C848 C847 1.387 . S
C848 C851 1.387 . S
H849 C845 0.950 . S
H850 C847 0.950 . S
C851 C842 1.390 1_556 S
C851 H844 0.950 . S
C851 C848 1.387 . S
C852 C853 1.387 . S
C852 H856 0.950 . S
C852 C861 1.390 . S
C853 C852 1.387 . S
C853 C855 1.387 . S
H854 C861 0.950 . S
C855 C853 1.387 . S
C855 C857 1.390 . S
C855 H859 0.950 . S
H856 C852 0.950 . S
C857 C855 1.390 . S
C857 C858 1.387 . S
C857 H860 0.950 . S
C858 C857 1.387 . S
C858 C861 1.387 . S
H859 C855 0.950 . S
H860 C857 0.950 . S
C861 C852 1.390 . S
C861 H854 0.950 . S
C861 C858 1.387 . S
C862 C863 1.387 . S
C862 H866 0.950 . S
C862 C871 1.390 1_554 S
C863 C862 1.387 . S
C863 C865 1.387 . S
H864 C871 0.950 . S
C865 C863 1.387 . S
C865 C867 1.390 1_554 S
C865 H869 0.950 . S
H866 C862 0.950 . S
C867 C865 1.390 1_556 S
C867 C868 1.387 . S
C867 H870 0.950 . S
C868 C867 1.387 . S
C868 C871 1.387 . S
H869 C865 0.950 . S
H870 C867 0.950 . S
C871 C862 1.390 1_556 S
C871 H864 0.950 . S
C871 C868 1.387 . S
C872 C873 1.387 . S
C872 H876 0.950 . S
C872 C881 1.390 . S
C873 C872 1.387 . S
C873 C875 1.387 . S
H874 C881 0.950 . S
C875 C873 1.387 . S
C875 C877 1.390 . S
C875 H879 0.950 . S
H876 C872 0.950 . S
C877 C875 1.390 . S
C877 C878 1.387 . S
C877 H880 0.950 . S
C878 C877 1.387 . S
C878 C881 1.387 . S
H879 C875 0.950 . S
H880 C877 0.950 . S
C881 C872 1.390 . S
C881 H874 0.950 . S
C881 C878 1.387 . S
C882 C883 1.387 . S
C882 H886 0.950 . S
C882 C891 1.390 1_554 S
C883 C882 1.387 . S
C883 C885 1.387 . S
H884 C891 0.950 . S
C885 C883 1.387 . S
C885 C887 1.390 1_554 S
C885 H889 0.950 . S
H886 C882 0.950 . S
C887 C885 1.390 1_556 S
C887 C888 1.387 . S
C887 H890 0.950 . S
C888 C887 1.387 . S
C888 C891 1.387 . S
H889 C885 0.950 . S
H890 C887 0.950 . S
C891 C882 1.390 1_556 S
C891 H884 0.950 . S
C891 C888 1.387 . S
C892 C893 1.387 . S
C892 H896 0.950 . S
C892 C901 1.390 . S
C893 C892 1.387 . S
C893 C895 1.387 . S
H894 C901 0.950 . S
C895 C893 1.387 . S
C895 C897 1.390 . S
C895 H899 0.950 . S
H896 C892 0.950 . S
C897 C895 1.390 . S
C897 C898 1.387 . S
C897 H900 0.950 . S
C898 C897 1.387 . S
C898 C901 1.387 . S
H899 C895 0.950 . S
H900 C897 0.950 . S
C901 C892 1.390 . S
C901 H894 0.950 . S
C901 C898 1.387 . S
C902 C903 1.387 . S
C902 H906 0.950 . S
C902 C911 1.390 . S
C903 C902 1.387 . S
C903 C905 1.387 . S
H904 C911 0.950 . S
C905 C903 1.387 . S
C905 C907 1.390 . S
C905 H909 0.950 . S
H906 C902 0.950 . S
C907 C905 1.390 . S
C907 C908 1.387 . S
C907 H910 0.950 . S
C908 C907 1.387 . S
C908 C911 1.387 . S
H909 C905 0.950 . S
H910 C907 0.950 . S
C911 C902 1.390 . S
C911 H904 0.950 . S
C911 C908 1.387 . S
C912 C913 1.387 . S
C912 H916 0.950 . S
C912 C921 1.390 . S
C913 C912 1.387 . S
C913 C915 1.387 . S
H914 C921 0.950 . S
C915 C913 1.387 . S
C915 C917 1.390 . S
C915 H919 0.950 . S
H916 C912 0.950 . S
C917 C915 1.390 . S
C917 C918 1.387 . S
C917 H920 0.950 . S
C918 C917 1.387 . S
C918 C921 1.387 . S
H919 C915 0.950 . S
H920 C917 0.950 . S
C921 C912 1.390 . S
C921 H914 0.950 . S
C921 C918 1.387 . S
C922 C923 1.387 . S
C922 H926 0.950 . S
C922 C931 1.390 . S
C923 C922 1.387 . S
C923 C925 1.387 . S
H924 C931 0.950 . S
C925 C923 1.387 . S
C925 C927 1.390 . S
C925 H929 0.950 . S
H926 C922 0.950 . S
C927 C925 1.390 . S
C927 C928 1.387 . S
C927 H930 0.950 . S
C928 C927 1.387 . S
C928 C931 1.387 . S
H929 C925 0.950 . S
H930 C927 0.950 . S
C931 C922 1.390 . S
C931 H924 0.950 . S
C931 C928 1.387 . S
C932 C933 1.387 . S
C932 H936 0.950 . S
C932 C941 1.390 . S
C933 C932 1.387 . S
C933 C935 1.387 . S
H934 C941 0.950 . S
C935 C933 1.387 . S
C935 C937 1.390 . S
C935 H939 0.950 . S
H936 C932 0.950 . S
C937 C935 1.390 . S
C937 C938 1.387 . S
C937 H940 0.950 . S
C938 C937 1.387 . S
C938 C941 1.387 . S
H939 C935 0.950 . S
H940 C937 0.950 . S
C941 C932 1.390 . S
C941 H934 0.950 . S
C941 C938 1.387 . S
C942 C943 1.387 . S
C942 H946 0.950 . S
C942 C951 1.390 . S
C943 C942 1.387 . S
C943 C945 1.387 . S
H944 C951 0.950 . S
C945 C943 1.387 . S
C945 C947 1.390 . S
C945 H949 0.950 . S
H946 C942 0.950 . S
C947 C945 1.390 . S
C947 C948 1.387 . S
C947 H950 0.950 . S
C948 C947 1.387 . S
C948 C951 1.387 . S
H949 C945 0.950 . S
H950 C947 0.950 . S
C951 C942 1.390 . S
C951 H944 0.950 . S
C951 C948 1.387 . S
C952 C953 1.387 . S
C952 H956 0.950 . S
C952 C961 1.390 . S
C953 C952 1.387 . S
C953 C955 1.387 . S
H954 C961 0.950 . S
C955 C953 1.387 . S
C955 C957 1.390 . S
C955 H959 0.950 . S
H956 C952 0.950 . S
C957 C955 1.390 . S
C957 C958 1.387 . S
C957 H960 0.950 . S
C958 C957 1.387 . S
C958 C961 1.387 . S
H959 C955 0.950 . S
H960 C957 0.950 . S
C961 C952 1.390 . S
C961 H954 0.950 . S
C961 C958 1.387 . S
C962 C963 1.387 . S
C962 H966 0.950 . S
C962 C971 1.390 . S
C963 C962 1.387 . S
C963 C965 1.387 . S
H964 C971 0.950 . S
C965 C963 1.387 . S
C965 C967 1.390 . S
C965 H969 0.950 . S
H966 C962 0.950 . S
C967 C965 1.390 . S
C967 C968 1.387 . S
C967 H970 0.950 . S
C968 C967 1.387 . S
C968 C971 1.387 . S
H969 C965 0.950 . S
H970 C967 0.950 . S
C971 C962 1.390 . S
C971 H964 0.950 . S
C971 C968 1.387 . S
C972 C973 1.387 . S
C972 H976 0.950 . S
C972 C981 1.390 . S
C973 C972 1.387 . S
C973 C975 1.387 . S
H974 C981 0.950 . S
C975 C973 1.387 . S
C975 C977 1.390 . S
C975 H979 0.950 . S
H976 C972 0.950 . S
C977 C975 1.390 . S
C977 C978 1.387 . S
C977 H980 0.950 . S
C978 C977 1.387 . S
C978 C981 1.387 . S
H979 C975 0.950 . S
H980 C977 0.950 . S
C981 C972 1.390 . S
C981 H974 0.950 . S
C981 C978 1.387 . S
C982 C983 1.387 . S
C982 H986 0.950 . S
C982 C991 1.390 . S
C983 C982 1.387 . S
C983 C985 1.387 . S
H984 C991 0.950 . S
C985 C983 1.387 . S
C985 C987 1.390 . S
C985 H989 0.950 . S
H986 C982 0.950 . S
C987 C985 1.390 . S
C987 C988 1.387 . S
C987 H990 0.950 . S
C988 C987 1.387 . S
C988 C991 1.387 . S
H989 C985 0.950 . S
H990 C987 0.950 . S
C991 C982 1.390 . S
C991 H984 0.950 . S
C991 C988 1.387 . S
C992 C993 1.387 . S
C992 H996 0.950 . S
C992 C1001 1.390 . S
C993 C992 1.387 . S
C993 C995 1.387 . S
H994 C1001 0.950 . S
C995 C993 1.387 . S
C995 C997 1.390 . S
C995 H999 0.950 . S
H996 C992 0.950 . S
C997 C995 1.390 . S
C997 C998 1.387 . S
C997 H1000 0.950 . S
C998 C997 1.387 . S
C998 C1001 1.387 . S
H999 C995 0.950 . S
H1000 C997 0.950 . S
C1001 C992 1.390 . S
C1001 H994 0.950 . S
C1001 C998 1.387 . S
C1002 C1003 1.387 . S
C1002 H1006 0.950 . S
C1002 C1011 1.390 . S
C1003 C1002 1.387 . S
C1003 C1005 1.387 . S
H1004 C1011 0.950 . S
C1005 C1003 1.387 . S
C1005 C1007 1.390 . S
C1005 H1009 0.950 . S
H1006 C1002 0.950 . S
C1007 C1005 1.390 . S
C1007 C1008 1.387 . S
C1007 H1010 0.950 . S
C1008 C1007 1.387 . S
C1008 C1011 1.387 . S
H1009 C1005 0.950 . S
H1010 C1007 0.950 . S
C1011 C1002 1.390 . S
C1011 H1004 0.950 . S
C1011 C1008 1.387 . S
C1012 C1013 1.387 . S
C1012 H1016 0.950 . S
C1012 C1021 1.390 . S
C1013 C1012 1.387 . S
C1013 C1015 1.387 . S
H1014 C1021 0.950 . S
C1015 C1013 1.387 . S
C1015 C1017 1.390 . S
C1015 H1019 0.950 . S
H1016 C1012 0.950 . S
C1017 C1015 1.390 . S
C1017 C1018 1.387 . S
C1017 H1020 0.950 . S
C1018 C1017 1.387 . S
C1018 C1021 1.387 . S
H1019 C1015 0.950 . S
H1020 C1017 0.950 . S
C1021 C1012 1.390 . S
C1021 H1014 0.950 . S
C1021 C1018 1.387 . S
C1022 C1023 1.387 . S
C1022 H1026 0.950 . S
C1022 C1031 1.390 . S
C1023 C1022 1.387 . S
C1023 C1025 1.387 . S
H1024 C1031 0.950 . S
C1025 C1023 1.387 . S
C1025 C1027 1.390 . S
C1025 H1029 0.950 . S
H1026 C1022 0.950 . S
C1027 C1025 1.390 . S
C1027 C1028 1.387 . S
C1027 H1030 0.950 . S
C1028 C1027 1.387 . S
C1028 C1031 1.387 . S
H1029 C1025 0.950 . S
H1030 C1027 0.950 . S
C1031 C1022 1.390 . S
C1031 H1024 0.950 . S
C1031 C1028 1.387 . S
C1032 C1033 1.387 . S
C1032 H1036 0.950 . S
C1032 C1041 1.390 . S
C1033 C1032 1.387 . S
C1033 C1035 1.387 . S
H1034 C1041 0.950 . S
C1035 C1033 1.387 . S
C1035 C1037 1.390 . S
C1035 H1039 0.950 . S
H1036 C1032 0.950 . S
C1037 C1035 1.390 . S
C1037 C1038 1.387 . S
C1037 H1040 0.950 . S
C1038 C1037 1.387 . S
C1038 C1041 1.387 . S
H1039 C1035 0.950 . S
H1040 C1037 0.950 . S
C1041 C1032 1.390 . S
C1041 H1034 0.950 . S
C1041 C1038 1.387 . S
C1042 C1043 1.387 . S
C1042 H1046 0.950 . S
C1042 C1051 1.390 . S
C1043 C1042 1.387 . S
C1043 C1045 1.387 . S
H1044 C1051 0.950 . S
C1045 C1043 1.387 . S
C1045 C1047 1.390 . S
C1045 H1049 0.950 . S
H1046 C1042 0.950 . S
C1047 C1045 1.390 . S
C1047 C1048 1.387 . S
C1047 H1050 0.950 . S
C1048 C1047 1.387 . S
C1048 C1051 1.387 . S
H1049 C1045 0.950 . S
H1050 C1047 0.950 . S
C1051 C1042 1.390 . S
C1051 H1044 0.950 . S
C1051 C1048 1.387 . S
C1052 C1053 1.387 . S
C1052 H1056 0.950 . S
C1052 C1061 1.390 . S
C1053 C1052 1.387 . S
C1053 C1055 1.387 . S
H1054 C1061 0.950 . S
C1055 C1053 1.387 . S
C1055 C1057 1.390 . S
C1055 H1059 0.950 . S
H1056 C1052 0.950 . S
C1057 C1055 1.390 . S
C1057 C1058 1.387 . S
C1057 H1060 0.950 . S
C1058 C1057 1.387 . S
C1058 C1061 1.387 . S
H1059 C1055 0.950 . S
H1060 C1057 0.950 . S
C1061 C1052 1.390 . S
C1061 H1054 0.950 . S
C1061 C1058 1.387 . S
C1062 C1063 1.387 . S
C1062 H1066 0.950 . S
C1062 C1071 1.390 . S
C1063 C1062 1.387 . S
C1063 C1065 1.387 . S
H1064 C1071 0.950 . S
C1065 C1063 1.387 . S
C1065 C1067 1.390 . S
C1065 H1069 0.950 . S
H1066 C1062 0.950 . S
C1067 C1065 1.390 . S
C1067 C1068 1.387 . S
C1067 H1070 0.950 . S
C1068 C1067 1.387 . S
C1068 C1071 1.387 . S
H1069 C1065 0.950 . S
H1070 C1067 0.950 . S
C1071 C1062 1.390 . S
C1071 H1064 0.950 . S
C1071 C1068 1.387 . S
C1072 C1073 1.387 . S
C1072 H1076 0.950 . S
C1072 C1081 1.390 . S
C1073 C1072 1.387 . S
C1073 C1075 1.387 . S
H1074 C1081 0.950 . S
C1075 C1073 1.387 . S
C1075 C1077 1.390 . S
C1075 H1079 0.950 . S
H1076 C1072 0.950 . S
C1077 C1075 1.390 . S
C1077 C1078 1.387 . S
C1077 H1080 0.950 . S
C1078 C1077 1.387 . S
C1078 C1081 1.387 . S
H1079 C1075 0.950 . S
H1080 C1077 0.950 . S
C1081 C1072 1.390 . S
C1081 H1074 0.950 . S
C1081 C1078 1.387 . S
C1082 C1083 1.387 . S
C1082 H1086 0.950 . S
C1082 C1091 1.390 . S
C1083 C1082 1.387 . S
C1083 C1085 1.387 . S
H1084 C1091 0.950 . S
C1085 C1083 1.387 . S
C1085 C1087 1.390 . S
C1085 H1089 0.950 . S
H1086 C1082 0.950 . S
C1087 C1085 1.390 . S
C1087 C1088 1.387 . S
C1087 H1090 0.950 . S
C1088 C1087 1.387 . S
C1088 C1091 1.387 . S
H1089 C1085 0.950 . S
H1090 C1087 0.950 . S
C1091 C1082 1.390 . S
C1091 H1084 0.950 . S
C1091 C1088 1.387 . S
C1092 C1093 1.387 . S
C1092 H1096 0.950 . S
C1092 C1101 1.390 . S
C1093 C1092 1.387 . S
C1093 C1095 1.387 . S
H1094 C1101 0.950 . S
C1095 C1093 1.387 . S
C1095 C1097 1.390 . S
C1095 H1099 0.950 . S
H1096 C1092 0.950 . S
C1097 C1095 1.390 . S
C1097 C1098 1.387 . S
C1097 H1100 0.950 . S
C1098 C1097 1.387 . S
C1098 C1101 1.387 . S
H1099 C1095 0.950 . S
H1100 C1097 0.950 . S
C1101 C1092 1.390 . S
C1101 H1094 0.950 . S
C1101 C1098 1.387 . S
C1102 C1103 1.387 . S
C1102 H1106 0.950 . S
C1102 C1111 1.390 . S
C1103 C1102 1.387 . S
C1103 C1105 1.387 . S
H1104 C1111 0.950 . S
C1105 C1103 1.387 . S
C1105 C1107 1.390 . S
C1105 H1109 0.950 . S
H1106 C1102 0.950 . S
C1107 C1105 1.390 . S
C1107 C1108 1.387 . S
C1107 H1110 0.950 . S
C1108 C1107 1.387 . S
C1108 C1111 1.387 . S
H1109 C1105 0.950 . S
H1110 C1107 0.950 . S
C1111 C1102 1.390 . S
C1111 H1104 0.950 . S
C1111 C1108 1.387 . S
C1112 C1113 1.387 . S
C1112 H1116 0.950 . S
C1112 C1121 1.390 . S
C1113 C1112 1.387 . S
C1113 C1115 1.387 . S
H1114 C1121 0.950 . S
C1115 C1113 1.387 . S
C1115 C1117 1.390 . S
C1115 H1119 0.950 . S
H1116 C1112 0.950 . S
C1117 C1115 1.390 . S
C1117 C1118 1.387 . S
C1117 H1120 0.950 . S
C1118 C1117 1.387 . S
C1118 C1121 1.387 . S
H1119 C1115 0.950 . S
H1120 C1117 0.950 . S
C1121 C1112 1.390 . S
C1121 H1114 0.950 . S
C1121 C1118 1.387 . S
C1122 C1123 1.387 . S
C1122 H1126 0.950 . S
C1122 C1131 1.390 . S
C1123 C1122 1.387 . S
C1123 C1125 1.387 . S
H1124 C1131 0.950 . S
C1125 C1123 1.387 . S
C1125 C1127 1.390 . S
C1125 H1129 0.950 . S
H1126 C1122 0.950 . S
C1127 C1125 1.390 . S
C1127 C1128 1.387 . S
C1127 H1130 0.950 . S
C1128 C1127 1.387 . S
C1128 C1131 1.387 . S
H1129 C1125 0.950 . S
H1130 C1127 0.950 . S
C1131 C1122 1.390 . S
C1131 H1124 0.950 . S
C1131 C1128 1.387 . S
C1132 C1133 1.387 . S
C1132 H1136 0.950 . S
C1132 C1141 1.390 . S
C1133 C1132 1.387 . S
C1133 C1135 1.387 . S
H1134 C1141 0.950 . S
C1135 C1133 1.387 . S
C1135 C1137 1.390 . S
C1135 H1139 0.950 . S
H1136 C1132 0.950 . S
C1137 C1135 1.390 . S
C1137 C1138 1.387 . S
C1137 H1140 0.950 . S
C1138 C1137 1.387 . S
C1138 C1141 1.387 . S
H1139 C1135 0.950 . S
H1140 C1137 0.950 . S
C1141 C1132 1.390 . S
C1141 H1134 0.950 . S
C1141 C1138 1.387 . S
C1142 C1143 1.387 . S
C1142 H1146 0.950 . S
C1142 C1151 1.390 . S
C1143 C1142 1.387 . S
C1143 C1145 1.387 . S
H1144 C1151 0.950 . S
C1145 C1143 1.387 . S
C1145 C1147 1.390 . S
C1145 H1149 0.950 . S
H1146 C1142 0.950 . S
C1147 C1145 1.390 . S
C1147 C1148 1.387 . S
C1147 H1150 0.950 . S
C1148 C1147 1.387 . S
C1148 C1151 1.387 . S
H1149 C1145 0.950 . S
H1150 C1147 0.950 . S
C1151 C1142 1.390 . S
C1151 H1144 0.950 . S
C1151 C1148 1.387 . S
C1152 C1153 1.387 . S
C1152 H1156 0.950 . S
C1152 C1161 1.390 . S
C1153 C1152 1.387 . S
C1153 C1155 1.387 . S
H1154 C1161 0.950 . S
C1155 C1153 1.387 . S
C1155 C1157 1.390 . S
C1155 H1159 0.950 . S
H1156 C1152 0.950 . S
C1157 C1155 1.390 . S
C1157 C1158 1.387 . S
C1157 H1160 0.950 . S
C1158 C1157 1.387 . S
C1158 C1161 1.387 . S
H1159 C1155 0.950 . S
H1160 C1157 0.950 . S
C1161 C1152 1.390 . S
C1161 H1154 0.950 . S
C1161 C1158 1.387 . S
C1162 C1163 1.387 . S
C1162 H1166 0.950 . S
C1162 C1171 1.390 . S
C1163 C1162 1.387 . S
C1163 C1165 1.387 . S
H1164 C1171 0.950 . S
C1165 C1163 1.387 . S
C1165 C1167 1.390 . S
C1165 H1169 0.950 . S
H1166 C1162 0.950 . S
C1167 C1165 1.390 . S
C1167 C1168 1.387 . S
C1167 H1170 0.950 . S
C1168 C1167 1.387 . S
C1168 C1171 1.387 . S
H1169 C1165 0.950 . S
H1170 C1167 0.950 . S
C1171 C1162 1.390 . S
C1171 H1164 0.950 . S
C1171 C1168 1.387 . S
C1172 C1173 1.387 . S
C1172 H1176 0.950 . S
C1172 C1181 1.390 . S
C1173 C1172 1.387 . S
C1173 C1175 1.387 . S
H1174 C1181 0.950 . S
C1175 C1173 1.387 . S
C1175 C1177 1.390 . S
C1175 H1179 0.950 . S
H1176 C1172 0.950 . S
C1177 C1175 1.390 . S
C1177 C1178 1.387 . S
C1177 H1180 0.950 . S
C1178 C1177 1.387 . S
C1178 C1181 1.387 . S
H1179 C1175 0.950 . S
H1180 C1177 0.950 . S
C1181 C1172 1.390 . S
C1181 H1174 0.950 . S
C1181 C1178 1.387 . S
C1182 C1183 1.387 . S
C1182 H1186 0.950 . S
C1182 C1191 1.390 . S
C1183 C1182 1.387 . S
C1183 C1185 1.387 . S
H1184 C1191 0.950 . S
C1185 C1183 1.387 . S
C1185 C1187 1.390 . S
C1185 H1189 0.950 . S
H1186 C1182 0.950 . S
C1187 C1185 1.390 . S
C1187 C1188 1.387 . S
C1187 H1190 0.950 . S
C1188 C1187 1.387 . S
C1188 C1191 1.387 . S
H1189 C1185 0.950 . S
H1190 C1187 0.950 . S
C1191 C1182 1.390 . S
C1191 H1184 0.950 . S
C1191 C1188 1.387 . S
C1192 C1193 1.387 . S
C1192 H1196 0.950 . S
C1192 C1201 1.390 . S
C1193 C1192 1.387 . S
C1193 C1195 1.387 . S
H1194 C1201 0.950 . S
C1195 C1193 1.387 . S
C1195 C1197 1.390 . S
C1195 H1199 0.950 . S
H1196 C1192 0.950 . S
C1197 C1195 1.390 . S
C1197 C1198 1.387 . S
C1197 H1200 0.950 . S
C1198 C1197 1.387 . S
C1198 C1201 1.387 . S
H1199 C1195 0.950 . S
H1200 C1197 0.950 . S
C1201 C1192 1.390 . S
C1201 H1194 0.950 . S
C1201 C1198 1.387 . S
C1202 C1203 1.387 . S
C1202 H1206 0.950 . S
C1202 C1211 1.390 . S
C1203 C1202 1.387 . S
C1203 C1205 1.387 . S
H1204 C1211 0.950 . S
C1205 C1203 1.387 . S
C1205 C1207 1.390 . S
C1205 H1209 0.950 . S
H1206 C1202 0.950 . S
C1207 C1205 1.390 . S
C1207 C1208 1.387 . S
C1207 H1210 0.950 . S
C1208 C1207 1.387 . S
C1208 C1211 1.387 . S
H1209 C1205 0.950 . S
H1210 C1207 0.950 . S
C1211 C1202 1.390 . S
C1211 H1204 0.950 . S
C1211 C1208 1.387 . S
C1212 C1213 1.387 . S
C1212 H1216 0.950 . S
C1212 C1221 1.390 . S
C1213 C1212 1.387 . S
C1213 C1215 1.387 . S
H1214 C1221 0.950 . S
C1215 C1213 1.387 . S
C1215 C1217 1.390 . S
C1215 H1219 0.950 . S
H1216 C1212 0.950 . S
C1217 C1215 1.390 . S
C1217 C1218 1.387 . S
C1217 H1220 0.950 . S
C1218 C1217 1.387 . S
C1218 C1221 1.387 . S
H1219 C1215 0.950 . S
H1220 C1217 0.950 . S
C1221 C1212 1.390 . S
C1221 H1214 0.950 . S
C1221 C1218 1.387 . S
C1222 C1223 1.387 . S
C1222 H1226 0.950 . S
C1222 C1231 1.390 . S
C1223 C1222 1.387 . S
C1223 C1225 1.387 . S
H1224 C1231 0.950 . S
C1225 C1223 1.387 . S
C1225 C1227 1.390 . S
C1225 H1229 0.950 . S
H1226 C1222 0.950 . S
C1227 C1225 1.390 . S
C1227 C1228 1.387 . S
C1227 H1230 0.950 . S
C1228 C1227 1.387 . S
C1228 C1231 1.387 . S
H1229 C1225 0.950 . S
H1230 C1227 0.950 . S
C1231 C1222 1.390 . S
C1231 H1224 0.950 . S
C1231 C1228 1.387 . S
C1232 C1233 1.387 . S
C1232 H1236 0.950 . S
C1232 C1241 1.390 . S
C1233 C1232 1.387 . S
C1233 C1235 1.387 . S
H1234 C1241 0.950 . S
C1235 C1233 1.387 . S
C1235 C1237 1.390 . S
C1235 H1239 0.950 . S
H1236 C1232 0.950 . S
C1237 C1235 1.390 . S
C1237 C1238 1.387 . S
C1237 H1240 0.950 . S
C1238 C1237 1.387 . S
C1238 C1241 1.387 . S
H1239 C1235 0.950 . S
H1240 C1237 0.950 . S
C1241 C1232 1.390 . S
C1241 H1234 0.950 . S
C1241 C1238 1.387 . S
C1242 C1243 1.387 . S
C1242 H1246 0.950 . S
C1242 C1251 1.390 . S
C1243 C1242 1.387 . S
C1243 C1245 1.387 . S
H1244 C1251 0.950 . S
C1245 C1243 1.387 . S
C1245 C1247 1.390 . S
C1245 H1249 0.950 . S
H1246 C1242 0.950 . S
C1247 C1245 1.390 . S
C1247 C1248 1.387 . S
C1247 H1250 0.950 . S
C1248 C1247 1.387 . S
C1248 C1251 1.387 . S
H1249 C1245 0.950 . S
H1250 C1247 0.950 . S
C1251 C1242 1.390 . S
C1251 H1244 0.950 . S
C1251 C1248 1.387 . S
C1252 C1253 1.387 . S
C1252 H1256 0.950 . S
C1252 C1261 1.390 . S
C1253 C1252 1.387 . S
C1253 C1255 1.387 . S
H1254 C1261 0.950 . S
C1255 C1253 1.387 . S
C1255 C1257 1.390 . S
C1255 H1259 0.950 . S
H1256 C1252 0.950 . S
C1257 C1255 1.390 . S
C1257 C1258 1.387 . S
C1257 H1260 0.950 . S
C1258 C1257 1.387 . S
C1258 C1261 1.387 . S
H1259 C1255 0.950 . S
H1260 C1257 0.950 . S
C1261 C1252 1.390 . S
C1261 H1254 0.950 . S
C1261 C1258 1.387 . S
C1262 C1263 1.387 . S
C1262 H1266 0.950 . S
C1262 C1271 1.390 . S
C1263 C1262 1.387 . S
C1263 C1265 1.387 . S
H1264 C1271 0.950 . S
C1265 C1263 1.387 . S
C1265 C1267 1.390 . S
C1265 H1269 0.950 . S
H1266 C1262 0.950 . S
C1267 C1265 1.390 . S
C1267 C1268 1.387 . S
C1267 H1270 0.950 . S
C1268 C1267 1.387 . S
C1268 C1271 1.387 . S
H1269 C1265 0.950 . S
H1270 C1267 0.950 . S
C1271 C1262 1.390 . S
C1271 H1264 0.950 . S
C1271 C1268 1.387 . S
C1272 C1273 1.387 . S
C1272 H1276 0.950 . S
C1272 C1281 1.390 . S
C1273 C1272 1.387 . S
C1273 C1275 1.387 . S
H1274 C1281 0.950 . S
C1275 C1273 1.387 . S
C1275 C1277 1.390 . S
C1275 H1279 0.950 . S
H1276 C1272 0.950 . S
C1277 C1275 1.390 . S
C1277 C1278 1.387 . S
C1277 H1280 0.950 . S
C1278 C1277 1.387 . S
C1278 C1281 1.387 . S
H1279 C1275 0.950 . S
H1280 C1277 0.950 . S
C1281 C1272 1.390 . S
C1281 H1274 0.950 . S
C1281 C1278 1.387 . S
C1282 C1283 1.387 . S
C1282 H1286 0.950 . S
C1282 C1291 1.390 . S
C1283 C1282 1.387 . S
C1283 C1285 1.387 . S
H1284 C1291 0.950 . S
C1285 C1283 1.387 . S
C1285 C1287 1.390 . S
C1285 H1289 0.950 . S
H1286 C1282 0.950 . S
C1287 C1285 1.390 . S
C1287 C1288 1.387 . S
C1287 H1290 0.950 . S
C1288 C1287 1.387 . S
C1288 C1291 1.387 . S
H1289 C1285 0.950 . S
H1290 C1287 0.950 . S
C1291 C1282 1.390 . S
C1291 H1284 0.950 . S
C1291 C1288 1.387 . S
C1292 C1293 1.387 . S
C1292 H1296 0.950 . S
C1292 C1301 1.390 . S
C1293 C1292 1.387 . S
C1293 C1295 1.387 . S
H1294 C1301 0.950 . S
C1295 C1293 1.387 . S
C1295 C1297 1.390 . S
C1295 H1299 0.950 . S
H1296 C1292 0.950 . S
C1297 C1295 1.390 . S
C1297 C1298 1.387 . S
C1297 H1300 0.950 . S
C1298 C1297 1.387 . S
C1298 C1301 1.387 . S
H1299 C1295 0.950 . S
H1300 C1297 0.950 . S
C1301 C1292 1.390 . S
C1301 H1294 0.950 . S
C1301 C1298 1.387 . S
C1302 C1303 1.387 . S
C1302 H1306 0.950 . S
C1302 C1311 1.390 . S
C1303 C1302 1.387 . S
C1303 C1305 1.387 . S
H1304 C1311 0.950 . S
C1305 C1303 1.387 . S
C1305 C1307 1.390 . S
C1305 H1309 0.950 . S
H1306 C1302 0.950 . S
C1307 C1305 1.390 . S
C1307 C1308 1.387 . S
C1307 H1310 0.950 . S
C1308 C1307 1.387 . S
C1308 C1311 1.387 . S
H1309 C1305 0.950 . S
H1310 C1307 0.950 . S
C1311 C1302 1.390 . S
C1311 H1304 0.950 . S
C1311 C1308 1.387 . S
C1312 C1313 1.387 . S
C1312 H1316 0.950 . S
C1312 C1321 1.390 . S
C1313 C1312 1.387 . S
C1313 C1315 1.387 . S
H1314 C1321 0.950 . S
C1315 C1313 1.387 . S
C1315 C1317 1.390 . S
C1315 H1319 0.950 . S
H1316 C1312 0.950 . S
C1317 C1315 1.390 . S
C1317 C1318 1.387 . S
C1317 H1320 0.950 . S
C1318 C1317 1.387 . S
C1318 C1321 1.387 . S
H1319 C1315 0.950 . S
H1320 C1317 0.950 . S
C1321 C1312 1.390 . S
C1321 H1314 0.950 . S
C1321 C1318 1.387 . S
C1322 C1323 1.387 . S
C1322 H1326 0.950 . S
C1322 C1331 1.390 . S
C1323 C1322 1.387 . S
C1323 C1325 1.387 . S
H1324 C1331 0.950 . S
C1325 C1323 1.387 . S
C1325 C1327 1.390 . S
C1325 H1329 0.950 . S
H1326 C1322 0.950 . S
C1327 C1325 1.390 . S
C1327 C1328 1.387 . S
C1327 H1330 0.950 . S
C1328 C1327 1.387 . S
C1328 C1331 1.387 . S
H1329 C1325 0.950 . S
H1330 C1327 0.950 . S
C1331 C1322 1.390 . S
C1331 H1324 0.950 . S
C1331 C1328 1.387 . S
C1332 C1333 1.387 . S
C1332 H1336 0.950 . S
C1332 C1341 1.390 . S
C1333 C1332 1.387 . S
C1333 C1335 1.387 . S
H1334 C1341 0.950 . S
C1335 C1333 1.387 . S
C1335 C1337 1.390 . S
C1335 H1339 0.950 . S
H1336 C1332 0.950 . S
C1337 C1335 1.390 . S
C1337 C1338 1.387 . S
C1337 H1340 0.950 . S
C1338 C1337 1.387 . S
C1338 C1341 1.387 . S
H1339 C1335 0.950 . S
H1340 C1337 0.950 . S
C1341 C1332 1.390 . S
C1341 H1334 0.950 . S
C1341 C1338 1.387 . S
C1342 C1343 1.387 . S
C1342 H1346 0.950 . S
C1342 C1351 1.390 . S
C1343 C1342 1.387 . S
C1343 C1345 1.387 . S
H1344 C1351 0.950 . S
C1345 C1343 1.387 . S
C1345 C1347 1.390 . S
C1345 H1349 0.950 . S
H1346 C1342 0.950 . S
C1347 C1345 1.390 . S
C1347 C1348 1.387 . S
C1347 H1350 0.950 . S
C1348 C1347 1.387 . S
C1348 C1351 1.387 . S
H1349 C1345 0.950 . S
H1350 C1347 0.950 . S
C1351 C1342 1.390 . S
C1351 H1344 0.950 . S
C1351 C1348 1.387 . S
C1352 C1353 1.387 . S
C1352 H1356 0.950 . S
C1352 C1361 1.390 . S
C1353 C1352 1.387 . S
C1353 C1355 1.387 . S
H1354 C1361 0.950 . S
C1355 C1353 1.387 . S
C1355 C1357 1.390 . S
C1355 H1359 0.950 . S
H1356 C1352 0.950 . S
C1357 C1355 1.390 . S
C1357 C1358 1.387 . S
C1357 H1360 0.950 . S
C1358 C1357 1.387 . S
C1358 C1361 1.387 . S
H1359 C1355 0.950 . S
H1360 C1357 0.950 . S
C1361 C1352 1.390 . S
C1361 H1354 0.950 . S
C1361 C1358 1.387 . S
C1362 C1363 1.387 . S
C1362 H1366 0.950 . S
C1362 C1371 1.390 . S
C1363 C1362 1.387 . S
C1363 C1365 1.387 . S
H1364 C1371 0.950 . S
C1365 C1363 1.387 . S
C1365 C1367 1.390 . S
C1365 H1369 0.950 . S
H1366 C1362 0.950 . S
C1367 C1365 1.390 . S
C1367 C1368 1.387 . S
C1367 H1370 0.950 . S
C1368 C1367 1.387 . S
C1368 C1371 1.387 . S
H1369 C1365 0.950 . S
H1370 C1367 0.950 . S
C1371 C1362 1.390 . S
C1371 H1364 0.950 . S
C1371 C1368 1.387 . S
C1372 C1373 1.387 . S
C1372 H1376 0.950 . S
C1372 C1381 1.390 . S
C1373 C1372 1.387 . S
C1373 C1375 1.387 . S
H1374 C1381 0.950 . S
C1375 C1373 1.387 . S
C1375 C1377 1.390 . S
C1375 H1379 0.950 . S
H1376 C1372 0.950 . S
C1377 C1375 1.390 . S
C1377 C1378 1.387 . S
C1377 H1380 0.950 . S
C1378 C1377 1.387 . S
C1378 C1381 1.387 . S
H1379 C1375 0.950 . S
H1380 C1377 0.950 . S
C1381 C1372 1.390 . S
C1381 H1374 0.950 . S
C1381 C1378 1.387 . S
C1382 C1383 1.387 . S
C1382 H1386 0.950 . S
C1382 C1391 1.390 . S
C1383 C1382 1.387 . S
C1383 C1385 1.387 . S
H1384 C1391 0.950 . S
C1385 C1383 1.387 . S
C1385 C1387 1.390 . S
C1385 H1389 0.950 . S
H1386 C1382 0.950 . S
C1387 C1385 1.390 . S
C1387 C1388 1.387 . S
C1387 H1390 0.950 . S
C1388 C1387 1.387 . S
C1388 C1391 1.387 . S
H1389 C1385 0.950 . S
H1390 C1387 0.950 . S
C1391 C1382 1.390 . S
C1391 H1384 0.950 . S
C1391 C1388 1.387 . S
C1392 C1393 1.387 . S
C1392 H1396 0.950 . S
C1392 C1401 1.390 . S
C1393 C1392 1.387 . S
C1393 C1395 1.387 . S
H1394 C1401 0.950 . S
C1395 C1393 1.387 . S
C1395 C1397 1.390 . S
C1395 H1399 0.950 . S
H1396 C1392 0.950 . S
C1397 C1395 1.390 . S
C1397 C1398 1.387 . S
C1397 H1400 0.950 . S
C1398 C1397 1.387 . S
C1398 C1401 1.387 . S
H1399 C1395 0.950 . S
H1400 C1397 0.950 . S
C1401 C1392 1.390 . S
C1401 H1394 0.950 . S
C1401 C1398 1.387 . S
C1402 C1403 1.387 . S
C1402 H1406 0.950 . S
C1402 C1411 1.390 . S
C1403 C1402 1.387 . S
C1403 C1405 1.387 . S
H1404 C1411 0.950 . S
C1405 C1403 1.387 . S
C1405 C1407 1.390 . S
C1405 H1409 0.950 . S
H1406 C1402 0.950 . S
C1407 C1405 1.390 . S
C1407 C1408 1.387 . S
C1407 H1410 0.950 . S
C1408 C1407 1.387 . S
C1408 C1411 1.387 . S
H1409 C1405 0.950 . S
H1410 C1407 0.950 . S
C1411 C1402 1.390 . S
C1411 H1404 0.950 . S
C1411 C1408 1.387 . S
C1412 C1413 1.387 . S
C1412 H1416 0.950 . S
C1412 C1421 1.390 . S
C1413 C1412 1.387 . S
C1413 C1415 1.387 . S
H1414 C1421 0.950 . S
C1415 C1413 1.387 . S
C1415 C1417 1.390 . S
C1415 H1419 0.950 . S
H1416 C1412 0.950 . S
C1417 C1415 1.390 . S
C1417 C1418 1.387 . S
C1417 H1420 0.950 . S
C1418 C1417 1.387 . S
C1418 C1421 1.387 . S
H1419 C1415 0.950 . S
H1420 C1417 0.950 . S
C1421 C1412 1.390 . S
C1421 H1414 0.950 . S
C1421 C1418 1.387 . S
C1422 C1423 1.387 . S
C1422 H1426 0.950 . S
C1422 C1431 1.390 . S
C1423 C1422 1.387 . S
C1423 C1425 1.387 . S
H1424 C1431 0.950 . S
C1425 C1423 1.387 . S
C1425 C1427 1.390 . S
C1425 H1429 0.950 . S
H1426 C1422 0.950 . S
C1427 C1425 1.390 . S
C1427 C1428 1.387 . S
C1427 H1430 0.950 . S
C1428 C1427 1.387 . S
C1428 C1431 1.387 . S
H1429 C1425 0.950 . S
H1430 C1427 0.950 . S
C1431 C1422 1.390 . S
C1431 H1424 0.950 . S
C1431 C1428 1.387 . S
C1432 C1433 1.387 . S
C1432 H1436 0.950 . S
C1432 C1441 1.390 . S
C1433 C1432 1.387 . S
C1433 C1435 1.387 . S
H1434 C1441 0.950 . S
C1435 C1433 1.387 . S
C1435 C1437 1.390 . S
C1435 H1439 0.950 . S
H1436 C1432 0.950 . S
C1437 C1435 1.390 . S
C1437 C1438 1.387 . S
C1437 H1440 0.950 . S
C1438 C1437 1.387 . S
C1438 C1441 1.387 . S
H1439 C1435 0.950 . S
H1440 C1437 0.950 . S
C1441 C1432 1.390 . S
C1441 H1434 0.950 . S
C1441 C1438 1.387 . S
C1442 C1443 1.387 . S
C1442 H1446 0.950 . S
C1442 C1451 1.390 . S
C1443 C1442 1.387 . S
C1443 C1445 1.387 . S
H1444 C1451 0.950 . S
C1445 C1443 1.387 . S
C1445 C1447 1.390 . S
C1445 H1449 0.950 . S
H1446 C1442 0.950 . S
C1447 C1445 1.390 . S
C1447 C1448 1.387 . S
C1447 H1450 0.950 . S
C1448 C1447 1.387 . S
C1448 C1451 1.387 . S
H1449 C1445 0.950 . S
H1450 C1447 0.950 . S
C1451 C1442 1.390 . S
C1451 H1444 0.950 . S
C1451 C1448 1.387 . S
C1452 C1453 1.387 . S
C1452 H1456 0.950 . S
C1452 C1461 1.390 . S
C1453 C1452 1.387 . S
C1453 C1455 1.387 . S
H1454 C1461 0.950 . S
C1455 C1453 1.387 . S
C1455 C1457 1.390 . S
C1455 H1459 0.950 . S
H1456 C1452 0.950 . S
C1457 C1455 1.390 . S
C1457 C1458 1.387 . S
C1457 H1460 0.950 . S
C1458 C1457 1.387 . S
C1458 C1461 1.387 . S
H1459 C1455 0.950 . S
H1460 C1457 0.950 . S
C1461 C1452 1.390 . S
C1461 H1454 0.950 . S
C1461 C1458 1.387 . S
C1462 C1463 1.387 . S
C1462 H1466 0.950 . S
C1462 C1471 1.390 . S
C1463 C1462 1.387 . S
C1463 C1465 1.387 . S
H1464 C1471 0.950 . S
C1465 C1463 1.387 . S
C1465 C1467 1.390 . S
C1465 H1469 0.950 . S
H1466 C1462 0.950 . S
C1467 C1465 1.390 . S
C1467 C1468 1.387 . S
C1467 H1470 0.950 . S
C1468 C1467 1.387 . S
C1468 C1471 1.387 . S
H1469 C1465 0.950 . S
H1470 C1467 0.950 . S
C1471 C1462 1.390 . S
C1471 H1464 0.950 . S
C1471 C1468 1.387 . S
C1472 C1473 1.387 . S
C1472 H1476 0.950 . S
C1472 C1481 1.390 . S
C1473 C1472 1.387 . S
C1473 C1475 1.387 . S
H1474 C1481 0.950 . S
C1475 C1473 1.387 . S
C1475 C1477 1.390 . S
C1475 H1479 0.950 . S
H1476 C1472 0.950 . S
C1477 C1475 1.390 . S
C1477 C1478 1.387 . S
C1477 H1480 0.950 . S
C1478 C1477 1.387 . S
C1478 C1481 1.387 . S
H1479 C1475 0.950 . S
H1480 C1477 0.950 . S
C1481 C1472 1.390 . S
C1481 H1474 0.950 . S
C1481 C1478 1.387 . S
C1482 C1483 1.387 . S
C1482 H1486 0.950 . S
C1482 C1491 1.390 . S
C1483 C1482 1.387 . S
C1483 C1485 1.387 . S
H1484 C1491 0.950 . S
C1485 C1483 1.387 . S
C1485 C1487 1.390 . S
C1485 H1489 0.950 . S
H1486 C1482 0.950 . S
C1487 C1485 1.390 . S
C1487 C1488 1.387 . S
C1487 H1490 0.950 . S
C1488 C1487 1.387 . S
C1488 C1491 1.387 . S
H1489 C1485 0.950 . S
H1490 C1487 0.950 . S
C1491 C1482 1.390 . S
C1491 H1484 0.950 . S
C1491 C1488 1.387 . S
C1492 C1493 1.387 . S
C1492 H1496 0.950 . S
C1492 C1501 1.390 . S
C1493 C1492 1.387 . S
C1493 C1495 1.387 . S
H1494 C1501 0.950 . S
C1495 C1493 1.387 . S
C1495 C1497 1.390 . S
C1495 H1499 0.950 . S
H1496 C1492 0.950 . S
C1497 C1495 1.390 . S
C1497 C1498 1.387 . S
C1497 H1500 0.950 . S
C1498 C1497 1.387 . S
C1498 C1501 1.387 . S
H1499 C1495 0.950 . S
H1500 C1497 0.950 . S
C1501 C1492 1.390 . S
C1501 H1494 0.950 . S
C1501 C1498 1.387 . S
C1502 C1503 1.387 . S
C1502 H1506 0.950 . S
C1502 C1511 1.390 . S
C1503 C1502 1.387 . S
C1503 C1505 1.387 . S
H1504 C1511 0.950 . S
C1505 C1503 1.387 . S
C1505 C1507 1.390 . S
C1505 H1509 0.950 . S
H1506 C1502 0.950 . S
C1507 C1505 1.390 . S
C1507 C1508 1.387 . S
C1507 H1510 0.950 . S
C1508 C1507 1.387 . S
C1508 C1511 1.387 . S
H1509 C1505 0.950 . S
H1510 C1507 0.950 . S
C1511 C1502 1.390 . S
C1511 H1504 0.950 . S
C1511 C1508 1.387 . S
C1512 C1513 1.387 . S
C1512 H1516 0.950 . S
C1512 C1521 1.390 . S
C1513 C1512 1.387 . S
C1513 C1515 1.387 . S
H1514 C1521 0.950 . S
C1515 C1513 1.387 . S
C1515 C1517 1.390 . S
C1515 H1519 0.950 . S
H1516 C1512 0.950 . S
C1517 C1515 1.390 . S
C1517 C1518 1.387 . S
C1517 H1520 0.950 . S
C1518 C1517 1.387 . S
C1518 C1521 1.387 . S
H1519 C1515 0.950 . S
H1520 C1517 0.950 . S
C1521 C1512 1.390 . S
C1521 H1514 0.950 . S
C1521 C1518 1.387 . S
C1522 C1523 1.387 . S
C1522 H1526 0.950 . S
C1522 C1531 1.390 . S
C1523 C1522 1.387 . S
C1523 C1525 1.387 . S
H1524 C1531 0.950 . S
C1525 C1523 1.387 . S
C1525 C1527 1.390 . S
C1525 H1529 0.950 . S
H1526 C1522 0.950 . S
C1527 C1525 1.390 . S
C1527 C1528 1.387 . S
C1527 H1530 0.950 . S
C1528 C1527 1.387 . S
C1528 C1531 1.387 . S
H1529 C1525 0.950 . S
H1530 C1527 0.950 . S
C1531 C1522 1.390 . S
C1531 H1524 0.950 . S
C1531 C1528 1.387 . S
C1532 C1533 1.387 . S
C1532 H1536 0.950 . S
C1532 C1541 1.390 . S
C1533 C1532 1.387 . S
C1533 C1535 1.387 . S
H1534 C1541 0.950 . S
C1535 C1533 1.387 . S
C1535 C1537 1.390 . S
C1535 H1539 0.950 . S
H1536 C1532 0.950 . S
C1537 C1535 1.390 . S
C1537 C1538 1.387 . S
C1537 H1540 0.950 . S
C1538 C1537 1.387 . S
C1538 C1541 1.387 . S
H1539 C1535 0.950 . S
H1540 C1537 0.950 . S
C1541 C1532 1.390 . S
C1541 H1534 0.950 . S
C1541 C1538 1.387 . S
C1542 C1543 1.387 . S
C1542 H1546 0.950 . S
C1542 C1551 1.390 . S
C1543 C1542 1.387 . S
C1543 C1545 1.387 . S
H1544 C1551 0.950 . S
C1545 C1543 1.387 . S
C1545 C1547 1.390 . S
C1545 H1549 0.950 . S
H1546 C1542 0.950 . S
C1547 C1545 1.390 . S
C1547 C1548 1.387 . S
C1547 H1550 0.950 . S
C1548 C1547 1.387 . S
C1548 C1551 1.387 . S
H1549 C1545 0.950 . S
H1550 C1547 0.950 . S
C1551 C1542 1.390 . S
C1551 H1544 0.950 . S
C1551 C1548 1.387 . S
C1552 C1553 1.387 . S
C1552 H1556 0.950 . S
C1552 C1561 1.390 . S
C1553 C1552 1.387 . S
C1553 C1555 1.387 . S
H1554 C1561 0.950 . S
C1555 C1553 1.387 . S
C1555 C1557 1.390 . S
C1555 H1559 0.950 . S
H1556 C1552 0.950 . S
C1557 C1555 1.390 . S
C1557 C1558 1.387 . S
C1557 H1560 0.950 . S
C1558 C1557 1.387 . S
C1558 C1561 1.387 . S
H1559 C1555 0.950 . S
H1560 C1557 0.950 . S
C1561 C1552 1.390 . S
C1561 H1554 0.950 . S
C1561 C1558 1.387 . S
C1562 C1563 1.387 . S
C1562 H1566 0.950 . S
C1562 C1571 1.390 . S
C1563 C1562 1.387 . S
C1563 C1565 1.387 . S
H1564 C1571 0.950 . S
C1565 C1563 1.387 . S
C1565 C1567 1.390 . S
C1565 H1569 0.950 . S
H1566 C1562 0.950 . S
C1567 C1565 1.390 . S
C1567 C1568 1.387 . S
C1567 H1570 0.950 . S
C1568 C1567 1.387 . S
C1568 C1571 1.387 . S
H1569 C1565 0.950 . S
H1570 C1567 0.950 . S
C1571 C1562 1.390 . S
C1571 H1564 0.950 . S
C1571 C1568 1.387 . S
C1572 C1573 1.387 . S
C1572 H1576 0.950 . S
C1572 C1581 1.390 . S
C1573 C1572 1.387 . S
C1573 C1575 1.387 . S
H1574 C1581 0.950 . S
C1575 C1573 1.387 . S
C1575 C1577 1.390 . S
C1575 H1579 0.950 . S
H1576 C1572 0.950 . S
C1577 C1575 1.390 . S
C1577 C1578 1.387 . S
C1577 H1580 0.950 . S
C1578 C1577 1.387 . S
C1578 C1581 1.387 . S
H1579 C1575 0.950 . S
H1580 C1577 0.950 . S
C1581 C1572 1.390 . S
C1581 H1574 0.950 . S
C1581 C1578 1.387 . S
C1582 C1583 1.387 . S
C1582 H1586 0.950 . S
C1582 C1591 1.390 . S
C1583 C1582 1.387 . S
C1583 C1585 1.387 . S
H1584 C1591 0.950 . S
C1585 C1583 1.387 . S
C1585 C1587 1.390 . S
C1585 H1589 0.950 . S
H1586 C1582 0.950 . S
C1587 C1585 1.390 . S
C1587 C1588 1.387 . S
C1587 H1590 0.950 . S
C1588 C1587 1.387 . S
C1588 C1591 1.387 . S
H1589 C1585 0.950 . S
H1590 C1587 0.950 . S
C1591 C1582 1.390 . S
C1591 H1584 0.950 . S
C1591 C1588 1.387 . S
C1592 C1593 1.387 . S
C1592 H1596 0.950 . S
C1592 C1601 1.390 . S
C1593 C1592 1.387 . S
C1593 C1595 1.387 . S
H1594 C1601 0.950 . S
C1595 C1593 1.387 . S
C1595 C1597 1.390 . S
C1595 H1599 0.950 . S
H1596 C1592 0.950 . S
C1597 C1595 1.390 . S
C1597 C1598 1.387 . S
C1597 H1600 0.950 . S
C1598 C1597 1.387 . S
C1598 C1601 1.387 . S
H1599 C1595 0.950 . S
H1600 C1597 0.950 . S
C1601 C1592 1.390 . S
C1601 H1594 0.950 . S
C1601 C1598 1.387 . S
C1602 C1603 1.387 . S
C1602 H1606 0.950 . S
C1602 C1611 1.390 . S
C1603 C1602 1.387 . S
C1603 C1605 1.387 . S
H1604 C1611 0.950 . S
C1605 C1603 1.387 . S
C1605 C1607 1.390 . S
C1605 H1609 0.950 . S
H1606 C1602 0.950 . S
C1607 C1605 1.390 . S
C1607 C1608 1.387 . S
C1607 H1610 0.950 . S
C1608 C1607 1.387 . S
C1608 C1611 1.387 . S
H1609 C1605 0.950 . S
H1610 C1607 0.950 . S
C1611 C1602 1.390 . S
C1611 H1604 0.950 . S
C1611 C1608 1.387 . S
C1612 C1613 1.387 . S
C1612 H1616 0.950 . S
C1612 C1621 1.390 . S
C1613 C1612 1.387 . S
C1613 C1615 1.387 . S
H1614 C1621 0.950 . S
C1615 C1613 1.387 . S
C1615 C1617 1.390 . S
C1615 H1619 0.950 . S
H1616 C1612 0.950 . S
C1617 C1615 1.390 . S
C1617 C1618 1.387 . S
C1617 H1620 0.950 . S
C1618 C1617 1.387 . S
C1618 C1621 1.387 . S
H1619 C1615 0.950 . S
H1620 C1617 0.950 . S
C1621 C1612 1.390 . S
C1621 H1614 0.950 . S
C1621 C1618 1.387 . S
C1622 C1623 1.387 . S
C1622 H1626 0.950 . S
C1622 C1631 1.390 . S
C1623 C1622 1.387 . S
C1623 C1625 1.387 . S
H1624 C1631 0.950 . S
C1625 C1623 1.387 . S
C1625 C1627 1.390 . S
C1625 H1629 0.950 . S
H1626 C1622 0.950 . S
C1627 C1625 1.390 . S
C1627 C1628 1.387 . S
C1627 H1630 0.950 . S
C1628 C1627 1.387 . S
C1628 C1631 1.387 . S
H1629 C1625 0.950 . S
H1630 C1627 0.950 . S
C1631 C1622 1.390 . S
C1631 H1624 0.950 . S
C1631 C1628 1.387 . S
C673 C398 1.202 . S
C678 C6 1.200 . S
C683 C20 1.202 . S
C688 C412 1.200 . S
C693 C426 1.202 . S
C698 C34 1.200 . S
C703 C48 1.202 . S
C708 C440 1.200 . S
C713 C342 1.200 . S
C718 C62 1.202 . S
C723 C76 1.200 . S
C728 C356 1.202 . S
C733 C370 1.200 . S
C738 C90 1.202 . S
C743 C104 1.200 . S
C748 C384 1.202 . S
C753 C538 1.201 . S
C758 C118 1.201 . S
C763 C552 1.201 . S
C768 C132 1.201 . S
C773 C510 1.201 . S
C778 C146 1.201 . S
C783 C160 1.200 . S
C788 C524 1.202 . S
C793 C482 1.200 . S
C798 C174 1.202 . S
C803 C496 1.200 . S
C808 C188 1.202 . S
C813 C202 1.202 . S
C818 C454 1.200 . S
C823 C468 1.201 . S
C828 C216 1.201 . S
C833 C230 1.200 . S
C838 C636 1.202 . S
C843 C608 1.200 . S
C848 C244 1.202 . S
C853 C622 1.202 . S
C858 C258 1.200 . S
C863 C580 1.202 . S
C868 C272 1.200 . S
C873 C594 1.200 . S
C878 C286 1.202 . S
C883 C300 1.200 . S
C888 C566 1.202 . S
C893 C314 1.200 . S
C898 C664 1.202 . S
C903 C650 1.200 . S
C908 C328 1.202 . S
C913 C105 1.644 . S
C918 C7 1.646 . S
C923 C63 1.646 . S
C928 C21 1.649 . S
C933 C77 1.645 . S
C938 C35 1.645 . S
C943 C91 1.647 . S
C948 C49 1.644 . S
C953 C287 1.645 . S
C958 C119 1.645 . S
C963 C245 1.645 . S
C968 C133 1.645 . S
C973 C259 1.645 . S
C978 C147 1.645 . S
C983 C273 1.645 . S
C988 C161 1.645 . S
C993 C329 1.648 . S
C998 C175 1.647 . S
C1003 C301 1.646 . S
C1008 C189 1.649 . S
C1013 C203 1.645 . S
C1018 C315 1.645 . S
C1023 C231 1.645 . S
C1028 C217 1.645 . S
C1033 C441 1.647 . S
C1038 C343 1.644 . S
C1043 C399 1.647 . S
C1048 C357 1.649 . S
C1053 C371 1.647 . S
C1058 C413 1.644 . S
C1063 C385 1.645 . S
C1068 C427 1.648 . S
C1073 C455 1.645 . S
C1078 C623 1.645 . S
C1083 C469 1.645 . S
C1088 C581 1.645 . S
C1093 C595 1.648 . S
C1098 C483 1.648 . S
C1103 C609 1.648 . S
C1108 C497 1.648 . S
C1113 C665 1.648 . S
C1118 C511 1.647 . S
C1123 C637 1.644 . S
C1128 C525 1.647 . S
C1133 C651 1.649 . S
C1138 C539 1.647 . S
C1143 C553 1.646 . S
C1148 C567 1.649 . S
C1153 C8 1.441 . S
C1158 C121 1.407 . S
C1163 C135 1.405 . S
C1168 C22 1.441 . S
C1173 C149 1.407 . S
C1178 C36 1.441 . S
C1183 C163 1.406 . S
C1188 C50 1.440 . S
C1193 C64 1.441 . S
C1198 C177 1.405 . S
C1203 C191 1.404 . S
C1208 C78 1.442 . S
C1213 C92 1.441 . S
C1218 C205 1.407 . S
C1223 C219 1.404 . S
C1228 C106 1.442 . S
C1233 C233 1.404 . S
C1238 C120 1.441 . S
C1243 C331 1.407 . S
C1248 C134 1.441 . S
C1253 C148 1.442 . S
C1258 C303 1.407 . S
C1263 C162 1.442 . S
C1268 C317 1.405 . S
C1273 C176 1.442 . S
C1278 C247 1.406 . S
C1283 C190 1.442 . S
C1288 C261 1.406 . S
C1293 C204 1.441 . S
C1298 C275 1.405 . S
C1303 C218 1.441 . S
C1308 C289 1.404 . S
C1313 C232 1.441 . S
C1318 C9 1.405 . S
C1323 C246 1.442 . S
C1328 C65 1.406 . S
C1333 C260 1.442 . S
C1338 C79 1.407 . S
C1343 C274 1.442 . S
C1348 C93 1.405 . S
C1353 C288 1.442 . S
C1358 C107 1.406 . S
C1363 C302 1.442 . S
C1368 C37 1.405 . S
C1373 C51 1.407 . S
C1378 C316 1.442 . S
C1383 C23 1.404 . S
C1388 C330 1.441 . S
C1393 C457 1.405 . S
C1398 C344 1.442 . S
C1403 C471 1.405 . S
C1408 C358 1.441 . S
C1413 C485 1.407 . S
C1418 C372 1.441 . S
C1423 C499 1.406 . S
C1428 C386 1.442 . S
C1433 C513 1.407 . S
C1438 C400 1.441 . S
C1443 C414 1.442 . S
C1448 C527 1.405 . S
C1453 C541 1.407 . S
C1458 C428 1.441 . S
C1463 C442 1.440 . S
C1468 C555 1.407 . S
C1473 C569 1.405 . S
C1478 C456 1.442 . S
C1483 C470 1.441 . S
C1488 C667 1.404 . S
C1493 C484 1.441 . S
C1498 C639 1.405 . S
C1503 C653 1.404 . S
C1508 C498 1.442 . S
C1513 C583 1.405 . S
C1518 C512 1.441 . S
C1523 C526 1.442 . S
C1528 C597 1.404 . S
C1533 C540 1.442 . S
C1538 C611 1.406 . S
C1543 C625 1.404 . S
C1548 C554 1.441 . S
C1553 C345 1.406 . S
C1558 C568 1.440 . S
C1563 C401 1.407 . S
C1568 C582 1.440 . S
C1573 C415 1.404 . S
C1578 C596 1.441 . S
C1583 C610 1.442 . S
C1588 C429 1.405 . S
C1593 C443 1.404 . S
C1598 C624 1.441 . S
C1603 C373 1.406 . S
C1608 C638 1.442 . S
C1613 C652 1.442 . S
C1618 C387 1.406 . S
C1623 C359 1.405 . S
C1628 C666 1.441 . S
