# Generated by pormake.
# Topology flu-e, (6)-cn, num edge types: 1
# Building blocks:
#     Node 0, Type 0, BuildingBlock: IZENUY_clean_sbu_0, # of connection points: 6
#     Node 1, Type 0, BuildingBlock: IZENUY_clean_sbu_0, # of connection points: 6
#     Node 2, Type 0, BuildingBlock: IZENUY_clean_sbu_0, # of connection points: 6
#     Node 3, Type 0, BuildingBlock: IZENUY_clean_sbu_0, # of connection points: 6
#     Node 4, Type 0, BuildingBlock: IZENUY_clean_sbu_0, # of connection points: 6
#     Node 5, Type 0, BuildingBlock: IZENUY_clean_sbu_0, # of connection points: 6
#     Node 6, Type 0, BuildingBlock: IZENUY_clean_sbu_0, # of connection points: 6
#     Node 7, Type 0, BuildingBlock: IZENUY_clean_sbu_0, # of connection points: 6
#     Node 8, Type 0, BuildingBlock: IZENUY_clean_sbu_0, # of connection points: 6
#     Node 9, Type 0, BuildingBlock: IZENUY_clean_sbu_0, # of connection points: 6
#     Node 10, Type 0, BuildingBlock: IZENUY_clean_sbu_0, # of connection points: 6
#     Node 11, Type 0, BuildingBlock: IZENUY_clean_sbu_0, # of connection points: 6
#     Node 12, Type 0, BuildingBlock: IZENUY_clean_sbu_0, # of connection points: 6
#     Node 13, Type 0, BuildingBlock: IZENUY_clean_sbu_0, # of connection points: 6
#     Node 14, Type 0, BuildingBlock: IZENUY_clean_sbu_0, # of connection points: 6
#     Node 15, Type 0, BuildingBlock: IZENUY_clean_sbu_0, # of connection points: 6
#     Node 16, Type 0, BuildingBlock: IZENUY_clean_sbu_0, # of connection points: 6
#     Node 17, Type 0, BuildingBlock: IZENUY_clean_sbu_0, # of connection points: 6
#     Node 18, Type 0, BuildingBlock: IZENUY_clean_sbu_0, # of connection points: 6
#     Node 19, Type 0, BuildingBlock: IZENUY_clean_sbu_0, # of connection points: 6
#     Node 20, Type 0, BuildingBlock: IZENUY_clean_sbu_0, # of connection points: 6
#     Node 21, Type 0, BuildingBlock: IZENUY_clean_sbu_0, # of connection points: 6
#     Node 22, Type 0, BuildingBlock: IZENUY_clean_sbu_0, # of connection points: 6
#     Node 23, Type 0, BuildingBlock: IZENUY_clean_sbu_0, # of connection points: 6
#     Node 24, Type 0, BuildingBlock: IZENUY_clean_sbu_0, # of connection points: 6
#     Node 25, Type 0, BuildingBlock: IZENUY_clean_sbu_0, # of connection points: 6
#     Node 26, Type 0, BuildingBlock: IZENUY_clean_sbu_0, # of connection points: 6
#     Node 27, Type 0, BuildingBlock: IZENUY_clean_sbu_0, # of connection points: 6
#     Node 28, Type 0, BuildingBlock: IZENUY_clean_sbu_0, # of connection points: 6
#     Node 29, Type 0, BuildingBlock: IZENUY_clean_sbu_0, # of connection points: 6
#     Node 30, Type 0, BuildingBlock: IZENUY_clean_sbu_0, # of connection points: 6
#     Node 31, Type 0, BuildingBlock: IZENUY_clean_sbu_0, # of connection points: 6
#     Edge 32, Type (0, 0), BuildingBlock: UVAHIK_clean_linker_0, # of connection points: 2
#     Edge 33, Type (0, 0), BuildingBlock: UVAHIK_clean_linker_0, # of connection points: 2
#     Edge 34, Type (0, 0), BuildingBlock: UVAHIK_clean_linker_0, # of connection points: 2
#     Edge 35, Type (0, 0), BuildingBlock: UVAHIK_clean_linker_0, # of connection points: 2
#     Edge 36, Type (0, 0), BuildingBlock: UVAHIK_clean_linker_0, # of connection points: 2
#     Edge 37, Type (0, 0), BuildingBlock: UVAHIK_clean_linker_0, # of connection points: 2
#     Edge 38, Type (0, 0), BuildingBlock: UVAHIK_clean_linker_0, # of connection points: 2
#     Edge 39, Type (0, 0), BuildingBlock: UVAHIK_clean_linker_0, # of connection points: 2
#     Edge 40, Type (0, 0), BuildingBlock: UVAHIK_clean_linker_0, # of connection points: 2
#     Edge 41, Type (0, 0), BuildingBlock: UVAHIK_clean_linker_0, # of connection points: 2
#     Edge 42, Type (0, 0), BuildingBlock: UVAHIK_clean_linker_0, # of connection points: 2
#     Edge 43, Type (0, 0), BuildingBlock: UVAHIK_clean_linker_0, # of connection points: 2
#     Edge 44, Type (0, 0), BuildingBlock: UVAHIK_clean_linker_0, # of connection points: 2
#     Edge 45, Type (0, 0), BuildingBlock: UVAHIK_clean_linker_0, # of connection points: 2
#     Edge 46, Type (0, 0), BuildingBlock: UVAHIK_clean_linker_0, # of connection points: 2
#     Edge 47, Type (0, 0), BuildingBlock: UVAHIK_clean_linker_0, # of connection points: 2
#     Edge 48, Type (0, 0), BuildingBlock: UVAHIK_clean_linker_0, # of connection points: 2
#     Edge 49, Type (0, 0), BuildingBlock: UVAHIK_clean_linker_0, # of connection points: 2
#     Edge 50, Type (0, 0), BuildingBlock: UVAHIK_clean_linker_0, # of connection points: 2
#     Edge 51, Type (0, 0), BuildingBlock: UVAHIK_clean_linker_0, # of connection points: 2
#     Edge 52, Type (0, 0), BuildingBlock: UVAHIK_clean_linker_0, # of connection points: 2
#     Edge 53, Type (0, 0), BuildingBlock: UVAHIK_clean_linker_0, # of connection points: 2
#     Edge 54, Type (0, 0), BuildingBlock: UVAHIK_clean_linker_0, # of connection points: 2
#     Edge 55, Type (0, 0), BuildingBlock: UVAHIK_clean_linker_0, # of connection points: 2
#     Edge 56, Type (0, 0), BuildingBlock: UVAHIK_clean_linker_0, # of connection points: 2
#     Edge 57, Type (0, 0), BuildingBlock: UVAHIK_clean_linker_0, # of connection points: 2
#     Edge 58, Type (0, 0), BuildingBlock: UVAHIK_clean_linker_0, # of connection points: 2
#     Edge 59, Type (0, 0), BuildingBlock: UVAHIK_clean_linker_0, # of connection points: 2
#     Edge 60, Type (0, 0), BuildingBlock: UVAHIK_clean_linker_0, # of connection points: 2
#     Edge 61, Type (0, 0), BuildingBlock: UVAHIK_clean_linker_0, # of connection points: 2
#     Edge 62, Type (0, 0), BuildingBlock: UVAHIK_clean_linker_0, # of connection points: 2
#     Edge 63, Type (0, 0), BuildingBlock: UVAHIK_clean_linker_0, # of connection points: 2
#     Edge 64, Type (0, 0), BuildingBlock: UVAHIK_clean_linker_0, # of connection points: 2
#     Edge 65, Type (0, 0), BuildingBlock: UVAHIK_clean_linker_0, # of connection points: 2
#     Edge 66, Type (0, 0), BuildingBlock: UVAHIK_clean_linker_0, # of connection points: 2
#     Edge 67, Type (0, 0), BuildingBlock: UVAHIK_clean_linker_0, # of connection points: 2
#     Edge 68, Type (0, 0), BuildingBlock: UVAHIK_clean_linker_0, # of connection points: 2
#     Edge 69, Type (0, 0), BuildingBlock: UVAHIK_clean_linker_0, # of connection points: 2
#     Edge 70, Type (0, 0), BuildingBlock: UVAHIK_clean_linker_0, # of connection points: 2
#     Edge 71, Type (0, 0), BuildingBlock: UVAHIK_clean_linker_0, # of connection points: 2
#     Edge 72, Type (0, 0), BuildingBlock: UVAHIK_clean_linker_0, # of connection points: 2
#     Edge 73, Type (0, 0), BuildingBlock: UVAHIK_clean_linker_0, # of connection points: 2
#     Edge 74, Type (0, 0), BuildingBlock: UVAHIK_clean_linker_0, # of connection points: 2
#     Edge 75, Type (0, 0), BuildingBlock: UVAHIK_clean_linker_0, # of connection points: 2
#     Edge 76, Type (0, 0), BuildingBlock: UVAHIK_clean_linker_0, # of connection points: 2
#     Edge 77, Type (0, 0), BuildingBlock: UVAHIK_clean_linker_0, # of connection points: 2
#     Edge 78, Type (0, 0), BuildingBlock: UVAHIK_clean_linker_0, # of connection points: 2
#     Edge 79, Type (0, 0), BuildingBlock: UVAHIK_clean_linker_0, # of connection points: 2
#     Edge 80, Type (0, 0), BuildingBlock: UVAHIK_clean_linker_0, # of connection points: 2
#     Edge 81, Type (0, 0), BuildingBlock: UVAHIK_clean_linker_0, # of connection points: 2
#     Edge 82, Type (0, 0), BuildingBlock: UVAHIK_clean_linker_0, # of connection points: 2
#     Edge 83, Type (0, 0), BuildingBlock: UVAHIK_clean_linker_0, # of connection points: 2
#     Edge 84, Type (0, 0), BuildingBlock: UVAHIK_clean_linker_0, # of connection points: 2
#     Edge 85, Type (0, 0), BuildingBlock: UVAHIK_clean_linker_0, # of connection points: 2
#     Edge 86, Type (0, 0), BuildingBlock: UVAHIK_clean_linker_0, # of connection points: 2
#     Edge 87, Type (0, 0), BuildingBlock: UVAHIK_clean_linker_0, # of connection points: 2
#     Edge 88, Type (0, 0), BuildingBlock: UVAHIK_clean_linker_0, # of connection points: 2
#     Edge 89, Type (0, 0), BuildingBlock: UVAHIK_clean_linker_0, # of connection points: 2
#     Edge 90, Type (0, 0), BuildingBlock: UVAHIK_clean_linker_0, # of connection points: 2
#     Edge 91, Type (0, 0), BuildingBlock: UVAHIK_clean_linker_0, # of connection points: 2
#     Edge 92, Type (0, 0), BuildingBlock: UVAHIK_clean_linker_0, # of connection points: 2
#     Edge 93, Type (0, 0), BuildingBlock: UVAHIK_clean_linker_0, # of connection points: 2
#     Edge 94, Type (0, 0), BuildingBlock: UVAHIK_clean_linker_0, # of connection points: 2
#     Edge 95, Type (0, 0), BuildingBlock: UVAHIK_clean_linker_0, # of connection points: 2
#     Edge 96, Type (0, 0), BuildingBlock: UVAHIK_clean_linker_0, # of connection points: 2
#     Edge 97, Type (0, 0), BuildingBlock: UVAHIK_clean_linker_0, # of connection points: 2
#     Edge 98, Type (0, 0), BuildingBlock: UVAHIK_clean_linker_0, # of connection points: 2
#     Edge 99, Type (0, 0), BuildingBlock: UVAHIK_clean_linker_0, # of connection points: 2
#     Edge 100, Type (0, 0), BuildingBlock: UVAHIK_clean_linker_0, # of connection points: 2
#     Edge 101, Type (0, 0), BuildingBlock: UVAHIK_clean_linker_0, # of connection points: 2
#     Edge 102, Type (0, 0), BuildingBlock: UVAHIK_clean_linker_0, # of connection points: 2
#     Edge 103, Type (0, 0), BuildingBlock: UVAHIK_clean_linker_0, # of connection points: 2
#     Edge 104, Type (0, 0), BuildingBlock: UVAHIK_clean_linker_0, # of connection points: 2
#     Edge 105, Type (0, 0), BuildingBlock: UVAHIK_clean_linker_0, # of connection points: 2
#     Edge 106, Type (0, 0), BuildingBlock: UVAHIK_clean_linker_0, # of connection points: 2
#     Edge 107, Type (0, 0), BuildingBlock: UVAHIK_clean_linker_0, # of connection points: 2
#     Edge 108, Type (0, 0), BuildingBlock: UVAHIK_clean_linker_0, # of connection points: 2
#     Edge 109, Type (0, 0), BuildingBlock: UVAHIK_clean_linker_0, # of connection points: 2
#     Edge 110, Type (0, 0), BuildingBlock: UVAHIK_clean_linker_0, # of connection points: 2
#     Edge 111, Type (0, 0), BuildingBlock: UVAHIK_clean_linker_0, # of connection points: 2
#     Edge 112, Type (0, 0), BuildingBlock: UVAHIK_clean_linker_0, # of connection points: 2
#     Edge 113, Type (0, 0), BuildingBlock: UVAHIK_clean_linker_0, # of connection points: 2
#     Edge 114, Type (0, 0), BuildingBlock: UVAHIK_clean_linker_0, # of connection points: 2
#     Edge 115, Type (0, 0), BuildingBlock: UVAHIK_clean_linker_0, # of connection points: 2
#     Edge 116, Type (0, 0), BuildingBlock: UVAHIK_clean_linker_0, # of connection points: 2
#     Edge 117, Type (0, 0), BuildingBlock: UVAHIK_clean_linker_0, # of connection points: 2
#     Edge 118, Type (0, 0), BuildingBlock: UVAHIK_clean_linker_0, # of connection points: 2
#     Edge 119, Type (0, 0), BuildingBlock: UVAHIK_clean_linker_0, # of connection points: 2
#     Edge 120, Type (0, 0), BuildingBlock: UVAHIK_clean_linker_0, # of connection points: 2
#     Edge 121, Type (0, 0), BuildingBlock: UVAHIK_clean_linker_0, # of connection points: 2
#     Edge 122, Type (0, 0), BuildingBlock: UVAHIK_clean_linker_0, # of connection points: 2
#     Edge 123, Type (0, 0), BuildingBlock: UVAHIK_clean_linker_0, # of connection points: 2
#     Edge 124, Type (0, 0), BuildingBlock: UVAHIK_clean_linker_0, # of connection points: 2
#     Edge 125, Type (0, 0), BuildingBlock: UVAHIK_clean_linker_0, # of connection points: 2
#     Edge 126, Type (0, 0), BuildingBlock: UVAHIK_clean_linker_0, # of connection points: 2
#     Edge 127, Type (0, 0), BuildingBlock: UVAHIK_clean_linker_0, # of connection points: 2
# Relax obj value: 0.167
# Max RMSD: 0.165
# Mean RMSD: 0.165
data_MOF--net-flu-e--node1-IZENUY_clean_sbu_0--edge1-UVAHIK_clean_linker_0
_symmetry_space_group_name_H-M    P1
_symmetry_Int_Tables_number       1
_symmetry_cell_setting            triclinic
loop_
_symmetry_equiv_pos_as_xyz
'x, y, z'
_cell_length_a     68.833702
_cell_length_b     68.845703
_cell_length_c     68.838707
_cell_angle_alpha  89.99638
_cell_angle_beta   89.998767
_cell_angle_gamma 90.002733
loop_
_atom_site_label
_atom_site_type_symbol
_atom_site_fract_x
_atom_site_fract_y
_atom_site_fract_z
_atom_type_partial_charge
Fe0 Fe 0.13489 0.16671 0.36148 0.0
Fe1 Fe 0.16656 0.13525 0.36199 0.0
O2 O 0.14549 0.14556 0.35131 0.0
Fe3 Fe 0.13503 0.13478 0.33038 0.0
O4 O 0.1385 0.15669 0.31631 0.0
O5 O 0.12656 0.17666 0.33816 0.0
O6 O 0.15694 0.18049 0.35794 0.0
C7 C 0.17347 0.17574 0.36418 0.0
C8 C 0.1023 0.14592 0.35274 0.0
O9 O 0.17687 0.15859 0.3699 0.0
C10 C 0.14391 0.10243 0.35154 0.0
O11 O 0.14134 0.16069 0.38663 0.0
O12 O 0.1543 0.13156 0.38496 0.0
O13 O 0.10993 0.14137 0.33663 0.0
O14 O 0.11209 0.15435 0.3657 0.0
C15 C 0.17542 0.13183 0.3234 0.0
O16 O 0.16008 0.11007 0.35593 0.0
O17 O 0.13092 0.11215 0.34306 0.0
C18 C 0.14587 0.1447 0.39451 0.0
O19 O 0.18032 0.13828 0.33981 0.0
O20 O 0.15818 0.12623 0.32024 0.0
C21 C 0.13228 0.17325 0.32101 0.0
Fe22 Fe 0.8613 0.16687 0.36263 0.0
Fe23 Fe 0.86213 0.13647 0.33007 0.0
O24 O 0.85137 0.14591 0.35149 0.0
Fe25 Fe 0.83066 0.1345 0.36168 0.0
O26 O 0.81626 0.15635 0.3591 0.0
O27 O 0.83795 0.17623 0.37144 0.0
O28 O 0.85732 0.18122 0.34099 0.0
C29 C 0.86383 0.17712 0.3244 0.0
C30 C 0.8531 0.14499 0.39463 0.0
O31 O 0.87 0.16019 0.32065 0.0
C32 C 0.85202 0.1027 0.35139 0.0
O33 O 0.88649 0.16136 0.35585 0.0
O34 O 0.88507 0.13249 0.34229 0.0
O35 O 0.83704 0.14026 0.38696 0.0
O36 O 0.86584 0.15392 0.38499 0.0
C37 C 0.82358 0.13303 0.32118 0.0
O38 O 0.85617 0.11106 0.33553 0.0
O39 O 0.84363 0.11183 0.36487 0.0
C40 C 0.89449 0.14549 0.35108 0.0
O41 O 0.83991 0.13985 0.31646 0.0
O42 O 0.82051 0.12676 0.33821 0.0
C43 C 0.82081 0.17279 0.36572 0.0
Fe44 Fe 0.82991 0.86265 0.36038 0.0
Fe45 Fe 0.86238 0.86051 0.32987 0.0
O46 O 0.85096 0.85121 0.35095 0.0
Fe47 Fe 0.86056 0.83037 0.36253 0.0
O48 O 0.83696 0.82111 0.37081 0.0
O49 O 0.81565 0.84074 0.35746 0.0
O50 O 0.82053 0.87029 0.33652 0.0
C51 C 0.82416 0.86385 0.31966 0.0
C52 C 0.85141 0.85254 0.39407 0.0
O53 O 0.84062 0.85694 0.31562 0.0
C54 C 0.89414 0.85159 0.35176 0.0
O55 O 0.84275 0.88533 0.36389 0.0
O56 O 0.85622 0.88597 0.33496 0.0
O57 O 0.86449 0.84362 0.38486 0.0
O58 O 0.83551 0.85698 0.3859 0.0
C59 C 0.86414 0.81984 0.32449 0.0
O60 O 0.88491 0.86463 0.34281 0.0
O61 O 0.88593 0.83576 0.35634 0.0
C62 C 0.85157 0.8944 0.35064 0.0
O63 O 0.87054 0.83671 0.32087 0.0
O64 O 0.85715 0.81584 0.34092 0.0
C65 C 0.82001 0.82441 0.36448 0.0
Fe66 Fe 0.13415 0.86176 0.33078 0.0
Fe67 Fe 0.1665 0.86279 0.36157 0.0
O68 O 0.14547 0.85169 0.35161 0.0
Fe69 Fe 0.13578 0.83043 0.36243 0.0
O70 O 0.13921 0.81663 0.34035 0.0
O71 O 0.12623 0.83829 0.32082 0.0
O72 O 0.15599 0.85889 0.31649 0.0
C73 C 0.17249 0.86546 0.32094 0.0
C74 C 0.10224 0.85195 0.35214 0.0
O75 O 0.17612 0.87111 0.33808 0.0
C76 C 0.14474 0.85155 0.39476 0.0
O77 O 0.14009 0.887 0.33688 0.0
O78 O 0.15377 0.88542 0.36569 0.0
O79 O 0.11044 0.83603 0.35632 0.0
O80 O 0.1115 0.86528 0.34368 0.0
C81 C 0.17633 0.82441 0.3645 0.0
O82 O 0.16066 0.85639 0.38685 0.0
O83 O 0.13177 0.84285 0.38521 0.0
C84 C 0.1448 0.89486 0.35282 0.0
O85 O 0.18073 0.84097 0.35808 0.0
O86 O 0.15932 0.82085 0.3705 0.0
C87 C 0.13247 0.82126 0.32398 0.0
Fe88 Fe 0.13382 0.8306 0.63584 0.0
Fe89 Fe 0.1661 0.86139 0.63487 0.0
O90 O 0.14514 0.85135 0.64598 0.0
Fe91 Fe 0.13551 0.86198 0.66736 0.0
O92 O 0.13919 0.83985 0.681 0.0
O93 O 0.12602 0.82049 0.65931 0.0
O94 O 0.1557 0.81633 0.6386 0.0
C95 C 0.17216 0.8208 0.63195 0.0
C96 C 0.10187 0.85162 0.64604 0.0
O97 O 0.17572 0.83796 0.62633 0.0
C98 C 0.14422 0.89441 0.6463 0.0
O99 O 0.13967 0.83682 0.61059 0.0
O100 O 0.15332 0.86563 0.61228 0.0
O101 O 0.11016 0.85565 0.66195 0.0
O102 O 0.11114 0.84355 0.63247 0.0
C103 C 0.17605 0.8642 0.67323 0.0
O104 O 0.16018 0.88659 0.64145 0.0
O105 O 0.1313 0.8848 0.65503 0.0
C106 C 0.14443 0.85277 0.60277 0.0
O107 O 0.18041 0.85779 0.65665 0.0
O108 O 0.15904 0.87019 0.67682 0.0
C109 C 0.13245 0.8235 0.67629 0.0
Fe110 Fe 0.13525 0.13539 0.66699 0.0
Fe111 Fe 0.16687 0.13478 0.63549 0.0
O112 O 0.14573 0.14542 0.6457 0.0
Fe113 Fe 0.13511 0.16615 0.63469 0.0
O114 O 0.13839 0.18046 0.65647 0.0
O115 O 0.12677 0.15874 0.67675 0.0
O116 O 0.15731 0.1392 0.68069 0.0
C117 C 0.17383 0.13289 0.676 0.0
C118 C 0.10254 0.14366 0.64617 0.0
O119 O 0.1772 0.12704 0.65888 0.0
C120 C 0.1443 0.14491 0.6025 0.0
O121 O 0.14184 0.11024 0.66115 0.0
O122 O 0.15469 0.11175 0.63195 0.0
O123 O 0.11004 0.15974 0.64128 0.0
O124 O 0.11245 0.1309 0.65475 0.0
C125 C 0.17548 0.1734 0.63185 0.0
O126 O 0.16045 0.14065 0.61025 0.0
O127 O 0.13118 0.15327 0.61214 0.0
C128 C 0.14628 0.10228 0.64517 0.0
O129 O 0.1805 0.15706 0.6384 0.0
O130 O 0.15824 0.17641 0.62616 0.0
C131 C 0.13225 0.17591 0.67309 0.0
Fe132 Fe 0.86099 0.13381 0.66666 0.0
Fe133 Fe 0.86313 0.16573 0.63572 0.0
O134 O 0.85155 0.1449 0.64546 0.0
Fe135 Fe 0.8305 0.13531 0.63414 0.0
O136 O 0.81614 0.13867 0.65591 0.0
O137 O 0.83732 0.12586 0.67603 0.0
O138 O 0.85756 0.15582 0.68058 0.0
C139 C 0.86467 0.1721 0.6762 0.0
C140 C 0.85187 0.1018 0.64518 0.0
O141 O 0.87129 0.17521 0.65932 0.0
C142 C 0.85234 0.14427 0.60229 0.0
O143 O 0.88646 0.1397 0.66119 0.0
O144 O 0.88558 0.15262 0.63201 0.0
O145 O 0.83606 0.10989 0.64028 0.0
O146 O 0.86487 0.11114 0.65406 0.0
C147 C 0.82494 0.17603 0.63212 0.0
O148 O 0.85709 0.16011 0.61036 0.0
O149 O 0.84334 0.13132 0.61157 0.0
C150 C 0.89472 0.14392 0.64528 0.0
O151 O 0.84143 0.18015 0.6389 0.0
O152 O 0.82121 0.15905 0.62602 0.0
C153 C 0.82036 0.13198 0.67241 0.0
Fe154 Fe 0.86219 0.86066 0.66544 0.0
Fe155 Fe 0.82944 0.86199 0.6351 0.0
O156 O 0.8505 0.85078 0.64476 0.0
Fe157 Fe 0.8599 0.82952 0.63375 0.0
O158 O 0.85623 0.8157 0.65578 0.0
O159 O 0.87005 0.837 0.67514 0.0
O160 O 0.8405 0.85795 0.68006 0.0
C161 C 0.82397 0.86459 0.67581 0.0
C162 C 0.89379 0.85048 0.64391 0.0
O163 O 0.82016 0.87027 0.65872 0.0
C164 C 0.85097 0.85104 0.60171 0.0
O165 O 0.85635 0.88598 0.65953 0.0
O166 O 0.84221 0.88457 0.63092 0.0
O167 O 0.88534 0.83465 0.63993 0.0
O168 O 0.88469 0.86406 0.65216 0.0
C169 C 0.81938 0.82376 0.63192 0.0
O170 O 0.83504 0.85564 0.60976 0.0
O171 O 0.864 0.84219 0.61108 0.0
C172 C 0.85134 0.89395 0.64372 0.0
O173 O 0.81514 0.84022 0.63868 0.0
O174 O 0.83627 0.82029 0.62558 0.0
C175 C 0.86334 0.82012 0.67206 0.0
Fe176 Fe 0.36093 0.13474 0.1667 0.0
Fe177 Fe 0.36188 0.1666 0.13549 0.0
O178 O 0.351 0.1455 0.14551 0.0
Fe179 Fe 0.33011 0.13524 0.13441 0.0
O180 O 0.31586 0.13847 0.15624 0.0
O181 O 0.33748 0.12642 0.17639 0.0
O182 O 0.35734 0.15672 0.18061 0.0
C183 C 0.36372 0.17324 0.176 0.0
C184 C 0.35227 0.10232 0.14557 0.0
O185 O 0.3697 0.17664 0.15894 0.0
C186 C 0.35161 0.14441 0.10236 0.0
O187 O 0.3862 0.14112 0.16094 0.0
O188 O 0.38478 0.15424 0.13187 0.0
O189 O 0.33627 0.11006 0.14076 0.0
O190 O 0.36516 0.112 0.15424 0.0
C191 C 0.32339 0.17573 0.13184 0.0
O192 O 0.356 0.16045 0.11023 0.0
O193 O 0.34291 0.13136 0.11178 0.0
C194 C 0.39424 0.14579 0.14506 0.0
O195 O 0.33977 0.18045 0.13847 0.0
O196 O 0.3201 0.15856 0.12609 0.0
C197 C 0.32035 0.13207 0.17278 0.0
Fe198 Fe 0.8604 0.36324 0.1663 0.0
Fe199 Fe 0.83046 0.36085 0.13341 0.0
O200 O 0.85133 0.35159 0.14526 0.0
Fe201 Fe 0.86305 0.3306 0.13617 0.0
O202 O 0.87082 0.32166 0.16011 0.0
O203 O 0.8569 0.34158 0.18076 0.0
O204 O 0.83647 0.37131 0.17508 0.0
C205 C 0.81968 0.36472 0.1714 0.0
C206 C 0.89449 0.35267 0.14574 0.0
O207 O 0.81584 0.35761 0.15499 0.0
C208 C 0.85288 0.35143 0.10214 0.0
O209 O 0.8644 0.3856 0.15314 0.0
O210 O 0.83565 0.3864 0.1393 0.0
O211 O 0.88555 0.34371 0.13251 0.0
O212 O 0.88596 0.35726 0.1614 0.0
C213 C 0.82498 0.32015 0.1321 0.0
O214 O 0.84377 0.36458 0.11104 0.0
O215 O 0.85736 0.33571 0.11061 0.0
C216 C 0.85141 0.3947 0.14399 0.0
O217 O 0.82147 0.33696 0.12544 0.0
O218 O 0.84132 0.3162 0.13933 0.0
C219 C 0.86409 0.32521 0.17687 0.0
Fe220 Fe 0.66587 0.86134 0.13321 0.0
Fe221 Fe 0.63605 0.86244 0.1663 0.0
O222 O 0.64535 0.85127 0.14506 0.0
Fe223 Fe 0.63425 0.82995 0.13581 0.0
O224 O 0.65649 0.8162 0.13852 0.0
O225 O 0.67565 0.8379 0.12505 0.0
O226 O 0.6807 0.85841 0.15469 0.0
C227 C 0.67672 0.86517 0.17122 0.0
C228 C 0.64366 0.85146 0.1019 0.0
O229 O 0.65974 0.87113 0.17508 0.0
C230 C 0.60218 0.85098 0.14583 0.0
O231 O 0.65985 0.88665 0.13929 0.0
O232 O 0.63131 0.88485 0.15348 0.0
O233 O 0.63948 0.83558 0.11024 0.0
O234 O 0.65243 0.86478 0.1109 0.0
C235 C 0.63362 0.82418 0.17652 0.0
O236 O 0.61065 0.8558 0.16145 0.0
O237 O 0.61127 0.84226 0.13254 0.0
C238 C 0.64394 0.89443 0.14433 0.0
O239 O 0.64026 0.84076 0.18048 0.0
O240 O 0.62705 0.82044 0.15973 0.0
C241 C 0.67269 0.82088 0.1314 0.0
Fe242 Fe 0.135 0.63562 0.16713 0.0
Fe243 Fe 0.16621 0.63471 0.13524 0.0
O244 O 0.14543 0.64567 0.14583 0.0
Fe245 Fe 0.13513 0.66674 0.13517 0.0
O246 O 0.13893 0.68074 0.15704 0.0
O247 O 0.1271 0.65903 0.17723 0.0
O248 O 0.15731 0.63887 0.18061 0.0
C249 C 0.17365 0.63233 0.17561 0.0
C250 C 0.10223 0.64477 0.14675 0.0
O251 O 0.17665 0.62652 0.15841 0.0
C252 C 0.14344 0.64559 0.10268 0.0
O253 O 0.14104 0.61038 0.16097 0.0
O254 O 0.15353 0.61198 0.13162 0.0
O255 O 0.11001 0.66075 0.14197 0.0
O256 O 0.11198 0.63172 0.15511 0.0
C257 C 0.17563 0.67314 0.13184 0.0
O258 O 0.15961 0.64096 0.11016 0.0
O259 O 0.13065 0.65419 0.11254 0.0
C260 C 0.14523 0.60248 0.14489 0.0
O261 O 0.18034 0.65664 0.13819 0.0
O262 O 0.15838 0.67663 0.12647 0.0
C263 C 0.1328 0.67615 0.17366 0.0
Fe264 Fe 0.33082 0.86177 0.86235 0.0
Fe265 Fe 0.36138 0.86217 0.82989 0.0
O266 O 0.35161 0.85148 0.85117 0.0
Fe267 Fe 0.36265 0.83046 0.86111 0.0
O268 O 0.34056 0.81649 0.8583 0.0
O269 O 0.32085 0.83842 0.87063 0.0
O270 O 0.31644 0.85857 0.84056 0.0
C271 C 0.32092 0.86498 0.82401 0.0
C272 C 0.35241 0.85252 0.89437 0.0
O273 O 0.33799 0.87082 0.8205 0.0
C274 C 0.39482 0.85133 0.85119 0.0
O275 O 0.33713 0.88694 0.85601 0.0
O276 O 0.36596 0.88482 0.84238 0.0
O277 O 0.35689 0.83654 0.88642 0.0
O278 O 0.34369 0.86558 0.88497 0.0
C279 C 0.36395 0.82377 0.82054 0.0
O280 O 0.38665 0.85545 0.83523 0.0
O281 O 0.38547 0.84312 0.86461 0.0
C282 C 0.35319 0.89457 0.85117 0.0
O283 O 0.3573 0.84023 0.81611 0.0
O284 O 0.37035 0.82047 0.8375 0.0
C285 C 0.32415 0.82124 0.86491 0.0
Fe286 Fe 0.1359 0.36157 0.83004 0.0
Fe287 Fe 0.16718 0.36181 0.86188 0.0
O288 O 0.14617 0.35128 0.8513 0.0
Fe289 Fe 0.13547 0.33038 0.86191 0.0
O290 O 0.13903 0.31635 0.83999 0.0
O291 O 0.12754 0.33834 0.81992 0.0
O292 O 0.1581 0.35794 0.81652 0.0
C293 C 0.17458 0.36419 0.82147 0.0
C294 C 0.10298 0.35297 0.85039 0.0
O295 O 0.17776 0.36981 0.8387 0.0
C296 C 0.14419 0.35132 0.89445 0.0
O297 O 0.14241 0.38666 0.83623 0.0
O298 O 0.15497 0.38482 0.86554 0.0
O299 O 0.11047 0.33684 0.85512 0.0
O300 O 0.11297 0.36588 0.8421 0.0
C301 C 0.17581 0.32316 0.8652 0.0
O302 O 0.16044 0.35567 0.88697 0.0
O303 O 0.13123 0.34298 0.88457 0.0
C304 C 0.14676 0.39446 0.85232 0.0
O305 O 0.18087 0.33958 0.85889 0.0
O306 O 0.1585 0.32005 0.87061 0.0
C307 C 0.133 0.32112 0.82338 0.0
Fe308 Fe 0.63565 0.13389 0.83054 0.0
Fe309 Fe 0.63557 0.16654 0.86087 0.0
O310 O 0.64612 0.14514 0.85119 0.0
Fe311 Fe 0.6672 0.13504 0.86204 0.0
O312 O 0.68094 0.13765 0.83979 0.0
O313 O 0.65878 0.12507 0.82059 0.0
O314 O 0.63923 0.15545 0.816 0.0
C315 C 0.63293 0.1721 0.82022 0.0
C316 C 0.64451 0.10202 0.85234 0.0
O317 O 0.62722 0.17596 0.83729 0.0
C318 C 0.64656 0.1452 0.89437 0.0
O319 O 0.61056 0.14069 0.83661 0.0
O320 O 0.61273 0.15434 0.86537 0.0
O321 O 0.66071 0.10973 0.85649 0.0
O322 O 0.63149 0.11159 0.84374 0.0
C323 C 0.67418 0.17557 0.86342 0.0
O324 O 0.64202 0.16104 0.88616 0.0
O325 O 0.65492 0.13184 0.88506 0.0
C326 C 0.6029 0.14569 0.85259 0.0
O327 O 0.65767 0.18021 0.85702 0.0
O328 O 0.67751 0.15852 0.8695 0.0
C329 C 0.67599 0.13088 0.82353 0.0
Fe330 Fe 0.86133 0.66644 0.86181 0.0
Fe331 Fe 0.86232 0.63523 0.83003 0.0
O332 O 0.85142 0.64524 0.85112 0.0
Fe333 Fe 0.83053 0.63421 0.8614 0.0
O334 O 0.8163 0.65608 0.85818 0.0
O335 O 0.83797 0.67609 0.87028 0.0
O336 O 0.85747 0.68023 0.83979 0.0
C337 C 0.86408 0.6757 0.82334 0.0
C338 C 0.85283 0.64538 0.89428 0.0
O339 O 0.87033 0.6587 0.82008 0.0
C340 C 0.85187 0.60209 0.85215 0.0
O341 O 0.88656 0.66072 0.8553 0.0
O342 O 0.88516 0.63151 0.8425 0.0
O343 O 0.8368 0.64054 0.88659 0.0
O344 O 0.86569 0.65403 0.88452 0.0
C345 C 0.82377 0.63181 0.82091 0.0
O346 O 0.85629 0.60998 0.83612 0.0
O347 O 0.84328 0.61155 0.86525 0.0
C348 C 0.89459 0.64475 0.85093 0.0
O349 O 0.84021 0.63833 0.81615 0.0
O350 O 0.82052 0.62597 0.83807 0.0
C351 C 0.82086 0.67262 0.86452 0.0
Fe352 Fe 0.16678 0.3614 0.13385 0.0
Fe353 Fe 0.13656 0.36232 0.16659 0.0
O354 O 0.14598 0.35139 0.14526 0.0
Fe355 Fe 0.13466 0.33044 0.13549 0.0
O356 O 0.15666 0.31629 0.13805 0.0
O357 O 0.17638 0.33798 0.12541 0.0
O358 O 0.18128 0.35793 0.15552 0.0
C359 C 0.17717 0.36472 0.17199 0.0
C360 C 0.14472 0.35243 0.1021 0.0
O361 O 0.1602 0.37079 0.17566 0.0
C362 C 0.10276 0.35161 0.14574 0.0
O363 O 0.1609 0.38668 0.14025 0.0
O364 O 0.13213 0.38492 0.15401 0.0
O365 O 0.14013 0.3365 0.1101 0.0
O366 O 0.15372 0.36539 0.11139 0.0
C367 C 0.13373 0.32391 0.17609 0.0
O368 O 0.11119 0.35589 0.16152 0.0
O369 O 0.11185 0.34316 0.13229 0.0
C370 C 0.14496 0.39452 0.14515 0.0
O371 O 0.14044 0.34037 0.18051 0.0
O372 O 0.12725 0.32057 0.15918 0.0
C373 C 0.17302 0.32086 0.13123 0.0
Fe374 Fe 0.16688 0.63582 0.86327 0.0
Fe375 Fe 0.13603 0.63462 0.83105 0.0
O376 O 0.14592 0.64576 0.85207 0.0
Fe377 Fe 0.13496 0.66692 0.86182 0.0
O378 O 0.15697 0.68088 0.85859 0.0
O379 O 0.17669 0.6593 0.87137 0.0
O380 O 0.18101 0.63905 0.84139 0.0
C381 C 0.17661 0.63237 0.82494 0.0
C382 C 0.14532 0.64516 0.89519 0.0
O383 O 0.15957 0.62632 0.82148 0.0
C384 C 0.10271 0.64575 0.85263 0.0
O385 O 0.16097 0.6105 0.85715 0.0
O386 O 0.132 0.61205 0.84386 0.0
O387 O 0.14093 0.66111 0.88714 0.0
O388 O 0.1541 0.63204 0.88592 0.0
C389 C 0.13296 0.67296 0.82121 0.0
O390 O 0.11072 0.64093 0.83677 0.0
O391 O 0.11219 0.65442 0.86566 0.0
C392 C 0.14503 0.60255 0.85252 0.0
O393 O 0.13945 0.65643 0.81682 0.0
O394 O 0.12702 0.67657 0.83824 0.0
C395 C 0.17337 0.67635 0.86531 0.0
Fe396 Fe 0.36134 0.16672 0.86247 0.0
Fe397 Fe 0.36262 0.13568 0.83046 0.0
O398 O 0.3516 0.1455 0.85158 0.0
Fe399 Fe 0.3308 0.13419 0.86176 0.0
O400 O 0.31636 0.15593 0.85866 0.0
O401 O 0.33782 0.17615 0.87086 0.0
O402 O 0.35762 0.1807 0.84056 0.0
C403 C 0.36411 0.17624 0.82404 0.0
C404 C 0.35289 0.14527 0.89473 0.0
O405 O 0.37029 0.15926 0.8206 0.0
C406 C 0.35248 0.10231 0.85238 0.0
O407 O 0.38664 0.16123 0.85606 0.0
O408 O 0.38551 0.13216 0.84292 0.0
O409 O 0.33691 0.14041 0.88699 0.0
O410 O 0.36568 0.15414 0.8851 0.0
C411 C 0.32416 0.13187 0.82124 0.0
O412 O 0.3569 0.11034 0.83642 0.0
O413 O 0.34375 0.11162 0.8655 0.0
C414 C 0.39481 0.14539 0.8515 0.0
O415 O 0.34053 0.13859 0.81656 0.0
O416 O 0.32089 0.12598 0.83836 0.0
C417 C 0.32072 0.17247 0.86516 0.0
Fe418 Fe 0.86113 0.36216 0.82979 0.0
Fe419 Fe 0.86334 0.33003 0.86056 0.0
O420 O 0.85195 0.35109 0.85112 0.0
Fe421 Fe 0.83131 0.36094 0.8629 0.0
O422 O 0.81651 0.35775 0.84143 0.0
O423 O 0.83734 0.3704 0.82087 0.0
O424 O 0.85725 0.34022 0.81583 0.0
C425 C 0.86433 0.32388 0.82002 0.0
C426 C 0.85279 0.39425 0.85151 0.0
O427 O 0.87106 0.3206 0.83681 0.0
C428 C 0.85355 0.35146 0.89429 0.0
O429 O 0.88662 0.35597 0.83486 0.0
O430 O 0.88602 0.34284 0.86398 0.0
O431 O 0.83701 0.3863 0.85671 0.0
O432 O 0.8655 0.38478 0.84235 0.0
C433 C 0.82507 0.32036 0.86471 0.0
O434 O 0.85772 0.33556 0.88602 0.0
O435 O 0.84473 0.36468 0.88521 0.0
C436 C 0.89505 0.35156 0.85064 0.0
O437 O 0.84137 0.3159 0.85767 0.0
O438 O 0.82186 0.33734 0.87109 0.0
C439 C 0.8204 0.3644 0.82484 0.0
Fe440 Fe 0.63529 0.86199 0.83017 0.0
Fe441 Fe 0.66678 0.86214 0.86181 0.0
O442 O 0.64601 0.85137 0.85103 0.0
Fe443 Fe 0.63594 0.82988 0.86104 0.0
O444 O 0.63996 0.81663 0.83873 0.0
O445 O 0.62749 0.8388 0.81945 0.0
O446 O 0.65749 0.85934 0.81636 0.0
C447 C 0.67392 0.86564 0.82143 0.0
C448 C 0.60281 0.85181 0.85047 0.0
O449 O 0.67708 0.87092 0.83879 0.0
C450 C 0.64404 0.85022 0.8941 0.0
O451 O 0.6412 0.88704 0.83698 0.0
O452 O 0.65407 0.88476 0.8661 0.0
O453 O 0.61079 0.8357 0.8543 0.0
O454 O 0.61236 0.86534 0.84267 0.0
C455 C 0.67639 0.82366 0.86416 0.0
O456 O 0.66018 0.85521 0.88675 0.0
O457 O 0.63132 0.84174 0.88402 0.0
C458 C 0.6455 0.89452 0.85321 0.0
O459 O 0.68101 0.84034 0.85823 0.0
O460 O 0.6592 0.82001 0.86956 0.0
C461 C 0.63358 0.82167 0.82234 0.0
Fe462 Fe 0.86048 0.63394 0.16622 0.0
Fe463 Fe 0.86218 0.66659 0.1359 0.0
O464 O 0.85086 0.64548 0.14533 0.0
Fe465 Fe 0.82981 0.63592 0.13401 0.0
O466 O 0.81564 0.6391 0.1559 0.0
O467 O 0.83684 0.62563 0.17552 0.0
O468 O 0.85706 0.6556 0.18069 0.0
C469 C 0.86387 0.67209 0.17662 0.0
C470 C 0.85134 0.60234 0.1442 0.0
O471 O 0.87009 0.67581 0.1597 0.0
C472 C 0.85152 0.64537 0.1022 0.0
O473 O 0.88587 0.64014 0.16085 0.0
O474 O 0.88485 0.65386 0.13205 0.0
O475 O 0.8354 0.61047 0.13987 0.0
O476 O 0.86445 0.61158 0.15302 0.0
C477 C 0.82386 0.67653 0.13235 0.0
O478 O 0.85626 0.66113 0.11045 0.0
O479 O 0.84259 0.63226 0.11135 0.0
C480 C 0.89409 0.64495 0.1451 0.0
O481 O 0.84031 0.68082 0.13914 0.0
O482 O 0.82036 0.65958 0.12612 0.0
C483 C 0.8199 0.63201 0.17221 0.0
Fe484 Fe 0.3611 0.86119 0.16675 0.0
Fe485 Fe 0.32986 0.8621 0.13487 0.0
O486 O 0.35073 0.85122 0.14538 0.0
Fe487 Fe 0.36119 0.8303 0.13457 0.0
O488 O 0.35748 0.8161 0.15636 0.0
O489 O 0.36914 0.83777 0.17669 0.0
O490 O 0.33882 0.85773 0.18021 0.0
C491 C 0.32243 0.86421 0.17529 0.0
C492 C 0.39396 0.85237 0.14637 0.0
O493 O 0.31935 0.87005 0.15811 0.0
C494 C 0.3527 0.85158 0.10219 0.0
O495 O 0.35492 0.88642 0.16075 0.0
O496 O 0.34237 0.88497 0.13142 0.0
O497 O 0.38626 0.8364 0.14143 0.0
O498 O 0.38412 0.86531 0.15477 0.0
C499 C 0.32076 0.8236 0.13123 0.0
O500 O 0.33652 0.85608 0.10973 0.0
O501 O 0.36557 0.84305 0.11202 0.0
C502 C 0.35069 0.8944 0.14472 0.0
O503 O 0.3159 0.84002 0.13768 0.0
O504 O 0.33803 0.82033 0.12579 0.0
C505 C 0.36355 0.82063 0.17302 0.0
Fe506 Fe 0.63455 0.1353 0.16662 0.0
Fe507 Fe 0.66671 0.13412 0.13575 0.0
O508 O 0.64578 0.1453 0.14573 0.0
Fe509 Fe 0.63617 0.1666 0.13495 0.0
O510 O 0.63979 0.1803 0.15709 0.0
O511 O 0.62648 0.15878 0.17649 0.0
O512 O 0.65643 0.13829 0.18083 0.0
C513 C 0.67287 0.13163 0.17632 0.0
C514 C 0.60259 0.14504 0.14542 0.0
O515 O 0.67632 0.12573 0.15922 0.0
C516 C 0.64503 0.14558 0.10256 0.0
O517 O 0.64054 0.11003 0.1606 0.0
O518 O 0.65385 0.11158 0.13162 0.0
O519 O 0.61074 0.16099 0.14109 0.0
O520 O 0.61195 0.13172 0.15377 0.0
C521 C 0.6768 0.17242 0.13282 0.0
O522 O 0.6609 0.1406 0.11048 0.0
O523 O 0.63208 0.15429 0.11213 0.0
C524 C 0.64505 0.10214 0.14459 0.0
O525 O 0.681 0.15585 0.13932 0.0
O526 O 0.6598 0.17613 0.12684 0.0
C527 C 0.6329 0.17574 0.17342 0.0
Fe528 Fe 0.36182 0.63604 0.66616 0.0
Fe529 Fe 0.36029 0.66661 0.63386 0.0
O530 O 0.35057 0.64565 0.64514 0.0
Fe531 Fe 0.32953 0.63442 0.63549 0.0
O532 O 0.32002 0.62648 0.65919 0.0
O533 O 0.34002 0.63958 0.68033 0.0
O534 O 0.37009 0.65966 0.67548 0.0
C535 C 0.36378 0.67661 0.67208 0.0
C536 C 0.35101 0.60248 0.64489 0.0
O537 O 0.35687 0.68088 0.65567 0.0
C538 C 0.35119 0.64488 0.60202 0.0
O539 O 0.38437 0.63196 0.65328 0.0
O540 O 0.38564 0.66099 0.64009 0.0
O541 O 0.3423 0.61174 0.63171 0.0
O542 O 0.35555 0.61069 0.66072 0.0
C543 C 0.31971 0.6727 0.63176 0.0
O544 O 0.36426 0.65364 0.61138 0.0
O545 O 0.33523 0.64041 0.61007 0.0
C546 C 0.39373 0.64506 0.64457 0.0
O547 O 0.33671 0.67607 0.62558 0.0
O548 O 0.31538 0.65633 0.63871 0.0
C549 C 0.32355 0.63279 0.67613 0.0
Fe550 Fe 0.66702 0.36247 0.63623 0.0
Fe551 Fe 0.63433 0.35994 0.6664 0.0
O552 O 0.64604 0.35077 0.64543 0.0
Fe553 Fe 0.63683 0.32981 0.63375 0.0
O554 O 0.66068 0.32086 0.62569 0.0
O555 O 0.68147 0.34077 0.63941 0.0
O556 O 0.67605 0.3703 0.66015 0.0
C557 C 0.67241 0.36372 0.67696 0.0
C558 C 0.64601 0.35211 0.60233 0.0
O559 O 0.656 0.3566 0.68086 0.0
C560 C 0.60287 0.35062 0.64428 0.0
O561 O 0.65392 0.38496 0.63253 0.0
O562 O 0.64025 0.38546 0.66136 0.0
O563 O 0.63295 0.34303 0.61139 0.0
O564 O 0.6618 0.35669 0.61066 0.0
C565 C 0.63299 0.31926 0.67178 0.0
O566 O 0.6119 0.36379 0.65324 0.0
O567 O 0.6113 0.3349 0.63971 0.0
C568 C 0.6449 0.39394 0.64569 0.0
O569 O 0.62635 0.33606 0.6753 0.0
O570 O 0.64019 0.31531 0.65542 0.0
C571 C 0.67752 0.32441 0.63222 0.0
Fe572 Fe 0.33049 0.36139 0.36194 0.0
Fe573 Fe 0.36195 0.36251 0.33036 0.0
O574 O 0.35163 0.3514 0.35119 0.0
Fe575 Fe 0.36235 0.33024 0.36115 0.0
O576 O 0.34038 0.31631 0.3575 0.0
O577 O 0.32049 0.33795 0.36989 0.0
O578 O 0.31681 0.35811 0.33976 0.0
C579 C 0.32155 0.36487 0.32343 0.0
C580 C 0.35137 0.35203 0.39431 0.0
O581 O 0.33863 0.371 0.32039 0.0
C582 C 0.3948 0.35131 0.35255 0.0
O583 O 0.3366 0.38669 0.35592 0.0
O584 O 0.36588 0.38501 0.3433 0.0
O585 O 0.3559 0.33606 0.38634 0.0
O586 O 0.3428 0.36516 0.38486 0.0
C587 C 0.36494 0.32413 0.32061 0.0
O588 O 0.38712 0.35604 0.3365 0.0
O589 O 0.38505 0.34271 0.36543 0.0
C590 C 0.35272 0.39455 0.35173 0.0
O591 O 0.35864 0.3407 0.31606 0.0
O592 O 0.3707 0.32059 0.33772 0.0
C593 C 0.32388 0.32089 0.36391 0.0
Fe594 Fe 0.66667 0.63431 0.36162 0.0
Fe595 Fe 0.63468 0.63641 0.33061 0.0
O596 O 0.64574 0.6457 0.35189 0.0
Fe597 Fe 0.63591 0.66649 0.36337 0.0
O598 O 0.65936 0.67577 0.37202 0.0
O599 O 0.68091 0.65626 0.35889 0.0
O600 O 0.67642 0.62666 0.33792 0.0
C601 C 0.67305 0.63308 0.32099 0.0
C602 C 0.64463 0.64427 0.39498 0.0
O603 O 0.65666 0.64002 0.31671 0.0
C604 C 0.60256 0.64524 0.35201 0.0
O605 O 0.65383 0.61159 0.36493 0.0
O606 O 0.64079 0.61097 0.3358 0.0
O607 O 0.63166 0.65317 0.38561 0.0
O608 O 0.66069 0.63996 0.38705 0.0
C609 C 0.63299 0.67708 0.32526 0.0
O610 O 0.61194 0.63224 0.34317 0.0
O611 O 0.61065 0.66107 0.35676 0.0
C612 C 0.64522 0.60253 0.35154 0.0
O613 O 0.62664 0.66022 0.32151 0.0
O614 O 0.63964 0.68107 0.34184 0.0
C615 C 0.67638 0.67258 0.36583 0.0
Fe616 Fe 0.36112 0.66657 0.36211 0.0
Fe617 Fe 0.36244 0.63525 0.33043 0.0
O618 O 0.35118 0.64547 0.35121 0.0
Fe619 Fe 0.32995 0.63469 0.36108 0.0
O620 O 0.31605 0.65671 0.35741 0.0
O621 O 0.33766 0.67642 0.37012 0.0
O622 O 0.35793 0.68046 0.34004 0.0
C623 C 0.36457 0.67574 0.32365 0.0
C624 C 0.3517 0.6455 0.39434 0.0
O625 O 0.3706 0.65864 0.32046 0.0
C626 C 0.35131 0.60233 0.35255 0.0
O627 O 0.38639 0.6607 0.35605 0.0
O628 O 0.38504 0.63149 0.34336 0.0
O629 O 0.3357 0.64114 0.38634 0.0
O630 O 0.3649 0.65397 0.38487 0.0
C631 C 0.3241 0.63192 0.32048 0.0
O632 O 0.35621 0.61009 0.33661 0.0
O633 O 0.34237 0.61191 0.36535 0.0
C634 C 0.39442 0.64471 0.35184 0.0
O635 O 0.34067 0.63832 0.31606 0.0
O636 O 0.32037 0.62635 0.33762 0.0
C637 C 0.32066 0.67317 0.36392 0.0
Fe638 Fe 0.636 0.33029 0.36315 0.0
Fe639 Fe 0.63429 0.36037 0.33039 0.0
O640 O 0.6457 0.35104 0.35148 0.0
Fe641 Fe 0.66687 0.36235 0.36077 0.0
O642 O 0.68097 0.34037 0.35782 0.0
O643 O 0.65959 0.32081 0.37121 0.0
O644 O 0.63913 0.31571 0.34149 0.0
C645 C 0.63207 0.31977 0.32511 0.0
C646 C 0.64555 0.35242 0.39461 0.0
O647 O 0.62575 0.33667 0.32155 0.0
C648 C 0.64541 0.39421 0.35103 0.0
O649 O 0.6106 0.33599 0.35719 0.0
O650 O 0.61187 0.36476 0.34339 0.0
O651 O 0.66141 0.35678 0.38632 0.0
O652 O 0.63236 0.34356 0.38552 0.0
C653 C 0.67247 0.36332 0.32004 0.0
O654 O 0.64075 0.38577 0.33535 0.0
O655 O 0.65417 0.38512 0.36429 0.0
C656 C 0.60257 0.35188 0.35249 0.0
O657 O 0.65596 0.35648 0.31608 0.0
O658 O 0.67616 0.36989 0.33684 0.0
C659 C 0.67655 0.32406 0.36485 0.0
Fe660 Fe 0.36269 0.36096 0.66615 0.0
Fe661 Fe 0.33055 0.36241 0.6352 0.0
O662 O 0.35137 0.35105 0.64525 0.0
Fe663 Fe 0.36089 0.32969 0.63448 0.0
O664 O 0.35717 0.31592 0.65654 0.0
O665 O 0.37043 0.33742 0.67604 0.0
O666 O 0.34078 0.35819 0.68032 0.0
C667 C 0.32437 0.36492 0.67581 0.0
C668 C 0.39458 0.35092 0.6449 0.0
O669 O 0.32087 0.3707 0.65868 0.0
C670 C 0.35238 0.35099 0.60213 0.0
O671 O 0.35689 0.38626 0.6602 0.0
O672 O 0.34357 0.38494 0.63124 0.0
O673 O 0.38625 0.33504 0.64075 0.0
O674 O 0.3854 0.36436 0.6533 0.0
C675 C 0.32026 0.32415 0.63203 0.0
O676 O 0.33649 0.35606 0.60995 0.0
O677 O 0.36517 0.34207 0.61172 0.0
C678 C 0.35234 0.3943 0.6443 0.0
O679 O 0.31602 0.34074 0.63848 0.0
O680 O 0.3373 0.32036 0.62625 0.0
C681 C 0.36393 0.3205 0.67292 0.0
Fe682 Fe 0.63423 0.6358 0.66683 0.0
Fe683 Fe 0.66612 0.63406 0.63565 0.0
O684 O 0.64513 0.64526 0.64552 0.0
Fe685 Fe 0.63507 0.66599 0.63407 0.0
O686 O 0.63863 0.68062 0.65559 0.0
O687 O 0.6262 0.65951 0.67608 0.0
O688 O 0.65626 0.63937 0.6807 0.0
C689 C 0.67271 0.63271 0.67623 0.0
C690 C 0.60192 0.64454 0.64555 0.0
O691 O 0.67608 0.62648 0.65924 0.0
C692 C 0.64391 0.6439 0.60238 0.0
O693 O 0.6404 0.61043 0.66148 0.0
O694 O 0.65347 0.61123 0.63236 0.0
O695 O 0.60991 0.66038 0.64073 0.0
O696 O 0.61139 0.6316 0.65439 0.0
C697 C 0.67548 0.6724 0.63145 0.0
O698 O 0.66001 0.6397 0.61028 0.0
O699 O 0.63088 0.65266 0.6118 0.0
C700 C 0.64488 0.60209 0.6457 0.0
O701 O 0.68017 0.65612 0.63836 0.0
O702 O 0.65841 0.6755 0.62537 0.0
C703 C 0.63219 0.67649 0.67222 0.0
C704 C 0.13419 0.31334 0.21091 0.0
C705 C 0.1324 0.30864 0.19113 0.0
C706 C 0.13323 0.29884 0.22507 0.0
C707 C 0.11803 0.24747 0.23271 0.0
H708 H 0.15136 0.25154 0.27795 0.0
C709 C 0.13232 0.18416 0.28626 0.0
C710 C 0.13093 0.18868 0.30613 0.0
C711 C 0.1316 0.19887 0.27229 0.0
C712 C 0.14187 0.25031 0.26546 0.0
H713 H 0.12843 0.28503 0.17067 0.0
H714 H 0.12739 0.25967 0.19527 0.0
H715 H 0.15209 0.27699 0.25336 0.0
H716 H 0.12778 0.21217 0.32692 0.0
H717 H 0.12682 0.23786 0.30247 0.0
H718 H 0.10831 0.22041 0.24468 0.0
C719 C 0.12896 0.2746 0.19995 0.0
C720 C 0.1422 0.26492 0.25139 0.0
C721 C 0.12966 0.28914 0.18581 0.0
C722 C 0.12879 0.2082 0.31173 0.0
C723 C 0.12835 0.22292 0.29777 0.0
C724 C 0.1179 0.23273 0.24667 0.0
C725 C 0.13074 0.27925 0.21978 0.0
C726 C 0.13026 0.26372 0.23483 0.0
C727 C 0.12979 0.21839 0.27793 0.0
C728 C 0.12979 0.23404 0.26318 0.0
H729 H 0.13619 0.32826 0.21549 0.0
H730 H 0.13429 0.30304 0.24019 0.0
H731 H 0.10838 0.24619 0.22036 0.0
H732 H 0.13399 0.16926 0.28149 0.0
H733 H 0.13288 0.19502 0.25709 0.0
C734 C 0.70769 0.12782 0.18606 0.0
C735 C 0.68811 0.13001 0.19137 0.0
C736 C 0.72221 0.12724 0.20023 0.0
C737 C 0.73133 0.14023 0.25183 0.0
H738 H 0.7771 0.10812 0.24483 0.0
C739 C 0.78868 0.12856 0.312 0.0
C740 C 0.80811 0.13142 0.30636 0.0
C741 C 0.77394 0.12771 0.29808 0.0
C742 C 0.76442 0.11722 0.2469 0.0
H743 H 0.66834 0.13284 0.21574 0.0
H744 H 0.69354 0.13112 0.24047 0.0
H745 H 0.75133 0.10743 0.2205 0.0
H746 H 0.82732 0.13535 0.28168 0.0
H747 H 0.80154 0.13353 0.25735 0.0
H748 H 0.74437 0.14968 0.27846 0.0
C749 C 0.6978 0.13042 0.22535 0.0
C750 C 0.74968 0.11691 0.23294 0.0
C751 C 0.68332 0.13126 0.21117 0.0
C752 C 0.8125 0.13314 0.28649 0.0
C753 C 0.79778 0.132 0.27256 0.0
C754 C 0.74595 0.14033 0.2659 0.0
C755 C 0.71747 0.1286 0.22007 0.0
C756 C 0.73298 0.1285 0.23516 0.0
C757 C 0.77835 0.12943 0.27824 0.0
C758 C 0.76268 0.12892 0.26351 0.0
H759 H 0.71187 0.12703 0.17091 0.0
H760 H 0.7372 0.12617 0.19556 0.0
H761 H 0.71891 0.14965 0.25388 0.0
H762 H 0.78482 0.12728 0.3272 0.0
H763 H 0.75908 0.1256 0.30282 0.0
C764 C 0.87389 0.8084 0.29132 0.0
C765 C 0.86574 0.8044 0.30962 0.0
C766 C 0.87482 0.79399 0.27707 0.0
C767 C 0.87301 0.7408 0.27005 0.0
H768 H 0.85904 0.75436 0.21718 0.0
C769 C 0.85853 0.68318 0.2109 0.0
C770 C 0.86549 0.68697 0.19207 0.0
C771 C 0.85952 0.69742 0.22532 0.0
C772 C 0.86323 0.75039 0.23182 0.0
H773 H 0.85223 0.78203 0.32728 0.0
H774 H 0.85375 0.75696 0.30237 0.0
H775 H 0.85911 0.77937 0.24223 0.0
H776 H 0.87913 0.70868 0.17371 0.0
H777 H 0.88103 0.73343 0.19894 0.0
H778 H 0.877 0.71178 0.25965 0.0
C779 C 0.85965 0.77118 0.29914 0.0
C780 C 0.86327 0.76472 0.24617 0.0
C781 C 0.8587 0.78559 0.31339 0.0
C782 C 0.87361 0.70528 0.18804 0.0
C783 C 0.87459 0.71951 0.20247 0.0
C784 C 0.87298 0.72646 0.25569 0.0
C785 C 0.86763 0.77524 0.28079 0.0
C786 C 0.86808 0.76008 0.26546 0.0
C787 C 0.86748 0.71578 0.22124 0.0
C788 C 0.86801 0.73108 0.23643 0.0
H789 H 0.87946 0.82272 0.28793 0.0
H790 H 0.88127 0.7975 0.26316 0.0
H791 H 0.87706 0.73682 0.28472 0.0
H792 H 0.85209 0.66928 0.21448 0.0
H793 H 0.85368 0.69417 0.23956 0.0
C794 C 0.20718 0.86966 0.31083 0.0
C795 C 0.18756 0.86722 0.30573 0.0
C796 C 0.22154 0.87039 0.29649 0.0
C797 C 0.23027 0.85729 0.24485 0.0
H798 H 0.27581 0.88982 0.25131 0.0
C799 C 0.28746 0.86857 0.18436 0.0
C800 C 0.3069 0.86593 0.19004 0.0
C801 C 0.2727 0.86954 0.19826 0.0
C802 C 0.2632 0.88061 0.24938 0.0
H803 H 0.16757 0.86412 0.28157 0.0
H804 H 0.19248 0.86607 0.25657 0.0
H805 H 0.25022 0.89046 0.27583 0.0
H806 H 0.32612 0.86252 0.21481 0.0
H807 H 0.30032 0.86452 0.23908 0.0
H808 H 0.2432 0.84776 0.2182 0.0
C809 C 0.1969 0.86687 0.27164 0.0
C810 C 0.24856 0.88089 0.26345 0.0
C811 C 0.18258 0.86589 0.28599 0.0
C812 C 0.31129 0.86455 0.20995 0.0
C813 C 0.29656 0.8658 0.22385 0.0
C814 C 0.24479 0.85722 0.23068 0.0
C815 C 0.2166 0.86892 0.2767 0.0
C816 C 0.23195 0.86913 0.26144 0.0
C817 C 0.27711 0.86816 0.21814 0.0
C818 C 0.26145 0.86877 0.23288 0.0
H819 H 0.21151 0.87055 0.32593 0.0
H820 H 0.23655 0.87165 0.30099 0.0
H821 H 0.21791 0.84775 0.24295 0.0
H822 H 0.2836 0.86959 0.16913 0.0
H823 H 0.25783 0.87147 0.19349 0.0
C824 C 0.13287 0.81231 0.71092 0.0
C825 C 0.1311 0.80796 0.69104 0.0
C826 C 0.13199 0.79753 0.72479 0.0
C827 C 0.141 0.74585 0.73132 0.0
H828 H 0.10803 0.75073 0.77673 0.0
C829 C 0.13284 0.68323 0.78629 0.0
C830 C 0.13147 0.68811 0.80606 0.0
C831 C 0.13187 0.69763 0.77203 0.0
C832 C 0.11753 0.74923 0.76428 0.0
H833 H 0.12717 0.78471 0.67012 0.0
H834 H 0.12593 0.75887 0.69442 0.0
H835 H 0.1083 0.77649 0.75239 0.0
H836 H 0.12822 0.71194 0.8264 0.0
H837 H 0.12716 0.73712 0.80163 0.0
H838 H 0.15075 0.71896 0.74335 0.0
C839 C 0.12787 0.77373 0.6992 0.0
C840 C 0.1176 0.76396 0.75032 0.0
C841 C 0.12847 0.78853 0.68533 0.0
C842 C 0.12911 0.70769 0.81127 0.0
C843 C 0.1284 0.72213 0.79703 0.0
C844 C 0.14113 0.73124 0.7454 0.0
C845 C 0.12962 0.7781 0.71905 0.0
C846 C 0.12933 0.76239 0.73372 0.0
C847 C 0.12979 0.7173 0.77722 0.0
C848 C 0.1294 0.73273 0.76208 0.0
H849 H 0.13492 0.82713 0.71577 0.0
H850 H 0.13353 0.80124 0.74001 0.0
H851 H 0.15036 0.74441 0.71875 0.0
H852 H 0.13455 0.66824 0.7818 0.0
H853 H 0.13263 0.69331 0.75693 0.0
C854 C 0.20869 0.12903 0.68564 0.0
C855 C 0.18914 0.13134 0.69099 0.0
C856 C 0.22323 0.12823 0.69979 0.0
C857 C 0.23249 0.14057 0.75154 0.0
H858 H 0.27772 0.10775 0.74436 0.0
C859 C 0.28931 0.12749 0.81185 0.0
C860 C 0.30878 0.13021 0.80633 0.0
C861 C 0.27464 0.12684 0.79784 0.0
C862 C 0.26519 0.11704 0.74648 0.0
H863 H 0.16943 0.13418 0.71541 0.0
H864 H 0.19462 0.13209 0.74009 0.0
H865 H 0.25205 0.1078 0.7199 0.0
H866 H 0.32817 0.13402 0.78176 0.0
H867 H 0.30252 0.13256 0.75729 0.0
H868 H 0.24556 0.14946 0.77834 0.0
C869 C 0.19887 0.13147 0.72496 0.0
C870 C 0.25052 0.11716 0.73245 0.0
C871 C 0.18438 0.13253 0.7108 0.0
C872 C 0.31331 0.13191 0.78648 0.0
C873 C 0.29866 0.13099 0.77246 0.0
C874 C 0.24704 0.14024 0.76567 0.0
C875 C 0.21851 0.12947 0.71965 0.0
C876 C 0.23401 0.129 0.73474 0.0
C877 C 0.27917 0.12864 0.77803 0.0
C878 C 0.26356 0.12855 0.76323 0.0
H879 H 0.21284 0.12825 0.67047 0.0
H880 H 0.23819 0.12702 0.69511 0.0
H881 H 0.22022 0.15017 0.75366 0.0
H882 H 0.28534 0.12622 0.82702 0.0
H883 H 0.25973 0.1249 0.80249 0.0
C884 C 0.85534 0.3105 0.78742 0.0
C885 C 0.86576 0.30873 0.80488 0.0
C886 C 0.85614 0.29583 0.77342 0.0
C887 C 0.86822 0.24373 0.76769 0.0
H888 H 0.86749 0.25652 0.71285 0.0
C889 C 0.85584 0.18562 0.70876 0.0
C890 C 0.86608 0.18741 0.69119 0.0
C891 C 0.85655 0.20039 0.72263 0.0
C892 C 0.86793 0.25267 0.7281 0.0
H893 H 0.88552 0.29035 0.82117 0.0
H894 H 0.88733 0.26504 0.79657 0.0
H895 H 0.86802 0.28248 0.73681 0.0
H896 H 0.88535 0.20597 0.67453 0.0
H897 H 0.887 0.23151 0.69895 0.0
H898 H 0.86871 0.21394 0.75898 0.0
C899 C 0.87816 0.27753 0.79386 0.0
C900 C 0.86795 0.26758 0.74186 0.0
C901 C 0.87722 0.29211 0.80792 0.0
C902 C 0.87722 0.20419 0.68789 0.0
C903 C 0.87807 0.21889 0.70184 0.0
C904 C 0.86834 0.22883 0.75393 0.0
C905 C 0.86751 0.27913 0.7765 0.0
C906 C 0.86798 0.2633 0.76183 0.0
C907 C 0.86764 0.21724 0.71933 0.0
C908 C 0.86807 0.23311 0.73397 0.0
H909 H 0.84625 0.32306 0.7847 0.0
H910 H 0.84751 0.29742 0.76037 0.0
H911 H 0.868 0.23987 0.78294 0.0
H912 H 0.84696 0.17295 0.71167 0.0
H913 H 0.84807 0.19876 0.73578 0.0
C914 C 0.78944 0.86933 0.68618 0.0
C915 C 0.80903 0.86647 0.69116 0.0
C916 C 0.77517 0.87036 0.70058 0.0
C917 C 0.76624 0.8576 0.75228 0.0
H918 H 0.72147 0.89117 0.7457 0.0
C919 C 0.70897 0.86975 0.81256 0.0
C920 C 0.68951 0.86752 0.80675 0.0
C921 C 0.72383 0.87057 0.79874 0.0
C922 C 0.73387 0.88168 0.74767 0.0
H923 H 0.82905 0.86284 0.71521 0.0
H924 H 0.80429 0.86529 0.74035 0.0
H925 H 0.74713 0.89121 0.72126 0.0
H926 H 0.67037 0.86475 0.78186 0.0
H927 H 0.69633 0.86652 0.75774 0.0
H928 H 0.75301 0.84836 0.77889 0.0
C929 C 0.79983 0.86622 0.7253 0.0
C930 C 0.74854 0.88161 0.73364 0.0
C931 C 0.81407 0.86495 0.71088 0.0
C932 C 0.68521 0.86648 0.78681 0.0
C933 C 0.70004 0.86758 0.77299 0.0
C934 C 0.75168 0.85786 0.76642 0.0
C935 C 0.78016 0.86879 0.72035 0.0
C936 C 0.76486 0.86943 0.73566 0.0
C937 C 0.71951 0.86946 0.77883 0.0
C938 C 0.73528 0.86978 0.76417 0.0
H939 H 0.78504 0.87037 0.67111 0.0
H940 H 0.76017 0.87198 0.69615 0.0
H941 H 0.77836 0.84776 0.7542 0.0
H942 H 0.71279 0.87049 0.82781 0.0
H943 H 0.73871 0.87214 0.80361 0.0
C944 C 0.28542 0.13166 0.18305 0.0
C945 C 0.3052 0.13034 0.18792 0.0
C946 C 0.27116 0.13054 0.19744 0.0
C947 C 0.26336 0.11596 0.249 0.0
H948 H 0.21788 0.14888 0.24429 0.0
C949 C 0.21007 0.13143 0.3122 0.0
C950 C 0.19016 0.13006 0.30787 0.0
C951 C 0.22393 0.13033 0.29741 0.0
C952 C 0.23043 0.13948 0.2457 0.0
H953 H 0.32553 0.12694 0.21175 0.0
H954 H 0.30074 0.1256 0.2369 0.0
H955 H 0.24246 0.14929 0.21883 0.0
H956 H 0.16918 0.12651 0.2846 0.0
H957 H 0.19343 0.12486 0.25875 0.0
H958 H 0.25145 0.10668 0.27625 0.0
C959 C 0.29615 0.12695 0.22192 0.0
C960 C 0.2445 0.13964 0.23108 0.0
C961 C 0.3104 0.12782 0.20749 0.0
C962 C 0.18441 0.12752 0.28843 0.0
C963 C 0.19826 0.12669 0.27362 0.0
C964 C 0.24939 0.11601 0.26374 0.0
C965 C 0.27633 0.12834 0.2171 0.0
C966 C 0.26117 0.12789 0.23253 0.0
C967 C 0.21814 0.12812 0.27797 0.0
C968 C 0.2328 0.12777 0.26222 0.0
H969 H 0.28093 0.13349 0.16808 0.0
H970 H 0.25606 0.13131 0.19311 0.0
H971 H 0.27579 0.10645 0.25048 0.0
H972 H 0.21497 0.1334 0.32703 0.0
H973 H 0.23917 0.13163 0.30112 0.0
C974 C 0.87322 0.18853 0.29111 0.0
C975 C 0.86525 0.19254 0.30948 0.0
C976 C 0.87412 0.20298 0.27689 0.0
C977 C 0.8726 0.25621 0.27011 0.0
H978 H 0.85854 0.24294 0.2172 0.0
C979 C 0.85847 0.31407 0.21108 0.0
C980 C 0.86557 0.31032 0.1923 0.0
C981 C 0.85933 0.2998 0.22547 0.0
C982 C 0.86275 0.24683 0.23185 0.0
H983 H 0.85197 0.21493 0.3273 0.0
H984 H 0.8534 0.24004 0.30243 0.0
H985 H 0.85844 0.21783 0.24214 0.0
H986 H 0.8793 0.28862 0.17399 0.0
H987 H 0.88093 0.2638 0.19916 0.0
H988 H 0.87676 0.28525 0.25982 0.0
C989 C 0.85921 0.22579 0.29912 0.0
C990 C 0.8627 0.23244 0.24615 0.0
C991 C 0.85831 0.21136 0.31334 0.0
C992 C 0.87368 0.29201 0.18829 0.0
C993 C 0.87452 0.27773 0.20268 0.0
C994 C 0.87264 0.2706 0.25581 0.0
C995 C 0.86705 0.22175 0.28071 0.0
C996 C 0.86755 0.23698 0.26545 0.0
C997 C 0.86727 0.28143 0.2214 0.0
C998 C 0.86765 0.26608 0.23654 0.0
H999 H 0.87873 0.17421 0.28766 0.0
H1000 H 0.88046 0.19947 0.26293 0.0
H1001 H 0.87669 0.26011 0.28479 0.0
H1002 H 0.85204 0.32799 0.21465 0.0
H1003 H 0.85341 0.30302 0.23969 0.0
C1004 C 0.68821 0.87423 0.2046 0.0
C1005 C 0.69223 0.86671 0.18604 0.0
C1006 C 0.70266 0.87482 0.21886 0.0
C1007 C 0.74894 0.85161 0.23241 0.0
H1008 H 0.75456 0.89593 0.26672 0.0
C1009 C 0.81331 0.85859 0.28531 0.0
C1010 C 0.80927 0.8653 0.30418 0.0
C1011 C 0.79915 0.85941 0.27082 0.0
C1012 C 0.75304 0.88336 0.25738 0.0
H1013 H 0.71474 0.85414 0.16786 0.0
H1014 H 0.73993 0.85537 0.19264 0.0
H1015 H 0.72966 0.89633 0.24146 0.0
H1016 H 0.78714 0.87821 0.32255 0.0
H1017 H 0.76237 0.87947 0.29725 0.0
H1018 H 0.77222 0.83859 0.24832 0.0
C1019 C 0.72553 0.86059 0.19625 0.0
C1020 C 0.73879 0.8836 0.24291 0.0
C1021 C 0.71111 0.86002 0.182 0.0
C1022 C 0.79077 0.87299 0.30816 0.0
C1023 C 0.77659 0.8738 0.29364 0.0
C1024 C 0.76317 0.85137 0.24686 0.0
C1025 C 0.72144 0.86785 0.21489 0.0
C1026 C 0.73661 0.86773 0.23024 0.0
C1027 C 0.78059 0.86692 0.27483 0.0
C1028 C 0.76541 0.86725 0.2595 0.0
H1029 H 0.67381 0.87943 0.20824 0.0
H1030 H 0.69898 0.8803 0.23314 0.0
H1031 H 0.74741 0.839 0.22312 0.0
H1032 H 0.82741 0.85261 0.28171 0.0
H1033 H 0.80279 0.85424 0.25641 0.0
C1034 C 0.12808 0.81197 0.28913 0.0
C1035 C 0.13098 0.8064 0.30856 0.0
C1036 C 0.12743 0.79801 0.27442 0.0
C1037 C 0.11769 0.7467 0.26498 0.0
H1038 H 0.1503 0.75401 0.21964 0.0
C1039 C 0.12931 0.6859 0.20849 0.0
C1040 C 0.13135 0.6912 0.1889 0.0
C1041 C 0.12861 0.70009 0.22298 0.0
C1042 C 0.14084 0.75186 0.23201 0.0
H1043 H 0.13517 0.78181 0.32784 0.0
H1044 H 0.13371 0.75742 0.30211 0.0
H1045 H 0.14985 0.77865 0.24503 0.0
H1046 H 0.13387 0.71556 0.16907 0.0
H1047 H 0.13197 0.74032 0.19422 0.0
H1048 H 0.10834 0.72014 0.2519 0.0
C1049 C 0.13199 0.7726 0.29832 0.0
C1050 C 0.14066 0.76596 0.24659 0.0
C1051 C 0.13292 0.78657 0.31301 0.0
C1052 C 0.13241 0.711 0.18406 0.0
C1053 C 0.13145 0.7252 0.19852 0.0
C1054 C 0.11766 0.7327 0.25028 0.0
C1055 C 0.12941 0.77821 0.27888 0.0
C1056 C 0.12917 0.76346 0.26324 0.0
C1057 C 0.1297 0.71993 0.21819 0.0
C1058 C 0.12933 0.73504 0.23365 0.0
H1059 H 0.12663 0.82714 0.28522 0.0
H1060 H 0.12531 0.80269 0.25954 0.0
H1061 H 0.10854 0.74454 0.2776 0.0
H1062 H 0.12864 0.67075 0.2127 0.0
H1063 H 0.1276 0.69545 0.23798 0.0
C1064 C 0.18579 0.86799 0.70801 0.0
C1065 C 0.19113 0.86554 0.68847 0.0
C1066 C 0.19991 0.8686 0.72256 0.0
C1067 C 0.25137 0.85551 0.73218 0.0
H1068 H 0.24431 0.88867 0.77719 0.0
C1069 C 0.3115 0.86865 0.78913 0.0
C1070 C 0.30596 0.86631 0.80865 0.0
C1071 C 0.29752 0.86907 0.77444 0.0
C1072 C 0.24639 0.87927 0.76474 0.0
H1073 H 0.21551 0.86214 0.66881 0.0
H1074 H 0.2402 0.86388 0.69409 0.0
H1075 H 0.2201 0.88888 0.7513 0.0
H1076 H 0.28139 0.86283 0.82809 0.0
H1077 H 0.25692 0.86393 0.80235 0.0
H1078 H 0.27791 0.84627 0.74555 0.0
C1079 C 0.22507 0.86481 0.69829 0.0
C1080 C 0.2325 0.87931 0.74993 0.0
C1081 C 0.21092 0.86394 0.68375 0.0
C1082 C 0.28611 0.86468 0.81319 0.0
C1083 C 0.27211 0.86538 0.7985 0.0
C1084 C 0.26537 0.85567 0.74687 0.0
C1085 C 0.21974 0.86701 0.71791 0.0
C1086 C 0.23476 0.86735 0.73349 0.0
C1087 C 0.27771 0.86741 0.77898 0.0
C1088 C 0.26296 0.86748 0.76332 0.0
H1089 H 0.17064 0.86904 0.71214 0.0
H1090 H 0.19519 0.86993 0.73751 0.0
H1091 H 0.25345 0.84582 0.71997 0.0
H1092 H 0.32668 0.86982 0.78514 0.0
H1093 H 0.3022 0.87078 0.75951 0.0
C1094 C 0.12908 0.31181 0.78847 0.0
C1095 C 0.13146 0.30624 0.80798 0.0
C1096 C 0.12833 0.29783 0.77379 0.0
C1097 C 0.11747 0.24671 0.76434 0.0
H1098 H 0.15058 0.25333 0.71925 0.0
C1099 C 0.1284 0.18572 0.70787 0.0
C1100 C 0.1307 0.191 0.68829 0.0
C1101 C 0.12778 0.19991 0.72237 0.0
C1102 C 0.14099 0.25138 0.73156 0.0
H1103 H 0.13466 0.28161 0.82739 0.0
H1104 H 0.13305 0.25718 0.8017 0.0
H1105 H 0.15049 0.27794 0.74468 0.0
H1106 H 0.13374 0.21533 0.6685 0.0
H1107 H 0.13202 0.2401 0.69367 0.0
H1108 H 0.10766 0.22036 0.75116 0.0
C1109 C 0.1318 0.27238 0.79784 0.0
C1110 C 0.14102 0.26546 0.74616 0.0
C1111 C 0.13281 0.28637 0.81251 0.0
C1112 C 0.13207 0.21078 0.68348 0.0
C1113 C 0.13122 0.22498 0.69794 0.0
C1114 C 0.11725 0.23272 0.74963 0.0
C1115 C 0.12971 0.27799 0.77834 0.0
C1116 C 0.12934 0.26321 0.76272 0.0
C1117 C 0.12925 0.21973 0.7176 0.0
C1118 C 0.12909 0.23483 0.73308 0.0
H1119 H 0.12809 0.327 0.78449 0.0
H1120 H 0.12659 0.30252 0.75887 0.0
H1121 H 0.10818 0.24474 0.77688 0.0
H1122 H 0.1275 0.17059 0.71208 0.0
H1123 H 0.1266 0.19528 0.73735 0.0
C1124 C 0.81029 0.12771 0.70705 0.0
C1125 C 0.80514 0.13041 0.68749 0.0
C1126 C 0.79602 0.12679 0.72144 0.0
C1127 C 0.74437 0.13936 0.73077 0.0
H1128 H 0.75151 0.10588 0.77553 0.0
C1129 C 0.68467 0.12666 0.78848 0.0
C1130 C 0.69059 0.1291 0.80788 0.0
C1131 C 0.69839 0.12595 0.77354 0.0
C1132 C 0.74939 0.11535 0.76313 0.0
H1133 H 0.78094 0.13394 0.66763 0.0
H1134 H 0.75599 0.13166 0.69263 0.0
H1135 H 0.77572 0.10592 0.74965 0.0
H1136 H 0.71556 0.13238 0.82683 0.0
H1137 H 0.73953 0.13078 0.8007 0.0
H1138 H 0.71782 0.14847 0.74422 0.0
C1139 C 0.77108 0.13077 0.69697 0.0
C1140 C 0.76328 0.11546 0.74833 0.0
C1141 C 0.78538 0.13195 0.68259 0.0
C1142 C 0.71054 0.13048 0.81204 0.0
C1143 C 0.72426 0.12948 0.79712 0.0
C1144 C 0.73036 0.13905 0.74546 0.0
C1145 C 0.77622 0.12829 0.7166 0.0
C1146 C 0.76105 0.12761 0.73203 0.0
C1147 C 0.7183 0.12739 0.77772 0.0
C1148 C 0.73282 0.12716 0.76184 0.0
H1149 H 0.8254 0.1267 0.71132 0.0
H1150 H 0.80059 0.12527 0.73641 0.0
H1151 H 0.74229 0.14917 0.71865 0.0
H1152 H 0.6694 0.12568 0.78479 0.0
H1153 H 0.69343 0.12422 0.7587 0.0
C1154 C 0.85544 0.70837 0.80998 0.0
C1155 C 0.86547 0.6907 0.80804 0.0
C1156 C 0.85625 0.72234 0.7953 0.0
C1157 C 0.86758 0.72808 0.74302 0.0
H1158 H 0.86784 0.78283 0.75619 0.0
C1159 C 0.87639 0.80819 0.70388 0.0
C1160 C 0.86488 0.80508 0.68731 0.0
C1161 C 0.8775 0.7941 0.71845 0.0
C1162 C 0.86801 0.76761 0.75223 0.0
H1163 H 0.88448 0.67396 0.78928 0.0
H1164 H 0.88631 0.69854 0.7639 0.0
H1165 H 0.8686 0.75869 0.78196 0.0
H1166 H 0.84538 0.78479 0.6731 0.0
H1167 H 0.84691 0.76047 0.69868 0.0
H1168 H 0.86758 0.737 0.71327 0.0
C1169 C 0.87745 0.70145 0.77657 0.0
C1170 C 0.86816 0.75375 0.76704 0.0
C1171 C 0.8765 0.68739 0.79118 0.0
C1172 C 0.85453 0.78757 0.6856 0.0
C1173 C 0.85549 0.77357 0.70024 0.0
C1174 C 0.86759 0.74195 0.72821 0.0
C1175 C 0.86724 0.71905 0.7784 0.0
C1176 C 0.86778 0.73381 0.76263 0.0
C1177 C 0.86696 0.77666 0.71687 0.0
C1178 C 0.86765 0.76189 0.73262 0.0
H1179 H 0.84666 0.7113 0.82272 0.0
H1180 H 0.84792 0.73557 0.79707 0.0
H1181 H 0.86706 0.71287 0.73906 0.0
H1182 H 0.88463 0.82149 0.70559 0.0
H1183 H 0.88672 0.79684 0.73089 0.0
C1184 C 0.31277 0.2105 0.13118 0.0
C1185 C 0.30807 0.19068 0.13 0.0
C1186 C 0.29824 0.22461 0.13007 0.0
C1187 C 0.24652 0.232 0.1159 0.0
H1188 H 0.25146 0.27771 0.14847 0.0
C1189 C 0.18372 0.28605 0.13106 0.0
C1190 C 0.18831 0.30588 0.12944 0.0
C1191 C 0.19834 0.27199 0.13003 0.0
C1192 C 0.24998 0.26509 0.13918 0.0
H1193 H 0.28445 0.17009 0.1268 0.0
H1194 H 0.25902 0.19465 0.12549 0.0
H1195 H 0.27685 0.2531 0.14896 0.0
H1196 H 0.21183 0.32652 0.12552 0.0
H1197 H 0.23734 0.30193 0.12401 0.0
H1198 H 0.21925 0.2439 0.10665 0.0
C1199 C 0.27397 0.19938 0.12673 0.0
C1200 C 0.26456 0.251 0.13937 0.0
C1201 C 0.28854 0.18527 0.12758 0.0
C1202 C 0.2078 0.31135 0.12671 0.0
C1203 C 0.22242 0.29731 0.12596 0.0
C1204 C 0.2318 0.246 0.11591 0.0
C1205 C 0.27862 0.21924 0.12805 0.0
C1206 C 0.26307 0.23429 0.1277 0.0
C1207 C 0.21784 0.27751 0.12768 0.0
C1208 C 0.23343 0.26269 0.12752 0.0
H1209 H 0.3277 0.21515 0.13291 0.0
H1210 H 0.30244 0.23975 0.13073 0.0
H1211 H 0.24499 0.21951 0.10648 0.0
H1212 H 0.16885 0.28137 0.13318 0.0
H1213 H 0.19444 0.25681 0.13154 0.0
C1214 C 0.18396 0.71116 0.86536 0.0
C1215 C 0.18866 0.69136 0.8669 0.0
C1216 C 0.19847 0.72531 0.86631 0.0
C1217 C 0.25014 0.73289 0.88069 0.0
H1218 H 0.24543 0.77825 0.84761 0.0
C1219 C 0.31321 0.78649 0.86528 0.0
C1220 C 0.30873 0.80637 0.86666 0.0
C1221 C 0.29851 0.77252 0.86634 0.0
C1222 C 0.24685 0.76573 0.85704 0.0
H1223 H 0.21231 0.67087 0.87047 0.0
H1224 H 0.2377 0.69546 0.8715 0.0
H1225 H 0.21998 0.75368 0.84728 0.0
H1226 H 0.28531 0.82717 0.87019 0.0
H1227 H 0.25963 0.80274 0.87176 0.0
H1228 H 0.27739 0.74483 0.88993 0.0
C1229 C 0.22275 0.70016 0.87013 0.0
C1230 C 0.23222 0.75167 0.85694 0.0
C1231 C 0.20819 0.68602 0.86944 0.0
C1232 C 0.28925 0.81197 0.86917 0.0
C1233 C 0.27454 0.79802 0.86996 0.0
C1234 C 0.26488 0.74686 0.88059 0.0
C1235 C 0.2181 0.72 0.86852 0.0
C1236 C 0.23364 0.73506 0.86879 0.0
C1237 C 0.27902 0.77817 0.8685 0.0
C1238 C 0.26335 0.76342 0.86879 0.0
H1239 H 0.16902 0.71576 0.86351 0.0
H1240 H 0.19426 0.74043 0.8654 0.0
H1241 H 0.2516 0.7205 0.89026 0.0
H1242 H 0.32808 0.78171 0.86334 0.0
H1243 H 0.30233 0.75732 0.86504 0.0
C1244 C 0.31059 0.2071 0.86965 0.0
C1245 C 0.30548 0.18753 0.86692 0.0
C1246 C 0.29629 0.22146 0.87054 0.0
C1247 C 0.24469 0.23061 0.85757 0.0
H1248 H 0.25142 0.27558 0.89084 0.0
C1249 C 0.18461 0.28812 0.86939 0.0
C1250 C 0.19047 0.30754 0.86703 0.0
C1251 C 0.1984 0.27324 0.87027 0.0
C1252 C 0.24941 0.26313 0.88143 0.0
H1253 H 0.2813 0.16764 0.86339 0.0
H1254 H 0.25632 0.19257 0.86561 0.0
H1255 H 0.27574 0.2498 0.89111 0.0
H1256 H 0.2154 0.32661 0.86409 0.0
H1257 H 0.23947 0.30061 0.86596 0.0
H1258 H 0.21815 0.2439 0.84819 0.0
C1259 C 0.2714 0.19694 0.86653 0.0
C1260 C 0.26337 0.24838 0.8815 0.0
C1261 C 0.28573 0.1826 0.86539 0.0
C1262 C 0.21041 0.3118 0.86591 0.0
C1263 C 0.2242 0.29694 0.86707 0.0
C1264 C 0.23062 0.24524 0.8577 0.0
C1265 C 0.27649 0.2166 0.86896 0.0
C1266 C 0.26128 0.23199 0.86944 0.0
C1267 C 0.21832 0.27751 0.86909 0.0
C1268 C 0.23292 0.2617 0.86951 0.0
H1269 H 0.3257 0.2114 0.87068 0.0
H1270 H 0.30082 0.23645 0.87206 0.0
H1271 H 0.24272 0.21843 0.84783 0.0
H1272 H 0.16936 0.28435 0.8702 0.0
H1273 H 0.19349 0.25838 0.87195 0.0
C1274 C 0.68493 0.21033 0.86342 0.0
C1275 C 0.68957 0.1905 0.86477 0.0
C1276 C 0.69951 0.22441 0.86437 0.0
C1277 C 0.75122 0.23163 0.87869 0.0
H1278 H 0.74651 0.27756 0.84642 0.0
C1279 C 0.81422 0.2856 0.86432 0.0
C1280 C 0.8097 0.30543 0.86619 0.0
C1281 C 0.79955 0.27158 0.86506 0.0
C1282 C 0.74792 0.26488 0.85562 0.0
H1283 H 0.71316 0.16988 0.86796 0.0
H1284 H 0.73866 0.19437 0.86898 0.0
H1285 H 0.72105 0.253 0.84566 0.0
H1286 H 0.78625 0.32609 0.87023 0.0
H1287 H 0.76061 0.30158 0.87123 0.0
H1288 H 0.77847 0.2434 0.88814 0.0
C1289 C 0.72372 0.19913 0.86776 0.0
C1290 C 0.7333 0.25081 0.85527 0.0
C1291 C 0.7091 0.18506 0.86707 0.0
C1292 C 0.79021 0.31093 0.86886 0.0
C1293 C 0.77553 0.29693 0.86931 0.0
C1294 C 0.76596 0.24559 0.87883 0.0
C1295 C 0.71912 0.21901 0.8664 0.0
C1296 C 0.73472 0.23401 0.86684 0.0
C1297 C 0.78006 0.27714 0.86737 0.0
C1298 C 0.76442 0.26236 0.86734 0.0
H1299 H 0.66999 0.21501 0.86177 0.0
H1300 H 0.69535 0.23956 0.86365 0.0
H1301 H 0.75268 0.21908 0.88806 0.0
H1302 H 0.8291 0.2809 0.86224 0.0
H1303 H 0.8034 0.25641 0.86339 0.0
C1304 C 0.68594 0.78879 0.86771 0.0
C1305 C 0.69138 0.80834 0.86556 0.0
C1306 C 0.70001 0.77419 0.86831 0.0
C1307 C 0.75153 0.76461 0.85552 0.0
H1308 H 0.74422 0.71932 0.88824 0.0
C1309 C 0.81152 0.7075 0.86835 0.0
C1310 C 0.80595 0.688 0.86589 0.0
C1311 C 0.79756 0.7222 0.86885 0.0
C1312 C 0.74637 0.73185 0.87896 0.0
H1313 H 0.71587 0.82797 0.86273 0.0
H1314 H 0.74045 0.80259 0.86443 0.0
H1315 H 0.72002 0.74521 0.88853 0.0
H1316 H 0.78135 0.66862 0.86228 0.0
H1317 H 0.75692 0.69438 0.86349 0.0
H1318 H 0.7781 0.75131 0.8463 0.0
C1319 C 0.72529 0.79844 0.86513 0.0
C1320 C 0.73249 0.74666 0.87905 0.0
C1321 C 0.7112 0.81302 0.86429 0.0
C1322 C 0.7861 0.6835 0.86422 0.0
C1323 C 0.77211 0.6982 0.86498 0.0
C1324 C 0.7655 0.74991 0.85563 0.0
C1325 C 0.71988 0.77881 0.867 0.0
C1326 C 0.73484 0.7632 0.86726 0.0
C1327 C 0.77774 0.7177 0.86714 0.0
C1328 C 0.76301 0.73336 0.86728 0.0
H1329 H 0.67077 0.78469 0.86852 0.0
H1330 H 0.69525 0.75924 0.8694 0.0
H1331 H 0.75367 0.77692 0.84596 0.0
H1332 H 0.8267 0.71146 0.86957 0.0
H1333 H 0.80226 0.73711 0.87066 0.0
C1334 C 0.78914 0.68641 0.12827 0.0
C1335 C 0.8087 0.69166 0.13084 0.0
C1336 C 0.77467 0.70059 0.12748 0.0
C1337 C 0.76522 0.75221 0.14017 0.0
H1338 H 0.72022 0.74494 0.10703 0.0
C1339 C 0.70767 0.81196 0.12719 0.0
C1340 C 0.68825 0.80617 0.12982 0.0
C1341 C 0.72253 0.79816 0.12659 0.0
C1342 C 0.73268 0.74709 0.11641 0.0
H1343 H 0.82845 0.71596 0.13426 0.0
H1344 H 0.80331 0.74077 0.13219 0.0
H1345 H 0.74612 0.72076 0.10694 0.0
H1346 H 0.66918 0.78136 0.13356 0.0
H1347 H 0.69519 0.75723 0.13213 0.0
H1348 H 0.75182 0.77879 0.14927 0.0
C1349 C 0.79904 0.72565 0.13131 0.0
C1350 C 0.74749 0.73321 0.11645 0.0
C1351 C 0.81349 0.71144 0.13237 0.0
C1352 C 0.68399 0.78627 0.13152 0.0
C1353 C 0.69884 0.77246 0.13062 0.0
C1354 C 0.75052 0.76621 0.13991 0.0
C1355 C 0.7794 0.72042 0.12899 0.0
C1356 C 0.7639 0.73551 0.12845 0.0
C1357 C 0.71826 0.77829 0.12832 0.0
C1358 C 0.73406 0.76371 0.12814 0.0
H1359 H 0.78495 0.67127 0.12726 0.0
H1360 H 0.75971 0.69594 0.12607 0.0
H1361 H 0.77741 0.75433 0.14987 0.0
H1362 H 0.71143 0.82719 0.12596 0.0
H1363 H 0.73739 0.80302 0.1247 0.0
C1364 C 0.2105 0.68354 0.13089 0.0
C1365 C 0.19069 0.68836 0.12987 0.0
C1366 C 0.2247 0.69798 0.12967 0.0
C1367 C 0.23229 0.74967 0.11546 0.0
H1368 H 0.2781 0.74463 0.14788 0.0
C1369 C 0.28603 0.81259 0.13077 0.0
C1370 C 0.30592 0.80816 0.12933 0.0
C1371 C 0.27209 0.79788 0.12963 0.0
C1372 C 0.26547 0.74613 0.13862 0.0
H1373 H 0.17024 0.71213 0.12685 0.0
H1374 H 0.19495 0.73738 0.12533 0.0
H1375 H 0.25348 0.71923 0.14836 0.0
H1376 H 0.32676 0.7848 0.12558 0.0
H1377 H 0.30236 0.7591 0.12385 0.0
H1378 H 0.24417 0.77695 0.10624 0.0
C1379 C 0.1996 0.7224 0.12653 0.0
C1380 C 0.25137 0.73155 0.13881 0.0
C1381 C 0.18539 0.70792 0.1275 0.0
C1382 C 0.31155 0.78871 0.12665 0.0
C1383 C 0.29761 0.77398 0.12577 0.0
C1384 C 0.2463 0.76437 0.11546 0.0
C1385 C 0.21945 0.71763 0.12768 0.0
C1386 C 0.23458 0.7331 0.12723 0.0
C1387 C 0.27776 0.77842 0.12732 0.0
C1388 C 0.26302 0.76273 0.12703 0.0
H1389 H 0.21507 0.66858 0.13259 0.0
H1390 H 0.23982 0.69369 0.13023 0.0
H1391 H 0.21976 0.75124 0.1061 0.0
H1392 H 0.28121 0.82743 0.13284 0.0
H1393 H 0.25687 0.80167 0.13102 0.0
C1394 C 0.71109 0.18343 0.13806 0.0
C1395 C 0.69218 0.1874 0.13142 0.0
C1396 C 0.72548 0.1977 0.13737 0.0
C1397 C 0.73867 0.24404 0.1138 0.0
H1398 H 0.77268 0.24966 0.15836 0.0
C1399 C 0.79153 0.30881 0.12305 0.0
C1400 C 0.81003 0.30474 0.13069 0.0
C1401 C 0.77721 0.29442 0.12248 0.0
C1402 C 0.76346 0.24813 0.1457 0.0
H1403 H 0.67364 0.20952 0.11873 0.0
H1404 H 0.69878 0.23447 0.11765 0.0
H1405 H 0.74759 0.22473 0.15855 0.0
H1406 H 0.82805 0.28223 0.14349 0.0
H1407 H 0.80317 0.25715 0.14227 0.0
H1408 H 0.75457 0.2675 0.10097 0.0
C1409 C 0.70249 0.22022 0.12319 0.0
C1410 C 0.74908 0.23384 0.14581 0.0
C1411 C 0.68806 0.20594 0.1239 0.0
C1412 C 0.81395 0.2859 0.13754 0.0
C1413 C 0.79964 0.27154 0.13696 0.0
C1414 C 0.75309 0.25835 0.11368 0.0
C1415 C 0.72132 0.2163 0.13004 0.0
C1416 C 0.73654 0.23159 0.12985 0.0
C1417 C 0.78106 0.27566 0.12957 0.0
C1418 C 0.76568 0.26052 0.12961 0.0
H1419 H 0.71479 0.16931 0.14393 0.0
H1420 H 0.73992 0.19413 0.1425 0.0
H1421 H 0.72938 0.24252 0.10119 0.0
H1422 H 0.78799 0.32319 0.11773 0.0
H1423 H 0.76297 0.29812 0.11689 0.0
C1424 C 0.68332 0.63304 0.71106 0.0
C1425 C 0.688 0.63129 0.69127 0.0
C1426 C 0.69784 0.63208 0.72521 0.0
C1427 C 0.74932 0.61705 0.7328 0.0
H1428 H 0.74511 0.65023 0.77813 0.0
C1429 C 0.8127 0.63168 0.78621 0.0
C1430 C 0.80827 0.6303 0.8061 0.0
C1431 C 0.79794 0.63084 0.77229 0.0
C1432 C 0.74638 0.64077 0.76562 0.0
H1433 H 0.71162 0.62737 0.6708 0.0
H1434 H 0.737 0.62632 0.69538 0.0
H1435 H 0.71961 0.65086 0.75359 0.0
H1436 H 0.78488 0.62703 0.82698 0.0
H1437 H 0.7591 0.62587 0.80263 0.0
H1438 H 0.77646 0.60748 0.74471 0.0
C1439 C 0.72207 0.62786 0.70008 0.0
C1440 C 0.73173 0.64105 0.75157 0.0
C1441 C 0.70752 0.62857 0.68594 0.0
C1442 C 0.78878 0.62803 0.81177 0.0
C1443 C 0.77401 0.62748 0.79786 0.0
C1444 C 0.76408 0.61698 0.74674 0.0
C1445 C 0.71743 0.62962 0.71992 0.0
C1446 C 0.73298 0.62917 0.73497 0.0
C1447 C 0.77844 0.62892 0.778 0.0
C1448 C 0.76273 0.62882 0.76329 0.0
H1449 H 0.6684 0.63504 0.71565 0.0
H1450 H 0.69363 0.63312 0.74033 0.0
H1451 H 0.75064 0.60744 0.72042 0.0
H1452 H 0.82757 0.63344 0.78137 0.0
H1453 H 0.80173 0.63213 0.75707 0.0
C1454 C 0.18564 0.36446 0.78679 0.0
C1455 C 0.19007 0.3659 0.80669 0.0
C1456 C 0.20034 0.36569 0.77286 0.0
C1457 C 0.25209 0.35715 0.76602 0.0
H1458 H 0.24655 0.39012 0.72068 0.0
C1459 C 0.31425 0.36566 0.71073 0.0
C1460 C 0.30927 0.36681 0.69097 0.0
C1461 C 0.29992 0.36673 0.72505 0.0
C1462 C 0.24824 0.38064 0.73311 0.0
H1463 H 0.21341 0.36967 0.82754 0.0
H1464 H 0.23911 0.37154 0.80313 0.0
H1465 H 0.22098 0.38958 0.74523 0.0
H1466 H 0.28535 0.3699 0.67071 0.0
H1467 H 0.26027 0.37115 0.69562 0.0
H1468 H 0.27897 0.34767 0.75378 0.0
C1469 C 0.22424 0.36956 0.79839 0.0
C1470 C 0.23362 0.38041 0.7472 0.0
C1471 C 0.20951 0.3686 0.81233 0.0
C1472 C 0.28967 0.36916 0.68583 0.0
C1473 C 0.27529 0.36997 0.70014 0.0
C1474 C 0.26659 0.35718 0.75184 0.0
C1475 C 0.21978 0.3681 0.77853 0.0
C1476 C 0.23541 0.36866 0.76377 0.0
C1477 C 0.28022 0.36868 0.71994 0.0
C1478 C 0.26487 0.36892 0.73519 0.0
H1479 H 0.17081 0.36238 0.78197 0.0
H1480 H 0.19654 0.36435 0.75764 0.0
H1481 H 0.25371 0.34777 0.77855 0.0
H1482 H 0.32925 0.36398 0.71517 0.0
H1483 H 0.30433 0.36608 0.74013 0.0
C1484 C 0.31403 0.63142 0.28552 0.0
C1485 C 0.30905 0.63016 0.30527 0.0
C1486 C 0.2997 0.6303 0.27119 0.0
C1487 C 0.24815 0.6159 0.26321 0.0
H1488 H 0.25303 0.64896 0.21785 0.0
C1489 C 0.18501 0.63197 0.21018 0.0
C1490 C 0.18926 0.63056 0.19025 0.0
C1491 C 0.19984 0.63076 0.22397 0.0
C1492 C 0.25158 0.63952 0.23036 0.0
H1493 H 0.28511 0.6269 0.3255 0.0
H1494 H 0.26008 0.62558 0.3006 0.0
H1495 H 0.27847 0.64918 0.24245 0.0
H1496 H 0.2124 0.62686 0.16917 0.0
H1497 H 0.23834 0.62503 0.19333 0.0
H1498 H 0.22088 0.60677 0.25126 0.0
C1499 C 0.27509 0.62685 0.29608 0.0
C1500 C 0.26619 0.63957 0.24444 0.0
C1501 C 0.28944 0.62772 0.31039 0.0
C1502 C 0.20865 0.6279 0.18442 0.0
C1503 C 0.22351 0.62696 0.19821 0.0
C1504 C 0.23343 0.61605 0.24923 0.0
C1505 C 0.28002 0.62819 0.27629 0.0
C1506 C 0.26465 0.62778 0.26108 0.0
C1507 C 0.21924 0.6284 0.2181 0.0
C1508 C 0.23501 0.62788 0.2327 0.0
H1509 H 0.32903 0.63319 0.28109 0.0
H1510 H 0.3041 0.63103 0.25611 0.0
H1511 H 0.24662 0.60636 0.27562 0.0
H1512 H 0.17021 0.63403 0.21514 0.0
H1513 H 0.19619 0.63207 0.23923 0.0
C1514 C 0.68334 0.35758 0.28578 0.0
C1515 C 0.68733 0.36461 0.30454 0.0
C1516 C 0.69748 0.35831 0.27126 0.0
C1517 C 0.74323 0.38265 0.25742 0.0
H1518 H 0.74952 0.33786 0.22384 0.0
C1519 C 0.80811 0.37388 0.20472 0.0
C1520 C 0.80419 0.36605 0.18627 0.0
C1521 C 0.79369 0.37436 0.219 0.0
C1522 C 0.74779 0.35058 0.23293 0.0
H1523 H 0.70937 0.37798 0.3227 0.0
H1524 H 0.7341 0.37911 0.29736 0.0
H1525 H 0.72472 0.33746 0.24907 0.0
H1526 H 0.78191 0.3528 0.16829 0.0
H1527 H 0.75675 0.35385 0.19312 0.0
H1528 H 0.76639 0.39574 0.24128 0.0
C1529 C 0.71993 0.37325 0.29385 0.0
C1530 C 0.73358 0.35035 0.2474 0.0
C1531 C 0.70577 0.37251 0.30839 0.0
C1532 C 0.78545 0.35892 0.18235 0.0
C1533 C 0.77105 0.35939 0.19663 0.0
C1534 C 0.75746 0.38289 0.24293 0.0
C1535 C 0.71596 0.36606 0.27515 0.0
C1536 C 0.73111 0.36639 0.25979 0.0
C1537 C 0.77503 0.36699 0.21516 0.0
C1538 C 0.75988 0.36686 0.23051 0.0
H1539 H 0.66929 0.35142 0.28228 0.0
H1540 H 0.69388 0.3529 0.25693 0.0
H1541 H 0.74152 0.39533 0.26657 0.0
H1542 H 0.82241 0.37942 0.20826 0.0
H1543 H 0.79728 0.38011 0.2332 0.0
C1544 C 0.18738 0.62352 0.79125 0.0
C1545 C 0.19179 0.63092 0.80977 0.0
C1546 C 0.20158 0.62294 0.77673 0.0
C1547 C 0.24781 0.64592 0.76261 0.0
H1548 H 0.2531 0.60145 0.72844 0.0
C1549 C 0.31245 0.63802 0.71036 0.0
C1550 C 0.30852 0.63142 0.69144 0.0
C1551 C 0.29813 0.63738 0.72469 0.0
C1552 C 0.25166 0.61405 0.73774 0.0
H1553 H 0.21468 0.64328 0.82762 0.0
H1554 H 0.23941 0.64206 0.8024 0.0
H1555 H 0.2282 0.6013 0.75373 0.0
H1556 H 0.28642 0.61882 0.6728 0.0
H1557 H 0.26136 0.61784 0.69785 0.0
H1558 H 0.27119 0.65871 0.74667 0.0
C1559 C 0.22492 0.63694 0.79901 0.0
C1560 C 0.23741 0.61397 0.75222 0.0
C1561 C 0.21076 0.63751 0.81351 0.0
C1562 C 0.28997 0.62396 0.68725 0.0
C1563 C 0.27562 0.62332 0.70162 0.0
C1564 C 0.26203 0.64601 0.74817 0.0
C1565 C 0.22046 0.6298 0.78042 0.0
C1566 C 0.2354 0.62987 0.76487 0.0
C1567 C 0.27952 0.63015 0.72046 0.0
C1568 C 0.26418 0.63005 0.73562 0.0
H1569 H 0.1729 0.61839 0.78785 0.0
H1570 H 0.19764 0.61753 0.76249 0.0
H1571 H 0.24639 0.65855 0.77188 0.0
H1572 H 0.32659 0.64383 0.71413 0.0
H1573 H 0.30168 0.64249 0.73915 0.0
C1574 C 0.786 0.35904 0.81421 0.0
C1575 C 0.80481 0.36583 0.81008 0.0
C1576 C 0.77147 0.35964 0.80006 0.0
C1577 C 0.75785 0.38306 0.75372 0.0
H1578 H 0.72439 0.33809 0.74809 0.0
C1579 C 0.70572 0.37294 0.68856 0.0
C1580 C 0.68724 0.36517 0.69248 0.0
C1581 C 0.7199 0.37368 0.70308 0.0
C1582 C 0.73345 0.35086 0.74962 0.0
H1583 H 0.82305 0.37873 0.78783 0.0
H1584 H 0.79772 0.37966 0.76311 0.0
H1585 H 0.74936 0.33828 0.77315 0.0
H1586 H 0.66913 0.35225 0.71485 0.0
H1587 H 0.69377 0.35375 0.74017 0.0
H1588 H 0.74194 0.3956 0.73011 0.0
C1589 C 0.79415 0.37407 0.77738 0.0
C1590 C 0.74777 0.35097 0.76399 0.0
C1591 C 0.8087 0.37345 0.79153 0.0
C1592 C 0.68322 0.35831 0.7113 0.0
C1593 C 0.69738 0.35905 0.7258 0.0
C1594 C 0.74351 0.38295 0.73934 0.0
C1595 C 0.77542 0.36704 0.78144 0.0
C1596 C 0.76012 0.36706 0.76622 0.0
C1597 C 0.71592 0.36663 0.72183 0.0
C1598 C 0.73114 0.36685 0.73714 0.0
H1599 H 0.78248 0.35308 0.82835 0.0
H1600 H 0.75712 0.35435 0.80373 0.0
H1601 H 0.76699 0.39578 0.75522 0.0
H1602 H 0.70934 0.37827 0.6742 0.0
H1603 H 0.73411 0.3794 0.6995 0.0
C1604 C 0.31027 0.37741 0.29113 0.0
C1605 C 0.3067 0.36642 0.30796 0.0
C1606 C 0.29636 0.37845 0.27636 0.0
C1607 C 0.24402 0.36951 0.26646 0.0
H1608 H 0.26097 0.36905 0.21276 0.0
C1609 C 0.21012 0.35632 0.18495 0.0
C1610 C 0.19253 0.36649 0.18691 0.0
C1611 C 0.22427 0.35731 0.19948 0.0
C1612 C 0.25597 0.36902 0.22767 0.0
H1613 H 0.28582 0.34774 0.32241 0.0
H1614 H 0.26184 0.34915 0.29653 0.0
H1615 H 0.28501 0.36834 0.23866 0.0
H1616 H 0.1762 0.38608 0.20543 0.0
H1617 H 0.20107 0.38826 0.23046 0.0
H1618 H 0.21499 0.36932 0.25553 0.0
C1619 C 0.27513 0.3574 0.29489 0.0
C1620 C 0.26978 0.3689 0.24255 0.0
C1621 C 0.28895 0.35651 0.30971 0.0
C1622 C 0.18954 0.37795 0.20354 0.0
C1623 C 0.20377 0.3791 0.21796 0.0
C1624 C 0.23022 0.36946 0.2516 0.0
C1625 C 0.27865 0.36837 0.27802 0.0
C1626 C 0.26398 0.36906 0.26215 0.0
C1627 C 0.22123 0.36864 0.21622 0.0
C1628 C 0.236 0.36916 0.23201 0.0
H1629 H 0.32378 0.38528 0.28936 0.0
H1630 H 0.29945 0.38728 0.26372 0.0
H1631 H 0.239 0.36992 0.28137 0.0
H1632 H 0.2128 0.34724 0.17238 0.0
H1633 H 0.23739 0.34881 0.19776 0.0
C1634 C 0.6844 0.63809 0.28677 0.0
C1635 C 0.6881 0.63139 0.30571 0.0
C1636 C 0.69867 0.63685 0.27242 0.0
C1637 C 0.7516 0.63288 0.26583 0.0
H1638 H 0.73765 0.61828 0.21323 0.0
C1639 C 0.80908 0.62232 0.20563 0.0
C1640 C 0.8047 0.63029 0.18734 0.0
C1641 C 0.79488 0.6213 0.2201 0.0
C1642 C 0.74175 0.62254 0.22781 0.0
H1643 H 0.70975 0.61806 0.32437 0.0
H1644 H 0.7346 0.61576 0.29922 0.0
H1645 H 0.71283 0.61856 0.2385 0.0
H1646 H 0.7819 0.6434 0.16992 0.0
H1647 H 0.75723 0.64173 0.19521 0.0
H1648 H 0.78048 0.63701 0.25511 0.0
C1649 C 0.72069 0.62214 0.29556 0.0
C1650 C 0.72753 0.6227 0.24229 0.0
C1651 C 0.7064 0.62336 0.30993 0.0
C1652 C 0.78576 0.63707 0.18381 0.0
C1653 C 0.77157 0.63603 0.19827 0.0
C1654 C 0.76582 0.63271 0.25135 0.0
C1655 C 0.71699 0.62891 0.27665 0.0
C1656 C 0.73226 0.62801 0.26143 0.0
C1657 C 0.77599 0.62822 0.21662 0.0
C1658 C 0.76103 0.62768 0.23215 0.0
H1659 H 0.6705 0.64446 0.28303 0.0
H1660 H 0.69545 0.64245 0.25807 0.0
H1661 H 0.75566 0.63729 0.28037 0.0
H1662 H 0.82352 0.61696 0.20884 0.0
H1663 H 0.79868 0.615 0.23401 0.0
C1664 C 0.28541 0.68412 0.63622 0.0
C1665 C 0.3045 0.68781 0.62994 0.0
C1666 C 0.27118 0.69853 0.635 0.0
C1667 C 0.26519 0.75161 0.63213 0.0
H1668 H 0.21266 0.73861 0.61645 0.0
C1669 C 0.20566 0.81001 0.62241 0.0
C1670 C 0.18722 0.80555 0.62998 0.0
C1671 C 0.22004 0.79571 0.62117 0.0
C1672 C 0.22722 0.74244 0.62101 0.0
H1673 H 0.32353 0.70957 0.61734 0.0
H1674 H 0.29863 0.73465 0.61509 0.0
H1675 H 0.23765 0.7135 0.61651 0.0
H1676 H 0.16943 0.7825 0.64212 0.0
H1677 H 0.19452 0.75769 0.64008 0.0
H1678 H 0.25473 0.7805 0.63682 0.0
C1679 C 0.29474 0.72065 0.62112 0.0
C1680 C 0.24154 0.72806 0.62105 0.0
C1681 C 0.30898 0.70622 0.62231 0.0
C1682 C 0.18344 0.78644 0.63612 0.0
C1683 C 0.19779 0.77216 0.63485 0.0
C1684 C 0.25087 0.766 0.6321 0.0
C1685 C 0.27569 0.71699 0.62751 0.0
C1686 C 0.26065 0.73244 0.62675 0.0
C1687 C 0.21629 0.77665 0.62745 0.0
C1688 C 0.23169 0.76154 0.62668 0.0
H1689 H 0.28146 0.67014 0.64226 0.0
H1690 H 0.25671 0.69533 0.64029 0.0
H1691 H 0.27971 0.7554 0.63686 0.0
H1692 H 0.20907 0.82458 0.61755 0.0
H1693 H 0.23407 0.79958 0.61519 0.0
C1694 C 0.31312 0.28611 0.36348 0.0
C1695 C 0.30853 0.30593 0.36529 0.0
C1696 C 0.29852 0.27205 0.36436 0.0
C1697 C 0.2468 0.26509 0.35551 0.0
H1698 H 0.2522 0.21946 0.3881 0.0
C1699 C 0.18413 0.2105 0.36449 0.0
C1700 C 0.18883 0.19068 0.36562 0.0
C1701 C 0.19868 0.2246 0.36529 0.0
C1702 C 0.25055 0.23197 0.3787 0.0
H1703 H 0.28501 0.32653 0.36933 0.0
H1704 H 0.25949 0.30192 0.37059 0.0
H1705 H 0.27788 0.2439 0.38771 0.0
H1706 H 0.21251 0.17008 0.36835 0.0
H1707 H 0.23797 0.19463 0.36914 0.0
H1708 H 0.21982 0.25307 0.34601 0.0
C1709 C 0.27441 0.29733 0.36859 0.0
C1710 C 0.26524 0.24599 0.37856 0.0
C1711 C 0.28903 0.31138 0.36799 0.0
C1712 C 0.2084 0.18525 0.36763 0.0
C1713 C 0.223 0.19935 0.36818 0.0
C1714 C 0.23223 0.25098 0.35545 0.0
C1715 C 0.27902 0.27754 0.36676 0.0
C1716 C 0.26346 0.26269 0.367 0.0
C1717 C 0.21833 0.21922 0.36696 0.0
C1718 C 0.23388 0.23425 0.36709 0.0
H1719 H 0.328 0.28145 0.36138 0.0
H1720 H 0.30242 0.25689 0.36275 0.0
H1721 H 0.2452 0.27772 0.34626 0.0
H1722 H 0.16916 0.21516 0.36307 0.0
H1723 H 0.19448 0.23975 0.3647 0.0
C1724 C 0.18603 0.7896 0.36815 0.0
C1725 C 0.19139 0.80915 0.36577 0.0
C1726 C 0.20014 0.77503 0.36862 0.0
C1727 C 0.25153 0.76546 0.35521 0.0
H1728 H 0.24454 0.72022 0.38806 0.0
C1729 C 0.3115 0.70812 0.36769 0.0
C1730 C 0.30583 0.68866 0.3652 0.0
C1731 C 0.29762 0.72289 0.36824 0.0
C1732 C 0.2466 0.73274 0.37875 0.0
H1733 H 0.21578 0.8288 0.36238 0.0
H1734 H 0.24044 0.80349 0.3639 0.0
H1735 H 0.22039 0.74615 0.38861 0.0
H1736 H 0.28113 0.66941 0.36155 0.0
H1737 H 0.25684 0.69529 0.36287 0.0
H1738 H 0.278 0.75211 0.34572 0.0
C1739 C 0.22531 0.7993 0.36486 0.0
C1740 C 0.23275 0.74757 0.37898 0.0
C1741 C 0.21118 0.81385 0.36413 0.0
C1742 C 0.28596 0.68426 0.3635 0.0
C1743 C 0.27205 0.69903 0.36433 0.0
C1744 C 0.2655 0.75074 0.35519 0.0
C1745 C 0.21997 0.77968 0.36697 0.0
C1746 C 0.23497 0.76409 0.36713 0.0
C1747 C 0.27777 0.71849 0.36657 0.0
C1748 C 0.2631 0.73421 0.36687 0.0
H1749 H 0.17088 0.78548 0.36923 0.0
H1750 H 0.19542 0.76009 0.36988 0.0
H1751 H 0.25358 0.77774 0.3456 0.0
H1752 H 0.32671 0.71199 0.36893 0.0
H1753 H 0.30239 0.73778 0.37009 0.0
C1754 C 0.71107 0.68373 0.36564 0.0
C1755 C 0.69118 0.68806 0.36731 0.0
C1756 C 0.72493 0.69856 0.36642 0.0
C1757 C 0.73117 0.75017 0.35671 0.0
H1758 H 0.77642 0.74631 0.39003 0.0
C1759 C 0.7852 0.81371 0.36441 0.0
C1760 C 0.80501 0.80913 0.36608 0.0
C1761 C 0.77113 0.7991 0.36545 0.0
C1762 C 0.76402 0.74753 0.38042 0.0
H1763 H 0.67023 0.71133 0.37099 0.0
H1764 H 0.69445 0.73721 0.37206 0.0
H1765 H 0.75244 0.72021 0.38991 0.0
H1766 H 0.82564 0.78563 0.3699 0.0
H1767 H 0.80124 0.76013 0.37108 0.0
H1768 H 0.74289 0.7771 0.34671 0.0
C1769 C 0.69928 0.72233 0.37027 0.0
C1770 C 0.75027 0.7326 0.38044 0.0
C1771 C 0.68545 0.70751 0.36979 0.0
C1772 C 0.81047 0.78965 0.36879 0.0
C1773 C 0.79644 0.77503 0.36957 0.0
C1774 C 0.74504 0.76497 0.35648 0.0
C1775 C 0.71913 0.71801 0.36856 0.0
C1776 C 0.73371 0.73381 0.36861 0.0
C1777 C 0.77657 0.77954 0.36789 0.0
C1778 C 0.76166 0.76387 0.36835 0.0
H1779 H 0.71594 0.66889 0.3637 0.0
H1780 H 0.74016 0.69487 0.36493 0.0
H1781 H 0.71863 0.75133 0.34728 0.0
H1782 H 0.78053 0.8286 0.3624 0.0
H1783 H 0.75598 0.8032 0.36445 0.0
C1784 C 0.68607 0.28927 0.36913 0.0
C1785 C 0.69152 0.30875 0.36643 0.0
C1786 C 0.70012 0.27464 0.36985 0.0
C1787 C 0.75149 0.26469 0.3566 0.0
H1788 H 0.74439 0.21991 0.39006 0.0
C1789 C 0.81149 0.20766 0.36971 0.0
C1790 C 0.8059 0.18817 0.36731 0.0
C1791 C 0.79756 0.22238 0.37025 0.0
C1792 C 0.74648 0.2323 0.38058 0.0
H1793 H 0.716 0.32823 0.36276 0.0
H1794 H 0.74055 0.30284 0.36472 0.0
H1795 H 0.72027 0.24588 0.3902 0.0
H1796 H 0.78126 0.1688 0.36394 0.0
H1797 H 0.75685 0.19459 0.36526 0.0
H1798 H 0.77796 0.25119 0.34735 0.0
C1799 C 0.7254 0.29873 0.36574 0.0
C1800 C 0.73264 0.24715 0.38058 0.0
C1801 C 0.71134 0.31333 0.36474 0.0
C1802 C 0.78603 0.18368 0.36581 0.0
C1803 C 0.77206 0.1984 0.36665 0.0
C1804 C 0.76544 0.24996 0.35681 0.0
C1805 C 0.71998 0.27916 0.36814 0.0
C1806 C 0.73492 0.26352 0.36851 0.0
C1807 C 0.77772 0.2179 0.36868 0.0
C1808 C 0.76303 0.2336 0.36873 0.0
H1809 H 0.6709 0.28524 0.37026 0.0
H1810 H 0.69533 0.25973 0.37135 0.0
H1811 H 0.75358 0.27683 0.34682 0.0
H1812 H 0.82669 0.21161 0.37079 0.0
H1813 H 0.80228 0.23729 0.37196 0.0
C1814 C 0.81411 0.21037 0.63722 0.0
C1815 C 0.81005 0.19149 0.63058 0.0
C1816 C 0.79991 0.22483 0.63652 0.0
C1817 C 0.75358 0.23827 0.61309 0.0
H1818 H 0.74814 0.27202 0.65786 0.0
C1819 C 0.68887 0.29106 0.62293 0.0
C1820 C 0.69295 0.30951 0.63068 0.0
C1821 C 0.70327 0.27676 0.62219 0.0
C1822 C 0.74962 0.26289 0.64514 0.0
H1823 H 0.78788 0.17306 0.61782 0.0
H1824 H 0.76304 0.19832 0.61672 0.0
H1825 H 0.77301 0.24688 0.65785 0.0
H1826 H 0.71549 0.32747 0.64349 0.0
H1827 H 0.74061 0.30263 0.64199 0.0
H1828 H 0.73012 0.2543 0.60041 0.0
C1829 C 0.7773 0.20196 0.62228 0.0
C1830 C 0.76387 0.24847 0.64514 0.0
C1831 C 0.79152 0.18747 0.623 0.0
C1832 C 0.71182 0.31341 0.63746 0.0
C1833 C 0.7262 0.29913 0.63672 0.0
C1834 C 0.73931 0.25273 0.61308 0.0
C1835 C 0.7813 0.22076 0.62918 0.0
C1836 C 0.76606 0.23602 0.6291 0.0
C1837 C 0.72206 0.28059 0.62922 0.0
C1838 C 0.7372 0.26523 0.6291 0.0
H1839 H 0.82824 0.21401 0.64313 0.0
H1840 H 0.80354 0.23924 0.64169 0.0
H1841 H 0.75505 0.22906 0.60042 0.0
H1842 H 0.67447 0.28753 0.61765 0.0
H1843 H 0.69956 0.26257 0.61653 0.0
C1844 C 0.28523 0.3141 0.63197 0.0
C1845 C 0.30497 0.30913 0.63043 0.0
C1846 C 0.27088 0.29978 0.63086 0.0
C1847 C 0.26284 0.24836 0.61585 0.0
H1848 H 0.21756 0.25277 0.64908 0.0
C1849 C 0.21004 0.18486 0.63139 0.0
C1850 C 0.19009 0.18905 0.6301 0.0
C1851 C 0.22379 0.19975 0.6303 0.0
C1852 C 0.23005 0.25146 0.63959 0.0
H1853 H 0.32514 0.28521 0.62674 0.0
H1854 H 0.30023 0.26022 0.62543 0.0
H1855 H 0.24211 0.27828 0.6495 0.0
H1856 H 0.16893 0.21217 0.62673 0.0
H1857 H 0.193 0.23821 0.6251 0.0
H1858 H 0.25095 0.22116 0.60648 0.0
C1859 C 0.29572 0.27521 0.62691 0.0
C1860 C 0.2441 0.2661 0.63975 0.0
C1861 C 0.31004 0.28955 0.62777 0.0
C1862 C 0.18419 0.20845 0.62766 0.0
C1863 C 0.19794 0.22337 0.62685 0.0
C1864 C 0.24891 0.2336 0.61589 0.0
C1865 C 0.27594 0.28012 0.62845 0.0
C1866 C 0.26072 0.26474 0.62791 0.0
C1867 C 0.21785 0.21916 0.62818 0.0
C1868 C 0.23241 0.235 0.62779 0.0
H1869 H 0.28084 0.32909 0.63393 0.0
H1870 H 0.25581 0.30417 0.63178 0.0
H1871 H 0.27522 0.24696 0.60625 0.0
H1872 H 0.21505 0.17006 0.63328 0.0
H1873 H 0.23906 0.19614 0.63152 0.0
C1874 C 0.7845 0.81334 0.6321 0.0
C1875 C 0.80427 0.80859 0.6305 0.0
C1876 C 0.77032 0.79885 0.63107 0.0
C1877 C 0.7629 0.74735 0.61611 0.0
H1878 H 0.71754 0.75135 0.64928 0.0
C1879 C 0.71012 0.68366 0.63144 0.0
C1880 C 0.69021 0.68792 0.62979 0.0
C1881 C 0.72392 0.69852 0.63048 0.0
C1882 C 0.73007 0.75014 0.63983 0.0
H1883 H 0.82474 0.78491 0.62685 0.0
H1884 H 0.80014 0.75961 0.6257 0.0
H1885 H 0.74188 0.77704 0.6498 0.0
H1886 H 0.66917 0.71108 0.62593 0.0
H1887 H 0.69331 0.73703 0.62456 0.0
H1888 H 0.75124 0.72006 0.60668 0.0
C1889 C 0.79545 0.77455 0.62713 0.0
C1890 C 0.74399 0.7649 0.64004 0.0
C1891 C 0.80959 0.78906 0.6279 0.0
C1892 C 0.6844 0.70732 0.62713 0.0
C1893 C 0.69818 0.72219 0.62647 0.0
C1894 C 0.7491 0.73248 0.61612 0.0
C1895 C 0.77562 0.77924 0.6287 0.0
C1896 C 0.7606 0.7637 0.62819 0.0
C1897 C 0.71804 0.71793 0.62818 0.0
C1898 C 0.73258 0.73375 0.62798 0.0
H1899 H 0.77994 0.82828 0.63402 0.0
H1900 H 0.7552 0.80306 0.632 0.0
H1901 H 0.7753 0.74608 0.60651 0.0
H1902 H 0.71504 0.66886 0.63351 0.0
H1903 H 0.73916 0.6949 0.63197 0.0
C1904 C 0.63792 0.183 0.78585 0.0
C1905 C 0.63132 0.18698 0.80477 0.0
C1906 C 0.63695 0.1972 0.7714 0.0
C1907 C 0.63403 0.2502 0.76471 0.0
H1908 H 0.61941 0.23657 0.71203 0.0
C1909 C 0.6234 0.30801 0.70504 0.0
C1910 C 0.63138 0.30386 0.6867 0.0
C1911 C 0.62246 0.29367 0.71936 0.0
C1912 C 0.62368 0.24056 0.72664 0.0
H1913 H 0.61836 0.20898 0.82327 0.0
H1914 H 0.6165 0.23367 0.79796 0.0
H1915 H 0.61931 0.21167 0.73725 0.0
H1916 H 0.64454 0.28131 0.66901 0.0
H1917 H 0.64298 0.25635 0.69406 0.0
H1918 H 0.63849 0.27906 0.75409 0.0
C1919 C 0.62263 0.21963 0.79439 0.0
C1920 C 0.62362 0.2263 0.74108 0.0
C1921 C 0.6236 0.20543 0.80886 0.0
C1922 C 0.63823 0.28499 0.68295 0.0
C1923 C 0.63725 0.27064 0.69727 0.0
C1924 C 0.63406 0.26445 0.75028 0.0
C1925 C 0.62938 0.2157 0.77552 0.0
C1926 C 0.62888 0.23094 0.76027 0.0
C1927 C 0.62945 0.27485 0.71566 0.0
C1928 C 0.62896 0.25977 0.73107 0.0
H1929 H 0.64406 0.16898 0.78222 0.0
H1930 H 0.64252 0.19379 0.75708 0.0
H1931 H 0.63845 0.25418 0.77927 0.0
H1932 H 0.61798 0.32239 0.70842 0.0
H1933 H 0.61616 0.2973 0.73331 0.0
C1934 C 0.35869 0.8123 0.78642 0.0
C1935 C 0.3654 0.8086 0.80536 0.0
C1936 C 0.35973 0.79797 0.77213 0.0
C1937 C 0.3631 0.74502 0.76564 0.0
H1938 H 0.37789 0.75874 0.71303 0.0
C1939 C 0.37329 0.6874 0.70554 0.0
C1940 C 0.36545 0.69182 0.6872 0.0
C1941 C 0.37433 0.70159 0.72 0.0
C1942 C 0.37357 0.75471 0.72761 0.0
H1943 H 0.3785 0.78688 0.82408 0.0
H1944 H 0.38044 0.76189 0.79903 0.0
H1945 H 0.37789 0.78358 0.73827 0.0
H1946 H 0.35258 0.71468 0.66969 0.0
H1947 H 0.35428 0.73936 0.69497 0.0
H1948 H 0.35863 0.71617 0.75494 0.0
C1949 C 0.37422 0.77586 0.79532 0.0
C1950 C 0.37357 0.76894 0.74207 0.0
C1951 C 0.3732 0.79022 0.80965 0.0
C1952 C 0.3588 0.71079 0.68362 0.0
C1953 C 0.35986 0.72498 0.69808 0.0
C1954 C 0.3631 0.73078 0.75117 0.0
C1955 C 0.36747 0.77958 0.77641 0.0
C1956 C 0.3682 0.76428 0.76122 0.0
C1957 C 0.36756 0.72052 0.71646 0.0
C1958 C 0.3682 0.7355 0.73197 0.0
H1959 H 0.35247 0.82625 0.78263 0.0
H1960 H 0.35413 0.8012 0.75778 0.0
H1961 H 0.35863 0.74102 0.78019 0.0
H1962 H 0.37855 0.67293 0.70879 0.0
H1963 H 0.38054 0.69776 0.73394 0.0
C1964 C 0.63892 0.71126 0.31423 0.0
C1965 C 0.63182 0.69251 0.31033 0.0
C1966 C 0.63848 0.72563 0.29992 0.0
C1967 C 0.61493 0.73908 0.25363 0.0
H1968 H 0.6602 0.77202 0.24739 0.0
C1969 C 0.62482 0.79078 0.18815 0.0
C1970 C 0.63258 0.80928 0.19199 0.0
C1971 C 0.62426 0.77661 0.20269 0.0
C1972 C 0.64736 0.7631 0.24909 0.0
H1973 H 0.61859 0.67422 0.28831 0.0
H1974 H 0.61796 0.69929 0.26332 0.0
H1975 H 0.65996 0.74724 0.27265 0.0
H1976 H 0.64575 0.8274 0.2142 0.0
H1977 H 0.64458 0.80278 0.23953 0.0
H1978 H 0.60236 0.75494 0.23001 0.0
C1979 C 0.62365 0.70292 0.27753 0.0
C1980 C 0.64721 0.7489 0.26357 0.0
C1981 C 0.6241 0.68853 0.29184 0.0
C1982 C 0.63968 0.81331 0.21072 0.0
C1983 C 0.63913 0.79915 0.22523 0.0
C1984 C 0.61507 0.7533 0.23914 0.0
C1985 C 0.63095 0.7216 0.28138 0.0
C1986 C 0.631 0.73674 0.26602 0.0
C1987 C 0.63149 0.78062 0.22136 0.0
C1988 C 0.63128 0.76548 0.23673 0.0
H1989 H 0.64497 0.71484 0.32831 0.0
H1990 H 0.64398 0.73995 0.30342 0.0
H1991 H 0.60212 0.7301 0.25531 0.0
H1992 H 0.6193 0.78715 0.17387 0.0
H1993 H 0.61849 0.7624 0.19919 0.0
C1994 C 0.36472 0.31339 0.28581 0.0
C1995 C 0.36627 0.30879 0.30565 0.0
C1996 C 0.36539 0.29873 0.27177 0.0
C1997 C 0.35531 0.24724 0.26492 0.0
H1998 H 0.38855 0.25151 0.21965 0.0
C1999 C 0.3635 0.18401 0.21076 0.0
C2000 C 0.36508 0.18861 0.19094 0.0
C2001 C 0.36437 0.19862 0.22481 0.0
C2002 C 0.37897 0.25019 0.23206 0.0
H2003 H 0.36964 0.28523 0.32632 0.0
H2004 H 0.37053 0.25965 0.30178 0.0
H2005 H 0.38853 0.27736 0.24391 0.0
H2006 H 0.36859 0.21215 0.17029 0.0
H2007 H 0.36951 0.23767 0.19472 0.0
H2008 H 0.34528 0.22042 0.25298 0.0
C2009 C 0.36891 0.2746 0.29714 0.0
C2010 C 0.37904 0.26497 0.24597 0.0
C2011 C 0.36852 0.28925 0.31115 0.0
C2012 C 0.36754 0.20811 0.18547 0.0
C2013 C 0.36816 0.22275 0.19951 0.0
C2014 C 0.35505 0.23258 0.25091 0.0
C2015 C 0.3673 0.2792 0.27733 0.0
C2016 C 0.36726 0.26359 0.26255 0.0
C2017 C 0.36657 0.2182 0.21937 0.0
C2018 C 0.36692 0.23382 0.23431 0.0
H2019 H 0.36297 0.3283 0.28111 0.0
H2020 H 0.36398 0.30263 0.25659 0.0
H2021 H 0.3459 0.24595 0.27747 0.0
H2022 H 0.3617 0.1691 0.21545 0.0
H2023 H 0.36346 0.19451 0.23997 0.0
C2024 C 0.36767 0.18586 0.78921 0.0
C2025 C 0.36535 0.19124 0.80875 0.0
C2026 C 0.36817 0.19995 0.77463 0.0
C2027 C 0.35499 0.25139 0.76511 0.0
H2028 H 0.38787 0.24435 0.71989 0.0
C2029 C 0.36783 0.31135 0.70784 0.0
C2030 C 0.36518 0.30569 0.6884 0.0
C2031 C 0.36835 0.29746 0.72262 0.0
C2032 C 0.37856 0.24642 0.73241 0.0
H2033 H 0.36211 0.21565 0.8284 0.0
H2034 H 0.36369 0.24029 0.80309 0.0
H2035 H 0.38829 0.22015 0.74578 0.0
H2036 H 0.36124 0.28103 0.66917 0.0
H2037 H 0.36251 0.25673 0.69504 0.0
H2038 H 0.34564 0.27792 0.7518 0.0
C2039 C 0.36457 0.22515 0.7989 0.0
C2040 C 0.37871 0.23254 0.74721 0.0
C2041 C 0.3638 0.21103 0.81345 0.0
C2042 C 0.36331 0.28584 0.68401 0.0
C2043 C 0.36412 0.27193 0.69877 0.0
C2044 C 0.35505 0.26538 0.75042 0.0
C2045 C 0.36662 0.21979 0.77928 0.0
C2046 C 0.36684 0.23479 0.76371 0.0
C2047 C 0.3665 0.27764 0.71821 0.0
C2048 C 0.36675 0.26297 0.73391 0.0
H2049 H 0.36869 0.1707 0.7851 0.0
H2050 H 0.3694 0.19523 0.75968 0.0
H2051 H 0.34537 0.25346 0.77738 0.0
H2052 H 0.36921 0.32654 0.7117 0.0
H2053 H 0.37031 0.30221 0.73749 0.0
C2054 C 0.62963 0.81301 0.78726 0.0
C2055 C 0.63208 0.8071 0.80665 0.0
C2056 C 0.62874 0.79927 0.77235 0.0
C2057 C 0.61722 0.74845 0.76235 0.0
H2058 H 0.65069 0.75461 0.71747 0.0
C2059 C 0.62819 0.6869 0.70678 0.0
C2060 C 0.63077 0.69185 0.68715 0.0
C2061 C 0.62755 0.70132 0.72103 0.0
C2062 C 0.64098 0.75281 0.72971 0.0
H2063 H 0.6353 0.78215 0.82565 0.0
H2064 H 0.63342 0.75816 0.7996 0.0
H2065 H 0.65071 0.77929 0.74287 0.0
H2066 H 0.63434 0.71582 0.66701 0.0
H2067 H 0.63256 0.74101 0.69177 0.0
H2068 H 0.60718 0.72221 0.74918 0.0
C2069 C 0.63223 0.77342 0.79598 0.0
C2070 C 0.64108 0.76692 0.74429 0.0
C2071 C 0.63341 0.78716 0.81086 0.0
C2072 C 0.63243 0.71153 0.68203 0.0
C2073 C 0.63154 0.72597 0.69627 0.0
C2074 C 0.61692 0.73446 0.74767 0.0
C2075 C 0.63001 0.77936 0.77659 0.0
C2076 C 0.62933 0.76478 0.76081 0.0
C2077 C 0.62923 0.72105 0.71597 0.0
C2078 C 0.62895 0.73635 0.73124 0.0
H2079 H 0.62866 0.82827 0.78355 0.0
H2080 H 0.62692 0.80419 0.75752 0.0
H2081 H 0.60785 0.7466 0.77486 0.0
H2082 H 0.62707 0.67184 0.71121 0.0
H2083 H 0.62614 0.69692 0.73606 0.0
C2084 C 0.64074 0.28693 0.31209 0.0
C2085 C 0.63045 0.30445 0.31014 0.0
C2086 C 0.63998 0.27286 0.29749 0.0
C2087 C 0.62858 0.24125 0.2691 0.0
H2088 H 0.62829 0.25836 0.21544 0.0
C2089 C 0.62027 0.18721 0.20557 0.0
C2090 C 0.63143 0.19064 0.18882 0.0
C2091 C 0.61927 0.20112 0.22031 0.0
C2092 C 0.62854 0.25331 0.23034 0.0
H2093 H 0.61093 0.32075 0.29152 0.0
H2094 H 0.60917 0.29602 0.26633 0.0
H2095 H 0.62862 0.28232 0.24137 0.0
H2096 H 0.65043 0.2113 0.17449 0.0
H2097 H 0.64907 0.23533 0.20036 0.0
H2098 H 0.62934 0.21225 0.25805 0.0
C2099 C 0.61822 0.29331 0.27891 0.0
C2100 C 0.62843 0.26707 0.24524 0.0
C2101 C 0.61912 0.30746 0.29343 0.0
C2102 C 0.64155 0.20828 0.18713 0.0
C2103 C 0.64069 0.22211 0.20194 0.0
C2104 C 0.62885 0.22749 0.25419 0.0
C2105 C 0.62879 0.27592 0.28066 0.0
C2106 C 0.62849 0.26122 0.26482 0.0
C2107 C 0.62955 0.21871 0.21873 0.0
C2108 C 0.62888 0.23335 0.23462 0.0
H2109 H 0.64974 0.28424 0.32472 0.0
H2110 H 0.64856 0.25979 0.29921 0.0
H2111 H 0.62839 0.23621 0.284 0.0
H2112 H 0.61223 0.17379 0.20729 0.0
H2113 H 0.6103 0.19813 0.23289 0.0
C2114 C 0.36399 0.78574 0.18336 0.0
C2115 C 0.36504 0.80553 0.18822 0.0
C2116 C 0.36504 0.77152 0.19781 0.0
C2117 C 0.37914 0.76405 0.24952 0.0
H2118 H 0.34704 0.71802 0.24453 0.0
C2119 C 0.36421 0.71041 0.31253 0.0
C2120 C 0.36609 0.69055 0.30816 0.0
C2121 C 0.36509 0.72432 0.29777 0.0
C2122 C 0.3562 0.73073 0.24601 0.0
H2123 H 0.36781 0.82595 0.21205 0.0
H2124 H 0.36902 0.80124 0.23728 0.0
H2125 H 0.34643 0.74259 0.21906 0.0
H2126 H 0.37028 0.66971 0.28488 0.0
H2127 H 0.37153 0.69404 0.2591 0.0
H2128 H 0.38839 0.7523 0.27684 0.0
C2129 C 0.36796 0.7966 0.22229 0.0
C2130 C 0.35594 0.74479 0.23139 0.0
C2131 C 0.36716 0.81081 0.20782 0.0
C2132 C 0.36889 0.6849 0.28873 0.0
C2133 C 0.36949 0.69879 0.27396 0.0
C2134 C 0.3792 0.75009 0.26426 0.0
C2135 C 0.36689 0.77677 0.21748 0.0
C2136 C 0.3674 0.76165 0.23295 0.0
C2137 C 0.36757 0.71862 0.27834 0.0
C2138 C 0.36774 0.73331 0.26263 0.0
H2139 H 0.36246 0.7812 0.16837 0.0
H2140 H 0.36452 0.75641 0.1935 0.0
H2141 H 0.38844 0.77664 0.25108 0.0
H2142 H 0.36203 0.71523 0.32735 0.0
H2143 H 0.36342 0.73951 0.30151 0.0
C2144 C 0.12801 0.9257 0.34373 0.0
C2145 C 0.14156 0.91591 0.35542 0.0
C2146 C 0.12574 0.94579 0.34521 0.0
C2147 C 0.13814 0.98866 0.37593 0.0
H2148 H 0.13198 0.01637 0.32727 0.0
C2149 C 0.15424 0.07055 0.36571 0.0
C2150 C 0.14106 0.08133 0.35443 0.0
C2151 C 0.15219 0.05044 0.36751 0.0
C2152 C 0.13344 0.00882 0.341 0.0
H2153 H 0.16301 0.91942 0.37823 0.0
H2154 H 0.15955 0.95456 0.38038 0.0
H2155 H 0.13235 0.98107 0.32728 0.0
H2156 H 0.11503 0.07951 0.3367 0.0
H2157 H 0.11166 0.04436 0.33969 0.0
H2158 H 0.14 0.01667 0.38945 0.0
C2159 C 0.15034 0.94671 0.37034 0.0
C2160 C 0.13359 0.98857 0.34105 0.0
C2161 C 0.15242 0.92655 0.36903 0.0
C2162 C 0.12549 0.07164 0.34542 0.0
C2163 C 0.12358 0.05151 0.34706 0.0
C2164 C 0.13821 0.00897 0.37584 0.0
C2165 C 0.13716 0.95661 0.35824 0.0
C2166 C 0.13604 0.9782 0.35849 0.0
C2167 C 0.13704 0.0407 0.35793 0.0
C2168 C 0.13595 0.01923 0.35835 0.0
H2169 H 0.11922 0.91784 0.3333 0.0
H2170 H 0.11512 0.95284 0.336 0.0
H2171 H 0.13975 0.98117 0.38967 0.0
H2172 H 0.1663 0.0776 0.37294 0.0
H2173 H 0.16285 0.04243 0.37587 0.0
C2174 C 0.92543 0.15511 0.36742 0.0
C2175 C 0.91561 0.14315 0.35411 0.0
C2176 C 0.94553 0.1537 0.36965 0.0
C2177 C 0.98829 0.12261 0.358 0.0
H2178 H 0.01626 0.17121 0.36348 0.0
C2179 C 0.07036 0.13189 0.34245 0.0
C2180 C 0.08115 0.14333 0.35549 0.0
C2181 C 0.05022 0.13032 0.34435 0.0
C2182 C 0.00864 0.1575 0.36221 0.0
H2183 H 0.91911 0.12001 0.33303 0.0
H2184 H 0.95428 0.11798 0.33643 0.0
H2185 H 0.98095 0.1714 0.3628 0.0
H2186 H 0.07929 0.1616 0.38112 0.0
H2187 H 0.04406 0.15902 0.38424 0.0
H2188 H 0.01623 0.10888 0.35666 0.0
C2189 C 0.94643 0.12817 0.34547 0.0
C2190 C 0.98838 0.15757 0.36188 0.0
C2191 C 0.92626 0.12941 0.34342 0.0
C2192 C 0.07141 0.15274 0.37078 0.0
C2193 C 0.05125 0.15134 0.37254 0.0
C2194 C 0.00861 0.12257 0.35812 0.0
C2195 C 0.95634 0.14047 0.35845 0.0
C2196 C 0.97792 0.14015 0.35967 0.0
C2197 C 0.04044 0.14029 0.35921 0.0
C2198 C 0.01896 0.14004 0.36013 0.0
H2199 H 0.91758 0.16564 0.37608 0.0
H2200 H 0.95259 0.16309 0.38011 0.0
H2201 H 0.98074 0.10888 0.35659 0.0
H2202 H 0.07745 0.12434 0.3306 0.0
H2203 H 0.04223 0.12181 0.33379 0.0
C2204 C 0.86472 0.07124 0.33839 0.0
C2205 C 0.85501 0.08148 0.35314 0.0
C2206 C 0.86645 0.05107 0.33926 0.0
C2207 C 0.86261 0.0086 0.37205 0.0
H2208 H 0.85184 0.98105 0.32411 0.0
C2209 C 0.84713 0.92591 0.36847 0.0
C2210 C 0.85455 0.91562 0.35246 0.0
C2211 C 0.84892 0.94612 0.36946 0.0
C2212 C 0.85517 0.98849 0.33757 0.0
H2213 H 0.8401 0.07855 0.38078 0.0
H2214 H 0.8429 0.04325 0.38214 0.0
H2215 H 0.85194 0.01634 0.32428 0.0
H2216 H 0.87046 0.91844 0.32538 0.0
H2217 H 0.87373 0.95357 0.32722 0.0
H2218 H 0.86559 0.9806 0.38535 0.0
C2219 C 0.84932 0.05089 0.36997 0.0
C2220 C 0.85523 0.00875 0.33766 0.0
C2221 C 0.84763 0.07111 0.36913 0.0
C2222 C 0.86437 0.92591 0.33781 0.0
C2223 C 0.86618 0.94608 0.33882 0.0
C2224 C 0.86255 0.98828 0.37196 0.0
C2225 C 0.85847 0.04062 0.35487 0.0
C2226 C 0.85893 0.01905 0.35489 0.0
C2227 C 0.8582 0.95645 0.35448 0.0
C2228 C 0.8588 0.97801 0.3547 0.0
H2229 H 0.8708 0.07877 0.32597 0.0
H2230 H 0.87392 0.04362 0.32758 0.0
H2231 H 0.86571 0.01612 0.38552 0.0
H2232 H 0.83954 0.91844 0.38005 0.0
H2233 H 0.84249 0.9537 0.38166 0.0
C2234 C 0.92561 0.83939 0.36515 0.0
C2235 C 0.9153 0.8537 0.35487 0.0
C2236 C 0.94576 0.84053 0.367 0.0
C2237 C 0.98797 0.87349 0.36249 0.0
H2238 H 0.01584 0.8255 0.35281 0.0
C2239 C 0.0708 0.86989 0.34753 0.0
C2240 C 0.08105 0.85396 0.35518 0.0
C2241 C 0.05059 0.87093 0.34927 0.0
C2242 C 0.00831 0.83897 0.35585 0.0
H2243 H 0.91803 0.88089 0.33914 0.0
H2244 H 0.95331 0.88274 0.34218 0.0
H2245 H 0.98056 0.82546 0.35276 0.0
H2246 H 0.0782 0.82715 0.37154 0.0
H2247 H 0.04308 0.82911 0.37477 0.0
H2248 H 0.01588 0.887 0.36534 0.0
C2249 C 0.94574 0.8707 0.34892 0.0
C2250 C 0.98806 0.83895 0.35581 0.0
C2251 C 0.92554 0.86958 0.34709 0.0
C2252 C 0.07074 0.83949 0.36524 0.0
C2253 C 0.05059 0.84057 0.36703 0.0
C2254 C 0.0083 0.87351 0.36253 0.0
C2255 C 0.95609 0.85599 0.3586 0.0
C2256 C 0.97765 0.85619 0.35912 0.0
C2257 C 0.04024 0.85609 0.35875 0.0
C2258 C 0.01868 0.85623 0.35921 0.0
H2259 H 0.91817 0.82709 0.37155 0.0
H2260 H 0.95328 0.82917 0.37487 0.0
H2261 H 0.98034 0.88696 0.36525 0.0
H2262 H 0.07832 0.88131 0.33974 0.0
H2263 H 0.04303 0.88301 0.34262 0.0
C2264 C 0.13016 0.07132 0.65505 0.0
C2265 C 0.14326 0.08115 0.64289 0.0
C2266 C 0.12797 0.05122 0.65372 0.0
C2267 C 0.13935 0.00838 0.62262 0.0
H2268 H 0.13447 0.98062 0.6714 0.0
C2269 C 0.15461 0.92622 0.63201 0.0
C2270 C 0.14163 0.91558 0.64366 0.0
C2271 C 0.15284 0.94637 0.63039 0.0
C2272 C 0.13558 0.98818 0.65764 0.0
H2273 H 0.16402 0.07769 0.61944 0.0
H2274 H 0.16072 0.0425 0.61754 0.0
H2275 H 0.13518 0.01592 0.67145 0.0
H2276 H 0.11627 0.91772 0.66229 0.0
H2277 H 0.11338 0.95294 0.6596 0.0
H2278 H 0.14048 0.98039 0.60899 0.0
C2279 C 0.15179 0.05034 0.62785 0.0
C2280 C 0.13592 0.00844 0.65763 0.0
C2281 C 0.15379 0.07052 0.62901 0.0
C2282 C 0.12656 0.92548 0.65326 0.0
C2283 C 0.12493 0.94564 0.65179 0.0
C2284 C 0.13922 0.98807 0.62267 0.0
C2285 C 0.13903 0.04041 0.64037 0.0
C2286 C 0.13789 0.01882 0.64014 0.0
C2287 C 0.13819 0.9563 0.64052 0.0
C2288 C 0.1374 0.97779 0.6402 0.0
H2289 H 0.12162 0.07917 0.66569 0.0
H2290 H 0.11767 0.04415 0.66327 0.0
H2291 H 0.14058 0.01588 0.60885 0.0
H2292 H 0.1663 0.91902 0.62433 0.0
H2293 H 0.16334 0.95425 0.6217 0.0
C2294 C 0.92657 0.15079 0.62906 0.0
C2295 C 0.91585 0.1407 0.6432 0.0
C2296 C 0.94673 0.14872 0.62802 0.0
C2297 C 0.98863 0.13373 0.65823 0.0
H2298 H 0.01657 0.13748 0.60944 0.0
C2299 C 0.07183 0.12559 0.65365 0.0
C2300 C 0.08139 0.14069 0.64375 0.0
C2301 C 0.05168 0.12359 0.65236 0.0
C2302 C 0.00892 0.13644 0.62316 0.0
H2303 H 0.91771 0.11978 0.66668 0.0
H2304 H 0.95278 0.1157 0.66448 0.0
H2305 H 0.98109 0.13707 0.60935 0.0
H2306 H 0.07739 0.165 0.62409 0.0
H2307 H 0.04218 0.16136 0.62174 0.0
H2308 H 0.01651 0.13299 0.67198 0.0
C2309 C 0.94574 0.12571 0.65459 0.0
C2310 C 0.98861 0.13628 0.62314 0.0
C2311 C 0.92561 0.12796 0.6558 0.0
C2312 C 0.07044 0.15331 0.632 0.0
C2313 C 0.05031 0.15115 0.63054 0.0
C2314 C 0.00891 0.13366 0.65821 0.0
C2315 C 0.95661 0.13633 0.64092 0.0
C2316 C 0.9782 0.13518 0.64071 0.0
C2317 C 0.04072 0.13647 0.64096 0.0
C2318 C 0.01924 0.13524 0.64071 0.0
H2319 H 0.91947 0.16075 0.61917 0.0
H2320 H 0.9546 0.15735 0.61748 0.0
H2321 H 0.98117 0.13325 0.67207 0.0
H2322 H 0.07983 0.11558 0.66278 0.0
H2323 H 0.04463 0.11204 0.66041 0.0
C2324 C 0.86957 0.0707 0.65165 0.0
C2325 C 0.85428 0.08062 0.64243 0.0
C2326 C 0.87117 0.05055 0.6501 0.0
C2327 C 0.85656 0.00822 0.62118 0.0
H2328 H 0.86202 0.98024 0.66976 0.0
C2329 C 0.84338 0.92559 0.6276 0.0
C2330 C 0.85431 0.91506 0.64125 0.0
C2331 C 0.84513 0.94578 0.6264 0.0
C2332 C 0.86088 0.98777 0.65599 0.0
H2333 H 0.82915 0.07724 0.62369 0.0
H2334 H 0.83208 0.04198 0.62091 0.0
H2335 H 0.86212 0.01555 0.66985 0.0
H2336 H 0.87644 0.91726 0.66356 0.0
H2337 H 0.87994 0.95234 0.66107 0.0
H2338 H 0.85544 0.98045 0.60727 0.0
C2339 C 0.84276 0.04986 0.62937 0.0
C2340 C 0.86086 0.00802 0.65608 0.0
C2341 C 0.84102 0.07002 0.63107 0.0
C2342 C 0.8676 0.92501 0.6531 0.0
C2343 C 0.86953 0.94515 0.65173 0.0
C2344 C 0.85679 0.98791 0.62105 0.0
C2345 C 0.85766 0.03992 0.63913 0.0
C2346 C 0.85855 0.01845 0.63872 0.0
C2347 C 0.85803 0.95584 0.63866 0.0
C2348 C 0.8588 0.97743 0.63849 0.0
H2349 H 0.8801 0.07842 0.66044 0.0
H2350 H 0.88292 0.04325 0.65761 0.0
H2351 H 0.85493 0.01594 0.60756 0.0
H2352 H 0.83298 0.91834 0.61828 0.0
H2353 H 0.83587 0.95352 0.61632 0.0
C2354 C 0.92617 0.83509 0.63825 0.0
C2355 C 0.91508 0.85194 0.64142 0.0
C2356 C 0.94639 0.8361 0.63729 0.0
C2357 C 0.98777 0.86766 0.62776 0.0
H2358 H 0.01542 0.83317 0.66275 0.0
C2359 C 0.07124 0.85285 0.62627 0.0
C2360 C 0.08057 0.85396 0.64441 0.0
C2361 C 0.05098 0.85407 0.62503 0.0
C2362 C 0.00788 0.84289 0.65294 0.0
H2363 H 0.91647 0.8832 0.64523 0.0
H2364 H 0.95197 0.88495 0.64321 0.0
H2365 H 0.97996 0.83228 0.66159 0.0
H2366 H 0.076 0.85763 0.6754 0.0
H2367 H 0.04071 0.85933 0.6732 0.0
H2368 H 0.01585 0.87806 0.61896 0.0
C2369 C 0.9449 0.87098 0.64163 0.0
C2370 C 0.98764 0.8423 0.65218 0.0
C2371 C 0.92463 0.86995 0.64289 0.0
C2372 C 0.06928 0.8567 0.66121 0.0
C2373 C 0.04908 0.8576 0.65999 0.0
C2374 C 0.0081 0.86801 0.62827 0.0
C2375 C 0.95594 0.85401 0.63919 0.0
C2376 C 0.9774 0.8547 0.63965 0.0
C2377 C 0.03974 0.8561 0.64193 0.0
C2378 C 0.01829 0.85571 0.64097 0.0
H2379 H 0.9193 0.82099 0.63702 0.0
H2380 H 0.9546 0.82283 0.63524 0.0
H2381 H 0.98016 0.87731 0.61794 0.0
H2382 H 0.07956 0.85086 0.61306 0.0
H2383 H 0.04407 0.8528 0.61095 0.0
C2384 C 0.36811 0.15392 0.07147 0.0
C2385 C 0.35488 0.1419 0.08129 0.0
C2386 C 0.37041 0.15245 0.05138 0.0
C2387 C 0.35879 0.12131 0.0086 0.0
H2388 H 0.36375 0.17003 0.98075 0.0
C2389 C 0.34273 0.13092 0.9266 0.0
C2390 C 0.35569 0.14249 0.91585 0.0
C2391 C 0.34472 0.12921 0.94672 0.0
C2392 C 0.36263 0.15629 0.98834 0.0
H2393 H 0.33401 0.11855 0.07785 0.0
H2394 H 0.33748 0.11642 0.04271 0.0
H2395 H 0.36331 0.17012 0.01606 0.0
H2396 H 0.38129 0.16083 0.91776 0.0
H2397 H 0.38456 0.158 0.95292 0.0
H2398 H 0.35734 0.10766 0.98063 0.0
C2399 C 0.34645 0.12671 0.05053 0.0
C2400 C 0.36244 0.1563 0.0086 0.0
C2401 C 0.34435 0.128 0.07069 0.0
C2402 C 0.371 0.15188 0.9256 0.0
C2403 C 0.37285 0.15032 0.94574 0.0
C2404 C 0.35876 0.12134 0.98829 0.0
C2405 C 0.35931 0.13911 0.04059 0.0
C2406 C 0.36043 0.13883 0.01901 0.0
C2407 C 0.35959 0.13917 0.95651 0.0
C2408 C 0.36059 0.13885 0.97799 0.0
H2409 H 0.37665 0.16458 0.0793 0.0
H2410 H 0.38079 0.16191 0.0443 0.0
H2411 H 0.35753 0.10756 0.01613 0.0
H2412 H 0.33087 0.12339 0.91951 0.0
H2413 H 0.33423 0.12062 0.95471 0.0
C2414 C 0.84937 0.36936 0.92579 0.0
C2415 C 0.85696 0.35349 0.91541 0.0
C2416 C 0.8514 0.37038 0.94598 0.0
C2417 C 0.85849 0.33837 0.98807 0.0
H2418 H 0.86768 0.38638 0.01606 0.0
C2419 C 0.86671 0.33894 0.07094 0.0
C2420 C 0.85633 0.35336 0.08101 0.0
C2421 C 0.8689 0.33999 0.05082 0.0
C2422 C 0.86498 0.37289 0.00843 0.0
H2423 H 0.87354 0.32679 0.91799 0.0
H2424 H 0.87724 0.3287 0.95307 0.0
H2425 H 0.86782 0.38643 0.98054 0.0
H2426 H 0.84077 0.38061 0.07789 0.0
H2427 H 0.84437 0.38226 0.04269 0.0
H2428 H 0.85535 0.32484 0.0158 0.0
C2429 C 0.86935 0.34013 0.94568 0.0
C2430 C 0.86506 0.37292 0.98811 0.0
C2431 C 0.86728 0.33908 0.92555 0.0
C2432 C 0.84878 0.36921 0.07057 0.0
C2433 C 0.85095 0.37023 0.05041 0.0
C2434 C 0.85841 0.33833 0.00832 0.0
C2435 C 0.86111 0.35558 0.95617 0.0
C2436 C 0.86176 0.35565 0.97772 0.0
C2437 C 0.86075 0.35546 0.04028 0.0
C2438 C 0.86159 0.35559 0.01874 0.0
H2439 H 0.84139 0.38074 0.91842 0.0
H2440 H 0.84477 0.3824 0.95365 0.0
H2441 H 0.85549 0.32489 0.98052 0.0
H2442 H 0.87293 0.32665 0.07856 0.0
H2443 H 0.87685 0.32857 0.04348 0.0
C2444 C 0.62594 0.84233 0.9247 0.0
C2445 C 0.64094 0.85248 0.91525 0.0
C2446 C 0.62378 0.84356 0.94484 0.0
C2447 C 0.63584 0.87309 0.98762 0.0
H2448 H 0.63318 0.82425 0.01555 0.0
C2449 C 0.65016 0.8677 0.06999 0.0
C2450 C 0.64029 0.85346 0.08078 0.0
C2451 C 0.64805 0.86865 0.04983 0.0
C2452 C 0.63351 0.83807 0.00804 0.0
H2453 H 0.66492 0.8725 0.91943 0.0
H2454 H 0.661 0.87477 0.9546 0.0
H2455 H 0.63312 0.8242 0.98021 0.0
H2456 H 0.61969 0.82969 0.07902 0.0
H2457 H 0.61553 0.83171 0.04395 0.0
H2458 H 0.63613 0.88701 0.0154 0.0
C2459 C 0.65099 0.86581 0.9464 0.0
C2460 C 0.63354 0.838 0.98776 0.0
C2461 C 0.65331 0.8644 0.92629 0.0
C2462 C 0.6277 0.84067 0.07107 0.0
C2463 C 0.6254 0.84177 0.05094 0.0
C2464 C 0.63558 0.87318 0.00793 0.0
C2465 C 0.63639 0.85518 0.9559 0.0
C2466 C 0.63497 0.85548 0.97736 0.0
C2467 C 0.63582 0.85554 0.04001 0.0
C2468 C 0.63468 0.85565 0.01841 0.0
H2469 H 0.61613 0.83306 0.91662 0.0
H2470 H 0.6123 0.83534 0.95181 0.0
H2471 H 0.63674 0.88679 0.97993 0.0
H2472 H 0.66001 0.87775 0.07702 0.0
H2473 H 0.65652 0.87927 0.04191 0.0
C2474 C 0.15321 0.63122 0.07074 0.0
C2475 C 0.14043 0.64289 0.08159 0.0
C2476 C 0.15111 0.62961 0.05062 0.0
C2477 C 0.13351 0.65708 0.00919 0.0
H2478 H 0.13811 0.60839 0.98124 0.0
C2479 C 0.12877 0.65499 0.92595 0.0
C2480 C 0.14194 0.6428 0.91625 0.0
C2481 C 0.12628 0.65356 0.94602 0.0
C2482 C 0.13698 0.62213 0.98881 0.0
H2483 H 0.11505 0.66153 0.0799 0.0
H2484 H 0.11159 0.6589 0.04471 0.0
H2485 H 0.13807 0.60835 0.01673 0.0
H2486 H 0.16249 0.6192 0.9199 0.0
H2487 H 0.15866 0.61712 0.955 0.0
H2488 H 0.13322 0.67103 0.98152 0.0
C2489 C 0.12323 0.65105 0.05182 0.0
C2490 C 0.13688 0.62207 0.00912 0.0
C2491 C 0.12519 0.65249 0.07196 0.0
C2492 C 0.15221 0.62879 0.92696 0.0
C2493 C 0.14991 0.62752 0.94709 0.0
C2494 C 0.13384 0.65717 0.98893 0.0
C2495 C 0.13631 0.63979 0.04095 0.0
C2496 C 0.13526 0.63957 0.01948 0.0
C2497 C 0.13709 0.64006 0.9569 0.0
C2498 C 0.1357 0.63972 0.97846 0.0
H2499 H 0.16502 0.62353 0.07774 0.0
H2500 H 0.16147 0.62094 0.04256 0.0
H2501 H 0.13255 0.67081 0.01683 0.0
H2502 H 0.12043 0.66574 0.91804 0.0
H2503 H 0.11595 0.66314 0.95301 0.0
C2504 C 0.345 0.86879 0.9261 0.0
C2505 C 0.35559 0.85494 0.91547 0.0
C2506 C 0.34699 0.87001 0.94627 0.0
C2507 C 0.36299 0.8404 0.98828 0.0
H2508 H 0.35743 0.88899 0.01624 0.0
C2509 C 0.37105 0.84497 0.07143 0.0
C2510 C 0.35566 0.85433 0.08107 0.0
C2511 C 0.37299 0.84645 0.05129 0.0
C2512 C 0.35898 0.87533 0.00858 0.0
H2513 H 0.37735 0.83227 0.9175 0.0
H2514 H 0.38132 0.83481 0.95254 0.0
H2515 H 0.35777 0.88911 0.98075 0.0
H2516 H 0.33076 0.87328 0.07721 0.0
H2517 H 0.33429 0.87595 0.04202 0.0
H2518 H 0.36429 0.82667 0.01614 0.0
C2519 C 0.37096 0.84429 0.94544 0.0
C2520 C 0.3591 0.87536 0.98827 0.0
C2521 C 0.36877 0.84289 0.92533 0.0
C2522 C 0.3427 0.86578 0.07021 0.0
C2523 C 0.34478 0.86743 0.05008 0.0
C2524 C 0.36309 0.84041 0.00855 0.0
C2525 C 0.35982 0.85759 0.95624 0.0
C2526 C 0.36088 0.85785 0.97785 0.0
C2527 C 0.35975 0.85751 0.0404 0.0
C2528 C 0.36088 0.85783 0.01891 0.0
H2529 H 0.33468 0.87826 0.91892 0.0
H2530 H 0.33798 0.88026 0.95408 0.0
H2531 H 0.36399 0.82659 0.98082 0.0
H2532 H 0.38133 0.83609 0.07937 0.0
H2533 H 0.38477 0.8388 0.04419 0.0
C2534 C 0.152 0.36864 0.07034 0.0
C2535 C 0.14139 0.35488 0.08103 0.0
C2536 C 0.14988 0.36988 0.05018 0.0
C2537 C 0.13351 0.34034 0.00832 0.0
H2538 H 0.13937 0.38884 0.98028 0.0
C2539 C 0.1257 0.34484 0.92514 0.0
C2540 C 0.14121 0.35406 0.91556 0.0
C2541 C 0.12368 0.34636 0.94527 0.0
C2542 C 0.13773 0.37521 0.98796 0.0
H2543 H 0.11943 0.33237 0.07917 0.0
H2544 H 0.11525 0.33493 0.04415 0.0
H2545 H 0.13902 0.38903 0.01576 0.0
H2546 H 0.16625 0.3728 0.9195 0.0
H2547 H 0.16259 0.37555 0.95466 0.0
H2548 H 0.13214 0.32657 0.98049 0.0
C2549 C 0.12572 0.34434 0.05118 0.0
C2550 C 0.13761 0.37527 0.00827 0.0
C2551 C 0.12803 0.34293 0.07128 0.0
C2552 C 0.15422 0.36541 0.92646 0.0
C2553 C 0.15207 0.36711 0.94657 0.0
C2554 C 0.13341 0.34031 0.98805 0.0
C2555 C 0.1369 0.35755 0.04031 0.0
C2556 C 0.13574 0.3578 0.01872 0.0
C2557 C 0.13697 0.35733 0.9562 0.0
C2558 C 0.13575 0.3577 0.97767 0.0
H2559 H 0.16245 0.37804 0.07743 0.0
H2560 H 0.15893 0.38005 0.04231 0.0
H2561 H 0.13243 0.32655 0.01581 0.0
H2562 H 0.11537 0.33604 0.91717 0.0
H2563 H 0.1118 0.33883 0.95234 0.0
C2564 C 0.6555 0.13151 0.07066 0.0
C2565 C 0.64261 0.14322 0.08134 0.0
C2566 C 0.65388 0.13016 0.05047 0.0
C2567 C 0.63732 0.15804 0.00876 0.0
H2568 H 0.64099 0.1093 0.98078 0.0
C2569 C 0.63121 0.1558 0.92553 0.0
C2570 C 0.6438 0.14321 0.91557 0.0
C2571 C 0.62926 0.1546 0.94568 0.0
C2572 C 0.64016 0.12306 0.98835 0.0
H2573 H 0.61757 0.16228 0.0792 0.0
H2574 H 0.61495 0.16009 0.04393 0.0
H2575 H 0.64107 0.10925 0.01626 0.0
H2576 H 0.66397 0.11923 0.9189 0.0
H2577 H 0.66108 0.11756 0.95411 0.0
H2578 H 0.63712 0.17201 0.98109 0.0
C2579 C 0.62632 0.152 0.05123 0.0
C2580 C 0.64012 0.123 0.00866 0.0
C2581 C 0.62778 0.15318 0.07142 0.0
C2582 C 0.65411 0.12912 0.92615 0.0
C2583 C 0.65235 0.12809 0.94635 0.0
C2584 C 0.63758 0.15814 0.98849 0.0
C2585 C 0.63947 0.14065 0.04054 0.0
C2586 C 0.63876 0.1405 0.01904 0.0
C2587 C 0.64005 0.14096 0.9564 0.0
C2588 C 0.63906 0.14067 0.978 0.0
H2589 H 0.66701 0.12356 0.07788 0.0
H2590 H 0.66429 0.12139 0.04257 0.0
H2591 H 0.63655 0.17178 0.01641 0.0
H2592 H 0.62286 0.16664 0.91775 0.0
H2593 H 0.61931 0.16446 0.95285 0.0
C2594 C 0.84272 0.63136 0.9263 0.0
C2595 C 0.85557 0.64295 0.91545 0.0
C2596 C 0.84463 0.62998 0.94646 0.0
C2597 C 0.86197 0.65773 0.98792 0.0
H2598 H 0.85781 0.60907 0.01599 0.0
C2599 C 0.86752 0.65561 0.07122 0.0
C2600 C 0.85462 0.64323 0.08105 0.0
C2601 C 0.86972 0.65432 0.0511 0.0
C2602 C 0.8588 0.62281 0.00839 0.0
H2603 H 0.88083 0.66176 0.91722 0.0
H2604 H 0.88395 0.65951 0.95245 0.0
H2605 H 0.85764 0.60896 0.98051 0.0
H2606 H 0.83419 0.6195 0.07753 0.0
H2607 H 0.83752 0.61765 0.0424 0.0
H2608 H 0.86237 0.67173 0.01557 0.0
C2609 C 0.87241 0.65154 0.94532 0.0
C2610 C 0.85878 0.62271 0.98808 0.0
C2611 C 0.87065 0.65275 0.92514 0.0
C2612 C 0.84429 0.62923 0.07039 0.0
C2613 C 0.84631 0.62809 0.05023 0.0
C2614 C 0.86176 0.65786 0.00818 0.0
C2615 C 0.85929 0.64031 0.95618 0.0
C2616 C 0.86027 0.64018 0.97767 0.0
C2617 C 0.85889 0.64076 0.04029 0.0
C2618 C 0.86007 0.64042 0.0187 0.0
H2619 H 0.83103 0.62353 0.91926 0.0
H2620 H 0.83425 0.62132 0.95452 0.0
H2621 H 0.86285 0.67144 0.98024 0.0
H2622 H 0.87589 0.66639 0.07907 0.0
H2623 H 0.87987 0.66403 0.04401 0.0
C2624 C 0.07136 0.3644 0.1588 0.0
C2625 C 0.08153 0.35462 0.14404 0.0
C2626 C 0.0512 0.36632 0.15789 0.0
C2627 C 0.00885 0.36313 0.12492 0.0
H2628 H 0.98091 0.35257 0.17269 0.0
C2629 C 0.92606 0.34833 0.12801 0.0
C2630 C 0.91571 0.35571 0.144 0.0
C2631 C 0.94628 0.35005 0.12712 0.0
C2632 C 0.98847 0.35585 0.15929 0.0
H2633 H 0.07853 0.33978 0.11638 0.0
H2634 H 0.04325 0.34291 0.11496 0.0
H2635 H 0.01621 0.3522 0.1727 0.0
H2636 H 0.91843 0.37153 0.17114 0.0
H2637 H 0.9536 0.37469 0.16948 0.0
H2638 H 0.98096 0.36651 0.11149 0.0
C2639 C 0.05093 0.34923 0.12715 0.0
C2640 C 0.00872 0.35564 0.15929 0.0
C2641 C 0.07114 0.34734 0.12804 0.0
C2642 C 0.92595 0.36547 0.15873 0.0
C2643 C 0.94613 0.36721 0.15782 0.0
C2644 C 0.98852 0.36334 0.12492 0.0
C2645 C 0.04072 0.35848 0.14223 0.0
C2646 C 0.01916 0.35924 0.14212 0.0
C2647 C 0.95656 0.35923 0.14219 0.0
C2648 C 0.97812 0.35966 0.14211 0.0
H2649 H 0.07892 0.3704 0.17122 0.0
H2650 H 0.0438 0.37385 0.16956 0.0
H2651 H 0.01648 0.36616 0.1115 0.0
H2652 H 0.91862 0.34078 0.11637 0.0
H2653 H 0.9539 0.34362 0.11495 0.0
C2654 C 0.07152 0.65283 0.86999 0.0
C2655 C 0.0815 0.6432 0.85499 0.0
C2656 C 0.05133 0.65148 0.87145 0.0
C2657 C 0.00892 0.62246 0.85713 0.0
H2658 H 0.98112 0.67129 0.86097 0.0
C2659 C 0.92633 0.62859 0.84331 0.0
C2660 C 0.91576 0.64255 0.85379 0.0
C2661 C 0.94653 0.6275 0.84509 0.0
C2662 C 0.98859 0.65747 0.86028 0.0
H2663 H 0.07818 0.62392 0.83027 0.0
H2664 H 0.04288 0.62146 0.83296 0.0
H2665 H 0.01644 0.67122 0.86152 0.0
H2666 H 0.91792 0.66563 0.87512 0.0
H2667 H 0.95301 0.66333 0.87872 0.0
H2668 H 0.98109 0.60866 0.85606 0.0
C2669 C 0.05072 0.6301 0.84351 0.0
C2670 C 0.00886 0.65746 0.86053 0.0
C2671 C 0.07091 0.63163 0.84191 0.0
C2672 C 0.9257 0.6549 0.86663 0.0
C2673 C 0.94584 0.65365 0.8686 0.0
C2674 C 0.98861 0.62243 0.85712 0.0
C2675 C 0.04072 0.64027 0.8581 0.0
C2676 C 0.01922 0.63999 0.8588 0.0
C2677 C 0.95657 0.64019 0.85759 0.0
C2678 C 0.97818 0.63997 0.85853 0.0
H2679 H 0.07923 0.66181 0.88036 0.0
H2680 H 0.04397 0.65931 0.88294 0.0
H2681 H 0.01659 0.60877 0.85595 0.0
H2682 H 0.91908 0.61889 0.83327 0.0
H2683 H 0.95429 0.61712 0.83619 0.0
C2684 C 0.34334 0.92649 0.86559 0.0
C2685 C 0.35607 0.9157 0.85382 0.0
C2686 C 0.34538 0.94661 0.86721 0.0
C2687 C 0.36287 0.98823 0.83981 0.0
H2688 H 0.35879 0.01592 0.88869 0.0
C2689 C 0.36867 0.0714 0.84237 0.0
C2690 C 0.35571 0.08121 0.8547 0.0
C2691 C 0.37089 0.05129 0.84368 0.0
C2692 C 0.35976 0.00843 0.8749 0.0
H2693 H 0.38129 0.91753 0.83496 0.0
H2694 H 0.38464 0.95271 0.83762 0.0
H2695 H 0.3585 0.98043 0.88851 0.0
H2696 H 0.33527 0.0777 0.87842 0.0
H2697 H 0.33863 0.04255 0.88028 0.0
H2698 H 0.36338 0.01599 0.82603 0.0
C2699 C 0.37308 0.94555 0.84554 0.0
C2700 C 0.35967 0.98812 0.87483 0.0
C2701 C 0.37119 0.92541 0.84409 0.0
C2702 C 0.3454 0.07056 0.86872 0.0
C2703 C 0.34743 0.05039 0.86987 0.0
C2704 C 0.36275 0.00849 0.83984 0.0
C2705 C 0.36007 0.95637 0.85693 0.0
C2706 C 0.36114 0.97784 0.85727 0.0
C2707 C 0.36001 0.04047 0.85718 0.0
C2708 C 0.36109 0.01888 0.85737 0.0
H2709 H 0.33163 0.91942 0.87337 0.0
H2710 H 0.33507 0.95463 0.87599 0.0
H2711 H 0.36372 0.98067 0.82603 0.0
H2712 H 0.37703 0.07925 0.83159 0.0
H2713 H 0.38105 0.04421 0.83397 0.0
C2714 C 0.07085 0.34318 0.86433 0.0
C2715 C 0.0818 0.35583 0.85262 0.0
C2716 C 0.0507 0.3452 0.86562 0.0
C2717 C 0.00933 0.36225 0.83762 0.0
H2718 H 0.98131 0.35887 0.88637 0.0
C2719 C 0.92593 0.36739 0.83982 0.0
C2720 C 0.91621 0.35471 0.85252 0.0
C2721 C 0.94605 0.3697 0.84098 0.0
C2722 C 0.98889 0.35964 0.87261 0.0
H2723 H 0.08023 0.38083 0.83346 0.0
H2724 H 0.04497 0.38412 0.83553 0.0
H2725 H 0.01679 0.35877 0.88645 0.0
H2726 H 0.91995 0.33476 0.87663 0.0
H2727 H 0.95506 0.33828 0.87823 0.0
H2728 H 0.98165 0.36234 0.82364 0.0
C2729 C 0.05204 0.37267 0.84368 0.0
C2730 C 0.0092 0.35967 0.87269 0.0
C2731 C 0.07222 0.37081 0.84257 0.0
C2732 C 0.92699 0.34469 0.86666 0.0
C2733 C 0.94715 0.34682 0.86766 0.0
C2734 C 0.98905 0.362 0.83751 0.0
C2735 C 0.04108 0.35976 0.85506 0.0
C2736 C 0.01959 0.36085 0.85519 0.0
C2737 C 0.95697 0.35921 0.85471 0.0
C2738 C 0.97855 0.36054 0.85499 0.0
H2739 H 0.07782 0.33157 0.87235 0.0
H2740 H 0.04257 0.33497 0.8744 0.0
H2741 H 0.017 0.36291 0.82389 0.0
H2742 H 0.91798 0.37551 0.82893 0.0
H2743 H 0.95305 0.37969 0.83104 0.0
C2744 C 0.62864 0.92544 0.84465 0.0
C2745 C 0.64226 0.91552 0.85614 0.0
C2746 C 0.62643 0.94551 0.84633 0.0
C2747 C 0.63935 0.98822 0.8771 0.0
H2748 H 0.63263 0.01605 0.82858 0.0
C2749 C 0.65507 0.07026 0.86666 0.0
C2750 C 0.64171 0.08095 0.8555 0.0
C2751 C 0.65312 0.05014 0.86858 0.0
C2752 C 0.63425 0.00847 0.84228 0.0
H2753 H 0.66388 0.91874 0.87882 0.0
H2754 H 0.66055 0.9539 0.88129 0.0
H2755 H 0.63302 0.98077 0.82849 0.0
H2756 H 0.61542 0.07896 0.83817 0.0
H2757 H 0.61221 0.04382 0.84136 0.0
H2758 H 0.64135 0.0162 0.89067 0.0
C2759 C 0.65123 0.94616 0.87127 0.0
C2760 C 0.63441 0.98822 0.84227 0.0
C2761 C 0.65323 0.926 0.86978 0.0
C2762 C 0.62603 0.07116 0.84678 0.0
C2763 C 0.62421 0.05104 0.84854 0.0
C2764 C 0.63941 0.00853 0.87706 0.0
C2765 C 0.63801 0.95621 0.85933 0.0
C2766 C 0.63702 0.9778 0.85966 0.0
C2767 C 0.63788 0.04031 0.85923 0.0
C2768 C 0.63692 0.01883 0.85963 0.0
H2769 H 0.61975 0.91769 0.83423 0.0
H2770 H 0.61575 0.95267 0.83726 0.0
H2771 H 0.6411 0.98069 0.8908 0.0
H2772 H 0.66723 0.07738 0.87367 0.0
H2773 H 0.66392 0.0422 0.87681 0.0
C2774 C 0.92513 0.62909 0.15531 0.0
C2775 C 0.91527 0.64205 0.14302 0.0
C2776 C 0.94529 0.62715 0.1542 0.0
C2777 C 0.98825 0.63904 0.12339 0.0
H2778 H 0.01583 0.63449 0.17231 0.0
C2779 C 0.07024 0.65519 0.13289 0.0
C2780 C 0.08102 0.6422 0.1444 0.0
C2781 C 0.05008 0.65333 0.1314 0.0
C2782 C 0.00832 0.63552 0.15851 0.0
H2783 H 0.91878 0.66284 0.11961 0.0
H2784 H 0.95399 0.65995 0.11807 0.0
H2785 H 0.9805 0.63469 0.17216 0.0
H2786 H 0.07911 0.61679 0.16298 0.0
H2787 H 0.04387 0.61375 0.16053 0.0
H2788 H 0.0163 0.6406 0.10991 0.0
C2789 C 0.94615 0.65093 0.1283 0.0
C2790 C 0.98805 0.63557 0.15839 0.0
C2791 C 0.92595 0.65269 0.12926 0.0
C2792 C 0.07124 0.62708 0.15404 0.0
C2793 C 0.05106 0.62537 0.15272 0.0
C2794 C 0.00857 0.63922 0.12355 0.0
C2795 C 0.95612 0.63831 0.14093 0.0
C2796 C 0.97773 0.63742 0.14084 0.0
C2797 C 0.04027 0.63858 0.14152 0.0
C2798 C 0.01878 0.63754 0.14113 0.0
H2799 H 0.91728 0.62049 0.1659 0.0
H2800 H 0.9524 0.61696 0.16384 0.0
H2801 H 0.98082 0.64017 0.10957 0.0
H2802 H 0.07734 0.66692 0.12518 0.0
H2803 H 0.04209 0.6638 0.12277 0.0
C2804 C 0.36661 0.9254 0.15485 0.0
C2805 C 0.35374 0.91553 0.14247 0.0
C2806 C 0.36876 0.94551 0.15355 0.0
C2807 C 0.35771 0.9883 0.12222 0.0
H2808 H 0.36191 0.01617 0.171 0.0
C2809 C 0.34207 0.07044 0.13129 0.0
C2810 C 0.35494 0.08115 0.14299 0.0
C2811 C 0.34389 0.05029 0.12974 0.0
C2812 C 0.36099 0.00858 0.15724 0.0
H2813 H 0.33335 0.91895 0.1187 0.0
H2814 H 0.33658 0.95414 0.11685 0.0
H2815 H 0.36131 0.98086 0.17111 0.0
H2816 H 0.38018 0.07913 0.1618 0.0
H2817 H 0.38315 0.0439 0.15927 0.0
H2818 H 0.35665 0.01627 0.10852 0.0
C2819 C 0.34537 0.94632 0.1273 0.0
C2820 C 0.36071 0.98832 0.15727 0.0
C2821 C 0.34342 0.92614 0.12843 0.0
C2822 C 0.36997 0.07132 0.15272 0.0
C2823 C 0.37165 0.05115 0.15135 0.0
C2824 C 0.35777 0.00862 0.12223 0.0
C2825 C 0.3579 0.9563 0.14002 0.0
C2826 C 0.35899 0.97789 0.13977 0.0
C2827 C 0.35849 0.04042 0.14002 0.0
C2828 C 0.35934 0.01893 0.13976 0.0
H2829 H 0.37499 0.91757 0.16564 0.0
H2830 H 0.37889 0.95261 0.16327 0.0
H2831 H 0.35669 0.98078 0.10844 0.0
H2832 H 0.33041 0.0776 0.1235 0.0
H2833 H 0.33348 0.04236 0.12101 0.0
C2834 C 0.62599 0.92531 0.15126 0.0
C2835 C 0.64113 0.91556 0.14161 0.0
C2836 C 0.6242 0.94546 0.14986 0.0
C2837 C 0.63807 0.98816 0.12101 0.0
H2838 H 0.63411 0.01559 0.17004 0.0
C2839 C 0.65233 0.07056 0.12802 0.0
C2840 C 0.64188 0.08106 0.14206 0.0
C2841 C 0.65032 0.05041 0.12666 0.0
C2842 C 0.63482 0.00822 0.15616 0.0
H2843 H 0.66572 0.91923 0.12222 0.0
H2844 H 0.66247 0.95447 0.11972 0.0
H2845 H 0.63368 0.98029 0.16971 0.0
H2846 H 0.62037 0.07885 0.16497 0.0
H2847 H 0.61641 0.04384 0.16221 0.0
H2848 H 0.63912 0.0161 0.10741 0.0
C2849 C 0.65206 0.94647 0.12839 0.0
C2850 C 0.63464 0.98797 0.15601 0.0
C2851 C 0.65398 0.92632 0.12994 0.0
C2852 C 0.62884 0.07112 0.15419 0.0
C2853 C 0.62665 0.05102 0.15267 0.0
C2854 C 0.63803 0.00848 0.12113 0.0
C2855 C 0.63736 0.95625 0.13862 0.0
C2856 C 0.63645 0.97774 0.13847 0.0
C2857 C 0.63765 0.04034 0.13915 0.0
C2858 C 0.63659 0.01876 0.13874 0.0
H2859 H 0.61578 0.91746 0.1603 0.0
H2860 H 0.61262 0.95264 0.15774 0.0
H2861 H 0.63931 0.9806 0.10727 0.0
H2862 H 0.66252 0.07781 0.11847 0.0
H2863 H 0.65921 0.04267 0.11624 0.0
C2864 C 0.12761 0.57137 0.84551 0.0
C2865 C 0.14262 0.58135 0.85513 0.0
C2866 C 0.1262 0.55118 0.84682 0.0
C2867 C 0.14077 0.50864 0.87553 0.0
H2868 H 0.13691 0.48119 0.82651 0.0
C2869 C 0.15451 0.42603 0.86876 0.0
C2870 C 0.14398 0.41561 0.85472 0.0
C2871 C 0.15279 0.44623 0.87002 0.0
C2872 C 0.13761 0.48856 0.84039 0.0
H2873 H 0.16738 0.57803 0.87435 0.0
H2874 H 0.16478 0.54272 0.87672 0.0
H2875 H 0.13626 0.51649 0.82684 0.0
H2876 H 0.12262 0.41803 0.8317 0.0
H2877 H 0.11912 0.45309 0.83429 0.0
H2878 H 0.14195 0.48071 0.88914 0.0
C2879 C 0.15418 0.55057 0.86813 0.0
C2880 C 0.13731 0.50882 0.84054 0.0
C2881 C 0.15573 0.57076 0.86666 0.0
C2882 C 0.13116 0.4257 0.84247 0.0
C2883 C 0.12924 0.44583 0.8439 0.0
C2884 C 0.14084 0.48832 0.87542 0.0
C2885 C 0.13961 0.54057 0.85795 0.0
C2886 C 0.13902 0.51906 0.85808 0.0
C2887 C 0.14031 0.45642 0.85743 0.0
C2888 C 0.13941 0.47802 0.85781 0.0
H2889 H 0.11721 0.57908 0.83656 0.0
H2890 H 0.11471 0.54382 0.83897 0.0
H2891 H 0.14195 0.51621 0.88928 0.0
H2892 H 0.16455 0.41867 0.87839 0.0
H2893 H 0.16172 0.45389 0.88046 0.0
C2894 C 0.86791 0.57103 0.84241 0.0
C2895 C 0.85492 0.58098 0.85458 0.0
C2896 C 0.86998 0.55091 0.84383 0.0
C2897 C 0.85829 0.50824 0.8751 0.0
H2898 H 0.86268 0.48033 0.82636 0.0
C2899 C 0.84247 0.42608 0.86587 0.0
C2900 C 0.8554 0.41541 0.8542 0.0
C2901 C 0.84429 0.44623 0.86748 0.0
C2902 C 0.8617 0.48793 0.84011 0.0
H2903 H 0.83424 0.57773 0.87814 0.0
H2904 H 0.83733 0.54256 0.88018 0.0
H2905 H 0.86235 0.51563 0.82624 0.0
H2906 H 0.88077 0.41749 0.83556 0.0
H2907 H 0.88376 0.45268 0.83822 0.0
H2908 H 0.85691 0.48029 0.8888 0.0
C2909 C 0.84627 0.55029 0.86981 0.0
C2910 C 0.86158 0.50819 0.84007 0.0
C2911 C 0.8444 0.57047 0.86857 0.0
C2912 C 0.8705 0.42526 0.84459 0.0
C2913 C 0.87219 0.44542 0.84605 0.0
C2914 C 0.85819 0.48793 0.8751 0.0
C2915 C 0.85889 0.54022 0.85727 0.0
C2916 C 0.85982 0.51863 0.85755 0.0
C2917 C 0.85897 0.45611 0.85731 0.0
C2918 C 0.85984 0.4776 0.85758 0.0
H2919 H 0.87643 0.57877 0.83168 0.0
H2920 H 0.88018 0.54372 0.83425 0.0
H2921 H 0.85721 0.51578 0.88886 0.0
H2922 H 0.83076 0.4189 0.87356 0.0
H2923 H 0.83383 0.45415 0.87616 0.0
C2924 C 0.12733 0.4255 0.1524 0.0
C2925 C 0.14234 0.41569 0.14262 0.0
C2926 C 0.12566 0.44567 0.15109 0.0
C2927 C 0.13925 0.48828 0.12207 0.0
H2928 H 0.13576 0.51587 0.17104 0.0
C2929 C 0.15265 0.57089 0.1284 0.0
C2930 C 0.14232 0.58134 0.14256 0.0
C2931 C 0.15092 0.5507 0.12721 0.0
C2932 C 0.13634 0.50845 0.15718 0.0
H2933 H 0.16685 0.41929 0.12311 0.0
H2934 H 0.16377 0.45456 0.12072 0.0
H2935 H 0.13552 0.48055 0.17085 0.0
H2936 H 0.12127 0.57899 0.16588 0.0
H2937 H 0.11774 0.5439 0.16341 0.0
H2938 H 0.13991 0.51616 0.10834 0.0
C2939 C 0.15338 0.44659 0.12945 0.0
C2940 C 0.13628 0.48819 0.15711 0.0
C2941 C 0.15521 0.42643 0.13093 0.0
C2942 C 0.12965 0.57129 0.15499 0.0
C2943 C 0.12771 0.55116 0.15364 0.0
C2944 C 0.13908 0.50859 0.12211 0.0
C2945 C 0.1388 0.45642 0.13978 0.0
C2946 C 0.1379 0.47791 0.13958 0.0
C2947 C 0.13861 0.54054 0.13999 0.0
C2948 C 0.13779 0.51894 0.1397 0.0
H2949 H 0.11713 0.41768 0.16148 0.0
H2950 H 0.11417 0.4529 0.15905 0.0
H2951 H 0.14034 0.48067 0.10834 0.0
H2952 H 0.16257 0.57822 0.11862 0.0
H2953 H 0.15972 0.54303 0.11668 0.0
C2954 C 0.83856 0.42677 0.13251 0.0
C2955 C 0.85371 0.41582 0.14073 0.0
C2956 C 0.84029 0.44689 0.13052 0.0
C2957 C 0.86622 0.48838 0.15175 0.0
H2958 H 0.84527 0.51631 0.10754 0.0
C2959 C 0.8709 0.57169 0.14648 0.0
C2960 C 0.85371 0.58122 0.14092 0.0
C2961 C 0.87265 0.55158 0.14443 0.0
C2962 C 0.8511 0.5087 0.12002 0.0
H2963 H 0.88291 0.41737 0.15256 0.0
H2964 H 0.88596 0.45243 0.14893 0.0
H2965 H 0.84523 0.48083 0.10751 0.0
H2966 H 0.82514 0.57713 0.1282 0.0
H2967 H 0.82813 0.54207 0.12488 0.0
H2968 H 0.87177 0.51616 0.16444 0.0
C2969 C 0.8726 0.44549 0.14434 0.0
C2970 C 0.85107 0.4884 0.12001 0.0
C2971 C 0.87087 0.42538 0.14635 0.0
C2972 C 0.83856 0.57026 0.1327 0.0
C2973 C 0.84032 0.55016 0.13066 0.0
C2974 C 0.86625 0.50865 0.15177 0.0
C2975 C 0.85723 0.4565 0.13667 0.0
C2976 C 0.85843 0.47802 0.13598 0.0
C2977 C 0.85728 0.54056 0.13675 0.0
C2978 C 0.85849 0.51905 0.13601 0.0
H2979 H 0.82516 0.41988 0.12798 0.0
H2980 H 0.8281 0.45498 0.12473 0.0
H2981 H 0.87172 0.48083 0.16441 0.0
H2982 H 0.88293 0.57971 0.15269 0.0
H2983 H 0.88602 0.54464 0.14899 0.0
C2984 C 0.3709 0.64754 0.57151 0.0
C2985 C 0.35368 0.6418 0.58089 0.0
C2986 C 0.3728 0.64568 0.5514 0.0
C2987 C 0.35173 0.62142 0.50823 0.0
H2988 H 0.37217 0.66612 0.48071 0.0
C2989 C 0.33902 0.63425 0.42652 0.0
C2990 C 0.3541 0.64251 0.4155 0.0
C2991 C 0.34084 0.63227 0.44662 0.0
C2992 C 0.36674 0.65338 0.48816 0.0
H2993 H 0.32519 0.629 0.57651 0.0
H2994 H 0.32844 0.62598 0.54142 0.0
H2995 H 0.37205 0.66593 0.51606 0.0
H2996 H 0.38322 0.65455 0.41691 0.0
H2997 H 0.38641 0.65098 0.45201 0.0
H2998 H 0.34609 0.60904 0.48027 0.0
C2999 C 0.34054 0.63176 0.54964 0.0
C3000 C 0.36666 0.65327 0.50844 0.0
C3001 C 0.33863 0.63362 0.56976 0.0
C3002 C 0.37125 0.64828 0.42498 0.0
C3003 C 0.37306 0.6463 0.4451 0.0
C3004 C 0.35181 0.62153 0.48793 0.0
C3005 C 0.35754 0.63801 0.54021 0.0
C3006 C 0.35892 0.6374 0.5187 0.0
C3007 C 0.35779 0.63848 0.45617 0.0
C3008 C 0.35908 0.63762 0.47768 0.0
H3009 H 0.38285 0.65373 0.57966 0.0
H3010 H 0.38619 0.65036 0.54458 0.0
H3011 H 0.34595 0.60885 0.51573 0.0
H3012 H 0.32563 0.62959 0.4197 0.0
H3013 H 0.32872 0.62639 0.45475 0.0
C3014 C 0.83868 0.86389 0.42624 0.0
C3015 C 0.85381 0.85575 0.4152 0.0
C3016 C 0.84047 0.86575 0.44637 0.0
C3017 C 0.86634 0.8441 0.48763 0.0
H3018 H 0.84553 0.88811 0.51596 0.0
C3019 C 0.87058 0.84847 0.5711 0.0
C3020 C 0.85342 0.8542 0.58058 0.0
C3021 C 0.87245 0.85062 0.551 0.0
C3022 C 0.85132 0.87568 0.50825 0.0
H3023 H 0.88302 0.84393 0.41659 0.0
H3024 H 0.88614 0.84731 0.45168 0.0
H3025 H 0.84558 0.88851 0.48049 0.0
H3026 H 0.825 0.86723 0.57641 0.0
H3027 H 0.82818 0.87069 0.54139 0.0
H3028 H 0.87173 0.83108 0.5153 0.0
C3029 C 0.87278 0.85195 0.44479 0.0
C3030 C 0.85135 0.87591 0.48795 0.0
C3031 C 0.871 0.85009 0.42467 0.0
C3032 C 0.8384 0.8626 0.56958 0.0
C3033 C 0.84027 0.86473 0.5495 0.0
C3034 C 0.86631 0.84386 0.5079 0.0
C3035 C 0.85742 0.85953 0.4559 0.0
C3036 C 0.85864 0.86001 0.47742 0.0
C3037 C 0.85723 0.85855 0.53995 0.0
C3038 C 0.85857 0.85954 0.51845 0.0
H3039 H 0.82526 0.86845 0.41941 0.0
H3040 H 0.82829 0.87147 0.45453 0.0
H3041 H 0.8718 0.83149 0.47996 0.0
H3042 H 0.88251 0.84211 0.57915 0.0
H3043 H 0.88581 0.84597 0.5441 0.0
C3044 C 0.65899 0.36357 0.57028 0.0
C3045 C 0.64375 0.35546 0.58121 0.0
C3046 C 0.65728 0.36564 0.55017 0.0
C3047 C 0.63111 0.3448 0.50861 0.0
H3048 H 0.65253 0.38884 0.48077 0.0
C3049 C 0.62614 0.35037 0.42536 0.0
C3050 C 0.64334 0.35575 0.41574 0.0
C3051 C 0.62452 0.3524 0.44548 0.0
C3052 C 0.64657 0.3764 0.48835 0.0
H3053 H 0.61444 0.34393 0.57962 0.0
H3054 H 0.61143 0.3477 0.54457 0.0
H3055 H 0.65264 0.38876 0.51625 0.0
H3056 H 0.67207 0.36815 0.41969 0.0
H3057 H 0.66931 0.37145 0.45479 0.0
H3058 H 0.62536 0.33226 0.4808 0.0
C3059 C 0.62483 0.35213 0.55153 0.0
C3060 C 0.64663 0.37636 0.50866 0.0
C3061 C 0.62654 0.35004 0.57163 0.0
C3062 C 0.65864 0.36379 0.42663 0.0
C3063 C 0.65701 0.36582 0.44676 0.0
C3064 C 0.63104 0.34485 0.48834 0.0
C3065 C 0.64029 0.35969 0.54053 0.0
C3066 C 0.63909 0.36045 0.51901 0.0
C3067 C 0.64004 0.35988 0.45644 0.0
C3068 C 0.63896 0.36055 0.47797 0.0
H3069 H 0.67243 0.36794 0.57719 0.0
H3070 H 0.66953 0.37133 0.5421 0.0
H3071 H 0.62547 0.33217 0.51613 0.0
H3072 H 0.614 0.3443 0.41741 0.0
H3073 H 0.61114 0.34798 0.45249 0.0
C3074 C 0.15491 0.13082 0.57066 0.0
C3075 C 0.14171 0.14218 0.58134 0.0
C3076 C 0.15319 0.12926 0.55049 0.0
C3077 C 0.13563 0.15649 0.50882 0.0
H3078 H 0.14106 0.10794 0.48079 0.0
C3079 C 0.12992 0.15438 0.42564 0.0
C3080 C 0.14299 0.14231 0.41565 0.0
C3081 C 0.12788 0.15295 0.44576 0.0
C3082 C 0.13972 0.12165 0.48837 0.0
H3083 H 0.11599 0.16033 0.57925 0.0
H3084 H 0.11321 0.15777 0.544 0.0
H3085 H 0.14106 0.10785 0.51628 0.0
H3086 H 0.16386 0.11894 0.41888 0.0
H3087 H 0.16083 0.11688 0.45408 0.0
H3088 H 0.13504 0.17048 0.48117 0.0
C3089 C 0.12488 0.15013 0.55129 0.0
C3090 C 0.13964 0.12156 0.50869 0.0
C3091 C 0.12645 0.15152 0.57147 0.0
C3092 C 0.15364 0.12843 0.42616 0.0
C3093 C 0.1518 0.12718 0.44635 0.0
C3094 C 0.13594 0.15662 0.48855 0.0
C3095 C 0.13838 0.13918 0.54059 0.0
C3096 C 0.13764 0.139 0.51909 0.0
C3097 C 0.13907 0.13959 0.45644 0.0
C3098 C 0.13804 0.13922 0.47804 0.0
H3099 H 0.16674 0.12335 0.57785 0.0
H3100 H 0.16386 0.12082 0.54258 0.0
H3101 H 0.13438 0.17018 0.51647 0.0
H3102 H 0.12129 0.16503 0.4179 0.0
H3103 H 0.11758 0.16242 0.45294 0.0
C3104 C 0.34222 0.3654 0.57029 0.0
C3105 C 0.35505 0.35363 0.58098 0.0
C3106 C 0.34408 0.367 0.55015 0.0
C3107 C 0.36128 0.33958 0.50843 0.0
H3108 H 0.35702 0.38841 0.48068 0.0
C3109 C 0.36733 0.34211 0.42533 0.0
C3110 C 0.35436 0.35434 0.41543 0.0
C3111 C 0.36943 0.34344 0.44545 0.0
C3112 C 0.35804 0.37463 0.4882 0.0
H3113 H 0.38027 0.33479 0.57893 0.0
H3114 H 0.38331 0.33745 0.54373 0.0
H3115 H 0.35686 0.38828 0.51618 0.0
H3116 H 0.33373 0.37792 0.41878 0.0
H3117 H 0.33688 0.37984 0.45398 0.0
H3118 H 0.36174 0.32576 0.48069 0.0
C3119 C 0.3718 0.34536 0.55098 0.0
C3120 C 0.35802 0.37459 0.50851 0.0
C3121 C 0.37009 0.34391 0.57114 0.0
C3122 C 0.34387 0.3683 0.42601 0.0
C3123 C 0.34578 0.36947 0.44619 0.0
C3124 C 0.36109 0.33958 0.48817 0.0
C3125 C 0.35868 0.35674 0.54028 0.0
C3126 C 0.35957 0.35705 0.5188 0.0
C3127 C 0.35839 0.35687 0.45619 0.0
C3128 C 0.35939 0.3571 0.47777 0.0
H3129 H 0.33057 0.37318 0.57746 0.0
H3130 H 0.33369 0.37578 0.54222 0.0
H3131 H 0.36218 0.32581 0.516 0.0
H3132 H 0.37584 0.3314 0.41754 0.0
H3133 H 0.37962 0.33382 0.45259 0.0
C3134 C 0.12695 0.8448 0.42579 0.0
C3135 C 0.1422 0.85418 0.41595 0.0
C3136 C 0.12525 0.84629 0.44595 0.0
C3137 C 0.13955 0.87532 0.4884 0.0
H3138 H 0.13417 0.82675 0.51639 0.0
C3139 C 0.15239 0.86903 0.57116 0.0
C3140 C 0.14151 0.8553 0.58164 0.0
C3141 C 0.15073 0.87022 0.55096 0.0
C3142 C 0.13529 0.84051 0.50886 0.0
H3143 H 0.16715 0.87312 0.41949 0.0
H3144 H 0.16407 0.87579 0.45474 0.0
H3145 H 0.13416 0.82664 0.48108 0.0
H3146 H 0.11955 0.83284 0.57932 0.0
H3147 H 0.11618 0.83532 0.54423 0.0
H3148 H 0.14056 0.88925 0.51618 0.0
C3149 C 0.15349 0.86726 0.4468 0.0
C3150 C 0.13535 0.84041 0.48859 0.0
C3151 C 0.15532 0.86561 0.42665 0.0
C3152 C 0.12835 0.84337 0.57161 0.0
C3153 C 0.12651 0.84473 0.55147 0.0
C3154 C 0.13927 0.87546 0.50871 0.0
C3155 C 0.13862 0.85736 0.45667 0.0
C3156 C 0.13763 0.85778 0.47816 0.0
C3157 C 0.13797 0.85787 0.54082 0.0
C3158 C 0.1373 0.85803 0.51921 0.0
H3159 H 0.11654 0.83594 0.418 0.0
H3160 H 0.11354 0.83867 0.45319 0.0
H3161 H 0.14115 0.88894 0.48068 0.0
H3162 H 0.16269 0.87841 0.57848 0.0
H3163 H 0.15996 0.88037 0.54326 0.0
C3164 C 0.65684 0.63249 0.42719 0.0
C3165 C 0.64192 0.64087 0.41605 0.0
C3166 C 0.65475 0.63033 0.44726 0.0
C3167 C 0.62839 0.65142 0.48851 0.0
H3168 H 0.64892 0.60697 0.51637 0.0
C3169 C 0.62404 0.64622 0.57192 0.0
C3170 C 0.64127 0.64054 0.5813 0.0
C3171 C 0.62208 0.64414 0.55182 0.0
C3172 C 0.6432 0.61951 0.50879 0.0
H3173 H 0.61276 0.65283 0.41719 0.0
H3174 H 0.60911 0.64895 0.45219 0.0
H3175 H 0.64912 0.60707 0.4809 0.0
H3176 H 0.66968 0.62754 0.57698 0.0
H3177 H 0.66634 0.62415 0.54197 0.0
H3178 H 0.62285 0.66406 0.51632 0.0
C3179 C 0.62254 0.64434 0.44542 0.0
C3180 C 0.64331 0.61957 0.48849 0.0
C3181 C 0.62462 0.64649 0.42535 0.0
C3182 C 0.65623 0.63215 0.57022 0.0
C3183 C 0.65427 0.63006 0.55015 0.0
C3184 C 0.62828 0.65136 0.50879 0.0
C3185 C 0.63769 0.63649 0.45664 0.0
C3186 C 0.63616 0.63564 0.47813 0.0
C3187 C 0.63729 0.63628 0.54068 0.0
C3188 C 0.63593 0.63553 0.51916 0.0
H3189 H 0.67034 0.62794 0.4205 0.0
H3190 H 0.66678 0.62442 0.4555 0.0
H3191 H 0.62303 0.66415 0.48098 0.0
H3192 H 0.61215 0.65258 0.58003 0.0
H3193 H 0.6087 0.64881 0.54498 0.0
C3194 C 0.86873 0.15392 0.57135 0.0
C3195 C 0.8555 0.14189 0.58119 0.0
C3196 C 0.87097 0.15248 0.55125 0.0
C3197 C 0.85931 0.12124 0.50854 0.0
H3198 H 0.86433 0.16985 0.48051 0.0
C3199 C 0.84306 0.13062 0.42654 0.0
C3200 C 0.85603 0.14213 0.41573 0.0
C3201 C 0.84511 0.12896 0.44667 0.0
C3202 C 0.86318 0.15614 0.48815 0.0
H3203 H 0.83458 0.11859 0.57773 0.0
H3204 H 0.83798 0.11651 0.5426 0.0
H3205 H 0.86394 0.17006 0.51582 0.0
H3206 H 0.8817 0.16037 0.41752 0.0
H3207 H 0.88507 0.15762 0.45268 0.0
H3208 H 0.85778 0.1075 0.48062 0.0
C3209 C 0.84697 0.12677 0.55042 0.0
C3210 C 0.86303 0.15622 0.50841 0.0
C3211 C 0.84492 0.12805 0.57057 0.0
C3212 C 0.8714 0.15147 0.42541 0.0
C3213 C 0.87331 0.14997 0.44554 0.0
C3214 C 0.85924 0.12119 0.48823 0.0
C3215 C 0.85985 0.13914 0.54047 0.0
C3216 C 0.86099 0.1388 0.51889 0.0
C3217 C 0.86004 0.1389 0.45638 0.0
C3218 C 0.86108 0.13866 0.47786 0.0
H3219 H 0.8773 0.16455 0.57918 0.0
H3220 H 0.88135 0.16193 0.54416 0.0
H3221 H 0.85803 0.10752 0.51611 0.0
H3222 H 0.83114 0.12314 0.4195 0.0
H3223 H 0.8346 0.12043 0.45471 0.0
C3224 C 0.34317 0.57071 0.36869 0.0
C3225 C 0.35431 0.58125 0.35522 0.0
C3226 C 0.34506 0.55054 0.37004 0.0
C3227 C 0.36198 0.5085 0.34106 0.0
H3228 H 0.35499 0.48051 0.38945 0.0
C3229 C 0.37082 0.42556 0.34582 0.0
C3230 C 0.35526 0.41569 0.35463 0.0
C3231 C 0.37244 0.44572 0.34743 0.0
C3232 C 0.35693 0.48817 0.37584 0.0
H3233 H 0.37693 0.5791 0.3334 0.0
H3234 H 0.38069 0.54408 0.3362 0.0
H3235 H 0.35512 0.51601 0.38957 0.0
H3236 H 0.3297 0.41914 0.37277 0.0
H3237 H 0.33265 0.45437 0.37564 0.0
H3238 H 0.36389 0.48067 0.32738 0.0
C3239 C 0.37 0.55123 0.34525 0.0
C3240 C 0.35693 0.50849 0.37588 0.0
C3241 C 0.36792 0.57133 0.34371 0.0
C3242 C 0.34178 0.42633 0.36569 0.0
C3243 C 0.34353 0.44647 0.36746 0.0
C3244 C 0.36219 0.48824 0.34107 0.0
C3245 C 0.35831 0.54051 0.35813 0.0
C3246 C 0.35929 0.51891 0.35844 0.0
C3247 C 0.35868 0.45639 0.35806 0.0
C3248 C 0.3595 0.47788 0.35842 0.0
H3249 H 0.33253 0.57796 0.37774 0.0
H3250 H 0.33565 0.54278 0.37997 0.0
H3251 H 0.36341 0.51597 0.32729 0.0
H3252 H 0.38152 0.41781 0.33727 0.0
H3253 H 0.38438 0.453 0.3402 0.0
C3254 C 0.63258 0.57105 0.3385 0.0
C3255 C 0.64229 0.58129 0.35325 0.0
C3256 C 0.63087 0.55088 0.33937 0.0
C3257 C 0.63465 0.50846 0.3722 0.0
H3258 H 0.64556 0.48083 0.32434 0.0
C3259 C 0.64998 0.42574 0.3688 0.0
C3260 C 0.64254 0.41545 0.35279 0.0
C3261 C 0.64826 0.44596 0.36974 0.0
C3262 C 0.64219 0.4883 0.33777 0.0
H3263 H 0.65721 0.57838 0.38088 0.0
H3264 H 0.65444 0.54309 0.38225 0.0
H3265 H 0.64547 0.51613 0.32445 0.0
H3266 H 0.62671 0.41828 0.32566 0.0
H3267 H 0.62358 0.45342 0.32743 0.0
H3268 H 0.63161 0.48049 0.38554 0.0
C3269 C 0.64801 0.55071 0.37008 0.0
C3270 C 0.64214 0.50855 0.33783 0.0
C3271 C 0.6497 0.57094 0.36924 0.0
C3272 C 0.63281 0.42575 0.33809 0.0
C3273 C 0.63108 0.44592 0.33906 0.0
C3274 C 0.63471 0.48814 0.37214 0.0
C3275 C 0.63886 0.54044 0.35499 0.0
C3276 C 0.63839 0.51888 0.35504 0.0
C3277 C 0.63905 0.45629 0.35472 0.0
C3278 C 0.6385 0.47785 0.35491 0.0
H3279 H 0.6265 0.57858 0.32609 0.0
H3280 H 0.62341 0.54342 0.3277 0.0
H3281 H 0.63152 0.51601 0.38565 0.0
H3282 H 0.65751 0.41825 0.38041 0.0
H3283 H 0.65469 0.45354 0.38194 0.0
C3284 C 0.36407 0.57089 0.65719 0.0
C3285 C 0.35396 0.58129 0.64281 0.0
C3286 C 0.36586 0.55074 0.656 0.0
C3287 C 0.36149 0.50871 0.62274 0.0
H3288 H 0.35216 0.48052 0.6706 0.0
C3289 C 0.34731 0.42565 0.62627 0.0
C3290 C 0.35528 0.41549 0.64211 0.0
C3291 C 0.34883 0.44588 0.6252 0.0
C3292 C 0.35508 0.48815 0.65716 0.0
H3293 H 0.33842 0.57868 0.6155 0.0
H3294 H 0.34132 0.54342 0.61358 0.0
H3295 H 0.3518 0.5158 0.67082 0.0
H3296 H 0.372 0.41855 0.66868 0.0
H3297 H 0.37478 0.45369 0.66668 0.0
H3298 H 0.36452 0.48088 0.60907 0.0
C3299 C 0.34799 0.55091 0.6257 0.0
C3300 C 0.35488 0.50839 0.65728 0.0
C3301 C 0.34624 0.57112 0.62687 0.0
C3302 C 0.36546 0.42592 0.65641 0.0
C3303 C 0.367 0.44609 0.65531 0.0
C3304 C 0.36168 0.48838 0.62261 0.0
C3305 C 0.35755 0.54048 0.64043 0.0
C3306 C 0.35811 0.51893 0.6401 0.0
C3307 C 0.35836 0.45634 0.63992 0.0
C3308 C 0.35851 0.4779 0.63985 0.0
H3309 H 0.37041 0.57828 0.66955 0.0
H3310 H 0.37364 0.54317 0.66738 0.0
H3311 H 0.3642 0.51642 0.60929 0.0
H3312 H 0.33943 0.41805 0.61497 0.0
H3313 H 0.34193 0.45338 0.61321 0.0
C3314 C 0.63187 0.42536 0.65849 0.0
C3315 C 0.64179 0.41513 0.64386 0.0
C3316 C 0.63005 0.44552 0.65753 0.0
C3317 C 0.63395 0.48785 0.62461 0.0
H3318 H 0.64461 0.51563 0.67245 0.0
C3319 C 0.64941 0.57056 0.62792 0.0
C3320 C 0.64192 0.58088 0.64388 0.0
C3321 C 0.64763 0.55035 0.62698 0.0
C3322 C 0.64131 0.50811 0.65902 0.0
H3323 H 0.65694 0.41804 0.61635 0.0
H3324 H 0.65396 0.4533 0.61483 0.0
H3325 H 0.6445 0.48033 0.67245 0.0
H3326 H 0.62589 0.57812 0.67091 0.0
H3327 H 0.62264 0.543 0.66914 0.0
H3328 H 0.63101 0.51578 0.61117 0.0
C3329 C 0.64747 0.44567 0.62697 0.0
C3330 C 0.64125 0.48786 0.65902 0.0
C3331 C 0.64927 0.42547 0.62791 0.0
C3332 C 0.63204 0.57062 0.65852 0.0
C3333 C 0.63024 0.55046 0.65755 0.0
C3334 C 0.63402 0.50817 0.62461 0.0
C3335 C 0.63812 0.45594 0.64194 0.0
C3336 C 0.63759 0.47749 0.64183 0.0
C3337 C 0.6383 0.54006 0.64195 0.0
C3338 C 0.63772 0.51851 0.64183 0.0
H3339 H 0.62574 0.41784 0.67087 0.0
H3340 H 0.62245 0.45298 0.66911 0.0
H3341 H 0.63091 0.48026 0.61117 0.0
H3342 H 0.65705 0.57802 0.61636 0.0
H3343 H 0.65411 0.54273 0.61483 0.0
C3344 C 0.42663 0.12925 0.84415 0.0
C3345 C 0.41599 0.14329 0.85445 0.0
C3346 C 0.44682 0.12817 0.84607 0.0
C3347 C 0.48887 0.15816 0.86125 0.0
H3348 H 0.51668 0.10931 0.85748 0.0
C3349 C 0.57198 0.15335 0.87025 0.0
C3350 C 0.58171 0.14335 0.85532 0.0
C3351 C 0.55179 0.15214 0.87198 0.0
C3352 C 0.50907 0.12305 0.85852 0.0
H3353 H 0.41804 0.16658 0.87556 0.0
H3354 H 0.45311 0.16433 0.87938 0.0
H3355 H 0.4812 0.10933 0.85756 0.0
H3356 H 0.57795 0.12361 0.83104 0.0
H3357 H 0.5427 0.12143 0.8342 0.0
H3358 H 0.51678 0.17182 0.86231 0.0
C3359 C 0.446 0.15454 0.86932 0.0
C3360 C 0.48876 0.12309 0.85848 0.0
C3361 C 0.42587 0.15578 0.86722 0.0
C3362 C 0.57088 0.13159 0.84261 0.0
C3363 C 0.55072 0.13023 0.84449 0.0
C3364 C 0.50915 0.15808 0.8615 0.0
C3365 C 0.45679 0.14096 0.85853 0.0
C3366 C 0.47839 0.14068 0.85964 0.0
C3367 C 0.54095 0.14073 0.859 0.0
C3368 C 0.51945 0.14055 0.85993 0.0
H3369 H 0.41945 0.11944 0.83416 0.0
H3370 H 0.45463 0.11769 0.83733 0.0
H3371 H 0.48145 0.17201 0.86177 0.0
H3372 H 0.57989 0.16248 0.88033 0.0
H3373 H 0.54463 0.16025 0.88341 0.0
C3374 C 0.57266 0.87227 0.85182 0.0
C3375 C 0.58161 0.85398 0.85327 0.0
C3376 C 0.55253 0.8741 0.85398 0.0
C3377 C 0.50922 0.87195 0.84625 0.0
H3378 H 0.48074 0.83745 0.88046 0.0
C3379 C 0.42748 0.85809 0.8368 0.0
C3380 C 0.41601 0.85424 0.85324 0.0
C3381 C 0.44758 0.8601 0.8385 0.0
C3382 C 0.48841 0.84744 0.87104 0.0
H3383 H 0.57646 0.82329 0.85828 0.0
H3384 H 0.5415 0.82635 0.8614 0.0
H3385 H 0.51601 0.8376 0.88129 0.0
H3386 H 0.41655 0.85018 0.88447 0.0
H3387 H 0.45162 0.85422 0.88754 0.0
H3388 H 0.48162 0.88214 0.83635 0.0
C3389 C 0.54996 0.8394 0.85911 0.0
C3390 C 0.5087 0.84731 0.8713 0.0
C3391 C 0.57005 0.83762 0.85716 0.0
C3392 C 0.42503 0.85293 0.8715 0.0
C3393 C 0.44515 0.85517 0.87323 0.0
C3394 C 0.48893 0.87225 0.84614 0.0
C3395 C 0.54091 0.85764 0.85746 0.0
C3396 C 0.51937 0.85923 0.8586 0.0
C3397 C 0.45671 0.85857 0.85671 0.0
C3398 C 0.47826 0.85968 0.85822 0.0
H3399 H 0.58119 0.8852 0.84902 0.0
H3400 H 0.54611 0.88841 0.85292 0.0
H3401 H 0.5169 0.88125 0.83616 0.0
H3402 H 0.421 0.85911 0.8225 0.0
H3403 H 0.45599 0.86233 0.82539 0.0
C3404 C 0.42588 0.15399 0.129 0.0
C3405 C 0.41546 0.14324 0.14288 0.0
C3406 C 0.4461 0.15253 0.1279 0.0
C3407 C 0.48847 0.13757 0.15762 0.0
H3408 H 0.51625 0.14276 0.10888 0.0
C3409 C 0.57131 0.12776 0.15228 0.0
C3410 C 0.58134 0.14291 0.14292 0.0
C3411 C 0.55111 0.12648 0.15104 0.0
C3412 C 0.50864 0.14135 0.12258 0.0
H3413 H 0.41794 0.12182 0.16584 0.0
H3414 H 0.45309 0.11876 0.1635 0.0
H3415 H 0.48075 0.14234 0.10889 0.0
H3416 H 0.57807 0.1681 0.12426 0.0
H3417 H 0.5427 0.16568 0.12196 0.0
H3418 H 0.51639 0.13634 0.17124 0.0
C3419 C 0.44578 0.12883 0.15389 0.0
C3420 C 0.48832 0.14119 0.12263 0.0
C3421 C 0.4256 0.13049 0.15516 0.0
C3422 C 0.57076 0.15634 0.13174 0.0
C3423 C 0.55055 0.15489 0.13031 0.0
C3424 C 0.50874 0.13749 0.15753 0.0
C3425 C 0.45634 0.1401 0.14049 0.0
C3426 C 0.47796 0.13943 0.14019 0.0
C3427 C 0.54052 0.14014 0.14022 0.0
C3428 C 0.51902 0.13951 0.14004 0.0
H3429 H 0.41848 0.16399 0.11936 0.0
H3430 H 0.45372 0.16162 0.11757 0.0
H3431 H 0.48106 0.13663 0.17147 0.0
H3432 H 0.57901 0.11714 0.16097 0.0
H3433 H 0.54374 0.11485 0.15866 0.0
C3434 C 0.57115 0.86648 0.15668 0.0
C3435 C 0.58095 0.8538 0.14406 0.0
C3436 C 0.551 0.86856 0.15561 0.0
C3437 C 0.50815 0.85795 0.12419 0.0
H3438 H 0.48014 0.86169 0.17292 0.0
C3439 C 0.42603 0.8422 0.13252 0.0
C3440 C 0.41518 0.85497 0.14419 0.0
C3441 C 0.4462 0.84399 0.13126 0.0
C3442 C 0.48777 0.86089 0.15918 0.0
H3443 H 0.57732 0.83358 0.12016 0.0
H3444 H 0.54215 0.83671 0.11869 0.0
H3445 H 0.51548 0.86109 0.17312 0.0
H3446 H 0.417 0.87997 0.16333 0.0
H3447 H 0.4523 0.8829 0.1613 0.0
H3448 H 0.48024 0.85704 0.1104 0.0
C3449 C 0.55002 0.84542 0.12915 0.0
C3450 C 0.50805 0.86061 0.15926 0.0
C3451 C 0.57021 0.84352 0.13008 0.0
C3452 C 0.42492 0.86985 0.15425 0.0
C3453 C 0.44513 0.8715 0.15317 0.0
C3454 C 0.48784 0.85802 0.12414 0.0
C3455 C 0.54012 0.85784 0.14203 0.0
C3456 C 0.51853 0.85903 0.14178 0.0
C3457 C 0.45597 0.85847 0.1418 0.0
C3458 C 0.47747 0.85939 0.14165 0.0
H3459 H 0.57905 0.87481 0.16745 0.0
H3460 H 0.54394 0.87858 0.16548 0.0
H3461 H 0.51571 0.85707 0.11042 0.0
H3462 H 0.41895 0.83065 0.1245 0.0
H3463 H 0.45423 0.83368 0.1225 0.0
C3464 C 0.42606 0.33793 0.63225 0.0
C3465 C 0.4158 0.3527 0.64193 0.0
C3466 C 0.44622 0.33886 0.63046 0.0
C3467 C 0.48856 0.37181 0.63382 0.0
H3468 H 0.51638 0.32404 0.64469 0.0
C3469 C 0.57139 0.36852 0.64863 0.0
C3470 C 0.58165 0.35246 0.64126 0.0
C3471 C 0.55117 0.36948 0.64695 0.0
C3472 C 0.50885 0.33744 0.64133 0.0
H3473 H 0.41868 0.3804 0.65671 0.0
H3474 H 0.45398 0.38186 0.65378 0.0
H3475 H 0.48107 0.3241 0.64494 0.0
H3476 H 0.57879 0.3253 0.62552 0.0
H3477 H 0.54362 0.32709 0.62245 0.0
H3478 H 0.51649 0.38517 0.63046 0.0
C3479 C 0.44636 0.36964 0.64745 0.0
C3480 C 0.48859 0.33748 0.64147 0.0
C3481 C 0.42613 0.36875 0.64922 0.0
C3482 C 0.57133 0.33776 0.63157 0.0
C3483 C 0.55115 0.33874 0.62987 0.0
C3484 C 0.50889 0.37177 0.63368 0.0
C3485 C 0.45664 0.35454 0.63832 0.0
C3486 C 0.4782 0.35464 0.63773 0.0
C3487 C 0.54081 0.35443 0.63784 0.0
C3488 C 0.51924 0.35458 0.63745 0.0
H3489 H 0.41855 0.32548 0.62624 0.0
H3490 H 0.45368 0.32718 0.62301 0.0
H3491 H 0.48096 0.38522 0.6307 0.0
H3492 H 0.57889 0.38014 0.65613 0.0
H3493 H 0.54361 0.38169 0.65337 0.0
C3494 C 0.42599 0.65688 0.36501 0.0
C3495 C 0.4156 0.64255 0.35485 0.0
C3496 C 0.44614 0.65574 0.3667 0.0
C3497 C 0.48839 0.62288 0.36179 0.0
H3498 H 0.51602 0.67102 0.35218 0.0
C3499 C 0.57127 0.62717 0.34688 0.0
C3500 C 0.58136 0.64305 0.35484 0.0
C3501 C 0.55105 0.62596 0.3485 0.0
C3502 C 0.50854 0.6575 0.35518 0.0
H3503 H 0.41819 0.61532 0.33917 0.0
H3504 H 0.4535 0.6135 0.34189 0.0
H3505 H 0.48073 0.6709 0.35221 0.0
H3506 H 0.57821 0.66959 0.37159 0.0
H3507 H 0.54309 0.66735 0.37454 0.0
H3508 H 0.51638 0.60949 0.36451 0.0
C3509 C 0.44599 0.62554 0.34868 0.0
C3510 C 0.4883 0.65743 0.3552 0.0
C3511 C 0.42577 0.62665 0.34703 0.0
C3512 C 0.57089 0.65729 0.36505 0.0
C3513 C 0.55073 0.65606 0.36669 0.0
C3514 C 0.50872 0.62295 0.36176 0.0
C3515 C 0.45642 0.64028 0.35822 0.0
C3516 C 0.47797 0.64014 0.35854 0.0
C3517 C 0.54055 0.64058 0.35813 0.0
C3518 C 0.519 0.64029 0.35848 0.0
H3519 H 0.41859 0.66919 0.37145 0.0
H3520 H 0.45372 0.66712 0.3745 0.0
H3521 H 0.48083 0.60936 0.36456 0.0
H3522 H 0.57891 0.61591 0.33899 0.0
H3523 H 0.5436 0.61391 0.34165 0.0
C3524 C 0.57088 0.3681 0.34496 0.0
C3525 C 0.58148 0.3543 0.35563 0.0
C3526 C 0.55071 0.36932 0.3469 0.0
C3527 C 0.5087 0.33975 0.36272 0.0
H3528 H 0.48078 0.38838 0.35721 0.0
C3529 C 0.42558 0.34446 0.37071 0.0
C3530 C 0.41595 0.35389 0.35536 0.0
C3531 C 0.44573 0.34587 0.37262 0.0
C3532 C 0.48842 0.37471 0.35874 0.0
H3533 H 0.57941 0.33169 0.37747 0.0
H3534 H 0.54435 0.33423 0.38132 0.0
H3535 H 0.51627 0.38848 0.35771 0.0
H3536 H 0.41982 0.37284 0.33047 0.0
H3537 H 0.45504 0.37537 0.33393 0.0
H3538 H 0.48083 0.32603 0.36384 0.0
C3539 C 0.55148 0.34368 0.37096 0.0
C3540 C 0.50873 0.37473 0.35895 0.0
C3541 C 0.5716 0.34229 0.36884 0.0
C3542 C 0.42682 0.3653 0.34237 0.0
C3543 C 0.44696 0.36687 0.34442 0.0
C3544 C 0.48843 0.33977 0.36272 0.0
C3545 C 0.54072 0.35695 0.35974 0.0
C3546 C 0.51913 0.35721 0.36073 0.0
C3547 C 0.45662 0.35691 0.35937 0.0
C3548 C 0.4781 0.35721 0.36053 0.0
H3549 H 0.57807 0.37754 0.33463 0.0
H3550 H 0.54292 0.37954 0.33784 0.0
H3551 H 0.51615 0.32594 0.36371 0.0
H3552 H 0.41764 0.33562 0.38103 0.0
H3553 H 0.45282 0.3382 0.38439 0.0
C3554 C 0.42545 0.65703 0.6315 0.0
C3555 C 0.41493 0.64285 0.64174 0.0
C3556 C 0.44562 0.65577 0.62996 0.0
C3557 C 0.48763 0.62261 0.63567 0.0
H3558 H 0.51559 0.6707 0.64454 0.0
C3559 C 0.57053 0.62666 0.65102 0.0
C3560 C 0.58073 0.64229 0.6427 0.0
C3561 C 0.5503 0.62552 0.64936 0.0
C3562 C 0.50802 0.65718 0.64176 0.0
H3563 H 0.41731 0.61579 0.65775 0.0
H3564 H 0.45259 0.61378 0.6553 0.0
H3565 H 0.48031 0.67088 0.64423 0.0
H3566 H 0.57776 0.6684 0.62524 0.0
H3567 H 0.54266 0.66627 0.62223 0.0
H3568 H 0.51553 0.60893 0.63348 0.0
C3569 C 0.4452 0.62578 0.64832 0.0
C3570 C 0.48778 0.65729 0.64157 0.0
C3571 C 0.42498 0.627 0.64981 0.0
C3572 C 0.57035 0.65631 0.63208 0.0
C3573 C 0.55021 0.65514 0.6304 0.0
C3574 C 0.50796 0.62251 0.63589 0.0
C3575 C 0.45576 0.64034 0.63867 0.0
C3576 C 0.47733 0.64003 0.63848 0.0
C3577 C 0.53991 0.63996 0.63933 0.0
C3578 C 0.51836 0.63982 0.63889 0.0
H3579 H 0.41815 0.6693 0.62488 0.0
H3580 H 0.4533 0.66702 0.62208 0.0
H3581 H 0.47998 0.60911 0.6331 0.0
H3582 H 0.5781 0.61559 0.65924 0.0
H3583 H 0.54276 0.6137 0.65648 0.0
loop_
_geom_bond_atom_site_label_1
_geom_bond_atom_site_label_2
_geom_bond_distance
_geom_bond_site_symmetry_2
_ccdc_geom_bond_type
Fe0 O2 1.918 . S
Fe0 O5 1.997 . S
Fe0 O6 2.002 . S
Fe0 O11 1.976 . S
Fe0 O14 1.996 . S
Fe1 O2 1.918 . S
Fe1 O9 1.997 . S
Fe1 O12 1.996 . S
Fe1 O16 1.976 . S
Fe1 O19 2.002 . S
O2 Fe0 1.918 . S
O2 Fe1 1.918 . S
O2 Fe3 1.918 . S
Fe3 O2 1.918 . S
Fe3 O4 2.002 . S
Fe3 O13 1.976 . S
Fe3 O17 1.996 . S
Fe3 O20 1.997 . S
O4 Fe3 2.002 . S
O4 C21 1.295 . S
O5 Fe0 1.997 . S
O5 C21 1.235 . S
O6 Fe0 2.002 . S
O6 C7 1.295 . S
C7 O6 1.295 . S
C7 O9 1.235 . S
C8 O13 1.287 . S
C8 O14 1.255 . S
O9 Fe1 1.997 . S
O9 C7 1.235 . S
C10 O16 1.287 . S
C10 O17 1.255 . S
O11 Fe0 1.976 . S
O11 C18 1.287 . S
O12 Fe1 1.996 . S
O12 C18 1.255 . S
O13 Fe3 1.976 . S
O13 C8 1.287 . S
O14 Fe0 1.996 . S
O14 C8 1.255 . S
C15 O19 1.295 . S
C15 O20 1.235 . S
O16 Fe1 1.976 . S
O16 C10 1.287 . S
O17 Fe3 1.996 . S
O17 C10 1.255 . S
C18 O11 1.287 . S
C18 O12 1.255 . S
O19 Fe1 2.002 . S
O19 C15 1.295 . S
O20 Fe3 1.997 . S
O20 C15 1.235 . S
C21 O4 1.295 . S
C21 O5 1.235 . S
Fe22 O24 1.918 . S
Fe22 O27 1.997 . S
Fe22 O28 2.002 . S
Fe22 O33 1.976 . S
Fe22 O36 1.996 . S
Fe23 O24 1.918 . S
Fe23 O31 1.997 . S
Fe23 O34 1.996 . S
Fe23 O38 1.976 . S
Fe23 O41 2.002 . S
O24 Fe22 1.918 . S
O24 Fe23 1.918 . S
O24 Fe25 1.918 . S
Fe25 O24 1.918 . S
Fe25 O26 2.002 . S
Fe25 O35 1.976 . S
Fe25 O39 1.996 . S
Fe25 O42 1.997 . S
O26 Fe25 2.002 . S
O26 C43 1.295 . S
O27 Fe22 1.997 . S
O27 C43 1.235 . S
O28 Fe22 2.002 . S
O28 C29 1.295 . S
C29 O28 1.295 . S
C29 O31 1.235 . S
C30 O35 1.287 . S
C30 O36 1.255 . S
O31 Fe23 1.997 . S
O31 C29 1.235 . S
C32 O38 1.287 . S
C32 O39 1.255 . S
O33 Fe22 1.976 . S
O33 C40 1.287 . S
O34 Fe23 1.996 . S
O34 C40 1.255 . S
O35 Fe25 1.976 . S
O35 C30 1.287 . S
O36 Fe22 1.996 . S
O36 C30 1.255 . S
C37 O41 1.295 . S
C37 O42 1.235 . S
O38 Fe23 1.976 . S
O38 C32 1.287 . S
O39 Fe25 1.996 . S
O39 C32 1.255 . S
C40 O33 1.287 . S
C40 O34 1.255 . S
O41 Fe23 2.002 . S
O41 C37 1.295 . S
O42 Fe25 1.997 . S
O42 C37 1.235 . S
C43 O26 1.295 . S
C43 O27 1.235 . S
Fe44 O46 1.918 . S
Fe44 O49 1.997 . S
Fe44 O50 2.002 . S
Fe44 O55 1.976 . S
Fe44 O58 1.996 . S
Fe45 O46 1.918 . S
Fe45 O53 1.997 . S
Fe45 O56 1.996 . S
Fe45 O60 1.976 . S
Fe45 O63 2.002 . S
O46 Fe44 1.918 . S
O46 Fe45 1.918 . S
O46 Fe47 1.918 . S
Fe47 O46 1.918 . S
Fe47 O48 2.002 . S
Fe47 O57 1.976 . S
Fe47 O61 1.996 . S
Fe47 O64 1.997 . S
O48 Fe47 2.002 . S
O48 C65 1.295 . S
O49 Fe44 1.997 . S
O49 C65 1.235 . S
O50 Fe44 2.002 . S
O50 C51 1.295 . S
C51 O50 1.295 . S
C51 O53 1.235 . S
C52 O57 1.287 . S
C52 O58 1.255 . S
O53 Fe45 1.997 . S
O53 C51 1.235 . S
C54 O60 1.287 . S
C54 O61 1.255 . S
O55 Fe44 1.976 . S
O55 C62 1.287 . S
O56 Fe45 1.996 . S
O56 C62 1.255 . S
O57 Fe47 1.976 . S
O57 C52 1.287 . S
O58 Fe44 1.996 . S
O58 C52 1.255 . S
C59 O63 1.295 . S
C59 O64 1.235 . S
O60 Fe45 1.976 . S
O60 C54 1.287 . S
O61 Fe47 1.996 . S
O61 C54 1.255 . S
C62 O55 1.287 . S
C62 O56 1.255 . S
O63 Fe45 2.002 . S
O63 C59 1.295 . S
O64 Fe47 1.997 . S
O64 C59 1.235 . S
C65 O48 1.295 . S
C65 O49 1.235 . S
Fe66 O68 1.918 . S
Fe66 O71 1.997 . S
Fe66 O72 2.002 . S
Fe66 O77 1.976 . S
Fe66 O80 1.996 . S
Fe67 O68 1.918 . S
Fe67 O75 1.997 . S
Fe67 O78 1.996 . S
Fe67 O82 1.976 . S
Fe67 O85 2.002 . S
O68 Fe66 1.918 . S
O68 Fe67 1.918 . S
O68 Fe69 1.918 . S
Fe69 O68 1.918 . S
Fe69 O70 2.002 . S
Fe69 O79 1.976 . S
Fe69 O83 1.996 . S
Fe69 O86 1.997 . S
O70 Fe69 2.002 . S
O70 C87 1.295 . S
O71 Fe66 1.997 . S
O71 C87 1.235 . S
O72 Fe66 2.002 . S
O72 C73 1.295 . S
C73 O72 1.295 . S
C73 O75 1.235 . S
C74 O79 1.287 . S
C74 O80 1.255 . S
O75 Fe67 1.997 . S
O75 C73 1.235 . S
C76 O82 1.287 . S
C76 O83 1.255 . S
O77 Fe66 1.976 . S
O77 C84 1.287 . S
O78 Fe67 1.996 . S
O78 C84 1.255 . S
O79 Fe69 1.976 . S
O79 C74 1.287 . S
O80 Fe66 1.996 . S
O80 C74 1.255 . S
C81 O85 1.295 . S
C81 O86 1.235 . S
O82 Fe67 1.976 . S
O82 C76 1.287 . S
O83 Fe69 1.996 . S
O83 C76 1.255 . S
C84 O77 1.287 . S
C84 O78 1.255 . S
O85 Fe67 2.002 . S
O85 C81 1.295 . S
O86 Fe69 1.997 . S
O86 C81 1.235 . S
C87 O70 1.295 . S
C87 O71 1.235 . S
Fe88 O90 1.918 . S
Fe88 O93 1.997 . S
Fe88 O94 2.002 . S
Fe88 O99 1.976 . S
Fe88 O102 1.996 . S
Fe89 O90 1.918 . S
Fe89 O97 1.997 . S
Fe89 O100 1.996 . S
Fe89 O104 1.976 . S
Fe89 O107 2.002 . S
O90 Fe88 1.918 . S
O90 Fe89 1.918 . S
O90 Fe91 1.918 . S
Fe91 O90 1.918 . S
Fe91 O92 2.002 . S
Fe91 O101 1.976 . S
Fe91 O105 1.996 . S
Fe91 O108 1.997 . S
O92 Fe91 2.002 . S
O92 C109 1.295 . S
O93 Fe88 1.997 . S
O93 C109 1.235 . S
O94 Fe88 2.002 . S
O94 C95 1.295 . S
C95 O94 1.295 . S
C95 O97 1.235 . S
C96 O101 1.287 . S
C96 O102 1.255 . S
O97 Fe89 1.997 . S
O97 C95 1.235 . S
C98 O104 1.287 . S
C98 O105 1.255 . S
O99 Fe88 1.976 . S
O99 C106 1.287 . S
O100 Fe89 1.996 . S
O100 C106 1.255 . S
O101 Fe91 1.976 . S
O101 C96 1.287 . S
O102 Fe88 1.996 . S
O102 C96 1.255 . S
C103 O107 1.295 . S
C103 O108 1.235 . S
O104 Fe89 1.976 . S
O104 C98 1.287 . S
O105 Fe91 1.996 . S
O105 C98 1.255 . S
C106 O99 1.287 . S
C106 O100 1.255 . S
O107 Fe89 2.002 . S
O107 C103 1.295 . S
O108 Fe91 1.997 . S
O108 C103 1.235 . S
C109 O92 1.295 . S
C109 O93 1.235 . S
Fe110 O112 1.918 . S
Fe110 O115 1.997 . S
Fe110 O116 2.002 . S
Fe110 O121 1.976 . S
Fe110 O124 1.996 . S
Fe111 O112 1.918 . S
Fe111 O119 1.997 . S
Fe111 O122 1.996 . S
Fe111 O126 1.976 . S
Fe111 O129 2.002 . S
O112 Fe110 1.918 . S
O112 Fe111 1.918 . S
O112 Fe113 1.918 . S
Fe113 O112 1.918 . S
Fe113 O114 2.002 . S
Fe113 O123 1.976 . S
Fe113 O127 1.996 . S
Fe113 O130 1.997 . S
O114 Fe113 2.002 . S
O114 C131 1.295 . S
O115 Fe110 1.997 . S
O115 C131 1.235 . S
O116 Fe110 2.002 . S
O116 C117 1.295 . S
C117 O116 1.295 . S
C117 O119 1.235 . S
C118 O123 1.287 . S
C118 O124 1.255 . S
O119 Fe111 1.997 . S
O119 C117 1.235 . S
C120 O126 1.287 . S
C120 O127 1.255 . S
O121 Fe110 1.976 . S
O121 C128 1.287 . S
O122 Fe111 1.996 . S
O122 C128 1.255 . S
O123 Fe113 1.976 . S
O123 C118 1.287 . S
O124 Fe110 1.996 . S
O124 C118 1.255 . S
C125 O129 1.295 . S
C125 O130 1.235 . S
O126 Fe111 1.976 . S
O126 C120 1.287 . S
O127 Fe113 1.996 . S
O127 C120 1.255 . S
C128 O121 1.287 . S
C128 O122 1.255 . S
O129 Fe111 2.002 . S
O129 C125 1.295 . S
O130 Fe113 1.997 . S
O130 C125 1.235 . S
C131 O114 1.295 . S
C131 O115 1.235 . S
Fe132 O134 1.918 . S
Fe132 O137 1.997 . S
Fe132 O138 2.002 . S
Fe132 O143 1.976 . S
Fe132 O146 1.996 . S
Fe133 O134 1.918 . S
Fe133 O141 1.997 . S
Fe133 O144 1.996 . S
Fe133 O148 1.976 . S
Fe133 O151 2.002 . S
O134 Fe132 1.918 . S
O134 Fe133 1.918 . S
O134 Fe135 1.918 . S
Fe135 O134 1.918 . S
Fe135 O136 2.002 . S
Fe135 O145 1.976 . S
Fe135 O149 1.996 . S
Fe135 O152 1.997 . S
O136 Fe135 2.002 . S
O136 C153 1.295 . S
O137 Fe132 1.997 . S
O137 C153 1.235 . S
O138 Fe132 2.002 . S
O138 C139 1.295 . S
C139 O138 1.295 . S
C139 O141 1.235 . S
C140 O145 1.287 . S
C140 O146 1.255 . S
O141 Fe133 1.997 . S
O141 C139 1.235 . S
C142 O148 1.287 . S
C142 O149 1.255 . S
O143 Fe132 1.976 . S
O143 C150 1.287 . S
O144 Fe133 1.996 . S
O144 C150 1.255 . S
O145 Fe135 1.976 . S
O145 C140 1.287 . S
O146 Fe132 1.996 . S
O146 C140 1.255 . S
C147 O151 1.295 . S
C147 O152 1.235 . S
O148 Fe133 1.976 . S
O148 C142 1.287 . S
O149 Fe135 1.996 . S
O149 C142 1.255 . S
C150 O143 1.287 . S
C150 O144 1.255 . S
O151 Fe133 2.002 . S
O151 C147 1.295 . S
O152 Fe135 1.997 . S
O152 C147 1.235 . S
C153 O136 1.295 . S
C153 O137 1.235 . S
Fe154 O156 1.918 . S
Fe154 O159 1.997 . S
Fe154 O160 2.002 . S
Fe154 O165 1.976 . S
Fe154 O168 1.996 . S
Fe155 O156 1.918 . S
Fe155 O163 1.997 . S
Fe155 O166 1.996 . S
Fe155 O170 1.976 . S
Fe155 O173 2.002 . S
O156 Fe154 1.918 . S
O156 Fe155 1.918 . S
O156 Fe157 1.918 . S
Fe157 O156 1.918 . S
Fe157 O158 2.002 . S
Fe157 O167 1.976 . S
Fe157 O171 1.996 . S
Fe157 O174 1.997 . S
O158 Fe157 2.002 . S
O158 C175 1.295 . S
O159 Fe154 1.997 . S
O159 C175 1.235 . S
O160 Fe154 2.002 . S
O160 C161 1.295 . S
C161 O160 1.295 . S
C161 O163 1.235 . S
C162 O167 1.287 . S
C162 O168 1.255 . S
O163 Fe155 1.997 . S
O163 C161 1.235 . S
C164 O170 1.287 . S
C164 O171 1.255 . S
O165 Fe154 1.976 . S
O165 C172 1.287 . S
O166 Fe155 1.996 . S
O166 C172 1.255 . S
O167 Fe157 1.976 . S
O167 C162 1.287 . S
O168 Fe154 1.996 . S
O168 C162 1.255 . S
C169 O173 1.295 . S
C169 O174 1.235 . S
O170 Fe155 1.976 . S
O170 C164 1.287 . S
O171 Fe157 1.996 . S
O171 C164 1.255 . S
C172 O165 1.287 . S
C172 O166 1.255 . S
O173 Fe155 2.002 . S
O173 C169 1.295 . S
O174 Fe157 1.997 . S
O174 C169 1.235 . S
C175 O158 1.295 . S
C175 O159 1.235 . S
Fe176 O178 1.918 . S
Fe176 O181 1.997 . S
Fe176 O182 2.002 . S
Fe176 O187 1.976 . S
Fe176 O190 1.996 . S
Fe177 O178 1.918 . S
Fe177 O185 1.997 . S
Fe177 O188 1.996 . S
Fe177 O192 1.976 . S
Fe177 O195 2.002 . S
O178 Fe176 1.918 . S
O178 Fe177 1.918 . S
O178 Fe179 1.918 . S
Fe179 O178 1.918 . S
Fe179 O180 2.002 . S
Fe179 O189 1.976 . S
Fe179 O193 1.996 . S
Fe179 O196 1.997 . S
O180 Fe179 2.002 . S
O180 C197 1.295 . S
O181 Fe176 1.997 . S
O181 C197 1.235 . S
O182 Fe176 2.002 . S
O182 C183 1.295 . S
C183 O182 1.295 . S
C183 O185 1.235 . S
C184 O189 1.287 . S
C184 O190 1.255 . S
O185 Fe177 1.997 . S
O185 C183 1.235 . S
C186 O192 1.287 . S
C186 O193 1.255 . S
O187 Fe176 1.976 . S
O187 C194 1.287 . S
O188 Fe177 1.996 . S
O188 C194 1.255 . S
O189 Fe179 1.976 . S
O189 C184 1.287 . S
O190 Fe176 1.996 . S
O190 C184 1.255 . S
C191 O195 1.295 . S
C191 O196 1.235 . S
O192 Fe177 1.976 . S
O192 C186 1.287 . S
O193 Fe179 1.996 . S
O193 C186 1.255 . S
C194 O187 1.287 . S
C194 O188 1.255 . S
O195 Fe177 2.002 . S
O195 C191 1.295 . S
O196 Fe179 1.997 . S
O196 C191 1.235 . S
C197 O180 1.295 . S
C197 O181 1.235 . S
Fe198 O200 1.918 . S
Fe198 O203 1.997 . S
Fe198 O204 2.002 . S
Fe198 O209 1.976 . S
Fe198 O212 1.996 . S
Fe199 O200 1.918 . S
Fe199 O207 1.997 . S
Fe199 O210 1.996 . S
Fe199 O214 1.976 . S
Fe199 O217 2.002 . S
O200 Fe198 1.918 . S
O200 Fe199 1.918 . S
O200 Fe201 1.918 . S
Fe201 O200 1.918 . S
Fe201 O202 2.002 . S
Fe201 O211 1.976 . S
Fe201 O215 1.996 . S
Fe201 O218 1.997 . S
O202 Fe201 2.002 . S
O202 C219 1.295 . S
O203 Fe198 1.997 . S
O203 C219 1.235 . S
O204 Fe198 2.002 . S
O204 C205 1.295 . S
C205 O204 1.295 . S
C205 O207 1.235 . S
C206 O211 1.287 . S
C206 O212 1.255 . S
O207 Fe199 1.997 . S
O207 C205 1.235 . S
C208 O214 1.287 . S
C208 O215 1.255 . S
O209 Fe198 1.976 . S
O209 C216 1.287 . S
O210 Fe199 1.996 . S
O210 C216 1.255 . S
O211 Fe201 1.976 . S
O211 C206 1.287 . S
O212 Fe198 1.996 . S
O212 C206 1.255 . S
C213 O217 1.295 . S
C213 O218 1.235 . S
O214 Fe199 1.976 . S
O214 C208 1.287 . S
O215 Fe201 1.996 . S
O215 C208 1.255 . S
C216 O209 1.287 . S
C216 O210 1.255 . S
O217 Fe199 2.002 . S
O217 C213 1.295 . S
O218 Fe201 1.997 . S
O218 C213 1.235 . S
C219 O202 1.295 . S
C219 O203 1.235 . S
Fe220 O222 1.918 . S
Fe220 O225 1.997 . S
Fe220 O226 2.002 . S
Fe220 O231 1.976 . S
Fe220 O234 1.996 . S
Fe221 O222 1.918 . S
Fe221 O229 1.997 . S
Fe221 O232 1.996 . S
Fe221 O236 1.976 . S
Fe221 O239 2.002 . S
O222 Fe220 1.918 . S
O222 Fe221 1.918 . S
O222 Fe223 1.918 . S
Fe223 O222 1.918 . S
Fe223 O224 2.002 . S
Fe223 O233 1.976 . S
Fe223 O237 1.996 . S
Fe223 O240 1.997 . S
O224 Fe223 2.002 . S
O224 C241 1.295 . S
O225 Fe220 1.997 . S
O225 C241 1.235 . S
O226 Fe220 2.002 . S
O226 C227 1.295 . S
C227 O226 1.295 . S
C227 O229 1.235 . S
C228 O233 1.287 . S
C228 O234 1.255 . S
O229 Fe221 1.997 . S
O229 C227 1.235 . S
C230 O236 1.287 . S
C230 O237 1.255 . S
O231 Fe220 1.976 . S
O231 C238 1.287 . S
O232 Fe221 1.996 . S
O232 C238 1.255 . S
O233 Fe223 1.976 . S
O233 C228 1.287 . S
O234 Fe220 1.996 . S
O234 C228 1.255 . S
C235 O239 1.295 . S
C235 O240 1.235 . S
O236 Fe221 1.976 . S
O236 C230 1.287 . S
O237 Fe223 1.996 . S
O237 C230 1.255 . S
C238 O231 1.287 . S
C238 O232 1.255 . S
O239 Fe221 2.002 . S
O239 C235 1.295 . S
O240 Fe223 1.997 . S
O240 C235 1.235 . S
C241 O224 1.295 . S
C241 O225 1.235 . S
Fe242 O244 1.918 . S
Fe242 O247 1.997 . S
Fe242 O248 2.002 . S
Fe242 O253 1.976 . S
Fe242 O256 1.996 . S
Fe243 O244 1.918 . S
Fe243 O251 1.997 . S
Fe243 O254 1.996 . S
Fe243 O258 1.976 . S
Fe243 O261 2.002 . S
O244 Fe242 1.918 . S
O244 Fe243 1.918 . S
O244 Fe245 1.918 . S
Fe245 O244 1.918 . S
Fe245 O246 2.002 . S
Fe245 O255 1.976 . S
Fe245 O259 1.996 . S
Fe245 O262 1.997 . S
O246 Fe245 2.002 . S
O246 C263 1.295 . S
O247 Fe242 1.997 . S
O247 C263 1.235 . S
O248 Fe242 2.002 . S
O248 C249 1.295 . S
C249 O248 1.295 . S
C249 O251 1.235 . S
C250 O255 1.287 . S
C250 O256 1.255 . S
O251 Fe243 1.997 . S
O251 C249 1.235 . S
C252 O258 1.287 . S
C252 O259 1.255 . S
O253 Fe242 1.976 . S
O253 C260 1.287 . S
O254 Fe243 1.996 . S
O254 C260 1.255 . S
O255 Fe245 1.976 . S
O255 C250 1.287 . S
O256 Fe242 1.996 . S
O256 C250 1.255 . S
C257 O261 1.295 . S
C257 O262 1.235 . S
O258 Fe243 1.976 . S
O258 C252 1.287 . S
O259 Fe245 1.996 . S
O259 C252 1.255 . S
C260 O253 1.287 . S
C260 O254 1.255 . S
O261 Fe243 2.002 . S
O261 C257 1.295 . S
O262 Fe245 1.997 . S
O262 C257 1.235 . S
C263 O246 1.295 . S
C263 O247 1.235 . S
Fe264 O266 1.918 . S
Fe264 O269 1.997 . S
Fe264 O270 2.002 . S
Fe264 O275 1.976 . S
Fe264 O278 1.996 . S
Fe265 O266 1.918 . S
Fe265 O273 1.997 . S
Fe265 O276 1.996 . S
Fe265 O280 1.976 . S
Fe265 O283 2.002 . S
O266 Fe264 1.918 . S
O266 Fe265 1.918 . S
O266 Fe267 1.918 . S
Fe267 O266 1.918 . S
Fe267 O268 2.002 . S
Fe267 O277 1.976 . S
Fe267 O281 1.996 . S
Fe267 O284 1.997 . S
O268 Fe267 2.002 . S
O268 C285 1.295 . S
O269 Fe264 1.997 . S
O269 C285 1.235 . S
O270 Fe264 2.002 . S
O270 C271 1.295 . S
C271 O270 1.295 . S
C271 O273 1.235 . S
C272 O277 1.287 . S
C272 O278 1.255 . S
O273 Fe265 1.997 . S
O273 C271 1.235 . S
C274 O280 1.287 . S
C274 O281 1.255 . S
O275 Fe264 1.976 . S
O275 C282 1.287 . S
O276 Fe265 1.996 . S
O276 C282 1.255 . S
O277 Fe267 1.976 . S
O277 C272 1.287 . S
O278 Fe264 1.996 . S
O278 C272 1.255 . S
C279 O283 1.295 . S
C279 O284 1.235 . S
O280 Fe265 1.976 . S
O280 C274 1.287 . S
O281 Fe267 1.996 . S
O281 C274 1.255 . S
C282 O275 1.287 . S
C282 O276 1.255 . S
O283 Fe265 2.002 . S
O283 C279 1.295 . S
O284 Fe267 1.997 . S
O284 C279 1.235 . S
C285 O268 1.295 . S
C285 O269 1.235 . S
Fe286 O288 1.918 . S
Fe286 O291 1.997 . S
Fe286 O292 2.002 . S
Fe286 O297 1.976 . S
Fe286 O300 1.996 . S
Fe287 O288 1.918 . S
Fe287 O295 1.997 . S
Fe287 O298 1.996 . S
Fe287 O302 1.976 . S
Fe287 O305 2.002 . S
O288 Fe286 1.918 . S
O288 Fe287 1.918 . S
O288 Fe289 1.918 . S
Fe289 O288 1.918 . S
Fe289 O290 2.002 . S
Fe289 O299 1.976 . S
Fe289 O303 1.996 . S
Fe289 O306 1.997 . S
O290 Fe289 2.002 . S
O290 C307 1.295 . S
O291 Fe286 1.997 . S
O291 C307 1.235 . S
O292 Fe286 2.002 . S
O292 C293 1.295 . S
C293 O292 1.295 . S
C293 O295 1.235 . S
C294 O299 1.287 . S
C294 O300 1.255 . S
O295 Fe287 1.997 . S
O295 C293 1.235 . S
C296 O302 1.287 . S
C296 O303 1.255 . S
O297 Fe286 1.976 . S
O297 C304 1.287 . S
O298 Fe287 1.996 . S
O298 C304 1.255 . S
O299 Fe289 1.976 . S
O299 C294 1.287 . S
O300 Fe286 1.996 . S
O300 C294 1.255 . S
C301 O305 1.295 . S
C301 O306 1.235 . S
O302 Fe287 1.976 . S
O302 C296 1.287 . S
O303 Fe289 1.996 . S
O303 C296 1.255 . S
C304 O297 1.287 . S
C304 O298 1.255 . S
O305 Fe287 2.002 . S
O305 C301 1.295 . S
O306 Fe289 1.997 . S
O306 C301 1.235 . S
C307 O290 1.295 . S
C307 O291 1.235 . S
Fe308 O310 1.918 . S
Fe308 O313 1.997 . S
Fe308 O314 2.002 . S
Fe308 O319 1.976 . S
Fe308 O322 1.996 . S
Fe309 O310 1.918 . S
Fe309 O317 1.997 . S
Fe309 O320 1.996 . S
Fe309 O324 1.976 . S
Fe309 O327 2.002 . S
O310 Fe308 1.918 . S
O310 Fe309 1.918 . S
O310 Fe311 1.918 . S
Fe311 O310 1.918 . S
Fe311 O312 2.002 . S
Fe311 O321 1.976 . S
Fe311 O325 1.996 . S
Fe311 O328 1.997 . S
O312 Fe311 2.002 . S
O312 C329 1.295 . S
O313 Fe308 1.997 . S
O313 C329 1.235 . S
O314 Fe308 2.002 . S
O314 C315 1.295 . S
C315 O314 1.295 . S
C315 O317 1.235 . S
C316 O321 1.287 . S
C316 O322 1.255 . S
O317 Fe309 1.997 . S
O317 C315 1.235 . S
C318 O324 1.287 . S
C318 O325 1.255 . S
O319 Fe308 1.976 . S
O319 C326 1.287 . S
O320 Fe309 1.996 . S
O320 C326 1.255 . S
O321 Fe311 1.976 . S
O321 C316 1.287 . S
O322 Fe308 1.996 . S
O322 C316 1.255 . S
C323 O327 1.295 . S
C323 O328 1.235 . S
O324 Fe309 1.976 . S
O324 C318 1.287 . S
O325 Fe311 1.996 . S
O325 C318 1.255 . S
C326 O319 1.287 . S
C326 O320 1.255 . S
O327 Fe309 2.002 . S
O327 C323 1.295 . S
O328 Fe311 1.997 . S
O328 C323 1.235 . S
C329 O312 1.295 . S
C329 O313 1.235 . S
Fe330 O332 1.918 . S
Fe330 O335 1.997 . S
Fe330 O336 2.002 . S
Fe330 O341 1.976 . S
Fe330 O344 1.996 . S
Fe331 O332 1.918 . S
Fe331 O339 1.997 . S
Fe331 O342 1.996 . S
Fe331 O346 1.976 . S
Fe331 O349 2.002 . S
O332 Fe330 1.918 . S
O332 Fe331 1.918 . S
O332 Fe333 1.918 . S
Fe333 O332 1.918 . S
Fe333 O334 2.002 . S
Fe333 O343 1.976 . S
Fe333 O347 1.996 . S
Fe333 O350 1.997 . S
O334 Fe333 2.002 . S
O334 C351 1.295 . S
O335 Fe330 1.997 . S
O335 C351 1.235 . S
O336 Fe330 2.002 . S
O336 C337 1.295 . S
C337 O336 1.295 . S
C337 O339 1.235 . S
C338 O343 1.287 . S
C338 O344 1.255 . S
O339 Fe331 1.997 . S
O339 C337 1.235 . S
C340 O346 1.287 . S
C340 O347 1.255 . S
O341 Fe330 1.976 . S
O341 C348 1.287 . S
O342 Fe331 1.996 . S
O342 C348 1.255 . S
O343 Fe333 1.976 . S
O343 C338 1.287 . S
O344 Fe330 1.996 . S
O344 C338 1.255 . S
C345 O349 1.295 . S
C345 O350 1.235 . S
O346 Fe331 1.976 . S
O346 C340 1.287 . S
O347 Fe333 1.996 . S
O347 C340 1.255 . S
C348 O341 1.287 . S
C348 O342 1.255 . S
O349 Fe331 2.002 . S
O349 C345 1.295 . S
O350 Fe333 1.997 . S
O350 C345 1.235 . S
C351 O334 1.295 . S
C351 O335 1.235 . S
Fe352 O354 1.918 . S
Fe352 O357 1.997 . S
Fe352 O358 2.002 . S
Fe352 O363 1.976 . S
Fe352 O366 1.996 . S
Fe353 O354 1.918 . S
Fe353 O361 1.997 . S
Fe353 O364 1.996 . S
Fe353 O368 1.976 . S
Fe353 O371 2.002 . S
O354 Fe352 1.918 . S
O354 Fe353 1.918 . S
O354 Fe355 1.918 . S
Fe355 O354 1.918 . S
Fe355 O356 2.002 . S
Fe355 O365 1.976 . S
Fe355 O369 1.996 . S
Fe355 O372 1.997 . S
O356 Fe355 2.002 . S
O356 C373 1.295 . S
O357 Fe352 1.997 . S
O357 C373 1.235 . S
O358 Fe352 2.002 . S
O358 C359 1.295 . S
C359 O358 1.295 . S
C359 O361 1.235 . S
C360 O365 1.287 . S
C360 O366 1.255 . S
O361 Fe353 1.997 . S
O361 C359 1.235 . S
C362 O368 1.287 . S
C362 O369 1.255 . S
O363 Fe352 1.976 . S
O363 C370 1.287 . S
O364 Fe353 1.996 . S
O364 C370 1.255 . S
O365 Fe355 1.976 . S
O365 C360 1.287 . S
O366 Fe352 1.996 . S
O366 C360 1.255 . S
C367 O371 1.295 . S
C367 O372 1.235 . S
O368 Fe353 1.976 . S
O368 C362 1.287 . S
O369 Fe355 1.996 . S
O369 C362 1.255 . S
C370 O363 1.287 . S
C370 O364 1.255 . S
O371 Fe353 2.002 . S
O371 C367 1.295 . S
O372 Fe355 1.997 . S
O372 C367 1.235 . S
C373 O356 1.295 . S
C373 O357 1.235 . S
Fe374 O376 1.918 . S
Fe374 O379 1.997 . S
Fe374 O380 2.002 . S
Fe374 O385 1.976 . S
Fe374 O388 1.996 . S
Fe375 O376 1.918 . S
Fe375 O383 1.997 . S
Fe375 O386 1.996 . S
Fe375 O390 1.976 . S
Fe375 O393 2.002 . S
O376 Fe374 1.918 . S
O376 Fe375 1.918 . S
O376 Fe377 1.918 . S
Fe377 O376 1.918 . S
Fe377 O378 2.002 . S
Fe377 O387 1.976 . S
Fe377 O391 1.996 . S
Fe377 O394 1.997 . S
O378 Fe377 2.002 . S
O378 C395 1.295 . S
O379 Fe374 1.997 . S
O379 C395 1.235 . S
O380 Fe374 2.002 . S
O380 C381 1.295 . S
C381 O380 1.295 . S
C381 O383 1.235 . S
C382 O387 1.287 . S
C382 O388 1.255 . S
O383 Fe375 1.997 . S
O383 C381 1.235 . S
C384 O390 1.287 . S
C384 O391 1.255 . S
O385 Fe374 1.976 . S
O385 C392 1.287 . S
O386 Fe375 1.996 . S
O386 C392 1.255 . S
O387 Fe377 1.976 . S
O387 C382 1.287 . S
O388 Fe374 1.996 . S
O388 C382 1.255 . S
C389 O393 1.295 . S
C389 O394 1.235 . S
O390 Fe375 1.976 . S
O390 C384 1.287 . S
O391 Fe377 1.996 . S
O391 C384 1.255 . S
C392 O385 1.287 . S
C392 O386 1.255 . S
O393 Fe375 2.002 . S
O393 C389 1.295 . S
O394 Fe377 1.997 . S
O394 C389 1.235 . S
C395 O378 1.295 . S
C395 O379 1.235 . S
Fe396 O398 1.918 . S
Fe396 O401 1.997 . S
Fe396 O402 2.002 . S
Fe396 O407 1.976 . S
Fe396 O410 1.996 . S
Fe397 O398 1.918 . S
Fe397 O405 1.997 . S
Fe397 O408 1.996 . S
Fe397 O412 1.976 . S
Fe397 O415 2.002 . S
O398 Fe396 1.918 . S
O398 Fe397 1.918 . S
O398 Fe399 1.918 . S
Fe399 O398 1.918 . S
Fe399 O400 2.002 . S
Fe399 O409 1.976 . S
Fe399 O413 1.996 . S
Fe399 O416 1.997 . S
O400 Fe399 2.002 . S
O400 C417 1.295 . S
O401 Fe396 1.997 . S
O401 C417 1.235 . S
O402 Fe396 2.002 . S
O402 C403 1.295 . S
C403 O402 1.295 . S
C403 O405 1.235 . S
C404 O409 1.287 . S
C404 O410 1.255 . S
O405 Fe397 1.997 . S
O405 C403 1.235 . S
C406 O412 1.287 . S
C406 O413 1.255 . S
O407 Fe396 1.976 . S
O407 C414 1.287 . S
O408 Fe397 1.996 . S
O408 C414 1.255 . S
O409 Fe399 1.976 . S
O409 C404 1.287 . S
O410 Fe396 1.996 . S
O410 C404 1.255 . S
C411 O415 1.295 . S
C411 O416 1.235 . S
O412 Fe397 1.976 . S
O412 C406 1.287 . S
O413 Fe399 1.996 . S
O413 C406 1.255 . S
C414 O407 1.287 . S
C414 O408 1.255 . S
O415 Fe397 2.002 . S
O415 C411 1.295 . S
O416 Fe399 1.997 . S
O416 C411 1.235 . S
C417 O400 1.295 . S
C417 O401 1.235 . S
Fe418 O420 1.918 . S
Fe418 O423 1.997 . S
Fe418 O424 2.002 . S
Fe418 O429 1.976 . S
Fe418 O432 1.996 . S
Fe419 O420 1.918 . S
Fe419 O427 1.997 . S
Fe419 O430 1.996 . S
Fe419 O434 1.976 . S
Fe419 O437 2.002 . S
O420 Fe418 1.918 . S
O420 Fe419 1.918 . S
O420 Fe421 1.918 . S
Fe421 O420 1.918 . S
Fe421 O422 2.002 . S
Fe421 O431 1.976 . S
Fe421 O435 1.996 . S
Fe421 O438 1.997 . S
O422 Fe421 2.002 . S
O422 C439 1.295 . S
O423 Fe418 1.997 . S
O423 C439 1.235 . S
O424 Fe418 2.002 . S
O424 C425 1.295 . S
C425 O424 1.295 . S
C425 O427 1.235 . S
C426 O431 1.287 . S
C426 O432 1.255 . S
O427 Fe419 1.997 . S
O427 C425 1.235 . S
C428 O434 1.287 . S
C428 O435 1.255 . S
O429 Fe418 1.976 . S
O429 C436 1.287 . S
O430 Fe419 1.996 . S
O430 C436 1.255 . S
O431 Fe421 1.976 . S
O431 C426 1.287 . S
O432 Fe418 1.996 . S
O432 C426 1.255 . S
C433 O437 1.295 . S
C433 O438 1.235 . S
O434 Fe419 1.976 . S
O434 C428 1.287 . S
O435 Fe421 1.996 . S
O435 C428 1.255 . S
C436 O429 1.287 . S
C436 O430 1.255 . S
O437 Fe419 2.002 . S
O437 C433 1.295 . S
O438 Fe421 1.997 . S
O438 C433 1.235 . S
C439 O422 1.295 . S
C439 O423 1.235 . S
Fe440 O442 1.918 . S
Fe440 O445 1.997 . S
Fe440 O446 2.002 . S
Fe440 O451 1.976 . S
Fe440 O454 1.996 . S
Fe441 O442 1.918 . S
Fe441 O449 1.997 . S
Fe441 O452 1.996 . S
Fe441 O456 1.976 . S
Fe441 O459 2.002 . S
O442 Fe440 1.918 . S
O442 Fe441 1.918 . S
O442 Fe443 1.918 . S
Fe443 O442 1.918 . S
Fe443 O444 2.002 . S
Fe443 O453 1.976 . S
Fe443 O457 1.996 . S
Fe443 O460 1.997 . S
O444 Fe443 2.002 . S
O444 C461 1.295 . S
O445 Fe440 1.997 . S
O445 C461 1.235 . S
O446 Fe440 2.002 . S
O446 C447 1.295 . S
C447 O446 1.295 . S
C447 O449 1.235 . S
C448 O453 1.287 . S
C448 O454 1.255 . S
O449 Fe441 1.997 . S
O449 C447 1.235 . S
C450 O456 1.287 . S
C450 O457 1.255 . S
O451 Fe440 1.976 . S
O451 C458 1.287 . S
O452 Fe441 1.996 . S
O452 C458 1.255 . S
O453 Fe443 1.976 . S
O453 C448 1.287 . S
O454 Fe440 1.996 . S
O454 C448 1.255 . S
C455 O459 1.295 . S
C455 O460 1.235 . S
O456 Fe441 1.976 . S
O456 C450 1.287 . S
O457 Fe443 1.996 . S
O457 C450 1.255 . S
C458 O451 1.287 . S
C458 O452 1.255 . S
O459 Fe441 2.002 . S
O459 C455 1.295 . S
O460 Fe443 1.997 . S
O460 C455 1.235 . S
C461 O444 1.295 . S
C461 O445 1.235 . S
Fe462 O464 1.918 . S
Fe462 O467 1.997 . S
Fe462 O468 2.002 . S
Fe462 O473 1.976 . S
Fe462 O476 1.996 . S
Fe463 O464 1.918 . S
Fe463 O471 1.997 . S
Fe463 O474 1.996 . S
Fe463 O478 1.976 . S
Fe463 O481 2.002 . S
O464 Fe462 1.918 . S
O464 Fe463 1.918 . S
O464 Fe465 1.918 . S
Fe465 O464 1.918 . S
Fe465 O466 2.002 . S
Fe465 O475 1.976 . S
Fe465 O479 1.996 . S
Fe465 O482 1.997 . S
O466 Fe465 2.002 . S
O466 C483 1.295 . S
O467 Fe462 1.997 . S
O467 C483 1.235 . S
O468 Fe462 2.002 . S
O468 C469 1.295 . S
C469 O468 1.295 . S
C469 O471 1.235 . S
C470 O475 1.287 . S
C470 O476 1.255 . S
O471 Fe463 1.997 . S
O471 C469 1.235 . S
C472 O478 1.287 . S
C472 O479 1.255 . S
O473 Fe462 1.976 . S
O473 C480 1.287 . S
O474 Fe463 1.996 . S
O474 C480 1.255 . S
O475 Fe465 1.976 . S
O475 C470 1.287 . S
O476 Fe462 1.996 . S
O476 C470 1.255 . S
C477 O481 1.295 . S
C477 O482 1.235 . S
O478 Fe463 1.976 . S
O478 C472 1.287 . S
O479 Fe465 1.996 . S
O479 C472 1.255 . S
C480 O473 1.287 . S
C480 O474 1.255 . S
O481 Fe463 2.002 . S
O481 C477 1.295 . S
O482 Fe465 1.997 . S
O482 C477 1.235 . S
C483 O466 1.295 . S
C483 O467 1.235 . S
Fe484 O486 1.918 . S
Fe484 O489 1.997 . S
Fe484 O490 2.002 . S
Fe484 O495 1.976 . S
Fe484 O498 1.996 . S
Fe485 O486 1.918 . S
Fe485 O493 1.997 . S
Fe485 O496 1.996 . S
Fe485 O500 1.976 . S
Fe485 O503 2.002 . S
O486 Fe484 1.918 . S
O486 Fe485 1.918 . S
O486 Fe487 1.918 . S
Fe487 O486 1.918 . S
Fe487 O488 2.002 . S
Fe487 O497 1.976 . S
Fe487 O501 1.996 . S
Fe487 O504 1.997 . S
O488 Fe487 2.002 . S
O488 C505 1.295 . S
O489 Fe484 1.997 . S
O489 C505 1.235 . S
O490 Fe484 2.002 . S
O490 C491 1.295 . S
C491 O490 1.295 . S
C491 O493 1.235 . S
C492 O497 1.287 . S
C492 O498 1.255 . S
O493 Fe485 1.997 . S
O493 C491 1.235 . S
C494 O500 1.287 . S
C494 O501 1.255 . S
O495 Fe484 1.976 . S
O495 C502 1.287 . S
O496 Fe485 1.996 . S
O496 C502 1.255 . S
O497 Fe487 1.976 . S
O497 C492 1.287 . S
O498 Fe484 1.996 . S
O498 C492 1.255 . S
C499 O503 1.295 . S
C499 O504 1.235 . S
O500 Fe485 1.976 . S
O500 C494 1.287 . S
O501 Fe487 1.996 . S
O501 C494 1.255 . S
C502 O495 1.287 . S
C502 O496 1.255 . S
O503 Fe485 2.002 . S
O503 C499 1.295 . S
O504 Fe487 1.997 . S
O504 C499 1.235 . S
C505 O488 1.295 . S
C505 O489 1.235 . S
Fe506 O508 1.918 . S
Fe506 O511 1.997 . S
Fe506 O512 2.002 . S
Fe506 O517 1.976 . S
Fe506 O520 1.996 . S
Fe507 O508 1.918 . S
Fe507 O515 1.997 . S
Fe507 O518 1.996 . S
Fe507 O522 1.976 . S
Fe507 O525 2.002 . S
O508 Fe506 1.918 . S
O508 Fe507 1.918 . S
O508 Fe509 1.918 . S
Fe509 O508 1.918 . S
Fe509 O510 2.002 . S
Fe509 O519 1.976 . S
Fe509 O523 1.996 . S
Fe509 O526 1.997 . S
O510 Fe509 2.002 . S
O510 C527 1.295 . S
O511 Fe506 1.997 . S
O511 C527 1.235 . S
O512 Fe506 2.002 . S
O512 C513 1.295 . S
C513 O512 1.295 . S
C513 O515 1.235 . S
C514 O519 1.287 . S
C514 O520 1.255 . S
O515 Fe507 1.997 . S
O515 C513 1.235 . S
C516 O522 1.287 . S
C516 O523 1.255 . S
O517 Fe506 1.976 . S
O517 C524 1.287 . S
O518 Fe507 1.996 . S
O518 C524 1.255 . S
O519 Fe509 1.976 . S
O519 C514 1.287 . S
O520 Fe506 1.996 . S
O520 C514 1.255 . S
C521 O525 1.295 . S
C521 O526 1.235 . S
O522 Fe507 1.976 . S
O522 C516 1.287 . S
O523 Fe509 1.996 . S
O523 C516 1.255 . S
C524 O517 1.287 . S
C524 O518 1.255 . S
O525 Fe507 2.002 . S
O525 C521 1.295 . S
O526 Fe509 1.997 . S
O526 C521 1.235 . S
C527 O510 1.295 . S
C527 O511 1.235 . S
Fe528 O530 1.918 . S
Fe528 O533 1.997 . S
Fe528 O534 2.002 . S
Fe528 O539 1.976 . S
Fe528 O542 1.996 . S
Fe529 O530 1.918 . S
Fe529 O537 1.997 . S
Fe529 O540 1.996 . S
Fe529 O544 1.976 . S
Fe529 O547 2.002 . S
O530 Fe528 1.918 . S
O530 Fe529 1.918 . S
O530 Fe531 1.918 . S
Fe531 O530 1.918 . S
Fe531 O532 2.002 . S
Fe531 O541 1.976 . S
Fe531 O545 1.996 . S
Fe531 O548 1.997 . S
O532 Fe531 2.002 . S
O532 C549 1.295 . S
O533 Fe528 1.997 . S
O533 C549 1.235 . S
O534 Fe528 2.002 . S
O534 C535 1.295 . S
C535 O534 1.295 . S
C535 O537 1.235 . S
C536 O541 1.287 . S
C536 O542 1.255 . S
O537 Fe529 1.997 . S
O537 C535 1.235 . S
C538 O544 1.287 . S
C538 O545 1.255 . S
O539 Fe528 1.976 . S
O539 C546 1.287 . S
O540 Fe529 1.996 . S
O540 C546 1.255 . S
O541 Fe531 1.976 . S
O541 C536 1.287 . S
O542 Fe528 1.996 . S
O542 C536 1.255 . S
C543 O547 1.295 . S
C543 O548 1.235 . S
O544 Fe529 1.976 . S
O544 C538 1.287 . S
O545 Fe531 1.996 . S
O545 C538 1.255 . S
C546 O539 1.287 . S
C546 O540 1.255 . S
O547 Fe529 2.002 . S
O547 C543 1.295 . S
O548 Fe531 1.997 . S
O548 C543 1.235 . S
C549 O532 1.295 . S
C549 O533 1.235 . S
Fe550 O552 1.918 . S
Fe550 O555 1.997 . S
Fe550 O556 2.002 . S
Fe550 O561 1.976 . S
Fe550 O564 1.996 . S
Fe551 O552 1.918 . S
Fe551 O559 1.997 . S
Fe551 O562 1.996 . S
Fe551 O566 1.976 . S
Fe551 O569 2.002 . S
O552 Fe550 1.918 . S
O552 Fe551 1.918 . S
O552 Fe553 1.918 . S
Fe553 O552 1.918 . S
Fe553 O554 2.002 . S
Fe553 O563 1.976 . S
Fe553 O567 1.996 . S
Fe553 O570 1.997 . S
O554 Fe553 2.002 . S
O554 C571 1.295 . S
O555 Fe550 1.997 . S
O555 C571 1.235 . S
O556 Fe550 2.002 . S
O556 C557 1.295 . S
C557 O556 1.295 . S
C557 O559 1.235 . S
C558 O563 1.287 . S
C558 O564 1.255 . S
O559 Fe551 1.997 . S
O559 C557 1.235 . S
C560 O566 1.287 . S
C560 O567 1.255 . S
O561 Fe550 1.976 . S
O561 C568 1.287 . S
O562 Fe551 1.996 . S
O562 C568 1.255 . S
O563 Fe553 1.976 . S
O563 C558 1.287 . S
O564 Fe550 1.996 . S
O564 C558 1.255 . S
C565 O569 1.295 . S
C565 O570 1.235 . S
O566 Fe551 1.976 . S
O566 C560 1.287 . S
O567 Fe553 1.996 . S
O567 C560 1.255 . S
C568 O561 1.287 . S
C568 O562 1.255 . S
O569 Fe551 2.002 . S
O569 C565 1.295 . S
O570 Fe553 1.997 . S
O570 C565 1.235 . S
C571 O554 1.295 . S
C571 O555 1.235 . S
Fe572 O574 1.918 . S
Fe572 O577 1.997 . S
Fe572 O578 2.002 . S
Fe572 O583 1.976 . S
Fe572 O586 1.996 . S
Fe573 O574 1.918 . S
Fe573 O581 1.997 . S
Fe573 O584 1.996 . S
Fe573 O588 1.976 . S
Fe573 O591 2.002 . S
O574 Fe572 1.918 . S
O574 Fe573 1.918 . S
O574 Fe575 1.918 . S
Fe575 O574 1.918 . S
Fe575 O576 2.002 . S
Fe575 O585 1.976 . S
Fe575 O589 1.996 . S
Fe575 O592 1.997 . S
O576 Fe575 2.002 . S
O576 C593 1.295 . S
O577 Fe572 1.997 . S
O577 C593 1.235 . S
O578 Fe572 2.002 . S
O578 C579 1.295 . S
C579 O578 1.295 . S
C579 O581 1.235 . S
C580 O585 1.287 . S
C580 O586 1.255 . S
O581 Fe573 1.997 . S
O581 C579 1.235 . S
C582 O588 1.287 . S
C582 O589 1.255 . S
O583 Fe572 1.976 . S
O583 C590 1.287 . S
O584 Fe573 1.996 . S
O584 C590 1.255 . S
O585 Fe575 1.976 . S
O585 C580 1.287 . S
O586 Fe572 1.996 . S
O586 C580 1.255 . S
C587 O591 1.295 . S
C587 O592 1.235 . S
O588 Fe573 1.976 . S
O588 C582 1.287 . S
O589 Fe575 1.996 . S
O589 C582 1.255 . S
C590 O583 1.287 . S
C590 O584 1.255 . S
O591 Fe573 2.002 . S
O591 C587 1.295 . S
O592 Fe575 1.997 . S
O592 C587 1.235 . S
C593 O576 1.295 . S
C593 O577 1.235 . S
Fe594 O596 1.918 . S
Fe594 O599 1.997 . S
Fe594 O600 2.002 . S
Fe594 O605 1.976 . S
Fe594 O608 1.996 . S
Fe595 O596 1.918 . S
Fe595 O603 1.997 . S
Fe595 O606 1.996 . S
Fe595 O610 1.976 . S
Fe595 O613 2.002 . S
O596 Fe594 1.918 . S
O596 Fe595 1.918 . S
O596 Fe597 1.918 . S
Fe597 O596 1.918 . S
Fe597 O598 2.002 . S
Fe597 O607 1.976 . S
Fe597 O611 1.996 . S
Fe597 O614 1.997 . S
O598 Fe597 2.002 . S
O598 C615 1.295 . S
O599 Fe594 1.997 . S
O599 C615 1.235 . S
O600 Fe594 2.002 . S
O600 C601 1.295 . S
C601 O600 1.295 . S
C601 O603 1.235 . S
C602 O607 1.287 . S
C602 O608 1.255 . S
O603 Fe595 1.997 . S
O603 C601 1.235 . S
C604 O610 1.287 . S
C604 O611 1.255 . S
O605 Fe594 1.976 . S
O605 C612 1.287 . S
O606 Fe595 1.996 . S
O606 C612 1.255 . S
O607 Fe597 1.976 . S
O607 C602 1.287 . S
O608 Fe594 1.996 . S
O608 C602 1.255 . S
C609 O613 1.295 . S
C609 O614 1.235 . S
O610 Fe595 1.976 . S
O610 C604 1.287 . S
O611 Fe597 1.996 . S
O611 C604 1.255 . S
C612 O605 1.287 . S
C612 O606 1.255 . S
O613 Fe595 2.002 . S
O613 C609 1.295 . S
O614 Fe597 1.997 . S
O614 C609 1.235 . S
C615 O598 1.295 . S
C615 O599 1.235 . S
Fe616 O618 1.918 . S
Fe616 O621 1.997 . S
Fe616 O622 2.002 . S
Fe616 O627 1.976 . S
Fe616 O630 1.996 . S
Fe617 O618 1.918 . S
Fe617 O625 1.997 . S
Fe617 O628 1.996 . S
Fe617 O632 1.976 . S
Fe617 O635 2.002 . S
O618 Fe616 1.918 . S
O618 Fe617 1.918 . S
O618 Fe619 1.918 . S
Fe619 O618 1.918 . S
Fe619 O620 2.002 . S
Fe619 O629 1.976 . S
Fe619 O633 1.996 . S
Fe619 O636 1.997 . S
O620 Fe619 2.002 . S
O620 C637 1.295 . S
O621 Fe616 1.997 . S
O621 C637 1.235 . S
O622 Fe616 2.002 . S
O622 C623 1.295 . S
C623 O622 1.295 . S
C623 O625 1.235 . S
C624 O629 1.287 . S
C624 O630 1.255 . S
O625 Fe617 1.997 . S
O625 C623 1.235 . S
C626 O632 1.287 . S
C626 O633 1.255 . S
O627 Fe616 1.976 . S
O627 C634 1.287 . S
O628 Fe617 1.996 . S
O628 C634 1.255 . S
O629 Fe619 1.976 . S
O629 C624 1.287 . S
O630 Fe616 1.996 . S
O630 C624 1.255 . S
C631 O635 1.295 . S
C631 O636 1.235 . S
O632 Fe617 1.976 . S
O632 C626 1.287 . S
O633 Fe619 1.996 . S
O633 C626 1.255 . S
C634 O627 1.287 . S
C634 O628 1.255 . S
O635 Fe617 2.002 . S
O635 C631 1.295 . S
O636 Fe619 1.997 . S
O636 C631 1.235 . S
C637 O620 1.295 . S
C637 O621 1.235 . S
Fe638 O640 1.918 . S
Fe638 O643 1.997 . S
Fe638 O644 2.002 . S
Fe638 O649 1.976 . S
Fe638 O652 1.996 . S
Fe639 O640 1.918 . S
Fe639 O647 1.997 . S
Fe639 O650 1.996 . S
Fe639 O654 1.976 . S
Fe639 O657 2.002 . S
O640 Fe638 1.918 . S
O640 Fe639 1.918 . S
O640 Fe641 1.918 . S
Fe641 O640 1.918 . S
Fe641 O642 2.002 . S
Fe641 O651 1.976 . S
Fe641 O655 1.996 . S
Fe641 O658 1.997 . S
O642 Fe641 2.002 . S
O642 C659 1.295 . S
O643 Fe638 1.997 . S
O643 C659 1.235 . S
O644 Fe638 2.002 . S
O644 C645 1.295 . S
C645 O644 1.295 . S
C645 O647 1.235 . S
C646 O651 1.287 . S
C646 O652 1.255 . S
O647 Fe639 1.997 . S
O647 C645 1.235 . S
C648 O654 1.287 . S
C648 O655 1.255 . S
O649 Fe638 1.976 . S
O649 C656 1.287 . S
O650 Fe639 1.996 . S
O650 C656 1.255 . S
O651 Fe641 1.976 . S
O651 C646 1.287 . S
O652 Fe638 1.996 . S
O652 C646 1.255 . S
C653 O657 1.295 . S
C653 O658 1.235 . S
O654 Fe639 1.976 . S
O654 C648 1.287 . S
O655 Fe641 1.996 . S
O655 C648 1.255 . S
C656 O649 1.287 . S
C656 O650 1.255 . S
O657 Fe639 2.002 . S
O657 C653 1.295 . S
O658 Fe641 1.997 . S
O658 C653 1.235 . S
C659 O642 1.295 . S
C659 O643 1.235 . S
Fe660 O662 1.918 . S
Fe660 O665 1.997 . S
Fe660 O666 2.002 . S
Fe660 O671 1.976 . S
Fe660 O674 1.996 . S
Fe661 O662 1.918 . S
Fe661 O669 1.997 . S
Fe661 O672 1.996 . S
Fe661 O676 1.976 . S
Fe661 O679 2.002 . S
O662 Fe660 1.918 . S
O662 Fe661 1.918 . S
O662 Fe663 1.918 . S
Fe663 O662 1.918 . S
Fe663 O664 2.002 . S
Fe663 O673 1.976 . S
Fe663 O677 1.996 . S
Fe663 O680 1.997 . S
O664 Fe663 2.002 . S
O664 C681 1.295 . S
O665 Fe660 1.997 . S
O665 C681 1.235 . S
O666 Fe660 2.002 . S
O666 C667 1.295 . S
C667 O666 1.295 . S
C667 O669 1.235 . S
C668 O673 1.287 . S
C668 O674 1.255 . S
O669 Fe661 1.997 . S
O669 C667 1.235 . S
C670 O676 1.287 . S
C670 O677 1.255 . S
O671 Fe660 1.976 . S
O671 C678 1.287 . S
O672 Fe661 1.996 . S
O672 C678 1.255 . S
O673 Fe663 1.976 . S
O673 C668 1.287 . S
O674 Fe660 1.996 . S
O674 C668 1.255 . S
C675 O679 1.295 . S
C675 O680 1.235 . S
O676 Fe661 1.976 . S
O676 C670 1.287 . S
O677 Fe663 1.996 . S
O677 C670 1.255 . S
C678 O671 1.287 . S
C678 O672 1.255 . S
O679 Fe661 2.002 . S
O679 C675 1.295 . S
O680 Fe663 1.997 . S
O680 C675 1.235 . S
C681 O664 1.295 . S
C681 O665 1.235 . S
Fe682 O684 1.918 . S
Fe682 O687 1.997 . S
Fe682 O688 2.002 . S
Fe682 O693 1.976 . S
Fe682 O696 1.996 . S
Fe683 O684 1.918 . S
Fe683 O691 1.997 . S
Fe683 O694 1.996 . S
Fe683 O698 1.976 . S
Fe683 O701 2.002 . S
O684 Fe682 1.918 . S
O684 Fe683 1.918 . S
O684 Fe685 1.918 . S
Fe685 O684 1.918 . S
Fe685 O686 2.002 . S
Fe685 O695 1.976 . S
Fe685 O699 1.996 . S
Fe685 O702 1.997 . S
O686 Fe685 2.002 . S
O686 C703 1.295 . S
O687 Fe682 1.997 . S
O687 C703 1.235 . S
O688 Fe682 2.002 . S
O688 C689 1.295 . S
C689 O688 1.295 . S
C689 O691 1.235 . S
C690 O695 1.287 . S
C690 O696 1.255 . S
O691 Fe683 1.997 . S
O691 C689 1.235 . S
C692 O698 1.287 . S
C692 O699 1.255 . S
O693 Fe682 1.976 . S
O693 C700 1.287 . S
O694 Fe683 1.996 . S
O694 C700 1.255 . S
O695 Fe685 1.976 . S
O695 C690 1.287 . S
O696 Fe682 1.996 . S
O696 C690 1.255 . S
C697 O701 1.295 . S
C697 O702 1.235 . S
O698 Fe683 1.976 . S
O698 C692 1.287 . S
O699 Fe685 1.996 . S
O699 C692 1.255 . S
C700 O693 1.287 . S
C700 O694 1.255 . S
O701 Fe683 2.002 . S
O701 C697 1.295 . S
O702 Fe685 1.997 . S
O702 C697 1.235 . S
C703 O686 1.295 . S
C703 O687 1.235 . S
C704 C705 1.349 . S
C704 C706 1.327 . S
C704 H729 0.950 . S
C705 C704 1.349 . S
C705 C721 1.349 . S
C706 C704 1.327 . S
C706 C725 1.429 . S
C706 H730 0.950 . S
C707 C724 1.574 . S
C707 C726 1.368 . S
C707 H731 0.949 . S
H708 C712 0.949 . S
C709 C710 1.349 . S
C709 C711 1.327 . S
C709 H732 0.950 . S
C710 C709 1.349 . S
C710 C722 1.349 . S
C711 C709 1.327 . S
C711 C727 1.429 . S
C711 H733 0.950 . S
C712 H708 0.949 . S
C712 C720 1.574 . S
C712 C728 1.368 . S
H713 C721 0.950 . S
H714 C719 0.950 . S
H715 C720 0.949 . S
H716 C722 0.950 . S
H717 C723 0.950 . S
H718 C724 0.949 . S
C719 H714 0.950 . S
C719 C721 1.327 . S
C719 C725 1.429 . S
C720 C712 1.574 . S
C720 H715 0.949 . S
C720 C726 1.368 . S
C721 C705 1.349 . S
C721 H713 0.950 . S
C721 C719 1.327 . S
C722 C710 1.349 . S
C722 H716 0.950 . S
C722 C723 1.327 . S
C723 H717 0.950 . S
C723 C722 1.327 . S
C723 C727 1.429 . S
C724 C707 1.574 . S
C724 H718 0.949 . S
C724 C728 1.368 . S
C725 C706 1.429 . S
C725 C719 1.429 . S
C725 C726 1.523 . S
C726 C707 1.368 . S
C726 C720 1.368 . S
C726 C725 1.523 . S
C727 C711 1.429 . S
C727 C723 1.429 . S
C727 C728 1.523 . S
C728 C712 1.368 . S
C728 C724 1.368 . S
C728 C727 1.523 . S
H729 C704 0.950 . S
H730 C706 0.950 . S
H731 C707 0.949 . S
H732 C709 0.950 . S
H733 C711 0.950 . S
C734 C735 1.349 . S
C734 C736 1.327 . S
C734 H759 0.950 . S
C735 C734 1.349 . S
C735 C751 1.349 . S
C736 C734 1.327 . S
C736 C755 1.429 . S
C736 H760 0.950 . S
C737 C754 1.574 . S
C737 C756 1.368 . S
C737 H761 0.949 . S
H738 C742 0.949 . S
C739 C740 1.349 . S
C739 C741 1.327 . S
C739 H762 0.950 . S
C740 C739 1.349 . S
C740 C752 1.349 . S
C741 C739 1.327 . S
C741 C757 1.429 . S
C741 H763 0.950 . S
C742 H738 0.949 . S
C742 C750 1.574 . S
C742 C758 1.368 . S
H743 C751 0.950 . S
H744 C749 0.950 . S
H745 C750 0.949 . S
H746 C752 0.950 . S
H747 C753 0.950 . S
H748 C754 0.949 . S
C749 H744 0.950 . S
C749 C751 1.327 . S
C749 C755 1.429 . S
C750 C742 1.574 . S
C750 H745 0.949 . S
C750 C756 1.368 . S
C751 C735 1.349 . S
C751 H743 0.950 . S
C751 C749 1.327 . S
C752 C740 1.349 . S
C752 H746 0.950 . S
C752 C753 1.327 . S
C753 H747 0.950 . S
C753 C752 1.327 . S
C753 C757 1.429 . S
C754 C737 1.574 . S
C754 H748 0.949 . S
C754 C758 1.368 . S
C755 C736 1.429 . S
C755 C749 1.429 . S
C755 C756 1.523 . S
C756 C737 1.368 . S
C756 C750 1.368 . S
C756 C755 1.523 . S
C757 C741 1.429 . S
C757 C753 1.429 . S
C757 C758 1.523 . S
C758 C742 1.368 . S
C758 C754 1.368 . S
C758 C757 1.523 . S
H759 C734 0.950 . S
H760 C736 0.950 . S
H761 C737 0.949 . S
H762 C739 0.950 . S
H763 C741 0.950 . S
C764 C765 1.349 . S
C764 C766 1.327 . S
C764 H789 0.950 . S
C765 C764 1.349 . S
C765 C781 1.349 . S
C766 C764 1.327 . S
C766 C785 1.429 . S
C766 H790 0.950 . S
C767 C784 1.574 . S
C767 C786 1.368 . S
C767 H791 0.949 . S
H768 C772 0.949 . S
C769 C770 1.349 . S
C769 C771 1.327 . S
C769 H792 0.950 . S
C770 C769 1.349 . S
C770 C782 1.349 . S
C771 C769 1.327 . S
C771 C787 1.429 . S
C771 H793 0.950 . S
C772 H768 0.949 . S
C772 C780 1.574 . S
C772 C788 1.368 . S
H773 C781 0.950 . S
H774 C779 0.950 . S
H775 C780 0.949 . S
H776 C782 0.950 . S
H777 C783 0.950 . S
H778 C784 0.949 . S
C779 H774 0.950 . S
C779 C781 1.327 . S
C779 C785 1.429 . S
C780 C772 1.574 . S
C780 H775 0.949 . S
C780 C786 1.368 . S
C781 C765 1.349 . S
C781 H773 0.950 . S
C781 C779 1.327 . S
C782 C770 1.349 . S
C782 H776 0.950 . S
C782 C783 1.327 . S
C783 H777 0.950 . S
C783 C782 1.327 . S
C783 C787 1.429 . S
C784 C767 1.574 . S
C784 H778 0.949 . S
C784 C788 1.368 . S
C785 C766 1.429 . S
C785 C779 1.429 . S
C785 C786 1.523 . S
C786 C767 1.368 . S
C786 C780 1.368 . S
C786 C785 1.523 . S
C787 C771 1.429 . S
C787 C783 1.429 . S
C787 C788 1.523 . S
C788 C772 1.368 . S
C788 C784 1.368 . S
C788 C787 1.523 . S
H789 C764 0.950 . S
H790 C766 0.950 . S
H791 C767 0.949 . S
H792 C769 0.950 . S
H793 C771 0.950 . S
C794 C795 1.349 . S
C794 C796 1.327 . S
C794 H819 0.950 . S
C795 C794 1.349 . S
C795 C811 1.349 . S
C796 C794 1.327 . S
C796 C815 1.429 . S
C796 H820 0.950 . S
C797 C814 1.574 . S
C797 C816 1.368 . S
C797 H821 0.949 . S
H798 C802 0.949 . S
C799 C800 1.349 . S
C799 C801 1.327 . S
C799 H822 0.950 . S
C800 C799 1.349 . S
C800 C812 1.349 . S
C801 C799 1.327 . S
C801 C817 1.429 . S
C801 H823 0.950 . S
C802 H798 0.949 . S
C802 C810 1.574 . S
C802 C818 1.368 . S
H803 C811 0.950 . S
H804 C809 0.950 . S
H805 C810 0.949 . S
H806 C812 0.950 . S
H807 C813 0.950 . S
H808 C814 0.949 . S
C809 H804 0.950 . S
C809 C811 1.327 . S
C809 C815 1.429 . S
C810 C802 1.574 . S
C810 H805 0.949 . S
C810 C816 1.368 . S
C811 C795 1.349 . S
C811 H803 0.950 . S
C811 C809 1.327 . S
C812 C800 1.349 . S
C812 H806 0.950 . S
C812 C813 1.327 . S
C813 H807 0.950 . S
C813 C812 1.327 . S
C813 C817 1.429 . S
C814 C797 1.574 . S
C814 H808 0.949 . S
C814 C818 1.368 . S
C815 C796 1.429 . S
C815 C809 1.429 . S
C815 C816 1.523 . S
C816 C797 1.368 . S
C816 C810 1.368 . S
C816 C815 1.523 . S
C817 C801 1.429 . S
C817 C813 1.429 . S
C817 C818 1.523 . S
C818 C802 1.368 . S
C818 C814 1.368 . S
C818 C817 1.523 . S
H819 C794 0.950 . S
H820 C796 0.950 . S
H821 C797 0.949 . S
H822 C799 0.950 . S
H823 C801 0.950 . S
C824 C825 1.349 . S
C824 C826 1.327 . S
C824 H849 0.950 . S
C825 C824 1.349 . S
C825 C841 1.349 . S
C826 C824 1.327 . S
C826 C845 1.429 . S
C826 H850 0.950 . S
C827 C844 1.574 . S
C827 C846 1.368 . S
C827 H851 0.949 . S
H828 C832 0.949 . S
C829 C830 1.349 . S
C829 C831 1.327 . S
C829 H852 0.950 . S
C830 C829 1.349 . S
C830 C842 1.349 . S
C831 C829 1.327 . S
C831 C847 1.429 . S
C831 H853 0.950 . S
C832 H828 0.949 . S
C832 C840 1.574 . S
C832 C848 1.368 . S
H833 C841 0.950 . S
H834 C839 0.950 . S
H835 C840 0.949 . S
H836 C842 0.950 . S
H837 C843 0.950 . S
H838 C844 0.949 . S
C839 H834 0.950 . S
C839 C841 1.327 . S
C839 C845 1.429 . S
C840 C832 1.574 . S
C840 H835 0.949 . S
C840 C846 1.368 . S
C841 C825 1.349 . S
C841 H833 0.950 . S
C841 C839 1.327 . S
C842 C830 1.349 . S
C842 H836 0.950 . S
C842 C843 1.327 . S
C843 H837 0.950 . S
C843 C842 1.327 . S
C843 C847 1.429 . S
C844 C827 1.574 . S
C844 H838 0.949 . S
C844 C848 1.368 . S
C845 C826 1.429 . S
C845 C839 1.429 . S
C845 C846 1.523 . S
C846 C827 1.368 . S
C846 C840 1.368 . S
C846 C845 1.523 . S
C847 C831 1.429 . S
C847 C843 1.429 . S
C847 C848 1.523 . S
C848 C832 1.368 . S
C848 C844 1.368 . S
C848 C847 1.523 . S
H849 C824 0.950 . S
H850 C826 0.950 . S
H851 C827 0.949 . S
H852 C829 0.950 . S
H853 C831 0.950 . S
C854 C855 1.349 . S
C854 C856 1.327 . S
C854 H879 0.950 . S
C855 C854 1.349 . S
C855 C871 1.349 . S
C856 C854 1.327 . S
C856 C875 1.429 . S
C856 H880 0.950 . S
C857 C874 1.574 . S
C857 C876 1.368 . S
C857 H881 0.949 . S
H858 C862 0.949 . S
C859 C860 1.349 . S
C859 C861 1.327 . S
C859 H882 0.950 . S
C860 C859 1.349 . S
C860 C872 1.349 . S
C861 C859 1.327 . S
C861 C877 1.429 . S
C861 H883 0.950 . S
C862 H858 0.949 . S
C862 C870 1.574 . S
C862 C878 1.368 . S
H863 C871 0.950 . S
H864 C869 0.950 . S
H865 C870 0.949 . S
H866 C872 0.950 . S
H867 C873 0.950 . S
H868 C874 0.949 . S
C869 H864 0.950 . S
C869 C871 1.327 . S
C869 C875 1.429 . S
C870 C862 1.574 . S
C870 H865 0.949 . S
C870 C876 1.368 . S
C871 C855 1.349 . S
C871 H863 0.950 . S
C871 C869 1.327 . S
C872 C860 1.349 . S
C872 H866 0.950 . S
C872 C873 1.327 . S
C873 H867 0.950 . S
C873 C872 1.327 . S
C873 C877 1.429 . S
C874 C857 1.574 . S
C874 H868 0.949 . S
C874 C878 1.368 . S
C875 C856 1.429 . S
C875 C869 1.429 . S
C875 C876 1.523 . S
C876 C857 1.368 . S
C876 C870 1.368 . S
C876 C875 1.523 . S
C877 C861 1.429 . S
C877 C873 1.429 . S
C877 C878 1.523 . S
C878 C862 1.368 . S
C878 C874 1.368 . S
C878 C877 1.523 . S
H879 C854 0.950 . S
H880 C856 0.950 . S
H881 C857 0.949 . S
H882 C859 0.950 . S
H883 C861 0.950 . S
C884 C885 1.349 . S
C884 C886 1.327 . S
C884 H909 0.950 . S
C885 C884 1.349 . S
C885 C901 1.349 . S
C886 C884 1.327 . S
C886 C905 1.429 . S
C886 H910 0.950 . S
C887 C904 1.574 . S
C887 C906 1.368 . S
C887 H911 0.949 . S
H888 C892 0.949 . S
C889 C890 1.349 . S
C889 C891 1.327 . S
C889 H912 0.950 . S
C890 C889 1.349 . S
C890 C902 1.349 . S
C891 C889 1.327 . S
C891 C907 1.429 . S
C891 H913 0.950 . S
C892 H888 0.949 . S
C892 C900 1.574 . S
C892 C908 1.368 . S
H893 C901 0.950 . S
H894 C899 0.950 . S
H895 C900 0.949 . S
H896 C902 0.950 . S
H897 C903 0.950 . S
H898 C904 0.949 . S
C899 H894 0.950 . S
C899 C901 1.327 . S
C899 C905 1.429 . S
C900 C892 1.574 . S
C900 H895 0.949 . S
C900 C906 1.368 . S
C901 C885 1.349 . S
C901 H893 0.950 . S
C901 C899 1.327 . S
C902 C890 1.349 . S
C902 H896 0.950 . S
C902 C903 1.327 . S
C903 H897 0.950 . S
C903 C902 1.327 . S
C903 C907 1.429 . S
C904 C887 1.574 . S
C904 H898 0.949 . S
C904 C908 1.368 . S
C905 C886 1.429 . S
C905 C899 1.429 . S
C905 C906 1.523 . S
C906 C887 1.368 . S
C906 C900 1.368 . S
C906 C905 1.523 . S
C907 C891 1.429 . S
C907 C903 1.429 . S
C907 C908 1.523 . S
C908 C892 1.368 . S
C908 C904 1.368 . S
C908 C907 1.523 . S
H909 C884 0.950 . S
H910 C886 0.950 . S
H911 C887 0.949 . S
H912 C889 0.950 . S
H913 C891 0.950 . S
C914 C915 1.349 . S
C914 C916 1.327 . S
C914 H939 0.950 . S
C915 C914 1.349 . S
C915 C931 1.349 . S
C916 C914 1.327 . S
C916 C935 1.429 . S
C916 H940 0.950 . S
C917 C934 1.574 . S
C917 C936 1.368 . S
C917 H941 0.949 . S
H918 C922 0.949 . S
C919 C920 1.349 . S
C919 C921 1.327 . S
C919 H942 0.950 . S
C920 C919 1.349 . S
C920 C932 1.349 . S
C921 C919 1.327 . S
C921 C937 1.429 . S
C921 H943 0.950 . S
C922 H918 0.949 . S
C922 C930 1.574 . S
C922 C938 1.368 . S
H923 C931 0.950 . S
H924 C929 0.950 . S
H925 C930 0.949 . S
H926 C932 0.950 . S
H927 C933 0.950 . S
H928 C934 0.949 . S
C929 H924 0.950 . S
C929 C931 1.327 . S
C929 C935 1.429 . S
C930 C922 1.574 . S
C930 H925 0.949 . S
C930 C936 1.368 . S
C931 C915 1.349 . S
C931 H923 0.950 . S
C931 C929 1.327 . S
C932 C920 1.349 . S
C932 H926 0.950 . S
C932 C933 1.327 . S
C933 H927 0.950 . S
C933 C932 1.327 . S
C933 C937 1.429 . S
C934 C917 1.574 . S
C934 H928 0.949 . S
C934 C938 1.368 . S
C935 C916 1.429 . S
C935 C929 1.429 . S
C935 C936 1.523 . S
C936 C917 1.368 . S
C936 C930 1.368 . S
C936 C935 1.523 . S
C937 C921 1.429 . S
C937 C933 1.429 . S
C937 C938 1.523 . S
C938 C922 1.368 . S
C938 C934 1.368 . S
C938 C937 1.523 . S
H939 C914 0.950 . S
H940 C916 0.950 . S
H941 C917 0.949 . S
H942 C919 0.950 . S
H943 C921 0.950 . S
C944 C945 1.349 . S
C944 C946 1.327 . S
C944 H969 0.950 . S
C945 C944 1.349 . S
C945 C961 1.349 . S
C946 C944 1.327 . S
C946 C965 1.429 . S
C946 H970 0.950 . S
C947 C964 1.574 . S
C947 C966 1.368 . S
C947 H971 0.949 . S
H948 C952 0.949 . S
C949 C950 1.349 . S
C949 C951 1.327 . S
C949 H972 0.950 . S
C950 C949 1.349 . S
C950 C962 1.349 . S
C951 C949 1.327 . S
C951 C967 1.429 . S
C951 H973 0.950 . S
C952 H948 0.949 . S
C952 C960 1.574 . S
C952 C968 1.368 . S
H953 C961 0.950 . S
H954 C959 0.950 . S
H955 C960 0.949 . S
H956 C962 0.950 . S
H957 C963 0.950 . S
H958 C964 0.949 . S
C959 H954 0.950 . S
C959 C961 1.327 . S
C959 C965 1.429 . S
C960 C952 1.574 . S
C960 H955 0.949 . S
C960 C966 1.368 . S
C961 C945 1.349 . S
C961 H953 0.950 . S
C961 C959 1.327 . S
C962 C950 1.349 . S
C962 H956 0.950 . S
C962 C963 1.327 . S
C963 H957 0.950 . S
C963 C962 1.327 . S
C963 C967 1.429 . S
C964 C947 1.574 . S
C964 H958 0.949 . S
C964 C968 1.368 . S
C965 C946 1.429 . S
C965 C959 1.429 . S
C965 C966 1.523 . S
C966 C947 1.368 . S
C966 C960 1.368 . S
C966 C965 1.523 . S
C967 C951 1.429 . S
C967 C963 1.429 . S
C967 C968 1.523 . S
C968 C952 1.368 . S
C968 C964 1.368 . S
C968 C967 1.523 . S
H969 C944 0.950 . S
H970 C946 0.950 . S
H971 C947 0.949 . S
H972 C949 0.950 . S
H973 C951 0.950 . S
C974 C975 1.349 . S
C974 C976 1.327 . S
C974 H999 0.950 . S
C975 C974 1.349 . S
C975 C991 1.349 . S
C976 C974 1.327 . S
C976 C995 1.429 . S
C976 H1000 0.950 . S
C977 C994 1.574 . S
C977 C996 1.368 . S
C977 H1001 0.949 . S
H978 C982 0.949 . S
C979 C980 1.349 . S
C979 C981 1.327 . S
C979 H1002 0.950 . S
C980 C979 1.349 . S
C980 C992 1.349 . S
C981 C979 1.327 . S
C981 C997 1.429 . S
C981 H1003 0.950 . S
C982 H978 0.949 . S
C982 C990 1.574 . S
C982 C998 1.368 . S
H983 C991 0.950 . S
H984 C989 0.950 . S
H985 C990 0.949 . S
H986 C992 0.950 . S
H987 C993 0.950 . S
H988 C994 0.949 . S
C989 H984 0.950 . S
C989 C991 1.327 . S
C989 C995 1.429 . S
C990 C982 1.574 . S
C990 H985 0.949 . S
C990 C996 1.368 . S
C991 C975 1.349 . S
C991 H983 0.950 . S
C991 C989 1.327 . S
C992 C980 1.349 . S
C992 H986 0.950 . S
C992 C993 1.327 . S
C993 H987 0.950 . S
C993 C992 1.327 . S
C993 C997 1.429 . S
C994 C977 1.574 . S
C994 H988 0.949 . S
C994 C998 1.368 . S
C995 C976 1.429 . S
C995 C989 1.429 . S
C995 C996 1.523 . S
C996 C977 1.368 . S
C996 C990 1.368 . S
C996 C995 1.523 . S
C997 C981 1.429 . S
C997 C993 1.429 . S
C997 C998 1.523 . S
C998 C982 1.368 . S
C998 C994 1.368 . S
C998 C997 1.523 . S
H999 C974 0.950 . S
H1000 C976 0.950 . S
H1001 C977 0.949 . S
H1002 C979 0.950 . S
H1003 C981 0.950 . S
C1004 C1005 1.349 . S
C1004 C1006 1.327 . S
C1004 H1029 0.950 . S
C1005 C1004 1.349 . S
C1005 C1021 1.349 . S
C1006 C1004 1.327 . S
C1006 C1025 1.429 . S
C1006 H1030 0.950 . S
C1007 C1024 1.574 . S
C1007 C1026 1.368 . S
C1007 H1031 0.949 . S
H1008 C1012 0.949 . S
C1009 C1010 1.349 . S
C1009 C1011 1.327 . S
C1009 H1032 0.950 . S
C1010 C1009 1.349 . S
C1010 C1022 1.349 . S
C1011 C1009 1.327 . S
C1011 C1027 1.429 . S
C1011 H1033 0.950 . S
C1012 H1008 0.949 . S
C1012 C1020 1.574 . S
C1012 C1028 1.368 . S
H1013 C1021 0.950 . S
H1014 C1019 0.950 . S
H1015 C1020 0.949 . S
H1016 C1022 0.950 . S
H1017 C1023 0.950 . S
H1018 C1024 0.949 . S
C1019 H1014 0.950 . S
C1019 C1021 1.327 . S
C1019 C1025 1.429 . S
C1020 C1012 1.574 . S
C1020 H1015 0.949 . S
C1020 C1026 1.368 . S
C1021 C1005 1.349 . S
C1021 H1013 0.950 . S
C1021 C1019 1.327 . S
C1022 C1010 1.349 . S
C1022 H1016 0.950 . S
C1022 C1023 1.327 . S
C1023 H1017 0.950 . S
C1023 C1022 1.327 . S
C1023 C1027 1.429 . S
C1024 C1007 1.574 . S
C1024 H1018 0.949 . S
C1024 C1028 1.368 . S
C1025 C1006 1.429 . S
C1025 C1019 1.429 . S
C1025 C1026 1.523 . S
C1026 C1007 1.368 . S
C1026 C1020 1.368 . S
C1026 C1025 1.523 . S
C1027 C1011 1.429 . S
C1027 C1023 1.429 . S
C1027 C1028 1.523 . S
C1028 C1012 1.368 . S
C1028 C1024 1.368 . S
C1028 C1027 1.523 . S
H1029 C1004 0.950 . S
H1030 C1006 0.950 . S
H1031 C1007 0.949 . S
H1032 C1009 0.950 . S
H1033 C1011 0.950 . S
C1034 C1035 1.349 . S
C1034 C1036 1.327 . S
C1034 H1059 0.950 . S
C1035 C1034 1.349 . S
C1035 C1051 1.349 . S
C1036 C1034 1.327 . S
C1036 C1055 1.429 . S
C1036 H1060 0.950 . S
C1037 C1054 1.574 . S
C1037 C1056 1.368 . S
C1037 H1061 0.949 . S
H1038 C1042 0.949 . S
C1039 C1040 1.349 . S
C1039 C1041 1.327 . S
C1039 H1062 0.950 . S
C1040 C1039 1.349 . S
C1040 C1052 1.349 . S
C1041 C1039 1.327 . S
C1041 C1057 1.429 . S
C1041 H1063 0.950 . S
C1042 H1038 0.949 . S
C1042 C1050 1.574 . S
C1042 C1058 1.368 . S
H1043 C1051 0.950 . S
H1044 C1049 0.950 . S
H1045 C1050 0.949 . S
H1046 C1052 0.950 . S
H1047 C1053 0.950 . S
H1048 C1054 0.949 . S
C1049 H1044 0.950 . S
C1049 C1051 1.327 . S
C1049 C1055 1.429 . S
C1050 C1042 1.574 . S
C1050 H1045 0.949 . S
C1050 C1056 1.368 . S
C1051 C1035 1.349 . S
C1051 H1043 0.950 . S
C1051 C1049 1.327 . S
C1052 C1040 1.349 . S
C1052 H1046 0.950 . S
C1052 C1053 1.327 . S
C1053 H1047 0.950 . S
C1053 C1052 1.327 . S
C1053 C1057 1.429 . S
C1054 C1037 1.574 . S
C1054 H1048 0.949 . S
C1054 C1058 1.368 . S
C1055 C1036 1.429 . S
C1055 C1049 1.429 . S
C1055 C1056 1.523 . S
C1056 C1037 1.368 . S
C1056 C1050 1.368 . S
C1056 C1055 1.523 . S
C1057 C1041 1.429 . S
C1057 C1053 1.429 . S
C1057 C1058 1.523 . S
C1058 C1042 1.368 . S
C1058 C1054 1.368 . S
C1058 C1057 1.523 . S
H1059 C1034 0.950 . S
H1060 C1036 0.950 . S
H1061 C1037 0.949 . S
H1062 C1039 0.950 . S
H1063 C1041 0.950 . S
C1064 C1065 1.349 . S
C1064 C1066 1.327 . S
C1064 H1089 0.950 . S
C1065 C1064 1.349 . S
C1065 C1081 1.349 . S
C1066 C1064 1.327 . S
C1066 C1085 1.429 . S
C1066 H1090 0.950 . S
C1067 C1084 1.574 . S
C1067 C1086 1.368 . S
C1067 H1091 0.949 . S
H1068 C1072 0.949 . S
C1069 C1070 1.349 . S
C1069 C1071 1.327 . S
C1069 H1092 0.950 . S
C1070 C1069 1.349 . S
C1070 C1082 1.349 . S
C1071 C1069 1.327 . S
C1071 C1087 1.429 . S
C1071 H1093 0.950 . S
C1072 H1068 0.949 . S
C1072 C1080 1.574 . S
C1072 C1088 1.368 . S
H1073 C1081 0.950 . S
H1074 C1079 0.950 . S
H1075 C1080 0.949 . S
H1076 C1082 0.950 . S
H1077 C1083 0.950 . S
H1078 C1084 0.949 . S
C1079 H1074 0.950 . S
C1079 C1081 1.327 . S
C1079 C1085 1.429 . S
C1080 C1072 1.574 . S
C1080 H1075 0.949 . S
C1080 C1086 1.368 . S
C1081 C1065 1.349 . S
C1081 H1073 0.950 . S
C1081 C1079 1.327 . S
C1082 C1070 1.349 . S
C1082 H1076 0.950 . S
C1082 C1083 1.327 . S
C1083 H1077 0.950 . S
C1083 C1082 1.327 . S
C1083 C1087 1.429 . S
C1084 C1067 1.574 . S
C1084 H1078 0.949 . S
C1084 C1088 1.368 . S
C1085 C1066 1.429 . S
C1085 C1079 1.429 . S
C1085 C1086 1.523 . S
C1086 C1067 1.368 . S
C1086 C1080 1.368 . S
C1086 C1085 1.523 . S
C1087 C1071 1.429 . S
C1087 C1083 1.429 . S
C1087 C1088 1.523 . S
C1088 C1072 1.368 . S
C1088 C1084 1.368 . S
C1088 C1087 1.523 . S
H1089 C1064 0.950 . S
H1090 C1066 0.950 . S
H1091 C1067 0.949 . S
H1092 C1069 0.950 . S
H1093 C1071 0.950 . S
C1094 C1095 1.349 . S
C1094 C1096 1.327 . S
C1094 H1119 0.950 . S
C1095 C1094 1.349 . S
C1095 C1111 1.349 . S
C1096 C1094 1.327 . S
C1096 C1115 1.429 . S
C1096 H1120 0.950 . S
C1097 C1114 1.574 . S
C1097 C1116 1.368 . S
C1097 H1121 0.949 . S
H1098 C1102 0.949 . S
C1099 C1100 1.349 . S
C1099 C1101 1.327 . S
C1099 H1122 0.950 . S
C1100 C1099 1.349 . S
C1100 C1112 1.349 . S
C1101 C1099 1.327 . S
C1101 C1117 1.429 . S
C1101 H1123 0.950 . S
C1102 H1098 0.949 . S
C1102 C1110 1.574 . S
C1102 C1118 1.368 . S
H1103 C1111 0.950 . S
H1104 C1109 0.950 . S
H1105 C1110 0.949 . S
H1106 C1112 0.950 . S
H1107 C1113 0.950 . S
H1108 C1114 0.949 . S
C1109 H1104 0.950 . S
C1109 C1111 1.327 . S
C1109 C1115 1.429 . S
C1110 C1102 1.574 . S
C1110 H1105 0.949 . S
C1110 C1116 1.368 . S
C1111 C1095 1.349 . S
C1111 H1103 0.950 . S
C1111 C1109 1.327 . S
C1112 C1100 1.349 . S
C1112 H1106 0.950 . S
C1112 C1113 1.327 . S
C1113 H1107 0.950 . S
C1113 C1112 1.327 . S
C1113 C1117 1.429 . S
C1114 C1097 1.574 . S
C1114 H1108 0.949 . S
C1114 C1118 1.368 . S
C1115 C1096 1.429 . S
C1115 C1109 1.429 . S
C1115 C1116 1.523 . S
C1116 C1097 1.368 . S
C1116 C1110 1.368 . S
C1116 C1115 1.523 . S
C1117 C1101 1.429 . S
C1117 C1113 1.429 . S
C1117 C1118 1.523 . S
C1118 C1102 1.368 . S
C1118 C1114 1.368 . S
C1118 C1117 1.523 . S
H1119 C1094 0.950 . S
H1120 C1096 0.950 . S
H1121 C1097 0.949 . S
H1122 C1099 0.950 . S
H1123 C1101 0.950 . S
C1124 C1125 1.349 . S
C1124 C1126 1.327 . S
C1124 H1149 0.950 . S
C1125 C1124 1.349 . S
C1125 C1141 1.349 . S
C1126 C1124 1.327 . S
C1126 C1145 1.429 . S
C1126 H1150 0.950 . S
C1127 C1144 1.574 . S
C1127 C1146 1.368 . S
C1127 H1151 0.949 . S
H1128 C1132 0.949 . S
C1129 C1130 1.349 . S
C1129 C1131 1.327 . S
C1129 H1152 0.950 . S
C1130 C1129 1.349 . S
C1130 C1142 1.349 . S
C1131 C1129 1.327 . S
C1131 C1147 1.429 . S
C1131 H1153 0.950 . S
C1132 H1128 0.949 . S
C1132 C1140 1.574 . S
C1132 C1148 1.368 . S
H1133 C1141 0.950 . S
H1134 C1139 0.950 . S
H1135 C1140 0.949 . S
H1136 C1142 0.950 . S
H1137 C1143 0.950 . S
H1138 C1144 0.949 . S
C1139 H1134 0.950 . S
C1139 C1141 1.327 . S
C1139 C1145 1.429 . S
C1140 C1132 1.574 . S
C1140 H1135 0.949 . S
C1140 C1146 1.368 . S
C1141 C1125 1.349 . S
C1141 H1133 0.950 . S
C1141 C1139 1.327 . S
C1142 C1130 1.349 . S
C1142 H1136 0.950 . S
C1142 C1143 1.327 . S
C1143 H1137 0.950 . S
C1143 C1142 1.327 . S
C1143 C1147 1.429 . S
C1144 C1127 1.574 . S
C1144 H1138 0.949 . S
C1144 C1148 1.368 . S
C1145 C1126 1.429 . S
C1145 C1139 1.429 . S
C1145 C1146 1.523 . S
C1146 C1127 1.368 . S
C1146 C1140 1.368 . S
C1146 C1145 1.523 . S
C1147 C1131 1.429 . S
C1147 C1143 1.429 . S
C1147 C1148 1.523 . S
C1148 C1132 1.368 . S
C1148 C1144 1.368 . S
C1148 C1147 1.523 . S
H1149 C1124 0.950 . S
H1150 C1126 0.950 . S
H1151 C1127 0.949 . S
H1152 C1129 0.950 . S
H1153 C1131 0.950 . S
C1154 C1155 1.349 . S
C1154 C1156 1.327 . S
C1154 H1179 0.950 . S
C1155 C1154 1.349 . S
C1155 C1171 1.349 . S
C1156 C1154 1.327 . S
C1156 C1175 1.429 . S
C1156 H1180 0.950 . S
C1157 C1174 1.574 . S
C1157 C1176 1.368 . S
C1157 H1181 0.949 . S
H1158 C1162 0.949 . S
C1159 C1160 1.349 . S
C1159 C1161 1.327 . S
C1159 H1182 0.950 . S
C1160 C1159 1.349 . S
C1160 C1172 1.349 . S
C1161 C1159 1.327 . S
C1161 C1177 1.429 . S
C1161 H1183 0.950 . S
C1162 H1158 0.949 . S
C1162 C1170 1.574 . S
C1162 C1178 1.368 . S
H1163 C1171 0.950 . S
H1164 C1169 0.950 . S
H1165 C1170 0.949 . S
H1166 C1172 0.950 . S
H1167 C1173 0.950 . S
H1168 C1174 0.949 . S
C1169 H1164 0.950 . S
C1169 C1171 1.327 . S
C1169 C1175 1.429 . S
C1170 C1162 1.574 . S
C1170 H1165 0.949 . S
C1170 C1176 1.368 . S
C1171 C1155 1.349 . S
C1171 H1163 0.950 . S
C1171 C1169 1.327 . S
C1172 C1160 1.349 . S
C1172 H1166 0.950 . S
C1172 C1173 1.327 . S
C1173 H1167 0.950 . S
C1173 C1172 1.327 . S
C1173 C1177 1.429 . S
C1174 C1157 1.574 . S
C1174 H1168 0.949 . S
C1174 C1178 1.368 . S
C1175 C1156 1.429 . S
C1175 C1169 1.429 . S
C1175 C1176 1.523 . S
C1176 C1157 1.368 . S
C1176 C1170 1.368 . S
C1176 C1175 1.523 . S
C1177 C1161 1.429 . S
C1177 C1173 1.429 . S
C1177 C1178 1.523 . S
C1178 C1162 1.368 . S
C1178 C1174 1.368 . S
C1178 C1177 1.523 . S
H1179 C1154 0.950 . S
H1180 C1156 0.950 . S
H1181 C1157 0.949 . S
H1182 C1159 0.950 . S
H1183 C1161 0.950 . S
C1184 C1185 1.349 . S
C1184 C1186 1.327 . S
C1184 H1209 0.950 . S
C1185 C1184 1.349 . S
C1185 C1201 1.349 . S
C1186 C1184 1.327 . S
C1186 C1205 1.429 . S
C1186 H1210 0.950 . S
C1187 C1204 1.574 . S
C1187 C1206 1.368 . S
C1187 H1211 0.949 . S
H1188 C1192 0.949 . S
C1189 C1190 1.349 . S
C1189 C1191 1.327 . S
C1189 H1212 0.950 . S
C1190 C1189 1.349 . S
C1190 C1202 1.349 . S
C1191 C1189 1.327 . S
C1191 C1207 1.429 . S
C1191 H1213 0.950 . S
C1192 H1188 0.949 . S
C1192 C1200 1.574 . S
C1192 C1208 1.368 . S
H1193 C1201 0.950 . S
H1194 C1199 0.950 . S
H1195 C1200 0.949 . S
H1196 C1202 0.950 . S
H1197 C1203 0.950 . S
H1198 C1204 0.949 . S
C1199 H1194 0.950 . S
C1199 C1201 1.327 . S
C1199 C1205 1.429 . S
C1200 C1192 1.574 . S
C1200 H1195 0.949 . S
C1200 C1206 1.368 . S
C1201 C1185 1.349 . S
C1201 H1193 0.950 . S
C1201 C1199 1.327 . S
C1202 C1190 1.349 . S
C1202 H1196 0.950 . S
C1202 C1203 1.327 . S
C1203 H1197 0.950 . S
C1203 C1202 1.327 . S
C1203 C1207 1.429 . S
C1204 C1187 1.574 . S
C1204 H1198 0.949 . S
C1204 C1208 1.368 . S
C1205 C1186 1.429 . S
C1205 C1199 1.429 . S
C1205 C1206 1.523 . S
C1206 C1187 1.368 . S
C1206 C1200 1.368 . S
C1206 C1205 1.523 . S
C1207 C1191 1.429 . S
C1207 C1203 1.429 . S
C1207 C1208 1.523 . S
C1208 C1192 1.368 . S
C1208 C1204 1.368 . S
C1208 C1207 1.523 . S
H1209 C1184 0.950 . S
H1210 C1186 0.950 . S
H1211 C1187 0.949 . S
H1212 C1189 0.950 . S
H1213 C1191 0.950 . S
C1214 C1215 1.349 . S
C1214 C1216 1.327 . S
C1214 H1239 0.950 . S
C1215 C1214 1.349 . S
C1215 C1231 1.349 . S
C1216 C1214 1.327 . S
C1216 C1235 1.429 . S
C1216 H1240 0.950 . S
C1217 C1234 1.574 . S
C1217 C1236 1.368 . S
C1217 H1241 0.949 . S
H1218 C1222 0.949 . S
C1219 C1220 1.349 . S
C1219 C1221 1.327 . S
C1219 H1242 0.950 . S
C1220 C1219 1.349 . S
C1220 C1232 1.349 . S
C1221 C1219 1.327 . S
C1221 C1237 1.429 . S
C1221 H1243 0.950 . S
C1222 H1218 0.949 . S
C1222 C1230 1.574 . S
C1222 C1238 1.368 . S
H1223 C1231 0.950 . S
H1224 C1229 0.950 . S
H1225 C1230 0.949 . S
H1226 C1232 0.950 . S
H1227 C1233 0.950 . S
H1228 C1234 0.949 . S
C1229 H1224 0.950 . S
C1229 C1231 1.327 . S
C1229 C1235 1.429 . S
C1230 C1222 1.574 . S
C1230 H1225 0.949 . S
C1230 C1236 1.368 . S
C1231 C1215 1.349 . S
C1231 H1223 0.950 . S
C1231 C1229 1.327 . S
C1232 C1220 1.349 . S
C1232 H1226 0.950 . S
C1232 C1233 1.327 . S
C1233 H1227 0.950 . S
C1233 C1232 1.327 . S
C1233 C1237 1.429 . S
C1234 C1217 1.574 . S
C1234 H1228 0.949 . S
C1234 C1238 1.368 . S
C1235 C1216 1.429 . S
C1235 C1229 1.429 . S
C1235 C1236 1.523 . S
C1236 C1217 1.368 . S
C1236 C1230 1.368 . S
C1236 C1235 1.523 . S
C1237 C1221 1.429 . S
C1237 C1233 1.429 . S
C1237 C1238 1.523 . S
C1238 C1222 1.368 . S
C1238 C1234 1.368 . S
C1238 C1237 1.523 . S
H1239 C1214 0.950 . S
H1240 C1216 0.950 . S
H1241 C1217 0.949 . S
H1242 C1219 0.950 . S
H1243 C1221 0.950 . S
C1244 C1245 1.349 . S
C1244 C1246 1.327 . S
C1244 H1269 0.950 . S
C1245 C1244 1.349 . S
C1245 C1261 1.349 . S
C1246 C1244 1.327 . S
C1246 C1265 1.429 . S
C1246 H1270 0.950 . S
C1247 C1264 1.574 . S
C1247 C1266 1.368 . S
C1247 H1271 0.949 . S
H1248 C1252 0.949 . S
C1249 C1250 1.349 . S
C1249 C1251 1.327 . S
C1249 H1272 0.950 . S
C1250 C1249 1.349 . S
C1250 C1262 1.349 . S
C1251 C1249 1.327 . S
C1251 C1267 1.429 . S
C1251 H1273 0.950 . S
C1252 H1248 0.949 . S
C1252 C1260 1.574 . S
C1252 C1268 1.368 . S
H1253 C1261 0.950 . S
H1254 C1259 0.950 . S
H1255 C1260 0.949 . S
H1256 C1262 0.950 . S
H1257 C1263 0.950 . S
H1258 C1264 0.949 . S
C1259 H1254 0.950 . S
C1259 C1261 1.327 . S
C1259 C1265 1.429 . S
C1260 C1252 1.574 . S
C1260 H1255 0.949 . S
C1260 C1266 1.368 . S
C1261 C1245 1.349 . S
C1261 H1253 0.950 . S
C1261 C1259 1.327 . S
C1262 C1250 1.349 . S
C1262 H1256 0.950 . S
C1262 C1263 1.327 . S
C1263 H1257 0.950 . S
C1263 C1262 1.327 . S
C1263 C1267 1.429 . S
C1264 C1247 1.574 . S
C1264 H1258 0.949 . S
C1264 C1268 1.368 . S
C1265 C1246 1.429 . S
C1265 C1259 1.429 . S
C1265 C1266 1.523 . S
C1266 C1247 1.368 . S
C1266 C1260 1.368 . S
C1266 C1265 1.523 . S
C1267 C1251 1.429 . S
C1267 C1263 1.429 . S
C1267 C1268 1.523 . S
C1268 C1252 1.368 . S
C1268 C1264 1.368 . S
C1268 C1267 1.523 . S
H1269 C1244 0.950 . S
H1270 C1246 0.950 . S
H1271 C1247 0.949 . S
H1272 C1249 0.950 . S
H1273 C1251 0.950 . S
C1274 C1275 1.349 . S
C1274 C1276 1.327 . S
C1274 H1299 0.950 . S
C1275 C1274 1.349 . S
C1275 C1291 1.349 . S
C1276 C1274 1.327 . S
C1276 C1295 1.429 . S
C1276 H1300 0.950 . S
C1277 C1294 1.574 . S
C1277 C1296 1.368 . S
C1277 H1301 0.949 . S
H1278 C1282 0.949 . S
C1279 C1280 1.349 . S
C1279 C1281 1.327 . S
C1279 H1302 0.950 . S
C1280 C1279 1.349 . S
C1280 C1292 1.349 . S
C1281 C1279 1.327 . S
C1281 C1297 1.429 . S
C1281 H1303 0.950 . S
C1282 H1278 0.949 . S
C1282 C1290 1.574 . S
C1282 C1298 1.368 . S
H1283 C1291 0.950 . S
H1284 C1289 0.950 . S
H1285 C1290 0.949 . S
H1286 C1292 0.950 . S
H1287 C1293 0.950 . S
H1288 C1294 0.949 . S
C1289 H1284 0.950 . S
C1289 C1291 1.327 . S
C1289 C1295 1.429 . S
C1290 C1282 1.574 . S
C1290 H1285 0.949 . S
C1290 C1296 1.368 . S
C1291 C1275 1.349 . S
C1291 H1283 0.950 . S
C1291 C1289 1.327 . S
C1292 C1280 1.349 . S
C1292 H1286 0.950 . S
C1292 C1293 1.327 . S
C1293 H1287 0.950 . S
C1293 C1292 1.327 . S
C1293 C1297 1.429 . S
C1294 C1277 1.574 . S
C1294 H1288 0.949 . S
C1294 C1298 1.368 . S
C1295 C1276 1.429 . S
C1295 C1289 1.429 . S
C1295 C1296 1.523 . S
C1296 C1277 1.368 . S
C1296 C1290 1.368 . S
C1296 C1295 1.523 . S
C1297 C1281 1.429 . S
C1297 C1293 1.429 . S
C1297 C1298 1.523 . S
C1298 C1282 1.368 . S
C1298 C1294 1.368 . S
C1298 C1297 1.523 . S
H1299 C1274 0.950 . S
H1300 C1276 0.950 . S
H1301 C1277 0.949 . S
H1302 C1279 0.950 . S
H1303 C1281 0.950 . S
C1304 C1305 1.349 . S
C1304 C1306 1.327 . S
C1304 H1329 0.950 . S
C1305 C1304 1.349 . S
C1305 C1321 1.349 . S
C1306 C1304 1.327 . S
C1306 C1325 1.429 . S
C1306 H1330 0.950 . S
C1307 C1324 1.574 . S
C1307 C1326 1.368 . S
C1307 H1331 0.949 . S
H1308 C1312 0.949 . S
C1309 C1310 1.349 . S
C1309 C1311 1.327 . S
C1309 H1332 0.950 . S
C1310 C1309 1.349 . S
C1310 C1322 1.349 . S
C1311 C1309 1.327 . S
C1311 C1327 1.429 . S
C1311 H1333 0.950 . S
C1312 H1308 0.949 . S
C1312 C1320 1.574 . S
C1312 C1328 1.368 . S
H1313 C1321 0.950 . S
H1314 C1319 0.950 . S
H1315 C1320 0.949 . S
H1316 C1322 0.950 . S
H1317 C1323 0.950 . S
H1318 C1324 0.949 . S
C1319 H1314 0.950 . S
C1319 C1321 1.327 . S
C1319 C1325 1.429 . S
C1320 C1312 1.574 . S
C1320 H1315 0.949 . S
C1320 C1326 1.368 . S
C1321 C1305 1.349 . S
C1321 H1313 0.950 . S
C1321 C1319 1.327 . S
C1322 C1310 1.349 . S
C1322 H1316 0.950 . S
C1322 C1323 1.327 . S
C1323 H1317 0.950 . S
C1323 C1322 1.327 . S
C1323 C1327 1.429 . S
C1324 C1307 1.574 . S
C1324 H1318 0.949 . S
C1324 C1328 1.368 . S
C1325 C1306 1.429 . S
C1325 C1319 1.429 . S
C1325 C1326 1.523 . S
C1326 C1307 1.368 . S
C1326 C1320 1.368 . S
C1326 C1325 1.523 . S
C1327 C1311 1.429 . S
C1327 C1323 1.429 . S
C1327 C1328 1.523 . S
C1328 C1312 1.368 . S
C1328 C1324 1.368 . S
C1328 C1327 1.523 . S
H1329 C1304 0.950 . S
H1330 C1306 0.950 . S
H1331 C1307 0.949 . S
H1332 C1309 0.950 . S
H1333 C1311 0.950 . S
C1334 C1335 1.349 . S
C1334 C1336 1.327 . S
C1334 H1359 0.950 . S
C1335 C1334 1.349 . S
C1335 C1351 1.349 . S
C1336 C1334 1.327 . S
C1336 C1355 1.429 . S
C1336 H1360 0.950 . S
C1337 C1354 1.574 . S
C1337 C1356 1.368 . S
C1337 H1361 0.949 . S
H1338 C1342 0.949 . S
C1339 C1340 1.349 . S
C1339 C1341 1.327 . S
C1339 H1362 0.950 . S
C1340 C1339 1.349 . S
C1340 C1352 1.349 . S
C1341 C1339 1.327 . S
C1341 C1357 1.429 . S
C1341 H1363 0.950 . S
C1342 H1338 0.949 . S
C1342 C1350 1.574 . S
C1342 C1358 1.368 . S
H1343 C1351 0.950 . S
H1344 C1349 0.950 . S
H1345 C1350 0.949 . S
H1346 C1352 0.950 . S
H1347 C1353 0.950 . S
H1348 C1354 0.949 . S
C1349 H1344 0.950 . S
C1349 C1351 1.327 . S
C1349 C1355 1.429 . S
C1350 C1342 1.574 . S
C1350 H1345 0.949 . S
C1350 C1356 1.368 . S
C1351 C1335 1.349 . S
C1351 H1343 0.950 . S
C1351 C1349 1.327 . S
C1352 C1340 1.349 . S
C1352 H1346 0.950 . S
C1352 C1353 1.327 . S
C1353 H1347 0.950 . S
C1353 C1352 1.327 . S
C1353 C1357 1.429 . S
C1354 C1337 1.574 . S
C1354 H1348 0.949 . S
C1354 C1358 1.368 . S
C1355 C1336 1.429 . S
C1355 C1349 1.429 . S
C1355 C1356 1.523 . S
C1356 C1337 1.368 . S
C1356 C1350 1.368 . S
C1356 C1355 1.523 . S
C1357 C1341 1.429 . S
C1357 C1353 1.429 . S
C1357 C1358 1.523 . S
C1358 C1342 1.368 . S
C1358 C1354 1.368 . S
C1358 C1357 1.523 . S
H1359 C1334 0.950 . S
H1360 C1336 0.950 . S
H1361 C1337 0.949 . S
H1362 C1339 0.950 . S
H1363 C1341 0.950 . S
C1364 C1365 1.349 . S
C1364 C1366 1.327 . S
C1364 H1389 0.950 . S
C1365 C1364 1.349 . S
C1365 C1381 1.349 . S
C1366 C1364 1.327 . S
C1366 C1385 1.429 . S
C1366 H1390 0.950 . S
C1367 C1384 1.574 . S
C1367 C1386 1.368 . S
C1367 H1391 0.949 . S
H1368 C1372 0.949 . S
C1369 C1370 1.349 . S
C1369 C1371 1.327 . S
C1369 H1392 0.950 . S
C1370 C1369 1.349 . S
C1370 C1382 1.349 . S
C1371 C1369 1.327 . S
C1371 C1387 1.429 . S
C1371 H1393 0.950 . S
C1372 H1368 0.949 . S
C1372 C1380 1.574 . S
C1372 C1388 1.368 . S
H1373 C1381 0.950 . S
H1374 C1379 0.950 . S
H1375 C1380 0.949 . S
H1376 C1382 0.950 . S
H1377 C1383 0.950 . S
H1378 C1384 0.949 . S
C1379 H1374 0.950 . S
C1379 C1381 1.327 . S
C1379 C1385 1.429 . S
C1380 C1372 1.574 . S
C1380 H1375 0.949 . S
C1380 C1386 1.368 . S
C1381 C1365 1.349 . S
C1381 H1373 0.950 . S
C1381 C1379 1.327 . S
C1382 C1370 1.349 . S
C1382 H1376 0.950 . S
C1382 C1383 1.327 . S
C1383 H1377 0.950 . S
C1383 C1382 1.327 . S
C1383 C1387 1.429 . S
C1384 C1367 1.574 . S
C1384 H1378 0.949 . S
C1384 C1388 1.368 . S
C1385 C1366 1.429 . S
C1385 C1379 1.429 . S
C1385 C1386 1.523 . S
C1386 C1367 1.368 . S
C1386 C1380 1.368 . S
C1386 C1385 1.523 . S
C1387 C1371 1.429 . S
C1387 C1383 1.429 . S
C1387 C1388 1.523 . S
C1388 C1372 1.368 . S
C1388 C1384 1.368 . S
C1388 C1387 1.523 . S
H1389 C1364 0.950 . S
H1390 C1366 0.950 . S
H1391 C1367 0.949 . S
H1392 C1369 0.950 . S
H1393 C1371 0.950 . S
C1394 C1395 1.349 . S
C1394 C1396 1.327 . S
C1394 H1419 0.950 . S
C1395 C1394 1.349 . S
C1395 C1411 1.349 . S
C1396 C1394 1.327 . S
C1396 C1415 1.429 . S
C1396 H1420 0.950 . S
C1397 C1414 1.574 . S
C1397 C1416 1.368 . S
C1397 H1421 0.949 . S
H1398 C1402 0.949 . S
C1399 C1400 1.349 . S
C1399 C1401 1.327 . S
C1399 H1422 0.950 . S
C1400 C1399 1.349 . S
C1400 C1412 1.349 . S
C1401 C1399 1.327 . S
C1401 C1417 1.429 . S
C1401 H1423 0.950 . S
C1402 H1398 0.949 . S
C1402 C1410 1.574 . S
C1402 C1418 1.368 . S
H1403 C1411 0.950 . S
H1404 C1409 0.950 . S
H1405 C1410 0.949 . S
H1406 C1412 0.950 . S
H1407 C1413 0.950 . S
H1408 C1414 0.949 . S
C1409 H1404 0.950 . S
C1409 C1411 1.327 . S
C1409 C1415 1.429 . S
C1410 C1402 1.574 . S
C1410 H1405 0.949 . S
C1410 C1416 1.368 . S
C1411 C1395 1.349 . S
C1411 H1403 0.950 . S
C1411 C1409 1.327 . S
C1412 C1400 1.349 . S
C1412 H1406 0.950 . S
C1412 C1413 1.327 . S
C1413 H1407 0.950 . S
C1413 C1412 1.327 . S
C1413 C1417 1.429 . S
C1414 C1397 1.574 . S
C1414 H1408 0.949 . S
C1414 C1418 1.368 . S
C1415 C1396 1.429 . S
C1415 C1409 1.429 . S
C1415 C1416 1.523 . S
C1416 C1397 1.368 . S
C1416 C1410 1.368 . S
C1416 C1415 1.523 . S
C1417 C1401 1.429 . S
C1417 C1413 1.429 . S
C1417 C1418 1.523 . S
C1418 C1402 1.368 . S
C1418 C1414 1.368 . S
C1418 C1417 1.523 . S
H1419 C1394 0.950 . S
H1420 C1396 0.950 . S
H1421 C1397 0.949 . S
H1422 C1399 0.950 . S
H1423 C1401 0.950 . S
C1424 C1425 1.349 . S
C1424 C1426 1.327 . S
C1424 H1449 0.950 . S
C1425 C1424 1.349 . S
C1425 C1441 1.349 . S
C1426 C1424 1.327 . S
C1426 C1445 1.429 . S
C1426 H1450 0.950 . S
C1427 C1444 1.574 . S
C1427 C1446 1.368 . S
C1427 H1451 0.949 . S
H1428 C1432 0.949 . S
C1429 C1430 1.349 . S
C1429 C1431 1.327 . S
C1429 H1452 0.950 . S
C1430 C1429 1.349 . S
C1430 C1442 1.349 . S
C1431 C1429 1.327 . S
C1431 C1447 1.429 . S
C1431 H1453 0.950 . S
C1432 H1428 0.949 . S
C1432 C1440 1.574 . S
C1432 C1448 1.368 . S
H1433 C1441 0.950 . S
H1434 C1439 0.950 . S
H1435 C1440 0.949 . S
H1436 C1442 0.950 . S
H1437 C1443 0.950 . S
H1438 C1444 0.949 . S
C1439 H1434 0.950 . S
C1439 C1441 1.327 . S
C1439 C1445 1.429 . S
C1440 C1432 1.574 . S
C1440 H1435 0.949 . S
C1440 C1446 1.368 . S
C1441 C1425 1.349 . S
C1441 H1433 0.950 . S
C1441 C1439 1.327 . S
C1442 C1430 1.349 . S
C1442 H1436 0.950 . S
C1442 C1443 1.327 . S
C1443 H1437 0.950 . S
C1443 C1442 1.327 . S
C1443 C1447 1.429 . S
C1444 C1427 1.574 . S
C1444 H1438 0.949 . S
C1444 C1448 1.368 . S
C1445 C1426 1.429 . S
C1445 C1439 1.429 . S
C1445 C1446 1.523 . S
C1446 C1427 1.368 . S
C1446 C1440 1.368 . S
C1446 C1445 1.523 . S
C1447 C1431 1.429 . S
C1447 C1443 1.429 . S
C1447 C1448 1.523 . S
C1448 C1432 1.368 . S
C1448 C1444 1.368 . S
C1448 C1447 1.523 . S
H1449 C1424 0.950 . S
H1450 C1426 0.950 . S
H1451 C1427 0.949 . S
H1452 C1429 0.950 . S
H1453 C1431 0.950 . S
C1454 C1455 1.349 . S
C1454 C1456 1.327 . S
C1454 H1479 0.950 . S
C1455 C1454 1.349 . S
C1455 C1471 1.349 . S
C1456 C1454 1.327 . S
C1456 C1475 1.429 . S
C1456 H1480 0.950 . S
C1457 C1474 1.574 . S
C1457 C1476 1.368 . S
C1457 H1481 0.949 . S
H1458 C1462 0.949 . S
C1459 C1460 1.349 . S
C1459 C1461 1.327 . S
C1459 H1482 0.950 . S
C1460 C1459 1.349 . S
C1460 C1472 1.349 . S
C1461 C1459 1.327 . S
C1461 C1477 1.429 . S
C1461 H1483 0.950 . S
C1462 H1458 0.949 . S
C1462 C1470 1.574 . S
C1462 C1478 1.368 . S
H1463 C1471 0.950 . S
H1464 C1469 0.950 . S
H1465 C1470 0.949 . S
H1466 C1472 0.950 . S
H1467 C1473 0.950 . S
H1468 C1474 0.949 . S
C1469 H1464 0.950 . S
C1469 C1471 1.327 . S
C1469 C1475 1.429 . S
C1470 C1462 1.574 . S
C1470 H1465 0.949 . S
C1470 C1476 1.368 . S
C1471 C1455 1.349 . S
C1471 H1463 0.950 . S
C1471 C1469 1.327 . S
C1472 C1460 1.349 . S
C1472 H1466 0.950 . S
C1472 C1473 1.327 . S
C1473 H1467 0.950 . S
C1473 C1472 1.327 . S
C1473 C1477 1.429 . S
C1474 C1457 1.574 . S
C1474 H1468 0.949 . S
C1474 C1478 1.368 . S
C1475 C1456 1.429 . S
C1475 C1469 1.429 . S
C1475 C1476 1.523 . S
C1476 C1457 1.368 . S
C1476 C1470 1.368 . S
C1476 C1475 1.523 . S
C1477 C1461 1.429 . S
C1477 C1473 1.429 . S
C1477 C1478 1.523 . S
C1478 C1462 1.368 . S
C1478 C1474 1.368 . S
C1478 C1477 1.523 . S
H1479 C1454 0.950 . S
H1480 C1456 0.950 . S
H1481 C1457 0.949 . S
H1482 C1459 0.950 . S
H1483 C1461 0.950 . S
C1484 C1485 1.349 . S
C1484 C1486 1.327 . S
C1484 H1509 0.950 . S
C1485 C1484 1.349 . S
C1485 C1501 1.349 . S
C1486 C1484 1.327 . S
C1486 C1505 1.429 . S
C1486 H1510 0.950 . S
C1487 C1504 1.574 . S
C1487 C1506 1.368 . S
C1487 H1511 0.949 . S
H1488 C1492 0.949 . S
C1489 C1490 1.349 . S
C1489 C1491 1.327 . S
C1489 H1512 0.950 . S
C1490 C1489 1.349 . S
C1490 C1502 1.349 . S
C1491 C1489 1.327 . S
C1491 C1507 1.429 . S
C1491 H1513 0.950 . S
C1492 H1488 0.949 . S
C1492 C1500 1.574 . S
C1492 C1508 1.368 . S
H1493 C1501 0.950 . S
H1494 C1499 0.950 . S
H1495 C1500 0.949 . S
H1496 C1502 0.950 . S
H1497 C1503 0.950 . S
H1498 C1504 0.949 . S
C1499 H1494 0.950 . S
C1499 C1501 1.327 . S
C1499 C1505 1.429 . S
C1500 C1492 1.574 . S
C1500 H1495 0.949 . S
C1500 C1506 1.368 . S
C1501 C1485 1.349 . S
C1501 H1493 0.950 . S
C1501 C1499 1.327 . S
C1502 C1490 1.349 . S
C1502 H1496 0.950 . S
C1502 C1503 1.327 . S
C1503 H1497 0.950 . S
C1503 C1502 1.327 . S
C1503 C1507 1.429 . S
C1504 C1487 1.574 . S
C1504 H1498 0.949 . S
C1504 C1508 1.368 . S
C1505 C1486 1.429 . S
C1505 C1499 1.429 . S
C1505 C1506 1.523 . S
C1506 C1487 1.368 . S
C1506 C1500 1.368 . S
C1506 C1505 1.523 . S
C1507 C1491 1.429 . S
C1507 C1503 1.429 . S
C1507 C1508 1.523 . S
C1508 C1492 1.368 . S
C1508 C1504 1.368 . S
C1508 C1507 1.523 . S
H1509 C1484 0.950 . S
H1510 C1486 0.950 . S
H1511 C1487 0.949 . S
H1512 C1489 0.950 . S
H1513 C1491 0.950 . S
C1514 C1515 1.349 . S
C1514 C1516 1.327 . S
C1514 H1539 0.950 . S
C1515 C1514 1.349 . S
C1515 C1531 1.349 . S
C1516 C1514 1.327 . S
C1516 C1535 1.429 . S
C1516 H1540 0.950 . S
C1517 C1534 1.574 . S
C1517 C1536 1.368 . S
C1517 H1541 0.949 . S
H1518 C1522 0.949 . S
C1519 C1520 1.349 . S
C1519 C1521 1.327 . S
C1519 H1542 0.950 . S
C1520 C1519 1.349 . S
C1520 C1532 1.349 . S
C1521 C1519 1.327 . S
C1521 C1537 1.429 . S
C1521 H1543 0.950 . S
C1522 H1518 0.949 . S
C1522 C1530 1.574 . S
C1522 C1538 1.368 . S
H1523 C1531 0.950 . S
H1524 C1529 0.950 . S
H1525 C1530 0.949 . S
H1526 C1532 0.950 . S
H1527 C1533 0.950 . S
H1528 C1534 0.949 . S
C1529 H1524 0.950 . S
C1529 C1531 1.327 . S
C1529 C1535 1.429 . S
C1530 C1522 1.574 . S
C1530 H1525 0.949 . S
C1530 C1536 1.368 . S
C1531 C1515 1.349 . S
C1531 H1523 0.950 . S
C1531 C1529 1.327 . S
C1532 C1520 1.349 . S
C1532 H1526 0.950 . S
C1532 C1533 1.327 . S
C1533 H1527 0.950 . S
C1533 C1532 1.327 . S
C1533 C1537 1.429 . S
C1534 C1517 1.574 . S
C1534 H1528 0.949 . S
C1534 C1538 1.368 . S
C1535 C1516 1.429 . S
C1535 C1529 1.429 . S
C1535 C1536 1.523 . S
C1536 C1517 1.368 . S
C1536 C1530 1.368 . S
C1536 C1535 1.523 . S
C1537 C1521 1.429 . S
C1537 C1533 1.429 . S
C1537 C1538 1.523 . S
C1538 C1522 1.368 . S
C1538 C1534 1.368 . S
C1538 C1537 1.523 . S
H1539 C1514 0.950 . S
H1540 C1516 0.950 . S
H1541 C1517 0.949 . S
H1542 C1519 0.950 . S
H1543 C1521 0.950 . S
C1544 C1545 1.349 . S
C1544 C1546 1.327 . S
C1544 H1569 0.950 . S
C1545 C1544 1.349 . S
C1545 C1561 1.349 . S
C1546 C1544 1.327 . S
C1546 C1565 1.429 . S
C1546 H1570 0.950 . S
C1547 C1564 1.574 . S
C1547 C1566 1.368 . S
C1547 H1571 0.949 . S
H1548 C1552 0.949 . S
C1549 C1550 1.349 . S
C1549 C1551 1.327 . S
C1549 H1572 0.950 . S
C1550 C1549 1.349 . S
C1550 C1562 1.349 . S
C1551 C1549 1.327 . S
C1551 C1567 1.429 . S
C1551 H1573 0.950 . S
C1552 H1548 0.949 . S
C1552 C1560 1.574 . S
C1552 C1568 1.368 . S
H1553 C1561 0.950 . S
H1554 C1559 0.950 . S
H1555 C1560 0.949 . S
H1556 C1562 0.950 . S
H1557 C1563 0.950 . S
H1558 C1564 0.949 . S
C1559 H1554 0.950 . S
C1559 C1561 1.327 . S
C1559 C1565 1.429 . S
C1560 C1552 1.574 . S
C1560 H1555 0.949 . S
C1560 C1566 1.368 . S
C1561 C1545 1.349 . S
C1561 H1553 0.950 . S
C1561 C1559 1.327 . S
C1562 C1550 1.349 . S
C1562 H1556 0.950 . S
C1562 C1563 1.327 . S
C1563 H1557 0.950 . S
C1563 C1562 1.327 . S
C1563 C1567 1.429 . S
C1564 C1547 1.574 . S
C1564 H1558 0.949 . S
C1564 C1568 1.368 . S
C1565 C1546 1.429 . S
C1565 C1559 1.429 . S
C1565 C1566 1.523 . S
C1566 C1547 1.368 . S
C1566 C1560 1.368 . S
C1566 C1565 1.523 . S
C1567 C1551 1.429 . S
C1567 C1563 1.429 . S
C1567 C1568 1.523 . S
C1568 C1552 1.368 . S
C1568 C1564 1.368 . S
C1568 C1567 1.523 . S
H1569 C1544 0.950 . S
H1570 C1546 0.950 . S
H1571 C1547 0.949 . S
H1572 C1549 0.950 . S
H1573 C1551 0.950 . S
C1574 C1575 1.349 . S
C1574 C1576 1.327 . S
C1574 H1599 0.950 . S
C1575 C1574 1.349 . S
C1575 C1591 1.349 . S
C1576 C1574 1.327 . S
C1576 C1595 1.429 . S
C1576 H1600 0.950 . S
C1577 C1594 1.574 . S
C1577 C1596 1.368 . S
C1577 H1601 0.949 . S
H1578 C1582 0.949 . S
C1579 C1580 1.349 . S
C1579 C1581 1.327 . S
C1579 H1602 0.950 . S
C1580 C1579 1.349 . S
C1580 C1592 1.349 . S
C1581 C1579 1.327 . S
C1581 C1597 1.429 . S
C1581 H1603 0.950 . S
C1582 H1578 0.949 . S
C1582 C1590 1.574 . S
C1582 C1598 1.368 . S
H1583 C1591 0.950 . S
H1584 C1589 0.950 . S
H1585 C1590 0.949 . S
H1586 C1592 0.950 . S
H1587 C1593 0.950 . S
H1588 C1594 0.949 . S
C1589 H1584 0.950 . S
C1589 C1591 1.327 . S
C1589 C1595 1.429 . S
C1590 C1582 1.574 . S
C1590 H1585 0.949 . S
C1590 C1596 1.368 . S
C1591 C1575 1.349 . S
C1591 H1583 0.950 . S
C1591 C1589 1.327 . S
C1592 C1580 1.349 . S
C1592 H1586 0.950 . S
C1592 C1593 1.327 . S
C1593 H1587 0.950 . S
C1593 C1592 1.327 . S
C1593 C1597 1.429 . S
C1594 C1577 1.574 . S
C1594 H1588 0.949 . S
C1594 C1598 1.368 . S
C1595 C1576 1.429 . S
C1595 C1589 1.429 . S
C1595 C1596 1.523 . S
C1596 C1577 1.368 . S
C1596 C1590 1.368 . S
C1596 C1595 1.523 . S
C1597 C1581 1.429 . S
C1597 C1593 1.429 . S
C1597 C1598 1.523 . S
C1598 C1582 1.368 . S
C1598 C1594 1.368 . S
C1598 C1597 1.523 . S
H1599 C1574 0.950 . S
H1600 C1576 0.950 . S
H1601 C1577 0.949 . S
H1602 C1579 0.950 . S
H1603 C1581 0.950 . S
C1604 C1605 1.349 . S
C1604 C1606 1.327 . S
C1604 H1629 0.950 . S
C1605 C1604 1.349 . S
C1605 C1621 1.349 . S
C1606 C1604 1.327 . S
C1606 C1625 1.429 . S
C1606 H1630 0.950 . S
C1607 C1624 1.574 . S
C1607 C1626 1.368 . S
C1607 H1631 0.949 . S
H1608 C1612 0.949 . S
C1609 C1610 1.349 . S
C1609 C1611 1.327 . S
C1609 H1632 0.950 . S
C1610 C1609 1.349 . S
C1610 C1622 1.349 . S
C1611 C1609 1.327 . S
C1611 C1627 1.429 . S
C1611 H1633 0.950 . S
C1612 H1608 0.949 . S
C1612 C1620 1.574 . S
C1612 C1628 1.368 . S
H1613 C1621 0.950 . S
H1614 C1619 0.950 . S
H1615 C1620 0.949 . S
H1616 C1622 0.950 . S
H1617 C1623 0.950 . S
H1618 C1624 0.949 . S
C1619 H1614 0.950 . S
C1619 C1621 1.327 . S
C1619 C1625 1.429 . S
C1620 C1612 1.574 . S
C1620 H1615 0.949 . S
C1620 C1626 1.368 . S
C1621 C1605 1.349 . S
C1621 H1613 0.950 . S
C1621 C1619 1.327 . S
C1622 C1610 1.349 . S
C1622 H1616 0.950 . S
C1622 C1623 1.327 . S
C1623 H1617 0.950 . S
C1623 C1622 1.327 . S
C1623 C1627 1.429 . S
C1624 C1607 1.574 . S
C1624 H1618 0.949 . S
C1624 C1628 1.368 . S
C1625 C1606 1.429 . S
C1625 C1619 1.429 . S
C1625 C1626 1.523 . S
C1626 C1607 1.368 . S
C1626 C1620 1.368 . S
C1626 C1625 1.523 . S
C1627 C1611 1.429 . S
C1627 C1623 1.429 . S
C1627 C1628 1.523 . S
C1628 C1612 1.368 . S
C1628 C1624 1.368 . S
C1628 C1627 1.523 . S
H1629 C1604 0.950 . S
H1630 C1606 0.950 . S
H1631 C1607 0.949 . S
H1632 C1609 0.950 . S
H1633 C1611 0.950 . S
C1634 C1635 1.349 . S
C1634 C1636 1.327 . S
C1634 H1659 0.950 . S
C1635 C1634 1.349 . S
C1635 C1651 1.349 . S
C1636 C1634 1.327 . S
C1636 C1655 1.429 . S
C1636 H1660 0.950 . S
C1637 C1654 1.574 . S
C1637 C1656 1.368 . S
C1637 H1661 0.949 . S
H1638 C1642 0.949 . S
C1639 C1640 1.349 . S
C1639 C1641 1.327 . S
C1639 H1662 0.950 . S
C1640 C1639 1.349 . S
C1640 C1652 1.349 . S
C1641 C1639 1.327 . S
C1641 C1657 1.429 . S
C1641 H1663 0.950 . S
C1642 H1638 0.949 . S
C1642 C1650 1.574 . S
C1642 C1658 1.368 . S
H1643 C1651 0.950 . S
H1644 C1649 0.950 . S
H1645 C1650 0.949 . S
H1646 C1652 0.950 . S
H1647 C1653 0.950 . S
H1648 C1654 0.949 . S
C1649 H1644 0.950 . S
C1649 C1651 1.327 . S
C1649 C1655 1.429 . S
C1650 C1642 1.574 . S
C1650 H1645 0.949 . S
C1650 C1656 1.368 . S
C1651 C1635 1.349 . S
C1651 H1643 0.950 . S
C1651 C1649 1.327 . S
C1652 C1640 1.349 . S
C1652 H1646 0.950 . S
C1652 C1653 1.327 . S
C1653 H1647 0.950 . S
C1653 C1652 1.327 . S
C1653 C1657 1.429 . S
C1654 C1637 1.574 . S
C1654 H1648 0.949 . S
C1654 C1658 1.368 . S
C1655 C1636 1.429 . S
C1655 C1649 1.429 . S
C1655 C1656 1.523 . S
C1656 C1637 1.368 . S
C1656 C1650 1.368 . S
C1656 C1655 1.523 . S
C1657 C1641 1.429 . S
C1657 C1653 1.429 . S
C1657 C1658 1.523 . S
C1658 C1642 1.368 . S
C1658 C1654 1.368 . S
C1658 C1657 1.523 . S
H1659 C1634 0.950 . S
H1660 C1636 0.950 . S
H1661 C1637 0.949 . S
H1662 C1639 0.950 . S
H1663 C1641 0.950 . S
C1664 C1665 1.349 . S
C1664 C1666 1.327 . S
C1664 H1689 0.950 . S
C1665 C1664 1.349 . S
C1665 C1681 1.349 . S
C1666 C1664 1.327 . S
C1666 C1685 1.429 . S
C1666 H1690 0.950 . S
C1667 C1684 1.574 . S
C1667 C1686 1.368 . S
C1667 H1691 0.949 . S
H1668 C1672 0.949 . S
C1669 C1670 1.349 . S
C1669 C1671 1.327 . S
C1669 H1692 0.950 . S
C1670 C1669 1.349 . S
C1670 C1682 1.349 . S
C1671 C1669 1.327 . S
C1671 C1687 1.429 . S
C1671 H1693 0.950 . S
C1672 H1668 0.949 . S
C1672 C1680 1.574 . S
C1672 C1688 1.368 . S
H1673 C1681 0.950 . S
H1674 C1679 0.950 . S
H1675 C1680 0.949 . S
H1676 C1682 0.950 . S
H1677 C1683 0.950 . S
H1678 C1684 0.949 . S
C1679 H1674 0.950 . S
C1679 C1681 1.327 . S
C1679 C1685 1.429 . S
C1680 C1672 1.574 . S
C1680 H1675 0.949 . S
C1680 C1686 1.368 . S
C1681 C1665 1.349 . S
C1681 H1673 0.950 . S
C1681 C1679 1.327 . S
C1682 C1670 1.349 . S
C1682 H1676 0.950 . S
C1682 C1683 1.327 . S
C1683 H1677 0.950 . S
C1683 C1682 1.327 . S
C1683 C1687 1.429 . S
C1684 C1667 1.574 . S
C1684 H1678 0.949 . S
C1684 C1688 1.368 . S
C1685 C1666 1.429 . S
C1685 C1679 1.429 . S
C1685 C1686 1.523 . S
C1686 C1667 1.368 . S
C1686 C1680 1.368 . S
C1686 C1685 1.523 . S
C1687 C1671 1.429 . S
C1687 C1683 1.429 . S
C1687 C1688 1.523 . S
C1688 C1672 1.368 . S
C1688 C1684 1.368 . S
C1688 C1687 1.523 . S
H1689 C1664 0.950 . S
H1690 C1666 0.950 . S
H1691 C1667 0.949 . S
H1692 C1669 0.950 . S
H1693 C1671 0.950 . S
C1694 C1695 1.349 . S
C1694 C1696 1.327 . S
C1694 H1719 0.950 . S
C1695 C1694 1.349 . S
C1695 C1711 1.349 . S
C1696 C1694 1.327 . S
C1696 C1715 1.429 . S
C1696 H1720 0.950 . S
C1697 C1714 1.574 . S
C1697 C1716 1.368 . S
C1697 H1721 0.949 . S
H1698 C1702 0.949 . S
C1699 C1700 1.349 . S
C1699 C1701 1.327 . S
C1699 H1722 0.950 . S
C1700 C1699 1.349 . S
C1700 C1712 1.349 . S
C1701 C1699 1.327 . S
C1701 C1717 1.429 . S
C1701 H1723 0.950 . S
C1702 H1698 0.949 . S
C1702 C1710 1.574 . S
C1702 C1718 1.368 . S
H1703 C1711 0.950 . S
H1704 C1709 0.950 . S
H1705 C1710 0.949 . S
H1706 C1712 0.950 . S
H1707 C1713 0.950 . S
H1708 C1714 0.949 . S
C1709 H1704 0.950 . S
C1709 C1711 1.327 . S
C1709 C1715 1.429 . S
C1710 C1702 1.574 . S
C1710 H1705 0.949 . S
C1710 C1716 1.368 . S
C1711 C1695 1.349 . S
C1711 H1703 0.950 . S
C1711 C1709 1.327 . S
C1712 C1700 1.349 . S
C1712 H1706 0.950 . S
C1712 C1713 1.327 . S
C1713 H1707 0.950 . S
C1713 C1712 1.327 . S
C1713 C1717 1.429 . S
C1714 C1697 1.574 . S
C1714 H1708 0.949 . S
C1714 C1718 1.368 . S
C1715 C1696 1.429 . S
C1715 C1709 1.429 . S
C1715 C1716 1.523 . S
C1716 C1697 1.368 . S
C1716 C1710 1.368 . S
C1716 C1715 1.523 . S
C1717 C1701 1.429 . S
C1717 C1713 1.429 . S
C1717 C1718 1.523 . S
C1718 C1702 1.368 . S
C1718 C1714 1.368 . S
C1718 C1717 1.523 . S
H1719 C1694 0.950 . S
H1720 C1696 0.950 . S
H1721 C1697 0.949 . S
H1722 C1699 0.950 . S
H1723 C1701 0.950 . S
C1724 C1725 1.349 . S
C1724 C1726 1.327 . S
C1724 H1749 0.950 . S
C1725 C1724 1.349 . S
C1725 C1741 1.349 . S
C1726 C1724 1.327 . S
C1726 C1745 1.429 . S
C1726 H1750 0.950 . S
C1727 C1744 1.574 . S
C1727 C1746 1.368 . S
C1727 H1751 0.949 . S
H1728 C1732 0.949 . S
C1729 C1730 1.349 . S
C1729 C1731 1.327 . S
C1729 H1752 0.950 . S
C1730 C1729 1.349 . S
C1730 C1742 1.349 . S
C1731 C1729 1.327 . S
C1731 C1747 1.429 . S
C1731 H1753 0.950 . S
C1732 H1728 0.949 . S
C1732 C1740 1.574 . S
C1732 C1748 1.368 . S
H1733 C1741 0.950 . S
H1734 C1739 0.950 . S
H1735 C1740 0.949 . S
H1736 C1742 0.950 . S
H1737 C1743 0.950 . S
H1738 C1744 0.949 . S
C1739 H1734 0.950 . S
C1739 C1741 1.327 . S
C1739 C1745 1.429 . S
C1740 C1732 1.574 . S
C1740 H1735 0.949 . S
C1740 C1746 1.368 . S
C1741 C1725 1.349 . S
C1741 H1733 0.950 . S
C1741 C1739 1.327 . S
C1742 C1730 1.349 . S
C1742 H1736 0.950 . S
C1742 C1743 1.327 . S
C1743 H1737 0.950 . S
C1743 C1742 1.327 . S
C1743 C1747 1.429 . S
C1744 C1727 1.574 . S
C1744 H1738 0.949 . S
C1744 C1748 1.368 . S
C1745 C1726 1.429 . S
C1745 C1739 1.429 . S
C1745 C1746 1.523 . S
C1746 C1727 1.368 . S
C1746 C1740 1.368 . S
C1746 C1745 1.523 . S
C1747 C1731 1.429 . S
C1747 C1743 1.429 . S
C1747 C1748 1.523 . S
C1748 C1732 1.368 . S
C1748 C1744 1.368 . S
C1748 C1747 1.523 . S
H1749 C1724 0.950 . S
H1750 C1726 0.950 . S
H1751 C1727 0.949 . S
H1752 C1729 0.950 . S
H1753 C1731 0.950 . S
C1754 C1755 1.349 . S
C1754 C1756 1.327 . S
C1754 H1779 0.950 . S
C1755 C1754 1.349 . S
C1755 C1771 1.349 . S
C1756 C1754 1.327 . S
C1756 C1775 1.429 . S
C1756 H1780 0.950 . S
C1757 C1774 1.574 . S
C1757 C1776 1.368 . S
C1757 H1781 0.949 . S
H1758 C1762 0.949 . S
C1759 C1760 1.349 . S
C1759 C1761 1.327 . S
C1759 H1782 0.950 . S
C1760 C1759 1.349 . S
C1760 C1772 1.349 . S
C1761 C1759 1.327 . S
C1761 C1777 1.429 . S
C1761 H1783 0.950 . S
C1762 H1758 0.949 . S
C1762 C1770 1.574 . S
C1762 C1778 1.368 . S
H1763 C1771 0.950 . S
H1764 C1769 0.950 . S
H1765 C1770 0.949 . S
H1766 C1772 0.950 . S
H1767 C1773 0.950 . S
H1768 C1774 0.949 . S
C1769 H1764 0.950 . S
C1769 C1771 1.327 . S
C1769 C1775 1.429 . S
C1770 C1762 1.574 . S
C1770 H1765 0.949 . S
C1770 C1776 1.368 . S
C1771 C1755 1.349 . S
C1771 H1763 0.950 . S
C1771 C1769 1.327 . S
C1772 C1760 1.349 . S
C1772 H1766 0.950 . S
C1772 C1773 1.327 . S
C1773 H1767 0.950 . S
C1773 C1772 1.327 . S
C1773 C1777 1.429 . S
C1774 C1757 1.574 . S
C1774 H1768 0.949 . S
C1774 C1778 1.368 . S
C1775 C1756 1.429 . S
C1775 C1769 1.429 . S
C1775 C1776 1.523 . S
C1776 C1757 1.368 . S
C1776 C1770 1.368 . S
C1776 C1775 1.523 . S
C1777 C1761 1.429 . S
C1777 C1773 1.429 . S
C1777 C1778 1.523 . S
C1778 C1762 1.368 . S
C1778 C1774 1.368 . S
C1778 C1777 1.523 . S
H1779 C1754 0.950 . S
H1780 C1756 0.950 . S
H1781 C1757 0.949 . S
H1782 C1759 0.950 . S
H1783 C1761 0.950 . S
C1784 C1785 1.349 . S
C1784 C1786 1.327 . S
C1784 H1809 0.950 . S
C1785 C1784 1.349 . S
C1785 C1801 1.349 . S
C1786 C1784 1.327 . S
C1786 C1805 1.429 . S
C1786 H1810 0.950 . S
C1787 C1804 1.574 . S
C1787 C1806 1.368 . S
C1787 H1811 0.949 . S
H1788 C1792 0.949 . S
C1789 C1790 1.349 . S
C1789 C1791 1.327 . S
C1789 H1812 0.950 . S
C1790 C1789 1.349 . S
C1790 C1802 1.349 . S
C1791 C1789 1.327 . S
C1791 C1807 1.429 . S
C1791 H1813 0.950 . S
C1792 H1788 0.949 . S
C1792 C1800 1.574 . S
C1792 C1808 1.368 . S
H1793 C1801 0.950 . S
H1794 C1799 0.950 . S
H1795 C1800 0.949 . S
H1796 C1802 0.950 . S
H1797 C1803 0.950 . S
H1798 C1804 0.949 . S
C1799 H1794 0.950 . S
C1799 C1801 1.327 . S
C1799 C1805 1.429 . S
C1800 C1792 1.574 . S
C1800 H1795 0.949 . S
C1800 C1806 1.368 . S
C1801 C1785 1.349 . S
C1801 H1793 0.950 . S
C1801 C1799 1.327 . S
C1802 C1790 1.349 . S
C1802 H1796 0.950 . S
C1802 C1803 1.327 . S
C1803 H1797 0.950 . S
C1803 C1802 1.327 . S
C1803 C1807 1.429 . S
C1804 C1787 1.574 . S
C1804 H1798 0.949 . S
C1804 C1808 1.368 . S
C1805 C1786 1.429 . S
C1805 C1799 1.429 . S
C1805 C1806 1.523 . S
C1806 C1787 1.368 . S
C1806 C1800 1.368 . S
C1806 C1805 1.523 . S
C1807 C1791 1.429 . S
C1807 C1803 1.429 . S
C1807 C1808 1.523 . S
C1808 C1792 1.368 . S
C1808 C1804 1.368 . S
C1808 C1807 1.523 . S
H1809 C1784 0.950 . S
H1810 C1786 0.950 . S
H1811 C1787 0.949 . S
H1812 C1789 0.950 . S
H1813 C1791 0.950 . S
C1814 C1815 1.349 . S
C1814 C1816 1.327 . S
C1814 H1839 0.950 . S
C1815 C1814 1.349 . S
C1815 C1831 1.349 . S
C1816 C1814 1.327 . S
C1816 C1835 1.429 . S
C1816 H1840 0.950 . S
C1817 C1834 1.574 . S
C1817 C1836 1.368 . S
C1817 H1841 0.949 . S
H1818 C1822 0.949 . S
C1819 C1820 1.349 . S
C1819 C1821 1.327 . S
C1819 H1842 0.950 . S
C1820 C1819 1.349 . S
C1820 C1832 1.349 . S
C1821 C1819 1.327 . S
C1821 C1837 1.429 . S
C1821 H1843 0.950 . S
C1822 H1818 0.949 . S
C1822 C1830 1.574 . S
C1822 C1838 1.368 . S
H1823 C1831 0.950 . S
H1824 C1829 0.950 . S
H1825 C1830 0.949 . S
H1826 C1832 0.950 . S
H1827 C1833 0.950 . S
H1828 C1834 0.949 . S
C1829 H1824 0.950 . S
C1829 C1831 1.327 . S
C1829 C1835 1.429 . S
C1830 C1822 1.574 . S
C1830 H1825 0.949 . S
C1830 C1836 1.368 . S
C1831 C1815 1.349 . S
C1831 H1823 0.950 . S
C1831 C1829 1.327 . S
C1832 C1820 1.349 . S
C1832 H1826 0.950 . S
C1832 C1833 1.327 . S
C1833 H1827 0.950 . S
C1833 C1832 1.327 . S
C1833 C1837 1.429 . S
C1834 C1817 1.574 . S
C1834 H1828 0.949 . S
C1834 C1838 1.368 . S
C1835 C1816 1.429 . S
C1835 C1829 1.429 . S
C1835 C1836 1.523 . S
C1836 C1817 1.368 . S
C1836 C1830 1.368 . S
C1836 C1835 1.523 . S
C1837 C1821 1.429 . S
C1837 C1833 1.429 . S
C1837 C1838 1.523 . S
C1838 C1822 1.368 . S
C1838 C1834 1.368 . S
C1838 C1837 1.523 . S
H1839 C1814 0.950 . S
H1840 C1816 0.950 . S
H1841 C1817 0.949 . S
H1842 C1819 0.950 . S
H1843 C1821 0.950 . S
C1844 C1845 1.349 . S
C1844 C1846 1.327 . S
C1844 H1869 0.950 . S
C1845 C1844 1.349 . S
C1845 C1861 1.349 . S
C1846 C1844 1.327 . S
C1846 C1865 1.429 . S
C1846 H1870 0.950 . S
C1847 C1864 1.574 . S
C1847 C1866 1.368 . S
C1847 H1871 0.949 . S
H1848 C1852 0.949 . S
C1849 C1850 1.349 . S
C1849 C1851 1.327 . S
C1849 H1872 0.950 . S
C1850 C1849 1.349 . S
C1850 C1862 1.349 . S
C1851 C1849 1.327 . S
C1851 C1867 1.429 . S
C1851 H1873 0.950 . S
C1852 H1848 0.949 . S
C1852 C1860 1.574 . S
C1852 C1868 1.368 . S
H1853 C1861 0.950 . S
H1854 C1859 0.950 . S
H1855 C1860 0.949 . S
H1856 C1862 0.950 . S
H1857 C1863 0.950 . S
H1858 C1864 0.949 . S
C1859 H1854 0.950 . S
C1859 C1861 1.327 . S
C1859 C1865 1.429 . S
C1860 C1852 1.574 . S
C1860 H1855 0.949 . S
C1860 C1866 1.368 . S
C1861 C1845 1.349 . S
C1861 H1853 0.950 . S
C1861 C1859 1.327 . S
C1862 C1850 1.349 . S
C1862 H1856 0.950 . S
C1862 C1863 1.327 . S
C1863 H1857 0.950 . S
C1863 C1862 1.327 . S
C1863 C1867 1.429 . S
C1864 C1847 1.574 . S
C1864 H1858 0.949 . S
C1864 C1868 1.368 . S
C1865 C1846 1.429 . S
C1865 C1859 1.429 . S
C1865 C1866 1.523 . S
C1866 C1847 1.368 . S
C1866 C1860 1.368 . S
C1866 C1865 1.523 . S
C1867 C1851 1.429 . S
C1867 C1863 1.429 . S
C1867 C1868 1.523 . S
C1868 C1852 1.368 . S
C1868 C1864 1.368 . S
C1868 C1867 1.523 . S
H1869 C1844 0.950 . S
H1870 C1846 0.950 . S
H1871 C1847 0.949 . S
H1872 C1849 0.950 . S
H1873 C1851 0.950 . S
C1874 C1875 1.349 . S
C1874 C1876 1.327 . S
C1874 H1899 0.950 . S
C1875 C1874 1.349 . S
C1875 C1891 1.349 . S
C1876 C1874 1.327 . S
C1876 C1895 1.429 . S
C1876 H1900 0.950 . S
C1877 C1894 1.574 . S
C1877 C1896 1.368 . S
C1877 H1901 0.949 . S
H1878 C1882 0.949 . S
C1879 C1880 1.349 . S
C1879 C1881 1.327 . S
C1879 H1902 0.950 . S
C1880 C1879 1.349 . S
C1880 C1892 1.349 . S
C1881 C1879 1.327 . S
C1881 C1897 1.429 . S
C1881 H1903 0.950 . S
C1882 H1878 0.949 . S
C1882 C1890 1.574 . S
C1882 C1898 1.368 . S
H1883 C1891 0.950 . S
H1884 C1889 0.950 . S
H1885 C1890 0.949 . S
H1886 C1892 0.950 . S
H1887 C1893 0.950 . S
H1888 C1894 0.949 . S
C1889 H1884 0.950 . S
C1889 C1891 1.327 . S
C1889 C1895 1.429 . S
C1890 C1882 1.574 . S
C1890 H1885 0.949 . S
C1890 C1896 1.368 . S
C1891 C1875 1.349 . S
C1891 H1883 0.950 . S
C1891 C1889 1.327 . S
C1892 C1880 1.349 . S
C1892 H1886 0.950 . S
C1892 C1893 1.327 . S
C1893 H1887 0.950 . S
C1893 C1892 1.327 . S
C1893 C1897 1.429 . S
C1894 C1877 1.574 . S
C1894 H1888 0.949 . S
C1894 C1898 1.368 . S
C1895 C1876 1.429 . S
C1895 C1889 1.429 . S
C1895 C1896 1.523 . S
C1896 C1877 1.368 . S
C1896 C1890 1.368 . S
C1896 C1895 1.523 . S
C1897 C1881 1.429 . S
C1897 C1893 1.429 . S
C1897 C1898 1.523 . S
C1898 C1882 1.368 . S
C1898 C1894 1.368 . S
C1898 C1897 1.523 . S
H1899 C1874 0.950 . S
H1900 C1876 0.950 . S
H1901 C1877 0.949 . S
H1902 C1879 0.950 . S
H1903 C1881 0.950 . S
C1904 C1905 1.349 . S
C1904 C1906 1.327 . S
C1904 H1929 0.950 . S
C1905 C1904 1.349 . S
C1905 C1921 1.349 . S
C1906 C1904 1.327 . S
C1906 C1925 1.429 . S
C1906 H1930 0.950 . S
C1907 C1924 1.574 . S
C1907 C1926 1.368 . S
C1907 H1931 0.949 . S
H1908 C1912 0.949 . S
C1909 C1910 1.349 . S
C1909 C1911 1.327 . S
C1909 H1932 0.950 . S
C1910 C1909 1.349 . S
C1910 C1922 1.349 . S
C1911 C1909 1.327 . S
C1911 C1927 1.429 . S
C1911 H1933 0.950 . S
C1912 H1908 0.949 . S
C1912 C1920 1.574 . S
C1912 C1928 1.368 . S
H1913 C1921 0.950 . S
H1914 C1919 0.950 . S
H1915 C1920 0.949 . S
H1916 C1922 0.950 . S
H1917 C1923 0.950 . S
H1918 C1924 0.949 . S
C1919 H1914 0.950 . S
C1919 C1921 1.327 . S
C1919 C1925 1.429 . S
C1920 C1912 1.574 . S
C1920 H1915 0.949 . S
C1920 C1926 1.368 . S
C1921 C1905 1.349 . S
C1921 H1913 0.950 . S
C1921 C1919 1.327 . S
C1922 C1910 1.349 . S
C1922 H1916 0.950 . S
C1922 C1923 1.327 . S
C1923 H1917 0.950 . S
C1923 C1922 1.327 . S
C1923 C1927 1.429 . S
C1924 C1907 1.574 . S
C1924 H1918 0.949 . S
C1924 C1928 1.368 . S
C1925 C1906 1.429 . S
C1925 C1919 1.429 . S
C1925 C1926 1.523 . S
C1926 C1907 1.368 . S
C1926 C1920 1.368 . S
C1926 C1925 1.523 . S
C1927 C1911 1.429 . S
C1927 C1923 1.429 . S
C1927 C1928 1.523 . S
C1928 C1912 1.368 . S
C1928 C1924 1.368 . S
C1928 C1927 1.523 . S
H1929 C1904 0.950 . S
H1930 C1906 0.950 . S
H1931 C1907 0.949 . S
H1932 C1909 0.950 . S
H1933 C1911 0.950 . S
C1934 C1935 1.349 . S
C1934 C1936 1.327 . S
C1934 H1959 0.950 . S
C1935 C1934 1.349 . S
C1935 C1951 1.349 . S
C1936 C1934 1.327 . S
C1936 C1955 1.429 . S
C1936 H1960 0.950 . S
C1937 C1954 1.574 . S
C1937 C1956 1.368 . S
C1937 H1961 0.949 . S
H1938 C1942 0.949 . S
C1939 C1940 1.349 . S
C1939 C1941 1.327 . S
C1939 H1962 0.950 . S
C1940 C1939 1.349 . S
C1940 C1952 1.349 . S
C1941 C1939 1.327 . S
C1941 C1957 1.429 . S
C1941 H1963 0.950 . S
C1942 H1938 0.949 . S
C1942 C1950 1.574 . S
C1942 C1958 1.368 . S
H1943 C1951 0.950 . S
H1944 C1949 0.950 . S
H1945 C1950 0.949 . S
H1946 C1952 0.950 . S
H1947 C1953 0.950 . S
H1948 C1954 0.949 . S
C1949 H1944 0.950 . S
C1949 C1951 1.327 . S
C1949 C1955 1.429 . S
C1950 C1942 1.574 . S
C1950 H1945 0.949 . S
C1950 C1956 1.368 . S
C1951 C1935 1.349 . S
C1951 H1943 0.950 . S
C1951 C1949 1.327 . S
C1952 C1940 1.349 . S
C1952 H1946 0.950 . S
C1952 C1953 1.327 . S
C1953 H1947 0.950 . S
C1953 C1952 1.327 . S
C1953 C1957 1.429 . S
C1954 C1937 1.574 . S
C1954 H1948 0.949 . S
C1954 C1958 1.368 . S
C1955 C1936 1.429 . S
C1955 C1949 1.429 . S
C1955 C1956 1.523 . S
C1956 C1937 1.368 . S
C1956 C1950 1.368 . S
C1956 C1955 1.523 . S
C1957 C1941 1.429 . S
C1957 C1953 1.429 . S
C1957 C1958 1.523 . S
C1958 C1942 1.368 . S
C1958 C1954 1.368 . S
C1958 C1957 1.523 . S
H1959 C1934 0.950 . S
H1960 C1936 0.950 . S
H1961 C1937 0.949 . S
H1962 C1939 0.950 . S
H1963 C1941 0.950 . S
C1964 C1965 1.349 . S
C1964 C1966 1.327 . S
C1964 H1989 0.950 . S
C1965 C1964 1.349 . S
C1965 C1981 1.349 . S
C1966 C1964 1.327 . S
C1966 C1985 1.429 . S
C1966 H1990 0.950 . S
C1967 C1984 1.574 . S
C1967 C1986 1.368 . S
C1967 H1991 0.949 . S
H1968 C1972 0.949 . S
C1969 C1970 1.349 . S
C1969 C1971 1.327 . S
C1969 H1992 0.950 . S
C1970 C1969 1.349 . S
C1970 C1982 1.349 . S
C1971 C1969 1.327 . S
C1971 C1987 1.429 . S
C1971 H1993 0.950 . S
C1972 H1968 0.949 . S
C1972 C1980 1.574 . S
C1972 C1988 1.368 . S
H1973 C1981 0.950 . S
H1974 C1979 0.950 . S
H1975 C1980 0.949 . S
H1976 C1982 0.950 . S
H1977 C1983 0.950 . S
H1978 C1984 0.949 . S
C1979 H1974 0.950 . S
C1979 C1981 1.327 . S
C1979 C1985 1.429 . S
C1980 C1972 1.574 . S
C1980 H1975 0.949 . S
C1980 C1986 1.368 . S
C1981 C1965 1.349 . S
C1981 H1973 0.950 . S
C1981 C1979 1.327 . S
C1982 C1970 1.349 . S
C1982 H1976 0.950 . S
C1982 C1983 1.327 . S
C1983 H1977 0.950 . S
C1983 C1982 1.327 . S
C1983 C1987 1.429 . S
C1984 C1967 1.574 . S
C1984 H1978 0.949 . S
C1984 C1988 1.368 . S
C1985 C1966 1.429 . S
C1985 C1979 1.429 . S
C1985 C1986 1.523 . S
C1986 C1967 1.368 . S
C1986 C1980 1.368 . S
C1986 C1985 1.523 . S
C1987 C1971 1.429 . S
C1987 C1983 1.429 . S
C1987 C1988 1.523 . S
C1988 C1972 1.368 . S
C1988 C1984 1.368 . S
C1988 C1987 1.523 . S
H1989 C1964 0.950 . S
H1990 C1966 0.950 . S
H1991 C1967 0.949 . S
H1992 C1969 0.950 . S
H1993 C1971 0.950 . S
C1994 C1995 1.349 . S
C1994 C1996 1.327 . S
C1994 H2019 0.950 . S
C1995 C1994 1.349 . S
C1995 C2011 1.349 . S
C1996 C1994 1.327 . S
C1996 C2015 1.429 . S
C1996 H2020 0.950 . S
C1997 C2014 1.574 . S
C1997 C2016 1.368 . S
C1997 H2021 0.949 . S
H1998 C2002 0.949 . S
C1999 C2000 1.349 . S
C1999 C2001 1.327 . S
C1999 H2022 0.950 . S
C2000 C1999 1.349 . S
C2000 C2012 1.349 . S
C2001 C1999 1.327 . S
C2001 C2017 1.429 . S
C2001 H2023 0.950 . S
C2002 H1998 0.949 . S
C2002 C2010 1.574 . S
C2002 C2018 1.368 . S
H2003 C2011 0.950 . S
H2004 C2009 0.950 . S
H2005 C2010 0.949 . S
H2006 C2012 0.950 . S
H2007 C2013 0.950 . S
H2008 C2014 0.949 . S
C2009 H2004 0.950 . S
C2009 C2011 1.327 . S
C2009 C2015 1.429 . S
C2010 C2002 1.574 . S
C2010 H2005 0.949 . S
C2010 C2016 1.368 . S
C2011 C1995 1.349 . S
C2011 H2003 0.950 . S
C2011 C2009 1.327 . S
C2012 C2000 1.349 . S
C2012 H2006 0.950 . S
C2012 C2013 1.327 . S
C2013 H2007 0.950 . S
C2013 C2012 1.327 . S
C2013 C2017 1.429 . S
C2014 C1997 1.574 . S
C2014 H2008 0.949 . S
C2014 C2018 1.368 . S
C2015 C1996 1.429 . S
C2015 C2009 1.429 . S
C2015 C2016 1.523 . S
C2016 C1997 1.368 . S
C2016 C2010 1.368 . S
C2016 C2015 1.523 . S
C2017 C2001 1.429 . S
C2017 C2013 1.429 . S
C2017 C2018 1.523 . S
C2018 C2002 1.368 . S
C2018 C2014 1.368 . S
C2018 C2017 1.523 . S
H2019 C1994 0.950 . S
H2020 C1996 0.950 . S
H2021 C1997 0.949 . S
H2022 C1999 0.950 . S
H2023 C2001 0.950 . S
C2024 C2025 1.349 . S
C2024 C2026 1.327 . S
C2024 H2049 0.950 . S
C2025 C2024 1.349 . S
C2025 C2041 1.349 . S
C2026 C2024 1.327 . S
C2026 C2045 1.429 . S
C2026 H2050 0.950 . S
C2027 C2044 1.574 . S
C2027 C2046 1.368 . S
C2027 H2051 0.949 . S
H2028 C2032 0.949 . S
C2029 C2030 1.349 . S
C2029 C2031 1.327 . S
C2029 H2052 0.950 . S
C2030 C2029 1.349 . S
C2030 C2042 1.349 . S
C2031 C2029 1.327 . S
C2031 C2047 1.429 . S
C2031 H2053 0.950 . S
C2032 H2028 0.949 . S
C2032 C2040 1.574 . S
C2032 C2048 1.368 . S
H2033 C2041 0.950 . S
H2034 C2039 0.950 . S
H2035 C2040 0.949 . S
H2036 C2042 0.950 . S
H2037 C2043 0.950 . S
H2038 C2044 0.949 . S
C2039 H2034 0.950 . S
C2039 C2041 1.327 . S
C2039 C2045 1.429 . S
C2040 C2032 1.574 . S
C2040 H2035 0.949 . S
C2040 C2046 1.368 . S
C2041 C2025 1.349 . S
C2041 H2033 0.950 . S
C2041 C2039 1.327 . S
C2042 C2030 1.349 . S
C2042 H2036 0.950 . S
C2042 C2043 1.327 . S
C2043 H2037 0.950 . S
C2043 C2042 1.327 . S
C2043 C2047 1.429 . S
C2044 C2027 1.574 . S
C2044 H2038 0.949 . S
C2044 C2048 1.368 . S
C2045 C2026 1.429 . S
C2045 C2039 1.429 . S
C2045 C2046 1.523 . S
C2046 C2027 1.368 . S
C2046 C2040 1.368 . S
C2046 C2045 1.523 . S
C2047 C2031 1.429 . S
C2047 C2043 1.429 . S
C2047 C2048 1.523 . S
C2048 C2032 1.368 . S
C2048 C2044 1.368 . S
C2048 C2047 1.523 . S
H2049 C2024 0.950 . S
H2050 C2026 0.950 . S
H2051 C2027 0.949 . S
H2052 C2029 0.950 . S
H2053 C2031 0.950 . S
C2054 C2055 1.349 . S
C2054 C2056 1.327 . S
C2054 H2079 0.950 . S
C2055 C2054 1.349 . S
C2055 C2071 1.349 . S
C2056 C2054 1.327 . S
C2056 C2075 1.429 . S
C2056 H2080 0.950 . S
C2057 C2074 1.574 . S
C2057 C2076 1.368 . S
C2057 H2081 0.949 . S
H2058 C2062 0.949 . S
C2059 C2060 1.349 . S
C2059 C2061 1.327 . S
C2059 H2082 0.950 . S
C2060 C2059 1.349 . S
C2060 C2072 1.349 . S
C2061 C2059 1.327 . S
C2061 C2077 1.429 . S
C2061 H2083 0.950 . S
C2062 H2058 0.949 . S
C2062 C2070 1.574 . S
C2062 C2078 1.368 . S
H2063 C2071 0.950 . S
H2064 C2069 0.950 . S
H2065 C2070 0.949 . S
H2066 C2072 0.950 . S
H2067 C2073 0.950 . S
H2068 C2074 0.949 . S
C2069 H2064 0.950 . S
C2069 C2071 1.327 . S
C2069 C2075 1.429 . S
C2070 C2062 1.574 . S
C2070 H2065 0.949 . S
C2070 C2076 1.368 . S
C2071 C2055 1.349 . S
C2071 H2063 0.950 . S
C2071 C2069 1.327 . S
C2072 C2060 1.349 . S
C2072 H2066 0.950 . S
C2072 C2073 1.327 . S
C2073 H2067 0.950 . S
C2073 C2072 1.327 . S
C2073 C2077 1.429 . S
C2074 C2057 1.574 . S
C2074 H2068 0.949 . S
C2074 C2078 1.368 . S
C2075 C2056 1.429 . S
C2075 C2069 1.429 . S
C2075 C2076 1.523 . S
C2076 C2057 1.368 . S
C2076 C2070 1.368 . S
C2076 C2075 1.523 . S
C2077 C2061 1.429 . S
C2077 C2073 1.429 . S
C2077 C2078 1.523 . S
C2078 C2062 1.368 . S
C2078 C2074 1.368 . S
C2078 C2077 1.523 . S
H2079 C2054 0.950 . S
H2080 C2056 0.950 . S
H2081 C2057 0.949 . S
H2082 C2059 0.950 . S
H2083 C2061 0.950 . S
C2084 C2085 1.349 . S
C2084 C2086 1.327 . S
C2084 H2109 0.950 . S
C2085 C2084 1.349 . S
C2085 C2101 1.349 . S
C2086 C2084 1.327 . S
C2086 C2105 1.429 . S
C2086 H2110 0.950 . S
C2087 C2104 1.574 . S
C2087 C2106 1.368 . S
C2087 H2111 0.949 . S
H2088 C2092 0.949 . S
C2089 C2090 1.349 . S
C2089 C2091 1.327 . S
C2089 H2112 0.950 . S
C2090 C2089 1.349 . S
C2090 C2102 1.349 . S
C2091 C2089 1.327 . S
C2091 C2107 1.429 . S
C2091 H2113 0.950 . S
C2092 H2088 0.949 . S
C2092 C2100 1.574 . S
C2092 C2108 1.368 . S
H2093 C2101 0.950 . S
H2094 C2099 0.950 . S
H2095 C2100 0.949 . S
H2096 C2102 0.950 . S
H2097 C2103 0.950 . S
H2098 C2104 0.949 . S
C2099 H2094 0.950 . S
C2099 C2101 1.327 . S
C2099 C2105 1.429 . S
C2100 C2092 1.574 . S
C2100 H2095 0.949 . S
C2100 C2106 1.368 . S
C2101 C2085 1.349 . S
C2101 H2093 0.950 . S
C2101 C2099 1.327 . S
C2102 C2090 1.349 . S
C2102 H2096 0.950 . S
C2102 C2103 1.327 . S
C2103 H2097 0.950 . S
C2103 C2102 1.327 . S
C2103 C2107 1.429 . S
C2104 C2087 1.574 . S
C2104 H2098 0.949 . S
C2104 C2108 1.368 . S
C2105 C2086 1.429 . S
C2105 C2099 1.429 . S
C2105 C2106 1.523 . S
C2106 C2087 1.368 . S
C2106 C2100 1.368 . S
C2106 C2105 1.523 . S
C2107 C2091 1.429 . S
C2107 C2103 1.429 . S
C2107 C2108 1.523 . S
C2108 C2092 1.368 . S
C2108 C2104 1.368 . S
C2108 C2107 1.523 . S
H2109 C2084 0.950 . S
H2110 C2086 0.950 . S
H2111 C2087 0.949 . S
H2112 C2089 0.950 . S
H2113 C2091 0.950 . S
C2114 C2115 1.349 . S
C2114 C2116 1.327 . S
C2114 H2139 0.950 . S
C2115 C2114 1.349 . S
C2115 C2131 1.349 . S
C2116 C2114 1.327 . S
C2116 C2135 1.429 . S
C2116 H2140 0.950 . S
C2117 C2134 1.574 . S
C2117 C2136 1.368 . S
C2117 H2141 0.949 . S
H2118 C2122 0.949 . S
C2119 C2120 1.349 . S
C2119 C2121 1.327 . S
C2119 H2142 0.950 . S
C2120 C2119 1.349 . S
C2120 C2132 1.349 . S
C2121 C2119 1.327 . S
C2121 C2137 1.429 . S
C2121 H2143 0.950 . S
C2122 H2118 0.949 . S
C2122 C2130 1.574 . S
C2122 C2138 1.368 . S
H2123 C2131 0.950 . S
H2124 C2129 0.950 . S
H2125 C2130 0.949 . S
H2126 C2132 0.950 . S
H2127 C2133 0.950 . S
H2128 C2134 0.949 . S
C2129 H2124 0.950 . S
C2129 C2131 1.327 . S
C2129 C2135 1.429 . S
C2130 C2122 1.574 . S
C2130 H2125 0.949 . S
C2130 C2136 1.368 . S
C2131 C2115 1.349 . S
C2131 H2123 0.950 . S
C2131 C2129 1.327 . S
C2132 C2120 1.349 . S
C2132 H2126 0.950 . S
C2132 C2133 1.327 . S
C2133 H2127 0.950 . S
C2133 C2132 1.327 . S
C2133 C2137 1.429 . S
C2134 C2117 1.574 . S
C2134 H2128 0.949 . S
C2134 C2138 1.368 . S
C2135 C2116 1.429 . S
C2135 C2129 1.429 . S
C2135 C2136 1.523 . S
C2136 C2117 1.368 . S
C2136 C2130 1.368 . S
C2136 C2135 1.523 . S
C2137 C2121 1.429 . S
C2137 C2133 1.429 . S
C2137 C2138 1.523 . S
C2138 C2122 1.368 . S
C2138 C2134 1.368 . S
C2138 C2137 1.523 . S
H2139 C2114 0.950 . S
H2140 C2116 0.950 . S
H2141 C2117 0.949 . S
H2142 C2119 0.950 . S
H2143 C2121 0.950 . S
C2144 C2145 1.349 . S
C2144 C2146 1.327 . S
C2144 H2169 0.950 . S
C2145 C2144 1.349 . S
C2145 C2161 1.349 . S
C2146 C2144 1.327 . S
C2146 C2165 1.429 . S
C2146 H2170 0.950 . S
C2147 C2164 1.574 1_565 S
C2147 C2166 1.368 . S
C2147 H2171 0.949 . S
H2148 C2152 0.949 . S
C2149 C2150 1.349 . S
C2149 C2151 1.327 . S
C2149 H2172 0.950 . S
C2150 C2149 1.349 . S
C2150 C2162 1.349 . S
C2151 C2149 1.327 . S
C2151 C2167 1.429 . S
C2151 H2173 0.950 . S
C2152 H2148 0.949 . S
C2152 C2160 1.574 1_545 S
C2152 C2168 1.368 . S
H2153 C2161 0.950 . S
H2154 C2159 0.950 . S
H2155 C2160 0.949 . S
H2156 C2162 0.950 . S
H2157 C2163 0.950 . S
H2158 C2164 0.949 . S
C2159 H2154 0.950 . S
C2159 C2161 1.327 . S
C2159 C2165 1.429 . S
C2160 C2152 1.574 1_565 S
C2160 H2155 0.949 . S
C2160 C2166 1.368 . S
C2161 C2145 1.349 . S
C2161 H2153 0.950 . S
C2161 C2159 1.327 . S
C2162 C2150 1.349 . S
C2162 H2156 0.950 . S
C2162 C2163 1.327 . S
C2163 H2157 0.950 . S
C2163 C2162 1.327 . S
C2163 C2167 1.429 . S
C2164 C2147 1.574 1_545 S
C2164 H2158 0.949 . S
C2164 C2168 1.368 . S
C2165 C2146 1.429 . S
C2165 C2159 1.429 . S
C2165 C2166 1.523 . S
C2166 C2147 1.368 . S
C2166 C2160 1.368 . S
C2166 C2165 1.523 . S
C2167 C2151 1.429 . S
C2167 C2163 1.429 . S
C2167 C2168 1.523 . S
C2168 C2152 1.368 . S
C2168 C2164 1.368 . S
C2168 C2167 1.523 . S
H2169 C2144 0.950 . S
H2170 C2146 0.950 . S
H2171 C2147 0.949 . S
H2172 C2149 0.950 . S
H2173 C2151 0.950 . S
C2174 C2175 1.349 . S
C2174 C2176 1.327 . S
C2174 H2199 0.950 . S
C2175 C2174 1.349 . S
C2175 C2191 1.349 . S
C2176 C2174 1.327 . S
C2176 C2195 1.429 . S
C2176 H2200 0.950 . S
C2177 C2194 1.574 1_655 S
C2177 C2196 1.368 . S
C2177 H2201 0.949 . S
H2178 C2182 0.949 . S
C2179 C2180 1.349 . S
C2179 C2181 1.327 . S
C2179 H2202 0.950 . S
C2180 C2179 1.349 . S
C2180 C2192 1.349 . S
C2181 C2179 1.327 . S
C2181 C2197 1.429 . S
C2181 H2203 0.950 . S
C2182 H2178 0.949 . S
C2182 C2190 1.574 1_455 S
C2182 C2198 1.368 . S
H2183 C2191 0.950 . S
H2184 C2189 0.950 . S
H2185 C2190 0.949 . S
H2186 C2192 0.950 . S
H2187 C2193 0.950 . S
H2188 C2194 0.949 . S
C2189 H2184 0.950 . S
C2189 C2191 1.327 . S
C2189 C2195 1.429 . S
C2190 C2182 1.574 1_655 S
C2190 H2185 0.949 . S
C2190 C2196 1.368 . S
C2191 C2175 1.349 . S
C2191 H2183 0.950 . S
C2191 C2189 1.327 . S
C2192 C2180 1.349 . S
C2192 H2186 0.950 . S
C2192 C2193 1.327 . S
C2193 H2187 0.950 . S
C2193 C2192 1.327 . S
C2193 C2197 1.429 . S
C2194 C2177 1.574 1_455 S
C2194 H2188 0.949 . S
C2194 C2198 1.368 . S
C2195 C2176 1.429 . S
C2195 C2189 1.429 . S
C2195 C2196 1.523 . S
C2196 C2177 1.368 . S
C2196 C2190 1.368 . S
C2196 C2195 1.523 . S
C2197 C2181 1.429 . S
C2197 C2193 1.429 . S
C2197 C2198 1.523 . S
C2198 C2182 1.368 . S
C2198 C2194 1.368 . S
C2198 C2197 1.523 . S
H2199 C2174 0.950 . S
H2200 C2176 0.950 . S
H2201 C2177 0.949 . S
H2202 C2179 0.950 . S
H2203 C2181 0.950 . S
C2204 C2205 1.349 . S
C2204 C2206 1.327 . S
C2204 H2229 0.950 . S
C2205 C2204 1.349 . S
C2205 C2221 1.349 . S
C2206 C2204 1.327 . S
C2206 C2225 1.429 . S
C2206 H2230 0.950 . S
C2207 C2224 1.574 1_545 S
C2207 C2226 1.368 . S
C2207 H2231 0.949 . S
H2208 C2212 0.949 . S
C2209 C2210 1.349 . S
C2209 C2211 1.327 . S
C2209 H2232 0.950 . S
C2210 C2209 1.349 . S
C2210 C2222 1.349 . S
C2211 C2209 1.327 . S
C2211 C2227 1.429 . S
C2211 H2233 0.950 . S
C2212 H2208 0.949 . S
C2212 C2220 1.574 1_565 S
C2212 C2228 1.368 . S
H2213 C2221 0.950 . S
H2214 C2219 0.950 . S
H2215 C2220 0.949 . S
H2216 C2222 0.950 . S
H2217 C2223 0.950 . S
H2218 C2224 0.949 . S
C2219 H2214 0.950 . S
C2219 C2221 1.327 . S
C2219 C2225 1.429 . S
C2220 C2212 1.574 1_545 S
C2220 H2215 0.949 . S
C2220 C2226 1.368 . S
C2221 C2205 1.349 . S
C2221 H2213 0.950 . S
C2221 C2219 1.327 . S
C2222 C2210 1.349 . S
C2222 H2216 0.950 . S
C2222 C2223 1.327 . S
C2223 H2217 0.950 . S
C2223 C2222 1.327 . S
C2223 C2227 1.429 . S
C2224 C2207 1.574 1_565 S
C2224 H2218 0.949 . S
C2224 C2228 1.368 . S
C2225 C2206 1.429 . S
C2225 C2219 1.429 . S
C2225 C2226 1.523 . S
C2226 C2207 1.368 . S
C2226 C2220 1.368 . S
C2226 C2225 1.523 . S
C2227 C2211 1.429 . S
C2227 C2223 1.429 . S
C2227 C2228 1.523 . S
C2228 C2212 1.368 . S
C2228 C2224 1.368 . S
C2228 C2227 1.523 . S
H2229 C2204 0.950 . S
H2230 C2206 0.950 . S
H2231 C2207 0.949 . S
H2232 C2209 0.950 . S
H2233 C2211 0.950 . S
C2234 C2235 1.349 . S
C2234 C2236 1.327 . S
C2234 H2259 0.950 . S
C2235 C2234 1.349 . S
C2235 C2251 1.349 . S
C2236 C2234 1.327 . S
C2236 C2255 1.429 . S
C2236 H2260 0.950 . S
C2237 C2254 1.574 1_655 S
C2237 C2256 1.368 . S
C2237 H2261 0.949 . S
H2238 C2242 0.949 . S
C2239 C2240 1.349 . S
C2239 C2241 1.327 . S
C2239 H2262 0.950 . S
C2240 C2239 1.349 . S
C2240 C2252 1.349 . S
C2241 C2239 1.327 . S
C2241 C2257 1.429 . S
C2241 H2263 0.950 . S
C2242 H2238 0.949 . S
C2242 C2250 1.574 1_455 S
C2242 C2258 1.368 . S
H2243 C2251 0.950 . S
H2244 C2249 0.950 . S
H2245 C2250 0.949 . S
H2246 C2252 0.950 . S
H2247 C2253 0.950 . S
H2248 C2254 0.949 . S
C2249 H2244 0.950 . S
C2249 C2251 1.327 . S
C2249 C2255 1.429 . S
C2250 C2242 1.574 1_655 S
C2250 H2245 0.949 . S
C2250 C2256 1.368 . S
C2251 C2235 1.349 . S
C2251 H2243 0.950 . S
C2251 C2249 1.327 . S
C2252 C2240 1.349 . S
C2252 H2246 0.950 . S
C2252 C2253 1.327 . S
C2253 H2247 0.950 . S
C2253 C2252 1.327 . S
C2253 C2257 1.429 . S
C2254 C2237 1.574 1_455 S
C2254 H2248 0.949 . S
C2254 C2258 1.368 . S
C2255 C2236 1.429 . S
C2255 C2249 1.429 . S
C2255 C2256 1.523 . S
C2256 C2237 1.368 . S
C2256 C2250 1.368 . S
C2256 C2255 1.523 . S
C2257 C2241 1.429 . S
C2257 C2253 1.429 . S
C2257 C2258 1.523 . S
C2258 C2242 1.368 . S
C2258 C2254 1.368 . S
C2258 C2257 1.523 . S
H2259 C2234 0.950 . S
H2260 C2236 0.950 . S
H2261 C2237 0.949 . S
H2262 C2239 0.950 . S
H2263 C2241 0.950 . S
C2264 C2265 1.349 . S
C2264 C2266 1.327 . S
C2264 H2289 0.950 . S
C2265 C2264 1.349 . S
C2265 C2281 1.349 . S
C2266 C2264 1.327 . S
C2266 C2285 1.429 . S
C2266 H2290 0.950 . S
C2267 C2284 1.574 1_545 S
C2267 C2286 1.368 . S
C2267 H2291 0.949 . S
H2268 C2272 0.949 . S
C2269 C2270 1.349 . S
C2269 C2271 1.327 . S
C2269 H2292 0.950 . S
C2270 C2269 1.349 . S
C2270 C2282 1.349 . S
C2271 C2269 1.327 . S
C2271 C2287 1.429 . S
C2271 H2293 0.950 . S
C2272 H2268 0.949 . S
C2272 C2280 1.574 1_565 S
C2272 C2288 1.368 . S
H2273 C2281 0.950 . S
H2274 C2279 0.950 . S
H2275 C2280 0.949 . S
H2276 C2282 0.950 . S
H2277 C2283 0.950 . S
H2278 C2284 0.949 . S
C2279 H2274 0.950 . S
C2279 C2281 1.327 . S
C2279 C2285 1.429 . S
C2280 C2272 1.574 1_545 S
C2280 H2275 0.949 . S
C2280 C2286 1.368 . S
C2281 C2265 1.349 . S
C2281 H2273 0.950 . S
C2281 C2279 1.327 . S
C2282 C2270 1.349 . S
C2282 H2276 0.950 . S
C2282 C2283 1.327 . S
C2283 H2277 0.950 . S
C2283 C2282 1.327 . S
C2283 C2287 1.429 . S
C2284 C2267 1.574 1_565 S
C2284 H2278 0.949 . S
C2284 C2288 1.368 . S
C2285 C2266 1.429 . S
C2285 C2279 1.429 . S
C2285 C2286 1.523 . S
C2286 C2267 1.368 . S
C2286 C2280 1.368 . S
C2286 C2285 1.523 . S
C2287 C2271 1.429 . S
C2287 C2283 1.429 . S
C2287 C2288 1.523 . S
C2288 C2272 1.368 . S
C2288 C2284 1.368 . S
C2288 C2287 1.523 . S
H2289 C2264 0.950 . S
H2290 C2266 0.950 . S
H2291 C2267 0.949 . S
H2292 C2269 0.950 . S
H2293 C2271 0.950 . S
C2294 C2295 1.349 . S
C2294 C2296 1.327 . S
C2294 H2319 0.950 . S
C2295 C2294 1.349 . S
C2295 C2311 1.349 . S
C2296 C2294 1.327 . S
C2296 C2315 1.429 . S
C2296 H2320 0.950 . S
C2297 C2314 1.574 1_655 S
C2297 C2316 1.368 . S
C2297 H2321 0.949 . S
H2298 C2302 0.949 . S
C2299 C2300 1.349 . S
C2299 C2301 1.327 . S
C2299 H2322 0.950 . S
C2300 C2299 1.349 . S
C2300 C2312 1.349 . S
C2301 C2299 1.327 . S
C2301 C2317 1.429 . S
C2301 H2323 0.950 . S
C2302 H2298 0.949 . S
C2302 C2310 1.574 1_455 S
C2302 C2318 1.368 . S
H2303 C2311 0.950 . S
H2304 C2309 0.950 . S
H2305 C2310 0.949 . S
H2306 C2312 0.950 . S
H2307 C2313 0.950 . S
H2308 C2314 0.949 . S
C2309 H2304 0.950 . S
C2309 C2311 1.327 . S
C2309 C2315 1.429 . S
C2310 C2302 1.574 1_655 S
C2310 H2305 0.949 . S
C2310 C2316 1.368 . S
C2311 C2295 1.349 . S
C2311 H2303 0.950 . S
C2311 C2309 1.327 . S
C2312 C2300 1.349 . S
C2312 H2306 0.950 . S
C2312 C2313 1.327 . S
C2313 H2307 0.950 . S
C2313 C2312 1.327 . S
C2313 C2317 1.429 . S
C2314 C2297 1.574 1_455 S
C2314 H2308 0.949 . S
C2314 C2318 1.368 . S
C2315 C2296 1.429 . S
C2315 C2309 1.429 . S
C2315 C2316 1.523 . S
C2316 C2297 1.368 . S
C2316 C2310 1.368 . S
C2316 C2315 1.523 . S
C2317 C2301 1.429 . S
C2317 C2313 1.429 . S
C2317 C2318 1.523 . S
C2318 C2302 1.368 . S
C2318 C2314 1.368 . S
C2318 C2317 1.523 . S
H2319 C2294 0.950 . S
H2320 C2296 0.950 . S
H2321 C2297 0.949 . S
H2322 C2299 0.950 . S
H2323 C2301 0.950 . S
C2324 C2325 1.349 . S
C2324 C2326 1.327 . S
C2324 H2349 0.950 . S
C2325 C2324 1.349 . S
C2325 C2341 1.349 . S
C2326 C2324 1.327 . S
C2326 C2345 1.429 . S
C2326 H2350 0.950 . S
C2327 C2344 1.574 1_545 S
C2327 C2346 1.368 . S
C2327 H2351 0.949 . S
H2328 C2332 0.949 . S
C2329 C2330 1.349 . S
C2329 C2331 1.327 . S
C2329 H2352 0.950 . S
C2330 C2329 1.349 . S
C2330 C2342 1.349 . S
C2331 C2329 1.327 . S
C2331 C2347 1.429 . S
C2331 H2353 0.950 . S
C2332 H2328 0.949 . S
C2332 C2340 1.574 1_565 S
C2332 C2348 1.368 . S
H2333 C2341 0.950 . S
H2334 C2339 0.950 . S
H2335 C2340 0.949 . S
H2336 C2342 0.950 . S
H2337 C2343 0.950 . S
H2338 C2344 0.949 . S
C2339 H2334 0.950 . S
C2339 C2341 1.327 . S
C2339 C2345 1.429 . S
C2340 C2332 1.574 1_545 S
C2340 H2335 0.949 . S
C2340 C2346 1.368 . S
C2341 C2325 1.349 . S
C2341 H2333 0.950 . S
C2341 C2339 1.327 . S
C2342 C2330 1.349 . S
C2342 H2336 0.950 . S
C2342 C2343 1.327 . S
C2343 H2337 0.950 . S
C2343 C2342 1.327 . S
C2343 C2347 1.429 . S
C2344 C2327 1.574 1_565 S
C2344 H2338 0.949 . S
C2344 C2348 1.368 . S
C2345 C2326 1.429 . S
C2345 C2339 1.429 . S
C2345 C2346 1.523 . S
C2346 C2327 1.368 . S
C2346 C2340 1.368 . S
C2346 C2345 1.523 . S
C2347 C2331 1.429 . S
C2347 C2343 1.429 . S
C2347 C2348 1.523 . S
C2348 C2332 1.368 . S
C2348 C2344 1.368 . S
C2348 C2347 1.523 . S
H2349 C2324 0.950 . S
H2350 C2326 0.950 . S
H2351 C2327 0.949 . S
H2352 C2329 0.950 . S
H2353 C2331 0.950 . S
C2354 C2355 1.349 . S
C2354 C2356 1.327 . S
C2354 H2379 0.950 . S
C2355 C2354 1.349 . S
C2355 C2371 1.349 . S
C2356 C2354 1.327 . S
C2356 C2375 1.429 . S
C2356 H2380 0.950 . S
C2357 C2374 1.574 1_655 S
C2357 C2376 1.368 . S
C2357 H2381 0.949 . S
H2358 C2362 0.949 . S
C2359 C2360 1.349 . S
C2359 C2361 1.327 . S
C2359 H2382 0.950 . S
C2360 C2359 1.349 . S
C2360 C2372 1.349 . S
C2361 C2359 1.327 . S
C2361 C2377 1.429 . S
C2361 H2383 0.950 . S
C2362 H2358 0.949 . S
C2362 C2370 1.574 1_455 S
C2362 C2378 1.368 . S
H2363 C2371 0.950 . S
H2364 C2369 0.950 . S
H2365 C2370 0.949 . S
H2366 C2372 0.950 . S
H2367 C2373 0.950 . S
H2368 C2374 0.949 . S
C2369 H2364 0.950 . S
C2369 C2371 1.327 . S
C2369 C2375 1.429 . S
C2370 C2362 1.574 1_655 S
C2370 H2365 0.949 . S
C2370 C2376 1.368 . S
C2371 C2355 1.349 . S
C2371 H2363 0.950 . S
C2371 C2369 1.327 . S
C2372 C2360 1.349 . S
C2372 H2366 0.950 . S
C2372 C2373 1.327 . S
C2373 H2367 0.950 . S
C2373 C2372 1.327 . S
C2373 C2377 1.429 . S
C2374 C2357 1.574 1_455 S
C2374 H2368 0.949 . S
C2374 C2378 1.368 . S
C2375 C2356 1.429 . S
C2375 C2369 1.429 . S
C2375 C2376 1.523 . S
C2376 C2357 1.368 . S
C2376 C2370 1.368 . S
C2376 C2375 1.523 . S
C2377 C2361 1.429 . S
C2377 C2373 1.429 . S
C2377 C2378 1.523 . S
C2378 C2362 1.368 . S
C2378 C2374 1.368 . S
C2378 C2377 1.523 . S
H2379 C2354 0.950 . S
H2380 C2356 0.950 . S
H2381 C2357 0.949 . S
H2382 C2359 0.950 . S
H2383 C2361 0.950 . S
C2384 C2385 1.349 . S
C2384 C2386 1.327 . S
C2384 H2409 0.950 . S
C2385 C2384 1.349 . S
C2385 C2401 1.349 . S
C2386 C2384 1.327 . S
C2386 C2405 1.429 . S
C2386 H2410 0.950 . S
C2387 C2404 1.574 1_554 S
C2387 C2406 1.368 . S
C2387 H2411 0.949 . S
H2388 C2392 0.949 . S
C2389 C2390 1.349 . S
C2389 C2391 1.327 . S
C2389 H2412 0.950 . S
C2390 C2389 1.349 . S
C2390 C2402 1.349 . S
C2391 C2389 1.327 . S
C2391 C2407 1.429 . S
C2391 H2413 0.950 . S
C2392 H2388 0.949 . S
C2392 C2400 1.574 1_556 S
C2392 C2408 1.368 . S
H2393 C2401 0.950 . S
H2394 C2399 0.950 . S
H2395 C2400 0.949 . S
H2396 C2402 0.950 . S
H2397 C2403 0.950 . S
H2398 C2404 0.949 . S
C2399 H2394 0.950 . S
C2399 C2401 1.327 . S
C2399 C2405 1.429 . S
C2400 C2392 1.574 1_554 S
C2400 H2395 0.949 . S
C2400 C2406 1.368 . S
C2401 C2385 1.349 . S
C2401 H2393 0.950 . S
C2401 C2399 1.327 . S
C2402 C2390 1.349 . S
C2402 H2396 0.950 . S
C2402 C2403 1.327 . S
C2403 H2397 0.950 . S
C2403 C2402 1.327 . S
C2403 C2407 1.429 . S
C2404 C2387 1.574 1_556 S
C2404 H2398 0.949 . S
C2404 C2408 1.368 . S
C2405 C2386 1.429 . S
C2405 C2399 1.429 . S
C2405 C2406 1.523 . S
C2406 C2387 1.368 . S
C2406 C2400 1.368 . S
C2406 C2405 1.523 . S
C2407 C2391 1.429 . S
C2407 C2403 1.429 . S
C2407 C2408 1.523 . S
C2408 C2392 1.368 . S
C2408 C2404 1.368 . S
C2408 C2407 1.523 . S
H2409 C2384 0.950 . S
H2410 C2386 0.950 . S
H2411 C2387 0.949 . S
H2412 C2389 0.950 . S
H2413 C2391 0.950 . S
C2414 C2415 1.349 . S
C2414 C2416 1.327 . S
C2414 H2439 0.950 . S
C2415 C2414 1.349 . S
C2415 C2431 1.349 . S
C2416 C2414 1.327 . S
C2416 C2435 1.429 . S
C2416 H2440 0.950 . S
C2417 C2434 1.574 1_556 S
C2417 C2436 1.368 . S
C2417 H2441 0.949 . S
H2418 C2422 0.949 . S
C2419 C2420 1.349 . S
C2419 C2421 1.327 . S
C2419 H2442 0.950 . S
C2420 C2419 1.349 . S
C2420 C2432 1.349 . S
C2421 C2419 1.327 . S
C2421 C2437 1.429 . S
C2421 H2443 0.950 . S
C2422 H2418 0.949 . S
C2422 C2430 1.574 1_554 S
C2422 C2438 1.368 . S
H2423 C2431 0.950 . S
H2424 C2429 0.950 . S
H2425 C2430 0.949 . S
H2426 C2432 0.950 . S
H2427 C2433 0.950 . S
H2428 C2434 0.949 . S
C2429 H2424 0.950 . S
C2429 C2431 1.327 . S
C2429 C2435 1.429 . S
C2430 C2422 1.574 1_556 S
C2430 H2425 0.949 . S
C2430 C2436 1.368 . S
C2431 C2415 1.349 . S
C2431 H2423 0.950 . S
C2431 C2429 1.327 . S
C2432 C2420 1.349 . S
C2432 H2426 0.950 . S
C2432 C2433 1.327 . S
C2433 H2427 0.950 . S
C2433 C2432 1.327 . S
C2433 C2437 1.429 . S
C2434 C2417 1.574 1_554 S
C2434 H2428 0.949 . S
C2434 C2438 1.368 . S
C2435 C2416 1.429 . S
C2435 C2429 1.429 . S
C2435 C2436 1.523 . S
C2436 C2417 1.368 . S
C2436 C2430 1.368 . S
C2436 C2435 1.523 . S
C2437 C2421 1.429 . S
C2437 C2433 1.429 . S
C2437 C2438 1.523 . S
C2438 C2422 1.368 . S
C2438 C2434 1.368 . S
C2438 C2437 1.523 . S
H2439 C2414 0.950 . S
H2440 C2416 0.950 . S
H2441 C2417 0.949 . S
H2442 C2419 0.950 . S
H2443 C2421 0.950 . S
C2444 C2445 1.349 . S
C2444 C2446 1.327 . S
C2444 H2469 0.950 . S
C2445 C2444 1.349 . S
C2445 C2461 1.349 . S
C2446 C2444 1.327 . S
C2446 C2465 1.429 . S
C2446 H2470 0.950 . S
C2447 C2464 1.574 1_556 S
C2447 C2466 1.368 . S
C2447 H2471 0.949 . S
H2448 C2452 0.949 . S
C2449 C2450 1.349 . S
C2449 C2451 1.327 . S
C2449 H2472 0.950 . S
C2450 C2449 1.349 . S
C2450 C2462 1.349 . S
C2451 C2449 1.327 . S
C2451 C2467 1.429 . S
C2451 H2473 0.950 . S
C2452 H2448 0.949 . S
C2452 C2460 1.574 1_554 S
C2452 C2468 1.368 . S
H2453 C2461 0.950 . S
H2454 C2459 0.950 . S
H2455 C2460 0.949 . S
H2456 C2462 0.950 . S
H2457 C2463 0.950 . S
H2458 C2464 0.949 . S
C2459 H2454 0.950 . S
C2459 C2461 1.327 . S
C2459 C2465 1.429 . S
C2460 C2452 1.574 1_556 S
C2460 H2455 0.949 . S
C2460 C2466 1.368 . S
C2461 C2445 1.349 . S
C2461 H2453 0.950 . S
C2461 C2459 1.327 . S
C2462 C2450 1.349 . S
C2462 H2456 0.950 . S
C2462 C2463 1.327 . S
C2463 H2457 0.950 . S
C2463 C2462 1.327 . S
C2463 C2467 1.429 . S
C2464 C2447 1.574 1_554 S
C2464 H2458 0.949 . S
C2464 C2468 1.368 . S
C2465 C2446 1.429 . S
C2465 C2459 1.429 . S
C2465 C2466 1.523 . S
C2466 C2447 1.368 . S
C2466 C2460 1.368 . S
C2466 C2465 1.523 . S
C2467 C2451 1.429 . S
C2467 C2463 1.429 . S
C2467 C2468 1.523 . S
C2468 C2452 1.368 . S
C2468 C2464 1.368 . S
C2468 C2467 1.523 . S
H2469 C2444 0.950 . S
H2470 C2446 0.950 . S
H2471 C2447 0.949 . S
H2472 C2449 0.950 . S
H2473 C2451 0.950 . S
C2474 C2475 1.349 . S
C2474 C2476 1.327 . S
C2474 H2499 0.950 . S
C2475 C2474 1.349 . S
C2475 C2491 1.349 . S
C2476 C2474 1.327 . S
C2476 C2495 1.429 . S
C2476 H2500 0.950 . S
C2477 C2494 1.574 1_554 S
C2477 C2496 1.368 . S
C2477 H2501 0.949 . S
H2478 C2482 0.949 . S
C2479 C2480 1.349 . S
C2479 C2481 1.327 . S
C2479 H2502 0.950 . S
C2480 C2479 1.349 . S
C2480 C2492 1.349 . S
C2481 C2479 1.327 . S
C2481 C2497 1.429 . S
C2481 H2503 0.950 . S
C2482 H2478 0.949 . S
C2482 C2490 1.574 1_556 S
C2482 C2498 1.368 . S
H2483 C2491 0.950 . S
H2484 C2489 0.950 . S
H2485 C2490 0.949 . S
H2486 C2492 0.950 . S
H2487 C2493 0.950 . S
H2488 C2494 0.949 . S
C2489 H2484 0.950 . S
C2489 C2491 1.327 . S
C2489 C2495 1.429 . S
C2490 C2482 1.574 1_554 S
C2490 H2485 0.949 . S
C2490 C2496 1.368 . S
C2491 C2475 1.349 . S
C2491 H2483 0.950 . S
C2491 C2489 1.327 . S
C2492 C2480 1.349 . S
C2492 H2486 0.950 . S
C2492 C2493 1.327 . S
C2493 H2487 0.950 . S
C2493 C2492 1.327 . S
C2493 C2497 1.429 . S
C2494 C2477 1.574 1_556 S
C2494 H2488 0.949 . S
C2494 C2498 1.368 . S
C2495 C2476 1.429 . S
C2495 C2489 1.429 . S
C2495 C2496 1.523 . S
C2496 C2477 1.368 . S
C2496 C2490 1.368 . S
C2496 C2495 1.523 . S
C2497 C2481 1.429 . S
C2497 C2493 1.429 . S
C2497 C2498 1.523 . S
C2498 C2482 1.368 . S
C2498 C2494 1.368 . S
C2498 C2497 1.523 . S
H2499 C2474 0.950 . S
H2500 C2476 0.950 . S
H2501 C2477 0.949 . S
H2502 C2479 0.950 . S
H2503 C2481 0.950 . S
C2504 C2505 1.349 . S
C2504 C2506 1.327 . S
C2504 H2529 0.950 . S
C2505 C2504 1.349 . S
C2505 C2521 1.349 . S
C2506 C2504 1.327 . S
C2506 C2525 1.429 . S
C2506 H2530 0.950 . S
C2507 C2524 1.574 1_556 S
C2507 C2526 1.368 . S
C2507 H2531 0.949 . S
H2508 C2512 0.949 . S
C2509 C2510 1.349 . S
C2509 C2511 1.327 . S
C2509 H2532 0.950 . S
C2510 C2509 1.349 . S
C2510 C2522 1.349 . S
C2511 C2509 1.327 . S
C2511 C2527 1.429 . S
C2511 H2533 0.950 . S
C2512 H2508 0.949 . S
C2512 C2520 1.574 1_554 S
C2512 C2528 1.368 . S
H2513 C2521 0.950 . S
H2514 C2519 0.950 . S
H2515 C2520 0.949 . S
H2516 C2522 0.950 . S
H2517 C2523 0.950 . S
H2518 C2524 0.949 . S
C2519 H2514 0.950 . S
C2519 C2521 1.327 . S
C2519 C2525 1.429 . S
C2520 C2512 1.574 1_556 S
C2520 H2515 0.949 . S
C2520 C2526 1.368 . S
C2521 C2505 1.349 . S
C2521 H2513 0.950 . S
C2521 C2519 1.327 . S
C2522 C2510 1.349 . S
C2522 H2516 0.950 . S
C2522 C2523 1.327 . S
C2523 H2517 0.950 . S
C2523 C2522 1.327 . S
C2523 C2527 1.429 . S
C2524 C2507 1.574 1_554 S
C2524 H2518 0.949 . S
C2524 C2528 1.368 . S
C2525 C2506 1.429 . S
C2525 C2519 1.429 . S
C2525 C2526 1.523 . S
C2526 C2507 1.368 . S
C2526 C2520 1.368 . S
C2526 C2525 1.523 . S
C2527 C2511 1.429 . S
C2527 C2523 1.429 . S
C2527 C2528 1.523 . S
C2528 C2512 1.368 . S
C2528 C2524 1.368 . S
C2528 C2527 1.523 . S
H2529 C2504 0.950 . S
H2530 C2506 0.950 . S
H2531 C2507 0.949 . S
H2532 C2509 0.950 . S
H2533 C2511 0.950 . S
C2534 C2535 1.349 . S
C2534 C2536 1.327 . S
C2534 H2559 0.950 . S
C2535 C2534 1.349 . S
C2535 C2551 1.349 . S
C2536 C2534 1.327 . S
C2536 C2555 1.429 . S
C2536 H2560 0.950 . S
C2537 C2554 1.574 1_554 S
C2537 C2556 1.368 . S
C2537 H2561 0.949 . S
H2538 C2542 0.949 . S
C2539 C2540 1.349 . S
C2539 C2541 1.327 . S
C2539 H2562 0.950 . S
C2540 C2539 1.349 . S
C2540 C2552 1.349 . S
C2541 C2539 1.327 . S
C2541 C2557 1.429 . S
C2541 H2563 0.950 . S
C2542 H2538 0.949 . S
C2542 C2550 1.574 1_556 S
C2542 C2558 1.368 . S
H2543 C2551 0.950 . S
H2544 C2549 0.950 . S
H2545 C2550 0.949 . S
H2546 C2552 0.950 . S
H2547 C2553 0.950 . S
H2548 C2554 0.949 . S
C2549 H2544 0.950 . S
C2549 C2551 1.327 . S
C2549 C2555 1.429 . S
C2550 C2542 1.574 1_554 S
C2550 H2545 0.949 . S
C2550 C2556 1.368 . S
C2551 C2535 1.349 . S
C2551 H2543 0.950 . S
C2551 C2549 1.327 . S
C2552 C2540 1.349 . S
C2552 H2546 0.950 . S
C2552 C2553 1.327 . S
C2553 H2547 0.950 . S
C2553 C2552 1.327 . S
C2553 C2557 1.429 . S
C2554 C2537 1.574 1_556 S
C2554 H2548 0.949 . S
C2554 C2558 1.368 . S
C2555 C2536 1.429 . S
C2555 C2549 1.429 . S
C2555 C2556 1.523 . S
C2556 C2537 1.368 . S
C2556 C2550 1.368 . S
C2556 C2555 1.523 . S
C2557 C2541 1.429 . S
C2557 C2553 1.429 . S
C2557 C2558 1.523 . S
C2558 C2542 1.368 . S
C2558 C2554 1.368 . S
C2558 C2557 1.523 . S
H2559 C2534 0.950 . S
H2560 C2536 0.950 . S
H2561 C2537 0.949 . S
H2562 C2539 0.950 . S
H2563 C2541 0.950 . S
C2564 C2565 1.349 . S
C2564 C2566 1.327 . S
C2564 H2589 0.950 . S
C2565 C2564 1.349 . S
C2565 C2581 1.349 . S
C2566 C2564 1.327 . S
C2566 C2585 1.429 . S
C2566 H2590 0.950 . S
C2567 C2584 1.574 1_554 S
C2567 C2586 1.368 . S
C2567 H2591 0.949 . S
H2568 C2572 0.949 . S
C2569 C2570 1.349 . S
C2569 C2571 1.327 . S
C2569 H2592 0.950 . S
C2570 C2569 1.349 . S
C2570 C2582 1.349 . S
C2571 C2569 1.327 . S
C2571 C2587 1.429 . S
C2571 H2593 0.950 . S
C2572 H2568 0.949 . S
C2572 C2580 1.574 1_556 S
C2572 C2588 1.368 . S
H2573 C2581 0.950 . S
H2574 C2579 0.950 . S
H2575 C2580 0.949 . S
H2576 C2582 0.950 . S
H2577 C2583 0.950 . S
H2578 C2584 0.949 . S
C2579 H2574 0.950 . S
C2579 C2581 1.327 . S
C2579 C2585 1.429 . S
C2580 C2572 1.574 1_554 S
C2580 H2575 0.949 . S
C2580 C2586 1.368 . S
C2581 C2565 1.349 . S
C2581 H2573 0.950 . S
C2581 C2579 1.327 . S
C2582 C2570 1.349 . S
C2582 H2576 0.950 . S
C2582 C2583 1.327 . S
C2583 H2577 0.950 . S
C2583 C2582 1.327 . S
C2583 C2587 1.429 . S
C2584 C2567 1.574 1_556 S
C2584 H2578 0.949 . S
C2584 C2588 1.368 . S
C2585 C2566 1.429 . S
C2585 C2579 1.429 . S
C2585 C2586 1.523 . S
C2586 C2567 1.368 . S
C2586 C2580 1.368 . S
C2586 C2585 1.523 . S
C2587 C2571 1.429 . S
C2587 C2583 1.429 . S
C2587 C2588 1.523 . S
C2588 C2572 1.368 . S
C2588 C2584 1.368 . S
C2588 C2587 1.523 . S
H2589 C2564 0.950 . S
H2590 C2566 0.950 . S
H2591 C2567 0.949 . S
H2592 C2569 0.950 . S
H2593 C2571 0.950 . S
C2594 C2595 1.349 . S
C2594 C2596 1.327 . S
C2594 H2619 0.950 . S
C2595 C2594 1.349 . S
C2595 C2611 1.349 . S
C2596 C2594 1.327 . S
C2596 C2615 1.429 . S
C2596 H2620 0.950 . S
C2597 C2614 1.574 1_556 S
C2597 C2616 1.368 . S
C2597 H2621 0.949 . S
H2598 C2602 0.949 . S
C2599 C2600 1.349 . S
C2599 C2601 1.327 . S
C2599 H2622 0.950 . S
C2600 C2599 1.349 . S
C2600 C2612 1.349 . S
C2601 C2599 1.327 . S
C2601 C2617 1.429 . S
C2601 H2623 0.950 . S
C2602 H2598 0.949 . S
C2602 C2610 1.574 1_554 S
C2602 C2618 1.368 . S
H2603 C2611 0.950 . S
H2604 C2609 0.950 . S
H2605 C2610 0.949 . S
H2606 C2612 0.950 . S
H2607 C2613 0.950 . S
H2608 C2614 0.949 . S
C2609 H2604 0.950 . S
C2609 C2611 1.327 . S
C2609 C2615 1.429 . S
C2610 C2602 1.574 1_556 S
C2610 H2605 0.949 . S
C2610 C2616 1.368 . S
C2611 C2595 1.349 . S
C2611 H2603 0.950 . S
C2611 C2609 1.327 . S
C2612 C2600 1.349 . S
C2612 H2606 0.950 . S
C2612 C2613 1.327 . S
C2613 H2607 0.950 . S
C2613 C2612 1.327 . S
C2613 C2617 1.429 . S
C2614 C2597 1.574 1_554 S
C2614 H2608 0.949 . S
C2614 C2618 1.368 . S
C2615 C2596 1.429 . S
C2615 C2609 1.429 . S
C2615 C2616 1.523 . S
C2616 C2597 1.368 . S
C2616 C2610 1.368 . S
C2616 C2615 1.523 . S
C2617 C2601 1.429 . S
C2617 C2613 1.429 . S
C2617 C2618 1.523 . S
C2618 C2602 1.368 . S
C2618 C2614 1.368 . S
C2618 C2617 1.523 . S
H2619 C2594 0.950 . S
H2620 C2596 0.950 . S
H2621 C2597 0.949 . S
H2622 C2599 0.950 . S
H2623 C2601 0.950 . S
C2624 C2625 1.349 . S
C2624 C2626 1.327 . S
C2624 H2649 0.950 . S
C2625 C2624 1.349 . S
C2625 C2641 1.349 . S
C2626 C2624 1.327 . S
C2626 C2645 1.429 . S
C2626 H2650 0.950 . S
C2627 C2644 1.574 1_455 S
C2627 C2646 1.368 . S
C2627 H2651 0.949 . S
H2628 C2632 0.949 . S
C2629 C2630 1.349 . S
C2629 C2631 1.327 . S
C2629 H2652 0.950 . S
C2630 C2629 1.349 . S
C2630 C2642 1.349 . S
C2631 C2629 1.327 . S
C2631 C2647 1.429 . S
C2631 H2653 0.950 . S
C2632 H2628 0.949 . S
C2632 C2640 1.574 1_655 S
C2632 C2648 1.368 . S
H2633 C2641 0.950 . S
H2634 C2639 0.950 . S
H2635 C2640 0.949 . S
H2636 C2642 0.950 . S
H2637 C2643 0.950 . S
H2638 C2644 0.949 . S
C2639 H2634 0.950 . S
C2639 C2641 1.327 . S
C2639 C2645 1.429 . S
C2640 C2632 1.574 1_455 S
C2640 H2635 0.949 . S
C2640 C2646 1.368 . S
C2641 C2625 1.349 . S
C2641 H2633 0.950 . S
C2641 C2639 1.327 . S
C2642 C2630 1.349 . S
C2642 H2636 0.950 . S
C2642 C2643 1.327 . S
C2643 H2637 0.950 . S
C2643 C2642 1.327 . S
C2643 C2647 1.429 . S
C2644 C2627 1.574 1_655 S
C2644 H2638 0.949 . S
C2644 C2648 1.368 . S
C2645 C2626 1.429 . S
C2645 C2639 1.429 . S
C2645 C2646 1.523 . S
C2646 C2627 1.368 . S
C2646 C2640 1.368 . S
C2646 C2645 1.523 . S
C2647 C2631 1.429 . S
C2647 C2643 1.429 . S
C2647 C2648 1.523 . S
C2648 C2632 1.368 . S
C2648 C2644 1.368 . S
C2648 C2647 1.523 . S
H2649 C2624 0.950 . S
H2650 C2626 0.950 . S
H2651 C2627 0.949 . S
H2652 C2629 0.950 . S
H2653 C2631 0.950 . S
C2654 C2655 1.349 . S
C2654 C2656 1.327 . S
C2654 H2679 0.950 . S
C2655 C2654 1.349 . S
C2655 C2671 1.349 . S
C2656 C2654 1.327 . S
C2656 C2675 1.429 . S
C2656 H2680 0.950 . S
C2657 C2674 1.574 1_455 S
C2657 C2676 1.368 . S
C2657 H2681 0.949 . S
H2658 C2662 0.949 . S
C2659 C2660 1.349 . S
C2659 C2661 1.327 . S
C2659 H2682 0.950 . S
C2660 C2659 1.349 . S
C2660 C2672 1.349 . S
C2661 C2659 1.327 . S
C2661 C2677 1.429 . S
C2661 H2683 0.950 . S
C2662 H2658 0.949 . S
C2662 C2670 1.574 1_655 S
C2662 C2678 1.368 . S
H2663 C2671 0.950 . S
H2664 C2669 0.950 . S
H2665 C2670 0.949 . S
H2666 C2672 0.950 . S
H2667 C2673 0.950 . S
H2668 C2674 0.949 . S
C2669 H2664 0.950 . S
C2669 C2671 1.327 . S
C2669 C2675 1.429 . S
C2670 C2662 1.574 1_455 S
C2670 H2665 0.949 . S
C2670 C2676 1.368 . S
C2671 C2655 1.349 . S
C2671 H2663 0.950 . S
C2671 C2669 1.327 . S
C2672 C2660 1.349 . S
C2672 H2666 0.950 . S
C2672 C2673 1.327 . S
C2673 H2667 0.950 . S
C2673 C2672 1.327 . S
C2673 C2677 1.429 . S
C2674 C2657 1.574 1_655 S
C2674 H2668 0.949 . S
C2674 C2678 1.368 . S
C2675 C2656 1.429 . S
C2675 C2669 1.429 . S
C2675 C2676 1.523 . S
C2676 C2657 1.368 . S
C2676 C2670 1.368 . S
C2676 C2675 1.523 . S
C2677 C2661 1.429 . S
C2677 C2673 1.429 . S
C2677 C2678 1.523 . S
C2678 C2662 1.368 . S
C2678 C2674 1.368 . S
C2678 C2677 1.523 . S
H2679 C2654 0.950 . S
H2680 C2656 0.950 . S
H2681 C2657 0.949 . S
H2682 C2659 0.950 . S
H2683 C2661 0.950 . S
C2684 C2685 1.349 . S
C2684 C2686 1.327 . S
C2684 H2709 0.950 . S
C2685 C2684 1.349 . S
C2685 C2701 1.349 . S
C2686 C2684 1.327 . S
C2686 C2705 1.429 . S
C2686 H2710 0.950 . S
C2687 C2704 1.574 1_565 S
C2687 C2706 1.368 . S
C2687 H2711 0.949 . S
H2688 C2692 0.949 . S
C2689 C2690 1.349 . S
C2689 C2691 1.327 . S
C2689 H2712 0.950 . S
C2690 C2689 1.349 . S
C2690 C2702 1.349 . S
C2691 C2689 1.327 . S
C2691 C2707 1.429 . S
C2691 H2713 0.950 . S
C2692 H2688 0.949 . S
C2692 C2700 1.574 1_545 S
C2692 C2708 1.368 . S
H2693 C2701 0.950 . S
H2694 C2699 0.950 . S
H2695 C2700 0.949 . S
H2696 C2702 0.950 . S
H2697 C2703 0.950 . S
H2698 C2704 0.949 . S
C2699 H2694 0.950 . S
C2699 C2701 1.327 . S
C2699 C2705 1.429 . S
C2700 C2692 1.574 1_565 S
C2700 H2695 0.949 . S
C2700 C2706 1.368 . S
C2701 C2685 1.349 . S
C2701 H2693 0.950 . S
C2701 C2699 1.327 . S
C2702 C2690 1.349 . S
C2702 H2696 0.950 . S
C2702 C2703 1.327 . S
C2703 H2697 0.950 . S
C2703 C2702 1.327 . S
C2703 C2707 1.429 . S
C2704 C2687 1.574 1_545 S
C2704 H2698 0.949 . S
C2704 C2708 1.368 . S
C2705 C2686 1.429 . S
C2705 C2699 1.429 . S
C2705 C2706 1.523 . S
C2706 C2687 1.368 . S
C2706 C2700 1.368 . S
C2706 C2705 1.523 . S
C2707 C2691 1.429 . S
C2707 C2703 1.429 . S
C2707 C2708 1.523 . S
C2708 C2692 1.368 . S
C2708 C2704 1.368 . S
C2708 C2707 1.523 . S
H2709 C2684 0.950 . S
H2710 C2686 0.950 . S
H2711 C2687 0.949 . S
H2712 C2689 0.950 . S
H2713 C2691 0.950 . S
C2714 C2715 1.349 . S
C2714 C2716 1.327 . S
C2714 H2739 0.950 . S
C2715 C2714 1.349 . S
C2715 C2731 1.349 . S
C2716 C2714 1.327 . S
C2716 C2735 1.429 . S
C2716 H2740 0.950 . S
C2717 C2734 1.574 1_455 S
C2717 C2736 1.368 . S
C2717 H2741 0.949 . S
H2718 C2722 0.949 . S
C2719 C2720 1.349 . S
C2719 C2721 1.327 . S
C2719 H2742 0.950 . S
C2720 C2719 1.349 . S
C2720 C2732 1.349 . S
C2721 C2719 1.327 . S
C2721 C2737 1.429 . S
C2721 H2743 0.950 . S
C2722 H2718 0.949 . S
C2722 C2730 1.574 1_655 S
C2722 C2738 1.368 . S
H2723 C2731 0.950 . S
H2724 C2729 0.950 . S
H2725 C2730 0.949 . S
H2726 C2732 0.950 . S
H2727 C2733 0.950 . S
H2728 C2734 0.949 . S
C2729 H2724 0.950 . S
C2729 C2731 1.327 . S
C2729 C2735 1.429 . S
C2730 C2722 1.574 1_455 S
C2730 H2725 0.949 . S
C2730 C2736 1.368 . S
C2731 C2715 1.349 . S
C2731 H2723 0.950 . S
C2731 C2729 1.327 . S
C2732 C2720 1.349 . S
C2732 H2726 0.950 . S
C2732 C2733 1.327 . S
C2733 H2727 0.950 . S
C2733 C2732 1.327 . S
C2733 C2737 1.429 . S
C2734 C2717 1.574 1_655 S
C2734 H2728 0.949 . S
C2734 C2738 1.368 . S
C2735 C2716 1.429 . S
C2735 C2729 1.429 . S
C2735 C2736 1.523 . S
C2736 C2717 1.368 . S
C2736 C2730 1.368 . S
C2736 C2735 1.523 . S
C2737 C2721 1.429 . S
C2737 C2733 1.429 . S
C2737 C2738 1.523 . S
C2738 C2722 1.368 . S
C2738 C2734 1.368 . S
C2738 C2737 1.523 . S
H2739 C2714 0.950 . S
H2740 C2716 0.950 . S
H2741 C2717 0.949 . S
H2742 C2719 0.950 . S
H2743 C2721 0.950 . S
C2744 C2745 1.349 . S
C2744 C2746 1.327 . S
C2744 H2769 0.950 . S
C2745 C2744 1.349 . S
C2745 C2761 1.349 . S
C2746 C2744 1.327 . S
C2746 C2765 1.429 . S
C2746 H2770 0.950 . S
C2747 C2764 1.574 1_565 S
C2747 C2766 1.368 . S
C2747 H2771 0.949 . S
H2748 C2752 0.949 . S
C2749 C2750 1.349 . S
C2749 C2751 1.327 . S
C2749 H2772 0.950 . S
C2750 C2749 1.349 . S
C2750 C2762 1.349 . S
C2751 C2749 1.327 . S
C2751 C2767 1.429 . S
C2751 H2773 0.950 . S
C2752 H2748 0.949 . S
C2752 C2760 1.574 1_545 S
C2752 C2768 1.368 . S
H2753 C2761 0.950 . S
H2754 C2759 0.950 . S
H2755 C2760 0.949 . S
H2756 C2762 0.950 . S
H2757 C2763 0.950 . S
H2758 C2764 0.949 . S
C2759 H2754 0.950 . S
C2759 C2761 1.327 . S
C2759 C2765 1.429 . S
C2760 C2752 1.574 1_565 S
C2760 H2755 0.949 . S
C2760 C2766 1.368 . S
C2761 C2745 1.349 . S
C2761 H2753 0.950 . S
C2761 C2759 1.327 . S
C2762 C2750 1.349 . S
C2762 H2756 0.950 . S
C2762 C2763 1.327 . S
C2763 H2757 0.950 . S
C2763 C2762 1.327 . S
C2763 C2767 1.429 . S
C2764 C2747 1.574 1_545 S
C2764 H2758 0.949 . S
C2764 C2768 1.368 . S
C2765 C2746 1.429 . S
C2765 C2759 1.429 . S
C2765 C2766 1.523 . S
C2766 C2747 1.368 . S
C2766 C2760 1.368 . S
C2766 C2765 1.523 . S
C2767 C2751 1.429 . S
C2767 C2763 1.429 . S
C2767 C2768 1.523 . S
C2768 C2752 1.368 . S
C2768 C2764 1.368 . S
C2768 C2767 1.523 . S
H2769 C2744 0.950 . S
H2770 C2746 0.950 . S
H2771 C2747 0.949 . S
H2772 C2749 0.950 . S
H2773 C2751 0.950 . S
C2774 C2775 1.349 . S
C2774 C2776 1.327 . S
C2774 H2799 0.950 . S
C2775 C2774 1.349 . S
C2775 C2791 1.349 . S
C2776 C2774 1.327 . S
C2776 C2795 1.429 . S
C2776 H2800 0.950 . S
C2777 C2794 1.574 1_655 S
C2777 C2796 1.368 . S
C2777 H2801 0.949 . S
H2778 C2782 0.949 . S
C2779 C2780 1.349 . S
C2779 C2781 1.327 . S
C2779 H2802 0.950 . S
C2780 C2779 1.349 . S
C2780 C2792 1.349 . S
C2781 C2779 1.327 . S
C2781 C2797 1.429 . S
C2781 H2803 0.950 . S
C2782 H2778 0.949 . S
C2782 C2790 1.574 1_455 S
C2782 C2798 1.368 . S
H2783 C2791 0.950 . S
H2784 C2789 0.950 . S
H2785 C2790 0.949 . S
H2786 C2792 0.950 . S
H2787 C2793 0.950 . S
H2788 C2794 0.949 . S
C2789 H2784 0.950 . S
C2789 C2791 1.327 . S
C2789 C2795 1.429 . S
C2790 C2782 1.574 1_655 S
C2790 H2785 0.949 . S
C2790 C2796 1.368 . S
C2791 C2775 1.349 . S
C2791 H2783 0.950 . S
C2791 C2789 1.327 . S
C2792 C2780 1.349 . S
C2792 H2786 0.950 . S
C2792 C2793 1.327 . S
C2793 H2787 0.950 . S
C2793 C2792 1.327 . S
C2793 C2797 1.429 . S
C2794 C2777 1.574 1_455 S
C2794 H2788 0.949 . S
C2794 C2798 1.368 . S
C2795 C2776 1.429 . S
C2795 C2789 1.429 . S
C2795 C2796 1.523 . S
C2796 C2777 1.368 . S
C2796 C2790 1.368 . S
C2796 C2795 1.523 . S
C2797 C2781 1.429 . S
C2797 C2793 1.429 . S
C2797 C2798 1.523 . S
C2798 C2782 1.368 . S
C2798 C2794 1.368 . S
C2798 C2797 1.523 . S
H2799 C2774 0.950 . S
H2800 C2776 0.950 . S
H2801 C2777 0.949 . S
H2802 C2779 0.950 . S
H2803 C2781 0.950 . S
C2804 C2805 1.349 . S
C2804 C2806 1.327 . S
C2804 H2829 0.950 . S
C2805 C2804 1.349 . S
C2805 C2821 1.349 . S
C2806 C2804 1.327 . S
C2806 C2825 1.429 . S
C2806 H2830 0.950 . S
C2807 C2824 1.574 1_565 S
C2807 C2826 1.368 . S
C2807 H2831 0.949 . S
H2808 C2812 0.949 . S
C2809 C2810 1.349 . S
C2809 C2811 1.327 . S
C2809 H2832 0.950 . S
C2810 C2809 1.349 . S
C2810 C2822 1.349 . S
C2811 C2809 1.327 . S
C2811 C2827 1.429 . S
C2811 H2833 0.950 . S
C2812 H2808 0.949 . S
C2812 C2820 1.574 1_545 S
C2812 C2828 1.368 . S
H2813 C2821 0.950 . S
H2814 C2819 0.950 . S
H2815 C2820 0.949 . S
H2816 C2822 0.950 . S
H2817 C2823 0.950 . S
H2818 C2824 0.949 . S
C2819 H2814 0.950 . S
C2819 C2821 1.327 . S
C2819 C2825 1.429 . S
C2820 C2812 1.574 1_565 S
C2820 H2815 0.949 . S
C2820 C2826 1.368 . S
C2821 C2805 1.349 . S
C2821 H2813 0.950 . S
C2821 C2819 1.327 . S
C2822 C2810 1.349 . S
C2822 H2816 0.950 . S
C2822 C2823 1.327 . S
C2823 H2817 0.950 . S
C2823 C2822 1.327 . S
C2823 C2827 1.429 . S
C2824 C2807 1.574 1_545 S
C2824 H2818 0.949 . S
C2824 C2828 1.368 . S
C2825 C2806 1.429 . S
C2825 C2819 1.429 . S
C2825 C2826 1.523 . S
C2826 C2807 1.368 . S
C2826 C2820 1.368 . S
C2826 C2825 1.523 . S
C2827 C2811 1.429 . S
C2827 C2823 1.429 . S
C2827 C2828 1.523 . S
C2828 C2812 1.368 . S
C2828 C2824 1.368 . S
C2828 C2827 1.523 . S
H2829 C2804 0.950 . S
H2830 C2806 0.950 . S
H2831 C2807 0.949 . S
H2832 C2809 0.950 . S
H2833 C2811 0.950 . S
C2834 C2835 1.349 . S
C2834 C2836 1.327 . S
C2834 H2859 0.950 . S
C2835 C2834 1.349 . S
C2835 C2851 1.349 . S
C2836 C2834 1.327 . S
C2836 C2855 1.429 . S
C2836 H2860 0.950 . S
C2837 C2854 1.574 1_565 S
C2837 C2856 1.368 . S
C2837 H2861 0.949 . S
H2838 C2842 0.949 . S
C2839 C2840 1.349 . S
C2839 C2841 1.327 . S
C2839 H2862 0.950 . S
C2840 C2839 1.349 . S
C2840 C2852 1.349 . S
C2841 C2839 1.327 . S
C2841 C2857 1.429 . S
C2841 H2863 0.950 . S
C2842 H2838 0.949 . S
C2842 C2850 1.574 1_545 S
C2842 C2858 1.368 . S
H2843 C2851 0.950 . S
H2844 C2849 0.950 . S
H2845 C2850 0.949 . S
H2846 C2852 0.950 . S
H2847 C2853 0.950 . S
H2848 C2854 0.949 . S
C2849 H2844 0.950 . S
C2849 C2851 1.327 . S
C2849 C2855 1.429 . S
C2850 C2842 1.574 1_565 S
C2850 H2845 0.949 . S
C2850 C2856 1.368 . S
C2851 C2835 1.349 . S
C2851 H2843 0.950 . S
C2851 C2849 1.327 . S
C2852 C2840 1.349 . S
C2852 H2846 0.950 . S
C2852 C2853 1.327 . S
C2853 H2847 0.950 . S
C2853 C2852 1.327 . S
C2853 C2857 1.429 . S
C2854 C2837 1.574 1_545 S
C2854 H2848 0.949 . S
C2854 C2858 1.368 . S
C2855 C2836 1.429 . S
C2855 C2849 1.429 . S
C2855 C2856 1.523 . S
C2856 C2837 1.368 . S
C2856 C2850 1.368 . S
C2856 C2855 1.523 . S
C2857 C2841 1.429 . S
C2857 C2853 1.429 . S
C2857 C2858 1.523 . S
C2858 C2842 1.368 . S
C2858 C2854 1.368 . S
C2858 C2857 1.523 . S
H2859 C2834 0.950 . S
H2860 C2836 0.950 . S
H2861 C2837 0.949 . S
H2862 C2839 0.950 . S
H2863 C2841 0.950 . S
C2864 C2865 1.349 . S
C2864 C2866 1.327 . S
C2864 H2889 0.950 . S
C2865 C2864 1.349 . S
C2865 C2881 1.349 . S
C2866 C2864 1.327 . S
C2866 C2885 1.429 . S
C2866 H2890 0.950 . S
C2867 C2884 1.574 . S
C2867 C2886 1.368 . S
C2867 H2891 0.949 . S
H2868 C2872 0.949 . S
C2869 C2870 1.349 . S
C2869 C2871 1.327 . S
C2869 H2892 0.950 . S
C2870 C2869 1.349 . S
C2870 C2882 1.349 . S
C2871 C2869 1.327 . S
C2871 C2887 1.429 . S
C2871 H2893 0.950 . S
C2872 H2868 0.949 . S
C2872 C2880 1.574 . S
C2872 C2888 1.368 . S
H2873 C2881 0.950 . S
H2874 C2879 0.950 . S
H2875 C2880 0.949 . S
H2876 C2882 0.950 . S
H2877 C2883 0.950 . S
H2878 C2884 0.949 . S
C2879 H2874 0.950 . S
C2879 C2881 1.327 . S
C2879 C2885 1.429 . S
C2880 C2872 1.574 . S
C2880 H2875 0.949 . S
C2880 C2886 1.368 . S
C2881 C2865 1.349 . S
C2881 H2873 0.950 . S
C2881 C2879 1.327 . S
C2882 C2870 1.349 . S
C2882 H2876 0.950 . S
C2882 C2883 1.327 . S
C2883 H2877 0.950 . S
C2883 C2882 1.327 . S
C2883 C2887 1.429 . S
C2884 C2867 1.574 . S
C2884 H2878 0.949 . S
C2884 C2888 1.368 . S
C2885 C2866 1.429 . S
C2885 C2879 1.429 . S
C2885 C2886 1.523 . S
C2886 C2867 1.368 . S
C2886 C2880 1.368 . S
C2886 C2885 1.523 . S
C2887 C2871 1.429 . S
C2887 C2883 1.429 . S
C2887 C2888 1.523 . S
C2888 C2872 1.368 . S
C2888 C2884 1.368 . S
C2888 C2887 1.523 . S
H2889 C2864 0.950 . S
H2890 C2866 0.950 . S
H2891 C2867 0.949 . S
H2892 C2869 0.950 . S
H2893 C2871 0.950 . S
C2894 C2895 1.349 . S
C2894 C2896 1.327 . S
C2894 H2919 0.950 . S
C2895 C2894 1.349 . S
C2895 C2911 1.349 . S
C2896 C2894 1.327 . S
C2896 C2915 1.429 . S
C2896 H2920 0.950 . S
C2897 C2914 1.574 . S
C2897 C2916 1.368 . S
C2897 H2921 0.949 . S
H2898 C2902 0.949 . S
C2899 C2900 1.349 . S
C2899 C2901 1.327 . S
C2899 H2922 0.950 . S
C2900 C2899 1.349 . S
C2900 C2912 1.349 . S
C2901 C2899 1.327 . S
C2901 C2917 1.429 . S
C2901 H2923 0.950 . S
C2902 H2898 0.949 . S
C2902 C2910 1.574 . S
C2902 C2918 1.368 . S
H2903 C2911 0.950 . S
H2904 C2909 0.950 . S
H2905 C2910 0.949 . S
H2906 C2912 0.950 . S
H2907 C2913 0.950 . S
H2908 C2914 0.949 . S
C2909 H2904 0.950 . S
C2909 C2911 1.327 . S
C2909 C2915 1.429 . S
C2910 C2902 1.574 . S
C2910 H2905 0.949 . S
C2910 C2916 1.368 . S
C2911 C2895 1.349 . S
C2911 H2903 0.950 . S
C2911 C2909 1.327 . S
C2912 C2900 1.349 . S
C2912 H2906 0.950 . S
C2912 C2913 1.327 . S
C2913 H2907 0.950 . S
C2913 C2912 1.327 . S
C2913 C2917 1.429 . S
C2914 C2897 1.574 . S
C2914 H2908 0.949 . S
C2914 C2918 1.368 . S
C2915 C2896 1.429 . S
C2915 C2909 1.429 . S
C2915 C2916 1.523 . S
C2916 C2897 1.368 . S
C2916 C2910 1.368 . S
C2916 C2915 1.523 . S
C2917 C2901 1.429 . S
C2917 C2913 1.429 . S
C2917 C2918 1.523 . S
C2918 C2902 1.368 . S
C2918 C2914 1.368 . S
C2918 C2917 1.523 . S
H2919 C2894 0.950 . S
H2920 C2896 0.950 . S
H2921 C2897 0.949 . S
H2922 C2899 0.950 . S
H2923 C2901 0.950 . S
C2924 C2925 1.349 . S
C2924 C2926 1.327 . S
C2924 H2949 0.950 . S
C2925 C2924 1.349 . S
C2925 C2941 1.349 . S
C2926 C2924 1.327 . S
C2926 C2945 1.429 . S
C2926 H2950 0.950 . S
C2927 C2944 1.574 . S
C2927 C2946 1.368 . S
C2927 H2951 0.949 . S
H2928 C2932 0.949 . S
C2929 C2930 1.349 . S
C2929 C2931 1.327 . S
C2929 H2952 0.950 . S
C2930 C2929 1.349 . S
C2930 C2942 1.349 . S
C2931 C2929 1.327 . S
C2931 C2947 1.429 . S
C2931 H2953 0.950 . S
C2932 H2928 0.949 . S
C2932 C2940 1.574 . S
C2932 C2948 1.368 . S
H2933 C2941 0.950 . S
H2934 C2939 0.950 . S
H2935 C2940 0.949 . S
H2936 C2942 0.950 . S
H2937 C2943 0.950 . S
H2938 C2944 0.949 . S
C2939 H2934 0.950 . S
C2939 C2941 1.327 . S
C2939 C2945 1.429 . S
C2940 C2932 1.574 . S
C2940 H2935 0.949 . S
C2940 C2946 1.368 . S
C2941 C2925 1.349 . S
C2941 H2933 0.950 . S
C2941 C2939 1.327 . S
C2942 C2930 1.349 . S
C2942 H2936 0.950 . S
C2942 C2943 1.327 . S
C2943 H2937 0.950 . S
C2943 C2942 1.327 . S
C2943 C2947 1.429 . S
C2944 C2927 1.574 . S
C2944 H2938 0.949 . S
C2944 C2948 1.368 . S
C2945 C2926 1.429 . S
C2945 C2939 1.429 . S
C2945 C2946 1.523 . S
C2946 C2927 1.368 . S
C2946 C2940 1.368 . S
C2946 C2945 1.523 . S
C2947 C2931 1.429 . S
C2947 C2943 1.429 . S
C2947 C2948 1.523 . S
C2948 C2932 1.368 . S
C2948 C2944 1.368 . S
C2948 C2947 1.523 . S
H2949 C2924 0.950 . S
H2950 C2926 0.950 . S
H2951 C2927 0.949 . S
H2952 C2929 0.950 . S
H2953 C2931 0.950 . S
C2954 C2955 1.349 . S
C2954 C2956 1.327 . S
C2954 H2979 0.950 . S
C2955 C2954 1.349 . S
C2955 C2971 1.349 . S
C2956 C2954 1.327 . S
C2956 C2975 1.429 . S
C2956 H2980 0.950 . S
C2957 C2974 1.574 . S
C2957 C2976 1.368 . S
C2957 H2981 0.949 . S
H2958 C2962 0.949 . S
C2959 C2960 1.349 . S
C2959 C2961 1.327 . S
C2959 H2982 0.950 . S
C2960 C2959 1.349 . S
C2960 C2972 1.349 . S
C2961 C2959 1.327 . S
C2961 C2977 1.429 . S
C2961 H2983 0.950 . S
C2962 H2958 0.949 . S
C2962 C2970 1.574 . S
C2962 C2978 1.368 . S
H2963 C2971 0.950 . S
H2964 C2969 0.950 . S
H2965 C2970 0.949 . S
H2966 C2972 0.950 . S
H2967 C2973 0.950 . S
H2968 C2974 0.949 . S
C2969 H2964 0.950 . S
C2969 C2971 1.327 . S
C2969 C2975 1.429 . S
C2970 C2962 1.574 . S
C2970 H2965 0.949 . S
C2970 C2976 1.368 . S
C2971 C2955 1.349 . S
C2971 H2963 0.950 . S
C2971 C2969 1.327 . S
C2972 C2960 1.349 . S
C2972 H2966 0.950 . S
C2972 C2973 1.327 . S
C2973 H2967 0.950 . S
C2973 C2972 1.327 . S
C2973 C2977 1.429 . S
C2974 C2957 1.574 . S
C2974 H2968 0.949 . S
C2974 C2978 1.368 . S
C2975 C2956 1.429 . S
C2975 C2969 1.429 . S
C2975 C2976 1.523 . S
C2976 C2957 1.368 . S
C2976 C2970 1.368 . S
C2976 C2975 1.523 . S
C2977 C2961 1.429 . S
C2977 C2973 1.429 . S
C2977 C2978 1.523 . S
C2978 C2962 1.368 . S
C2978 C2974 1.368 . S
C2978 C2977 1.523 . S
H2979 C2954 0.950 . S
H2980 C2956 0.950 . S
H2981 C2957 0.949 . S
H2982 C2959 0.950 . S
H2983 C2961 0.950 . S
C2984 C2985 1.349 . S
C2984 C2986 1.327 . S
C2984 H3009 0.950 . S
C2985 C2984 1.349 . S
C2985 C3001 1.349 . S
C2986 C2984 1.327 . S
C2986 C3005 1.429 . S
C2986 H3010 0.950 . S
C2987 C3004 1.574 . S
C2987 C3006 1.368 . S
C2987 H3011 0.949 . S
H2988 C2992 0.949 . S
C2989 C2990 1.349 . S
C2989 C2991 1.327 . S
C2989 H3012 0.950 . S
C2990 C2989 1.349 . S
C2990 C3002 1.349 . S
C2991 C2989 1.327 . S
C2991 C3007 1.429 . S
C2991 H3013 0.950 . S
C2992 H2988 0.949 . S
C2992 C3000 1.574 . S
C2992 C3008 1.368 . S
H2993 C3001 0.950 . S
H2994 C2999 0.950 . S
H2995 C3000 0.949 . S
H2996 C3002 0.950 . S
H2997 C3003 0.950 . S
H2998 C3004 0.949 . S
C2999 H2994 0.950 . S
C2999 C3001 1.327 . S
C2999 C3005 1.429 . S
C3000 C2992 1.574 . S
C3000 H2995 0.949 . S
C3000 C3006 1.368 . S
C3001 C2985 1.349 . S
C3001 H2993 0.950 . S
C3001 C2999 1.327 . S
C3002 C2990 1.349 . S
C3002 H2996 0.950 . S
C3002 C3003 1.327 . S
C3003 H2997 0.950 . S
C3003 C3002 1.327 . S
C3003 C3007 1.429 . S
C3004 C2987 1.574 . S
C3004 H2998 0.949 . S
C3004 C3008 1.368 . S
C3005 C2986 1.429 . S
C3005 C2999 1.429 . S
C3005 C3006 1.523 . S
C3006 C2987 1.368 . S
C3006 C3000 1.368 . S
C3006 C3005 1.523 . S
C3007 C2991 1.429 . S
C3007 C3003 1.429 . S
C3007 C3008 1.523 . S
C3008 C2992 1.368 . S
C3008 C3004 1.368 . S
C3008 C3007 1.523 . S
H3009 C2984 0.950 . S
H3010 C2986 0.950 . S
H3011 C2987 0.949 . S
H3012 C2989 0.950 . S
H3013 C2991 0.950 . S
C3014 C3015 1.349 . S
C3014 C3016 1.327 . S
C3014 H3039 0.950 . S
C3015 C3014 1.349 . S
C3015 C3031 1.349 . S
C3016 C3014 1.327 . S
C3016 C3035 1.429 . S
C3016 H3040 0.950 . S
C3017 C3034 1.574 . S
C3017 C3036 1.368 . S
C3017 H3041 0.949 . S
H3018 C3022 0.949 . S
C3019 C3020 1.349 . S
C3019 C3021 1.327 . S
C3019 H3042 0.950 . S
C3020 C3019 1.349 . S
C3020 C3032 1.349 . S
C3021 C3019 1.327 . S
C3021 C3037 1.429 . S
C3021 H3043 0.950 . S
C3022 H3018 0.949 . S
C3022 C3030 1.574 . S
C3022 C3038 1.368 . S
H3023 C3031 0.950 . S
H3024 C3029 0.950 . S
H3025 C3030 0.949 . S
H3026 C3032 0.950 . S
H3027 C3033 0.950 . S
H3028 C3034 0.949 . S
C3029 H3024 0.950 . S
C3029 C3031 1.327 . S
C3029 C3035 1.429 . S
C3030 C3022 1.574 . S
C3030 H3025 0.949 . S
C3030 C3036 1.368 . S
C3031 C3015 1.349 . S
C3031 H3023 0.950 . S
C3031 C3029 1.327 . S
C3032 C3020 1.349 . S
C3032 H3026 0.950 . S
C3032 C3033 1.327 . S
C3033 H3027 0.950 . S
C3033 C3032 1.327 . S
C3033 C3037 1.429 . S
C3034 C3017 1.574 . S
C3034 H3028 0.949 . S
C3034 C3038 1.368 . S
C3035 C3016 1.429 . S
C3035 C3029 1.429 . S
C3035 C3036 1.523 . S
C3036 C3017 1.368 . S
C3036 C3030 1.368 . S
C3036 C3035 1.523 . S
C3037 C3021 1.429 . S
C3037 C3033 1.429 . S
C3037 C3038 1.523 . S
C3038 C3022 1.368 . S
C3038 C3034 1.368 . S
C3038 C3037 1.523 . S
H3039 C3014 0.950 . S
H3040 C3016 0.950 . S
H3041 C3017 0.949 . S
H3042 C3019 0.950 . S
H3043 C3021 0.950 . S
C3044 C3045 1.349 . S
C3044 C3046 1.327 . S
C3044 H3069 0.950 . S
C3045 C3044 1.349 . S
C3045 C3061 1.349 . S
C3046 C3044 1.327 . S
C3046 C3065 1.429 . S
C3046 H3070 0.950 . S
C3047 C3064 1.574 . S
C3047 C3066 1.368 . S
C3047 H3071 0.949 . S
H3048 C3052 0.949 . S
C3049 C3050 1.349 . S
C3049 C3051 1.327 . S
C3049 H3072 0.950 . S
C3050 C3049 1.349 . S
C3050 C3062 1.349 . S
C3051 C3049 1.327 . S
C3051 C3067 1.429 . S
C3051 H3073 0.950 . S
C3052 H3048 0.949 . S
C3052 C3060 1.574 . S
C3052 C3068 1.368 . S
H3053 C3061 0.950 . S
H3054 C3059 0.950 . S
H3055 C3060 0.949 . S
H3056 C3062 0.950 . S
H3057 C3063 0.950 . S
H3058 C3064 0.949 . S
C3059 H3054 0.950 . S
C3059 C3061 1.327 . S
C3059 C3065 1.429 . S
C3060 C3052 1.574 . S
C3060 H3055 0.949 . S
C3060 C3066 1.368 . S
C3061 C3045 1.349 . S
C3061 H3053 0.950 . S
C3061 C3059 1.327 . S
C3062 C3050 1.349 . S
C3062 H3056 0.950 . S
C3062 C3063 1.327 . S
C3063 H3057 0.950 . S
C3063 C3062 1.327 . S
C3063 C3067 1.429 . S
C3064 C3047 1.574 . S
C3064 H3058 0.949 . S
C3064 C3068 1.368 . S
C3065 C3046 1.429 . S
C3065 C3059 1.429 . S
C3065 C3066 1.523 . S
C3066 C3047 1.368 . S
C3066 C3060 1.368 . S
C3066 C3065 1.523 . S
C3067 C3051 1.429 . S
C3067 C3063 1.429 . S
C3067 C3068 1.523 . S
C3068 C3052 1.368 . S
C3068 C3064 1.368 . S
C3068 C3067 1.523 . S
H3069 C3044 0.950 . S
H3070 C3046 0.950 . S
H3071 C3047 0.949 . S
H3072 C3049 0.950 . S
H3073 C3051 0.950 . S
C3074 C3075 1.349 . S
C3074 C3076 1.327 . S
C3074 H3099 0.950 . S
C3075 C3074 1.349 . S
C3075 C3091 1.349 . S
C3076 C3074 1.327 . S
C3076 C3095 1.429 . S
C3076 H3100 0.950 . S
C3077 C3094 1.574 . S
C3077 C3096 1.368 . S
C3077 H3101 0.949 . S
H3078 C3082 0.949 . S
C3079 C3080 1.349 . S
C3079 C3081 1.327 . S
C3079 H3102 0.950 . S
C3080 C3079 1.349 . S
C3080 C3092 1.349 . S
C3081 C3079 1.327 . S
C3081 C3097 1.429 . S
C3081 H3103 0.950 . S
C3082 H3078 0.949 . S
C3082 C3090 1.574 . S
C3082 C3098 1.368 . S
H3083 C3091 0.950 . S
H3084 C3089 0.950 . S
H3085 C3090 0.949 . S
H3086 C3092 0.950 . S
H3087 C3093 0.950 . S
H3088 C3094 0.949 . S
C3089 H3084 0.950 . S
C3089 C3091 1.327 . S
C3089 C3095 1.429 . S
C3090 C3082 1.574 . S
C3090 H3085 0.949 . S
C3090 C3096 1.368 . S
C3091 C3075 1.349 . S
C3091 H3083 0.950 . S
C3091 C3089 1.327 . S
C3092 C3080 1.349 . S
C3092 H3086 0.950 . S
C3092 C3093 1.327 . S
C3093 H3087 0.950 . S
C3093 C3092 1.327 . S
C3093 C3097 1.429 . S
C3094 C3077 1.574 . S
C3094 H3088 0.949 . S
C3094 C3098 1.368 . S
C3095 C3076 1.429 . S
C3095 C3089 1.429 . S
C3095 C3096 1.523 . S
C3096 C3077 1.368 . S
C3096 C3090 1.368 . S
C3096 C3095 1.523 . S
C3097 C3081 1.429 . S
C3097 C3093 1.429 . S
C3097 C3098 1.523 . S
C3098 C3082 1.368 . S
C3098 C3094 1.368 . S
C3098 C3097 1.523 . S
H3099 C3074 0.950 . S
H3100 C3076 0.950 . S
H3101 C3077 0.949 . S
H3102 C3079 0.950 . S
H3103 C3081 0.950 . S
C3104 C3105 1.349 . S
C3104 C3106 1.327 . S
C3104 H3129 0.950 . S
C3105 C3104 1.349 . S
C3105 C3121 1.349 . S
C3106 C3104 1.327 . S
C3106 C3125 1.429 . S
C3106 H3130 0.950 . S
C3107 C3124 1.574 . S
C3107 C3126 1.368 . S
C3107 H3131 0.949 . S
H3108 C3112 0.949 . S
C3109 C3110 1.349 . S
C3109 C3111 1.327 . S
C3109 H3132 0.950 . S
C3110 C3109 1.349 . S
C3110 C3122 1.349 . S
C3111 C3109 1.327 . S
C3111 C3127 1.429 . S
C3111 H3133 0.950 . S
C3112 H3108 0.949 . S
C3112 C3120 1.574 . S
C3112 C3128 1.368 . S
H3113 C3121 0.950 . S
H3114 C3119 0.950 . S
H3115 C3120 0.949 . S
H3116 C3122 0.950 . S
H3117 C3123 0.950 . S
H3118 C3124 0.949 . S
C3119 H3114 0.950 . S
C3119 C3121 1.327 . S
C3119 C3125 1.429 . S
C3120 C3112 1.574 . S
C3120 H3115 0.949 . S
C3120 C3126 1.368 . S
C3121 C3105 1.349 . S
C3121 H3113 0.950 . S
C3121 C3119 1.327 . S
C3122 C3110 1.349 . S
C3122 H3116 0.950 . S
C3122 C3123 1.327 . S
C3123 H3117 0.950 . S
C3123 C3122 1.327 . S
C3123 C3127 1.429 . S
C3124 C3107 1.574 . S
C3124 H3118 0.949 . S
C3124 C3128 1.368 . S
C3125 C3106 1.429 . S
C3125 C3119 1.429 . S
C3125 C3126 1.523 . S
C3126 C3107 1.368 . S
C3126 C3120 1.368 . S
C3126 C3125 1.523 . S
C3127 C3111 1.429 . S
C3127 C3123 1.429 . S
C3127 C3128 1.523 . S
C3128 C3112 1.368 . S
C3128 C3124 1.368 . S
C3128 C3127 1.523 . S
H3129 C3104 0.950 . S
H3130 C3106 0.950 . S
H3131 C3107 0.949 . S
H3132 C3109 0.950 . S
H3133 C3111 0.950 . S
C3134 C3135 1.349 . S
C3134 C3136 1.327 . S
C3134 H3159 0.950 . S
C3135 C3134 1.349 . S
C3135 C3151 1.349 . S
C3136 C3134 1.327 . S
C3136 C3155 1.429 . S
C3136 H3160 0.950 . S
C3137 C3154 1.574 . S
C3137 C3156 1.368 . S
C3137 H3161 0.949 . S
H3138 C3142 0.949 . S
C3139 C3140 1.349 . S
C3139 C3141 1.327 . S
C3139 H3162 0.950 . S
C3140 C3139 1.349 . S
C3140 C3152 1.349 . S
C3141 C3139 1.327 . S
C3141 C3157 1.429 . S
C3141 H3163 0.950 . S
C3142 H3138 0.949 . S
C3142 C3150 1.574 . S
C3142 C3158 1.368 . S
H3143 C3151 0.950 . S
H3144 C3149 0.950 . S
H3145 C3150 0.949 . S
H3146 C3152 0.950 . S
H3147 C3153 0.950 . S
H3148 C3154 0.949 . S
C3149 H3144 0.950 . S
C3149 C3151 1.327 . S
C3149 C3155 1.429 . S
C3150 C3142 1.574 . S
C3150 H3145 0.949 . S
C3150 C3156 1.368 . S
C3151 C3135 1.349 . S
C3151 H3143 0.950 . S
C3151 C3149 1.327 . S
C3152 C3140 1.349 . S
C3152 H3146 0.950 . S
C3152 C3153 1.327 . S
C3153 H3147 0.950 . S
C3153 C3152 1.327 . S
C3153 C3157 1.429 . S
C3154 C3137 1.574 . S
C3154 H3148 0.949 . S
C3154 C3158 1.368 . S
C3155 C3136 1.429 . S
C3155 C3149 1.429 . S
C3155 C3156 1.523 . S
C3156 C3137 1.368 . S
C3156 C3150 1.368 . S
C3156 C3155 1.523 . S
C3157 C3141 1.429 . S
C3157 C3153 1.429 . S
C3157 C3158 1.523 . S
C3158 C3142 1.368 . S
C3158 C3154 1.368 . S
C3158 C3157 1.523 . S
H3159 C3134 0.950 . S
H3160 C3136 0.950 . S
H3161 C3137 0.949 . S
H3162 C3139 0.950 . S
H3163 C3141 0.950 . S
C3164 C3165 1.349 . S
C3164 C3166 1.327 . S
C3164 H3189 0.950 . S
C3165 C3164 1.349 . S
C3165 C3181 1.349 . S
C3166 C3164 1.327 . S
C3166 C3185 1.429 . S
C3166 H3190 0.950 . S
C3167 C3184 1.574 . S
C3167 C3186 1.368 . S
C3167 H3191 0.949 . S
H3168 C3172 0.949 . S
C3169 C3170 1.349 . S
C3169 C3171 1.327 . S
C3169 H3192 0.950 . S
C3170 C3169 1.349 . S
C3170 C3182 1.349 . S
C3171 C3169 1.327 . S
C3171 C3187 1.429 . S
C3171 H3193 0.950 . S
C3172 H3168 0.949 . S
C3172 C3180 1.574 . S
C3172 C3188 1.368 . S
H3173 C3181 0.950 . S
H3174 C3179 0.950 . S
H3175 C3180 0.949 . S
H3176 C3182 0.950 . S
H3177 C3183 0.950 . S
H3178 C3184 0.949 . S
C3179 H3174 0.950 . S
C3179 C3181 1.327 . S
C3179 C3185 1.429 . S
C3180 C3172 1.574 . S
C3180 H3175 0.949 . S
C3180 C3186 1.368 . S
C3181 C3165 1.349 . S
C3181 H3173 0.950 . S
C3181 C3179 1.327 . S
C3182 C3170 1.349 . S
C3182 H3176 0.950 . S
C3182 C3183 1.327 . S
C3183 H3177 0.950 . S
C3183 C3182 1.327 . S
C3183 C3187 1.429 . S
C3184 C3167 1.574 . S
C3184 H3178 0.949 . S
C3184 C3188 1.368 . S
C3185 C3166 1.429 . S
C3185 C3179 1.429 . S
C3185 C3186 1.523 . S
C3186 C3167 1.368 . S
C3186 C3180 1.368 . S
C3186 C3185 1.523 . S
C3187 C3171 1.429 . S
C3187 C3183 1.429 . S
C3187 C3188 1.523 . S
C3188 C3172 1.368 . S
C3188 C3184 1.368 . S
C3188 C3187 1.523 . S
H3189 C3164 0.950 . S
H3190 C3166 0.950 . S
H3191 C3167 0.949 . S
H3192 C3169 0.950 . S
H3193 C3171 0.950 . S
C3194 C3195 1.349 . S
C3194 C3196 1.327 . S
C3194 H3219 0.950 . S
C3195 C3194 1.349 . S
C3195 C3211 1.349 . S
C3196 C3194 1.327 . S
C3196 C3215 1.429 . S
C3196 H3220 0.950 . S
C3197 C3214 1.574 . S
C3197 C3216 1.368 . S
C3197 H3221 0.949 . S
H3198 C3202 0.949 . S
C3199 C3200 1.349 . S
C3199 C3201 1.327 . S
C3199 H3222 0.950 . S
C3200 C3199 1.349 . S
C3200 C3212 1.349 . S
C3201 C3199 1.327 . S
C3201 C3217 1.429 . S
C3201 H3223 0.950 . S
C3202 H3198 0.949 . S
C3202 C3210 1.574 . S
C3202 C3218 1.368 . S
H3203 C3211 0.950 . S
H3204 C3209 0.950 . S
H3205 C3210 0.949 . S
H3206 C3212 0.950 . S
H3207 C3213 0.950 . S
H3208 C3214 0.949 . S
C3209 H3204 0.950 . S
C3209 C3211 1.327 . S
C3209 C3215 1.429 . S
C3210 C3202 1.574 . S
C3210 H3205 0.949 . S
C3210 C3216 1.368 . S
C3211 C3195 1.349 . S
C3211 H3203 0.950 . S
C3211 C3209 1.327 . S
C3212 C3200 1.349 . S
C3212 H3206 0.950 . S
C3212 C3213 1.327 . S
C3213 H3207 0.950 . S
C3213 C3212 1.327 . S
C3213 C3217 1.429 . S
C3214 C3197 1.574 . S
C3214 H3208 0.949 . S
C3214 C3218 1.368 . S
C3215 C3196 1.429 . S
C3215 C3209 1.429 . S
C3215 C3216 1.523 . S
C3216 C3197 1.368 . S
C3216 C3210 1.368 . S
C3216 C3215 1.523 . S
C3217 C3201 1.429 . S
C3217 C3213 1.429 . S
C3217 C3218 1.523 . S
C3218 C3202 1.368 . S
C3218 C3214 1.368 . S
C3218 C3217 1.523 . S
H3219 C3194 0.950 . S
H3220 C3196 0.950 . S
H3221 C3197 0.949 . S
H3222 C3199 0.950 . S
H3223 C3201 0.950 . S
C3224 C3225 1.349 . S
C3224 C3226 1.327 . S
C3224 H3249 0.950 . S
C3225 C3224 1.349 . S
C3225 C3241 1.349 . S
C3226 C3224 1.327 . S
C3226 C3245 1.429 . S
C3226 H3250 0.950 . S
C3227 C3244 1.574 . S
C3227 C3246 1.368 . S
C3227 H3251 0.949 . S
H3228 C3232 0.949 . S
C3229 C3230 1.349 . S
C3229 C3231 1.327 . S
C3229 H3252 0.950 . S
C3230 C3229 1.349 . S
C3230 C3242 1.349 . S
C3231 C3229 1.327 . S
C3231 C3247 1.429 . S
C3231 H3253 0.950 . S
C3232 H3228 0.949 . S
C3232 C3240 1.574 . S
C3232 C3248 1.368 . S
H3233 C3241 0.950 . S
H3234 C3239 0.950 . S
H3235 C3240 0.949 . S
H3236 C3242 0.950 . S
H3237 C3243 0.950 . S
H3238 C3244 0.949 . S
C3239 H3234 0.950 . S
C3239 C3241 1.327 . S
C3239 C3245 1.429 . S
C3240 C3232 1.574 . S
C3240 H3235 0.949 . S
C3240 C3246 1.368 . S
C3241 C3225 1.349 . S
C3241 H3233 0.950 . S
C3241 C3239 1.327 . S
C3242 C3230 1.349 . S
C3242 H3236 0.950 . S
C3242 C3243 1.327 . S
C3243 H3237 0.950 . S
C3243 C3242 1.327 . S
C3243 C3247 1.429 . S
C3244 C3227 1.574 . S
C3244 H3238 0.949 . S
C3244 C3248 1.368 . S
C3245 C3226 1.429 . S
C3245 C3239 1.429 . S
C3245 C3246 1.523 . S
C3246 C3227 1.368 . S
C3246 C3240 1.368 . S
C3246 C3245 1.523 . S
C3247 C3231 1.429 . S
C3247 C3243 1.429 . S
C3247 C3248 1.523 . S
C3248 C3232 1.368 . S
C3248 C3244 1.368 . S
C3248 C3247 1.523 . S
H3249 C3224 0.950 . S
H3250 C3226 0.950 . S
H3251 C3227 0.949 . S
H3252 C3229 0.950 . S
H3253 C3231 0.950 . S
C3254 C3255 1.349 . S
C3254 C3256 1.327 . S
C3254 H3279 0.950 . S
C3255 C3254 1.349 . S
C3255 C3271 1.349 . S
C3256 C3254 1.327 . S
C3256 C3275 1.429 . S
C3256 H3280 0.950 . S
C3257 C3274 1.574 . S
C3257 C3276 1.368 . S
C3257 H3281 0.949 . S
H3258 C3262 0.949 . S
C3259 C3260 1.349 . S
C3259 C3261 1.327 . S
C3259 H3282 0.950 . S
C3260 C3259 1.349 . S
C3260 C3272 1.349 . S
C3261 C3259 1.327 . S
C3261 C3277 1.429 . S
C3261 H3283 0.950 . S
C3262 H3258 0.949 . S
C3262 C3270 1.574 . S
C3262 C3278 1.368 . S
H3263 C3271 0.950 . S
H3264 C3269 0.950 . S
H3265 C3270 0.949 . S
H3266 C3272 0.950 . S
H3267 C3273 0.950 . S
H3268 C3274 0.949 . S
C3269 H3264 0.950 . S
C3269 C3271 1.327 . S
C3269 C3275 1.429 . S
C3270 C3262 1.574 . S
C3270 H3265 0.949 . S
C3270 C3276 1.368 . S
C3271 C3255 1.349 . S
C3271 H3263 0.950 . S
C3271 C3269 1.327 . S
C3272 C3260 1.349 . S
C3272 H3266 0.950 . S
C3272 C3273 1.327 . S
C3273 H3267 0.950 . S
C3273 C3272 1.327 . S
C3273 C3277 1.429 . S
C3274 C3257 1.574 . S
C3274 H3268 0.949 . S
C3274 C3278 1.368 . S
C3275 C3256 1.429 . S
C3275 C3269 1.429 . S
C3275 C3276 1.523 . S
C3276 C3257 1.368 . S
C3276 C3270 1.368 . S
C3276 C3275 1.523 . S
C3277 C3261 1.429 . S
C3277 C3273 1.429 . S
C3277 C3278 1.523 . S
C3278 C3262 1.368 . S
C3278 C3274 1.368 . S
C3278 C3277 1.523 . S
H3279 C3254 0.950 . S
H3280 C3256 0.950 . S
H3281 C3257 0.949 . S
H3282 C3259 0.950 . S
H3283 C3261 0.950 . S
C3284 C3285 1.349 . S
C3284 C3286 1.327 . S
C3284 H3309 0.950 . S
C3285 C3284 1.349 . S
C3285 C3301 1.349 . S
C3286 C3284 1.327 . S
C3286 C3305 1.429 . S
C3286 H3310 0.950 . S
C3287 C3304 1.574 . S
C3287 C3306 1.368 . S
C3287 H3311 0.949 . S
H3288 C3292 0.949 . S
C3289 C3290 1.349 . S
C3289 C3291 1.327 . S
C3289 H3312 0.950 . S
C3290 C3289 1.349 . S
C3290 C3302 1.349 . S
C3291 C3289 1.327 . S
C3291 C3307 1.429 . S
C3291 H3313 0.950 . S
C3292 H3288 0.949 . S
C3292 C3300 1.574 . S
C3292 C3308 1.368 . S
H3293 C3301 0.950 . S
H3294 C3299 0.950 . S
H3295 C3300 0.949 . S
H3296 C3302 0.950 . S
H3297 C3303 0.950 . S
H3298 C3304 0.949 . S
C3299 H3294 0.950 . S
C3299 C3301 1.327 . S
C3299 C3305 1.429 . S
C3300 C3292 1.574 . S
C3300 H3295 0.949 . S
C3300 C3306 1.368 . S
C3301 C3285 1.349 . S
C3301 H3293 0.950 . S
C3301 C3299 1.327 . S
C3302 C3290 1.349 . S
C3302 H3296 0.950 . S
C3302 C3303 1.327 . S
C3303 H3297 0.950 . S
C3303 C3302 1.327 . S
C3303 C3307 1.429 . S
C3304 C3287 1.574 . S
C3304 H3298 0.949 . S
C3304 C3308 1.368 . S
C3305 C3286 1.429 . S
C3305 C3299 1.429 . S
C3305 C3306 1.523 . S
C3306 C3287 1.368 . S
C3306 C3300 1.368 . S
C3306 C3305 1.523 . S
C3307 C3291 1.429 . S
C3307 C3303 1.429 . S
C3307 C3308 1.523 . S
C3308 C3292 1.368 . S
C3308 C3304 1.368 . S
C3308 C3307 1.523 . S
H3309 C3284 0.950 . S
H3310 C3286 0.950 . S
H3311 C3287 0.949 . S
H3312 C3289 0.950 . S
H3313 C3291 0.950 . S
C3314 C3315 1.349 . S
C3314 C3316 1.327 . S
C3314 H3339 0.950 . S
C3315 C3314 1.349 . S
C3315 C3331 1.349 . S
C3316 C3314 1.327 . S
C3316 C3335 1.429 . S
C3316 H3340 0.950 . S
C3317 C3334 1.574 . S
C3317 C3336 1.368 . S
C3317 H3341 0.949 . S
H3318 C3322 0.949 . S
C3319 C3320 1.349 . S
C3319 C3321 1.327 . S
C3319 H3342 0.950 . S
C3320 C3319 1.349 . S
C3320 C3332 1.349 . S
C3321 C3319 1.327 . S
C3321 C3337 1.429 . S
C3321 H3343 0.950 . S
C3322 H3318 0.949 . S
C3322 C3330 1.574 . S
C3322 C3338 1.368 . S
H3323 C3331 0.950 . S
H3324 C3329 0.950 . S
H3325 C3330 0.949 . S
H3326 C3332 0.950 . S
H3327 C3333 0.950 . S
H3328 C3334 0.949 . S
C3329 H3324 0.950 . S
C3329 C3331 1.327 . S
C3329 C3335 1.429 . S
C3330 C3322 1.574 . S
C3330 H3325 0.949 . S
C3330 C3336 1.368 . S
C3331 C3315 1.349 . S
C3331 H3323 0.950 . S
C3331 C3329 1.327 . S
C3332 C3320 1.349 . S
C3332 H3326 0.950 . S
C3332 C3333 1.327 . S
C3333 H3327 0.950 . S
C3333 C3332 1.327 . S
C3333 C3337 1.429 . S
C3334 C3317 1.574 . S
C3334 H3328 0.949 . S
C3334 C3338 1.368 . S
C3335 C3316 1.429 . S
C3335 C3329 1.429 . S
C3335 C3336 1.523 . S
C3336 C3317 1.368 . S
C3336 C3330 1.368 . S
C3336 C3335 1.523 . S
C3337 C3321 1.429 . S
C3337 C3333 1.429 . S
C3337 C3338 1.523 . S
C3338 C3322 1.368 . S
C3338 C3334 1.368 . S
C3338 C3337 1.523 . S
H3339 C3314 0.950 . S
H3340 C3316 0.950 . S
H3341 C3317 0.949 . S
H3342 C3319 0.950 . S
H3343 C3321 0.950 . S
C3344 C3345 1.349 . S
C3344 C3346 1.327 . S
C3344 H3369 0.950 . S
C3345 C3344 1.349 . S
C3345 C3361 1.349 . S
C3346 C3344 1.327 . S
C3346 C3365 1.429 . S
C3346 H3370 0.950 . S
C3347 C3364 1.574 . S
C3347 C3366 1.368 . S
C3347 H3371 0.949 . S
H3348 C3352 0.949 . S
C3349 C3350 1.349 . S
C3349 C3351 1.327 . S
C3349 H3372 0.950 . S
C3350 C3349 1.349 . S
C3350 C3362 1.349 . S
C3351 C3349 1.327 . S
C3351 C3367 1.429 . S
C3351 H3373 0.950 . S
C3352 H3348 0.949 . S
C3352 C3360 1.574 . S
C3352 C3368 1.368 . S
H3353 C3361 0.950 . S
H3354 C3359 0.950 . S
H3355 C3360 0.949 . S
H3356 C3362 0.950 . S
H3357 C3363 0.950 . S
H3358 C3364 0.949 . S
C3359 H3354 0.950 . S
C3359 C3361 1.327 . S
C3359 C3365 1.429 . S
C3360 C3352 1.574 . S
C3360 H3355 0.949 . S
C3360 C3366 1.368 . S
C3361 C3345 1.349 . S
C3361 H3353 0.950 . S
C3361 C3359 1.327 . S
C3362 C3350 1.349 . S
C3362 H3356 0.950 . S
C3362 C3363 1.327 . S
C3363 H3357 0.950 . S
C3363 C3362 1.327 . S
C3363 C3367 1.429 . S
C3364 C3347 1.574 . S
C3364 H3358 0.949 . S
C3364 C3368 1.368 . S
C3365 C3346 1.429 . S
C3365 C3359 1.429 . S
C3365 C3366 1.523 . S
C3366 C3347 1.368 . S
C3366 C3360 1.368 . S
C3366 C3365 1.523 . S
C3367 C3351 1.429 . S
C3367 C3363 1.429 . S
C3367 C3368 1.523 . S
C3368 C3352 1.368 . S
C3368 C3364 1.368 . S
C3368 C3367 1.523 . S
H3369 C3344 0.950 . S
H3370 C3346 0.950 . S
H3371 C3347 0.949 . S
H3372 C3349 0.950 . S
H3373 C3351 0.950 . S
C3374 C3375 1.349 . S
C3374 C3376 1.327 . S
C3374 H3399 0.950 . S
C3375 C3374 1.349 . S
C3375 C3391 1.349 . S
C3376 C3374 1.327 . S
C3376 C3395 1.429 . S
C3376 H3400 0.950 . S
C3377 C3394 1.574 . S
C3377 C3396 1.368 . S
C3377 H3401 0.949 . S
H3378 C3382 0.949 . S
C3379 C3380 1.349 . S
C3379 C3381 1.327 . S
C3379 H3402 0.950 . S
C3380 C3379 1.349 . S
C3380 C3392 1.349 . S
C3381 C3379 1.327 . S
C3381 C3397 1.429 . S
C3381 H3403 0.950 . S
C3382 H3378 0.949 . S
C3382 C3390 1.574 . S
C3382 C3398 1.368 . S
H3383 C3391 0.950 . S
H3384 C3389 0.950 . S
H3385 C3390 0.949 . S
H3386 C3392 0.950 . S
H3387 C3393 0.950 . S
H3388 C3394 0.949 . S
C3389 H3384 0.950 . S
C3389 C3391 1.327 . S
C3389 C3395 1.429 . S
C3390 C3382 1.574 . S
C3390 H3385 0.949 . S
C3390 C3396 1.368 . S
C3391 C3375 1.349 . S
C3391 H3383 0.950 . S
C3391 C3389 1.327 . S
C3392 C3380 1.349 . S
C3392 H3386 0.950 . S
C3392 C3393 1.327 . S
C3393 H3387 0.950 . S
C3393 C3392 1.327 . S
C3393 C3397 1.429 . S
C3394 C3377 1.574 . S
C3394 H3388 0.949 . S
C3394 C3398 1.368 . S
C3395 C3376 1.429 . S
C3395 C3389 1.429 . S
C3395 C3396 1.523 . S
C3396 C3377 1.368 . S
C3396 C3390 1.368 . S
C3396 C3395 1.523 . S
C3397 C3381 1.429 . S
C3397 C3393 1.429 . S
C3397 C3398 1.523 . S
C3398 C3382 1.368 . S
C3398 C3394 1.368 . S
C3398 C3397 1.523 . S
H3399 C3374 0.950 . S
H3400 C3376 0.950 . S
H3401 C3377 0.949 . S
H3402 C3379 0.950 . S
H3403 C3381 0.950 . S
C3404 C3405 1.349 . S
C3404 C3406 1.327 . S
C3404 H3429 0.950 . S
C3405 C3404 1.349 . S
C3405 C3421 1.349 . S
C3406 C3404 1.327 . S
C3406 C3425 1.429 . S
C3406 H3430 0.950 . S
C3407 C3424 1.574 . S
C3407 C3426 1.368 . S
C3407 H3431 0.949 . S
H3408 C3412 0.949 . S
C3409 C3410 1.349 . S
C3409 C3411 1.327 . S
C3409 H3432 0.950 . S
C3410 C3409 1.349 . S
C3410 C3422 1.349 . S
C3411 C3409 1.327 . S
C3411 C3427 1.429 . S
C3411 H3433 0.950 . S
C3412 H3408 0.949 . S
C3412 C3420 1.574 . S
C3412 C3428 1.368 . S
H3413 C3421 0.950 . S
H3414 C3419 0.950 . S
H3415 C3420 0.949 . S
H3416 C3422 0.950 . S
H3417 C3423 0.950 . S
H3418 C3424 0.949 . S
C3419 H3414 0.950 . S
C3419 C3421 1.327 . S
C3419 C3425 1.429 . S
C3420 C3412 1.574 . S
C3420 H3415 0.949 . S
C3420 C3426 1.368 . S
C3421 C3405 1.349 . S
C3421 H3413 0.950 . S
C3421 C3419 1.327 . S
C3422 C3410 1.349 . S
C3422 H3416 0.950 . S
C3422 C3423 1.327 . S
C3423 H3417 0.950 . S
C3423 C3422 1.327 . S
C3423 C3427 1.429 . S
C3424 C3407 1.574 . S
C3424 H3418 0.949 . S
C3424 C3428 1.368 . S
C3425 C3406 1.429 . S
C3425 C3419 1.429 . S
C3425 C3426 1.523 . S
C3426 C3407 1.368 . S
C3426 C3420 1.368 . S
C3426 C3425 1.523 . S
C3427 C3411 1.429 . S
C3427 C3423 1.429 . S
C3427 C3428 1.523 . S
C3428 C3412 1.368 . S
C3428 C3424 1.368 . S
C3428 C3427 1.523 . S
H3429 C3404 0.950 . S
H3430 C3406 0.950 . S
H3431 C3407 0.949 . S
H3432 C3409 0.950 . S
H3433 C3411 0.950 . S
C3434 C3435 1.349 . S
C3434 C3436 1.327 . S
C3434 H3459 0.950 . S
C3435 C3434 1.349 . S
C3435 C3451 1.349 . S
C3436 C3434 1.327 . S
C3436 C3455 1.429 . S
C3436 H3460 0.950 . S
C3437 C3454 1.574 . S
C3437 C3456 1.368 . S
C3437 H3461 0.949 . S
H3438 C3442 0.949 . S
C3439 C3440 1.349 . S
C3439 C3441 1.327 . S
C3439 H3462 0.950 . S
C3440 C3439 1.349 . S
C3440 C3452 1.349 . S
C3441 C3439 1.327 . S
C3441 C3457 1.429 . S
C3441 H3463 0.950 . S
C3442 H3438 0.949 . S
C3442 C3450 1.574 . S
C3442 C3458 1.368 . S
H3443 C3451 0.950 . S
H3444 C3449 0.950 . S
H3445 C3450 0.949 . S
H3446 C3452 0.950 . S
H3447 C3453 0.950 . S
H3448 C3454 0.949 . S
C3449 H3444 0.950 . S
C3449 C3451 1.327 . S
C3449 C3455 1.429 . S
C3450 C3442 1.574 . S
C3450 H3445 0.949 . S
C3450 C3456 1.368 . S
C3451 C3435 1.349 . S
C3451 H3443 0.950 . S
C3451 C3449 1.327 . S
C3452 C3440 1.349 . S
C3452 H3446 0.950 . S
C3452 C3453 1.327 . S
C3453 H3447 0.950 . S
C3453 C3452 1.327 . S
C3453 C3457 1.429 . S
C3454 C3437 1.574 . S
C3454 H3448 0.949 . S
C3454 C3458 1.368 . S
C3455 C3436 1.429 . S
C3455 C3449 1.429 . S
C3455 C3456 1.523 . S
C3456 C3437 1.368 . S
C3456 C3450 1.368 . S
C3456 C3455 1.523 . S
C3457 C3441 1.429 . S
C3457 C3453 1.429 . S
C3457 C3458 1.523 . S
C3458 C3442 1.368 . S
C3458 C3454 1.368 . S
C3458 C3457 1.523 . S
H3459 C3434 0.950 . S
H3460 C3436 0.950 . S
H3461 C3437 0.949 . S
H3462 C3439 0.950 . S
H3463 C3441 0.950 . S
C3464 C3465 1.349 . S
C3464 C3466 1.327 . S
C3464 H3489 0.950 . S
C3465 C3464 1.349 . S
C3465 C3481 1.349 . S
C3466 C3464 1.327 . S
C3466 C3485 1.429 . S
C3466 H3490 0.950 . S
C3467 C3484 1.574 . S
C3467 C3486 1.368 . S
C3467 H3491 0.949 . S
H3468 C3472 0.949 . S
C3469 C3470 1.349 . S
C3469 C3471 1.327 . S
C3469 H3492 0.950 . S
C3470 C3469 1.349 . S
C3470 C3482 1.349 . S
C3471 C3469 1.327 . S
C3471 C3487 1.429 . S
C3471 H3493 0.950 . S
C3472 H3468 0.949 . S
C3472 C3480 1.574 . S
C3472 C3488 1.368 . S
H3473 C3481 0.950 . S
H3474 C3479 0.950 . S
H3475 C3480 0.949 . S
H3476 C3482 0.950 . S
H3477 C3483 0.950 . S
H3478 C3484 0.949 . S
C3479 H3474 0.950 . S
C3479 C3481 1.327 . S
C3479 C3485 1.429 . S
C3480 C3472 1.574 . S
C3480 H3475 0.949 . S
C3480 C3486 1.368 . S
C3481 C3465 1.349 . S
C3481 H3473 0.950 . S
C3481 C3479 1.327 . S
C3482 C3470 1.349 . S
C3482 H3476 0.950 . S
C3482 C3483 1.327 . S
C3483 H3477 0.950 . S
C3483 C3482 1.327 . S
C3483 C3487 1.429 . S
C3484 C3467 1.574 . S
C3484 H3478 0.949 . S
C3484 C3488 1.368 . S
C3485 C3466 1.429 . S
C3485 C3479 1.429 . S
C3485 C3486 1.523 . S
C3486 C3467 1.368 . S
C3486 C3480 1.368 . S
C3486 C3485 1.523 . S
C3487 C3471 1.429 . S
C3487 C3483 1.429 . S
C3487 C3488 1.523 . S
C3488 C3472 1.368 . S
C3488 C3484 1.368 . S
C3488 C3487 1.523 . S
H3489 C3464 0.950 . S
H3490 C3466 0.950 . S
H3491 C3467 0.949 . S
H3492 C3469 0.950 . S
H3493 C3471 0.950 . S
C3494 C3495 1.349 . S
C3494 C3496 1.327 . S
C3494 H3519 0.950 . S
C3495 C3494 1.349 . S
C3495 C3511 1.349 . S
C3496 C3494 1.327 . S
C3496 C3515 1.429 . S
C3496 H3520 0.950 . S
C3497 C3514 1.574 . S
C3497 C3516 1.368 . S
C3497 H3521 0.949 . S
H3498 C3502 0.949 . S
C3499 C3500 1.349 . S
C3499 C3501 1.327 . S
C3499 H3522 0.950 . S
C3500 C3499 1.349 . S
C3500 C3512 1.349 . S
C3501 C3499 1.327 . S
C3501 C3517 1.429 . S
C3501 H3523 0.950 . S
C3502 H3498 0.949 . S
C3502 C3510 1.574 . S
C3502 C3518 1.368 . S
H3503 C3511 0.950 . S
H3504 C3509 0.950 . S
H3505 C3510 0.949 . S
H3506 C3512 0.950 . S
H3507 C3513 0.950 . S
H3508 C3514 0.949 . S
C3509 H3504 0.950 . S
C3509 C3511 1.327 . S
C3509 C3515 1.429 . S
C3510 C3502 1.574 . S
C3510 H3505 0.949 . S
C3510 C3516 1.368 . S
C3511 C3495 1.349 . S
C3511 H3503 0.950 . S
C3511 C3509 1.327 . S
C3512 C3500 1.349 . S
C3512 H3506 0.950 . S
C3512 C3513 1.327 . S
C3513 H3507 0.950 . S
C3513 C3512 1.327 . S
C3513 C3517 1.429 . S
C3514 C3497 1.574 . S
C3514 H3508 0.949 . S
C3514 C3518 1.368 . S
C3515 C3496 1.429 . S
C3515 C3509 1.429 . S
C3515 C3516 1.523 . S
C3516 C3497 1.368 . S
C3516 C3510 1.368 . S
C3516 C3515 1.523 . S
C3517 C3501 1.429 . S
C3517 C3513 1.429 . S
C3517 C3518 1.523 . S
C3518 C3502 1.368 . S
C3518 C3514 1.368 . S
C3518 C3517 1.523 . S
H3519 C3494 0.950 . S
H3520 C3496 0.950 . S
H3521 C3497 0.949 . S
H3522 C3499 0.950 . S
H3523 C3501 0.950 . S
C3524 C3525 1.349 . S
C3524 C3526 1.327 . S
C3524 H3549 0.950 . S
C3525 C3524 1.349 . S
C3525 C3541 1.349 . S
C3526 C3524 1.327 . S
C3526 C3545 1.429 . S
C3526 H3550 0.950 . S
C3527 C3544 1.574 . S
C3527 C3546 1.368 . S
C3527 H3551 0.949 . S
H3528 C3532 0.949 . S
C3529 C3530 1.349 . S
C3529 C3531 1.327 . S
C3529 H3552 0.950 . S
C3530 C3529 1.349 . S
C3530 C3542 1.349 . S
C3531 C3529 1.327 . S
C3531 C3547 1.429 . S
C3531 H3553 0.950 . S
C3532 H3528 0.949 . S
C3532 C3540 1.574 . S
C3532 C3548 1.368 . S
H3533 C3541 0.950 . S
H3534 C3539 0.950 . S
H3535 C3540 0.949 . S
H3536 C3542 0.950 . S
H3537 C3543 0.950 . S
H3538 C3544 0.949 . S
C3539 H3534 0.950 . S
C3539 C3541 1.327 . S
C3539 C3545 1.429 . S
C3540 C3532 1.574 . S
C3540 H3535 0.949 . S
C3540 C3546 1.368 . S
C3541 C3525 1.349 . S
C3541 H3533 0.950 . S
C3541 C3539 1.327 . S
C3542 C3530 1.349 . S
C3542 H3536 0.950 . S
C3542 C3543 1.327 . S
C3543 H3537 0.950 . S
C3543 C3542 1.327 . S
C3543 C3547 1.429 . S
C3544 C3527 1.574 . S
C3544 H3538 0.949 . S
C3544 C3548 1.368 . S
C3545 C3526 1.429 . S
C3545 C3539 1.429 . S
C3545 C3546 1.523 . S
C3546 C3527 1.368 . S
C3546 C3540 1.368 . S
C3546 C3545 1.523 . S
C3547 C3531 1.429 . S
C3547 C3543 1.429 . S
C3547 C3548 1.523 . S
C3548 C3532 1.368 . S
C3548 C3544 1.368 . S
C3548 C3547 1.523 . S
H3549 C3524 0.950 . S
H3550 C3526 0.950 . S
H3551 C3527 0.949 . S
H3552 C3529 0.950 . S
H3553 C3531 0.950 . S
C3554 C3555 1.349 . S
C3554 C3556 1.327 . S
C3554 H3579 0.950 . S
C3555 C3554 1.349 . S
C3555 C3571 1.349 . S
C3556 C3554 1.327 . S
C3556 C3575 1.429 . S
C3556 H3580 0.950 . S
C3557 C3574 1.574 . S
C3557 C3576 1.368 . S
C3557 H3581 0.949 . S
H3558 C3562 0.949 . S
C3559 C3560 1.349 . S
C3559 C3561 1.327 . S
C3559 H3582 0.950 . S
C3560 C3559 1.349 . S
C3560 C3572 1.349 . S
C3561 C3559 1.327 . S
C3561 C3577 1.429 . S
C3561 H3583 0.950 . S
C3562 H3558 0.949 . S
C3562 C3570 1.574 . S
C3562 C3578 1.368 . S
H3563 C3571 0.950 . S
H3564 C3569 0.950 . S
H3565 C3570 0.949 . S
H3566 C3572 0.950 . S
H3567 C3573 0.950 . S
H3568 C3574 0.949 . S
C3569 H3564 0.950 . S
C3569 C3571 1.327 . S
C3569 C3575 1.429 . S
C3570 C3562 1.574 . S
C3570 H3565 0.949 . S
C3570 C3576 1.368 . S
C3571 C3555 1.349 . S
C3571 H3563 0.950 . S
C3571 C3569 1.327 . S
C3572 C3560 1.349 . S
C3572 H3566 0.950 . S
C3572 C3573 1.327 . S
C3573 H3567 0.950 . S
C3573 C3572 1.327 . S
C3573 C3577 1.429 . S
C3574 C3557 1.574 . S
C3574 H3568 0.949 . S
C3574 C3578 1.368 . S
C3575 C3556 1.429 . S
C3575 C3569 1.429 . S
C3575 C3576 1.523 . S
C3576 C3557 1.368 . S
C3576 C3570 1.368 . S
C3576 C3575 1.523 . S
C3577 C3561 1.429 . S
C3577 C3573 1.429 . S
C3577 C3578 1.523 . S
C3578 C3562 1.368 . S
C3578 C3574 1.368 . S
C3578 C3577 1.523 . S
H3579 C3554 0.950 . S
H3580 C3556 0.950 . S
H3581 C3557 0.949 . S
H3582 C3559 0.950 . S
H3583 C3561 0.950 . S
C705 C367 0.851 . S
C710 C21 0.851 . S
C735 C513 0.851 . S
C740 C37 0.851 . S
C765 C59 0.851 . S
C770 C469 0.851 . S
C795 C73 0.851 . S
C800 C491 0.851 . S
C825 C109 0.851 . S
C830 C389 0.851 . S
C855 C117 0.851 . S
C860 C411 0.851 . S
C885 C425 0.851 . S
C890 C139 0.851 . S
C915 C161 0.851 . S
C920 C447 0.851 . S
C945 C197 0.851 . S
C950 C15 0.851 . S
C975 C29 0.851 . S
C980 C219 0.851 . S
C1005 C227 0.851 . S
C1010 C51 0.851 . S
C1035 C87 0.851 . S
C1040 C263 0.851 . S
C1065 C103 0.851 . S
C1070 C271 0.851 . S
C1095 C307 0.851 . S
C1100 C131 0.851 . S
C1125 C153 0.851 . S
C1130 C329 0.851 . S
C1155 C337 0.851 . S
C1160 C175 0.851 . S
C1185 C191 0.851 . S
C1190 C373 0.851 . S
C1215 C395 0.851 . S
C1220 C285 0.851 . S
C1245 C417 0.851 . S
C1250 C301 0.851 . S
C1275 C323 0.851 . S
C1280 C433 0.851 . S
C1305 C455 0.851 . S
C1310 C351 0.851 . S
C1335 C477 0.851 . S
C1340 C241 0.851 . S
C1365 C257 0.851 . S
C1370 C499 0.851 . S
C1395 C521 0.851 . S
C1400 C213 0.851 . S
C1425 C689 0.851 . S
C1430 C345 0.851 . S
C1455 C293 0.851 . S
C1460 C667 0.851 . S
C1485 C631 0.851 . S
C1490 C249 0.851 . S
C1515 C653 0.851 . S
C1520 C205 0.851 . S
C1545 C381 0.851 . S
C1550 C549 0.851 . S
C1575 C439 0.851 . S
C1580 C557 0.851 . S
C1605 C579 0.851 . S
C1610 C359 0.851 . S
C1635 C601 0.851 . S
C1640 C483 0.851 . S
C1665 C543 0.851 . S
C1670 C95 0.851 . S
C1695 C593 0.851 . S
C1700 C7 0.851 . S
C1725 C81 0.851 . S
C1730 C637 0.851 . S
C1755 C615 0.851 . S
C1760 C65 0.851 . S
C1785 C659 0.851 . S
C1790 C43 0.851 . S
C1815 C147 0.851 . S
C1820 C571 0.851 . S
C1845 C675 0.851 . S
C1850 C125 0.851 . S
C1875 C169 0.851 . S
C1880 C697 0.851 . S
C1905 C315 0.851 . S
C1910 C565 0.851 . S
C1935 C279 0.851 . S
C1940 C535 0.851 . S
C1965 C609 0.851 . S
C1970 C235 0.851 . S
C1995 C587 0.851 . S
C2000 C183 0.851 . S
C2025 C403 0.851 . S
C2030 C681 0.851 . S
C2055 C461 0.851 . S
C2060 C703 0.851 . S
C2085 C645 0.851 . S
C2090 C527 0.851 . S
C2115 C505 0.851 . S
C2120 C623 0.851 . S
C2145 C84 1.592 . S
C2150 C10 1.592 . S
C2175 C40 1.592 . S
C2180 C8 1.592 . S
C2205 C32 1.592 . S
C2210 C62 1.592 . S
C2235 C54 1.592 . S
C2240 C74 1.592 . S
C2265 C128 1.592 . S
C2270 C98 1.592 . S
C2295 C150 1.592 . S
C2300 C118 1.592 . S
C2325 C140 1.592 . S
C2330 C172 1.592 . S
C2355 C162 1.592 . S
C2360 C96 1.592 . S
C2385 C186 1.592 . S
C2390 C404 1.592 . S
C2415 C428 1.592 . S
C2420 C208 1.592 . S
C2445 C450 1.592 . S
C2450 C228 1.592 . S
C2475 C252 1.592 . S
C2480 C382 1.592 . S
C2505 C272 1.592 . S
C2510 C494 1.592 . S
C2535 C360 1.592 . S
C2540 C296 1.592 . S
C2565 C516 1.592 . S
C2570 C318 1.592 . S
C2595 C338 1.592 . S
C2600 C472 1.592 . S
C2625 C362 1.592 . S
C2630 C206 1.592 . S
C2655 C384 1.592 . S
C2660 C348 1.592 . S
C2685 C282 1.592 . S
C2690 C406 1.592 . S
C2715 C294 1.592 . S
C2720 C436 1.592 . S
C2745 C458 1.592 . S
C2750 C316 1.592 . S
C2775 C480 1.592 . S
C2780 C250 1.592 . S
C2805 C502 1.592 . S
C2810 C184 1.592 . S
C2835 C238 1.592 . S
C2840 C524 1.592 . S
C2865 C392 1.592 . S
C2870 C304 1.592 . S
C2895 C340 1.592 . S
C2900 C426 1.592 . S
C2925 C370 1.592 . S
C2930 C260 1.592 . S
C2955 C216 1.592 . S
C2960 C470 1.592 . S
C2985 C538 1.592 . S
C2990 C624 1.592 . S
C3015 C52 1.592 . S
C3020 C164 1.592 . S
C3045 C558 1.592 . S
C3050 C646 1.592 . S
C3075 C120 1.592 . S
C3080 C18 1.592 . S
C3105 C670 1.592 . S
C3110 C580 1.592 . S
C3135 C76 1.592 . S
C3140 C106 1.592 . S
C3165 C602 1.592 . S
C3170 C692 1.592 . S
C3195 C142 1.592 . S
C3200 C30 1.592 . S
C3225 C626 1.592 . S
C3230 C590 1.592 . S
C3255 C612 1.592 . S
C3260 C648 1.592 . S
C3285 C536 1.592 . S
C3290 C678 1.592 . S
C3315 C568 1.592 . S
C3320 C700 1.592 . S
C3345 C414 1.592 . S
C3350 C326 1.592 . S
C3375 C448 1.592 . S
C3380 C274 1.592 . S
C3405 C194 1.592 . S
C3410 C514 1.592 . S
C3435 C230 1.592 . S
C3440 C492 1.592 . S
C3465 C668 1.592 . S
C3470 C560 1.592 . S
C3495 C634 1.592 . S
C3500 C604 1.592 . S
C3525 C656 1.592 . S
C3530 C582 1.592 . S
C3555 C546 1.592 . S
C3560 C690 1.592 . S
