# Generated by pormake.
# Topology smu, (6)-cn, num edge types: 1
# Building blocks:
#     Node 0, Type 0, BuildingBlock: BETDEL_clean_sbu_0, # of connection points: 6
#     Node 1, Type 0, BuildingBlock: BETDEL_clean_sbu_0, # of connection points: 6
#     Node 2, Type 0, BuildingBlock: BETDEL_clean_sbu_0, # of connection points: 6
#     Node 3, Type 0, BuildingBlock: BETDEL_clean_sbu_0, # of connection points: 6
#     Node 4, Type 0, BuildingBlock: BETDEL_clean_sbu_0, # of connection points: 6
#     Node 5, Type 0, BuildingBlock: BETDEL_clean_sbu_0, # of connection points: 6
#     Edge 6, Type (0, 0), BuildingBlock: UVAHIK_clean_linker_0, # of connection points: 2
#     Edge 7, Type (0, 0), BuildingBlock: UVAHIK_clean_linker_0, # of connection points: 2
#     Edge 8, Type (0, 0), BuildingBlock: UVAHIK_clean_linker_0, # of connection points: 2
#     Edge 9, Type (0, 0), BuildingBlock: UVAHIK_clean_linker_0, # of connection points: 2
#     Edge 10, Type (0, 0), BuildingBlock: UVAHIK_clean_linker_0, # of connection points: 2
#     Edge 11, Type (0, 0), BuildingBlock: UVAHIK_clean_linker_0, # of connection points: 2
#     Edge 12, Type (0, 0), BuildingBlock: UVAHIK_clean_linker_0, # of connection points: 2
#     Edge 13, Type (0, 0), BuildingBlock: UVAHIK_clean_linker_0, # of connection points: 2
#     Edge 14, Type (0, 0), BuildingBlock: UVAHIK_clean_linker_0, # of connection points: 2
#     Edge 15, Type (0, 0), BuildingBlock: UVAHIK_clean_linker_0, # of connection points: 2
#     Edge 16, Type (0, 0), BuildingBlock: UVAHIK_clean_linker_0, # of connection points: 2
#     Edge 17, Type (0, 0), BuildingBlock: UVAHIK_clean_linker_0, # of connection points: 2
#     Edge 18, Type (0, 0), BuildingBlock: UVAHIK_clean_linker_0, # of connection points: 2
#     Edge 19, Type (0, 0), BuildingBlock: UVAHIK_clean_linker_0, # of connection points: 2
#     Edge 20, Type (0, 0), BuildingBlock: UVAHIK_clean_linker_0, # of connection points: 2
#     Edge 21, Type (0, 0), BuildingBlock: UVAHIK_clean_linker_0, # of connection points: 2
#     Edge 22, Type (0, 0), BuildingBlock: UVAHIK_clean_linker_0, # of connection points: 2
#     Edge 23, Type (0, 0), BuildingBlock: UVAHIK_clean_linker_0, # of connection points: 2
# Relax obj value: 0.186
# Max RMSD: 0.260
# Mean RMSD: 0.260
data_MOF--net-smu--node1-BETDEL_clean_sbu_0--edge1-UVAHIK_clean_linker_0
_symmetry_space_group_name_H-M    P1
_symmetry_Int_Tables_number       1
_symmetry_cell_setting            triclinic
loop_
_symmetry_equiv_pos_as_xyz
'x, y, z'
_cell_length_a     40.265142
_cell_length_b     40.338905
_cell_length_c     34.93798
_cell_angle_alpha  90.018529
_cell_angle_beta   90.295906
_cell_angle_gamma 119.98271
loop_
_atom_site_label
_atom_site_type_symbol
_atom_site_fract_x
_atom_site_fract_y
_atom_site_fract_z
_atom_type_partial_charge
Dy0 Dy 0.36613 0.08894 0.27784 0.0
C1 C 0.25771 0.14439 0.29836 0.0
C2 C 0.42287 0.07873 0.2473 0.0
Dy3 Dy 0.30121 0.11071 0.28868 0.0
O4 O 0.40044 0.0586 0.27508 0.0
O5 O 0.41274 0.1028 0.23517 0.0
O6 O 0.38446 0.09335 0.33982 0.0
O7 O 0.34231 0.10556 0.32435 0.0
C8 C 0.35956 0.10197 0.35286 0.0
C9 C 0.29866 0.07522 0.22263 0.0
O10 O 0.35418 0.16844 0.28841 0.0
O11 O 0.40033 0.15276 0.27085 0.0
O12 O 0.27788 0.14748 0.26834 0.0
O13 O 0.26088 0.12229 0.32368 0.0
O14 O 0.26876 0.07269 0.23929 0.0
O15 O 0.32874 0.09936 0.24013 0.0
O16 O 0.31097 0.0317 0.28105 0.0
O17 O 0.27453 0.05283 0.31427 0.0
C18 C 0.38953 0.17823 0.27821 0.0
C19 C 0.28072 0.0252 0.30217 0.0
Dy20 Dy 0.73011 0.63913 0.27864 0.0
C21 C 0.88969 0.75063 0.31793 0.0
C22 C 0.66455 0.57954 0.24799 0.0
Dy23 Dy 0.81584 0.7049 0.29321 0.0
O24 O 0.66555 0.6036 0.27343 0.0
O25 O 0.69931 0.58975 0.23781 0.0
O26 O 0.7137 0.62274 0.34066 0.0
O27 O 0.76832 0.66453 0.32724 0.0
C28 C 0.74645 0.64817 0.35507 0.0
C29 C 0.78773 0.7069 0.22391 0.0
O30 O 0.82503 0.65568 0.28077 0.0
O31 O 0.76167 0.60642 0.2741 0.0
O32 O 0.86794 0.76275 0.30346 0.0
O33 O 0.87068 0.71355 0.31999 0.0
O34 O 0.81646 0.73611 0.24021 0.0
O35 O 0.7794 0.67691 0.24277 0.0
O36 O 0.72714 0.69356 0.27829 0.0
O37 O 0.77963 0.72615 0.31919 0.0
C38 C 0.79912 0.61921 0.27507 0.0
C39 C 0.74817 0.72215 0.30246 0.0
Dy40 Dy 0.91108 0.27193 0.27793 0.0
C41 C 0.86457 0.11305 0.31849 0.0
C42 C 0.9171 0.33729 0.24725 0.0
Dy43 Dy 0.89235 0.18637 0.29338 0.0
O44 O 0.94064 0.33636 0.27233 0.0
O45 O 0.89196 0.30254 0.23749 0.0
O46 O 0.90975 0.28816 0.33996 0.0
O47 O 0.89782 0.23395 0.32615 0.0
C48 C 0.90234 0.25542 0.3541 0.0
C49 C 0.92217 0.21394 0.22431 0.0
O50 O 0.83382 0.17648 0.27996 0.0
O51 O 0.84693 0.23929 0.27128 0.0
O52 O 0.89866 0.13483 0.3048 0.0
O53 O 0.84615 0.13179 0.3196 0.0
O54 O 0.92299 0.18548 0.24063 0.0
O55 O 0.90037 0.22219 0.24296 0.0
O56 O 0.9687 0.27514 0.2785 0.0
O57 O 0.94962 0.22355 0.31985 0.0
C58 C 0.82281 0.20184 0.27294 0.0
C59 C 0.97682 0.25458 0.30273 0.0
Dy60 Dy 0.04824 0.30504 0.78251 0.0
C61 C 0.21017 0.4016 0.78716 0.0
C62 C 0.97691 0.24496 0.76528 0.0
Dy63 Dy 0.13233 0.35256 0.78355 0.0
O64 O 0.98727 0.26239 0.79811 0.0
O65 O 0.0049 0.26207 0.74126 0.0
O66 O 0.04287 0.32631 0.8387 0.0
O67 O 0.09071 0.31886 0.82921 0.0
C68 C 0.07464 0.33053 0.85282 0.0
C69 C 0.09858 0.32875 0.71372 0.0
O70 O 0.12888 0.29986 0.8056 0.0
O71 O 0.07024 0.26308 0.77699 0.0
O72 O 0.1922 0.3755 0.76141 0.0
O73 O 0.18556 0.40122 0.81137 0.0
O74 O 0.1293 0.32827 0.72371 0.0
O75 O 0.08835 0.34186 0.74064 0.0
O76 O 0.05186 0.36189 0.77221 0.0
O77 O 0.11505 0.39656 0.7934 0.0
C78 C 0.10198 0.26666 0.79244 0.0
C79 C 0.08204 0.39436 0.78419 0.0
Dy80 Dy 0.25216 0.95059 0.77985 0.0
C81 C 0.19438 0.7899 0.78613 0.0
C82 C 0.25991 0.02142 0.77325 0.0
Dy83 Dy 0.22615 0.86731 0.77948 0.0
O84 O 0.25261 0.0019 0.80459 0.0
O85 O 0.26409 0.00264 0.7452 0.0
O86 O 0.28843 0.95885 0.83075 0.0
O87 O 0.23509 0.90811 0.82657 0.0
C88 C 0.26502 0.92678 0.84718 0.0
C89 C 0.2404 0.90084 0.70973 0.0
O90 O 0.1706 0.86247 0.79509 0.0
O91 O 0.18786 0.92539 0.78275 0.0
O92 O 0.18483 0.80716 0.76079 0.0
O93 O 0.22156 0.81499 0.80808 0.0
O94 O 0.2485 0.87451 0.71868 0.0
O95 O 0.22408 0.90636 0.73744 0.0
O96 O 0.30555 0.95031 0.75999 0.0
O97 O 0.28868 0.89214 0.78844 0.0
C98 C 0.16174 0.88962 0.79106 0.0
C99 C 0.31443 0.92457 0.77264 0.0
Dy100 Dy 0.69438 0.74714 0.78242 0.0
C101 C 0.5898 0.80291 0.78357 0.0
C102 C 0.75553 0.73739 0.76637 0.0
Dy103 Dy 0.64342 0.77974 0.78128 0.0
O104 O 0.73599 0.72717 0.79788 0.0
O105 O 0.74014 0.75086 0.74292 0.0
O106 O 0.67428 0.72061 0.83868 0.0
O107 O 0.6783 0.77427 0.82823 0.0
C108 C 0.66814 0.747 0.85224 0.0
C109 C 0.67024 0.77204 0.71259 0.0
O110 O 0.69499 0.83376 0.79648 0.0
O111 O 0.73556 0.81172 0.77877 0.0
O112 O 0.59747 0.7885 0.75407 0.0
O113 O 0.61086 0.8039 0.81231 0.0
O114 O 0.66938 0.80261 0.72242 0.0
O115 O 0.65722 0.74836 0.73926 0.0
O116 O 0.63791 0.69298 0.77138 0.0
O117 O 0.6026 0.71892 0.79612 0.0
C118 C 0.72948 0.84004 0.78865 0.0
C119 C 0.60532 0.68899 0.78513 0.0
C120 C 0.30196 0.94525 0.90805 0.0
C121 C 0.26621 0.92508 0.88947 0.0
C122 C 0.30438 0.9536 0.94714 0.0
C123 C 0.2484 0.96923 1.02073 0.0
H124 H 0.33196 0.9842 0.08771 0.0
C125 C 0.26 0.02468 0.17467 0.0
C126 C 0.29625 0.05312 0.18776 0.0
C127 C 0.25612 0.00469 0.14076 0.0
C128 C 0.30862 0.98045 0.06926 0.0
H129 H 0.20479 0.8953 0.89786 0.0
H130 H 0.20881 0.9091 0.96662 0.0
H131 H 0.32393 0.95345 1.02536 0.0
H132 H 0.3571 0.08209 0.17614 0.0
H133 H 0.3504 0.04723 0.11625 0.0
H134 H 0.23338 0.99665 0.06418 0.0
C135 C 0.23513 0.91916 0.95073 0.0
C136 C 0.30391 0.96269 1.03351 0.0
C137 C 0.23274 0.91071 0.91144 0.0
C138 C 0.32881 0.06035 0.16671 0.0
C139 C 0.32492 0.04026 0.13252 0.0
C140 C 0.25304 0.98683 0.05641 0.0
C141 C 0.27102 0.94204 0.96877 0.0
C142 C 0.27392 0.95715 1.00854 0.0
C143 C 0.28838 0.01259 0.11879 0.0
C144 C 0.28336 0.99296 0.0811 0.0
H145 H 0.32825 0.95679 0.89177 0.0
H146 H 0.3325 0.9714 0.95969 0.0
H147 H 0.22554 0.9664 1.00212 0.0
H148 H 0.23434 0.01802 0.19049 0.0
H149 H 0.22764 0.98306 0.13165 0.0
C150 C 0.67325 0.72631 0.66688 0.0
C151 C 0.68298 0.76414 0.67561 0.0
C152 C 0.68431 0.71742 0.63234 0.0
C153 C 0.75396 0.75189 0.55585 0.0
H154 H 0.67188 0.67106 0.49643 0.0
C155 C 0.77622 0.70038 0.40553 0.0
C156 C 0.75029 0.66227 0.39507 0.0
C157 C 0.77195 0.7153 0.44044 0.0
C158 C 0.69542 0.69318 0.51283 0.0
H159 H 0.71302 0.8226 0.65529 0.0
H160 H 0.73327 0.807 0.5945 0.0
H161 H 0.65703 0.69334 0.55492 0.0
H162 H 0.70277 0.60881 0.41495 0.0
H163 H 0.69706 0.63364 0.47624 0.0
H164 H 0.79259 0.75076 0.51436 0.0
C165 C 0.71664 0.78429 0.61461 0.0
C166 C 0.68673 0.70624 0.54624 0.0
C167 C 0.70487 0.79317 0.64917 0.0
C168 C 0.72279 0.6385 0.42181 0.0
C169 C 0.71911 0.65302 0.45683 0.0
C170 C 0.76282 0.73835 0.52249 0.0
C171 C 0.70599 0.74617 0.6057 0.0
C172 C 0.71583 0.73536 0.56843 0.0
C173 C 0.74227 0.69209 0.46595 0.0
C174 C 0.73366 0.70825 0.50082 0.0
H175 H 0.65656 0.70327 0.68666 0.0
H176 H 0.67593 0.68787 0.62643 0.0
H177 H 0.77699 0.7743 0.57253 0.0
H178 H 0.79836 0.7193 0.38602 0.0
H179 H 0.79071 0.74542 0.44642 0.0
C180 C 0.96714 0.21884 0.17349 0.0
C181 C 0.94382 0.23219 0.18897 0.0
C182 C 0.98747 0.2342 0.13982 0.0
C183 C 0.02587 0.31711 0.07487 0.0
H184 H 0.02198 0.24368 1.00067 0.0
C185 C 0.06592 0.35267 0.91583 0.0
C186 C 0.07868 0.33148 0.89488 0.0
C187 C 0.05736 0.34559 0.95468 0.0
C188 C 0.02422 0.26476 1.02129 0.0
H189 H 0.92444 0.27313 0.18182 0.0
H190 H 0.96016 0.30024 0.12212 0.0
H191 H 0.98922 0.22137 0.06139 0.0
H192 H 0.09556 0.28841 0.89871 0.0
H193 H 0.08159 0.27652 0.96721 0.0
H194 H 0.06071 0.36054 1.03445 0.0
C195 C 0.96261 0.27772 0.1364 0.0
C196 C 0.00511 0.25189 0.05613 0.0
C197 C 0.942 0.26213 0.17039 0.0
C198 C 0.08608 0.30539 0.91427 0.0
C199 C 0.07743 0.29819 0.95335 0.0
C200 C 0.04522 0.33007 0.03997 0.0
C201 C 0.98516 0.26347 0.12047 0.0
C202 C 0.00551 0.27782 0.08333 0.0
C203 C 0.06128 0.31699 0.97362 0.0
C204 C 0.04443 0.30402 1.01254 0.0
H205 H 0.96963 0.19613 0.18733 0.0
H206 H 0.0051 0.22305 0.12891 0.0
H207 H 0.02718 0.33787 0.09539 0.0
H208 H 0.05979 0.37284 0.90143 0.0
H209 H 0.04489 0.36056 0.96897 0.0
C210 C 0.37355 0.09848 0.42141 0.0
C211 C 0.34692 0.09487 0.3933 0.0
C212 C 0.36146 0.08219 0.45759 0.0
C213 C 0.27506 0.02949 0.52105 0.0
H214 H 0.33669 0.9886 0.56238 0.0
C215 C 0.24048 0.95113 0.66749 0.0
C216 C 0.2503 0.92263 0.67334 0.0
C217 C 0.25137 0.97315 0.63404 0.0
C218 C 0.31864 0.99919 0.55116 0.0
H219 H 0.28677 0.07437 0.38245 0.0
H220 H 0.26516 0.04381 0.44457 0.0
H221 H 0.35648 0.02582 0.5044 0.0
H222 H 0.27774 0.89362 0.64793 0.0
H223 H 0.29507 0.9304 0.58878 0.0
H224 H 0.23592 0.00058 0.56672 0.0
C225 C 0.29566 0.0598 0.43917 0.0
C226 C 0.33057 0.02154 0.51804 0.0
C227 C 0.30801 0.07722 0.40321 0.0
C228 C 0.2701 0.91566 0.64442 0.0
C229 C 0.2804 0.93718 0.6106 0.0
C230 C 0.26275 0.00649 0.55393 0.0
C231 C 0.32215 0.06069 0.4664 0.0
C232 C 0.3092 0.03736 0.50246 0.0
C233 C 0.27172 0.96671 0.60504 0.0
C234 C 0.28439 0.99099 0.5696 0.0
H235 H 0.40383 0.1123 0.41476 0.0
H236 H 0.38307 0.08526 0.47808 0.0
H237 H 0.25778 0.04119 0.51039 0.0
H238 H 0.2246 0.95671 0.68897 0.0
H239 H 0.2444 0.99571 0.63142 0.0
C240 C 0.64575 0.71657 0.91526 0.0
C241 C 0.66771 0.75032 0.89434 0.0
C242 C 0.65372 0.71436 0.95386 0.0
C243 C 0.73702 0.75841 1.01928 0.0
H244 H 0.66402 0.69053 0.09433 0.0
C245 C 0.78461 0.74674 0.17144 0.0
C246 C 0.76988 0.71029 0.1879 0.0
C247 C 0.76942 0.75183 0.13746 0.0
C248 C 0.68476 0.70929 0.07354 0.0
H249 H 0.71346 0.8092 0.89806 0.0
H250 H 0.72686 0.80593 0.9661 0.0
H251 H 0.64095 0.7025 1.03385 0.0
H252 H 0.72674 0.65052 0.18191 0.0
H253 H 0.69986 0.65935 0.12173 0.0
H254 H 0.78077 0.76507 0.05869 0.0
C255 C 0.70381 0.78079 0.95244 0.0
C256 C 0.67157 0.71633 0.03887 0.0
C257 C 0.6957 0.78299 0.91363 0.0
C258 C 0.73885 0.6789 0.16978 0.0
C259 C 0.72337 0.68405 0.13549 0.0
C260 C 0.75013 0.75151 0.05388 0.0
C261 C 0.68407 0.74589 0.97259 0.0
C262 C 0.69755 0.74091 1.01113 0.0
C263 C 0.73887 0.72063 0.1187 0.0
C264 C 0.72425 0.72684 0.0815 0.0
H265 H 0.6243 0.69082 0.9009 0.0
H266 H 0.63796 0.68695 0.96802 0.0
H267 H 0.75803 0.77663 0.99843 0.0
H268 H 0.80822 0.77169 0.1848 0.0
H269 H 0.78161 0.78047 0.12594 0.0
C270 C 0.92313 0.22486 0.40492 0.0
C271 C 0.91132 0.25102 0.39431 0.0
C272 C 0.94138 0.22859 0.44038 0.0
C273 C 0.99496 0.30446 0.51362 0.0
H274 H 0.99296 0.22261 0.57354 0.0
C275 C 0.0502 0.32674 0.66792 0.0
C276 C 0.07781 0.3163 0.67673 0.0
C277 C 0.0301 0.31574 0.63331 0.0
C278 C 0.99399 0.24569 0.55679 0.0
H279 H 0.90475 0.29822 0.41426 0.0
H280 H 0.93375 0.30303 0.47654 0.0
H281 H 0.95413 0.20729 0.51484 0.0
H282 H 0.1053 0.28517 0.65669 0.0
H283 H 0.06922 0.26512 0.59575 0.0
H284 H 0.0337 0.34265 0.55608 0.0
C285 C 0.93148 0.28122 0.45688 0.0
C286 C 0.97178 0.23699 0.52318 0.0
C287 C 0.91423 0.27809 0.42132 0.0
C288 C 0.08437 0.29384 0.65043 0.0
C289 C 0.06362 0.28219 0.6158 0.0
C290 C 0.01655 0.313 0.54727 0.0
C291 C 0.94721 0.25794 0.46619 0.0
C292 C 0.97148 0.26629 0.50145 0.0
C293 C 0.03662 0.2935 0.6068 0.0
C294 C 0.01598 0.28378 0.56948 0.0
H295 H 0.92043 0.20303 0.38512 0.0
H296 H 0.95265 0.20978 0.44658 0.0
H297 H 0.99679 0.32803 0.49714 0.0
H298 H 0.04435 0.34389 0.68767 0.0
H299 H 0.00927 0.32462 0.62725 0.0
C300 C 0.48651 0.11236 0.21546 0.0
C301 C 0.46062 0.08256 0.23916 0.0
C302 C 0.52506 0.12225 0.21433 0.0
C303 C 0.59492 0.09153 0.2371 0.0
H304 H 0.6635 0.19927 0.25826 0.0
C305 C 0.75399 0.15022 0.27834 0.0
C306 C 0.78131 0.1873 0.26657 0.0
C307 C 0.71481 0.13637 0.27263 0.0
C308 C 0.64504 0.16924 0.2516 0.0
H309 H 0.45411 0.03797 0.27812 0.0
H310 H 0.52157 0.05477 0.27549 0.0
H311 H 0.59527 0.17545 0.24983 0.0
H312 H 0.78883 0.23868 0.23891 0.0
H313 H 0.72071 0.21419 0.22775 0.0
H314 H 0.64465 0.08529 0.23824 0.0
C315 C 0.51201 0.07063 0.25804 0.0
C316 C 0.60581 0.15557 0.2469 0.0
C317 C 0.47341 0.06097 0.25949 0.0
C318 C 0.76854 0.21011 0.24864 0.0
C319 C 0.72935 0.19606 0.24242 0.0
C320 C 0.63432 0.1053 0.24126 0.0
C321 C 0.53847 0.10229 0.23654 0.0
C322 C 0.58029 0.11656 0.23977 0.0
C323 C 0.70187 0.15903 0.2545 0.0
C324 C 0.65995 0.14435 0.24884 0.0
H325 H 0.47749 0.12952 0.19943 0.0
H326 H 0.5447 0.14641 0.19707 0.0
H327 H 0.57593 0.06136 0.23142 0.0
H328 H 0.76278 0.13197 0.29256 0.0
H329 H 0.6947 0.10807 0.28309 0.0
C330 C 0.59684 0.52809 0.2608 0.0
C331 C 0.6315 0.5407 0.24123 0.0
C332 C 0.56878 0.48917 0.26087 0.0
C333 C 0.56175 0.39506 0.25297 0.0
H334 H 0.45218 0.35552 0.24691 0.0
C335 C 0.4529 0.23215 0.25539 0.0
C336 C 0.41778 0.21971 0.27405 0.0
C337 C 0.4784 0.27127 0.24976 0.0
C338 C 0.48267 0.36606 0.2492 0.0
H339 H 0.66299 0.52285 0.20453 0.0
H340 H 0.61409 0.4552 0.20447 0.0
H341 H 0.49629 0.42387 0.23835 0.0
H342 H 0.38252 0.23899 0.3023 0.0
H343 H 0.42723 0.30682 0.29354 0.0
H344 H 0.54843 0.33771 0.26481 0.0
C345 C 0.60872 0.47519 0.22017 0.0
C346 C 0.50795 0.40529 0.24409 0.0
C347 C 0.63657 0.51404 0.21989 0.0
C348 C 0.40915 0.24741 0.28754 0.0
C349 C 0.43475 0.28646 0.28221 0.0
C350 C 0.53652 0.35593 0.25842 0.0
C351 C 0.57499 0.46211 0.24159 0.0
C352 C 0.54781 0.42027 0.24587 0.0
C353 C 0.46961 0.29902 0.26293 0.0
C354 C 0.49658 0.3408 0.25667 0.0
H355 H 0.59223 0.54794 0.2777 0.0
H356 H 0.54316 0.48004 0.27772 0.0
H357 H 0.59228 0.40573 0.25525 0.0
H358 H 0.46041 0.21167 0.24438 0.0
H359 H 0.50467 0.27966 0.23435 0.0
C360 C 0.93582 0.40607 0.25811 0.0
C361 C 0.91198 0.37069 0.24014 0.0
C362 C 0.92614 0.43501 0.25766 0.0
C363 C 0.84061 0.4449 0.25312 0.0
H364 H 0.91152 0.55297 0.23802 0.0
C365 C 0.78841 0.55493 0.25385 0.0
C366 C 0.81283 0.59149 0.26927 0.0
C367 C 0.80152 0.52902 0.24812 0.0
C368 C 0.89137 0.52297 0.24288 0.0
H369 H 0.8605 0.3387 0.20584 0.0
H370 H 0.84365 0.389 0.20511 0.0
H371 H 0.93381 0.50701 0.23086 0.0
H372 H 0.87021 0.62919 0.29117 0.0
H373 H 0.89261 0.58376 0.28246 0.0
H374 H 0.79847 0.46048 0.26642 0.0
C375 C 0.86962 0.39433 0.21982 0.0
C376 C 0.9042 0.49662 0.23855 0.0
C377 C 0.87948 0.36563 0.21995 0.0
C378 C 0.85064 0.60139 0.27897 0.0
C379 C 0.86361 0.57532 0.27369 0.0
C380 C 0.82791 0.47119 0.25793 0.0
C381 C 0.89221 0.42893 0.23957 0.0
C382 C 0.8789 0.45725 0.24346 0.0
C383 C 0.83929 0.53872 0.25812 0.0
C384 C 0.85303 0.51067 0.25279 0.0
H385 H 0.96093 0.41071 0.27408 0.0
H386 H 0.9441 0.46132 0.2732 0.0
H387 H 0.82055 0.41482 0.25785 0.0
H388 H 0.75922 0.54642 0.24572 0.0
H389 H 0.78203 0.5015 0.23539 0.0
C390 C 0.06506 0.44278 0.75993 0.0
C391 C 0.0803 0.42975 0.78856 0.0
C392 C 0.07152 0.48037 0.76142 0.0
C393 C 0.14437 0.57329 0.79987 0.0
H394 H 0.07364 0.60882 0.77444 0.0
C395 C 0.1883 0.73152 0.81771 0.0
C396 C 0.17731 0.74802 0.78857 0.0
C397 C 0.17292 0.69185 0.81901 0.0
C398 C 0.09381 0.59933 0.78129 0.0
H399 H 0.11082 0.44386 0.84274 0.0
H400 H 0.1212 0.50854 0.8458 0.0
H401 H 0.05122 0.54004 0.77402 0.0
H402 H 0.14123 0.73621 0.73834 0.0
H403 H 0.11498 0.66709 0.74009 0.0
H404 H 0.18713 0.63205 0.80649 0.0
C405 C 0.1054 0.4906 0.82166 0.0
C406 C 0.08093 0.55998 0.78107 0.0
C407 C 0.09928 0.45351 0.82001 0.0
C408 C 0.1502 0.72418 0.76115 0.0
C409 C 0.13495 0.68454 0.76232 0.0
C410 C 0.15723 0.61241 0.79994 0.0
C411 C 0.09311 0.50506 0.79164 0.0
C412 C 0.10605 0.54658 0.79075 0.0
C413 C 0.14642 0.6679 0.79103 0.0
C414 C 0.13212 0.626 0.79095 0.0
H415 H 0.05049 0.42494 0.73533 0.0
H416 H 0.06164 0.49078 0.73791 0.0
H417 H 0.16471 0.56395 0.80655 0.0
H418 H 0.20894 0.74925 0.83935 0.0
H419 H 0.18189 0.67996 0.84193 0.0
C420 C 0.36623 0.92202 0.73679 0.0
C421 C 0.35362 0.93097 0.77051 0.0
C422 C 0.39714 0.9152 0.73782 0.0
C423 C 0.44276 0.88079 0.80703 0.0
H424 H 0.5139 0.89939 0.72454 0.0
C425 C 0.55829 0.83536 0.81617 0.0
C426 C 0.5639 0.81904 0.78309 0.0
C427 C 0.53521 0.85227 0.81495 0.0
C428 C 0.49402 0.89374 0.74772 0.0
H429 H 0.36406 0.94169 0.83122 0.0
H430 H 0.419 0.93161 0.83293 0.0
H431 H 0.47161 0.92654 0.72132 0.0
H432 H 0.54968 0.80742 0.72285 0.0
H433 H 0.50919 0.83657 0.72074 0.0
H434 H 0.46474 0.84766 0.83321 0.0
C435 C 0.40484 0.92906 0.80576 0.0
C436 C 0.46981 0.90937 0.74589 0.0
C437 C 0.37383 0.93554 0.80473 0.0
C438 C 0.54583 0.81975 0.74884 0.0
C439 C 0.52292 0.83678 0.74755 0.0
C440 C 0.46699 0.8653 0.8089 0.0
C441 C 0.41581 0.91708 0.77269 0.0
C442 C 0.44366 0.90291 0.77543 0.0
C443 C 0.51739 0.85338 0.78055 0.0
C444 C 0.49271 0.87127 0.77914 0.0
H445 H 0.3503 0.91727 0.71032 0.0
H446 H 0.40452 0.90577 0.71184 0.0
H447 H 0.42242 0.87435 0.82994 0.0
H448 H 0.57205 0.83541 0.84291 0.0
H449 H 0.53184 0.86505 0.84083 0.0
C450 C 0.27493 0.42494 0.75901 0.0
C451 C 0.25225 0.42729 0.78814 0.0
C452 C 0.31473 0.44894 0.75931 0.0
C453 C 0.39667 0.51037 0.82291 0.0
H454 H 0.44789 0.5585 0.7282 0.0
C455 C 0.54505 0.64538 0.81883 0.0
C456 C 0.57029 0.65115 0.78865 0.0
C457 C 0.5086 0.61309 0.81972 0.0
C458 C 0.43423 0.54471 0.75476 0.0
H459 H 0.25338 0.45651 0.84052 0.0
H460 H 0.32311 0.49878 0.84108 0.0
H461 H 0.37913 0.51319 0.72777 0.0
H462 H 0.57789 0.62678 0.73654 0.0
H463 H 0.51354 0.56965 0.73797 0.0
H464 H 0.45162 0.54239 0.85002 0.0
C465 C 0.31012 0.47806 0.81814 0.0
C466 C 0.39471 0.51882 0.75456 0.0
C467 C 0.27018 0.45406 0.81774 0.0
C468 C 0.55906 0.62285 0.76025 0.0
C469 C 0.52213 0.59045 0.76091 0.0
C470 C 0.43617 0.53616 0.8231 0.0
C471 C 0.33289 0.47585 0.78885 0.0
C472 C 0.3753 0.50182 0.78875 0.0
C473 C 0.49618 0.58567 0.79028 0.0
C474 C 0.45536 0.55425 0.78916 0.0
H475 H 0.26191 0.40448 0.73585 0.0
H476 H 0.33134 0.44612 0.73656 0.0
H477 H 0.38282 0.4972 0.84961 0.0
H478 H 0.55301 0.66669 0.8412 0.0
H479 H 0.48944 0.61072 0.84254 0.0
C480 C 0.21238 0.15874 0.3344 0.0
C481 C 0.2349 0.16366 0.30205 0.0
C482 C 0.19024 0.17667 0.33645 0.0
C483 C 0.1446 0.21603 0.27369 0.0
H484 H 0.13252 0.2605 0.36724 0.0
C485 C 0.04242 0.27618 0.27701 0.0
C486 C 0.01643 0.26209 0.30748 0.0
C487 C 0.07579 0.27347 0.2781 0.0
C488 C 0.13558 0.24818 0.34088 0.0
H489 H 0.25284 0.19189 0.24705 0.0
H490 H 0.21465 0.22312 0.25071 0.0
H491 H 0.17639 0.23512 0.36607 0.0
H492 H 0.00654 0.23764 0.36438 0.0
H493 H 0.06421 0.23278 0.36625 0.0
H494 H 0.10307 0.22778 0.24872 0.0
C495 C 0.21349 0.20511 0.27425 0.0
C496 C 0.1606 0.23351 0.34028 0.0
C497 C 0.2355 0.18729 0.27223 0.0
C498 C 0.026 0.24851 0.34035 0.0
C499 C 0.05925 0.24592 0.3415 0.0
C500 C 0.11956 0.23053 0.27431 0.0
C501 C 0.19025 0.19971 0.30614 0.0
C502 C 0.16504 0.21687 0.30677 0.0
C503 C 0.08372 0.2568 0.30974 0.0
C504 C 0.11429 0.24632 0.30803 0.0
H505 H 0.2115 0.14071 0.35779 0.0
H506 H 0.17237 0.17169 0.36128 0.0
H507 H 0.14692 0.20292 0.24753 0.0
H508 H 0.03566 0.28661 0.25124 0.0
H509 H 0.09443 0.28276 0.25342 0.0
C510 C 0.94905 0.81464 0.32092 0.0
C511 C 0.9313 0.77478 0.32476 0.0
C512 C 0.98893 0.83734 0.32323 0.0
C513 C 0.07748 0.83386 0.3092 0.0
H514 H 0.12405 0.93204 0.36101 0.0
C515 C 0.23369 0.97729 0.34655 0.0
C516 C 0.24981 0.98598 0.30988 0.0
C517 C 0.19756 0.94541 0.35232 0.0
C518 C 0.11171 0.90446 0.34688 0.0
H519 H 0.94109 0.7273 0.3347 0.0
H520 H 0.011 0.76708 0.33884 0.0
H521 H 0.05522 0.88936 0.36494 0.0
H522 H 0.24232 0.96713 0.25091 0.0
H523 H 0.17859 0.91133 0.26073 0.0
H524 H 0.13421 0.84941 0.29074 0.0
C525 C 0.99406 0.78074 0.33384 0.0
C526 C 0.07211 0.8802 0.34876 0.0
C527 C 0.95408 0.75804 0.33182 0.0
C528 C 0.23066 0.96056 0.27958 0.0
C529 C 0.19411 0.92874 0.28524 0.0
C530 C 0.11726 0.85831 0.30716 0.0
C531 C 0.01194 0.82062 0.32921 0.0
C532 C 0.05443 0.84486 0.32955 0.0
C533 C 0.17643 0.92194 0.32134 0.0
C534 C 0.13479 0.89407 0.32574 0.0
H535 H 0.93218 0.82825 0.31521 0.0
H536 H 1.00182 0.86793 0.31912 0.0
H537 H 0.06464 0.8069 0.29384 0.0
H538 H 0.248 0.99658 0.37033 0.0
H539 H 0.18521 0.94045 0.38066 0.0
C540 C 0.86954 0.05392 0.32224 0.0
C541 C 0.84717 0.07154 0.32507 0.0
C542 C 0.85242 0.0141 0.32407 0.0
C543 C 0.76102 0.92586 0.30642 0.0
H544 H 0.8106 0.87881 0.36133 0.0
C545 C 0.74581 0.76943 0.34567 0.0
C546 C 0.74 0.75339 0.30891 0.0
C547 C 0.75012 0.80564 0.35091 0.0
C548 C 0.79595 0.89132 0.34628 0.0
H549 H 0.78952 0.06161 0.33276 0.0
H550 H 0.75952 0.99185 0.33601 0.0
H551 H 0.83679 0.94758 0.36572 0.0
H552 H 0.73134 0.76106 0.24913 0.0
H553 H 0.7393 0.82491 0.2581 0.0
H554 H 0.72044 0.86937 0.28655 0.0
C555 C 0.79025 0.00882 0.33219 0.0
C556 C 0.81131 0.93086 0.34845 0.0
C557 C 0.80746 0.04872 0.33068 0.0
C558 C 0.73523 0.77267 0.27783 0.0
C559 C 0.73999 0.80929 0.28301 0.0
C560 C 0.74571 0.88616 0.30405 0.0
C561 C 0.81251 0.99106 0.3285 0.0
C562 C 0.79434 0.94867 0.32822 0.0
C563 C 0.74936 0.82687 0.31937 0.0
C564 C 0.76319 0.86847 0.32378 0.0
H565 H 0.90018 0.07084 0.31764 0.0
H566 H 0.87032 0.00129 0.32076 0.0
H567 H 0.74748 0.93884 0.29025 0.0
H568 H 0.74951 0.75498 0.37008 0.0
H569 H 0.75632 0.81794 0.37941 0.0
C570 C 0.09811 0.20922 0.76084 0.0
C571 C 0.10991 0.23482 0.79189 0.0
C572 C 0.11221 0.18393 0.75687 0.0
C573 C 0.15728 0.13786 0.80942 0.0
H574 H 0.2102 0.14462 0.71471 0.0
C575 C 0.25617 0.07553 0.80179 0.0
C576 C 0.25312 0.0538 0.7693 0.0
C577 C 0.24035 0.09936 0.80174 0.0
C578 C 0.19518 0.14204 0.74114 0.0
H579 H 0.14362 0.25274 0.84417 0.0
H580 H 0.1672 0.2079 0.83791 0.0
H581 H 0.1738 0.17806 0.72075 0.0
H582 H 0.2335 0.04148 0.71046 0.0
H583 H 0.20492 0.08259 0.71048 0.0
H584 H 0.178 0.10173 0.82995 0.0
C585 C 0.14752 0.20756 0.81644 0.0
C586 C 0.17426 0.16107 0.74452 0.0
C587 C 0.13407 0.23322 0.82 0.0
C588 C 0.23651 0.05833 0.73575 0.0
C589 C 0.22003 0.08177 0.73587 0.0
C590 C 0.17778 0.1186 0.80595 0.0
C591 C 0.13757 0.18341 0.78435 0.0
C592 C 0.1557 0.15965 0.77895 0.0
C593 C 0.22039 0.10128 0.76944 0.0
C594 C 0.19768 0.12107 0.77208 0.0
H595 H 0.0798 0.21025 0.73859 0.0
H596 H 0.10398 0.16539 0.732 0.0
H597 H 0.14287 0.13599 0.83611 0.0
H598 H 0.26903 0.07257 0.82794 0.0
H599 H 0.24233 0.115 0.82766 0.0
C600 C 0.09526 0.84553 0.81381 0.0
C601 C 0.12067 0.87812 0.79285 0.0
C602 C 0.05571 0.83086 0.81137 0.0
C603 C 0.98226 0.82314 0.74526 0.0
H604 H 0.91653 0.79181 0.83428 0.0
C605 C 0.81968 0.77028 0.73528 0.0
C606 C 0.79524 0.74482 0.76315 0.0
C607 C 0.85926 0.78461 0.73734 0.0
C608 C 0.93427 0.79962 0.809 0.0
H609 H 0.12463 0.92153 0.75362 0.0
H610 H 0.05509 0.89541 0.74885 0.0
H611 H 0.98579 0.82322 0.84271 0.0
H612 H 0.79251 0.71211 0.81332 0.0
H613 H 0.86128 0.73543 0.81588 0.0
H614 H 0.93097 0.79862 0.71139 0.0
C615 C 0.06601 0.88141 0.76731 0.0
C616 C 0.97405 0.81802 0.81393 0.0
C617 C 0.10575 0.89656 0.77033 0.0
C618 C 0.81073 0.7318 0.7915 0.0
C619 C 0.85026 0.74567 0.79326 0.0
C620 C 0.94241 0.80422 0.74026 0.0
C621 C 0.04061 0.84807 0.78738 0.0
C622 C 0.99846 0.83005 0.78214 0.0
C623 C 0.87527 0.77339 0.76706 0.0
C624 C 0.91779 0.79221 0.77208 0.0
H625 H 0.10593 0.83071 0.83142 0.0
H626 H 0.03685 0.80507 0.82703 0.0
H627 H 1.00041 0.83157 0.72021 0.0
H628 H 0.80857 0.78108 0.71325 0.0
H629 H 0.87736 0.80605 0.71677 0.0
C630 C 0.91844 0.18748 0.78999 0.0
C631 C 0.94505 0.20526 0.76046 0.0
C632 C 0.89373 0.14784 0.78968 0.0
C633 C 0.8899 0.06034 0.7551 0.0
H634 H 0.78395 0.01149 0.78738 0.0
C635 C 0.78862 0.89451 0.75985 0.0
C636 C 0.7607 0.88033 0.78863 0.0
C637 C 0.81258 0.93415 0.7553 0.0
C638 C 0.81367 0.02463 0.77884 0.0
H639 H 0.96536 0.19589 0.70643 0.0
H640 H 0.92214 0.12658 0.70589 0.0
H641 H 0.82005 0.08062 0.77928 0.0
H642 H 0.73789 0.89595 0.837 0.0
H643 H 0.78046 0.96447 0.83027 0.0
H644 H 0.88382 0.00441 0.75554 0.0
C645 C 0.92058 0.14325 0.7294 0.0
C646 C 0.83426 0.06429 0.77396 0.0
C647 C 0.945 0.18298 0.7295 0.0
C648 C 0.75895 0.90616 0.81432 0.0
C649 C 0.78307 0.94549 0.81014 0.0
C650 C 0.86937 0.02059 0.76028 0.0
C651 C 0.89541 0.12514 0.76 0.0
C652 C 0.8727 0.08267 0.76238 0.0
C653 C 0.80917 0.96015 0.7797 0.0
C654 C 0.8311 0.00227 0.77273 0.0
H655 H 0.91806 0.20392 0.81434 0.0
H656 H 0.87477 0.13474 0.81375 0.0
H657 H 0.91967 0.07375 0.74658 0.0
H658 H 0.79026 0.87517 0.73943 0.0
H659 H 0.83234 0.94437 0.73153 0.0
loop_
_geom_bond_atom_site_label_1
_geom_bond_atom_site_label_2
_geom_bond_distance
_geom_bond_site_symmetry_2
_ccdc_geom_bond_type
Dy0 O4 2.398 . S
Dy0 O5 2.491 . S
Dy0 O6 2.403 . S
Dy0 O7 2.664 . S
Dy0 O11 2.326 . S
Dy0 O15 2.310 . S
Dy0 O16 2.351 . S
C1 O12 1.185 . S
C1 O13 1.355 . S
C2 O4 1.185 . S
C2 O5 1.355 . S
Dy3 O7 2.310 . S
Dy3 O10 2.351 . S
Dy3 O12 2.398 . S
Dy3 O13 2.491 . S
Dy3 O14 2.403 . S
Dy3 O15 2.664 . S
Dy3 O17 2.326 . S
O4 Dy0 2.398 . S
O4 C2 1.185 . S
O5 Dy0 2.491 . S
O5 C2 1.355 . S
O6 Dy0 2.403 . S
O6 C8 1.254 . S
O7 Dy0 2.664 . S
O7 Dy3 2.310 . S
O7 C8 1.268 . S
C8 O6 1.254 . S
C8 O7 1.268 . S
C9 O14 1.254 . S
C9 O15 1.268 . S
O10 Dy3 2.351 . S
O10 C18 1.249 . S
O11 Dy0 2.326 . S
O11 C18 1.267 . S
O12 C1 1.185 . S
O12 Dy3 2.398 . S
O13 C1 1.355 . S
O13 Dy3 2.491 . S
O14 Dy3 2.403 . S
O14 C9 1.254 . S
O15 Dy0 2.310 . S
O15 Dy3 2.664 . S
O15 C9 1.268 . S
O16 Dy0 2.351 . S
O16 C19 1.249 . S
O17 Dy3 2.326 . S
O17 C19 1.267 . S
C18 O10 1.249 . S
C18 O11 1.267 . S
C19 O16 1.249 . S
C19 O17 1.267 . S
Dy20 O24 2.398 . S
Dy20 O25 2.491 . S
Dy20 O26 2.403 . S
Dy20 O27 2.664 . S
Dy20 O31 2.326 . S
Dy20 O35 2.310 . S
Dy20 O36 2.351 . S
C21 O32 1.185 . S
C21 O33 1.355 . S
C22 O24 1.185 . S
C22 O25 1.355 . S
Dy23 O27 2.310 . S
Dy23 O30 2.351 . S
Dy23 O32 2.398 . S
Dy23 O33 2.491 . S
Dy23 O34 2.403 . S
Dy23 O35 2.664 . S
Dy23 O37 2.326 . S
O24 Dy20 2.398 . S
O24 C22 1.185 . S
O25 Dy20 2.491 . S
O25 C22 1.355 . S
O26 Dy20 2.403 . S
O26 C28 1.254 . S
O27 Dy20 2.664 . S
O27 Dy23 2.310 . S
O27 C28 1.268 . S
C28 O26 1.254 . S
C28 O27 1.268 . S
C29 O34 1.254 . S
C29 O35 1.268 . S
O30 Dy23 2.351 . S
O30 C38 1.249 . S
O31 Dy20 2.326 . S
O31 C38 1.267 . S
O32 C21 1.185 . S
O32 Dy23 2.398 . S
O33 C21 1.355 . S
O33 Dy23 2.491 . S
O34 Dy23 2.403 . S
O34 C29 1.254 . S
O35 Dy20 2.310 . S
O35 Dy23 2.664 . S
O35 C29 1.268 . S
O36 Dy20 2.351 . S
O36 C39 1.249 . S
O37 Dy23 2.326 . S
O37 C39 1.267 . S
C38 O30 1.249 . S
C38 O31 1.267 . S
C39 O36 1.249 . S
C39 O37 1.267 . S
Dy40 O44 2.398 . S
Dy40 O45 2.491 . S
Dy40 O46 2.403 . S
Dy40 O47 2.664 . S
Dy40 O51 2.326 . S
Dy40 O55 2.310 . S
Dy40 O56 2.351 . S
C41 O52 1.185 . S
C41 O53 1.355 . S
C42 O44 1.185 . S
C42 O45 1.355 . S
Dy43 O47 2.310 . S
Dy43 O50 2.351 . S
Dy43 O52 2.398 . S
Dy43 O53 2.491 . S
Dy43 O54 2.403 . S
Dy43 O55 2.664 . S
Dy43 O57 2.326 . S
O44 Dy40 2.398 . S
O44 C42 1.185 . S
O45 Dy40 2.491 . S
O45 C42 1.355 . S
O46 Dy40 2.403 . S
O46 C48 1.254 . S
O47 Dy40 2.664 . S
O47 Dy43 2.310 . S
O47 C48 1.268 . S
C48 O46 1.254 . S
C48 O47 1.268 . S
C49 O54 1.254 . S
C49 O55 1.268 . S
O50 Dy43 2.351 . S
O50 C58 1.249 . S
O51 Dy40 2.326 . S
O51 C58 1.267 . S
O52 C41 1.185 . S
O52 Dy43 2.398 . S
O53 C41 1.355 . S
O53 Dy43 2.491 . S
O54 Dy43 2.403 . S
O54 C49 1.254 . S
O55 Dy40 2.310 . S
O55 Dy43 2.664 . S
O55 C49 1.268 . S
O56 Dy40 2.351 . S
O56 C59 1.249 . S
O57 Dy43 2.326 . S
O57 C59 1.267 . S
C58 O50 1.249 . S
C58 O51 1.267 . S
C59 O56 1.249 . S
C59 O57 1.267 . S
Dy60 O64 2.398 1_455 S
Dy60 O65 2.491 . S
Dy60 O66 2.403 . S
Dy60 O67 2.664 . S
Dy60 O71 2.326 . S
Dy60 O75 2.310 . S
Dy60 O76 2.351 . S
C61 O72 1.185 . S
C61 O73 1.355 . S
C62 O64 1.185 . S
C62 O65 1.355 1_655 S
Dy63 O67 2.310 . S
Dy63 O70 2.351 . S
Dy63 O72 2.398 . S
Dy63 O73 2.491 . S
Dy63 O74 2.403 . S
Dy63 O75 2.664 . S
Dy63 O77 2.326 . S
O64 Dy60 2.398 1_655 S
O64 C62 1.185 . S
O65 Dy60 2.491 . S
O65 C62 1.355 1_455 S
O66 Dy60 2.403 . S
O66 C68 1.254 . S
O67 Dy60 2.664 . S
O67 Dy63 2.310 . S
O67 C68 1.268 . S
C68 O66 1.254 . S
C68 O67 1.268 . S
C69 O74 1.254 . S
C69 O75 1.268 . S
O70 Dy63 2.351 . S
O70 C78 1.249 . S
O71 Dy60 2.326 . S
O71 C78 1.267 . S
O72 C61 1.185 . S
O72 Dy63 2.398 . S
O73 C61 1.355 . S
O73 Dy63 2.491 . S
O74 Dy63 2.403 . S
O74 C69 1.254 . S
O75 Dy60 2.310 . S
O75 Dy63 2.664 . S
O75 C69 1.268 . S
O76 Dy60 2.351 . S
O76 C79 1.249 . S
O77 Dy63 2.326 . S
O77 C79 1.267 . S
C78 O70 1.249 . S
C78 O71 1.267 . S
C79 O76 1.249 . S
C79 O77 1.267 . S
Dy80 O84 2.398 1_565 S
Dy80 O85 2.491 . S
Dy80 O86 2.403 . S
Dy80 O87 2.664 . S
Dy80 O91 2.326 . S
Dy80 O95 2.310 . S
Dy80 O96 2.351 . S
C81 O92 1.185 . S
C81 O93 1.355 . S
C82 O84 1.185 . S
C82 O85 1.355 1_545 S
Dy83 O87 2.310 . S
Dy83 O90 2.351 . S
Dy83 O92 2.398 . S
Dy83 O93 2.491 . S
Dy83 O94 2.403 . S
Dy83 O95 2.664 . S
Dy83 O97 2.326 . S
O84 Dy80 2.398 1_545 S
O84 C82 1.185 . S
O85 Dy80 2.491 . S
O85 C82 1.355 1_565 S
O86 Dy80 2.403 . S
O86 C88 1.254 . S
O87 Dy80 2.664 . S
O87 Dy83 2.310 . S
O87 C88 1.268 . S
C88 O86 1.254 . S
C88 O87 1.268 . S
C89 O94 1.254 . S
C89 O95 1.268 . S
O90 Dy83 2.351 . S
O90 C98 1.249 . S
O91 Dy80 2.326 . S
O91 C98 1.267 . S
O92 C81 1.185 . S
O92 Dy83 2.398 . S
O93 C81 1.355 . S
O93 Dy83 2.491 . S
O94 Dy83 2.403 . S
O94 C89 1.254 . S
O95 Dy80 2.310 . S
O95 Dy83 2.664 . S
O95 C89 1.268 . S
O96 Dy80 2.351 . S
O96 C99 1.249 . S
O97 Dy83 2.326 . S
O97 C99 1.267 . S
C98 O90 1.249 . S
C98 O91 1.267 . S
C99 O96 1.249 . S
C99 O97 1.267 . S
Dy100 O104 2.398 . S
Dy100 O105 2.491 . S
Dy100 O106 2.403 . S
Dy100 O107 2.664 . S
Dy100 O111 2.326 . S
Dy100 O115 2.310 . S
Dy100 O116 2.351 . S
C101 O112 1.185 . S
C101 O113 1.355 . S
C102 O104 1.185 . S
C102 O105 1.355 . S
Dy103 O107 2.310 . S
Dy103 O110 2.351 . S
Dy103 O112 2.398 . S
Dy103 O113 2.491 . S
Dy103 O114 2.403 . S
Dy103 O115 2.664 . S
Dy103 O117 2.326 . S
O104 Dy100 2.398 . S
O104 C102 1.185 . S
O105 Dy100 2.491 . S
O105 C102 1.355 . S
O106 Dy100 2.403 . S
O106 C108 1.254 . S
O107 Dy100 2.664 . S
O107 Dy103 2.310 . S
O107 C108 1.268 . S
C108 O106 1.254 . S
C108 O107 1.268 . S
C109 O114 1.254 . S
C109 O115 1.268 . S
O110 Dy103 2.351 . S
O110 C118 1.249 . S
O111 Dy100 2.326 . S
O111 C118 1.267 . S
O112 C101 1.185 . S
O112 Dy103 2.398 . S
O113 C101 1.355 . S
O113 Dy103 2.491 . S
O114 Dy103 2.403 . S
O114 C109 1.254 . S
O115 Dy100 2.310 . S
O115 Dy103 2.664 . S
O115 C109 1.268 . S
O116 Dy100 2.351 . S
O116 C119 1.249 . S
O117 Dy103 2.326 . S
O117 C119 1.267 . S
C118 O110 1.249 . S
C118 O111 1.267 . S
C119 O116 1.249 . S
C119 O117 1.267 . S
C120 C121 1.349 . S
C120 C122 1.327 . S
C120 H145 0.950 . S
C121 C120 1.349 . S
C121 C137 1.349 . S
C122 C120 1.327 . S
C122 C141 1.429 . S
C122 H146 0.950 . S
C123 C140 1.574 1_556 S
C123 C142 1.368 1_545 S
C123 H147 0.949 . S
H124 C128 0.949 . S
C125 C126 1.349 . S
C125 C127 1.327 . S
C125 H148 0.950 . S
C126 C125 1.349 . S
C126 C138 1.349 . S
C127 C125 1.327 . S
C127 C143 1.429 . S
C127 H149 0.950 . S
C128 H124 0.949 . S
C128 C136 1.574 1_554 S
C128 C144 1.368 1_565 S
H129 C137 0.950 . S
H130 C135 0.950 . S
H131 C136 0.949 . S
H132 C138 0.950 . S
H133 C139 0.950 . S
H134 C140 0.949 . S
C135 H130 0.950 . S
C135 C137 1.327 . S
C135 C141 1.429 . S
C136 C128 1.574 1_556 S
C136 H131 0.949 . S
C136 C142 1.368 . S
C137 C121 1.349 . S
C137 H129 0.950 . S
C137 C135 1.327 . S
C138 C126 1.349 . S
C138 H132 0.950 . S
C138 C139 1.327 . S
C139 H133 0.950 . S
C139 C138 1.327 . S
C139 C143 1.429 . S
C140 C123 1.574 1_554 S
C140 H134 0.949 . S
C140 C144 1.368 . S
C141 C122 1.429 . S
C141 C135 1.429 . S
C141 C142 1.523 . S
C142 C123 1.368 1_565 S
C142 C136 1.368 . S
C142 C141 1.523 . S
C143 C127 1.429 . S
C143 C139 1.429 . S
C143 C144 1.523 . S
C144 C128 1.368 1_545 S
C144 C140 1.368 . S
C144 C143 1.523 . S
H145 C120 0.950 . S
H146 C122 0.950 . S
H147 C123 0.949 . S
H148 C125 0.950 . S
H149 C127 0.950 . S
C150 C151 1.349 . S
C150 C152 1.327 . S
C150 H175 0.950 . S
C151 C150 1.349 . S
C151 C167 1.349 . S
C152 C150 1.327 . S
C152 C171 1.429 . S
C152 H176 0.950 . S
C153 C170 1.574 . S
C153 C172 1.368 . S
C153 H177 0.949 . S
H154 C158 0.949 . S
C155 C156 1.349 . S
C155 C157 1.327 . S
C155 H178 0.950 . S
C156 C155 1.349 . S
C156 C168 1.349 . S
C157 C155 1.327 . S
C157 C173 1.429 . S
C157 H179 0.950 . S
C158 H154 0.949 . S
C158 C166 1.574 . S
C158 C174 1.368 . S
H159 C167 0.950 . S
H160 C165 0.950 . S
H161 C166 0.949 . S
H162 C168 0.950 . S
H163 C169 0.950 . S
H164 C170 0.949 . S
C165 H160 0.950 . S
C165 C167 1.327 . S
C165 C171 1.429 . S
C166 C158 1.574 . S
C166 H161 0.949 . S
C166 C172 1.368 . S
C167 C151 1.349 . S
C167 H159 0.950 . S
C167 C165 1.327 . S
C168 C156 1.349 . S
C168 H162 0.950 . S
C168 C169 1.327 . S
C169 H163 0.950 . S
C169 C168 1.327 . S
C169 C173 1.429 . S
C170 C153 1.574 . S
C170 H164 0.949 . S
C170 C174 1.368 . S
C171 C152 1.429 . S
C171 C165 1.429 . S
C171 C172 1.523 . S
C172 C153 1.368 . S
C172 C166 1.368 . S
C172 C171 1.523 . S
C173 C157 1.429 . S
C173 C169 1.429 . S
C173 C174 1.523 . S
C174 C158 1.368 . S
C174 C170 1.368 . S
C174 C173 1.523 . S
H175 C150 0.950 . S
H176 C152 0.950 . S
H177 C153 0.949 . S
H178 C155 0.950 . S
H179 C157 0.950 . S
C180 C181 1.349 . S
C180 C182 1.327 . S
C180 H205 0.950 . S
C181 C180 1.349 . S
C181 C197 1.349 . S
C182 C180 1.327 . S
C182 C201 1.429 . S
C182 H206 0.950 . S
C183 C200 1.574 1_554 S
C183 C202 1.368 1_455 S
C183 H207 0.949 . S
H184 C188 0.949 . S
C185 C186 1.349 . S
C185 C187 1.327 . S
C185 H208 0.950 . S
C186 C185 1.349 . S
C186 C198 1.349 . S
C187 C185 1.327 . S
C187 C203 1.429 . S
C187 H209 0.950 . S
C188 H184 0.949 . S
C188 C196 1.574 1_556 S
C188 C204 1.368 1_655 S
H189 C197 0.950 . S
H190 C195 0.950 . S
H191 C196 0.949 . S
H192 C198 0.950 . S
H193 C199 0.950 . S
H194 C200 0.949 . S
C195 H190 0.950 . S
C195 C197 1.327 . S
C195 C201 1.429 . S
C196 C188 1.574 1_554 S
C196 H191 0.949 . S
C196 C202 1.368 . S
C197 C181 1.349 . S
C197 H189 0.950 . S
C197 C195 1.327 . S
C198 C186 1.349 . S
C198 H192 0.950 . S
C198 C199 1.327 . S
C199 H193 0.950 . S
C199 C198 1.327 . S
C199 C203 1.429 . S
C200 C183 1.574 1_556 S
C200 H194 0.949 . S
C200 C204 1.368 . S
C201 C182 1.429 . S
C201 C195 1.429 . S
C201 C202 1.523 . S
C202 C183 1.368 1_655 S
C202 C196 1.368 . S
C202 C201 1.523 . S
C203 C187 1.429 . S
C203 C199 1.429 . S
C203 C204 1.523 . S
C204 C188 1.368 1_455 S
C204 C200 1.368 . S
C204 C203 1.523 . S
H205 C180 0.950 . S
H206 C182 0.950 . S
H207 C183 0.949 . S
H208 C185 0.950 . S
H209 C187 0.950 . S
C210 C211 1.349 . S
C210 C212 1.327 . S
C210 H235 0.950 . S
C211 C210 1.349 . S
C211 C227 1.349 . S
C212 C210 1.327 . S
C212 C231 1.429 . S
C212 H236 0.950 . S
C213 C230 1.574 . S
C213 C232 1.368 . S
C213 H237 0.949 . S
H214 C218 0.949 . S
C215 C216 1.349 . S
C215 C217 1.327 . S
C215 H238 0.950 . S
C216 C215 1.349 . S
C216 C228 1.349 . S
C217 C215 1.327 . S
C217 C233 1.429 . S
C217 H239 0.950 . S
C218 H214 0.949 . S
C218 C226 1.574 . S
C218 C234 1.368 . S
H219 C227 0.950 . S
H220 C225 0.950 . S
H221 C226 0.949 . S
H222 C228 0.950 . S
H223 C229 0.950 . S
H224 C230 0.949 . S
C225 H220 0.950 . S
C225 C227 1.327 . S
C225 C231 1.429 . S
C226 C218 1.574 . S
C226 H221 0.949 . S
C226 C232 1.368 1_565 S
C227 C211 1.349 . S
C227 H219 0.950 . S
C227 C225 1.327 . S
C228 C216 1.349 . S
C228 H222 0.950 . S
C228 C229 1.327 . S
C229 H223 0.950 . S
C229 C228 1.327 . S
C229 C233 1.429 . S
C230 C213 1.574 . S
C230 H224 0.949 . S
C230 C234 1.368 1_545 S
C231 C212 1.429 . S
C231 C225 1.429 . S
C231 C232 1.523 . S
C232 C213 1.368 . S
C232 C226 1.368 1_545 S
C232 C231 1.523 . S
C233 C217 1.429 . S
C233 C229 1.429 . S
C233 C234 1.523 . S
C234 C218 1.368 . S
C234 C230 1.368 1_565 S
C234 C233 1.523 . S
H235 C210 0.950 . S
H236 C212 0.950 . S
H237 C213 0.949 . S
H238 C215 0.950 . S
H239 C217 0.950 . S
C240 C241 1.349 . S
C240 C242 1.327 . S
C240 H265 0.950 . S
C241 C240 1.349 . S
C241 C257 1.349 . S
C242 C240 1.327 . S
C242 C261 1.429 . S
C242 H266 0.950 . S
C243 C260 1.574 1_556 S
C243 C262 1.368 . S
C243 H267 0.949 . S
H244 C248 0.949 . S
C245 C246 1.349 . S
C245 C247 1.327 . S
C245 H268 0.950 . S
C246 C245 1.349 . S
C246 C258 1.349 . S
C247 C245 1.327 . S
C247 C263 1.429 . S
C247 H269 0.950 . S
C248 H244 0.949 . S
C248 C256 1.574 1_554 S
C248 C264 1.368 . S
H249 C257 0.950 . S
H250 C255 0.950 . S
H251 C256 0.949 . S
H252 C258 0.950 . S
H253 C259 0.950 . S
H254 C260 0.949 . S
C255 H250 0.950 . S
C255 C257 1.327 . S
C255 C261 1.429 . S
C256 C248 1.574 1_556 S
C256 H251 0.949 . S
C256 C262 1.368 . S
C257 C241 1.349 . S
C257 H249 0.950 . S
C257 C255 1.327 . S
C258 C246 1.349 . S
C258 H252 0.950 . S
C258 C259 1.327 . S
C259 H253 0.950 . S
C259 C258 1.327 . S
C259 C263 1.429 . S
C260 C243 1.574 1_554 S
C260 H254 0.949 . S
C260 C264 1.368 . S
C261 C242 1.429 . S
C261 C255 1.429 . S
C261 C262 1.523 . S
C262 C243 1.368 . S
C262 C256 1.368 . S
C262 C261 1.523 . S
C263 C247 1.429 . S
C263 C259 1.429 . S
C263 C264 1.523 . S
C264 C248 1.368 . S
C264 C260 1.368 . S
C264 C263 1.523 . S
H265 C240 0.950 . S
H266 C242 0.950 . S
H267 C243 0.949 . S
H268 C245 0.950 . S
H269 C247 0.950 . S
C270 C271 1.349 . S
C270 C272 1.327 . S
C270 H295 0.950 . S
C271 C270 1.349 . S
C271 C287 1.349 . S
C272 C270 1.327 . S
C272 C291 1.429 . S
C272 H296 0.950 . S
C273 C290 1.574 1_655 S
C273 C292 1.368 . S
C273 H297 0.949 . S
H274 C278 0.949 . S
C275 C276 1.349 . S
C275 C277 1.327 . S
C275 H298 0.950 . S
C276 C275 1.349 . S
C276 C288 1.349 . S
C277 C275 1.327 . S
C277 C293 1.429 . S
C277 H299 0.950 . S
C278 H274 0.949 . S
C278 C286 1.574 1_455 S
C278 C294 1.368 . S
H279 C287 0.950 . S
H280 C285 0.950 . S
H281 C286 0.949 . S
H282 C288 0.950 . S
H283 C289 0.950 . S
H284 C290 0.949 . S
C285 H280 0.950 . S
C285 C287 1.327 . S
C285 C291 1.429 . S
C286 C278 1.574 1_655 S
C286 H281 0.949 . S
C286 C292 1.368 . S
C287 C271 1.349 . S
C287 H279 0.950 . S
C287 C285 1.327 . S
C288 C276 1.349 . S
C288 H282 0.950 . S
C288 C289 1.327 . S
C289 H283 0.950 . S
C289 C288 1.327 . S
C289 C293 1.429 . S
C290 C273 1.574 1_455 S
C290 H284 0.949 . S
C290 C294 1.368 . S
C291 C272 1.429 . S
C291 C285 1.429 . S
C291 C292 1.523 . S
C292 C273 1.368 . S
C292 C286 1.368 . S
C292 C291 1.523 . S
C293 C277 1.429 . S
C293 C289 1.429 . S
C293 C294 1.523 . S
C294 C278 1.368 . S
C294 C290 1.368 . S
C294 C293 1.523 . S
H295 C270 0.950 . S
H296 C272 0.950 . S
H297 C273 0.949 . S
H298 C275 0.950 . S
H299 C277 0.950 . S
C300 C301 1.349 . S
C300 C302 1.327 . S
C300 H325 0.950 . S
C301 C300 1.349 . S
C301 C317 1.349 . S
C302 C300 1.327 . S
C302 C321 1.429 . S
C302 H326 0.950 . S
C303 C320 1.574 . S
C303 C322 1.368 . S
C303 H327 0.949 . S
H304 C308 0.949 . S
C305 C306 1.349 . S
C305 C307 1.327 . S
C305 H328 0.950 . S
C306 C305 1.349 . S
C306 C318 1.349 . S
C307 C305 1.327 . S
C307 C323 1.429 . S
C307 H329 0.950 . S
C308 H304 0.949 . S
C308 C316 1.574 . S
C308 C324 1.368 . S
H309 C317 0.950 . S
H310 C315 0.950 . S
H311 C316 0.949 . S
H312 C318 0.950 . S
H313 C319 0.950 . S
H314 C320 0.949 . S
C315 H310 0.950 . S
C315 C317 1.327 . S
C315 C321 1.429 . S
C316 C308 1.574 . S
C316 H311 0.949 . S
C316 C322 1.368 . S
C317 C301 1.349 . S
C317 H309 0.950 . S
C317 C315 1.327 . S
C318 C306 1.349 . S
C318 H312 0.950 . S
C318 C319 1.327 . S
C319 H313 0.950 . S
C319 C318 1.327 . S
C319 C323 1.429 . S
C320 C303 1.574 . S
C320 H314 0.949 . S
C320 C324 1.368 . S
C321 C302 1.429 . S
C321 C315 1.429 . S
C321 C322 1.523 . S
C322 C303 1.368 . S
C322 C316 1.368 . S
C322 C321 1.523 . S
C323 C307 1.429 . S
C323 C319 1.429 . S
C323 C324 1.523 . S
C324 C308 1.368 . S
C324 C320 1.368 . S
C324 C323 1.523 . S
H325 C300 0.950 . S
H326 C302 0.950 . S
H327 C303 0.949 . S
H328 C305 0.950 . S
H329 C307 0.950 . S
C330 C331 1.349 . S
C330 C332 1.327 . S
C330 H355 0.950 . S
C331 C330 1.349 . S
C331 C347 1.349 . S
C332 C330 1.327 . S
C332 C351 1.429 . S
C332 H356 0.950 . S
C333 C350 1.574 . S
C333 C352 1.368 . S
C333 H357 0.949 . S
H334 C338 0.949 . S
C335 C336 1.349 . S
C335 C337 1.327 . S
C335 H358 0.950 . S
C336 C335 1.349 . S
C336 C348 1.349 . S
C337 C335 1.327 . S
C337 C353 1.429 . S
C337 H359 0.950 . S
C338 H334 0.949 . S
C338 C346 1.574 . S
C338 C354 1.368 . S
H339 C347 0.950 . S
H340 C345 0.950 . S
H341 C346 0.949 . S
H342 C348 0.950 . S
H343 C349 0.950 . S
H344 C350 0.949 . S
C345 H340 0.950 . S
C345 C347 1.327 . S
C345 C351 1.429 . S
C346 C338 1.574 . S
C346 H341 0.949 . S
C346 C352 1.368 . S
C347 C331 1.349 . S
C347 H339 0.950 . S
C347 C345 1.327 . S
C348 C336 1.349 . S
C348 H342 0.950 . S
C348 C349 1.327 . S
C349 H343 0.950 . S
C349 C348 1.327 . S
C349 C353 1.429 . S
C350 C333 1.574 . S
C350 H344 0.949 . S
C350 C354 1.368 . S
C351 C332 1.429 . S
C351 C345 1.429 . S
C351 C352 1.523 . S
C352 C333 1.368 . S
C352 C346 1.368 . S
C352 C351 1.523 . S
C353 C337 1.429 . S
C353 C349 1.429 . S
C353 C354 1.523 . S
C354 C338 1.368 . S
C354 C350 1.368 . S
C354 C353 1.523 . S
H355 C330 0.950 . S
H356 C332 0.950 . S
H357 C333 0.949 . S
H358 C335 0.950 . S
H359 C337 0.950 . S
C360 C361 1.349 . S
C360 C362 1.327 . S
C360 H385 0.950 . S
C361 C360 1.349 . S
C361 C377 1.349 . S
C362 C360 1.327 . S
C362 C381 1.429 . S
C362 H386 0.950 . S
C363 C380 1.574 . S
C363 C382 1.368 . S
C363 H387 0.949 . S
H364 C368 0.949 . S
C365 C366 1.349 . S
C365 C367 1.327 . S
C365 H388 0.950 . S
C366 C365 1.349 . S
C366 C378 1.349 . S
C367 C365 1.327 . S
C367 C383 1.429 . S
C367 H389 0.950 . S
C368 H364 0.949 . S
C368 C376 1.574 . S
C368 C384 1.368 . S
H369 C377 0.950 . S
H370 C375 0.950 . S
H371 C376 0.949 . S
H372 C378 0.950 . S
H373 C379 0.950 . S
H374 C380 0.949 . S
C375 H370 0.950 . S
C375 C377 1.327 . S
C375 C381 1.429 . S
C376 C368 1.574 . S
C376 H371 0.949 . S
C376 C382 1.368 . S
C377 C361 1.349 . S
C377 H369 0.950 . S
C377 C375 1.327 . S
C378 C366 1.349 . S
C378 H372 0.950 . S
C378 C379 1.327 . S
C379 H373 0.950 . S
C379 C378 1.327 . S
C379 C383 1.429 . S
C380 C363 1.574 . S
C380 H374 0.949 . S
C380 C384 1.368 . S
C381 C362 1.429 . S
C381 C375 1.429 . S
C381 C382 1.523 . S
C382 C363 1.368 . S
C382 C376 1.368 . S
C382 C381 1.523 . S
C383 C367 1.429 . S
C383 C379 1.429 . S
C383 C384 1.523 . S
C384 C368 1.368 . S
C384 C380 1.368 . S
C384 C383 1.523 . S
H385 C360 0.950 . S
H386 C362 0.950 . S
H387 C363 0.949 . S
H388 C365 0.950 . S
H389 C367 0.950 . S
C390 C391 1.349 . S
C390 C392 1.327 . S
C390 H415 0.950 . S
C391 C390 1.349 . S
C391 C407 1.349 . S
C392 C390 1.327 . S
C392 C411 1.429 . S
C392 H416 0.950 . S
C393 C410 1.574 . S
C393 C412 1.368 . S
C393 H417 0.949 . S
H394 C398 0.949 . S
C395 C396 1.349 . S
C395 C397 1.327 . S
C395 H418 0.950 . S
C396 C395 1.349 . S
C396 C408 1.349 . S
C397 C395 1.327 . S
C397 C413 1.429 . S
C397 H419 0.950 . S
C398 H394 0.949 . S
C398 C406 1.574 . S
C398 C414 1.368 . S
H399 C407 0.950 . S
H400 C405 0.950 . S
H401 C406 0.949 . S
H402 C408 0.950 . S
H403 C409 0.950 . S
H404 C410 0.949 . S
C405 H400 0.950 . S
C405 C407 1.327 . S
C405 C411 1.429 . S
C406 C398 1.574 . S
C406 H401 0.949 . S
C406 C412 1.368 . S
C407 C391 1.349 . S
C407 H399 0.950 . S
C407 C405 1.327 . S
C408 C396 1.349 . S
C408 H402 0.950 . S
C408 C409 1.327 . S
C409 H403 0.950 . S
C409 C408 1.327 . S
C409 C413 1.429 . S
C410 C393 1.574 . S
C410 H404 0.949 . S
C410 C414 1.368 . S
C411 C392 1.429 . S
C411 C405 1.429 . S
C411 C412 1.523 . S
C412 C393 1.368 . S
C412 C406 1.368 . S
C412 C411 1.523 . S
C413 C397 1.429 . S
C413 C409 1.429 . S
C413 C414 1.523 . S
C414 C398 1.368 . S
C414 C410 1.368 . S
C414 C413 1.523 . S
H415 C390 0.950 . S
H416 C392 0.950 . S
H417 C393 0.949 . S
H418 C395 0.950 . S
H419 C397 0.950 . S
C420 C421 1.349 . S
C420 C422 1.327 . S
C420 H445 0.950 . S
C421 C420 1.349 . S
C421 C437 1.349 . S
C422 C420 1.327 . S
C422 C441 1.429 . S
C422 H446 0.950 . S
C423 C440 1.574 . S
C423 C442 1.368 . S
C423 H447 0.949 . S
H424 C428 0.949 . S
C425 C426 1.349 . S
C425 C427 1.327 . S
C425 H448 0.950 . S
C426 C425 1.349 . S
C426 C438 1.349 . S
C427 C425 1.327 . S
C427 C443 1.429 . S
C427 H449 0.950 . S
C428 H424 0.949 . S
C428 C436 1.574 . S
C428 C444 1.368 . S
H429 C437 0.950 . S
H430 C435 0.950 . S
H431 C436 0.949 . S
H432 C438 0.950 . S
H433 C439 0.950 . S
H434 C440 0.949 . S
C435 H430 0.950 . S
C435 C437 1.327 . S
C435 C441 1.429 . S
C436 C428 1.574 . S
C436 H431 0.949 . S
C436 C442 1.368 . S
C437 C421 1.349 . S
C437 H429 0.950 . S
C437 C435 1.327 . S
C438 C426 1.349 . S
C438 H432 0.950 . S
C438 C439 1.327 . S
C439 H433 0.950 . S
C439 C438 1.327 . S
C439 C443 1.429 . S
C440 C423 1.574 . S
C440 H434 0.949 . S
C440 C444 1.368 . S
C441 C422 1.429 . S
C441 C435 1.429 . S
C441 C442 1.523 . S
C442 C423 1.368 . S
C442 C436 1.368 . S
C442 C441 1.523 . S
C443 C427 1.429 . S
C443 C439 1.429 . S
C443 C444 1.523 . S
C444 C428 1.368 . S
C444 C440 1.368 . S
C444 C443 1.523 . S
H445 C420 0.950 . S
H446 C422 0.950 . S
H447 C423 0.949 . S
H448 C425 0.950 . S
H449 C427 0.950 . S
C450 C451 1.349 . S
C450 C452 1.327 . S
C450 H475 0.950 . S
C451 C450 1.349 . S
C451 C467 1.349 . S
C452 C450 1.327 . S
C452 C471 1.429 . S
C452 H476 0.950 . S
C453 C470 1.574 . S
C453 C472 1.368 . S
C453 H477 0.949 . S
H454 C458 0.949 . S
C455 C456 1.349 . S
C455 C457 1.327 . S
C455 H478 0.950 . S
C456 C455 1.349 . S
C456 C468 1.349 . S
C457 C455 1.327 . S
C457 C473 1.429 . S
C457 H479 0.950 . S
C458 H454 0.949 . S
C458 C466 1.574 . S
C458 C474 1.368 . S
H459 C467 0.950 . S
H460 C465 0.950 . S
H461 C466 0.949 . S
H462 C468 0.950 . S
H463 C469 0.950 . S
H464 C470 0.949 . S
C465 H460 0.950 . S
C465 C467 1.327 . S
C465 C471 1.429 . S
C466 C458 1.574 . S
C466 H461 0.949 . S
C466 C472 1.368 . S
C467 C451 1.349 . S
C467 H459 0.950 . S
C467 C465 1.327 . S
C468 C456 1.349 . S
C468 H462 0.950 . S
C468 C469 1.327 . S
C469 H463 0.950 . S
C469 C468 1.327 . S
C469 C473 1.429 . S
C470 C453 1.574 . S
C470 H464 0.949 . S
C470 C474 1.368 . S
C471 C452 1.429 . S
C471 C465 1.429 . S
C471 C472 1.523 . S
C472 C453 1.368 . S
C472 C466 1.368 . S
C472 C471 1.523 . S
C473 C457 1.429 . S
C473 C469 1.429 . S
C473 C474 1.523 . S
C474 C458 1.368 . S
C474 C470 1.368 . S
C474 C473 1.523 . S
H475 C450 0.950 . S
H476 C452 0.950 . S
H477 C453 0.949 . S
H478 C455 0.950 . S
H479 C457 0.950 . S
C480 C481 1.349 . S
C480 C482 1.327 . S
C480 H505 0.950 . S
C481 C480 1.349 . S
C481 C497 1.349 . S
C482 C480 1.327 . S
C482 C501 1.429 . S
C482 H506 0.950 . S
C483 C500 1.574 . S
C483 C502 1.368 . S
C483 H507 0.949 . S
H484 C488 0.949 . S
C485 C486 1.349 . S
C485 C487 1.327 1_655 S
C485 H508 0.950 . S
C486 C485 1.349 . S
C486 C498 1.349 1_655 S
C487 C485 1.327 1_455 S
C487 C503 1.429 . S
C487 H509 0.950 . S
C488 H484 0.949 . S
C488 C496 1.574 . S
C488 C504 1.368 . S
H489 C497 0.950 . S
H490 C495 0.950 . S
H491 C496 0.949 . S
H492 C498 0.950 . S
H493 C499 0.950 . S
H494 C500 0.949 . S
C495 H490 0.950 . S
C495 C497 1.327 . S
C495 C501 1.429 . S
C496 C488 1.574 . S
C496 H491 0.949 . S
C496 C502 1.368 . S
C497 C481 1.349 . S
C497 H489 0.950 . S
C497 C495 1.327 . S
C498 C486 1.349 1_455 S
C498 H492 0.950 . S
C498 C499 1.327 . S
C499 H493 0.950 . S
C499 C498 1.327 . S
C499 C503 1.429 . S
C500 C483 1.574 . S
C500 H494 0.949 . S
C500 C504 1.368 . S
C501 C482 1.429 . S
C501 C495 1.429 . S
C501 C502 1.523 . S
C502 C483 1.368 . S
C502 C496 1.368 . S
C502 C501 1.523 . S
C503 C487 1.429 . S
C503 C499 1.429 . S
C503 C504 1.523 . S
C504 C488 1.368 . S
C504 C500 1.368 . S
C504 C503 1.523 . S
H505 C480 0.950 . S
H506 C482 0.950 . S
H507 C483 0.949 . S
H508 C485 0.950 . S
H509 C487 0.950 . S
C510 C511 1.349 . S
C510 C512 1.327 . S
C510 H535 0.950 . S
C511 C510 1.349 . S
C511 C527 1.349 . S
C512 C510 1.327 . S
C512 C531 1.429 . S
C512 H536 0.950 . S
C513 C530 1.574 . S
C513 C532 1.368 . S
C513 H537 0.949 . S
H514 C518 0.949 . S
C515 C516 1.349 1_565 S
C515 C517 1.327 . S
C515 H538 0.950 . S
C516 C515 1.349 1_545 S
C516 C528 1.349 . S
C517 C515 1.327 . S
C517 C533 1.429 . S
C517 H539 0.950 . S
C518 H514 0.949 . S
C518 C526 1.574 . S
C518 C534 1.368 . S
H519 C527 0.950 . S
H520 C525 0.950 . S
H521 C526 0.949 . S
H522 C528 0.950 . S
H523 C529 0.950 . S
H524 C530 0.949 . S
C525 H520 0.950 . S
C525 C527 1.327 . S
C525 C531 1.429 . S
C526 C518 1.574 . S
C526 H521 0.949 . S
C526 C532 1.368 . S
C527 C511 1.349 . S
C527 H519 0.950 . S
C527 C525 1.327 . S
C528 C516 1.349 . S
C528 H522 0.950 . S
C528 C529 1.327 1_545 S
C529 H523 0.950 . S
C529 C528 1.327 1_565 S
C529 C533 1.429 . S
C530 C513 1.574 . S
C530 H524 0.949 . S
C530 C534 1.368 . S
C531 C512 1.429 . S
C531 C525 1.429 . S
C531 C532 1.523 1_655 S
C532 C513 1.368 . S
C532 C526 1.368 . S
C532 C531 1.523 1_455 S
C533 C517 1.429 . S
C533 C529 1.429 . S
C533 C534 1.523 . S
C534 C518 1.368 . S
C534 C530 1.368 . S
C534 C533 1.523 . S
H535 C510 0.950 . S
H536 C512 0.950 . S
H537 C513 0.949 . S
H538 C515 0.950 . S
H539 C517 0.950 . S
C540 C541 1.349 . S
C540 C542 1.327 . S
C540 H565 0.950 . S
C541 C540 1.349 . S
C541 C557 1.349 . S
C542 C540 1.327 . S
C542 C561 1.429 . S
C542 H566 0.950 . S
C543 C560 1.574 . S
C543 C562 1.368 . S
C543 H567 0.949 . S
H544 C548 0.949 . S
C545 C546 1.349 . S
C545 C547 1.327 . S
C545 H568 0.950 . S
C546 C545 1.349 . S
C546 C558 1.349 . S
C547 C545 1.327 . S
C547 C563 1.429 . S
C547 H569 0.950 . S
C548 H544 0.949 . S
C548 C556 1.574 . S
C548 C564 1.368 . S
H549 C557 0.950 . S
H550 C555 0.950 . S
H551 C556 0.949 . S
H552 C558 0.950 . S
H553 C559 0.950 . S
H554 C560 0.949 . S
C555 H550 0.950 . S
C555 C557 1.327 . S
C555 C561 1.429 . S
C556 C548 1.574 . S
C556 H551 0.949 . S
C556 C562 1.368 . S
C557 C541 1.349 . S
C557 H549 0.950 . S
C557 C555 1.327 . S
C558 C546 1.349 . S
C558 H552 0.950 . S
C558 C559 1.327 . S
C559 H553 0.950 . S
C559 C558 1.327 . S
C559 C563 1.429 . S
C560 C543 1.574 . S
C560 H554 0.949 . S
C560 C564 1.368 . S
C561 C542 1.429 . S
C561 C555 1.429 . S
C561 C562 1.523 1_545 S
C562 C543 1.368 . S
C562 C556 1.368 . S
C562 C561 1.523 1_565 S
C563 C547 1.429 . S
C563 C559 1.429 . S
C563 C564 1.523 . S
C564 C548 1.368 . S
C564 C560 1.368 . S
C564 C563 1.523 . S
H565 C540 0.950 . S
H566 C542 0.950 . S
H567 C543 0.949 . S
H568 C545 0.950 . S
H569 C547 0.950 . S
C570 C571 1.349 . S
C570 C572 1.327 . S
C570 H595 0.950 . S
C571 C570 1.349 . S
C571 C587 1.349 . S
C572 C570 1.327 . S
C572 C591 1.429 . S
C572 H596 0.950 . S
C573 C590 1.574 . S
C573 C592 1.368 . S
C573 H597 0.949 . S
H574 C578 0.949 . S
C575 C576 1.349 . S
C575 C577 1.327 . S
C575 H598 0.950 . S
C576 C575 1.349 . S
C576 C588 1.349 . S
C577 C575 1.327 . S
C577 C593 1.429 . S
C577 H599 0.950 . S
C578 H574 0.949 . S
C578 C586 1.574 . S
C578 C594 1.368 . S
H579 C587 0.950 . S
H580 C585 0.950 . S
H581 C586 0.949 . S
H582 C588 0.950 . S
H583 C589 0.950 . S
H584 C590 0.949 . S
C585 H580 0.950 . S
C585 C587 1.327 . S
C585 C591 1.429 . S
C586 C578 1.574 . S
C586 H581 0.949 . S
C586 C592 1.368 . S
C587 C571 1.349 . S
C587 H579 0.950 . S
C587 C585 1.327 . S
C588 C576 1.349 . S
C588 H582 0.950 . S
C588 C589 1.327 . S
C589 H583 0.950 . S
C589 C588 1.327 . S
C589 C593 1.429 . S
C590 C573 1.574 . S
C590 H584 0.949 . S
C590 C594 1.368 . S
C591 C572 1.429 . S
C591 C585 1.429 . S
C591 C592 1.523 . S
C592 C573 1.368 . S
C592 C586 1.368 . S
C592 C591 1.523 . S
C593 C577 1.429 . S
C593 C589 1.429 . S
C593 C594 1.523 . S
C594 C578 1.368 . S
C594 C590 1.368 . S
C594 C593 1.523 . S
H595 C570 0.950 . S
H596 C572 0.950 . S
H597 C573 0.949 . S
H598 C575 0.950 . S
H599 C577 0.950 . S
C600 C601 1.349 . S
C600 C602 1.327 . S
C600 H625 0.950 . S
C601 C600 1.349 . S
C601 C617 1.349 . S
C602 C600 1.327 . S
C602 C621 1.429 . S
C602 H626 0.950 . S
C603 C620 1.574 . S
C603 C622 1.368 1_655 S
C603 H627 0.949 1_655 S
H604 C608 0.949 . S
C605 C606 1.349 . S
C605 C607 1.327 . S
C605 H628 0.950 . S
C606 C605 1.349 . S
C606 C618 1.349 . S
C607 C605 1.327 . S
C607 C623 1.429 . S
C607 H629 0.950 . S
C608 H604 0.949 . S
C608 C616 1.574 . S
C608 C624 1.368 . S
H609 C617 0.950 . S
H610 C615 0.950 . S
H611 C616 0.949 1_455 S
H612 C618 0.950 . S
H613 C619 0.950 . S
H614 C620 0.949 . S
C615 H610 0.950 . S
C615 C617 1.327 . S
C615 C621 1.429 . S
C616 C608 1.574 . S
C616 H611 0.949 1_655 S
C616 C622 1.368 1_655 S
C617 C601 1.349 . S
C617 H609 0.950 . S
C617 C615 1.327 . S
C618 C606 1.349 . S
C618 H612 0.950 . S
C618 C619 1.327 . S
C619 H613 0.950 . S
C619 C618 1.327 . S
C619 C623 1.429 . S
C620 C603 1.574 . S
C620 H614 0.949 . S
C620 C624 1.368 . S
C621 C602 1.429 . S
C621 C615 1.429 . S
C621 C622 1.523 . S
C622 C603 1.368 1_455 S
C622 C616 1.368 1_455 S
C622 C621 1.523 . S
C623 C607 1.429 . S
C623 C619 1.429 . S
C623 C624 1.523 . S
C624 C608 1.368 . S
C624 C620 1.368 . S
C624 C623 1.523 . S
H625 C600 0.950 . S
H626 C602 0.950 . S
H627 C603 0.949 1_455 S
H628 C605 0.950 . S
H629 C607 0.950 . S
C630 C631 1.349 . S
C630 C632 1.327 . S
C630 H655 0.950 . S
C631 C630 1.349 . S
C631 C647 1.349 . S
C632 C630 1.327 . S
C632 C651 1.429 . S
C632 H656 0.950 . S
C633 C650 1.574 . S
C633 C652 1.368 . S
C633 H657 0.949 . S
H634 C638 0.949 1_565 S
C635 C636 1.349 . S
C635 C637 1.327 . S
C635 H658 0.950 . S
C636 C635 1.349 . S
C636 C648 1.349 . S
C637 C635 1.327 . S
C637 C653 1.429 . S
C637 H659 0.950 . S
C638 H634 0.949 1_545 S
C638 C646 1.574 . S
C638 C654 1.368 1_545 S
H639 C647 0.950 . S
H640 C645 0.950 . S
H641 C646 0.949 . S
H642 C648 0.950 . S
H643 C649 0.950 . S
H644 C650 0.949 1_565 S
C645 H640 0.950 . S
C645 C647 1.327 . S
C645 C651 1.429 . S
C646 C638 1.574 . S
C646 H641 0.949 . S
C646 C652 1.368 . S
C647 C631 1.349 . S
C647 H639 0.950 . S
C647 C645 1.327 . S
C648 C636 1.349 . S
C648 H642 0.950 . S
C648 C649 1.327 . S
C649 H643 0.950 . S
C649 C648 1.327 . S
C649 C653 1.429 . S
C650 C633 1.574 . S
C650 H644 0.949 1_545 S
C650 C654 1.368 1_545 S
C651 C632 1.429 . S
C651 C645 1.429 . S
C651 C652 1.523 . S
C652 C633 1.368 . S
C652 C646 1.368 . S
C652 C651 1.523 . S
C653 C637 1.429 . S
C653 C649 1.429 . S
C653 C654 1.523 . S
C654 C638 1.368 1_565 S
C654 C650 1.368 1_565 S
C654 C653 1.523 . S
H655 C630 0.950 . S
H656 C632 0.950 . S
H657 C633 0.949 . S
H658 C635 0.950 . S
H659 C637 0.950 . S
C121 C88 2.007 . S
C126 C9 2.208 . S
C151 C109 2.200 . S
C156 C28 2.013 . S
C181 C49 2.208 . S
C186 C68 2.007 . S
C211 C8 2.013 . S
C216 C89 2.200 . S
C241 C108 2.007 . S
C246 C29 2.208 . S
C271 C48 2.013 . S
C276 C69 2.200 . S
C301 C2 1.688 . S
C306 C58 1.646 . S
C331 C22 1.688 . S
C336 C18 1.646 . S
C361 C42 1.688 . S
C366 C38 1.646 . S
C391 C79 1.668 . S
C396 C81 1.604 . S
C421 C99 1.668 . S
C426 C101 1.604 . S
C451 C61 1.604 . S
C456 C119 1.668 . S
C481 C1 0.860 . S
C486 C59 0.877 . S
C511 C21 0.860 . S
C516 C19 0.877 . S
C541 C41 0.860 . S
C546 C39 0.877 . S
C571 C78 0.871 . S
C576 C82 0.882 . S
C601 C98 0.871 . S
C606 C102 0.882 . S
C631 C62 0.882 . S
C636 C118 0.871 . S
