# Generated by pormake.
# Topology sml, (6)-cn, num edge types: 1
# Building blocks:
#     Node 0, Type 0, BuildingBlock: HISSIN_clean_sbu_0, # of connection points: 6
#     Node 1, Type 0, BuildingBlock: HISSIN_clean_sbu_0, # of connection points: 6
#     Node 2, Type 0, BuildingBlock: HISSIN_clean_sbu_0, # of connection points: 6
#     Node 3, Type 0, BuildingBlock: HISSIN_clean_sbu_0, # of connection points: 6
#     Node 4, Type 0, BuildingBlock: HISSIN_clean_sbu_0, # of connection points: 6
#     Node 5, Type 0, BuildingBlock: HISSIN_clean_sbu_0, # of connection points: 6
#     Edge 6, Type (0, 0), BuildingBlock: CIFDUS_clean_linker_0, # of connection points: 2
#     Edge 7, Type (0, 0), BuildingBlock: CIFDUS_clean_linker_0, # of connection points: 2
#     Edge 8, Type (0, 0), BuildingBlock: CIFDUS_clean_linker_0, # of connection points: 2
#     Edge 9, Type (0, 0), BuildingBlock: CIFDUS_clean_linker_0, # of connection points: 2
#     Edge 10, Type (0, 0), BuildingBlock: CIFDUS_clean_linker_0, # of connection points: 2
#     Edge 11, Type (0, 0), BuildingBlock: CIFDUS_clean_linker_0, # of connection points: 2
#     Edge 12, Type (0, 0), BuildingBlock: CIFDUS_clean_linker_0, # of connection points: 2
#     Edge 13, Type (0, 0), BuildingBlock: CIFDUS_clean_linker_0, # of connection points: 2
#     Edge 14, Type (0, 0), BuildingBlock: CIFDUS_clean_linker_0, # of connection points: 2
#     Edge 15, Type (0, 0), BuildingBlock: CIFDUS_clean_linker_0, # of connection points: 2
#     Edge 16, Type (0, 0), BuildingBlock: CIFDUS_clean_linker_0, # of connection points: 2
#     Edge 17, Type (0, 0), BuildingBlock: CIFDUS_clean_linker_0, # of connection points: 2
#     Edge 18, Type (0, 0), BuildingBlock: CIFDUS_clean_linker_0, # of connection points: 2
#     Edge 19, Type (0, 0), BuildingBlock: CIFDUS_clean_linker_0, # of connection points: 2
#     Edge 20, Type (0, 0), BuildingBlock: CIFDUS_clean_linker_0, # of connection points: 2
#     Edge 21, Type (0, 0), BuildingBlock: CIFDUS_clean_linker_0, # of connection points: 2
#     Edge 22, Type (0, 0), BuildingBlock: CIFDUS_clean_linker_0, # of connection points: 2
#     Edge 23, Type (0, 0), BuildingBlock: CIFDUS_clean_linker_0, # of connection points: 2
# Relax obj value: 0.199
# Max RMSD: 0.238
# Mean RMSD: 0.238
data_MOF--net-sml--node1-HISSIN_clean_sbu_0--edge1-CIFDUS_clean_linker_0
_symmetry_space_group_name_H-M    P1
_symmetry_Int_Tables_number       1
_symmetry_cell_setting            triclinic
loop_
_symmetry_equiv_pos_as_xyz
'x, y, z'
_cell_length_a     28.035591
_cell_length_b     28.292027
_cell_length_c     22.45388
_cell_angle_alpha  89.862775
_cell_angle_beta   90.010521
_cell_angle_gamma 120.35985
loop_
_atom_site_label
_atom_site_type_symbol
_atom_site_fract_x
_atom_site_fract_y
_atom_site_fract_z
_atom_type_partial_charge
Eu0 Eu 0.17192 0.39409 0.17187 0.0
Eu1 Eu 0.08891 0.3854 0.06096 0.0
C2 C 0.10944 0.45988 0.17401 0.0
C3 C 0.20701 0.39959 0.33257 0.0
C4 C 0.17325 0.42091 0.34937 0.0
C5 C 0.19873 0.36367 0.43292 0.0
C6 C 0.15274 0.41396 0.40741 0.0
C7 C 0.21964 0.37102 0.37485 0.0
C8 C 0.16494 0.38497 0.4498 0.0
C9 C 0.22522 0.40333 0.27011 0.0
O10 O 0.17328 0.42549 1.02116 0.0
O11 O 0.22625 0.46047 0.10543 0.0
C12 C 0.22029 0.45896 0.04703 0.0
O13 O 0.18733 0.34651 0.10357 0.0
O14 O 0.0656 0.42806 0.99669 0.0
O15 O 0.01936 0.33929 1.00063 0.0
O16 O 0.11065 0.31977 0.04333 0.0
C17 C 0.15374 0.31639 0.06086 0.0
O18 O 0.09167 0.31503 0.18106 0.0
O19 O 0.03428 0.34109 0.1394 0.0
O20 O 0.11161 0.46139 0.11564 0.0
O21 O 0.19982 0.35789 0.23972 0.0
O22 O 0.23124 0.44541 0.23957 0.0
O23 O 0.11653 0.42422 0.20337 0.0
C24 C 0.03804 0.38185 0.9055 0.0
C25 C 0.0623 0.35295 0.88204 0.0
C26 C 0.03992 0.41817 0.80676 0.0
C27 C 0.07542 0.35678 0.82148 0.0
C28 C 0.02677 0.41426 0.86737 0.0
C29 C 0.06487 0.38984 0.78304 0.0
C30 C 0.02971 0.38295 0.9702 0.0
C31 C 0.04356 0.31191 0.17834 0.0
H32 H 0.16192 0.44227 0.31741 0.0
H33 H 0.20915 0.34145 0.4647 0.0
H34 H 0.1261 0.43006 0.41869 0.0
H35 H 0.24504 0.35373 0.36271 0.0
H36 H 0.07253 0.32856 0.9108 0.0
H37 H 0.03031 0.44329 0.77848 0.0
H38 H 0.09561 0.33526 0.80532 0.0
H39 H 0.00843 0.43718 0.88467 0.0
Eu40 Eu 0.77079 0.21137 0.51767 0.0
Eu41 Eu 0.86467 0.27201 0.62463 0.0
C42 C 0.81772 0.33392 0.55095 0.0
C43 C 0.72893 0.18173 0.35556 0.0
C44 C 0.72925 0.22306 0.32025 0.0
C45 C 0.76364 0.1549 0.27006 0.0
C46 C 0.74719 0.23067 0.26092 0.0
C47 C 0.74588 0.14741 0.32946 0.0
C48 C 0.76495 0.1969 0.23506 0.0
C49 C 0.71294 0.17604 0.41964 0.0
O50 O 0.78091 0.24683 0.66482 0.0
O51 O 0.71857 0.18116 0.59996 0.0
C52 C 0.73092 0.20614 0.65189 0.0
O53 O 0.79932 0.1527 0.54424 0.0
O54 O 0.90527 0.33985 0.68709 0.0
O55 O 0.92551 0.27544 0.68838 0.0
O56 O 0.82198 0.18183 0.64036 0.0
C57 C 0.80755 0.14388 0.5997 0.0
O58 O 0.85337 0.26758 0.47873 0.0
O59 O 0.9106 0.26205 0.54659 0.0
O60 O 0.86419 0.33658 0.5659 0.0
O61 O 0.72523 0.14588 0.45306 0.0
O62 O 0.7225 0.22062 0.44692 0.0
O63 O 0.7716 0.28666 0.55071 0.0
C64 C 0.91609 0.30956 0.78236 0.0
C65 C 0.92237 0.2708 0.81562 0.0
C66 C 0.8835 0.33268 0.87236 0.0
C67 C 0.90856 0.26254 0.87632 0.0
C68 C 0.89693 0.34069 0.81176 0.0
C69 C 0.88874 0.29326 0.90538 0.0
C70 C 0.92787 0.31667 0.71719 0.0
C71 C 0.89815 0.26629 0.49107 0.0
H72 H 0.71613 0.25001 0.33869 0.0
H73 H 0.77766 0.12855 0.25201 0.0
H74 H 0.74684 0.2629 0.23517 0.0
H75 H 0.74625 0.11514 0.35513 0.0
H76 H 0.93762 0.24656 0.79466 0.0
H77 H 0.86804 0.35682 0.89315 0.0
H78 H 0.91387 0.23243 0.90067 0.0
H79 H 0.89194 0.37123 0.78789 0.0
Eu80 Eu 0.56904 0.81496 0.88617 0.0
Eu81 Eu 0.57415 0.74107 0.77399 0.0
C82 C 0.49375 0.68598 0.88543 0.0
C83 C 0.55708 0.84203 0.04541 0.0
C84 C 0.53267 0.78588 0.05823 0.0
C85 C 0.58137 0.86208 0.14998 0.0
C86 C 0.53259 0.76796 0.11616 0.0
C87 C 0.58142 0.88004 0.09169 0.0
C88 C 0.55701 0.80576 0.16281 0.0
C89 C 0.56051 0.86044 0.9832 0.0
O90 O 0.54417 0.79446 0.73594 0.0
O91 O 0.50298 0.8032 0.81971 0.0
C92 C 0.50836 0.80457 0.76141 0.0
O93 O 0.62423 0.87781 0.8201 0.0
O94 O 0.53166 0.68387 0.70142 0.0
O95 O 0.61839 0.71307 0.71764 0.0
O96 O 0.64984 0.82527 0.7648 0.0
C97 C 0.65665 0.87283 0.7816 0.0
O98 O 0.64137 0.80288 0.90208 0.0
O99 O 0.61023 0.72171 0.85307 0.0
O100 O 0.49555 0.68692 0.82685 0.0
O101 O 0.60757 0.8763 0.95649 0.0
O102 O 0.51838 0.82883 0.94939 0.0
O103 O 0.52915 0.72813 0.91642 0.0
C104 C 0.58897 0.70492 0.61798 0.0
C105 C 0.61325 0.7606 0.60311 0.0
C106 C 0.57807 0.68227 0.5127 0.0
C107 C 0.61959 0.77702 0.54357 0.0
C108 C 0.57207 0.66588 0.57248 0.0
C109 C 0.60123 0.738 0.4977 0.0
C110 C 0.57704 0.68782 0.68069 0.0
C111 C 0.64025 0.75636 0.89498 0.0
H112 H 0.51416 0.75567 1.0233 0.0
H113 H 0.60012 0.89223 0.18501 0.0
H114 H 0.5143 0.7244 0.12413 0.0
H115 H 0.60094 0.92355 0.08266 0.0
H116 H 0.62587 0.79127 0.63768 0.0
H117 H 0.56398 0.65137 0.47824 0.0
H118 H 0.63691 0.82012 0.53351 0.0
H119 H 0.55303 0.62271 0.58317 0.0
Eu120 Eu 0.79074 0.55046 0.16238 0.0
Eu121 Eu 0.71738 0.56321 0.27245 0.0
C122 C 0.66271 0.46285 0.18158 0.0
C123 C 0.82253 0.53634 1.00332 0.0
C124 C 0.77074 0.52906 0.98761 0.0
C125 C 0.84424 0.53813 0.8982 0.0
C126 C 0.75605 0.52701 0.92773 0.0
C127 C 0.85901 0.54045 0.95825 0.0
C128 C 0.79283 0.53208 0.8822 0.0
C129 C 0.83971 0.54369 0.06632 0.0
O130 O 0.74461 0.50447 0.30137 0.0
O131 O 0.82304 0.53142 0.24548 0.0
C132 C 0.79281 0.50814 0.29318 0.0
O133 O 0.83849 0.63684 0.19651 0.0
O134 O 0.65244 0.5257 0.33972 0.0
O135 O 0.70412 0.61396 0.33584 0.0
O136 O 0.80734 0.61891 0.29228 0.0
C137 C 0.84537 0.6493 0.25321 0.0
O138 O 0.72756 0.56627 0.12195 0.0
O139 O 0.71684 0.61556 0.19638 0.0
O140 O 0.65474 0.49818 0.21145 0.0
O141 O 0.84956 0.58984 0.08977 0.0
O142 O 0.81066 0.50228 0.10186 0.0
O143 O 0.71223 0.46977 0.17358 0.0
C144 C 0.68064 0.57245 0.43079 0.0
C145 C 0.72878 0.57264 0.44838 0.0
C146 C 0.65519 0.56865 0.53495 0.0
C147 C 0.74001 0.57068 0.50873 0.0
C148 C 0.64401 0.57065 0.47441 0.0
C149 C 0.70324 0.56833 0.55295 0.0
C150 C 0.66802 0.57193 0.36697 0.0
C151 C 0.71323 0.60116 0.14021 0.0
H152 H 0.74198 0.52591 1.02168 0.0
H153 H 0.87374 0.54265 0.86429 0.0
H154 H 0.71587 0.52154 0.9171 0.0
H155 H 0.89933 0.54656 0.96944 0.0
H156 H 0.75761 0.57405 0.4153 0.0
H157 H 0.62561 0.56632 0.56755 0.0
H158 H 0.77784 0.57149 0.52066 0.0
H159 H 0.6065 0.5702 0.46167 0.0
Eu160 Eu 0.1887 0.75314 0.51378 0.0
Eu161 Eu 0.2585 0.84407 0.40592 0.0
C162 C 0.31946 0.81089 0.50288 0.0
C163 C 0.1538 0.71095 0.67389 0.0
C164 C 0.20486 0.72457 0.6999 0.0
C165 C 0.12773 0.73718 0.76635 0.0
C166 C 0.21739 0.74492 0.75817 0.0
C167 C 0.11506 0.71655 0.70826 0.0
C168 C 0.17944 0.75251 0.79181 0.0
C169 C 0.14232 0.69594 0.60988 0.0
O170 O 0.24154 0.76092 0.37687 0.0
O171 O 0.16328 0.7027 0.42989 0.0
C172 C 0.1954 0.71375 0.38296 0.0
O173 O 0.13519 0.78501 0.47871 0.0
O174 O 0.32607 0.87782 0.3412 0.0
O175 O 0.26712 0.9059 0.34156 0.0
O176 O 0.16813 0.80224 0.38355 0.0
C177 C 0.12862 0.79105 0.422 0.0
O178 O 0.23966 0.83504 0.5551 0.0
O179 O 0.24652 0.89227 0.47903 0.0
O180 O 0.32216 0.85224 0.47316 0.0
O181 O 0.12248 0.72167 0.57994 0.0
O182 O 0.17964 0.69167 0.57938 0.0
O183 O 0.27338 0.76356 0.50671 0.0
C184 C 0.2972 0.89204 0.24709 0.0
C185 C 0.24637 0.8776 0.21991 0.0
C186 C 0.32873 0.87433 0.15308 0.0
C187 C 0.23664 0.86102 0.16024 0.0
C188 C 0.33858 0.89124 0.21262 0.0
C189 C 0.27732 0.85815 0.12636 0.0
C190 C 0.3062 0.90397 0.31187 0.0
C191 C 0.24541 0.8814 0.53624 0.0
H192 H 0.2358 0.72086 0.67486 0.0
H193 H 0.097 0.74138 0.79124 0.0
H194 H 0.25755 0.7563 0.77624 0.0
H195 H 0.07534 0.70628 0.68958 0.0
H196 H 0.21339 0.87752 0.24511 0.0
H197 H 0.36132 0.87349 0.12805 0.0
H198 H 0.19642 0.84841 0.14134 0.0
H199 H 0.37824 0.90247 0.23219 0.0
Eu200 Eu 0.39036 0.19093 0.82914 0.0
Eu201 Eu 0.38191 0.11205 0.94301 0.0
C202 C 0.45935 0.13131 0.83088 0.0
C203 C 0.39675 0.2327 0.67002 0.0
C204 C 0.39718 0.18512 0.65345 0.0
C205 C 0.39062 0.25194 0.56589 0.0
C206 C 0.39483 0.17124 0.59349 0.0
C207 C 0.39317 0.26589 0.62602 0.0
C208 C 0.39169 0.20456 0.54891 0.0
C209 C 0.39974 0.24713 0.73319 0.0
O210 O 0.42158 0.19771 0.97821 0.0
O211 O 0.46164 0.24204 0.89101 0.0
C212 C 0.45914 0.24085 0.94947 0.0
O213 O 0.34321 0.2072 0.89816 0.0
O214 O 0.42312 0.09271 1.01313 0.0
O215 O 0.33448 0.04219 1.00208 0.0
O216 O 0.31191 0.12877 0.95479 0.0
C217 C 0.30982 0.1723 0.93822 0.0
O218 O 0.31407 0.10913 0.81543 0.0
O219 O 0.33989 0.05529 0.86618 0.0
O220 O 0.4586 0.13244 0.88933 0.0
O221 O 0.35371 0.2198 0.76304 0.0
O222 O 0.44193 0.25099 0.76214 0.0
O223 O 0.42433 0.13845 0.79939 0.0
C224 C 0.36932 0.0624 0.09951 0.0
C225 C 0.36119 0.10553 0.1163 0.0
C226 C 0.36936 0.0394 0.20366 0.0
C227 C 0.3577 0.11592 0.17634 0.0
C228 C 0.3729 0.02904 0.14335 0.0
C229 C 0.36241 0.0834 0.22073 0.0
C230 C 0.37681 0.05462 0.03638 0.0
C231 C 0.31064 0.06177 0.82472 0.0
H232 H 0.39978 0.15889 0.68693 0.0
H233 H 0.38744 0.27807 0.53273 0.0
H234 H 0.39649 0.13493 0.58208 0.0
H235 H 0.3924 0.30254 0.63814 0.0
H236 H 0.35841 0.13174 0.08289 0.0
H237 H 0.37378 0.01413 0.23695 0.0
H238 H 0.35159 0.14961 0.18804 0.0
H239 H 0.37957 -0.00416 0.13099 0.0
H240 H 0.25053 0.21296 0.88874 0.0
H241 H 0.28454 0.16062 0.0559 0.0
H242 H 0.2334 0.19639 0.10925 0.0
H243 H 0.18905 0.25234 0.10856 0.0
H244 H 0.15144 0.30133 0.94134 0.0
H245 H 0.19317 0.25615 0.88717 0.0
C246 C 0.24583 0.20872 0.93675 0.0
C247 C 0.27161 0.18514 0.96874 0.0
C248 C 0.21604 0.22882 0.96682 0.0
C249 C 0.26488 0.17879 0.03068 0.0
C250 C 0.23598 0.19945 0.0611 0.0
C251 C 0.18914 0.25206 0.06022 0.0
C252 C 0.16808 0.28035 1.02866 0.0
C253 C 0.21286 0.22595 1.02971 0.0
C254 C 0.16748 0.27951 0.96622 0.0
C255 C 0.19166 0.25413 0.93539 0.0
H256 H 0.07119 0.30082 0.2913 0.0
H257 H 0.93353 0.2748 0.18128 0.0
H258 H 0.8764 0.25572 0.27001 0.0
H259 H 0.86749 0.25315 0.37659 0.0
H260 H 0.00507 0.28466 0.48973 0.0
H261 H 0.06031 0.29323 0.40081 0.0
C262 C 0.02813 0.28927 0.2866 0.0
C263 C 0.00626 0.28877 0.22979 0.0
C264 C -0.00406 0.27985 0.33791 0.0
C265 C 0.95095 0.27504 0.22445 0.0
C266 C 0.9184 0.26431 0.27506 0.0
C267 C 0.90972 0.26222 0.38239 0.0
C268 C 0.93264 0.26942 0.4398 0.0
C269 C 0.94093 0.26801 0.33177 0.0
C270 C -0.01317 0.2796 0.44602 0.0
C271 C 0.01827 0.28456 0.39527 0.0
H272 H 0.8201 0.11377 0.70978 0.0
H273 H 0.75725 0.0482 0.53517 0.0
H274 H 0.71194 0.9551 0.57586 0.0
H275 H 0.67739 0.89442 0.66418 0.0
H276 H 0.7319 0.96345 0.83902 0.0
H277 H 0.79362 0.05334 0.79527 0.0
C278 C 0.79724 0.07919 0.68022 0.0
C279 C 0.79105 0.08794 0.61981 0.0
C280 C 0.76933 0.02642 0.7043 0.0
C281 C 0.76218 0.04258 0.58204 0.0
C282 C 0.73598 -0.01062 0.60534 0.0
C283 C 0.70404 0.92902 0.69225 0.0
C284 C 0.70059 0.92303 0.75442 0.0
C285 C 0.73731 0.98104 0.66685 0.0
C286 C 0.73421 0.96776 0.79096 0.0
C287 C 0.76924 0.01897 0.76601 0.0
H288 H 0.62104 0.65386 0.91229 0.0
H289 H 0.70871 0.81684 0.98629 0.0
H290 H 0.73542 0.78245 0.07249 0.0
H291 H 0.73313 0.70518 0.12714 0.0
H292 H 0.64529 0.54329 0.05082 0.0
H293 H 0.61814 0.57798 0.96584 0.0
C294 C 0.64664 0.68216 0.94676 0.0
C295 C 0.66319 0.73784 0.94263 0.0
C296 C 0.66078 0.66205 0.99645 0.0
C297 C 0.69574 0.77372 0.98823 0.0
C298 C 0.71063 0.75406 0.03777 0.0
C299 C 0.70721 0.67764 0.09232 0.0
C300 C 0.69079 0.62195 0.09504 0.0
C301 C 0.69286 0.69813 0.04267 0.0
C302 C 0.65817 0.58643 0.04939 0.0
C303 C 0.64296 0.60622 1.00068 0.0
H304 H 0.09769 0.7923 0.30761 0.0
H305 H 0.03494 0.75781 0.48781 0.0
H306 H 0.94076 0.71813 0.45069 0.0
H307 H 0.87622 0.68125 0.36733 0.0
H308 H 0.93863 0.71193 0.187 0.0
H309 H 0.03296 0.76607 0.22415 0.0
C310 C 0.06353 0.77695 0.33887 0.0
C311 C 0.07328 0.77695 0.40029 0.0
C312 C 0.00935 0.75314 0.31724 0.0
C313 C 0.0286 0.75766 0.44021 0.0
C314 C 0.97464 0.73482 0.41905 0.0
C315 C 0.91031 0.70058 0.33601 0.0
C316 C 0.90046 0.69155 0.27455 0.0
C317 C 0.96449 0.73045 0.35764 0.0
C318 C 0.94507 0.71762 0.23461 0.0
C319 C -0.0009 0.74842 0.25581 0.0
H320 H 0.29852 0.0773 0.70829 0.0
H321 H 0.26585 0.95187 0.83855 0.0
H322 H 0.2385 0.88407 0.75916 0.0
H323 H 0.23281 0.86313 0.65429 0.0
H324 H 0.2724 -0.01096 0.52209 0.0
H325 H 0.28808 0.05469 0.60161 0.0
C326 C 0.28415 0.03485 0.71937 0.0
C327 C 0.28395 0.0193 0.77904 0.0
C328 C 0.27078 -0.00321 0.67346 0.0
C329 C 0.26616 0.9645 0.79288 0.0
C330 C 0.25086 0.92596 0.74761 0.0
C331 C 0.24488 0.90492 0.64236 0.0
C332 C 0.25236 0.9215 0.58225 0.0
C333 C 0.25466 0.94213 0.68787 0.0
C334 C 0.26693 0.97549 0.56801 0.0
C335 C 0.27584 0.0129 0.61341 0.0
H336 H 0.06078 0.31221 0.70717 0.0
H337 H 0.10836 0.48303 0.71492 0.0
H338 H 0.14073 0.49571 0.61228 0.0
H339 H 0.16028 0.45983 0.52173 0.0
H340 H 0.11706 0.2904 0.51521 0.0
H341 H 0.07973 0.27613 0.6163 0.0
C342 C 0.07863 0.35236 0.68668 0.0
C343 C 0.08208 0.39655 0.71921 0.0
C344 C 0.0986 0.35984 0.62791 0.0
C345 C 0.10427 0.44795 0.69108 0.0
C346 C 0.12336 0.45546 0.63238 0.0
C347 C 0.14232 0.41968 0.5423 0.0
C348 C 0.14177 0.37634 0.51108 0.0
C349 C 0.12128 0.41187 0.60059 0.0
C350 C 0.11885 0.32469 0.53862 0.0
C351 C 0.09716 0.31641 0.59628 0.0
H352 H 0.83109 0.29434 0.1781 0.0
H353 H 0.74546 0.11953 0.15039 0.0
H354 H 0.77848 0.1337 0.04765 0.0
H355 H 0.82888 0.19575 0.96407 0.0
H356 H 0.91284 0.37049 0.99128 0.0
H357 H 0.88289 0.3563 0.09524 0.0
C358 C 0.81915 0.25929 0.14948 0.0
C359 C 0.78549 0.20589 0.17222 0.0
C360 C 0.83799 0.26772 0.0901 0.0
C361 C 0.77165 0.16107 0.13456 0.0
C362 C 0.79033 0.16914 0.07557 0.0
C363 C 0.84112 0.23072 0.99293 0.0
C364 C 0.8729 0.28413 0.96966 0.0
C365 C 0.82331 0.22227 0.05271 0.0
C366 C 0.88782 0.32895 1.00767 0.0
C367 C 0.87083 0.32087 0.06725 0.0
H368 H 0.51963 0.69224 0.41508 0.0
H369 H 0.6874 0.82379 0.43981 0.0
H370 H 0.68862 0.85661 0.3386 0.0
H371 H 0.64137 0.84864 0.24351 0.0
H372 H 0.47265 0.71816 0.22031 0.0
H373 H 0.47274 0.68385 0.32003 0.0
C374 C 0.55671 0.72763 0.39799 0.0
C375 C 0.60338 0.75545 0.43482 0.0
C376 C 0.55689 0.7466 0.34007 0.0
C377 C 0.65082 0.80186 0.41242 0.0
C378 C 0.65155 0.82061 0.35457 0.0
C379 C 0.60446 0.81302 0.26049 0.0
C380 C 0.5571 0.78608 0.22433 0.0
C381 C 0.60462 0.79363 0.31818 0.0
C382 C 0.50991 0.73939 0.2468 0.0
C383 C 0.50982 0.71981 0.30397 0.0
H384 H 0.74382 0.58481 0.83194 0.0
H385 H 0.80891 0.47968 0.78875 0.0
H386 H 0.78641 0.48102 0.68381 0.0
H387 H 0.74815 0.51186 0.6043 0.0
H388 H 0.68528 0.61906 0.64717 0.0
H389 H 0.70559 0.61575 0.75226 0.0
C390 C 0.75261 0.56174 0.79968 0.0
C391 C 0.77807 0.53217 0.81837 0.0
C392 C 0.73968 0.56281 0.73929 0.0
C393 C 0.78992 0.50326 0.77565 0.0
C394 C 0.77682 0.5038 0.71562 0.0
C395 C 0.73936 0.53501 0.63643 0.0
C396 C 0.71518 0.56572 0.61739 0.0
C397 C 0.75191 0.53363 0.69687 0.0
C398 C 0.70314 0.59446 0.66025 0.0
C399 C 0.71513 0.59293 0.72047 0.0
H400 H 0.23679 0.73523 0.87969 0.0
H401 H 0.15606 0.82729 0.84044 0.0
H402 H 0.17955 0.86842 0.9393 0.0
H403 H 0.22277 0.87822 0.0376 0.0
H404 H 0.304 0.78658 0.07629 0.0
H405 H 0.28179 0.74664 0.97682 0.0
C406 C 0.22469 0.76463 0.89246 0.0
C407 C 0.19423 0.77764 0.85246 0.0
C408 C 0.23871 0.78858 0.94943 0.0
C409 C 0.1785 0.81548 0.87045 0.0
C410 C 0.1923 0.83943 0.92696 0.0
C411 C 0.23544 0.84935 1.02435 0.0
C412 C 0.26516 0.83562 0.06458 0.0
C413 C 0.22215 0.8261 0.96699 0.0
C414 C 0.28182 0.79862 0.04617 0.0
C415 C 0.26875 0.77536 0.98933 0.0
H416 H 0.33581 0.10341 0.49753 0.0
H417 H 0.44609 0.27429 0.45652 0.0
H418 H 0.44601 0.2518 0.35175 0.0
H419 H 0.41641 0.18373 0.27211 0.0
H420 H 0.30709 0.01285 0.31229 0.0
H421 H 0.30635 0.03497 0.4175 0.0
C422 C 0.36019 0.1357 0.46579 0.0
C423 C 0.39076 0.19052 0.48499 0.0
C424 C 0.36053 0.12243 0.4056 0.0
C425 C 0.42145 0.23189 0.44295 0.0
C426 C 0.42179 0.21904 0.38305 0.0
C427 C 0.392 0.15138 0.30382 0.0
C428 C 0.36181 0.09669 0.28452 0.0
C429 C 0.39156 0.1645 0.36392 0.0
C430 C 0.33119 0.05513 0.32629 0.0
C431 C 0.33048 0.06784 0.3863 0.0
H432 H 0.16889 0.56945 0.15798 0.0
H433 H 0.04705 0.44345 0.27177 0.0
H434 H 0.05989 0.51194 0.34607 0.0
H435 H 0.11401 0.60611 0.38365 0.0
H436 H 0.24095 0.731 0.27225 0.0
H437 H 0.21826 0.66486 0.19261 0.0
C438 C 0.14394 0.55749 0.19817 0.0
C439 C 0.10669 0.50197 0.20937 0.0
C440 C 0.1536 0.59674 0.24194 0.0
C441 C 0.07555 0.48634 0.26224 0.0
C442 C 0.08333 0.52534 0.30494 0.0
C443 C 0.13648 0.61889 0.34187 0.0
C444 C 0.17975 0.67316 0.33454 0.0
C445 C 0.1237 0.58042 0.29622 0.0
C446 C 0.20815 0.68917 0.27977 0.0
C447 C 0.19499 0.65146 0.23385 0.0
H448 H 0.62099 0.135 0.6375 0.0
H449 H 0.74115 0.24072 0.76739 0.0
H450 H 0.66727 0.21987 0.83854 0.0
H451 H 0.56781 0.17913 0.86007 0.0
H452 H 0.44854 0.07888 0.72712 0.0
H453 H 0.52264 0.08902 0.66157 0.0
C454 C 0.63119 0.15311 0.68153 0.0
C455 C 0.68651 0.18996 0.69664 0.0
C456 C 0.58851 0.14172 0.72189 0.0
C457 C 0.69885 0.21276 0.75415 0.0
C458 C 0.65662 0.20076 0.79503 0.0
C459 C 0.55824 0.15836 0.81743 0.0
C460 C 0.50312 0.12819 0.79831 0.0
C461 C 0.60121 0.16627 0.77893 0.0
C462 C 0.4909 0.10226 0.74257 0.0
C463 C 0.53319 0.10832 0.70498 0.0
H464 H 0.32917 0.52281 0.07689 0.0
H465 H 0.21663 0.47731 0.92831 0.0
H466 H 0.29208 0.53903 0.86326 0.0
H467 H 0.38944 0.6108 0.84941 0.0
H468 H 0.50154 0.65658 0.99818 0.0
H469 H 0.42745 0.58973 0.06145 0.0
C470 C 0.32118 0.52633 1.0303 0.0
C471 C 0.26719 0.49578 1.00794 0.0
C472 C 0.36488 0.56195 0.99275 0.0
C473 C 0.25775 0.50043 0.9471 0.0
C474 C 0.30092 0.53575 0.90959 0.0
C475 C 0.39774 0.60525 0.8953 0.0
C476 C 0.45064 0.63882 0.91912 0.0
C477 C 0.3546 0.56722 0.932 0.0
C478 C 0.46086 0.63155 0.97888 0.0
C479 C 0.41851 0.59342 1.01526 0.0
H480 H 0.88282 0.38986 0.45808 0.0
H481 H 0.75049 0.375 0.56911 0.0
H482 H 0.73523 0.4335 0.50068 0.0
H483 H 0.75112 0.47752 0.40391 0.0
H484 H 0.87843 0.48714 0.28765 0.0
H485 H 0.9042 0.44166 0.36352 0.0
C486 C 0.85188 0.401 0.46795 0.0
C487 C 0.81807 0.37901 0.51849 0.0
C488 C 0.84156 0.43223 0.42683 0.0
C489 C 0.7771 0.39214 0.53053 0.0
C490 C 0.7681 0.42502 0.49121 0.0
C491 C 0.7847 0.46995 0.39498 0.0
C492 C 0.81207 0.48464 0.33967 0.0
C493 C 0.79861 0.44335 0.43819 0.0
C494 C 0.85627 0.47559 0.32958 0.0
C495 C 0.87101 0.44967 0.37295 0.0
H496 H 0.31312 0.80266 0.62123 0.0
H497 H 0.42567 0.83979 0.47456 0.0
H498 H 0.49647 0.84499 0.54336 0.0
H499 H 0.52273 0.83191 0.6441 0.0
H500 H 0.41001 0.79676 0.79094 0.0
H501 H 0.34309 0.79925 0.72316 0.0
C502 C 0.35339 0.8122 0.60464 0.0
C503 C 0.36441 0.82001 0.5433 0.0
C504 C 0.39352 0.81553 0.64434 0.0
C505 C 0.41667 0.83345 0.52179 0.0
C506 C 0.45684 0.83624 0.56103 0.0
C507 C 0.48365 0.82516 0.66144 0.0
C508 C 0.47101 0.81337 0.72241 0.0
C509 C 0.44524 0.82628 0.62224 0.0
C510 C 0.42067 0.80569 0.74428 0.0
C511 C 0.38221 0.8067 0.70551 0.0
H512 H 0.66834 0.43654 0.06877 0.0
H513 H 0.55547 0.39426 0.21625 0.0
H514 H 0.48134 0.32143 0.15649 0.0
H515 H 0.45025 0.26892 0.06275 0.0
H516 H 0.5628 0.31696 0.91373 0.0
H517 H 0.63574 0.38944 0.97353 0.0
C518 C 0.62751 0.41117 0.08784 0.0
C519 C 0.61725 0.41958 0.14693 0.0
C520 C 0.58528 0.37098 0.05287 0.0
C521 C 0.56406 0.38781 0.1709 0.0
C522 C 0.5219 0.3464 0.13679 0.0
C523 C 0.49071 0.29544 0.04338 0.0
C524 C 0.50139 0.28742 0.98412 0.0
C525 C 0.53222 0.33745 0.0778 0.0
C526 C 0.55363 0.32246 0.9592 0.0
C527 C 0.59539 0.36366 0.99342 0.0
loop_
_geom_bond_atom_site_label_1
_geom_bond_atom_site_label_2
_geom_bond_distance
_geom_bond_site_symmetry_2
_ccdc_geom_bond_type
Eu0 C9 2.828 . S
Eu0 O11 2.392 . S
Eu0 O13 2.418 . S
Eu0 O18 2.373 . S
Eu0 O21 2.488 . S
Eu0 O22 2.471 . S
Eu0 O23 2.349 . S
Eu1 O10 2.373 1_554 S
Eu1 O14 2.488 1_554 S
Eu1 O15 2.471 1_554 S
Eu1 O16 2.349 . S
Eu1 O19 2.392 . S
Eu1 O20 2.418 . S
Eu1 C30 2.828 1_554 S
C2 O20 1.244 . S
C2 O23 1.265 . S
C3 C4 1.379 . S
C3 C7 1.373 . S
C3 C9 1.505 . S
C4 C3 1.379 . S
C4 C6 1.369 . S
C4 H32 0.930 . S
C5 C7 1.383 . S
C5 C8 1.382 . S
C5 H33 0.930 . S
C6 C4 1.369 . S
C6 C8 1.392 . S
C6 H34 0.930 . S
C7 C3 1.373 . S
C7 C5 1.383 . S
C7 H35 0.931 . S
C8 C5 1.382 . S
C8 C6 1.392 . S
C9 Eu0 2.828 . S
C9 C3 1.505 . S
C9 O21 1.249 . S
C9 O22 1.244 . S
O10 Eu1 2.373 1_556 S
O10 C12 1.258 1_556 S
O11 Eu0 2.392 . S
O11 C12 1.242 . S
C12 O10 1.258 1_554 S
C12 O11 1.242 . S
O13 Eu0 2.418 . S
O13 C17 1.244 . S
O14 Eu1 2.488 1_556 S
O14 C30 1.249 . S
O15 Eu1 2.471 1_556 S
O15 C30 1.244 . S
O16 Eu1 2.349 . S
O16 C17 1.265 . S
C17 O13 1.244 . S
C17 O16 1.265 . S
O18 Eu0 2.373 . S
O18 C31 1.258 . S
O19 Eu1 2.392 . S
O19 C31 1.242 . S
O20 Eu1 2.418 . S
O20 C2 1.244 . S
O21 Eu0 2.488 . S
O21 C9 1.249 . S
O22 Eu0 2.471 . S
O22 C9 1.244 . S
O23 Eu0 2.349 . S
O23 C2 1.265 . S
C24 C25 1.379 . S
C24 C28 1.373 . S
C24 C30 1.505 . S
C25 C24 1.379 . S
C25 C27 1.369 . S
C25 H36 0.930 . S
C26 C28 1.383 . S
C26 C29 1.382 . S
C26 H37 0.930 . S
C27 C25 1.369 . S
C27 C29 1.392 . S
C27 H38 0.930 . S
C28 C24 1.373 . S
C28 C26 1.383 . S
C28 H39 0.931 . S
C29 C26 1.382 . S
C29 C27 1.392 . S
C30 Eu1 2.828 1_556 S
C30 O14 1.249 . S
C30 O15 1.244 . S
C30 C24 1.505 . S
C31 O18 1.258 . S
C31 O19 1.242 . S
H32 C4 0.930 . S
H33 C5 0.930 . S
H34 C6 0.930 . S
H35 C7 0.931 . S
H36 C25 0.930 . S
H37 C26 0.930 . S
H38 C27 0.930 . S
H39 C28 0.931 . S
Eu40 C49 2.828 . S
Eu40 O51 2.392 . S
Eu40 O53 2.418 . S
Eu40 O58 2.373 . S
Eu40 O61 2.488 . S
Eu40 O62 2.471 . S
Eu40 O63 2.349 . S
Eu41 O50 2.373 . S
Eu41 O54 2.488 . S
Eu41 O55 2.471 . S
Eu41 O56 2.349 . S
Eu41 O59 2.392 . S
Eu41 O60 2.418 . S
Eu41 C70 2.828 . S
C42 O60 1.244 . S
C42 O63 1.265 . S
C43 C44 1.379 . S
C43 C47 1.373 . S
C43 C49 1.505 . S
C44 C43 1.379 . S
C44 C46 1.369 . S
C44 H72 0.930 . S
C45 C47 1.383 . S
C45 C48 1.382 . S
C45 H73 0.930 . S
C46 C44 1.369 . S
C46 C48 1.392 . S
C46 H74 0.930 . S
C47 C43 1.373 . S
C47 C45 1.383 . S
C47 H75 0.931 . S
C48 C45 1.382 . S
C48 C46 1.392 . S
C49 Eu40 2.828 . S
C49 C43 1.505 . S
C49 O61 1.249 . S
C49 O62 1.244 . S
O50 Eu41 2.373 . S
O50 C52 1.258 . S
O51 Eu40 2.392 . S
O51 C52 1.242 . S
C52 O50 1.258 . S
C52 O51 1.242 . S
O53 Eu40 2.418 . S
O53 C57 1.244 . S
O54 Eu41 2.488 . S
O54 C70 1.249 . S
O55 Eu41 2.471 . S
O55 C70 1.244 . S
O56 Eu41 2.349 . S
O56 C57 1.265 . S
C57 O53 1.244 . S
C57 O56 1.265 . S
O58 Eu40 2.373 . S
O58 C71 1.258 . S
O59 Eu41 2.392 . S
O59 C71 1.242 . S
O60 Eu41 2.418 . S
O60 C42 1.244 . S
O61 Eu40 2.488 . S
O61 C49 1.249 . S
O62 Eu40 2.471 . S
O62 C49 1.244 . S
O63 Eu40 2.349 . S
O63 C42 1.265 . S
C64 C65 1.379 . S
C64 C68 1.373 . S
C64 C70 1.505 . S
C65 C64 1.379 . S
C65 C67 1.369 . S
C65 H76 0.930 . S
C66 C68 1.383 . S
C66 C69 1.382 . S
C66 H77 0.930 . S
C67 C65 1.369 . S
C67 C69 1.392 . S
C67 H78 0.930 . S
C68 C64 1.373 . S
C68 C66 1.383 . S
C68 H79 0.931 . S
C69 C66 1.382 . S
C69 C67 1.392 . S
C70 Eu41 2.828 . S
C70 O54 1.249 . S
C70 O55 1.244 . S
C70 C64 1.505 . S
C71 O58 1.258 . S
C71 O59 1.242 . S
H72 C44 0.930 . S
H73 C45 0.930 . S
H74 C46 0.930 . S
H75 C47 0.931 . S
H76 C65 0.930 . S
H77 C66 0.930 . S
H78 C67 0.930 . S
H79 C68 0.931 . S
Eu80 C89 2.828 . S
Eu80 O91 2.392 . S
Eu80 O93 2.418 . S
Eu80 O98 2.373 . S
Eu80 O101 2.488 . S
Eu80 O102 2.471 . S
Eu80 O103 2.349 . S
Eu81 O90 2.373 . S
Eu81 O94 2.488 . S
Eu81 O95 2.471 . S
Eu81 O96 2.349 . S
Eu81 O99 2.392 . S
Eu81 O100 2.418 . S
Eu81 C110 2.828 . S
C82 O100 1.244 . S
C82 O103 1.265 . S
C83 C84 1.379 1_556 S
C83 C87 1.373 1_556 S
C83 C89 1.505 . S
C84 C83 1.379 1_554 S
C84 C86 1.369 . S
C84 H112 0.930 . S
C85 C87 1.383 . S
C85 C88 1.382 . S
C85 H113 0.930 . S
C86 C84 1.369 . S
C86 C88 1.392 . S
C86 H114 0.930 . S
C87 C83 1.373 1_554 S
C87 C85 1.383 . S
C87 H115 0.931 1_554 S
C88 C85 1.382 . S
C88 C86 1.392 . S
C89 Eu80 2.828 . S
C89 C83 1.505 . S
C89 O101 1.249 . S
C89 O102 1.244 . S
O90 Eu81 2.373 . S
O90 C92 1.258 . S
O91 Eu80 2.392 . S
O91 C92 1.242 . S
C92 O90 1.258 . S
C92 O91 1.242 . S
O93 Eu80 2.418 . S
O93 C97 1.244 . S
O94 Eu81 2.488 . S
O94 C110 1.249 . S
O95 Eu81 2.471 . S
O95 C110 1.244 . S
O96 Eu81 2.349 . S
O96 C97 1.265 . S
C97 O93 1.244 . S
C97 O96 1.265 . S
O98 Eu80 2.373 . S
O98 C111 1.258 . S
O99 Eu81 2.392 . S
O99 C111 1.242 . S
O100 Eu81 2.418 . S
O100 C82 1.244 . S
O101 Eu80 2.488 . S
O101 C89 1.249 . S
O102 Eu80 2.471 . S
O102 C89 1.244 . S
O103 Eu80 2.349 . S
O103 C82 1.265 . S
C104 C105 1.379 . S
C104 C108 1.373 . S
C104 C110 1.505 . S
C105 C104 1.379 . S
C105 C107 1.369 . S
C105 H116 0.930 . S
C106 C108 1.383 . S
C106 C109 1.382 . S
C106 H117 0.930 . S
C107 C105 1.369 . S
C107 C109 1.392 . S
C107 H118 0.930 . S
C108 C104 1.373 . S
C108 C106 1.383 . S
C108 H119 0.931 . S
C109 C106 1.382 . S
C109 C107 1.392 . S
C110 Eu81 2.828 . S
C110 O94 1.249 . S
C110 O95 1.244 . S
C110 C104 1.505 . S
C111 O98 1.258 . S
C111 O99 1.242 . S
H112 C84 0.930 . S
H113 C85 0.930 . S
H114 C86 0.930 . S
H115 C87 0.931 1_556 S
H116 C105 0.930 . S
H117 C106 0.930 . S
H118 C107 0.930 . S
H119 C108 0.931 . S
Eu120 C129 2.828 . S
Eu120 O131 2.392 . S
Eu120 O133 2.418 . S
Eu120 O138 2.373 . S
Eu120 O141 2.488 . S
Eu120 O142 2.471 . S
Eu120 O143 2.349 . S
Eu121 O130 2.373 . S
Eu121 O134 2.488 . S
Eu121 O135 2.471 . S
Eu121 O136 2.349 . S
Eu121 O139 2.392 . S
Eu121 O140 2.418 . S
Eu121 C150 2.828 . S
C122 O140 1.244 . S
C122 O143 1.265 . S
C123 C124 1.379 . S
C123 C127 1.373 . S
C123 C129 1.505 1_556 S
C124 C123 1.379 . S
C124 C126 1.369 . S
C124 H152 0.930 . S
C125 C127 1.383 . S
C125 C128 1.382 . S
C125 H153 0.930 . S
C126 C124 1.369 . S
C126 C128 1.392 . S
C126 H154 0.930 . S
C127 C123 1.373 . S
C127 C125 1.383 . S
C127 H155 0.931 . S
C128 C125 1.382 . S
C128 C126 1.392 . S
C129 Eu120 2.828 . S
C129 C123 1.505 1_554 S
C129 O141 1.249 . S
C129 O142 1.244 . S
O130 Eu121 2.373 . S
O130 C132 1.258 . S
O131 Eu120 2.392 . S
O131 C132 1.242 . S
C132 O130 1.258 . S
C132 O131 1.242 . S
O133 Eu120 2.418 . S
O133 C137 1.244 . S
O134 Eu121 2.488 . S
O134 C150 1.249 . S
O135 Eu121 2.471 . S
O135 C150 1.244 . S
O136 Eu121 2.349 . S
O136 C137 1.265 . S
C137 O133 1.244 . S
C137 O136 1.265 . S
O138 Eu120 2.373 . S
O138 C151 1.258 . S
O139 Eu121 2.392 . S
O139 C151 1.242 . S
O140 Eu121 2.418 . S
O140 C122 1.244 . S
O141 Eu120 2.488 . S
O141 C129 1.249 . S
O142 Eu120 2.471 . S
O142 C129 1.244 . S
O143 Eu120 2.349 . S
O143 C122 1.265 . S
C144 C145 1.379 . S
C144 C148 1.373 . S
C144 C150 1.505 . S
C145 C144 1.379 . S
C145 C147 1.369 . S
C145 H156 0.930 . S
C146 C148 1.383 . S
C146 C149 1.382 . S
C146 H157 0.930 . S
C147 C145 1.369 . S
C147 C149 1.392 . S
C147 H158 0.930 . S
C148 C144 1.373 . S
C148 C146 1.383 . S
C148 H159 0.931 . S
C149 C146 1.382 . S
C149 C147 1.392 . S
C150 Eu121 2.828 . S
C150 O134 1.249 . S
C150 O135 1.244 . S
C150 C144 1.505 . S
C151 O138 1.258 . S
C151 O139 1.242 . S
H152 C124 0.930 . S
H153 C125 0.930 . S
H154 C126 0.930 . S
H155 C127 0.931 . S
H156 C145 0.930 . S
H157 C146 0.930 . S
H158 C147 0.930 . S
H159 C148 0.931 . S
Eu160 C169 2.828 . S
Eu160 O171 2.392 . S
Eu160 O173 2.418 . S
Eu160 O178 2.373 . S
Eu160 O181 2.488 . S
Eu160 O182 2.471 . S
Eu160 O183 2.349 . S
Eu161 O170 2.373 . S
Eu161 O174 2.488 . S
Eu161 O175 2.471 . S
Eu161 O176 2.349 . S
Eu161 O179 2.392 . S
Eu161 O180 2.418 . S
Eu161 C190 2.828 . S
C162 O180 1.244 . S
C162 O183 1.265 . S
C163 C164 1.379 . S
C163 C167 1.373 . S
C163 C169 1.505 . S
C164 C163 1.379 . S
C164 C166 1.369 . S
C164 H192 0.930 . S
C165 C167 1.383 . S
C165 C168 1.382 . S
C165 H193 0.930 . S
C166 C164 1.369 . S
C166 C168 1.392 . S
C166 H194 0.930 . S
C167 C163 1.373 . S
C167 C165 1.383 . S
C167 H195 0.931 . S
C168 C165 1.382 . S
C168 C166 1.392 . S
C169 Eu160 2.828 . S
C169 C163 1.505 . S
C169 O181 1.249 . S
C169 O182 1.244 . S
O170 Eu161 2.373 . S
O170 C172 1.258 . S
O171 Eu160 2.392 . S
O171 C172 1.242 . S
C172 O170 1.258 . S
C172 O171 1.242 . S
O173 Eu160 2.418 . S
O173 C177 1.244 . S
O174 Eu161 2.488 . S
O174 C190 1.249 . S
O175 Eu161 2.471 . S
O175 C190 1.244 . S
O176 Eu161 2.349 . S
O176 C177 1.265 . S
C177 O173 1.244 . S
C177 O176 1.265 . S
O178 Eu160 2.373 . S
O178 C191 1.258 . S
O179 Eu161 2.392 . S
O179 C191 1.242 . S
O180 Eu161 2.418 . S
O180 C162 1.244 . S
O181 Eu160 2.488 . S
O181 C169 1.249 . S
O182 Eu160 2.471 . S
O182 C169 1.244 . S
O183 Eu160 2.349 . S
O183 C162 1.265 . S
C184 C185 1.379 . S
C184 C188 1.373 . S
C184 C190 1.505 . S
C185 C184 1.379 . S
C185 C187 1.369 . S
C185 H196 0.930 . S
C186 C188 1.383 . S
C186 C189 1.382 . S
C186 H197 0.930 . S
C187 C185 1.369 . S
C187 C189 1.392 . S
C187 H198 0.930 . S
C188 C184 1.373 . S
C188 C186 1.383 . S
C188 H199 0.931 . S
C189 C186 1.382 . S
C189 C187 1.392 . S
C190 Eu161 2.828 . S
C190 O174 1.249 . S
C190 O175 1.244 . S
C190 C184 1.505 . S
C191 O178 1.258 . S
C191 O179 1.242 . S
H192 C164 0.930 . S
H193 C165 0.930 . S
H194 C166 0.930 . S
H195 C167 0.931 . S
H196 C185 0.930 . S
H197 C186 0.930 . S
H198 C187 0.930 . S
H199 C188 0.931 . S
Eu200 C209 2.828 . S
Eu200 O211 2.392 . S
Eu200 O213 2.418 . S
Eu200 O218 2.373 . S
Eu200 O221 2.488 . S
Eu200 O222 2.471 . S
Eu200 O223 2.349 . S
Eu201 O210 2.373 . S
Eu201 O214 2.488 1_556 S
Eu201 O215 2.471 1_556 S
Eu201 O216 2.349 . S
Eu201 O219 2.392 . S
Eu201 O220 2.418 . S
Eu201 C230 2.828 1_556 S
C202 O220 1.244 . S
C202 O223 1.265 . S
C203 C204 1.379 . S
C203 C207 1.373 . S
C203 C209 1.505 . S
C204 C203 1.379 . S
C204 C206 1.369 . S
C204 H232 0.930 . S
C205 C207 1.383 . S
C205 C208 1.382 . S
C205 H233 0.930 . S
C206 C204 1.369 . S
C206 C208 1.392 . S
C206 H234 0.930 . S
C207 C203 1.373 . S
C207 C205 1.383 . S
C207 H235 0.931 . S
C208 C205 1.382 . S
C208 C206 1.392 . S
C209 Eu200 2.828 . S
C209 C203 1.505 . S
C209 O221 1.249 . S
C209 O222 1.244 . S
O210 Eu201 2.373 . S
O210 C212 1.258 . S
O211 Eu200 2.392 . S
O211 C212 1.242 . S
C212 O210 1.258 . S
C212 O211 1.242 . S
O213 Eu200 2.418 . S
O213 C217 1.244 . S
O214 Eu201 2.488 1_554 S
O214 C230 1.249 . S
O215 Eu201 2.471 1_554 S
O215 C230 1.244 . S
O216 Eu201 2.349 . S
O216 C217 1.265 . S
C217 O213 1.244 . S
C217 O216 1.265 . S
O218 Eu200 2.373 . S
O218 C231 1.258 . S
O219 Eu201 2.392 . S
O219 C231 1.242 . S
O220 Eu201 2.418 . S
O220 C202 1.244 . S
O221 Eu200 2.488 . S
O221 C209 1.249 . S
O222 Eu200 2.471 . S
O222 C209 1.244 . S
O223 Eu200 2.349 . S
O223 C202 1.265 . S
C224 C225 1.379 . S
C224 C228 1.373 . S
C224 C230 1.505 . S
C225 C224 1.379 . S
C225 C227 1.369 . S
C225 H236 0.930 . S
C226 C228 1.383 . S
C226 C229 1.382 . S
C226 H237 0.930 . S
C227 C225 1.369 . S
C227 C229 1.392 . S
C227 H238 0.930 . S
C228 C224 1.373 . S
C228 C226 1.383 . S
C228 H239 0.931 . S
C229 C226 1.382 . S
C229 C227 1.392 . S
C230 Eu201 2.828 1_554 S
C230 O214 1.249 . S
C230 O215 1.244 . S
C230 C224 1.505 . S
C231 O218 1.258 . S
C231 O219 1.242 . S
H232 C204 0.930 . S
H233 C205 0.930 . S
H234 C206 0.930 . S
H235 C207 0.931 . S
H236 C225 0.930 . S
H237 C226 0.930 . S
H238 C227 0.930 . S
H239 C228 0.931 . S
H240 C246 0.930 . S
H241 C249 0.930 1_554 S
H242 C250 0.930 . S
H243 C251 0.930 . S
H244 C254 0.930 . S
H245 C255 0.930 . S
C246 H240 0.930 . S
C246 C247 1.355 . S
C246 C248 1.415 . S
C247 C246 1.355 . S
C247 C249 1.419 . S
C248 C246 1.415 . S
C248 C253 1.425 1_556 S
C248 C255 1.409 . S
C249 H241 0.930 1_556 S
C249 C247 1.419 . S
C249 C250 1.362 1_556 S
C250 H242 0.930 . S
C250 C249 1.362 1_554 S
C250 C253 1.409 . S
C251 H243 0.930 . S
C251 C252 1.355 . S
C251 C253 1.415 . S
C252 C251 1.355 . S
C252 C254 1.419 1_554 S
C253 C248 1.425 1_554 S
C253 C250 1.409 . S
C253 C251 1.415 . S
C254 H244 0.930 . S
C254 C252 1.419 1_556 S
C254 C255 1.362 . S
C255 H245 0.930 . S
C255 C248 1.409 . S
C255 C254 1.362 . S
H256 C262 0.930 . S
H257 C265 0.930 . S
H258 C266 0.930 . S
H259 C267 0.930 . S
H260 C270 0.930 . S
H261 C271 0.930 . S
C262 H256 0.930 . S
C262 C263 1.355 . S
C262 C264 1.415 1_455 S
C263 C262 1.355 . S
C263 C265 1.419 . S
C264 C262 1.415 1_655 S
C264 C269 1.425 1_655 S
C264 C271 1.409 . S
C265 H257 0.930 . S
C265 C263 1.419 . S
C265 C266 1.362 . S
C266 H258 0.930 . S
C266 C265 1.362 . S
C266 C269 1.409 . S
C267 H259 0.930 . S
C267 C268 1.355 . S
C267 C269 1.415 1_655 S
C268 C267 1.355 . S
C268 C270 1.419 . S
C269 C264 1.425 1_455 S
C269 C266 1.409 . S
C269 C267 1.415 1_455 S
C270 H260 0.930 . S
C270 C268 1.419 . S
C270 C271 1.362 . S
C271 H261 0.930 . S
C271 C264 1.409 . S
C271 C270 1.362 . S
H272 C278 0.930 . S
H273 C281 0.930 . S
H274 C282 0.930 . S
H275 C283 0.930 . S
H276 C286 0.930 . S
H277 C287 0.930 . S
C278 H272 0.930 . S
C278 C279 1.355 . S
C278 C280 1.415 . S
C279 C278 1.355 . S
C279 C281 1.419 . S
C280 C278 1.415 . S
C280 C285 1.425 1_545 S
C280 C287 1.409 1_545 S
C281 H273 0.930 . S
C281 C279 1.419 . S
C281 C282 1.362 . S
C282 H274 0.930 . S
C282 C281 1.362 . S
C282 C285 1.409 1_545 S
C283 H275 0.930 . S
C283 C284 1.355 . S
C283 C285 1.415 . S
C284 C283 1.355 . S
C284 C286 1.419 . S
C285 C280 1.425 1_565 S
C285 C282 1.409 1_565 S
C285 C283 1.415 . S
C286 H276 0.930 . S
C286 C284 1.419 . S
C286 C287 1.362 . S
C287 H277 0.930 . S
C287 C280 1.409 1_565 S
C287 C286 1.362 . S
H288 C294 0.930 . S
H289 C297 0.930 . S
H290 C298 0.930 1_554 S
H291 C299 0.930 . S
H292 C302 0.930 . S
H293 C303 0.930 . S
C294 H288 0.930 . S
C294 C295 1.355 . S
C294 C296 1.415 . S
C295 C294 1.355 . S
C295 C297 1.419 . S
C296 C294 1.415 . S
C296 C301 1.425 1_556 S
C296 C303 1.409 . S
C297 H289 0.930 . S
C297 C295 1.419 . S
C297 C298 1.362 . S
C298 H290 0.930 1_556 S
C298 C297 1.362 . S
C298 C301 1.409 1_556 S
C299 H291 0.930 . S
C299 C300 1.355 . S
C299 C301 1.415 . S
C300 C299 1.355 . S
C300 C302 1.419 . S
C301 C296 1.425 1_554 S
C301 C298 1.409 1_554 S
C301 C299 1.415 . S
C302 H292 0.930 . S
C302 C300 1.419 . S
C302 C303 1.362 1_554 S
C303 H293 0.930 . S
C303 C296 1.409 . S
C303 C302 1.362 1_556 S
H304 C310 0.930 . S
H305 C313 0.930 . S
H306 C314 0.930 1_655 S
H307 C315 0.930 . S
H308 C318 0.930 . S
H309 C319 0.930 1_455 S
C310 H304 0.930 . S
C310 C311 1.355 . S
C310 C312 1.415 . S
C311 C310 1.355 . S
C311 C313 1.419 . S
C312 C310 1.415 . S
C312 C317 1.425 1_455 S
C312 C319 1.409 1_455 S
C313 H305 0.930 . S
C313 C311 1.419 . S
C313 C314 1.362 . S
C314 H306 0.930 1_455 S
C314 C313 1.362 . S
C314 C317 1.409 1_455 S
C315 H307 0.930 . S
C315 C316 1.355 . S
C315 C317 1.415 . S
C316 C315 1.355 . S
C316 C318 1.419 . S
C317 C312 1.425 1_655 S
C317 C314 1.409 1_655 S
C317 C315 1.415 . S
C318 H308 0.930 . S
C318 C316 1.419 . S
C318 C319 1.362 . S
C319 H309 0.930 1_655 S
C319 C312 1.409 1_655 S
C319 C318 1.362 . S
H320 C326 0.930 . S
H321 C329 0.930 . S
H322 C330 0.930 . S
H323 C331 0.930 . S
H324 C334 0.930 . S
H325 C335 0.930 . S
C326 H320 0.930 . S
C326 C327 1.355 . S
C326 C328 1.415 . S
C327 C326 1.355 . S
C327 C329 1.419 1_545 S
C328 C326 1.415 . S
C328 C333 1.425 1_545 S
C328 C335 1.409 . S
C329 H321 0.930 . S
C329 C327 1.419 1_565 S
C329 C330 1.362 . S
C330 H322 0.930 . S
C330 C329 1.362 . S
C330 C333 1.409 . S
C331 H323 0.930 . S
C331 C332 1.355 . S
C331 C333 1.415 . S
C332 C331 1.355 . S
C332 C334 1.419 1_565 S
C333 C328 1.425 1_565 S
C333 C330 1.409 . S
C333 C331 1.415 . S
C334 H324 0.930 . S
C334 C332 1.419 1_545 S
C334 C335 1.362 . S
C335 H325 0.930 . S
C335 C328 1.409 . S
C335 C334 1.362 . S
H336 C342 0.930 . S
H337 C345 0.930 . S
H338 C346 0.930 . S
H339 C347 0.930 . S
H340 C350 0.930 . S
H341 C351 0.930 . S
C342 H336 0.930 . S
C342 C343 1.355 . S
C342 C344 1.415 . S
C343 C342 1.355 . S
C343 C345 1.419 . S
C344 C342 1.415 . S
C344 C349 1.425 . S
C344 C351 1.409 . S
C345 H337 0.930 . S
C345 C343 1.419 . S
C345 C346 1.362 . S
C346 H338 0.930 . S
C346 C345 1.362 . S
C346 C349 1.409 . S
C347 H339 0.930 . S
C347 C348 1.355 . S
C347 C349 1.415 . S
C348 C347 1.355 . S
C348 C350 1.419 . S
C349 C344 1.425 . S
C349 C346 1.409 . S
C349 C347 1.415 . S
C350 H340 0.930 . S
C350 C348 1.419 . S
C350 C351 1.362 . S
C351 H341 0.930 . S
C351 C344 1.409 . S
C351 C350 1.362 . S
H352 C358 0.930 . S
H353 C361 0.930 . S
H354 C362 0.930 . S
H355 C363 0.930 . S
H356 C366 0.930 . S
H357 C367 0.930 . S
C358 H352 0.930 . S
C358 C359 1.355 . S
C358 C360 1.415 . S
C359 C358 1.355 . S
C359 C361 1.419 . S
C360 C358 1.415 . S
C360 C365 1.425 . S
C360 C367 1.409 . S
C361 H353 0.930 . S
C361 C359 1.419 . S
C361 C362 1.362 . S
C362 H354 0.930 . S
C362 C361 1.362 . S
C362 C365 1.409 . S
C363 H355 0.930 . S
C363 C364 1.355 . S
C363 C365 1.415 1_556 S
C364 C363 1.355 . S
C364 C366 1.419 1_556 S
C365 C360 1.425 . S
C365 C362 1.409 . S
C365 C363 1.415 1_554 S
C366 H356 0.930 . S
C366 C364 1.419 1_554 S
C366 C367 1.362 . S
C367 H357 0.930 . S
C367 C360 1.409 . S
C367 C366 1.362 . S
H368 C374 0.930 . S
H369 C377 0.930 . S
H370 C378 0.930 . S
H371 C379 0.930 . S
H372 C382 0.930 . S
H373 C383 0.930 . S
C374 H368 0.930 . S
C374 C375 1.355 . S
C374 C376 1.415 . S
C375 C374 1.355 . S
C375 C377 1.419 . S
C376 C374 1.415 . S
C376 C381 1.425 . S
C376 C383 1.409 . S
C377 H369 0.930 . S
C377 C375 1.419 . S
C377 C378 1.362 . S
C378 H370 0.930 . S
C378 C377 1.362 . S
C378 C381 1.409 . S
C379 H371 0.930 . S
C379 C380 1.355 . S
C379 C381 1.415 . S
C380 C379 1.355 . S
C380 C382 1.419 . S
C381 C376 1.425 . S
C381 C378 1.409 . S
C381 C379 1.415 . S
C382 H372 0.930 . S
C382 C380 1.419 . S
C382 C383 1.362 . S
C383 H373 0.930 . S
C383 C376 1.409 . S
C383 C382 1.362 . S
H384 C390 0.930 . S
H385 C393 0.930 . S
H386 C394 0.930 . S
H387 C395 0.930 . S
H388 C398 0.930 . S
H389 C399 0.930 . S
C390 H384 0.930 . S
C390 C391 1.355 . S
C390 C392 1.415 . S
C391 C390 1.355 . S
C391 C393 1.419 . S
C392 C390 1.415 . S
C392 C397 1.425 . S
C392 C399 1.409 . S
C393 H385 0.930 . S
C393 C391 1.419 . S
C393 C394 1.362 . S
C394 H386 0.930 . S
C394 C393 1.362 . S
C394 C397 1.409 . S
C395 H387 0.930 . S
C395 C396 1.355 . S
C395 C397 1.415 . S
C396 C395 1.355 . S
C396 C398 1.419 . S
C397 C392 1.425 . S
C397 C394 1.409 . S
C397 C395 1.415 . S
C398 H388 0.930 . S
C398 C396 1.419 . S
C398 C399 1.362 . S
C399 H389 0.930 . S
C399 C392 1.409 . S
C399 C398 1.362 . S
H400 C406 0.930 . S
H401 C409 0.930 . S
H402 C410 0.930 . S
H403 C411 0.930 . S
H404 C414 0.930 1_554 S
H405 C415 0.930 . S
C406 H400 0.930 . S
C406 C407 1.355 . S
C406 C408 1.415 . S
C407 C406 1.355 . S
C407 C409 1.419 . S
C408 C406 1.415 . S
C408 C413 1.425 . S
C408 C415 1.409 . S
C409 H401 0.930 . S
C409 C407 1.419 . S
C409 C410 1.362 . S
C410 H402 0.930 . S
C410 C409 1.362 . S
C410 C413 1.409 . S
C411 H403 0.930 . S
C411 C412 1.355 1_556 S
C411 C413 1.415 . S
C412 C411 1.355 1_554 S
C412 C414 1.419 1_554 S
C413 C408 1.425 . S
C413 C410 1.409 . S
C413 C411 1.415 . S
C414 H404 0.930 1_556 S
C414 C412 1.419 1_556 S
C414 C415 1.362 . S
C415 H405 0.930 . S
C415 C408 1.409 . S
C415 C414 1.362 . S
H416 C422 0.930 . S
H417 C425 0.930 . S
H418 C426 0.930 . S
H419 C427 0.930 . S
H420 C430 0.930 . S
H421 C431 0.930 . S
C422 H416 0.930 . S
C422 C423 1.355 . S
C422 C424 1.415 . S
C423 C422 1.355 . S
C423 C425 1.419 . S
C424 C422 1.415 . S
C424 C429 1.425 . S
C424 C431 1.409 . S
C425 H417 0.930 . S
C425 C423 1.419 . S
C425 C426 1.362 . S
C426 H418 0.930 . S
C426 C425 1.362 . S
C426 C429 1.409 . S
C427 H419 0.930 . S
C427 C428 1.355 . S
C427 C429 1.415 . S
C428 C427 1.355 . S
C428 C430 1.419 . S
C429 C424 1.425 . S
C429 C426 1.409 . S
C429 C427 1.415 . S
C430 H420 0.930 . S
C430 C428 1.419 . S
C430 C431 1.362 . S
C431 H421 0.930 . S
C431 C424 1.409 . S
C431 C430 1.362 . S
H432 C438 0.930 . S
H433 C441 0.930 . S
H434 C442 0.930 . S
H435 C443 0.930 . S
H436 C446 0.930 . S
H437 C447 0.930 . S
C438 H432 0.930 . S
C438 C439 1.355 . S
C438 C440 1.415 . S
C439 C438 1.355 . S
C439 C441 1.419 . S
C440 C438 1.415 . S
C440 C445 1.425 . S
C440 C447 1.409 . S
C441 H433 0.930 . S
C441 C439 1.419 . S
C441 C442 1.362 . S
C442 H434 0.930 . S
C442 C441 1.362 . S
C442 C445 1.409 . S
C443 H435 0.930 . S
C443 C444 1.355 . S
C443 C445 1.415 . S
C444 C443 1.355 . S
C444 C446 1.419 . S
C445 C440 1.425 . S
C445 C442 1.409 . S
C445 C443 1.415 . S
C446 H436 0.930 . S
C446 C444 1.419 . S
C446 C447 1.362 . S
C447 H437 0.930 . S
C447 C440 1.409 . S
C447 C446 1.362 . S
H448 C454 0.930 . S
H449 C457 0.930 . S
H450 C458 0.930 . S
H451 C459 0.930 . S
H452 C462 0.930 . S
H453 C463 0.930 . S
C454 H448 0.930 . S
C454 C455 1.355 . S
C454 C456 1.415 . S
C455 C454 1.355 . S
C455 C457 1.419 . S
C456 C454 1.415 . S
C456 C461 1.425 . S
C456 C463 1.409 . S
C457 H449 0.930 . S
C457 C455 1.419 . S
C457 C458 1.362 . S
C458 H450 0.930 . S
C458 C457 1.362 . S
C458 C461 1.409 . S
C459 H451 0.930 . S
C459 C460 1.355 . S
C459 C461 1.415 . S
C460 C459 1.355 . S
C460 C462 1.419 . S
C461 C456 1.425 . S
C461 C458 1.409 . S
C461 C459 1.415 . S
C462 H452 0.930 . S
C462 C460 1.419 . S
C462 C463 1.362 . S
C463 H453 0.930 . S
C463 C456 1.409 . S
C463 C462 1.362 . S
H464 C470 0.930 . S
H465 C473 0.930 . S
H466 C474 0.930 . S
H467 C475 0.930 . S
H468 C478 0.930 . S
H469 C479 0.930 . S
C470 H464 0.930 . S
C470 C471 1.355 . S
C470 C472 1.415 . S
C471 C470 1.355 . S
C471 C473 1.419 . S
C472 C470 1.415 . S
C472 C477 1.425 . S
C472 C479 1.409 . S
C473 H465 0.930 . S
C473 C471 1.419 . S
C473 C474 1.362 . S
C474 H466 0.930 . S
C474 C473 1.362 . S
C474 C477 1.409 . S
C475 H467 0.930 . S
C475 C476 1.355 . S
C475 C477 1.415 . S
C476 C475 1.355 . S
C476 C478 1.419 . S
C477 C472 1.425 . S
C477 C474 1.409 . S
C477 C475 1.415 . S
C478 H468 0.930 . S
C478 C476 1.419 . S
C478 C479 1.362 . S
C479 H469 0.930 . S
C479 C472 1.409 . S
C479 C478 1.362 . S
H480 C486 0.930 . S
H481 C489 0.930 . S
H482 C490 0.930 . S
H483 C491 0.930 . S
H484 C494 0.930 . S
H485 C495 0.930 . S
C486 H480 0.930 . S
C486 C487 1.355 . S
C486 C488 1.415 . S
C487 C486 1.355 . S
C487 C489 1.419 . S
C488 C486 1.415 . S
C488 C493 1.425 . S
C488 C495 1.409 . S
C489 H481 0.930 . S
C489 C487 1.419 . S
C489 C490 1.362 . S
C490 H482 0.930 . S
C490 C489 1.362 . S
C490 C493 1.409 . S
C491 H483 0.930 . S
C491 C492 1.355 . S
C491 C493 1.415 . S
C492 C491 1.355 . S
C492 C494 1.419 . S
C493 C488 1.425 . S
C493 C490 1.409 . S
C493 C491 1.415 . S
C494 H484 0.930 . S
C494 C492 1.419 . S
C494 C495 1.362 . S
C495 H485 0.930 . S
C495 C488 1.409 . S
C495 C494 1.362 . S
H496 C502 0.930 . S
H497 C505 0.930 . S
H498 C506 0.930 . S
H499 C507 0.930 . S
H500 C510 0.930 . S
H501 C511 0.930 . S
C502 H496 0.930 . S
C502 C503 1.355 . S
C502 C504 1.415 . S
C503 C502 1.355 . S
C503 C505 1.419 . S
C504 C502 1.415 . S
C504 C509 1.425 . S
C504 C511 1.409 . S
C505 H497 0.930 . S
C505 C503 1.419 . S
C505 C506 1.362 . S
C506 H498 0.930 . S
C506 C505 1.362 . S
C506 C509 1.409 . S
C507 H499 0.930 . S
C507 C508 1.355 . S
C507 C509 1.415 . S
C508 C507 1.355 . S
C508 C510 1.419 . S
C509 C504 1.425 . S
C509 C506 1.409 . S
C509 C507 1.415 . S
C510 H500 0.930 . S
C510 C508 1.419 . S
C510 C511 1.362 . S
C511 H501 0.930 . S
C511 C504 1.409 . S
C511 C510 1.362 . S
H512 C518 0.930 . S
H513 C521 0.930 . S
H514 C522 0.930 . S
H515 C523 0.930 . S
H516 C526 0.930 . S
H517 C527 0.930 . S
C518 H512 0.930 . S
C518 C519 1.355 . S
C518 C520 1.415 . S
C519 C518 1.355 . S
C519 C521 1.419 . S
C520 C518 1.415 . S
C520 C525 1.425 . S
C520 C527 1.409 . S
C521 H513 0.930 . S
C521 C519 1.419 . S
C521 C522 1.362 . S
C522 H514 0.930 . S
C522 C521 1.362 . S
C522 C525 1.409 . S
C523 H515 0.930 . S
C523 C524 1.355 . S
C523 C525 1.415 . S
C524 C523 1.355 . S
C524 C526 1.419 . S
C525 C520 1.425 . S
C525 C522 1.409 . S
C525 C523 1.415 . S
C526 H516 0.930 . S
C526 C524 1.419 . S
C526 C527 1.362 . S
C527 H517 0.930 . S
C527 C520 1.409 . S
C527 C526 1.362 . S
C247 C217 1.389 . S
C252 C17 1.431 . S
C263 C31 1.745 . S
C268 C71 1.775 . S
C279 C57 1.348 . S
C284 C97 1.419 . S
C295 C111 1.724 . S
C300 C151 1.733 . S
C311 C177 1.420 . S
C316 C137 1.347 . S
C327 C231 1.784 . S
C332 C191 1.782 . S
C343 C29 1.374 . S
C348 C8 1.374 . S
C359 C48 1.364 . S
C364 C69 1.364 . S
C375 C109 1.301 . S
C380 C88 1.301 . S
C391 C128 1.374 . S
C396 C149 1.374 . S
C407 C168 1.359 . S
C412 C189 1.359 . S
C423 C208 1.348 . S
C428 C229 1.348 . S
C439 C2 1.879 . S
C444 C172 1.883 . S
C455 C52 1.884 . S
C460 C202 1.879 . S
C471 C12 1.888 1_556 S
C476 C82 1.882 . S
C487 C42 1.884 . S
C492 C132 1.880 . S
C503 C162 1.891 . S
C508 C92 1.892 . S
C519 C122 1.887 . S
C524 C212 1.891 1_554 S
