# Generated by pormake.
# Topology wjk, (5)-cn, num edge types: 1
# Building blocks:
#     Node 0, Type 0, BuildingBlock: BEQFEK_clean_sbu_0, # of connection points: 5
#     Node 1, Type 0, BuildingBlock: BEQFEK_clean_sbu_0, # of connection points: 5
#     Node 2, Type 0, BuildingBlock: BEQFEK_clean_sbu_0, # of connection points: 5
#     Node 3, Type 0, BuildingBlock: BEQFEK_clean_sbu_0, # of connection points: 5
#     Node 4, Type 0, BuildingBlock: BEQFEK_clean_sbu_0, # of connection points: 5
#     Node 5, Type 0, BuildingBlock: BEQFEK_clean_sbu_0, # of connection points: 5
#     Node 6, Type 0, BuildingBlock: BEQFEK_clean_sbu_0, # of connection points: 5
#     Node 7, Type 0, BuildingBlock: BEQFEK_clean_sbu_0, # of connection points: 5
#     Node 8, Type 0, BuildingBlock: BEQFEK_clean_sbu_0, # of connection points: 5
#     Node 9, Type 0, BuildingBlock: BEQFEK_clean_sbu_0, # of connection points: 5
#     Node 10, Type 0, BuildingBlock: BEQFEK_clean_sbu_0, # of connection points: 5
#     Node 11, Type 0, BuildingBlock: BEQFEK_clean_sbu_0, # of connection points: 5
#     Edge 12, Type (0, 0), BuildingBlock: TEMPAE_clean_linker_10, # of connection points: 2
#     Edge 13, Type (0, 0), BuildingBlock: TEMPAE_clean_linker_10, # of connection points: 2
#     Edge 14, Type (0, 0), BuildingBlock: TEMPAE_clean_linker_10, # of connection points: 2
#     Edge 15, Type (0, 0), BuildingBlock: TEMPAE_clean_linker_10, # of connection points: 2
#     Edge 16, Type (0, 0), BuildingBlock: TEMPAE_clean_linker_10, # of connection points: 2
#     Edge 17, Type (0, 0), BuildingBlock: TEMPAE_clean_linker_10, # of connection points: 2
#     Edge 18, Type (0, 0), BuildingBlock: TEMPAE_clean_linker_10, # of connection points: 2
#     Edge 19, Type (0, 0), BuildingBlock: TEMPAE_clean_linker_10, # of connection points: 2
#     Edge 20, Type (0, 0), BuildingBlock: TEMPAE_clean_linker_10, # of connection points: 2
#     Edge 21, Type (0, 0), BuildingBlock: TEMPAE_clean_linker_10, # of connection points: 2
#     Edge 22, Type (0, 0), BuildingBlock: TEMPAE_clean_linker_10, # of connection points: 2
#     Edge 23, Type (0, 0), BuildingBlock: TEMPAE_clean_linker_10, # of connection points: 2
#     Edge 24, Type (0, 0), BuildingBlock: TEMPAE_clean_linker_10, # of connection points: 2
#     Edge 25, Type (0, 0), BuildingBlock: TEMPAE_clean_linker_10, # of connection points: 2
#     Edge 26, Type (0, 0), BuildingBlock: TEMPAE_clean_linker_10, # of connection points: 2
#     Edge 27, Type (0, 0), BuildingBlock: TEMPAE_clean_linker_10, # of connection points: 2
#     Edge 28, Type (0, 0), BuildingBlock: TEMPAE_clean_linker_10, # of connection points: 2
#     Edge 29, Type (0, 0), BuildingBlock: TEMPAE_clean_linker_10, # of connection points: 2
#     Edge 30, Type (0, 0), BuildingBlock: TEMPAE_clean_linker_10, # of connection points: 2
#     Edge 31, Type (0, 0), BuildingBlock: TEMPAE_clean_linker_10, # of connection points: 2
#     Edge 32, Type (0, 0), BuildingBlock: TEMPAE_clean_linker_10, # of connection points: 2
#     Edge 33, Type (0, 0), BuildingBlock: TEMPAE_clean_linker_10, # of connection points: 2
#     Edge 34, Type (0, 0), BuildingBlock: TEMPAE_clean_linker_10, # of connection points: 2
#     Edge 35, Type (0, 0), BuildingBlock: TEMPAE_clean_linker_10, # of connection points: 2
#     Edge 36, Type (0, 0), BuildingBlock: TEMPAE_clean_linker_10, # of connection points: 2
#     Edge 37, Type (0, 0), BuildingBlock: TEMPAE_clean_linker_10, # of connection points: 2
#     Edge 38, Type (0, 0), BuildingBlock: TEMPAE_clean_linker_10, # of connection points: 2
#     Edge 39, Type (0, 0), BuildingBlock: TEMPAE_clean_linker_10, # of connection points: 2
#     Edge 40, Type (0, 0), BuildingBlock: TEMPAE_clean_linker_10, # of connection points: 2
#     Edge 41, Type (0, 0), BuildingBlock: TEMPAE_clean_linker_10, # of connection points: 2
# Relax obj value: 0.399
# Max RMSD: 0.213
# Mean RMSD: 0.213
data_MOF--net-wjk--node1-BEQFEK_clean_sbu_0--edge1-TEMPAE_clean_linker_10
_symmetry_space_group_name_H-M    P1
_symmetry_Int_Tables_number       1
_symmetry_cell_setting            triclinic
loop_
_symmetry_equiv_pos_as_xyz
'x, y, z'
_cell_length_a     35.380107
_cell_length_b     35.357132
_cell_length_c     76.679805
_cell_angle_alpha  90.036324
_cell_angle_beta   89.987277
_cell_angle_gamma 120.001
loop_
_atom_site_label
_atom_site_type_symbol
_atom_site_fract_x
_atom_site_fract_y
_atom_site_fract_z
_atom_type_partial_charge
Co0 Co 0.14533 0.21962 0.25298 0.0
Co1 Co 0.22019 0.30092 0.23494 0.0
C2 C 0.20388 0.21173 0.22625 0.0
O3 O 0.17288 0.19508 0.23732 0.0
O4 O 0.22583 0.25291 0.22397 0.0
C5 C 0.11271 0.14772 0.27615 0.0
O6 O 0.15322 0.15581 0.27629 0.0
C7 C 0.31097 0.36338 0.22527 0.0
C8 C 0.31167 0.42616 0.22498 0.0
C9 C 0.33843 0.40814 0.22336 0.0
N10 N 0.27012 0.35548 0.22822 0.0
N11 N 0.27072 0.39315 0.22783 0.0
C12 C 0.32253 0.32819 0.22342 0.0
H13 H 0.306 0.30861 0.21166 0.0
H14 H 0.31021 0.30586 0.23478 0.0
H15 H 0.35807 0.34141 0.22184 0.0
C16 C 0.19205 0.26476 0.285 0.0
N17 N 0.18611 0.2643 0.26762 0.0
N18 N 0.22107 0.29646 0.26037 0.0
C19 C 0.25153 0.31675 0.27309 0.0
C20 C 0.23418 0.29669 0.28912 0.0
C21 C 0.15763 0.23654 0.29792 0.0
H22 H 0.12458 0.22497 0.29252 0.0
H23 H 0.16146 0.20835 0.3016 0.0
H24 H 0.16148 0.25532 0.31005 0.0
O25 O 0.11254 0.23814 0.23838 0.0
O26 O 0.1636 0.29561 0.22421 0.0
H27 H 0.29795 0.37829 0.26205 0.0
H28 H 0.31544 0.36552 0.28225 0.0
C29 C 0.29762 0.35177 0.26986 0.0
H30 H 0.31473 0.338 0.26238 0.0
H31 H 0.24345 0.39648 0.23009 0.0
O32 O 0.10262 0.17128 0.26702 0.0
C33 C 0.1232 0.26775 0.22696 0.0
Co34 Co 0.93788 0.1522 0.58468 0.0
Co35 Co 0.9221 0.22198 0.56708 0.0
C36 C 0.99631 0.21006 0.55592 0.0
O37 O 0.98547 0.18034 0.56735 0.0
O38 O 0.97494 0.23005 0.55424 0.0
C39 C 0.99076 0.12709 0.60272 0.0
O40 O 0.02244 0.16427 0.59669 0.0
C41 C 0.94478 0.3112 0.55743 0.0
C42 C 0.88103 0.30832 0.55814 0.0
C43 C 0.92535 0.33682 0.55586 0.0
N44 N 0.91346 0.26962 0.56051 0.0
N45 N 0.87535 0.26805 0.56068 0.0
C46 C 0.99266 0.32673 0.55812 0.0
H47 H 0.99907 0.3054 0.56674 0.0
H48 H 0.01137 0.36086 0.56294 0.0
H49 H 0.00424 0.32541 0.54481 0.0
C50 C 0.94321 0.20021 0.6165 0.0
N51 N 0.9345 0.19286 0.59934 0.0
N52 N 0.9318 0.22535 0.59236 0.0
C53 C 0.94056 0.25552 0.60511 0.0
C54 C 0.94884 0.24071 0.62079 0.0
C55 C 0.94637 0.16909 0.62884 0.0
H56 H 0.92289 0.13493 0.62509 0.0
H57 H 0.97998 0.17433 0.62858 0.0
H58 H 0.93921 0.17463 0.6424 0.0
O59 O 0.88426 0.11523 0.57173 0.0
O60 O 0.87137 0.16266 0.55787 0.0
H61 H 0.91701 0.29569 0.59429 0.0
H62 H 0.94596 0.31554 0.61469 0.0
C63 C 0.94486 0.29929 0.60217 0.0
H64 H 0.97546 0.32032 0.59495 0.0
H65 H 0.84568 0.23989 0.5633 0.0
O66 O 0.95142 0.11484 0.59887 0.0
C67 C 0.86197 0.12311 0.56084 0.0
Co68 Co 0.79119 0.9395 0.91921 0.0
Co69 Co 0.70515 0.92317 0.90193 0.0
C70 C 0.79105 0.99722 0.89034 0.0
O71 O 0.81028 0.9866 0.90167 0.0
O72 O 0.74965 0.97584 0.88894 0.0
C73 C 0.86842 0.99411 0.93702 0.0
O74 O 0.86079 0.02454 0.93116 0.0
C75 C 0.63995 0.94754 0.89309 0.0
C76 C 0.57864 0.88427 0.89146 0.0
C77 C 0.59524 0.92903 0.89072 0.0
N78 N 0.64923 0.91532 0.89542 0.0
N79 N 0.61247 0.87752 0.89426 0.0
C80 C 0.67398 0.99497 0.89234 0.0
H81 H 0.69739 0.00329 0.90327 0.0
H82 H 0.65977 0.01664 0.89253 0.0
H83 H 0.69261 0.00113 0.88003 0.0
C84 C 0.74885 0.94453 0.95121 0.0
N85 N 0.74744 0.93626 0.93401 0.0
N86 N 0.7119 0.93305 0.92718 0.0
C87 C 0.69025 0.94099 0.94008 0.0
C88 C 0.7136 0.94934 0.9557 0.0
C89 C 0.78312 0.94729 0.96346 0.0
H90 H 0.79425 0.92437 0.95937 0.0
H91 H 0.81123 0.98107 0.96354 0.0
H92 H 0.77023 0.93906 0.97697 0.0
O93 O 0.77411 0.88543 0.90641 0.0
O94 O 0.71329 0.87217 0.89284 0.0
H95 H 0.62621 0.91606 0.92938 0.0
H96 H 0.63475 0.94441 0.94992 0.0
C97 C 0.65003 0.94406 0.93734 0.0
H98 H 0.65871 0.97464 0.93026 0.0
H99 H 0.61029 0.84719 0.89589 0.0
O100 O 0.84275 0.95435 0.9332 0.0
C101 C 0.7435 0.86283 0.89571 0.0
Co102 Co 0.85644 0.78542 0.25434 0.0
Co103 Co 0.78349 0.7027 0.23625 0.0
C104 C 0.79336 0.79041 0.22929 0.0
O105 O 0.82474 0.80794 0.24017 0.0
O106 O 0.77392 0.74945 0.22634 0.0
C107 C 0.88895 0.85715 0.27784 0.0
O108 O 0.84821 0.84823 0.27868 0.0
C109 C 0.6936 0.63708 0.22636 0.0
C110 C 0.69553 0.57567 0.22722 0.0
C111 C 0.66752 0.59202 0.22491 0.0
N112 N 0.73489 0.64682 0.2297 0.0
N113 N 0.73584 0.60992 0.23 0.0
C114 C 0.68032 0.67075 0.22363 0.0
H115 H 0.69863 0.6912 0.21232 0.0
H116 H 0.68924 0.6924 0.23519 0.0
H117 H 0.64502 0.65606 0.22083 0.0
C118 C 0.81323 0.73795 0.28631 0.0
N119 N 0.81873 0.73877 0.2689 0.0
N120 N 0.78397 0.70623 0.2617 0.0
C121 C 0.75393 0.68539 0.2745 0.0
C122 C 0.77145 0.70538 0.29054 0.0
C123 C 0.84749 0.76713 0.2991 0.0
H124 H 0.88057 0.78004 0.29351 0.0
H125 H 0.84233 0.79441 0.30294 0.0
H126 H 0.84483 0.7486 0.31117 0.0
O127 O 0.88988 0.77103 0.23824 0.0
O128 O 0.84071 0.71153 0.22453 0.0
H129 H 0.70732 0.62333 0.26394 0.0
H130 H 0.68952 0.63786 0.28366 0.0
C131 C 0.70775 0.65057 0.27127 0.0
H132 H 0.69125 0.66409 0.26326 0.0
H133 H 0.76373 0.60799 0.23271 0.0
O134 O 0.89888 0.83406 0.26833 0.0
C135 C 0.88045 0.74205 0.22664 0.0
Co136 Co 0.06206 0.84973 0.58725 0.0
Co137 Co 0.0782 0.78022 0.56955 0.0
C138 C 0.00026 0.7875 0.56024 0.0
O139 O 0.01186 0.81819 0.57128 0.0
O140 O 0.02284 0.76896 0.558 0.0
C141 C 0.00922 0.8729 0.60639 0.0
O142 O 0.97817 0.83409 0.60147 0.0
C143 C 0.05685 0.69129 0.55985 0.0
C144 C 0.12134 0.69577 0.55957 0.0
C145 C 0.07707 0.66657 0.55765 0.0
N146 N 0.08769 0.73312 0.56286 0.0
N147 N 0.12622 0.73561 0.56248 0.0
C148 C 0.0088 0.67462 0.56109 0.0
H149 H 0.00219 0.69493 0.57022 0.0
H150 H 0.99102 0.6402 0.5656 0.0
H151 H 0.99632 0.67634 0.54801 0.0
C152 C 0.06257 0.8052 0.61923 0.0
N153 N 0.06957 0.81158 0.60195 0.0
N154 N 0.07174 0.77877 0.59498 0.0
C155 C 0.06414 0.74929 0.60787 0.0
C156 C 0.05732 0.76493 0.62364 0.0
C157 C 0.06001 0.83671 0.63157 0.0
H158 H 0.08198 0.87077 0.62724 0.0
H159 H 0.02599 0.83025 0.63215 0.0
H160 H 0.06953 0.83264 0.64494 0.0
O161 O 0.11284 0.88681 0.57275 0.0
O162 O 0.12634 0.83953 0.55907 0.0
H163 H 0.08578 0.70796 0.59659 0.0
H164 H 0.05917 0.68956 0.61752 0.0
C165 C 0.059 0.70514 0.60498 0.0
H166 H 0.02754 0.68397 0.59832 0.0
H167 H 0.15573 0.76418 0.56487 0.0
O168 O 0.04829 0.88684 0.60154 0.0
C169 C 0.13438 0.87887 0.56149 0.0
Co170 Co 0.21821 0.06896 0.92016 0.0
Co171 Co 0.30132 0.08003 0.90187 0.0
C172 C 0.21431 0.00399 0.89343 0.0
O173 O 0.19678 0.01778 0.90431 0.0
O174 O 0.25545 0.0246 0.89106 0.0
C175 C 0.14381 0.01924 0.9404 0.0
O176 O 0.15107 0.98756 0.93592 0.0
C177 C 0.3672 0.05686 0.89138 0.0
C178 C 0.42881 0.11945 0.89414 0.0
C179 C 0.41229 0.0754 0.8908 0.0
N180 N 0.35754 0.08822 0.8953 0.0
N181 N 0.39458 0.1257 0.89668 0.0
C182 C 0.33356 0.01045 0.88756 0.0
H183 H 0.31297 0.01011 0.87662 0.0
H184 H 0.31217 0.99573 0.89908 0.0
H185 H 0.3483 0.99047 0.88368 0.0
C186 C 0.26382 0.06832 0.95183 0.0
N187 N 0.26384 0.07502 0.93454 0.0
N188 N 0.29711 0.07441 0.92725 0.0
C189 C 0.31809 0.0648 0.93986 0.0
C190 C 0.29713 0.06005 0.95587 0.0
C191 C 0.23208 0.06921 0.96453 0.0
H192 H 0.22118 0.092 0.96003 0.0
H193 H 0.20347 0.03598 0.96591 0.0
H194 H 0.24738 0.07972 0.97759 0.0
O195 O 0.23343 0.12003 0.90567 0.0
O196 O 0.29164 0.12898 0.89122 0.0
H197 H 0.38156 0.08369 0.92997 0.0
H198 H 0.36573 0.04758 0.94859 0.0
C199 C 0.35399 0.05514 0.93639 0.0
H200 H 0.34203 0.02688 0.92742 0.0
H201 H 0.39658 0.15521 0.90012 0.0
O202 O 0.16878 0.05772 0.93487 0.0
C203 C 0.26233 0.13965 0.89402 0.0
Co204 Co 0.78803 0.85088 0.4482 0.0
Co205 Co 0.70262 0.77946 0.46516 0.0
C206 C 0.7881 0.7868 0.47405 0.0
O207 O 0.807 0.81799 0.46321 0.0
O208 O 0.74702 0.76818 0.47641 0.0
C209 C 0.86119 0.87732 0.4264 0.0
O210 O 0.84733 0.83533 0.42519 0.0
C211 C 0.63517 0.68974 0.4741 0.0
C212 C 0.57446 0.69281 0.47267 0.0
C213 C 0.59 0.66413 0.47504 0.0
N214 N 0.64576 0.73139 0.47098 0.0
N215 N 0.60927 0.73304 0.47034 0.0
C216 C 0.6681 0.67555 0.47703 0.0
H217 H 0.68787 0.69283 0.48864 0.0
H218 H 0.69053 0.68497 0.46571 0.0
H219 H 0.65277 0.64001 0.47946 0.0
C220 C 0.74328 0.80921 0.41557 0.0
N221 N 0.74277 0.81419 0.43297 0.0
N222 N 0.70873 0.78 0.43974 0.0
C223 C 0.68795 0.75077 0.42666 0.0
C224 C 0.70973 0.76824 0.4109 0.0
C225 C 0.77435 0.84351 0.40321 0.0
H226 H 0.78864 0.87643 0.40915 0.0
H227 H 0.80064 0.83677 0.39945 0.0
H228 H 0.75695 0.84272 0.39104 0.0
O229 O 0.77322 0.88575 0.46334 0.0
O230 O 0.7119 0.83756 0.47631 0.0
H231 H 0.62415 0.70641 0.43637 0.0
H232 H 0.63855 0.68783 0.41683 0.0
C233 C 0.65101 0.70531 0.42939 0.0
H234 H 0.66224 0.687 0.43755 0.0
H235 H 0.60802 0.76135 0.4677 0.0
O236 O 0.84003 0.89081 0.43528 0.0
C237 C 0.74316 0.87708 0.47435 0.0
Co238 Co 0.93599 0.78624 0.78235 0.0
Co239 Co 0.92314 0.70132 0.79937 0.0
C240 C 0.00021 0.78727 0.80846 0.0
O241 O 0.98766 0.8058 0.79755 0.0
O242 O 0.97833 0.74612 0.81076 0.0
C243 C 0.98223 0.85904 0.76039 0.0
O244 O 0.01019 0.84501 0.75911 0.0
C245 C 0.94572 0.6342 0.80864 0.0
C246 C 0.88249 0.57315 0.80614 0.0
C247 C 0.92653 0.58899 0.80912 0.0
N248 N 0.91465 0.64454 0.80514 0.0
N249 N 0.87683 0.60783 0.80388 0.0
C250 C 0.99245 0.66734 0.81222 0.0
H251 H 0.99376 0.68758 0.8235 0.0
H252 H 0.00669 0.68933 0.80083 0.0
H253 H 0.01233 0.65208 0.81547 0.0
C254 C 0.93329 0.74158 0.74977 0.0
N255 N 0.92803 0.74113 0.76718 0.0
N256 N 0.92893 0.7075 0.77396 0.0
C257 C 0.93775 0.68698 0.76089 0.0
C258 C 0.94146 0.70848 0.7451 0.0
C259 C 0.92821 0.77161 0.73743 0.0
H260 H 0.90901 0.78506 0.74353 0.0
H261 H 0.9606 0.79867 0.73344 0.0
H262 H 0.9114 0.75361 0.72538 0.0
O263 O 0.88611 0.77092 0.79734 0.0
O264 O 0.87402 0.71009 0.81048 0.0
H265 H 0.91869 0.6228 0.77001 0.0
H266 H 0.95454 0.6396 0.75129 0.0
C267 C 0.94721 0.65068 0.76371 0.0
H268 H 0.97554 0.66194 0.77258 0.0
H269 H 0.84739 0.60639 0.80082 0.0
O270 O 0.94773 0.83805 0.76936 0.0
C271 C 0.86517 0.74093 0.80843 0.0
Co272 Co 0.14749 0.9339 0.11195 0.0
Co273 Co 0.21953 0.92376 0.1307 0.0
C274 C 0.20471 0.99818 0.13926 0.0
O275 O 0.17483 0.98547 0.12774 0.0
O276 O 0.22517 0.97752 0.14177 0.0
C277 C 0.11694 0.97701 0.08996 0.0
O278 O 0.15532 0.01131 0.09312 0.0
C279 C 0.30991 0.95195 0.14055 0.0
C280 C 0.30984 0.88965 0.14269 0.0
C281 C 0.33703 0.93458 0.1433 0.0
N282 N 0.26886 0.91888 0.13809 0.0
N283 N 0.26898 0.8817 0.13959 0.0
C284 C 0.32196 0.99904 0.14108 0.0
H285 H 0.30847 0.00705 0.12951 0.0
H286 H 0.35766 0.0214 0.14191 0.0
H287 H 0.30683 0.00441 0.15278 0.0
C288 C 0.19586 0.93587 0.08049 0.0
N289 N 0.18869 0.92958 0.09779 0.0
N290 N 0.22208 0.92955 0.10528 0.0
C291 C 0.25264 0.93801 0.09276 0.0
C292 C 0.23713 0.94304 0.07666 0.0
C293 C 0.16388 0.93501 0.06747 0.0
H294 H 0.12998 0.91215 0.07169 0.0
H295 H 0.16869 0.96829 0.06594 0.0
H296 H 0.16927 0.92447 0.0545 0.0
O297 O 0.11298 0.88253 0.12655 0.0
O298 O 0.16191 0.87275 0.14078 0.0
H299 H 0.29504 0.91861 0.10466 0.0
H300 H 0.31418 0.9459 0.08392 0.0
C301 C 0.2973 0.94509 0.09622 0.0
H302 H 0.31697 0.97665 0.10305 0.0
H303 H 0.24144 0.85094 0.13791 0.0
O304 O 0.10675 0.94071 0.09703 0.0
C305 C 0.12202 0.86209 0.13791 0.0
Co306 Co 0.21486 0.1447 0.44379 0.0
Co307 Co 0.29562 0.21771 0.46302 0.0
C308 C 0.20653 0.20537 0.46911 0.0
O309 O 0.19002 0.17444 0.45798 0.0
O310 O 0.24732 0.22534 0.47239 0.0
C311 C 0.14452 0.11272 0.41967 0.0
O312 O 0.14985 0.15218 0.42088 0.0
C313 C 0.3587 0.30806 0.47323 0.0
C314 C 0.42069 0.30739 0.47438 0.0
C315 C 0.4034 0.33487 0.47557 0.0
N316 N 0.35013 0.26689 0.47045 0.0
N317 N 0.38733 0.26667 0.47137 0.0
C318 C 0.32414 0.32058 0.47455 0.0
H319 H 0.30283 0.30912 0.46287 0.0
H320 H 0.3379 0.35618 0.47631 0.0
H321 H 0.30352 0.3039 0.48604 0.0
C322 C 0.26439 0.19102 0.41251 0.0
N323 N 0.26226 0.18434 0.42988 0.0
N324 N 0.29431 0.21864 0.43755 0.0
C325 C 0.31625 0.24938 0.42508 0.0
C326 C 0.29743 0.23292 0.4088 0.0
C327 C 0.23521 0.15829 0.39925 0.0
H328 H 0.2229 0.12457 0.40404 0.0
H329 H 0.2076 0.16359 0.39619 0.0
H330 H 0.25339 0.16273 0.3869 0.0
O331 O 0.22913 0.1108 0.45994 0.0
O332 O 0.28692 0.16032 0.47444 0.0
H333 H 0.37687 0.29497 0.437 0.0
H334 H 0.36639 0.3132 0.41648 0.0
C335 C 0.35132 0.29523 0.42873 0.0
H336 H 0.33721 0.31253 0.43586 0.0
H337 H 0.39018 0.23903 0.46929 0.0
O338 O 0.16851 0.10286 0.42864 0.0
C339 C 0.25737 0.12035 0.47189 0.0
Co340 Co 0.07044 0.21404 0.77679 0.0
Co341 Co 0.07922 0.29537 0.79589 0.0
C342 C 0.00212 0.20625 0.80219 0.0
O343 O 0.01586 0.18945 0.79091 0.0
O344 O 0.02345 0.24706 0.80546 0.0
C345 C 0.03224 0.14365 0.75261 0.0
O346 O 0.99831 0.14933 0.75353 0.0
C347 C 0.05171 0.35831 0.80587 0.0
C348 C 0.11439 0.42009 0.80806 0.0
C349 C 0.06957 0.40286 0.80868 0.0
N350 N 0.0844 0.34976 0.80338 0.0
N351 N 0.1218 0.38682 0.80489 0.0
C352 C 0.00451 0.32376 0.80649 0.0
H353 H 0.99601 0.30204 0.79497 0.0
H354 H 0.98253 0.33755 0.80736 0.0
H355 H 0.99916 0.30348 0.81825 0.0
C356 C 0.07456 0.26365 0.74546 0.0
N357 N 0.07874 0.26158 0.76285 0.0
N358 N 0.07678 0.29389 0.77042 0.0
C359 C 0.06854 0.31604 0.75786 0.0
C360 C 0.06609 0.29693 0.74161 0.0
C361 C 0.07931 0.23491 0.73233 0.0
H362 H 0.10077 0.22295 0.73741 0.0
H363 H 0.04683 0.20694 0.72902 0.0
H364 H 0.09356 0.25332 0.72007 0.0
O365 O 0.11811 0.22792 0.79308 0.0
O366 O 0.12807 0.28686 0.80723 0.0
H367 H 0.0841 0.37671 0.76993 0.0
H368 H 0.0567 0.36739 0.74916 0.0
C369 C 0.05853 0.3517 0.76141 0.0
H370 H 0.02675 0.33794 0.76822 0.0
H371 H 0.15238 0.38965 0.8032 0.0
O372 O 0.06586 0.16752 0.76172 0.0
C373 C 0.13744 0.25649 0.80487 0.0
Co374 Co 0.85057 0.06098 0.11562 0.0
Co375 Co 0.78038 0.07729 0.13244 0.0
C376 C 0.78834 0.0003 0.14284 0.0
O377 O 0.81874 0.01135 0.13173 0.0
O378 O 0.7696 0.02281 0.14475 0.0
C379 C 0.87106 0.00856 0.09505 0.0
O380 O 0.8289 0.98123 0.09605 0.0
C381 C 0.69137 0.05655 0.14169 0.0
C382 C 0.69476 0.12037 0.13923 0.0
C383 C 0.66599 0.07643 0.14222 0.0
N384 N 0.73294 0.08714 0.13817 0.0
N385 N 0.7348 0.12532 0.13693 0.0
C386 C 0.67703 0.00961 0.14523 0.0
H387 H 0.69523 0.00787 0.15668 0.0
H388 H 0.68515 0.99535 0.13394 0.0
H389 H 0.64174 0.98997 0.14821 0.0
C390 C 0.80809 0.06242 0.08306 0.0
N391 N 0.81321 0.06841 0.10043 0.0
N392 N 0.7796 0.06947 0.10713 0.0
C393 C 0.75053 0.06146 0.09404 0.0
C394 C 0.76753 0.05604 0.07833 0.0
C395 C 0.84219 0.06458 0.07085 0.0
H396 H 0.8752 0.0842 0.0766 0.0
H397 H 0.83586 0.03124 0.06795 0.0
H398 H 0.84089 0.07949 0.05828 0.0
O399 O 0.88687 0.11211 0.12989 0.0
O400 O 0.8393 0.12674 0.14266 0.0
H401 H 0.70815 0.08423 0.10292 0.0
H402 H 0.68745 0.04794 0.08434 0.0
C403 C 0.70572 0.05471 0.09678 0.0
H404 H 0.6874 0.02683 0.10575 0.0
H405 H 0.76307 0.15452 0.13386 0.0
O406 O 0.88783 0.04555 0.10246 0.0
C407 C 0.87862 0.13447 0.14061 0.0
C408 C 0.59287 0.57513 0.23421 0.0
C409 C 0.6193 0.5655 0.22364 0.0
C410 C 0.54717 0.54942 0.23364 0.0
C411 C 0.52736 0.51277 0.22237 0.0
C412 C 0.55396 0.50261 0.2118 0.0
C413 C 0.59966 0.52896 0.21266 0.0
C414 C 0.52013 0.56115 0.24528 0.0
C415 C 0.53414 0.46375 0.19969 0.0
C416 C 0.41194 0.4238 0.23374 0.0
C417 C 0.38674 0.43321 0.22236 0.0
C418 C 0.45772 0.44886 0.23364 0.0
C419 C 0.47885 0.48458 0.222 0.0
C420 C 0.4535 0.49428 0.2105 0.0
C421 C 0.40771 0.46865 0.21091 0.0
C422 C 0.48341 0.43766 0.24626 0.0
C423 C 0.47474 0.53213 0.19794 0.0
H424 H 0.60799 0.60233 0.24324 0.0
H425 H 0.62011 0.52112 0.20467 0.0
H426 H 0.49674 0.56605 0.23732 0.0
H427 H 0.50069 0.53395 0.25444 0.0
H428 H 0.54052 0.59128 0.25297 0.0
H429 H 0.55925 0.46076 0.19208 0.0
H430 H 0.51476 0.43332 0.2073 0.0
H431 H 0.51144 0.46644 0.19046 0.0
H432 H 0.39578 0.3975 0.2431 0.0
H433 H 0.38821 0.47633 0.20228 0.0
H434 H 0.50166 0.46522 0.25543 0.0
H435 H 0.50778 0.43259 0.23911 0.0
H436 H 0.46216 0.4078 0.25395 0.0
H437 H 0.49315 0.56316 0.2053 0.0
H438 H 0.45055 0.53442 0.18943 0.0
H439 H 0.49852 0.5288 0.18959 0.0
C440 C 0.02096 0.59528 0.54454 0.0
C441 C 0.05625 0.61844 0.5559 0.0
C442 C 0.99978 0.54947 0.54346 0.0
C443 C 0.014 0.52624 0.5541 0.0
C444 C 0.05022 0.54964 0.56534 0.0
C445 C 0.07116 0.59547 0.56597 0.0
C446 C 0.96183 0.52589 0.53108 0.0
C447 C 0.06615 0.52618 0.57705 0.0
C448 C 0.93287 0.40783 0.5654 0.0
C449 C 0.94696 0.38512 0.55472 0.0
C450 C 0.95429 0.4537 0.56527 0.0
C451 C 0.99019 0.47746 0.55394 0.0
C452 C 0.00374 0.45456 0.54275 0.0
C453 C 0.98208 0.40866 0.54333 0.0
C454 C 0.93908 0.47677 0.57756 0.0
C455 C 0.04133 0.47857 0.53025 0.0
H456 H 0.00995 0.61304 0.53648 0.0
H457 H 0.09844 0.61331 0.57477 0.0
H458 H 0.96773 0.50457 0.52221 0.0
H459 H 0.93168 0.50452 0.53854 0.0
H460 H 0.95615 0.54879 0.52309 0.0
H461 H 0.09525 0.54915 0.58478 0.0
H462 H 0.03978 0.5046 0.58619 0.0
H463 H 0.07454 0.50509 0.56917 0.0
H464 H 0.90578 0.38972 0.57424 0.0
H465 H 0.9925 0.39114 0.53481 0.0
H466 H 0.93019 0.49806 0.5701 0.0
H467 H 0.96598 0.49811 0.58655 0.0
H468 H 0.91045 0.45356 0.58545 0.0
H469 H 0.03512 0.50014 0.52167 0.0
H470 H 0.04679 0.45596 0.52197 0.0
H471 H 0.07169 0.49976 0.53763 0.0
C472 C 0.42596 0.01495 0.89934 0.0
C473 C 0.43832 0.05312 0.88973 0.0
C474 C 0.451 0.99423 0.89897 0.0
C475 C 0.48986 0.01253 0.88898 0.0
C476 C 0.50279 0.0514 0.8794 0.0
C477 C 0.47696 0.07136 0.87997 0.0
C478 C 0.43621 0.95312 0.90951 0.0
C479 C 0.54414 0.07212 0.86871 0.0
C480 C 0.57565 0.98317 0.90221 0.0
C481 C 0.56913 0.95117 0.88989 0.0
C482 C 0.55054 0.00382 0.9019 0.0
C483 C 0.51765 0.99176 0.88908 0.0
C484 C 0.51057 0.95902 0.87672 0.0
C485 C 0.53623 0.93888 0.87735 0.0
C486 C 0.55885 0.03815 0.91545 0.0
C487 C 0.4757 0.94508 0.86291 0.0
H488 H 0.39711 0.00173 0.9075 0.0
H489 H 0.48691 0.10124 0.87275 0.0
H490 H 0.43316 0.92638 0.90097 0.0
H491 H 0.46092 0.95874 0.91961 0.0
H492 H 0.40436 0.94217 0.91604 0.0
H493 H 0.54909 0.10171 0.86167 0.0
H494 H 0.57269 0.08137 0.87731 0.0
H495 H 0.54325 0.04832 0.85905 0.0
H496 H 0.59995 0.99152 0.91234 0.0
H497 H 0.53079 0.91369 0.86798 0.0
H498 H 0.52918 0.02752 0.92351 0.0
H499 H 0.56616 0.06915 0.909 0.0
H500 H 0.58646 0.04464 0.92422 0.0
H501 H 0.44322 0.93179 0.86917 0.0
H502 H 0.47492 0.91985 0.85404 0.0
H503 H 0.48128 0.97373 0.85503 0.0
C504 C 0.57267 0.58945 0.46546 0.0
C505 C 0.56287 0.61587 0.47597 0.0
C506 C 0.54669 0.54374 0.46584 0.0
C507 C 0.50955 0.52389 0.47682 0.0
C508 C 0.49912 0.55049 0.48728 0.0
C509 C 0.52578 0.59621 0.48664 0.0
C510 C 0.55876 0.51671 0.45434 0.0
C511 C 0.45966 0.53063 0.49906 0.0
C512 C 0.42067 0.40874 0.46492 0.0
C513 C 0.42911 0.38322 0.47652 0.0
C514 C 0.44602 0.45453 0.46511 0.0
C515 C 0.48116 0.47536 0.47703 0.0
C516 C 0.49002 0.44967 0.4887 0.0
C517 C 0.46404 0.40388 0.48822 0.0
C518 C 0.43571 0.48056 0.45231 0.0
C519 C 0.52728 0.47058 0.50153 0.0
H520 H 0.60029 0.60461 0.45665 0.0
H521 H 0.51781 0.61664 0.49458 0.0
H522 H 0.56315 0.49309 0.46237 0.0
H523 H 0.53199 0.49752 0.44497 0.0
H524 H 0.58926 0.53712 0.44687 0.0
H525 H 0.45638 0.55574 0.50656 0.0
H526 H 0.42964 0.51138 0.49121 0.0
H527 H 0.46181 0.5078 0.50839 0.0
H528 H 0.39482 0.39283 0.45536 0.0
H529 H 0.471 0.38414 0.49702 0.0
H530 H 0.46375 0.49884 0.44337 0.0
H531 H 0.43042 0.50495 0.45935 0.0
H532 H 0.40624 0.45952 0.44438 0.0
H533 H 0.55863 0.48909 0.49441 0.0
H534 H 0.52909 0.44615 0.51006 0.0
H535 H 0.52365 0.49425 0.50986 0.0
C536 C 0.98549 0.57346 0.80016 0.0
C537 C 0.94799 0.56217 0.81005 0.0
C538 C 0.00536 0.54761 0.80042 0.0
C539 C 0.9869 0.50907 0.81063 0.0
C540 C 0.94867 0.49721 0.82049 0.0
C541 C 0.92952 0.52379 0.81999 0.0
C542 C 0.04579 0.56125 0.78958 0.0
C543 C 0.92782 0.45627 0.83143 0.0
C544 C 0.01449 0.42174 0.79765 0.0
C545 C 0.04704 0.42862 0.80974 0.0
C546 C 0.99412 0.44713 0.79799 0.0
C547 C 0.00703 0.48069 0.8106 0.0
C548 C 0.04017 0.48798 0.82276 0.0
C549 C 0.05999 0.46203 0.82211 0.0
C550 C 0.95931 0.43854 0.78466 0.0
C551 C 0.05502 0.52353 0.83634 0.0
H552 H 0.99884 0.60211 0.79188 0.0
H553 H 0.90014 0.51467 0.82744 0.0
H554 H 0.07278 0.56445 0.79796 0.0
H555 H 0.03933 0.53581 0.77968 0.0
H556 H 0.05677 0.59278 0.78276 0.0
H557 H 0.89865 0.45204 0.83859 0.0
H558 H 0.9179 0.42727 0.82301 0.0
H559 H 0.95175 0.45717 0.84102 0.0
H560 H 0.00564 0.39711 0.78761 0.0
H561 H 0.08561 0.46778 0.8313 0.0
H562 H 0.97004 0.46777 0.77631 0.0
H563 H 0.92882 0.43224 0.79128 0.0
H564 H 0.95188 0.41019 0.77616 0.0
H565 H 0.06861 0.55579 0.82987 0.0
H566 H 0.08027 0.52423 0.84516 0.0
H567 H 0.0268 0.5188 0.84431 0.0
C568 C 0.41063 0.99017 0.13208 0.0
C569 C 0.38535 0.95755 0.14422 0.0
C570 C 0.4564 0.01062 0.13219 0.0
C571 C 0.47744 0.99772 0.14459 0.0
C572 C 0.452 0.96461 0.15684 0.0
C573 C 0.40622 0.94471 0.15642 0.0
C574 C 0.48217 0.0454 0.11878 0.0
C575 C 0.47312 0.94977 0.17021 0.0
C576 C 0.59099 0.0183 0.13337 0.0
C577 C 0.61778 0.05565 0.14327 0.0
C578 C 0.54534 0.99886 0.13386 0.0
C579 C 0.52592 0.01764 0.14428 0.0
C580 C 0.55288 0.05582 0.15409 0.0
C581 C 0.59853 0.07451 0.15338 0.0
C582 C 0.51791 0.95845 0.12306 0.0
C583 C 0.53349 0.07702 0.16524 0.0
H584 H 0.39454 0.99893 0.12217 0.0
H585 H 0.38666 0.91904 0.16564 0.0
H586 H 0.50684 0.07582 0.12532 0.0
H587 H 0.50007 0.03445 0.11018 0.0
H588 H 0.46102 0.05305 0.11055 0.0
H589 H 0.44889 0.92473 0.17918 0.0
H590 H 0.49129 0.93588 0.16354 0.0
H591 H 0.4971 0.97806 0.17803 0.0
H592 H 0.60579 0.00467 0.12495 0.0
H593 H 0.61924 0.10379 0.16083 0.0
H594 H 0.49858 0.96503 0.11339 0.0
H595 H 0.49442 0.93149 0.13154 0.0
H596 H 0.53801 0.94732 0.11598 0.0
H597 H 0.51415 0.08694 0.157 0.0
H598 H 0.55885 0.10626 0.17225 0.0
H599 H 0.51085 0.05328 0.17497 0.0
C600 C 0.26175 0.2579 0.3873 0.0
C601 C 0.29927 0.25695 0.39252 0.0
C602 C 0.25799 0.27153 0.3705 0.0
C603 C 0.29298 0.28542 0.35853 0.0
C604 C 0.33233 0.28769 0.36418 0.0
C605 C 0.3349 0.27306 0.38109 0.0
C606 C 0.21521 0.26793 0.36519 0.0
C607 C 0.37081 0.30318 0.35206 0.0
C608 C 0.25443 0.25873 0.31147 0.0
C609 C 0.257 0.29756 0.30565 0.0
C610 C 0.26801 0.25512 0.32829 0.0
C611 C 0.28565 0.29161 0.33967 0.0
C612 C 0.29124 0.33195 0.33342 0.0
C613 C 0.2765 0.33438 0.31652 0.0
C614 C 0.2608 0.21128 0.33425 0.0
C615 C 0.31076 0.37195 0.34489 0.0
H616 H 0.23421 0.2457 0.39616 0.0
H617 H 0.36391 0.27226 0.38503 0.0
H618 H 0.22087 0.299 0.35933 0.0
H619 H 0.1992 0.24208 0.35513 0.0
H620 H 0.19244 0.25974 0.37637 0.0
H621 H 0.40109 0.31053 0.35917 0.0
H622 H 0.36396 0.27747 0.34224 0.0
H623 H 0.37647 0.33284 0.3449 0.0
H624 H 0.23994 0.23032 0.30302 0.0
H625 H 0.2785 0.36445 0.31212 0.0
H626 H 0.23629 0.19858 0.34491 0.0
H627 H 0.29149 0.21462 0.33954 0.0
H628 H 0.24904 0.18682 0.32355 0.0
H629 H 0.28677 0.36826 0.35503 0.0
H630 H 0.31982 0.4021 0.33733 0.0
H631 H 0.34017 0.37581 0.3517 0.0
C632 C 0.0085 0.26687 0.64284 0.0
C633 C 0.96974 0.2648 0.63726 0.0
C634 C 0.02436 0.27966 0.65989 0.0
C635 C 0.0017 0.29213 0.67169 0.0
C636 C 0.96467 0.29393 0.66562 0.0
C637 C 0.94875 0.27969 0.64853 0.0
C638 C 0.06345 0.27639 0.66564 0.0
C639 C 0.94034 0.30845 0.67748 0.0
C640 C 0.00907 0.2616 0.71862 0.0
C641 C 0.04528 0.29964 0.72504 0.0
C642 C 0.99337 0.25948 0.70161 0.0
C643 C 0.01337 0.29685 0.69074 0.0
C644 C 0.04769 0.33655 0.69767 0.0
C645 C 0.06365 0.33736 0.71468 0.0
C646 C 0.95724 0.21619 0.69492 0.0
C647 C 0.06901 0.37759 0.68683 0.0
H648 H 0.02519 0.25594 0.6341 0.0
H649 H 0.91873 0.2781 0.64435 0.0
H650 H 0.0882 0.30737 0.67178 0.0
H651 H 0.05319 0.25025 0.67558 0.0
H652 H 0.07901 0.2688 0.65464 0.0
H653 H 0.91875 0.31702 0.67002 0.0
H654 H 0.91981 0.28168 0.68664 0.0
H655 H 0.96345 0.3371 0.68538 0.0
H656 H 0.99416 0.23257 0.7267 0.0
H657 H 0.0916 0.36689 0.71955 0.0
H658 H 0.96979 0.20458 0.68412 0.0
H659 H 0.93017 0.21995 0.68959 0.0
H660 H 0.94393 0.19072 0.70522 0.0
H661 H 0.09126 0.37549 0.67719 0.0
H662 H 0.08835 0.4071 0.69499 0.0
H663 H 0.04413 0.38145 0.67947 0.0
C664 C 0.74712 0.00103 0.05451 0.0
C665 C 0.74548 0.03706 0.06129 0.0
C666 C 0.73485 0.98696 0.03724 0.0
C667 C 0.71863 0.00822 0.02648 0.0
C668 C 0.71327 0.04226 0.03373 0.0
C669 C 0.72737 0.05675 0.05098 0.0
C670 C 0.74207 0.95114 0.03021 0.0
C671 C 0.69455 0.06476 0.02303 0.0
C672 C 0.74618 0.00707 0.97861 0.0
C673 C 0.70971 0.96881 0.97247 0.0
C674 C 0.74847 0.02151 0.99585 0.0
C675 C 0.71272 0.99802 1.00728 0.0
C676 C 0.67414 0.96156 1.00068 0.0
C677 C 0.67329 0.94697 0.98341 0.0
C678 C 0.79065 0.05996 1.00219 0.0
C679 C 0.63461 0.93647 1.01212 0.0
H680 H 0.75989 0.98481 0.06257 0.0
H681 H 0.72586 0.08453 0.05612 0.0
H682 H 0.71138 0.92446 0.02461 0.0
H683 H 0.76657 0.96427 0.01955 0.0
H684 H 0.75382 0.93713 0.04039 0.0
H685 H 0.68405 0.08358 0.03135 0.0
H686 H 0.7196 0.08772 1.01377 0.0
H687 H 0.66623 0.04063 1.01525 0.0
H688 H 0.7742 0.02449 0.97012 0.0
H689 H 0.64504 0.91731 0.97882 0.0
H690 H 0.80571 0.04877 1.01212 0.0
H691 H 0.78434 0.08446 1.0085 0.0
H692 H 0.81451 0.07615 0.99145 0.0
H693 H 0.64005 0.91492 0.02101 0.0
H694 H 0.60481 0.91578 1.00431 0.0
H695 H 0.62892 0.95906 0.02031 0.0
C696 C 0.74611 0.74575 0.38865 0.0
C697 C 0.7083 0.74569 0.39422 0.0
C698 C 0.74963 0.73245 0.37175 0.0
C699 C 0.714 0.71759 0.36005 0.0
C700 C 0.67446 0.71438 0.36602 0.0
C701 C 0.67217 0.72883 0.38301 0.0
C702 C 0.79265 0.7371 0.36609 0.0
C703 C 0.63531 0.69777 0.3542 0.0
C704 C 0.75016 0.74298 0.3127 0.0
C705 C 0.74862 0.70446 0.30707 0.0
C706 C 0.73692 0.74683 0.32956 0.0
C707 C 0.7206 0.71087 0.34116 0.0
C708 C 0.71585 0.67071 0.33509 0.0
C709 C 0.73028 0.66806 0.31815 0.0
C710 C 0.74324 0.7905 0.33532 0.0
C711 C 0.69765 0.63121 0.3468 0.0
H712 H 0.7739 0.75807 0.39738 0.0
H713 H 0.64286 0.7287 0.38722 0.0
H714 H 0.78754 0.70596 0.36049 0.0
H715 H 0.80734 0.76231 0.35574 0.0
H716 H 0.81629 0.74669 0.37703 0.0
H717 H 0.60521 0.69007 0.36153 0.0
H718 H 0.64116 0.72297 0.34428 0.0
H719 H 0.62992 0.66807 0.34714 0.0
H720 H 0.76371 0.77103 0.30407 0.0
H721 H 0.729 0.63821 0.31389 0.0
H722 H 0.7684 0.80426 0.34573 0.0
H723 H 0.71255 0.78655 0.34088 0.0
H724 H 0.75377 0.81439 0.32444 0.0
H725 H 0.72234 0.63586 0.35677 0.0
H726 H 0.68887 0.60092 0.33938 0.0
H727 H 0.66831 0.62694 0.3538 0.0
C728 C 0.9977 0.73883 0.64571 0.0
C729 C 0.03668 0.74125 0.6402 0.0
C730 C 0.98192 0.72634 0.66278 0.0
C731 C 0.00492 0.71461 0.6747 0.0
C732 C 0.0423 0.71328 0.66874 0.0
C733 C 0.05807 0.72713 0.6516 0.0
C734 C 0.94245 0.72909 0.66842 0.0
C735 C 0.06709 0.69964 0.68074 0.0
C736 C 0.99708 0.74504 0.72165 0.0
C737 C 0.96156 0.7066 0.72818 0.0
C738 C 0.01255 0.74744 0.70458 0.0
C739 C 0.9931 0.70996 0.69374 0.0
C740 C 0.95937 0.66999 0.70072 0.0
C741 C 0.94361 0.66888 0.7178 0.0
C742 C 0.04804 0.79099 0.69783 0.0
C743 C 0.93861 0.62888 0.68989 0.0
H744 H 0.98071 0.74918 0.63687 0.0
H745 H 0.08825 0.72899 0.64746 0.0
H746 H 0.91807 0.69818 0.6747 0.0
H747 H 0.9524 0.75554 0.67822 0.0
H748 H 0.92657 0.73595 0.65733 0.0
H749 H 0.08933 0.69172 0.6734 0.0
H750 H 0.08697 0.72662 0.68993 0.0
H751 H 0.04426 0.67081 0.6886 0.0
H752 H 0.01191 0.77403 0.72977 0.0
H753 H 0.91623 0.63903 0.72275 0.0
H754 H 0.03512 0.80193 0.68695 0.0
H755 H 0.07559 0.7879 0.69261 0.0
H756 H 0.06077 0.81666 0.70808 0.0
H757 H 0.91661 0.63077 0.68007 0.0
H758 H 0.91916 0.59935 0.69802 0.0
H759 H 0.96386 0.62523 0.68273 0.0
C760 C 0.2616 0.0019 0.97844 0.0
C761 C 0.2995 0.03882 0.97237 0.0
C762 C 0.25882 0.98607 0.99547 0.0
C763 C 0.29538 0.00679 1.00674 0.0
C764 C 0.33507 0.04181 1.00017 0.0
C765 C 0.33655 0.05778 0.98311 0.0
C766 C 0.21559 0.94912 1.00177 0.0
C767 C 0.37529 0.06397 1.01145 0.0
C768 C 0.26209 0.00167 0.05422 0.0
C769 C 0.26127 0.96377 0.0602 0.0
C770 C 0.27544 0.01732 0.03719 0.0
C771 C 0.28959 0.99528 0.02581 0.0
C772 C 0.29237 0.95908 0.03228 0.0
C773 C 0.27769 0.9434 0.04935 0.0
C774 C 0.27117 0.05557 0.031 0.0
C775 C 0.30852 0.93538 0.02086 0.0
H776 H 0.2331 0.98659 0.97008 0.0
H777 H 0.36597 0.08627 0.97849 0.0
H778 H 0.21992 0.92276 1.0075 0.0
H779 H 0.20245 0.96121 1.01216 0.0
H780 H 0.19104 0.93498 0.99114 0.0
H781 H 0.40517 0.08409 1.0036 0.0
H782 H 0.37176 0.08564 0.02097 0.0
H783 H 0.3795 0.03951 0.01897 0.0
H784 H 0.24993 0.01786 0.06264 0.0
H785 H 0.27707 0.91405 0.05387 0.0
H786 H 0.24568 0.04449 0.02074 0.0
H787 H 0.30223 0.0809 0.02513 0.0
H788 H 0.26218 0.07072 0.04173 0.0
H789 H 0.2826 0.91434 1.01147 0.0
H790 H 0.31729 0.91437 0.02863 0.0
H791 H 0.33742 0.95891 1.0132 0.0
C792 C 0.03513 0.09154 0.27946 0.0
C793 C 0.0782 0.10963 0.28529 0.0
C794 C 0.00309 0.05036 0.28512 0.0
C795 C 0.01441 0.0275 0.29728 0.0
C796 C 0.05598 0.04875 0.30529 0.0
C797 C 0.08805 0.08939 0.29884 0.0
C798 C 0.95878 0.02942 0.27644 0.0
C799 C 0.06781 0.0273 0.3196 0.0
C800 C 0.91511 0.91667 0.30013 0.0
C801 C 0.92393 0.89614 0.28637 0.0
C802 C 0.94735 0.9579 0.30604 0.0
C803 C 0.98798 0.97936 0.2973 0.0
C804 C 0.99837 0.95648 0.28477 0.0
C805 C 0.96629 0.91477 0.27969 0.0
C806 C 0.93655 0.97942 0.32068 0.0
C807 C 0.04153 0.97773 0.27518 0.0
H808 H 0.02719 0.1078 0.26933 0.0
H809 H 0.12103 0.10436 0.30392 0.0
H810 H 0.95369 0.0008 0.26862 0.0
H811 H 0.93269 0.01764 0.28642 0.0
H812 H 0.95507 0.05235 0.26767 0.0
H813 H 0.08979 0.05206 0.32922 0.0
H814 H 0.03846 0.00186 0.32649 0.0
H815 H 0.08574 0.01189 0.31398 0.0
H816 H 0.88274 0.90138 0.30583 0.0
H817 H 0.97349 0.89838 0.26935 0.0
H818 H 0.91584 0.99233 0.31563 0.0
H819 H 0.96629 0.00663 0.32669 0.0
H820 H 0.91748 0.95507 0.33093 0.0
H821 H 0.04536 0.00615 0.26758 0.0
H822 H 0.0444 0.95489 0.26604 0.0
H823 H 0.0689 0.98983 0.28458 0.0
C824 C 0.97363 0.0713 0.62554 0.0
C825 C 0.00041 0.09672 0.61183 0.0
C826 C 0.97568 0.03498 0.63152 0.0
C827 C 0.00331 0.02298 0.62281 0.0
C828 C 0.0335 0.05126 0.61016 0.0
C829 C 0.03217 0.08849 0.60505 0.0
C830 C 0.9456 0.00767 0.64602 0.0
C831 C 0.06365 0.03972 0.60051 0.0
C832 C 0.02593 0.93124 0.62799 0.0
C833 C 0.99852 0.90314 0.61497 0.0
C834 C 0.0233 0.96799 0.63287 0.0
C835 C 0.99449 0.9776 0.6237 0.0
C836 C 0.96346 0.94654 0.61198 0.0
C837 C 0.9654 0.909 0.608 0.0
C838 C 0.05415 0.9984 0.64656 0.0
C839 C 0.93192 0.95539 0.60195 0.0
H840 H 0.94972 0.07857 0.63103 0.0
H841 H 0.05296 0.10862 0.59452 0.0
H842 H 0.91326 0.98402 0.64051 0.0
H843 H 0.95856 0.98916 0.65308 0.0
H844 H 0.94054 0.02854 0.65549 0.0
H845 H 0.08602 0.06609 0.59152 0.0
H846 H 0.08363 0.03328 0.60986 0.0
H847 H 0.04411 0.00951 0.59277 0.0
H848 H 0.05091 0.9258 0.63365 0.0
H849 H 0.94412 0.88679 0.59802 0.0
H850 H 0.04043 0.01669 0.65327 0.0
H851 H 0.08537 0.02234 0.64033 0.0
H852 H 0.06156 0.98002 0.65642 0.0
H853 H 0.91289 0.96386 0.61101 0.0
H854 H 0.90869 0.92689 0.59399 0.0
H855 H 0.95032 0.98364 0.59309 0.0
C856 C 0.06446 0.97341 0.94437 0.0
C857 C 0.10374 0.0097 0.94946 0.0
C858 C 0.02482 0.97096 0.94846 0.0
C859 C 0.0251 0.00501 0.95835 0.0
C860 C 0.0643 0.0376 0.96597 0.0
C861 C 0.10366 0.04035 0.96101 0.0
C862 C 0.9835 0.93511 0.94029 0.0
C863 C 0.06519 0.07202 0.97787 0.0
C864 C 0.94839 0.03519 0.93734 0.0
C865 C 0.90954 0.00594 0.94562 0.0
C866 C 0.98763 0.03807 0.94241 0.0
C867 C 0.98772 0.01232 0.9566 0.0
C868 C 0.94935 0.98738 0.96648 0.0
C869 C 0.91012 0.98338 0.96051 0.0
C870 C 0.02774 0.06486 0.93134 0.0
C871 C 0.94868 0.96225 0.98248 0.0
H872 H 0.06486 0.9495 0.93561 0.0
H873 H 0.13435 0.06779 0.96533 0.0
H874 H 0.95779 0.91881 0.95032 0.0
H875 H 0.97122 0.94933 0.93042 0.0
H876 H 0.98869 0.90997 0.93379 0.0
H877 H 0.09379 0.08531 0.98676 0.0
H878 H 0.06777 0.09947 0.96996 0.0
H879 H 0.03488 0.05865 0.98576 0.0
H880 H 0.94742 0.05255 0.92584 0.0
H881 H 0.87977 0.96131 0.96706 0.0
H882 H 0.03789 0.04309 0.92501 0.0
H883 H 0.05525 0.08841 0.93956 0.0
H884 H 0.02204 0.08342 0.92099 0.0
H885 H 0.93704 0.92777 0.97887 0.0
H886 H 0.92558 0.96218 0.99231 0.0
H887 H 0.98145 0.97606 0.98853 0.0
C888 C 0.93222 0.94314 0.43007 0.0
C889 C 0.90336 0.90934 0.41924 0.0
C890 C 0.9728 0.97502 0.42395 0.0
C891 C 0.98416 0.97369 0.40629 0.0
C892 C 0.95464 0.93981 0.39513 0.0
C893 C 0.91444 0.90739 0.40187 0.0
C894 C 0.00347 0.00986 0.43656 0.0
C895 C 0.96446 0.93839 0.37606 0.0
C896 C 0.07617 0.08564 0.40227 0.0
C897 C 0.10857 0.07853 0.40937 0.0
C898 C 0.03577 0.05008 0.39745 0.0
C899 C 0.028 0.00731 0.40039 0.0
C900 C 0.06333 0.00063 0.40412 0.0
C901 C 0.10354 0.03662 0.4086 0.0
C902 C 0.99946 0.05809 0.39198 0.0
C903 C 0.05686 0.95541 0.40647 0.0
H904 H 0.92321 0.94416 0.44352 0.0
H905 H 0.89131 0.88131 0.39351 0.0
H906 H 0.03515 0.01059 0.43709 0.0
H907 H 0.00986 0.04242 0.43217 0.0
H908 H 0.99005 0.00446 0.45001 0.0
H909 H 0.94623 0.90454 0.37087 0.0
H910 H 0.95404 0.95851 0.36861 0.0
H911 H 0.9998 0.95183 0.37363 0.0
H912 H 0.08066 0.11829 0.40201 0.0
H913 H 0.12943 0.03121 0.41321 0.0
H914 H 0.98031 0.05691 0.40364 0.0
H915 H 0.97703 0.03254 0.38272 0.0
H916 H 0.01252 0.0907 0.38581 0.0
H917 H 0.04316 0.94317 0.41964 0.0
H918 H 0.08821 0.95548 0.40535 0.0
H919 H 0.03357 0.9324 0.39672 0.0
C920 C 0.98689 0.92996 0.76379 0.0
C921 C 0.99239 0.90116 0.75313 0.0
C922 C 0.99596 0.97063 0.75761 0.0
C923 C 0.00956 0.98211 0.74004 0.0
C924 C 0.01441 0.95263 0.72904 0.0
C925 C 0.00627 0.91236 0.73586 0.0
C926 C 0.99133 0.00131 0.77007 0.0
C927 C 0.02661 0.96259 0.71006 0.0
C928 C 0.99093 0.07496 0.73537 0.0
C929 C 0.03036 0.10727 0.74257 0.0
C930 C 0.98579 0.03427 0.7308 0.0
C931 C 0.02038 0.02612 0.73411 0.0
C932 C 0.06239 0.06123 0.73803 0.0
C933 C 0.06694 0.10175 0.74222 0.0
C934 C 0.94151 0.99815 0.72515 0.0
C935 C 0.10073 0.05433 0.74085 0.0
H936 H 0.97624 0.9209 0.77718 0.0
H937 H 0.00966 0.88929 0.72762 0.0
H938 H 0.02229 0.033 0.77075 0.0
H939 H 0.96541 0.00776 0.76543 0.0
H940 H 0.98275 0.98786 0.7835 0.0
H941 H 0.0421 0.94408 0.70504 0.0
H942 H 0.9965 0.95263 0.70237 0.0
H943 H 0.04895 0.99792 0.70775 0.0
H944 H 0.96302 0.0798 0.73481 0.0
H945 H 0.09819 0.12752 0.74693 0.0
H946 H 0.92298 0.97927 0.73677 0.0
H947 H 0.94468 0.9754 0.71609 0.0
H948 H 0.92249 0.01143 0.7187 0.0
H949 H 0.09839 0.04049 0.75406 0.0
H950 H 0.13223 0.08553 0.73993 0.0
H951 H 0.10072 0.03094 0.7312 0.0
C952 C 0.92311 0.98366 0.09984 0.0
C953 C 0.90004 0.99437 0.08806 0.0
C954 C 0.95723 0.97782 0.09416 0.0
C955 C 0.96843 0.98313 0.07619 0.0
C956 C 0.94313 0.99114 0.06404 0.0
C957 C 0.90907 0.99704 0.07021 0.0
C958 C 0.98283 0.96858 0.10763 0.0
C959 C 0.95325 0.9961 0.04479 0.0
C960 C 0.08635 0.02145 0.0781 0.0
C961 C 0.08385 0.98088 0.07981 0.0
C962 C 0.04911 0.02362 0.07367 0.0
C963 C 0.00919 0.9843 0.07103 0.0
C964 C 0.00895 0.94443 0.0694 0.0
C965 C 0.04645 0.94304 0.07403 0.0
C966 C 0.05097 0.06713 0.0746 0.0
C967 C 0.96753 0.90231 0.06547 0.0
H968 H 0.91562 0.9818 0.11365 0.0
H969 H 0.89093 0.00564 0.06121 0.0
H970 H 0.98362 0.93855 0.10412 0.0
H971 H 0.01701 0.996 0.10807 0.0
H972 H 0.96871 0.96416 0.12092 0.0
H973 H 0.92304 0.98498 0.03699 0.0
H974 H 0.97544 0.03113 0.04179 0.0
H975 H 0.96939 0.97759 0.0406 0.0
H976 H 0.11579 0.05097 0.08198 0.0
H977 H 0.04516 0.91176 0.07456 0.0
H978 H 0.03803 0.07016 0.0874 0.0
H979 H 0.0305 0.06972 0.06425 0.0
H980 H 0.08492 0.09477 0.07325 0.0
H981 H 0.94867 0.88912 0.0777 0.0
H982 H 0.9747 0.87742 0.06004 0.0
H983 H 0.94677 0.90773 0.05611 0.0
C984 C 0.91589 0.19923 0.16171 0.0
C985 C 0.91529 0.16459 0.15247 0.0
C986 C 0.95047 0.22528 0.17338 0.0
C987 C 0.98431 0.21544 0.17645 0.0
C988 C 0.98376 0.18071 0.16704 0.0
C989 C 0.95 0.15647 0.15512 0.0
C990 C 0.95034 0.26284 0.18264 0.0
C991 C 0.01789 0.16762 0.1701 0.0
C992 C 0.09539 0.28371 0.1988 0.0
C993 C 0.08722 0.26391 0.21531 0.0
C994 C 0.06131 0.2714 0.18647 0.0
C995 C 0.01817 0.23784 0.19055 0.0
C996 C 0.00936 0.22035 0.20764 0.0
C997 C 0.0436 0.23394 0.21976 0.0
C998 C 0.07209 0.2923 0.16868 0.0
C999 C 0.96446 0.18409 0.21271 0.0
H1000 H 0.88953 0.20604 0.1598 0.0
H1001 H 0.95003 0.12961 0.14831 0.0
H1002 H 0.94017 0.25375 0.19639 0.0
H1003 H 0.98359 0.29194 0.18275 0.0
H1004 H 0.92749 0.27176 0.17643 0.0
H1005 H 0.01304 0.13999 0.16166 0.0
H1006 H 0.05094 0.19568 0.16758 0.0
H1007 H 0.01692 0.15787 0.18392 0.0
H1008 H 0.12867 0.307 0.19512 0.0
H1009 H 0.03636 0.21866 0.23251 0.0
H1010 H 0.04597 0.29859 0.1641 0.0
H1011 H 0.07442 0.26985 0.1592 0.0
H1012 H 0.10368 0.32352 0.16868 0.0
H1013 H 0.93926 0.19253 0.2091 0.0
H1014 H 0.96182 0.17695 0.22691 0.0
H1015 H 0.95702 0.15388 0.20552 0.0
C1016 C 0.80923 0.09078 0.53514 0.0
C1017 C 0.82974 0.0853 0.54985 0.0
C1018 C 0.78599 0.05614 0.52314 0.0
C1019 C 0.78415 0.01535 0.52555 0.0
C1020 C 0.80246 0.009 0.54092 0.0
C1021 C 0.82416 0.04348 0.55289 0.0
C1022 C 0.7654 0.06401 0.50738 0.0
C1023 C 0.80247 0.96683 0.5441 0.0
C1024 C 0.71836 0.91006 0.49853 0.0
C1025 C 0.74963 0.91375 0.48629 0.0
C1026 C 0.72779 0.94406 0.51066 0.0
C1027 C 0.76997 0.98205 0.51103 0.0
C1028 C 0.80103 0.98623 0.49841 0.0
C1029 C 0.79033 0.95275 0.48618 0.0
C1030 C 0.69297 0.93866 0.5234 0.0
C1031 C 0.84681 0.02512 0.49839 0.0
H1032 H 0.81281 0.12255 0.53258 0.0
H1033 H 0.8392 0.03814 0.56422 0.0
H1034 H 0.78655 0.07006 0.49583 0.0
H1035 H 0.73319 0.0349 0.50453 0.0
H1036 H 0.76105 0.09278 0.5092 0.0
H1037 H 0.81535 0.96581 0.5572 0.0
H1038 H 0.769 0.93852 0.54287 0.0
H1039 H 0.82299 0.96295 0.5341 0.0
H1040 H 0.68678 0.88046 0.49881 0.0
H1041 H 0.81516 0.95659 0.47694 0.0
H1042 H 0.69346 0.97002 0.52531 0.0
H1043 H 0.69916 0.92837 0.53623 0.0
H1044 H 0.65993 0.9135 0.51894 0.0
H1045 H 0.84581 0.05586 0.49731 0.0
H1046 H 0.86696 0.02396 0.48752 0.0
H1047 H 0.86326 0.02638 0.51088 0.0
C1048 C 0.80916 0.71673 0.83324 0.0
C1049 C 0.83508 0.74727 0.82046 0.0
C1050 C 0.7853 0.72649 0.84558 0.0
C1051 C 0.78862 0.76831 0.84562 0.0
C1052 C 0.81363 0.79851 0.83243 0.0
C1053 C 0.83563 0.78741 0.81999 0.0
C1054 C 0.75774 0.69248 0.85892 0.0
C1055 C 0.81957 0.84393 0.83202 0.0
C1056 C 0.72094 0.80821 0.87058 0.0
C1057 C 0.7485 0.83019 0.88475 0.0
C1058 C 0.73134 0.78427 0.85855 0.0
C1059 C 0.77085 0.78327 0.86035 0.0
C1060 C 0.7972 0.80313 0.87521 0.0
C1061 C 0.78542 0.82549 0.88724 0.0
C1062 C 0.70111 0.76195 0.84339 0.0
C1063 C 0.84002 0.80405 0.87771 0.0
H1064 H 0.80807 0.68558 0.8338 0.0
H1065 H 0.85527 0.81165 0.8103 0.0
H1066 H 0.77598 0.69955 0.87138 0.0
H1067 H 0.72709 0.69291 0.86151 0.0
H1068 H 0.74942 0.65918 0.85462 0.0
H1069 H 0.83939 0.86335 0.82071 0.0
H1070 H 0.78743 0.84217 0.83142 0.0
H1071 H 0.836 0.86164 0.84416 0.0
H1072 H 0.69219 0.81107 0.86847 0.0
H1073 H 0.80702 0.8417 0.89815 0.0
H1074 H 0.69827 0.72975 0.84076 0.0
H1075 H 0.71448 0.78219 0.8315 0.0
H1076 H 0.66803 0.75715 0.8458 0.0
H1077 H 0.83514 0.77062 0.87684 0.0
H1078 H 0.85546 0.81838 0.89046 0.0
H1079 H 0.863 0.82372 0.86717 0.0
C1080 C 0.09171 0.81093 0.16417 0.0
C1081 C 0.0851 0.83043 0.14939 0.0
C1082 C 0.05777 0.78775 0.17643 0.0
C1083 C 0.01651 0.78494 0.1742 0.0
C1084 C 0.00908 0.80236 0.15881 0.0
C1085 C 0.04291 0.82406 0.1466 0.0
C1086 C 0.06682 0.76821 0.19224 0.0
C1087 C 0.96638 0.80139 0.15584 0.0
C1088 C 0.91289 0.71802 0.20198 0.0
C1089 C 0.91646 0.74929 0.2142 0.0
C1090 C 0.94643 0.72793 0.18957 0.0
C1091 C 0.98373 0.77057 0.1889 0.0
C1092 C 0.98767 0.80175 0.20144 0.0
C1093 C 0.95471 0.7906 0.21394 0.0
C1094 C 0.94136 0.69305 0.17692 0.0
C1095 C 0.02574 0.848 0.20112 0.0
H1096 H 0.12379 0.81514 0.16654 0.0
H1097 H 0.03672 0.83837 0.13524 0.0
H1098 H 0.07253 0.78954 0.20371 0.0
H1099 H 0.03838 0.73566 0.19525 0.0
H1100 H 0.09611 0.76479 0.19038 0.0
H1101 H 0.9645 0.81353 0.14269 0.0
H1102 H 0.93852 0.76774 0.15736 0.0
H1103 H 0.96251 0.82209 0.16576 0.0
H1104 H 0.88383 0.68601 0.20198 0.0
H1105 H 0.95832 0.81549 0.22313 0.0
H1106 H 0.97287 0.69383 0.17509 0.0
H1107 H 0.93112 0.69902 0.16403 0.0
H1108 H 0.91639 0.65994 0.18138 0.0
H1109 H 0.05698 0.84795 0.20202 0.0
H1110 H 0.02446 0.86823 0.21194 0.0
H1111 H 0.02597 0.8638 0.18858 0.0
C1112 C 0.16271 0.95512 0.55017 0.0
C1113 C 0.16412 0.91597 0.54961 0.0
C1114 C 0.18433 0.98852 0.53778 0.0
C1115 C 0.20967 0.98406 0.52451 0.0
C1116 C 0.21375 0.94599 0.52445 0.0
C1117 C 0.19043 0.91215 0.53678 0.0
C1118 C 0.1776 0.02749 0.53829 0.0
C1119 C 0.2416 0.94029 0.51101 0.0
C1120 C 0.21281 0.04269 0.48226 0.0
C1121 C 0.25049 0.08409 0.48417 0.0
C1122 C 0.20047 0.00955 0.49483 0.0
C1123 C 0.2269 0.01676 0.50972 0.0
C1124 C 0.26661 0.05728 0.51121 0.0
C1125 C 0.27762 0.09062 0.4986 0.0
C1126 C 0.15737 0.96774 0.49267 0.0
C1127 C 0.29673 0.06608 0.52648 0.0
H1128 H 0.14268 0.95904 0.55989 0.0
H1129 H 0.19216 0.88244 0.53612 0.0
H1130 H 0.20947 0.05825 0.53854 0.0
H1131 H 0.1602 0.028 0.52633 0.0
H1132 H 0.15832 0.02703 0.54981 0.0
H1133 H 0.24854 0.91398 0.51468 0.0
H1134 H 0.22447 0.9317 0.49827 0.0
H1135 H 0.27298 0.9712 0.50923 0.0
H1136 H 0.1913 0.03657 0.47125 0.0
H1137 H 0.30684 0.1221 0.50032 0.0
H1138 H 0.13485 0.96496 0.50332 0.0
H1139 H 0.16202 0.93906 0.49362 0.0
H1140 H 0.14147 0.96622 0.47999 0.0
H1141 H 0.28285 0.07274 0.53827 0.0
H1142 H 0.32963 0.09471 0.52411 0.0
H1143 H 0.30013 0.03712 0.52928 0.0
C1144 C 0.22108 0.1775 0.88522 0.0
C1145 C 0.25633 0.17034 0.8822 0.0
C1146 C 0.20816 0.19829 0.87288 0.0
C1147 C 0.23159 0.21391 0.85706 0.0
C1148 C 0.26942 0.21015 0.85449 0.0
C1149 C 0.28102 0.18799 0.86693 0.0
C1150 C 0.16712 0.20031 0.87625 0.0
C1151 C 0.29644 0.22761 0.83817 0.0
C1152 C 0.16157 0.20704 0.81799 0.0
C1153 C 0.16601 0.24892 0.81729 0.0
C1154 C 0.18361 0.19598 0.83044 0.0
C1155 C 0.21242 0.22776 0.84246 0.0
C1156 C 0.21892 0.27082 0.84137 0.0
C1157 C 0.19509 0.28069 0.82905 0.0
C1158 C 0.17415 0.14932 0.83124 0.0
C1159 C 0.25035 0.30626 0.85346 0.0
H1160 H 0.20165 0.16458 0.89693 0.0
H1161 H 0.30837 0.18307 0.86435 0.0
H1162 H 0.17325 0.23397 0.87429 0.0
H1163 H 0.14148 0.17887 0.86682 0.0
H1164 H 0.15432 0.18966 0.88966 0.0
H1165 H 0.32893 0.23026 0.83958 0.0
H1166 H 0.27921 0.20539 0.82709 0.0
H1167 H 0.30109 0.26021 0.83482 0.0
H1168 H 0.1391 0.18178 0.8092 0.0
H1169 H 0.19909 0.31314 0.8287 0.0
H1170 H 0.15937 0.13482 0.84404 0.0
H1171 H 0.20485 0.14829 0.83008 0.0
H1172 H 0.1515 0.12861 0.82078 0.0
H1173 H 0.23599 0.30081 0.86671 0.0
H1174 H 0.25791 0.3392 0.849 0.0
H1175 H 0.28124 0.30547 0.85451 0.0
C1176 C 0.24267 0.19955 0.20123 0.0
C1177 C 0.2115 0.18235 0.21465 0.0
C1178 C 0.24654 0.17213 0.18893 0.0
C1179 C 0.21845 0.12635 0.18998 0.0
C1180 C 0.18811 0.10868 0.20387 0.0
C1181 C 0.18509 0.13681 0.21603 0.0
C1182 C 0.27959 0.19229 0.17443 0.0
C1183 C 0.15757 0.06006 0.20551 0.0
C1184 C 0.18817 0.05612 0.14909 0.0
C1185 C 0.21245 0.03485 0.15108 0.0
C1186 C 0.19088 0.0869 0.16136 0.0
C1187 C 0.2187 0.09698 0.17601 0.0
C1188 C 0.24474 0.07712 0.17772 0.0
C1189 C 0.24124 0.04626 0.16527 0.0
C1190 C 0.16262 0.10738 0.15899 0.0
C1191 C 0.27509 0.08723 0.19305 0.0
H1192 H 0.26327 0.23458 0.19997 0.0
H1193 H 0.16095 0.12302 0.22633 0.0
H1194 H 0.29961 0.17624 0.17348 0.0
H1195 H 0.26243 0.18717 0.16179 0.0
H1196 H 0.30169 0.22792 0.17634 0.0
H1197 H 0.13762 0.05132 0.2176 0.0
H1198 H 0.13522 0.0481 0.19413 0.0
H1199 H 0.17634 0.04263 0.20549 0.0
H1200 H 0.1659 0.04777 0.13818 0.0
H1201 H 0.26014 0.0301 0.167 0.0
H1202 H 0.18289 0.14349 0.1595 0.0
H1203 H 0.13862 0.09717 0.1698 0.0
H1204 H 0.14454 0.09793 0.14644 0.0
H1205 H 0.2964 0.12305 0.19456 0.0
H1206 H 0.29599 0.07218 0.19167 0.0
H1207 H 0.25572 0.07482 0.20521 0.0
C1208 C 0.05406 0.19474 0.54509 0.0
C1209 C 0.03178 0.21812 0.54343 0.0
C1210 C 0.08392 0.19754 0.5324 0.0
C1211 C 0.09212 0.22463 0.51765 0.0
C1212 C 0.07124 0.2498 0.51622 0.0
C1213 C 0.04124 0.2462 0.52911 0.0
C1214 C 0.10554 0.17022 0.53452 0.0
C1215 C 0.07951 0.27944 0.50079 0.0
C1216 C 0.19424 0.24768 0.49264 0.0
C1217 C 0.17714 0.21502 0.47977 0.0
C1218 C 0.16681 0.25296 0.50444 0.0
C1219 C 0.1211 0.22469 0.50348 0.0
C1220 C 0.10345 0.19325 0.48995 0.0
C1221 C 0.13162 0.1889 0.47823 0.0
C1222 C 0.18698 0.28726 0.51852 0.0
C1223 C 0.0549 0.16242 0.48844 0.0
H1224 H 0.0473 0.1731 0.55612 0.0
H1225 H 0.02433 0.26449 0.52769 0.0
H1226 H 0.09555 0.14627 0.52369 0.0
H1227 H 0.14153 0.19125 0.53386 0.0
H1228 H 0.09692 0.1521 0.54706 0.0
H1229 H 0.06392 0.29979 0.50238 0.0
H1230 H 0.11509 0.30127 0.49884 0.0
H1231 H 0.06647 0.25952 0.48879 0.0
H1232 H 0.22921 0.2682 0.49395 0.0
H1233 H 0.11789 0.16367 0.46833 0.0
H1234 H 0.18362 0.27117 0.5313 0.0
H1235 H 0.16976 0.30616 0.51951 0.0
H1236 H 0.22219 0.31029 0.51612 0.0
H1237 H 0.04344 0.1399 0.49977 0.0
H1238 H 0.04608 0.1426 0.47631 0.0
H1239 H 0.03714 0.18087 0.48867 0.0
C1240 C 0.94361 0.13152 0.81151 0.0
C1241 C 0.96346 0.1771 0.81308 0.0
C1242 C 0.91169 0.10352 0.82345 0.0
C1243 C 0.89894 0.12139 0.83725 0.0
C1244 C 0.91678 0.16719 0.83826 0.0
C1245 C 0.94892 0.19446 0.82623 0.0
C1246 C 0.89353 0.05487 0.82187 0.0
C1247 C 0.90371 0.1876 0.85262 0.0
C1248 C 0.79877 0.04194 0.86357 0.0
C1249 C 0.81798 0.03244 0.87767 0.0
C1250 C 0.8246 0.07186 0.85055 0.0
C1251 C 0.87069 0.09253 0.85159 0.0
C1252 C 0.8902 0.08418 0.86609 0.0
C1253 C 0.86371 0.05448 0.87894 0.0
C1254 C 0.80257 0.08031 0.83542 0.0
C1255 C 0.9392 0.1055 0.86777 0.0
H1256 H 0.95433 0.11759 0.80139 0.0
H1257 H 0.96377 0.22949 0.8276 0.0
H1258 H 0.90505 0.04329 0.83302 0.0
H1259 H 0.85736 0.03733 0.82242 0.0
H1260 H 0.90371 0.04589 0.80957 0.0
H1261 H 0.91599 0.22286 0.85026 0.0
H1262 H 0.86767 0.17059 0.85394 0.0
H1263 H 0.9171 0.18417 0.86522 0.0
H1264 H 0.76354 0.02518 0.86243 0.0
H1265 H 0.87905 0.04765 0.88978 0.0
H1266 H 0.80862 0.06713 0.82327 0.0
H1267 H 0.81645 0.11594 0.83351 0.0
H1268 H 0.76674 0.06494 0.83733 0.0
H1269 H 0.95241 0.09539 0.85671 0.0
H1270 H 0.94926 0.09672 0.88014 0.0
H1271 H 0.95437 0.14154 0.86717 0.0
C1272 C 0.80874 0.8646 0.21967 0.0
C1273 C 0.78273 0.81896 0.21854 0.0
C1274 C 0.80362 0.89207 0.20786 0.0
C1275 C 0.77141 0.87362 0.19465 0.0
C1276 C 0.74318 0.82781 0.19413 0.0
C1277 C 0.7493 0.80105 0.20601 0.0
C1278 C 0.8345 0.94074 0.2089 0.0
C1279 C 0.70795 0.80684 0.18046 0.0
C1280 C 0.75077 0.95436 0.1693 0.0
C1281 C 0.77857 0.96351 0.15489 0.0
C1282 C 0.74644 0.92368 0.182 0.0
C1283 C 0.77075 0.90193 0.18035 0.0
C1284 C 0.79722 0.90955 0.16543 0.0
C1285 C 0.80061 0.93997 0.1529 0.0
C1286 C 0.71734 0.91595 0.19756 0.0
C1287 C 0.82371 0.88711 0.16309 0.0
H1288 H 0.83455 0.87898 0.22932 0.0
H1289 H 0.72878 0.76597 0.20505 0.0
H1290 H 0.8561 0.95163 0.19728 0.0
H1291 H 0.81601 0.95846 0.20884 0.0
H1292 H 0.85524 0.95024 0.22077 0.0
H1293 H 0.68492 0.77186 0.18331 0.0
H1294 H 0.68923 0.82425 0.17945 0.0
H1295 H 0.72312 0.80911 0.16755 0.0
H1296 H 0.73354 0.97224 0.171 0.0
H1297 H 0.82196 0.94642 0.14179 0.0
H1298 H 0.7377 0.9302 0.20938 0.0
H1299 H 0.69608 0.88044 0.19994 0.0
H1300 H 0.69645 0.93092 0.19584 0.0
H1301 H 0.84835 0.89731 0.17366 0.0
H1302 H 0.84093 0.89491 0.15035 0.0
H1303 H 0.80232 0.85119 0.16405 0.0
C1304 C 0.86103 0.79878 0.48347 0.0
C1305 C 0.81541 0.77562 0.48529 0.0
C1306 C 0.8881 0.79394 0.49553 0.0
C1307 C 0.86926 0.7648 0.50972 0.0
C1308 C 0.82324 0.73911 0.51101 0.0
C1309 C 0.79685 0.745 0.49884 0.0
C1310 C 0.93701 0.82208 0.49365 0.0
C1311 C 0.80186 0.70708 0.52575 0.0
C1312 C 0.94984 0.74512 0.5355 0.0
C1313 C 0.96228 0.77659 0.54875 0.0
C1314 C 0.91767 0.73898 0.52322 0.0
C1315 C 0.89788 0.76525 0.5241 0.0
C1316 C 0.90872 0.79542 0.53796 0.0
C1317 C 0.9405 0.80051 0.55013 0.0
C1318 C 0.90637 0.70584 0.50885 0.0
C1319 C 0.88854 0.8242 0.53941 0.0
H1320 H 0.87587 0.82229 0.473 0.0
H1321 H 0.76173 0.72676 0.50036 0.0
H1322 H 0.95014 0.84576 0.5046 0.0
H1323 H 0.95271 0.80172 0.49429 0.0
H1324 H 0.94651 0.8406 0.48119 0.0
H1325 H 0.76646 0.68484 0.5234 0.0
H1326 H 0.81779 0.68718 0.52766 0.0
H1327 H 0.80568 0.7252 0.53805 0.0
H1328 H 0.96617 0.72621 0.53437 0.0
H1329 H 0.94949 0.82469 0.56037 0.0
H1330 H 0.92017 0.72299 0.49634 0.0
H1331 H 0.87047 0.68593 0.50719 0.0
H1332 H 0.91951 0.68368 0.51144 0.0
H1333 H 0.89877 0.84682 0.52811 0.0
H1334 H 0.8983 0.8439 0.55158 0.0
H1335 H 0.85244 0.80411 0.53906 0.0
C1336 C 0.20336 0.95027 0.86963 0.0
C1337 C 0.18568 0.96563 0.88233 0.0
C1338 C 0.17635 0.91749 0.85774 0.0
C1339 C 0.13058 0.89993 0.85843 0.0
C1340 C 0.11242 0.9138 0.87172 0.0
C1341 C 0.1401 0.94624 0.88353 0.0
C1342 C 0.19695 0.90309 0.84396 0.0
C1343 C 0.06379 0.896 0.87295 0.0
C1344 C 0.06152 0.86051 0.81743 0.0
C1345 C 0.03814 0.81506 0.81988 0.0
C1346 C 0.09302 0.88825 0.82951 0.0
C1347 C 0.10179 0.87026 0.8444 0.0
C1348 C 0.08025 0.82431 0.84646 0.0
C1349 C 0.04857 0.79725 0.83421 0.0
C1350 C 0.11525 0.93705 0.82676 0.0
C1351 C 0.08911 0.80382 0.86203 0.0
H1352 H 0.2384 0.9647 0.86862 0.0
H1353 H 0.12591 0.95753 0.89332 0.0
H1354 H 0.17988 0.86692 0.84317 0.0
H1355 H 0.19379 0.91532 0.83104 0.0
H1356 H 0.23213 0.91552 0.84654 0.0
H1357 H 0.05462 0.90785 0.88475 0.0
H1358 H 0.05247 0.90603 0.86126 0.0
H1359 H 0.04617 0.85979 0.87319 0.0
H1360 H 0.05408 0.87473 0.80637 0.0
H1361 H 0.03083 0.76225 0.83625 0.0
H1362 H 0.15119 0.95175 0.82759 0.0
H1363 H 0.10527 0.95199 0.83721 0.0
H1364 H 0.107 0.94571 0.81395 0.0
H1365 H 0.12475 0.81839 0.86411 0.0
H1366 H 0.07429 0.7679 0.86055 0.0
H1367 H 0.07543 0.81036 0.87392 0.0
loop_
_geom_bond_atom_site_label_1
_geom_bond_atom_site_label_2
_geom_bond_distance
_geom_bond_site_symmetry_2
_ccdc_geom_bond_type
Co0 O3 1.970 . S
Co0 N17 1.989 . S
Co0 O25 1.967 . S
Co0 O32 1.920 . S
Co1 O4 1.966 . S
Co1 N10 2.022 . S
Co1 N18 1.993 . S
Co1 O26 1.941 . S
C2 O3 1.258 . S
C2 O4 1.263 . S
O3 Co0 1.970 . S
O3 C2 1.258 . S
O4 Co1 1.966 . S
O4 C2 1.263 . S
C5 O6 1.235 . S
C5 O32 1.289 . S
O6 C5 1.235 . S
C7 C9 1.400 . S
C7 N10 1.351 . S
C7 C12 1.501 . S
C8 C9 1.387 . S
C8 N11 1.341 . S
C9 C7 1.400 . S
C9 C8 1.387 . S
N10 Co1 2.022 . S
N10 C7 1.351 . S
N10 N11 1.365 . S
N11 C8 1.341 . S
N11 N10 1.365 . S
N11 H31 0.862 . S
C12 C7 1.501 . S
C12 H13 0.961 . S
C12 H14 0.961 . S
C12 H15 0.960 . S
H13 C12 0.961 . S
H14 C12 0.961 . S
H15 C12 0.960 . S
C16 N17 1.342 . S
C16 C20 1.401 . S
C16 C21 1.499 . S
N17 Co0 1.989 . S
N17 C16 1.342 . S
N17 N18 1.388 . S
N18 Co1 1.993 . S
N18 N17 1.388 . S
N18 C19 1.346 . S
C19 N18 1.346 . S
C19 C20 1.396 . S
C19 C29 1.510 . S
C20 C16 1.401 . S
C20 C19 1.396 . S
C21 C16 1.499 . S
C21 H22 0.959 . S
C21 H23 0.960 . S
C21 H24 0.961 . S
H22 C21 0.959 . S
H23 C21 0.960 . S
H24 C21 0.961 . S
O25 Co0 1.967 . S
O25 C33 1.258 . S
O26 Co1 1.941 . S
O26 C33 1.266 . S
H27 C29 0.959 . S
H28 C29 0.961 . S
C29 C19 1.510 . S
C29 H27 0.959 . S
C29 H28 0.961 . S
C29 H30 0.960 . S
H30 C29 0.960 . S
H31 N11 0.862 . S
O32 Co0 1.920 . S
O32 C5 1.289 . S
C33 O25 1.258 . S
C33 O26 1.266 . S
Co34 O37 1.970 . S
Co34 N51 1.989 . S
Co34 O59 1.967 . S
Co34 O66 1.920 . S
Co35 O38 1.966 . S
Co35 N44 2.022 . S
Co35 N52 1.993 . S
Co35 O60 1.941 . S
C36 O37 1.258 . S
C36 O38 1.263 . S
O37 Co34 1.970 . S
O37 C36 1.258 . S
O38 Co35 1.966 . S
O38 C36 1.263 . S
C39 O40 1.235 1_655 S
C39 O66 1.289 . S
O40 C39 1.235 1_455 S
C41 C43 1.400 . S
C41 N44 1.351 . S
C41 C46 1.501 . S
C42 C43 1.387 . S
C42 N45 1.341 . S
C43 C41 1.400 . S
C43 C42 1.387 . S
N44 Co35 2.022 . S
N44 C41 1.351 . S
N44 N45 1.365 . S
N45 C42 1.341 . S
N45 N44 1.365 . S
N45 H65 0.862 . S
C46 C41 1.501 . S
C46 H47 0.961 . S
C46 H48 0.961 1_655 S
C46 H49 0.966 1_655 S
H47 C46 0.961 . S
H48 C46 0.961 1_455 S
H49 C46 0.966 1_455 S
C50 N51 1.342 . S
C50 C54 1.401 . S
C50 C55 1.499 . S
N51 Co34 1.989 . S
N51 C50 1.342 . S
N51 N52 1.388 . S
N52 Co35 1.993 . S
N52 N51 1.388 . S
N52 C53 1.346 . S
C53 N52 1.346 . S
C53 C54 1.396 . S
C53 C63 1.510 . S
C54 C50 1.401 . S
C54 C53 1.396 . S
C55 C50 1.499 . S
C55 H56 0.959 . S
C55 H57 0.960 . S
C55 H58 0.961 . S
H56 C55 0.959 . S
H57 C55 0.960 . S
H58 C55 0.961 . S
O59 Co34 1.967 . S
O59 C67 1.258 . S
O60 Co35 1.941 . S
O60 C67 1.266 . S
H61 C63 0.959 . S
H62 C63 0.961 . S
C63 C53 1.510 . S
C63 H61 0.959 . S
C63 H62 0.961 . S
C63 H64 0.960 . S
H64 C63 0.960 . S
H65 N45 0.862 . S
O66 Co34 1.920 . S
O66 C39 1.289 . S
C67 O59 1.258 . S
C67 O60 1.266 . S
Co68 O71 1.970 . S
Co68 N85 1.989 . S
Co68 O93 1.967 . S
Co68 O100 1.920 . S
Co69 O72 1.966 . S
Co69 N78 2.022 . S
Co69 N86 1.993 . S
Co69 O94 1.941 . S
C70 O71 1.258 . S
C70 O72 1.263 . S
O71 Co68 1.970 . S
O71 C70 1.258 . S
O72 Co69 1.966 . S
O72 C70 1.263 . S
C73 O74 1.235 1_565 S
C73 O100 1.289 . S
O74 C73 1.235 1_545 S
C75 C77 1.400 . S
C75 N78 1.351 . S
C75 C80 1.501 . S
C76 C77 1.387 . S
C76 N79 1.341 . S
C77 C75 1.400 . S
C77 C76 1.387 . S
N78 Co69 2.022 . S
N78 C75 1.351 . S
N78 N79 1.365 . S
N79 C76 1.341 . S
N79 N78 1.365 . S
N79 H99 0.862 . S
C80 C75 1.501 . S
C80 H81 0.961 . S
C80 H82 0.961 1_565 S
C80 H83 0.950 1_565 S
H81 C80 0.961 . S
H82 C80 0.961 1_545 S
H83 C80 0.950 1_545 S
C84 N85 1.342 . S
C84 C88 1.401 . S
C84 C89 1.499 . S
N85 Co68 1.989 . S
N85 C84 1.342 . S
N85 N86 1.388 . S
N86 Co69 1.993 . S
N86 N85 1.388 . S
N86 C87 1.346 . S
C87 N86 1.346 . S
C87 C88 1.396 . S
C87 C97 1.510 . S
C88 C84 1.401 . S
C88 C87 1.396 . S
C89 C84 1.499 . S
C89 H90 0.959 . S
C89 H91 0.960 . S
C89 H92 0.961 . S
H90 C89 0.959 . S
H91 C89 0.960 . S
H92 C89 0.961 . S
O93 Co68 1.967 . S
O93 C101 1.258 . S
O94 Co69 1.941 . S
O94 C101 1.266 . S
H95 C97 0.959 . S
H96 C97 0.961 . S
C97 C87 1.510 . S
C97 H95 0.959 . S
C97 H96 0.961 . S
C97 H98 0.960 . S
H98 C97 0.960 . S
H99 N79 0.862 . S
O100 Co68 1.920 . S
O100 C73 1.289 . S
C101 O93 1.258 . S
C101 O94 1.266 . S
Co102 O105 1.970 . S
Co102 N119 1.989 . S
Co102 O127 1.967 . S
Co102 O134 1.920 . S
Co103 O106 1.966 . S
Co103 N112 2.022 . S
Co103 N120 1.993 . S
Co103 O128 1.941 . S
C104 O105 1.258 . S
C104 O106 1.263 . S
O105 Co102 1.970 . S
O105 C104 1.258 . S
O106 Co103 1.966 . S
O106 C104 1.263 . S
C107 O108 1.235 . S
C107 O134 1.289 . S
O108 C107 1.235 . S
C109 C111 1.400 . S
C109 N112 1.351 . S
C109 C114 1.501 . S
C110 C111 1.387 . S
C110 N113 1.341 . S
C111 C109 1.400 . S
C111 C110 1.387 . S
N112 Co103 2.022 . S
N112 C109 1.351 . S
N112 N113 1.365 . S
N113 C110 1.341 . S
N113 N112 1.365 . S
N113 H133 0.862 . S
C114 C109 1.501 . S
C114 H115 0.961 . S
C114 H116 0.961 . S
C114 H117 0.960 . S
H115 C114 0.961 . S
H116 C114 0.961 . S
H117 C114 0.960 . S
C118 N119 1.342 . S
C118 C122 1.401 . S
C118 C123 1.499 . S
N119 Co102 1.989 . S
N119 C118 1.342 . S
N119 N120 1.388 . S
N120 Co103 1.993 . S
N120 N119 1.388 . S
N120 C121 1.346 . S
C121 N120 1.346 . S
C121 C122 1.396 . S
C121 C131 1.510 . S
C122 C118 1.401 . S
C122 C121 1.396 . S
C123 C118 1.499 . S
C123 H124 0.959 . S
C123 H125 0.960 . S
C123 H126 0.961 . S
H124 C123 0.959 . S
H125 C123 0.960 . S
H126 C123 0.961 . S
O127 Co102 1.967 . S
O127 C135 1.258 . S
O128 Co103 1.941 . S
O128 C135 1.266 . S
H129 C131 0.959 . S
H130 C131 0.961 . S
C131 C121 1.510 . S
C131 H129 0.959 . S
C131 H130 0.961 . S
C131 H132 0.960 . S
H132 C131 0.960 . S
H133 N113 0.862 . S
O134 Co102 1.920 . S
O134 C107 1.289 . S
C135 O127 1.258 . S
C135 O128 1.266 . S
Co136 O139 1.970 . S
Co136 N153 1.989 . S
Co136 O161 1.967 . S
Co136 O168 1.920 . S
Co137 O140 1.966 . S
Co137 N146 2.022 . S
Co137 N154 1.993 . S
Co137 O162 1.941 . S
C138 O139 1.258 . S
C138 O140 1.263 . S
O139 Co136 1.970 . S
O139 C138 1.258 . S
O140 Co137 1.966 . S
O140 C138 1.263 . S
C141 O142 1.235 1_455 S
C141 O168 1.289 . S
O142 C141 1.235 1_655 S
C143 C145 1.400 . S
C143 N146 1.351 . S
C143 C148 1.501 . S
C144 C145 1.387 . S
C144 N147 1.341 . S
C145 C143 1.400 . S
C145 C144 1.387 . S
N146 Co137 2.022 . S
N146 C143 1.351 . S
N146 N147 1.365 . S
N147 C144 1.341 . S
N147 N146 1.365 . S
N147 H167 0.862 . S
C148 C143 1.501 . S
C148 H149 0.961 . S
C148 H150 0.961 1_455 S
C148 H151 0.966 1_455 S
H149 C148 0.961 . S
H150 C148 0.961 1_655 S
H151 C148 0.966 1_655 S
C152 N153 1.342 . S
C152 C156 1.401 . S
C152 C157 1.499 . S
N153 Co136 1.989 . S
N153 C152 1.342 . S
N153 N154 1.388 . S
N154 Co137 1.993 . S
N154 N153 1.388 . S
N154 C155 1.346 . S
C155 N154 1.346 . S
C155 C156 1.396 . S
C155 C165 1.510 . S
C156 C152 1.401 . S
C156 C155 1.396 . S
C157 C152 1.499 . S
C157 H158 0.959 . S
C157 H159 0.960 . S
C157 H160 0.961 . S
H158 C157 0.959 . S
H159 C157 0.960 . S
H160 C157 0.961 . S
O161 Co136 1.967 . S
O161 C169 1.258 . S
O162 Co137 1.941 . S
O162 C169 1.266 . S
H163 C165 0.959 . S
H164 C165 0.961 . S
C165 C155 1.510 . S
C165 H163 0.959 . S
C165 H164 0.961 . S
C165 H166 0.960 . S
H166 C165 0.960 . S
H167 N147 0.862 . S
O168 Co136 1.920 . S
O168 C141 1.289 . S
C169 O161 1.258 . S
C169 O162 1.266 . S
Co170 O173 1.970 . S
Co170 N187 1.989 . S
Co170 O195 1.967 . S
Co170 O202 1.920 . S
Co171 O174 1.966 . S
Co171 N180 2.022 . S
Co171 N188 1.993 . S
Co171 O196 1.941 . S
C172 O173 1.258 . S
C172 O174 1.263 . S
O173 Co170 1.970 . S
O173 C172 1.258 . S
O174 Co171 1.966 . S
O174 C172 1.263 . S
C175 O176 1.235 1_545 S
C175 O202 1.289 . S
O176 C175 1.235 1_565 S
C177 C179 1.400 . S
C177 N180 1.351 . S
C177 C182 1.501 . S
C178 C179 1.387 . S
C178 N181 1.341 . S
C179 C177 1.400 . S
C179 C178 1.387 . S
N180 Co171 2.022 . S
N180 C177 1.351 . S
N180 N181 1.365 . S
N181 C178 1.341 . S
N181 N180 1.365 . S
N181 H201 0.862 . S
C182 C177 1.501 . S
C182 H183 0.961 . S
C182 H184 0.961 1_545 S
C182 H185 0.950 1_545 S
H183 C182 0.961 . S
H184 C182 0.961 1_565 S
H185 C182 0.950 1_565 S
C186 N187 1.342 . S
C186 C190 1.401 . S
C186 C191 1.499 . S
N187 Co170 1.989 . S
N187 C186 1.342 . S
N187 N188 1.388 . S
N188 Co171 1.993 . S
N188 N187 1.388 . S
N188 C189 1.346 . S
C189 N188 1.346 . S
C189 C190 1.396 . S
C189 C199 1.510 . S
C190 C186 1.401 . S
C190 C189 1.396 . S
C191 C186 1.499 . S
C191 H192 0.959 . S
C191 H193 0.960 . S
C191 H194 0.961 . S
H192 C191 0.959 . S
H193 C191 0.960 . S
H194 C191 0.961 . S
O195 Co170 1.967 . S
O195 C203 1.258 . S
O196 Co171 1.941 . S
O196 C203 1.266 . S
H197 C199 0.959 . S
H198 C199 0.961 . S
C199 C189 1.510 . S
C199 H197 0.959 . S
C199 H198 0.961 . S
C199 H200 0.960 . S
H200 C199 0.960 . S
H201 N181 0.862 . S
O202 Co170 1.920 . S
O202 C175 1.289 . S
C203 O195 1.258 . S
C203 O196 1.266 . S
Co204 O207 1.970 . S
Co204 N221 1.989 . S
Co204 O229 1.967 . S
Co204 O236 1.920 . S
Co205 O208 1.966 . S
Co205 N214 2.022 . S
Co205 N222 1.993 . S
Co205 O230 1.941 . S
C206 O207 1.258 . S
C206 O208 1.263 . S
O207 Co204 1.970 . S
O207 C206 1.258 . S
O208 Co205 1.966 . S
O208 C206 1.263 . S
C209 O210 1.235 . S
C209 O236 1.289 . S
O210 C209 1.235 . S
C211 C213 1.400 . S
C211 N214 1.351 . S
C211 C216 1.501 . S
C212 C213 1.387 . S
C212 N215 1.341 . S
C213 C211 1.400 . S
C213 C212 1.387 . S
N214 Co205 2.022 . S
N214 C211 1.351 . S
N214 N215 1.365 . S
N215 C212 1.341 . S
N215 N214 1.365 . S
N215 H235 0.862 . S
C216 C211 1.501 . S
C216 H217 0.961 . S
C216 H218 0.961 . S
C216 H219 0.960 . S
H217 C216 0.961 . S
H218 C216 0.961 . S
H219 C216 0.960 . S
C220 N221 1.342 . S
C220 C224 1.401 . S
C220 C225 1.499 . S
N221 Co204 1.989 . S
N221 C220 1.342 . S
N221 N222 1.388 . S
N222 Co205 1.993 . S
N222 N221 1.388 . S
N222 C223 1.346 . S
C223 N222 1.346 . S
C223 C224 1.396 . S
C223 C233 1.510 . S
C224 C220 1.401 . S
C224 C223 1.396 . S
C225 C220 1.499 . S
C225 H226 0.959 . S
C225 H227 0.960 . S
C225 H228 0.961 . S
H226 C225 0.959 . S
H227 C225 0.960 . S
H228 C225 0.961 . S
O229 Co204 1.967 . S
O229 C237 1.258 . S
O230 Co205 1.941 . S
O230 C237 1.266 . S
H231 C233 0.959 . S
H232 C233 0.961 . S
C233 C223 1.510 . S
C233 H231 0.959 . S
C233 H232 0.961 . S
C233 H234 0.960 . S
H234 C233 0.960 . S
H235 N215 0.862 . S
O236 Co204 1.920 . S
O236 C209 1.289 . S
C237 O229 1.258 . S
C237 O230 1.266 . S
Co238 O241 1.970 . S
Co238 N255 1.989 . S
Co238 O263 1.967 . S
Co238 O270 1.920 . S
Co239 O242 1.966 . S
Co239 N248 2.022 . S
Co239 N256 1.993 . S
Co239 O264 1.941 . S
C240 O241 1.258 . S
C240 O242 1.263 . S
O241 Co238 1.970 . S
O241 C240 1.258 . S
O242 Co239 1.966 . S
O242 C240 1.263 . S
C243 O244 1.235 1_655 S
C243 O270 1.289 . S
O244 C243 1.235 1_455 S
C245 C247 1.400 . S
C245 N248 1.351 . S
C245 C250 1.501 . S
C246 C247 1.387 . S
C246 N249 1.341 . S
C247 C245 1.400 . S
C247 C246 1.387 . S
N248 Co239 2.022 . S
N248 C245 1.351 . S
N248 N249 1.365 . S
N249 C246 1.341 . S
N249 N248 1.365 . S
N249 H269 0.862 . S
C250 C245 1.501 . S
C250 H251 0.961 . S
C250 H252 0.961 1_655 S
C250 H253 0.950 1_655 S
H251 C250 0.961 . S
H252 C250 0.961 1_455 S
H253 C250 0.950 1_455 S
C254 N255 1.342 . S
C254 C258 1.401 . S
C254 C259 1.499 . S
N255 Co238 1.989 . S
N255 C254 1.342 . S
N255 N256 1.388 . S
N256 Co239 1.993 . S
N256 N255 1.388 . S
N256 C257 1.346 . S
C257 N256 1.346 . S
C257 C258 1.396 . S
C257 C267 1.510 . S
C258 C254 1.401 . S
C258 C257 1.396 . S
C259 C254 1.499 . S
C259 H260 0.959 . S
C259 H261 0.960 . S
C259 H262 0.961 . S
H260 C259 0.959 . S
H261 C259 0.960 . S
H262 C259 0.961 . S
O263 Co238 1.967 . S
O263 C271 1.258 . S
O264 Co239 1.941 . S
O264 C271 1.266 . S
H265 C267 0.959 . S
H266 C267 0.961 . S
C267 C257 1.510 . S
C267 H265 0.959 . S
C267 H266 0.961 . S
C267 H268 0.960 . S
H268 C267 0.960 . S
H269 N249 0.862 . S
O270 Co238 1.920 . S
O270 C243 1.289 . S
C271 O263 1.258 . S
C271 O264 1.266 . S
Co272 O275 1.970 . S
Co272 N289 1.989 . S
Co272 O297 1.967 . S
Co272 O304 1.920 . S
Co273 O276 1.966 . S
Co273 N282 2.022 . S
Co273 N290 1.993 . S
Co273 O298 1.941 . S
C274 O275 1.258 . S
C274 O276 1.263 . S
O275 Co272 1.970 . S
O275 C274 1.258 . S
O276 Co273 1.966 . S
O276 C274 1.263 . S
C277 O278 1.235 1_565 S
C277 O304 1.289 . S
O278 C277 1.235 1_545 S
C279 C281 1.400 . S
C279 N282 1.351 . S
C279 C284 1.501 . S
C280 C281 1.387 . S
C280 N283 1.341 . S
C281 C279 1.400 . S
C281 C280 1.387 . S
N282 Co273 2.022 . S
N282 C279 1.351 . S
N282 N283 1.365 . S
N283 C280 1.341 . S
N283 N282 1.365 . S
N283 H303 0.862 . S
C284 C279 1.501 . S
C284 H285 0.961 . S
C284 H286 0.961 1_565 S
C284 H287 0.966 1_565 S
H285 C284 0.961 . S
H286 C284 0.961 1_545 S
H287 C284 0.966 1_545 S
C288 N289 1.342 . S
C288 C292 1.401 . S
C288 C293 1.499 . S
N289 Co272 1.989 . S
N289 C288 1.342 . S
N289 N290 1.388 . S
N290 Co273 1.993 . S
N290 N289 1.388 . S
N290 C291 1.346 . S
C291 N290 1.346 . S
C291 C292 1.396 . S
C291 C301 1.510 . S
C292 C288 1.401 . S
C292 C291 1.396 . S
C293 C288 1.499 . S
C293 H294 0.959 . S
C293 H295 0.960 . S
C293 H296 0.961 . S
H294 C293 0.959 . S
H295 C293 0.960 . S
H296 C293 0.961 . S
O297 Co272 1.967 . S
O297 C305 1.258 . S
O298 Co273 1.941 . S
O298 C305 1.266 . S
H299 C301 0.959 . S
H300 C301 0.961 . S
C301 C291 1.510 . S
C301 H299 0.959 . S
C301 H300 0.961 . S
C301 H302 0.960 . S
H302 C301 0.960 . S
H303 N283 0.862 . S
O304 Co272 1.920 . S
O304 C277 1.289 . S
C305 O297 1.258 . S
C305 O298 1.266 . S
Co306 O309 1.970 . S
Co306 N323 1.989 . S
Co306 O331 1.967 . S
Co306 O338 1.920 . S
Co307 O310 1.966 . S
Co307 N316 2.022 . S
Co307 N324 1.993 . S
Co307 O332 1.941 . S
C308 O309 1.258 . S
C308 O310 1.263 . S
O309 Co306 1.970 . S
O309 C308 1.258 . S
O310 Co307 1.966 . S
O310 C308 1.263 . S
C311 O312 1.235 . S
C311 O338 1.289 . S
O312 C311 1.235 . S
C313 C315 1.400 . S
C313 N316 1.351 . S
C313 C318 1.501 . S
C314 C315 1.387 . S
C314 N317 1.341 . S
C315 C313 1.400 . S
C315 C314 1.387 . S
N316 Co307 2.022 . S
N316 C313 1.351 . S
N316 N317 1.365 . S
N317 C314 1.341 . S
N317 N316 1.365 . S
N317 H337 0.862 . S
C318 C313 1.501 . S
C318 H319 0.961 . S
C318 H320 0.961 . S
C318 H321 0.960 . S
H319 C318 0.961 . S
H320 C318 0.961 . S
H321 C318 0.960 . S
C322 N323 1.342 . S
C322 C326 1.401 . S
C322 C327 1.499 . S
N323 Co306 1.989 . S
N323 C322 1.342 . S
N323 N324 1.388 . S
N324 Co307 1.993 . S
N324 N323 1.388 . S
N324 C325 1.346 . S
C325 N324 1.346 . S
C325 C326 1.396 . S
C325 C335 1.510 . S
C326 C322 1.401 . S
C326 C325 1.396 . S
C327 C322 1.499 . S
C327 H328 0.959 . S
C327 H329 0.960 . S
C327 H330 0.961 . S
H328 C327 0.959 . S
H329 C327 0.960 . S
H330 C327 0.961 . S
O331 Co306 1.967 . S
O331 C339 1.258 . S
O332 Co307 1.941 . S
O332 C339 1.266 . S
H333 C335 0.959 . S
H334 C335 0.961 . S
C335 C325 1.510 . S
C335 H333 0.959 . S
C335 H334 0.961 . S
C335 H336 0.960 . S
H336 C335 0.960 . S
H337 N317 0.862 . S
O338 Co306 1.920 . S
O338 C311 1.289 . S
C339 O331 1.258 . S
C339 O332 1.266 . S
Co340 O343 1.970 . S
Co340 N357 1.989 . S
Co340 O365 1.967 . S
Co340 O372 1.920 . S
Co341 O344 1.966 . S
Co341 N350 2.022 . S
Co341 N358 1.993 . S
Co341 O366 1.941 . S
C342 O343 1.258 . S
C342 O344 1.263 . S
O343 Co340 1.970 . S
O343 C342 1.258 . S
O344 Co341 1.966 . S
O344 C342 1.263 . S
C345 O346 1.235 1_455 S
C345 O372 1.289 . S
O346 C345 1.235 1_655 S
C347 C349 1.400 . S
C347 N350 1.351 . S
C347 C352 1.501 . S
C348 C349 1.387 . S
C348 N351 1.341 . S
C349 C347 1.400 . S
C349 C348 1.387 . S
N350 Co341 2.022 . S
N350 C347 1.351 . S
N350 N351 1.365 . S
N351 C348 1.341 . S
N351 N350 1.365 . S
N351 H371 0.862 . S
C352 C347 1.501 . S
C352 H353 0.961 . S
C352 H354 0.961 1_455 S
C352 H355 0.950 1_455 S
H353 C352 0.961 . S
H354 C352 0.961 1_655 S
H355 C352 0.950 1_655 S
C356 N357 1.342 . S
C356 C360 1.401 . S
C356 C361 1.499 . S
N357 Co340 1.989 . S
N357 C356 1.342 . S
N357 N358 1.388 . S
N358 Co341 1.993 . S
N358 N357 1.388 . S
N358 C359 1.346 . S
C359 N358 1.346 . S
C359 C360 1.396 . S
C359 C369 1.510 . S
C360 C356 1.401 . S
C360 C359 1.396 . S
C361 C356 1.499 . S
C361 H362 0.959 . S
C361 H363 0.960 . S
C361 H364 0.961 . S
H362 C361 0.959 . S
H363 C361 0.960 . S
H364 C361 0.961 . S
O365 Co340 1.967 . S
O365 C373 1.258 . S
O366 Co341 1.941 . S
O366 C373 1.266 . S
H367 C369 0.959 . S
H368 C369 0.961 . S
C369 C359 1.510 . S
C369 H367 0.959 . S
C369 H368 0.961 . S
C369 H370 0.960 . S
H370 C369 0.960 . S
H371 N351 0.862 . S
O372 Co340 1.920 . S
O372 C345 1.289 . S
C373 O365 1.258 . S
C373 O366 1.266 . S
Co374 O377 1.970 . S
Co374 N391 1.989 . S
Co374 O399 1.967 . S
Co374 O406 1.920 . S
Co375 O378 1.966 . S
Co375 N384 2.022 . S
Co375 N392 1.993 . S
Co375 O400 1.941 . S
C376 O377 1.258 . S
C376 O378 1.263 . S
O377 Co374 1.970 . S
O377 C376 1.258 . S
O378 Co375 1.966 . S
O378 C376 1.263 . S
C379 O380 1.235 1_545 S
C379 O406 1.289 . S
O380 C379 1.235 1_565 S
C381 C383 1.400 . S
C381 N384 1.351 . S
C381 C386 1.501 . S
C382 C383 1.387 . S
C382 N385 1.341 . S
C383 C381 1.400 . S
C383 C382 1.387 . S
N384 Co375 2.022 . S
N384 C381 1.351 . S
N384 N385 1.365 . S
N385 C382 1.341 . S
N385 N384 1.365 . S
N385 H405 0.862 . S
C386 C381 1.501 . S
C386 H387 0.961 . S
C386 H388 0.961 1_545 S
C386 H389 0.966 1_545 S
H387 C386 0.961 . S
H388 C386 0.961 1_565 S
H389 C386 0.966 1_565 S
C390 N391 1.342 . S
C390 C394 1.401 . S
C390 C395 1.499 . S
N391 Co374 1.989 . S
N391 C390 1.342 . S
N391 N392 1.388 . S
N392 Co375 1.993 . S
N392 N391 1.388 . S
N392 C393 1.346 . S
C393 N392 1.346 . S
C393 C394 1.396 . S
C393 C403 1.510 . S
C394 C390 1.401 . S
C394 C393 1.396 . S
C395 C390 1.499 . S
C395 H396 0.959 . S
C395 H397 0.960 . S
C395 H398 0.961 . S
H396 C395 0.959 . S
H397 C395 0.960 . S
H398 C395 0.961 . S
O399 Co374 1.967 . S
O399 C407 1.258 . S
O400 Co375 1.941 . S
O400 C407 1.266 . S
H401 C403 0.959 . S
H402 C403 0.961 . S
C403 C393 1.510 . S
C403 H401 0.959 . S
C403 H402 0.961 . S
C403 H404 0.960 . S
H404 C403 0.960 . S
H405 N385 0.862 . S
O406 Co374 1.920 . S
O406 C379 1.289 . S
C407 O399 1.258 . S
C407 O400 1.266 . S
C408 C409 1.391 . S
C408 C410 1.394 . S
C408 H424 0.931 . S
C409 C408 1.391 . S
C409 C413 1.376 . S
C410 C408 1.394 . S
C410 C411 1.369 . S
C410 C414 1.531 . S
C411 C410 1.369 . S
C411 C412 1.410 . S
C411 C419 1.503 . S
C412 C411 1.410 . S
C412 C413 1.392 . S
C412 C415 1.511 . S
C413 C409 1.376 . S
C413 C412 1.392 . S
C413 H425 0.929 . S
C414 C410 1.531 . S
C414 H426 0.960 . S
C414 H427 0.962 . S
C414 H428 0.960 . S
C415 C412 1.511 . S
C415 H429 0.961 . S
C415 H430 0.961 . S
C415 H431 0.961 . S
C416 C417 1.370 . S
C416 C418 1.363 . S
C416 H432 0.931 . S
C417 C416 1.370 . S
C417 C421 1.408 . S
C418 C416 1.363 . S
C418 C419 1.370 . S
C418 C422 1.524 . S
C419 C411 1.503 . S
C419 C418 1.370 . S
C419 C420 1.403 . S
C420 C419 1.403 . S
C420 C421 1.404 . S
C420 C423 1.539 . S
C421 C417 1.408 . S
C421 C420 1.404 . S
C421 H433 0.930 . S
C422 C418 1.524 . S
C422 H434 0.956 . S
C422 H435 0.961 . S
C422 H436 0.961 . S
C423 C420 1.539 . S
C423 H437 0.958 . S
C423 H438 0.961 . S
C423 H439 0.960 . S
H424 C408 0.931 . S
H425 C413 0.929 . S
H426 C414 0.960 . S
H427 C414 0.962 . S
H428 C414 0.960 . S
H429 C415 0.961 . S
H430 C415 0.961 . S
H431 C415 0.961 . S
H432 C416 0.931 . S
H433 C421 0.930 . S
H434 C422 0.956 . S
H435 C422 0.961 . S
H436 C422 0.961 . S
H437 C423 0.958 . S
H438 C423 0.961 . S
H439 C423 0.960 . S
C440 C441 1.391 . S
C440 C442 1.394 1_455 S
C440 H456 0.931 1_455 S
C441 C440 1.391 . S
C441 C445 1.376 . S
C442 C440 1.394 1_655 S
C442 C443 1.369 1_655 S
C442 C446 1.531 . S
C443 C442 1.369 1_455 S
C443 C444 1.410 . S
C443 C451 1.503 1_455 S
C444 C443 1.410 . S
C444 C445 1.392 . S
C444 C447 1.511 . S
C445 C441 1.376 . S
C445 C444 1.392 . S
C445 H457 0.929 . S
C446 C442 1.531 . S
C446 H458 0.960 . S
C446 H459 0.962 . S
C446 H460 0.960 . S
C447 C444 1.511 . S
C447 H461 0.961 . S
C447 H462 0.961 . S
C447 H463 0.961 . S
C448 C449 1.370 . S
C448 C450 1.363 . S
C448 H464 0.931 . S
C449 C448 1.370 . S
C449 C453 1.408 . S
C450 C448 1.363 . S
C450 C451 1.370 . S
C450 C454 1.524 . S
C451 C443 1.503 1_655 S
C451 C450 1.370 . S
C451 C452 1.403 1_655 S
C452 C451 1.403 1_455 S
C452 C453 1.404 1_455 S
C452 C455 1.539 . S
C453 C449 1.408 . S
C453 C452 1.404 1_655 S
C453 H465 0.930 1_655 S
C454 C450 1.524 . S
C454 H466 0.956 . S
C454 H467 0.961 . S
C454 H468 0.961 . S
C455 C452 1.539 . S
C455 H469 0.958 . S
C455 H470 0.961 . S
C455 H471 0.960 . S
H456 C440 0.931 1_655 S
H457 C445 0.929 . S
H458 C446 0.960 . S
H459 C446 0.962 . S
H460 C446 0.960 . S
H461 C447 0.961 . S
H462 C447 0.961 . S
H463 C447 0.961 . S
H464 C448 0.931 . S
H465 C453 0.930 1_455 S
H466 C454 0.956 . S
H467 C454 0.961 . S
H468 C454 0.961 . S
H469 C455 0.958 . S
H470 C455 0.961 . S
H471 C455 0.960 . S
C472 C473 1.391 1_565 S
C472 C474 1.394 . S
C472 H488 0.931 . S
C473 C472 1.391 1_545 S
C473 C477 1.376 . S
C474 C472 1.394 . S
C474 C475 1.369 1_565 S
C474 C478 1.531 . S
C475 C474 1.369 1_545 S
C475 C476 1.410 . S
C475 C483 1.503 1_545 S
C476 C475 1.410 . S
C476 C477 1.392 . S
C476 C479 1.511 . S
C477 C473 1.376 . S
C477 C476 1.392 . S
C477 H489 0.929 . S
C478 C474 1.531 . S
C478 H490 0.960 . S
C478 H491 0.962 . S
C478 H492 0.960 . S
C479 C476 1.511 . S
C479 H493 0.961 . S
C479 H494 0.961 . S
C479 H495 0.961 . S
C480 C481 1.370 . S
C480 C482 1.363 . S
C480 H496 0.931 . S
C481 C480 1.370 . S
C481 C485 1.408 . S
C482 C480 1.363 . S
C482 C483 1.370 . S
C482 C486 1.524 . S
C483 C475 1.503 1_565 S
C483 C482 1.370 . S
C483 C484 1.403 . S
C484 C483 1.403 . S
C484 C485 1.404 . S
C484 C487 1.539 1_565 S
C485 C481 1.408 . S
C485 C484 1.404 . S
C485 H497 0.930 . S
C486 C482 1.524 . S
C486 H498 0.956 . S
C486 H499 0.961 1_565 S
C486 H500 0.961 . S
C487 C484 1.539 1_545 S
C487 H501 0.958 1_545 S
C487 H502 0.961 . S
C487 H503 0.960 . S
H488 C472 0.931 . S
H489 C477 0.929 . S
H490 C478 0.960 . S
H491 C478 0.962 . S
H492 C478 0.960 . S
H493 C479 0.961 . S
H494 C479 0.961 . S
H495 C479 0.961 . S
H496 C480 0.931 . S
H497 C485 0.930 . S
H498 C486 0.956 . S
H499 C486 0.961 1_545 S
H500 C486 0.961 . S
H501 C487 0.958 1_565 S
H502 C487 0.961 . S
H503 C487 0.960 . S
C504 C505 1.391 . S
C504 C506 1.394 . S
C504 H520 0.931 . S
C505 C504 1.391 . S
C505 C509 1.376 . S
C506 C504 1.394 . S
C506 C507 1.369 . S
C506 C510 1.531 . S
C507 C506 1.369 . S
C507 C508 1.410 . S
C507 C515 1.503 . S
C508 C507 1.410 . S
C508 C509 1.392 . S
C508 C511 1.511 . S
C509 C505 1.376 . S
C509 C508 1.392 . S
C509 H521 0.929 . S
C510 C506 1.531 . S
C510 H522 0.960 . S
C510 H523 0.962 . S
C510 H524 0.960 . S
C511 C508 1.511 . S
C511 H525 0.961 . S
C511 H526 0.961 . S
C511 H527 0.961 . S
C512 C513 1.370 . S
C512 C514 1.363 . S
C512 H528 0.931 . S
C513 C512 1.370 . S
C513 C517 1.408 . S
C514 C512 1.363 . S
C514 C515 1.370 . S
C514 C518 1.524 . S
C515 C507 1.503 . S
C515 C514 1.370 . S
C515 C516 1.403 . S
C516 C515 1.403 . S
C516 C517 1.404 . S
C516 C519 1.539 . S
C517 C513 1.408 . S
C517 C516 1.404 . S
C517 H529 0.930 . S
C518 C514 1.524 . S
C518 H530 0.956 . S
C518 H531 0.961 . S
C518 H532 0.961 . S
C519 C516 1.539 . S
C519 H533 0.958 . S
C519 H534 0.961 . S
C519 H535 0.960 . S
H520 C504 0.931 . S
H521 C509 0.929 . S
H522 C510 0.960 . S
H523 C510 0.962 . S
H524 C510 0.960 . S
H525 C511 0.961 . S
H526 C511 0.961 . S
H527 C511 0.961 . S
H528 C512 0.931 . S
H529 C517 0.930 . S
H530 C518 0.956 . S
H531 C518 0.961 . S
H532 C518 0.961 . S
H533 C519 0.958 . S
H534 C519 0.961 . S
H535 C519 0.960 . S
C536 C537 1.391 1_455 S
C536 C538 1.394 . S
C536 H552 0.931 . S
C537 C536 1.391 1_655 S
C537 C541 1.376 . S
C538 C536 1.394 . S
C538 C539 1.369 1_455 S
C538 C542 1.531 . S
C539 C538 1.369 1_655 S
C539 C540 1.410 . S
C539 C547 1.503 1_655 S
C540 C539 1.410 . S
C540 C541 1.392 . S
C540 C543 1.511 . S
C541 C537 1.376 . S
C541 C540 1.392 . S
C541 H553 0.929 . S
C542 C538 1.531 . S
C542 H554 0.960 . S
C542 H555 0.962 . S
C542 H556 0.960 . S
C543 C540 1.511 . S
C543 H557 0.961 . S
C543 H558 0.961 . S
C543 H559 0.961 . S
C544 C545 1.370 . S
C544 C546 1.363 . S
C544 H560 0.931 . S
C545 C544 1.370 . S
C545 C549 1.408 . S
C546 C544 1.363 . S
C546 C547 1.370 . S
C546 C550 1.524 1_455 S
C547 C539 1.503 1_455 S
C547 C546 1.370 . S
C547 C548 1.403 . S
C548 C547 1.403 . S
C548 C549 1.404 . S
C548 C551 1.539 . S
C549 C545 1.408 . S
C549 C548 1.404 . S
C549 H561 0.930 . S
C550 C546 1.524 1_655 S
C550 H562 0.956 1_655 S
C550 H563 0.961 . S
C550 H564 0.961 . S
C551 C548 1.539 . S
C551 H565 0.958 . S
C551 H566 0.961 . S
C551 H567 0.960 1_455 S
H552 C536 0.931 . S
H553 C541 0.929 . S
H554 C542 0.960 . S
H555 C542 0.962 . S
H556 C542 0.960 . S
H557 C543 0.961 . S
H558 C543 0.961 . S
H559 C543 0.961 . S
H560 C544 0.931 . S
H561 C549 0.930 . S
H562 C550 0.956 1_455 S
H563 C550 0.961 . S
H564 C550 0.961 . S
H565 C551 0.958 . S
H566 C551 0.961 . S
H567 C551 0.960 1_655 S
C568 C569 1.391 . S
C568 C570 1.394 . S
C568 H584 0.931 . S
C569 C568 1.391 . S
C569 C573 1.376 . S
C570 C568 1.394 . S
C570 C571 1.369 1_565 S
C570 C574 1.531 . S
C571 C570 1.369 1_545 S
C571 C572 1.410 1_545 S
C571 C579 1.503 . S
C572 C571 1.410 1_565 S
C572 C573 1.392 . S
C572 C575 1.511 1_565 S
C573 C569 1.376 . S
C573 C572 1.392 . S
C573 H585 0.929 . S
C574 C570 1.531 . S
C574 H586 0.960 1_565 S
C574 H587 0.962 . S
C574 H588 0.960 . S
C575 C572 1.511 1_545 S
C575 H589 0.961 1_545 S
C575 H590 0.961 . S
C575 H591 0.961 . S
C576 C577 1.370 1_565 S
C576 C578 1.363 . S
C576 H592 0.931 . S
C577 C576 1.370 1_545 S
C577 C581 1.408 . S
C578 C576 1.363 . S
C578 C579 1.370 1_565 S
C578 C582 1.524 . S
C579 C571 1.503 . S
C579 C578 1.370 1_545 S
C579 C580 1.403 . S
C580 C579 1.403 . S
C580 C581 1.404 . S
C580 C583 1.539 . S
C581 C577 1.408 . S
C581 C580 1.404 . S
C581 H593 0.930 . S
C582 C578 1.524 . S
C582 H594 0.956 . S
C582 H595 0.961 . S
C582 H596 0.961 . S
C583 C580 1.539 . S
C583 H597 0.958 . S
C583 H598 0.961 . S
C583 H599 0.960 . S
H584 C568 0.931 . S
H585 C573 0.929 . S
H586 C574 0.960 1_545 S
H587 C574 0.962 . S
H588 C574 0.960 . S
H589 C575 0.961 1_565 S
H590 C575 0.961 . S
H591 C575 0.961 . S
H592 C576 0.931 . S
H593 C581 0.930 . S
H594 C582 0.956 . S
H595 C582 0.961 . S
H596 C582 0.961 . S
H597 C583 0.958 . S
H598 C583 0.961 . S
H599 C583 0.960 . S
C600 C601 1.391 . S
C600 C602 1.394 . S
C600 H616 0.931 . S
C601 C600 1.391 . S
C601 C605 1.376 . S
C602 C600 1.394 . S
C602 C603 1.369 . S
C602 C606 1.531 . S
C603 C602 1.369 . S
C603 C604 1.410 . S
C603 C611 1.503 . S
C604 C603 1.410 . S
C604 C605 1.392 . S
C604 C607 1.511 . S
C605 C601 1.376 . S
C605 C604 1.392 . S
C605 H617 0.929 . S
C606 C602 1.531 . S
C606 H618 0.960 . S
C606 H619 0.962 . S
C606 H620 0.960 . S
C607 C604 1.511 . S
C607 H621 0.961 . S
C607 H622 0.961 . S
C607 H623 0.961 . S
C608 C609 1.370 . S
C608 C610 1.363 . S
C608 H624 0.931 . S
C609 C608 1.370 . S
C609 C613 1.408 . S
C610 C608 1.363 . S
C610 C611 1.370 . S
C610 C614 1.524 . S
C611 C603 1.503 . S
C611 C610 1.370 . S
C611 C612 1.403 . S
C612 C611 1.403 . S
C612 C613 1.404 . S
C612 C615 1.539 . S
C613 C609 1.408 . S
C613 C612 1.404 . S
C613 H625 0.930 . S
C614 C610 1.524 . S
C614 H626 0.956 . S
C614 H627 0.961 . S
C614 H628 0.961 . S
C615 C612 1.539 . S
C615 H629 0.958 . S
C615 H630 0.961 . S
C615 H631 0.960 . S
H616 C600 0.931 . S
H617 C605 0.929 . S
H618 C606 0.960 . S
H619 C606 0.962 . S
H620 C606 0.960 . S
H621 C607 0.961 . S
H622 C607 0.961 . S
H623 C607 0.961 . S
H624 C608 0.931 . S
H625 C613 0.930 . S
H626 C614 0.956 . S
H627 C614 0.961 . S
H628 C614 0.961 . S
H629 C615 0.958 . S
H630 C615 0.961 . S
H631 C615 0.960 . S
C632 C633 1.391 . S
C632 C634 1.394 . S
C632 H648 0.931 . S
C633 C632 1.391 . S
C633 C637 1.376 . S
C634 C632 1.394 . S
C634 C635 1.369 . S
C634 C638 1.531 1_655 S
C635 C634 1.369 . S
C635 C636 1.410 . S
C635 C643 1.503 1_655 S
C636 C635 1.410 . S
C636 C637 1.392 . S
C636 C639 1.511 . S
C637 C633 1.376 . S
C637 C636 1.392 . S
C637 H649 0.929 . S
C638 C634 1.531 1_455 S
C638 H650 0.960 . S
C638 H651 0.962 1_455 S
C638 H652 0.960 . S
C639 C636 1.511 . S
C639 H653 0.961 . S
C639 H654 0.961 . S
C639 H655 0.961 1_655 S
C640 C641 1.370 . S
C640 C642 1.363 1_455 S
C640 H656 0.931 1_455 S
C641 C640 1.370 . S
C641 C645 1.408 . S
C642 C640 1.363 1_655 S
C642 C643 1.370 1_655 S
C642 C646 1.524 . S
C643 C635 1.503 1_455 S
C643 C642 1.370 1_455 S
C643 C644 1.403 . S
C644 C643 1.403 . S
C644 C645 1.404 . S
C644 C647 1.539 . S
C645 C641 1.408 . S
C645 C644 1.404 . S
C645 H657 0.930 . S
C646 C642 1.524 . S
C646 H658 0.956 . S
C646 H659 0.961 . S
C646 H660 0.961 . S
C647 C644 1.539 . S
C647 H661 0.958 . S
C647 H662 0.961 . S
C647 H663 0.960 . S
H648 C632 0.931 . S
H649 C637 0.929 . S
H650 C638 0.960 . S
H651 C638 0.962 1_655 S
H652 C638 0.960 . S
H653 C639 0.961 . S
H654 C639 0.961 . S
H655 C639 0.961 1_455 S
H656 C640 0.931 1_655 S
H657 C645 0.930 . S
H658 C646 0.956 . S
H659 C646 0.961 . S
H660 C646 0.961 . S
H661 C647 0.958 . S
H662 C647 0.961 . S
H663 C647 0.960 . S
C664 C665 1.391 . S
C664 C666 1.394 . S
C664 H680 0.931 . S
C665 C664 1.391 . S
C665 C669 1.376 . S
C666 C664 1.394 . S
C666 C667 1.369 . S
C666 C670 1.531 1_545 S
C667 C666 1.369 . S
C667 C668 1.410 . S
C667 C675 1.503 1_544 S
C668 C667 1.410 . S
C668 C669 1.392 . S
C668 C671 1.511 . S
C669 C665 1.376 . S
C669 C668 1.392 . S
C669 H681 0.929 . S
C670 C666 1.531 1_565 S
C670 H682 0.960 . S
C670 H683 0.962 1_565 S
C670 H684 0.960 . S
C671 C668 1.511 . S
C671 H685 0.961 . S
C671 H686 0.961 1_554 S
C671 H687 0.961 1_545 S
C672 C673 1.370 . S
C672 C674 1.363 1_565 S
C672 H688 0.931 1_565 S
C673 C672 1.370 . S
C673 C677 1.408 . S
C674 C672 1.363 1_545 S
C674 C675 1.370 1_545 S
C674 C678 1.524 . S
C675 C667 1.503 1_566 S
C675 C674 1.370 1_565 S
C675 C676 1.403 . S
C676 C675 1.403 . S
C676 C677 1.404 . S
C676 C679 1.539 1_556 S
C677 C673 1.408 . S
C677 C676 1.404 . S
C677 H689 0.930 . S
C678 C674 1.524 . S
C678 H690 0.956 . S
C678 H691 0.961 . S
C678 H692 0.961 . S
C679 C676 1.539 1_554 S
C679 H693 0.958 . S
C679 H694 0.961 . S
C679 H695 0.960 . S
H680 C664 0.931 . S
H681 C669 0.929 . S
H682 C670 0.960 . S
H683 C670 0.962 1_545 S
H684 C670 0.960 . S
H685 C671 0.961 . S
H686 C671 0.961 1_556 S
H687 C671 0.961 1_565 S
H688 C672 0.931 1_545 S
H689 C677 0.930 . S
H690 C678 0.956 . S
H691 C678 0.961 . S
H692 C678 0.961 . S
H693 C679 0.958 . S
H694 C679 0.961 . S
H695 C679 0.960 . S
C696 C697 1.391 . S
C696 C698 1.394 . S
C696 H712 0.931 . S
C697 C696 1.391 . S
C697 C701 1.376 . S
C698 C696 1.394 . S
C698 C699 1.369 . S
C698 C702 1.531 . S
C699 C698 1.369 . S
C699 C700 1.410 . S
C699 C707 1.503 . S
C700 C699 1.410 . S
C700 C701 1.392 . S
C700 C703 1.511 . S
C701 C697 1.376 . S
C701 C700 1.392 . S
C701 H713 0.929 . S
C702 C698 1.531 . S
C702 H714 0.960 . S
C702 H715 0.962 . S
C702 H716 0.960 . S
C703 C700 1.511 . S
C703 H717 0.961 . S
C703 H718 0.961 . S
C703 H719 0.961 . S
C704 C705 1.370 . S
C704 C706 1.363 . S
C704 H720 0.931 . S
C705 C704 1.370 . S
C705 C709 1.408 . S
C706 C704 1.363 . S
C706 C707 1.370 . S
C706 C710 1.524 . S
C707 C699 1.503 . S
C707 C706 1.370 . S
C707 C708 1.403 . S
C708 C707 1.403 . S
C708 C709 1.404 . S
C708 C711 1.539 . S
C709 C705 1.408 . S
C709 C708 1.404 . S
C709 H721 0.930 . S
C710 C706 1.524 . S
C710 H722 0.956 . S
C710 H723 0.961 . S
C710 H724 0.961 . S
C711 C708 1.539 . S
C711 H725 0.958 . S
C711 H726 0.961 . S
C711 H727 0.960 . S
H712 C696 0.931 . S
H713 C701 0.929 . S
H714 C702 0.960 . S
H715 C702 0.962 . S
H716 C702 0.960 . S
H717 C703 0.961 . S
H718 C703 0.961 . S
H719 C703 0.961 . S
H720 C704 0.931 . S
H721 C709 0.930 . S
H722 C710 0.956 . S
H723 C710 0.961 . S
H724 C710 0.961 . S
H725 C711 0.958 . S
H726 C711 0.961 . S
H727 C711 0.960 . S
C728 C729 1.391 . S
C728 C730 1.394 1_455 S
C728 H744 0.931 1_455 S
C729 C728 1.391 . S
C729 C733 1.376 . S
C730 C728 1.394 1_655 S
C730 C731 1.369 1_655 S
C730 C734 1.531 . S
C731 C730 1.369 1_455 S
C731 C732 1.410 . S
C731 C739 1.503 1_455 S
C732 C731 1.410 . S
C732 C733 1.392 . S
C732 C735 1.511 . S
C733 C729 1.376 . S
C733 C732 1.392 . S
C733 H745 0.929 . S
C734 C730 1.531 . S
C734 H746 0.960 . S
C734 H747 0.962 . S
C734 H748 0.960 . S
C735 C732 1.511 . S
C735 H749 0.961 . S
C735 H750 0.961 . S
C735 H751 0.961 . S
C736 C737 1.370 . S
C736 C738 1.363 . S
C736 H752 0.931 . S
C737 C736 1.370 . S
C737 C741 1.408 . S
C738 C736 1.363 . S
C738 C739 1.370 . S
C738 C742 1.524 . S
C739 C731 1.503 1_655 S
C739 C738 1.370 . S
C739 C740 1.403 . S
C740 C739 1.403 . S
C740 C741 1.404 . S
C740 C743 1.539 . S
C741 C737 1.408 . S
C741 C740 1.404 . S
C741 H753 0.930 . S
C742 C738 1.524 . S
C742 H754 0.956 . S
C742 H755 0.961 1_655 S
C742 H756 0.961 . S
C743 C740 1.539 . S
C743 H757 0.958 . S
C743 H758 0.961 1_655 S
C743 H759 0.960 1_655 S
H744 C728 0.931 1_655 S
H745 C733 0.929 . S
H746 C734 0.960 . S
H747 C734 0.962 . S
H748 C734 0.960 . S
H749 C735 0.961 . S
H750 C735 0.961 . S
H751 C735 0.961 . S
H752 C736 0.931 . S
H753 C741 0.930 . S
H754 C742 0.956 . S
H755 C742 0.961 1_455 S
H756 C742 0.961 . S
H757 C743 0.958 . S
H758 C743 0.961 1_455 S
H759 C743 0.960 1_455 S
C760 C761 1.391 . S
C760 C762 1.394 1_545 S
C760 H776 0.931 . S
C761 C760 1.391 . S
C761 C765 1.376 . S
C762 C760 1.394 1_565 S
C762 C763 1.369 1_565 S
C762 C766 1.531 . S
C763 C762 1.369 1_545 S
C763 C764 1.410 . S
C763 C771 1.503 1_546 S
C764 C763 1.410 . S
C764 C765 1.392 . S
C764 C767 1.516 1_556 S
C765 C761 1.376 . S
C765 C764 1.392 . S
C765 H777 0.929 . S
C766 C762 1.531 . S
C766 H778 0.960 . S
C766 H779 0.962 . S
C766 H780 0.960 . S
C767 C764 1.516 1_554 S
C767 H781 0.962 1_554 S
C767 H782 0.955 . S
C767 H783 0.961 1_554 S
C768 C769 1.370 . S
C768 C770 1.363 1_565 S
C768 H784 0.931 . S
C769 C768 1.370 . S
C769 C773 1.408 . S
C770 C768 1.363 1_545 S
C770 C771 1.370 1_545 S
C770 C774 1.524 . S
C771 C763 1.503 1_564 S
C771 C770 1.370 1_565 S
C771 C772 1.403 . S
C772 C771 1.403 . S
C772 C773 1.404 . S
C772 C775 1.516 1_554 S
C773 C769 1.408 . S
C773 C772 1.404 . S
C773 H785 0.930 . S
C774 C770 1.524 . S
C774 H786 0.956 . S
C774 H787 0.961 . S
C774 H788 0.961 . S
C775 C772 1.516 1_556 S
C775 H789 0.977 . S
C775 H790 0.943 1_556 S
C775 H791 0.984 . S
H776 C760 0.931 . S
H777 C765 0.929 . S
H778 C766 0.960 . S
H779 C766 0.962 . S
H780 C766 0.960 . S
H781 C767 0.962 1_556 S
H782 C767 0.955 . S
H783 C767 0.961 1_556 S
H784 C768 0.931 . S
H785 C773 0.930 . S
H786 C774 0.956 . S
H787 C774 0.961 . S
H788 C774 0.961 . S
H789 C775 0.977 . S
H790 C775 0.943 1_554 S
H791 C775 0.984 . S
C792 C793 1.391 . S
C792 C794 1.394 . S
C792 H808 0.931 . S
C793 C792 1.391 . S
C793 C797 1.376 . S
C794 C792 1.394 . S
C794 C795 1.369 . S
C794 C798 1.531 1_455 S
C795 C794 1.369 . S
C795 C796 1.410 . S
C795 C803 1.503 1_445 S
C796 C795 1.410 . S
C796 C797 1.392 . S
C796 C799 1.511 1_545 S
C797 C793 1.376 . S
C797 C796 1.392 . S
C797 H809 0.929 . S
C798 C794 1.531 1_655 S
C798 H810 0.960 . S
C798 H811 0.962 . S
C798 H812 0.960 . S
C799 C796 1.511 1_565 S
C799 H813 0.961 1_565 S
C799 H814 0.961 . S
C799 H815 0.961 . S
C800 C801 1.370 . S
C800 C802 1.363 . S
C800 H816 0.931 . S
C801 C800 1.370 . S
C801 C805 1.408 . S
C802 C800 1.363 . S
C802 C803 1.370 . S
C802 C806 1.524 . S
C803 C795 1.503 1_665 S
C803 C802 1.370 . S
C803 C804 1.403 . S
C804 C803 1.403 . S
C804 C805 1.404 . S
C804 C807 1.539 1_655 S
C805 C801 1.408 . S
C805 C804 1.404 . S
C805 H817 0.930 . S
C806 C802 1.524 . S
C806 H818 0.956 1_565 S
C806 H819 0.961 1_565 S
C806 H820 0.961 . S
C807 C804 1.539 1_455 S
C807 H821 0.958 . S
C807 H822 0.961 . S
C807 H823 0.960 . S
H808 C792 0.931 . S
H809 C797 0.929 . S
H810 C798 0.960 . S
H811 C798 0.962 . S
H812 C798 0.960 . S
H813 C799 0.961 1_545 S
H814 C799 0.961 . S
H815 C799 0.961 . S
H816 C800 0.931 . S
H817 C805 0.930 . S
H818 C806 0.956 1_545 S
H819 C806 0.961 1_545 S
H820 C806 0.961 . S
H821 C807 0.958 . S
H822 C807 0.961 . S
H823 C807 0.960 . S
C824 C825 1.391 . S
C824 C826 1.394 . S
C824 H840 0.931 . S
C825 C824 1.391 . S
C825 C829 1.376 1_655 S
C826 C824 1.394 . S
C826 C827 1.369 . S
C826 C830 1.531 1_545 S
C827 C826 1.369 . S
C827 C828 1.410 1_655 S
C827 C835 1.503 1_645 S
C828 C827 1.410 1_455 S
C828 C829 1.392 . S
C828 C831 1.511 . S
C829 C825 1.376 1_455 S
C829 C828 1.392 . S
C829 H841 0.929 . S
C830 C826 1.531 1_565 S
C830 H842 0.960 . S
C830 H843 0.962 . S
C830 H844 0.960 . S
C831 C828 1.511 . S
C831 H845 0.961 . S
C831 H846 0.961 . S
C831 H847 0.961 . S
C832 C833 1.370 . S
C832 C834 1.363 . S
C832 H848 0.931 . S
C833 C832 1.370 . S
C833 C837 1.408 . S
C834 C832 1.363 . S
C834 C835 1.370 . S
C834 C838 1.524 1_565 S
C835 C827 1.503 1_465 S
C835 C834 1.370 . S
C835 C836 1.403 1_455 S
C836 C835 1.403 1_655 S
C836 C837 1.404 1_655 S
C836 C839 1.539 . S
C837 C833 1.408 . S
C837 C836 1.404 1_455 S
C837 H849 0.930 . S
C838 C834 1.524 1_545 S
C838 H850 0.956 1_445 S
C838 H851 0.961 . S
C838 H852 0.961 1_545 S
C839 C836 1.539 . S
C839 H853 0.958 . S
C839 H854 0.961 . S
C839 H855 0.960 . S
H840 C824 0.931 . S
H841 C829 0.929 . S
H842 C830 0.960 . S
H843 C830 0.962 . S
H844 C830 0.960 . S
H845 C831 0.961 . S
H846 C831 0.961 . S
H847 C831 0.961 . S
H848 C832 0.931 . S
H849 C837 0.930 . S
H850 C838 0.956 1_665 S
H851 C838 0.961 . S
H852 C838 0.961 1_565 S
H853 C839 0.958 . S
H854 C839 0.961 . S
H855 C839 0.960 . S
C856 C857 1.391 1_565 S
C856 C858 1.394 . S
C856 H872 0.931 . S
C857 C856 1.391 1_545 S
C857 C861 1.376 . S
C858 C856 1.394 . S
C858 C859 1.369 1_565 S
C858 C862 1.531 1_455 S
C859 C858 1.369 1_545 S
C859 C860 1.410 . S
C859 C867 1.503 1_445 S
C860 C859 1.410 . S
C860 C861 1.392 . S
C860 C863 1.511 . S
C861 C857 1.376 . S
C861 C860 1.392 . S
C861 H873 0.929 . S
C862 C858 1.531 1_655 S
C862 H874 0.960 . S
C862 H875 0.962 . S
C862 H876 0.960 1_655 S
C863 C860 1.511 . S
C863 H877 0.961 . S
C863 H878 0.961 . S
C863 H879 0.961 . S
C864 C865 1.370 . S
C864 C866 1.363 . S
C864 H880 0.931 . S
C865 C864 1.370 . S
C865 C869 1.408 . S
C866 C864 1.363 . S
C866 C867 1.370 . S
C866 C870 1.524 . S
C867 C859 1.503 1_665 S
C867 C866 1.370 . S
C867 C868 1.403 . S
C868 C867 1.403 . S
C868 C869 1.404 . S
C868 C871 1.539 1_565 S
C869 C865 1.408 . S
C869 C868 1.404 . S
C869 H881 0.930 . S
C870 C866 1.524 . S
C870 H882 0.956 . S
C870 H883 0.961 1_665 S
C870 H884 0.961 . S
C871 C868 1.539 1_545 S
C871 H885 0.958 1_545 S
C871 H886 0.961 . S
C871 H887 0.960 1_655 S
H872 C856 0.931 . S
H873 C861 0.929 . S
H874 C862 0.960 . S
H875 C862 0.962 . S
H876 C862 0.960 1_455 S
H877 C863 0.961 . S
H878 C863 0.961 . S
H879 C863 0.961 . S
H880 C864 0.931 . S
H881 C869 0.930 . S
H882 C870 0.956 . S
H883 C870 0.961 1_445 S
H884 C870 0.961 . S
H885 C871 0.958 1_565 S
H886 C871 0.961 . S
H887 C871 0.960 1_455 S
C888 C889 1.391 . S
C888 C890 1.394 . S
C888 H904 0.931 . S
C889 C888 1.391 . S
C889 C893 1.376 . S
C890 C888 1.394 . S
C890 C891 1.369 . S
C890 C894 1.531 1_565 S
C891 C890 1.369 . S
C891 C892 1.410 . S
C891 C899 1.503 1_665 S
C892 C891 1.410 . S
C892 C893 1.392 . S
C892 C895 1.511 1_655 S
C893 C889 1.376 . S
C893 C892 1.392 . S
C893 H905 0.929 . S
C894 C890 1.531 1_545 S
C894 H906 0.960 . S
C894 H907 0.962 . S
C894 H908 0.960 . S
C895 C892 1.511 1_455 S
C895 H909 0.961 1_455 S
C895 H910 0.961 . S
C895 H911 0.961 . S
C896 C897 1.370 . S
C896 C898 1.363 . S
C896 H912 0.931 . S
C897 C896 1.370 . S
C897 C901 1.408 . S
C898 C896 1.363 . S
C898 C899 1.370 . S
C898 C902 1.524 . S
C899 C891 1.503 1_445 S
C899 C898 1.370 . S
C899 C900 1.403 . S
C900 C899 1.403 . S
C900 C901 1.404 . S
C900 C903 1.539 1_545 S
C901 C897 1.408 . S
C901 C900 1.404 . S
C901 H913 0.930 . S
C902 C898 1.524 . S
C902 H914 0.956 1_455 S
C902 H915 0.961 1_455 S
C902 H916 0.961 . S
C903 C900 1.539 1_565 S
C903 H917 0.961 . S
C903 H918 0.961 . S
C903 H919 0.960 . S
H904 C888 0.931 . S
H905 C893 0.929 . S
H906 C894 0.960 . S
H907 C894 0.962 . S
H908 C894 0.960 . S
H909 C895 0.961 1_655 S
H910 C895 0.961 . S
H911 C895 0.961 . S
H912 C896 0.931 . S
H913 C901 0.930 . S
H914 C902 0.956 1_655 S
H915 C902 0.961 1_655 S
H916 C902 0.961 . S
H917 C903 0.961 . S
H918 C903 0.961 . S
H919 C903 0.960 . S
C920 C921 1.391 . S
C920 C922 1.394 . S
C920 H936 0.931 . S
C921 C920 1.391 . S
C921 C925 1.376 1_655 S
C922 C920 1.394 . S
C922 C923 1.369 1_655 S
C922 C926 1.531 . S
C923 C922 1.369 1_455 S
C923 C924 1.408 . S
C923 C931 1.504 1_565 S
C924 C923 1.408 . S
C924 C925 1.392 . S
C924 C927 1.511 1_565 S
C925 C921 1.376 1_455 S
C925 C924 1.392 . S
C925 H937 0.929 . S
C926 C922 1.531 . S
C926 H938 0.960 . S
C926 H939 0.962 . S
C926 H940 0.960 . S
C927 C924 1.511 1_545 S
C927 H941 0.961 1_545 S
C927 H942 0.961 . S
C927 H943 0.961 . S
C928 C929 1.370 1_655 S
C928 C930 1.363 . S
C928 H944 0.931 . S
C929 C928 1.370 1_455 S
C929 C933 1.408 . S
C930 C928 1.363 . S
C930 C931 1.370 1_655 S
C930 C934 1.524 . S
C931 C923 1.504 1_545 S
C931 C930 1.370 1_455 S
C931 C932 1.403 . S
C932 C931 1.403 . S
C932 C933 1.404 . S
C932 C935 1.539 . S
C933 C929 1.408 . S
C933 C932 1.404 . S
C933 H945 0.930 . S
C934 C930 1.524 . S
C934 H946 0.956 1_545 S
C934 H947 0.961 1_545 S
C934 H948 0.961 . S
C935 C932 1.539 . S
C935 H949 0.958 . S
C935 H950 0.961 . S
C935 H951 0.960 . S
H936 C920 0.931 . S
H937 C925 0.929 . S
H938 C926 0.960 . S
H939 C926 0.962 . S
H940 C926 0.960 . S
H941 C927 0.961 1_565 S
H942 C927 0.961 . S
H943 C927 0.961 . S
H944 C928 0.931 . S
H945 C933 0.930 . S
H946 C934 0.956 1_565 S
H947 C934 0.961 1_565 S
H948 C934 0.961 . S
H949 C935 0.958 . S
H950 C935 0.961 . S
H951 C935 0.960 . S
C952 C953 1.391 . S
C952 C954 1.394 . S
C952 H968 0.931 . S
C953 C952 1.391 . S
C953 C957 1.376 . S
C954 C952 1.394 . S
C954 C955 1.369 1_545 S
C954 C958 1.531 . S
C955 C954 1.369 1_565 S
C955 C956 1.410 . S
C955 C963 1.503 1_655 S
C956 C955 1.410 . S
C956 C957 1.392 1_565 S
C956 C959 1.511 . S
C957 C953 1.376 . S
C957 C956 1.392 1_545 S
C957 H969 0.929 . S
C958 C954 1.531 . S
C958 H970 0.960 1_545 S
C958 H971 0.962 1_655 S
C958 H972 0.960 . S
C959 C956 1.511 . S
C959 H973 0.961 . S
C959 H974 0.961 . S
C959 H975 0.961 . S
C960 C961 1.370 1_545 S
C960 C962 1.363 . S
C960 H976 0.931 . S
C961 C960 1.370 1_565 S
C961 C965 1.408 . S
C962 C960 1.363 . S
C962 C963 1.370 1_545 S
C962 C966 1.524 . S
C963 C955 1.503 1_455 S
C963 C962 1.370 1_565 S
C963 C964 1.403 . S
C964 C963 1.403 . S
C964 C965 1.404 . S
C964 C967 1.539 1_455 S
C965 C961 1.408 . S
C965 C964 1.404 . S
C965 H977 0.930 . S
C966 C962 1.524 . S
C966 H978 0.956 . S
C966 H979 0.961 . S
C966 H980 0.961 . S
C967 C964 1.539 1_655 S
C967 H981 0.958 . S
C967 H982 0.961 . S
C967 H983 0.960 . S
H968 C952 0.931 . S
H969 C957 0.929 . S
H970 C958 0.960 1_565 S
H971 C958 0.962 1_455 S
H972 C958 0.960 . S
H973 C959 0.961 . S
H974 C959 0.961 . S
H975 C959 0.961 . S
H976 C960 0.931 . S
H977 C965 0.930 . S
H978 C966 0.956 . S
H979 C966 0.961 . S
H980 C966 0.961 . S
H981 C967 0.958 . S
H982 C967 0.961 . S
H983 C967 0.960 . S
C984 C985 1.391 . S
C984 C986 1.394 . S
C984 H1000 0.931 . S
C985 C984 1.391 . S
C985 C989 1.376 . S
C986 C984 1.394 . S
C986 C987 1.369 . S
C986 C990 1.531 . S
C987 C986 1.369 . S
C987 C988 1.410 . S
C987 C995 1.503 1_655 S
C988 C987 1.410 . S
C988 C989 1.392 . S
C988 C991 1.511 . S
C989 C985 1.376 . S
C989 C988 1.392 . S
C989 H1001 0.929 . S
C990 C986 1.531 . S
C990 H1002 0.960 . S
C990 H1003 0.962 1_655 S
C990 H1004 0.960 . S
C991 C988 1.511 . S
C991 H1005 0.961 . S
C991 H1006 0.961 . S
C991 H1007 0.961 . S
C992 C993 1.370 . S
C992 C994 1.363 . S
C992 H1008 0.931 . S
C993 C992 1.370 . S
C993 C997 1.408 . S
C994 C992 1.363 . S
C994 C995 1.370 . S
C994 C998 1.524 . S
C995 C987 1.503 1_455 S
C995 C994 1.370 . S
C995 C996 1.403 . S
C996 C995 1.403 . S
C996 C997 1.404 . S
C996 C999 1.539 1_455 S
C997 C993 1.408 . S
C997 C996 1.404 . S
C997 H1009 0.930 . S
C998 C994 1.524 . S
C998 H1010 0.956 . S
C998 H1011 0.961 . S
C998 H1012 0.961 . S
C999 C996 1.539 1_655 S
C999 H1013 0.958 . S
C999 H1014 0.961 . S
C999 H1015 0.960 . S
H1000 C984 0.931 . S
H1001 C989 0.929 . S
H1002 C990 0.960 . S
H1003 C990 0.962 1_455 S
H1004 C990 0.960 . S
H1005 C991 0.961 . S
H1006 C991 0.961 . S
H1007 C991 0.961 . S
H1008 C992 0.931 . S
H1009 C997 0.930 . S
H1010 C998 0.956 . S
H1011 C998 0.961 . S
H1012 C998 0.961 . S
H1013 C999 0.958 . S
H1014 C999 0.961 . S
H1015 C999 0.960 . S
C1016 C1017 1.391 . S
C1016 C1018 1.394 . S
C1016 H1032 0.931 . S
C1017 C1016 1.391 . S
C1017 C1021 1.376 . S
C1018 C1016 1.394 . S
C1018 C1019 1.369 . S
C1018 C1022 1.531 . S
C1019 C1018 1.369 . S
C1019 C1020 1.410 . S
C1019 C1027 1.503 1_545 S
C1020 C1019 1.410 . S
C1020 C1021 1.392 . S
C1020 C1023 1.511 1_545 S
C1021 C1017 1.376 . S
C1021 C1020 1.392 . S
C1021 H1033 0.929 . S
C1022 C1018 1.531 . S
C1022 H1034 0.960 . S
C1022 H1035 0.962 . S
C1022 H1036 0.960 . S
C1023 C1020 1.511 1_565 S
C1023 H1037 0.961 . S
C1023 H1038 0.961 . S
C1023 H1039 0.961 . S
C1024 C1025 1.370 . S
C1024 C1026 1.363 . S
C1024 H1040 0.931 . S
C1025 C1024 1.370 . S
C1025 C1029 1.408 . S
C1026 C1024 1.363 . S
C1026 C1027 1.370 . S
C1026 C1030 1.524 . S
C1027 C1019 1.503 1_565 S
C1027 C1026 1.370 . S
C1027 C1028 1.403 . S
C1028 C1027 1.403 . S
C1028 C1029 1.404 . S
C1028 C1031 1.539 1_565 S
C1029 C1025 1.408 . S
C1029 C1028 1.404 . S
C1029 H1041 0.930 . S
C1030 C1026 1.524 . S
C1030 H1042 0.956 . S
C1030 H1043 0.961 . S
C1030 H1044 0.961 . S
C1031 C1028 1.539 1_545 S
C1031 H1045 0.958 . S
C1031 H1046 0.961 1_545 S
C1031 H1047 0.960 . S
H1032 C1016 0.931 . S
H1033 C1021 0.929 . S
H1034 C1022 0.960 . S
H1035 C1022 0.962 . S
H1036 C1022 0.960 . S
H1037 C1023 0.961 . S
H1038 C1023 0.961 . S
H1039 C1023 0.961 . S
H1040 C1024 0.931 . S
H1041 C1029 0.930 . S
H1042 C1030 0.956 . S
H1043 C1030 0.961 . S
H1044 C1030 0.961 . S
H1045 C1031 0.958 . S
H1046 C1031 0.961 1_565 S
H1047 C1031 0.960 . S
C1048 C1049 1.391 . S
C1048 C1050 1.394 . S
C1048 H1064 0.931 . S
C1049 C1048 1.391 . S
C1049 C1053 1.376 . S
C1050 C1048 1.394 . S
C1050 C1051 1.369 . S
C1050 C1054 1.531 . S
C1051 C1050 1.369 . S
C1051 C1052 1.410 . S
C1051 C1059 1.503 . S
C1052 C1051 1.410 . S
C1052 C1053 1.392 . S
C1052 C1055 1.511 . S
C1053 C1049 1.376 . S
C1053 C1052 1.392 . S
C1053 H1065 0.929 . S
C1054 C1050 1.531 . S
C1054 H1066 0.960 . S
C1054 H1067 0.962 . S
C1054 H1068 0.960 . S
C1055 C1052 1.511 . S
C1055 H1069 0.961 . S
C1055 H1070 0.961 . S
C1055 H1071 0.961 . S
C1056 C1057 1.370 . S
C1056 C1058 1.363 . S
C1056 H1072 0.931 . S
C1057 C1056 1.370 . S
C1057 C1061 1.408 . S
C1058 C1056 1.363 . S
C1058 C1059 1.370 . S
C1058 C1062 1.524 . S
C1059 C1051 1.503 . S
C1059 C1058 1.370 . S
C1059 C1060 1.403 . S
C1060 C1059 1.403 . S
C1060 C1061 1.404 . S
C1060 C1063 1.539 . S
C1061 C1057 1.408 . S
C1061 C1060 1.404 . S
C1061 H1073 0.930 . S
C1062 C1058 1.524 . S
C1062 H1074 0.956 . S
C1062 H1075 0.961 . S
C1062 H1076 0.961 . S
C1063 C1060 1.539 . S
C1063 H1077 0.958 . S
C1063 H1078 0.961 . S
C1063 H1079 0.960 . S
H1064 C1048 0.931 . S
H1065 C1053 0.929 . S
H1066 C1054 0.960 . S
H1067 C1054 0.962 . S
H1068 C1054 0.960 . S
H1069 C1055 0.961 . S
H1070 C1055 0.961 . S
H1071 C1055 0.961 . S
H1072 C1056 0.931 . S
H1073 C1061 0.930 . S
H1074 C1062 0.956 . S
H1075 C1062 0.961 . S
H1076 C1062 0.961 . S
H1077 C1063 0.958 . S
H1078 C1063 0.961 . S
H1079 C1063 0.960 . S
C1080 C1081 1.391 . S
C1080 C1082 1.394 . S
C1080 H1096 0.931 . S
C1081 C1080 1.391 . S
C1081 C1085 1.376 . S
C1082 C1080 1.394 . S
C1082 C1083 1.369 . S
C1082 C1086 1.531 . S
C1083 C1082 1.369 . S
C1083 C1084 1.410 . S
C1083 C1091 1.503 1_455 S
C1084 C1083 1.410 . S
C1084 C1085 1.392 . S
C1084 C1087 1.511 1_455 S
C1085 C1081 1.376 . S
C1085 C1084 1.392 . S
C1085 H1097 0.929 . S
C1086 C1082 1.531 . S
C1086 H1098 0.960 . S
C1086 H1099 0.962 . S
C1086 H1100 0.960 . S
C1087 C1084 1.511 1_655 S
C1087 H1101 0.961 . S
C1087 H1102 0.961 . S
C1087 H1103 0.961 . S
C1088 C1089 1.370 . S
C1088 C1090 1.363 . S
C1088 H1104 0.931 . S
C1089 C1088 1.370 . S
C1089 C1093 1.408 . S
C1090 C1088 1.363 . S
C1090 C1091 1.370 . S
C1090 C1094 1.524 . S
C1091 C1083 1.503 1_655 S
C1091 C1090 1.370 . S
C1091 C1092 1.403 . S
C1092 C1091 1.403 . S
C1092 C1093 1.404 . S
C1092 C1095 1.539 . S
C1093 C1089 1.408 . S
C1093 C1092 1.404 . S
C1093 H1105 0.930 . S
C1094 C1090 1.524 . S
C1094 H1106 0.956 1_655 S
C1094 H1107 0.961 . S
C1094 H1108 0.961 . S
C1095 C1092 1.539 . S
C1095 H1109 0.956 1_655 S
C1095 H1110 0.961 . S
C1095 H1111 0.960 . S
H1096 C1080 0.931 . S
H1097 C1085 0.929 . S
H1098 C1086 0.960 . S
H1099 C1086 0.962 . S
H1100 C1086 0.960 . S
H1101 C1087 0.961 . S
H1102 C1087 0.961 . S
H1103 C1087 0.961 . S
H1104 C1088 0.931 . S
H1105 C1093 0.930 . S
H1106 C1094 0.956 1_455 S
H1107 C1094 0.961 . S
H1108 C1094 0.961 . S
H1109 C1095 0.956 1_455 S
H1110 C1095 0.961 . S
H1111 C1095 0.960 . S
C1112 C1113 1.391 . S
C1112 C1114 1.394 . S
C1112 H1128 0.931 . S
C1113 C1112 1.391 . S
C1113 C1117 1.376 . S
C1114 C1112 1.394 . S
C1114 C1115 1.369 . S
C1114 C1118 1.531 1_565 S
C1115 C1114 1.369 . S
C1115 C1116 1.410 . S
C1115 C1123 1.503 1_565 S
C1116 C1115 1.410 . S
C1116 C1117 1.392 . S
C1116 C1119 1.511 . S
C1117 C1113 1.376 . S
C1117 C1116 1.392 . S
C1117 H1129 0.929 . S
C1118 C1114 1.531 1_545 S
C1118 H1130 0.960 . S
C1118 H1131 0.962 . S
C1118 H1132 0.960 . S
C1119 C1116 1.511 . S
C1119 H1133 0.961 . S
C1119 H1134 0.961 . S
C1119 H1135 0.961 . S
C1120 C1121 1.370 . S
C1120 C1122 1.363 . S
C1120 H1136 0.931 . S
C1121 C1120 1.370 . S
C1121 C1125 1.408 . S
C1122 C1120 1.363 . S
C1122 C1123 1.370 . S
C1122 C1126 1.524 1_545 S
C1123 C1115 1.503 1_545 S
C1123 C1122 1.370 . S
C1123 C1124 1.403 . S
C1124 C1123 1.403 . S
C1124 C1125 1.404 . S
C1124 C1127 1.539 . S
C1125 C1121 1.408 . S
C1125 C1124 1.404 . S
C1125 H1137 0.930 . S
C1126 C1122 1.524 1_565 S
C1126 H1138 0.956 . S
C1126 H1139 0.961 . S
C1126 H1140 0.961 . S
C1127 C1124 1.539 . S
C1127 H1141 0.958 . S
C1127 H1142 0.961 . S
C1127 H1143 0.960 . S
H1128 C1112 0.931 . S
H1129 C1117 0.929 . S
H1130 C1118 0.960 . S
H1131 C1118 0.962 . S
H1132 C1118 0.960 . S
H1133 C1119 0.961 . S
H1134 C1119 0.961 . S
H1135 C1119 0.961 . S
H1136 C1120 0.931 . S
H1137 C1125 0.930 . S
H1138 C1126 0.956 . S
H1139 C1126 0.961 . S
H1140 C1126 0.961 . S
H1141 C1127 0.958 . S
H1142 C1127 0.961 . S
H1143 C1127 0.960 . S
C1144 C1145 1.391 . S
C1144 C1146 1.394 . S
C1144 H1160 0.931 . S
C1145 C1144 1.391 . S
C1145 C1149 1.376 . S
C1146 C1144 1.394 . S
C1146 C1147 1.369 . S
C1146 C1150 1.531 . S
C1147 C1146 1.369 . S
C1147 C1148 1.410 . S
C1147 C1155 1.503 . S
C1148 C1147 1.410 . S
C1148 C1149 1.392 . S
C1148 C1151 1.511 . S
C1149 C1145 1.376 . S
C1149 C1148 1.392 . S
C1149 H1161 0.929 . S
C1150 C1146 1.531 . S
C1150 H1162 0.960 . S
C1150 H1163 0.962 . S
C1150 H1164 0.960 . S
C1151 C1148 1.511 . S
C1151 H1165 0.961 . S
C1151 H1166 0.961 . S
C1151 H1167 0.961 . S
C1152 C1153 1.370 . S
C1152 C1154 1.363 . S
C1152 H1168 0.931 . S
C1153 C1152 1.370 . S
C1153 C1157 1.408 . S
C1154 C1152 1.363 . S
C1154 C1155 1.370 . S
C1154 C1158 1.524 . S
C1155 C1147 1.503 . S
C1155 C1154 1.370 . S
C1155 C1156 1.403 . S
C1156 C1155 1.403 . S
C1156 C1157 1.404 . S
C1156 C1159 1.539 . S
C1157 C1153 1.408 . S
C1157 C1156 1.404 . S
C1157 H1169 0.930 . S
C1158 C1154 1.524 . S
C1158 H1170 0.956 . S
C1158 H1171 0.961 . S
C1158 H1172 0.961 . S
C1159 C1156 1.539 . S
C1159 H1173 0.958 . S
C1159 H1174 0.961 . S
C1159 H1175 0.960 . S
H1160 C1144 0.931 . S
H1161 C1149 0.929 . S
H1162 C1150 0.960 . S
H1163 C1150 0.962 . S
H1164 C1150 0.960 . S
H1165 C1151 0.961 . S
H1166 C1151 0.961 . S
H1167 C1151 0.961 . S
H1168 C1152 0.931 . S
H1169 C1157 0.930 . S
H1170 C1158 0.956 . S
H1171 C1158 0.961 . S
H1172 C1158 0.961 . S
H1173 C1159 0.958 . S
H1174 C1159 0.961 . S
H1175 C1159 0.960 . S
C1176 C1177 1.391 . S
C1176 C1178 1.394 . S
C1176 H1192 0.931 . S
C1177 C1176 1.391 . S
C1177 C1181 1.376 . S
C1178 C1176 1.394 . S
C1178 C1179 1.369 . S
C1178 C1182 1.531 . S
C1179 C1178 1.369 . S
C1179 C1180 1.410 . S
C1179 C1187 1.503 . S
C1180 C1179 1.410 . S
C1180 C1181 1.392 . S
C1180 C1183 1.511 . S
C1181 C1177 1.376 . S
C1181 C1180 1.392 . S
C1181 H1193 0.929 . S
C1182 C1178 1.531 . S
C1182 H1194 0.960 . S
C1182 H1195 0.962 . S
C1182 H1196 0.960 . S
C1183 C1180 1.511 . S
C1183 H1197 0.961 . S
C1183 H1198 0.961 . S
C1183 H1199 0.961 . S
C1184 C1185 1.370 . S
C1184 C1186 1.363 . S
C1184 H1200 0.931 . S
C1185 C1184 1.370 . S
C1185 C1189 1.408 . S
C1186 C1184 1.363 . S
C1186 C1187 1.370 . S
C1186 C1190 1.524 . S
C1187 C1179 1.503 . S
C1187 C1186 1.370 . S
C1187 C1188 1.403 . S
C1188 C1187 1.403 . S
C1188 C1189 1.404 . S
C1188 C1191 1.539 . S
C1189 C1185 1.408 . S
C1189 C1188 1.404 . S
C1189 H1201 0.930 1_545 S
C1190 C1186 1.524 . S
C1190 H1202 0.956 . S
C1190 H1203 0.961 . S
C1190 H1204 0.961 . S
C1191 C1188 1.539 . S
C1191 H1205 0.958 . S
C1191 H1206 0.961 1_545 S
C1191 H1207 0.960 . S
H1192 C1176 0.931 . S
H1193 C1181 0.929 . S
H1194 C1182 0.960 . S
H1195 C1182 0.962 . S
H1196 C1182 0.960 . S
H1197 C1183 0.961 . S
H1198 C1183 0.961 . S
H1199 C1183 0.961 . S
H1200 C1184 0.931 . S
H1201 C1189 0.930 1_565 S
H1202 C1190 0.956 . S
H1203 C1190 0.961 . S
H1204 C1190 0.961 . S
H1205 C1191 0.958 . S
H1206 C1191 0.961 1_565 S
H1207 C1191 0.960 . S
C1208 C1209 1.391 . S
C1208 C1210 1.394 . S
C1208 H1224 0.931 . S
C1209 C1208 1.391 . S
C1209 C1213 1.376 . S
C1210 C1208 1.394 . S
C1210 C1211 1.369 . S
C1210 C1214 1.531 . S
C1211 C1210 1.369 . S
C1211 C1212 1.410 . S
C1211 C1219 1.503 . S
C1212 C1211 1.410 . S
C1212 C1213 1.392 . S
C1212 C1215 1.511 . S
C1213 C1209 1.376 . S
C1213 C1212 1.392 . S
C1213 H1225 0.929 . S
C1214 C1210 1.531 . S
C1214 H1226 0.960 . S
C1214 H1227 0.962 . S
C1214 H1228 0.960 . S
C1215 C1212 1.511 . S
C1215 H1229 0.961 . S
C1215 H1230 0.961 . S
C1215 H1231 0.961 . S
C1216 C1217 1.370 . S
C1216 C1218 1.363 . S
C1216 H1232 0.931 . S
C1217 C1216 1.370 . S
C1217 C1221 1.408 . S
C1218 C1216 1.363 . S
C1218 C1219 1.370 . S
C1218 C1222 1.524 . S
C1219 C1211 1.503 . S
C1219 C1218 1.370 . S
C1219 C1220 1.403 . S
C1220 C1219 1.403 . S
C1220 C1221 1.404 . S
C1220 C1223 1.539 . S
C1221 C1217 1.408 . S
C1221 C1220 1.404 . S
C1221 H1233 0.930 . S
C1222 C1218 1.524 . S
C1222 H1234 0.956 . S
C1222 H1235 0.961 . S
C1222 H1236 0.961 . S
C1223 C1220 1.539 . S
C1223 H1237 0.958 . S
C1223 H1238 0.961 . S
C1223 H1239 0.960 . S
H1224 C1208 0.931 . S
H1225 C1213 0.929 . S
H1226 C1214 0.960 . S
H1227 C1214 0.962 . S
H1228 C1214 0.960 . S
H1229 C1215 0.961 . S
H1230 C1215 0.961 . S
H1231 C1215 0.961 . S
H1232 C1216 0.931 . S
H1233 C1221 0.930 . S
H1234 C1222 0.956 . S
H1235 C1222 0.961 . S
H1236 C1222 0.961 . S
H1237 C1223 0.958 . S
H1238 C1223 0.961 . S
H1239 C1223 0.960 . S
C1240 C1241 1.391 . S
C1240 C1242 1.394 . S
C1240 H1256 0.931 . S
C1241 C1240 1.391 . S
C1241 C1245 1.376 . S
C1242 C1240 1.394 . S
C1242 C1243 1.369 . S
C1242 C1246 1.531 . S
C1243 C1242 1.369 . S
C1243 C1244 1.410 . S
C1243 C1251 1.503 . S
C1244 C1243 1.410 . S
C1244 C1245 1.392 . S
C1244 C1247 1.511 . S
C1245 C1241 1.376 . S
C1245 C1244 1.392 . S
C1245 H1257 0.929 1_655 S
C1246 C1242 1.531 . S
C1246 H1258 0.960 . S
C1246 H1259 0.962 . S
C1246 H1260 0.960 . S
C1247 C1244 1.511 . S
C1247 H1261 0.961 . S
C1247 H1262 0.961 . S
C1247 H1263 0.961 . S
C1248 C1249 1.370 . S
C1248 C1250 1.363 . S
C1248 H1264 0.931 . S
C1249 C1248 1.370 . S
C1249 C1253 1.408 . S
C1250 C1248 1.363 . S
C1250 C1251 1.370 . S
C1250 C1254 1.524 . S
C1251 C1243 1.503 . S
C1251 C1250 1.370 . S
C1251 C1252 1.403 . S
C1252 C1251 1.403 . S
C1252 C1253 1.404 . S
C1252 C1255 1.539 . S
C1253 C1249 1.408 . S
C1253 C1252 1.404 . S
C1253 H1265 0.930 1_545 S
C1254 C1250 1.524 . S
C1254 H1266 0.956 . S
C1254 H1267 0.961 . S
C1254 H1268 0.961 . S
C1255 C1252 1.539 . S
C1255 H1269 0.958 . S
C1255 H1270 0.961 1_545 S
C1255 H1271 0.960 . S
H1256 C1240 0.931 . S
H1257 C1245 0.929 1_455 S
H1258 C1246 0.960 . S
H1259 C1246 0.962 . S
H1260 C1246 0.960 . S
H1261 C1247 0.961 . S
H1262 C1247 0.961 . S
H1263 C1247 0.961 . S
H1264 C1248 0.931 . S
H1265 C1253 0.930 1_565 S
H1266 C1254 0.956 . S
H1267 C1254 0.961 . S
H1268 C1254 0.961 . S
H1269 C1255 0.958 . S
H1270 C1255 0.961 1_565 S
H1271 C1255 0.960 . S
C1272 C1273 1.391 . S
C1272 C1274 1.394 . S
C1272 H1288 0.931 . S
C1273 C1272 1.391 . S
C1273 C1277 1.376 . S
C1274 C1272 1.394 . S
C1274 C1275 1.369 . S
C1274 C1278 1.531 . S
C1275 C1274 1.369 . S
C1275 C1276 1.410 . S
C1275 C1283 1.503 . S
C1276 C1275 1.410 . S
C1276 C1277 1.392 . S
C1276 C1279 1.511 . S
C1277 C1273 1.376 . S
C1277 C1276 1.392 . S
C1277 H1289 0.929 . S
C1278 C1274 1.531 . S
C1278 H1290 0.960 . S
C1278 H1291 0.962 . S
C1278 H1292 0.960 . S
C1279 C1276 1.511 . S
C1279 H1293 0.961 . S
C1279 H1294 0.961 . S
C1279 H1295 0.961 . S
C1280 C1281 1.370 . S
C1280 C1282 1.363 . S
C1280 H1296 0.931 . S
C1281 C1280 1.370 . S
C1281 C1285 1.408 . S
C1282 C1280 1.363 . S
C1282 C1283 1.370 . S
C1282 C1286 1.524 . S
C1283 C1275 1.503 . S
C1283 C1282 1.370 . S
C1283 C1284 1.403 . S
C1284 C1283 1.403 . S
C1284 C1285 1.404 . S
C1284 C1287 1.539 . S
C1285 C1281 1.408 . S
C1285 C1284 1.404 . S
C1285 H1297 0.930 1_565 S
C1286 C1282 1.524 . S
C1286 H1298 0.956 . S
C1286 H1299 0.961 . S
C1286 H1300 0.961 . S
C1287 C1284 1.539 . S
C1287 H1301 0.958 . S
C1287 H1302 0.973 . S
C1287 H1303 0.960 . S
H1288 C1272 0.931 . S
H1289 C1277 0.929 . S
H1290 C1278 0.960 . S
H1291 C1278 0.962 . S
H1292 C1278 0.960 . S
H1293 C1279 0.961 . S
H1294 C1279 0.961 . S
H1295 C1279 0.961 . S
H1296 C1280 0.931 . S
H1297 C1285 0.930 1_545 S
H1298 C1286 0.956 . S
H1299 C1286 0.961 . S
H1300 C1286 0.961 . S
H1301 C1287 0.958 . S
H1302 C1287 0.973 . S
H1303 C1287 0.960 . S
C1304 C1305 1.391 . S
C1304 C1306 1.394 . S
C1304 H1320 0.931 . S
C1305 C1304 1.391 . S
C1305 C1309 1.376 . S
C1306 C1304 1.394 . S
C1306 C1307 1.369 . S
C1306 C1310 1.531 . S
C1307 C1306 1.369 . S
C1307 C1308 1.410 . S
C1307 C1315 1.503 . S
C1308 C1307 1.410 . S
C1308 C1309 1.392 . S
C1308 C1311 1.511 . S
C1309 C1305 1.376 . S
C1309 C1308 1.392 . S
C1309 H1321 0.929 . S
C1310 C1306 1.531 . S
C1310 H1322 0.960 . S
C1310 H1323 0.962 . S
C1310 H1324 0.960 . S
C1311 C1308 1.511 . S
C1311 H1325 0.961 . S
C1311 H1326 0.961 . S
C1311 H1327 0.961 . S
C1312 C1313 1.370 . S
C1312 C1314 1.363 . S
C1312 H1328 0.931 . S
C1313 C1312 1.370 . S
C1313 C1317 1.408 . S
C1314 C1312 1.363 . S
C1314 C1315 1.370 . S
C1314 C1318 1.524 . S
C1315 C1307 1.503 . S
C1315 C1314 1.370 . S
C1315 C1316 1.403 . S
C1316 C1315 1.403 . S
C1316 C1317 1.404 . S
C1316 C1319 1.539 . S
C1317 C1313 1.408 . S
C1317 C1316 1.404 . S
C1317 H1329 0.930 . S
C1318 C1314 1.524 . S
C1318 H1330 0.956 . S
C1318 H1331 0.961 . S
C1318 H1332 0.961 . S
C1319 C1316 1.539 . S
C1319 H1333 0.958 . S
C1319 H1334 0.961 . S
C1319 H1335 0.960 . S
H1320 C1304 0.931 . S
H1321 C1309 0.929 . S
H1322 C1310 0.960 . S
H1323 C1310 0.962 . S
H1324 C1310 0.960 . S
H1325 C1311 0.961 . S
H1326 C1311 0.961 . S
H1327 C1311 0.961 . S
H1328 C1312 0.931 . S
H1329 C1317 0.930 . S
H1330 C1318 0.956 . S
H1331 C1318 0.961 . S
H1332 C1318 0.961 . S
H1333 C1319 0.958 . S
H1334 C1319 0.961 . S
H1335 C1319 0.960 . S
C1336 C1337 1.391 . S
C1336 C1338 1.394 . S
C1336 H1352 0.931 . S
C1337 C1336 1.391 . S
C1337 C1341 1.376 . S
C1338 C1336 1.394 . S
C1338 C1339 1.369 . S
C1338 C1342 1.531 . S
C1339 C1338 1.369 . S
C1339 C1340 1.410 . S
C1339 C1347 1.503 . S
C1340 C1339 1.410 . S
C1340 C1341 1.392 . S
C1340 C1343 1.511 . S
C1341 C1337 1.376 . S
C1341 C1340 1.392 . S
C1341 H1353 0.929 . S
C1342 C1338 1.531 . S
C1342 H1354 0.960 . S
C1342 H1355 0.962 . S
C1342 H1356 0.960 . S
C1343 C1340 1.511 . S
C1343 H1357 0.961 . S
C1343 H1358 0.961 . S
C1343 H1359 0.961 . S
C1344 C1345 1.370 . S
C1344 C1346 1.363 . S
C1344 H1360 0.931 . S
C1345 C1344 1.370 . S
C1345 C1349 1.408 . S
C1346 C1344 1.363 . S
C1346 C1347 1.370 . S
C1346 C1350 1.524 . S
C1347 C1339 1.503 . S
C1347 C1346 1.370 . S
C1347 C1348 1.403 . S
C1348 C1347 1.403 . S
C1348 C1349 1.404 . S
C1348 C1351 1.539 . S
C1349 C1345 1.408 . S
C1349 C1348 1.404 . S
C1349 H1361 0.930 . S
C1350 C1346 1.524 . S
C1350 H1362 0.956 . S
C1350 H1363 0.961 . S
C1350 H1364 0.961 . S
C1351 C1348 1.539 . S
C1351 H1365 0.958 . S
C1351 H1366 0.961 . S
C1351 H1367 0.960 . S
H1352 C1336 0.931 . S
H1353 C1341 0.929 . S
H1354 C1342 0.960 . S
H1355 C1342 0.962 . S
H1356 C1342 0.960 . S
H1357 C1343 0.961 . S
H1358 C1343 0.961 . S
H1359 C1343 0.961 . S
H1360 C1344 0.931 . S
H1361 C1349 0.930 . S
H1362 C1350 0.956 . S
H1363 C1350 0.961 . S
H1364 C1350 0.961 . S
H1365 C1351 0.958 . S
H1366 C1351 0.961 . S
H1367 C1351 0.960 . S
C409 C111 1.477 . S
C417 C9 1.478 . S
C441 C145 1.465 . S
C449 C43 1.482 . S
C473 C179 1.471 . S
C481 C77 1.479 . S
C505 C213 1.485 . S
C513 C315 1.474 . S
C537 C247 1.476 . S
C545 C349 1.478 . S
C569 C281 1.487 . S
C577 C383 1.471 . S
C601 C326 1.925 . S
C609 C20 1.919 . S
C633 C54 1.891 . S
C641 C360 1.930 . S
C665 C394 1.889 . S
C673 C88 1.930 . S
C697 C224 1.888 . S
C705 C122 1.930 . S
C729 C156 1.924 . S
C737 C258 1.919 . S
C761 C190 1.902 . S
C769 C292 1.928 . S
C793 C5 0.193 . S
C801 C107 0.273 . S
C825 C39 0.271 . S
C833 C141 0.237 . S
C857 C175 0.334 . S
C865 C73 0.267 . S
C889 C209 0.197 . S
C897 C311 0.271 . S
C921 C243 0.192 . S
C929 C345 0.273 . S
C953 C379 0.178 . S
C961 C277 0.296 . S
C985 C407 1.565 . S
C993 C33 1.567 . S
C1017 C67 1.534 . S
C1025 C237 1.554 . S
C1049 C271 1.556 . S
C1057 C101 1.563 . S
C1081 C305 1.530 . S
C1089 C135 1.552 . S
C1113 C169 1.580 . S
C1121 C339 1.573 . S
C1145 C203 1.593 . S
C1153 C373 1.578 . S
C1177 C2 1.045 . S
C1185 C274 1.087 1_545 S
C1209 C36 1.068 1_455 S
C1217 C308 1.070 . S
C1241 C342 1.044 1_655 S
C1249 C70 1.081 1_545 S
C1273 C104 1.045 . S
C1281 C376 1.079 1_565 S
C1305 C206 1.071 . S
C1313 C138 1.069 1_655 S
C1337 C172 1.065 1_565 S
C1345 C240 1.099 1_455 S
