# Generated by pormake.
# Topology ske, (6)-cn, num edge types: 1
# Building blocks:
#     Node 0, Type 0, BuildingBlock: KUMBUR_clean_sbu_0, # of connection points: 6
#     Node 1, Type 0, BuildingBlock: KUMBUR_clean_sbu_0, # of connection points: 6
#     Node 2, Type 0, BuildingBlock: KUMBUR_clean_sbu_0, # of connection points: 6
#     Node 3, Type 0, BuildingBlock: KUMBUR_clean_sbu_0, # of connection points: 6
#     Node 4, Type 0, BuildingBlock: KUMBUR_clean_sbu_0, # of connection points: 6
#     Node 5, Type 0, BuildingBlock: KUMBUR_clean_sbu_0, # of connection points: 6
#     Node 6, Type 0, BuildingBlock: KUMBUR_clean_sbu_0, # of connection points: 6
#     Node 7, Type 0, BuildingBlock: KUMBUR_clean_sbu_0, # of connection points: 6
#     Edge 8, Type (0, 0), BuildingBlock: ZUJKAS_clean_linker_0, # of connection points: 2
#     Edge 9, Type (0, 0), BuildingBlock: ZUJKAS_clean_linker_0, # of connection points: 2
#     Edge 10, Type (0, 0), BuildingBlock: ZUJKAS_clean_linker_0, # of connection points: 2
#     Edge 11, Type (0, 0), BuildingBlock: ZUJKAS_clean_linker_0, # of connection points: 2
#     Edge 12, Type (0, 0), BuildingBlock: ZUJKAS_clean_linker_0, # of connection points: 2
#     Edge 13, Type (0, 0), BuildingBlock: ZUJKAS_clean_linker_0, # of connection points: 2
#     Edge 14, Type (0, 0), BuildingBlock: ZUJKAS_clean_linker_0, # of connection points: 2
#     Edge 15, Type (0, 0), BuildingBlock: ZUJKAS_clean_linker_0, # of connection points: 2
#     Edge 16, Type (0, 0), BuildingBlock: ZUJKAS_clean_linker_0, # of connection points: 2
#     Edge 17, Type (0, 0), BuildingBlock: ZUJKAS_clean_linker_0, # of connection points: 2
#     Edge 18, Type (0, 0), BuildingBlock: ZUJKAS_clean_linker_0, # of connection points: 2
#     Edge 19, Type (0, 0), BuildingBlock: ZUJKAS_clean_linker_0, # of connection points: 2
#     Edge 20, Type (0, 0), BuildingBlock: ZUJKAS_clean_linker_0, # of connection points: 2
#     Edge 21, Type (0, 0), BuildingBlock: ZUJKAS_clean_linker_0, # of connection points: 2
#     Edge 22, Type (0, 0), BuildingBlock: ZUJKAS_clean_linker_0, # of connection points: 2
#     Edge 23, Type (0, 0), BuildingBlock: ZUJKAS_clean_linker_0, # of connection points: 2
#     Edge 24, Type (0, 0), BuildingBlock: ZUJKAS_clean_linker_0, # of connection points: 2
#     Edge 25, Type (0, 0), BuildingBlock: ZUJKAS_clean_linker_0, # of connection points: 2
#     Edge 26, Type (0, 0), BuildingBlock: ZUJKAS_clean_linker_0, # of connection points: 2
#     Edge 27, Type (0, 0), BuildingBlock: ZUJKAS_clean_linker_0, # of connection points: 2
#     Edge 28, Type (0, 0), BuildingBlock: ZUJKAS_clean_linker_0, # of connection points: 2
#     Edge 29, Type (0, 0), BuildingBlock: ZUJKAS_clean_linker_0, # of connection points: 2
#     Edge 30, Type (0, 0), BuildingBlock: ZUJKAS_clean_linker_0, # of connection points: 2
#     Edge 31, Type (0, 0), BuildingBlock: ZUJKAS_clean_linker_0, # of connection points: 2
# Relax obj value: 0.119
# Max RMSD: 0.190
# Mean RMSD: 0.185
data_MOF--net-ske--node1-KUMBUR_clean_sbu_0--edge1-ZUJKAS_clean_linker_0
_symmetry_space_group_name_H-M    P1
_symmetry_Int_Tables_number       1
_symmetry_cell_setting            triclinic
loop_
_symmetry_equiv_pos_as_xyz
'x, y, z'
_cell_length_a     114.92938
_cell_length_b     39.214793
_cell_length_c     18.865957
_cell_angle_alpha  89.998101
_cell_angle_beta   89.899767
_cell_angle_gamma 115.4712
loop_
_atom_site_label
_atom_site_type_symbol
_atom_site_fract_x
_atom_site_fract_y
_atom_site_fract_z
_atom_type_partial_charge
Tb0 Tb 0.11782 0.22478 0.5804 0.0
C1 C 0.16815 0.32628 0.4437 0.0
C2 C 0.16857 0.29523 0.33367 0.0
C3 C 0.17933 0.36373 0.34138 0.0
C4 C 0.1645 0.29362 0.40465 0.0
C5 C 0.17594 0.36168 0.41335 0.0
C6 C 0.17564 0.33053 0.30154 0.0
C7 C 0.17764 0.38955 0.52936 0.0
N8 N 0.16491 0.3229 0.51337 0.0
C9 C 0.16993 0.35374 0.55706 0.0
C10 C 0.1805 0.39364 0.45696 0.0
Tb11 Tb 0.15213 0.26316 0.55383 0.0
N12 N 0.15796 0.26015 0.43835 0.0
C13 C 0.15606 0.22711 0.40525 0.0
C14 C 0.16588 0.26136 0.29819 0.0
C15 C 0.1598 0.22719 0.33457 0.0
H16 H 0.1677 0.3509 0.61298 0.0
H17 H 0.15792 0.20085 0.30813 0.0
H18 H 0.17871 0.33238 0.24676 0.0
H19 H 0.18134 0.41397 0.56382 0.0
H20 H 0.15131 0.20037 0.4322 0.0
H21 H 0.11318 0.28352 0.83353 0.0
H22 H 0.16879 0.26132 0.24354 0.0
H23 H 0.09804 0.14123 0.51174 0.0
H24 H 0.11929 0.28644 0.70855 0.0
H25 H 0.08329 0.07842 0.55646 0.0
H26 H 0.18519 0.3907 0.31674 0.0
H27 H 0.10215 0.22184 0.89376 0.0
H28 H 0.0913 0.15115 0.88434 0.0
H29 H 0.18652 0.42137 0.43572 0.0
H30 H 0.0831 0.09476 0.80828 0.0
N31 N 0.11257 0.22669 0.69731 0.0
C32 C 0.11462 0.25912 0.73331 0.0
C33 C 0.10489 0.22283 0.83854 0.0
C34 C 0.10165 0.18965 0.79961 0.0
C35 C 0.11108 0.25768 0.80466 0.0
C36 C 0.10547 0.19254 0.72786 0.0
H37 H 0.07973 0.0675 0.68543 0.0
N38 N 0.10344 0.16546 0.61454 0.0
C39 C 0.08826 0.10123 0.5933 0.0
C40 C 0.10078 0.16081 0.68501 0.0
C41 C 0.09663 0.13699 0.56813 0.0
C42 C 0.08632 0.09515 0.66614 0.0
C43 C 0.09228 0.1254 0.71289 0.0
O44 O 0.10968 0.2447 0.49901 0.0
O45 O 0.13339 0.24407 0.50375 0.0
O46 O 0.14539 0.30538 0.52243 0.0
O47 O 0.12742 0.2864 0.595 0.0
O48 O 0.11683 0.19816 0.47658 0.0
O49 O 0.10005 0.22744 0.59811 0.0
O50 O 0.16831 0.28121 0.62135 0.0
O51 O 0.13648 0.24107 0.63143 0.0
O52 O 0.12213 0.17567 0.58808 0.0
O53 O 0.14378 0.20104 0.55173 0.0
O54 O 0.15277 0.28707 0.65991 0.0
O55 O 0.16379 0.23382 0.55213 0.0
C56 C 0.12815 0.22066 0.45372 0.0
C57 C 0.08681 0.21662 0.49748 0.0
C58 C 0.06404 0.2026 0.48043 0.0
C59 C 0.07605 0.2237 0.51339 0.0
C60 C 0.06302 0.1745 0.43124 0.0
C61 C 0.08552 0.18872 0.44745 0.0
C62 C 0.07369 0.16777 0.41484 0.0
C63 C 0.13627 0.31189 0.5541 0.0
C64 C 0.09923 0.23803 0.53411 0.0
C65 C 0.08943 0.12186 0.78568 0.0
C66 C 0.0941 0.15397 0.829 0.0
C67 C 0.14173 0.26329 0.68288 0.0
C68 C 0.18587 0.27075 0.5781 0.0
C69 C 0.19455 0.26342 0.62151 0.0
C70 C 0.20778 0.2781 0.60335 0.0
C71 C 0.21208 0.29969 0.5411 0.0
C72 C 0.19052 0.29211 0.51622 0.0
C73 C 0.2035 0.3065 0.49793 0.0
C74 C 0.13277 0.17238 0.57024 0.0
C75 C 0.17206 0.25641 0.59741 0.0
H76 H 0.07698 0.24522 0.55194 0.0
H77 H 0.054 0.15814 0.40433 0.0
H78 H 0.09364 0.18304 0.43332 0.0
H79 H 0.0728 0.1463 0.37639 0.0
H80 H 0.19108 0.24685 0.66943 0.0
H81 H 0.22209 0.31084 0.52506 0.0
H82 H 0.18414 0.29763 0.48167 0.0
H83 H 0.20691 0.32292 0.44987 0.0
Tb84 Tb 0.8993 0.2738 0.58188 0.0
C85 C 0.84932 0.16083 0.44507 0.0
C86 C 0.84794 0.18837 0.33264 0.0
C87 C 0.83832 0.1201 0.34609 0.0
C88 C 0.85227 0.19225 0.4034 0.0
C89 C 0.84203 0.12435 0.41766 0.0
C90 C 0.84128 0.15211 0.30359 0.0
C91 C 0.8416 0.09949 0.53525 0.0
N92 N 0.8529 0.16631 0.51412 0.0
C93 C 0.84878 0.13629 0.55997 0.0
C94 C 0.83834 0.09342 0.46358 0.0
Tb95 Tb 0.86488 0.22759 0.54984 0.0
N96 N 0.85849 0.22667 0.43411 0.0
C97 C 0.85982 0.25841 0.39795 0.0
C98 C 0.85 0.22096 0.29423 0.0
C99 C 0.85578 0.25609 0.32744 0.0
H100 H 0.85128 0.14045 0.61538 0.0
H101 H 0.8572 0.28146 0.29869 0.0
H102 H 0.83802 0.14853 0.24906 0.0
H103 H 0.83861 0.07583 0.57148 0.0
H104 H 0.86433 0.28588 0.42221 0.0
H105 H 0.90684 0.21807 0.8309 0.0
H106 H 0.84684 0.21924 0.23973 0.0
H107 H 0.91226 0.36147 0.51918 0.0
H108 H 0.89968 0.2145 0.7072 0.0
H109 H 0.92471 0.42593 0.56528 0.0
H110 H 0.83283 0.0923 0.32373 0.0
H111 H 0.91704 0.27986 0.89157 0.0
H112 H 0.92553 0.35056 0.88464 0.0
H113 H 0.83274 0.06491 0.44465 0.0
H114 H 0.93037 0.40735 0.81223 0.0
N115 N 0.90538 0.27373 0.69758 0.0
C116 C 0.90411 0.24175 0.73261 0.0
C117 C 0.91388 0.2785 0.83713 0.0
C118 C 0.9158 0.31134 0.79986 0.0
C119 C 0.90817 0.24361 0.80299 0.0
C120 C 0.91148 0.30796 0.72916 0.0
H121 H 0.93035 0.43575 0.69253 0.0
N122 N 0.91046 0.33495 0.61987 0.0
C123 C 0.92171 0.40195 0.60074 0.0
C124 C 0.91409 0.33976 0.68895 0.0
C125 C 0.91465 0.36535 0.5748 0.0
C126 C 0.92484 0.40739 0.67266 0.0
C127 C 0.92123 0.37605 0.71753 0.0
O128 O 0.91553 0.2928 0.5146 0.0
O129 O 0.88403 0.25021 0.50362 0.0
O130 O 0.87284 0.18836 0.51877 0.0
O131 O 0.89166 0.21139 0.58622 0.0
O132 O 0.90009 0.29619 0.4737 0.0
O133 O 0.91218 0.24837 0.58946 0.0
O134 O 0.8489 0.21009 0.61901 0.0
O135 O 0.8802 0.25093 0.62823 0.0
O136 O 0.89107 0.31302 0.6106 0.0
O137 O 0.87281 0.28946 0.53934 0.0
O138 O 0.86436 0.20424 0.65687 0.0
O139 O 0.8529 0.25591 0.54654 0.0
C140 C 0.88908 0.27199 0.45134 0.0
C141 C 0.93401 0.28976 0.56443 0.0
C142 C 0.95575 0.29228 0.56642 0.0
C143 C 0.94252 0.27334 0.54836 0.0
C144 C 0.96014 0.32686 0.60288 0.0
C145 C 0.9389 0.32481 0.59904 0.0
C146 C 0.95177 0.34292 0.61886 0.0
C147 C 0.88263 0.18437 0.54828 0.0
C148 C 0.92022 0.27117 0.54341 0.0
C149 C 0.925 0.37971 0.78898 0.0
C150 C 0.92226 0.34738 0.83015 0.0
C151 C 0.8753 0.22849 0.67973 0.0
C152 C 0.831 0.21847 0.57576 0.0
C153 C 0.82241 0.22701 0.61775 0.0
C154 C 0.80911 0.21134 0.6013 0.0
C155 C 0.80466 0.18756 0.54186 0.0
C156 C 0.8262 0.19469 0.51699 0.0
C157 C 0.81315 0.1794 0.50015 0.0
C158 C 0.88159 0.31695 0.57713 0.0
C159 C 0.84487 0.23395 0.59362 0.0
H160 H 0.93896 0.24664 0.52041 0.0
H161 H 0.97011 0.34166 0.61904 0.0
H162 H 0.93287 0.33873 0.61011 0.0
H163 H 0.95532 0.36979 0.64609 0.0
H164 H 0.82602 0.24526 0.66349 0.0
H165 H 0.79459 0.1756 0.52692 0.0
H166 H 0.83252 0.18789 0.48393 0.0
H167 H 0.80961 0.16117 0.45444 0.0
Tb168 Tb 0.15285 0.7683 0.50161 0.0
C169 C 0.10317 0.6511 0.36938 0.0
C170 C 0.10079 0.677 0.25687 0.0
C171 C 0.09175 0.60894 0.27291 0.0
C172 C 0.10549 0.68198 0.32693 0.0
C173 C 0.09601 0.61418 0.34354 0.0
C174 C 0.09416 0.64032 0.22958 0.0
C175 C 0.09688 0.59063 0.46081 0.0
N176 N 0.1074 0.65739 0.43736 0.0
C177 C 0.10396 0.62778 0.48399 0.0
C178 C 0.09303 0.58375 0.39005 0.0
Tb179 Tb 0.11844 0.71941 0.47075 0.0
N180 N 0.11181 0.71689 0.35553 0.0
C181 C 0.1129 0.74805 0.31821 0.0
C182 C 0.10255 0.70898 0.21713 0.0
C183 C 0.10848 0.74463 0.24832 0.0
H184 H 0.10689 0.63264 0.53875 0.0
H185 H 0.10968 0.76952 0.21854 0.0
H186 H 0.09057 0.63592 0.17568 0.0
H187 H 0.09443 0.56733 0.49751 0.0
H188 H 0.11746 0.77585 0.34145 0.0
H189 H 0.16167 0.71592 0.75162 0.0
H190 H 0.09911 0.70639 0.16306 0.0
H191 H 0.16508 0.85569 0.4371 0.0
H192 H 0.15438 0.71093 0.6283 0.0
H193 H 0.1767 0.92064 0.48201 0.0
H194 H 0.08634 0.58079 0.25182 0.0
H195 H 0.17131 0.77813 0.81107 0.0
H196 H 0.1791 0.84858 0.8026 0.0
H197 H 0.08753 0.55495 0.37229 0.0
H198 H 0.18324 0.90453 0.72895 0.0
N199 N 0.15947 0.76977 0.61695 0.0
C200 C 0.15859 0.7384 0.65276 0.0
C201 C 0.16811 0.77616 0.75661 0.0
C202 C 0.16966 0.80845 0.71861 0.0
C203 C 0.16272 0.74104 0.72315 0.0
C204 C 0.16528 0.80424 0.64793 0.0
H205 H 0.1826 0.93172 0.6088 0.0
N206 N 0.16405 0.82987 0.53783 0.0
C207 C 0.17418 0.89694 0.51778 0.0
C208 C 0.16767 0.83552 0.6068 0.0
C209 C 0.16762 0.85999 0.49247 0.0
C210 C 0.17746 0.90309 0.58943 0.0
C211 C 0.1744 0.87216 0.63473 0.0
O212 O 0.16893 0.78775 0.43303 0.0
O213 O 0.13752 0.74357 0.42365 0.0
O214 O 0.12705 0.68121 0.44163 0.0
O215 O 0.14546 0.70645 0.5118 0.0
O216 O 0.15307 0.79107 0.39446 0.0
O217 O 0.16529 0.74146 0.50383 0.0
O218 O 0.10289 0.70247 0.54234 0.0
O219 O 0.13377 0.74431 0.54826 0.0
O220 O 0.14417 0.80586 0.53268 0.0
O221 O 0.12566 0.78156 0.46301 0.0
O222 O 0.11803 0.69773 0.57914 0.0
O223 O 0.10491 0.74248 0.4602 0.0
C224 C 0.14224 0.76602 0.37194 0.0
C225 C 0.18711 0.78047 0.47537 0.0
C226 C 0.20905 0.78733 0.45217 0.0
C227 C 0.19575 0.77103 0.43562 0.0
C228 C 0.21344 0.81256 0.50964 0.0
C229 C 0.19185 0.80582 0.53197 0.0
C230 C 0.2049 0.82164 0.54907 0.0
C231 C 0.13677 0.67836 0.47461 0.0
C232 C 0.17323 0.76426 0.45736 0.0
C233 C 0.17818 0.87662 0.7062 0.0
C234 C 0.17581 0.84477 0.74812 0.0
C235 C 0.12898 0.72256 0.60086 0.0
C236 C 0.08355 0.70067 0.49476 0.0
C237 C 0.07509 0.71797 0.50354 0.0
C238 C 0.06168 0.69683 0.49339 0.0
C239 C 0.05692 0.65884 0.4728 0.0
C240 C 0.07842 0.66256 0.47424 0.0
C241 C 0.06526 0.64197 0.46288 0.0
C242 C 0.13439 0.80909 0.50132 0.0
C243 C 0.09753 0.72154 0.51054 0.0
H244 H 0.19217 0.75164 0.39144 0.0
H245 H 0.2235 0.82501 0.52479 0.0
H246 H 0.18551 0.81349 0.56305 0.0
H247 H 0.20841 0.84106 0.59317 0.0
H248 H 0.07884 0.74724 0.52 0.0
H249 H 0.04669 0.64217 0.46433 0.0
H250 H 0.08449 0.64824 0.46821 0.0
H251 H 0.06148 0.6126 0.44723 0.0
Tb252 Tb 0.86413 0.72637 0.50786 0.0
C253 C 0.91457 0.84113 0.37776 0.0
C254 C 0.9174 0.81417 0.26734 0.0
C255 C 0.9267 0.88238 0.28151 0.0
C256 C 0.9123 0.80984 0.33654 0.0
C257 C 0.92201 0.87778 0.35135 0.0
C258 C 0.92439 0.85061 0.23954 0.0
C259 C 0.92047 0.90239 0.46664 0.0
N260 N 0.90992 0.83548 0.44504 0.0
C261 C 0.91313 0.86548 0.49048 0.0
C262 C 0.92481 0.90861 0.39654 0.0
Tb263 Tb 0.89865 0.77375 0.47974 0.0
N264 N 0.9056 0.77515 0.3655 0.0
C265 C 0.90445 0.74354 0.32957 0.0
C266 C 0.91566 0.78179 0.22903 0.0
C267 C 0.90931 0.74635 0.26072 0.0
H268 H 0.90984 0.86108 0.54475 0.0
H269 H 0.90815 0.72114 0.23226 0.0
H270 H 0.9283 0.85453 0.18629 0.0
H271 H 0.92276 0.926 0.50234 0.0
H272 H 0.89958 0.71592 0.35327 0.0
H273 H 0.85491 0.77969 0.75562 0.0
H274 H 0.91943 0.7839 0.17572 0.0
H275 H 0.8511 0.63918 0.44271 0.0
H276 H 0.86275 0.78429 0.63345 0.0
H277 H 0.83854 0.57443 0.48669 0.0
H278 H 0.93236 0.91031 0.26001 0.0
H279 H 0.84466 0.71748 0.81524 0.0
H280 H 0.83638 0.6469 0.80708 0.0
H281 H 0.93051 0.93722 0.37828 0.0
H282 H 0.83182 0.59073 0.73342 0.0
N283 N 0.85734 0.72525 0.62279 0.0
C284 C 0.8583 0.75685 0.65802 0.0
C285 C 0.84814 0.71932 0.76131 0.0
C286 C 0.84652 0.68683 0.72382 0.0
C287 C 0.85387 0.75442 0.7278 0.0
C288 C 0.85119 0.69082 0.65369 0.0
H289 H 0.8323 0.56341 0.61318 0.0
N290 N 0.85233 0.66497 0.54366 0.0
C291 C 0.84133 0.59809 0.52275 0.0
C292 C 0.84855 0.65942 0.61249 0.0
C293 C 0.84844 0.63495 0.49798 0.0
C294 C 0.83787 0.59197 0.59423 0.0
C295 C 0.84129 0.62288 0.63989 0.0
O296 O 0.84822 0.7079 0.43834 0.0
O297 O 0.87976 0.75019 0.4311 0.0
O298 O 0.8903 0.81203 0.44702 0.0
O299 O 0.87185 0.78832 0.51716 0.0
O300 O 0.86412 0.70331 0.40121 0.0
O301 O 0.852 0.75427 0.50892 0.0
O302 O 0.91421 0.79155 0.55108 0.0
O303 O 0.88307 0.74947 0.55632 0.0
O304 O 0.87223 0.6876 0.54008 0.0
O305 O 0.89132 0.71151 0.47466 0.0
O306 O 0.89882 0.79594 0.58731 0.0
O307 O 0.91203 0.75 0.47174 0.0
C308 C 0.87513 0.72777 0.37945 0.0
C309 C 0.83014 0.71598 0.48059 0.0
C310 C 0.80818 0.70872 0.4567 0.0
C311 C 0.82147 0.72456 0.4394 0.0
C312 C 0.80384 0.68487 0.51622 0.0
C313 C 0.82542 0.692 0.53922 0.0
C314 C 0.8124 0.67666 0.55698 0.0
C315 C 0.88068 0.81582 0.47931 0.0
C316 C 0.84404 0.73172 0.46245 0.0
C317 C 0.83729 0.61857 0.71105 0.0
C318 C 0.8399 0.65054 0.753 0.0
C319 C 0.88778 0.7714 0.60868 0.0
C320 C 0.93346 0.79319 0.50126 0.0
C321 C 0.94178 0.77507 0.49999 0.0
C322 C 0.95495 0.79558 0.48167 0.0
C323 C 0.95959 0.83416 0.46493 0.0
C324 C 0.93857 0.83192 0.48541 0.0
C325 C 0.95146 0.85207 0.46687 0.0
C326 C 0.88221 0.68413 0.51164 0.0
C327 C 0.91958 0.77219 0.52006 0.0
H328 H 0.82502 0.74294 0.39372 0.0
H329 H 0.7938 0.67286 0.53195 0.0
H330 H 0.83176 0.68509 0.57154 0.0
H331 H 0.80893 0.65832 0.6027 0.0
H332 H 0.93803 0.7453 0.51287 0.0
H333 H 0.96965 0.8509 0.45193 0.0
H334 H 0.93271 0.84705 0.48828 0.0
H335 H 0.95521 0.88191 0.45483 0.0
Tb336 Tb 0.61751 0.72629 0.09425 0.0
C337 C 0.66838 0.82787 0.96166 0.0
C338 C 0.66935 0.79688 0.85254 0.0
C339 C 0.68008 0.86537 0.86048 0.0
C340 C 0.6649 0.79523 0.92273 0.0
C341 C 0.67631 0.86328 0.93183 0.0
C342 C 0.6766 0.83218 0.82086 0.0
C343 C 0.67741 0.89113 0.04732 0.0
N344 N 0.66482 0.82444 0.03083 0.0
C345 C 0.6696 0.85529 0.07457 0.0
C346 C 0.68064 0.89524 0.9754 0.0
Tb347 Tb 0.65191 0.76463 0.07058 0.0
N348 N 0.65817 0.76173 0.956 0.0
C349 C 0.65637 0.72869 0.92327 0.0
C350 C 0.66686 0.76304 0.81751 0.0
C351 C 0.66052 0.72883 0.85347 0.0
H352 H 0.66711 0.85248 0.13014 0.0
H353 H 0.6588 0.70249 0.82745 0.0
H354 H 0.67995 0.83405 0.76666 0.0
H355 H 0.68092 0.91555 0.08179 0.0
H356 H 0.65146 0.70193 0.94992 0.0
H357 H 0.61179 0.78489 0.34471 0.0
H358 H 0.67014 0.76308 0.76361 0.0
H359 H 0.59807 0.64253 1.02447 0.0
H360 H 0.61867 0.78775 0.22117 0.0
H361 H 0.58323 0.57967 0.06843 0.0
H362 H 0.68605 0.89235 0.83624 0.0
H363 H 0.60038 0.72314 0.40458 0.0
H364 H 0.58976 0.65251 0.39555 0.0
H365 H 0.68675 0.92298 0.95453 0.0
H366 H 0.58196 0.59608 0.31968 0.0
N367 N 0.61193 0.728 0.21044 0.0
C368 C 0.61385 0.76046 0.24592 0.0
C369 C 0.6035 0.72417 0.35007 0.0
C370 C 0.60051 0.69098 0.31165 0.0
C371 C 0.6099 0.75903 0.31645 0.0
C372 C 0.60468 0.69385 0.24057 0.0
H373 H 0.57916 0.56877 0.19707 0.0
N374 N 0.60308 0.66682 0.1275 0.0
C375 C 0.58804 0.60251 0.10548 0.0
C376 C 0.60015 0.66214 0.19768 0.0
C377 C 0.59646 0.63831 0.08074 0.0
C378 C 0.58581 0.59643 0.17814 0.0
C379 C 0.59156 0.62671 0.22506 0.0
O380 O 0.60936 0.74546 1.01174 0.0
O381 O 0.6333 0.74543 1.01904 0.0
O382 O 0.64525 0.80669 0.03671 0.0
O383 O 0.62708 0.78812 0.10765 0.0
O384 O 0.61672 0.69982 0.99059 0.0
O385 O 0.59985 0.72973 0.11143 0.0
O386 O 0.66788 0.7827 0.1397 0.0
O387 O 0.63604 0.74274 0.14702 0.0
O388 O 0.62181 0.6771 0.10275 0.0
O389 O 0.64356 0.70247 0.06829 0.0
O390 O 0.65224 0.78897 0.17575 0.0
O391 O 0.66353 0.73514 0.07121 0.0
C392 C 0.62815 0.72209 0.96878 0.0
C393 C 0.58649 0.7184 1.01114 0.0
C394 C 0.56388 0.70624 0.99229 0.0
C395 C 0.57588 0.72646 0.02618 0.0
C396 C 0.56268 0.67742 0.94428 0.0
C397 C 0.58501 0.68996 0.96201 0.0
C398 C 0.57316 0.66952 0.92926 0.0
C399 C 0.63606 0.81344 0.06699 0.0
C400 C 0.599 0.7397 0.04701 0.0
C401 C 0.58838 0.62317 0.29745 0.0
C402 C 0.59283 0.65531 0.34067 0.0
C403 C 0.64116 0.76527 0.19826 0.0
C404 C 0.68555 0.77198 0.09897 0.0
C405 C 0.69412 0.76475 0.14359 0.0
C406 C 0.7074 0.77926 0.12641 0.0
C407 C 0.71184 0.80052 0.06389 0.0
C408 C 0.69037 0.79308 0.03698 0.0
C409 C 0.70338 0.80726 1.01963 0.0
C410 C 0.63249 0.67377 0.08584 0.0
C411 C 0.67168 0.75778 0.11694 0.0
H412 H 0.57707 0.74882 0.06325 0.0
H413 H 0.55359 0.66062 0.91853 0.0
H414 H 0.59299 0.68349 0.94873 0.0
H415 H 0.57209 0.64739 0.89195 0.0
H416 H 0.69052 0.7484 0.19162 0.0
H417 H 0.72188 0.81148 0.04845 0.0
H418 H 0.6841 0.79854 1.00159 0.0
H419 H 0.70692 0.82344 0.97142 0.0
Tb420 Tb 0.399 0.7744 0.10249 0.0
C421 C 0.34982 0.65757 0.97001 0.0
C422 C 0.34695 0.68331 0.85866 0.0
C423 C 0.33935 0.61545 0.87185 0.0
C424 C 0.35176 0.68838 0.92849 0.0
C425 C 0.34336 0.62064 0.94292 0.0
C426 C 0.34111 0.64678 0.82977 0.0
C427 C 0.34425 0.59696 0.05996 0.0
N428 N 0.35363 0.66395 0.03869 0.0
C429 C 0.35051 0.63415 0.0845 0.0
C430 C 0.34078 0.59014 0.98866 0.0
Tb431 Tb 0.3645 0.72609 0.0732 0.0
N432 N 0.35717 0.723 0.95912 0.0
C433 C 0.35687 0.75329 0.92482 0.0
C434 C 0.34748 0.71481 0.82156 0.0
C435 C 0.35213 0.74975 0.85555 0.0
H436 H 0.35321 0.63884 0.1396 0.0
H437 H 0.35221 0.77412 0.82822 0.0
H438 H 0.33751 0.64234 0.77589 0.0
H439 H 0.34212 0.57356 0.09605 0.0
H440 H 0.36053 0.78061 0.9499 0.0
H441 H 0.40797 0.71904 0.34835 0.0
H442 H 0.34385 0.71216 0.7679 0.0
H443 H 0.41035 0.86203 0.0399 0.0
H444 H 0.39901 0.71502 0.22887 0.0
H445 H 0.42379 0.92651 0.08252 0.0
H446 H 0.33448 0.58732 0.84971 0.0
H447 H 0.42061 0.78138 0.40343 0.0
H448 H 0.43036 0.85217 0.3932 0.0
H449 H 0.33588 0.56131 0.9699 0.0
H450 H 0.4345 0.90865 0.32128 0.0
N451 N 0.40614 0.77467 0.21593 0.0
C452 C 0.40446 0.74252 0.25179 0.0
C453 C 0.41668 0.77984 0.35073 0.0
C454 C 0.41878 0.81266 0.31289 0.0
C455 C 0.40956 0.74462 0.31981 0.0
C456 C 0.4134 0.80905 0.2446 0.0
H457 H 0.43216 0.93665 0.20522 0.0
N458 N 0.41062 0.83568 0.13841 0.0
C459 C 0.42151 0.90264 0.1176 0.0
C460 C 0.41562 0.84069 0.20469 0.0
C461 C 0.41387 0.86598 0.09365 0.0
C462 C 0.42619 0.90825 0.18692 0.0
C463 C 0.42343 0.87705 0.23111 0.0
O464 O 0.41461 0.79246 0.03104 0.0
O465 O 0.38349 0.75095 0.02618 0.0
O466 O 0.37332 0.6895 0.03764 0.0
O467 O 0.39157 0.71214 0.10866 0.0
O468 O 0.39932 0.79706 0.99508 0.0
O469 O 0.41183 0.74868 0.10664 0.0
O470 O 0.34853 0.70601 0.14253 0.0
O471 O 0.37997 0.75092 0.15044 0.0
O472 O 0.39057 0.81316 0.13225 0.0
O473 O 0.37187 0.78814 0.06357 0.0
O474 O 0.36445 0.70333 0.17947 0.0
O475 O 0.35197 0.75271 0.07313 0.0
C476 C 0.38811 0.77339 0.97452 0.0
C477 C 0.43347 0.79056 0.07874 0.0
C478 C 0.45452 0.78971 0.09614 0.0
C479 C 0.44142 0.77127 0.07568 0.0
C480 C 0.45949 0.82735 0.11954 0.0
C481 C 0.43892 0.82852 0.10039 0.0
C482 C 0.45176 0.84656 0.12126 0.0
C483 C 0.38296 0.68537 0.06865 0.0
C484 C 0.41958 0.77141 0.05944 0.0
C485 C 0.42854 0.88096 0.29981 0.0
C486 C 0.42621 0.8488 0.34068 0.0
C487 C 0.37523 0.72855 0.20217 0.0
C488 C 0.33022 0.71298 0.10163 0.0
C489 C 0.32159 0.72267 0.14092 0.0
C490 C 0.30826 0.706 0.1249 0.0
C491 C 0.30385 0.68019 0.06832 0.0
C492 C 0.32544 0.68695 0.04607 0.0
C493 C 0.31237 0.67082 0.02939 0.0
C494 C 0.38085 0.81636 0.09958 0.0
C495 C 0.34411 0.72945 0.11929 0.0
H496 H 0.43743 0.74218 0.05797 0.0
H497 H 0.46951 0.84233 0.13484 0.0
H498 H 0.43337 0.84464 0.10057 0.0
H499 H 0.45577 0.87577 0.13813 0.0
H500 H 0.3252 0.74251 0.18441 0.0
H501 H 0.29376 0.66744 0.05353 0.0
H502 H 0.33177 0.67894 1.01559 0.0
H503 H 0.30883 0.65089 0.98607 0.0
Tb504 Tb 0.65464 0.27191 0.99548 0.0
C505 C 0.6049 0.1559 0.86311 0.0
C506 C 0.60259 0.18243 0.75116 0.0
C507 C 0.59339 0.11428 0.76619 0.0
C508 C 0.6073 0.18702 0.82117 0.0
C509 C 0.59765 0.11914 0.83682 0.0
C510 C 0.59587 0.14589 0.72337 0.0
C511 C 0.59835 0.09503 0.9538 0.0
N512 N 0.6091 0.16183 0.93114 0.0
C513 C 0.60552 0.13204 0.97745 0.0
C514 C 0.59455 0.0885 0.88293 0.0
Tb515 Tb 0.62024 0.22363 0.96545 0.0
N516 N 0.61368 0.22178 0.85027 0.0
C517 C 0.61481 0.25317 0.8136 0.0
C518 C 0.60442 0.21464 0.71199 0.0
C519 C 0.6104 0.25014 0.74374 0.0
H520 H 0.60843 0.13671 0.03229 0.0
H521 H 0.61165 0.27521 0.71441 0.0
H522 H 0.59227 0.14178 0.6695 0.0
H523 H 0.5958 0.07157 0.99021 0.0
H524 H 0.61942 0.28085 0.83727 0.0
H525 H 0.66334 0.22042 0.2468 0.0
H526 H 0.601 0.21237 0.65793 0.0
H527 H 0.66733 0.35889 0.92872 0.0
H528 H 0.65597 0.21494 0.12361 0.0
H529 H 0.67947 0.42395 0.97172 0.0
H530 H 0.58789 0.08626 0.74474 0.0
H531 H 0.67335 0.28299 0.30471 0.0
H532 H 0.68165 0.35354 0.29421 0.0
H533 H 0.58897 0.05981 0.86481 0.0
H534 H 0.68613 0.40917 0.219 0.0
N535 N 0.66136 0.27386 0.11078 0.0
C536 C 0.66034 0.24256 0.14735 0.0
C537 C 0.67012 0.28081 0.25028 0.0
C538 C 0.67185 0.31301 0.21142 0.0
C539 C 0.66452 0.24548 0.21768 0.0
C540 C 0.66739 0.3085 0.14088 0.0
H541 H 0.6856 0.43572 0.09812 0.0
N542 N 0.66622 0.3336 0.03011 0.0
C543 C 0.67682 0.40047 1.00816 0.0
C544 C 0.66995 0.3396 0.0989 0.0
C545 C 0.66994 0.36342 0.98395 0.0
C546 C 0.68022 0.40702 0.07958 0.0
C547 C 0.67697 0.37635 0.12576 0.0
O548 O 0.67051 0.29011 0.92546 0.0
O549 O 0.63924 0.24705 0.91784 0.0
O550 O 0.62872 0.18494 0.93704 0.0
O551 O 0.64713 0.21005 1.00715 0.0
O552 O 0.65476 0.29458 0.88841 0.0
O553 O 0.66697 0.24471 0.99828 0.0
O554 O 0.60428 0.20519 0.03447 0.0
O555 O 0.63559 0.24848 0.0426 0.0
O556 O 0.64629 0.3104 0.02619 0.0
O557 O 0.62747 0.28591 0.95895 0.0
O558 O 0.61978 0.20225 0.07411 0.0
O559 O 0.60711 0.24813 0.95682 0.0
C560 C 0.64391 0.26951 0.86615 0.0
C561 C 0.68871 0.28296 0.96742 0.0
C562 C 0.7106 0.29026 0.94125 0.0
C563 C 0.69726 0.27403 0.92581 0.0
C564 C 0.71514 0.31497 0.99939 0.0
C565 C 0.69359 0.30773 1.02476 0.0
C566 C 0.70669 0.32354 0.04067 0.0
C567 C 0.63835 0.18183 0.97061 0.0
C568 C 0.6748 0.26677 0.9506 0.0
C569 C 0.68084 0.38116 0.19707 0.0
C570 C 0.67828 0.34949 0.23988 0.0
C571 C 0.63077 0.22698 0.09546 0.0
C572 C 0.58548 0.20561 0.98312 0.0
C573 C 0.57735 0.22427 0.98466 0.0
C574 C 0.56433 0.20516 0.96326 0.0
C575 C 0.5596 0.16743 0.94073 0.0
C576 C 0.58032 0.16763 0.96177 0.0
C577 C 0.56754 0.14884 0.94032 0.0
C578 C 0.63636 0.31355 0.9964 0.0
C579 C 0.59926 0.22553 1.00383 0.0
H580 H 0.69357 0.25505 0.88111 0.0
H581 H 0.72524 0.32736 1.01364 0.0
H582 H 0.6873 0.3149 0.0574 0.0
H583 H 0.7103 0.34253 0.08533 0.0
H584 H 0.58113 0.25345 1.00171 0.0
H585 H 0.54964 0.15199 0.92465 0.0
H586 H 0.58605 0.15207 0.9622 0.0
H587 H 0.56373 0.11961 0.9238 0.0
Tb588 Tb 0.36486 0.22808 0.98331 0.0
C589 C 0.40958 0.32192 0.81268 0.0
C590 C 0.40994 0.28013 0.71919 0.0
C591 C 0.41689 0.34669 0.69408 0.0
C592 C 0.40719 0.28616 0.78994 0.0
C593 C 0.41491 0.35288 0.76541 0.0
C594 C 0.41456 0.31043 0.67123 0.0
C595 C 0.41913 0.39461 0.86523 0.0
N596 N 0.40839 0.32707 0.88298 0.0
C597 C 0.41431 0.36316 0.90995 0.0
C598 C 0.41911 0.38943 0.79227 0.0
Tb599 Tb 0.39969 0.27275 0.95247 0.0
N600 N 0.40291 0.25765 0.83807 0.0
C601 C 0.40186 0.22268 0.81894 0.0
C602 C 0.40832 0.2441 0.69914 0.0
C603 C 0.40442 0.21538 0.74952 0.0
H604 H 0.4152 0.36793 0.96653 0.0
H605 H 0.40335 0.1875 0.73496 0.0
H606 H 0.41681 0.30638 0.61702 0.0
H607 H 0.42318 0.42283 0.88727 0.0
H608 H 0.399 0.19978 0.85617 0.0
H609 H 0.35845 0.29111 0.22702 0.0
H610 H 0.41029 0.23835 0.64537 0.0
H611 H 0.35062 0.13925 0.92787 0.0
H612 H 0.36547 0.29133 0.1044 0.0
H613 H 0.33756 0.07629 0.97888 0.0
H614 H 0.42091 0.37006 0.65712 0.0
H615 H 0.34761 0.23092 0.2924 0.0
H616 H 0.33824 0.16002 0.2912 0.0
H617 H 0.4232 0.41385 0.75774 0.0
H618 H 0.33252 0.10129 0.22354 0.0
N619 N 0.35894 0.23151 0.09865 0.0
C620 C 0.36072 0.26461 0.13116 0.0
C621 C 0.35066 0.23072 0.23808 0.0
C622 C 0.34825 0.19679 0.2036 0.0
C623 C 0.35673 0.26472 0.20127 0.0
C624 C 0.35247 0.19816 0.13295 0.0
H625 H 0.33195 0.0698 0.10642 0.0
N626 N 0.35278 0.16825 0.02603 0.0
C627 C 0.34086 0.10108 1.01233 0.0
C628 C 0.34929 0.16527 0.09531 0.0
C629 C 0.34826 0.13686 0.98359 0.0
C630 C 0.33774 0.09751 0.08439 0.0
C631 C 0.34178 0.12991 0.12664 0.0
O632 O 0.34904 0.20791 0.91292 0.0
O633 O 0.38048 0.25272 0.90426 0.0
O634 O 0.39402 0.31811 0.9755 0.0
O635 O 0.37155 0.2896 0.98508 0.0
O636 O 0.36513 0.2025 0.88076 0.0
O637 O 0.35216 0.25401 0.9831 0.0
O638 O 0.41829 0.3055 0.99225 0.0
O639 O 0.38395 0.25274 0.02739 0.0
O640 O 0.37221 0.18812 1.02006 0.0
O641 O 0.39246 0.2109 0.96576 0.0
O642 O 0.40169 0.2837 0.06798 0.0
O643 O 0.41268 0.24781 0.96217 0.0
C644 C 0.37561 0.22818 0.85553 0.0
C645 C 0.33053 0.21445 0.9528 0.0
C646 C 0.30853 0.20585 0.92599 0.0
C647 C 0.32186 0.22214 0.9099 0.0
C648 C 0.3041 0.18223 0.98573 0.0
C649 C 0.32575 0.19102 1.01212 0.0
C650 C 0.31266 0.17498 0.02835 0.0
C651 C 0.38283 0.31951 0.9837 0.0
C652 C 0.34448 0.23103 0.93612 0.0
C653 C 0.33816 0.12821 0.19817 0.0
C654 C 0.3414 0.16164 0.23665 0.0
C655 C 0.38983 0.2647 0.08567 0.0
C656 C 0.43452 0.29076 0.94216 0.0
C657 C 0.44349 0.27641 0.96052 0.0
C658 C 0.45505 0.28719 0.92132 0.0
C659 C 0.45746 0.31231 0.86411 0.0
C660 C 0.43745 0.31653 0.8858 0.0
C661 C 0.44875 0.32692 0.8468 0.0
C662 C 0.38257 0.18412 0.9993 0.0
C663 C 0.42221 0.27928 0.98165 0.0
H664 H 0.32546 0.24035 0.86403 0.0
H665 H 0.294 0.16982 1.00037 0.0
H666 H 0.33211 0.18523 0.04635 0.0
H667 H 0.30914 0.157 0.0745 0.0
H668 H 0.44147 0.2569 1.00451 0.0
H669 H 0.46629 0.32139 0.8336 0.0
H670 H 0.43115 0.32921 0.87212 0.0
H671 H 0.45082 0.34673 0.80336 0.0
H672 H 0.20569 0.21069 0.65772 0.0
H673 H 0.22271 0.1984 0.71507 0.0
H674 H 0.24852 0.31687 0.70182 0.0
H675 H 0.23158 0.32931 0.64585 0.0
H676 H 0.24688 0.21346 0.65348 0.0
H677 H 0.25328 0.29135 0.90657 0.0
H678 H 0.23916 0.27859 0.85178 0.0
H679 H 0.25387 0.31888 0.82945 0.0
C680 C 0.21489 0.23418 0.66869 0.0
C681 C 0.21728 0.27095 0.64721 0.0
C682 C 0.22464 0.22711 0.70092 0.0
C683 C 0.23689 0.25675 0.71324 0.0
C684 C 0.23912 0.29362 0.69395 0.0
H685 H 0.3105 0.27398 0.8758 0.0
H686 H 0.29356 0.28665 0.81855 0.0
C687 C 0.22944 0.30064 0.6615 0.0
C688 C 0.24761 0.24907 0.7418 0.0
H689 H 0.26954 0.27159 0.87644 0.0
C690 C 0.25177 0.22593 0.70253 0.0
C691 C 0.2541 0.26569 0.80536 0.0
C692 C 0.24983 0.28975 0.85116 0.0
C693 C 0.26235 0.21943 0.72444 0.0
C694 C 0.26882 0.23595 0.78815 0.0
C695 C 0.26466 0.25913 0.82738 0.0
C696 C 0.27951 0.22815 0.81687 0.0
C697 C 0.26666 0.1956 0.67826 0.0
C698 C 0.27734 0.19108 0.83422 0.0
C699 C 0.28699 0.18382 0.86642 0.0
C700 C 0.29905 0.21347 0.8827 0.0
C701 C 0.30138 0.2505 0.86334 0.0
C702 C 0.29167 0.25778 0.83116 0.0
H703 H 0.26342 0.19478 0.62259 0.0
H704 H 0.27732 0.20638 0.67864 0.0
H705 H 0.26241 0.1662 0.69871 0.0
H706 H 0.26801 0.16779 0.82493 0.0
H707 H 0.28489 0.15494 0.88022 0.0
H708 H 0.73441 0.33992 0.89426 0.0
H709 H 0.75082 0.3258 0.836 0.0
H710 H 0.72471 0.20737 0.83374 0.0
H711 H 0.70817 0.22138 0.89226 0.0
H712 H 0.76196 0.28134 0.88835 0.0
H713 H 0.73824 0.22498 0.63078 0.0
H714 H 0.73267 0.25085 0.69033 0.0
H715 H 0.72872 0.20196 0.70698 0.0
C716 C 0.7321 0.31085 0.88101 0.0
C717 C 0.71997 0.28174 0.89831 0.0
C718 C 0.74151 0.30283 0.84756 0.0
C719 C 0.73903 0.26556 0.83006 0.0
C720 C 0.72681 0.23646 0.84554 0.0
H721 H 0.78523 0.16133 0.64655 0.0
H722 H 0.76874 0.17502 0.70505 0.0
C723 C 0.71734 0.24449 0.87898 0.0
C724 C 0.74948 0.25727 0.79895 0.0
H725 H 0.75757 0.21922 0.65465 0.0
C726 C 0.76102 0.26788 0.8371 0.0
C727 C 0.74827 0.23966 0.73215 0.0
C728 C 0.73636 0.22897 0.68725 0.0
C729 C 0.77125 0.26084 0.81092 0.0
C730 C 0.77005 0.2433 0.74404 0.0
C731 C 0.75851 0.23266 0.70592 0.0
C732 C 0.78054 0.2352 0.71278 0.0
C733 C 0.78314 0.27144 0.85598 0.0
C734 C 0.79279 0.2644 0.69821 0.0
C735 C 0.80231 0.2566 0.66479 0.0
C736 C 0.7997 0.2195 0.64446 0.0
C737 C 0.78753 0.19029 0.66072 0.0
C738 C 0.77807 0.19806 0.69425 0.0
H739 H 0.78119 0.27499 0.91256 0.0
H740 H 0.78691 0.24974 0.85235 0.0
H741 H 0.79075 0.29868 0.83692 0.0
H742 H 0.79488 0.2934 0.71072 0.0
H743 H 0.81151 0.27978 0.65224 0.0
H744 H 0.28436 0.65686 0.17178 0.0
H745 H 0.26777 0.67157 0.22617 0.0
H746 H 0.29397 0.78992 0.2271 0.0
H747 H 0.31059 0.77543 0.17056 0.0
H748 H 0.26685 0.70612 0.35165 0.0
H749 H 0.26277 0.78947 0.12308 0.0
H750 H 0.27134 0.76032 0.11761 0.0
H751 H 0.27872 0.80595 0.15913 0.0
C752 C 0.28661 0.68609 0.18331 0.0
C753 C 0.29878 0.71502 0.16576 0.0
C754 C 0.27711 0.69443 0.2148 0.0
C755 C 0.27948 0.73192 0.22941 0.0
C756 C 0.29179 0.76082 0.21486 0.0
H757 H 0.23301 0.83659 0.40627 0.0
H758 H 0.24961 0.82198 0.35167 0.0
C759 C 0.30135 0.75247 0.18333 0.0
C760 C 0.26896 0.74042 0.25914 0.0
H761 H 0.25049 0.78753 0.22514 0.0
C762 C 0.26326 0.72386 0.3239 0.0
C763 C 0.2642 0.76342 0.22283 0.0
C764 C 0.26947 0.78058 0.15151 0.0
C765 C 0.25314 0.73022 0.35391 0.0
C766 C 0.24838 0.75322 0.31761 0.0
C767 C 0.25409 0.76979 0.25288 0.0
C768 C 0.23786 0.76168 0.34733 0.0
C769 C 0.24785 0.71301 0.42518 0.0
C770 C 0.22552 0.73278 0.36131 0.0
C771 C 0.21595 0.74107 0.39286 0.0
C772 C 0.21854 0.77845 0.41108 0.0
C773 C 0.23074 0.80741 0.39414 0.0
C774 C 0.24025 0.79913 0.36258 0.0
H775 H 0.25451 0.70395 0.45353 0.0
H776 H 0.24602 0.73332 0.45917 0.0
H777 H 0.23857 0.68775 0.4175 0.0
H778 H 0.22333 0.70373 0.34863 0.0
H779 H 0.20669 0.7181 0.40519 0.0
H780 H 0.73125 0.8304 0.16853 0.0
H781 H 0.74812 0.81788 0.22538 0.0
H782 H 0.72192 0.69994 0.24332 0.0
H783 H 0.70501 0.71224 0.18481 0.0
H784 H 0.74986 0.78706 0.35561 0.0
H785 H 0.75242 0.69762 0.13341 0.0
H786 H 0.74391 0.72688 0.1265 0.0
H787 H 0.73674 0.68253 0.17275 0.0
C788 C 0.72904 0.80178 0.18494 0.0
C789 C 0.71682 0.77221 0.17134 0.0
C790 C 0.7387 0.7947 0.21762 0.0
C791 C 0.73641 0.75785 0.23725 0.0
C792 C 0.72401 0.7285 0.22724 0.0
H793 H 0.78425 0.65837 0.41366 0.0
H794 H 0.76737 0.67169 0.35954 0.0
C795 C 0.71429 0.73562 0.19462 0.0
C796 C 0.74716 0.75036 0.26623 0.0
H797 H 0.76559 0.70303 0.23284 0.0
C798 C 0.75331 0.76872 0.32874 0.0
C799 C 0.75174 0.72663 0.23093 0.0
C800 C 0.74597 0.7075 0.16185 0.0
C801 C 0.7637 0.76339 0.35768 0.0
C802 C 0.76828 0.73965 0.32239 0.0
C803 C 0.76214 0.72134 0.25979 0.0
C804 C 0.779 0.73195 0.35131 0.0
C805 C 0.76944 0.78245 0.42688 0.0
C806 C 0.79137 0.76122 0.36273 0.0
C807 C 0.80109 0.75366 0.3941 0.0
C808 C 0.79863 0.71667 0.41457 0.0
C809 C 0.78642 0.68728 0.39975 0.0
C810 C 0.77675 0.69483 0.3685 0.0
H811 H 0.7629 0.79193 0.45557 0.0
H812 H 0.77161 0.76319 0.46196 0.0
H813 H 0.77859 0.80769 0.41607 0.0
H814 H 0.79345 0.79 0.34837 0.0
H815 H 0.81037 0.77692 0.40475 0.0
H816 H 0.1473 0.8664 0.59427 0.0
H817 H 0.14626 0.92711 0.60426 0.0
H818 H 0.11783 0.89454 0.43822 0.0
H819 H 0.11897 0.8337 0.42656 0.0
H820 H 0.14722 0.97845 0.4544 0.0
H821 H 0.10666 0.93376 0.64824 0.0
H822 H 0.11803 0.91322 0.65069 0.0
H823 H 0.10684 0.90224 0.57887 0.0
C824 C 0.14091 0.87214 0.55928 0.0
C825 C 0.13335 0.84531 0.50888 0.0
C826 C 0.14028 0.9068 0.56545 0.0
C827 C 0.13199 0.91517 0.52192 0.0
C828 C 0.12429 0.88844 0.47221 0.0
H829 H 0.11251 0.10613 0.53233 0.0
H830 H 0.11225 0.04382 0.52062 0.0
C831 C 0.12494 0.85372 0.46577 0.0
C832 C 0.13158 0.95221 0.52807 0.0
H833 H 0.11637 -0.0021 0.61506 0.0
C834 C 0.14047 0.98283 0.48928 0.0
C835 C 0.1227 0.95749 0.57328 0.0
C836 C 0.11296 0.92509 0.61543 0.0
C837 C 0.14074 0.01889 0.49471 0.0
C838 C 0.13208 0.02457 0.5416 0.0
C839 C 0.12306 0.99364 0.57958 0.0
C840 C 0.13216 0.06227 0.55151 0.0
C841 C 0.15014 0.05035 0.44914 0.0
C842 C 0.14335 0.09329 0.57424 0.0
C843 C 0.14348 0.12897 0.58116 0.0
C844 C 0.13235 0.13417 0.56688 0.0
C845 C 0.12109 0.10291 0.54578 0.0
C846 C 0.12099 0.0673 0.53831 0.0
H847 H 0.15328 0.03918 0.40239 0.0
H848 H 0.14585 0.06925 0.4302 0.0
H849 H 0.15884 0.06742 0.4808 0.0
H850 H 0.152 0.08996 0.58645 0.0
H851 H 0.15229 0.15251 0.59784 0.0
H852 H 0.89604 0.37903 0.6578 0.0
H853 H 0.89731 0.44247 0.64755 0.0
H854 H 0.86658 0.40223 0.49371 0.0
H855 H 0.86614 0.33963 0.49879 0.0
H856 H 0.88413 0.46505 0.44959 0.0
H857 H 0.87519 0.48551 0.73098 0.0
H858 H 0.88915 0.4767 0.72111 0.0
H859 H 0.8735 0.44062 0.69738 0.0
C860 C 0.88972 0.3838 0.6208 0.0
C861 C 0.8813 0.35441 0.5775 0.0
C862 C 0.89025 0.42003 0.61612 0.0
C863 C 0.88193 0.42726 0.57042 0.0
C864 C 0.87316 0.39754 0.52914 0.0
H865 H 0.86671 0.62395 0.59281 0.0
H866 H 0.86697 0.56261 0.60274 0.0
C867 C 0.87287 0.36159 0.53243 0.0
C868 C 0.88263 0.46593 0.56339 0.0
H869 H 0.88257 0.54021 0.65753 0.0
C870 C 0.88369 0.48136 0.49511 0.0
C871 C 0.88194 0.48721 0.62257 0.0
C872 C 0.87974 0.47148 0.69698 0.0
C873 C 0.88398 0.51715 0.48424 0.0
C874 C 0.88381 0.53905 0.54362 0.0
C875 C 0.88285 0.52373 0.61194 0.0
C876 C 0.88382 0.57689 0.53629 0.0
C877 C 0.88395 0.53029 0.40904 0.0
C878 C 0.89327 0.60588 0.49626 0.0
C879 C 0.89281 0.6408 0.48806 0.0
C880 C 0.88307 0.64771 0.52125 0.0
C881 C 0.87404 0.61928 0.56416 0.0
C882 C 0.8743 0.5842 0.57081 0.0
H883 H 0.88012 0.50615 0.37146 0.0
H884 H 0.87805 0.54636 0.40415 0.0
H885 H 0.89397 0.54887 0.39268 0.0
H886 H 0.90102 0.60158 0.47124 0.0
H887 H 0.90008 0.66228 0.4557 0.0
H888 H 0.86508 0.83861 0.5564 0.0
H889 H 0.86574 0.90148 0.56173 0.0
H890 H 0.89678 0.94144 0.40911 0.0
H891 H 0.89531 0.87779 0.39855 0.0
H892 H 0.88342 0.96355 0.60721 0.0
H893 H 0.87533 0.9866 0.32598 0.0
H894 H 0.87332 0.94124 0.35869 0.0
H895 H 0.88912 0.97697 0.33602 0.0
C896 C 0.8719 0.86056 0.52297 0.0
C897 C 0.88037 0.85326 0.47826 0.0
C898 C 0.87232 0.89667 0.52642 0.0
C899 C 0.88127 0.92641 0.48569 0.0
C900 C 0.88959 0.919 0.4401 0.0
H901 H 0.9002 0.16151 0.60485 0.0
H902 H 0.90095 0.10058 0.58851 0.0
C903 C 0.88893 0.88264 0.4352 0.0
C904 C 0.88219 0.96528 0.49341 0.0
H905 H 0.88283 0.04081 0.40059 0.0
C906 C 0.88319 0.98032 0.56198 0.0
C907 C 0.88179 0.98719 0.43458 0.0
C908 C 0.87969 0.972 0.35983 0.0
C909 C 0.88367 0.01629 0.57349 0.0
C910 C 0.88377 0.03877 0.5145 0.0
C911 C 0.8829 0.02387 0.44589 0.0
C912 C 0.8839 0.07673 0.52249 0.0
C913 C 0.88356 0.02901 0.64891 0.0
C914 C 0.87454 0.08458 0.4878 0.0
C915 C 0.87439 0.11977 0.49492 0.0
C916 C 0.88337 0.1478 0.5385 0.0
C917 C 0.89296 0.14035 0.57197 0.0
C918 C 0.89332 0.10531 0.5633 0.0
H919 H 0.87958 0.00466 0.68604 0.0
H920 H 0.89358 0.04724 0.66572 0.0
H921 H 0.87775 0.04536 0.65399 0.0
H922 H 0.86724 0.06333 0.45532 0.0
H923 H 0.86717 0.12483 0.46607 0.0
H924 H 0.12239 0.61505 0.39661 0.0
H925 H 0.1214 0.55197 0.41012 0.0
H926 H 0.15271 0.59558 0.55998 0.0
H927 H 0.15298 0.65787 0.55139 0.0
H928 H 0.13668 0.52148 0.38534 0.0
H929 H 0.12792 0.51083 0.67428 0.0
H930 H 0.12754 0.54885 0.62219 0.0
H931 H 0.14267 0.5509 0.65313 0.0
C932 C 0.12884 0.61105 0.43381 0.0
C933 C 0.13733 0.64124 0.47534 0.0
C934 C 0.12839 0.57499 0.44082 0.0
C935 C 0.13666 0.56854 0.48816 0.0
C936 C 0.14582 0.59931 0.52559 0.0
H937 H 0.15224 0.37087 0.47123 0.0
H938 H 0.1522 0.4324 0.45667 0.0
C939 C 0.14606 0.63515 0.5199 0.0
C940 C 0.13579 0.52982 0.49774 0.0
H941 H 0.13406 0.46514 0.62352 0.0
C942 C 0.136 0.50907 0.43745 0.0
C943 C 0.13458 0.51304 0.56555 0.0
C944 C 0.13301 0.53191 0.63231 0.0
C945 C 0.13532 0.47253 0.44307 0.0
C946 C 0.13501 0.45684 0.51114 0.0
C947 C 0.13451 0.47725 0.57133 0.0
C948 C 0.13523 0.41944 0.52137 0.0
C949 C 0.13462 0.45094 0.37574 0.0
C950 C 0.12609 0.39196 0.56538 0.0
C951 C 0.12647 0.35717 0.57651 0.0
C952 C 0.13596 0.34898 0.54346 0.0
C953 C 0.145 0.3764 0.49894 0.0
C954 C 0.14481 0.41146 0.48922 0.0
H955 H 0.13036 0.46063 0.33174 0.0
H956 H 0.1445 0.45598 0.35933 0.0
H957 H 0.12878 0.42012 0.38308 0.0
H958 H 0.1186 0.39736 0.591 0.0
H959 H 0.11927 0.33667 0.6107 0.0
H960 H 0.61252 0.6081 0.04221 0.0
H961 H 0.61229 0.5457 0.02994 0.0
H962 H 0.65151 0.59068 0.10396 0.0
H963 H 0.65175 0.65326 0.11696 0.0
H964 H 0.63343 0.53278 0.94288 0.0
H965 H 0.628 0.49039 0.22714 0.0
H966 H 0.62224 0.52336 0.19262 0.0
H967 H 0.63918 0.53796 0.2046 0.0
C968 C 0.62096 0.60456 0.05776 0.0
C969 C 0.63204 0.63547 0.08209 0.0
C970 C 0.62088 0.56896 0.04981 0.0
C971 C 0.63185 0.56355 0.06659 0.0
C972 C 0.64291 0.59424 0.09129 0.0
H973 H 0.65078 0.37316 0.0819 0.0
H974 H 0.64949 0.43319 0.09474 0.0
C975 C 0.64304 0.62994 0.09857 0.0
C976 C 0.63189 0.52612 0.05611 0.0
H977 H 0.63108 0.44948 0.1456 0.0
C978 C 0.63286 0.51439 0.98701 0.0
C979 C 0.63123 0.50247 0.11389 0.0
C980 C 0.63004 0.51385 0.18894 0.0
C981 C 0.63348 0.47986 0.97419 0.0
C982 C 0.63272 0.4559 0.03204 0.0
C983 C 0.63163 0.46767 0.10118 0.0
C984 C 0.63348 0.41914 1.02253 0.0
C985 C 0.63542 0.47015 0.89903 0.0
C986 C 0.62482 0.39079 0.97814 0.0
C987 C 0.62574 0.35652 0.96934 0.0
C988 C 0.63522 0.34966 1.00557 0.0
C989 C 0.6436 0.37769 0.05157 0.0
C990 C 0.64278 0.41203 0.0596 0.0
H991 H 0.63951 0.49568 0.86478 0.0
H992 H 0.64195 0.45596 0.89705 0.0
H993 H 0.62598 0.4507 0.87644 0.0
H994 H 0.6173 0.39502 0.95057 0.0
H995 H 0.61901 0.33544 0.93421 0.0
H996 H 0.39558 0.88021 0.1761 0.0
H997 H 0.39661 0.94337 0.16241 0.0
H998 H 0.36556 0.90018 1.0109 0.0
H999 H 0.36513 0.83772 1.02039 0.0
H1000 H 0.38345 0.96251 0.96254 0.0
H1001 H 0.37435 0.98825 0.24104 0.0
H1002 H 0.3882 0.97869 0.2327 0.0
H1003 H 0.37247 0.94261 0.21055 0.0
C1004 C 0.38906 0.88419 0.13923 0.0
C1005 C 0.38051 0.85389 0.09806 0.0
C1006 C 0.38951 0.92032 0.1324 0.0
C1007 C 0.38108 0.92674 0.08609 0.0
C1008 C 0.37222 0.89618 0.04682 0.0
H1009 H 0.36616 0.12567 0.08207 0.0
H1010 H 0.36603 0.06409 0.10036 0.0
C1011 C 0.37194 0.86027 0.05263 0.0
C1012 C 0.38178 0.96537 0.0759 0.0
H1013 H 0.38144 0.0413 0.1634 0.0
C1014 C 0.38294 0.97962 1.00655 0.0
C1015 C 0.38098 0.98773 0.13303 0.0
C1016 C 0.37879 0.97339 0.20838 0.0
C1017 C 0.38332 0.01532 0.99269 0.0
C1018 C 0.38302 0.03829 0.05001 0.0
C1019 C 0.38184 0.02403 0.11938 0.0
C1020 C 0.38333 0.07642 0.03908 0.0
C1021 C 0.38357 0.02733 0.91645 0.0
C1022 C 0.39322 0.10451 0.99967 0.0
C1023 C 0.39308 0.13958 0.98723 0.0
C1024 C 0.38315 0.14762 1.01492 0.0
C1025 C 0.37366 0.12013 0.05744 0.0
C1026 C 0.37368 0.08492 0.06884 0.0
H1027 H 0.37984 0.00264 0.88012 0.0
H1028 H 0.37774 0.04344 0.90899 0.0
H1029 H 0.39366 0.04561 0.90071 0.0
H1030 H 0.40106 0.09933 0.97826 0.0
H1031 H 0.40073 0.16024 0.95555 0.0
H1032 H 0.36449 0.34283 0.94476 0.0
H1033 H 0.3652 0.40583 0.95933 0.0
H1034 H 0.40186 0.44331 0.06528 0.0
H1035 H 0.40135 0.38087 0.04899 0.0
H1036 H 0.36567 0.44621 0.07204 0.0
H1037 H 0.4108 0.52523 0.92165 0.0
H1038 H 0.40263 0.47435 0.9213 0.0
H1039 H 0.41302 0.49893 0.99385 0.0
C1040 C 0.37273 0.36462 0.97081 0.0
C1041 C 0.383 0.35716 0.99431 0.0
C1042 C 0.37313 0.40063 0.97914 0.0
C1043 C 0.38376 0.4298 1.01175 0.0
C1044 C 0.39379 0.42187 0.03753 0.0
H1045 H 0.39784 0.65846 0.14306 0.0
H1046 H 0.39828 0.59671 0.1303 0.0
C1047 C 0.39348 0.38608 0.02831 0.0
C1048 C 0.38418 0.46815 1.02017 0.0
H1049 H 0.40267 0.56211 0.98779 0.0
C1050 C 0.37374 0.47147 0.05325 0.0
C1051 C 0.3947 0.50131 0.99555 0.0
C1052 C 0.40585 0.49982 0.95547 0.0
C1053 C 0.3736 0.50684 0.06295 0.0
C1054 C 0.38418 0.53982 0.03926 0.0
C1055 C 0.39464 0.53672 1.0065 0.0
C1056 C 0.38426 0.57765 0.04569 0.0
C1057 C 0.36217 0.50891 0.09878 0.0
C1058 C 0.37645 0.5876 1.00134 0.0
C1059 C 0.37628 0.62288 1.00787 0.0
C1060 C 0.3838 0.64884 0.05961 0.0
C1061 C 0.39186 0.6391 0.10297 0.0
C1062 C 0.39212 0.60382 0.09588 0.0
H1063 H 0.35565 0.4816 0.12344 0.0
H1064 H 0.36546 0.53118 0.14021 0.0
H1065 H 0.3566 0.51663 0.05905 0.0
H1066 H 0.37045 0.56799 0.9616 0.0
H1067 H 0.37023 0.62974 0.97225 0.0
H1068 H 0.62395 0.11819 0.89317 0.0
H1069 H 0.62249 0.0547 0.9096 0.0
H1070 H 0.65331 0.09798 0.0625 0.0
H1071 H 0.65403 0.1607 0.05082 0.0
H1072 H 0.6374 0.02262 0.88892 0.0
H1073 H 0.62794 0.01464 0.17696 0.0
H1074 H 0.62795 0.05259 0.12309 0.0
H1075 H 0.64288 0.05408 0.15615 0.0
C1076 C 0.63019 0.11404 0.93164 0.0
C1077 C 0.63867 0.14433 0.97306 0.0
C1078 C 0.62947 0.07772 0.94036 0.0
C1079 C 0.63745 0.07104 0.98941 0.0
C1080 C 0.64661 0.10186 0.02679 0.0
H1081 H 0.65223 0.87175 0.98342 0.0
H1082 H 0.65235 0.9333 0.96617 0.0
C1083 C 0.64712 0.13797 1.01933 0.0
C1084 C 0.63633 0.03206 1.00074 0.0
H1085 H 0.63401 0.96806 0.12939 0.0
C1086 C 0.63655 0.01062 0.94153 0.0
C1087 C 0.63487 0.01574 0.06917 0.0
C1088 C 0.63324 0.03532 0.13479 0.0
C1089 C 0.63571 0.97393 0.94886 0.0
C1090 C 0.63519 0.95871 1.01762 0.0
C1091 C 0.63462 0.97977 0.07668 0.0
C1092 C 0.6353 0.92122 0.02968 0.0
C1093 C 0.63506 0.9517 0.88248 0.0
C1094 C 0.62607 0.89417 0.07402 0.0
C1095 C 0.62635 0.85932 0.08666 0.0
C1096 C 0.63583 0.85061 0.05488 0.0
C1097 C 0.64498 0.87763 1.01015 0.0
C1098 C 0.64488 0.91273 0.99888 0.0
H1099 H 0.63091 0.96113 0.83759 0.0
H1100 H 0.64495 0.95641 0.86692 0.0
H1101 H 0.62915 0.92097 0.89062 0.0
H1102 H 0.61859 0.89994 0.0987 0.0
H1103 H 0.61908 0.83916 0.12102 0.0
H1104 H 0.13822 0.28745 0.37611 0.0
H1105 H 0.14071 0.29462 0.24656 0.0
H1106 H 0.12493 0.17363 0.22404 0.0
H1107 H 0.12274 0.16662 0.35316 0.0
H1108 H 0.14534 0.2071 0.13643 0.0
H1109 H 0.11305 0.27759 0.10162 0.0
H1110 H 0.12622 0.3021 0.16089 0.0
H1111 H 0.11412 0.25594 0.18424 0.0
C1112 C 0.13547 0.26245 0.34353 0.0
C1113 C 0.1306 0.22648 0.37539 0.0
C1114 C 0.1367 0.26649 0.26906 0.0
C1115 C 0.13287 0.23464 0.22423 0.0
C1116 C 0.128 0.19879 0.25646 0.0
H1117 H 0.13141 0.19538 0.75795 0.0
H1118 H 0.12899 0.18691 0.88757 0.0
C1119 C 0.12674 0.19477 0.33059 0.0
C1120 C 0.13388 0.23825 0.14419 0.0
H1121 H 0.1245 0.27355 0.99973 0.0
C1122 C 0.14072 0.22153 0.10672 0.0
C1123 C 0.12787 0.25692 0.10426 0.0
C1124 C 0.11979 0.27386 0.13958 0.0
C1125 C 0.14193 0.22363 0.03186 0.0
C1126 C 0.13596 0.24244 0.99199 0.0
C1127 C 0.1291 0.25907 0.02944 0.0
C1128 C 0.13716 0.24669 0.91211 0.0
C1129 C 0.14994 0.20654 0.99633 0.0
C1130 C 0.14228 0.28288 0.88127 0.0
C1131 C 0.14357 0.28764 0.80732 0.0
C1132 C 0.13947 0.2564 0.76121 0.0
C1133 C 0.13439 0.22005 0.79163 0.0
C1134 C 0.13317 0.21526 0.86607 0.0
H1135 H 0.15648 0.20191 0.03441 0.0
H1136 H 0.14345 0.17874 0.97354 0.0
H1137 H 0.15581 0.22486 0.95263 0.0
H1138 H 0.14549 0.30772 0.91463 0.0
H1139 H 0.14771 0.31605 0.78592 0.0
H1140 H 0.87951 0.20488 0.3739 0.0
H1141 H 0.87729 0.19769 0.24403 0.0
H1142 H 0.89101 0.31818 0.22203 0.0
H1143 H 0.89333 0.32528 0.3508 0.0
H1144 H 0.86324 0.21477 0.14388 0.0
H1145 H 0.91489 0.30105 0.08625 0.0
H1146 H 0.90904 0.28547 0.17472 0.0
H1147 H 0.90795 0.32624 0.13729 0.0
C1148 C 0.88188 0.22974 0.34136 0.0
C1149 C 0.88634 0.26563 0.37326 0.0
C1150 C 0.8807 0.22568 0.26675 0.0
C1151 C 0.88421 0.25744 0.22183 0.0
C1152 C 0.88852 0.29315 0.2542 0.0
H1153 H 0.8844 0.29548 0.75756 0.0
H1154 H 0.88649 0.30259 0.88751 0.0
C1155 C 0.88972 0.29718 0.32833 0.0
C1156 C 0.88332 0.25357 0.14168 0.0
H1157 H 0.90068 0.2855 0.98749 0.0
C1158 C 0.87148 0.2301 0.10997 0.0
C1159 C 0.89399 0.27352 0.09606 0.0
C1160 C 0.90721 0.29769 0.12522 0.0
C1161 C 0.86994 0.22674 0.03532 0.0
C1162 C 0.8806 0.24673 0.98971 0.0
C1163 C 0.89245 0.27019 1.02142 0.0
C1164 C 0.87972 0.24288 0.90957 0.0
C1165 C 0.85673 0.20248 1.00611 0.0
C1166 C 0.87552 0.20723 0.87715 0.0
C1167 C 0.87441 0.20324 0.80298 0.0
C1168 C 0.87776 0.2348 0.75809 0.0
C1169 C 0.88206 0.27063 0.79009 0.0
C1170 C 0.88316 0.27464 0.86472 0.0
H1171 H 0.84904 0.19896 0.04511 0.0
H1172 H 0.85489 0.21473 0.9567 0.0
H1173 H 0.85604 0.174 0.99383 0.0
H1174 H 0.87307 0.1822 0.90929 0.0
H1175 H 0.87092 0.17518 0.78044 0.0
H1176 H 0.13317 0.69895 0.2943 0.0
H1177 H 0.13114 0.69184 0.16432 0.0
H1178 H 0.14423 0.81212 0.14261 0.0
H1179 H 0.14633 0.81915 0.27143 0.0
H1180 H 0.11699 0.70853 0.06352 0.0
H1181 H 0.16865 0.79632 1.00833 0.0
H1182 H 0.16269 0.78033 0.09648 0.0
H1183 H 0.16146 0.82092 0.05917 0.0
C1184 C 0.13545 0.72376 0.26177 0.0
C1185 C 0.13969 0.75959 0.29373 0.0
C1186 C 0.13438 0.71976 0.18714 0.0
C1187 C 0.13777 0.75152 0.14233 0.0
C1188 C 0.14184 0.78712 0.17475 0.0
H1189 H 0.13798 0.78966 0.67818 0.0
H1190 H 0.14013 0.7969 0.8081 0.0
C1191 C 0.14292 0.7911 0.24889 0.0
C1192 C 0.13702 0.74776 0.0622 0.0
H1193 H 0.15459 0.78041 0.90886 0.0
C1194 C 0.12526 0.72409 0.02998 0.0
C1195 C 0.14773 0.76808 1.01712 0.0
C1196 C 0.16088 0.79255 0.04695 0.0
C1197 C 0.12386 0.72082 0.95528 0.0
C1198 C 0.13456 0.74114 0.91021 0.0
C1199 C 0.14632 0.76483 0.94242 0.0
C1200 C 0.13381 0.73735 0.83011 0.0
C1201 C 0.11073 0.69627 0.92538 0.0
C1202 C 0.12989 0.70179 0.79774 0.0
C1203 C 0.12876 0.69775 0.72362 0.0
C1204 C 0.13181 0.72917 0.67876 0.0
C1205 C 0.1359 0.76495 0.71068 0.0
C1206 C 0.13702 0.76902 0.7853 0.0
H1207 H 0.10294 0.69225 0.96408 0.0
H1208 H 0.10889 0.70859 0.87603 0.0
H1209 H 0.1102 0.66801 0.91273 0.0
H1210 H 0.12762 0.67687 0.82992 0.0
H1211 H 0.12542 0.66971 0.70111 0.0
H1212 H 0.87821 0.70418 0.68587 0.0
H1213 H 0.8757 0.69679 0.81561 0.0
H1214 H 0.88988 0.81741 0.83775 0.0
H1215 H 0.89197 0.82452 0.70903 0.0
H1216 H 0.89307 0.72177 0.92069 0.0
H1217 H 0.85934 0.78623 0.96476 0.0
H1218 H 0.8628 0.77428 0.87752 0.0
H1219 H 0.87363 0.81765 0.91904 0.0
C1220 C 0.88043 0.72895 0.71837 0.0
C1221 C 0.88484 0.76485 0.68651 0.0
C1222 C 0.87913 0.72481 0.79291 0.0
C1223 C 0.88228 0.75644 0.83774 0.0
C1224 C 0.88691 0.79225 0.80549 0.0
H1225 H 0.88495 0.79505 0.30228 0.0
H1226 H 0.88748 0.80246 0.17257 0.0
C1227 C 0.88818 0.79635 0.73142 0.0
C1228 C 0.88145 0.75254 0.91787 0.0
H1229 H 0.86981 0.77749 0.06745 0.0
C1230 C 0.88787 0.73372 0.95247 0.0
C1231 C 0.87482 0.76834 0.96079 0.0
C1232 C 0.86716 0.78744 0.92864 0.0
C1233 C 0.88806 0.73093 0.02734 0.0
C1234 C 0.88141 0.74669 0.0702 0.0
C1235 C 0.875 0.76553 0.03564 0.0
C1236 C 0.88057 0.74273 0.15028 0.0
C1237 C 0.89575 0.712 0.0597 0.0
C1238 C 0.87576 0.70685 0.18238 0.0
C1239 C 0.87445 0.70271 0.25643 0.0
C1240 C 0.87794 0.73423 0.30144 0.0
C1241 C 0.88257 0.77022 0.2697 0.0
C1242 C 0.88389 0.7744 0.19519 0.0
H1243 H 0.90344 0.71261 1.02317 0.0
H1244 H 0.90029 0.72579 0.11012 0.0
H1245 H 0.88926 0.68198 0.07081 0.0
H1246 H 0.87267 0.68171 0.15 0.0
H1247 H 0.87053 0.67451 0.27873 0.0
H1248 H 0.63036 0.69775 0.27463 0.0
H1249 H 0.62792 0.69015 0.40446 0.0
H1250 H 0.64572 0.8112 0.42877 0.0
H1251 H 0.64769 0.81864 0.30015 0.0
H1252 H 0.64495 0.70981 0.51042 0.0
H1253 H 0.61546 0.78802 0.55374 0.0
H1254 H 0.61871 0.77582 0.46634 0.0
H1255 H 0.6304 0.81683 0.51072 0.0
C1256 C 0.63345 0.72266 0.30775 0.0
C1257 C 0.63879 0.75883 0.27658 0.0
C1258 C 0.63218 0.71836 0.38226 0.0
C1259 C 0.63629 0.75009 0.42762 0.0
C1260 C 0.64198 0.7861 0.39606 0.0
H1261 H 0.63892 0.78866 0.89074 0.0
H1262 H 0.64162 0.79531 0.76119 0.0
C1263 C 0.6432 0.79036 0.32206 0.0
C1264 C 0.6352 0.7459 0.50757 0.0
H1265 H 0.62485 0.77509 0.65678 0.0
C1266 C 0.64044 0.72388 0.54214 0.0
C1267 C 0.62946 0.76442 0.55037 0.0
C1268 C 0.62308 0.7873 0.51835 0.0
C1269 C 0.64037 0.72055 0.61695 0.0
C1270 C 0.63461 0.73904 0.65969 0.0
C1271 C 0.62936 0.76099 0.6251 0.0
C1272 C 0.6336 0.73523 0.7397 0.0
C1273 C 0.64686 0.69802 0.64917 0.0
C1274 C 0.62808 0.69943 0.77224 0.0
C1275 C 0.62674 0.69572 0.84633 0.0
C1276 C 0.63089 0.72762 0.89075 0.0
C1277 C 0.6361 0.76351 0.85854 0.0
C1278 C 0.6375 0.76726 0.78411 0.0
H1279 H 0.65448 0.69732 0.61366 0.0
H1280 H 0.65127 0.70976 0.70104 0.0
H1281 H 0.6396 0.66845 0.65725 0.0
H1282 H 0.62449 0.67408 0.74024 0.0
H1283 H 0.62232 0.66763 0.86912 0.0
H1284 H 0.38988 0.71812 0.89328 0.0
H1285 H 0.38992 0.71458 0.76444 0.0
H1286 H 0.37834 0.80586 0.75376 0.0
H1287 H 0.38155 0.81479 0.88081 0.0
H1288 H 0.37912 0.69823 0.66405 0.0
H1289 H 0.40011 0.84905 0.60261 0.0
H1290 H 0.39935 0.83342 0.69241 0.0
H1291 H 0.38602 0.84021 0.65355 0.0
C1292 C 0.38742 0.7375 0.86283 0.0
C1293 C 0.38526 0.76591 0.89754 0.0
C1294 C 0.38736 0.7355 0.78819 0.0
C1295 C 0.38447 0.76067 0.74553 0.0
C1296 C 0.38158 0.78762 0.78185 0.0
H1297 H 0.36428 0.67796 0.3068 0.0
H1298 H 0.36556 0.68705 0.43355 0.0
C1299 C 0.38288 0.79184 0.8558 0.0
C1300 C 0.38426 0.75815 0.66451 0.0
H1301 H 0.3866 0.80827 0.51205 0.0
C1302 C 0.38124 0.72299 0.63172 0.0
C1303 C 0.38733 0.78976 0.61834 0.0
C1304 C 0.39356 0.83018 0.64377 0.0
C1305 C 0.3813 0.71874 0.55732 0.0
C1306 C 0.38231 0.74896 0.51178 0.0
C1307 C 0.38537 0.78416 0.54438 0.0
C1308 C 0.38039 0.74485 0.43151 0.0
C1309 C 0.38122 0.6824 0.53014 0.0
C1310 C 0.38665 0.77555 0.38425 0.0
C1311 C 0.38465 0.77129 0.31026 0.0
C1312 C 0.37738 0.73555 0.2804 0.0
C1313 C 0.37067 0.70551 0.32722 0.0
C1314 C 0.37171 0.71049 0.40091 0.0
H1315 H 0.38631 0.67157 0.56754 0.0
H1316 H 0.37114 0.66039 0.52664 0.0
H1317 H 0.38604 0.68618 0.47781 0.0
H1318 H 0.39319 0.80308 0.40374 0.0
H1319 H 0.38896 0.79587 0.27652 0.0
H1320 H 0.62706 0.17443 0.19654 0.0
H1321 H 0.62931 0.18218 0.32531 0.0
H1322 H 0.64262 0.30243 0.3009 0.0
H1323 H 0.64007 0.29445 0.17143 0.0
H1324 H 0.64932 0.21875 0.41279 0.0
H1325 H 0.61447 0.28073 0.44571 0.0
H1326 H 0.61616 0.25983 0.36343 0.0
H1327 H 0.62756 0.30689 0.38667 0.0
C1328 C 0.63058 0.20262 0.21854 0.0
C1329 C 0.63367 0.23387 0.17317 0.0
C1330 C 0.63185 0.20705 0.29254 0.0
C1331 C 0.63599 0.24284 0.32423 0.0
C1332 C 0.63916 0.27431 0.27885 0.0
H1333 H 0.64814 0.32229 0.76469 0.0
H1334 H 0.64606 0.31467 0.63585 0.0
C1335 C 0.63791 0.26985 0.20439 0.0
C1336 C 0.63684 0.24663 0.40431 0.0
H1337 H 0.6259 0.27811 0.54831 0.0
C1338 C 0.64415 0.23166 0.44222 0.0
C1339 C 0.63011 0.26331 0.44393 0.0
C1340 C 0.62153 0.2783 0.4081 0.0
C1341 C 0.6451 0.23352 0.51718 0.0
C1342 C 0.63837 0.25021 0.55679 0.0
C1343 C 0.63107 0.2652 0.51888 0.0
C1344 C 0.63921 0.25395 0.63687 0.0
C1345 C 0.65366 0.21847 0.55306 0.0
C1346 C 0.63591 0.22242 0.68221 0.0
C1347 C 0.63708 0.2268 0.75672 0.0
C1348 C 0.64138 0.26279 0.78802 0.0
C1349 C 0.64461 0.29411 0.74265 0.0
C1350 C 0.64342 0.28975 0.66861 0.0
H1351 H 0.66069 0.2159 0.51545 0.0
H1352 H 0.65905 0.23699 0.59761 0.0
H1353 H 0.64761 0.18995 0.57469 0.0
H1354 H 0.6324 0.1943 0.66009 0.0
H1355 H 0.63477 0.20212 0.78968 0.0
H1356 H 0.39259 0.31909 0.18104 0.0
H1357 H 0.3891 0.31319 0.30937 0.0
H1358 H 0.37568 0.19253 0.29322 0.0
H1359 H 0.37883 0.1985 0.16378 0.0
H1360 H 0.36152 0.20816 0.39067 0.0
H1361 H 0.41264 0.3001 0.44891 0.0
H1362 H 0.40545 0.32418 0.39698 0.0
H1363 H 0.40711 0.28403 0.36041 0.0
C1364 C 0.38864 0.29119 0.20469 0.0
C1365 C 0.38554 0.25919 0.16152 0.0
C1366 C 0.38683 0.28784 0.27859 0.0
C1367 C 0.38238 0.25247 0.31254 0.0
C1368 C 0.37915 0.22027 0.26927 0.0
H1369 H 0.37177 0.17458 0.75599 0.0
H1370 H 0.37281 0.18034 0.62665 0.0
C1371 C 0.38084 0.22361 0.19487 0.0
C1372 C 0.38133 0.24941 0.39269 0.0
H1373 H 0.39815 0.2848 0.54645 0.0
C1374 C 0.3696 0.22477 0.42452 0.0
C1375 C 0.39178 0.2709 0.43822 0.0
C1376 C 0.40499 0.29597 0.40944 0.0
C1377 C 0.36802 0.22165 0.49921 0.0
C1378 C 0.37845 0.24344 0.54454 0.0
C1379 C 0.39011 0.26813 0.5127 0.0
C1380 C 0.37764 0.24008 0.62465 0.0
C1381 C 0.35502 0.19556 0.52885 0.0
C1382 C 0.38025 0.27177 0.66843 0.0
C1383 C 0.37974 0.26849 0.74322 0.0
C1384 C 0.37702 0.23366 0.77637 0.0
C1385 C 0.37419 0.20201 0.73249 0.0
C1386 C 0.37465 0.20522 0.65811 0.0
H1387 H 0.34722 0.18981 0.48949 0.0
H1388 H 0.35509 0.1682 0.54302 0.0
H1389 H 0.35274 0.20759 0.57736 0.0
H1390 H 0.38259 0.29909 0.64471 0.0
H1391 H 0.38152 0.29321 0.77509 0.0
H1392 H 0.03929 0.15077 0.50663 0.0
H1393 H 0.02002 0.16215 0.51972 0.0
H1394 H 0.04342 0.28197 0.5005 0.0
H1395 H 0.06277 0.27082 0.48722 0.0
H1396 H 0.01508 0.21317 0.62344 0.0
H1397 H 0.01474 0.25107 0.33964 0.0
H1398 H 0.02314 0.22422 0.37084 0.0
H1399 H 0.02983 0.27422 0.38575 0.0
C1400 C 0.04034 0.17958 0.50548 0.0
C1401 C 0.05256 0.2099 0.49544 0.0
C1402 C 0.02933 0.18601 0.51319 0.0
C1403 C 0.03027 0.22284 0.51022 0.0
C1404 C 0.04247 0.25328 0.50229 0.0
H1405 H 0.97957 0.33134 0.50874 0.0
H1406 H 0.99667 0.31087 0.49417 0.0
C1407 C 0.05353 0.2469 0.49526 0.0
C1408 C 0.01844 0.22931 0.51372 0.0
H1409 H 0.99952 0.25845 0.41473 0.0
C1410 C 0.0116 0.22286 0.57783 0.0
C1411 C 0.01392 0.24179 0.45402 0.0
C1412 C 0.02069 0.24804 0.38335 0.0
C1413 C 1.00063 0.22993 0.58455 0.0
C1414 C 0.99614 0.24279 0.52489 0.0
C1415 C 1.00288 0.24845 0.4604 0.0
C1416 C 0.98519 0.25357 0.52957 0.0
C1417 C 0.99427 0.22509 0.65627 0.0
C1418 C 0.97281 0.22789 0.55207 0.0
C1419 C 0.96295 0.23971 0.56102 0.0
C1420 C 0.96531 0.27739 0.54739 0.0
C1421 C 0.97749 0.3023 0.52104 0.0
C1422 C 0.98728 0.29057 0.51236 0.0
H1423 H 1.00063 0.22384 0.69952 0.0
H1424 H 0.9916 0.24861 0.66749 0.0
H1425 H 0.98535 0.19827 0.65701 0.0
H1426 H 0.97083 0.19889 0.5639 0.0
H1427 H 0.95368 0.21983 0.58123 0.0
H1428 H 0.97307 0.80332 0.38145 0.0
H1429 H 0.99094 0.78553 0.3908 0.0
H1430 H 0.97617 0.73168 0.59152 0.0
H1431 H 0.95825 0.74994 0.58294 0.0
H1432 H 0.00915 0.8096 0.50789 0.0
H1433 H 0.9846 0.65338 0.47736 0.0
H1434 H 0.97746 0.68379 0.44715 0.0
H1435 H 0.97771 0.67417 0.53995 0.0
C1436 C 0.97352 0.78728 0.42728 0.0
C1437 C 0.96427 0.7783 0.48175 0.0
C1438 C 0.98375 0.77716 0.43252 0.0
C1439 C 0.98494 0.7574 0.49189 0.0
C1440 C 0.97539 0.74667 0.54489 0.0
H1441 H 0.04253 0.67518 0.59129 0.0
H1442 H 0.02456 0.69293 0.59711 0.0
C1443 C 0.96512 0.75694 0.53979 0.0
C1444 C 0.9966 0.75027 0.49967 0.0
H1445 H 1.0069 0.68055 0.50028 0.0
C1446 C 0.00868 0.78138 0.5064 0.0
C1447 C 0.99596 0.71349 0.49819 0.0
C1448 C 0.98327 0.67917 0.48982 0.0
C1449 C 0.02012 0.77671 0.51196 0.0
C1450 C 0.01954 0.73992 0.50864 0.0
C1451 C 1.00741 0.70879 0.50275 0.0
C1452 C 0.03133 0.73285 0.51027 0.0
C1453 C 0.03266 0.81128 0.5228 0.0
C1454 C 0.04136 0.74995 0.46068 0.0
C1455 C 0.05181 0.74035 0.45839 0.0
C1456 C 0.05228 0.71301 0.5048 0.0
C1457 C 0.04245 0.69667 0.55546 0.0
C1458 C 0.03213 0.7066 0.5584 0.0
H1459 H 0.03105 0.83469 0.54721 0.0
H1460 H 0.03934 0.80499 0.55702 0.0
H1461 H 0.03736 0.82132 0.47062 0.0
H1462 H 0.04087 0.76951 0.42165 0.0
H1463 H 0.05912 0.75268 0.41783 0.0
H1464 H 0.55591 0.72479 0.11883 0.0
H1465 H 0.53662 0.73524 0.14055 0.0
H1466 H 0.52681 0.71692 0.91908 0.0
H1467 H 0.5461 0.70731 0.89653 0.0
H1468 H 0.52906 0.7894 0.07588 0.0
H1469 H 0.49372 0.64193 1.02131 0.0
H1470 H 0.5105 0.6546 0.03954 0.0
H1471 H 0.50566 0.6632 0.95341 0.0
C1472 C 0.54973 0.72336 0.07457 0.0
C1473 C 0.55254 0.71472 1.00602 0.0
C1474 C 0.53865 0.72909 0.08719 0.0
C1475 C 0.5301 0.72602 0.03173 0.0
C1476 C 0.53306 0.71844 0.96308 0.0
H1477 H 0.45942 0.75473 0.98157 0.0
H1478 H 0.47741 0.73707 0.96798 0.0
C1479 C 0.54413 0.71292 0.95035 0.0
C1480 C 0.51822 0.73148 0.04488 0.0
H1481 H 0.48531 0.68732 0.03403 0.0
C1482 C 0.51949 0.76701 0.06733 0.0
C1483 C 0.50573 0.70233 0.03311 0.0
C1484 C 0.50375 0.66324 1.01107 0.0
C1485 C 0.50865 0.77448 0.07672 0.0
C1486 C 0.49612 0.74528 0.0652 0.0
C1487 C 0.49486 0.70967 0.04299 0.0
C1488 C 0.48429 0.75147 0.0756 0.0
C1489 C 0.51077 0.814 0.09671 0.0
C1490 C 0.48175 0.7636 0.14143 0.0
C1491 C 0.47153 0.7737 0.14914 0.0
C1492 C 0.46347 0.77137 0.09149 0.0
C1493 C 0.46541 0.75658 0.027 0.0
C1494 C 0.47574 0.74674 1.01912 0.0
H1495 H 0.52072 0.83507 0.08395 0.0
H1496 H 0.50386 0.82226 0.06894 0.0
H1497 H 0.50932 0.8152 0.15465 0.0
H1498 H 0.48794 0.76641 0.18642 0.0
H1499 H 0.4702 0.78469 0.19966 0.0
H1500 H 0.46633 0.25584 0.83217 0.0
H1501 H 0.4855 0.24541 0.85409 0.0
H1502 H 0.486 0.27987 0.07157 0.0
H1503 H 0.46663 0.29007 0.04977 0.0
H1504 H 0.50903 0.30315 0.89517 0.0
H1505 H 0.49252 0.18498 0.08978 0.0
H1506 H 0.4814 0.19543 0.03665 0.0
H1507 H 0.48915 0.22448 0.11158 0.0
C1508 C 0.47036 0.26041 0.88509 0.0
C1509 C 0.46499 0.27378 0.93927 0.0
C1510 C 0.48135 0.25457 0.89751 0.0
C1511 C 0.48723 0.26186 0.96442 0.0
C1512 C 0.48155 0.27354 1.01974 0.0
H1513 H 0.55864 0.24044 0.0747 0.0
H1514 H 0.54096 0.26 0.08119 0.0
C1515 C 0.47046 0.27926 1.00734 0.0
C1516 C 0.4998 0.25989 0.97362 0.0
H1517 H 0.51442 0.21107 0.05626 0.0
C1518 C 0.51022 0.28316 0.93079 0.0
C1519 C 0.50143 0.23418 1.02069 0.0
C1520 C 0.49054 0.20809 0.06708 0.0
C1521 C 0.52205 0.28068 0.93218 0.0
C1522 C 0.52351 0.25382 0.97685 0.0
C1523 C 0.5133 0.23166 1.02201 0.0
C1524 C 0.53501 0.24573 0.9722 0.0
C1525 C 0.53286 0.30662 0.88513 0.0
C1526 C 0.53765 0.23174 0.9087 0.0
C1527 C 0.54767 0.22067 0.90499 0.0
C1528 C 0.55531 0.22328 0.9647 0.0
C1529 C 0.55301 0.23861 0.02765 0.0
C1530 C 0.54286 0.24946 0.03154 0.0
H1531 H 0.53175 0.33265 0.87176 0.0
H1532 H 0.54238 0.3148 0.91074 0.0
H1533 H 0.53275 0.29182 0.83481 0.0
H1534 H 0.53163 0.22804 0.86255 0.0
H1535 H 0.54919 0.20881 0.85589 0.0
loop_
_geom_bond_atom_site_label_1
_geom_bond_atom_site_label_2
_geom_bond_distance
_geom_bond_site_symmetry_2
_ccdc_geom_bond_type
Tb0 N31 2.660 . S
Tb0 N38 2.600 . S
Tb0 O44 2.546 . S
Tb0 O45 2.610 . S
Tb0 O47 2.320 . S
Tb0 O48 2.552 . S
Tb0 O49 2.413 . S
Tb0 O51 2.362 . S
Tb0 O52 2.421 . S
Tb0 C64 2.833 . S
C1 C4 1.432 . S
C1 C5 1.414 . S
C1 N8 1.359 . S
C2 C4 1.417 . S
C2 C6 1.432 . S
C2 C14 1.410 . S
C3 C5 1.444 . S
C3 C6 1.317 . S
C3 H26 0.929 . S
C4 C1 1.432 . S
C4 C2 1.417 . S
C4 N12 1.360 . S
C5 C1 1.414 . S
C5 C3 1.444 . S
C5 C10 1.385 . S
C6 C2 1.432 . S
C6 C3 1.317 . S
C6 H18 0.930 . S
C7 C9 1.392 . S
C7 C10 1.370 . S
C7 H19 0.931 . S
N8 C1 1.359 . S
N8 C9 1.327 . S
N8 Tb11 2.600 . S
C9 C7 1.392 . S
C9 N8 1.327 . S
C9 H16 0.930 . S
C10 C5 1.385 . S
C10 C7 1.370 . S
C10 H29 0.930 . S
Tb11 N8 2.600 . S
Tb11 N12 2.660 . S
Tb11 O45 2.362 . S
Tb11 O46 2.421 . S
Tb11 O50 2.546 . S
Tb11 O51 2.610 . S
Tb11 O53 2.320 . S
Tb11 O54 2.552 . S
Tb11 O55 2.413 . S
Tb11 C75 2.833 . S
N12 C4 1.360 . S
N12 Tb11 2.660 . S
N12 C13 1.305 . S
C13 N12 1.305 . S
C13 C15 1.407 . S
C13 H20 0.930 . S
C14 C2 1.410 . S
C14 C15 1.345 . S
C14 H22 0.930 . S
C15 C13 1.407 . S
C15 C14 1.345 . S
C15 H17 0.930 . S
H16 C9 0.930 . S
H17 C15 0.930 . S
H18 C6 0.930 . S
H19 C7 0.931 . S
H20 C13 0.930 . S
H21 C35 0.930 . S
H22 C14 0.930 . S
H23 C41 0.930 . S
H24 C32 0.930 . S
H25 C39 0.931 . S
H26 C3 0.929 . S
H27 C33 0.930 . S
H28 C66 0.930 . S
H29 C10 0.930 . S
H30 C65 0.929 . S
N31 Tb0 2.660 . S
N31 C32 1.305 . S
N31 C36 1.360 . S
C32 H24 0.930 . S
C32 N31 1.305 . S
C32 C35 1.407 . S
C33 H27 0.930 . S
C33 C34 1.410 . S
C33 C35 1.345 . S
C34 C33 1.410 . S
C34 C36 1.417 . S
C34 C66 1.432 . S
C35 H21 0.930 . S
C35 C32 1.407 . S
C35 C33 1.345 . S
C36 N31 1.360 . S
C36 C34 1.417 . S
C36 C40 1.432 . S
H37 C42 0.930 . S
N38 Tb0 2.600 . S
N38 C40 1.359 . S
N38 C41 1.327 . S
C39 H25 0.931 . S
C39 C41 1.392 . S
C39 C42 1.370 . S
C40 C36 1.432 . S
C40 N38 1.359 . S
C40 C43 1.414 . S
C41 H23 0.930 . S
C41 N38 1.327 . S
C41 C39 1.392 . S
C42 H37 0.930 . S
C42 C39 1.370 . S
C42 C43 1.385 . S
C43 C40 1.414 . S
C43 C42 1.385 . S
C43 C65 1.444 . S
O44 Tb0 2.546 . S
O44 C64 1.251 . S
O45 Tb0 2.610 . S
O45 Tb11 2.362 . S
O45 C56 1.283 . S
O46 Tb11 2.421 . S
O46 C63 1.262 . S
O47 Tb0 2.320 . S
O47 C63 1.260 . S
O48 Tb0 2.552 . S
O48 C56 1.243 . S
O49 Tb0 2.413 . S
O49 C64 1.256 . S
O50 Tb11 2.546 . S
O50 C75 1.251 . S
O51 Tb0 2.362 . S
O51 Tb11 2.610 . S
O51 C67 1.283 . S
O52 Tb0 2.421 . S
O52 C74 1.262 . S
O53 Tb11 2.320 . S
O53 C74 1.260 . S
O54 Tb11 2.552 . S
O54 C67 1.243 . S
O55 Tb11 2.413 . S
O55 C75 1.256 . S
C56 O45 1.283 . S
C56 O48 1.243 . S
C57 C59 1.382 . S
C57 C61 1.393 . S
C57 C64 1.500 . S
C58 C59 1.400 . S
C58 C60 1.384 . S
C59 C57 1.382 . S
C59 C58 1.400 . S
C59 H76 0.930 . S
C60 C58 1.384 . S
C60 C62 1.392 . S
C60 H77 0.931 . S
C61 C57 1.393 . S
C61 C62 1.401 . S
C61 H78 0.930 . S
C62 C60 1.392 . S
C62 C61 1.401 . S
C62 H79 0.930 . S
C63 O46 1.262 . S
C63 O47 1.260 . S
C64 Tb0 2.833 . S
C64 O44 1.251 . S
C64 O49 1.256 . S
C64 C57 1.500 . S
C65 H30 0.929 . S
C65 C43 1.444 . S
C65 C66 1.317 . S
C66 H28 0.930 . S
C66 C34 1.432 . S
C66 C65 1.317 . S
C67 O51 1.283 . S
C67 O54 1.243 . S
C68 C69 1.382 . S
C68 C72 1.393 . S
C68 C75 1.500 . S
C69 C68 1.382 . S
C69 C70 1.400 . S
C69 H80 0.930 . S
C70 C69 1.400 . S
C70 C71 1.384 . S
C71 C70 1.384 . S
C71 C73 1.392 . S
C71 H81 0.931 . S
C72 C68 1.393 . S
C72 C73 1.401 . S
C72 H82 0.930 . S
C73 C71 1.392 . S
C73 C72 1.401 . S
C73 H83 0.930 . S
C74 O52 1.262 . S
C74 O53 1.260 . S
C75 Tb11 2.833 . S
C75 O50 1.251 . S
C75 O55 1.256 . S
C75 C68 1.500 . S
H76 C59 0.930 . S
H77 C60 0.931 . S
H78 C61 0.930 . S
H79 C62 0.930 . S
H80 C69 0.930 . S
H81 C71 0.931 . S
H82 C72 0.930 . S
H83 C73 0.930 . S
Tb84 N115 2.660 . S
Tb84 N122 2.600 . S
Tb84 O128 2.546 . S
Tb84 O129 2.610 . S
Tb84 O131 2.320 . S
Tb84 O132 2.552 . S
Tb84 O133 2.413 . S
Tb84 O135 2.362 . S
Tb84 O136 2.421 . S
Tb84 C148 2.833 . S
C85 C88 1.432 . S
C85 C89 1.414 . S
C85 N92 1.359 . S
C86 C88 1.417 . S
C86 C90 1.432 . S
C86 C98 1.410 . S
C87 C89 1.444 . S
C87 C90 1.317 . S
C87 H110 0.929 . S
C88 C85 1.432 . S
C88 C86 1.417 . S
C88 N96 1.360 . S
C89 C85 1.414 . S
C89 C87 1.444 . S
C89 C94 1.385 . S
C90 C86 1.432 . S
C90 C87 1.317 . S
C90 H102 0.930 . S
C91 C93 1.392 . S
C91 C94 1.370 . S
C91 H103 0.931 . S
N92 C85 1.359 . S
N92 C93 1.327 . S
N92 Tb95 2.600 . S
C93 C91 1.392 . S
C93 N92 1.327 . S
C93 H100 0.930 . S
C94 C89 1.385 . S
C94 C91 1.370 . S
C94 H113 0.930 . S
Tb95 N92 2.600 . S
Tb95 N96 2.660 . S
Tb95 O129 2.362 . S
Tb95 O130 2.421 . S
Tb95 O134 2.546 . S
Tb95 O135 2.610 . S
Tb95 O137 2.320 . S
Tb95 O138 2.552 . S
Tb95 O139 2.413 . S
Tb95 C159 2.833 . S
N96 C88 1.360 . S
N96 Tb95 2.660 . S
N96 C97 1.305 . S
C97 N96 1.305 . S
C97 C99 1.407 . S
C97 H104 0.930 . S
C98 C86 1.410 . S
C98 C99 1.345 . S
C98 H106 0.930 . S
C99 C97 1.407 . S
C99 C98 1.345 . S
C99 H101 0.930 . S
H100 C93 0.930 . S
H101 C99 0.930 . S
H102 C90 0.930 . S
H103 C91 0.931 . S
H104 C97 0.930 . S
H105 C119 0.930 . S
H106 C98 0.930 . S
H107 C125 0.930 . S
H108 C116 0.930 . S
H109 C123 0.931 . S
H110 C87 0.929 . S
H111 C117 0.930 . S
H112 C150 0.930 . S
H113 C94 0.930 . S
H114 C149 0.929 . S
N115 Tb84 2.660 . S
N115 C116 1.305 . S
N115 C120 1.360 . S
C116 H108 0.930 . S
C116 N115 1.305 . S
C116 C119 1.407 . S
C117 H111 0.930 . S
C117 C118 1.410 . S
C117 C119 1.345 . S
C118 C117 1.410 . S
C118 C120 1.417 . S
C118 C150 1.432 . S
C119 H105 0.930 . S
C119 C116 1.407 . S
C119 C117 1.345 . S
C120 N115 1.360 . S
C120 C118 1.417 . S
C120 C124 1.432 . S
H121 C126 0.930 . S
N122 Tb84 2.600 . S
N122 C124 1.359 . S
N122 C125 1.327 . S
C123 H109 0.931 . S
C123 C125 1.392 . S
C123 C126 1.370 . S
C124 C120 1.432 . S
C124 N122 1.359 . S
C124 C127 1.414 . S
C125 H107 0.930 . S
C125 N122 1.327 . S
C125 C123 1.392 . S
C126 H121 0.930 . S
C126 C123 1.370 . S
C126 C127 1.385 . S
C127 C124 1.414 . S
C127 C126 1.385 . S
C127 C149 1.444 . S
O128 Tb84 2.546 . S
O128 C148 1.251 . S
O129 Tb84 2.610 . S
O129 Tb95 2.362 . S
O129 C140 1.283 . S
O130 Tb95 2.421 . S
O130 C147 1.262 . S
O131 Tb84 2.320 . S
O131 C147 1.260 . S
O132 Tb84 2.552 . S
O132 C140 1.243 . S
O133 Tb84 2.413 . S
O133 C148 1.256 . S
O134 Tb95 2.546 . S
O134 C159 1.251 . S
O135 Tb84 2.362 . S
O135 Tb95 2.610 . S
O135 C151 1.283 . S
O136 Tb84 2.421 . S
O136 C158 1.262 . S
O137 Tb95 2.320 . S
O137 C158 1.260 . S
O138 Tb95 2.552 . S
O138 C151 1.243 . S
O139 Tb95 2.413 . S
O139 C159 1.256 . S
C140 O129 1.283 . S
C140 O132 1.243 . S
C141 C143 1.382 . S
C141 C145 1.393 . S
C141 C148 1.500 . S
C142 C143 1.400 . S
C142 C144 1.384 . S
C143 C141 1.382 . S
C143 C142 1.400 . S
C143 H160 0.930 . S
C144 C142 1.384 . S
C144 C146 1.392 . S
C144 H161 0.931 . S
C145 C141 1.393 . S
C145 C146 1.401 . S
C145 H162 0.930 . S
C146 C144 1.392 . S
C146 C145 1.401 . S
C146 H163 0.930 . S
C147 O130 1.262 . S
C147 O131 1.260 . S
C148 Tb84 2.833 . S
C148 O128 1.251 . S
C148 O133 1.256 . S
C148 C141 1.500 . S
C149 H114 0.929 . S
C149 C127 1.444 . S
C149 C150 1.317 . S
C150 H112 0.930 . S
C150 C118 1.432 . S
C150 C149 1.317 . S
C151 O135 1.283 . S
C151 O138 1.243 . S
C152 C153 1.382 . S
C152 C156 1.393 . S
C152 C159 1.500 . S
C153 C152 1.382 . S
C153 C154 1.400 . S
C153 H164 0.930 . S
C154 C153 1.400 . S
C154 C155 1.384 . S
C155 C154 1.384 . S
C155 C157 1.392 . S
C155 H165 0.931 . S
C156 C152 1.393 . S
C156 C157 1.401 . S
C156 H166 0.930 . S
C157 C155 1.392 . S
C157 C156 1.401 . S
C157 H167 0.930 . S
C158 O136 1.262 . S
C158 O137 1.260 . S
C159 Tb95 2.833 . S
C159 O134 1.251 . S
C159 O139 1.256 . S
C159 C152 1.500 . S
H160 C143 0.930 . S
H161 C144 0.931 . S
H162 C145 0.930 . S
H163 C146 0.930 . S
H164 C153 0.930 . S
H165 C155 0.931 . S
H166 C156 0.930 . S
H167 C157 0.930 . S
Tb168 N199 2.660 . S
Tb168 N206 2.600 . S
Tb168 O212 2.546 . S
Tb168 O213 2.610 . S
Tb168 O215 2.320 . S
Tb168 O216 2.552 . S
Tb168 O217 2.413 . S
Tb168 O219 2.362 . S
Tb168 O220 2.421 . S
Tb168 C232 2.833 . S
C169 C172 1.432 . S
C169 C173 1.414 . S
C169 N176 1.359 . S
C170 C172 1.417 . S
C170 C174 1.432 . S
C170 C182 1.410 . S
C171 C173 1.444 . S
C171 C174 1.317 . S
C171 H194 0.929 . S
C172 C169 1.432 . S
C172 C170 1.417 . S
C172 N180 1.360 . S
C173 C169 1.414 . S
C173 C171 1.444 . S
C173 C178 1.385 . S
C174 C170 1.432 . S
C174 C171 1.317 . S
C174 H186 0.930 . S
C175 C177 1.392 . S
C175 C178 1.370 . S
C175 H187 0.931 . S
N176 C169 1.359 . S
N176 C177 1.327 . S
N176 Tb179 2.600 . S
C177 C175 1.392 . S
C177 N176 1.327 . S
C177 H184 0.930 . S
C178 C173 1.385 . S
C178 C175 1.370 . S
C178 H197 0.930 . S
Tb179 N176 2.600 . S
Tb179 N180 2.660 . S
Tb179 O213 2.362 . S
Tb179 O214 2.421 . S
Tb179 O218 2.546 . S
Tb179 O219 2.610 . S
Tb179 O221 2.320 . S
Tb179 O222 2.552 . S
Tb179 O223 2.413 . S
Tb179 C243 2.833 . S
N180 C172 1.360 . S
N180 Tb179 2.660 . S
N180 C181 1.305 . S
C181 N180 1.305 . S
C181 C183 1.407 . S
C181 H188 0.930 . S
C182 C170 1.410 . S
C182 C183 1.345 . S
C182 H190 0.930 . S
C183 C181 1.407 . S
C183 C182 1.345 . S
C183 H185 0.930 . S
H184 C177 0.930 . S
H185 C183 0.930 . S
H186 C174 0.930 . S
H187 C175 0.931 . S
H188 C181 0.930 . S
H189 C203 0.930 . S
H190 C182 0.930 . S
H191 C209 0.930 . S
H192 C200 0.930 . S
H193 C207 0.931 . S
H194 C171 0.929 . S
H195 C201 0.930 . S
H196 C234 0.930 . S
H197 C178 0.930 . S
H198 C233 0.929 . S
N199 Tb168 2.660 . S
N199 C200 1.305 . S
N199 C204 1.360 . S
C200 H192 0.930 . S
C200 N199 1.305 . S
C200 C203 1.407 . S
C201 H195 0.930 . S
C201 C202 1.410 . S
C201 C203 1.345 . S
C202 C201 1.410 . S
C202 C204 1.417 . S
C202 C234 1.432 . S
C203 H189 0.930 . S
C203 C200 1.407 . S
C203 C201 1.345 . S
C204 N199 1.360 . S
C204 C202 1.417 . S
C204 C208 1.432 . S
H205 C210 0.930 . S
N206 Tb168 2.600 . S
N206 C208 1.359 . S
N206 C209 1.327 . S
C207 H193 0.931 . S
C207 C209 1.392 . S
C207 C210 1.370 . S
C208 C204 1.432 . S
C208 N206 1.359 . S
C208 C211 1.414 . S
C209 H191 0.930 . S
C209 N206 1.327 . S
C209 C207 1.392 . S
C210 H205 0.930 . S
C210 C207 1.370 . S
C210 C211 1.385 . S
C211 C208 1.414 . S
C211 C210 1.385 . S
C211 C233 1.444 . S
O212 Tb168 2.546 . S
O212 C232 1.251 . S
O213 Tb168 2.610 . S
O213 Tb179 2.362 . S
O213 C224 1.283 . S
O214 Tb179 2.421 . S
O214 C231 1.262 . S
O215 Tb168 2.320 . S
O215 C231 1.260 . S
O216 Tb168 2.552 . S
O216 C224 1.243 . S
O217 Tb168 2.413 . S
O217 C232 1.256 . S
O218 Tb179 2.546 . S
O218 C243 1.251 . S
O219 Tb168 2.362 . S
O219 Tb179 2.610 . S
O219 C235 1.283 . S
O220 Tb168 2.421 . S
O220 C242 1.262 . S
O221 Tb179 2.320 . S
O221 C242 1.260 . S
O222 Tb179 2.552 . S
O222 C235 1.243 . S
O223 Tb179 2.413 . S
O223 C243 1.256 . S
C224 O213 1.283 . S
C224 O216 1.243 . S
C225 C227 1.382 . S
C225 C229 1.393 . S
C225 C232 1.500 . S
C226 C227 1.400 . S
C226 C228 1.384 . S
C227 C225 1.382 . S
C227 C226 1.400 . S
C227 H244 0.930 . S
C228 C226 1.384 . S
C228 C230 1.392 . S
C228 H245 0.931 . S
C229 C225 1.393 . S
C229 C230 1.401 . S
C229 H246 0.930 . S
C230 C228 1.392 . S
C230 C229 1.401 . S
C230 H247 0.930 . S
C231 O214 1.262 . S
C231 O215 1.260 . S
C232 Tb168 2.833 . S
C232 O212 1.251 . S
C232 O217 1.256 . S
C232 C225 1.500 . S
C233 H198 0.929 . S
C233 C211 1.444 . S
C233 C234 1.317 . S
C234 H196 0.930 . S
C234 C202 1.432 . S
C234 C233 1.317 . S
C235 O219 1.283 . S
C235 O222 1.243 . S
C236 C237 1.382 . S
C236 C240 1.393 . S
C236 C243 1.500 . S
C237 C236 1.382 . S
C237 C238 1.400 . S
C237 H248 0.930 . S
C238 C237 1.400 . S
C238 C239 1.384 . S
C239 C238 1.384 . S
C239 C241 1.392 . S
C239 H249 0.931 . S
C240 C236 1.393 . S
C240 C241 1.401 . S
C240 H250 0.930 . S
C241 C239 1.392 . S
C241 C240 1.401 . S
C241 H251 0.930 . S
C242 O220 1.262 . S
C242 O221 1.260 . S
C243 Tb179 2.833 . S
C243 O218 1.251 . S
C243 O223 1.256 . S
C243 C236 1.500 . S
H244 C227 0.930 . S
H245 C228 0.931 . S
H246 C229 0.930 . S
H247 C230 0.930 . S
H248 C237 0.930 . S
H249 C239 0.931 . S
H250 C240 0.930 . S
H251 C241 0.930 . S
Tb252 N283 2.660 . S
Tb252 N290 2.600 . S
Tb252 O296 2.546 . S
Tb252 O297 2.610 . S
Tb252 O299 2.320 . S
Tb252 O300 2.552 . S
Tb252 O301 2.413 . S
Tb252 O303 2.362 . S
Tb252 O304 2.421 . S
Tb252 C316 2.833 . S
C253 C256 1.432 . S
C253 C257 1.414 . S
C253 N260 1.359 . S
C254 C256 1.417 . S
C254 C258 1.432 . S
C254 C266 1.410 . S
C255 C257 1.444 . S
C255 C258 1.317 . S
C255 H278 0.929 . S
C256 C253 1.432 . S
C256 C254 1.417 . S
C256 N264 1.360 . S
C257 C253 1.414 . S
C257 C255 1.444 . S
C257 C262 1.385 . S
C258 C254 1.432 . S
C258 C255 1.317 . S
C258 H270 0.930 . S
C259 C261 1.392 . S
C259 C262 1.370 . S
C259 H271 0.931 . S
N260 C253 1.359 . S
N260 C261 1.327 . S
N260 Tb263 2.600 . S
C261 C259 1.392 . S
C261 N260 1.327 . S
C261 H268 0.930 . S
C262 C257 1.385 . S
C262 C259 1.370 . S
C262 H281 0.930 . S
Tb263 N260 2.600 . S
Tb263 N264 2.660 . S
Tb263 O297 2.362 . S
Tb263 O298 2.421 . S
Tb263 O302 2.546 . S
Tb263 O303 2.610 . S
Tb263 O305 2.320 . S
Tb263 O306 2.552 . S
Tb263 O307 2.413 . S
Tb263 C327 2.833 . S
N264 C256 1.360 . S
N264 Tb263 2.660 . S
N264 C265 1.305 . S
C265 N264 1.305 . S
C265 C267 1.407 . S
C265 H272 0.930 . S
C266 C254 1.410 . S
C266 C267 1.345 . S
C266 H274 0.930 . S
C267 C265 1.407 . S
C267 C266 1.345 . S
C267 H269 0.930 . S
H268 C261 0.930 . S
H269 C267 0.930 . S
H270 C258 0.930 . S
H271 C259 0.931 . S
H272 C265 0.930 . S
H273 C287 0.930 . S
H274 C266 0.930 . S
H275 C293 0.930 . S
H276 C284 0.930 . S
H277 C291 0.931 . S
H278 C255 0.929 . S
H279 C285 0.930 . S
H280 C318 0.930 . S
H281 C262 0.930 . S
H282 C317 0.929 . S
N283 Tb252 2.660 . S
N283 C284 1.305 . S
N283 C288 1.360 . S
C284 H276 0.930 . S
C284 N283 1.305 . S
C284 C287 1.407 . S
C285 H279 0.930 . S
C285 C286 1.410 . S
C285 C287 1.345 . S
C286 C285 1.410 . S
C286 C288 1.417 . S
C286 C318 1.432 . S
C287 H273 0.930 . S
C287 C284 1.407 . S
C287 C285 1.345 . S
C288 N283 1.360 . S
C288 C286 1.417 . S
C288 C292 1.432 . S
H289 C294 0.930 . S
N290 Tb252 2.600 . S
N290 C292 1.359 . S
N290 C293 1.327 . S
C291 H277 0.931 . S
C291 C293 1.392 . S
C291 C294 1.370 . S
C292 C288 1.432 . S
C292 N290 1.359 . S
C292 C295 1.414 . S
C293 H275 0.930 . S
C293 N290 1.327 . S
C293 C291 1.392 . S
C294 H289 0.930 . S
C294 C291 1.370 . S
C294 C295 1.385 . S
C295 C292 1.414 . S
C295 C294 1.385 . S
C295 C317 1.444 . S
O296 Tb252 2.546 . S
O296 C316 1.251 . S
O297 Tb252 2.610 . S
O297 Tb263 2.362 . S
O297 C308 1.283 . S
O298 Tb263 2.421 . S
O298 C315 1.262 . S
O299 Tb252 2.320 . S
O299 C315 1.260 . S
O300 Tb252 2.552 . S
O300 C308 1.243 . S
O301 Tb252 2.413 . S
O301 C316 1.256 . S
O302 Tb263 2.546 . S
O302 C327 1.251 . S
O303 Tb252 2.362 . S
O303 Tb263 2.610 . S
O303 C319 1.283 . S
O304 Tb252 2.421 . S
O304 C326 1.262 . S
O305 Tb263 2.320 . S
O305 C326 1.260 . S
O306 Tb263 2.552 . S
O306 C319 1.243 . S
O307 Tb263 2.413 . S
O307 C327 1.256 . S
C308 O297 1.283 . S
C308 O300 1.243 . S
C309 C311 1.382 . S
C309 C313 1.393 . S
C309 C316 1.500 . S
C310 C311 1.400 . S
C310 C312 1.384 . S
C311 C309 1.382 . S
C311 C310 1.400 . S
C311 H328 0.930 . S
C312 C310 1.384 . S
C312 C314 1.392 . S
C312 H329 0.931 . S
C313 C309 1.393 . S
C313 C314 1.401 . S
C313 H330 0.930 . S
C314 C312 1.392 . S
C314 C313 1.401 . S
C314 H331 0.930 . S
C315 O298 1.262 . S
C315 O299 1.260 . S
C316 Tb252 2.833 . S
C316 O296 1.251 . S
C316 O301 1.256 . S
C316 C309 1.500 . S
C317 H282 0.929 . S
C317 C295 1.444 . S
C317 C318 1.317 . S
C318 H280 0.930 . S
C318 C286 1.432 . S
C318 C317 1.317 . S
C319 O303 1.283 . S
C319 O306 1.243 . S
C320 C321 1.382 . S
C320 C324 1.393 . S
C320 C327 1.500 . S
C321 C320 1.382 . S
C321 C322 1.400 . S
C321 H332 0.930 . S
C322 C321 1.400 . S
C322 C323 1.384 . S
C323 C322 1.384 . S
C323 C325 1.392 . S
C323 H333 0.931 . S
C324 C320 1.393 . S
C324 C325 1.401 . S
C324 H334 0.930 . S
C325 C323 1.392 . S
C325 C324 1.401 . S
C325 H335 0.930 . S
C326 O304 1.262 . S
C326 O305 1.260 . S
C327 Tb263 2.833 . S
C327 O302 1.251 . S
C327 O307 1.256 . S
C327 C320 1.500 . S
H328 C311 0.930 . S
H329 C312 0.931 . S
H330 C313 0.930 . S
H331 C314 0.930 . S
H332 C321 0.930 . S
H333 C323 0.931 . S
H334 C324 0.930 . S
H335 C325 0.930 . S
Tb336 N367 2.660 . S
Tb336 N374 2.600 . S
Tb336 O380 2.546 1_554 S
Tb336 O381 2.610 1_554 S
Tb336 O383 2.320 . S
Tb336 O384 2.552 1_554 S
Tb336 O385 2.413 1_554 S
Tb336 O387 2.362 . S
Tb336 O388 2.421 1_554 S
Tb336 C400 2.833 1_554 S
C337 C340 1.432 . S
C337 C341 1.414 . S
C337 N344 1.359 . S
C338 C340 1.417 . S
C338 C342 1.432 . S
C338 C350 1.410 . S
C339 C341 1.444 . S
C339 C342 1.317 . S
C339 H362 0.929 . S
C340 C337 1.432 . S
C340 C338 1.417 . S
C340 N348 1.360 . S
C341 C337 1.414 . S
C341 C339 1.444 . S
C341 C346 1.385 . S
C342 C338 1.432 . S
C342 C339 1.317 . S
C342 H354 0.930 . S
C343 C345 1.392 . S
C343 C346 1.370 . S
C343 H355 0.931 . S
N344 C337 1.359 . S
N344 C345 1.327 . S
N344 Tb347 2.600 . S
C345 C343 1.392 . S
C345 N344 1.327 . S
C345 H352 0.930 . S
C346 C341 1.385 . S
C346 C343 1.370 . S
C346 H365 0.930 . S
Tb347 N344 2.600 . S
Tb347 N348 2.660 . S
Tb347 O381 2.362 . S
Tb347 O382 2.421 1_556 S
Tb347 O386 2.546 1_556 S
Tb347 O387 2.610 1_556 S
Tb347 O389 2.320 . S
Tb347 O390 2.552 1_556 S
Tb347 O391 2.413 1_556 S
Tb347 C411 2.833 1_556 S
N348 C340 1.360 . S
N348 Tb347 2.660 . S
N348 C349 1.305 . S
C349 N348 1.305 . S
C349 C351 1.407 . S
C349 H356 0.930 . S
C350 C338 1.410 . S
C350 C351 1.345 . S
C350 H358 0.930 . S
C351 C349 1.407 . S
C351 C350 1.345 . S
C351 H353 0.930 . S
H352 C345 0.930 . S
H353 C351 0.930 . S
H354 C342 0.930 . S
H355 C343 0.931 . S
H356 C349 0.930 . S
H357 C371 0.930 . S
H358 C350 0.930 . S
H359 C377 0.930 . S
H360 C368 0.930 . S
H361 C375 0.931 . S
H362 C339 0.929 . S
H363 C369 0.930 . S
H364 C402 0.930 . S
H365 C346 0.930 . S
H366 C401 0.929 . S
N367 Tb336 2.660 . S
N367 C368 1.305 . S
N367 C372 1.360 . S
C368 H360 0.930 . S
C368 N367 1.305 . S
C368 C371 1.407 . S
C369 H363 0.930 . S
C369 C370 1.410 . S
C369 C371 1.345 . S
C370 C369 1.410 . S
C370 C372 1.417 . S
C370 C402 1.432 . S
C371 H357 0.930 . S
C371 C368 1.407 . S
C371 C369 1.345 . S
C372 N367 1.360 . S
C372 C370 1.417 . S
C372 C376 1.432 . S
H373 C378 0.930 . S
N374 Tb336 2.600 . S
N374 C376 1.359 . S
N374 C377 1.327 . S
C375 H361 0.931 . S
C375 C377 1.392 . S
C375 C378 1.370 . S
C376 C372 1.432 . S
C376 N374 1.359 . S
C376 C379 1.414 . S
C377 H359 0.930 . S
C377 N374 1.327 . S
C377 C375 1.392 . S
C378 H373 0.930 . S
C378 C375 1.370 . S
C378 C379 1.385 . S
C379 C376 1.414 . S
C379 C378 1.385 . S
C379 C401 1.444 . S
O380 Tb336 2.546 1_556 S
O380 C400 1.251 . S
O381 Tb336 2.610 1_556 S
O381 Tb347 2.362 . S
O381 C392 1.283 . S
O382 Tb347 2.421 1_554 S
O382 C399 1.262 1_554 S
O383 Tb336 2.320 . S
O383 C399 1.260 1_554 S
O384 Tb336 2.552 1_556 S
O384 C392 1.243 . S
O385 Tb336 2.413 1_556 S
O385 C400 1.256 . S
O386 Tb347 2.546 1_554 S
O386 C411 1.251 . S
O387 Tb336 2.362 . S
O387 Tb347 2.610 1_554 S
O387 C403 1.283 . S
O388 Tb336 2.421 1_556 S
O388 C410 1.262 1_556 S
O389 Tb347 2.320 . S
O389 C410 1.260 1_556 S
O390 Tb347 2.552 1_554 S
O390 C403 1.243 . S
O391 Tb347 2.413 1_554 S
O391 C411 1.256 . S
C392 O381 1.283 . S
C392 O384 1.243 . S
C393 C395 1.382 . S
C393 C397 1.393 . S
C393 C400 1.500 . S
C394 C395 1.400 . S
C394 C396 1.384 . S
C395 C393 1.382 . S
C395 C394 1.400 . S
C395 H412 0.930 . S
C396 C394 1.384 . S
C396 C398 1.392 . S
C396 H413 0.931 . S
C397 C393 1.393 . S
C397 C398 1.401 . S
C397 H414 0.930 . S
C398 C396 1.392 . S
C398 C397 1.401 . S
C398 H415 0.930 . S
C399 O382 1.262 1_556 S
C399 O383 1.260 1_556 S
C400 Tb336 2.833 1_556 S
C400 O380 1.251 . S
C400 O385 1.256 . S
C400 C393 1.500 . S
C401 H366 0.929 . S
C401 C379 1.444 . S
C401 C402 1.317 . S
C402 H364 0.930 . S
C402 C370 1.432 . S
C402 C401 1.317 . S
C403 O387 1.283 . S
C403 O390 1.243 . S
C404 C405 1.382 . S
C404 C408 1.393 . S
C404 C411 1.500 . S
C405 C404 1.382 . S
C405 C406 1.400 . S
C405 H416 0.930 . S
C406 C405 1.400 . S
C406 C407 1.384 . S
C407 C406 1.384 . S
C407 C409 1.392 . S
C407 H417 0.931 . S
C408 C404 1.393 . S
C408 C409 1.401 . S
C408 H418 0.930 . S
C409 C407 1.392 . S
C409 C408 1.401 . S
C409 H419 0.930 . S
C410 O388 1.262 1_554 S
C410 O389 1.260 1_554 S
C411 Tb347 2.833 1_554 S
C411 O386 1.251 . S
C411 O391 1.256 . S
C411 C404 1.500 . S
H412 C395 0.930 . S
H413 C396 0.931 . S
H414 C397 0.930 . S
H415 C398 0.930 . S
H416 C405 0.930 . S
H417 C407 0.931 . S
H418 C408 0.930 . S
H419 C409 0.930 . S
Tb420 N451 2.660 . S
Tb420 N458 2.600 . S
Tb420 O464 2.546 1_554 S
Tb420 O465 2.610 1_554 S
Tb420 O467 2.320 . S
Tb420 O468 2.552 1_554 S
Tb420 O469 2.413 1_554 S
Tb420 O471 2.362 . S
Tb420 O472 2.421 1_554 S
Tb420 C484 2.833 1_554 S
C421 C424 1.432 . S
C421 C425 1.414 . S
C421 N428 1.359 . S
C422 C424 1.417 . S
C422 C426 1.432 . S
C422 C434 1.410 . S
C423 C425 1.444 . S
C423 C426 1.317 . S
C423 H446 0.929 . S
C424 C421 1.432 . S
C424 C422 1.417 . S
C424 N432 1.360 . S
C425 C421 1.414 . S
C425 C423 1.444 . S
C425 C430 1.385 . S
C426 C422 1.432 . S
C426 C423 1.317 . S
C426 H438 0.930 . S
C427 C429 1.392 . S
C427 C430 1.370 . S
C427 H439 0.931 . S
N428 C421 1.359 . S
N428 C429 1.327 . S
N428 Tb431 2.600 . S
C429 C427 1.392 . S
C429 N428 1.327 . S
C429 H436 0.930 . S
C430 C425 1.385 . S
C430 C427 1.370 . S
C430 H449 0.930 . S
Tb431 N428 2.600 . S
Tb431 N432 2.660 . S
Tb431 O465 2.362 . S
Tb431 O466 2.421 1_556 S
Tb431 O470 2.546 1_556 S
Tb431 O471 2.610 1_556 S
Tb431 O473 2.320 . S
Tb431 O474 2.552 1_556 S
Tb431 O475 2.413 1_556 S
Tb431 C495 2.833 1_556 S
N432 C424 1.360 . S
N432 Tb431 2.660 . S
N432 C433 1.305 . S
C433 N432 1.305 . S
C433 C435 1.407 . S
C433 H440 0.930 . S
C434 C422 1.410 . S
C434 C435 1.345 . S
C434 H442 0.930 . S
C435 C433 1.407 . S
C435 C434 1.345 . S
C435 H437 0.930 . S
H436 C429 0.930 . S
H437 C435 0.930 . S
H438 C426 0.930 . S
H439 C427 0.931 . S
H440 C433 0.930 . S
H441 C455 0.930 . S
H442 C434 0.930 . S
H443 C461 0.930 . S
H444 C452 0.930 . S
H445 C459 0.931 . S
H446 C423 0.929 . S
H447 C453 0.930 . S
H448 C486 0.930 . S
H449 C430 0.930 . S
H450 C485 0.929 . S
N451 Tb420 2.660 . S
N451 C452 1.305 . S
N451 C456 1.360 . S
C452 H444 0.930 . S
C452 N451 1.305 . S
C452 C455 1.407 . S
C453 H447 0.930 . S
C453 C454 1.410 . S
C453 C455 1.345 . S
C454 C453 1.410 . S
C454 C456 1.417 . S
C454 C486 1.432 . S
C455 H441 0.930 . S
C455 C452 1.407 . S
C455 C453 1.345 . S
C456 N451 1.360 . S
C456 C454 1.417 . S
C456 C460 1.432 . S
H457 C462 0.930 . S
N458 Tb420 2.600 . S
N458 C460 1.359 . S
N458 C461 1.327 . S
C459 H445 0.931 . S
C459 C461 1.392 . S
C459 C462 1.370 . S
C460 C456 1.432 . S
C460 N458 1.359 . S
C460 C463 1.414 . S
C461 H443 0.930 . S
C461 N458 1.327 . S
C461 C459 1.392 . S
C462 H457 0.930 . S
C462 C459 1.370 . S
C462 C463 1.385 . S
C463 C460 1.414 . S
C463 C462 1.385 . S
C463 C485 1.444 . S
O464 Tb420 2.546 1_556 S
O464 C484 1.251 . S
O465 Tb420 2.610 1_556 S
O465 Tb431 2.362 . S
O465 C476 1.283 . S
O466 Tb431 2.421 1_554 S
O466 C483 1.262 1_554 S
O467 Tb420 2.320 . S
O467 C483 1.260 1_554 S
O468 Tb420 2.552 1_556 S
O468 C476 1.243 . S
O469 Tb420 2.413 1_556 S
O469 C484 1.256 . S
O470 Tb431 2.546 1_554 S
O470 C495 1.251 . S
O471 Tb420 2.362 . S
O471 Tb431 2.610 1_554 S
O471 C487 1.283 . S
O472 Tb420 2.421 1_556 S
O472 C494 1.262 1_556 S
O473 Tb431 2.320 . S
O473 C494 1.260 1_556 S
O474 Tb431 2.552 1_554 S
O474 C487 1.243 . S
O475 Tb431 2.413 1_554 S
O475 C495 1.256 . S
C476 O465 1.283 . S
C476 O468 1.243 . S
C477 C479 1.382 . S
C477 C481 1.393 . S
C477 C484 1.500 . S
C478 C479 1.400 . S
C478 C480 1.384 . S
C479 C477 1.382 . S
C479 C478 1.400 . S
C479 H496 0.930 . S
C480 C478 1.384 . S
C480 C482 1.392 . S
C480 H497 0.931 . S
C481 C477 1.393 . S
C481 C482 1.401 . S
C481 H498 0.930 . S
C482 C480 1.392 . S
C482 C481 1.401 . S
C482 H499 0.930 . S
C483 O466 1.262 1_556 S
C483 O467 1.260 1_556 S
C484 Tb420 2.833 1_556 S
C484 O464 1.251 . S
C484 O469 1.256 . S
C484 C477 1.500 . S
C485 H450 0.929 . S
C485 C463 1.444 . S
C485 C486 1.317 . S
C486 H448 0.930 . S
C486 C454 1.432 . S
C486 C485 1.317 . S
C487 O471 1.283 . S
C487 O474 1.243 . S
C488 C489 1.382 . S
C488 C492 1.393 . S
C488 C495 1.500 . S
C489 C488 1.382 . S
C489 C490 1.400 . S
C489 H500 0.930 . S
C490 C489 1.400 . S
C490 C491 1.384 . S
C491 C490 1.384 . S
C491 C493 1.392 . S
C491 H501 0.931 . S
C492 C488 1.393 . S
C492 C493 1.401 . S
C492 H502 0.930 . S
C493 C491 1.392 . S
C493 C492 1.401 . S
C493 H503 0.930 . S
C494 O472 1.262 1_554 S
C494 O473 1.260 1_554 S
C495 Tb431 2.833 1_554 S
C495 O470 1.251 . S
C495 O475 1.256 . S
C495 C488 1.500 . S
H496 C479 0.930 . S
H497 C480 0.931 . S
H498 C481 0.930 . S
H499 C482 0.930 . S
H500 C489 0.930 . S
H501 C491 0.931 . S
H502 C492 0.930 . S
H503 C493 0.930 . S
Tb504 N535 2.660 . S
Tb504 N542 2.600 . S
Tb504 O548 2.546 1_554 S
Tb504 O549 2.610 1_554 S
Tb504 O551 2.320 . S
Tb504 O552 2.552 1_554 S
Tb504 O553 2.413 1_554 S
Tb504 O555 2.362 . S
Tb504 O556 2.421 1_554 S
Tb504 C568 2.833 1_554 S
C505 C508 1.432 . S
C505 C509 1.414 . S
C505 N512 1.359 . S
C506 C508 1.417 . S
C506 C510 1.432 . S
C506 C518 1.410 . S
C507 C509 1.444 . S
C507 C510 1.317 . S
C507 H530 0.929 . S
C508 C505 1.432 . S
C508 C506 1.417 . S
C508 N516 1.360 . S
C509 C505 1.414 . S
C509 C507 1.444 . S
C509 C514 1.385 . S
C510 C506 1.432 . S
C510 C507 1.317 . S
C510 H522 0.930 . S
C511 C513 1.392 . S
C511 C514 1.370 . S
C511 H523 0.931 . S
N512 C505 1.359 . S
N512 C513 1.327 . S
N512 Tb515 2.600 . S
C513 C511 1.392 . S
C513 N512 1.327 . S
C513 H520 0.930 . S
C514 C509 1.385 . S
C514 C511 1.370 . S
C514 H533 0.930 . S
Tb515 N512 2.600 . S
Tb515 N516 2.660 . S
Tb515 O549 2.362 . S
Tb515 O550 2.421 1_556 S
Tb515 O554 2.546 1_556 S
Tb515 O555 2.610 1_556 S
Tb515 O557 2.320 . S
Tb515 O558 2.552 1_556 S
Tb515 O559 2.413 1_556 S
Tb515 C579 2.833 1_556 S
N516 C508 1.360 . S
N516 Tb515 2.660 . S
N516 C517 1.305 . S
C517 N516 1.305 . S
C517 C519 1.407 . S
C517 H524 0.930 . S
C518 C506 1.410 . S
C518 C519 1.345 . S
C518 H526 0.930 . S
C519 C517 1.407 . S
C519 C518 1.345 . S
C519 H521 0.930 . S
H520 C513 0.930 . S
H521 C519 0.930 . S
H522 C510 0.930 . S
H523 C511 0.931 . S
H524 C517 0.930 . S
H525 C539 0.930 . S
H526 C518 0.930 . S
H527 C545 0.930 . S
H528 C536 0.930 . S
H529 C543 0.931 . S
H530 C507 0.929 . S
H531 C537 0.930 . S
H532 C570 0.930 . S
H533 C514 0.930 . S
H534 C569 0.929 . S
N535 Tb504 2.660 . S
N535 C536 1.305 . S
N535 C540 1.360 . S
C536 H528 0.930 . S
C536 N535 1.305 . S
C536 C539 1.407 . S
C537 H531 0.930 . S
C537 C538 1.410 . S
C537 C539 1.345 . S
C538 C537 1.410 . S
C538 C540 1.417 . S
C538 C570 1.432 . S
C539 H525 0.930 . S
C539 C536 1.407 . S
C539 C537 1.345 . S
C540 N535 1.360 . S
C540 C538 1.417 . S
C540 C544 1.432 . S
H541 C546 0.930 . S
N542 Tb504 2.600 . S
N542 C544 1.359 . S
N542 C545 1.327 . S
C543 H529 0.931 . S
C543 C545 1.392 . S
C543 C546 1.370 . S
C544 C540 1.432 . S
C544 N542 1.359 . S
C544 C547 1.414 . S
C545 H527 0.930 . S
C545 N542 1.327 . S
C545 C543 1.392 . S
C546 H541 0.930 . S
C546 C543 1.370 . S
C546 C547 1.385 . S
C547 C544 1.414 . S
C547 C546 1.385 . S
C547 C569 1.444 . S
O548 Tb504 2.546 1_556 S
O548 C568 1.251 . S
O549 Tb504 2.610 1_556 S
O549 Tb515 2.362 . S
O549 C560 1.283 . S
O550 Tb515 2.421 1_554 S
O550 C567 1.262 1_554 S
O551 Tb504 2.320 . S
O551 C567 1.260 1_554 S
O552 Tb504 2.552 1_556 S
O552 C560 1.243 . S
O553 Tb504 2.413 1_556 S
O553 C568 1.256 . S
O554 Tb515 2.546 1_554 S
O554 C579 1.251 . S
O555 Tb504 2.362 . S
O555 Tb515 2.610 1_554 S
O555 C571 1.283 . S
O556 Tb504 2.421 1_556 S
O556 C578 1.262 1_556 S
O557 Tb515 2.320 . S
O557 C578 1.260 1_556 S
O558 Tb515 2.552 1_554 S
O558 C571 1.243 . S
O559 Tb515 2.413 1_554 S
O559 C579 1.256 . S
C560 O549 1.283 . S
C560 O552 1.243 . S
C561 C563 1.382 . S
C561 C565 1.393 . S
C561 C568 1.500 . S
C562 C563 1.400 . S
C562 C564 1.384 . S
C563 C561 1.382 . S
C563 C562 1.400 . S
C563 H580 0.930 . S
C564 C562 1.384 . S
C564 C566 1.392 . S
C564 H581 0.931 . S
C565 C561 1.393 . S
C565 C566 1.401 . S
C565 H582 0.930 . S
C566 C564 1.392 . S
C566 C565 1.401 . S
C566 H583 0.930 . S
C567 O550 1.262 1_556 S
C567 O551 1.260 1_556 S
C568 Tb504 2.833 1_556 S
C568 O548 1.251 . S
C568 O553 1.256 . S
C568 C561 1.500 . S
C569 H534 0.929 . S
C569 C547 1.444 . S
C569 C570 1.317 . S
C570 H532 0.930 . S
C570 C538 1.432 . S
C570 C569 1.317 . S
C571 O555 1.283 . S
C571 O558 1.243 . S
C572 C573 1.382 . S
C572 C576 1.393 . S
C572 C579 1.500 . S
C573 C572 1.382 . S
C573 C574 1.400 . S
C573 H584 0.930 . S
C574 C573 1.400 . S
C574 C575 1.384 . S
C575 C574 1.384 . S
C575 C577 1.392 . S
C575 H585 0.931 . S
C576 C572 1.393 . S
C576 C577 1.401 . S
C576 H586 0.930 . S
C577 C575 1.392 . S
C577 C576 1.401 . S
C577 H587 0.930 . S
C578 O556 1.262 1_554 S
C578 O557 1.260 1_554 S
C579 Tb515 2.833 1_554 S
C579 O554 1.251 . S
C579 O559 1.256 . S
C579 C572 1.500 . S
H580 C563 0.930 . S
H581 C564 0.931 . S
H582 C565 0.930 . S
H583 C566 0.930 . S
H584 C573 0.930 . S
H585 C575 0.931 . S
H586 C576 0.930 . S
H587 C577 0.930 . S
Tb588 N619 2.660 . S
Tb588 N626 2.600 . S
Tb588 O632 2.546 1_554 S
Tb588 O633 2.610 1_554 S
Tb588 O635 2.320 . S
Tb588 O636 2.552 1_554 S
Tb588 O637 2.413 1_554 S
Tb588 O639 2.362 . S
Tb588 O640 2.421 1_554 S
Tb588 C652 2.833 1_554 S
C589 C592 1.432 . S
C589 C593 1.414 . S
C589 N596 1.359 . S
C590 C592 1.417 . S
C590 C594 1.432 . S
C590 C602 1.410 . S
C591 C593 1.444 . S
C591 C594 1.317 . S
C591 H614 0.929 . S
C592 C589 1.432 . S
C592 C590 1.417 . S
C592 N600 1.360 . S
C593 C589 1.414 . S
C593 C591 1.444 . S
C593 C598 1.385 . S
C594 C590 1.432 . S
C594 C591 1.317 . S
C594 H606 0.930 . S
C595 C597 1.392 . S
C595 C598 1.370 . S
C595 H607 0.931 . S
N596 C589 1.359 . S
N596 C597 1.327 . S
N596 Tb599 2.600 . S
C597 C595 1.392 . S
C597 N596 1.327 . S
C597 H604 0.930 . S
C598 C593 1.385 . S
C598 C595 1.370 . S
C598 H617 0.930 . S
Tb599 N596 2.600 . S
Tb599 N600 2.660 . S
Tb599 O633 2.362 . S
Tb599 O634 2.421 1_556 S
Tb599 O638 2.546 1_556 S
Tb599 O639 2.610 1_556 S
Tb599 O641 2.320 . S
Tb599 O642 2.552 1_556 S
Tb599 O643 2.413 1_556 S
Tb599 C663 2.833 1_556 S
N600 C592 1.360 . S
N600 Tb599 2.660 . S
N600 C601 1.305 . S
C601 N600 1.305 . S
C601 C603 1.407 . S
C601 H608 0.930 . S
C602 C590 1.410 . S
C602 C603 1.345 . S
C602 H610 0.930 . S
C603 C601 1.407 . S
C603 C602 1.345 . S
C603 H605 0.930 . S
H604 C597 0.930 . S
H605 C603 0.930 . S
H606 C594 0.930 . S
H607 C595 0.931 . S
H608 C601 0.930 . S
H609 C623 0.930 . S
H610 C602 0.930 . S
H611 C629 0.930 . S
H612 C620 0.930 . S
H613 C627 0.931 . S
H614 C591 0.929 . S
H615 C621 0.930 . S
H616 C654 0.930 . S
H617 C598 0.930 . S
H618 C653 0.929 . S
N619 Tb588 2.660 . S
N619 C620 1.305 . S
N619 C624 1.360 . S
C620 H612 0.930 . S
C620 N619 1.305 . S
C620 C623 1.407 . S
C621 H615 0.930 . S
C621 C622 1.410 . S
C621 C623 1.345 . S
C622 C621 1.410 . S
C622 C624 1.417 . S
C622 C654 1.432 . S
C623 H609 0.930 . S
C623 C620 1.407 . S
C623 C621 1.345 . S
C624 N619 1.360 . S
C624 C622 1.417 . S
C624 C628 1.432 . S
H625 C630 0.930 . S
N626 Tb588 2.600 . S
N626 C628 1.359 . S
N626 C629 1.327 . S
C627 H613 0.931 . S
C627 C629 1.392 . S
C627 C630 1.370 . S
C628 C624 1.432 . S
C628 N626 1.359 . S
C628 C631 1.414 . S
C629 H611 0.930 . S
C629 N626 1.327 . S
C629 C627 1.392 . S
C630 H625 0.930 . S
C630 C627 1.370 . S
C630 C631 1.385 . S
C631 C628 1.414 . S
C631 C630 1.385 . S
C631 C653 1.444 . S
O632 Tb588 2.546 1_556 S
O632 C652 1.251 . S
O633 Tb588 2.610 1_556 S
O633 Tb599 2.362 . S
O633 C644 1.283 . S
O634 Tb599 2.421 1_554 S
O634 C651 1.262 1_554 S
O635 Tb588 2.320 . S
O635 C651 1.260 1_554 S
O636 Tb588 2.552 1_556 S
O636 C644 1.243 . S
O637 Tb588 2.413 1_556 S
O637 C652 1.256 . S
O638 Tb599 2.546 1_554 S
O638 C663 1.251 . S
O639 Tb588 2.362 . S
O639 Tb599 2.610 1_554 S
O639 C655 1.283 . S
O640 Tb588 2.421 1_556 S
O640 C662 1.262 1_556 S
O641 Tb599 2.320 . S
O641 C662 1.260 1_556 S
O642 Tb599 2.552 1_554 S
O642 C655 1.243 . S
O643 Tb599 2.413 1_554 S
O643 C663 1.256 . S
C644 O633 1.283 . S
C644 O636 1.243 . S
C645 C647 1.382 . S
C645 C649 1.393 . S
C645 C652 1.500 . S
C646 C647 1.400 . S
C646 C648 1.384 . S
C647 C645 1.382 . S
C647 C646 1.400 . S
C647 H664 0.930 . S
C648 C646 1.384 . S
C648 C650 1.392 . S
C648 H665 0.931 . S
C649 C645 1.393 . S
C649 C650 1.401 . S
C649 H666 0.930 . S
C650 C648 1.392 . S
C650 C649 1.401 . S
C650 H667 0.930 . S
C651 O634 1.262 1_556 S
C651 O635 1.260 1_556 S
C652 Tb588 2.833 1_556 S
C652 O632 1.251 . S
C652 O637 1.256 . S
C652 C645 1.500 . S
C653 H618 0.929 . S
C653 C631 1.444 . S
C653 C654 1.317 . S
C654 H616 0.930 . S
C654 C622 1.432 . S
C654 C653 1.317 . S
C655 O639 1.283 . S
C655 O642 1.243 . S
C656 C657 1.382 . S
C656 C660 1.393 . S
C656 C663 1.500 . S
C657 C656 1.382 . S
C657 C658 1.400 . S
C657 H668 0.930 . S
C658 C657 1.400 . S
C658 C659 1.384 . S
C659 C658 1.384 . S
C659 C661 1.392 . S
C659 H669 0.931 . S
C660 C656 1.393 . S
C660 C661 1.401 . S
C660 H670 0.930 . S
C661 C659 1.392 . S
C661 C660 1.401 . S
C661 H671 0.930 . S
C662 O640 1.262 1_554 S
C662 O641 1.260 1_554 S
C663 Tb599 2.833 1_554 S
C663 O638 1.251 . S
C663 O643 1.256 . S
C663 C656 1.500 . S
H664 C647 0.930 . S
H665 C648 0.931 . S
H666 C649 0.930 . S
H667 C650 0.930 . S
H668 C657 0.930 . S
H669 C659 0.931 . S
H670 C660 0.930 . S
H671 C661 0.930 . S
H672 C680 0.929 . S
H673 C682 0.930 . S
H674 C684 0.930 . S
H675 C687 0.929 . S
H676 C690 0.930 . S
H677 C692 0.960 . S
H678 C692 0.960 . S
H679 C692 0.960 . S
C680 H672 0.929 . S
C680 C681 1.377 . S
C680 C682 1.384 . S
C681 C680 1.377 . S
C681 C687 1.390 . S
C682 H673 0.930 . S
C682 C680 1.384 . S
C682 C683 1.372 . S
C683 C682 1.372 . S
C683 C684 1.400 . S
C683 C688 1.490 . S
C684 H674 0.930 . S
C684 C683 1.400 . S
C684 C687 1.386 . S
H685 C701 0.930 . S
H686 C702 0.931 . S
C687 H675 0.929 . S
C687 C681 1.390 . S
C687 C684 1.386 . S
C688 C683 1.490 . S
C688 C690 1.395 . S
C688 C691 1.403 . S
H689 C695 0.930 . S
C690 H676 0.930 . S
C690 C688 1.395 . S
C690 C693 1.403 . S
C691 C688 1.403 . S
C691 C692 1.524 . S
C691 C695 1.400 . S
C692 H677 0.960 . S
C692 H678 0.960 . S
C692 H679 0.960 . S
C692 C691 1.524 . S
C693 C690 1.403 . S
C693 C694 1.392 . S
C693 C697 1.495 . S
C694 C693 1.392 . S
C694 C695 1.385 . S
C694 C696 1.478 . S
C695 H689 0.930 . S
C695 C691 1.400 . S
C695 C694 1.385 . S
C696 C694 1.478 . S
C696 C698 1.381 . S
C696 C702 1.383 . S
C697 C693 1.495 . S
C697 H703 0.959 . S
C697 H704 0.961 . S
C697 H705 0.960 . S
C698 C696 1.381 . S
C698 C699 1.394 . S
C698 H706 0.930 . S
C699 C698 1.394 . S
C699 C700 1.383 . S
C699 H707 0.929 . S
C700 C699 1.383 . S
C700 C701 1.377 . S
C701 H685 0.930 . S
C701 C700 1.377 . S
C701 C702 1.379 . S
C702 H686 0.931 . S
C702 C696 1.383 . S
C702 C701 1.379 . S
H703 C697 0.959 . S
H704 C697 0.961 . S
H705 C697 0.960 . S
H706 C698 0.930 . S
H707 C699 0.929 . S
H708 C716 0.929 . S
H709 C718 0.930 . S
H710 C720 0.930 . S
H711 C723 0.929 . S
H712 C726 0.930 . S
H713 C728 0.960 . S
H714 C728 0.960 . S
H715 C728 0.960 . S
C716 H708 0.929 . S
C716 C717 1.377 . S
C716 C718 1.384 . S
C717 C716 1.377 . S
C717 C723 1.390 . S
C718 H709 0.930 . S
C718 C716 1.384 . S
C718 C719 1.372 . S
C719 C718 1.372 . S
C719 C720 1.400 . S
C719 C724 1.490 . S
C720 H710 0.930 . S
C720 C719 1.400 . S
C720 C723 1.386 . S
H721 C737 0.930 . S
H722 C738 0.931 . S
C723 H711 0.929 . S
C723 C717 1.390 . S
C723 C720 1.386 . S
C724 C719 1.490 . S
C724 C726 1.395 . S
C724 C727 1.403 . S
H725 C731 0.930 . S
C726 H712 0.930 . S
C726 C724 1.395 . S
C726 C729 1.403 . S
C727 C724 1.403 . S
C727 C728 1.524 . S
C727 C731 1.400 . S
C728 H713 0.960 . S
C728 H714 0.960 . S
C728 H715 0.960 . S
C728 C727 1.524 . S
C729 C726 1.403 . S
C729 C730 1.392 . S
C729 C733 1.495 . S
C730 C729 1.392 . S
C730 C731 1.385 . S
C730 C732 1.478 . S
C731 H725 0.930 . S
C731 C727 1.400 . S
C731 C730 1.385 . S
C732 C730 1.478 . S
C732 C734 1.381 . S
C732 C738 1.383 . S
C733 C729 1.495 . S
C733 H739 0.959 . S
C733 H740 0.961 . S
C733 H741 0.960 . S
C734 C732 1.381 . S
C734 C735 1.394 . S
C734 H742 0.930 . S
C735 C734 1.394 . S
C735 C736 1.383 . S
C735 H743 0.929 . S
C736 C735 1.383 . S
C736 C737 1.377 . S
C737 H721 0.930 . S
C737 C736 1.377 . S
C737 C738 1.379 . S
C738 H722 0.931 . S
C738 C732 1.383 . S
C738 C737 1.379 . S
H739 C733 0.959 . S
H740 C733 0.961 . S
H741 C733 0.960 . S
H742 C734 0.930 . S
H743 C735 0.929 . S
H744 C752 0.929 . S
H745 C754 0.930 . S
H746 C756 0.930 . S
H747 C759 0.929 . S
H748 C762 0.930 . S
H749 C764 0.960 . S
H750 C764 0.960 . S
H751 C764 0.960 . S
C752 H744 0.929 . S
C752 C753 1.377 . S
C752 C754 1.384 . S
C753 C752 1.377 . S
C753 C759 1.390 . S
C754 H745 0.930 . S
C754 C752 1.384 . S
C754 C755 1.372 . S
C755 C754 1.372 . S
C755 C756 1.400 . S
C755 C760 1.490 . S
C756 H746 0.930 . S
C756 C755 1.400 . S
C756 C759 1.386 . S
H757 C773 0.930 . S
H758 C774 0.931 . S
C759 H747 0.929 . S
C759 C753 1.390 . S
C759 C756 1.386 . S
C760 C755 1.490 . S
C760 C762 1.395 . S
C760 C763 1.403 . S
H761 C767 0.930 . S
C762 H748 0.930 . S
C762 C760 1.395 . S
C762 C765 1.403 . S
C763 C760 1.403 . S
C763 C764 1.524 . S
C763 C767 1.400 . S
C764 H749 0.960 . S
C764 H750 0.960 . S
C764 H751 0.960 . S
C764 C763 1.524 . S
C765 C762 1.403 . S
C765 C766 1.392 . S
C765 C769 1.495 . S
C766 C765 1.392 . S
C766 C767 1.385 . S
C766 C768 1.478 . S
C767 H761 0.930 . S
C767 C763 1.400 . S
C767 C766 1.385 . S
C768 C766 1.478 . S
C768 C770 1.381 . S
C768 C774 1.383 . S
C769 C765 1.495 . S
C769 H775 0.959 . S
C769 H776 0.961 . S
C769 H777 0.960 . S
C770 C768 1.381 . S
C770 C771 1.394 . S
C770 H778 0.930 . S
C771 C770 1.394 . S
C771 C772 1.383 . S
C771 H779 0.929 . S
C772 C771 1.383 . S
C772 C773 1.377 . S
C773 H757 0.930 . S
C773 C772 1.377 . S
C773 C774 1.379 . S
C774 H758 0.931 . S
C774 C768 1.383 . S
C774 C773 1.379 . S
H775 C769 0.959 . S
H776 C769 0.961 . S
H777 C769 0.960 . S
H778 C770 0.930 . S
H779 C771 0.929 . S
H780 C788 0.929 . S
H781 C790 0.930 . S
H782 C792 0.930 . S
H783 C795 0.929 . S
H784 C798 0.930 . S
H785 C800 0.960 . S
H786 C800 0.960 . S
H787 C800 0.960 . S
C788 H780 0.929 . S
C788 C789 1.377 . S
C788 C790 1.384 . S
C789 C788 1.377 . S
C789 C795 1.390 . S
C790 H781 0.930 . S
C790 C788 1.384 . S
C790 C791 1.372 . S
C791 C790 1.372 . S
C791 C792 1.400 . S
C791 C796 1.490 . S
C792 H782 0.930 . S
C792 C791 1.400 . S
C792 C795 1.386 . S
H793 C809 0.930 . S
H794 C810 0.931 . S
C795 H783 0.929 . S
C795 C789 1.390 . S
C795 C792 1.386 . S
C796 C791 1.490 . S
C796 C798 1.395 . S
C796 C799 1.403 . S
H797 C803 0.930 . S
C798 H784 0.930 . S
C798 C796 1.395 . S
C798 C801 1.403 . S
C799 C796 1.403 . S
C799 C800 1.524 . S
C799 C803 1.400 . S
C800 H785 0.960 . S
C800 H786 0.960 . S
C800 H787 0.960 . S
C800 C799 1.524 . S
C801 C798 1.403 . S
C801 C802 1.392 . S
C801 C805 1.495 . S
C802 C801 1.392 . S
C802 C803 1.385 . S
C802 C804 1.478 . S
C803 H797 0.930 . S
C803 C799 1.400 . S
C803 C802 1.385 . S
C804 C802 1.478 . S
C804 C806 1.381 . S
C804 C810 1.383 . S
C805 C801 1.495 . S
C805 H811 0.959 . S
C805 H812 0.961 . S
C805 H813 0.960 . S
C806 C804 1.381 . S
C806 C807 1.394 . S
C806 H814 0.930 . S
C807 C806 1.394 . S
C807 C808 1.383 . S
C807 H815 0.929 . S
C808 C807 1.383 . S
C808 C809 1.377 . S
C809 H793 0.930 . S
C809 C808 1.377 . S
C809 C810 1.379 . S
C810 H794 0.931 . S
C810 C804 1.383 . S
C810 C809 1.379 . S
H811 C805 0.959 . S
H812 C805 0.961 . S
H813 C805 0.960 . S
H814 C806 0.930 . S
H815 C807 0.929 . S
H816 C824 0.929 . S
H817 C826 0.930 . S
H818 C828 0.930 . S
H819 C831 0.929 . S
H820 C834 0.930 1_565 S
H821 C836 0.960 . S
H822 C836 0.960 . S
H823 C836 0.960 . S
C824 H816 0.929 . S
C824 C825 1.377 . S
C824 C826 1.384 . S
C825 C824 1.377 . S
C825 C831 1.390 . S
C826 H817 0.930 . S
C826 C824 1.384 . S
C826 C827 1.372 . S
C827 C826 1.372 . S
C827 C828 1.400 . S
C827 C832 1.490 . S
C828 H818 0.930 . S
C828 C827 1.400 . S
C828 C831 1.386 . S
H829 C845 0.930 . S
H830 C846 0.931 . S
C831 H819 0.929 . S
C831 C825 1.390 . S
C831 C828 1.386 . S
C832 C827 1.490 . S
C832 C834 1.395 1_565 S
C832 C835 1.403 . S
H833 C839 0.930 . S
C834 H820 0.930 1_545 S
C834 C832 1.395 1_545 S
C834 C837 1.403 . S
C835 C832 1.403 . S
C835 C836 1.524 . S
C835 C839 1.400 1_565 S
C836 H821 0.960 . S
C836 H822 0.960 . S
C836 H823 0.960 . S
C836 C835 1.524 . S
C837 C834 1.403 . S
C837 C838 1.392 . S
C837 C841 1.495 . S
C838 C837 1.392 . S
C838 C839 1.385 . S
C838 C840 1.478 . S
C839 H833 0.930 . S
C839 C835 1.400 1_545 S
C839 C838 1.385 . S
C840 C838 1.478 . S
C840 C842 1.381 . S
C840 C846 1.383 . S
C841 C837 1.495 . S
C841 H847 0.959 . S
C841 H848 0.961 . S
C841 H849 0.960 . S
C842 C840 1.381 . S
C842 C843 1.394 . S
C842 H850 0.930 . S
C843 C842 1.394 . S
C843 C844 1.383 . S
C843 H851 0.929 . S
C844 C843 1.383 . S
C844 C845 1.377 . S
C845 H829 0.930 . S
C845 C844 1.377 . S
C845 C846 1.379 . S
C846 H830 0.931 . S
C846 C840 1.383 . S
C846 C845 1.379 . S
H847 C841 0.959 . S
H848 C841 0.961 . S
H849 C841 0.960 . S
H850 C842 0.930 . S
H851 C843 0.929 . S
H852 C860 0.929 . S
H853 C862 0.930 . S
H854 C864 0.930 . S
H855 C867 0.929 . S
H856 C870 0.930 . S
H857 C872 0.960 . S
H858 C872 0.960 . S
H859 C872 0.960 . S
C860 H852 0.929 . S
C860 C861 1.377 . S
C860 C862 1.384 . S
C861 C860 1.377 . S
C861 C867 1.390 . S
C862 H853 0.930 . S
C862 C860 1.384 . S
C862 C863 1.372 . S
C863 C862 1.372 . S
C863 C864 1.400 . S
C863 C868 1.490 . S
C864 H854 0.930 . S
C864 C863 1.400 . S
C864 C867 1.386 . S
H865 C881 0.930 . S
H866 C882 0.931 . S
C867 H855 0.929 . S
C867 C861 1.390 . S
C867 C864 1.386 . S
C868 C863 1.490 . S
C868 C870 1.395 . S
C868 C871 1.403 . S
H869 C875 0.930 . S
C870 H856 0.930 . S
C870 C868 1.395 . S
C870 C873 1.403 . S
C871 C868 1.403 . S
C871 C872 1.524 . S
C871 C875 1.400 . S
C872 H857 0.960 . S
C872 H858 0.960 . S
C872 H859 0.960 . S
C872 C871 1.524 . S
C873 C870 1.403 . S
C873 C874 1.392 . S
C873 C877 1.495 . S
C874 C873 1.392 . S
C874 C875 1.385 . S
C874 C876 1.478 . S
C875 H869 0.930 . S
C875 C871 1.400 . S
C875 C874 1.385 . S
C876 C874 1.478 . S
C876 C878 1.381 . S
C876 C882 1.383 . S
C877 C873 1.495 . S
C877 H883 0.959 . S
C877 H884 0.961 . S
C877 H885 0.960 . S
C878 C876 1.381 . S
C878 C879 1.394 . S
C878 H886 0.930 . S
C879 C878 1.394 . S
C879 C880 1.383 . S
C879 H887 0.929 . S
C880 C879 1.383 . S
C880 C881 1.377 . S
C881 H865 0.930 . S
C881 C880 1.377 . S
C881 C882 1.379 . S
C882 H866 0.931 . S
C882 C876 1.383 . S
C882 C881 1.379 . S
H883 C877 0.959 . S
H884 C877 0.961 . S
H885 C877 0.960 . S
H886 C878 0.930 . S
H887 C879 0.929 . S
H888 C896 0.929 . S
H889 C898 0.930 . S
H890 C900 0.930 . S
H891 C903 0.929 . S
H892 C906 0.930 . S
H893 C908 0.960 . S
H894 C908 0.960 . S
H895 C908 0.960 . S
C896 H888 0.929 . S
C896 C897 1.377 . S
C896 C898 1.384 . S
C897 C896 1.377 . S
C897 C903 1.390 . S
C898 H889 0.930 . S
C898 C896 1.384 . S
C898 C899 1.372 . S
C899 C898 1.372 . S
C899 C900 1.400 . S
C899 C904 1.490 . S
C900 H890 0.930 . S
C900 C899 1.400 . S
C900 C903 1.386 . S
H901 C917 0.930 . S
H902 C918 0.931 . S
C903 H891 0.929 . S
C903 C897 1.390 . S
C903 C900 1.386 . S
C904 C899 1.490 . S
C904 C906 1.395 . S
C904 C907 1.403 . S
H905 C911 0.930 . S
C906 H892 0.930 . S
C906 C904 1.395 . S
C906 C909 1.403 1_565 S
C907 C904 1.403 . S
C907 C908 1.524 . S
C907 C911 1.400 1_565 S
C908 H893 0.960 . S
C908 H894 0.960 . S
C908 H895 0.960 . S
C908 C907 1.524 . S
C909 C906 1.403 1_545 S
C909 C910 1.392 . S
C909 C913 1.495 . S
C910 C909 1.392 . S
C910 C911 1.385 . S
C910 C912 1.478 . S
C911 H905 0.930 . S
C911 C907 1.400 1_545 S
C911 C910 1.385 . S
C912 C910 1.478 . S
C912 C914 1.381 . S
C912 C918 1.383 . S
C913 C909 1.495 . S
C913 H919 0.959 . S
C913 H920 0.961 . S
C913 H921 0.960 . S
C914 C912 1.381 . S
C914 C915 1.394 . S
C914 H922 0.930 . S
C915 C914 1.394 . S
C915 C916 1.383 . S
C915 H923 0.929 . S
C916 C915 1.383 . S
C916 C917 1.377 . S
C917 H901 0.930 . S
C917 C916 1.377 . S
C917 C918 1.379 . S
C918 H902 0.931 . S
C918 C912 1.383 . S
C918 C917 1.379 . S
H919 C913 0.959 . S
H920 C913 0.961 . S
H921 C913 0.960 . S
H922 C914 0.930 . S
H923 C915 0.929 . S
H924 C932 0.929 . S
H925 C934 0.930 . S
H926 C936 0.930 . S
H927 C939 0.929 . S
H928 C942 0.930 . S
H929 C944 0.960 . S
H930 C944 0.960 . S
H931 C944 0.960 . S
C932 H924 0.929 . S
C932 C933 1.377 . S
C932 C934 1.384 . S
C933 C932 1.377 . S
C933 C939 1.390 . S
C934 H925 0.930 . S
C934 C932 1.384 . S
C934 C935 1.372 . S
C935 C934 1.372 . S
C935 C936 1.400 . S
C935 C940 1.490 . S
C936 H926 0.930 . S
C936 C935 1.400 . S
C936 C939 1.386 . S
H937 C953 0.930 . S
H938 C954 0.931 . S
C939 H927 0.929 . S
C939 C933 1.390 . S
C939 C936 1.386 . S
C940 C935 1.490 . S
C940 C942 1.395 . S
C940 C943 1.403 . S
H941 C947 0.930 . S
C942 H928 0.930 . S
C942 C940 1.395 . S
C942 C945 1.403 . S
C943 C940 1.403 . S
C943 C944 1.524 . S
C943 C947 1.400 . S
C944 H929 0.960 . S
C944 H930 0.960 . S
C944 H931 0.960 . S
C944 C943 1.524 . S
C945 C942 1.403 . S
C945 C946 1.392 . S
C945 C949 1.495 . S
C946 C945 1.392 . S
C946 C947 1.385 . S
C946 C948 1.478 . S
C947 H941 0.930 . S
C947 C943 1.400 . S
C947 C946 1.385 . S
C948 C946 1.478 . S
C948 C950 1.381 . S
C948 C954 1.383 . S
C949 C945 1.495 . S
C949 H955 0.959 . S
C949 H956 0.961 . S
C949 H957 0.960 . S
C950 C948 1.381 . S
C950 C951 1.394 . S
C950 H958 0.930 . S
C951 C950 1.394 . S
C951 C952 1.383 . S
C951 H959 0.929 . S
C952 C951 1.383 . S
C952 C953 1.377 . S
C953 H937 0.930 . S
C953 C952 1.377 . S
C953 C954 1.379 . S
C954 H938 0.931 . S
C954 C948 1.383 . S
C954 C953 1.379 . S
H955 C949 0.959 . S
H956 C949 0.961 . S
H957 C949 0.960 . S
H958 C950 0.930 . S
H959 C951 0.929 . S
H960 C968 0.929 . S
H961 C970 0.930 . S
H962 C972 0.930 . S
H963 C975 0.929 . S
H964 C978 0.930 . S
H965 C980 0.960 . S
H966 C980 0.960 . S
H967 C980 0.960 . S
C968 H960 0.929 . S
C968 C969 1.377 . S
C968 C970 1.384 . S
C969 C968 1.377 . S
C969 C975 1.390 . S
C970 H961 0.930 . S
C970 C968 1.384 . S
C970 C971 1.372 . S
C971 C970 1.372 . S
C971 C972 1.400 . S
C971 C976 1.490 . S
C972 H962 0.930 . S
C972 C971 1.400 . S
C972 C975 1.386 . S
H973 C989 0.930 . S
H974 C990 0.931 . S
C975 H963 0.929 . S
C975 C969 1.390 . S
C975 C972 1.386 . S
C976 C971 1.490 . S
C976 C978 1.395 1_554 S
C976 C979 1.403 . S
H977 C983 0.930 . S
C978 H964 0.930 . S
C978 C976 1.395 1_556 S
C978 C981 1.403 . S
C979 C976 1.403 . S
C979 C980 1.524 . S
C979 C983 1.400 . S
C980 H965 0.960 . S
C980 H966 0.960 . S
C980 H967 0.960 . S
C980 C979 1.524 . S
C981 C978 1.403 . S
C981 C982 1.392 1_556 S
C981 C985 1.495 . S
C982 C981 1.392 1_554 S
C982 C983 1.385 . S
C982 C984 1.478 . S
C983 H977 0.930 . S
C983 C979 1.400 . S
C983 C982 1.385 . S
C984 C982 1.478 . S
C984 C986 1.381 . S
C984 C990 1.383 . S
C985 C981 1.495 . S
C985 H991 0.959 . S
C985 H992 0.961 . S
C985 H993 0.960 . S
C986 C984 1.381 . S
C986 C987 1.394 . S
C986 H994 0.930 . S
C987 C986 1.394 . S
C987 C988 1.383 . S
C987 H995 0.929 . S
C988 C987 1.383 . S
C988 C989 1.377 . S
C989 H973 0.930 . S
C989 C988 1.377 . S
C989 C990 1.379 . S
C990 H974 0.931 . S
C990 C984 1.383 . S
C990 C989 1.379 . S
H991 C985 0.959 . S
H992 C985 0.961 . S
H993 C985 0.960 . S
H994 C986 0.930 . S
H995 C987 0.929 . S
H996 C1004 0.929 1_556 S
H997 C1006 0.930 1_556 S
H998 C1008 0.930 . S
H999 C1011 0.929 . S
H1000 C1014 0.930 . S
H1001 C1016 0.960 . S
H1002 C1016 0.960 . S
H1003 C1016 0.960 . S
C1004 H996 0.929 1_554 S
C1004 C1005 1.377 . S
C1004 C1006 1.384 . S
C1005 C1004 1.377 . S
C1005 C1011 1.390 . S
C1006 H997 0.930 1_554 S
C1006 C1004 1.384 . S
C1006 C1007 1.372 . S
C1007 C1006 1.372 . S
C1007 C1008 1.400 . S
C1007 C1012 1.490 . S
C1008 H998 0.930 . S
C1008 C1007 1.400 . S
C1008 C1011 1.386 . S
H1009 C1025 0.930 . S
H1010 C1026 0.931 . S
C1011 H999 0.929 . S
C1011 C1005 1.390 . S
C1011 C1008 1.386 . S
C1012 C1007 1.490 . S
C1012 C1014 1.395 1_554 S
C1012 C1015 1.403 . S
H1013 C1019 0.930 . S
C1014 H1000 0.930 . S
C1014 C1012 1.395 1_556 S
C1014 C1017 1.403 1_565 S
C1015 C1012 1.403 . S
C1015 C1016 1.524 . S
C1015 C1019 1.400 1_565 S
C1016 H1001 0.960 . S
C1016 H1002 0.960 . S
C1016 H1003 0.960 . S
C1016 C1015 1.524 . S
C1017 C1014 1.403 1_545 S
C1017 C1018 1.392 1_556 S
C1017 C1021 1.495 . S
C1018 C1017 1.392 1_554 S
C1018 C1019 1.385 . S
C1018 C1020 1.478 . S
C1019 H1013 0.930 . S
C1019 C1015 1.400 1_545 S
C1019 C1018 1.385 . S
C1020 C1018 1.478 . S
C1020 C1022 1.381 1_554 S
C1020 C1026 1.383 . S
C1021 C1017 1.495 . S
C1021 H1027 0.959 . S
C1021 H1028 0.961 . S
C1021 H1029 0.960 . S
C1022 C1020 1.381 1_556 S
C1022 C1023 1.394 1_556 S
C1022 H1030 0.930 . S
C1023 C1022 1.394 1_554 S
C1023 C1024 1.383 . S
C1023 H1031 0.929 1_554 S
C1024 C1023 1.383 . S
C1024 C1025 1.377 . S
C1025 H1009 0.930 . S
C1025 C1024 1.377 . S
C1025 C1026 1.379 . S
C1026 H1010 0.931 . S
C1026 C1020 1.383 . S
C1026 C1025 1.379 . S
H1027 C1021 0.959 . S
H1028 C1021 0.961 . S
H1029 C1021 0.960 . S
H1030 C1022 0.930 . S
H1031 C1023 0.929 1_556 S
H1032 C1040 0.929 . S
H1033 C1042 0.930 . S
H1034 C1044 0.930 . S
H1035 C1047 0.929 . S
H1036 C1050 0.930 . S
H1037 C1052 0.960 . S
H1038 C1052 0.960 . S
H1039 C1052 0.960 1_554 S
C1040 H1032 0.929 . S
C1040 C1041 1.377 . S
C1040 C1042 1.384 . S
C1041 C1040 1.377 . S
C1041 C1047 1.390 1_556 S
C1042 H1033 0.930 . S
C1042 C1040 1.384 . S
C1042 C1043 1.372 . S
C1043 C1042 1.372 . S
C1043 C1044 1.400 1_556 S
C1043 C1048 1.490 . S
C1044 H1034 0.930 . S
C1044 C1043 1.400 1_554 S
C1044 C1047 1.386 . S
H1045 C1061 0.930 . S
H1046 C1062 0.931 . S
C1047 H1035 0.929 . S
C1047 C1041 1.390 1_554 S
C1047 C1044 1.386 . S
C1048 C1043 1.490 . S
C1048 C1050 1.395 . S
C1048 C1051 1.403 . S
H1049 C1055 0.930 . S
C1050 H1036 0.930 . S
C1050 C1048 1.395 . S
C1050 C1053 1.403 . S
C1051 C1048 1.403 . S
C1051 C1052 1.524 . S
C1051 C1055 1.400 . S
C1052 H1037 0.960 . S
C1052 H1038 0.960 . S
C1052 H1039 0.960 1_556 S
C1052 C1051 1.524 . S
C1053 C1050 1.403 . S
C1053 C1054 1.392 . S
C1053 C1057 1.495 . S
C1054 C1053 1.392 . S
C1054 C1055 1.385 . S
C1054 C1056 1.478 . S
C1055 H1049 0.930 . S
C1055 C1051 1.400 . S
C1055 C1054 1.385 . S
C1056 C1054 1.478 . S
C1056 C1058 1.381 . S
C1056 C1062 1.383 1_556 S
C1057 C1053 1.495 . S
C1057 H1063 0.959 . S
C1057 H1064 0.961 1_556 S
C1057 H1065 0.960 . S
C1058 C1056 1.381 . S
C1058 C1059 1.394 . S
C1058 H1066 0.930 . S
C1059 C1058 1.394 . S
C1059 C1060 1.383 . S
C1059 H1067 0.929 . S
C1060 C1059 1.383 . S
C1060 C1061 1.377 1_556 S
C1061 H1045 0.930 . S
C1061 C1060 1.377 1_554 S
C1061 C1062 1.379 . S
C1062 H1046 0.931 . S
C1062 C1056 1.383 1_554 S
C1062 C1061 1.379 . S
H1063 C1057 0.959 . S
H1064 C1057 0.961 1_554 S
H1065 C1057 0.960 . S
H1066 C1058 0.930 . S
H1067 C1059 0.929 . S
H1068 C1076 0.929 . S
H1069 C1078 0.930 . S
H1070 C1080 0.930 . S
H1071 C1083 0.929 . S
H1072 C1086 0.930 . S
H1073 C1088 0.960 1_565 S
H1074 C1088 0.960 . S
H1075 C1088 0.960 . S
C1076 H1068 0.929 . S
C1076 C1077 1.377 . S
C1076 C1078 1.384 . S
C1077 C1076 1.377 . S
C1077 C1083 1.390 1_556 S
C1078 H1069 0.930 . S
C1078 C1076 1.384 . S
C1078 C1079 1.372 . S
C1079 C1078 1.372 . S
C1079 C1080 1.400 1_556 S
C1079 C1084 1.490 . S
C1080 H1070 0.930 . S
C1080 C1079 1.400 1_554 S
C1080 C1083 1.386 . S
H1081 C1097 0.930 . S
H1082 C1098 0.931 . S
C1083 H1071 0.929 . S
C1083 C1077 1.390 1_554 S
C1083 C1080 1.386 . S
C1084 C1079 1.490 . S
C1084 C1086 1.395 . S
C1084 C1087 1.403 1_556 S
H1085 C1091 0.930 . S
C1086 H1072 0.930 . S
C1086 C1084 1.395 . S
C1086 C1089 1.433 . S
C1087 C1084 1.403 1_554 S
C1087 C1088 1.524 . S
C1087 C1091 1.400 1_545 S
C1088 H1073 0.960 1_545 S
C1088 H1074 0.960 . S
C1088 H1075 0.960 . S
C1088 C1087 1.524 . S
C1089 C1086 1.433 . S
C1089 C1090 1.376 1_545 S
C1089 C1093 1.483 1_545 S
C1090 C1089 1.376 1_565 S
C1090 C1091 1.385 1_556 S
C1090 C1092 1.478 . S
C1091 H1085 0.930 . S
C1091 C1087 1.400 1_565 S
C1091 C1090 1.385 1_554 S
C1092 C1090 1.478 . S
C1092 C1094 1.381 . S
C1092 C1098 1.383 1_556 S
C1093 C1089 1.483 1_565 S
C1093 H1099 0.959 1_565 S
C1093 H1100 0.961 . S
C1093 H1101 0.960 . S
C1094 C1092 1.381 . S
C1094 C1095 1.394 . S
C1094 H1102 0.930 . S
C1095 C1094 1.394 . S
C1095 C1096 1.383 . S
C1095 H1103 0.929 . S
C1096 C1095 1.383 . S
C1096 C1097 1.377 1_556 S
C1097 H1081 0.930 . S
C1097 C1096 1.377 1_554 S
C1097 C1098 1.379 . S
C1098 H1082 0.931 . S
C1098 C1092 1.383 1_554 S
C1098 C1097 1.379 . S
H1099 C1093 0.959 1_545 S
H1100 C1093 0.961 . S
H1101 C1093 0.960 . S
H1102 C1094 0.930 . S
H1103 C1095 0.929 . S
H1104 C1112 0.929 . S
H1105 C1114 0.930 . S
H1106 C1116 0.930 . S
H1107 C1119 0.929 . S
H1108 C1122 0.930 . S
H1109 C1124 0.960 1_556 S
H1110 C1124 0.960 . S
H1111 C1124 0.960 . S
C1112 H1104 0.929 . S
C1112 C1113 1.377 . S
C1112 C1114 1.384 . S
C1113 C1112 1.377 . S
C1113 C1119 1.390 . S
C1114 H1105 0.930 . S
C1114 C1112 1.384 . S
C1114 C1115 1.372 . S
C1115 C1114 1.372 . S
C1115 C1116 1.400 . S
C1115 C1120 1.490 . S
C1116 H1106 0.930 . S
C1116 C1115 1.400 . S
C1116 C1119 1.386 . S
H1117 C1133 0.930 . S
H1118 C1134 0.931 . S
C1119 H1107 0.929 . S
C1119 C1113 1.390 . S
C1119 C1116 1.386 . S
C1120 C1115 1.490 . S
C1120 C1122 1.395 . S
C1120 C1123 1.403 1_554 S
H1121 C1127 0.930 . S
C1122 H1108 0.930 . S
C1122 C1120 1.395 . S
C1122 C1125 1.403 1_554 S
C1123 C1120 1.403 1_556 S
C1123 C1124 1.524 1_556 S
C1123 C1127 1.400 . S
C1124 H1109 0.960 1_554 S
C1124 H1110 0.960 . S
C1124 H1111 0.960 . S
C1124 C1123 1.524 1_554 S
C1125 C1122 1.403 1_556 S
C1125 C1126 1.392 . S
C1125 C1129 1.495 . S
C1126 C1125 1.392 . S
C1126 C1127 1.385 . S
C1126 C1128 1.478 . S
C1127 H1121 0.930 . S
C1127 C1123 1.400 . S
C1127 C1126 1.385 . S
C1128 C1126 1.478 . S
C1128 C1130 1.381 . S
C1128 C1134 1.383 . S
C1129 C1125 1.495 . S
C1129 H1135 0.959 . S
C1129 H1136 0.961 . S
C1129 H1137 0.960 . S
C1130 C1128 1.381 . S
C1130 C1131 1.394 . S
C1130 H1138 0.930 . S
C1131 C1130 1.394 . S
C1131 C1132 1.383 . S
C1131 H1139 0.929 . S
C1132 C1131 1.383 . S
C1132 C1133 1.377 . S
C1133 H1117 0.930 . S
C1133 C1132 1.377 . S
C1133 C1134 1.379 . S
C1134 H1118 0.931 . S
C1134 C1128 1.383 . S
C1134 C1133 1.379 . S
H1135 C1129 0.959 . S
H1136 C1129 0.961 . S
H1137 C1129 0.960 . S
H1138 C1130 0.930 . S
H1139 C1131 0.929 . S
H1140 C1148 0.929 . S
H1141 C1150 0.930 . S
H1142 C1152 0.930 . S
H1143 C1155 0.929 . S
H1144 C1158 0.930 1_554 S
H1145 C1160 0.960 . S
H1146 C1160 0.960 . S
H1147 C1160 0.960 . S
C1148 H1140 0.929 . S
C1148 C1149 1.377 . S
C1148 C1150 1.384 . S
C1149 C1148 1.377 . S
C1149 C1155 1.390 . S
C1150 H1141 0.930 . S
C1150 C1148 1.384 . S
C1150 C1151 1.372 . S
C1151 C1150 1.372 . S
C1151 C1152 1.400 . S
C1151 C1156 1.490 . S
C1152 H1142 0.930 . S
C1152 C1151 1.400 . S
C1152 C1155 1.386 . S
H1153 C1169 0.930 . S
H1154 C1170 0.931 . S
C1155 H1143 0.929 . S
C1155 C1149 1.390 . S
C1155 C1152 1.386 . S
C1156 C1151 1.490 . S
C1156 C1158 1.395 1_554 S
C1156 C1159 1.403 1_554 S
H1157 C1163 0.930 . S
C1158 H1144 0.930 1_556 S
C1158 C1156 1.395 1_556 S
C1158 C1161 1.403 . S
C1159 C1156 1.403 1_556 S
C1159 C1160 1.524 1_556 S
C1159 C1163 1.400 . S
C1160 H1145 0.960 . S
C1160 H1146 0.960 . S
C1160 H1147 0.960 . S
C1160 C1159 1.524 1_554 S
C1161 C1158 1.403 . S
C1161 C1162 1.392 . S
C1161 C1165 1.495 . S
C1162 C1161 1.392 . S
C1162 C1163 1.385 . S
C1162 C1164 1.478 . S
C1163 H1157 0.930 . S
C1163 C1159 1.400 . S
C1163 C1162 1.385 . S
C1164 C1162 1.478 . S
C1164 C1166 1.381 . S
C1164 C1170 1.383 . S
C1165 C1161 1.495 . S
C1165 H1171 0.959 . S
C1165 H1172 0.961 . S
C1165 H1173 0.960 . S
C1166 C1164 1.381 . S
C1166 C1167 1.394 . S
C1166 H1174 0.930 . S
C1167 C1166 1.394 . S
C1167 C1168 1.383 . S
C1167 H1175 0.929 . S
C1168 C1167 1.383 . S
C1168 C1169 1.377 . S
C1169 H1153 0.930 . S
C1169 C1168 1.377 . S
C1169 C1170 1.379 . S
C1170 H1154 0.931 . S
C1170 C1164 1.383 . S
C1170 C1169 1.379 . S
H1171 C1165 0.959 . S
H1172 C1165 0.961 . S
H1173 C1165 0.960 . S
H1174 C1166 0.930 . S
H1175 C1167 0.929 . S
H1176 C1184 0.929 . S
H1177 C1186 0.930 . S
H1178 C1188 0.930 . S
H1179 C1191 0.929 . S
H1180 C1194 0.930 . S
H1181 C1196 0.960 . S
H1182 C1196 0.960 . S
H1183 C1196 0.960 . S
C1184 H1176 0.929 . S
C1184 C1185 1.377 . S
C1184 C1186 1.384 . S
C1185 C1184 1.377 . S
C1185 C1191 1.390 . S
C1186 H1177 0.930 . S
C1186 C1184 1.384 . S
C1186 C1187 1.372 . S
C1187 C1186 1.372 . S
C1187 C1188 1.400 . S
C1187 C1192 1.490 . S
C1188 H1178 0.930 . S
C1188 C1187 1.400 . S
C1188 C1191 1.386 . S
H1189 C1205 0.930 . S
H1190 C1206 0.931 . S
C1191 H1179 0.929 . S
C1191 C1185 1.390 . S
C1191 C1188 1.386 . S
C1192 C1187 1.490 . S
C1192 C1194 1.395 . S
C1192 C1195 1.403 . S
H1193 C1199 0.930 . S
C1194 H1180 0.930 . S
C1194 C1192 1.395 . S
C1194 C1197 1.403 1_554 S
C1195 C1192 1.403 . S
C1195 C1196 1.524 . S
C1195 C1199 1.400 1_554 S
C1196 H1181 0.960 . S
C1196 H1182 0.960 . S
C1196 H1183 0.960 . S
C1196 C1195 1.524 . S
C1197 C1194 1.403 1_556 S
C1197 C1198 1.392 . S
C1197 C1201 1.495 . S
C1198 C1197 1.392 . S
C1198 C1199 1.385 . S
C1198 C1200 1.478 . S
C1199 H1193 0.930 . S
C1199 C1195 1.400 1_556 S
C1199 C1198 1.385 . S
C1200 C1198 1.478 . S
C1200 C1202 1.381 . S
C1200 C1206 1.383 . S
C1201 C1197 1.495 . S
C1201 H1207 0.959 . S
C1201 H1208 0.961 . S
C1201 H1209 0.960 . S
C1202 C1200 1.381 . S
C1202 C1203 1.394 . S
C1202 H1210 0.930 . S
C1203 C1202 1.394 . S
C1203 C1204 1.383 . S
C1203 H1211 0.929 . S
C1204 C1203 1.383 . S
C1204 C1205 1.377 . S
C1205 H1189 0.930 . S
C1205 C1204 1.377 . S
C1205 C1206 1.379 . S
C1206 H1190 0.931 . S
C1206 C1200 1.383 . S
C1206 C1205 1.379 . S
H1207 C1201 0.959 . S
H1208 C1201 0.961 . S
H1209 C1201 0.960 . S
H1210 C1202 0.930 . S
H1211 C1203 0.929 . S
H1212 C1220 0.929 . S
H1213 C1222 0.930 . S
H1214 C1224 0.930 . S
H1215 C1227 0.929 . S
H1216 C1230 0.930 . S
H1217 C1232 0.960 1_554 S
H1218 C1232 0.960 . S
H1219 C1232 0.960 . S
C1220 H1212 0.929 . S
C1220 C1221 1.377 . S
C1220 C1222 1.384 . S
C1221 C1220 1.377 . S
C1221 C1227 1.390 . S
C1222 H1213 0.930 . S
C1222 C1220 1.384 . S
C1222 C1223 1.372 . S
C1223 C1222 1.372 . S
C1223 C1224 1.400 . S
C1223 C1228 1.490 . S
C1224 H1214 0.930 . S
C1224 C1223 1.400 . S
C1224 C1227 1.386 . S
H1225 C1241 0.930 . S
H1226 C1242 0.931 . S
C1227 H1215 0.929 . S
C1227 C1221 1.390 . S
C1227 C1224 1.386 . S
C1228 C1223 1.490 . S
C1228 C1230 1.395 . S
C1228 C1231 1.403 1_556 S
H1229 C1235 0.930 . S
C1230 H1216 0.930 . S
C1230 C1228 1.395 . S
C1230 C1233 1.403 1_556 S
C1231 C1228 1.403 1_554 S
C1231 C1232 1.524 1_554 S
C1231 C1235 1.400 . S
C1232 H1217 0.960 1_556 S
C1232 H1218 0.960 . S
C1232 H1219 0.960 . S
C1232 C1231 1.524 1_556 S
C1233 C1230 1.403 1_554 S
C1233 C1234 1.392 . S
C1233 C1237 1.495 . S
C1234 C1233 1.392 . S
C1234 C1235 1.385 . S
C1234 C1236 1.478 . S
C1235 H1229 0.930 . S
C1235 C1231 1.400 . S
C1235 C1234 1.385 . S
C1236 C1234 1.478 . S
C1236 C1238 1.381 . S
C1236 C1242 1.383 . S
C1237 C1233 1.495 . S
C1237 H1243 0.959 . S
C1237 H1244 0.961 . S
C1237 H1245 0.960 . S
C1238 C1236 1.381 . S
C1238 C1239 1.394 . S
C1238 H1246 0.930 . S
C1239 C1238 1.394 . S
C1239 C1240 1.383 . S
C1239 H1247 0.929 . S
C1240 C1239 1.383 . S
C1240 C1241 1.377 . S
C1241 H1225 0.930 . S
C1241 C1240 1.377 . S
C1241 C1242 1.379 . S
C1242 H1226 0.931 . S
C1242 C1236 1.383 . S
C1242 C1241 1.379 . S
H1243 C1237 0.959 . S
H1244 C1237 0.961 . S
H1245 C1237 0.960 . S
H1246 C1238 0.930 . S
H1247 C1239 0.929 . S
H1248 C1256 0.929 . S
H1249 C1258 0.930 . S
H1250 C1260 0.930 . S
H1251 C1263 0.929 . S
H1252 C1266 0.930 . S
H1253 C1268 0.960 . S
H1254 C1268 0.960 . S
H1255 C1268 0.960 . S
C1256 H1248 0.929 . S
C1256 C1257 1.377 . S
C1256 C1258 1.384 . S
C1257 C1256 1.377 . S
C1257 C1263 1.390 . S
C1258 H1249 0.930 . S
C1258 C1256 1.384 . S
C1258 C1259 1.372 . S
C1259 C1258 1.372 . S
C1259 C1260 1.400 . S
C1259 C1264 1.490 . S
C1260 H1250 0.930 . S
C1260 C1259 1.400 . S
C1260 C1263 1.386 . S
H1261 C1277 0.930 . S
H1262 C1278 0.931 . S
C1263 H1251 0.929 . S
C1263 C1257 1.390 . S
C1263 C1260 1.386 . S
C1264 C1259 1.490 . S
C1264 C1266 1.395 . S
C1264 C1267 1.403 . S
H1265 C1271 0.930 . S
C1266 H1252 0.930 . S
C1266 C1264 1.395 . S
C1266 C1269 1.403 . S
C1267 C1264 1.403 . S
C1267 C1268 1.524 . S
C1267 C1271 1.400 . S
C1268 H1253 0.960 . S
C1268 H1254 0.960 . S
C1268 H1255 0.960 . S
C1268 C1267 1.524 . S
C1269 C1266 1.403 . S
C1269 C1270 1.392 . S
C1269 C1273 1.495 . S
C1270 C1269 1.392 . S
C1270 C1271 1.385 . S
C1270 C1272 1.478 . S
C1271 H1265 0.930 . S
C1271 C1267 1.400 . S
C1271 C1270 1.385 . S
C1272 C1270 1.478 . S
C1272 C1274 1.381 . S
C1272 C1278 1.383 . S
C1273 C1269 1.495 . S
C1273 H1279 0.959 . S
C1273 H1280 0.961 . S
C1273 H1281 0.960 . S
C1274 C1272 1.381 . S
C1274 C1275 1.394 . S
C1274 H1282 0.930 . S
C1275 C1274 1.394 . S
C1275 C1276 1.383 . S
C1275 H1283 0.929 . S
C1276 C1275 1.383 . S
C1276 C1277 1.377 . S
C1277 H1261 0.930 . S
C1277 C1276 1.377 . S
C1277 C1278 1.379 . S
C1278 H1262 0.931 . S
C1278 C1272 1.383 . S
C1278 C1277 1.379 . S
H1279 C1273 0.959 . S
H1280 C1273 0.961 . S
H1281 C1273 0.960 . S
H1282 C1274 0.930 . S
H1283 C1275 0.929 . S
H1284 C1292 0.929 . S
H1285 C1294 0.930 . S
H1286 C1296 0.930 . S
H1287 C1299 0.929 . S
H1288 C1302 0.930 . S
H1289 C1304 0.960 . S
H1290 C1304 0.960 . S
H1291 C1304 0.960 . S
C1292 H1284 0.929 . S
C1292 C1293 1.377 . S
C1292 C1294 1.384 . S
C1293 C1292 1.377 . S
C1293 C1299 1.390 . S
C1294 H1285 0.930 . S
C1294 C1292 1.384 . S
C1294 C1295 1.372 . S
C1295 C1294 1.372 . S
C1295 C1296 1.400 . S
C1295 C1300 1.490 . S
C1296 H1286 0.930 . S
C1296 C1295 1.400 . S
C1296 C1299 1.386 . S
H1297 C1313 0.930 . S
H1298 C1314 0.931 . S
C1299 H1287 0.929 . S
C1299 C1293 1.390 . S
C1299 C1296 1.386 . S
C1300 C1295 1.490 . S
C1300 C1302 1.395 . S
C1300 C1303 1.403 . S
H1301 C1307 0.930 . S
C1302 H1288 0.930 . S
C1302 C1300 1.395 . S
C1302 C1305 1.403 . S
C1303 C1300 1.403 . S
C1303 C1304 1.524 . S
C1303 C1307 1.400 . S
C1304 H1289 0.960 . S
C1304 H1290 0.960 . S
C1304 H1291 0.960 . S
C1304 C1303 1.524 . S
C1305 C1302 1.403 . S
C1305 C1306 1.392 . S
C1305 C1309 1.495 . S
C1306 C1305 1.392 . S
C1306 C1307 1.385 . S
C1306 C1308 1.478 . S
C1307 H1301 0.930 . S
C1307 C1303 1.400 . S
C1307 C1306 1.385 . S
C1308 C1306 1.478 . S
C1308 C1310 1.381 . S
C1308 C1314 1.383 . S
C1309 C1305 1.495 . S
C1309 H1315 0.959 . S
C1309 H1316 0.961 . S
C1309 H1317 0.960 . S
C1310 C1308 1.381 . S
C1310 C1311 1.394 . S
C1310 H1318 0.930 . S
C1311 C1310 1.394 . S
C1311 C1312 1.383 . S
C1311 H1319 0.929 . S
C1312 C1311 1.383 . S
C1312 C1313 1.377 . S
C1313 H1297 0.930 . S
C1313 C1312 1.377 . S
C1313 C1314 1.379 . S
C1314 H1298 0.931 . S
C1314 C1308 1.383 . S
C1314 C1313 1.379 . S
H1315 C1309 0.959 . S
H1316 C1309 0.961 . S
H1317 C1309 0.960 . S
H1318 C1310 0.930 . S
H1319 C1311 0.929 . S
H1320 C1328 0.929 . S
H1321 C1330 0.930 . S
H1322 C1332 0.930 . S
H1323 C1335 0.929 . S
H1324 C1338 0.930 . S
H1325 C1340 0.960 . S
H1326 C1340 0.960 . S
H1327 C1340 0.960 . S
C1328 H1320 0.929 . S
C1328 C1329 1.377 . S
C1328 C1330 1.384 . S
C1329 C1328 1.377 . S
C1329 C1335 1.390 . S
C1330 H1321 0.930 . S
C1330 C1328 1.384 . S
C1330 C1331 1.372 . S
C1331 C1330 1.372 . S
C1331 C1332 1.400 . S
C1331 C1336 1.490 . S
C1332 H1322 0.930 . S
C1332 C1331 1.400 . S
C1332 C1335 1.386 . S
H1333 C1349 0.930 . S
H1334 C1350 0.931 . S
C1335 H1323 0.929 . S
C1335 C1329 1.390 . S
C1335 C1332 1.386 . S
C1336 C1331 1.490 . S
C1336 C1338 1.395 . S
C1336 C1339 1.403 . S
H1337 C1343 0.930 . S
C1338 H1324 0.930 . S
C1338 C1336 1.395 . S
C1338 C1341 1.403 . S
C1339 C1336 1.403 . S
C1339 C1340 1.524 . S
C1339 C1343 1.400 . S
C1340 H1325 0.960 . S
C1340 H1326 0.960 . S
C1340 H1327 0.960 . S
C1340 C1339 1.524 . S
C1341 C1338 1.403 . S
C1341 C1342 1.392 . S
C1341 C1345 1.495 . S
C1342 C1341 1.392 . S
C1342 C1343 1.385 . S
C1342 C1344 1.478 . S
C1343 H1337 0.930 . S
C1343 C1339 1.400 . S
C1343 C1342 1.385 . S
C1344 C1342 1.478 . S
C1344 C1346 1.381 . S
C1344 C1350 1.383 . S
C1345 C1341 1.495 . S
C1345 H1351 0.959 . S
C1345 H1352 0.961 . S
C1345 H1353 0.960 . S
C1346 C1344 1.381 . S
C1346 C1347 1.394 . S
C1346 H1354 0.930 . S
C1347 C1346 1.394 . S
C1347 C1348 1.383 . S
C1347 H1355 0.929 . S
C1348 C1347 1.383 . S
C1348 C1349 1.377 . S
C1349 H1333 0.930 . S
C1349 C1348 1.377 . S
C1349 C1350 1.379 . S
C1350 H1334 0.931 . S
C1350 C1344 1.383 . S
C1350 C1349 1.379 . S
H1351 C1345 0.959 . S
H1352 C1345 0.961 . S
H1353 C1345 0.960 . S
H1354 C1346 0.930 . S
H1355 C1347 0.929 . S
H1356 C1364 0.929 . S
H1357 C1366 0.930 . S
H1358 C1368 0.930 . S
H1359 C1371 0.929 . S
H1360 C1374 0.930 . S
H1361 C1376 0.960 . S
H1362 C1376 0.960 . S
H1363 C1376 0.960 . S
C1364 H1356 0.929 . S
C1364 C1365 1.377 . S
C1364 C1366 1.384 . S
C1365 C1364 1.377 . S
C1365 C1371 1.390 . S
C1366 H1357 0.930 . S
C1366 C1364 1.384 . S
C1366 C1367 1.372 . S
C1367 C1366 1.372 . S
C1367 C1368 1.400 . S
C1367 C1372 1.490 . S
C1368 H1358 0.930 . S
C1368 C1367 1.400 . S
C1368 C1371 1.386 . S
H1369 C1385 0.930 . S
H1370 C1386 0.931 . S
C1371 H1359 0.929 . S
C1371 C1365 1.390 . S
C1371 C1368 1.386 . S
C1372 C1367 1.490 . S
C1372 C1374 1.395 . S
C1372 C1375 1.403 . S
H1373 C1379 0.930 . S
C1374 H1360 0.930 . S
C1374 C1372 1.395 . S
C1374 C1377 1.403 . S
C1375 C1372 1.403 . S
C1375 C1376 1.524 . S
C1375 C1379 1.400 . S
C1376 H1361 0.960 . S
C1376 H1362 0.960 . S
C1376 H1363 0.960 . S
C1376 C1375 1.524 . S
C1377 C1374 1.403 . S
C1377 C1378 1.392 . S
C1377 C1381 1.495 . S
C1378 C1377 1.392 . S
C1378 C1379 1.385 . S
C1378 C1380 1.478 . S
C1379 H1373 0.930 . S
C1379 C1375 1.400 . S
C1379 C1378 1.385 . S
C1380 C1378 1.478 . S
C1380 C1382 1.381 . S
C1380 C1386 1.383 . S
C1381 C1377 1.495 . S
C1381 H1387 0.959 . S
C1381 H1388 0.961 . S
C1381 H1389 0.960 . S
C1382 C1380 1.381 . S
C1382 C1383 1.394 . S
C1382 H1390 0.930 . S
C1383 C1382 1.394 . S
C1383 C1384 1.383 . S
C1383 H1391 0.929 . S
C1384 C1383 1.383 . S
C1384 C1385 1.377 . S
C1385 H1369 0.930 . S
C1385 C1384 1.377 . S
C1385 C1386 1.379 . S
C1386 H1370 0.931 . S
C1386 C1380 1.383 . S
C1386 C1385 1.379 . S
H1387 C1381 0.959 . S
H1388 C1381 0.961 . S
H1389 C1381 0.960 . S
H1390 C1382 0.930 . S
H1391 C1383 0.929 . S
H1392 C1400 0.929 . S
H1393 C1402 0.930 . S
H1394 C1404 0.930 . S
H1395 C1407 0.929 . S
H1396 C1410 0.930 . S
H1397 C1412 0.960 . S
H1398 C1412 0.960 . S
H1399 C1412 0.960 . S
C1400 H1392 0.929 . S
C1400 C1401 1.377 . S
C1400 C1402 1.384 . S
C1401 C1400 1.377 . S
C1401 C1407 1.390 . S
C1402 H1393 0.930 . S
C1402 C1400 1.384 . S
C1402 C1403 1.372 . S
C1403 C1402 1.372 . S
C1403 C1404 1.400 . S
C1403 C1408 1.490 . S
C1404 H1394 0.930 . S
C1404 C1403 1.400 . S
C1404 C1407 1.386 . S
H1405 C1421 0.930 . S
H1406 C1422 0.931 . S
C1407 H1395 0.929 . S
C1407 C1401 1.390 . S
C1407 C1404 1.386 . S
C1408 C1403 1.490 . S
C1408 C1410 1.395 . S
C1408 C1411 1.403 . S
H1409 C1415 0.930 . S
C1410 H1396 0.930 . S
C1410 C1408 1.395 . S
C1410 C1413 1.403 1_455 S
C1411 C1408 1.403 . S
C1411 C1412 1.524 . S
C1411 C1415 1.400 1_455 S
C1412 H1397 0.960 . S
C1412 H1398 0.960 . S
C1412 H1399 0.960 . S
C1412 C1411 1.524 . S
C1413 C1410 1.403 1_655 S
C1413 C1414 1.392 . S
C1413 C1417 1.495 . S
C1414 C1413 1.392 . S
C1414 C1415 1.385 . S
C1414 C1416 1.478 . S
C1415 H1409 0.930 . S
C1415 C1411 1.400 1_655 S
C1415 C1414 1.385 . S
C1416 C1414 1.478 . S
C1416 C1418 1.381 . S
C1416 C1422 1.383 . S
C1417 C1413 1.495 . S
C1417 H1423 0.959 . S
C1417 H1424 0.961 . S
C1417 H1425 0.960 . S
C1418 C1416 1.381 . S
C1418 C1419 1.394 . S
C1418 H1426 0.930 . S
C1419 C1418 1.394 . S
C1419 C1420 1.383 . S
C1419 H1427 0.929 . S
C1420 C1419 1.383 . S
C1420 C1421 1.377 . S
C1421 H1405 0.930 . S
C1421 C1420 1.377 . S
C1421 C1422 1.379 . S
C1422 H1406 0.931 . S
C1422 C1416 1.383 . S
C1422 C1421 1.379 . S
H1423 C1417 0.959 . S
H1424 C1417 0.961 . S
H1425 C1417 0.960 . S
H1426 C1418 0.930 . S
H1427 C1419 0.929 . S
H1428 C1436 0.929 . S
H1429 C1438 0.930 . S
H1430 C1440 0.930 . S
H1431 C1443 0.929 . S
H1432 C1446 0.930 . S
H1433 C1448 0.960 . S
H1434 C1448 0.960 . S
H1435 C1448 0.960 . S
C1436 H1428 0.929 . S
C1436 C1437 1.377 . S
C1436 C1438 1.384 . S
C1437 C1436 1.377 . S
C1437 C1443 1.390 . S
C1438 H1429 0.930 . S
C1438 C1436 1.384 . S
C1438 C1439 1.372 . S
C1439 C1438 1.372 . S
C1439 C1440 1.400 . S
C1439 C1444 1.490 . S
C1440 H1430 0.930 . S
C1440 C1439 1.400 . S
C1440 C1443 1.386 . S
H1441 C1457 0.930 . S
H1442 C1458 0.931 . S
C1443 H1431 0.929 . S
C1443 C1437 1.390 . S
C1443 C1440 1.386 . S
C1444 C1439 1.490 . S
C1444 C1446 1.395 . S
C1444 C1447 1.403 . S
H1445 C1451 0.930 . S
C1446 H1432 0.930 . S
C1446 C1444 1.395 . S
C1446 C1449 1.403 1_655 S
C1447 C1444 1.403 . S
C1447 C1448 1.524 . S
C1447 C1451 1.400 1_655 S
C1448 H1433 0.960 . S
C1448 H1434 0.960 . S
C1448 H1435 0.960 . S
C1448 C1447 1.524 . S
C1449 C1446 1.403 1_455 S
C1449 C1450 1.392 . S
C1449 C1453 1.495 . S
C1450 C1449 1.392 . S
C1450 C1451 1.385 . S
C1450 C1452 1.478 . S
C1451 H1445 0.930 . S
C1451 C1447 1.400 1_455 S
C1451 C1450 1.385 . S
C1452 C1450 1.478 . S
C1452 C1454 1.381 . S
C1452 C1458 1.383 . S
C1453 C1449 1.495 . S
C1453 H1459 0.959 . S
C1453 H1460 0.961 . S
C1453 H1461 0.960 . S
C1454 C1452 1.381 . S
C1454 C1455 1.394 . S
C1454 H1462 0.930 . S
C1455 C1454 1.394 . S
C1455 C1456 1.383 . S
C1455 H1463 0.929 . S
C1456 C1455 1.383 . S
C1456 C1457 1.377 . S
C1457 H1441 0.930 . S
C1457 C1456 1.377 . S
C1457 C1458 1.379 . S
C1458 H1442 0.931 . S
C1458 C1452 1.383 . S
C1458 C1457 1.379 . S
H1459 C1453 0.959 . S
H1460 C1453 0.961 . S
H1461 C1453 0.960 . S
H1462 C1454 0.930 . S
H1463 C1455 0.929 . S
H1464 C1472 0.929 . S
H1465 C1474 0.930 . S
H1466 C1476 0.930 . S
H1467 C1479 0.929 . S
H1468 C1482 0.930 . S
H1469 C1484 0.960 . S
H1470 C1484 0.960 . S
H1471 C1484 0.960 . S
C1472 H1464 0.929 . S
C1472 C1473 1.377 . S
C1472 C1474 1.384 . S
C1473 C1472 1.377 . S
C1473 C1479 1.390 . S
C1474 H1465 0.930 . S
C1474 C1472 1.384 . S
C1474 C1475 1.372 . S
C1475 C1474 1.372 . S
C1475 C1476 1.400 . S
C1475 C1480 1.490 . S
C1476 H1466 0.930 . S
C1476 C1475 1.400 . S
C1476 C1479 1.386 . S
H1477 C1493 0.930 . S
H1478 C1494 0.931 . S
C1479 H1467 0.929 . S
C1479 C1473 1.390 . S
C1479 C1476 1.386 . S
C1480 C1475 1.490 . S
C1480 C1482 1.395 . S
C1480 C1483 1.403 . S
H1481 C1487 0.930 . S
C1482 H1468 0.930 . S
C1482 C1480 1.395 . S
C1482 C1485 1.403 . S
C1483 C1480 1.403 . S
C1483 C1484 1.524 . S
C1483 C1487 1.400 . S
C1484 H1469 0.960 . S
C1484 H1470 0.960 . S
C1484 H1471 0.960 . S
C1484 C1483 1.524 . S
C1485 C1482 1.403 . S
C1485 C1486 1.392 . S
C1485 C1489 1.495 . S
C1486 C1485 1.392 . S
C1486 C1487 1.385 . S
C1486 C1488 1.478 . S
C1487 H1481 0.930 . S
C1487 C1483 1.400 . S
C1487 C1486 1.385 . S
C1488 C1486 1.478 . S
C1488 C1490 1.381 . S
C1488 C1494 1.383 . S
C1489 C1485 1.495 . S
C1489 H1495 0.959 . S
C1489 H1496 0.961 . S
C1489 H1497 0.960 . S
C1490 C1488 1.381 . S
C1490 C1491 1.394 . S
C1490 H1498 0.930 . S
C1491 C1490 1.394 . S
C1491 C1492 1.383 . S
C1491 H1499 0.929 . S
C1492 C1491 1.383 . S
C1492 C1493 1.377 . S
C1493 H1477 0.930 . S
C1493 C1492 1.377 . S
C1493 C1494 1.379 . S
C1494 H1478 0.931 . S
C1494 C1488 1.383 . S
C1494 C1493 1.379 . S
H1495 C1489 0.959 . S
H1496 C1489 0.961 . S
H1497 C1489 0.960 . S
H1498 C1490 0.930 . S
H1499 C1491 0.929 . S
H1500 C1508 0.929 . S
H1501 C1510 0.930 . S
H1502 C1512 0.930 . S
H1503 C1515 0.929 . S
H1504 C1518 0.930 . S
H1505 C1520 0.960 . S
H1506 C1520 0.960 . S
H1507 C1520 0.960 . S
C1508 H1500 0.929 . S
C1508 C1509 1.377 . S
C1508 C1510 1.384 . S
C1509 C1508 1.377 . S
C1509 C1515 1.390 . S
C1510 H1501 0.930 . S
C1510 C1508 1.384 . S
C1510 C1511 1.372 . S
C1511 C1510 1.372 . S
C1511 C1512 1.400 . S
C1511 C1516 1.490 . S
C1512 H1502 0.930 . S
C1512 C1511 1.400 . S
C1512 C1515 1.386 . S
H1513 C1529 0.930 . S
H1514 C1530 0.931 . S
C1515 H1503 0.929 . S
C1515 C1509 1.390 . S
C1515 C1512 1.386 . S
C1516 C1511 1.490 . S
C1516 C1518 1.395 . S
C1516 C1519 1.403 . S
H1517 C1523 0.930 . S
C1518 H1504 0.930 . S
C1518 C1516 1.395 . S
C1518 C1521 1.403 . S
C1519 C1516 1.403 . S
C1519 C1520 1.524 . S
C1519 C1523 1.400 . S
C1520 H1505 0.960 . S
C1520 H1506 0.960 . S
C1520 H1507 0.960 . S
C1520 C1519 1.524 . S
C1521 C1518 1.403 . S
C1521 C1522 1.392 . S
C1521 C1525 1.495 . S
C1522 C1521 1.392 . S
C1522 C1523 1.385 . S
C1522 C1524 1.478 . S
C1523 H1517 0.930 . S
C1523 C1519 1.400 . S
C1523 C1522 1.385 . S
C1524 C1522 1.478 . S
C1524 C1526 1.381 . S
C1524 C1530 1.383 . S
C1525 C1521 1.495 . S
C1525 H1531 0.959 1_554 S
C1525 H1532 0.961 . S
C1525 H1533 0.960 1_554 S
C1526 C1524 1.381 . S
C1526 C1527 1.394 . S
C1526 H1534 0.930 . S
C1527 C1526 1.394 . S
C1527 C1528 1.383 . S
C1527 H1535 0.929 . S
C1528 C1527 1.383 . S
C1528 C1529 1.377 . S
C1529 H1513 0.930 . S
C1529 C1528 1.377 . S
C1529 C1530 1.379 . S
C1530 H1514 0.931 . S
C1530 C1524 1.383 . S
C1530 C1529 1.379 . S
H1531 C1525 0.959 1_556 S
H1532 C1525 0.961 . S
H1533 C1525 0.960 1_556 S
H1534 C1526 0.930 . S
H1535 C1527 0.929 . S
C681 C70 1.531 . S
C700 C646 1.532 . S
C717 C562 1.519 . S
C736 C154 1.541 . S
C753 C490 1.515 . S
C772 C226 1.511 . S
C789 C406 1.516 . S
C808 C310 1.513 . S
C825 C242 1.493 . S
C844 C74 1.522 . S
C861 C158 1.531 . S
C880 C326 1.474 . S
C897 C315 1.527 . S
C916 C147 1.471 . S
C933 C231 1.524 . S
C952 C63 1.512 . S
C969 C410 1.475 . S
C988 C578 1.448 . S
C1005 C494 1.474 . S
C1024 C662 1.447 . S
C1041 C651 1.477 . S
C1060 C483 1.462 . S
C1077 C567 1.473 . S
C1096 C399 1.483 . S
C1113 C56 1.862 . S
C1132 C67 1.864 . S
C1149 C140 1.854 . S
C1168 C151 1.837 . S
C1185 C224 1.854 . S
C1204 C235 1.836 . S
C1221 C319 1.856 . S
C1240 C308 1.834 . S
C1257 C403 1.858 . S
C1276 C392 1.836 . S
C1293 C476 1.854 . S
C1312 C487 1.838 . S
C1329 C571 1.854 . S
C1348 C560 1.857 . S
C1365 C655 1.855 . S
C1384 C644 1.834 . S
C1401 C58 1.791 . S
C1420 C142 1.766 . S
C1437 C322 1.796 . S
C1456 C238 1.826 . S
C1473 C394 1.791 . S
C1492 C478 1.765 . S
C1509 C658 1.803 . S
C1528 C574 1.801 . S
