# Generated by pormake.
# Topology wgi, (5)-cn, num edge types: 1
# Building blocks:
#     Node 0, Type 0, BuildingBlock: XOMCOT_clean_sbu_1, # of connection points: 5
#     Node 1, Type 0, BuildingBlock: XOMCOT_clean_sbu_1, # of connection points: 5
#     Node 2, Type 0, BuildingBlock: XOMCOT_clean_sbu_1, # of connection points: 5
#     Node 3, Type 0, BuildingBlock: XOMCOT_clean_sbu_1, # of connection points: 5
#     Node 4, Type 0, BuildingBlock: XOMCOT_clean_sbu_1, # of connection points: 5
#     Node 5, Type 0, BuildingBlock: XOMCOT_clean_sbu_1, # of connection points: 5
#     Node 6, Type 0, BuildingBlock: XOMCOT_clean_sbu_1, # of connection points: 5
#     Node 7, Type 0, BuildingBlock: XOMCOT_clean_sbu_1, # of connection points: 5
#     Node 8, Type 0, BuildingBlock: XOMCOT_clean_sbu_1, # of connection points: 5
#     Node 9, Type 0, BuildingBlock: XOMCOT_clean_sbu_1, # of connection points: 5
#     Node 10, Type 0, BuildingBlock: XOMCOT_clean_sbu_1, # of connection points: 5
#     Node 11, Type 0, BuildingBlock: XOMCOT_clean_sbu_1, # of connection points: 5
#     Node 12, Type 0, BuildingBlock: XOMCOT_clean_sbu_1, # of connection points: 5
#     Node 13, Type 0, BuildingBlock: XOMCOT_clean_sbu_1, # of connection points: 5
#     Node 14, Type 0, BuildingBlock: XOMCOT_clean_sbu_1, # of connection points: 5
#     Node 15, Type 0, BuildingBlock: XOMCOT_clean_sbu_1, # of connection points: 5
#     Node 16, Type 0, BuildingBlock: XOMCOT_clean_sbu_1, # of connection points: 5
#     Node 17, Type 0, BuildingBlock: XOMCOT_clean_sbu_1, # of connection points: 5
#     Node 18, Type 0, BuildingBlock: XOMCOT_clean_sbu_1, # of connection points: 5
#     Node 19, Type 0, BuildingBlock: XOMCOT_clean_sbu_1, # of connection points: 5
#     Node 20, Type 0, BuildingBlock: XOMCOT_clean_sbu_1, # of connection points: 5
#     Node 21, Type 0, BuildingBlock: XOMCOT_clean_sbu_1, # of connection points: 5
#     Node 22, Type 0, BuildingBlock: XOMCOT_clean_sbu_1, # of connection points: 5
#     Node 23, Type 0, BuildingBlock: XOMCOT_clean_sbu_1, # of connection points: 5
#     Node 24, Type 0, BuildingBlock: XOMCOT_clean_sbu_1, # of connection points: 5
#     Node 25, Type 0, BuildingBlock: XOMCOT_clean_sbu_1, # of connection points: 5
#     Node 26, Type 0, BuildingBlock: XOMCOT_clean_sbu_1, # of connection points: 5
#     Node 27, Type 0, BuildingBlock: XOMCOT_clean_sbu_1, # of connection points: 5
#     Node 28, Type 0, BuildingBlock: XOMCOT_clean_sbu_1, # of connection points: 5
#     Node 29, Type 0, BuildingBlock: XOMCOT_clean_sbu_1, # of connection points: 5
#     Node 30, Type 0, BuildingBlock: XOMCOT_clean_sbu_1, # of connection points: 5
#     Node 31, Type 0, BuildingBlock: XOMCOT_clean_sbu_1, # of connection points: 5
#     Edge 32, Type (0, 0), BuildingBlock: EZIPEK_clean_linker_0, # of connection points: 2
#     Edge 33, Type (0, 0), BuildingBlock: EZIPEK_clean_linker_0, # of connection points: 2
#     Edge 34, Type (0, 0), BuildingBlock: EZIPEK_clean_linker_0, # of connection points: 2
#     Edge 35, Type (0, 0), BuildingBlock: EZIPEK_clean_linker_0, # of connection points: 2
#     Edge 36, Type (0, 0), BuildingBlock: EZIPEK_clean_linker_0, # of connection points: 2
#     Edge 37, Type (0, 0), BuildingBlock: EZIPEK_clean_linker_0, # of connection points: 2
#     Edge 38, Type (0, 0), BuildingBlock: EZIPEK_clean_linker_0, # of connection points: 2
#     Edge 39, Type (0, 0), BuildingBlock: EZIPEK_clean_linker_0, # of connection points: 2
#     Edge 40, Type (0, 0), BuildingBlock: EZIPEK_clean_linker_0, # of connection points: 2
#     Edge 41, Type (0, 0), BuildingBlock: EZIPEK_clean_linker_0, # of connection points: 2
#     Edge 42, Type (0, 0), BuildingBlock: EZIPEK_clean_linker_0, # of connection points: 2
#     Edge 43, Type (0, 0), BuildingBlock: EZIPEK_clean_linker_0, # of connection points: 2
#     Edge 44, Type (0, 0), BuildingBlock: EZIPEK_clean_linker_0, # of connection points: 2
#     Edge 45, Type (0, 0), BuildingBlock: EZIPEK_clean_linker_0, # of connection points: 2
#     Edge 46, Type (0, 0), BuildingBlock: EZIPEK_clean_linker_0, # of connection points: 2
#     Edge 47, Type (0, 0), BuildingBlock: EZIPEK_clean_linker_0, # of connection points: 2
#     Edge 48, Type (0, 0), BuildingBlock: EZIPEK_clean_linker_0, # of connection points: 2
#     Edge 49, Type (0, 0), BuildingBlock: EZIPEK_clean_linker_0, # of connection points: 2
#     Edge 50, Type (0, 0), BuildingBlock: EZIPEK_clean_linker_0, # of connection points: 2
#     Edge 51, Type (0, 0), BuildingBlock: EZIPEK_clean_linker_0, # of connection points: 2
#     Edge 52, Type (0, 0), BuildingBlock: EZIPEK_clean_linker_0, # of connection points: 2
#     Edge 53, Type (0, 0), BuildingBlock: EZIPEK_clean_linker_0, # of connection points: 2
#     Edge 54, Type (0, 0), BuildingBlock: EZIPEK_clean_linker_0, # of connection points: 2
#     Edge 55, Type (0, 0), BuildingBlock: EZIPEK_clean_linker_0, # of connection points: 2
#     Edge 56, Type (0, 0), BuildingBlock: EZIPEK_clean_linker_0, # of connection points: 2
#     Edge 57, Type (0, 0), BuildingBlock: EZIPEK_clean_linker_0, # of connection points: 2
#     Edge 58, Type (0, 0), BuildingBlock: EZIPEK_clean_linker_0, # of connection points: 2
#     Edge 59, Type (0, 0), BuildingBlock: EZIPEK_clean_linker_0, # of connection points: 2
#     Edge 60, Type (0, 0), BuildingBlock: EZIPEK_clean_linker_0, # of connection points: 2
#     Edge 61, Type (0, 0), BuildingBlock: EZIPEK_clean_linker_0, # of connection points: 2
#     Edge 62, Type (0, 0), BuildingBlock: EZIPEK_clean_linker_0, # of connection points: 2
#     Edge 63, Type (0, 0), BuildingBlock: EZIPEK_clean_linker_0, # of connection points: 2
#     Edge 64, Type (0, 0), BuildingBlock: EZIPEK_clean_linker_0, # of connection points: 2
#     Edge 65, Type (0, 0), BuildingBlock: EZIPEK_clean_linker_0, # of connection points: 2
#     Edge 66, Type (0, 0), BuildingBlock: EZIPEK_clean_linker_0, # of connection points: 2
#     Edge 67, Type (0, 0), BuildingBlock: EZIPEK_clean_linker_0, # of connection points: 2
#     Edge 68, Type (0, 0), BuildingBlock: EZIPEK_clean_linker_0, # of connection points: 2
#     Edge 69, Type (0, 0), BuildingBlock: EZIPEK_clean_linker_0, # of connection points: 2
#     Edge 70, Type (0, 0), BuildingBlock: EZIPEK_clean_linker_0, # of connection points: 2
#     Edge 71, Type (0, 0), BuildingBlock: EZIPEK_clean_linker_0, # of connection points: 2
#     Edge 72, Type (0, 0), BuildingBlock: EZIPEK_clean_linker_0, # of connection points: 2
#     Edge 73, Type (0, 0), BuildingBlock: EZIPEK_clean_linker_0, # of connection points: 2
#     Edge 74, Type (0, 0), BuildingBlock: EZIPEK_clean_linker_0, # of connection points: 2
#     Edge 75, Type (0, 0), BuildingBlock: EZIPEK_clean_linker_0, # of connection points: 2
#     Edge 76, Type (0, 0), BuildingBlock: EZIPEK_clean_linker_0, # of connection points: 2
#     Edge 77, Type (0, 0), BuildingBlock: EZIPEK_clean_linker_0, # of connection points: 2
#     Edge 78, Type (0, 0), BuildingBlock: EZIPEK_clean_linker_0, # of connection points: 2
#     Edge 79, Type (0, 0), BuildingBlock: EZIPEK_clean_linker_0, # of connection points: 2
#     Edge 80, Type (0, 0), BuildingBlock: EZIPEK_clean_linker_0, # of connection points: 2
#     Edge 81, Type (0, 0), BuildingBlock: EZIPEK_clean_linker_0, # of connection points: 2
#     Edge 82, Type (0, 0), BuildingBlock: EZIPEK_clean_linker_0, # of connection points: 2
#     Edge 83, Type (0, 0), BuildingBlock: EZIPEK_clean_linker_0, # of connection points: 2
#     Edge 84, Type (0, 0), BuildingBlock: EZIPEK_clean_linker_0, # of connection points: 2
#     Edge 85, Type (0, 0), BuildingBlock: EZIPEK_clean_linker_0, # of connection points: 2
#     Edge 86, Type (0, 0), BuildingBlock: EZIPEK_clean_linker_0, # of connection points: 2
#     Edge 87, Type (0, 0), BuildingBlock: EZIPEK_clean_linker_0, # of connection points: 2
#     Edge 88, Type (0, 0), BuildingBlock: EZIPEK_clean_linker_0, # of connection points: 2
#     Edge 89, Type (0, 0), BuildingBlock: EZIPEK_clean_linker_0, # of connection points: 2
#     Edge 90, Type (0, 0), BuildingBlock: EZIPEK_clean_linker_0, # of connection points: 2
#     Edge 91, Type (0, 0), BuildingBlock: EZIPEK_clean_linker_0, # of connection points: 2
#     Edge 92, Type (0, 0), BuildingBlock: EZIPEK_clean_linker_0, # of connection points: 2
#     Edge 93, Type (0, 0), BuildingBlock: EZIPEK_clean_linker_0, # of connection points: 2
#     Edge 94, Type (0, 0), BuildingBlock: EZIPEK_clean_linker_0, # of connection points: 2
#     Edge 95, Type (0, 0), BuildingBlock: EZIPEK_clean_linker_0, # of connection points: 2
#     Edge 96, Type (0, 0), BuildingBlock: EZIPEK_clean_linker_0, # of connection points: 2
#     Edge 97, Type (0, 0), BuildingBlock: EZIPEK_clean_linker_0, # of connection points: 2
#     Edge 98, Type (0, 0), BuildingBlock: EZIPEK_clean_linker_0, # of connection points: 2
#     Edge 99, Type (0, 0), BuildingBlock: EZIPEK_clean_linker_0, # of connection points: 2
#     Edge 100, Type (0, 0), BuildingBlock: EZIPEK_clean_linker_0, # of connection points: 2
#     Edge 101, Type (0, 0), BuildingBlock: EZIPEK_clean_linker_0, # of connection points: 2
#     Edge 102, Type (0, 0), BuildingBlock: EZIPEK_clean_linker_0, # of connection points: 2
#     Edge 103, Type (0, 0), BuildingBlock: EZIPEK_clean_linker_0, # of connection points: 2
#     Edge 104, Type (0, 0), BuildingBlock: EZIPEK_clean_linker_0, # of connection points: 2
#     Edge 105, Type (0, 0), BuildingBlock: EZIPEK_clean_linker_0, # of connection points: 2
#     Edge 106, Type (0, 0), BuildingBlock: EZIPEK_clean_linker_0, # of connection points: 2
#     Edge 107, Type (0, 0), BuildingBlock: EZIPEK_clean_linker_0, # of connection points: 2
#     Edge 108, Type (0, 0), BuildingBlock: EZIPEK_clean_linker_0, # of connection points: 2
#     Edge 109, Type (0, 0), BuildingBlock: EZIPEK_clean_linker_0, # of connection points: 2
#     Edge 110, Type (0, 0), BuildingBlock: EZIPEK_clean_linker_0, # of connection points: 2
#     Edge 111, Type (0, 0), BuildingBlock: EZIPEK_clean_linker_0, # of connection points: 2
# Relax obj value: 0.179
# Max RMSD: 0.140
# Mean RMSD: 0.140
data_MOF--net-wgi--node1-XOMCOT_clean_sbu_1--edge1-EZIPEK_clean_linker_0
_symmetry_space_group_name_H-M    P1
_symmetry_Int_Tables_number       1
_symmetry_cell_setting            triclinic
loop_
_symmetry_equiv_pos_as_xyz
'x, y, z'
_cell_length_a     58.63984
_cell_length_b     58.70948
_cell_length_c     19.907331
_cell_angle_alpha  89.884104
_cell_angle_beta   89.873336
_cell_angle_gamma 90.010595
loop_
_atom_site_label
_atom_site_type_symbol
_atom_site_fract_x
_atom_site_fract_y
_atom_site_fract_z
_atom_type_partial_charge
C0 C 0.10735 0.18733 0.48328 0.0
C1 C 0.08457 0.1823 0.48997 0.0
N2 N 0.08055 0.16295 0.45613 0.0
N3 N 0.1175 0.17128 0.44497 0.0
C4 C 0.10068 0.15653 0.42933 0.0
H5 H 0.11611 0.20166 0.50552 0.0
Co6 Co 0.14875 0.17055 0.42829 0.0
C7 C 0.14833 0.15679 0.27995 0.0
O8 O 0.15673 0.1768 0.26422 0.0
N9 N 0.18098 0.16988 0.41503 0.0
C10 C 0.21703 0.17898 0.38937 0.0
C11 C 0.19451 0.18086 0.37011 0.0
C12 C 0.19593 0.16111 0.45989 0.0
N13 N 0.21769 0.16664 0.44613 0.0
O14 O 0.15045 0.14293 0.48212 0.0
H15 H 0.18856 0.19141 0.32935 0.0
H16 H 0.19121 0.15173 0.50413 0.0
O17 O 0.14398 0.15263 0.34229 0.0
C18 C 0.14904 0.14802 0.54467 0.0
O19 O 0.14819 0.16971 0.56076 0.0
N20 N 0.14624 0.19919 0.3854 0.0
C21 C 0.13496 0.24471 0.36307 0.0
C22 C 0.12299 0.22733 0.33041 0.0
C23 C 0.12879 0.20458 0.34266 0.0
C24 C 0.1583 0.21609 0.41624 0.0
C25 C 0.15327 0.23898 0.40461 0.0
H26 H 0.11809 0.19132 0.32218 0.0
H27 H 0.17081 0.21184 0.45409 0.0
H28 H 0.10307 0.14127 0.40002 0.0
H29 H 0.07193 0.19197 0.51749 0.0
H30 H 0.23157 0.18715 0.36598 0.0
H31 H 0.10836 0.23126 0.29939 0.0
H32 H 0.1624 0.25204 0.43196 0.0
C33 C 0.07262 0.85304 0.76392 0.0
C34 C 0.07803 0.83029 0.77028 0.0
N35 N 0.09643 0.82608 0.73166 0.0
N36 N 0.0876 0.86298 0.72148 0.0
C37 C 0.10176 0.84604 0.7021 0.0
H38 H 0.0591 0.86194 0.78998 0.0
Co39 Co 0.0905 0.89405 0.70383 0.0
C40 C 0.10149 0.89221 0.55456 0.0
O41 O 0.08541 0.90751 0.54546 0.0
N42 N 0.09446 0.92593 0.6897 0.0
C43 C 0.10853 0.96003 0.66142 0.0
C44 C 0.10733 0.93737 0.64422 0.0
C45 C 0.08897 0.94209 0.7356 0.0
N46 N 0.09727 0.96286 0.71959 0.0
O47 O 0.1177 0.89408 0.75964 0.0
H48 H 0.11713 0.92981 0.60428 0.0
H49 H 0.08015 0.93851 0.78221 0.0
O50 O 0.10674 0.88632 0.61531 0.0
C51 C 0.11008 0.89628 0.82004 0.0
O52 O 0.088 0.89842 0.8291 0.0
N53 N 0.06168 0.89385 0.66047 0.0
C54 C 0.0157 0.88707 0.6306 0.0
C55 C 0.03225 0.87208 0.60619 0.0
C56 C 0.05515 0.87569 0.62206 0.0
C57 C 0.04561 0.9089 0.68298 0.0
C58 C 0.02255 0.90601 0.66773 0.0
H59 H 0.06748 0.863 0.60702 0.0
H60 H 0.05011 0.92224 0.71736 0.0
H61 H 0.11621 0.84836 0.6689 0.0
H62 H 0.06928 0.81781 0.80107 0.0
H63 H 0.1185 0.97303 0.63628 0.0
H64 H 0.02738 0.85703 0.57827 0.0
H65 H 0.01003 0.91759 0.68861 0.0
C66 C 0.3915 0.82248 1.0069 0.0
C67 C 0.41446 0.82611 1.01558 0.0
N68 N 0.42022 0.84472 0.98003 0.0
N69 N 0.38307 0.83861 0.96533 0.0
C70 C 0.40097 0.85216 0.95042 0.0
H71 H 0.38153 0.80888 0.02895 0.0
Co72 Co 0.35242 0.84117 0.94225 0.0
C73 C 0.35526 0.85311 0.79516 0.0
O74 O 0.34056 0.83666 0.78394 0.0
N75 N 0.32108 0.84431 0.92664 0.0
C76 C 0.28601 0.85728 0.90616 0.0
C77 C 0.30841 0.85719 0.88444 0.0
C78 C 0.30613 0.83745 0.97439 0.0
N79 N 0.28481 0.84485 0.9628 0.0
O80 O 0.35134 0.86863 0.99504 0.0
H81 H 0.31499 0.86742 0.84376 0.0
H82 H 0.311 0.82794 1.0187 0.0
O83 O 0.36084 0.85789 0.85625 0.0
C84 C 0.35084 0.86333 0.05738 0.0
O85 O 0.34916 0.84162 0.07295 0.0
N86 N 0.35392 0.81244 0.89583 0.0
C87 C 0.36234 0.76715 0.85841 0.0
C88 C 0.37919 0.7839 0.85159 0.0
C89 C 0.37426 0.80644 0.86709 0.0
C90 C 0.33692 0.7965 0.90014 0.0
C91 C 0.3405 0.77404 0.87886 0.0
H92 H 0.38755 0.81889 0.85925 0.0
H93 H 0.32068 0.8005 0.92223 0.0
H94 H 0.40003 0.86699 0.91816 0.0
H95 H 0.42611 0.81582 0.04489 0.0
H96 H 0.27204 0.86684 0.88459 0.0
H97 H 0.39627 0.77962 0.83513 0.0
H98 H 0.32673 0.76181 0.88291 0.0
C99 C 0.43316 0.14547 0.23187 0.0
C100 C 0.42886 0.16837 0.23997 0.0
N101 N 0.41129 0.17412 0.19994 0.0
N102 N 0.41833 0.13679 0.18703 0.0
C103 C 0.40515 0.15465 0.16867 0.0
H104 H 0.44586 0.13558 0.25835 0.0
Co105 Co 0.41517 0.10575 0.16825 0.0
C106 C 0.40465 0.10786 1.01881 0.0
O107 O 0.42166 0.09376 1.00796 0.0
N108 N 0.4112 0.07416 0.15472 0.0
C109 C 0.39391 0.0408 0.13667 0.0
C110 C 0.3965 0.06293 0.11428 0.0
C111 C 0.41666 0.05857 0.20231 0.0
N112 N 0.40649 0.03832 0.19249 0.0
O113 O 0.38702 0.10577 0.21754 0.0
H114 H 0.38605 0.07079 0.07635 0.0
H115 H 0.42631 0.06246 0.24705 0.0
O116 O 0.39966 0.11344 0.07978 0.0
C117 C 0.39145 0.10171 0.27936 0.0
O118 O 0.41295 0.09938 0.29651 0.0
N119 N 0.44467 0.10565 0.12786 0.0
C120 C 0.49102 0.11248 0.10271 0.0
C121 C 0.47474 0.12665 0.07327 0.0
C122 C 0.45166 0.12302 0.08678 0.0
C123 C 0.46054 0.09121 0.15468 0.0
C124 C 0.48378 0.09409 0.14187 0.0
H125 H 0.43969 0.13534 0.06863 0.0
H126 H 0.45571 0.07852 0.19086 0.0
H127 H 0.39058 0.15326 0.13571 0.0
H128 H 0.4378 0.17993 0.27304 0.0
H129 H 0.3821 0.02824 0.11738 0.0
H130 H 0.47989 0.14132 0.04379 0.0
H131 H 0.49607 0.08317 0.16661 0.0
C132 C 0.10543 0.88544 0.15178 0.0
C133 C 0.08293 0.8884 0.1357 0.0
N134 N 0.07557 0.86934 0.1056 0.0
N135 N 0.11232 0.86453 0.13202 0.0
C136 C 0.09368 0.85514 0.10314 0.0
H137 H 0.1159 0.8975 0.17874 0.0
Co138 Co 0.1414 0.85297 0.14866 0.0
C139 C 0.14029 0.85358 0.30543 0.0
O140 O 0.14982 0.83351 0.31262 0.0
N141 N 0.17149 0.84172 0.16429 0.0
C142 C 0.20143 0.81856 0.17767 0.0
C143 C 0.1788 0.82223 0.19379 0.0
C144 C 0.19028 0.84971 0.13217 0.0
N145 N 0.20837 0.83583 0.13823 0.0
O146 O 0.15418 0.88274 0.13017 0.0
H147 H 0.16798 0.81019 0.2198 0.0
H148 H 0.19042 0.86437 0.09929 0.0
O149 O 0.13717 0.86167 0.24604 0.0
C150 C 0.15539 0.89681 0.08078 0.0
O151 O 0.16884 0.91453 0.08841 0.0
N152 N 0.12918 0.82319 0.15986 0.0
C153 C 0.11498 0.77766 0.15878 0.0
C154 C 0.10772 0.7925 0.20976 0.0
C155 C 0.11483 0.81537 0.20899 0.0
C156 C 0.1355 0.8091 0.10862 0.0
C157 C 0.12871 0.78632 0.10724 0.0
H158 H 0.10877 0.82656 0.24779 0.0
H159 H 0.14645 0.81541 0.06915 0.0
H160 H 0.09303 0.83798 0.08349 0.0
H161 H 0.07242 0.90299 0.14782 0.0
H162 H 0.21135 0.80351 0.18904 0.0
H163 H 0.09682 0.78642 0.24995 0.0
H164 H 0.13451 0.77541 0.06685 0.0
C165 C 0.43282 0.8589 0.35688 0.0
C166 C 0.42891 0.83624 0.34457 0.0
N167 N 0.40812 0.8311 0.36866 0.0
N168 N 0.4148 0.86781 0.39001 0.0
C169 C 0.39975 0.85048 0.3953 0.0
H170 H 0.4476 0.86851 0.34106 0.0
Co171 Co 0.4119 0.89871 0.40953 0.0
C172 C 0.39682 0.89604 0.55721 0.0
O173 O 0.41356 0.90955 0.57468 0.0
N174 N 0.40935 0.93073 0.42433 0.0
C175 C 0.41932 0.9668 0.44551 0.0
C176 C 0.42042 0.94457 0.46788 0.0
C177 C 0.40137 0.94528 0.37692 0.0
N178 N 0.40745 0.96706 0.38796 0.0
O179 O 0.38445 0.89915 0.35512 0.0
H180 H 0.43132 0.93893 0.50818 0.0
H181 H 0.39325 0.94005 0.33117 0.0
O182 O 0.39398 0.89117 0.49453 0.0
C183 C 0.38993 0.89782 0.29286 0.0
O184 O 0.41176 0.89812 0.27759 0.0
N185 N 0.44032 0.89759 0.45397 0.0
C186 C 0.486 0.88781 0.47937 0.0
C187 C 0.46875 0.87666 0.51526 0.0
C188 C 0.44594 0.88153 0.50099 0.0
C189 C 0.45708 0.9093 0.421 0.0
C190 C 0.48007 0.90482 0.43337 0.0
H191 H 0.43303 0.87084 0.52308 0.0
H192 H 0.45261 0.9208 0.38066 0.0
H193 H 0.38296 0.85203 0.41747 0.0
H194 H 0.44029 0.82443 0.31964 0.0
H195 H 0.42844 0.98121 0.46608 0.0
H196 H 0.47284 0.8629 0.5495 0.0
H197 H 0.49304 0.91325 0.40351 0.0
C198 C 0.40078 0.17929 0.56591 0.0
C199 C 0.42367 0.1753 0.55557 0.0
N200 N 0.42959 0.15701 0.59234 0.0
N201 N 0.3925 0.16369 0.60951 0.0
C202 C 0.41049 0.15023 0.62449 0.0
H203 H 0.39063 0.19218 0.54121 0.0
Co204 Co 0.36196 0.15933 0.63063 0.0
C205 C 0.36108 0.14499 0.77587 0.0
O206 O 0.3417 0.15596 0.78279 0.0
N207 N 0.33033 0.15417 0.64903 0.0
C208 C 0.29898 0.13253 0.65352 0.0
C209 C 0.32179 0.13385 0.66933 0.0
C210 C 0.3121 0.1649 0.62144 0.0
N211 N 0.29315 0.15187 0.62177 0.0
O212 O 0.36333 0.13154 0.57903 0.0
H213 H 0.33204 0.11977 0.687 0.0
H214 H 0.31322 0.18034 0.59225 0.0
O215 O 0.37076 0.14419 0.71771 0.0
C216 C 0.35386 0.13522 0.52211 0.0
O217 O 0.34011 0.1527 0.51731 0.0
N218 N 0.36163 0.18833 0.67037 0.0
C219 C 0.37308 0.23424 0.68546 0.0
C220 C 0.38111 0.21791 0.73111 0.0
C221 C 0.3757 0.1949 0.72155 0.0
C222 C 0.3532 0.20426 0.62705 0.0
C223 C 0.35851 0.22727 0.63398 0.0
H224 H 0.38488 0.18245 0.75072 0.0
H225 H 0.34486 0.19891 0.58155 0.0
H226 H 0.40947 0.13523 0.65601 0.0
H227 H 0.43496 0.18464 0.52241 0.0
H228 H 0.28833 0.11751 0.65728 0.0
H229 H 0.39299 0.22267 0.77024 0.0
H230 H 0.35266 0.2393 0.59648 0.0
C231 C 0.07945 0.15141 0.82744 0.0
C232 C 0.08388 0.17416 0.81762 0.0
N233 N 0.10196 0.17975 0.85557 0.0
N234 N 0.0946 0.14277 0.87166 0.0
C235 C 0.10824 0.16049 0.88769 0.0
H236 H 0.0661 0.14164 0.80357 0.0
Co237 Co 0.09576 0.11186 0.89373 0.0
C238 C 0.10733 0.11646 0.04332 0.0
O239 O 0.08694 0.10864 0.058 0.0
N240 N 0.09718 0.08013 0.91052 0.0
C241 C 0.10522 0.04487 0.94554 0.0
C242 C 0.10517 0.06763 0.9626 0.0
C243 C 0.09288 0.06446 0.86225 0.0
N244 N 0.09751 0.04304 0.88231 0.0
O245 O 0.12374 0.10969 0.84303 0.0
H246 H 0.11198 0.07431 1.00862 0.0
H247 H 0.08703 0.06867 0.81232 0.0
O248 O 0.11273 0.11864 0.98074 0.0
C249 C 0.11867 0.10821 0.78069 0.0
O250 O 0.09693 0.10718 0.76499 0.0
N251 N 0.06654 0.1144 0.93483 0.0
C252 C 0.02057 0.12561 0.9504 0.0
C253 C 0.03751 0.13945 0.97814 0.0
C254 C 0.06044 0.13356 0.96975 0.0
C255 C 0.04998 0.1002 0.91081 0.0
C256 C 0.02689 0.10532 0.91897 0.0
H257 H 0.07333 0.14541 0.9866 0.0
H258 H 0.05436 0.08591 0.87956 0.0
H259 H 0.12254 0.15939 0.92154 0.0
H260 H 0.07455 0.18578 0.78553 0.0
H261 H 0.11156 0.0309 0.97574 0.0
H262 H 0.03312 0.15542 1.00204 0.0
H263 H 0.01415 0.09451 0.89597 0.0
C264 C 0.89725 0.83413 0.55624 0.0
C265 C 0.92005 0.83935 0.5532 0.0
N266 N 0.92378 0.85708 0.59423 0.0
N267 N 0.88672 0.84847 0.59924 0.0
C268 C 0.90339 0.86241 0.62158 0.0
H269 H 0.88882 0.82055 0.52931 0.0
Co270 Co 0.8555 0.84701 0.61651 0.0
C271 C 0.854 0.8585 0.76505 0.0
O272 O 0.84529 0.83826 0.77588 0.0
N273 N 0.82321 0.84524 0.63081 0.0
C274 C 0.78835 0.83126 0.65112 0.0
C275 C 0.81087 0.83098 0.67047 0.0
C276 C 0.80733 0.85444 0.58947 0.0
N277 N 0.78632 0.84592 0.59977 0.0
O278 O 0.85185 0.87495 0.56642 0.0
H279 H 0.81784 0.81899 0.70603 0.0
H280 H 0.81105 0.86592 0.54881 0.0
O281 O 0.85944 0.86382 0.70433 0.0
C282 C 0.85247 0.86992 0.50377 0.0
O283 O 0.85325 0.84825 0.48738 0.0
N284 N 0.86009 0.81825 0.65498 0.0
C285 C 0.87364 0.77335 0.673 0.0
C286 C 0.88389 0.79076 0.71022 0.0
C287 C 0.87704 0.81329 0.69979 0.0
C288 C 0.85011 0.80132 0.61852 0.0
C289 C 0.85628 0.77867 0.62779 0.0
H290 H 0.8864 0.82682 0.72408 0.0
H291 H 0.83819 0.80557 0.57906 0.0
H292 H 0.9008 0.87598 0.65732 0.0
H293 H 0.93298 0.83067 0.524 0.0
H294 H 0.77498 0.82005 0.66904 0.0
H295 H 0.89785 0.78708 0.7441 0.0
H296 H 0.84856 0.76557 0.59707 0.0
C297 C 0.93392 0.15126 0.31763 0.0
C298 C 0.92746 0.17368 0.31182 0.0
N299 N 0.90683 0.1759 0.3405 0.0
N300 N 0.91755 0.13959 0.35087 0.0
C301 C 0.90109 0.15508 0.36357 0.0
H302 H 0.9495 0.14383 0.29846 0.0
Co303 Co 0.91803 0.10824 0.36576 0.0
C304 C 0.90356 0.10774 0.51384 0.0
O305 O 0.92349 0.09914 0.52931 0.0
N306 N 0.91857 0.07585 0.37708 0.0
C307 C 0.92901 0.04012 0.40188 0.0
C308 C 0.92952 0.06254 0.42248 0.0
C309 C 0.91135 0.0608 0.33009 0.0
N310 N 0.91763 0.03923 0.34358 0.0
O311 O 0.89091 0.10587 0.31058 0.0
H312 H 0.93935 0.06865 0.46442 0.0
H313 H 0.90273 0.06544 0.28451 0.0
O314 O 0.89951 0.11221 0.45153 0.0
C315 C 0.89714 0.10805 0.24907 0.0
O316 O 0.91913 0.10928 0.23647 0.0
N317 N 0.94625 0.11154 0.41009 0.0
C318 C 0.99114 0.12408 0.43657 0.0
C319 C 0.97307 0.13525 0.46859 0.0
C320 C 0.95065 0.12883 0.45425 0.0
C321 C 0.96384 0.10028 0.37972 0.0
C322 C 0.98645 0.10595 0.3934 0.0
H323 H 0.93684 0.13895 0.47438 0.0
H324 H 0.96036 0.08791 0.3409 0.0
H325 H 0.88518 0.15124 0.38851 0.0
H326 H 0.93707 0.18732 0.28842 0.0
H327 H 0.93758 0.02587 0.42541 0.0
H328 H 0.97622 0.14971 0.50097 0.0
H329 H 1.0001 0.09742 0.36665 0.0
C330 C 0.60961 0.16915 0.05318 0.0
C331 C 0.58704 0.1636 0.04484 0.0
N332 N 0.58258 0.14535 0.08352 0.0
N333 N 0.61916 0.15458 0.09749 0.0
C334 C 0.60227 0.14005 0.11474 0.0
H335 H 0.61857 0.18298 0.02871 0.0
Co336 Co 0.65002 0.15495 0.11942 0.0
C337 C 0.64737 0.14428 0.26806 0.0
O338 O 0.65607 0.16459 0.27757 0.0
N339 N 0.68172 0.1547 0.13476 0.0
C340 C 0.71766 0.14648 0.16237 0.0
C341 C 0.69518 0.14565 0.18308 0.0
C342 C 0.69645 0.1605 0.08512 0.0
N343 N 0.71827 0.15576 0.1006 0.0
O344 O 0.65332 0.12708 0.06882 0.0
H345 H 0.68929 0.13741 0.22834 0.0
H346 H 0.69122 0.16737 0.03716 0.0
O347 O 0.64378 0.13807 0.20686 0.0
C348 C 0.65382 0.13195 1.00615 0.0
O349 O 0.65376 0.1536 0.98917 0.0
N350 N 0.64623 0.18411 0.16252 0.0
C351 C 0.63562 0.22933 0.19642 0.0
C352 C 0.61957 0.21183 0.20458 0.0
C353 C 0.62561 0.18935 0.1911 0.0
C354 C 0.66232 0.20087 0.15611 0.0
C355 C 0.65771 0.22327 0.17594 0.0
H356 H 0.61305 0.17629 0.20054 0.0
H357 H 0.67864 0.1975 0.13356 0.0
H358 H 0.60427 0.12596 0.14936 0.0
H359 H 0.57476 0.17233 1.01345 0.0
H360 H 0.73224 0.13959 0.18874 0.0
H361 H 0.60231 0.21545 0.22078 0.0
H362 H 0.67091 0.23607 0.1708 0.0
C363 C 0.56743 0.84896 0.83144 0.0
C364 C 0.57187 0.82619 0.82327 0.0
N365 N 0.59209 0.82161 0.8519 0.0
N366 N 0.58461 0.85881 0.86588 0.0
C367 C 0.59965 0.84167 0.87694 0.0
H368 H 0.55261 0.85789 0.8128 0.0
Co369 Co 0.58537 0.89037 0.88271 0.0
C370 C 0.59929 0.89243 0.02873 0.0
O371 O 0.58262 0.9068 0.0398 0.0
N372 N 0.58567 0.92293 0.89532 0.0
C373 C 0.57303 0.95856 0.91094 0.0
C374 C 0.57142 0.93628 0.93197 0.0
C375 C 0.59609 0.93804 0.85353 0.0
N376 N 0.58841 0.95952 0.86112 0.0
O377 O 0.61297 0.89232 0.83112 0.0
H378 H 0.5587 0.93021 0.96696 0.0
H379 H 0.60778 0.93345 0.81408 0.0
O380 O 0.60272 0.88502 0.96873 0.0
C381 C 0.60766 0.89153 0.76889 0.0
O382 O 0.58591 0.89017 0.75338 0.0
N383 N 0.55682 0.88781 0.9248 0.0
C384 C 0.51156 0.87776 0.95385 0.0
C385 C 0.52909 0.86807 0.99198 0.0
C386 C 0.55175 0.87306 0.9759 0.0
C387 C 0.53979 0.89751 0.8879 0.0
C388 C 0.51698 0.89297 0.90222 0.0
H389 H 0.56503 0.86376 1.00117 0.0
H390 H 0.54403 0.90788 0.84466 0.0
H391 H 0.61584 0.84382 0.90212 0.0
H392 H 0.56106 0.81383 0.7986 0.0
H393 H 0.56224 0.97255 0.92658 0.0
H394 H 0.52531 0.85564 0.03071 0.0
H395 H 0.50376 0.90017 0.87076 0.0
C396 C 0.90194 0.18617 0.95236 0.0
C397 C 0.92463 0.18203 0.9643 0.0
N398 N 0.93006 0.16225 0.93453 0.0
N399 N 0.89323 0.16922 0.91447 0.0
C400 C 0.91082 0.15471 0.90483 0.0
H401 H 0.89215 0.20033 0.97166 0.0
Co402 Co 0.86206 0.16671 0.89648 0.0
C403 C 0.86574 0.15349 0.74712 0.0
O404 O 0.85805 0.17368 0.73003 0.0
N405 N 0.83031 0.16404 0.88446 0.0
C406 C 0.7947 0.15497 0.8558 0.0
C407 C 0.81699 0.15649 0.8338 0.0
C408 C 0.81567 0.16687 0.93645 0.0
N409 N 0.79405 0.16145 0.92049 0.0
O410 O 0.86148 0.13901 0.94904 0.0
H411 H 0.82292 0.15115 0.78517 0.0
H412 H 0.82084 0.17228 0.98596 0.0
O413 O 0.86816 0.14905 0.81022 0.0
C414 C 0.86187 0.14379 1.01171 0.0
O415 O 0.86141 0.16538 0.02902 0.0
N416 N 0.8629 0.19566 0.85273 0.0
C417 C 0.87207 0.24195 0.83355 0.0
C418 C 0.88629 0.2254 0.80527 0.0
C419 C 0.88142 0.20232 0.81542 0.0
C420 C 0.8482 0.21177 0.87703 0.0
C421 C 0.8523 0.23499 0.86715 0.0
H422 H 0.89367 0.18983 0.79827 0.0
H423 H 0.83435 0.20699 0.90977 0.0
H424 H 0.90948 0.13863 0.87903 0.0
H425 H 0.93616 0.19239 0.99364 0.0
H426 H 0.78029 0.14859 0.82763 0.0
H427 H 0.90186 0.23028 0.77961 0.0
H428 H 0.84117 0.24741 0.89049 0.0
C429 C 0.57584 0.14238 0.71506 0.0
C430 C 0.58121 0.16478 0.72685 0.0
N431 N 0.60183 0.16879 0.69984 0.0
N432 N 0.59278 0.13257 0.6793 0.0
C433 C 0.60867 0.14903 0.67192 0.0
H434 H 0.56063 0.13364 0.73192 0.0
Co435 Co 0.59371 0.10178 0.65783 0.0
C436 C 0.60467 0.10441 0.50847 0.0
O437 O 0.58586 0.09293 0.49682 0.0
N438 N 0.59499 0.07022 0.6423 0.0
C439 C 0.60721 0.03512 0.6185 0.0
C440 C 0.60687 0.05755 0.59755 0.0
C441 C 0.58888 0.05514 0.69062 0.0
N442 N 0.59595 0.03381 0.6772 0.0
O443 O 0.62174 0.09924 0.70824 0.0
H444 H 0.61667 0.06418 0.55605 0.0
H445 H 0.58075 0.05997 0.7373 0.0
O446 O 0.61031 0.10863 0.57001 0.0
C447 C 0.61684 0.099 0.77094 0.0
O448 O 0.59515 0.0994 0.78782 0.0
N449 N 0.56457 0.10468 0.6161 0.0
C450 C 0.51928 0.11751 0.59443 0.0
C451 C 0.5371 0.1298 0.56491 0.0
C452 C 0.55965 0.12317 0.57653 0.0
C453 C 0.54718 0.09191 0.64223 0.0
C454 C 0.52439 0.0979 0.63138 0.0
H455 H 0.57314 0.13417 0.55871 0.0
H456 H 0.55071 0.07822 0.67669 0.0
H457 H 0.62496 0.14658 0.64742 0.0
H458 H 0.57086 0.1772 0.75301 0.0
H459 H 0.61638 0.02122 0.59516 0.0
H460 H 0.53369 0.14528 0.53699 0.0
H461 H 0.51095 0.08829 0.65585 0.0
C462 C 0.60293 0.82391 0.48606 0.0
C463 C 0.58097 0.8291 0.50474 0.0
N464 N 0.57619 0.85003 0.48134 0.0
N465 N 0.6116 0.84114 0.44875 0.0
C466 C 0.5951 0.85722 0.44913 0.0
H467 H 0.61207 0.80846 0.4985 0.0
Co468 Co 0.6421 0.84273 0.42058 0.0
C469 C 0.61815 0.86206 0.2937 0.0
O470 O 0.59761 0.85516 0.30969 0.0
N471 N 0.67304 0.84498 0.39936 0.0
C472 C 0.7074 0.85342 0.35836 0.0
C473 C 0.68442 0.85166 0.34356 0.0
C474 C 0.68932 0.84259 0.44664 0.0
N475 N 0.71019 0.84773 0.42333 0.0
O476 O 0.6446 0.87059 0.47005 0.0
H477 H 0.67658 0.85575 0.29594 0.0
H478 H 0.686 0.83755 0.49792 0.0
O479 O 0.635 0.85869 0.33367 0.0
C480 C 0.64661 0.86547 0.53213 0.0
O481 O 0.64766 0.84376 0.54822 0.0
N482 N 0.63972 0.81364 0.37639 0.0
C483 C 0.63285 0.768 0.34013 0.0
C484 C 0.61519 0.78391 0.3355 0.0
C485 C 0.61922 0.80662 0.351 0.0
C486 C 0.65734 0.79835 0.37963 0.0
C487 C 0.6545 0.77575 0.359 0.0
H488 H 0.60495 0.81794 0.34776 0.0
H489 H 0.67354 0.80297 0.40097 0.0
H490 H 0.5968 0.87382 0.42591 0.0
H491 H 0.56922 0.81825 0.532 0.0
H492 H 0.72086 0.85899 0.32486 0.0
H493 H 0.59813 0.77875 0.32128 0.0
H494 H 0.66875 0.76406 0.36226 0.0
C495 C 0.90435 0.85756 0.2496 0.0
C496 C 0.89942 0.8349 0.25637 0.0
N497 N 0.89666 0.82596 0.1948 0.0
N498 N 0.90381 0.86357 0.18415 0.0
C499 C 0.89931 0.84374 0.15173 0.0
H500 H 0.90788 0.86891 0.29075 0.0
Co501 Co 0.90645 0.89449 0.15841 0.0
C502 C 0.89487 0.89289 1.01 0.0
O503 O 0.91475 0.90241 0.99796 0.0
N504 N 0.9086 0.92628 0.13761 0.0
C505 C 0.89703 0.9615 0.11099 0.0
C506 C 0.89543 0.93871 0.09534 0.0
C507 C 0.91771 0.94222 0.17902 0.0
N508 N 0.91069 0.96354 0.16464 0.0
O509 O 0.87846 0.90065 0.20704 0.0
H510 H 0.88303 0.93185 0.061 0.0
H511 H 0.92742 0.93832 0.22358 0.0
O512 O 0.88944 0.88873 0.07162 0.0
C513 C 0.88268 0.90747 0.26682 0.0
O514 O 0.90418 0.91054 0.28276 0.0
N515 N 0.93535 0.88813 0.11942 0.0
C516 C 0.98039 0.87594 0.09073 0.0
C517 C 0.96233 0.86537 0.05718 0.0
C518 C 0.93986 0.87147 0.07308 0.0
C519 C 0.95294 0.89811 0.153 0.0
C520 C 0.97553 0.89256 0.13875 0.0
H521 H 0.9262 0.86233 0.04908 0.0
H522 H 0.94956 0.90942 0.19424 0.0
H523 H 0.89756 0.8423 0.09789 0.0
H524 H 0.89817 0.82558 0.30324 0.0
H525 H 0.88684 0.97512 0.08992 0.0
H526 H 0.96556 0.85198 1.02106 0.0
H527 H 0.98912 0.90048 0.1672 0.0
C528 C 0.6067 0.62308 0.88726 0.0
C529 C 0.58372 0.62142 0.89724 0.0
N530 N 0.57599 0.64207 0.91466 0.0
N531 N 0.61361 0.64474 0.8978 0.0
C532 C 0.59434 0.65601 0.91531 0.0
H533 H 0.61772 0.60929 0.87247 0.0
Co534 Co 0.64445 0.65308 0.89272 0.0
C535 C 0.63098 0.63877 0.74996 0.0
O536 O 0.61053 0.64718 0.76016 0.0
N537 N 0.67544 0.66077 0.89024 0.0
C538 C 0.71239 0.66176 0.86469 0.0
C539 C 0.69062 0.65935 0.83933 0.0
C540 C 0.68828 0.66475 0.94534 0.0
N541 N 0.71079 0.66497 0.93147 0.0
O542 O 0.6525 0.62405 0.93512 0.0
H543 H 0.68641 0.65526 0.78792 0.0
H544 H 0.68138 0.66607 0.99551 0.0
O545 O 0.64613 0.64006 0.79695 0.0
C546 C 0.64976 0.627 0.99856 0.0
O547 O 0.64272 0.64706 1.0191 0.0
N548 N 0.63689 0.68292 0.86444 0.0
C549 C 0.62527 0.72914 0.85688 0.0
C550 C 0.63118 0.71916 0.91822 0.0
C551 C 0.63677 0.6961 0.92081 0.0
C552 C 0.63232 0.69257 0.80339 0.0
C553 C 0.6261 0.71566 0.79869 0.0
H554 H 0.64078 0.68848 0.96879 0.0
H555 H 0.63322 0.68285 0.75805 0.0
H556 H 0.59366 0.67389 0.92819 0.0
H557 H 0.57334 0.60628 0.89178 0.0
H558 H 0.72819 0.65975 0.83713 0.0
H559 H 0.63087 0.72902 0.96417 0.0
H560 H 0.62183 0.72289 0.75023 0.0
C561 C 0.59295 0.35407 0.28115 0.0
C562 C 0.59931 0.33197 0.29274 0.0
N563 N 0.60534 0.32247 0.23381 0.0
N564 N 0.59593 0.35914 0.21563 0.0
C565 C 0.60313 0.33938 0.18777 0.0
H566 H 0.58761 0.36601 0.31922 0.0
Co567 Co 0.59626 0.38944 0.18562 0.0
C568 C 0.60593 0.38584 0.03672 0.0
O569 O 0.58956 0.40082 0.02762 0.0
N570 N 0.59743 0.4208 0.16117 0.0
C571 C 0.61255 0.45454 0.13303 0.0
C572 C 0.61244 0.4315 0.11993 0.0
C573 C 0.58922 0.4379 0.20006 0.0
N574 N 0.5981 0.45835 0.18408 0.0
O575 O 0.62503 0.39308 0.23195 0.0
H576 H 0.62454 0.42314 0.08759 0.0
H577 H 0.57884 0.43533 0.2443 0.0
O578 O 0.6113 0.38002 0.09734 0.0
C579 C 0.62149 0.40027 0.29182 0.0
O580 O 0.60051 0.40618 0.30702 0.0
N581 N 0.56661 0.38547 0.14859 0.0
C582 C 0.52119 0.37422 0.12168 0.0
C583 C 0.53896 0.36115 0.09525 0.0
C584 C 0.56153 0.36695 0.10975 0.0
C585 C 0.54928 0.39835 0.17435 0.0
C586 C 0.52648 0.39331 0.16044 0.0
H587 H 0.57483 0.35581 0.09216 0.0
H588 H 0.55273 0.41162 0.20984 0.0
H589 H 0.60763 0.33761 0.1353 0.0
H590 H 0.59984 0.32361 0.34125 0.0
H591 H 0.62402 0.46707 0.11167 0.0
H592 H 0.53539 0.34599 0.06616 0.0
H593 H 0.51306 0.40336 0.18325 0.0
C594 C 0.90409 0.31947 0.45459 0.0
C595 C 0.92646 0.32524 0.46628 0.0
N596 N 0.92917 0.34739 0.45063 0.0
N597 N 0.89287 0.33777 0.43033 0.0
C598 C 0.90855 0.35466 0.42999 0.0
H599 H 0.89631 0.30322 0.46527 0.0
Co600 Co 0.86138 0.3402 0.41843 0.0
C601 C 0.88111 0.36058 0.28582 0.0
O602 O 0.90154 0.35217 0.29567 0.0
N603 N 0.82961 0.34287 0.41051 0.0
C604 C 0.79371 0.34594 0.37498 0.0
C605 C 0.81635 0.34505 0.35543 0.0
C606 C 0.81473 0.34239 0.46249 0.0
N607 N 0.79295 0.34429 0.44236 0.0
O608 O 0.86206 0.36745 0.47246 0.0
H609 H 0.82264 0.3456 0.30434 0.0
H610 H 0.81954 0.34015 0.51439 0.0
O611 O 0.86508 0.35731 0.32941 0.0
C612 C 0.86211 0.36051 0.5337 0.0
O613 O 0.86045 0.33853 0.54541 0.0
N614 N 0.8605 0.31138 0.37581 0.0
C615 C 0.86739 0.26489 0.35537 0.0
C616 C 0.87812 0.28094 0.31401 0.0
C617 C 0.87444 0.30417 0.32506 0.0
C618 C 0.84865 0.29577 0.41308 0.0
C619 C 0.85158 0.27241 0.40307 0.0
H620 H 0.88457 0.31591 0.29688 0.0
H621 H 0.83841 0.30131 0.45516 0.0
H622 H 0.90494 0.37202 0.41491 0.0
H623 H 0.93978 0.31408 0.48457 0.0
H624 H 0.779 0.3473 0.3425 0.0
H625 H 0.89054 0.27562 0.27688 0.0
H626 H 0.84314 0.26041 0.43621 0.0
C627 C 0.93487 0.6567 0.71223 0.0
C628 C 0.92922 0.6793 0.71898 0.0
N629 N 0.90946 0.68287 0.68634 0.0
N630 N 0.9188 0.64617 0.67514 0.0
C631 C 0.90343 0.66255 0.66044 0.0
H632 H 0.94959 0.64832 0.73363 0.0
Co633 Co 0.91772 0.61501 0.65955 0.0
C634 C 0.90355 0.61757 0.50956 0.0
O635 O 0.92235 0.60698 0.49206 0.0
N636 N 0.91656 0.58291 0.64917 0.0
C637 C 0.91055 0.54658 0.62111 0.0
C638 C 0.91119 0.56875 0.59812 0.0
C639 C 0.91941 0.56872 0.7023 0.0
N640 N 0.91549 0.54671 0.68696 0.0
O641 O 0.89068 0.61345 0.71744 0.0
H642 H 0.907 0.57381 0.54799 0.0
H643 H 0.92351 0.57445 0.75236 0.0
O644 O 0.8992 0.62087 0.57272 0.0
C645 C 0.89707 0.61421 0.77922 0.0
O646 O 0.91896 0.61559 0.79235 0.0
N647 N 0.94604 0.61684 0.61332 0.0
C648 C 0.99158 0.62743 0.58632 0.0
C649 C 0.97403 0.63995 0.55647 0.0
C650 C 0.95136 0.63455 0.57124 0.0
C651 C 0.96311 0.60377 0.63975 0.0
C652 C 0.98601 0.60868 0.6265 0.0
H653 H 0.93826 0.64586 0.55355 0.0
H654 H 0.95925 0.59076 0.6764 0.0
H655 H 0.88789 0.65961 0.63256 0.0
H656 H 0.93894 0.69222 0.74501 0.0
H657 H 0.90566 0.53168 0.59263 0.0
H658 H 0.97784 0.6549 0.52646 0.0
H659 H 0.99924 0.59901 0.65154 0.0
C660 C 0.60775 0.31581 0.58975 0.0
C661 C 0.58507 0.32094 0.58101 0.0
N662 N 0.58127 0.34156 0.60792 0.0
N663 N 0.61802 0.33294 0.62329 0.0
C664 C 0.60147 0.34865 0.63247 0.0
H665 H 0.61634 0.30069 0.57205 0.0
Co666 Co 0.64922 0.33447 0.64222 0.0
C667 C 0.64659 0.34629 0.79246 0.0
O668 O 0.65872 0.32823 0.80724 0.0
N669 N 0.68138 0.33598 0.65748 0.0
C670 C 0.71735 0.32624 0.68148 0.0
C671 C 0.69487 0.32451 0.70126 0.0
C672 C 0.69639 0.34474 0.61244 0.0
N673 N 0.71812 0.33885 0.62523 0.0
O674 O 0.65057 0.36255 0.59073 0.0
H675 H 0.68892 0.31315 0.74009 0.0
H676 H 0.69161 0.3538 0.56771 0.0
O677 O 0.64233 0.35096 0.73024 0.0
C678 C 0.64935 0.3575 0.52807 0.0
O679 O 0.64842 0.33582 0.51183 0.0
N680 N 0.64748 0.30535 0.68205 0.0
C681 C 0.6382 0.25923 0.70021 0.0
C682 C 0.62625 0.27565 0.73707 0.0
C683 C 0.63095 0.29874 0.7266 0.0
C684 C 0.65965 0.28938 0.64743 0.0
C685 C 0.65553 0.26619 0.6565 0.0
H686 H 0.61998 0.31118 0.74981 0.0
H687 H 0.67147 0.29469 0.60868 0.0
H688 H 0.60412 0.36493 0.6566 0.0
H689 H 0.57232 0.31041 0.55701 0.0
H690 H 0.73168 0.31714 0.70283 0.0
H691 H 0.61228 0.27074 0.76969 0.0
H692 H 0.66459 0.25389 0.62598 0.0
C693 C 0.93135 0.36103 0.82643 0.0
C694 C 0.92703 0.33834 0.81533 0.0
N695 N 0.90633 0.33356 0.8407 0.0
N696 N 0.91352 0.37045 0.85928 0.0
C697 C 0.89838 0.35324 0.86674 0.0
H698 H 0.94637 0.37025 0.81031 0.0
Co699 Co 0.91041 0.40147 0.87862 0.0
C700 C 0.9003 0.3999 0.02844 0.0
O701 O 0.91688 0.41464 0.03759 0.0
N702 N 0.90718 0.43329 0.89362 0.0
C703 C 0.89343 0.46768 0.91958 0.0
C704 C 0.89319 0.44479 0.93568 0.0
C705 C 0.91514 0.44963 0.85131 0.0
N706 N 0.90694 0.47054 0.86555 0.0
O707 O 0.881 0.40051 0.83193 0.0
H708 H 0.88174 0.437 0.97135 0.0
H709 H 0.92456 0.44594 0.80583 0.0
O710 O 0.89537 0.39378 0.96797 0.0
C711 C 0.87495 0.41175 0.77955 0.0
O712 O 0.88073 0.43315 0.77333 0.0
N713 N 0.94033 0.40123 0.91754 0.0
C714 C 0.98656 0.39231 0.94132 0.0
C715 C 0.96963 0.37982 0.97452 0.0
C716 C 0.94664 0.38445 0.96176 0.0
C717 C 0.95684 0.41393 0.88655 0.0
C718 C 0.98 0.4101 0.89882 0.0
H719 H 0.93407 0.37308 0.98279 0.0
H720 H 0.95253 0.42567 0.84726 0.0
H721 H 0.88177 0.35512 0.88985 0.0
H722 H 0.93813 0.32625 0.79046 0.0
H723 H 0.88285 0.4808 0.94166 0.0
H724 H 0.97415 0.36561 1.00665 0.0
H725 H 0.9927 0.41969 0.87106 0.0
C726 C 0.89434 0.66256 0.02967 0.0
C727 C 0.91694 0.657 1.02208 0.0
N728 N 0.92198 0.64073 0.06723 0.0
N729 N 0.88522 0.64999 0.07985 0.0
C730 C 0.90245 0.63649 0.1012 0.0
H731 H 0.88528 0.67565 1.00232 0.0
Co732 Co 0.85528 0.65348 0.11013 0.0
C733 C 0.86147 0.65214 0.26155 0.0
O734 O 0.84948 0.67098 0.26595 0.0
N735 N 0.82408 0.65618 0.13456 0.0
C736 C 0.78879 0.6488 0.1715 0.0
C737 C 0.8118 0.64742 0.18615 0.0
C738 C 0.80801 0.66226 0.08902 0.0
N739 N 0.78661 0.65814 0.11017 0.0
O740 O 0.84868 0.62238 0.08393 0.0
H741 H 0.81884 0.63877 0.22917 0.0
H742 H 0.81184 0.66894 0.03966 0.0
O743 O 0.86454 0.64298 0.20341 0.0
C744 C 0.84988 0.60761 0.03658 0.0
O745 O 0.83888 0.58837 0.04626 0.0
N746 N 0.86158 0.68492 0.13388 0.0
C747 C 0.87368 0.73088 0.15439 0.0
C748 C 0.88952 0.71329 0.16402 0.0
C749 C 0.88278 0.69059 0.15717 0.0
C750 C 0.84606 0.70197 0.12329 0.0
C751 C 0.85141 0.72476 0.13633 0.0
H752 H 0.89501 0.67755 0.16908 0.0
H753 H 0.82941 0.69855 0.10383 0.0
H754 H 0.90105 0.6246 0.14261 0.0
H755 H 0.92898 0.66478 0.98771 0.0
H756 H 0.77489 0.64202 0.20131 0.0
H757 H 0.90697 0.717 0.17798 0.0
H758 H 0.83839 0.73763 0.12939 0.0
C759 C 0.60289 0.64158 0.24348 0.0
C760 C 0.60882 0.6639 0.235 0.0
N761 N 0.61002 0.67361 0.29589 0.0
N762 N 0.60144 0.6366 0.30966 0.0
C763 C 0.60523 0.65679 0.34044 0.0
H764 H 0.59987 0.62982 0.203 0.0
Co765 Co 0.59691 0.60664 0.34003 0.0
C766 C 0.61008 0.60686 0.48841 0.0
O767 O 0.59165 0.59486 0.50055 0.0
N768 N 0.59186 0.57532 0.36627 0.0
C769 C 0.5726 0.54313 0.38803 0.0
C770 C 0.57369 0.56624 0.39923 0.0
C771 C 0.602 0.5568 0.33836 0.0
N772 N 0.59024 0.53742 0.34854 0.0
O773 O 0.62495 0.59842 0.29302 0.0
H774 H 0.56068 0.57583 0.42523 0.0
H775 H 0.61676 0.55726 0.30621 0.0
O776 O 0.61421 0.61299 0.42723 0.0
C777 C 0.62111 0.59165 0.23285 0.0
O778 O 0.59974 0.58767 0.21649 0.0
N779 N 0.56841 0.61544 0.3753 0.0
C780 C 0.52344 0.62836 0.40123 0.0
C781 C 0.54123 0.63596 0.44256 0.0
C782 C 0.56377 0.62957 0.42811 0.0
C783 C 0.5513 0.60861 0.33359 0.0
C784 C 0.52866 0.61457 0.34618 0.0
H785 H 0.57736 0.63653 0.45818 0.0
H786 H 0.55535 0.59838 0.29003 0.0
H787 H 0.60458 0.65921 0.39414 0.0
H788 H 0.61177 0.67248 0.18756 0.0
H789 H 0.55877 0.53187 0.40214 0.0
H790 H 0.53776 0.64721 0.48441 0.0
H791 H 0.51538 0.60883 0.31247 0.0
C792 C 0.40064 0.31822 0.07704 0.0
C793 C 0.42365 0.32145 0.06712 0.0
N794 N 0.42938 0.34144 0.09518 0.0
N795 N 0.39212 0.33593 0.11222 0.0
C796 C 0.41002 0.35005 0.12133 0.0
H797 H 0.39074 0.30381 0.06003 0.0
Co798 Co 0.3618 0.33999 0.13703 0.0
C799 C 0.366 0.35365 0.28354 0.0
O800 O 0.35093 0.33781 0.2981 0.0
N801 N 0.33037 0.34459 0.15848 0.0
C802 C 0.29848 0.36422 0.17933 0.0
C803 C 0.32147 0.36243 0.19255 0.0
C804 C 0.31223 0.33603 0.12451 0.0
N805 N 0.29285 0.34785 0.13527 0.0
O806 O 0.36176 0.36741 0.08276 0.0
H807 H 0.33136 0.37517 0.21846 0.0
H808 H 0.31347 0.32327 0.08574 0.0
O809 O 0.37158 0.35686 0.22145 0.0
C810 C 0.3539 0.36244 1.02462 0.0
O811 O 0.34279 0.34319 1.018 0.0
N812 N 0.36267 0.31115 0.18052 0.0
C813 C 0.37518 0.26545 0.19597 0.0
C814 C 0.38566 0.2824 0.23438 0.0
C815 C 0.37943 0.30519 0.2251 0.0
C816 C 0.35161 0.29452 0.1455 0.0
C817 C 0.35744 0.27159 0.15285 0.0
H818 H 0.38991 0.31793 0.24834 0.0
H819 H 0.34029 0.29899 0.10526 0.0
H820 H 0.40896 0.36627 0.14688 0.0
H821 H 0.43537 0.3099 0.04251 0.0
H822 H 0.28743 0.37808 0.1944 0.0
H823 H 0.39978 0.27823 0.26719 0.0
H824 H 0.34935 0.25894 0.1213 0.0
C825 C 0.40657 0.64315 0.77452 0.0
C826 C 0.3987 0.66467 0.76164 0.0
N827 N 0.39297 0.67445 0.82039 0.0
N828 N 0.4048 0.63868 0.84079 0.0
C829 C 0.39674 0.65825 0.8677 0.0
H830 H 0.41223 0.63114 0.73706 0.0
Co831 Co 0.40759 0.6088 0.87243 0.0
C832 C 0.40015 0.6122 1.02251 0.0
O833 O 0.41748 0.59818 0.02921 0.0
N834 N 0.40978 0.57748 0.89804 0.0
C835 C 0.39774 0.54268 0.92728 0.0
C836 C 0.39631 0.56563 0.94099 0.0
C837 C 0.41879 0.56106 0.85798 0.0
N838 N 0.41147 0.53994 0.87376 0.0
O839 O 0.3785 0.60253 0.83044 0.0
H840 H 0.38394 0.57305 0.97458 0.0
H841 H 0.42832 0.5645 0.81262 0.0
O842 O 0.39329 0.61745 0.9627 0.0
C843 C 0.38156 0.59541 0.77028 0.0
O844 O 0.40239 0.58963 0.75323 0.0
N845 N 0.43714 0.61575 0.90507 0.0
C846 C 0.48157 0.63105 0.92738 0.0
C847 C 0.46309 0.64246 0.95602 0.0
C848 C 0.44098 0.63469 0.94348 0.0
C849 C 0.45516 0.60473 0.87631 0.0
C850 C 0.47751 0.61189 0.88761 0.0
H851 H 0.42697 0.64455 0.96289 0.0
H852 H 0.4524 0.59127 0.84086 0.0
H853 H 0.39288 0.66036 0.9205 0.0
H854 H 0.39715 0.6725 0.71257 0.0
H855 H 0.38728 0.52941 0.94929 0.0
H856 H 0.46568 0.65768 0.98568 0.0
H857 H 0.49149 0.60314 0.86307 0.0
C858 C 0.11078 0.68841 0.57633 0.0
C859 C 0.08799 0.68515 0.56284 0.0
N860 N 0.08248 0.6639 0.58219 0.0
N861 N 0.11931 0.6695 0.60559 0.0
C862 C 0.10173 0.65465 0.60697 0.0
H863 H 0.12062 0.70352 0.56506 0.0
Co864 Co 0.14951 0.66466 0.63043 0.0
C865 C 0.14511 0.64794 0.77236 0.0
O866 O 0.16071 0.66309 0.7882 0.0
N867 N 0.18071 0.65908 0.65116 0.0
C868 C 0.21169 0.63717 0.66184 0.0
C869 C 0.18901 0.63964 0.67846 0.0
C870 C 0.19893 0.66803 0.61818 0.0
N871 N 0.21774 0.65491 0.62304 0.0
O872 O 0.14963 0.639 0.57077 0.0
H873 H 0.1787 0.62641 0.70096 0.0
H874 H 0.19786 0.68203 0.58313 0.0
O875 O 0.13938 0.64578 0.71018 0.0
C876 C 0.15695 0.64564 0.51342 0.0
O877 O 0.16792 0.66508 0.50997 0.0
N878 N 0.14847 0.69204 0.68129 0.0
C879 C 0.13593 0.73679 0.71121 0.0
C880 C 0.12465 0.71852 0.7416 0.0
C881 C 0.13088 0.69629 0.72502 0.0
C882 C 0.16047 0.70986 0.65474 0.0
C883 C 0.15459 0.73238 0.66939 0.0
H884 H 0.11973 0.68284 0.74144 0.0
H885 H 0.17281 0.70697 0.61574 0.0
H886 H 0.10294 0.6374 0.62593 0.0
H887 H 0.07632 0.6974 0.54122 0.0
H888 H 0.2221 0.62223 0.67063 0.0
H889 H 0.1098 0.72141 0.77292 0.0
H890 H 0.16332 0.7462 0.64394 0.0
C891 C 0.07308 0.36246 0.34267 0.0
C892 C 0.07791 0.33994 0.3306 0.0
N893 N 0.09828 0.33531 0.35814 0.0
N894 N 0.09016 0.37184 0.37866 0.0
C895 C 0.10554 0.35489 0.38625 0.0
H896 H 0.05821 0.37158 0.32523 0.0
Co897 Co 0.09194 0.40273 0.40064 0.0
C898 C 0.10632 0.40018 0.54883 0.0
O899 O 0.09119 0.41571 0.56439 0.0
N900 N 0.09334 0.43479 0.41835 0.0
C901 C 0.08129 0.47025 0.43982 0.0
C902 C 0.08025 0.44775 0.45956 0.0
C903 C 0.10234 0.4502 0.37481 0.0
N904 N 0.09501 0.47159 0.38593 0.0
O905 O 0.11964 0.40449 0.34829 0.0
H906 H 0.06825 0.44126 0.49607 0.0
H907 H 0.11236 0.44588 0.33137 0.0
O908 O 0.10893 0.39453 0.48666 0.0
C909 C 0.11355 0.40478 0.28646 0.0
O910 O 0.09157 0.40533 0.27363 0.0
N911 N 0.0632 0.40053 0.44163 0.0
C912 C 0.01766 0.38873 0.45771 0.0
C913 C 0.03425 0.37936 0.4999 0.0
C914 C 0.05711 0.38528 0.49039 0.0
C915 C 0.04693 0.41079 0.40311 0.0
C916 C 0.02398 0.4052 0.41053 0.0
H917 H 0.06976 0.376 0.51798 0.0
H918 H 0.05203 0.42188 0.36228 0.0
H919 H 0.12176 0.35683 0.41145 0.0
H920 H 0.0673 0.32783 0.30417 0.0
H921 H 0.0709 0.48405 0.45886 0.0
H922 H 0.02981 0.3662 0.53585 0.0
H923 H 0.01151 0.41242 0.3765 0.0
C924 C 0.404 0.68279 0.47167 0.0
C925 C 0.42706 0.67883 0.47517 0.0
N926 N 0.43136 0.65887 0.44482 0.0
N927 N 0.39382 0.66562 0.43804 0.0
C928 C 0.41096 0.65096 0.42364 0.0
H929 H 0.39517 0.69742 0.4918 0.0
Co930 Co 0.36229 0.66453 0.42119 0.0
C931 C 0.3629 0.65245 0.27081 0.0
O932 O 0.35032 0.6703 0.25723 0.0
N933 N 0.32989 0.66371 0.40803 0.0
C934 C 0.2941 0.6751 0.38786 0.0
C935 C 0.31649 0.67638 0.36693 0.0
C936 C 0.31485 0.65459 0.45249 0.0
N937 N 0.29325 0.66155 0.4421 0.0
O938 O 0.36056 0.63637 0.47221 0.0
H939 H 0.32255 0.68811 0.32916 0.0
H940 H 0.31954 0.64436 0.49512 0.0
O941 O 0.36819 0.64804 0.33251 0.0
C942 C 0.36194 0.64113 0.53503 0.0
O943 O 0.36474 0.66259 0.55181 0.0
N944 N 0.36423 0.69369 0.38194 0.0
C945 C 0.37378 0.73977 0.36407 0.0
C946 C 0.38469 0.72337 0.32437 0.0
C947 C 0.37986 0.70028 0.33467 0.0
C948 C 0.3531 0.70965 0.41952 0.0
C949 C 0.35736 0.73281 0.4107 0.0
H950 H 0.39005 0.68783 0.30878 0.0
H951 H 0.342 0.70429 0.46004 0.0
H952 H 0.40864 0.63503 0.39725 0.0
H953 H 0.43979 0.68992 0.49697 0.0
H954 H 0.27993 0.68492 0.36847 0.0
H955 H 0.39798 0.72828 0.28936 0.0
H956 H 0.34913 0.74507 0.44334 0.0
C957 C 0.07837 0.65276 0.23209 0.0
C958 C 0.08096 0.67604 0.23279 0.0
N959 N 0.09264 0.68231 0.17748 0.0
N960 N 0.08855 0.64414 0.17696 0.0
C961 C 0.0969 0.66266 0.14402 0.0
H962 H 0.07003 0.64266 0.27038 0.0
Co963 Co 0.09191 0.61246 0.16377 0.0
C964 C 0.10106 0.61102 1.01424 0.0
O965 O 0.08479 0.59579 1.00761 0.0
N966 N 0.09595 0.58029 0.15589 0.0
C967 C 0.10957 0.54532 0.13579 0.0
C968 C 0.10793 0.56733 0.11194 0.0
C969 C 0.09118 0.56564 0.20684 0.0
N970 N 0.09918 0.54448 0.19583 0.0
O971 O 0.12069 0.61402 0.20901 0.0
H972 H 0.11649 0.5734 0.06758 0.0
H973 H 0.08269 0.57046 0.25287 0.0
O974 O 0.10622 0.61834 0.07323 0.0
C975 C 0.11747 0.61151 0.27217 0.0
O976 O 0.09674 0.60725 0.29373 0.0
N977 N 0.06213 0.61122 0.12681 0.0
C978 C 0.01568 0.61535 0.09875 0.0
C979 C 0.03155 0.62961 0.06723 0.0
C980 C 0.05468 0.62749 0.0828 0.0
C981 C 0.04672 0.59702 0.15697 0.0
C982 C 0.02344 0.59862 0.14306 0.0
H983 H 0.06643 0.63985 0.06243 0.0
H984 H 0.05196 0.58546 0.19584 0.0
H985 H 0.10635 0.66178 0.09735 0.0
H986 H 0.07487 0.68756 0.27126 0.0
H987 H 0.1188 0.53137 0.11284 0.0
H988 H 0.02596 0.6432 0.03425 0.0
H989 H 0.01148 0.58786 0.16988 0.0
C990 C 0.10162 0.32906 0.99222 0.0
C991 C 0.07914 0.33542 0.99614 0.0
N992 N 0.07678 0.35526 0.96349 0.0
N993 N 0.11352 0.34457 0.95583 0.0
C994 C 0.09777 0.36071 0.94037 0.0
H995 H 0.10864 0.31438 1.01716 0.0
Co996 Co 0.14568 0.34554 0.94255 0.0
C997 C 0.12628 0.35527 0.80322 0.0
O998 O 0.11032 0.34008 0.81512 0.0
N999 N 0.17736 0.34656 0.93342 0.0
C1000 C 0.21332 0.34991 0.89895 0.0
C1001 C 0.19074 0.35023 0.87923 0.0
C1002 C 0.19208 0.34377 0.98493 0.0
N1003 N 0.21402 0.34604 0.96565 0.0
O1004 O 0.14613 0.37501 0.98504 0.0
H1005 H 0.18459 0.3532 0.82881 0.0
H1006 H 0.18688 0.3401 0.03586 0.0
O1007 O 0.14143 0.35914 0.84887 0.0
C1008 C 0.14605 0.37095 0.04827 0.0
O1009 O 0.14572 0.34956 0.06786 0.0
N1010 N 0.14614 0.31548 0.91095 0.0
C1011 C 0.13939 0.26959 0.88529 0.0
C1012 C 0.14202 0.27726 0.95126 0.0
C1013 C 0.14584 0.30031 0.9628 0.0
C1014 C 0.14812 0.30773 0.84674 0.0
C1015 C 0.14376 0.28477 0.83223 0.0
H1016 H 0.14708 0.30641 1.01387 0.0
H1017 H 0.1528 0.31922 0.80696 0.0
H1018 H 0.10161 0.37622 0.91315 0.0
H1019 H 0.06555 0.32634 1.02156 0.0
H1020 H 0.22805 0.35286 0.86724 0.0
H1021 H 0.13972 0.26579 0.99345 0.0
H1022 H 0.14315 0.2791 0.78053 0.0
C1023 C 0.42314 0.35449 0.75279 0.0
C1024 C 0.41752 0.33178 0.75631 0.0
N1025 N 0.40631 0.32613 0.69981 0.0
N1026 N 0.41536 0.36328 0.69459 0.0
C1027 C 0.40538 0.34546 0.66286 0.0
H1028 H 0.43179 0.36418 0.79119 0.0
Co1029 Co 0.41582 0.3946 0.67567 0.0
C1030 C 0.40817 0.39388 0.52452 0.0
O1031 O 0.4256 0.40773 0.5168 0.0
N1032 N 0.41562 0.42673 0.66168 0.0
C1033 C 0.40468 0.46213 0.63564 0.0
C1034 C 0.40475 0.43969 0.61543 0.0
C1035 C 0.42146 0.4419 0.71013 0.0
N1036 N 0.4149 0.46337 0.69587 0.0
O1037 O 0.38663 0.39703 0.72005 0.0
H1038 H 0.39535 0.43337 0.573 0.0
H1039 H 0.42907 0.4372 0.75752 0.0
O1040 O 0.4017 0.38841 0.58442 0.0
C1041 C 0.38949 0.4005 0.78305 0.0
O1042 O 0.41029 0.40408 0.80473 0.0
N1043 N 0.4458 0.3916 0.64073 0.0
C1044 C 0.49153 0.38018 0.62023 0.0
C1045 C 0.47424 0.36799 0.58813 0.0
C1046 C 0.45147 0.37376 0.59988 0.0
C1047 C 0.46265 0.40395 0.67095 0.0
C1048 C 0.48565 0.39865 0.66088 0.0
H1049 H 0.43839 0.36289 0.57946 0.0
H1050 H 0.4585 0.41683 0.70728 0.0
H1051 H 0.39716 0.34664 0.61438 0.0
H1052 H 0.42122 0.32025 0.79739 0.0
H1053 H 0.39589 0.47607 0.61117 0.0
H1054 H 0.47825 0.35322 0.5578 0.0
H1055 H 0.49865 0.40798 0.68791 0.0
C1056 C 0.14175 0.13768 0.09792 0.0
C1057 C 0.12329 0.12192 0.10177 0.0
C1058 C 0.12619 0.12287 0.22624 0.0
C1059 C 0.14264 0.14067 0.22221 0.0
N1060 N 0.17434 0.15385 0.15535 0.0
N1061 N 0.10852 0.09103 0.16932 0.0
C1062 C 0.15289 0.14479 0.15825 0.0
C1063 C 0.11857 0.11201 0.16598 0.0
N1064 N 0.14915 0.14592 0.03763 0.0
N1065 N 0.11801 0.11567 0.28681 0.0
H1066 H 0.10543 0.08122 0.1267 0.0
H1067 H 0.10632 0.082 0.21397 0.0
H1068 H 0.12638 0.11852 0.33191 0.0
H1069 H 0.10313 0.10608 0.29153 0.0
H1070 H 0.1595 0.16031 0.03361 0.0
H1071 H 0.14556 0.13831 0.99192 0.0
H1072 H 0.1836 0.15552 0.11086 0.0
H1073 H 0.18411 0.15657 0.19837 0.0
C1074 C 0.09767 0.87471 0.43839 0.0
C1075 C 0.11211 0.88151 0.49248 0.0
C1076 C 0.1454 0.87015 0.42315 0.0
C1077 C 0.1309 0.8653 0.36738 0.0
N1078 N 0.09303 0.86771 0.31975 0.0
N1079 N 0.15032 0.88928 0.53056 0.0
C1080 C 0.10707 0.8692 0.37425 0.0
C1081 C 0.13617 0.88005 0.48345 0.0
N1082 N 0.07477 0.87212 0.44888 0.0
N1083 N 0.16818 0.86554 0.41837 0.0
H1084 H 0.1444 0.89694 0.57441 0.0
H1085 H 0.16782 0.89115 0.5237 0.0
H1086 H 0.176 0.86052 0.37368 0.0
H1087 H 0.17915 0.86568 0.45942 0.0
H1088 H 0.0639 0.86435 0.41451 0.0
H1089 H 0.06686 0.87533 0.49448 0.0
H1090 H 0.07623 0.87351 0.31999 0.0
H1091 H 0.09839 0.86264 0.27247 0.0
C1092 C 0.37681 0.85099 0.68484 0.0
C1093 C 0.36606 0.86462 0.73496 0.0
C1094 C 0.3734 0.8987 0.66463 0.0
C1095 C 0.38338 0.88487 0.61342 0.0
N1096 N 0.3912 0.84706 0.57167 0.0
N1097 N 0.35127 0.90115 0.76813 0.0
C1098 C 0.38387 0.86082 0.62248 0.0
C1099 C 0.36371 0.88844 0.72376 0.0
N1100 N 0.38161 0.82865 0.69824 0.0
N1101 N 0.3732 0.92184 0.65663 0.0
H1102 H 0.34439 0.89446 0.81224 0.0
H1103 H 0.34645 0.91796 0.75957 0.0
H1104 H 0.37768 0.92981 0.61161 0.0
H1105 H 0.36934 0.93323 0.69498 0.0
H1106 H 0.39225 0.8186 0.66867 0.0
H1107 H 0.37672 0.8205 0.74222 0.0
H1108 H 0.38854 0.82952 0.57071 0.0
H1109 H 0.39855 0.85316 0.52795 0.0
C1110 C 0.37735 0.11187 0.84307 0.0
C1111 C 0.37239 0.1355 0.83771 0.0
C1112 C 0.38905 0.14134 0.95021 0.0
C1113 C 0.39208 0.11744 0.95863 0.0
N1114 N 0.38471 0.07963 0.91622 0.0
N1115 N 0.37015 0.17225 0.89285 0.0
C1116 C 0.38509 0.10264 0.90569 0.0
C1117 C 0.377 0.14998 0.89349 0.0
N1118 N 0.37448 0.09803 0.78859 0.0
N1119 N 0.39921 0.1562 0.99342 0.0
H1120 H 0.36324 0.1804 0.85125 0.0
H1121 H 0.36999 0.18239 0.93576 0.0
H1122 H 0.40891 0.15094 0.03381 0.0
H1123 H 0.40013 0.1737 0.98514 0.0
H1124 H 0.38059 0.08139 0.78649 0.0
H1125 H 0.36738 0.10357 0.74351 0.0
H1126 H 0.37744 0.0681 0.88286 0.0
H1127 H 0.38955 0.07209 0.96133 0.0
C1128 C 0.87525 0.89146 0.82658 0.0
C1129 C 0.85951 0.87299 0.82635 0.0
C1130 C 0.8622 0.87079 0.94997 0.0
C1131 C 0.87937 0.88802 0.95036 0.0
N1132 N 0.89157 0.9221 0.89204 0.0
N1133 N 0.82882 0.8569 0.8919 0.0
C1134 C 0.88282 0.90055 0.88943 0.0
C1135 C 0.85011 0.86631 0.88936 0.0
N1136 N 0.88264 0.90101 0.76798 0.0
N1137 N 0.85732 0.85812 1.00566 0.0
H1138 H 0.81842 0.85585 0.84952 0.0
H1139 H 0.82037 0.85339 0.9369 0.0
H1140 H 0.8641 0.86094 0.05285 0.0
H1141 H 0.84698 0.84369 1.00359 0.0
H1142 H 0.89691 0.91158 0.76553 0.0
H1143 H 0.87432 0.89895 0.72238 0.0
H1144 H 0.8928 0.93274 0.85023 0.0
H1145 H 0.89443 0.93056 0.93727 0.0
C1146 C 0.88663 0.11822 0.69594 0.0
C1147 C 0.87071 0.13653 0.69069 0.0
C1148 C 0.87009 0.13084 0.56692 0.0
C1149 C 0.8879 0.11447 0.57198 0.0
N1150 N 0.90158 0.0842 0.64315 0.0
N1151 N 0.83911 0.15011 0.624 0.0
C1152 C 0.89273 0.10563 0.63715 0.0
C1153 C 0.86004 0.13992 0.62685 0.0
N1154 N 0.89615 0.11242 0.756 0.0
N1155 N 0.86203 0.1374 0.50571 0.0
H1156 H 0.82983 0.15425 0.66699 0.0
H1157 H 0.82955 0.15146 0.58012 0.0
H1158 H 0.86419 0.12773 0.46251 0.0
H1159 H 0.85241 0.15215 0.49877 0.0
H1160 H 0.91053 0.10204 0.75951 0.0
H1161 H 0.88986 0.1176 0.80215 0.0
H1162 H 0.90371 0.07598 0.68917 0.0
H1163 H 0.90361 0.07346 0.60183 0.0
C1164 C 0.62857 0.10911 0.32764 0.0
C1165 C 0.64067 0.13024 0.32999 0.0
C1166 C 0.62987 0.13392 0.44906 0.0
C1167 C 0.61855 0.1126 0.44867 0.0
N1168 N 0.61474 0.07654 0.39113 0.0
N1169 N 0.66304 0.15322 0.40698 0.0
C1170 C 0.62001 0.09921 0.38885 0.0
C1171 C 0.64455 0.13973 0.39497 0.0
N1172 N 0.62564 0.09787 0.26838 0.0
N1173 N 0.62587 0.14945 0.49847 0.0
H1174 H 0.67644 0.15476 0.37272 0.0
H1175 H 0.66673 0.15952 0.45473 0.0
H1176 H 0.61304 0.14731 0.53404 0.0
H1177 H 0.63303 0.16572 0.49764 0.0
H1178 H 0.6137 0.08485 0.26261 0.0
H1179 H 0.63517 0.1011 0.22539 0.0
H1180 H 0.61744 0.06551 0.35098 0.0
H1181 H 0.61045 0.06812 0.43548 0.0
C1182 C 0.62158 0.89337 0.20689 0.0
C1183 C 0.62181 0.86991 0.22307 0.0
C1184 C 0.61346 0.86031 0.10552 0.0
C1185 C 0.6121 0.88394 0.08932 0.0
N1186 N 0.62253 0.92227 0.11931 0.0
N1187 N 0.62646 0.83151 0.18442 0.0
C1188 C 0.6188 0.90023 0.13847 0.0
C1189 C 0.62068 0.85357 0.17097 0.0
N1190 N 0.62299 0.90908 0.2572 0.0
N1191 N 0.60627 0.84424 0.06094 0.0
H1192 H 0.63242 0.82647 0.23145 0.0
H1193 H 0.62791 0.81901 0.14758 0.0
H1194 H 0.60109 0.84805 1.01252 0.0
H1195 H 0.604 0.82716 0.07353 0.0
H1196 H 0.62021 0.92643 0.25001 0.0
H1197 H 0.62596 0.90446 0.3071 0.0
H1198 H 0.62911 0.93466 0.15123 0.0
H1199 H 0.62121 0.92752 0.06931 0.0
C1200 C 0.62602 0.59745 0.60296 0.0
C1201 C 0.62452 0.61339 0.54905 0.0
C1202 C 0.63979 0.6427 0.62626 0.0
C1203 C 0.63543 0.62829 0.68205 0.0
N1204 N 0.62675 0.59091 0.7236 0.0
N1205 N 0.63425 0.65085 0.50793 0.0
C1206 C 0.62959 0.60523 0.67021 0.0
C1207 C 0.63303 0.63585 0.55999 0.0
N1208 N 0.62458 0.57471 0.58919 0.0
N1209 N 0.65114 0.66266 0.63681 0.0
H1210 H 0.63344 0.64564 0.45827 0.0
H1211 H 0.63639 0.66833 0.51414 0.0
H1212 H 0.6576 0.66685 0.68397 0.0
H1213 H 0.65645 0.67355 0.59854 0.0
H1214 H 0.62726 0.56199 0.62484 0.0
H1215 H 0.62322 0.5686 0.54013 0.0
H1216 H 0.61951 0.57476 0.71988 0.0
H1217 H 0.63124 0.59564 0.77223 0.0
C1218 C 0.6506 0.36714 0.9037 0.0
C1219 C 0.63623 0.3592 0.85086 0.0
C1220 C 0.60267 0.36654 0.92306 0.0
C1221 C 0.61688 0.37541 0.97497 0.0
N1222 N 0.65443 0.38688 1.01052 0.0
N1223 N 0.59812 0.35422 0.80812 0.0
C1224 C 0.64089 0.3763 0.96427 0.0
C1225 C 0.61218 0.35999 0.85984 0.0
N1226 N 0.67374 0.36585 0.89596 0.0
N1227 N 0.58001 0.36286 0.93541 0.0
H1228 H 0.60388 0.34669 0.76433 0.0
H1229 H 0.58082 0.35821 0.80691 0.0
H1230 H 0.57197 0.36732 0.97992 0.0
H1231 H 0.5694 0.35347 0.90405 0.0
H1232 H 0.68529 0.36804 0.93503 0.0
H1233 H 0.68151 0.36174 0.85036 0.0
H1234 H 0.67152 0.39079 1.00247 0.0
H1235 H 0.6483 0.39315 0.05594 0.0
C1236 C 0.88476 0.3663 0.09864 0.0
C1237 C 0.88861 0.39017 0.09021 0.0
C1238 C 0.88066 0.39551 0.21146 0.0
C1239 C 0.87711 0.37182 0.21918 0.0
N1240 N 0.86746 0.33647 0.16658 0.0
N1241 N 0.88234 0.42782 0.13558 0.0
C1242 C 0.87626 0.3579 0.16129 0.0
C1243 C 0.88399 0.40487 0.14575 0.0
N1244 N 0.8909 0.35127 0.04966 0.0
N1245 N 0.88177 0.40897 0.26719 0.0
H1246 H 0.88371 0.4352 0.08812 0.0
H1247 H 0.87715 0.43918 0.17271 0.0
H1248 H 0.87832 0.40274 0.31532 0.0
H1249 H 0.88716 0.42588 0.26593 0.0
H1250 H 0.89079 0.33367 0.05661 0.0
H1251 H 0.89821 0.35613 1.00443 0.0
H1252 H 0.86464 0.32595 0.12532 0.0
H1253 H 0.86036 0.33051 0.21139 0.0
C1254 C 0.86747 0.61999 0.34741 0.0
C1255 C 0.87203 0.64262 0.32514 0.0
C1256 C 0.89139 0.65015 0.43338 0.0
C1257 C 0.88899 0.62697 0.45295 0.0
N1258 N 0.87545 0.58938 0.42649 0.0
N1259 N 0.8924 0.67779 0.34286 0.0
C1260 C 0.87721 0.61182 0.40915 0.0
C1261 C 0.88497 0.65731 0.36733 0.0
N1262 N 0.85306 0.60652 0.3111 0.0
N1263 N 0.89975 0.66557 0.47818 0.0
H1264 H 0.88891 0.68343 0.29438 0.0
H1265 H 0.90405 0.68815 0.36776 0.0
H1266 H 0.90464 0.66097 0.52631 0.0
H1267 H 0.89958 0.68311 0.47027 0.0
H1268 H 0.84676 0.59098 0.32821 0.0
H1269 H 0.84605 0.61152 0.26538 0.0
H1270 H 0.8702 0.57667 0.39356 0.0
H1271 H 0.87996 0.58339 0.47388 0.0
C1272 C 0.4109 0.37338 0.41226 0.0
C1273 C 0.39711 0.38397 0.46245 0.0
C1274 C 0.36309 0.37624 0.39256 0.0
C1275 C 0.37703 0.36636 0.34129 0.0
N1276 N 0.41504 0.35898 0.29934 0.0
N1277 N 0.36044 0.39895 0.49445 0.0
C1278 C 0.40113 0.36618 0.3501 0.0
C1279 C 0.37327 0.3862 0.45111 0.0
N1280 N 0.43332 0.36877 0.4253 0.0
N1281 N 0.33991 0.37623 0.3853 0.0
H1282 H 0.36706 0.40643 0.5376 0.0
H1283 H 0.34364 0.40372 0.48533 0.0
H1284 H 0.33181 0.3719 0.34061 0.0
H1285 H 0.32859 0.37972 0.42426 0.0
H1286 H 0.44335 0.35804 0.39592 0.0
H1287 H 0.44169 0.37396 0.46845 0.0
H1288 H 0.43252 0.3621 0.29795 0.0
H1289 H 0.40915 0.35113 0.25629 0.0
C1290 C 0.40495 0.63232 0.13471 0.0
C1291 C 0.3901 0.62257 0.08574 0.0
C1292 C 0.35747 0.63064 0.16151 0.0
C1293 C 0.37252 0.63942 0.21149 0.0
N1294 N 0.4112 0.64562 0.24798 0.0
N1295 N 0.35242 0.60925 0.0579 0.0
C1296 C 0.39639 0.63914 0.19886 0.0
C1297 C 0.36637 0.621 0.10049 0.0
N1298 N 0.42725 0.63654 0.11874 0.0
N1299 N 0.33446 0.63154 0.1724 0.0
H1300 H 0.35807 0.60216 1.01295 0.0
H1301 H 0.33561 0.60501 0.06908 0.0
H1302 H 0.32734 0.63613 0.21851 0.0
H1303 H 0.32236 0.62864 0.13519 0.0
H1304 H 0.43803 0.64665 0.14756 0.0
H1305 H 0.43476 0.63173 0.0738 0.0
H1306 H 0.42862 0.64218 0.24668 0.0
H1307 H 0.406 0.65317 0.29231 0.0
C1308 C 0.13655 0.61771 0.94258 0.0
C1309 C 0.11259 0.61995 0.95179 0.0
C1310 C 0.1093 0.63537 0.8364 0.0
C1311 C 0.13349 0.63527 0.82922 0.0
N1312 N 0.17024 0.62508 0.87445 0.0
N1313 N 0.07646 0.63356 0.90972 0.0
C1314 C 0.14707 0.62603 0.8822 0.0
C1315 C 0.09909 0.62921 0.89898 0.0
N1316 N 0.14918 0.60667 0.99029 0.0
N1317 N 0.09569 0.64123 0.78359 0.0
H1318 H 0.06778 0.62878 0.95294 0.0
H1319 H 0.06651 0.64361 0.87813 0.0
H1320 H 0.10172 0.64802 0.73914 0.0
H1321 H 0.07828 0.6378 0.78191 0.0
H1322 H 0.1661 0.60184 0.98392 0.0
H1323 H 0.14243 0.60105 0.03576 0.0
H1324 H 0.18161 0.62209 0.91351 0.0
H1325 H 0.17831 0.62774 0.82838 0.0
C1326 C 0.12799 0.39071 0.72723 0.0
C1327 C 0.12658 0.36662 0.7347 0.0
C1328 C 0.11598 0.36368 0.61455 0.0
C1329 C 0.11763 0.38774 0.60678 0.0
N1330 N 0.13215 0.42293 0.65122 0.0
N1331 N 0.12577 0.33012 0.6784 0.0
C1332 C 0.12596 0.40078 0.66179 0.0
C1333 C 0.12271 0.35317 0.67612 0.0
N1334 N 0.12965 0.40426 0.7827 0.0
N1335 N 0.10658 0.35065 0.56521 0.0
H1336 H 0.13008 0.32135 0.72177 0.0
H1337 H 0.12621 0.3199 0.63566 0.0
H1338 H 0.10243 0.35686 0.51821 0.0
H1339 H 0.10148 0.33382 0.57251 0.0
H1340 H 0.12801 0.42192 0.78085 0.0
H1341 H 0.13067 0.39792 0.83147 0.0
H1342 H 0.14032 0.43282 0.68729 0.0
H1343 H 0.13136 0.43056 0.60385 0.0
C1344 C 0.13362 0.11192 0.60049 0.0
C1345 C 0.14863 0.13095 0.60089 0.0
C1346 C 0.15286 0.12714 0.72396 0.0
C1347 C 0.13533 0.11053 0.72376 0.0
N1348 N 0.1184 0.07968 0.6629 0.0
N1349 N 0.17913 0.15033 0.65864 0.0
C1350 C 0.12907 0.10035 0.66198 0.0
C1351 C 0.16047 0.1364 0.6614 0.0
N1352 N 0.12228 0.10585 0.5434 0.0
N1353 N 0.16169 0.13461 0.78334 0.0
H1354 H 0.1853 0.15707 0.61375 0.0
H1355 H 0.18977 0.15353 0.6993 0.0
H1356 H 0.15902 0.12618 0.82868 0.0
H1357 H 0.17193 0.149 0.78781 0.0
H1358 H 0.10892 0.09415 0.54315 0.0
H1359 H 0.12517 0.11322 0.49668 0.0
H1360 H 0.11491 0.07032 0.61972 0.0
H1361 H 0.11544 0.07092 0.70783 0.0
C1362 C 0.12908 0.87476 0.91448 0.0
C1363 C 0.12451 0.89575 0.88175 0.0
C1364 C 0.13358 0.91548 0.987 0.0
C1365 C 0.14226 0.89499 1.01566 0.0
N1366 N 0.15068 0.85506 0.9988 0.0
N1367 N 0.12533 0.93665 0.88538 0.0
C1368 C 0.14066 0.87459 0.97729 0.0
C1369 C 0.12783 0.91627 0.91758 0.0
N1370 N 0.12123 0.8549 0.88775 0.0
N1371 N 0.12951 0.93393 0.02704 0.0
H1372 H 0.12142 0.93764 0.83446 0.0
H1373 H 0.12945 0.95222 0.90729 0.0
H1374 H 0.13157 0.93345 0.07907 0.0
H1375 H 0.12137 0.94862 1.00998 0.0
H1376 H 0.12172 0.83939 0.91332 0.0
H1377 H 0.11237 0.8544 0.84266 0.0
H1378 H 0.15261 0.84073 0.96842 0.0
H1379 H 0.15834 0.85374 0.04511 0.0
C1380 C 0.37178 0.89667 0.11247 0.0
C1381 C 0.35442 0.87977 0.11392 0.0
C1382 C 0.35465 0.88035 0.23762 0.0
C1383 C 0.37324 0.89588 0.23616 0.0
N1384 N 0.39195 0.92589 0.17424 0.0
N1385 N 0.32313 0.86365 0.17635 0.0
C1386 C 0.37918 0.90643 0.17411 0.0
C1387 C 0.34372 0.87452 0.17621 0.0
N1388 N 0.38236 0.90256 0.05376 0.0
N1389 N 0.34828 0.86984 0.29596 0.0
H1390 H 0.31474 0.85939 0.13194 0.0
H1391 H 0.31343 0.86114 0.21966 0.0
H1392 H 0.35475 0.87402 0.34284 0.0
H1393 H 0.33718 0.85598 0.29727 0.0
H1394 H 0.39739 0.91202 0.05216 0.0
H1395 H 0.37681 0.89756 1.00657 0.0
H1396 H 0.39512 0.93553 0.13121 0.0
H1397 H 0.39716 0.93374 0.21854 0.0
C1398 C 0.37758 0.09167 0.39578 0.0
C1399 C 0.37441 0.10396 0.33469 0.0
C1400 C 0.3585 0.13541 0.39633 0.0
C1401 C 0.36069 0.12342 0.45848 0.0
N1402 N 0.3657 0.08671 0.51192 0.0
N1403 N 0.34973 0.13067 0.27899 0.0
C1404 C 0.36816 0.10039 0.45686 0.0
C1405 C 0.36047 0.12334 0.33557 0.0
N1406 N 0.38981 0.07191 0.39539 0.0
N1407 N 0.35707 0.15861 0.39407 0.0
H1408 H 0.35002 0.12136 0.23445 0.0
H1409 H 0.33818 0.14418 0.27998 0.0
H1410 H 0.36139 0.16899 0.43449 0.0
H1411 H 0.35537 0.16753 0.34927 0.0
H1412 H 0.39495 0.06354 0.43901 0.0
H1413 H 0.39546 0.06445 0.35085 0.0
H1414 H 0.36934 0.06935 0.51134 0.0
H1415 H 0.35764 0.0921 0.55578 0.0
C1416 C 0.84774 0.89056 0.32505 0.0
C1417 C 0.86593 0.90642 0.324 0.0
C1418 C 0.86793 0.9057 0.4472 0.0
C1419 C 0.85254 0.88701 0.44786 0.0
N1420 N 0.82138 0.86804 0.39217 0.0
N1421 N 0.88376 0.93721 0.38335 0.0
C1422 C 0.84027 0.88161 0.38811 0.0
C1423 C 0.87255 0.91684 0.38519 0.0
N1424 N 0.83803 0.88369 0.26627 0.0
N1425 N 0.87964 0.91175 0.50367 0.0
H1426 H 0.88723 0.94549 0.3381 0.0
H1427 H 0.88736 0.94678 0.42605 0.0
H1428 H 0.87659 0.90487 0.55094 0.0
H1429 H 0.89336 0.92302 0.50293 0.0
H1430 H 0.82749 0.86951 0.26201 0.0
H1431 H 0.84011 0.89274 0.22161 0.0
H1432 H 0.81055 0.86474 0.35203 0.0
H1433 H 0.81534 0.86163 0.43764 0.0
C1434 C 0.88848 0.09989 0.12861 0.0
C1435 C 0.8812 0.10972 0.19043 0.0
C1436 C 0.85228 0.13101 0.12754 0.0
C1437 C 0.86419 0.12658 0.06681 0.0
N1438 N 0.89295 0.10461 1.00854 0.0
N1439 N 0.85444 0.13433 0.24832 0.0
C1440 C 0.88171 0.10992 0.06657 0.0
C1441 C 0.86218 0.12473 0.19017 0.0
N1442 N 0.90199 0.08095 0.12943 0.0
N1443 N 0.83148 0.14141 0.12484 0.0
H1444 H 0.86013 0.12968 0.29577 0.0
H1445 H 0.8429 0.14783 0.24913 0.0
H1446 H 0.82374 0.14544 0.07916 0.0
H1447 H 0.821 0.14357 0.16667 0.0
H1448 H 0.90622 0.07177 0.08646 0.0
H1449 H 0.90689 0.07303 0.17398 0.0
H1450 H 0.90807 0.09529 1.00755 0.0
H1451 H 0.88779 0.11011 0.96133 0.0
C1452 C 0.65262 0.11523 0.82682 0.0
C1453 C 0.63397 0.09975 0.82674 0.0
C1454 C 0.63558 0.09733 0.95028 0.0
C1455 C 0.65216 0.11494 0.95036 0.0
N1456 N 0.68353 0.13198 0.89116 0.0
N1457 N 0.61532 0.06895 0.88485 0.0
C1458 C 0.66314 0.12078 0.88911 0.0
C1459 C 0.62814 0.08834 0.88755 0.0
N1460 N 0.6594 0.12589 0.76915 0.0
N1461 N 0.62592 0.09003 1.00893 0.0
H1462 H 0.60999 0.06198 0.83933 0.0
H1463 H 0.61205 0.05864 0.92643 0.0
H1464 H 0.63211 0.09439 0.05606 0.0
H1465 H 0.61139 0.07984 1.01075 0.0
H1466 H 0.67049 0.13977 0.76879 0.0
H1467 H 0.65356 0.12151 0.7217 0.0
H1468 H 0.69342 0.13525 0.84867 0.0
H1469 H 0.69158 0.1357 0.93662 0.0
C1470 C 0.61789 0.90509 0.65374 0.0
C1471 C 0.6245 0.89299 0.71271 0.0
C1472 C 0.65587 0.87619 0.64869 0.0
C1473 C 0.64459 0.8821 0.58834 0.0
N1474 N 0.61757 0.90649 0.53206 0.0
N1475 N 0.65181 0.86797 0.76699 0.0
C1476 C 0.62679 0.89837 0.59023 0.0
C1477 C 0.64454 0.87938 0.71114 0.0
N1478 N 0.60312 0.92301 0.6588 0.0
N1479 N 0.67711 0.86677 0.64533 0.0
H1480 H 0.64466 0.86996 0.81439 0.0
H1481 H 0.66442 0.85549 0.76553 0.0
H1482 H 0.68544 0.86448 0.5994 0.0
H1483 H 0.68716 0.86361 0.68743 0.0
H1484 H 0.59906 0.93372 0.61883 0.0
H1485 H 0.59666 0.92854 0.70474 0.0
H1486 H 0.60214 0.91525 0.53004 0.0
H1487 H 0.62541 0.90452 0.48551 0.0
C1488 C 0.66443 0.616 0.11097 0.0
C1489 C 0.65301 0.60918 0.05159 0.0
C1490 C 0.63307 0.58001 0.11715 0.0
C1491 C 0.63845 0.59207 0.17694 0.0
N1492 N 0.66511 0.61692 0.23293 0.0
N1493 N 0.63067 0.5808 0.99525 0.0
C1494 C 0.65634 0.60835 0.17482 0.0
C1495 C 0.63904 0.58955 0.05352 0.0
N1496 N 0.6831 0.62972 0.1052 0.0
N1497 N 0.62222 0.55949 0.12203 0.0
H1498 H 0.63678 0.58601 0.94853 0.0
H1499 H 0.6179 0.5685 0.99335 0.0
H1500 H 0.61865 0.55206 0.16862 0.0
H1501 H 0.61892 0.549 0.0811 0.0
H1502 H 0.69333 0.6346 0.14533 0.0
H1503 H 0.68959 0.63416 0.05818 0.0
H1504 H 0.6755 0.63127 0.23492 0.0
H1505 H 0.66251 0.60913 0.27934 0.0
C1506 C 0.63496 0.39407 0.47285 0.0
C1507 C 0.64931 0.37458 0.47191 0.0
C1508 C 0.65429 0.37907 0.34916 0.0
C1509 C 0.63756 0.39648 0.34975 0.0
N1510 N 0.62237 0.42781 0.41336 0.0
N1511 N 0.67939 0.35454 0.41366 0.0
C1512 C 0.63158 0.40647 0.41229 0.0
C1513 C 0.66119 0.36904 0.41133 0.0
N1514 N 0.62305 0.3999 0.52929 0.0
N1515 N 0.66332 0.37183 0.28971 0.0
H1516 H 0.68525 0.34737 0.45827 0.0
H1517 H 0.69004 0.35127 0.37292 0.0
H1518 H 0.66226 0.38144 0.2458 0.0
H1519 H 0.6723 0.35664 0.28432 0.0
H1520 H 0.61007 0.41202 0.5291 0.0
H1521 H 0.62491 0.39184 0.57542 0.0
H1522 H 0.61943 0.43686 0.45752 0.0
H1523 H 0.62015 0.43726 0.3695 0.0
C1524 C 0.85065 0.40129 0.67926 0.0
C1525 C 0.87135 0.3992 0.71566 0.0
C1526 C 0.88592 0.37254 0.63195 0.0
C1527 C 0.86606 0.37575 0.5922 0.0
N1528 N 0.83052 0.39537 0.57383 0.0
N1529 N 0.9114 0.38985 0.71152 0.0
C1530 C 0.84877 0.39098 0.61436 0.0
C1531 C 0.88977 0.38685 0.68774 0.0
N1532 N 0.83271 0.41264 0.70748 0.0
N1533 N 0.90109 0.35555 0.61783 0.0
H1534 H 0.91535 0.40121 0.75 0.0
H1535 H 0.92571 0.38289 0.68809 0.0
H1536 H 0.89999 0.34524 0.57557 0.0
H1537 H 0.91419 0.35098 0.65057 0.0
H1538 H 0.8164 0.41297 0.68695 0.0
H1539 H 0.83378 0.4205 0.75435 0.0
H1540 H 0.81831 0.40775 0.58415 0.0
H1541 H 0.82848 0.38772 0.52703 0.0
C1542 C 0.8747 0.63318 0.87235 0.0
C1543 C 0.88123 0.61305 0.83801 0.0
C1544 C 0.87247 0.59133 0.93997 0.0
C1545 C 0.86222 0.61077 0.97043 0.0
N1546 N 0.84897 0.64935 0.95386 0.0
N1547 N 0.88073 0.57216 0.83535 0.0
C1548 C 0.86193 0.6315 0.93319 0.0
C1549 C 0.87818 0.59186 0.87058 0.0
N1550 N 0.88148 0.65394 0.84889 0.0
N1551 N 0.87805 0.57273 0.97783 0.0
H1552 H 0.88331 0.57231 0.78361 0.0
H1553 H 0.87728 0.55615 0.85578 0.0
H1554 H 0.87639 0.57242 0.03 0.0
H1555 H 0.8871 0.55892 0.95848 0.0
H1556 H 0.87878 0.669 0.87538 0.0
H1557 H 0.89165 0.65571 0.80621 0.0
H1558 H 0.8467 0.66405 0.92512 0.0
H1559 H 0.83902 0.64844 0.9967 0.0
C1560 C 0.36099 0.39825 0.9537 0.0
C1561 C 0.36138 0.37418 0.9616 0.0
C1562 C 0.36778 0.37036 0.84078 0.0
C1563 C 0.37249 0.39374 0.83501 0.0
N1564 N 0.37385 0.43065 0.88705 0.0
N1565 N 0.37312 0.33812 0.91289 0.0
C1566 C 0.36901 0.40798 0.89192 0.0
C1567 C 0.36693 0.36041 0.90515 0.0
N1568 N 0.35259 0.4117 1.0038 0.0
N1569 N 0.36454 0.3574 0.78511 0.0
H1570 H 0.37559 0.33059 0.95973 0.0
H1571 H 0.3789 0.32818 0.87293 0.0
H1572 H 0.36357 0.36453 0.73726 0.0
H1573 H 0.35956 0.3404 0.78851 0.0
H1574 H 0.35012 0.42917 0.99831 0.0
H1575 H 0.34633 0.40507 0.04883 0.0
H1576 H 0.37412 0.44155 0.92827 0.0
H1577 H 0.37849 0.4382 0.84147 0.0
C1578 C 0.35166 0.62006 0.71259 0.0
C1579 C 0.36562 0.60039 0.7131 0.0
C1580 C 0.37017 0.60265 0.59063 0.0
C1581 C 0.35896 0.62412 0.59078 0.0
N1582 N 0.33106 0.64796 0.64629 0.0
N1583 N 0.37701 0.56732 0.6511 0.0
C1584 C 0.34707 0.63109 0.65009 0.0
C1585 C 0.37072 0.58969 0.6511 0.0
N1586 N 0.34333 0.62857 0.77144 0.0
N1587 N 0.38197 0.59535 0.53551 0.0
H1588 H 0.37739 0.5578 0.69548 0.0
H1589 H 0.37939 0.55791 0.6073 0.0
H1590 H 0.38253 0.60415 0.49019 0.0
H1591 H 0.39262 0.58116 0.53634 0.0
H1592 H 0.33657 0.64489 0.77618 0.0
H1593 H 0.34291 0.61898 0.81553 0.0
H1594 H 0.32042 0.65249 0.686 0.0
H1595 H 0.32679 0.65597 0.60134 0.0
C1596 C 0.14121 0.65041 0.39752 0.0
C1597 C 0.14874 0.63549 0.44942 0.0
C1598 C 0.13984 0.60306 0.37662 0.0
C1599 C 0.13441 0.61834 0.32349 0.0
N1600 N 0.13805 0.65617 0.27824 0.0
N1601 N 0.15966 0.59745 0.48244 0.0
C1602 C 0.13814 0.64183 0.33208 0.0
C1603 C 0.14947 0.61169 0.43728 0.0
N1604 N 0.1351 0.67239 0.41123 0.0
N1605 N 0.13515 0.58042 0.36971 0.0
H1606 H 0.16712 0.60328 0.52669 0.0
H1607 H 0.16243 0.58022 0.47311 0.0
H1608 H 0.12888 0.5737 0.32496 0.0
H1609 H 0.13634 0.56875 0.40902 0.0
H1610 H 0.12757 0.68304 0.37566 0.0
H1611 H 0.13455 0.67902 0.45963 0.0
H1612 H 0.14227 0.67336 0.28225 0.0
H1613 H 0.13681 0.65022 0.22922 0.0
C1614 C 0.1487 0.38949 0.22494 0.0
C1615 C 0.12954 0.40427 0.22764 0.0
C1616 C 0.12836 0.40564 0.104 0.0
C1617 C 0.14546 0.38865 0.102 0.0
N1618 N 0.17892 0.37382 0.15549 0.0
N1619 N 0.10912 0.43431 0.17096 0.0
C1620 C 0.15805 0.3839 0.16109 0.0
C1621 C 0.12216 0.41509 0.16731 0.0
N1622 N 0.15719 0.3796 0.28173 0.0
N1623 N 0.11714 0.41185 0.04686 0.0
H1624 H 0.10495 0.44187 0.21673 0.0
H1625 H 0.10462 0.444 0.12914 0.0
H1626 H 0.12213 0.40653 0.99923 0.0
H1627 H 0.10245 0.42183 0.04701 0.0
H1628 H 0.1688 0.36617 0.28057 0.0
H1629 H 0.15232 0.38417 0.33002 0.0
H1630 H 0.18982 0.37125 0.19606 0.0
H1631 H 0.18625 0.3707 0.10861 0.0
C1632 C 0.25659 0.17077 0.59626 0.0
C1633 C 0.27376 0.15502 0.5781 0.0
C1634 C 0.25328 0.14632 0.47359 0.0
C1635 C 0.23696 0.16314 0.48977 0.0
N1636 N 0.22413 0.19356 0.56103 0.0
N1637 N 0.2904 0.12988 0.49575 0.0
C1638 C 0.23888 0.17596 0.54982 0.0
C1639 C 0.27263 0.1433 0.51569 0.0
N1640 N 0.25712 0.18034 0.65871 0.0
N1641 N 0.24977 0.13276 0.4189 0.0
H1642 H 0.30452 0.12668 0.52587 0.0
H1643 H 0.29194 0.12309 0.44769 0.0
H1644 H 0.23582 0.13485 0.38704 0.0
H1645 H 0.25963 0.11851 0.40779 0.0
H1646 H 0.24406 0.19034 0.67829 0.0
H1647 H 0.27009 0.17683 0.69305 0.0
H1648 H 0.22564 0.20494 0.60079 0.0
H1649 H 0.21125 0.19789 0.52729 0.0
C1650 C 0.11817 0.99199 0.78544 0.0
C1651 C 0.09725 0.98299 0.76134 0.0
C1652 C 0.07637 0.01285 0.82211 0.0
C1653 C 0.09736 0.02285 0.84112 0.0
N1654 N 0.13811 0.02483 0.8299 0.0
N1655 N 0.0567 0.98664 0.74779 0.0
C1656 C 0.11825 0.01321 0.81965 0.0
C1657 C 0.07637 0.9939 0.77743 0.0
N1658 N 0.13785 0.97981 0.7781 0.0
N1659 N 0.05653 0.02123 0.84818 0.0
H1660 H 0.05631 0.97312 0.71391 0.0
H1661 H 0.04118 0.99512 0.75229 0.0
H1662 H 0.05619 0.03512 0.88078 0.0
H1663 H 0.04074 0.01344 0.84175 0.0
H1664 H 0.15318 0.9844 0.80065 0.0
H1665 H 0.1384 0.96387 0.75527 0.0
H1666 H 0.15368 0.01987 0.80936 0.0
H1667 H 0.13862 0.04064 0.85361 0.0
C1668 C 0.22996 0.82319 0.03791 0.0
C1669 C 0.22845 0.8369 0.09642 0.0
C1670 C 0.26313 0.85732 0.06269 0.0
C1671 C 0.26557 0.84242 1.00728 0.0
N1672 N 0.25354 0.80944 0.946 0.0
N1673 N 0.2444 0.86515 0.16929 0.0
C1674 C 0.24961 0.82479 0.99614 0.0
C1675 C 0.24534 0.85345 0.11015 0.0
N1676 N 0.21206 0.80953 1.02058 0.0
N1677 N 0.27747 0.87554 0.06844 0.0
H1678 H 0.23141 0.86254 0.20441 0.0
H1679 H 0.25721 0.87605 0.18579 0.0
H1680 H 0.29072 0.87857 0.03451 0.0
H1681 H 0.27544 0.88836 0.10397 0.0
H1682 H 0.21106 0.80088 0.97507 0.0
H1683 H 0.19725 0.80827 0.04938 0.0
H1684 H 0.24387 0.79475 0.93924 0.0
H1685 H 0.2676 0.81064 0.91393 0.0
C1686 C 0.42458 0.98612 0.28895 0.0
C1687 C 0.40717 0.98507 0.33854 0.0
C1688 C 0.38809 0.01803 0.28745 0.0
C1689 C 0.40606 0.01968 0.23977 0.0
N1690 N 0.44206 0.00706 0.19655 0.0
N1691 N 0.37337 1.00016 0.38937 0.0
C1692 C 0.42447 0.00413 0.2409 0.0
C1693 C 0.38914 1.00107 0.33881 0.0
N1694 N 0.44099 0.96961 0.28756 0.0
N1695 N 0.3701 0.03274 0.28317 0.0
H1696 H 0.37374 0.98758 0.42648 0.0
H1697 H 0.36067 0.01224 0.39689 0.0
H1698 H 0.36951 0.04599 0.24829 0.0
H1699 H 0.35541 0.03156 0.3123 0.0
H1700 H 0.45289 0.96777 0.24913 0.0
H1701 H 0.44211 0.95687 0.32391 0.0
H1702 H 0.45725 0.99794 0.1981 0.0
H1703 H 0.44184 0.0196 0.15933 0.0
C1704 C 0.73339 0.86608 0.51103 0.0
C1705 C 0.73066 0.84851 0.46297 0.0
C1706 C 0.76615 0.83069 0.50073 0.0
C1707 C 0.76769 0.84703 0.55293 0.0
N1708 N 0.75272 0.87932 0.61172 0.0
N1709 N 0.74256 0.8129 0.41548 0.0
C1710 C 0.75129 0.86455 0.559 0.0
C1711 C 0.74666 0.83056 0.45834 0.0
N1712 N 0.71899 0.88435 0.50952 0.0
N1713 N 0.78353 0.81553 0.49137 0.0
H1714 H 0.72845 0.81252 0.38369 0.0
H1715 H 0.75217 0.798 0.41447 0.0
H1716 H 0.79776 0.81486 0.5226 0.0
H1717 H 0.78468 0.80471 0.45015 0.0
H1718 H 0.72087 0.89871 0.53955 0.0
H1719 H 0.70591 0.88582 0.47431 0.0
H1720 H 0.74023 0.89127 0.62343 0.0
H1721 H 0.76601 0.87865 0.64648 0.0
C1722 C 0.93241 0.99618 0.2096 0.0
C1723 C 0.91224 0.98293 0.20901 0.0
C1724 C 0.89621 0.00624 0.30019 0.0
C1725 C 0.91594 0.02007 0.2986 0.0
N1726 N 0.95179 0.03034 0.24856 0.0
N1727 N 0.87408 0.97594 0.24901 0.0
C1728 C 0.93381 0.01559 0.25236 0.0
C1729 C 0.89384 0.98819 0.25293 0.0
N1730 N 0.95027 0.98988 0.16957 0.0
N1731 N 0.88012 0.0101 0.34855 0.0
H1732 H 0.8724 0.96148 0.21918 0.0
H1733 H 0.85907 0.98034 0.27373 0.0
H1734 H 0.88143 0.02349 0.38276 0.0
H1735 H 0.86628 0.99945 0.35772 0.0
H1736 H 0.96637 0.99727 0.17155 0.0
H1737 H 0.94922 0.97623 0.13618 0.0
H1738 H 0.96448 0.02951 0.21204 0.0
H1739 H 0.95336 0.0444 0.28015 0.0
C1740 C 0.76458 0.18027 0.99012 0.0
C1741 C 0.77495 0.16006 0.96611 0.0
C1742 C 0.74681 0.1371 0.02741 0.0
C1743 C 0.73758 0.15721 0.05576 0.0
N1744 N 0.73892 0.19771 0.07127 0.0
N1745 N 0.77897 0.11935 0.97138 0.0
C1746 C 0.74683 0.17878 0.03899 0.0
C1747 C 0.76689 0.13847 0.98742 0.0
N1748 N 0.77139 0.20077 0.96456 0.0
N1749 N 0.73581 0.11683 0.03658 0.0
H1750 H 0.79398 0.1199 0.94324 0.0
H1751 H 0.77529 0.1033 0.99095 0.0
H1752 H 0.72079 0.1154 0.06441 0.0
H1753 H 0.74037 0.10191 1.01174 0.0
H1754 H 0.76323 0.21611 0.97497 0.0
H1755 H 0.78433 0.20219 0.92872 0.0
H1756 H 0.7462 0.21379 0.06624 0.0
H1757 H 0.72596 0.19694 0.10721 0.0
C1758 C 0.57655 0.99879 0.71509 0.0
C1759 C 0.5947 0.01448 0.72179 0.0
C1760 C 0.60856 0.99397 0.82132 0.0
C1761 C 0.59087 0.97782 0.81321 0.0
N1762 N 0.55985 0.96261 0.74841 0.0
N1763 N 0.62974 0.02586 0.77408 0.0
C1764 C 0.57538 0.97958 0.75875 0.0
C1765 C 0.61126 0.01171 0.77296 0.0
N1766 N 0.56014 0.00278 0.66793 0.0
N1767 N 0.62236 0.99247 0.87631 0.0
H1768 H 0.63184 0.03916 0.73978 0.0
H1769 H 0.64356 0.02377 0.80618 0.0
H1770 H 0.62088 0.97928 0.9113 0.0
H1771 H 0.63428 0.0048 0.88946 0.0
H1772 H 0.54512 0.99343 0.66416 0.0
H1773 H 0.56097 0.01652 0.63466 0.0
H1774 H 0.54956 0.96151 0.70603 0.0
H1775 H 0.55826 0.94862 0.78042 0.0
C1776 C 0.73829 0.64147 0.99525 0.0
C1777 C 0.72912 0.66317 0.97958 0.0
C1778 C 0.75593 0.68105 0.05819 0.0
C1779 C 0.76635 0.6596 0.06923 0.0
N1780 N 0.76982 0.61988 0.04199 0.0
N1781 N 0.72943 0.70377 0.9918 0.0
C1782 C 0.75808 0.63989 0.0363 0.0
C1783 C 0.73795 0.68304 1.01023 0.0
N1784 N 0.72766 0.62235 0.97204 0.0
N1785 N 0.76322 0.69937 0.09442 0.0
H1786 H 0.71611 0.70542 0.95746 0.0
H1787 H 0.73621 0.71926 1.00731 0.0
H1788 H 0.77646 0.69817 0.12924 0.0
H1789 H 0.75541 0.71528 0.09339 0.0
H1790 H 0.73198 0.60592 0.9871 0.0
H1791 H 0.71313 0.623 0.94197 0.0
H1792 H 0.76622 0.60545 1.01365 0.0
H1793 H 0.78439 0.61822 0.07152 0.0
C1794 C 0.57745 0.51457 0.25125 0.0
C1795 C 0.59209 0.51733 0.30738 0.0
C1796 C 0.61265 0.48257 0.27619 0.0
C1797 C 0.59657 0.47866 0.22433 0.0
N1798 N 0.56252 0.48921 0.16561 0.0
N1799 N 0.6223 0.50358 0.37741 0.0
C1800 C 0.5786 0.49419 0.21288 0.0
C1801 C 0.60941 0.50122 0.32082 0.0
N1802 N 0.56321 0.5319 0.23295 0.0
N1803 N 0.63118 0.46863 0.28179 0.0
H1804 H 0.62025 0.51727 0.41026 0.0
H1805 H 0.6338 0.49134 0.39428 0.0
H1806 H 0.63348 0.45428 0.25175 0.0
H1807 H 0.64484 0.47185 0.3137 0.0
H1808 H 0.55375 0.53193 0.18877 0.0
H1809 H 0.56229 0.54725 0.25906 0.0
H1810 H 0.54757 0.49853 0.15935 0.0
H1811 H 0.56352 0.47474 0.13538 0.0
C1812 C 0.74941 0.36082 0.5728 0.0
C1813 C 0.7368 0.34034 0.57815 0.0
C1814 C 0.76121 0.32252 0.49287 0.0
C1815 C 0.77314 0.34332 0.48523 0.0
N1816 N 0.77723 0.38307 0.50978 0.0
N1817 N 0.72763 0.30312 0.53568 0.0
C1818 C 0.76681 0.36274 0.52298 0.0
C1819 C 0.74183 0.32156 0.53592 0.0
N1820 N 0.74493 0.37814 0.61653 0.0
N1821 N 0.76899 0.30352 0.46067 0.0
H1822 H 0.71331 0.30194 0.56661 0.0
H1823 H 0.72895 0.28984 0.50131 0.0
H1824 H 0.78304 0.30384 0.42844 0.0
H1825 H 0.76262 0.28723 0.46945 0.0
H1826 H 0.7547 0.39289 0.61994 0.0
H1827 H 0.73206 0.37705 0.65271 0.0
H1828 H 0.77242 0.39845 0.53145 0.0
H1829 H 0.78981 0.38475 0.47296 0.0
C1830 C 0.93026 0.50125 0.81456 0.0
C1831 C 0.90878 0.49051 0.82305 0.0
C1832 C 0.89141 0.51863 0.74717 0.0
C1833 C 0.91325 0.52793 0.73364 0.0
N1834 N 0.95385 0.52693 0.74812 0.0
N1835 N 0.86948 0.48671 0.7893 0.0
C1836 C 0.9328 0.51896 0.7659 0.0
C1837 C 0.88946 0.49864 0.78734 0.0
N1838 N 0.94803 0.4948 0.8545 0.0
N1839 N 0.87242 0.52942 0.72344 0.0
H1840 H 0.86725 0.47203 0.81795 0.0
H1841 H 0.85566 0.49023 0.75818 0.0
H1842 H 0.87322 0.54425 0.69468 0.0
H1843 H 0.85589 0.52501 0.7376 0.0
H1844 H 0.96365 0.50321 0.85562 0.0
H1845 H 0.94645 0.48203 0.89076 0.0
H1846 H 0.96906 0.51975 0.76468 0.0
H1847 H 0.95608 0.53979 0.71246 0.0
C1848 C 0.24734 0.36637 1.01299 0.0
C1849 C 0.23385 0.3464 1.00881 0.0
C1850 C 0.25817 0.32819 0.09389 0.0
C1851 C 0.27286 0.34736 0.09278 0.0
N1852 N 0.28453 0.38205 0.03755 0.0
N1853 N 0.22845 0.3069 0.03684 0.0
C1854 C 0.26833 0.36575 0.04843 0.0
C1855 C 0.2398 0.32688 0.04715 0.0
N1856 N 0.23964 0.38624 0.98545 0.0
N1857 N 0.26159 0.31151 0.14063 0.0
H1858 H 0.21542 0.30533 1.00158 0.0
H1859 H 0.23326 0.2915 0.05863 0.0
H1860 H 0.27493 0.31217 0.1752 0.0
H1861 H 0.25028 0.2981 0.14856 0.0
H1862 H 0.2478 0.40183 0.99243 0.0
H1863 H 0.22384 0.38757 0.96189 0.0
H1864 H 0.28292 0.39468 1.00102 0.0
H1865 H 0.30064 0.38145 0.05952 0.0
C1866 C 0.39221 0.51201 0.79945 0.0
C1867 C 0.41243 0.52034 0.82979 0.0
C1868 C 0.4347 0.49207 0.76657 0.0
C1869 C 0.41419 0.48232 0.74225 0.0
N1870 N 0.3733 0.47941 0.75088 0.0
N1871 N 0.45264 0.51658 0.84944 0.0
C1872 C 0.39289 0.49124 0.7632 0.0
C1873 C 0.43365 0.50984 0.81534 0.0
N1874 N 0.37261 0.52451 0.80205 0.0
N1875 N 0.45509 0.48482 0.74131 0.0
H1876 H 0.45219 0.52944 0.88553 0.0
H1877 H 0.46829 0.50828 0.84599 0.0
H1878 H 0.45625 0.47207 0.70502 0.0
H1879 H 0.4706 0.49263 0.75212 0.0
H1880 H 0.35796 0.52013 0.77547 0.0
H1881 H 0.37179 0.54061 0.82387 0.0
H1882 H 0.35752 0.48416 0.77049 0.0
H1883 H 0.37326 0.46347 0.72785 0.0
C1884 C 0.25637 0.6443 0.47402 0.0
C1885 C 0.27442 0.65947 0.48855 0.0
C1886 C 0.25597 0.66982 0.59523 0.0
C1887 C 0.23718 0.65587 0.57848 0.0
N1888 N 0.21789 0.63163 0.4995 0.0
N1889 N 0.29049 0.68892 0.55767 0.0
C1890 C 0.23696 0.64353 0.51714 0.0
C1891 C 0.27403 0.6728 0.54798 0.0
N1892 N 0.2582 0.63028 0.41962 0.0
N1893 N 0.25654 0.6799 0.65695 0.0
H1894 H 0.30374 0.69165 0.52357 0.0
H1895 H 0.29021 0.70069 0.59667 0.0
H1896 H 0.24325 0.67818 0.69157 0.0
H1897 H 0.27065 0.68855 0.67568 0.0
H1898 H 0.24681 0.61718 0.40913 0.0
H1899 H 0.2722 0.63081 0.38717 0.0
H1900 H 0.2155 0.62425 0.45255 0.0
H1901 H 0.20366 0.63029 0.53069 0.0
C1902 C 0.07834 0.51243 0.24774 0.0
C1903 C 0.09848 0.52559 0.24225 0.0
C1904 C 0.11582 0.50379 0.33443 0.0
C1905 C 0.09606 0.49002 0.33794 0.0
N1906 N 0.06018 0.47823 0.29101 0.0
N1907 N 0.13753 0.5323 0.27287 0.0
C1908 C 0.07772 0.49354 0.29267 0.0
C1909 C 0.11761 0.52078 0.28342 0.0
N1910 N 0.05977 0.51823 0.21012 0.0
N1911 N 0.13255 0.50087 0.38127 0.0
H1912 H 0.13905 0.54532 0.23743 0.0
H1913 H 0.15283 0.52826 0.29641 0.0
H1914 H 0.13157 0.48833 0.41842 0.0
H1915 H 0.14653 0.51164 0.38627 0.0
H1916 H 0.04369 0.51104 0.2166 0.0
H1917 H 0.06018 0.53132 0.1746 0.0
H1918 H 0.0474 0.4784 0.25485 0.0
H1919 H 0.05934 0.46416 0.3229 0.0
C1920 C 0.11135 0.27565 0.41492 0.0
C1921 C 0.12616 0.26846 0.36237 0.0
C1922 C 0.12458 0.3066 0.31162 0.0
C1923 C 0.10881 0.31324 0.36178 0.0
N1924 N 0.08574 0.30473 0.45821 0.0
N1925 N 0.14617 0.27603 0.25893 0.0
C1926 C 0.10191 0.29794 0.41288 0.0
C1927 C 0.13266 0.28369 0.31021 0.0
N1928 N 0.10654 0.26118 0.46708 0.0
N1929 N 0.13178 0.32243 0.26582 0.0
H1930 H 0.15278 0.25954 0.25756 0.0
H1931 H 0.15007 0.28547 0.21617 0.0
H1932 H 0.12557 0.33908 0.26536 0.0
H1933 H 0.14462 0.31966 0.23067 0.0
H1934 H 0.09804 0.26604 0.51066 0.0
H1935 H 0.11206 0.24431 0.46875 0.0
H1936 H 0.07787 0.29393 0.49263 0.0
H1937 H 0.07926 0.32127 0.45936 0.0
C1938 C 0.95833 0.85902 0.66383 0.0
C1939 C 0.94565 0.86698 0.60823 0.0
C1940 C 0.97849 0.88905 0.56816 0.0
C1941 C 0.99115 0.8813 0.62443 0.0
N1942 N 0.99248 0.86213 0.73178 0.0
N1943 N 0.94152 0.8917 0.51317 0.0
C1944 C 0.98081 0.86731 0.6743 0.0
C1945 C 0.95512 0.88275 0.56219 0.0
N1946 N 0.9491 0.84269 0.70469 0.0
N1947 N 0.98904 0.90183 0.51974 0.0
H1948 H 0.92444 0.88702 0.50792 0.0
H1949 H 0.94648 0.90474 0.48086 0.0
H1950 H 0.00594 0.90721 0.52367 0.0
H1951 H 0.98156 0.9062 0.47417 0.0
H1952 H 0.95819 0.83411 0.74176 0.0
H1953 H 0.9325 0.83666 0.69875 0.0
H1954 H 0.98513 0.85407 0.77311 0.0
H1955 H 0.00924 0.86728 0.7404 0.0
C1956 C 0.39341 0.7156 0.79019 0.0
C1957 C 0.38442 0.69741 0.82924 0.0
C1958 C 0.36201 0.72518 0.89247 0.0
C1959 C 0.36817 0.74265 0.84603 0.0
N1960 N 0.38377 0.75098 0.73588 0.0
N1961 N 0.35363 0.68508 0.90182 0.0
C1962 C 0.3819 0.73674 0.78989 0.0
C1963 C 0.36669 0.70217 0.87573 0.0
N1964 N 0.41363 0.7134 0.75687 0.0
N1965 N 0.35308 0.73025 0.95402 0.0
H1966 H 0.35484 0.6683 0.88521 0.0
H1967 H 0.33964 0.68826 0.93288 0.0
H1968 H 0.3516 0.74682 0.97204 0.0
H1969 H 0.34995 0.71775 0.99022 0.0
H1970 H 0.42121 0.72696 0.73123 0.0
H1971 H 0.42422 0.69928 0.76276 0.0
H1972 H 0.39265 0.74641 0.69248 0.0
H1973 H 0.37426 0.76594 0.73162 0.0
C1974 C 0.52417 0.13325 0.15244 0.0
C1975 C 0.51544 0.11902 0.10082 0.0
C1976 C 0.55265 0.11923 0.04433 0.0
C1977 C 0.56062 0.13499 0.09254 0.0
N1978 N 0.55436 0.15871 0.18879 0.0
N1979 N 0.52042 0.09888 0.99652 0.0
C1980 C 0.54654 0.14228 0.14606 0.0
C1981 C 0.52948 0.11197 0.04654 0.0
N1982 N 0.51106 0.13805 0.20758 0.0
N1983 N 0.56748 0.11125 0.99687 0.0
H1984 H 0.50373 0.09275 0.99795 0.0
H1985 H 0.52894 0.09489 0.9522 0.0
H1986 H 0.58438 0.11677 0.99407 0.0
H1987 H 0.56369 0.0983 0.96311 0.0
H1988 H 0.5172 0.14618 0.25026 0.0
H1989 H 0.49422 0.13261 0.21292 0.0
H1990 H 0.54426 0.16685 0.22446 0.0
H1991 H 0.57083 0.16532 0.18579 0.0
C1992 C 0.12645 0.73664 0.17363 0.0
C1993 C 0.1091 0.75287 0.15997 0.0
C1994 C 0.08125 0.72176 0.14843 0.0
C1995 C 0.09877 0.70557 0.16048 0.0
N1996 N 0.13901 0.69755 0.16428 0.0
N1997 N 0.07094 0.76091 0.12214 0.0
C1998 C 0.12168 0.713 0.16664 0.0
C1999 C 0.08672 0.74543 0.14382 0.0
N2000 N 0.14728 0.74378 0.19611 0.0
N2001 N 0.05932 0.71432 0.14163 0.0
H2002 H 0.07437 0.77831 0.11837 0.0
H2003 H 0.05501 0.75647 0.10331 0.0
H2004 H 0.05522 0.69705 0.13865 0.0
H2005 H 0.04521 0.72506 0.14109 0.0
H2006 H 0.15972 0.7327 0.21417 0.0
H2007 H 0.15141 0.7609 0.20279 0.0
H2008 H 0.15617 0.70209 0.16225 0.0
H2009 H 0.13625 0.68029 0.15644 0.0
C2010 C 0.51553 0.86137 0.43304 0.0
C2011 C 0.50959 0.87863 0.47995 0.0
C2012 C 0.54794 0.87672 0.52886 0.0
C2013 C 0.55404 0.86042 0.47975 0.0
N2014 N 0.54554 0.83957 0.37929 0.0
N2015 N 0.52029 0.90466 0.56779 0.0
C2016 C 0.53835 0.85346 0.43009 0.0
C2017 C 0.52589 0.88692 0.52658 0.0
N2018 N 0.49915 0.85202 0.39279 0.0
N2019 N 0.56316 0.88186 0.57842 0.0
H2020 H 0.50412 0.91207 0.56809 0.0
H2021 H 0.5319 0.91293 0.59877 0.0
H2022 H 0.57943 0.87469 0.58012 0.0
H2023 H 0.55938 0.89208 0.61961 0.0
H2024 H 0.50175 0.83763 0.36329 0.0
H2025 H 0.48229 0.85756 0.39239 0.0
H2026 H 0.53583 0.83589 0.33698 0.0
H2027 H 0.56204 0.833 0.37684 0.0
C2028 C 0.40506 0.26269 0.67116 0.0
C2029 C 0.38176 0.25812 0.68611 0.0
C2030 C 0.37403 0.29914 0.68655 0.0
C2031 C 0.39776 0.30366 0.68412 0.0
N2032 N 0.43617 0.28999 0.67299 0.0
N2033 N 0.34454 0.27218 0.71707 0.0
C2034 C 0.41336 0.28543 0.67613 0.0
C2035 C 0.36634 0.27642 0.69608 0.0
N2036 N 0.41897 0.24555 0.64914 0.0
N2037 N 0.35876 0.31636 0.67765 0.0
H2038 H 0.33838 0.25577 0.72598 0.0
H2039 H 0.33333 0.28499 0.73187 0.0
H2040 H 0.36374 0.33295 0.66695 0.0
H2041 H 0.34126 0.31369 0.67306 0.0
H2042 H 0.43546 0.24824 0.63133 0.0
H2043 H 0.4134 0.22884 0.64268 0.0
H2044 H 0.44871 0.27747 0.67581 0.0
H2045 H 0.44253 0.30657 0.67012 0.0
C2046 C 0.96764 0.15555 0.88338 0.0
C2047 C 0.95203 0.15142 0.93618 0.0
C2048 C 0.98117 0.13034 0.99911 0.0
C2049 C 0.99672 0.13399 0.94536 0.0
N2050 N 0.00456 0.14775 0.83318 0.0
N2051 N 0.94217 0.13348 0.04053 0.0
C2052 C 0.98985 0.14588 0.88639 0.0
C2053 C 0.95832 0.13833 0.99301 0.0
N2054 N 0.96132 0.16955 0.83172 0.0
N2055 N 0.9885 0.1197 0.0563 0.0
H2056 H 0.92552 0.13965 0.03742 0.0
H2057 H 0.94466 0.12241 0.08072 0.0
H2058 H 0.00493 0.11311 0.06136 0.0
H2059 H 0.97884 0.11826 0.09996 0.0
H2060 H 0.97243 0.17549 0.79484 0.0
H2061 H 0.94496 0.17639 0.82781 0.0
H2062 H 0.9999 0.15392 0.78615 0.0
H2063 H 0.02135 0.14195 0.83451 0.0
C2064 C 0.87859 0.71021 0.71192 0.0
C2065 C 0.89872 0.70464 0.67611 0.0
C2066 C 0.90108 0.74368 0.63269 0.0
C2067 C 0.88262 0.74981 0.67529 0.0
N2068 N 0.85492 0.73992 0.75999 0.0
N2069 N 0.92885 0.71498 0.60019 0.0
C2070 C 0.87163 0.73333 0.71612 0.0
C2071 C 0.90984 0.72112 0.63563 0.0
N2072 N 0.86579 0.6933 0.74011 0.0
N2073 N 0.9098 0.7593 0.58841 0.0
H2074 H 0.93429 0.69811 0.59653 0.0
H2075 H 0.93958 0.72648 0.57592 0.0
H2076 H 0.9042 0.77615 0.58604 0.0
H2077 H 0.92166 0.75542 0.55123 0.0
H2078 H 0.84994 0.69593 0.7624 0.0
H2079 H 0.86983 0.67617 0.73453 0.0
H2080 H 0.84797 0.72921 0.79642 0.0
H2081 H 0.84917 0.75669 0.76354 0.0
C2082 C 0.02901 0.12714 0.49507 0.0
C2083 C 0.01464 0.13339 0.44075 0.0
C2084 C 0.04437 0.15862 0.39562 0.0
C2085 C 0.05882 0.15198 0.44887 0.0
N2086 N 0.06678 0.12899 0.54559 0.0
N2087 N 0.00878 0.15324 0.33576 0.0
C2088 C 0.05166 0.13589 0.49754 0.0
C2089 C 0.0224 0.14859 0.38982 0.0
N2090 N 0.02076 0.11322 0.54466 0.0
N2091 N 0.0516 0.17515 0.352 0.0
H2092 H 0.99212 0.14724 0.33136 0.0
H2093 H 0.01418 0.16211 0.29336 0.0
H2094 H 0.06793 0.18217 0.35408 0.0
H2095 H 0.0413 0.18279 0.31597 0.0
H2096 H 0.02944 0.10949 0.58881 0.0
H2097 H 0.0045 0.10604 0.54312 0.0
H2098 H 0.06372 0.11593 0.5798 0.0
H2099 H 0.08321 0.13572 0.549 0.0
C2100 C 0.63538 0.2712 0.16117 0.0
C2101 C 0.6289 0.25375 0.20732 0.0
C2102 C 0.60356 0.28112 0.26162 0.0
C2103 C 0.61326 0.29929 0.22401 0.0
N2104 N 0.64501 0.31101 0.15393 0.0
N2105 N 0.61245 0.24572 0.31673 0.0
C2106 C 0.63118 0.29425 0.17834 0.0
C2107 C 0.61475 0.25979 0.26251 0.0
N2108 N 0.64429 0.26609 0.09965 0.0
N2109 N 0.58309 0.28359 0.29344 0.0
H2110 H 0.62199 0.23084 0.32227 0.0
H2111 H 0.60321 0.25043 0.35936 0.0
H2112 H 0.57286 0.29794 0.2871 0.0
H2113 H 0.57507 0.27009 0.31813 0.0
H2114 H 0.64779 0.27863 0.06385 0.0
H2115 H 0.64529 0.24952 0.08126 0.0
H2116 H 0.65904 0.30749 0.12331 0.0
H2117 H 0.64445 0.32768 0.17177 0.0
C2118 C 0.45726 0.84425 0.92206 0.0
C2119 C 0.4428 0.85361 0.97156 0.0
C2120 C 0.47281 0.87979 1.0078 0.0
C2121 C 0.48785 0.86941 0.96093 0.0
N2122 N 0.49568 0.84028 0.87843 0.0
N2123 N 0.43549 0.87772 0.0636 0.0
C2124 C 0.48042 0.85123 0.91923 0.0
C2125 C 0.45034 0.87085 1.01502 0.0
N2126 N 0.44853 0.829 0.87718 0.0
N2127 N 0.47998 0.89822 0.04391 0.0
H2128 H 0.4392 0.88946 0.10123 0.0
H2129 H 0.4392 0.88946 0.10123 0.0
H2130 H 0.49652 0.90468 0.0404 0.0
H2131 H 0.46944 0.90797 0.07452 0.0
H2132 H 0.45734 0.8231 0.83526 0.0
H2133 H 0.43167 0.82337 0.87941 0.0
H2134 H 0.49196 0.82546 0.85207 0.0
H2135 H 0.51274 0.8451 0.87407 0.0
C2136 C 0.88234 0.30437 0.78667 0.0
C2137 C 0.89572 0.31146 0.84191 0.0
C2138 C 0.89153 0.27391 0.89457 0.0
C2139 C 0.8796 0.26617 0.83674 0.0
N2140 N 0.86441 0.27315 0.72627 0.0
N2141 N 0.91451 0.30359 0.94616 0.0
C2142 C 0.87513 0.28121 0.78235 0.0
C2143 C 0.90055 0.29641 0.89553 0.0
N2144 N 0.87647 0.32005 0.73896 0.0
N2145 N 0.89409 0.25974 0.9487 0.0
H2146 H 0.92069 0.32023 0.94894 0.0
H2147 H 0.92097 0.293 0.98347 0.0
H2148 H 0.88879 0.24279 0.94887 0.0
H2149 H 0.90032 0.26496 0.99506 0.0
H2150 H 0.86537 0.31686 0.69939 0.0
H2151 H 0.88171 0.337 0.74165 0.0
H2152 H 0.86244 0.28245 0.68215 0.0
H2153 H 0.85834 0.25649 0.72258 0.0
C2154 C 0.48904 0.14191 0.64738 0.0
C2155 C 0.49573 0.127 0.59464 0.0
C2156 C 0.45769 0.13029 0.54417 0.0
C2157 C 0.45166 0.14634 0.59418 0.0
N2158 N 0.46138 0.16935 0.68916 0.0
N2159 N 0.48758 0.10822 0.48994 0.0
C2160 C 0.46728 0.1526 0.64482 0.0
C2161 C 0.48033 0.12147 0.54219 0.0
N2162 N 0.50339 0.14556 0.70038 0.0
N2163 N 0.44147 0.12331 0.49951 0.0
H2164 H 0.50384 0.10102 0.48807 0.0
H2165 H 0.47809 0.10533 0.4467 0.0
H2166 H 0.42492 0.12983 0.49969 0.0
H2167 H 0.44381 0.11015 0.46525 0.0
H2168 H 0.49871 0.15421 0.74382 0.0
H2169 H 0.51974 0.13867 0.70309 0.0
H2170 H 0.47263 0.17668 0.72316 0.0
H2171 H 0.44532 0.17701 0.68907 0.0
C2172 C 0.61505 0.73674 0.27101 0.0
C2173 C 0.62807 0.74334 0.32784 0.0
C2174 C 0.63215 0.70308 0.35732 0.0
C2175 C 0.61559 0.69717 0.30871 0.0
N2176 N 0.58654 0.71036 0.23208 0.0
N2177 N 0.6432 0.73196 0.43643 0.0
C2178 C 0.60559 0.7146 0.2692 0.0
C2179 C 0.63501 0.7263 0.37453 0.0
N2180 N 0.61229 0.75118 0.2178 0.0
N2181 N 0.64602 0.68689 0.38439 0.0
H2182 H 0.64361 0.74864 0.45418 0.0
H2183 H 0.64685 0.71972 0.47292 0.0
H2184 H 0.64601 0.67006 0.36779 0.0
H2185 H 0.6594 0.69092 0.41672 0.0
H2186 H 0.60418 0.74623 0.17358 0.0
H2187 H 0.62042 0.76696 0.21484 0.0
H2188 H 0.57788 0.72314 0.20612 0.0
H2189 H 0.57788 0.69485 0.23432 0.0
C2190 C 0.04228 0.87541 0.03359 0.0
C2191 C 0.0521 0.86472 0.09022 0.0
C2192 C 0.01418 0.8541 0.1312 0.0
C2193 C 0.00439 0.86845 0.08169 0.0
N2194 N 0.00835 0.89184 0.98286 0.0
N2195 N 0.04815 0.84385 0.19359 0.0
C2196 C 0.0182 0.87849 0.03103 0.0
C2197 C 0.03826 0.85355 0.13845 0.0
N2198 N 0.05628 0.88292 0.98332 0.0
N2199 N 1.00033 0.84126 0.17158 0.0
H2200 H 0.06577 0.84287 0.19972 0.0
H2201 H 0.03902 0.83789 0.23491 0.0
H2202 H 0.98259 0.84147 0.16736 0.0
H2203 H 0.00635 0.82897 0.20486 0.0
H2204 H 0.05049 0.88955 0.93794 0.0
H2205 H 0.07395 0.88079 0.9854 0.0
H2206 H 0.01752 0.90157 0.94841 0.0
H2207 H 0.99073 0.8938 0.97883 0.0
C2208 C 0.62138 0.79319 0.81876 0.0
C2209 C 0.60207 0.79921 0.85773 0.0
C2210 C 0.59672 0.75922 0.8897 0.0
C2211 C 0.61715 0.75332 0.85527 0.0
N2212 N 0.65122 0.76549 0.79711 0.0
N2213 N 0.57438 0.7892 0.94158 0.0
C2214 C 0.63017 0.77056 0.82258 0.0
C2215 C 0.59071 0.78254 0.89675 0.0
N2216 N 0.63072 0.8089 0.7762 0.0
N2217 N 0.5825 0.74252 0.91309 0.0
H2218 H 0.57001 0.80628 0.94849 0.0
H2219 H 0.56691 0.77819 0.97632 0.0
H2220 H 0.58582 0.7252 0.90684 0.0
H2221 H 0.56636 0.7458 0.93269 0.0
H2222 H 0.64333 0.80501 0.74113 0.0
H2223 H 0.62458 0.82553 0.77254 0.0
H2224 H 0.66243 0.77779 0.77871 0.0
H2225 H 0.65829 0.74922 0.79954 0.0
C2226 C 0.46502 0.34414 0.15964 0.0
C2227 C 0.45206 0.35037 0.10267 0.0
C2228 C 0.48441 0.3719 0.05688 0.0
C2229 C 0.49718 0.36639 0.11529 0.0
N2230 N 0.49939 0.34931 0.22555 0.0
N2231 N 0.44756 0.37152 1.00054 0.0
C2232 C 0.48737 0.35311 0.16775 0.0
C2233 C 0.46126 0.36468 0.05221 0.0
N2234 N 0.45602 0.32901 0.2048 0.0
N2235 N 0.49462 0.38368 1.00566 0.0
H2236 H 0.43071 0.36601 0.99587 0.0
H2237 H 0.45223 0.38354 0.96459 0.0
H2238 H 0.51129 0.38983 1.00854 0.0
H2239 H 0.48716 0.38645 0.95901 0.0
H2240 H 0.46517 0.3217 0.24401 0.0
H2241 H 0.43947 0.32265 0.2008 0.0
H2242 H 0.49242 0.34206 0.26867 0.0
H2243 H 0.51622 0.35457 0.23216 0.0
C2244 C 0.86947 0.22627 0.3007 0.0
C2245 C 0.87524 0.24077 0.35509 0.0
C2246 C 0.89797 0.21014 0.40587 0.0
C2247 C 0.89437 0.19679 0.34801 0.0
N2248 N 0.87777 0.1914 0.23927 0.0
N2249 N 0.89686 0.2475 0.45655 0.0
C2250 C 0.88026 0.2046 0.2952 0.0
C2251 C 0.88978 0.23288 0.40743 0.0
N2252 N 0.85343 0.23313 0.25525 0.0
N2253 N 0.90934 0.20094 0.45926 0.0
H2254 H 0.89128 0.26427 0.46014 0.0
H2255 H 0.90955 0.24361 0.49119 0.0
H2256 H 0.91623 0.18456 0.45832 0.0
H2257 H 0.91043 0.20872 0.50609 0.0
H2258 H 0.84698 0.22271 0.21758 0.0
H2259 H 0.84525 0.24888 0.25828 0.0
H2260 H 0.86963 0.19678 0.19563 0.0
H2261 H 0.88495 0.17519 0.23549 0.0
C2262 C 0.03043 0.63031 0.53224 0.0
C2263 C 0.01534 0.63631 0.58523 0.0
C2264 C 0.04549 0.65887 0.63864 0.0
C2265 C 0.06 0.65414 0.58361 0.0
N2266 N 0.06668 0.63732 0.47575 0.0
N2267 N 0.00725 0.65821 0.68508 0.0
C2268 C 0.05258 0.64033 0.52974 0.0
C2269 C 0.02256 0.65108 0.63757 0.0
N2270 N 0.02365 0.61478 0.48527 0.0
N2271 N 0.05397 0.6705 0.69252 0.0
H2272 H 0.99042 0.65253 0.68713 0.0
H2273 H 0.01067 0.67092 0.72 0.0
H2274 H 0.07055 0.67693 0.69371 0.0
H2275 H 0.0453 0.67239 0.73784 0.0
H2276 H 0.03438 0.60804 0.44869 0.0
H2277 H 0.0074 0.60752 0.48528 0.0
H2278 H 0.06185 0.62925 0.43153 0.0
H2279 H 0.08311 0.64416 0.47389 0.0
C2280 C 0.60747 0.20554 0.64374 0.0
C2281 C 0.61298 0.19051 0.6967 0.0
C2282 C 0.6373 0.21954 0.74835 0.0
C2283 C 0.63005 0.23531 0.69863 0.0
N2284 N 0.60657 0.24436 0.60261 0.0
N2285 N 0.63183 0.1824 0.80076 0.0
C2286 C 0.61479 0.22855 0.64693 0.0
C2287 C 0.62768 0.19726 0.7493 0.0
N2288 N 0.59531 0.19759 0.59022 0.0
N2289 N 0.65357 0.22585 0.79373 0.0
H2290 H 0.62545 0.1658 0.80103 0.0
H2291 H 0.64058 0.18668 0.84436 0.0
H2292 H 0.66062 0.24216 0.79473 0.0
H2293 H 0.66113 0.21469 0.82767 0.0
H2294 H 0.59271 0.20681 0.54619 0.0
H2295 H 0.58918 0.18093 0.58778 0.0
H2296 H 0.59351 0.24114 0.5686 0.0
H2297 H 0.61164 0.26137 0.60272 0.0
C2298 C 0.02481 0.39091 0.99923 0.0
C2299 C 0.01082 0.38472 0.94398 0.0
C2300 C 0.04165 0.36095 0.89819 0.0
C2301 C 0.05555 0.36709 0.95325 0.0
N2302 N 0.06217 0.38892 0.05274 0.0
N2303 N 0.00639 0.36622 0.8365 0.0
C2304 C 0.04764 0.38253 1.00262 0.0
C2305 C 0.01946 0.37054 0.8919 0.0
N2306 N 0.016 0.40439 0.04886 0.0
N2307 N 0.04947 0.34503 0.85375 0.0
H2308 H 0.98958 0.37172 0.83161 0.0
H2309 H 0.01243 0.35823 0.79342 0.0
H2310 H 0.06586 0.33822 0.85646 0.0
H2311 H 0.03957 0.3376 0.81645 0.0
H2312 H 0.02437 0.40823 0.09339 0.0
H2313 H 0.99965 0.41137 0.04648 0.0
H2314 H 0.05855 0.40128 0.08854 0.0
H2315 H 0.07868 0.38242 0.05658 0.0
C2316 C 0.87544 0.79565 0.13246 0.0
C2317 C 0.89202 0.80216 0.18047 0.0
C2318 C 0.89387 0.76253 0.21817 0.0
C2319 C 0.88032 0.75546 0.16281 0.0
N2320 N 0.86506 0.76625 0.05401 0.0
N2321 N 0.92266 0.78937 0.25232 0.0
C2322 C 0.87319 0.77228 0.11563 0.0
C2323 C 0.90306 0.78484 0.21817 0.0
N2324 N 0.86075 0.81125 0.10621 0.0
N2325 N 0.89701 0.74871 0.27259 0.0
H2326 H 0.93112 0.80494 0.24821 0.0
H2327 H 0.93186 0.7767 0.27716 0.0
H2328 H 0.8886 0.73319 0.27844 0.0
H2329 H 0.90564 0.75414 0.31545 0.0
H2330 H 0.84745 0.80664 0.07427 0.0
H2331 H 0.85988 0.82792 0.12376 0.0
H2332 H 0.86106 0.77831 1.01729 0.0
H2333 H 0.8651 0.74948 0.03692 0.0
C2334 C 0.46681 0.65942 0.37833 0.0
C2335 C 0.45371 0.6498 0.43097 0.0
C2336 C 0.48568 0.62489 0.46157 0.0
C2337 C 0.49946 0.63593 0.41249 0.0
N2338 N 0.50424 0.66546 0.32921 0.0
N2339 N 0.45047 0.62517 0.52666 0.0
C2340 C 0.49029 0.65364 0.372 0.0
C2341 C 0.46308 0.63293 0.47357 0.0
N2342 N 0.45653 0.67386 0.3338 0.0
N2343 N 0.49404 0.60643 0.49542 0.0
H2344 H 0.43372 0.63047 0.53521 0.0
H2345 H 0.45689 0.61464 0.56422 0.0
H2346 H 0.51059 0.60034 0.48857 0.0
H2347 H 0.48421 0.5962 0.52693 0.0
H2348 H 0.46427 0.67973 0.28998 0.0
H2349 H 0.43943 0.67853 0.338 0.0
H2350 H 0.49925 0.68006 0.30343 0.0
H2351 H 0.52151 0.66172 0.32311 0.0
C2352 C 0.41467 0.21458 0.16592 0.0
C2353 C 0.4014 0.1966 0.19319 0.0
C2354 C 0.37123 0.22381 0.22335 0.0
C2355 C 0.38428 0.24175 0.19513 0.0
N2356 N 0.41633 0.25386 0.12769 0.0
N2357 N 0.36503 0.18331 0.23311 0.0
C2358 C 0.40549 0.23706 0.16317 0.0
C2359 C 0.37903 0.20099 0.2171 0.0
N2360 N 0.43603 0.20999 0.14199 0.0
N2361 N 0.35191 0.22867 0.25916 0.0
H2362 H 0.37065 0.16655 0.2348 0.0
H2363 H 0.34753 0.18517 0.24045 0.0
H2364 H 0.34571 0.24519 0.26531 0.0
H2365 H 0.34309 0.2166 0.28752 0.0
H2366 H 0.44789 0.22248 0.12942 0.0
H2367 H 0.44222 0.19343 0.13674 0.0
H2368 H 0.4306 0.25115 0.09764 0.0
H2369 H 0.41005 0.27042 0.12394 0.0
C2370 C 0.51877 0.63385 0.98933 0.0
C2371 C 0.5051 0.64005 0.9335 0.0
C2372 C 0.5386 0.65479 0.87407 0.0
C2373 C 0.55242 0.64702 0.92749 0.0
N2374 N 0.55635 0.63465 0.04134 0.0
N2375 N 0.50042 0.66198 0.83207 0.0
C2376 C 0.54255 0.6386 0.9874 0.0
C2377 C 0.51454 0.65254 0.87905 0.0
N2378 N 0.50917 0.62242 0.04219 0.0
N2379 N 0.54871 0.66277 0.81683 0.0
H2380 H 0.48271 0.66045 0.83448 0.0
H2381 H 0.50601 0.67287 0.79414 0.0
H2382 H 0.5663 0.6651 0.81292 0.0
H2383 H 0.53994 0.66615 0.77254 0.0
H2384 H 0.51845 0.61539 0.08158 0.0
H2385 H 0.4917 0.61923 0.04554 0.0
H2386 H 0.55046 0.62981 0.0886 0.0
H2387 H 0.57383 0.63801 0.03961 0.0
C2388 C 0.09584 0.78719 0.68562 0.0
C2389 C 0.10736 0.80434 0.72202 0.0
C2390 C 0.13727 0.77711 0.75346 0.0
C2391 C 0.12616 0.76012 0.71509 0.0
N2392 N 0.09717 0.74978 0.6347 0.0
N2393 N 0.14146 0.81732 0.77727 0.0
C2394 C 0.10603 0.76537 0.67842 0.0
C2395 C 0.12885 0.79982 0.75189 0.0
N2396 N 0.07509 0.79192 0.65777 0.0
N2397 N 0.1554 0.77136 0.79309 0.0
H2398 H 0.13614 0.83418 0.77497 0.0
H2399 H 0.15814 0.81552 0.79425 0.0
H2400 H 0.16208 0.7549 0.79508 0.0
H2401 H 0.16266 0.78235 0.828 0.0
H2402 H 0.06427 0.77958 0.63811 0.0
H2403 H 0.06819 0.80829 0.65684 0.0
H2404 H 0.08406 0.75332 0.60114 0.0
H2405 H 0.10407 0.73361 0.62809 0.0
C2406 C 0.9679 0.35152 0.40527 0.0
C2407 C 0.95048 0.3596 0.44823 0.0
C2408 C 0.97641 0.38885 0.49215 0.0
C2409 C 0.99447 0.37878 0.45525 0.0
N2410 N 0.00826 0.34924 0.38123 0.0
N2411 N 0.93743 0.38598 0.53229 0.0
C2412 C 0.99045 0.35975 0.413 0.0
C2413 C 0.95447 0.37844 0.49125 0.0
N2414 N 0.9625 0.33669 0.35494 0.0
N2415 N 0.98023 0.40852 0.52707 0.0
H2416 H 0.92084 0.37991 0.529 0.0
H2417 H 0.93975 0.39767 0.57087 0.0
H2418 H 0.99629 0.41609 0.53045 0.0
H2419 H 0.9674 0.41813 0.54943 0.0
H2420 H 0.9739 0.33176 0.31753 0.0
H2421 H 0.94585 0.33119 0.34635 0.0
H2422 H 0.00675 0.33376 0.35617 0.0
H2423 H 0.02502 0.35503 0.38407 0.0
C2424 C 0.40474 0.79331 0.42017 0.0
C2425 C 0.39802 0.80885 0.36975 0.0
C2426 C 0.37385 0.77975 0.31784 0.0
C2427 C 0.38211 0.76363 0.36515 0.0
N2428 N 0.40751 0.75401 0.45629 0.0
N2429 N 0.37804 0.81741 0.26781 0.0
C2430 C 0.39809 0.77014 0.41518 0.0
C2431 C 0.38297 0.80224 0.31785 0.0
N2432 N 0.41726 0.80097 0.47334 0.0
N2433 N 0.35705 0.7736 0.27395 0.0
H2434 H 0.38426 0.83407 0.26784 0.0
H2435 H 0.36894 0.81328 0.22469 0.0
H2436 H 0.35039 0.75713 0.272 0.0
H2437 H 0.34872 0.78501 0.24236 0.0
H2438 H 0.42075 0.79124 0.51584 0.0
H2439 H 0.42267 0.81785 0.47736 0.0
H2440 H 0.421 0.75722 0.48881 0.0
H2441 H 0.40307 0.73683 0.45447 0.0
C2442 C 0.97735 0.60916 0.04486 0.0
C2443 C 0.9909 0.62033 0.09377 0.0
C2444 C 0.95754 0.64179 0.13303 0.0
C2445 C 0.9445 0.63211 0.0805 0.0
N2446 N 0.94111 0.60734 0.98547 0.0
N2447 N 0.99479 0.64788 0.18285 0.0
C2448 C 0.95417 0.61586 0.03635 0.0
C2449 C 0.98118 0.63668 0.13788 0.0
N2450 N 0.98668 0.59205 1.00725 0.0
N2451 N 0.94719 0.65592 0.17818 0.0
H2452 H 0.01197 0.64401 0.18996 0.0
H2453 H 0.98956 0.66185 0.21097 0.0
H2454 H 0.93023 0.66084 0.17394 0.0
H2455 H 0.95479 0.6617 0.22211 0.0
H2456 H 0.97743 0.58181 0.97461 0.0
H2457 H 0.00373 0.58716 1.01146 0.0
H2458 H 0.94735 0.59718 0.94685 0.0
H2459 H 0.92382 0.61125 0.98054 0.0
C2460 C 0.10695 0.24205 0.89415 0.0
C2461 C 0.12973 0.24652 0.87339 0.0
C2462 C 0.13327 0.20709 0.83434 0.0
C2463 C 0.11164 0.20213 0.86254 0.0
N2464 N 0.07945 0.21358 0.92915 0.0
N2465 N 0.16574 0.23269 0.83119 0.0
C2466 C 0.09891 0.21928 0.89522 0.0
C2467 C 0.14326 0.22887 0.8453 0.0
N2468 N 0.09276 0.25966 0.91073 0.0
N2469 N 0.1438 0.19118 0.79516 0.0
H2470 H 0.17358 0.24844 0.83859 0.0
H2471 H 0.17701 0.21985 0.81703 0.0
H2472 H 0.13649 0.17533 0.7855 0.0
H2473 H 0.1586 0.19439 0.76775 0.0
H2474 H 0.07539 0.25756 0.91992 0.0
H2475 H 0.09777 0.2767 0.90875 0.0
H2476 H 0.07058 0.22491 0.95976 0.0
H2477 H 0.07339 0.19689 0.93177 0.0
C2478 C 0.53095 0.37929 0.56971 0.0
C2479 C 0.51533 0.37146 0.61924 0.0
C2480 C 0.54462 0.34623 0.66632 0.0
C2481 C 0.55953 0.35268 0.61372 0.0
N2482 N 0.56741 0.37378 0.51311 0.0
N2483 N 0.50628 0.34664 0.71244 0.0
C2484 C 0.55288 0.36893 0.56496 0.0
C2485 C 0.52193 0.35477 0.66725 0.0
N2486 N 0.52481 0.39674 0.52791 0.0
N2487 N 0.55246 0.33212 0.71582 0.0
H2488 H 0.48974 0.35303 0.71647 0.0
H2489 H 0.50912 0.33272 0.74372 0.0
H2490 H 0.56886 0.32523 0.71518 0.0
H2491 H 0.54352 0.32846 0.75972 0.0
H2492 H 0.53594 0.40471 0.49458 0.0
H2493 H 0.50871 0.40428 0.52935 0.0
H2494 H 0.56314 0.38383 0.47193 0.0
H2495 H 0.58366 0.36661 0.50959 0.0
loop_
_geom_bond_atom_site_label_1
_geom_bond_atom_site_label_2
_geom_bond_distance
_geom_bond_site_symmetry_2
_ccdc_geom_bond_type
C0 C1 1.351 . S
C0 N3 1.368 . S
C0 H5 0.931 . S
C1 C0 1.351 . S
C1 N2 1.373 . S
C1 H29 0.930 . S
N2 C1 1.373 . S
N2 C4 1.340 . S
N3 C0 1.368 . S
N3 C4 1.321 . S
N3 Co6 2.135 . S
C4 N2 1.340 . S
C4 N3 1.321 . S
C4 H28 0.930 . S
H5 C0 0.931 . S
Co6 N3 2.135 . S
Co6 N9 2.121 . S
Co6 O14 2.055 . S
Co6 O17 2.039 . S
Co6 N20 2.140 . S
C7 O8 1.227 . S
C7 O17 1.265 . S
O8 C7 1.227 . S
N9 Co6 2.121 . S
N9 C11 1.375 . S
N9 C12 1.313 . S
C10 C11 1.338 . S
C10 N13 1.377 . S
C10 H30 0.930 . S
C11 N9 1.375 . S
C11 C10 1.338 . S
C11 H15 0.931 . S
C12 N9 1.313 . S
C12 N13 1.344 . S
C12 H16 0.930 . S
N13 C10 1.377 . S
N13 C12 1.344 . S
O14 Co6 2.055 . S
O14 C18 1.253 . S
H15 C11 0.931 . S
H16 C12 0.930 . S
O17 Co6 2.039 . S
O17 C7 1.265 . S
C18 O14 1.253 . S
C18 O19 1.227 . S
O19 C18 1.227 . S
N20 Co6 2.140 . S
N20 C23 1.346 . S
N20 C24 1.345 . S
C21 C22 1.387 . S
C21 C25 1.391 . S
C22 C21 1.387 . S
C22 C23 1.369 . S
C22 H31 0.929 . S
C23 N20 1.346 . S
C23 C22 1.369 . S
C23 H26 0.928 . S
C24 N20 1.345 . S
C24 C25 1.371 . S
C24 H27 0.931 . S
C25 C21 1.391 . S
C25 C24 1.371 . S
C25 H32 0.930 . S
H26 C23 0.928 . S
H27 C24 0.931 . S
H28 C4 0.930 . S
H29 C1 0.930 . S
H30 C10 0.930 . S
H31 C22 0.929 . S
H32 C25 0.930 . S
C33 C34 1.351 . S
C33 N36 1.368 . S
C33 H38 0.931 . S
C34 C33 1.351 . S
C34 N35 1.373 . S
C34 H62 0.930 . S
N35 C34 1.373 . S
N35 C37 1.340 . S
N36 C33 1.368 . S
N36 C37 1.321 . S
N36 Co39 2.135 . S
C37 N35 1.340 . S
C37 N36 1.321 . S
C37 H61 0.930 . S
H38 C33 0.931 . S
Co39 N36 2.135 . S
Co39 N42 2.121 . S
Co39 O47 2.055 . S
Co39 O50 2.039 . S
Co39 N53 2.140 . S
C40 O41 1.227 . S
C40 O50 1.265 . S
O41 C40 1.227 . S
N42 Co39 2.121 . S
N42 C44 1.375 . S
N42 C45 1.313 . S
C43 C44 1.338 . S
C43 N46 1.377 . S
C43 H63 0.930 . S
C44 N42 1.375 . S
C44 C43 1.338 . S
C44 H48 0.931 . S
C45 N42 1.313 . S
C45 N46 1.344 . S
C45 H49 0.930 . S
N46 C43 1.377 . S
N46 C45 1.344 . S
O47 Co39 2.055 . S
O47 C51 1.253 . S
H48 C44 0.931 . S
H49 C45 0.930 . S
O50 Co39 2.039 . S
O50 C40 1.265 . S
C51 O47 1.253 . S
C51 O52 1.227 . S
O52 C51 1.227 . S
N53 Co39 2.140 . S
N53 C56 1.346 . S
N53 C57 1.345 . S
C54 C55 1.387 . S
C54 C58 1.391 . S
C55 C54 1.387 . S
C55 C56 1.369 . S
C55 H64 0.929 . S
C56 N53 1.346 . S
C56 C55 1.369 . S
C56 H59 0.928 . S
C57 N53 1.345 . S
C57 C58 1.371 . S
C57 H60 0.931 . S
C58 C54 1.391 . S
C58 C57 1.371 . S
C58 H65 0.930 . S
H59 C56 0.928 . S
H60 C57 0.931 . S
H61 C37 0.930 . S
H62 C34 0.930 . S
H63 C43 0.930 . S
H64 C55 0.929 . S
H65 C58 0.930 . S
C66 C67 1.351 . S
C66 N69 1.368 . S
C66 H71 0.931 . S
C67 C66 1.351 . S
C67 N68 1.373 . S
C67 H95 0.930 . S
N68 C67 1.373 . S
N68 C70 1.340 . S
N69 C66 1.368 . S
N69 C70 1.321 . S
N69 Co72 2.135 . S
C70 N68 1.340 . S
C70 N69 1.321 . S
C70 H94 0.930 . S
H71 C66 0.931 . S
Co72 N69 2.135 . S
Co72 N75 2.121 . S
Co72 O80 2.055 . S
Co72 O83 2.039 . S
Co72 N86 2.140 . S
C73 O74 1.227 . S
C73 O83 1.265 . S
O74 C73 1.227 . S
N75 Co72 2.121 . S
N75 C77 1.375 . S
N75 C78 1.313 . S
C76 C77 1.338 . S
C76 N79 1.377 . S
C76 H96 0.930 . S
C77 N75 1.375 . S
C77 C76 1.338 . S
C77 H81 0.931 . S
C78 N75 1.313 . S
C78 N79 1.344 . S
C78 H82 0.930 . S
N79 C76 1.377 . S
N79 C78 1.344 . S
O80 Co72 2.055 . S
O80 C84 1.253 1_556 S
H81 C77 0.931 . S
H82 C78 0.930 . S
O83 Co72 2.039 . S
O83 C73 1.265 . S
C84 O80 1.253 1_554 S
C84 O85 1.227 . S
O85 C84 1.227 . S
N86 Co72 2.140 . S
N86 C89 1.346 . S
N86 C90 1.345 . S
C87 C88 1.387 . S
C87 C91 1.391 . S
C88 C87 1.387 . S
C88 C89 1.369 . S
C88 H97 0.929 . S
C89 N86 1.346 . S
C89 C88 1.369 . S
C89 H92 0.928 . S
C90 N86 1.345 . S
C90 C91 1.371 . S
C90 H93 0.931 . S
C91 C87 1.391 . S
C91 C90 1.371 . S
C91 H98 0.930 . S
H92 C89 0.928 . S
H93 C90 0.931 . S
H94 C70 0.930 . S
H95 C67 0.930 . S
H96 C76 0.930 . S
H97 C88 0.929 . S
H98 C91 0.930 . S
C99 C100 1.351 . S
C99 N102 1.368 . S
C99 H104 0.931 . S
C100 C99 1.351 . S
C100 N101 1.373 . S
C100 H128 0.930 . S
N101 C100 1.373 . S
N101 C103 1.340 . S
N102 C99 1.368 . S
N102 C103 1.321 . S
N102 Co105 2.135 . S
C103 N101 1.340 . S
C103 N102 1.321 . S
C103 H127 0.930 . S
H104 C99 0.931 . S
Co105 N102 2.135 . S
Co105 N108 2.121 . S
Co105 O113 2.055 . S
Co105 O116 2.039 . S
Co105 N119 2.140 . S
C106 O107 1.227 . S
C106 O116 1.265 . S
O107 C106 1.227 . S
N108 Co105 2.121 . S
N108 C110 1.375 . S
N108 C111 1.313 . S
C109 C110 1.338 . S
C109 N112 1.377 . S
C109 H129 0.930 . S
C110 N108 1.375 . S
C110 C109 1.338 . S
C110 H114 0.931 . S
C111 N108 1.313 . S
C111 N112 1.344 . S
C111 H115 0.930 . S
N112 C109 1.377 . S
N112 C111 1.344 . S
O113 Co105 2.055 . S
O113 C117 1.253 . S
H114 C110 0.931 . S
H115 C111 0.930 . S
O116 Co105 2.039 . S
O116 C106 1.265 . S
C117 O113 1.253 . S
C117 O118 1.227 . S
O118 C117 1.227 . S
N119 Co105 2.140 . S
N119 C122 1.346 . S
N119 C123 1.345 . S
C120 C121 1.387 . S
C120 C124 1.391 . S
C121 C120 1.387 . S
C121 C122 1.369 . S
C121 H130 0.929 . S
C122 N119 1.346 . S
C122 C121 1.369 . S
C122 H125 0.928 . S
C123 N119 1.345 . S
C123 C124 1.371 . S
C123 H126 0.931 . S
C124 C120 1.391 . S
C124 C123 1.371 . S
C124 H131 0.930 . S
H125 C122 0.928 . S
H126 C123 0.931 . S
H127 C103 0.930 . S
H128 C100 0.930 . S
H129 C109 0.930 . S
H130 C121 0.929 . S
H131 C124 0.930 . S
C132 C133 1.351 . S
C132 N135 1.368 . S
C132 H137 0.931 . S
C133 C132 1.351 . S
C133 N134 1.373 . S
C133 H161 0.930 . S
N134 C133 1.373 . S
N134 C136 1.340 . S
N135 C132 1.368 . S
N135 C136 1.321 . S
N135 Co138 2.135 . S
C136 N134 1.340 . S
C136 N135 1.321 . S
C136 H160 0.930 . S
H137 C132 0.931 . S
Co138 N135 2.135 . S
Co138 N141 2.121 . S
Co138 O146 2.055 . S
Co138 O149 2.039 . S
Co138 N152 2.140 . S
C139 O140 1.227 . S
C139 O149 1.265 . S
O140 C139 1.227 . S
N141 Co138 2.121 . S
N141 C143 1.375 . S
N141 C144 1.313 . S
C142 C143 1.338 . S
C142 N145 1.377 . S
C142 H162 0.930 . S
C143 N141 1.375 . S
C143 C142 1.338 . S
C143 H147 0.931 . S
C144 N141 1.313 . S
C144 N145 1.344 . S
C144 H148 0.930 . S
N145 C142 1.377 . S
N145 C144 1.344 . S
O146 Co138 2.055 . S
O146 C150 1.253 1_554 S
H147 C143 0.931 . S
H148 C144 0.930 . S
O149 Co138 2.039 . S
O149 C139 1.265 . S
C150 O146 1.253 1_556 S
C150 O151 1.227 . S
O151 C150 1.227 . S
N152 Co138 2.140 . S
N152 C155 1.346 . S
N152 C156 1.345 . S
C153 C154 1.387 . S
C153 C157 1.391 . S
C154 C153 1.387 . S
C154 C155 1.369 . S
C154 H163 0.929 . S
C155 N152 1.346 . S
C155 C154 1.369 . S
C155 H158 0.928 . S
C156 N152 1.345 . S
C156 C157 1.371 . S
C156 H159 0.931 . S
C157 C153 1.391 . S
C157 C156 1.371 . S
C157 H164 0.930 . S
H158 C155 0.928 . S
H159 C156 0.931 . S
H160 C136 0.930 . S
H161 C133 0.930 . S
H162 C142 0.930 . S
H163 C154 0.929 . S
H164 C157 0.930 . S
C165 C166 1.351 . S
C165 N168 1.368 . S
C165 H170 0.931 . S
C166 C165 1.351 . S
C166 N167 1.373 . S
C166 H194 0.930 . S
N167 C166 1.373 . S
N167 C169 1.340 . S
N168 C165 1.368 . S
N168 C169 1.321 . S
N168 Co171 2.135 . S
C169 N167 1.340 . S
C169 N168 1.321 . S
C169 H193 0.930 . S
H170 C165 0.931 . S
Co171 N168 2.135 . S
Co171 N174 2.121 . S
Co171 O179 2.055 . S
Co171 O182 2.039 . S
Co171 N185 2.140 . S
C172 O173 1.227 . S
C172 O182 1.265 . S
O173 C172 1.227 . S
N174 Co171 2.121 . S
N174 C176 1.375 . S
N174 C177 1.313 . S
C175 C176 1.338 . S
C175 N178 1.377 . S
C175 H195 0.930 . S
C176 N174 1.375 . S
C176 C175 1.338 . S
C176 H180 0.931 . S
C177 N174 1.313 . S
C177 N178 1.344 . S
C177 H181 0.930 . S
N178 C175 1.377 . S
N178 C177 1.344 . S
O179 Co171 2.055 . S
O179 C183 1.253 . S
H180 C176 0.931 . S
H181 C177 0.930 . S
O182 Co171 2.039 . S
O182 C172 1.265 . S
C183 O179 1.253 . S
C183 O184 1.227 . S
O184 C183 1.227 . S
N185 Co171 2.140 . S
N185 C188 1.346 . S
N185 C189 1.345 . S
C186 C187 1.387 . S
C186 C190 1.391 . S
C187 C186 1.387 . S
C187 C188 1.369 . S
C187 H196 0.929 . S
C188 N185 1.346 . S
C188 C187 1.369 . S
C188 H191 0.928 . S
C189 N185 1.345 . S
C189 C190 1.371 . S
C189 H192 0.931 . S
C190 C186 1.391 . S
C190 C189 1.371 . S
C190 H197 0.930 . S
H191 C188 0.928 . S
H192 C189 0.931 . S
H193 C169 0.930 . S
H194 C166 0.930 . S
H195 C175 0.930 . S
H196 C187 0.929 . S
H197 C190 0.930 . S
C198 C199 1.351 . S
C198 N201 1.368 . S
C198 H203 0.931 . S
C199 C198 1.351 . S
C199 N200 1.373 . S
C199 H227 0.930 . S
N200 C199 1.373 . S
N200 C202 1.340 . S
N201 C198 1.368 . S
N201 C202 1.321 . S
N201 Co204 2.135 . S
C202 N200 1.340 . S
C202 N201 1.321 . S
C202 H226 0.930 . S
H203 C198 0.931 . S
Co204 N201 2.135 . S
Co204 N207 2.121 . S
Co204 O212 2.055 . S
Co204 O215 2.039 . S
Co204 N218 2.140 . S
C205 O206 1.227 . S
C205 O215 1.265 . S
O206 C205 1.227 . S
N207 Co204 2.121 . S
N207 C209 1.375 . S
N207 C210 1.313 . S
C208 C209 1.338 . S
C208 N211 1.377 . S
C208 H228 0.930 . S
C209 N207 1.375 . S
C209 C208 1.338 . S
C209 H213 0.931 . S
C210 N207 1.313 . S
C210 N211 1.344 . S
C210 H214 0.930 . S
N211 C208 1.377 . S
N211 C210 1.344 . S
O212 Co204 2.055 . S
O212 C216 1.253 . S
H213 C209 0.931 . S
H214 C210 0.930 . S
O215 Co204 2.039 . S
O215 C205 1.265 . S
C216 O212 1.253 . S
C216 O217 1.227 . S
O217 C216 1.227 . S
N218 Co204 2.140 . S
N218 C221 1.346 . S
N218 C222 1.345 . S
C219 C220 1.387 . S
C219 C223 1.391 . S
C220 C219 1.387 . S
C220 C221 1.369 . S
C220 H229 0.929 . S
C221 N218 1.346 . S
C221 C220 1.369 . S
C221 H224 0.928 . S
C222 N218 1.345 . S
C222 C223 1.371 . S
C222 H225 0.931 . S
C223 C219 1.391 . S
C223 C222 1.371 . S
C223 H230 0.930 . S
H224 C221 0.928 . S
H225 C222 0.931 . S
H226 C202 0.930 . S
H227 C199 0.930 . S
H228 C208 0.930 . S
H229 C220 0.929 . S
H230 C223 0.930 . S
C231 C232 1.351 . S
C231 N234 1.368 . S
C231 H236 0.931 . S
C232 C231 1.351 . S
C232 N233 1.373 . S
C232 H260 0.930 . S
N233 C232 1.373 . S
N233 C235 1.340 . S
N234 C231 1.368 . S
N234 C235 1.321 . S
N234 Co237 2.135 . S
C235 N233 1.340 . S
C235 N234 1.321 . S
C235 H259 0.930 . S
H236 C231 0.931 . S
Co237 N234 2.135 . S
Co237 N240 2.121 . S
Co237 O245 2.055 . S
Co237 O248 2.039 . S
Co237 N251 2.140 . S
C238 O239 1.227 . S
C238 O248 1.265 . S
O239 C238 1.227 . S
N240 Co237 2.121 . S
N240 C242 1.375 . S
N240 C243 1.313 . S
C241 C242 1.338 . S
C241 N244 1.377 . S
C241 H261 0.930 . S
C242 N240 1.375 . S
C242 C241 1.338 . S
C242 H246 0.931 . S
C243 N240 1.313 . S
C243 N244 1.344 . S
C243 H247 0.930 . S
N244 C241 1.377 . S
N244 C243 1.344 . S
O245 Co237 2.055 . S
O245 C249 1.253 . S
H246 C242 0.931 . S
H247 C243 0.930 . S
O248 Co237 2.039 . S
O248 C238 1.265 . S
C249 O245 1.253 . S
C249 O250 1.227 . S
O250 C249 1.227 . S
N251 Co237 2.140 . S
N251 C254 1.346 . S
N251 C255 1.345 . S
C252 C253 1.387 . S
C252 C256 1.391 . S
C253 C252 1.387 . S
C253 C254 1.369 . S
C253 H262 0.929 . S
C254 N251 1.346 . S
C254 C253 1.369 . S
C254 H257 0.928 . S
C255 N251 1.345 . S
C255 C256 1.371 . S
C255 H258 0.931 . S
C256 C252 1.391 . S
C256 C255 1.371 . S
C256 H263 0.930 . S
H257 C254 0.928 . S
H258 C255 0.931 . S
H259 C235 0.930 . S
H260 C232 0.930 . S
H261 C241 0.930 . S
H262 C253 0.929 . S
H263 C256 0.930 . S
C264 C265 1.351 . S
C264 N267 1.368 . S
C264 H269 0.931 . S
C265 C264 1.351 . S
C265 N266 1.373 . S
C265 H293 0.930 . S
N266 C265 1.373 . S
N266 C268 1.340 . S
N267 C264 1.368 . S
N267 C268 1.321 . S
N267 Co270 2.135 . S
C268 N266 1.340 . S
C268 N267 1.321 . S
C268 H292 0.930 . S
H269 C264 0.931 . S
Co270 N267 2.135 . S
Co270 N273 2.121 . S
Co270 O278 2.055 . S
Co270 O281 2.039 . S
Co270 N284 2.140 . S
C271 O272 1.227 . S
C271 O281 1.265 . S
O272 C271 1.227 . S
N273 Co270 2.121 . S
N273 C275 1.375 . S
N273 C276 1.313 . S
C274 C275 1.338 . S
C274 N277 1.377 . S
C274 H294 0.930 . S
C275 N273 1.375 . S
C275 C274 1.338 . S
C275 H279 0.931 . S
C276 N273 1.313 . S
C276 N277 1.344 . S
C276 H280 0.930 . S
N277 C274 1.377 . S
N277 C276 1.344 . S
O278 Co270 2.055 . S
O278 C282 1.253 . S
H279 C275 0.931 . S
H280 C276 0.930 . S
O281 Co270 2.039 . S
O281 C271 1.265 . S
C282 O278 1.253 . S
C282 O283 1.227 . S
O283 C282 1.227 . S
N284 Co270 2.140 . S
N284 C287 1.346 . S
N284 C288 1.345 . S
C285 C286 1.387 . S
C285 C289 1.391 . S
C286 C285 1.387 . S
C286 C287 1.369 . S
C286 H295 0.929 . S
C287 N284 1.346 . S
C287 C286 1.369 . S
C287 H290 0.928 . S
C288 N284 1.345 . S
C288 C289 1.371 . S
C288 H291 0.931 . S
C289 C285 1.391 . S
C289 C288 1.371 . S
C289 H296 0.930 . S
H290 C287 0.928 . S
H291 C288 0.931 . S
H292 C268 0.930 . S
H293 C265 0.930 . S
H294 C274 0.930 . S
H295 C286 0.929 . S
H296 C289 0.930 . S
C297 C298 1.351 . S
C297 N300 1.368 . S
C297 H302 0.931 . S
C298 C297 1.351 . S
C298 N299 1.373 . S
C298 H326 0.930 . S
N299 C298 1.373 . S
N299 C301 1.340 . S
N300 C297 1.368 . S
N300 C301 1.321 . S
N300 Co303 2.135 . S
C301 N299 1.340 . S
C301 N300 1.321 . S
C301 H325 0.930 . S
H302 C297 0.931 . S
Co303 N300 2.135 . S
Co303 N306 2.121 . S
Co303 O311 2.055 . S
Co303 O314 2.039 . S
Co303 N317 2.140 . S
C304 O305 1.227 . S
C304 O314 1.265 . S
O305 C304 1.227 . S
N306 Co303 2.121 . S
N306 C308 1.375 . S
N306 C309 1.313 . S
C307 C308 1.338 . S
C307 N310 1.377 . S
C307 H327 0.930 . S
C308 N306 1.375 . S
C308 C307 1.338 . S
C308 H312 0.931 . S
C309 N306 1.313 . S
C309 N310 1.344 . S
C309 H313 0.930 . S
N310 C307 1.377 . S
N310 C309 1.344 . S
O311 Co303 2.055 . S
O311 C315 1.253 . S
H312 C308 0.931 . S
H313 C309 0.930 . S
O314 Co303 2.039 . S
O314 C304 1.265 . S
C315 O311 1.253 . S
C315 O316 1.227 . S
O316 C315 1.227 . S
N317 Co303 2.140 . S
N317 C320 1.346 . S
N317 C321 1.345 . S
C318 C319 1.387 . S
C318 C322 1.391 . S
C319 C318 1.387 . S
C319 C320 1.369 . S
C319 H328 0.929 . S
C320 N317 1.346 . S
C320 C319 1.369 . S
C320 H323 0.928 . S
C321 N317 1.345 . S
C321 C322 1.371 . S
C321 H324 0.931 . S
C322 C318 1.391 . S
C322 C321 1.371 . S
C322 H329 0.930 . S
H323 C320 0.928 . S
H324 C321 0.931 . S
H325 C301 0.930 . S
H326 C298 0.930 . S
H327 C307 0.930 . S
H328 C319 0.929 . S
H329 C322 0.930 . S
C330 C331 1.351 . S
C330 N333 1.368 . S
C330 H335 0.931 . S
C331 C330 1.351 . S
C331 N332 1.373 . S
C331 H359 0.930 . S
N332 C331 1.373 . S
N332 C334 1.340 . S
N333 C330 1.368 . S
N333 C334 1.321 . S
N333 Co336 2.135 . S
C334 N332 1.340 . S
C334 N333 1.321 . S
C334 H358 0.930 . S
H335 C330 0.931 . S
Co336 N333 2.135 . S
Co336 N339 2.121 . S
Co336 O344 2.055 . S
Co336 O347 2.039 . S
Co336 N350 2.140 . S
C337 O338 1.227 . S
C337 O347 1.265 . S
O338 C337 1.227 . S
N339 Co336 2.121 . S
N339 C341 1.375 . S
N339 C342 1.313 . S
C340 C341 1.338 . S
C340 N343 1.377 . S
C340 H360 0.930 . S
C341 N339 1.375 . S
C341 C340 1.338 . S
C341 H345 0.931 . S
C342 N339 1.313 . S
C342 N343 1.344 . S
C342 H346 0.930 . S
N343 C340 1.377 . S
N343 C342 1.344 . S
O344 Co336 2.055 . S
O344 C348 1.253 1_554 S
H345 C341 0.931 . S
H346 C342 0.930 . S
O347 Co336 2.039 . S
O347 C337 1.265 . S
C348 O344 1.253 1_556 S
C348 O349 1.227 . S
O349 C348 1.227 . S
N350 Co336 2.140 . S
N350 C353 1.346 . S
N350 C354 1.345 . S
C351 C352 1.387 . S
C351 C355 1.391 . S
C352 C351 1.387 . S
C352 C353 1.369 . S
C352 H361 0.929 . S
C353 N350 1.346 . S
C353 C352 1.369 . S
C353 H356 0.928 . S
C354 N350 1.345 . S
C354 C355 1.371 . S
C354 H357 0.931 . S
C355 C351 1.391 . S
C355 C354 1.371 . S
C355 H362 0.930 . S
H356 C353 0.928 . S
H357 C354 0.931 . S
H358 C334 0.930 . S
H359 C331 0.930 . S
H360 C340 0.930 . S
H361 C352 0.929 . S
H362 C355 0.930 . S
C363 C364 1.351 . S
C363 N366 1.368 . S
C363 H368 0.931 . S
C364 C363 1.351 . S
C364 N365 1.373 . S
C364 H392 0.930 . S
N365 C364 1.373 . S
N365 C367 1.340 . S
N366 C363 1.368 . S
N366 C367 1.321 . S
N366 Co369 2.135 . S
C367 N365 1.340 . S
C367 N366 1.321 . S
C367 H391 0.930 . S
H368 C363 0.931 . S
Co369 N366 2.135 . S
Co369 N372 2.121 . S
Co369 O377 2.055 . S
Co369 O380 2.039 . S
Co369 N383 2.140 . S
C370 O371 1.227 . S
C370 O380 1.265 . S
O371 C370 1.227 . S
N372 Co369 2.121 . S
N372 C374 1.375 . S
N372 C375 1.313 . S
C373 C374 1.338 . S
C373 N376 1.377 . S
C373 H393 0.930 . S
C374 N372 1.375 . S
C374 C373 1.338 . S
C374 H378 0.931 . S
C375 N372 1.313 . S
C375 N376 1.344 . S
C375 H379 0.930 . S
N376 C373 1.377 . S
N376 C375 1.344 . S
O377 Co369 2.055 . S
O377 C381 1.253 . S
H378 C374 0.931 . S
H379 C375 0.930 . S
O380 Co369 2.039 . S
O380 C370 1.265 . S
C381 O377 1.253 . S
C381 O382 1.227 . S
O382 C381 1.227 . S
N383 Co369 2.140 . S
N383 C386 1.346 . S
N383 C387 1.345 . S
C384 C385 1.387 . S
C384 C388 1.391 . S
C385 C384 1.387 . S
C385 C386 1.369 . S
C385 H394 0.929 . S
C386 N383 1.346 . S
C386 C385 1.369 . S
C386 H389 0.928 . S
C387 N383 1.345 . S
C387 C388 1.371 . S
C387 H390 0.931 . S
C388 C384 1.391 . S
C388 C387 1.371 . S
C388 H395 0.930 . S
H389 C386 0.928 . S
H390 C387 0.931 . S
H391 C367 0.930 . S
H392 C364 0.930 . S
H393 C373 0.930 . S
H394 C385 0.929 . S
H395 C388 0.930 . S
C396 C397 1.351 . S
C396 N399 1.368 . S
C396 H401 0.931 . S
C397 C396 1.351 . S
C397 N398 1.373 . S
C397 H425 0.930 . S
N398 C397 1.373 . S
N398 C400 1.340 . S
N399 C396 1.368 . S
N399 C400 1.321 . S
N399 Co402 2.135 . S
C400 N398 1.340 . S
C400 N399 1.321 . S
C400 H424 0.930 . S
H401 C396 0.931 . S
Co402 N399 2.135 . S
Co402 N405 2.121 . S
Co402 O410 2.055 . S
Co402 O413 2.039 . S
Co402 N416 2.140 . S
C403 O404 1.227 . S
C403 O413 1.265 . S
O404 C403 1.227 . S
N405 Co402 2.121 . S
N405 C407 1.375 . S
N405 C408 1.313 . S
C406 C407 1.338 . S
C406 N409 1.377 . S
C406 H426 0.930 . S
C407 N405 1.375 . S
C407 C406 1.338 . S
C407 H411 0.931 . S
C408 N405 1.313 . S
C408 N409 1.344 . S
C408 H412 0.930 . S
N409 C406 1.377 . S
N409 C408 1.344 . S
O410 Co402 2.055 . S
O410 C414 1.253 1_556 S
H411 C407 0.931 . S
H412 C408 0.930 . S
O413 Co402 2.039 . S
O413 C403 1.265 . S
C414 O410 1.253 1_554 S
C414 O415 1.227 . S
O415 C414 1.227 . S
N416 Co402 2.140 . S
N416 C419 1.346 . S
N416 C420 1.345 . S
C417 C418 1.387 . S
C417 C421 1.391 . S
C418 C417 1.387 . S
C418 C419 1.369 . S
C418 H427 0.929 . S
C419 N416 1.346 . S
C419 C418 1.369 . S
C419 H422 0.928 . S
C420 N416 1.345 . S
C420 C421 1.371 . S
C420 H423 0.931 . S
C421 C417 1.391 . S
C421 C420 1.371 . S
C421 H428 0.930 . S
H422 C419 0.928 . S
H423 C420 0.931 . S
H424 C400 0.930 . S
H425 C397 0.930 . S
H426 C406 0.930 . S
H427 C418 0.929 . S
H428 C421 0.930 . S
C429 C430 1.351 . S
C429 N432 1.368 . S
C429 H434 0.931 . S
C430 C429 1.351 . S
C430 N431 1.373 . S
C430 H458 0.930 . S
N431 C430 1.373 . S
N431 C433 1.340 . S
N432 C429 1.368 . S
N432 C433 1.321 . S
N432 Co435 2.135 . S
C433 N431 1.340 . S
C433 N432 1.321 . S
C433 H457 0.930 . S
H434 C429 0.931 . S
Co435 N432 2.135 . S
Co435 N438 2.121 . S
Co435 O443 2.055 . S
Co435 O446 2.039 . S
Co435 N449 2.140 . S
C436 O437 1.227 . S
C436 O446 1.265 . S
O437 C436 1.227 . S
N438 Co435 2.121 . S
N438 C440 1.375 . S
N438 C441 1.313 . S
C439 C440 1.338 . S
C439 N442 1.377 . S
C439 H459 0.930 . S
C440 N438 1.375 . S
C440 C439 1.338 . S
C440 H444 0.931 . S
C441 N438 1.313 . S
C441 N442 1.344 . S
C441 H445 0.930 . S
N442 C439 1.377 . S
N442 C441 1.344 . S
O443 Co435 2.055 . S
O443 C447 1.253 . S
H444 C440 0.931 . S
H445 C441 0.930 . S
O446 Co435 2.039 . S
O446 C436 1.265 . S
C447 O443 1.253 . S
C447 O448 1.227 . S
O448 C447 1.227 . S
N449 Co435 2.140 . S
N449 C452 1.346 . S
N449 C453 1.345 . S
C450 C451 1.387 . S
C450 C454 1.391 . S
C451 C450 1.387 . S
C451 C452 1.369 . S
C451 H460 0.929 . S
C452 N449 1.346 . S
C452 C451 1.369 . S
C452 H455 0.928 . S
C453 N449 1.345 . S
C453 C454 1.371 . S
C453 H456 0.931 . S
C454 C450 1.391 . S
C454 C453 1.371 . S
C454 H461 0.930 . S
H455 C452 0.928 . S
H456 C453 0.931 . S
H457 C433 0.930 . S
H458 C430 0.930 . S
H459 C439 0.930 . S
H460 C451 0.929 . S
H461 C454 0.930 . S
C462 C463 1.351 . S
C462 N465 1.368 . S
C462 H467 0.931 . S
C463 C462 1.351 . S
C463 N464 1.373 . S
C463 H491 0.930 . S
N464 C463 1.373 . S
N464 C466 1.340 . S
N465 C462 1.368 . S
N465 C466 1.321 . S
N465 Co468 2.135 . S
C466 N464 1.340 . S
C466 N465 1.321 . S
C466 H490 0.930 . S
H467 C462 0.931 . S
Co468 N465 2.135 . S
Co468 N471 2.121 . S
Co468 O476 2.055 . S
Co468 O479 2.039 . S
Co468 N482 2.140 . S
C469 O470 1.227 . S
C469 O479 1.265 . S
O470 C469 1.227 . S
N471 Co468 2.121 . S
N471 C473 1.375 . S
N471 C474 1.313 . S
C472 C473 1.338 . S
C472 N475 1.377 . S
C472 H492 0.930 . S
C473 N471 1.375 . S
C473 C472 1.338 . S
C473 H477 0.931 . S
C474 N471 1.313 . S
C474 N475 1.344 . S
C474 H478 0.930 . S
N475 C472 1.377 . S
N475 C474 1.344 . S
O476 Co468 2.055 . S
O476 C480 1.253 . S
H477 C473 0.931 . S
H478 C474 0.930 . S
O479 Co468 2.039 . S
O479 C469 1.265 . S
C480 O476 1.253 . S
C480 O481 1.227 . S
O481 C480 1.227 . S
N482 Co468 2.140 . S
N482 C485 1.346 . S
N482 C486 1.345 . S
C483 C484 1.387 . S
C483 C487 1.391 . S
C484 C483 1.387 . S
C484 C485 1.369 . S
C484 H493 0.929 . S
C485 N482 1.346 . S
C485 C484 1.369 . S
C485 H488 0.928 . S
C486 N482 1.345 . S
C486 C487 1.371 . S
C486 H489 0.931 . S
C487 C483 1.391 . S
C487 C486 1.371 . S
C487 H494 0.930 . S
H488 C485 0.928 . S
H489 C486 0.931 . S
H490 C466 0.930 . S
H491 C463 0.930 . S
H492 C472 0.930 . S
H493 C484 0.929 . S
H494 C487 0.930 . S
C495 C496 1.351 . S
C495 N498 1.368 . S
C495 H500 0.931 . S
C496 C495 1.351 . S
C496 N497 1.373 . S
C496 H524 0.930 . S
N497 C496 1.373 . S
N497 C499 1.340 . S
N498 C495 1.368 . S
N498 C499 1.321 . S
N498 Co501 2.135 . S
C499 N497 1.340 . S
C499 N498 1.321 . S
C499 H523 0.930 . S
H500 C495 0.931 . S
Co501 N498 2.135 . S
Co501 N504 2.121 . S
Co501 O509 2.055 . S
Co501 O512 2.039 . S
Co501 N515 2.140 . S
C502 O503 1.227 . S
C502 O512 1.265 . S
O503 C502 1.227 . S
N504 Co501 2.121 . S
N504 C506 1.375 . S
N504 C507 1.313 . S
C505 C506 1.338 . S
C505 N508 1.377 . S
C505 H525 0.930 . S
C506 N504 1.375 . S
C506 C505 1.338 . S
C506 H510 0.931 . S
C507 N504 1.313 . S
C507 N508 1.344 . S
C507 H511 0.930 . S
N508 C505 1.377 . S
N508 C507 1.344 . S
O509 Co501 2.055 . S
O509 C513 1.253 . S
H510 C506 0.931 . S
H511 C507 0.930 . S
O512 Co501 2.039 . S
O512 C502 1.265 . S
C513 O509 1.253 . S
C513 O514 1.227 . S
O514 C513 1.227 . S
N515 Co501 2.140 . S
N515 C518 1.346 . S
N515 C519 1.345 . S
C516 C517 1.387 . S
C516 C520 1.391 . S
C517 C516 1.387 . S
C517 C518 1.369 . S
C517 H526 0.929 . S
C518 N515 1.346 . S
C518 C517 1.369 . S
C518 H521 0.928 . S
C519 N515 1.345 . S
C519 C520 1.371 . S
C519 H522 0.931 . S
C520 C516 1.391 . S
C520 C519 1.371 . S
C520 H527 0.930 . S
H521 C518 0.928 . S
H522 C519 0.931 . S
H523 C499 0.930 . S
H524 C496 0.930 . S
H525 C505 0.930 . S
H526 C517 0.929 . S
H527 C520 0.930 . S
C528 C529 1.351 . S
C528 N531 1.368 . S
C528 H533 0.931 . S
C529 C528 1.351 . S
C529 N530 1.373 . S
C529 H557 0.930 . S
N530 C529 1.373 . S
N530 C532 1.340 . S
N531 C528 1.368 . S
N531 C532 1.321 . S
N531 Co534 2.135 . S
C532 N530 1.340 . S
C532 N531 1.321 . S
C532 H556 0.930 . S
H533 C528 0.931 . S
Co534 N531 2.135 . S
Co534 N537 2.121 . S
Co534 O542 2.055 . S
Co534 O545 2.039 . S
Co534 N548 2.140 . S
C535 O536 1.227 . S
C535 O545 1.265 . S
O536 C535 1.227 . S
N537 Co534 2.121 . S
N537 C539 1.375 . S
N537 C540 1.313 . S
C538 C539 1.338 . S
C538 N541 1.377 . S
C538 H558 0.930 . S
C539 N537 1.375 . S
C539 C538 1.338 . S
C539 H543 0.931 . S
C540 N537 1.313 . S
C540 N541 1.344 . S
C540 H544 0.930 . S
N541 C538 1.377 . S
N541 C540 1.344 . S
O542 Co534 2.055 . S
O542 C546 1.253 1_556 S
H543 C539 0.931 . S
H544 C540 0.930 . S
O545 Co534 2.039 . S
O545 C535 1.265 . S
C546 O542 1.253 1_554 S
C546 O547 1.227 . S
O547 C546 1.227 . S
N548 Co534 2.140 . S
N548 C551 1.346 . S
N548 C552 1.345 . S
C549 C550 1.387 . S
C549 C553 1.391 . S
C550 C549 1.387 . S
C550 C551 1.369 . S
C550 H559 0.929 . S
C551 N548 1.346 . S
C551 C550 1.369 . S
C551 H554 0.928 . S
C552 N548 1.345 . S
C552 C553 1.371 . S
C552 H555 0.931 . S
C553 C549 1.391 . S
C553 C552 1.371 . S
C553 H560 0.930 . S
H554 C551 0.928 . S
H555 C552 0.931 . S
H556 C532 0.930 . S
H557 C529 0.930 . S
H558 C538 0.930 . S
H559 C550 0.929 . S
H560 C553 0.930 . S
C561 C562 1.351 . S
C561 N564 1.368 . S
C561 H566 0.931 . S
C562 C561 1.351 . S
C562 N563 1.373 . S
C562 H590 0.930 . S
N563 C562 1.373 . S
N563 C565 1.340 . S
N564 C561 1.368 . S
N564 C565 1.321 . S
N564 Co567 2.135 . S
C565 N563 1.340 . S
C565 N564 1.321 . S
C565 H589 0.930 . S
H566 C561 0.931 . S
Co567 N564 2.135 . S
Co567 N570 2.121 . S
Co567 O575 2.055 . S
Co567 O578 2.039 . S
Co567 N581 2.140 . S
C568 O569 1.227 . S
C568 O578 1.265 . S
O569 C568 1.227 . S
N570 Co567 2.121 . S
N570 C572 1.375 . S
N570 C573 1.313 . S
C571 C572 1.338 . S
C571 N574 1.377 . S
C571 H591 0.930 . S
C572 N570 1.375 . S
C572 C571 1.338 . S
C572 H576 0.931 . S
C573 N570 1.313 . S
C573 N574 1.344 . S
C573 H577 0.930 . S
N574 C571 1.377 . S
N574 C573 1.344 . S
O575 Co567 2.055 . S
O575 C579 1.253 . S
H576 C572 0.931 . S
H577 C573 0.930 . S
O578 Co567 2.039 . S
O578 C568 1.265 . S
C579 O575 1.253 . S
C579 O580 1.227 . S
O580 C579 1.227 . S
N581 Co567 2.140 . S
N581 C584 1.346 . S
N581 C585 1.345 . S
C582 C583 1.387 . S
C582 C586 1.391 . S
C583 C582 1.387 . S
C583 C584 1.369 . S
C583 H592 0.929 . S
C584 N581 1.346 . S
C584 C583 1.369 . S
C584 H587 0.928 . S
C585 N581 1.345 . S
C585 C586 1.371 . S
C585 H588 0.931 . S
C586 C582 1.391 . S
C586 C585 1.371 . S
C586 H593 0.930 . S
H587 C584 0.928 . S
H588 C585 0.931 . S
H589 C565 0.930 . S
H590 C562 0.930 . S
H591 C571 0.930 . S
H592 C583 0.929 . S
H593 C586 0.930 . S
C594 C595 1.351 . S
C594 N597 1.368 . S
C594 H599 0.931 . S
C595 C594 1.351 . S
C595 N596 1.373 . S
C595 H623 0.930 . S
N596 C595 1.373 . S
N596 C598 1.340 . S
N597 C594 1.368 . S
N597 C598 1.321 . S
N597 Co600 2.135 . S
C598 N596 1.340 . S
C598 N597 1.321 . S
C598 H622 0.930 . S
H599 C594 0.931 . S
Co600 N597 2.135 . S
Co600 N603 2.121 . S
Co600 O608 2.055 . S
Co600 O611 2.039 . S
Co600 N614 2.140 . S
C601 O602 1.227 . S
C601 O611 1.265 . S
O602 C601 1.227 . S
N603 Co600 2.121 . S
N603 C605 1.375 . S
N603 C606 1.313 . S
C604 C605 1.338 . S
C604 N607 1.377 . S
C604 H624 0.930 . S
C605 N603 1.375 . S
C605 C604 1.338 . S
C605 H609 0.931 . S
C606 N603 1.313 . S
C606 N607 1.344 . S
C606 H610 0.930 . S
N607 C604 1.377 . S
N607 C606 1.344 . S
O608 Co600 2.055 . S
O608 C612 1.253 . S
H609 C605 0.931 . S
H610 C606 0.930 . S
O611 Co600 2.039 . S
O611 C601 1.265 . S
C612 O608 1.253 . S
C612 O613 1.227 . S
O613 C612 1.227 . S
N614 Co600 2.140 . S
N614 C617 1.346 . S
N614 C618 1.345 . S
C615 C616 1.387 . S
C615 C619 1.391 . S
C616 C615 1.387 . S
C616 C617 1.369 . S
C616 H625 0.929 . S
C617 N614 1.346 . S
C617 C616 1.369 . S
C617 H620 0.928 . S
C618 N614 1.345 . S
C618 C619 1.371 . S
C618 H621 0.931 . S
C619 C615 1.391 . S
C619 C618 1.371 . S
C619 H626 0.930 . S
H620 C617 0.928 . S
H621 C618 0.931 . S
H622 C598 0.930 . S
H623 C595 0.930 . S
H624 C604 0.930 . S
H625 C616 0.929 . S
H626 C619 0.930 . S
C627 C628 1.351 . S
C627 N630 1.368 . S
C627 H632 0.931 . S
C628 C627 1.351 . S
C628 N629 1.373 . S
C628 H656 0.930 . S
N629 C628 1.373 . S
N629 C631 1.340 . S
N630 C627 1.368 . S
N630 C631 1.321 . S
N630 Co633 2.135 . S
C631 N629 1.340 . S
C631 N630 1.321 . S
C631 H655 0.930 . S
H632 C627 0.931 . S
Co633 N630 2.135 . S
Co633 N636 2.121 . S
Co633 O641 2.055 . S
Co633 O644 2.039 . S
Co633 N647 2.140 . S
C634 O635 1.227 . S
C634 O644 1.265 . S
O635 C634 1.227 . S
N636 Co633 2.121 . S
N636 C638 1.375 . S
N636 C639 1.313 . S
C637 C638 1.338 . S
C637 N640 1.377 . S
C637 H657 0.930 . S
C638 N636 1.375 . S
C638 C637 1.338 . S
C638 H642 0.931 . S
C639 N636 1.313 . S
C639 N640 1.344 . S
C639 H643 0.930 . S
N640 C637 1.377 . S
N640 C639 1.344 . S
O641 Co633 2.055 . S
O641 C645 1.253 . S
H642 C638 0.931 . S
H643 C639 0.930 . S
O644 Co633 2.039 . S
O644 C634 1.265 . S
C645 O641 1.253 . S
C645 O646 1.227 . S
O646 C645 1.227 . S
N647 Co633 2.140 . S
N647 C650 1.346 . S
N647 C651 1.345 . S
C648 C649 1.387 . S
C648 C652 1.391 . S
C649 C648 1.387 . S
C649 C650 1.369 . S
C649 H658 0.929 . S
C650 N647 1.346 . S
C650 C649 1.369 . S
C650 H653 0.928 . S
C651 N647 1.345 . S
C651 C652 1.371 . S
C651 H654 0.931 . S
C652 C648 1.391 . S
C652 C651 1.371 . S
C652 H659 0.930 . S
H653 C650 0.928 . S
H654 C651 0.931 . S
H655 C631 0.930 . S
H656 C628 0.930 . S
H657 C637 0.930 . S
H658 C649 0.929 . S
H659 C652 0.930 . S
C660 C661 1.351 . S
C660 N663 1.368 . S
C660 H665 0.931 . S
C661 C660 1.351 . S
C661 N662 1.373 . S
C661 H689 0.930 . S
N662 C661 1.373 . S
N662 C664 1.340 . S
N663 C660 1.368 . S
N663 C664 1.321 . S
N663 Co666 2.135 . S
C664 N662 1.340 . S
C664 N663 1.321 . S
C664 H688 0.930 . S
H665 C660 0.931 . S
Co666 N663 2.135 . S
Co666 N669 2.121 . S
Co666 O674 2.055 . S
Co666 O677 2.039 . S
Co666 N680 2.140 . S
C667 O668 1.227 . S
C667 O677 1.265 . S
O668 C667 1.227 . S
N669 Co666 2.121 . S
N669 C671 1.375 . S
N669 C672 1.313 . S
C670 C671 1.338 . S
C670 N673 1.377 . S
C670 H690 0.930 . S
C671 N669 1.375 . S
C671 C670 1.338 . S
C671 H675 0.931 . S
C672 N669 1.313 . S
C672 N673 1.344 . S
C672 H676 0.930 . S
N673 C670 1.377 . S
N673 C672 1.344 . S
O674 Co666 2.055 . S
O674 C678 1.253 . S
H675 C671 0.931 . S
H676 C672 0.930 . S
O677 Co666 2.039 . S
O677 C667 1.265 . S
C678 O674 1.253 . S
C678 O679 1.227 . S
O679 C678 1.227 . S
N680 Co666 2.140 . S
N680 C683 1.346 . S
N680 C684 1.345 . S
C681 C682 1.387 . S
C681 C685 1.391 . S
C682 C681 1.387 . S
C682 C683 1.369 . S
C682 H691 0.929 . S
C683 N680 1.346 . S
C683 C682 1.369 . S
C683 H686 0.928 . S
C684 N680 1.345 . S
C684 C685 1.371 . S
C684 H687 0.931 . S
C685 C681 1.391 . S
C685 C684 1.371 . S
C685 H692 0.930 . S
H686 C683 0.928 . S
H687 C684 0.931 . S
H688 C664 0.930 . S
H689 C661 0.930 . S
H690 C670 0.930 . S
H691 C682 0.929 . S
H692 C685 0.930 . S
C693 C694 1.351 . S
C693 N696 1.368 . S
C693 H698 0.931 . S
C694 C693 1.351 . S
C694 N695 1.373 . S
C694 H722 0.930 . S
N695 C694 1.373 . S
N695 C697 1.340 . S
N696 C693 1.368 . S
N696 C697 1.321 . S
N696 Co699 2.135 . S
C697 N695 1.340 . S
C697 N696 1.321 . S
C697 H721 0.930 . S
H698 C693 0.931 . S
Co699 N696 2.135 . S
Co699 N702 2.121 . S
Co699 O707 2.055 . S
Co699 O710 2.039 . S
Co699 N713 2.140 . S
C700 O701 1.227 . S
C700 O710 1.265 . S
O701 C700 1.227 . S
N702 Co699 2.121 . S
N702 C704 1.375 . S
N702 C705 1.313 . S
C703 C704 1.338 . S
C703 N706 1.377 . S
C703 H723 0.930 . S
C704 N702 1.375 . S
C704 C703 1.338 . S
C704 H708 0.931 . S
C705 N702 1.313 . S
C705 N706 1.344 . S
C705 H709 0.930 . S
N706 C703 1.377 . S
N706 C705 1.344 . S
O707 Co699 2.055 . S
O707 C711 1.253 . S
H708 C704 0.931 . S
H709 C705 0.930 . S
O710 Co699 2.039 . S
O710 C700 1.265 . S
C711 O707 1.253 . S
C711 O712 1.227 . S
O712 C711 1.227 . S
N713 Co699 2.140 . S
N713 C716 1.346 . S
N713 C717 1.345 . S
C714 C715 1.387 . S
C714 C718 1.391 . S
C715 C714 1.387 . S
C715 C716 1.369 . S
C715 H724 0.929 . S
C716 N713 1.346 . S
C716 C715 1.369 . S
C716 H719 0.928 . S
C717 N713 1.345 . S
C717 C718 1.371 . S
C717 H720 0.931 . S
C718 C714 1.391 . S
C718 C717 1.371 . S
C718 H725 0.930 . S
H719 C716 0.928 . S
H720 C717 0.931 . S
H721 C697 0.930 . S
H722 C694 0.930 . S
H723 C703 0.930 . S
H724 C715 0.929 . S
H725 C718 0.930 . S
C726 C727 1.351 . S
C726 N729 1.368 . S
C726 H731 0.931 . S
C727 C726 1.351 . S
C727 N728 1.373 . S
C727 H755 0.930 . S
N728 C727 1.373 . S
N728 C730 1.340 . S
N729 C726 1.368 . S
N729 C730 1.321 . S
N729 Co732 2.135 . S
C730 N728 1.340 . S
C730 N729 1.321 . S
C730 H754 0.930 . S
H731 C726 0.931 . S
Co732 N729 2.135 . S
Co732 N735 2.121 . S
Co732 O740 2.055 . S
Co732 O743 2.039 . S
Co732 N746 2.140 . S
C733 O734 1.227 . S
C733 O743 1.265 . S
O734 C733 1.227 . S
N735 Co732 2.121 . S
N735 C737 1.375 . S
N735 C738 1.313 . S
C736 C737 1.338 . S
C736 N739 1.377 . S
C736 H756 0.930 . S
C737 N735 1.375 . S
C737 C736 1.338 . S
C737 H741 0.931 . S
C738 N735 1.313 . S
C738 N739 1.344 . S
C738 H742 0.930 . S
N739 C736 1.377 . S
N739 C738 1.344 . S
O740 Co732 2.055 . S
O740 C744 1.253 1_554 S
H741 C737 0.931 . S
H742 C738 0.930 . S
O743 Co732 2.039 . S
O743 C733 1.265 . S
C744 O740 1.253 1_556 S
C744 O745 1.227 . S
O745 C744 1.227 . S
N746 Co732 2.140 . S
N746 C749 1.346 . S
N746 C750 1.345 . S
C747 C748 1.387 . S
C747 C751 1.391 . S
C748 C747 1.387 . S
C748 C749 1.369 . S
C748 H757 0.929 . S
C749 N746 1.346 . S
C749 C748 1.369 . S
C749 H752 0.928 . S
C750 N746 1.345 . S
C750 C751 1.371 . S
C750 H753 0.931 . S
C751 C747 1.391 . S
C751 C750 1.371 . S
C751 H758 0.930 . S
H752 C749 0.928 . S
H753 C750 0.931 . S
H754 C730 0.930 . S
H755 C727 0.930 . S
H756 C736 0.930 . S
H757 C748 0.929 . S
H758 C751 0.930 . S
C759 C760 1.351 . S
C759 N762 1.368 . S
C759 H764 0.931 . S
C760 C759 1.351 . S
C760 N761 1.373 . S
C760 H788 0.930 . S
N761 C760 1.373 . S
N761 C763 1.340 . S
N762 C759 1.368 . S
N762 C763 1.321 . S
N762 Co765 2.135 . S
C763 N761 1.340 . S
C763 N762 1.321 . S
C763 H787 0.930 . S
H764 C759 0.931 . S
Co765 N762 2.135 . S
Co765 N768 2.121 . S
Co765 O773 2.055 . S
Co765 O776 2.039 . S
Co765 N779 2.140 . S
C766 O767 1.227 . S
C766 O776 1.265 . S
O767 C766 1.227 . S
N768 Co765 2.121 . S
N768 C770 1.375 . S
N768 C771 1.313 . S
C769 C770 1.338 . S
C769 N772 1.377 . S
C769 H789 0.930 . S
C770 N768 1.375 . S
C770 C769 1.338 . S
C770 H774 0.931 . S
C771 N768 1.313 . S
C771 N772 1.344 . S
C771 H775 0.930 . S
N772 C769 1.377 . S
N772 C771 1.344 . S
O773 Co765 2.055 . S
O773 C777 1.253 . S
H774 C770 0.931 . S
H775 C771 0.930 . S
O776 Co765 2.039 . S
O776 C766 1.265 . S
C777 O773 1.253 . S
C777 O778 1.227 . S
O778 C777 1.227 . S
N779 Co765 2.140 . S
N779 C782 1.346 . S
N779 C783 1.345 . S
C780 C781 1.387 . S
C780 C784 1.391 . S
C781 C780 1.387 . S
C781 C782 1.369 . S
C781 H790 0.929 . S
C782 N779 1.346 . S
C782 C781 1.369 . S
C782 H785 0.928 . S
C783 N779 1.345 . S
C783 C784 1.371 . S
C783 H786 0.931 . S
C784 C780 1.391 . S
C784 C783 1.371 . S
C784 H791 0.930 . S
H785 C782 0.928 . S
H786 C783 0.931 . S
H787 C763 0.930 . S
H788 C760 0.930 . S
H789 C769 0.930 . S
H790 C781 0.929 . S
H791 C784 0.930 . S
C792 C793 1.351 . S
C792 N795 1.368 . S
C792 H797 0.931 . S
C793 C792 1.351 . S
C793 N794 1.373 . S
C793 H821 0.930 . S
N794 C793 1.373 . S
N794 C796 1.340 . S
N795 C792 1.368 . S
N795 C796 1.321 . S
N795 Co798 2.135 . S
C796 N794 1.340 . S
C796 N795 1.321 . S
C796 H820 0.930 . S
H797 C792 0.931 . S
Co798 N795 2.135 . S
Co798 N801 2.121 . S
Co798 O806 2.055 . S
Co798 O809 2.039 . S
Co798 N812 2.140 . S
C799 O800 1.227 . S
C799 O809 1.265 . S
O800 C799 1.227 . S
N801 Co798 2.121 . S
N801 C803 1.375 . S
N801 C804 1.313 . S
C802 C803 1.338 . S
C802 N805 1.377 . S
C802 H822 0.930 . S
C803 N801 1.375 . S
C803 C802 1.338 . S
C803 H807 0.931 . S
C804 N801 1.313 . S
C804 N805 1.344 . S
C804 H808 0.930 . S
N805 C802 1.377 . S
N805 C804 1.344 . S
O806 Co798 2.055 . S
O806 C810 1.253 1_554 S
H807 C803 0.931 . S
H808 C804 0.930 . S
O809 Co798 2.039 . S
O809 C799 1.265 . S
C810 O806 1.253 1_556 S
C810 O811 1.227 . S
O811 C810 1.227 . S
N812 Co798 2.140 . S
N812 C815 1.346 . S
N812 C816 1.345 . S
C813 C814 1.387 . S
C813 C817 1.391 . S
C814 C813 1.387 . S
C814 C815 1.369 . S
C814 H823 0.929 . S
C815 N812 1.346 . S
C815 C814 1.369 . S
C815 H818 0.928 . S
C816 N812 1.345 . S
C816 C817 1.371 . S
C816 H819 0.931 . S
C817 C813 1.391 . S
C817 C816 1.371 . S
C817 H824 0.930 . S
H818 C815 0.928 . S
H819 C816 0.931 . S
H820 C796 0.930 . S
H821 C793 0.930 . S
H822 C802 0.930 . S
H823 C814 0.929 . S
H824 C817 0.930 . S
C825 C826 1.351 . S
C825 N828 1.368 . S
C825 H830 0.931 . S
C826 C825 1.351 . S
C826 N827 1.373 . S
C826 H854 0.930 . S
N827 C826 1.373 . S
N827 C829 1.340 . S
N828 C825 1.368 . S
N828 C829 1.321 . S
N828 Co831 2.135 . S
C829 N827 1.340 . S
C829 N828 1.321 . S
C829 H853 0.930 . S
H830 C825 0.931 . S
Co831 N828 2.135 . S
Co831 N834 2.121 . S
Co831 O839 2.055 . S
Co831 O842 2.039 . S
Co831 N845 2.140 . S
C832 O833 1.227 . S
C832 O842 1.265 . S
O833 C832 1.227 . S
N834 Co831 2.121 . S
N834 C836 1.375 . S
N834 C837 1.313 . S
C835 C836 1.338 . S
C835 N838 1.377 . S
C835 H855 0.930 . S
C836 N834 1.375 . S
C836 C835 1.338 . S
C836 H840 0.931 . S
C837 N834 1.313 . S
C837 N838 1.344 . S
C837 H841 0.930 . S
N838 C835 1.377 . S
N838 C837 1.344 . S
O839 Co831 2.055 . S
O839 C843 1.253 . S
H840 C836 0.931 . S
H841 C837 0.930 . S
O842 Co831 2.039 . S
O842 C832 1.265 . S
C843 O839 1.253 . S
C843 O844 1.227 . S
O844 C843 1.227 . S
N845 Co831 2.140 . S
N845 C848 1.346 . S
N845 C849 1.345 . S
C846 C847 1.387 . S
C846 C850 1.391 . S
C847 C846 1.387 . S
C847 C848 1.369 . S
C847 H856 0.929 . S
C848 N845 1.346 . S
C848 C847 1.369 . S
C848 H851 0.928 . S
C849 N845 1.345 . S
C849 C850 1.371 . S
C849 H852 0.931 . S
C850 C846 1.391 . S
C850 C849 1.371 . S
C850 H857 0.930 . S
H851 C848 0.928 . S
H852 C849 0.931 . S
H853 C829 0.930 . S
H854 C826 0.930 . S
H855 C835 0.930 . S
H856 C847 0.929 . S
H857 C850 0.930 . S
C858 C859 1.351 . S
C858 N861 1.368 . S
C858 H863 0.931 . S
C859 C858 1.351 . S
C859 N860 1.373 . S
C859 H887 0.930 . S
N860 C859 1.373 . S
N860 C862 1.340 . S
N861 C858 1.368 . S
N861 C862 1.321 . S
N861 Co864 2.135 . S
C862 N860 1.340 . S
C862 N861 1.321 . S
C862 H886 0.930 . S
H863 C858 0.931 . S
Co864 N861 2.135 . S
Co864 N867 2.121 . S
Co864 O872 2.055 . S
Co864 O875 2.039 . S
Co864 N878 2.140 . S
C865 O866 1.227 . S
C865 O875 1.265 . S
O866 C865 1.227 . S
N867 Co864 2.121 . S
N867 C869 1.375 . S
N867 C870 1.313 . S
C868 C869 1.338 . S
C868 N871 1.377 . S
C868 H888 0.930 . S
C869 N867 1.375 . S
C869 C868 1.338 . S
C869 H873 0.931 . S
C870 N867 1.313 . S
C870 N871 1.344 . S
C870 H874 0.930 . S
N871 C868 1.377 . S
N871 C870 1.344 . S
O872 Co864 2.055 . S
O872 C876 1.253 . S
H873 C869 0.931 . S
H874 C870 0.930 . S
O875 Co864 2.039 . S
O875 C865 1.265 . S
C876 O872 1.253 . S
C876 O877 1.227 . S
O877 C876 1.227 . S
N878 Co864 2.140 . S
N878 C881 1.346 . S
N878 C882 1.345 . S
C879 C880 1.387 . S
C879 C883 1.391 . S
C880 C879 1.387 . S
C880 C881 1.369 . S
C880 H889 0.929 . S
C881 N878 1.346 . S
C881 C880 1.369 . S
C881 H884 0.928 . S
C882 N878 1.345 . S
C882 C883 1.371 . S
C882 H885 0.931 . S
C883 C879 1.391 . S
C883 C882 1.371 . S
C883 H890 0.930 . S
H884 C881 0.928 . S
H885 C882 0.931 . S
H886 C862 0.930 . S
H887 C859 0.930 . S
H888 C868 0.930 . S
H889 C880 0.929 . S
H890 C883 0.930 . S
C891 C892 1.351 . S
C891 N894 1.368 . S
C891 H896 0.931 . S
C892 C891 1.351 . S
C892 N893 1.373 . S
C892 H920 0.930 . S
N893 C892 1.373 . S
N893 C895 1.340 . S
N894 C891 1.368 . S
N894 C895 1.321 . S
N894 Co897 2.135 . S
C895 N893 1.340 . S
C895 N894 1.321 . S
C895 H919 0.930 . S
H896 C891 0.931 . S
Co897 N894 2.135 . S
Co897 N900 2.121 . S
Co897 O905 2.055 . S
Co897 O908 2.039 . S
Co897 N911 2.140 . S
C898 O899 1.227 . S
C898 O908 1.265 . S
O899 C898 1.227 . S
N900 Co897 2.121 . S
N900 C902 1.375 . S
N900 C903 1.313 . S
C901 C902 1.338 . S
C901 N904 1.377 . S
C901 H921 0.930 . S
C902 N900 1.375 . S
C902 C901 1.338 . S
C902 H906 0.931 . S
C903 N900 1.313 . S
C903 N904 1.344 . S
C903 H907 0.930 . S
N904 C901 1.377 . S
N904 C903 1.344 . S
O905 Co897 2.055 . S
O905 C909 1.253 . S
H906 C902 0.931 . S
H907 C903 0.930 . S
O908 Co897 2.039 . S
O908 C898 1.265 . S
C909 O905 1.253 . S
C909 O910 1.227 . S
O910 C909 1.227 . S
N911 Co897 2.140 . S
N911 C914 1.346 . S
N911 C915 1.345 . S
C912 C913 1.387 . S
C912 C916 1.391 . S
C913 C912 1.387 . S
C913 C914 1.369 . S
C913 H922 0.929 . S
C914 N911 1.346 . S
C914 C913 1.369 . S
C914 H917 0.928 . S
C915 N911 1.345 . S
C915 C916 1.371 . S
C915 H918 0.931 . S
C916 C912 1.391 . S
C916 C915 1.371 . S
C916 H923 0.930 . S
H917 C914 0.928 . S
H918 C915 0.931 . S
H919 C895 0.930 . S
H920 C892 0.930 . S
H921 C901 0.930 . S
H922 C913 0.929 . S
H923 C916 0.930 . S
C924 C925 1.351 . S
C924 N927 1.368 . S
C924 H929 0.931 . S
C925 C924 1.351 . S
C925 N926 1.373 . S
C925 H953 0.930 . S
N926 C925 1.373 . S
N926 C928 1.340 . S
N927 C924 1.368 . S
N927 C928 1.321 . S
N927 Co930 2.135 . S
C928 N926 1.340 . S
C928 N927 1.321 . S
C928 H952 0.930 . S
H929 C924 0.931 . S
Co930 N927 2.135 . S
Co930 N933 2.121 . S
Co930 O938 2.055 . S
Co930 O941 2.039 . S
Co930 N944 2.140 . S
C931 O932 1.227 . S
C931 O941 1.265 . S
O932 C931 1.227 . S
N933 Co930 2.121 . S
N933 C935 1.375 . S
N933 C936 1.313 . S
C934 C935 1.338 . S
C934 N937 1.377 . S
C934 H954 0.930 . S
C935 N933 1.375 . S
C935 C934 1.338 . S
C935 H939 0.931 . S
C936 N933 1.313 . S
C936 N937 1.344 . S
C936 H940 0.930 . S
N937 C934 1.377 . S
N937 C936 1.344 . S
O938 Co930 2.055 . S
O938 C942 1.253 . S
H939 C935 0.931 . S
H940 C936 0.930 . S
O941 Co930 2.039 . S
O941 C931 1.265 . S
C942 O938 1.253 . S
C942 O943 1.227 . S
O943 C942 1.227 . S
N944 Co930 2.140 . S
N944 C947 1.346 . S
N944 C948 1.345 . S
C945 C946 1.387 . S
C945 C949 1.391 . S
C946 C945 1.387 . S
C946 C947 1.369 . S
C946 H955 0.929 . S
C947 N944 1.346 . S
C947 C946 1.369 . S
C947 H950 0.928 . S
C948 N944 1.345 . S
C948 C949 1.371 . S
C948 H951 0.931 . S
C949 C945 1.391 . S
C949 C948 1.371 . S
C949 H956 0.930 . S
H950 C947 0.928 . S
H951 C948 0.931 . S
H952 C928 0.930 . S
H953 C925 0.930 . S
H954 C934 0.930 . S
H955 C946 0.929 . S
H956 C949 0.930 . S
C957 C958 1.351 . S
C957 N960 1.368 . S
C957 H962 0.931 . S
C958 C957 1.351 . S
C958 N959 1.373 . S
C958 H986 0.930 . S
N959 C958 1.373 . S
N959 C961 1.340 . S
N960 C957 1.368 . S
N960 C961 1.321 . S
N960 Co963 2.135 . S
C961 N959 1.340 . S
C961 N960 1.321 . S
C961 H985 0.930 . S
H962 C957 0.931 . S
Co963 N960 2.135 . S
Co963 N966 2.121 . S
Co963 O971 2.055 . S
Co963 O974 2.039 . S
Co963 N977 2.140 . S
C964 O965 1.227 . S
C964 O974 1.265 . S
O965 C964 1.227 . S
N966 Co963 2.121 . S
N966 C968 1.375 . S
N966 C969 1.313 . S
C967 C968 1.338 . S
C967 N970 1.377 . S
C967 H987 0.930 . S
C968 N966 1.375 . S
C968 C967 1.338 . S
C968 H972 0.931 . S
C969 N966 1.313 . S
C969 N970 1.344 . S
C969 H973 0.930 . S
N970 C967 1.377 . S
N970 C969 1.344 . S
O971 Co963 2.055 . S
O971 C975 1.253 . S
H972 C968 0.931 . S
H973 C969 0.930 . S
O974 Co963 2.039 . S
O974 C964 1.265 . S
C975 O971 1.253 . S
C975 O976 1.227 . S
O976 C975 1.227 . S
N977 Co963 2.140 . S
N977 C980 1.346 . S
N977 C981 1.345 . S
C978 C979 1.387 . S
C978 C982 1.391 . S
C979 C978 1.387 . S
C979 C980 1.369 . S
C979 H988 0.929 . S
C980 N977 1.346 . S
C980 C979 1.369 . S
C980 H983 0.928 . S
C981 N977 1.345 . S
C981 C982 1.371 . S
C981 H984 0.931 . S
C982 C978 1.391 . S
C982 C981 1.371 . S
C982 H989 0.930 . S
H983 C980 0.928 . S
H984 C981 0.931 . S
H985 C961 0.930 . S
H986 C958 0.930 . S
H987 C967 0.930 . S
H988 C979 0.929 . S
H989 C982 0.930 . S
C990 C991 1.351 . S
C990 N993 1.368 . S
C990 H995 0.931 . S
C991 C990 1.351 . S
C991 N992 1.373 . S
C991 H1019 0.930 . S
N992 C991 1.373 . S
N992 C994 1.340 . S
N993 C990 1.368 . S
N993 C994 1.321 . S
N993 Co996 2.135 . S
C994 N992 1.340 . S
C994 N993 1.321 . S
C994 H1018 0.930 . S
H995 C990 0.931 . S
Co996 N993 2.135 . S
Co996 N999 2.121 . S
Co996 O1004 2.055 . S
Co996 O1007 2.039 . S
Co996 N1010 2.140 . S
C997 O998 1.227 . S
C997 O1007 1.265 . S
O998 C997 1.227 . S
N999 Co996 2.121 . S
N999 C1001 1.375 . S
N999 C1002 1.313 . S
C1000 C1001 1.338 . S
C1000 N1003 1.377 . S
C1000 H1020 0.930 . S
C1001 N999 1.375 . S
C1001 C1000 1.338 . S
C1001 H1005 0.931 . S
C1002 N999 1.313 . S
C1002 N1003 1.344 . S
C1002 H1006 0.930 . S
N1003 C1000 1.377 . S
N1003 C1002 1.344 . S
O1004 Co996 2.055 . S
O1004 C1008 1.253 1_556 S
H1005 C1001 0.931 . S
H1006 C1002 0.930 . S
O1007 Co996 2.039 . S
O1007 C997 1.265 . S
C1008 O1004 1.253 1_554 S
C1008 O1009 1.227 . S
O1009 C1008 1.227 . S
N1010 Co996 2.140 . S
N1010 C1013 1.346 . S
N1010 C1014 1.345 . S
C1011 C1012 1.387 . S
C1011 C1015 1.391 . S
C1012 C1011 1.387 . S
C1012 C1013 1.369 . S
C1012 H1021 0.929 . S
C1013 N1010 1.346 . S
C1013 C1012 1.369 . S
C1013 H1016 0.928 . S
C1014 N1010 1.345 . S
C1014 C1015 1.371 . S
C1014 H1017 0.931 . S
C1015 C1011 1.391 . S
C1015 C1014 1.371 . S
C1015 H1022 0.930 . S
H1016 C1013 0.928 . S
H1017 C1014 0.931 . S
H1018 C994 0.930 . S
H1019 C991 0.930 . S
H1020 C1000 0.930 . S
H1021 C1012 0.929 . S
H1022 C1015 0.930 . S
C1023 C1024 1.351 . S
C1023 N1026 1.368 . S
C1023 H1028 0.931 . S
C1024 C1023 1.351 . S
C1024 N1025 1.373 . S
C1024 H1052 0.930 . S
N1025 C1024 1.373 . S
N1025 C1027 1.340 . S
N1026 C1023 1.368 . S
N1026 C1027 1.321 . S
N1026 Co1029 2.135 . S
C1027 N1025 1.340 . S
C1027 N1026 1.321 . S
C1027 H1051 0.930 . S
H1028 C1023 0.931 . S
Co1029 N1026 2.135 . S
Co1029 N1032 2.121 . S
Co1029 O1037 2.055 . S
Co1029 O1040 2.039 . S
Co1029 N1043 2.140 . S
C1030 O1031 1.227 . S
C1030 O1040 1.265 . S
O1031 C1030 1.227 . S
N1032 Co1029 2.121 . S
N1032 C1034 1.375 . S
N1032 C1035 1.313 . S
C1033 C1034 1.338 . S
C1033 N1036 1.377 . S
C1033 H1053 0.930 . S
C1034 N1032 1.375 . S
C1034 C1033 1.338 . S
C1034 H1038 0.931 . S
C1035 N1032 1.313 . S
C1035 N1036 1.344 . S
C1035 H1039 0.930 . S
N1036 C1033 1.377 . S
N1036 C1035 1.344 . S
O1037 Co1029 2.055 . S
O1037 C1041 1.253 . S
H1038 C1034 0.931 . S
H1039 C1035 0.930 . S
O1040 Co1029 2.039 . S
O1040 C1030 1.265 . S
C1041 O1037 1.253 . S
C1041 O1042 1.227 . S
O1042 C1041 1.227 . S
N1043 Co1029 2.140 . S
N1043 C1046 1.346 . S
N1043 C1047 1.345 . S
C1044 C1045 1.387 . S
C1044 C1048 1.391 . S
C1045 C1044 1.387 . S
C1045 C1046 1.369 . S
C1045 H1054 0.929 . S
C1046 N1043 1.346 . S
C1046 C1045 1.369 . S
C1046 H1049 0.928 . S
C1047 N1043 1.345 . S
C1047 C1048 1.371 . S
C1047 H1050 0.931 . S
C1048 C1044 1.391 . S
C1048 C1047 1.371 . S
C1048 H1055 0.930 . S
H1049 C1046 0.928 . S
H1050 C1047 0.931 . S
H1051 C1027 0.930 . S
H1052 C1024 0.930 . S
H1053 C1033 0.930 . S
H1054 C1045 0.929 . S
H1055 C1048 0.930 . S
C1056 C1057 1.363 . S
C1056 C1062 1.379 . S
C1056 N1064 1.356 . S
C1057 C1056 1.363 . S
C1057 C1063 1.363 . S
C1058 C1059 1.363 . S
C1058 C1063 1.379 . S
C1058 N1065 1.356 . S
C1059 C1058 1.363 . S
C1059 C1062 1.363 . S
N1060 C1062 1.356 . S
N1060 H1072 0.984 . S
N1060 H1073 0.985 . S
N1061 C1063 1.356 . S
N1061 H1066 0.984 . S
N1061 H1067 0.985 . S
C1062 C1056 1.379 . S
C1062 C1059 1.363 . S
C1062 N1060 1.356 . S
C1063 C1057 1.363 . S
C1063 C1058 1.379 . S
C1063 N1061 1.356 . S
N1064 C1056 1.356 . S
N1064 H1070 0.984 . S
N1064 H1071 0.984 1_554 S
N1065 C1058 1.356 . S
N1065 H1068 0.984 . S
N1065 H1069 0.985 . S
H1066 N1061 0.984 . S
H1067 N1061 0.985 . S
H1068 N1065 0.984 . S
H1069 N1065 0.985 . S
H1070 N1064 0.984 . S
H1071 N1064 0.984 1_556 S
H1072 N1060 0.984 . S
H1073 N1060 0.985 . S
C1074 C1075 1.363 . S
C1074 C1080 1.379 . S
C1074 N1082 1.356 . S
C1075 C1074 1.363 . S
C1075 C1081 1.363 . S
C1076 C1077 1.363 . S
C1076 C1081 1.379 . S
C1076 N1083 1.356 . S
C1077 C1076 1.363 . S
C1077 C1080 1.363 . S
N1078 C1080 1.356 . S
N1078 H1090 0.984 . S
N1078 H1091 0.985 . S
N1079 C1081 1.356 . S
N1079 H1084 0.984 . S
N1079 H1085 0.985 . S
C1080 C1074 1.379 . S
C1080 C1077 1.363 . S
C1080 N1078 1.356 . S
C1081 C1075 1.363 . S
C1081 C1076 1.379 . S
C1081 N1079 1.356 . S
N1082 C1074 1.356 . S
N1082 H1088 0.984 . S
N1082 H1089 0.984 . S
N1083 C1076 1.356 . S
N1083 H1086 0.984 . S
N1083 H1087 0.985 . S
H1084 N1079 0.984 . S
H1085 N1079 0.985 . S
H1086 N1083 0.984 . S
H1087 N1083 0.985 . S
H1088 N1082 0.984 . S
H1089 N1082 0.984 . S
H1090 N1078 0.984 . S
H1091 N1078 0.985 . S
C1092 C1093 1.363 . S
C1092 C1098 1.379 . S
C1092 N1100 1.356 . S
C1093 C1092 1.363 . S
C1093 C1099 1.363 . S
C1094 C1095 1.363 . S
C1094 C1099 1.379 . S
C1094 N1101 1.356 . S
C1095 C1094 1.363 . S
C1095 C1098 1.363 . S
N1096 C1098 1.356 . S
N1096 H1108 0.984 . S
N1096 H1109 0.985 . S
N1097 C1099 1.356 . S
N1097 H1102 0.984 . S
N1097 H1103 0.985 . S
C1098 C1092 1.379 . S
C1098 C1095 1.363 . S
C1098 N1096 1.356 . S
C1099 C1093 1.363 . S
C1099 C1094 1.379 . S
C1099 N1097 1.356 . S
N1100 C1092 1.356 . S
N1100 H1106 0.984 . S
N1100 H1107 0.984 . S
N1101 C1094 1.356 . S
N1101 H1104 0.984 . S
N1101 H1105 0.985 . S
H1102 N1097 0.984 . S
H1103 N1097 0.985 . S
H1104 N1101 0.984 . S
H1105 N1101 0.985 . S
H1106 N1100 0.984 . S
H1107 N1100 0.984 . S
H1108 N1096 0.984 . S
H1109 N1096 0.985 . S
C1110 C1111 1.363 . S
C1110 C1116 1.379 . S
C1110 N1118 1.356 . S
C1111 C1110 1.363 . S
C1111 C1117 1.363 . S
C1112 C1113 1.363 . S
C1112 C1117 1.379 . S
C1112 N1119 1.356 . S
C1113 C1112 1.363 . S
C1113 C1116 1.363 . S
N1114 C1116 1.356 . S
N1114 H1126 0.984 . S
N1114 H1127 0.999 . S
N1115 C1117 1.356 . S
N1115 H1120 0.984 . S
N1115 H1121 0.985 . S
C1116 C1110 1.379 . S
C1116 C1113 1.363 . S
C1116 N1114 1.356 . S
C1117 C1111 1.363 . S
C1117 C1112 1.379 . S
C1117 N1115 1.356 . S
N1118 C1110 1.356 . S
N1118 H1124 0.984 . S
N1118 H1125 0.984 . S
N1119 C1112 1.356 . S
N1119 H1122 0.984 1_556 S
N1119 H1123 0.985 . S
H1120 N1115 0.984 . S
H1121 N1115 0.985 . S
H1122 N1119 0.984 1_554 S
H1123 N1119 0.985 . S
H1124 N1118 0.984 . S
H1125 N1118 0.984 . S
H1126 N1114 0.984 . S
H1127 N1114 0.999 . S
C1128 C1129 1.363 . S
C1128 C1134 1.379 . S
C1128 N1136 1.356 . S
C1129 C1128 1.363 . S
C1129 C1135 1.363 . S
C1130 C1131 1.363 . S
C1130 C1135 1.379 . S
C1130 N1137 1.356 . S
C1131 C1130 1.363 . S
C1131 C1134 1.363 . S
N1132 C1134 1.356 . S
N1132 H1144 0.984 . S
N1132 H1145 0.985 . S
N1133 C1135 1.356 . S
N1133 H1138 0.984 . S
N1133 H1139 0.985 . S
C1134 C1128 1.379 . S
C1134 C1131 1.363 . S
C1134 N1132 1.356 . S
C1135 C1129 1.363 . S
C1135 C1130 1.379 . S
C1135 N1133 1.356 . S
N1136 C1128 1.356 . S
N1136 H1142 0.984 . S
N1136 H1143 0.984 . S
N1137 C1130 1.356 . S
N1137 H1140 0.984 1_556 S
N1137 H1141 0.985 . S
H1138 N1133 0.984 . S
H1139 N1133 0.985 . S
H1140 N1137 0.984 1_554 S
H1141 N1137 0.985 . S
H1142 N1136 0.984 . S
H1143 N1136 0.984 . S
H1144 N1132 0.984 . S
H1145 N1132 0.985 . S
C1146 C1147 1.363 . S
C1146 C1152 1.379 . S
C1146 N1154 1.356 . S
C1147 C1146 1.363 . S
C1147 C1153 1.363 . S
C1148 C1149 1.363 . S
C1148 C1153 1.379 . S
C1148 N1155 1.356 . S
C1149 C1148 1.363 . S
C1149 C1152 1.363 . S
N1150 C1152 1.356 . S
N1150 H1162 0.984 . S
N1150 H1163 0.985 . S
N1151 C1153 1.356 . S
N1151 H1156 0.984 . S
N1151 H1157 0.985 . S
C1152 C1146 1.379 . S
C1152 C1149 1.363 . S
C1152 N1150 1.356 . S
C1153 C1147 1.363 . S
C1153 C1148 1.379 . S
C1153 N1151 1.356 . S
N1154 C1146 1.356 . S
N1154 H1160 0.984 . S
N1154 H1161 0.984 . S
N1155 C1148 1.356 . S
N1155 H1158 0.984 . S
N1155 H1159 0.985 . S
H1156 N1151 0.984 . S
H1157 N1151 0.985 . S
H1158 N1155 0.984 . S
H1159 N1155 0.985 . S
H1160 N1154 0.984 . S
H1161 N1154 0.984 . S
H1162 N1150 0.984 . S
H1163 N1150 0.985 . S
C1164 C1165 1.363 . S
C1164 C1170 1.379 . S
C1164 N1172 1.356 . S
C1165 C1164 1.363 . S
C1165 C1171 1.363 . S
C1166 C1167 1.363 . S
C1166 C1171 1.379 . S
C1166 N1173 1.356 . S
C1167 C1166 1.363 . S
C1167 C1170 1.363 . S
N1168 C1170 1.356 . S
N1168 H1180 0.984 . S
N1168 H1181 0.985 . S
N1169 C1171 1.356 . S
N1169 H1174 0.984 . S
N1169 H1175 0.985 . S
C1170 C1164 1.379 . S
C1170 C1167 1.363 . S
C1170 N1168 1.356 . S
C1171 C1165 1.363 . S
C1171 C1166 1.379 . S
C1171 N1169 1.356 . S
N1172 C1164 1.356 . S
N1172 H1178 0.984 . S
N1172 H1179 0.984 . S
N1173 C1166 1.356 . S
N1173 H1176 0.984 . S
N1173 H1177 0.985 . S
H1174 N1169 0.984 . S
H1175 N1169 0.985 . S
H1176 N1173 0.984 . S
H1177 N1173 0.985 . S
H1178 N1172 0.984 . S
H1179 N1172 0.984 . S
H1180 N1168 0.984 . S
H1181 N1168 0.985 . S
C1182 C1183 1.363 . S
C1182 C1188 1.379 . S
C1182 N1190 1.356 . S
C1183 C1182 1.363 . S
C1183 C1189 1.363 . S
C1184 C1185 1.363 . S
C1184 C1189 1.379 . S
C1184 N1191 1.356 . S
C1185 C1184 1.363 . S
C1185 C1188 1.363 . S
N1186 C1188 1.356 . S
N1186 H1198 0.984 . S
N1186 H1199 0.985 . S
N1187 C1189 1.356 . S
N1187 H1192 0.984 . S
N1187 H1193 0.985 . S
C1188 C1182 1.379 . S
C1188 C1185 1.363 . S
C1188 N1186 1.356 . S
C1189 C1183 1.363 . S
C1189 C1184 1.379 . S
C1189 N1187 1.356 . S
N1190 C1182 1.356 . S
N1190 H1196 0.984 . S
N1190 H1197 0.984 . S
N1191 C1184 1.356 . S
N1191 H1194 0.984 1_554 S
N1191 H1195 0.985 . S
H1192 N1187 0.984 . S
H1193 N1187 0.985 . S
H1194 N1191 0.984 1_556 S
H1195 N1191 0.985 . S
H1196 N1190 0.984 . S
H1197 N1190 0.984 . S
H1198 N1186 0.984 . S
H1199 N1186 0.985 . S
C1200 C1201 1.363 . S
C1200 C1206 1.379 . S
C1200 N1208 1.356 . S
C1201 C1200 1.363 . S
C1201 C1207 1.363 . S
C1202 C1203 1.363 . S
C1202 C1207 1.379 . S
C1202 N1209 1.356 . S
C1203 C1202 1.363 . S
C1203 C1206 1.363 . S
N1204 C1206 1.356 . S
N1204 H1216 0.984 . S
N1204 H1217 0.985 . S
N1205 C1207 1.356 . S
N1205 H1210 0.984 . S
N1205 H1211 0.985 . S
C1206 C1200 1.379 . S
C1206 C1203 1.363 . S
C1206 N1204 1.356 . S
C1207 C1201 1.363 . S
C1207 C1202 1.379 . S
C1207 N1205 1.356 . S
N1208 C1200 1.356 . S
N1208 H1214 0.984 . S
N1208 H1215 0.984 . S
N1209 C1202 1.356 . S
N1209 H1212 0.984 . S
N1209 H1213 0.985 . S
H1210 N1205 0.984 . S
H1211 N1205 0.985 . S
H1212 N1209 0.984 . S
H1213 N1209 0.985 . S
H1214 N1208 0.984 . S
H1215 N1208 0.984 . S
H1216 N1204 0.984 . S
H1217 N1204 0.985 . S
C1218 C1219 1.363 . S
C1218 C1224 1.379 . S
C1218 N1226 1.356 . S
C1219 C1218 1.363 . S
C1219 C1225 1.363 . S
C1220 C1221 1.363 . S
C1220 C1225 1.379 . S
C1220 N1227 1.356 . S
C1221 C1220 1.363 . S
C1221 C1224 1.363 . S
N1222 C1224 1.356 . S
N1222 H1234 0.984 . S
N1222 H1235 0.988 . S
N1223 C1225 1.356 . S
N1223 H1228 0.984 . S
N1223 H1229 0.985 . S
C1224 C1218 1.379 . S
C1224 C1221 1.363 . S
C1224 N1222 1.356 . S
C1225 C1219 1.363 . S
C1225 C1220 1.379 . S
C1225 N1223 1.356 . S
N1226 C1218 1.356 . S
N1226 H1232 0.984 . S
N1226 H1233 0.984 . S
N1227 C1220 1.356 . S
N1227 H1230 0.984 1_556 S
N1227 H1231 0.985 . S
H1228 N1223 0.984 . S
H1229 N1223 0.985 . S
H1230 N1227 0.984 1_554 S
H1231 N1227 0.985 . S
H1232 N1226 0.984 . S
H1233 N1226 0.984 . S
H1234 N1222 0.984 . S
H1235 N1222 0.988 . S
C1236 C1237 1.363 . S
C1236 C1242 1.379 . S
C1236 N1244 1.356 . S
C1237 C1236 1.363 . S
C1237 C1243 1.363 . S
C1238 C1239 1.363 . S
C1238 C1243 1.379 . S
C1238 N1245 1.356 . S
C1239 C1238 1.363 . S
C1239 C1242 1.363 . S
N1240 C1242 1.356 . S
N1240 H1252 0.984 . S
N1240 H1253 0.985 . S
N1241 C1243 1.356 . S
N1241 H1246 0.984 . S
N1241 H1247 0.985 . S
C1242 C1236 1.379 . S
C1242 C1239 1.363 . S
C1242 N1240 1.356 . S
C1243 C1237 1.363 . S
C1243 C1238 1.379 . S
C1243 N1241 1.356 . S
N1244 C1236 1.356 . S
N1244 H1250 0.984 . S
N1244 H1251 0.984 1_554 S
N1245 C1238 1.356 . S
N1245 H1248 0.984 . S
N1245 H1249 0.985 . S
H1246 N1241 0.984 . S
H1247 N1241 0.985 . S
H1248 N1245 0.984 . S
H1249 N1245 0.985 . S
H1250 N1244 0.984 . S
H1251 N1244 0.984 1_556 S
H1252 N1240 0.984 . S
H1253 N1240 0.985 . S
C1254 C1255 1.363 . S
C1254 C1260 1.379 . S
C1254 N1262 1.356 . S
C1255 C1254 1.363 . S
C1255 C1261 1.363 . S
C1256 C1257 1.363 . S
C1256 C1261 1.379 . S
C1256 N1263 1.356 . S
C1257 C1256 1.363 . S
C1257 C1260 1.363 . S
N1258 C1260 1.356 . S
N1258 H1270 0.984 . S
N1258 H1271 0.985 . S
N1259 C1261 1.356 . S
N1259 H1264 0.984 . S
N1259 H1265 0.985 . S
C1260 C1254 1.379 . S
C1260 C1257 1.363 . S
C1260 N1258 1.356 . S
C1261 C1255 1.363 . S
C1261 C1256 1.379 . S
C1261 N1259 1.356 . S
N1262 C1254 1.356 . S
N1262 H1268 0.984 . S
N1262 H1269 0.984 . S
N1263 C1256 1.356 . S
N1263 H1266 0.984 . S
N1263 H1267 0.985 . S
H1264 N1259 0.984 . S
H1265 N1259 0.985 . S
H1266 N1263 0.984 . S
H1267 N1263 0.985 . S
H1268 N1262 0.984 . S
H1269 N1262 0.984 . S
H1270 N1258 0.984 . S
H1271 N1258 0.985 . S
C1272 C1273 1.363 . S
C1272 C1278 1.379 . S
C1272 N1280 1.356 . S
C1273 C1272 1.363 . S
C1273 C1279 1.363 . S
C1274 C1275 1.363 . S
C1274 C1279 1.379 . S
C1274 N1281 1.356 . S
C1275 C1274 1.363 . S
C1275 C1278 1.363 . S
N1276 C1278 1.356 . S
N1276 H1288 0.984 . S
N1276 H1289 0.985 . S
N1277 C1279 1.356 . S
N1277 H1282 0.984 . S
N1277 H1283 0.985 . S
C1278 C1272 1.379 . S
C1278 C1275 1.363 . S
C1278 N1276 1.356 . S
C1279 C1273 1.363 . S
C1279 C1274 1.379 . S
C1279 N1277 1.356 . S
N1280 C1272 1.356 . S
N1280 H1286 0.984 . S
N1280 H1287 0.984 . S
N1281 C1274 1.356 . S
N1281 H1284 0.984 . S
N1281 H1285 0.985 . S
H1282 N1277 0.984 . S
H1283 N1277 0.985 . S
H1284 N1281 0.984 . S
H1285 N1281 0.985 . S
H1286 N1280 0.984 . S
H1287 N1280 0.984 . S
H1288 N1276 0.984 . S
H1289 N1276 0.985 . S
C1290 C1291 1.363 . S
C1290 C1296 1.379 . S
C1290 N1298 1.356 . S
C1291 C1290 1.363 . S
C1291 C1297 1.363 . S
C1292 C1293 1.363 . S
C1292 C1297 1.379 . S
C1292 N1299 1.356 . S
C1293 C1292 1.363 . S
C1293 C1296 1.363 . S
N1294 C1296 1.356 . S
N1294 H1306 0.984 . S
N1294 H1307 0.985 . S
N1295 C1297 1.356 . S
N1295 H1300 0.987 . S
N1295 H1301 0.985 . S
C1296 C1290 1.379 . S
C1296 C1293 1.363 . S
C1296 N1294 1.356 . S
C1297 C1291 1.363 . S
C1297 C1292 1.379 . S
C1297 N1295 1.356 . S
N1298 C1290 1.356 . S
N1298 H1304 0.984 . S
N1298 H1305 0.984 1_554 S
N1299 C1292 1.356 . S
N1299 H1302 0.984 . S
N1299 H1303 0.985 . S
H1300 N1295 0.987 . S
H1301 N1295 0.985 . S
H1302 N1299 0.984 . S
H1303 N1299 0.985 . S
H1304 N1298 0.984 . S
H1305 N1298 0.984 1_556 S
H1306 N1294 0.984 . S
H1307 N1294 0.985 . S
C1308 C1309 1.363 . S
C1308 C1314 1.379 . S
C1308 N1316 1.356 . S
C1309 C1308 1.363 . S
C1309 C1315 1.363 . S
C1310 C1311 1.363 . S
C1310 C1315 1.379 . S
C1310 N1317 1.356 . S
C1311 C1310 1.363 . S
C1311 C1314 1.363 . S
N1312 C1314 1.356 . S
N1312 H1324 0.984 . S
N1312 H1325 0.985 . S
N1313 C1315 1.356 . S
N1313 H1318 0.984 1_556 S
N1313 H1319 0.985 . S
C1314 C1308 1.379 . S
C1314 C1311 1.363 . S
C1314 N1312 1.356 . S
C1315 C1309 1.363 . S
C1315 C1310 1.379 . S
C1315 N1313 1.356 . S
N1316 C1308 1.356 . S
N1316 H1322 0.984 . S
N1316 H1323 0.986 . S
N1317 C1310 1.356 . S
N1317 H1320 0.984 . S
N1317 H1321 0.985 . S
H1318 N1313 0.984 1_554 S
H1319 N1313 0.985 . S
H1320 N1317 0.984 . S
H1321 N1317 0.985 . S
H1322 N1316 0.984 . S
H1323 N1316 0.986 . S
H1324 N1312 0.984 . S
H1325 N1312 0.985 . S
C1326 C1327 1.363 . S
C1326 C1332 1.379 . S
C1326 N1334 1.356 . S
C1327 C1326 1.363 . S
C1327 C1333 1.363 . S
C1328 C1329 1.363 . S
C1328 C1333 1.379 . S
C1328 N1335 1.356 . S
C1329 C1328 1.363 . S
C1329 C1332 1.363 . S
N1330 C1332 1.356 . S
N1330 H1342 0.984 . S
N1330 H1343 0.985 . S
N1331 C1333 1.356 . S
N1331 H1336 0.984 . S
N1331 H1337 0.985 . S
C1332 C1326 1.379 . S
C1332 C1329 1.363 . S
C1332 N1330 1.356 . S
C1333 C1327 1.363 . S
C1333 C1328 1.379 . S
C1333 N1331 1.356 . S
N1334 C1326 1.356 . S
N1334 H1340 0.984 . S
N1334 H1341 0.984 . S
N1335 C1328 1.356 . S
N1335 H1338 0.984 . S
N1335 H1339 0.985 . S
H1336 N1331 0.984 . S
H1337 N1331 0.985 . S
H1338 N1335 0.984 . S
H1339 N1335 0.985 . S
H1340 N1334 0.984 . S
H1341 N1334 0.984 . S
H1342 N1330 0.984 . S
H1343 N1330 0.985 . S
C1344 C1345 1.363 . S
C1344 C1350 1.379 . S
C1344 N1352 1.356 . S
C1345 C1344 1.363 . S
C1345 C1351 1.363 . S
C1346 C1347 1.363 . S
C1346 C1351 1.379 . S
C1346 N1353 1.356 . S
C1347 C1346 1.363 . S
C1347 C1350 1.363 . S
N1348 C1350 1.356 . S
N1348 H1360 0.984 . S
N1348 H1361 0.985 . S
N1349 C1351 1.356 . S
N1349 H1354 0.984 . S
N1349 H1355 0.985 . S
C1350 C1344 1.379 . S
C1350 C1347 1.363 . S
C1350 N1348 1.356 . S
C1351 C1345 1.363 . S
C1351 C1346 1.379 . S
C1351 N1349 1.356 . S
N1352 C1344 1.356 . S
N1352 H1358 0.984 . S
N1352 H1359 0.984 . S
N1353 C1346 1.356 . S
N1353 H1356 0.984 . S
N1353 H1357 0.985 . S
H1354 N1349 0.984 . S
H1355 N1349 0.985 . S
H1356 N1353 0.984 . S
H1357 N1353 0.985 . S
H1358 N1352 0.984 . S
H1359 N1352 0.984 . S
H1360 N1348 0.984 . S
H1361 N1348 0.985 . S
C1362 C1363 1.363 . S
C1362 C1368 1.379 . S
C1362 N1370 1.356 . S
C1363 C1362 1.363 . S
C1363 C1369 1.363 . S
C1364 C1365 1.363 . S
C1364 C1369 1.379 . S
C1364 N1371 1.356 . S
C1365 C1364 1.363 . S
C1365 C1368 1.363 . S
N1366 C1368 1.356 . S
N1366 H1378 0.984 . S
N1366 H1379 0.984 1_556 S
N1367 C1369 1.356 . S
N1367 H1372 0.984 . S
N1367 H1373 0.985 . S
C1368 C1362 1.379 . S
C1368 C1365 1.363 . S
C1368 N1366 1.356 . S
C1369 C1363 1.363 . S
C1369 C1364 1.379 . S
C1369 N1367 1.356 . S
N1370 C1362 1.356 . S
N1370 H1376 0.984 . S
N1370 H1377 0.984 . S
N1371 C1364 1.356 . S
N1371 H1374 0.984 1_556 S
N1371 H1375 0.985 . S
H1372 N1367 0.984 . S
H1373 N1367 0.985 . S
H1374 N1371 0.984 1_554 S
H1375 N1371 0.985 . S
H1376 N1370 0.984 . S
H1377 N1370 0.984 . S
H1378 N1366 0.984 . S
H1379 N1366 0.984 1_554 S
C1380 C1381 1.363 . S
C1380 C1386 1.379 . S
C1380 N1388 1.356 . S
C1381 C1380 1.363 . S
C1381 C1387 1.363 . S
C1382 C1383 1.363 . S
C1382 C1387 1.379 . S
C1382 N1389 1.356 . S
C1383 C1382 1.363 . S
C1383 C1386 1.363 . S
N1384 C1386 1.356 . S
N1384 H1396 0.984 . S
N1384 H1397 0.985 . S
N1385 C1387 1.356 . S
N1385 H1390 0.984 . S
N1385 H1391 0.985 . S
C1386 C1380 1.379 . S
C1386 C1383 1.363 . S
C1386 N1384 1.356 . S
C1387 C1381 1.363 . S
C1387 C1382 1.379 . S
C1387 N1385 1.356 . S
N1388 C1380 1.356 . S
N1388 H1394 0.984 . S
N1388 H1395 0.984 1_554 S
N1389 C1382 1.356 . S
N1389 H1392 0.984 . S
N1389 H1393 0.985 . S
H1390 N1385 0.984 . S
H1391 N1385 0.985 . S
H1392 N1389 0.984 . S
H1393 N1389 0.985 . S
H1394 N1388 0.984 . S
H1395 N1388 0.984 1_556 S
H1396 N1384 0.984 . S
H1397 N1384 0.985 . S
C1398 C1399 1.363 . S
C1398 C1404 1.379 . S
C1398 N1406 1.356 . S
C1399 C1398 1.363 . S
C1399 C1405 1.363 . S
C1400 C1401 1.363 . S
C1400 C1405 1.379 . S
C1400 N1407 1.356 . S
C1401 C1400 1.363 . S
C1401 C1404 1.363 . S
N1402 C1404 1.356 . S
N1402 H1414 0.984 . S
N1402 H1415 0.985 . S
N1403 C1405 1.356 . S
N1403 H1408 0.984 . S
N1403 H1409 0.985 . S
C1404 C1398 1.379 . S
C1404 C1401 1.363 . S
C1404 N1402 1.356 . S
C1405 C1399 1.363 . S
C1405 C1400 1.379 . S
C1405 N1403 1.356 . S
N1406 C1398 1.356 . S
N1406 H1412 0.984 . S
N1406 H1413 0.984 . S
N1407 C1400 1.356 . S
N1407 H1410 0.984 . S
N1407 H1411 0.985 . S
H1408 N1403 0.984 . S
H1409 N1403 0.985 . S
H1410 N1407 0.984 . S
H1411 N1407 0.985 . S
H1412 N1406 0.984 . S
H1413 N1406 0.984 . S
H1414 N1402 0.984 . S
H1415 N1402 0.985 . S
C1416 C1417 1.363 . S
C1416 C1422 1.379 . S
C1416 N1424 1.356 . S
C1417 C1416 1.363 . S
C1417 C1423 1.363 . S
C1418 C1419 1.363 . S
C1418 C1423 1.379 . S
C1418 N1425 1.356 . S
C1419 C1418 1.363 . S
C1419 C1422 1.363 . S
N1420 C1422 1.356 . S
N1420 H1432 0.984 . S
N1420 H1433 0.985 . S
N1421 C1423 1.356 . S
N1421 H1426 0.984 . S
N1421 H1427 0.985 . S
C1422 C1416 1.379 . S
C1422 C1419 1.363 . S
C1422 N1420 1.356 . S
C1423 C1417 1.363 . S
C1423 C1418 1.379 . S
C1423 N1421 1.356 . S
N1424 C1416 1.356 . S
N1424 H1430 0.984 . S
N1424 H1431 0.984 . S
N1425 C1418 1.356 . S
N1425 H1428 0.984 . S
N1425 H1429 0.985 . S
H1426 N1421 0.984 . S
H1427 N1421 0.985 . S
H1428 N1425 0.984 . S
H1429 N1425 0.985 . S
H1430 N1424 0.984 . S
H1431 N1424 0.984 . S
H1432 N1420 0.984 . S
H1433 N1420 0.985 . S
C1434 C1435 1.363 . S
C1434 C1440 1.379 . S
C1434 N1442 1.356 . S
C1435 C1434 1.363 . S
C1435 C1441 1.363 . S
C1436 C1437 1.363 . S
C1436 C1441 1.379 . S
C1436 N1443 1.356 . S
C1437 C1436 1.363 . S
C1437 C1440 1.363 . S
N1438 C1440 1.356 . S
N1438 H1450 0.984 . S
N1438 H1451 0.985 1_554 S
N1439 C1441 1.356 . S
N1439 H1444 0.984 . S
N1439 H1445 0.985 . S
C1440 C1434 1.379 . S
C1440 C1437 1.363 . S
C1440 N1438 1.356 . S
C1441 C1435 1.363 . S
C1441 C1436 1.379 . S
C1441 N1439 1.356 . S
N1442 C1434 1.356 . S
N1442 H1448 0.984 . S
N1442 H1449 0.984 . S
N1443 C1436 1.356 . S
N1443 H1446 0.984 . S
N1443 H1447 0.985 . S
H1444 N1439 0.984 . S
H1445 N1439 0.985 . S
H1446 N1443 0.984 . S
H1447 N1443 0.985 . S
H1448 N1442 0.984 . S
H1449 N1442 0.984 . S
H1450 N1438 0.984 . S
H1451 N1438 0.985 1_556 S
C1452 C1453 1.363 . S
C1452 C1458 1.379 . S
C1452 N1460 1.356 . S
C1453 C1452 1.363 . S
C1453 C1459 1.363 . S
C1454 C1455 1.363 . S
C1454 C1459 1.379 . S
C1454 N1461 1.356 . S
C1455 C1454 1.363 . S
C1455 C1458 1.363 . S
N1456 C1458 1.356 . S
N1456 H1468 0.984 . S
N1456 H1469 0.985 . S
N1457 C1459 1.356 . S
N1457 H1462 0.984 . S
N1457 H1463 0.985 . S
C1458 C1452 1.379 . S
C1458 C1455 1.363 . S
C1458 N1456 1.356 . S
C1459 C1453 1.363 . S
C1459 C1454 1.379 . S
C1459 N1457 1.356 . S
N1460 C1452 1.356 . S
N1460 H1466 0.984 . S
N1460 H1467 0.984 . S
N1461 C1454 1.356 . S
N1461 H1464 0.984 1_556 S
N1461 H1465 0.985 . S
H1462 N1457 0.984 . S
H1463 N1457 0.985 . S
H1464 N1461 0.984 1_554 S
H1465 N1461 0.985 . S
H1466 N1460 0.984 . S
H1467 N1460 0.984 . S
H1468 N1456 0.984 . S
H1469 N1456 0.985 . S
C1470 C1471 1.363 . S
C1470 C1476 1.379 . S
C1470 N1478 1.356 . S
C1471 C1470 1.363 . S
C1471 C1477 1.363 . S
C1472 C1473 1.363 . S
C1472 C1477 1.379 . S
C1472 N1479 1.356 . S
C1473 C1472 1.363 . S
C1473 C1476 1.363 . S
N1474 C1476 1.356 . S
N1474 H1486 0.984 . S
N1474 H1487 0.985 . S
N1475 C1477 1.356 . S
N1475 H1480 0.984 . S
N1475 H1481 0.985 . S
C1476 C1470 1.379 . S
C1476 C1473 1.363 . S
C1476 N1474 1.356 . S
C1477 C1471 1.363 . S
C1477 C1472 1.379 . S
C1477 N1475 1.356 . S
N1478 C1470 1.356 . S
N1478 H1484 0.984 . S
N1478 H1485 0.984 . S
N1479 C1472 1.356 . S
N1479 H1482 0.984 . S
N1479 H1483 0.985 . S
H1480 N1475 0.984 . S
H1481 N1475 0.985 . S
H1482 N1479 0.984 . S
H1483 N1479 0.985 . S
H1484 N1478 0.984 . S
H1485 N1478 0.984 . S
H1486 N1474 0.984 . S
H1487 N1474 0.985 . S
C1488 C1489 1.363 . S
C1488 C1494 1.379 . S
C1488 N1496 1.356 . S
C1489 C1488 1.363 . S
C1489 C1495 1.363 . S
C1490 C1491 1.363 . S
C1490 C1495 1.379 . S
C1490 N1497 1.356 . S
C1491 C1490 1.363 . S
C1491 C1494 1.363 . S
N1492 C1494 1.356 . S
N1492 H1504 0.984 . S
N1492 H1505 0.985 . S
N1493 C1495 1.356 . S
N1493 H1498 0.984 1_554 S
N1493 H1499 0.985 . S
C1494 C1488 1.379 . S
C1494 C1491 1.363 . S
C1494 N1492 1.356 . S
C1495 C1489 1.363 . S
C1495 C1490 1.379 . S
C1495 N1493 1.356 . S
N1496 C1488 1.356 . S
N1496 H1502 0.984 . S
N1496 H1503 0.984 . S
N1497 C1490 1.356 . S
N1497 H1500 0.984 . S
N1497 H1501 0.985 . S
H1498 N1493 0.984 1_556 S
H1499 N1493 0.985 . S
H1500 N1497 0.984 . S
H1501 N1497 0.985 . S
H1502 N1496 0.984 . S
H1503 N1496 0.984 . S
H1504 N1492 0.984 . S
H1505 N1492 0.985 . S
C1506 C1507 1.363 . S
C1506 C1512 1.379 . S
C1506 N1514 1.356 . S
C1507 C1506 1.363 . S
C1507 C1513 1.363 . S
C1508 C1509 1.363 . S
C1508 C1513 1.379 . S
C1508 N1515 1.356 . S
C1509 C1508 1.363 . S
C1509 C1512 1.363 . S
N1510 C1512 1.356 . S
N1510 H1522 0.984 . S
N1510 H1523 0.985 . S
N1511 C1513 1.356 . S
N1511 H1516 0.984 . S
N1511 H1517 0.985 . S
C1512 C1506 1.379 . S
C1512 C1509 1.363 . S
C1512 N1510 1.356 . S
C1513 C1507 1.363 . S
C1513 C1508 1.379 . S
C1513 N1511 1.356 . S
N1514 C1506 1.356 . S
N1514 H1520 0.984 . S
N1514 H1521 0.984 . S
N1515 C1508 1.356 . S
N1515 H1518 0.984 . S
N1515 H1519 0.985 . S
H1516 N1511 0.984 . S
H1517 N1511 0.985 . S
H1518 N1515 0.984 . S
H1519 N1515 0.985 . S
H1520 N1514 0.984 . S
H1521 N1514 0.984 . S
H1522 N1510 0.984 . S
H1523 N1510 0.985 . S
C1524 C1525 1.363 . S
C1524 C1530 1.379 . S
C1524 N1532 1.356 . S
C1525 C1524 1.363 . S
C1525 C1531 1.363 . S
C1526 C1527 1.363 . S
C1526 C1531 1.379 . S
C1526 N1533 1.356 . S
C1527 C1526 1.363 . S
C1527 C1530 1.363 . S
N1528 C1530 1.356 . S
N1528 H1540 0.984 . S
N1528 H1541 0.985 . S
N1529 C1531 1.356 . S
N1529 H1534 0.984 . S
N1529 H1535 0.985 . S
C1530 C1524 1.379 . S
C1530 C1527 1.363 . S
C1530 N1528 1.356 . S
C1531 C1525 1.363 . S
C1531 C1526 1.379 . S
C1531 N1529 1.356 . S
N1532 C1524 1.356 . S
N1532 H1538 0.984 . S
N1532 H1539 0.984 . S
N1533 C1526 1.356 . S
N1533 H1536 0.984 . S
N1533 H1537 0.985 . S
H1534 N1529 0.984 . S
H1535 N1529 0.985 . S
H1536 N1533 0.984 . S
H1537 N1533 0.985 . S
H1538 N1532 0.984 . S
H1539 N1532 0.984 . S
H1540 N1528 0.984 . S
H1541 N1528 0.985 . S
C1542 C1543 1.363 . S
C1542 C1548 1.379 . S
C1542 N1550 1.356 . S
C1543 C1542 1.363 . S
C1543 C1549 1.363 . S
C1544 C1545 1.363 . S
C1544 C1549 1.379 . S
C1544 N1551 1.356 . S
C1545 C1544 1.363 . S
C1545 C1548 1.363 . S
N1546 C1548 1.356 . S
N1546 H1558 0.984 . S
N1546 H1559 0.986 1_556 S
N1547 C1549 1.356 . S
N1547 H1552 0.984 . S
N1547 H1553 0.985 . S
C1548 C1542 1.379 . S
C1548 C1545 1.363 . S
C1548 N1546 1.356 . S
C1549 C1543 1.363 . S
C1549 C1544 1.379 . S
C1549 N1547 1.356 . S
N1550 C1542 1.356 . S
N1550 H1556 0.984 . S
N1550 H1557 0.984 . S
N1551 C1544 1.356 . S
N1551 H1554 0.984 1_556 S
N1551 H1555 0.985 . S
H1552 N1547 0.984 . S
H1553 N1547 0.985 . S
H1554 N1551 0.984 1_554 S
H1555 N1551 0.985 . S
H1556 N1550 0.984 . S
H1557 N1550 0.984 . S
H1558 N1546 0.984 . S
H1559 N1546 0.986 1_554 S
C1560 C1561 1.363 . S
C1560 C1566 1.379 . S
C1560 N1568 1.356 . S
C1561 C1560 1.363 . S
C1561 C1567 1.363 . S
C1562 C1563 1.363 . S
C1562 C1567 1.379 . S
C1562 N1569 1.356 . S
C1563 C1562 1.363 . S
C1563 C1566 1.363 . S
N1564 C1566 1.356 . S
N1564 H1576 0.984 . S
N1564 H1577 0.985 . S
N1565 C1567 1.356 . S
N1565 H1570 0.983 1_556 S
N1565 H1571 0.985 . S
C1566 C1560 1.379 . S
C1566 C1563 1.363 . S
C1566 N1564 1.356 . S
C1567 C1561 1.363 . S
C1567 C1562 1.379 . S
C1567 N1565 1.356 . S
N1568 C1560 1.356 . S
N1568 H1574 0.984 . S
N1568 H1575 0.984 1_556 S
N1569 C1562 1.356 . S
N1569 H1572 0.984 . S
N1569 H1573 0.985 . S
H1570 N1565 0.983 1_554 S
H1571 N1565 0.985 . S
H1572 N1569 0.984 . S
H1573 N1569 0.985 . S
H1574 N1568 0.984 . S
H1575 N1568 0.984 1_554 S
H1576 N1564 0.984 . S
H1577 N1564 0.985 . S
C1578 C1579 1.363 . S
C1578 C1584 1.379 . S
C1578 N1586 1.356 . S
C1579 C1578 1.363 . S
C1579 C1585 1.363 . S
C1580 C1581 1.363 . S
C1580 C1585 1.379 . S
C1580 N1587 1.356 . S
C1581 C1580 1.363 . S
C1581 C1584 1.363 . S
N1582 C1584 1.356 . S
N1582 H1594 0.984 . S
N1582 H1595 0.985 . S
N1583 C1585 1.356 . S
N1583 H1588 0.984 . S
N1583 H1589 0.985 . S
C1584 C1578 1.379 . S
C1584 C1581 1.363 . S
C1584 N1582 1.356 . S
C1585 C1579 1.363 . S
C1585 C1580 1.379 . S
C1585 N1583 1.356 . S
N1586 C1578 1.356 . S
N1586 H1592 0.984 . S
N1586 H1593 0.984 . S
N1587 C1580 1.356 . S
N1587 H1590 0.984 . S
N1587 H1591 0.985 . S
H1588 N1583 0.984 . S
H1589 N1583 0.985 . S
H1590 N1587 0.984 . S
H1591 N1587 0.985 . S
H1592 N1586 0.984 . S
H1593 N1586 0.984 . S
H1594 N1582 0.984 . S
H1595 N1582 0.985 . S
C1596 C1597 1.363 . S
C1596 C1602 1.379 . S
C1596 N1604 1.356 . S
C1597 C1596 1.363 . S
C1597 C1603 1.363 . S
C1598 C1599 1.363 . S
C1598 C1603 1.379 . S
C1598 N1605 1.356 . S
C1599 C1598 1.363 . S
C1599 C1602 1.363 . S
N1600 C1602 1.356 . S
N1600 H1612 0.984 . S
N1600 H1613 0.985 . S
N1601 C1603 1.356 . S
N1601 H1606 0.984 . S
N1601 H1607 0.985 . S
C1602 C1596 1.379 . S
C1602 C1599 1.363 . S
C1602 N1600 1.356 . S
C1603 C1597 1.363 . S
C1603 C1598 1.379 . S
C1603 N1601 1.356 . S
N1604 C1596 1.356 . S
N1604 H1610 0.984 . S
N1604 H1611 0.984 . S
N1605 C1598 1.356 . S
N1605 H1608 0.984 . S
N1605 H1609 0.985 . S
H1606 N1601 0.984 . S
H1607 N1601 0.985 . S
H1608 N1605 0.984 . S
H1609 N1605 0.985 . S
H1610 N1604 0.984 . S
H1611 N1604 0.984 . S
H1612 N1600 0.984 . S
H1613 N1600 0.985 . S
C1614 C1615 1.363 . S
C1614 C1620 1.379 . S
C1614 N1622 1.356 . S
C1615 C1614 1.363 . S
C1615 C1621 1.363 . S
C1616 C1617 1.363 . S
C1616 C1621 1.379 . S
C1616 N1623 1.356 . S
C1617 C1616 1.363 . S
C1617 C1620 1.363 . S
N1618 C1620 1.356 . S
N1618 H1630 0.984 . S
N1618 H1631 0.985 . S
N1619 C1621 1.356 . S
N1619 H1624 0.984 . S
N1619 H1625 0.985 . S
C1620 C1614 1.379 . S
C1620 C1617 1.363 . S
C1620 N1618 1.356 . S
C1621 C1615 1.363 . S
C1621 C1616 1.379 . S
C1621 N1619 1.356 . S
N1622 C1614 1.356 . S
N1622 H1628 0.984 . S
N1622 H1629 0.984 . S
N1623 C1616 1.356 . S
N1623 H1626 0.984 1_554 S
N1623 H1627 0.985 . S
H1624 N1619 0.984 . S
H1625 N1619 0.985 . S
H1626 N1623 0.984 1_556 S
H1627 N1623 0.985 . S
H1628 N1622 0.984 . S
H1629 N1622 0.984 . S
H1630 N1618 0.984 . S
H1631 N1618 0.985 . S
C1632 C1633 1.363 . S
C1632 C1638 1.379 . S
C1632 N1640 1.356 . S
C1633 C1632 1.363 . S
C1633 C1639 1.363 . S
C1634 C1635 1.363 . S
C1634 C1639 1.379 . S
C1634 N1641 1.356 . S
C1635 C1634 1.363 . S
C1635 C1638 1.363 . S
N1636 C1638 1.356 . S
N1636 H1648 0.984 . S
N1636 H1649 0.985 . S
N1637 C1639 1.356 . S
N1637 H1642 0.984 . S
N1637 H1643 0.985 . S
C1638 C1632 1.379 . S
C1638 C1635 1.363 . S
C1638 N1636 1.356 . S
C1639 C1633 1.363 . S
C1639 C1634 1.379 . S
C1639 N1637 1.356 . S
N1640 C1632 1.356 . S
N1640 H1646 0.984 . S
N1640 H1647 0.984 . S
N1641 C1634 1.356 . S
N1641 H1644 0.984 . S
N1641 H1645 0.985 . S
H1642 N1637 0.984 . S
H1643 N1637 0.985 . S
H1644 N1641 0.984 . S
H1645 N1641 0.985 . S
H1646 N1640 0.984 . S
H1647 N1640 0.984 . S
H1648 N1636 0.984 . S
H1649 N1636 0.985 . S
C1650 C1651 1.363 . S
C1650 C1656 1.379 1_565 S
C1650 N1658 1.356 . S
C1651 C1650 1.363 . S
C1651 C1657 1.363 . S
C1652 C1653 1.363 . S
C1652 C1657 1.379 1_545 S
C1652 N1659 1.356 . S
C1653 C1652 1.363 . S
C1653 C1656 1.363 . S
N1654 C1656 1.356 . S
N1654 H1666 0.984 . S
N1654 H1667 0.985 . S
N1655 C1657 1.356 . S
N1655 H1660 0.984 . S
N1655 H1661 0.985 . S
C1656 C1650 1.379 1_545 S
C1656 C1653 1.363 . S
C1656 N1654 1.356 . S
C1657 C1651 1.363 . S
C1657 C1652 1.379 1_565 S
C1657 N1655 1.356 . S
N1658 C1650 1.356 . S
N1658 H1664 0.965 1_565 S
N1658 H1665 0.984 . S
N1659 C1652 1.356 . S
N1659 H1662 0.984 . S
N1659 H1663 0.965 1_545 S
H1660 N1655 0.984 . S
H1661 N1655 0.985 . S
H1662 N1659 0.984 . S
H1663 N1659 0.965 1_565 S
H1664 N1658 0.965 1_545 S
H1665 N1658 0.984 . S
H1666 N1654 0.984 . S
H1667 N1654 0.985 . S
C1668 C1669 1.363 . S
C1668 C1674 1.379 . S
C1668 N1676 1.356 . S
C1669 C1668 1.363 . S
C1669 C1675 1.363 1_554 S
C1670 C1671 1.363 . S
C1670 C1675 1.379 . S
C1670 N1677 1.356 . S
C1671 C1670 1.363 . S
C1671 C1674 1.363 1_556 S
N1672 C1674 1.356 1_556 S
N1672 H1684 0.984 1_556 S
N1672 H1685 0.985 . S
N1673 C1675 1.356 1_554 S
N1673 H1678 0.984 . S
N1673 H1679 0.985 1_554 S
C1674 C1668 1.379 . S
C1674 C1671 1.363 1_554 S
C1674 N1672 1.356 1_554 S
C1675 C1669 1.363 1_556 S
C1675 C1670 1.379 . S
C1675 N1673 1.356 1_556 S
N1676 C1668 1.356 . S
N1676 H1682 0.984 . S
N1676 H1683 0.984 . S
N1677 C1670 1.356 . S
N1677 H1680 0.984 . S
N1677 H1681 0.985 . S
H1678 N1673 0.984 . S
H1679 N1673 0.985 1_556 S
H1680 N1677 0.984 . S
H1681 N1677 0.985 . S
H1682 N1676 0.984 . S
H1683 N1676 0.984 . S
H1684 N1672 0.984 1_554 S
H1685 N1672 0.985 . S
C1686 C1687 1.363 . S
C1686 C1692 1.379 . S
C1686 N1694 1.356 . S
C1687 C1686 1.363 . S
C1687 C1693 1.363 1_565 S
C1688 C1689 1.363 . S
C1688 C1693 1.379 . S
C1688 N1695 1.356 . S
C1689 C1688 1.363 . S
C1689 C1692 1.363 1_545 S
N1690 C1692 1.356 1_545 S
N1690 H1702 0.984 1_545 S
N1690 H1703 0.985 . S
N1691 C1693 1.356 1_565 S
N1691 H1696 0.984 . S
N1691 H1697 0.985 1_565 S
C1692 C1686 1.379 . S
C1692 C1689 1.363 1_565 S
C1692 N1690 1.356 1_565 S
C1693 C1687 1.363 1_545 S
C1693 C1688 1.379 . S
C1693 N1691 1.356 1_545 S
N1694 C1686 1.356 . S
N1694 H1700 0.984 . S
N1694 H1701 0.984 . S
N1695 C1688 1.356 . S
N1695 H1698 0.984 . S
N1695 H1699 0.985 . S
H1696 N1691 0.984 . S
H1697 N1691 0.985 1_545 S
H1698 N1695 0.984 . S
H1699 N1695 0.985 . S
H1700 N1694 0.984 . S
H1701 N1694 0.984 . S
H1702 N1690 0.984 1_565 S
H1703 N1690 0.985 . S
C1704 C1705 1.363 . S
C1704 C1710 1.379 . S
C1704 N1712 1.356 . S
C1705 C1704 1.363 . S
C1705 C1711 1.363 . S
C1706 C1707 1.363 . S
C1706 C1711 1.379 . S
C1706 N1713 1.356 . S
C1707 C1706 1.363 . S
C1707 C1710 1.363 . S
N1708 C1710 1.356 . S
N1708 H1720 0.984 . S
N1708 H1721 0.985 . S
N1709 C1711 1.356 . S
N1709 H1714 0.984 . S
N1709 H1715 0.985 . S
C1710 C1704 1.379 . S
C1710 C1707 1.363 . S
C1710 N1708 1.356 . S
C1711 C1705 1.363 . S
C1711 C1706 1.379 . S
C1711 N1709 1.356 . S
N1712 C1704 1.356 . S
N1712 H1718 0.984 . S
N1712 H1719 0.984 . S
N1713 C1706 1.356 . S
N1713 H1716 0.984 . S
N1713 H1717 0.985 . S
H1714 N1709 0.984 . S
H1715 N1709 0.985 . S
H1716 N1713 0.984 . S
H1717 N1713 0.985 . S
H1718 N1712 0.984 . S
H1719 N1712 0.984 . S
H1720 N1708 0.984 . S
H1721 N1708 0.985 . S
C1722 C1723 1.363 . S
C1722 C1728 1.379 1_565 S
C1722 N1730 1.356 . S
C1723 C1722 1.363 . S
C1723 C1729 1.363 . S
C1724 C1725 1.363 . S
C1724 C1729 1.379 1_545 S
C1724 N1731 1.356 . S
C1725 C1724 1.363 . S
C1725 C1728 1.363 . S
N1726 C1728 1.356 . S
N1726 H1738 0.984 . S
N1726 H1739 0.985 . S
N1727 C1729 1.356 . S
N1727 H1732 0.984 . S
N1727 H1733 0.985 . S
C1728 C1722 1.379 1_545 S
C1728 C1725 1.363 . S
C1728 N1726 1.356 . S
C1729 C1723 1.363 . S
C1729 C1724 1.379 1_565 S
C1729 N1727 1.356 . S
N1730 C1722 1.356 . S
N1730 H1736 0.985 . S
N1730 H1737 0.984 . S
N1731 C1724 1.356 . S
N1731 H1734 0.984 . S
N1731 H1735 0.985 . S
H1732 N1727 0.984 . S
H1733 N1727 0.985 . S
H1734 N1731 0.984 . S
H1735 N1731 0.985 . S
H1736 N1730 0.985 . S
H1737 N1730 0.984 . S
H1738 N1726 0.984 . S
H1739 N1726 0.985 . S
C1740 C1741 1.363 1_554 S
C1740 C1746 1.379 . S
C1740 N1748 1.356 1_554 S
C1741 C1740 1.363 1_556 S
C1741 C1747 1.363 . S
C1742 C1743 1.363 1_556 S
C1742 C1747 1.379 . S
C1742 N1749 1.356 1_556 S
C1743 C1742 1.363 1_554 S
C1743 C1746 1.363 . S
N1744 C1746 1.356 . S
N1744 H1756 0.984 . S
N1744 H1757 0.985 . S
N1745 C1747 1.356 . S
N1745 H1750 0.984 . S
N1745 H1751 0.985 . S
C1746 C1740 1.379 . S
C1746 C1743 1.363 . S
C1746 N1744 1.356 . S
C1747 C1741 1.363 . S
C1747 C1742 1.379 . S
C1747 N1745 1.356 . S
N1748 C1740 1.356 1_556 S
N1748 H1754 0.984 1_556 S
N1748 H1755 0.984 . S
N1749 C1742 1.356 1_554 S
N1749 H1752 0.984 . S
N1749 H1753 0.985 1_554 S
H1750 N1745 0.984 . S
H1751 N1745 0.985 . S
H1752 N1749 0.984 . S
H1753 N1749 0.985 1_556 S
H1754 N1748 0.984 1_554 S
H1755 N1748 0.984 . S
H1756 N1744 0.984 . S
H1757 N1744 0.985 . S
C1758 C1759 1.351 1_565 S
C1758 C1764 1.390 . S
C1758 N1766 1.353 1_565 S
C1759 C1758 1.351 1_545 S
C1759 C1765 1.363 . S
C1760 C1761 1.351 1_545 S
C1760 C1765 1.390 . S
C1760 N1767 1.353 1_545 S
C1761 C1760 1.351 1_565 S
C1761 C1764 1.363 . S
N1762 C1764 1.356 . S
N1762 H1774 0.984 . S
N1762 H1775 0.985 . S
N1763 C1765 1.356 . S
N1763 H1768 0.984 . S
N1763 H1769 0.985 . S
C1764 C1758 1.390 . S
C1764 C1761 1.363 . S
C1764 N1762 1.356 . S
C1765 C1759 1.363 . S
C1765 C1760 1.390 . S
C1765 N1763 1.356 . S
N1766 C1758 1.353 1_545 S
N1766 H1772 0.984 1_545 S
N1766 H1773 0.984 . S
N1767 C1760 1.353 1_565 S
N1767 H1770 0.984 . S
N1767 H1771 0.985 1_565 S
H1768 N1763 0.984 . S
H1769 N1763 0.985 . S
H1770 N1767 0.984 . S
H1771 N1767 0.985 1_545 S
H1772 N1766 0.984 1_565 S
H1773 N1766 0.984 . S
H1774 N1762 0.984 . S
H1775 N1762 0.985 . S
C1776 C1777 1.363 1_554 S
C1776 C1782 1.379 . S
C1776 N1784 1.356 1_554 S
C1777 C1776 1.363 1_556 S
C1777 C1783 1.363 . S
C1778 C1779 1.363 1_556 S
C1778 C1783 1.379 . S
C1778 N1785 1.356 1_556 S
C1779 C1778 1.363 1_554 S
C1779 C1782 1.363 . S
N1780 C1782 1.356 . S
N1780 H1792 0.984 . S
N1780 H1793 0.985 . S
N1781 C1783 1.356 . S
N1781 H1786 0.984 . S
N1781 H1787 0.985 . S
C1782 C1776 1.379 . S
C1782 C1779 1.363 . S
C1782 N1780 1.356 . S
C1783 C1777 1.363 . S
C1783 C1778 1.379 . S
C1783 N1781 1.356 . S
N1784 C1776 1.356 1_556 S
N1784 H1790 0.984 1_556 S
N1784 H1791 0.984 . S
N1785 C1778 1.356 1_554 S
N1785 H1788 0.984 . S
N1785 H1789 0.985 1_554 S
H1786 N1781 0.984 . S
H1787 N1781 0.985 . S
H1788 N1785 0.984 . S
H1789 N1785 0.985 1_556 S
H1790 N1784 0.984 1_554 S
H1791 N1784 0.984 . S
H1792 N1780 0.984 . S
H1793 N1780 0.985 . S
C1794 C1795 1.363 . S
C1794 C1800 1.379 . S
C1794 N1802 1.356 . S
C1795 C1794 1.363 . S
C1795 C1801 1.363 . S
C1796 C1797 1.363 . S
C1796 C1801 1.379 . S
C1796 N1803 1.356 . S
C1797 C1796 1.363 . S
C1797 C1800 1.363 . S
N1798 C1800 1.356 . S
N1798 H1810 0.984 . S
N1798 H1811 0.985 . S
N1799 C1801 1.356 . S
N1799 H1804 0.984 . S
N1799 H1805 0.985 . S
C1800 C1794 1.379 . S
C1800 C1797 1.363 . S
C1800 N1798 1.356 . S
C1801 C1795 1.363 . S
C1801 C1796 1.379 . S
C1801 N1799 1.356 . S
N1802 C1794 1.356 . S
N1802 H1808 0.984 . S
N1802 H1809 0.984 . S
N1803 C1796 1.356 . S
N1803 H1806 0.984 . S
N1803 H1807 0.985 . S
H1804 N1799 0.984 . S
H1805 N1799 0.985 . S
H1806 N1803 0.984 . S
H1807 N1803 0.985 . S
H1808 N1802 0.984 . S
H1809 N1802 0.984 . S
H1810 N1798 0.984 . S
H1811 N1798 0.985 . S
C1812 C1813 1.363 . S
C1812 C1818 1.379 . S
C1812 N1820 1.356 . S
C1813 C1812 1.363 . S
C1813 C1819 1.363 . S
C1814 C1815 1.363 . S
C1814 C1819 1.379 . S
C1814 N1821 1.356 . S
C1815 C1814 1.363 . S
C1815 C1818 1.363 . S
N1816 C1818 1.356 . S
N1816 H1828 0.984 . S
N1816 H1829 0.985 . S
N1817 C1819 1.356 . S
N1817 H1822 0.984 . S
N1817 H1823 0.985 . S
C1818 C1812 1.379 . S
C1818 C1815 1.363 . S
C1818 N1816 1.356 . S
C1819 C1813 1.363 . S
C1819 C1814 1.379 . S
C1819 N1817 1.356 . S
N1820 C1812 1.356 . S
N1820 H1826 0.984 . S
N1820 H1827 0.984 . S
N1821 C1814 1.356 . S
N1821 H1824 0.984 . S
N1821 H1825 0.985 . S
H1822 N1817 0.984 . S
H1823 N1817 0.985 . S
H1824 N1821 0.984 . S
H1825 N1821 0.985 . S
H1826 N1820 0.984 . S
H1827 N1820 0.984 . S
H1828 N1816 0.984 . S
H1829 N1816 0.985 . S
C1830 C1831 1.363 . S
C1830 C1836 1.379 . S
C1830 N1838 1.356 . S
C1831 C1830 1.363 . S
C1831 C1837 1.363 . S
C1832 C1833 1.363 . S
C1832 C1837 1.379 . S
C1832 N1839 1.356 . S
C1833 C1832 1.363 . S
C1833 C1836 1.363 . S
N1834 C1836 1.356 . S
N1834 H1846 0.984 . S
N1834 H1847 0.985 . S
N1835 C1837 1.356 . S
N1835 H1840 0.984 . S
N1835 H1841 0.985 . S
C1836 C1830 1.379 . S
C1836 C1833 1.363 . S
C1836 N1834 1.356 . S
C1837 C1831 1.363 . S
C1837 C1832 1.379 . S
C1837 N1835 1.356 . S
N1838 C1830 1.356 . S
N1838 H1844 0.984 . S
N1838 H1845 0.984 . S
N1839 C1832 1.356 . S
N1839 H1842 0.984 . S
N1839 H1843 0.985 . S
H1840 N1835 0.984 . S
H1841 N1835 0.985 . S
H1842 N1839 0.984 . S
H1843 N1839 0.985 . S
H1844 N1838 0.984 . S
H1845 N1838 0.984 . S
H1846 N1834 0.984 . S
H1847 N1834 0.985 . S
C1848 C1849 1.363 . S
C1848 C1854 1.379 . S
C1848 N1856 1.356 . S
C1849 C1848 1.363 . S
C1849 C1855 1.363 1_556 S
C1850 C1851 1.363 . S
C1850 C1855 1.379 . S
C1850 N1857 1.356 . S
C1851 C1850 1.363 . S
C1851 C1854 1.363 1_554 S
N1852 C1854 1.356 1_554 S
N1852 H1864 0.984 1_554 S
N1852 H1865 0.985 . S
N1853 C1855 1.356 1_556 S
N1853 H1858 0.984 . S
N1853 H1859 0.985 1_556 S
C1854 C1848 1.379 . S
C1854 C1851 1.363 1_556 S
C1854 N1852 1.356 1_556 S
C1855 C1849 1.363 1_554 S
C1855 C1850 1.379 . S
C1855 N1853 1.356 1_554 S
N1856 C1848 1.356 . S
N1856 H1862 0.984 . S
N1856 H1863 0.984 . S
N1857 C1850 1.356 . S
N1857 H1860 0.984 . S
N1857 H1861 0.985 . S
H1858 N1853 0.984 . S
H1859 N1853 0.985 1_554 S
H1860 N1857 0.984 . S
H1861 N1857 0.985 . S
H1862 N1856 0.984 . S
H1863 N1856 0.984 . S
H1864 N1852 0.984 1_556 S
H1865 N1852 0.985 . S
C1866 C1867 1.363 . S
C1866 C1872 1.379 . S
C1866 N1874 1.356 . S
C1867 C1866 1.363 . S
C1867 C1873 1.363 . S
C1868 C1869 1.363 . S
C1868 C1873 1.379 . S
C1868 N1875 1.356 . S
C1869 C1868 1.363 . S
C1869 C1872 1.363 . S
N1870 C1872 1.356 . S
N1870 H1882 0.984 . S
N1870 H1883 0.985 . S
N1871 C1873 1.356 . S
N1871 H1876 0.984 . S
N1871 H1877 0.985 . S
C1872 C1866 1.379 . S
C1872 C1869 1.363 . S
C1872 N1870 1.356 . S
C1873 C1867 1.363 . S
C1873 C1868 1.379 . S
C1873 N1871 1.356 . S
N1874 C1866 1.356 . S
N1874 H1880 0.984 . S
N1874 H1881 0.984 . S
N1875 C1868 1.356 . S
N1875 H1878 0.984 . S
N1875 H1879 0.985 . S
H1876 N1871 0.984 . S
H1877 N1871 0.985 . S
H1878 N1875 0.984 . S
H1879 N1875 0.985 . S
H1880 N1874 0.984 . S
H1881 N1874 0.984 . S
H1882 N1870 0.984 . S
H1883 N1870 0.985 . S
C1884 C1885 1.363 . S
C1884 C1890 1.379 . S
C1884 N1892 1.356 . S
C1885 C1884 1.363 . S
C1885 C1891 1.363 . S
C1886 C1887 1.363 . S
C1886 C1891 1.379 . S
C1886 N1893 1.356 . S
C1887 C1886 1.363 . S
C1887 C1890 1.363 . S
N1888 C1890 1.356 . S
N1888 H1900 0.984 . S
N1888 H1901 0.985 . S
N1889 C1891 1.356 . S
N1889 H1894 0.984 . S
N1889 H1895 0.985 . S
C1890 C1884 1.379 . S
C1890 C1887 1.363 . S
C1890 N1888 1.356 . S
C1891 C1885 1.363 . S
C1891 C1886 1.379 . S
C1891 N1889 1.356 . S
N1892 C1884 1.356 . S
N1892 H1898 0.984 . S
N1892 H1899 0.984 . S
N1893 C1886 1.356 . S
N1893 H1896 0.984 . S
N1893 H1897 0.985 . S
H1894 N1889 0.984 . S
H1895 N1889 0.985 . S
H1896 N1893 0.984 . S
H1897 N1893 0.985 . S
H1898 N1892 0.984 . S
H1899 N1892 0.984 . S
H1900 N1888 0.984 . S
H1901 N1888 0.985 . S
C1902 C1903 1.363 . S
C1902 C1908 1.379 . S
C1902 N1910 1.356 . S
C1903 C1902 1.363 . S
C1903 C1909 1.363 . S
C1904 C1905 1.363 . S
C1904 C1909 1.379 . S
C1904 N1911 1.356 . S
C1905 C1904 1.363 . S
C1905 C1908 1.363 . S
N1906 C1908 1.356 . S
N1906 H1918 0.984 . S
N1906 H1919 0.985 . S
N1907 C1909 1.356 . S
N1907 H1912 0.984 . S
N1907 H1913 0.985 . S
C1908 C1902 1.379 . S
C1908 C1905 1.363 . S
C1908 N1906 1.356 . S
C1909 C1903 1.363 . S
C1909 C1904 1.379 . S
C1909 N1907 1.356 . S
N1910 C1902 1.356 . S
N1910 H1916 0.984 . S
N1910 H1917 0.984 . S
N1911 C1904 1.356 . S
N1911 H1914 0.984 . S
N1911 H1915 0.985 . S
H1912 N1907 0.984 . S
H1913 N1907 0.985 . S
H1914 N1911 0.984 . S
H1915 N1911 0.985 . S
H1916 N1910 0.984 . S
H1917 N1910 0.984 . S
H1918 N1906 0.984 . S
H1919 N1906 0.985 . S
C1920 C1921 1.363 . S
C1920 C1926 1.379 . S
C1920 N1928 1.356 . S
C1921 C1920 1.363 . S
C1921 C1927 1.363 . S
C1922 C1923 1.363 . S
C1922 C1927 1.379 . S
C1922 N1929 1.356 . S
C1923 C1922 1.363 . S
C1923 C1926 1.363 . S
N1924 C1926 1.356 . S
N1924 H1936 0.984 . S
N1924 H1937 0.985 . S
N1925 C1927 1.356 . S
N1925 H1930 0.984 . S
N1925 H1931 0.985 . S
C1926 C1920 1.379 . S
C1926 C1923 1.363 . S
C1926 N1924 1.356 . S
C1927 C1921 1.363 . S
C1927 C1922 1.379 . S
C1927 N1925 1.356 . S
N1928 C1920 1.356 . S
N1928 H1934 0.984 . S
N1928 H1935 0.984 . S
N1929 C1922 1.356 . S
N1929 H1932 0.984 . S
N1929 H1933 0.985 . S
H1930 N1925 0.984 . S
H1931 N1925 0.985 . S
H1932 N1929 0.984 . S
H1933 N1929 0.985 . S
H1934 N1928 0.984 . S
H1935 N1928 0.984 . S
H1936 N1924 0.984 . S
H1937 N1924 0.985 . S
C1938 C1939 1.363 . S
C1938 C1944 1.379 . S
C1938 N1946 1.356 . S
C1939 C1938 1.363 . S
C1939 C1945 1.363 . S
C1940 C1941 1.363 1_655 S
C1940 C1945 1.379 . S
C1940 N1947 1.356 1_655 S
C1941 C1940 1.363 1_455 S
C1941 C1944 1.363 1_455 S
N1942 C1944 1.356 1_455 S
N1942 H1954 0.984 . S
N1942 H1955 0.985 . S
N1943 C1945 1.356 . S
N1943 H1948 0.984 . S
N1943 H1949 0.985 . S
C1944 C1938 1.379 . S
C1944 C1941 1.363 1_655 S
C1944 N1942 1.356 1_655 S
C1945 C1939 1.363 . S
C1945 C1940 1.379 . S
C1945 N1943 1.356 . S
N1946 C1938 1.356 . S
N1946 H1952 0.984 . S
N1946 H1953 0.984 . S
N1947 C1940 1.356 1_455 S
N1947 H1950 0.984 . S
N1947 H1951 0.985 . S
H1948 N1943 0.984 . S
H1949 N1943 0.985 . S
H1950 N1947 0.984 . S
H1951 N1947 0.985 . S
H1952 N1946 0.984 . S
H1953 N1946 0.984 . S
H1954 N1942 0.984 . S
H1955 N1942 0.985 . S
C1956 C1957 1.363 . S
C1956 C1962 1.379 . S
C1956 N1964 1.356 . S
C1957 C1956 1.363 . S
C1957 C1963 1.363 . S
C1958 C1959 1.363 . S
C1958 C1963 1.379 . S
C1958 N1965 1.356 . S
C1959 C1958 1.363 . S
C1959 C1962 1.363 . S
N1960 C1962 1.356 . S
N1960 H1972 0.984 . S
N1960 H1973 0.985 . S
N1961 C1963 1.356 . S
N1961 H1966 0.984 . S
N1961 H1967 0.985 1_556 S
C1962 C1956 1.379 . S
C1962 C1959 1.363 . S
C1962 N1960 1.356 . S
C1963 C1957 1.363 . S
C1963 C1958 1.379 . S
C1963 N1961 1.356 . S
N1964 C1956 1.356 . S
N1964 H1970 0.984 . S
N1964 H1971 0.984 . S
N1965 C1958 1.356 . S
N1965 H1968 0.984 . S
N1965 H1969 0.985 1_556 S
H1966 N1961 0.984 . S
H1967 N1961 0.985 1_554 S
H1968 N1965 0.984 . S
H1969 N1965 0.985 1_554 S
H1970 N1964 0.984 . S
H1971 N1964 0.984 . S
H1972 N1960 0.984 . S
H1973 N1960 0.985 . S
C1974 C1975 1.363 . S
C1974 C1980 1.379 . S
C1974 N1982 1.356 . S
C1975 C1974 1.363 . S
C1975 C1981 1.363 . S
C1976 C1977 1.363 . S
C1976 C1981 1.379 . S
C1976 N1983 1.356 . S
C1977 C1976 1.363 . S
C1977 C1980 1.363 . S
N1978 C1980 1.356 . S
N1978 H1990 0.984 . S
N1978 H1991 0.985 . S
N1979 C1981 1.356 . S
N1979 H1984 0.984 . S
N1979 H1985 0.985 1_554 S
C1980 C1974 1.379 . S
C1980 C1977 1.363 . S
C1980 N1978 1.356 . S
C1981 C1975 1.363 . S
C1981 C1976 1.379 . S
C1981 N1979 1.356 . S
N1982 C1974 1.356 . S
N1982 H1988 0.984 . S
N1982 H1989 0.984 . S
N1983 C1976 1.356 . S
N1983 H1986 0.984 . S
N1983 H1987 0.985 . S
H1984 N1979 0.984 . S
H1985 N1979 0.985 1_556 S
H1986 N1983 0.984 . S
H1987 N1983 0.985 . S
H1988 N1982 0.984 . S
H1989 N1982 0.984 . S
H1990 N1978 0.984 . S
H1991 N1978 0.985 . S
C1992 C1993 1.363 . S
C1992 C1998 1.379 . S
C1992 N2000 1.356 . S
C1993 C1992 1.363 . S
C1993 C1999 1.363 . S
C1994 C1995 1.363 . S
C1994 C1999 1.379 . S
C1994 N2001 1.356 . S
C1995 C1994 1.363 . S
C1995 C1998 1.363 . S
N1996 C1998 1.356 . S
N1996 H2008 0.984 . S
N1996 H2009 0.985 . S
N1997 C1999 1.356 . S
N1997 H2002 0.984 . S
N1997 H2003 0.985 . S
C1998 C1992 1.379 . S
C1998 C1995 1.363 . S
C1998 N1996 1.356 . S
C1999 C1993 1.363 . S
C1999 C1994 1.379 . S
C1999 N1997 1.356 . S
N2000 C1992 1.356 . S
N2000 H2006 0.984 . S
N2000 H2007 0.984 . S
N2001 C1994 1.356 . S
N2001 H2004 0.984 . S
N2001 H2005 0.985 1_554 S
H2002 N1997 0.984 . S
H2003 N1997 0.985 . S
H2004 N2001 0.984 . S
H2005 N2001 0.985 1_556 S
H2006 N2000 0.984 . S
H2007 N2000 0.984 . S
H2008 N1996 0.984 . S
H2009 N1996 0.985 . S
C2010 C2011 1.363 . S
C2010 C2016 1.379 . S
C2010 N2018 1.356 . S
C2011 C2010 1.363 . S
C2011 C2017 1.363 . S
C2012 C2013 1.363 . S
C2012 C2017 1.379 . S
C2012 N2019 1.356 . S
C2013 C2012 1.363 . S
C2013 C2016 1.363 . S
N2014 C2016 1.356 . S
N2014 H2026 0.984 . S
N2014 H2027 0.985 . S
N2015 C2017 1.356 . S
N2015 H2020 0.984 . S
N2015 H2021 0.985 . S
C2016 C2010 1.379 . S
C2016 C2013 1.363 . S
C2016 N2014 1.356 . S
C2017 C2011 1.363 . S
C2017 C2012 1.379 . S
C2017 N2015 1.356 . S
N2018 C2010 1.356 . S
N2018 H2024 0.984 . S
N2018 H2025 0.984 . S
N2019 C2012 1.356 . S
N2019 H2022 0.984 . S
N2019 H2023 0.985 . S
H2020 N2015 0.984 . S
H2021 N2015 0.985 . S
H2022 N2019 0.984 . S
H2023 N2019 0.985 . S
H2024 N2018 0.984 . S
H2025 N2018 0.984 . S
H2026 N2014 0.984 . S
H2027 N2014 0.985 . S
C2028 C2029 1.363 . S
C2028 C2034 1.379 . S
C2028 N2036 1.356 . S
C2029 C2028 1.363 . S
C2029 C2035 1.363 . S
C2030 C2031 1.363 . S
C2030 C2035 1.379 . S
C2030 N2037 1.356 . S
C2031 C2030 1.363 . S
C2031 C2034 1.363 . S
N2032 C2034 1.356 . S
N2032 H2044 0.984 . S
N2032 H2045 0.985 . S
N2033 C2035 1.356 . S
N2033 H2038 0.984 . S
N2033 H2039 0.985 . S
C2034 C2028 1.379 . S
C2034 C2031 1.363 . S
C2034 N2032 1.356 . S
C2035 C2029 1.363 . S
C2035 C2030 1.379 . S
C2035 N2033 1.356 . S
N2036 C2028 1.356 . S
N2036 H2042 0.984 . S
N2036 H2043 0.984 . S
N2037 C2030 1.356 . S
N2037 H2040 0.984 . S
N2037 H2041 0.985 . S
H2038 N2033 0.984 . S
H2039 N2033 0.985 . S
H2040 N2037 0.984 . S
H2041 N2037 0.985 . S
H2042 N2036 0.984 . S
H2043 N2036 0.984 . S
H2044 N2032 0.984 . S
H2045 N2032 0.985 . S
C2046 C2047 1.363 . S
C2046 C2052 1.379 . S
C2046 N2054 1.356 . S
C2047 C2046 1.363 . S
C2047 C2053 1.363 . S
C2048 C2049 1.363 1_655 S
C2048 C2053 1.379 . S
C2048 N2055 1.356 1_655 S
C2049 C2048 1.363 1_455 S
C2049 C2052 1.363 1_455 S
N2050 C2052 1.356 1_455 S
N2050 H2062 0.984 . S
N2050 H2063 0.985 . S
N2051 C2053 1.356 . S
N2051 H2056 0.984 . S
N2051 H2057 0.985 . S
C2052 C2046 1.379 . S
C2052 C2049 1.363 1_655 S
C2052 N2050 1.356 1_655 S
C2053 C2047 1.363 . S
C2053 C2048 1.379 . S
C2053 N2051 1.356 . S
N2054 C2046 1.356 . S
N2054 H2060 0.984 . S
N2054 H2061 0.984 . S
N2055 C2048 1.356 1_455 S
N2055 H2058 0.984 . S
N2055 H2059 0.986 . S
H2056 N2051 0.984 . S
H2057 N2051 0.985 . S
H2058 N2055 0.984 . S
H2059 N2055 0.986 . S
H2060 N2054 0.984 . S
H2061 N2054 0.984 . S
H2062 N2050 0.984 . S
H2063 N2050 0.985 . S
C2064 C2065 1.363 . S
C2064 C2070 1.379 . S
C2064 N2072 1.356 . S
C2065 C2064 1.363 . S
C2065 C2071 1.363 . S
C2066 C2067 1.363 . S
C2066 C2071 1.379 . S
C2066 N2073 1.356 . S
C2067 C2066 1.363 . S
C2067 C2070 1.363 . S
N2068 C2070 1.356 . S
N2068 H2080 0.984 . S
N2068 H2081 0.985 . S
N2069 C2071 1.356 . S
N2069 H2074 0.984 . S
N2069 H2075 0.985 . S
C2070 C2064 1.379 . S
C2070 C2067 1.363 . S
C2070 N2068 1.356 . S
C2071 C2065 1.363 . S
C2071 C2066 1.379 . S
C2071 N2069 1.356 . S
N2072 C2064 1.356 . S
N2072 H2078 0.984 . S
N2072 H2079 0.984 . S
N2073 C2066 1.356 . S
N2073 H2076 0.984 . S
N2073 H2077 0.985 . S
H2074 N2069 0.984 . S
H2075 N2069 0.985 . S
H2076 N2073 0.984 . S
H2077 N2073 0.985 . S
H2078 N2072 0.984 . S
H2079 N2072 0.984 . S
H2080 N2068 0.984 . S
H2081 N2068 0.985 . S
C2082 C2083 1.363 1_455 S
C2082 C2088 1.379 . S
C2082 N2090 1.356 1_455 S
C2083 C2082 1.363 1_655 S
C2083 C2089 1.363 1_655 S
C2084 C2085 1.363 . S
C2084 C2089 1.379 . S
C2084 N2091 1.356 . S
C2085 C2084 1.363 . S
C2085 C2088 1.363 . S
N2086 C2088 1.356 . S
N2086 H2098 0.984 . S
N2086 H2099 0.985 . S
N2087 C2089 1.356 1_655 S
N2087 H2092 0.984 . S
N2087 H2093 0.985 . S
C2088 C2082 1.379 . S
C2088 C2085 1.363 . S
C2088 N2086 1.356 . S
C2089 C2083 1.363 1_455 S
C2089 C2084 1.379 . S
C2089 N2087 1.356 1_455 S
N2090 C2082 1.356 1_655 S
N2090 H2096 0.984 . S
N2090 H2097 0.984 . S
N2091 C2084 1.356 . S
N2091 H2094 0.984 . S
N2091 H2095 0.985 . S
H2092 N2087 0.984 . S
H2093 N2087 0.985 . S
H2094 N2091 0.984 . S
H2095 N2091 0.985 . S
H2096 N2090 0.984 . S
H2097 N2090 0.984 . S
H2098 N2086 0.984 . S
H2099 N2086 0.985 . S
C2100 C2101 1.363 . S
C2100 C2106 1.379 . S
C2100 N2108 1.356 . S
C2101 C2100 1.363 . S
C2101 C2107 1.363 . S
C2102 C2103 1.363 . S
C2102 C2107 1.379 . S
C2102 N2109 1.356 . S
C2103 C2102 1.363 . S
C2103 C2106 1.363 . S
N2104 C2106 1.356 . S
N2104 H2116 0.984 1_554 S
N2104 H2117 0.985 . S
N2105 C2107 1.356 . S
N2105 H2110 0.984 . S
N2105 H2111 0.985 . S
C2106 C2100 1.379 . S
C2106 C2103 1.363 . S
C2106 N2104 1.356 . S
C2107 C2101 1.363 . S
C2107 C2102 1.379 . S
C2107 N2105 1.356 . S
N2108 C2100 1.356 . S
N2108 H2114 0.984 1_554 S
N2108 H2115 0.984 . S
N2109 C2102 1.356 . S
N2109 H2112 0.984 . S
N2109 H2113 0.985 . S
H2110 N2105 0.984 . S
H2111 N2105 0.985 . S
H2112 N2109 0.984 . S
H2113 N2109 0.985 . S
H2114 N2108 0.984 1_556 S
H2115 N2108 0.984 . S
H2116 N2104 0.984 1_556 S
H2117 N2104 0.985 . S
C2118 C2119 1.363 . S
C2118 C2124 1.379 . S
C2118 N2126 1.356 . S
C2119 C2118 1.363 . S
C2119 C2125 1.363 . S
C2120 C2121 1.363 . S
C2120 C2125 1.379 . S
C2120 N2127 1.356 . S
C2121 C2120 1.363 . S
C2121 C2124 1.363 . S
N2122 C2124 1.356 . S
N2122 H2134 0.984 . S
N2122 H2135 0.985 . S
N2123 C2125 1.356 . S
N2123 H2128 0.984 . S
N2123 H2129 0.985 . S
C2124 C2118 1.379 . S
C2124 C2121 1.363 . S
C2124 N2122 1.356 . S
C2125 C2119 1.363 . S
C2125 C2120 1.379 . S
C2125 N2123 1.356 . S
N2126 C2118 1.356 . S
N2126 H2132 0.984 . S
N2126 H2133 0.984 . S
N2127 C2120 1.356 . S
N2127 H2130 0.984 . S
N2127 H2131 0.985 1_556 S
H2128 N2123 0.984 . S
H2129 N2123 0.985 . S
H2130 N2127 0.984 . S
H2131 N2127 0.985 1_554 S
H2132 N2126 0.984 . S
H2133 N2126 0.984 . S
H2134 N2122 0.984 . S
H2135 N2122 0.985 . S
C2136 C2137 1.363 . S
C2136 C2142 1.379 . S
C2136 N2144 1.356 . S
C2137 C2136 1.363 . S
C2137 C2143 1.363 . S
C2138 C2139 1.363 . S
C2138 C2143 1.379 . S
C2138 N2145 1.356 . S
C2139 C2138 1.363 . S
C2139 C2142 1.363 . S
N2140 C2142 1.356 . S
N2140 H2152 0.984 . S
N2140 H2153 0.985 . S
N2141 C2143 1.356 . S
N2141 H2146 0.984 . S
N2141 H2147 0.985 1_556 S
C2142 C2136 1.379 . S
C2142 C2139 1.363 . S
C2142 N2140 1.356 . S
C2143 C2137 1.363 . S
C2143 C2138 1.379 . S
C2143 N2141 1.356 . S
N2144 C2136 1.356 . S
N2144 H2150 0.984 . S
N2144 H2151 0.984 . S
N2145 C2138 1.356 . S
N2145 H2148 0.984 . S
N2145 H2149 0.985 1_556 S
H2146 N2141 0.984 . S
H2147 N2141 0.985 1_554 S
H2148 N2145 0.984 . S
H2149 N2145 0.985 1_554 S
H2150 N2144 0.984 . S
H2151 N2144 0.984 . S
H2152 N2140 0.984 . S
H2153 N2140 0.985 . S
C2154 C2155 1.363 . S
C2154 C2160 1.379 . S
C2154 N2162 1.356 . S
C2155 C2154 1.363 . S
C2155 C2161 1.363 . S
C2156 C2157 1.363 . S
C2156 C2161 1.379 . S
C2156 N2163 1.356 . S
C2157 C2156 1.363 . S
C2157 C2160 1.363 . S
N2158 C2160 1.356 . S
N2158 H2170 0.984 . S
N2158 H2171 0.985 . S
N2159 C2161 1.356 . S
N2159 H2164 0.984 . S
N2159 H2165 0.985 . S
C2160 C2154 1.379 . S
C2160 C2157 1.363 . S
C2160 N2158 1.356 . S
C2161 C2155 1.363 . S
C2161 C2156 1.379 . S
C2161 N2159 1.356 . S
N2162 C2154 1.356 . S
N2162 H2168 0.984 . S
N2162 H2169 0.984 . S
N2163 C2156 1.356 . S
N2163 H2166 0.984 . S
N2163 H2167 0.985 . S
H2164 N2159 0.984 . S
H2165 N2159 0.985 . S
H2166 N2163 0.984 . S
H2167 N2163 0.985 . S
H2168 N2162 0.984 . S
H2169 N2162 0.984 . S
H2170 N2158 0.984 . S
H2171 N2158 0.985 . S
C2172 C2173 1.363 . S
C2172 C2178 1.379 . S
C2172 N2180 1.356 . S
C2173 C2172 1.363 . S
C2173 C2179 1.363 . S
C2174 C2175 1.363 . S
C2174 C2179 1.379 . S
C2174 N2181 1.356 . S
C2175 C2174 1.363 . S
C2175 C2178 1.363 . S
N2176 C2178 1.356 . S
N2176 H2188 0.984 . S
N2176 H2189 0.985 . S
N2177 C2179 1.356 . S
N2177 H2182 0.984 . S
N2177 H2183 0.985 . S
C2178 C2172 1.379 . S
C2178 C2175 1.363 . S
C2178 N2176 1.356 . S
C2179 C2173 1.363 . S
C2179 C2174 1.379 . S
C2179 N2177 1.356 . S
N2180 C2172 1.356 . S
N2180 H2186 0.984 . S
N2180 H2187 0.984 . S
N2181 C2174 1.356 . S
N2181 H2184 0.984 . S
N2181 H2185 0.985 . S
H2182 N2177 0.984 . S
H2183 N2177 0.985 . S
H2184 N2181 0.984 . S
H2185 N2181 0.985 . S
H2186 N2180 0.984 . S
H2187 N2180 0.984 . S
H2188 N2176 0.984 . S
H2189 N2176 0.985 . S
C2190 C2191 1.363 . S
C2190 C2196 1.379 . S
C2190 N2198 1.356 . S
C2191 C2190 1.363 . S
C2191 C2197 1.363 . S
C2192 C2193 1.363 1_455 S
C2192 C2197 1.379 . S
C2192 N2199 1.356 1_455 S
C2193 C2192 1.363 1_655 S
C2193 C2196 1.363 1_655 S
N2194 C2196 1.356 1_655 S
N2194 H2206 0.984 1_554 S
N2194 H2207 0.985 . S
N2195 C2197 1.356 . S
N2195 H2200 0.984 . S
N2195 H2201 0.985 . S
C2196 C2190 1.379 . S
C2196 C2193 1.363 1_455 S
C2196 N2194 1.356 1_455 S
C2197 C2191 1.363 . S
C2197 C2192 1.379 . S
C2197 N2195 1.356 . S
N2198 C2190 1.356 . S
N2198 H2204 0.984 . S
N2198 H2205 0.984 . S
N2199 C2192 1.356 1_655 S
N2199 H2202 0.984 . S
N2199 H2203 0.985 . S
H2200 N2195 0.984 . S
H2201 N2195 0.985 . S
H2202 N2199 0.984 . S
H2203 N2199 0.985 . S
H2204 N2198 0.984 . S
H2205 N2198 0.984 . S
H2206 N2194 0.984 1_556 S
H2207 N2194 0.985 . S
C2208 C2209 1.363 . S
C2208 C2214 1.379 . S
C2208 N2216 1.356 . S
C2209 C2208 1.363 . S
C2209 C2215 1.363 . S
C2210 C2211 1.363 . S
C2210 C2215 1.379 . S
C2210 N2217 1.356 . S
C2211 C2210 1.363 . S
C2211 C2214 1.363 . S
N2212 C2214 1.356 . S
N2212 H2224 0.984 . S
N2212 H2225 0.985 . S
N2213 C2215 1.356 . S
N2213 H2218 0.984 . S
N2213 H2219 0.985 . S
C2214 C2208 1.379 . S
C2214 C2211 1.363 . S
C2214 N2212 1.356 . S
C2215 C2209 1.363 . S
C2215 C2210 1.379 . S
C2215 N2213 1.356 . S
N2216 C2208 1.356 . S
N2216 H2222 0.984 1_556 S
N2216 H2223 0.984 . S
N2217 C2210 1.356 . S
N2217 H2220 0.984 . S
N2217 H2221 0.985 . S
H2218 N2213 0.984 . S
H2219 N2213 0.985 . S
H2220 N2217 0.984 . S
H2221 N2217 0.985 . S
H2222 N2216 0.984 1_554 S
H2223 N2216 0.984 . S
H2224 N2212 0.984 . S
H2225 N2212 0.985 . S
C2226 C2227 1.363 . S
C2226 C2232 1.379 . S
C2226 N2234 1.356 . S
C2227 C2226 1.363 . S
C2227 C2233 1.363 . S
C2228 C2229 1.363 . S
C2228 C2233 1.379 . S
C2228 N2235 1.356 . S
C2229 C2228 1.363 . S
C2229 C2232 1.363 . S
N2230 C2232 1.356 . S
N2230 H2242 0.984 . S
N2230 H2243 0.985 . S
N2231 C2233 1.356 . S
N2231 H2236 0.984 . S
N2231 H2237 0.985 . S
C2232 C2226 1.379 . S
C2232 C2229 1.363 . S
C2232 N2230 1.356 . S
C2233 C2227 1.363 . S
C2233 C2228 1.379 . S
C2233 N2231 1.356 . S
N2234 C2226 1.356 . S
N2234 H2240 0.984 . S
N2234 H2241 0.984 . S
N2235 C2228 1.356 . S
N2235 H2238 0.984 . S
N2235 H2239 0.985 1_554 S
H2236 N2231 0.984 . S
H2237 N2231 0.985 . S
H2238 N2235 0.984 . S
H2239 N2235 0.985 1_556 S
H2240 N2234 0.984 . S
H2241 N2234 0.984 . S
H2242 N2230 0.984 . S
H2243 N2230 0.985 . S
C2244 C2245 1.363 . S
C2244 C2250 1.379 . S
C2244 N2252 1.356 . S
C2245 C2244 1.363 . S
C2245 C2251 1.363 . S
C2246 C2247 1.363 . S
C2246 C2251 1.379 . S
C2246 N2253 1.356 . S
C2247 C2246 1.363 . S
C2247 C2250 1.363 . S
N2248 C2250 1.356 . S
N2248 H2260 0.984 . S
N2248 H2261 0.985 . S
N2249 C2251 1.356 . S
N2249 H2254 0.984 . S
N2249 H2255 0.985 . S
C2250 C2244 1.379 . S
C2250 C2247 1.363 . S
C2250 N2248 1.356 . S
C2251 C2245 1.363 . S
C2251 C2246 1.379 . S
C2251 N2249 1.356 . S
N2252 C2244 1.356 . S
N2252 H2258 0.984 . S
N2252 H2259 0.984 . S
N2253 C2246 1.356 . S
N2253 H2256 0.984 . S
N2253 H2257 0.985 . S
H2254 N2249 0.984 . S
H2255 N2249 0.985 . S
H2256 N2253 0.984 . S
H2257 N2253 0.985 . S
H2258 N2252 0.984 . S
H2259 N2252 0.984 . S
H2260 N2248 0.984 . S
H2261 N2248 0.985 . S
C2262 C2263 1.363 1_455 S
C2262 C2268 1.379 . S
C2262 N2270 1.356 1_455 S
C2263 C2262 1.363 1_655 S
C2263 C2269 1.363 1_655 S
C2264 C2265 1.363 . S
C2264 C2269 1.379 . S
C2264 N2271 1.356 . S
C2265 C2264 1.363 . S
C2265 C2268 1.363 . S
N2266 C2268 1.356 . S
N2266 H2278 0.984 . S
N2266 H2279 0.985 . S
N2267 C2269 1.356 1_655 S
N2267 H2272 0.984 . S
N2267 H2273 0.985 . S
C2268 C2262 1.379 . S
C2268 C2265 1.363 . S
C2268 N2266 1.356 . S
C2269 C2263 1.363 1_455 S
C2269 C2264 1.379 . S
C2269 N2267 1.356 1_455 S
N2270 C2262 1.356 1_655 S
N2270 H2276 0.984 . S
N2270 H2277 0.984 . S
N2271 C2264 1.356 . S
N2271 H2274 0.984 . S
N2271 H2275 0.985 . S
H2272 N2267 0.984 . S
H2273 N2267 0.985 . S
H2274 N2271 0.984 . S
H2275 N2271 0.985 . S
H2276 N2270 0.984 . S
H2277 N2270 0.984 . S
H2278 N2266 0.984 . S
H2279 N2266 0.985 . S
C2280 C2281 1.363 . S
C2280 C2286 1.379 . S
C2280 N2288 1.356 . S
C2281 C2280 1.363 . S
C2281 C2287 1.363 . S
C2282 C2283 1.363 . S
C2282 C2287 1.379 . S
C2282 N2289 1.356 . S
C2283 C2282 1.363 . S
C2283 C2286 1.363 . S
N2284 C2286 1.356 . S
N2284 H2296 0.984 . S
N2284 H2297 0.985 . S
N2285 C2287 1.356 . S
N2285 H2290 0.984 . S
N2285 H2291 0.985 . S
C2286 C2280 1.379 . S
C2286 C2283 1.363 . S
C2286 N2284 1.356 . S
C2287 C2281 1.363 . S
C2287 C2282 1.379 . S
C2287 N2285 1.356 . S
N2288 C2280 1.356 . S
N2288 H2294 0.984 . S
N2288 H2295 0.984 . S
N2289 C2282 1.356 . S
N2289 H2292 0.984 . S
N2289 H2293 0.985 . S
H2290 N2285 0.984 . S
H2291 N2285 0.985 . S
H2292 N2289 0.984 . S
H2293 N2289 0.985 . S
H2294 N2288 0.984 . S
H2295 N2288 0.984 . S
H2296 N2284 0.984 . S
H2297 N2284 0.985 . S
C2298 C2299 1.363 1_455 S
C2298 C2304 1.379 . S
C2298 N2306 1.356 1_455 S
C2299 C2298 1.363 1_655 S
C2299 C2305 1.363 1_655 S
C2300 C2301 1.363 . S
C2300 C2305 1.379 . S
C2300 N2307 1.356 . S
C2301 C2300 1.363 . S
C2301 C2304 1.363 . S
N2302 C2304 1.356 . S
N2302 H2314 0.984 . S
N2302 H2315 0.985 . S
N2303 C2305 1.356 1_655 S
N2303 H2308 0.984 . S
N2303 H2309 0.985 . S
C2304 C2298 1.379 . S
C2304 C2301 1.363 . S
C2304 N2302 1.356 . S
C2305 C2299 1.363 1_455 S
C2305 C2300 1.379 . S
C2305 N2303 1.356 1_455 S
N2306 C2298 1.356 1_655 S
N2306 H2312 0.986 1_556 S
N2306 H2313 0.984 . S
N2307 C2300 1.356 . S
N2307 H2310 0.984 . S
N2307 H2311 0.985 . S
H2308 N2303 0.984 . S
H2309 N2303 0.985 . S
H2310 N2307 0.984 . S
H2311 N2307 0.985 . S
H2312 N2306 0.986 1_554 S
H2313 N2306 0.984 . S
H2314 N2302 0.984 . S
H2315 N2302 0.985 . S
C2316 C2317 1.363 . S
C2316 C2322 1.379 . S
C2316 N2324 1.356 . S
C2317 C2316 1.363 . S
C2317 C2323 1.363 . S
C2318 C2319 1.363 . S
C2318 C2323 1.379 . S
C2318 N2325 1.356 . S
C2319 C2318 1.363 . S
C2319 C2322 1.363 . S
N2320 C2322 1.356 . S
N2320 H2332 0.984 . S
N2320 H2333 0.985 . S
N2321 C2323 1.356 . S
N2321 H2326 0.984 . S
N2321 H2327 0.985 . S
C2322 C2316 1.379 . S
C2322 C2319 1.363 . S
C2322 N2320 1.356 . S
C2323 C2317 1.363 . S
C2323 C2318 1.379 . S
C2323 N2321 1.356 . S
N2324 C2316 1.356 . S
N2324 H2330 0.984 1_554 S
N2324 H2331 0.984 . S
N2325 C2318 1.356 . S
N2325 H2328 0.984 . S
N2325 H2329 0.985 . S
H2326 N2321 0.984 . S
H2327 N2321 0.985 . S
H2328 N2325 0.984 . S
H2329 N2325 0.985 . S
H2330 N2324 0.984 1_556 S
H2331 N2324 0.984 . S
H2332 N2320 0.984 . S
H2333 N2320 0.985 . S
C2334 C2335 1.363 . S
C2334 C2340 1.379 . S
C2334 N2342 1.356 . S
C2335 C2334 1.363 . S
C2335 C2341 1.363 . S
C2336 C2337 1.363 . S
C2336 C2341 1.379 . S
C2336 N2343 1.356 . S
C2337 C2336 1.363 . S
C2337 C2340 1.363 . S
N2338 C2340 1.356 . S
N2338 H2350 0.984 . S
N2338 H2351 0.985 . S
N2339 C2341 1.356 . S
N2339 H2344 0.984 . S
N2339 H2345 0.985 . S
C2340 C2334 1.379 . S
C2340 C2337 1.363 . S
C2340 N2338 1.356 . S
C2341 C2335 1.363 . S
C2341 C2336 1.379 . S
C2341 N2339 1.356 . S
N2342 C2334 1.356 . S
N2342 H2348 0.984 . S
N2342 H2349 0.984 . S
N2343 C2336 1.356 . S
N2343 H2346 0.984 . S
N2343 H2347 0.985 . S
H2344 N2339 0.984 . S
H2345 N2339 0.985 . S
H2346 N2343 0.984 . S
H2347 N2343 0.985 . S
H2348 N2342 0.984 . S
H2349 N2342 0.984 . S
H2350 N2338 0.984 . S
H2351 N2338 0.985 . S
C2352 C2353 1.363 . S
C2352 C2358 1.379 . S
C2352 N2360 1.356 . S
C2353 C2352 1.363 . S
C2353 C2359 1.363 . S
C2354 C2355 1.363 . S
C2354 C2359 1.379 . S
C2354 N2361 1.356 . S
C2355 C2354 1.363 . S
C2355 C2358 1.363 . S
N2356 C2358 1.356 . S
N2356 H2368 0.984 . S
N2356 H2369 0.985 . S
N2357 C2359 1.356 . S
N2357 H2362 0.984 . S
N2357 H2363 0.985 . S
C2358 C2352 1.379 . S
C2358 C2355 1.363 . S
C2358 N2356 1.356 . S
C2359 C2353 1.363 . S
C2359 C2354 1.379 . S
C2359 N2357 1.356 . S
N2360 C2352 1.356 . S
N2360 H2366 0.984 1_554 S
N2360 H2367 0.984 . S
N2361 C2354 1.356 . S
N2361 H2364 0.984 . S
N2361 H2365 0.985 . S
H2362 N2357 0.984 . S
H2363 N2357 0.985 . S
H2364 N2361 0.984 . S
H2365 N2361 0.985 . S
H2366 N2360 0.984 1_556 S
H2367 N2360 0.984 . S
H2368 N2356 0.984 . S
H2369 N2356 0.985 . S
C2370 C2371 1.363 . S
C2370 C2376 1.379 . S
C2370 N2378 1.356 . S
C2371 C2370 1.363 . S
C2371 C2377 1.363 . S
C2372 C2373 1.363 . S
C2372 C2377 1.379 . S
C2372 N2379 1.356 . S
C2373 C2372 1.363 . S
C2373 C2376 1.363 . S
N2374 C2376 1.356 . S
N2374 H2386 0.984 . S
N2374 H2387 0.985 . S
N2375 C2377 1.356 . S
N2375 H2380 0.984 . S
N2375 H2381 0.985 . S
C2376 C2370 1.379 . S
C2376 C2373 1.363 . S
C2376 N2374 1.356 . S
C2377 C2371 1.363 . S
C2377 C2372 1.379 . S
C2377 N2375 1.356 . S
N2378 C2370 1.356 . S
N2378 H2384 0.984 . S
N2378 H2385 0.984 . S
N2379 C2372 1.356 . S
N2379 H2382 0.984 . S
N2379 H2383 0.985 . S
H2380 N2375 0.984 . S
H2381 N2375 0.985 . S
H2382 N2379 0.984 . S
H2383 N2379 0.985 . S
H2384 N2378 0.984 . S
H2385 N2378 0.984 . S
H2386 N2374 0.984 . S
H2387 N2374 0.985 . S
C2388 C2389 1.363 . S
C2388 C2394 1.379 . S
C2388 N2396 1.356 . S
C2389 C2388 1.363 . S
C2389 C2395 1.363 . S
C2390 C2391 1.363 . S
C2390 C2395 1.379 . S
C2390 N2397 1.356 . S
C2391 C2390 1.363 . S
C2391 C2394 1.363 . S
N2392 C2394 1.356 . S
N2392 H2404 0.984 . S
N2392 H2405 0.985 . S
N2393 C2395 1.356 . S
N2393 H2398 0.984 . S
N2393 H2399 0.985 . S
C2394 C2388 1.379 . S
C2394 C2391 1.363 . S
C2394 N2392 1.356 . S
C2395 C2389 1.363 . S
C2395 C2390 1.379 . S
C2395 N2393 1.356 . S
N2396 C2388 1.356 . S
N2396 H2402 0.984 . S
N2396 H2403 0.984 . S
N2397 C2390 1.356 . S
N2397 H2400 0.984 . S
N2397 H2401 0.985 . S
H2398 N2393 0.984 . S
H2399 N2393 0.985 . S
H2400 N2397 0.984 . S
H2401 N2397 0.985 . S
H2402 N2396 0.984 . S
H2403 N2396 0.984 . S
H2404 N2392 0.984 . S
H2405 N2392 0.985 . S
C2406 C2407 1.363 . S
C2406 C2412 1.415 . S
C2406 N2414 1.356 . S
C2407 C2406 1.363 . S
C2407 C2413 1.363 . S
C2408 C2409 1.363 1_655 S
C2408 C2413 1.379 . S
C2408 N2415 1.356 1_655 S
C2409 C2408 1.363 1_455 S
C2409 C2412 1.350 1_455 S
N2410 C2412 1.325 1_455 S
N2410 H2422 0.984 . S
N2410 H2423 0.985 . S
N2411 C2413 1.356 . S
N2411 H2416 0.984 . S
N2411 H2417 0.985 . S
C2412 C2406 1.415 . S
C2412 C2409 1.350 1_655 S
C2412 N2410 1.325 1_655 S
C2413 C2407 1.363 . S
C2413 C2408 1.379 . S
C2413 N2411 1.356 . S
N2414 C2406 1.356 . S
N2414 H2420 0.984 . S
N2414 H2421 0.984 . S
N2415 C2408 1.356 1_455 S
N2415 H2418 0.984 . S
N2415 H2419 0.985 1_455 S
H2416 N2411 0.984 . S
H2417 N2411 0.985 . S
H2418 N2415 0.984 . S
H2419 N2415 0.985 1_655 S
H2420 N2414 0.984 . S
H2421 N2414 0.984 . S
H2422 N2410 0.984 . S
H2423 N2410 0.985 . S
C2424 C2425 1.363 . S
C2424 C2430 1.379 . S
C2424 N2432 1.356 . S
C2425 C2424 1.363 . S
C2425 C2431 1.363 . S
C2426 C2427 1.363 . S
C2426 C2431 1.379 . S
C2426 N2433 1.356 . S
C2427 C2426 1.363 . S
C2427 C2430 1.363 . S
N2428 C2430 1.356 . S
N2428 H2440 0.984 . S
N2428 H2441 0.985 . S
N2429 C2431 1.356 . S
N2429 H2434 0.984 . S
N2429 H2435 0.985 . S
C2430 C2424 1.379 . S
C2430 C2427 1.363 . S
C2430 N2428 1.356 . S
C2431 C2425 1.363 . S
C2431 C2426 1.379 . S
C2431 N2429 1.356 . S
N2432 C2424 1.356 . S
N2432 H2438 0.984 . S
N2432 H2439 0.984 . S
N2433 C2426 1.356 . S
N2433 H2436 0.984 . S
N2433 H2437 0.985 . S
H2434 N2429 0.984 . S
H2435 N2429 0.985 . S
H2436 N2433 0.984 . S
H2437 N2433 0.985 . S
H2438 N2432 0.984 . S
H2439 N2432 0.984 . S
H2440 N2428 0.984 . S
H2441 N2428 0.985 . S
C2442 C2443 1.363 1_655 S
C2442 C2448 1.379 . S
C2442 N2450 1.356 1_655 S
C2443 C2442 1.363 1_455 S
C2443 C2449 1.363 1_455 S
C2444 C2445 1.363 . S
C2444 C2449 1.379 . S
C2444 N2451 1.356 . S
C2445 C2444 1.363 . S
C2445 C2448 1.363 . S
N2446 C2448 1.356 . S
N2446 H2458 0.984 . S
N2446 H2459 0.985 . S
N2447 C2449 1.356 1_455 S
N2447 H2452 0.984 . S
N2447 H2453 0.985 . S
C2448 C2442 1.379 . S
C2448 C2445 1.363 . S
C2448 N2446 1.356 . S
C2449 C2443 1.363 1_655 S
C2449 C2444 1.379 . S
C2449 N2447 1.356 1_655 S
N2450 C2442 1.356 1_455 S
N2450 H2456 0.984 . S
N2450 H2457 0.984 . S
N2451 C2444 1.356 . S
N2451 H2454 0.984 . S
N2451 H2455 0.985 . S
H2452 N2447 0.984 . S
H2453 N2447 0.985 . S
H2454 N2451 0.984 . S
H2455 N2451 0.985 . S
H2456 N2450 0.984 . S
H2457 N2450 0.984 . S
H2458 N2446 0.984 . S
H2459 N2446 0.985 . S
C2460 C2461 1.363 . S
C2460 C2466 1.379 . S
C2460 N2468 1.356 . S
C2461 C2460 1.363 . S
C2461 C2467 1.363 . S
C2462 C2463 1.363 . S
C2462 C2467 1.379 . S
C2462 N2469 1.356 . S
C2463 C2462 1.363 . S
C2463 C2466 1.363 . S
N2464 C2466 1.356 . S
N2464 H2476 0.984 . S
N2464 H2477 0.985 . S
N2465 C2467 1.356 . S
N2465 H2470 0.984 . S
N2465 H2471 0.985 . S
C2466 C2460 1.379 . S
C2466 C2463 1.363 . S
C2466 N2464 1.356 . S
C2467 C2461 1.363 . S
C2467 C2462 1.379 . S
C2467 N2465 1.356 . S
N2468 C2460 1.356 . S
N2468 H2474 0.984 . S
N2468 H2475 0.984 . S
N2469 C2462 1.356 . S
N2469 H2472 0.984 . S
N2469 H2473 0.985 1_556 S
H2470 N2465 0.984 . S
H2471 N2465 0.985 . S
H2472 N2469 0.984 . S
H2473 N2469 0.985 1_554 S
H2474 N2468 0.984 . S
H2475 N2468 0.984 . S
H2476 N2464 0.984 . S
H2477 N2464 0.985 . S
C2478 C2479 1.363 . S
C2478 C2484 1.379 . S
C2478 N2486 1.356 . S
C2479 C2478 1.363 . S
C2479 C2485 1.363 . S
C2480 C2481 1.363 . S
C2480 C2485 1.379 . S
C2480 N2487 1.356 . S
C2481 C2480 1.363 . S
C2481 C2484 1.363 . S
N2482 C2484 1.356 . S
N2482 H2494 0.984 . S
N2482 H2495 0.985 . S
N2483 C2485 1.356 . S
N2483 H2488 0.984 . S
N2483 H2489 0.985 . S
C2484 C2478 1.379 . S
C2484 C2481 1.363 . S
C2484 N2482 1.356 . S
C2485 C2479 1.363 . S
C2485 C2480 1.379 . S
C2485 N2483 1.356 . S
N2486 C2478 1.356 . S
N2486 H2492 0.984 . S
N2486 H2493 0.984 . S
N2487 C2480 1.356 . S
N2487 H2490 0.984 . S
N2487 H2491 0.985 . S
H2488 N2483 0.984 . S
H2489 N2483 0.985 . S
H2490 N2487 0.984 . S
H2491 N2487 0.985 . S
H2492 N2486 0.984 . S
H2493 N2486 0.984 . S
H2494 N2482 0.984 . S
H2495 N2482 0.985 . S
C1057 C238 1.477 1_554 S
C1059 C7 1.477 . S
C1075 C40 1.477 . S
C1077 C139 1.477 . S
C1093 C73 1.477 . S
C1095 C172 1.477 . S
C1111 C205 1.477 . S
C1113 C106 1.477 1_556 S
C1129 C271 1.477 . S
C1131 C502 1.477 1_556 S
C1147 C403 1.477 . S
C1149 C304 1.477 . S
C1165 C337 1.477 . S
C1167 C436 1.477 . S
C1183 C469 1.477 . S
C1185 C370 1.477 1_554 S
C1201 C766 1.477 . S
C1203 C535 1.477 . S
C1219 C667 1.477 . S
C1221 C568 1.477 1_556 S
C1237 C700 1.477 1_554 S
C1239 C601 1.477 . S
C1255 C733 1.477 . S
C1257 C634 1.477 . S
C1273 C1030 1.477 . S
C1275 C799 1.477 . S
C1291 C832 1.477 1_554 S
C1293 C931 1.477 . S
C1309 C964 1.477 1_556 S
C1311 C865 1.477 . S
C1327 C997 1.477 . S
C1329 C898 1.477 . S
C1345 C18 0.989 . S
C1347 C249 0.989 . S
C1363 C51 0.989 . S
C1365 C150 0.989 . S
C1381 C84 0.989 . S
C1383 C183 0.989 . S
C1399 C117 0.989 . S
C1401 C216 0.989 . S
C1417 C513 0.989 . S
C1419 C282 0.989 . S
C1435 C315 0.989 . S
C1437 C414 0.989 . S
C1453 C447 0.989 . S
C1455 C348 0.989 . S
C1471 C381 0.989 . S
C1473 C480 0.989 . S
C1489 C546 0.989 . S
C1491 C777 0.989 . S
C1507 C678 0.989 . S
C1509 C579 0.989 . S
C1525 C711 0.989 . S
C1527 C612 0.989 . S
C1543 C645 0.989 . S
C1545 C744 0.989 . S
C1561 C810 0.989 . S
C1563 C1041 0.989 . S
C1579 C843 0.989 . S
C1581 C942 0.989 . S
C1597 C876 0.989 . S
C1599 C975 0.989 . S
C1615 C909 0.989 . S
C1617 C1008 0.989 . S
C1633 N211 1.638 . S
C1635 N13 1.638 . S
C1651 N46 1.638 . S
C1653 N244 1.638 . S
C1669 N145 1.638 . S
C1671 N79 1.638 . S
C1687 N178 1.638 . S
C1689 N112 1.638 . S
C1705 N475 1.638 . S
C1707 N277 1.638 . S
C1723 N508 1.638 . S
C1725 N310 1.638 . S
C1741 N409 1.638 . S
C1743 N343 1.638 . S
C1759 N442 1.638 . S
C1761 N376 1.638 . S
C1777 N541 1.638 . S
C1779 N739 1.638 . S
C1795 N772 1.638 . S
C1797 N574 1.638 . S
C1813 N673 1.638 . S
C1815 N607 1.638 . S
C1831 N706 1.638 . S
C1833 N640 1.638 . S
C1849 N1003 1.638 . S
C1851 N805 1.638 . S
C1867 N838 1.638 . S
C1869 N1036 1.638 . S
C1885 N937 1.638 . S
C1887 N871 1.638 . S
C1903 N970 1.638 . S
C1905 N904 1.638 . S
C1921 C21 1.611 . S
C1923 N893 1.502 . S
C1939 N266 1.502 . S
C1941 C54 1.611 . S
C1957 N827 1.502 . S
C1959 C87 1.611 . S
C1975 C120 1.611 . S
C1977 N332 1.502 . S
C1993 C153 1.611 . S
C1995 N959 1.502 . S
C2011 C186 1.611 . S
C2013 N464 1.502 . S
C2029 C219 1.611 . S
C2031 N1025 1.502 . S
C2047 N398 1.502 . S
C2049 C252 1.611 . S
C2065 N629 1.502 . S
C2067 C285 1.611 . S
C2083 C318 1.611 . S
C2085 N2 1.502 . S
C2101 C351 1.611 . S
C2103 N563 1.502 . S
C2119 N68 1.502 . S
C2121 C384 1.611 . S
C2137 N695 1.502 . S
C2139 C417 1.611 . S
C2155 C450 1.611 . S
C2157 N200 1.502 . S
C2173 C483 1.611 . S
C2175 N761 1.502 . S
C2191 N134 1.502 . S
C2193 C516 1.611 . S
C2209 N365 1.502 . S
C2211 C549 1.611 . S
C2227 N794 1.502 . S
C2229 C582 1.611 . S
C2245 C615 1.611 . S
C2247 N299 1.502 . S
C2263 C648 1.611 . S
C2265 N860 1.502 . S
C2281 N431 1.502 . S
C2283 C681 1.611 . S
C2299 C714 1.611 . S
C2301 N992 1.502 . S
C2317 N497 1.502 . S
C2319 C747 1.611 . S
C2335 N926 1.502 . S
C2337 C780 1.611 . S
C2353 N101 1.502 . S
C2355 C813 1.611 . S
C2371 C846 1.611 . S
C2373 N530 1.502 . S
C2389 N35 1.502 . S
C2391 C879 1.611 . S
C2407 N596 1.502 . S
C2409 C912 1.611 . S
C2425 N167 1.502 . S
C2427 C945 1.611 . S
C2443 C978 1.611 . S
C2445 N728 1.502 . S
C2461 C1011 1.611 . S
C2463 N233 1.502 . S
C2479 C1044 1.611 . S
C2481 N662 1.502 . S
