# Generated by pormake.
# Topology zga, (5)-cn, num edge types: 1
# Building blocks:
#     Node 0, Type 0, BuildingBlock: BEQFEK_clean_sbu_0, # of connection points: 5
#     Node 1, Type 0, BuildingBlock: BEQFEK_clean_sbu_0, # of connection points: 5
#     Node 2, Type 0, BuildingBlock: BEQFEK_clean_sbu_0, # of connection points: 5
#     Node 3, Type 0, BuildingBlock: BEQFEK_clean_sbu_0, # of connection points: 5
#     Node 4, Type 0, BuildingBlock: BEQFEK_clean_sbu_0, # of connection points: 5
#     Node 5, Type 0, BuildingBlock: BEQFEK_clean_sbu_0, # of connection points: 5
#     Node 6, Type 0, BuildingBlock: BEQFEK_clean_sbu_0, # of connection points: 5
#     Node 7, Type 0, BuildingBlock: BEQFEK_clean_sbu_0, # of connection points: 5
#     Node 8, Type 0, BuildingBlock: BEQFEK_clean_sbu_0, # of connection points: 5
#     Node 9, Type 0, BuildingBlock: BEQFEK_clean_sbu_0, # of connection points: 5
#     Node 10, Type 0, BuildingBlock: BEQFEK_clean_sbu_0, # of connection points: 5
#     Node 11, Type 0, BuildingBlock: BEQFEK_clean_sbu_0, # of connection points: 5
#     Node 12, Type 0, BuildingBlock: BEQFEK_clean_sbu_0, # of connection points: 5
#     Node 13, Type 0, BuildingBlock: BEQFEK_clean_sbu_0, # of connection points: 5
#     Node 14, Type 0, BuildingBlock: BEQFEK_clean_sbu_0, # of connection points: 5
#     Node 15, Type 0, BuildingBlock: BEQFEK_clean_sbu_0, # of connection points: 5
#     Edge 16, Type (0, 0), BuildingBlock: OJICUG_clean_linker_0, # of connection points: 2
#     Edge 17, Type (0, 0), BuildingBlock: OJICUG_clean_linker_0, # of connection points: 2
#     Edge 18, Type (0, 0), BuildingBlock: OJICUG_clean_linker_0, # of connection points: 2
#     Edge 19, Type (0, 0), BuildingBlock: OJICUG_clean_linker_0, # of connection points: 2
#     Edge 20, Type (0, 0), BuildingBlock: OJICUG_clean_linker_0, # of connection points: 2
#     Edge 21, Type (0, 0), BuildingBlock: OJICUG_clean_linker_0, # of connection points: 2
#     Edge 22, Type (0, 0), BuildingBlock: OJICUG_clean_linker_0, # of connection points: 2
#     Edge 23, Type (0, 0), BuildingBlock: OJICUG_clean_linker_0, # of connection points: 2
#     Edge 24, Type (0, 0), BuildingBlock: OJICUG_clean_linker_0, # of connection points: 2
#     Edge 25, Type (0, 0), BuildingBlock: OJICUG_clean_linker_0, # of connection points: 2
#     Edge 26, Type (0, 0), BuildingBlock: OJICUG_clean_linker_0, # of connection points: 2
#     Edge 27, Type (0, 0), BuildingBlock: OJICUG_clean_linker_0, # of connection points: 2
#     Edge 28, Type (0, 0), BuildingBlock: OJICUG_clean_linker_0, # of connection points: 2
#     Edge 29, Type (0, 0), BuildingBlock: OJICUG_clean_linker_0, # of connection points: 2
#     Edge 30, Type (0, 0), BuildingBlock: OJICUG_clean_linker_0, # of connection points: 2
#     Edge 31, Type (0, 0), BuildingBlock: OJICUG_clean_linker_0, # of connection points: 2
#     Edge 32, Type (0, 0), BuildingBlock: OJICUG_clean_linker_0, # of connection points: 2
#     Edge 33, Type (0, 0), BuildingBlock: OJICUG_clean_linker_0, # of connection points: 2
#     Edge 34, Type (0, 0), BuildingBlock: OJICUG_clean_linker_0, # of connection points: 2
#     Edge 35, Type (0, 0), BuildingBlock: OJICUG_clean_linker_0, # of connection points: 2
#     Edge 36, Type (0, 0), BuildingBlock: OJICUG_clean_linker_0, # of connection points: 2
#     Edge 37, Type (0, 0), BuildingBlock: OJICUG_clean_linker_0, # of connection points: 2
#     Edge 38, Type (0, 0), BuildingBlock: OJICUG_clean_linker_0, # of connection points: 2
#     Edge 39, Type (0, 0), BuildingBlock: OJICUG_clean_linker_0, # of connection points: 2
#     Edge 40, Type (0, 0), BuildingBlock: OJICUG_clean_linker_0, # of connection points: 2
#     Edge 41, Type (0, 0), BuildingBlock: OJICUG_clean_linker_0, # of connection points: 2
#     Edge 42, Type (0, 0), BuildingBlock: OJICUG_clean_linker_0, # of connection points: 2
#     Edge 43, Type (0, 0), BuildingBlock: OJICUG_clean_linker_0, # of connection points: 2
#     Edge 44, Type (0, 0), BuildingBlock: OJICUG_clean_linker_0, # of connection points: 2
#     Edge 45, Type (0, 0), BuildingBlock: OJICUG_clean_linker_0, # of connection points: 2
#     Edge 46, Type (0, 0), BuildingBlock: OJICUG_clean_linker_0, # of connection points: 2
#     Edge 47, Type (0, 0), BuildingBlock: OJICUG_clean_linker_0, # of connection points: 2
#     Edge 48, Type (0, 0), BuildingBlock: OJICUG_clean_linker_0, # of connection points: 2
#     Edge 49, Type (0, 0), BuildingBlock: OJICUG_clean_linker_0, # of connection points: 2
#     Edge 50, Type (0, 0), BuildingBlock: OJICUG_clean_linker_0, # of connection points: 2
#     Edge 51, Type (0, 0), BuildingBlock: OJICUG_clean_linker_0, # of connection points: 2
#     Edge 52, Type (0, 0), BuildingBlock: OJICUG_clean_linker_0, # of connection points: 2
#     Edge 53, Type (0, 0), BuildingBlock: OJICUG_clean_linker_0, # of connection points: 2
#     Edge 54, Type (0, 0), BuildingBlock: OJICUG_clean_linker_0, # of connection points: 2
#     Edge 55, Type (0, 0), BuildingBlock: OJICUG_clean_linker_0, # of connection points: 2
# Relax obj value: 0.172
# Max RMSD: 0.228
# Mean RMSD: 0.186
data_MOF--net-zga--node1-BEQFEK_clean_sbu_0--edge1-OJICUG_clean_linker_0
_symmetry_space_group_name_H-M    P1
_symmetry_Int_Tables_number       1
_symmetry_cell_setting            triclinic
loop_
_symmetry_equiv_pos_as_xyz
'x, y, z'
_cell_length_a     39.546428
_cell_length_b     65.975742
_cell_length_c     15.051771
_cell_angle_alpha  90.879144
_cell_angle_beta   90.095845
_cell_angle_gamma 101.43957
loop_
_atom_site_label
_atom_site_type_symbol
_atom_site_fract_x
_atom_site_fract_y
_atom_site_fract_z
_atom_type_partial_charge
Co0 Co 0.10859 0.54393 0.03221 0.0
Co1 Co 0.07986 0.53963 0.22587 0.0
C2 C 0.1021 0.58108 0.13874 0.0
O3 O 0.11144 0.57299 0.06807 0.0
O4 O 0.08963 0.57001 0.20403 0.0
C5 C 0.12118 0.55626 0.8561 0.0
O6 O 0.11372 0.57338 0.88901 0.0
C7 C 0.08934 0.54678 0.4153 0.0
C8 C 0.05118 0.5213 0.47242 0.0
C9 C 0.07785 0.53763 0.49481 0.0
N10 N 0.07067 0.53618 0.34896 0.0
N11 N 0.04748 0.52118 0.38342 0.0
C12 C 0.12028 0.56357 0.40099 0.0
H13 H 0.13096 0.56218 0.33355 0.0
H14 H 0.14051 0.56298 0.45155 0.0
H15 H 0.11249 0.57879 0.40703 0.0
C16 C 0.15891 0.52097 0.10896 0.0
N17 N 0.13117 0.52988 0.11513 0.0
N18 N 0.11825 0.52725 0.19567 0.0
C19 C 0.13692 0.51602 0.24255 0.0
C20 C 0.16339 0.51181 0.18948 0.0
C21 C 0.18003 0.52094 0.02666 0.0
H22 H 0.16308 0.51383 0.97106 0.0
H23 H 0.19103 0.53714 0.00843 0.0
H24 H 0.20113 0.51228 0.03566 0.0
O25 O 0.05979 0.53045 0.02161 0.0
O26 O 0.03825 0.52627 0.15734 0.0
H27 H 0.10255 0.50403 0.3476 0.0
H28 H 0.14482 0.49803 0.35775 0.0
C29 C 0.13044 0.51 0.33747 0.0
H30 H 0.13898 0.52374 0.38099 0.0
H31 H 0.03021 0.51033 0.34599 0.0
O32 O 0.12487 0.54197 0.90883 0.0
C33 C 0.03472 0.52416 0.07338 0.0
Co34 Co 0.14909 0.70843 0.25596 0.0
Co35 Co 0.12287 0.71024 0.0607 0.0
C36 C 0.11931 0.66996 0.15655 0.0
O37 O 0.13256 0.67901 0.2271 0.0
O38 O 0.11402 0.68015 0.08842 0.0
C39 C 0.16214 0.69645 0.43175 0.0
O40 O 0.15158 0.67768 0.3992 0.0
C41 C 0.12981 0.70251 0.87183 0.0
C42 C 0.10431 0.72592 0.8116 0.0
C43 C 0.12346 0.711 0.79128 0.0
N44 N 0.11562 0.71225 0.93665 0.0
N45 N 0.09981 0.72593 0.90022 0.0
C46 C 0.15268 0.68739 0.88875 0.0
H47 H 0.16218 0.68879 0.95841 0.0
H48 H 0.17491 0.6899 0.84253 0.0
H49 H 0.13768 0.67147 0.87761 0.0
C50 C 0.21564 0.72777 0.1697 0.0
N51 N 0.18129 0.72045 0.16878 0.0
N52 N 0.16924 0.72263 0.08866 0.0
C53 C 0.19511 0.73238 0.03749 0.0
C54 C 0.22557 0.73538 0.08588 0.0
C55 C 0.2384 0.72651 0.24801 0.0
H56 H 0.22715 0.71307 0.28929 0.0
H57 H 0.2647 0.72519 0.22633 0.0
H58 H 0.24035 0.74078 0.28929 0.0
O59 O 0.1098 0.72304 0.26283 0.0
O60 O 0.09141 0.72506 0.12463 0.0
H61 H 0.16466 0.74531 0.94334 0.0
H62 H 0.21028 0.75517 0.93616 0.0
C63 C 0.19033 0.7411 0.94802 0.0
H64 H 0.19278 0.72955 0.89547 0.0
H65 H 0.08751 0.736 0.93619 0.0
O66 O 0.16742 0.71162 0.37901 0.0
C67 C 0.08961 0.72893 0.20734 0.0
Co68 Co 0.8422 0.4483 0.96148 0.0
Co69 Co 0.86968 0.45567 0.7673 0.0
C70 C 0.86744 0.4153 0.85998 0.0
O71 O 0.85412 0.42151 0.9296 0.0
O72 O 0.8742 0.42679 0.79254 0.0
C73 C 0.82947 0.43416 0.13769 0.0
O74 O 0.83937 0.41765 0.10582 0.0
C75 C 0.86065 0.44729 0.57874 0.0
C76 C 0.8921 0.47514 0.51889 0.0
C77 C 0.86922 0.45686 0.49831 0.0
N78 N 0.8773 0.45948 0.64378 0.0
N79 N 0.89654 0.47594 0.60769 0.0
C80 C 0.83407 0.42818 0.59523 0.0
H81 H 0.82426 0.42828 0.66422 0.0
H82 H 0.81231 0.42688 0.54743 0.0
H83 H 0.84605 0.41444 0.58629 0.0
C84 C 0.78149 0.46175 0.88227 0.0
N85 N 0.81284 0.45675 0.87639 0.0
N86 N 0.82503 0.4607 0.79585 0.0
C87 C 0.80208 0.4688 0.74846 0.0
C88 C 0.77352 0.46945 0.80103 0.0
C89 C 0.76017 0.45957 0.96479 0.0
H90 H 0.76324 0.44545 0.00044 0.0
H91 H 0.73251 0.45883 0.94902 0.0
H92 H 0.76939 0.47311 0.00929 0.0
O93 O 0.8856 0.46874 0.971 0.0
O94 O 0.906 0.47486 0.8349 0.0
H95 H 0.79317 0.49013 0.64699 0.0
H96 H 0.8034 0.46628 0.60672 0.0
C97 C 0.80924 0.47844 0.65922 0.0
H98 H 0.83667 0.4862 0.65485 0.0
H99 H 0.91145 0.48814 0.6439 0.0
O100 O 0.82451 0.44806 0.08438 0.0
C101 C 0.90847 0.47802 0.9186 0.0
Co102 Co 0.92208 0.30105 0.9728 0.0
Co103 Co 0.89433 0.29297 0.77823 0.0
C104 C 0.90483 0.3351 0.86507 0.0
O105 O 0.91786 0.32909 0.93495 0.0
O106 O 0.89457 0.32268 0.80072 0.0
C107 C 0.92296 0.3125 0.14855 0.0
O108 O 0.90344 0.32429 0.11378 0.0
C109 C 0.89751 0.30014 0.58795 0.0
C110 C 0.87227 0.26973 0.53187 0.0
C111 C 0.88983 0.28924 0.50876 0.0
N112 N 0.88545 0.28757 0.65502 0.0
N113 N 0.86982 0.26953 0.62113 0.0
C114 C 0.92034 0.32099 0.60053 0.0
H115 H 0.93403 0.32199 0.66529 0.0
H116 H 0.93955 0.32421 0.54632 0.0
H117 H 0.90421 0.33296 0.59957 0.0
C118 C 0.97537 0.27877 0.90204 0.0
N119 N 0.94789 0.28783 0.8923 0.0
N120 N 0.93717 0.28559 0.80924 0.0
C121 C 0.95827 0.27568 0.76277 0.0
C122 C 0.98278 0.27061 0.8201 0.0
C123 C 0.99208 0.27649 0.9896 0.0
H124 H 0.97244 0.27423 0.0429 0.0
H125 H 0.01112 0.29088 0.0051 0.0
H126 H 0.00552 0.26324 0.98837 0.0
O127 O 0.87553 0.28467 0.98346 0.0
O128 O 0.85555 0.27644 0.84729 0.0
H129 H 0.93343 0.26002 0.64741 0.0
H130 H 0.97975 0.26754 0.63732 0.0
C131 C 0.95628 0.27216 0.66418 0.0
H132 H 0.95389 0.28666 0.63138 0.0
H133 H 0.85891 0.2568 0.65905 0.0
O134 O 0.93838 0.30191 0.0969 0.0
C135 C 0.85194 0.27556 0.93141 0.0
Co136 Co 0.10924 0.04163 0.53318 0.0
Co137 Co 0.08015 0.03788 0.72666 0.0
C138 C 0.10388 0.0791 0.63863 0.0
O139 O 0.11286 0.07082 0.56797 0.0
O140 O 0.09104 0.06819 0.70401 0.0
C141 C 0.12423 0.05374 0.3565 0.0
O142 O 0.11989 0.07164 0.3887 0.0
C143 C 0.09128 0.04475 0.91561 0.0
C144 C 0.05048 0.02103 0.97444 0.0
C145 C 0.07905 0.03623 0.9957 0.0
N146 N 0.07115 0.03489 0.85006 0.0
N147 N 0.04645 0.02095 0.88554 0.0
C148 C 0.12384 0.06021 0.89997 0.0
H149 H 0.13349 0.05841 0.8317 0.0
H150 H 0.14398 0.05846 0.94912 0.0
H151 H 0.11845 0.07602 0.90735 0.0
C152 C 0.15913 0.01856 0.61253 0.0
N153 N 0.13143 0.02757 0.61708 0.0
N154 N 0.11806 0.02509 0.69716 0.0
C155 C 0.13629 0.01386 0.74527 0.0
C156 C 0.16323 0.00964 0.69396 0.0
C157 C 0.18186 0.01932 0.53287 0.0
H158 H 0.17159 0.00594 0.48838 0.0
H159 H 0.18198 0.03372 0.49567 0.0
H160 H 0.20862 0.01849 0.55248 0.0
O161 O 0.06016 0.02853 0.52302 0.0
O162 O 0.03832 0.0248 0.65855 0.0
H163 H 0.09809 0.00153 0.84174 0.0
H164 H 0.13726 0.99168 0.84904 0.0
C165 C 0.12651 0.00566 0.83585 0.0
H166 H 0.13687 0.01761 0.88671 0.0
H167 H 0.02779 0.0108 0.84887 0.0
O168 O 0.12519 0.03908 0.40973 0.0
C169 C 0.03489 0.02255 0.57462 0.0
Co170 Co 0.14831 0.20723 0.75414 0.0
Co171 Co 0.12028 0.20765 0.55931 0.0
C172 C 0.12077 0.16802 0.65504 0.0
O173 O 0.1331 0.1775 0.72568 0.0
O174 O 0.11482 0.17782 0.58635 0.0
C175 C 0.16201 0.19569 0.93024 0.0
O176 O 0.15259 0.17685 0.89748 0.0
C177 C 0.12774 0.20033 0.37012 0.0
C178 C 0.09985 0.22263 0.31005 0.0
C179 C 0.12059 0.20856 0.28956 0.0
N180 N 0.11249 0.20942 0.43506 0.0
N181 N 0.09526 0.22243 0.39868 0.0
C182 C 0.15234 0.18622 0.38696 0.0
H183 H 0.16193 0.18798 0.4565 0.0
H184 H 0.17447 0.18943 0.34054 0.0
H185 H 0.13871 0.16997 0.37615 0.0
C186 C 0.21332 0.2278 0.66476 0.0
N187 N 0.17921 0.21978 0.66571 0.0
N188 N 0.16616 0.22172 0.58648 0.0
C189 C 0.19117 0.232 0.53407 0.0
C190 C 0.2221 0.2356 0.58061 0.0
C191 C 0.23702 0.22692 0.74151 0.0
H192 H 0.22638 0.21365 0.78436 0.0
H193 H 0.26307 0.22557 0.71792 0.0
H194 H 0.2394 0.24136 0.7818 0.0
O195 O 0.10848 0.22127 0.76127 0.0
O196 O 0.08614 0.22016 0.62546 0.0
H197 H 0.20402 0.25504 0.43291 0.0
H198 H 0.18821 0.22924 0.39205 0.0
C199 C 0.18508 0.24054 0.44508 0.0
H200 H 0.15882 0.24395 0.44157 0.0
H201 H 0.08192 0.23195 0.4347 0.0
O202 O 0.16673 0.21087 0.87744 0.0
C203 C 0.08587 0.22512 0.70746 0.0
Co204 Co 0.84109 0.9481 0.46372 0.0
Co205 Co 0.8687 0.9548 0.26937 0.0
C206 C 0.8654 0.91454 0.36344 0.0
O207 O 0.85236 0.92111 0.43269 0.0
O208 O 0.87242 0.9258 0.29537 0.0
C209 C 0.82726 0.93397 0.6398 0.0
O210 O 0.8358 0.91707 0.60778 0.0
C211 C 0.85942 0.94642 0.08078 0.0
C212 C 0.89173 0.97397 0.0209 0.0
C213 C 0.86826 0.95592 0.00034 0.0
N214 N 0.87647 0.95843 0.1458 0.0
N215 N 0.89622 0.97471 0.10967 0.0
C216 C 0.83224 0.92759 0.09734 0.0
H217 H 0.82264 0.92777 0.16651 0.0
H218 H 0.81044 0.92664 0.0499 0.0
H219 H 0.84359 0.91362 0.08788 0.0
C220 C 0.78101 0.96209 0.38395 0.0
N221 N 0.81207 0.9567 0.37825 0.0
N222 N 0.82431 0.96039 0.29759 0.0
C223 C 0.8017 0.96871 0.24994 0.0
C224 C 0.77329 0.96978 0.30248 0.0
C225 C 0.75974 0.96029 0.46654 0.0
H226 H 0.76236 0.94614 0.50264 0.0
H227 H 0.73216 0.95983 0.45079 0.0
H228 H 0.76937 0.97385 0.51062 0.0
O229 O 0.88485 0.96823 0.47285 0.0
O230 O 0.90546 0.9738 0.33665 0.0
H231 H 0.83669 0.98562 0.15585 0.0
H232 H 0.79352 0.99011 0.14804 0.0
C233 C 0.80911 0.97819 0.16047 0.0
H234 H 0.80281 0.96599 0.10824 0.0
H235 H 0.91151 0.98676 0.14587 0.0
O236 O 0.82344 0.94815 0.58663 0.0
C237 C 0.90796 0.97717 0.42022 0.0
Co238 Co 0.9234 0.80158 0.48226 0.0
Co239 Co 0.89359 0.79189 0.28945 0.0
C240 C 0.90347 0.83456 0.37622 0.0
O241 O 0.91718 0.82923 0.44646 0.0
O242 O 0.89354 0.82168 0.31308 0.0
C243 C 0.93019 0.81386 0.66146 0.0
O244 O 0.91512 0.82844 0.63144 0.0
C245 C 0.90346 0.79924 0.10136 0.0
C246 C 0.86917 0.77242 0.03785 0.0
C247 C 0.89361 0.79002 0.01961 0.0
N248 N 0.88591 0.78759 0.16502 0.0
N249 N 0.86508 0.7717 0.12673 0.0
C250 C 0.9316 0.81762 0.11987 0.0
H251 H 0.9423 0.81685 0.18763 0.0
H252 H 0.95249 0.81856 0.07004 0.0
H253 H 0.92079 0.83187 0.11593 0.0
C254 C 0.98027 0.78335 0.40446 0.0
N255 N 0.94998 0.78972 0.39899 0.0
N256 N 0.93632 0.78473 0.31996 0.0
C257 C 0.95684 0.77443 0.27368 0.0
C258 C 0.98576 0.77351 0.32474 0.0
C259 C 0.00328 0.78675 0.48446 0.0
H260 H 0.00058 0.80122 0.51983 0.0
H261 H 0.03061 0.78754 0.46546 0.0
H262 H 0.99545 0.77367 0.53042 0.0
O263 O 0.87709 0.7841 0.4925 0.0
O264 O 0.8557 0.77508 0.35803 0.0
H265 H 0.96024 0.7502 0.17717 0.0
H266 H 0.95318 0.77414 0.13179 0.0
C267 C 0.94668 0.76324 0.18737 0.0
H268 H 0.91859 0.75689 0.1865 0.0
H269 H 0.84902 0.76001 0.16135 0.0
O270 O 0.94042 0.80163 0.60615 0.0
C271 C 0.8532 0.77441 0.4424 0.0
Co272 Co 0.60948 0.5419 0.53475 0.0
Co273 Co 0.57995 0.53745 0.72774 0.0
C274 C 0.6043 0.579 0.6426 0.0
O275 O 0.61351 0.57102 0.57147 0.0
O276 O 0.59108 0.56782 0.70682 0.0
C277 C 0.62218 0.5539 0.35804 0.0
O278 O 0.61532 0.57122 0.39045 0.0
C279 C 0.59077 0.54407 0.91688 0.0
C280 C 0.5501 0.52019 0.97519 0.0
C281 C 0.57846 0.5355 0.99679 0.0
N282 N 0.57086 0.53416 0.85105 0.0
N283 N 0.54626 0.5201 0.88622 0.0
C284 C 0.6232 0.55968 0.90179 0.0
H285 H 0.63317 0.55787 0.83388 0.0
H286 H 0.6432 0.5581 0.95162 0.0
H287 H 0.6175 0.57543 0.90859 0.0
C288 C 0.65895 0.51836 0.61275 0.0
N289 N 0.6313 0.52741 0.61773 0.0
N290 N 0.6178 0.52469 0.69759 0.0
C291 C 0.63592 0.51329 0.74514 0.0
C292 C 0.66289 0.50918 0.69367 0.0
C293 C 0.68184 0.51936 0.53329 0.0
H294 H 0.68206 0.53389 0.49695 0.0
H295 H 0.70854 0.51844 0.553 0.0
H296 H 0.67161 0.50613 0.48798 0.0
O297 O 0.56036 0.52906 0.52364 0.0
O298 O 0.53816 0.52469 0.65862 0.0
H299 H 0.637 0.49102 0.84849 0.0
H300 H 0.63624 0.51688 0.88663 0.0
C301 C 0.6261 0.50495 0.83548 0.0
H302 H 0.59768 0.5007 0.84104 0.0
H303 H 0.52774 0.5099 0.84931 0.0
O304 O 0.62545 0.5396 0.4112 0.0
C305 C 0.53494 0.52288 0.57449 0.0
Co306 Co 0.64948 0.70668 0.7683 0.0
Co307 Co 0.62217 0.70789 0.57344 0.0
C308 C 0.62167 0.66787 0.66691 0.0
O309 O 0.63395 0.67702 0.73828 0.0
O310 O 0.61605 0.67798 0.5989 0.0
C311 C 0.66201 0.69484 0.94436 0.0
O312 O 0.65114 0.6761 0.91178 0.0
C313 C 0.62949 0.70066 0.38436 0.0
C314 C 0.60253 0.72343 0.32447 0.0
C315 C 0.62258 0.70899 0.3039 0.0
N316 N 0.61471 0.71 0.44938 0.0
N317 N 0.59806 0.72332 0.41314 0.0
C318 C 0.65344 0.68614 0.40096 0.0
H319 H 0.66327 0.68785 0.47028 0.0
H320 H 0.67545 0.689 0.35408 0.0
H321 H 0.6392 0.67002 0.3906 0.0
C322 C 0.71507 0.72695 0.68094 0.0
N323 N 0.68084 0.71928 0.68111 0.0
N324 N 0.66813 0.72153 0.60178 0.0
C325 C 0.69351 0.73166 0.55009 0.0
C326 C 0.72428 0.73484 0.59722 0.0
C327 C 0.73847 0.72561 0.75784 0.0
H328 H 0.72741 0.71227 0.79984 0.0
H329 H 0.76447 0.72409 0.73445 0.0
H330 H 0.74111 0.73996 0.7989 0.0
O331 O 0.61003 0.72108 0.77569 0.0
O332 O 0.58825 0.72053 0.63945 0.0
H333 H 0.7075 0.75458 0.44886 0.0
H334 H 0.69074 0.72888 0.40806 0.0
C335 C 0.68801 0.7403 0.46091 0.0
H336 H 0.66204 0.74412 0.45698 0.0
H337 H 0.58514 0.73305 0.44926 0.0
O338 O 0.66782 0.70999 0.89149 0.0
C339 C 0.5878 0.72529 0.7216 0.0
Co340 Co 0.34119 0.44956 0.45651 0.0
Co341 Co 0.36911 0.45674 0.26232 0.0
C342 C 0.36544 0.4162 0.35393 0.0
O343 O 0.35212 0.42255 0.42323 0.0
O344 O 0.37279 0.42769 0.28671 0.0
C345 C 0.33025 0.43558 0.63247 0.0
O346 O 0.34149 0.41961 0.59963 0.0
C347 C 0.36255 0.44835 0.07294 0.0
C348 C 0.3909 0.4774 0.01536 0.0
C349 C 0.3703 0.45842 0.99319 0.0
N350 N 0.37735 0.46094 0.13908 0.0
N351 N 0.39486 0.47811 0.1043 0.0
C352 C 0.3377 0.42841 0.08785 0.0
H353 H 0.32673 0.42819 0.15572 0.0
H354 H 0.31649 0.42612 0.03807 0.0
H355 H 0.35159 0.41542 0.08114 0.0
C356 C 0.28205 0.46487 0.37849 0.0
N357 N 0.31259 0.45884 0.37175 0.0
N358 N 0.32468 0.46236 0.29079 0.0
C359 C 0.30231 0.47103 0.24377 0.0
C360 C 0.27463 0.47289 0.29756 0.0
C361 C 0.26232 0.46467 0.46323 0.0
H362 H 0.27812 0.4752 0.51241 0.0
H363 H 0.25768 0.44887 0.49096 0.0
H364 H 0.23738 0.46961 0.4532 0.0
O365 O 0.38504 0.46941 0.46711 0.0
O366 O 0.40587 0.47545 0.33137 0.0
H367 H 0.33322 0.48784 0.14202 0.0
H368 H 0.28752 0.48615 0.12635 0.0
C369 C 0.30745 0.47776 0.1493 0.0
H370 H 0.30583 0.46395 0.10571 0.0
H371 H 0.40804 0.49071 0.14153 0.0
O372 O 0.32355 0.44915 0.57973 0.0
C373 C 0.40827 0.47849 0.41518 0.0
Co374 Co 0.42091 0.30222 0.46989 0.0
Co375 Co 0.39338 0.2938 0.27532 0.0
C376 C 0.40286 0.33598 0.36157 0.0
O377 O 0.41599 0.33013 0.43167 0.0
O378 O 0.39292 0.32345 0.29734 0.0
C379 C 0.42157 0.31368 0.64573 0.0
O380 O 0.40173 0.3253 0.61112 0.0
C381 C 0.39664 0.30093 0.08508 0.0
C382 C 0.37177 0.27047 0.02885 0.0
C383 C 0.3891 0.29004 0.00585 0.0
N384 N 0.3847 0.2883 0.15209 0.0
N385 N 0.36931 0.27023 0.11811 0.0
C386 C 0.41921 0.32186 0.09775 0.0
H387 H 0.43284 0.32292 0.16262 0.0
H388 H 0.43847 0.32514 0.04367 0.0
H389 H 0.40291 0.33372 0.09657 0.0
C390 C 0.47469 0.28023 0.40002 0.0
N391 N 0.44711 0.28919 0.38976 0.0
N392 N 0.43648 0.2868 0.30666 0.0
C393 C 0.45775 0.27692 0.26065 0.0
C394 C 0.48227 0.27201 0.31837 0.0
C395 C 0.49121 0.27802 0.4879 0.0
H396 H 0.47141 0.27561 0.54079 0.0
H397 H 0.50999 0.29249 0.50384 0.0
H398 H 0.50491 0.26488 0.48698 0.0
O399 O 0.37466 0.28547 0.48061 0.0
O400 O 0.35486 0.27701 0.34446 0.0
H401 H 0.43304 0.26093 0.14581 0.0
H402 H 0.47935 0.26864 0.13563 0.0
C403 C 0.45578 0.2732 0.16218 0.0
H404 H 0.45318 0.28759 0.12877 0.0
H405 H 0.35852 0.25746 0.15597 0.0
O406 O 0.43724 0.30327 0.59397 0.0
C407 C 0.35125 0.27612 0.42858 0.0
Co408 Co 0.6101 0.04281 0.03498 0.0
Co409 Co 0.58106 0.03897 0.22846 0.0
C410 C 0.60474 0.08023 0.14069 0.0
O411 O 0.61377 0.07199 0.06999 0.0
O412 O 0.59191 0.06929 0.20598 0.0
C413 C 0.6249 0.0549 0.85829 0.0
O414 O 0.62035 0.07277 0.89045 0.0
C415 C 0.59223 0.04578 0.41737 0.0
C416 C 0.55141 0.02207 0.47618 0.0
C417 C 0.57999 0.03726 0.49744 0.0
N418 N 0.5721 0.03593 0.35182 0.0
N419 N 0.54739 0.02199 0.38728 0.0
C420 C 0.62479 0.06125 0.40175 0.0
H421 H 0.63446 0.05943 0.33352 0.0
H422 H 0.64491 0.05952 0.45098 0.0
H423 H 0.61937 0.07706 0.409 0.0
C424 C 0.65978 0.01951 0.11362 0.0
N425 N 0.63223 0.02866 0.11858 0.0
N426 N 0.61893 0.02617 0.19872 0.0
C427 C 0.63706 0.01483 0.24651 0.0
C428 C 0.66385 0.01051 0.19486 0.0
C429 C 0.68234 0.02018 0.03366 0.0
H430 H 0.68277 0.03467 0.99692 0.0
H431 H 0.70902 0.01907 0.05284 0.0
H432 H 0.67168 0.00692 0.98891 0.0
O433 O 0.561 0.02979 0.02484 0.0
O434 O 0.5392 0.02595 0.1604 0.0
H435 H 0.59888 0.0025 0.343 0.0
H436 H 0.63799 0.9926 0.35014 0.0
C437 C 0.6273 0.0066 0.33706 0.0
H438 H 0.63771 0.01854 0.38796 0.0
H439 H 0.52872 0.01185 0.35059 0.0
O440 O 0.62603 0.04027 0.91154 0.0
C441 C 0.53573 0.0238 0.07645 0.0
Co442 Co 0.64775 0.20832 0.25623 0.0
Co443 Co 0.62002 0.20869 0.06125 0.0
C444 C 0.62044 0.16909 0.15715 0.0
O445 O 0.63259 0.17859 0.2279 0.0
O446 O 0.61459 0.17886 0.0883 0.0
C447 C 0.66169 0.19678 0.4322 0.0
O448 O 0.65248 0.17793 0.39941 0.0
C449 C 0.62748 0.20134 0.87208 0.0
C450 C 0.59977 0.22374 0.81207 0.0
C451 C 0.6204 0.20961 0.79156 0.0
N452 N 0.6123 0.21048 0.93704 0.0
N453 N 0.59517 0.22354 0.90068 0.0
C454 C 0.65196 0.18716 0.8889 0.0
H455 H 0.66159 0.18891 0.95841 0.0
H456 H 0.67409 0.19031 0.84243 0.0
H457 H 0.63823 0.17094 0.87813 0.0
C458 C 0.71297 0.22864 0.1672 0.0
N459 N 0.67881 0.2208 0.168 0.0
N460 N 0.66588 0.22275 0.08864 0.0
C461 C 0.69104 0.23288 0.03629 0.0
C462 C 0.72192 0.23636 0.08301 0.0
C463 C 0.73656 0.22759 0.244 0.0
H464 H 0.72567 0.21438 0.28686 0.0
H465 H 0.76253 0.22604 0.22049 0.0
H466 H 0.73923 0.24206 0.28426 0.0
O467 O 0.60797 0.22243 0.26303 0.0
O468 O 0.58581 0.22121 0.127 0.0
H469 H 0.65901 0.2449 0.94313 0.0
H470 H 0.7043 0.2558 0.93476 0.0
C471 C 0.68518 0.24137 0.94703 0.0
H472 H 0.68824 0.23 0.89428 0.0
H473 H 0.58191 0.2331 0.93673 0.0
O474 O 0.66615 0.21197 0.37948 0.0
C475 C 0.58543 0.22625 0.20889 0.0
Co476 Co 0.34236 0.94905 0.96491 0.0
Co477 Co 0.36995 0.95612 0.77064 0.0
C478 C 0.36751 0.91587 0.86439 0.0
O479 O 0.35421 0.9222 0.93375 0.0
O480 O 0.37431 0.92725 0.79661 0.0
C481 C 0.329 0.9349 0.14104 0.0
O482 O 0.33813 0.91816 0.10909 0.0
C483 C 0.36087 0.94768 0.58204 0.0
C484 C 0.39259 0.97542 0.52214 0.0
C485 C 0.36951 0.95722 0.50159 0.0
N486 N 0.37766 0.95981 0.64706 0.0
N487 N 0.39707 0.97621 0.61093 0.0
C488 C 0.33408 0.92866 0.59861 0.0
H489 H 0.32442 0.92877 0.66774 0.0
H490 H 0.31225 0.92751 0.5511 0.0
H491 H 0.34581 0.91484 0.58925 0.0
C492 C 0.28178 0.96252 0.88497 0.0
N493 N 0.31309 0.95747 0.87944 0.0
N494 N 0.32534 0.9613 0.79886 0.0
C495 C 0.30246 0.96938 0.75113 0.0
C496 C 0.27388 0.97013 0.80348 0.0
C497 C 0.2604 0.96047 0.96739 0.0
H498 H 0.2696 0.97407 0.01156 0.0
H499 H 0.26344 0.9464 0.00351 0.0
H500 H 0.23276 0.9597 0.95143 0.0
O501 O 0.38587 0.96942 0.97416 0.0
O502 O 0.40637 0.9753 0.83802 0.0
H503 H 0.33716 0.98658 0.6572 0.0
H504 H 0.29375 0.99067 0.64931 0.0
C505 C 0.30968 0.97893 0.66172 0.0
H506 H 0.30369 0.96672 0.60942 0.0
H507 H 0.4121 0.98836 0.64711 0.0
O508 O 0.32467 0.94896 0.08782 0.0
C509 C 0.40884 0.97856 0.92165 0.0
Co510 Co 0.42468 0.80239 0.98094 0.0
Co511 Co 0.39748 0.79395 0.78617 0.0
C512 C 0.40624 0.83603 0.87257 0.0
O513 O 0.41935 0.83023 0.94277 0.0
O514 O 0.39656 0.82351 0.80818 0.0
C515 C 0.42528 0.81389 0.15668 0.0
O516 O 0.40523 0.82539 0.12208 0.0
C517 C 0.40071 0.80106 0.596 0.0
C518 C 0.37604 0.77055 0.53979 0.0
C519 C 0.39322 0.79016 0.51678 0.0
N520 N 0.38889 0.78841 0.66301 0.0
N521 N 0.37362 0.77031 0.62905 0.0
C522 C 0.4231 0.82204 0.60864 0.0
H523 H 0.43671 0.82317 0.67356 0.0
H524 H 0.44237 0.82538 0.5546 0.0
H525 H 0.40667 0.83384 0.60733 0.0
C526 C 0.47854 0.78042 0.91164 0.0
N527 N 0.45113 0.7895 0.90097 0.0
N528 N 0.44069 0.78719 0.81771 0.0
C529 C 0.46194 0.77725 0.77198 0.0
C530 C 0.48621 0.7722 0.83007 0.0
C531 C 0.49464 0.77797 -0.00014 0.0
H532 H 0.47459 0.77552 0.05214 0.0
H533 H 0.51345 0.79236 0.0167 0.0
H534 H 0.5082 0.76477 -0.00107 0.0
O535 O 0.37864 0.78536 0.99154 0.0
O536 O 0.35919 0.77693 0.85504 0.0
H537 H 0.43742 0.76118 0.65712 0.0
H538 H 0.48372 0.76895 0.6473 0.0
C539 C 0.46008 0.77349 0.67353 0.0
H540 H 0.45742 0.78785 0.63993 0.0
H541 H 0.36293 0.75752 0.66693 0.0
O542 O 0.44107 0.80355 0.10492 0.0
C543 C 0.35548 0.77592 0.9391 0.0
C544 C 0.21174 0.4718 0.27375 0.0
C545 C 0.24577 0.48304 0.27472 0.0
H546 H 0.15873 0.47214 0.24374 0.0
C547 C 0.25254 0.50373 0.24772 0.0
H548 H 0.20608 0.45578 0.29372 0.0
C549 C 0.22574 0.51295 0.21843 0.0
C550 C 0.19175 0.50167 0.21659 0.0
H551 H 0.27867 0.51266 0.24827 0.0
H552 H 0.23148 0.52893 0.19796 0.0
C553 C 0.18487 0.48106 0.24467 0.0
C554 C 0.05227 0.75471 0.18265 0.0
C555 C 0.06425 0.741 0.23955 0.0
H556 H 0.01938 0.77652 0.167 0.0
C557 C 0.05208 0.73914 0.32741 0.0
H558 H 0.06169 0.75677 0.11517 0.0
C559 C 0.02722 0.75015 0.35651 0.0
C560 C 0.01466 0.76346 0.29871 0.0
H561 H 0.06099 0.72872 0.37281 0.0
H562 H 0.01704 0.74769 0.42305 0.0
C563 C 0.0281 0.76602 0.21236 0.0
C564 C 0.30101 0.74909 0.9293 0.0
C565 C 0.32327 0.76442 0.97829 0.0
H566 H 0.25335 0.72711 0.92728 0.0
C567 C 0.31431 0.76906 0.0658 0.0
H568 H 0.30747 0.74497 0.86237 0.0
C569 C 0.28302 0.75918 0.10218 0.0
C570 C 0.26036 0.7443 0.05223 0.0
H571 H 0.33097 0.78084 0.10536 0.0
H572 H 0.27607 0.76376 0.16799 0.0
C573 C 0.27004 0.73894 0.96642 0.0
C574 C 0.94282 0.49432 0.05023 0.0
C575 C 0.93955 0.49149 0.95741 0.0
H576 H 0.97533 0.50681 0.15977 0.0
C577 C 0.96709 0.50053 0.90318 0.0
H578 H 0.92203 0.48763 0.0941 0.0
C579 C -0.00234 0.51151 0.94101 0.0
C580 C 0.00138 0.51371 0.03396 0.0
H581 H 0.96541 0.4987 0.83156 0.0
H582 H 0.01863 0.51793 0.89716 0.0
C583 C 0.9734 0.5053 0.08808 0.0
C584 C 0.73371 0.49381 0.83104 0.0
C585 C 0.7435 0.4785 0.77688 0.0
H586 H 0.70092 0.51585 0.84574 0.0
C587 C 0.72622 0.47302 0.69572 0.0
H588 H 0.74707 0.49857 0.89305 0.0
C589 C 0.69998 0.48297 0.66835 0.0
C590 C 0.69054 0.49849 0.72193 0.0
H591 H 0.73334 0.4612 0.653 0.0
H592 H 0.687 0.47848 0.60561 0.0
C593 C 0.70748 0.50374 0.80371 0.0
C594 C 0.06803 0.25283 0.8005 0.0
C595 C 0.05924 0.23597 0.74098 0.0
H596 H 0.0508 0.2775 0.87028 0.0
C597 C 0.02492 0.22971 0.71302 0.0
H598 H 0.09443 0.25788 0.82307 0.0
C599 C -0.00017 0.24033 0.74302 0.0
C600 C 0.00885 0.25798 0.79823 0.0
H601 H 0.01747 0.21652 0.66843 0.0
H602 H 0.9734 0.23497 0.72134 0.0
C603 C 0.04309 0.26394 0.828 0.0
C604 C 0.77964 0.26006 0.09616 0.0
C605 C 0.75638 0.24529 0.04716 0.0
H606 H 0.82816 0.28117 0.09782 0.0
C607 C 0.76542 0.23977 0.96097 0.0
H608 H 0.77322 0.26476 0.16223 0.0
C609 C 0.79645 0.24953 0.92286 0.0
C610 C 0.81943 0.26462 0.97119 0.0
H611 H 0.74832 0.22799 0.92255 0.0
H612 H 0.80248 0.24522 0.85586 0.0
C613 C 0.81097 0.26954 0.05879 0.0
C614 C 0.22664 0.97353 0.69767 0.0
C615 C 0.24387 0.97915 0.77879 0.0
H616 H 0.18743 0.9788 0.6071 0.0
C617 C 0.23405 0.99454 0.83233 0.0
H618 H 0.23378 0.96163 0.6554 0.0
C619 C 0.20783 0.00442 0.80444 0.0
C620 C 0.19092 -0.00097 0.72272 0.0
H621 H 0.24738 -0.00059 0.8943 0.0
H622 H 0.20125 0.0166 0.84601 0.0
C623 C 0.2004 0.98341 0.66976 0.0
C624 C 0.27937 0.25976 0.59376 0.0
C625 C 0.25641 0.24484 0.54472 0.0
H626 H 0.32741 0.28133 0.59531 0.0
C627 C 0.26552 0.23951 0.45834 0.0
H628 H 0.27287 0.26433 0.65997 0.0
C629 C 0.29632 0.2496 0.4201 0.0
C630 C 0.31898 0.26486 0.46845 0.0
H631 H 0.24865 0.22764 0.41986 0.0
H632 H 0.30241 0.24543 0.35296 0.0
C633 C 0.31047 0.26958 0.55623 0.0
C634 C 0.94247 0.99355 0.55145 0.0
C635 C 0.93928 0.99046 0.45874 0.0
H636 H 0.97503 0.00606 0.66084 0.0
C637 C 0.9671 -0.00095 0.40448 0.0
H638 H 0.92148 0.98721 0.59536 0.0
C639 C -0.00217 0.00985 0.44223 0.0
C640 C 0.00144 0.01231 0.53512 0.0
H641 H 0.9655 0.997 0.33294 0.0
H642 H 0.019 0.01592 0.3984 0.0
C643 C 0.97321 0.00435 0.58921 0.0
C644 C 0.70844 0.00486 0.30453 0.0
C645 C 0.69129 -0.00037 0.22301 0.0
H646 H 0.74788 -0.00057 0.39378 0.0
C647 C 0.70026 0.98392 0.16969 0.0
H648 H 0.70223 0.01711 0.34636 0.0
C649 C 0.72622 0.97375 0.19712 0.0
C650 C 0.74366 0.97918 0.27809 0.0
H651 H 0.68711 0.97943 0.10717 0.0
H652 H 0.73294 0.96176 0.15464 0.0
C653 C 0.73437 0.9947 0.33193 0.0
C654 C 0.76777 0.7379 0.47569 0.0
C655 C 0.75886 0.74354 0.56174 0.0
H656 H 0.80436 0.74343 0.3697 0.0
C657 C 0.7822 0.75837 0.61036 0.0
H658 H 0.75062 0.72606 0.43767 0.0
C659 C 0.81334 0.76796 0.5722 0.0
C660 C 0.82145 0.76307 0.48432 0.0
H661 H 0.77587 0.7631 0.67647 0.0
H662 H 0.83052 0.77973 0.61057 0.0
C663 C 0.79856 0.74774 0.43688 0.0
C664 C 0.54604 0.76484 0.84002 0.0
C665 C 0.51185 0.75919 0.80954 0.0
H666 H 0.59701 0.75817 0.83666 0.0
C667 C 0.50246 0.74145 0.75499 0.0
H668 H 0.554 0.77845 0.88188 0.0
C669 C 0.5272 0.73045 0.72618 0.0
C670 C 0.56149 0.73641 0.75473 0.0
H671 H 0.47603 0.73633 0.73286 0.0
H672 H 0.51951 0.71722 0.68191 0.0
C673 C 0.57061 0.75334 0.81373 0.0
C674 C 0.47309 0.50485 0.58682 0.0
C675 C 0.50158 0.51291 0.53377 0.0
H676 H 0.42123 0.48788 0.59101 0.0
C677 C 0.49831 0.51079 0.44067 0.0
H678 H 0.47465 0.50631 0.65857 0.0
C679 C 0.46765 0.50023 0.40169 0.0
C680 C 0.43957 0.49154 0.45492 0.0
H681 H 0.51969 0.51694 0.39761 0.0
H682 H 0.46631 0.49843 0.33004 0.0
C683 C 0.44243 0.4943 0.54785 0.0
C684 C 0.49939 0.24158 0.24262 0.0
C685 C 0.50836 0.25933 0.29727 0.0
H686 H 0.51709 0.21761 0.16929 0.0
C687 C 0.54256 0.26531 0.32735 0.0
H688 H 0.47299 0.2362 0.22074 0.0
C689 C 0.5675 0.25412 0.30075 0.0
C690 C 0.55878 0.23715 0.24178 0.0
H691 H 0.55022 0.27895 0.36924 0.0
H692 H 0.59388 0.25919 0.32353 0.0
C693 C 0.5245 0.23087 0.21349 0.0
C694 C 0.44329 0.99486 0.0531 0.0
C695 C 0.44006 0.9919 0.96034 0.0
H696 H 0.47592 0.0072 0.16263 0.0
C697 C 0.46783 0.00061 0.90613 0.0
H698 H 0.42234 0.98842 0.09696 0.0
C699 C 0.49857 0.01137 0.94398 0.0
C700 C 0.50224 0.01366 0.03691 0.0
H701 H 0.4662 0.99868 0.83455 0.0
H702 H 0.51971 0.01751 0.90018 0.0
C703 C 0.47404 0.00561 0.09096 0.0
C704 C 0.10196 0.5632 0.61427 0.0
C705 C 0.0925 0.5426 0.58448 0.0
H706 H 0.11919 0.58372 0.7238 0.0
C707 C 0.09606 0.52661 0.64204 0.0
H708 H 0.09904 0.5758 0.57155 0.0
C709 C 0.10797 0.53112 0.7289 0.0
C710 C 0.11588 0.55171 0.76019 0.0
H711 H 0.08914 0.51059 0.62024 0.0
H712 H 0.10925 0.51841 0.7727 0.0
C713 C 0.11348 0.56772 0.70143 0.0
C714 C 0.14837 0.72396 0.6462 0.0
C715 C 0.13731 0.70727 0.70282 0.0
H716 H 0.1662 0.73375 0.51693 0.0
C717 C 0.13836 0.68716 0.67279 0.0
H718 H 0.14816 0.73965 0.66816 0.0
C719 C 0.14879 0.68373 0.58608 0.0
C720 C 0.15834 0.70036 0.52791 0.0
H721 H 0.12958 0.67398 0.71465 0.0
H722 H 0.14781 0.66796 0.56345 0.0
C723 C 0.15906 0.72058 0.55987 0.0
C724 C 0.84703 0.46519 0.35117 0.0
C725 C 0.85506 0.45039 0.4093 0.0
H726 H 0.8313 0.47153 0.22034 0.0
C727 C 0.85081 0.42972 0.38033 0.0
H728 H 0.84983 0.48121 0.37232 0.0
C729 C 0.84023 0.42412 0.29321 0.0
C730 C 0.83358 0.4391 0.23371 0.0
H731 H 0.85724 0.41805 0.42348 0.0
H732 H 0.8387 0.40824 0.27144 0.0
C733 C 0.83607 0.45958 0.26446 0.0
C734 C 0.90683 0.32136 0.30217 0.0
C735 C 0.91963 0.30784 0.24397 0.0
H736 H 0.88709 0.32594 0.43176 0.0
C737 C 0.92429 0.28861 0.27512 0.0
H738 H 0.90277 0.33622 0.27971 0.0
C739 C 0.91473 0.28262 0.3616 0.0
C740 C 0.90109 0.29593 0.41878 0.0
H741 H 0.93371 0.27777 0.23147 0.0
H742 H 0.91771 0.26751 0.38357 0.0
C743 C 0.89781 0.31549 0.38901 0.0
C744 C 0.10779 0.02868 0.23011 0.0
C745 C 0.11843 0.04921 0.26064 0.0
H746 H 0.08645 0.00858 0.12226 0.0
C747 C 0.1184 0.06541 0.2011 0.0
H748 H 0.10722 0.01583 0.27444 0.0
C749 C 0.10653 0.06121 0.11399 0.0
C750 C 0.09432 0.04075 0.08505 0.0
H751 H 0.12625 0.08139 0.22282 0.0
H752 H 0.10545 0.07403 0.07073 0.0
C753 C 0.09553 0.02451 0.14335 0.0
C754 C 0.14455 0.22229 0.14441 0.0
C755 C 0.13502 0.20541 0.20103 0.0
H756 H 0.16184 0.23262 0.0153 0.0
C757 C 0.13822 0.18564 0.17097 0.0
H758 H 0.14266 0.23774 0.1663 0.0
C759 C 0.14931 0.18267 0.08443 0.0
C760 C 0.15742 0.19942 0.02633 0.0
H761 H 0.13064 0.17231 0.21271 0.0
H762 H 0.15003 0.16709 0.06189 0.0
C763 C 0.15591 0.21937 0.05821 0.0
C764 C 0.84853 0.92901 0.88221 0.0
C765 C 0.85377 0.9497 0.91139 0.0
H766 H 0.83532 0.90767 0.77319 0.0
C767 C 0.84643 0.96475 0.85353 0.0
H768 H 0.85441 0.91714 0.92513 0.0
C769 C 0.83518 0.95934 0.76686 0.0
C770 C 0.83168 0.93881 0.73586 0.0
H771 H 0.84999 0.9808 0.87484 0.0
H772 H 0.83095 0.97146 0.72296 0.0
C773 C 0.83763 0.9236 0.79513 0.0
C774 C 0.91071 0.81741 0.90604 0.0
C775 C 0.90692 0.79667 0.93095 0.0
H776 H 0.92147 0.83919 0.80069 0.0
C777 C 0.9144 0.78206 0.86909 0.0
H778 H 0.9047 0.82892 0.95221 0.0
C779 C 0.92463 0.78799 0.7829 0.0
C780 C 0.92672 0.80855 0.75647 0.0
H781 H 0.91179 0.76599 0.88702 0.0
H782 H 0.92903 0.77623 0.73574 0.0
C783 C 0.9203 0.82327 0.81937 0.0
C784 C 0.60453 0.56085 0.11519 0.0
C785 C 0.59333 0.54028 0.0864 0.0
H786 H 0.62305 0.58131 0.2241 0.0
C787 C 0.59517 0.5242 0.14503 0.0
H788 H 0.60295 0.57354 0.07161 0.0
C789 C 0.60712 0.52861 0.23193 0.0
C790 C 0.61675 0.54922 0.26223 0.0
H791 H 0.58684 0.5082 0.12404 0.0
H792 H 0.60706 0.51588 0.27656 0.0
C793 C 0.61601 0.56529 0.20247 0.0
C794 C 0.65774 0.71892 0.07205 0.0
C795 C 0.65794 0.69878 0.04042 0.0
H796 H 0.64593 0.7378 0.1801 0.0
C797 C 0.64902 0.68214 0.09881 0.0
H798 H 0.66432 0.73209 0.02887 0.0
C799 C 0.63842 0.68546 0.18546 0.0
C800 C 0.63651 0.70546 0.21526 0.0
H801 H 0.64875 0.66643 0.07643 0.0
H802 H 0.6302 0.67225 0.22751 0.0
C803 C 0.64684 0.72219 0.15835 0.0
C804 C 0.35402 0.43142 0.87361 0.0
C805 C 0.35656 0.45189 0.90378 0.0
H806 H 0.34292 0.41005 0.76413 0.0
C807 C 0.34682 0.46641 0.84686 0.0
H808 H 0.36179 0.41998 0.91574 0.0
C809 C 0.33572 0.46072 0.76026 0.0
C810 C 0.33473 0.44046 0.72848 0.0
H811 H 0.34827 0.48227 0.86892 0.0
H812 H 0.32956 0.47247 0.71706 0.0
C813 C 0.34323 0.42575 0.78672 0.0
C814 C 0.3965 0.31635 0.88639 0.0
C815 C 0.40017 0.29684 0.91588 0.0
H816 H 0.40097 0.33713 0.77733 0.0
C817 C 0.41403 0.28368 0.85842 0.0
H818 H 0.3856 0.32668 0.92936 0.0
C819 C 0.42342 0.28978 0.77196 0.0
C820 C 0.41837 0.30896 0.74111 0.0
H821 H 0.41731 0.2686 0.88016 0.0
H822 H 0.43303 0.27905 0.72811 0.0
C823 C 0.40535 0.32232 0.79957 0.0
C824 C 0.59646 0.0256 0.64518 0.0
C825 C 0.59521 0.04182 0.58681 0.0
H826 H 0.60813 0.01698 0.77635 0.0
C827 C 0.60731 0.0623 0.61569 0.0
H828 H 0.58746 0.00966 0.62412 0.0
C829 C 0.6191 0.06654 0.70284 0.0
C830 C 0.61918 0.05035 0.76244 0.0
H831 H 0.60619 0.0751 0.57235 0.0
H832 H 0.62686 0.08252 0.72452 0.0
C833 C 0.60866 0.02981 0.73196 0.0
C834 C 0.64446 0.22335 0.64657 0.0
C835 C 0.63483 0.20646 0.70305 0.0
H836 H 0.66179 0.2337 0.51754 0.0
C837 C 0.63791 0.18668 0.67289 0.0
H838 H 0.64266 0.23881 0.66856 0.0
C839 C 0.64897 0.18371 0.58632 0.0
C840 C 0.65716 0.20048 0.52833 0.0
H841 H 0.63025 0.17334 0.71455 0.0
H842 H 0.6496 0.16812 0.56367 0.0
C843 C 0.65578 0.22043 0.56035 0.0
C844 C 0.34741 0.96579 0.35469 0.0
C845 C 0.35515 0.95087 0.41263 0.0
H846 H 0.33173 0.97232 0.22406 0.0
C847 C 0.35043 0.93019 0.38351 0.0
H848 H 0.35056 0.98183 0.37595 0.0
C849 C 0.33965 0.92469 0.29643 0.0
C850 C 0.3333 0.93978 0.2371 0.0
H851 H 0.35662 0.91842 0.42649 0.0
H852 H 0.33775 0.90879 0.27454 0.0
C853 C 0.33627 0.96028 0.26802 0.0
C854 C 0.42749 0.79004 0.28288 0.0
C855 C 0.42218 0.80917 0.25205 0.0
H856 H 0.42167 0.76888 0.39107 0.0
C857 C 0.409 0.82246 0.31053 0.0
H858 H 0.43723 0.77938 0.239 0.0
C859 C 0.40025 0.81646 0.39737 0.0
C860 C 0.40418 0.79699 0.42682 0.0
H861 H 0.40442 0.83722 0.28829 0.0
H862 H 0.38923 0.82673 0.44038 0.0
C863 C 0.41819 0.78391 0.36935 0.0
C864 C 0.10545 0.61404 0.22618 0.0
C865 C 0.10511 0.60374 0.14374 0.0
H866 H 0.11027 0.64312 0.29489 0.0
C867 C 0.10765 0.61531 0.06549 0.0
H868 H 0.10343 0.60553 0.28755 0.0
C869 C 0.11094 0.63677 0.06957 0.0
C870 C 0.11236 0.64713 0.15205 0.0
H871 H 0.10709 0.6078 0.00088 0.0
H872 H 0.11338 0.64527 0.00815 0.0
C873 C 0.10935 0.63555 0.23032 0.0
C874 C 0.88156 0.3844 0.78027 0.0
C875 C 0.87751 0.39492 0.86018 0.0
H876 H 0.89335 0.35712 0.7191 0.0
C877 C 0.88433 0.38612 0.94106 0.0
H878 H 0.87664 0.39088 0.71695 0.0
C879 C 0.89471 0.36711 0.94219 0.0
C880 C 0.89783 0.35628 0.86255 0.0
H881 H 0.88192 0.394 0.0037 0.0
H882 H 0.89928 0.36064 0.00577 0.0
C883 C 0.89125 0.36513 0.78151 0.0
C884 C 0.11022 0.11332 0.5651 0.0
C885 C 0.1076 0.10181 0.64347 0.0
H886 H 0.1158 0.14321 0.50733 0.0
C887 C 0.1083 0.11219 0.72585 0.0
H888 H 0.10946 0.10575 0.50056 0.0
C889 C 0.11228 0.13372 0.72973 0.0
C890 C 0.11499 0.14521 0.65126 0.0
H891 H 0.1063 0.10372 0.78733 0.0
H892 H 0.1132 0.14134 0.79418 0.0
C893 C 0.11358 0.13477 0.56893 0.0
C894 C 0.8792 0.88317 0.28641 0.0
C895 C 0.87517 0.89407 0.36534 0.0
H896 H 0.89122 0.85562 0.22787 0.0
C897 C 0.88193 0.88564 0.44711 0.0
H898 H 0.87432 0.88936 0.22245 0.0
C899 C 0.89239 0.86669 0.45011 0.0
C900 C 0.89568 0.85552 0.37151 0.0
H901 H 0.87954 0.89381 0.50903 0.0
H902 H 0.89704 0.86055 0.51435 0.0
C903 C 0.88898 0.86393 0.28953 0.0
C904 C 0.61269 0.63319 0.73856 0.0
C905 C 0.61573 0.64507 0.66118 0.0
H906 H 0.60633 0.6029 0.79339 0.0
C907 C 0.61458 0.63503 0.57796 0.0
H908 H 0.61344 0.64051 0.80364 0.0
C909 C 0.61114 0.61359 0.57219 0.0
C910 C 0.60817 0.6017 0.64946 0.0
H911 H 0.61705 0.64376 0.51716 0.0
H912 H 0.61059 0.60634 0.50702 0.0
C913 C 0.60861 0.61167 0.73272 0.0
C914 C 0.37932 0.38509 0.27517 0.0
C915 C 0.37514 0.3957 0.35474 0.0
H916 H 0.3913 0.35776 0.21488 0.0
C917 C 0.38176 0.38697 0.43595 0.0
H918 H 0.37459 0.39152 0.21161 0.0
C919 C 0.39215 0.36797 0.43774 0.0
C920 C 0.39552 0.35707 0.35842 0.0
H921 H 0.37929 0.39492 0.49836 0.0
H922 H 0.39664 0.36158 0.50154 0.0
C923 C 0.38903 0.36583 0.27706 0.0
C924 C 0.61228 0.13479 0.23181 0.0
C925 C 0.61492 0.14629 0.15335 0.0
H926 H 0.60668 0.10481 0.28939 0.0
C927 C 0.61381 0.13587 0.07102 0.0
H928 H 0.613 0.1424 0.29625 0.0
C929 C 0.61079 0.11444 0.0672 0.0
C930 C 0.60824 0.10293 0.14556 0.0
H931 H 0.61599 0.1443 0.00944 0.0
H932 H 0.61023 0.10689 0.00266 0.0
C933 C 0.60864 0.11328 0.22792 0.0
C934 C 0.39504 0.86793 0.94866 0.0
C935 C 0.39863 0.85706 0.86939 0.0
H936 H 0.38166 0.89477 0.0091 0.0
C937 C 0.39209 0.86576 0.78796 0.0
H938 H 0.39956 0.86157 0.01251 0.0
C939 C 0.38207 0.88493 0.78594 0.0
C940 C 0.37766 0.89551 0.86544 0.0
H941 H 0.39453 0.85772 0.72581 0.0
H942 H 0.37726 0.89131 0.72231 0.0
C943 C 0.38435 0.88684 0.94674 0.0
loop_
_geom_bond_atom_site_label_1
_geom_bond_atom_site_label_2
_geom_bond_distance
_geom_bond_site_symmetry_2
_ccdc_geom_bond_type
Co0 O3 1.970 . S
Co0 N17 1.989 . S
Co0 O25 1.967 . S
Co0 O32 1.920 1_554 S
Co1 O4 1.966 . S
Co1 N10 2.022 . S
Co1 N18 1.993 . S
Co1 O26 1.941 . S
C2 O3 1.258 . S
C2 O4 1.263 . S
O3 Co0 1.970 . S
O3 C2 1.258 . S
O4 Co1 1.966 . S
O4 C2 1.263 . S
C5 O6 1.235 . S
C5 O32 1.289 . S
O6 C5 1.235 . S
C7 C9 1.400 . S
C7 N10 1.351 . S
C7 C12 1.501 . S
C8 C9 1.387 . S
C8 N11 1.341 . S
C9 C7 1.400 . S
C9 C8 1.387 . S
N10 Co1 2.022 . S
N10 C7 1.351 . S
N10 N11 1.365 . S
N11 C8 1.341 . S
N11 N10 1.365 . S
N11 H31 0.862 . S
C12 C7 1.501 . S
C12 H13 0.961 . S
C12 H14 0.961 . S
C12 H15 0.960 . S
H13 C12 0.961 . S
H14 C12 0.961 . S
H15 C12 0.960 . S
C16 N17 1.342 . S
C16 C20 1.401 . S
C16 C21 1.499 . S
N17 Co0 1.989 . S
N17 C16 1.342 . S
N17 N18 1.388 . S
N18 Co1 1.993 . S
N18 N17 1.388 . S
N18 C19 1.346 . S
C19 N18 1.346 . S
C19 C20 1.396 . S
C19 C29 1.510 . S
C20 C16 1.401 . S
C20 C19 1.396 . S
C21 C16 1.499 . S
C21 H22 0.959 1_554 S
C21 H23 0.960 . S
C21 H24 0.961 . S
H22 C21 0.959 1_556 S
H23 C21 0.960 . S
H24 C21 0.961 . S
O25 Co0 1.967 . S
O25 C33 1.258 . S
O26 Co1 1.941 . S
O26 C33 1.266 . S
H27 C29 0.959 . S
H28 C29 0.961 . S
C29 C19 1.510 . S
C29 H27 0.959 . S
C29 H28 0.961 . S
C29 H30 0.960 . S
H30 C29 0.960 . S
H31 N11 0.862 . S
O32 Co0 1.920 1_556 S
O32 C5 1.289 . S
C33 O25 1.258 . S
C33 O26 1.266 . S
Co34 O37 1.970 . S
Co34 N51 1.989 . S
Co34 O59 1.967 . S
Co34 O66 1.920 . S
Co35 O38 1.966 . S
Co35 N44 2.022 1_554 S
Co35 N52 1.993 . S
Co35 O60 1.941 . S
C36 O37 1.258 . S
C36 O38 1.263 . S
O37 Co34 1.970 . S
O37 C36 1.258 . S
O38 Co35 1.966 . S
O38 C36 1.263 . S
C39 O40 1.235 . S
C39 O66 1.289 . S
O40 C39 1.235 . S
C41 C43 1.400 . S
C41 N44 1.351 . S
C41 C46 1.501 . S
C42 C43 1.387 . S
C42 N45 1.341 . S
C43 C41 1.400 . S
C43 C42 1.387 . S
N44 Co35 2.022 1_556 S
N44 C41 1.351 . S
N44 N45 1.365 . S
N45 C42 1.341 . S
N45 N44 1.365 . S
N45 H65 0.862 . S
C46 C41 1.501 . S
C46 H47 0.961 . S
C46 H48 0.961 . S
C46 H49 0.960 . S
H47 C46 0.961 . S
H48 C46 0.961 . S
H49 C46 0.960 . S
C50 N51 1.342 . S
C50 C54 1.401 . S
C50 C55 1.499 . S
N51 Co34 1.989 . S
N51 C50 1.342 . S
N51 N52 1.388 . S
N52 Co35 1.993 . S
N52 N51 1.388 . S
N52 C53 1.346 . S
C53 N52 1.346 . S
C53 C54 1.396 . S
C53 C63 1.510 1_554 S
C54 C50 1.401 . S
C54 C53 1.396 . S
C55 C50 1.499 . S
C55 H56 0.959 . S
C55 H57 0.960 . S
C55 H58 0.961 . S
H56 C55 0.959 . S
H57 C55 0.960 . S
H58 C55 0.961 . S
O59 Co34 1.967 . S
O59 C67 1.258 . S
O60 Co35 1.941 . S
O60 C67 1.266 . S
H61 C63 0.959 . S
H62 C63 0.961 . S
C63 C53 1.510 1_556 S
C63 H61 0.959 . S
C63 H62 0.961 . S
C63 H64 0.960 . S
H64 C63 0.960 . S
H65 N45 0.862 . S
O66 Co34 1.920 . S
O66 C39 1.289 . S
C67 O59 1.258 . S
C67 O60 1.266 . S
Co68 O71 1.970 . S
Co68 N85 1.989 . S
Co68 O93 1.967 . S
Co68 O100 1.920 1_556 S
Co69 O72 1.966 . S
Co69 N78 2.022 . S
Co69 N86 1.993 . S
Co69 O94 1.941 . S
C70 O71 1.258 . S
C70 O72 1.263 . S
O71 Co68 1.970 . S
O71 C70 1.258 . S
O72 Co69 1.966 . S
O72 C70 1.263 . S
C73 O74 1.235 . S
C73 O100 1.289 . S
O74 C73 1.235 . S
C75 C77 1.400 . S
C75 N78 1.351 . S
C75 C80 1.501 . S
C76 C77 1.387 . S
C76 N79 1.341 . S
C77 C75 1.400 . S
C77 C76 1.387 . S
N78 Co69 2.022 . S
N78 C75 1.351 . S
N78 N79 1.365 . S
N79 C76 1.341 . S
N79 N78 1.365 . S
N79 H99 0.862 . S
C80 C75 1.501 . S
C80 H81 0.961 . S
C80 H82 0.961 . S
C80 H83 0.960 . S
H81 C80 0.961 . S
H82 C80 0.961 . S
H83 C80 0.960 . S
C84 N85 1.342 . S
C84 C88 1.401 . S
C84 C89 1.499 1_556 S
N85 Co68 1.989 . S
N85 C84 1.342 . S
N85 N86 1.388 . S
N86 Co69 1.993 . S
N86 N85 1.388 . S
N86 C87 1.346 . S
C87 N86 1.346 . S
C87 C88 1.396 . S
C87 C97 1.510 . S
C88 C84 1.401 . S
C88 C87 1.396 . S
C89 C84 1.499 1_554 S
C89 H90 0.959 . S
C89 H91 0.960 . S
C89 H92 0.961 . S
H90 C89 0.959 . S
H91 C89 0.960 . S
H92 C89 0.961 . S
O93 Co68 1.967 . S
O93 C101 1.258 . S
O94 Co69 1.941 . S
O94 C101 1.266 . S
H95 C97 0.959 . S
H96 C97 0.961 . S
C97 C87 1.510 . S
C97 H95 0.959 . S
C97 H96 0.961 . S
C97 H98 0.960 . S
H98 C97 0.960 . S
H99 N79 0.862 . S
O100 Co68 1.920 1_554 S
O100 C73 1.289 . S
C101 O93 1.258 . S
C101 O94 1.266 . S
Co102 O105 1.970 . S
Co102 N119 1.989 . S
Co102 O127 1.967 . S
Co102 O134 1.920 1_556 S
Co103 O106 1.966 . S
Co103 N112 2.022 . S
Co103 N120 1.993 . S
Co103 O128 1.941 . S
C104 O105 1.258 . S
C104 O106 1.263 . S
O105 Co102 1.970 . S
O105 C104 1.258 . S
O106 Co103 1.966 . S
O106 C104 1.263 . S
C107 O108 1.235 . S
C107 O134 1.289 . S
O108 C107 1.235 . S
C109 C111 1.400 . S
C109 N112 1.351 . S
C109 C114 1.501 . S
C110 C111 1.387 . S
C110 N113 1.341 . S
C111 C109 1.400 . S
C111 C110 1.387 . S
N112 Co103 2.022 . S
N112 C109 1.351 . S
N112 N113 1.365 . S
N113 C110 1.341 . S
N113 N112 1.365 . S
N113 H133 0.862 . S
C114 C109 1.501 . S
C114 H115 0.961 . S
C114 H116 0.961 . S
C114 H117 0.960 . S
H115 C114 0.961 . S
H116 C114 0.961 . S
H117 C114 0.960 . S
C118 N119 1.342 . S
C118 C122 1.399 1_655 S
C118 C123 1.499 1_556 S
N119 Co102 1.989 . S
N119 C118 1.342 . S
N119 N120 1.388 . S
N120 Co103 1.993 . S
N120 N119 1.388 . S
N120 C121 1.346 . S
C121 N120 1.346 . S
C121 C122 1.393 1_655 S
C121 C131 1.510 . S
C122 C118 1.399 1_455 S
C122 C121 1.393 1_455 S
C123 C118 1.499 1_554 S
C123 H124 0.959 . S
C123 H125 0.960 1_655 S
C123 H126 0.961 . S
H124 C123 0.959 . S
H125 C123 0.960 1_455 S
H126 C123 0.961 . S
O127 Co102 1.967 . S
O127 C135 1.258 . S
O128 Co103 1.941 . S
O128 C135 1.266 . S
H129 C131 0.959 . S
H130 C131 0.961 1_455 S
C131 C121 1.510 . S
C131 H129 0.959 . S
C131 H130 0.961 1_655 S
C131 H132 0.960 . S
H132 C131 0.960 . S
H133 N113 0.862 . S
O134 Co102 1.920 1_554 S
O134 C107 1.289 . S
C135 O127 1.258 . S
C135 O128 1.266 . S
Co136 O139 1.970 . S
Co136 N153 1.989 . S
Co136 O161 1.967 . S
Co136 O168 1.920 . S
Co137 O140 1.966 . S
Co137 N146 2.022 . S
Co137 N154 1.993 . S
Co137 O162 1.941 . S
C138 O139 1.258 . S
C138 O140 1.263 . S
O139 Co136 1.970 . S
O139 C138 1.258 . S
O140 Co137 1.966 . S
O140 C138 1.263 . S
C141 O142 1.235 . S
C141 O168 1.289 . S
O142 C141 1.235 . S
C143 C145 1.400 1_556 S
C143 N146 1.351 . S
C143 C148 1.501 . S
C144 C145 1.387 . S
C144 N147 1.341 1_554 S
C145 C143 1.400 1_554 S
C145 C144 1.387 . S
N146 Co137 2.022 . S
N146 C143 1.351 . S
N146 N147 1.365 . S
N147 C144 1.341 1_556 S
N147 N146 1.365 . S
N147 H167 0.862 . S
C148 C143 1.501 . S
C148 H149 0.961 . S
C148 H150 0.961 . S
C148 H151 0.960 . S
H149 C148 0.961 . S
H150 C148 0.961 . S
H151 C148 0.960 . S
C152 N153 1.342 . S
C152 C156 1.401 . S
C152 C157 1.499 . S
N153 Co136 1.989 . S
N153 C152 1.342 . S
N153 N154 1.388 . S
N154 Co137 1.993 . S
N154 N153 1.388 . S
N154 C155 1.346 . S
C155 N154 1.346 . S
C155 C156 1.396 . S
C155 C165 1.510 . S
C156 C152 1.401 . S
C156 C155 1.396 . S
C157 C152 1.499 . S
C157 H158 0.959 . S
C157 H159 0.960 . S
C157 H160 0.961 1_545 S
H158 C157 0.959 . S
H159 C157 0.960 . S
H160 C157 0.961 1_565 S
O161 Co136 1.967 . S
O161 C169 1.258 . S
O162 Co137 1.941 . S
O162 C169 1.266 . S
H163 C165 0.959 . S
H164 C165 0.961 . S
C165 C155 1.510 . S
C165 H163 0.959 . S
C165 H164 0.961 . S
C165 H166 0.960 . S
H166 C165 0.960 . S
H167 N147 0.862 . S
O168 Co136 1.920 . S
O168 C141 1.289 . S
C169 O161 1.258 . S
C169 O162 1.266 . S
Co170 O173 1.970 . S
Co170 N187 1.989 . S
Co170 O195 1.967 . S
Co170 O202 1.920 . S
Co171 O174 1.966 . S
Co171 N180 2.022 . S
Co171 N188 1.993 . S
Co171 O196 1.941 . S
C172 O173 1.258 . S
C172 O174 1.263 . S
O173 Co170 1.970 . S
O173 C172 1.258 . S
O174 Co171 1.966 . S
O174 C172 1.263 . S
C175 O176 1.235 . S
C175 O202 1.289 . S
O176 C175 1.235 . S
C177 C179 1.400 . S
C177 N180 1.351 . S
C177 C182 1.501 . S
C178 C179 1.387 . S
C178 N181 1.341 . S
C179 C177 1.400 . S
C179 C178 1.387 . S
N180 Co171 2.022 . S
N180 C177 1.351 . S
N180 N181 1.365 . S
N181 C178 1.341 . S
N181 N180 1.365 . S
N181 H201 0.862 . S
C182 C177 1.501 . S
C182 H183 0.961 . S
C182 H184 0.961 . S
C182 H185 0.960 . S
H183 C182 0.961 . S
H184 C182 0.961 . S
H185 C182 0.960 . S
C186 N187 1.342 . S
C186 C190 1.401 . S
C186 C191 1.499 . S
N187 Co170 1.989 . S
N187 C186 1.342 . S
N187 N188 1.388 . S
N188 Co171 1.993 . S
N188 N187 1.388 . S
N188 C189 1.346 . S
C189 N188 1.346 . S
C189 C190 1.396 . S
C189 C199 1.510 . S
C190 C186 1.401 . S
C190 C189 1.396 . S
C191 C186 1.499 . S
C191 H192 0.959 . S
C191 H193 0.960 . S
C191 H194 0.961 . S
H192 C191 0.959 . S
H193 C191 0.960 . S
H194 C191 0.961 . S
O195 Co170 1.967 . S
O195 C203 1.258 . S
O196 Co171 1.941 . S
O196 C203 1.266 . S
H197 C199 0.959 . S
H198 C199 0.961 . S
C199 C189 1.510 . S
C199 H197 0.959 . S
C199 H198 0.961 . S
C199 H200 0.960 . S
H200 C199 0.960 . S
H201 N181 0.862 . S
O202 Co170 1.920 . S
O202 C175 1.289 . S
C203 O195 1.258 . S
C203 O196 1.266 . S
Co204 O207 1.970 . S
Co204 N221 1.989 . S
Co204 O229 1.967 . S
Co204 O236 1.920 . S
Co205 O208 1.966 . S
Co205 N214 2.022 . S
Co205 N222 1.993 . S
Co205 O230 1.941 . S
C206 O207 1.258 . S
C206 O208 1.263 . S
O207 Co204 1.970 . S
O207 C206 1.258 . S
O208 Co205 1.966 . S
O208 C206 1.263 . S
C209 O210 1.235 . S
C209 O236 1.289 . S
O210 C209 1.235 . S
C211 C213 1.400 . S
C211 N214 1.351 . S
C211 C216 1.501 . S
C212 C213 1.387 . S
C212 N215 1.341 . S
C213 C211 1.400 . S
C213 C212 1.387 . S
N214 Co205 2.022 . S
N214 C211 1.351 . S
N214 N215 1.365 . S
N215 C212 1.341 . S
N215 N214 1.365 . S
N215 H235 0.862 . S
C216 C211 1.501 . S
C216 H217 0.961 . S
C216 H218 0.961 . S
C216 H219 0.960 . S
H217 C216 0.961 . S
H218 C216 0.961 . S
H219 C216 0.960 . S
C220 N221 1.342 . S
C220 C224 1.401 . S
C220 C225 1.499 . S
N221 Co204 1.989 . S
N221 C220 1.342 . S
N221 N222 1.388 . S
N222 Co205 1.993 . S
N222 N221 1.388 . S
N222 C223 1.346 . S
C223 N222 1.346 . S
C223 C224 1.396 . S
C223 C233 1.510 . S
C224 C220 1.401 . S
C224 C223 1.396 . S
C225 C220 1.499 . S
C225 H226 0.959 . S
C225 H227 0.960 . S
C225 H228 0.961 . S
H226 C225 0.959 . S
H227 C225 0.960 . S
H228 C225 0.961 . S
O229 Co204 1.967 . S
O229 C237 1.258 . S
O230 Co205 1.941 . S
O230 C237 1.266 . S
H231 C233 0.959 . S
H232 C233 0.961 . S
C233 C223 1.510 . S
C233 H231 0.959 . S
C233 H232 0.961 . S
C233 H234 0.960 . S
H234 C233 0.960 . S
H235 N215 0.862 . S
O236 Co204 1.920 . S
O236 C209 1.289 . S
C237 O229 1.258 . S
C237 O230 1.266 . S
Co238 O241 1.970 . S
Co238 N255 1.989 . S
Co238 O263 1.967 . S
Co238 O270 1.920 . S
Co239 O242 1.966 . S
Co239 N248 2.022 . S
Co239 N256 1.993 . S
Co239 O264 1.941 . S
C240 O241 1.258 . S
C240 O242 1.263 . S
O241 Co238 1.970 . S
O241 C240 1.258 . S
O242 Co239 1.966 . S
O242 C240 1.263 . S
C243 O244 1.235 . S
C243 O270 1.289 . S
O244 C243 1.235 . S
C245 C247 1.400 1_554 S
C245 N248 1.351 . S
C245 C250 1.501 . S
C246 C247 1.387 1_554 S
C246 N249 1.341 . S
C247 C245 1.400 1_556 S
C247 C246 1.387 1_556 S
N248 Co239 2.022 . S
N248 C245 1.351 . S
N248 N249 1.365 . S
N249 C246 1.341 . S
N249 N248 1.365 . S
N249 H269 0.862 . S
C250 C245 1.501 . S
C250 H251 0.961 . S
C250 H252 0.961 . S
C250 H253 0.960 . S
H251 C250 0.961 . S
H252 C250 0.961 . S
H253 C250 0.960 . S
C254 N255 1.342 . S
C254 C258 1.399 1_655 S
C254 C259 1.499 . S
N255 Co238 1.989 . S
N255 C254 1.342 . S
N255 N256 1.388 . S
N256 Co239 1.993 . S
N256 N255 1.388 . S
N256 C257 1.346 . S
C257 N256 1.346 . S
C257 C258 1.393 1_655 S
C257 C267 1.510 . S
C258 C254 1.399 1_455 S
C258 C257 1.393 1_455 S
C259 C254 1.499 . S
C259 H260 0.959 . S
C259 H261 0.960 1_655 S
C259 H262 0.961 . S
H260 C259 0.959 . S
H261 C259 0.960 1_455 S
H262 C259 0.961 . S
O263 Co238 1.967 . S
O263 C271 1.258 . S
O264 Co239 1.941 . S
O264 C271 1.266 . S
H265 C267 0.959 . S
H266 C267 0.961 1_455 S
C267 C257 1.510 . S
C267 H265 0.959 . S
C267 H266 0.961 1_655 S
C267 H268 0.960 . S
H268 C267 0.960 . S
H269 N249 0.862 . S
O270 Co238 1.920 . S
O270 C243 1.289 . S
C271 O263 1.258 . S
C271 O264 1.266 . S
Co272 O275 1.970 . S
Co272 N289 1.989 . S
Co272 O297 1.967 . S
Co272 O304 1.920 . S
Co273 O276 1.966 . S
Co273 N282 2.022 . S
Co273 N290 1.993 . S
Co273 O298 1.941 . S
C274 O275 1.258 . S
C274 O276 1.263 . S
O275 Co272 1.970 . S
O275 C274 1.258 . S
O276 Co273 1.966 . S
O276 C274 1.263 . S
C277 O278 1.235 . S
C277 O304 1.289 . S
O278 C277 1.235 . S
C279 C281 1.400 1_556 S
C279 N282 1.351 . S
C279 C284 1.501 . S
C280 C281 1.387 . S
C280 N283 1.341 1_554 S
C281 C279 1.400 1_554 S
C281 C280 1.387 . S
N282 Co273 2.022 . S
N282 C279 1.351 . S
N282 N283 1.365 . S
N283 C280 1.341 1_556 S
N283 N282 1.365 . S
N283 H303 0.862 . S
C284 C279 1.501 . S
C284 H285 0.961 . S
C284 H286 0.961 . S
C284 H287 0.960 . S
H285 C284 0.961 . S
H286 C284 0.961 . S
H287 C284 0.960 . S
C288 N289 1.342 . S
C288 C292 1.401 . S
C288 C293 1.499 . S
N289 Co272 1.989 . S
N289 C288 1.342 . S
N289 N290 1.388 . S
N290 Co273 1.993 . S
N290 N289 1.388 . S
N290 C291 1.346 . S
C291 N290 1.346 . S
C291 C292 1.396 . S
C291 C301 1.510 . S
C292 C288 1.401 . S
C292 C291 1.396 . S
C293 C288 1.499 . S
C293 H294 0.959 . S
C293 H295 0.960 . S
C293 H296 0.961 . S
H294 C293 0.959 . S
H295 C293 0.960 . S
H296 C293 0.961 . S
O297 Co272 1.967 . S
O297 C305 1.258 . S
O298 Co273 1.941 . S
O298 C305 1.266 . S
H299 C301 0.959 . S
H300 C301 0.961 . S
C301 C291 1.510 . S
C301 H299 0.959 . S
C301 H300 0.961 . S
C301 H302 0.960 . S
H302 C301 0.960 . S
H303 N283 0.862 . S
O304 Co272 1.920 . S
O304 C277 1.289 . S
C305 O297 1.258 . S
C305 O298 1.266 . S
Co306 O309 1.970 . S
Co306 N323 1.989 . S
Co306 O331 1.967 . S
Co306 O338 1.920 . S
Co307 O310 1.966 . S
Co307 N316 2.022 . S
Co307 N324 1.993 . S
Co307 O332 1.941 . S
C308 O309 1.258 . S
C308 O310 1.263 . S
O309 Co306 1.970 . S
O309 C308 1.258 . S
O310 Co307 1.966 . S
O310 C308 1.263 . S
C311 O312 1.235 . S
C311 O338 1.289 . S
O312 C311 1.235 . S
C313 C315 1.400 . S
C313 N316 1.351 . S
C313 C318 1.501 . S
C314 C315 1.387 . S
C314 N317 1.341 . S
C315 C313 1.400 . S
C315 C314 1.387 . S
N316 Co307 2.022 . S
N316 C313 1.351 . S
N316 N317 1.365 . S
N317 C314 1.341 . S
N317 N316 1.365 . S
N317 H337 0.862 . S
C318 C313 1.501 . S
C318 H319 0.961 . S
C318 H320 0.961 . S
C318 H321 0.960 . S
H319 C318 0.961 . S
H320 C318 0.961 . S
H321 C318 0.960 . S
C322 N323 1.342 . S
C322 C326 1.401 . S
C322 C327 1.499 . S
N323 Co306 1.989 . S
N323 C322 1.342 . S
N323 N324 1.388 . S
N324 Co307 1.993 . S
N324 N323 1.388 . S
N324 C325 1.346 . S
C325 N324 1.346 . S
C325 C326 1.396 . S
C325 C335 1.510 . S
C326 C322 1.401 . S
C326 C325 1.396 . S
C327 C322 1.499 . S
C327 H328 0.959 . S
C327 H329 0.960 . S
C327 H330 0.961 . S
H328 C327 0.959 . S
H329 C327 0.960 . S
H330 C327 0.961 . S
O331 Co306 1.967 . S
O331 C339 1.258 . S
O332 Co307 1.941 . S
O332 C339 1.266 . S
H333 C335 0.959 . S
H334 C335 0.961 . S
C335 C325 1.510 . S
C335 H333 0.959 . S
C335 H334 0.961 . S
C335 H336 0.960 . S
H336 C335 0.960 . S
H337 N317 0.862 . S
O338 Co306 1.920 . S
O338 C311 1.289 . S
C339 O331 1.258 . S
C339 O332 1.266 . S
Co340 O343 1.970 . S
Co340 N357 1.989 . S
Co340 O365 1.967 . S
Co340 O372 1.920 . S
Co341 O344 1.966 . S
Co341 N350 2.022 . S
Co341 N358 1.993 . S
Co341 O366 1.941 . S
C342 O343 1.258 . S
C342 O344 1.263 . S
O343 Co340 1.970 . S
O343 C342 1.258 . S
O344 Co341 1.966 . S
O344 C342 1.263 . S
C345 O346 1.235 . S
C345 O372 1.289 . S
O346 C345 1.235 . S
C347 C349 1.400 . S
C347 N350 1.351 . S
C347 C352 1.501 . S
C348 C349 1.387 . S
C348 N351 1.341 . S
C349 C347 1.400 . S
C349 C348 1.387 . S
N350 Co341 2.022 . S
N350 C347 1.351 . S
N350 N351 1.365 . S
N351 C348 1.341 . S
N351 N350 1.365 . S
N351 H371 0.862 . S
C352 C347 1.501 . S
C352 H353 0.961 . S
C352 H354 0.961 . S
C352 H355 0.960 . S
H353 C352 0.961 . S
H354 C352 0.961 . S
H355 C352 0.960 . S
C356 N357 1.342 . S
C356 C360 1.401 . S
C356 C361 1.499 . S
N357 Co340 1.989 . S
N357 C356 1.342 . S
N357 N358 1.388 . S
N358 Co341 1.993 . S
N358 N357 1.388 . S
N358 C359 1.346 . S
C359 N358 1.346 . S
C359 C360 1.396 . S
C359 C369 1.510 . S
C360 C356 1.401 . S
C360 C359 1.396 . S
C361 C356 1.499 . S
C361 H362 0.959 . S
C361 H363 0.960 . S
C361 H364 0.961 . S
H362 C361 0.959 . S
H363 C361 0.960 . S
H364 C361 0.961 . S
O365 Co340 1.967 . S
O365 C373 1.258 . S
O366 Co341 1.941 . S
O366 C373 1.266 . S
H367 C369 0.959 . S
H368 C369 0.961 . S
C369 C359 1.510 . S
C369 H367 0.959 . S
C369 H368 0.961 . S
C369 H370 0.960 . S
H370 C369 0.960 . S
H371 N351 0.862 . S
O372 Co340 1.920 . S
O372 C345 1.289 . S
C373 O365 1.258 . S
C373 O366 1.266 . S
Co374 O377 1.970 . S
Co374 N391 1.989 . S
Co374 O399 1.967 . S
Co374 O406 1.920 . S
Co375 O378 1.966 . S
Co375 N384 2.022 . S
Co375 N392 1.993 . S
Co375 O400 1.941 . S
C376 O377 1.258 . S
C376 O378 1.263 . S
O377 Co374 1.970 . S
O377 C376 1.258 . S
O378 Co375 1.966 . S
O378 C376 1.263 . S
C379 O380 1.235 . S
C379 O406 1.289 . S
O380 C379 1.235 . S
C381 C383 1.400 1_554 S
C381 N384 1.351 . S
C381 C386 1.501 . S
C382 C383 1.387 1_554 S
C382 N385 1.341 . S
C383 C381 1.400 1_556 S
C383 C382 1.387 1_556 S
N384 Co375 2.022 . S
N384 C381 1.351 . S
N384 N385 1.365 . S
N385 C382 1.341 . S
N385 N384 1.365 . S
N385 H405 0.862 . S
C386 C381 1.501 . S
C386 H387 0.961 . S
C386 H388 0.961 . S
C386 H389 0.960 . S
H387 C386 0.961 . S
H388 C386 0.961 . S
H389 C386 0.960 . S
C390 N391 1.342 . S
C390 C394 1.401 . S
C390 C395 1.499 . S
N391 Co374 1.989 . S
N391 C390 1.342 . S
N391 N392 1.388 . S
N392 Co375 1.993 . S
N392 N391 1.388 . S
N392 C393 1.346 . S
C393 N392 1.346 . S
C393 C394 1.396 . S
C393 C403 1.510 . S
C394 C390 1.401 . S
C394 C393 1.396 . S
C395 C390 1.499 . S
C395 H396 0.959 . S
C395 H397 0.960 . S
C395 H398 0.961 . S
H396 C395 0.959 . S
H397 C395 0.960 . S
H398 C395 0.961 . S
O399 Co374 1.967 . S
O399 C407 1.258 . S
O400 Co375 1.941 . S
O400 C407 1.266 . S
H401 C403 0.959 . S
H402 C403 0.961 . S
C403 C393 1.510 . S
C403 H401 0.959 . S
C403 H402 0.961 . S
C403 H404 0.960 . S
H404 C403 0.960 . S
H405 N385 0.862 . S
O406 Co374 1.920 . S
O406 C379 1.289 . S
C407 O399 1.258 . S
C407 O400 1.266 . S
Co408 O411 1.970 . S
Co408 N425 1.989 . S
Co408 O433 1.967 . S
Co408 O440 1.920 1_554 S
Co409 O412 1.966 . S
Co409 N418 2.022 . S
Co409 N426 1.993 . S
Co409 O434 1.941 . S
C410 O411 1.258 . S
C410 O412 1.263 . S
O411 Co408 1.970 . S
O411 C410 1.258 . S
O412 Co409 1.966 . S
O412 C410 1.263 . S
C413 O414 1.235 . S
C413 O440 1.289 . S
O414 C413 1.235 . S
C415 C417 1.400 . S
C415 N418 1.351 . S
C415 C420 1.501 . S
C416 C417 1.387 . S
C416 N419 1.341 . S
C417 C415 1.400 . S
C417 C416 1.387 . S
N418 Co409 2.022 . S
N418 C415 1.351 . S
N418 N419 1.365 . S
N419 C416 1.341 . S
N419 N418 1.365 . S
N419 H439 0.862 . S
C420 C415 1.501 . S
C420 H421 0.961 . S
C420 H422 0.961 . S
C420 H423 0.960 . S
H421 C420 0.961 . S
H422 C420 0.961 . S
H423 C420 0.960 . S
C424 N425 1.342 . S
C424 C428 1.401 . S
C424 C429 1.499 . S
N425 Co408 1.989 . S
N425 C424 1.342 . S
N425 N426 1.388 . S
N426 Co409 1.993 . S
N426 N425 1.388 . S
N426 C427 1.346 . S
C427 N426 1.346 . S
C427 C428 1.396 . S
C427 C437 1.510 . S
C428 C424 1.401 . S
C428 C427 1.396 . S
C429 C424 1.499 . S
C429 H430 0.959 1_554 S
C429 H431 0.960 . S
C429 H432 0.961 1_545 S
H430 C429 0.959 1_556 S
H431 C429 0.960 . S
H432 C429 0.961 1_565 S
O433 Co408 1.967 . S
O433 C441 1.258 . S
O434 Co409 1.941 . S
O434 C441 1.266 . S
H435 C437 0.959 . S
H436 C437 0.961 . S
C437 C427 1.510 . S
C437 H435 0.959 . S
C437 H436 0.961 . S
C437 H438 0.960 . S
H438 C437 0.960 . S
H439 N419 0.862 . S
O440 Co408 1.920 1_556 S
O440 C413 1.289 . S
C441 O433 1.258 . S
C441 O434 1.266 . S
Co442 O445 1.970 . S
Co442 N459 1.989 . S
Co442 O467 1.967 . S
Co442 O474 1.920 . S
Co443 O446 1.966 . S
Co443 N452 2.022 1_554 S
Co443 N460 1.993 . S
Co443 O468 1.941 . S
C444 O445 1.258 . S
C444 O446 1.263 . S
O445 Co442 1.970 . S
O445 C444 1.258 . S
O446 Co443 1.966 . S
O446 C444 1.263 . S
C447 O448 1.235 . S
C447 O474 1.289 . S
O448 C447 1.235 . S
C449 C451 1.400 . S
C449 N452 1.351 . S
C449 C454 1.501 . S
C450 C451 1.387 . S
C450 N453 1.341 . S
C451 C449 1.400 . S
C451 C450 1.387 . S
N452 Co443 2.022 1_556 S
N452 C449 1.351 . S
N452 N453 1.365 . S
N453 C450 1.341 . S
N453 N452 1.365 . S
N453 H473 0.862 . S
C454 C449 1.501 . S
C454 H455 0.961 . S
C454 H456 0.961 . S
C454 H457 0.960 . S
H455 C454 0.961 . S
H456 C454 0.961 . S
H457 C454 0.960 . S
C458 N459 1.342 . S
C458 C462 1.401 . S
C458 C463 1.499 . S
N459 Co442 1.989 . S
N459 C458 1.342 . S
N459 N460 1.388 . S
N460 Co443 1.993 . S
N460 N459 1.388 . S
N460 C461 1.346 . S
C461 N460 1.346 . S
C461 C462 1.396 . S
C461 C471 1.510 1_554 S
C462 C458 1.401 . S
C462 C461 1.396 . S
C463 C458 1.499 . S
C463 H464 0.959 . S
C463 H465 0.960 . S
C463 H466 0.961 . S
H464 C463 0.959 . S
H465 C463 0.960 . S
H466 C463 0.961 . S
O467 Co442 1.967 . S
O467 C475 1.258 . S
O468 Co443 1.941 . S
O468 C475 1.266 . S
H469 C471 0.959 . S
H470 C471 0.961 . S
C471 C461 1.510 1_556 S
C471 H469 0.959 . S
C471 H470 0.961 . S
C471 H472 0.960 . S
H472 C471 0.960 . S
H473 N453 0.862 . S
O474 Co442 1.920 . S
O474 C447 1.289 . S
C475 O467 1.258 . S
C475 O468 1.266 . S
Co476 O479 1.970 . S
Co476 N493 1.989 . S
Co476 O501 1.967 . S
Co476 O508 1.920 1_556 S
Co477 O480 1.966 . S
Co477 N486 2.022 . S
Co477 N494 1.993 . S
Co477 O502 1.941 . S
C478 O479 1.258 . S
C478 O480 1.263 . S
O479 Co476 1.970 . S
O479 C478 1.258 . S
O480 Co477 1.966 . S
O480 C478 1.263 . S
C481 O482 1.235 . S
C481 O508 1.289 . S
O482 C481 1.235 . S
C483 C485 1.400 . S
C483 N486 1.351 . S
C483 C488 1.501 . S
C484 C485 1.387 . S
C484 N487 1.341 . S
C485 C483 1.400 . S
C485 C484 1.387 . S
N486 Co477 2.022 . S
N486 C483 1.351 . S
N486 N487 1.365 . S
N487 C484 1.341 . S
N487 N486 1.365 . S
N487 H507 0.862 . S
C488 C483 1.501 . S
C488 H489 0.961 . S
C488 H490 0.961 . S
C488 H491 0.960 . S
H489 C488 0.961 . S
H490 C488 0.961 . S
H491 C488 0.960 . S
C492 N493 1.342 . S
C492 C496 1.401 . S
C492 C497 1.499 1_556 S
N493 Co476 1.989 . S
N493 C492 1.342 . S
N493 N494 1.388 . S
N494 Co477 1.993 . S
N494 N493 1.388 . S
N494 C495 1.346 . S
C495 N494 1.346 . S
C495 C496 1.396 . S
C495 C505 1.510 . S
C496 C492 1.401 . S
C496 C495 1.396 . S
C497 C492 1.499 1_554 S
C497 H498 0.959 . S
C497 H499 0.960 . S
C497 H500 0.961 . S
H498 C497 0.959 . S
H499 C497 0.960 . S
H500 C497 0.961 . S
O501 Co476 1.967 . S
O501 C509 1.258 . S
O502 Co477 1.941 . S
O502 C509 1.266 . S
H503 C505 0.959 . S
H504 C505 0.961 . S
C505 C495 1.510 . S
C505 H503 0.959 . S
C505 H504 0.961 . S
C505 H506 0.960 . S
H506 C505 0.960 . S
H507 N487 0.862 . S
O508 Co476 1.920 1_554 S
O508 C481 1.289 . S
C509 O501 1.258 . S
C509 O502 1.266 . S
Co510 O513 1.970 . S
Co510 N527 1.989 . S
Co510 O535 1.967 . S
Co510 O542 1.920 1_556 S
Co511 O514 1.966 . S
Co511 N520 2.022 . S
Co511 N528 1.993 . S
Co511 O536 1.941 . S
C512 O513 1.258 . S
C512 O514 1.263 . S
O513 Co510 1.970 . S
O513 C512 1.258 . S
O514 Co511 1.966 . S
O514 C512 1.263 . S
C515 O516 1.235 . S
C515 O542 1.289 . S
O516 C515 1.235 . S
C517 C519 1.400 . S
C517 N520 1.351 . S
C517 C522 1.501 . S
C518 C519 1.387 . S
C518 N521 1.341 . S
C519 C517 1.400 . S
C519 C518 1.387 . S
N520 Co511 2.022 . S
N520 C517 1.351 . S
N520 N521 1.365 . S
N521 C518 1.341 . S
N521 N520 1.365 . S
N521 H541 0.862 . S
C522 C517 1.501 . S
C522 H523 0.961 . S
C522 H524 0.961 . S
C522 H525 0.960 . S
H523 C522 0.961 . S
H524 C522 0.961 . S
H525 C522 0.960 . S
C526 N527 1.342 . S
C526 C530 1.401 . S
C526 C531 1.499 1_556 S
N527 Co510 1.989 . S
N527 C526 1.342 . S
N527 N528 1.388 . S
N528 Co511 1.993 . S
N528 N527 1.388 . S
N528 C529 1.346 . S
C529 N528 1.346 . S
C529 C530 1.396 . S
C529 C539 1.510 . S
C530 C526 1.401 . S
C530 C529 1.396 . S
C531 C526 1.499 1_554 S
C531 H532 0.959 . S
C531 H533 0.960 . S
C531 H534 0.961 . S
H532 C531 0.959 . S
H533 C531 0.960 . S
H534 C531 0.961 . S
O535 Co510 1.967 . S
O535 C543 1.258 . S
O536 Co511 1.941 . S
O536 C543 1.266 . S
H537 C539 0.959 . S
H538 C539 0.961 . S
C539 C529 1.510 . S
C539 H537 0.959 . S
C539 H538 0.961 . S
C539 H540 0.960 . S
H540 C539 0.960 . S
H541 N521 0.862 . S
O542 Co510 1.920 1_554 S
O542 C515 1.289 . S
C543 O535 1.258 . S
C543 O536 1.266 . S
C544 C545 1.387 . S
C544 H548 0.950 . S
C544 C553 1.390 . S
C545 C544 1.387 . S
C545 C547 1.387 . S
H546 C553 0.950 . S
C547 C545 1.387 . S
C547 C549 1.390 . S
C547 H551 0.950 . S
H548 C544 0.950 . S
C549 C547 1.390 . S
C549 C550 1.387 . S
C549 H552 0.950 . S
C550 C549 1.387 . S
C550 C553 1.387 . S
H551 C547 0.950 . S
H552 C549 0.950 . S
C553 C544 1.390 . S
C553 H546 0.950 . S
C553 C550 1.387 . S
C554 C555 1.387 . S
C554 H558 0.950 . S
C554 C563 1.390 . S
C555 C554 1.387 . S
C555 C557 1.387 . S
H556 C563 0.950 . S
C557 C555 1.387 . S
C557 C559 1.390 . S
C557 H561 0.950 . S
H558 C554 0.950 . S
C559 C557 1.390 . S
C559 C560 1.387 . S
C559 H562 0.950 . S
C560 C559 1.387 . S
C560 C563 1.387 . S
H561 C557 0.950 . S
H562 C559 0.950 . S
C563 C554 1.390 . S
C563 H556 0.950 . S
C563 C560 1.387 . S
C564 C565 1.387 . S
C564 H568 0.950 . S
C564 C573 1.390 . S
C565 C564 1.387 . S
C565 C567 1.387 . S
H566 C573 0.950 . S
C567 C565 1.387 . S
C567 C569 1.390 1_556 S
C567 H571 0.950 1_556 S
H568 C564 0.950 . S
C569 C567 1.390 1_554 S
C569 C570 1.387 . S
C569 H572 0.950 . S
C570 C569 1.387 . S
C570 C573 1.387 1_554 S
H571 C567 0.950 1_554 S
H572 C569 0.950 . S
C573 C564 1.390 . S
C573 H566 0.950 . S
C573 C570 1.387 1_556 S
C574 C575 1.387 1_554 S
C574 H578 0.950 . S
C574 C583 1.390 . S
C575 C574 1.387 1_556 S
C575 C577 1.387 . S
H576 C583 0.950 1_455 S
C577 C575 1.387 . S
C577 C579 1.390 1_556 S
C577 H581 0.950 . S
H578 C574 0.950 . S
C579 C577 1.390 1_554 S
C579 C580 1.387 . S
C579 H582 0.950 . S
C580 C579 1.387 . S
C580 C583 1.387 . S
H581 C577 0.950 . S
H582 C579 0.950 . S
C583 C574 1.390 . S
C583 H576 0.950 1_655 S
C583 C580 1.387 . S
C584 C585 1.387 . S
C584 H588 0.950 . S
C584 C593 1.390 . S
C585 C584 1.387 . S
C585 C587 1.387 . S
H586 C593 0.950 . S
C587 C585 1.387 . S
C587 C589 1.390 . S
C587 H591 0.950 . S
H588 C584 0.950 . S
C589 C587 1.390 . S
C589 C590 1.387 . S
C589 H592 0.950 . S
C590 C589 1.387 . S
C590 C593 1.387 . S
H591 C587 0.950 . S
H592 C589 0.950 . S
C593 C584 1.390 . S
C593 H586 0.950 . S
C593 C590 1.387 . S
C594 C595 1.387 . S
C594 H598 0.950 . S
C594 C603 1.390 . S
C595 C594 1.387 . S
C595 C597 1.387 . S
H596 C603 0.950 . S
C597 C595 1.387 . S
C597 C599 1.390 . S
C597 H601 0.950 . S
H598 C594 0.950 . S
C599 C597 1.390 . S
C599 C600 1.387 . S
C599 H602 0.950 1_455 S
C600 C599 1.387 . S
C600 C603 1.387 . S
H601 C597 0.950 . S
H602 C599 0.950 1_655 S
C603 C594 1.390 . S
C603 H596 0.950 . S
C603 C600 1.387 . S
C604 C605 1.387 . S
C604 H608 0.950 . S
C604 C613 1.394 . S
C605 C604 1.387 . S
C605 C607 1.387 1_554 S
H606 C613 0.951 . S
C607 C605 1.387 1_556 S
C607 C609 1.390 . S
C607 H611 0.950 . S
H608 C604 0.950 . S
C609 C607 1.390 . S
C609 C610 1.387 . S
C609 H612 0.950 . S
C610 C609 1.387 . S
C610 C613 1.382 1_556 S
H611 C607 0.950 . S
H612 C609 0.950 . S
C613 C604 1.394 . S
C613 H606 0.951 . S
C613 C610 1.382 1_554 S
C614 C615 1.387 . S
C614 H618 0.950 . S
C614 C623 1.390 . S
C615 C614 1.387 . S
C615 C617 1.387 1_565 S
H616 C623 0.950 . S
C617 C615 1.387 1_545 S
C617 C619 1.390 . S
C617 H621 0.950 . S
H618 C614 0.950 . S
C619 C617 1.390 . S
C619 C620 1.387 1_545 S
C619 H622 0.950 . S
C620 C619 1.387 1_565 S
C620 C623 1.387 . S
H621 C617 0.950 . S
H622 C619 0.950 . S
C623 C614 1.390 . S
C623 H616 0.950 . S
C623 C620 1.387 . S
C624 C625 1.387 . S
C624 H628 0.950 . S
C624 C633 1.390 . S
C625 C624 1.387 . S
C625 C627 1.387 . S
H626 C633 0.950 . S
C627 C625 1.387 . S
C627 C629 1.390 . S
C627 H631 0.950 . S
H628 C624 0.950 . S
C629 C627 1.390 . S
C629 C630 1.387 . S
C629 H632 0.950 . S
C630 C629 1.387 . S
C630 C633 1.387 . S
H631 C627 0.950 . S
H632 C629 0.950 . S
C633 C624 1.390 . S
C633 H626 0.950 . S
C633 C630 1.387 . S
C634 C635 1.387 . S
C634 H638 0.950 . S
C634 C643 1.390 . S
C635 C634 1.387 . S
C635 C637 1.387 1_565 S
H636 C643 0.950 . S
C637 C635 1.387 1_545 S
C637 C639 1.390 . S
C637 H641 0.950 . S
H638 C634 0.950 . S
C639 C637 1.390 . S
C639 C640 1.387 . S
C639 H642 0.950 1_655 S
C640 C639 1.387 . S
C640 C643 1.387 1_545 S
H641 C637 0.950 . S
H642 C639 0.950 1_455 S
C643 C634 1.390 . S
C643 H636 0.950 . S
C643 C640 1.387 1_565 S
C644 C645 1.387 1_545 S
C644 H648 0.950 . S
C644 C653 1.390 . S
C645 C644 1.387 1_565 S
C645 C647 1.387 . S
H646 C653 0.950 . S
C647 C645 1.387 . S
C647 C649 1.390 . S
C647 H651 0.950 . S
H648 C644 0.950 . S
C649 C647 1.390 . S
C649 C650 1.387 . S
C649 H652 0.950 . S
C650 C649 1.387 . S
C650 C653 1.387 1_565 S
H651 C647 0.950 . S
H652 C649 0.950 . S
C653 C644 1.390 . S
C653 H646 0.950 . S
C653 C650 1.387 1_545 S
C654 C655 1.387 . S
C654 H658 0.950 . S
C654 C663 1.390 . S
C655 C654 1.387 . S
C655 C657 1.387 . S
H656 C663 0.950 . S
C657 C655 1.387 . S
C657 C659 1.390 . S
C657 H661 0.950 . S
H658 C654 0.950 . S
C659 C657 1.390 . S
C659 C660 1.387 . S
C659 H662 0.950 . S
C660 C659 1.387 . S
C660 C663 1.387 . S
H661 C657 0.950 . S
H662 C659 0.950 . S
C663 C654 1.390 . S
C663 H656 0.950 . S
C663 C660 1.387 . S
C664 C665 1.387 . S
C664 H668 0.950 . S
C664 C673 1.390 . S
C665 C664 1.387 . S
C665 C667 1.387 . S
H666 C673 0.950 . S
C667 C665 1.387 . S
C667 C669 1.390 . S
C667 H671 0.950 . S
H668 C664 0.950 . S
C669 C667 1.390 . S
C669 C670 1.387 . S
C669 H672 0.950 . S
C670 C669 1.387 . S
C670 C673 1.387 . S
H671 C667 0.950 . S
H672 C669 0.950 . S
C673 C664 1.390 . S
C673 H666 0.950 . S
C673 C670 1.387 . S
C674 C675 1.387 . S
C674 H678 0.950 . S
C674 C683 1.390 . S
C675 C674 1.387 . S
C675 C677 1.387 . S
H676 C683 0.950 . S
C677 C675 1.387 . S
C677 C679 1.390 . S
C677 H681 0.950 . S
H678 C674 0.950 . S
C679 C677 1.390 . S
C679 C680 1.387 . S
C679 H682 0.950 . S
C680 C679 1.387 . S
C680 C683 1.387 . S
H681 C677 0.950 . S
H682 C679 0.950 . S
C683 C674 1.390 . S
C683 H676 0.950 . S
C683 C680 1.387 . S
C684 C685 1.387 . S
C684 H688 0.950 . S
C684 C693 1.390 . S
C685 C684 1.387 . S
C685 C687 1.387 . S
H686 C693 0.950 . S
C687 C685 1.387 . S
C687 C689 1.390 . S
C687 H691 0.950 . S
H688 C684 0.950 . S
C689 C687 1.390 . S
C689 C690 1.387 . S
C689 H692 0.950 . S
C690 C689 1.387 . S
C690 C693 1.387 . S
H691 C687 0.950 . S
H692 C689 0.950 . S
C693 C684 1.390 . S
C693 H686 0.950 . S
C693 C690 1.387 . S
C694 C695 1.387 1_554 S
C694 H698 0.950 . S
C694 C703 1.390 . S
C695 C694 1.387 1_556 S
C695 C697 1.387 1_565 S
H696 C703 0.950 . S
C697 C695 1.387 1_545 S
C697 C699 1.390 1_556 S
C697 H701 0.950 . S
H698 C694 0.950 . S
C699 C697 1.390 1_554 S
C699 C700 1.387 . S
C699 H702 0.950 . S
C700 C699 1.387 . S
C700 C703 1.387 1_545 S
H701 C697 0.950 . S
H702 C699 0.950 . S
C703 C694 1.390 . S
C703 H696 0.950 . S
C703 C700 1.387 1_565 S
C704 C705 1.387 . S
C704 H708 0.950 . S
C704 C713 1.390 . S
C705 C704 1.387 . S
C705 C707 1.387 . S
H706 C713 0.950 . S
C707 C705 1.387 . S
C707 C709 1.390 . S
C707 H711 0.950 . S
H708 C704 0.950 . S
C709 C707 1.390 . S
C709 C710 1.387 . S
C709 H712 0.950 . S
C710 C709 1.387 . S
C710 C713 1.387 . S
H711 C707 0.950 . S
H712 C709 0.950 . S
C713 C704 1.390 . S
C713 H706 0.950 . S
C713 C710 1.387 . S
C714 C715 1.387 . S
C714 H718 0.950 . S
C714 C723 1.390 . S
C715 C714 1.387 . S
C715 C717 1.387 . S
H716 C723 0.950 . S
C717 C715 1.387 . S
C717 C719 1.390 . S
C717 H721 0.950 . S
H718 C714 0.950 . S
C719 C717 1.390 . S
C719 C720 1.387 . S
C719 H722 0.950 . S
C720 C719 1.387 . S
C720 C723 1.387 . S
H721 C717 0.950 . S
H722 C719 0.950 . S
C723 C714 1.390 . S
C723 H716 0.950 . S
C723 C720 1.387 . S
C724 C725 1.387 . S
C724 H728 0.950 . S
C724 C733 1.390 . S
C725 C724 1.387 . S
C725 C727 1.387 . S
H726 C733 0.950 . S
C727 C725 1.387 . S
C727 C729 1.390 . S
C727 H731 0.950 . S
H728 C724 0.950 . S
C729 C727 1.390 . S
C729 C730 1.387 . S
C729 H732 0.950 . S
C730 C729 1.387 . S
C730 C733 1.387 . S
H731 C727 0.950 . S
H732 C729 0.950 . S
C733 C724 1.390 . S
C733 H726 0.950 . S
C733 C730 1.387 . S
C734 C735 1.387 . S
C734 H738 0.950 . S
C734 C743 1.390 . S
C735 C734 1.387 . S
C735 C737 1.387 . S
H736 C743 0.950 . S
C737 C735 1.387 . S
C737 C739 1.390 . S
C737 H741 0.950 . S
H738 C734 0.950 . S
C739 C737 1.390 . S
C739 C740 1.387 . S
C739 H742 0.950 . S
C740 C739 1.387 . S
C740 C743 1.387 . S
H741 C737 0.950 . S
H742 C739 0.950 . S
C743 C734 1.390 . S
C743 H736 0.950 . S
C743 C740 1.387 . S
C744 C745 1.387 . S
C744 H748 0.950 . S
C744 C753 1.390 . S
C745 C744 1.387 . S
C745 C747 1.387 . S
H746 C753 0.950 . S
C747 C745 1.387 . S
C747 C749 1.390 . S
C747 H751 0.950 . S
H748 C744 0.950 . S
C749 C747 1.390 . S
C749 C750 1.387 . S
C749 H752 0.950 . S
C750 C749 1.387 . S
C750 C753 1.387 . S
H751 C747 0.950 . S
H752 C749 0.950 . S
C753 C744 1.390 . S
C753 H746 0.950 . S
C753 C750 1.387 . S
C754 C755 1.387 . S
C754 H758 0.950 . S
C754 C763 1.390 . S
C755 C754 1.387 . S
C755 C757 1.387 . S
H756 C763 0.950 . S
C757 C755 1.387 . S
C757 C759 1.390 . S
C757 H761 0.950 . S
H758 C754 0.950 . S
C759 C757 1.390 . S
C759 C760 1.387 1_554 S
C759 H762 0.950 1_554 S
C760 C759 1.387 1_556 S
C760 C763 1.387 1_556 S
H761 C757 0.950 . S
H762 C759 0.950 1_556 S
C763 C754 1.390 . S
C763 H756 0.950 . S
C763 C760 1.387 1_554 S
C764 C765 1.387 . S
C764 H768 0.950 . S
C764 C773 1.390 . S
C765 C764 1.387 . S
C765 C767 1.387 . S
H766 C773 0.950 . S
C767 C765 1.387 . S
C767 C769 1.390 . S
C767 H771 0.950 . S
H768 C764 0.950 . S
C769 C767 1.390 . S
C769 C770 1.387 . S
C769 H772 0.950 . S
C770 C769 1.387 . S
C770 C773 1.387 . S
H771 C767 0.950 . S
H772 C769 0.950 . S
C773 C764 1.390 . S
C773 H766 0.950 . S
C773 C770 1.387 . S
C774 C775 1.387 . S
C774 H778 0.950 . S
C774 C783 1.390 . S
C775 C774 1.387 . S
C775 C777 1.387 . S
H776 C783 0.950 . S
C777 C775 1.387 . S
C777 C779 1.390 . S
C777 H781 0.950 . S
H778 C774 0.950 . S
C779 C777 1.390 . S
C779 C780 1.387 . S
C779 H782 0.950 . S
C780 C779 1.387 . S
C780 C783 1.387 . S
H781 C777 0.950 . S
H782 C779 0.950 . S
C783 C774 1.390 . S
C783 H776 0.950 . S
C783 C780 1.387 . S
C784 C785 1.387 . S
C784 H788 0.950 . S
C784 C793 1.390 . S
C785 C784 1.387 . S
C785 C787 1.387 . S
H786 C793 0.950 . S
C787 C785 1.387 . S
C787 C789 1.390 . S
C787 H791 0.950 . S
H788 C784 0.950 . S
C789 C787 1.390 . S
C789 C790 1.387 . S
C789 H792 0.950 . S
C790 C789 1.387 . S
C790 C793 1.387 . S
H791 C787 0.950 . S
H792 C789 0.950 . S
C793 C784 1.390 . S
C793 H786 0.950 . S
C793 C790 1.387 . S
C794 C795 1.387 1_554 S
C794 H798 0.950 . S
C794 C803 1.390 . S
C795 C794 1.387 1_556 S
C795 C797 1.387 1_556 S
H796 C803 0.950 . S
C797 C795 1.387 1_554 S
C797 C799 1.390 . S
C797 H801 0.950 1_554 S
H798 C794 0.950 . S
C799 C797 1.390 . S
C799 C800 1.387 . S
C799 H802 0.950 . S
C800 C799 1.387 . S
C800 C803 1.387 . S
H801 C797 0.950 1_556 S
H802 C799 0.950 . S
C803 C794 1.390 . S
C803 H796 0.950 . S
C803 C800 1.387 . S
C804 C805 1.387 . S
C804 H808 0.950 . S
C804 C813 1.390 . S
C805 C804 1.387 . S
C805 C807 1.387 . S
H806 C813 0.950 . S
C807 C805 1.387 . S
C807 C809 1.390 . S
C807 H811 0.950 . S
H808 C804 0.950 . S
C809 C807 1.390 . S
C809 C810 1.387 . S
C809 H812 0.950 . S
C810 C809 1.387 . S
C810 C813 1.387 . S
H811 C807 0.950 . S
H812 C809 0.950 . S
C813 C804 1.390 . S
C813 H806 0.950 . S
C813 C810 1.387 . S
C814 C815 1.387 . S
C814 H818 0.950 . S
C814 C823 1.390 . S
C815 C814 1.387 . S
C815 C817 1.387 . S
H816 C823 0.950 . S
C817 C815 1.387 . S
C817 C819 1.390 . S
C817 H821 0.950 . S
H818 C814 0.950 . S
C819 C817 1.390 . S
C819 C820 1.387 . S
C819 H822 0.950 . S
C820 C819 1.387 . S
C820 C823 1.387 . S
H821 C817 0.950 . S
H822 C819 0.950 . S
C823 C814 1.390 . S
C823 H816 0.950 . S
C823 C820 1.387 . S
C824 C825 1.387 . S
C824 H828 0.950 . S
C824 C833 1.390 . S
C825 C824 1.387 . S
C825 C827 1.387 . S
H826 C833 0.950 . S
C827 C825 1.387 . S
C827 C829 1.390 . S
C827 H831 0.950 . S
H828 C824 0.950 . S
C829 C827 1.390 . S
C829 C830 1.387 . S
C829 H832 0.950 . S
C830 C829 1.387 . S
C830 C833 1.387 . S
H831 C827 0.950 . S
H832 C829 0.950 . S
C833 C824 1.390 . S
C833 H826 0.950 . S
C833 C830 1.387 . S
C834 C835 1.387 . S
C834 H838 0.950 . S
C834 C843 1.390 . S
C835 C834 1.387 . S
C835 C837 1.387 . S
H836 C843 0.950 . S
C837 C835 1.387 . S
C837 C839 1.390 . S
C837 H841 0.950 . S
H838 C834 0.950 . S
C839 C837 1.390 . S
C839 C840 1.387 . S
C839 H842 0.950 . S
C840 C839 1.387 . S
C840 C843 1.387 . S
H841 C837 0.950 . S
H842 C839 0.950 . S
C843 C834 1.390 . S
C843 H836 0.950 . S
C843 C840 1.387 . S
C844 C845 1.387 . S
C844 H848 0.950 . S
C844 C853 1.390 . S
C845 C844 1.387 . S
C845 C847 1.387 . S
H846 C853 0.950 . S
C847 C845 1.387 . S
C847 C849 1.390 . S
C847 H851 0.950 . S
H848 C844 0.950 . S
C849 C847 1.390 . S
C849 C850 1.387 . S
C849 H852 0.950 . S
C850 C849 1.387 . S
C850 C853 1.387 . S
H851 C847 0.950 . S
H852 C849 0.950 . S
C853 C844 1.390 . S
C853 H846 0.950 . S
C853 C850 1.387 . S
C854 C855 1.387 . S
C854 H858 0.950 . S
C854 C863 1.390 . S
C855 C854 1.387 . S
C855 C857 1.387 . S
H856 C863 0.950 . S
C857 C855 1.387 . S
C857 C859 1.390 . S
C857 H861 0.950 . S
H858 C854 0.950 . S
C859 C857 1.390 . S
C859 C860 1.387 . S
C859 H862 0.950 . S
C860 C859 1.387 . S
C860 C863 1.387 . S
H861 C857 0.950 . S
H862 C859 0.950 . S
C863 C854 1.390 . S
C863 H856 0.950 . S
C863 C860 1.387 . S
C864 C865 1.387 . S
C864 H868 0.950 . S
C864 C873 1.390 . S
C865 C864 1.387 . S
C865 C867 1.387 . S
H866 C873 0.950 . S
C867 C865 1.387 . S
C867 C869 1.390 . S
C867 H871 0.950 . S
H868 C864 0.950 . S
C869 C867 1.390 . S
C869 C870 1.387 . S
C869 H872 0.957 . S
C870 C869 1.387 . S
C870 C873 1.387 . S
H871 C867 0.950 . S
H872 C869 0.957 . S
C873 C864 1.390 . S
C873 H866 0.950 . S
C873 C870 1.387 . S
C874 C875 1.387 . S
C874 H878 0.950 . S
C874 C883 1.390 . S
C875 C874 1.387 . S
C875 C877 1.387 . S
H876 C883 0.950 . S
C877 C875 1.387 . S
C877 C879 1.390 . S
C877 H881 0.950 1_556 S
H878 C874 0.950 . S
C879 C877 1.390 . S
C879 C880 1.387 . S
C879 H882 0.950 1_556 S
C880 C879 1.387 . S
C880 C883 1.387 . S
H881 C877 0.950 1_554 S
H882 C879 0.950 1_554 S
C883 C874 1.390 . S
C883 H876 0.950 . S
C883 C880 1.387 . S
C884 C885 1.387 . S
C884 H888 0.950 . S
C884 C893 1.390 . S
C885 C884 1.387 . S
C885 C887 1.387 . S
H886 C893 0.950 . S
C887 C885 1.387 . S
C887 C889 1.390 . S
C887 H891 0.950 . S
H888 C884 0.950 . S
C889 C887 1.390 . S
C889 C890 1.387 . S
C889 H892 0.950 . S
C890 C889 1.387 . S
C890 C893 1.387 . S
H891 C887 0.950 . S
H892 C889 0.950 . S
C893 C884 1.390 . S
C893 H886 0.950 . S
C893 C890 1.387 . S
C894 C895 1.387 . S
C894 H898 0.950 . S
C894 C903 1.390 . S
C895 C894 1.387 . S
C895 C897 1.387 . S
H896 C903 0.950 . S
C897 C895 1.387 . S
C897 C899 1.390 . S
C897 H901 0.950 . S
H898 C894 0.950 . S
C899 C897 1.390 . S
C899 C900 1.387 . S
C899 H902 0.950 . S
C900 C899 1.387 . S
C900 C903 1.387 . S
H901 C897 0.950 . S
H902 C899 0.950 . S
C903 C894 1.390 . S
C903 H896 0.950 . S
C903 C900 1.387 . S
C904 C905 1.387 . S
C904 H908 0.950 . S
C904 C913 1.390 . S
C905 C904 1.387 . S
C905 C907 1.387 . S
H906 C913 0.950 . S
C907 C905 1.387 . S
C907 C909 1.390 . S
C907 H911 0.950 . S
H908 C904 0.950 . S
C909 C907 1.390 . S
C909 C910 1.387 . S
C909 H912 0.950 . S
C910 C909 1.387 . S
C910 C913 1.387 . S
H911 C907 0.950 . S
H912 C909 0.950 . S
C913 C904 1.390 . S
C913 H906 0.950 . S
C913 C910 1.387 . S
C914 C915 1.387 . S
C914 H918 0.950 . S
C914 C923 1.390 . S
C915 C914 1.387 . S
C915 C917 1.387 . S
H916 C923 0.950 . S
C917 C915 1.387 . S
C917 C919 1.390 . S
C917 H921 0.950 . S
H918 C914 0.950 . S
C919 C917 1.390 . S
C919 C920 1.387 . S
C919 H922 0.950 . S
C920 C919 1.387 . S
C920 C923 1.387 . S
H921 C917 0.950 . S
H922 C919 0.950 . S
C923 C914 1.390 . S
C923 H916 0.950 . S
C923 C920 1.387 . S
C924 C925 1.387 . S
C924 H928 0.950 . S
C924 C933 1.390 . S
C925 C924 1.387 . S
C925 C927 1.387 . S
H926 C933 0.950 . S
C927 C925 1.387 . S
C927 C929 1.390 . S
C927 H931 0.950 . S
H928 C924 0.950 . S
C929 C927 1.390 . S
C929 C930 1.387 . S
C929 H932 0.950 . S
C930 C929 1.387 . S
C930 C933 1.387 . S
H931 C927 0.950 . S
H932 C929 0.950 . S
C933 C924 1.390 . S
C933 H926 0.950 . S
C933 C930 1.387 . S
C934 C935 1.387 . S
C934 H938 0.950 1_556 S
C934 C943 1.390 . S
C935 C934 1.387 . S
C935 C937 1.387 . S
H936 C943 0.950 1_554 S
C937 C935 1.387 . S
C937 C939 1.390 . S
C937 H941 0.950 . S
H938 C934 0.950 1_554 S
C939 C937 1.390 . S
C939 C940 1.387 . S
C939 H942 0.950 . S
C940 C939 1.387 . S
C940 C943 1.387 . S
H941 C937 0.950 . S
H942 C939 0.950 . S
C943 C934 1.390 . S
C943 H936 0.950 1_556 S
C943 C940 1.387 . S
C545 C360 1.611 . S
C550 C20 1.599 . S
C555 C67 1.651 . S
C560 C258 1.648 . S
C565 C543 1.596 . S
C570 C54 1.573 . S
C575 C101 1.625 . S
C580 C33 1.611 1_655 S
C585 C88 1.612 . S
C590 C292 1.600 . S
C595 C203 1.652 . S
C600 C122 1.649 . S
C605 C462 1.572 . S
C610 C135 1.595 . S
C615 C496 1.611 . S
C620 C156 1.600 1_565 S
C625 C190 1.572 . S
C630 C407 1.595 . S
C635 C237 1.625 . S
C640 C169 1.611 1_655 S
C645 C428 1.600 1_565 S
C650 C224 1.613 . S
C655 C326 1.573 . S
C660 C271 1.596 . S
C665 C530 1.644 . S
C670 C339 1.651 . S
C675 C305 1.611 . S
C680 C373 1.625 . S
C685 C394 1.645 . S
C690 C475 1.652 . S
C695 C509 1.625 . S
C700 C441 1.611 . S
C705 C9 1.363 . S
C710 C5 1.392 . S
C715 C43 1.367 . S
C720 C39 1.411 . S
C725 C77 1.375 . S
C730 C73 1.382 . S
C735 C107 1.368 . S
C740 C111 1.344 . S
C745 C141 1.394 . S
C750 C145 1.363 . S
C755 C179 1.367 . S
C760 C175 1.411 . S
C765 C213 1.374 1_556 S
C770 C209 1.384 . S
C775 C247 1.344 . S
C780 C243 1.368 . S
C785 C281 1.364 . S
C790 C277 1.392 . S
C795 C311 1.411 . S
C800 C315 1.366 . S
C805 C349 1.374 1_556 S
C810 C345 1.384 . S
C815 C383 1.344 . S
C820 C379 1.368 . S
C825 C417 1.363 . S
C830 C413 1.394 . S
C835 C451 1.368 . S
C840 C447 1.411 . S
C845 C485 1.374 . S
C850 C481 1.382 . S
C855 C515 1.366 . S
C860 C519 1.344 . S
C865 C2 1.596 . S
C870 C36 1.600 . S
C875 C70 1.523 . S
C880 C104 1.522 . S
C885 C138 1.594 . S
C890 C172 1.602 . S
C895 C206 1.523 . S
C900 C240 1.522 . S
C905 C308 1.601 . S
C910 C274 1.596 . S
C915 C342 1.523 . S
C920 C376 1.522 . S
C925 C444 1.600 . S
C930 C410 1.596 . S
C935 C512 1.521 . S
C940 C478 1.522 . S
