# Generated by pormake.
# Topology uns, (4)-cn, num edge types: 1
# Building blocks:
#     Node 0, Type 0, BuildingBlock: ICAMEG_clean_sbu_1, # of connection points: 4
#     Node 1, Type 0, BuildingBlock: ICAMEG_clean_sbu_1, # of connection points: 4
#     Node 2, Type 0, BuildingBlock: ICAMEG_clean_sbu_1, # of connection points: 4
#     Node 3, Type 0, BuildingBlock: ICAMEG_clean_sbu_1, # of connection points: 4
#     Node 4, Type 0, BuildingBlock: ICAMEG_clean_sbu_1, # of connection points: 4
#     Node 5, Type 0, BuildingBlock: ICAMEG_clean_sbu_1, # of connection points: 4
#     Node 6, Type 0, BuildingBlock: ICAMEG_clean_sbu_1, # of connection points: 4
#     Node 7, Type 0, BuildingBlock: ICAMEG_clean_sbu_1, # of connection points: 4
#     Node 8, Type 0, BuildingBlock: ICAMEG_clean_sbu_1, # of connection points: 4
#     Node 9, Type 0, BuildingBlock: ICAMEG_clean_sbu_1, # of connection points: 4
#     Node 10, Type 0, BuildingBlock: ICAMEG_clean_sbu_1, # of connection points: 4
#     Node 11, Type 0, BuildingBlock: ICAMEG_clean_sbu_1, # of connection points: 4
#     Node 12, Type 0, BuildingBlock: ICAMEG_clean_sbu_1, # of connection points: 4
#     Node 13, Type 0, BuildingBlock: ICAMEG_clean_sbu_1, # of connection points: 4
#     Node 14, Type 0, BuildingBlock: ICAMEG_clean_sbu_1, # of connection points: 4
#     Node 15, Type 0, BuildingBlock: ICAMEG_clean_sbu_1, # of connection points: 4
#     Node 16, Type 0, BuildingBlock: ICAMEG_clean_sbu_1, # of connection points: 4
#     Node 17, Type 0, BuildingBlock: ICAMEG_clean_sbu_1, # of connection points: 4
#     Node 18, Type 0, BuildingBlock: ICAMEG_clean_sbu_1, # of connection points: 4
#     Node 19, Type 0, BuildingBlock: ICAMEG_clean_sbu_1, # of connection points: 4
#     Node 20, Type 0, BuildingBlock: ICAMEG_clean_sbu_1, # of connection points: 4
#     Node 21, Type 0, BuildingBlock: ICAMEG_clean_sbu_1, # of connection points: 4
#     Node 22, Type 0, BuildingBlock: ICAMEG_clean_sbu_1, # of connection points: 4
#     Node 23, Type 0, BuildingBlock: ICAMEG_clean_sbu_1, # of connection points: 4
#     Node 24, Type 0, BuildingBlock: ICAMEG_clean_sbu_1, # of connection points: 4
#     Node 25, Type 0, BuildingBlock: ICAMEG_clean_sbu_1, # of connection points: 4
#     Node 26, Type 0, BuildingBlock: ICAMEG_clean_sbu_1, # of connection points: 4
#     Node 27, Type 0, BuildingBlock: ICAMEG_clean_sbu_1, # of connection points: 4
#     Node 28, Type 0, BuildingBlock: ICAMEG_clean_sbu_1, # of connection points: 4
#     Node 29, Type 0, BuildingBlock: ICAMEG_clean_sbu_1, # of connection points: 4
#     Node 30, Type 0, BuildingBlock: ICAMEG_clean_sbu_1, # of connection points: 4
#     Node 31, Type 0, BuildingBlock: ICAMEG_clean_sbu_1, # of connection points: 4
#     Node 32, Type 0, BuildingBlock: ICAMEG_clean_sbu_1, # of connection points: 4
#     Node 33, Type 0, BuildingBlock: ICAMEG_clean_sbu_1, # of connection points: 4
#     Node 34, Type 0, BuildingBlock: ICAMEG_clean_sbu_1, # of connection points: 4
#     Node 35, Type 0, BuildingBlock: ICAMEG_clean_sbu_1, # of connection points: 4
#     Edge 36, Type (0, 0), BuildingBlock: XIVTED_clean_linker_0, # of connection points: 2
#     Edge 37, Type (0, 0), BuildingBlock: XIVTED_clean_linker_0, # of connection points: 2
#     Edge 38, Type (0, 0), BuildingBlock: XIVTED_clean_linker_0, # of connection points: 2
#     Edge 39, Type (0, 0), BuildingBlock: XIVTED_clean_linker_0, # of connection points: 2
#     Edge 40, Type (0, 0), BuildingBlock: XIVTED_clean_linker_0, # of connection points: 2
#     Edge 41, Type (0, 0), BuildingBlock: XIVTED_clean_linker_0, # of connection points: 2
#     Edge 42, Type (0, 0), BuildingBlock: XIVTED_clean_linker_0, # of connection points: 2
#     Edge 43, Type (0, 0), BuildingBlock: XIVTED_clean_linker_0, # of connection points: 2
#     Edge 44, Type (0, 0), BuildingBlock: XIVTED_clean_linker_0, # of connection points: 2
#     Edge 45, Type (0, 0), BuildingBlock: XIVTED_clean_linker_0, # of connection points: 2
#     Edge 46, Type (0, 0), BuildingBlock: XIVTED_clean_linker_0, # of connection points: 2
#     Edge 47, Type (0, 0), BuildingBlock: XIVTED_clean_linker_0, # of connection points: 2
#     Edge 48, Type (0, 0), BuildingBlock: XIVTED_clean_linker_0, # of connection points: 2
#     Edge 49, Type (0, 0), BuildingBlock: XIVTED_clean_linker_0, # of connection points: 2
#     Edge 50, Type (0, 0), BuildingBlock: XIVTED_clean_linker_0, # of connection points: 2
#     Edge 51, Type (0, 0), BuildingBlock: XIVTED_clean_linker_0, # of connection points: 2
#     Edge 52, Type (0, 0), BuildingBlock: XIVTED_clean_linker_0, # of connection points: 2
#     Edge 53, Type (0, 0), BuildingBlock: XIVTED_clean_linker_0, # of connection points: 2
#     Edge 54, Type (0, 0), BuildingBlock: XIVTED_clean_linker_0, # of connection points: 2
#     Edge 55, Type (0, 0), BuildingBlock: XIVTED_clean_linker_0, # of connection points: 2
#     Edge 56, Type (0, 0), BuildingBlock: XIVTED_clean_linker_0, # of connection points: 2
#     Edge 57, Type (0, 0), BuildingBlock: XIVTED_clean_linker_0, # of connection points: 2
#     Edge 58, Type (0, 0), BuildingBlock: XIVTED_clean_linker_0, # of connection points: 2
#     Edge 59, Type (0, 0), BuildingBlock: XIVTED_clean_linker_0, # of connection points: 2
#     Edge 60, Type (0, 0), BuildingBlock: XIVTED_clean_linker_0, # of connection points: 2
#     Edge 61, Type (0, 0), BuildingBlock: XIVTED_clean_linker_0, # of connection points: 2
#     Edge 62, Type (0, 0), BuildingBlock: XIVTED_clean_linker_0, # of connection points: 2
#     Edge 63, Type (0, 0), BuildingBlock: XIVTED_clean_linker_0, # of connection points: 2
#     Edge 64, Type (0, 0), BuildingBlock: XIVTED_clean_linker_0, # of connection points: 2
#     Edge 65, Type (0, 0), BuildingBlock: XIVTED_clean_linker_0, # of connection points: 2
#     Edge 66, Type (0, 0), BuildingBlock: XIVTED_clean_linker_0, # of connection points: 2
#     Edge 67, Type (0, 0), BuildingBlock: XIVTED_clean_linker_0, # of connection points: 2
#     Edge 68, Type (0, 0), BuildingBlock: XIVTED_clean_linker_0, # of connection points: 2
#     Edge 69, Type (0, 0), BuildingBlock: XIVTED_clean_linker_0, # of connection points: 2
#     Edge 70, Type (0, 0), BuildingBlock: XIVTED_clean_linker_0, # of connection points: 2
#     Edge 71, Type (0, 0), BuildingBlock: XIVTED_clean_linker_0, # of connection points: 2
#     Edge 72, Type (0, 0), BuildingBlock: XIVTED_clean_linker_0, # of connection points: 2
#     Edge 73, Type (0, 0), BuildingBlock: XIVTED_clean_linker_0, # of connection points: 2
#     Edge 74, Type (0, 0), BuildingBlock: XIVTED_clean_linker_0, # of connection points: 2
#     Edge 75, Type (0, 0), BuildingBlock: XIVTED_clean_linker_0, # of connection points: 2
#     Edge 76, Type (0, 0), BuildingBlock: XIVTED_clean_linker_0, # of connection points: 2
#     Edge 77, Type (0, 0), BuildingBlock: XIVTED_clean_linker_0, # of connection points: 2
#     Edge 78, Type (0, 0), BuildingBlock: XIVTED_clean_linker_0, # of connection points: 2
#     Edge 79, Type (0, 0), BuildingBlock: XIVTED_clean_linker_0, # of connection points: 2
#     Edge 80, Type (0, 0), BuildingBlock: XIVTED_clean_linker_0, # of connection points: 2
#     Edge 81, Type (0, 0), BuildingBlock: XIVTED_clean_linker_0, # of connection points: 2
#     Edge 82, Type (0, 0), BuildingBlock: XIVTED_clean_linker_0, # of connection points: 2
#     Edge 83, Type (0, 0), BuildingBlock: XIVTED_clean_linker_0, # of connection points: 2
#     Edge 84, Type (0, 0), BuildingBlock: XIVTED_clean_linker_0, # of connection points: 2
#     Edge 85, Type (0, 0), BuildingBlock: XIVTED_clean_linker_0, # of connection points: 2
#     Edge 86, Type (0, 0), BuildingBlock: XIVTED_clean_linker_0, # of connection points: 2
#     Edge 87, Type (0, 0), BuildingBlock: XIVTED_clean_linker_0, # of connection points: 2
#     Edge 88, Type (0, 0), BuildingBlock: XIVTED_clean_linker_0, # of connection points: 2
#     Edge 89, Type (0, 0), BuildingBlock: XIVTED_clean_linker_0, # of connection points: 2
#     Edge 90, Type (0, 0), BuildingBlock: XIVTED_clean_linker_0, # of connection points: 2
#     Edge 91, Type (0, 0), BuildingBlock: XIVTED_clean_linker_0, # of connection points: 2
#     Edge 92, Type (0, 0), BuildingBlock: XIVTED_clean_linker_0, # of connection points: 2
#     Edge 93, Type (0, 0), BuildingBlock: XIVTED_clean_linker_0, # of connection points: 2
#     Edge 94, Type (0, 0), BuildingBlock: XIVTED_clean_linker_0, # of connection points: 2
#     Edge 95, Type (0, 0), BuildingBlock: XIVTED_clean_linker_0, # of connection points: 2
#     Edge 96, Type (0, 0), BuildingBlock: XIVTED_clean_linker_0, # of connection points: 2
#     Edge 97, Type (0, 0), BuildingBlock: XIVTED_clean_linker_0, # of connection points: 2
#     Edge 98, Type (0, 0), BuildingBlock: XIVTED_clean_linker_0, # of connection points: 2
#     Edge 99, Type (0, 0), BuildingBlock: XIVTED_clean_linker_0, # of connection points: 2
#     Edge 100, Type (0, 0), BuildingBlock: XIVTED_clean_linker_0, # of connection points: 2
#     Edge 101, Type (0, 0), BuildingBlock: XIVTED_clean_linker_0, # of connection points: 2
#     Edge 102, Type (0, 0), BuildingBlock: XIVTED_clean_linker_0, # of connection points: 2
#     Edge 103, Type (0, 0), BuildingBlock: XIVTED_clean_linker_0, # of connection points: 2
#     Edge 104, Type (0, 0), BuildingBlock: XIVTED_clean_linker_0, # of connection points: 2
#     Edge 105, Type (0, 0), BuildingBlock: XIVTED_clean_linker_0, # of connection points: 2
#     Edge 106, Type (0, 0), BuildingBlock: XIVTED_clean_linker_0, # of connection points: 2
#     Edge 107, Type (0, 0), BuildingBlock: XIVTED_clean_linker_0, # of connection points: 2
# Relax obj value: 0.028
# Max RMSD: 0.153
# Mean RMSD: 0.153
data_MOF--net-uns--node1-ICAMEG_clean_sbu_1--edge1-XIVTED_clean_linker_0
_symmetry_space_group_name_H-M    P1
_symmetry_Int_Tables_number       1
_symmetry_cell_setting            triclinic
loop_
_symmetry_equiv_pos_as_xyz
'x, y, z'
_cell_length_a     58.360384
_cell_length_b     58.361495
_cell_length_c     64.096749
_cell_angle_alpha  89.968456
_cell_angle_beta   89.993199
_cell_angle_gamma 120.01321
loop_
_atom_site_label
_atom_site_type_symbol
_atom_site_fract_x
_atom_site_fract_y
_atom_site_fract_z
_atom_type_partial_charge
Co0 Co 0.23998 0.18059 0.08109 0.0
Co1 Co 0.27354 0.18955 0.03456 0.0
O2 O 0.25819 0.17075 0.0606 0.0
C3 C 0.285 0.18309 0.10351 0.0
O4 O 0.29935 0.19605 0.08729 0.0
C5 C 0.23363 0.13573 0.02237 0.0
O6 O 0.21802 0.13761 0.03614 0.0
O7 O 0.24187 0.19271 0.02844 0.0
O8 O 0.21959 0.18616 0.05861 0.0
H9 H 0.29913 0.26167 0.98138 0.0
H10 H 0.24038 0.13023 0.08583 0.0
O11 O 0.26033 0.17526 0.10387 0.0
H12 H 0.1462 0.10457 0.08082 0.0
H13 H 0.19442 0.17214 0.14971 0.0
H14 H 0.2249 0.22205 0.08375 0.0
H15 H 0.181 0.15159 0.07979 0.0
H16 H 0.21694 0.15989 0.12309 0.0
O17 O 0.25699 0.15497 0.01945 0.0
H18 H 0.27996 0.23826 0.01447 0.0
H19 H 0.29958 0.17952 -0.00144 0.0
H20 H 0.20228 0.23485 0.10986 0.0
H21 H 0.20623 0.08298 0.0871 0.0
H22 H 0.18687 0.2098 0.14312 0.0
H23 H 0.15876 0.06989 0.08451 0.0
O24 O 0.26786 0.2186 0.07939 0.0
H25 H 0.32149 0.142 0.05636 0.0
H26 H 0.33158 0.22764 0.03458 0.0
H27 H 0.37126 0.22477 0.04327 0.0
H28 H 0.36633 0.18171 0.05425 0.0
H29 H 0.28235 0.1458 0.04767 0.0
H30 H 0.31879 0.20218 0.96521 0.0
H31 H 0.31873 0.24362 0.95648 0.0
O32 O 0.28978 0.22423 0.04919 0.0
C33 C 0.22268 0.19112 0.03909 0.0
C34 C 0.29935 0.24368 0.98503 0.0
C35 C 0.31035 0.21027 0.97594 0.0
N36 N 0.28885 0.20768 0.0085 0.0
C37 C 0.2886 0.23038 0.00377 0.0
C38 C 0.29941 0.1975 0.99483 0.0
C39 C 0.31032 0.23353 0.97106 0.0
C40 C 0.21975 0.1247 0.0849 0.0
N41 N 0.21268 0.14365 0.08282 0.0
C42 C 0.20051 0.09791 0.08554 0.0
C43 C 0.17388 0.09058 0.08406 0.0
C44 C 0.16682 0.11002 0.08197 0.0
C45 C 0.18661 0.13661 0.08135 0.0
C46 C 0.20099 0.18317 0.13526 0.0
C47 C 0.21809 0.21096 0.09813 0.0
C48 C 0.21379 0.17636 0.12015 0.0
N49 N 0.22201 0.19012 0.10182 0.0
C50 C 0.20537 0.21834 0.11288 0.0
C51 C 0.19675 0.2043 0.13155 0.0
C52 C 0.28564 0.233 0.06615 0.0
C53 C 0.3239 0.16086 0.05153 0.0
C54 C 0.32929 0.20883 0.03934 0.0
C55 C 0.35182 0.20732 0.04422 0.0
C56 C 0.34905 0.18315 0.05037 0.0
N57 N 0.3047 0.18687 0.04049 0.0
C58 C 0.30182 0.1631 0.0465 0.0
Co59 Co 0.81156 0.05661 0.08315 0.0
Co60 Co 0.80497 0.07971 0.03515 0.0
O61 O 0.82237 0.0842 0.06204 0.0
C62 C 0.80931 0.1 0.10419 0.0
O63 O 0.79626 0.10072 0.08777 0.0
C64 C 0.86033 0.09704 0.0252 0.0
O65 O 0.85871 0.07972 0.03904 0.0
O66 O 0.80506 0.04628 0.02988 0.0
O67 O 0.80553 0.02958 0.06143 0.0
H68 H 0.73787 0.02952 0.97935 0.0
H69 H 0.86253 0.10673 0.08793 0.0
O70 O 0.81716 0.08321 0.10516 0.0
H71 H 0.88595 0.03648 0.08502 0.0
H72 H 0.81804 0.02094 0.15305 0.0
H73 H 0.76871 0.00069 0.08681 0.0
H74 H 0.83929 0.02537 0.08308 0.0
H75 H 0.83148 0.05494 0.12559 0.0
O76 O 0.8404 0.09978 0.02146 0.0
H77 H 0.75951 0.03533 0.01356 0.0
H78 H 0.81491 0.11531 -0.00122 0.0
H79 H 0.75471 0.96602 0.11376 0.0
H80 H 0.90943 0.1187 0.09007 0.0
H81 H 0.77947 0.97608 0.14717 0.0
H82 H 0.92139 0.08344 0.08855 0.0
O83 O 0.774 0.04743 0.08075 0.0
H84 H 0.84545 0.17488 0.05682 0.0
H85 H 0.76408 0.096 0.03246 0.0
H86 H 0.76329 0.13703 0.04006 0.0
H87 H 0.80419 0.17684 0.05234 0.0
H88 H 0.84531 0.13339 0.04918 0.0
H89 H 0.79403 0.11032 0.96434 0.0
H90 H 0.75515 0.0672 0.95448 0.0
O91 O 0.76927 0.05934 0.04835 0.0
C92 C 0.80418 0.02817 0.04156 0.0
C93 C 0.75473 0.04843 0.9835 0.0
C94 C 0.78627 0.09377 0.97507 0.0
N95 N 0.78825 0.07571 0.00823 0.0
C96 C 0.767 0.05187 0.00287 0.0
C97 C 0.79804 0.09647 0.99457 0.0
C98 C 0.76446 0.06958 0.96955 0.0
C99 C 0.86757 0.09125 0.08748 0.0
N100 N 0.8482 0.06538 0.0855 0.0
C101 C 0.89416 0.09816 0.08861 0.0
C102 C 0.90086 0.07837 0.08772 0.0
C103 C 0.88099 0.05202 0.08572 0.0
C104 C 0.85461 0.04585 0.08459 0.0
C105 C 0.80715 0.0163 0.13854 0.0
C106 C 0.77969 0.00513 0.10124 0.0
C107 C 0.81464 0.03548 0.12295 0.0
N108 N 0.80106 0.02969 0.10454 0.0
C109 C 0.77162 0.98546 0.11647 0.0
C110 C 0.7855 0.99113 0.13523 0.0
C111 C 0.75996 0.04864 0.06602 0.0
C112 C 0.82752 0.15769 0.05142 0.0
C113 C 0.78195 0.11324 0.0378 0.0
C114 C 0.78139 0.13643 0.04205 0.0
C115 C 0.80435 0.15876 0.04893 0.0
N116 N 0.80476 0.11236 0.04026 0.0
C117 C 0.82736 0.13418 0.04698 0.0
Co118 Co 0.9334 0.7516 0.0838 0.0
Co119 Co 0.91189 0.72164 0.03571 0.0
O120 O 0.90647 0.73448 0.06228 0.0
C121 C 0.88976 0.70561 0.10446 0.0
O122 O 0.88948 0.69184 0.08818 0.0
C123 C 0.89529 0.75989 0.02484 0.0
O124 O 0.91227 0.7754 0.03893 0.0
O125 O 0.94552 0.75515 0.03085 0.0
O126 O 0.96088 0.77293 0.06248 0.0
H127 H 0.96388 0.70467 0.98154 0.0
H128 H 0.88268 0.75149 0.0874 0.0
O129 O 0.90636 0.7303 0.10545 0.0
H130 H 0.95191 0.84561 0.08501 0.0
H131 H 0.96663 0.79393 0.154 0.0
H132 H 0.98945 0.76555 0.08857 0.0
H133 H 0.96383 0.81061 0.0838 0.0
H134 H 0.93349 0.77299 0.12602 0.0
O135 O 0.89235 0.7371 0.02127 0.0
H136 H 0.95693 0.72047 0.01535 0.0
H137 H 0.87755 0.6961 -0.00128 0.0
H138 H 0.02327 0.78661 0.11606 0.0
H139 H 0.86989 0.78585 0.0888 0.0
H140 H 0.01192 0.80096 0.14906 0.0
H141 H 0.90464 0.8333 0.08754 0.0
O142 O 0.94325 0.72368 0.08193 0.0
H143 H 0.81596 0.66692 0.0554 0.0
H144 H 0.89568 0.66446 0.03338 0.0
H145 H 0.85436 0.62262 0.04037 0.0
H146 H 0.81413 0.6237 0.05146 0.0
H147 H 0.85774 0.70829 0.04839 0.0
H148 H 0.88368 0.68023 0.96465 0.0
H149 H 0.92707 0.68438 0.95592 0.0
O150 O 0.93183 0.70636 0.04969 0.0
C151 C 0.96303 0.77272 0.04268 0.0
C152 C 0.94485 0.70265 0.98519 0.0
C153 C 0.89984 0.68897 0.9757 0.0
N154 N 0.91679 0.70894 0.00907 0.0
C155 C 0.94078 0.71148 0.00434 0.0
C156 C 0.8965 0.69802 0.995 0.0
C157 C 0.92419 0.6913 0.97082 0.0
C158 C 0.89792 0.7721 0.08707 0.0
N159 N 0.92397 0.77904 0.08564 0.0
C160 C 0.89056 0.79147 0.08778 0.0
C161 C 0.91006 0.81808 0.08703 0.0
C162 C 0.93659 0.825 0.0856 0.0
C163 C 0.94322 0.8051 0.08488 0.0
C164 C 0.97184 0.78784 0.13967 0.0
C165 C 0.98444 0.77194 0.10282 0.0
C166 C 0.95315 0.77594 0.12378 0.0
N167 N 0.95965 0.76834 0.1056 0.0
C168 C 0.00364 0.78376 0.11836 0.0
C169 C -0.00275 0.79178 0.13688 0.0
C170 C 0.9424 0.70823 0.06751 0.0
C171 C 0.83334 0.66619 0.05051 0.0
C172 C 0.87825 0.66509 0.03822 0.0
C173 C 0.85491 0.64133 0.04212 0.0
C174 C 0.83233 0.64195 0.04833 0.0
N175 N 0.87906 0.68878 0.04037 0.0
C176 C 0.85701 0.68955 0.04644 0.0
Co177 Co 0.1784 0.24121 0.41113 0.0
Co178 Co 0.18574 0.2712 0.45908 0.0
O179 O 0.16792 0.25809 0.43238 0.0
C180 C 0.18055 0.2869 0.39018 0.0
O181 O 0.1937 0.30073 0.40655 0.0
C182 C 0.13081 0.23256 0.46965 0.0
O183 O 0.13251 0.21706 0.45567 0.0
O184 O 0.1862 0.23793 0.46422 0.0
O185 O 0.18455 0.22017 0.43271 0.0
H186 H 0.25411 0.28908 0.514 0.0
H187 H 0.12749 0.24059 0.40681 0.0
O188 O 0.17268 0.26226 0.38924 0.0
H189 H 0.10368 0.1468 0.40963 0.0
H190 H 0.17089 0.19891 0.34116 0.0
H191 H 0.22104 0.22793 0.40704 0.0
H192 H 0.15043 0.18222 0.41124 0.0
H193 H 0.15792 0.21962 0.3688 0.0
O194 O 0.15053 0.25545 0.47321 0.0
H195 H 0.23192 0.27301 0.48002 0.0
H196 H 0.17604 0.29659 0.49573 0.0
H197 H 0.23458 0.20711 0.3799 0.0
H198 H 0.08051 0.2058 0.405 0.0
H199 H 0.2094 0.19244 0.34668 0.0
H200 H 0.06836 0.15852 0.40648 0.0
O201 O 0.21604 0.26948 0.41328 0.0
H202 H 0.14385 0.32492 0.43833 0.0
H203 H 0.22619 0.32855 0.46146 0.0
H204 H 0.22629 0.37008 0.4541 0.0
H205 H 0.18489 0.36842 0.44244 0.0
H206 H 0.14469 0.28386 0.44572 0.0
H207 H 0.19748 0.31272 0.52995 0.0
H208 H 0.23688 0.30911 0.53923 0.0
O209 O 0.22118 0.28682 0.44544 0.0
C210 C 0.18658 0.22046 0.45254 0.0
C211 C 0.23703 0.29086 0.51011 0.0
C212 C 0.20522 0.3041 0.51907 0.0
N213 N 0.2029 0.28413 0.48583 0.0
C214 C 0.22444 0.28188 0.49087 0.0
C215 C 0.19314 0.2949 0.49969 0.0
C216 C 0.22733 0.30207 0.52427 0.0
C217 C 0.12237 0.22006 0.40724 0.0
N218 N 0.14168 0.21344 0.40901 0.0
C219 C 0.09573 0.20045 0.4063 0.0
C220 C 0.08892 0.17392 0.40717 0.0
C221 C 0.10874 0.16733 0.40895 0.0
C222 C 0.13517 0.18747 0.40989 0.0
C223 C 0.18196 0.20514 0.3556 0.0
C224 C 0.20988 0.2214 0.39269 0.0
C225 C 0.17473 0.21691 0.37129 0.0
N226 N 0.18854 0.22468 0.3896 0.0
C227 C 0.21769 0.20971 0.37735 0.0
C228 C 0.20357 0.20151 0.3587 0.0
C229 C 0.23027 0.28507 0.42778 0.0
C230 C 0.16199 0.3259 0.44346 0.0
C231 C 0.20811 0.32767 0.45639 0.0
C232 C 0.20827 0.35125 0.45227 0.0
C233 C 0.18503 0.3503 0.44574 0.0
N234 N 0.18542 0.30382 0.45413 0.0
C235 C 0.16255 0.30273 0.44775 0.0
Co236 Co 0.7512 0.93731 0.41064 0.0
Co237 Co 0.71953 0.91366 0.45781 0.0
O238 O 0.73371 0.9096 0.43148 0.0
C239 C 0.70639 0.89421 0.38881 0.0
O240 O 0.6921 0.89359 0.40483 0.0
C241 C 0.7576 0.89722 0.47049 0.0
O242 O 0.7755 0.91727 0.45962 0.0
O243 O 0.75282 0.94715 0.46395 0.0
O244 O 0.77115 0.96405 0.4327 0.0
H245 H 0.70008 0.96267 0.51303 0.0
H246 H 0.75237 0.88728 0.40667 0.0
O247 O 0.7311 0.91086 0.38831 0.0
H248 H 0.84584 0.95776 0.4113 0.0
H249 H 0.79609 0.97356 0.34167 0.0
H250 H 0.76436 0.99324 0.40683 0.0
H251 H 0.81012 0.9687 0.41206 0.0
H252 H 0.77446 0.93934 0.36884 0.0
O253 O 0.73398 0.8929 0.47173 0.0
H254 H 0.71747 0.9576 0.47932 0.0
H255 H 0.6922 0.8773 0.49345 0.0
H256 H 0.78608 0.02812 0.38016 0.0
H257 H 0.78747 0.87547 0.40572 0.0
H258 H 0.80212 0.01836 0.3473 0.0
H259 H 0.83459 0.91086 0.40809 0.0
O260 O 0.72273 0.94646 0.41209 0.0
H261 H 0.6655 0.81895 0.43473 0.0
H262 H 0.66232 0.89753 0.45887 0.0
H263 H 0.62076 0.85676 0.45016 0.0
H264 H 0.6222 0.8171 0.438 0.0
H265 H 0.70659 0.86018 0.44343 0.0
H266 H 0.67471 0.88155 0.52739 0.0
H267 H 0.67851 0.92445 0.53732 0.0
O268 O 0.70497 0.93446 0.44416 0.0
C269 C 0.77041 0.96539 0.45254 0.0
C270 C 0.69822 0.94385 0.50884 0.0
C271 C 0.68401 0.89832 0.51692 0.0
N272 N 0.7056 0.91711 0.48435 0.0
C273 C 0.70795 0.94083 0.48975 0.0
C274 C 0.69398 0.89605 0.4977 0.0
C275 C 0.68614 0.9224 0.52248 0.0
C276 C 0.77284 0.9028 0.40753 0.0
N277 N 0.7792 0.92865 0.40928 0.0
C278 C 0.79262 0.89599 0.40706 0.0
C279 C 0.81906 0.91585 0.40842 0.0
C280 C 0.82538 0.94217 0.41023 0.0
C281 C 0.80507 0.94824 0.41068 0.0
C282 C 0.78926 0.97808 0.35595 0.0
C283 C 0.77148 0.98892 0.39263 0.0
C284 C 0.77697 0.95878 0.37137 0.0
N285 N 0.76844 0.9644 0.38948 0.0
C286 C 0.78367 0.00871 0.37756 0.0
C287 C 0.79264 0.00321 0.35912 0.0
C288 C 0.70706 0.94533 0.42644 0.0
C289 C 0.66461 0.83607 0.44007 0.0
C290 C 0.66311 0.88036 0.45357 0.0
C291 C 0.63951 0.85732 0.4487 0.0
C292 C 0.64032 0.83506 0.44188 0.0
N293 N 0.68685 0.88119 0.45178 0.0
C294 C 0.68781 0.85944 0.44512 0.0
Co295 Co 0.05478 0.81204 0.41117 0.0
Co296 Co 0.0766 0.80447 0.45944 0.0
O297 O 0.08175 0.82261 0.43279 0.0
C298 C 0.09914 0.81106 0.39055 0.0
O299 O 0.09985 0.79785 0.40688 0.0
C300 C 0.09261 0.85925 0.47037 0.0
O301 O 0.07571 0.85784 0.45622 0.0
O302 O 0.04267 0.80378 0.46419 0.0
O303 O 0.02698 0.80506 0.4324 0.0
H304 H 0.02527 0.73527 0.51367 0.0
H305 H 0.10463 0.8635 0.40758 0.0
O306 O 0.08211 0.8186 0.38955 0.0
H307 H 0.03341 0.88559 0.40966 0.0
H308 H 0.02089 0.81984 0.34084 0.0
H309 H -0.00075 0.76874 0.40632 0.0
H310 H 0.02287 0.83908 0.41102 0.0
H311 H 0.05408 0.83297 0.3689 0.0
O312 O 0.09568 0.83947 0.47385 0.0
H313 H 0.03194 0.7579 0.47981 0.0
H314 H 0.11103 0.81384 0.49649 0.0
H315 H 0.96539 0.75503 0.37876 0.0
H316 H 0.11603 0.91026 0.40603 0.0
H317 H 0.97614 0.78067 0.34573 0.0
H318 H 0.08028 0.92156 0.40713 0.0
O319 O 0.04604 0.77456 0.41308 0.0
H320 H 0.17268 0.84705 0.43988 0.0
H321 H 0.09372 0.76419 0.46198 0.0
H322 H 0.13544 0.76445 0.45514 0.0
H323 H 0.1753 0.80611 0.44401 0.0
H324 H 0.1305 0.84586 0.44673 0.0
H325 H 0.10516 0.79197 0.5306 0.0
H326 H 0.06206 0.75231 0.53933 0.0
O327 O 0.05721 0.7692 0.44555 0.0
C328 C 0.02488 0.80305 0.45222 0.0
C329 C 0.04418 0.75247 0.51002 0.0
C330 C 0.089 0.78431 0.51953 0.0
N331 N 0.07192 0.78698 0.48611 0.0
C332 C 0.04809 0.76531 0.49085 0.0
C333 C 0.0922 0.79664 0.50021 0.0
C334 C 0.06482 0.76206 0.52442 0.0
C335 C 0.08895 0.86825 0.40785 0.0
N336 N 0.06312 0.84858 0.40928 0.0
C337 C 0.09553 0.89476 0.40705 0.0
C338 C 0.07546 0.90109 0.40771 0.0
C339 C 0.04916 0.88092 0.40915 0.0
C340 C 0.04332 0.85462 0.40995 0.0
C341 C 0.01594 0.80855 0.35519 0.0
C342 C 0.00399 0.78011 0.39206 0.0
C343 C 0.03466 0.81587 0.37111 0.0
N344 N 0.02849 0.8018 0.38931 0.0
C345 C 0.98478 0.7722 0.37648 0.0
C346 C 0.99084 0.78658 0.35794 0.0
C347 C 0.04708 0.76026 0.42767 0.0
C348 C 0.15547 0.8288 0.44478 0.0
C349 C 0.11097 0.78239 0.45712 0.0
C350 C 0.13455 0.78242 0.4533 0.0
C351 C 0.15691 0.80581 0.44707 0.0
N352 N 0.10973 0.80503 0.45486 0.0
C353 C 0.13157 0.82804 0.44877 0.0
Co354 Co 0.75098 0.81288 0.91026 0.0
Co355 Co 0.72054 0.80439 0.95818 0.0
O356 O 0.73391 0.82287 0.93172 0.0
C357 C 0.70568 0.81153 0.88934 0.0
O358 O 0.69162 0.79793 0.90549 0.0
C359 C 0.75889 0.85911 0.96956 0.0
O360 O 0.77464 0.85782 0.9556 0.0
O361 O 0.75383 0.80395 0.96327 0.0
O362 O 0.77167 0.80604 0.9317 0.0
H363 H 0.70226 0.73477 0.01211 0.0
H364 H 0.75188 0.864 0.90681 0.0
O365 O 0.73032 0.81932 0.88849 0.0
H366 H 0.84553 0.88735 0.90989 0.0
H367 H 0.79414 0.82212 0.84039 0.0
H368 H 0.7641 0.7702 0.90546 0.0
H369 H 0.80996 0.84063 0.91076 0.0
H370 H 0.77318 0.83446 0.86826 0.0
O371 O 0.73599 0.83926 0.9728 0.0
H372 H 0.71868 0.7578 0.97845 0.0
H373 H 0.69462 0.81307 0.99498 0.0
H374 H 0.78516 0.75728 0.87808 0.0
H375 H 0.78682 0.91097 0.90574 0.0
H376 H 0.80035 0.78334 0.84526 0.0
H377 H 0.83404 0.92289 0.90736 0.0
O378 O 0.72258 0.77521 0.91182 0.0
H379 H 0.66675 0.84646 0.93812 0.0
H380 H 0.66321 0.76372 0.96002 0.0
H381 H 0.62167 0.76364 0.95272 0.0
H382 H 0.62329 0.80523 0.94169 0.0
H383 H 0.70782 0.84561 0.94543 0.0
H384 H 0.67813 0.79079 0.0289 0.0
H385 H 0.68181 0.75127 0.0376 0.0
O386 O 0.70518 0.76927 0.94404 0.0
C387 C 0.77131 0.80368 0.95151 0.0
C388 C 0.70045 0.75191 0.00847 0.0
C389 C 0.68694 0.78337 0.0179 0.0
N390 N 0.70735 0.78657 0.98468 0.0
C391 C 0.70963 0.76497 0.98941 0.0
C392 C 0.69634 0.79593 -0.00131 0.0
C393 C 0.689 0.76119 0.02277 0.0
C394 C 0.77238 0.86903 0.90729 0.0
N395 N 0.77887 0.8496 0.90873 0.0
C396 C 0.79208 0.89566 0.90678 0.0
C397 C 0.81857 0.90234 0.90772 0.0
C398 C 0.82503 0.8824 0.90916 0.0
C399 C 0.8048 0.85599 0.90968 0.0
C400 C 0.78768 0.81066 0.85464 0.0
C401 C 0.77085 0.78175 0.89128 0.0
C402 C 0.77577 0.81753 0.87046 0.0
N403 N 0.76771 0.80323 0.88855 0.0
C404 C 0.78267 0.77428 0.87581 0.0
C405 C 0.79116 0.7889 0.85739 0.0
C406 C 0.70698 0.76061 0.92619 0.0
C407 C 0.66579 0.82823 0.94298 0.0
C408 C 0.66407 0.7819 0.95521 0.0
C409 C 0.64049 0.78174 0.95113 0.0
C410 C 0.64141 0.80508 0.94495 0.0
N411 N 0.6879 0.80469 0.95326 0.0
C412 C 0.68897 0.82766 0.94723 0.0
Co413 Co 0.17832 0.93618 0.91094 0.0
Co414 Co 0.18563 0.91392 0.95911 0.0
O415 O 0.16783 0.90897 0.93235 0.0
C416 C 0.18064 0.89262 0.89033 0.0
O417 O 0.19371 0.89208 0.9068 0.0
C418 C 0.13066 0.89755 0.96958 0.0
O419 O 0.13229 0.91459 0.95546 0.0
O420 O 0.18601 0.94766 0.964 0.0
O421 O 0.18439 0.96348 0.93234 0.0
H422 H 0.25393 0.96489 0.01395 0.0
H423 H 0.12747 0.88581 0.90674 0.0
O424 O 0.17269 0.90932 0.8892 0.0
H425 H 0.1035 0.95569 0.90901 0.0
H426 H 0.17083 0.97054 0.84073 0.0
H427 H 0.22095 0.99211 0.90665 0.0
H428 H 0.15027 0.96712 0.91071 0.0
H429 H 0.15787 0.93702 0.86852 0.0
O430 O 0.15041 0.89448 0.97323 0.0
H431 H 0.23174 0.9585 0.97993 0.0
H432 H 0.17597 0.87908 0.99595 0.0
H433 H 0.23448 0.02631 0.87935 0.0
H434 H 0.08047 0.87351 0.90484 0.0
H435 H 0.20932 0.01559 0.84611 0.0
H436 H 0.06823 0.90858 0.90604 0.0
O437 O 0.21599 0.94566 0.9132 0.0
H438 H 0.14393 0.81817 0.93882 0.0
H439 H 0.22616 0.89716 0.96177 0.0
H440 H 0.22636 0.85572 0.95467 0.0
H441 H 0.18502 0.81585 0.9431 0.0
H442 H 0.14467 0.86007 0.94595 0.0
H443 H 0.19741 0.88465 0.03021 0.0
H444 H 0.23676 0.92778 0.03935 0.0
O445 O 0.22108 0.93371 0.94549 0.0
C446 C 0.18638 0.96539 0.95217 0.0
C447 C 0.23686 0.94597 0.01011 0.0
C448 C 0.20512 0.90095 0.01925 0.0
N449 N 0.20277 0.91837 0.9859 0.0
C450 C 0.22428 0.94222 0.99086 0.0
C451 C 0.19304 0.89792 -0.00015 0.0
C452 C 0.2272 0.92515 0.02437 0.0
C453 C 0.12231 0.9012 0.90705 0.0
N454 N 0.14159 0.92715 0.90872 0.0
C455 C 0.09566 0.89411 0.90606 0.0
C456 C 0.08881 0.91379 0.90677 0.0
C457 C 0.10859 0.94023 0.90845 0.0
C458 C 0.13503 0.94658 0.90944 0.0
C459 C 0.1819 0.97548 0.85517 0.0
C460 C 0.20979 0.98738 0.89229 0.0
C461 C 0.17467 0.95657 0.87095 0.0
N462 N 0.18847 0.96272 0.88927 0.0
C463 C 0.2176 0.00679 0.87686 0.0
C464 C 0.20349 0.00075 0.8582 0.0
C465 C 0.2302 0.94443 0.92779 0.0
C466 C 0.16205 0.83539 0.94391 0.0
C467 C 0.2081 0.87989 0.95674 0.0
C468 C 0.20832 0.85648 0.95277 0.0
C469 C 0.18512 0.83411 0.94629 0.0
N470 N 0.18538 0.88097 0.95439 0.0
C471 C 0.16255 0.85913 0.94806 0.0
Co472 Co 0.05741 0.24433 0.91189 0.0
Co473 Co 0.08047 0.27458 0.95958 0.0
O474 O 0.08478 0.26099 0.93304 0.0
C475 C 0.10126 0.2895 0.89076 0.0
O476 O 0.10192 0.30351 0.90698 0.0
C477 C 0.09579 0.23549 0.97159 0.0
O478 O 0.07579 0.21819 0.96037 0.0
O479 O 0.0466 0.24141 0.96511 0.0
O480 O 0.03016 0.22391 0.93357 0.0
H481 H 0.03117 0.29346 0.01493 0.0
H482 H 0.10719 0.24266 0.90803 0.0
O483 O 0.08436 0.26486 0.88992 0.0
H484 H 0.03594 0.14937 0.91103 0.0
H485 H 0.02208 0.20159 0.84214 0.0
H486 H 0.00173 0.23186 0.90775 0.0
H487 H 0.02548 0.1854 0.91229 0.0
H488 H 0.05587 0.22215 0.86973 0.0
O489 O 0.10053 0.25922 0.97329 0.0
H490 H 0.03655 0.27683 0.98096 0.0
H491 H 0.11627 0.30041 0.99576 0.0
H492 H 0.96728 0.2112 0.88066 0.0
H493 H 0.11853 0.20724 0.90659 0.0
H494 H 0.97738 0.19591 0.84758 0.0
H495 H 0.08276 0.16021 0.90814 0.0
O496 O 0.04866 0.27303 0.91377 0.0
H497 H 0.17572 0.32814 0.93761 0.0
H498 H 0.09739 0.33194 0.9616 0.0
H499 H 0.13867 0.37341 0.95368 0.0
H500 H 0.17821 0.37166 0.9416 0.0
H501 H 0.13399 0.28715 0.94554 0.0
H502 H 0.1117 0.31711 0.02996 0.0
H503 H 0.06893 0.31377 0.03969 0.0
O504 O 0.06036 0.29 0.94608 0.0
C505 C 0.02848 0.22419 0.95342 0.0
C506 C 0.04993 0.29511 0.01083 0.0
C507 C 0.09512 0.30836 0.01928 0.0
N508 N 0.07677 0.2879 0.98632 0.0
C509 C 0.05312 0.28581 0.9916 0.0
C510 C 0.09758 0.29883 -8e-05 0.0
C511 C 0.07112 0.30649 0.02473 0.0
C512 C 0.09151 0.22223 0.90853 0.0
N513 N 0.0657 0.21609 0.9101 0.0
C514 C 0.09805 0.20227 0.90779 0.0
C515 C 0.07797 0.17588 0.90868 0.0
C516 C 0.0517 0.16979 0.91031 0.0
C517 C 0.0459 0.19027 0.91105 0.0
C518 C 0.01742 0.20811 0.85651 0.0
C519 C 0.00619 0.22506 0.89346 0.0
C520 C 0.03647 0.21979 0.87217 0.0
N521 N 0.03065 0.22792 0.8904 0.0
C522 C 0.98664 0.21347 0.87815 0.0
C523 C 0.99234 0.20492 0.85958 0.0
C524 C 0.04981 0.28847 0.92832 0.0
C525 C 0.15865 0.32916 0.94293 0.0
C526 C 0.11451 0.33101 0.95634 0.0
C527 C 0.13784 0.35456 0.95191 0.0
C528 C 0.16002 0.35357 0.94514 0.0
N529 N 0.11333 0.30715 0.95415 0.0
C530 C 0.135 0.30602 0.94754 0.0
Co531 Co 0.81222 0.7545 0.58323 0.0
Co532 Co 0.80247 0.7205 0.53685 0.0
O533 O 0.82157 0.73588 0.56274 0.0
C534 C 0.80908 0.70924 0.60569 0.0
O535 O 0.79602 0.69502 0.58946 0.0
C536 C 0.85645 0.75987 0.52434 0.0
O537 O 0.85482 0.77569 0.53804 0.0
O538 O 0.79967 0.75237 0.53065 0.0
O539 O 0.80688 0.77501 0.5607 0.0
H540 H 0.72983 0.69509 0.48424 0.0
H541 H 0.86217 0.75328 0.58777 0.0
O542 O 0.81729 0.73398 0.60604 0.0
H543 H 0.88917 0.84776 0.5823 0.0
H544 H 0.82184 0.8007 0.65168 0.0
H545 H 0.77137 0.7704 0.586 0.0
H546 H 0.84195 0.81347 0.58164 0.0
H547 H 0.83341 0.77762 0.62507 0.0
O548 O 0.83696 0.73662 0.52151 0.0
H549 H 0.75369 0.71435 0.51713 0.0
H550 H 0.81182 0.69403 0.50079 0.0
H551 H 0.75925 0.79358 0.61211 0.0
H552 H 0.90961 0.78692 0.58866 0.0
H553 H 0.78458 0.8089 0.64522 0.0
H554 H 0.92337 0.83454 0.58583 0.0
O555 O 0.77404 0.727 0.58177 0.0
H556 H 0.84932 0.67179 0.55849 0.0
H557 H 0.76391 0.66257 0.53717 0.0
H558 H 0.76635 0.62267 0.54591 0.0
H559 H 0.80929 0.62715 0.55666 0.0
H560 H 0.84595 0.71117 0.54976 0.0
H561 H 0.78871 0.67473 0.46764 0.0
H562 H 0.74734 0.6751 0.45923 0.0
O563 O 0.76793 0.70465 0.55175 0.0
C564 C 0.8017 0.77181 0.54123 0.0
C565 C 0.74779 0.69474 0.48775 0.0
C566 C 0.78086 0.68335 0.47842 0.0
N567 N 0.784 0.70514 0.51093 0.0
C568 C 0.76135 0.70555 0.50637 0.0
C569 C 0.79389 0.69435 0.49719 0.0
C570 C 0.75764 0.68355 0.47372 0.0
C571 C 0.868 0.77398 0.58675 0.0
N572 N 0.84932 0.78141 0.58474 0.0
C573 C 0.89489 0.79293 0.58717 0.0
C574 C 0.9026 0.81965 0.58555 0.0
C575 C 0.88342 0.82707 0.58355 0.0
C576 C 0.85672 0.80757 0.58315 0.0
C577 C 0.81069 0.79417 0.63729 0.0
C578 C 0.78259 0.77717 0.60032 0.0
C579 C 0.81712 0.78105 0.62219 0.0
N580 N 0.80321 0.77289 0.60394 0.0
C581 C 0.77558 0.7902 0.61507 0.0
C582 C 0.78979 0.79877 0.63365 0.0
C583 C 0.7594 0.70908 0.56872 0.0
C584 C 0.83051 0.66958 0.55376 0.0
C585 C 0.78267 0.66467 0.54183 0.0
C586 C 0.78393 0.64201 0.54674 0.0
C587 C 0.80804 0.64454 0.55276 0.0
N588 N 0.80481 0.68915 0.54283 0.0
C589 C 0.82851 0.69179 0.54871 0.0
Co590 Co 0.23859 0.05714 0.58305 0.0
Co591 Co 0.26934 0.07913 0.53522 0.0
O592 O 0.25614 0.08432 0.56173 0.0
C593 C 0.28449 0.10027 0.6041 0.0
O594 O 0.29832 0.1006 0.58785 0.0
C595 C 0.23146 0.09613 0.52405 0.0
O596 O 0.21567 0.0791 0.53802 0.0
O597 O 0.23581 0.04566 0.53003 0.0
O598 O 0.21742 0.03001 0.56147 0.0
H599 H 0.28682 0.02756 0.48104 0.0
H600 H 0.23907 0.10802 0.58688 0.0
O601 O 0.25975 0.08384 0.60496 0.0
H602 H 0.1448 0.03932 0.58369 0.0
H603 H 0.19518 0.02319 0.65286 0.0
H604 H 0.22416 0.00091 0.58747 0.0
H605 H 0.17958 0.02707 0.58259 0.0
H606 H 0.21671 0.05666 0.62515 0.0
O607 O 0.25426 0.09897 0.52072 0.0
H608 H 0.27057 0.0342 0.51475 0.0
H609 H 0.29559 0.11387 0.49853 0.0
H610 H 0.20253 0.96676 0.61468 0.0
H611 H 0.20494 0.12112 0.58818 0.0
H612 H 0.18787 0.97783 0.64766 0.0
H613 H 0.15742 0.08664 0.58651 0.0
O614 O 0.26635 0.04703 0.58129 0.0
H615 H 0.32408 0.17478 0.55561 0.0
H616 H 0.32649 0.09513 0.53337 0.0
H617 H 0.36832 0.13625 0.5408 0.0
H618 H 0.36727 0.17645 0.55201 0.0
H619 H 0.28272 0.13319 0.54816 0.0
H620 H 0.31192 0.10804 0.46456 0.0
H621 H 0.30767 0.06466 0.45568 0.0
O622 O 0.28427 0.05892 0.54925 0.0
C623 C 0.21794 0.0281 0.54167 0.0
C624 C 0.28888 0.04658 0.48476 0.0
C625 C 0.30293 0.09175 0.4755 0.0
N626 N 0.28239 0.07447 0.50867 0.0
C627 C 0.27979 0.05049 0.50385 0.0
C628 C 0.29362 0.09492 0.49474 0.0
C629 C 0.30055 0.0674 0.47053 0.0
C630 C 0.21843 0.09289 0.58638 0.0
N631 N 0.21132 0.06681 0.58478 0.0
C632 C 0.19919 0.10043 0.58702 0.0
C633 C 0.17253 0.08108 0.58605 0.0
C634 C 0.16544 0.05452 0.58445 0.0
C635 C 0.18522 0.04771 0.5838 0.0
C636 C 0.20141 0.0181 0.63853 0.0
C637 C 0.21765 0.0058 0.60171 0.0
C638 C 0.21363 0.03698 0.62281 0.0
N639 N 0.2214 0.03064 0.60463 0.0
C640 C 0.2055 0.98642 0.6171 0.0
C641 C 0.19731 0.99265 0.6356 0.0
C642 C 0.28202 0.04805 0.56699 0.0
C643 C 0.3248 0.15742 0.55068 0.0
C644 C 0.32588 0.11254 0.53825 0.0
C645 C 0.34962 0.13577 0.54241 0.0
C646 C 0.34902 0.15833 0.54868 0.0
N647 N 0.3022 0.11182 0.54022 0.0
C648 C 0.30145 0.13385 0.54635 0.0
Co649 Co 0.93365 0.18248 0.58336 0.0
Co650 Co 0.91138 0.1888 0.53493 0.0
O651 O 0.90641 0.17156 0.56197 0.0
C652 C 0.88981 0.18459 0.60386 0.0
O653 O 0.88915 0.19761 0.58739 0.0
C654 C 0.89442 0.13346 0.52548 0.0
O655 O 0.91151 0.13527 0.53961 0.0
O656 O 0.94493 0.18874 0.53019 0.0
O657 O 0.96103 0.18843 0.56202 0.0
H658 H 0.96248 0.25556 0.47908 0.0
H659 H 0.8835 0.13148 0.58795 0.0
O660 O 0.90671 0.1769 0.60502 0.0
H661 H 0.9539 0.10821 0.58641 0.0
H662 H 0.96825 0.17641 0.65385 0.0
H663 H 0.98947 0.22542 0.58736 0.0
H664 H 0.96497 0.15483 0.5841 0.0
H665 H 0.93468 0.16278 0.62605 0.0
O666 O 0.89163 0.15329 0.52139 0.0
H667 H 0.95609 0.23416 0.51347 0.0
H668 H 0.87641 0.17855 0.49811 0.0
H669 H 0.02371 0.2396 0.61465 0.0
H670 H 0.87157 0.08462 0.59047 0.0
H671 H 0.01318 0.21501 0.64818 0.0
H672 H 0.90691 0.07273 0.58963 0.0
O673 O 0.94277 0.21998 0.58066 0.0
H674 H 0.8158 0.14834 0.55548 0.0
H675 H 0.89509 0.22962 0.53143 0.0
H676 H 0.85389 0.2304 0.53829 0.0
H677 H 0.81387 0.18954 0.55041 0.0
H678 H 0.85746 0.14849 0.54857 0.0
H679 H 0.88199 0.19919 0.46347 0.0
H680 H 0.92524 0.23805 0.45381 0.0
O681 O 0.93149 0.22456 0.548 0.0
C682 C 0.96281 0.18968 0.54216 0.0
C683 C 0.94351 0.2387 0.48314 0.0
C684 C 0.89834 0.20704 0.47437 0.0
N685 N 0.91583 0.20533 0.50786 0.0
C686 C 0.93975 0.22657 0.50261 0.0
C687 C 0.89531 0.19542 0.49398 0.0
C688 C 0.92261 0.22885 0.46896 0.0
C689 C 0.89901 0.12648 0.58781 0.0
N690 N 0.9249 0.14587 0.58599 0.0
C691 C 0.89213 0.09991 0.58914 0.0
C692 C 0.91196 0.09325 0.58863 0.0
C693 C 0.93833 0.11314 0.58681 0.0
C694 C 0.94447 0.1395 0.58547 0.0
C695 C 0.97311 0.18724 0.63928 0.0
C696 C 0.98482 0.21451 0.60185 0.0
C697 C 0.95417 0.17964 0.6235 0.0
N698 N 0.96023 0.19313 0.60503 0.0
C699 C 0.00425 0.22268 0.61727 0.0
C700 C -0.00169 0.2089 0.63609 0.0
C701 C 0.94185 0.23395 0.56573 0.0
C702 C 0.83308 0.16625 0.55015 0.0
C703 C 0.87776 0.21177 0.53671 0.0
C704 C 0.85448 0.21232 0.54054 0.0
C705 C 0.83203 0.18938 0.54733 0.0
N706 N 0.87862 0.18899 0.53949 0.0
C707 C 0.85669 0.16642 0.54612 0.0
Co708 Co 0.90719 0.51394 0.41556 0.0
Co709 Co 0.93744 0.522 0.3676 0.0
O710 O 0.92393 0.50358 0.39408 0.0
C711 C 0.95219 0.5147 0.43662 0.0
O712 O 0.9664 0.52793 0.4204 0.0
C713 C 0.89839 0.46754 0.35618 0.0
O714 O 0.88283 0.46907 0.37021 0.0
O715 O 0.90446 0.52311 0.36257 0.0
O716 O 0.88672 0.52113 0.39416 0.0
H717 H 0.95687 0.59207 0.31379 0.0
H718 H 0.90553 0.46246 0.41904 0.0
O719 O 0.92762 0.5072 0.43735 0.0
H720 H 0.81224 0.44034 0.41603 0.0
H721 H 0.86432 0.50538 0.48547 0.0
H722 H 0.89495 0.55722 0.42039 0.0
H723 H 0.84824 0.48688 0.41513 0.0
H724 H 0.88483 0.49255 0.45757 0.0
O725 O 0.92144 0.48715 0.35294 0.0
H726 H 0.94017 0.56905 0.34742 0.0
H727 H 0.96284 0.51277 0.33072 0.0
H728 H 0.87435 0.57064 0.4478 0.0
H729 H 0.87015 0.41567 0.42014 0.0
H730 H 0.85886 0.54462 0.48062 0.0
H731 H 0.82311 0.40436 0.41856 0.0
O732 O 0.93595 0.55144 0.41395 0.0
H733 H 0.9899 0.4784 0.38734 0.0
H734 H 0.99499 0.56194 0.36571 0.0
H735 H 0.03614 0.56117 0.37285 0.0
H736 H 0.03374 0.51917 0.38373 0.0
H737 H 0.94924 0.48011 0.3802 0.0
H738 H 0.97958 0.53503 0.29682 0.0
H739 H 0.97675 0.57505 0.28822 0.0
O740 O 0.95334 0.55711 0.38176 0.0
C741 C 0.88713 0.5236 0.37437 0.0
C742 C 0.95831 0.57471 0.31739 0.0
C743 C 0.97102 0.54268 0.30785 0.0
N744 N 0.95079 0.53977 0.3411 0.0
C745 C 0.94897 0.56165 0.33643 0.0
C746 C 0.96148 0.53013 0.32705 0.0
C747 C 0.96943 0.56513 0.30304 0.0
C748 C 0.8851 0.4577 0.41857 0.0
N749 N 0.87895 0.47737 0.41714 0.0
C750 C 0.86516 0.43117 0.41911 0.0
C751 C 0.83877 0.42484 0.41819 0.0
C752 C 0.83266 0.44502 0.41675 0.0
C753 C 0.85312 0.47133 0.41621 0.0
C754 C 0.87091 0.51683 0.47121 0.0
C755 C 0.88806 0.54569 0.43457 0.0
C756 C 0.88256 0.50968 0.45538 0.0
N757 N 0.89079 0.52396 0.43729 0.0
C758 C 0.8765 0.55343 0.45006 0.0
C759 C 0.86785 0.53884 0.46848 0.0
C760 C 0.9517 0.56587 0.39959 0.0
C761 C 0.9912 0.4968 0.38255 0.0
C762 C 0.99379 0.54359 0.37047 0.0
C763 C 0.01715 0.54327 0.37445 0.0
C764 C 0.01579 0.51969 0.38055 0.0
N765 N 0.96975 0.52105 0.37243 0.0
C766 C 0.96826 0.49786 0.3784 0.0
Co767 Co 0.4768 0.3897 0.41666 0.0
Co768 Co 0.46972 0.4145 0.36975 0.0
O769 O 0.48757 0.41783 0.39614 0.0
C770 C 0.47524 0.43267 0.43884 0.0
O771 O 0.46184 0.43361 0.42275 0.0
C772 C 0.52423 0.43053 0.35737 0.0
O773 O 0.52168 0.41019 0.36804 0.0
O774 O 0.46914 0.38093 0.36325 0.0
O775 O 0.47007 0.36327 0.39428 0.0
H776 H 0.4017 0.36714 0.3139 0.0
H777 H 0.52821 0.43939 0.42132 0.0
O778 O 0.48309 0.41585 0.43928 0.0
H779 H 0.55042 0.36843 0.41604 0.0
H780 H 0.4841 0.35195 0.48532 0.0
H781 H 0.43366 0.33383 0.41978 0.0
H782 H 0.5039 0.35791 0.41502 0.0
H783 H 0.49732 0.38671 0.45852 0.0
O784 O 0.50514 0.43517 0.35612 0.0
H785 H 0.42369 0.37131 0.34769 0.0
H786 H 0.47962 0.45165 0.33452 0.0
H787 H 0.41986 0.29842 0.44607 0.0
H788 H 0.57498 0.45077 0.42255 0.0
H789 H 0.44517 0.3074 0.47911 0.0
H790 H 0.58633 0.41514 0.41986 0.0
O791 O 0.43929 0.38088 0.41499 0.0
H792 H 0.51116 0.50884 0.39396 0.0
H793 H 0.42917 0.43133 0.36879 0.0
H794 H 0.42884 0.4722 0.37796 0.0
H795 H 0.47006 0.51133 0.39065 0.0
H796 H 0.51056 0.46752 0.38478 0.0
H797 H 0.45837 0.4483 0.3005 0.0
H798 H 0.41905 0.40583 0.29004 0.0
O799 O 0.43417 0.39381 0.38311 0.0
C800 C 0.46819 0.36237 0.37442 0.0
C801 C 0.41876 0.38578 0.31831 0.0
C802 C 0.45059 0.43132 0.31078 0.0
N803 N 0.45273 0.41176 0.34314 0.0
C804 C 0.43123 0.38828 0.33745 0.0
C805 C 0.46256 0.43309 0.33004 0.0
C806 C 0.42852 0.40749 0.30492 0.0
C807 C 0.53298 0.42376 0.42032 0.0
N808 N 0.51335 0.39801 0.41824 0.0
C809 C 0.55951 0.43033 0.42095 0.0
C810 C 0.56586 0.41033 0.41941 0.0
C811 C 0.54572 0.38412 0.41726 0.0
C812 C 0.51943 0.37829 0.41666 0.0
C813 C 0.47296 0.34777 0.47095 0.0
C814 C 0.44488 0.33781 0.43406 0.0
C815 C 0.48033 0.36738 0.45574 0.0
N816 N 0.46644 0.36218 0.43752 0.0
C817 C 0.43692 0.31772 0.44891 0.0
C818 C 0.45112 0.32278 0.46746 0.0
C819 C 0.42506 0.38256 0.40065 0.0
C820 C 0.4931 0.49195 0.38839 0.0
C821 C 0.44718 0.44827 0.37431 0.0
C822 C 0.44688 0.47137 0.37945 0.0
C823 C 0.47002 0.49332 0.38655 0.0
N824 N 0.4699 0.44709 0.37613 0.0
C825 C 0.49267 0.46854 0.38307 0.0
Co826 Co 0.60106 0.08701 0.41721 0.0
Co827 Co 0.57894 0.05636 0.36941 0.0
O828 O 0.57388 0.06971 0.39587 0.0
C829 C 0.55758 0.04145 0.43831 0.0
O830 O 0.55713 0.0275 0.4221 0.0
C831 C 0.56219 0.09444 0.35806 0.0
O832 O 0.5792 0.11027 0.37201 0.0
O833 O 0.61257 0.08974 0.36418 0.0
O834 O 0.62836 0.10789 0.39564 0.0
H835 H 0.63024 0.0383 0.31533 0.0
H836 H 0.55055 0.0873 0.42095 0.0
O837 O 0.5742 0.06614 0.43911 0.0
H838 H 0.62014 0.18122 0.41758 0.0
H839 H 0.63519 0.13039 0.48696 0.0
H840 H 0.65708 0.10073 0.42174 0.0
H841 H 0.63178 0.14601 0.4166 0.0
H842 H 0.60173 0.10912 0.45924 0.0
O843 O 0.55931 0.07161 0.35482 0.0
H844 H 0.6237 0.05473 0.34899 0.0
H845 H 0.54417 0.03022 0.33274 0.0
H846 H 0.69121 0.1221 0.44897 0.0
H847 H 0.53805 0.12188 0.42213 0.0
H848 H 0.68034 0.1371 0.48186 0.0
H849 H 0.57298 0.16923 0.42036 0.0
O850 O 0.61071 0.0589 0.41557 0.0
H851 H 0.48321 0.00222 0.3898 0.0
H852 H 0.56253 -0.0009 0.36766 0.0
H853 H 0.52122 0.95745 0.37513 0.0
H854 H 0.48118 0.95887 0.38628 0.0
H855 H 0.52499 0.0434 0.38233 0.0
H856 H 0.54989 0.01372 0.29882 0.0
H857 H 0.59315 0.01761 0.28998 0.0
O858 O 0.59892 0.04121 0.38349 0.0
C859 C 0.63028 0.1074 0.37584 0.0
C860 C 0.61126 0.03639 0.31903 0.0
C861 C 0.56618 0.02263 0.30976 0.0
N862 N 0.58351 0.04317 0.34289 0.0
C863 C 0.60743 0.04557 0.33809 0.0
C864 C 0.56307 0.03204 0.32897 0.0
C865 C 0.59045 0.02481 0.30481 0.0
C866 C 0.56588 0.10786 0.4204 0.0
N867 N 0.59186 0.11463 0.41883 0.0
C868 C 0.55867 0.12735 0.42098 0.0
C869 C 0.57828 0.15392 0.41995 0.0
C870 C 0.60474 0.16066 0.41838 0.0
C871 C 0.61121 0.14064 0.4178 0.0
C872 C 0.64019 0.12402 0.47267 0.0
C873 C 0.65227 0.1074 0.43594 0.0
C874 C 0.62132 0.11193 0.45694 0.0
N875 N 0.62756 0.10398 0.43881 0.0
C876 C 0.67165 0.1194 0.45133 0.0
C877 C 0.66552 0.12778 0.46979 0.0
C878 C 0.60963 0.04323 0.40126 0.0
C879 C 0.5005 0.00135 0.38489 0.0
C880 C 0.5452 -0.00013 0.37252 0.0
C881 C 0.52185 0.97623 0.3767 0.0
C882 C 0.49939 0.97703 0.38294 0.0
N883 N 0.54611 0.02364 0.37445 0.0
C884 C 0.52417 0.02459 0.38055 0.0
Co885 Co 0.84458 0.5744 0.7444 0.0
Co886 Co 0.85334 0.60425 0.79258 0.0
O887 O 0.83482 0.5914 0.76608 0.0
C888 C 0.84639 0.62018 0.72378 0.0
O889 O 0.86 0.63411 0.73996 0.0
C890 C 0.79855 0.56605 0.80388 0.0
O891 O 0.79972 0.55044 0.78972 0.0
O892 O 0.85345 0.57072 0.79731 0.0
O893 O 0.85112 0.55321 0.76557 0.0
H894 H 0.92279 0.62118 0.84626 0.0
H895 H 0.79373 0.5741 0.74123 0.0
O896 O 0.83843 0.59552 0.72285 0.0
H897 H 0.76949 0.48016 0.74339 0.0
H898 H 0.83507 0.53212 0.67411 0.0
H899 H 0.88691 0.56084 0.73923 0.0
H900 H 0.81634 0.5154 0.74441 0.0
H901 H 0.82293 0.55288 0.70228 0.0
O902 O 0.8185 0.58885 0.80725 0.0
H903 H 0.89973 0.6054 0.81256 0.0
H904 H 0.84492 0.62982 0.82973 0.0
H905 H 0.89962 0.53997 0.71155 0.0
H906 H 0.74665 0.53949 0.74003 0.0
H907 H 0.8736 0.52545 0.67871 0.0
H908 H 0.73427 0.49214 0.74118 0.0
O909 O 0.88234 0.60253 0.74604 0.0
H910 H 0.81196 0.65897 0.77347 0.0
H911 H 0.89435 0.66144 0.79481 0.0
H912 H 0.89481 0.70328 0.78803 0.0
H913 H 0.85339 0.7022 0.77729 0.0
H914 H 0.81243 0.6176 0.78025 0.0
H915 H 0.86723 0.64566 0.8637 0.0
H916 H 0.90654 0.64148 0.8721 0.0
O917 O 0.88842 0.61955 0.77839 0.0
C918 C 0.85347 0.55328 0.78536 0.0
C919 C 0.90575 0.62321 0.84275 0.0
C920 C 0.87455 0.63692 0.85255 0.0
N921 N 0.87119 0.61695 0.81912 0.0
C922 C 0.89267 0.6144 0.82367 0.0
C923 C 0.86197 0.62788 0.83331 0.0
C924 C 0.8966 0.63457 0.85725 0.0
C925 C 0.78851 0.55353 0.74151 0.0
N926 N 0.80776 0.54678 0.74277 0.0
C927 C 0.76182 0.53403 0.74092 0.0
C928 C 0.75489 0.50746 0.7416 0.0
C929 C 0.77464 0.50073 0.74286 0.0
C930 C 0.80113 0.52077 0.74347 0.0
C931 C 0.84651 0.53829 0.68838 0.0
C932 C 0.87537 0.55438 0.72505 0.0
C933 C 0.83975 0.55008 0.70436 0.0
N934 N 0.85403 0.55778 0.72246 0.0
C935 C 0.88272 0.54266 0.7094 0.0
C936 C 0.86813 0.53455 0.69097 0.0
C937 C 0.89701 0.61788 0.76047 0.0
C938 C 0.83011 0.6597 0.7782 0.0
C939 C 0.87625 0.66081 0.79012 0.0
C940 C 0.87663 0.68456 0.78634 0.0
C941 C 0.85337 0.68395 0.78032 0.0
N942 N 0.85335 0.63711 0.78803 0.0
C943 C 0.83047 0.63635 0.78215 0.0
Co944 Co 0.41743 0.26931 0.74378 0.0
Co945 Co 0.38741 0.24745 0.79184 0.0
O946 O 0.40026 0.24219 0.76519 0.0
C947 C 0.37159 0.22586 0.72292 0.0
O948 O 0.35778 0.22553 0.7392 0.0
C949 C 0.42493 0.22976 0.80257 0.0
O950 O 0.44082 0.24673 0.78861 0.0
O951 O 0.42114 0.28077 0.79688 0.0
O952 O 0.43857 0.29666 0.76523 0.0
H953 H 0.37113 0.29935 0.84651 0.0
H954 H 0.41757 0.21874 0.73992 0.0
O955 O 0.39631 0.24241 0.72199 0.0
H956 H 0.51158 0.28821 0.74267 0.0
H957 H 0.46013 0.30324 0.67374 0.0
H958 H 0.43119 0.32534 0.73924 0.0
H959 H 0.47644 0.29993 0.74398 0.0
H960 H 0.43911 0.26985 0.70158 0.0
O961 O 0.40234 0.22734 0.80608 0.0
H962 H 0.38686 0.29257 0.8126 0.0
H963 H 0.36131 0.21272 0.82857 0.0
H964 H 0.45232 0.3594 0.7119 0.0
H965 H 0.45207 0.20615 0.7384 0.0
H966 H 0.46695 0.34842 0.67887 0.0
H967 H 0.49946 0.24102 0.73985 0.0
O968 O 0.38939 0.27899 0.74566 0.0
H969 H 0.33185 0.1519 0.77141 0.0
H970 H 0.33039 0.23188 0.79416 0.0
H971 H 0.28831 0.19096 0.7869 0.0
H972 H 0.28888 0.1506 0.77544 0.0
H973 H 0.37347 0.1933 0.77869 0.0
H974 H 0.3455 0.21867 0.86273 0.0
H975 H 0.35027 0.26222 0.87184 0.0
O976 O 0.37254 0.2679 0.77808 0.0
C977 C 0.43855 0.29851 0.78507 0.0
C978 C 0.36884 0.28025 0.84269 0.0
C979 C 0.35448 0.23498 0.8518 0.0
N980 N 0.37474 0.25221 0.81854 0.0
C981 C 0.37762 0.27628 0.82348 0.0
C982 C 0.36351 0.23174 0.83245 0.0
C983 C 0.35716 0.25942 0.8569 0.0
C984 C 0.43815 0.23404 0.74033 0.0
N985 N 0.44498 0.26004 0.74192 0.0
C986 C 0.4576 0.22678 0.73956 0.0
C987 C 0.48419 0.24636 0.74041 0.0
C988 C 0.491 0.27284 0.74201 0.0
C989 C 0.47101 0.27935 0.74278 0.0
C990 C 0.45391 0.30829 0.68809 0.0
C991 C 0.4377 0.32049 0.72497 0.0
C992 C 0.44197 0.28946 0.70389 0.0
N993 N 0.43422 0.29575 0.72209 0.0
C994 C 0.44956 0.33982 0.70952 0.0
C995 C 0.45774 0.33364 0.69098 0.0
C996 C 0.37418 0.27831 0.76023 0.0
C997 C 0.33134 0.16934 0.77645 0.0
C998 C 0.33079 0.2144 0.78917 0.0
C999 C 0.3069 0.19128 0.78511 0.0
C1000 C 0.30724 0.16863 0.77869 0.0
N1001 N 0.35435 0.21492 0.78696 0.0
C1002 C 0.35483 0.1928 0.78069 0.0
Co1003 Co 0.72157 0.14698 0.745 0.0
Co1004 Co 0.74605 0.13786 0.79152 0.0
O1005 O 0.74964 0.15662 0.76545 0.0
C1006 C 0.76368 0.14366 0.72273 0.0
O1007 O 0.76478 0.13067 0.73905 0.0
C1008 C 0.76074 0.19198 0.80354 0.0
O1009 O 0.74328 0.19023 0.7898 0.0
O1010 O 0.71144 0.13518 0.79768 0.0
O1011 O 0.69581 0.1419 0.76752 0.0
H1012 H 0.69907 0.06597 0.8448 0.0
H1013 H 0.77272 0.19691 0.74007 0.0
O1014 O 0.7471 0.1518 0.72222 0.0
H1015 H 0.70517 0.22386 0.74507 0.0
H1016 H 0.68473 0.15567 0.67635 0.0
H1017 H 0.66479 0.10609 0.7425 0.0
H1018 H 0.69229 0.17666 0.74621 0.0
H1019 H 0.71948 0.1676 0.70293 0.0
O1020 O 0.76452 0.17254 0.80654 0.0
H1021 H 0.7035 0.08939 0.81169 0.0
H1022 H 0.78209 0.14767 0.82751 0.0
H1023 H 0.62939 0.09361 0.71643 0.0
H1024 H 0.78647 0.24432 0.73871 0.0
H1025 H 0.63928 0.11849 0.68308 0.0
H1026 H 0.75258 0.25805 0.74129 0.0
O1027 O 0.71088 0.10881 0.74683 0.0
H1028 H 0.84146 0.18436 0.76943 0.0
H1029 H 0.76537 0.09928 0.79158 0.0
H1030 H 0.80763 0.10156 0.7828 0.0
H1031 H 0.84604 0.14434 0.77162 0.0
H1032 H 0.7988 0.18115 0.77823 0.0
H1033 H 0.77846 0.12501 0.86088 0.0
H1034 H 0.73674 0.08379 0.86967 0.0
O1035 O 0.72723 0.10312 0.77696 0.0
C1036 C 0.69395 0.13702 0.78705 0.0
C1037 C 0.71737 0.08387 0.84113 0.0
C1038 C 0.76192 0.11702 0.85016 0.0
N1039 N 0.74308 0.11975 0.81761 0.0
C1040 C 0.72002 0.09717 0.82238 0.0
C1041 C 0.76384 0.1298 0.83127 0.0
C1042 C 0.73851 0.09389 0.85508 0.0
C1043 C 0.75784 0.20272 0.741 0.0
N1044 N 0.73173 0.18404 0.74314 0.0
C1045 C 0.76575 0.2296 0.7403 0.0
C1046 C 0.74672 0.23729 0.74179 0.0
C1047 C 0.72013 0.21812 0.74392 0.0
C1048 C 0.71295 0.19143 0.7446 0.0
C1049 C 0.68016 0.14471 0.69084 0.0
C1050 C 0.66919 0.11711 0.72808 0.0
C1051 C 0.69976 0.15134 0.70592 0.0
N1052 N 0.69409 0.13768 0.72431 0.0
C1053 C 0.64909 0.1099 0.71335 0.0
C1054 C 0.65466 0.12385 0.69463 0.0
C1055 C 0.71415 0.09434 0.76007 0.0
C1056 C 0.8249 0.16563 0.77435 0.0
C1057 C 0.78201 0.11796 0.78675 0.0
C1058 C 0.80589 0.11914 0.78181 0.0
C1059 C 0.82744 0.14315 0.77555 0.0
N1060 N 0.77969 0.1401 0.78555 0.0
C1061 C 0.80073 0.16372 0.77944 0.0
Co1062 Co 0.41714 0.14577 0.24362 0.0
Co1063 Co 0.38671 0.1385 0.29136 0.0
O1064 O 0.39978 0.15613 0.26455 0.0
C1065 C 0.37167 0.14329 0.22199 0.0
O1066 O 0.35749 0.12991 0.23816 0.0
C1067 C 0.424 0.19393 0.30166 0.0
O1068 O 0.44003 0.19275 0.2879 0.0
O1069 O 0.42045 0.13916 0.29695 0.0
O1070 O 0.43801 0.13987 0.26553 0.0
H1071 H 0.37009 0.07137 0.34711 0.0
H1072 H 0.41747 0.19648 0.2388 0.0
O1073 O 0.39636 0.1513 0.22139 0.0
H1074 H 0.51138 0.22088 0.24258 0.0
H1075 H 0.46058 0.15332 0.17414 0.0
H1076 H 0.43084 0.10336 0.24012 0.0
H1077 H 0.47614 0.17406 0.24425 0.0
H1078 H 0.43932 0.16621 0.20139 0.0
O1079 O 0.40139 0.17378 0.30516 0.0
H1080 H 0.3861 0.09328 0.31301 0.0
H1081 H 0.36016 0.14767 0.32748 0.0
H1082 H 0.4522 0.08991 0.21338 0.0
H1083 H 0.45208 0.24352 0.2369 0.0
H1084 H 0.46724 0.11499 0.1801 0.0
H1085 H 0.49942 0.25598 0.23886 0.0
O1086 O 0.38902 0.10806 0.24577 0.0
H1087 H 0.33111 0.1778 0.26921 0.0
H1088 H 0.32971 0.09694 0.29359 0.0
H1089 H 0.28763 0.09547 0.28568 0.0
H1090 H 0.28817 0.13612 0.27339 0.0
H1091 H 0.37273 0.17833 0.27716 0.0
H1092 H 0.34407 0.12649 0.36182 0.0
H1093 H 0.3489 0.08798 0.37178 0.0
O1094 O 0.37208 0.10296 0.27809 0.0
C1095 C 0.4379 0.13851 0.28541 0.0
C1096 C 0.36778 0.08806 0.34292 0.0
C1097 C 0.3532 0.11902 0.35118 0.0
N1098 N 0.3738 0.12154 0.31819 0.0
C1099 C 0.37672 0.10049 0.3236 0.0
C1100 C 0.36238 0.13096 0.33174 0.0
C1101 C 0.35591 0.09742 0.35676 0.0
C1102 C 0.43803 0.20173 0.23944 0.0
N1103 N 0.44478 0.18254 0.24152 0.0
C1104 C 0.45754 0.2284 0.23845 0.0
C1105 C 0.4841 0.23538 0.23959 0.0
C1106 C 0.49082 0.2157 0.24169 0.0
C1107 C 0.47078 0.18923 0.24267 0.0
C1108 C 0.45419 0.14229 0.1886 0.0
C1109 C 0.43752 0.11448 0.22574 0.0
C1110 C 0.44211 0.14947 0.20406 0.0
N1111 N 0.43413 0.13572 0.22241 0.0
C1112 C 0.44952 0.10672 0.21063 0.0
C1113 C 0.45792 0.12078 0.19196 0.0
C1114 C 0.3738 0.0938 0.26045 0.0
C1115 C 0.33061 0.15998 0.27461 0.0
C1116 C 0.3301 0.1147 0.28824 0.0
C1117 C 0.30621 0.11376 0.28381 0.0
C1118 C 0.30653 0.13658 0.27693 0.0
N1119 N 0.35364 0.13774 0.28595 0.0
C1120 C 0.35411 0.16019 0.27923 0.0
Co1121 Co 0.84583 0.26948 0.24347 0.0
Co1122 Co 0.85312 0.24718 0.29163 0.0
O1123 O 0.83546 0.24219 0.2648 0.0
C1124 C 0.84852 0.22612 0.22272 0.0
O1125 O 0.86167 0.2256 0.23916 0.0
C1126 C 0.798 0.23034 0.30186 0.0
O1127 O 0.79962 0.24738 0.28774 0.0
O1128 O 0.85309 0.2807 0.29657 0.0
O1129 O 0.85157 0.29665 0.26495 0.0
H1130 H 0.92084 0.2984 0.34678 0.0
H1131 H 0.79522 0.21889 0.2391 0.0
O1132 O 0.84049 0.24276 0.22167 0.0
H1133 H 0.77051 0.28824 0.2414 0.0
H1134 H 0.83836 0.3039 0.17328 0.0
H1135 H 0.88814 0.32557 0.23938 0.0
H1136 H 0.81738 0.30003 0.24322 0.0
H1137 H 0.82549 0.2703 0.20101 0.0
O1138 O 0.81782 0.22741 0.3056 0.0
H1139 H 0.89885 0.29194 0.31266 0.0
H1140 H 0.84354 0.21227 0.32841 0.0
H1141 H 0.90157 0.35984 0.21215 0.0
H1142 H 0.74813 0.20624 0.23707 0.0
H1143 H 0.87659 0.34907 0.17882 0.0
H1144 H 0.73552 0.24104 0.23829 0.0
O1145 O 0.88356 0.27923 0.24583 0.0
H1146 H 0.8124 0.15159 0.27113 0.0
H1147 H 0.89405 0.23097 0.29442 0.0
H1148 H 0.89476 0.1898 0.28731 0.0
H1149 H 0.85372 0.14973 0.27558 0.0
H1150 H 0.81262 0.19324 0.27828 0.0
H1151 H 0.86478 0.21792 0.36277 0.0
H1152 H 0.90379 0.2612 0.3721 0.0
O1153 O 0.88864 0.26734 0.27814 0.0
C1154 C 0.85338 0.29843 0.28479 0.0
C1155 C 0.90392 0.27941 0.34286 0.0
C1156 C 0.87244 0.23425 0.35185 0.0
N1157 N 0.87013 0.25168 0.31848 0.0
C1158 C 0.89145 0.27561 0.32355 0.0
C1159 C 0.86047 0.23118 0.33239 0.0
C1160 C 0.89433 0.25854 0.35707 0.0
C1161 C 0.7899 0.23417 0.23941 0.0
N1162 N 0.80903 0.26017 0.24116 0.0
C1163 C 0.7632 0.22688 0.23835 0.0
C1164 C 0.75614 0.24641 0.23907 0.0
C1165 C 0.77576 0.27289 0.24083 0.0
C1166 C 0.80226 0.27945 0.24189 0.0
C1167 C 0.84935 0.30885 0.18776 0.0
C1168 C 0.87706 0.32081 0.22498 0.0
C1169 C 0.84218 0.28991 0.2035 0.0
N1170 N 0.85588 0.29608 0.22187 0.0
C1171 C 0.88481 0.34026 0.20959 0.0
C1172 C 0.8708 0.3342 0.19088 0.0
C1173 C 0.89779 0.27815 0.26047 0.0
C1174 C 0.83039 0.1689 0.2763 0.0
C1175 C 0.87612 0.21362 0.28931 0.0
C1176 C 0.87663 0.19035 0.28534 0.0
C1177 C 0.85359 0.16788 0.27877 0.0
N1178 N 0.85327 0.21445 0.28687 0.0
C1179 C 0.8306 0.19249 0.28045 0.0
Co1180 Co 0.7228 0.57371 0.24609 0.0
Co1181 Co 0.7465 0.6077 0.29253 0.0
O1182 O 0.75059 0.59254 0.26666 0.0
C1183 C 0.76474 0.61929 0.22381 0.0
O1184 O 0.76557 0.63337 0.24004 0.0
C1185 C 0.76169 0.56882 0.30506 0.0
O1186 O 0.74434 0.55286 0.29137 0.0
O1187 O 0.71201 0.57555 0.29862 0.0
O1188 O 0.69691 0.55294 0.26853 0.0
H1189 H 0.69833 0.63213 0.345 0.0
H1190 H 0.77433 0.57562 0.24171 0.0
O1191 O 0.74843 0.5945 0.22338 0.0
H1192 H 0.7076 0.48086 0.24697 0.0
H1193 H 0.68702 0.52748 0.17752 0.0
H1194 H 0.66588 0.55712 0.2431 0.0
H1195 H 0.69413 0.51474 0.24761 0.0
H1196 H 0.72143 0.55083 0.20424 0.0
O1197 O 0.76516 0.59195 0.3079 0.0
H1198 H 0.7034 0.61317 0.31212 0.0
H1199 H 0.78203 0.63441 0.32868 0.0
H1200 H 0.63081 0.53366 0.21687 0.0
H1201 H 0.78866 0.54239 0.24084 0.0
H1202 H 0.64131 0.51867 0.18381 0.0
H1203 H 0.75518 0.49463 0.24356 0.0
O1204 O 0.71166 0.60085 0.24749 0.0
H1205 H 0.84213 0.65749 0.27108 0.0
H1206 H 0.76518 0.66549 0.29224 0.0
H1207 H 0.80728 0.70573 0.28357 0.0
H1208 H 0.84612 0.70186 0.27289 0.0
H1209 H 0.79961 0.61776 0.27975 0.0
H1210 H 0.77777 0.65344 0.36182 0.0
H1211 H 0.7357 0.65246 0.37012 0.0
O1212 O 0.7275 0.62319 0.27757 0.0
C1213 C 0.69477 0.55606 0.28799 0.0
C1214 C 0.71678 0.63275 0.34154 0.0
C1215 C 0.76135 0.64468 0.35099 0.0
N1216 N 0.74303 0.62285 0.31843 0.0
C1217 C 0.71979 0.6221 0.32292 0.0
C1218 C 0.76363 0.63383 0.33222 0.0
C1219 C 0.73775 0.64413 0.35563 0.0
C1220 C 0.75962 0.55486 0.24269 0.0
N1221 N 0.73342 0.54712 0.24463 0.0
C1222 C 0.76786 0.53614 0.24227 0.0
C1223 C 0.74907 0.50935 0.24383 0.0
C1224 C 0.72237 0.50161 0.24576 0.0
C1225 C 0.71487 0.52088 0.24616 0.0
C1226 C 0.68219 0.53387 0.19188 0.0
C1227 C 0.67054 0.5505 0.2288 0.0
C1228 C 0.7016 0.54713 0.20705 0.0
N1229 N 0.69559 0.55511 0.22527 0.0
C1230 C 0.65063 0.5373 0.21398 0.0
C1231 C 0.65654 0.52892 0.19542 0.0
C1232 C 0.7146 0.61863 0.26055 0.0
C1233 C 0.82537 0.65944 0.27578 0.0
C1234 C 0.782 0.66366 0.28762 0.0
C1235 C 0.80579 0.68651 0.28275 0.0
C1236 C 0.82759 0.68432 0.27677 0.0
N1237 N 0.78 0.63932 0.28663 0.0
C1238 C 0.80128 0.63702 0.2808 0.0
Co1239 Co 0.47691 0.0855 0.91683 0.0
Co1240 Co 0.46955 0.05374 0.86984 0.0
O1241 O 0.48754 0.06815 0.8962 0.0
C1242 C 0.47567 0.04104 0.93897 0.0
O1243 O 0.46212 0.02658 0.92298 0.0
C1244 C 0.52402 0.09215 0.85731 0.0
O1245 O 0.52159 0.10997 0.86803 0.0
O1246 O 0.46908 0.08682 0.86345 0.0
O1247 O 0.46999 0.10519 0.89456 0.0
H1248 H 0.40133 0.03346 0.81423 0.0
H1249 H 0.52838 0.08729 0.92116 0.0
O1250 O 0.48343 0.06569 0.93936 0.0
H1251 H 0.55046 0.18045 0.91602 0.0
H1252 H 0.48468 0.1305 0.98555 0.0
H1253 H 0.43374 0.09813 0.92024 0.0
H1254 H 0.50395 0.14439 0.9152 0.0
H1255 H 0.49774 0.10902 0.95862 0.0
O1256 O 0.50489 0.06843 0.8561 0.0
H1257 H 0.4235 0.05113 0.84799 0.0
H1258 H 0.47917 0.02652 0.83448 0.0
H1259 H 0.4201 0.11968 0.94667 0.0
H1260 H 0.57515 0.12274 0.92218 0.0
H1261 H 0.44566 0.13604 0.9796 0.0
H1262 H 0.58643 0.16971 0.91957 0.0
O1263 O 0.4394 0.05675 0.91531 0.0
H1264 H 0.51083 0.00052 0.89365 0.0
H1265 H 0.42885 0.99641 0.86888 0.0
H1266 H 0.42841 0.95509 0.87788 0.0
H1267 H 0.46962 0.957 0.89036 0.0
H1268 H 0.51034 0.04136 0.88465 0.0
H1269 H 0.45773 0.00876 0.80049 0.0
H1270 H 0.41846 0.01209 0.79023 0.0
O1271 O 0.43409 0.03896 0.88331 0.0
C1272 C 0.46812 0.10436 0.8747 0.0
C1273 C 0.41837 0.0318 0.81856 0.0
C1274 C 0.45005 0.01797 0.81084 0.0
N1275 N 0.45242 0.0396 0.84327 0.0
C1276 C 0.43095 0.04169 0.83768 0.0
C1277 C 0.46212 0.02809 0.83008 0.0
C1278 C 0.42801 0.01984 0.80509 0.0
C1279 C 0.53313 0.1077 0.92019 0.0
N1280 N 0.51346 0.11378 0.91826 0.0
C1281 C 0.55965 0.12768 0.9207 0.0
C1282 C 0.56597 0.15402 0.9192 0.0
C1283 C 0.54579 0.16007 0.91721 0.0
C1284 C 0.5195 0.13957 0.91672 0.0
C1285 C 0.47343 0.12352 0.97124 0.0
C1286 C 0.44507 0.10539 0.93447 0.0
C1287 C 0.48071 0.11132 0.95595 0.0
N1288 N 0.46668 0.10261 0.9378 0.0
C1289 C 0.4372 0.11748 0.9494 0.0
C1290 C 0.45154 0.12663 0.96789 0.0
C1291 C 0.42508 0.04098 0.90093 0.0
C1292 C 0.49277 -0.00057 0.88817 0.0
C1293 C 0.44685 -0.0026 0.87431 0.0
C1294 C 0.4465 0.97394 0.87936 0.0
C1295 C 0.46963 0.97502 0.88635 0.0
N1296 N 0.46964 0.02126 0.87612 0.0
C1297 C 0.4924 0.02248 0.88295 0.0
Co1298 Co 0.9057 0.39056 0.91677 0.0
Co1299 Co 0.93521 0.41246 0.86854 0.0
O1300 O 0.92206 0.4175 0.89512 0.0
C1301 C 0.95102 0.43506 0.93721 0.0
O1302 O 0.96489 0.43571 0.92087 0.0
C1303 C 0.89597 0.42777 0.85756 0.0
O1304 O 0.88063 0.41069 0.87169 0.0
O1305 O 0.90219 0.37831 0.86382 0.0
O1306 O 0.88491 0.36272 0.89557 0.0
H1307 H 0.95402 0.36158 0.81459 0.0
H1308 H 0.90401 0.44037 0.9202 0.0
O1309 O 0.92647 0.41796 0.93831 0.0
H1310 H 0.81072 0.36905 0.9181 0.0
H1311 H 0.86395 0.35676 0.9871 0.0
H1312 H 0.89349 0.33505 0.92174 0.0
H1313 H 0.84674 0.35858 0.91691 0.0
H1314 H 0.88406 0.38992 0.959 0.0
O1315 O 0.91895 0.43118 0.85404 0.0
H1316 H 0.93778 0.36808 0.84837 0.0
H1317 H 0.96 0.44687 0.83141 0.0
H1318 H 0.87328 0.30122 0.94935 0.0
H1319 H 0.86861 0.45171 0.92158 0.0
H1320 H 0.85835 0.312 0.98232 0.0
H1321 H 0.82157 0.41591 0.92045 0.0
O1322 O 0.93447 0.38186 0.91491 0.0
H1323 H 0.98785 0.50865 0.88788 0.0
H1324 H 0.99276 0.43018 0.86609 0.0
H1325 H 0.03397 0.47216 0.87291 0.0
H1326 H 0.03166 0.51177 0.88388 0.0
H1327 H 0.94713 0.46622 0.88106 0.0
H1328 H 0.97629 0.44117 0.79737 0.0
H1329 H 0.97345 0.39831 0.78883 0.0
O1330 O 0.9514 0.39343 0.88256 0.0
C1331 C 0.88503 0.36054 0.87577 0.0
C1332 C 0.95546 0.38038 0.81817 0.0
C1333 C 0.96792 0.42504 0.80849 0.0
N1334 N 0.9482 0.4079 0.84192 0.0
C1335 C 0.94637 0.3842 0.83728 0.0
C1336 C 0.95864 0.42814 0.82776 0.0
C1337 C 0.96633 0.40099 0.80371 0.0
C1338 C 0.88359 0.42467 0.91994 0.0
N1339 N 0.87745 0.39885 0.9186 0.0
C1340 C 0.86363 0.43122 0.92063 0.0
C1341 C 0.83724 0.41112 0.91996 0.0
C1342 C 0.83114 0.38483 0.91862 0.0
C1343 C 0.85162 0.37902 0.91792 0.0
C1344 C 0.8703 0.3518 0.97278 0.0
C1345 C 0.88685 0.33981 0.93598 0.0
C1346 C 0.88173 0.3705 0.95684 0.0
N1347 N 0.88966 0.3643 0.93867 0.0
C1348 C 0.87551 0.32061 0.95158 0.0
C1349 C 0.86716 0.32669 0.97009 0.0
C1350 C 0.95005 0.38315 0.90042 0.0
C1351 C 0.98912 0.49154 0.88305 0.0
C1352 C 0.99159 0.44732 0.87088 0.0
C1353 C 0.015 0.47105 0.87468 0.0
C1354 C 0.01369 0.49327 0.88083 0.0
N1355 N 0.96757 0.4458 0.87307 0.0
C1356 C 0.96613 0.4675 0.87907 0.0
Co1357 Co 0.60078 0.5131 0.91738 0.0
Co1358 Co 0.57838 0.5211 0.86951 0.0
O1359 O 0.57349 0.50298 0.89611 0.0
C1360 C 0.55727 0.51523 0.93839 0.0
O1361 O 0.55672 0.52858 0.9221 0.0
C1362 C 0.56196 0.46624 0.85868 0.0
O1363 O 0.57912 0.46784 0.87266 0.0
O1364 O 0.61205 0.52147 0.86433 0.0
O1365 O 0.628 0.51932 0.89579 0.0
H1366 H 0.62925 0.58995 0.81494 0.0
H1367 H 0.5503 0.4623 0.92144 0.0
O1368 O 0.57399 0.50729 0.93929 0.0
H1369 H 0.61992 0.43802 0.91836 0.0
H1370 H 0.63525 0.50464 0.98723 0.0
H1371 H 0.65681 0.55549 0.92163 0.0
H1372 H 0.63153 0.48486 0.91705 0.0
H1373 H 0.60165 0.49212 0.95958 0.0
O1374 O 0.55883 0.486 0.8552 0.0
H1375 H 0.62293 0.5674 0.84879 0.0
H1376 H 0.54343 0.51189 0.83286 0.0
H1377 H 0.69107 0.56858 0.94879 0.0
H1378 H 0.53783 0.41524 0.92295 0.0
H1379 H 0.68037 0.54306 0.98187 0.0
H1380 H 0.57277 0.40284 0.92133 0.0
O1381 O 0.61037 0.55082 0.91545 0.0
H1382 H 0.48272 0.47934 0.89017 0.0
H1383 H 0.56172 0.56174 0.8674 0.0
H1384 H 0.52036 0.56195 0.87485 0.0
H1385 H 0.48048 0.52053 0.88632 0.0
H1386 H 0.52454 0.48006 0.88269 0.0
H1387 H 0.54893 0.53369 0.79875 0.0
H1388 H 0.59206 0.57308 0.78965 0.0
O1389 O 0.5983 0.55642 0.88335 0.0
C1390 C 0.6298 0.52157 0.87597 0.0
C1391 C 0.61032 0.57287 0.81875 0.0
C1392 C 0.56526 0.54127 0.80966 0.0
N1393 N 0.58276 0.53855 0.84286 0.0
C1394 C 0.60661 0.56008 0.83792 0.0
C1395 C 0.56227 0.52899 0.82897 0.0
C1396 C 0.58946 0.56337 0.80456 0.0
C1397 C 0.56564 0.45708 0.92096 0.0
N1398 N 0.59161 0.47631 0.91928 0.0
C1399 C 0.55845 0.43039 0.92172 0.0
C1400 C 0.57806 0.42345 0.92078 0.0
C1401 C 0.60452 0.44318 0.9191 0.0
C1402 C 0.61097 0.46966 0.91833 0.0
C1403 C 0.64018 0.51587 0.97286 0.0
C1404 C 0.65208 0.54417 0.93592 0.0
C1405 C 0.62123 0.50889 0.95716 0.0
N1406 N 0.62738 0.52289 0.93893 0.0
C1407 C 0.67152 0.55173 0.95127 0.0
C1408 C 0.66549 0.53742 0.96984 0.0
C1409 C 0.60913 0.56527 0.90107 0.0
C1410 C 0.49994 0.49749 0.88512 0.0
C1411 C 0.54445 0.54364 0.8724 0.0
C1412 C 0.52108 0.54387 0.87656 0.0
C1413 C 0.49871 0.52062 0.88299 0.0
N1414 N 0.54549 0.52087 0.87451 0.0
C1415 C 0.52363 0.49799 0.88077 0.0
Co1416 Co 0.57096 0.8478 0.75091 0.0
Co1417 Co 0.60097 0.85417 0.70309 0.0
O1418 O 0.5881 0.83704 0.73009 0.0
C1419 C 0.61672 0.85082 0.7724 0.0
O1420 O 0.63061 0.86387 0.756 0.0
C1421 C 0.56332 0.79861 0.69348 0.0
O1422 O 0.54754 0.80018 0.70727 0.0
O1423 O 0.56728 0.85362 0.69754 0.0
O1424 O 0.54985 0.85324 0.72895 0.0
H1425 H 0.61733 0.92037 0.6466 0.0
H1426 H 0.57073 0.79721 0.75634 0.0
O1427 O 0.59202 0.84274 0.77317 0.0
H1428 H 0.47676 0.77267 0.7529 0.0
H1429 H 0.52828 0.8416 0.82051 0.0
H1430 H 0.55725 0.89023 0.75391 0.0
H1431 H 0.51195 0.81946 0.75067 0.0
H1432 H 0.54928 0.82821 0.79341 0.0
O1433 O 0.58594 0.81862 0.68969 0.0
H1434 H 0.60159 0.8991 0.68095 0.0
H1435 H 0.62701 0.84417 0.66705 0.0
H1436 H 0.53614 0.90418 0.78049 0.0
H1437 H 0.53617 0.75019 0.75878 0.0
H1438 H 0.52149 0.87977 0.81408 0.0
H1439 H 0.4888 0.73767 0.75699 0.0
O1440 O 0.59906 0.88545 0.74828 0.0
H1441 H 0.65638 0.81482 0.72562 0.0
H1442 H 0.65802 0.89547 0.70036 0.0
H1443 H 0.70005 0.89683 0.70823 0.0
H1444 H 0.69939 0.85629 0.72096 0.0
H1445 H 0.6148 0.81439 0.71769 0.0
H1446 H 0.64283 0.86469 0.63247 0.0
H1447 H 0.63812 0.90315 0.62209 0.0
O1448 O 0.61591 0.88999 0.71597 0.0
C1449 C 0.54987 0.85437 0.70907 0.0
C1450 C 0.61959 0.9037 0.65097 0.0
C1451 C 0.63387 0.87242 0.64303 0.0
N1452 N 0.61365 0.87062 0.67606 0.0
C1453 C 0.6108 0.89164 0.67042 0.0
C1454 C 0.62485 0.86087 0.66261 0.0
C1455 C 0.63123 0.894 0.63722 0.0
C1456 C 0.55015 0.79193 0.75577 0.0
N1457 N 0.54337 0.81106 0.75348 0.0
C1458 C 0.53067 0.76527 0.75707 0.0
C1459 C 0.5041 0.75825 0.75603 0.0
C1460 C 0.49733 0.77788 0.75371 0.0
C1461 C 0.51735 0.80434 0.75243 0.0
C1462 C 0.5345 0.85234 0.80591 0.0
C1463 C 0.55074 0.8794 0.76842 0.0
C1464 C 0.54643 0.84487 0.79053 0.0
N1465 N 0.5542 0.85826 0.77202 0.0
C1466 C 0.53889 0.88744 0.78344 0.0
C1467 C 0.5307 0.87376 0.80229 0.0
C1468 C 0.61428 0.89943 0.7335 0.0
C1469 C 0.65693 0.83259 0.72002 0.0
C1470 C 0.65757 0.87775 0.7059 0.0
C1471 C 0.68144 0.87863 0.71031 0.0
C1472 C 0.68105 0.85588 0.71743 0.0
N1473 N 0.63399 0.85483 0.70846 0.0
C1474 C 0.63346 0.83243 0.71542 0.0
Co1475 Co 0.14457 0.72254 0.75188 0.0
Co1476 Co 0.13635 0.74364 0.7035 0.0
O1477 O 0.15461 0.74926 0.73011 0.0
C1478 C 0.14256 0.76653 0.77206 0.0
O1479 O 0.12922 0.76679 0.75567 0.0
C1480 C 0.1912 0.76003 0.69259 0.0
O1481 O 0.18989 0.74332 0.70688 0.0
O1482 O 0.13609 0.70989 0.69899 0.0
O1483 O 0.13822 0.69477 0.73083 0.0
H1484 H 0.06721 0.69122 0.64958 0.0
H1485 H 0.19542 0.77307 0.75521 0.0
O1486 O 0.15051 0.74985 0.77328 0.0
H1487 H 0.21957 0.7033 0.75368 0.0
H1488 H 0.15332 0.68984 0.82246 0.0
H1489 H 0.10212 0.66667 0.75701 0.0
H1490 H 0.17275 0.69172 0.75234 0.0
H1491 H 0.16578 0.72271 0.7942 0.0
O1492 O 0.17131 0.7629 0.68899 0.0
H1493 H 0.08999 0.69847 0.68342 0.0
H1494 H 0.14524 0.77759 0.66619 0.0
H1495 H 0.08909 0.63312 0.78479 0.0
H1496 H 0.24248 0.78552 0.75673 0.0
H1497 H 0.11478 0.64465 0.8178 0.0
H1498 H 0.25481 0.7505 0.75589 0.0
O1499 O 0.10685 0.71295 0.74993 0.0
H1500 H 0.17799 0.83981 0.7224 0.0
H1501 H 0.09557 0.76008 0.7008 0.0
H1502 H 0.09529 0.80159 0.70735 0.0
H1503 H 0.13672 0.84183 0.71823 0.0
H1504 H 0.17734 0.79785 0.71583 0.0
H1505 H 0.12321 0.77114 0.6321 0.0
H1506 H 0.08383 0.72773 0.62365 0.0
O1507 O 0.10113 0.72403 0.71751 0.0
C1508 C 0.13598 0.69245 0.71103 0.0
C1509 C 0.08429 0.71025 0.65311 0.0
C1510 C 0.11574 0.7551 0.64329 0.0
N1511 N 0.11874 0.7385 0.67684 0.0
C1512 C 0.09721 0.7145 0.67226 0.0
C1513 C 0.12816 0.75862 0.6626 0.0
C1514 C 0.09364 0.73074 0.63856 0.0
C1515 C 0.20062 0.75771 0.75507 0.0
N1516 N 0.18136 0.7317 0.75381 0.0
C1517 C 0.2273 0.76488 0.75584 0.0
C1518 C 0.23421 0.74522 0.75533 0.0
C1519 C 0.21445 0.71874 0.75407 0.0
C1520 C 0.18797 0.7123 0.75329 0.0
C1521 C 0.14202 0.68456 0.80812 0.0
C1522 C 0.11351 0.67175 0.77127 0.0
C1523 C 0.14896 0.70309 0.79208 0.0
N1524 N 0.13486 0.6965 0.7739 0.0
C1525 C 0.10599 0.65271 0.78697 0.0
C1526 C 0.12039 0.6592 0.80549 0.0
C1527 C 0.09235 0.71376 0.7354 0.0
C1528 C 0.15983 0.82243 0.71761 0.0
C1529 C 0.11368 0.77751 0.70554 0.0
C1530 C 0.1134 0.80096 0.7092 0.0
C1531 C 0.13666 0.82354 0.7153 0.0
N1532 N 0.13649 0.7766 0.70782 0.0
C1533 C 0.15938 0.79865 0.71378 0.0
Co1534 Co 0.26705 0.41905 0.74755 0.0
Co1535 Co 0.24179 0.38378 0.7019 0.0
O1536 O 0.23877 0.40005 0.72746 0.0
C1537 C 0.22534 0.37431 0.77061 0.0
O1538 O 0.22436 0.35988 0.75459 0.0
C1539 C 0.22732 0.42278 0.68773 0.0
O1540 O 0.24745 0.44042 0.69864 0.0
O1541 O 0.27621 0.41564 0.69481 0.0
O1542 O 0.29253 0.43878 0.7246 0.0
H1543 H 0.28757 0.3573 0.64877 0.0
H1544 H 0.21604 0.41818 0.75208 0.0
O1545 O 0.24172 0.39912 0.7707 0.0
H1546 H 0.28382 0.51242 0.74526 0.0
H1547 H 0.30474 0.4669 0.81523 0.0
H1548 H 0.32385 0.43496 0.74993 0.0
H1549 H 0.2965 0.47794 0.74502 0.0
H1550 H 0.26968 0.44322 0.78904 0.0
O1551 O 0.22223 0.39887 0.68693 0.0
H1552 H 0.28399 0.37753 0.68148 0.0
H1553 H 0.20469 0.35577 0.66687 0.0
H1554 H 0.35956 0.45872 0.77562 0.0
H1555 H 0.20249 0.45201 0.75256 0.0
H1556 H 0.35008 0.47487 0.80854 0.0
H1557 H 0.23651 0.49952 0.74908 0.0
O1558 O 0.27764 0.39151 0.74649 0.0
H1559 H 0.14713 0.3349 0.72599 0.0
H1560 H 0.22307 0.32602 0.70329 0.0
H1561 H 0.18136 0.28615 0.71334 0.0
H1562 H 0.14303 0.29046 0.7248 0.0
H1563 H 0.18924 0.37426 0.71595 0.0
H1564 H 0.20745 0.33545 0.63392 0.0
H1565 H 0.2491 0.33605 0.62473 0.0
O1566 O 0.26141 0.3688 0.71663 0.0
C1567 C 0.29403 0.43516 0.70511 0.0
C1568 C 0.26929 0.35684 0.65262 0.0
C1569 C 0.22433 0.34461 0.64428 0.0
N1570 N 0.2441 0.36766 0.67614 0.0
C1571 C 0.26713 0.3682 0.67115 0.0
C1572 C 0.2229 0.35619 0.66293 0.0
C1573 C 0.24771 0.34495 0.63913 0.0
C1574 C 0.23097 0.43883 0.75073 0.0
N1575 N 0.25704 0.4461 0.74861 0.0
C1576 C 0.22318 0.45789 0.75094 0.0
C1577 C 0.24227 0.48453 0.74896 0.0
C1578 C 0.26882 0.49179 0.7468 0.0
C1579 C 0.27587 0.47218 0.74663 0.0
C1580 C 0.30913 0.46 0.80093 0.0
C1581 C 0.31963 0.44208 0.76417 0.0
C1582 C 0.28935 0.44655 0.78606 0.0
N1583 N 0.29479 0.43793 0.76792 0.0
C1584 C 0.3399 0.45545 0.77868 0.0
C1585 C 0.33457 0.46448 0.79716 0.0
C1586 C 0.27453 0.37357 0.73354 0.0
C1587 C 0.16366 0.33275 0.72095 0.0
C1588 C 0.20646 0.32804 0.70824 0.0
C1589 C 0.18289 0.3054 0.71389 0.0
C1590 C 0.16139 0.30783 0.72031 0.0
N1591 N 0.20853 0.35242 0.70889 0.0
C1592 C 0.18752 0.35496 0.71515 0.0
Co1593 Co 0.5131 0.90908 0.07941 0.0
Co1594 Co 0.52219 0.94242 0.12603 0.0
O1595 O 0.50328 0.92713 0.10006 0.0
C1596 C 0.51552 0.95427 0.0573 0.0
O1597 O 0.52838 0.96848 0.0736 0.0
C1598 C 0.4685 0.90206 0.13827 0.0
O1599 O 0.47058 0.88671 0.12438 0.0
O1600 O 0.52575 0.91093 0.13191 0.0
O1601 O 0.51872 0.88854 0.10175 0.0
H1602 H 0.59489 0.96848 0.17868 0.0
H1603 H 0.46273 0.90951 0.07492 0.0
O1604 O 0.50776 0.92962 0.0568 0.0
H1605 H 0.43708 0.81531 0.07958 0.0
H1606 H 0.50455 0.86405 0.01056 0.0
H1607 H 0.55458 0.89405 0.07645 0.0
H1608 H 0.48412 0.8501 0.08052 0.0
H1609 H 0.49233 0.88634 0.03739 0.0
O1610 O 0.48763 0.92546 0.14131 0.0
H1611 H 0.57131 0.94935 0.14567 0.0
H1612 H 0.51201 0.96788 0.16236 0.0
H1613 H 0.56736 0.87166 0.05011 0.0
H1614 H 0.41547 0.87536 0.07376 0.0
H1615 H 0.54225 0.85649 0.01689 0.0
H1616 H 0.40239 0.82788 0.07618 0.0
O1617 O 0.55111 0.93694 0.08109 0.0
H1618 H 0.47371 0.98975 0.10507 0.0
H1619 H 0.55985 0.00056 0.12612 0.0
H1620 H 0.55647 0.04005 0.11782 0.0
H1621 H 0.51315 0.03476 0.1072 0.0
H1622 H 0.47802 0.9508 0.11338 0.0
H1623 H 0.53484 0.98703 0.19565 0.0
H1624 H 0.57665 0.9875 0.20394 0.0
O1625 O 0.55681 0.95905 0.11118 0.0
C1626 C 0.52401 0.89171 0.12121 0.0
C1627 C 0.57674 0.96846 0.17522 0.0
C1628 C 0.54301 0.97885 0.18475 0.0
N1629 N 0.54044 0.95768 0.15204 0.0
C1630 C 0.56334 0.95773 0.15653 0.0
C1631 C 0.53015 0.96793 0.16591 0.0
C1632 C 0.56647 0.97911 0.18939 0.0
C1633 C 0.4572 0.88887 0.07577 0.0
N1634 N 0.47615 0.88179 0.07771 0.0
C1635 C 0.43041 0.86963 0.07519 0.0
C1636 C 0.42308 0.843 0.07658 0.0
C1637 C 0.44253 0.83593 0.07851 0.0
C1638 C 0.46913 0.85571 0.07907 0.0
C1639 C 0.5156 0.87052 0.02499 0.0
C1640 C 0.54346 0.88734 0.06208 0.0
C1641 C 0.50881 0.88319 0.04022 0.0
N1642 N 0.5226 0.89127 0.05853 0.0
C1643 C 0.55083 0.87475 0.04721 0.0
C1644 C 0.53675 0.86627 0.02856 0.0
C1645 C 0.56553 0.95487 0.0942 0.0
C1646 C 0.49267 0.99231 0.10974 0.0
C1647 C 0.54093 -0.00189 0.12152 0.0
C1648 C 0.53914 0.02054 0.11686 0.0
C1649 C 0.51482 0.01756 0.11091 0.0
N1650 N 0.51911 0.97342 0.12037 0.0
C1651 C 0.4952 0.97034 0.11455 0.0
Co1652 Co 0.08657 0.60484 0.07627 0.0
Co1653 Co 0.05502 0.58131 0.12362 0.0
O1654 O 0.06872 0.57699 0.09705 0.0
C1655 C 0.04099 0.56237 0.05448 0.0
O1656 O 0.02699 0.56164 0.07075 0.0
C1657 C 0.09257 0.56373 0.13452 0.0
O1658 O 0.10864 0.58094 0.12077 0.0
O1659 O 0.08846 0.6146 0.12949 0.0
O1660 O 0.1074 0.63129 0.09838 0.0
H1661 H 0.03656 0.63118 0.1787 0.0
H1662 H 0.08621 0.55413 0.0714 0.0
O1663 O 0.06575 0.57881 0.05386 0.0
H1664 H 0.18039 0.62276 0.07593 0.0
H1665 H 0.13097 0.64094 0.0071 0.0
H1666 H 0.1011 0.6612 0.07296 0.0
H1667 H 0.14557 0.63492 0.07732 0.0
H1668 H 0.10905 0.60662 0.03416 0.0
O1669 O 0.06983 0.56105 0.1378 0.0
H1670 H 0.05339 0.62558 0.1449 0.0
H1671 H 0.02814 0.54544 0.15962 0.0
H1672 H 0.12312 0.69619 0.0464 0.0
H1673 H 0.1204 0.54111 0.06978 0.0
H1674 H 0.13823 0.68613 0.01319 0.0
H1675 H 0.16787 0.57555 0.07212 0.0
O1676 O 0.05876 0.61487 0.07819 0.0
H1677 H 0.00072 0.48633 0.10135 0.0
H1678 H -0.00218 0.5652 0.12512 0.0
H1679 H 0.95615 0.5243 0.11687 0.0
H1680 H 0.95745 0.48449 0.1049 0.0
H1681 H 0.04192 0.5277 0.10963 0.0
H1682 H 0.01122 0.55022 0.19366 0.0
H1683 H 0.01529 0.59332 0.20335 0.0
O1684 O 0.04028 0.60189 0.10995 0.0
C1685 C 0.10654 0.63253 0.11822 0.0
C1686 C 0.03457 0.61228 0.17463 0.0
C1687 C 0.02039 0.56685 0.18304 0.0
N1688 N 0.04149 0.58514 0.15022 0.0
C1689 C 0.04399 0.60897 0.15549 0.0
C1690 C 0.03003 0.56427 0.16376 0.0
C1691 C 0.02267 0.59103 0.18846 0.0
C1692 C 0.10684 0.56925 0.0722 0.0
N1693 N 0.11389 0.59526 0.07434 0.0
C1694 C 0.1261 0.56175 0.07137 0.0
C1695 C 0.15273 0.58108 0.07272 0.0
C1696 C 0.15977 0.60757 0.07487 0.0
C1697 C 0.13997 0.61434 0.07569 0.0
C1698 C 0.12455 0.64559 0.02154 0.0
C1699 C 0.10781 0.65676 0.05861 0.0
C1700 C 0.1121 0.62623 0.0369 0.0
N1701 N 0.10408 0.63202 0.0552 0.0
C1702 C 0.12018 0.67661 0.04361 0.0
C1703 C 0.12862 0.67094 0.02497 0.0
C1704 C 0.04278 0.6133 0.09243 0.0
C1705 C -0.00011 0.50352 0.10662 0.0
C1706 C -0.00146 0.54796 0.11991 0.0
C1707 C 0.97488 0.52485 0.11529 0.0
C1708 C 0.97562 0.50252 0.10858 0.0
N1709 N 0.02226 0.54878 0.11796 0.0
C1710 C 0.02315 0.52696 0.11141 0.0
Co1711 Co 0.39002 0.47965 0.07972 0.0
Co1712 Co 0.41404 0.4709 0.12661 0.0
O1713 O 0.41792 0.48938 0.10034 0.0
C1714 C 0.43219 0.47598 0.05779 0.0
O1715 O 0.43324 0.46312 0.07422 0.0
C1716 C 0.42903 0.52525 0.13803 0.0
O1717 O 0.41174 0.52352 0.12413 0.0
O1718 O 0.37951 0.46854 0.13246 0.0
O1719 O 0.36411 0.47488 0.10204 0.0
H1720 H 0.36637 0.39988 0.18042 0.0
H1721 H 0.44128 0.52945 0.07474 0.0
O1722 O 0.41566 0.48418 0.05714 0.0
H1723 H 0.3739 0.55671 0.07873 0.0
H1724 H 0.35373 0.48781 0.01063 0.0
H1725 H 0.33323 0.43884 0.07711 0.0
H1726 H 0.36088 0.5095 0.08032 0.0
H1727 H 0.38828 0.49992 0.03742 0.0
O1728 O 0.43258 0.50572 0.14133 0.0
H1729 H 0.37115 0.42288 0.14702 0.0
H1730 H 0.44984 0.48095 0.16281 0.0
H1731 H 0.29802 0.42619 0.05083 0.0
H1732 H 0.45517 0.57687 0.07292 0.0
H1733 H 0.30819 0.45076 0.01731 0.0
H1734 H 0.42136 0.59076 0.075 0.0
O1735 O 0.37927 0.44152 0.08187 0.0
H1736 H 0.5096 0.51661 0.10498 0.0
H1737 H 0.43301 0.43204 0.12737 0.0
H1738 H 0.4752 0.43393 0.11906 0.0
H1739 H 0.51387 0.47645 0.10777 0.0
H1740 H 0.467 0.51379 0.11331 0.0
H1741 H 0.44586 0.45871 0.19647 0.0
H1742 H 0.40391 0.41781 0.20542 0.0
O1743 O 0.39513 0.436 0.11233 0.0
C1744 C 0.36213 0.47029 0.12162 0.0
C1745 C 0.38477 0.41764 0.17667 0.0
C1746 C 0.42937 0.45067 0.18569 0.0
N1747 N 0.4108 0.45309 0.15291 0.0
C1748 C 0.38762 0.4307 0.15776 0.0
C1749 C 0.43149 0.46321 0.16664 0.0
C1750 C 0.40584 0.42772 0.1907 0.0
C1751 C 0.42643 0.53533 0.07545 0.0
N1752 N 0.40029 0.51673 0.07756 0.0
C1753 C 0.43442 0.56221 0.0745 0.0
C1754 C 0.41545 0.57 0.07569 0.0
C1755 C 0.38882 0.5509 0.0778 0.0
C1756 C 0.38156 0.5242 0.07874 0.0
C1757 C 0.34904 0.47699 0.02519 0.0
C1758 C 0.33774 0.44973 0.06262 0.0
C1759 C 0.36852 0.48372 0.0404 0.0
N1760 N 0.36269 0.47023 0.05887 0.0
C1761 C 0.31776 0.44243 0.04777 0.0
C1762 C 0.32349 0.45621 0.02896 0.0
C1763 C 0.38229 0.42714 0.09535 0.0
C1764 C 0.49292 0.49799 0.10995 0.0
C1765 C 0.44976 0.45061 0.12248 0.0
C1766 C 0.4736 0.45157 0.11781 0.0
C1767 C 0.49529 0.47544 0.11149 0.0
N1768 N 0.44761 0.47283 0.12096 0.0
C1769 C 0.46879 0.4963 0.11478 0.0
Co1770 Co 0.08429 0.48063 0.57901 0.0
Co1771 Co 0.05096 0.47126 0.62571 0.0
O1772 O 0.06649 0.49052 0.59987 0.0
C1773 C 0.0395 0.47913 0.55697 0.0
O1774 O 0.02518 0.46645 0.57329 0.0
C1775 C 0.09179 0.52447 0.63851 0.0
O1776 O 0.1071 0.52251 0.62449 0.0
O1777 O 0.0821 0.467 0.63135 0.0
O1778 O 0.10452 0.47433 0.60117 0.0
H1779 H 0.02372 0.39738 0.67749 0.0
H1780 H 0.08461 0.53142 0.57506 0.0
O1781 O 0.06408 0.48661 0.5565 0.0
H1782 H 0.17848 0.55584 0.57963 0.0
H1783 H 0.12941 0.48966 0.51008 0.0
H1784 H 0.09855 0.43863 0.57552 0.0
H1785 H 0.14327 0.50896 0.58016 0.0
H1786 H 0.10737 0.50189 0.53713 0.0
O1787 O 0.06828 0.50548 0.64136 0.0
H1788 H 0.04319 0.42147 0.6447 0.0
H1789 H 0.02578 0.48125 0.66235 0.0
H1790 H 0.12067 0.42583 0.54896 0.0
H1791 H 0.11919 0.57855 0.57432 0.0
H1792 H 0.13627 0.45144 0.51597 0.0
H1793 H 0.16651 0.59101 0.57669 0.0
O1794 O 0.05605 0.44271 0.5804 0.0
H1795 H 0.00494 0.52139 0.60583 0.0
H1796 H 0.99267 0.43428 0.62567 0.0
H1797 H 0.95361 0.43856 0.61775 0.0
H1798 H 0.95962 0.48237 0.60776 0.0
H1799 H 0.04346 0.51618 0.61373 0.0
H1800 H 0.0063 0.45792 0.69542 0.0
H1801 H 0.00509 0.41561 0.70312 0.0
O1802 O 0.03392 0.43697 0.6105 0.0
C1803 C 0.10124 0.46867 0.62056 0.0
C1804 C 0.02406 0.41575 0.67429 0.0
C1805 C 0.01431 0.44975 0.68436 0.0
N1806 N 0.03544 0.45262 0.65156 0.0
C1807 C 0.03499 0.42945 0.65572 0.0
C1808 C 0.02542 0.4629 0.66564 0.0
C1809 C 0.01363 0.42601 0.68867 0.0
C1810 C 0.10517 0.53669 0.57589 0.0
N1811 N 0.11193 0.51747 0.57757 0.0
C1812 C 0.12466 0.5634 0.57555 0.0
C1813 C 0.1512 0.57038 0.57691 0.0
C1814 C 0.15793 0.55066 0.57857 0.0
C1815 C 0.13791 0.52415 0.57891 0.0
C1816 C 0.12275 0.47838 0.52441 0.0
C1817 C 0.10545 0.44997 0.56126 0.0
C1818 C 0.11022 0.48518 0.53976 0.0
N1819 N 0.1019 0.47111 0.55795 0.0
C1820 C 0.11788 0.44258 0.54625 0.0
C1821 C 0.1266 0.45694 0.52773 0.0
C1822 C 0.03796 0.42832 0.59344 0.0
C1823 C 0.00206 0.50221 0.61023 0.0
C1824 C -0.00456 0.45341 0.62132 0.0
C1825 C 0.97325 0.45571 0.61688 0.0
C1826 C 0.97664 0.4803 0.61129 0.0
N1827 N 0.0203 0.475 0.62029 0.0
C1828 C 0.02378 0.49917 0.61481 0.0
Co1829 Co 0.51254 0.60305 0.57823 0.0
Co1830 Co 0.5195 0.57918 0.62563 0.0
O1831 O 0.50183 0.57528 0.59904 0.0
C1832 C 0.51423 0.55977 0.55657 0.0
O1833 O 0.52765 0.55901 0.57272 0.0
C1834 C 0.46476 0.563 0.63724 0.0
O1835 O 0.46747 0.58315 0.62621 0.0
O1836 O 0.51976 0.61272 0.6316 0.0
O1837 O 0.51917 0.62985 0.60024 0.0
H1838 H 0.58679 0.6277 0.68171 0.0
H1839 H 0.46121 0.55323 0.57387 0.0
O1840 O 0.50635 0.57656 0.55594 0.0
H1841 H 0.43879 0.62414 0.57788 0.0
H1842 H 0.50538 0.63963 0.50896 0.0
H1843 H 0.55566 0.65887 0.57467 0.0
H1844 H 0.48534 0.63477 0.57912 0.0
H1845 H 0.4921 0.60532 0.53615 0.0
O1846 O 0.4839 0.55849 0.63905 0.0
H1847 H 0.56513 0.62289 0.64766 0.0
H1848 H 0.50946 0.54262 0.6613 0.0
H1849 H 0.5695 0.69383 0.54798 0.0
H1850 H 0.4144 0.54173 0.57243 0.0
H1851 H 0.54427 0.68429 0.51485 0.0
H1852 H 0.40295 0.57733 0.57448 0.0
O1853 O 0.55002 0.6119 0.58015 0.0
H1854 H 0.47889 0.48451 0.60243 0.0
H1855 H 0.56034 0.5628 0.62743 0.0
H1856 H 0.5611 0.52196 0.61897 0.0
H1857 H 0.52015 0.48244 0.60638 0.0
H1858 H 0.47906 0.52581 0.61089 0.0
H1859 H 0.53039 0.5466 0.69558 0.0
H1860 H 0.56942 0.58936 0.70593 0.0
O1861 O 0.5552 0.59994 0.61241 0.0
C1862 C 0.52083 0.6311 0.62011 0.0
C1863 C 0.56987 0.60893 0.67734 0.0
C1864 C 0.53819 0.56343 0.68514 0.0
N1865 N 0.53625 0.58243 0.65243 0.0
C1866 C 0.55758 0.60607 0.65806 0.0
C1867 C 0.5264 0.5613 0.66573 0.0
C1868 C 0.56009 0.58742 0.69093 0.0
C1869 C 0.45639 0.56884 0.57458 0.0
N1870 N 0.47598 0.59464 0.57643 0.0
C1871 C 0.42985 0.5622 0.57384 0.0
C1872 C 0.42344 0.58218 0.57502 0.0
C1873 C 0.44354 0.60845 0.57694 0.0
C1874 C 0.46985 0.61435 0.57766 0.0
C1875 C 0.51648 0.64405 0.52336 0.0
C1876 C 0.54447 0.65465 0.56035 0.0
C1877 C 0.50908 0.6247 0.53879 0.0
N1878 N 0.52293 0.63021 0.55706 0.0
C1879 C 0.55245 0.67448 0.54527 0.0
C1880 C 0.5383 0.66911 0.52668 0.0
C1881 C 0.56428 0.61074 0.59472 0.0
C1882 C 0.49684 0.50157 0.60797 0.0
C1883 C 0.54245 0.54569 0.62194 0.0
C1884 C 0.54299 0.52261 0.61721 0.0
C1885 C 0.52 0.50044 0.61016 0.0
N1886 N 0.51964 0.54664 0.61977 0.0
C1887 C 0.49702 0.52497 0.61288 0.0
Co1888 Co 0.38689 0.90529 0.57671 0.0
Co1889 Co 0.40885 0.93596 0.62453 0.0
O1890 O 0.41403 0.92269 0.59806 0.0
C1891 C 0.43027 0.95102 0.55564 0.0
O1892 O 0.43068 0.96492 0.57187 0.0
C1893 C 0.42565 0.89795 0.6359 0.0
O1894 O 0.40875 0.88215 0.62188 0.0
O1895 O 0.37527 0.90251 0.62971 0.0
O1896 O 0.35963 0.88425 0.59825 0.0
H1897 H 0.35726 0.95374 0.67853 0.0
H1898 H 0.43758 0.90537 0.57298 0.0
O1899 O 0.41372 0.9263 0.55482 0.0
H1900 H 0.36839 0.81128 0.57621 0.0
H1901 H 0.35299 0.86199 0.5069 0.0
H1902 H 0.33078 0.89122 0.57219 0.0
H1903 H 0.35647 0.84628 0.57722 0.0
H1904 H 0.3864 0.88335 0.53464 0.0
O1905 O 0.42849 0.92076 0.63914 0.0
H1906 H 0.36396 0.93743 0.64487 0.0
H1907 H 0.44348 0.96209 0.66127 0.0
H1908 H 0.29669 0.86976 0.54494 0.0
H1909 H 0.45037 0.87099 0.57177 0.0
H1910 H 0.30773 0.85498 0.51202 0.0
H1911 H 0.41564 0.82356 0.57346 0.0
O1912 O 0.37703 0.93325 0.57837 0.0
H1913 H 0.50463 0.99033 0.60433 0.0
H1914 H 0.42511 0.99318 0.62633 0.0
H1915 H 0.4664 0.0349 0.61897 0.0
H1916 H 0.50653 0.03363 0.6079 0.0
H1917 H 0.46288 0.94908 0.6117 0.0
H1918 H 0.43759 0.97846 0.69519 0.0
H1919 H 0.39426 0.97443 0.70396 0.0
O1920 O 0.38886 0.95106 0.61042 0.0
C1921 C 0.35768 0.88474 0.61805 0.0
C1922 C 0.37627 0.95571 0.67486 0.0
C1923 C 0.42134 0.96955 0.68422 0.0
N1924 N 0.40415 0.94907 0.65104 0.0
C1925 C 0.3802 0.94659 0.6558 0.0
C1926 C 0.42455 0.96021 0.66501 0.0
C1927 C 0.39703 0.96729 0.68913 0.0
C1928 C 0.42234 0.88476 0.5735 0.0
N1929 N 0.39631 0.87784 0.57506 0.0
C1930 C 0.42971 0.86539 0.5729 0.0
C1931 C 0.41021 0.83878 0.57388 0.0
C1932 C 0.3837 0.83188 0.57544 0.0
C1933 C 0.37708 0.85178 0.57605 0.0
C1934 C 0.34792 0.86828 0.52121 0.0
C1935 C 0.33565 0.88465 0.55797 0.0
C1936 C 0.36676 0.88041 0.53695 0.0
N1937 N 0.36043 0.88824 0.5551 0.0
C1938 C 0.3163 0.8726 0.54257 0.0
C1939 C 0.32252 0.86434 0.52409 0.0
C1940 C 0.37811 0.94895 0.59266 0.0
C1941 C 0.4873 0.99115 0.60921 0.0
C1942 C 0.44249 0.99247 0.6215 0.0
C1943 C 0.46582 0.01616 0.61739 0.0
C1944 C 0.48834 0.01543 0.61118 0.0
N1945 N 0.44164 0.96874 0.61955 0.0
C1946 C 0.46364 0.96786 0.61349 0.0
Co1947 Co 0.14477 0.42099 0.25043 0.0
Co1948 Co 0.1376 0.38903 0.20355 0.0
O1949 O 0.1554 0.40344 0.22998 0.0
C1950 C 0.14274 0.37627 0.27267 0.0
O1951 O 0.1293 0.362 0.25657 0.0
C1952 C 0.19225 0.42715 0.19115 0.0
O1953 O 0.1899 0.44513 0.20171 0.0
O1954 O 0.1374 0.4222 0.19699 0.0
O1955 O 0.13832 0.44082 0.22798 0.0
H1956 H 0.06993 0.36901 0.14753 0.0
H1957 H 0.19593 0.42224 0.25524 0.0
O1958 O 0.15077 0.40098 0.27311 0.0
H1959 H 0.21894 0.51566 0.24981 0.0
H1960 H 0.15227 0.4662 0.31899 0.0
H1961 H 0.10193 0.43416 0.25339 0.0
H1962 H 0.1723 0.4799 0.24873 0.0
H1963 H 0.16529 0.44442 0.29228 0.0
O1964 O 0.17302 0.40347 0.19 0.0
H1965 H 0.09187 0.38667 0.18136 0.0
H1966 H 0.14726 0.36153 0.16842 0.0
H1967 H 0.08834 0.45602 0.27958 0.0
H1968 H 0.24281 0.45738 0.25653 0.0
H1969 H 0.1136 0.47221 0.31265 0.0
H1970 H 0.25456 0.50448 0.25377 0.0
O1971 O 0.10714 0.39248 0.2487 0.0
H1972 H 0.17817 0.33542 0.22804 0.0
H1973 H 0.09665 0.33176 0.20259 0.0
H1974 H 0.09586 0.29035 0.21185 0.0
H1975 H 0.13683 0.29202 0.22468 0.0
H1976 H 0.17803 0.37637 0.21876 0.0
H1977 H 0.12605 0.34377 0.13437 0.0
H1978 H 0.08703 0.34737 0.12377 0.0
O1979 O 0.10205 0.37446 0.21683 0.0
C1980 C 0.13656 0.43988 0.20811 0.0
C1981 C 0.08686 0.36723 0.152 0.0
C1982 C 0.11838 0.3531 0.1446 0.0
N1983 N 0.12064 0.37488 0.17693 0.0
C1984 C 0.09931 0.37712 0.17116 0.0
C1985 C 0.13033 0.36322 0.16388 0.0
C1986 C 0.09648 0.35512 0.13867 0.0
C1987 C 0.20088 0.4427 0.25421 0.0
N1988 N 0.1814 0.44903 0.25205 0.0
C1989 C 0.22746 0.46251 0.25487 0.0
C1990 C 0.23404 0.48893 0.25329 0.0
C1991 C 0.21406 0.49521 0.25106 0.0
C1992 C 0.1877 0.47488 0.25043 0.0
C1993 C 0.14115 0.4593 0.30461 0.0
C1994 C 0.11313 0.44134 0.26768 0.0
C1995 C 0.1484 0.44692 0.28945 0.0
N1996 N 0.13455 0.43831 0.27121 0.0
C1997 C 0.10529 0.45361 0.28248 0.0
C1998 C 0.11946 0.46267 0.30104 0.0
C1999 C 0.0929 0.37666 0.23432 0.0
C2000 C 0.16021 0.33443 0.2224 0.0
C2001 C 0.11456 0.33266 0.20817 0.0
C2002 C 0.114 0.30913 0.21336 0.0
C2003 C 0.137 0.31009 0.22054 0.0
N2004 N 0.13741 0.35645 0.21002 0.0
C2005 C 0.16005 0.35754 0.21703 0.0
Co2006 Co 0.57305 0.72411 0.24949 0.0
Co2007 Co 0.60426 0.74729 0.2021 0.0
O2008 O 0.59038 0.75162 0.22849 0.0
C2009 C 0.61804 0.7674 0.27106 0.0
O2010 O 0.63226 0.76794 0.25501 0.0
C2011 C 0.56602 0.76355 0.18965 0.0
O2012 O 0.54834 0.74359 0.20073 0.0
O2013 O 0.5709 0.71378 0.19623 0.0
O2014 O 0.55289 0.69714 0.22762 0.0
H2015 H 0.62294 0.69771 0.14689 0.0
H2016 H 0.57193 0.77418 0.25324 0.0
O2017 O 0.59333 0.75076 0.27164 0.0
H2018 H 0.47841 0.70369 0.2492 0.0
H2019 H 0.52872 0.68852 0.31875 0.0
H2020 H 0.55999 0.66824 0.25362 0.0
H2021 H 0.51411 0.69272 0.2484 0.0
H2022 H 0.5501 0.72247 0.29135 0.0
O2023 O 0.58965 0.76794 0.18821 0.0
H2024 H 0.60596 0.70312 0.18068 0.0
H2025 H 0.63124 0.78333 0.16623 0.0
H2026 H 0.53852 0.63362 0.28052 0.0
H2027 H 0.53686 0.78602 0.25423 0.0
H2028 H 0.52271 0.64369 0.31337 0.0
H2029 H 0.48971 0.75063 0.25216 0.0
O2030 O 0.60151 0.71497 0.24796 0.0
H2031 H 0.65864 0.84221 0.22461 0.0
H2032 H 0.66142 0.76332 0.20071 0.0
H2033 H 0.70311 0.80414 0.20908 0.0
H2034 H 0.70187 0.84395 0.22112 0.0
H2035 H 0.61742 0.80093 0.21624 0.0
H2036 H 0.64833 0.77876 0.1322 0.0
H2037 H 0.64431 0.73573 0.12238 0.0
O2038 O 0.61891 0.72656 0.21574 0.0
C2039 C 0.55344 0.69564 0.20779 0.0
C2040 C 0.62491 0.71659 0.15102 0.0
C2041 C 0.63912 0.76207 0.14277 0.0
N2042 N 0.61788 0.74358 0.1755 0.0
C2043 C 0.61541 0.71979 0.17016 0.0
C2044 C 0.62938 0.76453 0.16203 0.0
C2045 C 0.63687 0.73792 0.13727 0.0
C2046 C 0.55145 0.75866 0.25252 0.0
N2047 N 0.54506 0.73279 0.25091 0.0
C2048 C 0.53168 0.76549 0.25301 0.0
C2049 C 0.50523 0.74562 0.25182 0.0
C2050 C 0.49888 0.71928 0.25015 0.0
C2051 C 0.51918 0.7132 0.24967 0.0
C2052 C 0.53545 0.68387 0.30448 0.0
C2053 C 0.55297 0.67269 0.26781 0.0
C2054 C 0.5476 0.70302 0.28893 0.0
N2055 N 0.556 0.69722 0.27082 0.0
C2056 C 0.54092 0.65305 0.28301 0.0
C2057 C 0.53208 0.65872 0.30145 0.0
C2058 C 0.61699 0.71589 0.23353 0.0
C2059 C 0.65944 0.82501 0.21931 0.0
C2060 C 0.66072 0.78056 0.20596 0.0
C2061 C 0.68439 0.80363 0.21064 0.0
C2062 C 0.68369 0.82597 0.21738 0.0
N2063 N 0.63702 0.77979 0.20787 0.0
C2064 C 0.63617 0.80162 0.21446 0.0
Co2065 Co 0.26991 0.84655 0.25201 0.0
Co2066 Co 0.24801 0.85415 0.20379 0.0
O2067 O 0.24281 0.83612 0.23049 0.0
C2068 C 0.22602 0.84821 0.27282 0.0
O2069 O 0.2254 0.8615 0.25651 0.0
C2070 C 0.23098 0.79909 0.19284 0.0
O2071 O 0.24768 0.80006 0.207 0.0
O2072 O 0.28159 0.85419 0.19889 0.0
O2073 O 0.29746 0.85313 0.23066 0.0
H2074 H 0.29973 0.9227 0.14923 0.0
H2075 H 0.21975 0.79541 0.25587 0.0
O2076 O 0.24283 0.84039 0.27374 0.0
H2077 H 0.2902 0.77225 0.25344 0.0
H2078 H 0.304 0.83846 0.32215 0.0
H2079 H 0.32567 0.88944 0.25661 0.0
H2080 H 0.30125 0.81892 0.252 0.0
H2081 H 0.27064 0.82562 0.29427 0.0
O2082 O 0.22834 0.81915 0.18946 0.0
H2083 H 0.29297 0.90016 0.18314 0.0
H2084 H 0.2134 0.8452 0.16693 0.0
H2085 H 0.3597 0.90285 0.284 0.0
H2086 H 0.20783 0.7485 0.25751 0.0
H2087 H 0.34894 0.87726 0.31705 0.0
H2088 H 0.24319 0.73667 0.25623 0.0
O2089 O 0.2791 0.88418 0.25003 0.0
H2090 H 0.15223 0.81308 0.22389 0.0
H2091 H 0.23177 0.89511 0.2013 0.0
H2092 H 0.19051 0.89567 0.20838 0.0
H2093 H 0.15036 0.85443 0.21975 0.0
H2094 H 0.19396 0.81345 0.21679 0.0
H2095 H 0.21935 0.867 0.13276 0.0
H2096 H 0.26274 0.90611 0.12378 0.0
O2097 O 0.26798 0.88945 0.21752 0.0
C2098 C 0.29941 0.8549 0.21082 0.0
C2099 C 0.2807 0.90574 0.153 0.0
C2100 C 0.2356 0.87445 0.14375 0.0
N2101 N 0.25275 0.87157 0.17708 0.0
C2102 C 0.27673 0.89295 0.1722 0.0
C2103 C 0.23236 0.86217 0.16309 0.0
C2104 C 0.25994 0.8964 0.13872 0.0
C2105 C 0.23526 0.79043 0.25553 0.0
N2106 N 0.26117 0.80988 0.25395 0.0
C2107 C 0.22839 0.76383 0.25637 0.0
C2108 C 0.24824 0.75721 0.25561 0.0
C2109 C 0.27462 0.77716 0.25403 0.0
C2110 C 0.28075 0.80354 0.25318 0.0
C2111 C 0.30895 0.84972 0.30779 0.0
C2112 C 0.32091 0.8781 0.27089 0.0
C2113 C 0.29014 0.84256 0.29197 0.0
N2114 N 0.29632 0.8566 0.27375 0.0
C2115 C 0.34023 0.88583 0.28637 0.0
C2116 C 0.33417 0.87149 0.30492 0.0
C2117 C 0.27828 0.89849 0.23533 0.0
C2118 C 0.16957 0.83115 0.21888 0.0
C2119 C 0.21439 0.87709 0.20626 0.0
C2120 C 0.19107 0.87752 0.21022 0.0
C2121 C 0.16854 0.85437 0.21658 0.0
N2122 N 0.21522 0.85423 0.20853 0.0
C2123 C 0.19322 0.83145 0.21475 0.0
H2124 H 0.2617 0.15763 0.14001 0.0
H2125 H 0.39475 0.16929 0.1857 0.0
H2126 H 0.33648 0.19507 0.10734 0.0
H2127 H 0.32004 0.13122 0.21846 0.0
H2128 H 0.37368 0.17913 0.15694 0.0
H2129 H 0.28268 0.14796 0.16902 0.0
C2130 C 0.28253 0.16384 0.13894 0.0
C2131 C 0.29738 0.17722 0.12123 0.0
C2132 C 0.36187 0.16861 0.17041 0.0
C2133 C 0.32148 0.16619 0.15436 0.0
C2134 C 0.3739 0.16298 0.18685 0.0
C2135 C 0.35911 0.14934 0.2045 0.0
C2136 C 0.33486 0.16058 0.1716 0.0
C2137 C 0.33218 0.1417 0.20513 0.0
C2138 C 0.2945 0.15831 0.15551 0.0
C2139 C 0.32428 0.18477 0.1207 0.0
N2140 N 0.32091 0.14742 0.1889 0.0
N2141 N 0.33546 0.17914 0.13702 0.0
H2142 H 0.79727 0.13957 0.10673 0.0
H2143 H 0.8608 0.18667 0.22025 0.0
H2144 H 0.83443 0.10317 0.14105 0.0
H2145 H 0.82335 0.22273 0.18589 0.0
H2146 H 0.85137 0.1559 0.19139 0.0
H2147 H 0.80676 0.17028 0.1356 0.0
C2148 C 0.8074 0.13801 0.12034 0.0
C2149 C 0.81501 0.11874 0.1215 0.0
C2150 C 0.84523 0.17056 0.19017 0.0
C2151 C 0.82598 0.15386 0.1546 0.0
C2152 C 0.85063 0.18815 0.20663 0.0
C2153 C 0.8429 0.20734 0.20546 0.0
C2154 C 0.83201 0.17217 0.1724 0.0
C2155 C 0.82968 0.20826 0.18746 0.0
C2156 C 0.81283 0.15557 0.13683 0.0
C2157 C 0.82817 0.11771 0.1395 0.0
N2158 N 0.82467 0.19093 0.17164 0.0
N2159 N 0.83323 0.13503 0.15535 0.0
H2160 H 0.80334 0.67116 0.22038 0.0
H2161 H 0.85057 0.65374 0.10721 0.0
H2162 H 0.76783 0.59685 0.18716 0.0
H2163 H 0.88586 0.7277 0.14092 0.0
H2164 H 0.81979 0.63252 0.13614 0.0
H2165 H 0.8335 0.6922 0.19118 0.0
C2166 C 0.80184 0.65926 0.20692 0.0
C2167 C 0.78301 0.63221 0.20619 0.0
C2168 C 0.83427 0.65339 0.13719 0.0
C2169 C 0.81754 0.65619 0.1727 0.0
C2170 C 0.85186 0.66552 0.12069 0.0
C2171 C 0.87087 0.69251 0.12168 0.0
C2172 C 0.8357 0.66838 0.15479 0.0
C2173 C 0.87156 0.70682 0.13949 0.0
C2174 C 0.8191 0.6713 0.19025 0.0
C2175 C 0.78205 0.61777 0.18838 0.0
N2176 N 0.85425 0.69456 0.15535 0.0
N2177 N 0.79909 0.62995 0.17233 0.0
H2178 H 0.15505 0.26466 0.35358 0.0
H2179 H 0.16845 0.39904 0.3092 0.0
H2180 H 0.19289 0.33864 0.38729 0.0
H2181 H 0.1305 0.32471 0.27596 0.0
H2182 H 0.17774 0.37741 0.33797 0.0
H2183 H 0.14591 0.28649 0.32499 0.0
C2184 C 0.16145 0.2855 0.35498 0.0
C2185 C 0.17481 0.29987 0.37283 0.0
C2186 C 0.16737 0.36585 0.32439 0.0
C2187 C 0.16439 0.32499 0.34014 0.0
C2188 C 0.16206 0.37818 0.30795 0.0
C2189 C 0.14861 0.36363 0.29018 0.0
C2190 C 0.15918 0.33881 0.32302 0.0
C2191 C 0.14083 0.33668 0.2894 0.0
C2192 C 0.15622 0.29796 0.33863 0.0
C2193 C 0.1826 0.32682 0.37378 0.0
N2194 N 0.14623 0.32515 0.30559 0.0
N2195 N 0.17728 0.33852 0.35764 0.0
H2196 H 0.59516 0.77071 0.30734 0.0
H2197 H 0.72935 0.89102 0.35252 0.0
H2198 H 0.66974 0.80657 0.27441 0.0
H2199 H 0.65473 0.85504 0.38539 0.0
H2200 H 0.70788 0.86019 0.32374 0.0
H2201 H 0.61667 0.80156 0.33607 0.0
C2202 C 0.61606 0.78508 0.30614 0.0
C2203 C 0.6307 0.78604 0.28847 0.0
C2204 C 0.6962 0.85905 0.33724 0.0
C2205 C 0.65543 0.82139 0.32131 0.0
C2206 C 0.70845 0.87663 0.35369 0.0
C2207 C 0.69378 0.87563 0.37135 0.0
C2208 C 0.66911 0.84032 0.33848 0.0
C2209 C 0.66678 0.85658 0.37203 0.0
C2210 C 0.62833 0.80268 0.32257 0.0
C2211 C 0.65771 0.80507 0.28777 0.0
N2212 N 0.65531 0.83968 0.35582 0.0
N2213 N 0.66921 0.822 0.30397 0.0
H2214 H 0.10226 0.83658 0.35392 0.0
H2215 H 0.22291 0.82274 0.30947 0.0
H2216 H 0.13875 0.79905 0.38762 0.0
H2217 H 0.18664 0.86055 0.27585 0.0
H2218 H 0.19217 0.81382 0.33823 0.0
H2219 H 0.1331 0.84564 0.3252 0.0
C2220 C 0.11677 0.83026 0.3553 0.0
C2221 C 0.11789 0.81697 0.37319 0.0
C2222 C 0.19093 0.82407 0.32457 0.0
C2223 C 0.15324 0.82729 0.34034 0.0
C2224 C 0.20847 0.82916 0.30812 0.0
C2225 C 0.20737 0.84247 0.29024 0.0
C2226 C 0.17213 0.83232 0.32313 0.0
C2227 C 0.18825 0.8503 0.28936 0.0
C2228 C 0.13437 0.83543 0.33887 0.0
C2229 C 0.13712 0.80927 0.3741 0.0
N2230 N 0.17138 0.84511 0.30559 0.0
N2231 N 0.15403 0.81453 0.35789 0.0
H2232 H 0.59432 0.82549 0.80907 0.0
H2233 H 0.72837 0.83786 0.85304 0.0
H2234 H 0.66844 0.86326 0.77549 0.0
H2235 H 0.65412 0.79965 0.88644 0.0
H2236 H 0.70686 0.84776 0.82463 0.0
H2237 H 0.616 0.81619 0.83771 0.0
C2238 C 0.61517 0.83185 0.80772 0.0
C2239 C 0.62961 0.84521 0.78987 0.0
C2240 C 0.69527 0.83721 0.83817 0.0
C2241 C 0.65454 0.8346 0.82261 0.0
C2242 C 0.70754 0.83155 0.85441 0.0
C2243 C 0.69299 0.81783 0.87212 0.0
C2244 C 0.66826 0.82912 0.83964 0.0
C2245 C 0.66607 0.81019 0.87305 0.0
C2246 C 0.62754 0.82653 0.82409 0.0
C2247 C 0.65656 0.85297 0.78898 0.0
N2248 N 0.65457 0.81592 0.85701 0.0
N2249 N 0.66815 0.84754 0.80513 0.0
H2250 H 0.19309 0.85332 0.88795 0.0
H2251 H 0.13026 0.80598 0.77427 0.0
H2252 H 0.15566 0.88927 0.85338 0.0
H2253 H 0.16791 0.77028 0.80886 0.0
H2254 H 0.13952 0.83681 0.80305 0.0
H2255 H 0.18404 0.82273 0.85906 0.0
C2256 C 0.18299 0.8548 0.87428 0.0
C2257 C 0.17516 0.8739 0.87305 0.0
C2258 C 0.14575 0.82223 0.80434 0.0
C2259 C 0.16473 0.83894 0.83995 0.0
C2260 C 0.14046 0.80461 0.78791 0.0
C2261 C 0.14826 0.78549 0.78919 0.0
C2262 C 0.15893 0.8207 0.82216 0.0
C2263 C 0.16151 0.78469 0.80721 0.0
C2264 C 0.17782 0.83732 0.85779 0.0
C2265 C 0.16206 0.87485 0.85499 0.0
N2266 N 0.1664 0.80204 0.823 0.0
N2267 N 0.15727 0.85761 0.83914 0.0
H2268 H 0.1409 0.34112 0.88782 0.0
H2269 H 0.18646 0.32265 0.77433 0.0
H2270 H 0.10446 0.26706 0.85422 0.0
H2271 H 0.22278 0.39722 0.80722 0.0
H2272 H 0.15655 0.30197 0.8037 0.0
H2273 H 0.17142 0.36201 0.85871 0.0
C2274 C 0.1393 0.32925 0.87432 0.0
C2275 C 0.12005 0.30232 0.87341 0.0
C2276 C 0.17107 0.32285 0.80453 0.0
C2277 C 0.15493 0.3261 0.84008 0.0
C2278 C 0.18819 0.33469 0.78776 0.0
C2279 C 0.20719 0.3617 0.78835 0.0
C2280 C 0.17292 0.33811 0.82205 0.0
C2281 C 0.20842 0.37632 0.80612 0.0
C2282 C 0.15674 0.3412 0.85771 0.0
C2283 C 0.11897 0.28789 0.85558 0.0
N2284 N 0.19151 0.36432 0.82228 0.0
N2285 N 0.13615 0.29998 0.83961 0.0
H2286 H 0.83453 0.7321 0.64228 0.0
H2287 H 0.81993 0.59761 0.68759 0.0
H2288 H 0.79608 0.65749 0.60946 0.0
H2289 H 0.85905 0.67203 0.72066 0.0
H2290 H 0.81057 0.61928 0.65902 0.0
H2291 H 0.84337 0.71051 0.67134 0.0
C2292 C 0.82793 0.71118 0.64119 0.0
C2293 C 0.81452 0.69656 0.62343 0.0
C2294 C 0.8212 0.63089 0.67252 0.0
C2295 C 0.82457 0.67176 0.6566 0.0
C2296 C 0.82655 0.61852 0.68886 0.0
C2297 C 0.84037 0.63306 0.70652 0.0
C2298 C 0.82971 0.65801 0.67382 0.0
C2299 C 0.84841 0.66008 0.7073 0.0
C2300 C 0.83298 0.69887 0.65779 0.0
C2301 C 0.80643 0.66953 0.62286 0.0
N2302 N 0.84298 0.6717 0.69116 0.0
N2303 N 0.81159 0.65802 0.63921 0.0
H2304 H 0.31974 0.18679 0.72019 0.0
H2305 H 0.33639 0.1392 0.60693 0.0
H2306 H 0.39362 0.22212 0.68631 0.0
H2307 H 0.26246 0.10395 0.64074 0.0
H2308 H 0.35772 0.16974 0.6359 0.0
H2309 H 0.29842 0.15616 0.69127 0.0
C2310 C 0.33148 0.18813 0.70667 0.0
C2311 C 0.35849 0.20708 0.70564 0.0
C2312 C 0.33683 0.15532 0.63698 0.0
C2313 C 0.33421 0.17207 0.67249 0.0
C2314 C 0.32464 0.13786 0.62045 0.0
C2315 C 0.29761 0.11896 0.62144 0.0
C2316 C 0.3219 0.15388 0.65463 0.0
C2317 C 0.28335 0.1182 0.63931 0.0
C2318 C 0.31929 0.17062 0.69016 0.0
C2319 C 0.37274 0.20783 0.68776 0.0
N2320 N 0.29568 0.1354 0.65521 0.0
N2321 N 0.36041 0.19059 0.67189 0.0
H2322 H 0.8499 0.19628 0.60634 0.0
H2323 H 0.80304 0.13145 0.71955 0.0
H2324 H 0.88647 0.1592 0.64054 0.0
H2325 H 0.76634 0.16885 0.68597 0.0
H2326 H 0.83354 0.14122 0.69051 0.0
H2327 H 0.81885 0.18619 0.63516 0.0
C2328 C 0.85143 0.18605 0.61991 0.0
C2329 C 0.87085 0.17863 0.62107 0.0
C2330 C 0.8188 0.14728 0.68946 0.0
C2331 C 0.83538 0.167 0.65404 0.0
C2332 C 0.80134 0.14167 0.70604 0.0
C2333 C 0.78208 0.1493 0.70516 0.0
C2334 C 0.81701 0.16063 0.67185 0.0
C2335 C 0.78089 0.16259 0.6873 0.0
C2336 C 0.83368 0.18028 0.63634 0.0
C2337 C 0.87184 0.16533 0.63899 0.0
N2338 N 0.79814 0.16784 0.67133 0.0
N2339 N 0.85436 0.15996 0.65476 0.0
H2340 H 0.92913 0.48938 0.47312 0.0
H2341 H 0.06265 0.50358 0.52014 0.0
H2342 H 0.00377 0.52666 0.44025 0.0
H2343 H 0.98802 0.46713 0.55301 0.0
H2344 H 0.04145 0.51199 0.49061 0.0
H2345 H 0.95037 0.48062 0.50237 0.0
C2346 C 0.94999 0.4957 0.47204 0.0
C2347 C 0.96472 0.50884 0.45423 0.0
C2348 C 0.02972 0.50215 0.50428 0.0
C2349 C 0.98917 0.49889 0.48771 0.0
C2350 C 0.04181 0.49736 0.52116 0.0
C2351 C 0.02707 0.48459 0.53906 0.0
C2352 C 0.0027 0.49414 0.50531 0.0
C2353 C 0.00014 0.47697 0.53951 0.0
C2354 C 0.96211 0.49071 0.48877 0.0
C2355 C 0.99167 0.51655 0.4537 0.0
N2356 N 0.98883 0.48186 0.52287 0.0
N2357 N 0.00304 0.51147 0.47022 0.0
H2358 H 0.50098 0.43545 0.47531 0.0
H2359 H 0.48844 0.55674 0.52012 0.0
H2360 H 0.46328 0.47219 0.4422 0.0
H2361 H 0.52629 0.52025 0.55338 0.0
H2362 H 0.47896 0.52578 0.49144 0.0
H2363 H 0.51048 0.46635 0.5041 0.0
C2364 C 0.4947 0.45001 0.47409 0.0
C2365 C 0.48126 0.45121 0.45635 0.0
C2366 C 0.48934 0.52454 0.505 0.0
C2367 C 0.49207 0.4866 0.48922 0.0
C2368 C 0.49476 0.54221 0.5214 0.0
C2369 C 0.50824 0.54111 0.53915 0.0
C2370 C 0.49744 0.50562 0.50637 0.0
C2371 C 0.51593 0.52187 0.53995 0.0
C2372 C 0.50012 0.46764 0.49054 0.0
C2373 C 0.47361 0.47049 0.45561 0.0
N2374 N 0.51042 0.50488 0.52378 0.0
N2375 N 0.47912 0.48742 0.47181 0.0
H2376 H 0.55394 0.0638 0.47477 0.0
H2377 H 0.43393 0.92872 0.51917 0.0
H2378 H 0.51855 0.98962 0.44137 0.0
H2379 H 0.46921 0.0029 0.55257 0.0
H2380 H 0.46485 0.95071 0.49053 0.0
H2381 H 0.52299 0.04185 0.50341 0.0
C2382 C 0.53965 0.0429 0.47345 0.0
C2383 C 0.53886 0.0285 0.45567 0.0
C2384 C 0.46583 0.96218 0.50412 0.0
C2385 C 0.50339 0.00326 0.48841 0.0
C2386 C 0.44818 0.94964 0.52049 0.0
C2387 C 0.44896 0.96402 0.53827 0.0
C2388 C 0.4844 0.9893 0.50553 0.0
C2389 C 0.46786 0.99106 0.53913 0.0
C2390 C 0.52199 0.03037 0.48982 0.0
C2391 C 0.51992 0.00147 0.45481 0.0
N2392 N 0.48483 0.00283 0.52297 0.0
N2393 N 0.50294 0.98973 0.47097 0.0
H2394 H 0.50168 0.06433 0.97524 0.0
H2395 H 0.49041 0.93129 0.02069 0.0
H2396 H 0.46416 0.98967 0.94248 0.0
H2397 H 0.52739 0.00576 0.05372 0.0
H2398 H 0.48092 0.95246 0.99174 0.0
H2399 H 0.51167 0.04333 0.00403 0.0
C2400 C 0.49554 0.04352 0.9741 0.0
C2401 C 0.48199 0.02871 0.95646 0.0
C2402 C 0.49113 0.96418 0.00532 0.0
C2403 C 0.49337 0.00456 0.98934 0.0
C2404 C 0.49656 0.9521 0.02185 0.0
C2405 C 0.50975 0.9668 0.03964 0.0
C2406 C 0.49893 0.99113 0.00657 0.0
C2407 C 0.51723 0.99368 0.04029 0.0
C2408 C 0.50125 0.03154 0.99055 0.0
C2409 C 0.47455 0.00183 0.95581 0.0
N2410 N 0.51171 0.00499 0.02399 0.0
N2411 N 0.48033 0.99062 0.97203 0.0
H2412 H 0.92871 0.43853 0.97374 0.0
H2413 H 0.06334 0.55941 0.01776 0.0
H2414 H 0.00261 0.47481 0.93986 0.0
H2415 H 0.9892 0.52338 0.0513 0.0
H2416 H 0.04144 0.5287 0.98899 0.0
H2417 H 0.95053 0.4697 0.00222 0.0
C2418 C 0.94953 0.45306 0.97227 0.0
C2419 C 0.96389 0.45402 0.95442 0.0
C2420 C 0.02996 0.52753 0.00263 0.0
C2421 C 0.98899 0.48977 0.98698 0.0
C2422 C 0.04245 0.54505 0.01908 0.0
C2423 C 0.02806 0.54398 0.03695 0.0
C2424 C 0.00289 0.50878 0.00408 0.0
C2425 C 0.00105 0.52497 0.0378 0.0
C2426 C 0.96198 0.47086 0.98855 0.0
C2427 C 0.9908 0.4733 0.95337 0.0
N2428 N 0.98934 0.50811 0.02159 0.0
N2429 N 0.00249 0.4904 0.96945 0.0
H2430 H 0.51772 0.52734 0.94115 0.0
H2431 H 0.47126 0.46331 0.05465 0.0
H2432 H 0.55388 0.4896 0.97501 0.0
H2433 H 0.43488 0.50091 0.02091 0.0
H2434 H 0.50153 0.47256 0.02547 0.0
H2435 H 0.48698 0.5176 0.9701 0.0
C2436 C 0.51922 0.51703 0.95468 0.0
C2437 C 0.53845 0.50934 0.95569 0.0
C2438 C 0.48691 0.47876 0.02444 0.0
C2439 C 0.50331 0.4981 0.98885 0.0
C2440 C 0.46959 0.47346 0.04109 0.0
C2441 C 0.45048 0.48131 0.0402 0.0
C2442 C 0.48512 0.49202 0.00676 0.0
C2443 C 0.44931 0.49449 0.02226 0.0
C2444 C 0.50164 0.51145 0.9712 0.0
C2445 C 0.53939 0.49593 0.97356 0.0
N2446 N 0.4664 0.49944 0.00625 0.0
N2447 N 0.52208 0.49076 0.98945 0.0
H2448 H 0.17707 0.9727 0.99275 0.0
H2449 H 0.25281 0.12858 0.98564 0.0
H2450 H 0.20436 0.01382 0.93396 0.0
H2451 H 0.1941 0.08638 0.03319 0.0
H2452 H 0.23871 0.08665 0.96761 0.0
H2453 H 0.18633 0.01428 0.00921 0.0
C2454 C 0.1849 0.99044 0.98329 0.0
C2455 C 0.1901 0.98986 0.96198 0.0
C2456 C 0.2288 0.08665 0.9819 0.0
C2457 C 0.20096 0.03734 0.98074 0.0
C2458 C 0.2369 0.11048 0.99223 0.0
C2459 C 0.22459 0.11085 0.0109 0.0
C2460 C 0.20865 0.06303 0.99056 0.0
C2461 C 0.20402 0.08691 0.01876 0.0
C2462 C 0.19005 0.01408 0.99267 0.0
C2463 C 0.20007 0.01337 0.95043 0.0
N2464 N 0.19686 0.06386 0.00865 0.0
N2465 N 0.2055 0.03627 0.96003 0.0
H2466 H 0.98028 0.19297 0.93518 0.0
H2467 H 0.91013 0.10946 0.03735 0.0
H2468 H 0.02093 0.20831 0.99429 0.0
H2469 H 0.86758 0.12312 0.98835 0.0
H2470 H 0.9518 0.13913 0.01942 0.0
H2471 H 0.93943 0.16035 0.95228 0.0
C2472 C 0.98068 0.18937 0.95172 0.0
C2473 C 0.00401 0.20353 0.96337 0.0
C2474 C 0.93329 0.13551 0.01263 0.0
C2475 C 0.95743 0.16612 0.9829 0.0
C2476 C 0.90956 0.11855 0.02276 0.0
C2477 C 0.88546 0.11396 0.01431 0.0
C2478 C 0.93276 0.14749 0.99378 0.0
C2479 C 0.88578 0.12629 0.99544 0.0
C2480 C 0.95734 0.17084 0.96145 0.0
C2481 C 0.00332 0.19801 0.98476 0.0
N2482 N 0.90909 0.14244 0.98574 0.0
N2483 N 0.98037 0.17966 0.99386 0.0
H2484 H 0.88383 0.79809 0.03629 0.0
H2485 H 0.80233 0.78638 0.93329 0.0
H2486 H 0.86977 0.74131 0.98771 0.0
H2487 H 0.78727 0.81222 0.99225 0.0
H2488 H 0.83444 0.77749 0.95061 0.0
H2489 H 0.85538 0.81106 0.01772 0.0
C2490 C 0.87491 0.78851 0.02165 0.0
C2491 C 0.87901 0.76854 0.01352 0.0
C2492 C 0.82413 0.7852 0.95968 0.0
C2493 C 0.84685 0.78343 0.99225 0.0
C2494 C 0.80592 0.79039 0.94982 0.0
C2495 C 0.79196 0.79986 0.9614 0.0
C2496 C 0.82873 0.78995 0.98114 0.0
C2497 C 0.79742 0.80469 0.98279 0.0
C2498 C 0.85864 0.79584 0.01114 0.0
C2499 C 0.86693 0.75667 0.99455 0.0
N2500 N 0.81544 0.79972 0.99198 0.0
N2501 N 0.85143 0.76437 0.98449 0.0
H2502 H 0.01111 0.20731 0.56052 0.0
H2503 H 0.08123 0.194 0.45823 0.0
H2504 H 0.97019 0.1799 0.5017 0.0
H2505 H 0.12362 0.25127 0.50659 0.0
H2506 H 0.03969 0.18101 0.47666 0.0
H2507 H 0.05209 0.21572 0.54347 0.0
C2508 C 0.01068 0.20284 0.54408 0.0
C2509 C 0.98725 0.1931 0.53246 0.0
C2510 C 0.05813 0.19634 0.48323 0.0
C2511 C 0.03393 0.20248 0.51301 0.0
C2512 C 0.0818 0.20368 0.4728 0.0
C2513 C 0.1058 0.22381 0.48089 0.0
C2514 C 0.05863 0.20891 0.50201 0.0
C2515 C 0.10547 0.2358 0.49976 0.0
C2516 C 0.03408 0.20776 0.53437 0.0
C2517 C 0.98787 0.18767 0.5112 0.0
N2518 N 0.08222 0.2281 0.50974 0.0
N2519 N 0.01086 0.19242 0.50214 0.0
H2520 H 0.82364 0.82471 0.54946 0.0
H2521 H 0.72495 0.84501 0.47889 0.0
H2522 H 0.7687 0.76297 0.50844 0.0
H2523 H 0.80588 0.90801 0.48533 0.0
H2524 H 0.7368 0.81464 0.49569 0.0
H2525 H 0.81382 0.85614 0.53166 0.0
C2526 C 0.80956 0.81781 0.53673 0.0
C2527 C 0.79696 0.79127 0.53035 0.0
C2528 C 0.75191 0.83513 0.49338 0.0
C2529 C 0.78538 0.82672 0.51043 0.0
C2530 C 0.74517 0.85244 0.48394 0.0
C2531 C 0.76452 0.87897 0.48075 0.0
C2532 C 0.77797 0.84461 0.50013 0.0
C2533 C 0.79047 0.88763 0.48745 0.0
C2534 C 0.80409 0.83571 0.52658 0.0
C2535 C 0.77895 0.7833 0.51373 0.0
N2536 N 0.79644 0.8705 0.49707 0.0
N2537 N 0.77343 0.8009 0.50449 0.0
H2538 H 0.20249 0.02133 0.5008 0.0
H2539 H 0.11736 0.86555 0.50774 0.0
H2540 H 0.18585 0.9798 0.5596 0.0
H2541 H 0.10479 0.90924 0.45906 0.0
H2542 H 0.14578 0.90716 0.52594 0.0
H2543 H 0.16969 0.98027 0.484 0.0
C2544 C 0.19187 0.00361 0.51019 0.0
C2545 C 0.19701 0.00393 0.53161 0.0
C2546 C 0.13662 0.90758 0.51136 0.0
C2547 C 0.15977 0.957 0.51245 0.0
C2548 C 0.12054 0.88391 0.50092 0.0
C2549 C 0.1088 0.88405 0.48188 0.0
C2550 C 0.14138 0.93154 0.50246 0.0
C2551 C 0.11343 0.90832 0.47376 0.0
C2552 C 0.1731 0.98026 0.50061 0.0
C2553 C 0.18253 0.98045 0.54305 0.0
N2554 N 0.12964 0.9312 0.484 0.0
N2555 N 0.16477 0.95782 0.53327 0.0
H2556 H 0.73931 0.86544 0.00641 0.0
H2557 H 0.8142 0.0217 0.00096 0.0
H2558 H 0.79757 0.909 0.9589 0.0
H2559 H 0.78572 0.97927 0.0591 0.0
H2560 H 0.80517 0.98049 0.98398 0.0
H2561 H 0.75271 0.90699 0.02481 0.0
C2562 C 0.75495 0.88375 -0.00011 0.0
C2563 C 0.76735 0.88386 0.98112 0.0
C2564 C 0.80112 0.98031 0.00049 0.0
C2565 C 0.78254 0.93129 0.00193 0.0
C2566 C 0.80616 0.00375 0.01017 0.0
C2567 C 0.80058 0.00388 0.03146 0.0
C2568 C 0.78997 0.95677 0.01208 0.0
C2569 C 0.79033 0.98008 0.04267 0.0
C2570 C 0.76267 0.90739 0.01044 0.0
C2571 C 0.78758 0.90808 0.97338 0.0
N2572 N 0.78505 0.95738 0.03277 0.0
N2573 N 0.79438 0.93092 0.98372 0.0
H2574 H 0.08098 0.88602 0.958 0.0
H2575 H 0.01115 0.80425 0.06104 0.0
H2576 H 0.12367 0.87232 0.00685 0.0
H2577 H 0.97041 0.78892 0.00198 0.0
H2578 H 0.05206 0.83679 0.04382 0.0
H2579 H 0.03951 0.85754 0.97657 0.0
C2580 C 0.08162 0.87718 0.9727 0.0
C2581 C 0.1057 0.88137 0.9809 0.0
C2582 C 0.03409 0.82634 0.03471 0.0
C2583 C 0.05862 0.8492 0.00217 0.0
C2584 C 0.01074 0.80788 0.04451 0.0
C2585 C 0.9874 0.7937 0.03288 0.0
C2586 C 0.03396 0.83095 0.01324 0.0
C2587 C 0.98803 0.79922 0.01149 0.0
C2588 C 0.05801 0.86091 0.98321 0.0
C2589 C 0.10547 0.8694 -6e-05 0.0
N2590 N 0.01097 0.81746 0.00235 0.0
N2591 N 0.08226 0.85389 0.00999 0.0
H2592 H 0.08396 0.18654 0.98553 0.0
H2593 H 0.23185 0.224 0.00614 0.0
H2594 H 0.14817 0.26705 0.97999 0.0
H2595 H 0.16991 0.16999 0.04754 0.0
H2596 H 0.20031 0.23423 0.98943 0.0
H2597 H 0.11455 0.17446 0.00196 0.0
C2598 C 0.10448 0.2016 0.98773 0.0
C2599 C 0.11364 0.22782 0.98153 0.0
C2600 C 0.1937 0.22007 0.00213 0.0
C2601 C 0.14843 0.21408 -0.00031 0.0
C2602 C 0.21156 0.21411 0.01157 0.0
C2603 C 0.20343 0.19621 0.02828 0.0
C2604 C 0.16743 0.20755 0.0091 0.0
C2605 C 0.17694 0.18405 0.0348 0.0
C2606 C 0.12178 0.19473 0.99713 0.0
C2607 C 0.14034 0.24665 0.98472 0.0
N2608 N 0.15974 0.18981 0.02507 0.0
N2609 N 0.15692 0.23935 0.99341 0.0
H2610 H 0.9059 0.7992 0.53508 0.0
H2611 H 0.97647 0.78443 0.43378 0.0
H2612 H 0.86362 0.74006 0.4879 0.0
H2613 H 0.01712 0.81266 0.49261 0.0
H2614 H 0.93525 0.77563 0.45068 0.0
H2615 H 0.94741 0.81187 0.51676 0.0
C2616 C 0.90534 0.78905 0.52077 0.0
C2617 C 0.88137 0.7685 0.51298 0.0
C2618 C 0.95325 0.78384 0.45981 0.0
C2619 C 0.92854 0.78302 0.49199 0.0
C2620 C 0.97678 0.78898 0.4502 0.0
C2621 C 0.00021 0.79911 0.46186 0.0
C2622 C 0.95329 0.78934 0.48112 0.0
C2623 C -0.00055 0.80461 0.48309 0.0
C2624 C 0.92899 0.7962 0.51042 0.0
C2625 C 0.88173 0.7559 0.49446 0.0
N2626 N 0.97634 0.7997 0.49204 0.0
N2627 N 0.90499 0.76343 0.48453 0.0
H2628 H 0.17716 0.20429 0.49322 0.0
H2629 H 0.25098 0.12201 0.48716 0.0
H2630 H 0.20451 0.18972 0.43479 0.0
H2631 H 0.19314 0.10768 0.53494 0.0
H2632 H 0.2377 0.15035 0.46887 0.0
H2633 H 0.18614 0.17201 0.51009 0.0
C2634 C 0.18496 0.19423 0.48393 0.0
C2635 C 0.19023 0.19978 0.46259 0.0
C2636 C 0.22782 0.14083 0.48328 0.0
C2637 C 0.20077 0.16316 0.48184 0.0
C2638 C 0.23546 0.12481 0.49377 0.0
C2639 C 0.22313 0.11256 0.51257 0.0
C2640 C 0.20811 0.14501 0.49191 0.0
C2641 C 0.20306 0.11671 0.52043 0.0
C2642 C 0.18996 0.17576 0.49355 0.0
C2643 C 0.20015 0.18604 0.45127 0.0
N2644 N 0.19634 0.13284 0.51015 0.0
N2645 N 0.20541 0.16856 0.4611 0.0
H2646 H 0.80262 0.01352 0.43457 0.0
H2647 H 0.88186 0.08379 0.53812 0.0
H2648 H 0.78473 0.97273 0.49379 0.0
H2649 H 0.86953 0.12602 0.48809 0.0
H2650 H 0.85305 0.04202 0.52 0.0
H2651 H 0.83451 0.05429 0.45206 0.0
C2652 C 0.80551 0.01306 0.45122 0.0
C2653 C 0.79083 0.98972 0.46278 0.0
C2654 C 0.85678 0.06049 0.51303 0.0
C2655 C 0.82741 0.03624 0.48276 0.0
C2656 C 0.87325 0.08426 0.52327 0.0
C2657 C 0.87795 0.10829 0.51457 0.0
C2658 C 0.84545 0.06093 0.49383 0.0
C2659 C 0.86624 0.10786 0.49537 0.0
C2660 C 0.82363 0.03636 0.46117 0.0
C2661 C 0.79546 0.99035 0.48432 0.0
N2662 N 0.85059 0.08453 0.48558 0.0
N2663 N 0.81342 0.01328 0.49365 0.0
H2664 H 0.91737 0.46108 0.31911 0.0
H2665 H 0.84352 0.30512 0.32536 0.0
H2666 H 0.85955 0.41778 0.36697 0.0
H2667 H 0.87092 0.34698 0.26688 0.0
H2668 H 0.85212 0.34632 0.34209 0.0
H2669 H 0.90372 0.41947 0.30076 0.0
C2670 C 0.90176 0.44281 0.32571 0.0
C2671 C 0.88958 0.44278 0.34458 0.0
C2672 C 0.85601 0.34638 0.32556 0.0
C2673 C 0.87413 0.39529 0.32383 0.0
C2674 C 0.85124 0.32294 0.31602 0.0
C2675 C 0.85667 0.32268 0.29472 0.0
C2676 C 0.86677 0.36977 0.3138 0.0
C2677 C 0.86647 0.3463 0.28334 0.0
C2678 C 0.8939 0.41914 0.31519 0.0
C2679 C 0.86937 0.41862 0.35241 0.0
N2680 N 0.87152 0.369 0.29309 0.0
N2681 N 0.86245 0.39574 0.3421 0.0
H2682 H 0.54442 0.48295 0.34951 0.0
H2683 H 0.66368 0.50325 0.27934 0.0
H2684 H 0.56153 0.41946 0.34254 0.0
H2685 H 0.67062 0.56452 0.32098 0.0
H2686 H 0.62221 0.47174 0.29685 0.0
H2687 H 0.58695 0.51326 0.33311 0.0
C2688 C 0.5571 0.4754 0.34443 0.0
C2689 C 0.5496 0.44875 0.34735 0.0
C2690 C 0.63301 0.49208 0.30214 0.0
C2691 C 0.59778 0.48306 0.32844 0.0
C2692 C 0.6565 0.51003 0.29216 0.0
C2693 C 0.67053 0.53647 0.29877 0.0
C2694 C 0.62326 0.50093 0.31836 0.0
C2695 C 0.66048 0.54428 0.31549 0.0
C2696 C 0.58133 0.49268 0.33522 0.0
C2697 C 0.56676 0.43994 0.34062 0.0
N2698 N 0.63723 0.52664 0.32456 0.0
N2699 N 0.59004 0.45705 0.33123 0.0
H2700 H 0.5366 0.07489 0.32111 0.0
H2701 H 0.45391 0.14838 0.32614 0.0
H2702 H 0.55048 0.13275 0.36871 0.0
H2703 H 0.46897 0.12071 0.26807 0.0
H2704 H 0.48622 0.13968 0.34332 0.0
H2705 H 0.50832 0.08803 0.30261 0.0
C2706 C 0.53371 0.09039 0.32763 0.0
C2707 C 0.54582 0.10276 0.34645 0.0
C2708 C 0.48257 0.13574 0.32679 0.0
C2709 C 0.51342 0.11764 0.32552 0.0
C2710 C 0.46409 0.14059 0.31699 0.0
C2711 C 0.45865 0.13513 0.29566 0.0
C2712 C 0.4953 0.1249 0.31527 0.0
C2713 C 0.47254 0.1252 0.28454 0.0
C2714 C 0.51772 0.09796 0.31702 0.0
C2715 C 0.54156 0.1228 0.35418 0.0
N2716 N 0.49002 0.12011 0.29454 0.0
N2717 N 0.52545 0.12946 0.34378 0.0
H2718 H 0.63639 0.5123 0.83523 0.0
H2719 H 0.79245 0.58511 0.84105 0.0
H2720 H 0.67845 0.539 0.89365 0.0
H2721 H 0.74857 0.52789 0.79303 0.0
H2722 H 0.75094 0.57181 0.85952 0.0
H2723 H 0.6775 0.52101 0.81827 0.0
C2724 C 0.65424 0.5199 0.8445 0.0
C2725 C 0.65405 0.52508 0.86586 0.0
C2726 C 0.75046 0.56206 0.84502 0.0
C2727 C 0.70105 0.53529 0.84651 0.0
C2728 C 0.77407 0.56971 0.83444 0.0
C2729 C 0.77385 0.55758 0.8155 0.0
C2730 C 0.72649 0.54254 0.83637 0.0
C2731 C 0.74956 0.53766 0.80764 0.0
C2732 C 0.67763 0.52474 0.83483 0.0
C2733 C 0.67771 0.53473 0.87715 0.0
N2734 N 0.72676 0.53093 0.81802 0.0
N2735 N 0.70037 0.53984 0.86727 0.0
H2736 H 0.40556 0.20429 0.83957 0.0
H2737 H 0.47642 0.11899 0.83354 0.0
H2738 H 0.46208 0.21671 0.79115 0.0
H2739 H 0.45072 0.13578 0.89187 0.0
H2740 H 0.46762 0.1512 0.81623 0.0
H2741 H 0.41798 0.17519 0.85763 0.0
C2742 C 0.42061 0.2009 0.83277 0.0
C2743 C 0.43284 0.21287 0.81387 0.0
C2744 C 0.4641 0.1479 0.83284 0.0
C2745 C 0.44688 0.17951 0.83429 0.0
C2746 C 0.46899 0.12947 0.84271 0.0
C2747 C 0.46419 0.12462 0.86417 0.0
C2748 C 0.45388 0.16115 0.84445 0.0
C2749 C 0.45472 0.13889 0.87531 0.0
C2750 C 0.42776 0.18442 0.84312 0.0
C2751 C 0.45228 0.20793 0.80576 0.0
N2752 N 0.44961 0.15632 0.86527 0.0
N2753 N 0.45855 0.19137 0.81593 0.0
H2754 H 0.85506 0.31217 0.89425 0.0
H2755 H 0.77088 0.24138 0.79256 0.0
H2756 H 0.86807 0.35273 0.83528 0.0
H2757 H 0.78738 0.19926 0.84017 0.0
H2758 H 0.79945 0.28293 0.81091 0.0
H2759 H 0.82283 0.2709 0.8773 0.0
C2760 C 0.85099 0.31245 0.87779 0.0
C2761 C 0.8644 0.33586 0.8661 0.0
C2762 C 0.79668 0.26454 0.81733 0.0
C2763 C 0.82749 0.28891 0.84679 0.0
C2764 C 0.78033 0.24087 0.80696 0.0
C2765 C 0.7769 0.21693 0.81487 0.0
C2766 C 0.80922 0.26414 0.83589 0.0
C2767 C 0.78969 0.21735 0.83351 0.0
C2768 C 0.83271 0.2889 0.86815 0.0
C2769 C 0.85836 0.33507 0.84482 0.0
N2770 N 0.80525 0.24063 0.84346 0.0
N2771 N 0.84027 0.31195 0.83584 0.0
H2772 H 0.40446 0.20004 0.33854 0.0
H2773 H 0.47649 0.35631 0.33322 0.0
H2774 H 0.46137 0.24414 0.29033 0.0
H2775 H 0.45058 0.31337 0.39138 0.0
H2776 H 0.46736 0.31533 0.31569 0.0
H2777 H 0.41713 0.24151 0.35673 0.0
C2778 C 0.41963 0.21847 0.3318 0.0
C2779 C 0.43192 0.21874 0.31294 0.0
C2780 C 0.46388 0.31501 0.33231 0.0
C2781 C 0.44626 0.2661 0.33351 0.0
C2782 C 0.46896 0.33831 0.34231 0.0
C2783 C 0.46418 0.33822 0.36378 0.0
C2784 C 0.45348 0.29143 0.3438 0.0
C2785 C 0.45456 0.31436 0.37481 0.0
C2786 C 0.42693 0.24207 0.34223 0.0
C2787 C 0.45153 0.24312 0.30491 0.0
N2788 N 0.44926 0.29185 0.36464 0.0
N2789 N 0.45795 0.26592 0.31517 0.0
H2790 H 0.6786 0.13887 0.3939 0.0
H2791 H 0.74834 0.21877 0.29021 0.0
H2792 H 0.63754 0.1229 0.33495 0.0
H2793 H 0.79097 0.20523 0.33921 0.0
H2794 H 0.70688 0.19066 0.3089 0.0
H2795 H 0.71956 0.17074 0.37637 0.0
C2796 C 0.67813 0.14222 0.37733 0.0
C2797 C 0.65468 0.12806 0.36582 0.0
C2798 C 0.72536 0.19396 0.31554 0.0
C2799 C 0.7013 0.16455 0.34583 0.0
C2800 C 0.74897 0.21003 0.30496 0.0
C2801 C 0.77303 0.21417 0.31317 0.0
C2802 C 0.72595 0.18243 0.3346 0.0
C2803 C 0.77278 0.20233 0.33228 0.0
C2804 C 0.70151 0.1603 0.36735 0.0
C2805 C 0.65524 0.13321 0.34437 0.0
N2806 N 0.74958 0.18704 0.34242 0.0
N2807 N 0.67821 0.15109 0.33505 0.0
H2808 H 0.87069 0.51486 0.33373 0.0
H2809 H 0.78873 0.58892 0.34143 0.0
H2810 H 0.85712 0.54205 0.39262 0.0
H2811 H 0.77258 0.53008 0.29414 0.0
H2812 H 0.8177 0.57593 0.35911 0.0
H2813 H 0.83829 0.52413 0.31741 0.0
C2814 C 0.86086 0.52271 0.34323 0.0
C2815 C 0.86666 0.52778 0.36455 0.0
C2816 C 0.80763 0.56576 0.34495 0.0
C2817 C 0.82992 0.53865 0.34594 0.0
C2818 C 0.79124 0.57322 0.33482 0.0
C2819 C 0.77829 0.56051 0.31634 0.0
C2820 C 0.81148 0.54588 0.33626 0.0
C2821 C 0.78212 0.54027 0.30844 0.0
C2822 C 0.84232 0.52787 0.33393 0.0
C2823 C 0.85322 0.53781 0.37615 0.0
N2824 N 0.79863 0.53374 0.31835 0.0
N2825 N 0.83566 0.54321 0.36663 0.0
H2826 H 0.54414 0.05989 0.84939 0.0
H2827 H 0.66263 0.15845 0.7784 0.0
H2828 H 0.56119 0.14047 0.84226 0.0
H2829 H 0.67018 0.10461 0.82023 0.0
H2830 H 0.6213 0.14851 0.79612 0.0
H2831 H 0.58651 0.07205 0.83275 0.0
C2832 C 0.55677 0.08011 0.84422 0.0
C2833 C 0.54931 0.09927 0.84717 0.0
C2834 C 0.6322 0.13907 0.8014 0.0
C2835 C 0.59729 0.11306 0.82798 0.0
C2836 C 0.6556 0.1446 0.7913 0.0
C2837 C 0.66977 0.13233 0.79792 0.0
C2838 C 0.62267 0.12062 0.81775 0.0
C2839 C 0.65992 0.1146 0.81474 0.0
C2840 C 0.58091 0.08702 0.83488 0.0
C2841 C 0.5664 0.12521 0.84032 0.0
N2842 N 0.63676 0.109 0.82393 0.0
N2843 N 0.58959 0.13135 0.8308 0.0
H2844 H 0.85751 0.43887 0.86909 0.0
H2845 H 0.87018 0.52202 0.76674 0.0
H2846 H 0.91425 0.45322 0.82037 0.0
H2847 H 0.84453 0.53665 0.82596 0.0
H2848 H 0.87837 0.4892 0.78366 0.0
H2849 H 0.84458 0.46751 0.85071 0.0
C2850 C 0.86706 0.44786 0.85445 0.0
C2851 C 0.88705 0.44384 0.84624 0.0
C2852 C 0.87084 0.49956 0.79287 0.0
C2853 C 0.87223 0.47621 0.8252 0.0
C2854 C 0.86606 0.51818 0.78325 0.0
C2855 C 0.85688 0.53224 0.79502 0.0
C2856 C 0.86596 0.49465 0.8143 0.0
C2857 C 0.85188 0.52645 0.81636 0.0
C2858 C 0.85976 0.46424 0.84405 0.0
C2859 C 0.89889 0.45601 0.82728 0.0
N2860 N 0.85645 0.50804 0.82533 0.0
N2861 N 0.89124 0.47162 0.81734 0.0
H2862 H 0.55099 0.41665 0.86995 0.0
H2863 H 0.46944 0.34695 0.76692 0.0
H2864 H 0.53622 0.45922 0.82163 0.0
H2865 H 0.45497 0.30571 0.82571 0.0
H2866 H 0.50146 0.38794 0.78429 0.0
H2867 H 0.52284 0.37523 0.85127 0.0
C2868 C 0.54197 0.41728 0.85535 0.0
C2869 C 0.54579 0.44131 0.84733 0.0
C2870 C 0.49132 0.36985 0.79331 0.0
C2871 C 0.51398 0.39427 0.82592 0.0
C2872 C 0.47316 0.34645 0.78342 0.0
C2873 C 0.45937 0.32293 0.79493 0.0
C2874 C 0.49602 0.36961 0.81474 0.0
C2875 C 0.46498 0.32346 0.81628 0.0
C2876 C 0.52588 0.39369 0.84478 0.0
C2877 C 0.53359 0.44106 0.8284 0.0
N2878 N 0.48293 0.34645 0.82552 0.0
N2879 N 0.51828 0.41787 0.81827 0.0
H2880 H 0.53796 0.6796 0.60235 0.0
H2881 H 0.52585 0.74876 0.70548 0.0
H2882 H 0.51256 0.63805 0.66114 0.0
H2883 H 0.58213 0.79158 0.65657 0.0
H2884 H 0.51345 0.70722 0.68721 0.0
H2885 H 0.54667 0.72029 0.61993 0.0
C2886 C 0.53403 0.67896 0.61892 0.0
C2887 C 0.5247 0.65542 0.63033 0.0
C2888 C 0.52845 0.72576 0.68052 0.0
C2889 C 0.53445 0.70185 0.65042 0.0
C2890 C 0.53545 0.74941 0.69085 0.0
C2891 C 0.55509 0.77355 0.68251 0.0
C2892 C 0.54084 0.72642 0.66158 0.0
C2893 C 0.56702 0.77334 0.66357 0.0
C2894 C 0.53912 0.70222 0.62893 0.0
C2895 C 0.51997 0.65582 0.65178 0.0
N2896 N 0.55961 0.75012 0.65368 0.0
N2897 N 0.52485 0.6787 0.66115 0.0
H2898 H 0.24113 0.77209 0.70388 0.0
H2899 H 0.30941 0.85277 0.60007 0.0
H2900 H 0.19755 0.78461 0.65508 0.0
H2901 H 0.3508 0.86912 0.65889 0.0
H2902 H 0.26878 0.82023 0.61763 0.0
H2903 H 0.28231 0.80055 0.68497 0.0
C2904 C 0.24023 0.78066 0.68912 0.0
C2905 C 0.21599 0.77616 0.68104 0.0
C2906 C 0.28683 0.83091 0.62662 0.0
C2907 C 0.26275 0.80832 0.65938 0.0
C2908 C 0.31002 0.84937 0.61662 0.0
C2909 C 0.33345 0.86383 0.62809 0.0
C2910 C 0.28723 0.82658 0.64811 0.0
C2911 C 0.33309 0.8586 0.64951 0.0
C2912 C 0.26368 0.79693 0.67842 0.0
C2913 C 0.21589 0.78779 0.66191 0.0
N2914 N 0.31031 0.84035 0.65884 0.0
N2915 N 0.23895 0.80331 0.65167 0.0
H2916 H 0.23937 0.47149 0.67309 0.0
H2917 H 0.09159 0.43458 0.65274 0.0
H2918 H 0.17496 0.39114 0.67908 0.0
H2919 H 0.15396 0.48957 0.61211 0.0
H2920 H 0.12284 0.42359 0.66899 0.0
H2921 H 0.2089 0.48357 0.65651 0.0
C2922 C 0.21884 0.45645 0.67091 0.0
C2923 C 0.20959 0.43029 0.67733 0.0
C2924 C 0.12961 0.4381 0.65655 0.0
C2925 C 0.17489 0.44404 0.65898 0.0
C2926 C 0.11191 0.4445 0.64738 0.0
C2927 C 0.12026 0.46295 0.63105 0.0
C2928 C 0.15593 0.45072 0.64967 0.0
C2929 C 0.14676 0.47511 0.62458 0.0
C2930 C 0.20159 0.46332 0.66144 0.0
C2931 C 0.18286 0.41149 0.67418 0.0
N2932 N 0.1638 0.46893 0.63405 0.0
N2933 N 0.16633 0.4188 0.66541 0.0
H2934 H 0.34772 0.87314 0.22931 0.0
H2935 H 0.41945 0.86223 0.12722 0.0
H2936 H 0.3073 0.84584 0.17029 0.0
H2937 H 0.46072 0.92059 0.17514 0.0
H2938 H 0.37773 0.84822 0.14567 0.0
H2939 H 0.38909 0.88267 0.2123 0.0
C2940 C 0.34747 0.86892 0.21283 0.0
C2941 C 0.32407 0.85888 0.20114 0.0
C2942 C 0.39597 0.864 0.15214 0.0
C2943 C 0.37119 0.86953 0.18176 0.0
C2944 C 0.41975 0.87192 0.14171 0.0
C2945 C 0.44348 0.89265 0.14967 0.0
C2946 C 0.39609 0.87659 0.17081 0.0
C2947 C 0.44278 0.90464 0.16843 0.0
C2948 C 0.3711 0.87448 0.20316 0.0
C2949 C 0.32494 0.8538 0.17984 0.0
N2950 N 0.41942 0.89637 0.17843 0.0
N2951 N 0.34816 0.85916 0.17081 0.0
H2952 H 0.14523 0.45432 0.16694 0.0
H2953 H 0.07293 0.53823 0.17146 0.0
H2954 H 0.11906 0.47141 0.22492 0.0
H2955 H 0.13025 0.55122 0.12358 0.0
H2956 H 0.08572 0.50966 0.18992 0.0
H2957 H 0.13628 0.48623 0.14927 0.0
C2958 C 0.13769 0.46482 0.17596 0.0
C2959 C 0.13276 0.46012 0.19742 0.0
C2960 C 0.09558 0.51891 0.17544 0.0
C2961 C 0.12227 0.49627 0.17728 0.0
C2962 C 0.08822 0.53506 0.16485 0.0
C2963 C 0.10058 0.54704 0.14599 0.0
C2964 C 0.11505 0.51431 0.16688 0.0
C2965 C 0.12035 0.54242 0.13815 0.0
C2966 C 0.13271 0.48307 0.16588 0.0
C2967 C 0.12315 0.4744 0.20837 0.0
N2968 N 0.12682 0.52616 0.14854 0.0
N2969 N 0.11793 0.49164 0.19812 0.0
H2970 H 0.53816 0.68832 0.16679 0.0
H2971 H 0.45491 0.53244 0.17494 0.0
H2972 H 0.52222 0.64733 0.22582 0.0
H2973 H 0.44043 0.57483 0.1263 0.0
H2974 H 0.48347 0.57447 0.19255 0.0
H2975 H 0.5058 0.6468 0.15018 0.0
C2976 C 0.52781 0.67064 0.17626 0.0
C2977 C 0.53297 0.67123 0.1977 0.0
C2978 C 0.47387 0.57451 0.1781 0.0
C2979 C 0.49632 0.62387 0.17879 0.0
C2980 C 0.4577 0.55061 0.16802 0.0
C2981 C 0.44535 0.55026 0.14918 0.0
C2982 C 0.4781 0.59821 0.16904 0.0
C2983 C 0.44953 0.5743 0.14088 0.0
C2984 C 0.50931 0.64704 0.16679 0.0
C2985 C 0.51888 0.64778 0.20925 0.0
N2986 N 0.46583 0.59742 0.15077 0.0
N2987 N 0.50139 0.62496 0.19959 0.0
H2988 H 0.11842 0.64434 0.72971 0.0
H2989 H 0.13175 0.57367 0.62785 0.0
H2990 H 0.14567 0.68479 0.67067 0.0
H2991 H 0.07316 0.53165 0.67553 0.0
H2992 H 0.14529 0.61516 0.64648 0.0
H2993 H 0.11003 0.60321 0.7129 0.0
C2994 C 0.12286 0.64463 0.71327 0.0
C2995 C 0.13253 0.66794 0.7015 0.0
C2996 C 0.12959 0.5968 0.65287 0.0
C2997 C 0.12324 0.62117 0.68236 0.0
C2998 C 0.12194 0.57316 0.64234 0.0
C2999 C 0.10123 0.54929 0.65016 0.0
C3000 C 0.11674 0.59641 0.67148 0.0
C3001 C 0.08909 0.5497 0.66892 0.0
C3002 C 0.11797 0.62116 0.70371 0.0
C3003 C 0.13794 0.66718 0.68026 0.0
N3004 N 0.09707 0.57293 0.679 0.0
N3005 N 0.13324 0.64414 0.67135 0.0
H3006 H 0.31768 0.42571 0.67225 0.0
H3007 H 0.42711 0.5742 0.65084 0.0
H3008 H 0.32498 0.48819 0.71261 0.0
H3009 H 0.44421 0.51055 0.6454 0.0
H3010 H 0.38437 0.54324 0.66698 0.0
H3011 H 0.3592 0.45734 0.65514 0.0
C3012 C 0.32788 0.44613 0.67735 0.0
C3013 C 0.31803 0.45439 0.6939 0.0
C3014 C 0.39758 0.53619 0.66222 0.0
C3015 C 0.36504 0.49047 0.6743 0.0
C3016 C 0.4218 0.55371 0.65299 0.0
C3017 C 0.43914 0.54484 0.64694 0.0
C3018 C 0.39048 0.50959 0.66477 0.0
C3019 C 0.43144 0.51816 0.65004 0.0
C3020 C 0.35156 0.46405 0.66769 0.0
C3021 C 0.33207 0.48104 0.70001 0.0
N3022 N 0.4075 0.50135 0.65859 0.0
N3023 N 0.35487 0.49826 0.69009 0.0
H3024 H 0.53383 0.84419 0.66836 0.0
H3025 H 0.45093 0.91743 0.67294 0.0
H3026 H 0.51863 0.87203 0.72629 0.0
H3027 H 0.43743 0.85965 0.62538 0.0
H3028 H 0.4791 0.90429 0.69162 0.0
H3029 H 0.50144 0.85267 0.65108 0.0
C3030 C 0.5236 0.85197 0.67747 0.0
C3031 C 0.52904 0.85756 0.69878 0.0
C3032 C 0.4698 0.89438 0.67717 0.0
C3033 C 0.49229 0.86752 0.67906 0.0
C3034 C 0.45388 0.90195 0.66647 0.0
C3035 C 0.44192 0.88961 0.6476 0.0
C3036 C 0.47418 0.87472 0.66873 0.0
C3037 C 0.44624 0.86958 0.63993 0.0
C3038 C 0.50507 0.85669 0.66761 0.0
C3039 C 0.51507 0.86745 0.70984 0.0
N3040 N 0.46229 0.86292 0.65043 0.0
N3041 N 0.49755 0.87242 0.69978 0.0
H3042 H 0.21211 0.39459 0.18369 0.0
H3043 H 0.33096 0.49174 0.11236 0.0
H3044 H 0.22963 0.47522 0.17583 0.0
H3045 H 0.33814 0.4384 0.15501 0.0
H3046 H 0.28963 0.48225 0.12987 0.0
H3047 H 0.25444 0.40632 0.16717 0.0
C3048 C 0.22484 0.41472 0.17839 0.0
C3049 C 0.21752 0.43403 0.1811 0.0
C3050 C 0.30045 0.47281 0.13537 0.0
C3051 C 0.26545 0.44733 0.16203 0.0
C3052 C 0.32385 0.47809 0.12539 0.0
C3053 C 0.33792 0.46583 0.1323 0.0
C3054 C 0.29082 0.45462 0.1519 0.0
C3055 C 0.32796 0.44837 0.14929 0.0
C3056 C 0.24895 0.42139 0.1691 0.0
C3057 C 0.23473 0.45986 0.17409 0.0
N3058 N 0.3048 0.44301 0.15836 0.0
N3059 N 0.25789 0.46575 0.16462 0.0
H3060 H 0.55749 0.90089 0.15369 0.0
H3061 H 0.51742 0.75247 0.17544 0.0
H3062 H 0.50225 0.83882 0.11305 0.0
H3063 H 0.59836 0.81576 0.18099 0.0
H3064 H 0.50616 0.78345 0.15863 0.0
H3065 H 0.56731 0.86912 0.17052 0.0
C3066 C 0.54727 0.88053 0.14844 0.0
C3067 C 0.5291 0.87241 0.13194 0.0
C3068 C 0.52635 0.7904 0.16354 0.0
C3069 C 0.53998 0.83615 0.15124 0.0
C3070 C 0.53275 0.77288 0.17316 0.0
C3071 C 0.55885 0.78166 0.17948 0.0
C3072 C 0.54605 0.81691 0.16085 0.0
C3073 C 0.57805 0.80822 0.17617 0.0
C3074 C 0.553 0.86253 0.15795 0.0
C3075 C 0.51652 0.84584 0.12564 0.0
N3076 N 0.5712 0.82503 0.16725 0.0
N3077 N 0.52205 0.8285 0.13543 0.0
H3078 H 0.20689 0.79392 0.15533 0.0
H3079 H 0.12116 0.63793 0.15926 0.0
H3080 H 0.21808 0.74865 0.20345 0.0
H3081 H 0.13905 0.68141 0.10132 0.0
H3082 H 0.15364 0.67841 0.17695 0.0
H3083 H 0.17866 0.7529 0.13638 0.0
C3084 C 0.20343 0.77533 0.16188 0.0
C3085 C 0.21475 0.77459 0.18098 0.0
C3086 C 0.15057 0.67897 0.16034 0.0
C3087 C 0.18238 0.72775 0.15952 0.0
C3088 C 0.13199 0.65595 0.15025 0.0
C3089 C 0.1273 0.65635 0.1288 0.0
C3090 C 0.16417 0.70262 0.14899 0.0
C3091 C 0.14203 0.68021 0.11787 0.0
C3092 C 0.18746 0.75199 0.15101 0.0
C3093 C 0.20977 0.75003 0.18872 0.0
N3094 N 0.15959 0.70249 0.12814 0.0
N3095 N 0.19368 0.72748 0.17805 0.0
H3096 H 0.31621 0.27254 0.03869 0.0
H3097 H 0.37219 0.38766 0.12323 0.0
H3098 H 0.29265 0.25858 0.10347 0.0
H3099 H 0.36466 0.40142 0.058 0.0
H3100 H 0.35026 0.34018 0.11627 0.0
H3101 H 0.34145 0.31999 0.04576 0.0
C3102 C 0.31645 0.2794 0.05442 0.0
C3103 C 0.30212 0.26156 0.0705 0.0
C3104 C 0.35349 0.35366 0.10352 0.0
C3105 C 0.33115 0.31574 0.07863 0.0
C3106 C 0.36607 0.38075 0.10743 0.0
C3107 C 0.37011 0.39853 0.09118 0.0
C3108 C 0.3453 0.34434 0.08318 0.0
C3109 C 0.36176 0.3884 0.07101 0.0
C3110 C 0.33078 0.30648 0.0584 0.0
C3111 C 0.30323 0.27163 0.09058 0.0
N3112 N 0.3498 0.36194 0.06756 0.0
N3113 N 0.31756 0.2981 0.0941 0.0
H3114 H 0.60501 0.98757 0.12095 0.0
H3115 H 0.72084 0.03515 0.03695 0.0
H3116 H 0.59122 0.9598 0.0572 0.0
H3117 H 0.73373 0.03563 0.10336 0.0
H3118 H 0.67324 0.01435 0.04339 0.0
H3119 H 0.65244 0.0124 0.11381 0.0
C3120 C 0.61189 0.98681 0.10541 0.0
C3121 C 0.59409 0.97138 0.08969 0.0
C3122 C 0.68656 0.01909 0.05651 0.0
C3123 C 0.64833 -0.0001 0.08146 0.0
C3124 C 0.71371 0.03102 0.05288 0.0
C3125 C 0.73128 0.03697 0.06965 0.0
C3126 C 0.67699 0.01345 0.07705 0.0
C3127 C 0.7209 0.03118 0.08996 0.0
C3128 C 0.63898 0.00092 0.1014 0.0
C3129 C 0.60423 0.97125 0.06984 0.0
N3130 N 0.69442 0.01978 0.09309 0.0
N3131 N 0.63071 0.98531 0.06628 0.0
H3132 H 0.95813 0.69832 0.10504 0.0
H3133 H 0.03382 0.63025 0.05507 0.0
H3134 H 0.95516 0.68121 0.0392 0.0
H3135 H 0.01393 0.62388 0.12056 0.0
H3136 H 0.00741 0.65143 0.04896 0.0
H3137 H 0.98087 0.6734 0.11112 0.0
C3138 C 0.96216 0.68926 0.09187 0.0
C3139 C 0.95482 0.69198 0.07156 0.0
C3140 C 0.00872 0.64525 0.06464 0.0
C3141 C 0.98101 0.66361 0.07843 0.0
C3142 C 0.02389 0.63326 0.06817 0.0
C3143 C 0.0262 0.62537 0.08838 0.0
C3144 C -0.00393 0.6497 0.08147 0.0
C3145 C 0.01273 0.62964 0.10472 0.0
C3146 C 0.97507 0.67497 0.09537 0.0
C3147 C 0.96045 0.67966 0.05511 0.0
N3148 N -0.00159 0.64172 0.10093 0.0
N3149 N 0.97343 0.66621 0.05889 0.0
H3150 H 0.26942 0.313 0.45635 0.0
H3151 H 0.38595 0.3721 0.37224 0.0
H3152 H 0.25655 0.29539 0.39049 0.0
H3153 H 0.39876 0.3657 0.43787 0.0
H3154 H 0.33838 0.35036 0.37881 0.0
H3155 H 0.31699 0.33886 0.44981 0.0
C3156 C 0.27655 0.31468 0.4405 0.0
C3157 C 0.25896 0.30184 0.42395 0.0
C3158 C 0.35166 0.3538 0.39175 0.0
C3159 C 0.31332 0.3315 0.41642 0.0
C3160 C 0.37881 0.36628 0.38804 0.0
C3161 C 0.39638 0.37058 0.40451 0.0
C3162 C 0.34203 0.34586 0.41209 0.0
C3163 C 0.38595 0.36261 0.42467 0.0
C3164 C 0.3037 0.32936 0.43681 0.0
C3165 C 0.26938 0.30476 0.40374 0.0
N3166 N 0.35944 0.35064 0.42789 0.0
N3167 N 0.29589 0.3193 0.40054 0.0
H3168 H 0.62594 0.03388 0.43878 0.0
H3169 H 0.6975 0.96149 0.38895 0.0
H3170 H 0.62114 0.01504 0.37317 0.0
H3171 H 0.67926 0.9572 0.45467 0.0
H3172 H 0.67188 0.9835 0.38284 0.0
H3173 H 0.64783 0.00814 0.44496 0.0
C3174 C 0.62941 0.02429 0.42568 0.0
C3175 C 0.62178 0.02673 0.4054 0.0
C3176 C 0.67337 0.97758 0.39857 0.0
C3177 C 0.64697 -0.00258 0.41239 0.0
C3178 C 0.68807 0.9651 0.4021 0.0
C3179 C 0.69064 0.95757 0.42238 0.0
C3180 C 0.66144 0.9829 0.41546 0.0
C3181 C 0.67783 0.96265 0.43878 0.0
C3182 C 0.64182 0.00953 0.42924 0.0
C3183 C 0.62668 0.01373 0.38905 0.0
N3184 N 0.66397 0.97521 0.43498 0.0
N3185 N 0.63917 -0.00018 0.39289 0.0
H3186 H 0.03596 0.72102 0.45616 0.0
H3187 H 0.98074 0.6053 0.37147 0.0
H3188 H 0.03218 0.73427 0.39022 0.0
H3189 H 0.96117 0.59172 0.43703 0.0
H3190 H 0.00635 0.65278 0.37832 0.0
H3191 H 0.01509 0.67357 0.44943 0.0
C3192 C 0.0309 0.71401 0.44025 0.0
C3193 C 0.03565 0.73166 0.42374 0.0
C3194 C -0.0035 0.63936 0.39118 0.0
C3195 C 0.01193 0.67743 0.416 0.0
C3196 C 0.98194 0.61224 0.38732 0.0
C3197 C 0.96859 0.59448 0.40368 0.0
C3198 C -0.00204 0.64876 0.41156 0.0
C3199 C 0.97095 0.60468 0.42391 0.0
C3200 C 0.01892 0.68692 0.43646 0.0
C3201 C 0.02869 0.72139 0.40346 0.0
N3202 N 0.98534 0.63116 0.42727 0.0
N3203 N 0.01717 0.69493 0.40016 0.0
H3204 H 0.62512 0.59101 0.93853 0.0
H3205 H 0.69735 0.735 0.88863 0.0
H3206 H 0.62086 0.60492 0.8728 0.0
H3207 H 0.67876 0.72088 0.95429 0.0
H3208 H 0.67152 0.68737 0.88244 0.0
H3209 H 0.647 0.63863 0.94461 0.0
C3210 C 0.6287 0.60405 0.92537 0.0
C3211 C 0.62123 0.59394 0.9051 0.0
C3212 C 0.67297 0.69475 0.89817 0.0
C3213 C 0.64642 0.64847 0.91198 0.0
C3214 C 0.68778 0.72193 0.90174 0.0
C3215 C 0.69034 0.73198 0.92203 0.0
C3216 C 0.66092 0.67747 0.91504 0.0
C3217 C 0.67737 0.71405 0.93839 0.0
C3218 C 0.64111 0.63123 0.92888 0.0
C3219 C 0.62628 0.61181 0.88869 0.0
N3220 N 0.66341 0.68765 0.93455 0.0
N3221 N 0.63877 0.63824 0.89247 0.0
H3222 H 0.26924 0.95567 0.95647 0.0
H3223 H 0.38593 0.01243 0.87252 0.0
H3224 H 0.25662 0.96032 0.89054 0.0
H3225 H 0.39875 0.03163 0.93814 0.0
H3226 H 0.33836 0.98687 0.87905 0.0
H3227 H 0.31682 0.97722 0.95003 0.0
C3228 C 0.27642 0.96107 0.94063 0.0
C3229 C 0.2589 0.95633 0.92403 0.0
C3230 C 0.35163 0.99664 0.892 0.0
C3231 C 0.31327 0.98083 0.91661 0.0
C3232 C 0.3788 0.01117 0.88832 0.0
C3233 C 0.39638 0.02436 0.9048 0.0
C3234 C 0.342 0.99503 0.91232 0.0
C3235 C 0.38594 0.02196 0.92494 0.0
C3236 C 0.30358 0.97344 0.937 0.0
C3237 C 0.26939 0.96376 0.90383 0.0
N3238 N 0.35941 0.00757 0.92814 0.0
N3239 N 0.29591 0.97564 0.90069 0.0
H3240 H 0.03806 0.31606 0.95684 0.0
H3241 H 0.97926 0.37321 0.8722 0.0
H3242 H 0.03429 0.29898 0.89094 0.0
H3243 H 0.96027 0.36736 0.93786 0.0
H3244 H 0.00596 0.35252 0.87902 0.0
H3245 H 0.01594 0.34152 0.95018 0.0
C3246 C 0.03276 0.31779 0.94096 0.0
C3247 C 0.03786 0.30519 0.92444 0.0
C3248 C -0.00401 0.35585 0.89192 0.0
C3249 C 0.0127 0.33436 0.91676 0.0
C3250 C 0.9808 0.36773 0.88807 0.0
C3251 C 0.96732 0.37185 0.90446 0.0
C3252 C -0.00204 0.3483 0.91233 0.0
C3253 C 0.97013 0.36437 0.92471 0.0
C3254 C 0.02006 0.33224 0.9372 0.0
C3255 C 0.03055 0.30816 0.90418 0.0
N3256 N 0.98514 0.35293 0.92807 0.0
N3257 N 0.01833 0.32244 0.90092 0.0
H3258 H 0.73399 0.70446 0.60584 0.0
H3259 H 0.58998 0.6238 0.5572 0.0
H3260 H 0.71971 0.67624 0.54222 0.0
H3261 H 0.60397 0.6256 0.62351 0.0
H3262 H 0.63764 0.64599 0.55123 0.0
H3263 H 0.68639 0.67852 0.61257 0.0
C3264 C 0.72089 0.69278 0.59331 0.0
C3265 C 0.73087 0.69264 0.5734 0.0
C3266 C 0.63025 0.64136 0.56708 0.0
C3267 C 0.67649 0.66316 0.58099 0.0
C3268 C 0.60306 0.6288 0.57051 0.0
C3269 C 0.59298 0.62293 0.5909 0.0
C3270 C 0.64753 0.6485 0.58415 0.0
C3271 C 0.61088 0.62973 0.60753 0.0
C3272 C 0.69377 0.67792 0.5972 0.0
C3273 C 0.71296 0.67702 0.55779 0.0
N3274 N 0.63735 0.64241 0.60381 0.0
N3275 N 0.68662 0.66309 0.56188 0.0
H3276 H 0.29125 0.03176 0.60455 0.0
H3277 H 0.36197 0.95834 0.55508 0.0
H3278 H 0.30973 0.0359 0.53889 0.0
H3279 H 0.36664 0.97723 0.62068 0.0
H3280 H 0.34039 0.98436 0.54879 0.0
H3281 H 0.31648 0.00938 0.61079 0.0
C3282 C 0.30066 0.02804 0.59144 0.0
C3283 C 0.29826 0.03563 0.57114 0.0
C3284 C 0.3463 0.98292 0.56453 0.0
C3285 C 0.32701 0.00987 0.5782 0.0
C3286 C 0.35852 0.96799 0.56816 0.0
C3287 C 0.36603 0.96549 0.58847 0.0
C3288 C 0.34123 0.99513 0.58134 0.0
C3289 C 0.36119 0.97857 0.60478 0.0
C3290 C 0.31514 0.01535 0.59504 0.0
C3291 C 0.31102 0.0304 0.55479 0.0
N3292 N 0.34889 0.99266 0.60088 0.0
N3293 N 0.32467 0.01764 0.55866 0.0
H3294 H 0.00384 0.38918 0.61981 0.0
H3295 H 0.95647 0.27295 0.53635 0.0
H3296 H 0.03346 0.4025 0.55656 0.0
H3297 H 0.95401 0.26034 0.60293 0.0
H3298 H 0.9778 0.32065 0.54252 0.0
H3299 H 0.97828 0.34186 0.61264 0.0
C3300 C 0.00487 0.38222 0.60436 0.0
C3301 C 0.02104 0.39986 0.5888 0.0
C3302 C 0.97249 0.30737 0.55573 0.0
C3303 C 0.99167 0.3457 0.58054 0.0
C3304 C 0.96025 0.28017 0.55225 0.0
C3305 C 0.95362 0.26266 0.56916 0.0
C3306 C 0.97774 0.31702 0.57624 0.0
C3307 C 0.959 0.27313 0.58943 0.0
C3308 C 0.99032 0.35519 0.60033 0.0
C3309 C 0.02145 0.38962 0.56907 0.0
N3310 N 0.97071 0.29965 0.5924 0.0
N3311 N 0.00696 0.36316 0.5655 0.0
H3312 H 0.92265 0.62744 0.72292 0.0
H3313 H 0.06656 0.69826 0.77292 0.0
H3314 H 0.93678 0.64567 0.78861 0.0
H3315 H 0.0528 0.70209 0.7071 0.0
H3316 H 0.01895 0.67692 0.77901 0.0
H3317 H 0.9703 0.65278 0.71677 0.0
C3318 C 0.93573 0.63683 0.73605 0.0
C3319 C 0.92567 0.6343 0.75634 0.0
C3320 C 0.0264 0.68259 0.76326 0.0
C3321 C 0.98022 0.66316 0.74938 0.0
C3322 C 0.05356 0.69469 0.75975 0.0
C3323 C 0.06371 0.70188 0.73944 0.0
C3324 C 0.00921 0.67733 0.74634 0.0
C3325 C 0.04589 0.69688 0.72301 0.0
C3326 C 0.96293 0.65136 0.7325 0.0
C3327 C 0.94361 0.64704 0.77272 0.0
N3328 N 0.01948 0.68471 0.7268 0.0
N3329 N 0.97003 0.66073 0.7689 0.0
H3330 H 0.29553 0.36953 0.7707 0.0
H3331 H 0.36178 0.2913 0.72255 0.0
H3332 H 0.2823 0.34127 0.70709 0.0
H3333 H 0.34898 0.29299 0.78878 0.0
H3334 H 0.33569 0.31281 0.71634 0.0
H3335 H 0.31816 0.34458 0.77751 0.0
C3336 C 0.2973 0.35804 0.75819 0.0
C3337 C 0.28709 0.3576 0.73826 0.0
C3338 C 0.33849 0.30832 0.73221 0.0
C3339 C 0.31313 0.32926 0.74594 0.0
C3340 C 0.35346 0.29616 0.73579 0.0
C3341 C 0.35765 0.29042 0.75623 0.0
C3342 C 0.32796 0.31517 0.7492 0.0
C3343 C 0.34625 0.29703 0.77277 0.0
C3344 C 0.31013 0.34375 0.76212 0.0
C3345 C 0.28987 0.34224 0.72268 0.0
N3346 N 0.3321 0.30928 0.7689 0.0
N3347 N 0.30284 0.32888 0.72681 0.0
H3348 H 0.63939 0.9383 0.70411 0.0
H3349 H 0.70726 0.05512 0.78714 0.0
H3350 H 0.62717 0.92613 0.7706 0.0
H3351 H 0.69277 0.0682 0.72332 0.0
H3352 H 0.6846 0.00764 0.78039 0.0
H3353 H 0.66561 0.98603 0.71015 0.0
C3354 C 0.64232 0.94562 0.71997 0.0
C3355 C 0.63094 0.9282 0.73688 0.0
C3356 C 0.68646 0.02094 0.76788 0.0
C3357 C 0.66103 0.98264 0.74382 0.0
C3358 C 0.69947 0.04807 0.77167 0.0
C3359 C 0.70176 0.0657 0.75581 0.0
C3360 C 0.67597 0.01136 0.74802 0.0
C3361 C 0.69129 0.05533 0.73606 0.0
C3362 C 0.65719 0.97284 0.72337 0.0
C3363 C 0.63538 0.93883 0.75709 0.0
N3364 N 0.67885 0.0288 0.73271 0.0
N3365 N 0.65015 0.96537 0.76 0.0
H3366 H 0.28898 0.93726 0.20653 0.0
H3367 H 0.34662 0.05494 0.28946 0.0
H3368 H 0.29485 0.92529 0.27242 0.0
H3369 H 0.3639 0.06692 0.22349 0.0
H3370 H 0.32153 0.00723 0.28348 0.0
H3371 H 0.31042 0.98483 0.21265 0.0
C3372 C 0.29464 0.94458 0.22231 0.0
C3373 C 0.29023 0.92722 0.23898 0.0
C3374 C 0.33079 0.02035 0.27034 0.0
C3375 C 0.31467 0.98166 0.24603 0.0
C3376 C 0.34504 0.04759 0.2737 0.0
C3377 C 0.35753 0.06499 0.25696 0.0
C3378 C 0.32874 0.01045 0.25007 0.0
C3379 C 0.35476 0.05427 0.23689 0.0
C3380 C 0.30696 0.97175 0.22575 0.0
C3381 C 0.298 0.93792 0.25908 0.0
N3382 N 0.34064 0.02768 0.23401 0.0
N3383 N 0.30984 0.96448 0.26204 0.0
H3384 H 0.93682 0.29007 0.28933 0.0
H3385 H 0.05399 0.34792 0.20581 0.0
H3386 H 0.92437 0.29425 0.22331 0.0
H3387 H 0.06629 0.3675 0.27139 0.0
H3388 H 0.0064 0.32201 0.21218 0.0
H3389 H 0.98448 0.31234 0.28308 0.0
C3390 C 0.94406 0.29551 0.27351 0.0
C3391 C 0.92655 0.29042 0.25683 0.0
C3392 C 0.01956 0.33196 0.22516 0.0
C3393 C 0.98102 0.31576 0.24962 0.0
C3394 C 0.04673 0.34669 0.22157 0.0
C3395 C 0.06418 0.36006 0.23808 0.0
C3396 C 0.00977 0.33032 0.24542 0.0
C3397 C 0.05358 0.3577 0.25816 0.0
C3398 C 0.97126 0.30831 0.26999 0.0
C3399 C 0.93712 0.29795 0.23666 0.0
N3400 N 0.02705 0.34309 0.26127 0.0
N3401 N 0.96368 0.31022 0.23362 0.0
H3402 H 0.69412 0.62319 0.22329 0.0
H3403 H 0.62878 0.7024 0.27124 0.0
H3404 H 0.70675 0.6508 0.28707 0.0
H3405 H 0.64238 0.70129 0.20509 0.0
H3406 H 0.65429 0.68031 0.27754 0.0
H3407 H 0.67204 0.64867 0.2164 0.0
C3408 C 0.69232 0.63464 0.23583 0.0
C3409 C 0.70221 0.63476 0.25582 0.0
C3410 C 0.65181 0.68506 0.26166 0.0
C3411 C 0.67683 0.66371 0.24804 0.0
C3412 C 0.63717 0.69757 0.25804 0.0
C3413 C 0.63337 0.70363 0.2376 0.0
C3414 C 0.66238 0.67819 0.24472 0.0
C3415 C 0.64484 0.69702 0.22111 0.0
C3416 C 0.67981 0.64923 0.23185 0.0
C3417 C 0.69942 0.65007 0.27143 0.0
N3418 N 0.65865 0.68442 0.22502 0.0
N3419 N 0.68678 0.66374 0.26725 0.0
loop_
_geom_bond_atom_site_label_1
_geom_bond_atom_site_label_2
_geom_bond_distance
_geom_bond_site_symmetry_2
_ccdc_geom_bond_type
Co0 O2 2.143 . S
Co0 O8 2.074 . S
Co0 O11 2.093 . S
Co0 O24 2.097 . S
Co0 N41 2.151 . S
Co0 N49 2.214 . S
Co1 O2 2.160 . S
Co1 O7 2.058 . S
Co1 O17 2.057 . S
Co1 O32 2.037 . S
Co1 N36 2.145 . S
Co1 N57 2.257 . S
O2 Co0 2.143 . S
O2 Co1 2.160 . S
C3 O4 1.278 . S
C3 O11 1.224 . S
O4 C3 1.278 . S
C5 O6 1.245 . S
C5 O17 1.232 . S
O6 C5 1.245 . S
O7 Co1 2.058 . S
O7 C33 1.269 . S
O8 Co0 2.074 . S
O8 C33 1.257 . S
H9 C34 0.930 . S
H10 C40 0.930 . S
O11 Co0 2.093 . S
O11 C3 1.224 . S
H12 C44 0.929 . S
H13 C46 0.930 . S
H14 C47 0.930 . S
H15 C45 0.929 . S
H16 C48 0.928 . S
O17 Co1 2.057 . S
O17 C5 1.232 . S
H18 C37 0.929 . S
H19 C38 0.929 . S
H20 C50 0.931 . S
H21 C42 0.929 . S
H22 C51 0.930 . S
H23 C43 0.931 . S
O24 Co0 2.097 . S
O24 C52 1.214 . S
H25 C53 0.929 . S
H26 C54 0.929 . S
H27 C55 0.930 . S
H28 C56 0.929 . S
H29 C58 0.930 . S
H30 C35 0.930 . S
H31 C39 0.930 . S
O32 Co1 2.037 . S
O32 C52 1.234 . S
C33 O7 1.269 . S
C33 O8 1.257 . S
C34 H9 0.930 . S
C34 C37 1.388 1_556 S
C34 C39 1.418 . S
C35 H30 0.930 . S
C35 C38 1.404 . S
C35 C39 1.353 . S
N36 Co1 2.145 . S
N36 C37 1.397 . S
N36 C38 1.334 1_554 S
C37 H18 0.929 . S
C37 C34 1.388 1_554 S
C37 N36 1.397 . S
C38 H19 0.929 . S
C38 C35 1.404 . S
C38 N36 1.334 1_556 S
C39 H31 0.930 . S
C39 C34 1.418 . S
C39 C35 1.353 . S
C40 H10 0.930 . S
C40 N41 1.330 . S
C40 C42 1.446 . S
N41 Co0 2.151 . S
N41 C40 1.330 . S
N41 C45 1.418 . S
C42 H21 0.929 . S
C42 C40 1.446 . S
C42 C43 1.332 . S
C43 H23 0.931 . S
C43 C42 1.332 . S
C43 C44 1.267 . S
C44 H12 0.929 . S
C44 C43 1.267 . S
C44 C45 1.251 . S
C45 H15 0.929 . S
C45 N41 1.418 . S
C45 C44 1.251 . S
C46 H13 0.930 . S
C46 C48 1.406 . S
C46 C51 1.261 . S
C47 H14 0.930 . S
C47 N49 1.325 . S
C47 C50 1.357 . S
C48 H16 0.928 . S
C48 C46 1.406 . S
C48 N49 1.261 . S
N49 Co0 2.214 . S
N49 C47 1.325 . S
N49 C48 1.261 . S
C50 H20 0.931 . S
C50 C47 1.357 . S
C50 C51 1.312 . S
C51 H22 0.930 . S
C51 C46 1.261 . S
C51 C50 1.312 . S
C52 O24 1.214 . S
C52 O32 1.234 . S
C53 H25 0.929 . S
C53 C56 1.391 . S
C53 C58 1.391 . S
C54 H26 0.929 . S
C54 C55 1.390 . S
C54 N57 1.391 . S
C55 H27 0.930 . S
C55 C54 1.390 . S
C55 C56 1.392 . S
C56 H28 0.929 . S
C56 C53 1.391 . S
C56 C55 1.392 . S
N57 Co1 2.257 . S
N57 C54 1.391 . S
N57 C58 1.388 . S
C58 H29 0.930 . S
C58 C53 1.391 . S
C58 N57 1.388 . S
Co59 O61 2.143 . S
Co59 O67 2.074 . S
Co59 O70 2.093 . S
Co59 O83 2.097 . S
Co59 N100 2.151 . S
Co59 N108 2.214 . S
Co60 O61 2.160 . S
Co60 O66 2.058 . S
Co60 O76 2.057 . S
Co60 O91 2.037 . S
Co60 N95 2.145 . S
Co60 N116 2.257 . S
O61 Co59 2.143 . S
O61 Co60 2.160 . S
C62 O63 1.278 . S
C62 O70 1.224 . S
O63 C62 1.278 . S
C64 O65 1.245 . S
C64 O76 1.232 . S
O65 C64 1.245 . S
O66 Co60 2.058 . S
O66 C92 1.269 . S
O67 Co59 2.074 . S
O67 C92 1.257 . S
H68 C93 0.930 . S
H69 C99 0.930 . S
O70 Co59 2.093 . S
O70 C62 1.224 . S
H71 C103 0.929 . S
H72 C105 0.930 . S
H73 C106 0.935 . S
H74 C104 0.929 . S
H75 C107 0.928 . S
O76 Co60 2.057 . S
O76 C64 1.232 . S
H77 C96 0.929 . S
H78 C97 0.929 . S
H79 C109 0.931 . S
H80 C101 0.929 . S
H81 C110 0.930 . S
H82 C102 0.931 . S
O83 Co59 2.097 . S
O83 C111 1.214 . S
H84 C112 0.929 . S
H85 C113 0.929 . S
H86 C114 0.930 . S
H87 C115 0.929 . S
H88 C117 0.930 . S
H89 C94 0.930 . S
H90 C98 0.930 . S
O91 Co60 2.037 . S
O91 C111 1.234 . S
C92 O66 1.269 . S
C92 O67 1.257 . S
C93 H68 0.930 . S
C93 C96 1.388 1_556 S
C93 C98 1.418 . S
C94 H89 0.930 . S
C94 C97 1.404 . S
C94 C98 1.353 . S
N95 Co60 2.145 . S
N95 C96 1.397 . S
N95 C97 1.334 1_554 S
C96 H77 0.929 . S
C96 C93 1.388 1_554 S
C96 N95 1.397 . S
C97 H78 0.929 . S
C97 C94 1.404 . S
C97 N95 1.334 1_556 S
C98 H90 0.930 . S
C98 C93 1.418 . S
C98 C94 1.353 . S
C99 H69 0.930 . S
C99 N100 1.330 . S
C99 C101 1.446 . S
N100 Co59 2.151 . S
N100 C99 1.330 . S
N100 C104 1.418 . S
C101 H80 0.929 . S
C101 C99 1.446 . S
C101 C102 1.332 . S
C102 H82 0.931 . S
C102 C101 1.332 . S
C102 C103 1.267 . S
C103 H71 0.929 . S
C103 C102 1.267 . S
C103 C104 1.251 . S
C104 H74 0.929 . S
C104 N100 1.418 . S
C104 C103 1.251 . S
C105 H72 0.930 . S
C105 C107 1.406 1_565 S
C105 C110 1.261 . S
C106 H73 0.935 . S
C106 N108 1.333 . S
C106 C109 1.345 1_545 S
C107 H75 0.928 . S
C107 C105 1.406 1_545 S
C107 N108 1.261 . S
N108 Co59 2.214 . S
N108 C106 1.333 . S
N108 C107 1.261 . S
C109 H79 0.931 . S
C109 C106 1.345 1_565 S
C109 C110 1.312 . S
C110 H81 0.930 . S
C110 C105 1.261 . S
C110 C109 1.312 . S
C111 O83 1.214 . S
C111 O91 1.234 . S
C112 H84 0.929 . S
C112 C115 1.391 . S
C112 C117 1.391 . S
C113 H85 0.929 . S
C113 C114 1.390 . S
C113 N116 1.391 . S
C114 H86 0.930 . S
C114 C113 1.390 . S
C114 C115 1.392 . S
C115 H87 0.929 . S
C115 C112 1.391 . S
C115 C114 1.392 . S
N116 Co60 2.257 . S
N116 C113 1.391 . S
N116 C117 1.388 . S
C117 H88 0.930 . S
C117 C112 1.391 . S
C117 N116 1.388 . S
Co118 O120 2.143 . S
Co118 O126 2.074 . S
Co118 O129 2.093 . S
Co118 O142 2.097 . S
Co118 N159 2.151 . S
Co118 N167 2.214 . S
Co119 O120 2.160 . S
Co119 O125 2.058 . S
Co119 O135 2.057 . S
Co119 O150 2.037 . S
Co119 N154 2.145 . S
Co119 N175 2.257 . S
O120 Co118 2.143 . S
O120 Co119 2.160 . S
C121 O122 1.278 . S
C121 O129 1.224 . S
O122 C121 1.278 . S
C123 O124 1.245 . S
C123 O135 1.232 . S
O124 C123 1.245 . S
O125 Co119 2.058 . S
O125 C151 1.269 . S
O126 Co118 2.074 . S
O126 C151 1.257 . S
H127 C152 0.930 . S
H128 C158 0.930 . S
O129 Co118 2.093 . S
O129 C121 1.224 . S
H130 C162 0.929 . S
H131 C164 0.930 . S
H132 C165 0.928 . S
H133 C163 0.929 . S
H134 C166 0.928 . S
O135 Co119 2.057 . S
O135 C123 1.232 . S
H136 C155 0.929 . S
H137 C156 0.929 . S
H138 C168 0.931 . S
H139 C160 0.929 . S
H140 C169 0.930 . S
H141 C161 0.931 . S
O142 Co118 2.097 . S
O142 C170 1.214 . S
H143 C171 0.929 . S
H144 C172 0.929 . S
H145 C173 0.930 . S
H146 C174 0.929 . S
H147 C176 0.930 . S
H148 C153 0.930 . S
H149 C157 0.930 . S
O150 Co119 2.037 . S
O150 C170 1.234 . S
C151 O125 1.269 . S
C151 O126 1.257 . S
C152 H127 0.930 . S
C152 C155 1.388 1_556 S
C152 C157 1.418 . S
C153 H148 0.930 . S
C153 C156 1.404 . S
C153 C157 1.353 . S
N154 Co119 2.145 . S
N154 C155 1.397 . S
N154 C156 1.334 1_554 S
C155 H136 0.929 . S
C155 C152 1.388 1_554 S
C155 N154 1.397 . S
C156 H137 0.929 . S
C156 C153 1.404 . S
C156 N154 1.334 1_556 S
C157 H149 0.930 . S
C157 C152 1.418 . S
C157 C153 1.353 . S
C158 H128 0.930 . S
C158 N159 1.330 . S
C158 C160 1.446 . S
N159 Co118 2.151 . S
N159 C158 1.330 . S
N159 C163 1.418 . S
C160 H139 0.929 . S
C160 C158 1.446 . S
C160 C161 1.332 . S
C161 H141 0.931 . S
C161 C160 1.332 . S
C161 C162 1.267 . S
C162 H130 0.929 . S
C162 C161 1.267 . S
C162 C163 1.251 . S
C163 H133 0.929 . S
C163 N159 1.418 . S
C163 C162 1.251 . S
C164 H131 0.930 . S
C164 C166 1.406 1_455 S
C164 C169 1.261 . S
C165 H132 0.928 . S
C165 N167 1.342 . S
C165 C168 1.342 1_655 S
C166 H134 0.928 . S
C166 C164 1.406 1_655 S
C166 N167 1.261 . S
N167 Co118 2.214 . S
N167 C165 1.342 . S
N167 C166 1.261 . S
C168 H138 0.931 . S
C168 C165 1.342 1_455 S
C168 C169 1.312 . S
C169 H140 0.930 . S
C169 C164 1.261 . S
C169 C168 1.312 . S
C170 O142 1.214 . S
C170 O150 1.234 . S
C171 H143 0.929 . S
C171 C174 1.391 . S
C171 C176 1.391 . S
C172 H144 0.929 . S
C172 C173 1.390 . S
C172 N175 1.391 . S
C173 H145 0.930 . S
C173 C172 1.390 . S
C173 C174 1.392 . S
C174 H146 0.929 . S
C174 C171 1.391 . S
C174 C173 1.392 . S
N175 Co119 2.257 . S
N175 C172 1.391 . S
N175 C176 1.388 . S
C176 H147 0.930 . S
C176 C171 1.391 . S
C176 N175 1.388 . S
Co177 O179 2.143 . S
Co177 O185 2.074 . S
Co177 O188 2.093 . S
Co177 O201 2.097 . S
Co177 N218 2.151 . S
Co177 N226 2.214 . S
Co178 O179 2.160 . S
Co178 O184 2.058 . S
Co178 O194 2.057 . S
Co178 O209 2.037 . S
Co178 N213 2.145 . S
Co178 N234 2.257 . S
O179 Co177 2.143 . S
O179 Co178 2.160 . S
C180 O181 1.278 . S
C180 O188 1.224 . S
O181 C180 1.278 . S
C182 O183 1.245 . S
C182 O194 1.232 . S
O183 C182 1.245 . S
O184 Co178 2.058 . S
O184 C210 1.269 . S
O185 Co177 2.074 . S
O185 C210 1.257 . S
H186 C211 0.930 . S
H187 C217 0.930 . S
O188 Co177 2.093 . S
O188 C180 1.224 . S
H189 C221 0.929 . S
H190 C223 0.930 . S
H191 C224 0.930 . S
H192 C222 0.929 . S
H193 C225 0.928 . S
O194 Co178 2.057 . S
O194 C182 1.232 . S
H195 C214 0.929 . S
H196 C215 0.929 . S
H197 C227 0.931 . S
H198 C219 0.929 . S
H199 C228 0.930 . S
H200 C220 0.931 . S
O201 Co177 2.097 . S
O201 C229 1.214 . S
H202 C230 0.929 . S
H203 C231 0.929 . S
H204 C232 0.930 . S
H205 C233 0.929 . S
H206 C235 0.930 . S
H207 C212 0.930 . S
H208 C216 0.930 . S
O209 Co178 2.037 . S
O209 C229 1.234 . S
C210 O184 1.269 . S
C210 O185 1.257 . S
C211 H186 0.930 . S
C211 C214 1.388 . S
C211 C216 1.418 . S
C212 H207 0.930 . S
C212 C215 1.404 . S
C212 C216 1.353 . S
N213 Co178 2.145 . S
N213 C214 1.397 . S
N213 C215 1.334 . S
C214 H195 0.929 . S
C214 C211 1.388 . S
C214 N213 1.397 . S
C215 H196 0.929 . S
C215 C212 1.404 . S
C215 N213 1.334 . S
C216 H208 0.930 . S
C216 C211 1.418 . S
C216 C212 1.353 . S
C217 H187 0.930 . S
C217 N218 1.330 . S
C217 C219 1.446 . S
N218 Co177 2.151 . S
N218 C217 1.330 . S
N218 C222 1.418 . S
C219 H198 0.929 . S
C219 C217 1.446 . S
C219 C220 1.332 . S
C220 H200 0.931 . S
C220 C219 1.332 . S
C220 C221 1.267 . S
C221 H189 0.929 . S
C221 C220 1.267 . S
C221 C222 1.251 . S
C222 H192 0.929 . S
C222 N218 1.418 . S
C222 C221 1.251 . S
C223 H190 0.930 . S
C223 C225 1.406 . S
C223 C228 1.261 . S
C224 H191 0.930 . S
C224 N226 1.325 . S
C224 C227 1.357 . S
C225 H193 0.928 . S
C225 C223 1.406 . S
C225 N226 1.261 . S
N226 Co177 2.214 . S
N226 C224 1.325 . S
N226 C225 1.261 . S
C227 H197 0.931 . S
C227 C224 1.357 . S
C227 C228 1.312 . S
C228 H199 0.930 . S
C228 C223 1.261 . S
C228 C227 1.312 . S
C229 O201 1.214 . S
C229 O209 1.234 . S
C230 H202 0.929 . S
C230 C233 1.391 . S
C230 C235 1.391 . S
C231 H203 0.929 . S
C231 C232 1.390 . S
C231 N234 1.391 . S
C232 H204 0.930 . S
C232 C231 1.390 . S
C232 C233 1.392 . S
C233 H205 0.929 . S
C233 C230 1.391 . S
C233 C232 1.392 . S
N234 Co178 2.257 . S
N234 C231 1.391 . S
N234 C235 1.388 . S
C235 H206 0.930 . S
C235 C230 1.391 . S
C235 N234 1.388 . S
Co236 O238 2.143 . S
Co236 O244 2.074 . S
Co236 O247 2.093 . S
Co236 O260 2.097 . S
Co236 N277 2.151 . S
Co236 N285 2.214 . S
Co237 O238 2.160 . S
Co237 O243 2.058 . S
Co237 O253 2.057 . S
Co237 O268 2.037 . S
Co237 N272 2.145 . S
Co237 N293 2.257 . S
O238 Co236 2.143 . S
O238 Co237 2.160 . S
C239 O240 1.278 . S
C239 O247 1.224 . S
O240 C239 1.278 . S
C241 O242 1.245 . S
C241 O253 1.232 . S
O242 C241 1.245 . S
O243 Co237 2.058 . S
O243 C269 1.269 . S
O244 Co236 2.074 . S
O244 C269 1.257 . S
H245 C270 0.930 . S
H246 C276 0.930 . S
O247 Co236 2.093 . S
O247 C239 1.224 . S
H248 C280 0.929 . S
H249 C282 0.930 . S
H250 C283 0.928 . S
H251 C281 0.929 . S
H252 C284 0.928 . S
O253 Co237 2.057 . S
O253 C241 1.232 . S
H254 C273 0.929 . S
H255 C274 0.929 . S
H256 C286 0.931 . S
H257 C278 0.929 . S
H258 C287 0.930 . S
H259 C279 0.931 . S
O260 Co236 2.097 . S
O260 C288 1.214 . S
H261 C289 0.929 . S
H262 C290 0.929 . S
H263 C291 0.930 . S
H264 C292 0.929 . S
H265 C294 0.930 . S
H266 C271 0.930 . S
H267 C275 0.930 . S
O268 Co237 2.037 . S
O268 C288 1.234 . S
C269 O243 1.269 . S
C269 O244 1.257 . S
C270 H245 0.930 . S
C270 C273 1.388 . S
C270 C275 1.418 . S
C271 H266 0.930 . S
C271 C274 1.404 . S
C271 C275 1.353 . S
N272 Co237 2.145 . S
N272 C273 1.397 . S
N272 C274 1.334 . S
C273 H254 0.929 . S
C273 C270 1.388 . S
C273 N272 1.397 . S
C274 H255 0.929 . S
C274 C271 1.404 . S
C274 N272 1.334 . S
C275 H267 0.930 . S
C275 C270 1.418 . S
C275 C271 1.353 . S
C276 H246 0.930 . S
C276 N277 1.330 . S
C276 C278 1.446 . S
N277 Co236 2.151 . S
N277 C276 1.330 . S
N277 C281 1.418 . S
C278 H257 0.929 . S
C278 C276 1.446 . S
C278 C279 1.332 . S
C279 H259 0.931 . S
C279 C278 1.332 . S
C279 C280 1.267 . S
C280 H248 0.929 . S
C280 C279 1.267 . S
C280 C281 1.251 . S
C281 H251 0.929 . S
C281 N277 1.418 . S
C281 C280 1.251 . S
C282 H249 0.930 . S
C282 C284 1.406 1_545 S
C282 C287 1.261 . S
C283 H250 0.928 . S
C283 N285 1.342 . S
C283 C286 1.342 1_565 S
C284 H252 0.928 . S
C284 C282 1.406 1_565 S
C284 N285 1.261 . S
N285 Co236 2.214 . S
N285 C283 1.342 . S
N285 C284 1.261 . S
C286 H256 0.931 . S
C286 C283 1.342 1_545 S
C286 C287 1.312 . S
C287 H258 0.930 . S
C287 C282 1.261 . S
C287 C286 1.312 . S
C288 O260 1.214 . S
C288 O268 1.234 . S
C289 H261 0.929 . S
C289 C292 1.391 . S
C289 C294 1.391 . S
C290 H262 0.929 . S
C290 C291 1.390 . S
C290 N293 1.391 . S
C291 H263 0.930 . S
C291 C290 1.390 . S
C291 C292 1.392 . S
C292 H264 0.929 . S
C292 C289 1.391 . S
C292 C291 1.392 . S
N293 Co237 2.257 . S
N293 C290 1.391 . S
N293 C294 1.388 . S
C294 H265 0.930 . S
C294 C289 1.391 . S
C294 N293 1.388 . S
Co295 O297 2.143 . S
Co295 O303 2.074 . S
Co295 O306 2.093 . S
Co295 O319 2.097 . S
Co295 N336 2.151 . S
Co295 N344 2.214 . S
Co296 O297 2.160 . S
Co296 O302 2.058 . S
Co296 O312 2.057 . S
Co296 O327 2.037 . S
Co296 N331 2.145 . S
Co296 N352 2.257 . S
O297 Co295 2.143 . S
O297 Co296 2.160 . S
C298 O299 1.278 . S
C298 O306 1.224 . S
O299 C298 1.278 . S
C300 O301 1.245 . S
C300 O312 1.232 . S
O301 C300 1.245 . S
O302 Co296 2.058 . S
O302 C328 1.269 . S
O303 Co295 2.074 . S
O303 C328 1.257 . S
H304 C329 0.930 . S
H305 C335 0.930 . S
O306 Co295 2.093 . S
O306 C298 1.224 . S
H307 C339 0.929 . S
H308 C341 0.930 . S
H309 C342 0.935 . S
H310 C340 0.929 . S
H311 C343 0.928 . S
O312 Co296 2.057 . S
O312 C300 1.232 . S
H313 C332 0.929 . S
H314 C333 0.929 . S
H315 C345 0.931 . S
H316 C337 0.929 . S
H317 C346 0.930 . S
H318 C338 0.931 . S
O319 Co295 2.097 . S
O319 C347 1.214 . S
H320 C348 0.929 . S
H321 C349 0.929 . S
H322 C350 0.930 . S
H323 C351 0.929 . S
H324 C353 0.930 . S
H325 C330 0.930 . S
H326 C334 0.930 . S
O327 Co296 2.037 . S
O327 C347 1.234 . S
C328 O302 1.269 . S
C328 O303 1.257 . S
C329 H304 0.930 . S
C329 C332 1.388 . S
C329 C334 1.418 . S
C330 H325 0.930 . S
C330 C333 1.404 . S
C330 C334 1.353 . S
N331 Co296 2.145 . S
N331 C332 1.397 . S
N331 C333 1.334 . S
C332 H313 0.929 . S
C332 C329 1.388 . S
C332 N331 1.397 . S
C333 H314 0.929 . S
C333 C330 1.404 . S
C333 N331 1.334 . S
C334 H326 0.930 . S
C334 C329 1.418 . S
C334 C330 1.353 . S
C335 H305 0.930 . S
C335 N336 1.330 . S
C335 C337 1.446 . S
N336 Co295 2.151 . S
N336 C335 1.330 . S
N336 C340 1.418 . S
C337 H316 0.929 . S
C337 C335 1.446 . S
C337 C338 1.332 . S
C338 H318 0.931 . S
C338 C337 1.332 . S
C338 C339 1.267 . S
C339 H307 0.929 . S
C339 C338 1.267 . S
C339 C340 1.251 . S
C340 H310 0.929 . S
C340 N336 1.418 . S
C340 C339 1.251 . S
C341 H308 0.930 . S
C341 C343 1.406 1_655 S
C341 C346 1.261 . S
C342 H309 0.935 . S
C342 N344 1.333 . S
C342 C345 1.345 1_455 S
C343 H311 0.928 . S
C343 C341 1.406 1_455 S
C343 N344 1.261 . S
N344 Co295 2.214 . S
N344 C342 1.333 . S
N344 C343 1.261 . S
C345 H315 0.931 . S
C345 C342 1.345 1_655 S
C345 C346 1.312 . S
C346 H317 0.930 . S
C346 C341 1.261 . S
C346 C345 1.312 . S
C347 O319 1.214 . S
C347 O327 1.234 . S
C348 H320 0.929 . S
C348 C351 1.391 . S
C348 C353 1.391 . S
C349 H321 0.929 . S
C349 C350 1.390 . S
C349 N352 1.391 . S
C350 H322 0.930 . S
C350 C349 1.390 . S
C350 C351 1.392 . S
C351 H323 0.929 . S
C351 C348 1.391 . S
C351 C350 1.392 . S
N352 Co296 2.257 . S
N352 C349 1.391 . S
N352 C353 1.388 . S
C353 H324 0.930 . S
C353 C348 1.391 . S
C353 N352 1.388 . S
Co354 O356 2.143 . S
Co354 O362 2.074 . S
Co354 O365 2.093 . S
Co354 O378 2.097 . S
Co354 N395 2.151 . S
Co354 N403 2.214 . S
Co355 O356 2.160 . S
Co355 O361 2.058 . S
Co355 O371 2.057 . S
Co355 O386 2.037 . S
Co355 N390 2.145 . S
Co355 N411 2.257 . S
O356 Co354 2.143 . S
O356 Co355 2.160 . S
C357 O358 1.278 . S
C357 O365 1.224 . S
O358 C357 1.278 . S
C359 O360 1.245 . S
C359 O371 1.232 . S
O360 C359 1.245 . S
O361 Co355 2.058 . S
O361 C387 1.269 . S
O362 Co354 2.074 . S
O362 C387 1.257 . S
H363 C388 0.930 . S
H364 C394 0.930 . S
O365 Co354 2.093 . S
O365 C357 1.224 . S
H366 C398 0.929 . S
H367 C400 0.930 . S
H368 C401 0.930 . S
H369 C399 0.929 . S
H370 C402 0.928 . S
O371 Co355 2.057 . S
O371 C359 1.232 . S
H372 C391 0.929 . S
H373 C392 0.929 . S
H374 C404 0.931 . S
H375 C396 0.929 . S
H376 C405 0.930 . S
H377 C397 0.931 . S
O378 Co354 2.097 . S
O378 C406 1.214 . S
H379 C407 0.929 . S
H380 C408 0.929 . S
H381 C409 0.930 . S
H382 C410 0.929 . S
H383 C412 0.930 . S
H384 C389 0.930 . S
H385 C393 0.930 . S
O386 Co355 2.037 . S
O386 C406 1.234 . S
C387 O361 1.269 . S
C387 O362 1.257 . S
C388 H363 0.930 . S
C388 C391 1.388 1_554 S
C388 C393 1.418 . S
C389 H384 0.930 . S
C389 C392 1.404 . S
C389 C393 1.353 . S
N390 Co355 2.145 . S
N390 C391 1.397 . S
N390 C392 1.334 1_556 S
C391 H372 0.929 . S
C391 C388 1.388 1_556 S
C391 N390 1.397 . S
C392 H373 0.929 . S
C392 C389 1.404 . S
C392 N390 1.334 1_554 S
C393 H385 0.930 . S
C393 C388 1.418 . S
C393 C389 1.353 . S
C394 H364 0.930 . S
C394 N395 1.330 . S
C394 C396 1.446 . S
N395 Co354 2.151 . S
N395 C394 1.330 . S
N395 C399 1.418 . S
C396 H375 0.929 . S
C396 C394 1.446 . S
C396 C397 1.332 . S
C397 H377 0.931 . S
C397 C396 1.332 . S
C397 C398 1.267 . S
C398 H366 0.929 . S
C398 C397 1.267 . S
C398 C399 1.251 . S
C399 H369 0.929 . S
C399 N395 1.418 . S
C399 C398 1.251 . S
C400 H367 0.930 . S
C400 C402 1.406 . S
C400 C405 1.261 . S
C401 H368 0.930 . S
C401 N403 1.325 . S
C401 C404 1.357 . S
C402 H370 0.928 . S
C402 C400 1.406 . S
C402 N403 1.261 . S
N403 Co354 2.214 . S
N403 C401 1.325 . S
N403 C402 1.261 . S
C404 H374 0.931 . S
C404 C401 1.357 . S
C404 C405 1.312 . S
C405 H376 0.930 . S
C405 C400 1.261 . S
C405 C404 1.312 . S
C406 O378 1.214 . S
C406 O386 1.234 . S
C407 H379 0.929 . S
C407 C410 1.391 . S
C407 C412 1.391 . S
C408 H380 0.929 . S
C408 C409 1.390 . S
C408 N411 1.391 . S
C409 H381 0.930 . S
C409 C408 1.390 . S
C409 C410 1.392 . S
C410 H382 0.929 . S
C410 C407 1.391 . S
C410 C409 1.392 . S
N411 Co355 2.257 . S
N411 C408 1.391 . S
N411 C412 1.388 . S
C412 H383 0.930 . S
C412 C407 1.391 . S
C412 N411 1.388 . S
Co413 O415 2.143 . S
Co413 O421 2.074 . S
Co413 O424 2.093 . S
Co413 O437 2.097 . S
Co413 N454 2.151 . S
Co413 N462 2.214 . S
Co414 O415 2.160 . S
Co414 O420 2.058 . S
Co414 O430 2.057 . S
Co414 O445 2.037 . S
Co414 N449 2.145 . S
Co414 N470 2.257 . S
O415 Co413 2.143 . S
O415 Co414 2.160 . S
C416 O417 1.278 . S
C416 O424 1.224 . S
O417 C416 1.278 . S
C418 O419 1.245 . S
C418 O430 1.232 . S
O419 C418 1.245 . S
O420 Co414 2.058 . S
O420 C446 1.269 . S
O421 Co413 2.074 . S
O421 C446 1.257 . S
H422 C447 0.930 . S
H423 C453 0.930 . S
O424 Co413 2.093 . S
O424 C416 1.224 . S
H425 C457 0.929 . S
H426 C459 0.930 . S
H427 C460 0.935 . S
H428 C458 0.929 . S
H429 C461 0.928 . S
O430 Co414 2.057 . S
O430 C418 1.232 . S
H431 C450 0.929 . S
H432 C451 0.929 . S
H433 C463 0.931 . S
H434 C455 0.929 . S
H435 C464 0.930 . S
H436 C456 0.931 . S
O437 Co413 2.097 . S
O437 C465 1.214 . S
H438 C466 0.929 . S
H439 C467 0.929 . S
H440 C468 0.930 . S
H441 C469 0.929 . S
H442 C471 0.930 . S
H443 C448 0.930 . S
H444 C452 0.930 . S
O445 Co414 2.037 . S
O445 C465 1.234 . S
C446 O420 1.269 . S
C446 O421 1.257 . S
C447 H422 0.930 . S
C447 C450 1.388 1_554 S
C447 C452 1.418 . S
C448 H443 0.930 . S
C448 C451 1.404 . S
C448 C452 1.353 . S
N449 Co414 2.145 . S
N449 C450 1.397 . S
N449 C451 1.334 1_556 S
C450 H431 0.929 . S
C450 C447 1.388 1_556 S
C450 N449 1.397 . S
C451 H432 0.929 . S
C451 C448 1.404 . S
C451 N449 1.334 1_554 S
C452 H444 0.930 . S
C452 C447 1.418 . S
C452 C448 1.353 . S
C453 H423 0.930 . S
C453 N454 1.330 . S
C453 C455 1.446 . S
N454 Co413 2.151 . S
N454 C453 1.330 . S
N454 C458 1.418 . S
C455 H434 0.929 . S
C455 C453 1.446 . S
C455 C456 1.332 . S
C456 H436 0.931 . S
C456 C455 1.332 . S
C456 C457 1.267 . S
C457 H425 0.929 . S
C457 C456 1.267 . S
C457 C458 1.251 . S
C458 H428 0.929 . S
C458 N454 1.418 . S
C458 C457 1.251 . S
C459 H426 0.930 . S
C459 C461 1.406 1_545 S
C459 C464 1.261 . S
C460 H427 0.935 . S
C460 N462 1.333 . S
C460 C463 1.345 1_565 S
C461 H429 0.928 . S
C461 C459 1.406 1_565 S
C461 N462 1.261 . S
N462 Co413 2.214 . S
N462 C460 1.333 . S
N462 C461 1.261 . S
C463 H433 0.931 . S
C463 C460 1.345 1_545 S
C463 C464 1.312 . S
C464 H435 0.930 . S
C464 C459 1.261 . S
C464 C463 1.312 . S
C465 O437 1.214 . S
C465 O445 1.234 . S
C466 H438 0.929 . S
C466 C469 1.391 . S
C466 C471 1.391 . S
C467 H439 0.929 . S
C467 C468 1.390 . S
C467 N470 1.391 . S
C468 H440 0.930 . S
C468 C467 1.390 . S
C468 C469 1.392 . S
C469 H441 0.929 . S
C469 C466 1.391 . S
C469 C468 1.392 . S
N470 Co414 2.257 . S
N470 C467 1.391 . S
N470 C471 1.388 . S
C471 H442 0.930 . S
C471 C466 1.391 . S
C471 N470 1.388 . S
Co472 O474 2.143 . S
Co472 O480 2.074 . S
Co472 O483 2.093 . S
Co472 O496 2.097 . S
Co472 N513 2.151 . S
Co472 N521 2.214 . S
Co473 O474 2.160 . S
Co473 O479 2.058 . S
Co473 O489 2.057 . S
Co473 O504 2.037 . S
Co473 N508 2.145 . S
Co473 N529 2.257 . S
O474 Co472 2.143 . S
O474 Co473 2.160 . S
C475 O476 1.278 . S
C475 O483 1.224 . S
O476 C475 1.278 . S
C477 O478 1.245 . S
C477 O489 1.232 . S
O478 C477 1.245 . S
O479 Co473 2.058 . S
O479 C505 1.269 . S
O480 Co472 2.074 . S
O480 C505 1.257 . S
H481 C506 0.930 . S
H482 C512 0.930 . S
O483 Co472 2.093 . S
O483 C475 1.224 . S
H484 C516 0.929 . S
H485 C518 0.930 . S
H486 C519 0.928 . S
H487 C517 0.929 . S
H488 C520 0.928 . S
O489 Co473 2.057 . S
O489 C477 1.232 . S
H490 C509 0.929 . S
H491 C510 0.929 . S
H492 C522 0.931 . S
H493 C514 0.929 . S
H494 C523 0.930 . S
H495 C515 0.931 . S
O496 Co472 2.097 . S
O496 C524 1.214 . S
H497 C525 0.929 . S
H498 C526 0.929 . S
H499 C527 0.930 . S
H500 C528 0.929 . S
H501 C530 0.930 . S
H502 C507 0.930 . S
H503 C511 0.930 . S
O504 Co473 2.037 . S
O504 C524 1.234 . S
C505 O479 1.269 . S
C505 O480 1.257 . S
C506 H481 0.930 . S
C506 C509 1.388 1_554 S
C506 C511 1.418 . S
C507 H502 0.930 . S
C507 C510 1.404 . S
C507 C511 1.353 . S
N508 Co473 2.145 . S
N508 C509 1.397 . S
N508 C510 1.334 1_556 S
C509 H490 0.929 . S
C509 C506 1.388 1_556 S
C509 N508 1.397 . S
C510 H491 0.929 . S
C510 C507 1.404 . S
C510 N508 1.334 1_554 S
C511 H503 0.930 . S
C511 C506 1.418 . S
C511 C507 1.353 . S
C512 H482 0.930 . S
C512 N513 1.330 . S
C512 C514 1.446 . S
N513 Co472 2.151 . S
N513 C512 1.330 . S
N513 C517 1.418 . S
C514 H493 0.929 . S
C514 C512 1.446 . S
C514 C515 1.332 . S
C515 H495 0.931 . S
C515 C514 1.332 . S
C515 C516 1.267 . S
C516 H484 0.929 . S
C516 C515 1.267 . S
C516 C517 1.251 . S
C517 H487 0.929 . S
C517 N513 1.418 . S
C517 C516 1.251 . S
C518 H485 0.930 . S
C518 C520 1.406 1_655 S
C518 C523 1.261 . S
C519 H486 0.928 . S
C519 N521 1.342 . S
C519 C522 1.342 1_455 S
C520 H488 0.928 . S
C520 C518 1.406 1_455 S
C520 N521 1.261 . S
N521 Co472 2.214 . S
N521 C519 1.342 . S
N521 C520 1.261 . S
C522 H492 0.931 . S
C522 C519 1.342 1_655 S
C522 C523 1.312 . S
C523 H494 0.930 . S
C523 C518 1.261 . S
C523 C522 1.312 . S
C524 O496 1.214 . S
C524 O504 1.234 . S
C525 H497 0.929 . S
C525 C528 1.391 . S
C525 C530 1.391 . S
C526 H498 0.929 . S
C526 C527 1.390 . S
C526 N529 1.391 . S
C527 H499 0.930 . S
C527 C526 1.390 . S
C527 C528 1.392 . S
C528 H500 0.929 . S
C528 C525 1.391 . S
C528 C527 1.392 . S
N529 Co473 2.257 . S
N529 C526 1.391 . S
N529 C530 1.388 . S
C530 H501 0.930 . S
C530 C525 1.391 . S
C530 N529 1.388 . S
Co531 O533 2.143 . S
Co531 O539 2.074 . S
Co531 O542 2.093 . S
Co531 O555 2.097 . S
Co531 N572 2.151 . S
Co531 N580 2.214 . S
Co532 O533 2.160 . S
Co532 O538 2.058 . S
Co532 O548 2.057 . S
Co532 O563 2.037 . S
Co532 N567 2.145 . S
Co532 N588 2.257 . S
O533 Co531 2.143 . S
O533 Co532 2.160 . S
C534 O535 1.278 . S
C534 O542 1.224 . S
O535 C534 1.278 . S
C536 O537 1.245 . S
C536 O548 1.232 . S
O537 C536 1.245 . S
O538 Co532 2.058 . S
O538 C564 1.269 . S
O539 Co531 2.074 . S
O539 C564 1.257 . S
H540 C565 0.930 . S
H541 C571 0.930 . S
O542 Co531 2.093 . S
O542 C534 1.224 . S
H543 C575 0.929 . S
H544 C577 0.930 . S
H545 C578 0.930 . S
H546 C576 0.929 . S
H547 C579 0.928 . S
O548 Co532 2.057 . S
O548 C536 1.232 . S
H549 C568 0.929 . S
H550 C569 0.929 . S
H551 C581 0.931 . S
H552 C573 0.929 . S
H553 C582 0.930 . S
H554 C574 0.931 . S
O555 Co531 2.097 . S
O555 C583 1.214 . S
H556 C584 0.929 . S
H557 C585 0.929 . S
H558 C586 0.930 . S
H559 C587 0.929 . S
H560 C589 0.930 . S
H561 C566 0.930 . S
H562 C570 0.930 . S
O563 Co532 2.037 . S
O563 C583 1.234 . S
C564 O538 1.269 . S
C564 O539 1.257 . S
C565 H540 0.930 . S
C565 C568 1.388 . S
C565 C570 1.418 . S
C566 H561 0.930 . S
C566 C569 1.404 . S
C566 C570 1.353 . S
N567 Co532 2.145 . S
N567 C568 1.397 . S
N567 C569 1.334 . S
C568 H549 0.929 . S
C568 C565 1.388 . S
C568 N567 1.397 . S
C569 H550 0.929 . S
C569 C566 1.404 . S
C569 N567 1.334 . S
C570 H562 0.930 . S
C570 C565 1.418 . S
C570 C566 1.353 . S
C571 H541 0.930 . S
C571 N572 1.330 . S
C571 C573 1.446 . S
N572 Co531 2.151 . S
N572 C571 1.330 . S
N572 C576 1.418 . S
C573 H552 0.929 . S
C573 C571 1.446 . S
C573 C574 1.332 . S
C574 H554 0.931 . S
C574 C573 1.332 . S
C574 C575 1.267 . S
C575 H543 0.929 . S
C575 C574 1.267 . S
C575 C576 1.251 . S
C576 H546 0.929 . S
C576 N572 1.418 . S
C576 C575 1.251 . S
C577 H544 0.930 . S
C577 C579 1.406 . S
C577 C582 1.261 . S
C578 H545 0.930 . S
C578 N580 1.325 . S
C578 C581 1.357 . S
C579 H547 0.928 . S
C579 C577 1.406 . S
C579 N580 1.261 . S
N580 Co531 2.214 . S
N580 C578 1.325 . S
N580 C579 1.261 . S
C581 H551 0.931 . S
C581 C578 1.357 . S
C581 C582 1.312 . S
C582 H553 0.930 . S
C582 C577 1.261 . S
C582 C581 1.312 . S
C583 O555 1.214 . S
C583 O563 1.234 . S
C584 H556 0.929 . S
C584 C587 1.391 . S
C584 C589 1.391 . S
C585 H557 0.929 . S
C585 C586 1.390 . S
C585 N588 1.391 . S
C586 H558 0.930 . S
C586 C585 1.390 . S
C586 C587 1.392 . S
C587 H559 0.929 . S
C587 C584 1.391 . S
C587 C586 1.392 . S
N588 Co532 2.257 . S
N588 C585 1.391 . S
N588 C589 1.388 . S
C589 H560 0.930 . S
C589 C584 1.391 . S
C589 N588 1.388 . S
Co590 O592 2.143 . S
Co590 O598 2.074 . S
Co590 O601 2.093 . S
Co590 O614 2.097 . S
Co590 N631 2.151 . S
Co590 N639 2.214 . S
Co591 O592 2.160 . S
Co591 O597 2.058 . S
Co591 O607 2.057 . S
Co591 O622 2.037 . S
Co591 N626 2.145 . S
Co591 N647 2.257 . S
O592 Co590 2.143 . S
O592 Co591 2.160 . S
C593 O594 1.278 . S
C593 O601 1.224 . S
O594 C593 1.278 . S
C595 O596 1.245 . S
C595 O607 1.232 . S
O596 C595 1.245 . S
O597 Co591 2.058 . S
O597 C623 1.269 . S
O598 Co590 2.074 . S
O598 C623 1.257 . S
H599 C624 0.930 . S
H600 C630 0.930 . S
O601 Co590 2.093 . S
O601 C593 1.224 . S
H602 C634 0.929 . S
H603 C636 0.930 . S
H604 C637 0.928 . S
H605 C635 0.929 . S
H606 C638 0.928 . S
O607 Co591 2.057 . S
O607 C595 1.232 . S
H608 C627 0.929 . S
H609 C628 0.929 . S
H610 C640 0.931 . S
H611 C632 0.929 . S
H612 C641 0.930 . S
H613 C633 0.931 . S
O614 Co590 2.097 . S
O614 C642 1.214 . S
H615 C643 0.929 . S
H616 C644 0.929 . S
H617 C645 0.930 . S
H618 C646 0.929 . S
H619 C648 0.930 . S
H620 C625 0.930 . S
H621 C629 0.930 . S
O622 Co591 2.037 . S
O622 C642 1.234 . S
C623 O597 1.269 . S
C623 O598 1.257 . S
C624 H599 0.930 . S
C624 C627 1.388 . S
C624 C629 1.418 . S
C625 H620 0.930 . S
C625 C628 1.404 . S
C625 C629 1.353 . S
N626 Co591 2.145 . S
N626 C627 1.397 . S
N626 C628 1.334 . S
C627 H608 0.929 . S
C627 C624 1.388 . S
C627 N626 1.397 . S
C628 H609 0.929 . S
C628 C625 1.404 . S
C628 N626 1.334 . S
C629 H621 0.930 . S
C629 C624 1.418 . S
C629 C625 1.353 . S
C630 H600 0.930 . S
C630 N631 1.330 . S
C630 C632 1.446 . S
N631 Co590 2.151 . S
N631 C630 1.330 . S
N631 C635 1.418 . S
C632 H611 0.929 . S
C632 C630 1.446 . S
C632 C633 1.332 . S
C633 H613 0.931 . S
C633 C632 1.332 . S
C633 C634 1.267 . S
C634 H602 0.929 . S
C634 C633 1.267 . S
C634 C635 1.251 . S
C635 H605 0.929 . S
C635 N631 1.418 . S
C635 C634 1.251 . S
C636 H603 0.930 . S
C636 C638 1.406 1_565 S
C636 C641 1.261 . S
C637 H604 0.928 . S
C637 N639 1.342 . S
C637 C640 1.342 1_545 S
C638 H606 0.928 . S
C638 C636 1.406 1_545 S
C638 N639 1.261 . S
N639 Co590 2.214 . S
N639 C637 1.342 . S
N639 C638 1.261 . S
C640 H610 0.931 . S
C640 C637 1.342 1_565 S
C640 C641 1.312 . S
C641 H612 0.930 . S
C641 C636 1.261 . S
C641 C640 1.312 . S
C642 O614 1.214 . S
C642 O622 1.234 . S
C643 H615 0.929 . S
C643 C646 1.391 . S
C643 C648 1.391 . S
C644 H616 0.929 . S
C644 C645 1.390 . S
C644 N647 1.391 . S
C645 H617 0.930 . S
C645 C644 1.390 . S
C645 C646 1.392 . S
C646 H618 0.929 . S
C646 C643 1.391 . S
C646 C645 1.392 . S
N647 Co591 2.257 . S
N647 C644 1.391 . S
N647 C648 1.388 . S
C648 H619 0.930 . S
C648 C643 1.391 . S
C648 N647 1.388 . S
Co649 O651 2.143 . S
Co649 O657 2.074 . S
Co649 O660 2.093 . S
Co649 O673 2.097 . S
Co649 N690 2.151 . S
Co649 N698 2.214 . S
Co650 O651 2.160 . S
Co650 O656 2.058 . S
Co650 O666 2.057 . S
Co650 O681 2.037 . S
Co650 N685 2.145 . S
Co650 N706 2.257 . S
O651 Co649 2.143 . S
O651 Co650 2.160 . S
C652 O653 1.278 . S
C652 O660 1.224 . S
O653 C652 1.278 . S
C654 O655 1.245 . S
C654 O666 1.232 . S
O655 C654 1.245 . S
O656 Co650 2.058 . S
O656 C682 1.269 . S
O657 Co649 2.074 . S
O657 C682 1.257 . S
H658 C683 0.930 . S
H659 C689 0.930 . S
O660 Co649 2.093 . S
O660 C652 1.224 . S
H661 C693 0.929 . S
H662 C695 0.930 . S
H663 C696 0.935 . S
H664 C694 0.929 . S
H665 C697 0.928 . S
O666 Co650 2.057 . S
O666 C654 1.232 . S
H667 C686 0.929 . S
H668 C687 0.929 . S
H669 C699 0.931 . S
H670 C691 0.929 . S
H671 C700 0.930 . S
H672 C692 0.931 . S
O673 Co649 2.097 . S
O673 C701 1.214 . S
H674 C702 0.929 . S
H675 C703 0.929 . S
H676 C704 0.930 . S
H677 C705 0.929 . S
H678 C707 0.930 . S
H679 C684 0.930 . S
H680 C688 0.930 . S
O681 Co650 2.037 . S
O681 C701 1.234 . S
C682 O656 1.269 . S
C682 O657 1.257 . S
C683 H658 0.930 . S
C683 C686 1.388 . S
C683 C688 1.418 . S
C684 H679 0.930 . S
C684 C687 1.404 . S
C684 C688 1.353 . S
N685 Co650 2.145 . S
N685 C686 1.397 . S
N685 C687 1.334 . S
C686 H667 0.929 . S
C686 C683 1.388 . S
C686 N685 1.397 . S
C687 H668 0.929 . S
C687 C684 1.404 . S
C687 N685 1.334 . S
C688 H680 0.930 . S
C688 C683 1.418 . S
C688 C684 1.353 . S
C689 H659 0.930 . S
C689 N690 1.330 . S
C689 C691 1.446 . S
N690 Co649 2.151 . S
N690 C689 1.330 . S
N690 C694 1.418 . S
C691 H670 0.929 . S
C691 C689 1.446 . S
C691 C692 1.332 . S
C692 H672 0.931 . S
C692 C691 1.332 . S
C692 C693 1.267 . S
C693 H661 0.929 . S
C693 C692 1.267 . S
C693 C694 1.251 . S
C694 H664 0.929 . S
C694 N690 1.418 . S
C694 C693 1.251 . S
C695 H662 0.930 . S
C695 C697 1.406 1_455 S
C695 C700 1.261 . S
C696 H663 0.935 . S
C696 N698 1.333 . S
C696 C699 1.345 1_655 S
C697 H665 0.928 . S
C697 C695 1.406 1_655 S
C697 N698 1.261 . S
N698 Co649 2.214 . S
N698 C696 1.333 . S
N698 C697 1.261 . S
C699 H669 0.931 . S
C699 C696 1.345 1_455 S
C699 C700 1.312 . S
C700 H671 0.930 . S
C700 C695 1.261 . S
C700 C699 1.312 . S
C701 O673 1.214 . S
C701 O681 1.234 . S
C702 H674 0.929 . S
C702 C705 1.391 . S
C702 C707 1.391 . S
C703 H675 0.929 . S
C703 C704 1.390 . S
C703 N706 1.391 . S
C704 H676 0.930 . S
C704 C703 1.390 . S
C704 C705 1.392 . S
C705 H677 0.929 . S
C705 C702 1.391 . S
C705 C704 1.392 . S
N706 Co650 2.257 . S
N706 C703 1.391 . S
N706 C707 1.388 . S
C707 H678 0.930 . S
C707 C702 1.391 . S
C707 N706 1.388 . S
Co708 O710 2.143 . S
Co708 O716 2.074 . S
Co708 O719 2.093 . S
Co708 O732 2.097 . S
Co708 N749 2.151 . S
Co708 N757 2.214 . S
Co709 O710 2.160 . S
Co709 O715 2.058 . S
Co709 O725 2.057 . S
Co709 O740 2.037 . S
Co709 N744 2.145 . S
Co709 N765 2.257 . S
O710 Co708 2.143 . S
O710 Co709 2.160 . S
C711 O712 1.278 . S
C711 O719 1.224 . S
O712 C711 1.278 . S
C713 O714 1.245 . S
C713 O725 1.232 . S
O714 C713 1.245 . S
O715 Co709 2.058 . S
O715 C741 1.269 . S
O716 Co708 2.074 . S
O716 C741 1.257 . S
H717 C742 0.930 . S
H718 C748 0.930 . S
O719 Co708 2.093 . S
O719 C711 1.224 . S
H720 C752 0.929 . S
H721 C754 0.930 . S
H722 C755 0.930 . S
H723 C753 0.929 . S
H724 C756 0.928 . S
O725 Co709 2.057 . S
O725 C713 1.232 . S
H726 C745 0.929 . S
H727 C746 0.929 . S
H728 C758 0.931 . S
H729 C750 0.929 . S
H730 C759 0.930 . S
H731 C751 0.931 . S
O732 Co708 2.097 . S
O732 C760 1.214 . S
H733 C761 0.929 . S
H734 C762 0.929 . S
H735 C763 0.930 . S
H736 C764 0.929 . S
H737 C766 0.930 . S
H738 C743 0.930 . S
H739 C747 0.930 . S
O740 Co709 2.037 . S
O740 C760 1.234 . S
C741 O715 1.269 . S
C741 O716 1.257 . S
C742 H717 0.930 . S
C742 C745 1.388 . S
C742 C747 1.418 . S
C743 H738 0.930 . S
C743 C746 1.404 . S
C743 C747 1.353 . S
N744 Co709 2.145 . S
N744 C745 1.397 . S
N744 C746 1.334 . S
C745 H726 0.929 . S
C745 C742 1.388 . S
C745 N744 1.397 . S
C746 H727 0.929 . S
C746 C743 1.404 . S
C746 N744 1.334 . S
C747 H739 0.930 . S
C747 C742 1.418 . S
C747 C743 1.353 . S
C748 H718 0.930 . S
C748 N749 1.330 . S
C748 C750 1.446 . S
N749 Co708 2.151 . S
N749 C748 1.330 . S
N749 C753 1.418 . S
C750 H729 0.929 . S
C750 C748 1.446 . S
C750 C751 1.332 . S
C751 H731 0.931 . S
C751 C750 1.332 . S
C751 C752 1.267 . S
C752 H720 0.929 . S
C752 C751 1.267 . S
C752 C753 1.251 . S
C753 H723 0.929 . S
C753 N749 1.418 . S
C753 C752 1.251 . S
C754 H721 0.930 . S
C754 C756 1.406 . S
C754 C759 1.261 . S
C755 H722 0.930 . S
C755 N757 1.325 . S
C755 C758 1.357 . S
C756 H724 0.928 . S
C756 C754 1.406 . S
C756 N757 1.261 . S
N757 Co708 2.214 . S
N757 C755 1.325 . S
N757 C756 1.261 . S
C758 H728 0.931 . S
C758 C755 1.357 . S
C758 C759 1.312 . S
C759 H730 0.930 . S
C759 C754 1.261 . S
C759 C758 1.312 . S
C760 O732 1.214 . S
C760 O740 1.234 . S
C761 H733 0.929 . S
C761 C764 1.391 . S
C761 C766 1.391 1_455 S
C762 H734 0.929 . S
C762 C763 1.390 . S
C762 N765 1.391 1_455 S
C763 H735 0.930 . S
C763 C762 1.390 . S
C763 C764 1.392 . S
C764 H736 0.929 . S
C764 C761 1.391 . S
C764 C763 1.392 . S
N765 Co709 2.257 . S
N765 C762 1.391 1_655 S
N765 C766 1.388 . S
C766 H737 0.930 . S
C766 C761 1.391 1_655 S
C766 N765 1.388 . S
Co767 O769 2.143 . S
Co767 O775 2.074 . S
Co767 O778 2.093 . S
Co767 O791 2.097 . S
Co767 N808 2.151 . S
Co767 N816 2.214 . S
Co768 O769 2.160 . S
Co768 O774 2.058 . S
Co768 O784 2.057 . S
Co768 O799 2.037 . S
Co768 N803 2.145 . S
Co768 N824 2.257 . S
O769 Co767 2.143 . S
O769 Co768 2.160 . S
C770 O771 1.278 . S
C770 O778 1.224 . S
O771 C770 1.278 . S
C772 O773 1.245 . S
C772 O784 1.232 . S
O773 C772 1.245 . S
O774 Co768 2.058 . S
O774 C800 1.269 . S
O775 Co767 2.074 . S
O775 C800 1.257 . S
H776 C801 0.930 . S
H777 C807 0.930 . S
O778 Co767 2.093 . S
O778 C770 1.224 . S
H779 C811 0.929 . S
H780 C813 0.930 . S
H781 C814 0.930 . S
H782 C812 0.929 . S
H783 C815 0.928 . S
O784 Co768 2.057 . S
O784 C772 1.232 . S
H785 C804 0.929 . S
H786 C805 0.929 . S
H787 C817 0.931 . S
H788 C809 0.929 . S
H789 C818 0.930 . S
H790 C810 0.931 . S
O791 Co767 2.097 . S
O791 C819 1.214 . S
H792 C820 0.929 . S
H793 C821 0.929 . S
H794 C822 0.930 . S
H795 C823 0.929 . S
H796 C825 0.930 . S
H797 C802 0.930 . S
H798 C806 0.930 . S
O799 Co768 2.037 . S
O799 C819 1.234 . S
C800 O774 1.269 . S
C800 O775 1.257 . S
C801 H776 0.930 . S
C801 C804 1.388 . S
C801 C806 1.418 . S
C802 H797 0.930 . S
C802 C805 1.404 . S
C802 C806 1.353 . S
N803 Co768 2.145 . S
N803 C804 1.397 . S
N803 C805 1.334 . S
C804 H785 0.929 . S
C804 C801 1.388 . S
C804 N803 1.397 . S
C805 H786 0.929 . S
C805 C802 1.404 . S
C805 N803 1.334 . S
C806 H798 0.930 . S
C806 C801 1.418 . S
C806 C802 1.353 . S
C807 H777 0.930 . S
C807 N808 1.330 . S
C807 C809 1.446 . S
N808 Co767 2.151 . S
N808 C807 1.330 . S
N808 C812 1.418 . S
C809 H788 0.929 . S
C809 C807 1.446 . S
C809 C810 1.332 . S
C810 H790 0.931 . S
C810 C809 1.332 . S
C810 C811 1.267 . S
C811 H779 0.929 . S
C811 C810 1.267 . S
C811 C812 1.251 . S
C812 H782 0.929 . S
C812 N808 1.418 . S
C812 C811 1.251 . S
C813 H780 0.930 . S
C813 C815 1.406 . S
C813 C818 1.261 . S
C814 H781 0.930 . S
C814 N816 1.325 . S
C814 C817 1.357 . S
C815 H783 0.928 . S
C815 C813 1.406 . S
C815 N816 1.261 . S
N816 Co767 2.214 . S
N816 C814 1.325 . S
N816 C815 1.261 . S
C817 H787 0.931 . S
C817 C814 1.357 . S
C817 C818 1.312 . S
C818 H789 0.930 . S
C818 C813 1.261 . S
C818 C817 1.312 . S
C819 O791 1.214 . S
C819 O799 1.234 . S
C820 H792 0.929 . S
C820 C823 1.391 . S
C820 C825 1.391 . S
C821 H793 0.929 . S
C821 C822 1.390 . S
C821 N824 1.391 . S
C822 H794 0.930 . S
C822 C821 1.390 . S
C822 C823 1.392 . S
C823 H795 0.929 . S
C823 C820 1.391 . S
C823 C822 1.392 . S
N824 Co768 2.257 . S
N824 C821 1.391 . S
N824 C825 1.388 . S
C825 H796 0.930 . S
C825 C820 1.391 . S
C825 N824 1.388 . S
Co826 O828 2.143 . S
Co826 O834 2.074 . S
Co826 O837 2.093 . S
Co826 O850 2.097 . S
Co826 N867 2.151 . S
Co826 N875 2.214 . S
Co827 O828 2.160 . S
Co827 O833 2.058 . S
Co827 O843 2.057 . S
Co827 O858 2.037 . S
Co827 N862 2.145 . S
Co827 N883 2.257 . S
O828 Co826 2.143 . S
O828 Co827 2.160 . S
C829 O830 1.278 . S
C829 O837 1.224 . S
O830 C829 1.278 . S
C831 O832 1.245 . S
C831 O843 1.232 . S
O832 C831 1.245 . S
O833 Co827 2.058 . S
O833 C859 1.269 . S
O834 Co826 2.074 . S
O834 C859 1.257 . S
H835 C860 0.930 . S
H836 C866 0.930 . S
O837 Co826 2.093 . S
O837 C829 1.224 . S
H838 C870 0.929 . S
H839 C872 0.930 . S
H840 C873 0.930 . S
H841 C871 0.929 . S
H842 C874 0.928 . S
O843 Co827 2.057 . S
O843 C831 1.232 . S
H844 C863 0.929 . S
H845 C864 0.929 . S
H846 C876 0.931 . S
H847 C868 0.929 . S
H848 C877 0.930 . S
H849 C869 0.931 . S
O850 Co826 2.097 . S
O850 C878 1.214 . S
H851 C879 0.929 . S
H852 C880 0.929 . S
H853 C881 0.930 . S
H854 C882 0.929 . S
H855 C884 0.930 . S
H856 C861 0.930 . S
H857 C865 0.930 . S
O858 Co827 2.037 . S
O858 C878 1.234 . S
C859 O833 1.269 . S
C859 O834 1.257 . S
C860 H835 0.930 . S
C860 C863 1.388 . S
C860 C865 1.418 . S
C861 H856 0.930 . S
C861 C864 1.404 . S
C861 C865 1.353 . S
N862 Co827 2.145 . S
N862 C863 1.397 . S
N862 C864 1.334 . S
C863 H844 0.929 . S
C863 C860 1.388 . S
C863 N862 1.397 . S
C864 H845 0.929 . S
C864 C861 1.404 . S
C864 N862 1.334 . S
C865 H857 0.930 . S
C865 C860 1.418 . S
C865 C861 1.353 . S
C866 H836 0.930 . S
C866 N867 1.330 . S
C866 C868 1.446 . S
N867 Co826 2.151 . S
N867 C866 1.330 . S
N867 C871 1.418 . S
C868 H847 0.929 . S
C868 C866 1.446 . S
C868 C869 1.332 . S
C869 H849 0.931 . S
C869 C868 1.332 . S
C869 C870 1.267 . S
C870 H838 0.929 . S
C870 C869 1.267 . S
C870 C871 1.251 . S
C871 H841 0.929 . S
C871 N867 1.418 . S
C871 C870 1.251 . S
C872 H839 0.930 . S
C872 C874 1.406 . S
C872 C877 1.261 . S
C873 H840 0.930 . S
C873 N875 1.325 . S
C873 C876 1.357 . S
C874 H842 0.928 . S
C874 C872 1.406 . S
C874 N875 1.261 . S
N875 Co826 2.214 . S
N875 C873 1.325 . S
N875 C874 1.261 . S
C876 H846 0.931 . S
C876 C873 1.357 . S
C876 C877 1.312 . S
C877 H848 0.930 . S
C877 C872 1.261 . S
C877 C876 1.312 . S
C878 O850 1.214 . S
C878 O858 1.234 . S
C879 H851 0.929 . S
C879 C882 1.391 . S
C879 C884 1.391 1_565 S
C880 H852 0.929 . S
C880 C881 1.390 . S
C880 N883 1.391 1_565 S
C881 H853 0.930 . S
C881 C880 1.390 . S
C881 C882 1.392 . S
C882 H854 0.929 . S
C882 C879 1.391 . S
C882 C881 1.392 . S
N883 Co827 2.257 . S
N883 C880 1.391 1_545 S
N883 C884 1.388 . S
C884 H855 0.930 . S
C884 C879 1.391 1_545 S
C884 N883 1.388 . S
Co885 O887 2.143 . S
Co885 O893 2.074 . S
Co885 O896 2.093 . S
Co885 O909 2.097 . S
Co885 N926 2.151 . S
Co885 N934 2.214 . S
Co886 O887 2.160 . S
Co886 O892 2.058 . S
Co886 O902 2.057 . S
Co886 O917 2.037 . S
Co886 N921 2.145 . S
Co886 N942 2.257 . S
O887 Co885 2.143 . S
O887 Co886 2.160 . S
C888 O889 1.278 . S
C888 O896 1.224 . S
O889 C888 1.278 . S
C890 O891 1.245 . S
C890 O902 1.232 . S
O891 C890 1.245 . S
O892 Co886 2.058 . S
O892 C918 1.269 . S
O893 Co885 2.074 . S
O893 C918 1.257 . S
H894 C919 0.930 . S
H895 C925 0.930 . S
O896 Co885 2.093 . S
O896 C888 1.224 . S
H897 C929 0.929 . S
H898 C931 0.930 . S
H899 C932 0.930 . S
H900 C930 0.929 . S
H901 C933 0.928 . S
O902 Co886 2.057 . S
O902 C890 1.232 . S
H903 C922 0.929 . S
H904 C923 0.929 . S
H905 C935 0.931 . S
H906 C927 0.929 . S
H907 C936 0.930 . S
H908 C928 0.931 . S
O909 Co885 2.097 . S
O909 C937 1.214 . S
H910 C938 0.929 . S
H911 C939 0.929 . S
H912 C940 0.930 . S
H913 C941 0.929 . S
H914 C943 0.930 . S
H915 C920 0.930 . S
H916 C924 0.930 . S
O917 Co886 2.037 . S
O917 C937 1.234 . S
C918 O892 1.269 . S
C918 O893 1.257 . S
C919 H894 0.930 . S
C919 C922 1.388 . S
C919 C924 1.418 . S
C920 H915 0.930 . S
C920 C923 1.404 . S
C920 C924 1.353 . S
N921 Co886 2.145 . S
N921 C922 1.397 . S
N921 C923 1.334 . S
C922 H903 0.929 . S
C922 C919 1.388 . S
C922 N921 1.397 . S
C923 H904 0.929 . S
C923 C920 1.404 . S
C923 N921 1.334 . S
C924 H916 0.930 . S
C924 C919 1.418 . S
C924 C920 1.353 . S
C925 H895 0.930 . S
C925 N926 1.330 . S
C925 C927 1.446 . S
N926 Co885 2.151 . S
N926 C925 1.330 . S
N926 C930 1.418 . S
C927 H906 0.929 . S
C927 C925 1.446 . S
C927 C928 1.332 . S
C928 H908 0.931 . S
C928 C927 1.332 . S
C928 C929 1.267 . S
C929 H897 0.929 . S
C929 C928 1.267 . S
C929 C930 1.251 . S
C930 H900 0.929 . S
C930 N926 1.418 . S
C930 C929 1.251 . S
C931 H898 0.930 . S
C931 C933 1.406 . S
C931 C936 1.261 . S
C932 H899 0.930 . S
C932 N934 1.325 . S
C932 C935 1.357 . S
C933 H901 0.928 . S
C933 C931 1.406 . S
C933 N934 1.261 . S
N934 Co885 2.214 . S
N934 C932 1.325 . S
N934 C933 1.261 . S
C935 H905 0.931 . S
C935 C932 1.357 . S
C935 C936 1.312 . S
C936 H907 0.930 . S
C936 C931 1.261 . S
C936 C935 1.312 . S
C937 O909 1.214 . S
C937 O917 1.234 . S
C938 H910 0.929 . S
C938 C941 1.391 . S
C938 C943 1.391 . S
C939 H911 0.929 . S
C939 C940 1.390 . S
C939 N942 1.391 . S
C940 H912 0.930 . S
C940 C939 1.390 . S
C940 C941 1.392 . S
C941 H913 0.929 . S
C941 C938 1.391 . S
C941 C940 1.392 . S
N942 Co886 2.257 . S
N942 C939 1.391 . S
N942 C943 1.388 . S
C943 H914 0.930 . S
C943 C938 1.391 . S
C943 N942 1.388 . S
Co944 O946 2.143 . S
Co944 O952 2.074 . S
Co944 O955 2.093 . S
Co944 O968 2.097 . S
Co944 N985 2.151 . S
Co944 N993 2.214 . S
Co945 O946 2.160 . S
Co945 O951 2.058 . S
Co945 O961 2.057 . S
Co945 O976 2.037 . S
Co945 N980 2.145 . S
Co945 N1001 2.257 . S
O946 Co944 2.143 . S
O946 Co945 2.160 . S
C947 O948 1.278 . S
C947 O955 1.224 . S
O948 C947 1.278 . S
C949 O950 1.245 . S
C949 O961 1.232 . S
O950 C949 1.245 . S
O951 Co945 2.058 . S
O951 C977 1.269 . S
O952 Co944 2.074 . S
O952 C977 1.257 . S
H953 C978 0.930 . S
H954 C984 0.930 . S
O955 Co944 2.093 . S
O955 C947 1.224 . S
H956 C988 0.929 . S
H957 C990 0.930 . S
H958 C991 0.930 . S
H959 C989 0.929 . S
H960 C992 0.928 . S
O961 Co945 2.057 . S
O961 C949 1.232 . S
H962 C981 0.929 . S
H963 C982 0.929 . S
H964 C994 0.931 . S
H965 C986 0.929 . S
H966 C995 0.930 . S
H967 C987 0.931 . S
O968 Co944 2.097 . S
O968 C996 1.214 . S
H969 C997 0.929 . S
H970 C998 0.929 . S
H971 C999 0.930 . S
H972 C1000 0.929 . S
H973 C1002 0.930 . S
H974 C979 0.930 . S
H975 C983 0.930 . S
O976 Co945 2.037 . S
O976 C996 1.234 . S
C977 O951 1.269 . S
C977 O952 1.257 . S
C978 H953 0.930 . S
C978 C981 1.388 . S
C978 C983 1.418 . S
C979 H974 0.930 . S
C979 C982 1.404 . S
C979 C983 1.353 . S
N980 Co945 2.145 . S
N980 C981 1.397 . S
N980 C982 1.334 . S
C981 H962 0.929 . S
C981 C978 1.388 . S
C981 N980 1.397 . S
C982 H963 0.929 . S
C982 C979 1.404 . S
C982 N980 1.334 . S
C983 H975 0.930 . S
C983 C978 1.418 . S
C983 C979 1.353 . S
C984 H954 0.930 . S
C984 N985 1.330 . S
C984 C986 1.446 . S
N985 Co944 2.151 . S
N985 C984 1.330 . S
N985 C989 1.418 . S
C986 H965 0.929 . S
C986 C984 1.446 . S
C986 C987 1.332 . S
C987 H967 0.931 . S
C987 C986 1.332 . S
C987 C988 1.267 . S
C988 H956 0.929 . S
C988 C987 1.267 . S
C988 C989 1.251 . S
C989 H959 0.929 . S
C989 N985 1.418 . S
C989 C988 1.251 . S
C990 H957 0.930 . S
C990 C992 1.406 . S
C990 C995 1.261 . S
C991 H958 0.930 . S
C991 N993 1.325 . S
C991 C994 1.357 . S
C992 H960 0.928 . S
C992 C990 1.406 . S
C992 N993 1.261 . S
N993 Co944 2.214 . S
N993 C991 1.325 . S
N993 C992 1.261 . S
C994 H964 0.931 . S
C994 C991 1.357 . S
C994 C995 1.312 . S
C995 H966 0.930 . S
C995 C990 1.261 . S
C995 C994 1.312 . S
C996 O968 1.214 . S
C996 O976 1.234 . S
C997 H969 0.929 . S
C997 C1000 1.391 . S
C997 C1002 1.391 . S
C998 H970 0.929 . S
C998 C999 1.390 . S
C998 N1001 1.391 . S
C999 H971 0.930 . S
C999 C998 1.390 . S
C999 C1000 1.392 . S
C1000 H972 0.929 . S
C1000 C997 1.391 . S
C1000 C999 1.392 . S
N1001 Co945 2.257 . S
N1001 C998 1.391 . S
N1001 C1002 1.388 . S
C1002 H973 0.930 . S
C1002 C997 1.391 . S
C1002 N1001 1.388 . S
Co1003 O1005 2.143 . S
Co1003 O1011 2.074 . S
Co1003 O1014 2.093 . S
Co1003 O1027 2.097 . S
Co1003 N1044 2.151 . S
Co1003 N1052 2.214 . S
Co1004 O1005 2.160 . S
Co1004 O1010 2.058 . S
Co1004 O1020 2.057 . S
Co1004 O1035 2.037 . S
Co1004 N1039 2.145 . S
Co1004 N1060 2.257 . S
O1005 Co1003 2.143 . S
O1005 Co1004 2.160 . S
C1006 O1007 1.278 . S
C1006 O1014 1.224 . S
O1007 C1006 1.278 . S
C1008 O1009 1.245 . S
C1008 O1020 1.232 . S
O1009 C1008 1.245 . S
O1010 Co1004 2.058 . S
O1010 C1036 1.269 . S
O1011 Co1003 2.074 . S
O1011 C1036 1.257 . S
H1012 C1037 0.930 . S
H1013 C1043 0.930 . S
O1014 Co1003 2.093 . S
O1014 C1006 1.224 . S
H1015 C1047 0.929 . S
H1016 C1049 0.930 . S
H1017 C1050 0.930 . S
H1018 C1048 0.929 . S
H1019 C1051 0.928 . S
O1020 Co1004 2.057 . S
O1020 C1008 1.232 . S
H1021 C1040 0.929 . S
H1022 C1041 0.929 . S
H1023 C1053 0.931 . S
H1024 C1045 0.929 . S
H1025 C1054 0.930 . S
H1026 C1046 0.931 . S
O1027 Co1003 2.097 . S
O1027 C1055 1.214 . S
H1028 C1056 0.929 . S
H1029 C1057 0.929 . S
H1030 C1058 0.930 . S
H1031 C1059 0.929 . S
H1032 C1061 0.930 . S
H1033 C1038 0.930 . S
H1034 C1042 0.930 . S
O1035 Co1004 2.037 . S
O1035 C1055 1.234 . S
C1036 O1010 1.269 . S
C1036 O1011 1.257 . S
C1037 H1012 0.930 . S
C1037 C1040 1.388 . S
C1037 C1042 1.418 . S
C1038 H1033 0.930 . S
C1038 C1041 1.404 . S
C1038 C1042 1.353 . S
N1039 Co1004 2.145 . S
N1039 C1040 1.397 . S
N1039 C1041 1.334 . S
C1040 H1021 0.929 . S
C1040 C1037 1.388 . S
C1040 N1039 1.397 . S
C1041 H1022 0.929 . S
C1041 C1038 1.404 . S
C1041 N1039 1.334 . S
C1042 H1034 0.930 . S
C1042 C1037 1.418 . S
C1042 C1038 1.353 . S
C1043 H1013 0.930 . S
C1043 N1044 1.330 . S
C1043 C1045 1.446 . S
N1044 Co1003 2.151 . S
N1044 C1043 1.330 . S
N1044 C1048 1.418 . S
C1045 H1024 0.929 . S
C1045 C1043 1.446 . S
C1045 C1046 1.332 . S
C1046 H1026 0.931 . S
C1046 C1045 1.332 . S
C1046 C1047 1.267 . S
C1047 H1015 0.929 . S
C1047 C1046 1.267 . S
C1047 C1048 1.251 . S
C1048 H1018 0.929 . S
C1048 N1044 1.418 . S
C1048 C1047 1.251 . S
C1049 H1016 0.930 . S
C1049 C1051 1.406 . S
C1049 C1054 1.261 . S
C1050 H1017 0.930 . S
C1050 N1052 1.325 . S
C1050 C1053 1.357 . S
C1051 H1019 0.928 . S
C1051 C1049 1.406 . S
C1051 N1052 1.261 . S
N1052 Co1003 2.214 . S
N1052 C1050 1.325 . S
N1052 C1051 1.261 . S
C1053 H1023 0.931 . S
C1053 C1050 1.357 . S
C1053 C1054 1.312 . S
C1054 H1025 0.930 . S
C1054 C1049 1.261 . S
C1054 C1053 1.312 . S
C1055 O1027 1.214 . S
C1055 O1035 1.234 . S
C1056 H1028 0.929 . S
C1056 C1059 1.391 . S
C1056 C1061 1.391 . S
C1057 H1029 0.929 . S
C1057 C1058 1.390 . S
C1057 N1060 1.391 . S
C1058 H1030 0.930 . S
C1058 C1057 1.390 . S
C1058 C1059 1.392 . S
C1059 H1031 0.929 . S
C1059 C1056 1.391 . S
C1059 C1058 1.392 . S
N1060 Co1004 2.257 . S
N1060 C1057 1.391 . S
N1060 C1061 1.388 . S
C1061 H1032 0.930 . S
C1061 C1056 1.391 . S
C1061 N1060 1.388 . S
Co1062 O1064 2.143 . S
Co1062 O1070 2.074 . S
Co1062 O1073 2.093 . S
Co1062 O1086 2.097 . S
Co1062 N1103 2.151 . S
Co1062 N1111 2.214 . S
Co1063 O1064 2.160 . S
Co1063 O1069 2.058 . S
Co1063 O1079 2.057 . S
Co1063 O1094 2.037 . S
Co1063 N1098 2.145 . S
Co1063 N1119 2.257 . S
O1064 Co1062 2.143 . S
O1064 Co1063 2.160 . S
C1065 O1066 1.278 . S
C1065 O1073 1.224 . S
O1066 C1065 1.278 . S
C1067 O1068 1.245 . S
C1067 O1079 1.232 . S
O1068 C1067 1.245 . S
O1069 Co1063 2.058 . S
O1069 C1095 1.269 . S
O1070 Co1062 2.074 . S
O1070 C1095 1.257 . S
H1071 C1096 0.930 . S
H1072 C1102 0.930 . S
O1073 Co1062 2.093 . S
O1073 C1065 1.224 . S
H1074 C1106 0.929 . S
H1075 C1108 0.930 . S
H1076 C1109 0.930 . S
H1077 C1107 0.929 . S
H1078 C1110 0.928 . S
O1079 Co1063 2.057 . S
O1079 C1067 1.232 . S
H1080 C1099 0.929 . S
H1081 C1100 0.929 . S
H1082 C1112 0.931 . S
H1083 C1104 0.929 . S
H1084 C1113 0.930 . S
H1085 C1105 0.931 . S
O1086 Co1062 2.097 . S
O1086 C1114 1.214 . S
H1087 C1115 0.929 . S
H1088 C1116 0.929 . S
H1089 C1117 0.930 . S
H1090 C1118 0.929 . S
H1091 C1120 0.930 . S
H1092 C1097 0.930 . S
H1093 C1101 0.930 . S
O1094 Co1063 2.037 . S
O1094 C1114 1.234 . S
C1095 O1069 1.269 . S
C1095 O1070 1.257 . S
C1096 H1071 0.930 . S
C1096 C1099 1.388 . S
C1096 C1101 1.418 . S
C1097 H1092 0.930 . S
C1097 C1100 1.404 . S
C1097 C1101 1.353 . S
N1098 Co1063 2.145 . S
N1098 C1099 1.397 . S
N1098 C1100 1.334 . S
C1099 H1080 0.929 . S
C1099 C1096 1.388 . S
C1099 N1098 1.397 . S
C1100 H1081 0.929 . S
C1100 C1097 1.404 . S
C1100 N1098 1.334 . S
C1101 H1093 0.930 . S
C1101 C1096 1.418 . S
C1101 C1097 1.353 . S
C1102 H1072 0.930 . S
C1102 N1103 1.330 . S
C1102 C1104 1.446 . S
N1103 Co1062 2.151 . S
N1103 C1102 1.330 . S
N1103 C1107 1.418 . S
C1104 H1083 0.929 . S
C1104 C1102 1.446 . S
C1104 C1105 1.332 . S
C1105 H1085 0.931 . S
C1105 C1104 1.332 . S
C1105 C1106 1.267 . S
C1106 H1074 0.929 . S
C1106 C1105 1.267 . S
C1106 C1107 1.251 . S
C1107 H1077 0.929 . S
C1107 N1103 1.418 . S
C1107 C1106 1.251 . S
C1108 H1075 0.930 . S
C1108 C1110 1.406 . S
C1108 C1113 1.261 . S
C1109 H1076 0.930 . S
C1109 N1111 1.325 . S
C1109 C1112 1.357 . S
C1110 H1078 0.928 . S
C1110 C1108 1.406 . S
C1110 N1111 1.261 . S
N1111 Co1062 2.214 . S
N1111 C1109 1.325 . S
N1111 C1110 1.261 . S
C1112 H1082 0.931 . S
C1112 C1109 1.357 . S
C1112 C1113 1.312 . S
C1113 H1084 0.930 . S
C1113 C1108 1.261 . S
C1113 C1112 1.312 . S
C1114 O1086 1.214 . S
C1114 O1094 1.234 . S
C1115 H1087 0.929 . S
C1115 C1118 1.391 . S
C1115 C1120 1.391 . S
C1116 H1088 0.929 . S
C1116 C1117 1.390 . S
C1116 N1119 1.391 . S
C1117 H1089 0.930 . S
C1117 C1116 1.390 . S
C1117 C1118 1.392 . S
C1118 H1090 0.929 . S
C1118 C1115 1.391 . S
C1118 C1117 1.392 . S
N1119 Co1063 2.257 . S
N1119 C1116 1.391 . S
N1119 C1120 1.388 . S
C1120 H1091 0.930 . S
C1120 C1115 1.391 . S
C1120 N1119 1.388 . S
Co1121 O1123 2.143 . S
Co1121 O1129 2.074 . S
Co1121 O1132 2.093 . S
Co1121 O1145 2.097 . S
Co1121 N1162 2.151 . S
Co1121 N1170 2.214 . S
Co1122 O1123 2.160 . S
Co1122 O1128 2.058 . S
Co1122 O1138 2.057 . S
Co1122 O1153 2.037 . S
Co1122 N1157 2.145 . S
Co1122 N1178 2.257 . S
O1123 Co1121 2.143 . S
O1123 Co1122 2.160 . S
C1124 O1125 1.278 . S
C1124 O1132 1.224 . S
O1125 C1124 1.278 . S
C1126 O1127 1.245 . S
C1126 O1138 1.232 . S
O1127 C1126 1.245 . S
O1128 Co1122 2.058 . S
O1128 C1154 1.269 . S
O1129 Co1121 2.074 . S
O1129 C1154 1.257 . S
H1130 C1155 0.930 . S
H1131 C1161 0.930 . S
O1132 Co1121 2.093 . S
O1132 C1124 1.224 . S
H1133 C1165 0.929 . S
H1134 C1167 0.930 . S
H1135 C1168 0.930 . S
H1136 C1166 0.929 . S
H1137 C1169 0.928 . S
O1138 Co1122 2.057 . S
O1138 C1126 1.232 . S
H1139 C1158 0.929 . S
H1140 C1159 0.929 . S
H1141 C1171 0.931 . S
H1142 C1163 0.929 . S
H1143 C1172 0.930 . S
H1144 C1164 0.931 . S
O1145 Co1121 2.097 . S
O1145 C1173 1.214 . S
H1146 C1174 0.929 . S
H1147 C1175 0.929 . S
H1148 C1176 0.930 . S
H1149 C1177 0.929 . S
H1150 C1179 0.930 . S
H1151 C1156 0.930 . S
H1152 C1160 0.930 . S
O1153 Co1122 2.037 . S
O1153 C1173 1.234 . S
C1154 O1128 1.269 . S
C1154 O1129 1.257 . S
C1155 H1130 0.930 . S
C1155 C1158 1.388 . S
C1155 C1160 1.418 . S
C1156 H1151 0.930 . S
C1156 C1159 1.404 . S
C1156 C1160 1.353 . S
N1157 Co1122 2.145 . S
N1157 C1158 1.397 . S
N1157 C1159 1.334 . S
C1158 H1139 0.929 . S
C1158 C1155 1.388 . S
C1158 N1157 1.397 . S
C1159 H1140 0.929 . S
C1159 C1156 1.404 . S
C1159 N1157 1.334 . S
C1160 H1152 0.930 . S
C1160 C1155 1.418 . S
C1160 C1156 1.353 . S
C1161 H1131 0.930 . S
C1161 N1162 1.330 . S
C1161 C1163 1.446 . S
N1162 Co1121 2.151 . S
N1162 C1161 1.330 . S
N1162 C1166 1.418 . S
C1163 H1142 0.929 . S
C1163 C1161 1.446 . S
C1163 C1164 1.332 . S
C1164 H1144 0.931 . S
C1164 C1163 1.332 . S
C1164 C1165 1.267 . S
C1165 H1133 0.929 . S
C1165 C1164 1.267 . S
C1165 C1166 1.251 . S
C1166 H1136 0.929 . S
C1166 N1162 1.418 . S
C1166 C1165 1.251 . S
C1167 H1134 0.930 . S
C1167 C1169 1.406 . S
C1167 C1172 1.261 . S
C1168 H1135 0.930 . S
C1168 N1170 1.325 . S
C1168 C1171 1.357 . S
C1169 H1137 0.928 . S
C1169 C1167 1.406 . S
C1169 N1170 1.261 . S
N1170 Co1121 2.214 . S
N1170 C1168 1.325 . S
N1170 C1169 1.261 . S
C1171 H1141 0.931 . S
C1171 C1168 1.357 . S
C1171 C1172 1.312 . S
C1172 H1143 0.930 . S
C1172 C1167 1.261 . S
C1172 C1171 1.312 . S
C1173 O1145 1.214 . S
C1173 O1153 1.234 . S
C1174 H1146 0.929 . S
C1174 C1177 1.391 . S
C1174 C1179 1.391 . S
C1175 H1147 0.929 . S
C1175 C1176 1.390 . S
C1175 N1178 1.391 . S
C1176 H1148 0.930 . S
C1176 C1175 1.390 . S
C1176 C1177 1.392 . S
C1177 H1149 0.929 . S
C1177 C1174 1.391 . S
C1177 C1176 1.392 . S
N1178 Co1122 2.257 . S
N1178 C1175 1.391 . S
N1178 C1179 1.388 . S
C1179 H1150 0.930 . S
C1179 C1174 1.391 . S
C1179 N1178 1.388 . S
Co1180 O1182 2.143 . S
Co1180 O1188 2.074 . S
Co1180 O1191 2.093 . S
Co1180 O1204 2.097 . S
Co1180 N1221 2.151 . S
Co1180 N1229 2.214 . S
Co1181 O1182 2.160 . S
Co1181 O1187 2.058 . S
Co1181 O1197 2.057 . S
Co1181 O1212 2.037 . S
Co1181 N1216 2.145 . S
Co1181 N1237 2.257 . S
O1182 Co1180 2.143 . S
O1182 Co1181 2.160 . S
C1183 O1184 1.278 . S
C1183 O1191 1.224 . S
O1184 C1183 1.278 . S
C1185 O1186 1.245 . S
C1185 O1197 1.232 . S
O1186 C1185 1.245 . S
O1187 Co1181 2.058 . S
O1187 C1213 1.269 . S
O1188 Co1180 2.074 . S
O1188 C1213 1.257 . S
H1189 C1214 0.930 . S
H1190 C1220 0.930 . S
O1191 Co1180 2.093 . S
O1191 C1183 1.224 . S
H1192 C1224 0.929 . S
H1193 C1226 0.930 . S
H1194 C1227 0.930 . S
H1195 C1225 0.929 . S
H1196 C1228 0.928 . S
O1197 Co1181 2.057 . S
O1197 C1185 1.232 . S
H1198 C1217 0.929 . S
H1199 C1218 0.929 . S
H1200 C1230 0.931 . S
H1201 C1222 0.929 . S
H1202 C1231 0.930 . S
H1203 C1223 0.931 . S
O1204 Co1180 2.097 . S
O1204 C1232 1.214 . S
H1205 C1233 0.929 . S
H1206 C1234 0.929 . S
H1207 C1235 0.930 . S
H1208 C1236 0.929 . S
H1209 C1238 0.930 . S
H1210 C1215 0.930 . S
H1211 C1219 0.930 . S
O1212 Co1181 2.037 . S
O1212 C1232 1.234 . S
C1213 O1187 1.269 . S
C1213 O1188 1.257 . S
C1214 H1189 0.930 . S
C1214 C1217 1.388 . S
C1214 C1219 1.418 . S
C1215 H1210 0.930 . S
C1215 C1218 1.404 . S
C1215 C1219 1.353 . S
N1216 Co1181 2.145 . S
N1216 C1217 1.397 . S
N1216 C1218 1.334 . S
C1217 H1198 0.929 . S
C1217 C1214 1.388 . S
C1217 N1216 1.397 . S
C1218 H1199 0.929 . S
C1218 C1215 1.404 . S
C1218 N1216 1.334 . S
C1219 H1211 0.930 . S
C1219 C1214 1.418 . S
C1219 C1215 1.353 . S
C1220 H1190 0.930 . S
C1220 N1221 1.330 . S
C1220 C1222 1.446 . S
N1221 Co1180 2.151 . S
N1221 C1220 1.330 . S
N1221 C1225 1.418 . S
C1222 H1201 0.929 . S
C1222 C1220 1.446 . S
C1222 C1223 1.332 . S
C1223 H1203 0.931 . S
C1223 C1222 1.332 . S
C1223 C1224 1.267 . S
C1224 H1192 0.929 . S
C1224 C1223 1.267 . S
C1224 C1225 1.251 . S
C1225 H1195 0.929 . S
C1225 N1221 1.418 . S
C1225 C1224 1.251 . S
C1226 H1193 0.930 . S
C1226 C1228 1.406 . S
C1226 C1231 1.261 . S
C1227 H1194 0.930 . S
C1227 N1229 1.325 . S
C1227 C1230 1.357 . S
C1228 H1196 0.928 . S
C1228 C1226 1.406 . S
C1228 N1229 1.261 . S
N1229 Co1180 2.214 . S
N1229 C1227 1.325 . S
N1229 C1228 1.261 . S
C1230 H1200 0.931 . S
C1230 C1227 1.357 . S
C1230 C1231 1.312 . S
C1231 H1202 0.930 . S
C1231 C1226 1.261 . S
C1231 C1230 1.312 . S
C1232 O1204 1.214 . S
C1232 O1212 1.234 . S
C1233 H1205 0.929 . S
C1233 C1236 1.391 . S
C1233 C1238 1.391 . S
C1234 H1206 0.929 . S
C1234 C1235 1.390 . S
C1234 N1237 1.391 . S
C1235 H1207 0.930 . S
C1235 C1234 1.390 . S
C1235 C1236 1.392 . S
C1236 H1208 0.929 . S
C1236 C1233 1.391 . S
C1236 C1235 1.392 . S
N1237 Co1181 2.257 . S
N1237 C1234 1.391 . S
N1237 C1238 1.388 . S
C1238 H1209 0.930 . S
C1238 C1233 1.391 . S
C1238 N1237 1.388 . S
Co1239 O1241 2.143 . S
Co1239 O1247 2.074 . S
Co1239 O1250 2.093 . S
Co1239 O1263 2.097 . S
Co1239 N1280 2.151 . S
Co1239 N1288 2.214 . S
Co1240 O1241 2.160 . S
Co1240 O1246 2.058 . S
Co1240 O1256 2.057 . S
Co1240 O1271 2.037 . S
Co1240 N1275 2.145 . S
Co1240 N1296 2.257 . S
O1241 Co1239 2.143 . S
O1241 Co1240 2.160 . S
C1242 O1243 1.278 . S
C1242 O1250 1.224 . S
O1243 C1242 1.278 . S
C1244 O1245 1.245 . S
C1244 O1256 1.232 . S
O1245 C1244 1.245 . S
O1246 Co1240 2.058 . S
O1246 C1272 1.269 . S
O1247 Co1239 2.074 . S
O1247 C1272 1.257 . S
H1248 C1273 0.930 . S
H1249 C1279 0.930 . S
O1250 Co1239 2.093 . S
O1250 C1242 1.224 . S
H1251 C1283 0.929 . S
H1252 C1285 0.930 . S
H1253 C1286 0.930 . S
H1254 C1284 0.929 . S
H1255 C1287 0.928 . S
O1256 Co1240 2.057 . S
O1256 C1244 1.232 . S
H1257 C1276 0.929 . S
H1258 C1277 0.929 . S
H1259 C1289 0.931 . S
H1260 C1281 0.929 . S
H1261 C1290 0.930 . S
H1262 C1282 0.931 . S
O1263 Co1239 2.097 . S
O1263 C1291 1.214 . S
H1264 C1292 0.929 . S
H1265 C1293 0.929 . S
H1266 C1294 0.930 . S
H1267 C1295 0.929 . S
H1268 C1297 0.930 . S
H1269 C1274 0.930 . S
H1270 C1278 0.930 . S
O1271 Co1240 2.037 . S
O1271 C1291 1.234 . S
C1272 O1246 1.269 . S
C1272 O1247 1.257 . S
C1273 H1248 0.930 . S
C1273 C1276 1.388 . S
C1273 C1278 1.418 . S
C1274 H1269 0.930 . S
C1274 C1277 1.404 . S
C1274 C1278 1.353 . S
N1275 Co1240 2.145 . S
N1275 C1276 1.397 . S
N1275 C1277 1.334 . S
C1276 H1257 0.929 . S
C1276 C1273 1.388 . S
C1276 N1275 1.397 . S
C1277 H1258 0.929 . S
C1277 C1274 1.404 . S
C1277 N1275 1.334 . S
C1278 H1270 0.930 . S
C1278 C1273 1.418 . S
C1278 C1274 1.353 . S
C1279 H1249 0.930 . S
C1279 N1280 1.330 . S
C1279 C1281 1.446 . S
N1280 Co1239 2.151 . S
N1280 C1279 1.330 . S
N1280 C1284 1.418 . S
C1281 H1260 0.929 . S
C1281 C1279 1.446 . S
C1281 C1282 1.332 . S
C1282 H1262 0.931 . S
C1282 C1281 1.332 . S
C1282 C1283 1.267 . S
C1283 H1251 0.929 . S
C1283 C1282 1.267 . S
C1283 C1284 1.251 . S
C1284 H1254 0.929 . S
C1284 N1280 1.418 . S
C1284 C1283 1.251 . S
C1285 H1252 0.930 . S
C1285 C1287 1.406 . S
C1285 C1290 1.261 . S
C1286 H1253 0.930 . S
C1286 N1288 1.325 . S
C1286 C1289 1.357 . S
C1287 H1255 0.928 . S
C1287 C1285 1.406 . S
C1287 N1288 1.261 . S
N1288 Co1239 2.214 . S
N1288 C1286 1.325 . S
N1288 C1287 1.261 . S
C1289 H1259 0.931 . S
C1289 C1286 1.357 . S
C1289 C1290 1.312 . S
C1290 H1261 0.930 . S
C1290 C1285 1.261 . S
C1290 C1289 1.312 . S
C1291 O1263 1.214 . S
C1291 O1271 1.234 . S
C1292 H1264 0.929 . S
C1292 C1295 1.391 . S
C1292 C1297 1.391 1_565 S
C1293 H1265 0.929 . S
C1293 C1294 1.390 . S
C1293 N1296 1.391 1_565 S
C1294 H1266 0.930 . S
C1294 C1293 1.390 . S
C1294 C1295 1.392 . S
C1295 H1267 0.929 . S
C1295 C1292 1.391 . S
C1295 C1294 1.392 . S
N1296 Co1240 2.257 . S
N1296 C1293 1.391 1_545 S
N1296 C1297 1.388 . S
C1297 H1268 0.930 . S
C1297 C1292 1.391 1_545 S
C1297 N1296 1.388 . S
Co1298 O1300 2.143 . S
Co1298 O1306 2.074 . S
Co1298 O1309 2.093 . S
Co1298 O1322 2.097 . S
Co1298 N1339 2.151 . S
Co1298 N1347 2.214 . S
Co1299 O1300 2.160 . S
Co1299 O1305 2.058 . S
Co1299 O1315 2.057 . S
Co1299 O1330 2.037 . S
Co1299 N1334 2.145 . S
Co1299 N1355 2.257 . S
O1300 Co1298 2.143 . S
O1300 Co1299 2.160 . S
C1301 O1302 1.278 . S
C1301 O1309 1.224 . S
O1302 C1301 1.278 . S
C1303 O1304 1.245 . S
C1303 O1315 1.232 . S
O1304 C1303 1.245 . S
O1305 Co1299 2.058 . S
O1305 C1331 1.269 . S
O1306 Co1298 2.074 . S
O1306 C1331 1.257 . S
H1307 C1332 0.930 . S
H1308 C1338 0.930 . S
O1309 Co1298 2.093 . S
O1309 C1301 1.224 . S
H1310 C1342 0.929 . S
H1311 C1344 0.930 . S
H1312 C1345 0.930 . S
H1313 C1343 0.929 . S
H1314 C1346 0.928 . S
O1315 Co1299 2.057 . S
O1315 C1303 1.232 . S
H1316 C1335 0.929 . S
H1317 C1336 0.929 . S
H1318 C1348 0.931 . S
H1319 C1340 0.929 . S
H1320 C1349 0.930 . S
H1321 C1341 0.931 . S
O1322 Co1298 2.097 . S
O1322 C1350 1.214 . S
H1323 C1351 0.929 . S
H1324 C1352 0.929 . S
H1325 C1353 0.930 . S
H1326 C1354 0.929 . S
H1327 C1356 0.930 . S
H1328 C1333 0.930 . S
H1329 C1337 0.930 . S
O1330 Co1299 2.037 . S
O1330 C1350 1.234 . S
C1331 O1305 1.269 . S
C1331 O1306 1.257 . S
C1332 H1307 0.930 . S
C1332 C1335 1.388 . S
C1332 C1337 1.418 . S
C1333 H1328 0.930 . S
C1333 C1336 1.404 . S
C1333 C1337 1.353 . S
N1334 Co1299 2.145 . S
N1334 C1335 1.397 . S
N1334 C1336 1.334 . S
C1335 H1316 0.929 . S
C1335 C1332 1.388 . S
C1335 N1334 1.397 . S
C1336 H1317 0.929 . S
C1336 C1333 1.404 . S
C1336 N1334 1.334 . S
C1337 H1329 0.930 . S
C1337 C1332 1.418 . S
C1337 C1333 1.353 . S
C1338 H1308 0.930 . S
C1338 N1339 1.330 . S
C1338 C1340 1.446 . S
N1339 Co1298 2.151 . S
N1339 C1338 1.330 . S
N1339 C1343 1.418 . S
C1340 H1319 0.929 . S
C1340 C1338 1.446 . S
C1340 C1341 1.332 . S
C1341 H1321 0.931 . S
C1341 C1340 1.332 . S
C1341 C1342 1.267 . S
C1342 H1310 0.929 . S
C1342 C1341 1.267 . S
C1342 C1343 1.251 . S
C1343 H1313 0.929 . S
C1343 N1339 1.418 . S
C1343 C1342 1.251 . S
C1344 H1311 0.930 . S
C1344 C1346 1.406 . S
C1344 C1349 1.261 . S
C1345 H1312 0.930 . S
C1345 N1347 1.325 . S
C1345 C1348 1.357 . S
C1346 H1314 0.928 . S
C1346 C1344 1.406 . S
C1346 N1347 1.261 . S
N1347 Co1298 2.214 . S
N1347 C1345 1.325 . S
N1347 C1346 1.261 . S
C1348 H1318 0.931 . S
C1348 C1345 1.357 . S
C1348 C1349 1.312 . S
C1349 H1320 0.930 . S
C1349 C1344 1.261 . S
C1349 C1348 1.312 . S
C1350 O1322 1.214 . S
C1350 O1330 1.234 . S
C1351 H1323 0.929 . S
C1351 C1354 1.391 . S
C1351 C1356 1.391 1_455 S
C1352 H1324 0.929 . S
C1352 C1353 1.390 . S
C1352 N1355 1.391 1_455 S
C1353 H1325 0.930 . S
C1353 C1352 1.390 . S
C1353 C1354 1.392 . S
C1354 H1326 0.929 . S
C1354 C1351 1.391 . S
C1354 C1353 1.392 . S
N1355 Co1299 2.257 . S
N1355 C1352 1.391 1_655 S
N1355 C1356 1.388 . S
C1356 H1327 0.930 . S
C1356 C1351 1.391 1_655 S
C1356 N1355 1.388 . S
Co1357 O1359 2.143 . S
Co1357 O1365 2.074 . S
Co1357 O1368 2.093 . S
Co1357 O1381 2.097 . S
Co1357 N1398 2.151 . S
Co1357 N1406 2.214 . S
Co1358 O1359 2.160 . S
Co1358 O1364 2.058 . S
Co1358 O1374 2.057 . S
Co1358 O1389 2.037 . S
Co1358 N1393 2.145 . S
Co1358 N1414 2.257 . S
O1359 Co1357 2.143 . S
O1359 Co1358 2.160 . S
C1360 O1361 1.278 . S
C1360 O1368 1.224 . S
O1361 C1360 1.278 . S
C1362 O1363 1.245 . S
C1362 O1374 1.232 . S
O1363 C1362 1.245 . S
O1364 Co1358 2.058 . S
O1364 C1390 1.269 . S
O1365 Co1357 2.074 . S
O1365 C1390 1.257 . S
H1366 C1391 0.930 . S
H1367 C1397 0.930 . S
O1368 Co1357 2.093 . S
O1368 C1360 1.224 . S
H1369 C1401 0.929 . S
H1370 C1403 0.930 . S
H1371 C1404 0.930 . S
H1372 C1402 0.929 . S
H1373 C1405 0.928 . S
O1374 Co1358 2.057 . S
O1374 C1362 1.232 . S
H1375 C1394 0.929 . S
H1376 C1395 0.929 . S
H1377 C1407 0.931 . S
H1378 C1399 0.929 . S
H1379 C1408 0.930 . S
H1380 C1400 0.931 . S
O1381 Co1357 2.097 . S
O1381 C1409 1.214 . S
H1382 C1410 0.929 . S
H1383 C1411 0.929 . S
H1384 C1412 0.930 . S
H1385 C1413 0.929 . S
H1386 C1415 0.930 . S
H1387 C1392 0.930 . S
H1388 C1396 0.930 . S
O1389 Co1358 2.037 . S
O1389 C1409 1.234 . S
C1390 O1364 1.269 . S
C1390 O1365 1.257 . S
C1391 H1366 0.930 . S
C1391 C1394 1.388 . S
C1391 C1396 1.418 . S
C1392 H1387 0.930 . S
C1392 C1395 1.404 . S
C1392 C1396 1.353 . S
N1393 Co1358 2.145 . S
N1393 C1394 1.397 . S
N1393 C1395 1.334 . S
C1394 H1375 0.929 . S
C1394 C1391 1.388 . S
C1394 N1393 1.397 . S
C1395 H1376 0.929 . S
C1395 C1392 1.404 . S
C1395 N1393 1.334 . S
C1396 H1388 0.930 . S
C1396 C1391 1.418 . S
C1396 C1392 1.353 . S
C1397 H1367 0.930 . S
C1397 N1398 1.330 . S
C1397 C1399 1.446 . S
N1398 Co1357 2.151 . S
N1398 C1397 1.330 . S
N1398 C1402 1.418 . S
C1399 H1378 0.929 . S
C1399 C1397 1.446 . S
C1399 C1400 1.332 . S
C1400 H1380 0.931 . S
C1400 C1399 1.332 . S
C1400 C1401 1.267 . S
C1401 H1369 0.929 . S
C1401 C1400 1.267 . S
C1401 C1402 1.251 . S
C1402 H1372 0.929 . S
C1402 N1398 1.418 . S
C1402 C1401 1.251 . S
C1403 H1370 0.930 . S
C1403 C1405 1.406 . S
C1403 C1408 1.261 . S
C1404 H1371 0.930 . S
C1404 N1406 1.325 . S
C1404 C1407 1.357 . S
C1405 H1373 0.928 . S
C1405 C1403 1.406 . S
C1405 N1406 1.261 . S
N1406 Co1357 2.214 . S
N1406 C1404 1.325 . S
N1406 C1405 1.261 . S
C1407 H1377 0.931 . S
C1407 C1404 1.357 . S
C1407 C1408 1.312 . S
C1408 H1379 0.930 . S
C1408 C1403 1.261 . S
C1408 C1407 1.312 . S
C1409 O1381 1.214 . S
C1409 O1389 1.234 . S
C1410 H1382 0.929 . S
C1410 C1413 1.391 . S
C1410 C1415 1.391 . S
C1411 H1383 0.929 . S
C1411 C1412 1.390 . S
C1411 N1414 1.391 . S
C1412 H1384 0.930 . S
C1412 C1411 1.390 . S
C1412 C1413 1.392 . S
C1413 H1385 0.929 . S
C1413 C1410 1.391 . S
C1413 C1412 1.392 . S
N1414 Co1358 2.257 . S
N1414 C1411 1.391 . S
N1414 C1415 1.388 . S
C1415 H1386 0.930 . S
C1415 C1410 1.391 . S
C1415 N1414 1.388 . S
Co1416 O1418 2.143 . S
Co1416 O1424 2.074 . S
Co1416 O1427 2.093 . S
Co1416 O1440 2.097 . S
Co1416 N1457 2.151 . S
Co1416 N1465 2.214 . S
Co1417 O1418 2.160 . S
Co1417 O1423 2.058 . S
Co1417 O1433 2.057 . S
Co1417 O1448 2.037 . S
Co1417 N1452 2.145 . S
Co1417 N1473 2.257 . S
O1418 Co1416 2.143 . S
O1418 Co1417 2.160 . S
C1419 O1420 1.278 . S
C1419 O1427 1.224 . S
O1420 C1419 1.278 . S
C1421 O1422 1.245 . S
C1421 O1433 1.232 . S
O1422 C1421 1.245 . S
O1423 Co1417 2.058 . S
O1423 C1449 1.269 . S
O1424 Co1416 2.074 . S
O1424 C1449 1.257 . S
H1425 C1450 0.930 . S
H1426 C1456 0.930 . S
O1427 Co1416 2.093 . S
O1427 C1419 1.224 . S
H1428 C1460 0.929 . S
H1429 C1462 0.930 . S
H1430 C1463 0.930 . S
H1431 C1461 0.929 . S
H1432 C1464 0.928 . S
O1433 Co1417 2.057 . S
O1433 C1421 1.232 . S
H1434 C1453 0.929 . S
H1435 C1454 0.929 . S
H1436 C1466 0.931 . S
H1437 C1458 0.929 . S
H1438 C1467 0.930 . S
H1439 C1459 0.931 . S
O1440 Co1416 2.097 . S
O1440 C1468 1.214 . S
H1441 C1469 0.929 . S
H1442 C1470 0.929 . S
H1443 C1471 0.930 . S
H1444 C1472 0.929 . S
H1445 C1474 0.930 . S
H1446 C1451 0.930 . S
H1447 C1455 0.930 . S
O1448 Co1417 2.037 . S
O1448 C1468 1.234 . S
C1449 O1423 1.269 . S
C1449 O1424 1.257 . S
C1450 H1425 0.930 . S
C1450 C1453 1.388 . S
C1450 C1455 1.418 . S
C1451 H1446 0.930 . S
C1451 C1454 1.404 . S
C1451 C1455 1.353 . S
N1452 Co1417 2.145 . S
N1452 C1453 1.397 . S
N1452 C1454 1.334 . S
C1453 H1434 0.929 . S
C1453 C1450 1.388 . S
C1453 N1452 1.397 . S
C1454 H1435 0.929 . S
C1454 C1451 1.404 . S
C1454 N1452 1.334 . S
C1455 H1447 0.930 . S
C1455 C1450 1.418 . S
C1455 C1451 1.353 . S
C1456 H1426 0.930 . S
C1456 N1457 1.330 . S
C1456 C1458 1.446 . S
N1457 Co1416 2.151 . S
N1457 C1456 1.330 . S
N1457 C1461 1.418 . S
C1458 H1437 0.929 . S
C1458 C1456 1.446 . S
C1458 C1459 1.332 . S
C1459 H1439 0.931 . S
C1459 C1458 1.332 . S
C1459 C1460 1.267 . S
C1460 H1428 0.929 . S
C1460 C1459 1.267 . S
C1460 C1461 1.251 . S
C1461 H1431 0.929 . S
C1461 N1457 1.418 . S
C1461 C1460 1.251 . S
C1462 H1429 0.930 . S
C1462 C1464 1.406 . S
C1462 C1467 1.261 . S
C1463 H1430 0.930 . S
C1463 N1465 1.325 . S
C1463 C1466 1.357 . S
C1464 H1432 0.928 . S
C1464 C1462 1.406 . S
C1464 N1465 1.261 . S
N1465 Co1416 2.214 . S
N1465 C1463 1.325 . S
N1465 C1464 1.261 . S
C1466 H1436 0.931 . S
C1466 C1463 1.357 . S
C1466 C1467 1.312 . S
C1467 H1438 0.930 . S
C1467 C1462 1.261 . S
C1467 C1466 1.312 . S
C1468 O1440 1.214 . S
C1468 O1448 1.234 . S
C1469 H1441 0.929 . S
C1469 C1472 1.391 . S
C1469 C1474 1.391 . S
C1470 H1442 0.929 . S
C1470 C1471 1.390 . S
C1470 N1473 1.391 . S
C1471 H1443 0.930 . S
C1471 C1470 1.390 . S
C1471 C1472 1.392 . S
C1472 H1444 0.929 . S
C1472 C1469 1.391 . S
C1472 C1471 1.392 . S
N1473 Co1417 2.257 . S
N1473 C1470 1.391 . S
N1473 C1474 1.388 . S
C1474 H1445 0.930 . S
C1474 C1469 1.391 . S
C1474 N1473 1.388 . S
Co1475 O1477 2.143 . S
Co1475 O1483 2.074 . S
Co1475 O1486 2.093 . S
Co1475 O1499 2.097 . S
Co1475 N1516 2.151 . S
Co1475 N1524 2.214 . S
Co1476 O1477 2.160 . S
Co1476 O1482 2.058 . S
Co1476 O1492 2.057 . S
Co1476 O1507 2.037 . S
Co1476 N1511 2.145 . S
Co1476 N1532 2.257 . S
O1477 Co1475 2.143 . S
O1477 Co1476 2.160 . S
C1478 O1479 1.278 . S
C1478 O1486 1.224 . S
O1479 C1478 1.278 . S
C1480 O1481 1.245 . S
C1480 O1492 1.232 . S
O1481 C1480 1.245 . S
O1482 Co1476 2.058 . S
O1482 C1508 1.269 . S
O1483 Co1475 2.074 . S
O1483 C1508 1.257 . S
H1484 C1509 0.930 . S
H1485 C1515 0.930 . S
O1486 Co1475 2.093 . S
O1486 C1478 1.224 . S
H1487 C1519 0.929 . S
H1488 C1521 0.930 . S
H1489 C1522 0.930 . S
H1490 C1520 0.929 . S
H1491 C1523 0.928 . S
O1492 Co1476 2.057 . S
O1492 C1480 1.232 . S
H1493 C1512 0.929 . S
H1494 C1513 0.929 . S
H1495 C1525 0.931 . S
H1496 C1517 0.929 . S
H1497 C1526 0.930 . S
H1498 C1518 0.931 . S
O1499 Co1475 2.097 . S
O1499 C1527 1.214 . S
H1500 C1528 0.929 . S
H1501 C1529 0.929 . S
H1502 C1530 0.930 . S
H1503 C1531 0.929 . S
H1504 C1533 0.930 . S
H1505 C1510 0.930 . S
H1506 C1514 0.930 . S
O1507 Co1476 2.037 . S
O1507 C1527 1.234 . S
C1508 O1482 1.269 . S
C1508 O1483 1.257 . S
C1509 H1484 0.930 . S
C1509 C1512 1.388 . S
C1509 C1514 1.418 . S
C1510 H1505 0.930 . S
C1510 C1513 1.404 . S
C1510 C1514 1.353 . S
N1511 Co1476 2.145 . S
N1511 C1512 1.397 . S
N1511 C1513 1.334 . S
C1512 H1493 0.929 . S
C1512 C1509 1.388 . S
C1512 N1511 1.397 . S
C1513 H1494 0.929 . S
C1513 C1510 1.404 . S
C1513 N1511 1.334 . S
C1514 H1506 0.930 . S
C1514 C1509 1.418 . S
C1514 C1510 1.353 . S
C1515 H1485 0.930 . S
C1515 N1516 1.330 . S
C1515 C1517 1.446 . S
N1516 Co1475 2.151 . S
N1516 C1515 1.330 . S
N1516 C1520 1.418 . S
C1517 H1496 0.929 . S
C1517 C1515 1.446 . S
C1517 C1518 1.332 . S
C1518 H1498 0.931 . S
C1518 C1517 1.332 . S
C1518 C1519 1.267 . S
C1519 H1487 0.929 . S
C1519 C1518 1.267 . S
C1519 C1520 1.251 . S
C1520 H1490 0.929 . S
C1520 N1516 1.418 . S
C1520 C1519 1.251 . S
C1521 H1488 0.930 . S
C1521 C1523 1.406 . S
C1521 C1526 1.261 . S
C1522 H1489 0.930 . S
C1522 N1524 1.325 . S
C1522 C1525 1.357 . S
C1523 H1491 0.928 . S
C1523 C1521 1.406 . S
C1523 N1524 1.261 . S
N1524 Co1475 2.214 . S
N1524 C1522 1.325 . S
N1524 C1523 1.261 . S
C1525 H1495 0.931 . S
C1525 C1522 1.357 . S
C1525 C1526 1.312 . S
C1526 H1497 0.930 . S
C1526 C1521 1.261 . S
C1526 C1525 1.312 . S
C1527 O1499 1.214 . S
C1527 O1507 1.234 . S
C1528 H1500 0.929 . S
C1528 C1531 1.391 . S
C1528 C1533 1.391 . S
C1529 H1501 0.929 . S
C1529 C1530 1.390 . S
C1529 N1532 1.391 . S
C1530 H1502 0.930 . S
C1530 C1529 1.390 . S
C1530 C1531 1.392 . S
C1531 H1503 0.929 . S
C1531 C1528 1.391 . S
C1531 C1530 1.392 . S
N1532 Co1476 2.257 . S
N1532 C1529 1.391 . S
N1532 C1533 1.388 . S
C1533 H1504 0.930 . S
C1533 C1528 1.391 . S
C1533 N1532 1.388 . S
Co1534 O1536 2.143 . S
Co1534 O1542 2.074 . S
Co1534 O1545 2.093 . S
Co1534 O1558 2.097 . S
Co1534 N1575 2.151 . S
Co1534 N1583 2.214 . S
Co1535 O1536 2.160 . S
Co1535 O1541 2.058 . S
Co1535 O1551 2.057 . S
Co1535 O1566 2.037 . S
Co1535 N1570 2.145 . S
Co1535 N1591 2.257 . S
O1536 Co1534 2.143 . S
O1536 Co1535 2.160 . S
C1537 O1538 1.278 . S
C1537 O1545 1.224 . S
O1538 C1537 1.278 . S
C1539 O1540 1.245 . S
C1539 O1551 1.232 . S
O1540 C1539 1.245 . S
O1541 Co1535 2.058 . S
O1541 C1567 1.269 . S
O1542 Co1534 2.074 . S
O1542 C1567 1.257 . S
H1543 C1568 0.930 . S
H1544 C1574 0.930 . S
O1545 Co1534 2.093 . S
O1545 C1537 1.224 . S
H1546 C1578 0.929 . S
H1547 C1580 0.930 . S
H1548 C1581 0.930 . S
H1549 C1579 0.929 . S
H1550 C1582 0.928 . S
O1551 Co1535 2.057 . S
O1551 C1539 1.232 . S
H1552 C1571 0.929 . S
H1553 C1572 0.929 . S
H1554 C1584 0.931 . S
H1555 C1576 0.929 . S
H1556 C1585 0.930 . S
H1557 C1577 0.931 . S
O1558 Co1534 2.097 . S
O1558 C1586 1.214 . S
H1559 C1587 0.929 . S
H1560 C1588 0.929 . S
H1561 C1589 0.930 . S
H1562 C1590 0.929 . S
H1563 C1592 0.930 . S
H1564 C1569 0.930 . S
H1565 C1573 0.930 . S
O1566 Co1535 2.037 . S
O1566 C1586 1.234 . S
C1567 O1541 1.269 . S
C1567 O1542 1.257 . S
C1568 H1543 0.930 . S
C1568 C1571 1.388 . S
C1568 C1573 1.418 . S
C1569 H1564 0.930 . S
C1569 C1572 1.404 . S
C1569 C1573 1.353 . S
N1570 Co1535 2.145 . S
N1570 C1571 1.397 . S
N1570 C1572 1.334 . S
C1571 H1552 0.929 . S
C1571 C1568 1.388 . S
C1571 N1570 1.397 . S
C1572 H1553 0.929 . S
C1572 C1569 1.404 . S
C1572 N1570 1.334 . S
C1573 H1565 0.930 . S
C1573 C1568 1.418 . S
C1573 C1569 1.353 . S
C1574 H1544 0.930 . S
C1574 N1575 1.330 . S
C1574 C1576 1.446 . S
N1575 Co1534 2.151 . S
N1575 C1574 1.330 . S
N1575 C1579 1.418 . S
C1576 H1555 0.929 . S
C1576 C1574 1.446 . S
C1576 C1577 1.332 . S
C1577 H1557 0.931 . S
C1577 C1576 1.332 . S
C1577 C1578 1.267 . S
C1578 H1546 0.929 . S
C1578 C1577 1.267 . S
C1578 C1579 1.251 . S
C1579 H1549 0.929 . S
C1579 N1575 1.418 . S
C1579 C1578 1.251 . S
C1580 H1547 0.930 . S
C1580 C1582 1.406 . S
C1580 C1585 1.261 . S
C1581 H1548 0.930 . S
C1581 N1583 1.325 . S
C1581 C1584 1.357 . S
C1582 H1550 0.928 . S
C1582 C1580 1.406 . S
C1582 N1583 1.261 . S
N1583 Co1534 2.214 . S
N1583 C1581 1.325 . S
N1583 C1582 1.261 . S
C1584 H1554 0.931 . S
C1584 C1581 1.357 . S
C1584 C1585 1.312 . S
C1585 H1556 0.930 . S
C1585 C1580 1.261 . S
C1585 C1584 1.312 . S
C1586 O1558 1.214 . S
C1586 O1566 1.234 . S
C1587 H1559 0.929 . S
C1587 C1590 1.391 . S
C1587 C1592 1.391 . S
C1588 H1560 0.929 . S
C1588 C1589 1.390 . S
C1588 N1591 1.391 . S
C1589 H1561 0.930 . S
C1589 C1588 1.390 . S
C1589 C1590 1.392 . S
C1590 H1562 0.929 . S
C1590 C1587 1.391 . S
C1590 C1589 1.392 . S
N1591 Co1535 2.257 . S
N1591 C1588 1.391 . S
N1591 C1592 1.388 . S
C1592 H1563 0.930 . S
C1592 C1587 1.391 . S
C1592 N1591 1.388 . S
Co1593 O1595 2.143 . S
Co1593 O1601 2.074 . S
Co1593 O1604 2.093 . S
Co1593 O1617 2.097 . S
Co1593 N1634 2.151 . S
Co1593 N1642 2.214 . S
Co1594 O1595 2.160 . S
Co1594 O1600 2.058 . S
Co1594 O1610 2.057 . S
Co1594 O1625 2.037 . S
Co1594 N1629 2.145 . S
Co1594 N1650 2.257 . S
O1595 Co1593 2.143 . S
O1595 Co1594 2.160 . S
C1596 O1597 1.278 . S
C1596 O1604 1.224 . S
O1597 C1596 1.278 . S
C1598 O1599 1.245 . S
C1598 O1610 1.232 . S
O1599 C1598 1.245 . S
O1600 Co1594 2.058 . S
O1600 C1626 1.269 . S
O1601 Co1593 2.074 . S
O1601 C1626 1.257 . S
H1602 C1627 0.930 . S
H1603 C1633 0.930 . S
O1604 Co1593 2.093 . S
O1604 C1596 1.224 . S
H1605 C1637 0.929 . S
H1606 C1639 0.930 . S
H1607 C1640 0.930 . S
H1608 C1638 0.929 . S
H1609 C1641 0.928 . S
O1610 Co1594 2.057 . S
O1610 C1598 1.232 . S
H1611 C1630 0.929 . S
H1612 C1631 0.929 . S
H1613 C1643 0.931 . S
H1614 C1635 0.929 . S
H1615 C1644 0.930 . S
H1616 C1636 0.931 . S
O1617 Co1593 2.097 . S
O1617 C1645 1.214 . S
H1618 C1646 0.929 . S
H1619 C1647 0.929 . S
H1620 C1648 0.930 . S
H1621 C1649 0.929 . S
H1622 C1651 0.930 . S
H1623 C1628 0.930 . S
H1624 C1632 0.930 . S
O1625 Co1594 2.037 . S
O1625 C1645 1.234 . S
C1626 O1600 1.269 . S
C1626 O1601 1.257 . S
C1627 H1602 0.930 . S
C1627 C1630 1.388 . S
C1627 C1632 1.418 . S
C1628 H1623 0.930 . S
C1628 C1631 1.404 . S
C1628 C1632 1.353 . S
N1629 Co1594 2.145 . S
N1629 C1630 1.397 . S
N1629 C1631 1.334 . S
C1630 H1611 0.929 . S
C1630 C1627 1.388 . S
C1630 N1629 1.397 . S
C1631 H1612 0.929 . S
C1631 C1628 1.404 . S
C1631 N1629 1.334 . S
C1632 H1624 0.930 . S
C1632 C1627 1.418 . S
C1632 C1628 1.353 . S
C1633 H1603 0.930 . S
C1633 N1634 1.330 . S
C1633 C1635 1.446 . S
N1634 Co1593 2.151 . S
N1634 C1633 1.330 . S
N1634 C1638 1.418 . S
C1635 H1614 0.929 . S
C1635 C1633 1.446 . S
C1635 C1636 1.332 . S
C1636 H1616 0.931 . S
C1636 C1635 1.332 . S
C1636 C1637 1.267 . S
C1637 H1605 0.929 . S
C1637 C1636 1.267 . S
C1637 C1638 1.251 . S
C1638 H1608 0.929 . S
C1638 N1634 1.418 . S
C1638 C1637 1.251 . S
C1639 H1606 0.930 . S
C1639 C1641 1.406 . S
C1639 C1644 1.261 . S
C1640 H1607 0.930 . S
C1640 N1642 1.325 . S
C1640 C1643 1.357 . S
C1641 H1609 0.928 . S
C1641 C1639 1.406 . S
C1641 N1642 1.261 . S
N1642 Co1593 2.214 . S
N1642 C1640 1.325 . S
N1642 C1641 1.261 . S
C1643 H1613 0.931 . S
C1643 C1640 1.357 . S
C1643 C1644 1.312 . S
C1644 H1615 0.930 . S
C1644 C1639 1.261 . S
C1644 C1643 1.312 . S
C1645 O1617 1.214 . S
C1645 O1625 1.234 . S
C1646 H1618 0.929 . S
C1646 C1649 1.391 . S
C1646 C1651 1.391 1_545 S
C1647 H1619 0.929 . S
C1647 C1648 1.390 . S
C1647 N1650 1.391 1_545 S
C1648 H1620 0.930 . S
C1648 C1647 1.390 . S
C1648 C1649 1.392 . S
C1649 H1621 0.929 . S
C1649 C1646 1.391 . S
C1649 C1648 1.392 . S
N1650 Co1594 2.257 . S
N1650 C1647 1.391 1_565 S
N1650 C1651 1.388 . S
C1651 H1622 0.930 . S
C1651 C1646 1.391 1_565 S
C1651 N1650 1.388 . S
Co1652 O1654 2.143 . S
Co1652 O1660 2.074 . S
Co1652 O1663 2.093 . S
Co1652 O1676 2.097 . S
Co1652 N1693 2.151 . S
Co1652 N1701 2.214 . S
Co1653 O1654 2.160 . S
Co1653 O1659 2.058 . S
Co1653 O1669 2.057 . S
Co1653 O1684 2.037 . S
Co1653 N1688 2.145 . S
Co1653 N1709 2.257 . S
O1654 Co1652 2.143 . S
O1654 Co1653 2.160 . S
C1655 O1656 1.278 . S
C1655 O1663 1.224 . S
O1656 C1655 1.278 . S
C1657 O1658 1.245 . S
C1657 O1669 1.232 . S
O1658 C1657 1.245 . S
O1659 Co1653 2.058 . S
O1659 C1685 1.269 . S
O1660 Co1652 2.074 . S
O1660 C1685 1.257 . S
H1661 C1686 0.930 . S
H1662 C1692 0.930 . S
O1663 Co1652 2.093 . S
O1663 C1655 1.224 . S
H1664 C1696 0.929 . S
H1665 C1698 0.930 . S
H1666 C1699 0.930 . S
H1667 C1697 0.929 . S
H1668 C1700 0.928 . S
O1669 Co1653 2.057 . S
O1669 C1657 1.232 . S
H1670 C1689 0.929 . S
H1671 C1690 0.929 . S
H1672 C1702 0.931 . S
H1673 C1694 0.929 . S
H1674 C1703 0.930 . S
H1675 C1695 0.931 . S
O1676 Co1652 2.097 . S
O1676 C1704 1.214 . S
H1677 C1705 0.929 . S
H1678 C1706 0.929 . S
H1679 C1707 0.930 . S
H1680 C1708 0.929 . S
H1681 C1710 0.930 . S
H1682 C1687 0.930 . S
H1683 C1691 0.930 . S
O1684 Co1653 2.037 . S
O1684 C1704 1.234 . S
C1685 O1659 1.269 . S
C1685 O1660 1.257 . S
C1686 H1661 0.930 . S
C1686 C1689 1.388 . S
C1686 C1691 1.418 . S
C1687 H1682 0.930 . S
C1687 C1690 1.404 . S
C1687 C1691 1.353 . S
N1688 Co1653 2.145 . S
N1688 C1689 1.397 . S
N1688 C1690 1.334 . S
C1689 H1670 0.929 . S
C1689 C1686 1.388 . S
C1689 N1688 1.397 . S
C1690 H1671 0.929 . S
C1690 C1687 1.404 . S
C1690 N1688 1.334 . S
C1691 H1683 0.930 . S
C1691 C1686 1.418 . S
C1691 C1687 1.353 . S
C1692 H1662 0.930 . S
C1692 N1693 1.330 . S
C1692 C1694 1.446 . S
N1693 Co1652 2.151 . S
N1693 C1692 1.330 . S
N1693 C1697 1.418 . S
C1694 H1673 0.929 . S
C1694 C1692 1.446 . S
C1694 C1695 1.332 . S
C1695 H1675 0.931 . S
C1695 C1694 1.332 . S
C1695 C1696 1.267 . S
C1696 H1664 0.929 . S
C1696 C1695 1.267 . S
C1696 C1697 1.251 . S
C1697 H1667 0.929 . S
C1697 N1693 1.418 . S
C1697 C1696 1.251 . S
C1698 H1665 0.930 . S
C1698 C1700 1.406 . S
C1698 C1703 1.261 . S
C1699 H1666 0.930 . S
C1699 N1701 1.325 . S
C1699 C1702 1.357 . S
C1700 H1668 0.928 . S
C1700 C1698 1.406 . S
C1700 N1701 1.261 . S
N1701 Co1652 2.214 . S
N1701 C1699 1.325 . S
N1701 C1700 1.261 . S
C1702 H1672 0.931 . S
C1702 C1699 1.357 . S
C1702 C1703 1.312 . S
C1703 H1674 0.930 . S
C1703 C1698 1.261 . S
C1703 C1702 1.312 . S
C1704 O1676 1.214 . S
C1704 O1684 1.234 . S
C1705 H1677 0.929 . S
C1705 C1708 1.391 . S
C1705 C1710 1.391 1_655 S
C1706 H1678 0.929 . S
C1706 C1707 1.390 . S
C1706 N1709 1.391 1_655 S
C1707 H1679 0.930 . S
C1707 C1706 1.390 . S
C1707 C1708 1.392 . S
C1708 H1680 0.929 . S
C1708 C1705 1.391 . S
C1708 C1707 1.392 . S
N1709 Co1653 2.257 . S
N1709 C1706 1.391 1_455 S
N1709 C1710 1.388 . S
C1710 H1681 0.930 . S
C1710 C1705 1.391 1_455 S
C1710 N1709 1.388 . S
Co1711 O1713 2.143 . S
Co1711 O1719 2.074 . S
Co1711 O1722 2.093 . S
Co1711 O1735 2.097 . S
Co1711 N1752 2.151 . S
Co1711 N1760 2.214 . S
Co1712 O1713 2.160 . S
Co1712 O1718 2.058 . S
Co1712 O1728 2.057 . S
Co1712 O1743 2.037 . S
Co1712 N1747 2.145 . S
Co1712 N1768 2.257 . S
O1713 Co1711 2.143 . S
O1713 Co1712 2.160 . S
C1714 O1715 1.278 . S
C1714 O1722 1.224 . S
O1715 C1714 1.278 . S
C1716 O1717 1.245 . S
C1716 O1728 1.232 . S
O1717 C1716 1.245 . S
O1718 Co1712 2.058 . S
O1718 C1744 1.269 . S
O1719 Co1711 2.074 . S
O1719 C1744 1.257 . S
H1720 C1745 0.930 . S
H1721 C1751 0.930 . S
O1722 Co1711 2.093 . S
O1722 C1714 1.224 . S
H1723 C1755 0.929 . S
H1724 C1757 0.930 . S
H1725 C1758 0.930 . S
H1726 C1756 0.929 . S
H1727 C1759 0.928 . S
O1728 Co1712 2.057 . S
O1728 C1716 1.232 . S
H1729 C1748 0.929 . S
H1730 C1749 0.929 . S
H1731 C1761 0.931 . S
H1732 C1753 0.929 . S
H1733 C1762 0.930 . S
H1734 C1754 0.931 . S
O1735 Co1711 2.097 . S
O1735 C1763 1.214 . S
H1736 C1764 0.929 . S
H1737 C1765 0.929 . S
H1738 C1766 0.930 . S
H1739 C1767 0.929 . S
H1740 C1769 0.930 . S
H1741 C1746 0.930 . S
H1742 C1750 0.930 . S
O1743 Co1712 2.037 . S
O1743 C1763 1.234 . S
C1744 O1718 1.269 . S
C1744 O1719 1.257 . S
C1745 H1720 0.930 . S
C1745 C1748 1.388 . S
C1745 C1750 1.418 . S
C1746 H1741 0.930 . S
C1746 C1749 1.404 . S
C1746 C1750 1.353 . S
N1747 Co1712 2.145 . S
N1747 C1748 1.397 . S
N1747 C1749 1.334 . S
C1748 H1729 0.929 . S
C1748 C1745 1.388 . S
C1748 N1747 1.397 . S
C1749 H1730 0.929 . S
C1749 C1746 1.404 . S
C1749 N1747 1.334 . S
C1750 H1742 0.930 . S
C1750 C1745 1.418 . S
C1750 C1746 1.353 . S
C1751 H1721 0.930 . S
C1751 N1752 1.330 . S
C1751 C1753 1.446 . S
N1752 Co1711 2.151 . S
N1752 C1751 1.330 . S
N1752 C1756 1.418 . S
C1753 H1732 0.929 . S
C1753 C1751 1.446 . S
C1753 C1754 1.332 . S
C1754 H1734 0.931 . S
C1754 C1753 1.332 . S
C1754 C1755 1.267 . S
C1755 H1723 0.929 . S
C1755 C1754 1.267 . S
C1755 C1756 1.251 . S
C1756 H1726 0.929 . S
C1756 N1752 1.418 . S
C1756 C1755 1.251 . S
C1757 H1724 0.930 . S
C1757 C1759 1.406 . S
C1757 C1762 1.261 . S
C1758 H1725 0.930 . S
C1758 N1760 1.325 . S
C1758 C1761 1.357 . S
C1759 H1727 0.928 . S
C1759 C1757 1.406 . S
C1759 N1760 1.261 . S
N1760 Co1711 2.214 . S
N1760 C1758 1.325 . S
N1760 C1759 1.261 . S
C1761 H1731 0.931 . S
C1761 C1758 1.357 . S
C1761 C1762 1.312 . S
C1762 H1733 0.930 . S
C1762 C1757 1.261 . S
C1762 C1761 1.312 . S
C1763 O1735 1.214 . S
C1763 O1743 1.234 . S
C1764 H1736 0.929 . S
C1764 C1767 1.391 . S
C1764 C1769 1.391 . S
C1765 H1737 0.929 . S
C1765 C1766 1.390 . S
C1765 N1768 1.391 . S
C1766 H1738 0.930 . S
C1766 C1765 1.390 . S
C1766 C1767 1.392 . S
C1767 H1739 0.929 . S
C1767 C1764 1.391 . S
C1767 C1766 1.392 . S
N1768 Co1712 2.257 . S
N1768 C1765 1.391 . S
N1768 C1769 1.388 . S
C1769 H1740 0.930 . S
C1769 C1764 1.391 . S
C1769 N1768 1.388 . S
Co1770 O1772 2.143 . S
Co1770 O1778 2.074 . S
Co1770 O1781 2.093 . S
Co1770 O1794 2.097 . S
Co1770 N1811 2.151 . S
Co1770 N1819 2.214 . S
Co1771 O1772 2.160 . S
Co1771 O1777 2.058 . S
Co1771 O1787 2.057 . S
Co1771 O1802 2.037 . S
Co1771 N1806 2.145 . S
Co1771 N1827 2.257 . S
O1772 Co1770 2.143 . S
O1772 Co1771 2.160 . S
C1773 O1774 1.278 . S
C1773 O1781 1.224 . S
O1774 C1773 1.278 . S
C1775 O1776 1.245 . S
C1775 O1787 1.232 . S
O1776 C1775 1.245 . S
O1777 Co1771 2.058 . S
O1777 C1803 1.269 . S
O1778 Co1770 2.074 . S
O1778 C1803 1.257 . S
H1779 C1804 0.930 . S
H1780 C1810 0.930 . S
O1781 Co1770 2.093 . S
O1781 C1773 1.224 . S
H1782 C1814 0.929 . S
H1783 C1816 0.930 . S
H1784 C1817 0.930 . S
H1785 C1815 0.929 . S
H1786 C1818 0.928 . S
O1787 Co1771 2.057 . S
O1787 C1775 1.232 . S
H1788 C1807 0.929 . S
H1789 C1808 0.929 . S
H1790 C1820 0.931 . S
H1791 C1812 0.929 . S
H1792 C1821 0.930 . S
H1793 C1813 0.931 . S
O1794 Co1770 2.097 . S
O1794 C1822 1.214 . S
H1795 C1823 0.929 . S
H1796 C1824 0.929 . S
H1797 C1825 0.930 . S
H1798 C1826 0.929 . S
H1799 C1828 0.930 . S
H1800 C1805 0.930 . S
H1801 C1809 0.930 . S
O1802 Co1771 2.037 . S
O1802 C1822 1.234 . S
C1803 O1777 1.269 . S
C1803 O1778 1.257 . S
C1804 H1779 0.930 . S
C1804 C1807 1.388 . S
C1804 C1809 1.418 . S
C1805 H1800 0.930 . S
C1805 C1808 1.404 . S
C1805 C1809 1.353 . S
N1806 Co1771 2.145 . S
N1806 C1807 1.397 . S
N1806 C1808 1.334 . S
C1807 H1788 0.929 . S
C1807 C1804 1.388 . S
C1807 N1806 1.397 . S
C1808 H1789 0.929 . S
C1808 C1805 1.404 . S
C1808 N1806 1.334 . S
C1809 H1801 0.930 . S
C1809 C1804 1.418 . S
C1809 C1805 1.353 . S
C1810 H1780 0.930 . S
C1810 N1811 1.330 . S
C1810 C1812 1.446 . S
N1811 Co1770 2.151 . S
N1811 C1810 1.330 . S
N1811 C1815 1.418 . S
C1812 H1791 0.929 . S
C1812 C1810 1.446 . S
C1812 C1813 1.332 . S
C1813 H1793 0.931 . S
C1813 C1812 1.332 . S
C1813 C1814 1.267 . S
C1814 H1782 0.929 . S
C1814 C1813 1.267 . S
C1814 C1815 1.251 . S
C1815 H1785 0.929 . S
C1815 N1811 1.418 . S
C1815 C1814 1.251 . S
C1816 H1783 0.930 . S
C1816 C1818 1.406 . S
C1816 C1821 1.261 . S
C1817 H1784 0.930 . S
C1817 N1819 1.325 . S
C1817 C1820 1.357 . S
C1818 H1786 0.928 . S
C1818 C1816 1.406 . S
C1818 N1819 1.261 . S
N1819 Co1770 2.214 . S
N1819 C1817 1.325 . S
N1819 C1818 1.261 . S
C1820 H1790 0.931 . S
C1820 C1817 1.357 . S
C1820 C1821 1.312 . S
C1821 H1792 0.930 . S
C1821 C1816 1.261 . S
C1821 C1820 1.312 . S
C1822 O1794 1.214 . S
C1822 O1802 1.234 . S
C1823 H1795 0.929 . S
C1823 C1826 1.391 . S
C1823 C1828 1.391 1_655 S
C1824 H1796 0.929 . S
C1824 C1825 1.390 . S
C1824 N1827 1.391 1_655 S
C1825 H1797 0.930 . S
C1825 C1824 1.390 . S
C1825 C1826 1.392 . S
C1826 H1798 0.929 . S
C1826 C1823 1.391 . S
C1826 C1825 1.392 . S
N1827 Co1771 2.257 . S
N1827 C1824 1.391 1_455 S
N1827 C1828 1.388 . S
C1828 H1799 0.930 . S
C1828 C1823 1.391 1_455 S
C1828 N1827 1.388 . S
Co1829 O1831 2.143 . S
Co1829 O1837 2.074 . S
Co1829 O1840 2.093 . S
Co1829 O1853 2.097 . S
Co1829 N1870 2.151 . S
Co1829 N1878 2.214 . S
Co1830 O1831 2.160 . S
Co1830 O1836 2.058 . S
Co1830 O1846 2.057 . S
Co1830 O1861 2.037 . S
Co1830 N1865 2.145 . S
Co1830 N1886 2.257 . S
O1831 Co1829 2.143 . S
O1831 Co1830 2.160 . S
C1832 O1833 1.278 . S
C1832 O1840 1.224 . S
O1833 C1832 1.278 . S
C1834 O1835 1.245 . S
C1834 O1846 1.232 . S
O1835 C1834 1.245 . S
O1836 Co1830 2.058 . S
O1836 C1862 1.269 . S
O1837 Co1829 2.074 . S
O1837 C1862 1.257 . S
H1838 C1863 0.930 . S
H1839 C1869 0.930 . S
O1840 Co1829 2.093 . S
O1840 C1832 1.224 . S
H1841 C1873 0.929 . S
H1842 C1875 0.930 . S
H1843 C1876 0.930 . S
H1844 C1874 0.929 . S
H1845 C1877 0.928 . S
O1846 Co1830 2.057 . S
O1846 C1834 1.232 . S
H1847 C1866 0.929 . S
H1848 C1867 0.929 . S
H1849 C1879 0.931 . S
H1850 C1871 0.929 . S
H1851 C1880 0.930 . S
H1852 C1872 0.931 . S
O1853 Co1829 2.097 . S
O1853 C1881 1.214 . S
H1854 C1882 0.929 . S
H1855 C1883 0.929 . S
H1856 C1884 0.930 . S
H1857 C1885 0.929 . S
H1858 C1887 0.930 . S
H1859 C1864 0.930 . S
H1860 C1868 0.930 . S
O1861 Co1830 2.037 . S
O1861 C1881 1.234 . S
C1862 O1836 1.269 . S
C1862 O1837 1.257 . S
C1863 H1838 0.930 . S
C1863 C1866 1.388 . S
C1863 C1868 1.418 . S
C1864 H1859 0.930 . S
C1864 C1867 1.404 . S
C1864 C1868 1.353 . S
N1865 Co1830 2.145 . S
N1865 C1866 1.397 . S
N1865 C1867 1.334 . S
C1866 H1847 0.929 . S
C1866 C1863 1.388 . S
C1866 N1865 1.397 . S
C1867 H1848 0.929 . S
C1867 C1864 1.404 . S
C1867 N1865 1.334 . S
C1868 H1860 0.930 . S
C1868 C1863 1.418 . S
C1868 C1864 1.353 . S
C1869 H1839 0.930 . S
C1869 N1870 1.330 . S
C1869 C1871 1.446 . S
N1870 Co1829 2.151 . S
N1870 C1869 1.330 . S
N1870 C1874 1.418 . S
C1871 H1850 0.929 . S
C1871 C1869 1.446 . S
C1871 C1872 1.332 . S
C1872 H1852 0.931 . S
C1872 C1871 1.332 . S
C1872 C1873 1.267 . S
C1873 H1841 0.929 . S
C1873 C1872 1.267 . S
C1873 C1874 1.251 . S
C1874 H1844 0.929 . S
C1874 N1870 1.418 . S
C1874 C1873 1.251 . S
C1875 H1842 0.930 . S
C1875 C1877 1.406 . S
C1875 C1880 1.261 . S
C1876 H1843 0.930 . S
C1876 N1878 1.325 . S
C1876 C1879 1.357 . S
C1877 H1845 0.928 . S
C1877 C1875 1.406 . S
C1877 N1878 1.261 . S
N1878 Co1829 2.214 . S
N1878 C1876 1.325 . S
N1878 C1877 1.261 . S
C1879 H1849 0.931 . S
C1879 C1876 1.357 . S
C1879 C1880 1.312 . S
C1880 H1851 0.930 . S
C1880 C1875 1.261 . S
C1880 C1879 1.312 . S
C1881 O1853 1.214 . S
C1881 O1861 1.234 . S
C1882 H1854 0.929 . S
C1882 C1885 1.391 . S
C1882 C1887 1.391 . S
C1883 H1855 0.929 . S
C1883 C1884 1.390 . S
C1883 N1886 1.391 . S
C1884 H1856 0.930 . S
C1884 C1883 1.390 . S
C1884 C1885 1.392 . S
C1885 H1857 0.929 . S
C1885 C1882 1.391 . S
C1885 C1884 1.392 . S
N1886 Co1830 2.257 . S
N1886 C1883 1.391 . S
N1886 C1887 1.388 . S
C1887 H1858 0.930 . S
C1887 C1882 1.391 . S
C1887 N1886 1.388 . S
Co1888 O1890 2.143 . S
Co1888 O1896 2.074 . S
Co1888 O1899 2.093 . S
Co1888 O1912 2.097 . S
Co1888 N1929 2.151 . S
Co1888 N1937 2.214 . S
Co1889 O1890 2.160 . S
Co1889 O1895 2.058 . S
Co1889 O1905 2.057 . S
Co1889 O1920 2.037 . S
Co1889 N1924 2.145 . S
Co1889 N1945 2.257 . S
O1890 Co1888 2.143 . S
O1890 Co1889 2.160 . S
C1891 O1892 1.278 . S
C1891 O1899 1.224 . S
O1892 C1891 1.278 . S
C1893 O1894 1.245 . S
C1893 O1905 1.232 . S
O1894 C1893 1.245 . S
O1895 Co1889 2.058 . S
O1895 C1921 1.269 . S
O1896 Co1888 2.074 . S
O1896 C1921 1.257 . S
H1897 C1922 0.930 . S
H1898 C1928 0.930 . S
O1899 Co1888 2.093 . S
O1899 C1891 1.224 . S
H1900 C1932 0.929 . S
H1901 C1934 0.930 . S
H1902 C1935 0.930 . S
H1903 C1933 0.929 . S
H1904 C1936 0.928 . S
O1905 Co1889 2.057 . S
O1905 C1893 1.232 . S
H1906 C1925 0.929 . S
H1907 C1926 0.929 . S
H1908 C1938 0.931 . S
H1909 C1930 0.929 . S
H1910 C1939 0.930 . S
H1911 C1931 0.931 . S
O1912 Co1888 2.097 . S
O1912 C1940 1.214 . S
H1913 C1941 0.929 . S
H1914 C1942 0.929 . S
H1915 C1943 0.930 . S
H1916 C1944 0.929 . S
H1917 C1946 0.930 . S
H1918 C1923 0.930 . S
H1919 C1927 0.930 . S
O1920 Co1889 2.037 . S
O1920 C1940 1.234 . S
C1921 O1895 1.269 . S
C1921 O1896 1.257 . S
C1922 H1897 0.930 . S
C1922 C1925 1.388 . S
C1922 C1927 1.418 . S
C1923 H1918 0.930 . S
C1923 C1926 1.404 . S
C1923 C1927 1.353 . S
N1924 Co1889 2.145 . S
N1924 C1925 1.397 . S
N1924 C1926 1.334 . S
C1925 H1906 0.929 . S
C1925 C1922 1.388 . S
C1925 N1924 1.397 . S
C1926 H1907 0.929 . S
C1926 C1923 1.404 . S
C1926 N1924 1.334 . S
C1927 H1919 0.930 . S
C1927 C1922 1.418 . S
C1927 C1923 1.353 . S
C1928 H1898 0.930 . S
C1928 N1929 1.330 . S
C1928 C1930 1.446 . S
N1929 Co1888 2.151 . S
N1929 C1928 1.330 . S
N1929 C1933 1.418 . S
C1930 H1909 0.929 . S
C1930 C1928 1.446 . S
C1930 C1931 1.332 . S
C1931 H1911 0.931 . S
C1931 C1930 1.332 . S
C1931 C1932 1.267 . S
C1932 H1900 0.929 . S
C1932 C1931 1.267 . S
C1932 C1933 1.251 . S
C1933 H1903 0.929 . S
C1933 N1929 1.418 . S
C1933 C1932 1.251 . S
C1934 H1901 0.930 . S
C1934 C1936 1.406 . S
C1934 C1939 1.261 . S
C1935 H1902 0.930 . S
C1935 N1937 1.325 . S
C1935 C1938 1.357 . S
C1936 H1904 0.928 . S
C1936 C1934 1.406 . S
C1936 N1937 1.261 . S
N1937 Co1888 2.214 . S
N1937 C1935 1.325 . S
N1937 C1936 1.261 . S
C1938 H1908 0.931 . S
C1938 C1935 1.357 . S
C1938 C1939 1.312 . S
C1939 H1910 0.930 . S
C1939 C1934 1.261 . S
C1939 C1938 1.312 . S
C1940 O1912 1.214 . S
C1940 O1920 1.234 . S
C1941 H1913 0.929 . S
C1941 C1944 1.391 . S
C1941 C1946 1.391 1_545 S
C1942 H1914 0.929 . S
C1942 C1943 1.390 . S
C1942 N1945 1.391 1_545 S
C1943 H1915 0.930 . S
C1943 C1942 1.390 . S
C1943 C1944 1.392 . S
C1944 H1916 0.929 . S
C1944 C1941 1.391 . S
C1944 C1943 1.392 . S
N1945 Co1889 2.257 . S
N1945 C1942 1.391 1_565 S
N1945 C1946 1.388 . S
C1946 H1917 0.930 . S
C1946 C1941 1.391 1_565 S
C1946 N1945 1.388 . S
Co1947 O1949 2.143 . S
Co1947 O1955 2.074 . S
Co1947 O1958 2.093 . S
Co1947 O1971 2.097 . S
Co1947 N1988 2.151 . S
Co1947 N1996 2.214 . S
Co1948 O1949 2.160 . S
Co1948 O1954 2.058 . S
Co1948 O1964 2.057 . S
Co1948 O1979 2.037 . S
Co1948 N1983 2.145 . S
Co1948 N2004 2.257 . S
O1949 Co1947 2.143 . S
O1949 Co1948 2.160 . S
C1950 O1951 1.278 . S
C1950 O1958 1.224 . S
O1951 C1950 1.278 . S
C1952 O1953 1.245 . S
C1952 O1964 1.232 . S
O1953 C1952 1.245 . S
O1954 Co1948 2.058 . S
O1954 C1980 1.269 . S
O1955 Co1947 2.074 . S
O1955 C1980 1.257 . S
H1956 C1981 0.930 . S
H1957 C1987 0.930 . S
O1958 Co1947 2.093 . S
O1958 C1950 1.224 . S
H1959 C1991 0.929 . S
H1960 C1993 0.930 . S
H1961 C1994 0.930 . S
H1962 C1992 0.929 . S
H1963 C1995 0.928 . S
O1964 Co1948 2.057 . S
O1964 C1952 1.232 . S
H1965 C1984 0.929 . S
H1966 C1985 0.929 . S
H1967 C1997 0.931 . S
H1968 C1989 0.929 . S
H1969 C1998 0.930 . S
H1970 C1990 0.931 . S
O1971 Co1947 2.097 . S
O1971 C1999 1.214 . S
H1972 C2000 0.929 . S
H1973 C2001 0.929 . S
H1974 C2002 0.930 . S
H1975 C2003 0.929 . S
H1976 C2005 0.930 . S
H1977 C1982 0.930 . S
H1978 C1986 0.930 . S
O1979 Co1948 2.037 . S
O1979 C1999 1.234 . S
C1980 O1954 1.269 . S
C1980 O1955 1.257 . S
C1981 H1956 0.930 . S
C1981 C1984 1.388 . S
C1981 C1986 1.418 . S
C1982 H1977 0.930 . S
C1982 C1985 1.404 . S
C1982 C1986 1.353 . S
N1983 Co1948 2.145 . S
N1983 C1984 1.397 . S
N1983 C1985 1.334 . S
C1984 H1965 0.929 . S
C1984 C1981 1.388 . S
C1984 N1983 1.397 . S
C1985 H1966 0.929 . S
C1985 C1982 1.404 . S
C1985 N1983 1.334 . S
C1986 H1978 0.930 . S
C1986 C1981 1.418 . S
C1986 C1982 1.353 . S
C1987 H1957 0.930 . S
C1987 N1988 1.330 . S
C1987 C1989 1.446 . S
N1988 Co1947 2.151 . S
N1988 C1987 1.330 . S
N1988 C1992 1.418 . S
C1989 H1968 0.929 . S
C1989 C1987 1.446 . S
C1989 C1990 1.332 . S
C1990 H1970 0.931 . S
C1990 C1989 1.332 . S
C1990 C1991 1.267 . S
C1991 H1959 0.929 . S
C1991 C1990 1.267 . S
C1991 C1992 1.251 . S
C1992 H1962 0.929 . S
C1992 N1988 1.418 . S
C1992 C1991 1.251 . S
C1993 H1960 0.930 . S
C1993 C1995 1.406 . S
C1993 C1998 1.261 . S
C1994 H1961 0.930 . S
C1994 N1996 1.325 . S
C1994 C1997 1.357 . S
C1995 H1963 0.928 . S
C1995 C1993 1.406 . S
C1995 N1996 1.261 . S
N1996 Co1947 2.214 . S
N1996 C1994 1.325 . S
N1996 C1995 1.261 . S
C1997 H1967 0.931 . S
C1997 C1994 1.357 . S
C1997 C1998 1.312 . S
C1998 H1969 0.930 . S
C1998 C1993 1.261 . S
C1998 C1997 1.312 . S
C1999 O1971 1.214 . S
C1999 O1979 1.234 . S
C2000 H1972 0.929 . S
C2000 C2003 1.391 . S
C2000 C2005 1.391 . S
C2001 H1973 0.929 . S
C2001 C2002 1.390 . S
C2001 N2004 1.391 . S
C2002 H1974 0.930 . S
C2002 C2001 1.390 . S
C2002 C2003 1.392 . S
C2003 H1975 0.929 . S
C2003 C2000 1.391 . S
C2003 C2002 1.392 . S
N2004 Co1948 2.257 . S
N2004 C2001 1.391 . S
N2004 C2005 1.388 . S
C2005 H1976 0.930 . S
C2005 C2000 1.391 . S
C2005 N2004 1.388 . S
Co2006 O2008 2.143 . S
Co2006 O2014 2.074 . S
Co2006 O2017 2.093 . S
Co2006 O2030 2.097 . S
Co2006 N2047 2.151 . S
Co2006 N2055 2.214 . S
Co2007 O2008 2.160 . S
Co2007 O2013 2.058 . S
Co2007 O2023 2.057 . S
Co2007 O2038 2.037 . S
Co2007 N2042 2.145 . S
Co2007 N2063 2.257 . S
O2008 Co2006 2.143 . S
O2008 Co2007 2.160 . S
C2009 O2010 1.278 . S
C2009 O2017 1.224 . S
O2010 C2009 1.278 . S
C2011 O2012 1.245 . S
C2011 O2023 1.232 . S
O2012 C2011 1.245 . S
O2013 Co2007 2.058 . S
O2013 C2039 1.269 . S
O2014 Co2006 2.074 . S
O2014 C2039 1.257 . S
H2015 C2040 0.930 . S
H2016 C2046 0.930 . S
O2017 Co2006 2.093 . S
O2017 C2009 1.224 . S
H2018 C2050 0.929 . S
H2019 C2052 0.930 . S
H2020 C2053 0.930 . S
H2021 C2051 0.929 . S
H2022 C2054 0.928 . S
O2023 Co2007 2.057 . S
O2023 C2011 1.232 . S
H2024 C2043 0.929 . S
H2025 C2044 0.929 . S
H2026 C2056 0.931 . S
H2027 C2048 0.929 . S
H2028 C2057 0.930 . S
H2029 C2049 0.931 . S
O2030 Co2006 2.097 . S
O2030 C2058 1.214 . S
H2031 C2059 0.929 . S
H2032 C2060 0.929 . S
H2033 C2061 0.930 . S
H2034 C2062 0.929 . S
H2035 C2064 0.930 . S
H2036 C2041 0.930 . S
H2037 C2045 0.930 . S
O2038 Co2007 2.037 . S
O2038 C2058 1.234 . S
C2039 O2013 1.269 . S
C2039 O2014 1.257 . S
C2040 H2015 0.930 . S
C2040 C2043 1.388 . S
C2040 C2045 1.418 . S
C2041 H2036 0.930 . S
C2041 C2044 1.404 . S
C2041 C2045 1.353 . S
N2042 Co2007 2.145 . S
N2042 C2043 1.397 . S
N2042 C2044 1.334 . S
C2043 H2024 0.929 . S
C2043 C2040 1.388 . S
C2043 N2042 1.397 . S
C2044 H2025 0.929 . S
C2044 C2041 1.404 . S
C2044 N2042 1.334 . S
C2045 H2037 0.930 . S
C2045 C2040 1.418 . S
C2045 C2041 1.353 . S
C2046 H2016 0.930 . S
C2046 N2047 1.330 . S
C2046 C2048 1.446 . S
N2047 Co2006 2.151 . S
N2047 C2046 1.330 . S
N2047 C2051 1.418 . S
C2048 H2027 0.929 . S
C2048 C2046 1.446 . S
C2048 C2049 1.332 . S
C2049 H2029 0.931 . S
C2049 C2048 1.332 . S
C2049 C2050 1.267 . S
C2050 H2018 0.929 . S
C2050 C2049 1.267 . S
C2050 C2051 1.251 . S
C2051 H2021 0.929 . S
C2051 N2047 1.418 . S
C2051 C2050 1.251 . S
C2052 H2019 0.930 . S
C2052 C2054 1.406 . S
C2052 C2057 1.261 . S
C2053 H2020 0.930 . S
C2053 N2055 1.325 . S
C2053 C2056 1.357 . S
C2054 H2022 0.928 . S
C2054 C2052 1.406 . S
C2054 N2055 1.261 . S
N2055 Co2006 2.214 . S
N2055 C2053 1.325 . S
N2055 C2054 1.261 . S
C2056 H2026 0.931 . S
C2056 C2053 1.357 . S
C2056 C2057 1.312 . S
C2057 H2028 0.930 . S
C2057 C2052 1.261 . S
C2057 C2056 1.312 . S
C2058 O2030 1.214 . S
C2058 O2038 1.234 . S
C2059 H2031 0.929 . S
C2059 C2062 1.391 . S
C2059 C2064 1.391 . S
C2060 H2032 0.929 . S
C2060 C2061 1.390 . S
C2060 N2063 1.391 . S
C2061 H2033 0.930 . S
C2061 C2060 1.390 . S
C2061 C2062 1.392 . S
C2062 H2034 0.929 . S
C2062 C2059 1.391 . S
C2062 C2061 1.392 . S
N2063 Co2007 2.257 . S
N2063 C2060 1.391 . S
N2063 C2064 1.388 . S
C2064 H2035 0.930 . S
C2064 C2059 1.391 . S
C2064 N2063 1.388 . S
Co2065 O2067 2.143 . S
Co2065 O2073 2.074 . S
Co2065 O2076 2.093 . S
Co2065 O2089 2.097 . S
Co2065 N2106 2.151 . S
Co2065 N2114 2.214 . S
Co2066 O2067 2.160 . S
Co2066 O2072 2.058 . S
Co2066 O2082 2.057 . S
Co2066 O2097 2.037 . S
Co2066 N2101 2.145 . S
Co2066 N2122 2.257 . S
O2067 Co2065 2.143 . S
O2067 Co2066 2.160 . S
C2068 O2069 1.278 . S
C2068 O2076 1.224 . S
O2069 C2068 1.278 . S
C2070 O2071 1.245 . S
C2070 O2082 1.232 . S
O2071 C2070 1.245 . S
O2072 Co2066 2.058 . S
O2072 C2098 1.269 . S
O2073 Co2065 2.074 . S
O2073 C2098 1.257 . S
H2074 C2099 0.930 . S
H2075 C2105 0.930 . S
O2076 Co2065 2.093 . S
O2076 C2068 1.224 . S
H2077 C2109 0.929 . S
H2078 C2111 0.930 . S
H2079 C2112 0.930 . S
H2080 C2110 0.929 . S
H2081 C2113 0.928 . S
O2082 Co2066 2.057 . S
O2082 C2070 1.232 . S
H2083 C2102 0.929 . S
H2084 C2103 0.929 . S
H2085 C2115 0.931 . S
H2086 C2107 0.929 . S
H2087 C2116 0.930 . S
H2088 C2108 0.931 . S
O2089 Co2065 2.097 . S
O2089 C2117 1.214 . S
H2090 C2118 0.929 . S
H2091 C2119 0.929 . S
H2092 C2120 0.930 . S
H2093 C2121 0.929 . S
H2094 C2123 0.930 . S
H2095 C2100 0.930 . S
H2096 C2104 0.930 . S
O2097 Co2066 2.037 . S
O2097 C2117 1.234 . S
C2098 O2072 1.269 . S
C2098 O2073 1.257 . S
C2099 H2074 0.930 . S
C2099 C2102 1.388 . S
C2099 C2104 1.418 . S
C2100 H2095 0.930 . S
C2100 C2103 1.404 . S
C2100 C2104 1.353 . S
N2101 Co2066 2.145 . S
N2101 C2102 1.397 . S
N2101 C2103 1.334 . S
C2102 H2083 0.929 . S
C2102 C2099 1.388 . S
C2102 N2101 1.397 . S
C2103 H2084 0.929 . S
C2103 C2100 1.404 . S
C2103 N2101 1.334 . S
C2104 H2096 0.930 . S
C2104 C2099 1.418 . S
C2104 C2100 1.353 . S
C2105 H2075 0.930 . S
C2105 N2106 1.330 . S
C2105 C2107 1.446 . S
N2106 Co2065 2.151 . S
N2106 C2105 1.330 . S
N2106 C2110 1.418 . S
C2107 H2086 0.929 . S
C2107 C2105 1.446 . S
C2107 C2108 1.332 . S
C2108 H2088 0.931 . S
C2108 C2107 1.332 . S
C2108 C2109 1.267 . S
C2109 H2077 0.929 . S
C2109 C2108 1.267 . S
C2109 C2110 1.251 . S
C2110 H2080 0.929 . S
C2110 N2106 1.418 . S
C2110 C2109 1.251 . S
C2111 H2078 0.930 . S
C2111 C2113 1.406 . S
C2111 C2116 1.261 . S
C2112 H2079 0.930 . S
C2112 N2114 1.325 . S
C2112 C2115 1.357 . S
C2113 H2081 0.928 . S
C2113 C2111 1.406 . S
C2113 N2114 1.261 . S
N2114 Co2065 2.214 . S
N2114 C2112 1.325 . S
N2114 C2113 1.261 . S
C2115 H2085 0.931 . S
C2115 C2112 1.357 . S
C2115 C2116 1.312 . S
C2116 H2087 0.930 . S
C2116 C2111 1.261 . S
C2116 C2115 1.312 . S
C2117 O2089 1.214 . S
C2117 O2097 1.234 . S
C2118 H2090 0.929 . S
C2118 C2121 1.391 . S
C2118 C2123 1.391 . S
C2119 H2091 0.929 . S
C2119 C2120 1.390 . S
C2119 N2122 1.391 . S
C2120 H2092 0.930 . S
C2120 C2119 1.390 . S
C2120 C2121 1.392 . S
C2121 H2093 0.929 . S
C2121 C2118 1.391 . S
C2121 C2120 1.392 . S
N2122 Co2066 2.257 . S
N2122 C2119 1.391 . S
N2122 C2123 1.388 . S
C2123 H2094 0.930 . S
C2123 C2118 1.391 . S
C2123 N2122 1.388 . S
H2124 C2130 0.930 . S
H2125 C2134 0.930 . S
H2126 C2139 0.929 . S
H2127 C2137 0.929 . S
H2128 C2132 0.929 . S
H2129 C2138 0.929 . S
C2130 H2124 0.930 . S
C2130 C2131 1.367 . S
C2130 C2138 1.378 . S
C2131 C2130 1.367 . S
C2131 C2139 1.433 . S
C2132 H2128 0.929 . S
C2132 C2134 1.378 . S
C2132 C2136 1.350 . S
C2133 C2136 1.463 . S
C2133 C2138 1.350 . S
C2133 N2141 1.427 . S
C2134 H2125 0.930 . S
C2134 C2132 1.378 . S
C2134 C2135 1.367 . S
C2135 C2134 1.367 . S
C2135 C2137 1.433 . S
C2136 C2132 1.350 . S
C2136 C2133 1.463 . S
C2136 N2140 1.427 . S
C2137 H2127 0.929 . S
C2137 C2135 1.433 . S
C2137 N2140 1.384 . S
C2138 H2129 0.929 . S
C2138 C2130 1.378 . S
C2138 C2133 1.350 . S
C2139 H2126 0.929 . S
C2139 C2131 1.433 . S
C2139 N2141 1.384 . S
N2140 C2136 1.427 . S
N2140 C2137 1.384 . S
N2141 C2133 1.427 . S
N2141 C2139 1.384 . S
H2142 C2148 0.930 . S
H2143 C2152 0.930 . S
H2144 C2157 0.929 . S
H2145 C2155 0.929 . S
H2146 C2150 0.929 . S
H2147 C2156 0.929 . S
C2148 H2142 0.930 . S
C2148 C2149 1.367 . S
C2148 C2156 1.378 . S
C2149 C2148 1.367 . S
C2149 C2157 1.433 . S
C2150 H2146 0.929 . S
C2150 C2152 1.378 . S
C2150 C2154 1.350 . S
C2151 C2154 1.463 . S
C2151 C2156 1.350 . S
C2151 N2159 1.427 . S
C2152 H2143 0.930 . S
C2152 C2150 1.378 . S
C2152 C2153 1.367 . S
C2153 C2152 1.367 . S
C2153 C2155 1.433 . S
C2154 C2150 1.350 . S
C2154 C2151 1.463 . S
C2154 N2158 1.427 . S
C2155 H2145 0.929 . S
C2155 C2153 1.433 . S
C2155 N2158 1.384 . S
C2156 H2147 0.929 . S
C2156 C2148 1.378 . S
C2156 C2151 1.350 . S
C2157 H2144 0.929 . S
C2157 C2149 1.433 . S
C2157 N2159 1.384 . S
N2158 C2154 1.427 . S
N2158 C2155 1.384 . S
N2159 C2151 1.427 . S
N2159 C2157 1.384 . S
H2160 C2166 0.930 . S
H2161 C2170 0.930 . S
H2162 C2175 0.929 . S
H2163 C2173 0.929 . S
H2164 C2168 0.929 . S
H2165 C2174 0.929 . S
C2166 H2160 0.930 . S
C2166 C2167 1.367 . S
C2166 C2174 1.378 . S
C2167 C2166 1.367 . S
C2167 C2175 1.433 . S
C2168 H2164 0.929 . S
C2168 C2170 1.378 . S
C2168 C2172 1.350 . S
C2169 C2172 1.463 . S
C2169 C2174 1.350 . S
C2169 N2177 1.427 . S
C2170 H2161 0.930 . S
C2170 C2168 1.378 . S
C2170 C2171 1.367 . S
C2171 C2170 1.367 . S
C2171 C2173 1.433 . S
C2172 C2168 1.350 . S
C2172 C2169 1.463 . S
C2172 N2176 1.427 . S
C2173 H2163 0.929 . S
C2173 C2171 1.433 . S
C2173 N2176 1.384 . S
C2174 H2165 0.929 . S
C2174 C2166 1.378 . S
C2174 C2169 1.350 . S
C2175 H2162 0.929 . S
C2175 C2167 1.433 . S
C2175 N2177 1.384 . S
N2176 C2172 1.427 . S
N2176 C2173 1.384 . S
N2177 C2169 1.427 . S
N2177 C2175 1.384 . S
H2178 C2184 0.930 . S
H2179 C2188 0.930 . S
H2180 C2193 0.929 . S
H2181 C2191 0.929 . S
H2182 C2186 0.929 . S
H2183 C2192 0.929 . S
C2184 H2178 0.930 . S
C2184 C2185 1.367 . S
C2184 C2192 1.378 . S
C2185 C2184 1.367 . S
C2185 C2193 1.433 . S
C2186 H2182 0.929 . S
C2186 C2188 1.378 . S
C2186 C2190 1.350 . S
C2187 C2190 1.463 . S
C2187 C2192 1.350 . S
C2187 N2195 1.427 . S
C2188 H2179 0.930 . S
C2188 C2186 1.378 . S
C2188 C2189 1.367 . S
C2189 C2188 1.367 . S
C2189 C2191 1.433 . S
C2190 C2186 1.350 . S
C2190 C2187 1.463 . S
C2190 N2194 1.427 . S
C2191 H2181 0.929 . S
C2191 C2189 1.433 . S
C2191 N2194 1.384 . S
C2192 H2183 0.929 . S
C2192 C2184 1.378 . S
C2192 C2187 1.350 . S
C2193 H2180 0.929 . S
C2193 C2185 1.433 . S
C2193 N2195 1.384 . S
N2194 C2190 1.427 . S
N2194 C2191 1.384 . S
N2195 C2187 1.427 . S
N2195 C2193 1.384 . S
H2196 C2202 0.930 . S
H2197 C2206 0.930 . S
H2198 C2211 0.929 . S
H2199 C2209 0.929 . S
H2200 C2204 0.929 . S
H2201 C2210 0.929 . S
C2202 H2196 0.930 . S
C2202 C2203 1.367 . S
C2202 C2210 1.378 . S
C2203 C2202 1.367 . S
C2203 C2211 1.433 . S
C2204 H2200 0.929 . S
C2204 C2206 1.378 . S
C2204 C2208 1.350 . S
C2205 C2208 1.463 . S
C2205 C2210 1.350 . S
C2205 N2213 1.427 . S
C2206 H2197 0.930 . S
C2206 C2204 1.378 . S
C2206 C2207 1.367 . S
C2207 C2206 1.367 . S
C2207 C2209 1.433 . S
C2208 C2204 1.350 . S
C2208 C2205 1.463 . S
C2208 N2212 1.427 . S
C2209 H2199 0.929 . S
C2209 C2207 1.433 . S
C2209 N2212 1.384 . S
C2210 H2201 0.929 . S
C2210 C2202 1.378 . S
C2210 C2205 1.350 . S
C2211 H2198 0.929 . S
C2211 C2203 1.433 . S
C2211 N2213 1.384 . S
N2212 C2208 1.427 . S
N2212 C2209 1.384 . S
N2213 C2205 1.427 . S
N2213 C2211 1.384 . S
H2214 C2220 0.930 . S
H2215 C2224 0.930 . S
H2216 C2229 0.929 . S
H2217 C2227 0.929 . S
H2218 C2222 0.929 . S
H2219 C2228 0.929 . S
C2220 H2214 0.930 . S
C2220 C2221 1.367 . S
C2220 C2228 1.378 . S
C2221 C2220 1.367 . S
C2221 C2229 1.433 . S
C2222 H2218 0.929 . S
C2222 C2224 1.378 . S
C2222 C2226 1.350 . S
C2223 C2226 1.463 . S
C2223 C2228 1.350 . S
C2223 N2231 1.427 . S
C2224 H2215 0.930 . S
C2224 C2222 1.378 . S
C2224 C2225 1.367 . S
C2225 C2224 1.367 . S
C2225 C2227 1.433 . S
C2226 C2222 1.350 . S
C2226 C2223 1.463 . S
C2226 N2230 1.427 . S
C2227 H2217 0.929 . S
C2227 C2225 1.433 . S
C2227 N2230 1.384 . S
C2228 H2219 0.929 . S
C2228 C2220 1.378 . S
C2228 C2223 1.350 . S
C2229 H2216 0.929 . S
C2229 C2221 1.433 . S
C2229 N2231 1.384 . S
N2230 C2226 1.427 . S
N2230 C2227 1.384 . S
N2231 C2223 1.427 . S
N2231 C2229 1.384 . S
H2232 C2238 0.930 . S
H2233 C2242 0.930 . S
H2234 C2247 0.929 . S
H2235 C2245 0.929 . S
H2236 C2240 0.929 . S
H2237 C2246 0.929 . S
C2238 H2232 0.930 . S
C2238 C2239 1.367 . S
C2238 C2246 1.378 . S
C2239 C2238 1.367 . S
C2239 C2247 1.433 . S
C2240 H2236 0.929 . S
C2240 C2242 1.378 . S
C2240 C2244 1.350 . S
C2241 C2244 1.463 . S
C2241 C2246 1.350 . S
C2241 N2249 1.427 . S
C2242 H2233 0.930 . S
C2242 C2240 1.378 . S
C2242 C2243 1.367 . S
C2243 C2242 1.367 . S
C2243 C2245 1.433 . S
C2244 C2240 1.350 . S
C2244 C2241 1.463 . S
C2244 N2248 1.427 . S
C2245 H2235 0.929 . S
C2245 C2243 1.433 . S
C2245 N2248 1.384 . S
C2246 H2237 0.929 . S
C2246 C2238 1.378 . S
C2246 C2241 1.350 . S
C2247 H2234 0.929 . S
C2247 C2239 1.433 . S
C2247 N2249 1.384 . S
N2248 C2244 1.427 . S
N2248 C2245 1.384 . S
N2249 C2241 1.427 . S
N2249 C2247 1.384 . S
H2250 C2256 0.930 . S
H2251 C2260 0.930 . S
H2252 C2265 0.929 . S
H2253 C2263 0.929 . S
H2254 C2258 0.929 . S
H2255 C2264 0.929 . S
C2256 H2250 0.930 . S
C2256 C2257 1.367 . S
C2256 C2264 1.378 . S
C2257 C2256 1.367 . S
C2257 C2265 1.433 . S
C2258 H2254 0.929 . S
C2258 C2260 1.378 . S
C2258 C2262 1.350 . S
C2259 C2262 1.463 . S
C2259 C2264 1.350 . S
C2259 N2267 1.427 . S
C2260 H2251 0.930 . S
C2260 C2258 1.378 . S
C2260 C2261 1.367 . S
C2261 C2260 1.367 . S
C2261 C2263 1.433 . S
C2262 C2258 1.350 . S
C2262 C2259 1.463 . S
C2262 N2266 1.427 . S
C2263 H2253 0.929 . S
C2263 C2261 1.433 . S
C2263 N2266 1.384 . S
C2264 H2255 0.929 . S
C2264 C2256 1.378 . S
C2264 C2259 1.350 . S
C2265 H2252 0.929 . S
C2265 C2257 1.433 . S
C2265 N2267 1.384 . S
N2266 C2262 1.427 . S
N2266 C2263 1.384 . S
N2267 C2259 1.427 . S
N2267 C2265 1.384 . S
H2268 C2274 0.930 . S
H2269 C2278 0.930 . S
H2270 C2283 0.929 . S
H2271 C2281 0.929 . S
H2272 C2276 0.929 . S
H2273 C2282 0.929 . S
C2274 H2268 0.930 . S
C2274 C2275 1.367 . S
C2274 C2282 1.378 . S
C2275 C2274 1.367 . S
C2275 C2283 1.433 . S
C2276 H2272 0.929 . S
C2276 C2278 1.378 . S
C2276 C2280 1.350 . S
C2277 C2280 1.463 . S
C2277 C2282 1.350 . S
C2277 N2285 1.427 . S
C2278 H2269 0.930 . S
C2278 C2276 1.378 . S
C2278 C2279 1.367 . S
C2279 C2278 1.367 . S
C2279 C2281 1.433 . S
C2280 C2276 1.350 . S
C2280 C2277 1.463 . S
C2280 N2284 1.427 . S
C2281 H2271 0.929 . S
C2281 C2279 1.433 . S
C2281 N2284 1.384 . S
C2282 H2273 0.929 . S
C2282 C2274 1.378 . S
C2282 C2277 1.350 . S
C2283 H2270 0.929 . S
C2283 C2275 1.433 . S
C2283 N2285 1.384 . S
N2284 C2280 1.427 . S
N2284 C2281 1.384 . S
N2285 C2277 1.427 . S
N2285 C2283 1.384 . S
H2286 C2292 0.930 . S
H2287 C2296 0.930 . S
H2288 C2301 0.929 . S
H2289 C2299 0.929 . S
H2290 C2294 0.929 . S
H2291 C2300 0.929 . S
C2292 H2286 0.930 . S
C2292 C2293 1.367 . S
C2292 C2300 1.378 . S
C2293 C2292 1.367 . S
C2293 C2301 1.433 . S
C2294 H2290 0.929 . S
C2294 C2296 1.378 . S
C2294 C2298 1.350 . S
C2295 C2298 1.463 . S
C2295 C2300 1.350 . S
C2295 N2303 1.427 . S
C2296 H2287 0.930 . S
C2296 C2294 1.378 . S
C2296 C2297 1.367 . S
C2297 C2296 1.367 . S
C2297 C2299 1.433 . S
C2298 C2294 1.350 . S
C2298 C2295 1.463 . S
C2298 N2302 1.427 . S
C2299 H2289 0.929 . S
C2299 C2297 1.433 . S
C2299 N2302 1.384 . S
C2300 H2291 0.929 . S
C2300 C2292 1.378 . S
C2300 C2295 1.350 . S
C2301 H2288 0.929 . S
C2301 C2293 1.433 . S
C2301 N2303 1.384 . S
N2302 C2298 1.427 . S
N2302 C2299 1.384 . S
N2303 C2295 1.427 . S
N2303 C2301 1.384 . S
H2304 C2310 0.930 . S
H2305 C2314 0.930 . S
H2306 C2319 0.929 . S
H2307 C2317 0.929 . S
H2308 C2312 0.929 . S
H2309 C2318 0.929 . S
C2310 H2304 0.930 . S
C2310 C2311 1.367 . S
C2310 C2318 1.378 . S
C2311 C2310 1.367 . S
C2311 C2319 1.433 . S
C2312 H2308 0.929 . S
C2312 C2314 1.378 . S
C2312 C2316 1.350 . S
C2313 C2316 1.463 . S
C2313 C2318 1.350 . S
C2313 N2321 1.427 . S
C2314 H2305 0.930 . S
C2314 C2312 1.378 . S
C2314 C2315 1.367 . S
C2315 C2314 1.367 . S
C2315 C2317 1.433 . S
C2316 C2312 1.350 . S
C2316 C2313 1.463 . S
C2316 N2320 1.427 . S
C2317 H2307 0.929 . S
C2317 C2315 1.433 . S
C2317 N2320 1.384 . S
C2318 H2309 0.929 . S
C2318 C2310 1.378 . S
C2318 C2313 1.350 . S
C2319 H2306 0.929 . S
C2319 C2311 1.433 . S
C2319 N2321 1.384 . S
N2320 C2316 1.427 . S
N2320 C2317 1.384 . S
N2321 C2313 1.427 . S
N2321 C2319 1.384 . S
H2322 C2328 0.930 . S
H2323 C2332 0.930 . S
H2324 C2337 0.929 . S
H2325 C2335 0.929 . S
H2326 C2330 0.929 . S
H2327 C2336 0.929 . S
C2328 H2322 0.930 . S
C2328 C2329 1.367 . S
C2328 C2336 1.378 . S
C2329 C2328 1.367 . S
C2329 C2337 1.433 . S
C2330 H2326 0.929 . S
C2330 C2332 1.378 . S
C2330 C2334 1.350 . S
C2331 C2334 1.463 . S
C2331 C2336 1.350 . S
C2331 N2339 1.427 . S
C2332 H2323 0.930 . S
C2332 C2330 1.378 . S
C2332 C2333 1.367 . S
C2333 C2332 1.367 . S
C2333 C2335 1.433 . S
C2334 C2330 1.350 . S
C2334 C2331 1.463 . S
C2334 N2338 1.427 . S
C2335 H2325 0.929 . S
C2335 C2333 1.433 . S
C2335 N2338 1.384 . S
C2336 H2327 0.929 . S
C2336 C2328 1.378 . S
C2336 C2331 1.350 . S
C2337 H2324 0.929 . S
C2337 C2329 1.433 . S
C2337 N2339 1.384 . S
N2338 C2334 1.427 . S
N2338 C2335 1.384 . S
N2339 C2331 1.427 . S
N2339 C2337 1.384 . S
H2340 C2346 0.930 . S
H2341 C2350 0.930 . S
H2342 C2355 0.929 . S
H2343 C2353 0.929 . S
H2344 C2348 0.929 1_655 S
H2345 C2354 0.929 1_455 S
C2346 H2340 0.930 . S
C2346 C2347 1.367 . S
C2346 C2354 1.378 . S
C2347 C2346 1.367 . S
C2347 C2355 1.433 . S
C2348 H2344 0.929 1_455 S
C2348 C2350 1.378 . S
C2348 C2352 1.350 . S
C2349 C2352 1.463 1_655 S
C2349 C2354 1.350 . S
C2349 N2357 1.427 . S
C2350 H2341 0.930 . S
C2350 C2348 1.378 . S
C2350 C2351 1.367 . S
C2351 C2350 1.367 . S
C2351 C2353 1.433 . S
C2352 C2348 1.350 . S
C2352 C2349 1.463 1_455 S
C2352 N2356 1.427 . S
C2353 H2343 0.929 . S
C2353 C2351 1.433 . S
C2353 N2356 1.384 . S
C2354 H2345 0.929 1_655 S
C2354 C2346 1.378 . S
C2354 C2349 1.350 . S
C2355 H2342 0.929 . S
C2355 C2347 1.433 . S
C2355 N2357 1.384 . S
N2356 C2352 1.427 . S
N2356 C2353 1.384 . S
N2357 C2349 1.427 . S
N2357 C2355 1.384 . S
H2358 C2364 0.930 . S
H2359 C2368 0.930 . S
H2360 C2373 0.929 . S
H2361 C2371 0.929 . S
H2362 C2366 0.929 . S
H2363 C2372 0.929 . S
C2364 H2358 0.930 . S
C2364 C2365 1.367 . S
C2364 C2372 1.378 . S
C2365 C2364 1.367 . S
C2365 C2373 1.433 . S
C2366 H2362 0.929 . S
C2366 C2368 1.378 . S
C2366 C2370 1.350 . S
C2367 C2370 1.463 . S
C2367 C2372 1.350 . S
C2367 N2375 1.427 . S
C2368 H2359 0.930 . S
C2368 C2366 1.378 . S
C2368 C2369 1.367 . S
C2369 C2368 1.367 . S
C2369 C2371 1.433 . S
C2370 C2366 1.350 . S
C2370 C2367 1.463 . S
C2370 N2374 1.427 . S
C2371 H2361 0.929 . S
C2371 C2369 1.433 . S
C2371 N2374 1.384 . S
C2372 H2363 0.929 . S
C2372 C2364 1.378 . S
C2372 C2367 1.350 . S
C2373 H2360 0.929 . S
C2373 C2365 1.433 . S
C2373 N2375 1.384 . S
N2374 C2370 1.427 . S
N2374 C2371 1.384 . S
N2375 C2367 1.427 . S
N2375 C2373 1.384 . S
H2376 C2382 0.930 . S
H2377 C2386 0.930 . S
H2378 C2391 0.929 . S
H2379 C2389 0.929 . S
H2380 C2384 0.929 . S
H2381 C2390 0.929 . S
C2382 H2376 0.930 . S
C2382 C2383 1.367 . S
C2382 C2390 1.378 . S
C2383 C2382 1.367 . S
C2383 C2391 1.433 . S
C2384 H2380 0.929 . S
C2384 C2386 1.378 . S
C2384 C2388 1.350 . S
C2385 C2388 1.463 1_545 S
C2385 C2390 1.350 . S
C2385 N2393 1.427 1_545 S
C2386 H2377 0.930 . S
C2386 C2384 1.378 . S
C2386 C2387 1.367 . S
C2387 C2386 1.367 . S
C2387 C2389 1.433 . S
C2388 C2384 1.350 . S
C2388 C2385 1.463 1_565 S
C2388 N2392 1.427 1_565 S
C2389 H2379 0.929 . S
C2389 C2387 1.433 . S
C2389 N2392 1.384 1_565 S
C2390 H2381 0.929 . S
C2390 C2382 1.378 . S
C2390 C2385 1.350 . S
C2391 H2378 0.929 . S
C2391 C2383 1.433 . S
C2391 N2393 1.384 1_545 S
N2392 C2388 1.427 1_545 S
N2392 C2389 1.384 1_545 S
N2393 C2385 1.427 1_565 S
N2393 C2391 1.384 1_565 S
H2394 C2400 0.930 . S
H2395 C2404 0.930 . S
H2396 C2409 0.929 . S
H2397 C2407 0.929 . S
H2398 C2402 0.929 1_556 S
H2399 C2408 0.929 1_554 S
C2400 H2394 0.930 . S
C2400 C2401 1.367 . S
C2400 C2408 1.378 . S
C2401 C2400 1.367 . S
C2401 C2409 1.433 . S
C2402 H2398 0.929 1_554 S
C2402 C2404 1.378 . S
C2402 C2406 1.350 . S
C2403 C2406 1.463 1_546 S
C2403 C2408 1.350 . S
C2403 N2411 1.427 . S
C2404 H2395 0.930 . S
C2404 C2402 1.378 . S
C2404 C2405 1.367 . S
C2405 C2404 1.367 . S
C2405 C2407 1.433 . S
C2406 C2402 1.350 . S
C2406 C2403 1.463 1_564 S
C2406 N2410 1.427 . S
C2407 H2397 0.929 . S
C2407 C2405 1.433 . S
C2407 N2410 1.384 . S
C2408 H2399 0.929 1_556 S
C2408 C2400 1.378 . S
C2408 C2403 1.350 . S
C2409 H2396 0.929 . S
C2409 C2401 1.433 . S
C2409 N2411 1.384 . S
N2410 C2406 1.427 . S
N2410 C2407 1.384 . S
N2411 C2403 1.427 . S
N2411 C2409 1.384 . S
H2412 C2418 0.930 . S
H2413 C2422 0.930 . S
H2414 C2427 0.929 . S
H2415 C2425 0.929 . S
H2416 C2420 0.929 1_655 S
H2417 C2426 0.929 1_455 S
C2418 H2412 0.930 . S
C2418 C2419 1.367 . S
C2418 C2426 1.378 . S
C2419 C2418 1.367 . S
C2419 C2427 1.433 . S
C2420 H2416 0.929 1_455 S
C2420 C2422 1.378 . S
C2420 C2424 1.350 . S
C2421 C2424 1.463 1_656 S
C2421 C2426 1.350 . S
C2421 N2429 1.427 . S
C2422 H2413 0.930 . S
C2422 C2420 1.378 . S
C2422 C2423 1.367 . S
C2423 C2422 1.367 . S
C2423 C2425 1.433 . S
C2424 C2420 1.350 . S
C2424 C2421 1.463 1_454 S
C2424 N2428 1.427 . S
C2425 H2415 0.929 . S
C2425 C2423 1.433 . S
C2425 N2428 1.384 . S
C2426 H2417 0.929 1_655 S
C2426 C2418 1.378 . S
C2426 C2421 1.350 . S
C2427 H2414 0.929 . S
C2427 C2419 1.433 . S
C2427 N2429 1.384 . S
N2428 C2424 1.427 . S
N2428 C2425 1.384 . S
N2429 C2421 1.427 . S
N2429 C2427 1.384 . S
H2430 C2436 0.930 . S
H2431 C2440 0.930 . S
H2432 C2445 0.929 . S
H2433 C2443 0.929 . S
H2434 C2438 0.929 . S
H2435 C2444 0.929 . S
C2436 H2430 0.930 . S
C2436 C2437 1.367 . S
C2436 C2444 1.378 . S
C2437 C2436 1.367 . S
C2437 C2445 1.433 . S
C2438 H2434 0.929 . S
C2438 C2440 1.378 . S
C2438 C2442 1.350 . S
C2439 C2442 1.463 1_556 S
C2439 C2444 1.350 . S
C2439 N2447 1.427 . S
C2440 H2431 0.930 . S
C2440 C2438 1.378 . S
C2440 C2441 1.367 . S
C2441 C2440 1.367 . S
C2441 C2443 1.433 . S
C2442 C2438 1.350 . S
C2442 C2439 1.463 1_554 S
C2442 N2446 1.427 . S
C2443 H2433 0.929 . S
C2443 C2441 1.433 . S
C2443 N2446 1.384 . S
C2444 H2435 0.929 . S
C2444 C2436 1.378 . S
C2444 C2439 1.350 . S
C2445 H2432 0.929 . S
C2445 C2437 1.433 . S
C2445 N2447 1.384 . S
N2446 C2442 1.427 . S
N2446 C2443 1.384 . S
N2447 C2439 1.427 . S
N2447 C2445 1.384 . S
H2448 C2454 0.930 . S
H2449 C2458 0.937 . S
H2450 C2463 0.929 . S
H2451 C2461 0.929 . S
H2452 C2456 0.929 . S
H2453 C2462 0.929 1_554 S
C2454 H2448 0.930 . S
C2454 C2455 1.367 . S
C2454 C2462 1.378 1_565 S
C2455 C2454 1.367 . S
C2455 C2463 1.433 1_565 S
C2456 H2452 0.929 . S
C2456 C2458 1.378 1_556 S
C2456 C2460 1.350 . S
C2457 C2460 1.463 . S
C2457 C2462 1.350 . S
C2457 N2465 1.427 . S
C2458 H2449 0.937 . S
C2458 C2456 1.378 1_554 S
C2458 C2459 1.367 . S
C2459 C2458 1.367 . S
C2459 C2461 1.433 . S
C2460 C2456 1.350 . S
C2460 C2457 1.463 . S
C2460 N2464 1.427 1_556 S
C2461 H2451 0.929 . S
C2461 C2459 1.433 . S
C2461 N2464 1.384 . S
C2462 H2453 0.929 1_556 S
C2462 C2454 1.378 1_545 S
C2462 C2457 1.350 . S
C2463 H2450 0.929 . S
C2463 C2455 1.433 1_545 S
C2463 N2465 1.384 . S
N2464 C2460 1.427 1_554 S
N2464 C2461 1.384 . S
N2465 C2457 1.427 . S
N2465 C2463 1.384 . S
H2466 C2472 0.930 . S
H2467 C2476 0.930 . S
H2468 C2481 0.930 . S
H2469 C2479 0.929 1_556 S
H2470 C2474 0.929 . S
H2471 C2480 0.929 . S
C2472 H2466 0.930 . S
C2472 C2473 1.367 1_655 S
C2472 C2480 1.378 . S
C2473 C2472 1.367 1_455 S
C2473 C2481 1.434 . S
C2474 H2470 0.929 . S
C2474 C2476 1.378 . S
C2474 C2478 1.350 1_554 S
C2475 C2478 1.463 . S
C2475 C2480 1.350 . S
C2475 N2483 1.427 . S
C2476 H2467 0.930 . S
C2476 C2474 1.378 . S
C2476 C2477 1.367 . S
C2477 C2476 1.367 . S
C2477 C2479 1.433 . S
C2478 C2474 1.350 1_556 S
C2478 C2475 1.463 . S
C2478 N2482 1.427 . S
C2479 H2469 0.929 1_554 S
C2479 C2477 1.433 . S
C2479 N2482 1.384 1_554 S
C2480 H2471 0.929 . S
C2480 C2472 1.378 . S
C2480 C2475 1.350 . S
C2481 H2468 0.930 . S
C2481 C2473 1.434 . S
C2481 N2483 1.382 1_455 S
N2482 C2478 1.427 . S
N2482 C2479 1.384 1_556 S
N2483 C2475 1.427 . S
N2483 C2481 1.382 1_655 S
H2484 C2490 0.930 . S
H2485 C2494 0.930 . S
H2486 C2499 0.929 1_556 S
H2487 C2497 0.929 . S
H2488 C2492 0.929 . S
H2489 C2498 0.929 . S
C2490 H2484 0.930 . S
C2490 C2491 1.367 . S
C2490 C2498 1.378 . S
C2491 C2490 1.367 . S
C2491 C2499 1.433 . S
C2492 H2488 0.929 . S
C2492 C2494 1.378 . S
C2492 C2496 1.350 . S
C2493 C2496 1.463 . S
C2493 C2498 1.350 1_556 S
C2493 N2501 1.427 . S
C2494 H2485 0.930 . S
C2494 C2492 1.378 . S
C2494 C2495 1.367 . S
C2495 C2494 1.367 . S
C2495 C2497 1.433 . S
C2496 C2492 1.350 . S
C2496 C2493 1.463 . S
C2496 N2500 1.427 . S
C2497 H2487 0.929 . S
C2497 C2495 1.433 . S
C2497 N2500 1.384 . S
C2498 H2489 0.929 . S
C2498 C2490 1.378 . S
C2498 C2493 1.350 1_554 S
C2499 H2486 0.929 1_554 S
C2499 C2491 1.433 . S
C2499 N2501 1.384 1_554 S
N2500 C2496 1.427 . S
N2500 C2497 1.384 . S
N2501 C2493 1.427 . S
N2501 C2499 1.384 1_556 S
H2502 C2508 0.930 . S
H2503 C2512 0.930 . S
H2504 C2517 0.929 . S
H2505 C2515 0.929 . S
H2506 C2510 0.929 . S
H2507 C2516 0.929 . S
C2508 H2502 0.930 . S
C2508 C2509 1.367 1_455 S
C2508 C2516 1.378 . S
C2509 C2508 1.367 1_655 S
C2509 C2517 1.433 . S
C2510 H2506 0.929 . S
C2510 C2512 1.378 . S
C2510 C2514 1.350 . S
C2511 C2514 1.463 . S
C2511 C2516 1.350 . S
C2511 N2519 1.427 . S
C2512 H2503 0.930 . S
C2512 C2510 1.378 . S
C2512 C2513 1.367 . S
C2513 C2512 1.367 . S
C2513 C2515 1.433 . S
C2514 C2510 1.350 . S
C2514 C2511 1.463 . S
C2514 N2518 1.427 . S
C2515 H2505 0.929 . S
C2515 C2513 1.433 . S
C2515 N2518 1.384 . S
C2516 H2507 0.929 . S
C2516 C2508 1.378 . S
C2516 C2511 1.350 . S
C2517 H2504 0.929 . S
C2517 C2509 1.433 . S
C2517 N2519 1.384 1_655 S
N2518 C2514 1.427 . S
N2518 C2515 1.384 . S
N2519 C2511 1.427 . S
N2519 C2517 1.384 1_455 S
H2520 C2526 0.930 . S
H2521 C2530 0.930 . S
H2522 C2535 0.929 . S
H2523 C2533 0.929 . S
H2524 C2528 0.929 . S
H2525 C2534 0.929 . S
C2526 H2520 0.930 . S
C2526 C2527 1.367 . S
C2526 C2534 1.378 . S
C2527 C2526 1.367 . S
C2527 C2535 1.433 . S
C2528 H2524 0.929 . S
C2528 C2530 1.378 . S
C2528 C2532 1.350 . S
C2529 C2532 1.463 . S
C2529 C2534 1.350 . S
C2529 N2537 1.427 . S
C2530 H2521 0.930 . S
C2530 C2528 1.378 . S
C2530 C2531 1.367 . S
C2531 C2530 1.367 . S
C2531 C2533 1.433 . S
C2532 C2528 1.350 . S
C2532 C2529 1.463 . S
C2532 N2536 1.427 . S
C2533 H2523 0.929 . S
C2533 C2531 1.433 . S
C2533 N2536 1.384 . S
C2534 H2525 0.929 . S
C2534 C2526 1.378 . S
C2534 C2529 1.350 . S
C2535 H2522 0.929 . S
C2535 C2527 1.433 . S
C2535 N2537 1.384 . S
N2536 C2532 1.427 . S
N2536 C2533 1.384 . S
N2537 C2529 1.427 . S
N2537 C2535 1.384 . S
H2538 C2544 0.932 . S
H2539 C2548 0.930 . S
H2540 C2553 0.929 . S
H2541 C2551 0.929 . S
H2542 C2546 0.929 . S
H2543 C2552 0.929 . S
C2544 H2538 0.932 . S
C2544 C2545 1.368 . S
C2544 C2552 1.375 1_545 S
C2545 C2544 1.368 . S
C2545 C2553 1.433 1_545 S
C2546 H2542 0.929 . S
C2546 C2548 1.378 . S
C2546 C2550 1.350 . S
C2547 C2550 1.463 . S
C2547 C2552 1.350 . S
C2547 N2555 1.427 . S
C2548 H2539 0.930 . S
C2548 C2546 1.378 . S
C2548 C2549 1.367 . S
C2549 C2548 1.367 . S
C2549 C2551 1.433 . S
C2550 C2546 1.350 . S
C2550 C2547 1.463 . S
C2550 N2554 1.427 . S
C2551 H2541 0.929 . S
C2551 C2549 1.433 . S
C2551 N2554 1.384 . S
C2552 H2543 0.929 . S
C2552 C2544 1.375 1_565 S
C2552 C2547 1.350 . S
C2553 H2540 0.929 . S
C2553 C2545 1.433 1_565 S
C2553 N2555 1.384 . S
N2554 C2550 1.427 . S
N2554 C2551 1.384 . S
N2555 C2547 1.427 . S
N2555 C2553 1.384 . S
H2556 C2562 0.932 . S
H2557 C2566 0.930 . S
H2558 C2571 0.929 . S
H2559 C2569 0.929 . S
H2560 C2564 0.929 1_556 S
H2561 C2570 0.929 . S
C2562 H2556 0.932 . S
C2562 C2563 1.362 1_554 S
C2562 C2570 1.380 . S
C2563 C2562 1.362 1_556 S
C2563 C2571 1.433 . S
C2564 H2560 0.929 1_554 S
C2564 C2566 1.378 1_565 S
C2564 C2568 1.350 . S
C2565 C2568 1.463 . S
C2565 C2570 1.350 . S
C2565 N2573 1.427 1_554 S
C2566 H2557 0.930 . S
C2566 C2564 1.378 1_545 S
C2566 C2567 1.367 . S
C2567 C2566 1.367 . S
C2567 C2569 1.433 1_545 S
C2568 C2564 1.350 . S
C2568 C2565 1.463 . S
C2568 N2572 1.427 . S
C2569 H2559 0.929 . S
C2569 C2567 1.433 1_565 S
C2569 N2572 1.384 . S
C2570 H2561 0.929 . S
C2570 C2562 1.380 . S
C2570 C2565 1.350 . S
C2571 H2558 0.929 . S
C2571 C2563 1.433 . S
C2571 N2573 1.384 . S
N2572 C2568 1.427 . S
N2572 C2569 1.384 . S
N2573 C2565 1.427 1_556 S
N2573 C2571 1.384 . S
H2574 C2580 0.930 . S
H2575 C2584 0.930 . S
H2576 C2589 0.929 1_554 S
H2577 C2587 0.927 1_655 S
H2578 C2582 0.929 . S
H2579 C2588 0.929 . S
C2580 H2574 0.930 . S
C2580 C2581 1.367 . S
C2580 C2588 1.378 . S
C2581 C2580 1.367 . S
C2581 C2589 1.433 . S
C2582 H2578 0.929 . S
C2582 C2584 1.378 . S
C2582 C2586 1.350 . S
C2583 C2586 1.463 . S
C2583 C2588 1.350 1_554 S
C2583 N2591 1.427 . S
C2584 H2575 0.930 . S
C2584 C2582 1.378 . S
C2584 C2585 1.367 1_455 S
C2585 C2584 1.367 1_655 S
C2585 C2587 1.431 1_655 S
C2586 C2582 1.350 . S
C2586 C2583 1.463 . S
C2586 N2590 1.427 . S
C2587 H2577 0.927 1_455 S
C2587 C2585 1.431 1_455 S
C2587 N2590 1.388 . S
C2588 H2579 0.929 . S
C2588 C2580 1.378 . S
C2588 C2583 1.350 1_556 S
C2589 H2576 0.929 1_556 S
C2589 C2581 1.433 . S
C2589 N2591 1.384 1_556 S
N2590 C2586 1.427 . S
N2590 C2587 1.388 . S
N2591 C2583 1.427 . S
N2591 C2589 1.384 1_554 S
H2592 C2598 0.930 . S
H2593 C2602 0.930 . S
H2594 C2607 0.929 . S
H2595 C2605 0.929 . S
H2596 C2600 0.929 . S
H2597 C2606 0.929 . S
C2598 H2592 0.930 . S
C2598 C2599 1.367 . S
C2598 C2606 1.378 1_556 S
C2599 C2598 1.367 . S
C2599 C2607 1.433 . S
C2600 H2596 0.929 . S
C2600 C2602 1.378 . S
C2600 C2604 1.350 . S
C2601 C2604 1.463 . S
C2601 C2606 1.350 . S
C2601 N2609 1.427 1_554 S
C2602 H2593 0.930 . S
C2602 C2600 1.378 . S
C2602 C2603 1.367 . S
C2603 C2602 1.367 . S
C2603 C2605 1.433 . S
C2604 C2600 1.350 . S
C2604 C2601 1.463 . S
C2604 N2608 1.427 . S
C2605 H2595 0.929 . S
C2605 C2603 1.433 . S
C2605 N2608 1.384 . S
C2606 H2597 0.929 . S
C2606 C2598 1.378 1_554 S
C2606 C2601 1.350 . S
C2607 H2594 0.929 . S
C2607 C2599 1.433 . S
C2607 N2609 1.384 . S
N2608 C2604 1.427 . S
N2608 C2605 1.384 . S
N2609 C2601 1.427 1_556 S
N2609 C2607 1.384 . S
H2610 C2616 0.930 . S
H2611 C2620 0.930 . S
H2612 C2625 0.929 . S
H2613 C2623 0.929 1_455 S
H2614 C2618 0.929 . S
H2615 C2624 0.929 . S
C2616 H2610 0.930 . S
C2616 C2617 1.367 . S
C2616 C2624 1.378 . S
C2617 C2616 1.367 . S
C2617 C2625 1.433 . S
C2618 H2614 0.929 . S
C2618 C2620 1.378 . S
C2618 C2622 1.350 . S
C2619 C2622 1.463 . S
C2619 C2624 1.350 . S
C2619 N2627 1.427 . S
C2620 H2611 0.930 . S
C2620 C2618 1.378 . S
C2620 C2621 1.367 1_655 S
C2621 C2620 1.367 1_455 S
C2621 C2623 1.433 1_455 S
C2622 C2618 1.350 . S
C2622 C2619 1.463 . S
C2622 N2626 1.427 . S
C2623 H2613 0.929 1_655 S
C2623 C2621 1.433 1_655 S
C2623 N2626 1.384 . S
C2624 H2615 0.929 . S
C2624 C2616 1.378 . S
C2624 C2619 1.350 . S
C2625 H2612 0.929 . S
C2625 C2617 1.433 . S
C2625 N2627 1.384 . S
N2626 C2622 1.427 . S
N2626 C2623 1.384 . S
N2627 C2619 1.427 . S
N2627 C2625 1.384 . S
H2628 C2634 0.930 . S
H2629 C2638 0.930 . S
H2630 C2643 0.929 . S
H2631 C2641 0.929 . S
H2632 C2636 0.929 . S
H2633 C2642 0.929 . S
C2634 H2628 0.930 . S
C2634 C2635 1.367 . S
C2634 C2642 1.378 . S
C2635 C2634 1.367 . S
C2635 C2643 1.433 . S
C2636 H2632 0.929 . S
C2636 C2638 1.378 . S
C2636 C2640 1.350 . S
C2637 C2640 1.463 . S
C2637 C2642 1.350 . S
C2637 N2645 1.427 . S
C2638 H2629 0.930 . S
C2638 C2636 1.378 . S
C2638 C2639 1.367 . S
C2639 C2638 1.367 . S
C2639 C2641 1.433 . S
C2640 C2636 1.350 . S
C2640 C2637 1.463 . S
C2640 N2644 1.427 . S
C2641 H2631 0.929 . S
C2641 C2639 1.433 . S
C2641 N2644 1.384 . S
C2642 H2633 0.929 . S
C2642 C2634 1.378 . S
C2642 C2637 1.350 . S
C2643 H2630 0.929 . S
C2643 C2635 1.433 . S
C2643 N2645 1.384 . S
N2644 C2640 1.427 . S
N2644 C2641 1.384 . S
N2645 C2637 1.427 . S
N2645 C2643 1.384 . S
H2646 C2652 0.930 . S
H2647 C2656 0.930 . S
H2648 C2661 0.929 . S
H2649 C2659 0.929 . S
H2650 C2654 0.929 . S
H2651 C2660 0.929 . S
C2652 H2646 0.930 . S
C2652 C2653 1.367 1_545 S
C2652 C2660 1.378 . S
C2653 C2652 1.367 1_565 S
C2653 C2661 1.433 . S
C2654 H2650 0.929 . S
C2654 C2656 1.378 . S
C2654 C2658 1.350 . S
C2655 C2658 1.463 . S
C2655 C2660 1.350 . S
C2655 N2663 1.427 . S
C2656 H2647 0.930 . S
C2656 C2654 1.378 . S
C2656 C2657 1.367 . S
C2657 C2656 1.367 . S
C2657 C2659 1.433 . S
C2658 C2654 1.350 . S
C2658 C2655 1.463 . S
C2658 N2662 1.427 . S
C2659 H2649 0.929 . S
C2659 C2657 1.433 . S
C2659 N2662 1.384 . S
C2660 H2651 0.929 . S
C2660 C2652 1.378 . S
C2660 C2655 1.350 . S
C2661 H2648 0.929 . S
C2661 C2653 1.433 . S
C2661 N2663 1.384 1_565 S
N2662 C2658 1.427 . S
N2662 C2659 1.384 . S
N2663 C2655 1.427 . S
N2663 C2661 1.384 1_545 S
H2664 C2670 0.930 . S
H2665 C2674 0.930 . S
H2666 C2679 0.929 . S
H2667 C2677 0.929 . S
H2668 C2672 0.929 . S
H2669 C2678 0.929 . S
C2670 H2664 0.930 . S
C2670 C2671 1.367 . S
C2670 C2678 1.378 . S
C2671 C2670 1.367 . S
C2671 C2679 1.433 . S
C2672 H2668 0.929 . S
C2672 C2674 1.378 . S
C2672 C2676 1.350 . S
C2673 C2676 1.463 . S
C2673 C2678 1.350 . S
C2673 N2681 1.427 . S
C2674 H2665 0.930 . S
C2674 C2672 1.378 . S
C2674 C2675 1.367 . S
C2675 C2674 1.367 . S
C2675 C2677 1.433 . S
C2676 C2672 1.350 . S
C2676 C2673 1.463 . S
C2676 N2680 1.427 . S
C2677 H2667 0.929 . S
C2677 C2675 1.433 . S
C2677 N2680 1.384 . S
C2678 H2669 0.929 . S
C2678 C2670 1.378 . S
C2678 C2673 1.350 . S
C2679 H2666 0.929 . S
C2679 C2671 1.433 . S
C2679 N2681 1.384 . S
N2680 C2676 1.427 . S
N2680 C2677 1.384 . S
N2681 C2673 1.427 . S
N2681 C2679 1.384 . S
H2682 C2688 0.930 . S
H2683 C2692 0.930 . S
H2684 C2697 0.929 . S
H2685 C2695 0.929 . S
H2686 C2690 0.929 . S
H2687 C2696 0.929 . S
C2688 H2682 0.930 . S
C2688 C2689 1.367 . S
C2688 C2696 1.378 . S
C2689 C2688 1.367 . S
C2689 C2697 1.433 . S
C2690 H2686 0.929 . S
C2690 C2692 1.378 . S
C2690 C2694 1.350 . S
C2691 C2694 1.463 . S
C2691 C2696 1.350 . S
C2691 N2699 1.427 . S
C2692 H2683 0.930 . S
C2692 C2690 1.378 . S
C2692 C2693 1.367 . S
C2693 C2692 1.367 . S
C2693 C2695 1.433 . S
C2694 C2690 1.350 . S
C2694 C2691 1.463 . S
C2694 N2698 1.427 . S
C2695 H2685 0.929 . S
C2695 C2693 1.433 . S
C2695 N2698 1.384 . S
C2696 H2687 0.929 . S
C2696 C2688 1.378 . S
C2696 C2691 1.350 . S
C2697 H2684 0.929 . S
C2697 C2689 1.433 . S
C2697 N2699 1.384 . S
N2698 C2694 1.427 . S
N2698 C2695 1.384 . S
N2699 C2691 1.427 . S
N2699 C2697 1.384 . S
H2700 C2706 0.930 . S
H2701 C2710 0.930 . S
H2702 C2715 0.929 . S
H2703 C2713 0.929 . S
H2704 C2708 0.929 . S
H2705 C2714 0.929 . S
C2706 H2700 0.930 . S
C2706 C2707 1.367 . S
C2706 C2714 1.378 . S
C2707 C2706 1.367 . S
C2707 C2715 1.433 . S
C2708 H2704 0.929 . S
C2708 C2710 1.378 . S
C2708 C2712 1.350 . S
C2709 C2712 1.463 . S
C2709 C2714 1.350 . S
C2709 N2717 1.427 . S
C2710 H2701 0.930 . S
C2710 C2708 1.378 . S
C2710 C2711 1.367 . S
C2711 C2710 1.367 . S
C2711 C2713 1.433 . S
C2712 C2708 1.350 . S
C2712 C2709 1.463 . S
C2712 N2716 1.427 . S
C2713 H2703 0.929 . S
C2713 C2711 1.433 . S
C2713 N2716 1.384 . S
C2714 H2705 0.929 . S
C2714 C2706 1.378 . S
C2714 C2709 1.350 . S
C2715 H2702 0.929 . S
C2715 C2707 1.433 . S
C2715 N2717 1.384 . S
N2716 C2712 1.427 . S
N2716 C2713 1.384 . S
N2717 C2709 1.427 . S
N2717 C2715 1.384 . S
H2718 C2724 0.930 . S
H2719 C2728 0.930 . S
H2720 C2733 0.929 . S
H2721 C2731 0.929 . S
H2722 C2726 0.929 . S
H2723 C2732 0.929 . S
C2724 H2718 0.930 . S
C2724 C2725 1.367 . S
C2724 C2732 1.378 . S
C2725 C2724 1.367 . S
C2725 C2733 1.433 . S
C2726 H2722 0.929 . S
C2726 C2728 1.378 . S
C2726 C2730 1.350 . S
C2727 C2730 1.463 . S
C2727 C2732 1.350 . S
C2727 N2735 1.427 . S
C2728 H2719 0.930 . S
C2728 C2726 1.378 . S
C2728 C2729 1.367 . S
C2729 C2728 1.367 . S
C2729 C2731 1.433 . S
C2730 C2726 1.350 . S
C2730 C2727 1.463 . S
C2730 N2734 1.427 . S
C2731 H2721 0.929 . S
C2731 C2729 1.433 . S
C2731 N2734 1.384 . S
C2732 H2723 0.929 . S
C2732 C2724 1.378 . S
C2732 C2727 1.350 . S
C2733 H2720 0.929 . S
C2733 C2725 1.433 . S
C2733 N2735 1.384 . S
N2734 C2730 1.427 . S
N2734 C2731 1.384 . S
N2735 C2727 1.427 . S
N2735 C2733 1.384 . S
H2736 C2742 0.930 . S
H2737 C2746 0.930 . S
H2738 C2751 0.929 . S
H2739 C2749 0.929 . S
H2740 C2744 0.929 . S
H2741 C2750 0.929 . S
C2742 H2736 0.930 . S
C2742 C2743 1.367 . S
C2742 C2750 1.378 . S
C2743 C2742 1.367 . S
C2743 C2751 1.433 . S
C2744 H2740 0.929 . S
C2744 C2746 1.378 . S
C2744 C2748 1.350 . S
C2745 C2748 1.463 . S
C2745 C2750 1.350 . S
C2745 N2753 1.427 . S
C2746 H2737 0.930 . S
C2746 C2744 1.378 . S
C2746 C2747 1.367 . S
C2747 C2746 1.367 . S
C2747 C2749 1.433 . S
C2748 C2744 1.350 . S
C2748 C2745 1.463 . S
C2748 N2752 1.427 . S
C2749 H2739 0.929 . S
C2749 C2747 1.433 . S
C2749 N2752 1.384 . S
C2750 H2741 0.929 . S
C2750 C2742 1.378 . S
C2750 C2745 1.350 . S
C2751 H2738 0.929 . S
C2751 C2743 1.433 . S
C2751 N2753 1.384 . S
N2752 C2748 1.427 . S
N2752 C2749 1.384 . S
N2753 C2745 1.427 . S
N2753 C2751 1.384 . S
H2754 C2760 0.930 . S
H2755 C2764 0.930 . S
H2756 C2769 0.929 . S
H2757 C2767 0.929 . S
H2758 C2762 0.929 . S
H2759 C2768 0.929 . S
C2760 H2754 0.930 . S
C2760 C2761 1.367 . S
C2760 C2768 1.378 . S
C2761 C2760 1.367 . S
C2761 C2769 1.433 . S
C2762 H2758 0.929 . S
C2762 C2764 1.378 . S
C2762 C2766 1.350 . S
C2763 C2766 1.463 . S
C2763 C2768 1.350 . S
C2763 N2771 1.427 . S
C2764 H2755 0.930 . S
C2764 C2762 1.378 . S
C2764 C2765 1.367 . S
C2765 C2764 1.367 . S
C2765 C2767 1.433 . S
C2766 C2762 1.350 . S
C2766 C2763 1.463 . S
C2766 N2770 1.427 . S
C2767 H2757 0.929 . S
C2767 C2765 1.433 . S
C2767 N2770 1.384 . S
C2768 H2759 0.929 . S
C2768 C2760 1.378 . S
C2768 C2763 1.350 . S
C2769 H2756 0.929 . S
C2769 C2761 1.433 . S
C2769 N2771 1.384 . S
N2770 C2766 1.427 . S
N2770 C2767 1.384 . S
N2771 C2763 1.427 . S
N2771 C2769 1.384 . S
H2772 C2778 0.930 . S
H2773 C2782 0.930 . S
H2774 C2787 0.929 . S
H2775 C2785 0.929 . S
H2776 C2780 0.929 . S
H2777 C2786 0.929 . S
C2778 H2772 0.930 . S
C2778 C2779 1.367 . S
C2778 C2786 1.378 . S
C2779 C2778 1.367 . S
C2779 C2787 1.433 . S
C2780 H2776 0.929 . S
C2780 C2782 1.378 . S
C2780 C2784 1.350 . S
C2781 C2784 1.463 . S
C2781 C2786 1.350 . S
C2781 N2789 1.427 . S
C2782 H2773 0.930 . S
C2782 C2780 1.378 . S
C2782 C2783 1.367 . S
C2783 C2782 1.367 . S
C2783 C2785 1.433 . S
C2784 C2780 1.350 . S
C2784 C2781 1.463 . S
C2784 N2788 1.427 . S
C2785 H2775 0.929 . S
C2785 C2783 1.433 . S
C2785 N2788 1.384 . S
C2786 H2777 0.929 . S
C2786 C2778 1.378 . S
C2786 C2781 1.350 . S
C2787 H2774 0.929 . S
C2787 C2779 1.433 . S
C2787 N2789 1.384 . S
N2788 C2784 1.427 . S
N2788 C2785 1.384 . S
N2789 C2781 1.427 . S
N2789 C2787 1.384 . S
H2790 C2796 0.930 . S
H2791 C2800 0.930 . S
H2792 C2805 0.929 . S
H2793 C2803 0.929 . S
H2794 C2798 0.929 . S
H2795 C2804 0.929 . S
C2796 H2790 0.930 . S
C2796 C2797 1.367 . S
C2796 C2804 1.378 . S
C2797 C2796 1.367 . S
C2797 C2805 1.433 . S
C2798 H2794 0.929 . S
C2798 C2800 1.378 . S
C2798 C2802 1.350 . S
C2799 C2802 1.463 . S
C2799 C2804 1.350 . S
C2799 N2807 1.427 . S
C2800 H2791 0.930 . S
C2800 C2798 1.378 . S
C2800 C2801 1.367 . S
C2801 C2800 1.367 . S
C2801 C2803 1.433 . S
C2802 C2798 1.350 . S
C2802 C2799 1.463 . S
C2802 N2806 1.427 . S
C2803 H2793 0.929 . S
C2803 C2801 1.433 . S
C2803 N2806 1.384 . S
C2804 H2795 0.929 . S
C2804 C2796 1.378 . S
C2804 C2799 1.350 . S
C2805 H2792 0.929 . S
C2805 C2797 1.433 . S
C2805 N2807 1.384 . S
N2806 C2802 1.427 . S
N2806 C2803 1.384 . S
N2807 C2799 1.427 . S
N2807 C2805 1.384 . S
H2808 C2814 0.930 . S
H2809 C2818 0.930 . S
H2810 C2823 0.929 . S
H2811 C2821 0.929 . S
H2812 C2816 0.929 . S
H2813 C2822 0.929 . S
C2814 H2808 0.930 . S
C2814 C2815 1.367 . S
C2814 C2822 1.378 . S
C2815 C2814 1.367 . S
C2815 C2823 1.433 . S
C2816 H2812 0.929 . S
C2816 C2818 1.378 . S
C2816 C2820 1.350 . S
C2817 C2820 1.463 . S
C2817 C2822 1.350 . S
C2817 N2825 1.427 . S
C2818 H2809 0.930 . S
C2818 C2816 1.378 . S
C2818 C2819 1.367 . S
C2819 C2818 1.367 . S
C2819 C2821 1.433 . S
C2820 C2816 1.350 . S
C2820 C2817 1.463 . S
C2820 N2824 1.427 . S
C2821 H2811 0.929 . S
C2821 C2819 1.433 . S
C2821 N2824 1.384 . S
C2822 H2813 0.929 . S
C2822 C2814 1.378 . S
C2822 C2817 1.350 . S
C2823 H2810 0.929 . S
C2823 C2815 1.433 . S
C2823 N2825 1.384 . S
N2824 C2820 1.427 . S
N2824 C2821 1.384 . S
N2825 C2817 1.427 . S
N2825 C2823 1.384 . S
H2826 C2832 0.930 . S
H2827 C2836 0.930 . S
H2828 C2841 0.929 . S
H2829 C2839 0.929 . S
H2830 C2834 0.929 . S
H2831 C2840 0.929 . S
C2832 H2826 0.930 . S
C2832 C2833 1.367 . S
C2832 C2840 1.378 . S
C2833 C2832 1.367 . S
C2833 C2841 1.433 . S
C2834 H2830 0.929 . S
C2834 C2836 1.378 . S
C2834 C2838 1.350 . S
C2835 C2838 1.463 . S
C2835 C2840 1.350 . S
C2835 N2843 1.427 . S
C2836 H2827 0.930 . S
C2836 C2834 1.378 . S
C2836 C2837 1.367 . S
C2837 C2836 1.367 . S
C2837 C2839 1.433 . S
C2838 C2834 1.350 . S
C2838 C2835 1.463 . S
C2838 N2842 1.427 . S
C2839 H2829 0.929 . S
C2839 C2837 1.433 . S
C2839 N2842 1.384 . S
C2840 H2831 0.929 . S
C2840 C2832 1.378 . S
C2840 C2835 1.350 . S
C2841 H2828 0.929 . S
C2841 C2833 1.433 . S
C2841 N2843 1.384 . S
N2842 C2838 1.427 . S
N2842 C2839 1.384 . S
N2843 C2835 1.427 . S
N2843 C2841 1.384 . S
H2844 C2850 0.930 . S
H2845 C2854 0.930 . S
H2846 C2859 0.929 . S
H2847 C2857 0.929 . S
H2848 C2852 0.929 . S
H2849 C2858 0.929 . S
C2850 H2844 0.930 . S
C2850 C2851 1.367 . S
C2850 C2858 1.378 . S
C2851 C2850 1.367 . S
C2851 C2859 1.433 . S
C2852 H2848 0.929 . S
C2852 C2854 1.378 . S
C2852 C2856 1.350 . S
C2853 C2856 1.463 . S
C2853 C2858 1.350 . S
C2853 N2861 1.427 . S
C2854 H2845 0.930 . S
C2854 C2852 1.378 . S
C2854 C2855 1.367 . S
C2855 C2854 1.367 . S
C2855 C2857 1.433 . S
C2856 C2852 1.350 . S
C2856 C2853 1.463 . S
C2856 N2860 1.427 . S
C2857 H2847 0.929 . S
C2857 C2855 1.433 . S
C2857 N2860 1.384 . S
C2858 H2849 0.929 . S
C2858 C2850 1.378 . S
C2858 C2853 1.350 . S
C2859 H2846 0.929 . S
C2859 C2851 1.433 . S
C2859 N2861 1.384 . S
N2860 C2856 1.427 . S
N2860 C2857 1.384 . S
N2861 C2853 1.427 . S
N2861 C2859 1.384 . S
H2862 C2868 0.930 . S
H2863 C2872 0.930 . S
H2864 C2877 0.929 . S
H2865 C2875 0.929 . S
H2866 C2870 0.929 . S
H2867 C2876 0.929 . S
C2868 H2862 0.930 . S
C2868 C2869 1.367 . S
C2868 C2876 1.378 . S
C2869 C2868 1.367 . S
C2869 C2877 1.433 . S
C2870 H2866 0.929 . S
C2870 C2872 1.378 . S
C2870 C2874 1.350 . S
C2871 C2874 1.463 . S
C2871 C2876 1.350 . S
C2871 N2879 1.427 . S
C2872 H2863 0.930 . S
C2872 C2870 1.378 . S
C2872 C2873 1.367 . S
C2873 C2872 1.367 . S
C2873 C2875 1.433 . S
C2874 C2870 1.350 . S
C2874 C2871 1.463 . S
C2874 N2878 1.427 . S
C2875 H2865 0.929 . S
C2875 C2873 1.433 . S
C2875 N2878 1.384 . S
C2876 H2867 0.929 . S
C2876 C2868 1.378 . S
C2876 C2871 1.350 . S
C2877 H2864 0.929 . S
C2877 C2869 1.433 . S
C2877 N2879 1.384 . S
N2878 C2874 1.427 . S
N2878 C2875 1.384 . S
N2879 C2871 1.427 . S
N2879 C2877 1.384 . S
H2880 C2886 0.930 . S
H2881 C2890 0.930 . S
H2882 C2895 0.929 . S
H2883 C2893 0.929 . S
H2884 C2888 0.929 . S
H2885 C2894 0.929 . S
C2886 H2880 0.930 . S
C2886 C2887 1.367 . S
C2886 C2894 1.378 . S
C2887 C2886 1.367 . S
C2887 C2895 1.433 . S
C2888 H2884 0.929 . S
C2888 C2890 1.378 . S
C2888 C2892 1.350 . S
C2889 C2892 1.463 . S
C2889 C2894 1.350 . S
C2889 N2897 1.427 . S
C2890 H2881 0.930 . S
C2890 C2888 1.378 . S
C2890 C2891 1.367 . S
C2891 C2890 1.367 . S
C2891 C2893 1.433 . S
C2892 C2888 1.350 . S
C2892 C2889 1.463 . S
C2892 N2896 1.427 . S
C2893 H2883 0.929 . S
C2893 C2891 1.433 . S
C2893 N2896 1.384 . S
C2894 H2885 0.929 . S
C2894 C2886 1.378 . S
C2894 C2889 1.350 . S
C2895 H2882 0.929 . S
C2895 C2887 1.433 . S
C2895 N2897 1.384 . S
N2896 C2892 1.427 . S
N2896 C2893 1.384 . S
N2897 C2889 1.427 . S
N2897 C2895 1.384 . S
H2898 C2904 0.930 . S
H2899 C2908 0.930 . S
H2900 C2913 0.929 . S
H2901 C2911 0.929 . S
H2902 C2906 0.929 . S
H2903 C2912 0.929 . S
C2904 H2898 0.930 . S
C2904 C2905 1.367 . S
C2904 C2912 1.378 . S
C2905 C2904 1.367 . S
C2905 C2913 1.433 . S
C2906 H2902 0.929 . S
C2906 C2908 1.378 . S
C2906 C2910 1.350 . S
C2907 C2910 1.463 . S
C2907 C2912 1.350 . S
C2907 N2915 1.427 . S
C2908 H2899 0.930 . S
C2908 C2906 1.378 . S
C2908 C2909 1.367 . S
C2909 C2908 1.367 . S
C2909 C2911 1.433 . S
C2910 C2906 1.350 . S
C2910 C2907 1.463 . S
C2910 N2914 1.427 . S
C2911 H2901 0.929 . S
C2911 C2909 1.433 . S
C2911 N2914 1.384 . S
C2912 H2903 0.929 . S
C2912 C2904 1.378 . S
C2912 C2907 1.350 . S
C2913 H2900 0.929 . S
C2913 C2905 1.433 . S
C2913 N2915 1.384 . S
N2914 C2910 1.427 . S
N2914 C2911 1.384 . S
N2915 C2907 1.427 . S
N2915 C2913 1.384 . S
H2916 C2922 0.930 . S
H2917 C2926 0.930 . S
H2918 C2931 0.929 . S
H2919 C2929 0.929 . S
H2920 C2924 0.929 . S
H2921 C2930 0.929 . S
C2922 H2916 0.930 . S
C2922 C2923 1.367 . S
C2922 C2930 1.378 . S
C2923 C2922 1.367 . S
C2923 C2931 1.433 . S
C2924 H2920 0.929 . S
C2924 C2926 1.378 . S
C2924 C2928 1.350 . S
C2925 C2928 1.463 . S
C2925 C2930 1.350 . S
C2925 N2933 1.427 . S
C2926 H2917 0.930 . S
C2926 C2924 1.378 . S
C2926 C2927 1.367 . S
C2927 C2926 1.367 . S
C2927 C2929 1.433 . S
C2928 C2924 1.350 . S
C2928 C2925 1.463 . S
C2928 N2932 1.427 . S
C2929 H2919 0.929 . S
C2929 C2927 1.433 . S
C2929 N2932 1.384 . S
C2930 H2921 0.929 . S
C2930 C2922 1.378 . S
C2930 C2925 1.350 . S
C2931 H2918 0.929 . S
C2931 C2923 1.433 . S
C2931 N2933 1.384 . S
N2932 C2928 1.427 . S
N2932 C2929 1.384 . S
N2933 C2925 1.427 . S
N2933 C2931 1.384 . S
H2934 C2940 0.930 . S
H2935 C2944 0.930 . S
H2936 C2949 0.929 . S
H2937 C2947 0.929 . S
H2938 C2942 0.929 . S
H2939 C2948 0.929 . S
C2940 H2934 0.930 . S
C2940 C2941 1.367 . S
C2940 C2948 1.378 . S
C2941 C2940 1.367 . S
C2941 C2949 1.433 . S
C2942 H2938 0.929 . S
C2942 C2944 1.378 . S
C2942 C2946 1.350 . S
C2943 C2946 1.463 . S
C2943 C2948 1.350 . S
C2943 N2951 1.427 . S
C2944 H2935 0.930 . S
C2944 C2942 1.378 . S
C2944 C2945 1.367 . S
C2945 C2944 1.367 . S
C2945 C2947 1.433 . S
C2946 C2942 1.350 . S
C2946 C2943 1.463 . S
C2946 N2950 1.427 . S
C2947 H2937 0.929 . S
C2947 C2945 1.433 . S
C2947 N2950 1.384 . S
C2948 H2939 0.929 . S
C2948 C2940 1.378 . S
C2948 C2943 1.350 . S
C2949 H2936 0.929 . S
C2949 C2941 1.433 . S
C2949 N2951 1.384 . S
N2950 C2946 1.427 . S
N2950 C2947 1.384 . S
N2951 C2943 1.427 . S
N2951 C2949 1.384 . S
H2952 C2958 0.930 . S
H2953 C2962 0.930 . S
H2954 C2967 0.929 . S
H2955 C2965 0.929 . S
H2956 C2960 0.929 . S
H2957 C2966 0.929 . S
C2958 H2952 0.930 . S
C2958 C2959 1.367 . S
C2958 C2966 1.378 . S
C2959 C2958 1.367 . S
C2959 C2967 1.433 . S
C2960 H2956 0.929 . S
C2960 C2962 1.378 . S
C2960 C2964 1.350 . S
C2961 C2964 1.463 . S
C2961 C2966 1.350 . S
C2961 N2969 1.427 . S
C2962 H2953 0.930 . S
C2962 C2960 1.378 . S
C2962 C2963 1.367 . S
C2963 C2962 1.367 . S
C2963 C2965 1.433 . S
C2964 C2960 1.350 . S
C2964 C2961 1.463 . S
C2964 N2968 1.427 . S
C2965 H2955 0.929 . S
C2965 C2963 1.433 . S
C2965 N2968 1.384 . S
C2966 H2957 0.929 . S
C2966 C2958 1.378 . S
C2966 C2961 1.350 . S
C2967 H2954 0.929 . S
C2967 C2959 1.433 . S
C2967 N2969 1.384 . S
N2968 C2964 1.427 . S
N2968 C2965 1.384 . S
N2969 C2961 1.427 . S
N2969 C2967 1.384 . S
H2970 C2976 0.930 . S
H2971 C2980 0.930 . S
H2972 C2985 0.929 . S
H2973 C2983 0.929 . S
H2974 C2978 0.929 . S
H2975 C2984 0.929 . S
C2976 H2970 0.930 . S
C2976 C2977 1.367 . S
C2976 C2984 1.378 . S
C2977 C2976 1.367 . S
C2977 C2985 1.433 . S
C2978 H2974 0.929 . S
C2978 C2980 1.378 . S
C2978 C2982 1.350 . S
C2979 C2982 1.463 . S
C2979 C2984 1.350 . S
C2979 N2987 1.427 . S
C2980 H2971 0.930 . S
C2980 C2978 1.378 . S
C2980 C2981 1.367 . S
C2981 C2980 1.367 . S
C2981 C2983 1.433 . S
C2982 C2978 1.350 . S
C2982 C2979 1.463 . S
C2982 N2986 1.427 . S
C2983 H2973 0.929 . S
C2983 C2981 1.433 . S
C2983 N2986 1.384 . S
C2984 H2975 0.929 . S
C2984 C2976 1.378 . S
C2984 C2979 1.350 . S
C2985 H2972 0.929 . S
C2985 C2977 1.433 . S
C2985 N2987 1.384 . S
N2986 C2982 1.427 . S
N2986 C2983 1.384 . S
N2987 C2979 1.427 . S
N2987 C2985 1.384 . S
H2988 C2994 0.930 . S
H2989 C2998 0.930 . S
H2990 C3003 0.929 . S
H2991 C3001 0.929 . S
H2992 C2996 0.929 . S
H2993 C3002 0.929 . S
C2994 H2988 0.930 . S
C2994 C2995 1.367 . S
C2994 C3002 1.378 . S
C2995 C2994 1.367 . S
C2995 C3003 1.433 . S
C2996 H2992 0.929 . S
C2996 C2998 1.378 . S
C2996 C3000 1.350 . S
C2997 C3000 1.463 . S
C2997 C3002 1.350 . S
C2997 N3005 1.427 . S
C2998 H2989 0.930 . S
C2998 C2996 1.378 . S
C2998 C2999 1.367 . S
C2999 C2998 1.367 . S
C2999 C3001 1.433 . S
C3000 C2996 1.350 . S
C3000 C2997 1.463 . S
C3000 N3004 1.427 . S
C3001 H2991 0.929 . S
C3001 C2999 1.433 . S
C3001 N3004 1.384 . S
C3002 H2993 0.929 . S
C3002 C2994 1.378 . S
C3002 C2997 1.350 . S
C3003 H2990 0.929 . S
C3003 C2995 1.433 . S
C3003 N3005 1.384 . S
N3004 C3000 1.427 . S
N3004 C3001 1.384 . S
N3005 C2997 1.427 . S
N3005 C3003 1.384 . S
H3006 C3012 0.930 . S
H3007 C3016 0.930 . S
H3008 C3021 0.929 . S
H3009 C3019 0.929 . S
H3010 C3014 0.929 . S
H3011 C3020 0.929 . S
C3012 H3006 0.930 . S
C3012 C3013 1.367 . S
C3012 C3020 1.378 . S
C3013 C3012 1.367 . S
C3013 C3021 1.433 . S
C3014 H3010 0.929 . S
C3014 C3016 1.378 . S
C3014 C3018 1.350 . S
C3015 C3018 1.463 . S
C3015 C3020 1.350 . S
C3015 N3023 1.427 . S
C3016 H3007 0.930 . S
C3016 C3014 1.378 . S
C3016 C3017 1.367 . S
C3017 C3016 1.367 . S
C3017 C3019 1.433 . S
C3018 C3014 1.350 . S
C3018 C3015 1.463 . S
C3018 N3022 1.427 . S
C3019 H3009 0.929 . S
C3019 C3017 1.433 . S
C3019 N3022 1.384 . S
C3020 H3011 0.929 . S
C3020 C3012 1.378 . S
C3020 C3015 1.350 . S
C3021 H3008 0.929 . S
C3021 C3013 1.433 . S
C3021 N3023 1.384 . S
N3022 C3018 1.427 . S
N3022 C3019 1.384 . S
N3023 C3015 1.427 . S
N3023 C3021 1.384 . S
H3024 C3030 0.930 . S
H3025 C3034 0.930 . S
H3026 C3039 0.929 . S
H3027 C3037 0.929 . S
H3028 C3032 0.929 . S
H3029 C3038 0.929 . S
C3030 H3024 0.930 . S
C3030 C3031 1.367 . S
C3030 C3038 1.378 . S
C3031 C3030 1.367 . S
C3031 C3039 1.433 . S
C3032 H3028 0.929 . S
C3032 C3034 1.378 . S
C3032 C3036 1.350 . S
C3033 C3036 1.463 . S
C3033 C3038 1.350 . S
C3033 N3041 1.427 . S
C3034 H3025 0.930 . S
C3034 C3032 1.378 . S
C3034 C3035 1.367 . S
C3035 C3034 1.367 . S
C3035 C3037 1.433 . S
C3036 C3032 1.350 . S
C3036 C3033 1.463 . S
C3036 N3040 1.427 . S
C3037 H3027 0.929 . S
C3037 C3035 1.433 . S
C3037 N3040 1.384 . S
C3038 H3029 0.929 . S
C3038 C3030 1.378 . S
C3038 C3033 1.350 . S
C3039 H3026 0.929 . S
C3039 C3031 1.433 . S
C3039 N3041 1.384 . S
N3040 C3036 1.427 . S
N3040 C3037 1.384 . S
N3041 C3033 1.427 . S
N3041 C3039 1.384 . S
H3042 C3048 0.930 . S
H3043 C3052 0.930 . S
H3044 C3057 0.929 . S
H3045 C3055 0.929 . S
H3046 C3050 0.929 . S
H3047 C3056 0.929 . S
C3048 H3042 0.930 . S
C3048 C3049 1.367 . S
C3048 C3056 1.378 . S
C3049 C3048 1.367 . S
C3049 C3057 1.433 . S
C3050 H3046 0.929 . S
C3050 C3052 1.378 . S
C3050 C3054 1.350 . S
C3051 C3054 1.463 . S
C3051 C3056 1.350 . S
C3051 N3059 1.427 . S
C3052 H3043 0.930 . S
C3052 C3050 1.378 . S
C3052 C3053 1.367 . S
C3053 C3052 1.367 . S
C3053 C3055 1.433 . S
C3054 C3050 1.350 . S
C3054 C3051 1.463 . S
C3054 N3058 1.427 . S
C3055 H3045 0.929 . S
C3055 C3053 1.433 . S
C3055 N3058 1.384 . S
C3056 H3047 0.929 . S
C3056 C3048 1.378 . S
C3056 C3051 1.350 . S
C3057 H3044 0.929 . S
C3057 C3049 1.433 . S
C3057 N3059 1.384 . S
N3058 C3054 1.427 . S
N3058 C3055 1.384 . S
N3059 C3051 1.427 . S
N3059 C3057 1.384 . S
H3060 C3066 0.930 . S
H3061 C3070 0.930 . S
H3062 C3075 0.929 . S
H3063 C3073 0.929 . S
H3064 C3068 0.929 . S
H3065 C3074 0.929 . S
C3066 H3060 0.930 . S
C3066 C3067 1.367 . S
C3066 C3074 1.378 . S
C3067 C3066 1.367 . S
C3067 C3075 1.433 . S
C3068 H3064 0.929 . S
C3068 C3070 1.378 . S
C3068 C3072 1.350 . S
C3069 C3072 1.463 . S
C3069 C3074 1.350 . S
C3069 N3077 1.427 . S
C3070 H3061 0.930 . S
C3070 C3068 1.378 . S
C3070 C3071 1.367 . S
C3071 C3070 1.367 . S
C3071 C3073 1.433 . S
C3072 C3068 1.350 . S
C3072 C3069 1.463 . S
C3072 N3076 1.427 . S
C3073 H3063 0.929 . S
C3073 C3071 1.433 . S
C3073 N3076 1.384 . S
C3074 H3065 0.929 . S
C3074 C3066 1.378 . S
C3074 C3069 1.350 . S
C3075 H3062 0.929 . S
C3075 C3067 1.433 . S
C3075 N3077 1.384 . S
N3076 C3072 1.427 . S
N3076 C3073 1.384 . S
N3077 C3069 1.427 . S
N3077 C3075 1.384 . S
H3078 C3084 0.930 . S
H3079 C3088 0.930 . S
H3080 C3093 0.929 . S
H3081 C3091 0.929 . S
H3082 C3086 0.929 . S
H3083 C3092 0.929 . S
C3084 H3078 0.930 . S
C3084 C3085 1.367 . S
C3084 C3092 1.378 . S
C3085 C3084 1.367 . S
C3085 C3093 1.433 . S
C3086 H3082 0.929 . S
C3086 C3088 1.378 . S
C3086 C3090 1.350 . S
C3087 C3090 1.463 . S
C3087 C3092 1.350 . S
C3087 N3095 1.427 . S
C3088 H3079 0.930 . S
C3088 C3086 1.378 . S
C3088 C3089 1.367 . S
C3089 C3088 1.367 . S
C3089 C3091 1.433 . S
C3090 C3086 1.350 . S
C3090 C3087 1.463 . S
C3090 N3094 1.427 . S
C3091 H3081 0.929 . S
C3091 C3089 1.433 . S
C3091 N3094 1.384 . S
C3092 H3083 0.929 . S
C3092 C3084 1.378 . S
C3092 C3087 1.350 . S
C3093 H3080 0.929 . S
C3093 C3085 1.433 . S
C3093 N3095 1.384 . S
N3094 C3090 1.427 . S
N3094 C3091 1.384 . S
N3095 C3087 1.427 . S
N3095 C3093 1.384 . S
H3096 C3102 0.930 . S
H3097 C3106 0.930 . S
H3098 C3111 0.929 . S
H3099 C3109 0.929 . S
H3100 C3104 0.929 . S
H3101 C3110 0.929 . S
C3102 H3096 0.930 . S
C3102 C3103 1.367 . S
C3102 C3110 1.378 . S
C3103 C3102 1.367 . S
C3103 C3111 1.433 . S
C3104 H3100 0.929 . S
C3104 C3106 1.378 . S
C3104 C3108 1.350 . S
C3105 C3108 1.463 . S
C3105 C3110 1.350 . S
C3105 N3113 1.427 . S
C3106 H3097 0.930 . S
C3106 C3104 1.378 . S
C3106 C3107 1.367 . S
C3107 C3106 1.367 . S
C3107 C3109 1.433 . S
C3108 C3104 1.350 . S
C3108 C3105 1.463 . S
C3108 N3112 1.427 . S
C3109 H3099 0.929 . S
C3109 C3107 1.433 . S
C3109 N3112 1.384 . S
C3110 H3101 0.929 . S
C3110 C3102 1.378 . S
C3110 C3105 1.350 . S
C3111 H3098 0.929 . S
C3111 C3103 1.433 . S
C3111 N3113 1.384 . S
N3112 C3108 1.427 . S
N3112 C3109 1.384 . S
N3113 C3105 1.427 . S
N3113 C3111 1.384 . S
H3114 C3120 0.930 . S
H3115 C3124 0.930 . S
H3116 C3129 0.929 . S
H3117 C3127 0.929 . S
H3118 C3122 0.929 . S
H3119 C3128 0.929 . S
C3120 H3114 0.930 . S
C3120 C3121 1.367 . S
C3120 C3128 1.378 1_565 S
C3121 C3120 1.367 . S
C3121 C3129 1.433 . S
C3122 H3118 0.929 . S
C3122 C3124 1.378 . S
C3122 C3126 1.350 . S
C3123 C3126 1.463 . S
C3123 C3128 1.350 . S
C3123 N3131 1.428 1_545 S
C3124 H3115 0.930 . S
C3124 C3122 1.378 . S
C3124 C3125 1.367 . S
C3125 C3124 1.367 . S
C3125 C3127 1.433 . S
C3126 C3122 1.350 . S
C3126 C3123 1.463 . S
C3126 N3130 1.427 . S
C3127 H3117 0.929 . S
C3127 C3125 1.433 . S
C3127 N3130 1.384 . S
C3128 H3119 0.929 . S
C3128 C3120 1.378 1_545 S
C3128 C3123 1.350 . S
C3129 H3116 0.929 . S
C3129 C3121 1.433 . S
C3129 N3131 1.384 . S
N3130 C3126 1.427 . S
N3130 C3127 1.384 . S
N3131 C3123 1.428 1_565 S
N3131 C3129 1.384 . S
H3132 C3138 0.930 . S
H3133 C3142 0.930 . S
H3134 C3147 0.929 . S
H3135 C3145 0.929 . S
H3136 C3140 0.929 . S
H3137 C3146 0.929 . S
C3138 H3132 0.930 . S
C3138 C3139 1.367 . S
C3138 C3146 1.378 . S
C3139 C3138 1.367 . S
C3139 C3147 1.433 . S
C3140 H3136 0.929 . S
C3140 C3142 1.378 . S
C3140 C3144 1.364 . S
C3141 C3144 1.445 1_655 S
C3141 C3146 1.350 . S
C3141 N3149 1.427 . S
C3142 H3133 0.930 . S
C3142 C3140 1.378 . S
C3142 C3143 1.367 . S
C3143 C3142 1.367 . S
C3143 C3145 1.433 . S
C3144 C3140 1.364 . S
C3144 C3141 1.445 1_455 S
C3144 N3148 1.433 1_455 S
C3145 H3135 0.929 . S
C3145 C3143 1.433 . S
C3145 N3148 1.362 1_455 S
C3146 H3137 0.929 . S
C3146 C3138 1.378 . S
C3146 C3141 1.350 . S
C3147 H3134 0.929 . S
C3147 C3139 1.433 . S
C3147 N3149 1.384 . S
N3148 C3144 1.433 1_655 S
N3148 C3145 1.362 1_655 S
N3149 C3141 1.427 . S
N3149 C3147 1.384 . S
H3150 C3156 0.930 . S
H3151 C3160 0.930 . S
H3152 C3165 0.929 . S
H3153 C3163 0.929 . S
H3154 C3158 0.929 . S
H3155 C3164 0.929 . S
C3156 H3150 0.930 . S
C3156 C3157 1.367 . S
C3156 C3164 1.378 . S
C3157 C3156 1.367 . S
C3157 C3165 1.433 . S
C3158 H3154 0.929 . S
C3158 C3160 1.378 . S
C3158 C3162 1.350 . S
C3159 C3162 1.463 . S
C3159 C3164 1.350 . S
C3159 N3167 1.427 . S
C3160 H3151 0.930 . S
C3160 C3158 1.378 . S
C3160 C3161 1.367 . S
C3161 C3160 1.367 . S
C3161 C3163 1.433 . S
C3162 C3158 1.350 . S
C3162 C3159 1.463 . S
C3162 N3166 1.427 . S
C3163 H3153 0.929 . S
C3163 C3161 1.433 . S
C3163 N3166 1.384 . S
C3164 H3155 0.929 . S
C3164 C3156 1.378 . S
C3164 C3159 1.350 . S
C3165 H3152 0.929 . S
C3165 C3157 1.433 . S
C3165 N3167 1.384 . S
N3166 C3162 1.427 . S
N3166 C3163 1.384 . S
N3167 C3159 1.427 . S
N3167 C3165 1.384 . S
H3168 C3174 0.930 . S
H3169 C3178 0.930 . S
H3170 C3183 0.929 . S
H3171 C3181 0.929 . S
H3172 C3176 0.929 . S
H3173 C3182 0.929 . S
C3174 H3168 0.930 . S
C3174 C3175 1.367 . S
C3174 C3182 1.378 . S
C3175 C3174 1.367 . S
C3175 C3183 1.433 . S
C3176 H3172 0.929 . S
C3176 C3178 1.378 . S
C3176 C3180 1.350 . S
C3177 C3180 1.440 1_545 S
C3177 C3182 1.370 . S
C3177 N3185 1.429 1_545 S
C3178 H3169 0.930 . S
C3178 C3176 1.378 . S
C3178 C3179 1.367 . S
C3179 C3178 1.367 . S
C3179 C3181 1.433 . S
C3180 C3176 1.350 . S
C3180 C3177 1.440 1_565 S
C3180 N3184 1.427 . S
C3181 H3171 0.929 . S
C3181 C3179 1.433 . S
C3181 N3184 1.384 . S
C3182 H3173 0.929 . S
C3182 C3174 1.378 . S
C3182 C3177 1.370 . S
C3183 H3170 0.929 . S
C3183 C3175 1.433 . S
C3183 N3185 1.384 1_545 S
N3184 C3180 1.427 . S
N3184 C3181 1.384 . S
N3185 C3177 1.429 1_565 S
N3185 C3183 1.384 1_565 S
H3186 C3192 0.930 . S
H3187 C3196 0.930 . S
H3188 C3201 0.929 . S
H3189 C3199 0.929 . S
H3190 C3194 0.929 . S
H3191 C3200 0.965 . S
C3192 H3186 0.930 . S
C3192 C3193 1.367 . S
C3192 C3200 1.378 1_455 S
C3193 C3192 1.367 . S
C3193 C3201 1.433 . S
C3194 H3190 0.929 . S
C3194 C3196 1.378 . S
C3194 C3198 1.369 . S
C3195 C3198 1.461 . S
C3195 C3200 1.313 1_455 S
C3195 N3203 1.427 . S
C3196 H3187 0.930 . S
C3196 C3194 1.378 . S
C3196 C3197 1.367 1_455 S
C3197 C3196 1.367 1_655 S
C3197 C3199 1.433 . S
C3198 C3194 1.369 . S
C3198 C3195 1.461 . S
C3198 N3202 1.408 1_455 S
C3199 H3189 0.929 . S
C3199 C3197 1.433 . S
C3199 N3202 1.384 . S
C3200 H3191 0.965 . S
C3200 C3192 1.378 1_655 S
C3200 C3195 1.313 1_655 S
C3201 H3188 0.929 . S
C3201 C3193 1.433 . S
C3201 N3203 1.384 . S
N3202 C3198 1.408 1_655 S
N3202 C3199 1.384 . S
N3203 C3195 1.427 . S
N3203 C3201 1.384 . S
H3204 C3210 0.930 . S
H3205 C3214 0.930 . S
H3206 C3219 0.929 . S
H3207 C3217 0.929 . S
H3208 C3212 0.929 . S
H3209 C3218 0.929 . S
C3210 H3204 0.930 . S
C3210 C3211 1.367 . S
C3210 C3218 1.378 . S
C3211 C3210 1.367 . S
C3211 C3219 1.433 . S
C3212 H3208 0.929 . S
C3212 C3214 1.378 . S
C3212 C3216 1.350 . S
C3213 C3216 1.463 . S
C3213 C3218 1.350 . S
C3213 N3221 1.427 . S
C3214 H3205 0.930 . S
C3214 C3212 1.378 . S
C3214 C3215 1.367 . S
C3215 C3214 1.367 . S
C3215 C3217 1.433 . S
C3216 C3212 1.350 . S
C3216 C3213 1.463 . S
C3216 N3220 1.427 . S
C3217 H3207 0.929 . S
C3217 C3215 1.433 . S
C3217 N3220 1.384 . S
C3218 H3209 0.929 . S
C3218 C3210 1.378 . S
C3218 C3213 1.350 . S
C3219 H3206 0.929 . S
C3219 C3211 1.433 . S
C3219 N3221 1.384 . S
N3220 C3216 1.427 . S
N3220 C3217 1.384 . S
N3221 C3213 1.427 . S
N3221 C3219 1.384 . S
H3222 C3228 0.930 . S
H3223 C3232 0.930 . S
H3224 C3237 0.929 . S
H3225 C3235 0.929 . S
H3226 C3230 0.929 . S
H3227 C3236 0.929 1_545 S
C3228 H3222 0.930 . S
C3228 C3229 1.367 . S
C3228 C3236 1.378 . S
C3229 C3228 1.367 . S
C3229 C3237 1.433 . S
C3230 H3226 0.929 . S
C3230 C3232 1.378 1_565 S
C3230 C3234 1.354 . S
C3231 C3234 1.462 . S
C3231 C3236 1.350 . S
C3231 N3239 1.427 . S
C3232 H3223 0.930 . S
C3232 C3230 1.378 1_545 S
C3232 C3233 1.367 . S
C3233 C3232 1.367 . S
C3233 C3235 1.433 . S
C3234 C3230 1.354 . S
C3234 C3231 1.462 . S
C3234 N3238 1.423 1_565 S
C3235 H3225 0.929 . S
C3235 C3233 1.433 . S
C3235 N3238 1.384 . S
C3236 H3227 0.929 1_565 S
C3236 C3228 1.378 . S
C3236 C3231 1.350 . S
C3237 H3224 0.929 . S
C3237 C3229 1.433 . S
C3237 N3239 1.384 . S
N3238 C3234 1.423 1_545 S
N3238 C3235 1.384 . S
N3239 C3231 1.427 . S
N3239 C3237 1.384 . S
H3240 C3246 0.930 . S
H3241 C3250 0.930 . S
H3242 C3255 0.929 . S
H3243 C3253 0.929 . S
H3244 C3248 0.929 1_455 S
H3245 C3254 0.929 . S
C3246 H3240 0.930 . S
C3246 C3247 1.367 . S
C3246 C3254 1.378 . S
C3247 C3246 1.367 . S
C3247 C3255 1.433 . S
C3248 H3244 0.929 1_655 S
C3248 C3250 1.378 . S
C3248 C3252 1.349 . S
C3249 C3252 1.465 1_455 S
C3249 C3254 1.350 . S
C3249 N3257 1.427 . S
C3250 H3241 0.930 . S
C3250 C3248 1.378 . S
C3250 C3251 1.367 . S
C3251 C3250 1.367 . S
C3251 C3253 1.433 . S
C3252 C3248 1.349 . S
C3252 C3249 1.465 1_655 S
C3252 N3256 1.425 . S
C3253 H3243 0.929 . S
C3253 C3251 1.433 . S
C3253 N3256 1.384 . S
C3254 H3245 0.929 . S
C3254 C3246 1.378 . S
C3254 C3249 1.350 . S
C3255 H3242 0.929 . S
C3255 C3247 1.433 . S
C3255 N3257 1.384 . S
N3256 C3252 1.425 . S
N3256 C3253 1.384 . S
N3257 C3249 1.427 . S
N3257 C3255 1.384 . S
H3258 C3264 0.930 . S
H3259 C3268 0.930 . S
H3260 C3273 0.929 . S
H3261 C3271 0.929 . S
H3262 C3266 0.929 . S
H3263 C3272 0.929 . S
C3264 H3258 0.930 . S
C3264 C3265 1.367 . S
C3264 C3272 1.378 . S
C3265 C3264 1.367 . S
C3265 C3273 1.433 . S
C3266 H3262 0.929 . S
C3266 C3268 1.378 . S
C3266 C3270 1.350 . S
C3267 C3270 1.463 . S
C3267 C3272 1.350 . S
C3267 N3275 1.427 . S
C3268 H3259 0.930 . S
C3268 C3266 1.378 . S
C3268 C3269 1.367 . S
C3269 C3268 1.367 . S
C3269 C3271 1.433 . S
C3270 C3266 1.350 . S
C3270 C3267 1.463 . S
C3270 N3274 1.427 . S
C3271 H3261 0.929 . S
C3271 C3269 1.433 . S
C3271 N3274 1.384 . S
C3272 H3263 0.929 . S
C3272 C3264 1.378 . S
C3272 C3267 1.350 . S
C3273 H3260 0.929 . S
C3273 C3265 1.433 . S
C3273 N3275 1.384 . S
N3274 C3270 1.427 . S
N3274 C3271 1.384 . S
N3275 C3267 1.427 . S
N3275 C3273 1.384 . S
H3276 C3282 0.930 . S
H3277 C3286 0.930 . S
H3278 C3291 0.929 . S
H3279 C3289 0.929 . S
H3280 C3284 0.929 . S
H3281 C3290 0.929 . S
C3282 H3276 0.930 . S
C3282 C3283 1.367 . S
C3282 C3290 1.378 . S
C3283 C3282 1.367 . S
C3283 C3291 1.433 . S
C3284 H3280 0.929 . S
C3284 C3286 1.378 . S
C3284 C3288 1.368 . S
C3285 C3288 1.442 1_545 S
C3285 C3290 1.350 . S
C3285 N3293 1.427 . S
C3286 H3277 0.930 . S
C3286 C3284 1.378 . S
C3286 C3287 1.367 . S
C3287 C3286 1.367 . S
C3287 C3289 1.433 . S
C3288 C3284 1.368 . S
C3288 C3285 1.442 1_565 S
C3288 N3292 1.429 1_565 S
C3289 H3279 0.929 . S
C3289 C3287 1.433 . S
C3289 N3292 1.384 1_565 S
C3290 H3281 0.929 . S
C3290 C3282 1.378 . S
C3290 C3285 1.350 . S
C3291 H3278 0.929 . S
C3291 C3283 1.433 . S
C3291 N3293 1.384 . S
N3292 C3288 1.429 1_545 S
N3292 C3289 1.384 1_545 S
N3293 C3285 1.427 . S
N3293 C3291 1.384 . S
H3294 C3300 0.924 1_655 S
H3295 C3304 0.930 . S
H3296 C3309 0.929 . S
H3297 C3307 0.929 . S
H3298 C3302 0.907 1_455 S
H3299 C3308 0.929 . S
C3300 H3294 0.924 1_455 S
C3300 C3301 1.373 . S
C3300 C3308 1.378 1_455 S
C3301 C3300 1.373 . S
C3301 C3309 1.433 . S
C3302 H3298 0.907 1_655 S
C3302 C3304 1.378 . S
C3302 C3306 1.372 . S
C3303 C3306 1.462 . S
C3303 C3308 1.365 . S
C3303 N3311 1.412 1_655 S
C3304 H3295 0.930 . S
C3304 C3302 1.378 . S
C3304 C3305 1.367 . S
C3305 C3304 1.367 . S
C3305 C3307 1.433 . S
C3306 C3302 1.372 . S
C3306 C3303 1.462 . S
C3306 N3310 1.427 . S
C3307 H3297 0.929 . S
C3307 C3305 1.433 . S
C3307 N3310 1.384 . S
C3308 H3299 0.929 . S
C3308 C3300 1.378 1_655 S
C3308 C3303 1.365 . S
C3309 H3296 0.929 . S
C3309 C3301 1.433 . S
C3309 N3311 1.384 . S
N3310 C3306 1.427 . S
N3310 C3307 1.384 . S
N3311 C3303 1.412 1_455 S
N3311 C3309 1.384 . S
H3312 C3318 0.930 . S
H3313 C3322 0.930 . S
H3314 C3327 0.929 . S
H3315 C3325 0.929 . S
H3316 C3320 0.929 . S
H3317 C3326 0.929 . S
C3318 H3312 0.930 . S
C3318 C3319 1.367 . S
C3318 C3326 1.378 . S
C3319 C3318 1.367 . S
C3319 C3327 1.433 . S
C3320 H3316 0.929 . S
C3320 C3322 1.378 . S
C3320 C3324 1.350 . S
C3321 C3324 1.463 1_655 S
C3321 C3326 1.350 . S
C3321 N3329 1.427 . S
C3322 H3313 0.930 . S
C3322 C3320 1.378 . S
C3322 C3323 1.367 . S
C3323 C3322 1.367 . S
C3323 C3325 1.433 . S
C3324 C3320 1.350 . S
C3324 C3321 1.463 1_455 S
C3324 N3328 1.427 . S
C3325 H3315 0.929 . S
C3325 C3323 1.433 . S
C3325 N3328 1.384 . S
C3326 H3317 0.929 . S
C3326 C3318 1.378 . S
C3326 C3321 1.350 . S
C3327 H3314 0.929 . S
C3327 C3319 1.433 . S
C3327 N3329 1.384 . S
N3328 C3324 1.427 . S
N3328 C3325 1.384 . S
N3329 C3321 1.427 . S
N3329 C3327 1.384 . S
H3330 C3336 0.930 . S
H3331 C3340 0.930 . S
H3332 C3345 0.929 . S
H3333 C3343 0.929 . S
H3334 C3338 0.929 . S
H3335 C3344 0.929 . S
C3336 H3330 0.930 . S
C3336 C3337 1.367 . S
C3336 C3344 1.378 . S
C3337 C3336 1.367 . S
C3337 C3345 1.433 . S
C3338 H3334 0.929 . S
C3338 C3340 1.378 . S
C3338 C3342 1.350 . S
C3339 C3342 1.463 . S
C3339 C3344 1.350 . S
C3339 N3347 1.427 . S
C3340 H3331 0.930 . S
C3340 C3338 1.378 . S
C3340 C3341 1.367 . S
C3341 C3340 1.367 . S
C3341 C3343 1.433 . S
C3342 C3338 1.350 . S
C3342 C3339 1.463 . S
C3342 N3346 1.427 . S
C3343 H3333 0.929 . S
C3343 C3341 1.433 . S
C3343 N3346 1.384 . S
C3344 H3335 0.929 . S
C3344 C3336 1.378 . S
C3344 C3339 1.350 . S
C3345 H3332 0.929 . S
C3345 C3337 1.433 . S
C3345 N3347 1.384 . S
N3346 C3342 1.427 . S
N3346 C3343 1.384 . S
N3347 C3339 1.427 . S
N3347 C3345 1.384 . S
H3348 C3354 0.930 . S
H3349 C3358 0.930 . S
H3350 C3363 0.929 . S
H3351 C3361 0.929 . S
H3352 C3356 0.929 . S
H3353 C3362 0.929 . S
C3354 H3348 0.930 . S
C3354 C3355 1.367 . S
C3354 C3362 1.378 . S
C3355 C3354 1.367 . S
C3355 C3363 1.433 . S
C3356 H3352 0.929 . S
C3356 C3358 1.378 . S
C3356 C3360 1.350 . S
C3357 C3360 1.463 1_565 S
C3357 C3362 1.350 . S
C3357 N3365 1.427 . S
C3358 H3349 0.930 . S
C3358 C3356 1.378 . S
C3358 C3359 1.367 . S
C3359 C3358 1.367 . S
C3359 C3361 1.433 . S
C3360 C3356 1.350 . S
C3360 C3357 1.463 1_545 S
C3360 N3364 1.427 . S
C3361 H3351 0.929 . S
C3361 C3359 1.433 . S
C3361 N3364 1.384 . S
C3362 H3353 0.929 . S
C3362 C3354 1.378 . S
C3362 C3357 1.350 . S
C3363 H3350 0.929 . S
C3363 C3355 1.433 . S
C3363 N3365 1.384 . S
N3364 C3360 1.427 . S
N3364 C3361 1.384 . S
N3365 C3357 1.427 . S
N3365 C3363 1.384 . S
H3366 C3372 0.930 . S
H3367 C3376 0.930 . S
H3368 C3381 0.929 . S
H3369 C3379 0.929 . S
H3370 C3374 0.929 . S
H3371 C3380 0.929 . S
C3372 H3366 0.930 . S
C3372 C3373 1.367 . S
C3372 C3380 1.378 . S
C3373 C3372 1.367 . S
C3373 C3381 1.433 . S
C3374 H3370 0.929 . S
C3374 C3376 1.378 . S
C3374 C3378 1.350 . S
C3375 C3378 1.463 1_565 S
C3375 C3380 1.350 . S
C3375 N3383 1.427 . S
C3376 H3367 0.930 . S
C3376 C3374 1.378 . S
C3376 C3377 1.367 . S
C3377 C3376 1.367 . S
C3377 C3379 1.433 . S
C3378 C3374 1.350 . S
C3378 C3375 1.463 1_545 S
C3378 N3382 1.427 . S
C3379 H3369 0.929 . S
C3379 C3377 1.433 . S
C3379 N3382 1.384 . S
C3380 H3371 0.929 . S
C3380 C3372 1.378 . S
C3380 C3375 1.350 . S
C3381 H3368 0.929 . S
C3381 C3373 1.433 . S
C3381 N3383 1.384 . S
N3382 C3378 1.427 . S
N3382 C3379 1.384 . S
N3383 C3375 1.427 . S
N3383 C3381 1.384 . S
H3384 C3390 0.930 . S
H3385 C3394 0.930 . S
H3386 C3399 0.929 . S
H3387 C3397 0.929 . S
H3388 C3392 0.929 . S
H3389 C3398 0.929 . S
C3390 H3384 0.930 . S
C3390 C3391 1.367 . S
C3390 C3398 1.378 . S
C3391 C3390 1.367 . S
C3391 C3399 1.433 . S
C3392 H3388 0.929 . S
C3392 C3394 1.378 . S
C3392 C3396 1.350 . S
C3393 C3396 1.463 1_655 S
C3393 C3398 1.350 . S
C3393 N3401 1.427 . S
C3394 H3385 0.930 . S
C3394 C3392 1.378 . S
C3394 C3395 1.367 . S
C3395 C3394 1.367 . S
C3395 C3397 1.433 . S
C3396 C3392 1.350 . S
C3396 C3393 1.463 1_455 S
C3396 N3400 1.427 . S
C3397 H3387 0.929 . S
C3397 C3395 1.433 . S
C3397 N3400 1.384 . S
C3398 H3389 0.929 . S
C3398 C3390 1.378 . S
C3398 C3393 1.350 . S
C3399 H3386 0.929 . S
C3399 C3391 1.433 . S
C3399 N3401 1.384 . S
N3400 C3396 1.427 . S
N3400 C3397 1.384 . S
N3401 C3393 1.427 . S
N3401 C3399 1.384 . S
H3402 C3408 0.930 . S
H3403 C3412 0.930 . S
H3404 C3417 0.929 . S
H3405 C3415 0.929 . S
H3406 C3410 0.929 . S
H3407 C3416 0.929 . S
C3408 H3402 0.930 . S
C3408 C3409 1.367 . S
C3408 C3416 1.378 . S
C3409 C3408 1.367 . S
C3409 C3417 1.433 . S
C3410 H3406 0.929 . S
C3410 C3412 1.378 . S
C3410 C3414 1.350 . S
C3411 C3414 1.463 . S
C3411 C3416 1.350 . S
C3411 N3419 1.427 . S
C3412 H3403 0.930 . S
C3412 C3410 1.378 . S
C3412 C3413 1.367 . S
C3413 C3412 1.367 . S
C3413 C3415 1.433 . S
C3414 C3410 1.350 . S
C3414 C3411 1.463 . S
C3414 N3418 1.427 . S
C3415 H3405 0.929 . S
C3415 C3413 1.433 . S
C3415 N3418 1.384 . S
C3416 H3407 0.929 . S
C3416 C3408 1.378 . S
C3416 C3411 1.350 . S
C3417 H3404 0.929 . S
C3417 C3409 1.433 . S
C3417 N3419 1.384 . S
N3418 C3414 1.427 . S
N3418 C3415 1.384 . S
N3419 C3411 1.427 . S
N3419 C3417 1.384 . S
C2131 C3 1.332 . S
C2135 C1065 1.332 . S
C2149 C62 1.329 . S
C2153 C1124 1.329 . S
C2167 C1183 1.319 . S
C2171 C121 1.319 . S
C2185 C180 1.331 . S
C2189 C1950 1.331 . S
C2203 C2009 1.331 . S
C2207 C239 1.331 . S
C2221 C298 1.332 . S
C2225 C2068 1.332 . S
C2239 C1419 1.321 . S
C2243 C357 1.321 . S
C2257 C416 1.329 . S
C2261 C1478 1.329 . S
C2275 C475 1.319 . S
C2279 C1537 1.319 . S
C2293 C534 1.331 . S
C2297 C888 1.331 . S
C2311 C947 1.321 . S
C2315 C593 1.321 . S
C2329 C652 1.318 . S
C2333 C1006 1.318 . S
C2347 C711 1.320 . S
C2351 C1773 1.320 . S
C2365 C770 1.321 . S
C2369 C1832 1.321 . S
C2383 C829 1.333 . S
C2387 C1891 1.333 . S
C2401 C1242 1.323 . S
C2405 C1596 1.323 . S
C2419 C1301 1.321 . S
C2423 C1655 1.321 . S
C2437 C1360 1.318 . S
C2441 C1714 1.318 . S
C2455 C446 1.440 . S
C2459 C5 1.449 . S
C2473 C505 1.444 . S
C2477 C64 1.448 . S
C2491 C123 1.444 . S
C2495 C387 1.439 . S
C2509 C682 1.441 . S
C2513 C182 1.445 . S
C2527 C564 1.443 . S
C2531 C241 1.450 . S
C2545 C623 1.435 . S
C2549 C300 1.445 . S
C2563 C359 1.448 . S
C2567 C92 1.438 . S
C2581 C418 1.448 . S
C2585 C151 1.444 . S
C2599 C477 1.444 . S
C2603 C33 1.435 . S
C2617 C536 1.443 . S
C2621 C328 1.436 . S
C2635 C210 1.437 . S
C2639 C595 1.447 . S
C2653 C269 1.440 . S
C2657 C654 1.444 . S
C2671 C713 1.449 . S
C2675 C1154 1.440 . S
C2689 C772 1.450 . S
C2693 C1213 1.443 . S
C2707 C831 1.448 . S
C2711 C1095 1.437 . S
C2725 C1390 1.436 . S
C2729 C890 1.446 . S
C2743 C949 1.446 . S
C2747 C1272 1.435 . S
C2761 C1331 1.443 . S
C2765 C1008 1.447 . S
C2779 C1067 1.446 . S
C2783 C800 1.435 . S
C2797 C859 1.440 . S
C2801 C1126 1.444 . S
C2815 C741 1.435 . S
C2819 C1185 1.445 . S
C2833 C1244 1.449 . S
C2837 C1036 1.444 . S
C2851 C1303 1.443 . S
C2855 C918 1.436 . S
C2869 C1362 1.443 . S
C2873 C977 1.437 . S
C2887 C1862 1.443 . S
C2891 C1421 1.447 . S
C2905 C1480 1.445 . S
C2909 C1921 1.441 . S
C2923 C1539 1.444 . S
C2927 C1803 1.435 . S
C2941 C2098 1.439 . S
C2945 C1598 1.444 . S
C2959 C1980 1.442 . S
C2963 C1657 1.450 . S
C2977 C2039 1.439 . S
C2981 C1716 1.449 . S
C2995 C1508 1.439 . S
C2999 C1775 1.444 . S
C3013 C1567 1.435 . S
C3017 C1834 1.444 . S
C3031 C1449 1.441 . S
C3035 C1893 1.450 . S
C3049 C1952 1.450 . S
C3053 C1744 1.443 . S
C3067 C1626 1.435 . S
C3071 C2011 1.443 . S
C3085 C2070 1.445 . S
C3089 C1685 1.435 . S
C3103 C52 1.253 . S
C3107 C1763 1.254 . S
C3121 C1645 1.254 . S
C3125 C111 1.254 . S
C3139 C170 1.245 . S
C3143 C1704 1.245 . S
C3157 C229 1.253 . S
C3161 C819 1.253 . S
C3175 C878 1.245 . S
C3179 C288 1.245 . S
C3193 C347 1.250 . S
C3197 C760 1.251 . S
C3211 C1409 1.246 . S
C3215 C406 1.248 . S
C3229 C465 1.253 . S
C3233 C1291 1.254 . S
C3247 C524 1.254 . S
C3251 C1350 1.254 . S
C3265 C583 1.246 . S
C3269 C1881 1.247 . S
C3283 C642 1.245 . S
C3287 C1940 1.245 . S
C3301 C1822 1.252 . S
C3305 C701 1.251 . S
C3319 C937 1.245 . S
C3323 C1527 1.245 . S
C3337 C1586 1.246 . S
C3341 C996 1.247 . S
C3355 C1468 1.252 . S
C3359 C1055 1.253 . S
C3373 C2117 1.253 . S
C3377 C1114 1.252 . S
C3391 C1173 1.251 . S
C3395 C1999 1.252 . S
C3409 C1232 1.246 . S
C3413 C2058 1.247 . S
