# Generated by pormake.
# Topology srs-a, (3)-cn, num edge types: 1
# Building blocks:
#     Node 0, Type 0, BuildingBlock: WUSLED_clean_sbu_0, # of connection points: 3
#     Node 1, Type 0, BuildingBlock: WUSLED_clean_sbu_0, # of connection points: 3
#     Node 2, Type 0, BuildingBlock: WUSLED_clean_sbu_0, # of connection points: 3
#     Node 3, Type 0, BuildingBlock: WUSLED_clean_sbu_0, # of connection points: 3
#     Node 4, Type 0, BuildingBlock: WUSLED_clean_sbu_0, # of connection points: 3
#     Node 5, Type 0, BuildingBlock: WUSLED_clean_sbu_0, # of connection points: 3
#     Node 6, Type 0, BuildingBlock: WUSLED_clean_sbu_0, # of connection points: 3
#     Node 7, Type 0, BuildingBlock: WUSLED_clean_sbu_0, # of connection points: 3
#     Node 8, Type 0, BuildingBlock: WUSLED_clean_sbu_0, # of connection points: 3
#     Node 9, Type 0, BuildingBlock: WUSLED_clean_sbu_0, # of connection points: 3
#     Node 10, Type 0, BuildingBlock: WUSLED_clean_sbu_0, # of connection points: 3
#     Node 11, Type 0, BuildingBlock: WUSLED_clean_sbu_0, # of connection points: 3
#     Node 12, Type 0, BuildingBlock: WUSLED_clean_sbu_0, # of connection points: 3
#     Node 13, Type 0, BuildingBlock: WUSLED_clean_sbu_0, # of connection points: 3
#     Node 14, Type 0, BuildingBlock: WUSLED_clean_sbu_0, # of connection points: 3
#     Node 15, Type 0, BuildingBlock: WUSLED_clean_sbu_0, # of connection points: 3
#     Node 16, Type 0, BuildingBlock: WUSLED_clean_sbu_0, # of connection points: 3
#     Node 17, Type 0, BuildingBlock: WUSLED_clean_sbu_0, # of connection points: 3
#     Node 18, Type 0, BuildingBlock: WUSLED_clean_sbu_0, # of connection points: 3
#     Node 19, Type 0, BuildingBlock: WUSLED_clean_sbu_0, # of connection points: 3
#     Node 20, Type 0, BuildingBlock: WUSLED_clean_sbu_0, # of connection points: 3
#     Node 21, Type 0, BuildingBlock: WUSLED_clean_sbu_0, # of connection points: 3
#     Node 22, Type 0, BuildingBlock: WUSLED_clean_sbu_0, # of connection points: 3
#     Node 23, Type 0, BuildingBlock: WUSLED_clean_sbu_0, # of connection points: 3
#     Edge 24, Type (0, 0), BuildingBlock: XIVTED_clean_linker_0, # of connection points: 2
#     Edge 25, Type (0, 0), BuildingBlock: XIVTED_clean_linker_0, # of connection points: 2
#     Edge 26, Type (0, 0), BuildingBlock: XIVTED_clean_linker_0, # of connection points: 2
#     Edge 27, Type (0, 0), BuildingBlock: XIVTED_clean_linker_0, # of connection points: 2
#     Edge 28, Type (0, 0), BuildingBlock: XIVTED_clean_linker_0, # of connection points: 2
#     Edge 29, Type (0, 0), BuildingBlock: XIVTED_clean_linker_0, # of connection points: 2
#     Edge 30, Type (0, 0), BuildingBlock: XIVTED_clean_linker_0, # of connection points: 2
#     Edge 31, Type (0, 0), BuildingBlock: XIVTED_clean_linker_0, # of connection points: 2
#     Edge 32, Type (0, 0), BuildingBlock: XIVTED_clean_linker_0, # of connection points: 2
#     Edge 33, Type (0, 0), BuildingBlock: XIVTED_clean_linker_0, # of connection points: 2
#     Edge 34, Type (0, 0), BuildingBlock: XIVTED_clean_linker_0, # of connection points: 2
#     Edge 35, Type (0, 0), BuildingBlock: XIVTED_clean_linker_0, # of connection points: 2
#     Edge 36, Type (0, 0), BuildingBlock: XIVTED_clean_linker_0, # of connection points: 2
#     Edge 37, Type (0, 0), BuildingBlock: XIVTED_clean_linker_0, # of connection points: 2
#     Edge 38, Type (0, 0), BuildingBlock: XIVTED_clean_linker_0, # of connection points: 2
#     Edge 39, Type (0, 0), BuildingBlock: XIVTED_clean_linker_0, # of connection points: 2
#     Edge 40, Type (0, 0), BuildingBlock: XIVTED_clean_linker_0, # of connection points: 2
#     Edge 41, Type (0, 0), BuildingBlock: XIVTED_clean_linker_0, # of connection points: 2
#     Edge 42, Type (0, 0), BuildingBlock: XIVTED_clean_linker_0, # of connection points: 2
#     Edge 43, Type (0, 0), BuildingBlock: XIVTED_clean_linker_0, # of connection points: 2
#     Edge 44, Type (0, 0), BuildingBlock: XIVTED_clean_linker_0, # of connection points: 2
#     Edge 45, Type (0, 0), BuildingBlock: XIVTED_clean_linker_0, # of connection points: 2
#     Edge 46, Type (0, 0), BuildingBlock: XIVTED_clean_linker_0, # of connection points: 2
#     Edge 47, Type (0, 0), BuildingBlock: XIVTED_clean_linker_0, # of connection points: 2
#     Edge 48, Type (0, 0), BuildingBlock: XIVTED_clean_linker_0, # of connection points: 2
#     Edge 49, Type (0, 0), BuildingBlock: XIVTED_clean_linker_0, # of connection points: 2
#     Edge 50, Type (0, 0), BuildingBlock: XIVTED_clean_linker_0, # of connection points: 2
#     Edge 51, Type (0, 0), BuildingBlock: XIVTED_clean_linker_0, # of connection points: 2
#     Edge 52, Type (0, 0), BuildingBlock: XIVTED_clean_linker_0, # of connection points: 2
#     Edge 53, Type (0, 0), BuildingBlock: XIVTED_clean_linker_0, # of connection points: 2
#     Edge 54, Type (0, 0), BuildingBlock: XIVTED_clean_linker_0, # of connection points: 2
#     Edge 55, Type (0, 0), BuildingBlock: XIVTED_clean_linker_0, # of connection points: 2
#     Edge 56, Type (0, 0), BuildingBlock: XIVTED_clean_linker_0, # of connection points: 2
#     Edge 57, Type (0, 0), BuildingBlock: XIVTED_clean_linker_0, # of connection points: 2
#     Edge 58, Type (0, 0), BuildingBlock: XIVTED_clean_linker_0, # of connection points: 2
#     Edge 59, Type (0, 0), BuildingBlock: XIVTED_clean_linker_0, # of connection points: 2
# Relax obj value: 0.410
# Max RMSD: 0.288
# Mean RMSD: 0.283
data_MOF--net-srs-a--node1-WUSLED_clean_sbu_0--edge1-XIVTED_clean_linker_0
_symmetry_space_group_name_H-M    P1
_symmetry_Int_Tables_number       1
_symmetry_cell_setting            triclinic
loop_
_symmetry_equiv_pos_as_xyz
'x, y, z'
_cell_length_a     122.8787
_cell_length_b     106.54883
_cell_length_c     125.21667
_cell_angle_alpha  93.097743
_cell_angle_beta   103.76227
_cell_angle_gamma 101.47102
loop_
_atom_site_label
_atom_site_type_symbol
_atom_site_fract_x
_atom_site_fract_y
_atom_site_fract_z
_atom_type_partial_charge
C0 C 0.02052 0.19056 0.06585 0.0
C1 C 0.02916 0.18468 0.06385 0.0
C2 C 0.02033 0.16499 0.07039 0.0
C3 C 0.02902 0.17191 0.06604 0.0
C4 C 0.01139 0.1708 0.0718 0.0
C5 C 0.01151 0.18348 0.06955 0.0
U6 U 0.0286 0.22888 0.06457 0.0
O7 O 0.02406 0.23976 0.07751 0.0
O8 O 0.01484 0.23969 0.06016 0.0
C9 C 0.01616 0.24397 0.07053 0.0
C10 C 0.02133 0.20441 0.06575 0.0
C11 C 0.01585 0.25744 0.07307 0.0
C12 C 0.00568 0.2721 0.07986 0.0
C13 C 0.00576 0.26 0.07512 0.0
C14 C 0.02572 0.27947 0.08004 0.0
C15 C 0.01574 0.28183 0.08266 0.0
C16 C 0.02578 0.26731 0.07525 0.0
C17 C 0.05846 0.2378 0.05686 0.0
C18 C 0.07656 0.24872 0.05371 0.0
C19 C 0.07335 0.22602 0.05625 0.0
C20 C 0.06228 0.22623 0.05736 0.0
C21 C 0.08073 0.23739 0.05477 0.0
C22 C 0.06554 0.2489 0.05474 0.0
C23 C 0.04781 0.23926 0.05968 0.0
O24 O 0.02859 0.21216 0.07402 0.0
O25 O 0.01887 0.20959 0.05641 0.0
O26 O 0.03803 0.23523 0.05214 0.0
O27 O 0.0471 0.2373 0.06979 0.0
H28 H 0.03623 0.19011 0.06109 0.0
H29 H 0.03608 0.16774 0.06495 0.0
H30 H 1.00449 0.16569 0.07498 0.0
H31 H 0.00481 0.18796 0.07121 0.0
H32 H 0.99792 0.27359 0.08192 0.0
H33 H 0.99809 0.2524 0.07364 0.0
H34 H 0.03355 0.28687 0.08204 0.0
H35 H 0.03368 0.26543 0.07378 0.0
H36 H 0.08193 0.25756 0.05237 0.0
H37 H 0.07633 0.21713 0.05714 0.0
H38 H 0.05692 0.21757 0.05901 0.0
H39 H 0.06271 0.25791 0.05432 0.0
C40 C 0.06126 0.82531 0.32552 0.0
C41 C 0.07156 0.83363 0.32516 0.0
C42 C 0.0609 0.84925 0.3172 0.0
C43 C 0.07138 0.84552 0.32096 0.0
C44 C 0.0506 0.84062 0.31703 0.0
C45 C 0.05078 0.8287 0.32112 0.0
U46 U 0.07767 0.80248 0.34104 0.0
O47 O 0.07743 0.79523 0.35705 0.0
O48 O 0.07302 0.78156 0.34208 0.0
C49 C 0.07405 0.78313 0.35279 0.0
C50 C 0.06137 0.8138 0.3315 0.0
C51 C 0.06522 0.77518 0.35715 0.0
C52 C 0.04676 0.77097 0.36171 0.0
C53 C 0.05427 0.77775 0.35606 0.0
C54 C 0.06103 0.75889 0.36927 0.0
C55 C 0.05018 0.76166 0.36861 0.0
C56 C 0.06841 0.76553 0.36356 0.0
C57 C 0.11047 0.8107 0.34312 0.0
C58 C 0.12624 0.80552 0.35673 0.0
C59 C 0.13002 0.81773 0.34174 0.0
C60 C 0.11831 0.81689 0.33762 0.0
C61 C 0.1342 0.81233 0.35148 0.0
C62 C 0.11443 0.80471 0.35258 0.0
C63 C 0.09852 0.81199 0.33939 0.0
O64 O 0.06386 0.80394 0.32655 0.0
O65 O 0.06671 0.8162 0.34205 0.0
O66 O 0.09409 0.81642 0.34699 0.0
O67 O 0.09134 0.80269 0.33233 0.0
H68 H 0.07975 0.83117 0.32857 0.0
H69 H 0.07942 0.85211 0.32127 0.0
H70 H 0.04244 0.84334 0.31415 0.0
H71 H 0.04276 0.82239 0.32132 0.0
H72 H 0.0384 0.77322 0.36084 0.0
H73 H 0.05166 0.78521 0.35114 0.0
H74 H 0.06413 0.75202 0.37462 0.0
H75 H 0.07688 0.7635 0.36456 0.0
H76 H 0.12916 0.80115 0.3642 0.0
H77 H 0.13583 0.8233 0.33759 0.0
H78 H 0.11541 0.82165 0.33037 0.0
H79 H 0.10846 0.79987 0.35694 0.0
C80 C 0.479 0.88877 0.6826 0.0
C81 C 0.47146 0.89718 0.68039 0.0
C82 C 0.4632 0.89001 0.69541 0.0
C83 C 0.46357 0.89773 0.6867 0.0
C84 C 0.47139 0.88243 0.69821 0.0
C85 C 0.47921 0.88176 0.69178 0.0
U86 U 0.48812 0.89708 0.65681 0.0
O87 O 0.50353 0.89587 0.65094 0.0
O88 O 0.48642 0.88515 0.64147 0.0
C89 C 0.49753 0.88762 0.64237 0.0
C90 C 0.48541 0.88608 0.6745 0.0
C91 C 0.50226 0.87657 0.63963 0.0
C92 C 0.50134 0.8535 0.63793 0.0
C93 C 0.49855 0.86426 0.6427 0.0
C94 C 0.51224 0.86741 0.62769 0.0
C95 C 0.50784 0.85492 0.63002 0.0
C96 C 0.50943 0.87809 0.63241 0.0
C97 C 0.47673 0.92729 0.64606 0.0
C98 C 0.47447 0.93596 0.62828 0.0
C99 C 0.46674 0.94464 0.64243 0.0
C100 C 0.47098 0.93617 0.64954 0.0
C101 C 0.46823 0.94455 0.63164 0.0
C102 C 0.47867 0.92732 0.63545 0.0
C103 C 0.47941 0.91752 0.65348 0.0
O104 O 0.47885 0.8819 0.66453 0.0
O105 O 0.49457 0.89489 0.67449 0.0
O106 O 0.49021 0.91821 0.65858 0.0
O107 O 0.47344 0.9057 0.65023 0.0
H108 H 0.47119 0.90272 0.67335 0.0
H109 H 0.45734 0.90367 0.68443 0.0
H110 H 0.4712 0.87635 0.70485 0.0
H111 H 0.48497 0.87523 0.6936 0.0
H112 H 0.49783 0.84403 0.63994 0.0
H113 H 0.493 0.86289 0.64829 0.0
H114 H 0.51752 0.86891 0.62188 0.0
H115 H 0.51239 0.88751 0.62996 0.0
H116 H 0.47585 0.93568 0.62006 0.0
H117 H 0.46175 0.95079 0.64528 0.0
H118 H 0.46931 0.93617 0.65766 0.0
H119 H 0.48308 0.92046 0.63263 0.0
C120 C 0.44537 0.21261 0.95312 0.0
C121 C 0.43743 0.20115 0.95316 0.0
C122 C 0.42327 0.21342 0.95561 0.0
C123 C 0.42647 0.20155 0.95442 0.0
C124 C 0.4315 0.22486 0.95618 0.0
C125 C 0.44244 0.22445 0.95494 0.0
U126 U 0.46694 0.19397 0.94714 0.0
O127 O 0.47516 0.19394 0.9334 0.0
O128 O 0.48587 0.1991 0.95042 0.0
C129 C 0.4856 0.19767 0.93985 0.0
C130 C 0.45627 0.21236 0.9502 0.0
C131 C 0.49364 0.20711 0.93565 0.0
C132 C 0.49865 0.22718 0.92773 0.0
C133 C 0.49185 0.21947 0.93352 0.0
C134 C 0.50929 0.2105 0.92663 0.0
C135 C 0.5072 0.22256 0.924 0.0
C136 C 0.50259 0.20288 0.93243 0.0
C137 C 0.45773 0.15711 0.95015 0.0
C138 C 0.46298 0.13824 0.94271 0.0
C139 C 0.44914 0.1358 0.9538 0.0
C140 C 0.4504 0.1491 0.95515 0.0
C141 C 0.45527 0.13014 0.94745 0.0
C142 C 0.46419 0.15168 0.94404 0.0
C143 C 0.45735 0.17081 0.95068 0.0
O144 O 0.46449 0.20965 0.95797 0.0
O145 O 0.45513 0.20625 0.94046 0.0
O146 O 0.45462 0.17557 0.94119 0.0
O147 O 0.46527 0.17879 0.95833 0.0
H148 H 0.43954 0.19189 0.95178 0.0
H149 H 0.42032 0.19256 0.95387 0.0
H150 H 0.42937 0.23415 0.95727 0.0
H151 H 0.44848 0.23339 0.95499 0.0
H152 H 0.49691 0.23647 0.92573 0.0
H153 H 0.48494 0.22289 0.93589 0.0
H154 H 0.5158 0.20675 0.92378 0.0
H155 H 0.50405 0.19335 0.93394 0.0
H156 H 0.46786 0.13419 0.93781 0.0
H157 H 0.44291 0.12995 0.95733 0.0
H158 H 0.44524 0.15312 0.95977 0.0
H159 H 0.46988 0.15775 0.94008 0.0
C160 C 0.05519 0.0739 0.1197 0.0
C161 C 0.06038 0.08057 0.1122 0.0
C162 C 0.04371 0.08998 0.10611 0.0
C163 C 0.05468 0.08854 0.10545 0.0
C164 C 0.03844 0.08297 0.11343 0.0
C165 C 0.04415 0.07502 0.12017 0.0
U166 U 0.08203 0.06147 0.13092 0.0
O167 O 0.09212 0.06182 0.14795 0.0
O168 O 0.08453 0.04328 0.13773 0.0
C169 C 0.09041 0.04921 0.14748 0.0
C170 C 0.0615 0.06646 0.12754 0.0
C171 C 0.08772 0.04358 0.15725 0.0
C172 C 0.07773 0.04241 0.17188 0.0
C173 C 0.07872 0.04618 0.16153 0.0
C174 C 0.09427 0.03284 0.17335 0.0
C175 C 0.08578 0.03611 0.17806 0.0
C176 C 0.09524 0.03657 0.16306 0.0
C177 C 0.10644 0.07182 0.11615 0.0
C178 C 0.12707 0.07928 0.12357 0.0
C179 C 0.11855 0.07888 0.10397 0.0
C180 C 0.10778 0.07359 0.1055 0.0
C181 C 0.12815 0.08243 0.11306 0.0
C182 C 0.11622 0.07402 0.12512 0.0
C183 C 0.09479 0.07032 0.11776 0.0
O184 O 0.06342 0.05583 0.12324 0.0
O185 O 0.07053 0.07338 0.1348 0.0
O186 O 0.09388 0.07722 0.12639 0.0
O187 O 0.08817 0.0587 0.11591 0.0
H188 H 0.06895 0.07988 0.11178 0.0
H189 H 0.05904 0.09392 0.10001 0.0
H190 H 0.02995 0.08375 0.11405 0.0
H191 H 0.04003 0.06994 0.12592 0.0
H192 H 0.07108 0.04504 0.1753 0.0
H193 H 0.07282 0.0516 0.15712 0.0
H194 H 0.10045 0.02775 0.17778 0.0
H195 H 0.1022 0.03446 0.15986 0.0
H196 H 0.13436 0.08206 0.13071 0.0
H197 H 0.1192 0.08129 0.09581 0.0
H198 H 0.10034 0.07198 0.09849 0.0
H199 H 0.11536 0.07268 0.13342 0.0
C200 C 0.23094 0.88448 0.39326 0.0
C201 C 0.22243 0.88609 0.38404 0.0
C202 C 0.21241 0.86375 0.38331 0.0
C203 C 0.21326 0.87579 0.37907 0.0
C204 C 0.22115 0.86212 0.39233 0.0
C205 C 0.23033 0.87239 0.39724 0.0
U206 U 0.24449 0.92028 0.39746 0.0
O207 O 0.25001 0.93379 0.41256 0.0
O208 O 0.26252 0.93104 0.40313 0.0
C209 C 0.26067 0.93696 0.41181 0.0
C210 C 0.23994 0.89549 0.39936 0.0
C211 C 0.26973 0.9393 0.42223 0.0
C212 C 0.27805 0.93433 0.44077 0.0
C213 C 0.2704 0.93056 0.43026 0.0
C214 C 0.28464 0.95524 0.43502 0.0
C215 C 0.28494 0.94689 0.44333 0.0
C216 C 0.27713 0.95147 0.4246 0.0
C217 C 0.2291 0.94077 0.37655 0.0
C218 C 0.22659 0.96261 0.37975 0.0
C219 C 0.21751 0.95015 0.36197 0.0
C220 C 0.22247 0.93996 0.36565 0.0
C221 C 0.21916 0.96131 0.36914 0.0
C222 C 0.23159 0.95238 0.38345 0.0
C223 C 0.23138 0.92876 0.38093 0.0
O224 O 0.24737 0.90085 0.39401 0.0
O225 O 0.23624 0.90393 0.4048 0.0
O226 O 0.22867 0.92657 0.3903 0.0
O227 O 0.24103 0.92558 0.38033 0.0
H228 H 0.22271 0.8954 0.3809 0.0
H229 H 0.20659 0.87738 0.37221 0.0
H230 H 0.22079 0.85294 0.39569 0.0
H231 H 0.2368 0.87098 0.40435 0.0
H232 H 0.27813 0.92771 0.44704 0.0
H233 H 0.26471 0.92111 0.42858 0.0
H234 H 0.28994 0.96491 0.43671 0.0
H235 H 0.27674 0.95833 0.41852 0.0
H236 H 0.22785 0.97112 0.38543 0.0
H237 H 0.21166 0.94892 0.35382 0.0
H238 H 0.2204 0.93106 0.36025 0.0
H239 H 0.23669 0.95318 0.3919 0.0
C240 C 0.32638 0.91749 0.70617 0.0
C241 C 0.33352 0.91622 0.6991 0.0
C242 C 0.32228 0.9271 0.68541 0.0
C243 C 0.33149 0.92102 0.68878 0.0
C244 C 0.3148 0.92773 0.69221 0.0
C245 C 0.31682 0.92291 0.70252 0.0
U246 U 0.34592 0.90451 0.72912 0.0
O247 O 0.35494 0.91298 0.74602 0.0
O248 O 0.34269 0.89432 0.74335 0.0
C249 C 0.34962 0.90363 0.75058 0.0
C250 C 0.32955 0.91461 0.71774 0.0
C251 C 0.34561 0.90765 0.76016 0.0
C252 C 0.33847 0.92309 0.77014 0.0
C253 C 0.34039 0.91822 0.76029 0.0
C254 C 0.34643 0.9065 0.77966 0.0
C255 C 0.34179 0.91751 0.78003 0.0
C256 C 0.34831 0.90163 0.76982 0.0
C257 C 0.36951 0.89107 0.71856 0.0
C258 C 0.38825 0.88765 0.72805 0.0
C259 C 0.38178 0.88399 0.70806 0.0
C260 C 0.37147 0.88725 0.70846 0.0
C261 C 0.39042 0.88433 0.71781 0.0
C262 C 0.37784 0.89104 0.72842 0.0
C263 C 0.35929 0.89638 0.71808 0.0
O264 O 0.32801 0.90236 0.71936 0.0
O265 O 0.33948 0.92149 0.72363 0.0
O266 O 0.36106 0.90834 0.72242 0.0
O267 O 0.35011 0.88881 0.71971 0.0
H268 H 0.34098 0.9121 0.70179 0.0
H269 H 0.33745 0.92062 0.68369 0.0
H270 H 0.30774 0.93253 0.6898 0.0
H271 H 0.31124 0.92401 0.70787 0.0
H272 H 0.33469 0.93145 0.77008 0.0
H273 H 0.33822 0.923 0.7529 0.0
H274 H 0.34922 0.90203 0.7871 0.0
H275 H 0.3524 0.89351 0.7699 0.0
H276 H 0.39467 0.88791 0.73571 0.0
H277 H 0.38317 0.88183 0.7 0.0
H278 H 0.36519 0.88737 0.70076 0.0
H279 H 0.37647 0.89402 0.73632 0.0
C280 C 0.27822 0.13121 0.92149 0.0
C281 C 0.28844 0.132 0.91814 0.0
C282 C 0.28422 0.10865 0.91416 0.0
C283 C 0.29141 0.12081 0.91448 0.0
C284 C 0.27369 0.10803 0.91692 0.0
C285 C 0.27074 0.11921 0.92057 0.0
U286 U 0.28789 0.1662 0.9332 0.0
O287 O 0.27853 0.1813 0.93583 0.0
O288 O 0.28985 0.17501 0.94997 0.0
C289 C 0.28277 0.18257 0.94662 0.0
C290 C 0.27608 0.14247 0.92731 0.0
C291 C 0.27511 0.18434 0.95369 0.0
C292 C 0.25956 0.17652 0.96218 0.0
C293 C 0.26577 0.17469 0.95437 0.0
C294 C 0.27193 0.19763 0.9685 0.0
C295 C 0.26272 0.18796 0.9695 0.0
C296 C 0.27799 0.19585 0.96066 0.0
C297 C 0.31681 0.18423 0.92939 0.0
C298 C 0.33069 0.20038 0.94299 0.0
C299 C 0.33546 0.19309 0.92635 0.0
C300 C 0.32456 0.18501 0.92274 0.0
C301 C 0.33878 0.20037 0.93673 0.0
C302 C 0.31971 0.19242 0.9393 0.0
C303 C 0.30687 0.17331 0.9269 0.0
O304 O 0.28333 0.1463 0.93701 0.0
O305 O 0.27408 0.15204 0.92144 0.0
O306 O 0.29696 0.17535 0.92138 0.0
O307 O 0.30608 0.16641 0.93516 0.0
H308 H 0.29438 0.1412 0.91887 0.0
H309 H 0.29962 0.12164 0.9125 0.0
H310 H 0.26788 0.09884 0.91658 0.0
H311 H 0.26283 0.11843 0.92314 0.0
H312 H 0.25241 0.16893 0.96259 0.0
H313 H 0.26346 0.1657 0.94906 0.0
H314 H 0.27484 0.20643 0.97408 0.0
H315 H 0.28525 0.20334 0.9603 0.0
H316 H 0.3331 0.20596 0.95102 0.0
H317 H 0.34159 0.19282 0.92144 0.0
H318 H 0.32249 0.1787 0.91512 0.0
H319 H 0.31381 0.19196 0.94453 0.0
C320 C 0.13726 0.01105 0.32335 0.0
C321 C 0.1362 0.99996 0.32891 0.0
C322 C 0.15658 0.00584 0.33834 0.0
C323 C 0.14576 0.99735 0.3363 0.0
C324 C 0.15738 0.01738 0.3333 0.0
C325 C 0.14781 0.01991 0.32583 0.0
U326 U 0.10705 0.99845 0.3061 0.0
O327 O 0.10035 0.99334 0.28822 0.0
O328 O 0.09368 0.00761 0.2967 0.0
C329 C 0.09328 1.00121 0.28727 0.0
C330 C 0.12786 0.01248 0.31403 0.0
C331 C 0.09196 0.00793 0.27727 0.0
C332 C 0.09884 0.02369 0.26572 0.0
C333 C 0.10008 0.01864 0.27597 0.0
C334 C 0.08139 0.00744 0.2582 0.0
C335 C 0.08956 0.01798 0.25663 0.0
C336 C 0.08256 1.00255 0.26839 0.0
C337 C 0.09116 0.96785 0.31584 0.0
C338 C 0.076 0.95084 0.30442 0.0
C339 C 0.08409 0.94854 0.32366 0.0
C340 C 0.09126 0.9607 0.32488 0.0
C341 C 0.07663 0.94327 0.31334 0.0
C342 C 0.08325 0.96307 0.30566 0.0
C343 C 0.10052 0.97917 0.31695 0.0
O344 O 0.12518 1.00323 0.30588 0.0
O345 O 0.11881 0.01541 0.31658 0.0
O346 O 0.09823 0.99056 0.31852 0.0
O347 O 0.10693 0.97866 0.30999 0.0
H348 H 0.1281 0.99296 0.32709 0.0
H349 H 0.14476 0.9883 0.33989 0.0
H350 H 0.16548 0.02428 0.33485 0.0
H351 H 0.14878 0.02854 0.32163 0.0
H352 H 0.10523 0.03193 0.26489 0.0
H353 H 0.10744 0.02288 0.28275 0.0
H354 H 0.07429 1.00253 0.25143 0.0
H355 H 0.07628 0.9942 0.26923 0.0
H356 H 0.07025 0.94711 0.2964 0.0
H357 H 0.08497 0.94294 0.33066 0.0
H358 H 0.09739 0.9642 0.33276 0.0
H359 H 0.08308 0.9685 0.29857 0.0
C360 C 0.34342 0.98019 0.60374 0.0
C361 C 0.35018 0.97943 0.61427 0.0
C362 C 0.33319 0.97345 0.62115 0.0
C363 C 0.34517 0.97608 0.62284 0.0
C364 C 0.32632 0.97458 0.61063 0.0
C365 C 0.33142 0.97795 0.60193 0.0
U366 U 0.35137 0.98407 0.5747 0.0
O367 O 0.33639 0.97342 0.56192 0.0
O368 O 0.34025 0.99457 0.56377 0.0
C369 C 0.3338 0.98391 0.55793 0.0
C370 C 0.34949 0.982 0.59496 0.0
C371 C 0.33131 0.98358 0.5458 0.0
C372 C 0.31692 0.98182 0.52844 0.0
C373 C 0.32017 0.98392 0.53996 0.0
C374 C 0.33612 0.97957 0.52833 0.0
C375 C 0.32476 0.97936 0.52246 0.0
C376 C 0.33937 0.98165 0.53993 0.0
C377 C 0.3833 0.98411 0.5777 0.0
C378 C 0.40242 0.98146 0.57754 0.0
C379 C 0.39672 0.98157 0.59477 0.0
C380 C 0.3859 0.98339 0.58918 0.0
C381 C 0.40502 0.98034 0.58895 0.0
C382 C 0.39168 0.98332 0.57199 0.0
C383 C 0.37177 0.98486 0.57131 0.0
O384 O 0.35116 0.99318 0.59094 0.0
O385 O 0.34834 0.97202 0.58783 0.0
O386 O 0.36387 0.97421 0.56997 0.0
O387 O 0.36813 0.99525 0.57358 0.0
H388 H 0.35944 0.98095 0.61578 0.0
H389 H 0.35072 0.975 0.63071 0.0
H390 H 0.31705 0.97264 0.6091 0.0
H391 H 0.32605 0.97844 0.59381 0.0
H392 H 0.30806 0.98154 0.52427 0.0
H393 H 0.31381 0.98529 0.54435 0.0
H394 H 0.34241 0.97788 0.52398 0.0
H395 H 0.34804 0.98136 0.54432 0.0
H396 H 0.40867 0.98075 0.57284 0.0
H397 H 0.39843 0.98064 0.60356 0.0
H398 H 0.37949 0.98392 0.59372 0.0
H399 H 0.38982 0.98386 0.56315 0.0
C400 C 0.33031 0.01362 0.9002 0.0
C401 C 0.33662 0.02507 0.90675 0.0
C402 C 0.31897 0.03231 0.90615 0.0
C403 C 0.33097 0.0344 0.90965 0.0
C404 C 0.31263 0.02053 0.90022 0.0
C405 C 0.31829 0.01126 0.89722 0.0
U406 U 0.35792 0.0045 0.89778 0.0
O407 O 0.3621 0.98567 0.8945 0.0
O408 O 0.36408 1.00053 0.88316 0.0
C409 C 0.36471 0.98871 0.88523 0.0
C410 C 0.3362 0.00494 0.89533 0.0
C411 C 0.36055 0.97897 0.87554 0.0
C412 C 0.3454 0.96523 0.86099 0.0
C413 C 0.34885 0.97331 0.87102 0.0
C414 C 0.36526 0.96822 0.86024 0.0
C415 C 0.3536 0.96294 0.85539 0.0
C416 C 0.36868 0.97612 0.8702 0.0
C417 C 0.3849 0.02805 0.91767 0.0
C418 C 0.40472 0.03532 0.91681 0.0
C419 C 0.39806 0.04425 0.93165 0.0
C420 C 0.38723 0.03628 0.9274 0.0
C421 C 0.40689 0.04411 0.92631 0.0
C422 C 0.39376 0.02735 0.91249 0.0
C423 C 0.3728 0.02191 0.91258 0.0
O424 O 0.34239 0.01036 0.88891 0.0
O425 O 0.34147 0.99774 0.90208 0.0
O426 O 0.36884 0.01022 0.9148 0.0
O427 O 0.36861 0.02402 0.90233 0.0
H428 H 0.34592 0.02706 0.90913 0.0
H429 H 0.33598 0.04347 0.9142 0.0
H430 H 0.30337 0.01883 0.89738 0.0
H431 H 0.3133 1.00251 0.89213 0.0
H432 H 0.33634 0.9613 0.85737 0.0
H433 H 0.34243 0.97547 0.87501 0.0
H434 H 0.37175 0.96653 0.85614 0.0
H435 H 0.37773 0.9804 0.87355 0.0
H436 H 0.41136 0.03488 0.91256 0.0
H437 H 0.39925 0.05104 0.9388 0.0
H438 H 0.38046 0.03707 0.93142 0.0
H439 H 0.3921 0.02107 0.90492 0.0
C440 C 0.18466 0.22691 0.06827 0.0
C441 C 0.17723 0.21993 0.07387 0.0
C442 C 0.16352 0.23341 0.06809 0.0
C443 C 0.16673 0.22315 0.07377 0.0
C444 C 0.1714 0.24103 0.0633 0.0
C445 C 0.18189 0.23775 0.06334 0.0
U446 U 0.20294 0.20215 0.07292 0.0
O447 O 0.20729 0.18951 0.06095 0.0
O448 O 0.2211 0.2029 0.07321 0.0
C449 C 0.21837 0.19428 0.06455 0.0
C450 C 0.19433 0.22183 0.0662 0.0
C451 C 0.22448 0.19692 0.05589 0.0
C452 C 0.22614 0.20566 0.03865 0.0
C453 C 0.22144 0.20517 0.04784 0.0
C454 C 0.23729 0.19019 0.04584 0.0
C455 C 0.2338 0.1978 0.03739 0.0
C456 C 0.23265 0.18974 0.05497 0.0
C457 C 0.19471 0.1774 0.09308 0.0
C458 C 0.19034 0.15401 0.09214 0.0
C459 C 0.19103 0.16684 0.10895 0.0
C460 C 0.19405 0.17807 0.1041 0.0
C461 C 0.18844 0.15471 0.10279 0.0
C462 C 0.19345 0.16529 0.08731 0.0
C463 C 0.19447 0.18913 0.08737 0.0
O464 O 0.20331 0.22298 0.07465 0.0
O465 O 0.19124 0.21035 0.06061 0.0
O466 O 0.18966 0.18739 0.07669 0.0
O467 O 0.2036 0.19863 0.09028 0.0
H468 H 0.17924 0.21155 0.07776 0.0
H469 H 0.16087 0.21724 0.07767 0.0
H470 H 0.16914 0.24897 0.05885 0.0
H471 H 0.18754 0.24322 0.05898 0.0
H472 H 0.2233 0.21161 0.03227 0.0
H473 H 0.2151 0.21076 0.04842 0.0
H474 H 0.24334 0.18423 0.04522 0.0
H475 H 0.23508 0.18333 0.0611 0.0
H476 H 0.18843 0.14483 0.08717 0.0
H477 H 0.1899 0.1677 0.11725 0.0
H478 H 0.19503 0.18731 0.10872 0.0
H479 H 0.19401 0.16452 0.07881 0.0
C480 C 0.73045 0.38476 0.89303 0.0
C481 C 0.72219 0.38619 0.88354 0.0
C482 C 0.71201 0.36396 0.88304 0.0
C483 C 0.71306 0.37584 0.87854 0.0
C484 C 0.72047 0.36252 0.89237 0.0
C485 C 0.72962 0.37282 0.8973 0.0
U486 U 0.74422 0.42056 0.89706 0.0
O487 O 0.75009 0.43421 0.91205 0.0
O488 O 0.76234 0.43105 0.90245 0.0
C489 C 0.76074 0.43706 0.91121 0.0
C490 C 0.7395 0.3958 0.89903 0.0
C491 C 0.76971 0.43857 0.92158 0.0
C492 C 0.77712 0.43248 0.93986 0.0
C493 C 0.76954 0.42953 0.92932 0.0
C494 C 0.78534 0.45322 0.93481 0.0
C495 C 0.78485 0.44455 0.94284 0.0
C496 C 0.77787 0.45022 0.92429 0.0
C497 C 0.72919 0.44143 0.87631 0.0
C498 C 0.7242 0.4622 0.87876 0.0
C499 C 0.71982 0.45084 0.86045 0.0
C500 C 0.72497 0.4411 0.86486 0.0
C501 C 0.71876 0.46106 0.86742 0.0
C502 C 0.72938 0.45239 0.88321 0.0
C503 C 0.73119 0.42934 0.88074 0.0
O504 O 0.74688 0.40105 0.8936 0.0
O505 O 0.73589 0.40432 0.90448 0.0
O506 O 0.72854 0.42725 0.89015 0.0
O507 O 0.7406 0.42571 0.87991 0.0
H508 H 0.72264 0.39538 0.88017 0.0
H509 H 0.7066 0.37727 0.87143 0.0
H510 H 0.71993 0.35346 0.89595 0.0
H511 H 0.73591 0.37155 0.90462 0.0
H512 H 0.77666 0.42547 0.94579 0.0
H513 H 0.76329 0.42046 0.92735 0.0
H514 H 0.79102 0.46265 0.93679 0.0
H515 H 0.77806 0.45733 0.91843 0.0
H516 H 0.72351 0.47 0.88431 0.0
H517 H 0.71582 0.44983 0.85165 0.0
H518 H 0.7248 0.43277 0.85941 0.0
H519 H 0.73271 0.4529 0.89208 0.0
C520 C 0.8261 0.41777 0.20556 0.0
C521 C 0.83311 0.41601 0.19849 0.0
C522 C 0.82173 0.42631 0.18434 0.0
C523 C 0.83095 0.42025 0.18798 0.0
C524 C 0.81441 0.42744 0.19126 0.0
C525 C 0.8166 0.42322 0.2018 0.0
U526 U 0.84525 0.40433 0.22835 0.0
O527 O 0.85503 0.41316 0.245 0.0
O528 O 0.84214 0.39504 0.24299 0.0
C529 C 0.84978 0.40413 0.24991 0.0
C530 C 0.82932 0.41513 0.21718 0.0
C531 C 0.84704 0.40841 0.26014 0.0
C532 C 0.83571 0.41802 0.27043 0.0
C533 C 0.83748 0.41371 0.26029 0.0
C534 C 0.85305 0.41185 0.28016 0.0
C535 C 0.84352 0.41717 0.28053 0.0
C536 C 0.85471 0.40747 0.27012 0.0
C537 C 0.86827 0.38916 0.21919 0.0
C538 C 0.88761 0.38907 0.22973 0.0
C539 C 0.88092 0.37959 0.21067 0.0
C540 C 0.87023 0.38252 0.21011 0.0
C541 C 0.88988 0.3833 0.22034 0.0
C542 C 0.87687 0.39198 0.22917 0.0
C543 C 0.85802 0.39471 0.21742 0.0
O544 O 0.82732 0.40293 0.21899 0.0
O545 O 0.8395 0.42164 0.22279 0.0
O546 O 0.85989 0.40697 0.22097 0.0
O547 O 0.84868 0.38776 0.21929 0.0
H548 H 0.84052 0.41184 0.20127 0.0
H549 H 0.83686 0.41935 0.18294 0.0
H550 H 0.80714 0.43187 0.18865 0.0
H551 H 0.8111 0.42462 0.20715 0.0
H552 H 0.82823 0.42197 0.27035 0.0
H553 H 0.83148 0.41457 0.25262 0.0
H554 H 0.85948 0.41134 0.28761 0.0
H555 H 0.86219 0.40351 0.27016 0.0
H556 H 0.89432 0.39189 0.23734 0.0
H557 H 0.88239 0.37527 0.20326 0.0
H558 H 0.86371 0.38033 0.20233 0.0
H559 H 0.87551 0.39707 0.2363 0.0
C560 C 0.77815 0.63114 0.42047 0.0
C561 C 0.78866 0.63208 0.41761 0.0
C562 C 0.7846 0.60876 0.41339 0.0
C563 C 0.79184 0.62096 0.41404 0.0
C564 C 0.77378 0.60802 0.41554 0.0
C565 C 0.77059 0.61911 0.41904 0.0
U566 U 0.78669 0.66613 0.43277 0.0
O567 O 0.78852 0.67432 0.44973 0.0
O568 O 0.77664 0.68037 0.43587 0.0
C569 C 0.78115 0.68162 0.44662 0.0
C570 C 0.77572 0.64214 0.42645 0.0
C571 C 0.77396 0.68362 0.45417 0.0
C572 C 0.75719 0.67799 0.46151 0.0
C573 C 0.76317 0.67575 0.45355 0.0
C574 C 0.77271 0.69593 0.47055 0.0
C575 C 0.76197 0.68806 0.47019 0.0
C576 C 0.77857 0.69375 0.46263 0.0
C577 C 0.81545 0.6852 0.4288 0.0
C578 C 0.82894 0.70203 0.44204 0.0
C579 C 0.83452 0.69325 0.4264 0.0
C580 C 0.82361 0.68523 0.42267 0.0
C581 C 0.8374 0.70127 0.43636 0.0
C582 C 0.81796 0.69407 0.43824 0.0
C583 C 0.80555 0.67425 0.42645 0.0
O584 O 0.78289 0.64599 0.43619 0.0
O585 O 0.77335 0.65171 0.42076 0.0
O586 O 0.79551 0.67616 0.42114 0.0
O587 O 0.80502 0.66723 0.43468 0.0
H588 H 0.79464 0.64129 0.41871 0.0
H589 H 0.80024 0.62183 0.41246 0.0
H590 H 0.76797 0.59877 0.41494 0.0
H591 H 0.76246 0.61821 0.4212 0.0
H592 H 0.74888 0.6718 0.46089 0.0
H593 H 0.75945 0.66785 0.44706 0.0
H594 H 0.77685 0.70356 0.47718 0.0
H595 H 0.78693 0.69989 0.46327 0.0
H596 H 0.83108 0.70808 0.44981 0.0
H597 H 0.841 0.69234 0.42203 0.0
H598 H 0.82186 0.67834 0.41546 0.0
H599 H 0.81176 0.69412 0.44311 0.0
C600 C 0.83061 0.51332 0.40025 0.0
C601 C 0.83654 0.52401 0.40798 0.0
C602 C 0.819 0.53201 0.40573 0.0
C603 C 0.83073 0.53327 0.41076 0.0
C604 C 0.813 0.52095 0.39852 0.0
C605 C 0.81876 0.51165 0.39585 0.0
U606 U 0.85839 0.50393 0.39783 0.0
O607 O 0.8622 0.48496 0.39432 0.0
O608 O 0.86409 0.49978 0.38294 0.0
C609 C 0.86456 0.48789 0.38492 0.0
C610 C 0.83677 0.50484 0.39552 0.0
C611 C 0.85988 0.47809 0.3753 0.0
C612 C 0.84442 0.46645 0.35987 0.0
C613 C 0.84819 0.47494 0.36966 0.0
C614 C 0.86394 0.4641 0.36149 0.0
C615 C 0.85231 0.46104 0.35562 0.0
C616 C 0.86765 0.47249 0.3712 0.0
C617 C 0.88588 0.52662 0.41802 0.0
C618 C 0.90427 0.53919 0.4167 0.0
C619 C 0.89905 0.53972 0.43415 0.0
C620 C 0.88878 0.53091 0.42931 0.0
C621 C 0.90662 0.54453 0.42776 0.0
C622 C 0.89394 0.53031 0.41184 0.0
C623 C 0.87372 0.52075 0.41277 0.0
O624 O 0.84306 0.51039 0.38924 0.0
O625 O 0.84194 0.49752 0.40222 0.0
O626 O 0.86942 0.5091 0.41488 0.0
O627 O 0.86955 0.52316 0.4026 0.0
H628 H 0.84573 0.5255 0.4114 0.0
H629 H 0.83552 0.54179 0.41628 0.0
H630 H 0.80395 0.51981 0.39457 0.0
H631 H 0.81406 0.50349 0.38988 0.0
H632 H 0.83539 0.46422 0.3556 0.0
H633 H 0.84205 0.47922 0.37269 0.0
H634 H 0.8703 0.46036 0.35838 0.0
H635 H 0.87671 0.47492 0.37537 0.0
H636 H 0.90993 0.54262 0.41154 0.0
H637 H 0.90072 0.54334 0.44277 0.0
H638 H 0.8827 0.52818 0.43424 0.0
H639 H 0.8919 0.52709 0.4031 0.0
C640 C 0.63666 0.51215 0.8225 0.0
C641 C 0.63493 0.50419 0.83078 0.0
C642 C 0.6556 0.5061 0.83737 0.0
C643 C 0.64432 0.5013 0.83822 0.0
C644 C 0.65727 0.51476 0.82951 0.0
C645 C 0.64787 0.51775 0.82214 0.0
U646 U 0.60622 0.49873 0.80578 0.0
O647 O 0.5927 0.50775 0.79642 0.0
O648 O 0.59937 0.4935 0.78795 0.0
C649 C 0.59255 0.50165 0.78694 0.0
C650 C 0.62697 0.51306 0.81327 0.0
C651 C 0.59232 0.50916 0.77742 0.0
C652 C 0.60179 0.51963 0.76427 0.0
C653 C 0.60242 0.51469 0.77448 0.0
C654 C 0.58101 0.51425 0.76017 0.0
C655 C 0.59106 0.51913 0.75688 0.0
C656 C 0.58165 0.5093 0.77034 0.0
C657 C 0.59036 0.46825 0.81548 0.0
C658 C 0.57596 0.45091 0.80361 0.0
C659 C 0.5828 0.44899 0.82315 0.0
C660 C 0.58987 0.46126 0.82456 0.0
C661 C 0.57612 0.44347 0.81258 0.0
C662 C 0.58304 0.46325 0.80506 0.0
C663 C 0.5998 0.47955 0.81679 0.0
O664 O 0.62431 0.50354 0.80536 0.0
O665 O 0.61794 0.51591 0.81592 0.0
O666 O 0.5975 0.49096 0.81832 0.0
O667 O 0.6063 0.47906 0.80991 0.0
H668 H 0.62633 0.4997 0.83115 0.0
H669 H 0.64271 0.49483 0.84432 0.0
H670 H 0.66579 0.51856 0.82852 0.0
H671 H 0.64935 0.52383 0.81574 0.0
H672 H 0.60967 0.52348 0.76199 0.0
H673 H 0.61075 0.51467 0.77986 0.0
H674 H 0.57263 0.5136 0.75464 0.0
H675 H 0.57378 0.50497 0.77244 0.0
H676 H 0.57079 0.44695 0.79541 0.0
H677 H 0.58323 0.44348 0.8302 0.0
H678 H 0.59552 0.46495 0.83265 0.0
H679 H 0.5833 0.46855 0.79794 0.0
C680 C 0.51664 0.69363 0.56974 0.0
C681 C 0.52506 0.68836 0.5664 0.0
C682 C 0.51817 0.66799 0.57314 0.0
C683 C 0.52582 0.67563 0.56807 0.0
C684 C 0.50934 0.67314 0.57585 0.0
C685 C 0.50863 0.68585 0.57421 0.0
U686 U 0.53137 0.72669 0.56497 0.0
O687 O 0.52508 0.7439 0.55945 0.0
O688 O 0.5369 0.74481 0.57586 0.0
C689 C 0.53079 0.75098 0.56878 0.0
C690 C 0.51698 0.70753 0.56981 0.0
C691 C 0.52511 0.76001 0.57348 0.0
C692 C 0.51446 0.76595 0.5863 0.0
C693 C 0.51819 0.75649 0.58075 0.0
C694 C 0.52429 0.78233 0.57712 0.0
C695 C 0.51769 0.77905 0.58473 0.0
C696 C 0.5279 0.77291 0.57154 0.0
C697 C 0.5587 0.72776 0.55469 0.0
C698 C 0.57535 0.74556 0.55866 0.0
C699 C 0.57567 0.72547 0.5488 0.0
C700 C 0.56443 0.72044 0.54926 0.0
C701 C 0.58137 0.73788 0.55387 0.0
C702 C 0.56402 0.74055 0.55901 0.0
C703 C 0.54812 0.72116 0.55728 0.0
O704 O 0.52572 0.71476 0.57721 0.0
O705 O 0.51513 0.71203 0.56011 0.0
O706 O 0.53833 0.72234 0.55081 0.0
O707 O 0.54833 0.7221 0.56783 0.0
H708 H 0.53138 0.69427 0.56298 0.0
H709 H 0.53278 0.67206 0.56596 0.0
H710 H 0.50317 0.66746 0.57955 0.0
H711 H 0.50208 0.68977 0.57684 0.0
H712 H 0.50923 0.76304 0.59196 0.0
H713 H 0.51598 0.74654 0.58237 0.0
H714 H 0.52716 0.79228 0.5758 0.0
H715 H 0.53333 0.77581 0.56604 0.0
H716 H 0.57959 0.75517 0.56259 0.0
H717 H 0.58018 0.71931 0.54519 0.0
H718 H 0.56048 0.71052 0.54597 0.0
H719 H 0.55969 0.74634 0.56324 0.0
C720 C 0.56132 0.32553 0.82572 0.0
C721 C 0.57173 0.33388 0.8257 0.0
C722 C 0.56129 0.34939 0.81701 0.0
C723 C 0.57171 0.34572 0.82134 0.0
C724 C 0.55091 0.34066 0.81647 0.0
C725 C 0.55094 0.32883 0.82078 0.0
U726 U 0.57692 0.30212 0.84155 0.0
O727 O 0.57635 0.29517 0.85763 0.0
O728 O 0.57157 0.28128 0.84277 0.0
C729 C 0.57275 0.28304 0.8535 0.0
C730 C 0.56115 0.31406 0.8318 0.0
C731 C 0.56417 0.27516 0.85825 0.0
C732 C 0.54559 0.27022 0.86264 0.0
C733 C 0.55283 0.27678 0.85659 0.0
C734 C 0.56089 0.26022 0.87171 0.0
C735 C 0.54972 0.26219 0.87051 0.0
C736 C 0.56799 0.2666 0.86562 0.0
C737 C 0.60992 0.30968 0.84366 0.0
C738 C 0.62585 0.3048 0.85727 0.0
C739 C 0.62943 0.31701 0.84223 0.0
C740 C 0.61768 0.31595 0.83811 0.0
C741 C 0.63375 0.31173 0.85201 0.0
C742 C 0.614 0.30382 0.85314 0.0
C743 C 0.59793 0.31094 0.83998 0.0
O744 O 0.56337 0.30394 0.82695 0.0
O745 O 0.56646 0.31644 0.84236 0.0
O746 O 0.59359 0.31562 0.84753 0.0
O747 O 0.59064 0.30163 0.83302 0.0
H748 H 0.57985 0.33149 0.82948 0.0
H749 H 0.57984 0.35228 0.82193 0.0
H750 H 0.54276 0.34317 0.81305 0.0
H751 H 0.54283 0.32249 0.82067 0.0
H752 H 0.53701 0.2719 0.86156 0.0
H753 H 0.54973 0.2834 0.85096 0.0
H754 H 0.56424 0.25397 0.8776 0.0
H755 H 0.57671 0.26522 0.86701 0.0
H756 H 0.62883 0.30047 0.86474 0.0
H757 H 0.63514 0.32268 0.83804 0.0
H758 H 0.61469 0.32063 0.83084 0.0
H759 H 0.6081 0.29894 0.85756 0.0
C760 C 0.97376 0.40027 0.18009 0.0
C761 C 0.96783 0.40906 0.18338 0.0
C762 C 0.96115 0.39466 0.19599 0.0
C763 C 0.96157 0.4063 0.19117 0.0
C764 C 0.96754 0.38601 0.19305 0.0
C765 C 0.9738 0.38878 0.18508 0.0
U766 U 0.98882 0.39779 0.15542 0.0
O767 O 0.98738 0.37712 0.15158 0.0
O768 O 1.00416 0.38943 0.15998 0.0
C769 C 0.99846 0.37791 0.15524 0.0
C770 C 0.97827 0.40298 0.17042 0.0
C771 C 1.00358 0.37132 0.14771 0.0
C772 C 0.01155 0.35304 0.14371 0.0
C773 C 0.0084 0.36093 0.1512 0.0
C774 C 0.0057 0.36633 0.12923 0.0
C775 C 0.00995 0.35542 0.13256 0.0
C776 C 1.00251 0.3742 0.13675 0.0
C777 C 0.98218 0.42314 0.13581 0.0
C778 C 0.97266 0.43363 0.12072 0.0
C779 C 0.97281 0.44041 0.13953 0.0
C780 C 0.97908 0.43115 0.14333 0.0
C781 C 0.96933 0.44164 0.12811 0.0
C782 C 0.97906 0.4246 0.12454 0.0
C783 C 0.98782 0.41251 0.13924 0.0
O784 O 0.97313 0.39549 0.16119 0.0
O785 O 0.98935 0.40732 0.17174 0.0
O786 O 0.98077 0.40133 0.13856 0.0
O787 O 0.99626 0.41492 0.1483 0.0
H788 H 0.96755 0.41787 0.17948 0.0
H789 H 0.95654 0.41305 0.19295 0.0
H790 H 0.96744 0.37699 0.19667 0.0
H791 H 0.9783 0.38182 0.18257 0.0
H792 H 0.01465 0.34468 0.14657 0.0
H793 H 0.00923 0.35853 0.15961 0.0
H794 H 0.00456 0.36859 0.12076 0.0
H795 H 0.9988 0.38221 0.1339 0.0
H796 H 0.96998 0.43389 0.11187 0.0
H797 H 0.97061 0.44646 0.14555 0.0
H798 H 0.98133 0.43011 0.1521 0.0
H799 H 0.98126 0.41841 0.1186 0.0
C800 C 0.94158 0.70328 0.45538 0.0
C801 C 0.93232 0.69316 0.45519 0.0
C802 C 0.92052 0.70853 0.4572 0.0
C803 C 0.92189 0.69575 0.45616 0.0
C804 C 0.92993 0.71868 0.45767 0.0
C805 C 0.94043 0.71606 0.45682 0.0
U806 U 0.96989 0.69542 0.44753 0.0
O807 O 0.97475 0.7079 0.43539 0.0
O808 O 0.98565 0.71087 0.45241 0.0
C809 C 0.98415 0.71447 0.44238 0.0
C810 C 0.95177 0.70046 0.45255 0.0
C811 C 0.99421 0.71772 0.43786 0.0
C812 C 0.00756 0.73498 0.43291 0.0
C813 C 1.0 0.73064 0.4393 0.0
C814 C 1.00437 0.71326 0.42415 0.0
C815 C 0.00941 0.72646 0.42488 0.0
C816 C 0.99677 0.7089 0.43058 0.0
C817 C 0.96782 0.65837 0.44675 0.0
C818 C 0.96849 0.63578 0.44444 0.0
C819 C 0.952 0.64184 0.44895 0.0
C820 C 0.95708 0.65488 0.44909 0.0
C821 C 0.95759 0.63211 0.44646 0.0
C822 C 0.97352 0.64876 0.44457 0.0
C823 C 0.97311 0.6718 0.44588 0.0
O824 O 0.96135 0.7009 0.46015 0.0
O825 O 0.95174 0.69679 0.44237 0.0
O826 O 0.96784 0.67712 0.43752 0.0
O827 O 0.97701 0.67962 0.4551 0.0
H828 H 0.93304 0.68325 0.45389 0.0
H829 H 0.91474 0.68773 0.45559 0.0
H830 H 0.92911 0.7286 0.45847 0.0
H831 H 0.9475 0.72398 0.45683 0.0
H832 H 0.01153 0.74514 0.43388 0.0
H833 H 0.9981 0.73757 0.44486 0.0
H834 H 0.00563 0.70644 0.41806 0.0
H835 H 0.99234 0.69887 0.42936 0.0
H836 H 0.97314 0.62861 0.44269 0.0
H837 H 0.94353 0.6394 0.45042 0.0
H838 H 0.95253 0.66219 0.45076 0.0
H839 H 0.98183 0.65129 0.44275 0.0
C840 C 0.55478 0.57536 0.61943 0.0
C841 C 0.5603 0.58276 0.61251 0.0
C842 C 0.54335 0.59158 0.6059 0.0
C843 C 0.55464 0.59081 0.6058 0.0
C844 C 0.53772 0.58366 0.61248 0.0
C845 C 0.5434 0.57567 0.61921 0.0
U846 U 0.58198 0.56407 0.6315 0.0
O847 O 0.59173 0.56453 0.64869 0.0
O848 O 0.58505 0.54602 0.63826 0.0
C849 C 0.59058 0.55197 0.64811 0.0
C850 C 0.56108 0.56806 0.62747 0.0
C851 C 0.58804 0.54591 0.65777 0.0
C852 C 0.57689 0.54203 0.67138 0.0
C853 C 0.57815 0.54659 0.66133 0.0
C854 C 0.59523 0.5359 0.67415 0.0
C855 C 0.58555 0.53686 0.67804 0.0
C856 C 0.59641 0.5403 0.66413 0.0
C857 C 0.60626 0.57606 0.61677 0.0
C858 C 0.62688 0.57794 0.62309 0.0
C859 C 0.61882 0.58589 0.60585 0.0
C860 C 0.60784 0.58181 0.60732 0.0
C861 C 0.62852 0.58426 0.6138 0.0
C862 C 0.6158 0.57387 0.62458 0.0
C863 C 0.5947 0.57392 0.6186 0.0
O864 O 0.56352 0.55768 0.62332 0.0
O865 O 0.56975 0.57518 0.63502 0.0
O866 O 0.5937 0.58038 0.62742 0.0
O867 O 0.5885 0.56208 0.61666 0.0
H868 H 0.56912 0.58265 0.61259 0.0
H869 H 0.55929 0.59683 0.60094 0.0
H870 H 0.52897 0.58381 0.61261 0.0
H871 H 0.539 0.56999 0.62446 0.0
H872 H 0.56923 0.54275 0.674 0.0
H873 H 0.57159 0.55092 0.65651 0.0
H874 H 0.60222 0.53226 0.67906 0.0
H875 H 0.60413 0.53979 0.66154 0.0
H876 H 0.63417 0.57645 0.62932 0.0
H877 H 0.61969 0.59097 0.59874 0.0
H878 H 0.60058 0.58369 0.60128 0.0
H879 H 0.61471 0.56946 0.63196 0.0
C880 C 0.84117 0.484 0.10277 0.0
C881 C 0.84891 0.47908 0.11062 0.0
C882 C 0.8346 0.47421 0.12117 0.0
C883 C 0.84565 0.47426 0.11981 0.0
C884 C 0.82719 0.48002 0.11372 0.0
C885 C 0.83047 0.48487 0.10454 0.0
U886 U 0.85066 0.4873 0.07416 0.0
O887 O 0.837 0.47744 0.05993 0.0
O888 O 0.84204 0.4986 0.06184 0.0
C889 C 0.83529 0.48818 0.05587 0.0
C890 C 0.84292 0.48574 0.09177 0.0
C891 C 0.83277 0.48773 0.04384 0.0
C892 C 0.81793 0.48633 0.02694 0.0
C893 C 0.82194 0.48943 0.03832 0.0
C894 C 0.83593 0.48061 0.02631 0.0
C895 C 0.82471 0.48144 0.02088 0.0
C896 C 0.83993 0.48367 0.03779 0.0
C897 C 0.88294 0.48491 0.08047 0.0
C898 C 0.90253 0.48339 0.08105 0.0
C899 C 0.8954 0.48054 0.09741 0.0
C900 C 0.88475 0.48265 0.09161 0.0
C901 C 0.90438 0.48068 0.09214 0.0
C902 C 0.89192 0.48541 0.0753 0.0
C903 C 0.87173 0.48619 0.07373 0.0
O904 O 0.84791 0.49687 0.08921 0.0
O905 O 0.8432 0.47558 0.08551 0.0
O906 O 0.86329 0.47598 0.07209 0.0
O907 O 0.86858 0.49707 0.07543 0.0
H908 H 0.85714 0.47824 0.1093 0.0
H909 H 0.85152 0.46991 0.12554 0.0
H910 H 0.81861 0.47998 0.11455 0.0
H911 H 0.82432 0.48845 0.09842 0.0
H912 H 0.80931 0.48722 0.02294 0.0
H913 H 0.81628 0.49246 0.0429 0.0
H914 H 0.84131 0.47684 0.02181 0.0
H915 H 0.8483 0.4822 0.04199 0.0
H916 H 0.90924 0.48388 0.07675 0.0
H917 H 0.89642 0.47836 0.10589 0.0
H918 H 0.87789 0.48222 0.09574 0.0
H919 H 0.89067 0.48718 0.06669 0.0
C920 C 0.68365 0.72695 0.56745 0.0
C921 C 0.67581 0.72068 0.57301 0.0
C922 C 0.66355 0.73582 0.56756 0.0
C923 C 0.66583 0.7251 0.57308 0.0
C924 C 0.67175 0.74244 0.56253 0.0
C925 C 0.68171 0.73803 0.56248 0.0
U926 U 0.70143 0.70156 0.57288 0.0
O927 O 0.70612 0.6889 0.56118 0.0
O928 O 0.71969 0.70227 0.57368 0.0
C929 C 0.71718 0.69368 0.56501 0.0
C930 C 0.69316 0.72129 0.56576 0.0
C931 C 0.72355 0.69643 0.55654 0.0
C932 C 0.72614 0.70618 0.53992 0.0
C933 C 0.72125 0.70545 0.54899 0.0
C934 C 0.73602 0.68937 0.54624 0.0
C935 C 0.73325 0.69778 0.53826 0.0
C936 C 0.73121 0.6887 0.55526 0.0
C937 C 0.69245 0.67691 0.59265 0.0
C938 C 0.69315 0.65426 0.59223 0.0
C939 C 0.68504 0.66379 0.60566 0.0
C940 C 0.68754 0.67571 0.60165 0.0
C941 C 0.6874 0.65281 0.60072 0.0
C942 C 0.69565 0.66623 0.5882 0.0
C943 C 0.69238 0.68871 0.58711 0.0
O944 O 0.70198 0.72242 0.57437 0.0
O945 O 0.68992 0.70972 0.56034 0.0
O946 O 0.68787 0.68693 0.57638 0.0
O947 O 0.7016 0.69808 0.59016 0.0
H948 H 0.67716 0.71206 0.57687 0.0
H949 H 0.65964 0.71972 0.57695 0.0
H950 H 0.6703 0.75083 0.55836 0.0
H951 H 0.68769 0.74298 0.55817 0.0
H952 H 0.72385 0.71276 0.5339 0.0
H953 H 0.71531 0.71149 0.54984 0.0
H954 H 0.74162 0.68295 0.54529 0.0
H955 H 0.73309 0.6817 0.56101 0.0
H956 H 0.69524 0.64602 0.58836 0.0
H957 H 0.68048 0.66305 0.61209 0.0
H958 H 0.68496 0.68383 0.60514 0.0
H959 H 0.69947 0.66699 0.58124 0.0
H960 H 0.04278 0.09464 0.08457 0.0
H961 H 0.01592 0.15638 0.08945 0.0
H962 H 0.03195 0.10674 0.1131 0.0
H963 H 0.02691 0.14485 0.06085 0.0
H964 H 0.01942 0.13664 0.09717 0.0
H965 H 0.035 0.11149 0.07485 0.0
C966 C 0.03872 0.1008 0.08877 0.0
C967 C 0.03811 0.09933 0.0997 0.0
C968 C 0.02096 0.13834 0.08915 0.0
C969 C 0.02916 0.1186 0.08861 0.0
C970 C 0.01888 0.14958 0.08468 0.0
C971 C 0.02121 0.15233 0.0745 0.0
C972 C 0.02548 0.12978 0.08345 0.0
C973 C 0.0252 0.14323 0.06881 0.0
C974 C 0.03424 0.11038 0.0832 0.0
C975 C 0.03256 0.10744 0.10466 0.0
N976 N 0.0273 0.13241 0.07341 0.0
N977 N 0.0284 0.11679 0.09912 0.0
H978 H 0.19999 0.84829 0.39494 0.0
H979 H 0.15174 0.81345 0.34119 0.0
H980 H 0.20123 0.85534 0.36159 0.0
H981 H 0.14546 0.81812 0.37351 0.0
H982 H 0.17195 0.8236 0.34917 0.0
H983 H 0.18204 0.83229 0.3876 0.0
C984 C 0.19658 0.84633 0.38606 0.0
C985 C 0.20208 0.85324 0.37886 0.0
C986 C 0.16616 0.8222 0.35452 0.0
C987 C 0.18154 0.83496 0.37044 0.0
C988 C 0.15463 0.81643 0.34999 0.0
C989 C 0.14679 0.81525 0.35662 0.0
C990 C 0.16995 0.82669 0.3658 0.0
C991 C 0.15113 0.81888 0.36804 0.0
C992 C 0.18632 0.83724 0.3819 0.0
C993 C 0.1972 0.85038 0.36744 0.0
N994 N 0.1624 0.82461 0.37225 0.0
N995 N 0.18718 0.84149 0.36358 0.0
H996 H 0.46279 0.89395 0.71727 0.0
H997 H 0.39502 0.86715 0.7033 0.0
H998 H 0.44096 0.88185 0.68442 0.0
H999 H 0.41198 0.89695 0.73022 0.0
H1000 H 0.41339 0.86748 0.69902 0.0
H1001 H 0.44551 0.89075 0.72456 0.0
C1002 C 0.45437 0.89061 0.71164 0.0
C1003 C 0.4532 0.88831 0.70024 0.0
C1004 C 0.4131 0.87382 0.70596 0.0
C1005 C 0.43369 0.88428 0.70845 0.0
C1006 C 0.40262 0.87367 0.7084 0.0
C1007 C 0.40185 0.88232 0.71693 0.0
C1008 C 0.42299 0.8825 0.71218 0.0
C1009 C 0.41211 0.89018 0.72352 0.0
C1010 C 0.44458 0.88878 0.71578 0.0
C1011 C 0.44218 0.8839 0.69324 0.0
N1012 N 0.42228 0.8902 0.72092 0.0
N1013 N 0.43287 0.88198 0.69746 0.0
H1014 H 0.40839 0.19876 0.96578 0.0
H1015 H 0.35344 0.21799 0.92871 0.0
H1016 H 0.41043 0.22892 0.94421 0.0
H1017 H 0.35205 0.19467 0.95562 0.0
H1018 H 0.37445 0.22352 0.93523 0.0
H1019 H 0.38787 0.1981 0.96306 0.0
C1020 C 0.40455 0.20532 0.96056 0.0
C1021 C 0.41114 0.21385 0.95517 0.0
C1022 C 0.36955 0.21738 0.93983 0.0
C1023 C 0.38766 0.21312 0.95197 0.0
C1024 C 0.35759 0.21427 0.93613 0.0
C1025 C 0.35108 0.20593 0.94168 0.0
C1026 C 0.37502 0.21179 0.94897 0.0
C1027 C 0.3568 0.20126 0.9512 0.0
C1028 C 0.39285 0.20499 0.95905 0.0
C1029 C 0.40572 0.22225 0.9486 0.0
N1030 N 0.36846 0.20408 0.95444 0.0
N1031 N 0.39429 0.22156 0.94707 0.0
H1032 H 0.05251 0.8663 0.32788 0.0
H1033 H 0.07392 0.92538 0.29576 0.0
H1034 H 0.06923 0.86266 0.30163 0.0
H1035 H 0.06615 0.92956 0.32746 0.0
H1036 H 0.06784 0.90199 0.29516 0.0
H1037 H 0.05362 0.88908 0.32539 0.0
C1038 C 0.05624 0.87031 0.32146 0.0
C1039 C 0.06078 0.86268 0.31494 0.0
C1040 C 0.06737 0.90806 0.30218 0.0
C1041 C 0.06207 0.88867 0.31201 0.0
C1042 C 0.0707 0.92142 0.30248 0.0
C1043 C 0.07072 0.92946 0.31177 0.0
C1044 C 0.06401 0.90272 0.31121 0.0
C1045 C 0.06652 0.92374 0.32025 0.0
C1046 C 0.05692 0.88329 0.32007 0.0
C1047 C 0.06568 0.8683 0.30684 0.0
N1048 N 0.06346 0.91072 0.31982 0.0
N1049 N 0.06621 0.88101 0.30559 0.0
H1050 H 0.41949 0.99034 0.6093 0.0
H1051 H 0.45764 0.93819 0.60947 0.0
H1052 H 0.41575 0.96295 0.58129 0.0
H1053 H 0.46463 0.96884 0.63581 0.0
H1054 H 0.44403 0.94891 0.59807 0.0
H1055 H 0.43715 0.9839 0.61854 0.0
C1056 C 0.4224 0.98301 0.60508 0.0
C1057 C 0.41609 0.97714 0.59452 0.0
C1058 C 0.44863 0.95337 0.60631 0.0
C1059 C 0.4363 0.96974 0.60501 0.0
C1060 C 0.45653 0.9473 0.61281 0.0
C1061 C 0.4621 0.9524 0.62377 0.0
C1062 C 0.44617 0.96451 0.61084 0.0
C1063 C 0.46024 0.96427 0.62756 0.0
C1064 C 0.43253 0.97941 0.61031 0.0
C1065 C 0.42036 0.96782 0.58938 0.0
N1066 N 0.45227 0.96978 0.6212 0.0
N1067 N 0.43012 0.96433 0.59471 0.0
H1068 H 0.45328 0.11565 0.92791 0.0
H1069 H 0.41892 0.05363 0.9476 0.0
H1070 H 0.45108 0.11195 0.96154 0.0
H1071 H 0.4196 0.05766 0.91363 0.0
H1072 H 0.43401 0.07309 0.95337 0.0
H1073 H 0.44478 0.09264 0.92325 0.0
C1074 C 0.45126 0.10998 0.93439 0.0
C1075 C 0.45264 0.11586 0.94508 0.0
C1076 C 0.43102 0.0696 0.94467 0.0
C1077 C 0.44265 0.08957 0.93971 0.0
C1078 C 0.42235 0.05849 0.94135 0.0
C1079 C 0.41776 0.05411 0.93007 0.0
C1080 C 0.43519 0.07644 0.93667 0.0
C1081 C 0.42281 0.06065 0.92241 0.0
C1082 C 0.44631 0.09684 0.93169 0.0
C1083 C 0.44985 0.10795 0.9531 0.0
N1084 N 0.43112 0.0716 0.92583 0.0
N1085 N 0.4448 0.09529 0.95021 0.0
H1086 H 0.15558 0.25571 0.06991 0.0
H1087 H 0.08985 0.21948 0.04529 0.0
H1088 H 0.14413 0.2147 0.0609 0.0
H1089 H 0.0996 0.25611 0.06537 0.0
H1090 H 0.11019 0.21937 0.04775 0.0
H1091 H 0.13538 0.25765 0.06545 0.0
C1092 C 0.14882 0.24714 0.06703 0.0
C1093 C 0.1515 0.235 0.06592 0.0
C1094 C 0.10785 0.22745 0.05158 0.0
C1095 C 0.12856 0.23716 0.06062 0.0
C1096 C 0.09625 0.2275 0.0502 0.0
C1097 C 0.093 0.23772 0.05524 0.0
C1098 C 0.11627 0.23768 0.05807 0.0
C1099 C 0.1017 0.24804 0.06129 0.0
C1100 C 0.13734 0.24824 0.06449 0.0
C1101 C 0.14245 0.2242 0.06209 0.0
N1102 N 0.11294 0.24772 0.0626 0.0
N1103 N 0.13141 0.22554 0.05955 0.0
H1104 H 0.1276 0.10589 0.10667 0.0
H1105 H 0.19015 0.12911 0.10097 0.0
H1106 H 0.15115 0.08127 0.1173 0.0
H1107 H 0.17102 0.15437 0.11271 0.0
H1108 H 0.17639 0.11048 0.10446 0.0
H1109 H 0.14359 0.12289 0.10553 0.0
C1110 C 0.13618 0.10406 0.10866 0.0
C1111 C 0.1381 0.09219 0.11201 0.0
C1112 C 0.17545 0.12016 0.10647 0.0
C1113 C 0.15648 0.11166 0.11079 0.0
C1114 C 0.18322 0.13076 0.10445 0.0
C1115 C 0.18175 0.14335 0.10654 0.0
C1116 C 0.16607 0.12225 0.11034 0.0
C1117 C 0.17265 0.14492 0.11109 0.0
C1118 C 0.1453 0.11378 0.10811 0.0
C1119 C 0.14939 0.09034 0.11466 0.0
N1120 N 0.16509 0.13453 0.11266 0.0
N1121 N 0.15825 0.1 0.11391 0.0
H1122 H 0.17824 0.01056 0.33477 0.0
H1123 H 0.19848 0.95854 0.37335 0.0
H1124 H 0.15898 0.99217 0.35653 0.0
H1125 H 0.22156 0.9832 0.3584 0.0
H1126 H 0.18406 0.97123 0.36738 0.0
H1127 H 0.19451 1.00171 0.34376 0.0
C1128 C 0.17745 0.00488 0.34156 0.0
C1129 C 0.16708 1.00201 0.34477 0.0
C1130 C 0.19232 0.97406 0.36554 0.0
C1131 C 0.18568 0.99153 0.35489 0.0
C1132 C 0.20053 0.96682 0.36895 0.0
C1133 C 0.21117 0.96997 0.36642 0.0
C1134 C 0.19473 0.98448 0.35944 0.0
C1135 C 0.21344 0.98059 0.36054 0.0
C1136 C 0.18676 0.99974 0.34664 0.0
C1137 C 0.16664 0.9944 0.35354 0.0
N1138 N 0.20522 0.98746 0.35717 0.0
N1139 N 0.17573 0.98931 0.35818 0.0
H1140 H 0.33176 0.9522 0.68585 0.0
H1141 H 0.31499 0.95315 0.62008 0.0
H1142 H 0.31157 0.91918 0.66347 0.0
H1143 H 0.34033 0.9824 0.64309 0.0
H1144 H 0.31022 0.94242 0.63579 0.0
H1145 H 0.33194 0.96489 0.67019 0.0
C1146 C 0.32729 0.94769 0.67759 0.0
C1147 C 0.32171 0.93469 0.67586 0.0
C1148 C 0.31673 0.95126 0.63736 0.0
C1149 C 0.32184 0.94907 0.65787 0.0
C1150 C 0.31936 0.95747 0.62841 0.0
C1151 C 0.32823 0.96856 0.63027 0.0
C1152 C 0.32299 0.95623 0.6482 0.0
C1153 C 0.33361 0.97373 0.64125 0.0
C1154 C 0.32737 0.9549 0.66865 0.0
C1155 C 0.31601 0.92921 0.66505 0.0
N1156 N 0.33102 0.96744 0.64976 0.0
N1157 N 0.31627 0.93642 0.65641 0.0
H1158 H 0.29555 0.10323 0.89859 0.0
H1159 H 0.30511 0.03553 0.91985 0.0
H1160 H 0.28205 0.08685 0.92481 0.0
H1161 H 0.31975 0.05316 0.89483 0.0
H1162 H 0.29567 0.05367 0.92125 0.0
H1163 H 0.30343 0.08421 0.89632 0.0
C1164 C 0.29421 0.09562 0.90385 0.0
C1165 C 0.28816 0.09668 0.91193 0.0
C1166 C 0.30092 0.05355 0.91543 0.0
C1167 C 0.29717 0.07485 0.90939 0.0
C1168 C 0.30629 0.04324 0.91466 0.0
C1169 C 0.31324 0.04303 0.90729 0.0
C1170 C 0.30245 0.06356 0.90867 0.0
C1171 C 0.31453 0.05313 0.90069 0.0
C1172 C 0.29868 0.08474 0.90253 0.0
C1173 C 0.28654 0.08641 0.91839 0.0
N1174 N 0.30918 0.06299 0.90152 0.0
N1175 N 0.29108 0.07597 0.91703 0.0
H1176 H 0.70197 0.35451 0.86134 0.0
H1177 H 0.64503 0.31665 0.87414 0.0
H1178 H 0.69863 0.34951 0.89445 0.0
H1179 H 0.65145 0.3142 0.84171 0.0
H1180 H 0.66527 0.32651 0.88197 0.0
H1181 H 0.68406 0.33838 0.85407 0.0
C1182 C 0.69749 0.34995 0.86707 0.0
C1183 C 0.70173 0.35342 0.8785 0.0
C1184 C 0.66228 0.32367 0.87315 0.0
C1185 C 0.68122 0.33501 0.87028 0.0
C1186 C 0.65069 0.3179 0.86866 0.0
C1187 C 0.64637 0.31488 0.85716 0.0
C1188 C 0.66957 0.32662 0.86611 0.0
C1189 C 0.65424 0.3168 0.85056 0.0
C1190 C 0.68731 0.34068 0.86294 0.0
C1191 C 0.69568 0.34709 0.88558 0.0
N1192 N 0.66538 0.32278 0.85509 0.0
N1193 N 0.68565 0.33833 0.88135 0.0
H1194 H 0.95676 0.41057 0.21164 0.0
H1195 H 0.89757 0.36374 0.2112 0.0
H1196 H 0.94695 0.37128 0.19647 0.0
H1197 H 0.90927 0.40209 0.22833 0.0
H1198 H 0.91662 0.36504 0.20787 0.0
H1199 H 0.94058 0.40645 0.21996 0.0
C1200 C 0.9513 0.401 0.21019 0.0
C1201 C 0.9531 0.39134 0.20314 0.0
C1202 C 0.91507 0.37308 0.21253 0.0
C1203 C 0.93451 0.3865 0.21275 0.0
C1204 C 0.9042 0.37234 0.21442 0.0
C1205 C 0.9018 0.38284 0.22001 0.0
C1206 C 0.92355 0.38446 0.21615 0.0
C1207 C 0.91074 0.39371 0.22407 0.0
C1208 C 0.94206 0.39863 0.21498 0.0
C1209 C 0.94589 0.37904 0.20181 0.0
N1210 N 0.92114 0.3943 0.22193 0.0
N1211 N 0.9368 0.37703 0.20642 0.0
H1212 H 0.90547 0.6975 0.46863 0.0
H1213 H 0.85269 0.72107 0.43116 0.0
H1214 H 0.90939 0.72503 0.44505 0.0
H1215 H 0.8498 0.69206 0.45359 0.0
H1216 H 0.87371 0.72602 0.43858 0.0
H1217 H 0.8854 0.69873 0.46572 0.0
C1218 C 0.90211 0.70393 0.46293 0.0
C1219 C 0.90903 0.71101 0.45695 0.0
C1220 C 0.86845 0.71872 0.442 0.0
C1221 C 0.88601 0.71241 0.45347 0.0
C1222 C 0.85651 0.71597 0.43781 0.0
C1223 C 0.84962 0.70626 0.44189 0.0
C1224 C 0.87343 0.71147 0.45011 0.0
C1225 C 0.85486 0.69976 0.45038 0.0
C1226 C 0.89066 0.70465 0.46127 0.0
C1227 C 0.90432 0.71938 0.44981 0.0
N1228 N 0.86646 0.70236 0.45411 0.0
N1229 N 0.89303 0.7197 0.44813 0.0
H1230 H 0.92856 0.55058 0.4246 0.0
H1231 H 0.94391 0.62003 0.45901 0.0
H1232 H 0.90565 0.5655 0.44072 0.0
H1233 H 0.9582 0.61239 0.4316 0.0
H1234 H 0.93304 0.59773 0.45592 0.0
H1235 H 0.94262 0.57116 0.43057 0.0
C1236 C 0.92651 0.55809 0.42946 0.0
C1237 C 0.91589 0.55624 0.43218 0.0
C1238 C 0.93864 0.60095 0.45065 0.0
C1239 C 0.93193 0.57963 0.43908 0.0
C1240 C 0.9448 0.6137 0.45236 0.0
C1241 C 0.95185 0.61823 0.44544 0.0
C1242 C 0.93957 0.5926 0.44201 0.0
C1243 C 0.95291 0.60938 0.43717 0.0
C1244 C 0.93454 0.56979 0.43287 0.0
C1245 C 0.91378 0.56629 0.4386 0.0
N1246 N 0.94677 0.59701 0.43563 0.0
N1247 N 0.92169 0.57752 0.44178 0.0
H1248 H 0.57646 0.42577 0.79609 0.0
H1249 H 0.54862 0.3654 0.82319 0.0
H1250 H 0.56394 0.4293 0.82528 0.0
H1251 H 0.57396 0.36388 0.80477 0.0
H1252 H 0.54981 0.38806 0.8202 0.0
H1253 H 0.57089 0.4023 0.79535 0.0
C1254 C 0.57228 0.42163 0.80219 0.0
C1255 C 0.57074 0.42951 0.81082 0.0
C1256 C 0.55501 0.38272 0.81671 0.0
C1257 C 0.56452 0.40272 0.81007 0.0
C1258 C 0.55429 0.36978 0.81834 0.0
C1259 C 0.56122 0.36275 0.81423 0.0
C1260 C 0.56263 0.38868 0.81083 0.0
C1261 C 0.56854 0.36898 0.80815 0.0
C1262 C 0.56924 0.40824 0.80182 0.0
C1263 C 0.56541 0.42359 0.81857 0.0
N1264 N 0.56907 0.38162 0.80664 0.0
N1265 N 0.56256 0.41054 0.81805 0.0
H1266 H 0.5299 0.60621 0.61288 0.0
H1267 H 0.52521 0.64911 0.56211 0.0
H1268 H 0.54433 0.59947 0.58539 0.0
H1269 H 0.51574 0.6579 0.59228 0.0
H1270 H 0.52996 0.62927 0.56909 0.0
H1271 H 0.52207 0.62325 0.60385 0.0
C1272 C 0.53129 0.60816 0.60485 0.0
C1273 C 0.53783 0.60135 0.59993 0.0
C1274 C 0.52674 0.63551 0.57411 0.0
C1275 C 0.52906 0.62123 0.5896 0.0
C1276 C 0.52407 0.64686 0.57016 0.0
C1277 C 0.52008 0.65526 0.57661 0.0
C1278 C 0.52543 0.63255 0.58459 0.0
C1279 C 0.51861 0.65171 0.5869 0.0
C1280 C 0.52689 0.61801 0.59973 0.0
C1281 C 0.5395 0.60457 0.58959 0.0
N1282 N 0.52134 0.6407 0.59057 0.0
N1283 N 0.5352 0.61433 0.5848 0.0
H1284 H 0.96801 0.45407 0.10914 0.0
H1285 H 0.91613 0.48627 0.11417 0.0
H1286 H 0.95295 0.44974 0.137 0.0
H1287 H 0.9179 0.46748 0.08335 0.0
H1288 H 0.93335 0.47905 0.1236 0.0
H1289 H 0.95325 0.4653 0.10062 0.0
C1290 C 0.96168 0.45545 0.11353 0.0
C1291 C 0.96164 0.4505 0.12374 0.0
C1292 C 0.92996 0.47665 0.11475 0.0
C1293 C 0.94504 0.46402 0.11416 0.0
C1294 C 0.9201 0.48067 0.10936 0.0
C1295 C 0.9154 0.47738 0.09793 0.0
C1296 C 0.93528 0.4695 0.10866 0.0
C1297 C 0.9212 0.47042 0.09213 0.0
C1298 C 0.95332 0.462 0.10867 0.0
C1299 C 0.95345 0.45329 0.12917 0.0
N1300 N 0.9308 0.46671 0.09755 0.0
N1301 N 0.94546 0.45981 0.12429 0.0
H1302 H 0.59378 0.73853 0.53837 0.0
H1303 H 0.65114 0.73728 0.58301 0.0
H1304 H 0.59738 0.74531 0.57341 0.0
H1305 H 0.65007 0.74203 0.5488 0.0
H1306 H 0.6316 0.74088 0.57979 0.0
H1307 H 0.61462 0.74084 0.54197 0.0
C1308 C 0.59902 0.74077 0.54679 0.0
C1309 C 0.59393 0.74178 0.55561 0.0
C1310 C 0.63572 0.74133 0.57303 0.0
C1311 C 0.61763 0.74404 0.55984 0.0
C1312 C 0.64683 0.7392 0.57486 0.0
C1313 C 0.65223 0.73932 0.56616 0.0
C1314 C 0.6299 0.7434 0.5624 0.0
C1315 C 0.64629 0.74196 0.55577 0.0
C1316 C 0.61089 0.74206 0.54887 0.0
C1317 C 0.60103 0.74461 0.56639 0.0
N1318 N 0.6354 0.74374 0.55415 0.0
N1319 N 0.61251 0.74543 0.56823 0.0
H1320 H 0.64717 0.59709 0.63024 0.0
H1321 H 0.67712 0.63104 0.5864 0.0
H1322 H 0.63641 0.58582 0.59504 0.0
H1323 H 0.68586 0.64502 0.62105 0.0
H1324 H 0.66549 0.61133 0.59024 0.0
H1325 H 0.66448 0.61119 0.62776 0.0
C1326 C 0.64855 0.59733 0.62202 0.0
C1327 C 0.64016 0.59046 0.6128 0.0
C1328 C 0.6701 0.61861 0.59705 0.0
C1329 C 0.65984 0.60684 0.60989 0.0
C1330 C 0.67686 0.62985 0.59488 0.0
C1331 C 0.68238 0.63982 0.60339 0.0
C1332 C 0.66877 0.61732 0.60779 0.0
C1333 C 0.68156 0.63772 0.61418 0.0
C1334 C 0.6584 0.60549 0.6206 0.0
C1335 C 0.64246 0.59122 0.60235 0.0
N1336 N 0.67473 0.62679 0.61605 0.0
N1337 N 0.65197 0.59943 0.60117 0.0
H1338 H 0.69688 0.45157 0.85596 0.0
H1339 H 0.67842 0.51838 0.84625 0.0
H1340 H 0.72063 0.48752 0.86974 0.0
H1341 H 0.65504 0.48133 0.84211 0.0
H1342 H 0.6944 0.50816 0.85406 0.0
H1343 H 0.68192 0.46319 0.84962 0.0
C1344 C 0.69898 0.46199 0.85752 0.0
C1345 C 0.71005 0.46862 0.86323 0.0
C1346 C 0.68572 0.50238 0.85157 0.0
C1347 C 0.69278 0.48208 0.85614 0.0
C1348 C 0.6766 0.50817 0.84707 0.0
C1349 C 0.6653 0.50073 0.84349 0.0
C1350 C 0.6835 0.48907 0.85238 0.0
C1351 C 0.66349 0.48756 0.84488 0.0
C1352 C 0.69038 0.46862 0.854 0.0
C1353 C 0.71219 0.48209 0.8653 0.0
N1354 N 0.67247 0.4822 0.84912 0.0
N1355 N 0.70362 0.48844 0.86168 0.0
H1356 H 0.83473 0.44923 0.12347 0.0
H1357 H 0.81592 0.44949 0.18005 0.0
H1358 H 0.8245 0.48165 0.13718 0.0
H1359 H 0.82464 0.41697 0.16457 0.0
H1360 H 0.81649 0.46052 0.16351 0.0
H1361 H 0.82879 0.43654 0.1375 0.0
C1362 C 0.83126 0.45367 0.12952 0.0
C1363 C 0.83038 0.46656 0.1294 0.0
C1364 C 0.81815 0.45091 0.16369 0.0
C1365 C 0.82351 0.45211 0.14552 0.0
C1366 C 0.81775 0.44455 0.17311 0.0
C1367 C 0.82041 0.43233 0.17379 0.0
C1368 C 0.82129 0.44504 0.15493 0.0
C1369 C 0.82281 0.42649 0.16455 0.0
C1370 C 0.82779 0.44641 0.13748 0.0
C1371 C 0.82547 0.47177 0.13715 0.0
N1372 N 0.82331 0.43296 0.15558 0.0
N1373 N 0.82237 0.46457 0.14504 0.0
H1374 H 0.81106 0.54602 0.38945 0.0
H1375 H 0.78325 0.58814 0.42534 0.0
H1376 H 0.81423 0.54262 0.42414 0.0
H1377 H 0.79566 0.60232 0.39784 0.0
H1378 H 0.79114 0.56902 0.42339 0.0
H1379 H 0.80209 0.56444 0.39089 0.0
C1380 C 0.80979 0.54915 0.39736 0.0
C1381 C 0.81337 0.54289 0.4067 0.0
C1382 C 0.7921 0.57631 0.41778 0.0
C1383 C 0.80305 0.56377 0.40837 0.0
C1384 C 0.78751 0.58715 0.4188 0.0
C1385 C 0.78877 0.59682 0.41172 0.0
C1386 C 0.79785 0.57501 0.4095 0.0
C1387 C 0.79454 0.59513 0.4035 0.0
C1388 C 0.80473 0.55966 0.39818 0.0
C1389 C 0.8116 0.54728 0.41677 0.0
N1390 N 0.79882 0.58439 0.40258 0.0
N1391 N 0.80648 0.55743 0.41734 0.0
H1392 H 0.03179 0.29371 0.1013 0.0
H1393 H 0.99705 0.34741 0.1113 0.0
H1394 H 1.0 0.29707 0.07912 0.0
H1395 H 0.0269 0.34155 0.13514 0.0
H1396 H 0.99917 0.33048 0.09856 0.0
H1397 H 0.03116 0.31253 0.11302 0.0
C1398 C 0.02479 0.29857 0.0988 0.0
C1399 C 0.01598 0.29392 0.0892 0.0
C1400 C 0.00528 0.33294 0.10656 0.0
C1401 C 0.01511 0.31533 0.10261 0.0
C1402 C 1.00416 0.34272 0.11382 0.0
C1403 C 0.01181 0.34596 0.12436 0.0
C1404 C 0.01411 0.32629 0.10984 0.0
C1405 C 0.0207 0.3393 0.12718 0.0
C1406 C 0.02438 0.30923 0.10554 0.0
C1407 C 0.00695 0.30036 0.08647 0.0
N1408 N 0.02157 0.32975 0.11999 0.0
N1409 N 0.00674 0.31074 0.09316 0.0
H1410 H 0.04786 0.73708 0.37502 0.0
H1411 H 0.00774 0.74826 0.41469 0.0
H1412 H 0.03621 0.77233 0.37892 0.0
H1413 H 0.02458 0.71626 0.41581 0.0
H1414 H 0.01703 0.7564 0.40059 0.0
H1415 H 0.03812 0.72841 0.38874 0.0
C1416 C 0.04325 0.74302 0.37871 0.0
C1417 C 0.04301 0.75557 0.37583 0.0
C1418 C 0.01875 0.74763 0.40394 0.0
C1419 C 0.03163 0.74552 0.39145 0.0
C1420 C 0.01353 0.74302 0.41209 0.0
C1421 C 0.01548 0.73162 0.41657 0.0
C1422 C 0.02595 0.74078 0.40011 0.0
C1423 C 0.02279 0.72505 0.41257 0.0
C1424 C 0.03766 0.73802 0.38653 0.0
C1425 C 0.03659 0.76259 0.38072 0.0
N1426 N 0.02777 0.72973 0.40456 0.0
N1427 N 0.0312 0.75749 0.3883 0.0
H1428 H 0.51676 0.78016 0.60654 0.0
H1429 H 0.50694 0.85216 0.60798 0.0
H1430 H 0.51237 0.80181 0.57821 0.0
H1431 H 0.51145 0.83149 0.63689 0.0
H1432 H 0.50875 0.83352 0.59706 0.0
H1433 H 0.51397 0.79825 0.61768 0.0
C1434 C 0.51508 0.78862 0.6026 0.0
C1435 C 0.51489 0.78943 0.59139 0.0
C1436 C 0.50937 0.83303 0.60579 0.0
C1437 C 0.51199 0.81032 0.60422 0.0
C1438 C 0.50845 0.84375 0.61209 0.0
C1439 C 0.50918 0.8435 0.62345 0.0
C1440 C 0.51095 0.82184 0.6108 0.0
C1441 C 0.51078 0.83212 0.62817 0.0
C1442 C 0.51361 0.79901 0.60902 0.0
C1443 C 0.51284 0.80077 0.58685 0.0
N1444 N 0.51163 0.82174 0.62183 0.0
N1445 N 0.51155 0.81076 0.59328 0.0
H1446 H 0.52676 0.24165 0.92898 0.0
H1447 H 0.52747 0.248 0.86547 0.0
H1448 H 0.50117 0.21857 0.90166 0.0
H1449 H 0.55658 0.26376 0.89295 0.0
H1450 H 0.51683 0.23864 0.87853 0.0
H1451 H 0.53702 0.25159 0.91585 0.0
C1452 C 0.52327 0.23882 0.9202 0.0
C1453 C 0.51309 0.22945 0.91632 0.0
C1454 C 0.52554 0.24417 0.88169 0.0
C1455 C 0.52472 0.24057 0.90129 0.0
C1456 C 0.53158 0.24955 0.87425 0.0
C1457 C 0.54291 0.25664 0.87815 0.0
C1458 C 0.53083 0.2461 0.89311 0.0
C1459 C 0.54788 0.25827 0.8896 0.0
C1460 C 0.52913 0.2444 0.91271 0.0
C1461 C 0.50895 0.2259 0.9049 0.0
N1462 N 0.54181 0.2531 0.89667 0.0
N1463 N 0.51476 0.23147 0.89778 0.0
H1464 H 0.07003 0.01821 0.2403 0.0
H1465 H 0.10461 0.04039 0.19553 0.0
H1466 H 0.10705 0.0274 0.24699 0.0
H1467 H 0.06776 0.02723 0.18728 0.0
H1468 H 0.10541 0.03683 0.21468 0.0
H1469 H 0.06883 0.02266 0.22122 0.0
C1470 C 0.07793 0.02118 0.23782 0.0
C1471 C 0.08868 0.02226 0.24535 0.0
C1472 C 0.09713 0.03468 0.20871 0.0
C1473 C 0.0873 0.02769 0.22346 0.0
C1474 C 0.09667 0.03662 0.19774 0.0
C1475 C 0.08611 0.03395 0.18974 0.0
C1476 C 0.08695 0.03007 0.21183 0.0
C1477 C 0.07608 0.02944 0.19318 0.0
C1478 C 0.07721 0.02379 0.2269 0.0
C1479 C 0.09856 0.02653 0.24162 0.0
N1480 N 0.07675 0.02759 0.20397 0.0
N1481 N 0.09762 0.02903 0.23095 0.0
H1482 H 0.28478 0.96922 0.45471 0.0
H1483 H 0.33038 0.96084 0.50982 0.0
H1484 H 0.30008 0.93608 0.45807 0.0
H1485 H 0.30974 0.98948 0.50726 0.0
H1486 H 0.32156 0.95322 0.49025 0.0
H1487 H 0.29569 0.97796 0.4734 0.0
C1488 C 0.29053 0.96381 0.45938 0.0
C1489 C 0.29157 0.95193 0.45481 0.0
C1490 C 0.31901 0.96119 0.49399 0.0
C1491 C 0.30412 0.9619 0.47635 0.0
C1492 C 0.32413 0.96566 0.50513 0.0
C1493 C 0.32071 0.97574 0.51028 0.0
C1494 C 0.31045 0.96687 0.48794 0.0
C1495 C 0.31249 0.98151 0.50376 0.0
C1496 C 0.29673 0.96879 0.47009 0.0
C1497 C 0.299 0.94525 0.46132 0.0
N1498 N 0.30761 0.97695 0.49299 0.0
N1499 N 0.30503 0.95035 0.47178 0.0
H1500 H 0.35979 0.97195 0.83748 0.0
H1501 H 0.3365 0.90621 0.79808 0.0
H1502 H 0.33992 0.93874 0.84754 0.0
H1503 H 0.3468 0.94329 0.78685 0.0
H1504 H 0.33818 0.91708 0.81638 0.0
H1505 H 0.3557 0.96078 0.81905 0.0
C1506 C 0.3545 0.96228 0.83576 0.0
C1507 C 0.35022 0.95624 0.84403 0.0
C1508 C 0.3399 0.9228 0.80984 0.0
C1509 C 0.34548 0.94329 0.82286 0.0
C1510 C 0.33901 0.91662 0.79941 0.0
C1511 C 0.3415 0.92383 0.79085 0.0
C1512 C 0.34342 0.93627 0.81175 0.0
C1513 C 0.34462 0.93729 0.79306 0.0
C1514 C 0.35213 0.95591 0.82521 0.0
C1515 C 0.34333 0.94373 0.84134 0.0
N1516 N 0.34557 0.94303 0.80328 0.0
N1517 N 0.34126 0.93757 0.83098 0.0
H1518 H 0.23464 0.17571 0.02597 0.0
H1519 H 0.25849 0.21022 0.97845 0.0
H1520 H 0.24098 0.21689 0.02493 0.0
H1521 H 0.25418 0.16946 0.98166 0.0
H1522 H 0.25124 0.21293 0.99476 0.0
H1523 H 0.24087 0.17338 0.00909 0.0
C1524 C 0.23744 0.1843 0.02222 0.0
C1525 C 0.23744 0.19654 0.02696 0.0
C1526 C 0.2518 0.20339 0.99183 0.0
C1527 C 0.24444 0.1939 0.00743 0.0
C1528 C 0.25601 0.20181 0.98253 0.0
C1529 C 0.25707 0.18958 0.97864 0.0
C1530 C 0.24851 0.19264 0.99725 0.0
C1531 C 0.25342 0.17905 0.98418 0.0
C1532 C 0.24093 0.18294 0.01252 0.0
C1533 C 0.24085 0.20728 0.02155 0.0
N1534 N 0.24935 0.18085 0.9932 0.0
N1535 N 0.24427 0.20572 0.01208 0.0
H1536 H 0.77815 0.43925 0.96175 0.0
H1537 H 0.83384 0.48461 1.00289 0.0
H1538 H 0.80674 0.45965 0.95055 0.0
H1539 H 0.80381 0.46554 0.01255 0.0
H1540 H 0.82473 0.47496 0.98377 0.0
H1541 H 0.78831 0.44778 0.98064 0.0
C1542 C 0.78664 0.44535 0.96325 0.0
C1543 C 0.79156 0.44869 0.95448 0.0
C1544 C 0.82016 0.47292 0.99009 0.0
C1545 C 0.80317 0.45888 0.9762 0.0
C1546 C 0.82536 0.47839 1.00098 0.0
C1547 C 0.81952 0.47595 0.00926 0.0
C1548 C 0.80913 0.46486 0.98758 0.0
C1549 C 0.80853 0.46786 0.00638 0.0
C1550 C 0.7924 0.45037 0.97406 0.0
C1551 C 0.80252 0.45693 0.95701 0.0
N1552 N 0.80371 0.46262 0.9958 0.0
N1553 N 0.80793 0.4618 0.96763 0.0
H1554 H 0.8345 0.43797 0.28548 0.0
H1555 H 0.85964 0.43941 0.35026 0.0
H1556 H 0.84946 0.40781 0.3007 0.0
H1557 H 0.837 0.46386 0.33634 0.0
H1558 H 0.85581 0.42772 0.33203 0.0
H1559 H 0.83462 0.44726 0.30381 0.0
C1560 C 0.83768 0.43318 0.2926 0.0
C1561 C 0.8422 0.42218 0.29144 0.0
C1562 C 0.85154 0.43553 0.33297 0.0
C1563 C 0.84263 0.43304 0.31253 0.0
C1564 C 0.85378 0.44227 0.34339 0.0
C1565 C 0.84874 0.45276 0.34486 0.0
C1566 C 0.84423 0.43927 0.32386 0.0
C1567 C 0.84106 0.45583 0.33563 0.0
C1568 C 0.83782 0.43857 0.30309 0.0
C1569 C 0.84626 0.41654 0.30109 0.0
N1570 N 0.83913 0.44922 0.32551 0.0
N1571 N 0.84653 0.42211 0.31118 0.0
H1572 H 0.73209 0.67588 0.52551 0.0
H1573 H 0.7617 0.71092 0.48152 0.0
H1574 H 0.74246 0.71721 0.52711 0.0
H1575 H 0.74941 0.66977 0.47981 0.0
H1576 H 0.75449 0.71368 0.49786 0.0
H1577 H 0.73821 0.67377 0.50853 0.0
C1578 C 0.73574 0.68454 0.52231 0.0
C1579 C 0.73688 0.69674 0.52781 0.0
C1580 C 0.75328 0.70406 0.49384 0.0
C1581 C 0.74382 0.69439 0.50818 0.0
C1582 C 0.75746 0.70244 0.48452 0.0
C1583 C 0.7563 0.69004 0.47927 0.0
C1584 C 0.74783 0.69323 0.49794 0.0
C1585 C 0.75045 0.67951 0.48345 0.0
C1586 C 0.73916 0.68332 0.51255 0.0
C1587 C 0.74142 0.70762 0.52313 0.0
N1588 N 0.74651 0.68135 0.49255 0.0
N1589 N 0.7448 0.70619 0.5136 0.0
H1590 H 0.59359 0.51731 0.68871 0.0
H1591 H 0.57671 0.53296 0.74488 0.0
H1592 H 0.57638 0.5481 0.69323 0.0
H1593 H 0.6033 0.51264 0.74268 0.0
H1594 H 0.57449 0.53677 0.72541 0.0
H1595 H 0.59502 0.51343 0.70791 0.0
C1596 C 0.5901 0.52328 0.6937 0.0
C1597 C 0.58503 0.53323 0.68929 0.0
C1598 C 0.58085 0.53155 0.72923 0.0
C1599 C 0.58642 0.52855 0.71134 0.0
C1600 C 0.58212 0.52937 0.74032 0.0
C1601 C 0.59025 0.52253 0.74542 0.0
C1602 C 0.58765 0.52671 0.72318 0.0
C1603 C 0.59705 0.51812 0.73914 0.0
C1604 C 0.5909 0.521 0.70468 0.0
C1605 C 0.58031 0.54028 0.69616 0.0
N1606 N 0.59555 0.52021 0.72833 0.0
N1607 N 0.58115 0.53783 0.70685 0.0
loop_
_geom_bond_atom_site_label_1
_geom_bond_atom_site_label_2
_geom_bond_distance
_geom_bond_site_symmetry_2
_ccdc_geom_bond_type
C0 C1 1.264 . S
C0 C5 1.479 . S
C0 C10 1.465 . S
C1 C0 1.264 . S
C1 C3 1.339 . S
C1 H28 0.931 . S
C2 C3 1.395 . S
C2 C4 1.320 . S
C3 C1 1.339 . S
C3 C2 1.395 . S
C3 H29 0.929 . S
C4 C2 1.320 . S
C4 C5 1.405 . S
C4 H30 0.930 1_455 S
C5 C0 1.479 . S
C5 C4 1.405 . S
C5 H31 0.874 1_455 S
U6 O7 2.454 . S
U6 O8 2.458 . S
U6 C9 2.984 . S
U6 C10 2.847 . S
U6 C23 2.882 . S
U6 O24 2.441 . S
U6 O25 2.420 . S
U6 O26 2.455 . S
U6 O27 2.449 . S
O7 U6 2.454 . S
O7 C9 1.353 . S
O8 U6 2.458 . S
O8 C9 1.286 . S
C9 U6 2.984 . S
C9 O7 1.353 . S
C9 O8 1.286 . S
C9 C11 1.363 . S
C10 C0 1.465 . S
C10 U6 2.847 . S
C10 O24 1.249 . S
C10 O25 1.202 . S
C11 C9 1.363 . S
C11 C13 1.440 . S
C11 C16 1.342 . S
C12 C13 1.288 1_655 S
C12 C15 1.440 1_655 S
C12 H32 0.932 . S
C13 C11 1.440 . S
C13 C12 1.288 1_455 S
C13 H33 0.921 1_455 S
C14 C15 1.563 . S
C14 C16 1.285 . S
C14 H34 0.929 . S
C15 C12 1.440 1_455 S
C15 C14 1.563 . S
C16 C11 1.342 . S
C16 C14 1.285 . S
C16 H35 0.930 . S
C17 C20 1.424 . S
C17 C22 1.245 . S
C17 C23 1.428 . S
C18 C21 1.260 . S
C18 C22 1.477 . S
C18 H36 0.932 . S
C19 C20 1.384 . S
C19 C21 1.479 . S
C19 H37 0.929 . S
C20 C17 1.424 . S
C20 C19 1.384 . S
C20 H38 0.928 . S
C21 C18 1.260 . S
C21 C19 1.479 . S
C22 C17 1.245 . S
C22 C18 1.477 . S
C22 H39 0.932 . S
C23 U6 2.882 . S
C23 C17 1.428 . S
C23 O26 1.301 . S
C23 O27 1.282 . S
O24 U6 2.441 . S
O24 C10 1.249 . S
O25 U6 2.420 . S
O25 C10 1.202 . S
O26 U6 2.455 . S
O26 C23 1.301 . S
O27 U6 2.449 . S
O27 C23 1.282 . S
H28 C1 0.931 . S
H29 C3 0.929 . S
H30 C4 0.930 1_655 S
H31 C5 0.874 1_655 S
H32 C12 0.932 . S
H33 C13 0.921 1_655 S
H34 C14 0.929 . S
H35 C16 0.930 . S
H36 C18 0.932 . S
H37 C19 0.929 . S
H38 C20 0.928 . S
H39 C22 0.932 . S
C40 C41 1.264 . S
C40 C45 1.479 . S
C40 C50 1.465 . S
C41 C40 1.264 . S
C41 C43 1.339 . S
C41 H68 0.931 . S
C42 C43 1.395 . S
C42 C44 1.320 . S
C43 C41 1.339 . S
C43 C42 1.395 . S
C43 H69 0.929 . S
C44 C42 1.320 . S
C44 C45 1.405 . S
C44 H70 0.930 . S
C45 C40 1.479 . S
C45 C44 1.405 . S
C45 H71 0.931 . S
U46 O47 2.454 . S
U46 O48 2.458 . S
U46 C49 2.984 . S
U46 C50 2.847 . S
U46 C63 2.882 . S
U46 O64 2.441 . S
U46 O65 2.420 . S
U46 O66 2.455 . S
U46 O67 2.449 . S
O47 U46 2.454 . S
O47 C49 1.353 . S
O48 U46 2.458 . S
O48 C49 1.286 . S
C49 U46 2.984 . S
C49 O47 1.353 . S
C49 O48 1.286 . S
C49 C51 1.363 . S
C50 C40 1.465 . S
C50 U46 2.847 . S
C50 O64 1.249 . S
C50 O65 1.202 . S
C51 C49 1.363 . S
C51 C53 1.408 . S
C51 C56 1.342 . S
C52 C53 1.310 . S
C52 C55 1.461 . S
C52 H72 0.932 . S
C53 C51 1.408 . S
C53 C52 1.310 . S
C53 H73 0.930 . S
C54 C55 1.474 . S
C54 C56 1.285 . S
C54 H74 0.929 . S
C55 C52 1.461 . S
C55 C54 1.474 . S
C56 C51 1.342 . S
C56 C54 1.285 . S
C56 H75 0.930 . S
C57 C60 1.424 . S
C57 C62 1.245 . S
C57 C63 1.428 . S
C58 C61 1.260 . S
C58 C62 1.477 . S
C58 H76 0.932 . S
C59 C60 1.384 . S
C59 C61 1.479 . S
C59 H77 0.929 . S
C60 C57 1.424 . S
C60 C59 1.384 . S
C60 H78 0.928 . S
C61 C58 1.260 . S
C61 C59 1.479 . S
C62 C57 1.245 . S
C62 C58 1.477 . S
C62 H79 0.932 . S
C63 U46 2.882 . S
C63 C57 1.428 . S
C63 O66 1.301 . S
C63 O67 1.282 . S
O64 U46 2.441 . S
O64 C50 1.249 . S
O65 U46 2.420 . S
O65 C50 1.202 . S
O66 U46 2.455 . S
O66 C63 1.301 . S
O67 U46 2.449 . S
O67 C63 1.282 . S
H68 C41 0.931 . S
H69 C43 0.929 . S
H70 C44 0.930 . S
H71 C45 0.931 . S
H72 C52 0.932 . S
H73 C53 0.930 . S
H74 C54 0.929 . S
H75 C56 0.930 . S
H76 C58 0.932 . S
H77 C59 0.929 . S
H78 C60 0.928 . S
H79 C62 0.932 . S
C80 C81 1.264 . S
C80 C85 1.479 . S
C80 C90 1.465 . S
C81 C80 1.264 . S
C81 C83 1.339 . S
C81 H108 0.931 . S
C82 C83 1.395 . S
C82 C84 1.320 . S
C83 C81 1.339 . S
C83 C82 1.395 . S
C83 H109 0.929 . S
C84 C82 1.320 . S
C84 C85 1.405 . S
C84 H110 0.930 . S
C85 C80 1.479 . S
C85 C84 1.405 . S
C85 H111 0.931 . S
U86 O87 2.454 . S
U86 O88 2.458 . S
U86 C89 2.984 . S
U86 C90 2.847 . S
U86 C103 2.882 . S
U86 O104 2.441 . S
U86 O105 2.420 . S
U86 O106 2.455 . S
U86 O107 2.449 . S
O87 U86 2.454 . S
O87 C89 1.353 . S
O88 U86 2.458 . S
O88 C89 1.286 . S
C89 U86 2.984 . S
C89 O87 1.353 . S
C89 O88 1.286 . S
C89 C91 1.363 . S
C90 C80 1.465 . S
C90 U86 2.847 . S
C90 O104 1.249 . S
C90 O105 1.202 . S
C91 C89 1.363 . S
C91 C93 1.408 . S
C91 C96 1.342 . S
C92 C93 1.310 . S
C92 C95 1.461 . S
C92 H112 0.932 . S
C93 C91 1.408 . S
C93 C92 1.310 . S
C93 H113 0.930 . S
C94 C95 1.474 . S
C94 C96 1.285 . S
C94 H114 0.929 . S
C95 C92 1.461 . S
C95 C94 1.474 . S
C96 C91 1.342 . S
C96 C94 1.285 . S
C96 H115 0.930 . S
C97 C100 1.424 . S
C97 C102 1.245 . S
C97 C103 1.428 . S
C98 C101 1.260 . S
C98 C102 1.477 . S
C98 H116 0.932 . S
C99 C100 1.384 . S
C99 C101 1.479 . S
C99 H117 0.929 . S
C100 C97 1.424 . S
C100 C99 1.384 . S
C100 H118 0.928 . S
C101 C98 1.260 . S
C101 C99 1.479 . S
C102 C97 1.245 . S
C102 C98 1.477 . S
C102 H119 0.932 . S
C103 U86 2.882 . S
C103 C97 1.428 . S
C103 O106 1.301 . S
C103 O107 1.282 . S
O104 U86 2.441 . S
O104 C90 1.249 . S
O105 U86 2.420 . S
O105 C90 1.202 . S
O106 U86 2.455 . S
O106 C103 1.301 . S
O107 U86 2.449 . S
O107 C103 1.282 . S
H108 C81 0.931 . S
H109 C83 0.929 . S
H110 C84 0.930 . S
H111 C85 0.931 . S
H112 C92 0.932 . S
H113 C93 0.930 . S
H114 C94 0.929 . S
H115 C96 0.930 . S
H116 C98 0.932 . S
H117 C99 0.929 . S
H118 C100 0.928 . S
H119 C102 0.932 . S
C120 C121 1.264 . S
C120 C125 1.479 . S
C120 C130 1.465 . S
C121 C120 1.264 . S
C121 C123 1.339 . S
C121 H148 0.931 . S
C122 C123 1.395 . S
C122 C124 1.320 . S
C123 C121 1.339 . S
C123 C122 1.395 . S
C123 H149 0.929 . S
C124 C122 1.320 . S
C124 C125 1.405 . S
C124 H150 0.930 . S
C125 C120 1.479 . S
C125 C124 1.405 . S
C125 H151 0.931 . S
U126 O127 2.454 . S
U126 O128 2.458 . S
U126 C129 2.984 . S
U126 C130 2.847 . S
U126 C143 2.882 . S
U126 O144 2.441 . S
U126 O145 2.420 . S
U126 O146 2.455 . S
U126 O147 2.449 . S
O127 U126 2.454 . S
O127 C129 1.353 . S
O128 U126 2.458 . S
O128 C129 1.286 . S
C129 U126 2.984 . S
C129 O127 1.353 . S
C129 O128 1.286 . S
C129 C131 1.363 . S
C130 C120 1.465 . S
C130 U126 2.847 . S
C130 O144 1.249 . S
C130 O145 1.202 . S
C131 C129 1.363 . S
C131 C133 1.408 . S
C131 C136 1.342 . S
C132 C133 1.310 . S
C132 C135 1.461 . S
C132 H152 0.932 . S
C133 C131 1.408 . S
C133 C132 1.310 . S
C133 H153 0.930 . S
C134 C135 1.474 . S
C134 C136 1.285 . S
C134 H154 0.929 . S
C135 C132 1.461 . S
C135 C134 1.474 . S
C136 C131 1.342 . S
C136 C134 1.285 . S
C136 H155 0.930 . S
C137 C140 1.424 . S
C137 C142 1.245 . S
C137 C143 1.428 . S
C138 C141 1.260 . S
C138 C142 1.477 . S
C138 H156 0.932 . S
C139 C140 1.384 . S
C139 C141 1.479 . S
C139 H157 0.929 . S
C140 C137 1.424 . S
C140 C139 1.384 . S
C140 H158 0.928 . S
C141 C138 1.260 . S
C141 C139 1.479 . S
C142 C137 1.245 . S
C142 C138 1.477 . S
C142 H159 0.932 . S
C143 U126 2.882 . S
C143 C137 1.428 . S
C143 O146 1.301 . S
C143 O147 1.282 . S
O144 U126 2.441 . S
O144 C130 1.249 . S
O145 U126 2.420 . S
O145 C130 1.202 . S
O146 U126 2.455 . S
O146 C143 1.301 . S
O147 U126 2.449 . S
O147 C143 1.282 . S
H148 C121 0.931 . S
H149 C123 0.929 . S
H150 C124 0.930 . S
H151 C125 0.931 . S
H152 C132 0.932 . S
H153 C133 0.930 . S
H154 C134 0.929 . S
H155 C136 0.930 . S
H156 C138 0.932 . S
H157 C139 0.929 . S
H158 C140 0.928 . S
H159 C142 0.932 . S
C160 C161 1.264 . S
C160 C165 1.479 . S
C160 C170 1.465 . S
C161 C160 1.264 . S
C161 C163 1.339 . S
C161 H188 0.931 . S
C162 C163 1.395 . S
C162 C164 1.320 . S
C163 C161 1.339 . S
C163 C162 1.395 . S
C163 H189 0.929 . S
C164 C162 1.320 . S
C164 C165 1.405 . S
C164 H190 0.930 . S
C165 C160 1.479 . S
C165 C164 1.405 . S
C165 H191 0.931 . S
U166 O167 2.454 . S
U166 O168 2.458 . S
U166 C169 2.984 . S
U166 C170 2.847 . S
U166 C183 2.882 . S
U166 O184 2.441 . S
U166 O185 2.420 . S
U166 O186 2.455 . S
U166 O187 2.449 . S
O167 U166 2.454 . S
O167 C169 1.353 . S
O168 U166 2.458 . S
O168 C169 1.286 . S
C169 U166 2.984 . S
C169 O167 1.353 . S
C169 O168 1.286 . S
C169 C171 1.363 . S
C170 C160 1.465 . S
C170 U166 2.847 . S
C170 O184 1.249 . S
C170 O185 1.202 . S
C171 C169 1.363 . S
C171 C173 1.408 . S
C171 C176 1.342 . S
C172 C173 1.310 . S
C172 C175 1.461 . S
C172 H192 0.932 . S
C173 C171 1.408 . S
C173 C172 1.310 . S
C173 H193 0.930 . S
C174 C175 1.474 . S
C174 C176 1.285 . S
C174 H194 0.929 . S
C175 C172 1.461 . S
C175 C174 1.474 . S
C176 C171 1.342 . S
C176 C174 1.285 . S
C176 H195 0.930 . S
C177 C180 1.424 . S
C177 C182 1.245 . S
C177 C183 1.428 . S
C178 C181 1.260 . S
C178 C182 1.477 . S
C178 H196 0.932 . S
C179 C180 1.384 . S
C179 C181 1.479 . S
C179 H197 0.929 . S
C180 C177 1.424 . S
C180 C179 1.384 . S
C180 H198 0.928 . S
C181 C178 1.260 . S
C181 C179 1.479 . S
C182 C177 1.245 . S
C182 C178 1.477 . S
C182 H199 0.932 . S
C183 U166 2.882 . S
C183 C177 1.428 . S
C183 O186 1.301 . S
C183 O187 1.282 . S
O184 U166 2.441 . S
O184 C170 1.249 . S
O185 U166 2.420 . S
O185 C170 1.202 . S
O186 U166 2.455 . S
O186 C183 1.301 . S
O187 U166 2.449 . S
O187 C183 1.282 . S
H188 C161 0.931 . S
H189 C163 0.929 . S
H190 C164 0.930 . S
H191 C165 0.931 . S
H192 C172 0.932 . S
H193 C173 0.930 . S
H194 C174 0.929 . S
H195 C176 0.930 . S
H196 C178 0.932 . S
H197 C179 0.929 . S
H198 C180 0.928 . S
H199 C182 0.932 . S
C200 C201 1.264 . S
C200 C205 1.479 . S
C200 C210 1.465 . S
C201 C200 1.264 . S
C201 C203 1.339 . S
C201 H228 0.931 . S
C202 C203 1.395 . S
C202 C204 1.320 . S
C203 C201 1.339 . S
C203 C202 1.395 . S
C203 H229 0.929 . S
C204 C202 1.320 . S
C204 C205 1.405 . S
C204 H230 0.930 . S
C205 C200 1.479 . S
C205 C204 1.405 . S
C205 H231 0.931 . S
U206 O207 2.454 . S
U206 O208 2.458 . S
U206 C209 2.984 . S
U206 C210 2.847 . S
U206 C223 2.882 . S
U206 O224 2.441 . S
U206 O225 2.420 . S
U206 O226 2.455 . S
U206 O227 2.449 . S
O207 U206 2.454 . S
O207 C209 1.353 . S
O208 U206 2.458 . S
O208 C209 1.286 . S
C209 U206 2.984 . S
C209 O207 1.353 . S
C209 O208 1.286 . S
C209 C211 1.363 . S
C210 C200 1.465 . S
C210 U206 2.847 . S
C210 O224 1.249 . S
C210 O225 1.202 . S
C211 C209 1.363 . S
C211 C213 1.408 . S
C211 C216 1.342 . S
C212 C213 1.310 . S
C212 C215 1.461 . S
C212 H232 0.932 . S
C213 C211 1.408 . S
C213 C212 1.310 . S
C213 H233 0.930 . S
C214 C215 1.474 . S
C214 C216 1.285 . S
C214 H234 0.929 . S
C215 C212 1.461 . S
C215 C214 1.474 . S
C216 C211 1.342 . S
C216 C214 1.285 . S
C216 H235 0.930 . S
C217 C220 1.424 . S
C217 C222 1.245 . S
C217 C223 1.428 . S
C218 C221 1.260 . S
C218 C222 1.477 . S
C218 H236 0.932 . S
C219 C220 1.384 . S
C219 C221 1.479 . S
C219 H237 0.929 . S
C220 C217 1.424 . S
C220 C219 1.384 . S
C220 H238 0.928 . S
C221 C218 1.260 . S
C221 C219 1.479 . S
C222 C217 1.245 . S
C222 C218 1.477 . S
C222 H239 0.932 . S
C223 U206 2.882 . S
C223 C217 1.428 . S
C223 O226 1.301 . S
C223 O227 1.282 . S
O224 U206 2.441 . S
O224 C210 1.249 . S
O225 U206 2.420 . S
O225 C210 1.202 . S
O226 U206 2.455 . S
O226 C223 1.301 . S
O227 U206 2.449 . S
O227 C223 1.282 . S
H228 C201 0.931 . S
H229 C203 0.929 . S
H230 C204 0.930 . S
H231 C205 0.931 . S
H232 C212 0.932 . S
H233 C213 0.930 . S
H234 C214 0.929 . S
H235 C216 0.930 . S
H236 C218 0.932 . S
H237 C219 0.929 . S
H238 C220 0.928 . S
H239 C222 0.932 . S
C240 C241 1.264 . S
C240 C245 1.479 . S
C240 C250 1.465 . S
C241 C240 1.264 . S
C241 C243 1.339 . S
C241 H268 0.931 . S
C242 C243 1.395 . S
C242 C244 1.320 . S
C243 C241 1.339 . S
C243 C242 1.395 . S
C243 H269 0.929 . S
C244 C242 1.320 . S
C244 C245 1.405 . S
C244 H270 0.930 . S
C245 C240 1.479 . S
C245 C244 1.405 . S
C245 H271 0.931 . S
U246 O247 2.454 . S
U246 O248 2.458 . S
U246 C249 2.984 . S
U246 C250 2.847 . S
U246 C263 2.882 . S
U246 O264 2.441 . S
U246 O265 2.420 . S
U246 O266 2.455 . S
U246 O267 2.449 . S
O247 U246 2.454 . S
O247 C249 1.353 . S
O248 U246 2.458 . S
O248 C249 1.286 . S
C249 U246 2.984 . S
C249 O247 1.353 . S
C249 O248 1.286 . S
C249 C251 1.363 . S
C250 C240 1.465 . S
C250 U246 2.847 . S
C250 O264 1.249 . S
C250 O265 1.202 . S
C251 C249 1.363 . S
C251 C253 1.408 . S
C251 C256 1.342 . S
C252 C253 1.310 . S
C252 C255 1.461 . S
C252 H272 0.932 . S
C253 C251 1.408 . S
C253 C252 1.310 . S
C253 H273 0.930 . S
C254 C255 1.474 . S
C254 C256 1.285 . S
C254 H274 0.929 . S
C255 C252 1.461 . S
C255 C254 1.474 . S
C256 C251 1.342 . S
C256 C254 1.285 . S
C256 H275 0.930 . S
C257 C260 1.424 . S
C257 C262 1.245 . S
C257 C263 1.428 . S
C258 C261 1.260 . S
C258 C262 1.477 . S
C258 H276 0.932 . S
C259 C260 1.384 . S
C259 C261 1.479 . S
C259 H277 0.929 . S
C260 C257 1.424 . S
C260 C259 1.384 . S
C260 H278 0.928 . S
C261 C258 1.260 . S
C261 C259 1.479 . S
C262 C257 1.245 . S
C262 C258 1.477 . S
C262 H279 0.932 . S
C263 U246 2.882 . S
C263 C257 1.428 . S
C263 O266 1.301 . S
C263 O267 1.282 . S
O264 U246 2.441 . S
O264 C250 1.249 . S
O265 U246 2.420 . S
O265 C250 1.202 . S
O266 U246 2.455 . S
O266 C263 1.301 . S
O267 U246 2.449 . S
O267 C263 1.282 . S
H268 C241 0.931 . S
H269 C243 0.929 . S
H270 C244 0.930 . S
H271 C245 0.931 . S
H272 C252 0.932 . S
H273 C253 0.930 . S
H274 C254 0.929 . S
H275 C256 0.930 . S
H276 C258 0.932 . S
H277 C259 0.929 . S
H278 C260 0.928 . S
H279 C262 0.932 . S
C280 C281 1.264 . S
C280 C285 1.479 . S
C280 C290 1.465 . S
C281 C280 1.264 . S
C281 C283 1.339 . S
C281 H308 0.931 . S
C282 C283 1.395 . S
C282 C284 1.320 . S
C283 C281 1.339 . S
C283 C282 1.395 . S
C283 H309 0.929 . S
C284 C282 1.320 . S
C284 C285 1.405 . S
C284 H310 0.930 . S
C285 C280 1.479 . S
C285 C284 1.405 . S
C285 H311 0.931 . S
U286 O287 2.454 . S
U286 O288 2.458 . S
U286 C289 2.984 . S
U286 C290 2.847 . S
U286 C303 2.882 . S
U286 O304 2.441 . S
U286 O305 2.420 . S
U286 O306 2.455 . S
U286 O307 2.449 . S
O287 U286 2.454 . S
O287 C289 1.353 . S
O288 U286 2.458 . S
O288 C289 1.286 . S
C289 U286 2.984 . S
C289 O287 1.353 . S
C289 O288 1.286 . S
C289 C291 1.363 . S
C290 C280 1.465 . S
C290 U286 2.847 . S
C290 O304 1.249 . S
C290 O305 1.202 . S
C291 C289 1.363 . S
C291 C293 1.408 . S
C291 C296 1.342 . S
C292 C293 1.310 . S
C292 C295 1.461 . S
C292 H312 0.932 . S
C293 C291 1.408 . S
C293 C292 1.310 . S
C293 H313 0.930 . S
C294 C295 1.474 . S
C294 C296 1.285 . S
C294 H314 0.929 . S
C295 C292 1.461 . S
C295 C294 1.474 . S
C296 C291 1.342 . S
C296 C294 1.285 . S
C296 H315 0.930 . S
C297 C300 1.424 . S
C297 C302 1.245 . S
C297 C303 1.428 . S
C298 C301 1.260 . S
C298 C302 1.477 . S
C298 H316 0.932 . S
C299 C300 1.384 . S
C299 C301 1.479 . S
C299 H317 0.929 . S
C300 C297 1.424 . S
C300 C299 1.384 . S
C300 H318 0.928 . S
C301 C298 1.260 . S
C301 C299 1.479 . S
C302 C297 1.245 . S
C302 C298 1.477 . S
C302 H319 0.932 . S
C303 U286 2.882 . S
C303 C297 1.428 . S
C303 O306 1.301 . S
C303 O307 1.282 . S
O304 U286 2.441 . S
O304 C290 1.249 . S
O305 U286 2.420 . S
O305 C290 1.202 . S
O306 U286 2.455 . S
O306 C303 1.301 . S
O307 U286 2.449 . S
O307 C303 1.282 . S
H308 C281 0.931 . S
H309 C283 0.929 . S
H310 C284 0.930 . S
H311 C285 0.931 . S
H312 C292 0.932 . S
H313 C293 0.930 . S
H314 C294 0.929 . S
H315 C296 0.930 . S
H316 C298 0.932 . S
H317 C299 0.929 . S
H318 C300 0.928 . S
H319 C302 0.932 . S
C320 C321 1.264 1_545 S
C320 C325 1.479 . S
C320 C330 1.465 . S
C321 C320 1.264 1_565 S
C321 C323 1.334 . S
C321 H348 0.931 . S
C322 C323 1.370 1_545 S
C322 C324 1.320 . S
C323 C321 1.334 . S
C323 C322 1.370 1_565 S
C323 H349 0.962 . S
C324 C322 1.320 . S
C324 C325 1.405 . S
C324 H350 0.930 . S
C325 C320 1.479 . S
C325 C324 1.405 . S
C325 H351 0.931 . S
U326 O327 2.454 1_565 S
U326 O328 2.474 . S
U326 C329 2.984 1_565 S
U326 C330 2.847 1_565 S
U326 C343 2.882 . S
U326 O344 2.441 1_565 S
U326 O345 2.420 . S
U326 O346 2.455 . S
U326 O347 2.449 . S
O327 U326 2.454 1_545 S
O327 C329 1.353 . S
O328 U326 2.474 . S
O328 C329 1.249 1_565 S
C329 U326 2.984 1_545 S
C329 O327 1.353 . S
C329 O328 1.249 1_545 S
C329 C331 1.363 . S
C330 C320 1.465 . S
C330 U326 2.847 1_545 S
C330 O344 1.249 . S
C330 O345 1.202 1_545 S
C331 C329 1.363 . S
C331 C333 1.408 . S
C331 C336 1.342 . S
C332 C333 1.310 . S
C332 C335 1.461 . S
C332 H352 0.932 . S
C333 C331 1.408 . S
C333 C332 1.310 . S
C333 H353 0.930 . S
C334 C335 1.474 . S
C334 C336 1.285 . S
C334 H354 0.929 . S
C335 C332 1.461 . S
C335 C334 1.474 . S
C336 C331 1.342 . S
C336 C334 1.285 . S
C336 H355 0.930 . S
C337 C340 1.424 . S
C337 C342 1.245 . S
C337 C343 1.428 . S
C338 C341 1.260 . S
C338 C342 1.477 . S
C338 H356 0.932 . S
C339 C340 1.384 . S
C339 C341 1.479 . S
C339 H357 0.929 . S
C340 C337 1.424 . S
C340 C339 1.384 . S
C340 H358 0.928 . S
C341 C338 1.260 . S
C341 C339 1.479 . S
C342 C337 1.245 . S
C342 C338 1.477 . S
C342 H359 0.932 . S
C343 U326 2.882 . S
C343 C337 1.428 . S
C343 O346 1.301 . S
C343 O347 1.282 . S
O344 U326 2.441 1_545 S
O344 C330 1.249 . S
O345 U326 2.420 . S
O345 C330 1.202 1_565 S
O346 U326 2.455 . S
O346 C343 1.301 . S
O347 U326 2.449 . S
O347 C343 1.282 . S
H348 C321 0.931 . S
H349 C323 0.962 . S
H350 C324 0.930 . S
H351 C325 0.931 . S
H352 C332 0.932 . S
H353 C333 0.930 . S
H354 C334 0.929 . S
H355 C336 0.930 . S
H356 C338 0.932 . S
H357 C339 0.929 . S
H358 C340 0.928 . S
H359 C342 0.932 . S
C360 C361 1.264 . S
C360 C365 1.479 . S
C360 C370 1.465 . S
C361 C360 1.264 . S
C361 C363 1.339 . S
C361 H388 0.931 . S
C362 C363 1.395 . S
C362 C364 1.320 . S
C363 C361 1.339 . S
C363 C362 1.395 . S
C363 H389 0.929 . S
C364 C362 1.320 . S
C364 C365 1.405 . S
C364 H390 0.930 . S
C365 C360 1.479 . S
C365 C364 1.405 . S
C365 H391 0.931 . S
U366 O367 2.454 . S
U366 O368 2.458 . S
U366 C369 2.984 . S
U366 C370 2.847 . S
U366 C383 2.882 . S
U366 O384 2.441 . S
U366 O385 2.420 . S
U366 O386 2.455 . S
U366 O387 2.449 . S
O367 U366 2.454 . S
O367 C369 1.353 . S
O368 U366 2.458 . S
O368 C369 1.286 . S
C369 U366 2.984 . S
C369 O367 1.353 . S
C369 O368 1.286 . S
C369 C371 1.363 . S
C370 C360 1.465 . S
C370 U366 2.847 . S
C370 O384 1.249 . S
C370 O385 1.202 . S
C371 C369 1.363 . S
C371 C373 1.408 . S
C371 C376 1.342 . S
C372 C373 1.310 . S
C372 C375 1.461 . S
C372 H392 0.932 . S
C373 C371 1.408 . S
C373 C372 1.310 . S
C373 H393 0.930 . S
C374 C375 1.474 . S
C374 C376 1.285 . S
C374 H394 0.929 . S
C375 C372 1.461 . S
C375 C374 1.474 . S
C376 C371 1.342 . S
C376 C374 1.285 . S
C376 H395 0.930 . S
C377 C380 1.424 . S
C377 C382 1.245 . S
C377 C383 1.428 . S
C378 C381 1.260 . S
C378 C382 1.477 . S
C378 H396 0.932 . S
C379 C380 1.384 . S
C379 C381 1.479 . S
C379 H397 0.929 . S
C380 C377 1.424 . S
C380 C379 1.384 . S
C380 H398 0.928 . S
C381 C378 1.260 . S
C381 C379 1.479 . S
C382 C377 1.245 . S
C382 C378 1.477 . S
C382 H399 0.932 . S
C383 U366 2.882 . S
C383 C377 1.428 . S
C383 O386 1.301 . S
C383 O387 1.282 . S
O384 U366 2.441 . S
O384 C370 1.249 . S
O385 U366 2.420 . S
O385 C370 1.202 . S
O386 U366 2.455 . S
O386 C383 1.301 . S
O387 U366 2.449 . S
O387 C383 1.282 . S
H388 C361 0.931 . S
H389 C363 0.929 . S
H390 C364 0.930 . S
H391 C365 0.931 . S
H392 C372 0.932 . S
H393 C373 0.930 . S
H394 C374 0.929 . S
H395 C376 0.930 . S
H396 C378 0.932 . S
H397 C379 0.929 . S
H398 C380 0.928 . S
H399 C382 0.932 . S
C400 C401 1.264 . S
C400 C405 1.479 . S
C400 C410 1.465 . S
C401 C400 1.264 . S
C401 C403 1.339 . S
C401 H428 0.931 . S
C402 C403 1.395 . S
C402 C404 1.320 . S
C403 C401 1.339 . S
C403 C402 1.395 . S
C403 H429 0.929 . S
C404 C402 1.320 . S
C404 C405 1.405 . S
C404 H430 0.930 . S
C405 C400 1.479 . S
C405 C404 1.405 . S
C405 H431 0.931 1_545 S
U406 O407 2.476 . S
U406 O408 2.482 . S
U406 C409 3.012 . S
U406 C410 2.830 1_565 S
U406 C423 2.871 1_565 S
U406 O424 2.435 . S
U406 O425 2.398 1_565 S
U406 O426 2.458 1_565 S
U406 O427 2.429 1_565 S
O407 U406 2.476 . S
O407 C409 1.353 . S
O408 U406 2.482 . S
O408 C409 1.286 . S
C409 U406 3.012 . S
C409 O407 1.353 . S
C409 O408 1.286 . S
C409 C411 1.363 . S
C410 C400 1.465 . S
C410 U406 2.830 1_545 S
C410 O424 1.249 1_545 S
C410 O425 1.202 . S
C411 C409 1.363 . S
C411 C413 1.408 . S
C411 C416 1.342 . S
C412 C413 1.310 . S
C412 C415 1.461 . S
C412 H432 0.932 . S
C413 C411 1.408 . S
C413 C412 1.310 . S
C413 H433 0.930 . S
C414 C415 1.474 . S
C414 C416 1.285 . S
C414 H434 0.929 . S
C415 C412 1.461 . S
C415 C414 1.474 . S
C416 C411 1.342 . S
C416 C414 1.285 . S
C416 H435 0.930 . S
C417 C420 1.424 . S
C417 C422 1.245 . S
C417 C423 1.428 . S
C418 C421 1.260 . S
C418 C422 1.477 . S
C418 H436 0.932 . S
C419 C420 1.384 . S
C419 C421 1.479 . S
C419 H437 0.929 . S
C420 C417 1.424 . S
C420 C419 1.384 . S
C420 H438 0.928 . S
C421 C418 1.260 . S
C421 C419 1.479 . S
C422 C417 1.245 . S
C422 C418 1.477 . S
C422 H439 0.932 . S
C423 U406 2.871 1_545 S
C423 C417 1.428 . S
C423 O426 1.301 . S
C423 O427 1.282 . S
O424 U406 2.435 . S
O424 C410 1.249 1_565 S
O425 U406 2.398 1_545 S
O425 C410 1.202 . S
O426 U406 2.458 1_545 S
O426 C423 1.301 . S
O427 U406 2.429 1_545 S
O427 C423 1.282 . S
H428 C401 0.931 . S
H429 C403 0.929 . S
H430 C404 0.930 . S
H431 C405 0.931 1_565 S
H432 C412 0.932 . S
H433 C413 0.930 . S
H434 C414 0.929 . S
H435 C416 0.930 . S
H436 C418 0.932 . S
H437 C419 0.929 . S
H438 C420 0.928 . S
H439 C422 0.932 . S
C440 C441 1.264 . S
C440 C445 1.479 . S
C440 C450 1.465 . S
C441 C440 1.264 . S
C441 C443 1.339 . S
C441 H468 0.931 . S
C442 C443 1.395 . S
C442 C444 1.320 . S
C443 C441 1.339 . S
C443 C442 1.395 . S
C443 H469 0.929 . S
C444 C442 1.320 . S
C444 C445 1.405 . S
C444 H470 0.930 . S
C445 C440 1.479 . S
C445 C444 1.405 . S
C445 H471 0.931 . S
U446 O447 2.454 . S
U446 O448 2.458 . S
U446 C449 2.984 . S
U446 C450 2.847 . S
U446 C463 2.882 . S
U446 O464 2.441 . S
U446 O465 2.420 . S
U446 O466 2.455 . S
U446 O467 2.449 . S
O447 U446 2.454 . S
O447 C449 1.353 . S
O448 U446 2.458 . S
O448 C449 1.286 . S
C449 U446 2.984 . S
C449 O447 1.353 . S
C449 O448 1.286 . S
C449 C451 1.363 . S
C450 C440 1.465 . S
C450 U446 2.847 . S
C450 O464 1.249 . S
C450 O465 1.202 . S
C451 C449 1.363 . S
C451 C453 1.408 . S
C451 C456 1.342 . S
C452 C453 1.310 . S
C452 C455 1.461 . S
C452 H472 0.932 . S
C453 C451 1.408 . S
C453 C452 1.310 . S
C453 H473 0.930 . S
C454 C455 1.474 . S
C454 C456 1.285 . S
C454 H474 0.929 . S
C455 C452 1.461 . S
C455 C454 1.474 . S
C456 C451 1.342 . S
C456 C454 1.285 . S
C456 H475 0.930 . S
C457 C460 1.424 . S
C457 C462 1.245 . S
C457 C463 1.428 . S
C458 C461 1.260 . S
C458 C462 1.477 . S
C458 H476 0.932 . S
C459 C460 1.384 . S
C459 C461 1.479 . S
C459 H477 0.929 . S
C460 C457 1.424 . S
C460 C459 1.384 . S
C460 H478 0.928 . S
C461 C458 1.260 . S
C461 C459 1.479 . S
C462 C457 1.245 . S
C462 C458 1.477 . S
C462 H479 0.932 . S
C463 U446 2.882 . S
C463 C457 1.428 . S
C463 O466 1.301 . S
C463 O467 1.282 . S
O464 U446 2.441 . S
O464 C450 1.249 . S
O465 U446 2.420 . S
O465 C450 1.202 . S
O466 U446 2.455 . S
O466 C463 1.301 . S
O467 U446 2.449 . S
O467 C463 1.282 . S
H468 C441 0.931 . S
H469 C443 0.929 . S
H470 C444 0.930 . S
H471 C445 0.931 . S
H472 C452 0.932 . S
H473 C453 0.930 . S
H474 C454 0.929 . S
H475 C456 0.930 . S
H476 C458 0.932 . S
H477 C459 0.929 . S
H478 C460 0.928 . S
H479 C462 0.932 . S
C480 C481 1.264 . S
C480 C485 1.479 . S
C480 C490 1.465 . S
C481 C480 1.264 . S
C481 C483 1.339 . S
C481 H508 0.931 . S
C482 C483 1.395 . S
C482 C484 1.320 . S
C483 C481 1.339 . S
C483 C482 1.395 . S
C483 H509 0.929 . S
C484 C482 1.320 . S
C484 C485 1.405 . S
C484 H510 0.930 . S
C485 C480 1.479 . S
C485 C484 1.405 . S
C485 H511 0.931 . S
U486 O487 2.454 . S
U486 O488 2.458 . S
U486 C489 2.984 . S
U486 C490 2.847 . S
U486 C503 2.882 . S
U486 O504 2.441 . S
U486 O505 2.420 . S
U486 O506 2.455 . S
U486 O507 2.449 . S
O487 U486 2.454 . S
O487 C489 1.353 . S
O488 U486 2.458 . S
O488 C489 1.286 . S
C489 U486 2.984 . S
C489 O487 1.353 . S
C489 O488 1.286 . S
C489 C491 1.363 . S
C490 C480 1.465 . S
C490 U486 2.847 . S
C490 O504 1.249 . S
C490 O505 1.202 . S
C491 C489 1.363 . S
C491 C493 1.408 . S
C491 C496 1.342 . S
C492 C493 1.310 . S
C492 C495 1.461 . S
C492 H512 0.932 . S
C493 C491 1.408 . S
C493 C492 1.310 . S
C493 H513 0.930 . S
C494 C495 1.474 . S
C494 C496 1.285 . S
C494 H514 0.929 . S
C495 C492 1.461 . S
C495 C494 1.474 . S
C496 C491 1.342 . S
C496 C494 1.285 . S
C496 H515 0.930 . S
C497 C500 1.424 . S
C497 C502 1.245 . S
C497 C503 1.428 . S
C498 C501 1.260 . S
C498 C502 1.477 . S
C498 H516 0.932 . S
C499 C500 1.384 . S
C499 C501 1.479 . S
C499 H517 0.929 . S
C500 C497 1.424 . S
C500 C499 1.384 . S
C500 H518 0.928 . S
C501 C498 1.260 . S
C501 C499 1.479 . S
C502 C497 1.245 . S
C502 C498 1.477 . S
C502 H519 0.932 . S
C503 U486 2.882 . S
C503 C497 1.428 . S
C503 O506 1.301 . S
C503 O507 1.282 . S
O504 U486 2.441 . S
O504 C490 1.249 . S
O505 U486 2.420 . S
O505 C490 1.202 . S
O506 U486 2.455 . S
O506 C503 1.301 . S
O507 U486 2.449 . S
O507 C503 1.282 . S
H508 C481 0.931 . S
H509 C483 0.929 . S
H510 C484 0.930 . S
H511 C485 0.931 . S
H512 C492 0.932 . S
H513 C493 0.930 . S
H514 C494 0.929 . S
H515 C496 0.930 . S
H516 C498 0.932 . S
H517 C499 0.929 . S
H518 C500 0.928 . S
H519 C502 0.932 . S
C520 C521 1.264 . S
C520 C525 1.479 . S
C520 C530 1.465 . S
C521 C520 1.264 . S
C521 C523 1.339 . S
C521 H548 0.931 . S
C522 C523 1.395 . S
C522 C524 1.320 . S
C523 C521 1.339 . S
C523 C522 1.395 . S
C523 H549 0.929 . S
C524 C522 1.320 . S
C524 C525 1.405 . S
C524 H550 0.930 . S
C525 C520 1.479 . S
C525 C524 1.405 . S
C525 H551 0.931 . S
U526 O527 2.454 . S
U526 O528 2.458 . S
U526 C529 2.984 . S
U526 C530 2.847 . S
U526 C543 2.882 . S
U526 O544 2.441 . S
U526 O545 2.420 . S
U526 O546 2.455 . S
U526 O547 2.449 . S
O527 U526 2.454 . S
O527 C529 1.353 . S
O528 U526 2.458 . S
O528 C529 1.286 . S
C529 U526 2.984 . S
C529 O527 1.353 . S
C529 O528 1.286 . S
C529 C531 1.363 . S
C530 C520 1.465 . S
C530 U526 2.847 . S
C530 O544 1.249 . S
C530 O545 1.202 . S
C531 C529 1.363 . S
C531 C533 1.408 . S
C531 C536 1.342 . S
C532 C533 1.310 . S
C532 C535 1.461 . S
C532 H552 0.932 . S
C533 C531 1.408 . S
C533 C532 1.310 . S
C533 H553 0.930 . S
C534 C535 1.474 . S
C534 C536 1.285 . S
C534 H554 0.929 . S
C535 C532 1.461 . S
C535 C534 1.474 . S
C536 C531 1.342 . S
C536 C534 1.285 . S
C536 H555 0.930 . S
C537 C540 1.424 . S
C537 C542 1.245 . S
C537 C543 1.428 . S
C538 C541 1.260 . S
C538 C542 1.477 . S
C538 H556 0.932 . S
C539 C540 1.384 . S
C539 C541 1.479 . S
C539 H557 0.929 . S
C540 C537 1.424 . S
C540 C539 1.384 . S
C540 H558 0.928 . S
C541 C538 1.260 . S
C541 C539 1.479 . S
C542 C537 1.245 . S
C542 C538 1.477 . S
C542 H559 0.932 . S
C543 U526 2.882 . S
C543 C537 1.428 . S
C543 O546 1.301 . S
C543 O547 1.282 . S
O544 U526 2.441 . S
O544 C530 1.249 . S
O545 U526 2.420 . S
O545 C530 1.202 . S
O546 U526 2.455 . S
O546 C543 1.301 . S
O547 U526 2.449 . S
O547 C543 1.282 . S
H548 C521 0.931 . S
H549 C523 0.929 . S
H550 C524 0.930 . S
H551 C525 0.931 . S
H552 C532 0.932 . S
H553 C533 0.930 . S
H554 C534 0.929 . S
H555 C536 0.930 . S
H556 C538 0.932 . S
H557 C539 0.929 . S
H558 C540 0.928 . S
H559 C542 0.932 . S
C560 C561 1.264 . S
C560 C565 1.479 . S
C560 C570 1.465 . S
C561 C560 1.264 . S
C561 C563 1.339 . S
C561 H588 0.931 . S
C562 C563 1.395 . S
C562 C564 1.320 . S
C563 C561 1.339 . S
C563 C562 1.395 . S
C563 H589 0.929 . S
C564 C562 1.320 . S
C564 C565 1.405 . S
C564 H590 0.930 . S
C565 C560 1.479 . S
C565 C564 1.405 . S
C565 H591 0.931 . S
U566 O567 2.454 . S
U566 O568 2.458 . S
U566 C569 2.984 . S
U566 C570 2.847 . S
U566 C583 2.882 . S
U566 O584 2.441 . S
U566 O585 2.420 . S
U566 O586 2.455 . S
U566 O587 2.449 . S
O567 U566 2.454 . S
O567 C569 1.353 . S
O568 U566 2.458 . S
O568 C569 1.286 . S
C569 U566 2.984 . S
C569 O567 1.353 . S
C569 O568 1.286 . S
C569 C571 1.363 . S
C570 C560 1.465 . S
C570 U566 2.847 . S
C570 O584 1.249 . S
C570 O585 1.202 . S
C571 C569 1.363 . S
C571 C573 1.408 . S
C571 C576 1.342 . S
C572 C573 1.310 . S
C572 C575 1.461 . S
C572 H592 0.932 . S
C573 C571 1.408 . S
C573 C572 1.310 . S
C573 H593 0.930 . S
C574 C575 1.474 . S
C574 C576 1.285 . S
C574 H594 0.929 . S
C575 C572 1.461 . S
C575 C574 1.474 . S
C576 C571 1.342 . S
C576 C574 1.285 . S
C576 H595 0.930 . S
C577 C580 1.424 . S
C577 C582 1.245 . S
C577 C583 1.428 . S
C578 C581 1.260 . S
C578 C582 1.477 . S
C578 H596 0.932 . S
C579 C580 1.384 . S
C579 C581 1.479 . S
C579 H597 0.929 . S
C580 C577 1.424 . S
C580 C579 1.384 . S
C580 H598 0.928 . S
C581 C578 1.260 . S
C581 C579 1.479 . S
C582 C577 1.245 . S
C582 C578 1.477 . S
C582 H599 0.932 . S
C583 U566 2.882 . S
C583 C577 1.428 . S
C583 O586 1.301 . S
C583 O587 1.282 . S
O584 U566 2.441 . S
O584 C570 1.249 . S
O585 U566 2.420 . S
O585 C570 1.202 . S
O586 U566 2.455 . S
O586 C583 1.301 . S
O587 U566 2.449 . S
O587 C583 1.282 . S
H588 C561 0.931 . S
H589 C563 0.929 . S
H590 C564 0.930 . S
H591 C565 0.931 . S
H592 C572 0.932 . S
H593 C573 0.930 . S
H594 C574 0.929 . S
H595 C576 0.930 . S
H596 C578 0.932 . S
H597 C579 0.929 . S
H598 C580 0.928 . S
H599 C582 0.932 . S
C600 C601 1.264 . S
C600 C605 1.479 . S
C600 C610 1.465 . S
C601 C600 1.264 . S
C601 C603 1.339 . S
C601 H628 0.931 . S
C602 C603 1.395 . S
C602 C604 1.320 . S
C603 C601 1.339 . S
C603 C602 1.395 . S
C603 H629 0.929 . S
C604 C602 1.320 . S
C604 C605 1.405 . S
C604 H630 0.930 . S
C605 C600 1.479 . S
C605 C604 1.405 . S
C605 H631 0.931 . S
U606 O607 2.454 . S
U606 O608 2.458 . S
U606 C609 2.984 . S
U606 C610 2.847 . S
U606 C623 2.882 . S
U606 O624 2.441 . S
U606 O625 2.420 . S
U606 O626 2.455 . S
U606 O627 2.449 . S
O607 U606 2.454 . S
O607 C609 1.353 . S
O608 U606 2.458 . S
O608 C609 1.286 . S
C609 U606 2.984 . S
C609 O607 1.353 . S
C609 O608 1.286 . S
C609 C611 1.363 . S
C610 C600 1.465 . S
C610 U606 2.847 . S
C610 O624 1.249 . S
C610 O625 1.202 . S
C611 C609 1.363 . S
C611 C613 1.408 . S
C611 C616 1.342 . S
C612 C613 1.310 . S
C612 C615 1.461 . S
C612 H632 0.932 . S
C613 C611 1.408 . S
C613 C612 1.310 . S
C613 H633 0.930 . S
C614 C615 1.474 . S
C614 C616 1.285 . S
C614 H634 0.929 . S
C615 C612 1.461 . S
C615 C614 1.474 . S
C616 C611 1.342 . S
C616 C614 1.285 . S
C616 H635 0.930 . S
C617 C620 1.424 . S
C617 C622 1.245 . S
C617 C623 1.428 . S
C618 C621 1.260 . S
C618 C622 1.477 . S
C618 H636 0.932 . S
C619 C620 1.384 . S
C619 C621 1.479 . S
C619 H637 0.929 . S
C620 C617 1.424 . S
C620 C619 1.384 . S
C620 H638 0.928 . S
C621 C618 1.260 . S
C621 C619 1.479 . S
C622 C617 1.245 . S
C622 C618 1.477 . S
C622 H639 0.932 . S
C623 U606 2.882 . S
C623 C617 1.428 . S
C623 O626 1.301 . S
C623 O627 1.282 . S
O624 U606 2.441 . S
O624 C610 1.249 . S
O625 U606 2.420 . S
O625 C610 1.202 . S
O626 U606 2.455 . S
O626 C623 1.301 . S
O627 U606 2.449 . S
O627 C623 1.282 . S
H628 C601 0.931 . S
H629 C603 0.929 . S
H630 C604 0.930 . S
H631 C605 0.931 . S
H632 C612 0.932 . S
H633 C613 0.930 . S
H634 C614 0.929 . S
H635 C616 0.930 . S
H636 C618 0.932 . S
H637 C619 0.929 . S
H638 C620 0.928 . S
H639 C622 0.932 . S
C640 C641 1.264 . S
C640 C645 1.479 . S
C640 C650 1.465 . S
C641 C640 1.264 . S
C641 C643 1.339 . S
C641 H668 0.931 . S
C642 C643 1.395 . S
C642 C644 1.320 . S
C643 C641 1.339 . S
C643 C642 1.395 . S
C643 H669 0.929 . S
C644 C642 1.320 . S
C644 C645 1.405 . S
C644 H670 0.930 . S
C645 C640 1.479 . S
C645 C644 1.405 . S
C645 H671 0.931 . S
U646 O647 2.454 . S
U646 O648 2.458 . S
U646 C649 2.984 . S
U646 C650 2.847 . S
U646 C663 2.882 . S
U646 O664 2.441 . S
U646 O665 2.420 . S
U646 O666 2.455 . S
U646 O667 2.449 . S
O647 U646 2.454 . S
O647 C649 1.353 . S
O648 U646 2.458 . S
O648 C649 1.286 . S
C649 U646 2.984 . S
C649 O647 1.353 . S
C649 O648 1.286 . S
C649 C651 1.363 . S
C650 C640 1.465 . S
C650 U646 2.847 . S
C650 O664 1.249 . S
C650 O665 1.202 . S
C651 C649 1.363 . S
C651 C653 1.408 . S
C651 C656 1.342 . S
C652 C653 1.310 . S
C652 C655 1.461 . S
C652 H672 0.932 . S
C653 C651 1.408 . S
C653 C652 1.310 . S
C653 H673 0.930 . S
C654 C655 1.474 . S
C654 C656 1.285 . S
C654 H674 0.929 . S
C655 C652 1.461 . S
C655 C654 1.474 . S
C656 C651 1.342 . S
C656 C654 1.285 . S
C656 H675 0.930 . S
C657 C660 1.424 . S
C657 C662 1.245 . S
C657 C663 1.428 . S
C658 C661 1.260 . S
C658 C662 1.477 . S
C658 H676 0.932 . S
C659 C660 1.384 . S
C659 C661 1.479 . S
C659 H677 0.929 . S
C660 C657 1.424 . S
C660 C659 1.384 . S
C660 H678 0.928 . S
C661 C658 1.260 . S
C661 C659 1.479 . S
C662 C657 1.245 . S
C662 C658 1.477 . S
C662 H679 0.932 . S
C663 U646 2.882 . S
C663 C657 1.428 . S
C663 O666 1.301 . S
C663 O667 1.282 . S
O664 U646 2.441 . S
O664 C650 1.249 . S
O665 U646 2.420 . S
O665 C650 1.202 . S
O666 U646 2.455 . S
O666 C663 1.301 . S
O667 U646 2.449 . S
O667 C663 1.282 . S
H668 C641 0.931 . S
H669 C643 0.929 . S
H670 C644 0.930 . S
H671 C645 0.931 . S
H672 C652 0.932 . S
H673 C653 0.930 . S
H674 C654 0.929 . S
H675 C656 0.930 . S
H676 C658 0.932 . S
H677 C659 0.929 . S
H678 C660 0.928 . S
H679 C662 0.932 . S
C680 C681 1.264 . S
C680 C685 1.479 . S
C680 C690 1.465 . S
C681 C680 1.264 . S
C681 C683 1.339 . S
C681 H708 0.931 . S
C682 C683 1.395 . S
C682 C684 1.320 . S
C683 C681 1.339 . S
C683 C682 1.395 . S
C683 H709 0.929 . S
C684 C682 1.320 . S
C684 C685 1.405 . S
C684 H710 0.930 . S
C685 C680 1.479 . S
C685 C684 1.405 . S
C685 H711 0.931 . S
U686 O687 2.454 . S
U686 O688 2.458 . S
U686 C689 2.984 . S
U686 C690 2.847 . S
U686 C703 2.882 . S
U686 O704 2.441 . S
U686 O705 2.420 . S
U686 O706 2.455 . S
U686 O707 2.449 . S
O687 U686 2.454 . S
O687 C689 1.353 . S
O688 U686 2.458 . S
O688 C689 1.286 . S
C689 U686 2.984 . S
C689 O687 1.353 . S
C689 O688 1.286 . S
C689 C691 1.363 . S
C690 C680 1.465 . S
C690 U686 2.847 . S
C690 O704 1.249 . S
C690 O705 1.202 . S
C691 C689 1.363 . S
C691 C693 1.408 . S
C691 C696 1.342 . S
C692 C693 1.310 . S
C692 C695 1.461 . S
C692 H712 0.932 . S
C693 C691 1.408 . S
C693 C692 1.310 . S
C693 H713 0.930 . S
C694 C695 1.474 . S
C694 C696 1.285 . S
C694 H714 0.929 . S
C695 C692 1.461 . S
C695 C694 1.474 . S
C696 C691 1.342 . S
C696 C694 1.285 . S
C696 H715 0.930 . S
C697 C700 1.424 . S
C697 C702 1.245 . S
C697 C703 1.428 . S
C698 C701 1.260 . S
C698 C702 1.477 . S
C698 H716 0.932 . S
C699 C700 1.384 . S
C699 C701 1.479 . S
C699 H717 0.929 . S
C700 C697 1.424 . S
C700 C699 1.384 . S
C700 H718 0.928 . S
C701 C698 1.260 . S
C701 C699 1.479 . S
C702 C697 1.245 . S
C702 C698 1.477 . S
C702 H719 0.932 . S
C703 U686 2.882 . S
C703 C697 1.428 . S
C703 O706 1.301 . S
C703 O707 1.282 . S
O704 U686 2.441 . S
O704 C690 1.249 . S
O705 U686 2.420 . S
O705 C690 1.202 . S
O706 U686 2.455 . S
O706 C703 1.301 . S
O707 U686 2.449 . S
O707 C703 1.282 . S
H708 C681 0.931 . S
H709 C683 0.929 . S
H710 C684 0.930 . S
H711 C685 0.931 . S
H712 C692 0.932 . S
H713 C693 0.930 . S
H714 C694 0.929 . S
H715 C696 0.930 . S
H716 C698 0.932 . S
H717 C699 0.929 . S
H718 C700 0.928 . S
H719 C702 0.932 . S
C720 C721 1.264 . S
C720 C725 1.479 . S
C720 C730 1.465 . S
C721 C720 1.264 . S
C721 C723 1.339 . S
C721 H748 0.931 . S
C722 C723 1.395 . S
C722 C724 1.320 . S
C723 C721 1.339 . S
C723 C722 1.395 . S
C723 H749 0.929 . S
C724 C722 1.320 . S
C724 C725 1.405 . S
C724 H750 0.930 . S
C725 C720 1.479 . S
C725 C724 1.405 . S
C725 H751 0.931 . S
U726 O727 2.454 . S
U726 O728 2.458 . S
U726 C729 2.984 . S
U726 C730 2.847 . S
U726 C743 2.882 . S
U726 O744 2.441 . S
U726 O745 2.420 . S
U726 O746 2.455 . S
U726 O747 2.449 . S
O727 U726 2.454 . S
O727 C729 1.353 . S
O728 U726 2.458 . S
O728 C729 1.286 . S
C729 U726 2.984 . S
C729 O727 1.353 . S
C729 O728 1.286 . S
C729 C731 1.363 . S
C730 C720 1.465 . S
C730 U726 2.847 . S
C730 O744 1.249 . S
C730 O745 1.202 . S
C731 C729 1.363 . S
C731 C733 1.408 . S
C731 C736 1.342 . S
C732 C733 1.310 . S
C732 C735 1.461 . S
C732 H752 0.932 . S
C733 C731 1.408 . S
C733 C732 1.310 . S
C733 H753 0.930 . S
C734 C735 1.474 . S
C734 C736 1.285 . S
C734 H754 0.929 . S
C735 C732 1.461 . S
C735 C734 1.474 . S
C736 C731 1.342 . S
C736 C734 1.285 . S
C736 H755 0.930 . S
C737 C740 1.424 . S
C737 C742 1.245 . S
C737 C743 1.428 . S
C738 C741 1.260 . S
C738 C742 1.477 . S
C738 H756 0.932 . S
C739 C740 1.384 . S
C739 C741 1.479 . S
C739 H757 0.929 . S
C740 C737 1.424 . S
C740 C739 1.384 . S
C740 H758 0.928 . S
C741 C738 1.260 . S
C741 C739 1.479 . S
C742 C737 1.245 . S
C742 C738 1.477 . S
C742 H759 0.932 . S
C743 U726 2.882 . S
C743 C737 1.428 . S
C743 O746 1.301 . S
C743 O747 1.282 . S
O744 U726 2.441 . S
O744 C730 1.249 . S
O745 U726 2.420 . S
O745 C730 1.202 . S
O746 U726 2.455 . S
O746 C743 1.301 . S
O747 U726 2.449 . S
O747 C743 1.282 . S
H748 C721 0.931 . S
H749 C723 0.929 . S
H750 C724 0.930 . S
H751 C725 0.931 . S
H752 C732 0.932 . S
H753 C733 0.930 . S
H754 C734 0.929 . S
H755 C736 0.930 . S
H756 C738 0.932 . S
H757 C739 0.929 . S
H758 C740 0.928 . S
H759 C742 0.932 . S
C760 C761 1.264 . S
C760 C765 1.479 . S
C760 C770 1.465 . S
C761 C760 1.264 . S
C761 C763 1.339 . S
C761 H788 0.931 . S
C762 C763 1.395 . S
C762 C764 1.320 . S
C763 C761 1.339 . S
C763 C762 1.395 . S
C763 H789 0.929 . S
C764 C762 1.320 . S
C764 C765 1.405 . S
C764 H790 0.930 . S
C765 C760 1.479 . S
C765 C764 1.405 . S
C765 H791 0.931 . S
U766 O767 2.454 . S
U766 O768 2.458 . S
U766 C769 2.984 . S
U766 C770 2.847 . S
U766 C783 2.882 . S
U766 O784 2.441 . S
U766 O785 2.420 . S
U766 O786 2.455 . S
U766 O787 2.449 . S
O767 U766 2.454 . S
O767 C769 1.353 . S
O768 U766 2.458 . S
O768 C769 1.286 . S
C769 U766 2.984 . S
C769 O767 1.353 . S
C769 O768 1.286 . S
C769 C771 1.363 1_655 S
C770 C760 1.465 . S
C770 U766 2.847 . S
C770 O784 1.249 . S
C770 O785 1.202 . S
C771 C769 1.363 1_455 S
C771 C773 1.408 . S
C771 C776 1.342 . S
C772 C773 1.310 . S
C772 C775 1.461 . S
C772 H792 0.932 . S
C773 C771 1.408 . S
C773 C772 1.310 . S
C773 H793 0.930 . S
C774 C775 1.474 . S
C774 C776 1.285 . S
C774 H794 0.929 . S
C775 C772 1.461 . S
C775 C774 1.474 . S
C776 C771 1.342 . S
C776 C774 1.285 . S
C776 H795 0.930 . S
C777 C780 1.424 . S
C777 C782 1.245 . S
C777 C783 1.428 . S
C778 C781 1.260 . S
C778 C782 1.477 . S
C778 H796 0.932 . S
C779 C780 1.384 . S
C779 C781 1.479 . S
C779 H797 0.929 . S
C780 C777 1.424 . S
C780 C779 1.384 . S
C780 H798 0.928 . S
C781 C778 1.260 . S
C781 C779 1.479 . S
C782 C777 1.245 . S
C782 C778 1.477 . S
C782 H799 0.932 . S
C783 U766 2.882 . S
C783 C777 1.428 . S
C783 O786 1.301 . S
C783 O787 1.282 . S
O784 U766 2.441 . S
O784 C770 1.249 . S
O785 U766 2.420 . S
O785 C770 1.202 . S
O786 U766 2.455 . S
O786 C783 1.301 . S
O787 U766 2.449 . S
O787 C783 1.282 . S
H788 C761 0.931 . S
H789 C763 0.929 . S
H790 C764 0.930 . S
H791 C765 0.931 . S
H792 C772 0.932 . S
H793 C773 0.930 . S
H794 C774 0.929 . S
H795 C776 0.930 . S
H796 C778 0.932 . S
H797 C779 0.929 . S
H798 C780 0.928 . S
H799 C782 0.932 . S
C800 C801 1.264 . S
C800 C805 1.479 . S
C800 C810 1.465 . S
C801 C800 1.264 . S
C801 C803 1.339 . S
C801 H828 0.931 . S
C802 C803 1.395 . S
C802 C804 1.320 . S
C803 C801 1.339 . S
C803 C802 1.395 . S
C803 H829 0.929 . S
C804 C802 1.320 . S
C804 C805 1.405 . S
C804 H830 0.930 . S
C805 C800 1.479 . S
C805 C804 1.405 . S
C805 H831 0.931 . S
U806 O807 2.454 . S
U806 O808 2.458 . S
U806 C809 2.984 . S
U806 C810 2.847 . S
U806 C823 2.882 . S
U806 O824 2.441 . S
U806 O825 2.420 . S
U806 O826 2.455 . S
U806 O827 2.449 . S
O807 U806 2.454 . S
O807 C809 1.353 . S
O808 U806 2.458 . S
O808 C809 1.286 . S
C809 U806 2.984 . S
C809 O807 1.353 . S
C809 O808 1.286 . S
C809 C811 1.363 . S
C810 C800 1.465 . S
C810 U806 2.847 . S
C810 O824 1.249 . S
C810 O825 1.202 . S
C811 C809 1.363 . S
C811 C813 1.408 . S
C811 C816 1.367 . S
C812 C813 1.310 1_455 S
C812 C815 1.461 . S
C812 H832 0.932 . S
C813 C811 1.408 . S
C813 C812 1.310 1_655 S
C813 H833 0.930 . S
C814 C815 1.474 . S
C814 C816 1.263 1_455 S
C814 H834 0.929 . S
C815 C812 1.461 . S
C815 C814 1.474 . S
C816 C811 1.367 . S
C816 C814 1.263 1_655 S
C816 H835 0.928 . S
C817 C820 1.424 . S
C817 C822 1.245 . S
C817 C823 1.428 . S
C818 C821 1.260 . S
C818 C822 1.477 . S
C818 H836 0.932 . S
C819 C820 1.384 . S
C819 C821 1.479 . S
C819 H837 0.929 . S
C820 C817 1.424 . S
C820 C819 1.384 . S
C820 H838 0.928 . S
C821 C818 1.260 . S
C821 C819 1.479 . S
C822 C817 1.245 . S
C822 C818 1.477 . S
C822 H839 0.932 . S
C823 U806 2.882 . S
C823 C817 1.428 . S
C823 O826 1.301 . S
C823 O827 1.282 . S
O824 U806 2.441 . S
O824 C810 1.249 . S
O825 U806 2.420 . S
O825 C810 1.202 . S
O826 U806 2.455 . S
O826 C823 1.301 . S
O827 U806 2.449 . S
O827 C823 1.282 . S
H828 C801 0.931 . S
H829 C803 0.929 . S
H830 C804 0.930 . S
H831 C805 0.931 . S
H832 C812 0.932 . S
H833 C813 0.930 . S
H834 C814 0.929 . S
H835 C816 0.928 . S
H836 C818 0.932 . S
H837 C819 0.929 . S
H838 C820 0.928 . S
H839 C822 0.932 . S
C840 C841 1.264 . S
C840 C845 1.479 . S
C840 C850 1.465 . S
C841 C840 1.264 . S
C841 C843 1.339 . S
C841 H868 0.931 . S
C842 C843 1.395 . S
C842 C844 1.320 . S
C843 C841 1.339 . S
C843 C842 1.395 . S
C843 H869 0.929 . S
C844 C842 1.320 . S
C844 C845 1.405 . S
C844 H870 0.930 . S
C845 C840 1.479 . S
C845 C844 1.405 . S
C845 H871 0.931 . S
U846 O847 2.454 . S
U846 O848 2.458 . S
U846 C849 2.984 . S
U846 C850 2.847 . S
U846 C863 2.882 . S
U846 O864 2.441 . S
U846 O865 2.420 . S
U846 O866 2.455 . S
U846 O867 2.449 . S
O847 U846 2.454 . S
O847 C849 1.353 . S
O848 U846 2.458 . S
O848 C849 1.286 . S
C849 U846 2.984 . S
C849 O847 1.353 . S
C849 O848 1.286 . S
C849 C851 1.363 . S
C850 C840 1.465 . S
C850 U846 2.847 . S
C850 O864 1.249 . S
C850 O865 1.202 . S
C851 C849 1.363 . S
C851 C853 1.408 . S
C851 C856 1.342 . S
C852 C853 1.310 . S
C852 C855 1.461 . S
C852 H872 0.932 . S
C853 C851 1.408 . S
C853 C852 1.310 . S
C853 H873 0.930 . S
C854 C855 1.474 . S
C854 C856 1.285 . S
C854 H874 0.929 . S
C855 C852 1.461 . S
C855 C854 1.474 . S
C856 C851 1.342 . S
C856 C854 1.285 . S
C856 H875 0.930 . S
C857 C860 1.424 . S
C857 C862 1.245 . S
C857 C863 1.428 . S
C858 C861 1.260 . S
C858 C862 1.477 . S
C858 H876 0.932 . S
C859 C860 1.384 . S
C859 C861 1.479 . S
C859 H877 0.929 . S
C860 C857 1.424 . S
C860 C859 1.384 . S
C860 H878 0.928 . S
C861 C858 1.260 . S
C861 C859 1.479 . S
C862 C857 1.245 . S
C862 C858 1.477 . S
C862 H879 0.932 . S
C863 U846 2.882 . S
C863 C857 1.428 . S
C863 O866 1.301 . S
C863 O867 1.282 . S
O864 U846 2.441 . S
O864 C850 1.249 . S
O865 U846 2.420 . S
O865 C850 1.202 . S
O866 U846 2.455 . S
O866 C863 1.301 . S
O867 U846 2.449 . S
O867 C863 1.282 . S
H868 C841 0.931 . S
H869 C843 0.929 . S
H870 C844 0.930 . S
H871 C845 0.931 . S
H872 C852 0.932 . S
H873 C853 0.930 . S
H874 C854 0.929 . S
H875 C856 0.930 . S
H876 C858 0.932 . S
H877 C859 0.929 . S
H878 C860 0.928 . S
H879 C862 0.932 . S
C880 C881 1.264 . S
C880 C885 1.479 . S
C880 C890 1.465 . S
C881 C880 1.264 . S
C881 C883 1.339 . S
C881 H908 0.931 . S
C882 C883 1.395 . S
C882 C884 1.320 . S
C883 C881 1.339 . S
C883 C882 1.395 . S
C883 H909 0.929 . S
C884 C882 1.320 . S
C884 C885 1.405 . S
C884 H910 0.930 . S
C885 C880 1.479 . S
C885 C884 1.405 . S
C885 H911 0.931 . S
U886 O887 2.454 . S
U886 O888 2.458 . S
U886 C889 2.984 . S
U886 C890 2.847 . S
U886 C903 2.882 . S
U886 O904 2.441 . S
U886 O905 2.420 . S
U886 O906 2.455 . S
U886 O907 2.449 . S
O887 U886 2.454 . S
O887 C889 1.353 . S
O888 U886 2.458 . S
O888 C889 1.286 . S
C889 U886 2.984 . S
C889 O887 1.353 . S
C889 O888 1.286 . S
C889 C891 1.363 . S
C890 C880 1.465 . S
C890 U886 2.847 . S
C890 O904 1.249 . S
C890 O905 1.202 . S
C891 C889 1.363 . S
C891 C893 1.408 . S
C891 C896 1.342 . S
C892 C893 1.310 . S
C892 C895 1.461 . S
C892 H912 0.932 . S
C893 C891 1.408 . S
C893 C892 1.310 . S
C893 H913 0.930 . S
C894 C895 1.474 . S
C894 C896 1.285 . S
C894 H914 0.929 . S
C895 C892 1.461 . S
C895 C894 1.474 . S
C896 C891 1.342 . S
C896 C894 1.285 . S
C896 H915 0.930 . S
C897 C900 1.424 . S
C897 C902 1.245 . S
C897 C903 1.428 . S
C898 C901 1.260 . S
C898 C902 1.477 . S
C898 H916 0.932 . S
C899 C900 1.384 . S
C899 C901 1.479 . S
C899 H917 0.929 . S
C900 C897 1.424 . S
C900 C899 1.384 . S
C900 H918 0.928 . S
C901 C898 1.260 . S
C901 C899 1.479 . S
C902 C897 1.245 . S
C902 C898 1.477 . S
C902 H919 0.932 . S
C903 U886 2.882 . S
C903 C897 1.428 . S
C903 O906 1.301 . S
C903 O907 1.282 . S
O904 U886 2.441 . S
O904 C890 1.249 . S
O905 U886 2.420 . S
O905 C890 1.202 . S
O906 U886 2.455 . S
O906 C903 1.301 . S
O907 U886 2.449 . S
O907 C903 1.282 . S
H908 C881 0.931 . S
H909 C883 0.929 . S
H910 C884 0.930 . S
H911 C885 0.931 . S
H912 C892 0.932 . S
H913 C893 0.930 . S
H914 C894 0.929 . S
H915 C896 0.930 . S
H916 C898 0.932 . S
H917 C899 0.929 . S
H918 C900 0.928 . S
H919 C902 0.932 . S
C920 C921 1.264 . S
C920 C925 1.479 . S
C920 C930 1.465 . S
C921 C920 1.264 . S
C921 C923 1.339 . S
C921 H948 0.931 . S
C922 C923 1.395 . S
C922 C924 1.320 . S
C923 C921 1.339 . S
C923 C922 1.395 . S
C923 H949 0.929 . S
C924 C922 1.320 . S
C924 C925 1.405 . S
C924 H950 0.930 . S
C925 C920 1.479 . S
C925 C924 1.405 . S
C925 H951 0.931 . S
U926 O927 2.454 . S
U926 O928 2.458 . S
U926 C929 2.984 . S
U926 C930 2.847 . S
U926 C943 2.882 . S
U926 O944 2.441 . S
U926 O945 2.420 . S
U926 O946 2.455 . S
U926 O947 2.449 . S
O927 U926 2.454 . S
O927 C929 1.353 . S
O928 U926 2.458 . S
O928 C929 1.286 . S
C929 U926 2.984 . S
C929 O927 1.353 . S
C929 O928 1.286 . S
C929 C931 1.363 . S
C930 C920 1.465 . S
C930 U926 2.847 . S
C930 O944 1.249 . S
C930 O945 1.202 . S
C931 C929 1.363 . S
C931 C933 1.408 . S
C931 C936 1.342 . S
C932 C933 1.310 . S
C932 C935 1.461 . S
C932 H952 0.932 . S
C933 C931 1.408 . S
C933 C932 1.310 . S
C933 H953 0.930 . S
C934 C935 1.474 . S
C934 C936 1.285 . S
C934 H954 0.929 . S
C935 C932 1.461 . S
C935 C934 1.474 . S
C936 C931 1.342 . S
C936 C934 1.285 . S
C936 H955 0.930 . S
C937 C940 1.424 . S
C937 C942 1.245 . S
C937 C943 1.428 . S
C938 C941 1.260 . S
C938 C942 1.477 . S
C938 H956 0.932 . S
C939 C940 1.384 . S
C939 C941 1.479 . S
C939 H957 0.929 . S
C940 C937 1.424 . S
C940 C939 1.384 . S
C940 H958 0.928 . S
C941 C938 1.260 . S
C941 C939 1.479 . S
C942 C937 1.245 . S
C942 C938 1.477 . S
C942 H959 0.932 . S
C943 U926 2.882 . S
C943 C937 1.428 . S
C943 O946 1.301 . S
C943 O947 1.282 . S
O944 U926 2.441 . S
O944 C930 1.249 . S
O945 U926 2.420 . S
O945 C930 1.202 . S
O946 U926 2.455 . S
O946 C943 1.301 . S
O947 U926 2.449 . S
O947 C943 1.282 . S
H948 C921 0.931 . S
H949 C923 0.929 . S
H950 C924 0.930 . S
H951 C925 0.931 . S
H952 C932 0.932 . S
H953 C933 0.930 . S
H954 C934 0.929 . S
H955 C936 0.930 . S
H956 C938 0.932 . S
H957 C939 0.929 . S
H958 C940 0.928 . S
H959 C942 0.932 . S
H960 C966 0.930 . S
H961 C970 0.930 . S
H962 C975 0.929 . S
H963 C973 0.929 . S
H964 C968 0.929 . S
H965 C974 0.929 . S
C966 H960 0.930 . S
C966 C967 1.367 . S
C966 C974 1.378 . S
C967 C966 1.367 . S
C967 C975 1.433 . S
C968 H964 0.929 . S
C968 C970 1.378 . S
C968 C972 1.350 . S
C969 C972 1.463 . S
C969 C974 1.350 . S
C969 N977 1.427 . S
C970 H961 0.930 . S
C970 C968 1.378 . S
C970 C971 1.367 . S
C971 C970 1.367 . S
C971 C973 1.433 . S
C972 C968 1.350 . S
C972 C969 1.463 . S
C972 N976 1.427 . S
C973 H963 0.929 . S
C973 C971 1.433 . S
C973 N976 1.384 . S
C974 H965 0.929 . S
C974 C966 1.378 . S
C974 C969 1.350 . S
C975 H962 0.929 . S
C975 C967 1.433 . S
C975 N977 1.384 . S
N976 C972 1.427 . S
N976 C973 1.384 . S
N977 C969 1.427 . S
N977 C975 1.384 . S
H978 C984 0.930 . S
H979 C988 0.930 . S
H980 C993 0.929 . S
H981 C991 0.929 . S
H982 C986 0.929 . S
H983 C992 0.929 . S
C984 H978 0.930 . S
C984 C985 1.367 . S
C984 C992 1.378 . S
C985 C984 1.367 . S
C985 C993 1.433 . S
C986 H982 0.929 . S
C986 C988 1.378 . S
C986 C990 1.350 . S
C987 C990 1.463 . S
C987 C992 1.350 . S
C987 N995 1.427 . S
C988 H979 0.930 . S
C988 C986 1.378 . S
C988 C989 1.367 . S
C989 C988 1.367 . S
C989 C991 1.433 . S
C990 C986 1.350 . S
C990 C987 1.463 . S
C990 N994 1.427 . S
C991 H981 0.929 . S
C991 C989 1.433 . S
C991 N994 1.384 . S
C992 H983 0.929 . S
C992 C984 1.378 . S
C992 C987 1.350 . S
C993 H980 0.929 . S
C993 C985 1.433 . S
C993 N995 1.384 . S
N994 C990 1.427 . S
N994 C991 1.384 . S
N995 C987 1.427 . S
N995 C993 1.384 . S
H996 C1002 0.930 . S
H997 C1006 0.930 . S
H998 C1011 0.929 . S
H999 C1009 0.929 . S
H1000 C1004 0.929 . S
H1001 C1010 0.929 . S
C1002 H996 0.930 . S
C1002 C1003 1.367 . S
C1002 C1010 1.378 . S
C1003 C1002 1.367 . S
C1003 C1011 1.433 . S
C1004 H1000 0.929 . S
C1004 C1006 1.378 . S
C1004 C1008 1.350 . S
C1005 C1008 1.463 . S
C1005 C1010 1.350 . S
C1005 N1013 1.427 . S
C1006 H997 0.930 . S
C1006 C1004 1.378 . S
C1006 C1007 1.367 . S
C1007 C1006 1.367 . S
C1007 C1009 1.433 . S
C1008 C1004 1.350 . S
C1008 C1005 1.463 . S
C1008 N1012 1.427 . S
C1009 H999 0.929 . S
C1009 C1007 1.433 . S
C1009 N1012 1.384 . S
C1010 H1001 0.929 . S
C1010 C1002 1.378 . S
C1010 C1005 1.350 . S
C1011 H998 0.929 . S
C1011 C1003 1.433 . S
C1011 N1013 1.384 . S
N1012 C1008 1.427 . S
N1012 C1009 1.384 . S
N1013 C1005 1.427 . S
N1013 C1011 1.384 . S
H1014 C1020 0.930 . S
H1015 C1024 0.930 . S
H1016 C1029 0.929 . S
H1017 C1027 0.929 . S
H1018 C1022 0.929 . S
H1019 C1028 0.929 . S
C1020 H1014 0.930 . S
C1020 C1021 1.367 . S
C1020 C1028 1.378 . S
C1021 C1020 1.367 . S
C1021 C1029 1.433 . S
C1022 H1018 0.929 . S
C1022 C1024 1.378 . S
C1022 C1026 1.350 . S
C1023 C1026 1.463 . S
C1023 C1028 1.350 . S
C1023 N1031 1.427 . S
C1024 H1015 0.930 . S
C1024 C1022 1.378 . S
C1024 C1025 1.367 . S
C1025 C1024 1.367 . S
C1025 C1027 1.433 . S
C1026 C1022 1.350 . S
C1026 C1023 1.463 . S
C1026 N1030 1.427 . S
C1027 H1017 0.929 . S
C1027 C1025 1.433 . S
C1027 N1030 1.384 . S
C1028 H1019 0.929 . S
C1028 C1020 1.378 . S
C1028 C1023 1.350 . S
C1029 H1016 0.929 . S
C1029 C1021 1.433 . S
C1029 N1031 1.384 . S
N1030 C1026 1.427 . S
N1030 C1027 1.384 . S
N1031 C1023 1.427 . S
N1031 C1029 1.384 . S
H1032 C1038 0.930 . S
H1033 C1042 0.930 . S
H1034 C1047 0.929 . S
H1035 C1045 0.929 . S
H1036 C1040 0.929 . S
H1037 C1046 0.929 . S
C1038 H1032 0.930 . S
C1038 C1039 1.367 . S
C1038 C1046 1.378 . S
C1039 C1038 1.367 . S
C1039 C1047 1.433 . S
C1040 H1036 0.929 . S
C1040 C1042 1.378 . S
C1040 C1044 1.350 . S
C1041 C1044 1.463 . S
C1041 C1046 1.350 . S
C1041 N1049 1.427 . S
C1042 H1033 0.930 . S
C1042 C1040 1.378 . S
C1042 C1043 1.367 . S
C1043 C1042 1.367 . S
C1043 C1045 1.433 . S
C1044 C1040 1.350 . S
C1044 C1041 1.463 . S
C1044 N1048 1.427 . S
C1045 H1035 0.929 . S
C1045 C1043 1.433 . S
C1045 N1048 1.384 . S
C1046 H1037 0.929 . S
C1046 C1038 1.378 . S
C1046 C1041 1.350 . S
C1047 H1034 0.929 . S
C1047 C1039 1.433 . S
C1047 N1049 1.384 . S
N1048 C1044 1.427 . S
N1048 C1045 1.384 . S
N1049 C1041 1.427 . S
N1049 C1047 1.384 . S
H1050 C1056 0.930 . S
H1051 C1060 0.930 . S
H1052 C1065 0.929 . S
H1053 C1063 0.929 . S
H1054 C1058 0.929 . S
H1055 C1064 0.929 . S
C1056 H1050 0.930 . S
C1056 C1057 1.367 . S
C1056 C1064 1.378 . S
C1057 C1056 1.367 . S
C1057 C1065 1.433 . S
C1058 H1054 0.929 . S
C1058 C1060 1.378 . S
C1058 C1062 1.350 . S
C1059 C1062 1.463 . S
C1059 C1064 1.350 . S
C1059 N1067 1.427 . S
C1060 H1051 0.930 . S
C1060 C1058 1.378 . S
C1060 C1061 1.367 . S
C1061 C1060 1.367 . S
C1061 C1063 1.433 . S
C1062 C1058 1.350 . S
C1062 C1059 1.463 . S
C1062 N1066 1.427 . S
C1063 H1053 0.929 . S
C1063 C1061 1.433 . S
C1063 N1066 1.384 . S
C1064 H1055 0.929 . S
C1064 C1056 1.378 . S
C1064 C1059 1.350 . S
C1065 H1052 0.929 . S
C1065 C1057 1.433 . S
C1065 N1067 1.384 . S
N1066 C1062 1.427 . S
N1066 C1063 1.384 . S
N1067 C1059 1.427 . S
N1067 C1065 1.384 . S
H1068 C1074 0.930 . S
H1069 C1078 0.930 . S
H1070 C1083 0.929 . S
H1071 C1081 0.929 . S
H1072 C1076 0.929 . S
H1073 C1082 0.929 . S
C1074 H1068 0.930 . S
C1074 C1075 1.367 . S
C1074 C1082 1.378 . S
C1075 C1074 1.367 . S
C1075 C1083 1.433 . S
C1076 H1072 0.929 . S
C1076 C1078 1.378 . S
C1076 C1080 1.350 . S
C1077 C1080 1.463 . S
C1077 C1082 1.350 . S
C1077 N1085 1.427 . S
C1078 H1069 0.930 . S
C1078 C1076 1.378 . S
C1078 C1079 1.367 . S
C1079 C1078 1.367 . S
C1079 C1081 1.433 . S
C1080 C1076 1.350 . S
C1080 C1077 1.463 . S
C1080 N1084 1.427 . S
C1081 H1071 0.929 . S
C1081 C1079 1.433 . S
C1081 N1084 1.384 . S
C1082 H1073 0.929 . S
C1082 C1074 1.378 . S
C1082 C1077 1.350 . S
C1083 H1070 0.929 . S
C1083 C1075 1.433 . S
C1083 N1085 1.384 . S
N1084 C1080 1.427 . S
N1084 C1081 1.384 . S
N1085 C1077 1.427 . S
N1085 C1083 1.384 . S
H1086 C1092 0.930 . S
H1087 C1096 0.930 . S
H1088 C1101 0.929 . S
H1089 C1099 0.929 . S
H1090 C1094 0.929 . S
H1091 C1100 0.929 . S
C1092 H1086 0.930 . S
C1092 C1093 1.367 . S
C1092 C1100 1.378 . S
C1093 C1092 1.367 . S
C1093 C1101 1.433 . S
C1094 H1090 0.929 . S
C1094 C1096 1.378 . S
C1094 C1098 1.350 . S
C1095 C1098 1.463 . S
C1095 C1100 1.350 . S
C1095 N1103 1.427 . S
C1096 H1087 0.930 . S
C1096 C1094 1.378 . S
C1096 C1097 1.367 . S
C1097 C1096 1.367 . S
C1097 C1099 1.433 . S
C1098 C1094 1.350 . S
C1098 C1095 1.463 . S
C1098 N1102 1.427 . S
C1099 H1089 0.929 . S
C1099 C1097 1.433 . S
C1099 N1102 1.384 . S
C1100 H1091 0.929 . S
C1100 C1092 1.378 . S
C1100 C1095 1.350 . S
C1101 H1088 0.929 . S
C1101 C1093 1.433 . S
C1101 N1103 1.384 . S
N1102 C1098 1.427 . S
N1102 C1099 1.384 . S
N1103 C1095 1.427 . S
N1103 C1101 1.384 . S
H1104 C1110 0.930 . S
H1105 C1114 0.930 . S
H1106 C1119 0.929 . S
H1107 C1117 0.929 . S
H1108 C1112 0.929 . S
H1109 C1118 0.929 . S
C1110 H1104 0.930 . S
C1110 C1111 1.367 . S
C1110 C1118 1.378 . S
C1111 C1110 1.367 . S
C1111 C1119 1.433 . S
C1112 H1108 0.929 . S
C1112 C1114 1.378 . S
C1112 C1116 1.350 . S
C1113 C1116 1.463 . S
C1113 C1118 1.350 . S
C1113 N1121 1.427 . S
C1114 H1105 0.930 . S
C1114 C1112 1.378 . S
C1114 C1115 1.367 . S
C1115 C1114 1.367 . S
C1115 C1117 1.433 . S
C1116 C1112 1.350 . S
C1116 C1113 1.463 . S
C1116 N1120 1.427 . S
C1117 H1107 0.929 . S
C1117 C1115 1.433 . S
C1117 N1120 1.384 . S
C1118 H1109 0.929 . S
C1118 C1110 1.378 . S
C1118 C1113 1.350 . S
C1119 H1106 0.929 . S
C1119 C1111 1.433 . S
C1119 N1121 1.384 . S
N1120 C1116 1.427 . S
N1120 C1117 1.384 . S
N1121 C1113 1.427 . S
N1121 C1119 1.384 . S
H1122 C1128 0.930 . S
H1123 C1132 0.930 . S
H1124 C1137 0.929 . S
H1125 C1135 0.929 . S
H1126 C1130 0.929 . S
H1127 C1136 0.929 . S
C1128 H1122 0.930 . S
C1128 C1129 1.367 . S
C1128 C1136 1.378 . S
C1129 C1128 1.367 . S
C1129 C1137 1.433 1_545 S
C1130 H1126 0.929 . S
C1130 C1132 1.378 . S
C1130 C1134 1.350 . S
C1131 C1134 1.463 . S
C1131 C1136 1.350 1_565 S
C1131 N1139 1.427 . S
C1132 H1123 0.930 . S
C1132 C1130 1.378 . S
C1132 C1133 1.367 . S
C1133 C1132 1.367 . S
C1133 C1135 1.433 . S
C1134 C1130 1.350 . S
C1134 C1131 1.463 . S
C1134 N1138 1.427 . S
C1135 H1125 0.929 . S
C1135 C1133 1.433 . S
C1135 N1138 1.384 . S
C1136 H1127 0.929 . S
C1136 C1128 1.378 . S
C1136 C1131 1.350 1_545 S
C1137 H1124 0.929 . S
C1137 C1129 1.433 1_565 S
C1137 N1139 1.384 . S
N1138 C1134 1.427 . S
N1138 C1135 1.384 . S
N1139 C1131 1.427 . S
N1139 C1137 1.384 . S
H1140 C1146 0.930 . S
H1141 C1150 0.930 . S
H1142 C1155 0.929 . S
H1143 C1153 0.929 . S
H1144 C1148 0.929 . S
H1145 C1154 0.929 . S
C1146 H1140 0.930 . S
C1146 C1147 1.367 . S
C1146 C1154 1.378 . S
C1147 C1146 1.367 . S
C1147 C1155 1.433 . S
C1148 H1144 0.929 . S
C1148 C1150 1.378 . S
C1148 C1152 1.350 . S
C1149 C1152 1.463 . S
C1149 C1154 1.350 . S
C1149 N1157 1.427 . S
C1150 H1141 0.930 . S
C1150 C1148 1.378 . S
C1150 C1151 1.367 . S
C1151 C1150 1.367 . S
C1151 C1153 1.433 . S
C1152 C1148 1.350 . S
C1152 C1149 1.463 . S
C1152 N1156 1.427 . S
C1153 H1143 0.929 . S
C1153 C1151 1.433 . S
C1153 N1156 1.384 . S
C1154 H1145 0.929 . S
C1154 C1146 1.378 . S
C1154 C1149 1.350 . S
C1155 H1142 0.929 . S
C1155 C1147 1.433 . S
C1155 N1157 1.384 . S
N1156 C1152 1.427 . S
N1156 C1153 1.384 . S
N1157 C1149 1.427 . S
N1157 C1155 1.384 . S
H1158 C1164 0.930 . S
H1159 C1168 0.930 . S
H1160 C1173 0.929 . S
H1161 C1171 0.929 . S
H1162 C1166 0.929 . S
H1163 C1172 0.929 . S
C1164 H1158 0.930 . S
C1164 C1165 1.367 . S
C1164 C1172 1.378 . S
C1165 C1164 1.367 . S
C1165 C1173 1.433 . S
C1166 H1162 0.929 . S
C1166 C1168 1.378 . S
C1166 C1170 1.350 . S
C1167 C1170 1.463 . S
C1167 C1172 1.350 . S
C1167 N1175 1.427 . S
C1168 H1159 0.930 . S
C1168 C1166 1.378 . S
C1168 C1169 1.367 . S
C1169 C1168 1.367 . S
C1169 C1171 1.433 . S
C1170 C1166 1.350 . S
C1170 C1167 1.463 . S
C1170 N1174 1.427 . S
C1171 H1161 0.929 . S
C1171 C1169 1.433 . S
C1171 N1174 1.384 . S
C1172 H1163 0.929 . S
C1172 C1164 1.378 . S
C1172 C1167 1.350 . S
C1173 H1160 0.929 . S
C1173 C1165 1.433 . S
C1173 N1175 1.384 . S
N1174 C1170 1.427 . S
N1174 C1171 1.384 . S
N1175 C1167 1.427 . S
N1175 C1173 1.384 . S
H1176 C1182 0.930 . S
H1177 C1186 0.930 . S
H1178 C1191 0.929 . S
H1179 C1189 0.929 . S
H1180 C1184 0.929 . S
H1181 C1190 0.929 . S
C1182 H1176 0.930 . S
C1182 C1183 1.367 . S
C1182 C1190 1.378 . S
C1183 C1182 1.367 . S
C1183 C1191 1.433 . S
C1184 H1180 0.929 . S
C1184 C1186 1.378 . S
C1184 C1188 1.350 . S
C1185 C1188 1.463 . S
C1185 C1190 1.350 . S
C1185 N1193 1.427 . S
C1186 H1177 0.930 . S
C1186 C1184 1.378 . S
C1186 C1187 1.367 . S
C1187 C1186 1.367 . S
C1187 C1189 1.433 . S
C1188 C1184 1.350 . S
C1188 C1185 1.463 . S
C1188 N1192 1.427 . S
C1189 H1179 0.929 . S
C1189 C1187 1.433 . S
C1189 N1192 1.384 . S
C1190 H1181 0.929 . S
C1190 C1182 1.378 . S
C1190 C1185 1.350 . S
C1191 H1178 0.929 . S
C1191 C1183 1.433 . S
C1191 N1193 1.384 . S
N1192 C1188 1.427 . S
N1192 C1189 1.384 . S
N1193 C1185 1.427 . S
N1193 C1191 1.384 . S
H1194 C1200 0.930 . S
H1195 C1204 0.930 . S
H1196 C1209 0.929 . S
H1197 C1207 0.929 . S
H1198 C1202 0.929 . S
H1199 C1208 0.929 . S
C1200 H1194 0.930 . S
C1200 C1201 1.367 . S
C1200 C1208 1.378 . S
C1201 C1200 1.367 . S
C1201 C1209 1.433 . S
C1202 H1198 0.929 . S
C1202 C1204 1.378 . S
C1202 C1206 1.350 . S
C1203 C1206 1.463 . S
C1203 C1208 1.350 . S
C1203 N1211 1.427 . S
C1204 H1195 0.930 . S
C1204 C1202 1.378 . S
C1204 C1205 1.367 . S
C1205 C1204 1.367 . S
C1205 C1207 1.433 . S
C1206 C1202 1.350 . S
C1206 C1203 1.463 . S
C1206 N1210 1.427 . S
C1207 H1197 0.929 . S
C1207 C1205 1.433 . S
C1207 N1210 1.384 . S
C1208 H1199 0.929 . S
C1208 C1200 1.378 . S
C1208 C1203 1.350 . S
C1209 H1196 0.929 . S
C1209 C1201 1.433 . S
C1209 N1211 1.384 . S
N1210 C1206 1.427 . S
N1210 C1207 1.384 . S
N1211 C1203 1.427 . S
N1211 C1209 1.384 . S
H1212 C1218 0.930 . S
H1213 C1222 0.930 . S
H1214 C1227 0.929 . S
H1215 C1225 0.929 . S
H1216 C1220 0.929 . S
H1217 C1226 0.929 . S
C1218 H1212 0.930 . S
C1218 C1219 1.367 . S
C1218 C1226 1.378 . S
C1219 C1218 1.367 . S
C1219 C1227 1.433 . S
C1220 H1216 0.929 . S
C1220 C1222 1.378 . S
C1220 C1224 1.350 . S
C1221 C1224 1.463 . S
C1221 C1226 1.350 . S
C1221 N1229 1.427 . S
C1222 H1213 0.930 . S
C1222 C1220 1.378 . S
C1222 C1223 1.367 . S
C1223 C1222 1.367 . S
C1223 C1225 1.433 . S
C1224 C1220 1.350 . S
C1224 C1221 1.463 . S
C1224 N1228 1.427 . S
C1225 H1215 0.929 . S
C1225 C1223 1.433 . S
C1225 N1228 1.384 . S
C1226 H1217 0.929 . S
C1226 C1218 1.378 . S
C1226 C1221 1.350 . S
C1227 H1214 0.929 . S
C1227 C1219 1.433 . S
C1227 N1229 1.384 . S
N1228 C1224 1.427 . S
N1228 C1225 1.384 . S
N1229 C1221 1.427 . S
N1229 C1227 1.384 . S
H1230 C1236 0.930 . S
H1231 C1240 0.930 . S
H1232 C1245 0.929 . S
H1233 C1243 0.929 . S
H1234 C1238 0.929 . S
H1235 C1244 0.929 . S
C1236 H1230 0.930 . S
C1236 C1237 1.367 . S
C1236 C1244 1.378 . S
C1237 C1236 1.367 . S
C1237 C1245 1.433 . S
C1238 H1234 0.929 . S
C1238 C1240 1.378 . S
C1238 C1242 1.350 . S
C1239 C1242 1.463 . S
C1239 C1244 1.350 . S
C1239 N1247 1.427 . S
C1240 H1231 0.930 . S
C1240 C1238 1.378 . S
C1240 C1241 1.367 . S
C1241 C1240 1.367 . S
C1241 C1243 1.433 . S
C1242 C1238 1.350 . S
C1242 C1239 1.463 . S
C1242 N1246 1.427 . S
C1243 H1233 0.929 . S
C1243 C1241 1.433 . S
C1243 N1246 1.384 . S
C1244 H1235 0.929 . S
C1244 C1236 1.378 . S
C1244 C1239 1.350 . S
C1245 H1232 0.929 . S
C1245 C1237 1.433 . S
C1245 N1247 1.384 . S
N1246 C1242 1.427 . S
N1246 C1243 1.384 . S
N1247 C1239 1.427 . S
N1247 C1245 1.384 . S
H1248 C1254 0.930 . S
H1249 C1258 0.930 . S
H1250 C1263 0.929 . S
H1251 C1261 0.929 . S
H1252 C1256 0.929 . S
H1253 C1262 0.929 . S
C1254 H1248 0.930 . S
C1254 C1255 1.367 . S
C1254 C1262 1.378 . S
C1255 C1254 1.367 . S
C1255 C1263 1.433 . S
C1256 H1252 0.929 . S
C1256 C1258 1.378 . S
C1256 C1260 1.350 . S
C1257 C1260 1.463 . S
C1257 C1262 1.350 . S
C1257 N1265 1.427 . S
C1258 H1249 0.930 . S
C1258 C1256 1.378 . S
C1258 C1259 1.367 . S
C1259 C1258 1.367 . S
C1259 C1261 1.433 . S
C1260 C1256 1.350 . S
C1260 C1257 1.463 . S
C1260 N1264 1.427 . S
C1261 H1251 0.929 . S
C1261 C1259 1.433 . S
C1261 N1264 1.384 . S
C1262 H1253 0.929 . S
C1262 C1254 1.378 . S
C1262 C1257 1.350 . S
C1263 H1250 0.929 . S
C1263 C1255 1.433 . S
C1263 N1265 1.384 . S
N1264 C1260 1.427 . S
N1264 C1261 1.384 . S
N1265 C1257 1.427 . S
N1265 C1263 1.384 . S
H1266 C1272 0.930 . S
H1267 C1276 0.930 . S
H1268 C1281 0.929 . S
H1269 C1279 0.929 . S
H1270 C1274 0.929 . S
H1271 C1280 0.929 . S
C1272 H1266 0.930 . S
C1272 C1273 1.367 . S
C1272 C1280 1.378 . S
C1273 C1272 1.367 . S
C1273 C1281 1.433 . S
C1274 H1270 0.929 . S
C1274 C1276 1.378 . S
C1274 C1278 1.350 . S
C1275 C1278 1.463 . S
C1275 C1280 1.350 . S
C1275 N1283 1.427 . S
C1276 H1267 0.930 . S
C1276 C1274 1.378 . S
C1276 C1277 1.367 . S
C1277 C1276 1.367 . S
C1277 C1279 1.433 . S
C1278 C1274 1.350 . S
C1278 C1275 1.463 . S
C1278 N1282 1.427 . S
C1279 H1269 0.929 . S
C1279 C1277 1.433 . S
C1279 N1282 1.384 . S
C1280 H1271 0.929 . S
C1280 C1272 1.378 . S
C1280 C1275 1.350 . S
C1281 H1268 0.929 . S
C1281 C1273 1.433 . S
C1281 N1283 1.384 . S
N1282 C1278 1.427 . S
N1282 C1279 1.384 . S
N1283 C1275 1.427 . S
N1283 C1281 1.384 . S
H1284 C1290 0.930 . S
H1285 C1294 0.930 . S
H1286 C1299 0.929 . S
H1287 C1297 0.929 . S
H1288 C1292 0.929 . S
H1289 C1298 0.929 . S
C1290 H1284 0.930 . S
C1290 C1291 1.367 . S
C1290 C1298 1.378 . S
C1291 C1290 1.367 . S
C1291 C1299 1.433 . S
C1292 H1288 0.929 . S
C1292 C1294 1.378 . S
C1292 C1296 1.350 . S
C1293 C1296 1.463 . S
C1293 C1298 1.350 . S
C1293 N1301 1.427 . S
C1294 H1285 0.930 . S
C1294 C1292 1.378 . S
C1294 C1295 1.367 . S
C1295 C1294 1.367 . S
C1295 C1297 1.433 . S
C1296 C1292 1.350 . S
C1296 C1293 1.463 . S
C1296 N1300 1.427 . S
C1297 H1287 0.929 . S
C1297 C1295 1.433 . S
C1297 N1300 1.384 . S
C1298 H1289 0.929 . S
C1298 C1290 1.378 . S
C1298 C1293 1.350 . S
C1299 H1286 0.929 . S
C1299 C1291 1.433 . S
C1299 N1301 1.384 . S
N1300 C1296 1.427 . S
N1300 C1297 1.384 . S
N1301 C1293 1.427 . S
N1301 C1299 1.384 . S
H1302 C1308 0.930 . S
H1303 C1312 0.930 . S
H1304 C1317 0.929 . S
H1305 C1315 0.929 . S
H1306 C1310 0.929 . S
H1307 C1316 0.929 . S
C1308 H1302 0.930 . S
C1308 C1309 1.367 . S
C1308 C1316 1.378 . S
C1309 C1308 1.367 . S
C1309 C1317 1.433 . S
C1310 H1306 0.929 . S
C1310 C1312 1.378 . S
C1310 C1314 1.350 . S
C1311 C1314 1.463 . S
C1311 C1316 1.350 . S
C1311 N1319 1.427 . S
C1312 H1303 0.930 . S
C1312 C1310 1.378 . S
C1312 C1313 1.367 . S
C1313 C1312 1.367 . S
C1313 C1315 1.433 . S
C1314 C1310 1.350 . S
C1314 C1311 1.463 . S
C1314 N1318 1.427 . S
C1315 H1305 0.929 . S
C1315 C1313 1.433 . S
C1315 N1318 1.384 . S
C1316 H1307 0.929 . S
C1316 C1308 1.378 . S
C1316 C1311 1.350 . S
C1317 H1304 0.929 . S
C1317 C1309 1.433 . S
C1317 N1319 1.384 . S
N1318 C1314 1.427 . S
N1318 C1315 1.384 . S
N1319 C1311 1.427 . S
N1319 C1317 1.384 . S
H1320 C1326 0.930 . S
H1321 C1330 0.930 . S
H1322 C1335 0.929 . S
H1323 C1333 0.929 . S
H1324 C1328 0.929 . S
H1325 C1334 0.929 . S
C1326 H1320 0.930 . S
C1326 C1327 1.367 . S
C1326 C1334 1.378 . S
C1327 C1326 1.367 . S
C1327 C1335 1.433 . S
C1328 H1324 0.929 . S
C1328 C1330 1.378 . S
C1328 C1332 1.350 . S
C1329 C1332 1.463 . S
C1329 C1334 1.350 . S
C1329 N1337 1.427 . S
C1330 H1321 0.930 . S
C1330 C1328 1.378 . S
C1330 C1331 1.367 . S
C1331 C1330 1.367 . S
C1331 C1333 1.433 . S
C1332 C1328 1.350 . S
C1332 C1329 1.463 . S
C1332 N1336 1.427 . S
C1333 H1323 0.929 . S
C1333 C1331 1.433 . S
C1333 N1336 1.384 . S
C1334 H1325 0.929 . S
C1334 C1326 1.378 . S
C1334 C1329 1.350 . S
C1335 H1322 0.929 . S
C1335 C1327 1.433 . S
C1335 N1337 1.384 . S
N1336 C1332 1.427 . S
N1336 C1333 1.384 . S
N1337 C1329 1.427 . S
N1337 C1335 1.384 . S
H1338 C1344 0.930 . S
H1339 C1348 0.930 . S
H1340 C1353 0.929 . S
H1341 C1351 0.929 . S
H1342 C1346 0.929 . S
H1343 C1352 0.929 . S
C1344 H1338 0.930 . S
C1344 C1345 1.367 . S
C1344 C1352 1.378 . S
C1345 C1344 1.367 . S
C1345 C1353 1.433 . S
C1346 H1342 0.929 . S
C1346 C1348 1.378 . S
C1346 C1350 1.350 . S
C1347 C1350 1.463 . S
C1347 C1352 1.350 . S
C1347 N1355 1.427 . S
C1348 H1339 0.930 . S
C1348 C1346 1.378 . S
C1348 C1349 1.367 . S
C1349 C1348 1.367 . S
C1349 C1351 1.433 . S
C1350 C1346 1.350 . S
C1350 C1347 1.463 . S
C1350 N1354 1.427 . S
C1351 H1341 0.929 . S
C1351 C1349 1.433 . S
C1351 N1354 1.384 . S
C1352 H1343 0.929 . S
C1352 C1344 1.378 . S
C1352 C1347 1.350 . S
C1353 H1340 0.929 . S
C1353 C1345 1.433 . S
C1353 N1355 1.384 . S
N1354 C1350 1.427 . S
N1354 C1351 1.384 . S
N1355 C1347 1.427 . S
N1355 C1353 1.384 . S
H1356 C1362 0.930 . S
H1357 C1366 0.930 . S
H1358 C1371 0.929 . S
H1359 C1369 0.929 . S
H1360 C1364 0.929 . S
H1361 C1370 0.929 . S
C1362 H1356 0.930 . S
C1362 C1363 1.367 . S
C1362 C1370 1.378 . S
C1363 C1362 1.367 . S
C1363 C1371 1.433 . S
C1364 H1360 0.929 . S
C1364 C1366 1.378 . S
C1364 C1368 1.350 . S
C1365 C1368 1.463 . S
C1365 C1370 1.350 . S
C1365 N1373 1.427 . S
C1366 H1357 0.930 . S
C1366 C1364 1.378 . S
C1366 C1367 1.367 . S
C1367 C1366 1.367 . S
C1367 C1369 1.433 . S
C1368 C1364 1.350 . S
C1368 C1365 1.463 . S
C1368 N1372 1.427 . S
C1369 H1359 0.929 . S
C1369 C1367 1.433 . S
C1369 N1372 1.384 . S
C1370 H1361 0.929 . S
C1370 C1362 1.378 . S
C1370 C1365 1.350 . S
C1371 H1358 0.929 . S
C1371 C1363 1.433 . S
C1371 N1373 1.384 . S
N1372 C1368 1.427 . S
N1372 C1369 1.384 . S
N1373 C1365 1.427 . S
N1373 C1371 1.384 . S
H1374 C1380 0.930 . S
H1375 C1384 0.930 . S
H1376 C1389 0.929 . S
H1377 C1387 0.929 . S
H1378 C1382 0.929 . S
H1379 C1388 0.929 . S
C1380 H1374 0.930 . S
C1380 C1381 1.367 . S
C1380 C1388 1.378 . S
C1381 C1380 1.367 . S
C1381 C1389 1.433 . S
C1382 H1378 0.929 . S
C1382 C1384 1.378 . S
C1382 C1386 1.350 . S
C1383 C1386 1.463 . S
C1383 C1388 1.350 . S
C1383 N1391 1.427 . S
C1384 H1375 0.930 . S
C1384 C1382 1.378 . S
C1384 C1385 1.367 . S
C1385 C1384 1.367 . S
C1385 C1387 1.433 . S
C1386 C1382 1.350 . S
C1386 C1383 1.463 . S
C1386 N1390 1.427 . S
C1387 H1377 0.929 . S
C1387 C1385 1.433 . S
C1387 N1390 1.384 . S
C1388 H1379 0.929 . S
C1388 C1380 1.378 . S
C1388 C1383 1.350 . S
C1389 H1376 0.929 . S
C1389 C1381 1.433 . S
C1389 N1391 1.384 . S
N1390 C1386 1.427 . S
N1390 C1387 1.384 . S
N1391 C1383 1.427 . S
N1391 C1389 1.384 . S
H1392 C1398 0.930 . S
H1393 C1402 0.930 . S
H1394 C1407 0.929 . S
H1395 C1405 0.929 . S
H1396 C1400 0.929 1_655 S
H1397 C1406 0.929 . S
C1398 H1392 0.930 . S
C1398 C1399 1.367 . S
C1398 C1406 1.378 . S
C1399 C1398 1.367 . S
C1399 C1407 1.433 1_455 S
C1400 H1396 0.929 1_455 S
C1400 C1402 1.378 . S
C1400 C1404 1.350 . S
C1401 C1404 1.463 . S
C1401 C1406 1.350 . S
C1401 N1409 1.427 1_455 S
C1402 H1393 0.930 . S
C1402 C1400 1.378 . S
C1402 C1403 1.367 . S
C1403 C1402 1.367 . S
C1403 C1405 1.433 . S
C1404 C1400 1.350 . S
C1404 C1401 1.463 . S
C1404 N1408 1.427 . S
C1405 H1395 0.929 . S
C1405 C1403 1.433 . S
C1405 N1408 1.384 . S
C1406 H1397 0.929 . S
C1406 C1398 1.378 . S
C1406 C1401 1.350 . S
C1407 H1394 0.929 . S
C1407 C1399 1.433 1_655 S
C1407 N1409 1.384 . S
N1408 C1404 1.427 . S
N1408 C1405 1.384 . S
N1409 C1401 1.427 1_655 S
N1409 C1407 1.384 . S
H1410 C1416 0.930 . S
H1411 C1420 0.930 . S
H1412 C1425 0.929 . S
H1413 C1423 0.929 . S
H1414 C1418 0.929 . S
H1415 C1424 0.929 . S
C1416 H1410 0.930 . S
C1416 C1417 1.367 . S
C1416 C1424 1.378 . S
C1417 C1416 1.367 . S
C1417 C1425 1.433 . S
C1418 H1414 0.929 . S
C1418 C1420 1.378 . S
C1418 C1422 1.350 . S
C1419 C1422 1.463 . S
C1419 C1424 1.350 . S
C1419 N1427 1.427 . S
C1420 H1411 0.930 . S
C1420 C1418 1.378 . S
C1420 C1421 1.367 . S
C1421 C1420 1.367 . S
C1421 C1423 1.433 . S
C1422 C1418 1.350 . S
C1422 C1419 1.463 . S
C1422 N1426 1.427 . S
C1423 H1413 0.929 . S
C1423 C1421 1.433 . S
C1423 N1426 1.384 . S
C1424 H1415 0.929 . S
C1424 C1416 1.378 . S
C1424 C1419 1.350 . S
C1425 H1412 0.929 . S
C1425 C1417 1.433 . S
C1425 N1427 1.384 . S
N1426 C1422 1.427 . S
N1426 C1423 1.384 . S
N1427 C1419 1.427 . S
N1427 C1425 1.384 . S
H1428 C1434 0.930 . S
H1429 C1438 0.930 . S
H1430 C1443 0.929 . S
H1431 C1441 0.929 . S
H1432 C1436 0.929 . S
H1433 C1442 0.929 . S
C1434 H1428 0.930 . S
C1434 C1435 1.367 . S
C1434 C1442 1.378 . S
C1435 C1434 1.367 . S
C1435 C1443 1.433 . S
C1436 H1432 0.929 . S
C1436 C1438 1.378 . S
C1436 C1440 1.350 . S
C1437 C1440 1.463 . S
C1437 C1442 1.350 . S
C1437 N1445 1.427 . S
C1438 H1429 0.930 . S
C1438 C1436 1.378 . S
C1438 C1439 1.367 . S
C1439 C1438 1.367 . S
C1439 C1441 1.433 . S
C1440 C1436 1.350 . S
C1440 C1437 1.463 . S
C1440 N1444 1.427 . S
C1441 H1431 0.929 . S
C1441 C1439 1.433 . S
C1441 N1444 1.384 . S
C1442 H1433 0.929 . S
C1442 C1434 1.378 . S
C1442 C1437 1.350 . S
C1443 H1430 0.929 . S
C1443 C1435 1.433 . S
C1443 N1445 1.384 . S
N1444 C1440 1.427 . S
N1444 C1441 1.384 . S
N1445 C1437 1.427 . S
N1445 C1443 1.384 . S
H1446 C1452 0.930 . S
H1447 C1456 0.930 . S
H1448 C1461 0.929 . S
H1449 C1459 0.929 . S
H1450 C1454 0.929 . S
H1451 C1460 0.929 . S
C1452 H1446 0.930 . S
C1452 C1453 1.367 . S
C1452 C1460 1.378 . S
C1453 C1452 1.367 . S
C1453 C1461 1.433 . S
C1454 H1450 0.929 . S
C1454 C1456 1.378 . S
C1454 C1458 1.350 . S
C1455 C1458 1.463 . S
C1455 C1460 1.350 . S
C1455 N1463 1.427 . S
C1456 H1447 0.930 . S
C1456 C1454 1.378 . S
C1456 C1457 1.367 . S
C1457 C1456 1.367 . S
C1457 C1459 1.433 . S
C1458 C1454 1.350 . S
C1458 C1455 1.463 . S
C1458 N1462 1.427 . S
C1459 H1449 0.929 . S
C1459 C1457 1.433 . S
C1459 N1462 1.384 . S
C1460 H1451 0.929 . S
C1460 C1452 1.378 . S
C1460 C1455 1.350 . S
C1461 H1448 0.929 . S
C1461 C1453 1.433 . S
C1461 N1463 1.384 . S
N1462 C1458 1.427 . S
N1462 C1459 1.384 . S
N1463 C1455 1.427 . S
N1463 C1461 1.384 . S
H1464 C1470 0.930 . S
H1465 C1474 0.930 . S
H1466 C1479 0.929 . S
H1467 C1477 0.929 . S
H1468 C1472 0.929 . S
H1469 C1478 0.929 . S
C1470 H1464 0.930 . S
C1470 C1471 1.367 . S
C1470 C1478 1.378 . S
C1471 C1470 1.367 . S
C1471 C1479 1.433 . S
C1472 H1468 0.929 . S
C1472 C1474 1.378 . S
C1472 C1476 1.350 . S
C1473 C1476 1.463 . S
C1473 C1478 1.350 . S
C1473 N1481 1.427 . S
C1474 H1465 0.930 . S
C1474 C1472 1.378 . S
C1474 C1475 1.367 . S
C1475 C1474 1.367 . S
C1475 C1477 1.433 . S
C1476 C1472 1.350 . S
C1476 C1473 1.463 . S
C1476 N1480 1.427 . S
C1477 H1467 0.929 . S
C1477 C1475 1.433 . S
C1477 N1480 1.384 . S
C1478 H1469 0.929 . S
C1478 C1470 1.378 . S
C1478 C1473 1.350 . S
C1479 H1466 0.929 . S
C1479 C1471 1.433 . S
C1479 N1481 1.384 . S
N1480 C1476 1.427 . S
N1480 C1477 1.384 . S
N1481 C1473 1.427 . S
N1481 C1479 1.384 . S
H1482 C1488 0.930 . S
H1483 C1492 0.930 . S
H1484 C1497 0.929 . S
H1485 C1495 0.929 . S
H1486 C1490 0.929 . S
H1487 C1496 0.929 . S
C1488 H1482 0.930 . S
C1488 C1489 1.367 . S
C1488 C1496 1.378 . S
C1489 C1488 1.367 . S
C1489 C1497 1.433 . S
C1490 H1486 0.929 . S
C1490 C1492 1.378 . S
C1490 C1494 1.350 . S
C1491 C1494 1.463 . S
C1491 C1496 1.350 . S
C1491 N1499 1.427 . S
C1492 H1483 0.930 . S
C1492 C1490 1.378 . S
C1492 C1493 1.367 . S
C1493 C1492 1.367 . S
C1493 C1495 1.433 . S
C1494 C1490 1.350 . S
C1494 C1491 1.463 . S
C1494 N1498 1.427 . S
C1495 H1485 0.929 . S
C1495 C1493 1.433 . S
C1495 N1498 1.384 . S
C1496 H1487 0.929 . S
C1496 C1488 1.378 . S
C1496 C1491 1.350 . S
C1497 H1484 0.929 . S
C1497 C1489 1.433 . S
C1497 N1499 1.384 . S
N1498 C1494 1.427 . S
N1498 C1495 1.384 . S
N1499 C1491 1.427 . S
N1499 C1497 1.384 . S
H1500 C1506 0.930 . S
H1501 C1510 0.930 . S
H1502 C1515 0.929 . S
H1503 C1513 0.929 . S
H1504 C1508 0.929 . S
H1505 C1514 0.929 . S
C1506 H1500 0.930 . S
C1506 C1507 1.367 . S
C1506 C1514 1.378 . S
C1507 C1506 1.367 . S
C1507 C1515 1.433 . S
C1508 H1504 0.929 . S
C1508 C1510 1.378 . S
C1508 C1512 1.350 . S
C1509 C1512 1.463 . S
C1509 C1514 1.350 . S
C1509 N1517 1.427 . S
C1510 H1501 0.930 . S
C1510 C1508 1.378 . S
C1510 C1511 1.367 . S
C1511 C1510 1.367 . S
C1511 C1513 1.433 . S
C1512 C1508 1.350 . S
C1512 C1509 1.463 . S
C1512 N1516 1.427 . S
C1513 H1503 0.929 . S
C1513 C1511 1.433 . S
C1513 N1516 1.384 . S
C1514 H1505 0.929 . S
C1514 C1506 1.378 . S
C1514 C1509 1.350 . S
C1515 H1502 0.929 . S
C1515 C1507 1.433 . S
C1515 N1517 1.384 . S
N1516 C1512 1.427 . S
N1516 C1513 1.384 . S
N1517 C1509 1.427 . S
N1517 C1515 1.384 . S
H1518 C1524 0.930 . S
H1519 C1528 0.930 . S
H1520 C1533 0.929 . S
H1521 C1531 0.929 . S
H1522 C1526 0.929 . S
H1523 C1532 0.929 . S
C1524 H1518 0.930 . S
C1524 C1525 1.367 . S
C1524 C1532 1.378 . S
C1525 C1524 1.367 . S
C1525 C1533 1.433 . S
C1526 H1522 0.929 . S
C1526 C1528 1.378 . S
C1526 C1530 1.350 . S
C1527 C1530 1.463 1_554 S
C1527 C1532 1.350 . S
C1527 N1535 1.427 . S
C1528 H1519 0.930 . S
C1528 C1526 1.378 . S
C1528 C1529 1.367 . S
C1529 C1528 1.367 . S
C1529 C1531 1.433 . S
C1530 C1526 1.350 . S
C1530 C1527 1.463 1_556 S
C1530 N1534 1.427 . S
C1531 H1521 0.929 . S
C1531 C1529 1.433 . S
C1531 N1534 1.384 . S
C1532 H1523 0.929 . S
C1532 C1524 1.378 . S
C1532 C1527 1.350 . S
C1533 H1520 0.929 . S
C1533 C1525 1.433 . S
C1533 N1535 1.384 . S
N1534 C1530 1.427 . S
N1534 C1531 1.384 . S
N1535 C1527 1.427 . S
N1535 C1533 1.384 . S
H1536 C1542 0.930 . S
H1537 C1546 0.930 . S
H1538 C1551 0.929 . S
H1539 C1549 0.857 1_554 S
H1540 C1544 0.929 . S
H1541 C1550 0.929 . S
C1542 H1536 0.930 . S
C1542 C1543 1.367 . S
C1542 C1550 1.378 . S
C1543 C1542 1.367 . S
C1543 C1551 1.433 . S
C1544 H1540 0.929 . S
C1544 C1546 1.378 . S
C1544 C1548 1.350 . S
C1545 C1548 1.463 . S
C1545 C1550 1.350 . S
C1545 N1553 1.427 . S
C1546 H1537 0.930 . S
C1546 C1544 1.378 . S
C1546 C1547 1.367 1_556 S
C1547 C1546 1.367 1_554 S
C1547 C1549 1.434 1_554 S
C1548 C1544 1.350 . S
C1548 C1545 1.463 . S
C1548 N1552 1.427 . S
C1549 H1539 0.857 1_556 S
C1549 C1547 1.434 1_556 S
C1549 N1552 1.465 . S
C1550 H1541 0.929 . S
C1550 C1542 1.378 . S
C1550 C1545 1.350 . S
C1551 H1538 0.929 . S
C1551 C1543 1.433 . S
C1551 N1553 1.384 . S
N1552 C1548 1.427 . S
N1552 C1549 1.465 . S
N1553 C1545 1.427 . S
N1553 C1551 1.384 . S
H1554 C1560 0.930 . S
H1555 C1564 0.930 . S
H1556 C1569 0.929 . S
H1557 C1567 0.929 . S
H1558 C1562 0.929 . S
H1559 C1568 0.929 . S
C1560 H1554 0.930 . S
C1560 C1561 1.367 . S
C1560 C1568 1.378 . S
C1561 C1560 1.367 . S
C1561 C1569 1.433 . S
C1562 H1558 0.929 . S
C1562 C1564 1.378 . S
C1562 C1566 1.350 . S
C1563 C1566 1.463 . S
C1563 C1568 1.350 . S
C1563 N1571 1.427 . S
C1564 H1555 0.930 . S
C1564 C1562 1.378 . S
C1564 C1565 1.367 . S
C1565 C1564 1.367 . S
C1565 C1567 1.433 . S
C1566 C1562 1.350 . S
C1566 C1563 1.463 . S
C1566 N1570 1.427 . S
C1567 H1557 0.929 . S
C1567 C1565 1.433 . S
C1567 N1570 1.384 . S
C1568 H1559 0.929 . S
C1568 C1560 1.378 . S
C1568 C1563 1.350 . S
C1569 H1556 0.929 . S
C1569 C1561 1.433 . S
C1569 N1571 1.384 . S
N1570 C1566 1.427 . S
N1570 C1567 1.384 . S
N1571 C1563 1.427 . S
N1571 C1569 1.384 . S
H1572 C1578 0.930 . S
H1573 C1582 0.930 . S
H1574 C1587 0.929 . S
H1575 C1585 0.929 . S
H1576 C1580 0.929 . S
H1577 C1586 0.929 . S
C1578 H1572 0.930 . S
C1578 C1579 1.367 . S
C1578 C1586 1.378 . S
C1579 C1578 1.367 . S
C1579 C1587 1.433 . S
C1580 H1576 0.929 . S
C1580 C1582 1.378 . S
C1580 C1584 1.350 . S
C1581 C1584 1.463 . S
C1581 C1586 1.350 . S
C1581 N1589 1.427 . S
C1582 H1573 0.930 . S
C1582 C1580 1.378 . S
C1582 C1583 1.367 . S
C1583 C1582 1.367 . S
C1583 C1585 1.433 . S
C1584 C1580 1.350 . S
C1584 C1581 1.463 . S
C1584 N1588 1.427 . S
C1585 H1575 0.929 . S
C1585 C1583 1.433 . S
C1585 N1588 1.384 . S
C1586 H1577 0.929 . S
C1586 C1578 1.378 . S
C1586 C1581 1.350 . S
C1587 H1574 0.929 . S
C1587 C1579 1.433 . S
C1587 N1589 1.384 . S
N1588 C1584 1.427 . S
N1588 C1585 1.384 . S
N1589 C1581 1.427 . S
N1589 C1587 1.384 . S
H1590 C1596 0.930 . S
H1591 C1600 0.930 . S
H1592 C1605 0.929 . S
H1593 C1603 0.929 . S
H1594 C1598 0.929 . S
H1595 C1604 0.929 . S
C1596 H1590 0.930 . S
C1596 C1597 1.367 . S
C1596 C1604 1.378 . S
C1597 C1596 1.367 . S
C1597 C1605 1.433 . S
C1598 H1594 0.929 . S
C1598 C1600 1.378 . S
C1598 C1602 1.350 . S
C1599 C1602 1.463 . S
C1599 C1604 1.350 . S
C1599 N1607 1.427 . S
C1600 H1591 0.930 . S
C1600 C1598 1.378 . S
C1600 C1601 1.367 . S
C1601 C1600 1.367 . S
C1601 C1603 1.433 . S
C1602 C1598 1.350 . S
C1602 C1599 1.463 . S
C1602 N1606 1.427 . S
C1603 H1593 0.929 . S
C1603 C1601 1.433 . S
C1603 N1606 1.384 . S
C1604 H1595 0.929 . S
C1604 C1596 1.378 . S
C1604 C1599 1.350 . S
C1605 H1592 0.929 . S
C1605 C1597 1.433 . S
C1605 N1607 1.384 . S
N1606 C1602 1.427 . S
N1606 C1603 1.384 . S
N1607 C1599 1.427 . S
N1607 C1605 1.384 . S
C967 C162 1.397 . S
C971 C2 1.460 . S
C985 C202 1.311 . S
C989 C61 1.310 . S
C1003 C82 1.863 . S
C1007 C261 1.683 . S
C1021 C122 1.668 . S
C1025 C301 1.844 . S
C1039 C42 1.625 . S
C1043 C341 1.781 . S
C1057 C381 1.316 . S
C1061 C101 1.397 . S
C1075 C141 1.377 . S
C1079 C421 1.452 . S
C1093 C442 1.592 . S
C1097 C21 1.748 . S
C1111 C181 1.563 . S
C1115 C461 1.562 . S
C1129 C322 1.790 . S
C1133 C221 1.624 . S
C1147 C242 1.692 . S
C1151 C362 1.695 . S
C1165 C282 1.855 . S
C1169 C402 1.851 . S
C1183 C482 1.326 . S
C1187 C741 1.297 . S
C1201 C762 1.857 . S
C1205 C541 1.691 . S
C1219 C802 1.665 . S
C1223 C581 1.842 . S
C1237 C621 1.461 . S
C1241 C821 1.373 . S
C1255 C661 1.779 . S
C1259 C722 1.628 . S
C1273 C842 1.391 . S
C1277 C682 1.457 . S
C1291 C781 1.399 . S
C1295 C901 1.311 . S
C1309 C701 1.755 . S
C1313 C922 1.586 . S
C1327 C861 1.567 . S
C1331 C941 1.545 . S
C1345 C501 1.626 . S
C1349 C642 1.792 . S
C1363 C882 1.692 . S
C1367 C522 1.701 . S
C1381 C602 1.836 . S
C1385 C562 1.846 . S
C1399 C15 2.428 . S
C1403 C775 2.445 . S
C1417 C55 2.445 . S
C1421 C815 2.430 . S
C1435 C695 2.455 . S
C1439 C95 2.449 . S
C1453 C135 2.436 . S
C1457 C735 2.448 . S
C1471 C335 2.452 . S
C1475 C175 2.445 . S
C1489 C215 2.266 . S
C1493 C375 2.256 . S
C1507 C415 2.125 . S
C1511 C255 2.122 . S
C1525 C455 2.395 . S
C1529 C295 2.414 . S
C1543 C495 2.268 . S
C1547 C895 2.262 . S
C1561 C535 2.119 . S
C1565 C615 2.132 . S
C1579 C935 2.397 . S
C1583 C575 2.415 . S
C1597 C855 2.452 . S
C1601 C655 2.459 . S
