# Generated by pormake.
# Topology pcl, (4)-cn, num edge types: 1
# Building blocks:
#     Node 0, Type 0, BuildingBlock: NAHDIM_clean_sbu_0, # of connection points: 4
#     Node 1, Type 0, BuildingBlock: NAHDIM_clean_sbu_0, # of connection points: 4
#     Node 2, Type 0, BuildingBlock: NAHDIM_clean_sbu_0, # of connection points: 4
#     Node 3, Type 0, BuildingBlock: NAHDIM_clean_sbu_0, # of connection points: 4
#     Node 4, Type 0, BuildingBlock: NAHDIM_clean_sbu_0, # of connection points: 4
#     Node 5, Type 0, BuildingBlock: NAHDIM_clean_sbu_0, # of connection points: 4
#     Node 6, Type 0, BuildingBlock: NAHDIM_clean_sbu_0, # of connection points: 4
#     Node 7, Type 0, BuildingBlock: NAHDIM_clean_sbu_0, # of connection points: 4
#     Node 8, Type 0, BuildingBlock: NAHDIM_clean_sbu_0, # of connection points: 4
#     Node 9, Type 0, BuildingBlock: NAHDIM_clean_sbu_0, # of connection points: 4
#     Node 10, Type 0, BuildingBlock: NAHDIM_clean_sbu_0, # of connection points: 4
#     Node 11, Type 0, BuildingBlock: NAHDIM_clean_sbu_0, # of connection points: 4
#     Node 12, Type 0, BuildingBlock: NAHDIM_clean_sbu_0, # of connection points: 4
#     Node 13, Type 0, BuildingBlock: NAHDIM_clean_sbu_0, # of connection points: 4
#     Node 14, Type 0, BuildingBlock: NAHDIM_clean_sbu_0, # of connection points: 4
#     Node 15, Type 0, BuildingBlock: NAHDIM_clean_sbu_0, # of connection points: 4
#     Edge 16, Type (0, 0), BuildingBlock: UVAHIK_clean_linker_0, # of connection points: 2
#     Edge 17, Type (0, 0), BuildingBlock: UVAHIK_clean_linker_0, # of connection points: 2
#     Edge 18, Type (0, 0), BuildingBlock: UVAHIK_clean_linker_0, # of connection points: 2
#     Edge 19, Type (0, 0), BuildingBlock: UVAHIK_clean_linker_0, # of connection points: 2
#     Edge 20, Type (0, 0), BuildingBlock: UVAHIK_clean_linker_0, # of connection points: 2
#     Edge 21, Type (0, 0), BuildingBlock: UVAHIK_clean_linker_0, # of connection points: 2
#     Edge 22, Type (0, 0), BuildingBlock: UVAHIK_clean_linker_0, # of connection points: 2
#     Edge 23, Type (0, 0), BuildingBlock: UVAHIK_clean_linker_0, # of connection points: 2
#     Edge 24, Type (0, 0), BuildingBlock: UVAHIK_clean_linker_0, # of connection points: 2
#     Edge 25, Type (0, 0), BuildingBlock: UVAHIK_clean_linker_0, # of connection points: 2
#     Edge 26, Type (0, 0), BuildingBlock: UVAHIK_clean_linker_0, # of connection points: 2
#     Edge 27, Type (0, 0), BuildingBlock: UVAHIK_clean_linker_0, # of connection points: 2
#     Edge 28, Type (0, 0), BuildingBlock: UVAHIK_clean_linker_0, # of connection points: 2
#     Edge 29, Type (0, 0), BuildingBlock: UVAHIK_clean_linker_0, # of connection points: 2
#     Edge 30, Type (0, 0), BuildingBlock: UVAHIK_clean_linker_0, # of connection points: 2
#     Edge 31, Type (0, 0), BuildingBlock: UVAHIK_clean_linker_0, # of connection points: 2
#     Edge 32, Type (0, 0), BuildingBlock: UVAHIK_clean_linker_0, # of connection points: 2
#     Edge 33, Type (0, 0), BuildingBlock: UVAHIK_clean_linker_0, # of connection points: 2
#     Edge 34, Type (0, 0), BuildingBlock: UVAHIK_clean_linker_0, # of connection points: 2
#     Edge 35, Type (0, 0), BuildingBlock: UVAHIK_clean_linker_0, # of connection points: 2
#     Edge 36, Type (0, 0), BuildingBlock: UVAHIK_clean_linker_0, # of connection points: 2
#     Edge 37, Type (0, 0), BuildingBlock: UVAHIK_clean_linker_0, # of connection points: 2
#     Edge 38, Type (0, 0), BuildingBlock: UVAHIK_clean_linker_0, # of connection points: 2
#     Edge 39, Type (0, 0), BuildingBlock: UVAHIK_clean_linker_0, # of connection points: 2
#     Edge 40, Type (0, 0), BuildingBlock: UVAHIK_clean_linker_0, # of connection points: 2
#     Edge 41, Type (0, 0), BuildingBlock: UVAHIK_clean_linker_0, # of connection points: 2
#     Edge 42, Type (0, 0), BuildingBlock: UVAHIK_clean_linker_0, # of connection points: 2
#     Edge 43, Type (0, 0), BuildingBlock: UVAHIK_clean_linker_0, # of connection points: 2
#     Edge 44, Type (0, 0), BuildingBlock: UVAHIK_clean_linker_0, # of connection points: 2
#     Edge 45, Type (0, 0), BuildingBlock: UVAHIK_clean_linker_0, # of connection points: 2
#     Edge 46, Type (0, 0), BuildingBlock: UVAHIK_clean_linker_0, # of connection points: 2
#     Edge 47, Type (0, 0), BuildingBlock: UVAHIK_clean_linker_0, # of connection points: 2
# Relax obj value: 0.090
# Max RMSD: 0.096
# Mean RMSD: 0.087
data_MOF--net-pcl--node1-NAHDIM_clean_sbu_0--edge1-UVAHIK_clean_linker_0
_symmetry_space_group_name_H-M    P1
_symmetry_Int_Tables_number       1
_symmetry_cell_setting            triclinic
loop_
_symmetry_equiv_pos_as_xyz
'x, y, z'
_cell_length_a     61.812266
_cell_length_b     61.428157
_cell_length_c     55.05367
_cell_angle_alpha  90.00031
_cell_angle_beta   90.023621
_cell_angle_gamma 90.011758
loop_
_atom_site_label
_atom_site_type_symbol
_atom_site_fract_x
_atom_site_fract_y
_atom_site_fract_z
_atom_type_partial_charge
C0 C 0.20556 0.33476 0.05316 0.0
O1 O 0.21463 0.35108 0.06474 0.0
O2 O 0.17927 0.35924 0.10461 0.0
Zn3 Zn 0.16769 0.35555 0.07067 0.0
O4 O 0.16927 0.38351 0.05208 0.0
C5 C 0.12541 0.34779 0.0914 0.0
O6 O 0.13501 0.35394 0.11156 0.0
O7 O 0.18508 0.33306 0.0532 0.0
C8 C 0.16053 0.40072 0.06027 0.0
O9 O 0.15085 0.40024 0.08151 0.0
C10 C 0.19106 0.37492 0.11181 0.0
O11 O 0.19718 0.38998 0.09634 0.0
O12 O 0.13635 0.34671 0.07189 0.0
C13 C 0.77886 0.66322 0.566 0.0
O14 O 0.76803 0.64747 0.57662 0.0
O15 O 0.8011 0.62951 0.61171 0.0
Zn16 Zn 0.81414 0.63601 0.57896 0.0
O17 O 0.81097 0.61067 0.55627 0.0
C18 C 0.85607 0.63557 0.60178 0.0
O19 O 0.84537 0.62526 0.61887 0.0
O20 O 0.79933 0.66195 0.56471 0.0
C21 C 0.81909 0.5924 0.56204 0.0
O22 O 0.82909 0.59036 0.58298 0.0
C23 C 0.78947 0.61318 0.61728 0.0
O24 O 0.7842 0.59888 0.60056 0.0
O25 O 0.84599 0.64213 0.58302 0.0
C26 C 0.2138 0.66492 0.92633 0.0
O27 O 0.22323 0.6503 0.9125 0.0
O28 O 0.18666 0.63928 0.87624 0.0
Zn29 Zn 0.17538 0.64313 0.91024 0.0
O30 O 0.17569 0.61499 0.92867 0.0
C31 C 0.13262 0.64911 0.8906 0.0
O32 O 0.14091 0.63839 0.87217 0.0
O33 O 0.19331 0.66503 0.92804 0.0
C34 C 0.16758 0.59775 0.91974 0.0
O35 O 0.15939 0.5982 0.89772 0.0
C36 C 0.19874 0.62382 0.86907 0.0
O37 O 0.2055 0.60915 0.88468 0.0
O38 O 0.14451 0.65342 0.90882 0.0
C39 C 0.78434 0.33138 0.44621 0.0
O40 O 0.77473 0.34718 0.43428 0.0
O41 O 0.80927 0.34428 0.38756 0.0
Zn42 Zn 0.81995 0.34927 0.42155 0.0
O43 O 0.81425 0.37957 0.43334 0.0
C44 C 0.86354 0.34803 0.40423 0.0
O45 O 0.85411 0.35508 0.38433 0.0
O46 O 0.80459 0.32873 0.44371 0.0
C47 C 0.81925 0.39689 0.42207 0.0
O48 O 0.82825 0.3956 0.40051 0.0
C49 C 0.79554 0.35585 0.37623 0.0
O50 O 0.78682 0.3728 0.38696 0.0
O51 O 0.85202 0.34402 0.42282 0.0
C52 C 0.8253 0.66587 0.90994 0.0
O53 O 0.81438 0.65176 0.89685 0.0
O54 O 0.86028 0.61324 0.92233 0.0
Zn55 Zn 0.86062 0.63758 0.89811 0.0
O56 O 0.84538 0.62915 0.86733 0.0
C57 C 0.90229 0.6549 0.90772 0.0
O58 O 0.89261 0.65997 0.92819 0.0
O59 O 0.84553 0.66328 0.91275 0.0
C60 C 0.8428 0.60979 0.85973 0.0
O61 O 0.85113 0.5935 0.87203 0.0
C62 C 0.84309 0.60328 0.92835 0.0
O63 O 0.82467 0.60866 0.91809 0.0
O64 O 0.89155 0.64523 0.89125 0.0
C65 C 0.17215 0.33067 0.42261 0.0
O66 O 0.18411 0.34424 0.40998 0.0
O67 O 0.14373 0.38591 0.42706 0.0
Zn68 Zn 0.13884 0.35929 0.40664 0.0
O69 O 0.15231 0.36278 0.37371 0.0
C70 C 0.09555 0.3497 0.42119 0.0
O71 O 0.10505 0.34721 0.44237 0.0
O72 O 0.15185 0.33365 0.42361 0.0
C73 C 0.15163 0.38072 0.36225 0.0
O74 O 0.1417 0.39747 0.37204 0.0
C75 C 0.16075 0.39747 0.42598 0.0
O76 O 0.17629 0.39208 0.41087 0.0
O77 O 0.10694 0.35477 0.40285 0.0
C78 C 0.81939 0.34536 0.05552 0.0
O79 O 0.80685 0.36021 0.06536 0.0
O80 O 0.84714 0.3967 0.07057 0.0
Zn81 Zn 0.85118 0.36683 0.08433 0.0
O82 O 0.83536 0.36439 0.11589 0.0
C83 C 0.89474 0.35687 0.0714 0.0
O84 O 0.88617 0.35682 0.04955 0.0
O85 O 0.83935 0.34503 0.06094 0.0
C86 C 0.83165 0.3457 0.12483 0.0
O87 O 0.83832 0.32832 0.11309 0.0
C88 C 0.85999 0.41213 0.07585 0.0
O89 O 0.87614 0.40844 0.09082 0.0
O90 O 0.88272 0.36082 0.08958 0.0
C91 C 0.16379 0.66543 0.56739 0.0
O92 O 0.17453 0.65392 0.58347 0.0
O93 O 0.13509 0.60861 0.55895 0.0
Zn94 Zn 0.13058 0.63508 0.57971 0.0
O95 O 0.14474 0.63109 0.61239 0.0
C96 C 0.08824 0.63239 0.6015 0.0
O97 O 0.0987 0.62098 0.61791 0.0
O98 O 0.14421 0.66061 0.56286 0.0
C99 C 0.14864 0.61269 0.62204 0.0
O100 O 0.14256 0.59482 0.61085 0.0
C101 C 0.15362 0.59997 0.55641 0.0
O102 O 0.17035 0.60842 0.56772 0.0
O103 O 0.0986 0.64024 0.58359 0.0
C104 C 0.71834 0.82763 0.05468 0.0
O105 O 0.72958 0.84322 0.06505 0.0
O106 O 0.69457 0.84683 0.11326 0.0
Zn107 Zn 0.68417 0.84953 0.07879 0.0
O108 O 0.69099 0.87881 0.06447 0.0
C109 C 0.64066 0.85342 0.09556 0.0
O110 O 0.65052 0.86337 0.11356 0.0
O111 O 0.69806 0.82674 0.05819 0.0
C112 C 0.6884 0.89675 0.07558 0.0
O113 O 0.68131 0.89671 0.09806 0.0
C114 C 0.70946 0.85806 0.12308 0.0
O115 O 0.72017 0.8724 0.11011 0.0
O116 O 0.65187 0.84564 0.07828 0.0
C117 C 0.27755 0.16076 0.55735 0.0
O118 O 0.26695 0.14566 0.56936 0.0
O119 O 0.30752 0.13588 0.60864 0.0
Zn120 Zn 0.31447 0.13628 0.57298 0.0
O121 O 0.30789 0.10784 0.55681 0.0
C122 C 0.35757 0.15083 0.58537 0.0
O123 O 0.34819 0.15708 0.60561 0.0
O124 O 0.29806 0.16002 0.55658 0.0
C125 C 0.31628 0.09034 0.5647 0.0
O126 O 0.32859 0.09095 0.58416 0.0
C127 C 0.29695 0.12149 0.62022 0.0
O128 O 0.28843 0.10495 0.60851 0.0
O129 O 0.34627 0.14188 0.56887 0.0
C130 C 0.71957 0.16595 0.93422 0.0
O131 O 0.73019 0.15 0.92369 0.0
O132 O 0.68906 0.13393 0.88979 0.0
Zn133 Zn 0.68348 0.13795 0.92547 0.0
O134 O 0.6925 0.11177 0.94465 0.0
C135 C 0.63992 0.15193 0.91516 0.0
O136 O 0.64888 0.15966 0.89532 0.0
O137 O 0.69927 0.16428 0.9371 0.0
C138 C 0.68449 0.09342 0.939 0.0
O139 O 0.67112 0.09214 0.92049 0.0
C140 C 0.70109 0.1195 0.88024 0.0
O141 O 0.71154 0.10566 0.89413 0.0
O142 O 0.65166 0.14225 0.93072 0.0
C143 C 0.28267 0.82344 0.42921 0.0
O144 O 0.27334 0.8381 0.41535 0.0
O145 O 0.31427 0.84867 0.38048 0.0
Zn146 Zn 0.3203 0.8476 0.41634 0.0
O147 O 0.31312 0.87573 0.43283 0.0
C148 C 0.36377 0.83298 0.40562 0.0
O149 O 0.35484 0.82594 0.38544 0.0
O150 O 0.30306 0.82398 0.432 0.0
C151 C 0.32002 0.89392 0.42506 0.0
O152 O 0.33153 0.89458 0.40502 0.0
C153 C 0.30207 0.86214 0.36956 0.0
O154 O 0.29144 0.87685 0.38208 0.0
O155 O 0.35203 0.84223 0.4215 0.0
C156 C 0.33005 0.17141 0.92956 0.0
O157 O 0.32008 0.15793 0.9148 0.0
O158 O 0.35905 0.11637 0.93654 0.0
Zn159 Zn 0.36529 0.14375 0.91783 0.0
O160 O 0.35489 0.14122 0.88342 0.0
C161 C 0.40847 0.14571 0.93667 0.0
O162 O 0.39878 0.13885 0.95648 0.0
O163 O 0.35007 0.1687 0.93378 0.0
C164 C 0.35594 0.12375 0.87114 0.0
O165 O 0.36446 0.10625 0.88098 0.0
C166 C 0.34214 0.10491 0.93357 0.0
O167 O 0.32765 0.11085 0.91742 0.0
O168 O 0.39728 0.14916 0.9177 0.0
C169 C 0.67176 0.83668 0.43973 0.0
O170 O 0.68339 0.84897 0.42521 0.0
O171 O 0.64069 0.89071 0.43389 0.0
Zn172 Zn 0.63759 0.86124 0.41844 0.0
O173 O 0.65181 0.85992 0.38571 0.0
C174 C 0.59345 0.85641 0.43278 0.0
O175 O 0.60132 0.86339 0.45354 0.0
O176 O 0.65135 0.83899 0.44003 0.0
C177 C 0.6531 0.87592 0.37117 0.0
O178 O 0.64463 0.89474 0.37734 0.0
C179 C 0.65767 0.90232 0.43266 0.0
O180 O 0.67442 0.89527 0.42028 0.0
O181 O 0.6061 0.85417 0.41478 0.0
C182 C 0.33128 0.82946 0.05661 0.0
O183 O 0.32099 0.84073 0.07327 0.0
O184 O 0.3599 0.88663 0.05196 0.0
Zn185 Zn 0.36525 0.85859 0.06967 0.0
O186 O 0.35372 0.85948 0.10387 0.0
C187 C 0.40871 0.86445 0.08552 0.0
O188 O 0.3992 0.87896 0.09941 0.0
O189 O 0.35083 0.83415 0.05177 0.0
C190 C 0.34915 0.87662 0.11573 0.0
O191 O 0.35213 0.89577 0.10566 0.0
C192 C 0.3416 0.89598 0.05069 0.0
O193 O 0.32482 0.88727 0.06163 0.0
O194 O 0.3973 0.85333 0.07086 0.0
C195 C 0.66651 0.16907 0.57803 0.0
O196 O 0.67709 0.15515 0.5917 0.0
O197 O 0.63755 0.11408 0.56595 0.0
Zn198 Zn 0.63188 0.1397 0.58769 0.0
O199 O 0.6433 0.1345 0.62129 0.0
C200 C 0.58918 0.14485 0.5694 0.0
O201 O 0.59931 0.14122 0.54882 0.0
O202 O 0.64657 0.16589 0.57377 0.0
C203 C 0.64409 0.11602 0.6316 0.0
O204 O 0.63661 0.09879 0.62023 0.0
C205 C 0.65499 0.10315 0.56618 0.0
O206 O 0.67045 0.1084 0.58148 0.0
O207 O 0.59995 0.14509 0.58905 0.0
C208 C 0.08956 0.34587 0.1124 0.0
C209 C 0.10177 0.34415 0.09096 0.0
C210 C 0.06702 0.34435 0.11168 0.0
C211 C 0.02088 0.3271 0.07311 0.0
H212 H 0.98959 0.37081 0.10983 0.0
C213 C 0.93148 0.3486 0.05466 0.0
C214 C 0.91813 0.35286 0.07476 0.0
C215 C 0.95369 0.34541 0.05776 0.0
C216 C 0.99804 0.35828 0.09975 0.0
H217 H 0.09994 0.33872 0.05206 0.0
H218 H 0.06064 0.33634 0.05078 0.0
H219 H 0.02876 0.36853 0.11343 0.0
H220 H 0.91756 0.35672 0.11394 0.0
H221 H 0.95629 0.35105 0.11933 0.0
H222 H 0.9901 0.31716 0.05908 0.0
C223 C 0.06848 0.33863 0.06819 0.0
C224 C 0.0205 0.35695 0.10183 0.0
C225 C 0.09102 0.34012 0.06891 0.0
C226 C 0.92741 0.35357 0.09806 0.0
C227 C 0.94961 0.35041 0.10115 0.0
C228 C -0.00161 0.32845 0.071 0.0
C229 C 0.0562 0.3411 0.08951 0.0
C230 C 0.03221 0.34148 0.08838 0.0
C231 C 0.96302 0.34646 0.08101 0.0
C232 C 0.98675 0.34419 0.08413 0.0
H233 H 0.09735 0.34882 0.12971 0.0
H234 H 0.05805 0.34595 0.12848 0.0
H235 H 0.02941 0.3148 0.06276 0.0
H236 H 0.92484 0.34795 0.03646 0.0
H237 H 0.96362 0.34266 0.04185 0.0
C238 C 0.89095 0.63 0.62396 0.0
C239 C 0.8798 0.6382 0.60369 0.0
C240 C 0.91348 0.6312 0.62516 0.0
C241 C 0.96122 0.65889 0.59915 0.0
H242 H 0.99128 0.60663 0.61972 0.0
C243 C 0.05297 0.64595 0.58487 0.0
C244 C 0.06454 0.63526 0.60334 0.0
C245 C 0.03047 0.64773 0.58612 0.0
C246 C 0.98316 0.62147 0.61428 0.0
H247 H 0.88352 0.65464 0.56905 0.0
H248 H 0.9229 0.65658 0.57109 0.0
H249 H 0.95193 0.6074 0.61987 0.0
H250 H 0.06161 0.6186 0.63794 0.0
H251 H 0.02241 0.62195 0.64025 0.0
H252 H 0.99253 0.67289 0.59338 0.0
C253 C 0.91418 0.64937 0.58614 0.0
C254 C 0.96059 0.62191 0.61435 0.0
C255 C 0.89163 0.64815 0.58492 0.0
C256 C 0.05318 0.62681 0.62333 0.0
C257 C 0.03069 0.62863 0.62459 0.0
C258 C 0.98383 0.65847 0.59911 0.0
C259 C 0.92536 0.64064 0.60613 0.0
C260 C 0.94936 0.64058 0.60671 0.0
C261 C 0.01905 0.63889 0.60588 0.0
C262 C 0.99505 0.63972 0.60659 0.0
H263 H 0.88233 0.62235 0.63881 0.0
H264 H 0.92161 0.62462 0.64097 0.0
H265 H 0.95302 0.6736 0.59343 0.0
H266 H 0.06125 0.65262 0.56921 0.0
H267 H 0.02197 0.65553 0.57128 0.0
C268 C 0.93645 0.65214 0.88344 0.0
C269 C 0.92569 0.65903 0.90457 0.0
C270 C 0.95883 0.65466 0.88124 0.0
C271 C 0.00754 0.6597 0.91896 0.0
H272 H 0.03537 0.6742 0.85794 0.0
C273 C 0.10016 0.66521 0.91107 0.0
C274 C 0.10933 0.6546 0.89093 0.0
C275 C 0.07788 0.66888 0.91217 0.0
C276 C 0.02782 0.67004 0.87507 0.0
H277 H 0.92986 0.67474 0.93956 0.0
H278 H 0.96886 0.67931 0.93561 0.0
H279 H 0.99594 0.67507 0.86086 0.0
H280 H 0.10239 0.64018 0.8558 0.0
H281 H 0.06353 0.64635 0.85787 0.0
H282 H 0.03928 0.65422 0.93307 0.0
C283 C 0.96004 0.67164 0.92091 0.0
C284 C 0.00526 0.67053 0.87674 0.0
C285 C 0.93767 0.66911 0.92312 0.0
C286 C 0.09584 0.64838 0.87159 0.0
C287 C 0.07357 0.65204 0.8727 0.0
C288 C 0.03005 0.6592 0.91729 0.0
C289 C 0.97091 0.66415 0.90011 0.0
C290 C 0.99487 0.66513 0.89864 0.0
C291 C 0.0643 0.66202 0.89318 0.0
C292 C 0.04045 0.66413 0.89526 0.0
H293 H 0.92769 0.64431 0.8688 0.0
H294 H 0.96674 0.6485 0.86509 0.0
H295 H 3e-05 0.6551 0.93597 0.0
H296 H 0.11012 0.67034 0.92621 0.0
H297 H 0.07126 0.6769 0.92804 0.0
C298 C 0.06166 0.35091 0.39635 0.0
C299 C 0.07183 0.34739 0.41885 0.0
C300 C 0.03919 0.34953 0.39428 0.0
C301 C 0.9904 0.32766 0.42421 0.0
H302 H 0.96106 0.37277 0.38755 0.0
C303 C 0.89772 0.34013 0.42708 0.0
C304 C 0.88733 0.34581 0.40527 0.0
C305 C 0.92028 0.33907 0.42827 0.0
C306 C 0.96901 0.35988 0.39756 0.0
H307 H 0.06643 0.33929 0.45672 0.0
H308 H 0.02716 0.33704 0.45311 0.0
H309 H 0.00035 0.37314 0.39045 0.0
H310 H 0.89245 0.35428 0.36744 0.0
H311 H 0.93175 0.35216 0.36945 0.0
H312 H 0.95898 0.31446 0.43139 0.0
C313 C 0.0366 0.34068 0.43705 0.0
C314 C 0.99153 0.3601 0.39924 0.0
C315 C 0.05908 0.3421 0.43914 0.0
C316 C 0.89995 0.34998 0.38457 0.0
C317 C 0.92249 0.34889 0.38575 0.0
C318 C 0.96784 0.32742 0.42249 0.0
C319 C 0.0264 0.34458 0.41464 0.0
C320 C 0.00248 0.34403 0.41261 0.0
C321 C 0.93292 0.34364 0.40767 0.0
C322 C 0.95689 0.34355 0.40918 0.0
H323 H 0.07101 0.35492 0.38033 0.0
H324 H 0.03183 0.35232 0.3767 0.0
H325 H -0.0016 0.31491 0.43439 0.0
H326 H 0.88846 0.33685 0.44338 0.0
H327 H 0.92782 0.3352 0.4455 0.0
C328 C 0.44303 0.84754 0.07028 0.0
C329 C 0.43239 0.8613 0.08682 0.0
C330 C 0.46547 0.84492 0.07134 0.0
C331 C 0.51213 0.8508 0.11239 0.0
H332 H 0.54555 0.85483 0.05296 0.0
C333 C 0.60445 0.86274 0.11288 0.0
C334 C 0.61678 0.8521 0.09504 0.0
C335 C 0.58189 0.8622 0.11202 0.0
C336 C 0.53645 0.85331 0.06968 0.0
H337 H 0.43693 0.88295 0.11756 0.0
H338 H 0.47604 0.87835 0.11938 0.0
H339 H 0.50617 0.85679 0.05117 0.0
H340 H 0.61511 0.8322 0.06254 0.0
H341 H 0.57568 0.83096 0.06127 0.0
H342 H 0.54233 0.84735 0.13095 0.0
C343 C 0.46702 0.86949 0.10571 0.0
C344 C 0.5139 0.85448 0.06865 0.0
C345 C 0.44462 0.87222 0.10455 0.0
C346 C 0.60606 0.84064 0.0765 0.0
C347 C 0.58347 0.84004 0.0757 0.0
C348 C 0.53466 0.84953 0.11343 0.0
C349 C 0.47768 0.85588 0.08907 0.0
C350 C 0.50153 0.85348 0.09002 0.0
C351 C 0.57112 0.85093 0.09337 0.0
C352 C 0.54711 0.85103 0.09212 0.0
H353 H 0.43406 0.83889 0.05641 0.0
H354 H 0.47326 0.83419 0.05841 0.0
H355 H 0.50298 0.84965 0.12912 0.0
H356 H 0.61219 0.87179 0.12736 0.0
H357 H 0.57289 0.87106 0.12571 0.0
C358 C 0.55321 0.14515 0.5485 0.0
C359 C 0.56547 0.14796 0.56977 0.0
C360 C 0.53072 0.14728 0.54904 0.0
C361 C 0.48576 0.17054 0.58442 0.0
H362 H 0.45175 0.12542 0.5533 0.0
C363 C 0.39429 0.15977 0.60177 0.0
C364 C 0.38121 0.15313 0.58226 0.0
C365 C 0.41675 0.16075 0.5992 0.0
C366 C 0.46096 0.13836 0.56174 0.0
H367 H 0.56379 0.15566 0.6082 0.0
H368 H 0.52452 0.15937 0.60911 0.0
H369 H 0.49104 0.12436 0.55054 0.0
H370 H 0.38135 0.14301 0.5445 0.0
H371 H 0.42047 0.14513 0.53988 0.0
H372 H 0.45569 0.18455 0.59565 0.0
C373 C 0.53233 0.15562 0.592 0.0
C374 C 0.48349 0.13772 0.56019 0.0
C375 C 0.55481 0.15336 0.5915 0.0
C376 C 0.391 0.14802 0.55995 0.0
C377 C 0.41344 0.14912 0.55734 0.0
C378 C 0.46321 0.17126 0.58586 0.0
C379 C 0.52005 0.15241 0.57083 0.0
C380 C 0.49612 0.15371 0.57166 0.0
C381 C 0.42661 0.15522 0.57703 0.0
C382 C 0.45055 0.15508 0.57469 0.0
H383 H 0.56094 0.14104 0.53145 0.0
H384 H 0.52168 0.14494 0.53239 0.0
H385 H 0.49511 0.18323 0.59319 0.0
H386 H 0.38724 0.16376 0.61922 0.0
H387 H 0.42642 0.16525 0.61483 0.0
C388 C 0.60285 0.16219 0.90075 0.0
C389 C 0.61631 0.15364 0.91898 0.0
C390 C 0.58044 0.16288 0.90398 0.0
C391 C 0.5368 0.1369 0.9393 0.0
H392 H 0.50258 0.18545 0.91583 0.0
C393 C 0.44493 0.14281 0.95627 0.0
C394 C 0.43222 0.14861 0.93612 0.0
C395 C 0.46744 0.14471 0.95535 0.0
C396 C 0.51193 0.17173 0.92233 0.0
H397 H 0.61684 0.13963 0.95517 0.0
H398 H 0.57782 0.14115 0.96093 0.0
H399 H 0.54192 0.18657 0.91217 0.0
H400 H 0.43313 0.16136 0.89937 0.0
H401 H 0.47239 0.1646 0.89777 0.0
H402 H 0.50682 0.12203 0.94936 0.0
C403 C 0.58453 0.14695 0.94395 0.0
C404 C 0.53444 0.17234 0.92021 0.0
C405 C 0.60692 0.14619 0.94069 0.0
C406 C 0.44245 0.15674 0.91521 0.0
C407 C 0.46494 0.15873 0.91433 0.0
C408 C 0.51431 0.13633 0.94149 0.0
C409 C 0.57101 0.15509 0.92554 0.0
C410 C 0.54713 0.15487 0.92853 0.0
C411 C 0.47769 0.15255 0.93431 0.0
C412 C 0.50162 0.15366 0.93289 0.0
H413 H 0.60958 0.16801 0.88379 0.0
H414 H 0.57047 0.16901 0.88932 0.0
H415 H 0.54605 0.12301 0.94551 0.0
H416 H 0.43754 0.13655 0.97268 0.0
H417 H 0.47684 0.14006 0.97113 0.0
C418 C 0.40091 0.824 0.3904 0.0
C419 C 0.38746 0.83166 0.40912 0.0
C420 C 0.42339 0.82424 0.3931 0.0
C421 C 0.46712 0.82793 0.43872 0.0
H422 H 0.50049 0.85159 0.38524 0.0
C423 C 0.55581 0.85556 0.44955 0.0
C424 C 0.57013 0.8515 0.43027 0.0
C425 C 0.53371 0.85135 0.44699 0.0
C426 C 0.49148 0.84463 0.40022 0.0
H427 H 0.38704 0.84495 0.44565 0.0
H428 H 0.42622 0.84542 0.4503 0.0
H429 H 0.46158 0.84681 0.38079 0.0
H430 H 0.57256 0.83945 0.39332 0.0
H431 H 0.53408 0.83184 0.38898 0.0
H432 H 0.49701 0.8259 0.45822 0.0
C433 C 0.41939 0.83911 0.43359 0.0
C434 C 0.46917 0.84189 0.39765 0.0
C435 C 0.39694 0.83896 0.43086 0.0
C436 C 0.56193 0.84289 0.40848 0.0
C437 C 0.53985 0.83862 0.40594 0.0
C438 C 0.48945 0.8306 0.44126 0.0
C439 C 0.43287 0.83204 0.41462 0.0
C440 C 0.45672 0.8337 0.41694 0.0
C441 C 0.52546 0.84293 0.42511 0.0
C442 C 0.50187 0.83917 0.42211 0.0
H443 H 0.39412 0.81821 0.37345 0.0
H444 H 0.43336 0.81844 0.37829 0.0
H445 H 0.45798 0.82131 0.45379 0.0
H446 H 0.56159 0.86224 0.46656 0.0
H447 H 0.52303 0.85514 0.46199 0.0
C448 C 0.19356 0.35929 0.1535 0.0
C449 C 0.19561 0.37731 0.13797 0.0
C450 C 0.19511 0.36192 0.1786 0.0
C451 C 0.18209 0.40139 0.22438 0.0
H452 H 0.21035 0.36093 0.26814 0.0
C453 C 0.16464 0.403 0.32708 0.0
C454 C 0.1617 0.38256 0.33803 0.0
C455 C 0.17351 0.40458 0.30381 0.0
C456 C 0.20226 0.37231 0.25617 0.0
H457 H 0.20183 0.41203 0.13638 0.0
H458 H 0.20406 0.41668 0.18048 0.0
H459 H 0.21818 0.35944 0.2247 0.0
H460 H 0.1661 0.34777 0.33339 0.0
H461 H 0.18078 0.35042 0.29261 0.0
H462 H 0.16511 0.41341 0.25534 0.0
C463 C 0.20141 0.40054 0.17312 0.0
C464 C 0.20688 0.37153 0.23136 0.0
C465 C 0.20021 0.39785 0.14793 0.0
C466 C 0.1682 0.36378 0.32547 0.0
C467 C 0.17683 0.36533 0.30212 0.0
C468 C 0.17725 0.402 0.24913 0.0
C469 C 0.19844 0.38265 0.18866 0.0
C470 C 0.19644 0.38573 0.21519 0.0
C471 C 0.17942 0.38573 0.29089 0.0
C472 C 0.18685 0.38707 0.26525 0.0
H473 H 0.19012 0.34325 0.1463 0.0
H474 H 0.19256 0.34789 0.19018 0.0
H475 H 0.17362 0.41235 0.21224 0.0
H476 H 0.16001 0.41779 0.33645 0.0
H477 H 0.17559 0.42058 0.29588 0.0
C478 C 0.78182 0.58772 0.65169 0.0
C479 C 0.78455 0.60908 0.64306 0.0
C480 C 0.78093 0.58368 0.67668 0.0
C481 C 0.77455 0.60974 0.73682 0.0
H482 H 0.82138 0.57176 0.75685 0.0
C483 C 0.82168 0.62354 0.82427 0.0
C484 C 0.83045 0.60588 0.83714 0.0
C485 C 0.81066 0.62019 0.80251 0.0
C486 C 0.80786 0.58198 0.75174 0.0
H487 H 0.78683 0.64302 0.65348 0.0
H488 H 0.78494 0.63602 0.69695 0.0
H489 H 0.81013 0.57235 0.71447 0.0
H490 H 0.83389 0.57074 0.83768 0.0
H491 H 0.81448 0.56487 0.79952 0.0
H492 H 0.77279 0.61998 0.77389 0.0
C493 C 0.78358 0.6224 0.68454 0.0
C494 C 0.80141 0.58231 0.72742 0.0
C495 C 0.78483 0.6264 0.65967 0.0
C496 C 0.82745 0.5847 0.82808 0.0
C497 C 0.81636 0.58134 0.80623 0.0
C498 C 0.78087 0.60928 0.76116 0.0
C499 C 0.78233 0.60096 0.69332 0.0
C500 C 0.78533 0.59687 0.71959 0.0
C501 C 0.80803 0.59909 0.79308 0.0
C502 C 0.79825 0.59613 0.76867 0.0
H503 H 0.78161 0.57406 0.63925 0.0
H504 H 0.77992 0.56701 0.68303 0.0
H505 H 0.76191 0.6209 0.73126 0.0
H506 H 0.82364 0.64007 0.83075 0.0
H507 H 0.80486 0.63429 0.79266 0.0
C508 C 0.19945 0.63873 0.82699 0.0
C509 C 0.20278 0.62114 0.84284 0.0
C510 C 0.2003 0.63569 0.80192 0.0
C511 C 0.18803 0.59437 0.75757 0.0
H512 H 0.21038 0.6369 0.71198 0.0
C513 C 0.16572 0.59143 0.65585 0.0
C514 C 0.15982 0.61158 0.64572 0.0
C515 C 0.17588 0.5905 0.67851 0.0
C516 C 0.20401 0.62489 0.72448 0.0
H517 H 0.21068 0.58679 0.84496 0.0
H518 H 0.2118 0.5814 0.80091 0.0
H519 H 0.22049 0.63918 0.75477 0.0
H520 H 0.16029 0.64656 0.65123 0.0
H521 H 0.17742 0.64492 0.69085 0.0
H522 H 0.17055 0.58078 0.7277 0.0
C523 C 0.20861 0.59753 0.808 0.0
C524 C 0.2099 0.62614 0.74892 0.0
C525 C 0.20805 0.60065 0.83316 0.0
C526 C 0.16462 0.63076 0.6585 0.0
C527 C 0.17467 0.62983 0.68116 0.0
C528 C 0.18199 0.5932 0.73316 0.0
C529 C 0.20427 0.61494 0.79218 0.0
C530 C 0.20145 0.61128 0.7658 0.0
C531 C 0.18029 0.6097 0.69153 0.0
C532 C 0.18938 0.60887 0.71649 0.0
H533 H 0.19547 0.65474 0.83395 0.0
H534 H 0.19667 0.64936 0.79018 0.0
H535 H 0.18108 0.58283 0.77025 0.0
H536 H 0.1624 0.57636 0.64634 0.0
H537 H 0.1802 0.57474 0.68589 0.0
C538 C 0.81312 0.36215 0.1608 0.0
C539 C 0.82126 0.34365 0.14887 0.0
C540 C 0.805 0.36056 0.18438 0.0
C541 C 0.8129 0.32839 0.23886 0.0
H542 H 0.76358 0.36063 0.26337 0.0
C543 C 0.79605 0.33073 0.3407 0.0
C544 C 0.79134 0.35134 0.35035 0.0
C545 C 0.79485 0.32708 0.31574 0.0
C546 C 0.77745 0.35161 0.25682 0.0
H547 H 0.82628 0.30879 0.15186 0.0
H548 H 0.81221 0.30609 0.19318 0.0
H549 H 0.77039 0.35927 0.21964 0.0
H550 H 0.7806 0.38401 0.3417 0.0
H551 H 0.77925 0.37794 0.29797 0.0
H552 H 0.82074 0.32158 0.27577 0.0
C553 C 0.81226 0.32182 0.18428 0.0
C554 C 0.78128 0.35078 0.2318 0.0
C555 C 0.82027 0.32338 0.16062 0.0
C556 C 0.78431 0.36794 0.33473 0.0
C557 C 0.78342 0.3644 0.30966 0.0
C558 C 0.8092 0.32937 0.2638 0.0
C559 C 0.80495 0.34047 0.19655 0.0
C560 C 0.79925 0.33943 0.22264 0.0
C561 C 0.78928 0.34409 0.29983 0.0
C562 C 0.79162 0.34126 0.27314 0.0
H563 H 0.81354 0.37799 0.15217 0.0
H564 H 0.79966 0.37525 0.19347 0.0
H565 H 0.82709 0.31984 0.23237 0.0
H566 H 0.8012 0.31752 0.3524 0.0
H567 H 0.79891 0.31108 0.30886 0.0
C568 C 0.66882 0.8912 0.33285 0.0
C569 C 0.66364 0.87309 0.34732 0.0
C570 C 0.67813 0.88833 0.30994 0.0
C571 C 0.67883 0.84988 0.26035 0.0
H572 H 0.72831 0.88231 0.23656 0.0
C573 C 0.70649 0.83841 0.16245 0.0
C574 C 0.71183 0.85741 0.14967 0.0
C575 C 0.70507 0.83868 0.18773 0.0
C576 C 0.71437 0.87325 0.24285 0.0
H577 H 0.66457 0.83781 0.34937 0.0
H578 H 0.68038 0.83286 0.30917 0.0
H579 H 0.71671 0.88667 0.27876 0.0
H580 H 0.72093 0.89131 0.15315 0.0
H581 H 0.71751 0.89216 0.1972 0.0
H582 H 0.67551 0.8373 0.22452 0.0
C583 C 0.67733 0.84923 0.31564 0.0
C584 C 0.70782 0.87572 0.26701 0.0
C585 C 0.66831 0.8521 0.33863 0.0
C586 C 0.7169 0.8764 0.16263 0.0
C587 C 0.715 0.87683 0.18792 0.0
C588 C 0.68513 0.84767 0.23618 0.0
C589 C 0.68213 0.8673 0.30101 0.0
C590 C 0.68992 0.86411 0.27589 0.0
C591 C 0.70837 0.85813 0.20073 0.0
C592 C 0.70292 0.8594 0.22702 0.0
H593 H 0.66553 0.90758 0.33913 0.0
H594 H 0.68155 0.90251 0.29888 0.0
H595 H 0.66478 0.841 0.26668 0.0
H596 H 0.70276 0.82348 0.15283 0.0
H597 H 0.70062 0.82379 0.19699 0.0
C598 C 0.34451 0.10337 0.83383 0.0
C599 C 0.34741 0.12323 0.84609 0.0
C600 C 0.33648 0.10306 0.81008 0.0
C601 C 0.33397 0.13653 0.75567 0.0
H602 H 0.28762 0.09811 0.73518 0.0
C603 C 0.30095 0.14181 0.65907 0.0
C604 C 0.29704 0.1221 0.64698 0.0
C605 C 0.3042 0.14214 0.68413 0.0
C606 C 0.30072 0.10878 0.74056 0.0
H607 H 0.34401 0.15831 0.84317 0.0
H608 H 0.33036 0.15772 0.80165 0.0
H609 H 0.29966 0.09775 0.77753 0.0
H610 H 0.29245 0.08737 0.65166 0.0
H611 H 0.29884 0.08778 0.69539 0.0
H612 H 0.33573 0.14712 0.71887 0.0
C613 C 0.33425 0.14243 0.81043 0.0
C614 C 0.30755 0.10858 0.76479 0.0
C615 C 0.34201 0.14274 0.83421 0.0
C616 C 0.29537 0.10282 0.66056 0.0
C617 C 0.29897 0.10309 0.68564 0.0
C618 C 0.32734 0.13656 0.73148 0.0
C619 C 0.3315 0.12262 0.79811 0.0
C620 C 0.32418 0.12254 0.77254 0.0
C621 C 0.30402 0.1227 0.69761 0.0
C622 C 0.31055 0.12278 0.7236 0.0
H623 H 0.34842 0.08807 0.84257 0.0
H624 H 0.33463 0.08758 0.80089 0.0
H625 H 0.34707 0.14719 0.76111 0.0
H626 H 0.30205 0.15697 0.64907 0.0
H627 H 0.3074 0.15762 0.69283 0.0
C628 C 0.69627 0.13537 0.83898 0.0
C629 C 0.70182 0.11748 0.85358 0.0
C630 C 0.695 0.13315 0.81383 0.0
C631 C 0.68102 0.09391 0.76812 0.0
H632 H 0.7035 0.13709 0.72338 0.0
C633 C 0.65845 0.09358 0.66609 0.0
C634 C 0.65387 0.11407 0.65599 0.0
C635 C 0.66792 0.09198 0.68911 0.0
C636 C 0.697 0.12495 0.73563 0.0
H637 H 0.71091 0.08339 0.85338 0.0
H638 H 0.70812 0.07939 0.80917 0.0
H639 H 0.71431 0.13813 0.76598 0.0
H640 H 0.65551 0.14893 0.66209 0.0
H641 H 0.67129 0.14616 0.7023 0.0
H642 H 0.66272 0.08145 0.73824 0.0
C643 C 0.70499 0.09513 0.81731 0.0
C644 C 0.70332 0.12549 0.75995 0.0
C645 C 0.70667 0.09745 0.84252 0.0
C646 C 0.65894 0.13289 0.6693 0.0
C647 C 0.6682 0.13129 0.69231 0.0
C648 C 0.67447 0.09352 0.74383 0.0
C649 C 0.69892 0.11293 0.80281 0.0
C650 C 0.69498 0.11029 0.77651 0.0
C651 C 0.67285 0.11084 0.70251 0.0
C652 C 0.68194 0.10942 0.72745 0.0
H653 H 0.69253 0.15102 0.84703 0.0
H654 H 0.69008 0.14706 0.80307 0.0
H655 H 0.67422 0.08213 0.78062 0.0
H656 H 0.65488 0.07878 0.65617 0.0
H657 H 0.67147 0.07597 0.69633 0.0
C658 C 0.33418 0.8934 0.15369 0.0
C659 C 0.34123 0.87487 0.14097 0.0
C660 C 0.32736 0.89167 0.17783 0.0
C661 C 0.33545 0.85798 0.23155 0.0
H662 H 0.28347 0.88553 0.25624 0.0
C663 C 0.30908 0.84422 0.32974 0.0
C664 C 0.30184 0.86246 0.34277 0.0
C665 C 0.31131 0.84515 0.30457 0.0
C666 C 0.29814 0.87792 0.24967 0.0
H667 H 0.3462 0.83995 0.1434 0.0
H668 H 0.33451 0.83705 0.1855 0.0
H669 H 0.29259 0.88877 0.21314 0.0
H670 H 0.29043 0.8957 0.33964 0.0
H671 H 0.29494 0.89759 0.29565 0.0
H672 H 0.3415 0.84762 0.26787 0.0
C673 C 0.33434 0.85288 0.17685 0.0
C674 C 0.30332 0.87976 0.22501 0.0
C675 C 0.34097 0.85456 0.15271 0.0
C676 C 0.296 0.88138 0.33004 0.0
C677 C 0.29852 0.88242 0.30481 0.0
C678 C 0.33041 0.85632 0.25614 0.0
C679 C 0.32767 0.87144 0.18971 0.0
C680 C 0.32198 0.8697 0.21574 0.0
C681 C 0.30669 0.86446 0.29186 0.0
C682 C 0.31164 0.86615 0.26552 0.0
H683 H 0.3341 0.90926 0.1451 0.0
H684 H 0.32241 0.90625 0.18741 0.0
H685 H 0.35015 0.85041 0.22496 0.0
H686 H 0.31343 0.82931 0.33904 0.0
H687 H 0.31707 0.83082 0.29511 0.0
C688 C 0.29553 0.19105 0.93829 0.0
C689 C 0.31801 0.18926 0.94138 0.0
C690 C 0.28402 0.20763 0.94981 0.0
C691 C 0.28733 0.24582 0.00132 0.0
H692 H 0.24002 0.27459 0.96796 0.0
C693 C 0.24164 0.31943 0.04173 0.0
C694 C 0.21896 0.31872 0.04006 0.0
C695 C 0.25429 0.30425 0.02931 0.0
C696 C 0.2531 0.26658 0.97754 0.0
H697 H 0.34614 0.20363 0.95869 0.0
H698 H 0.32608 0.23281 0.9785 0.0
H699 H 0.26132 0.24718 0.94665 0.0
H700 H 0.19177 0.30159 0.02402 0.0
H701 H 0.21389 0.27511 0.00236 0.0
H702 H 0.27908 0.26531 0.03219 0.0
C703 C 0.31729 0.22117 0.9675 0.0
C704 C 0.26527 0.25087 0.96537 0.0
C705 C 0.3288 0.20452 0.95604 0.0
C706 C 0.2092 0.30258 0.02567 0.0
C707 C 0.22186 0.2875 0.01314 0.0
C708 C 0.27521 0.26161 0.01345 0.0
C709 C 0.29476 0.22285 0.96458 0.0
C710 C 0.2824 0.24018 0.97719 0.0
C711 C 0.24452 0.28817 0.01486 0.0
C712 C 0.25787 0.27201 0.00174 0.0
H713 H 0.28672 0.1795 0.92718 0.0
H714 H 0.26663 0.20828 0.94748 0.0
H715 H 0.30022 0.23766 0.01105 0.0
H716 H 0.24964 0.33168 0.05267 0.0
H717 H 0.27174 0.30525 0.03079 0.0
C718 C 0.77889 0.69827 0.54289 0.0
C719 C 0.76738 0.68202 0.55537 0.0
C720 C 0.768 0.71578 0.53235 0.0
C721 C 0.71446 0.73178 0.50937 0.0
H722 H 0.73884 0.78994 0.5111 0.0
C723 C 0.66976 0.80601 0.46957 0.0
C724 C 0.68226 0.82004 0.45508 0.0
C725 C 0.67968 0.78986 0.48351 0.0
C726 C 0.73192 0.77376 0.51035 0.0
H727 H 0.73547 0.67159 0.56696 0.0
H728 H 0.71649 0.70231 0.54874 0.0
H729 H 0.757 0.76041 0.53261 0.0
H730 H 0.71495 0.82835 0.44413 0.0
H731 H 0.73222 0.80007 0.46836 0.0
H732 H 0.68947 0.74509 0.48696 0.0
C733 C 0.7339 0.70133 0.54682 0.0
C734 C 0.74231 0.75685 0.52264 0.0
C735 C 0.74479 0.68379 0.55735 0.0
C736 C 0.70487 0.8178 0.4551 0.0
C737 C 0.71478 0.8017 0.4691 0.0
C738 C 0.70404 0.74869 0.49713 0.0
C739 C 0.74538 0.71745 0.53409 0.0
C740 C 0.7338 0.73564 0.52209 0.0
C741 C 0.70228 0.78747 0.48331 0.0
C742 C 0.71278 0.7698 0.49731 0.0
H743 H 0.7963 0.69737 0.54101 0.0
H744 H 0.77728 0.72777 0.52237 0.0
H745 H 0.70766 0.71555 0.5083 0.0
H746 H 0.65229 0.80737 0.47002 0.0
H747 H 0.66965 0.77928 0.49451 0.0
C748 C 0.29814 0.80756 0.04776 0.0
C749 C 0.32019 0.81164 0.04361 0.0
C750 C 0.28755 0.79084 0.0354 0.0
C751 C 0.29138 0.75661 0.98057 0.0
H752 H 0.24886 0.72138 0.01431 0.0
C753 C 0.24932 0.68227 0.93657 0.0
C754 C 0.22682 0.68097 0.93993 0.0
C755 C 0.26155 0.69751 0.94947 0.0
C756 C 0.2606 0.73118 0.00463 0.0
H757 H 0.3485 0.80125 0.02339 0.0
H758 H 0.33005 0.77183 0.00205 0.0
H759 H 0.26887 0.74917 0.03655 0.0
H760 H 0.1995 0.69459 0.9595 0.0
H761 H 0.22085 0.72115 0.98195 0.0
H762 H 0.28305 0.73854 0.94865 0.0
C763 C 0.32088 0.78179 0.0146 0.0
C764 C 0.27203 0.74712 0.01734 0.0
C765 C 0.33147 0.79858 0.02691 0.0
C766 C 0.21681 0.69516 0.9565 0.0
C767 C 0.22904 0.71028 0.96948 0.0
C768 C 0.28001 0.74059 0.96789 0.0
C769 C 0.29879 0.77776 0.01868 0.0
C770 C 0.28738 0.76017 0.0054 0.0
C771 C 0.25152 0.71162 0.96609 0.0
C772 C 0.26435 0.72788 0.97974 0.0
H773 H 0.28897 0.81739 0.06043 0.0
H774 H 0.27044 0.7884 0.03867 0.0
H775 H 0.30291 0.76657 0.97078 0.0
H776 H 0.2575 0.67155 0.92394 0.0
H777 H 0.27888 0.6981 0.94665 0.0
C778 C 0.70041 0.18973 0.56899 0.0
C779 C 0.67783 0.18779 0.56703 0.0
C780 C 0.71123 0.20689 0.55765 0.0
C781 C 0.70492 0.24604 0.50752 0.0
H782 H 0.75469 0.27382 0.53723 0.0
C783 C 0.74902 0.31823 0.46275 0.0
C784 C 0.77169 0.31666 0.46192 0.0
C785 C 0.73699 0.30387 0.477 0.0
C786 C 0.74088 0.26612 0.5287 0.0
H787 H 0.64881 0.20265 0.55229 0.0
H788 H 0.66767 0.2328 0.53288 0.0
H789 H 0.73445 0.2464 0.5599 0.0
H790 H 0.79956 0.2991 0.47576 0.0
H791 H 0.7785 0.27399 0.50061 0.0
H792 H 0.71141 0.2657 0.4763 0.0
C793 C 0.67706 0.22083 0.54275 0.0
C794 C 0.72931 0.25041 0.54163 0.0
C795 C 0.66624 0.20361 0.55398 0.0
C796 C 0.78211 0.3007 0.47598 0.0
C797 C 0.77007 0.28642 0.49034 0.0
C798 C 0.71641 0.26182 0.49465 0.0
C799 C 0.6997 0.22252 0.54423 0.0
C800 C 0.71133 0.24005 0.53109 0.0
C801 C 0.74739 0.28774 0.49081 0.0
C802 C 0.73461 0.27186 0.50502 0.0
H803 H 0.7098 0.17778 0.57887 0.0
H804 H 0.72871 0.20756 0.55888 0.0
H805 H 0.69138 0.23812 0.49871 0.0
H806 H 0.74052 0.3304 0.45219 0.0
H807 H 0.71953 0.30538 0.47724 0.0
C808 C 0.71671 0.79623 0.02583 0.0
C809 C 0.72903 0.81158 0.03875 0.0
C810 C 0.72678 0.78116 0.01062 0.0
C811 C 0.77781 0.77072 0.97762 0.0
H812 H 0.75745 0.71099 0.97765 0.0
C813 C 0.82577 0.69952 0.93551 0.0
C814 C 0.81401 0.68389 0.92234 0.0
C815 C 0.81504 0.71592 0.94825 0.0
C816 C 0.76313 0.72767 0.97722 0.0
H817 H 0.76159 0.82312 0.04592 0.0
H818 H 0.7792 0.79653 0.01972 0.0
H819 H 0.73949 0.7379 0.00312 0.0
H820 H 0.78181 0.67349 0.91174 0.0
H821 H 0.76309 0.70216 0.93403 0.0
H822 H 0.80172 0.76029 0.95199 0.0
C823 C 0.76172 0.7964 0.02101 0.0
C824 C 0.75285 0.74309 0.99179 0.0
C825 C 0.75164 0.81154 0.03615 0.0
C826 C 0.79133 0.68525 0.92178 0.0
C827 C 0.7806 0.70158 0.93463 0.0
C828 C 0.78816 0.75525 0.96312 0.0
C829 C 0.7494 0.78104 0.00808 0.0
C830 C 0.76012 0.76477 0.99222 0.0
C831 C 0.79235 0.71696 0.94817 0.0
C832 C 0.78096 0.73357 0.96285 0.0
H833 H 0.69924 0.79592 0.02733 0.0
H834 H 0.7168 0.76974 0.00064 0.0
H835 H 0.78357 0.78736 0.97724 0.0
H836 H 0.84328 0.69893 0.93627 0.0
H837 H 0.8245 0.72744 0.95871 0.0
C838 C 0.24318 0.17945 0.54512 0.0
C839 C 0.26588 0.17829 0.54451 0.0
C840 C 0.23229 0.19597 0.53266 0.0
C841 C 0.24067 0.25045 0.50595 0.0
H842 H 0.18952 0.23662 0.46815 0.0
C843 C 0.20485 0.31017 0.4364 0.0
C844 C 0.18227 0.31267 0.43628 0.0
C845 C 0.21449 0.29364 0.45 0.0
C846 C 0.20365 0.24076 0.47884 0.0
H847 H 0.29495 0.19354 0.53033 0.0
H848 H 0.27597 0.22209 0.50846 0.0
H849 H 0.20726 0.20809 0.49175 0.0
H850 H 0.15203 0.2996 0.45006 0.0
H851 H 0.16892 0.27075 0.47388 0.0
H852 H 0.23718 0.28305 0.49289 0.0
C853 C 0.26658 0.21047 0.51884 0.0
C854 C 0.21378 0.22445 0.49237 0.0
C855 C 0.27745 0.194 0.53126 0.0
C856 C 0.16949 0.2981 0.44977 0.0
C857 C 0.17913 0.28151 0.46332 0.0
C858 C 0.23057 0.26672 0.4924 0.0
C859 C 0.2439 0.21165 0.51939 0.0
C860 C 0.23251 0.2291 0.5059 0.0
C861 C 0.20174 0.27922 0.46371 0.0
C862 C 0.21207 0.26201 0.47855 0.0
H863 H 0.23381 0.1676 0.55521 0.0
H864 H 0.2148 0.19659 0.53361 0.0
H865 H 0.25484 0.25462 0.51655 0.0
H866 H 0.21514 0.32108 0.42614 0.0
H867 H 0.23194 0.29206 0.44968 0.0
C868 C 0.82397 0.31332 0.028 0.0
C869 C 0.81033 0.32863 0.03918 0.0
C870 C 0.81535 0.29683 0.0135 0.0
C871 C 0.76601 0.28018 0.98019 0.0
H872 H 0.78821 0.22187 0.99064 0.0
C873 C 0.71935 0.20302 0.95286 0.0
C874 C 0.73105 0.18552 0.94298 0.0
C875 C 0.7301 0.22129 0.96181 0.0
C876 C 0.78207 0.23809 0.98721 0.0
H877 H 0.77699 0.33896 0.04347 0.0
H878 H 0.76191 0.30996 0.01848 0.0
H879 H 0.80503 0.25253 0.01136 0.0
H880 H 0.76318 0.17363 0.93431 0.0
H881 H 0.78199 0.20565 0.95003 0.0
H882 H 0.74269 0.26558 0.95648 0.0
C883 C 0.7793 0.31088 0.02065 0.0
C884 C 0.7917 0.25567 -0.00093 0.0
C885 C 0.78793 0.32742 0.0351 0.0
C886 C 0.75372 0.18682 0.9419 0.0
C887 C 0.76449 0.2051 0.95096 0.0
C888 C 0.75634 0.26258 0.96837 0.0
C889 C 0.7929 0.29526 0.00991 0.0
C890 C 0.7836 0.27687 0.99594 0.0
C891 C 0.75278 0.22245 0.96114 0.0
C892 C 0.76409 0.24133 0.97203 0.0
H893 H 0.84133 0.31391 0.03063 0.0
H894 H 0.82628 0.28523 0.00518 0.0
H895 H 0.75964 0.29636 0.97709 0.0
H896 H 0.70186 0.20254 0.95393 0.0
H897 H 0.72065 0.23428 0.96984 0.0
C898 C 0.1633 0.69579 0.53699 0.0
C899 C 0.17469 0.68314 0.554 0.0
C900 C 0.17391 0.712 0.52376 0.0
C901 C 0.22349 0.74576 0.52356 0.0
H902 H 0.21194 0.75089 0.45453 0.0
C903 C 0.27941 0.7933 0.45946 0.0
C904 C 0.26957 0.80729 0.44255 0.0
C905 C 0.26697 0.77874 0.47297 0.0
C906 C 0.21515 0.7498 0.47384 0.0
H907 H 0.20607 0.67768 0.57061 0.0
H908 H 0.22459 0.70566 0.54732 0.0
H909 H 0.19155 0.7247 0.47878 0.0
H910 H 0.23901 0.81669 0.42622 0.0
H911 H 0.21727 0.7911 0.44985 0.0
H912 H 0.24734 0.77058 0.51852 0.0
C913 C 0.20741 0.70333 0.54445 0.0
C914 C 0.20345 0.73485 0.48774 0.0
C915 C 0.19681 0.68719 0.55771 0.0
C916 C 0.24706 0.80613 0.43912 0.0
C917 C 0.23462 0.79144 0.45257 0.0
C918 C 0.23523 0.76061 0.50965 0.0
C919 C 0.19611 0.71585 0.52725 0.0
C920 C 0.20766 0.73252 0.51271 0.0
C921 C 0.24445 0.77778 0.4698 0.0
C922 C 0.23133 0.76262 0.48462 0.0
H923 H 0.14622 0.69311 0.53379 0.0
H924 H 0.16471 0.72156 0.51086 0.0
H925 H 0.22682 0.74466 0.54283 0.0
H926 H 0.29672 0.79375 0.4625 0.0
H927 H 0.27501 0.76816 0.48587 0.0
C928 C 0.16951 0.57827 0.95949 0.0
C929 C 0.16723 0.5775 0.9341 0.0
C930 C 0.16874 0.55917 0.97319 0.0
C931 C 0.17887 0.50122 0.97048 0.0
H932 H 0.13865 0.49683 0.02431 0.0
C933 C 0.1655 0.42032 0.02097 0.0
C934 C 0.16138 0.42103 0.04603 0.0
C935 C 0.16613 0.43947 0.00736 0.0
C936 C 0.15025 0.49787 0.00963 0.0
H937 H 0.16269 0.5562 0.9031 0.0
H938 H 0.16189 0.52268 0.92713 0.0
H939 H 0.14035 0.53031 0.00059 0.0
H940 H 0.15506 0.44227 0.07664 0.0
H941 H 0.15705 0.47581 0.05313 0.0
H942 H 0.1894 0.46919 0.97981 0.0
C943 C 0.16406 0.53812 0.93633 0.0
C944 C 0.15109 0.51701 0.99598 0.0
C945 C 0.16443 0.55727 0.92264 0.0
C946 C 0.15809 0.44125 0.05729 0.0
C947 C 0.1591 0.46046 0.04376 0.0
C948 C 0.17832 0.48221 0.98437 0.0
C949 C 0.16607 0.53896 0.96171 0.0
C950 C 0.16532 0.51878 0.97624 0.0
C951 C 0.16305 0.45982 0.01858 0.0
C952 C 0.16391 0.48023 0.00405 0.0
H953 H 0.17162 0.59365 0.96881 0.0
H954 H 0.17045 0.56016 0.99275 0.0
H955 H 0.19015 0.50234 0.95547 0.0
H956 H 0.1679 0.40493 0.01177 0.0
H957 H 0.16875 0.43824 0.98797 0.0
C958 C 0.81261 0.57649 0.52086 0.0
C959 C 0.81675 0.57352 0.54575 0.0
C960 C 0.81068 0.55853 0.50543 0.0
C961 C 0.79616 0.50139 0.50437 0.0
H962 H 0.83511 0.49568 0.44954 0.0
C963 C 0.81117 0.41913 0.45882 0.0
C964 C 0.81588 0.41819 0.4339 0.0
C965 C 0.809 0.4391 0.47054 0.0
C966 C 0.82376 0.49718 0.46442 0.0
H967 H 0.82174 0.54954 0.57412 0.0
H968 H 0.81782 0.51815 0.5472 0.0
H969 H 0.8353 0.52907 0.4736 0.0
H970 H 0.82138 0.43747 0.4015 0.0
H971 H 0.81691 0.47253 0.42185 0.0
H972 H 0.78433 0.46978 0.49526 0.0
C973 C 0.81627 0.53437 0.53967 0.0
C974 C 0.82398 0.51626 0.47824 0.0
C975 C 0.81864 0.55231 0.555 0.0
C976 C 0.81789 0.4377 0.42078 0.0
C977 C 0.81543 0.45777 0.43248 0.0
C978 C 0.79565 0.48249 0.49035 0.0
C979 C 0.81239 0.53735 0.51477 0.0
C980 C 0.81055 0.51826 0.49865 0.0
C981 C 0.81116 0.45871 0.45757 0.0
C982 C 0.80986 0.47988 0.47059 0.0
H983 H 0.81114 0.59269 0.51326 0.0
H984 H 0.80767 0.56115 0.48626 0.0
H985 H 0.78545 0.50275 0.51988 0.0
H986 H 0.80968 0.40439 0.46951 0.0
H987 H 0.80621 0.4391 0.48995 0.0
C988 C 0.83886 0.43818 0.05026 0.0
C989 C 0.85732 0.43366 0.06431 0.0
C990 C 0.83682 0.45807 0.03825 0.0
C991 C 0.86967 0.50128 0.01199 0.0
H992 H 0.81569 0.53339 0.0096 0.0
C993 C 0.86289 0.58214 0.9601 0.0
C994 C 0.84406 0.58546 0.94631 0.0
C995 C 0.86415 0.56493 0.97657 0.0
C996 C 0.83081 0.5245 0.0099 0.0
H997 H 0.88786 0.44666 0.07727 0.0
H998 H 0.88431 0.48141 0.05609 0.0
H999 H 0.81847 0.50092 0.03501 0.0
H1000 H 0.81166 0.57352 0.93915 0.0
H1001 H 0.81405 0.54309 0.96744 0.0
H1002 H 0.8819 0.52431 0.9864 0.0
C1003 C 0.8715 0.46947 0.05434 0.0
C1004 C 0.83241 0.50598 0.02451 0.0
C1005 C 0.87347 0.44963 0.06653 0.0
C1006 C 0.82638 0.5714 0.94957 0.0
C1007 C 0.82771 0.55405 0.96591 0.0
C1008 C 0.86803 0.51968 -0.00275 0.0
C1009 C 0.85325 0.47379 0.03989 0.0
C1010 C 0.85182 0.49413 0.02557 0.0
C1011 C 0.84668 0.55051 0.97946 0.0
C1012 C 0.84855 0.53144 0.99591 0.0
H1013 H 0.8261 0.42623 0.04825 0.0
H1014 H 0.82268 0.46089 0.02705 0.0
H1015 H 0.88472 0.49225 0.01216 0.0
H1016 H 0.87672 0.59284 0.95818 0.0
H1017 H 0.87885 0.56294 0.98705 0.0
C1018 C 0.17673 0.43418 0.434 0.0
C1019 C 0.16231 0.41754 0.44057 0.0
C1020 C 0.17701 0.4538 0.44684 0.0
C1021 C 0.18128 0.49055 0.48336 0.0
H1022 H 0.1261 0.51237 0.50629 0.0
C1023 C 0.17418 0.56643 0.54503 0.0
C1024 C 0.15601 0.57988 0.54199 0.0
C1025 C 0.17579 0.54679 0.53235 0.0
C1026 C 0.14163 0.5067 0.49976 0.0
H1027 H 0.13762 0.40788 0.46637 0.0
H1028 H 0.13864 0.44168 0.48931 0.0
H1029 H 0.12752 0.47798 0.48484 0.0
H1030 H 0.12572 0.58384 0.52264 0.0
H1031 H 0.12885 0.55006 0.49987 0.0
H1032 H 0.1952 0.51985 0.49738 0.0
C1033 C 0.14922 0.44 0.47375 0.0
C1034 C 0.14251 0.48672 0.48781 0.0
C1035 C 0.14872 0.42054 0.46071 0.0
C1036 C 0.13979 0.57366 0.52555 0.0
C1037 C 0.14154 0.55422 0.51262 0.0
C1038 C 0.18036 0.51071 0.49509 0.0
C1039 C 0.16306 0.45704 0.46671 0.0
C1040 C 0.16234 0.47833 0.47954 0.0
C1041 C 0.15938 0.54035 0.51614 0.0
C1042 C 0.16051 0.51903 0.50344 0.0
H1043 H 0.18733 0.43233 0.41847 0.0
H1044 H 0.18769 0.46664 0.44071 0.0
H1045 H 0.19686 0.4845 0.47747 0.0
H1046 H 0.18689 0.57077 0.55768 0.0
H1047 H 0.18962 0.53642 0.53576 0.0
C1048 C 0.6858 0.05305 0.94388 0.0
C1049 C 0.68961 0.07389 0.95346 0.0
C1050 C 0.68968 0.03456 0.95794 0.0
C1051 C 0.68886 0.01607 0.01992 0.0
H1052 H 0.72033 0.96597 0.99572 0.0
C1053 C 0.69455 0.93702 0.07588 0.0
C1054 C 0.69257 0.91747 0.06287 0.0
C1055 C 0.69764 0.9567 0.06363 0.0
C1056 C 0.7113 0.97973 0.00267 0.0
H1057 H 0.70073 0.09178 0.98507 0.0
H1058 H 0.70697 0.05932 0.0099 0.0
H1059 H 0.71919 -0.00065 0.97171 0.0
H1060 H 0.69245 0.90311 0.02688 0.0
H1061 H 0.69693 0.93735 0.00551 0.0
H1062 H 0.67988 0.99633 0.05018 0.0
C1063 C 0.70119 0.05739 0.99144 0.0
C1064 C 0.7108 -0.00115 0.98898 0.0
C1065 C 0.69768 0.0759 0.97722 0.0
C1066 C 0.69405 0.91791 0.03743 0.0
C1067 C 0.6968 0.93758 0.02517 0.0
C1068 C 0.68905 0.99685 0.03344 0.0
C1069 C 0.69709 0.0366 0.98194 0.0
C1070 C 0.69934 0.01706 -0.00265 0.0
C1071 C 0.69849 0.95727 0.03809 0.0
C1072 C 0.7 0.97831 0.02481 0.0
H1073 H 0.67968 0.05103 0.92558 0.0
H1074 H 0.68625 0.01867 0.95031 0.0
H1075 H 0.67973 0.02988 0.02662 0.0
H1076 H 0.6937 0.93713 0.09553 0.0
H1077 H 0.69928 0.97147 0.07421 0.0
C1078 C 0.31835 0.93449 0.42854 0.0
C1079 C 0.3162 0.91387 0.43931 0.0
C1080 C 0.31569 0.95333 0.44246 0.0
C1081 C 0.32374 0.97369 0.5028 0.0
H1082 H 0.28404 0.02012 0.48581 0.0
C1083 C 0.31619 0.04972 0.56306 0.0
C1084 C 0.31318 0.06978 0.55138 0.0
C1085 C 0.31426 0.03028 0.55009 0.0
C1086 C 0.29544 0.00747 0.49066 0.0
H1087 H 0.30939 0.89674 0.47293 0.0
H1088 H 0.30539 0.92973 0.49732 0.0
H1089 H 0.28532 0.98717 0.46102 0.0
H1090 H 0.30566 0.08535 0.51707 0.0
H1091 H 0.30335 0.05162 0.49416 0.0
H1092 H 0.3348 0.99409 0.53158 0.0
C1093 C 0.30887 0.93123 0.47811 0.0
C1094 C 0.29603 0.98859 0.47652 0.0
C1095 C 0.31109 0.91242 0.46413 0.0
C1096 C 0.30792 0.07007 0.52658 0.0
C1097 C 0.30645 0.05068 0.51348 0.0
C1098 C 0.32349 0.99271 0.51664 0.0
C1099 C 0.31127 0.9518 0.4674 0.0
C1100 C 0.31019 0.97159 0.48251 0.0
C1101 C 0.30975 0.0305 0.52501 0.0
C1102 C 0.30936 0.0099 0.51075 0.0
H1103 H 0.3222 0.93606 0.40943 0.0
H1104 H 0.31771 0.96909 0.4339 0.0
H1105 H 0.33495 0.96083 0.50757 0.0
H1106 H 0.32002 0.04904 0.58225 0.0
H1107 H 0.3164 0.01509 0.55977 0.0
C1108 C 0.3218 0.93072 0.04212 0.0
C1109 C 0.33966 0.91707 0.03803 0.0
C1110 C 0.32074 0.95122 0.03113 0.0
C1111 C 0.31747 0.98974 0.99655 0.0
H1112 H 0.37127 0.02163 0.98991 0.0
C1113 C 0.3249 0.06842 0.93938 0.0
C1114 C 0.33953 0.08443 0.94725 0.0
C1115 C 0.32362 0.04842 0.95141 0.0
C1116 C 0.35603 0.01313 0.9919 0.0
H1117 H 0.36993 0.91372 0.01849 0.0
H1118 H 0.36777 0.94902 -0.00124 0.0
H1119 H 0.37142 0.98613 0.00906 0.0
H1120 H 0.3635 0.09255 0.97456 0.0
H1121 H 0.36077 0.05806 0.99601 0.0
H1122 H 0.30201 0.01721 0.9801 0.0
C1123 C 0.3549 0.94432 0.01104 0.0
C1124 C 0.35617 0.99254 0.00252 0.0
C1125 C 0.35609 0.92399 0.02223 0.0
C1126 C 0.35226 0.0804 0.96789 0.0
C1127 C 0.35078 0.06056 0.98009 0.0
C1128 C 0.3173 0.01049 0.98609 0.0
C1129 C 0.33741 0.95835 0.01566 0.0
C1130 C 0.33695 0.98049 0.00479 0.0
C1131 C 0.33676 0.04415 0.97173 0.0
C1132 C 0.33661 0.02239 0.98354 0.0
H1133 H 0.30893 0.92583 0.05429 0.0
H1134 H 0.30714 0.96168 0.03528 0.0
H1135 H 0.30239 0.98085 -0.00217 0.0
H1136 H 0.31492 0.07105 0.92348 0.0
H1137 H 0.31282 0.03609 0.9443 0.0
C1138 C 0.67294 0.06807 0.55492 0.0
C1139 C 0.65729 0.08406 0.55013 0.0
C1140 C 0.67408 0.04932 0.5406 0.0
C1141 C 0.67944 0.015 0.50145 0.0
H1142 H 0.62493 0.99018 0.48031 0.0
C1143 C 0.67505 0.93854 0.44019 0.0
C1144 C 0.65843 0.92359 0.44511 0.0
C1145 C 0.67551 0.95874 0.45188 0.0
C1146 C 0.64031 0.99676 0.48624 0.0
H1147 H 0.63124 0.09353 0.52593 0.0
H1148 H 0.63368 0.06126 0.50049 0.0
H1149 H 0.625 0.02403 0.50293 0.0
H1150 H 0.62949 0.91786 0.46646 0.0
H1151 H 0.63062 0.95268 0.48732 0.0
H1152 H 0.69463 0.98707 0.48573 0.0
C1153 C 0.64463 0.06276 0.51575 0.0
C1154 C 0.64038 0.01641 0.4989 0.0
C1155 C 0.64331 0.08133 0.53025 0.0
C1156 C 0.64241 0.92912 0.4621 0.0
C1157 C 0.64299 0.94917 0.47395 0.0
C1158 C 0.67936 0.99519 0.48898 0.0
C1159 C 0.65976 0.04632 0.52101 0.0
C1160 C 0.65993 0.02576 0.50676 0.0
C1161 C 0.65945 0.9643 0.46889 0.0
C1162 C 0.65976 0.98575 0.48138 0.0
H1163 H 0.68389 0.06971 0.57018 0.0
H1164 H 0.68575 0.0369 0.54539 0.0
H1165 H 0.69482 0.02186 0.50695 0.0
H1166 H 0.68758 0.93477 0.4271 0.0
H1167 H 0.68827 0.97011 0.44732 0.0
loop_
_geom_bond_atom_site_label_1
_geom_bond_atom_site_label_2
_geom_bond_distance
_geom_bond_site_symmetry_2
_ccdc_geom_bond_type
C0 O1 1.160 . S
C0 O7 1.185 . S
O1 C0 1.160 . S
O2 Zn3 1.899 . S
O2 C10 1.284 . S
Zn3 O2 1.899 . S
Zn3 O4 2.032 . S
Zn3 O7 2.086 . S
Zn3 O12 1.977 . S
O4 Zn3 2.032 . S
O4 C8 1.278 . S
C5 O6 1.203 . S
C5 O12 1.267 . S
O6 C5 1.203 . S
O7 C0 1.185 . S
O7 Zn3 2.086 . S
C8 O4 1.278 . S
C8 O9 1.211 . S
O9 C8 1.211 . S
C10 O2 1.284 . S
C10 O11 1.273 . S
O11 C10 1.273 . S
O12 Zn3 1.977 . S
O12 C5 1.267 . S
C13 O14 1.160 . S
C13 O20 1.185 . S
O14 C13 1.160 . S
O15 Zn16 1.899 . S
O15 C23 1.284 . S
Zn16 O15 1.899 . S
Zn16 O17 2.032 . S
Zn16 O20 2.086 . S
Zn16 O25 1.977 . S
O17 Zn16 2.032 . S
O17 C21 1.278 . S
C18 O19 1.203 . S
C18 O25 1.267 . S
O19 C18 1.203 . S
O20 C13 1.185 . S
O20 Zn16 2.086 . S
C21 O17 1.278 . S
C21 O22 1.211 . S
O22 C21 1.211 . S
C23 O15 1.284 . S
C23 O24 1.273 . S
O24 C23 1.273 . S
O25 Zn16 1.977 . S
O25 C18 1.267 . S
C26 O27 1.160 . S
C26 O33 1.185 . S
O27 C26 1.160 . S
O28 Zn29 1.899 . S
O28 C36 1.284 . S
Zn29 O28 1.899 . S
Zn29 O30 2.032 . S
Zn29 O33 2.086 . S
Zn29 O38 1.977 . S
O30 Zn29 2.032 . S
O30 C34 1.278 . S
C31 O32 1.203 . S
C31 O38 1.267 . S
O32 C31 1.203 . S
O33 C26 1.185 . S
O33 Zn29 2.086 . S
C34 O30 1.278 . S
C34 O35 1.211 . S
O35 C34 1.211 . S
C36 O28 1.284 . S
C36 O37 1.273 . S
O37 C36 1.273 . S
O38 Zn29 1.977 . S
O38 C31 1.267 . S
C39 O40 1.160 . S
C39 O46 1.185 . S
O40 C39 1.160 . S
O41 Zn42 1.899 . S
O41 C49 1.284 . S
Zn42 O41 1.899 . S
Zn42 O43 2.032 . S
Zn42 O46 2.086 . S
Zn42 O51 1.977 . S
O43 Zn42 2.032 . S
O43 C47 1.278 . S
C44 O45 1.203 . S
C44 O51 1.267 . S
O45 C44 1.203 . S
O46 C39 1.185 . S
O46 Zn42 2.086 . S
C47 O43 1.278 . S
C47 O48 1.211 . S
O48 C47 1.211 . S
C49 O41 1.284 . S
C49 O50 1.273 . S
O50 C49 1.273 . S
O51 Zn42 1.977 . S
O51 C44 1.267 . S
C52 O53 1.160 . S
C52 O59 1.185 . S
O53 C52 1.160 . S
O54 Zn55 1.899 . S
O54 C62 1.284 . S
Zn55 O54 1.899 . S
Zn55 O56 2.032 . S
Zn55 O59 2.086 . S
Zn55 O64 1.977 . S
O56 Zn55 2.032 . S
O56 C60 1.278 . S
C57 O58 1.203 . S
C57 O64 1.267 . S
O58 C57 1.203 . S
O59 C52 1.185 . S
O59 Zn55 2.086 . S
C60 O56 1.278 . S
C60 O61 1.211 . S
O61 C60 1.211 . S
C62 O54 1.284 . S
C62 O63 1.273 . S
O63 C62 1.273 . S
O64 Zn55 1.977 . S
O64 C57 1.267 . S
C65 O66 1.160 . S
C65 O72 1.185 . S
O66 C65 1.160 . S
O67 Zn68 1.899 . S
O67 C75 1.284 . S
Zn68 O67 1.899 . S
Zn68 O69 2.032 . S
Zn68 O72 2.086 . S
Zn68 O77 1.977 . S
O69 Zn68 2.032 . S
O69 C73 1.278 . S
C70 O71 1.203 . S
C70 O77 1.267 . S
O71 C70 1.203 . S
O72 C65 1.185 . S
O72 Zn68 2.086 . S
C73 O69 1.278 . S
C73 O74 1.211 . S
O74 C73 1.211 . S
C75 O67 1.284 . S
C75 O76 1.273 . S
O76 C75 1.273 . S
O77 Zn68 1.977 . S
O77 C70 1.267 . S
C78 O79 1.160 . S
C78 O85 1.185 . S
O79 C78 1.160 . S
O80 Zn81 1.899 . S
O80 C88 1.284 . S
Zn81 O80 1.899 . S
Zn81 O82 2.032 . S
Zn81 O85 2.086 . S
Zn81 O90 1.977 . S
O82 Zn81 2.032 . S
O82 C86 1.278 . S
C83 O84 1.203 . S
C83 O90 1.267 . S
O84 C83 1.203 . S
O85 C78 1.185 . S
O85 Zn81 2.086 . S
C86 O82 1.278 . S
C86 O87 1.211 . S
O87 C86 1.211 . S
C88 O80 1.284 . S
C88 O89 1.273 . S
O89 C88 1.273 . S
O90 Zn81 1.977 . S
O90 C83 1.267 . S
C91 O92 1.160 . S
C91 O98 1.185 . S
O92 C91 1.160 . S
O93 Zn94 1.899 . S
O93 C101 1.284 . S
Zn94 O93 1.899 . S
Zn94 O95 2.032 . S
Zn94 O98 2.086 . S
Zn94 O103 1.977 . S
O95 Zn94 2.032 . S
O95 C99 1.278 . S
C96 O97 1.203 . S
C96 O103 1.267 . S
O97 C96 1.203 . S
O98 C91 1.185 . S
O98 Zn94 2.086 . S
C99 O95 1.278 . S
C99 O100 1.211 . S
O100 C99 1.211 . S
C101 O93 1.284 . S
C101 O102 1.273 . S
O102 C101 1.273 . S
O103 Zn94 1.977 . S
O103 C96 1.267 . S
C104 O105 1.160 . S
C104 O111 1.185 . S
O105 C104 1.160 . S
O106 Zn107 1.899 . S
O106 C114 1.284 . S
Zn107 O106 1.899 . S
Zn107 O108 2.032 . S
Zn107 O111 2.086 . S
Zn107 O116 1.977 . S
O108 Zn107 2.032 . S
O108 C112 1.278 . S
C109 O110 1.203 . S
C109 O116 1.267 . S
O110 C109 1.203 . S
O111 C104 1.185 . S
O111 Zn107 2.086 . S
C112 O108 1.278 . S
C112 O113 1.211 . S
O113 C112 1.211 . S
C114 O106 1.284 . S
C114 O115 1.273 . S
O115 C114 1.273 . S
O116 Zn107 1.977 . S
O116 C109 1.267 . S
C117 O118 1.160 . S
C117 O124 1.185 . S
O118 C117 1.160 . S
O119 Zn120 1.899 . S
O119 C127 1.284 . S
Zn120 O119 1.899 . S
Zn120 O121 2.032 . S
Zn120 O124 2.086 . S
Zn120 O129 1.977 . S
O121 Zn120 2.032 . S
O121 C125 1.278 . S
C122 O123 1.203 . S
C122 O129 1.267 . S
O123 C122 1.203 . S
O124 C117 1.185 . S
O124 Zn120 2.086 . S
C125 O121 1.278 . S
C125 O126 1.211 . S
O126 C125 1.211 . S
C127 O119 1.284 . S
C127 O128 1.273 . S
O128 C127 1.273 . S
O129 Zn120 1.977 . S
O129 C122 1.267 . S
C130 O131 1.160 . S
C130 O137 1.185 . S
O131 C130 1.160 . S
O132 Zn133 1.899 . S
O132 C140 1.284 . S
Zn133 O132 1.899 . S
Zn133 O134 2.032 . S
Zn133 O137 2.086 . S
Zn133 O142 1.977 . S
O134 Zn133 2.032 . S
O134 C138 1.278 . S
C135 O136 1.203 . S
C135 O142 1.267 . S
O136 C135 1.203 . S
O137 C130 1.185 . S
O137 Zn133 2.086 . S
C138 O134 1.278 . S
C138 O139 1.211 . S
O139 C138 1.211 . S
C140 O132 1.284 . S
C140 O141 1.273 . S
O141 C140 1.273 . S
O142 Zn133 1.977 . S
O142 C135 1.267 . S
C143 O144 1.160 . S
C143 O150 1.185 . S
O144 C143 1.160 . S
O145 Zn146 1.899 . S
O145 C153 1.284 . S
Zn146 O145 1.899 . S
Zn146 O147 2.032 . S
Zn146 O150 2.086 . S
Zn146 O155 1.977 . S
O147 Zn146 2.032 . S
O147 C151 1.278 . S
C148 O149 1.203 . S
C148 O155 1.267 . S
O149 C148 1.203 . S
O150 C143 1.185 . S
O150 Zn146 2.086 . S
C151 O147 1.278 . S
C151 O152 1.211 . S
O152 C151 1.211 . S
C153 O145 1.284 . S
C153 O154 1.273 . S
O154 C153 1.273 . S
O155 Zn146 1.977 . S
O155 C148 1.267 . S
C156 O157 1.160 . S
C156 O163 1.185 . S
O157 C156 1.160 . S
O158 Zn159 1.899 . S
O158 C166 1.284 . S
Zn159 O158 1.899 . S
Zn159 O160 2.032 . S
Zn159 O163 2.086 . S
Zn159 O168 1.977 . S
O160 Zn159 2.032 . S
O160 C164 1.278 . S
C161 O162 1.203 . S
C161 O168 1.267 . S
O162 C161 1.203 . S
O163 C156 1.185 . S
O163 Zn159 2.086 . S
C164 O160 1.278 . S
C164 O165 1.211 . S
O165 C164 1.211 . S
C166 O158 1.284 . S
C166 O167 1.273 . S
O167 C166 1.273 . S
O168 Zn159 1.977 . S
O168 C161 1.267 . S
C169 O170 1.160 . S
C169 O176 1.185 . S
O170 C169 1.160 . S
O171 Zn172 1.899 . S
O171 C179 1.284 . S
Zn172 O171 1.899 . S
Zn172 O173 2.032 . S
Zn172 O176 2.086 . S
Zn172 O181 1.977 . S
O173 Zn172 2.032 . S
O173 C177 1.278 . S
C174 O175 1.203 . S
C174 O181 1.267 . S
O175 C174 1.203 . S
O176 C169 1.185 . S
O176 Zn172 2.086 . S
C177 O173 1.278 . S
C177 O178 1.211 . S
O178 C177 1.211 . S
C179 O171 1.284 . S
C179 O180 1.273 . S
O180 C179 1.273 . S
O181 Zn172 1.977 . S
O181 C174 1.267 . S
C182 O183 1.160 . S
C182 O189 1.185 . S
O183 C182 1.160 . S
O184 Zn185 1.899 . S
O184 C192 1.284 . S
Zn185 O184 1.899 . S
Zn185 O186 2.032 . S
Zn185 O189 2.086 . S
Zn185 O194 1.977 . S
O186 Zn185 2.032 . S
O186 C190 1.278 . S
C187 O188 1.203 . S
C187 O194 1.267 . S
O188 C187 1.203 . S
O189 C182 1.185 . S
O189 Zn185 2.086 . S
C190 O186 1.278 . S
C190 O191 1.211 . S
O191 C190 1.211 . S
C192 O184 1.284 . S
C192 O193 1.273 . S
O193 C192 1.273 . S
O194 Zn185 1.977 . S
O194 C187 1.267 . S
C195 O196 1.160 . S
C195 O202 1.185 . S
O196 C195 1.160 . S
O197 Zn198 1.899 . S
O197 C205 1.284 . S
Zn198 O197 1.899 . S
Zn198 O199 2.032 . S
Zn198 O202 2.086 . S
Zn198 O207 1.977 . S
O199 Zn198 2.032 . S
O199 C203 1.278 . S
C200 O201 1.203 . S
C200 O207 1.267 . S
O201 C200 1.203 . S
O202 C195 1.185 . S
O202 Zn198 2.086 . S
C203 O199 1.278 . S
C203 O204 1.211 . S
O204 C203 1.211 . S
C205 O197 1.284 . S
C205 O206 1.273 . S
O206 C205 1.273 . S
O207 Zn198 1.977 . S
O207 C200 1.267 . S
C208 C209 1.349 . S
C208 C210 1.327 . S
C208 H233 0.950 . S
C209 C208 1.349 . S
C209 C225 1.349 . S
C210 C208 1.327 . S
C210 C229 1.429 . S
C210 H234 0.950 . S
C211 C228 1.574 1_455 S
C211 C230 1.368 . S
C211 H235 0.949 . S
H212 C216 0.949 . S
C213 C214 1.349 . S
C213 C215 1.327 . S
C213 H236 0.950 . S
C214 C213 1.349 . S
C214 C226 1.349 . S
C215 C213 1.327 . S
C215 C231 1.429 . S
C215 H237 0.950 . S
C216 H212 0.949 . S
C216 C224 1.574 1_655 S
C216 C232 1.368 . S
H217 C225 0.950 . S
H218 C223 0.950 . S
H219 C224 0.949 . S
H220 C226 0.950 . S
H221 C227 0.950 . S
H222 C228 0.949 . S
C223 H218 0.950 . S
C223 C225 1.327 . S
C223 C229 1.429 . S
C224 C216 1.574 1_455 S
C224 H219 0.949 . S
C224 C230 1.368 . S
C225 C209 1.349 . S
C225 H217 0.950 . S
C225 C223 1.327 . S
C226 C214 1.349 . S
C226 H220 0.950 . S
C226 C227 1.327 . S
C227 H221 0.950 . S
C227 C226 1.327 . S
C227 C231 1.429 . S
C228 C211 1.574 1_655 S
C228 H222 0.949 . S
C228 C232 1.368 . S
C229 C210 1.429 . S
C229 C223 1.429 . S
C229 C230 1.523 . S
C230 C211 1.368 . S
C230 C224 1.368 . S
C230 C229 1.523 . S
C231 C215 1.429 . S
C231 C227 1.429 . S
C231 C232 1.523 . S
C232 C216 1.368 . S
C232 C228 1.368 . S
C232 C231 1.523 . S
H233 C208 0.950 . S
H234 C210 0.950 . S
H235 C211 0.949 . S
H236 C213 0.950 . S
H237 C215 0.950 . S
C238 C239 1.349 . S
C238 C240 1.327 . S
C238 H263 0.950 . S
C239 C238 1.349 . S
C239 C255 1.349 . S
C240 C238 1.327 . S
C240 C259 1.429 . S
C240 H264 0.950 . S
C241 C258 1.574 1_655 S
C241 C260 1.368 . S
C241 H265 0.949 . S
H242 C246 0.949 . S
C243 C244 1.349 . S
C243 C245 1.327 . S
C243 H266 0.950 . S
C244 C243 1.349 . S
C244 C256 1.349 . S
C245 C243 1.327 . S
C245 C261 1.429 . S
C245 H267 0.950 . S
C246 H242 0.949 . S
C246 C254 1.574 1_455 S
C246 C262 1.368 . S
H247 C255 0.950 . S
H248 C253 0.950 . S
H249 C254 0.949 . S
H250 C256 0.950 . S
H251 C257 0.950 . S
H252 C258 0.949 . S
C253 H248 0.950 . S
C253 C255 1.327 . S
C253 C259 1.429 . S
C254 C246 1.574 1_655 S
C254 H249 0.949 . S
C254 C260 1.368 . S
C255 C239 1.349 . S
C255 H247 0.950 . S
C255 C253 1.327 . S
C256 C244 1.349 . S
C256 H250 0.950 . S
C256 C257 1.327 . S
C257 H251 0.950 . S
C257 C256 1.327 . S
C257 C261 1.429 . S
C258 C241 1.574 1_455 S
C258 H252 0.949 . S
C258 C262 1.368 . S
C259 C240 1.429 . S
C259 C253 1.429 . S
C259 C260 1.523 . S
C260 C241 1.368 . S
C260 C254 1.368 . S
C260 C259 1.523 . S
C261 C245 1.429 . S
C261 C257 1.429 . S
C261 C262 1.523 . S
C262 C246 1.368 . S
C262 C258 1.368 . S
C262 C261 1.523 . S
H263 C238 0.950 . S
H264 C240 0.950 . S
H265 C241 0.949 . S
H266 C243 0.950 . S
H267 C245 0.950 . S
C268 C269 1.349 . S
C268 C270 1.327 . S
C268 H293 0.950 . S
C269 C268 1.349 . S
C269 C285 1.349 . S
C270 C268 1.327 . S
C270 C289 1.429 . S
C270 H294 0.950 . S
C271 C288 1.574 1_655 S
C271 C290 1.368 . S
C271 H295 0.949 . S
H272 C276 0.949 . S
C273 C274 1.349 . S
C273 C275 1.327 . S
C273 H296 0.950 . S
C274 C273 1.349 . S
C274 C286 1.349 . S
C275 C273 1.327 . S
C275 C291 1.429 . S
C275 H297 0.950 . S
C276 H272 0.949 . S
C276 C284 1.574 1_455 S
C276 C292 1.368 . S
H277 C285 0.950 . S
H278 C283 0.950 . S
H279 C284 0.949 . S
H280 C286 0.950 . S
H281 C287 0.950 . S
H282 C288 0.949 . S
C283 H278 0.950 . S
C283 C285 1.327 . S
C283 C289 1.429 . S
C284 C276 1.574 1_655 S
C284 H279 0.949 . S
C284 C290 1.368 . S
C285 C269 1.349 . S
C285 H277 0.950 . S
C285 C283 1.327 . S
C286 C274 1.349 . S
C286 H280 0.950 . S
C286 C287 1.327 . S
C287 H281 0.950 . S
C287 C286 1.327 . S
C287 C291 1.429 . S
C288 C271 1.574 1_455 S
C288 H282 0.949 . S
C288 C292 1.368 . S
C289 C270 1.429 . S
C289 C283 1.429 . S
C289 C290 1.523 . S
C290 C271 1.368 . S
C290 C284 1.368 . S
C290 C289 1.523 . S
C291 C275 1.429 . S
C291 C287 1.429 . S
C291 C292 1.523 . S
C292 C276 1.368 . S
C292 C288 1.368 . S
C292 C291 1.523 . S
H293 C268 0.950 . S
H294 C270 0.950 . S
H295 C271 0.949 . S
H296 C273 0.950 . S
H297 C275 0.950 . S
C298 C299 1.349 . S
C298 C300 1.327 . S
C298 H323 0.950 . S
C299 C298 1.349 . S
C299 C315 1.349 . S
C300 C298 1.327 . S
C300 C319 1.429 . S
C300 H324 0.950 . S
C301 C318 1.574 1_455 S
C301 C320 1.368 . S
C301 H325 0.949 . S
H302 C306 0.949 . S
C303 C304 1.349 . S
C303 C305 1.327 . S
C303 H326 0.950 . S
C304 C303 1.349 . S
C304 C316 1.349 . S
C305 C303 1.327 . S
C305 C321 1.429 . S
C305 H327 0.950 . S
C306 H302 0.949 . S
C306 C314 1.574 1_655 S
C306 C322 1.368 . S
H307 C315 0.950 . S
H308 C313 0.950 . S
H309 C314 0.949 . S
H310 C316 0.950 . S
H311 C317 0.950 . S
H312 C318 0.949 . S
C313 H308 0.950 . S
C313 C315 1.327 . S
C313 C319 1.429 . S
C314 C306 1.574 1_455 S
C314 H309 0.949 . S
C314 C320 1.368 . S
C315 C299 1.349 . S
C315 H307 0.950 . S
C315 C313 1.327 . S
C316 C304 1.349 . S
C316 H310 0.950 . S
C316 C317 1.327 . S
C317 H311 0.950 . S
C317 C316 1.327 . S
C317 C321 1.429 . S
C318 C301 1.574 1_655 S
C318 H312 0.949 . S
C318 C322 1.368 . S
C319 C300 1.429 . S
C319 C313 1.429 . S
C319 C320 1.523 . S
C320 C301 1.368 . S
C320 C314 1.368 . S
C320 C319 1.523 . S
C321 C305 1.429 . S
C321 C317 1.429 . S
C321 C322 1.523 . S
C322 C306 1.368 . S
C322 C318 1.368 . S
C322 C321 1.523 . S
H323 C298 0.950 . S
H324 C300 0.950 . S
H325 C301 0.949 . S
H326 C303 0.950 . S
H327 C305 0.950 . S
C328 C329 1.349 . S
C328 C330 1.327 . S
C328 H353 0.950 . S
C329 C328 1.349 . S
C329 C345 1.349 . S
C330 C328 1.327 . S
C330 C349 1.429 . S
C330 H354 0.950 . S
C331 C348 1.574 . S
C331 C350 1.368 . S
C331 H355 0.949 . S
H332 C336 0.949 . S
C333 C334 1.349 . S
C333 C335 1.327 . S
C333 H356 0.950 . S
C334 C333 1.349 . S
C334 C346 1.349 . S
C335 C333 1.327 . S
C335 C351 1.429 . S
C335 H357 0.950 . S
C336 H332 0.949 . S
C336 C344 1.574 . S
C336 C352 1.368 . S
H337 C345 0.950 . S
H338 C343 0.950 . S
H339 C344 0.949 . S
H340 C346 0.950 . S
H341 C347 0.950 . S
H342 C348 0.949 . S
C343 H338 0.950 . S
C343 C345 1.327 . S
C343 C349 1.429 . S
C344 C336 1.574 . S
C344 H339 0.949 . S
C344 C350 1.368 . S
C345 C329 1.349 . S
C345 H337 0.950 . S
C345 C343 1.327 . S
C346 C334 1.349 . S
C346 H340 0.950 . S
C346 C347 1.327 . S
C347 H341 0.950 . S
C347 C346 1.327 . S
C347 C351 1.429 . S
C348 C331 1.574 . S
C348 H342 0.949 . S
C348 C352 1.368 . S
C349 C330 1.429 . S
C349 C343 1.429 . S
C349 C350 1.523 . S
C350 C331 1.368 . S
C350 C344 1.368 . S
C350 C349 1.523 . S
C351 C335 1.429 . S
C351 C347 1.429 . S
C351 C352 1.523 . S
C352 C336 1.368 . S
C352 C348 1.368 . S
C352 C351 1.523 . S
H353 C328 0.950 . S
H354 C330 0.950 . S
H355 C331 0.949 . S
H356 C333 0.950 . S
H357 C335 0.950 . S
C358 C359 1.349 . S
C358 C360 1.327 . S
C358 H383 0.950 . S
C359 C358 1.349 . S
C359 C375 1.349 . S
C360 C358 1.327 . S
C360 C379 1.429 . S
C360 H384 0.950 . S
C361 C378 1.574 . S
C361 C380 1.368 . S
C361 H385 0.949 . S
H362 C366 0.949 . S
C363 C364 1.349 . S
C363 C365 1.327 . S
C363 H386 0.950 . S
C364 C363 1.349 . S
C364 C376 1.349 . S
C365 C363 1.327 . S
C365 C381 1.429 . S
C365 H387 0.950 . S
C366 H362 0.949 . S
C366 C374 1.574 . S
C366 C382 1.368 . S
H367 C375 0.950 . S
H368 C373 0.950 . S
H369 C374 0.949 . S
H370 C376 0.950 . S
H371 C377 0.950 . S
H372 C378 0.949 . S
C373 H368 0.950 . S
C373 C375 1.327 . S
C373 C379 1.429 . S
C374 C366 1.574 . S
C374 H369 0.949 . S
C374 C380 1.368 . S
C375 C359 1.349 . S
C375 H367 0.950 . S
C375 C373 1.327 . S
C376 C364 1.349 . S
C376 H370 0.950 . S
C376 C377 1.327 . S
C377 H371 0.950 . S
C377 C376 1.327 . S
C377 C381 1.429 . S
C378 C361 1.574 . S
C378 H372 0.949 . S
C378 C382 1.368 . S
C379 C360 1.429 . S
C379 C373 1.429 . S
C379 C380 1.523 . S
C380 C361 1.368 . S
C380 C374 1.368 . S
C380 C379 1.523 . S
C381 C365 1.429 . S
C381 C377 1.429 . S
C381 C382 1.523 . S
C382 C366 1.368 . S
C382 C378 1.368 . S
C382 C381 1.523 . S
H383 C358 0.950 . S
H384 C360 0.950 . S
H385 C361 0.949 . S
H386 C363 0.950 . S
H387 C365 0.950 . S
C388 C389 1.349 . S
C388 C390 1.327 . S
C388 H413 0.950 . S
C389 C388 1.349 . S
C389 C405 1.349 . S
C390 C388 1.327 . S
C390 C409 1.429 . S
C390 H414 0.950 . S
C391 C408 1.574 . S
C391 C410 1.368 . S
C391 H415 0.949 . S
H392 C396 0.949 . S
C393 C394 1.349 . S
C393 C395 1.327 . S
C393 H416 0.950 . S
C394 C393 1.349 . S
C394 C406 1.349 . S
C395 C393 1.327 . S
C395 C411 1.429 . S
C395 H417 0.950 . S
C396 H392 0.949 . S
C396 C404 1.574 . S
C396 C412 1.368 . S
H397 C405 0.950 . S
H398 C403 0.950 . S
H399 C404 0.949 . S
H400 C406 0.950 . S
H401 C407 0.950 . S
H402 C408 0.949 . S
C403 H398 0.950 . S
C403 C405 1.327 . S
C403 C409 1.429 . S
C404 C396 1.574 . S
C404 H399 0.949 . S
C404 C410 1.368 . S
C405 C389 1.349 . S
C405 H397 0.950 . S
C405 C403 1.327 . S
C406 C394 1.349 . S
C406 H400 0.950 . S
C406 C407 1.327 . S
C407 H401 0.950 . S
C407 C406 1.327 . S
C407 C411 1.429 . S
C408 C391 1.574 . S
C408 H402 0.949 . S
C408 C412 1.368 . S
C409 C390 1.429 . S
C409 C403 1.429 . S
C409 C410 1.523 . S
C410 C391 1.368 . S
C410 C404 1.368 . S
C410 C409 1.523 . S
C411 C395 1.429 . S
C411 C407 1.429 . S
C411 C412 1.523 . S
C412 C396 1.368 . S
C412 C408 1.368 . S
C412 C411 1.523 . S
H413 C388 0.950 . S
H414 C390 0.950 . S
H415 C391 0.949 . S
H416 C393 0.950 . S
H417 C395 0.950 . S
C418 C419 1.349 . S
C418 C420 1.327 . S
C418 H443 0.950 . S
C419 C418 1.349 . S
C419 C435 1.349 . S
C420 C418 1.327 . S
C420 C439 1.429 . S
C420 H444 0.950 . S
C421 C438 1.574 . S
C421 C440 1.368 . S
C421 H445 0.949 . S
H422 C426 0.949 . S
C423 C424 1.349 . S
C423 C425 1.327 . S
C423 H446 0.950 . S
C424 C423 1.349 . S
C424 C436 1.349 . S
C425 C423 1.327 . S
C425 C441 1.429 . S
C425 H447 0.950 . S
C426 H422 0.949 . S
C426 C434 1.574 . S
C426 C442 1.368 . S
H427 C435 0.950 . S
H428 C433 0.950 . S
H429 C434 0.949 . S
H430 C436 0.950 . S
H431 C437 0.950 . S
H432 C438 0.949 . S
C433 H428 0.950 . S
C433 C435 1.327 . S
C433 C439 1.429 . S
C434 C426 1.574 . S
C434 H429 0.949 . S
C434 C440 1.368 . S
C435 C419 1.349 . S
C435 H427 0.950 . S
C435 C433 1.327 . S
C436 C424 1.349 . S
C436 H430 0.950 . S
C436 C437 1.327 . S
C437 H431 0.950 . S
C437 C436 1.327 . S
C437 C441 1.429 . S
C438 C421 1.574 . S
C438 H432 0.949 . S
C438 C442 1.368 . S
C439 C420 1.429 . S
C439 C433 1.429 . S
C439 C440 1.523 . S
C440 C421 1.368 . S
C440 C434 1.368 . S
C440 C439 1.523 . S
C441 C425 1.429 . S
C441 C437 1.429 . S
C441 C442 1.523 . S
C442 C426 1.368 . S
C442 C438 1.368 . S
C442 C441 1.523 . S
H443 C418 0.950 . S
H444 C420 0.950 . S
H445 C421 0.949 . S
H446 C423 0.950 . S
H447 C425 0.950 . S
C448 C449 1.349 . S
C448 C450 1.327 . S
C448 H473 0.950 . S
C449 C448 1.349 . S
C449 C465 1.349 . S
C450 C448 1.327 . S
C450 C469 1.429 . S
C450 H474 0.950 . S
C451 C468 1.574 . S
C451 C470 1.368 . S
C451 H475 0.949 . S
H452 C456 0.949 . S
C453 C454 1.349 . S
C453 C455 1.327 . S
C453 H476 0.950 . S
C454 C453 1.349 . S
C454 C466 1.349 . S
C455 C453 1.327 . S
C455 C471 1.429 . S
C455 H477 0.950 . S
C456 H452 0.949 . S
C456 C464 1.574 . S
C456 C472 1.368 . S
H457 C465 0.950 . S
H458 C463 0.950 . S
H459 C464 0.949 . S
H460 C466 0.950 . S
H461 C467 0.950 . S
H462 C468 0.949 . S
C463 H458 0.950 . S
C463 C465 1.327 . S
C463 C469 1.429 . S
C464 C456 1.574 . S
C464 H459 0.949 . S
C464 C470 1.368 . S
C465 C449 1.349 . S
C465 H457 0.950 . S
C465 C463 1.327 . S
C466 C454 1.349 . S
C466 H460 0.950 . S
C466 C467 1.327 . S
C467 H461 0.950 . S
C467 C466 1.327 . S
C467 C471 1.429 . S
C468 C451 1.574 . S
C468 H462 0.949 . S
C468 C472 1.368 . S
C469 C450 1.429 . S
C469 C463 1.429 . S
C469 C470 1.523 . S
C470 C451 1.368 . S
C470 C464 1.368 . S
C470 C469 1.523 . S
C471 C455 1.429 . S
C471 C467 1.429 . S
C471 C472 1.523 . S
C472 C456 1.368 . S
C472 C468 1.368 . S
C472 C471 1.523 . S
H473 C448 0.950 . S
H474 C450 0.950 . S
H475 C451 0.949 . S
H476 C453 0.950 . S
H477 C455 0.950 . S
C478 C479 1.349 . S
C478 C480 1.327 . S
C478 H503 0.950 . S
C479 C478 1.349 . S
C479 C495 1.349 . S
C480 C478 1.327 . S
C480 C499 1.429 . S
C480 H504 0.950 . S
C481 C498 1.574 . S
C481 C500 1.368 . S
C481 H505 0.949 . S
H482 C486 0.949 . S
C483 C484 1.349 . S
C483 C485 1.327 . S
C483 H506 0.950 . S
C484 C483 1.349 . S
C484 C496 1.349 . S
C485 C483 1.327 . S
C485 C501 1.429 . S
C485 H507 0.950 . S
C486 H482 0.949 . S
C486 C494 1.574 . S
C486 C502 1.368 . S
H487 C495 0.950 . S
H488 C493 0.950 . S
H489 C494 0.949 . S
H490 C496 0.950 . S
H491 C497 0.950 . S
H492 C498 0.949 . S
C493 H488 0.950 . S
C493 C495 1.327 . S
C493 C499 1.429 . S
C494 C486 1.574 . S
C494 H489 0.949 . S
C494 C500 1.368 . S
C495 C479 1.349 . S
C495 H487 0.950 . S
C495 C493 1.327 . S
C496 C484 1.349 . S
C496 H490 0.950 . S
C496 C497 1.327 . S
C497 H491 0.950 . S
C497 C496 1.327 . S
C497 C501 1.429 . S
C498 C481 1.574 . S
C498 H492 0.949 . S
C498 C502 1.368 . S
C499 C480 1.429 . S
C499 C493 1.429 . S
C499 C500 1.523 . S
C500 C481 1.368 . S
C500 C494 1.368 . S
C500 C499 1.523 . S
C501 C485 1.429 . S
C501 C497 1.429 . S
C501 C502 1.523 . S
C502 C486 1.368 . S
C502 C498 1.368 . S
C502 C501 1.523 . S
H503 C478 0.950 . S
H504 C480 0.950 . S
H505 C481 0.949 . S
H506 C483 0.950 . S
H507 C485 0.950 . S
C508 C509 1.349 . S
C508 C510 1.327 . S
C508 H533 0.950 . S
C509 C508 1.349 . S
C509 C525 1.349 . S
C510 C508 1.327 . S
C510 C529 1.429 . S
C510 H534 0.950 . S
C511 C528 1.574 . S
C511 C530 1.368 . S
C511 H535 0.949 . S
H512 C516 0.949 . S
C513 C514 1.349 . S
C513 C515 1.327 . S
C513 H536 0.950 . S
C514 C513 1.349 . S
C514 C526 1.349 . S
C515 C513 1.327 . S
C515 C531 1.429 . S
C515 H537 0.950 . S
C516 H512 0.949 . S
C516 C524 1.574 . S
C516 C532 1.368 . S
H517 C525 0.950 . S
H518 C523 0.950 . S
H519 C524 0.949 . S
H520 C526 0.950 . S
H521 C527 0.950 . S
H522 C528 0.949 . S
C523 H518 0.950 . S
C523 C525 1.327 . S
C523 C529 1.429 . S
C524 C516 1.574 . S
C524 H519 0.949 . S
C524 C530 1.368 . S
C525 C509 1.349 . S
C525 H517 0.950 . S
C525 C523 1.327 . S
C526 C514 1.349 . S
C526 H520 0.950 . S
C526 C527 1.327 . S
C527 H521 0.950 . S
C527 C526 1.327 . S
C527 C531 1.429 . S
C528 C511 1.574 . S
C528 H522 0.949 . S
C528 C532 1.368 . S
C529 C510 1.429 . S
C529 C523 1.429 . S
C529 C530 1.523 . S
C530 C511 1.368 . S
C530 C524 1.368 . S
C530 C529 1.523 . S
C531 C515 1.429 . S
C531 C527 1.429 . S
C531 C532 1.523 . S
C532 C516 1.368 . S
C532 C528 1.368 . S
C532 C531 1.523 . S
H533 C508 0.950 . S
H534 C510 0.950 . S
H535 C511 0.949 . S
H536 C513 0.950 . S
H537 C515 0.950 . S
C538 C539 1.349 . S
C538 C540 1.327 . S
C538 H563 0.950 . S
C539 C538 1.349 . S
C539 C555 1.349 . S
C540 C538 1.327 . S
C540 C559 1.429 . S
C540 H564 0.950 . S
C541 C558 1.574 . S
C541 C560 1.368 . S
C541 H565 0.949 . S
H542 C546 0.949 . S
C543 C544 1.349 . S
C543 C545 1.327 . S
C543 H566 0.950 . S
C544 C543 1.349 . S
C544 C556 1.349 . S
C545 C543 1.327 . S
C545 C561 1.429 . S
C545 H567 0.950 . S
C546 H542 0.949 . S
C546 C554 1.574 . S
C546 C562 1.368 . S
H547 C555 0.950 . S
H548 C553 0.950 . S
H549 C554 0.949 . S
H550 C556 0.950 . S
H551 C557 0.950 . S
H552 C558 0.949 . S
C553 H548 0.950 . S
C553 C555 1.327 . S
C553 C559 1.429 . S
C554 C546 1.574 . S
C554 H549 0.949 . S
C554 C560 1.368 . S
C555 C539 1.349 . S
C555 H547 0.950 . S
C555 C553 1.327 . S
C556 C544 1.349 . S
C556 H550 0.950 . S
C556 C557 1.327 . S
C557 H551 0.950 . S
C557 C556 1.327 . S
C557 C561 1.429 . S
C558 C541 1.574 . S
C558 H552 0.949 . S
C558 C562 1.368 . S
C559 C540 1.429 . S
C559 C553 1.429 . S
C559 C560 1.523 . S
C560 C541 1.368 . S
C560 C554 1.368 . S
C560 C559 1.523 . S
C561 C545 1.429 . S
C561 C557 1.429 . S
C561 C562 1.523 . S
C562 C546 1.368 . S
C562 C558 1.368 . S
C562 C561 1.523 . S
H563 C538 0.950 . S
H564 C540 0.950 . S
H565 C541 0.949 . S
H566 C543 0.950 . S
H567 C545 0.950 . S
C568 C569 1.349 . S
C568 C570 1.327 . S
C568 H593 0.950 . S
C569 C568 1.349 . S
C569 C585 1.349 . S
C570 C568 1.327 . S
C570 C589 1.429 . S
C570 H594 0.950 . S
C571 C588 1.574 . S
C571 C590 1.368 . S
C571 H595 0.949 . S
H572 C576 0.949 . S
C573 C574 1.349 . S
C573 C575 1.327 . S
C573 H596 0.950 . S
C574 C573 1.349 . S
C574 C586 1.349 . S
C575 C573 1.327 . S
C575 C591 1.429 . S
C575 H597 0.950 . S
C576 H572 0.949 . S
C576 C584 1.574 . S
C576 C592 1.368 . S
H577 C585 0.950 . S
H578 C583 0.950 . S
H579 C584 0.949 . S
H580 C586 0.950 . S
H581 C587 0.950 . S
H582 C588 0.949 . S
C583 H578 0.950 . S
C583 C585 1.327 . S
C583 C589 1.429 . S
C584 C576 1.574 . S
C584 H579 0.949 . S
C584 C590 1.368 . S
C585 C569 1.349 . S
C585 H577 0.950 . S
C585 C583 1.327 . S
C586 C574 1.349 . S
C586 H580 0.950 . S
C586 C587 1.327 . S
C587 H581 0.950 . S
C587 C586 1.327 . S
C587 C591 1.429 . S
C588 C571 1.574 . S
C588 H582 0.949 . S
C588 C592 1.368 . S
C589 C570 1.429 . S
C589 C583 1.429 . S
C589 C590 1.523 . S
C590 C571 1.368 . S
C590 C584 1.368 . S
C590 C589 1.523 . S
C591 C575 1.429 . S
C591 C587 1.429 . S
C591 C592 1.523 . S
C592 C576 1.368 . S
C592 C588 1.368 . S
C592 C591 1.523 . S
H593 C568 0.950 . S
H594 C570 0.950 . S
H595 C571 0.949 . S
H596 C573 0.950 . S
H597 C575 0.950 . S
C598 C599 1.349 . S
C598 C600 1.327 . S
C598 H623 0.950 . S
C599 C598 1.349 . S
C599 C615 1.349 . S
C600 C598 1.327 . S
C600 C619 1.429 . S
C600 H624 0.950 . S
C601 C618 1.574 . S
C601 C620 1.368 . S
C601 H625 0.949 . S
H602 C606 0.949 . S
C603 C604 1.349 . S
C603 C605 1.327 . S
C603 H626 0.950 . S
C604 C603 1.349 . S
C604 C616 1.349 . S
C605 C603 1.327 . S
C605 C621 1.429 . S
C605 H627 0.950 . S
C606 H602 0.949 . S
C606 C614 1.574 . S
C606 C622 1.368 . S
H607 C615 0.950 . S
H608 C613 0.950 . S
H609 C614 0.949 . S
H610 C616 0.950 . S
H611 C617 0.950 . S
H612 C618 0.949 . S
C613 H608 0.950 . S
C613 C615 1.327 . S
C613 C619 1.429 . S
C614 C606 1.574 . S
C614 H609 0.949 . S
C614 C620 1.368 . S
C615 C599 1.349 . S
C615 H607 0.950 . S
C615 C613 1.327 . S
C616 C604 1.349 . S
C616 H610 0.950 . S
C616 C617 1.327 . S
C617 H611 0.950 . S
C617 C616 1.327 . S
C617 C621 1.429 . S
C618 C601 1.574 . S
C618 H612 0.949 . S
C618 C622 1.368 . S
C619 C600 1.429 . S
C619 C613 1.429 . S
C619 C620 1.523 . S
C620 C601 1.368 . S
C620 C614 1.368 . S
C620 C619 1.523 . S
C621 C605 1.429 . S
C621 C617 1.429 . S
C621 C622 1.523 . S
C622 C606 1.368 . S
C622 C618 1.368 . S
C622 C621 1.523 . S
H623 C598 0.950 . S
H624 C600 0.950 . S
H625 C601 0.949 . S
H626 C603 0.950 . S
H627 C605 0.950 . S
C628 C629 1.349 . S
C628 C630 1.327 . S
C628 H653 0.950 . S
C629 C628 1.349 . S
C629 C645 1.349 . S
C630 C628 1.327 . S
C630 C649 1.429 . S
C630 H654 0.950 . S
C631 C648 1.574 . S
C631 C650 1.368 . S
C631 H655 0.949 . S
H632 C636 0.949 . S
C633 C634 1.349 . S
C633 C635 1.327 . S
C633 H656 0.950 . S
C634 C633 1.349 . S
C634 C646 1.349 . S
C635 C633 1.327 . S
C635 C651 1.429 . S
C635 H657 0.950 . S
C636 H632 0.949 . S
C636 C644 1.574 . S
C636 C652 1.368 . S
H637 C645 0.950 . S
H638 C643 0.950 . S
H639 C644 0.949 . S
H640 C646 0.950 . S
H641 C647 0.950 . S
H642 C648 0.949 . S
C643 H638 0.950 . S
C643 C645 1.327 . S
C643 C649 1.429 . S
C644 C636 1.574 . S
C644 H639 0.949 . S
C644 C650 1.368 . S
C645 C629 1.349 . S
C645 H637 0.950 . S
C645 C643 1.327 . S
C646 C634 1.349 . S
C646 H640 0.950 . S
C646 C647 1.327 . S
C647 H641 0.950 . S
C647 C646 1.327 . S
C647 C651 1.429 . S
C648 C631 1.574 . S
C648 H642 0.949 . S
C648 C652 1.368 . S
C649 C630 1.429 . S
C649 C643 1.429 . S
C649 C650 1.523 . S
C650 C631 1.368 . S
C650 C644 1.368 . S
C650 C649 1.523 . S
C651 C635 1.429 . S
C651 C647 1.429 . S
C651 C652 1.523 . S
C652 C636 1.368 . S
C652 C648 1.368 . S
C652 C651 1.523 . S
H653 C628 0.950 . S
H654 C630 0.950 . S
H655 C631 0.949 . S
H656 C633 0.950 . S
H657 C635 0.950 . S
C658 C659 1.349 . S
C658 C660 1.327 . S
C658 H683 0.950 . S
C659 C658 1.349 . S
C659 C675 1.349 . S
C660 C658 1.327 . S
C660 C679 1.429 . S
C660 H684 0.950 . S
C661 C678 1.574 . S
C661 C680 1.368 . S
C661 H685 0.949 . S
H662 C666 0.949 . S
C663 C664 1.349 . S
C663 C665 1.327 . S
C663 H686 0.950 . S
C664 C663 1.349 . S
C664 C676 1.349 . S
C665 C663 1.327 . S
C665 C681 1.429 . S
C665 H687 0.950 . S
C666 H662 0.949 . S
C666 C674 1.574 . S
C666 C682 1.368 . S
H667 C675 0.950 . S
H668 C673 0.950 . S
H669 C674 0.949 . S
H670 C676 0.950 . S
H671 C677 0.950 . S
H672 C678 0.949 . S
C673 H668 0.950 . S
C673 C675 1.327 . S
C673 C679 1.429 . S
C674 C666 1.574 . S
C674 H669 0.949 . S
C674 C680 1.368 . S
C675 C659 1.349 . S
C675 H667 0.950 . S
C675 C673 1.327 . S
C676 C664 1.349 . S
C676 H670 0.950 . S
C676 C677 1.327 . S
C677 H671 0.950 . S
C677 C676 1.327 . S
C677 C681 1.429 . S
C678 C661 1.574 . S
C678 H672 0.949 . S
C678 C682 1.368 . S
C679 C660 1.429 . S
C679 C673 1.429 . S
C679 C680 1.523 . S
C680 C661 1.368 . S
C680 C674 1.368 . S
C680 C679 1.523 . S
C681 C665 1.429 . S
C681 C677 1.429 . S
C681 C682 1.523 . S
C682 C666 1.368 . S
C682 C678 1.368 . S
C682 C681 1.523 . S
H683 C658 0.950 . S
H684 C660 0.950 . S
H685 C661 0.949 . S
H686 C663 0.950 . S
H687 C665 0.950 . S
C688 C689 1.349 . S
C688 C690 1.327 . S
C688 H713 0.950 . S
C689 C688 1.349 . S
C689 C705 1.349 . S
C690 C688 1.327 . S
C690 C709 1.429 . S
C690 H714 0.950 . S
C691 C708 1.574 . S
C691 C710 1.368 1_554 S
C691 H715 0.949 . S
H692 C696 0.949 . S
C693 C694 1.349 . S
C693 C695 1.327 . S
C693 H716 0.950 . S
C694 C693 1.349 . S
C694 C706 1.349 . S
C695 C693 1.327 . S
C695 C711 1.429 . S
C695 H717 0.950 . S
C696 H692 0.949 . S
C696 C704 1.574 . S
C696 C712 1.368 1_556 S
H697 C705 0.950 . S
H698 C703 0.950 1_554 S
H699 C704 0.949 . S
H700 C706 0.950 . S
H701 C707 0.950 1_556 S
H702 C708 0.949 . S
C703 H698 0.950 1_556 S
C703 C705 1.327 . S
C703 C709 1.429 . S
C704 C696 1.574 . S
C704 H699 0.949 . S
C704 C710 1.368 . S
C705 C689 1.349 . S
C705 H697 0.950 . S
C705 C703 1.327 . S
C706 C694 1.349 . S
C706 H700 0.950 . S
C706 C707 1.327 . S
C707 H701 0.950 1_554 S
C707 C706 1.327 . S
C707 C711 1.429 . S
C708 C691 1.574 . S
C708 H702 0.949 . S
C708 C712 1.368 . S
C709 C690 1.429 . S
C709 C703 1.429 . S
C709 C710 1.523 . S
C710 C691 1.368 1_556 S
C710 C704 1.368 . S
C710 C709 1.523 . S
C711 C695 1.429 . S
C711 C707 1.429 . S
C711 C712 1.523 . S
C712 C696 1.368 1_554 S
C712 C708 1.368 . S
C712 C711 1.523 . S
H713 C688 0.950 . S
H714 C690 0.950 . S
H715 C691 0.949 . S
H716 C693 0.950 . S
H717 C695 0.950 . S
C718 C719 1.349 . S
C718 C720 1.327 . S
C718 H743 0.950 . S
C719 C718 1.349 . S
C719 C735 1.349 . S
C720 C718 1.327 . S
C720 C739 1.429 . S
C720 H744 0.950 . S
C721 C738 1.574 . S
C721 C740 1.368 . S
C721 H745 0.949 . S
H722 C726 0.949 . S
C723 C724 1.349 . S
C723 C725 1.327 . S
C723 H746 0.950 . S
C724 C723 1.349 . S
C724 C736 1.349 . S
C725 C723 1.327 . S
C725 C741 1.429 . S
C725 H747 0.950 . S
C726 H722 0.949 . S
C726 C734 1.574 . S
C726 C742 1.368 . S
H727 C735 0.950 . S
H728 C733 0.950 . S
H729 C734 0.949 . S
H730 C736 0.950 . S
H731 C737 0.950 . S
H732 C738 0.949 . S
C733 H728 0.950 . S
C733 C735 1.327 . S
C733 C739 1.429 . S
C734 C726 1.574 . S
C734 H729 0.949 . S
C734 C740 1.368 . S
C735 C719 1.349 . S
C735 H727 0.950 . S
C735 C733 1.327 . S
C736 C724 1.349 . S
C736 H730 0.950 . S
C736 C737 1.327 . S
C737 H731 0.950 . S
C737 C736 1.327 . S
C737 C741 1.429 . S
C738 C721 1.574 . S
C738 H732 0.949 . S
C738 C742 1.368 . S
C739 C720 1.429 . S
C739 C733 1.429 . S
C739 C740 1.523 . S
C740 C721 1.368 . S
C740 C734 1.368 . S
C740 C739 1.523 . S
C741 C725 1.429 . S
C741 C737 1.429 . S
C741 C742 1.523 . S
C742 C726 1.368 . S
C742 C738 1.368 . S
C742 C741 1.523 . S
H743 C718 0.950 . S
H744 C720 0.950 . S
H745 C721 0.949 . S
H746 C723 0.950 . S
H747 C725 0.950 . S
C748 C749 1.349 . S
C748 C750 1.327 . S
C748 H773 0.950 . S
C749 C748 1.349 . S
C749 C765 1.349 . S
C750 C748 1.327 . S
C750 C769 1.429 . S
C750 H774 0.950 . S
C751 C768 1.574 . S
C751 C770 1.368 1_556 S
C751 H775 0.949 . S
H752 C756 0.949 . S
C753 C754 1.349 . S
C753 C755 1.327 . S
C753 H776 0.950 . S
C754 C753 1.349 . S
C754 C766 1.349 . S
C755 C753 1.327 . S
C755 C771 1.429 . S
C755 H777 0.950 . S
C756 H752 0.949 . S
C756 C764 1.574 . S
C756 C772 1.368 1_554 S
H757 C765 0.950 . S
H758 C763 0.950 1_556 S
H759 C764 0.949 . S
H760 C766 0.950 . S
H761 C767 0.950 1_554 S
H762 C768 0.949 . S
C763 H758 0.950 1_554 S
C763 C765 1.327 . S
C763 C769 1.429 . S
C764 C756 1.574 . S
C764 H759 0.949 . S
C764 C770 1.368 . S
C765 C749 1.349 . S
C765 H757 0.950 . S
C765 C763 1.327 . S
C766 C754 1.349 . S
C766 H760 0.950 . S
C766 C767 1.327 . S
C767 H761 0.950 1_556 S
C767 C766 1.327 . S
C767 C771 1.429 . S
C768 C751 1.574 . S
C768 H762 0.949 . S
C768 C772 1.368 . S
C769 C750 1.429 . S
C769 C763 1.429 . S
C769 C770 1.523 . S
C770 C751 1.368 1_554 S
C770 C764 1.368 . S
C770 C769 1.523 . S
C771 C755 1.429 . S
C771 C767 1.429 . S
C771 C772 1.523 . S
C772 C756 1.368 1_556 S
C772 C768 1.368 . S
C772 C771 1.523 . S
H773 C748 0.950 . S
H774 C750 0.950 . S
H775 C751 0.949 . S
H776 C753 0.950 . S
H777 C755 0.950 . S
C778 C779 1.349 . S
C778 C780 1.327 . S
C778 H803 0.950 . S
C779 C778 1.349 . S
C779 C795 1.349 . S
C780 C778 1.327 . S
C780 C799 1.429 . S
C780 H804 0.950 . S
C781 C798 1.574 . S
C781 C800 1.368 . S
C781 H805 0.949 . S
H782 C786 0.949 . S
C783 C784 1.349 . S
C783 C785 1.327 . S
C783 H806 0.950 . S
C784 C783 1.349 . S
C784 C796 1.349 . S
C785 C783 1.327 . S
C785 C801 1.429 . S
C785 H807 0.950 . S
C786 H782 0.949 . S
C786 C794 1.574 . S
C786 C802 1.368 . S
H787 C795 0.950 . S
H788 C793 0.950 . S
H789 C794 0.949 . S
H790 C796 0.950 . S
H791 C797 0.950 . S
H792 C798 0.949 . S
C793 H788 0.950 . S
C793 C795 1.327 . S
C793 C799 1.429 . S
C794 C786 1.574 . S
C794 H789 0.949 . S
C794 C800 1.368 . S
C795 C779 1.349 . S
C795 H787 0.950 . S
C795 C793 1.327 . S
C796 C784 1.349 . S
C796 H790 0.950 . S
C796 C797 1.327 . S
C797 H791 0.950 . S
C797 C796 1.327 . S
C797 C801 1.429 . S
C798 C781 1.574 . S
C798 H792 0.949 . S
C798 C802 1.368 . S
C799 C780 1.429 . S
C799 C793 1.429 . S
C799 C800 1.523 . S
C800 C781 1.368 . S
C800 C794 1.368 . S
C800 C799 1.523 . S
C801 C785 1.429 . S
C801 C797 1.429 . S
C801 C802 1.523 . S
C802 C786 1.368 . S
C802 C798 1.368 . S
C802 C801 1.523 . S
H803 C778 0.950 . S
H804 C780 0.950 . S
H805 C781 0.949 . S
H806 C783 0.950 . S
H807 C785 0.950 . S
C808 C809 1.349 . S
C808 C810 1.327 . S
C808 H833 0.950 . S
C809 C808 1.349 . S
C809 C825 1.349 . S
C810 C808 1.327 . S
C810 C829 1.429 . S
C810 H834 0.950 . S
C811 C828 1.574 . S
C811 C830 1.368 1_556 S
C811 H835 0.949 . S
H812 C816 0.949 . S
C813 C814 1.349 . S
C813 C815 1.327 . S
C813 H836 0.950 . S
C814 C813 1.349 . S
C814 C826 1.349 . S
C815 C813 1.327 . S
C815 C831 1.429 . S
C815 H837 0.950 . S
C816 H812 0.949 . S
C816 C824 1.574 . S
C816 C832 1.368 1_554 S
H817 C825 0.950 . S
H818 C823 0.950 1_556 S
H819 C824 0.949 . S
H820 C826 0.950 . S
H821 C827 0.950 1_554 S
H822 C828 0.949 . S
C823 H818 0.950 1_554 S
C823 C825 1.327 . S
C823 C829 1.429 . S
C824 C816 1.574 . S
C824 H819 0.949 . S
C824 C830 1.368 . S
C825 C809 1.349 . S
C825 H817 0.950 . S
C825 C823 1.327 . S
C826 C814 1.349 . S
C826 H820 0.950 . S
C826 C827 1.327 . S
C827 H821 0.950 1_556 S
C827 C826 1.327 . S
C827 C831 1.429 . S
C828 C811 1.574 . S
C828 H822 0.949 . S
C828 C832 1.368 . S
C829 C810 1.429 . S
C829 C823 1.429 . S
C829 C830 1.523 . S
C830 C811 1.368 1_554 S
C830 C824 1.368 . S
C830 C829 1.523 . S
C831 C815 1.429 . S
C831 C827 1.429 . S
C831 C832 1.523 . S
C832 C816 1.368 1_556 S
C832 C828 1.368 . S
C832 C831 1.523 . S
H833 C808 0.950 . S
H834 C810 0.950 . S
H835 C811 0.949 . S
H836 C813 0.950 . S
H837 C815 0.950 . S
C838 C839 1.349 . S
C838 C840 1.327 . S
C838 H863 0.950 . S
C839 C838 1.349 . S
C839 C855 1.349 . S
C840 C838 1.327 . S
C840 C859 1.429 . S
C840 H864 0.950 . S
C841 C858 1.574 . S
C841 C860 1.368 . S
C841 H865 0.949 . S
H842 C846 0.949 . S
C843 C844 1.349 . S
C843 C845 1.327 . S
C843 H866 0.950 . S
C844 C843 1.349 . S
C844 C856 1.349 . S
C845 C843 1.327 . S
C845 C861 1.429 . S
C845 H867 0.950 . S
C846 H842 0.949 . S
C846 C854 1.574 . S
C846 C862 1.368 . S
H847 C855 0.950 . S
H848 C853 0.950 . S
H849 C854 0.949 . S
H850 C856 0.950 . S
H851 C857 0.950 . S
H852 C858 0.949 . S
C853 H848 0.950 . S
C853 C855 1.327 . S
C853 C859 1.429 . S
C854 C846 1.574 . S
C854 H849 0.949 . S
C854 C860 1.368 . S
C855 C839 1.349 . S
C855 H847 0.950 . S
C855 C853 1.327 . S
C856 C844 1.349 . S
C856 H850 0.950 . S
C856 C857 1.327 . S
C857 H851 0.950 . S
C857 C856 1.327 . S
C857 C861 1.429 . S
C858 C841 1.574 . S
C858 H852 0.949 . S
C858 C862 1.368 . S
C859 C840 1.429 . S
C859 C853 1.429 . S
C859 C860 1.523 . S
C860 C841 1.368 . S
C860 C854 1.368 . S
C860 C859 1.523 . S
C861 C845 1.429 . S
C861 C857 1.429 . S
C861 C862 1.523 . S
C862 C846 1.368 . S
C862 C858 1.368 . S
C862 C861 1.523 . S
H863 C838 0.950 . S
H864 C840 0.950 . S
H865 C841 0.949 . S
H866 C843 0.950 . S
H867 C845 0.950 . S
C868 C869 1.349 . S
C868 C870 1.327 . S
C868 H893 0.950 . S
C869 C868 1.349 . S
C869 C885 1.349 . S
C870 C868 1.327 . S
C870 C889 1.429 . S
C870 H894 0.950 . S
C871 C888 1.585 . S
C871 C890 1.368 . S
C871 H895 0.949 . S
H872 C876 0.949 . S
C873 C874 1.349 . S
C873 C875 1.327 . S
C873 H896 0.950 . S
C874 C873 1.349 . S
C874 C886 1.349 . S
C875 C873 1.327 . S
C875 C891 1.429 . S
C875 H897 0.950 . S
C876 H872 0.949 . S
C876 C884 1.574 . S
C876 C892 1.368 . S
H877 C885 0.950 . S
H878 C883 0.950 . S
H879 C884 0.949 . S
H880 C886 0.950 . S
H881 C887 0.950 . S
H882 C888 0.949 . S
C883 H878 0.950 . S
C883 C885 1.327 . S
C883 C889 1.429 . S
C884 C876 1.574 . S
C884 H879 0.949 . S
C884 C890 1.368 1_556 S
C885 C869 1.349 . S
C885 H877 0.950 . S
C885 C883 1.327 . S
C886 C874 1.349 . S
C886 H880 0.950 . S
C886 C887 1.327 . S
C887 H881 0.950 . S
C887 C886 1.327 . S
C887 C891 1.429 . S
C888 C871 1.585 . S
C888 H882 0.949 . S
C888 C892 1.357 1_554 S
C889 C870 1.429 . S
C889 C883 1.429 . S
C889 C890 1.523 . S
C890 C871 1.368 . S
C890 C884 1.368 1_554 S
C890 C889 1.523 . S
C891 C875 1.429 . S
C891 C887 1.429 . S
C891 C892 1.523 . S
C892 C876 1.368 . S
C892 C888 1.357 1_556 S
C892 C891 1.523 . S
H893 C868 0.950 . S
H894 C870 0.950 . S
H895 C871 0.949 . S
H896 C873 0.950 . S
H897 C875 0.950 . S
C898 C899 1.349 . S
C898 C900 1.327 . S
C898 H923 0.950 . S
C899 C898 1.349 . S
C899 C915 1.349 . S
C900 C898 1.327 . S
C900 C919 1.429 . S
C900 H924 0.950 . S
C901 C918 1.574 . S
C901 C920 1.368 . S
C901 H925 0.949 . S
H902 C906 0.949 . S
C903 C904 1.349 . S
C903 C905 1.327 . S
C903 H926 0.950 . S
C904 C903 1.349 . S
C904 C916 1.349 . S
C905 C903 1.327 . S
C905 C921 1.429 . S
C905 H927 0.950 . S
C906 H902 0.949 . S
C906 C914 1.574 . S
C906 C922 1.368 . S
H907 C915 0.950 . S
H908 C913 0.950 . S
H909 C914 0.949 . S
H910 C916 0.950 . S
H911 C917 0.950 . S
H912 C918 0.949 . S
C913 H908 0.950 . S
C913 C915 1.327 . S
C913 C919 1.429 . S
C914 C906 1.574 . S
C914 H909 0.949 . S
C914 C920 1.368 . S
C915 C899 1.349 . S
C915 H907 0.950 . S
C915 C913 1.327 . S
C916 C904 1.349 . S
C916 H910 0.950 . S
C916 C917 1.327 . S
C917 H911 0.950 . S
C917 C916 1.327 . S
C917 C921 1.429 . S
C918 C901 1.574 . S
C918 H912 0.949 . S
C918 C922 1.368 . S
C919 C900 1.429 . S
C919 C913 1.429 . S
C919 C920 1.523 . S
C920 C901 1.368 . S
C920 C914 1.368 . S
C920 C919 1.523 . S
C921 C905 1.429 . S
C921 C917 1.429 . S
C921 C922 1.523 . S
C922 C906 1.368 . S
C922 C918 1.368 . S
C922 C921 1.523 . S
H923 C898 0.950 . S
H924 C900 0.950 . S
H925 C901 0.949 . S
H926 C903 0.950 . S
H927 C905 0.950 . S
C928 C929 1.349 . S
C928 C930 1.327 . S
C928 H953 0.950 . S
C929 C928 1.349 . S
C929 C945 1.349 . S
C930 C928 1.327 . S
C930 C949 1.429 . S
C930 H954 0.948 . S
C931 C948 1.574 . S
C931 C950 1.368 . S
C931 H955 0.949 . S
H932 C936 0.949 . S
C933 C934 1.349 . S
C933 C935 1.327 . S
C933 H956 0.950 . S
C934 C933 1.349 . S
C934 C946 1.349 . S
C935 C933 1.327 . S
C935 C951 1.429 . S
C935 H957 0.948 . S
C936 H932 0.949 . S
C936 C944 1.574 . S
C936 C952 1.368 . S
H937 C945 0.950 . S
H938 C943 0.950 . S
H939 C944 0.949 . S
H940 C946 0.950 . S
H941 C947 0.950 . S
H942 C948 0.949 . S
C943 H938 0.950 . S
C943 C945 1.327 . S
C943 C949 1.429 . S
C944 C936 1.574 . S
C944 H939 0.949 . S
C944 C950 1.368 1_554 S
C945 C929 1.349 . S
C945 H937 0.950 . S
C945 C943 1.327 . S
C946 C934 1.349 . S
C946 H940 0.950 . S
C946 C947 1.327 . S
C947 H941 0.950 . S
C947 C946 1.327 . S
C947 C951 1.429 . S
C948 C931 1.574 . S
C948 H942 0.949 . S
C948 C952 1.368 1_556 S
C949 C930 1.429 . S
C949 C943 1.429 . S
C949 C950 1.523 . S
C950 C931 1.368 . S
C950 C944 1.368 1_556 S
C950 C949 1.523 . S
C951 C935 1.429 . S
C951 C947 1.429 . S
C951 C952 1.523 . S
C952 C936 1.368 . S
C952 C948 1.368 1_554 S
C952 C951 1.523 . S
H953 C928 0.950 . S
H954 C930 0.948 . S
H955 C931 0.949 . S
H956 C933 0.950 . S
H957 C935 0.948 . S
C958 C959 1.349 . S
C958 C960 1.327 . S
C958 H983 0.950 . S
C959 C958 1.349 . S
C959 C975 1.349 . S
C960 C958 1.327 . S
C960 C979 1.429 . S
C960 H984 0.950 . S
C961 C978 1.574 . S
C961 C980 1.368 . S
C961 H985 0.949 . S
H962 C966 0.949 . S
C963 C964 1.349 . S
C963 C965 1.327 . S
C963 H986 0.950 . S
C964 C963 1.349 . S
C964 C976 1.349 . S
C965 C963 1.327 . S
C965 C981 1.429 . S
C965 H987 0.950 . S
C966 H962 0.949 . S
C966 C974 1.574 . S
C966 C982 1.368 . S
H967 C975 0.950 . S
H968 C973 0.950 . S
H969 C974 0.949 . S
H970 C976 0.950 . S
H971 C977 0.950 . S
H972 C978 0.949 . S
C973 H968 0.950 . S
C973 C975 1.327 . S
C973 C979 1.429 . S
C974 C966 1.574 . S
C974 H969 0.949 . S
C974 C980 1.368 . S
C975 C959 1.349 . S
C975 H967 0.950 . S
C975 C973 1.327 . S
C976 C964 1.349 . S
C976 H970 0.950 . S
C976 C977 1.327 . S
C977 H971 0.950 . S
C977 C976 1.327 . S
C977 C981 1.429 . S
C978 C961 1.574 . S
C978 H972 0.949 . S
C978 C982 1.368 . S
C979 C960 1.429 . S
C979 C973 1.429 . S
C979 C980 1.523 . S
C980 C961 1.368 . S
C980 C974 1.368 . S
C980 C979 1.523 . S
C981 C965 1.429 . S
C981 C977 1.429 . S
C981 C982 1.523 . S
C982 C966 1.368 . S
C982 C978 1.368 . S
C982 C981 1.523 . S
H983 C958 0.950 . S
H984 C960 0.950 . S
H985 C961 0.949 . S
H986 C963 0.950 . S
H987 C965 0.950 . S
C988 C989 1.349 . S
C988 C990 1.327 . S
C988 H1013 0.950 . S
C989 C988 1.349 . S
C989 C1005 1.349 . S
C990 C988 1.327 . S
C990 C1009 1.429 . S
C990 H1014 0.950 1_554 S
C991 C1008 1.574 . S
C991 C1010 1.368 . S
C991 H1015 0.949 . S
H992 C996 0.949 . S
C993 C994 1.349 . S
C993 C995 1.327 . S
C993 H1016 0.950 . S
C994 C993 1.349 . S
C994 C1006 1.349 . S
C995 C993 1.327 . S
C995 C1011 1.429 . S
C995 H1017 0.950 1_556 S
C996 H992 0.949 . S
C996 C1004 1.574 . S
C996 C1012 1.368 . S
H997 C1005 0.950 . S
H998 C1003 0.950 . S
H999 C1004 0.949 . S
H1000 C1006 0.950 . S
H1001 C1007 0.950 . S
H1002 C1008 0.949 . S
C1003 H998 0.950 . S
C1003 C1005 1.327 . S
C1003 C1009 1.429 . S
C1004 C996 1.574 . S
C1004 H999 0.949 . S
C1004 C1010 1.368 1_556 S
C1005 C989 1.349 . S
C1005 H997 0.950 . S
C1005 C1003 1.327 . S
C1006 C994 1.349 . S
C1006 H1000 0.950 . S
C1006 C1007 1.327 . S
C1007 H1001 0.950 . S
C1007 C1006 1.327 . S
C1007 C1011 1.429 . S
C1008 C991 1.574 . S
C1008 H1002 0.949 . S
C1008 C1012 1.368 1_554 S
C1009 C990 1.429 . S
C1009 C1003 1.429 . S
C1009 C1010 1.523 . S
C1010 C991 1.368 . S
C1010 C1004 1.368 1_554 S
C1010 C1009 1.523 . S
C1011 C995 1.429 . S
C1011 C1007 1.429 . S
C1011 C1012 1.523 . S
C1012 C996 1.368 . S
C1012 C1008 1.368 1_556 S
C1012 C1011 1.523 . S
H1013 C988 0.950 . S
H1014 C990 0.950 1_556 S
H1015 C991 0.949 . S
H1016 C993 0.950 . S
H1017 C995 0.950 1_554 S
C1018 C1019 1.349 . S
C1018 C1020 1.327 . S
C1018 H1043 0.950 . S
C1019 C1018 1.349 . S
C1019 C1035 1.349 . S
C1020 C1018 1.327 . S
C1020 C1039 1.429 . S
C1020 H1044 0.950 . S
C1021 C1038 1.574 . S
C1021 C1040 1.368 . S
C1021 H1045 0.949 . S
H1022 C1026 0.949 . S
C1023 C1024 1.349 . S
C1023 C1025 1.327 . S
C1023 H1046 0.950 . S
C1024 C1023 1.349 . S
C1024 C1036 1.349 . S
C1025 C1023 1.327 . S
C1025 C1041 1.429 . S
C1025 H1047 0.950 . S
C1026 H1022 0.949 . S
C1026 C1034 1.574 . S
C1026 C1042 1.368 . S
H1027 C1035 0.950 . S
H1028 C1033 0.950 . S
H1029 C1034 0.949 . S
H1030 C1036 0.950 . S
H1031 C1037 0.950 . S
H1032 C1038 0.949 . S
C1033 H1028 0.950 . S
C1033 C1035 1.327 . S
C1033 C1039 1.429 . S
C1034 C1026 1.574 . S
C1034 H1029 0.949 . S
C1034 C1040 1.368 . S
C1035 C1019 1.349 . S
C1035 H1027 0.950 . S
C1035 C1033 1.327 . S
C1036 C1024 1.349 . S
C1036 H1030 0.950 . S
C1036 C1037 1.327 . S
C1037 H1031 0.950 . S
C1037 C1036 1.327 . S
C1037 C1041 1.429 . S
C1038 C1021 1.574 . S
C1038 H1032 0.949 . S
C1038 C1042 1.368 . S
C1039 C1020 1.429 . S
C1039 C1033 1.429 . S
C1039 C1040 1.523 . S
C1040 C1021 1.368 . S
C1040 C1034 1.368 . S
C1040 C1039 1.523 . S
C1041 C1025 1.429 . S
C1041 C1037 1.429 . S
C1041 C1042 1.523 . S
C1042 C1026 1.368 . S
C1042 C1038 1.368 . S
C1042 C1041 1.523 . S
H1043 C1018 0.950 . S
H1044 C1020 0.950 . S
H1045 C1021 0.949 . S
H1046 C1023 0.950 . S
H1047 C1025 0.950 . S
C1048 C1049 1.349 . S
C1048 C1050 1.327 . S
C1048 H1073 0.950 . S
C1049 C1048 1.349 . S
C1049 C1065 1.349 . S
C1050 C1048 1.327 . S
C1050 C1069 1.429 . S
C1050 H1074 0.950 . S
C1051 C1068 1.574 1_545 S
C1051 C1070 1.368 1_554 S
C1051 H1075 0.949 . S
H1052 C1056 0.949 . S
C1053 C1054 1.349 . S
C1053 C1055 1.327 . S
C1053 H1076 0.950 . S
C1054 C1053 1.349 . S
C1054 C1066 1.349 . S
C1055 C1053 1.327 . S
C1055 C1071 1.429 . S
C1055 H1077 0.950 . S
C1056 H1052 0.949 . S
C1056 C1064 1.574 1_565 S
C1056 C1072 1.368 1_556 S
H1057 C1065 0.950 . S
H1058 C1063 0.950 . S
H1059 C1064 0.949 . S
H1060 C1066 0.950 . S
H1061 C1067 0.950 . S
H1062 C1068 0.949 . S
C1063 H1058 0.950 . S
C1063 C1065 1.327 . S
C1063 C1069 1.429 . S
C1064 C1056 1.574 1_545 S
C1064 H1059 0.949 . S
C1064 C1070 1.368 . S
C1065 C1049 1.349 . S
C1065 H1057 0.950 . S
C1065 C1063 1.327 . S
C1066 C1054 1.349 . S
C1066 H1060 0.950 . S
C1066 C1067 1.327 . S
C1067 H1061 0.950 . S
C1067 C1066 1.327 . S
C1067 C1071 1.429 . S
C1068 C1051 1.574 1_565 S
C1068 H1062 0.949 . S
C1068 C1072 1.368 . S
C1069 C1050 1.429 . S
C1069 C1063 1.429 . S
C1069 C1070 1.523 . S
C1070 C1051 1.368 1_556 S
C1070 C1064 1.368 . S
C1070 C1069 1.523 . S
C1071 C1055 1.429 . S
C1071 C1067 1.429 . S
C1071 C1072 1.523 . S
C1072 C1056 1.368 1_554 S
C1072 C1068 1.368 . S
C1072 C1071 1.523 . S
H1073 C1048 0.950 . S
H1074 C1050 0.950 . S
H1075 C1051 0.949 . S
H1076 C1053 0.950 . S
H1077 C1055 0.950 . S
C1078 C1079 1.349 . S
C1078 C1080 1.327 . S
C1078 H1103 0.950 . S
C1079 C1078 1.349 . S
C1079 C1095 1.349 . S
C1080 C1078 1.327 . S
C1080 C1099 1.429 . S
C1080 H1104 0.950 . S
C1081 C1098 1.574 1_565 S
C1081 C1100 1.368 . S
C1081 H1105 0.949 . S
H1082 C1086 0.949 . S
C1083 C1084 1.349 . S
C1083 C1085 1.327 . S
C1083 H1106 0.950 . S
C1084 C1083 1.349 . S
C1084 C1096 1.349 . S
C1085 C1083 1.327 . S
C1085 C1101 1.429 . S
C1085 H1107 0.950 . S
C1086 H1082 0.949 . S
C1086 C1094 1.574 1_545 S
C1086 C1102 1.368 . S
H1087 C1095 0.950 . S
H1088 C1093 0.950 . S
H1089 C1094 0.949 . S
H1090 C1096 0.950 . S
H1091 C1097 0.950 . S
H1092 C1098 0.949 . S
C1093 H1088 0.950 . S
C1093 C1095 1.327 . S
C1093 C1099 1.429 . S
C1094 C1086 1.574 1_565 S
C1094 H1089 0.949 . S
C1094 C1100 1.368 . S
C1095 C1079 1.349 . S
C1095 H1087 0.950 . S
C1095 C1093 1.327 . S
C1096 C1084 1.349 . S
C1096 H1090 0.950 . S
C1096 C1097 1.327 . S
C1097 H1091 0.950 . S
C1097 C1096 1.327 . S
C1097 C1101 1.429 . S
C1098 C1081 1.574 1_545 S
C1098 H1092 0.949 . S
C1098 C1102 1.368 . S
C1099 C1080 1.429 . S
C1099 C1093 1.429 . S
C1099 C1100 1.523 . S
C1100 C1081 1.368 . S
C1100 C1094 1.368 . S
C1100 C1099 1.523 . S
C1101 C1085 1.429 . S
C1101 C1097 1.429 . S
C1101 C1102 1.523 . S
C1102 C1086 1.368 . S
C1102 C1098 1.368 . S
C1102 C1101 1.523 . S
H1103 C1078 0.950 . S
H1104 C1080 0.950 . S
H1105 C1081 0.949 . S
H1106 C1083 0.950 . S
H1107 C1085 0.950 . S
C1108 C1109 1.349 . S
C1108 C1110 1.327 . S
C1108 H1133 0.950 . S
C1109 C1108 1.349 . S
C1109 C1125 1.349 . S
C1110 C1108 1.327 . S
C1110 C1129 1.429 . S
C1110 H1134 0.950 . S
C1111 C1128 1.574 1_565 S
C1111 C1130 1.368 1_556 S
C1111 H1135 0.949 . S
H1112 C1116 0.949 . S
C1113 C1114 1.349 . S
C1113 C1115 1.327 . S
C1113 H1136 0.950 . S
C1114 C1113 1.349 . S
C1114 C1126 1.349 . S
C1115 C1113 1.327 . S
C1115 C1131 1.429 . S
C1115 H1137 0.950 . S
C1116 H1112 0.949 . S
C1116 C1124 1.574 1_545 S
C1116 C1132 1.368 1_554 S
H1117 C1125 0.950 . S
H1118 C1123 0.950 1_556 S
H1119 C1124 0.949 . S
H1120 C1126 0.950 . S
H1121 C1127 0.950 1_554 S
H1122 C1128 0.949 . S
C1123 H1118 0.950 1_554 S
C1123 C1125 1.327 . S
C1123 C1129 1.429 . S
C1124 C1116 1.574 1_565 S
C1124 H1119 0.949 . S
C1124 C1130 1.368 . S
C1125 C1109 1.349 . S
C1125 H1117 0.950 . S
C1125 C1123 1.327 . S
C1126 C1114 1.349 . S
C1126 H1120 0.950 . S
C1126 C1127 1.327 . S
C1127 H1121 0.950 1_556 S
C1127 C1126 1.327 . S
C1127 C1131 1.429 . S
C1128 C1111 1.574 1_545 S
C1128 H1122 0.949 . S
C1128 C1132 1.368 . S
C1129 C1110 1.429 . S
C1129 C1123 1.429 . S
C1129 C1130 1.523 . S
C1130 C1111 1.368 1_554 S
C1130 C1124 1.368 . S
C1130 C1129 1.523 . S
C1131 C1115 1.429 . S
C1131 C1127 1.429 . S
C1131 C1132 1.523 . S
C1132 C1116 1.368 1_556 S
C1132 C1128 1.368 . S
C1132 C1131 1.523 . S
H1133 C1108 0.950 . S
H1134 C1110 0.950 . S
H1135 C1111 0.949 . S
H1136 C1113 0.950 . S
H1137 C1115 0.950 . S
C1138 C1139 1.349 . S
C1138 C1140 1.327 . S
C1138 H1163 0.950 . S
C1139 C1138 1.349 . S
C1139 C1155 1.349 . S
C1140 C1138 1.327 . S
C1140 C1159 1.429 . S
C1140 H1164 0.950 . S
C1141 C1158 1.574 1_545 S
C1141 C1160 1.368 . S
C1141 H1165 0.949 . S
H1142 C1146 0.949 . S
C1143 C1144 1.349 . S
C1143 C1145 1.327 . S
C1143 H1166 0.950 . S
C1144 C1143 1.349 . S
C1144 C1156 1.349 . S
C1145 C1143 1.327 . S
C1145 C1161 1.429 . S
C1145 H1167 0.950 . S
C1146 H1142 0.949 . S
C1146 C1154 1.574 1_565 S
C1146 C1162 1.368 . S
H1147 C1155 0.950 . S
H1148 C1153 0.950 . S
H1149 C1154 0.949 . S
H1150 C1156 0.950 . S
H1151 C1157 0.950 . S
H1152 C1158 0.949 . S
C1153 H1148 0.950 . S
C1153 C1155 1.327 . S
C1153 C1159 1.429 . S
C1154 C1146 1.574 1_545 S
C1154 H1149 0.949 . S
C1154 C1160 1.368 . S
C1155 C1139 1.349 . S
C1155 H1147 0.950 . S
C1155 C1153 1.327 . S
C1156 C1144 1.349 . S
C1156 H1150 0.950 . S
C1156 C1157 1.327 . S
C1157 H1151 0.950 . S
C1157 C1156 1.327 . S
C1157 C1161 1.429 . S
C1158 C1141 1.574 1_565 S
C1158 H1152 0.949 . S
C1158 C1162 1.368 . S
C1159 C1140 1.429 . S
C1159 C1153 1.429 . S
C1159 C1160 1.523 . S
C1160 C1141 1.368 . S
C1160 C1154 1.368 . S
C1160 C1159 1.523 . S
C1161 C1145 1.429 . S
C1161 C1157 1.429 . S
C1161 C1162 1.523 . S
C1162 C1146 1.368 . S
C1162 C1158 1.368 . S
C1162 C1161 1.523 . S
H1163 C1138 0.950 . S
H1164 C1140 0.950 . S
H1165 C1141 0.949 . S
H1166 C1143 0.950 . S
H1167 C1145 0.950 . S
C209 C5 1.391 . S
C214 C83 1.392 . S
C239 C18 1.391 . S
C244 C96 1.392 . S
C269 C57 1.392 . S
C274 C31 1.391 . S
C299 C70 1.392 . S
C304 C44 1.391 . S
C329 C187 1.392 . S
C334 C109 1.391 . S
C359 C200 1.392 . S
C364 C122 1.391 . S
C389 C135 1.391 . S
C394 C161 1.392 . S
C419 C148 1.391 . S
C424 C174 1.392 . S
C449 C10 1.354 . S
C454 C73 1.313 . S
C479 C23 1.354 . S
C484 C60 1.313 . S
C509 C36 1.354 . S
C514 C99 1.313 . S
C539 C86 1.313 . S
C544 C49 1.354 . S
C569 C177 1.313 . S
C574 C114 1.354 . S
C599 C164 1.313 . S
C604 C127 1.354 . S
C629 C140 1.354 . S
C634 C203 1.313 . S
C659 C190 1.313 . S
C664 C153 1.354 . S
C689 C156 1.199 . S
C694 C0 1.201 . S
C719 C13 1.201 . S
C724 C169 1.199 . S
C749 C182 1.199 . S
C754 C26 1.201 . S
C779 C195 1.199 . S
C784 C39 1.201 . S
C809 C104 1.201 . S
C814 C52 1.199 . S
C839 C117 1.201 . S
C844 C65 1.199 . S
C869 C78 1.199 . S
C874 C130 1.201 . S
C899 C91 1.199 . S
C904 C143 1.201 . S
C929 C34 1.296 . S
C934 C8 1.296 . S
C959 C21 1.296 . S
C964 C47 1.296 . S
C989 C88 1.368 . S
C994 C62 1.368 . S
C1019 C75 1.368 . S
C1024 C101 1.368 . S
C1049 C138 1.296 . S
C1054 C112 1.296 . S
C1079 C151 1.296 . S
C1084 C125 1.296 . S
C1109 C192 1.368 . S
C1114 C166 1.368 . S
C1139 C205 1.368 . S
C1144 C179 1.368 . S
