# Generated by pormake.
# Topology uon, (4)-cn, num edge types: 1
# Building blocks:
#     Node 0, Type 0, BuildingBlock: KOZSID_clean_sbu_0, # of connection points: 4
#     Node 1, Type 0, BuildingBlock: KOZSID_clean_sbu_0, # of connection points: 4
#     Node 2, Type 0, BuildingBlock: KOZSID_clean_sbu_0, # of connection points: 4
#     Node 3, Type 0, BuildingBlock: KOZSID_clean_sbu_0, # of connection points: 4
#     Node 4, Type 0, BuildingBlock: KOZSID_clean_sbu_0, # of connection points: 4
#     Node 5, Type 0, BuildingBlock: KOZSID_clean_sbu_0, # of connection points: 4
#     Edge 6, Type (0, 0), BuildingBlock: MIFKUJ_clean_linker_0, # of connection points: 2
#     Edge 7, Type (0, 0), BuildingBlock: MIFKUJ_clean_linker_0, # of connection points: 2
#     Edge 8, Type (0, 0), BuildingBlock: MIFKUJ_clean_linker_0, # of connection points: 2
#     Edge 9, Type (0, 0), BuildingBlock: MIFKUJ_clean_linker_0, # of connection points: 2
#     Edge 10, Type (0, 0), BuildingBlock: MIFKUJ_clean_linker_0, # of connection points: 2
#     Edge 11, Type (0, 0), BuildingBlock: MIFKUJ_clean_linker_0, # of connection points: 2
#     Edge 12, Type (0, 0), BuildingBlock: MIFKUJ_clean_linker_0, # of connection points: 2
#     Edge 13, Type (0, 0), BuildingBlock: MIFKUJ_clean_linker_0, # of connection points: 2
#     Edge 14, Type (0, 0), BuildingBlock: MIFKUJ_clean_linker_0, # of connection points: 2
#     Edge 15, Type (0, 0), BuildingBlock: MIFKUJ_clean_linker_0, # of connection points: 2
#     Edge 16, Type (0, 0), BuildingBlock: MIFKUJ_clean_linker_0, # of connection points: 2
#     Edge 17, Type (0, 0), BuildingBlock: MIFKUJ_clean_linker_0, # of connection points: 2
# Relax obj value: 0.068
# Max RMSD: 0.128
# Mean RMSD: 0.128
data_MOF--net-uon--node1-KOZSID_clean_sbu_0--edge1-MIFKUJ_clean_linker_0
_symmetry_space_group_name_H-M    P1
_symmetry_Int_Tables_number       1
_symmetry_cell_setting            triclinic
loop_
_symmetry_equiv_pos_as_xyz
'x, y, z'
_cell_length_a     47.679369
_cell_length_b     47.682271
_cell_length_c     42.186633
_cell_angle_alpha  90.011403
_cell_angle_beta   89.997153
_cell_angle_gamma 119.99973
loop_
_atom_site_label
_atom_site_type_symbol
_atom_site_fract_x
_atom_site_fract_y
_atom_site_fract_z
_atom_type_partial_charge
C0 C 0.14298 0.3721 0.01907 0.0
C1 C 0.11201 0.36043 0.00699 0.0
C2 C 0.11537 0.37671 0.97939 0.0
C3 C 0.14803 0.39728 0.9762 0.0
N4 N 0.1658 0.39481 0.99985 0.0
Co5 Co 0.21406 0.4207 0.00496 0.0
N6 N 0.21849 0.44815 0.96717 0.0
C7 C 0.1942 0.44665 0.94931 0.0
C8 C 0.20464 0.4682 0.92464 0.0
C9 C 0.23759 0.48432 0.92667 0.0
C10 C 0.24538 0.47162 0.95265 0.0
N11 N 0.26249 0.44565 0.00925 0.0
C12 C 0.28524 0.46845 0.98999 0.0
C13 C 0.31638 0.47822 1.00052 0.0
C14 C 0.31323 0.46055 0.02708 0.0
C15 C 0.28051 0.44109 0.03123 0.0
N16 N 0.20943 0.39417 0.04361 0.0
C17 C 0.23348 0.39668 0.06256 0.0
C18 C 0.22265 0.37694 0.08867 0.0
C19 C 0.18968 0.36143 0.08672 0.0
C20 C 0.18235 0.37267 0.0594 0.0
N21 N 0.21857 0.38941 0.97727 0.0
C22 C 0.23364 0.35294 0.93514 0.0
C23 C 0.24414 0.35756 0.96656 0.0
C24 C 0.23621 0.37549 0.98708 0.0
C25 C 0.21366 0.36507 0.92568 0.0
C26 C 0.20638 0.38301 0.94702 0.0
N27 N 0.20978 0.45204 0.0327 0.0
C28 C 0.22585 0.48554 0.07968 0.0
C29 C 0.20096 0.49259 0.07543 0.0
C30 C 0.18118 0.47977 0.04869 0.0
C31 C 0.1861 0.45988 0.02769 0.0
C32 C 0.22972 0.46539 0.05837 0.0
H33 H 0.17017 0.45073 0.00781 0.0
H34 H 0.24884 0.46071 0.06343 0.0
H35 H 0.2454 0.37837 0.01052 0.0
H36 H 0.1916 0.39219 0.93821 0.0
C37 C 0.16221 0.42222 0.954 0.0
C38 C 0.14935 0.36318 0.05015 0.0
C39 C 0.27859 0.48115 0.9613 0.0
C40 C 0.26594 0.41848 0.05561 0.0
H41 H 0.08924 0.34297 0.01764 0.0
H42 H 0.09618 0.37501 0.96437 0.0
H43 H 0.19009 0.47089 0.90651 0.0
H44 H 0.25398 0.50259 0.91022 0.0
H45 H 0.33902 0.49605 0.98989 0.0
H46 H 0.3325 0.46155 0.04147 0.0
H47 H 0.23701 0.3747 0.10731 0.0
H48 H 0.17286 0.3443 0.10375 0.0
H49 H 0.2589 0.3478 0.97526 0.0
H50 H 0.20473 0.36191 0.90158 0.0
H51 H 0.2425 0.49556 0.09943 0.0
H52 H 0.1615 0.48442 0.04425 0.0
C53 C 0.77444 0.14338 0.35563 0.0
C54 C 0.75597 0.11189 0.34452 0.0
C55 C 0.74267 0.11375 0.31654 0.0
C56 C 0.75375 0.14611 0.31218 0.0
N57 N 0.77367 0.1651 0.33547 0.0
Co58 Co 0.79471 0.21341 0.33891 0.0
N59 N 0.77111 0.21564 0.30046 0.0
C60 C 0.74889 0.19037 0.28316 0.0
C61 C 0.73723 0.19931 0.25778 0.0
C62 C 0.75307 0.2323 0.25874 0.0
C63 C 0.77354 0.24164 0.28488 0.0
N64 N 0.81685 0.26189 0.34157 0.0
C65 C 0.81575 0.28357 0.32153 0.0
C66 C 0.83615 0.31522 0.33137 0.0
C67 C 0.85123 0.31354 0.35818 0.0
C68 C 0.8392 0.28112 0.36322 0.0
N69 N 0.81716 0.21098 0.37821 0.0
C70 C 0.83823 0.23599 0.39653 0.0
C71 C 0.84774 0.22661 0.42326 0.0
C72 C 0.83118 0.19357 0.42236 0.0
C73 C 0.81256 0.18477 0.395 0.0
N74 N 0.83099 0.21819 0.31178 0.0
C75 C 0.88305 0.23368 0.27013 0.0
C76 C 0.88853 0.24445 0.30151 0.0
C77 C 0.86245 0.23643 0.32173 0.0
C78 C 0.85105 0.21315 0.2606 0.0
C79 C 0.8256 0.20558 0.28172 0.0
N80 N 0.75862 0.20891 0.36601 0.0
C81 C 0.74028 0.22553 0.41195 0.0
C82 C 0.70853 0.20034 0.40756 0.0
C83 C 0.7021 0.18004 0.38134 0.0
C84 C 0.7273 0.18478 0.36095 0.0
C85 C 0.76467 0.22931 0.39118 0.0
H86 H 0.72098 0.16839 0.34151 0.0
H87 H 0.7883 0.24878 0.39622 0.0
H88 H 0.86849 0.24601 0.34506 0.0
H89 H 0.80177 0.19021 0.27286 0.0
C90 C 0.74239 0.15888 0.28907 0.0
C91 C 0.78998 0.15124 0.38661 0.0
C92 C 0.79627 0.27542 0.29271 0.0
C93 C 0.84797 0.26796 0.38833 0.0
H94 H 0.75153 0.08976 0.35604 0.0
H95 H 0.72562 0.09377 0.30197 0.0
H96 H 0.72029 0.18377 0.23989 0.0
H97 H 0.75056 0.24765 0.24147 0.0
H98 H 0.83994 0.33727 0.32018 0.0
H99 H 0.869 0.33357 0.37222 0.0
H100 H 0.86415 0.24194 0.44157 0.0
H101 H 0.83217 0.17768 0.44009 0.0
H102 H 0.91292 0.25952 0.3104 0.0
H103 H 0.84547 0.20393 0.23659 0.0
H104 H 0.74646 0.24249 0.43138 0.0
H105 H 0.6779 0.16012 0.37688 0.0
C106 C 0.63093 0.77311 0.68723 0.0
C107 C 0.64251 0.75342 0.67601 0.0
C108 C 0.62658 0.74021 0.64834 0.0
C109 C 0.6062 0.75241 0.64432 0.0
N110 N 0.6085 0.7731 0.66746 0.0
Co111 Co 0.58165 0.7945 0.67223 0.0
N112 N 0.5553 0.77176 0.63371 0.0
C113 C 0.55899 0.75098 0.61466 0.0
C114 C 0.53834 0.74026 0.58928 0.0
C115 C 0.52048 0.75523 0.59207 0.0
C116 C 0.53118 0.77417 0.61927 0.0
N117 N 0.5547 0.81579 0.67719 0.0
C118 C 0.53041 0.81379 0.65881 0.0
C119 C 0.5181 0.83259 0.67076 0.0
C120 C 0.53561 0.84747 0.69729 0.0
C121 C 0.5574 0.83684 0.70016 0.0
N122 N 0.60809 0.81727 0.71073 0.0
C123 C 0.60561 0.83926 0.72903 0.0
C124 C 0.62616 0.84957 0.75457 0.0
C125 C 0.64234 0.83275 0.75283 0.0
C126 C 0.63059 0.81306 0.72628 0.0
N127 N 0.61238 0.83113 0.64491 0.0
C128 C 0.64906 0.88299 0.603 0.0
C129 C 0.64025 0.88841 0.63295 0.0
C130 C 0.6222 0.86247 0.65328 0.0
C131 C 0.64078 0.85129 0.59508 0.0
C132 C 0.62272 0.82595 0.6163 0.0
N133 N 0.55079 0.75805 0.69942 0.0
C134 C 0.51981 0.7391 0.74785 0.0
C135 C 0.50692 0.7068 0.73868 0.0
C136 C 0.5168 0.70063 0.70952 0.0
C137 C 0.5387 0.72641 0.69048 0.0
C138 C 0.54119 0.764 0.72801 0.0
H139 H 0.54547 0.72022 0.66862 0.0
H140 H 0.54972 0.78792 0.73645 0.0
H141 H 0.61597 0.86847 0.67538 0.0
H142 H 0.61682 0.80234 0.6087 0.0
C143 C 0.58284 0.74287 0.62059 0.0
C144 C 0.64025 0.78951 0.7178 0.0
C145 C 0.51858 0.79498 0.62964 0.0
C146 C 0.58149 0.84718 0.7234 0.0
H147 H 0.65989 0.74829 0.68714 0.0
H148 H 0.62866 0.72276 0.63357 0.0
H149 H 0.5369 0.72401 0.57061 0.0
H150 H 0.5021 0.75287 0.57551 0.0
H151 H 0.49871 0.83553 0.66107 0.0
H152 H 0.53308 0.86441 0.71242 0.0
H153 H 0.62816 0.86629 0.77297 0.0
H154 H 0.66007 0.83404 0.76968 0.0
H155 H 0.64696 0.91264 0.64068 0.0
H156 H 0.64723 0.84582 0.57221 0.0
H157 H 0.51375 0.74539 0.7705 0.0
H158 H 0.50743 0.67608 0.70113 0.0
C159 C 0.85996 0.63085 0.01894 0.0
C160 C 0.8911 0.64231 0.00738 0.0
C161 C 0.88805 0.62609 0.97983 0.0
C162 C 0.85542 0.60567 0.9762 0.0
N163 N 0.83732 0.60818 0.9995 0.0
Co164 Co 0.78905 0.58172 0.00448 0.0
N165 N 0.78502 0.55481 0.96627 0.0
C166 C 0.80936 0.55791 0.94739 0.0
C167 C 0.79922 0.53691 0.9223 0.0
C168 C 0.76639 0.51935 0.92515 0.0
C169 C 0.75834 0.53056 0.95213 0.0
N170 N 0.74075 0.55541 0.00942 0.0
C171 C 0.71825 0.53097 0.99131 0.0
C172 C 0.68719 0.51932 0.00315 0.0
C173 C 0.69007 0.53743 0.02927 0.0
C174 C 0.72257 0.5589 0.03204 0.0
N175 N 0.79318 0.60843 0.04291 0.0
C176 C 0.76891 0.60618 0.06137 0.0
C177 C 0.77941 0.62679 0.08685 0.0
C178 C 0.81239 0.64276 0.08493 0.0
C179 C 0.82007 0.63084 0.05832 0.0
N180 N 0.78354 0.61256 0.9769 0.0
C181 C 0.76805 0.6488 0.93468 0.0
C182 C 0.75536 0.64176 0.96533 0.0
C183 C 0.76336 0.62389 0.9858 0.0
C184 C 0.7903 0.63912 0.9262 0.0
C185 C 0.7978 0.62135 0.94759 0.0
N186 N 0.79418 0.55073 0.0319 0.0
C187 C 0.78037 0.51865 0.07973 0.0
C188 C 0.80042 0.50628 0.0713 0.0
C189 C 0.81774 0.51701 0.04287 0.0
C190 C 0.81435 0.53915 0.02371 0.0
C191 C 0.7775 0.54041 0.05986 0.0
H192 H 0.82816 0.5465 0.00234 0.0
H193 H 0.76164 0.54858 0.06773 0.0
H194 H 0.75226 0.61901 0.00845 0.0
H195 H 0.81458 0.61437 0.93955 0.0
C196 C 0.84137 0.58187 0.9529 0.0
C197 C 0.85322 0.64054 0.04948 0.0
C198 C 0.72499 0.51826 0.96258 0.0
C199 C 0.73667 0.58277 0.05543 0.0
H200 H 0.91377 0.6598 0.01819 0.0
H201 H 0.9074 0.62797 0.96492 0.0
H202 H 0.81389 0.5351 0.90371 0.0
H203 H 0.75026 0.50086 0.90875 0.0
H204 H 0.66472 0.49987 0.99375 0.0
H205 H 0.67073 0.53534 0.04434 0.0
H206 H 0.76485 0.62912 0.10522 0.0
H207 H 0.82899 0.66058 0.10163 0.0
H208 H 0.73887 0.64965 0.97351 0.0
H209 H 0.80106 0.64418 0.90279 0.0
H210 H 0.76702 0.51187 0.10182 0.0
H211 H 0.83349 0.50807 0.03513 0.0
C212 C 0.23423 0.85998 0.34889 0.0
C213 C 0.25589 0.89007 0.33621 0.0
C214 C 0.26818 0.88444 0.30934 0.0
C215 C 0.25353 0.85142 0.30715 0.0
N216 N 0.23223 0.83554 0.33077 0.0
Co217 Co 0.20666 0.78746 0.33744 0.0
N218 N 0.22859 0.77955 0.30076 0.0
C219 C 0.25253 0.80216 0.28248 0.0
C220 C 0.26326 0.78949 0.25949 0.0
C221 C 0.2448 0.75676 0.263 0.0
C222 C 0.22356 0.75139 0.28786 0.0
N223 N 0.18043 0.73927 0.34358 0.0
C224 C 0.17897 0.71489 0.32572 0.0
C225 C 0.15574 0.68475 0.337 0.0
C226 C 0.14189 0.69025 0.36279 0.0
C227 C 0.15722 0.72327 0.36569 0.0
N228 N 0.18552 0.79551 0.3748 0.0
C229 C 0.16234 0.77301 0.39384 0.0
C230 C 0.15381 0.78592 0.41852 0.0
C231 C 0.17321 0.81863 0.41553 0.0
C232 C 0.19255 0.82375 0.38911 0.0
N233 N 0.17232 0.78458 0.30852 0.0
C234 C 0.12214 0.77116 0.26506 0.0
C235 C 0.1154 0.76196 0.29679 0.0
C236 C 0.14055 0.76893 0.31789 0.0
C237 C 0.15461 0.7892 0.2559 0.0
C238 C 0.17916 0.79575 0.27791 0.0
N239 N 0.24078 0.78997 0.36628 0.0
C240 C 0.2558 0.7743 0.41507 0.0
C241 C 0.28873 0.79417 0.40845 0.0
C242 C 0.2972 0.81195 0.38022 0.0
C243 C 0.27304 0.80956 0.35967 0.0
C244 C 0.23253 0.77246 0.39384 0.0
H245 H 0.28101 0.82383 0.33863 0.0
H246 H 0.20798 0.75687 0.40042 0.0
H247 H 0.13345 0.76063 0.34145 0.0
H248 H 0.20341 0.8091 0.26939 0.0
C249 C 0.26257 0.83495 0.28588 0.0
C250 C 0.2181 0.85579 0.37936 0.0
C251 C 0.19799 0.71918 0.29716 0.0
C252 C 0.1499 0.73994 0.38847 0.0
H253 H 0.26313 0.91372 0.34592 0.0
H254 H 0.28688 0.90232 0.29416 0.0
H255 H 0.28167 0.80247 0.24173 0.0
H256 H 0.24627 0.73887 0.2484 0.0
H257 H 0.14901 0.66123 0.32725 0.0
H258 H 0.12247 0.67231 0.3773 0.0
H259 H 0.13616 0.77306 0.43693 0.0
H260 H 0.1736 0.83671 0.43134 0.0
H261 H 0.09067 0.7489 0.30534 0.0
H262 H 0.16111 0.7972 0.23161 0.0
H263 H 0.24782 0.76046 0.43684 0.0
H264 H 0.32236 0.82744 0.37376 0.0
C265 C 0.37486 0.2346 0.68313 0.0
C266 C 0.36593 0.25614 0.67123 0.0
C267 C 0.38378 0.26918 0.64442 0.0
C268 C 0.40243 0.25486 0.64148 0.0
N269 N 0.39719 0.23306 0.66452 0.0
Co270 Co 0.41957 0.20724 0.66996 0.0
N271 N 0.44937 0.2301 0.63351 0.0
C272 C 0.45077 0.25458 0.61608 0.0
C273 C 0.47416 0.26586 0.59306 0.0
C274 C 0.4883 0.24719 0.59563 0.0
C275 C 0.47239 0.22528 0.61999 0.0
N276 N 0.44139 0.18075 0.67481 0.0
C277 C 0.46415 0.1796 0.6564 0.0
C278 C 0.47091 0.15596 0.66672 0.0
C279 C 0.45167 0.14156 0.69245 0.0
C280 C 0.43417 0.15698 0.69627 0.0
N281 N 0.3904 0.18518 0.7071 0.0
C282 C 0.38972 0.16156 0.72544 0.0
C283 C 0.36872 0.15289 0.75053 0.0
C284 C 0.3557 0.17264 0.74855 0.0
C285 C 0.36956 0.19219 0.72221 0.0
N286 N 0.388 0.17372 0.64045 0.0
C287 C 0.35007 0.12501 0.59605 0.0
C288 C 0.35308 0.11721 0.62729 0.0
C289 C 0.37183 0.14167 0.64888 0.0
C290 C 0.36503 0.15777 0.58786 0.0
C291 C 0.38351 0.18154 0.61031 0.0
N292 N 0.45123 0.24057 0.69937 0.0
C293 C 0.48206 0.25445 0.74808 0.0
C294 C 0.49463 0.2875 0.74254 0.0
C295 C 0.48514 0.29662 0.71484 0.0
C296 C 0.46358 0.27297 0.69377 0.0
C297 C 0.46075 0.23167 0.72638 0.0
H298 H 0.45716 0.28145 0.67318 0.0
H299 H 0.45205 0.20697 0.73216 0.0
H300 H 0.37353 0.13385 0.67199 0.0
H301 H 0.3945 0.20602 0.6025 0.0
C302 C 0.428 0.26455 0.62013 0.0
C303 C 0.36342 0.21815 0.7134 0.0
C304 C 0.47884 0.19932 0.62821 0.0
C305 C 0.41027 0.14918 0.71928 0.0
H306 H 0.34917 0.26264 0.68156 0.0
H307 H 0.38432 0.28808 0.62976 0.0
H308 H 0.47963 0.28474 0.57584 0.0
H309 H 0.5076 0.24896 0.58071 0.0
H310 H 0.48753 0.14931 0.65637 0.0
H311 H 0.45012 0.12172 0.70629 0.0
H312 H 0.36416 0.13504 0.76865 0.0
H313 H 0.33856 0.17319 0.76501 0.0
H314 H 0.3421 0.09222 0.63488 0.0
H315 H 0.36282 0.1651 0.56412 0.0
H316 H 0.48816 0.24599 0.76939 0.0
H317 H 0.49448 0.32192 0.70919 0.0
H318 H 0.2947 0.36259 0.9287 0.0
H319 H 0.31413 0.3378 0.89043 0.0
H320 H 0.21817 0.28332 0.85074 0.0
H321 H 0.19831 0.30778 0.8895 0.0
H322 H 0.24896 0.24639 0.85957 0.0
H323 H 0.27209 0.34764 0.81301 0.0
H324 H 0.29404 0.40667 0.81314 0.0
H325 H 0.38984 0.42224 0.82842 0.0
H326 H 0.36835 0.36322 0.82906 0.0
H327 H 0.29956 0.19926 0.7199 0.0
H328 H 0.27536 0.2209 0.75708 0.0
H329 H 0.37013 0.2858 0.79558 0.0
H330 H 0.39418 0.26438 0.75803 0.0
H331 H 0.33753 0.31697 0.78581 0.0
H332 H 0.31608 0.21786 0.83518 0.0
H333 H 0.29567 0.15916 0.8384 0.0
H334 H 0.19897 0.13989 0.8205 0.0
H335 H 0.2189 0.19853 0.81663 0.0
C336 C 0.27759 0.34504 0.9121 0.0
C337 C 0.24493 0.33708 0.91217 0.0
C338 C 0.2888 0.33109 0.89009 0.0
C339 C 0.26764 0.30894 0.8676 0.0
C340 C 0.23488 0.30042 0.86789 0.0
C341 C 0.22364 0.31456 0.88986 0.0
C342 C 0.2801 0.29525 0.8435 0.0
C343 C 0.26792 0.26171 0.84304 0.0
C344 C 0.30543 0.31542 0.82256 0.0
C345 C 0.31855 0.35097 0.82135 0.0
C346 C 0.29781 0.36363 0.8166 0.0
C347 C 0.31018 0.39711 0.81652 0.0
C348 C 0.34332 0.41821 0.82085 0.0
C349 C 0.36417 0.40587 0.82511 0.0
C350 C 0.35191 0.3724 0.82532 0.0
C351 C 0.31499 0.21802 0.73649 0.0
C352 C 0.34852 0.23019 0.73651 0.0
C353 C 0.30127 0.23032 0.7577 0.0
C354 C 0.32091 0.25481 0.77932 0.0
C355 C 0.35452 0.26695 0.77914 0.0
C356 C 0.36821 0.25468 0.75791 0.0
C357 C 0.30656 0.26803 0.80194 0.0
C358 C 0.31839 0.30155 0.80214 0.0
C359 C 0.28113 0.24786 0.82284 0.0
C360 C 0.26904 0.21259 0.82526 0.0
C361 C 0.2905 0.20111 0.83165 0.0
C362 C 0.27902 0.16785 0.83364 0.0
C363 C 0.24606 0.14581 0.82957 0.0
C364 C 0.2245 0.157 0.82358 0.0
C365 C 0.23588 0.19024 0.8215 0.0
H366 H 0.2372 0.12006 0.83114 0.0
H367 H 0.35287 0.44412 0.82089 0.0
H368 H 0.93566 0.29441 0.26528 0.0
H369 H 0.98032 0.31389 0.22768 0.0
H370 H 0.93681 0.21921 0.18469 0.0
H371 H 0.89239 0.19908 0.22318 0.0
H372 H 0.00157 0.24499 0.19185 0.0
H373 H 0.93111 0.27997 0.14939 0.0
H374 H 0.89781 0.30623 0.1503 0.0
H375 H 0.98207 0.39763 0.17165 0.0
H376 H 0.01582 0.37182 0.17138 0.0
H377 H 0.10101 0.30013 0.05299 0.0
H378 H 0.05524 0.27606 0.09021 0.0
H379 H 0.09279 0.36841 0.13721 0.0
H380 H 0.13815 0.39246 0.09959 0.0
H381 H 0.02921 0.3417 0.12611 0.0
H382 H 0.09929 0.30633 0.17024 0.0
H383 H 0.13262 0.2801 0.16923 0.0
H384 H 0.04901 0.18947 0.14436 0.0
H385 H 0.01525 0.21529 0.14474 0.0
C386 C 0.93574 0.27753 0.24816 0.0
C387 C 0.91043 0.24512 0.24734 0.0
C388 C 0.96114 0.28883 0.22641 0.0
C389 C 0.96169 0.26814 0.20308 0.0
C390 C 0.93678 0.23564 0.20241 0.0
C391 C 0.9113 0.22425 0.22426 0.0
C392 C 0.98831 0.28064 0.17943 0.0
C393 C 0.00732 0.26582 0.1771 0.0
C394 C 0.99618 0.30822 0.16064 0.0
C395 C 0.97596 0.32387 0.16064 0.0
C396 C 0.94251 0.30562 0.15453 0.0
C397 C 0.92355 0.32043 0.15489 0.0
C398 C 0.93779 0.35356 0.1611 0.0
C399 C 0.97105 0.37196 0.16688 0.0
C400 C 0.99012 0.35725 0.1666 0.0
C401 C 0.09941 0.31505 0.07147 0.0
C402 C 0.12279 0.34798 0.07367 0.0
C403 C 0.07343 0.30136 0.09272 0.0
C404 C 0.07069 0.32039 0.11664 0.0
C405 C 0.09438 0.35329 0.11894 0.0
C406 C 0.12029 0.36696 0.09766 0.0
C407 C 0.04274 0.30631 0.13879 0.0
C408 C 0.02342 0.3208 0.14078 0.0
C409 C 0.0346 0.27845 0.15723 0.0
C410 C 0.05481 0.26283 0.15721 0.0
C411 C 0.08806 0.28087 0.16431 0.0
C412 C 0.10702 0.26606 0.16389 0.0
C413 C 0.09296 0.23316 0.15666 0.0
C414 C 0.05988 0.21497 0.14992 0.0
C415 C 0.04082 0.22967 0.15025 0.0
H416 H 0.10768 0.22174 0.15635 0.0
H417 H 0.92307 0.36498 0.16137 0.0
H418 H 0.81071 0.10766 0.39301 0.0
H419 H 0.79089 0.06245 0.43082 0.0
H420 H 0.72629 0.09165 0.47139 0.0
H421 H 0.74651 0.137 0.43385 0.0
H422 H 0.75426 0.07438 0.51688 0.0
H423 H 0.69965 0.03055 0.41802 0.0
H424 H 0.69664 0.01985 0.36059 0.0
H425 H 0.74792 0.96796 0.37331 0.0
H426 H 0.75178 0.97889 0.4308 0.0
H427 H 0.63676 0.9322 0.59189 0.0
H428 H 0.66489 0.97792 0.55587 0.0
H429 H 0.72671 0.94108 0.52545 0.0
H430 H 0.69878 0.89515 0.56193 0.0
H431 H 0.70463 0.96214 0.4754 0.0
H432 H 0.75596 0.00371 0.5756 0.0
H433 H 0.75796 0.01463 0.63293 0.0
H434 H 0.71127 0.07058 0.61752 0.0
H435 H 0.70856 0.0596 0.56013 0.0
C436 C 0.79253 0.10442 0.41029 0.0
C437 C 0.77992 0.12541 0.41074 0.0
C438 C 0.78112 0.07864 0.43171 0.0
C439 C 0.75681 0.07344 0.45368 0.0
C440 C 0.74502 0.09518 0.45467 0.0
C441 C 0.75647 0.12096 0.43329 0.0
C442 C 0.74283 0.04483 0.47499 0.0
C443 C 0.74319 0.04984 0.50779 0.0
C444 C 0.729 0.01282 0.46317 0.0
C445 C 0.72632 0.00584 0.42867 0.0
C446 C 0.7105 0.01706 0.40855 0.0
C447 C 0.70862 0.01094 0.37598 0.0
C448 C 0.72214 0.9933 0.3633 0.0
C449 C 0.7375 0.98167 0.38317 0.0
C450 C 0.73955 0.98782 0.41575 0.0
C451 C 0.65657 0.93392 0.57784 0.0
C452 C 0.6658 0.9102 0.58015 0.0
C453 C 0.67256 0.96006 0.55715 0.0
C454 C 0.69824 0.96319 0.53835 0.0
C455 C 0.70703 0.93916 0.53987 0.0
C456 C 0.691 0.91291 0.56065 0.0
C457 C 0.71576 0.99171 0.51725 0.0
C458 C 0.71602 0.98669 0.4845 0.0
C459 C 0.73001 0.02373 0.52909 0.0
C460 C 0.73185 0.03062 0.56358 0.0
C461 C 0.74592 0.01816 0.58446 0.0
C462 C 0.74721 0.02438 0.61697 0.0
C463 C 0.73469 0.04323 0.62887 0.0
C464 C 0.72093 0.05597 0.60827 0.0
C465 C 0.71955 0.04978 0.57574 0.0
H466 H 0.7357 0.04802 0.65405 0.0
H467 H 0.72066 0.98858 0.33808 0.0
H468 H 0.80416 0.69542 0.89028 0.0
H469 H 0.78514 0.72132 0.85253 0.0
H470 H 0.68827 0.66508 0.88979 0.0
H471 H 0.70672 0.63828 0.92652 0.0
H472 H 0.68665 0.66578 0.82733 0.0
H473 H 0.73828 0.74566 0.90952 0.0
H474 H 0.78325 0.78215 0.94458 0.0
H475 H 0.84141 0.83182 0.86348 0.0
H476 H 0.7969 0.79532 0.82791 0.0
H477 H 0.6121 0.75024 0.76822 0.0
H478 H 0.63682 0.72918 0.80529 0.0
H479 H 0.72857 0.78434 0.7574 0.0
H480 H 0.70377 0.80572 0.72056 0.0
H481 H 0.7355 0.7852 0.82256 0.0
H482 H 0.68202 0.7065 0.74053 0.0
H483 H 0.63583 0.67112 0.70621 0.0
H484 H 0.58029 0.61939 0.78789 0.0
H485 H 0.62597 0.65488 0.82278 0.0
C486 C 0.77877 0.6884 0.89024 0.0
C487 C 0.75704 0.66496 0.91165 0.0
C488 C 0.76798 0.70344 0.86885 0.0
C489 C 0.73533 0.69545 0.86858 0.0
C490 C 0.71358 0.67176 0.88961 0.0
C491 C 0.72428 0.6567 0.91087 0.0
C492 C 0.72348 0.71144 0.84636 0.0
C493 C 0.69716 0.69188 0.82655 0.0
C494 C 0.73765 0.74555 0.84472 0.0
C495 C 0.7644 0.76753 0.86606 0.0
C496 C 0.76075 0.76419 0.89916 0.0
C497 C 0.78614 0.78491 0.91913 0.0
C498 C 0.81521 0.80922 0.90627 0.0
C499 C 0.81891 0.81293 0.87341 0.0
C500 C 0.7936 0.79226 0.85334 0.0
C501 C 0.63762 0.75807 0.76599 0.0
C502 C 0.65614 0.77927 0.74165 0.0
C503 C 0.65168 0.74602 0.78699 0.0
C504 C 0.68442 0.75483 0.78378 0.0
C505 C 0.70327 0.77717 0.76022 0.0
C506 C 0.68918 0.78927 0.73922 0.0
C507 C 0.69843 0.73948 0.80404 0.0
C508 C 0.72515 0.75913 0.82331 0.0
C509 C 0.6846 0.70542 0.80529 0.0
C510 C 0.65736 0.68351 0.7843 0.0
C511 C 0.65991 0.68769 0.7512 0.0
C512 C 0.63381 0.66762 0.73164 0.0
C513 C 0.60513 0.64305 0.74486 0.0
C514 C 0.60252 0.63844 0.77768 0.0
C515 C 0.62852 0.65852 0.79736 0.0
H516 H 0.58494 0.62754 0.72968 0.0
H517 H 0.83483 0.82524 0.92176 0.0
H518 H 0.90108 0.70393 0.04923 0.0
H519 H 0.94699 0.73068 0.08613 0.0
H520 H 0.91049 0.64147 0.13867 0.0
H521 H 0.8646 0.61494 0.10186 0.0
H522 H 0.93206 0.69359 0.17785 0.0
H523 H 0.9703 0.66349 0.0854 0.0
H524 H 0.98016 0.66262 0.02814 0.0
H525 H 0.04089 0.76609 0.02819 0.0
H526 H 0.03087 0.76764 0.08539 0.0
H527 H 0.06761 0.71198 0.26071 0.0
H528 H 0.02247 0.6946 0.22398 0.0
H529 H 0.07058 0.78858 0.1794 0.0
H530 H 0.11613 0.80631 0.2164 0.0
H531 H 0.04378 0.73969 0.13584 0.0
H532 H 0.00832 0.76922 0.22947 0.0
H533 H 0.99798 0.76965 0.28669 0.0
H534 H 0.93198 0.66709 0.28449 0.0
H535 H 0.94229 0.66596 0.22733 0.0
C536 C 0.90293 0.69029 0.06885 0.0
C537 C 0.87975 0.65748 0.0728 0.0
C538 C 0.92907 0.70545 0.0898 0.0
C539 C 0.93236 0.68794 0.11492 0.0
C540 C 0.90845 0.65541 0.11945 0.0
C541 C 0.88237 0.64028 0.09848 0.0
C542 C 0.96118 0.70305 0.13593 0.0
C543 C 0.95647 0.70346 0.16871 0.0
C544 C 0.99309 0.71667 0.12388 0.0
C545 C 0.99955 0.71572 0.08961 0.0
C546 C 0.98557 0.68609 0.07316 0.0
C547 C 0.9912 0.68547 0.04072 0.0
C548 C 0.01108 0.71429 0.02452 0.0
C549 C 0.02545 0.74379 0.04076 0.0
C550 C 0.0198 0.74455 0.07319 0.0
C551 C 0.06851 0.72913 0.24333 0.0
C552 C 0.09528 0.76071 0.24181 0.0
C553 C 0.04269 0.71911 0.22228 0.0
C554 C 0.04285 0.74047 0.19932 0.0
C555 C 0.06989 0.77176 0.19706 0.0
C556 C 0.0959 0.78183 0.21816 0.0
C557 C 0.01462 0.7298 0.17784 0.0
C558 C 0.01942 0.73019 0.14498 0.0
C559 C 0.98275 0.71686 0.1898 0.0
C560 C 0.97626 0.71748 0.22414 0.0
C561 C 0.99177 0.74672 0.24123 0.0
C562 C 0.98589 0.74709 0.27365 0.0
C563 C 0.96438 0.71841 0.28922 0.0
C564 C 0.94865 0.68929 0.27239 0.0
C565 C 0.95447 0.68878 0.23997 0.0
H566 H 0.95987 0.71874 0.31433 0.0
H567 H 0.01541 0.71377 0.9994 0.0
H568 H 0.29361 0.06712 0.60319 0.0
H569 H 0.26939 0.02191 0.56582 0.0
H570 H 0.34299 0.07895 0.49698 0.0
H571 H 0.36804 0.12384 0.53462 0.0
H572 H 0.24351 0.01194 0.50799 0.0
H573 H 0.36457 0.03009 0.45793 0.0
H574 H 0.42154 0.05336 0.47467 0.0
H575 H 0.39189 0.03618 0.57219 0.0
H576 H 0.33477 0.01239 0.55602 0.0
H577 H 0.21169 0.90943 0.37406 0.0
H578 H 0.23246 0.95584 0.41034 0.0
H579 H 0.26968 0.90963 0.47184 0.0
H580 H 0.24999 0.86393 0.43484 0.0
H581 H 0.31302 0.97034 0.46601 0.0
H582 H 0.19946 0.91243 0.48905 0.0
H583 H 0.14115 0.88569 0.47673 0.0
H584 H 0.15297 0.9755 0.44163 0.0
H585 H 0.21147 0.00269 0.45332 0.0
C586 C 0.30465 0.07006 0.58009 0.0
C587 C 0.33298 0.09901 0.57204 0.0
C588 C 0.2906 0.04428 0.55865 0.0
C589 C 0.30463 0.04685 0.52877 0.0
C590 C 0.332 0.07625 0.52008 0.0
C591 C 0.34611 0.10203 0.54153 0.0
C592 C 0.29152 0.0183 0.50736 0.0
C593 C 0.25872 0.0029 0.49871 0.0
C594 C 0.31118 0.00604 0.49579 0.0
C595 C 0.34543 0.0198 0.50575 0.0
C596 C 0.37022 0.03117 0.48293 0.0
C597 C 0.40253 0.04446 0.49233 0.0
C598 C 0.41034 0.04636 0.52448 0.0
C599 C 0.38583 0.03482 0.5473 0.0
C600 C 0.35349 0.02145 0.53804 0.0
C601 C 0.2244 0.90941 0.39533 0.0
C602 C 0.22957 0.88346 0.40171 0.0
C603 C 0.23606 0.93573 0.41613 0.0
C604 C 0.25244 0.93616 0.44402 0.0
C605 C 0.25724 0.90995 0.45047 0.0
C606 C 0.24589 0.88382 0.4295 0.0
C607 C 0.26501 0.96408 0.46627 0.0
C608 C 0.29778 0.97942 0.47511 0.0
C609 C 0.24511 0.97575 0.47861 0.0
C610 C 0.20989 0.95952 0.4718 0.0
C611 C 0.18966 0.92643 0.47851 0.0
C612 C 0.15657 0.9112 0.47166 0.0
C613 C 0.14337 0.92887 0.45835 0.0
C614 C 0.16323 0.96184 0.45192 0.0
C615 C 0.19635 0.97717 0.45867 0.0
H616 H 0.11775 0.91704 0.45306 0.0
H617 H 0.43537 0.05671 0.5317 0.0
H618 H 0.20933 0.66972 0.31009 0.0
H619 H 0.20423 0.62732 0.27356 0.0
H620 H 0.1679 0.66474 0.20104 0.0
H621 H 0.17216 0.7065 0.23796 0.0
H622 H 0.13693 0.59989 0.19857 0.0
H623 H 0.24689 0.6859 0.20317 0.0
H624 H 0.29816 0.72449 0.22928 0.0
H625 H 0.30758 0.64552 0.26576 0.0
H626 H 0.25601 0.60641 0.24032 0.0
H627 H 0.18266 0.53812 0.06432 0.0
H628 H 0.17665 0.57294 0.10314 0.0
H629 H 0.20261 0.52894 0.17828 0.0
H630 H 0.20757 0.49332 0.14 0.0
H631 H 0.23792 0.59667 0.17903 0.0
H632 H 0.12693 0.51073 0.17209 0.0
H633 H 0.076 0.47378 0.14447 0.0
H634 H 0.06987 0.55506 0.10935 0.0
H635 H 0.12103 0.59254 0.13642 0.0
C636 C 0.19962 0.66831 0.28656 0.0
C637 C 0.19109 0.69112 0.27666 0.0
C638 C 0.19691 0.64433 0.26565 0.0
C639 C 0.18617 0.64318 0.23437 0.0
C640 C 0.17626 0.66515 0.225 0.0
C641 C 0.17875 0.68898 0.24599 0.0
C642 C 0.1873 0.62055 0.21087 0.0
C643 C 0.15908 0.5994 0.19407 0.0
C644 C 0.21617 0.61975 0.20511 0.0
C645 C 0.24742 0.64321 0.22009 0.0
C646 C 0.25978 0.67675 0.21694 0.0
C647 C 0.2889 0.69872 0.23161 0.0
C648 C 0.30608 0.68746 0.24922 0.0
C649 C 0.29421 0.6542 0.25214 0.0
C650 C 0.26504 0.63212 0.2376 0.0
C651 C 0.18655 0.53542 0.08915 0.0
C652 C 0.19587 0.51302 0.09891 0.0
C653 C 0.18322 0.55545 0.11129 0.0
C654 C 0.18922 0.55351 0.14357 0.0
C655 C 0.19808 0.53095 0.15345 0.0
C656 C 0.20111 0.51075 0.13144 0.0
C657 C 0.18749 0.5758 0.16701 0.0
C658 C 0.21573 0.59706 0.18365 0.0
C659 C 0.15878 0.57695 0.17227 0.0
C660 C 0.12799 0.55445 0.15602 0.0
C661 C 0.11488 0.52074 0.15824 0.0
C662 C 0.08593 0.49969 0.14274 0.0
C663 C 0.06976 0.51207 0.12509 0.0
C664 C 0.08245 0.54552 0.12299 0.0
C665 C 0.11141 0.56667 0.13843 0.0
H666 H 0.04735 0.49573 0.11311 0.0
H667 H 0.32863 0.70451 0.26056 0.0
H668 H 0.5392 0.2092 0.64065 0.0
H669 H 0.57605 0.20409 0.60356 0.0
H670 H 0.50287 0.17158 0.53062 0.0
H671 H 0.46572 0.1757 0.56813 0.0
H672 H 0.53482 0.13921 0.52663 0.0
H673 H 0.56312 0.25017 0.53479 0.0
H674 H 0.57745 0.30117 0.5624 0.0
H675 H 0.66377 0.30578 0.5988 0.0
H676 H 0.64964 0.25444 0.57185 0.0
H677 H 0.64524 0.18296 0.39495 0.0
H678 H 0.6039 0.17776 0.43277 0.0
H679 H 0.67204 0.2021 0.50945 0.0
H680 H 0.71316 0.20664 0.47208 0.0
H681 H 0.64163 0.23807 0.5104 0.0
H682 H 0.61185 0.1258 0.49983 0.0
H683 H 0.59605 0.07525 0.47062 0.0
H684 H 0.51114 0.07457 0.43563 0.0
H685 H 0.52671 0.12542 0.46425 0.0
C686 C 0.53092 0.20037 0.61687 0.0
C687 C 0.49982 0.1928 0.60706 0.0
C688 C 0.55196 0.19767 0.59565 0.0
C689 C 0.54242 0.188 0.56412 0.0
C690 C 0.51079 0.17914 0.55476 0.0
C691 C 0.48965 0.18156 0.57608 0.0
C692 C 0.56598 0.18888 0.5405 0.0
C693 C 0.55804 0.16092 0.52283 0.0
C694 C 0.59636 0.21717 0.53563 0.0
C695 C 0.60516 0.24829 0.55153 0.0
C696 C 0.58505 0.26194 0.54885 0.0
C697 C 0.59314 0.29092 0.56437 0.0
C698 C 0.62147 0.30668 0.58239 0.0
C699 C 0.64181 0.29352 0.58486 0.0
C700 C 0.63378 0.26448 0.56946 0.0
C701 C 0.65128 0.1867 0.41991 0.0
C702 C 0.68265 0.19548 0.43041 0.0
C703 C 0.62765 0.1838 0.44149 0.0
C704 C 0.63492 0.18954 0.47393 0.0
C705 C 0.66598 0.19777 0.4845 0.0
C706 C 0.68952 0.20052 0.46304 0.0
C707 C 0.61069 0.18827 0.49685 0.0
C708 C 0.61846 0.21631 0.51427 0.0
C709 C 0.58003 0.16021 0.5011 0.0
C710 C 0.57065 0.12963 0.4839 0.0
C711 C 0.58997 0.11505 0.48567 0.0
C712 C 0.58102 0.0863 0.46926 0.0
C713 C 0.55266 0.07176 0.4512 0.0
C714 C 0.53314 0.08589 0.44958 0.0
C715 C 0.542 0.11467 0.4659 0.0
H716 H 0.54576 0.0495 0.43853 0.0
H717 H 0.6277 0.32912 0.59439 0.0
H718 H 0.45953 0.70607 0.77605 0.0
H719 H 0.42425 0.66463 0.81369 0.0
H720 H 0.46386 0.6046 0.78562 0.0
H721 H 0.50073 0.64677 0.74879 0.0
H722 H 0.39036 0.57326 0.79177 0.0
H723 H 0.49028 0.63636 0.84852 0.0
H724 H 0.53722 0.6872 0.86715 0.0
H725 H 0.47359 0.71226 0.91565 0.0
H726 H 0.4262 0.66178 0.89684 0.0
H727 H 0.31244 0.46486 0.92072 0.0
H728 H 0.35436 0.50031 0.88272 0.0
H729 H 0.34605 0.58152 0.91594 0.0
H730 H 0.30469 0.54612 0.95424 0.0
H731 H 0.40773 0.59934 0.90654 0.0
H732 H 0.30821 0.5393 0.84927 0.0
H733 H 0.2598 0.49046 0.8295 0.0
H734 H 0.32014 0.46169 0.78016 0.0
H735 H 0.36898 0.50983 0.80052 0.0
C736 C 0.46117 0.68429 0.778 0.0
C737 C 0.48348 0.68012 0.75962 0.0
C738 C 0.44071 0.66049 0.79937 0.0
C739 C 0.44167 0.63175 0.80253 0.0
C740 C 0.46281 0.6267 0.78342 0.0
C741 C 0.48374 0.65078 0.76229 0.0
C742 C 0.42122 0.60773 0.82675 0.0
C743 C 0.39444 0.57851 0.81692 0.0
C744 C 0.42624 0.61519 0.85942 0.0
C745 C 0.45468 0.64542 0.87103 0.0
C746 C 0.48627 0.65285 0.86292 0.0
C747 C 0.51297 0.68158 0.87355 0.0
C748 C 0.50839 0.70299 0.89251 0.0
C749 C 0.4771 0.69566 0.90093 0.0
C750 C 0.45031 0.66698 0.89032 0.0
C751 C 0.31999 0.49039 0.91999 0.0
C752 C 0.30553 0.50298 0.94007 0.0
C753 C 0.34371 0.51054 0.89826 0.0
C754 C 0.35305 0.54351 0.89618 0.0
C755 C 0.33924 0.5562 0.91708 0.0
C756 C 0.31564 0.53607 0.93885 0.0
C757 C 0.37646 0.56474 0.8717 0.0
C758 C 0.4038 0.59363 0.88146 0.0
C759 C 0.37168 0.55707 0.83894 0.0
C760 C 0.3423 0.52798 0.82681 0.0
C761 C 0.31119 0.52235 0.83455 0.0
C762 C 0.28365 0.49477 0.82324 0.0
C763 C 0.28689 0.47287 0.80374 0.0
C764 C 0.31767 0.47857 0.79544 0.0
C765 C 0.34529 0.50595 0.80693 0.0
H766 H 0.26555 0.45157 0.79494 0.0
H767 H 0.52908 0.72522 0.90073 0.0
H768 H 0.85436 0.50133 0.08477 0.0
H769 H 0.8583 0.46372 0.1217 0.0
H770 H 0.75656 0.42058 0.14287 0.0
H771 H 0.75206 0.45699 0.10539 0.0
H772 H 0.79698 0.43885 0.19705 0.0
H773 H 0.78057 0.38124 0.09772 0.0
H774 H 0.79424 0.37514 0.04273 0.0
H775 H 0.88697 0.39107 0.0734 0.0
H776 H 0.87402 0.39776 0.12854 0.0
H777 H 0.75297 0.29537 0.28043 0.0
H778 H 0.75854 0.33684 0.24263 0.0
H779 H 0.85472 0.3563 0.21875 0.0
H780 H 0.84844 0.31373 0.25577 0.0
H781 H 0.82439 0.35482 0.16693 0.0
H782 H 0.84173 0.40879 0.26553 0.0
H783 H 0.83099 0.41655 0.32107 0.0
H784 H 0.74179 0.41118 0.29328 0.0
H785 H 0.75174 0.40287 0.23761 0.0
C786 C 0.8327 0.48348 0.09686 0.0
C787 C 0.80294 0.48247 0.09227 0.0
C788 C 0.83506 0.46214 0.11809 0.0
C789 C 0.80775 0.43953 0.13512 0.0
C790 C 0.77799 0.43808 0.13019 0.0
C791 C 0.77553 0.45908 0.10883 0.0
C792 C 0.80997 0.41772 0.15876 0.0
C793 C 0.80272 0.42028 0.19049 0.0
C794 C 0.81873 0.39442 0.15032 0.0
C795 C 0.8265 0.39044 0.11718 0.0
C796 C 0.80401 0.38379 0.09269 0.0
C797 C 0.81159 0.38015 0.0615 0.0
C798 C 0.8415 0.38284 0.05455 0.0
C799 C 0.86384 0.38908 0.0788 0.0
C800 C 0.85639 0.39279 0.11002 0.0
C801 C 0.77525 0.30862 0.26707 0.0
C802 C 0.80027 0.30155 0.27079 0.0
C803 C 0.77856 0.33242 0.24567 0.0
C804 C 0.80727 0.35011 0.22813 0.0
C805 C 0.83239 0.34307 0.23202 0.0
C806 C 0.8289 0.31895 0.2532 0.0
C807 C 0.81059 0.37535 0.20527 0.0
C808 C 0.81898 0.37356 0.1737 0.0
C809 C 0.80341 0.39978 0.21395 0.0
C810 C 0.79738 0.40497 0.2474 0.0
C811 C 0.81971 0.40904 0.27128 0.0
C812 C 0.81378 0.41356 0.30279 0.0
C813 C 0.7857 0.4143 0.3107 0.0
C814 C 0.76353 0.41058 0.28711 0.0
C815 C 0.76932 0.406 0.25556 0.0
H816 H 0.78115 0.4178 0.33511 0.0
H817 H 0.84732 0.37999 0.0304 0.0
H818 H 0.34673 0.84775 0.42449 0.0
H819 H 0.38686 0.851 0.46274 0.0
H820 H 0.32722 0.74906 0.4825 0.0
H821 H 0.28751 0.74529 0.44373 0.0
H822 H 0.34933 0.78701 0.53715 0.0
H823 H 0.39216 0.77384 0.43795 0.0
H824 H 0.41167 0.78817 0.38295 0.0
H825 H 0.4865 0.88184 0.41382 0.0
H826 H 0.46713 0.86822 0.46898 0.0
H827 H 0.45568 0.74939 0.61895 0.0
H828 H 0.41745 0.75279 0.58252 0.0
H829 H 0.48956 0.85113 0.55928 0.0
H830 H 0.52814 0.84714 0.59498 0.0
H831 H 0.46221 0.81955 0.5073 0.0
H832 H 0.42261 0.83293 0.60645 0.0
H833 H 0.40365 0.82012 0.66173 0.0
H834 H 0.32345 0.72908 0.63203 0.0
H835 H 0.34219 0.74112 0.5766 0.0
C836 C 0.34234 0.8259 0.4366 0.0
C837 C 0.31376 0.79626 0.43102 0.0
C838 C 0.36523 0.82786 0.4586 0.0
C839 C 0.35997 0.80027 0.47546 0.0
C840 C 0.33161 0.77069 0.46991 0.0
C841 C 0.30887 0.76864 0.4478 0.0
C842 C 0.38389 0.80206 0.49904 0.0
C843 C 0.37394 0.79383 0.53063 0.0
C844 C 0.41625 0.81198 0.49066 0.0
C845 C 0.42796 0.82015 0.45753 0.0
C846 C 0.41259 0.7976 0.43297 0.0
C847 C 0.42366 0.80557 0.40178 0.0
C848 C 0.45025 0.83593 0.39488 0.0
C849 C 0.46587 0.85836 0.41919 0.0
C850 C 0.45487 0.85052 0.45042 0.0
C851 C 0.46311 0.77173 0.60617 0.0
C852 C 0.49464 0.79801 0.60957 0.0
C853 C 0.4413 0.77377 0.58552 0.0
C854 C 0.45046 0.80237 0.56837 0.0
C855 C 0.48192 0.82884 0.57223 0.0
C856 C 0.50384 0.82666 0.59268 0.0
C857 C 0.42761 0.8041 0.54552 0.0
C858 C 0.43772 0.813 0.51402 0.0
C859 C 0.39546 0.7951 0.55407 0.0
C860 C 0.38397 0.78783 0.58738 0.0
C861 C 0.40105 0.81008 0.61172 0.0
C862 C 0.39033 0.80297 0.64309 0.0
C863 C 0.3624 0.77378 0.6504 0.0
C864 C 0.34509 0.75167 0.62634 0.0
C865 C 0.35574 0.75864 0.59493 0.0
H866 H 0.35413 0.76832 0.6747 0.0
H867 H 0.45879 0.84206 0.37072 0.0
H868 H 0.49752 0.34416 0.76104 0.0
H869 H 0.53439 0.38385 0.79958 0.0
H870 H 0.57924 0.32584 0.81549 0.0
H871 H 0.54314 0.28648 0.7765 0.0
H872 H 0.5647 0.34656 0.87142 0.0
H873 H 0.61684 0.39221 0.77119 0.0
H874 H 0.61942 0.41234 0.71681 0.0
H875 H 0.59833 0.48436 0.75182 0.0
H876 H 0.59518 0.46435 0.80639 0.0
H877 H 0.70866 0.45558 0.95188 0.0
H878 H 0.66695 0.41675 0.91594 0.0
H879 H 0.63796 0.48712 0.8941 0.0
H880 H 0.68091 0.52645 0.92892 0.0
H881 H 0.64119 0.46072 0.84213 0.0
H882 H 0.59147 0.41826 0.94217 0.0
H883 H 0.58754 0.39861 0.99695 0.0
H884 H 0.60133 0.32123 0.9637 0.0
H885 H 0.60581 0.34069 0.90874 0.0
C886 C 0.5155 0.34002 0.7724 0.0
C887 C 0.51731 0.31205 0.76561 0.0
C888 C 0.53643 0.36266 0.79456 0.0
C889 C 0.55958 0.35781 0.81034 0.0
C890 C 0.56141 0.32994 0.80372 0.0
C891 C 0.54064 0.3074 0.78148 0.0
C892 C 0.58202 0.38172 0.83378 0.0
C893 C 0.58167 0.37147 0.86502 0.0
C894 C 0.60337 0.41443 0.8256 0.0
C895 C 0.60543 0.42656 0.79282 0.0
C896 C 0.61249 0.41217 0.76726 0.0
C897 C 0.61411 0.42358 0.73641 0.0
C898 C 0.60895 0.44955 0.73085 0.0
C899 C 0.60226 0.46421 0.75615 0.0
C900 C 0.60058 0.45286 0.78705 0.0
C901 C 0.69316 0.46252 0.93948 0.0
C902 C 0.69783 0.49383 0.94296 0.0
C903 C 0.66921 0.44033 0.91914 0.0
C904 C 0.64891 0.44878 0.90255 0.0
C905 C 0.65325 0.47998 0.9066 0.0
C906 C 0.67757 0.50234 0.92658 0.0
C907 C 0.6242 0.42559 0.87995 0.0
C908 C 0.62409 0.43593 0.84878 0.0
C909 C 0.60214 0.39303 0.88833 0.0
C910 C 0.59923 0.3811 0.92134 0.0
C911 C 0.59388 0.39718 0.94655 0.0
C912 C 0.59153 0.38606 0.97764 0.0
C913 C 0.59425 0.35873 0.98381 0.0
C914 C 0.59925 0.34241 0.95889 0.0
C915 C 0.60166 0.35345 0.92776 0.0
H916 H 0.59243 0.35016 0.00789 0.0
H917 H 0.61021 0.45835 0.70695 0.0
loop_
_geom_bond_atom_site_label_1
_geom_bond_atom_site_label_2
_geom_bond_distance
_geom_bond_site_symmetry_2
_ccdc_geom_bond_type
C0 C1 1.443 . S
C0 N4 1.376 . S
C0 C38 1.389 . S
C1 C0 1.443 . S
C1 C2 1.340 1_554 S
C1 H41 0.951 . S
C2 C1 1.340 1_556 S
C2 C3 1.439 . S
C2 H42 0.950 . S
C3 C2 1.439 . S
C3 N4 1.374 1_556 S
C3 C37 1.395 . S
N4 C0 1.376 . S
N4 C3 1.374 1_554 S
N4 Co5 2.008 . S
Co5 N4 2.008 . S
Co5 N6 1.995 1_554 S
Co5 N11 2.008 . S
Co5 N16 1.995 . S
Co5 N21 2.282 1_554 S
Co5 N27 2.282 . S
N6 Co5 1.995 1_556 S
N6 C7 1.376 . S
N6 C10 1.383 . S
C7 N6 1.376 . S
C7 C8 1.446 . S
C7 C37 1.391 . S
C8 C7 1.446 . S
C8 C9 1.339 . S
C8 H43 0.949 . S
C9 C8 1.339 . S
C9 C10 1.439 . S
C9 H44 0.950 . S
C10 N6 1.383 . S
C10 C9 1.439 . S
C10 C39 1.392 . S
N11 Co5 2.008 . S
N11 C12 1.376 1_554 S
N11 C15 1.374 . S
C12 N11 1.376 1_556 S
C12 C13 1.443 . S
C12 C39 1.389 . S
C13 C12 1.443 . S
C13 C14 1.340 1_556 S
C13 H45 0.951 . S
C14 C13 1.340 1_554 S
C14 C15 1.439 . S
C14 H46 0.950 . S
C15 N11 1.374 . S
C15 C14 1.439 . S
C15 C40 1.395 . S
N16 Co5 1.995 . S
N16 C17 1.376 . S
N16 C20 1.383 . S
C17 N16 1.376 . S
C17 C18 1.446 . S
C17 C40 1.391 . S
C18 C17 1.446 . S
C18 C19 1.339 . S
C18 H47 0.949 . S
C19 C18 1.339 . S
C19 C20 1.439 . S
C19 H48 0.950 . S
C20 N16 1.383 . S
C20 C19 1.439 . S
C20 C38 1.392 . S
N21 Co5 2.282 1_556 S
N21 C24 1.332 . S
N21 C26 1.332 . S
C22 C23 1.386 . S
C22 C25 1.388 . S
C23 C22 1.386 . S
C23 C24 1.382 . S
C23 H49 0.950 . S
C24 N21 1.332 . S
C24 C23 1.382 . S
C24 H35 0.952 1_556 S
C25 C22 1.388 . S
C25 C26 1.382 . S
C25 H50 0.950 . S
C26 N21 1.332 . S
C26 C25 1.382 . S
C26 H36 0.948 . S
N27 Co5 2.282 . S
N27 C31 1.332 . S
N27 C32 1.332 . S
C28 C29 1.388 . S
C28 C32 1.382 . S
C28 H51 0.950 . S
C29 C28 1.388 . S
C29 C30 1.386 . S
C30 C29 1.386 . S
C30 C31 1.382 . S
C30 H52 0.950 . S
C31 N27 1.332 . S
C31 C30 1.382 . S
C31 H33 0.952 . S
C32 N27 1.332 . S
C32 C28 1.382 . S
C32 H34 0.948 . S
H33 C31 0.952 . S
H34 C32 0.948 . S
H35 C24 0.952 1_554 S
H36 C26 0.948 . S
C37 C3 1.395 . S
C37 C7 1.391 . S
C38 C0 1.389 . S
C38 C20 1.392 . S
C39 C10 1.392 . S
C39 C12 1.389 . S
C40 C15 1.395 . S
C40 C17 1.391 . S
H41 C1 0.951 . S
H42 C2 0.950 . S
H43 C8 0.949 . S
H44 C9 0.950 . S
H45 C13 0.951 . S
H46 C14 0.950 . S
H47 C18 0.949 . S
H48 C19 0.950 . S
H49 C23 0.950 . S
H50 C25 0.950 . S
H51 C28 0.950 . S
H52 C30 0.950 . S
C53 C54 1.443 . S
C53 N57 1.376 . S
C53 C91 1.389 . S
C54 C53 1.443 . S
C54 C55 1.340 . S
C54 H94 0.951 . S
C55 C54 1.340 . S
C55 C56 1.439 . S
C55 H95 0.950 . S
C56 C55 1.439 . S
C56 N57 1.374 . S
C56 C90 1.395 . S
N57 C53 1.376 . S
N57 C56 1.374 . S
N57 Co58 2.008 . S
Co58 N57 2.008 . S
Co58 N59 1.995 . S
Co58 N64 2.008 . S
Co58 N69 1.995 . S
Co58 N74 2.282 . S
Co58 N80 2.282 . S
N59 Co58 1.995 . S
N59 C60 1.376 . S
N59 C63 1.383 . S
C60 N59 1.376 . S
C60 C61 1.446 . S
C60 C90 1.391 . S
C61 C60 1.446 . S
C61 C62 1.339 . S
C61 H96 0.949 . S
C62 C61 1.339 . S
C62 C63 1.439 . S
C62 H97 0.950 . S
C63 N59 1.383 . S
C63 C62 1.439 . S
C63 C92 1.392 . S
N64 Co58 2.008 . S
N64 C65 1.376 . S
N64 C68 1.374 . S
C65 N64 1.376 . S
C65 C66 1.443 . S
C65 C92 1.389 . S
C66 C65 1.443 . S
C66 C67 1.340 . S
C66 H98 0.951 . S
C67 C66 1.340 . S
C67 C68 1.439 . S
C67 H99 0.950 . S
C68 N64 1.374 . S
C68 C67 1.439 . S
C68 C93 1.395 . S
N69 Co58 1.995 . S
N69 C70 1.376 . S
N69 C73 1.383 . S
C70 N69 1.376 . S
C70 C71 1.446 . S
C70 C93 1.391 . S
C71 C70 1.446 . S
C71 C72 1.339 . S
C71 H100 0.949 . S
C72 C71 1.339 . S
C72 C73 1.439 . S
C72 H101 0.950 . S
C73 N69 1.383 . S
C73 C72 1.439 . S
C73 C91 1.392 . S
N74 Co58 2.282 . S
N74 C77 1.332 . S
N74 C79 1.332 . S
C75 C76 1.386 . S
C75 C78 1.388 . S
C76 C75 1.386 . S
C76 C77 1.382 . S
C76 H102 0.950 . S
C77 N74 1.332 . S
C77 C76 1.382 . S
C77 H88 0.952 . S
C78 C75 1.388 . S
C78 C79 1.382 . S
C78 H103 0.950 . S
C79 N74 1.332 . S
C79 C78 1.382 . S
C79 H89 0.948 . S
N80 Co58 2.282 . S
N80 C84 1.332 . S
N80 C85 1.332 . S
C81 C82 1.388 . S
C81 C85 1.382 . S
C81 H104 0.950 . S
C82 C81 1.388 . S
C82 C83 1.386 . S
C83 C82 1.386 . S
C83 C84 1.382 . S
C83 H105 0.950 . S
C84 N80 1.332 . S
C84 C83 1.382 . S
C84 H86 0.952 . S
C85 N80 1.332 . S
C85 C81 1.382 . S
C85 H87 0.948 . S
H86 C84 0.952 . S
H87 C85 0.948 . S
H88 C77 0.952 . S
H89 C79 0.948 . S
C90 C56 1.395 . S
C90 C60 1.391 . S
C91 C53 1.389 . S
C91 C73 1.392 . S
C92 C63 1.392 . S
C92 C65 1.389 . S
C93 C68 1.395 . S
C93 C70 1.391 . S
H94 C54 0.951 . S
H95 C55 0.950 . S
H96 C61 0.949 . S
H97 C62 0.950 . S
H98 C66 0.951 . S
H99 C67 0.950 . S
H100 C71 0.949 . S
H101 C72 0.950 . S
H102 C76 0.950 . S
H103 C78 0.950 . S
H104 C81 0.950 . S
H105 C83 0.950 . S
C106 C107 1.443 . S
C106 N110 1.376 . S
C106 C144 1.389 . S
C107 C106 1.443 . S
C107 C108 1.340 . S
C107 H147 0.951 . S
C108 C107 1.340 . S
C108 C109 1.439 . S
C108 H148 0.950 . S
C109 C108 1.439 . S
C109 N110 1.374 . S
C109 C143 1.395 . S
N110 C106 1.376 . S
N110 C109 1.374 . S
N110 Co111 2.008 . S
Co111 N110 2.008 . S
Co111 N112 1.995 . S
Co111 N117 2.008 . S
Co111 N122 1.995 . S
Co111 N127 2.282 . S
Co111 N133 2.282 . S
N112 Co111 1.995 . S
N112 C113 1.376 . S
N112 C116 1.383 . S
C113 N112 1.376 . S
C113 C114 1.446 . S
C113 C143 1.391 . S
C114 C113 1.446 . S
C114 C115 1.339 . S
C114 H149 0.949 . S
C115 C114 1.339 . S
C115 C116 1.439 . S
C115 H150 0.950 . S
C116 N112 1.383 . S
C116 C115 1.439 . S
C116 C145 1.392 . S
N117 Co111 2.008 . S
N117 C118 1.376 . S
N117 C121 1.374 . S
C118 N117 1.376 . S
C118 C119 1.443 . S
C118 C145 1.389 . S
C119 C118 1.443 . S
C119 C120 1.340 . S
C119 H151 0.951 . S
C120 C119 1.340 . S
C120 C121 1.439 . S
C120 H152 0.950 . S
C121 N117 1.374 . S
C121 C120 1.439 . S
C121 C146 1.395 . S
N122 Co111 1.995 . S
N122 C123 1.376 . S
N122 C126 1.383 . S
C123 N122 1.376 . S
C123 C124 1.446 . S
C123 C146 1.391 . S
C124 C123 1.446 . S
C124 C125 1.339 . S
C124 H153 0.949 . S
C125 C124 1.339 . S
C125 C126 1.439 . S
C125 H154 0.950 . S
C126 N122 1.383 . S
C126 C125 1.439 . S
C126 C144 1.392 . S
N127 Co111 2.282 . S
N127 C130 1.332 . S
N127 C132 1.332 . S
C128 C129 1.386 . S
C128 C131 1.388 . S
C129 C128 1.386 . S
C129 C130 1.382 . S
C129 H155 0.950 . S
C130 N127 1.332 . S
C130 C129 1.382 . S
C130 H141 0.952 . S
C131 C128 1.388 . S
C131 C132 1.382 . S
C131 H156 0.950 . S
C132 N127 1.332 . S
C132 C131 1.382 . S
C132 H142 0.948 . S
N133 Co111 2.282 . S
N133 C137 1.332 . S
N133 C138 1.332 . S
C134 C135 1.388 . S
C134 C138 1.382 . S
C134 H157 0.950 . S
C135 C134 1.388 . S
C135 C136 1.386 . S
C136 C135 1.386 . S
C136 C137 1.382 . S
C136 H158 0.950 . S
C137 N133 1.332 . S
C137 C136 1.382 . S
C137 H139 0.952 . S
C138 N133 1.332 . S
C138 C134 1.382 . S
C138 H140 0.948 . S
H139 C137 0.952 . S
H140 C138 0.948 . S
H141 C130 0.952 . S
H142 C132 0.948 . S
C143 C109 1.395 . S
C143 C113 1.391 . S
C144 C106 1.389 . S
C144 C126 1.392 . S
C145 C116 1.392 . S
C145 C118 1.389 . S
C146 C121 1.395 . S
C146 C123 1.391 . S
H147 C107 0.951 . S
H148 C108 0.950 . S
H149 C114 0.949 . S
H150 C115 0.950 . S
H151 C119 0.951 . S
H152 C120 0.950 . S
H153 C124 0.949 . S
H154 C125 0.950 . S
H155 C129 0.950 . S
H156 C131 0.950 . S
H157 C134 0.950 . S
H158 C136 0.950 . S
C159 C160 1.443 . S
C159 N163 1.376 . S
C159 C197 1.389 . S
C160 C159 1.443 . S
C160 C161 1.340 1_554 S
C160 H200 0.951 . S
C161 C160 1.340 1_556 S
C161 C162 1.439 . S
C161 H201 0.950 . S
C162 C161 1.439 . S
C162 N163 1.374 1_556 S
C162 C196 1.395 . S
N163 C159 1.376 . S
N163 C162 1.374 1_554 S
N163 Co164 2.008 . S
Co164 N163 2.008 . S
Co164 N165 1.995 1_554 S
Co164 N170 2.008 . S
Co164 N175 1.995 . S
Co164 N180 2.282 1_554 S
Co164 N186 2.282 . S
N165 Co164 1.995 1_556 S
N165 C166 1.376 . S
N165 C169 1.383 . S
C166 N165 1.376 . S
C166 C167 1.446 . S
C166 C196 1.391 . S
C167 C166 1.446 . S
C167 C168 1.339 . S
C167 H202 0.949 . S
C168 C167 1.339 . S
C168 C169 1.439 . S
C168 H203 0.950 . S
C169 N165 1.383 . S
C169 C168 1.439 . S
C169 C198 1.392 . S
N170 Co164 2.008 . S
N170 C171 1.376 1_554 S
N170 C174 1.374 . S
C171 N170 1.376 1_556 S
C171 C172 1.443 . S
C171 C198 1.389 . S
C172 C171 1.443 . S
C172 C173 1.340 1_556 S
C172 H204 0.951 . S
C173 C172 1.340 1_554 S
C173 C174 1.439 . S
C173 H205 0.950 . S
C174 N170 1.374 . S
C174 C173 1.439 . S
C174 C199 1.395 . S
N175 Co164 1.995 . S
N175 C176 1.376 . S
N175 C179 1.383 . S
C176 N175 1.376 . S
C176 C177 1.446 . S
C176 C199 1.391 . S
C177 C176 1.446 . S
C177 C178 1.339 . S
C177 H206 0.949 . S
C178 C177 1.339 . S
C178 C179 1.439 . S
C178 H207 0.950 . S
C179 N175 1.383 . S
C179 C178 1.439 . S
C179 C197 1.392 . S
N180 Co164 2.282 1_556 S
N180 C183 1.332 . S
N180 C185 1.332 . S
C181 C182 1.386 . S
C181 C184 1.388 . S
C182 C181 1.386 . S
C182 C183 1.382 . S
C182 H208 0.950 . S
C183 N180 1.332 . S
C183 C182 1.382 . S
C183 H194 0.952 1_556 S
C184 C181 1.388 . S
C184 C185 1.382 . S
C184 H209 0.950 . S
C185 N180 1.332 . S
C185 C184 1.382 . S
C185 H195 0.948 . S
N186 Co164 2.282 . S
N186 C190 1.332 . S
N186 C191 1.332 . S
C187 C188 1.388 . S
C187 C191 1.382 . S
C187 H210 0.950 . S
C188 C187 1.388 . S
C188 C189 1.386 . S
C189 C188 1.386 . S
C189 C190 1.382 . S
C189 H211 0.950 . S
C190 N186 1.332 . S
C190 C189 1.382 . S
C190 H192 0.952 . S
C191 N186 1.332 . S
C191 C187 1.382 . S
C191 H193 0.948 . S
H192 C190 0.952 . S
H193 C191 0.948 . S
H194 C183 0.952 1_554 S
H195 C185 0.948 . S
C196 C162 1.395 . S
C196 C166 1.391 . S
C197 C159 1.389 . S
C197 C179 1.392 . S
C198 C169 1.392 . S
C198 C171 1.389 . S
C199 C174 1.395 . S
C199 C176 1.391 . S
H200 C160 0.951 . S
H201 C161 0.950 . S
H202 C167 0.949 . S
H203 C168 0.950 . S
H204 C172 0.951 . S
H205 C173 0.950 . S
H206 C177 0.949 . S
H207 C178 0.950 . S
H208 C182 0.950 . S
H209 C184 0.950 . S
H210 C187 0.950 . S
H211 C189 0.950 . S
C212 C213 1.443 . S
C212 N216 1.376 . S
C212 C250 1.389 . S
C213 C212 1.443 . S
C213 C214 1.340 . S
C213 H253 0.951 . S
C214 C213 1.340 . S
C214 C215 1.439 . S
C214 H254 0.950 . S
C215 C214 1.439 . S
C215 N216 1.374 . S
C215 C249 1.395 . S
N216 C212 1.376 . S
N216 C215 1.374 . S
N216 Co217 2.008 . S
Co217 N216 2.008 . S
Co217 N218 1.995 . S
Co217 N223 2.008 . S
Co217 N228 1.995 . S
Co217 N233 2.282 . S
Co217 N239 2.282 . S
N218 Co217 1.995 . S
N218 C219 1.376 . S
N218 C222 1.383 . S
C219 N218 1.376 . S
C219 C220 1.446 . S
C219 C249 1.391 . S
C220 C219 1.446 . S
C220 C221 1.339 . S
C220 H255 0.949 . S
C221 C220 1.339 . S
C221 C222 1.439 . S
C221 H256 0.950 . S
C222 N218 1.383 . S
C222 C221 1.439 . S
C222 C251 1.392 . S
N223 Co217 2.008 . S
N223 C224 1.376 . S
N223 C227 1.374 . S
C224 N223 1.376 . S
C224 C225 1.443 . S
C224 C251 1.389 . S
C225 C224 1.443 . S
C225 C226 1.340 . S
C225 H257 0.951 . S
C226 C225 1.340 . S
C226 C227 1.439 . S
C226 H258 0.950 . S
C227 N223 1.374 . S
C227 C226 1.439 . S
C227 C252 1.395 . S
N228 Co217 1.995 . S
N228 C229 1.376 . S
N228 C232 1.383 . S
C229 N228 1.376 . S
C229 C230 1.446 . S
C229 C252 1.391 . S
C230 C229 1.446 . S
C230 C231 1.339 . S
C230 H259 0.949 . S
C231 C230 1.339 . S
C231 C232 1.439 . S
C231 H260 0.950 . S
C232 N228 1.383 . S
C232 C231 1.439 . S
C232 C250 1.392 . S
N233 Co217 2.282 . S
N233 C236 1.332 . S
N233 C238 1.332 . S
C234 C235 1.386 . S
C234 C237 1.388 . S
C235 C234 1.386 . S
C235 C236 1.382 . S
C235 H261 0.950 . S
C236 N233 1.332 . S
C236 C235 1.382 . S
C236 H247 0.952 . S
C237 C234 1.388 . S
C237 C238 1.382 . S
C237 H262 0.950 . S
C238 N233 1.332 . S
C238 C237 1.382 . S
C238 H248 0.948 . S
N239 Co217 2.282 . S
N239 C243 1.332 . S
N239 C244 1.332 . S
C240 C241 1.388 . S
C240 C244 1.382 . S
C240 H263 0.950 . S
C241 C240 1.388 . S
C241 C242 1.386 . S
C242 C241 1.386 . S
C242 C243 1.382 . S
C242 H264 0.950 . S
C243 N239 1.332 . S
C243 C242 1.382 . S
C243 H245 0.952 . S
C244 N239 1.332 . S
C244 C240 1.382 . S
C244 H246 0.948 . S
H245 C243 0.952 . S
H246 C244 0.948 . S
H247 C236 0.952 . S
H248 C238 0.948 . S
C249 C215 1.395 . S
C249 C219 1.391 . S
C250 C212 1.389 . S
C250 C232 1.392 . S
C251 C222 1.392 . S
C251 C224 1.389 . S
C252 C227 1.395 . S
C252 C229 1.391 . S
H253 C213 0.951 . S
H254 C214 0.950 . S
H255 C220 0.949 . S
H256 C221 0.950 . S
H257 C225 0.951 . S
H258 C226 0.950 . S
H259 C230 0.949 . S
H260 C231 0.950 . S
H261 C235 0.950 . S
H262 C237 0.950 . S
H263 C240 0.950 . S
H264 C242 0.950 . S
C265 C266 1.443 . S
C265 N269 1.376 . S
C265 C303 1.389 . S
C266 C265 1.443 . S
C266 C267 1.340 . S
C266 H306 0.951 . S
C267 C266 1.340 . S
C267 C268 1.439 . S
C267 H307 0.950 . S
C268 C267 1.439 . S
C268 N269 1.374 . S
C268 C302 1.395 . S
N269 C265 1.376 . S
N269 C268 1.374 . S
N269 Co270 2.008 . S
Co270 N269 2.008 . S
Co270 N271 1.995 . S
Co270 N276 2.008 . S
Co270 N281 1.995 . S
Co270 N286 2.282 . S
Co270 N292 2.282 . S
N271 Co270 1.995 . S
N271 C272 1.376 . S
N271 C275 1.383 . S
C272 N271 1.376 . S
C272 C273 1.446 . S
C272 C302 1.391 . S
C273 C272 1.446 . S
C273 C274 1.339 . S
C273 H308 0.949 . S
C274 C273 1.339 . S
C274 C275 1.439 . S
C274 H309 0.950 . S
C275 N271 1.383 . S
C275 C274 1.439 . S
C275 C304 1.392 . S
N276 Co270 2.008 . S
N276 C277 1.376 . S
N276 C280 1.374 . S
C277 N276 1.376 . S
C277 C278 1.443 . S
C277 C304 1.389 . S
C278 C277 1.443 . S
C278 C279 1.340 . S
C278 H310 0.951 . S
C279 C278 1.340 . S
C279 C280 1.439 . S
C279 H311 0.950 . S
C280 N276 1.374 . S
C280 C279 1.439 . S
C280 C305 1.395 . S
N281 Co270 1.995 . S
N281 C282 1.376 . S
N281 C285 1.383 . S
C282 N281 1.376 . S
C282 C283 1.446 . S
C282 C305 1.391 . S
C283 C282 1.446 . S
C283 C284 1.339 . S
C283 H312 0.949 . S
C284 C283 1.339 . S
C284 C285 1.439 . S
C284 H313 0.950 . S
C285 N281 1.383 . S
C285 C284 1.439 . S
C285 C303 1.392 . S
N286 Co270 2.282 . S
N286 C289 1.332 . S
N286 C291 1.332 . S
C287 C288 1.386 . S
C287 C290 1.388 . S
C288 C287 1.386 . S
C288 C289 1.382 . S
C288 H314 0.950 . S
C289 N286 1.332 . S
C289 C288 1.382 . S
C289 H300 0.952 . S
C290 C287 1.388 . S
C290 C291 1.382 . S
C290 H315 0.950 . S
C291 N286 1.332 . S
C291 C290 1.382 . S
C291 H301 0.948 . S
N292 Co270 2.282 . S
N292 C296 1.332 . S
N292 C297 1.332 . S
C293 C294 1.388 . S
C293 C297 1.382 . S
C293 H316 0.950 . S
C294 C293 1.388 . S
C294 C295 1.386 . S
C295 C294 1.386 . S
C295 C296 1.382 . S
C295 H317 0.950 . S
C296 N292 1.332 . S
C296 C295 1.382 . S
C296 H298 0.952 . S
C297 N292 1.332 . S
C297 C293 1.382 . S
C297 H299 0.948 . S
H298 C296 0.952 . S
H299 C297 0.948 . S
H300 C289 0.952 . S
H301 C291 0.948 . S
C302 C268 1.395 . S
C302 C272 1.391 . S
C303 C265 1.389 . S
C303 C285 1.392 . S
C304 C275 1.392 . S
C304 C277 1.389 . S
C305 C280 1.395 . S
C305 C282 1.391 . S
H306 C266 0.951 . S
H307 C267 0.950 . S
H308 C273 0.949 . S
H309 C274 0.950 . S
H310 C278 0.951 . S
H311 C279 0.950 . S
H312 C283 0.949 . S
H313 C284 0.950 . S
H314 C288 0.950 . S
H315 C290 0.950 . S
H316 C293 0.950 . S
H317 C295 0.950 . S
H318 C336 0.951 . S
H319 C338 0.951 . S
H320 C340 0.950 . S
H321 C341 0.950 . S
H322 C343 0.950 . S
H323 C346 0.950 . S
H324 C347 0.950 . S
H325 C349 0.950 . S
H326 C350 0.950 . S
H327 C351 0.951 . S
H328 C353 0.951 . S
H329 C355 0.950 . S
H330 C356 0.950 . S
H331 C358 0.950 . S
H332 C361 0.950 . S
H333 C362 0.950 . S
H334 C364 0.950 . S
H335 C365 0.950 . S
C336 H318 0.951 . S
C336 C337 1.366 . S
C336 C338 1.388 . S
C337 C336 1.366 . S
C337 C341 1.385 . S
C338 H319 0.951 . S
C338 C336 1.388 . S
C338 C339 1.366 . S
C339 C338 1.366 . S
C339 C340 1.414 . S
C339 C342 1.499 . S
C340 H320 0.950 . S
C340 C339 1.414 . S
C340 C341 1.374 . S
C341 H321 0.950 . S
C341 C337 1.385 . S
C341 C340 1.374 . S
C342 C339 1.499 . S
C342 C343 1.373 . S
C342 C344 1.389 . S
C343 H322 0.950 . S
C343 C342 1.373 . S
C343 C359 1.377 . S
C344 C342 1.389 . S
C344 C345 1.524 . S
C344 C358 1.377 . S
C345 C344 1.524 . S
C345 C346 1.397 . S
C345 C350 1.363 . S
C346 H323 0.950 . S
C346 C345 1.397 . S
C346 C347 1.334 . S
C347 H324 0.950 . S
C347 C346 1.334 . S
C347 C348 1.287 . S
C348 C347 1.287 . S
C348 C349 1.524 . S
C348 H367 0.913 . S
C349 H325 0.950 . S
C349 C348 1.524 . S
C349 C350 1.415 . S
C350 H326 0.950 . S
C350 C345 1.363 . S
C350 C349 1.415 . S
C351 H327 0.951 . S
C351 C352 1.366 . S
C351 C353 1.388 . S
C352 C351 1.366 . S
C352 C356 1.385 . S
C353 H328 0.951 . S
C353 C351 1.388 . S
C353 C354 1.366 . S
C354 C353 1.366 . S
C354 C355 1.414 . S
C354 C357 1.499 . S
C355 H329 0.950 . S
C355 C354 1.414 . S
C355 C356 1.374 . S
C356 H330 0.950 . S
C356 C352 1.385 . S
C356 C355 1.374 . S
C357 C354 1.499 . S
C357 C358 1.373 . S
C357 C359 1.389 . S
C358 H331 0.950 . S
C358 C344 1.377 . S
C358 C357 1.373 . S
C359 C343 1.377 . S
C359 C357 1.389 . S
C359 C360 1.524 . S
C360 C359 1.524 . S
C360 C361 1.397 . S
C360 C365 1.363 . S
C361 H332 0.950 . S
C361 C360 1.397 . S
C361 C362 1.334 . S
C362 H333 0.950 . S
C362 C361 1.334 . S
C362 C363 1.287 . S
C363 C362 1.287 . S
C363 C364 1.524 . S
C363 H366 0.999 . S
C364 H334 0.950 . S
C364 C363 1.524 . S
C364 C365 1.415 . S
C365 H335 0.950 . S
C365 C360 1.363 . S
C365 C364 1.415 . S
H366 C363 0.999 . S
H367 C348 0.913 . S
H368 C386 0.951 . S
H369 C388 0.951 . S
H370 C390 0.950 . S
H371 C391 0.950 . S
H372 C393 0.950 1_655 S
H373 C396 0.950 . S
H374 C397 0.950 . S
H375 C399 0.950 1_455 S
H376 C400 0.950 . S
H377 C401 0.951 . S
H378 C403 0.951 . S
H379 C405 0.950 . S
H380 C406 0.950 . S
H381 C408 0.950 . S
H382 C411 0.950 . S
H383 C412 0.950 . S
H384 C414 0.950 . S
H385 C415 0.950 . S
C386 H368 0.951 . S
C386 C387 1.366 . S
C386 C388 1.388 . S
C387 C386 1.366 . S
C387 C391 1.385 . S
C388 H369 0.951 . S
C388 C386 1.388 . S
C388 C389 1.366 . S
C389 C388 1.366 . S
C389 C390 1.414 . S
C389 C392 1.499 . S
C390 H370 0.950 . S
C390 C389 1.414 . S
C390 C391 1.374 . S
C391 H371 0.950 . S
C391 C387 1.385 . S
C391 C390 1.374 . S
C392 C389 1.499 . S
C392 C393 1.373 1_655 S
C392 C394 1.389 1_655 S
C393 H372 0.950 1_455 S
C393 C392 1.373 1_455 S
C393 C409 1.377 . S
C394 C392 1.389 1_455 S
C394 C395 1.524 1_455 S
C394 C408 1.377 . S
C395 C394 1.524 1_655 S
C395 C396 1.397 . S
C395 C400 1.363 1_655 S
C396 H373 0.950 . S
C396 C395 1.397 . S
C396 C397 1.334 . S
C397 H374 0.950 . S
C397 C396 1.334 . S
C397 C398 1.287 . S
C398 C397 1.287 . S
C398 C399 1.524 . S
C398 H417 0.913 . S
C399 H375 0.950 1_655 S
C399 C398 1.524 . S
C399 C400 1.415 1_655 S
C400 H376 0.950 . S
C400 C395 1.363 1_455 S
C400 C399 1.415 1_455 S
C401 H377 0.951 . S
C401 C402 1.366 . S
C401 C403 1.388 . S
C402 C401 1.366 . S
C402 C406 1.385 . S
C403 H378 0.951 . S
C403 C401 1.388 . S
C403 C404 1.366 . S
C404 C403 1.366 . S
C404 C405 1.414 . S
C404 C407 1.499 . S
C405 H379 0.950 . S
C405 C404 1.414 . S
C405 C406 1.374 . S
C406 H380 0.950 . S
C406 C402 1.385 . S
C406 C405 1.374 . S
C407 C404 1.499 . S
C407 C408 1.373 . S
C407 C409 1.389 . S
C408 H381 0.950 . S
C408 C394 1.377 . S
C408 C407 1.373 . S
C409 C393 1.377 . S
C409 C407 1.389 . S
C409 C410 1.524 . S
C410 C409 1.524 . S
C410 C411 1.397 . S
C410 C415 1.363 . S
C411 H382 0.950 . S
C411 C410 1.397 . S
C411 C412 1.334 . S
C412 H383 0.950 . S
C412 C411 1.334 . S
C412 C413 1.287 . S
C413 C412 1.287 . S
C413 C414 1.524 . S
C413 H416 0.999 . S
C414 H384 0.950 . S
C414 C413 1.524 . S
C414 C415 1.415 . S
C415 H385 0.950 . S
C415 C410 1.363 . S
C415 C414 1.415 . S
H416 C413 0.999 . S
H417 C398 0.913 . S
H418 C436 0.951 . S
H419 C438 0.951 . S
H420 C440 0.950 . S
H421 C441 0.950 . S
H422 C443 0.950 . S
H423 C446 0.950 . S
H424 C447 0.954 . S
H425 C449 0.950 . S
H426 C450 0.950 . S
H427 C451 0.951 . S
H428 C453 0.951 . S
H429 C455 0.950 . S
H430 C456 0.950 . S
H431 C458 0.950 . S
H432 C461 0.950 . S
H433 C462 0.950 . S
H434 C464 0.950 . S
H435 C465 0.950 . S
C436 H418 0.951 . S
C436 C437 1.366 . S
C436 C438 1.388 . S
C437 C436 1.366 . S
C437 C441 1.385 . S
C438 H419 0.951 . S
C438 C436 1.388 . S
C438 C439 1.366 . S
C439 C438 1.366 . S
C439 C440 1.414 . S
C439 C442 1.499 . S
C440 H420 0.950 . S
C440 C439 1.414 . S
C440 C441 1.374 . S
C441 H421 0.950 . S
C441 C437 1.385 . S
C441 C440 1.374 . S
C442 C439 1.499 . S
C442 C443 1.373 . S
C442 C444 1.389 . S
C443 H422 0.950 . S
C443 C442 1.373 . S
C443 C459 1.377 . S
C444 C442 1.389 . S
C444 C445 1.537 . S
C444 C458 1.377 1_545 S
C445 C444 1.537 . S
C445 C446 1.420 . S
C445 C450 1.327 1_545 S
C446 H423 0.950 . S
C446 C445 1.420 . S
C446 C447 1.336 . S
C447 H424 0.954 . S
C447 C446 1.336 . S
C447 C448 1.281 1_545 S
C448 C447 1.281 1_565 S
C448 C449 1.524 . S
C448 H467 0.913 . S
C449 H425 0.950 . S
C449 C448 1.524 . S
C449 C450 1.415 . S
C450 H426 0.950 . S
C450 C445 1.327 1_565 S
C450 C449 1.415 . S
C451 H427 0.951 . S
C451 C452 1.366 . S
C451 C453 1.388 . S
C452 C451 1.366 . S
C452 C456 1.385 . S
C453 H428 0.951 . S
C453 C451 1.388 . S
C453 C454 1.366 . S
C454 C453 1.366 . S
C454 C455 1.414 . S
C454 C457 1.499 . S
C455 H429 0.950 . S
C455 C454 1.414 . S
C455 C456 1.374 . S
C456 H430 0.950 . S
C456 C452 1.385 . S
C456 C455 1.374 . S
C457 C454 1.499 . S
C457 C458 1.373 . S
C457 C459 1.389 1_565 S
C458 H431 0.950 . S
C458 C444 1.377 1_565 S
C458 C457 1.373 . S
C459 C443 1.377 . S
C459 C457 1.389 1_545 S
C459 C460 1.524 . S
C460 C459 1.524 . S
C460 C461 1.397 . S
C460 C465 1.363 . S
C461 H432 0.950 . S
C461 C460 1.397 . S
C461 C462 1.334 . S
C462 H433 0.950 . S
C462 C461 1.334 . S
C462 C463 1.287 . S
C463 C462 1.287 . S
C463 C464 1.524 . S
C463 H466 0.999 . S
C464 H434 0.950 . S
C464 C463 1.524 . S
C464 C465 1.415 . S
C465 H435 0.950 . S
C465 C460 1.363 . S
C465 C464 1.415 . S
H466 C463 0.999 . S
H467 C448 0.913 . S
H468 C486 0.951 . S
H469 C488 0.951 . S
H470 C490 0.950 . S
H471 C491 0.950 . S
H472 C493 0.950 . S
H473 C496 0.950 . S
H474 C497 0.950 . S
H475 C499 0.950 . S
H476 C500 0.950 . S
H477 C501 0.951 . S
H478 C503 0.951 . S
H479 C505 0.950 . S
H480 C506 0.950 . S
H481 C508 0.950 . S
H482 C511 0.950 . S
H483 C512 0.950 . S
H484 C514 0.950 . S
H485 C515 0.950 . S
C486 H468 0.951 . S
C486 C487 1.366 . S
C486 C488 1.388 . S
C487 C486 1.366 . S
C487 C491 1.385 . S
C488 H469 0.951 . S
C488 C486 1.388 . S
C488 C489 1.366 . S
C489 C488 1.366 . S
C489 C490 1.414 . S
C489 C492 1.499 . S
C490 H470 0.950 . S
C490 C489 1.414 . S
C490 C491 1.374 . S
C491 H471 0.950 . S
C491 C487 1.385 . S
C491 C490 1.374 . S
C492 C489 1.499 . S
C492 C493 1.373 . S
C492 C494 1.389 . S
C493 H472 0.950 . S
C493 C492 1.373 . S
C493 C509 1.377 . S
C494 C492 1.389 . S
C494 C495 1.524 . S
C494 C508 1.377 . S
C495 C494 1.524 . S
C495 C496 1.397 . S
C495 C500 1.363 . S
C496 H473 0.950 . S
C496 C495 1.397 . S
C496 C497 1.334 . S
C497 H474 0.950 . S
C497 C496 1.334 . S
C497 C498 1.287 . S
C498 C497 1.287 . S
C498 C499 1.524 . S
C498 H517 0.913 . S
C499 H475 0.950 . S
C499 C498 1.524 . S
C499 C500 1.415 . S
C500 H476 0.950 . S
C500 C495 1.363 . S
C500 C499 1.415 . S
C501 H477 0.951 . S
C501 C502 1.366 . S
C501 C503 1.388 . S
C502 C501 1.366 . S
C502 C506 1.385 . S
C503 H478 0.951 . S
C503 C501 1.388 . S
C503 C504 1.366 . S
C504 C503 1.366 . S
C504 C505 1.414 . S
C504 C507 1.499 . S
C505 H479 0.950 . S
C505 C504 1.414 . S
C505 C506 1.374 . S
C506 H480 0.950 . S
C506 C502 1.385 . S
C506 C505 1.374 . S
C507 C504 1.499 . S
C507 C508 1.373 . S
C507 C509 1.389 . S
C508 H481 0.950 . S
C508 C494 1.377 . S
C508 C507 1.373 . S
C509 C493 1.377 . S
C509 C507 1.389 . S
C509 C510 1.524 . S
C510 C509 1.524 . S
C510 C511 1.397 . S
C510 C515 1.363 . S
C511 H482 0.950 . S
C511 C510 1.397 . S
C511 C512 1.334 . S
C512 H483 0.950 . S
C512 C511 1.334 . S
C512 C513 1.287 . S
C513 C512 1.287 . S
C513 C514 1.524 . S
C513 H516 0.999 . S
C514 H484 0.950 . S
C514 C513 1.524 . S
C514 C515 1.415 . S
C515 H485 0.950 . S
C515 C510 1.363 . S
C515 C514 1.415 . S
H516 C513 0.999 . S
H517 C498 0.913 . S
H518 C536 0.951 . S
H519 C538 0.951 . S
H520 C540 0.950 . S
H521 C541 0.950 . S
H522 C543 0.950 . S
H523 C546 0.950 . S
H524 C547 0.950 . S
H525 C549 0.950 . S
H526 C550 0.950 . S
H527 C551 0.951 . S
H528 C553 0.951 . S
H529 C555 0.950 . S
H530 C556 0.950 . S
H531 C558 0.950 . S
H532 C561 0.950 . S
H533 C562 0.950 . S
H534 C564 0.950 . S
H535 C565 0.950 . S
C536 H518 0.951 . S
C536 C537 1.366 . S
C536 C538 1.388 . S
C537 C536 1.366 . S
C537 C541 1.385 . S
C538 H519 0.951 . S
C538 C536 1.388 . S
C538 C539 1.366 . S
C539 C538 1.366 . S
C539 C540 1.414 . S
C539 C542 1.499 . S
C540 H520 0.950 . S
C540 C539 1.414 . S
C540 C541 1.374 . S
C541 H521 0.950 . S
C541 C537 1.385 . S
C541 C540 1.374 . S
C542 C539 1.499 . S
C542 C543 1.373 . S
C542 C544 1.389 . S
C543 H522 0.950 . S
C543 C542 1.373 . S
C543 C559 1.377 . S
C544 C542 1.389 . S
C544 C545 1.523 1_655 S
C544 C558 1.377 1_655 S
C545 C544 1.523 1_455 S
C545 C546 1.398 1_455 S
C545 C550 1.364 . S
C546 H523 0.950 . S
C546 C545 1.398 1_655 S
C546 C547 1.334 . S
C547 H524 0.950 . S
C547 C546 1.334 . S
C547 C548 1.287 1_655 S
C548 C547 1.287 1_455 S
C548 C549 1.524 . S
C548 H567 0.913 . S
C549 H525 0.950 . S
C549 C548 1.524 . S
C549 C550 1.415 . S
C550 H526 0.950 . S
C550 C545 1.364 . S
C550 C549 1.415 . S
C551 H527 0.951 . S
C551 C552 1.366 . S
C551 C553 1.388 . S
C552 C551 1.366 . S
C552 C556 1.385 . S
C553 H528 0.951 . S
C553 C551 1.388 . S
C553 C554 1.366 . S
C554 C553 1.366 . S
C554 C555 1.414 . S
C554 C557 1.499 . S
C555 H529 0.950 . S
C555 C554 1.414 . S
C555 C556 1.374 . S
C556 H530 0.950 . S
C556 C552 1.385 . S
C556 C555 1.374 . S
C557 C554 1.499 . S
C557 C558 1.373 . S
C557 C559 1.389 1_455 S
C558 H531 0.950 . S
C558 C544 1.377 1_455 S
C558 C557 1.373 . S
C559 C543 1.377 . S
C559 C557 1.389 1_655 S
C559 C560 1.524 . S
C560 C559 1.524 . S
C560 C561 1.397 . S
C560 C565 1.363 . S
C561 H532 0.950 . S
C561 C560 1.397 . S
C561 C562 1.334 . S
C562 H533 0.950 . S
C562 C561 1.334 . S
C562 C563 1.287 . S
C563 C562 1.287 . S
C563 C564 1.524 . S
C563 H566 0.999 . S
C564 H534 0.950 . S
C564 C563 1.524 . S
C564 C565 1.415 . S
C565 H535 0.950 . S
C565 C560 1.363 . S
C565 C564 1.415 . S
H566 C563 0.999 . S
H567 C548 0.913 . S
H568 C586 0.951 . S
H569 C588 0.951 . S
H570 C590 0.950 . S
H571 C591 0.950 . S
H572 C593 0.950 . S
H573 C596 0.950 . S
H574 C597 0.950 . S
H575 C599 0.950 . S
H576 C600 0.950 . S
H577 C601 0.951 . S
H578 C603 0.951 . S
H579 C605 0.950 . S
H580 C606 0.950 . S
H581 C608 0.950 . S
H582 C611 0.950 . S
H583 C612 0.950 . S
H584 C614 0.950 . S
H585 C615 0.950 . S
C586 H568 0.951 . S
C586 C587 1.366 . S
C586 C588 1.388 . S
C587 C586 1.366 . S
C587 C591 1.385 . S
C588 H569 0.951 . S
C588 C586 1.388 . S
C588 C589 1.366 . S
C589 C588 1.366 . S
C589 C590 1.414 . S
C589 C592 1.499 . S
C590 H570 0.950 . S
C590 C589 1.414 . S
C590 C591 1.374 . S
C591 H571 0.950 . S
C591 C587 1.385 . S
C591 C590 1.374 . S
C592 C589 1.499 . S
C592 C593 1.373 . S
C592 C594 1.389 1_545 S
C593 H572 0.950 . S
C593 C592 1.373 . S
C593 C609 1.377 1_545 S
C594 C592 1.389 1_565 S
C594 C595 1.524 . S
C594 C608 1.377 . S
C595 C594 1.524 . S
C595 C596 1.397 1_565 S
C595 C600 1.363 . S
C596 H573 0.950 . S
C596 C595 1.397 1_545 S
C596 C597 1.334 . S
C597 H574 0.950 . S
C597 C596 1.334 . S
C597 C598 1.287 1_545 S
C598 C597 1.287 1_565 S
C598 C599 1.524 . S
C598 H617 0.913 . S
C599 H575 0.950 . S
C599 C598 1.524 . S
C599 C600 1.415 . S
C600 H576 0.950 . S
C600 C595 1.363 . S
C600 C599 1.415 . S
C601 H577 0.951 . S
C601 C602 1.366 . S
C601 C603 1.388 . S
C602 C601 1.366 . S
C602 C606 1.385 . S
C603 H578 0.951 . S
C603 C601 1.388 . S
C603 C604 1.366 . S
C604 C603 1.366 . S
C604 C605 1.414 . S
C604 C607 1.499 . S
C605 H579 0.950 . S
C605 C604 1.414 . S
C605 C606 1.374 . S
C606 H580 0.950 . S
C606 C602 1.385 . S
C606 C605 1.374 . S
C607 C604 1.499 . S
C607 C608 1.373 . S
C607 C609 1.389 . S
C608 H581 0.950 . S
C608 C594 1.377 . S
C608 C607 1.373 . S
C609 C593 1.377 1_565 S
C609 C607 1.389 . S
C609 C610 1.524 . S
C610 C609 1.524 . S
C610 C611 1.397 . S
C610 C615 1.363 1_565 S
C611 H582 0.950 . S
C611 C610 1.397 . S
C611 C612 1.334 . S
C612 H583 0.950 . S
C612 C611 1.334 . S
C612 C613 1.287 . S
C613 C612 1.287 . S
C613 C614 1.524 1_565 S
C613 H616 0.999 . S
C614 H584 0.950 . S
C614 C613 1.524 1_545 S
C614 C615 1.415 . S
C615 H585 0.950 . S
C615 C610 1.363 1_545 S
C615 C614 1.415 . S
H616 C613 0.999 . S
H617 C598 0.913 . S
H618 C636 0.951 . S
H619 C638 0.951 . S
H620 C640 0.950 . S
H621 C641 0.950 . S
H622 C643 0.950 . S
H623 C646 0.950 . S
H624 C647 0.950 . S
H625 C649 0.950 . S
H626 C650 0.950 . S
H627 C651 0.951 . S
H628 C653 0.951 . S
H629 C655 0.950 . S
H630 C656 0.950 . S
H631 C658 0.950 . S
H632 C661 0.950 . S
H633 C662 0.950 . S
H634 C664 0.950 . S
H635 C665 0.950 . S
C636 H618 0.951 . S
C636 C637 1.366 . S
C636 C638 1.388 . S
C637 C636 1.366 . S
C637 C641 1.385 . S
C638 H619 0.951 . S
C638 C636 1.388 . S
C638 C639 1.366 . S
C639 C638 1.366 . S
C639 C640 1.414 . S
C639 C642 1.499 . S
C640 H620 0.950 . S
C640 C639 1.414 . S
C640 C641 1.374 . S
C641 H621 0.950 . S
C641 C637 1.385 . S
C641 C640 1.374 . S
C642 C639 1.499 . S
C642 C643 1.373 . S
C642 C644 1.389 . S
C643 H622 0.950 . S
C643 C642 1.373 . S
C643 C659 1.377 . S
C644 C642 1.389 . S
C644 C645 1.524 . S
C644 C658 1.377 . S
C645 C644 1.524 . S
C645 C646 1.397 . S
C645 C650 1.363 . S
C646 H623 0.950 . S
C646 C645 1.397 . S
C646 C647 1.334 . S
C647 H624 0.950 . S
C647 C646 1.334 . S
C647 C648 1.287 . S
C648 C647 1.287 . S
C648 C649 1.524 . S
C648 H667 0.913 . S
C649 H625 0.950 . S
C649 C648 1.524 . S
C649 C650 1.415 . S
C650 H626 0.950 . S
C650 C645 1.363 . S
C650 C649 1.415 . S
C651 H627 0.951 . S
C651 C652 1.366 . S
C651 C653 1.388 . S
C652 C651 1.366 . S
C652 C656 1.385 . S
C653 H628 0.951 . S
C653 C651 1.388 . S
C653 C654 1.366 . S
C654 C653 1.366 . S
C654 C655 1.414 . S
C654 C657 1.499 . S
C655 H629 0.950 . S
C655 C654 1.414 . S
C655 C656 1.374 . S
C656 H630 0.950 . S
C656 C652 1.385 . S
C656 C655 1.374 . S
C657 C654 1.499 . S
C657 C658 1.373 . S
C657 C659 1.389 . S
C658 H631 0.950 . S
C658 C644 1.377 . S
C658 C657 1.373 . S
C659 C643 1.377 . S
C659 C657 1.389 . S
C659 C660 1.524 . S
C660 C659 1.524 . S
C660 C661 1.397 . S
C660 C665 1.363 . S
C661 H632 0.950 . S
C661 C660 1.397 . S
C661 C662 1.334 . S
C662 H633 0.950 . S
C662 C661 1.334 . S
C662 C663 1.287 . S
C663 C662 1.287 . S
C663 C664 1.524 . S
C663 H666 0.999 . S
C664 H634 0.950 . S
C664 C663 1.524 . S
C664 C665 1.415 . S
C665 H635 0.950 . S
C665 C660 1.363 . S
C665 C664 1.415 . S
H666 C663 0.999 . S
H667 C648 0.913 . S
H668 C686 0.951 . S
H669 C688 0.951 . S
H670 C690 0.950 . S
H671 C691 0.950 . S
H672 C693 0.950 . S
H673 C696 0.950 . S
H674 C697 0.950 . S
H675 C699 0.950 . S
H676 C700 0.950 . S
H677 C701 0.951 . S
H678 C703 0.951 . S
H679 C705 0.950 . S
H680 C706 0.950 . S
H681 C708 0.950 . S
H682 C711 0.950 . S
H683 C712 0.950 . S
H684 C714 0.950 . S
H685 C715 0.950 . S
C686 H668 0.951 . S
C686 C687 1.366 . S
C686 C688 1.388 . S
C687 C686 1.366 . S
C687 C691 1.385 . S
C688 H669 0.951 . S
C688 C686 1.388 . S
C688 C689 1.366 . S
C689 C688 1.366 . S
C689 C690 1.414 . S
C689 C692 1.499 . S
C690 H670 0.950 . S
C690 C689 1.414 . S
C690 C691 1.374 . S
C691 H671 0.950 . S
C691 C687 1.385 . S
C691 C690 1.374 . S
C692 C689 1.499 . S
C692 C693 1.373 . S
C692 C694 1.389 . S
C693 H672 0.950 . S
C693 C692 1.373 . S
C693 C709 1.377 . S
C694 C692 1.389 . S
C694 C695 1.524 . S
C694 C708 1.377 . S
C695 C694 1.524 . S
C695 C696 1.397 . S
C695 C700 1.363 . S
C696 H673 0.950 . S
C696 C695 1.397 . S
C696 C697 1.334 . S
C697 H674 0.950 . S
C697 C696 1.334 . S
C697 C698 1.287 . S
C698 C697 1.287 . S
C698 C699 1.524 . S
C698 H717 0.913 . S
C699 H675 0.950 . S
C699 C698 1.524 . S
C699 C700 1.415 . S
C700 H676 0.950 . S
C700 C695 1.363 . S
C700 C699 1.415 . S
C701 H677 0.951 . S
C701 C702 1.366 . S
C701 C703 1.388 . S
C702 C701 1.366 . S
C702 C706 1.385 . S
C703 H678 0.951 . S
C703 C701 1.388 . S
C703 C704 1.366 . S
C704 C703 1.366 . S
C704 C705 1.414 . S
C704 C707 1.499 . S
C705 H679 0.950 . S
C705 C704 1.414 . S
C705 C706 1.374 . S
C706 H680 0.950 . S
C706 C702 1.385 . S
C706 C705 1.374 . S
C707 C704 1.499 . S
C707 C708 1.373 . S
C707 C709 1.389 . S
C708 H681 0.950 . S
C708 C694 1.377 . S
C708 C707 1.373 . S
C709 C693 1.377 . S
C709 C707 1.389 . S
C709 C710 1.524 . S
C710 C709 1.524 . S
C710 C711 1.397 . S
C710 C715 1.363 . S
C711 H682 0.950 . S
C711 C710 1.397 . S
C711 C712 1.334 . S
C712 H683 0.950 . S
C712 C711 1.334 . S
C712 C713 1.287 . S
C713 C712 1.287 . S
C713 C714 1.524 . S
C713 H716 0.999 . S
C714 H684 0.950 . S
C714 C713 1.524 . S
C714 C715 1.415 . S
C715 H685 0.950 . S
C715 C710 1.363 . S
C715 C714 1.415 . S
H716 C713 0.999 . S
H717 C698 0.913 . S
H718 C736 0.951 . S
H719 C738 0.951 . S
H720 C740 0.950 . S
H721 C741 0.950 . S
H722 C743 0.950 . S
H723 C746 0.950 . S
H724 C747 0.950 . S
H725 C749 0.950 . S
H726 C750 0.950 . S
H727 C751 0.951 . S
H728 C753 0.951 . S
H729 C755 0.950 . S
H730 C756 0.950 . S
H731 C758 0.950 . S
H732 C761 0.950 . S
H733 C762 0.950 . S
H734 C764 0.950 . S
H735 C765 0.950 . S
C736 H718 0.951 . S
C736 C737 1.366 . S
C736 C738 1.388 . S
C737 C736 1.366 . S
C737 C741 1.385 . S
C738 H719 0.951 . S
C738 C736 1.388 . S
C738 C739 1.366 . S
C739 C738 1.366 . S
C739 C740 1.414 . S
C739 C742 1.499 . S
C740 H720 0.950 . S
C740 C739 1.414 . S
C740 C741 1.374 . S
C741 H721 0.950 . S
C741 C737 1.385 . S
C741 C740 1.374 . S
C742 C739 1.499 . S
C742 C743 1.373 . S
C742 C744 1.389 . S
C743 H722 0.950 . S
C743 C742 1.373 . S
C743 C759 1.377 . S
C744 C742 1.389 . S
C744 C745 1.524 . S
C744 C758 1.377 . S
C745 C744 1.524 . S
C745 C746 1.397 . S
C745 C750 1.363 . S
C746 H723 0.950 . S
C746 C745 1.397 . S
C746 C747 1.334 . S
C747 H724 0.950 . S
C747 C746 1.334 . S
C747 C748 1.287 . S
C748 C747 1.287 . S
C748 C749 1.524 . S
C748 H767 0.913 . S
C749 H725 0.950 . S
C749 C748 1.524 . S
C749 C750 1.415 . S
C750 H726 0.950 . S
C750 C745 1.363 . S
C750 C749 1.415 . S
C751 H727 0.951 . S
C751 C752 1.366 . S
C751 C753 1.388 . S
C752 C751 1.366 . S
C752 C756 1.385 . S
C753 H728 0.951 . S
C753 C751 1.388 . S
C753 C754 1.366 . S
C754 C753 1.366 . S
C754 C755 1.414 . S
C754 C757 1.499 . S
C755 H729 0.950 . S
C755 C754 1.414 . S
C755 C756 1.374 . S
C756 H730 0.950 . S
C756 C752 1.385 . S
C756 C755 1.374 . S
C757 C754 1.499 . S
C757 C758 1.373 . S
C757 C759 1.389 . S
C758 H731 0.950 . S
C758 C744 1.377 . S
C758 C757 1.373 . S
C759 C743 1.377 . S
C759 C757 1.389 . S
C759 C760 1.524 . S
C760 C759 1.524 . S
C760 C761 1.397 . S
C760 C765 1.363 . S
C761 H732 0.950 . S
C761 C760 1.397 . S
C761 C762 1.334 . S
C762 H733 0.950 . S
C762 C761 1.334 . S
C762 C763 1.287 . S
C763 C762 1.287 . S
C763 C764 1.524 . S
C763 H766 0.999 . S
C764 H734 0.950 . S
C764 C763 1.524 . S
C764 C765 1.415 . S
C765 H735 0.950 . S
C765 C760 1.363 . S
C765 C764 1.415 . S
H766 C763 0.999 . S
H767 C748 0.913 . S
H768 C786 0.951 . S
H769 C788 0.951 . S
H770 C790 0.950 . S
H771 C791 0.950 . S
H772 C793 0.950 . S
H773 C796 0.950 . S
H774 C797 0.950 . S
H775 C799 0.950 . S
H776 C800 0.950 . S
H777 C801 0.951 . S
H778 C803 0.951 . S
H779 C805 0.950 . S
H780 C806 0.950 . S
H781 C808 0.950 . S
H782 C811 0.950 . S
H783 C812 0.950 . S
H784 C814 0.950 . S
H785 C815 0.950 . S
C786 H768 0.951 . S
C786 C787 1.366 . S
C786 C788 1.388 . S
C787 C786 1.366 . S
C787 C791 1.385 . S
C788 H769 0.951 . S
C788 C786 1.388 . S
C788 C789 1.366 . S
C789 C788 1.366 . S
C789 C790 1.414 . S
C789 C792 1.499 . S
C790 H770 0.950 . S
C790 C789 1.414 . S
C790 C791 1.374 . S
C791 H771 0.950 . S
C791 C787 1.385 . S
C791 C790 1.374 . S
C792 C789 1.499 . S
C792 C793 1.373 . S
C792 C794 1.389 . S
C793 H772 0.950 . S
C793 C792 1.373 . S
C793 C809 1.377 . S
C794 C792 1.389 . S
C794 C795 1.524 . S
C794 C808 1.377 . S
C795 C794 1.524 . S
C795 C796 1.397 . S
C795 C800 1.363 . S
C796 H773 0.950 . S
C796 C795 1.397 . S
C796 C797 1.334 . S
C797 H774 0.950 . S
C797 C796 1.334 . S
C797 C798 1.287 . S
C798 C797 1.287 . S
C798 C799 1.524 . S
C798 H817 0.913 . S
C799 H775 0.950 . S
C799 C798 1.524 . S
C799 C800 1.415 . S
C800 H776 0.950 . S
C800 C795 1.363 . S
C800 C799 1.415 . S
C801 H777 0.951 . S
C801 C802 1.366 . S
C801 C803 1.388 . S
C802 C801 1.366 . S
C802 C806 1.385 . S
C803 H778 0.951 . S
C803 C801 1.388 . S
C803 C804 1.366 . S
C804 C803 1.366 . S
C804 C805 1.414 . S
C804 C807 1.499 . S
C805 H779 0.950 . S
C805 C804 1.414 . S
C805 C806 1.374 . S
C806 H780 0.950 . S
C806 C802 1.385 . S
C806 C805 1.374 . S
C807 C804 1.499 . S
C807 C808 1.373 . S
C807 C809 1.389 . S
C808 H781 0.950 . S
C808 C794 1.377 . S
C808 C807 1.373 . S
C809 C793 1.377 . S
C809 C807 1.389 . S
C809 C810 1.524 . S
C810 C809 1.524 . S
C810 C811 1.397 . S
C810 C815 1.363 . S
C811 H782 0.950 . S
C811 C810 1.397 . S
C811 C812 1.334 . S
C812 H783 0.950 . S
C812 C811 1.334 . S
C812 C813 1.287 . S
C813 C812 1.287 . S
C813 C814 1.524 . S
C813 H816 0.999 . S
C814 H784 0.950 . S
C814 C813 1.524 . S
C814 C815 1.415 . S
C815 H785 0.950 . S
C815 C810 1.363 . S
C815 C814 1.415 . S
H816 C813 0.999 . S
H817 C798 0.913 . S
H818 C836 0.951 . S
H819 C838 0.951 . S
H820 C840 0.950 . S
H821 C841 0.950 . S
H822 C843 0.950 . S
H823 C846 0.950 . S
H824 C847 0.950 . S
H825 C849 0.950 . S
H826 C850 0.950 . S
H827 C851 0.951 . S
H828 C853 0.951 . S
H829 C855 0.950 . S
H830 C856 0.950 . S
H831 C858 0.950 . S
H832 C861 0.950 . S
H833 C862 0.950 . S
H834 C864 0.950 . S
H835 C865 0.950 . S
C836 H818 0.951 . S
C836 C837 1.366 . S
C836 C838 1.388 . S
C837 C836 1.366 . S
C837 C841 1.385 . S
C838 H819 0.951 . S
C838 C836 1.388 . S
C838 C839 1.366 . S
C839 C838 1.366 . S
C839 C840 1.414 . S
C839 C842 1.499 . S
C840 H820 0.950 . S
C840 C839 1.414 . S
C840 C841 1.374 . S
C841 H821 0.950 . S
C841 C837 1.385 . S
C841 C840 1.374 . S
C842 C839 1.499 . S
C842 C843 1.373 . S
C842 C844 1.389 . S
C843 H822 0.950 . S
C843 C842 1.373 . S
C843 C859 1.377 . S
C844 C842 1.389 . S
C844 C845 1.524 . S
C844 C858 1.377 . S
C845 C844 1.524 . S
C845 C846 1.397 . S
C845 C850 1.363 . S
C846 H823 0.950 . S
C846 C845 1.397 . S
C846 C847 1.334 . S
C847 H824 0.950 . S
C847 C846 1.334 . S
C847 C848 1.287 . S
C848 C847 1.287 . S
C848 C849 1.524 . S
C848 H867 0.913 . S
C849 H825 0.950 . S
C849 C848 1.524 . S
C849 C850 1.415 . S
C850 H826 0.950 . S
C850 C845 1.363 . S
C850 C849 1.415 . S
C851 H827 0.951 . S
C851 C852 1.366 . S
C851 C853 1.388 . S
C852 C851 1.366 . S
C852 C856 1.385 . S
C853 H828 0.951 . S
C853 C851 1.388 . S
C853 C854 1.366 . S
C854 C853 1.366 . S
C854 C855 1.414 . S
C854 C857 1.499 . S
C855 H829 0.950 . S
C855 C854 1.414 . S
C855 C856 1.374 . S
C856 H830 0.950 . S
C856 C852 1.385 . S
C856 C855 1.374 . S
C857 C854 1.499 . S
C857 C858 1.373 . S
C857 C859 1.389 . S
C858 H831 0.950 . S
C858 C844 1.377 . S
C858 C857 1.373 . S
C859 C843 1.377 . S
C859 C857 1.389 . S
C859 C860 1.524 . S
C860 C859 1.524 . S
C860 C861 1.397 . S
C860 C865 1.363 . S
C861 H832 0.950 . S
C861 C860 1.397 . S
C861 C862 1.334 . S
C862 H833 0.950 . S
C862 C861 1.334 . S
C862 C863 1.287 . S
C863 C862 1.287 . S
C863 C864 1.524 . S
C863 H866 0.999 . S
C864 H834 0.950 . S
C864 C863 1.524 . S
C864 C865 1.415 . S
C865 H835 0.950 . S
C865 C860 1.363 . S
C865 C864 1.415 . S
H866 C863 0.999 . S
H867 C848 0.913 . S
H868 C886 0.951 . S
H869 C888 0.951 . S
H870 C890 0.950 . S
H871 C891 0.950 . S
H872 C893 0.950 . S
H873 C896 0.950 . S
H874 C897 0.950 . S
H875 C899 0.950 . S
H876 C900 0.950 . S
H877 C901 0.951 . S
H878 C903 0.951 . S
H879 C905 0.950 . S
H880 C906 0.950 . S
H881 C908 0.950 . S
H882 C911 0.950 . S
H883 C912 0.950 . S
H884 C914 0.950 . S
H885 C915 0.950 . S
C886 H868 0.951 . S
C886 C887 1.366 . S
C886 C888 1.388 . S
C887 C886 1.366 . S
C887 C891 1.385 . S
C888 H869 0.951 . S
C888 C886 1.388 . S
C888 C889 1.366 . S
C889 C888 1.366 . S
C889 C890 1.414 . S
C889 C892 1.499 . S
C890 H870 0.950 . S
C890 C889 1.414 . S
C890 C891 1.374 . S
C891 H871 0.950 . S
C891 C887 1.385 . S
C891 C890 1.374 . S
C892 C889 1.499 . S
C892 C893 1.373 . S
C892 C894 1.389 . S
C893 H872 0.950 . S
C893 C892 1.373 . S
C893 C909 1.377 . S
C894 C892 1.389 . S
C894 C895 1.524 . S
C894 C908 1.377 . S
C895 C894 1.524 . S
C895 C896 1.397 . S
C895 C900 1.363 . S
C896 H873 0.950 . S
C896 C895 1.397 . S
C896 C897 1.334 . S
C897 H874 0.950 . S
C897 C896 1.334 . S
C897 C898 1.287 . S
C898 C897 1.287 . S
C898 C899 1.524 . S
C898 H917 0.913 . S
C899 H875 0.950 . S
C899 C898 1.524 . S
C899 C900 1.415 . S
C900 H876 0.950 . S
C900 C895 1.363 . S
C900 C899 1.415 . S
C901 H877 0.951 . S
C901 C902 1.366 . S
C901 C903 1.388 . S
C902 C901 1.366 . S
C902 C906 1.385 . S
C903 H878 0.951 . S
C903 C901 1.388 . S
C903 C904 1.366 . S
C904 C903 1.366 . S
C904 C905 1.414 . S
C904 C907 1.499 . S
C905 H879 0.950 . S
C905 C904 1.414 . S
C905 C906 1.374 . S
C906 H880 0.950 . S
C906 C902 1.385 . S
C906 C905 1.374 . S
C907 C904 1.499 . S
C907 C908 1.373 . S
C907 C909 1.389 . S
C908 H881 0.950 . S
C908 C894 1.377 . S
C908 C907 1.373 . S
C909 C893 1.377 . S
C909 C907 1.389 . S
C909 C910 1.524 . S
C910 C909 1.524 . S
C910 C911 1.397 . S
C910 C915 1.363 . S
C911 H882 0.950 . S
C911 C910 1.397 . S
C911 C912 1.334 . S
C912 H883 0.950 . S
C912 C911 1.334 . S
C912 C913 1.287 . S
C913 C912 1.287 . S
C913 C914 1.524 . S
C913 H916 0.999 . S
C914 H884 0.950 . S
C914 C913 1.524 . S
C914 C915 1.415 . S
C915 H885 0.950 . S
C915 C910 1.363 . S
C915 C914 1.415 . S
H916 C913 0.999 . S
H917 C898 0.913 . S
C337 C22 1.399 . S
C352 C303 1.403 . S
C387 C75 1.399 . S
C402 C38 1.402 . S
C437 C91 1.403 . S
C452 C128 1.399 . S
C487 C181 1.399 . S
C502 C144 1.403 . S
C537 C197 1.403 . S
C552 C234 1.398 . S
C587 C287 1.399 . S
C602 C250 1.403 . S
C637 C251 1.496 . S
C652 C29 1.492 . S
C687 C304 1.496 . S
C702 C82 1.492 . S
C737 C135 1.492 . S
C752 C39 1.495 . S
C787 C188 1.493 . S
C802 C92 1.496 . S
C837 C241 1.492 . S
C852 C145 1.496 . S
C887 C294 1.492 . S
C902 C198 1.496 . S
