# Generated by pormake.
# Topology fng, (5)-cn, num edge types: 1
# Building blocks:
#     Node 0, Type 0, BuildingBlock: XOMCOT_clean_sbu_1, # of connection points: 5
#     Node 1, Type 0, BuildingBlock: XOMCOT_clean_sbu_1, # of connection points: 5
#     Node 2, Type 0, BuildingBlock: XOMCOT_clean_sbu_1, # of connection points: 5
#     Node 3, Type 0, BuildingBlock: XOMCOT_clean_sbu_1, # of connection points: 5
#     Node 4, Type 0, BuildingBlock: XOMCOT_clean_sbu_1, # of connection points: 5
#     Node 5, Type 0, BuildingBlock: XOMCOT_clean_sbu_1, # of connection points: 5
#     Node 6, Type 0, BuildingBlock: XOMCOT_clean_sbu_1, # of connection points: 5
#     Node 7, Type 0, BuildingBlock: XOMCOT_clean_sbu_1, # of connection points: 5
#     Node 8, Type 0, BuildingBlock: XOMCOT_clean_sbu_1, # of connection points: 5
#     Node 9, Type 0, BuildingBlock: XOMCOT_clean_sbu_1, # of connection points: 5
#     Node 10, Type 0, BuildingBlock: XOMCOT_clean_sbu_1, # of connection points: 5
#     Node 11, Type 0, BuildingBlock: XOMCOT_clean_sbu_1, # of connection points: 5
#     Node 12, Type 0, BuildingBlock: XOMCOT_clean_sbu_1, # of connection points: 5
#     Node 13, Type 0, BuildingBlock: XOMCOT_clean_sbu_1, # of connection points: 5
#     Node 14, Type 0, BuildingBlock: XOMCOT_clean_sbu_1, # of connection points: 5
#     Node 15, Type 0, BuildingBlock: XOMCOT_clean_sbu_1, # of connection points: 5
#     Node 16, Type 0, BuildingBlock: XOMCOT_clean_sbu_1, # of connection points: 5
#     Node 17, Type 0, BuildingBlock: XOMCOT_clean_sbu_1, # of connection points: 5
#     Edge 18, Type (0, 0), BuildingBlock: EZIPEK_clean_linker_0, # of connection points: 2
#     Edge 19, Type (0, 0), BuildingBlock: EZIPEK_clean_linker_0, # of connection points: 2
#     Edge 20, Type (0, 0), BuildingBlock: EZIPEK_clean_linker_0, # of connection points: 2
#     Edge 21, Type (0, 0), BuildingBlock: EZIPEK_clean_linker_0, # of connection points: 2
#     Edge 22, Type (0, 0), BuildingBlock: EZIPEK_clean_linker_0, # of connection points: 2
#     Edge 23, Type (0, 0), BuildingBlock: EZIPEK_clean_linker_0, # of connection points: 2
#     Edge 24, Type (0, 0), BuildingBlock: EZIPEK_clean_linker_0, # of connection points: 2
#     Edge 25, Type (0, 0), BuildingBlock: EZIPEK_clean_linker_0, # of connection points: 2
#     Edge 26, Type (0, 0), BuildingBlock: EZIPEK_clean_linker_0, # of connection points: 2
#     Edge 27, Type (0, 0), BuildingBlock: EZIPEK_clean_linker_0, # of connection points: 2
#     Edge 28, Type (0, 0), BuildingBlock: EZIPEK_clean_linker_0, # of connection points: 2
#     Edge 29, Type (0, 0), BuildingBlock: EZIPEK_clean_linker_0, # of connection points: 2
#     Edge 30, Type (0, 0), BuildingBlock: EZIPEK_clean_linker_0, # of connection points: 2
#     Edge 31, Type (0, 0), BuildingBlock: EZIPEK_clean_linker_0, # of connection points: 2
#     Edge 32, Type (0, 0), BuildingBlock: EZIPEK_clean_linker_0, # of connection points: 2
#     Edge 33, Type (0, 0), BuildingBlock: EZIPEK_clean_linker_0, # of connection points: 2
#     Edge 34, Type (0, 0), BuildingBlock: EZIPEK_clean_linker_0, # of connection points: 2
#     Edge 35, Type (0, 0), BuildingBlock: EZIPEK_clean_linker_0, # of connection points: 2
#     Edge 36, Type (0, 0), BuildingBlock: EZIPEK_clean_linker_0, # of connection points: 2
#     Edge 37, Type (0, 0), BuildingBlock: EZIPEK_clean_linker_0, # of connection points: 2
#     Edge 38, Type (0, 0), BuildingBlock: EZIPEK_clean_linker_0, # of connection points: 2
#     Edge 39, Type (0, 0), BuildingBlock: EZIPEK_clean_linker_0, # of connection points: 2
#     Edge 40, Type (0, 0), BuildingBlock: EZIPEK_clean_linker_0, # of connection points: 2
#     Edge 41, Type (0, 0), BuildingBlock: EZIPEK_clean_linker_0, # of connection points: 2
#     Edge 42, Type (0, 0), BuildingBlock: EZIPEK_clean_linker_0, # of connection points: 2
#     Edge 43, Type (0, 0), BuildingBlock: EZIPEK_clean_linker_0, # of connection points: 2
#     Edge 44, Type (0, 0), BuildingBlock: EZIPEK_clean_linker_0, # of connection points: 2
#     Edge 45, Type (0, 0), BuildingBlock: EZIPEK_clean_linker_0, # of connection points: 2
#     Edge 46, Type (0, 0), BuildingBlock: EZIPEK_clean_linker_0, # of connection points: 2
#     Edge 47, Type (0, 0), BuildingBlock: EZIPEK_clean_linker_0, # of connection points: 2
#     Edge 48, Type (0, 0), BuildingBlock: EZIPEK_clean_linker_0, # of connection points: 2
#     Edge 49, Type (0, 0), BuildingBlock: EZIPEK_clean_linker_0, # of connection points: 2
#     Edge 50, Type (0, 0), BuildingBlock: EZIPEK_clean_linker_0, # of connection points: 2
#     Edge 51, Type (0, 0), BuildingBlock: EZIPEK_clean_linker_0, # of connection points: 2
#     Edge 52, Type (0, 0), BuildingBlock: EZIPEK_clean_linker_0, # of connection points: 2
#     Edge 53, Type (0, 0), BuildingBlock: EZIPEK_clean_linker_0, # of connection points: 2
#     Edge 54, Type (0, 0), BuildingBlock: EZIPEK_clean_linker_0, # of connection points: 2
#     Edge 55, Type (0, 0), BuildingBlock: EZIPEK_clean_linker_0, # of connection points: 2
#     Edge 56, Type (0, 0), BuildingBlock: EZIPEK_clean_linker_0, # of connection points: 2
#     Edge 57, Type (0, 0), BuildingBlock: EZIPEK_clean_linker_0, # of connection points: 2
#     Edge 58, Type (0, 0), BuildingBlock: EZIPEK_clean_linker_0, # of connection points: 2
#     Edge 59, Type (0, 0), BuildingBlock: EZIPEK_clean_linker_0, # of connection points: 2
#     Edge 60, Type (0, 0), BuildingBlock: EZIPEK_clean_linker_0, # of connection points: 2
#     Edge 61, Type (0, 0), BuildingBlock: EZIPEK_clean_linker_0, # of connection points: 2
#     Edge 62, Type (0, 0), BuildingBlock: EZIPEK_clean_linker_0, # of connection points: 2
# Relax obj value: 0.134
# Max RMSD: 0.150
# Mean RMSD: 0.150
data_MOF--net-fng--node1-XOMCOT_clean_sbu_1--edge1-EZIPEK_clean_linker_0
_symmetry_space_group_name_H-M    P1
_symmetry_Int_Tables_number       1
_symmetry_cell_setting            triclinic
loop_
_symmetry_equiv_pos_as_xyz
'x, y, z'
_cell_length_a     60.405766
_cell_length_b     60.49068
_cell_length_c     13.26012
_cell_angle_alpha  89.993853
_cell_angle_beta   90.09057
_cell_angle_gamma 119.99921
loop_
_atom_site_label
_atom_site_type_symbol
_atom_site_fract_x
_atom_site_fract_y
_atom_site_fract_z
_atom_type_partial_charge
C0 C 0.13285 0.26821 1.00282 0.0
C1 C 0.13286 0.27089 0.8996 0.0
N2 N 0.14753 0.26219 0.85954 0.0
N3 N 0.14759 0.25806 0.02734 0.0
C4 C 0.15694 0.25545 0.93848 0.0
H5 H 0.12117 0.27145 0.05579 0.0
Co6 Co 0.14823 0.24487 0.15422 0.0
C7 C 0.1613 0.20507 0.07348 0.0
O8 O 0.13893 0.18542 0.09571 0.0
N9 N 0.14889 0.23252 0.28433 0.0
C10 C 0.14914 0.21113 0.4212 0.0
C11 C 0.14879 0.21129 0.31731 0.0
C12 C 0.14918 0.2448 0.37006 0.0
N13 N 0.14948 0.23231 0.45349 0.0
O14 O 0.18079 0.27527 0.18293 0.0
H15 H 0.14822 0.19652 0.27065 0.0
H16 H 0.14859 0.26235 0.372 0.0
O17 O 0.16655 0.22785 0.09572 0.0
C18 C 0.17742 0.29338 0.21389 0.0
O19 O 0.154 0.28949 0.21591 0.0
N20 N 0.11479 0.21664 0.12921 0.0
C21 C 0.06267 0.18488 0.0857 0.0
C22 C 0.08143 0.18735 0.01738 0.0
C23 C 0.10726 0.20387 0.03926 0.0
C24 C 0.09666 0.21379 0.19772 0.0
C25 C 0.07055 0.19799 0.17765 0.0
H26 H 0.12106 0.20718 0.98158 0.0
H27 H 0.10226 0.22508 0.26592 0.0
H28 H 0.16893 0.24705 0.93037 0.0
H29 H 0.12116 0.27646 0.85683 0.0
H30 H 0.14891 0.19656 0.46933 0.0
H31 H 0.07607 0.17787 0.94479 0.0
H32 H 0.0566 0.19692 0.23157 0.0
C33 C 0.76453 0.8757 0.01008 0.0
C34 C 0.76467 0.87561 0.90671 0.0
N35 N 0.76493 0.89682 0.8737 0.0
N36 N 0.76562 0.89735 0.0423 0.0
C37 C 0.76433 0.9091 0.95775 0.0
H38 H 0.76658 0.86241 0.05821 0.0
Co39 Co 0.77801 0.91147 0.16851 0.0
C40 C 0.79626 0.96639 0.13174 0.0
O41 O 0.78476 0.96768 0.21367 0.0
N42 N 0.79048 0.92512 0.29554 0.0
C43 C 0.81582 0.94046 0.42966 0.0
C44 C 0.81499 0.93975 0.32587 0.0
C45 C 0.77684 0.91785 0.38157 0.0
N46 N 0.79172 0.92659 0.46411 0.0
O47 O 0.74703 0.91299 0.19383 0.0
H48 H 0.83136 0.94771 0.27635 0.0
H49 H 0.75659 0.90458 0.38501 0.0
O50 O 0.79528 0.94547 0.10823 0.0
C51 C 0.72916 0.89096 0.22098 0.0
O52 O 0.73408 0.8721 0.22208 0.0
N53 N 0.80677 0.90743 0.14633 0.0
C54 C 0.83859 0.88804 0.09416 0.0
C55 C 0.83925 0.9082 0.03931 0.0
C56 C 0.82332 0.91784 0.0673 0.0
C57 C 0.80697 0.88884 0.20385 0.0
C58 C 0.82296 0.87908 0.17981 0.0
H59 H 0.82305 0.93233 0.0211 0.0
H60 H 0.79343 0.88038 0.26493 0.0
H61 H 0.76561 0.9276 0.95735 0.0
H62 H 0.7664 0.86196 0.85938 0.0
H63 H 0.83282 0.94938 0.47628 0.0
H64 H 0.85105 0.91555 0.97259 0.0
H65 H 0.82192 0.8635 0.22385 0.0
C66 C 0.14254 0.85406 0.99033 0.0
C67 C 0.14235 0.85255 0.88642 0.0
N68 N 0.12498 0.85836 0.85132 0.0
N69 N 0.12547 0.86099 0.02007 0.0
C70 C 0.11496 0.86319 0.93314 0.0
H71 H 0.15532 0.85154 0.03972 0.0
Co72 Co 0.11969 0.8706 0.14776 0.0
C73 C 0.06215 0.84759 0.15417 0.0
O74 O 0.06344 0.86298 0.22676 0.0
N75 N 0.11393 0.8806 0.27774 0.0
C76 C 0.11462 0.90385 0.41022 0.0
C77 C 0.1167 0.90333 0.30704 0.0
C78 C 0.10981 0.86766 0.36573 0.0
N79 N 0.11113 0.88165 0.44701 0.0
O80 O 0.11942 0.84131 0.20933 0.0
H81 H 0.12163 0.91945 0.25856 0.0
H82 H 0.10748 0.84883 0.37231 0.0
O83 O 0.08293 0.85015 0.1188 0.0
C84 C 0.14135 0.84641 0.24313 0.0
O85 O 0.16126 0.86862 0.22032 0.0
N86 N 0.12327 0.90061 0.08973 0.0
C87 C 0.13988 0.95037 0.02502 0.0
C88 C 0.11363 0.93273 0.03427 0.0
C89 C 0.1056 0.90762 0.06569 0.0
C90 C 0.14869 0.91735 0.07778 0.0
C91 C 0.15739 0.94218 0.04474 0.0
H92 H 0.08546 0.89439 0.07389 0.0
H93 H 0.16238 0.91145 0.09688 0.0
H94 H 0.10126 0.86971 0.92915 0.0
H95 H 0.15494 0.84893 0.84008 0.0
H96 H 0.11779 0.9201 0.45533 0.0
H97 H 0.09959 0.93848 0.01958 0.0
H98 H 0.17777 0.95524 0.03821 0.0
C99 C 0.27707 0.1294 0.9953 0.0
C100 C 0.27997 0.13077 0.09848 0.0
N101 N 0.2713 0.14586 0.13453 0.0
N102 N 0.2671 0.14395 0.96593 0.0
C103 C 0.26464 0.15438 0.05238 0.0
H104 H 0.27967 0.11659 0.94624 0.0
Co105 Co 0.25259 0.1421 0.83857 0.0
C106 C 0.21268 0.15686 0.89608 0.0
O107 O 0.19412 0.13597 0.85626 0.0
N108 N 0.23805 0.13999 0.70811 0.0
C109 C 0.21269 0.12643 0.57231 0.0
C110 C 0.21374 0.12484 0.6755 0.0
C111 C 0.25117 0.15066 0.62206 0.0
N112 N 0.23648 0.14219 0.53869 0.0
O113 O 0.28301 0.17373 0.79797 0.0
H114 H 0.19798 0.11142 0.72138 0.0
H115 H 0.2714 0.16363 0.61859 0.0
O116 O 0.23583 0.16134 0.89208 0.0
C117 C 0.30174 0.17032 0.77511 0.0
O118 O 0.29967 0.14811 0.79501 0.0
N119 N 0.22518 0.10945 0.87378 0.0
C120 C 0.19254 0.05806 0.92265 0.0
C121 C 0.19234 0.07756 0.97925 0.0
C122 C 0.20935 0.10317 0.95521 0.0
C123 C 0.22562 0.09064 0.81845 0.0
C124 C 0.2094 0.06488 0.84109 0.0
H125 H 0.2104 0.11772 1.0044 0.0
H126 H 0.23925 0.09575 0.75765 0.0
H127 H 0.25662 0.16672 0.05642 0.0
H128 H 0.28507 0.11917 0.14433 0.0
H129 H 0.19629 0.11481 0.52489 0.0
H130 H 0.18004 0.07302 0.04447 0.0
H131 H 0.2105 0.05039 0.79693 0.0
C132 C 0.86351 0.13962 0.04204 0.0
C133 C 0.85832 0.13754 0.14324 0.0
N134 N 0.85429 0.11468 0.17721 0.0
N135 N 0.86352 0.11858 0.0105 0.0
C136 C 0.85877 0.10418 0.09447 0.0
H137 H 0.86893 0.1563 0.99616 0.0
Co138 Co 0.87235 0.11386 0.88056 0.0
C139 C 0.84808 0.05537 0.86969 0.0
O140 O 0.85283 0.05341 0.77461 0.0
N141 N 0.88162 0.11007 0.74819 0.0
C142 C 0.9036 0.12218 0.60415 0.0
C143 C 0.9052 0.12409 0.70769 0.0
C144 C 0.86613 0.09969 0.66719 0.0
N145 N 0.87895 0.10696 0.5791 0.0
O146 O 0.84069 0.11113 0.8284 0.0
H147 H 0.9222 0.13699 0.74947 0.0
H148 H 0.84559 0.08875 0.6718 0.0
O149 O 0.85509 0.07717 0.90893 0.0
C150 C 0.84488 0.13243 0.79169 0.0
O151 O 0.86838 0.15181 0.79586 0.0
N152 N 0.90385 0.11903 0.93077 0.0
C153 C 0.95433 0.13526 0.98688 0.0
C154 C 0.93815 0.11011 0.95368 0.0
C155 C 0.91279 0.10229 0.92615 0.0
C156 C 0.91934 0.1434 0.96383 0.0
C157 C 0.94447 0.15178 0.99341 0.0
H158 H 0.90087 0.08334 0.89657 0.0
H159 H 0.91247 0.1568 0.96351 0.0
H160 H 0.86073 0.08743 0.09505 0.0
H161 H 0.85962 0.15294 0.18889 0.0
H162 H 0.9189 0.13303 0.55126 0.0
H163 H 0.94529 0.09696 0.94625 0.0
H164 H 0.95648 0.1714 0.01738 0.0
C165 C 0.87431 0.75407 0.04008 0.0
C166 C 0.87199 0.75001 0.14213 0.0
N167 N 0.89285 0.74973 0.1786 0.0
N168 N 0.89703 0.75754 0.01001 0.0
C169 C 0.90786 0.75479 0.09522 0.0
H170 H 0.86131 0.75673 0.99226 0.0
Co171 Co 0.91092 0.77043 0.88155 0.0
C172 C 0.9654 0.80759 0.95148 0.0
O173 O 0.96522 0.82752 0.91353 0.0
N174 N 0.92461 0.78319 0.74976 0.0
C175 C 0.93669 0.80635 0.60776 0.0
C176 C 0.93575 0.80719 0.7118 0.0
C177 C 0.92012 0.76846 0.66665 0.0
N178 N 0.92665 0.78184 0.5799 0.0
O179 O 0.91031 0.73853 0.84774 0.0
H180 H 0.94068 0.82415 0.75515 0.0
H181 H 0.91078 0.74802 0.66773 0.0
O182 O 0.94598 0.78518 0.94024 0.0
C183 C 0.88825 0.71864 0.83479 0.0
O184 O 0.86795 0.71915 0.8668 0.0
N185 N 0.90788 0.7998 0.90968 0.0
C186 C 0.88933 0.83265 0.96001 0.0
C187 C 0.90604 0.82972 0.02468 0.0
C188 C 0.91502 0.81317 0.99823 0.0
C189 C 0.89173 0.80267 0.84567 0.0
C190 C 0.88278 0.81944 0.86805 0.0
H191 H 0.92599 0.80967 0.05255 0.0
H192 H 0.88466 0.79088 0.77887 0.0
H193 H 0.9273 0.7587 0.09614 0.0
H194 H 0.8569 0.74987 0.18608 0.0
H195 H 0.94237 0.8222 0.55648 0.0
H196 H 0.91107 0.83914 0.09741 0.0
H197 H 0.86955 0.82086 0.81689 0.0
C198 C 0.8131 0.61272 0.36318 0.0
C199 C 0.81453 0.61571 0.26002 0.0
N200 N 0.82393 0.60147 0.22197 0.0
N201 N 0.82188 0.59694 0.39001 0.0
C202 C 0.82911 0.59112 0.30208 0.0
H203 H 0.80408 0.61979 0.41394 0.0
Co204 Co 0.81815 0.58237 0.51853 0.0
C205 C 0.82922 0.54082 0.44432 0.0
O206 O 0.80474 0.5242 0.43975 0.0
N207 N 0.81492 0.56851 0.64903 0.0
C208 C 0.80941 0.54344 0.78143 0.0
C209 C 0.80919 0.54475 0.67766 0.0
C210 C 0.81812 0.58107 0.73706 0.0
N211 N 0.81522 0.56643 0.81766 0.0
O212 O 0.85071 0.61187 0.55929 0.0
H213 H 0.80453 0.52909 0.62728 0.0
H214 H 0.82208 0.60047 0.74352 0.0
O215 O 0.83641 0.56368 0.47391 0.0
C216 C 0.84664 0.62951 0.59114 0.0
O217 O 0.82306 0.62523 0.58832 0.0
N218 N 0.78412 0.55542 0.48194 0.0
C219 C 0.73213 0.52444 0.4319 0.0
C220 C 0.75119 0.52937 0.36139 0.0
C221 C 0.77688 0.54505 0.38726 0.0
C222 C 0.76546 0.55094 0.55088 0.0
C223 C 0.73949 0.53511 0.5283 0.0
H224 H 0.79075 0.54836 0.33006 0.0
H225 H 0.77043 0.56053 0.62299 0.0
H226 H 0.83491 0.57697 0.29476 0.0
H227 H 0.80674 0.62528 0.21577 0.0
H228 H 0.80539 0.52696 0.82671 0.0
H229 H 0.74621 0.52165 0.28571 0.0
H230 H 0.7252 0.53215 0.5842 0.0
C231 C 0.4192 0.20481 0.35784 0.0
C232 C 0.41631 0.20249 0.25454 0.0
N233 N 0.42796 0.22613 0.21502 0.0
N234 N 0.43239 0.22979 0.38292 0.0
C235 C 0.43689 0.24223 0.29396 0.0
H236 H 0.41365 0.18927 0.41041 0.0
Co237 Co 0.44545 0.24274 0.5115 0.0
C238 C 0.48242 0.29621 0.42913 0.0
O239 O 0.50186 0.29223 0.42825 0.0
N240 N 0.45769 0.25535 0.64132 0.0
C241 C 0.48037 0.27728 0.77536 0.0
C242 C 0.47962 0.27617 0.67143 0.0
C243 C 0.44559 0.24412 0.72808 0.0
N244 N 0.45885 0.25713 0.80989 0.0
O245 O 0.41417 0.24318 0.54277 0.0
H246 H 0.49447 0.28943 0.62192 0.0
H247 H 0.42767 0.22637 0.73215 0.0
O248 O 0.46078 0.27846 0.46099 0.0
C249 C 0.39656 0.22149 0.57437 0.0
O250 O 0.40126 0.20252 0.57781 0.0
N251 N 0.47489 0.23893 0.48411 0.0
C252 C 0.50672 0.21828 0.44338 0.0
C253 C 0.50151 0.23147 0.36891 0.0
C254 C 0.48577 0.24174 0.39079 0.0
C255 C 0.4804 0.22654 0.55785 0.0
C256 C 0.49681 0.21686 0.54009 0.0
H257 H 0.48176 0.2511 0.33046 0.0
H258 H 0.47083 0.22243 0.62974 0.0
H259 H 0.4489 0.26259 0.28513 0.0
H260 H 0.4083 0.18496 0.21141 0.0
H261 H 0.49558 0.29148 0.82193 0.0
H262 H 0.50876 0.23298 0.29302 0.0
H263 H 0.50019 0.20664 0.59964 0.0
C264 C 0.80147 0.18057 0.28613 0.0
C265 C 0.80162 0.17905 0.18228 0.0
N266 N 0.79446 0.19515 0.14519 0.0
N267 N 0.79437 0.19772 0.31414 0.0
C268 C 0.7904 0.2062 0.22516 0.0
H269 H 0.80545 0.16901 0.33652 0.0
Co270 Co 0.78681 0.20602 0.44344 0.0
C271 C 0.72911 0.1845 0.42757 0.0
O272 O 0.72784 0.19745 0.50467 0.0
N273 N 0.77903 0.21434 0.57353 0.0
C274 C 0.77748 0.23619 0.70722 0.0
C275 C 0.77929 0.23592 0.60391 0.0
C276 C 0.77643 0.20172 0.66129 0.0
N277 N 0.77631 0.2149 0.74283 0.0
O278 O 0.78461 0.1753 0.50136 0.0
H279 H 0.78247 0.25168 0.55643 0.0
H280 H 0.77629 0.18389 0.66776 0.0
O281 O 0.7506 0.18688 0.40215 0.0
C282 C 0.80632 0.17841 0.52933 0.0
O283 O 0.82711 0.19912 0.49982 0.0
N284 N 0.79235 0.23759 0.39177 0.0
C285 C 0.81073 0.28772 0.32621 0.0
C286 C 0.78438 0.27011 0.32656 0.0
C287 C 0.77548 0.24516 0.36154 0.0
C288 C 0.81796 0.25449 0.39103 0.0
C289 C 0.82754 0.27961 0.35917 0.0
H290 H 0.75521 0.23243 0.36624 0.0
H291 H 0.83105 0.24834 0.41646 0.0
H292 H 0.78416 0.21996 0.21726 0.0
H293 H 0.8059 0.16666 0.13772 0.0
H294 H 0.77924 0.25181 0.75305 0.0
H295 H 0.77083 0.2758 0.30225 0.0
H296 H 0.84799 0.29267 0.36033 0.0
C297 C 0.95348 0.4742 0.34276 0.0
C298 C 0.95769 0.47532 0.44538 0.0
N299 N 0.94648 0.48745 0.48766 0.0
N300 N 0.93972 0.48563 0.32048 0.0
C301 C 0.93716 0.49479 0.41023 0.0
H302 H 0.9584 0.46393 0.28897 0.0
Co303 Co 0.92587 0.48505 0.19137 0.0
C304 C 0.88818 0.4935 0.31251 0.0
O305 O 0.88251 0.47335 0.36732 0.0
N306 N 0.91441 0.4863 0.06112 0.0
C307 C 0.89515 0.49071 0.92532 0.0
C308 C 0.89502 0.48971 0.02938 0.0
C309 C 0.92613 0.48559 0.97542 0.0
N310 N 0.91492 0.48836 0.89239 0.0
O311 O 0.95525 0.51856 0.16617 0.0
H312 H 0.8815 0.4912 0.07815 0.0
H313 H 0.94244 0.4828 0.97315 0.0
O314 O 0.90538 0.50044 0.24399 0.0
C315 C 0.97337 0.51553 0.13226 0.0
O316 O 0.96974 0.49226 0.12767 0.0
N317 N 0.89736 0.4492 0.21127 0.0
C318 C 0.86358 0.39592 0.23257 0.0
C319 C 0.87708 0.41095 0.31486 0.0
C320 C 0.89352 0.43713 0.30289 0.0
C321 C 0.88367 0.43431 0.1303 0.0
C322 C 0.86644 0.40802 0.13981 0.0
H323 H 0.90293 0.44718 0.36997 0.0
H324 H 0.88624 0.44178 0.05526 0.0
H325 H 0.92756 0.50557 0.42092 0.0
H326 H 0.96617 0.46594 0.48651 0.0
H327 H 0.88194 0.4931 0.87759 0.0
H328 H 0.87527 0.4024 0.38844 0.0
H329 H 0.8563 0.397 0.07389 0.0
C330 C 0.56469 0.48125 0.3588 0.0
C331 C 0.56351 0.48047 0.46204 0.0
N332 N 0.54236 0.45876 0.48996 0.0
N333 N 0.54472 0.45976 0.32186 0.0
C334 C 0.53064 0.44716 0.4032 0.0
H335 H 0.58057 0.49509 0.3142 0.0
Co336 Co 0.54455 0.44685 0.19476 0.0
C337 C 0.5083 0.39064 0.2169 0.0
O338 O 0.49761 0.38931 0.12908 0.0
N339 N 0.54462 0.43389 0.06587 0.0
C340 C 0.5571 0.42149 0.92979 0.0
C341 C 0.55812 0.42293 0.0334 0.0
C342 C 0.53434 0.43735 0.98101 0.0
N343 N 0.54232 0.43088 0.89758 0.0
O344 O 0.51351 0.44767 0.16181 0.0
H345 H 0.56939 0.4178 0.081 0.0
H346 H 0.52262 0.44612 0.97787 0.0
O347 O 0.52632 0.41208 0.24876 0.0
C348 C 0.52236 0.4708 0.13294 0.0
O349 O 0.54742 0.48482 0.13238 0.0
N350 N 0.57663 0.44999 0.22472 0.0
C351 C 0.62696 0.46904 0.28926 0.0
C352 C 0.60669 0.44877 0.34048 0.0
C353 C 0.58157 0.43947 0.30677 0.0
C354 C 0.59629 0.46894 0.1716 0.0
C355 C 0.62163 0.47856 0.20192 0.0
H356 H 0.56614 0.42531 0.3512 0.0
H357 H 0.59216 0.47778 0.10897 0.0
H358 H 0.51348 0.42863 0.39953 0.0
H359 H 0.57808 0.49388 0.51298 0.0
H360 H 0.56738 0.41525 0.8816 0.0
H361 H 0.61014 0.4412 0.40898 0.0
H362 H 0.63683 0.49437 0.16115 0.0
C363 C 0.5458 0.06241 0.35556 0.0
C364 C 0.54528 0.06038 0.45932 0.0
N365 N 0.56585 0.08126 0.49619 0.0
N366 N 0.56665 0.08449 0.32746 0.0
C367 C 0.5785 0.09534 0.41544 0.0
H368 H 0.5311 0.04918 0.30518 0.0
Co369 Co 0.57561 0.09995 0.19958 0.0
C370 C 0.63267 0.13503 0.21734 0.0
O371 O 0.63189 0.15244 0.16069 0.0
N372 N 0.5847 0.11582 0.06921 0.0
C373 C 0.58893 0.14015 0.93527 0.0
C374 C 0.58689 0.13824 0.03866 0.0
C375 C 0.58655 0.10515 0.982 0.0
N376 N 0.588 0.11891 0.89993 0.0
O377 O 0.57519 0.06987 0.1443 0.0
H378 H 0.58589 0.15208 0.08702 0.0
H379 H 0.58544 0.08686 0.97635 0.0
O380 O 0.61182 0.1146 0.23733 0.0
C381 C 0.55354 0.05316 0.10763 0.0
O382 O 0.53387 0.05657 0.11981 0.0
N383 N 0.5724 0.12735 0.25118 0.0
C384 C 0.55551 0.16014 0.32059 0.0
C385 C 0.57986 0.16427 0.34711 0.0
C386 C 0.58814 0.14778 0.31045 0.0
C387 C 0.54868 0.12304 0.22598 0.0
C388 C 0.5401 0.13941 0.25789 0.0
H389 H 0.60675 0.15109 0.33255 0.0
H390 H 0.53631 0.10663 0.18015 0.0
H391 H 0.59547 0.11388 0.42139 0.0
H392 H 0.53025 0.04557 0.50441 0.0
H393 H 0.58891 0.15492 0.88917 0.0
H394 H 0.59219 0.17992 0.39648 0.0
H395 H 0.52118 0.13548 0.23603 0.0
C396 C 0.47247 0.93736 0.65742 0.0
C397 C 0.47378 0.94201 0.55595 0.0
N398 N 0.49111 0.93687 0.51335 0.0
N399 N 0.48808 0.92834 0.68091 0.0
C400 C 0.49889 0.92791 0.59207 0.0
H401 H 0.45919 0.93829 0.70948 0.0
Co402 Co 0.48731 0.91484 0.80914 0.0
C403 C 0.50322 0.87693 0.73628 0.0
O404 O 0.47975 0.85771 0.743 0.0
N405 N 0.4865 0.90228 0.94053 0.0
C406 C 0.4832 0.88018 0.08021 0.0
C407 C 0.4828 0.8797 0.97587 0.0
C408 C 0.48885 0.91588 0.02474 0.0
N409 N 0.48736 0.9032 0.11021 0.0
O410 O 0.51896 0.9458 0.84448 0.0
H411 H 0.47949 0.86364 0.92983 0.0
H412 H 0.49106 0.9347 0.02457 0.0
O413 O 0.50758 0.89926 0.76014 0.0
C414 C 0.51511 0.96392 0.87082 0.0
O415 O 0.49176 0.96015 0.86454 0.0
N416 N 0.45465 0.88592 0.77693 0.0
C417 C 0.40318 0.85427 0.7236 0.0
C418 C 0.42266 0.85951 0.65438 0.0
C419 C 0.44823 0.87539 0.68233 0.0
C420 C 0.43572 0.88049 0.8455 0.0
C421 C 0.40998 0.86431 0.82118 0.0
H422 H 0.46276 0.88 0.62597 0.0
H423 H 0.44023 0.89 0.91777 0.0
H424 H 0.50998 0.91855 0.5838 0.0
H425 H 0.46073 0.9464 0.51754 0.0
H426 H 0.48072 0.86493 0.13004 0.0
H427 H 0.4181 0.85231 0.5779 0.0
H428 H 0.39539 0.86101 0.87611 0.0
C429 C 0.0692 0.55588 0.66229 0.0
C430 C 0.0676 0.55646 0.55845 0.0
N431 N 0.09151 0.56811 0.52185 0.0
N432 N 0.09406 0.567 0.69032 0.0
C433 C 0.10699 0.57414 0.60216 0.0
H434 H 0.05309 0.54739 0.71291 0.0
Co435 Co 0.10953 0.57221 0.81872 0.0
C436 C 0.14711 0.62976 0.81865 0.0
O437 O 0.15803 0.62974 0.90435 0.0
N438 N 0.12513 0.57736 0.94923 0.0
C439 C 0.14513 0.57321 0.08402 0.0
C440 C 0.14265 0.57107 0.981 0.0
C441 C 0.11737 0.58322 0.03619 0.0
N442 N 0.12844 0.57987 0.11878 0.0
O443 O 0.08202 0.57594 0.87846 0.0
H444 H 0.15145 0.56289 0.9352 0.0
H445 H 0.10233 0.58789 0.04098 0.0
O446 O 0.12888 0.60883 0.78367 0.0
C447 C 0.06354 0.55481 0.91115 0.0
O448 O 0.06383 0.53367 0.89112 0.0
N449 N 0.13454 0.56564 0.76282 0.0
C450 C 0.16598 0.54709 0.69539 0.0
C451 C 0.17645 0.57287 0.72188 0.0
C452 C 0.16034 0.58185 0.75529 0.0
C453 C 0.12417 0.54062 0.7362 0.0
C454 C 0.13947 0.53102 0.70125 0.0
H455 H 0.16885 0.60128 0.7813 0.0
H456 H 0.10381 0.52788 0.74417 0.0
H457 H 0.12738 0.58245 0.59554 0.0
H458 H 0.05034 0.54837 0.51332 0.0
H459 H 0.15602 0.56733 0.13054 0.0
H460 H 0.19693 0.58568 0.71993 0.0
H461 H 0.13078 0.51097 0.68211 0.0
C462 C 0.49168 0.56088 0.66808 0.0
C463 C 0.49503 0.56169 0.56512 0.0
N464 N 0.47295 0.5438 0.52342 0.0
N465 N 0.4676 0.54262 0.69082 0.0
C466 C 0.45695 0.53201 0.60113 0.0
H467 H 0.50519 0.57422 0.72209 0.0
Co468 Co 0.45251 0.53959 0.81706 0.0
C469 C 0.39773 0.52119 0.74272 0.0
O470 O 0.3973 0.54066 0.78446 0.0
N471 N 0.43868 0.53693 0.94756 0.0
C472 C 0.41494 0.52652 0.08746 0.0
C473 C 0.41456 0.52667 0.98363 0.0
C474 C 0.45327 0.54293 0.03187 0.0
N475 N 0.43934 0.53661 0.11693 0.0
O476 O 0.45425 0.5089 0.84501 0.0
H477 H 0.39744 0.51883 0.93953 0.0
H478 H 0.4738 0.5513 0.03166 0.0
O479 O 0.41743 0.51854 0.75381 0.0
C480 C 0.47628 0.51616 0.88295 0.0
O481 O 0.49217 0.54093 0.88633 0.0
N482 N 0.45419 0.57154 0.7941 0.0
C483 C 0.47099 0.62249 0.74219 0.0
C484 C 0.4528 0.60237 0.6833 0.0
C485 C 0.44539 0.5772 0.7086 0.0
C486 C 0.47104 0.59096 0.85501 0.0
C487 C 0.47979 0.61659 0.83027 0.0
H488 H 0.43413 0.56258 0.65514 0.0
H489 H 0.47944 0.58681 0.91893 0.0
H490 H 0.43737 0.51702 0.59175 0.0
H491 H 0.51146 0.57581 0.5236 0.0
H492 H 0.3986 0.51892 0.13737 0.0
H493 H 0.44599 0.6062 0.61349 0.0
H494 H 0.49423 0.63164 0.87668 0.0
C495 C 0.61862 0.80592 0.67802 0.0
C496 C 0.61976 0.80673 0.78177 0.0
N497 N 0.60505 0.81609 0.81493 0.0
N498 N 0.60359 0.81515 0.64563 0.0
C499 C 0.5958 0.82136 0.73154 0.0
H500 H 0.62592 0.79647 0.63089 0.0
Co501 Co 0.58895 0.81053 0.51648 0.0
C502 C 0.56738 0.84559 0.52257 0.0
O503 O 0.57642 0.85491 0.43284 0.0
N504 N 0.57362 0.80552 0.38765 0.0
C505 C 0.54583 0.7917 0.25956 0.0
C506 C 0.54854 0.79177 0.36292 0.0
C507 C 0.5855 0.81413 0.2981 0.0
N508 N 0.56928 0.80558 0.21947 0.0
O509 O 0.61863 0.84202 0.46773 0.0
H510 H 0.53314 0.78176 0.41609 0.0
H511 H 0.60564 0.82671 0.28918 0.0
O512 O 0.57108 0.82826 0.56006 0.0
C513 C 0.63766 0.83926 0.44287 0.0
O514 O 0.63685 0.81782 0.46649 0.0
N515 N 0.5621 0.7787 0.55947 0.0
C516 C 0.52518 0.72765 0.60573 0.0
C517 C 0.52583 0.74863 0.65642 0.0
C518 C 0.544 0.77386 0.63073 0.0
C519 C 0.56399 0.75911 0.51888 0.0
C520 C 0.54632 0.73382 0.54238 0.0
H521 H 0.54389 0.78937 0.67044 0.0
H522 H 0.57964 0.76325 0.4683 0.0
H523 H 0.58147 0.82706 0.73456 0.0
H524 H 0.62838 0.79852 0.82929 0.0
H525 H 0.52824 0.78144 0.21695 0.0
H526 H 0.51339 0.74632 0.71844 0.0
H527 H 0.54995 0.71941 0.51161 0.0
C528 C 0.23486 0.81888 0.69368 0.0
C529 C 0.23573 0.82183 0.79687 0.0
N530 N 0.21675 0.80021 0.83679 0.0
N531 N 0.21571 0.79533 0.66941 0.0
C532 C 0.20447 0.78478 0.75811 0.0
H533 H 0.24853 0.83226 0.64044 0.0
Co534 Co 0.2113 0.78027 0.54302 0.0
C535 C 0.19582 0.72569 0.59279 0.0
O536 O 0.21245 0.72678 0.52625 0.0
N537 N 0.20666 0.76611 0.41285 0.0
C538 C 0.18477 0.74428 0.27698 0.0
C539 C 0.18578 0.74451 0.38068 0.0
C540 C 0.21771 0.7789 0.32666 0.0
N541 N 0.20484 0.766 0.24365 0.0
O542 O 0.17917 0.77956 0.52625 0.0
H543 H 0.17054 0.73123 0.42905 0.0
H544 H 0.23291 0.79851 0.32381 0.0
O545 O 0.1934 0.7454 0.60641 0.0
C546 C 0.18322 0.79975 0.48003 0.0
O547 O 0.207 0.81726 0.46121 0.0
N548 N 0.24444 0.78385 0.55662 0.0
C549 C 0.29633 0.80258 0.59915 0.0
C550 C 0.27735 0.78201 0.6534 0.0
C551 C 0.25155 0.77307 0.6315 0.0
C552 C 0.2629 0.8038 0.50289 0.0
C553 C 0.28888 0.81305 0.52114 0.0
H554 H 0.23765 0.75893 0.68061 0.0
H555 H 0.25771 0.81441 0.45251 0.0
H556 H 0.18844 0.76567 0.7659 0.0
H557 H 0.25028 0.83772 0.83965 0.0
H558 H 0.1694 0.73039 0.23013 0.0
H559 H 0.28239 0.77393 0.71622 0.0
H560 H 0.30302 0.82954 0.47986 0.0
C561 C 0.20763 0.41251 0.64602 0.0
C562 C 0.20602 0.40978 0.74925 0.0
N563 N 0.22963 0.41753 0.78559 0.0
N564 N 0.23203 0.42139 0.61682 0.0
C565 C 0.24472 0.42337 0.7035 0.0
H566 H 0.19249 0.41064 0.59679 0.0
Co567 Co 0.24511 0.43581 0.48965 0.0
C568 C 0.29998 0.47458 0.55106 0.0
O569 O 0.29821 0.49371 0.51402 0.0
N570 N 0.25796 0.45026 0.35967 0.0
C571 C 0.27082 0.47574 0.22453 0.0
C572 C 0.26825 0.47472 0.32778 0.0
C573 C 0.2548 0.43703 0.27322 0.0
N574 N 0.26169 0.45182 0.19026 0.0
O575 O 0.24553 0.40504 0.4484 0.0
H576 H 0.2714 0.49068 0.37419 0.0
H577 H 0.24654 0.41669 0.26916 0.0
O578 O 0.281 0.45169 0.54433 0.0
C579 C 0.2232 0.38645 0.42664 0.0
O580 O 0.20323 0.38853 0.45037 0.0
N581 N 0.24065 0.46366 0.52499 0.0
C582 C 0.22139 0.49557 0.57843 0.0
C583 C 0.24067 0.49515 0.63602 0.0
C584 C 0.24965 0.4786 0.60919 0.0
C585 C 0.22201 0.46408 0.46805 0.0
C586 C 0.21228 0.48002 0.49282 0.0
H587 H 0.26273 0.47689 0.65902 0.0
H588 H 0.21388 0.45112 0.4049 0.0
H589 H 0.26497 0.43054 0.70763 0.0
H590 H 0.1895 0.40552 0.79485 0.0
H591 H 0.27641 0.49235 0.17754 0.0
H592 H 0.24769 0.50646 0.70417 0.0
H593 H 0.19704 0.47949 0.44773 0.0
C594 C 0.1721 0.25605 0.60659 0.0
C595 C 0.14895 0.23959 0.55624 0.0
C596 C 0.12494 0.23604 0.70946 0.0
C597 C 0.14783 0.255 0.75608 0.0
N598 N 0.19273 0.28542 0.74561 0.0
N599 N 0.10309 0.2161 0.55324 0.0
C600 C 0.17134 0.26564 0.70358 0.0
C601 C 0.12526 0.23029 0.60581 0.0
N602 N 0.19474 0.26179 0.56254 0.0
N603 N 0.10331 0.22246 0.76556 0.0
H604 H 0.10287 0.21107 0.47781 0.0
H605 H 0.08512 0.21098 0.58202 0.0
H606 H 0.10264 0.22515 0.84276 0.0
H607 H 0.08677 0.20676 0.73792 0.0
H608 H 0.21231 0.27167 0.59927 0.0
H609 H 0.19563 0.25481 0.49161 0.0
H610 H 0.21 0.29564 0.70735 0.0
H611 H 0.19251 0.29299 0.81607 0.0
C612 C 0.76684 0.89385 0.59378 0.0
C613 C 0.78367 0.91969 0.56719 0.0
C614 C 0.78899 0.93121 0.74543 0.0
C615 C 0.76961 0.90588 0.77071 0.0
N616 N 0.73445 0.86604 0.71165 0.0
N617 N 0.80412 0.9639 0.61696 0.0
C618 C 0.7566 0.88819 0.69223 0.0
C619 C 0.79257 0.93872 0.64279 0.0
N620 N 0.76202 0.87451 0.52845 0.0
N621 N 0.80536 0.94757 0.81636 0.0
H622 H 0.80588 0.96993 0.54224 0.0
H623 H 0.80914 0.97836 0.67009 0.0
H624 H 0.80572 0.9424 0.89057 0.0
H625 H 0.82085 0.96539 0.79815 0.0
H626 H 0.75115 0.85533 0.54853 0.0
H627 H 0.77158 0.87752 0.46005 0.0
H628 H 0.72344 0.85335 0.65479 0.0
H629 H 0.72577 0.86204 0.78244 0.0
C630 C 0.13967 0.88774 0.7062 0.0
C631 C 0.12176 0.86402 0.74878 0.0
C632 C 0.09527 0.85353 0.59685 0.0
C633 C 0.11445 0.8761 0.55013 0.0
N634 N 0.15792 0.91146 0.55304 0.0
N635 N 0.08478 0.82252 0.73106 0.0
C636 C 0.13749 0.89244 0.60287 0.0
C637 C 0.10017 0.84635 0.69287 0.0
N638 N 0.1585 0.90597 0.76521 0.0
N639 N 0.07209 0.83951 0.55071 0.0
H640 H 0.08839 0.81692 0.80076 0.0
H641 H 0.0699 0.80784 0.69056 0.0
H642 H 0.0678 0.84481 0.48175 0.0
H643 H 0.0565 0.82408 0.58478 0.0
H644 H 0.17042 0.92466 0.74112 0.0
H645 H 0.16069 0.90302 0.84119 0.0
H646 H 0.17588 0.92231 0.58599 0.0
H647 H 0.15797 0.91443 0.47569 0.0
C648 C 0.24009 0.12085 0.38564 0.0
C649 C 0.24564 0.14359 0.43691 0.0
C650 C 0.2709 0.16841 0.29099 0.0
C651 C 0.26242 0.14543 0.23612 0.0
N652 N 0.23197 0.10036 0.22358 0.0
N653 N 0.26349 0.18914 0.43358 0.0
C654 C 0.24495 0.12179 0.28117 0.0
C655 C 0.26033 0.16751 0.38822 0.0
N656 N 0.23139 0.09851 0.43733 0.0
N657 N 0.28946 0.19088 0.25124 0.0
H658 H 0.2555 0.18884 0.50361 0.0
H659 H 0.27208 0.20688 0.3982 0.0
H660 H 0.29758 0.19188 0.18081 0.0
H661 H 0.29818 0.20799 0.29129 0.0
H662 H 0.22902 0.08189 0.4036 0.0
H663 H 0.22977 0.09743 0.51566 0.0
H664 H 0.21747 0.08315 0.2525 0.0
H665 H 0.23337 0.10067 0.14529 0.0
C666 C 0.85956 0.12299 0.4558 0.0
C667 C 0.86797 0.10561 0.48119 0.0
C668 C 0.85461 0.08586 0.31426 0.0
C669 C 0.85162 0.10667 0.28296 0.0
N670 N 0.83363 0.13184 0.34206 0.0
N671 N 0.87248 0.06952 0.43816 0.0
C672 C 0.84877 0.12144 0.35927 0.0
C673 C 0.86498 0.08657 0.41159 0.0
N674 N 0.86292 0.14167 0.52211 0.0
N675 N 0.84414 0.06409 0.25798 0.0
H676 H 0.87937 0.06928 0.51017 0.0
H677 H 0.87327 0.05682 0.3872 0.0
H678 H 0.83174 0.06135 0.19827 0.0
H679 H 0.84424 0.04759 0.2797 0.0
H680 H 0.85943 0.15639 0.50349 0.0
H681 H 0.87107 0.14355 0.59311 0.0
H682 H 0.82961 0.14171 0.39661 0.0
H683 H 0.82258 0.12765 0.27666 0.0
C684 C 0.92438 0.75588 0.31757 0.0
C685 C 0.8997 0.7506 0.28576 0.0
C686 C 0.89172 0.76145 0.45477 0.0
C687 C 0.91773 0.77121 0.48047 0.0
N688 N 0.95863 0.77593 0.44195 0.0
N689 N 0.85694 0.7309 0.35147 0.0
C690 C 0.93404 0.76781 0.41338 0.0
C691 C 0.88228 0.74828 0.3622 0.0
N692 N 0.9367 0.74607 0.26379 0.0
N693 N 0.87606 0.7652 0.51777 0.0
H694 H 0.85029 0.71793 0.29161 0.0
H695 H 0.84355 0.72687 0.40829 0.0
H696 H 0.88233 0.7749 0.58618 0.0
H697 H 0.8575 0.76045 0.49783 0.0
H698 H 0.95425 0.74806 0.28414 0.0
H699 H 0.92728 0.73251 0.20734 0.0
H700 H 0.97221 0.77559 0.39483 0.0
H701 H 0.96572 0.78414 0.51244 0.0
C702 C 0.79702 0.57728 0.07588 0.0
C703 C 0.82161 0.59262 0.11952 0.0
C704 C 0.84145 0.58687 0.96833 0.0
C705 C 0.81718 0.57407 0.92127 0.0
N706 N 0.77224 0.5595 0.92303 0.0
N707 N 0.86734 0.61428 0.10542 0.0
C708 C 0.79505 0.56998 0.97309 0.0
C709 C 0.8439 0.59797 0.06518 0.0
N710 N 0.77561 0.5686 0.13395 0.0
N711 N 0.86193 0.58787 0.92069 0.0
H712 H 0.86951 0.62272 0.1761 0.0
H713 H 0.88441 0.62095 0.06608 0.0
H714 H 0.86049 0.58005 0.84916 0.0
H715 H 0.87978 0.59478 0.95437 0.0
H716 H 0.75739 0.55521 0.10905 0.0
H717 H 0.77622 0.57286 0.21026 0.0
H718 H 0.75587 0.55858 0.95296 0.0
H719 H 0.7702 0.55335 0.8483 0.0
C720 C 0.42634 0.24781 0.06015 0.0
C721 C 0.43526 0.23326 0.11158 0.0
C722 C 0.45938 0.23402 0.96184 0.0
C723 C 0.45172 0.24988 0.91304 0.0
N724 N 0.43171 0.27553 0.91852 0.0
N725 N 0.46471 0.21732 0.12024 0.0
C726 C 0.43628 0.25787 0.96319 0.0
C727 C 0.45296 0.22756 0.06478 0.0
N728 N 0.40784 0.25135 0.10345 0.0
N729 N 0.47257 0.22496 0.90899 0.0
H730 H 0.46119 0.21316 0.1967 0.0
H731 H 0.47968 0.21516 0.09306 0.0
H732 H 0.47822 0.23013 0.83432 0.0
H733 H 0.47634 0.21106 0.93666 0.0
H734 H 0.39874 0.2598 0.06649 0.0
H735 H 0.40016 0.24392 0.17415 0.0
H736 H 0.42264 0.28411 0.95461 0.0
H737 H 0.43868 0.28293 0.84702 0.0
C738 C 0.80541 0.22526 0.88899 0.0
C739 C 0.78083 0.21011 0.8451 0.0
C740 C 0.76613 0.1834 0.99682 0.0
C741 C 0.79033 0.19923 0.04182 0.0
N742 N 0.83187 0.23669 0.03954 0.0
N743 N 0.73717 0.17659 0.85708 0.0
C744 C 0.80964 0.22061 0.99022 0.0
C745 C 0.76101 0.18955 0.89902 0.0
N746 N 0.82495 0.24332 0.83217 0.0
N747 N 0.74817 0.16264 0.04867 0.0
H748 H 0.73311 0.18108 0.78595 0.0
H749 H 0.7211 0.16249 0.89385 0.0
H750 H 0.75131 0.15837 0.1217 0.0
H751 H 0.73066 0.14902 0.01886 0.0
H752 H 0.84388 0.25336 0.85615 0.0
H753 H 0.8228 0.24678 0.75688 0.0
H754 H 0.84566 0.25434 0.01157 0.0
H755 H 0.83586 0.23299 0.11217 0.0
C756 C 0.91647 0.46447 0.74465 0.0
C757 C 0.92242 0.48798 0.78968 0.0
C758 C 0.94739 0.51096 0.64101 0.0
C759 C 0.93984 0.48739 0.59236 0.0
N760 N 0.91305 0.44138 0.59143 0.0
N761 N 0.93982 0.53328 0.77657 0.0
C762 C 0.9234 0.46399 0.64261 0.0
C763 C 0.93677 0.51116 0.73644 0.0
N764 N 0.90404 0.44251 0.79978 0.0
N765 N 0.9654 0.53309 0.59679 0.0
H766 H 0.93278 0.53405 0.84746 0.0
H767 H 0.94778 0.55046 0.73719 0.0
H768 H 0.97382 0.53329 0.52787 0.0
H769 H 0.97361 0.55082 0.63216 0.0
H770 H 0.90201 0.42516 0.7764 0.0
H771 H 0.897 0.44199 0.87201 0.0
H772 H 0.89855 0.42421 0.62028 0.0
H773 H 0.91731 0.43982 0.5169 0.0
C774 C 0.53062 0.41747 0.72086 0.0
C775 C 0.53904 0.43669 0.79534 0.0
C776 C 0.53924 0.46616 0.66941 0.0
C777 C 0.5368 0.44906 0.59181 0.0
N778 N 0.5338 0.40856 0.5468 0.0
N779 N 0.55681 0.48156 0.83438 0.0
C780 C 0.53311 0.42452 0.61777 0.0
C781 C 0.54459 0.46167 0.76857 0.0
N782 N 0.52005 0.39249 0.74865 0.0
N783 N 0.53686 0.48691 0.64756 0.0
H784 H 0.56388 0.47987 0.90387 0.0
H785 H 0.56283 0.5004 0.81439 0.0
H786 H 0.53214 0.4901 0.57533 0.0
H787 H 0.53672 0.49905 0.70304 0.0
H788 H 0.51153 0.37747 0.69722 0.0
H789 H 0.51729 0.38679 0.82402 0.0
H790 H 0.53396 0.39189 0.56533 0.0
H791 H 0.53665 0.41275 0.47071 0.0
C792 C 0.59183 0.09078 0.65109 0.0
C793 C 0.5708 0.08973 0.59949 0.0
C794 C 0.5595 0.10507 0.75047 0.0
C795 C 0.58238 0.10929 0.79794 0.0
N796 N 0.62192 0.10891 0.79007 0.0
N797 N 0.53741 0.10037 0.59265 0.0
C798 C 0.599 0.10282 0.74729 0.0
C799 C 0.55541 0.09816 0.6471 0.0
N800 N 0.60442 0.07966 0.60876 0.0
N801 N 0.54101 0.10622 0.80545 0.0
H802 H 0.53423 0.09589 0.51614 0.0
H803 H 0.52741 0.10891 0.62107 0.0
H804 H 0.54251 0.10951 0.88294 0.0
H805 H 0.52298 0.10095 0.77656 0.0
H806 H 0.61853 0.0777 0.64603 0.0
H807 H 0.59917 0.07051 0.53885 0.0
H808 H 0.63598 0.10685 0.75307 0.0
H809 H 0.62769 0.11805 0.85981 0.0
C810 C 0.51377 0.92869 0.37106 0.0
C811 C 0.49526 0.9349 0.40545 0.0
C812 C 0.47379 0.92265 0.24216 0.0
C813 C 0.48987 0.91312 0.21144 0.0
N814 N 0.52737 0.90962 0.24108 0.0
N815 N 0.47338 0.95587 0.33943 0.0
C816 C 0.51059 0.9169 0.27439 0.0
C817 C 0.4795 0.93711 0.33178 0.0
N818 N 0.53594 0.93738 0.42436 0.0
N819 N 0.45271 0.91756 0.18684 0.0
H820 H 0.48227 0.97048 0.39259 0.0
H821 H 0.46334 0.95932 0.28341 0.0
H822 H 0.4471 0.90589 0.12309 0.0
H823 H 0.43956 0.92282 0.21103 0.0
H824 H 0.55116 0.93507 0.40219 0.0
H825 H 0.54031 0.94989 0.48507 0.0
H826 H 0.54099 0.90888 0.28687 0.0
H827 H 0.52719 0.90352 0.16747 0.0
C828 C 0.10047 0.55022 0.37124 0.0
C829 C 0.09949 0.57063 0.41846 0.0
C830 C 0.1199 0.59789 0.27151 0.0
C831 C 0.11897 0.57682 0.22075 0.0
N832 N 0.10376 0.53145 0.21532 0.0
N833 N 0.10583 0.61302 0.41418 0.0
C834 C 0.10812 0.55256 0.26886 0.0
C835 C 0.10846 0.59424 0.36845 0.0
N836 N 0.09466 0.5288 0.42555 0.0
N837 N 0.13266 0.62152 0.22829 0.0
H838 H 0.09796 0.61078 0.48605 0.0
H839 H 0.10978 0.62998 0.37895 0.0
H840 H 0.14162 0.62468 0.15832 0.0
H841 H 0.13612 0.63821 0.26451 0.0
H842 H 0.09797 0.51446 0.39965 0.0
H843 H 0.08838 0.5263 0.50011 0.0
H844 H 0.09366 0.51296 0.24379 0.0
H845 H 0.10747 0.53181 0.13855 0.0
C846 C 0.46212 0.52177 0.35883 0.0
C847 C 0.46548 0.5425 0.41932 0.0
C848 C 0.45368 0.56035 0.2765 0.0
C849 C 0.44854 0.53873 0.21852 0.0
N850 N 0.4456 0.49783 0.20286 0.0
N851 N 0.46166 0.57997 0.44164 0.0
C852 C 0.45221 0.51913 0.25925 0.0
C853 C 0.4606 0.56147 0.37956 0.0
N854 N 0.46892 0.50502 0.39677 0.0
N855 N 0.45236 0.58 0.23168 0.0
H856 H 0.46696 0.58149 0.51702 0.0
H857 H 0.45568 0.59274 0.42085 0.0
H858 H 0.44684 0.57931 0.15659 0.0
H859 H 0.45841 0.59759 0.266 0.0
H860 H 0.4691 0.49059 0.35473 0.0
H861 H 0.47605 0.50667 0.46983 0.0
H862 H 0.44577 0.48175 0.22962 0.0
H863 H 0.43842 0.49572 0.12978 0.0
C864 C 0.57227 0.78625 0.0593 0.0
C865 C 0.57658 0.80807 0.1148 0.0
C866 C 0.6009 0.8355 0.97282 0.0
C867 C 0.59493 0.81349 0.91533 0.0
N868 N 0.56926 0.76794 0.89419 0.0
N869 N 0.59119 0.85299 0.1202 0.0
C870 C 0.57887 0.78883 0.9557 0.0
C871 C 0.58982 0.83263 0.07012 0.0
N872 N 0.56325 0.7633 0.10681 0.0
N873 N 0.61772 0.85902 0.93515 0.0
H874 H 0.58275 0.85116 0.19062 0.0
H875 H 0.59867 0.8711 0.08868 0.0
H876 H 0.62594 0.86147 0.8639 0.0
H877 H 0.62487 0.87581 0.97683 0.0
H878 H 0.56217 0.74736 0.07196 0.0
H879 H 0.55935 0.76087 0.1838 0.0
H880 H 0.55548 0.74974 0.91757 0.0
H881 H 0.573 0.76925 0.81704 0.0
C882 C 0.22201 0.76866 0.07303 0.0
C883 C 0.20872 0.77559 0.14198 0.0
C884 C 0.20025 0.79845 0.00817 0.0
C885 C 0.21456 0.7925 0.9406 0.0
N886 N 0.24316 0.77637 0.91097 0.0
N887 N 0.18873 0.8003 0.18172 0.0
C888 C 0.22663 0.77883 0.97375 0.0
C889 C 0.19887 0.79149 0.11138 0.0
N890 N 0.22988 0.75207 0.10274 0.0
N891 N 0.18756 0.81025 0.97252 0.0
H892 H 0.18742 0.79529 0.2574 0.0
H893 H 0.18352 0.81399 0.16692 0.0
H894 H 0.18881 0.81591 0.89738 0.0
H895 H 0.17465 0.81297 0.01509 0.0
H896 H 0.23726 0.74398 0.05352 0.0
H897 H 0.22748 0.74514 0.17635 0.0
H898 H 0.25439 0.76861 0.93288 0.0
H899 H 0.24717 0.78404 0.83855 0.0
C900 C 0.25224 0.41713 0.9422 0.0
C901 C 0.23833 0.42632 0.88727 0.0
C902 C 0.23717 0.44932 0.03688 0.0
C903 C 0.25379 0.44294 0.08817 0.0
N904 N 0.28018 0.42357 0.08489 0.0
N905 N 0.22508 0.45786 0.87492 0.0
C906 C 0.2622 0.42756 0.03944 0.0
C907 C 0.23299 0.44439 0.93241 0.0
N908 N 0.25528 0.39801 0.90257 0.0
N909 N 0.2243 0.4589 0.08857 0.0
H910 H 0.22382 0.45635 0.79672 0.0
H911 H 0.22301 0.47277 0.90367 0.0
H912 H 0.22508 0.46073 0.16684 0.0
H913 H 0.21039 0.46189 0.05501 0.0
H914 H 0.26319 0.38882 0.94269 0.0
H915 H 0.24789 0.38993 0.83225 0.0
H916 H 0.2888 0.41444 0.0495 0.0
H917 H 0.28804 0.4314 0.15502 0.0
C918 C 0.20582 0.36236 0.26343 0.0
C919 C 0.21902 0.36531 0.35642 0.0
C920 C 0.213 0.32213 0.33505 0.0
C921 C 0.19846 0.31898 0.24643 0.0
N922 N 0.19064 0.33903 0.10606 0.0
N923 N 0.24056 0.35067 0.46771 0.0
C924 C 0.19836 0.34027 0.20382 0.0
C925 C 0.22476 0.34618 0.38705 0.0
N926 N 0.19893 0.37978 0.23416 0.0
N927 N 0.21441 0.30183 0.37204 0.0
H928 H 0.24861 0.36764 0.50874 0.0
H929 H 0.2472 0.33852 0.48993 0.0
H930 H 0.20678 0.28449 0.33388 0.0
H931 H 0.22281 0.30198 0.44064 0.0
H932 H 0.18664 0.37677 0.17392 0.0
H933 H 0.2039 0.39654 0.27326 0.0
H934 H 0.19236 0.35472 0.06669 0.0
H935 H 0.1852 0.32287 0.06142 0.0
C936 C 0.69983 0.89597 0.34534 0.0
C937 C 0.70327 0.88523 0.2555 0.0
C938 C 0.66146 0.84712 0.27774 0.0
C939 C 0.65813 0.85689 0.37126 0.0
N940 N 0.67139 0.89309 0.48141 0.0
N941 N 0.68333 0.85681 0.11668 0.0
C942 C 0.67628 0.88233 0.40017 0.0
C943 C 0.68248 0.863 0.21511 0.0
N944 N 0.71944 0.91847 0.3807 0.0
N945 N 0.64566 0.82221 0.25056 0.0
H946 H 0.69878 0.8684 0.07007 0.0
H947 H 0.66775 0.84207 0.07921 0.0
H948 H 0.62991 0.80922 0.29215 0.0
H949 H 0.64935 0.81371 0.18944 0.0
H950 H 0.71979 0.92573 0.45219 0.0
H951 H 0.7358 0.92973 0.3383 0.0
H952 H 0.68268 0.91219 0.50156 0.0
H953 H 0.65491 0.88333 0.52493 0.0
C954 C 0.16469 0.82801 0.47923 0.0
C955 C 0.16267 0.80492 0.44688 0.0
C956 C 0.13835 0.80467 0.29746 0.0
C957 C 0.14452 0.83014 0.32056 0.0
N958 N 0.16278 0.86583 0.43717 0.0
N959 N 0.14016 0.76678 0.34837 0.0
C960 C 0.15692 0.84149 0.4138 0.0
C961 C 0.14678 0.79165 0.36383 0.0
N962 N 0.17401 0.8368 0.57374 0.0
N963 N 0.12653 0.79388 0.20818 0.0
H964 H 0.14577 0.7571 0.39783 0.0
H965 H 0.12749 0.75513 0.29296 0.0
H966 H 0.12025 0.80282 0.15789 0.0
H967 H 0.12399 0.77665 0.18086 0.0
H968 H 0.17386 0.85222 0.60785 0.0
H969 H 0.17952 0.82676 0.62214 0.0
H970 H 0.17484 0.87638 0.49609 0.0
H971 H 0.15672 0.87625 0.39463 0.0
C972 C 0.34972 0.19539 0.55815 0.0
C973 C 0.37065 0.21612 0.60597 0.0
C974 C 0.34243 0.2126 0.7467 0.0
C975 C 0.32349 0.18836 0.70946 0.0
N976 N 0.31023 0.1558 0.57921 0.0
N977 N 0.38706 0.24638 0.742 0.0
C978 C 0.32723 0.17968 0.61416 0.0
C979 C 0.36689 0.22571 0.69818 0.0
N980 N 0.35171 0.19053 0.45898 0.0
N981 N 0.33737 0.22259 0.83004 0.0
H982 H 0.40462 0.25692 0.70587 0.0
H983 H 0.38662 0.2527 0.81452 0.0
H984 H 0.32009 0.21305 0.86884 0.0
H985 H 0.34942 0.24102 0.85642 0.0
H986 H 0.33633 0.17713 0.41629 0.0
H987 H 0.36817 0.20205 0.41705 0.0
H988 H 0.31375 0.14763 0.51656 0.0
H989 H 0.29339 0.14316 0.61605 0.0
C990 C 0.82592 0.16014 0.77514 0.0
C991 C 0.82478 0.13715 0.74694 0.0
C992 C 0.80143 0.13642 0.59292 0.0
C993 C 0.80878 0.16244 0.61005 0.0
N994 N 0.82905 0.19943 0.71997 0.0
N995 N 0.80642 0.10016 0.64006 0.0
C996 C 0.82097 0.17427 0.70253 0.0
C997 C 0.81057 0.12404 0.65978 0.0
N998 N 0.83161 0.16829 0.87263 0.0
N999 N 0.78616 0.12381 0.51244 0.0
H1000 H 0.80946 0.08959 0.6947 0.0
H1001 H 0.79965 0.09076 0.57154 0.0
H1002 H 0.77977 0.13257 0.4617 0.0
H1003 H 0.77861 0.10442 0.49889 0.0
H1004 H 0.83064 0.18387 0.90089 0.0
H1005 H 0.83403 0.1573 0.92742 0.0
H1006 H 0.84128 0.2096 0.77925 0.0
H1007 H 0.8251 0.21066 0.67216 0.0
C1008 C 0.8714 0.69653 0.66752 0.0
C1009 C 0.88419 0.69828 0.76022 0.0
C1010 C 0.87976 0.65614 0.72549 0.0
C1011 C 0.86652 0.65454 0.63446 0.0
N1012 N 0.85947 0.67721 0.50178 0.0
N1013 N 0.90564 0.68253 0.86612 0.0
C1014 C 0.86586 0.67626 0.59988 0.0
C1015 C 0.89035 0.6791 0.78479 0.0
N1016 N 0.8632 0.71336 0.64553 0.0
N1017 N 0.881 0.6354 0.75796 0.0
H1018 H 0.91291 0.69872 0.91182 0.0
H1019 H 0.91268 0.67042 0.88382 0.0
H1020 H 0.8745 0.61894 0.71458 0.0
H1021 H 0.88783 0.63424 0.82865 0.0
H1022 H 0.85099 0.71076 0.58544 0.0
H1023 H 0.86713 0.72906 0.69029 0.0
H1024 H 0.86084 0.69351 0.46913 0.0
H1025 H 0.85566 0.66257 0.45075 0.0
C1026 C 0.02016 0.53719 0.14142 0.0
C1027 C 0.99863 0.53662 0.09794 0.0
C1028 C 0.02451 0.55895 0.94873 0.0
C1029 C 0.04363 0.55343 0.98228 0.0
N1030 N 0.05876 0.53595 0.11185 0.0
N1031 N 0.98062 0.55015 0.96714 0.0
C1032 C 0.04148 0.5427 0.07997 0.0
C1033 C 1.00109 0.54905 1.00446 0.0
N1034 N 0.01968 0.53154 0.2414 0.0
N1035 N 0.02834 0.57261 0.8621 0.0
H1036 H 0.96381 0.54379 0.00828 0.0
H1037 H 0.98017 0.55717 0.89617 0.0
H1038 H 0.04493 0.57943 0.81921 0.0
H1039 H 0.01608 0.57877 0.83607 0.0
H1040 H 0.03562 0.53373 0.28068 0.0
H1041 H 1.00391 0.52731 0.28675 0.0
H1042 H 0.05598 0.52487 0.17581 0.0
H1043 H 0.07481 0.53958 0.07044 0.0
C1044 C 0.46878 0.47677 0.98977 0.0
C1045 C 0.48484 0.49906 0.93151 0.0
C1046 C 0.52135 0.5049 0.0289 0.0
C1047 C 0.50715 0.48084 0.07716 0.0
N1048 N 0.46545 0.44343 0.10242 0.0
N1049 N 0.52774 0.52578 0.86926 0.0
C1050 C 0.48027 0.46641 0.0566 0.0
C1051 C 0.51153 0.50987 0.9414 0.0
N1052 N 0.44284 0.46596 0.98508 0.0
N1053 N 0.54322 0.52414 0.07038 0.0
H1054 H 0.52107 0.52876 0.80077 0.0
H1055 H 0.54749 0.53333 0.87385 0.0
H1056 H 0.54863 0.52344 0.14457 0.0
H1057 H 0.55328 0.54217 0.03722 0.0
H1058 H 0.43047 0.45214 0.03568 0.0
H1059 H 0.43351 0.4713 0.93314 0.0
H1060 H 0.44696 0.43043 0.07873 0.0
H1061 H 0.47149 0.43731 0.16446 0.0
C1062 C 0.55441 0.01229 0.07255 0.0
C1063 C 0.55079 0.03252 0.03734 0.0
C1064 C 0.53702 0.01087 0.87304 0.0
C1065 C 0.53508 0.9886 0.91526 0.0
N1066 N 0.54492 0.9684 0.05038 0.0
N1067 N 0.53707 0.05016 0.90234 0.0
C1068 C 0.54524 0.98958 0.01296 0.0
C1069 C 0.54205 0.03176 0.93652 0.0
N1070 N 0.56585 0.01447 0.16386 0.0
N1071 N 0.53354 0.01168 0.77155 0.0
H1072 H 0.54038 0.06604 0.94424 0.0
H1073 H 0.52778 0.04875 0.83437 0.0
H1074 H 0.52982 0.99636 0.72439 0.0
H1075 H 0.5371 0.0282 0.73339 0.0
H1076 H 0.5711 1.00155 0.19038 0.0
H1077 H 0.57162 0.03017 0.2112 0.0
H1078 H 0.54843 0.96619 0.12549 0.0
H1079 H 0.54071 0.95266 1.00536 0.0
C1080 C 0.19575 0.19382 0.08696 0.0
C1081 C 0.18048 0.19988 0.02487 0.0
C1082 C 0.19519 0.18635 0.87686 0.0
C1083 C 0.20588 0.17535 0.94104 0.0
N1084 N 0.21172 0.16482 0.11132 0.0
N1085 N 0.16343 0.1993 0.85936 0.0
C1086 C 0.20541 0.17844 0.04735 0.0
C1087 C 0.17983 0.19577 0.91907 0.0
N1088 N 0.20032 0.20202 0.18468 0.0
N1089 N 0.1994 0.18741 0.77531 0.0
H1090 H 0.15147 0.20557 0.88751 0.0
H1091 H 0.16019 0.19403 0.78363 0.0
H1092 H 0.21061 0.18068 0.74248 0.0
H1093 H 0.19399 0.19721 0.7256 0.0
H1094 H 0.21304 0.19986 0.23123 0.0
H1095 H 0.19354 0.21341 0.21513 0.0
H1096 H 0.20944 0.16458 0.18927 0.0
H1097 H 0.21635 0.15147 0.0858 0.0
C1098 C 0.8351 0.99794 0.03258 0.0
C1099 C 0.80946 0.98898 0.06334 0.0
C1100 C 0.80961 0.02434 0.97061 0.0
C1101 C 0.83447 0.03201 0.93344 0.0
N1102 N 0.86919 0.02335 0.91512 0.0
N1103 N 0.77041 0.99024 0.04172 0.0
C1104 C 0.84661 0.01784 0.95962 0.0
C1105 C 0.79621 1.00132 0.02731 0.0
N1106 N 0.84904 0.98848 0.07726 0.0
N1107 N 0.79863 0.03892 0.95125 0.0
H1108 H 0.75961 0.97282 0.07849 0.0
H1109 H 0.75924 0.99687 0.00818 0.0
H1110 H 0.80684 0.05483 0.90405 0.0
H1111 H 0.78209 0.03615 0.98706 0.0
H1112 H 0.86859 0.99613 0.0662 0.0
H1113 H 0.84172 0.97461 0.13338 0.0
H1114 H 0.87731 0.01175 0.92196 0.0
H1115 H 0.87887 0.03836 0.86466 0.0
C1116 C 1.01059 0.81572 0.9516 0.0
C1117 C 0.98877 0.81164 0.00691 0.0
C1118 C 1.01399 0.82214 0.16408 0.0
C1119 C 0.03647 0.82974 0.10678 0.0
N1120 N 0.05224 0.81929 0.9573 0.0
N1121 N 0.96911 0.80952 0.1675 0.0
C1122 C 0.03381 0.82237 1.00354 0.0
C1123 C 0.99022 0.81404 0.11396 0.0
N1124 N 1.00939 0.81392 0.84874 0.0
N1125 N 0.01524 0.82104 0.2668 0.0
H1126 H 0.95117 0.80159 0.13493 0.0
H1127 H 0.96931 0.81421 0.24307 0.0
H1128 H 0.03165 0.82373 0.30397 0.0
H1129 H 0.99969 0.81493 0.31479 0.0
H1130 H 0.02549 0.82007 0.80336 0.0
H1131 H 0.99246 0.80774 0.80832 0.0
H1132 H 0.05014 0.81189 0.88487 0.0
H1133 H 0.06734 0.81962 0.99636 0.0
C1134 C 0.84973 0.83428 0.00738 0.0
C1135 C 0.87664 0.84729 0.99304 0.0
C1136 C 0.87911 0.88698 0.05305 0.0
C1137 C 0.85199 0.87446 0.0567 0.0
N1138 N 0.81155 0.83769 0.01162 0.0
N1139 N 0.91647 0.88717 0.98482 0.0
C1140 C 0.83732 0.84854 0.02621 0.0
C1141 C 0.89123 0.87401 0.01093 0.0
N1142 N 0.83606 0.80819 0.00759 0.0
N1143 N 0.89334 0.91089 0.09295 0.0
H1144 H 0.92587 0.8784 0.95255 0.0
H1145 H 0.92744 0.90701 0.98652 0.0
H1146 H 0.88517 0.92084 0.12532 0.0
H1147 H 0.9131 0.9199 0.10198 0.0
H1148 H 0.81683 0.79783 0.02778 0.0
H1149 H 0.84444 0.79687 0.99835 0.0
H1150 H 0.8004 0.81965 0.97982 0.0
H1151 H 0.80176 0.84768 0.02088 0.0
C1152 C 0.15818 0.01264 0.88462 0.0
C1153 C 0.17666 0.03062 0.95248 0.0
C1154 C 0.1649 0.99638 0.07608 0.0
C1155 C 0.14978 0.97795 1.00232 0.0
N1156 N 0.13438 0.96841 0.83088 0.0
N1157 N 0.20117 0.0383 0.10584 0.0
C1158 C 0.14686 0.98601 0.90511 0.0
C1159 C 0.18087 0.02219 0.04682 0.0
N1160 N 0.15109 0.021 0.80159 0.0
N1161 N 0.16389 0.98922 0.17448 0.0
H1162 H 0.21441 0.05687 0.0844 0.0
H1163 H 0.20647 0.03234 0.17064 0.0
H1164 H 0.15199 0.97052 0.19898 0.0
H1165 H 0.17274 1.00229 0.23288 0.0
H1166 H 0.13601 1.0089 0.7546 0.0
H1167 H 0.15864 0.04033 0.78533 0.0
H1168 H 0.13417 0.97334 0.75575 0.0
H1169 H 0.12597 0.9488 0.84264 0.0
C1170 C 1.00037 0.1648 0.94289 0.0
C1171 C 0.98216 0.14546 0.00688 0.0
C1172 C 0.01724 0.14886 0.11253 0.0
C1173 C 0.03497 0.17069 0.05698 0.0
N1174 N 0.04222 0.2024 0.93037 0.0
N1175 N 0.97296 0.12099 0.16025 0.0
C1176 C 0.02624 0.17942 0.97477 0.0
C1177 C 0.99051 0.13787 0.09363 0.0
N1178 N 0.99301 0.16895 0.8506 0.0
N1179 N 0.02597 0.13822 0.18151 0.0
H1180 H 0.95329 0.11251 0.14895 0.0
H1181 H 0.97789 0.11693 0.23034 0.0
H1182 H 0.04538 0.14554 0.19624 0.0
H1183 H 1.01419 0.12087 0.2171 0.0
H1184 H 1.00593 0.18106 0.79673 0.0
H1185 H 0.9743 0.15828 0.8238 0.0
H1186 H 0.03604 0.21081 0.87712 0.0
H1187 H 0.06099 0.21439 0.95393 0.0
C1188 C 0.88652 0.53481 0.34261 0.0
C1189 C 0.8743 0.50768 0.33597 0.0
C1190 C 0.83807 0.50476 0.42813 0.0
C1191 C 0.84741 0.53137 0.41787 0.0
N1192 N 0.88089 0.57171 0.35002 0.0
N1193 N 0.83411 0.46791 0.3431 0.0
C1194 C 0.87177 0.54653 0.37067 0.0
C1195 C 0.84868 0.49305 0.369 0.0
N1196 N 0.91224 0.5495 0.32769 0.0
N1197 N 0.81985 0.4906 0.49802 0.0
H1198 H 0.84043 0.45896 0.29292 0.0
H1199 H 0.81477 0.45714 0.3616 0.0
H1200 H 0.81371 0.49884 0.55213 0.0
H1201 H 0.81377 0.47138 0.51092 0.0
H1202 H 0.92231 0.56906 0.34219 0.0
H1203 H 0.92397 0.54199 0.3107 0.0
H1204 H 0.8969 0.58236 0.3049 0.0
H1205 H 0.87183 0.5817 0.37146 0.0
C1206 C 0.47426 0.34882 0.29403 0.0
C1207 C 0.50046 0.3669 0.27725 0.0
C1208 C 0.51188 0.34263 0.39244 0.0
C1209 C 0.48651 0.32154 0.3905 0.0
N1210 N 0.4427 0.30518 0.33155 0.0
N1211 N 0.54418 0.37621 0.29134 0.0
C1212 C 0.46732 0.32475 0.33968 0.0
C1213 C 0.5193 0.36255 0.32141 0.0
N1214 N 0.45593 0.35493 0.27066 0.0
N1215 N 0.52886 0.34419 0.46404 0.0
H1216 H 0.55005 0.38906 0.23145 0.0
H1217 H 0.55815 0.37227 0.31737 0.0
H1218 H 0.52348 0.33133 0.52392 0.0
H1219 H 0.54708 0.36013 0.47125 0.0
H1220 H 0.4368 0.34357 0.29086 0.0
H1221 H 0.46022 0.37263 0.24129 0.0
H1222 H 0.42958 0.30575 0.28199 0.0
H1223 H 0.43524 0.288 0.36985 0.0
C1224 C 0.70403 0.1718 0.26249 0.0
C1225 C 0.70536 0.16767 0.36777 0.0
C1226 C 0.66013 0.13344 0.36277 0.0
C1227 C 0.65793 0.14096 0.26334 0.0
N1228 N 0.67986 0.15713 0.10644 0.0
N1229 N 0.68477 0.14351 0.51774 0.0
C1230 C 0.68059 0.15711 0.20952 0.0
C1231 C 0.68344 0.14806 0.41752 0.0
N1232 N 0.72453 0.19098 0.21394 0.0
N1233 N 0.64114 0.11105 0.40152 0.0
H1234 H 0.70191 0.15173 0.55805 0.0
H1235 H 0.66874 0.13247 0.56211 0.0
H1236 H 0.62569 0.09786 0.35901 0.0
H1237 H 0.64273 0.10345 0.46967 0.0
H1238 H 0.72372 0.1972 0.14154 0.0
H1239 H 0.74209 0.20201 0.24824 0.0
H1240 H 0.69605 0.16636 0.06118 0.0
H1241 H 0.66326 0.14515 0.06595 0.0
C1242 C 0.5219 0.1642 0.41731 0.0
C1243 C 0.54504 0.17619 0.36158 0.0
C1244 C 0.54555 0.21699 0.37717 0.0
C1245 C 0.52041 0.20402 0.41782 0.0
N1246 N 0.48246 0.16356 0.45349 0.0
N1247 N 0.57693 0.21371 0.27431 0.0
C1248 C 0.50798 0.17714 0.43198 0.0
C1249 C 0.55646 0.20258 0.33798 0.0
N1250 N 0.51335 0.14053 0.45783 0.0
N1251 N 0.55929 0.24304 0.37823 0.0
H1252 H 0.58513 0.20379 0.24206 0.0
H1253 H 0.58426 0.23216 0.24632 0.0
H1254 H 0.55221 0.25418 0.40864 0.0
H1255 H 0.57854 0.25343 0.35838 0.0
H1256 H 0.49782 0.13196 0.50684 0.0
H1257 H 0.52344 0.13077 0.45145 0.0
H1258 H 0.47214 0.14368 0.45489 0.0
H1259 H 0.47096 0.17186 0.4584 0.0
C1260 C 0.83836 0.324 0.20968 0.0
C1261 C 0.82119 0.31474 0.29239 0.0
C1262 C 0.82686 0.35757 0.31499 0.0
C1263 C 0.84735 0.3676 0.24483 0.0
N1264 N 0.87527 0.3603 0.13651 0.0
N1265 N 0.80188 0.32388 0.43404 0.0
C1266 C 0.85371 0.35079 0.19428 0.0
C1267 C 0.81597 0.33178 0.34743 0.0
N1268 N 0.83983 0.30718 0.14509 0.0
N1269 N 0.8176 0.37264 0.34976 0.0
H1270 H 0.79415 0.30542 0.46252 0.0
H1271 H 0.79988 0.3363 0.48264 0.0
H1272 H 0.82479 0.39144 0.32589 0.0
H1273 H 0.80117 0.36568 0.39373 0.0
H1274 H 0.85027 0.3128 0.07825 0.0
H1275 H 0.82848 0.28743 0.15294 0.0
H1276 H 0.88217 0.34894 0.10716 0.0
H1277 H 0.88767 0.37976 0.12579 0.0
C1278 C 0.69335 0.48329 0.37652 0.0
C1279 C 0.70462 0.50957 0.40183 0.0
C1280 C 0.66355 0.50746 0.37081 0.0
C1281 C 0.65334 0.48229 0.3325 0.0
N1282 N 0.65945 0.44711 0.28734 0.0
N1283 N 0.70161 0.54792 0.40466 0.0
C1284 C 0.66846 0.47036 0.33254 0.0
C1285 C 0.69002 0.522 0.39431 0.0
N1286 N 0.70618 0.47052 0.39695 0.0
N1287 N 0.64782 0.51728 0.38739 0.0
H1288 H 0.72108 0.55949 0.41932 0.0
H1289 H 0.69242 0.55823 0.389 0.0
H1290 H 0.6282 0.50705 0.37317 0.0
H1291 H 0.65373 0.53449 0.4248 0.0
H1292 H 0.698 0.45083 0.38962 0.0
H1293 H 0.72428 0.4793 0.43015 0.0
H1294 H 0.67063 0.43871 0.27512 0.0
H1295 H 0.64134 0.43709 0.25461 0.0
C1296 C 0.56181 0.88149 0.59495 0.0
C1297 C 0.55248 0.85495 0.58118 0.0
C1298 C 0.51853 0.84602 0.7019 0.0
C1299 C 0.52371 0.87166 0.69723 0.0
N1300 N 0.55268 0.91492 0.63782 0.0
N1301 N 0.51757 0.81195 0.60516 0.0
C1302 C 0.54608 0.88983 0.64368 0.0
C1303 C 0.52963 0.8372 0.6302 0.0
N1304 N 0.58623 0.89881 0.56689 0.0
N1305 N 0.50382 0.8302 0.77755 0.0
H1306 H 0.52377 0.80494 0.54644 0.0
H1307 H 0.4998 0.7987 0.63466 0.0
H1308 H 0.49768 0.83673 0.83827 0.0
H1309 H 0.50098 0.81184 0.78688 0.0
H1310 H 0.59504 0.91814 0.58491 0.0
H1311 H 0.59872 0.89355 0.53532 0.0
H1312 H 0.56597 0.92747 0.58594 0.0
H1313 H 0.54512 0.9235 0.68291 0.0
C1314 C 0.16966 0.67767 0.59888 0.0
C1315 C 0.18033 0.70132 0.65098 0.0
C1316 C 0.16322 0.67726 0.80906 0.0
C1317 C 0.15723 0.65414 0.75939 0.0
N1318 N 0.16155 0.63458 0.60717 0.0
N1319 N 0.19181 0.72269 0.81301 0.0
C1320 C 0.16202 0.65485 0.65401 0.0
C1321 C 0.17815 0.70094 0.75815 0.0
N1322 N 0.16669 0.67679 0.49657 0.0
N1323 N 0.15442 0.67678 0.90431 0.0
H1324 H 0.20472 0.7399 0.78021 0.0
H1325 H 0.19265 0.72286 0.89156 0.0
H1326 H 0.14258 0.65984 0.94263 0.0
H1327 H 0.1565 0.69306 0.94013 0.0
H1328 H 0.15696 0.65968 0.45666 0.0
H1329 H 0.17135 0.6929 0.45326 0.0
H1330 H 0.16689 0.63496 0.53219 0.0
H1331 H 0.15946 0.61893 0.6469 0.0
C1332 C 0.34712 0.4914 0.53504 0.0
C1333 C 0.32499 0.48041 0.59679 0.0
C1334 C 0.35232 0.48602 0.74284 0.0
C1335 C 0.37437 0.50224 0.68624 0.0
N1336 N 0.39248 0.52133 0.52524 0.0
N1337 N 0.30792 0.47272 0.76617 0.0
C1338 C 0.37177 0.5049 0.58089 0.0
C1339 C 0.32782 0.47874 0.70254 0.0
N1340 N 0.34455 0.48916 0.43258 0.0
N1341 N 0.35482 0.47788 0.83574 0.0
H1342 H 0.2907 0.4706 0.74105 0.0
H1343 H 0.30971 0.47322 0.84448 0.0
H1344 H 0.37257 0.48157 0.86284 0.0
H1345 H 0.33921 0.46477 0.87815 0.0
H1346 H 0.35998 0.4948 0.38391 0.0
H1347 H 0.32675 0.47933 0.39709 0.0
H1348 H 0.39125 0.52644 0.45126 0.0
H1349 H 0.41076 0.531 0.55524 0.0
C1350 C 0.18341 0.51813 0.73531 0.0
C1351 C 0.18255 0.53612 0.66912 0.0
C1352 C 0.21125 0.53097 0.55259 0.0
C1353 C 0.20902 0.5104 0.61199 0.0
N1354 N 0.18852 0.4811 0.75004 0.0
N1355 N 0.19306 0.55749 0.50803 0.0
C1356 C 0.19399 0.50314 0.70108 0.0
C1357 C 0.1959 0.5421 0.576 0.0
N1358 N 0.17449 0.51564 0.83173 0.0
N1359 N 0.22841 0.54021 0.47508 0.0
H1360 H 0.18195 0.56591 0.52226 0.0
H1361 H 0.20002 0.56024 0.43456 0.0
H1362 H 0.24008 0.53265 0.4565 0.0
H1363 H 0.23273 0.55674 0.43538 0.0
H1364 H 0.17694 0.50464 0.88623 0.0
H1365 H 0.16701 0.52663 0.8602 0.0
H1366 H 0.17558 0.47362 0.80949 0.0
H1367 H 0.19477 0.46884 0.72476 0.0
C1368 C 0.4774 0.66729 0.74963 0.0
C1369 C 0.4828 0.64927 0.70372 0.0
C1370 C 0.50483 0.67981 0.5675 0.0
C1371 C 0.5051 0.69964 0.6256 0.0
N1372 N 0.474 0.70485 0.71978 0.0
N1373 N 0.50403 0.63961 0.57054 0.0
C1374 C 0.4866 0.69172 0.70387 0.0
C1375 C 0.49703 0.65581 0.61266 0.0
N1376 N 0.46326 0.6611 0.83593 0.0
N1377 N 0.50857 0.6827 0.46583 0.0
H1378 H 0.49985 0.62228 0.60333 0.0
H1379 H 0.51622 0.64473 0.50853 0.0
H1380 H 0.51053 0.69879 0.42849 0.0
H1381 H 0.50623 0.66793 0.41841 0.0
H1382 H 0.46122 0.67451 0.87816 0.0
H1383 H 0.45495 0.64301 0.86851 0.0
H1384 H 0.45892 0.69901 0.77037 0.0
H1385 H 0.47563 0.7188 0.66919 0.0
C1386 C 0.33526 0.8404 0.67265 0.0
C1387 C 0.32363 0.81531 0.63227 0.0
C1388 C 0.36342 0.81455 0.66227 0.0
C1389 C 0.37579 0.84066 0.69123 0.0
N1390 N 0.37468 0.87999 0.70052 0.0
N1391 N 0.32775 0.77978 0.57412 0.0
C1392 C 0.36204 0.85404 0.68974 0.0
C1393 C 0.33802 0.80269 0.62306 0.0
N1394 N 0.32061 0.85092 0.69841 0.0
N1395 N 0.3756 0.80085 0.67526 0.0
H1396 H 0.30931 0.77062 0.5441 0.0
H1397 H 0.33823 0.77094 0.55574 0.0
H1398 H 0.39405 0.80881 0.70468 0.0
H1399 H 0.36663 0.78115 0.66532 0.0
H1400 H 0.32782 0.86811 0.73755 0.0
H1401 H 0.30077 0.8413 0.69046 0.0
H1402 H 0.3659 0.89089 0.68973 0.0
H1403 H 0.39445 0.89095 0.70958 0.0
loop_
_geom_bond_atom_site_label_1
_geom_bond_atom_site_label_2
_geom_bond_distance
_geom_bond_site_symmetry_2
_ccdc_geom_bond_type
C0 C1 1.351 . S
C0 N3 1.368 . S
C0 H5 0.931 . S
C1 C0 1.351 . S
C1 N2 1.373 . S
C1 H29 0.930 . S
N2 C1 1.373 . S
N2 C4 1.340 . S
N3 C0 1.368 . S
N3 C4 1.321 . S
N3 Co6 2.135 1_556 S
C4 N2 1.340 . S
C4 N3 1.321 . S
C4 H28 0.930 . S
H5 C0 0.931 . S
Co6 N3 2.135 1_554 S
Co6 N9 2.121 . S
Co6 O14 2.055 . S
Co6 O17 2.039 . S
Co6 N20 2.140 . S
C7 O8 1.227 . S
C7 O17 1.265 . S
O8 C7 1.227 . S
N9 Co6 2.121 . S
N9 C11 1.375 . S
N9 C12 1.313 . S
C10 C11 1.338 . S
C10 N13 1.377 . S
C10 H30 0.930 . S
C11 N9 1.375 . S
C11 C10 1.338 . S
C11 H15 0.931 . S
C12 N9 1.313 . S
C12 N13 1.344 . S
C12 H16 0.930 . S
N13 C10 1.377 . S
N13 C12 1.344 . S
O14 Co6 2.055 . S
O14 C18 1.253 . S
H15 C11 0.931 . S
H16 C12 0.930 . S
O17 Co6 2.039 . S
O17 C7 1.265 . S
C18 O14 1.253 . S
C18 O19 1.227 . S
O19 C18 1.227 . S
N20 Co6 2.140 . S
N20 C23 1.346 . S
N20 C24 1.345 . S
C21 C22 1.389 . S
C21 C25 1.391 . S
C22 C21 1.389 . S
C22 C23 1.370 . S
C22 H31 0.928 1_554 S
C23 N20 1.346 . S
C23 C22 1.370 . S
C23 H26 0.928 1_554 S
C24 N20 1.345 . S
C24 C25 1.371 . S
C24 H27 0.931 . S
C25 C21 1.391 . S
C25 C24 1.371 . S
C25 H32 0.930 . S
H26 C23 0.928 1_556 S
H27 C24 0.931 . S
H28 C4 0.930 . S
H29 C1 0.930 . S
H30 C10 0.930 . S
H31 C22 0.928 1_556 S
H32 C25 0.930 . S
C33 C34 1.351 . S
C33 N36 1.368 . S
C33 H38 0.931 . S
C34 C33 1.351 . S
C34 N35 1.373 . S
C34 H62 0.930 . S
N35 C34 1.373 . S
N35 C37 1.340 . S
N36 C33 1.368 . S
N36 C37 1.321 . S
N36 Co39 2.135 1_556 S
C37 N35 1.340 . S
C37 N36 1.321 . S
C37 H61 0.930 . S
H38 C33 0.931 . S
Co39 N36 2.135 1_554 S
Co39 N42 2.121 . S
Co39 O47 2.055 . S
Co39 O50 2.039 . S
Co39 N53 2.140 . S
C40 O41 1.227 . S
C40 O50 1.265 . S
O41 C40 1.227 . S
N42 Co39 2.121 . S
N42 C44 1.375 . S
N42 C45 1.313 . S
C43 C44 1.338 . S
C43 N46 1.377 . S
C43 H63 0.930 . S
C44 N42 1.375 . S
C44 C43 1.338 . S
C44 H48 0.931 . S
C45 N42 1.313 . S
C45 N46 1.344 . S
C45 H49 0.930 . S
N46 C43 1.377 . S
N46 C45 1.344 . S
O47 Co39 2.055 . S
O47 C51 1.253 . S
H48 C44 0.931 . S
H49 C45 0.930 . S
O50 Co39 2.039 . S
O50 C40 1.265 . S
C51 O47 1.253 . S
C51 O52 1.227 . S
O52 C51 1.227 . S
N53 Co39 2.140 . S
N53 C56 1.346 . S
N53 C57 1.345 . S
C54 C55 1.388 . S
C54 C58 1.391 . S
C55 C54 1.388 . S
C55 C56 1.370 . S
C55 H64 0.928 1_554 S
C56 N53 1.346 . S
C56 C55 1.370 . S
C56 H59 0.928 1_554 S
C57 N53 1.345 . S
C57 C58 1.371 . S
C57 H60 0.931 . S
C58 C54 1.391 . S
C58 C57 1.371 . S
C58 H65 0.930 . S
H59 C56 0.928 1_556 S
H60 C57 0.931 . S
H61 C37 0.930 . S
H62 C34 0.930 . S
H63 C43 0.930 . S
H64 C55 0.928 1_556 S
H65 C58 0.930 . S
C66 C67 1.351 . S
C66 N69 1.368 . S
C66 H71 0.931 . S
C67 C66 1.351 . S
C67 N68 1.373 . S
C67 H95 0.930 . S
N68 C67 1.373 . S
N68 C70 1.340 . S
N69 C66 1.368 . S
N69 C70 1.321 . S
N69 Co72 2.135 1_556 S
C70 N68 1.340 . S
C70 N69 1.321 . S
C70 H94 0.930 . S
H71 C66 0.931 . S
Co72 N69 2.135 1_554 S
Co72 N75 2.121 . S
Co72 O80 2.055 . S
Co72 O83 2.039 . S
Co72 N86 2.140 . S
C73 O74 1.227 . S
C73 O83 1.265 . S
O74 C73 1.227 . S
N75 Co72 2.121 . S
N75 C77 1.375 . S
N75 C78 1.313 . S
C76 C77 1.338 . S
C76 N79 1.377 . S
C76 H96 0.930 . S
C77 N75 1.375 . S
C77 C76 1.338 . S
C77 H81 0.931 . S
C78 N75 1.313 . S
C78 N79 1.344 . S
C78 H82 0.930 . S
N79 C76 1.377 . S
N79 C78 1.344 . S
O80 Co72 2.055 . S
O80 C84 1.253 . S
H81 C77 0.931 . S
H82 C78 0.930 . S
O83 Co72 2.039 . S
O83 C73 1.265 . S
C84 O80 1.253 . S
C84 O85 1.227 . S
O85 C84 1.227 . S
N86 Co72 2.140 . S
N86 C89 1.346 . S
N86 C90 1.345 . S
C87 C88 1.388 . S
C87 C91 1.391 . S
C88 C87 1.388 . S
C88 C89 1.369 . S
C88 H97 0.928 1_554 S
C89 N86 1.346 . S
C89 C88 1.369 . S
C89 H92 0.928 1_554 S
C90 N86 1.345 . S
C90 C91 1.371 . S
C90 H93 0.931 . S
C91 C87 1.391 . S
C91 C90 1.371 . S
C91 H98 0.930 . S
H92 C89 0.928 1_556 S
H93 C90 0.931 . S
H94 C70 0.930 . S
H95 C67 0.930 . S
H96 C76 0.930 . S
H97 C88 0.928 1_556 S
H98 C91 0.930 . S
C99 C100 1.351 . S
C99 N102 1.368 . S
C99 H104 0.931 . S
C100 C99 1.351 . S
C100 N101 1.373 . S
C100 H128 0.930 . S
N101 C100 1.373 . S
N101 C103 1.340 . S
N102 C99 1.368 . S
N102 C103 1.321 . S
N102 Co105 2.135 1_554 S
C103 N101 1.340 . S
C103 N102 1.321 . S
C103 H127 0.930 . S
H104 C99 0.931 . S
Co105 N102 2.135 1_556 S
Co105 N108 2.121 . S
Co105 O113 2.055 . S
Co105 O116 2.039 . S
Co105 N119 2.140 . S
C106 O107 1.227 . S
C106 O116 1.265 . S
O107 C106 1.227 . S
N108 Co105 2.121 . S
N108 C110 1.375 . S
N108 C111 1.313 . S
C109 C110 1.338 . S
C109 N112 1.377 . S
C109 H129 0.930 . S
C110 N108 1.375 . S
C110 C109 1.338 . S
C110 H114 0.931 . S
C111 N108 1.313 . S
C111 N112 1.344 . S
C111 H115 0.930 . S
N112 C109 1.377 . S
N112 C111 1.344 . S
O113 Co105 2.055 . S
O113 C117 1.253 . S
H114 C110 0.931 . S
H115 C111 0.930 . S
O116 Co105 2.039 . S
O116 C106 1.265 . S
C117 O113 1.253 . S
C117 O118 1.227 . S
O118 C117 1.227 . S
N119 Co105 2.140 . S
N119 C122 1.346 . S
N119 C123 1.345 . S
C120 C121 1.389 . S
C120 C124 1.391 . S
C121 C120 1.389 . S
C121 C122 1.370 . S
C121 H130 0.928 1_556 S
C122 N119 1.346 . S
C122 C121 1.370 . S
C122 H125 0.928 1_556 S
C123 N119 1.345 . S
C123 C124 1.371 . S
C123 H126 0.931 . S
C124 C120 1.391 . S
C124 C123 1.371 . S
C124 H131 0.930 . S
H125 C122 0.928 1_554 S
H126 C123 0.931 . S
H127 C103 0.930 . S
H128 C100 0.930 . S
H129 C109 0.930 . S
H130 C121 0.928 1_554 S
H131 C124 0.930 . S
C132 C133 1.351 . S
C132 N135 1.368 . S
C132 H137 0.931 . S
C133 C132 1.351 . S
C133 N134 1.373 . S
C133 H161 0.930 . S
N134 C133 1.373 . S
N134 C136 1.340 . S
N135 C132 1.368 . S
N135 C136 1.321 . S
N135 Co138 2.135 1_554 S
C136 N134 1.340 . S
C136 N135 1.321 . S
C136 H160 0.930 . S
H137 C132 0.931 . S
Co138 N135 2.135 1_556 S
Co138 N141 2.121 . S
Co138 O146 2.055 . S
Co138 O149 2.039 . S
Co138 N152 2.140 . S
C139 O140 1.227 . S
C139 O149 1.265 . S
O140 C139 1.227 . S
N141 Co138 2.121 . S
N141 C143 1.375 . S
N141 C144 1.313 . S
C142 C143 1.338 . S
C142 N145 1.377 . S
C142 H162 0.930 . S
C143 N141 1.375 . S
C143 C142 1.338 . S
C143 H147 0.931 . S
C144 N141 1.313 . S
C144 N145 1.344 . S
C144 H148 0.930 . S
N145 C142 1.377 . S
N145 C144 1.344 . S
O146 Co138 2.055 . S
O146 C150 1.253 . S
H147 C143 0.931 . S
H148 C144 0.930 . S
O149 Co138 2.039 . S
O149 C139 1.265 . S
C150 O146 1.253 . S
C150 O151 1.227 . S
O151 C150 1.227 . S
N152 Co138 2.140 . S
N152 C155 1.346 . S
N152 C156 1.345 . S
C153 C154 1.388 . S
C153 C157 1.391 . S
C154 C153 1.388 . S
C154 C155 1.369 . S
C154 H163 0.928 1_556 S
C155 N152 1.346 . S
C155 C154 1.369 . S
C155 H158 0.928 1_556 S
C156 N152 1.345 . S
C156 C157 1.371 . S
C156 H159 0.931 . S
C157 C153 1.391 . S
C157 C156 1.371 . S
C157 H164 0.930 . S
H158 C155 0.928 1_554 S
H159 C156 0.931 . S
H160 C136 0.930 . S
H161 C133 0.930 . S
H162 C142 0.930 . S
H163 C154 0.928 1_554 S
H164 C157 0.930 . S
C165 C166 1.351 . S
C165 N168 1.368 . S
C165 H170 0.931 . S
C166 C165 1.351 . S
C166 N167 1.373 . S
C166 H194 0.930 . S
N167 C166 1.373 . S
N167 C169 1.340 . S
N168 C165 1.368 . S
N168 C169 1.321 . S
N168 Co171 2.135 1_554 S
C169 N167 1.340 . S
C169 N168 1.321 . S
C169 H193 0.930 . S
H170 C165 0.931 . S
Co171 N168 2.135 1_556 S
Co171 N174 2.121 . S
Co171 O179 2.055 . S
Co171 O182 2.039 . S
Co171 N185 2.140 . S
C172 O173 1.227 . S
C172 O182 1.265 . S
O173 C172 1.227 . S
N174 Co171 2.121 . S
N174 C176 1.375 . S
N174 C177 1.313 . S
C175 C176 1.338 . S
C175 N178 1.377 . S
C175 H195 0.930 . S
C176 N174 1.375 . S
C176 C175 1.338 . S
C176 H180 0.931 . S
C177 N174 1.313 . S
C177 N178 1.344 . S
C177 H181 0.930 . S
N178 C175 1.377 . S
N178 C177 1.344 . S
O179 Co171 2.055 . S
O179 C183 1.253 . S
H180 C176 0.931 . S
H181 C177 0.930 . S
O182 Co171 2.039 . S
O182 C172 1.265 . S
C183 O179 1.253 . S
C183 O184 1.227 . S
O184 C183 1.227 . S
N185 Co171 2.140 . S
N185 C188 1.346 . S
N185 C189 1.345 . S
C186 C187 1.388 . S
C186 C190 1.391 . S
C187 C186 1.388 . S
C187 C188 1.370 . S
C187 H196 0.928 1_556 S
C188 N185 1.346 . S
C188 C187 1.370 . S
C188 H191 0.928 1_556 S
C189 N185 1.345 . S
C189 C190 1.371 . S
C189 H192 0.931 . S
C190 C186 1.391 . S
C190 C189 1.371 . S
C190 H197 0.930 . S
H191 C188 0.928 1_554 S
H192 C189 0.931 . S
H193 C169 0.930 . S
H194 C166 0.930 . S
H195 C175 0.930 . S
H196 C187 0.928 1_554 S
H197 C190 0.930 . S
C198 C199 1.351 . S
C198 N201 1.368 . S
C198 H203 0.931 . S
C199 C198 1.351 . S
C199 N200 1.373 . S
C199 H227 0.930 . S
N200 C199 1.373 . S
N200 C202 1.340 . S
N201 C198 1.368 . S
N201 C202 1.321 . S
N201 Co204 2.135 . S
C202 N200 1.340 . S
C202 N201 1.321 . S
C202 H226 0.930 . S
H203 C198 0.931 . S
Co204 N201 2.135 . S
Co204 N207 2.121 . S
Co204 O212 2.055 . S
Co204 O215 2.039 . S
Co204 N218 2.140 . S
C205 O206 1.227 . S
C205 O215 1.265 . S
O206 C205 1.227 . S
N207 Co204 2.121 . S
N207 C209 1.375 . S
N207 C210 1.313 . S
C208 C209 1.338 . S
C208 N211 1.377 . S
C208 H228 0.930 . S
C209 N207 1.375 . S
C209 C208 1.338 . S
C209 H213 0.931 . S
C210 N207 1.313 . S
C210 N211 1.344 . S
C210 H214 0.930 . S
N211 C208 1.377 . S
N211 C210 1.344 . S
O212 Co204 2.055 . S
O212 C216 1.253 . S
H213 C209 0.931 . S
H214 C210 0.930 . S
O215 Co204 2.039 . S
O215 C205 1.265 . S
C216 O212 1.253 . S
C216 O217 1.227 . S
O217 C216 1.227 . S
N218 Co204 2.140 . S
N218 C221 1.346 . S
N218 C222 1.345 . S
C219 C220 1.387 . S
C219 C223 1.391 . S
C220 C219 1.387 . S
C220 C221 1.369 . S
C220 H229 0.929 . S
C221 N218 1.346 . S
C221 C220 1.369 . S
C221 H224 0.928 . S
C222 N218 1.345 . S
C222 C223 1.371 . S
C222 H225 0.931 . S
C223 C219 1.391 . S
C223 C222 1.371 . S
C223 H230 0.930 . S
H224 C221 0.928 . S
H225 C222 0.931 . S
H226 C202 0.930 . S
H227 C199 0.930 . S
H228 C208 0.930 . S
H229 C220 0.929 . S
H230 C223 0.930 . S
C231 C232 1.351 . S
C231 N234 1.368 . S
C231 H236 0.931 . S
C232 C231 1.351 . S
C232 N233 1.373 . S
C232 H260 0.930 . S
N233 C232 1.373 . S
N233 C235 1.340 . S
N234 C231 1.368 . S
N234 C235 1.321 . S
N234 Co237 2.135 . S
C235 N233 1.340 . S
C235 N234 1.321 . S
C235 H259 0.930 . S
H236 C231 0.931 . S
Co237 N234 2.135 . S
Co237 N240 2.121 . S
Co237 O245 2.055 . S
Co237 O248 2.039 . S
Co237 N251 2.140 . S
C238 O239 1.227 . S
C238 O248 1.265 . S
O239 C238 1.227 . S
N240 Co237 2.121 . S
N240 C242 1.375 . S
N240 C243 1.313 . S
C241 C242 1.338 . S
C241 N244 1.377 . S
C241 H261 0.930 . S
C242 N240 1.375 . S
C242 C241 1.338 . S
C242 H246 0.931 . S
C243 N240 1.313 . S
C243 N244 1.344 . S
C243 H247 0.930 . S
N244 C241 1.377 . S
N244 C243 1.344 . S
O245 Co237 2.055 . S
O245 C249 1.253 . S
H246 C242 0.931 . S
H247 C243 0.930 . S
O248 Co237 2.039 . S
O248 C238 1.265 . S
C249 O245 1.253 . S
C249 O250 1.227 . S
O250 C249 1.227 . S
N251 Co237 2.140 . S
N251 C254 1.346 . S
N251 C255 1.345 . S
C252 C253 1.387 . S
C252 C256 1.391 . S
C253 C252 1.387 . S
C253 C254 1.369 . S
C253 H262 0.929 . S
C254 N251 1.346 . S
C254 C253 1.369 . S
C254 H257 0.928 . S
C255 N251 1.345 . S
C255 C256 1.371 . S
C255 H258 0.931 . S
C256 C252 1.391 . S
C256 C255 1.371 . S
C256 H263 0.930 . S
H257 C254 0.928 . S
H258 C255 0.931 . S
H259 C235 0.930 . S
H260 C232 0.930 . S
H261 C241 0.930 . S
H262 C253 0.929 . S
H263 C256 0.930 . S
C264 C265 1.351 . S
C264 N267 1.368 . S
C264 H269 0.931 . S
C265 C264 1.351 . S
C265 N266 1.373 . S
C265 H293 0.930 . S
N266 C265 1.373 . S
N266 C268 1.340 . S
N267 C264 1.368 . S
N267 C268 1.321 . S
N267 Co270 2.135 . S
C268 N266 1.340 . S
C268 N267 1.321 . S
C268 H292 0.930 . S
H269 C264 0.931 . S
Co270 N267 2.135 . S
Co270 N273 2.121 . S
Co270 O278 2.055 . S
Co270 O281 2.039 . S
Co270 N284 2.140 . S
C271 O272 1.227 . S
C271 O281 1.265 . S
O272 C271 1.227 . S
N273 Co270 2.121 . S
N273 C275 1.375 . S
N273 C276 1.313 . S
C274 C275 1.338 . S
C274 N277 1.377 . S
C274 H294 0.930 . S
C275 N273 1.375 . S
C275 C274 1.338 . S
C275 H279 0.931 . S
C276 N273 1.313 . S
C276 N277 1.344 . S
C276 H280 0.930 . S
N277 C274 1.377 . S
N277 C276 1.344 . S
O278 Co270 2.055 . S
O278 C282 1.253 . S
H279 C275 0.931 . S
H280 C276 0.930 . S
O281 Co270 2.039 . S
O281 C271 1.265 . S
C282 O278 1.253 . S
C282 O283 1.227 . S
O283 C282 1.227 . S
N284 Co270 2.140 . S
N284 C287 1.346 . S
N284 C288 1.345 . S
C285 C286 1.387 . S
C285 C289 1.391 . S
C286 C285 1.387 . S
C286 C287 1.369 . S
C286 H295 0.929 . S
C287 N284 1.346 . S
C287 C286 1.369 . S
C287 H290 0.928 . S
C288 N284 1.345 . S
C288 C289 1.371 . S
C288 H291 0.931 . S
C289 C285 1.391 . S
C289 C288 1.371 . S
C289 H296 0.930 . S
H290 C287 0.928 . S
H291 C288 0.931 . S
H292 C268 0.930 . S
H293 C265 0.930 . S
H294 C274 0.930 . S
H295 C286 0.929 . S
H296 C289 0.930 . S
C297 C298 1.351 . S
C297 N300 1.368 . S
C297 H302 0.931 . S
C298 C297 1.351 . S
C298 N299 1.373 . S
C298 H326 0.930 . S
N299 C298 1.373 . S
N299 C301 1.340 . S
N300 C297 1.368 . S
N300 C301 1.321 . S
N300 Co303 2.135 . S
C301 N299 1.340 . S
C301 N300 1.321 . S
C301 H325 0.930 . S
H302 C297 0.931 . S
Co303 N300 2.135 . S
Co303 N306 2.121 . S
Co303 O311 2.055 . S
Co303 O314 2.039 . S
Co303 N317 2.140 . S
C304 O305 1.227 . S
C304 O314 1.265 . S
O305 C304 1.227 . S
N306 Co303 2.121 . S
N306 C308 1.375 . S
N306 C309 1.313 1_554 S
C307 C308 1.338 1_556 S
C307 N310 1.377 . S
C307 H327 0.930 . S
C308 N306 1.375 . S
C308 C307 1.338 1_554 S
C308 H312 0.931 . S
C309 N306 1.313 1_556 S
C309 N310 1.344 . S
C309 H313 0.930 . S
N310 C307 1.377 . S
N310 C309 1.344 . S
O311 Co303 2.055 . S
O311 C315 1.253 . S
H312 C308 0.931 . S
H313 C309 0.930 . S
O314 Co303 2.039 . S
O314 C304 1.265 . S
C315 O311 1.253 . S
C315 O316 1.227 . S
O316 C315 1.227 . S
N317 Co303 2.140 . S
N317 C320 1.346 . S
N317 C321 1.345 . S
C318 C319 1.387 . S
C318 C322 1.391 . S
C319 C318 1.387 . S
C319 C320 1.369 . S
C319 H328 0.929 . S
C320 N317 1.346 . S
C320 C319 1.369 . S
C320 H323 0.928 . S
C321 N317 1.345 . S
C321 C322 1.371 . S
C321 H324 0.931 . S
C322 C318 1.391 . S
C322 C321 1.371 . S
C322 H329 0.930 . S
H323 C320 0.928 . S
H324 C321 0.931 . S
H325 C301 0.930 . S
H326 C298 0.930 . S
H327 C307 0.930 . S
H328 C319 0.929 . S
H329 C322 0.930 . S
C330 C331 1.351 . S
C330 N333 1.368 . S
C330 H335 0.931 . S
C331 C330 1.351 . S
C331 N332 1.373 . S
C331 H359 0.930 . S
N332 C331 1.373 . S
N332 C334 1.340 . S
N333 C330 1.368 . S
N333 C334 1.321 . S
N333 Co336 2.135 . S
C334 N332 1.340 . S
C334 N333 1.321 . S
C334 H358 0.930 . S
H335 C330 0.931 . S
Co336 N333 2.135 . S
Co336 N339 2.121 . S
Co336 O344 2.055 . S
Co336 O347 2.039 . S
Co336 N350 2.140 . S
C337 O338 1.227 . S
C337 O347 1.265 . S
O338 C337 1.227 . S
N339 Co336 2.121 . S
N339 C341 1.375 . S
N339 C342 1.313 1_554 S
C340 C341 1.338 1_556 S
C340 N343 1.377 . S
C340 H360 0.930 . S
C341 N339 1.375 . S
C341 C340 1.338 1_554 S
C341 H345 0.931 . S
C342 N339 1.313 1_556 S
C342 N343 1.344 . S
C342 H346 0.930 . S
N343 C340 1.377 . S
N343 C342 1.344 . S
O344 Co336 2.055 . S
O344 C348 1.253 . S
H345 C341 0.931 . S
H346 C342 0.930 . S
O347 Co336 2.039 . S
O347 C337 1.265 . S
C348 O344 1.253 . S
C348 O349 1.227 . S
O349 C348 1.227 . S
N350 Co336 2.140 . S
N350 C353 1.346 . S
N350 C354 1.345 . S
C351 C352 1.387 . S
C351 C355 1.391 . S
C352 C351 1.387 . S
C352 C353 1.369 . S
C352 H361 0.929 . S
C353 N350 1.346 . S
C353 C352 1.369 . S
C353 H356 0.928 . S
C354 N350 1.345 . S
C354 C355 1.371 . S
C354 H357 0.931 . S
C355 C351 1.391 . S
C355 C354 1.371 . S
C355 H362 0.930 . S
H356 C353 0.928 . S
H357 C354 0.931 . S
H358 C334 0.930 . S
H359 C331 0.930 . S
H360 C340 0.930 . S
H361 C352 0.929 . S
H362 C355 0.930 . S
C363 C364 1.351 . S
C363 N366 1.368 . S
C363 H368 0.931 . S
C364 C363 1.351 . S
C364 N365 1.373 . S
C364 H392 0.930 . S
N365 C364 1.373 . S
N365 C367 1.340 . S
N366 C363 1.368 . S
N366 C367 1.321 . S
N366 Co369 2.135 . S
C367 N365 1.340 . S
C367 N366 1.321 . S
C367 H391 0.930 . S
H368 C363 0.931 . S
Co369 N366 2.135 . S
Co369 N372 2.121 . S
Co369 O377 2.055 . S
Co369 O380 2.039 . S
Co369 N383 2.140 . S
C370 O371 1.227 . S
C370 O380 1.265 . S
O371 C370 1.227 . S
N372 Co369 2.121 . S
N372 C374 1.375 . S
N372 C375 1.313 1_554 S
C373 C374 1.338 1_556 S
C373 N376 1.377 . S
C373 H393 0.930 . S
C374 N372 1.375 . S
C374 C373 1.338 1_554 S
C374 H378 0.931 . S
C375 N372 1.313 1_556 S
C375 N376 1.344 . S
C375 H379 0.930 . S
N376 C373 1.377 . S
N376 C375 1.344 . S
O377 Co369 2.055 . S
O377 C381 1.253 . S
H378 C374 0.931 . S
H379 C375 0.930 . S
O380 Co369 2.039 . S
O380 C370 1.265 . S
C381 O377 1.253 . S
C381 O382 1.227 . S
O382 C381 1.227 . S
N383 Co369 2.140 . S
N383 C386 1.346 . S
N383 C387 1.345 . S
C384 C385 1.387 . S
C384 C388 1.391 . S
C385 C384 1.387 . S
C385 C386 1.369 . S
C385 H394 0.929 . S
C386 N383 1.346 . S
C386 C385 1.369 . S
C386 H389 0.928 . S
C387 N383 1.345 . S
C387 C388 1.371 . S
C387 H390 0.931 . S
C388 C384 1.391 . S
C388 C387 1.371 . S
C388 H395 0.930 . S
H389 C386 0.928 . S
H390 C387 0.931 . S
H391 C367 0.930 . S
H392 C364 0.930 . S
H393 C373 0.930 . S
H394 C385 0.929 . S
H395 C388 0.930 . S
C396 C397 1.351 . S
C396 N399 1.368 . S
C396 H401 0.931 . S
C397 C396 1.351 . S
C397 N398 1.373 . S
C397 H425 0.930 . S
N398 C397 1.373 . S
N398 C400 1.340 . S
N399 C396 1.368 . S
N399 C400 1.321 . S
N399 Co402 2.135 . S
C400 N398 1.340 . S
C400 N399 1.321 . S
C400 H424 0.930 . S
H401 C396 0.931 . S
Co402 N399 2.135 . S
Co402 N405 2.121 . S
Co402 O410 2.055 . S
Co402 O413 2.039 . S
Co402 N416 2.140 . S
C403 O404 1.227 . S
C403 O413 1.265 . S
O404 C403 1.227 . S
N405 Co402 2.121 . S
N405 C407 1.375 . S
N405 C408 1.313 1_556 S
C406 C407 1.338 1_554 S
C406 N409 1.377 . S
C406 H426 0.930 . S
C407 N405 1.375 . S
C407 C406 1.338 1_556 S
C407 H411 0.931 . S
C408 N405 1.313 1_554 S
C408 N409 1.344 . S
C408 H412 0.930 . S
N409 C406 1.377 . S
N409 C408 1.344 . S
O410 Co402 2.055 . S
O410 C414 1.253 . S
H411 C407 0.931 . S
H412 C408 0.930 . S
O413 Co402 2.039 . S
O413 C403 1.265 . S
C414 O410 1.253 . S
C414 O415 1.227 . S
O415 C414 1.227 . S
N416 Co402 2.140 . S
N416 C419 1.346 . S
N416 C420 1.345 . S
C417 C418 1.387 . S
C417 C421 1.391 . S
C418 C417 1.387 . S
C418 C419 1.369 . S
C418 H427 0.929 . S
C419 N416 1.346 . S
C419 C418 1.369 . S
C419 H422 0.928 . S
C420 N416 1.345 . S
C420 C421 1.371 . S
C420 H423 0.931 . S
C421 C417 1.391 . S
C421 C420 1.371 . S
C421 H428 0.930 . S
H422 C419 0.928 . S
H423 C420 0.931 . S
H424 C400 0.930 . S
H425 C397 0.930 . S
H426 C406 0.930 . S
H427 C418 0.929 . S
H428 C421 0.930 . S
C429 C430 1.351 . S
C429 N432 1.368 . S
C429 H434 0.931 . S
C430 C429 1.351 . S
C430 N431 1.373 . S
C430 H458 0.930 . S
N431 C430 1.373 . S
N431 C433 1.340 . S
N432 C429 1.368 . S
N432 C433 1.321 . S
N432 Co435 2.135 . S
C433 N431 1.340 . S
C433 N432 1.321 . S
C433 H457 0.930 . S
H434 C429 0.931 . S
Co435 N432 2.135 . S
Co435 N438 2.121 . S
Co435 O443 2.055 . S
Co435 O446 2.039 . S
Co435 N449 2.140 . S
C436 O437 1.227 . S
C436 O446 1.265 . S
O437 C436 1.227 . S
N438 Co435 2.121 . S
N438 C440 1.375 . S
N438 C441 1.313 1_556 S
C439 C440 1.338 1_554 S
C439 N442 1.377 . S
C439 H459 0.930 . S
C440 N438 1.375 . S
C440 C439 1.338 1_556 S
C440 H444 0.931 . S
C441 N438 1.313 1_554 S
C441 N442 1.344 . S
C441 H445 0.930 . S
N442 C439 1.377 . S
N442 C441 1.344 . S
O443 Co435 2.055 . S
O443 C447 1.253 . S
H444 C440 0.931 . S
H445 C441 0.930 . S
O446 Co435 2.039 . S
O446 C436 1.265 . S
C447 O443 1.253 . S
C447 O448 1.227 . S
O448 C447 1.227 . S
N449 Co435 2.140 . S
N449 C452 1.346 . S
N449 C453 1.345 . S
C450 C451 1.387 . S
C450 C454 1.391 . S
C451 C450 1.387 . S
C451 C452 1.369 . S
C451 H460 0.929 . S
C452 N449 1.346 . S
C452 C451 1.369 . S
C452 H455 0.928 . S
C453 N449 1.345 . S
C453 C454 1.371 . S
C453 H456 0.931 . S
C454 C450 1.391 . S
C454 C453 1.371 . S
C454 H461 0.930 . S
H455 C452 0.928 . S
H456 C453 0.931 . S
H457 C433 0.930 . S
H458 C430 0.930 . S
H459 C439 0.930 . S
H460 C451 0.929 . S
H461 C454 0.930 . S
C462 C463 1.351 . S
C462 N465 1.368 . S
C462 H467 0.931 . S
C463 C462 1.351 . S
C463 N464 1.373 . S
C463 H491 0.930 . S
N464 C463 1.373 . S
N464 C466 1.340 . S
N465 C462 1.368 . S
N465 C466 1.321 . S
N465 Co468 2.135 . S
C466 N464 1.340 . S
C466 N465 1.321 . S
C466 H490 0.930 . S
H467 C462 0.931 . S
Co468 N465 2.135 . S
Co468 N471 2.121 . S
Co468 O476 2.055 . S
Co468 O479 2.039 . S
Co468 N482 2.140 . S
C469 O470 1.227 . S
C469 O479 1.265 . S
O470 C469 1.227 . S
N471 Co468 2.121 . S
N471 C473 1.375 . S
N471 C474 1.313 1_556 S
C472 C473 1.338 1_554 S
C472 N475 1.377 . S
C472 H492 0.930 . S
C473 N471 1.375 . S
C473 C472 1.338 1_556 S
C473 H477 0.931 . S
C474 N471 1.313 1_554 S
C474 N475 1.344 . S
C474 H478 0.930 . S
N475 C472 1.377 . S
N475 C474 1.344 . S
O476 Co468 2.055 . S
O476 C480 1.253 . S
H477 C473 0.931 . S
H478 C474 0.930 . S
O479 Co468 2.039 . S
O479 C469 1.265 . S
C480 O476 1.253 . S
C480 O481 1.227 . S
O481 C480 1.227 . S
N482 Co468 2.140 . S
N482 C485 1.346 . S
N482 C486 1.345 . S
C483 C484 1.387 . S
C483 C487 1.391 . S
C484 C483 1.387 . S
C484 C485 1.369 . S
C484 H493 0.929 . S
C485 N482 1.346 . S
C485 C484 1.369 . S
C485 H488 0.928 . S
C486 N482 1.345 . S
C486 C487 1.371 . S
C486 H489 0.931 . S
C487 C483 1.391 . S
C487 C486 1.371 . S
C487 H494 0.930 . S
H488 C485 0.928 . S
H489 C486 0.931 . S
H490 C466 0.930 . S
H491 C463 0.930 . S
H492 C472 0.930 . S
H493 C484 0.929 . S
H494 C487 0.930 . S
C495 C496 1.351 . S
C495 N498 1.368 . S
C495 H500 0.931 . S
C496 C495 1.351 . S
C496 N497 1.373 . S
C496 H524 0.930 . S
N497 C496 1.373 . S
N497 C499 1.340 . S
N498 C495 1.368 . S
N498 C499 1.321 . S
N498 Co501 2.135 . S
C499 N497 1.340 . S
C499 N498 1.321 . S
C499 H523 0.930 . S
H500 C495 0.931 . S
Co501 N498 2.135 . S
Co501 N504 2.121 . S
Co501 O509 2.055 . S
Co501 O512 2.039 . S
Co501 N515 2.140 . S
C502 O503 1.227 . S
C502 O512 1.265 . S
O503 C502 1.227 . S
N504 Co501 2.121 . S
N504 C506 1.375 . S
N504 C507 1.313 . S
C505 C506 1.338 . S
C505 N508 1.377 . S
C505 H525 0.930 . S
C506 N504 1.375 . S
C506 C505 1.338 . S
C506 H510 0.931 . S
C507 N504 1.313 . S
C507 N508 1.344 . S
C507 H511 0.930 . S
N508 C505 1.377 . S
N508 C507 1.344 . S
O509 Co501 2.055 . S
O509 C513 1.253 . S
H510 C506 0.931 . S
H511 C507 0.930 . S
O512 Co501 2.039 . S
O512 C502 1.265 . S
C513 O509 1.253 . S
C513 O514 1.227 . S
O514 C513 1.227 . S
N515 Co501 2.140 . S
N515 C518 1.346 . S
N515 C519 1.345 . S
C516 C517 1.387 . S
C516 C520 1.391 . S
C517 C516 1.387 . S
C517 C518 1.369 . S
C517 H526 0.929 . S
C518 N515 1.346 . S
C518 C517 1.369 . S
C518 H521 0.928 . S
C519 N515 1.345 . S
C519 C520 1.371 . S
C519 H522 0.931 . S
C520 C516 1.391 . S
C520 C519 1.371 . S
C520 H527 0.930 . S
H521 C518 0.928 . S
H522 C519 0.931 . S
H523 C499 0.930 . S
H524 C496 0.930 . S
H525 C505 0.930 . S
H526 C517 0.929 . S
H527 C520 0.930 . S
C528 C529 1.351 . S
C528 N531 1.368 . S
C528 H533 0.931 . S
C529 C528 1.351 . S
C529 N530 1.373 . S
C529 H557 0.930 . S
N530 C529 1.373 . S
N530 C532 1.340 . S
N531 C528 1.368 . S
N531 C532 1.321 . S
N531 Co534 2.135 . S
C532 N530 1.340 . S
C532 N531 1.321 . S
C532 H556 0.930 . S
H533 C528 0.931 . S
Co534 N531 2.135 . S
Co534 N537 2.121 . S
Co534 O542 2.055 . S
Co534 O545 2.039 . S
Co534 N548 2.140 . S
C535 O536 1.227 . S
C535 O545 1.265 . S
O536 C535 1.227 . S
N537 Co534 2.121 . S
N537 C539 1.375 . S
N537 C540 1.313 . S
C538 C539 1.338 . S
C538 N541 1.377 . S
C538 H558 0.930 . S
C539 N537 1.375 . S
C539 C538 1.338 . S
C539 H543 0.931 . S
C540 N537 1.313 . S
C540 N541 1.344 . S
C540 H544 0.930 . S
N541 C538 1.377 . S
N541 C540 1.344 . S
O542 Co534 2.055 . S
O542 C546 1.253 . S
H543 C539 0.931 . S
H544 C540 0.930 . S
O545 Co534 2.039 . S
O545 C535 1.265 . S
C546 O542 1.253 . S
C546 O547 1.227 . S
O547 C546 1.227 . S
N548 Co534 2.140 . S
N548 C551 1.346 . S
N548 C552 1.345 . S
C549 C550 1.387 . S
C549 C553 1.391 . S
C550 C549 1.387 . S
C550 C551 1.369 . S
C550 H559 0.929 . S
C551 N548 1.346 . S
C551 C550 1.369 . S
C551 H554 0.928 . S
C552 N548 1.345 . S
C552 C553 1.371 . S
C552 H555 0.931 . S
C553 C549 1.391 . S
C553 C552 1.371 . S
C553 H560 0.930 . S
H554 C551 0.928 . S
H555 C552 0.931 . S
H556 C532 0.930 . S
H557 C529 0.930 . S
H558 C538 0.930 . S
H559 C550 0.929 . S
H560 C553 0.930 . S
C561 C562 1.351 . S
C561 N564 1.368 . S
C561 H566 0.931 . S
C562 C561 1.351 . S
C562 N563 1.373 . S
C562 H590 0.930 . S
N563 C562 1.373 . S
N563 C565 1.340 . S
N564 C561 1.368 . S
N564 C565 1.321 . S
N564 Co567 2.135 . S
C565 N563 1.340 . S
C565 N564 1.321 . S
C565 H589 0.930 . S
H566 C561 0.931 . S
Co567 N564 2.135 . S
Co567 N570 2.121 . S
Co567 O575 2.055 . S
Co567 O578 2.039 . S
Co567 N581 2.140 . S
C568 O569 1.227 . S
C568 O578 1.265 . S
O569 C568 1.227 . S
N570 Co567 2.121 . S
N570 C572 1.375 . S
N570 C573 1.313 . S
C571 C572 1.338 . S
C571 N574 1.377 . S
C571 H591 0.930 . S
C572 N570 1.375 . S
C572 C571 1.338 . S
C572 H576 0.931 . S
C573 N570 1.313 . S
C573 N574 1.344 . S
C573 H577 0.930 . S
N574 C571 1.377 . S
N574 C573 1.344 . S
O575 Co567 2.055 . S
O575 C579 1.253 . S
H576 C572 0.931 . S
H577 C573 0.930 . S
O578 Co567 2.039 . S
O578 C568 1.265 . S
C579 O575 1.253 . S
C579 O580 1.227 . S
O580 C579 1.227 . S
N581 Co567 2.140 . S
N581 C584 1.346 . S
N581 C585 1.345 . S
C582 C583 1.387 . S
C582 C586 1.391 . S
C583 C582 1.387 . S
C583 C584 1.369 . S
C583 H592 0.929 . S
C584 N581 1.346 . S
C584 C583 1.369 . S
C584 H587 0.928 . S
C585 N581 1.345 . S
C585 C586 1.371 . S
C585 H588 0.931 . S
C586 C582 1.391 . S
C586 C585 1.371 . S
C586 H593 0.930 . S
H587 C584 0.928 . S
H588 C585 0.931 . S
H589 C565 0.930 . S
H590 C562 0.930 . S
H591 C571 0.930 . S
H592 C583 0.929 . S
H593 C586 0.930 . S
C594 C595 1.363 . S
C594 C600 1.379 . S
C594 N602 1.356 . S
C595 C594 1.363 . S
C595 C601 1.363 . S
C596 C597 1.363 . S
C596 C601 1.379 . S
C596 N603 1.356 . S
C597 C596 1.363 . S
C597 C600 1.363 . S
N598 C600 1.356 . S
N598 H610 0.984 . S
N598 H611 0.985 . S
N599 C601 1.356 . S
N599 H604 0.984 . S
N599 H605 0.985 . S
C600 C594 1.379 . S
C600 C597 1.363 . S
C600 N598 1.356 . S
C601 C595 1.363 . S
C601 C596 1.379 . S
C601 N599 1.356 . S
N602 C594 1.356 . S
N602 H608 0.984 . S
N602 H609 0.984 . S
N603 C596 1.356 . S
N603 H606 0.984 . S
N603 H607 0.985 . S
H604 N599 0.984 . S
H605 N599 0.985 . S
H606 N603 0.984 . S
H607 N603 0.985 . S
H608 N602 0.984 . S
H609 N602 0.984 . S
H610 N598 0.984 . S
H611 N598 0.985 . S
C612 C613 1.363 . S
C612 C618 1.379 . S
C612 N620 1.356 . S
C613 C612 1.363 . S
C613 C619 1.363 . S
C614 C615 1.363 . S
C614 C619 1.379 . S
C614 N621 1.356 . S
C615 C614 1.363 . S
C615 C618 1.363 . S
N616 C618 1.356 . S
N616 H628 0.984 . S
N616 H629 0.985 . S
N617 C619 1.356 . S
N617 H622 0.984 . S
N617 H623 0.985 . S
C618 C612 1.379 . S
C618 C615 1.363 . S
C618 N616 1.356 . S
C619 C613 1.363 . S
C619 C614 1.379 . S
C619 N617 1.356 . S
N620 C612 1.356 . S
N620 H626 0.984 . S
N620 H627 0.984 . S
N621 C614 1.356 . S
N621 H624 0.984 . S
N621 H625 0.985 . S
H622 N617 0.984 . S
H623 N617 0.985 . S
H624 N621 0.984 . S
H625 N621 0.985 . S
H626 N620 0.984 . S
H627 N620 0.984 . S
H628 N616 0.984 . S
H629 N616 0.985 . S
C630 C631 1.363 . S
C630 C636 1.379 . S
C630 N638 1.356 . S
C631 C630 1.363 . S
C631 C637 1.363 . S
C632 C633 1.363 . S
C632 C637 1.379 . S
C632 N639 1.356 . S
C633 C632 1.363 . S
C633 C636 1.363 . S
N634 C636 1.356 . S
N634 H646 0.984 . S
N634 H647 0.985 . S
N635 C637 1.356 . S
N635 H640 0.984 . S
N635 H641 0.985 . S
C636 C630 1.379 . S
C636 C633 1.363 . S
C636 N634 1.356 . S
C637 C631 1.363 . S
C637 C632 1.379 . S
C637 N635 1.356 . S
N638 C630 1.356 . S
N638 H644 0.984 . S
N638 H645 0.984 . S
N639 C632 1.356 . S
N639 H642 0.984 . S
N639 H643 0.985 . S
H640 N635 0.984 . S
H641 N635 0.985 . S
H642 N639 0.984 . S
H643 N639 0.985 . S
H644 N638 0.984 . S
H645 N638 0.984 . S
H646 N634 0.984 . S
H647 N634 0.985 . S
C648 C649 1.363 . S
C648 C654 1.379 . S
C648 N656 1.356 . S
C649 C648 1.363 . S
C649 C655 1.363 . S
C650 C651 1.363 . S
C650 C655 1.379 . S
C650 N657 1.356 . S
C651 C650 1.363 . S
C651 C654 1.363 . S
N652 C654 1.356 . S
N652 H664 0.984 . S
N652 H665 0.985 . S
N653 C655 1.356 . S
N653 H658 0.984 . S
N653 H659 0.985 . S
C654 C648 1.379 . S
C654 C651 1.363 . S
C654 N652 1.356 . S
C655 C649 1.363 . S
C655 C650 1.379 . S
C655 N653 1.356 . S
N656 C648 1.356 . S
N656 H662 0.984 . S
N656 H663 0.984 . S
N657 C650 1.356 . S
N657 H660 0.984 . S
N657 H661 0.985 . S
H658 N653 0.984 . S
H659 N653 0.985 . S
H660 N657 0.984 . S
H661 N657 0.985 . S
H662 N656 0.984 . S
H663 N656 0.984 . S
H664 N652 0.984 . S
H665 N652 0.985 . S
C666 C667 1.363 . S
C666 C672 1.379 . S
C666 N674 1.356 . S
C667 C666 1.363 . S
C667 C673 1.363 . S
C668 C669 1.363 . S
C668 C673 1.379 . S
C668 N675 1.356 . S
C669 C668 1.363 . S
C669 C672 1.363 . S
N670 C672 1.356 . S
N670 H682 0.984 . S
N670 H683 0.985 . S
N671 C673 1.356 . S
N671 H676 0.984 . S
N671 H677 0.985 . S
C672 C666 1.379 . S
C672 C669 1.363 . S
C672 N670 1.356 . S
C673 C667 1.363 . S
C673 C668 1.379 . S
C673 N671 1.356 . S
N674 C666 1.356 . S
N674 H680 0.984 . S
N674 H681 0.984 . S
N675 C668 1.356 . S
N675 H678 0.984 . S
N675 H679 0.985 . S
H676 N671 0.984 . S
H677 N671 0.985 . S
H678 N675 0.984 . S
H679 N675 0.985 . S
H680 N674 0.984 . S
H681 N674 0.984 . S
H682 N670 0.984 . S
H683 N670 0.985 . S
C684 C685 1.363 . S
C684 C690 1.379 . S
C684 N692 1.356 . S
C685 C684 1.363 . S
C685 C691 1.363 . S
C686 C687 1.363 . S
C686 C691 1.379 . S
C686 N693 1.356 . S
C687 C686 1.363 . S
C687 C690 1.363 . S
N688 C690 1.356 . S
N688 H700 0.984 . S
N688 H701 0.985 . S
N689 C691 1.356 . S
N689 H694 0.984 . S
N689 H695 0.985 . S
C690 C684 1.379 . S
C690 C687 1.363 . S
C690 N688 1.356 . S
C691 C685 1.363 . S
C691 C686 1.379 . S
C691 N689 1.356 . S
N692 C684 1.356 . S
N692 H698 0.984 . S
N692 H699 0.984 . S
N693 C686 1.356 . S
N693 H696 0.984 . S
N693 H697 0.985 . S
H694 N689 0.984 . S
H695 N689 0.985 . S
H696 N693 0.984 . S
H697 N693 0.985 . S
H698 N692 0.984 . S
H699 N692 0.984 . S
H700 N688 0.984 . S
H701 N688 0.985 . S
C702 C703 1.363 . S
C702 C708 1.379 1_554 S
C702 N710 1.356 . S
C703 C702 1.363 . S
C703 C709 1.363 1_554 S
C704 C705 1.363 . S
C704 C709 1.379 . S
C704 N711 1.356 . S
C705 C704 1.363 . S
C705 C708 1.363 . S
N706 C708 1.356 . S
N706 H718 0.984 . S
N706 H719 0.985 . S
N707 C709 1.356 1_554 S
N707 H712 0.984 . S
N707 H713 0.985 1_554 S
C708 C702 1.379 1_556 S
C708 C705 1.363 . S
C708 N706 1.356 . S
C709 C703 1.363 1_556 S
C709 C704 1.379 . S
C709 N707 1.356 1_556 S
N710 C702 1.356 . S
N710 H716 0.984 . S
N710 H717 0.984 . S
N711 C704 1.356 . S
N711 H714 0.984 . S
N711 H715 0.985 . S
H712 N707 0.984 . S
H713 N707 0.985 1_556 S
H714 N711 0.984 . S
H715 N711 0.985 . S
H716 N710 0.984 . S
H717 N710 0.984 . S
H718 N706 0.984 . S
H719 N706 0.985 . S
C720 C721 1.363 1_556 S
C720 C726 1.380 . S
C720 N728 1.356 1_556 S
C721 C720 1.363 1_554 S
C721 C727 1.363 1_554 S
C722 C723 1.363 . S
C722 C727 1.379 . S
C722 N729 1.356 . S
C723 C722 1.363 . S
C723 C726 1.363 . S
N724 C726 1.356 . S
N724 H736 0.984 . S
N724 H737 0.985 . S
N725 C727 1.356 1_554 S
N725 H730 0.984 . S
N725 H731 0.985 . S
C726 C720 1.380 . S
C726 C723 1.363 . S
C726 N724 1.356 . S
C727 C721 1.363 1_556 S
C727 C722 1.379 . S
C727 N725 1.356 1_556 S
N728 C720 1.356 1_554 S
N728 H734 0.984 . S
N728 H735 0.984 . S
N729 C722 1.356 . S
N729 H732 0.984 . S
N729 H733 0.985 . S
H730 N725 0.984 . S
H731 N725 0.985 . S
H732 N729 0.984 . S
H733 N729 0.985 . S
H734 N728 0.984 . S
H735 N728 0.984 . S
H736 N724 0.984 . S
H737 N724 0.985 . S
C738 C739 1.363 . S
C738 C744 1.379 . S
C738 N746 1.356 . S
C739 C738 1.363 . S
C739 C745 1.363 . S
C740 C741 1.363 . S
C740 C745 1.379 1_554 S
C740 N747 1.356 . S
C741 C740 1.363 . S
C741 C744 1.363 1_554 S
N742 C744 1.356 1_554 S
N742 H754 0.984 . S
N742 H755 0.985 . S
N743 C745 1.356 . S
N743 H748 0.984 . S
N743 H749 0.985 . S
C744 C738 1.379 . S
C744 C741 1.363 1_556 S
C744 N742 1.356 1_556 S
C745 C739 1.363 . S
C745 C740 1.379 1_556 S
C745 N743 1.356 . S
N746 C738 1.356 . S
N746 H752 0.984 . S
N746 H753 0.984 . S
N747 C740 1.356 . S
N747 H750 0.984 . S
N747 H751 0.985 . S
H748 N743 0.984 . S
H749 N743 0.985 . S
H750 N747 0.984 . S
H751 N747 0.985 . S
H752 N746 0.984 . S
H753 N746 0.984 . S
H754 N742 0.984 . S
H755 N742 0.985 . S
C756 C757 1.363 . S
C756 C762 1.379 . S
C756 N764 1.356 . S
C757 C756 1.363 . S
C757 C763 1.363 . S
C758 C759 1.363 . S
C758 C763 1.379 . S
C758 N765 1.356 . S
C759 C758 1.363 . S
C759 C762 1.363 . S
N760 C762 1.356 . S
N760 H772 0.984 . S
N760 H773 0.985 . S
N761 C763 1.356 . S
N761 H766 0.984 . S
N761 H767 0.985 . S
C762 C756 1.379 . S
C762 C759 1.363 . S
C762 N760 1.356 . S
C763 C757 1.363 . S
C763 C758 1.379 . S
C763 N761 1.356 . S
N764 C756 1.356 . S
N764 H770 0.984 . S
N764 H771 0.984 . S
N765 C758 1.356 . S
N765 H768 0.984 . S
N765 H769 0.985 . S
H766 N761 0.984 . S
H767 N761 0.985 . S
H768 N765 0.984 . S
H769 N765 0.985 . S
H770 N764 0.984 . S
H771 N764 0.984 . S
H772 N760 0.984 . S
H773 N760 0.985 . S
C774 C775 1.363 . S
C774 C780 1.379 . S
C774 N782 1.356 . S
C775 C774 1.363 . S
C775 C781 1.363 . S
C776 C777 1.363 . S
C776 C781 1.379 . S
C776 N783 1.356 . S
C777 C776 1.363 . S
C777 C780 1.363 . S
N778 C780 1.356 . S
N778 H790 0.984 . S
N778 H791 0.985 . S
N779 C781 1.356 . S
N779 H784 0.984 . S
N779 H785 0.985 . S
C780 C774 1.379 . S
C780 C777 1.363 . S
C780 N778 1.356 . S
C781 C775 1.363 . S
C781 C776 1.379 . S
C781 N779 1.356 . S
N782 C774 1.356 . S
N782 H788 0.984 . S
N782 H789 0.984 . S
N783 C776 1.356 . S
N783 H786 0.984 . S
N783 H787 0.985 . S
H784 N779 0.984 . S
H785 N779 0.985 . S
H786 N783 0.984 . S
H787 N783 0.985 . S
H788 N782 0.984 . S
H789 N782 0.984 . S
H790 N778 0.984 . S
H791 N778 0.985 . S
C792 C793 1.363 . S
C792 C798 1.379 . S
C792 N800 1.356 . S
C793 C792 1.363 . S
C793 C799 1.363 . S
C794 C795 1.363 . S
C794 C799 1.379 . S
C794 N801 1.356 . S
C795 C794 1.363 . S
C795 C798 1.363 . S
N796 C798 1.356 . S
N796 H808 0.984 . S
N796 H809 0.985 . S
N797 C799 1.356 . S
N797 H802 0.984 . S
N797 H803 0.985 . S
C798 C792 1.379 . S
C798 C795 1.363 . S
C798 N796 1.356 . S
C799 C793 1.363 . S
C799 C794 1.379 . S
C799 N797 1.356 . S
N800 C792 1.356 . S
N800 H806 0.984 . S
N800 H807 0.984 . S
N801 C794 1.356 . S
N801 H804 0.984 . S
N801 H805 0.985 . S
H802 N797 0.984 . S
H803 N797 0.985 . S
H804 N801 0.984 . S
H805 N801 0.985 . S
H806 N800 0.984 . S
H807 N800 0.984 . S
H808 N796 0.984 . S
H809 N796 0.985 . S
C810 C811 1.363 . S
C810 C816 1.379 . S
C810 N818 1.356 . S
C811 C810 1.363 . S
C811 C817 1.363 . S
C812 C813 1.363 . S
C812 C817 1.379 . S
C812 N819 1.356 . S
C813 C812 1.363 . S
C813 C816 1.363 . S
N814 C816 1.356 . S
N814 H826 0.984 . S
N814 H827 0.985 . S
N815 C817 1.356 . S
N815 H820 0.984 . S
N815 H821 0.985 . S
C816 C810 1.379 . S
C816 C813 1.363 . S
C816 N814 1.356 . S
C817 C811 1.363 . S
C817 C812 1.379 . S
C817 N815 1.356 . S
N818 C810 1.356 . S
N818 H824 0.984 . S
N818 H825 0.984 . S
N819 C812 1.356 . S
N819 H822 0.984 . S
N819 H823 0.985 . S
H820 N815 0.984 . S
H821 N815 0.985 . S
H822 N819 0.984 . S
H823 N819 0.985 . S
H824 N818 0.984 . S
H825 N818 0.984 . S
H826 N814 0.984 . S
H827 N814 0.985 . S
C828 C829 1.363 . S
C828 C834 1.379 . S
C828 N836 1.356 . S
C829 C828 1.363 . S
C829 C835 1.363 . S
C830 C831 1.363 . S
C830 C835 1.379 . S
C830 N837 1.356 . S
C831 C830 1.363 . S
C831 C834 1.363 . S
N832 C834 1.356 . S
N832 H844 0.984 . S
N832 H845 0.985 . S
N833 C835 1.356 . S
N833 H838 0.984 . S
N833 H839 0.985 . S
C834 C828 1.379 . S
C834 C831 1.363 . S
C834 N832 1.356 . S
C835 C829 1.363 . S
C835 C830 1.379 . S
C835 N833 1.356 . S
N836 C828 1.356 . S
N836 H842 0.984 . S
N836 H843 0.984 . S
N837 C830 1.356 . S
N837 H840 0.984 . S
N837 H841 0.985 . S
H838 N833 0.984 . S
H839 N833 0.985 . S
H840 N837 0.984 . S
H841 N837 0.985 . S
H842 N836 0.984 . S
H843 N836 0.984 . S
H844 N832 0.984 . S
H845 N832 0.985 . S
C846 C847 1.363 . S
C846 C852 1.379 . S
C846 N854 1.356 . S
C847 C846 1.363 . S
C847 C853 1.363 . S
C848 C849 1.363 . S
C848 C853 1.379 . S
C848 N855 1.356 . S
C849 C848 1.363 . S
C849 C852 1.363 . S
N850 C852 1.356 . S
N850 H862 0.984 . S
N850 H863 0.985 . S
N851 C853 1.356 . S
N851 H856 0.984 . S
N851 H857 0.985 . S
C852 C846 1.379 . S
C852 C849 1.363 . S
C852 N850 1.356 . S
C853 C847 1.363 . S
C853 C848 1.379 . S
C853 N851 1.356 . S
N854 C846 1.356 . S
N854 H860 0.984 . S
N854 H861 0.984 . S
N855 C848 1.356 . S
N855 H858 0.984 . S
N855 H859 0.985 . S
H856 N851 0.984 . S
H857 N851 0.985 . S
H858 N855 0.984 . S
H859 N855 0.985 . S
H860 N854 0.984 . S
H861 N854 0.984 . S
H862 N850 0.984 . S
H863 N850 0.985 . S
C864 C865 1.363 . S
C864 C870 1.379 1_554 S
C864 N872 1.356 . S
C865 C864 1.363 . S
C865 C871 1.363 . S
C866 C867 1.363 1_554 S
C866 C871 1.379 . S
C866 N873 1.356 1_554 S
C867 C866 1.363 1_556 S
C867 C870 1.363 . S
N868 C870 1.356 . S
N868 H880 0.984 . S
N868 H881 0.985 . S
N869 C871 1.356 . S
N869 H874 0.984 . S
N869 H875 0.985 . S
C870 C864 1.379 1_556 S
C870 C867 1.363 . S
C870 N868 1.356 . S
C871 C865 1.363 . S
C871 C866 1.379 . S
C871 N869 1.356 . S
N872 C864 1.356 . S
N872 H878 0.984 . S
N872 H879 0.984 . S
N873 C866 1.356 1_556 S
N873 H876 0.984 . S
N873 H877 0.985 . S
H874 N869 0.984 . S
H875 N869 0.985 . S
H876 N873 0.984 . S
H877 N873 0.985 . S
H878 N872 0.984 . S
H879 N872 0.984 . S
H880 N868 0.984 . S
H881 N868 0.985 . S
C882 C883 1.363 . S
C882 C888 1.379 1_554 S
C882 N890 1.356 . S
C883 C882 1.363 . S
C883 C889 1.363 . S
C884 C885 1.363 1_554 S
C884 C889 1.379 . S
C884 N891 1.356 1_554 S
C885 C884 1.363 1_556 S
C885 C888 1.363 . S
N886 C888 1.356 . S
N886 H898 0.984 . S
N886 H899 0.985 . S
N887 C889 1.356 . S
N887 H892 0.984 . S
N887 H893 0.985 . S
C888 C882 1.379 1_556 S
C888 C885 1.363 . S
C888 N886 1.356 . S
C889 C883 1.363 . S
C889 C884 1.379 . S
C889 N887 1.356 . S
N890 C882 1.356 . S
N890 H896 0.984 . S
N890 H897 0.984 . S
N891 C884 1.356 1_556 S
N891 H894 0.984 . S
N891 H895 0.985 1_556 S
H892 N887 0.984 . S
H893 N887 0.985 . S
H894 N891 0.984 . S
H895 N891 0.985 1_554 S
H896 N890 0.984 . S
H897 N890 0.984 . S
H898 N886 0.984 . S
H899 N886 0.985 . S
C900 C901 1.363 1_554 S
C900 C906 1.379 . S
C900 N908 1.356 1_554 S
C901 C900 1.363 1_556 S
C901 C907 1.363 . S
C902 C903 1.363 . S
C902 C907 1.379 1_554 S
C902 N909 1.356 . S
C903 C902 1.363 . S
C903 C906 1.363 . S
N904 C906 1.356 . S
N904 H916 0.984 . S
N904 H917 0.985 . S
N905 C907 1.356 . S
N905 H910 0.984 . S
N905 H911 0.985 . S
C906 C900 1.379 . S
C906 C903 1.363 . S
C906 N904 1.356 . S
C907 C901 1.363 . S
C907 C902 1.379 1_556 S
C907 N905 1.356 . S
N908 C900 1.356 1_556 S
N908 H914 0.984 1_556 S
N908 H915 0.984 . S
N909 C902 1.356 . S
N909 H912 0.984 . S
N909 H913 0.985 . S
H910 N905 0.984 . S
H911 N905 0.985 . S
H912 N909 0.984 . S
H913 N909 0.985 . S
H914 N908 0.984 1_554 S
H915 N908 0.984 . S
H916 N904 0.984 . S
H917 N904 0.985 . S
C918 C919 1.363 . S
C918 C924 1.379 . S
C918 N926 1.356 . S
C919 C918 1.363 . S
C919 C925 1.363 . S
C920 C921 1.363 . S
C920 C925 1.379 . S
C920 N927 1.356 . S
C921 C920 1.363 . S
C921 C924 1.363 . S
N922 C924 1.356 . S
N922 H934 0.984 . S
N922 H935 0.985 . S
N923 C925 1.356 . S
N923 H928 0.984 . S
N923 H929 0.985 . S
C924 C918 1.379 . S
C924 C921 1.363 . S
C924 N922 1.356 . S
C925 C919 1.363 . S
C925 C920 1.379 . S
C925 N923 1.356 . S
N926 C918 1.356 . S
N926 H932 0.984 . S
N926 H933 0.984 . S
N927 C920 1.356 . S
N927 H930 0.984 . S
N927 H931 0.985 . S
H928 N923 0.984 . S
H929 N923 0.985 . S
H930 N927 0.984 . S
H931 N927 0.985 . S
H932 N926 0.984 . S
H933 N926 0.984 . S
H934 N922 0.984 . S
H935 N922 0.985 . S
C936 C937 1.363 . S
C936 C942 1.379 . S
C936 N944 1.356 . S
C937 C936 1.363 . S
C937 C943 1.363 . S
C938 C939 1.363 . S
C938 C943 1.379 . S
C938 N945 1.356 . S
C939 C938 1.363 . S
C939 C942 1.363 . S
N940 C942 1.356 . S
N940 H952 0.984 . S
N940 H953 0.985 . S
N941 C943 1.356 . S
N941 H946 0.984 . S
N941 H947 0.985 . S
C942 C936 1.379 . S
C942 C939 1.363 . S
C942 N940 1.356 . S
C943 C937 1.363 . S
C943 C938 1.379 . S
C943 N941 1.356 . S
N944 C936 1.356 . S
N944 H950 0.984 . S
N944 H951 0.984 . S
N945 C938 1.356 . S
N945 H948 0.984 . S
N945 H949 0.985 . S
H946 N941 0.984 . S
H947 N941 0.985 . S
H948 N945 0.984 . S
H949 N945 0.985 . S
H950 N944 0.984 . S
H951 N944 0.984 . S
H952 N940 0.984 . S
H953 N940 0.985 . S
C954 C955 1.363 . S
C954 C960 1.379 . S
C954 N962 1.356 . S
C955 C954 1.363 . S
C955 C961 1.363 . S
C956 C957 1.363 . S
C956 C961 1.379 . S
C956 N963 1.356 . S
C957 C956 1.363 . S
C957 C960 1.363 . S
N958 C960 1.356 . S
N958 H970 0.984 . S
N958 H971 0.985 . S
N959 C961 1.356 . S
N959 H964 0.984 . S
N959 H965 0.985 . S
C960 C954 1.379 . S
C960 C957 1.363 . S
C960 N958 1.356 . S
C961 C955 1.363 . S
C961 C956 1.379 . S
C961 N959 1.356 . S
N962 C954 1.356 . S
N962 H968 0.984 . S
N962 H969 0.984 . S
N963 C956 1.356 . S
N963 H966 0.984 . S
N963 H967 0.985 . S
H964 N959 0.984 . S
H965 N959 0.985 . S
H966 N963 0.984 . S
H967 N963 0.985 . S
H968 N962 0.984 . S
H969 N962 0.984 . S
H970 N958 0.984 . S
H971 N958 0.985 . S
C972 C973 1.363 . S
C972 C978 1.379 . S
C972 N980 1.356 . S
C973 C972 1.363 . S
C973 C979 1.363 . S
C974 C975 1.363 . S
C974 C979 1.379 . S
C974 N981 1.356 . S
C975 C974 1.363 . S
C975 C978 1.363 . S
N976 C978 1.356 . S
N976 H988 0.984 . S
N976 H989 0.985 . S
N977 C979 1.356 . S
N977 H982 0.984 . S
N977 H983 0.985 . S
C978 C972 1.379 . S
C978 C975 1.363 . S
C978 N976 1.356 . S
C979 C973 1.363 . S
C979 C974 1.379 . S
C979 N977 1.356 . S
N980 C972 1.356 . S
N980 H986 0.984 . S
N980 H987 0.984 . S
N981 C974 1.356 . S
N981 H984 0.984 . S
N981 H985 0.985 . S
H982 N977 0.984 . S
H983 N977 0.985 . S
H984 N981 0.984 . S
H985 N981 0.985 . S
H986 N980 0.984 . S
H987 N980 0.984 . S
H988 N976 0.984 . S
H989 N976 0.985 . S
C990 C991 1.363 . S
C990 C996 1.379 . S
C990 N998 1.356 . S
C991 C990 1.363 . S
C991 C997 1.363 . S
C992 C993 1.363 . S
C992 C997 1.379 . S
C992 N999 1.356 . S
C993 C992 1.363 . S
C993 C996 1.363 . S
N994 C996 1.356 . S
N994 H1006 0.984 . S
N994 H1007 0.985 . S
N995 C997 1.356 . S
N995 H1000 0.984 . S
N995 H1001 0.985 . S
C996 C990 1.379 . S
C996 C993 1.363 . S
C996 N994 1.356 . S
C997 C991 1.363 . S
C997 C992 1.379 . S
C997 N995 1.356 . S
N998 C990 1.356 . S
N998 H1004 0.984 . S
N998 H1005 0.984 . S
N999 C992 1.356 . S
N999 H1002 0.984 . S
N999 H1003 0.985 . S
H1000 N995 0.984 . S
H1001 N995 0.985 . S
H1002 N999 0.984 . S
H1003 N999 0.985 . S
H1004 N998 0.984 . S
H1005 N998 0.984 . S
H1006 N994 0.984 . S
H1007 N994 0.985 . S
C1008 C1009 1.363 . S
C1008 C1014 1.379 . S
C1008 N1016 1.356 . S
C1009 C1008 1.363 . S
C1009 C1015 1.363 . S
C1010 C1011 1.363 . S
C1010 C1015 1.379 . S
C1010 N1017 1.356 . S
C1011 C1010 1.363 . S
C1011 C1014 1.363 . S
N1012 C1014 1.356 . S
N1012 H1024 0.984 . S
N1012 H1025 0.985 . S
N1013 C1015 1.356 . S
N1013 H1018 0.984 . S
N1013 H1019 0.985 . S
C1014 C1008 1.379 . S
C1014 C1011 1.363 . S
C1014 N1012 1.356 . S
C1015 C1009 1.363 . S
C1015 C1010 1.379 . S
C1015 N1013 1.356 . S
N1016 C1008 1.356 . S
N1016 H1022 0.984 . S
N1016 H1023 0.984 . S
N1017 C1010 1.356 . S
N1017 H1020 0.984 . S
N1017 H1021 0.985 . S
H1018 N1013 0.984 . S
H1019 N1013 0.985 . S
H1020 N1017 0.984 . S
H1021 N1017 0.985 . S
H1022 N1016 0.984 . S
H1023 N1016 0.984 . S
H1024 N1012 0.984 . S
H1025 N1012 0.985 . S
C1026 C1027 1.363 . S
C1026 C1032 1.379 1_654 S
C1026 N1034 1.356 . S
C1027 C1026 1.363 . S
C1027 C1033 1.363 . S
C1028 C1029 1.363 . S
C1028 C1033 1.379 1_456 S
C1028 N1035 1.356 . S
C1029 C1028 1.363 . S
C1029 C1032 1.363 . S
N1030 C1032 1.356 . S
N1030 H1042 0.984 . S
N1030 H1043 0.985 . S
N1031 C1033 1.356 . S
N1031 H1036 0.984 . S
N1031 H1037 0.985 . S
C1032 C1026 1.379 1_456 S
C1032 C1029 1.363 . S
C1032 N1030 1.356 . S
C1033 C1027 1.363 . S
C1033 C1028 1.379 1_654 S
C1033 N1031 1.356 . S
N1034 C1026 1.356 . S
N1034 H1040 0.984 . S
N1034 H1041 0.984 . S
N1035 C1028 1.356 . S
N1035 H1038 0.984 . S
N1035 H1039 0.985 . S
H1036 N1031 0.984 . S
H1037 N1031 0.985 . S
H1038 N1035 0.984 . S
H1039 N1035 0.985 . S
H1040 N1034 0.984 . S
H1041 N1034 0.984 . S
H1042 N1030 0.984 . S
H1043 N1030 0.985 . S
C1044 C1045 1.363 . S
C1044 C1050 1.379 1_556 S
C1044 N1052 1.356 . S
C1045 C1044 1.363 . S
C1045 C1051 1.363 . S
C1046 C1047 1.363 . S
C1046 C1051 1.379 1_554 S
C1046 N1053 1.356 . S
C1047 C1046 1.363 . S
C1047 C1050 1.363 . S
N1048 C1050 1.356 . S
N1048 H1060 0.984 . S
N1048 H1061 0.985 . S
N1049 C1051 1.356 . S
N1049 H1054 0.984 . S
N1049 H1055 0.985 . S
C1050 C1044 1.379 1_554 S
C1050 C1047 1.363 . S
C1050 N1048 1.356 . S
C1051 C1045 1.363 . S
C1051 C1046 1.379 1_556 S
C1051 N1049 1.356 . S
N1052 C1044 1.356 . S
N1052 H1058 0.984 . S
N1052 H1059 0.984 . S
N1053 C1046 1.356 . S
N1053 H1056 0.984 . S
N1053 H1057 0.985 . S
H1054 N1049 0.984 . S
H1055 N1049 0.985 . S
H1056 N1053 0.984 . S
H1057 N1053 0.985 . S
H1058 N1052 0.984 . S
H1059 N1052 0.984 . S
H1060 N1048 0.984 . S
H1061 N1048 0.985 . S
C1062 C1063 1.363 1_565 S
C1062 C1068 1.379 1_554 S
C1062 N1070 1.356 1_565 S
C1063 C1062 1.363 1_545 S
C1063 C1069 1.363 . S
C1064 C1065 1.363 1_545 S
C1064 C1069 1.379 1_556 S
C1064 N1071 1.356 1_545 S
C1065 C1064 1.363 1_565 S
C1065 C1068 1.363 . S
N1066 C1068 1.356 . S
N1066 H1078 0.984 1_556 S
N1066 H1079 0.985 . S
N1067 C1069 1.356 . S
N1067 H1072 0.984 . S
N1067 H1073 0.985 1_554 S
C1068 C1062 1.379 1_556 S
C1068 C1065 1.363 . S
C1068 N1066 1.356 . S
C1069 C1063 1.363 . S
C1069 C1064 1.379 1_554 S
C1069 N1067 1.356 . S
N1070 C1062 1.356 1_545 S
N1070 H1076 0.984 1_545 S
N1070 H1077 0.984 . S
N1071 C1064 1.356 1_565 S
N1071 H1074 0.984 . S
N1071 H1075 0.985 1_565 S
H1072 N1067 0.984 . S
H1073 N1067 0.985 1_556 S
H1074 N1071 0.984 . S
H1075 N1071 0.985 1_545 S
H1076 N1070 0.984 1_565 S
H1077 N1070 0.984 . S
H1078 N1066 0.984 1_554 S
H1079 N1066 0.985 . S
C1080 C1081 1.363 . S
C1080 C1086 1.379 . S
C1080 N1088 1.356 . S
C1081 C1080 1.363 . S
C1081 C1087 1.363 1_554 S
C1082 C1083 1.363 . S
C1082 C1087 1.379 . S
C1082 N1089 1.356 . S
C1083 C1082 1.363 . S
C1083 C1086 1.363 1_556 S
N1084 C1086 1.356 . S
N1084 H1096 0.984 . S
N1084 H1097 0.985 . S
N1085 C1087 1.356 . S
N1085 H1090 0.984 . S
N1085 H1091 0.985 . S
C1086 C1080 1.379 . S
C1086 C1083 1.363 1_554 S
C1086 N1084 1.356 . S
C1087 C1081 1.363 1_556 S
C1087 C1082 1.379 . S
C1087 N1085 1.356 . S
N1088 C1080 1.356 . S
N1088 H1094 0.984 . S
N1088 H1095 0.984 . S
N1089 C1082 1.356 . S
N1089 H1092 0.984 . S
N1089 H1093 0.985 . S
H1090 N1085 0.984 . S
H1091 N1085 0.985 . S
H1092 N1089 0.984 . S
H1093 N1089 0.985 . S
H1094 N1088 0.984 . S
H1095 N1088 0.984 . S
H1096 N1084 0.984 . S
H1097 N1084 0.985 . S
C1098 C1099 1.363 1_556 S
C1098 C1104 1.379 1_565 S
C1098 N1106 1.356 . S
C1099 C1098 1.363 1_554 S
C1099 C1105 1.363 . S
C1100 C1101 1.363 1_554 S
C1100 C1105 1.379 1_545 S
C1100 N1107 1.356 . S
C1101 C1100 1.363 1_556 S
C1101 C1104 1.363 . S
N1102 C1104 1.356 . S
N1102 H1114 0.984 . S
N1102 H1115 0.985 . S
N1103 C1105 1.356 . S
N1103 H1108 0.984 . S
N1103 H1109 0.985 . S
C1104 C1098 1.379 1_545 S
C1104 C1101 1.363 . S
C1104 N1102 1.356 . S
C1105 C1099 1.363 . S
C1105 C1100 1.379 1_565 S
C1105 N1103 1.356 . S
N1106 C1098 1.356 . S
N1106 H1112 0.984 . S
N1106 H1113 0.984 . S
N1107 C1100 1.356 . S
N1107 H1110 0.984 . S
N1107 H1111 0.985 . S
H1108 N1103 0.984 . S
H1109 N1103 0.985 . S
H1110 N1107 0.984 . S
H1111 N1107 0.985 . S
H1112 N1106 0.984 . S
H1113 N1106 0.984 . S
H1114 N1102 0.984 . S
H1115 N1102 0.985 . S
C1116 C1117 1.363 . S
C1116 C1122 1.379 1_655 S
C1116 N1124 1.356 . S
C1117 C1116 1.363 . S
C1117 C1123 1.363 1_556 S
C1118 C1119 1.363 . S
C1118 C1123 1.379 1_455 S
C1118 N1125 1.356 . S
C1119 C1118 1.363 . S
C1119 C1122 1.363 1_554 S
N1120 C1122 1.356 . S
N1120 H1132 0.984 . S
N1120 H1133 0.985 . S
N1121 C1123 1.356 . S
N1121 H1126 0.984 . S
N1121 H1127 0.985 . S
C1122 C1116 1.379 1_455 S
C1122 C1119 1.363 1_556 S
C1122 N1120 1.356 . S
C1123 C1117 1.363 1_554 S
C1123 C1118 1.379 1_655 S
C1123 N1121 1.356 . S
N1124 C1116 1.356 . S
N1124 H1130 0.984 . S
N1124 H1131 0.984 . S
N1125 C1118 1.356 . S
N1125 H1128 0.984 . S
N1125 H1129 0.985 . S
H1126 N1121 0.984 . S
H1127 N1121 0.985 . S
H1128 N1125 0.984 . S
H1129 N1125 0.985 . S
H1130 N1124 0.984 . S
H1131 N1124 0.984 . S
H1132 N1120 0.984 . S
H1133 N1120 0.985 . S
C1134 C1135 1.363 1_554 S
C1134 C1140 1.379 . S
C1134 N1142 1.356 . S
C1135 C1134 1.363 1_556 S
C1135 C1141 1.363 . S
C1136 C1137 1.363 1_556 S
C1136 C1141 1.379 . S
C1136 N1143 1.356 . S
C1137 C1136 1.363 1_554 S
C1137 C1140 1.363 . S
N1138 C1140 1.356 . S
N1138 H1150 0.984 . S
N1138 H1151 0.985 . S
N1139 C1141 1.356 . S
N1139 H1144 0.984 . S
N1139 H1145 0.985 . S
C1140 C1134 1.379 . S
C1140 C1137 1.363 . S
C1140 N1138 1.356 . S
C1141 C1135 1.363 . S
C1141 C1136 1.379 . S
C1141 N1139 1.356 . S
N1142 C1134 1.356 . S
N1142 H1148 0.984 . S
N1142 H1149 0.984 . S
N1143 C1136 1.356 . S
N1143 H1146 0.984 . S
N1143 H1147 0.985 . S
H1144 N1139 0.984 . S
H1145 N1139 0.985 . S
H1146 N1143 0.984 . S
H1147 N1143 0.985 . S
H1148 N1142 0.984 . S
H1149 N1142 0.984 . S
H1150 N1138 0.984 . S
H1151 N1138 0.985 . S
C1152 C1153 1.363 . S
C1152 C1158 1.379 1_545 S
C1152 N1160 1.356 . S
C1153 C1152 1.363 . S
C1153 C1159 1.363 1_556 S
C1154 C1155 1.363 . S
C1154 C1159 1.379 1_565 S
C1154 N1161 1.356 . S
C1155 C1154 1.363 . S
C1155 C1158 1.363 1_554 S
N1156 C1158 1.356 . S
N1156 H1168 0.984 . S
N1156 H1169 0.985 . S
N1157 C1159 1.356 . S
N1157 H1162 0.984 . S
N1157 H1163 0.985 . S
C1158 C1152 1.379 1_565 S
C1158 C1155 1.363 1_556 S
C1158 N1156 1.356 . S
C1159 C1153 1.363 1_554 S
C1159 C1154 1.379 1_545 S
C1159 N1157 1.356 . S
N1160 C1152 1.356 . S
N1160 H1166 0.984 . S
N1160 H1167 0.984 . S
N1161 C1154 1.356 . S
N1161 H1164 0.984 . S
N1161 H1165 0.985 . S
H1162 N1157 0.984 . S
H1163 N1157 0.985 . S
H1164 N1161 0.984 . S
H1165 N1161 0.985 . S
H1166 N1160 0.984 . S
H1167 N1160 0.984 . S
H1168 N1156 0.984 . S
H1169 N1156 0.985 . S
C1170 C1171 1.363 . S
C1170 C1176 1.379 1_655 S
C1170 N1178 1.356 . S
C1171 C1170 1.363 . S
C1171 C1177 1.363 1_556 S
C1172 C1173 1.363 . S
C1172 C1177 1.379 1_455 S
C1172 N1179 1.356 . S
C1173 C1172 1.363 . S
C1173 C1176 1.363 1_554 S
N1174 C1176 1.356 . S
N1174 H1186 0.984 . S
N1174 H1187 0.985 . S
N1175 C1177 1.356 . S
N1175 H1180 0.984 . S
N1175 H1181 0.985 . S
C1176 C1170 1.379 1_455 S
C1176 C1173 1.363 1_556 S
C1176 N1174 1.356 . S
C1177 C1171 1.363 1_554 S
C1177 C1172 1.379 1_655 S
C1177 N1175 1.356 . S
N1178 C1170 1.356 . S
N1178 H1184 0.984 . S
N1178 H1185 0.984 . S
N1179 C1172 1.356 . S
N1179 H1182 0.984 . S
N1179 H1183 0.985 . S
H1180 N1175 0.984 . S
H1181 N1175 0.985 . S
H1182 N1179 0.984 . S
H1183 N1179 0.985 . S
H1184 N1178 0.984 . S
H1185 N1178 0.984 . S
H1186 N1174 0.984 . S
H1187 N1174 0.985 . S
C1188 C1189 1.363 . S
C1188 C1194 1.379 . S
C1188 N1196 1.356 . S
C1189 C1188 1.363 . S
C1189 C1195 1.363 . S
C1190 C1191 1.363 . S
C1190 C1195 1.379 . S
C1190 N1197 1.356 . S
C1191 C1190 1.363 . S
C1191 C1194 1.363 . S
N1192 C1194 1.356 . S
N1192 H1204 0.984 . S
N1192 H1205 0.985 . S
N1193 C1195 1.356 . S
N1193 H1198 0.984 . S
N1193 H1199 0.985 . S
C1194 C1188 1.379 . S
C1194 C1191 1.363 . S
C1194 N1192 1.356 . S
C1195 C1189 1.363 . S
C1195 C1190 1.379 . S
C1195 N1193 1.356 . S
N1196 C1188 1.356 . S
N1196 H1202 0.984 . S
N1196 H1203 0.984 . S
N1197 C1190 1.356 . S
N1197 H1200 0.984 . S
N1197 H1201 0.985 . S
H1198 N1193 0.984 . S
H1199 N1193 0.985 . S
H1200 N1197 0.984 . S
H1201 N1197 0.985 . S
H1202 N1196 0.984 . S
H1203 N1196 0.984 . S
H1204 N1192 0.984 . S
H1205 N1192 0.985 . S
C1206 C1207 1.363 . S
C1206 C1212 1.379 . S
C1206 N1214 1.356 . S
C1207 C1206 1.363 . S
C1207 C1213 1.363 . S
C1208 C1209 1.363 . S
C1208 C1213 1.379 . S
C1208 N1215 1.356 . S
C1209 C1208 1.363 . S
C1209 C1212 1.363 . S
N1210 C1212 1.356 . S
N1210 H1222 0.984 . S
N1210 H1223 0.985 . S
N1211 C1213 1.356 . S
N1211 H1216 0.984 . S
N1211 H1217 0.985 . S
C1212 C1206 1.379 . S
C1212 C1209 1.363 . S
C1212 N1210 1.356 . S
C1213 C1207 1.363 . S
C1213 C1208 1.379 . S
C1213 N1211 1.356 . S
N1214 C1206 1.356 . S
N1214 H1220 0.984 . S
N1214 H1221 0.984 . S
N1215 C1208 1.356 . S
N1215 H1218 0.984 . S
N1215 H1219 0.985 . S
H1216 N1211 0.984 . S
H1217 N1211 0.985 . S
H1218 N1215 0.984 . S
H1219 N1215 0.985 . S
H1220 N1214 0.984 . S
H1221 N1214 0.984 . S
H1222 N1210 0.984 . S
H1223 N1210 0.985 . S
C1224 C1225 1.363 . S
C1224 C1230 1.379 . S
C1224 N1232 1.356 . S
C1225 C1224 1.363 . S
C1225 C1231 1.363 . S
C1226 C1227 1.363 . S
C1226 C1231 1.379 . S
C1226 N1233 1.356 . S
C1227 C1226 1.363 . S
C1227 C1230 1.363 . S
N1228 C1230 1.356 . S
N1228 H1240 0.984 . S
N1228 H1241 0.985 . S
N1229 C1231 1.356 . S
N1229 H1234 0.984 . S
N1229 H1235 0.985 . S
C1230 C1224 1.379 . S
C1230 C1227 1.363 . S
C1230 N1228 1.356 . S
C1231 C1225 1.363 . S
C1231 C1226 1.379 . S
C1231 N1229 1.356 . S
N1232 C1224 1.356 . S
N1232 H1238 0.984 . S
N1232 H1239 0.984 . S
N1233 C1226 1.356 . S
N1233 H1236 0.984 . S
N1233 H1237 0.985 . S
H1234 N1229 0.984 . S
H1235 N1229 0.985 . S
H1236 N1233 0.984 . S
H1237 N1233 0.985 . S
H1238 N1232 0.984 . S
H1239 N1232 0.984 . S
H1240 N1228 0.984 . S
H1241 N1228 0.985 . S
C1242 C1243 1.363 . S
C1242 C1248 1.379 . S
C1242 N1250 1.356 . S
C1243 C1242 1.363 . S
C1243 C1249 1.363 . S
C1244 C1245 1.363 . S
C1244 C1249 1.379 . S
C1244 N1251 1.356 . S
C1245 C1244 1.363 . S
C1245 C1248 1.363 . S
N1246 C1248 1.356 . S
N1246 H1258 0.984 . S
N1246 H1259 0.985 . S
N1247 C1249 1.356 . S
N1247 H1252 0.984 . S
N1247 H1253 0.985 . S
C1248 C1242 1.379 . S
C1248 C1245 1.363 . S
C1248 N1246 1.356 . S
C1249 C1243 1.363 . S
C1249 C1244 1.379 . S
C1249 N1247 1.356 . S
N1250 C1242 1.356 . S
N1250 H1256 0.984 . S
N1250 H1257 0.984 . S
N1251 C1244 1.356 . S
N1251 H1254 0.984 . S
N1251 H1255 0.985 . S
H1252 N1247 0.984 . S
H1253 N1247 0.985 . S
H1254 N1251 0.984 . S
H1255 N1251 0.985 . S
H1256 N1250 0.984 . S
H1257 N1250 0.984 . S
H1258 N1246 0.984 . S
H1259 N1246 0.985 . S
C1260 C1261 1.363 . S
C1260 C1266 1.379 . S
C1260 N1268 1.356 . S
C1261 C1260 1.363 . S
C1261 C1267 1.363 . S
C1262 C1263 1.363 . S
C1262 C1267 1.379 . S
C1262 N1269 1.356 . S
C1263 C1262 1.363 . S
C1263 C1266 1.363 . S
N1264 C1266 1.356 . S
N1264 H1276 0.984 . S
N1264 H1277 0.985 . S
N1265 C1267 1.356 . S
N1265 H1270 0.984 . S
N1265 H1271 0.985 . S
C1266 C1260 1.379 . S
C1266 C1263 1.363 . S
C1266 N1264 1.356 . S
C1267 C1261 1.363 . S
C1267 C1262 1.379 . S
C1267 N1265 1.356 . S
N1268 C1260 1.356 . S
N1268 H1274 0.984 . S
N1268 H1275 0.984 . S
N1269 C1262 1.356 . S
N1269 H1272 0.984 . S
N1269 H1273 0.985 . S
H1270 N1265 0.984 . S
H1271 N1265 0.985 . S
H1272 N1269 0.984 . S
H1273 N1269 0.985 . S
H1274 N1268 0.984 . S
H1275 N1268 0.984 . S
H1276 N1264 0.984 . S
H1277 N1264 0.985 . S
C1278 C1279 1.363 . S
C1278 C1284 1.379 . S
C1278 N1286 1.356 . S
C1279 C1278 1.363 . S
C1279 C1285 1.363 . S
C1280 C1281 1.363 . S
C1280 C1285 1.379 . S
C1280 N1287 1.356 . S
C1281 C1280 1.363 . S
C1281 C1284 1.363 . S
N1282 C1284 1.356 . S
N1282 H1294 0.984 . S
N1282 H1295 0.985 . S
N1283 C1285 1.356 . S
N1283 H1288 0.984 . S
N1283 H1289 0.985 . S
C1284 C1278 1.379 . S
C1284 C1281 1.363 . S
C1284 N1282 1.356 . S
C1285 C1279 1.363 . S
C1285 C1280 1.379 . S
C1285 N1283 1.356 . S
N1286 C1278 1.356 . S
N1286 H1292 0.984 . S
N1286 H1293 0.984 . S
N1287 C1280 1.356 . S
N1287 H1290 0.984 . S
N1287 H1291 0.985 . S
H1288 N1283 0.984 . S
H1289 N1283 0.985 . S
H1290 N1287 0.984 . S
H1291 N1287 0.985 . S
H1292 N1286 0.984 . S
H1293 N1286 0.984 . S
H1294 N1282 0.984 . S
H1295 N1282 0.985 . S
C1296 C1297 1.363 . S
C1296 C1302 1.379 . S
C1296 N1304 1.356 . S
C1297 C1296 1.363 . S
C1297 C1303 1.363 . S
C1298 C1299 1.363 . S
C1298 C1303 1.379 . S
C1298 N1305 1.356 . S
C1299 C1298 1.363 . S
C1299 C1302 1.363 . S
N1300 C1302 1.356 . S
N1300 H1312 0.984 . S
N1300 H1313 0.985 . S
N1301 C1303 1.356 . S
N1301 H1306 0.984 . S
N1301 H1307 0.985 . S
C1302 C1296 1.379 . S
C1302 C1299 1.363 . S
C1302 N1300 1.356 . S
C1303 C1297 1.363 . S
C1303 C1298 1.379 . S
C1303 N1301 1.356 . S
N1304 C1296 1.356 . S
N1304 H1310 0.984 . S
N1304 H1311 0.984 . S
N1305 C1298 1.356 . S
N1305 H1308 0.984 . S
N1305 H1309 0.985 . S
H1306 N1301 0.984 . S
H1307 N1301 0.985 . S
H1308 N1305 0.984 . S
H1309 N1305 0.985 . S
H1310 N1304 0.984 . S
H1311 N1304 0.984 . S
H1312 N1300 0.984 . S
H1313 N1300 0.985 . S
C1314 C1315 1.363 . S
C1314 C1320 1.379 . S
C1314 N1322 1.356 . S
C1315 C1314 1.363 . S
C1315 C1321 1.363 . S
C1316 C1317 1.363 . S
C1316 C1321 1.379 . S
C1316 N1323 1.356 . S
C1317 C1316 1.363 . S
C1317 C1320 1.363 . S
N1318 C1320 1.356 . S
N1318 H1330 0.984 . S
N1318 H1331 0.985 . S
N1319 C1321 1.356 . S
N1319 H1324 0.984 . S
N1319 H1325 0.985 . S
C1320 C1314 1.379 . S
C1320 C1317 1.363 . S
C1320 N1318 1.356 . S
C1321 C1315 1.363 . S
C1321 C1316 1.379 . S
C1321 N1319 1.356 . S
N1322 C1314 1.356 . S
N1322 H1328 0.984 . S
N1322 H1329 0.984 . S
N1323 C1316 1.356 . S
N1323 H1326 0.984 . S
N1323 H1327 0.985 . S
H1324 N1319 0.984 . S
H1325 N1319 0.985 . S
H1326 N1323 0.984 . S
H1327 N1323 0.985 . S
H1328 N1322 0.984 . S
H1329 N1322 0.984 . S
H1330 N1318 0.984 . S
H1331 N1318 0.985 . S
C1332 C1333 1.363 . S
C1332 C1338 1.379 . S
C1332 N1340 1.356 . S
C1333 C1332 1.363 . S
C1333 C1339 1.363 . S
C1334 C1335 1.363 . S
C1334 C1339 1.379 . S
C1334 N1341 1.356 . S
C1335 C1334 1.363 . S
C1335 C1338 1.363 . S
N1336 C1338 1.356 . S
N1336 H1348 0.984 . S
N1336 H1349 0.985 . S
N1337 C1339 1.356 . S
N1337 H1342 0.984 . S
N1337 H1343 0.985 . S
C1338 C1332 1.379 . S
C1338 C1335 1.363 . S
C1338 N1336 1.356 . S
C1339 C1333 1.363 . S
C1339 C1334 1.379 . S
C1339 N1337 1.356 . S
N1340 C1332 1.356 . S
N1340 H1346 0.984 . S
N1340 H1347 0.984 . S
N1341 C1334 1.356 . S
N1341 H1344 0.984 . S
N1341 H1345 0.985 . S
H1342 N1337 0.984 . S
H1343 N1337 0.985 . S
H1344 N1341 0.984 . S
H1345 N1341 0.985 . S
H1346 N1340 0.984 . S
H1347 N1340 0.984 . S
H1348 N1336 0.984 . S
H1349 N1336 0.985 . S
C1350 C1351 1.363 . S
C1350 C1356 1.379 . S
C1350 N1358 1.356 . S
C1351 C1350 1.363 . S
C1351 C1357 1.363 . S
C1352 C1353 1.363 . S
C1352 C1357 1.379 . S
C1352 N1359 1.356 . S
C1353 C1352 1.363 . S
C1353 C1356 1.363 . S
N1354 C1356 1.356 . S
N1354 H1366 0.984 . S
N1354 H1367 0.985 . S
N1355 C1357 1.356 . S
N1355 H1360 0.984 . S
N1355 H1361 0.985 . S
C1356 C1350 1.379 . S
C1356 C1353 1.363 . S
C1356 N1354 1.356 . S
C1357 C1351 1.363 . S
C1357 C1352 1.379 . S
C1357 N1355 1.356 . S
N1358 C1350 1.356 . S
N1358 H1364 0.984 . S
N1358 H1365 0.984 . S
N1359 C1352 1.356 . S
N1359 H1362 0.984 . S
N1359 H1363 0.985 . S
H1360 N1355 0.984 . S
H1361 N1355 0.985 . S
H1362 N1359 0.984 . S
H1363 N1359 0.985 . S
H1364 N1358 0.984 . S
H1365 N1358 0.984 . S
H1366 N1354 0.984 . S
H1367 N1354 0.985 . S
C1368 C1369 1.363 . S
C1368 C1374 1.379 . S
C1368 N1376 1.356 . S
C1369 C1368 1.363 . S
C1369 C1375 1.363 . S
C1370 C1371 1.363 . S
C1370 C1375 1.379 . S
C1370 N1377 1.356 . S
C1371 C1370 1.363 . S
C1371 C1374 1.363 . S
N1372 C1374 1.356 . S
N1372 H1384 0.984 . S
N1372 H1385 0.985 . S
N1373 C1375 1.356 . S
N1373 H1378 0.984 . S
N1373 H1379 0.985 . S
C1374 C1368 1.379 . S
C1374 C1371 1.363 . S
C1374 N1372 1.356 . S
C1375 C1369 1.363 . S
C1375 C1370 1.379 . S
C1375 N1373 1.356 . S
N1376 C1368 1.356 . S
N1376 H1382 0.984 . S
N1376 H1383 0.984 . S
N1377 C1370 1.356 . S
N1377 H1380 0.984 . S
N1377 H1381 0.985 . S
H1378 N1373 0.984 . S
H1379 N1373 0.985 . S
H1380 N1377 0.984 . S
H1381 N1377 0.985 . S
H1382 N1376 0.984 . S
H1383 N1376 0.984 . S
H1384 N1372 0.984 . S
H1385 N1372 0.985 . S
C1386 C1387 1.363 . S
C1386 C1392 1.379 . S
C1386 N1394 1.356 . S
C1387 C1386 1.363 . S
C1387 C1393 1.363 . S
C1388 C1389 1.363 . S
C1388 C1393 1.379 . S
C1388 N1395 1.356 . S
C1389 C1388 1.363 . S
C1389 C1392 1.363 . S
N1390 C1392 1.356 . S
N1390 H1402 0.984 . S
N1390 H1403 0.985 . S
N1391 C1393 1.356 . S
N1391 H1396 0.984 . S
N1391 H1397 0.985 . S
C1392 C1386 1.379 . S
C1392 C1389 1.363 . S
C1392 N1390 1.356 . S
C1393 C1387 1.363 . S
C1393 C1388 1.379 . S
C1393 N1391 1.356 . S
N1394 C1386 1.356 . S
N1394 H1400 0.984 . S
N1394 H1401 0.984 . S
N1395 C1388 1.356 . S
N1395 H1398 0.984 . S
N1395 H1399 0.985 . S
H1396 N1391 0.984 . S
H1397 N1391 0.985 . S
H1398 N1395 0.984 . S
H1399 N1395 0.985 . S
H1400 N1394 0.984 . S
H1401 N1394 0.984 . S
H1402 N1390 0.984 . S
H1403 N1390 0.985 . S
C595 N13 1.270 . S
C597 N2 1.271 . S
C613 N46 1.270 . S
C615 N35 1.270 . S
C631 N68 1.271 . S
C633 N79 1.270 . S
C649 N112 1.270 . S
C651 N101 1.271 . S
C667 N145 1.270 . S
C669 N134 1.271 . S
C685 N167 1.270 . S
C687 N178 1.270 . S
C703 N200 1.270 . S
C705 N211 1.270 . S
C721 N233 1.271 . S
C723 N244 1.270 . S
C739 N277 1.270 . S
C741 N266 1.271 . S
C757 N310 1.270 . S
C759 N299 1.270 . S
C775 N343 1.270 . S
C777 N332 1.271 . S
C793 N365 1.271 . S
C795 N376 1.270 . S
C811 N398 1.270 . S
C813 N409 1.270 . S
C829 N431 1.271 . S
C831 N442 1.270 . S
C847 N464 1.271 . S
C849 N475 1.270 . S
C865 N508 1.270 . S
C867 N497 1.270 . S
C883 N541 1.270 . S
C885 N530 1.271 . S
C901 N563 1.271 . S
C903 N574 1.270 . S
C919 C579 1.639 . S
C921 C18 1.639 . S
C937 C51 1.638 . S
C939 C513 1.638 . S
C955 C546 1.638 . S
C957 C84 1.638 . S
C973 C249 1.638 . S
C975 C117 1.638 . S
C991 C150 1.638 . S
C993 C282 1.638 . S
C1009 C183 1.638 . S
C1011 C216 1.638 . S
C1027 C315 1.639 . S
C1029 C447 1.639 . S
C1045 C480 1.638 . S
C1047 C348 1.638 . S
C1063 C381 1.639 . S
C1065 C414 1.639 . S
C1081 C7 1.505 . S
C1083 C106 1.505 . S
C1099 C40 1.505 . S
C1101 C139 1.505 . S
C1117 C172 1.505 . S
C1119 C73 1.505 . S
C1135 C186 1.554 . S
C1137 C54 1.554 . S
C1153 C120 1.554 . S
C1155 C87 1.554 . S
C1171 C153 1.554 . S
C1173 C21 1.554 . S
C1189 C304 1.504 . S
C1191 C205 1.504 . S
C1207 C337 1.505 . S
C1209 C238 1.505 . S
C1225 C271 1.505 . S
C1227 C370 1.505 . S
C1243 C384 1.554 . S
C1245 C252 1.554 . S
C1261 C285 1.554 . S
C1263 C318 1.554 . S
C1279 C219 1.554 . S
C1281 C351 1.554 . S
C1297 C502 1.504 . S
C1299 C403 1.504 . S
C1315 C535 1.505 . S
C1317 C436 1.505 . S
C1333 C568 1.505 . S
C1335 C469 1.505 . S
C1351 C450 1.554 . S
C1353 C582 1.554 . S
C1369 C483 1.554 . S
C1371 C516 1.554 . S
C1387 C549 1.554 . S
C1389 C417 1.554 . S
