# Generated by pormake.
# Topology sxb, (6)-cn, num edge types: 1
# Building blocks:
#     Node 0, Type 0, BuildingBlock: KUMBOL_clean_sbu_1, # of connection points: 6
#     Node 1, Type 0, BuildingBlock: KUMBOL_clean_sbu_1, # of connection points: 6
#     Node 2, Type 0, BuildingBlock: KUMBOL_clean_sbu_1, # of connection points: 6
#     Node 3, Type 0, BuildingBlock: KUMBOL_clean_sbu_1, # of connection points: 6
#     Edge 4, Type (0, 0), BuildingBlock: UVAHIK_clean_linker_0, # of connection points: 2
#     Edge 5, Type (0, 0), BuildingBlock: UVAHIK_clean_linker_0, # of connection points: 2
#     Edge 6, Type (0, 0), BuildingBlock: UVAHIK_clean_linker_0, # of connection points: 2
#     Edge 7, Type (0, 0), BuildingBlock: UVAHIK_clean_linker_0, # of connection points: 2
#     Edge 8, Type (0, 0), BuildingBlock: UVAHIK_clean_linker_0, # of connection points: 2
#     Edge 9, Type (0, 0), BuildingBlock: UVAHIK_clean_linker_0, # of connection points: 2
#     Edge 10, Type (0, 0), BuildingBlock: UVAHIK_clean_linker_0, # of connection points: 2
#     Edge 11, Type (0, 0), BuildingBlock: UVAHIK_clean_linker_0, # of connection points: 2
#     Edge 12, Type (0, 0), BuildingBlock: UVAHIK_clean_linker_0, # of connection points: 2
#     Edge 13, Type (0, 0), BuildingBlock: UVAHIK_clean_linker_0, # of connection points: 2
#     Edge 14, Type (0, 0), BuildingBlock: UVAHIK_clean_linker_0, # of connection points: 2
#     Edge 15, Type (0, 0), BuildingBlock: UVAHIK_clean_linker_0, # of connection points: 2
# Relax obj value: 0.010
# Max RMSD: 0.047
# Mean RMSD: 0.047
data_MOF--net-sxb--node1-KUMBOL_clean_sbu_1--edge1-UVAHIK_clean_linker_0
_symmetry_space_group_name_H-M    P1
_symmetry_Int_Tables_number       1
_symmetry_cell_setting            triclinic
loop_
_symmetry_equiv_pos_as_xyz
'x, y, z'
_cell_length_a     19.481866
_cell_length_b     55.115901
_cell_length_c     38.767523
_cell_angle_alpha  115.33055
_cell_angle_beta   90.112415
_cell_angle_gamma 90.131958
loop_
_atom_site_label
_atom_site_type_symbol
_atom_site_fract_x
_atom_site_fract_y
_atom_site_fract_z
_atom_type_partial_charge
C0 C 0.13936 0.08442 0.03589 0.0
C1 C 0.17765 0.09071 0.98082 0.0
C2 C 0.12986 0.08031 -0.00165 0.0
C3 C 0.23618 0.10437 0.00119 0.0
C4 C 0.19702 0.09869 0.0568 0.0
C5 C 0.24584 0.10836 0.03909 0.0
N6 N 0.09182 0.07443 0.05201 0.0
C7 C 0.09613 0.07959 0.08966 0.0
C8 C 0.2034 0.10309 0.09502 0.0
C9 C 0.15234 0.09373 0.11161 0.0
Gd10 Gd 1.00703 0.96982 0.97921 0.0
Gd11 Gd 0.99935 0.05097 0.01325 0.0
N12 N 0.07278 0.06696 0.97941 0.0
C13 C 0.1645 0.08747 0.94359 0.0
C14 C 0.0573 0.06558 0.94429 0.0
C15 C 0.1035 0.0752 0.92547 0.0
H16 H 1.00839 0.05782 0.93121 0.0
H17 H 0.09144 0.07357 0.89729 0.0
H18 H 0.93829 0.96192 0.05188 0.0
H19 H 0.05636 0.0727 0.1027 0.0
H20 H 0.83097 0.94407 0.06682 0.0
H21 H 0.19995 0.09513 0.9291 0.0
H22 H 0.27372 0.11231 0.98809 0.0
H23 H 1.00767 0.94652 0.88216 0.0
H24 H 0.2469 0.11403 0.1121 0.0
H25 H 0.15614 0.09747 0.14133 0.0
H26 H 0.69927 0.91398 0.95087 0.0
H27 H 0.29074 0.11925 0.05461 0.0
H28 H 0.80793 0.91552 0.84116 0.0
H29 H 0.92512 0.92749 0.82937 0.0
N30 N 0.93556 0.94916 0.925 0.0
C31 C 0.87318 0.94075 0.93153 0.0
C32 C 0.95562 0.9431 0.88845 0.0
C33 C 0.84334 0.92478 0.86484 0.0
C34 C 0.90935 0.93159 0.85809 0.0
C35 C 0.82517 0.92857 0.90169 0.0
H36 H 0.72406 0.9105 0.88672 0.0
N37 N 0.90644 0.95411 -0.0043 0.0
C38 C 0.85886 0.94269 0.96768 0.0
C39 C 0.78648 0.93341 0.01121 0.0
C40 C 0.79678 0.93256 0.97494 0.0
C41 C 0.89839 0.95385 0.03053 0.0
C42 C 0.83795 0.94376 0.03895 0.0
O43 O 0.10081 0.03258 0.01935 0.0
O44 O 0.10458 0.98922 0.97124 0.0
O45 O 0.06059 0.94916 0.00799 0.0
O46 O 0.04016 0.92846 0.94768 0.0
O47 O 0.9756 0.02264 0.95178 0.0
O48 O 0.0431 0.98513 0.9365 0.0
O49 O 0.91089 0.99386 0.00646 0.0
O50 O 0.91173 0.02402 0.98103 0.0
O51 O 0.95688 0.08557 0.0079 0.0
O52 O 0.93082 0.07829 0.05682 0.0
O53 O 0.03929 0.99746 0.03903 0.0
O54 O 0.97483 0.0363 0.05855 0.0
C55 C 0.13466 0.01166 0.99485 0.0
C56 C 1.01481 1.00347 0.92776 0.0
C57 C 0.13788 0.9152 0.97137 0.0
C58 C 0.21401 0.88028 0.9725 0.0
C59 C 0.25849 0.91554 0.95644 0.0
C60 C 0.19325 0.92691 0.96098 0.0
C61 C 0.26895 0.89241 0.9621 0.0
C62 C 0.14836 0.89196 0.9771 0.0
C63 C 0.06912 0.9272 0.9771 0.0
C64 C 0.74769 0.92156 0.94573 0.0
C65 C 0.76176 0.91965 0.90922 0.0
H66 H 0.73953 0.92575 0.01787 0.0
C67 C 0.8777 0.0095 0.99449 0.0
C68 C 1.00527 0.01735 0.06533 0.0
C69 C 0.93066 0.12378 0.0644 0.0
C70 C 0.90762 0.16956 0.07231 0.0
C71 C 0.95937 0.16188 0.12395 0.0
C72 C 0.95771 0.13416 0.10156 0.0
C73 C 0.93414 0.17948 0.1096 0.0
C74 C 0.9063 0.14161 0.04983 0.0
C75 C 0.92546 0.09456 0.04048 0.0
H76 H 0.30111 0.92465 0.9484 0.0
H77 H 0.186 0.94479 0.95643 0.0
H78 H 0.31991 0.88383 0.95783 0.0
H79 H 0.10548 0.88326 0.9857 0.0
H80 H 0.98016 0.16976 0.15261 0.0
H81 H 0.97716 0.12093 0.11339 0.0
H82 H 0.9362 0.20088 0.12746 0.0
H83 H 0.88508 0.13369 0.0212 0.0
C84 C 0.15402 0.93405 0.40832 0.0
C85 C 0.24986 0.92798 0.444 0.0
C86 C 0.18399 0.93817 0.44298 0.0
C87 C 0.28519 0.91361 0.40972 0.0
C88 C 0.18929 0.91961 0.37385 0.0
C89 C 0.25499 0.90943 0.37475 0.0
N90 N 0.09067 0.94435 0.40834 0.0
C91 C 0.05889 0.94044 0.37499 0.0
C92 C 0.15747 0.91588 0.3395 0.0
C93 C 0.09191 0.92628 0.34009 0.0
Gd94 Gd 0.03537 0.04946 0.52277 0.0
Gd95 Gd 0.04035 0.96794 0.46824 0.0
N96 N 0.14948 0.95295 0.47578 0.0
C97 C 0.27843 0.93272 0.4795 0.0
C98 C 0.17587 0.95677 0.51035 0.0
C99 C 0.24105 0.94702 0.51278 0.0
H100 H 0.14702 0.9674 0.53608 0.0
H101 H 0.26233 0.95046 0.54031 0.0
H102 H 1.00185 0.06215 0.44619 0.0
H103 H 1.00754 0.94784 0.37525 0.0
H104 H 0.90265 0.07407 0.41737 0.0
H105 H 0.32901 0.92529 0.48151 0.0
H106 H 0.33594 0.90567 0.40994 0.0
H107 H 0.99025 0.06153 0.61157 0.0
H108 H 0.18289 0.9049 0.31241 0.0
H109 H 0.06663 0.92326 0.31366 0.0
H110 H 0.72708 0.09566 0.51224 0.0
H111 H 0.28292 0.89831 0.34856 0.0
H112 H 0.78585 0.09302 0.63071 0.0
H113 H 0.88988 0.07898 0.65407 0.0
N114 N 0.94288 0.06552 0.56492 0.0
C115 C 0.88705 0.0738 0.5518 0.0
C116 C 0.94493 0.0676 0.60127 0.0
C117 C 0.82979 0.08552 0.61207 0.0
C118 C 0.88835 0.07753 0.62534 0.0
C119 C 0.82858 0.08373 0.57493 0.0
H120 H 0.72503 0.09864 0.57737 0.0
N121 N 0.94589 0.06258 0.49346 0.0
C122 C 0.88808 0.07173 0.51478 0.0
C123 C 0.8353 0.07981 0.46421 0.0
C124 C 0.83077 0.08013 0.50041 0.0
C125 C 0.95288 0.06511 0.46013 0.0
C126 C 0.89721 0.07285 0.44437 0.0
O127 O 0.13887 0.99015 0.46861 0.0
O128 O 0.13791 0.03055 0.52268 0.0
O129 O 0.08263 0.08352 0.51563 0.0
O130 O 0.0669 0.08492 0.57218 0.0
O131 O 0.02763 0.98735 0.53247 0.0
O132 O 0.07735 0.02981 0.55868 0.0
O133 O 0.94553 0.02403 0.52633 0.0
O134 O 0.94183 0.98879 0.46716 0.0
O135 O 1.00345 0.94278 0.49475 0.0
O136 O 0.99364 0.92911 0.43377 0.0
O137 O 0.06384 0.02896 0.4598 0.0
O138 O 0.99795 0.9904 0.43626 0.0
C139 C 0.17032 0.01081 0.49533 0.0
C140 C 0.05624 1.00785 0.56104 0.0
C141 C 0.11991 0.1245 0.57142 0.0
C142 C 0.17336 0.1644 0.56992 0.0
C143 C 0.15892 0.16129 0.63021 0.0
C144 C 0.12863 0.1361 0.61127 0.0
C145 C 0.18126 0.17532 0.60979 0.0
C146 C 0.14192 0.1389 0.55075 0.0
C147 C 0.08932 0.09723 0.55239 0.0
C148 C 0.77175 0.08938 0.523 0.0
C149 C 0.7707 0.09122 0.56017 0.0
H150 H 0.79246 0.08611 0.45214 0.0
C151 C 0.91065 1.00643 0.49738 0.0
C152 C 0.03109 0.00957 0.43152 0.0
C153 C 0.91026 0.91417 0.46473 0.0
C154 C 0.83547 0.88116 0.47279 0.0
C155 C 0.78665 0.91914 0.46478 0.0
C156 C 0.85234 0.92831 0.4621 0.0
C157 C 0.77812 0.89577 0.47007 0.0
C158 C 0.90172 0.89062 0.47003 0.0
C159 C 0.9798 0.92414 0.46298 0.0
H160 H 0.16524 0.16998 0.6609 0.0
H161 H 0.11235 0.12565 0.62801 0.0
H162 H 0.20412 0.19498 0.62536 0.0
H163 H 0.13577 0.1302 0.52001 0.0
H164 H 0.74214 0.93015 0.46267 0.0
H165 H 0.858 0.9464 0.45797 0.0
H166 H 0.72648 0.88895 0.47148 0.0
H167 H 0.94668 0.87995 0.47259 0.0
C168 C 0.67518 0.57248 0.06127 0.0
C169 C 0.75871 0.57819 0.01893 0.0
C170 C 0.693 0.57034 0.02552 0.0
C171 C 0.80751 0.58709 0.04852 0.0
C172 C 0.72284 0.58275 0.0916 0.0
C173 C 0.78962 0.58935 0.08478 0.0
N174 N 0.60996 0.56617 0.06693 0.0
C175 C 0.58711 0.57256 0.10307 0.0
C176 C 0.70119 0.587 0.12814 0.0
C177 C 0.63264 0.58239 0.13401 0.0
Gd178 Gd 0.5337 0.46599 0.97363 0.0
Gd179 Gd 0.53977 0.54727 0.01202 0.0
N180 N 0.64522 0.5611 -0.0027 0.0
C181 C 0.77285 0.5773 0.98298 0.0
C182 C 0.65707 0.56163 0.96291 0.0
C183 C 0.72142 0.56938 0.95505 0.0
H184 H 0.61731 0.55528 0.94132 0.0
H185 H 0.73143 0.56912 0.92745 0.0
H186 H 0.53356 0.45599 0.05366 0.0
H187 H 0.5336 0.57032 0.10835 0.0
H188 H 0.44914 0.44678 0.09399 0.0
H189 H 0.82274 0.58317 0.97677 0.0
H190 H 0.85865 0.59286 0.0439 0.0
H191 H 0.46276 0.44587 0.88758 0.0
H192 H 0.73619 0.59487 0.15221 0.0
H193 H 0.61459 0.58673 0.16243 0.0
H194 H 0.24179 0.42592 0.01951 0.0
H195 H 0.82719 0.59695 0.10763 0.0
H196 H 0.25643 0.42023 0.89267 0.0
H197 H 0.35077 0.42832 0.8561 0.0
N198 N 0.43085 0.44792 0.9411 0.0
C199 C 0.38126 0.44212 0.96099 0.0
C200 C 0.42174 0.44216 0.90345 0.0
C201 C 0.30542 0.42773 0.90643 0.0
C202 C 0.35856 0.43229 0.88568 0.0
C203 C 0.31664 0.43235 0.94446 0.0
H204 H 0.21555 0.42004 0.95421 0.0
N205 N 0.46012 0.45384 0.01186 0.0
C206 C 0.39598 0.44568 -0.00221 0.0
C207 C 0.36532 0.44064 0.05471 0.0
C208 C 0.34648 0.43921 0.01903 0.0
C209 C 0.4805 0.45269 0.04482 0.0
C210 C 0.43311 0.44685 0.06728 0.0
O211 O 0.63057 0.5206 0.98206 0.0
O212 O 0.63055 0.48791 0.00331 0.0
O213 O 0.56043 0.42651 0.97057 0.0
O214 O 0.59471 0.43837 0.92626 0.0
O215 O 0.50917 0.52311 0.95066 0.0
O216 O 0.56056 0.4811 0.92918 0.0
O217 O 0.44135 0.4893 0.96755 0.0
O218 O 0.44115 0.529 0.02146 0.0
O219 O 0.48639 0.56897 0.98476 0.0
O220 O 0.51201 0.58923 0.04446 0.0
O221 O 0.56676 0.49169 0.03464 0.0
O222 O 0.50289 0.53033 0.05255 0.0
C223 C 0.66383 0.50502 0.99412 0.0
C224 C 0.53607 0.50146 0.92347 0.0
C225 C 0.62819 0.39374 0.91841 0.0
C226 C 0.68105 0.35299 0.91733 0.0
C227 C 0.6703 0.35914 0.85888 0.0
C228 C 0.63969 0.38406 0.87907 0.0
C229 C 0.69048 0.34368 0.87767 0.0
C230 C 0.64892 0.37814 0.93751 0.0
C231 C 0.59393 0.41995 0.9389 0.0
C232 C 0.28079 0.43065 0.00343 0.0
C233 C 0.26591 0.42721 0.9662 0.0
H234 H 0.32883 0.43586 0.07197 0.0
C235 C 0.40823 0.50847 -0.00463 0.0
C236 C 0.53302 0.51197 0.06045 0.0
C237 C 0.4124 0.60339 0.02344 0.0
C238 C 0.33545 0.63854 0.02378 0.0
C239 C 0.29268 0.60326 0.04028 0.0
C240 C 0.35783 0.59172 0.03455 0.0
C241 C 0.28141 0.62648 0.03495 0.0
C242 C 0.40111 0.62675 0.01812 0.0
C243 C 0.48072 0.59093 0.01593 0.0
H244 H 0.6781 0.35169 0.82843 0.0
H245 H 0.62409 0.3956 0.86373 0.0
H246 H 0.71283 0.32419 0.86085 0.0
H247 H 0.64127 0.38585 0.96803 0.0
H248 H 0.25072 0.59418 0.04887 0.0
H249 H 0.36554 0.57368 0.03862 0.0
H250 H 0.23052 0.63515 0.04002 0.0
H251 H 0.44323 0.6354 0.00887 0.0
C252 C 0.66433 0.44264 0.43843 0.0
C253 C 0.71937 0.43695 0.49064 0.0
C254 C 0.6625 0.44511 0.47565 0.0
C255 C 0.77878 0.42752 0.46845 0.0
C256 C 0.72319 0.43253 0.41571 0.0
C257 C 0.78063 0.42527 0.43107 0.0
N258 N 0.60893 0.45072 0.4247 0.0
C259 C 0.60764 0.44825 0.38814 0.0
C260 C 0.72278 0.43033 0.37834 0.0
C261 C 0.66462 0.4381 0.36446 0.0
Gd262 Gd 0.51152 0.5488 0.51976 0.0
Gd263 Gd 0.51573 0.46708 0.46621 0.0
N264 N 0.60433 0.45443 0.49658 0.0
C265 C 0.71405 0.43767 0.52705 0.0
C266 C 0.59657 0.45229 0.53015 0.0
C267 C 0.6518 0.4448 0.54652 0.0
H268 H 0.54733 0.45539 0.54387 0.0
H269 H 0.64575 0.44389 0.57369 0.0
H270 H 0.40536 0.54923 0.45173 0.0
H271 H 0.56264 0.45419 0.37741 0.0
H272 H 0.29045 0.56647 0.44732 0.0
H273 H 0.75654 0.43157 0.53958 0.0
H274 H 0.82313 0.42142 0.47968 0.0
H275 H 0.54412 0.56904 0.6128 0.0
H276 H 0.76703 0.42267 0.36001 0.0
H277 H 0.66373 0.43634 0.33557 0.0
H278 H 0.21701 0.61198 0.57767 0.0
H279 H 0.82659 0.41772 0.4142 0.0
H280 H 0.36936 0.61268 0.67544 0.0
H281 H 0.48516 0.59399 0.67434 0.0
N282 N 0.46133 0.57267 0.57961 0.0
C283 C 0.39823 0.58313 0.57954 0.0
C284 C 0.49296 0.5766 0.61301 0.0
C285 C 0.39471 0.60154 0.64837 0.0
C286 C 0.46002 0.59096 0.64787 0.0
C287 C 0.36306 0.59778 0.61397 0.0
H288 H 0.26977 0.61942 0.63914 0.0
N289 N 0.40277 0.56398 0.51206 0.0
C290 C 0.36841 0.57897 0.54483 0.0
C291 C 0.27437 0.58451 0.50814 0.0
C292 C 0.30279 0.58932 0.5437 0.0
C293 C 0.37655 0.56007 0.47742 0.0
C294 C 0.31163 0.56998 0.4749 0.0
O295 O 0.60585 0.49228 0.46231 0.0
O296 O 0.60959 0.52782 0.52123 0.0
O297 O 0.54907 0.57361 0.49281 0.0
O298 O 0.55859 0.58763 0.55388 0.0
O299 O 0.48598 0.48812 0.5288 0.0
O300 O 0.55301 0.52635 0.55182 0.0
O301 O 0.41227 0.52695 0.51915 0.0
O302 O 0.4132 0.48592 0.466 0.0
O303 O 0.46872 0.43307 0.47356 0.0
O304 O 0.48409 0.43155 0.41692 0.0
O305 O 0.52459 0.52885 0.45567 0.0
O306 O 0.47428 0.48648 0.42997 0.0
C307 C 0.64074 0.51003 0.49111 0.0
C308 C 0.51851 0.50764 0.55695 0.0
C309 C 0.64224 0.60228 0.52273 0.0
C310 C 0.71721 0.6353 0.51481 0.0
C311 C 0.76582 0.59722 0.52264 0.0
C312 C 0.70008 0.58807 0.52528 0.0
C313 C 0.77448 0.62063 0.51746 0.0
C314 C 0.65091 0.62587 0.51753 0.0
C315 C 0.57265 0.59237 0.5245 0.0
C316 C 0.26757 0.60392 0.57795 0.0
C317 C 0.29761 0.60813 0.61297 0.0
H318 H 0.22398 0.59207 0.50606 0.0
C319 C 0.38088 0.50605 0.49283 0.0
C320 C 0.49571 0.5083 0.42734 0.0
C321 C 0.43137 0.39201 0.41795 0.0
C322 C 0.37792 0.3522 0.41975 0.0
C323 C 0.39256 0.35504 0.35929 0.0
C324 C 0.42279 0.38025 0.37808 0.0
C325 C 0.37015 0.34114 0.37986 0.0
C326 C 0.4093 0.37772 0.43878 0.0
C327 C 0.46189 0.41929 0.43682 0.0
H328 H 0.81027 0.58616 0.5247 0.0
H329 H 0.6943 0.56996 0.52934 0.0
H330 H 0.82616 0.62743 0.51607 0.0
H331 H 0.60601 0.63659 0.51503 0.0
H332 H 0.38635 0.34623 0.32859 0.0
H333 H 0.43914 0.39061 0.36123 0.0
H334 H 0.34731 0.32146 0.36441 0.0
H335 H 0.41535 0.38653 0.46953 0.0
C336 C 0.37139 0.68435 0.0306 0.0
C337 C 0.32317 0.66326 0.01799 0.0
C338 C 0.35925 0.70772 0.02573 0.0
C339 C 0.25584 0.7344 0.96928 0.0
H340 H 0.3025 0.80356 0.05101 0.0
C341 C 0.17687 0.83453 0.96554 0.0
C342 C 0.22529 0.85556 0.97847 0.0
C343 C 0.1881 0.81117 0.9706 0.0
C344 C 0.28985 0.78441 0.02771 0.0
H345 H 0.22481 0.65016 0.98968 0.0
H346 H 0.20321 0.69103 0.98173 0.0
H347 H 0.32398 0.76269 0.05898 0.0
H348 H 0.32304 0.86853 0.00757 0.0
H349 H 0.3432 0.82768 0.01571 0.0
H350 H 0.22184 0.75611 0.93798 0.0
C351 C 0.25069 0.68944 0.99518 0.0
C352 C 0.30221 0.76094 0.03228 0.0
C353 C 0.26274 0.6661 0.00013 0.0
C354 C 0.28499 0.85266 -0.00317 0.0
C355 C 0.29618 0.82932 0.00192 0.0
C356 C 0.24353 0.75788 0.96469 0.0
C357 C 0.29867 0.71061 0.00802 0.0
C358 C 0.28545 0.73562 0.00312 0.0
C359 C 0.24799 0.80822 0.98879 0.0
C360 C 0.26044 0.7832 0.99383 0.0
H361 H 0.41819 0.68297 0.04477 0.0
H362 H 0.39771 0.72347 0.03559 0.0
H363 H 0.24319 0.71525 0.94599 0.0
H364 H 0.13063 0.83593 0.95096 0.0
H365 H 0.14949 0.79549 0.96049 0.0
C366 C 0.66737 0.3349 0.96713 0.0
C367 C 0.70478 0.33619 0.93688 0.0
C368 C 0.68793 0.31769 0.98343 0.0
C369 C 0.77975 0.25483 0.95999 0.0
H370 H 0.80168 0.2787 0.06901 0.0
C371 C 0.90284 0.18613 0.02118 0.0
C372 C 0.88144 0.18838 0.05699 0.0
C373 C 0.87978 0.20432 0.00727 0.0
C374 C 0.79468 0.27144 0.03851 0.0
H375 H 0.79585 0.3213 0.90189 0.0
H376 H 0.82963 0.29082 0.92928 0.0
H377 H 0.76298 0.31031 0.04427 0.0
H378 H 0.81769 0.21104 0.10588 0.0
H379 H 0.7751 0.24208 0.08114 0.0
H380 H 0.80913 0.21588 0.95385 0.0
C381 C 0.78406 0.30292 0.94007 0.0
C382 C 0.77278 0.2897 0.02438 0.0
C383 C 0.7643 0.32036 0.92425 0.0
C384 C 0.83566 0.20899 0.07835 0.0
C385 C 0.81161 0.22692 0.06417 0.0
C386 C 0.80044 0.23647 0.97408 0.0
C387 C 0.74578 0.30116 0.96954 0.0
C388 C 0.76588 0.28165 0.98494 0.0
C389 C 0.83362 0.22501 0.02848 0.0
C390 C 0.80907 0.24451 0.01356 0.0
H391 H 0.62103 0.34654 0.97751 0.0
H392 H 0.65737 0.3167 0.00611 0.0
H393 H 0.77397 0.24796 0.92945 0.0
H394 H 0.93874 0.17063 0.00428 0.0
H395 H 0.89934 0.20237 0.9801 0.0
C396 C 0.26231 0.19305 0.5585 0.0
C397 C 0.19786 0.18027 0.54943 0.0
C398 C 0.28219 0.21117 0.54388 0.0
C399 C 0.24234 0.23499 0.46976 0.0
H400 H 0.33339 0.3 0.54058 0.0
C401 C 0.28879 0.32373 0.4314 0.0
C402 C 0.35331 0.33645 0.4404 0.0
C403 C 0.26885 0.30567 0.44613 0.0
C404 C 0.30867 0.28188 0.52029 0.0
H405 H 0.10488 0.1757 0.51653 0.0
H406 H 0.1394 0.2075 0.49089 0.0
H407 H 0.30193 0.26545 0.5612 0.0
H408 H 0.4463 0.34104 0.47329 0.0
H409 H 0.41165 0.30934 0.49911 0.0
H410 H 0.24909 0.25141 0.42885 0.0
C411 C 0.17486 0.20336 0.50923 0.0
C412 C 0.29066 0.26198 0.53209 0.0
C413 C 0.15503 0.18508 0.52382 0.0
C414 C 0.39611 0.33169 0.46605 0.0
C415 C 0.37621 0.31347 0.48075 0.0
C416 C 0.26035 0.25488 0.45796 0.0
C417 C 0.23809 0.21712 0.51981 0.0
C418 C 0.25732 0.23823 0.50697 0.0
C419 C 0.31293 0.29973 0.47022 0.0
C420 C 0.29368 0.27863 0.48307 0.0
H421 H 0.29695 0.18944 0.5777 0.0
H422 H 0.33197 0.22078 0.55185 0.0
H423 H 0.21764 0.21686 0.44947 0.0
H424 H 0.25419 0.32731 0.41217 0.0
H425 H 0.21904 0.29608 0.43819 0.0
C426 C 0.77418 0.85466 0.50276 0.0
C427 C 0.82568 0.85615 0.47831 0.0
C428 C 0.76303 0.83094 0.5069 0.0
C429 C 0.7929 0.75751 0.45839 0.0
H430 H 0.74856 0.76013 0.55737 0.0
C431 C 0.77865 0.66184 0.48496 0.0
C432 C 0.72712 0.66034 0.50938 0.0
C433 C 0.78986 0.68557 0.48086 0.0
C434 C 0.76002 0.75902 0.52941 0.0
H435 H 0.90614 0.83365 0.43923 0.0
H436 H 0.88752 0.79243 0.44695 0.0
H437 H 0.77131 0.80169 0.55144 0.0
H438 H 0.64668 0.68284 0.54848 0.0
H439 H 0.6654 0.72409 0.54084 0.0
H440 H 0.7816 0.71483 0.43636 0.0
C441 C 0.85513 0.80957 0.46261 0.0
C442 C 0.77318 0.7829 0.52601 0.0
C443 C 0.86639 0.83334 0.45852 0.0
C444 C 0.68646 0.68316 0.52921 0.0
C445 C 0.69778 0.70694 0.52517 0.0
C446 C 0.77974 0.73363 0.46179 0.0
C447 C 0.80302 0.80799 0.4867 0.0
C448 C 0.78981 0.78249 0.49044 0.0
C449 C 0.74989 0.70853 0.50108 0.0
C450 C 0.76312 0.73403 0.49735 0.0
H451 H 0.74237 0.8719 0.51884 0.0
H452 H 0.72208 0.83047 0.52546 0.0
H453 H 0.80435 0.75639 0.43042 0.0
H454 H 0.81043 0.6446 0.46885 0.0
H455 H 0.83082 0.68605 0.46232 0.0
C456 C 0.24631 0.99866 0.01363 0.0
C457 C 0.21029 0.0123 -0.00402 0.0
C458 C 0.31826 0.99875 0.01406 0.0
C459 C 0.46912 1.00827 0.96338 0.0
H460 H 0.56785 0.01891 0.05569 0.0
C461 C 0.76481 0.0214 0.97425 0.0
C462 C 0.80138 0.01042 -0.00452 0.0
C463 C 0.69287 0.02187 0.97463 0.0
C464 C 0.54135 0.0155 0.02944 0.0
H465 H 0.22024 0.03597 0.96398 0.0
H466 H 0.34599 0.03668 0.96521 0.0
H467 H 0.44275 0.01901 0.05563 0.0
H468 H 0.79068 0.99242 0.03502 0.0
H469 H 0.66578 0.99188 0.03425 0.0
H470 H 0.5673 1.00424 0.93688 0.0
C471 C 0.31901 0.02589 0.97876 0.0
C472 C 0.46939 0.01565 0.02948 0.0
C473 C 0.24708 0.02583 0.97846 0.0
C474 C 0.76422 1.00034 0.01755 0.0
C475 C 0.69231 1.0005 0.01761 0.0
C476 C 0.54106 1.00787 0.96321 0.0
C477 C 0.35561 0.01233 -0.00345 0.0
C478 C 0.43231 0.01211 -0.00351 0.0
C479 C 0.65539 0.01127 -0.00387 0.0
C480 C 0.57839 0.01155 -0.00373 0.0
H481 H 0.21874 0.98785 0.02699 0.0
H482 H 0.34468 0.98779 0.02753 0.0
H483 H 0.44226 1.00508 0.93729 0.0
H484 H 0.79174 0.02955 0.95713 0.0
H485 H 0.66674 0.03085 0.95831 0.0
C486 C 0.28336 0.9957 0.46239 0.0
C487 C 0.24631 0.01093 0.49577 0.0
C488 C 0.35509 0.99535 0.46299 0.0
C489 C 0.50305 1.006 0.52654 0.0
H490 H 0.60436 0.01635 0.44787 0.0
C491 C 0.79876 0.01781 0.53259 0.0
C492 C 0.83473 1.00681 0.49798 0.0
C493 C 0.72698 0.01872 0.53284 0.0
C494 C 0.57705 0.01301 0.46977 0.0
H495 H 0.25552 0.03758 0.556 0.0
H496 H 0.38093 0.03691 0.55699 0.0
H497 H 0.47932 0.01654 0.4469 0.0
H498 H 0.82377 0.9873 0.43642 0.0
H499 H 0.69897 0.98767 0.43674 0.0
H500 H 0.6004 1.00182 0.54899 0.0
C501 C 0.35432 0.02522 0.53042 0.0
C502 C 0.50531 0.01323 0.46924 0.0
C503 C 0.28257 0.02578 0.52975 0.0
C504 C 0.7975 0.99606 0.46361 0.0
C505 C 0.72582 0.99658 0.46381 0.0
C506 C 0.57485 1.00546 0.52683 0.0
C507 C 0.39133 0.01007 0.49703 0.0
C508 C 0.46754 0.00975 0.49762 0.0
C509 C 0.68947 1.00812 0.49841 0.0
C510 C 0.6129 0.00895 0.49843 0.0
H511 H 0.25695 0.98413 0.43572 0.0
H512 H 0.38224 0.9833 0.43689 0.0
H513 H 0.47522 1.00299 0.54856 0.0
H514 H 0.8261 0.02572 0.55953 0.0
H515 H 0.70106 0.02802 0.56006 0.0
C516 C 0.77713 0.50863 0.96599 0.0
C517 C 0.74 0.5054 0.9948 0.0
C518 C 0.8491 0.5089 0.96647 0.0
C519 C 0.99896 0.52481 0.02819 0.0
H520 H 0.0967 0.47339 0.94053 0.0
C521 C 0.29613 0.51661 0.03023 0.0
C522 C 0.33208 0.50813 -0.00428 0.0
C523 C 0.22413 0.51582 0.03051 0.0
C524 C 0.07083 0.48833 0.96506 0.0
H525 H 0.74891 0.50056 0.04716 0.0
H526 H 0.87507 0.50187 0.04865 0.0
H527 H 0.97171 0.47402 0.94018 0.0
H528 H 0.32107 0.49279 0.93451 0.0
H529 H 0.19618 0.49271 0.93478 0.0
H530 H 0.09708 0.54016 0.05261 0.0
C531 C 0.84833 0.50378 0.02541 0.0
C532 C 0.99882 0.48847 0.96488 0.0
C533 C 0.7763 0.50285 0.02444 0.0
C534 C 0.29464 0.49918 0.96152 0.0
C535 C 0.22267 0.49896 0.96179 0.0
C536 C 0.07103 0.52514 0.02807 0.0
C537 C 0.88553 0.50654 -0.00378 0.0
C538 C 0.96208 0.50662 -0.00352 0.0
C539 C 0.18589 0.50716 -0.00371 0.0
C540 C 0.10845 0.50684 -0.00347 0.0
H541 H 0.75045 0.51059 0.94278 0.0
H542 H 0.87638 0.51123 0.94374 0.0
H543 H 0.97194 0.53919 0.05283 0.0
H544 H 0.32381 0.52334 0.05701 0.0
H545 H 0.19876 0.52172 0.05769 0.0
C546 C 0.26864 0.49073 0.45856 0.0
C547 C 0.30492 0.50595 0.49239 0.0
C548 C 0.19689 0.49125 0.4579 0.0
C549 C 0.04617 0.50375 0.51927 0.0
H550 H 0.95062 0.5143 0.43893 0.0
C551 C 0.75392 0.52064 0.52482 0.0
C552 C 0.71663 0.50966 0.49048 0.0
C553 C 0.82559 0.52017 0.52458 0.0
C554 C 0.9763 0.5109 0.46126 0.0
H555 H 0.29435 0.53336 0.55219 0.0
H556 H 0.16906 0.5341 0.55105 0.0
H557 H 0.07581 0.51321 0.43927 0.0
H558 H 0.72514 0.49034 0.42894 0.0
H559 H 0.85016 0.4881 0.42836 0.0
H560 H 0.94726 0.50077 0.54088 0.0
C561 C 0.19619 0.52181 0.52506 0.0
C562 C 0.0481 0.5104 0.4615 0.0
C563 C 0.26792 0.52151 0.52562 0.0
C564 C 0.75253 0.49845 0.45586 0.0
C565 C 0.82429 0.49757 0.45558 0.0
C566 C 0.97443 0.50391 0.51879 0.0
C567 C 0.15993 0.50672 0.49117 0.0
C568 C 0.08375 0.50697 0.49063 0.0
C569 C 0.86187 0.50843 0.48998 0.0
C570 C 0.93843 0.50766 0.48992 0.0
H571 H 0.29568 0.47866 0.43242 0.0
H572 H 0.17024 0.47927 0.43146 0.0
H573 H 0.07231 0.50069 0.54178 0.0
H574 H 0.72769 0.52958 0.55202 0.0
H575 H 0.85249 0.52928 0.55163 0.0
C576 C 0.07416 0.02556 0.38387 0.0
C577 C 0.02636 0.01067 0.3941 0.0
C578 C 0.06768 0.02753 0.34923 0.0
C579 C 0.9913 0.99309 0.25351 0.0
H580 H 1.02437 0.06067 0.24761 0.0
C581 C 0.9706 0.03925 0.1347 0.0
C582 C 1.00434 0.01856 0.1043 0.0
C583 C 0.96953 0.03952 0.17105 0.0
C584 C 1.01432 0.04174 0.24891 0.0
H585 H 0.93398 0.98636 0.37619 0.0
H586 H 0.92321 0.98951 0.31561 0.0
H587 H 0.02968 0.05876 0.3095 0.0
H588 H 0.0642 0.98212 0.08866 0.0
H589 H 0.06204 0.98267 0.15135 0.0
H590 H 0.97609 0.97603 0.19307 0.0
C591 C 0.96598 0.99951 0.3342 0.0
C592 C 1.01812 0.04057 0.28423 0.0
C593 C 0.97228 0.99763 0.36887 0.0
C594 C 0.03727 0.99834 0.11117 0.0
C595 C 0.03576 0.99852 0.14717 0.0
C596 C 0.98786 0.99424 0.21828 0.0
C597 C 1.01348 0.01453 0.32401 0.0
C598 C 1.00723 0.01616 0.28685 0.0
C599 C 1.0016 0.01896 0.17748 0.0
C600 C 1.00013 0.01849 0.21549 0.0
H601 H 0.11647 0.03577 0.40271 0.0
H602 H 0.10566 0.03894 0.34196 0.0
H603 H 0.9831 0.97395 0.25449 0.0
H604 H 0.94479 0.05514 0.13042 0.0
H605 H 0.94263 0.05551 0.19393 0.0
C606 C 0.97097 0.01101 0.87264 0.0
C607 C 1.02237 1.00111 0.88858 0.0
C608 C 0.98023 0.01097 0.83697 0.0
C609 C 0.03464 0.02544 0.77507 0.0
H610 H 0.10169 0.96304 0.68798 0.0
C611 C 0.08921 0.02803 0.63045 0.0
C612 C 0.062 1.00643 0.59827 0.0
C613 C 0.09135 0.02703 0.66587 0.0
C614 C 0.08292 0.98062 0.71207 0.0
H615 H 0.12232 0.98225 0.87909 0.0
H616 H 0.13834 0.9819 0.8162 0.0
H617 H 0.08967 0.96139 0.74975 0.0
H618 H 1.01786 0.96644 0.57804 0.0
H619 H 1.02152 0.96483 0.63968 0.0
H620 H 0.0264 0.04451 0.73741 0.0
C621 C 0.0911 0.98985 0.83151 0.0
C622 C 0.07657 0.97973 0.74745 0.0
C623 C 0.08195 0.99003 0.86741 0.0
C624 C 0.03891 0.98352 0.60216 0.0
C625 C 0.04144 0.98248 0.63749 0.0
C626 C 0.04137 0.02638 0.73982 0.0
C627 C 0.0408 1.00078 0.81626 0.0
C628 C 0.05137 1.00201 0.77916 0.0
C629 C 0.06689 1.00434 0.66983 0.0
C630 C 0.06475 1.00388 0.70782 0.0
H631 H 0.92398 0.01925 0.88809 0.0
H632 H 0.93992 0.01899 0.82558 0.0
H633 H 1.01598 0.04305 0.79915 0.0
H634 H 0.10805 0.04589 0.62848 0.0
H635 H 0.11199 0.04407 0.69023 0.0
C636 C 0.51518 0.53193 0.38564 0.0
C637 C 0.49061 0.50937 0.38994 0.0
C638 C 0.51327 0.53265 0.35015 0.0
C639 C 0.5108 0.48829 0.24802 0.0
H640 H 0.46635 0.55362 0.23815 0.0
C641 C 0.46918 0.52555 0.12158 0.0
C642 C 0.52707 0.51371 0.09928 0.0
C643 C 0.4612 0.52546 0.15731 0.0
C644 C 0.47836 0.53518 0.24042 0.0
H645 H 0.44278 0.47018 0.36038 0.0
H646 H 0.43958 0.4715 0.2983 0.0
H647 H 0.45448 0.55225 0.29999 0.0
H648 H 0.62341 0.49358 0.09721 0.0
H649 H 0.60976 0.49355 0.15976 0.0
H650 H 0.53445 0.47118 0.18846 0.0
C651 C 0.46099 0.48848 0.32245 0.0
C652 C 0.47212 0.53446 0.27584 0.0
C653 C 0.46265 0.48779 0.35805 0.0
C654 C 0.57787 0.50253 0.11371 0.0
C655 C 0.56986 0.50238 0.14936 0.0
C656 C 0.51722 0.48904 0.21265 0.0
C657 C 0.48682 0.51084 0.31811 0.0
C658 C 0.48892 0.51109 0.28007 0.0
C659 C 0.51107 0.51357 0.17132 0.0
C660 C 0.50176 0.51257 0.20858 0.0
H661 H 0.53693 0.54897 0.40954 0.0
H662 H 0.5343 0.55002 0.34761 0.0
H663 H 0.52471 0.47008 0.25048 0.0
H664 H 0.42915 0.53422 0.11097 0.0
H665 H 0.41518 0.53409 0.17352 0.0
C666 C 0.47204 0.49318 0.60529 0.0
C667 C 0.52216 0.50692 0.59451 0.0
C668 C 0.4775 0.49138 0.64005 0.0
C669 C 0.5228 0.4778 0.70485 0.0
H670 H 0.57615 0.54127 0.79494 0.0
C671 C 0.56563 0.47816 0.85365 0.0
C672 C 0.53718 0.50018 0.88457 0.0
C673 C 0.56753 0.47778 0.8173 0.0
C674 C 0.56105 0.52338 0.77005 0.0
H675 H 0.61758 0.52934 0.61134 0.0
H676 H 0.62703 0.52629 0.67202 0.0
H677 H 0.57044 0.5432 0.73347 0.0
H678 H 0.48743 0.53885 0.90123 0.0
H679 H 0.49033 0.53796 0.83836 0.0
H680 H 0.51143 0.45826 0.74189 0.0
C681 C 0.58307 0.51718 0.6539 0.0
C682 C 0.55845 0.52441 0.73476 0.0
C683 C 0.57758 0.51898 0.61918 0.0
C684 C 0.51017 0.52159 0.87826 0.0
C685 C 0.51221 0.52121 0.84217 0.0
C686 C 0.52544 0.47676 0.74024 0.0
C687 C 0.53318 0.50331 0.66468 0.0
C688 C 0.53857 0.50174 0.70183 0.0
C689 C 0.54132 0.49945 0.81135 0.0
C690 C 0.54364 0.49967 0.77327 0.0
H691 H 0.42869 0.48376 0.58681 0.0
H692 H 0.43767 0.48092 0.64783 0.0
H693 H 0.50821 0.45989 0.67987 0.0
H694 H 0.58684 0.46135 0.85753 0.0
H695 H 0.59052 0.46077 0.79403 0.0
loop_
_geom_bond_atom_site_label_1
_geom_bond_atom_site_label_2
_geom_bond_distance
_geom_bond_site_symmetry_2
_ccdc_geom_bond_type
C0 C2 1.422 . S
C0 C4 1.415 . S
C0 N6 1.369 . S
C1 C2 1.421 . S
C1 C3 1.417 . S
C1 C13 1.422 . S
C2 C0 1.422 . S
C2 C1 1.421 . S
C2 N12 1.359 . S
C3 C1 1.417 . S
C3 C5 1.329 . S
C3 H22 0.930 . S
C4 C0 1.415 . S
C4 C5 1.437 . S
C4 C8 1.413 . S
C5 C3 1.329 . S
C5 C4 1.437 . S
C5 H27 0.929 . S
N6 C0 1.369 . S
N6 C7 1.338 . S
N6 Gd11 2.622 . S
C7 N6 1.338 . S
C7 C9 1.378 . S
C7 H19 0.929 . S
C8 C4 1.413 . S
C8 C9 1.348 . S
C8 H24 0.931 . S
C9 C7 1.378 . S
C9 C8 1.348 . S
C9 H25 0.930 . S
Gd10 N30 2.622 . S
Gd10 N37 2.570 . S
Gd10 O44 2.353 1_655 S
Gd10 O45 2.468 1_655 S
Gd10 O46 2.427 1_655 S
Gd10 O48 2.388 1_655 S
Gd10 O49 2.386 . S
Gd10 O53 2.307 1_556 S
Gd10 C63 2.805 1_655 S
Gd11 N6 2.622 . S
Gd11 N12 2.570 . S
Gd11 O43 2.386 . S
Gd11 O47 2.307 1_554 S
Gd11 O50 2.353 1_455 S
Gd11 O51 2.468 1_455 S
Gd11 O52 2.427 1_455 S
Gd11 O54 2.388 1_455 S
Gd11 C75 2.805 1_455 S
N12 C2 1.359 . S
N12 Gd11 2.570 . S
N12 C14 1.343 1_554 S
C13 C1 1.422 . S
C13 C15 1.321 1_554 S
C13 H21 0.931 1_554 S
C14 N12 1.343 1_556 S
C14 C15 1.390 . S
C14 H16 0.931 . S
C15 C13 1.321 1_556 S
C15 C14 1.390 . S
C15 H17 0.930 . S
H16 C14 0.931 . S
H17 C15 0.930 . S
H18 C41 0.931 . S
H19 C7 0.929 . S
H20 C42 0.930 . S
H21 C13 0.931 1_556 S
H22 C3 0.930 . S
H23 C32 0.929 . S
H24 C8 0.931 . S
H25 C9 0.930 . S
H26 C64 0.930 . S
H27 C5 0.929 . S
H28 C33 0.931 . S
H29 C34 0.930 . S
N30 Gd10 2.622 . S
N30 C31 1.369 . S
N30 C32 1.338 . S
C31 N30 1.369 . S
C31 C35 1.415 . S
C31 C38 1.422 . S
C32 H23 0.929 . S
C32 N30 1.338 . S
C32 C34 1.378 . S
C33 H28 0.931 . S
C33 C34 1.348 . S
C33 C35 1.413 . S
C34 H29 0.930 . S
C34 C32 1.378 . S
C34 C33 1.348 . S
C35 C31 1.415 . S
C35 C33 1.413 . S
C35 C65 1.437 . S
H36 C65 0.929 . S
N37 Gd10 2.570 . S
N37 C38 1.359 . S
N37 C41 1.343 1_556 S
C38 C31 1.422 . S
C38 N37 1.359 . S
C38 C40 1.421 . S
C39 C40 1.422 . S
C39 C42 1.321 1_556 S
C39 H66 0.931 1_556 S
C40 C38 1.421 . S
C40 C39 1.422 . S
C40 C64 1.417 . S
C41 H18 0.931 . S
C41 N37 1.343 1_554 S
C41 C42 1.390 . S
C42 H20 0.930 . S
C42 C39 1.321 1_554 S
C42 C41 1.390 . S
O43 Gd11 2.386 . S
O43 C55 1.265 1_545 S
O44 Gd10 2.353 1_455 S
O44 C55 1.242 1_556 S
O45 Gd10 2.468 1_455 S
O45 C63 1.263 . S
O46 Gd10 2.427 1_455 S
O46 C63 1.252 . S
O47 Gd11 2.307 1_556 S
O47 C56 1.261 1_545 S
O48 Gd10 2.388 1_455 S
O48 C56 1.252 . S
O49 Gd10 2.386 . S
O49 C67 1.265 1_565 S
O50 Gd11 2.353 1_655 S
O50 C67 1.242 1_554 S
O51 Gd11 2.468 1_655 S
O51 C75 1.263 . S
O52 Gd11 2.427 1_655 S
O52 C75 1.252 . S
O53 Gd10 2.307 1_554 S
O53 C68 1.261 1_565 S
O54 Gd11 2.388 1_655 S
O54 C68 1.252 . S
C55 O43 1.265 1_565 S
C55 O44 1.242 1_554 S
C56 O47 1.261 1_565 S
C56 O48 1.252 . S
C57 C60 1.394 . S
C57 C62 1.370 . S
C57 C63 1.500 . S
C58 C61 1.383 . S
C58 C62 1.395 . S
C59 C60 1.396 . S
C59 C61 1.365 . S
C59 H76 0.929 . S
C60 C57 1.394 . S
C60 C59 1.396 . S
C60 H77 0.930 . S
C61 C58 1.383 . S
C61 C59 1.365 . S
C61 H78 0.931 . S
C62 C57 1.370 . S
C62 C58 1.395 . S
C62 H79 0.930 1_556 S
C63 Gd10 2.805 1_455 S
C63 O45 1.263 . S
C63 O46 1.252 . S
C63 C57 1.500 . S
C64 H26 0.930 . S
C64 C40 1.417 . S
C64 C65 1.329 . S
C65 C35 1.437 . S
C65 H36 0.929 . S
C65 C64 1.329 . S
H66 C39 0.931 1_554 S
C67 O49 1.265 1_545 S
C67 O50 1.242 1_556 S
C68 O53 1.261 1_545 S
C68 O54 1.252 . S
C69 C72 1.394 . S
C69 C74 1.370 . S
C69 C75 1.500 . S
C70 C73 1.383 . S
C70 C74 1.395 . S
C71 C72 1.396 . S
C71 C73 1.365 . S
C71 H80 0.929 . S
C72 C69 1.394 . S
C72 C71 1.396 . S
C72 H81 0.930 . S
C73 C70 1.383 . S
C73 C71 1.365 . S
C73 H82 0.931 . S
C74 C69 1.370 . S
C74 C70 1.395 . S
C74 H83 0.930 1_554 S
C75 Gd11 2.805 1_655 S
C75 O51 1.263 . S
C75 O52 1.252 . S
C75 C69 1.500 . S
H76 C59 0.929 . S
H77 C60 0.930 . S
H78 C61 0.931 . S
H79 C62 0.930 1_554 S
H80 C71 0.929 . S
H81 C72 0.930 . S
H82 C73 0.931 . S
H83 C74 0.930 1_556 S
C84 C86 1.422 . S
C84 C88 1.415 . S
C84 N90 1.369 . S
C85 C86 1.421 . S
C85 C87 1.417 . S
C85 C97 1.422 . S
C86 C84 1.422 . S
C86 C85 1.421 . S
C86 N96 1.359 . S
C87 C85 1.417 . S
C87 C89 1.329 . S
C87 H106 0.930 . S
C88 C84 1.415 . S
C88 C89 1.437 . S
C88 C92 1.413 . S
C89 C87 1.329 . S
C89 C88 1.437 . S
C89 H111 0.929 . S
N90 C84 1.369 . S
N90 C91 1.338 . S
N90 Gd95 2.622 . S
C91 N90 1.338 . S
C91 C93 1.378 . S
C91 H103 0.929 . S
C92 C88 1.413 . S
C92 C93 1.348 . S
C92 H108 0.931 . S
C93 C91 1.378 . S
C93 C92 1.348 . S
C93 H109 0.930 . S
Gd94 N114 2.622 . S
Gd94 N121 2.570 . S
Gd94 O128 2.353 1_655 S
Gd94 O129 2.468 1_655 S
Gd94 O130 2.427 1_655 S
Gd94 O132 2.388 1_655 S
Gd94 O133 2.386 . S
Gd94 O137 2.307 . S
Gd94 C147 2.805 1_655 S
Gd95 N90 2.622 . S
Gd95 N96 2.570 . S
Gd95 O127 2.386 . S
Gd95 O131 2.307 . S
Gd95 O134 2.353 1_455 S
Gd95 O135 2.468 1_455 S
Gd95 O136 2.427 1_455 S
Gd95 O138 2.388 1_455 S
Gd95 C159 2.805 1_455 S
N96 C86 1.359 . S
N96 Gd95 2.570 . S
N96 C98 1.343 . S
C97 C85 1.422 . S
C97 C99 1.321 . S
C97 H105 0.931 . S
C98 N96 1.343 . S
C98 C99 1.390 . S
C98 H100 0.931 . S
C99 C97 1.321 . S
C99 C98 1.390 . S
C99 H101 0.930 . S
H100 C98 0.931 . S
H101 C99 0.930 . S
H102 C125 0.931 . S
H103 C91 0.929 . S
H104 C126 0.930 . S
H105 C97 0.931 . S
H106 C87 0.930 . S
H107 C116 0.929 . S
H108 C92 0.931 . S
H109 C93 0.930 . S
H110 C148 0.930 . S
H111 C89 0.929 . S
H112 C117 0.931 . S
H113 C118 0.930 . S
N114 Gd94 2.622 . S
N114 C115 1.369 . S
N114 C116 1.338 . S
C115 N114 1.369 . S
C115 C119 1.415 . S
C115 C122 1.422 . S
C116 H107 0.929 . S
C116 N114 1.338 . S
C116 C118 1.378 . S
C117 H112 0.931 . S
C117 C118 1.348 . S
C117 C119 1.413 . S
C118 H113 0.930 . S
C118 C116 1.378 . S
C118 C117 1.348 . S
C119 C115 1.415 . S
C119 C117 1.413 . S
C119 C149 1.437 . S
H120 C149 0.929 . S
N121 Gd94 2.570 . S
N121 C122 1.359 . S
N121 C125 1.343 . S
C122 C115 1.422 . S
C122 N121 1.359 . S
C122 C124 1.421 . S
C123 C124 1.422 . S
C123 C126 1.321 . S
C123 H150 0.931 . S
C124 C122 1.421 . S
C124 C123 1.422 . S
C124 C148 1.417 . S
C125 H102 0.931 . S
C125 N121 1.343 . S
C125 C126 1.390 . S
C126 H104 0.930 . S
C126 C123 1.321 . S
C126 C125 1.390 . S
O127 Gd95 2.386 . S
O127 C139 1.265 1_565 S
O128 Gd94 2.353 1_455 S
O128 C139 1.242 . S
O129 Gd94 2.468 1_455 S
O129 C147 1.263 . S
O130 Gd94 2.427 1_455 S
O130 C147 1.252 . S
O131 Gd95 2.307 . S
O131 C140 1.261 1_565 S
O132 Gd94 2.388 1_455 S
O132 C140 1.252 . S
O133 Gd94 2.386 . S
O133 C151 1.265 1_545 S
O134 Gd95 2.353 1_655 S
O134 C151 1.242 . S
O135 Gd95 2.468 1_655 S
O135 C159 1.263 . S
O136 Gd95 2.427 1_655 S
O136 C159 1.252 . S
O137 Gd94 2.307 . S
O137 C152 1.261 1_545 S
O138 Gd95 2.388 1_655 S
O138 C152 1.252 . S
C139 O127 1.265 1_545 S
C139 O128 1.242 . S
C140 O131 1.261 1_545 S
C140 O132 1.252 . S
C141 C144 1.394 . S
C141 C146 1.370 . S
C141 C147 1.500 . S
C142 C145 1.383 . S
C142 C146 1.395 . S
C143 C144 1.396 . S
C143 C145 1.365 . S
C143 H160 0.929 . S
C144 C141 1.394 . S
C144 C143 1.396 . S
C144 H161 0.930 . S
C145 C142 1.383 . S
C145 C143 1.365 . S
C145 H162 0.931 . S
C146 C141 1.370 . S
C146 C142 1.395 . S
C146 H163 0.930 . S
C147 Gd94 2.805 1_455 S
C147 O129 1.263 . S
C147 O130 1.252 . S
C147 C141 1.500 . S
C148 H110 0.930 . S
C148 C124 1.417 . S
C148 C149 1.329 . S
C149 C119 1.437 . S
C149 H120 0.929 . S
C149 C148 1.329 . S
H150 C123 0.931 . S
C151 O133 1.265 1_565 S
C151 O134 1.242 . S
C152 O137 1.261 1_565 S
C152 O138 1.252 . S
C153 C156 1.394 . S
C153 C158 1.370 . S
C153 C159 1.500 . S
C154 C157 1.383 . S
C154 C158 1.395 . S
C155 C156 1.396 . S
C155 C157 1.365 . S
C155 H164 0.929 . S
C156 C153 1.394 . S
C156 C155 1.396 . S
C156 H165 0.930 . S
C157 C154 1.383 . S
C157 C155 1.365 . S
C157 H166 0.931 . S
C158 C153 1.370 . S
C158 C154 1.395 . S
C158 H167 0.930 . S
C159 Gd95 2.805 1_655 S
C159 O135 1.263 . S
C159 O136 1.252 . S
C159 C153 1.500 . S
H160 C143 0.929 . S
H161 C144 0.930 . S
H162 C145 0.931 . S
H163 C146 0.930 . S
H164 C155 0.929 . S
H165 C156 0.930 . S
H166 C157 0.931 . S
H167 C158 0.930 . S
C168 C170 1.422 . S
C168 C172 1.415 . S
C168 N174 1.369 . S
C169 C170 1.421 . S
C169 C171 1.417 . S
C169 C181 1.422 . S
C170 C168 1.422 . S
C170 C169 1.421 . S
C170 N180 1.359 . S
C171 C169 1.417 . S
C171 C173 1.329 . S
C171 H190 0.930 . S
C172 C168 1.415 . S
C172 C173 1.437 . S
C172 C176 1.413 . S
C173 C171 1.329 . S
C173 C172 1.437 . S
C173 H195 0.929 . S
N174 C168 1.369 . S
N174 C175 1.338 . S
N174 Gd179 2.622 . S
C175 N174 1.338 . S
C175 C177 1.378 . S
C175 H187 0.929 . S
C176 C172 1.413 . S
C176 C177 1.348 . S
C176 H192 0.931 . S
C177 C175 1.378 . S
C177 C176 1.348 . S
C177 H193 0.930 . S
Gd178 N198 2.622 . S
Gd178 N205 2.570 . S
Gd178 O212 2.353 . S
Gd178 O213 2.468 . S
Gd178 O214 2.427 . S
Gd178 O216 2.388 . S
Gd178 O217 2.386 . S
Gd178 O221 2.307 1_556 S
Gd178 C231 2.805 . S
Gd179 N174 2.622 . S
Gd179 N180 2.570 . S
Gd179 O211 2.386 . S
Gd179 O215 2.307 1_554 S
Gd179 O218 2.353 . S
Gd179 O219 2.468 . S
Gd179 O220 2.427 . S
Gd179 O222 2.388 . S
Gd179 C243 2.805 . S
N180 C170 1.359 . S
N180 Gd179 2.570 . S
N180 C182 1.343 1_554 S
C181 C169 1.422 . S
C181 C183 1.321 1_554 S
C181 H189 0.931 1_554 S
C182 N180 1.343 1_556 S
C182 C183 1.390 . S
C182 H184 0.931 . S
C183 C181 1.321 1_556 S
C183 C182 1.390 . S
C183 H185 0.930 . S
H184 C182 0.931 . S
H185 C183 0.930 . S
H186 C209 0.931 . S
H187 C175 0.929 . S
H188 C210 0.930 . S
H189 C181 0.931 1_556 S
H190 C171 0.930 . S
H191 C200 0.929 . S
H192 C176 0.931 . S
H193 C177 0.930 . S
H194 C232 0.930 . S
H195 C173 0.929 . S
H196 C201 0.931 . S
H197 C202 0.930 . S
N198 Gd178 2.622 . S
N198 C199 1.369 . S
N198 C200 1.338 . S
C199 N198 1.369 . S
C199 C203 1.415 . S
C199 C206 1.422 . S
C200 H191 0.929 . S
C200 N198 1.338 . S
C200 C202 1.378 . S
C201 H196 0.931 . S
C201 C202 1.348 . S
C201 C203 1.413 . S
C202 H197 0.930 . S
C202 C200 1.378 . S
C202 C201 1.348 . S
C203 C199 1.415 . S
C203 C201 1.413 . S
C203 C233 1.437 . S
H204 C233 0.929 . S
N205 Gd178 2.570 . S
N205 C206 1.359 . S
N205 C209 1.343 1_556 S
C206 C199 1.422 . S
C206 N205 1.359 . S
C206 C208 1.421 . S
C207 C208 1.422 . S
C207 C210 1.321 1_556 S
C207 H234 0.931 1_556 S
C208 C206 1.421 . S
C208 C207 1.422 . S
C208 C232 1.417 . S
C209 H186 0.931 . S
C209 N205 1.343 1_554 S
C209 C210 1.390 . S
C210 H188 0.930 . S
C210 C207 1.321 1_554 S
C210 C209 1.390 . S
O211 Gd179 2.386 . S
O211 C223 1.265 . S
O212 Gd178 2.353 . S
O212 C223 1.242 1_556 S
O213 Gd178 2.468 . S
O213 C231 1.263 . S
O214 Gd178 2.427 . S
O214 C231 1.252 . S
O215 Gd179 2.307 1_556 S
O215 C224 1.261 . S
O216 Gd178 2.388 . S
O216 C224 1.252 . S
O217 Gd178 2.386 . S
O217 C235 1.265 . S
O218 Gd179 2.353 . S
O218 C235 1.242 1_554 S
O219 Gd179 2.468 . S
O219 C243 1.263 . S
O220 Gd179 2.427 . S
O220 C243 1.252 . S
O221 Gd178 2.307 1_554 S
O221 C236 1.261 . S
O222 Gd179 2.388 . S
O222 C236 1.252 . S
C223 O211 1.265 . S
C223 O212 1.242 1_554 S
C224 O215 1.261 . S
C224 O216 1.252 . S
C225 C228 1.394 . S
C225 C230 1.370 . S
C225 C231 1.500 . S
C226 C229 1.383 . S
C226 C230 1.395 . S
C227 C228 1.396 . S
C227 C229 1.365 . S
C227 H244 0.929 . S
C228 C225 1.394 . S
C228 C227 1.396 . S
C228 H245 0.930 . S
C229 C226 1.383 . S
C229 C227 1.365 . S
C229 H246 0.931 . S
C230 C225 1.370 . S
C230 C226 1.395 . S
C230 H247 0.930 1_556 S
C231 Gd178 2.805 . S
C231 O213 1.263 . S
C231 O214 1.252 . S
C231 C225 1.500 . S
C232 H194 0.930 . S
C232 C208 1.417 . S
C232 C233 1.329 . S
C233 C203 1.437 . S
C233 H204 0.929 . S
C233 C232 1.329 . S
H234 C207 0.931 1_554 S
C235 O217 1.265 . S
C235 O218 1.242 1_556 S
C236 O221 1.261 . S
C236 O222 1.252 . S
C237 C240 1.394 . S
C237 C242 1.370 . S
C237 C243 1.500 . S
C238 C241 1.383 . S
C238 C242 1.395 . S
C239 C240 1.396 . S
C239 C241 1.365 . S
C239 H248 0.929 . S
C240 C237 1.394 . S
C240 C239 1.396 . S
C240 H249 0.930 . S
C241 C238 1.383 . S
C241 C239 1.365 . S
C241 H250 0.931 . S
C242 C237 1.370 . S
C242 C238 1.395 . S
C242 H251 0.930 1_554 S
C243 Gd179 2.805 . S
C243 O219 1.263 . S
C243 O220 1.252 . S
C243 C237 1.500 . S
H244 C227 0.929 . S
H245 C228 0.930 . S
H246 C229 0.931 . S
H247 C230 0.930 1_554 S
H248 C239 0.929 . S
H249 C240 0.930 . S
H250 C241 0.931 . S
H251 C242 0.930 1_556 S
C252 C254 1.422 . S
C252 C256 1.415 . S
C252 N258 1.369 . S
C253 C254 1.421 . S
C253 C255 1.417 . S
C253 C265 1.422 . S
C254 C252 1.422 . S
C254 C253 1.421 . S
C254 N264 1.359 . S
C255 C253 1.417 . S
C255 C257 1.329 . S
C255 H274 0.930 . S
C256 C252 1.415 . S
C256 C257 1.437 . S
C256 C260 1.413 . S
C257 C255 1.329 . S
C257 C256 1.437 . S
C257 H279 0.929 . S
N258 C252 1.369 . S
N258 C259 1.338 . S
N258 Gd263 2.622 . S
C259 N258 1.338 . S
C259 C261 1.378 . S
C259 H271 0.929 . S
C260 C256 1.413 . S
C260 C261 1.348 . S
C260 H276 0.931 . S
C261 C259 1.378 . S
C261 C260 1.348 . S
C261 H277 0.930 . S
Gd262 N282 2.622 . S
Gd262 N289 2.570 . S
Gd262 O296 2.353 . S
Gd262 O297 2.468 . S
Gd262 O298 2.427 . S
Gd262 O300 2.388 . S
Gd262 O301 2.386 . S
Gd262 O305 2.307 . S
Gd262 C315 2.805 . S
Gd263 N258 2.622 . S
Gd263 N264 2.570 . S
Gd263 O295 2.386 . S
Gd263 O299 2.307 . S
Gd263 O302 2.353 . S
Gd263 O303 2.468 . S
Gd263 O304 2.427 . S
Gd263 O306 2.388 . S
Gd263 C327 2.805 . S
N264 C254 1.359 . S
N264 Gd263 2.570 . S
N264 C266 1.343 . S
C265 C253 1.422 . S
C265 C267 1.321 . S
C265 H273 0.931 . S
C266 N264 1.343 . S
C266 C267 1.390 . S
C266 H268 0.931 . S
C267 C265 1.321 . S
C267 C266 1.390 . S
C267 H269 0.930 . S
H268 C266 0.931 . S
H269 C267 0.930 . S
H270 C293 0.931 . S
H271 C259 0.929 . S
H272 C294 0.930 . S
H273 C265 0.931 . S
H274 C255 0.930 . S
H275 C284 0.929 . S
H276 C260 0.931 . S
H277 C261 0.930 . S
H278 C316 0.930 . S
H279 C257 0.929 . S
H280 C285 0.931 . S
H281 C286 0.930 . S
N282 Gd262 2.622 . S
N282 C283 1.369 . S
N282 C284 1.338 . S
C283 N282 1.369 . S
C283 C287 1.415 . S
C283 C290 1.422 . S
C284 H275 0.929 . S
C284 N282 1.338 . S
C284 C286 1.378 . S
C285 H280 0.931 . S
C285 C286 1.348 . S
C285 C287 1.413 . S
C286 H281 0.930 . S
C286 C284 1.378 . S
C286 C285 1.348 . S
C287 C283 1.415 . S
C287 C285 1.413 . S
C287 C317 1.437 . S
H288 C317 0.929 . S
N289 Gd262 2.570 . S
N289 C290 1.359 . S
N289 C293 1.343 . S
C290 C283 1.422 . S
C290 N289 1.359 . S
C290 C292 1.421 . S
C291 C292 1.422 . S
C291 C294 1.321 . S
C291 H318 0.931 . S
C292 C290 1.421 . S
C292 C291 1.422 . S
C292 C316 1.417 . S
C293 H270 0.931 . S
C293 N289 1.343 . S
C293 C294 1.390 . S
C294 H272 0.930 . S
C294 C291 1.321 . S
C294 C293 1.390 . S
O295 Gd263 2.386 . S
O295 C307 1.265 . S
O296 Gd262 2.353 . S
O296 C307 1.242 . S
O297 Gd262 2.468 . S
O297 C315 1.263 . S
O298 Gd262 2.427 . S
O298 C315 1.252 . S
O299 Gd263 2.307 . S
O299 C308 1.261 . S
O300 Gd262 2.388 . S
O300 C308 1.252 . S
O301 Gd262 2.386 . S
O301 C319 1.265 . S
O302 Gd263 2.353 . S
O302 C319 1.242 . S
O303 Gd263 2.468 . S
O303 C327 1.263 . S
O304 Gd263 2.427 . S
O304 C327 1.252 . S
O305 Gd262 2.307 . S
O305 C320 1.261 . S
O306 Gd263 2.388 . S
O306 C320 1.252 . S
C307 O295 1.265 . S
C307 O296 1.242 . S
C308 O299 1.261 . S
C308 O300 1.252 . S
C309 C312 1.394 . S
C309 C314 1.370 . S
C309 C315 1.500 . S
C310 C313 1.383 . S
C310 C314 1.395 . S
C311 C312 1.396 . S
C311 C313 1.365 . S
C311 H328 0.929 . S
C312 C309 1.394 . S
C312 C311 1.396 . S
C312 H329 0.930 . S
C313 C310 1.383 . S
C313 C311 1.365 . S
C313 H330 0.931 . S
C314 C309 1.370 . S
C314 C310 1.395 . S
C314 H331 0.930 . S
C315 Gd262 2.805 . S
C315 O297 1.263 . S
C315 O298 1.252 . S
C315 C309 1.500 . S
C316 H278 0.930 . S
C316 C292 1.417 . S
C316 C317 1.329 . S
C317 C287 1.437 . S
C317 H288 0.929 . S
C317 C316 1.329 . S
H318 C291 0.931 . S
C319 O301 1.265 . S
C319 O302 1.242 . S
C320 O305 1.261 . S
C320 O306 1.252 . S
C321 C324 1.394 . S
C321 C326 1.370 . S
C321 C327 1.500 . S
C322 C325 1.383 . S
C322 C326 1.395 . S
C323 C324 1.396 . S
C323 C325 1.365 . S
C323 H332 0.929 . S
C324 C321 1.394 . S
C324 C323 1.396 . S
C324 H333 0.930 . S
C325 C322 1.383 . S
C325 C323 1.365 . S
C325 H334 0.931 . S
C326 C321 1.370 . S
C326 C322 1.395 . S
C326 H335 0.930 . S
C327 Gd263 2.805 . S
C327 O303 1.263 . S
C327 O304 1.252 . S
C327 C321 1.500 . S
H328 C311 0.929 . S
H329 C312 0.930 . S
H330 C313 0.931 . S
H331 C314 0.930 . S
H332 C323 0.929 . S
H333 C324 0.930 . S
H334 C325 0.931 . S
H335 C326 0.930 . S
C336 C337 1.349 1_554 S
C336 C338 1.327 . S
C336 H361 0.950 . S
C337 C336 1.349 1_556 S
C337 C353 1.349 . S
C338 C336 1.327 . S
C338 C357 1.416 1_554 S
C338 H362 0.950 . S
C339 C356 1.574 . S
C339 C358 1.371 . S
C339 H363 0.949 . S
H340 C344 0.949 . S
C341 C342 1.349 1_556 S
C341 C343 1.327 . S
C341 H364 0.950 . S
C342 C341 1.349 1_554 S
C342 C354 1.349 . S
C343 C341 1.327 . S
C343 C359 1.410 1_556 S
C343 H365 0.950 . S
C344 H340 0.949 . S
C344 C352 1.574 . S
C344 C360 1.377 . S
H345 C353 0.950 . S
H346 C351 0.950 . S
H347 C352 0.949 . S
H348 C354 0.950 . S
H349 C355 0.950 . S
H350 C356 0.949 . S
C351 H346 0.950 . S
C351 C353 1.327 . S
C351 C357 1.434 . S
C352 C344 1.574 . S
C352 H347 0.949 . S
C352 C358 1.367 1_554 S
C353 C337 1.349 . S
C353 H345 0.950 . S
C353 C351 1.327 . S
C354 C342 1.349 . S
C354 H348 0.950 . S
C354 C355 1.327 . S
C355 H349 0.950 . S
C355 C354 1.327 . S
C355 C359 1.437 . S
C356 C339 1.574 . S
C356 H350 0.949 . S
C356 C360 1.363 1_556 S
C357 C338 1.416 1_556 S
C357 C351 1.434 . S
C357 C358 1.528 . S
C358 C339 1.371 . S
C358 C352 1.367 1_556 S
C358 C357 1.528 . S
C359 C343 1.410 1_554 S
C359 C355 1.437 . S
C359 C360 1.528 . S
C360 C344 1.377 . S
C360 C356 1.363 1_554 S
C360 C359 1.528 . S
H361 C336 0.950 . S
H362 C338 0.950 . S
H363 C339 0.949 . S
H364 C341 0.950 . S
H365 C343 0.950 . S
C366 C367 1.349 . S
C366 C368 1.327 . S
C366 H391 0.950 . S
C367 C366 1.349 . S
C367 C383 1.349 1_554 S
C368 C366 1.327 . S
C368 C387 1.440 . S
C368 H392 0.950 . S
C369 C386 1.574 . S
C369 C388 1.362 1_556 S
C369 H393 0.949 . S
H370 C374 0.949 . S
C371 C372 1.349 . S
C371 C373 1.327 . S
C371 H394 0.950 . S
C372 C371 1.349 . S
C372 C384 1.349 1_556 S
C373 C371 1.327 . S
C373 C389 1.436 . S
C373 H395 0.950 . S
C374 H370 0.949 . S
C374 C382 1.574 . S
C374 C390 1.366 1_554 S
H375 C383 0.950 . S
H376 C381 0.950 . S
H377 C382 0.949 . S
H378 C384 0.950 . S
H379 C385 0.950 . S
H380 C386 0.949 . S
C381 H376 0.950 . S
C381 C383 1.327 . S
C381 C387 1.406 1_556 S
C382 C374 1.574 . S
C382 H377 0.949 . S
C382 C388 1.379 . S
C383 C367 1.349 1_556 S
C383 H375 0.950 . S
C383 C381 1.327 . S
C384 C372 1.349 1_554 S
C384 H378 0.950 . S
C384 C385 1.327 . S
C385 H379 0.950 . S
C385 C384 1.327 . S
C385 C389 1.414 1_554 S
C386 C369 1.574 . S
C386 H380 0.949 . S
C386 C390 1.371 . S
C387 C368 1.440 . S
C387 C381 1.406 1_554 S
C387 C388 1.528 . S
C388 C369 1.362 1_554 S
C388 C382 1.379 . S
C388 C387 1.528 . S
C389 C373 1.436 . S
C389 C385 1.414 1_556 S
C389 C390 1.528 . S
C390 C374 1.366 1_556 S
C390 C386 1.371 . S
C390 C389 1.528 . S
H391 C366 0.950 . S
H392 C368 0.950 . S
H393 C369 0.949 . S
H394 C371 0.950 . S
H395 C373 0.950 . S
C396 C397 1.349 . S
C396 C398 1.327 . S
C396 H421 0.950 . S
C397 C396 1.349 . S
C397 C413 1.349 . S
C398 C396 1.327 . S
C398 C417 1.429 . S
C398 H422 0.950 . S
C399 C416 1.574 . S
C399 C418 1.368 . S
C399 H423 0.949 . S
H400 C404 0.949 . S
C401 C402 1.349 . S
C401 C403 1.327 . S
C401 H424 0.950 . S
C402 C401 1.349 . S
C402 C414 1.349 . S
C403 C401 1.327 . S
C403 C419 1.429 . S
C403 H425 0.950 . S
C404 H400 0.949 . S
C404 C412 1.574 . S
C404 C420 1.368 . S
H405 C413 0.950 . S
H406 C411 0.950 . S
H407 C412 0.949 . S
H408 C414 0.950 . S
H409 C415 0.950 . S
H410 C416 0.949 . S
C411 H406 0.950 . S
C411 C413 1.327 . S
C411 C417 1.429 . S
C412 C404 1.574 . S
C412 H407 0.949 . S
C412 C418 1.368 . S
C413 C397 1.349 . S
C413 H405 0.950 . S
C413 C411 1.327 . S
C414 C402 1.349 . S
C414 H408 0.950 . S
C414 C415 1.327 . S
C415 H409 0.950 . S
C415 C414 1.327 . S
C415 C419 1.429 . S
C416 C399 1.574 . S
C416 H410 0.949 . S
C416 C420 1.368 . S
C417 C398 1.429 . S
C417 C411 1.429 . S
C417 C418 1.523 . S
C418 C399 1.368 . S
C418 C412 1.368 . S
C418 C417 1.523 . S
C419 C403 1.429 . S
C419 C415 1.429 . S
C419 C420 1.523 . S
C420 C404 1.368 . S
C420 C416 1.368 . S
C420 C419 1.523 . S
H421 C396 0.950 . S
H422 C398 0.950 . S
H423 C399 0.949 . S
H424 C401 0.950 . S
H425 C403 0.950 . S
C426 C427 1.349 . S
C426 C428 1.327 . S
C426 H451 0.950 . S
C427 C426 1.349 . S
C427 C443 1.349 . S
C428 C426 1.327 . S
C428 C447 1.429 . S
C428 H452 0.950 . S
C429 C446 1.574 . S
C429 C448 1.368 . S
C429 H453 0.949 . S
H430 C434 0.949 . S
C431 C432 1.349 . S
C431 C433 1.327 . S
C431 H454 0.950 . S
C432 C431 1.349 . S
C432 C444 1.349 . S
C433 C431 1.327 . S
C433 C449 1.429 . S
C433 H455 0.950 . S
C434 H430 0.949 . S
C434 C442 1.574 . S
C434 C450 1.368 . S
H435 C443 0.950 . S
H436 C441 0.950 . S
H437 C442 0.949 . S
H438 C444 0.950 . S
H439 C445 0.950 . S
H440 C446 0.949 . S
C441 H436 0.950 . S
C441 C443 1.327 . S
C441 C447 1.429 . S
C442 C434 1.574 . S
C442 H437 0.949 . S
C442 C448 1.368 . S
C443 C427 1.349 . S
C443 H435 0.950 . S
C443 C441 1.327 . S
C444 C432 1.349 . S
C444 H438 0.950 . S
C444 C445 1.327 . S
C445 H439 0.950 . S
C445 C444 1.327 . S
C445 C449 1.429 . S
C446 C429 1.574 . S
C446 H440 0.949 . S
C446 C450 1.368 . S
C447 C428 1.429 . S
C447 C441 1.429 . S
C447 C448 1.523 . S
C448 C429 1.368 . S
C448 C442 1.368 . S
C448 C447 1.523 . S
C449 C433 1.429 . S
C449 C445 1.429 . S
C449 C450 1.523 . S
C450 C434 1.368 . S
C450 C446 1.368 . S
C450 C449 1.523 . S
H451 C426 0.950 . S
H452 C428 0.950 . S
H453 C429 0.949 . S
H454 C431 0.950 . S
H455 C433 0.950 . S
C456 C457 1.352 1_554 S
C456 C458 1.327 . S
C456 H481 0.950 . S
C457 C456 1.352 1_556 S
C457 C473 1.346 1_565 S
C458 C456 1.327 . S
C458 C477 1.427 . S
C458 H482 0.950 . S
C459 C476 1.574 . S
C459 C478 1.354 1_546 S
C459 H483 0.949 . S
H460 C464 0.949 . S
C461 C462 1.345 1_556 S
C461 C463 1.327 . S
C461 H484 0.950 . S
C462 C461 1.345 1_554 S
C462 C474 1.353 1_545 S
C463 C461 1.327 . S
C463 C479 1.427 1_556 S
C463 H485 0.950 . S
C464 H460 0.949 . S
C464 C472 1.574 . S
C464 C480 1.348 1_565 S
H465 C473 0.950 . S
H466 C471 0.950 . S
H467 C472 0.949 . S
H468 C474 0.950 . S
H469 C475 0.950 . S
H470 C476 0.949 . S
C471 H466 0.950 . S
C471 C473 1.327 . S
C471 C477 1.430 1_546 S
C472 C464 1.574 . S
C472 H467 0.949 . S
C472 C478 1.383 . S
C473 C457 1.346 1_545 S
C473 H465 0.950 . S
C473 C471 1.327 . S
C474 C462 1.353 1_565 S
C474 H468 0.950 . S
C474 C475 1.327 . S
C475 H469 0.950 . S
C475 C474 1.327 . S
C475 C479 1.430 1_565 S
C476 C459 1.574 . S
C476 H470 0.949 . S
C476 C480 1.389 1_556 S
C477 C458 1.427 . S
C477 C471 1.430 1_564 S
C477 C478 1.524 . S
C478 C459 1.354 1_564 S
C478 C472 1.383 . S
C478 C477 1.524 . S
C479 C463 1.427 1_554 S
C479 C475 1.430 1_545 S
C479 C480 1.525 . S
C480 C464 1.348 1_545 S
C480 C476 1.389 1_554 S
C480 C479 1.525 . S
H481 C456 0.950 . S
H482 C458 0.950 . S
H483 C459 0.949 . S
H484 C461 0.950 . S
H485 C463 0.950 . S
C486 C487 1.349 . S
C486 C488 1.327 . S
C486 H511 0.950 . S
C487 C486 1.349 . S
C487 C503 1.363 . S
C488 C486 1.327 . S
C488 C507 1.429 . S
C488 H512 0.950 . S
C489 C506 1.574 . S
C489 C508 1.350 1_565 S
C489 H513 0.949 . S
H490 C494 0.949 . S
C491 C492 1.349 . S
C491 C493 1.327 . S
C491 H514 0.950 . S
C492 C491 1.349 . S
C492 C504 1.357 . S
C493 C491 1.327 . S
C493 C509 1.429 . S
C493 H515 0.950 . S
C494 H490 0.949 . S
C494 C502 1.574 . S
C494 C510 1.355 1_545 S
H495 C503 0.927 1_565 S
H496 C501 0.951 . S
H497 C502 0.949 . S
H498 C504 0.927 1_545 S
H499 C505 0.956 . S
H500 C506 0.949 . S
C501 H496 0.951 . S
C501 C503 1.326 1_565 S
C501 C507 1.428 1_565 S
C502 C494 1.574 . S
C502 H497 0.949 . S
C502 C508 1.387 . S
C503 C487 1.363 . S
C503 H495 0.927 1_545 S
C503 C501 1.326 1_545 S
C504 C492 1.357 . S
C504 H498 0.927 1_565 S
C504 C505 1.326 1_565 S
C505 H499 0.956 . S
C505 C504 1.326 1_545 S
C505 C509 1.423 1_545 S
C506 C489 1.574 . S
C506 H500 0.949 . S
C506 C510 1.381 . S
C507 C488 1.429 . S
C507 C501 1.428 1_545 S
C507 C508 1.525 . S
C508 C489 1.350 1_545 S
C508 C502 1.387 . S
C508 C507 1.525 . S
C509 C493 1.429 . S
C509 C505 1.423 1_565 S
C509 C510 1.524 . S
C510 C494 1.355 1_565 S
C510 C506 1.381 . S
C510 C509 1.524 . S
H511 C486 0.950 . S
H512 C488 0.950 . S
H513 C489 0.949 . S
H514 C491 0.950 . S
H515 C493 0.950 . S
C516 C517 1.347 . S
C516 C518 1.327 . S
C516 H541 0.950 . S
C517 C516 1.347 . S
C517 C533 1.351 1_556 S
C518 C516 1.327 . S
C518 C537 1.430 1_556 S
C518 H542 0.950 . S
C519 C536 1.574 1_655 S
C519 C538 1.368 . S
C519 H543 0.949 . S
H520 C524 0.949 . S
C521 C522 1.352 . S
C521 C523 1.327 . S
C521 H544 0.950 . S
C522 C521 1.352 . S
C522 C534 1.346 1_554 S
C523 C521 1.327 . S
C523 C539 1.430 . S
C523 H545 0.950 . S
C524 H520 0.949 . S
C524 C532 1.574 1_455 S
C524 C540 1.368 1_556 S
H525 C533 0.950 . S
H526 C531 0.950 . S
H527 C532 0.949 . S
H528 C534 0.950 . S
H529 C535 0.950 . S
H530 C536 0.949 . S
C531 H526 0.950 . S
C531 C533 1.327 . S
C531 C537 1.427 . S
C532 C524 1.574 1_655 S
C532 H527 0.949 . S
C532 C538 1.369 1_556 S
C533 C517 1.351 1_554 S
C533 H525 0.950 . S
C533 C531 1.327 . S
C534 C522 1.346 1_556 S
C534 H528 0.950 . S
C534 C535 1.327 . S
C535 H529 0.950 . S
C535 C534 1.327 . S
C535 C539 1.427 1_556 S
C536 C519 1.574 1_455 S
C536 H530 0.949 . S
C536 C540 1.369 . S
C537 C518 1.430 1_554 S
C537 C531 1.427 . S
C537 C538 1.523 . S
C538 C519 1.368 . S
C538 C532 1.369 1_554 S
C538 C537 1.523 . S
C539 C523 1.430 . S
C539 C535 1.427 1_554 S
C539 C540 1.523 . S
C540 C524 1.368 1_554 S
C540 C536 1.369 . S
C540 C539 1.523 . S
H541 C516 0.950 . S
H542 C518 0.950 . S
H543 C519 0.949 . S
H544 C521 0.950 . S
H545 C523 0.950 . S
C546 C547 1.349 . S
C546 C548 1.327 . S
C546 H571 0.950 . S
C547 C546 1.349 . S
C547 C563 1.349 . S
C548 C546 1.327 . S
C548 C567 1.429 . S
C548 H572 0.950 . S
C549 C566 1.574 1_455 S
C549 C568 1.368 . S
C549 H573 0.949 . S
H550 C554 0.949 . S
C551 C552 1.349 . S
C551 C553 1.327 . S
C551 H574 0.950 . S
C552 C551 1.349 . S
C552 C564 1.349 . S
C553 C551 1.327 . S
C553 C569 1.429 . S
C553 H575 0.950 . S
C554 H550 0.949 . S
C554 C562 1.574 1_655 S
C554 C570 1.368 . S
H555 C563 0.950 . S
H556 C561 0.950 . S
H557 C562 0.949 . S
H558 C564 0.950 . S
H559 C565 0.950 . S
H560 C566 0.949 . S
C561 H556 0.950 . S
C561 C563 1.327 . S
C561 C567 1.429 . S
C562 C554 1.574 1_455 S
C562 H557 0.949 . S
C562 C568 1.368 . S
C563 C547 1.349 . S
C563 H555 0.950 . S
C563 C561 1.327 . S
C564 C552 1.349 . S
C564 H558 0.950 . S
C564 C565 1.327 . S
C565 H559 0.950 . S
C565 C564 1.327 . S
C565 C569 1.429 . S
C566 C549 1.574 1_655 S
C566 H560 0.949 . S
C566 C570 1.368 . S
C567 C548 1.429 . S
C567 C561 1.429 . S
C567 C568 1.523 . S
C568 C549 1.368 . S
C568 C562 1.368 . S
C568 C567 1.523 . S
C569 C553 1.429 . S
C569 C565 1.429 . S
C569 C570 1.523 . S
C570 C554 1.368 . S
C570 C566 1.368 . S
C570 C569 1.523 . S
H571 C546 0.950 . S
H572 C548 0.950 . S
H573 C549 0.949 . S
H574 C551 0.950 . S
H575 C553 0.950 . S
C576 C577 1.365 . S
C576 C578 1.327 . S
C576 H601 0.950 . S
C577 C576 1.365 . S
C577 C593 1.340 1_445 S
C578 C576 1.327 . S
C578 C597 1.433 . S
C578 H602 0.950 . S
C579 C596 1.574 . S
C579 C598 1.365 1_665 S
C579 H603 0.949 . S
H580 C584 0.949 . S
C581 C582 1.353 1_655 S
C581 C583 1.327 . S
C581 H604 0.950 . S
C582 C581 1.353 1_455 S
C582 C594 1.347 1_565 S
C583 C581 1.327 . S
C583 C599 1.427 1_655 S
C583 H605 0.950 . S
C584 H580 0.949 . S
C584 C592 1.574 . S
C584 C600 1.367 . S
H585 C593 0.950 . S
H586 C591 0.950 . S
H587 C592 0.949 . S
H588 C594 0.950 . S
H589 C595 0.950 . S
H590 C596 0.949 . S
C591 H586 0.950 . S
C591 C593 1.327 . S
C591 C597 1.420 1_665 S
C592 C584 1.574 . S
C592 H587 0.949 . S
C592 C598 1.373 . S
C593 C577 1.340 1_665 S
C593 H585 0.950 . S
C593 C591 1.327 . S
C594 C582 1.347 1_545 S
C594 H588 0.950 . S
C594 C595 1.327 . S
C595 H589 0.950 . S
C595 C594 1.327 . S
C595 C599 1.432 1_545 S
C596 C579 1.574 . S
C596 H590 0.949 . S
C596 C600 1.371 1_665 S
C597 C578 1.433 . S
C597 C591 1.420 1_445 S
C597 C598 1.525 . S
C598 C579 1.365 1_445 S
C598 C592 1.373 . S
C598 C597 1.525 . S
C599 C583 1.427 1_455 S
C599 C595 1.432 1_565 S
C599 C600 1.520 1_565 S
C600 C584 1.367 . S
C600 C596 1.371 1_445 S
C600 C599 1.520 1_545 S
H601 C576 0.950 . S
H602 C578 0.950 . S
H603 C579 0.949 . S
H604 C581 0.950 . S
H605 C583 0.950 . S
C606 C607 1.342 1_665 S
C606 C608 1.327 . S
C606 H631 0.950 . S
C607 C606 1.342 1_445 S
C607 C623 1.364 . S
C608 C606 1.327 . S
C608 C627 1.421 1_665 S
C608 H632 0.950 . S
C609 C626 1.574 . S
C609 C628 1.371 . S
C609 H633 0.949 . S
H610 C614 0.949 . S
C611 C612 1.345 1_545 S
C611 C613 1.327 . S
C611 H634 0.950 . S
C612 C611 1.345 1_565 S
C612 C624 1.355 1_455 S
C613 C611 1.327 . S
C613 C629 1.430 1_545 S
C613 H635 0.950 . S
C614 H610 0.949 . S
C614 C622 1.574 . S
C614 C630 1.373 1_665 S
H615 C623 0.950 . S
H616 C621 0.950 . S
H617 C622 0.949 . S
H618 C624 0.950 . S
H619 C625 0.950 . S
H620 C626 0.949 . S
C621 H616 0.950 . S
C621 C623 1.327 . S
C621 C627 1.432 . S
C622 C614 1.574 . S
C622 H617 0.949 . S
C622 C628 1.367 1_665 S
C623 C607 1.364 . S
C623 H615 0.950 . S
C623 C621 1.327 . S
C624 C612 1.355 1_655 S
C624 H618 0.950 . S
C624 C625 1.327 . S
C625 H619 0.950 . S
C625 C624 1.327 . S
C625 C629 1.428 1_655 S
C626 C609 1.574 . S
C626 H620 0.949 . S
C626 C630 1.365 . S
C627 C608 1.421 1_445 S
C627 C621 1.432 . S
C627 C628 1.525 . S
C628 C609 1.371 . S
C628 C622 1.367 1_445 S
C628 C627 1.525 . S
C629 C613 1.430 1_565 S
C629 C625 1.428 1_455 S
C629 C630 1.520 1_565 S
C630 C614 1.373 1_445 S
C630 C626 1.365 . S
C630 C629 1.520 1_545 S
H631 C606 0.950 . S
H632 C608 0.950 . S
H633 C609 0.949 . S
H634 C611 0.950 . S
H635 C613 0.950 . S
C636 C637 1.349 . S
C636 C638 1.327 . S
C636 H661 0.950 . S
C637 C636 1.349 . S
C637 C653 1.349 . S
C638 C636 1.327 . S
C638 C657 1.429 . S
C638 H662 0.950 . S
C639 C656 1.574 . S
C639 C658 1.368 . S
C639 H663 0.949 . S
H640 C644 0.949 . S
C641 C642 1.349 . S
C641 C643 1.327 . S
C641 H664 0.950 . S
C642 C641 1.349 . S
C642 C654 1.349 . S
C643 C641 1.327 . S
C643 C659 1.429 . S
C643 H665 0.950 . S
C644 H640 0.949 . S
C644 C652 1.574 . S
C644 C660 1.368 . S
H645 C653 0.950 . S
H646 C651 0.950 . S
H647 C652 0.949 . S
H648 C654 0.950 . S
H649 C655 0.950 . S
H650 C656 0.949 . S
C651 H646 0.950 . S
C651 C653 1.327 . S
C651 C657 1.429 . S
C652 C644 1.574 . S
C652 H647 0.949 . S
C652 C658 1.368 . S
C653 C637 1.349 . S
C653 H645 0.950 . S
C653 C651 1.327 . S
C654 C642 1.349 . S
C654 H648 0.950 . S
C654 C655 1.327 . S
C655 H649 0.950 . S
C655 C654 1.327 . S
C655 C659 1.429 . S
C656 C639 1.574 . S
C656 H650 0.949 . S
C656 C660 1.368 . S
C657 C638 1.429 . S
C657 C651 1.429 . S
C657 C658 1.523 . S
C658 C639 1.368 . S
C658 C652 1.368 . S
C658 C657 1.523 . S
C659 C643 1.429 . S
C659 C655 1.429 . S
C659 C660 1.523 . S
C660 C644 1.368 . S
C660 C656 1.368 . S
C660 C659 1.523 . S
H661 C636 0.950 . S
H662 C638 0.950 . S
H663 C639 0.949 . S
H664 C641 0.950 . S
H665 C643 0.950 . S
C666 C667 1.349 . S
C666 C668 1.327 . S
C666 H691 0.950 . S
C667 C666 1.349 . S
C667 C683 1.349 . S
C668 C666 1.327 . S
C668 C687 1.429 . S
C668 H692 0.950 . S
C669 C686 1.574 . S
C669 C688 1.368 . S
C669 H693 0.949 . S
H670 C674 0.949 . S
C671 C672 1.349 . S
C671 C673 1.327 . S
C671 H694 0.950 . S
C672 C671 1.349 . S
C672 C684 1.349 . S
C673 C671 1.327 . S
C673 C689 1.429 . S
C673 H695 0.950 . S
C674 H670 0.949 . S
C674 C682 1.574 . S
C674 C690 1.368 . S
H675 C683 0.950 . S
H676 C681 0.950 . S
H677 C682 0.949 . S
H678 C684 0.950 . S
H679 C685 0.950 . S
H680 C686 0.949 . S
C681 H676 0.950 . S
C681 C683 1.327 . S
C681 C687 1.429 . S
C682 C674 1.574 . S
C682 H677 0.949 . S
C682 C688 1.368 . S
C683 C667 1.349 . S
C683 H675 0.950 . S
C683 C681 1.327 . S
C684 C672 1.349 . S
C684 H678 0.950 . S
C684 C685 1.327 . S
C685 H679 0.950 . S
C685 C684 1.327 . S
C685 C689 1.429 . S
C686 C669 1.574 . S
C686 H680 0.949 . S
C686 C690 1.368 . S
C687 C668 1.429 . S
C687 C681 1.429 . S
C687 C688 1.523 . S
C688 C669 1.368 . S
C688 C682 1.368 . S
C688 C687 1.523 . S
C689 C673 1.429 . S
C689 C685 1.429 . S
C689 C690 1.523 . S
C690 C674 1.368 . S
C690 C686 1.368 . S
C690 C689 1.523 . S
H691 C666 0.950 . S
H692 C668 0.950 . S
H693 C669 0.949 . S
H694 C671 0.950 . S
H695 C673 0.950 . S
C337 C238 1.381 1_556 S
C342 C58 1.386 1_554 S
C367 C226 1.381 1_554 S
C372 C70 1.377 1_556 S
C397 C142 1.381 . S
C402 C322 1.376 . S
C427 C154 1.381 . S
C432 C310 1.387 . S
C457 C55 1.947 1_556 S
C462 C67 1.946 1_554 S
C487 C139 1.946 . S
C492 C151 1.946 . S
C517 C223 1.947 1_556 S
C522 C235 1.946 1_554 S
C547 C319 1.946 . S
C552 C307 1.946 . S
C577 C152 1.470 1_445 S
C582 C68 1.472 1_465 S
C607 C56 1.470 1_545 S
C612 C140 1.480 1_565 S
C637 C320 1.479 . S
C642 C236 1.475 . S
C667 C308 1.479 . S
C672 C224 1.483 . S
