# Generated by pormake.
# Topology wiv, (6)-cn, num edge types: 1
# Building blocks:
#     Node 0, Type 0, BuildingBlock: GEDQOX_clean_sbu_0, # of connection points: 6
#     Node 1, Type 0, BuildingBlock: GEDQOX_clean_sbu_0, # of connection points: 6
#     Node 2, Type 0, BuildingBlock: GEDQOX_clean_sbu_0, # of connection points: 6
#     Node 3, Type 0, BuildingBlock: GEDQOX_clean_sbu_0, # of connection points: 6
#     Node 4, Type 0, BuildingBlock: GEDQOX_clean_sbu_0, # of connection points: 6
#     Node 5, Type 0, BuildingBlock: GEDQOX_clean_sbu_0, # of connection points: 6
#     Node 6, Type 0, BuildingBlock: GEDQOX_clean_sbu_0, # of connection points: 6
#     Node 7, Type 0, BuildingBlock: GEDQOX_clean_sbu_0, # of connection points: 6
#     Node 8, Type 0, BuildingBlock: GEDQOX_clean_sbu_0, # of connection points: 6
#     Node 9, Type 0, BuildingBlock: GEDQOX_clean_sbu_0, # of connection points: 6
#     Node 10, Type 0, BuildingBlock: GEDQOX_clean_sbu_0, # of connection points: 6
#     Node 11, Type 0, BuildingBlock: GEDQOX_clean_sbu_0, # of connection points: 6
#     Node 12, Type 0, BuildingBlock: GEDQOX_clean_sbu_0, # of connection points: 6
#     Node 13, Type 0, BuildingBlock: GEDQOX_clean_sbu_0, # of connection points: 6
#     Node 14, Type 0, BuildingBlock: GEDQOX_clean_sbu_0, # of connection points: 6
#     Node 15, Type 0, BuildingBlock: GEDQOX_clean_sbu_0, # of connection points: 6
#     Edge 16, Type (0, 0), BuildingBlock: MIFKUJ_clean_linker_0, # of connection points: 2
#     Edge 17, Type (0, 0), BuildingBlock: MIFKUJ_clean_linker_0, # of connection points: 2
#     Edge 18, Type (0, 0), BuildingBlock: MIFKUJ_clean_linker_0, # of connection points: 2
#     Edge 19, Type (0, 0), BuildingBlock: MIFKUJ_clean_linker_0, # of connection points: 2
#     Edge 20, Type (0, 0), BuildingBlock: MIFKUJ_clean_linker_0, # of connection points: 2
#     Edge 21, Type (0, 0), BuildingBlock: MIFKUJ_clean_linker_0, # of connection points: 2
#     Edge 22, Type (0, 0), BuildingBlock: MIFKUJ_clean_linker_0, # of connection points: 2
#     Edge 23, Type (0, 0), BuildingBlock: MIFKUJ_clean_linker_0, # of connection points: 2
#     Edge 24, Type (0, 0), BuildingBlock: MIFKUJ_clean_linker_0, # of connection points: 2
#     Edge 25, Type (0, 0), BuildingBlock: MIFKUJ_clean_linker_0, # of connection points: 2
#     Edge 26, Type (0, 0), BuildingBlock: MIFKUJ_clean_linker_0, # of connection points: 2
#     Edge 27, Type (0, 0), BuildingBlock: MIFKUJ_clean_linker_0, # of connection points: 2
#     Edge 28, Type (0, 0), BuildingBlock: MIFKUJ_clean_linker_0, # of connection points: 2
#     Edge 29, Type (0, 0), BuildingBlock: MIFKUJ_clean_linker_0, # of connection points: 2
#     Edge 30, Type (0, 0), BuildingBlock: MIFKUJ_clean_linker_0, # of connection points: 2
#     Edge 31, Type (0, 0), BuildingBlock: MIFKUJ_clean_linker_0, # of connection points: 2
#     Edge 32, Type (0, 0), BuildingBlock: MIFKUJ_clean_linker_0, # of connection points: 2
#     Edge 33, Type (0, 0), BuildingBlock: MIFKUJ_clean_linker_0, # of connection points: 2
#     Edge 34, Type (0, 0), BuildingBlock: MIFKUJ_clean_linker_0, # of connection points: 2
#     Edge 35, Type (0, 0), BuildingBlock: MIFKUJ_clean_linker_0, # of connection points: 2
#     Edge 36, Type (0, 0), BuildingBlock: MIFKUJ_clean_linker_0, # of connection points: 2
#     Edge 37, Type (0, 0), BuildingBlock: MIFKUJ_clean_linker_0, # of connection points: 2
#     Edge 38, Type (0, 0), BuildingBlock: MIFKUJ_clean_linker_0, # of connection points: 2
#     Edge 39, Type (0, 0), BuildingBlock: MIFKUJ_clean_linker_0, # of connection points: 2
#     Edge 40, Type (0, 0), BuildingBlock: MIFKUJ_clean_linker_0, # of connection points: 2
#     Edge 41, Type (0, 0), BuildingBlock: MIFKUJ_clean_linker_0, # of connection points: 2
#     Edge 42, Type (0, 0), BuildingBlock: MIFKUJ_clean_linker_0, # of connection points: 2
#     Edge 43, Type (0, 0), BuildingBlock: MIFKUJ_clean_linker_0, # of connection points: 2
#     Edge 44, Type (0, 0), BuildingBlock: MIFKUJ_clean_linker_0, # of connection points: 2
#     Edge 45, Type (0, 0), BuildingBlock: MIFKUJ_clean_linker_0, # of connection points: 2
#     Edge 46, Type (0, 0), BuildingBlock: MIFKUJ_clean_linker_0, # of connection points: 2
#     Edge 47, Type (0, 0), BuildingBlock: MIFKUJ_clean_linker_0, # of connection points: 2
#     Edge 48, Type (0, 0), BuildingBlock: MIFKUJ_clean_linker_0, # of connection points: 2
#     Edge 49, Type (0, 0), BuildingBlock: MIFKUJ_clean_linker_0, # of connection points: 2
#     Edge 50, Type (0, 0), BuildingBlock: MIFKUJ_clean_linker_0, # of connection points: 2
#     Edge 51, Type (0, 0), BuildingBlock: MIFKUJ_clean_linker_0, # of connection points: 2
#     Edge 52, Type (0, 0), BuildingBlock: MIFKUJ_clean_linker_0, # of connection points: 2
#     Edge 53, Type (0, 0), BuildingBlock: MIFKUJ_clean_linker_0, # of connection points: 2
#     Edge 54, Type (0, 0), BuildingBlock: MIFKUJ_clean_linker_0, # of connection points: 2
#     Edge 55, Type (0, 0), BuildingBlock: MIFKUJ_clean_linker_0, # of connection points: 2
#     Edge 56, Type (0, 0), BuildingBlock: MIFKUJ_clean_linker_0, # of connection points: 2
#     Edge 57, Type (0, 0), BuildingBlock: MIFKUJ_clean_linker_0, # of connection points: 2
#     Edge 58, Type (0, 0), BuildingBlock: MIFKUJ_clean_linker_0, # of connection points: 2
#     Edge 59, Type (0, 0), BuildingBlock: MIFKUJ_clean_linker_0, # of connection points: 2
#     Edge 60, Type (0, 0), BuildingBlock: MIFKUJ_clean_linker_0, # of connection points: 2
#     Edge 61, Type (0, 0), BuildingBlock: MIFKUJ_clean_linker_0, # of connection points: 2
#     Edge 62, Type (0, 0), BuildingBlock: MIFKUJ_clean_linker_0, # of connection points: 2
#     Edge 63, Type (0, 0), BuildingBlock: MIFKUJ_clean_linker_0, # of connection points: 2
# Relax obj value: 0.108
# Max RMSD: 0.175
# Mean RMSD: 0.175
data_MOF--net-wiv--node1-GEDQOX_clean_sbu_0--edge1-MIFKUJ_clean_linker_0
_symmetry_space_group_name_H-M    P1
_symmetry_Int_Tables_number       1
_symmetry_cell_setting            triclinic
loop_
_symmetry_equiv_pos_as_xyz
'x, y, z'
_cell_length_a     97.259036
_cell_length_b     97.313728
_cell_length_c     20.328929
_cell_angle_alpha  90.049122
_cell_angle_beta   90.198826
_cell_angle_gamma 89.928467
loop_
_atom_site_label
_atom_site_type_symbol
_atom_site_fract_x
_atom_site_fract_y
_atom_site_fract_z
_atom_type_partial_charge
Nd0 Nd 0.42394 0.15644 0.18323 0.0
Nd1 Nd 0.39032 0.1634 0.17865 0.0
C2 C 0.44805 0.1435 0.19171 0.0
C3 C 0.46268 0.14331 0.21521 0.0
C4 C 0.46642 0.13608 0.27257 0.0
C5 C 0.48032 0.1342 0.28986 0.0
C6 C 0.49095 0.13938 0.24996 0.0
C7 C 0.48718 0.14689 0.19342 0.0
C8 C 0.47329 0.1488 0.17627 0.0
C9 C 0.41849 0.18476 0.18098 0.0
C10 C 0.40683 0.16208 0.3223 0.0
C11 C 0.36604 0.1755 0.16393 0.0
C12 C 0.35261 0.17336 0.12956 0.0
C13 C 0.35101 0.17606 0.06191 0.0
C14 C 0.33812 0.17472 1.03114 0.0
C15 C 0.32643 0.1707 0.06712 0.0
C16 C 0.32811 0.16786 0.13464 0.0
C17 C 0.34098 0.16922 0.16538 0.0
C18 C 0.39513 0.13517 0.1836 0.0
C19 C 0.40725 0.15742 0.0397 0.0
O20 O 0.43807 0.1418 0.23421 0.0
O21 O 0.44465 0.15173 0.14322 0.0
O22 O 0.43082 0.17952 0.18 0.0
O23 O 0.41016 0.17487 0.18386 0.0
O24 O 0.41818 0.15748 0.29335 0.0
O25 O 0.3957 0.16614 0.28919 0.0
O26 O 0.37683 0.17853 0.1281 0.0
O27 O 0.36901 0.16729 0.21315 0.0
O28 O 0.383 0.14079 0.18248 0.0
O29 O 0.40396 0.1447 0.18009 0.0
O30 O 0.3959 0.16194 0.06864 0.0
O31 O 0.41845 0.15363 0.07284 0.0
H32 H 0.45859 0.13146 0.30317 0.0
H33 H 0.48272 0.12823 0.33333 0.0
H34 H 0.49499 0.15122 0.16181 0.0
H35 H 0.4709 0.15428 0.13131 0.0
H36 H 0.35967 0.1794 1.03269 0.0
H37 H 0.33727 0.17719 0.97937 0.0
H38 H 0.31946 0.16456 0.16402 0.0
H39 H 0.34179 0.16715 0.21759 0.0
Nd40 Nd 0.16442 0.62777 0.89539 0.0
Nd41 Nd 0.15679 0.59424 0.88986 0.0
C42 C 0.17662 0.65201 0.90834 0.0
C43 C 0.17483 0.6654 0.9432 0.0
C44 C 0.18552 0.67044 0.98308 0.0
C45 C 0.18442 0.68327 1.01426 0.0
C46 C 0.1726 0.69151 1.00627 0.0
C47 C 0.1618 0.68634 0.96695 0.0
C48 C 0.1629 0.67347 0.93583 0.0
C49 C 0.13608 0.62336 0.89833 0.0
C50 C 0.15965 0.6105 1.03374 0.0
C51 C 0.14369 0.57022 0.88394 0.0
C52 C 0.14285 0.55582 0.85791 0.0
C53 C 0.13155 0.5519 0.81884 0.0
C54 C 0.12953 0.53812 0.80036 0.0
C55 C 0.13875 0.52773 0.82054 0.0
C56 C 0.15026 0.53173 0.85849 0.0
C57 C 0.15225 0.54554 0.87709 0.0
C58 C 0.18522 0.59929 0.88519 0.0
C59 C 0.16143 0.61162 0.7515 0.0
O60 O 0.17983 0.64128 0.94428 0.0
O61 O 0.16807 0.64905 0.86027 0.0
O62 O 0.14183 0.63537 0.90184 0.0
O63 O 0.14551 0.61443 0.89596 0.0
O64 O 0.16511 0.62133 1.00415 0.0
O65 O 0.15438 0.5999 1.00066 0.0
O66 O 0.14103 0.58052 0.84422 0.0
O67 O 0.15302 0.57321 0.92846 0.0
O68 O 0.17983 0.58709 0.88104 0.0
O69 O 0.17543 0.60771 0.88938 0.0
O70 O 0.15589 0.60079 0.78107 0.0
O71 O 0.16689 0.62215 0.78459 0.0
H72 H 0.19483 0.66447 0.98981 0.0
H73 H 0.19287 0.68668 0.04497 0.0
H74 H 0.15259 0.69237 0.95888 0.0
H75 H 0.15445 0.66992 0.90544 0.0
H76 H 0.12402 0.5595 0.80374 0.0
H77 H 0.12067 0.53561 0.77031 0.0
H78 H 0.15754 0.52411 0.87578 0.0
H79 H 0.161 0.54808 0.90787 0.0
Nd80 Nd 0.59503 0.86207 0.17799 0.0
Nd81 Nd 0.62844 0.85499 0.17238 0.0
C82 C 0.57075 0.87486 0.18422 0.0
C83 C 0.55643 0.87572 0.21152 0.0
C84 C 0.55255 0.88714 0.24982 0.0
C85 C 0.53879 0.88916 0.26886 0.0
C86 C 0.5284 0.87984 0.25007 0.0
C87 C 0.53236 0.86821 0.21314 0.0
C88 C 0.54613 0.86621 0.19395 0.0
C89 C 0.60041 0.83369 0.18142 0.0
C90 C 0.61209 0.85623 0.31625 0.0
C91 C 0.65278 0.84296 0.15595 0.0
C92 C 0.6661 0.84467 0.12127 0.0
C93 C 0.67277 0.83306 0.09558 0.0
C94 C 0.68563 0.83423 0.06512 0.0
C95 C 0.69223 0.84706 0.05969 0.0
C96 C 0.68541 0.85874 0.08474 0.0
C97 C 0.67251 0.85756 0.11521 0.0
C98 C 0.62266 0.88259 0.18534 0.0
C99 C 0.61134 0.86064 1.03327 0.0
O100 O 0.58127 0.87804 0.22204 0.0
O101 O 0.57366 0.86521 0.14132 0.0
O102 O 0.5881 0.83894 0.18414 0.0
O103 O 0.60873 0.84356 0.1787 0.0
O104 O 0.60109 0.8617 0.28761 0.0
O105 O 0.62289 0.85162 0.28258 0.0
O106 O 0.64195 0.84 0.12026 0.0
O107 O 0.65004 0.85149 0.20403 0.0
O108 O 0.63474 0.8772 0.19508 0.0
O109 O 0.61492 0.87382 0.15712 0.0
O110 O 0.62295 0.85681 0.0625 0.0
O111 O 0.59993 0.86377 0.06626 0.0
H112 H 0.56013 0.89476 0.26374 0.0
H113 H 0.53631 0.89812 0.2981 0.0
H114 H 0.52473 0.86084 0.19694 0.0
H115 H 0.54862 0.85737 0.16383 0.0
H116 H 0.66806 0.82301 0.09951 0.0
H117 H 0.69037 0.82503 0.04551 0.0
H118 H 0.69016 0.86878 0.08214 0.0
H119 H 0.66762 0.8667 0.13462 0.0
Nd120 Nd 0.85513 0.39085 0.8894 0.0
Nd121 Nd 0.86085 0.42245 0.89025 0.0
C122 C 0.84314 0.36648 0.90287 0.0
C123 C 0.84477 0.35315 0.93832 0.0
C124 C 0.83356 0.34767 0.97279 0.0
C125 C 0.83451 0.33484 1.00408 0.0
C126 C 0.84673 0.32705 1.00171 0.0
C127 C 0.85806 0.33268 0.96793 0.0
C128 C 0.85709 0.34554 0.93664 0.0
C129 C 0.88349 0.39412 0.88972 0.0
C130 C 0.86071 0.40694 1.03107 0.0
C131 C 0.86785 0.4489 0.88008 0.0
C132 C 0.87143 0.46246 0.8496 0.0
C133 C 0.88492 0.46574 0.82988 0.0
C134 C 0.88836 0.47924 0.81052 0.0
C135 C 0.87847 0.48987 0.8115 0.0
C136 C 0.86494 0.48643 0.82952 0.0
C137 C 0.86149 0.47299 0.84816 0.0
C138 C 0.8337 0.41449 0.91052 0.0
C139 C 0.85761 0.40647 0.74686 0.0
O140 O 0.83979 0.37727 0.93798 0.0
O141 O 0.85185 0.36937 0.8558 0.0
O142 O 0.87714 0.38246 0.89104 0.0
O143 O 0.87475 0.40383 0.89023 0.0
O144 O 0.85472 0.39658 1.00003 0.0
O145 O 0.86588 0.41748 0.9984 0.0
O146 O 0.87692 0.43903 0.88715 0.0
O147 O 0.85521 0.44441 0.87685 0.0
O148 O 0.83996 0.424 0.94381 0.0
O149 O 0.84182 0.40941 0.86851 0.0
O150 O 0.86191 0.41753 0.77903 0.0
O151 O 0.85314 0.39539 0.77818 0.0
H152 H 0.82394 0.35328 0.97511 0.0
H153 H 0.82563 0.33108 1.03047 0.0
H154 H 0.86761 0.32701 0.96431 0.0
H155 H 0.86595 0.34945 0.91053 0.0
H156 H 0.89291 0.45799 0.83117 0.0
H157 H 0.8989 0.48146 0.7973 0.0
H158 H 0.85697 0.49421 0.83002 0.0
H159 H 0.85105 0.47095 0.86372 0.0
Nd160 Nd 0.42334 0.36232 0.13952 0.0
Nd161 Nd 0.38976 0.35486 0.14395 0.0
C162 C 0.44728 0.37558 0.13594 0.0
C163 C 0.46151 0.3771 0.10952 0.0
C164 C 0.46656 0.39035 0.09692 0.0
C165 C 0.48029 0.39245 0.07815 0.0
C166 C 0.48947 0.38132 0.07103 0.0
C167 C 0.48428 0.36797 0.08245 0.0
C168 C 0.47051 0.36589 0.10163 0.0
C169 C 0.41811 0.33396 0.13349 0.0
C170 C 0.40618 0.3575 1.00041 0.0
C171 C 0.36566 0.34226 0.1543 0.0
C172 C 0.35224 0.34392 0.18794 0.0
C173 C 0.34214 0.33377 0.18054 0.0
C174 C 0.32933 0.33508 0.21143 0.0
C175 C 0.32626 0.34663 0.25067 0.0
C176 C 0.3365 0.35679 0.25825 0.0
C177 C 0.34934 0.35545 0.22718 0.0
C178 C 0.39417 0.38315 0.14646 0.0
C179 C 0.4069 0.35979 0.28317 0.0
O180 O 0.43678 0.37878 0.09822 0.0
O181 O 0.44465 0.36542 0.17639 0.0
O182 O 0.43036 0.33928 0.12915 0.0
O183 O 0.40977 0.34379 0.13881 0.0
O184 O 0.41719 0.36272 1.03015 0.0
O185 O 0.39541 0.35254 1.03319 0.0
O186 O 0.37632 0.33933 0.19141 0.0
O187 O 0.36854 0.35108 0.10759 0.0
O188 O 0.38215 0.37738 0.14933 0.0
O189 O 0.40315 0.37373 0.14469 0.0
O190 O 0.39582 0.35482 0.25336 0.0
O191 O 0.41782 0.36439 0.25047 0.0
H192 H 0.45994 0.39921 0.10335 0.0
H193 H 0.48376 0.40291 0.07121 0.0
H194 H 0.49084 0.35906 0.07666 0.0
H195 H 0.46696 0.35553 0.11108 0.0
H196 H 0.34416 0.32475 0.15078 0.0
H197 H 0.32189 0.32691 0.20517 0.0
H198 H 0.33453 0.36589 0.2874 0.0
H199 H 0.35698 0.36344 0.23359 0.0
Nd200 Nd 0.354 0.62811 0.92502 0.0
Nd201 Nd 0.36253 0.59475 0.92913 0.0
C202 C 0.34147 0.65215 0.91124 0.0
C203 C 0.34362 0.66565 0.87779 0.0
C204 C 0.33558 0.66924 0.82276 0.0
C205 C 0.33706 0.68209 0.79227 0.0
C206 C 0.34657 0.69181 0.81618 0.0
C207 C 0.35466 0.68819 0.87117 0.0
C208 C 0.35321 0.67531 0.90153 0.0
C209 C 0.3825 0.62437 0.92278 0.0
C210 C 0.35955 0.61097 0.78665 0.0
C211 C 0.37613 0.57103 0.93748 0.0
C212 C 0.37715 0.55665 0.96281 0.0
C213 C 0.38954 0.55224 0.99178 0.0
C214 C 0.39152 0.53844 1.00977 0.0
C215 C 0.38115 0.52856 0.99939 0.0
C216 C 0.36858 0.53307 0.97182 0.0
C217 C 0.36663 0.54691 0.95351 0.0
C218 C 0.33395 0.59946 0.9315 0.0
C219 C 0.35716 0.61197 0.06797 0.0
O220 O 0.33882 0.64148 0.8738 0.0
O221 O 0.3494 0.64911 0.96156 0.0
O222 O 0.37639 0.63623 0.92093 0.0
O223 O 0.37329 0.61522 0.92351 0.0
O224 O 0.35305 0.62124 0.81629 0.0
O225 O 0.36577 0.60091 0.81973 0.0
O226 O 0.37806 0.58128 0.9784 0.0
O227 O 0.36714 0.57384 0.89108 0.0
O228 O 0.3394 0.58725 0.92881 0.0
O229 O 0.34373 0.60784 0.93314 0.0
O230 O 0.36323 0.6014 0.03832 0.0
O231 O 0.35118 0.62223 0.0351 0.0
H232 H 0.32798 0.66214 0.80361 0.0
H233 H 0.33049 0.68452 0.75076 0.0
H234 H 0.36221 0.69529 0.89065 0.0
H235 H 0.35958 0.67298 0.94389 0.0
H236 H 0.39788 0.55946 0.99924 0.0
H237 H 0.40125 0.53552 1.03175 0.0
H238 H 0.36037 0.52582 0.96246 0.0
H239 H 0.35699 0.5499 0.93086 0.0
Nd240 Nd 0.59592 0.65763 0.13754 0.0
Nd241 Nd 0.62752 0.66391 0.14018 0.0
C242 C 0.57015 0.64999 0.11475 0.0
C243 C 0.55549 0.64637 0.10141 0.0
C244 C 0.55182 0.63307 0.08047 0.0
C245 C 0.53807 0.62987 0.06486 0.0
C246 C 0.52751 0.63977 0.0711 0.0
C247 C 0.53128 0.65295 0.09407 0.0
C248 C 0.54504 0.6562 0.1084 0.0
C249 C 0.60322 0.68491 0.15824 0.0
C250 C 0.61283 0.66057 0.997 0.0
C251 C 0.65185 0.67583 0.1554 0.0
C252 C 0.66526 0.67361 0.18975 0.0
C253 C 0.66936 0.68262 0.24021 0.0
C254 C 0.68219 0.68115 0.2712 0.0
C255 C 0.69136 0.67066 0.25233 0.0
C256 C 0.68721 0.66158 0.202 0.0
C257 C 0.67434 0.66302 0.17117 0.0
C258 C 0.62447 0.6355 0.13963 0.0
C259 C 0.61066 0.65874 0.28042 0.0
O260 O 0.5792 0.64168 0.14019 0.0
O261 O 0.57483 0.66238 0.1016 0.0
O262 O 0.59338 0.67867 0.18917 0.0
O263 O 0.60878 0.67678 0.11759 0.0
O264 O 0.60233 0.65502 1.02862 0.0
O265 O 0.62312 0.66648 1.02917 0.0
O266 O 0.64116 0.67876 0.19195 0.0
O267 O 0.64879 0.66778 0.1057 0.0
O268 O 0.63612 0.64189 0.14204 0.0
O269 O 0.6148 0.64423 0.1393 0.0
O270 O 0.62109 0.6647 0.24987 0.0
O271 O 0.60022 0.65331 0.24732 0.0
H272 H 0.55966 0.62526 0.07425 0.0
H273 H 0.53583 0.61967 0.04651 0.0
H274 H 0.52361 0.66085 0.10159 0.0
H275 H 0.5475 0.66648 0.12506 0.0
H276 H 0.66268 0.69097 0.25523 0.0
H277 H 0.68504 0.68847 0.30898 0.0
H278 H 0.6939 0.65328 0.18657 0.0
H279 H 0.67158 0.65588 0.13246 0.0
Nd280 Nd 0.66341 0.38969 0.92746 0.0
Nd281 Nd 0.65642 0.42317 0.93525 0.0
C282 C 0.67602 0.36571 0.91304 0.0
C283 C 0.67423 0.35236 0.8786 0.0
C284 C 0.68564 0.34605 0.84914 0.0
C285 C 0.6844 0.3332 0.81848 0.0
C286 C 0.6717 0.32625 0.81661 0.0
C287 C 0.66021 0.33272 0.84534 0.0
C288 C 0.66145 0.34562 0.87592 0.0
C289 C 0.63517 0.39418 0.93206 0.0
C290 C 0.65786 0.4071 0.78973 0.0
C291 C 0.6434 0.44721 0.94164 0.0
C292 C 0.64279 0.46157 0.96806 0.0
C293 C 0.63206 0.46541 1.01053 0.0
C294 C 0.63015 0.4792 1.02906 0.0
C295 C 0.63888 0.48963 1.00546 0.0
C296 C 0.64985 0.48571 0.96422 0.0
C297 C 0.65175 0.4719 0.94565 0.0
C298 C 0.68474 0.41779 0.93833 0.0
C299 C 0.66164 0.40565 0.07275 0.0
O300 O 0.67874 0.37647 0.87656 0.0
O301 O 0.66765 0.36848 0.96174 0.0
O302 O 0.64093 0.38214 0.92852 0.0
O303 O 0.64458 0.4032 0.93036 0.0
O304 O 0.66173 0.39543 0.81786 0.0
O305 O 0.65464 0.41837 0.82345 0.0
O306 O 0.64071 0.43689 0.98106 0.0
O307 O 0.65265 0.4442 0.89708 0.0
O308 O 0.67948 0.43006 0.94379 0.0
O309 O 0.67488 0.40947 0.9335 0.0
O310 O 0.65708 0.41712 0.0448 0.0
O311 O 0.66573 0.39465 0.03891 0.0
H312 H 0.69559 0.35105 0.85024 0.0
H313 H 0.69344 0.32874 0.79593 0.0
H314 H 0.65028 0.3277 0.84555 0.0
H315 H 0.65245 0.35024 0.89806 0.0
H316 H 0.62487 0.45778 1.02816 0.0
H317 H 0.62172 0.48169 0.06165 0.0
H318 H 0.65673 0.49337 0.94425 0.0
H319 H 0.66003 0.46942 0.91219 0.0
Nd320 Nd 0.92442 0.65688 0.67947 0.0
Nd321 Nd 0.89064 0.66316 0.67299 0.0
C322 C 0.94838 0.64367 0.68593 0.0
C323 C 0.96254 0.64205 0.71344 0.0
C324 C 0.96756 0.62875 0.72569 0.0
C325 C 0.9813 0.62658 0.74456 0.0
C326 C 0.99047 0.63768 0.752 0.0
C327 C 0.98529 0.65108 0.7415 0.0
C328 C 0.97153 0.65323 0.72213 0.0
C329 C 0.91857 0.68511 0.68128 0.0
C330 C 0.90706 0.66241 0.81748 0.0
C331 C 0.86616 0.67472 0.65607 0.0
C332 C 0.85281 0.67237 0.6212 0.0
C333 C 0.85069 0.67708 0.55646 0.0
C334 C 0.83783 0.67569 0.52555 0.0
C335 C 0.82666 0.66962 0.55855 0.0
C336 C 0.82887 0.66474 0.62299 0.0
C337 C 0.84171 0.66614 0.65388 0.0
C338 C 0.89626 0.63508 0.67879 0.0
C339 C 0.90796 0.65769 0.53467 0.0
O340 O 0.93776 0.64041 0.72234 0.0
O341 O 0.94589 0.6539 0.64558 0.0
O342 O 0.93093 0.67998 0.68558 0.0
O343 O 0.91027 0.67515 0.67786 0.0
O344 O 0.91853 0.6579 0.78929 0.0
O345 O 0.89588 0.66618 0.78376 0.0
O346 O 0.87695 0.6778 0.62044 0.0
O347 O 0.86918 0.66671 0.70599 0.0
O348 O 0.88394 0.64028 0.67884 0.0
O349 O 0.90467 0.64493 0.67439 0.0
O350 O 0.89627 0.66131 0.56332 0.0
O351 O 0.91943 0.65486 0.56793 0.0
H352 H 0.96091 0.61992 0.71912 0.0
H353 H 0.98475 0.61615 0.75311 0.0
H354 H 0.992 0.65989 0.7462 0.0
H355 H 0.96801 0.6636 0.71265 0.0
H356 H 0.85891 0.68209 0.52988 0.0
H357 H 0.83656 0.67976 0.47633 0.0
H358 H 0.82064 0.65982 0.64985 0.0
H359 H 0.84289 0.66248 0.70389 0.0
Nd360 Nd 0.6634 0.12803 0.39302 0.0
Nd361 Nd 0.6579 0.09412 0.38593 0.0
C362 C 0.67464 0.15268 0.40646 0.0
C363 C 0.67253 0.16586 0.44265 0.0
C364 C 0.67683 0.16744 0.50845 0.0
C365 C 0.67558 0.18014 0.5406 0.0
C366 C 0.67001 0.19165 0.50792 0.0
C367 C 0.66556 0.19001 0.44241 0.0
C368 C 0.66686 0.17732 0.41018 0.0
C369 C 0.63551 0.12182 0.39255 0.0
C370 C 0.65876 0.11055 0.53097 0.0
C371 C 0.64535 0.06988 0.37912 0.0
C372 C 0.6444 0.05572 0.35085 0.0
C373 C 0.63239 0.05174 0.31728 0.0
C374 C 0.63033 0.03804 0.29784 0.0
C375 C 0.64022 0.02782 0.31158 0.0
C376 C 0.65245 0.03192 0.34363 0.0
C377 C 0.6545 0.04565 0.36313 0.0
C378 C 0.68591 0.10059 0.38417 0.0
C379 C 0.66248 0.11173 0.24803 0.0
O380 O 0.67859 0.14189 0.44039 0.0
O381 O 0.66586 0.14961 0.35955 0.0
O382 O 0.6403 0.13424 0.39674 0.0
O383 O 0.64555 0.11358 0.39105 0.0
O384 O 0.66244 0.12223 0.50253 0.0
O385 O 0.6558 0.09915 0.49752 0.0
O386 O 0.64188 0.08043 0.34238 0.0
O387 O 0.65526 0.07269 0.42099 0.0
O388 O 0.68114 0.08811 0.37929 0.0
O389 O 0.67574 0.10864 0.38782 0.0
O390 O 0.65857 0.10006 0.27627 0.0
O391 O 0.66578 0.12303 0.28166 0.0
H392 H 0.68131 0.1589 0.53509 0.0
H393 H 0.67897 0.18094 0.59127 0.0
H394 H 0.6614 0.19864 0.41528 0.0
H395 H 0.66361 0.17655 0.35929 0.0
H396 H 0.62431 0.05917 0.30794 0.0
H397 H 0.6207 0.03538 0.27422 0.0
H398 H 0.66044 0.02449 0.35427 0.0
H399 H 0.66386 0.0483 0.38916 0.0
Nd400 Nd 0.09576 0.3625 0.67897 0.0
Nd401 Nd 0.12877 0.35328 0.67414 0.0
C402 C 0.07218 0.37636 0.68775 0.0
C403 C 0.05766 0.37691 0.71214 0.0
C404 C 0.05377 0.38729 0.75658 0.0
C405 C 0.03995 0.38914 0.77457 0.0
C406 C 0.0295 0.38068 0.74853 0.0
C407 C 0.03346 0.37006 0.70511 0.0
C408 C 0.04731 0.36824 0.68699 0.0
C409 C 0.09938 0.33374 0.68053 0.0
C410 C 0.11299 0.35672 0.81722 0.0
C411 C 0.1526 0.34034 0.65948 0.0
C412 C 0.16612 0.34242 0.62661 0.0
C413 C 0.17153 0.33196 0.58666 0.0
C414 C 0.18434 0.3335 0.55595 0.0
C415 C 0.19216 0.34555 0.5645 0.0
C416 C 0.1867 0.35606 0.60451 0.0
C417 C 0.17383 0.35453 0.63501 0.0
C418 C 0.12576 0.38189 0.67421 0.0
C419 C 0.1117 0.35942 0.536 0.0
O420 O 0.08227 0.37762 0.73032 0.0
O421 O 0.07521 0.36811 0.63879 0.0
O422 O 0.08746 0.33981 0.68172 0.0
O423 O 0.1083 0.3431 0.67988 0.0
O424 O 0.10273 0.36332 0.78765 0.0
O425 O 0.12289 0.35025 0.78412 0.0
O426 O 0.14193 0.33819 0.62123 0.0
O427 O 0.14969 0.34809 0.71048 0.0
O428 O 0.13746 0.37549 0.67178 0.0
O429 O 0.11639 0.37291 0.67428 0.0
O430 O 0.12189 0.35272 0.56541 0.0
O431 O 0.10178 0.36576 0.56934 0.0
H432 H 0.06143 0.39425 0.77645 0.0
H433 H 0.03746 0.39727 0.8089 0.0
H434 H 0.02579 0.36339 0.68333 0.0
H435 H 0.04985 0.36023 0.65208 0.0
H436 H 0.16586 0.32249 0.57949 0.0
H437 H 0.18822 0.32509 0.5264 0.0
H438 H 0.19229 0.36555 0.61172 0.0
H439 H 0.16994 0.36284 0.66517 0.0
Nd440 Nd 0.35439 0.88974 0.39284 0.0
Nd441 Nd 0.36263 0.92307 0.38592 0.0
C442 C 0.34199 0.86568 0.40713 0.0
C443 C 0.34416 0.8523 0.44188 0.0
C444 C 0.33886 0.85013 0.5054 0.0
C445 C 0.34031 0.83736 0.53678 0.0
C446 C 0.34704 0.82632 0.5055 0.0
C447 C 0.35243 0.82855 0.44211 0.0
C448 C 0.35097 0.84132 0.41074 0.0
C449 C 0.38286 0.89356 0.39588 0.0
C450 C 0.35921 0.90734 0.53027 0.0
C451 C 0.37612 0.94685 0.38 0.0
C452 C 0.37738 0.96113 0.3538 0.0
C453 C 0.39037 0.96593 0.33453 0.0
C454 C 0.39234 0.97967 0.31574 0.0
C455 C 0.38134 0.98913 0.31545 0.0
C456 C 0.36822 0.98419 0.33348 0.0
C457 C 0.36627 0.9704 0.35257 0.0
C458 C 0.3341 0.91832 0.37994 0.0
C459 C 0.35784 0.90539 0.24857 0.0
O460 O 0.33912 0.8765 0.44318 0.0
O461 O 0.35007 0.86857 0.35745 0.0
O462 O 0.3768 0.88171 0.39919 0.0
O463 O 0.37361 0.9027 0.39374 0.0
O464 O 0.35329 0.8967 0.50093 0.0
O465 O 0.36509 0.91755 0.49699 0.0
O466 O 0.37866 0.93646 0.34071 0.0
O467 O 0.36654 0.94418 0.42341 0.0
O468 O 0.33958 0.93047 0.37488 0.0
O469 O 0.34383 0.90991 0.38545 0.0
O470 O 0.36391 0.91601 0.27781 0.0
O471 O 0.35173 0.89531 0.28192 0.0
H472 H 0.33339 0.85825 0.53072 0.0
H473 H 0.33583 0.83606 0.58507 0.0
H474 H 0.35783 0.82042 0.41658 0.0
H475 H 0.35511 0.84253 0.3617 0.0
H476 H 0.39917 0.95908 0.33569 0.0
H477 H 0.40265 0.98295 0.30341 0.0
H478 H 0.35939 0.99098 0.333 0.0
H479 H 0.35611 0.96706 0.36721 0.0
Nd480 Nd 0.92352 0.86236 0.63877 0.0
Nd481 Nd 0.89005 0.8546 0.64118 0.0
C482 C 0.94738 0.87574 0.63155 0.0
C483 C 0.96172 0.87677 0.60523 0.0
C484 C 0.96533 0.88799 0.56526 0.0
C485 C 0.97905 0.89024 0.54648 0.0
C486 C 0.98966 0.88134 0.56719 0.0
C487 C 0.98598 0.86991 0.606 0.0
C488 C 0.97224 0.86769 0.62496 0.0
C489 C 0.91867 0.83385 0.63781 0.0
C490 C 0.90661 0.85702 0.4985 0.0
C491 C 0.86599 0.84199 0.6521 0.0
C492 C 0.85263 0.84367 0.68639 0.0
C493 C 0.84428 0.83214 0.69686 0.0
C494 C 0.83153 0.83343 0.72838 0.0
C495 C 0.82676 0.84632 0.75037 0.0
C496 C 0.8352 0.85789 0.73981 0.0
C497 C 0.848 0.85657 0.70832 0.0
C498 C 0.89424 0.88297 0.64411 0.0
C499 C 0.90687 0.86007 0.7811 0.0
O500 O 0.93696 0.87812 0.59194 0.0
O501 O 0.94461 0.8665 0.67656 0.0
O502 O 0.93087 0.83935 0.63912 0.0
O503 O 0.91017 0.84363 0.6358 0.0
O504 O 0.9176 0.86217 0.52874 0.0
O505 O 0.89575 0.85216 0.53083 0.0
O506 O 0.87671 0.83895 0.68862 0.0
O507 O 0.86883 0.85081 0.60528 0.0
O508 O 0.88226 0.87712 0.64634 0.0
O509 O 0.90327 0.87361 0.64269 0.0
O510 O 0.89612 0.8545 0.75082 0.0
O511 O 0.91757 0.86521 0.74869 0.0
H512 H 0.95755 0.89529 0.54971 0.0
H513 H 0.98132 0.89903 0.5158 0.0
H514 H 0.99379 0.86287 0.62367 0.0
H515 H 0.96993 0.85903 0.65643 0.0
H516 H 0.84759 0.82209 0.68023 0.0
H517 H 0.82531 0.8243 0.73455 0.0
H518 H 0.83201 0.86795 0.75664 0.0
H519 H 0.85427 0.86563 0.70113 0.0
Nd520 Nd 0.85563 0.12796 0.42387 0.0
Nd521 Nd 0.86198 0.09589 0.42418 0.0
C522 C 0.84382 0.15245 0.41046 0.0
C523 C 0.84567 0.16579 0.37477 0.0
C524 C 0.83915 0.16816 0.31387 0.0
C525 C 0.84011 0.18098 0.28241 0.0
C526 C 0.84758 0.19189 0.31093 0.0
C527 C 0.85422 0.18946 0.37156 0.0
C528 C 0.85324 0.17664 0.40306 0.0
C529 C 0.884 0.12422 0.41908 0.0
C530 C 0.86125 0.11177 0.28372 0.0
C531 C 0.87205 0.07041 0.43503 0.0
C532 C 0.87401 0.05654 0.46569 0.0
C533 C 0.88725 0.05223 0.48486 0.0
C534 C 0.88979 0.03856 0.504 0.0
C535 C 0.87917 0.02871 0.50449 0.0
C536 C 0.86583 0.03315 0.48706 0.0
C537 C 0.86329 0.04682 0.46774 0.0
C538 C 0.8345 0.10328 0.40847 0.0
C539 C 0.85751 0.11201 0.56721 0.0
O540 O 0.84022 0.14162 0.37598 0.0
O541 O 0.85252 0.14946 0.45782 0.0
O542 O 0.8779 0.13606 0.41862 0.0
O543 O 0.87494 0.11492 0.42021 0.0
O544 O 0.85471 0.12187 0.31413 0.0
O545 O 0.86704 0.10155 0.31675 0.0
O546 O 0.87839 0.08124 0.45836 0.0
O547 O 0.86034 0.07342 0.40671 0.0
O548 O 0.84032 0.09295 0.37918 0.0
O549 O 0.84303 0.10897 0.44695 0.0
O550 O 0.86091 0.10051 0.53587 0.0
O551 O 0.85421 0.12348 0.53539 0.0
H552 H 0.83313 0.16014 0.29066 0.0
H553 H 0.83499 0.18232 0.23547 0.0
H554 H 0.8599 0.19758 0.3958 0.0
H555 H 0.85825 0.17532 0.45029 0.0
H556 H 0.89578 0.05936 0.48308 0.0
H557 H 0.90016 0.0357 0.51791 0.0
H558 H 0.85737 0.02593 0.48595 0.0
H559 H 0.853 0.04964 0.45243 0.0
Nd560 Nd 0.09548 0.15545 0.63694 0.0
Nd561 Nd 0.12846 0.16466 0.6437 0.0
C562 C 0.07205 0.14143 0.6285 0.0
C563 C 0.05755 0.14062 0.60418 0.0
C564 C 0.05343 0.1292 0.56662 0.0
C565 C 0.03959 0.12726 0.54901 0.0
C566 C 0.02938 0.13669 0.56851 0.0
C567 C 0.03357 0.14833 0.60487 0.0
C568 C 0.04745 0.15024 0.62267 0.0
C569 C 0.09908 0.1842 0.63488 0.0
C570 C 0.1128 0.16109 0.49974 0.0
C571 C 0.15224 0.17763 0.65829 0.0
C572 C 0.16578 0.17559 0.69133 0.0
C573 C 0.17091 0.18585 0.73331 0.0
C574 C 0.18372 0.18434 0.76444 0.0
C575 C 0.19181 0.17251 0.75424 0.0
C576 C 0.18664 0.16221 0.71211 0.0
C577 C 0.17378 0.16371 0.6812 0.0
C578 C 0.12542 0.13607 0.64465 0.0
C579 C 0.1113 0.15869 0.78078 0.0
O580 O 0.08208 0.14015 0.586 0.0
O581 O 0.075 0.14987 0.67689 0.0
O582 O 0.08715 0.17816 0.63265 0.0
O583 O 0.10798 0.17482 0.63659 0.0
O584 O 0.10256 0.15443 0.52868 0.0
O585 O 0.1226 0.16763 0.53338 0.0
O586 O 0.14161 0.17978 0.69648 0.0
O587 O 0.14931 0.16985 0.60735 0.0
O588 O 0.13715 0.14239 0.64806 0.0
O589 O 0.11611 0.14511 0.6432 0.0
O590 O 0.12143 0.16549 0.75198 0.0
O591 O 0.1015 0.15224 0.74689 0.0
H592 H 0.06092 0.12154 0.552 0.0
H593 H 0.0369 0.11829 0.52016 0.0
H594 H 0.02607 0.15578 0.62144 0.0
H595 H 0.0502 0.15911 0.65211 0.0
H596 H 0.16502 0.19514 0.7418 0.0
H597 H 0.18738 0.19258 0.79567 0.0
H598 H 0.19248 0.1529 0.70357 0.0
H599 H 0.17011 0.15555 0.64941 0.0
Nd600 Nd 0.16378 0.89006 0.42988 0.0
Nd601 Nd 0.1563 0.92357 0.43312 0.0
C602 C 0.17611 0.86589 0.41579 0.0
C603 C 0.17422 0.85255 0.38016 0.0
C604 C 0.18192 0.84964 0.32336 0.0
C605 C 0.1808 0.83688 0.29148 0.0
C606 C 0.172 0.82656 0.31562 0.0
C607 C 0.16419 0.82954 0.37218 0.0
C608 C 0.16531 0.84231 0.40404 0.0
C609 C 0.13542 0.89429 0.42937 0.0
C610 C 0.15805 0.90695 0.29014 0.0
C611 C 0.14315 0.94757 0.44068 0.0
C612 C 0.14219 0.96199 0.46595 0.0
C613 C 0.1298 0.96652 0.49411 0.0
C614 C 0.12786 0.98038 0.51136 0.0
C615 C 0.13827 0.9902 0.50101 0.0
C616 C 0.15084 0.98557 0.47432 0.0
C617 C 0.15275 0.97168 0.45675 0.0
C618 C 0.18473 0.9183 0.43358 0.0
C619 C 0.16184 0.90661 0.57326 0.0
O620 O 0.17926 0.87675 0.38069 0.0
O621 O 0.1677 0.86875 0.46428 0.0
O622 O 0.14136 0.88234 0.42752 0.0
O623 O 0.14473 0.90341 0.4293 0.0
O624 O 0.16326 0.89597 0.31994 0.0
O625 O 0.15341 0.91785 0.32294 0.0
O626 O 0.14079 0.9373 0.48082 0.0
O627 O 0.15232 0.94464 0.39562 0.0
O628 O 0.17946 0.9306 0.43089 0.0
O629 O 0.17482 0.91002 0.43609 0.0
O630 O 0.15698 0.91778 0.54339 0.0
O631 O 0.16628 0.89558 0.5406 0.0
H632 H 0.18896 0.8572 0.30375 0.0
H633 H 0.18685 0.83513 0.24766 0.0
H634 H 0.15745 0.82186 0.39305 0.0
H635 H 0.1593 0.84407 0.44802 0.0
H636 H 0.12142 0.95936 0.5014 0.0
H637 H 0.11813 0.98339 0.53273 0.0
H638 H 0.15909 0.99276 0.465 0.0
H639 H 0.16239 0.9686 0.43465 0.0
H640 H 0.36877 0.0122 0.36732 0.0
H641 H 0.37281 0.03632 0.34073 0.0
H642 H 0.40356 0.02447 0.19951 0.0
H643 H 0.3994 1.00026 0.22473 0.0
H644 H 0.41244 0.04644 0.27125 0.0
H645 H 0.37196 0.03525 0.14858 0.0
H646 H 0.34856 0.02623 0.13074 0.0
H647 H 0.33248 0.0556 0.26827 0.0
H648 H 0.35582 0.06468 0.28763 0.0
H649 H 0.41453 0.11627 0.13814 0.0
H650 H 0.41408 0.09114 0.15526 0.0
H651 H 0.37942 0.09585 0.28536 0.0
H652 H 0.37955 0.12049 0.26625 0.0
H653 H 0.37358 0.07661 0.20682 0.0
H654 H 0.41441 0.08693 0.33471 0.0
H655 H 0.43784 0.09599 0.35152 0.0
H656 H 0.45327 0.06849 0.20377 0.0
H657 H 0.42989 0.0594 0.18546 0.0
C658 C 0.37626 0.01462 0.32984 0.0
C659 C 0.38367 1.00406 0.29819 0.0
C660 C 0.37863 0.02852 0.31487 0.0
C661 C 0.38846 0.03236 0.26763 0.0
C662 C 0.39597 0.02189 0.23634 0.0
C663 C 0.39357 1.00797 0.25108 0.0
C664 C 0.39072 0.04726 0.25065 0.0
C665 C 0.40396 0.053 0.2564 0.0
C666 C 0.37972 0.05598 0.23159 0.0
C667 C 0.36566 0.05056 0.21998 0.0
C668 C 0.36345 0.03972 0.1754 0.0
C669 C 0.35019 0.03461 0.16495 0.0
C670 C 0.33904 0.04032 0.19847 0.0
C671 C 0.34113 0.05118 0.24239 0.0
C672 C 0.35437 0.05632 0.25308 0.0
C673 C 0.40703 0.1119 0.1713 0.0
C674 C 0.39709 0.12039 0.20085 0.0
C675 C 0.40673 0.0975 0.18111 0.0
C676 C 0.39665 0.09138 0.22168 0.0
C677 C 0.3872 0.10008 0.2532 0.0
C678 C 0.38735 0.11427 0.24256 0.0
C679 C 0.39522 0.07602 0.22977 0.0
C680 C 0.3821 0.07011 0.22176 0.0
C681 C 0.40633 0.06722 0.24686 0.0
C682 C 0.42038 0.0726 0.25821 0.0
C683 C 0.42279 0.08289 0.30549 0.0
C684 C 0.43606 0.08802 0.31533 0.0
C685 C 0.44703 0.08285 0.27859 0.0
C686 C 0.44476 0.07251 0.2321 0.0
C687 C 0.4315 0.06736 0.22199 0.0
H688 H 0.45729 0.08684 0.28626 0.0
H689 H 0.32879 0.03635 0.1903 0.0
H690 H 1.00722 0.65245 0.83611 0.0
H691 H 0.03144 0.64843 0.86286 0.0
H692 H 0.03193 0.61339 0.73298 0.0
H693 H 1.00767 0.61725 0.70678 0.0
H694 H 0.04619 0.60716 0.83809 0.0
H695 H 0.04643 0.64575 0.69123 0.0
H696 H 0.03985 0.66878 0.6514 0.0
H697 H 0.05576 0.6869 0.82859 0.0
H698 H 0.06228 0.66396 0.86985 0.0
H699 H 0.12101 0.6035 0.83118 0.0
H700 H 0.09616 0.60421 0.80704 0.0
H701 H 0.09217 0.64035 0.92867 0.0
H702 H 0.1168 0.6399 0.95045 0.0
H703 H 0.07975 0.64525 0.82129 0.0
H704 H 0.07912 0.60651 0.96943 0.0
H705 H 0.08579 0.58345 1.00858 0.0
H706 H 0.07092 0.56561 0.82869 0.0
H707 H 0.06431 0.58859 0.78813 0.0
C708 C 0.01248 0.64393 0.81284 0.0
C709 C 1.00537 0.63523 0.769 0.0
C710 C 0.0264 0.64163 0.8282 0.0
C711 C 0.03376 0.63069 0.79934 0.0
C712 C 0.02662 0.62189 0.75622 0.0
C713 C 0.01267 0.62411 0.74128 0.0
C714 C 0.04884 0.62852 0.81352 0.0
C715 C 0.05354 0.61547 0.83363 0.0
C716 C 0.05858 0.63931 0.80874 0.0
C717 C 0.05473 0.65312 0.78386 0.0
C718 C 0.04845 0.65464 0.72187 0.0
C719 C 0.04474 0.66768 0.69902 0.0
C720 C 0.04736 0.67929 0.73751 0.0
C721 C 0.05372 0.6779 0.79886 0.0
C722 C 0.05744 0.66488 0.82198 0.0
C723 C 0.11473 0.61136 0.85393 0.0
C724 C 0.12088 0.6216 0.89302 0.0
C725 C 0.10048 0.61182 0.84 0.0
C726 C 0.09208 0.62238 0.86582 0.0
C727 C 0.09826 0.63216 0.90732 0.0
C728 C 0.1124 0.63183 0.92028 0.0
C729 C 0.07711 0.62396 0.84743 0.0
C730 C 0.07243 0.63691 0.82599 0.0
C731 C 0.06744 0.61309 0.85105 0.0
C732 C 0.07136 0.59928 0.87549 0.0
C733 C 0.07736 0.59767 0.93804 0.0
C734 C 0.08112 0.58462 0.96051 0.0
C735 C 0.07882 0.57308 0.92106 0.0
C736 C 0.07272 0.57456 0.85914 0.0
C737 C 0.06895 0.58759 0.83641 0.0
H738 H 0.08174 0.56298 0.93854 0.0
H739 H 0.04447 0.68938 0.71973 0.0
H740 H 0.63376 0.89681 0.28458 0.0
H741 H 0.63385 0.92149 0.30342 0.0
H742 H 0.60675 0.92721 0.13746 0.0
H743 H 0.60655 0.90206 0.1185 0.0
H744 H 0.6301 0.94467 0.13516 0.0
H745 H 0.59491 0.93324 0.2894 0.0
H746 H 0.58373 0.92131 0.38185 0.0
H747 H 0.61606 0.93434 0.51187 0.0
H748 H 0.62757 0.94616 0.42007 0.0
H749 H 0.6267 0.01696 0.20339 0.0
H750 H 0.62133 0.99292 0.18003 0.0
H751 H 0.64248 0.98067 0.35725 0.0
H752 H 0.64738 1.00471 0.38241 0.0
H753 H 0.61967 0.9669 0.34884 0.0
H754 H 0.65617 0.97602 0.19777 0.0
H755 H 0.66817 0.9883 0.10884 0.0
H756 H 0.6349 0.97941 0.97613 0.0
H757 H 0.62261 0.96721 0.06459 0.0
C758 C 0.62751 0.90324 0.25281 0.0
C759 C 0.62003 0.89739 0.20044 0.0
C760 C 0.62759 0.91743 0.26372 0.0
C761 C 0.62027 0.92635 0.22225 0.0
C762 C 0.61246 0.92057 0.17045 0.0
C763 C 0.61221 0.90618 0.15997 0.0
C764 C 0.62164 0.94162 0.23171 0.0
C765 C 0.62752 0.94958 0.18141 0.0
C766 C 0.61879 0.94806 0.29285 0.0
C767 C 0.61214 0.94053 0.34766 0.0
C768 C 0.59973 0.93342 0.33751 0.0
C769 C 0.59331 0.92671 0.38986 0.0
C770 C 0.59917 0.9271 0.45269 0.0
C771 C 0.61153 0.93408 0.46319 0.0
C772 C 0.61799 0.94079 0.41103 0.0
C773 C 0.63017 0.0092 0.23777 0.0
C774 C 0.63753 0.01295 0.29495 0.0
C775 C 0.6272 0.99535 0.22386 0.0
C776 C 0.63158 0.98479 0.26637 0.0
C777 C 0.63896 0.98851 0.32334 0.0
C778 C 0.64191 1.00234 0.33736 0.0
C779 C 0.62828 0.96994 0.2526 0.0
C780 C 0.62211 0.96204 0.30227 0.0
C781 C 0.63104 0.96353 0.19128 0.0
C782 C 0.6384 0.97084 0.138 0.0
C783 C 0.65136 0.97678 0.14977 0.0
C784 C 0.65822 0.98371 0.09943 0.0
C785 C 0.65228 0.98467 0.03693 0.0
C786 C 0.63948 0.97867 1.0246 0.0
C787 C 0.63256 0.97175 0.07481 0.0
H788 H 0.65761 0.99003 0.998 0.0
H789 H 0.59412 0.92208 0.4934 0.0
H790 H 0.90055 0.41703 0.87352 0.0
H791 H 0.92564 0.41686 0.85508 0.0
H792 H 0.92569 0.3726 0.86664 0.0
H793 H 0.90116 0.37277 0.88689 0.0
H794 H 0.94687 0.38079 0.92765 0.0
H795 H 0.92731 0.39203 0.71551 0.0
H796 H 0.9135 0.40592 0.63817 0.0
H797 H 0.93874 0.44111 0.67881 0.0
H798 H 0.95261 0.42746 0.757 0.0
H799 H 1.00894 0.36157 0.76902 0.0
H800 H 0.98478 0.36563 0.79587 0.0
H801 H 0.99188 0.40933 0.79496 0.0
H802 H 0.01597 0.40537 0.76612 0.0
H803 H 0.96784 0.40374 0.73499 0.0
H804 H 0.9887 0.39097 0.94066 0.0
H805 H 1.00226 0.37634 1.01575 0.0
H806 H 0.97414 0.34298 0.98428 0.0
H807 H 0.9605 0.35736 0.9083 0.0
C808 C 0.90598 0.40731 0.87269 0.0
C809 C 0.89877 0.39493 0.88174 0.0
C810 C 0.92034 0.40719 0.86159 0.0
C811 C 0.92774 0.39467 0.85862 0.0
C812 C 0.92045 0.38242 0.8688 0.0
C813 C 0.90629 0.38255 0.88023 0.0
C814 C 0.94295 0.39396 0.84452 0.0
C815 C 0.95137 0.38575 0.88509 0.0
C816 C 0.94912 0.40061 0.78997 0.0
C817 C 0.94089 0.40878 0.7426 0.0
C818 C 0.92986 0.40276 0.70823 0.0
C819 C 0.92203 0.41058 0.66421 0.0
C820 C 0.92522 0.4244 0.65374 0.0
C821 C 0.93627 0.43041 0.68707 0.0
C822 C 0.94412 0.42264 0.7312 0.0
C823 C 1.00539 0.37207 0.77395 0.0
C824 C 0.01459 0.38311 0.76557 0.0
C825 C 0.99152 0.37439 0.79002 0.0
C826 C 0.98639 0.38782 0.7985 0.0
C827 C 0.99548 0.39886 0.78914 0.0
C828 C 1.00937 0.39656 0.77322 0.0
C829 C 0.97162 0.3903 0.81724 0.0
C830 C 0.96333 0.39886 0.77772 0.0
C831 C 0.9655 0.38384 0.87238 0.0
C832 C 0.97364 0.37521 0.91838 0.0
C833 C 0.98546 0.38049 0.94942 0.0
C834 C 0.99315 0.37224 0.99219 0.0
C835 C 0.98908 0.35873 1.00467 0.0
C836 C 0.97728 0.35344 0.97452 0.0
C837 C 0.96956 0.36164 0.93166 0.0
H838 H 0.99505 0.35236 0.03778 0.0
H839 H 0.91914 0.43044 0.61967 0.0
H840 H 0.37588 0.40238 0.18361 0.0
H841 H 0.37581 0.4269 0.16023 0.0
H842 H 0.41568 0.42329 0.06986 0.0
H843 H 0.41584 0.39839 0.0942 0.0
H844 H 0.41256 0.44808 0.14302 0.0
H845 H 0.38778 0.42425 0.97366 0.0
H846 H 0.37069 0.40788 0.93011 0.0
H847 H 0.33827 0.43047 1.02402 0.0
H848 H 0.35519 0.44688 0.06895 0.0
H849 H 0.40476 0.51324 0.98249 0.0
H850 H 0.40875 0.48906 1.00873 0.0
H851 H 0.3672 0.48563 0.08001 0.0
H852 H 0.36311 0.50981 0.05334 0.0
H853 H 0.37267 0.464 1.01058 0.0
H854 H 0.39685 0.48707 0.18441 0.0
H855 H 0.41355 0.50327 0.23278 0.0
H856 H 0.44658 0.48231 0.1352 0.0
H857 H 0.43005 0.46608 0.08553 0.0
C858 C 0.38478 0.40678 0.15962 0.0
C859 C 0.39585 0.39836 0.14061 0.0
C860 C 0.38468 0.42086 0.14596 0.0
C861 C 0.39559 0.42702 0.11193 0.0
C862 C 0.40708 0.41882 0.09586 0.0
C863 C 0.40721 0.40459 0.11 0.0
C864 C 0.39438 0.44179 0.09067 0.0
C865 C 0.40398 0.45152 0.11304 0.0
C866 C 0.383 0.44647 0.05284 0.0
C867 C 0.37277 0.43674 1.02502 0.0
C868 C 0.37701 0.42569 0.98532 0.0
C869 C 0.36735 0.4164 0.96037 0.0
C870 C 0.3534 0.41812 0.97438 0.0
C871 C 0.34908 0.42915 1.01323 0.0
C872 C 0.3587 0.43846 0.03838 0.0
C873 C 0.39648 0.50742 1.00446 0.0
C874 C 0.3836 0.51365 1.01598 0.0
C875 C 0.3988 0.49351 1.01958 0.0
C876 C 0.38837 0.48538 0.04747 0.0
C877 C 0.37547 0.49155 0.05858 0.0
C878 C 0.37312 0.50545 0.04309 0.0
C879 C 0.39075 0.47043 0.06363 0.0
C880 C 0.38133 0.46062 0.0402 0.0
C881 C 0.40224 0.46574 0.10079 0.0
C882 C 0.4122 0.47545 0.13069 0.0
C883 C 0.40767 0.48598 0.17286 0.0
C884 C 0.4171 0.49516 0.20059 0.0
C885 C 0.43111 0.49385 0.18692 0.0
C886 C 0.43572 0.48333 0.14565 0.0
C887 C 0.42633 0.47413 0.11774 0.0
H888 H 0.4384 0.50096 0.20843 0.0
H889 H 0.34594 0.41092 0.95505 0.0
H890 H 0.51369 0.61478 0.07799 0.0
H891 H 0.48976 0.60979 0.04957 0.0
H892 H 0.48332 0.65224 0.99838 0.0
H893 H 0.50732 0.65725 1.02295 0.0
H894 H 0.46281 0.64196 0.08083 0.0
H895 H 0.48535 0.62954 0.88014 0.0
H896 H 0.50209 0.61729 0.81069 0.0
H897 H 0.48485 0.5786 0.86915 0.0
H898 H 0.46811 0.59063 0.9398 0.0
H899 H 0.40116 0.64451 0.90794 0.0
H900 H 0.42564 0.64426 0.9322 0.0
H901 H 0.42337 0.60123 0.98084 0.0
H902 H 0.39842 0.60143 0.95625 0.0
H903 H 0.44812 0.60923 0.90696 0.0
H904 H 0.4244 0.62219 0.10288 0.0
H905 H 0.40738 0.63499 0.16846 0.0
H906 H 0.42692 0.67303 0.11729 0.0
H907 H 0.44394 0.66047 0.05049 0.0
C908 C 0.50735 0.62308 0.05959 0.0
C909 C 0.51272 0.63651 0.05343 0.0
C910 C 0.49355 0.62017 0.04367 0.0
C911 C 0.48464 0.63062 1.02182 0.0
C912 C 0.4899 0.64399 1.01557 0.0
C913 C 0.50372 0.64686 1.03038 0.0
C914 C 0.46977 0.62778 1.00682 0.0
C915 C 0.45964 0.63485 0.04255 0.0
C916 C 0.4655 0.61824 0.958 0.0
C917 C 0.4756 0.61098 0.91598 0.0
C918 C 0.48522 0.61842 0.87879 0.0
C919 C 0.49469 0.61152 0.83906 0.0
C920 C 0.49457 0.59718 0.8357 0.0
C921 C 0.48495 0.58971 0.87194 0.0
C922 C 0.47547 0.59656 0.91182 0.0
C923 C 0.40581 0.63489 0.92314 0.0
C924 C 0.39773 0.623 0.93054 0.0
C925 C 0.41988 0.63479 0.93715 0.0
C926 C 0.42643 0.6228 0.95934 0.0
C927 C 0.41858 0.61065 0.96397 0.0
C928 C 0.40432 0.61075 0.94991 0.0
C929 C 0.44122 0.62352 0.98065 0.0
C930 C 0.45131 0.61614 0.94601 0.0
C931 C 0.44551 0.63279 1.03055 0.0
C932 C 0.4354 0.64039 0.0713 0.0
C933 C 0.42502 0.63329 0.10524 0.0
C934 C 0.41537 0.6405 0.14268 0.0
C935 C 0.41605 0.65482 0.14695 0.0
C936 C 0.4264 0.66194 0.11391 0.0
C937 C 0.43606 0.65478 0.07631 0.0
H938 H 0.40857 0.66038 0.17595 0.0
H939 H 0.5019 0.59185 0.80486 0.0
H940 H 0.64547 0.61751 0.15023 0.0
H941 H 0.6457 0.59293 0.12893 0.0
H942 H 0.6021 0.59381 0.09068 0.0
H943 H 0.60179 0.61884 0.11226 0.0
H944 H 0.61135 0.57007 0.16628 0.0
H945 H 0.62244 0.59261 0.96373 0.0
H946 H 0.63472 0.60926 0.89403 0.0
H947 H 0.67319 0.59004 0.94262 0.0
H948 H 0.66116 0.5734 1.01345 0.0
H949 H 0.61406 0.50317 1.01772 0.0
H950 H 0.6099 0.52739 0.04242 0.0
H951 H 0.65359 0.53438 0.0547 0.0
H952 H 0.65784 0.51014 1.03028 0.0
H953 H 0.64227 0.55441 0.98753 0.0
H954 H 0.63224 0.53303 0.19385 0.0
H955 H 0.6209 0.5167 0.26869 0.0
H956 H 0.58149 0.53368 0.21805 0.0
H957 H 0.59259 0.55001 0.14217 0.0
C958 C 0.63584 0.61254 0.13779 0.0
C959 C 0.62361 0.62023 0.13257 0.0
C960 C 0.63602 0.59841 0.12545 0.0
C961 C 0.62398 0.59144 0.10717 0.0
C962 C 0.61155 0.59893 0.10447 0.0
C963 C 0.61137 0.61323 0.1168 0.0
C964 C 0.62481 0.57653 0.08853 0.0
C965 C 0.61788 0.56665 0.12631 0.0
C966 C 0.63364 0.57195 0.03761 0.0
C967 C 0.6409 0.58181 0.99425 0.0
C968 C 0.63353 0.59199 0.95988 0.0
C969 C 0.64044 0.60142 0.92013 0.0
C970 C 0.65473 0.60072 0.91398 0.0
C971 C 0.66213 0.59057 0.94744 0.0
C972 C 0.65526 0.58112 0.98733 0.0
C973 C 0.62282 0.50977 1.02658 0.0
C974 C 0.63632 0.50452 1.0221 0.0
C975 C 0.62041 0.52371 0.04067 0.0
C976 C 0.6314 0.53285 0.05126 0.0
C977 C 0.64488 0.52766 0.04667 0.0
C978 C 0.64731 0.51372 1.03245 0.0
C979 C 0.62892 0.54783 0.06565 0.0
C980 C 0.6356 0.55776 1.02708 0.0
C981 C 0.61994 0.55242 0.11616 0.0
C982 C 0.61324 0.54264 0.16177 0.0
C983 C 0.62115 0.53321 0.19826 0.0
C984 C 0.61476 0.52397 0.24094 0.0
C985 C 0.60048 0.52412 0.24797 0.0
C986 C 0.59255 0.53355 0.21246 0.0
C987 C 0.59889 0.54281 0.16964 0.0
H988 H 0.59555 0.51696 0.28105 0.0
H989 H 0.66007 0.60804 0.88321 0.0
H990 H 0.50062 0.40137 0.99054 0.0
H991 H 0.52476 0.40604 0.96763 0.0
H992 H 0.53662 0.37121 0.08589 0.0
H993 H 0.51253 0.36694 0.1122 0.0
H994 H 0.55349 0.39068 0.11194 0.0
H995 H 0.53713 0.37174 0.90906 0.0
H996 H 0.52216 0.36961 0.81147 0.0
H997 H 0.5334 0.41028 0.75027 0.0
H998 H 0.54832 0.41272 0.84802 0.0
H999 H 0.61854 0.37469 0.98095 0.0
H1000 H 0.59405 0.37559 1.00338 0.0
H1001 H 0.5927 0.41771 0.93858 0.0
H1002 H 0.61778 0.41698 0.91694 0.0
H1003 H 0.57067 0.39769 0.88497 0.0
H1004 H 0.58941 0.41463 0.0882 0.0
H1005 H 0.60549 0.4143 0.1822 0.0
H1006 H 0.5904 0.37465 0.23953 0.0
H1007 H 0.57438 0.37463 0.14518 0.0
C1008 C 0.50831 0.39473 1.0124 0.0
C1009 C 0.50439 0.38374 0.05358 0.0
C1010 C 0.52222 0.39733 0.99838 0.0
C1011 C 0.53272 0.38892 1.02416 0.0
C1012 C 0.52885 0.37792 0.06504 0.0
C1013 C 0.51495 0.37536 0.07949 0.0
C1014 C 0.54769 0.39167 1.00964 0.0
C1015 C 0.55717 0.39212 0.06213 0.0
C1016 C 0.55272 0.39388 0.94488 0.0
C1017 C 0.54371 0.39248 0.88628 0.0
C1018 C 0.53632 0.38028 0.8751 0.0
C1019 C 0.52786 0.379 0.8197 0.0
C1020 C 0.52679 0.38982 0.77482 0.0
C1021 C 0.53421 0.40192 0.78516 0.0
C1022 C 0.54268 0.40325 0.84053 0.0
C1023 C 0.61314 0.38424 0.97153 0.0
C1024 C 0.62021 0.39578 0.94708 0.0
C1025 C 0.59906 0.3847 0.98452 0.0
C1026 C 0.59143 0.39668 0.97278 0.0
C1027 C 0.59835 0.40832 0.948 0.0
C1028 C 0.61268 0.40793 0.93597 0.0
C1029 C 0.5763 0.39663 0.98716 0.0
C1030 C 0.56685 0.39653 0.93473 0.0
C1031 C 0.57131 0.39451 0.05178 0.0
C1032 C 0.58075 0.39459 0.10931 0.0
C1033 C 0.58958 0.40579 0.12058 0.0
C1034 C 0.59868 0.40568 0.17397 0.0
C1035 C 0.59899 0.39445 0.21675 0.0
C1036 C 0.59016 0.38334 0.20633 0.0
C1037 C 0.58105 0.38339 0.15295 0.0
H1038 H 0.60605 0.39437 0.25801 0.0
H1039 H 0.52024 0.38881 0.73193 0.0
H1040 H 0.87033 0.51317 0.87685 0.0
H1041 H 0.87559 0.5371 0.85203 0.0
H1042 H 0.90031 0.52426 0.68739 0.0
H1043 H 0.89527 0.50011 0.71312 0.0
H1044 H 0.91258 0.54531 0.74488 0.0
H1045 H 0.86667 0.53781 0.66862 0.0
H1046 H 0.84246 0.53045 0.67538 0.0
H1047 H 0.83539 0.55939 0.83124 0.0
H1048 H 0.85961 0.5668 0.82601 0.0
H1049 H 0.91204 0.61542 0.61516 0.0
H1050 H 0.91119 0.59038 0.63359 0.0
H1051 H 0.88489 0.59687 0.80129 0.0
H1052 H 0.88533 0.62156 0.78123 0.0
H1053 H 0.87387 0.57836 0.73002 0.0
H1054 H 0.92052 0.58529 0.80737 0.0
H1055 H 0.9446 0.59285 0.79622 0.0
H1056 H 0.95013 0.56526 0.63345 0.0
H1057 H 0.92601 0.55768 0.64301 0.0
C1058 C 0.87683 0.51538 0.83501 0.0
C1059 C 0.88219 0.50459 0.79653 0.0
C1060 C 0.87984 0.52916 0.82073 0.0
C1061 C 0.88813 0.5327 0.76669 0.0
C1062 C 0.89384 0.52194 0.72917 0.0
C1063 C 0.89094 0.50808 0.74395 0.0
C1064 C 0.89056 0.5476 0.74935 0.0
C1065 C 0.90408 0.55249 0.74085 0.0
C1066 C 0.87959 0.55717 0.74422 0.0
C1067 C 0.86499 0.55278 0.74725 0.0
C1068 C 0.85998 0.54255 0.70461 0.0
C1069 C 0.84625 0.53837 0.70814 0.0
C1070 C 0.8374 0.54443 0.7538 0.0
C1071 C 0.84226 0.5547 0.79593 0.0
C1072 C 0.85598 0.5589 0.79265 0.0
C1073 C 0.90644 0.61147 0.65702 0.0
C1074 C 0.89889 0.62048 0.69726 0.0
C1075 C 0.90589 0.59711 0.66751 0.0
C1076 C 0.89794 0.59152 0.71906 0.0
C1077 C 0.891 0.60071 0.76086 0.0
C1078 C 0.89138 0.61491 0.74978 0.0
C1079 C 0.89591 0.57623 0.72785 0.0
C1080 C 0.88241 0.57122 0.73418 0.0
C1081 C 0.90689 0.56661 0.73058 0.0
C1082 C 0.92143 0.57102 0.72549 0.0
C1083 C 0.92685 0.5809 0.76894 0.0
C1084 C 0.94051 0.58518 0.76293 0.0
C1085 C 0.94888 0.57957 0.71405 0.0
C1086 C 0.94362 0.56962 0.67122 0.0
C1087 C 0.92997 0.56532 0.67694 0.0
H1088 H 0.95944 0.58291 0.70945 0.0
H1089 H 0.82678 0.54118 0.75646 0.0
H1090 H 0.61498 0.12899 0.47531 0.0
H1091 H 0.59021 0.12933 0.45185 0.0
H1092 H 0.59763 0.11021 0.26401 0.0
H1093 H 0.62246 0.10935 0.28879 0.0
H1094 H 0.58188 0.13715 0.26581 0.0
H1095 H 0.58173 0.09182 0.35969 0.0
H1096 H 0.58668 0.07447 0.44481 0.0
H1097 H 0.56238 0.09707 0.58388 0.0
H1098 H 0.55747 0.1147 0.49982 0.0
H1099 H 0.51202 0.13324 0.16455 0.0
H1100 H 0.53611 0.12844 0.18972 0.0
H1101 H 0.52803 0.13408 0.39638 0.0
H1102 H 0.50383 0.13882 0.37147 0.0
H1103 H 0.54442 0.11311 0.38389 0.0
H1104 H 0.54531 0.1587 0.30039 0.0
H1105 H 0.54083 0.17769 0.22302 0.0
H1106 H 0.56413 0.1569 0.07397 0.0
H1107 H 0.56859 0.13767 0.15023 0.0
C1108 C 0.61126 0.12437 0.43011 0.0
C1109 C 0.62062 0.11883 0.38462 0.0
C1110 C 0.59711 0.12468 0.41648 0.0
C1111 C 0.59199 0.11983 0.35608 0.0
C1112 C 0.60129 0.11397 0.31107 0.0
C1113 C 0.61546 0.11332 0.32555 0.0
C1114 C 0.57714 0.12187 0.33858 0.0
C1115 C 0.57368 0.13168 0.29065 0.0
C1116 C 0.5664 0.11522 0.37294 0.0
C1117 C 0.56935 0.10466 0.42362 0.0
C1118 C 0.57756 0.09317 0.40861 0.0
C1119 C 0.58033 0.08327 0.45663 0.0
C1120 C 0.57488 0.08468 0.51977 0.0
C1121 C 0.56662 0.096 0.53497 0.0
C1122 C 0.56382 0.10594 0.48714 0.0
C1123 C 0.51535 0.13364 0.2154 0.0
C1124 C 0.50585 0.13656 0.26579 0.0
C1125 C 0.52921 0.13085 0.22982 0.0
C1126 C 0.53411 0.13105 0.29507 0.0
C1127 C 0.52463 0.13382 0.3456 0.0
C1128 C 0.51073 0.13653 0.33122 0.0
C1129 C 0.54905 0.12834 0.31038 0.0
C1130 C 0.55256 0.1185 0.35837 0.0
C1131 C 0.55987 0.13519 0.277 0.0
C1132 C 0.55714 0.14667 0.23079 0.0
C1133 C 0.54937 0.15812 0.25092 0.0
C1134 C 0.54686 0.16894 0.20731 0.0
C1135 C 0.55216 0.16848 0.14355 0.0
C1136 C 0.56001 0.15722 0.12333 0.0
C1137 C 0.56254 0.14636 0.16674 0.0
H1138 H 0.55021 0.17688 0.10987 0.0
H1139 H 0.57703 0.077 0.55687 0.0
H1140 H 0.15765 0.50756 0.78862 0.0
H1141 H 0.15345 0.48345 0.76149 0.0
H1142 H 0.10987 0.48978 0.78435 0.0
H1143 H 0.11401 0.51382 0.81369 0.0
H1144 H 0.11685 0.46565 0.83762 0.0
H1145 H 0.12503 0.48725 0.6301 0.0
H1146 H 0.1376 0.50138 0.54966 0.0
H1147 H 0.17221 0.47406 0.56222 0.0
H1148 H 0.15992 0.45986 0.64346 0.0
H1149 H 0.10273 0.39845 0.69754 0.0
H1150 H 0.10258 0.4235 0.71757 0.0
H1151 H 0.1466 0.4245 0.6928 0.0
H1152 H 0.14671 0.39997 0.67149 0.0
H1153 H 0.1367 0.44565 0.63465 0.0
H1154 H 0.12934 0.42515 0.84862 0.0
H1155 H 0.11684 0.41086 0.92877 0.0
H1156 H 0.08084 0.43594 0.90384 0.0
H1157 H 0.09307 0.45026 0.82278 0.0
C1158 C 0.14716 0.50386 0.7885 0.0
C1159 C 0.1362 0.51284 0.8032 0.0
C1160 C 0.14474 0.49001 0.77224 0.0
C1161 C 0.13129 0.48467 0.76977 0.0
C1162 C 0.12035 0.49354 0.78543 0.0
C1163 C 0.12275 0.5074 0.80162 0.0
C1164 C 0.12869 0.46991 0.75064 0.0
C1165 C 0.12104 0.46135 0.7927 0.0
C1166 C 0.13419 0.46408 0.6924 0.0
C1167 C 0.14159 0.47256 0.64329 0.0
C1168 C 0.13535 0.48431 0.61605 0.0
C1169 C 0.14242 0.49232 0.57026 0.0
C1170 C 0.1557 0.48864 0.55095 0.0
C1171 C 0.16193 0.47691 0.57727 0.0
C1172 C 0.15491 0.46887 0.62314 0.0
C1173 C 0.11231 0.40408 0.69584 0.0
C1174 C 0.12472 0.39714 0.68291 0.0
C1175 C 0.11226 0.41842 0.7078 0.0
C1176 C 0.12463 0.42606 0.70752 0.0
C1177 C 0.13689 0.41905 0.69329 0.0
C1178 C 0.13693 0.40489 0.68124 0.0
C1179 C 0.12518 0.44125 0.72244 0.0
C1180 C 0.13243 0.44994 0.67941 0.0
C1181 C 0.11935 0.44716 0.77984 0.0
C1182 C 0.11206 0.43867 0.82913 0.0
C1183 C 0.11873 0.42756 0.85994 0.0
C1184 C 0.1117 0.41946 0.90555 0.0
C1185 C 0.09804 0.42247 0.92124 0.0
C1186 C 0.09141 0.43361 0.89153 0.0
C1187 C 0.09838 0.44172 0.84577 0.0
H1188 H 0.09262 0.41618 0.95653 0.0
H1189 H 0.16116 0.49486 0.5155 0.0
H1190 H 0.51438 0.90455 0.25337 0.0
H1191 H 0.49022 0.90875 0.27917 0.0
H1192 H 0.48417 0.8654 0.31093 0.0
H1193 H 0.50835 0.86111 0.28512 0.0
H1194 H 0.46341 0.87482 0.24324 0.0
H1195 H 0.48606 0.88985 0.44023 0.0
H1196 H 0.50265 0.90318 0.50635 0.0
H1197 H 0.48429 0.94082 0.43925 0.0
H1198 H 0.4677 0.9277 0.372 0.0
H1199 H 0.40162 0.87363 0.41594 0.0
H1200 H 0.42608 0.87363 0.39195 0.0
H1201 H 0.42363 0.9161 0.33315 0.0
H1202 H 0.39871 0.91615 0.35747 0.0
H1203 H 0.4483 0.90914 0.40869 0.0
H1204 H 0.42453 0.8932 0.21649 0.0
H1205 H 0.40767 0.87911 0.15575 0.0
H1206 H 0.42825 0.84234 0.21901 0.0
H1207 H 0.44511 0.8562 0.281 0.0
C1208 C 0.50801 0.89588 0.26668 0.0
C1209 C 0.51351 0.88245 0.26726 0.0
C1210 C 0.49409 0.89833 0.28146 0.0
C1211 C 0.48522 0.88745 0.29795 0.0
C1212 C 0.49067 0.87403 0.29834 0.0
C1213 C 0.50457 0.87157 0.28333 0.0
C1214 C 0.47026 0.88995 0.31341 0.0
C1215 C 0.4602 0.88225 0.27992 0.0
C1216 C 0.4658 0.89989 0.36005 0.0
C1217 C 0.47574 0.9078 0.40051 0.0
C1218 C 0.48563 0.90097 0.43916 0.0
C1219 C 0.49502 0.90848 0.47692 0.0
C1220 C 0.49455 0.92283 0.47684 0.0
C1221 C 0.48466 0.9297 0.43916 0.0
C1222 C 0.47525 0.92223 0.40125 0.0
C1223 C 0.40622 0.88308 0.39855 0.0
C1224 C 0.3981 0.89488 0.38833 0.0
C1225 C 0.42029 0.88303 0.38464 0.0
C1226 C 0.42678 0.89478 0.35967 0.0
C1227 C 0.41889 0.90686 0.35215 0.0
C1228 C 0.40464 0.90691 0.36613 0.0
C1229 C 0.44159 0.8939 0.33899 0.0
C1230 C 0.45159 0.90184 0.37153 0.0
C1231 C 0.44603 0.88411 0.29181 0.0
C1232 C 0.43603 0.87574 0.25375 0.0
C1233 C 0.42541 0.8821 0.21778 0.0
C1234 C 0.41586 0.87416 0.1831 0.0
C1235 C 0.41688 0.85984 0.18361 0.0
C1236 C 0.42747 0.85343 0.21867 0.0
C1237 C 0.43704 0.86133 0.25353 0.0
H1238 H 0.40947 0.8537 0.15675 0.0
H1239 H 0.50183 0.92864 0.50611 0.0
H1240 H 0.87677 0.90211 0.69048 0.0
H1241 H 0.87634 0.92672 0.66889 0.0
H1242 H 0.9143 0.92327 0.56117 0.0
H1243 H 0.91494 0.89835 0.58466 0.0
H1244 H 0.91327 0.94768 0.62966 0.0
H1245 H 0.88302 0.92437 0.48052 0.0
H1246 H 0.86439 0.90845 0.44934 0.0
H1247 H 0.83569 0.93196 0.56354 0.0
H1248 H 0.85419 0.94791 0.59619 0.0
H1249 H 0.90186 0.01294 0.47247 0.0
H1250 H 0.90625 0.98874 0.4972 0.0
H1251 H 0.86748 0.98628 0.59859 0.0
H1252 H 0.863 0.01045 0.57382 0.0
H1253 H 0.87015 0.9645 0.52621 0.0
H1254 H 0.90025 0.98724 0.67917 0.0
H1255 H 0.91876 1.00304 0.71316 0.0
H1256 H 0.94757 0.98081 0.59385 0.0
H1257 H 0.92917 0.96498 0.55842 0.0
C1258 C 0.8852 0.90659 0.66314 0.0
C1259 C 0.89588 0.89821 0.63923 0.0
C1260 C 0.88488 0.92071 0.65032 0.0
C1261 C 0.89506 0.92695 0.6117 0.0
C1262 C 0.90622 0.91877 0.59064 0.0
C1263 C 0.90663 0.90451 0.60431 0.0
C1264 C 0.89349 0.94178 0.59139 0.0
C1265 C 0.90393 0.95131 0.60603 0.0
C1266 C 0.88122 0.94673 0.56157 0.0
C1267 C 0.87002 0.93728 0.54115 0.0
C1268 C 0.87275 0.9261 0.49925 0.0
C1269 C 0.86221 0.91707 0.48131 0.0
C1270 C 0.84887 0.91918 0.50454 0.0
C1271 C 0.84603 0.93034 0.54561 0.0
C1272 C 0.85653 0.93939 0.56378 0.0
C1273 C 0.89431 1.00734 0.50084 0.0
C1274 C 0.88206 0.01384 0.5212 0.0
C1275 C 0.89685 0.99341 0.51502 0.0
C1276 C 0.88731 0.98552 0.55068 0.0
C1277 C 0.87506 0.99199 0.57094 0.0
C1278 C 0.87248 1.00589 0.55652 0.0
C1279 C 0.88982 0.97052 0.5655 0.0
C1280 C 0.87954 0.96092 0.54958 0.0
C1281 C 0.90222 0.96555 0.5942 0.0
C1282 C 0.9133 0.97502 0.6156 0.0
C1283 C 0.91051 0.98579 0.65978 0.0
C1284 C 0.92098 0.99474 0.67937 0.0
C1285 C 0.93433 0.99296 0.65553 0.0
C1286 C 0.93723 0.98219 0.61219 0.0
C1287 C 0.92678 0.97322 0.59237 0.0
H1288 H 0.94242 0.99989 0.67076 0.0
H1289 H 0.84073 0.91217 0.49063 0.0
H1290 H 0.01518 0.11216 0.56795 0.0
H1291 H 0.99097 0.10812 0.54211 0.0
H1292 H 0.98526 0.15143 0.50666 0.0
H1293 H 0.00948 0.15555 0.53263 0.0
H1294 H 0.96445 0.14228 0.57496 0.0
H1295 H 0.98726 0.1264 0.3793 0.0
H1296 H 1.00376 0.11251 0.31561 0.0
H1297 H 0.98476 0.07548 0.38511 0.0
H1298 H 0.96825 0.08916 0.4499 0.0
H1299 H 0.90277 0.14418 0.40075 0.0
H1300 H 0.92724 0.14395 0.42573 0.0
H1301 H 0.92462 0.10131 0.48133 0.0
H1302 H 0.89973 0.10148 0.45581 0.0
H1303 H 0.94922 0.10797 0.4094 0.0
H1304 H 0.92558 0.12403 0.60028 0.0
H1305 H 0.90874 0.13809 0.66083 0.0
H1306 H 0.92923 0.17488 0.59855 0.0
H1307 H 0.94611 0.16104 0.53689 0.0
C1308 C 1.00885 0.12084 0.5539 0.0
C1309 C 0.01445 0.13421 0.55218 0.0
C1310 C 0.99492 0.1185 0.53908 0.0
C1311 C 0.98616 0.12941 0.52139 0.0
C1312 C 0.99169 0.14277 0.52012 0.0
C1313 C 1.00561 0.14514 0.53522 0.0
C1314 C 0.97122 0.12702 0.50542 0.0
C1315 C 0.9612 0.13486 0.53823 0.0
C1316 C 0.96673 0.11703 0.45899 0.0
C1317 C 0.97662 0.1088 0.42 0.0
C1318 C 0.98667 0.11529 0.3814 0.0
C1319 C 0.99601 0.10746 0.34503 0.0
C1320 C 0.99533 0.09312 0.34647 0.0
C1321 C 0.98529 0.08659 0.38414 0.0
C1322 C 0.97593 0.09438 0.42065 0.0
C1323 C 0.90736 0.13466 0.41758 0.0
C1324 C 0.89922 0.12286 0.4266 0.0
C1325 C 0.92141 0.13457 0.4321 0.0
C1326 C 0.92783 0.1227 0.45659 0.0
C1327 C 0.91992 0.11063 0.46277 0.0
C1328 C 0.9057 0.11071 0.44808 0.0
C1329 C 0.9426 0.1234 0.47818 0.0
C1330 C 0.95253 0.11528 0.44652 0.0
C1331 C 0.94705 0.13312 0.52568 0.0
C1332 C 0.93706 0.14149 0.56362 0.0
C1333 C 0.92646 0.13512 0.5992 0.0
C1334 C 0.9169 0.14305 0.63375 0.0
C1335 C 0.9179 0.15737 0.63343 0.0
C1336 C 0.92847 0.16379 0.59873 0.0
C1337 C 0.93805 0.1559 0.56406 0.0
H1338 H 0.91048 0.1635 0.66015 0.0
H1339 H 1.00257 0.08708 0.31827 0.0
H1340 H 0.15643 1.00907 0.55413 0.0
H1341 H 0.1524 0.0333 0.58002 0.0
H1342 H 0.11061 0.02973 0.511 0.0
H1343 H 0.11467 1.00558 0.48339 0.0
H1344 H 0.12128 0.05362 0.4697 0.0
H1345 H 0.11832 0.0306 0.67678 0.0
H1346 H 0.12594 0.01536 0.76662 0.0
H1347 H 0.16159 0.04056 0.79772 0.0
H1348 H 0.15427 0.05586 0.70739 0.0
H1349 H 0.10316 0.12017 0.60337 0.0
H1350 H 0.10313 0.09518 0.58208 0.0
H1351 H 0.14537 0.09279 0.64636 0.0
H1352 H 0.14537 0.11739 0.66787 0.0
H1353 H 0.13201 0.07145 0.69257 0.0
H1354 H 0.13576 0.09354 0.48093 0.0
H1355 H 0.12807 0.10903 0.39213 0.0
H1356 H 0.09089 0.08569 0.37024 0.0
H1357 H 0.09827 0.07018 0.45974 0.0
C1358 C 0.1464 0.01342 0.54388 0.0
C1359 C 0.13588 1.00518 0.51689 0.0
C1360 C 0.14405 0.02732 0.55934 0.0
C1361 C 0.13111 0.03346 0.54843 0.0
C1362 C 0.12067 0.02534 0.52034 0.0
C1363 C 0.12299 0.01142 0.50511 0.0
C1364 C 0.12848 0.04825 0.56668 0.0
C1365 C 0.12344 0.05744 0.51878 0.0
C1366 C 0.13139 0.05346 0.63043 0.0
C1367 C 0.1358 0.04431 0.68491 0.0
C1368 C 0.12783 0.03284 0.70245 0.0
C1369 C 0.13209 0.0242 0.75351 0.0
C1370 C 0.14426 0.02697 0.78775 0.0
C1371 C 0.15217 0.03842 0.7711 0.0
C1372 C 0.14797 0.04709 0.72001 0.0
C1373 C 0.11234 0.11424 0.61374 0.0
C1374 C 0.12426 0.12082 0.63733 0.0
C1375 C 0.11238 0.09995 0.60107 0.0
C1376 C 0.12432 0.09197 0.61185 0.0
C1377 C 0.136 0.09856 0.6375 0.0
C1378 C 0.13599 0.11272 0.6497 0.0
C1379 C 0.12505 0.07688 0.59535 0.0
C1380 C 0.12975 0.06761 0.64362 0.0
C1381 C 0.12184 0.07163 0.53198 0.0
C1382 C 0.11749 0.0808 0.47753 0.0
C1383 C 0.1259 0.09177 0.45748 0.0
C1384 C 0.1216 0.10055 0.40701 0.0
C1385 C 0.10898 0.09837 0.37571 0.0
C1386 C 0.10066 0.08738 0.39464 0.0
C1387 C 0.10489 0.07859 0.44524 0.0
H1388 H 0.10567 0.10519 0.33668 0.0
H1389 H 0.14754 0.02027 0.82728 0.0
H1390 H 0.11704 0.87369 0.42844 0.0
H1391 H 0.09249 0.87427 0.44682 0.0
H1392 H 0.09392 0.91836 0.46662 0.0
H1393 H 0.11912 0.91778 0.44958 0.0
H1394 H 0.07705 0.90741 0.55874 0.0
H1395 H 0.08004 0.90276 0.32695 0.0
H1396 H 0.08834 0.89341 0.22153 0.0
H1397 H 0.07233 0.85369 0.27166 0.0
H1398 H 0.06412 0.86275 0.37785 0.0
H1399 H 1.00302 0.90634 0.55937 0.0
H1400 H 0.02698 0.91091 0.53079 0.0
H1401 H 0.03421 0.86747 0.50811 0.0
H1402 H 0.01014 0.86283 0.53487 0.0
H1403 H 0.04612 0.88133 0.40967 0.0
H1404 H 0.04521 0.88609 0.64647 0.0
H1405 H 0.037 0.89582 0.75133 0.0
H1406 H 0.0488 0.93621 0.68832 0.0
H1407 H 0.05692 0.92673 0.5827 0.0
C1408 C 0.11224 0.88361 0.43622 0.0
C1409 C 0.12017 0.89571 0.43702 0.0
C1410 C 0.09805 0.88391 0.44647 0.0
C1411 C 0.0911 0.89636 0.45692 0.0
C1412 C 0.09894 0.90858 0.4582 0.0
C1413 C 0.11335 0.90828 0.4481 0.0
C1414 C 0.07576 0.89619 0.46765 0.0
C1415 C 0.07026 0.90196 0.5253 0.0
C1416 C 0.06676 0.88891 0.42488 0.0
C1417 C 0.07153 0.88343 0.36062 0.0
C1418 C 0.07835 0.89201 0.31569 0.0
C1419 C 0.08304 0.88676 0.25576 0.0
C1420 C 0.08088 0.87296 0.23995 0.0
C1421 C 0.074 0.86438 0.28397 0.0
C1422 C 0.0693 0.86958 0.34401 0.0
C1423 C 0.00963 0.89772 0.54772 0.0
C1424 C 1.00447 0.88417 0.54962 0.0
C1425 C 0.02345 0.90037 0.53198 0.0
C1426 C 0.03261 0.88956 0.51782 0.0
C1427 C 0.02747 0.87604 0.51895 0.0
C1428 C 0.01366 0.87338 0.53488 0.0
C1429 C 0.04747 0.89226 0.50147 0.0
C1430 C 0.05288 0.88693 0.44267 0.0
C1431 C 0.05632 0.90005 0.54285 0.0
C1432 C 0.05153 0.90572 0.60645 0.0
C1433 C 0.04596 0.89706 0.65481 0.0
C1434 C 0.04134 0.90252 0.7144 0.0
C1435 C 0.04234 0.91663 0.7264 0.0
C1436 C 0.04801 0.92529 0.67891 0.0
C1437 C 0.05263 0.91988 0.61921 0.0
H1438 H 0.03876 0.92084 0.77257 0.0
H1439 H 0.08453 0.86891 0.19356 0.0
H1440 H 0.39837 0.20086 0.23936 0.0
H1441 H 0.39612 0.22603 0.23397 0.0
H1442 H 0.42934 0.22744 0.0938 0.0
H1443 H 0.43222 0.20265 0.10366 0.0
H1444 H 0.4339 0.2463 0.16959 0.0
H1445 H 0.39059 0.2334 0.06461 0.0
H1446 H 0.36799 0.22192 0.06135 0.0
H1447 H 0.35515 0.24479 0.23115 0.0
H1448 H 0.37773 0.25628 0.23588 0.0
H1449 H 0.43119 0.3144 0.06192 0.0
H1450 H 0.42855 0.28948 0.06663 0.0
H1451 H 0.39661 0.29411 0.21172 0.0
H1452 H 0.39859 0.31929 0.20288 0.0
H1453 H 0.39054 0.27259 0.14462 0.0
H1454 H 0.43306 0.28577 0.24833 0.0
H1455 H 0.45566 0.29718 0.2552 0.0
H1456 H 0.47002 0.27337 0.09122 0.0
H1457 H 0.44745 0.26194 0.08293 0.0
C1458 C 0.40505 0.20658 0.20686 0.0
C1459 C 0.41545 0.19972 0.17179 0.0
C1460 C 0.40373 0.22105 0.20338 0.0
C1461 C 0.41245 0.22898 0.16276 0.0
C1462 C 0.42249 0.22188 0.12611 0.0
C1463 C 0.42409 0.20759 0.13132 0.0
C1464 C 0.4119 0.24458 0.16015 0.0
C1465 C 0.42436 0.25192 0.16291 0.0
C1466 C 0.39952 0.25233 0.15463 0.0
C1467 C 0.38588 0.2456 0.15091 0.0
C1468 C 0.38296 0.23594 0.10137 0.0
C1469 C 0.37015 0.22943 0.09928 0.0
C1470 C 0.36015 0.2326 0.14611 0.0
C1471 C 0.36291 0.24233 0.19497 0.0
C1472 C 0.3757 0.24885 0.19734 0.0
C1473 C 0.42345 0.31012 0.09411 0.0
C1474 C 0.41514 0.31887 0.1321 0.0
C1475 C 0.42204 0.29578 0.09751 0.0
C1476 C 0.41274 0.28961 0.14159 0.0
C1477 C 0.40399 0.2984 0.1777 0.0
C1478 C 0.4051 0.31285 0.17262 0.0
C1479 C 0.41259 0.27414 0.15116 0.0
C1480 C 0.40004 0.26689 0.15064 0.0
C1481 C 0.42489 0.26639 0.15896 0.0
C1482 C 0.43854 0.27307 0.16478 0.0
C1483 C 0.44103 0.283 0.21365 0.0
C1484 C 0.45383 0.28948 0.21776 0.0
C1485 C 0.46426 0.28602 0.1736 0.0
C1486 C 0.46193 0.27605 0.12537 0.0
C1487 C 0.44914 0.26955 0.12101 0.0
H1488 H 0.47415 0.29106 0.17681 0.0
H1489 H 0.35025 0.22753 0.14445 0.0
H1490 H 0.31651 0.60929 1.02608 0.0
H1491 H 0.29129 0.61148 1.01976 0.0
H1492 H 0.29227 0.59847 0.81712 0.0
H1493 H 0.31741 0.59588 0.82419 0.0
H1494 H 0.27374 0.62069 0.83806 0.0
H1495 H 0.28354 0.57606 0.92677 0.0
H1496 H 0.2938 0.55939 1.00394 0.0
H1497 H 0.27222 0.57825 0.16438 0.0
H1498 H 0.26199 0.59519 0.08821 0.0
H1499 H 0.2055 0.58472 0.82512 0.0
H1500 H 0.23049 0.58775 0.83377 0.0
H1501 H 0.2244 0.62248 0.96189 0.0
H1502 H 0.19928 0.61987 0.95068 0.0
H1503 H 0.24525 0.59101 0.98148 0.0
H1504 H 0.2371 0.6374 0.88927 0.0
H1505 H 0.22658 0.65294 0.80762 0.0
H1506 H 0.24519 0.6299 0.65113 0.0
H1507 H 0.2555 0.61398 0.73206 0.0
C1508 C 0.31134 0.6071 0.97997 0.0
C1509 C 0.31895 0.60254 0.92544 0.0
C1510 C 0.2969 0.60828 0.97643 0.0
C1511 C 0.28973 0.60512 0.91792 0.0
C1512 C 0.29745 0.60103 0.86278 0.0
C1513 C 0.31184 0.59956 0.8668 0.0
C1514 C 0.27422 0.60547 0.9149 0.0
C1515 C 0.26757 0.61422 0.86973 0.0
C1516 C 0.26595 0.5971 0.95598 0.0
C1517 C 0.27215 0.58701 1.00194 0.0
C1518 C 0.2811 0.57675 0.97862 0.0
C1519 C 0.28688 0.56723 1.02214 0.0
C1520 C 0.2837 0.56779 0.08906 0.0
C1521 C 0.2747 0.57786 0.11255 0.0
C1522 C 0.26891 0.58742 0.06923 0.0
C1523 C 0.20947 0.59319 0.85409 0.0
C1524 C 0.20035 0.60217 0.88641 0.0
C1525 C 0.22379 0.5949 0.85912 0.0
C1526 C 0.22946 0.60547 0.89772 0.0
C1527 C 0.22037 0.61444 0.93046 0.0
C1528 C 0.20598 0.61296 0.92402 0.0
C1529 C 0.24481 0.60647 0.90599 0.0
C1530 C 0.25145 0.59774 0.95114 0.0
C1531 C 0.25306 0.6149 0.86522 0.0
C1532 C 0.24678 0.62433 0.81658 0.0
C1533 C 0.23871 0.63548 0.83742 0.0
C1534 C 0.23284 0.6444 0.7913 0.0
C1535 C 0.23514 0.64236 0.72419 0.0
C1536 C 0.24335 0.63142 0.70311 0.0
C1537 C 0.24918 0.62244 0.74908 0.0
H1538 H 0.23063 0.6493 0.68854 0.0
H1539 H 0.28818 0.5604 0.12268 0.0
H1540 H 0.58495 0.81321 0.23327 0.0
H1541 H 0.5887 0.78833 0.22813 0.0
H1542 H 0.62603 0.79479 0.11919 0.0
H1543 H 0.62255 0.81989 0.12639 0.0
H1544 H 0.60124 0.77331 0.0702 0.0
H1545 H 0.63534 0.78412 0.23473 0.0
H1546 H 0.6439 0.79525 0.33582 0.0
H1547 H 0.61319 0.77433 0.4491 0.0
H1548 H 0.60429 0.76325 0.34834 0.0
H1549 H 0.61853 0.70129 0.07532 0.0
H1550 H 0.62076 0.72646 0.07749 0.0
H1551 H 0.5953 0.72815 0.25046 0.0
H1552 H 0.59299 0.70309 0.24817 0.0
H1553 H 0.61674 0.7459 0.26239 0.0
H1554 H 0.58213 0.73589 0.10019 0.0
H1555 H 0.57279 0.72478 1.00058 0.0
H1556 H 0.60387 0.74412 0.88332 0.0
H1557 H 0.61351 0.75523 0.98252 0.0
C1558 C 0.59406 0.80937 0.20881 0.0
C1559 C 0.6035 0.8186 0.18071 0.0
C1560 C 0.59618 0.7951 0.20579 0.0
C1561 C 0.60763 0.78959 0.17319 0.0
C1562 C 0.61712 0.79875 0.14475 0.0
C1563 C 0.61517 0.81311 0.14926 0.0
C1564 C 0.60935 0.77426 0.16868 0.0
C1565 C 0.60494 0.76733 0.11166 0.0
C1566 C 0.61379 0.76634 0.22323 0.0
C1567 C 0.61903 0.77302 0.28387 0.0
C1568 C 0.63029 0.78204 0.28105 0.0
C1569 C 0.63524 0.7883 0.33832 0.0
C1570 C 0.62906 0.78554 0.39882 0.0
C1571 C 0.61795 0.77648 0.40217 0.0
C1572 C 0.61295 0.7702 0.345 0.0
C1573 C 0.61348 0.70702 0.11405 0.0
C1574 C 0.60552 0.70012 0.16138 0.0
C1575 C 0.61472 0.72146 0.11514 0.0
C1576 C 0.6081 0.72937 0.16386 0.0
C1577 C 0.60052 0.72241 0.21228 0.0
C1578 C 0.59917 0.70802 0.2108 0.0
C1579 C 0.60869 0.74486 0.16367 0.0
C1580 C 0.61332 0.75184 0.22025 0.0
C1581 C 0.60445 0.75281 0.10863 0.0
C1582 C 0.59863 0.74627 0.04886 0.0
C1583 C 0.58703 0.7377 0.05324 0.0
C1584 C 0.58168 0.73142 0.99686 0.0
C1585 C 0.58776 0.73372 0.9357 0.0
C1586 C 0.59919 0.74234 0.93077 0.0
C1587 C 0.6046 0.74864 0.98704 0.0
H1588 H 0.58359 0.72885 0.89212 0.0
H1589 H 0.63291 0.79039 0.44313 0.0
H1590 H 0.81568 0.42436 1.00157 0.0
H1591 H 0.79066 0.42221 1.00406 0.0
H1592 H 0.79178 0.39783 0.82701 0.0
H1593 H 0.81702 0.39998 0.82443 0.0
H1594 H 0.77103 0.41656 0.81983 0.0
H1595 H 0.78478 0.38278 0.97304 0.0
H1596 H 0.79749 0.37289 0.06681 0.0
H1597 H 0.77787 0.4014 0.19784 0.0
H1598 H 0.76519 0.41162 0.1046 0.0
H1599 H 0.69885 0.39679 0.87612 0.0
H1600 H 0.72402 0.39378 0.86878 0.0
H1601 H 0.72986 0.42897 0.99438 0.0
H1602 H 0.7049 0.43232 0.99959 0.0
H1603 H 0.74679 0.40179 1.02218 0.0
H1604 H 0.73523 0.43684 0.85937 0.0
H1605 H 0.72245 0.44541 0.76277 0.0
H1606 H 0.73792 0.41194 0.64668 0.0
H1607 H 0.75062 0.40305 0.74307 0.0
C1608 C 0.81065 0.41844 0.9633 0.0
C1609 C 0.81844 0.41231 0.91291 0.0
C1610 C 0.79627 0.41719 0.96486 0.0
C1611 C 0.78915 0.40976 0.91602 0.0
C1612 C 0.79691 0.40362 0.86541 0.0
C1613 C 0.81138 0.40478 0.86415 0.0
C1614 C 0.77366 0.40867 0.91808 0.0
C1615 C 0.76579 0.4131 0.8638 0.0
C1616 C 0.7666 0.4042 0.97522 0.0
C1617 C 0.77411 0.39805 1.03168 0.0
C1618 C 0.78324 0.38702 1.02176 0.0
C1619 C 0.79044 0.38134 0.07483 0.0
C1620 C 0.78851 0.38653 0.13822 0.0
C1621 C 0.77936 0.39739 0.14868 0.0
C1622 C 0.77215 0.40313 0.09573 0.0
C1623 C 0.70551 0.40376 0.90281 0.0
C1624 C 0.69983 0.41475 0.93876 0.0
C1625 C 0.71991 0.40208 0.89834 0.0
C1626 C 0.72892 0.41115 0.93108 0.0
C1627 C 0.7232 0.42181 0.96878 0.0
C1628 C 0.70889 0.42371 0.9717 0.0
C1629 C 0.74428 0.40994 0.92461 0.0
C1630 C 0.75209 0.4051 0.9781 0.0
C1631 C 0.75128 0.41383 0.86649 0.0
C1632 C 0.74369 0.41917 0.80861 0.0
C1633 C 0.73577 0.43122 0.81346 0.0
C1634 C 0.72857 0.43616 0.75871 0.0
C1635 C 0.72933 0.4292 0.69868 0.0
C1636 C 0.73732 0.4173 0.69325 0.0
C1637 C 0.74451 0.41231 0.74792 0.0
H1638 H 0.72376 0.43304 0.65633 0.0
H1639 H 0.79409 0.38213 0.17927 0.0
H1640 H 0.93539 0.70563 0.72225 0.0
H1641 H 0.93189 0.73046 0.71719 0.0
H1642 H 0.89175 0.72421 0.632 0.0
H1643 H 0.89517 0.69907 0.63819 0.0
H1644 H 0.9074 0.74488 0.56544 0.0
H1645 H 0.89306 0.73538 0.78314 0.0
H1646 H 0.89424 0.72533 0.89425 0.0
H1647 H 0.93127 0.74788 0.93396 0.0
H1648 H 0.93044 0.75791 0.82261 0.0
H1649 H 0.89514 0.8189 0.60625 0.0
H1650 H 0.89195 0.79374 0.61362 0.0
H1651 H 0.93284 0.78959 0.69344 0.0
H1652 H 0.93618 0.8144 0.68424 0.0
H1653 H 0.91285 0.77412 0.76378 0.0
H1654 H 0.92831 0.78142 0.54199 0.0
H1655 H 0.92762 0.7907 0.42924 0.0
H1656 H 0.88814 0.77211 0.3976 0.0
H1657 H 0.88849 0.76287 0.51068 0.0
C1658 C 0.92573 0.70948 0.70296 0.0
C1659 C 0.91553 0.70026 0.68106 0.0
C1660 C 0.92373 0.72376 0.70011 0.0
C1661 C 0.91152 0.72939 0.67442 0.0
C1662 C 0.90127 0.72023 0.65214 0.0
C1663 C 0.90319 0.70582 0.65611 0.0
C1664 C 0.90981 0.74482 0.6707 0.0
C1665 C 0.90826 0.75124 0.60909 0.0
C1666 C 0.91116 0.75331 0.72718 0.0
C1667 C 0.91175 0.74731 0.79424 0.0
C1668 C 0.90152 0.73811 0.81532 0.0
C1669 C 0.90212 0.73243 0.8784 0.0
C1670 C 0.91284 0.73594 0.92109 0.0
C1671 C 0.92298 0.74516 0.90081 0.0
C1672 C 0.92244 0.75086 0.83772 0.0
C1673 C 0.90341 0.8126 0.62554 0.0
C1674 C 0.91593 0.81873 0.64463 0.0
C1675 C 0.90161 0.79819 0.62957 0.0
C1676 C 0.91216 0.78961 0.65415 0.0
C1677 C 0.9245 0.79584 0.67448 0.0
C1678 C 0.92641 0.8101 0.66903 0.0
C1679 C 0.91065 0.77419 0.65847 0.0
C1680 C 0.91169 0.76776 0.72028 0.0
C1681 C 0.90878 0.76573 0.60223 0.0
C1682 C 0.90834 0.77162 0.53509 0.0
C1683 C 0.91938 0.77948 0.51135 0.0
C1684 C 0.91908 0.78469 0.44732 0.0
C1685 C 0.90784 0.78201 0.40638 0.0
C1686 C 0.89683 0.77418 0.42946 0.0
C1687 C 0.89708 0.76896 0.49351 0.0
H1688 H 0.90771 0.78591 0.35662 0.0
H1689 H 0.91328 0.73154 0.96993 0.0
H1690 H 0.81838 0.11771 0.4968 0.0
H1691 H 0.79313 0.11989 0.49689 0.0
H1692 H 0.79099 0.0965 0.31708 0.0
H1693 H 0.81605 0.09406 0.31758 0.0
H1694 H 0.77367 0.11948 0.3141 0.0
H1695 H 0.7835 0.08119 0.45635 0.0
H1696 H 0.79414 0.06937 0.55095 0.0
H1697 H 0.77435 0.09745 0.68347 0.0
H1698 H 0.76373 0.10957 0.58947 0.0
H1699 H 0.7066 0.08613 0.32788 0.0
H1700 H 0.73144 0.09002 0.3354 0.0
H1701 H 0.72435 0.12601 0.45398 0.0
H1702 H 0.69927 0.12241 0.4445 0.0
H1703 H 0.74596 0.09948 0.4946 0.0
H1704 H 0.73567 0.13766 0.35095 0.0
H1705 H 0.72487 0.14886 0.25511 0.0
H1706 H 0.74555 0.12082 0.12557 0.0
H1707 H 0.75628 0.10928 0.22091 0.0
C1708 C 0.81252 0.11311 0.4571 0.0
C1709 C 0.81928 0.10569 0.40722 0.0
C1710 C 0.79806 0.11432 0.4573 0.0
C1711 C 0.79002 0.10831 0.40707 0.0
C1712 C 0.79684 0.10125 0.35637 0.0
C1713 C 0.81122 0.09984 0.35679 0.0
C1714 C 0.77455 0.10908 0.40745 0.0
C1715 C 0.76766 0.11511 0.35374 0.0
C1716 C 0.76653 0.10358 0.45936 0.0
C1717 C 0.77298 0.0964 0.51585 0.0
C1718 C 0.78154 0.08494 0.50562 0.0
C1719 C 0.78754 0.07817 0.55913 0.0
C1720 C 0.78497 0.08269 0.62317 0.0
C1721 C 0.77636 0.09398 0.63382 0.0
C1722 C 0.77035 0.1008 0.58045 0.0
C1723 C 0.71029 0.09501 0.35477 0.0
C1724 C 0.7009 0.10404 0.38497 0.0
C1725 C 0.72453 0.0972 0.35919 0.0
C1726 C 0.72985 0.10831 0.3952 0.0
C1727 C 0.72053 0.1174 0.42558 0.0
C1728 C 0.70619 0.11539 0.41977 0.0
C1729 C 0.74516 0.10998 0.4016 0.0
C1730 C 0.752 0.10417 0.45591 0.0
C1731 C 0.75316 0.11573 0.35048 0.0
C1732 C 0.74659 0.12247 0.29311 0.0
C1733 C 0.73774 0.13375 0.30211 0.0
C1734 C 0.73168 0.1402 0.24787 0.0
C1735 C 0.73447 0.13552 0.18429 0.0
C1736 C 0.74336 0.1244 0.17486 0.0
C1737 C 0.74944 0.1179 0.22898 0.0
H1738 H 0.72979 0.14054 0.14233 0.0
H1739 H 0.78961 0.07742 0.66454 0.0
H1740 H 0.07962 0.31421 0.6696 0.0
H1741 H 0.08202 0.28932 0.66342 0.0
H1742 H 0.12609 0.29324 0.67701 0.0
H1743 H 0.12367 0.31849 0.68178 0.0
H1744 H 0.11993 0.27317 0.59094 0.0
H1745 H 0.10636 0.28236 0.8106 0.0
H1746 H 0.09263 0.29258 0.8999 0.0
H1747 H 0.05661 0.2718 0.82869 0.0
H1748 H 0.07009 0.26159 0.73836 0.0
H1749 H 0.12339 0.19913 0.64491 0.0
H1750 H 0.12597 0.22424 0.65521 0.0
H1751 H 0.08193 0.2289 0.64348 0.0
H1752 H 0.07938 0.20403 0.63445 0.0
H1753 H 0.09109 0.24463 0.73781 0.0
H1754 H 0.1054 0.23668 0.5124 0.0
H1755 H 0.11996 0.22633 0.42643 0.0
H1756 H 0.15582 0.24445 0.51444 0.0
H1757 H 0.14148 0.25476 0.60145 0.0
C1758 C 0.08986 0.30984 0.67136 0.0
C1759 C 0.10144 0.31845 0.67665 0.0
C1760 C 0.09123 0.29549 0.6681 0.0
C1761 C 0.10423 0.28914 0.67099 0.0
C1762 C 0.1159 0.29773 0.67496 0.0
C1763 C 0.11452 0.31221 0.67792 0.0
C1764 C 0.10537 0.2736 0.67045 0.0
C1765 C 0.11378 0.26696 0.62387 0.0
C1766 C 0.09737 0.26525 0.71292 0.0
C1767 C 0.08922 0.27129 0.7674 0.0
C1768 C 0.09549 0.28004 0.81372 0.0
C1769 C 0.08776 0.28582 0.86456 0.0
C1770 C 0.07376 0.28286 0.86989 0.0
C1771 C 0.06746 0.27408 0.82447 0.0
C1772 C 0.07515 0.26828 0.77348 0.0
C1773 C 0.11428 0.20553 0.6444 0.0
C1774 C 0.10117 0.19948 0.63892 0.0
C1775 C 0.11575 0.21995 0.64997 0.0
C1776 C 0.10415 0.22871 0.64979 0.0
C1777 C 0.0911 0.22257 0.64405 0.0
C1778 C 0.08965 0.20825 0.6386 0.0
C1779 C 0.10529 0.24417 0.65688 0.0
C1780 C 0.09731 0.25082 0.70505 0.0
C1781 C 0.11381 0.25246 0.61639 0.0
C1782 C 0.12239 0.24636 0.56379 0.0
C1783 C 0.1164 0.23838 0.51366 0.0
C1784 C 0.12461 0.23253 0.46471 0.0
C1785 C 0.13881 0.2347 0.46509 0.0
C1786 C 0.14483 0.24276 0.51428 0.0
C1787 C 0.13666 0.24861 0.56339 0.0
H1788 H 0.14515 0.23016 0.42717 0.0
H1789 H 0.06778 0.28735 0.90928 0.0
H1790 H 0.31489 0.92575 0.28871 0.0
H1791 H 0.28992 0.9231 0.29392 0.0
H1792 H 0.29396 0.90319 0.48267 0.0
H1793 H 0.31913 0.90467 0.47376 0.0
H1794 H 0.27337 0.89251 0.43164 0.0
H1795 H 0.28443 0.94076 0.45038 0.0
H1796 H 0.29484 0.96265 0.41494 0.0
H1797 H 0.27129 0.96142 0.23598 0.0
H1798 H 0.26084 0.93948 0.27008 0.0
H1799 H 0.20235 0.90499 0.51853 0.0
H1800 H 0.2275 0.90337 0.51095 0.0
H1801 H 0.22593 0.92281 0.32022 0.0
H1802 H 0.20101 0.92536 0.33079 0.0
H1803 H 0.24538 0.93354 0.37691 0.0
H1804 H 0.23386 0.88504 0.36131 0.0
H1805 H 0.22331 0.86351 0.40046 0.0
H1806 H 0.24741 0.86554 0.5776 0.0
H1807 H 0.25797 0.88716 0.53986 0.0
C1808 C 0.31044 0.9206 0.33077 0.0
C1809 C 0.31901 0.91541 0.38071 0.0
C1810 C 0.29605 0.91927 0.33444 0.0
C1811 C 0.28967 0.91345 0.39015 0.0
C1812 C 0.29835 0.90785 0.43921 0.0
C1813 C 0.31281 0.90869 0.43419 0.0
C1814 C 0.27412 0.91347 0.39776 0.0
C1815 C 0.26732 0.90157 0.42021 0.0
C1816 C 0.26585 0.92512 0.38245 0.0
C1817 C 0.27194 0.93844 0.36258 0.0
C1818 C 0.2815 0.94516 0.40342 0.0
C1819 C 0.28741 0.95756 0.38354 0.0
C1820 C 0.28375 0.9634 0.32318 0.0
C1821 C 0.27412 0.95688 0.28268 0.0
C1822 C 0.26819 0.94448 0.3023 0.0
C1823 C 0.2074 0.90868 0.47456 0.0
C1824 C 0.19966 0.91513 0.42483 0.0
C1825 C 0.22186 0.90771 0.46992 0.0
C1826 C 0.22895 0.91274 0.4143 0.0
C1827 C 0.22101 0.91884 0.36394 0.0
C1828 C 0.20666 0.92019 0.3696 0.0
C1829 C 0.24455 0.91249 0.40934 0.0
C1830 C 0.25139 0.92442 0.38788 0.0
C1831 C 0.2528 0.9009 0.42597 0.0
C1832 C 0.24662 0.88777 0.44796 0.0
C1833 C 0.23687 0.88092 0.4087 0.0
C1834 C 0.23089 0.8687 0.43066 0.0
C1835 C 0.23467 0.86318 0.49154 0.0
C1836 C 0.24448 0.86983 0.53049 0.0
C1837 C 0.25048 0.88206 0.50881 0.0
H1838 H 0.23002 0.85373 0.50847 0.0
H1839 H 0.28835 0.973 0.30786 0.0
H1840 H 0.21586 0.16222 0.70247 0.0
H1841 H 0.23849 0.16076 0.755 0.0
H1842 H 0.2217 0.17804 0.93288 0.0
H1843 H 0.19909 0.17958 0.88058 0.0
H1844 H 0.24493 0.1902 0.90647 0.0
H1845 H 0.23068 0.14306 0.91665 0.0
H1846 H 0.22235 0.12092 0.87299 0.0
H1847 H 0.2578 0.118 0.74842 0.0
H1848 H 0.26625 0.14022 0.79071 0.0
H1849 H 0.30128 0.17787 0.11867 0.0
H1850 H 0.27873 0.17686 0.06604 0.0
H1851 H 0.29724 0.16107 0.889 0.0
H1852 H 0.31985 0.16153 0.9423 0.0
H1853 H 0.27346 0.14793 0.91294 0.0
H1854 H 0.28757 0.19509 0.90261 0.0
H1855 H 0.29599 0.21712 0.94714 0.0
H1856 H 0.26063 0.21987 0.07243 0.0
H1857 H 0.2521 0.19775 1.02927 0.0
C1858 C 0.21693 0.16555 0.75307 0.0
C1859 C 0.20558 0.17105 0.78706 0.0
C1860 C 0.22992 0.1647 0.78318 0.0
C1861 C 0.2319 0.16918 0.84838 0.0
C1862 C 0.22055 0.17456 0.88254 0.0
C1863 C 0.20759 0.17547 0.8524 0.0
C1864 C 0.24582 0.16876 0.88037 0.0
C1865 C 0.25104 0.18087 0.90862 0.0
C1866 C 0.25409 0.15674 0.8819 0.0
C1867 C 0.24902 0.14338 0.85636 0.0
C1868 C 0.23664 0.13775 0.87955 0.0
C1869 C 0.23191 0.12517 0.85513 0.0
C1870 C 0.23952 0.11808 0.80783 0.0
C1871 C 0.2519 0.12352 0.78498 0.0
C1872 C 0.25667 0.1361 0.8092 0.0
C1873 C 0.3006 0.17398 0.06885 0.0
C1874 C 0.31252 0.16983 0.03493 0.0
C1875 C 0.28765 0.17355 0.03845 0.0
C1876 C 0.28621 0.16908 0.97298 0.0
C1877 C 0.29802 0.16463 0.93937 0.0
C1878 C 0.311 0.16503 0.96983 0.0
C1879 C 0.27246 0.16933 0.93944 0.0
C1880 C 0.2673 0.15722 0.91077 0.0
C1881 C 0.26421 0.18135 0.93749 0.0
C1882 C 0.26926 0.19471 0.96313 0.0
C1883 C 0.28164 0.20035 0.93998 0.0
C1884 C 0.28642 0.21286 0.96493 0.0
C1885 C 0.27886 0.21987 1.0127 0.0
C1886 C 0.26648 0.21441 0.03548 0.0
C1887 C 0.26166 0.2019 1.01075 0.0
H1888 H 0.28259 0.22956 1.03197 0.0
H1889 H 0.23584 0.10834 0.789 0.0
H1890 H 0.14998 0.70432 0.06133 0.0
H1891 H 0.14877 0.727 0.1133 0.0
H1892 H 0.19193 0.73309 0.07601 0.0
H1893 H 0.1932 0.71059 1.02338 0.0
H1894 H 0.18591 0.74062 0.1988 0.0
H1895 H 0.1663 0.74932 0.98439 0.0
H1896 H 0.14994 0.74579 0.89296 0.0
H1897 H 0.11622 0.75529 1.021 0.0
H1898 H 0.13236 0.7587 0.11347 0.0
H1899 H 0.19297 0.81163 0.25924 0.0
H1900 H 0.19189 0.78906 0.20732 0.0
H1901 H 0.14846 0.7869 0.24766 0.0
H1902 H 0.14934 0.8098 0.29759 0.0
H1903 H 0.1533 0.77697 0.12783 0.0
H1904 H 0.17214 0.76883 0.3408 0.0
H1905 H 0.18789 0.77216 0.43474 0.0
H1906 H 0.22224 0.7611 0.31349 0.0
H1907 H 0.2067 0.75789 0.21852 0.0
C1908 C 0.1592 0.71052 0.06341 0.0
C1909 C 0.1717 0.70547 0.03796 0.0
C1910 C 0.15849 0.72354 0.09338 0.0
C1911 C 0.17024 0.73191 0.09842 0.0
C1912 C 0.18271 0.72688 0.07319 0.0
C1913 C 0.18343 0.71391 0.04323 0.0
C1914 C 0.16971 0.74578 0.13076 0.0
C1915 C 0.17889 0.74861 0.18259 0.0
C1916 C 0.16024 0.75614 0.11157 0.0
C1917 C 0.15053 0.75412 0.05601 0.0
C1918 C 0.15538 0.75055 0.99318 0.0
C1919 C 0.14615 0.74859 0.94115 0.0
C1920 C 0.13205 0.75028 0.95121 0.0
C1921 C 0.12714 0.75396 1.0133 0.0
C1922 C 0.13633 0.75592 0.06553 0.0
C1923 C 0.18312 0.8065 0.25648 0.0
C1924 C 0.17125 0.81267 0.28304 0.0
C1925 C 0.18255 0.79344 0.22729 0.0
C1926 C 0.17013 0.78606 0.22422 0.0
C1927 C 0.1582 0.79228 0.24954 0.0
C1928 C 0.15876 0.80537 0.27875 0.0
C1929 C 0.16969 0.77188 0.19505 0.0
C1930 C 0.16031 0.76897 0.14409 0.0
C1931 C 0.17889 0.76137 0.21538 0.0
C1932 C 0.18827 0.76324 0.2724 0.0
C1933 C 0.18306 0.76721 0.33404 0.0
C1934 C 0.19195 0.76906 0.38749 0.0
C1935 C 0.20606 0.76688 0.38005 0.0
C1936 C 0.21131 0.7628 0.31916 0.0
C1937 C 0.20246 0.76095 0.26552 0.0
H1938 H 0.21292 0.76832 0.42149 0.0
H1939 H 0.12492 0.74876 0.91086 0.0
H1940 H 0.70243 0.86754 0.97949 0.0
H1941 H 0.72522 0.86904 0.92926 0.0
H1942 H 0.73649 0.83041 1.01819 0.0
H1943 H 0.71398 0.8291 0.07047 0.0
H1944 H 0.75721 0.84796 1.02854 0.0
H1945 H 0.72711 0.83351 0.85205 0.0
H1946 H 0.70698 0.83556 0.77857 0.0
H1947 H 0.72189 0.87433 0.7079 0.0
H1948 H 0.74203 0.8726 0.78167 0.0
H1949 H 0.81495 0.8286 0.83916 0.0
H1950 H 0.79244 0.83024 0.89126 0.0
H1951 H 0.78495 0.86868 0.79213 0.0
H1952 H 0.80735 0.86689 0.73797 0.0
H1953 H 0.7624 0.85321 0.78723 0.0
H1954 H 0.79286 0.86753 0.95772 0.0
H1955 H 0.8129 0.86624 1.03207 0.0
H1956 H 0.79735 0.82882 0.11518 0.0
H1957 H 0.7773 0.82978 0.04064 0.0
C1958 C 0.70978 0.85942 0.98897 0.0
C1959 C 0.70622 0.84814 1.02891 0.0
C1960 C 0.72281 0.86022 0.95956 0.0
C1961 C 0.73261 0.84974 0.96895 0.0
C1962 C 0.72916 0.83862 1.00971 0.0
C1963 C 0.71617 0.83781 0.03914 0.0
C1964 C 0.74644 0.85026 0.93652 0.0
C1965 C 0.75831 0.84895 0.97567 0.0
C1966 C 0.74802 0.85201 0.86768 0.0
C1967 C 0.736 0.85299 0.82285 0.0
C1968 C 0.72605 0.84251 0.82115 0.0
C1969 C 0.71465 0.84362 0.77942 0.0
C1970 C 0.71314 0.85509 0.73873 0.0
C1971 C 0.72306 0.86546 0.73953 0.0
C1972 C 0.73447 0.86442 0.78125 0.0
C1973 C 0.80852 0.83738 0.82789 0.0
C1974 C 0.81308 0.8476 0.78403 0.0
C1975 C 0.79565 0.83838 0.85843 0.0
C1976 C 0.78695 0.84968 0.84649 0.0
C1977 C 0.79143 0.85988 0.80254 0.0
C1978 C 0.80433 0.8589 0.77197 0.0
C1979 C 0.77317 0.85067 0.87918 0.0
C1980 C 0.76131 0.85228 0.84013 0.0
C1981 C 0.7716 0.84929 0.9482 0.0
C1982 C 0.78364 0.84866 0.99313 0.0
C1983 C 0.79377 0.85896 0.99147 0.0
C1984 C 0.80512 0.8583 1.03372 0.0
C1985 C 0.80641 0.84744 0.07821 0.0
C1986 C 0.79634 0.83723 0.08064 0.0
C1987 C 0.78497 0.83783 0.03844 0.0
H1988 H 0.81521 0.84695 0.11089 0.0
H1989 H 0.7043 0.85592 0.70647 0.0
H1990 H 0.82667 0.30714 1.00808 0.0
H1991 H 0.82767 0.28472 0.0614 0.0
H1992 H 0.86959 0.29239 0.12007 0.0
H1993 H 0.86863 0.315 0.06722 0.0
H1994 H 0.86701 0.2664 0.07752 0.0
H1995 H 0.84312 0.2946 0.23136 0.0
H1996 H 0.82547 0.31097 0.26919 0.0
H1997 H 0.79368 0.28245 0.21573 0.0
H1998 H 0.81114 0.26597 0.17669 0.0
H1999 H 0.86937 0.21006 0.30477 0.0
H2000 H 0.86999 0.23286 0.25424 0.0
H2001 H 0.82789 0.2281 0.19143 0.0
H2002 H 0.82703 0.20552 0.24369 0.0
H2003 H 0.83148 0.25308 0.2398 0.0
H2004 H 0.85593 0.22503 0.0837 0.0
H2005 H 0.87394 0.20893 0.047 0.0
H2006 H 0.90517 0.23746 0.10759 0.0
H2007 H 0.88733 0.25366 0.14547 0.0
C2008 C 0.83608 0.3042 1.03292 0.0
C2009 C 0.84752 0.31309 1.03356 0.0
C2010 C 0.83665 0.29128 0.06339 0.0
C2011 C 0.84865 0.28682 0.09587 0.0
C2012 C 0.86019 0.29552 0.09553 0.0
C2013 C 0.85963 0.30848 0.06499 0.0
C2014 C 0.84905 0.27314 0.13015 0.0
C2015 C 0.85934 0.26358 0.11371 0.0
C2016 C 0.83898 0.26925 0.17686 0.0
C2017 C 0.82844 0.2791 0.20053 0.0
C2018 C 0.83236 0.29186 0.22721 0.0
C2019 C 0.82239 0.30115 0.24894 0.0
C2020 C 0.80846 0.29777 0.24471 0.0
C2021 C 0.80447 0.28506 0.2189 0.0
C2022 C 0.8144 0.27574 0.19701 0.0
C2023 C 0.86019 0.21386 0.2806 0.0
C2024 C 0.84816 0.20579 0.27845 0.0
C2025 C 0.86061 0.22691 0.25099 0.0
C2026 C 0.84903 0.23227 0.21804 0.0
C2027 C 0.837 0.22427 0.21616 0.0
C2028 C 0.83657 0.21124 0.24568 0.0
C2029 C 0.84932 0.24624 0.18653 0.0
C2030 C 0.83916 0.25589 0.20367 0.0
C2031 C 0.85957 0.25022 0.14079 0.0
C2032 C 0.8703 0.24049 0.11806 0.0
C2033 C 0.86664 0.22782 0.08969 0.0
C2034 C 0.87682 0.21869 0.06858 0.0
C2035 C 0.89069 0.22215 0.07513 0.0
C2036 C 0.89442 0.23478 0.10265 0.0
C2037 C 0.88428 0.24395 0.1239 0.0
H2038 H 0.89856 0.21507 0.05874 0.0
H2039 H 0.80075 0.30498 0.26156 0.0
H2040 H 0.30083 0.33939 0.20176 0.0
H2041 H 0.27855 0.34065 0.25613 0.0
H2042 H 0.29774 0.35857 0.42732 0.0
H2043 H 0.32022 0.35686 0.37404 0.0
H2044 H 0.27993 0.33984 0.46509 0.0
H2045 H 0.27777 0.3779 0.31859 0.0
H2046 H 0.27938 0.3902 0.21293 0.0
H2047 H 0.24757 0.36468 0.13179 0.0
H2048 H 0.2459 0.35209 0.23674 0.0
H2049 H 0.21583 0.35708 0.61524 0.0
H2050 H 0.23843 0.35891 0.5634 0.0
H2051 H 0.22262 0.33902 0.38939 0.0
H2052 H 0.19991 0.33748 0.44018 0.0
H2053 H 0.239 0.36023 0.35632 0.0
H2054 H 0.2423 0.32157 0.50409 0.0
H2055 H 0.24076 0.30992 0.61151 0.0
H2056 H 0.27067 0.33771 0.69222 0.0
H2057 H 0.27224 0.34964 0.58544 0.0
C2058 C 0.30039 0.34353 0.25117 0.0
C2059 C 0.31246 0.34798 0.2833 0.0
C2060 C 0.28754 0.3444 0.28205 0.0
C2061 C 0.28631 0.34987 0.34583 0.0
C2062 C 0.29832 0.35435 0.37809 0.0
C2063 C 0.3112 0.35347 0.3472 0.0
C2064 C 0.27257 0.35055 0.37922 0.0
C2065 C 0.27106 0.34451 0.44161 0.0
C2066 C 0.26082 0.35644 0.34865 0.0
C2067 C 0.2618 0.36397 0.28538 0.0
C2068 C 0.27119 0.37484 0.27806 0.0
C2069 C 0.2721 0.38188 0.21832 0.0
C2070 C 0.2636 0.3782 0.16563 0.0
C2071 C 0.25416 0.3675 0.17263 0.0
C2072 C 0.25321 0.36042 0.23225 0.0
C2073 C 0.21709 0.35322 0.56565 0.0
C2074 C 0.20596 0.34705 0.53226 0.0
C2075 C 0.2301 0.35416 0.5362 0.0
C2076 C 0.23237 0.34894 0.47257 0.0
C2077 C 0.22122 0.34308 0.43854 0.0
C2078 C 0.20823 0.34209 0.46801 0.0
C2079 C 0.24636 0.34938 0.4417 0.0
C2080 C 0.24791 0.35562 0.37982 0.0
C2081 C 0.25817 0.34378 0.47293 0.0
C2082 C 0.25728 0.33658 0.537 0.0
C2083 C 0.24847 0.32525 0.54489 0.0
C2084 C 0.24761 0.31859 0.60563 0.0
C2085 C 0.25558 0.32309 0.65871 0.0
C2086 C 0.26448 0.33424 0.65109 0.0
C2087 C 0.26537 0.34095 0.59047 0.0
H2088 H 0.2549 0.31792 0.7057 0.0
H2089 H 0.26432 0.38367 0.11942 0.0
H2090 H 0.34563 0.69837 0.68438 0.0
H2091 H 0.34685 0.7211 0.63362 0.0
H2092 H 0.35188 0.73959 0.82498 0.0
H2093 H 0.35027 0.71692 0.87627 0.0
H2094 H 0.33387 0.75394 0.75535 0.0
H2095 H 0.37901 0.73659 0.71574 0.0
H2096 H 0.39656 0.72015 0.67748 0.0
H2097 H 0.38132 0.72374 0.47974 0.0
H2098 H 0.36355 0.74006 0.51697 0.0
H2099 H 0.35156 0.82048 0.63661 0.0
H2100 H 0.35256 0.79797 0.68985 0.0
H2101 H 0.34624 0.77821 0.50235 0.0
H2102 H 0.34508 0.80066 0.44877 0.0
H2103 H 0.36563 0.76477 0.57224 0.0
H2104 H 0.31996 0.78164 0.61426 0.0
H2105 H 0.30284 0.79844 0.65349 0.0
H2106 H 0.31969 0.79594 0.84865 0.0
H2107 H 0.33703 0.77925 0.81034 0.0
C2108 C 0.34694 0.70726 0.71585 0.0
C2109 C 0.34785 0.70571 0.78466 0.0
C2110 C 0.34778 0.72029 0.68658 0.0
C2111 C 0.34961 0.73216 0.7252 0.0
C2112 C 0.35052 0.73065 0.79387 0.0
C2113 C 0.34971 0.71762 0.82317 0.0
C2114 C 0.35015 0.74613 0.69422 0.0
C2115 C 0.34098 0.75633 0.716 0.0
C2116 C 0.35921 0.74931 0.64185 0.0
C2117 C 0.36985 0.73944 0.61929 0.0
C2118 C 0.37932 0.73378 0.66419 0.0
C2119 C 0.38932 0.7245 0.64267 0.0
C2120 C 0.39003 0.72087 0.57626 0.0
C2121 C 0.38075 0.72654 0.53119 0.0
C2122 C 0.37071 0.73582 0.55247 0.0
C2123 C 0.35028 0.81137 0.60657 0.0
C2124 C 0.34816 0.81251 0.53815 0.0
C2125 C 0.35089 0.79846 0.6372 0.0
C2126 C 0.34932 0.7863 0.60042 0.0
C2127 C 0.34751 0.78738 0.532 0.0
C2128 C 0.34689 0.80028 0.50131 0.0
C2129 C 0.34931 0.77251 0.63322 0.0
C2130 C 0.35856 0.76235 0.61174 0.0
C2131 C 0.34036 0.76937 0.68604 0.0
C2132 C 0.32987 0.7793 0.70929 0.0
C2133 C 0.32007 0.78474 0.66544 0.0
C2134 C 0.31032 0.79424 0.68752 0.0
C2135 C 0.3102 0.79828 0.75348 0.0
C2136 C 0.31981 0.79281 0.79755 0.0
C2137 C 0.32959 0.78332 0.77569 0.0
H2138 H 0.30265 0.80564 0.77049 0.0
H2139 H 0.39779 0.71369 0.55968 0.0
H2140 H 0.71617 0.66454 0.19429 0.0
H2141 H 0.73889 0.6633 0.24583 0.0
H2142 H 0.72091 0.67274 0.43414 0.0
H2143 H 0.69816 0.67402 0.38288 0.0
H2144 H 0.74311 0.68757 0.41822 0.0
H2145 H 0.73272 0.63974 0.39218 0.0
H2146 H 0.72603 0.61872 0.33231 0.0
H2147 H 0.76122 0.62282 0.20691 0.0
H2148 H 0.76802 0.64397 0.2655 0.0
H2149 H 0.80131 0.67301 0.61616 0.0
H2150 H 0.77865 0.672 0.56454 0.0
H2151 H 0.79745 0.66379 0.37682 0.0
H2152 H 0.8202 0.66424 0.42866 0.0
H2153 H 0.77499 0.64814 0.39162 0.0
H2154 H 0.78517 0.69609 0.41737 0.0
H2155 H 0.7919 0.717 0.478 0.0
H2156 H 0.75693 0.71253 0.60453 0.0
H2157 H 0.7501 0.69147 0.54518 0.0
C2158 C 0.71699 0.66617 0.24685 0.0
C2159 C 0.70524 0.66938 0.28424 0.0
C2160 C 0.73005 0.66546 0.27637 0.0
C2161 C 0.73171 0.66779 0.34426 0.0
C2162 C 0.71998 0.67093 0.38173 0.0
C2163 C 0.70694 0.67169 0.35221 0.0
C2164 C 0.74566 0.66744 0.37589 0.0
C2165 C 0.74997 0.67884 0.4131 0.0
C2166 C 0.75487 0.65623 0.36813 0.0
C2167 C 0.7508 0.64352 0.33281 0.0
C2168 C 0.73897 0.63622 0.3515 0.0
C2169 C 0.73517 0.62427 0.31785 0.0
C2170 C 0.74317 0.61946 0.26572 0.0
C2171 C 0.75501 0.62657 0.24724 0.0
C2172 C 0.75886 0.63853 0.28068 0.0
C2173 C 0.80068 0.67079 0.56405 0.0
C2174 C 0.81271 0.66875 0.52681 0.0
C2175 C 0.78766 0.67037 0.53434 0.0
C2176 C 0.78625 0.66803 0.46638 0.0
C2177 C 0.7982 0.66569 0.42922 0.0
C2178 C 0.81125 0.66608 0.45895 0.0
C2179 C 0.77237 0.66824 0.43413 0.0
C2180 C 0.76809 0.65685 0.39674 0.0
C2181 C 0.76316 0.67944 0.44172 0.0
C2182 C 0.7672 0.69214 0.47722 0.0
C2183 C 0.77897 0.69952 0.45841 0.0
C2184 C 0.7828 0.7114 0.49251 0.0
C2185 C 0.77487 0.71607 0.54519 0.0
C2186 C 0.76307 0.70889 0.56377 0.0
C2187 C 0.75921 0.69699 0.52988 0.0
H2188 H 0.77784 0.72528 0.57152 0.0
H2189 H 0.74021 0.6102 0.23975 0.0
H2190 H 0.68915 0.20379 0.58868 0.0
H2191 H 0.68809 0.22629 0.6416 0.0
H2192 H 0.64808 0.23331 0.55575 0.0
H2193 H 0.64913 0.21078 0.50219 0.0
H2194 H 0.66291 0.25588 0.54591 0.0
H2195 H 0.65229 0.22524 0.72134 0.0
H2196 H 0.65559 0.20513 0.79342 0.0
H2197 H 0.69401 0.22163 0.86149 0.0
H2198 H 0.69105 0.24175 0.78902 0.0
H2199 H 0.65034 0.31555 0.7429 0.0
H2200 H 0.64864 0.29272 0.693 0.0
H2201 H 0.68887 0.28252 0.76829 0.0
H2202 H 0.6904 0.30505 0.82055 0.0
H2203 H 0.67213 0.26142 0.78458 0.0
H2204 H 0.68282 0.29165 0.60322 0.0
H2205 H 0.6791 0.31154 0.53014 0.0
H2206 H 0.6396 0.29563 0.47406 0.0
H2207 H 0.64301 0.27572 0.54747 0.0
C2208 C 0.68004 0.21002 0.58159 0.0
C2209 C 0.6692 0.20536 0.54132 0.0
C2210 C 0.67944 0.22295 0.61194 0.0
C2211 C 0.66791 0.23152 0.60365 0.0
C2212 C 0.6571 0.22695 0.56309 0.0
C2213 C 0.65773 0.21404 0.53236 0.0
C2214 C 0.66726 0.24528 0.63662 0.0
C2215 C 0.66472 0.25704 0.59831 0.0
C2216 C 0.66977 0.24694 0.70493 0.0
C2217 C 0.6715 0.23495 0.74931 0.0
C2218 C 0.66149 0.22454 0.75137 0.0
C2219 C 0.66329 0.21314 0.79233 0.0
C2220 C 0.67502 0.21209 0.83189 0.0
C2221 C 0.68494 0.22246 0.83076 0.0
C2222 C 0.6832 0.23387 0.7898 0.0
C2223 C 0.65878 0.30842 0.74948 0.0
C2224 C 0.67055 0.31228 0.78566 0.0
C2225 C 0.65786 0.29538 0.72021 0.0
C2226 C 0.66871 0.28587 0.72588 0.0
C2227 C 0.68036 0.28962 0.76276 0.0
C2228 C 0.68129 0.30263 0.79214 0.0
C2229 C 0.66801 0.27203 0.69369 0.0
C2230 C 0.67027 0.26024 0.73224 0.0
C2231 C 0.66514 0.27035 0.6257 0.0
C2232 C 0.66311 0.28228 0.58134 0.0
C2233 C 0.6733 0.29245 0.57565 0.0
C2234 C 0.67125 0.30371 0.53412 0.0
C2235 C 0.65911 0.30487 0.49762 0.0
C2236 C 0.649 0.29474 0.50244 0.0
C2237 C 0.65098 0.28345 0.54396 0.0
H2238 H 0.65754 0.3136 0.46549 0.0
H2239 H 0.6764 0.20325 0.86351 0.0
H2240 H 0.38505 0.15662 0.40339 0.0
H2241 H 0.38499 0.15511 0.52347 0.0
H2242 H 0.42774 0.16697 0.52804 0.0
H2243 H 0.42802 0.16742 0.40768 0.0
H2244 H 0.42525 0.14896 0.6132 0.0
H2245 H 0.39689 0.1891 0.57155 0.0
H2246 H 0.37731 0.20159 0.52228 0.0
H2247 H 0.3491 0.17388 0.61538 0.0
H2248 H 0.36852 0.16116 0.66462 0.0
H2249 H 0.42897 0.16249 0.95756 0.0
H2250 H 0.42887 0.16369 0.83743 0.0
H2251 H 0.38604 0.15211 0.83488 0.0
H2252 H 0.38592 0.15197 0.95525 0.0
H2253 H 0.38844 0.16979 0.74863 0.0
H2254 H 0.4165 0.12968 0.79062 0.0
H2255 H 0.43594 0.11692 0.83964 0.0
H2256 H 0.46449 0.14416 0.74576 0.0
H2257 H 0.44523 0.15716 0.69678 0.0
C2258 C 0.3944 0.15902 0.4301 0.0
C2259 C 0.40651 0.16226 0.39579 0.0
C2260 C 0.39435 0.15825 0.49919 0.0
C2261 C 0.40627 0.16125 0.53625 0.0
C2262 C 0.41835 0.1646 0.5016 0.0
C2263 C 0.4185 0.16494 0.43248 0.0
C2264 C 0.40637 0.16056 0.61055 0.0
C2265 C 0.41726 0.15371 0.64259 0.0
C2266 C 0.39582 0.16633 0.65013 0.0
C2267 C 0.38416 0.17413 0.62132 0.0
C2268 C 0.38651 0.18565 0.58129 0.0
C2269 C 0.37544 0.19277 0.55338 0.0
C2270 C 0.36197 0.18851 0.56557 0.0
C2271 C 0.35954 0.17716 0.60592 0.0
C2272 C 0.37057 0.17001 0.63391 0.0
C2273 C 0.41956 0.16008 0.93131 0.0
C2274 C 0.40748 0.15702 0.96619 0.0
C2275 C 0.41952 0.16067 0.86217 0.0
C2276 C 0.40752 0.15766 0.82565 0.0
C2277 C 0.39548 0.15448 0.86087 0.0
C2278 C 0.39542 0.15432 0.93002 0.0
C2279 C 0.40734 0.15822 0.75132 0.0
C2280 C 0.39643 0.16503 0.71927 0.0
C2281 C 0.41785 0.15239 0.71172 0.0
C2282 C 0.42942 0.14445 0.74049 0.0
C2283 C 0.42693 0.13298 0.78068 0.0
C2284 C 0.43791 0.1257 0.80844 0.0
C2285 C 0.45144 0.12975 0.79594 0.0
C2286 C 0.45401 0.14104 0.75546 0.0
C2287 C 0.44307 0.14836 0.72762 0.0
H2288 H 0.45992 0.12411 0.81754 0.0
H2289 H 0.35342 0.19402 0.54385 0.0
H2290 H 0.14785 0.59413 0.66773 0.0
H2291 H 0.14741 0.59418 0.54799 0.0
H2292 H 0.17435 0.62933 0.54599 0.0
H2293 H 0.17453 0.62958 0.66674 0.0
H2294 H 0.15532 0.63258 0.45511 0.0
H2295 H 0.18555 0.59526 0.51008 0.0
H2296 H 0.1924 0.57376 0.56544 0.0
H2297 H 0.15908 0.55242 0.47134 0.0
H2298 H 0.15193 0.57385 0.41605 0.0
H2299 H 0.17287 0.62826 0.11748 0.0
H2300 H 0.17307 0.6284 0.2372 0.0
H2301 H 0.14644 0.59302 0.2392 0.0
H2302 H 0.14652 0.59257 0.11848 0.0
H2303 H 0.16525 0.58993 0.33013 0.0
H2304 H 0.13504 0.62718 0.27473 0.0
H2305 H 0.12816 0.64865 0.21922 0.0
H2306 H 0.16133 0.67011 0.31392 0.0
H2307 H 0.16851 0.64872 0.36937 0.0
C2308 C 0.15375 0.60188 0.64219 0.0
C2309 C 0.16133 0.6118 0.67763 0.0
C2310 C 0.15353 0.60185 0.57318 0.0
C2311 C 0.16106 0.61158 0.53704 0.0
C2312 C 0.16848 0.62164 0.5722 0.0
C2313 C 0.16861 0.62175 0.64152 0.0
C2314 C 0.16106 0.61127 0.46293 0.0
C2315 C 0.1577 0.62329 0.42793 0.0
C2316 C 0.16379 0.5991 0.4266 0.0
C2317 C 0.16814 0.58618 0.45938 0.0
C2318 C 0.17964 0.586 0.50151 0.0
C2319 C 0.18358 0.57383 0.53284 0.0
C2320 C 0.17616 0.56174 0.52204 0.0
C2321 C 0.16481 0.5618 0.47972 0.0
C2322 C 0.16081 0.57395 0.44832 0.0
C2323 C 0.16698 0.62049 0.14302 0.0
C2324 C 0.15959 0.61044 0.10759 0.0
C2325 C 0.16706 0.62065 0.21203 0.0
C2326 C 0.15955 0.6109 0.24815 0.0
C2327 C 0.15229 0.60072 0.213 0.0
C2328 C 0.15231 0.60049 0.1437 0.0
C2329 C 0.1595 0.61123 0.32226 0.0
C2330 C 0.16286 0.59923 0.35728 0.0
C2331 C 0.15676 0.62341 0.35858 0.0
C2332 C 0.15238 0.63632 0.32575 0.0
C2333 C 0.14092 0.63646 0.28341 0.0
C2334 C 0.13696 0.64862 0.25199 0.0
C2335 C 0.14432 0.66073 0.26291 0.0
C2336 C 0.15564 0.66072 0.30545 0.0
C2337 C 0.15965 0.64858 0.33694 0.0
H2338 H 0.14125 0.67013 0.23851 0.0
H2339 H 0.17922 0.55233 0.54636 0.0
H2340 H 0.59039 0.85201 0.3993 0.0
H2341 H 0.59033 0.85223 0.51957 0.0
H2342 H 0.63395 0.8603 0.52037 0.0
H2343 H 0.63414 0.85912 0.39987 0.0
H2344 H 0.62933 0.84461 0.61635 0.0
H2345 H 0.60611 0.88547 0.54293 0.0
H2346 H 0.58838 0.89812 0.48067 0.0
H2347 H 0.55671 0.87879 0.59412 0.0
H2348 H 0.5742 0.8655 0.65504 0.0
H2349 H 0.63313 0.86504 0.95099 0.0
H2350 H 0.63339 0.86491 0.83091 0.0
H2351 H 0.5898 0.85671 0.82819 0.0
H2352 H 0.5894 0.85768 0.94865 0.0
H2353 H 0.59459 0.87274 0.73323 0.0
H2354 H 0.61763 0.83097 0.80128 0.0
H2355 H 0.63524 0.81751 0.86072 0.0
H2356 H 0.66718 0.83907 0.75843 0.0
H2357 H 0.64976 0.85274 0.69891 0.0
C2358 C 0.6 0.85373 0.42514 0.0
C2359 C 0.61227 0.8556 0.38976 0.0
C2360 C 0.59994 0.85399 0.49425 0.0
C2361 C 0.61206 0.85672 0.53016 0.0
C2362 C 0.6244 0.85825 0.49466 0.0
C2363 C 0.62452 0.85758 0.42548 0.0
C2364 C 0.6119 0.85805 0.60422 0.0
C2365 C 0.62182 0.85093 0.64158 0.0
C2366 C 0.60197 0.86605 0.63842 0.0
C2367 C 0.59148 0.87439 0.60323 0.0
C2368 C 0.59536 0.88386 0.55444 0.0
C2369 C 0.58535 0.89114 0.51933 0.0
C2370 C 0.57144 0.88933 0.53368 0.0
C2371 C 0.56749 0.88019 0.58307 0.0
C2372 C 0.57745 0.87273 0.61772 0.0
C2373 C 0.62357 0.86327 0.92487 0.0
C2374 C 0.61125 0.86128 0.95977 0.0
C2375 C 0.62375 0.86306 0.8558 0.0
C2376 C 0.6117 0.86036 0.81937 0.0
C2377 C 0.59931 0.85873 0.85435 0.0
C2378 C 0.59907 0.85928 0.92352 0.0
C2379 C 0.61196 0.85924 0.74527 0.0
C2380 C 0.6021 0.86643 0.70792 0.0
C2381 C 0.62194 0.85132 0.71102 0.0
C2382 C 0.63239 0.84295 0.74607 0.0
C2383 C 0.62841 0.83287 0.79168 0.0
C2384 C 0.63836 0.8252 0.82537 0.0
C2385 C 0.65232 0.82746 0.81347 0.0
C2386 C 0.65636 0.83734 0.76765 0.0
C2387 C 0.64646 0.84504 0.73387 0.0
H2388 H 0.66 0.82153 0.83966 0.0
H2389 H 0.56371 0.895 0.50647 0.0
H2390 H 0.84978 0.38775 0.11517 0.0
H2391 H 0.84967 0.38794 0.23558 0.0
H2392 H 0.8722 0.42601 0.23573 0.0
H2393 H 0.87229 0.426 0.11513 0.0
H2394 H 0.87372 0.38959 0.32741 0.0
H2395 H 0.86013 0.44298 0.31721 0.0
H2396 H 0.84574 0.45989 0.25778 0.0
H2397 H 0.81211 0.43131 0.25538 0.0
H2398 H 0.82642 0.4142 0.3139 0.0
H2399 H 0.86454 0.4278 0.66474 0.0
H2400 H 0.86552 0.4279 0.5446 0.0
H2401 H 0.85224 0.38567 0.54048 0.0
H2402 H 0.85132 0.38543 0.66083 0.0
H2403 H 0.84663 0.42445 0.44959 0.0
H2404 H 0.86692 0.36912 0.41029 0.0
H2405 H 0.88129 0.35198 0.46785 0.0
H2406 H 0.9024 0.38428 0.57064 0.0
H2407 H 0.88829 0.40161 0.51314 0.0
C2408 C 0.85476 0.39619 0.14055 0.0
C2409 C 0.86103 0.40689 0.10483 0.0
C2410 C 0.85467 0.39626 0.20966 0.0
C2411 C 0.86078 0.40705 0.24504 0.0
C2412 C 0.86721 0.41767 0.20973 0.0
C2413 C 0.86732 0.41761 0.14055 0.0
C2414 C 0.86044 0.40719 0.31872 0.0
C2415 C 0.86773 0.39715 0.35418 0.0
C2416 C 0.85285 0.41714 0.35406 0.0
C2417 C 0.8443 0.42738 0.31949 0.0
C2418 C 0.84966 0.44034 0.30385 0.0
C2419 C 0.84155 0.44993 0.27022 0.0
C2420 C 0.82802 0.44667 0.25278 0.0
C2421 C 0.82259 0.43381 0.26881 0.0
C2422 C 0.8307 0.42416 0.30198 0.0
C2423 C 0.86181 0.4185 0.63851 0.0
C2424 C 0.85788 0.40658 0.6731 0.0
C2425 C 0.86234 0.4186 0.56946 0.0
C2426 C 0.85909 0.40677 0.53286 0.0
C2427 C 0.85501 0.3949 0.56719 0.0
C2428 C 0.85442 0.3948 0.63629 0.0
C2429 C 0.86001 0.40686 0.45907 0.0
C2430 C 0.85273 0.41691 0.42333 0.0
C2431 C 0.86777 0.39696 0.42365 0.0
C2432 C 0.87644 0.38664 0.45787 0.0
C2433 C 0.87466 0.37256 0.445 0.0
C2434 C 0.88276 0.36281 0.47766 0.0
C2435 C 0.89272 0.36704 0.52303 0.0
C2436 C 0.89465 0.38102 0.53568 0.0
C2437 C 0.88659 0.3908 0.50314 0.0
H2438 H 0.89897 0.35948 0.54829 0.0
H2439 H 0.82174 0.45412 0.2269 0.0
H2440 H 0.38561 0.35379 0.36664 0.0
H2441 H 0.38551 0.35375 0.48654 0.0
H2442 H 0.42814 0.36585 0.48863 0.0
H2443 H 0.42824 0.36622 0.36811 0.0
H2444 H 0.39823 0.33918 0.57474 0.0
H2445 H 0.43568 0.38391 0.62802 0.0
H2446 H 0.44322 0.40569 0.57765 0.0
H2447 H 0.4046 0.4091 0.47592 0.0
H2448 H 0.39677 0.38745 0.52632 0.0
H2449 H 0.42734 0.36372 0.91653 0.0
H2450 H 0.42728 0.36397 0.79662 0.0
H2451 H 0.38466 0.3518 0.79545 0.0
H2452 H 0.38475 0.35119 0.91593 0.0
H2453 H 0.41446 0.37856 0.70886 0.0
H2454 H 0.37689 0.33403 0.65594 0.0
H2455 H 0.36921 0.31232 0.70653 0.0
H2456 H 0.40788 0.30859 0.80751 0.0
H2457 H 0.41586 0.33017 0.75688 0.0
C2458 C 0.39499 0.35652 0.39229 0.0
C2459 C 0.40694 0.36006 0.35699 0.0
C2460 C 0.39492 0.35644 0.46131 0.0
C2461 C 0.40676 0.35991 0.49749 0.0
C2462 C 0.41875 0.36338 0.46245 0.0
C2463 C 0.41882 0.36353 0.3932 0.0
C2464 C 0.40651 0.35969 0.57153 0.0
C2465 C 0.40162 0.34789 0.60388 0.0
C2466 C 0.41118 0.37087 0.61044 0.0
C2467 C 0.41571 0.38398 0.58041 0.0
C2468 C 0.42879 0.38934 0.59507 0.0
C2469 C 0.43311 0.40165 0.56649 0.0
C2470 C 0.42442 0.40875 0.52343 0.0
C2471 C 0.41135 0.40357 0.50907 0.0
C2472 C 0.40697 0.39127 0.53757 0.0
C2473 C 0.41793 0.36101 0.89107 0.0
C2474 C 0.40606 0.35736 0.9266 0.0
C2475 C 0.41791 0.36122 0.82205 0.0
C2476 C 0.40603 0.35778 0.78611 0.0
C2477 C 0.39409 0.35424 0.82141 0.0
C2478 C 0.39413 0.35394 0.89064 0.0
C2479 C 0.40619 0.35805 0.71206 0.0
C2480 C 0.41107 0.36985 0.67971 0.0
C2481 C 0.4015 0.34688 0.67314 0.0
C2482 C 0.3969 0.33379 0.70314 0.0
C2483 C 0.38377 0.32854 0.68875 0.0
C2484 C 0.37936 0.31627 0.71746 0.0
C2485 C 0.38803 0.30911 0.76038 0.0
C2486 C 0.40116 0.31418 0.77446 0.0
C2487 C 0.40562 0.32643 0.74582 0.0
H2488 H 0.3846 0.29962 0.78261 0.0
H2489 H 0.42779 0.41827 0.50131 0.0
H2490 H 0.33793 0.6229 0.15266 0.0
H2491 H 0.33817 0.62255 0.2732 0.0
H2492 H 0.37757 0.60209 0.27045 0.0
H2493 H 0.37684 0.60162 0.15038 0.0
H2494 H 0.36459 0.59118 0.3608 0.0
H2495 H 0.37096 0.63924 0.31079 0.0
H2496 H 0.36504 0.66154 0.26041 0.0
H2497 H 0.32659 0.66189 0.36361 0.0
H2498 H 0.33222 0.63952 0.41404 0.0
H2499 H 0.37921 0.6004 0.70319 0.0
H2500 H 0.37948 0.60104 0.58271 0.0
H2501 H 0.33991 0.62117 0.58273 0.0
H2502 H 0.34013 0.62137 0.70285 0.0
H2503 H 0.35331 0.63234 0.49374 0.0
H2504 H 0.3472 0.58389 0.54294 0.0
H2505 H 0.35359 0.56171 0.5934 0.0
H2506 H 0.39219 0.56233 0.49154 0.0
H2507 H 0.38608 0.58457 0.44102 0.0
C2508 C 0.34665 0.61836 0.17786 0.0
C2509 C 0.35736 0.61229 0.14161 0.0
C2510 C 0.34686 0.61825 0.24716 0.0
C2511 C 0.35805 0.61254 0.28227 0.0
C2512 C 0.36877 0.60656 0.24562 0.0
C2513 C 0.36837 0.60632 0.17655 0.0
C2514 C 0.35855 0.61247 0.35667 0.0
C2515 C 0.36229 0.60028 0.38955 0.0
C2516 C 0.35529 0.62416 0.39559 0.0
C2517 C 0.35196 0.63766 0.36572 0.0
C2518 C 0.36122 0.64405 0.32246 0.0
C2519 C 0.35791 0.6567 0.29393 0.0
C2520 C 0.34543 0.66311 0.30868 0.0
C2521 C 0.33624 0.6569 0.35217 0.0
C2522 C 0.33949 0.64425 0.3808 0.0
C2523 C 0.37056 0.60493 0.67742 0.0
C2524 C 0.35964 0.6108 0.71297 0.0
C2525 C 0.37064 0.6052 0.60812 0.0
C2526 C 0.35955 0.61088 0.57225 0.0
C2527 C 0.34864 0.61671 0.60817 0.0
C2528 C 0.34874 0.61679 0.67728 0.0
C2529 C 0.35929 0.61103 0.49783 0.0
C2530 C 0.3556 0.62324 0.46495 0.0
C2531 C 0.36266 0.59938 0.45889 0.0
C2532 C 0.36623 0.58593 0.48867 0.0
C2533 C 0.35707 0.57931 0.53155 0.0
C2534 C 0.36064 0.56674 0.56014 0.0
C2535 C 0.3733 0.56063 0.54581 0.0
C2536 C 0.38239 0.56707 0.50266 0.0
C2537 C 0.37888 0.57965 0.47398 0.0
H2538 H 0.37605 0.5509 0.56804 0.0
H2539 H 0.34289 0.6729 0.28651 0.0
H2540 H 0.62887 0.67543 0.91097 0.0
H2541 H 0.62835 0.67501 0.7903 0.0
H2542 H 0.59649 0.6443 0.79487 0.0
H2543 H 0.59686 0.64473 0.91522 0.0
H2544 H 0.61638 0.63805 0.70281 0.0
H2545 H 0.58843 0.6768 0.7603 0.0
H2546 H 0.58316 0.69877 0.8153 0.0
H2547 H 0.61611 0.71833 0.7113 0.0
H2548 H 0.62173 0.69641 0.65644 0.0
H2549 H 0.59476 0.64328 0.36512 0.0
H2550 H 0.59517 0.64335 0.48597 0.0
H2551 H 0.6268 0.67432 0.48403 0.0
H2552 H 0.62656 0.67421 0.36381 0.0
H2553 H 0.60685 0.68042 0.57494 0.0
H2554 H 0.63512 0.64203 0.51887 0.0
H2555 H 0.6411 0.62011 0.46518 0.0
H2556 H 0.60819 0.59996 0.56702 0.0
H2557 H 0.60188 0.62184 0.6206 0.0
C2558 C 0.62177 0.66856 0.8864 0.0
C2559 C 0.61287 0.66016 0.92328 0.0
C2560 C 0.62144 0.66836 0.81719 0.0
C2561 C 0.6123 0.65968 0.78297 0.0
C2562 C 0.60363 0.6511 0.81972 0.0
C2563 C 0.60382 0.65141 0.88881 0.0
C2564 C 0.61168 0.65963 0.7091 0.0
C2565 C 0.6141 0.64728 0.67497 0.0
C2566 C 0.609 0.6717 0.67217 0.0
C2567 C 0.6056 0.68492 0.70479 0.0
C2568 C 0.59463 0.68576 0.74958 0.0
C2569 C 0.59157 0.69821 0.78066 0.0
C2570 C 0.59932 0.70993 0.76694 0.0
C2571 C 0.61013 0.70923 0.72196 0.0
C2572 C 0.61326 0.6968 0.69083 0.0
C2573 C 0.60181 0.65011 0.39035 0.0
C2574 C 0.61066 0.65869 0.35422 0.0
C2575 C 0.60207 0.65011 0.45964 0.0
C2576 C 0.61107 0.65881 0.49465 0.0
C2577 C 0.61975 0.66752 0.45862 0.0
C2578 C 0.61963 0.66738 0.38955 0.0
C2579 C 0.61153 0.65882 0.56859 0.0
C2580 C 0.60908 0.67117 0.60275 0.0
C2581 C 0.61423 0.64676 0.60555 0.0
C2582 C 0.61791 0.63361 0.5731 0.0
C2583 C 0.62906 0.63296 0.52929 0.0
C2584 C 0.63253 0.62054 0.49899 0.0
C2585 C 0.625 0.60866 0.51251 0.0
C2586 C 0.614 0.60918 0.55648 0.0
C2587 C 0.61047 0.62159 0.58684 0.0
H2588 H 0.62771 0.59905 0.48906 0.0
H2589 H 0.59694 0.71956 0.791 0.0
H2590 H 0.66898 0.42643 0.7081 0.0
H2591 H 0.6702 0.42599 0.58791 0.0
H2592 H 0.64646 0.38852 0.58527 0.0
H2593 H 0.6464 0.38838 0.70573 0.0
H2594 H 0.66365 0.38551 0.49903 0.0
H2595 H 0.63433 0.42488 0.54023 0.0
H2596 H 0.62844 0.44739 0.58872 0.0
H2597 H 0.66345 0.46563 0.49497 0.0
H2598 H 0.66961 0.44322 0.44649 0.0
H2599 H 0.65012 0.38636 0.1532 0.0
H2600 H 0.64869 0.38666 0.27344 0.0
H2601 H 0.67287 0.42385 0.27804 0.0
H2602 H 0.67317 0.42412 0.15755 0.0
H2603 H 0.65527 0.42692 0.36314 0.0
H2604 H 0.68448 0.38732 0.32172 0.0
H2605 H 0.69011 0.36476 0.27314 0.0
H2606 H 0.65497 0.34686 0.36723 0.0
H2607 H 0.64904 0.36934 0.41573 0.0
C2608 C 0.66392 0.41818 0.68167 0.0
C2609 C 0.65746 0.40752 0.71641 0.0
C2610 C 0.66452 0.41796 0.61253 0.0
C2611 C 0.6581 0.40741 0.57593 0.0
C2612 C 0.65152 0.39683 0.6112 0.0
C2613 C 0.65138 0.39679 0.68035 0.0
C2614 C 0.65858 0.40707 0.50154 0.0
C2615 C 0.66161 0.39458 0.46959 0.0
C2616 C 0.65631 0.41886 0.46173 0.0
C2617 C 0.65248 0.43236 0.49019 0.0
C2618 C 0.64079 0.43369 0.53019 0.0
C2619 C 0.63741 0.44643 0.55765 0.0
C2620 C 0.64559 0.45792 0.54506 0.0
C2621 C 0.65713 0.45672 0.50475 0.0
C2622 C 0.66056 0.44401 0.47719 0.0
C2623 C 0.65522 0.39452 0.18011 0.0
C2624 C 0.66189 0.40513 0.14599 0.0
C2625 C 0.65451 0.39465 0.24923 0.0
C2626 C 0.66098 0.40509 0.28634 0.0
C2627 C 0.66776 0.41563 0.25165 0.0
C2628 C 0.66804 0.41575 0.18253 0.0
C2629 C 0.66038 0.40538 0.36068 0.0
C2630 C 0.65731 0.41786 0.39261 0.0
C2631 C 0.66258 0.39356 0.40044 0.0
C2632 C 0.66627 0.38003 0.3719 0.0
C2633 C 0.67793 0.37858 0.3318 0.0
C2634 C 0.68117 0.36581 0.30429 0.0
C2635 C 0.67288 0.3544 0.31696 0.0
C2636 C 0.66137 0.35572 0.35738 0.0
C2637 C 0.65807 0.36846 0.38495 0.0
H2638 H 0.67541 0.34453 0.29557 0.0
H2639 H 0.64296 0.46777 0.56643 0.0
H2640 H 0.92744 0.67063 0.90177 0.0
H2641 H 0.92735 0.67044 1.02204 0.0
H2642 H 0.8862 0.65385 1.01981 0.0
H2643 H 0.88594 0.65515 0.89937 0.0
H2644 H 0.88708 0.6694 0.1163 0.0
H2645 H 0.9192 0.63419 0.04983 0.0
H2646 H 0.93951 0.62504 0.99186 0.0
H2647 H 0.96557 0.6531 0.09727 0.0
H2648 H 0.9454 0.66251 0.15532 0.0
H2649 H 0.88754 0.64893 0.45176 0.0
H2650 H 0.88733 0.64892 0.33152 0.0
H2651 H 0.92813 0.66631 0.33074 0.0
H2652 H 0.92873 0.66525 0.45118 0.0
H2653 H 0.92718 0.65009 0.23582 0.0
H2654 H 0.89441 0.68516 0.30267 0.0
H2655 H 0.87387 0.69341 0.36186 0.0
H2656 H 0.8487 0.66463 0.25604 0.0
H2657 H 0.86911 0.6561 0.19679 0.0
C2658 C 0.91833 0.66705 0.92704 0.0
C2659 C 0.90671 0.66288 0.8909 0.0
C2660 C 0.91833 0.66676 0.99616 0.0
C2661 C 0.90694 0.66167 1.0313 0.0
C2662 C 0.8952 0.65777 0.99487 0.0
C2663 C 0.89504 0.6585 0.92572 0.0
C2664 C 0.90722 0.66042 0.10546 0.0
C2665 C 0.89582 0.665 0.14206 0.0
C2666 C 0.91864 0.65494 0.14059 0.0
C2667 C 0.93078 0.64912 0.10651 0.0
C2668 C 0.92926 0.63843 0.06045 0.0
C2669 C 0.94074 0.63321 1.02758 0.0
C2670 C 0.95381 0.63851 0.04076 0.0
C2671 C 0.95544 0.64901 0.08705 0.0
C2672 C 0.94399 0.65428 0.12001 0.0
C2673 C 0.89651 0.65266 0.42587 0.0
C2674 C 0.90814 0.65712 0.46121 0.0
C2675 C 0.89633 0.65282 0.35675 0.0
C2676 C 0.90753 0.65806 0.32079 0.0
C2677 C 0.91927 0.66227 0.35638 0.0
C2678 C 0.91963 0.66167 0.42553 0.0
C2679 C 0.9071 0.65913 0.24662 0.0
C2680 C 0.91846 0.65451 0.21001 0.0
C2681 C 0.89561 0.66449 0.21152 0.0
C2682 C 0.8833 0.66993 0.24567 0.0
C2683 C 0.88449 0.68058 0.29212 0.0
C2684 C 0.87288 0.6853 0.32572 0.0
C2685 C 0.86 0.67952 0.31284 0.0
C2686 C 0.85869 0.66908 0.26603 0.0
C2687 C 0.87027 0.66432 0.23236 0.0
H2688 H 0.85103 0.68315 0.33907 0.0
H2689 H 0.96268 0.63447 1.01519 0.0
H2690 H 0.65011 0.13106 0.61288 0.0
H2691 H 0.64995 0.13136 0.73305 0.0
H2692 H 0.66695 0.09037 0.73583 0.0
H2693 H 0.66606 0.08971 0.61529 0.0
H2694 H 0.65045 0.09162 0.82958 0.0
H2695 H 0.68604 0.1238 0.76393 0.0
H2696 H 0.6948 0.14419 0.70542 0.0
H2697 H 0.66631 0.16989 0.8097 0.0
H2698 H 0.65727 0.14963 0.86818 0.0
H2699 H 0.6706 0.09129 0.16436 0.0
H2700 H 0.67048 0.09134 0.04417 0.0
H2701 H 0.65414 0.1326 0.04492 0.0
H2702 H 0.65531 0.13289 0.16544 0.0
H2703 H 0.67 0.13148 0.94943 0.0
H2704 H 0.63426 0.10006 1.01447 0.0
H2705 H 0.62465 0.07999 0.07234 0.0
H2706 H 0.65242 0.05332 0.96919 0.0
H2707 H 0.6623 0.07325 0.91127 0.0
C2708 C 0.65373 0.12207 0.63918 0.0
C2709 C 0.65814 0.11038 0.60437 0.0
C2710 C 0.6538 0.1223 0.70826 0.0
C2711 C 0.65888 0.11107 0.74474 0.0
C2712 C 0.66304 0.09926 0.70972 0.0
C2713 C 0.66254 0.09886 0.64054 0.0
C2714 C 0.65981 0.11154 0.81892 0.0
C2715 C 0.65493 0.10029 0.85547 0.0
C2716 C 0.66521 0.12298 0.85407 0.0
C2717 C 0.67091 0.13518 0.82003 0.0
C2718 C 0.68162 0.13379 0.77423 0.0
C2719 C 0.68663 0.14533 0.74104 0.0
C2720 C 0.68109 0.15832 0.7537 0.0
C2721 C 0.67058 0.15982 0.79985 0.0
C2722 C 0.66552 0.14832 0.83308 0.0
C2723 C 0.66706 0.10041 0.13883 0.0
C2724 C 0.66292 0.11207 0.17461 0.0
C2725 C 0.66684 0.10039 0.06974 0.0
C2726 C 0.66186 0.11181 1.03423 0.0
C2727 C 0.65797 0.12358 0.07023 0.0
C2728 C 0.65863 0.12375 0.13941 0.0
C2729 C 0.66073 0.11152 0.96007 0.0
C2730 C 0.66555 0.12281 0.92354 0.0
C2731 C 0.65518 0.10016 0.92491 0.0
C2732 C 0.64908 0.08816 0.95895 0.0
C2733 C 0.63834 0.08992 1.00434 0.0
C2734 C 0.63285 0.07857 0.03714 0.0
C2735 C 0.63794 0.06539 1.02456 0.0
C2736 C 0.6485 0.06353 0.97894 0.0
C2737 C 0.65403 0.07485 0.94605 0.0
H2738 H 0.63369 0.05662 0.05008 0.0
H2739 H 0.68495 0.16722 0.72783 0.0
H2740 H 0.1024 0.37971 0.45206 0.0
H2741 H 0.1031 0.3799 0.33153 0.0
H2742 H 0.1204 0.33903 0.33275 0.0
H2743 H 0.12064 0.33931 0.45282 0.0
H2744 H 0.1325 0.35129 0.24402 0.0
H2745 H 0.08364 0.3492 0.29109 0.0
H2746 H 0.06196 0.35736 0.34039 0.0
H2747 H 0.06583 0.39573 0.23794 0.0
H2748 H 0.0876 0.38784 0.18859 0.0
H2749 H 0.12233 0.33671 0.90249 0.0
H2750 H 0.12182 0.33697 1.02303 0.0
H2751 H 0.1047 0.37791 1.01908 0.0
H2752 H 0.10432 0.37721 0.89901 0.0
H2753 H 0.09259 0.3659 0.10903 0.0
H2754 H 0.14123 0.36806 0.06119 0.0
H2755 H 0.16298 0.36009 1.01187 0.0
H2756 H 0.15964 0.32184 0.11569 0.0
H2757 H 0.1378 0.32952 0.16508 0.0
C2758 C 0.10631 0.37076 0.42649 0.0
C2759 C 0.11143 0.35949 0.46234 0.0
C2760 C 0.10662 0.3708 0.35717 0.0
C2761 C 0.11153 0.35933 0.32159 0.0
C2762 C 0.11656 0.34806 0.35788 0.0
C2763 C 0.11665 0.3482 0.42697 0.0
C2764 C 0.11175 0.35903 0.24713 0.0
C2765 C 0.12365 0.35432 0.21482 0.0
C2766 C 0.10046 0.36333 0.20756 0.0
C2767 C 0.08729 0.36797 0.23663 0.0
C2768 C 0.07989 0.35939 0.27932 0.0
C2769 C 0.06758 0.36397 0.30725 0.0
C2770 C 0.06254 0.37707 0.29243 0.0
C2771 C 0.06976 0.3856 0.24944 0.0
C2772 C 0.08207 0.38107 0.22143 0.0
C2773 C 0.1185 0.34577 0.92744 0.0
C2774 C 0.11338 0.35694 0.89086 0.0
C2775 C 0.1183 0.34598 0.99676 0.0
C2776 C 0.11348 0.35759 1.03155 0.0
C2777 C 0.10846 0.36877 0.99454 0.0
C2778 C 0.10829 0.36839 0.92546 0.0
C2779 C 0.11333 0.3581 0.10597 0.0
C2780 C 0.10144 0.36286 0.13825 0.0
C2781 C 0.12464 0.35387 0.14552 0.0
C2782 C 0.13783 0.34932 0.11636 0.0
C2783 C 0.14511 0.35793 0.07325 0.0
C2784 C 0.15745 0.35346 0.0453 0.0
C2785 C 0.16267 0.34045 0.06051 0.0
C2786 C 0.15558 0.3319 0.10389 0.0
C2787 C 0.14323 0.33631 0.13193 0.0
H2788 H 0.17222 0.33701 0.03878 0.0
H2789 H 0.05302 0.38059 0.31415 0.0
H2790 H 0.37716 0.9164 0.16689 0.0
H2791 H 0.37781 0.91622 0.04701 0.0
H2792 H 0.33961 0.89374 0.04208 0.0
H2793 H 0.33939 0.89322 0.16288 0.0
H2794 H 0.35454 0.88432 0.9497 0.0
H2795 H 0.34355 0.93107 1.01012 0.0
H2796 H 0.34722 0.95309 0.06782 0.0
H2797 H 0.38627 0.95775 0.97251 0.0
H2798 H 0.3829 0.93569 0.91483 0.0
H2799 H 0.34025 0.89585 0.61226 0.0
H2800 H 0.33989 0.89569 0.73215 0.0
H2801 H 0.3778 0.91866 0.73638 0.0
H2802 H 0.3777 0.91955 0.61565 0.0
H2803 H 0.36316 0.92772 0.82917 0.0
H2804 H 0.37421 0.8812 0.76778 0.0
H2805 H 0.37066 0.85923 0.70948 0.0
H2806 H 0.33184 0.85402 0.80616 0.0
H2807 H 0.33507 0.87604 0.86442 0.0
C2808 C 0.36887 0.91141 0.14041 0.0
C2809 C 0.35814 0.90493 0.1749 0.0
C2810 C 0.36919 0.9114 0.07137 0.0
C2811 C 0.35854 0.90534 1.03427 0.0
C2812 C 0.34795 0.8986 0.06878 0.0
C2813 C 0.3478 0.89832 0.13811 0.0
C2814 C 0.35852 0.90598 0.95998 0.0
C2815 C 0.35624 0.89388 0.92357 0.0
C2816 C 0.3611 0.91831 0.92469 0.0
C2817 C 0.36302 0.93168 0.95858 0.0
C2818 C 0.35294 0.93677 1.00169 0.0
C2819 C 0.35497 0.94926 1.03438 0.0
C2820 C 0.36699 0.9568 1.02395 0.0
C2821 C 0.37698 0.9519 0.9806 0.0
C2822 C 0.375 0.93941 0.94783 0.0
C2823 C 0.34853 0.90089 0.63861 0.0
C2824 C 0.35907 0.90763 0.60395 0.0
C2825 C 0.34839 0.90068 0.70765 0.0
C2826 C 0.35904 0.90679 0.74453 0.0
C2827 C 0.36946 0.91376 0.70986 0.0
C2828 C 0.36942 0.91426 0.64056 0.0
C2829 C 0.35918 0.90607 0.8188 0.0
C2830 C 0.36148 0.91815 0.85524 0.0
C2831 C 0.35665 0.89371 0.85407 0.0
C2832 C 0.35484 0.88033 0.82006 0.0
C2833 C 0.36489 0.87539 0.77641 0.0
C2834 C 0.36293 0.86293 0.74336 0.0
C2835 C 0.35102 0.85525 0.75397 0.0
C2836 C 0.34106 0.85999 0.79792 0.0
C2837 C 0.34295 0.87245 0.83103 0.0
H2838 H 0.34951 0.84563 0.72822 0.0
H2839 H 0.36854 0.96645 0.04937 0.0
H2840 H 0.88593 0.84865 0.41381 0.0
H2841 H 0.88575 0.84936 0.29338 0.0
H2842 H 0.92683 0.86595 0.29457 0.0
H2843 H 0.92701 0.86551 0.41457 0.0
H2844 H 0.91183 0.87939 0.20728 0.0
H2845 H 0.91935 0.83141 0.25515 0.0
H2846 H 0.91395 0.80903 0.30553 0.0
H2847 H 0.87526 0.80811 0.20314 0.0
H2848 H 0.88035 0.83059 0.1529 0.0
H2849 H 0.92712 0.8692 0.86647 0.0
H2850 H 0.92699 0.86881 0.98699 0.0
H2851 H 0.88633 0.8512 0.98426 0.0
H2852 H 0.88647 0.85134 0.86433 0.0
H2853 H 0.90091 0.83833 0.07243 0.0
H2854 H 0.8926 0.8857 1.02525 0.0
H2855 H 0.8969 0.90838 0.97547 0.0
H2856 H 0.93567 0.91088 0.07642 0.0
H2857 H 0.93169 0.88811 0.12612 0.0
C2858 C 0.89497 0.8524 0.38859 0.0
C2859 C 0.90651 0.85696 0.42462 0.0
C2860 C 0.89487 0.85276 0.31937 0.0
C2861 C 0.90635 0.85758 0.2841 0.0
C2862 C 0.91783 0.86219 0.32004 0.0
C2863 C 0.91792 0.86186 0.38909 0.0
C2864 C 0.90642 0.85795 0.21007 0.0
C2865 C 0.90962 0.87034 0.17793 0.0
C2866 C 0.90318 0.8463 0.17097 0.0
C2867 C 0.90017 0.83274 0.20078 0.0
C2868 C 0.90965 0.82647 0.24374 0.0
C2869 C 0.90664 0.81376 0.27223 0.0
C2870 C 0.89424 0.80716 0.25767 0.0
C2871 C 0.88485 0.81324 0.21444 0.0
C2872 C 0.88779 0.82596 0.18593 0.0
C2873 C 0.91812 0.86529 0.89139 0.0
C2874 C 0.90681 0.86033 0.85497 0.0
C2875 C 0.91803 0.86512 0.96065 0.0
C2876 C 0.90659 0.86008 0.99552 0.0
C2877 C 0.89532 0.85512 0.95915 0.0
C2878 C 0.89541 0.85526 0.89011 0.0
C2879 C 0.90638 0.85976 0.06957 0.0
C2880 C 0.90314 0.84738 0.10172 0.0
C2881 C 0.90947 0.87145 0.10867 0.0
C2882 C 0.91191 0.88513 0.07883 0.0
C2883 C 0.9021 0.89103 0.0364 0.0
C2884 C 0.90447 0.90391 1.00828 0.0
C2885 C 0.91657 0.91105 1.02262 0.0
C2886 C 0.92631 0.90533 0.06526 0.0
C2887 C 0.924 0.89244 0.09345 0.0
H2888 H 0.91838 0.92102 1.00082 0.0
H2889 H 0.8919 0.79733 0.27969 0.0
H2890 H 0.85706 0.13362 0.20109 0.0
H2891 H 0.85682 0.13383 0.08106 0.0
H2892 H 0.86544 0.09034 0.0786 0.0
H2893 H 0.86632 0.09023 0.19913 0.0
H2894 H 0.87922 0.10148 0.98522 0.0
H2895 H 0.83168 0.10556 0.04904 0.0
H2896 H 0.81201 0.1159 0.10738 0.0
H2897 H 0.81886 0.1542 1.00813 0.0
H2898 H 0.83867 0.14415 0.94978 0.0
H2899 H 0.861 0.09006 0.65091 0.0
H2900 H 0.86158 0.09011 0.77102 0.0
H2901 H 0.85486 0.13391 0.77194 0.0
H2902 H 0.85393 0.1339 0.6516 0.0
H2903 H 0.8401 0.12274 0.86559 0.0
H2904 H 0.88738 0.11889 0.80171 0.0
H2905 H 0.90714 0.10884 0.74302 0.0
H2906 H 0.90087 0.07041 0.84209 0.0
H2907 H 0.88095 0.08018 0.90075 0.0
C2908 C 0.85895 0.12408 0.17513 0.0
C2909 C 0.86164 0.11188 0.21015 0.0
C2910 C 0.8587 0.12419 0.1061 0.0
C2911 C 0.86076 0.11203 0.06985 0.0
C2912 C 0.86374 0.09988 0.10481 0.0
C2913 C 0.86424 0.09982 0.17399 0.0
C2914 C 0.85985 0.11198 0.99587 0.0
C2915 C 0.87054 0.10596 0.95932 0.0
C2916 C 0.84875 0.11813 0.96102 0.0
C2917 C 0.83673 0.12413 0.99546 0.0
C2918 C 0.82903 0.11621 0.03991 0.0
C2919 C 0.81785 0.12202 0.07296 0.0
C2920 C 0.81421 0.13571 0.06158 0.0
C2921 C 0.8217 0.14361 1.01695 0.0
C2922 C 0.83289 0.13785 0.98382 0.0
C2923 C 0.85961 0.09973 0.67644 0.0
C2924 C 0.85746 0.11199 0.64096 0.0
C2925 C 0.86003 0.09975 0.74551 0.0
C2926 C 0.85852 0.11205 0.78127 0.0
C2927 C 0.85611 0.12427 0.74599 0.0
C2928 C 0.8556 0.12424 0.67687 0.0
C2929 C 0.85943 0.11218 0.85515 0.0
C2930 C 0.84876 0.11824 0.8916 0.0
C2931 C 0.87055 0.10608 0.8899 0.0
C2932 C 0.8826 0.10023 0.85518 0.0
C2933 C 0.89017 0.10827 0.81068 0.0
C2934 C 0.9014 0.10263 0.77745 0.0
C2935 C 0.90524 0.08899 0.78871 0.0
C2936 C 0.89788 0.08097 0.83337 0.0
C2937 C 0.88662 0.08656 0.86667 0.0
H2938 H 0.91394 0.08464 0.76292 0.0
H2939 H 0.80556 0.14018 0.08725 0.0
H2940 H 0.10489 0.13731 0.86397 0.0
H2941 H 0.10577 0.13709 0.98447 0.0
H2942 H 0.117 0.18001 0.98441 0.0
H2943 H 0.11726 0.17982 0.86423 0.0
H2944 H 0.13067 0.16982 0.07304 0.0
H2945 H 0.08194 0.16411 1.02643 0.0
H2946 H 0.06178 0.1526 0.97714 0.0
H2947 H 0.07216 0.11526 0.07823 0.0
H2948 H 0.09245 0.12651 0.12757 0.0
H2949 H 0.11916 0.18219 0.41507 0.0
H2950 H 0.11848 0.18197 0.29456 0.0
H2951 H 0.10758 0.13898 0.2977 0.0
H2952 H 0.10717 0.13958 0.4179 0.0
H2953 H 0.09388 0.1489 0.20772 0.0
H2954 H 0.14242 0.15455 0.25508 0.0
H2955 H 0.16259 0.16596 0.30475 0.0
H2956 H 0.15264 0.20327 0.20245 0.0
H2957 H 0.13234 0.19213 0.1527 0.0
C2958 C 0.10749 0.1467 0.88985 0.0
C2959 C 0.11095 0.15859 0.85435 0.0
C2960 C 0.10788 0.14663 0.95917 0.0
C2961 C 0.11113 0.15864 0.99514 0.0
C2962 C 0.11447 0.17054 0.95908 0.0
C2963 C 0.11455 0.17046 0.88996 0.0
C2964 C 0.11142 0.15888 0.06969 0.0
C2965 C 0.12247 0.16538 0.10214 0.0
C2966 C 0.10105 0.1528 0.10925 0.0
C2967 C 0.08876 0.14612 0.08021 0.0
C2968 C 0.07994 0.15343 0.03791 0.0
C2969 C 0.06849 0.14695 1.00998 0.0
C2970 C 0.06571 0.1332 1.02442 0.0
C2971 C 0.07434 0.1259 0.06702 0.0
C2972 C 0.0858 0.13233 0.09504 0.0
C2973 C 0.11668 0.1727 0.38989 0.0
C2974 C 0.11327 0.1609 0.42622 0.0
C2975 C 0.1164 0.17251 0.32058 0.0
C2976 C 0.11329 0.16035 0.2855 0.0
C2977 C 0.11 0.14855 0.32237 0.0
C2978 C 0.10983 0.14887 0.39148 0.0
C2979 C 0.11309 0.1599 0.211 0.0
C2980 C 0.10207 0.15334 0.17858 0.0
C2981 C 0.12349 0.16592 0.17147 0.0
C2982 C 0.13581 0.17253 0.20061 0.0
C2983 C 0.14451 0.1652 0.24339 0.0
C2984 C 0.15597 0.17162 0.27154 0.0
C2985 C 0.15887 0.18534 0.25688 0.0
C2986 C 0.15037 0.19265 0.21382 0.0
C2987 C 0.1389 0.18629 0.18556 0.0
H2988 H 0.16773 0.19029 0.2788 0.0
H2989 H 0.05686 0.1282 1.00269 0.0
H2990 H 0.15895 0.92846 0.65793 0.0
H2991 H 0.15834 0.92828 0.77812 0.0
H2992 H 0.1641 0.88437 0.77781 0.0
H2993 H 0.16483 0.88446 0.65709 0.0
H2994 H 0.14366 0.8924 0.86524 0.0
H2995 H 0.19022 0.90466 0.8203 0.0
H2996 H 0.20896 0.91786 0.76908 0.0
H2997 H 0.19434 0.95476 0.86142 0.0
H2998 H 0.17537 0.94182 0.91245 0.0
H2999 H 0.16082 0.88502 0.20595 0.0
H3000 H 0.16113 0.88507 0.08568 0.0
H3001 H 0.15514 0.92895 0.08528 0.0
H3002 H 0.15469 0.92898 0.20604 0.0
H3003 H 0.17564 0.92087 0.99826 0.0
H3004 H 0.12915 0.90854 0.04389 0.0
H3005 H 0.1105 0.8953 0.09562 0.0
H3006 H 0.12502 0.85846 1.00234 0.0
H3007 H 0.14391 0.87145 0.95085 0.0
C3008 C 0.16016 0.91873 0.68315 0.0
C3009 C 0.16201 0.90648 0.64717 0.0
C3010 C 0.15983 0.91866 0.75225 0.0
C3011 C 0.16123 0.90632 0.78768 0.0
C3012 C 0.16299 0.89404 0.752 0.0
C3013 C 0.16349 0.89413 0.68275 0.0
C3014 C 0.16083 0.90631 0.86168 0.0
C3015 C 0.15079 0.89847 0.89424 0.0
C3016 C 0.16989 0.91447 0.90013 0.0
C3017 C 0.18128 0.9223 0.86963 0.0
C3018 C 0.19092 0.91562 0.82922 0.0
C3019 C 0.2016 0.92304 0.80031 0.0
C3020 C 0.20282 0.93715 0.81184 0.0
C3021 C 0.19337 0.94384 0.85245 0.0
C3022 C 0.18266 0.93646 0.88142 0.0
C3023 C 0.1595 0.89471 0.18053 0.0
C3024 C 0.15768 0.907 0.21629 0.0
C3025 C 0.15965 0.89471 0.11142 0.0
C3026 C 0.1581 0.907 0.0758 0.0
C3027 C 0.15636 0.91931 0.11126 0.0
C3028 C 0.15602 0.9193 0.18053 0.0
C3029 C 0.15847 0.90698 1.00182 0.0
C3030 C 0.1685 0.9148 0.96926 0.0
C3031 C 0.14941 0.8988 0.96342 0.0
C3032 C 0.13804 0.89095 0.99406 0.0
C3033 C 0.12844 0.89759 0.03486 0.0
C3034 C 0.11781 0.89014 0.06406 0.0
C3035 C 0.1166 0.87604 0.05242 0.0
C3036 C 0.12599 0.86938 1.0114 0.0
C3037 C 0.13666 0.87679 0.98215 0.0
H3038 H 0.10836 0.87029 0.07508 0.0
H3039 H 0.2111 0.94288 0.78943 0.0
loop_
_geom_bond_atom_site_label_1
_geom_bond_atom_site_label_2
_geom_bond_distance
_geom_bond_site_symmetry_2
_ccdc_geom_bond_type
Nd0 C2 2.836 . S
Nd0 O20 2.500 . S
Nd0 O21 2.492 . S
Nd0 O22 2.487 . S
Nd0 O23 2.682 . S
Nd0 O24 2.410 . S
Nd0 O29 2.414 . S
Nd0 O31 2.424 . S
Nd1 C11 2.836 . S
Nd1 O23 2.414 . S
Nd1 O25 2.424 . S
Nd1 O26 2.500 . S
Nd1 O27 2.492 . S
Nd1 O28 2.487 . S
Nd1 O29 2.682 . S
Nd1 O30 2.410 . S
C2 Nd0 2.836 . S
C2 C3 1.498 . S
C2 O20 1.258 . S
C2 O21 1.239 . S
C3 C2 1.498 . S
C3 C4 1.366 . S
C3 C8 1.407 . S
C4 C3 1.366 . S
C4 C5 1.392 . S
C4 H32 0.930 . S
C5 C4 1.392 . S
C5 C6 1.398 . S
C5 H33 0.929 . S
C6 C5 1.398 . S
C6 C7 1.352 . S
C7 C6 1.352 . S
C7 C8 1.384 . S
C7 H34 0.930 . S
C8 C3 1.407 . S
C8 C7 1.384 . S
C8 H35 0.929 . S
C9 O22 1.241 . S
C9 O23 1.273 . S
C10 O24 1.251 . S
C10 O25 1.268 . S
C11 Nd1 2.836 . S
C11 C12 1.498 . S
C11 O26 1.258 . S
C11 O27 1.239 . S
C12 C11 1.498 . S
C12 C13 1.366 1_554 S
C12 C17 1.407 . S
C13 C12 1.366 1_556 S
C13 C14 1.392 . S
C13 H36 0.930 . S
C14 C13 1.392 . S
C14 C15 1.398 . S
C14 H37 0.929 . S
C15 C14 1.398 . S
C15 C16 1.352 . S
C16 C15 1.352 . S
C16 C17 1.384 1_556 S
C16 H38 0.930 . S
C17 C12 1.407 . S
C17 C16 1.384 1_554 S
C17 H39 0.929 . S
C18 O28 1.241 . S
C18 O29 1.273 . S
C19 O30 1.251 . S
C19 O31 1.268 . S
O20 Nd0 2.500 . S
O20 C2 1.258 . S
O21 Nd0 2.492 . S
O21 C2 1.239 . S
O22 Nd0 2.487 . S
O22 C9 1.241 . S
O23 Nd0 2.682 . S
O23 Nd1 2.414 . S
O23 C9 1.273 . S
O24 Nd0 2.410 . S
O24 C10 1.251 . S
O25 Nd1 2.424 . S
O25 C10 1.268 . S
O26 Nd1 2.500 . S
O26 C11 1.258 . S
O27 Nd1 2.492 . S
O27 C11 1.239 . S
O28 Nd1 2.487 . S
O28 C18 1.241 . S
O29 Nd0 2.414 . S
O29 Nd1 2.682 . S
O29 C18 1.273 . S
O30 Nd1 2.410 . S
O30 C19 1.251 . S
O31 Nd0 2.424 . S
O31 C19 1.268 . S
H32 C4 0.930 . S
H33 C5 0.929 . S
H34 C7 0.930 . S
H35 C8 0.929 . S
H36 C13 0.930 . S
H37 C14 0.929 . S
H38 C16 0.930 . S
H39 C17 0.929 . S
Nd40 C42 2.836 . S
Nd40 O60 2.500 . S
Nd40 O61 2.492 . S
Nd40 O62 2.487 . S
Nd40 O63 2.682 . S
Nd40 O64 2.410 . S
Nd40 O69 2.414 . S
Nd40 O71 2.424 . S
Nd41 C51 2.836 . S
Nd41 O63 2.414 . S
Nd41 O65 2.424 . S
Nd41 O66 2.500 . S
Nd41 O67 2.492 . S
Nd41 O68 2.487 . S
Nd41 O69 2.682 . S
Nd41 O70 2.410 . S
C42 Nd40 2.836 . S
C42 C43 1.498 . S
C42 O60 1.258 . S
C42 O61 1.239 . S
C43 C42 1.498 . S
C43 C44 1.366 1_556 S
C43 C48 1.407 . S
C44 C43 1.366 1_554 S
C44 C45 1.392 . S
C44 H72 0.930 . S
C45 C44 1.392 . S
C45 C46 1.398 . S
C45 H73 0.929 . S
C46 C45 1.398 . S
C46 C47 1.352 . S
C47 C46 1.352 . S
C47 C48 1.384 1_554 S
C47 H74 0.930 . S
C48 C43 1.407 . S
C48 C47 1.384 1_556 S
C48 H75 0.929 . S
C49 O62 1.241 . S
C49 O63 1.273 . S
C50 O64 1.251 . S
C50 O65 1.268 . S
C51 Nd41 2.836 . S
C51 C52 1.498 . S
C51 O66 1.258 . S
C51 O67 1.239 . S
C52 C51 1.498 . S
C52 C53 1.366 . S
C52 C57 1.407 . S
C53 C52 1.366 . S
C53 C54 1.392 . S
C53 H76 0.930 . S
C54 C53 1.392 . S
C54 C55 1.398 . S
C54 H77 0.929 . S
C55 C54 1.398 . S
C55 C56 1.352 . S
C56 C55 1.352 . S
C56 C57 1.384 . S
C56 H78 0.930 . S
C57 C52 1.407 . S
C57 C56 1.384 . S
C57 H79 0.929 . S
C58 O68 1.241 . S
C58 O69 1.273 . S
C59 O70 1.251 . S
C59 O71 1.268 . S
O60 Nd40 2.500 . S
O60 C42 1.258 . S
O61 Nd40 2.492 . S
O61 C42 1.239 . S
O62 Nd40 2.487 . S
O62 C49 1.241 . S
O63 Nd40 2.682 . S
O63 Nd41 2.414 . S
O63 C49 1.273 . S
O64 Nd40 2.410 . S
O64 C50 1.251 . S
O65 Nd41 2.424 . S
O65 C50 1.268 . S
O66 Nd41 2.500 . S
O66 C51 1.258 . S
O67 Nd41 2.492 . S
O67 C51 1.239 . S
O68 Nd41 2.487 . S
O68 C58 1.241 . S
O69 Nd40 2.414 . S
O69 Nd41 2.682 . S
O69 C58 1.273 . S
O70 Nd41 2.410 . S
O70 C59 1.251 . S
O71 Nd40 2.424 . S
O71 C59 1.268 . S
H72 C44 0.930 . S
H73 C45 0.929 . S
H74 C47 0.930 . S
H75 C48 0.929 . S
H76 C53 0.930 . S
H77 C54 0.929 . S
H78 C56 0.930 . S
H79 C57 0.929 . S
Nd80 C82 2.836 . S
Nd80 O100 2.500 . S
Nd80 O101 2.492 . S
Nd80 O102 2.487 . S
Nd80 O103 2.682 . S
Nd80 O104 2.410 . S
Nd80 O109 2.414 . S
Nd80 O111 2.424 . S
Nd81 C91 2.836 . S
Nd81 O103 2.414 . S
Nd81 O105 2.424 . S
Nd81 O106 2.500 . S
Nd81 O107 2.492 . S
Nd81 O108 2.487 . S
Nd81 O109 2.682 . S
Nd81 O110 2.410 . S
C82 Nd80 2.836 . S
C82 C83 1.498 . S
C82 O100 1.258 . S
C82 O101 1.239 . S
C83 C82 1.498 . S
C83 C84 1.366 . S
C83 C88 1.407 . S
C84 C83 1.366 . S
C84 C85 1.392 . S
C84 H112 0.930 . S
C85 C84 1.392 . S
C85 C86 1.398 . S
C85 H113 0.929 . S
C86 C85 1.398 . S
C86 C87 1.352 . S
C87 C86 1.352 . S
C87 C88 1.384 . S
C87 H114 0.930 . S
C88 C83 1.407 . S
C88 C87 1.384 . S
C88 H115 0.929 . S
C89 O102 1.241 . S
C89 O103 1.273 . S
C90 O104 1.251 . S
C90 O105 1.268 . S
C91 Nd81 2.836 . S
C91 C92 1.498 . S
C91 O106 1.258 . S
C91 O107 1.239 . S
C92 C91 1.498 . S
C92 C93 1.366 1_554 S
C92 C97 1.407 . S
C93 C92 1.366 1_556 S
C93 C94 1.392 . S
C93 H116 0.930 . S
C94 C93 1.392 . S
C94 C95 1.398 . S
C94 H117 0.929 . S
C95 C94 1.398 . S
C95 C96 1.352 . S
C96 C95 1.352 . S
C96 C97 1.384 1_556 S
C96 H118 0.930 . S
C97 C92 1.407 . S
C97 C96 1.384 1_554 S
C97 H119 0.929 . S
C98 O108 1.241 . S
C98 O109 1.273 . S
C99 O110 1.251 . S
C99 O111 1.268 . S
O100 Nd80 2.500 . S
O100 C82 1.258 . S
O101 Nd80 2.492 . S
O101 C82 1.239 . S
O102 Nd80 2.487 . S
O102 C89 1.241 . S
O103 Nd80 2.682 . S
O103 Nd81 2.414 . S
O103 C89 1.273 . S
O104 Nd80 2.410 . S
O104 C90 1.251 . S
O105 Nd81 2.424 . S
O105 C90 1.268 . S
O106 Nd81 2.500 . S
O106 C91 1.258 . S
O107 Nd81 2.492 . S
O107 C91 1.239 . S
O108 Nd81 2.487 . S
O108 C98 1.241 . S
O109 Nd80 2.414 . S
O109 Nd81 2.682 . S
O109 C98 1.273 . S
O110 Nd81 2.410 . S
O110 C99 1.251 . S
O111 Nd80 2.424 . S
O111 C99 1.268 . S
H112 C84 0.930 . S
H113 C85 0.929 . S
H114 C87 0.930 . S
H115 C88 0.929 . S
H116 C93 0.930 . S
H117 C94 0.929 . S
H118 C96 0.930 . S
H119 C97 0.929 . S
Nd120 C122 2.836 . S
Nd120 O140 2.500 . S
Nd120 O141 2.492 . S
Nd120 O142 2.487 . S
Nd120 O143 2.682 . S
Nd120 O144 2.410 . S
Nd120 O149 2.414 . S
Nd120 O151 2.424 . S
Nd121 C131 2.836 . S
Nd121 O143 2.414 . S
Nd121 O145 2.424 . S
Nd121 O146 2.500 . S
Nd121 O147 2.492 . S
Nd121 O148 2.487 . S
Nd121 O149 2.682 . S
Nd121 O150 2.410 . S
C122 Nd120 2.836 . S
C122 C123 1.498 . S
C122 O140 1.258 . S
C122 O141 1.239 . S
C123 C122 1.498 . S
C123 C124 1.366 1_556 S
C123 C128 1.407 . S
C124 C123 1.366 1_554 S
C124 C125 1.392 . S
C124 H152 0.930 . S
C125 C124 1.392 . S
C125 C126 1.398 . S
C125 H153 0.929 . S
C126 C125 1.398 . S
C126 C127 1.352 . S
C127 C126 1.352 . S
C127 C128 1.384 1_554 S
C127 H154 0.930 . S
C128 C123 1.407 . S
C128 C127 1.384 1_556 S
C128 H155 0.929 . S
C129 O142 1.241 . S
C129 O143 1.273 . S
C130 O144 1.251 . S
C130 O145 1.268 . S
C131 Nd121 2.836 . S
C131 C132 1.498 . S
C131 O146 1.258 . S
C131 O147 1.239 . S
C132 C131 1.498 . S
C132 C133 1.366 . S
C132 C137 1.407 . S
C133 C132 1.366 . S
C133 C134 1.392 . S
C133 H156 0.930 . S
C134 C133 1.392 . S
C134 C135 1.398 . S
C134 H157 0.929 . S
C135 C134 1.398 . S
C135 C136 1.352 . S
C136 C135 1.352 . S
C136 C137 1.384 . S
C136 H158 0.930 . S
C137 C132 1.407 . S
C137 C136 1.384 . S
C137 H159 0.929 . S
C138 O148 1.241 . S
C138 O149 1.273 . S
C139 O150 1.251 . S
C139 O151 1.268 . S
O140 Nd120 2.500 . S
O140 C122 1.258 . S
O141 Nd120 2.492 . S
O141 C122 1.239 . S
O142 Nd120 2.487 . S
O142 C129 1.241 . S
O143 Nd120 2.682 . S
O143 Nd121 2.414 . S
O143 C129 1.273 . S
O144 Nd120 2.410 . S
O144 C130 1.251 . S
O145 Nd121 2.424 . S
O145 C130 1.268 . S
O146 Nd121 2.500 . S
O146 C131 1.258 . S
O147 Nd121 2.492 . S
O147 C131 1.239 . S
O148 Nd121 2.487 . S
O148 C138 1.241 . S
O149 Nd120 2.414 . S
O149 Nd121 2.682 . S
O149 C138 1.273 . S
O150 Nd121 2.410 . S
O150 C139 1.251 . S
O151 Nd120 2.424 . S
O151 C139 1.268 . S
H152 C124 0.930 . S
H153 C125 0.929 . S
H154 C127 0.930 . S
H155 C128 0.929 . S
H156 C133 0.930 . S
H157 C134 0.929 . S
H158 C136 0.930 . S
H159 C137 0.929 . S
Nd160 C162 2.836 . S
Nd160 O180 2.500 . S
Nd160 O181 2.492 . S
Nd160 O182 2.487 . S
Nd160 O183 2.682 . S
Nd160 O184 2.410 . S
Nd160 O189 2.414 . S
Nd160 O191 2.424 . S
Nd161 C171 2.836 . S
Nd161 O183 2.414 . S
Nd161 O185 2.424 1_554 S
Nd161 O186 2.500 . S
Nd161 O187 2.492 . S
Nd161 O188 2.487 . S
Nd161 O189 2.682 . S
Nd161 O190 2.410 . S
C162 Nd160 2.836 . S
C162 C163 1.498 . S
C162 O180 1.258 . S
C162 O181 1.239 . S
C163 C162 1.498 . S
C163 C164 1.366 1_554 S
C163 C168 1.407 . S
C164 C163 1.366 1_556 S
C164 C165 1.392 . S
C164 H192 0.930 . S
C165 C164 1.392 . S
C165 C166 1.398 . S
C165 H193 0.929 . S
C166 C165 1.398 . S
C166 C167 1.352 . S
C167 C166 1.352 . S
C167 C168 1.384 1_556 S
C167 H194 0.930 . S
C168 C163 1.407 . S
C168 C167 1.384 1_554 S
C168 H195 0.929 . S
C169 O182 1.241 . S
C169 O183 1.273 . S
C170 O184 1.251 1_556 S
C170 O185 1.268 . S
C171 Nd161 2.836 . S
C171 C172 1.498 . S
C171 O186 1.258 . S
C171 O187 1.239 . S
C172 C171 1.498 . S
C172 C173 1.366 . S
C172 C177 1.407 . S
C173 C172 1.366 . S
C173 C174 1.392 . S
C173 H196 0.930 . S
C174 C173 1.392 . S
C174 C175 1.398 . S
C174 H197 0.929 . S
C175 C174 1.398 . S
C175 C176 1.352 . S
C176 C175 1.352 . S
C176 C177 1.384 . S
C176 H198 0.930 . S
C177 C172 1.407 . S
C177 C176 1.384 . S
C177 H199 0.929 . S
C178 O188 1.241 . S
C178 O189 1.273 . S
C179 O190 1.251 . S
C179 O191 1.268 . S
O180 Nd160 2.500 . S
O180 C162 1.258 . S
O181 Nd160 2.492 . S
O181 C162 1.239 . S
O182 Nd160 2.487 . S
O182 C169 1.241 . S
O183 Nd160 2.682 . S
O183 Nd161 2.414 . S
O183 C169 1.273 . S
O184 Nd160 2.410 . S
O184 C170 1.251 1_554 S
O185 Nd161 2.424 1_556 S
O185 C170 1.268 . S
O186 Nd161 2.500 . S
O186 C171 1.258 . S
O187 Nd161 2.492 . S
O187 C171 1.239 . S
O188 Nd161 2.487 . S
O188 C178 1.241 . S
O189 Nd160 2.414 . S
O189 Nd161 2.682 . S
O189 C178 1.273 . S
O190 Nd161 2.410 . S
O190 C179 1.251 . S
O191 Nd160 2.424 . S
O191 C179 1.268 . S
H192 C164 0.930 . S
H193 C165 0.929 . S
H194 C167 0.930 . S
H195 C168 0.929 . S
H196 C173 0.930 . S
H197 C174 0.929 . S
H198 C176 0.930 . S
H199 C177 0.929 . S
Nd200 C202 2.836 . S
Nd200 O220 2.500 . S
Nd200 O221 2.492 . S
Nd200 O222 2.487 . S
Nd200 O223 2.682 . S
Nd200 O224 2.410 . S
Nd200 O229 2.414 . S
Nd200 O231 2.424 1_556 S
Nd201 C211 2.836 . S
Nd201 O223 2.414 . S
Nd201 O225 2.424 . S
Nd201 O226 2.500 . S
Nd201 O227 2.492 . S
Nd201 O228 2.487 . S
Nd201 O229 2.682 . S
Nd201 O230 2.410 . S
C202 Nd200 2.836 . S
C202 C203 1.498 . S
C202 O220 1.258 . S
C202 O221 1.239 . S
C203 C202 1.498 . S
C203 C204 1.366 . S
C203 C208 1.407 . S
C204 C203 1.366 . S
C204 C205 1.392 . S
C204 H232 0.930 . S
C205 C204 1.392 . S
C205 C206 1.398 . S
C205 H233 0.929 . S
C206 C205 1.398 . S
C206 C207 1.352 . S
C207 C206 1.352 . S
C207 C208 1.384 . S
C207 H234 0.930 . S
C208 C203 1.407 . S
C208 C207 1.384 . S
C208 H235 0.929 . S
C209 O222 1.241 . S
C209 O223 1.273 . S
C210 O224 1.251 . S
C210 O225 1.268 . S
C211 Nd201 2.836 . S
C211 C212 1.498 . S
C211 O226 1.258 . S
C211 O227 1.239 . S
C212 C211 1.498 . S
C212 C213 1.366 1_556 S
C212 C217 1.407 . S
C213 C212 1.366 1_554 S
C213 C214 1.392 . S
C213 H236 0.930 . S
C214 C213 1.392 . S
C214 C215 1.398 . S
C214 H237 0.929 . S
C215 C214 1.398 . S
C215 C216 1.352 . S
C216 C215 1.352 . S
C216 C217 1.384 1_554 S
C216 H238 0.930 . S
C217 C212 1.407 . S
C217 C216 1.384 1_556 S
C217 H239 0.929 . S
C218 O228 1.241 . S
C218 O229 1.273 . S
C219 O230 1.251 1_554 S
C219 O231 1.268 . S
O220 Nd200 2.500 . S
O220 C202 1.258 . S
O221 Nd200 2.492 . S
O221 C202 1.239 . S
O222 Nd200 2.487 . S
O222 C209 1.241 . S
O223 Nd200 2.682 . S
O223 Nd201 2.414 . S
O223 C209 1.273 . S
O224 Nd200 2.410 . S
O224 C210 1.251 . S
O225 Nd201 2.424 . S
O225 C210 1.268 . S
O226 Nd201 2.500 . S
O226 C211 1.258 . S
O227 Nd201 2.492 . S
O227 C211 1.239 . S
O228 Nd201 2.487 . S
O228 C218 1.241 . S
O229 Nd200 2.414 . S
O229 Nd201 2.682 . S
O229 C218 1.273 . S
O230 Nd201 2.410 . S
O230 C219 1.251 1_556 S
O231 Nd200 2.424 1_554 S
O231 C219 1.268 . S
H232 C204 0.930 . S
H233 C205 0.929 . S
H234 C207 0.930 . S
H235 C208 0.929 . S
H236 C213 0.930 . S
H237 C214 0.929 . S
H238 C216 0.930 . S
H239 C217 0.929 . S
Nd240 C242 2.836 . S
Nd240 O260 2.500 . S
Nd240 O261 2.492 . S
Nd240 O262 2.487 . S
Nd240 O263 2.682 . S
Nd240 O264 2.410 . S
Nd240 O269 2.414 . S
Nd240 O271 2.424 . S
Nd241 C251 2.836 . S
Nd241 O263 2.414 . S
Nd241 O265 2.424 1_554 S
Nd241 O266 2.500 . S
Nd241 O267 2.492 . S
Nd241 O268 2.487 . S
Nd241 O269 2.682 . S
Nd241 O270 2.410 . S
C242 Nd240 2.836 . S
C242 C243 1.498 . S
C242 O260 1.258 . S
C242 O261 1.239 . S
C243 C242 1.498 . S
C243 C244 1.366 1_554 S
C243 C248 1.407 . S
C244 C243 1.366 1_556 S
C244 C245 1.392 . S
C244 H272 0.930 . S
C245 C244 1.392 . S
C245 C246 1.398 . S
C245 H273 0.929 . S
C246 C245 1.398 . S
C246 C247 1.352 . S
C247 C246 1.352 . S
C247 C248 1.384 1_556 S
C247 H274 0.930 . S
C248 C243 1.407 . S
C248 C247 1.384 1_554 S
C248 H275 0.929 . S
C249 O262 1.241 . S
C249 O263 1.273 . S
C250 O264 1.251 1_556 S
C250 O265 1.268 . S
C251 Nd241 2.836 . S
C251 C252 1.498 . S
C251 O266 1.258 . S
C251 O267 1.239 . S
C252 C251 1.498 . S
C252 C253 1.366 . S
C252 C257 1.407 . S
C253 C252 1.366 . S
C253 C254 1.392 . S
C253 H276 0.930 . S
C254 C253 1.392 . S
C254 C255 1.398 . S
C254 H277 0.929 . S
C255 C254 1.398 . S
C255 C256 1.352 . S
C256 C255 1.352 . S
C256 C257 1.384 . S
C256 H278 0.930 . S
C257 C252 1.407 . S
C257 C256 1.384 . S
C257 H279 0.929 . S
C258 O268 1.241 . S
C258 O269 1.273 . S
C259 O270 1.251 . S
C259 O271 1.268 . S
O260 Nd240 2.500 . S
O260 C242 1.258 . S
O261 Nd240 2.492 . S
O261 C242 1.239 . S
O262 Nd240 2.487 . S
O262 C249 1.241 . S
O263 Nd240 2.682 . S
O263 Nd241 2.414 . S
O263 C249 1.273 . S
O264 Nd240 2.410 . S
O264 C250 1.251 1_554 S
O265 Nd241 2.424 1_556 S
O265 C250 1.268 . S
O266 Nd241 2.500 . S
O266 C251 1.258 . S
O267 Nd241 2.492 . S
O267 C251 1.239 . S
O268 Nd241 2.487 . S
O268 C258 1.241 . S
O269 Nd240 2.414 . S
O269 Nd241 2.682 . S
O269 C258 1.273 . S
O270 Nd241 2.410 . S
O270 C259 1.251 . S
O271 Nd240 2.424 . S
O271 C259 1.268 . S
H272 C244 0.930 . S
H273 C245 0.929 . S
H274 C247 0.930 . S
H275 C248 0.929 . S
H276 C253 0.930 . S
H277 C254 0.929 . S
H278 C256 0.930 . S
H279 C257 0.929 . S
Nd280 C282 2.836 . S
Nd280 O300 2.500 . S
Nd280 O301 2.492 . S
Nd280 O302 2.487 . S
Nd280 O303 2.682 . S
Nd280 O304 2.410 . S
Nd280 O309 2.414 . S
Nd280 O311 2.424 1_556 S
Nd281 C291 2.836 . S
Nd281 O303 2.414 . S
Nd281 O305 2.424 . S
Nd281 O306 2.500 . S
Nd281 O307 2.492 . S
Nd281 O308 2.487 . S
Nd281 O309 2.682 . S
Nd281 O310 2.410 . S
C282 Nd280 2.836 . S
C282 C283 1.498 . S
C282 O300 1.258 . S
C282 O301 1.239 . S
C283 C282 1.498 . S
C283 C284 1.366 . S
C283 C288 1.407 . S
C284 C283 1.366 . S
C284 C285 1.392 . S
C284 H312 0.930 . S
C285 C284 1.392 . S
C285 C286 1.398 . S
C285 H313 0.929 . S
C286 C285 1.398 . S
C286 C287 1.352 . S
C287 C286 1.352 . S
C287 C288 1.384 . S
C287 H314 0.930 . S
C288 C283 1.407 . S
C288 C287 1.384 . S
C288 H315 0.929 . S
C289 O302 1.241 . S
C289 O303 1.273 . S
C290 O304 1.251 . S
C290 O305 1.268 . S
C291 Nd281 2.836 . S
C291 C292 1.498 . S
C291 O306 1.258 . S
C291 O307 1.239 . S
C292 C291 1.498 . S
C292 C293 1.366 1_556 S
C292 C297 1.407 . S
C293 C292 1.366 1_554 S
C293 C294 1.392 . S
C293 H316 0.930 . S
C294 C293 1.392 . S
C294 C295 1.398 . S
C294 H317 0.929 . S
C295 C294 1.398 . S
C295 C296 1.352 . S
C296 C295 1.352 . S
C296 C297 1.384 1_554 S
C296 H318 0.930 . S
C297 C292 1.407 . S
C297 C296 1.384 1_556 S
C297 H319 0.929 . S
C298 O308 1.241 . S
C298 O309 1.273 . S
C299 O310 1.251 1_554 S
C299 O311 1.268 . S
O300 Nd280 2.500 . S
O300 C282 1.258 . S
O301 Nd280 2.492 . S
O301 C282 1.239 . S
O302 Nd280 2.487 . S
O302 C289 1.241 . S
O303 Nd280 2.682 . S
O303 Nd281 2.414 . S
O303 C289 1.273 . S
O304 Nd280 2.410 . S
O304 C290 1.251 . S
O305 Nd281 2.424 . S
O305 C290 1.268 . S
O306 Nd281 2.500 . S
O306 C291 1.258 . S
O307 Nd281 2.492 . S
O307 C291 1.239 . S
O308 Nd281 2.487 . S
O308 C298 1.241 . S
O309 Nd280 2.414 . S
O309 Nd281 2.682 . S
O309 C298 1.273 . S
O310 Nd281 2.410 . S
O310 C299 1.251 1_556 S
O311 Nd280 2.424 1_554 S
O311 C299 1.268 . S
H312 C284 0.930 . S
H313 C285 0.929 . S
H314 C287 0.930 . S
H315 C288 0.929 . S
H316 C293 0.930 . S
H317 C294 0.929 . S
H318 C296 0.930 . S
H319 C297 0.929 . S
Nd320 C322 2.836 . S
Nd320 O340 2.500 . S
Nd320 O341 2.492 . S
Nd320 O342 2.487 . S
Nd320 O343 2.682 . S
Nd320 O344 2.410 . S
Nd320 O349 2.414 . S
Nd320 O351 2.424 . S
Nd321 C331 2.836 . S
Nd321 O343 2.414 . S
Nd321 O345 2.424 . S
Nd321 O346 2.500 . S
Nd321 O347 2.492 . S
Nd321 O348 2.487 . S
Nd321 O349 2.682 . S
Nd321 O350 2.410 . S
C322 Nd320 2.836 . S
C322 C323 1.498 . S
C322 O340 1.258 . S
C322 O341 1.239 . S
C323 C322 1.498 . S
C323 C324 1.366 . S
C323 C328 1.407 . S
C324 C323 1.366 . S
C324 C325 1.392 . S
C324 H352 0.930 . S
C325 C324 1.392 . S
C325 C326 1.398 . S
C325 H353 0.929 . S
C326 C325 1.398 . S
C326 C327 1.352 . S
C327 C326 1.352 . S
C327 C328 1.384 . S
C327 H354 0.930 . S
C328 C323 1.407 . S
C328 C327 1.384 . S
C328 H355 0.929 . S
C329 O342 1.241 . S
C329 O343 1.273 . S
C330 O344 1.251 . S
C330 O345 1.268 . S
C331 Nd321 2.836 . S
C331 C332 1.498 . S
C331 O346 1.258 . S
C331 O347 1.239 . S
C332 C331 1.498 . S
C332 C333 1.366 . S
C332 C337 1.407 . S
C333 C332 1.366 . S
C333 C334 1.392 . S
C333 H356 0.930 . S
C334 C333 1.392 . S
C334 C335 1.398 . S
C334 H357 0.929 . S
C335 C334 1.398 . S
C335 C336 1.352 . S
C336 C335 1.352 . S
C336 C337 1.384 . S
C336 H358 0.930 . S
C337 C332 1.407 . S
C337 C336 1.384 . S
C337 H359 0.929 . S
C338 O348 1.241 . S
C338 O349 1.273 . S
C339 O350 1.251 . S
C339 O351 1.268 . S
O340 Nd320 2.500 . S
O340 C322 1.258 . S
O341 Nd320 2.492 . S
O341 C322 1.239 . S
O342 Nd320 2.487 . S
O342 C329 1.241 . S
O343 Nd320 2.682 . S
O343 Nd321 2.414 . S
O343 C329 1.273 . S
O344 Nd320 2.410 . S
O344 C330 1.251 . S
O345 Nd321 2.424 . S
O345 C330 1.268 . S
O346 Nd321 2.500 . S
O346 C331 1.258 . S
O347 Nd321 2.492 . S
O347 C331 1.239 . S
O348 Nd321 2.487 . S
O348 C338 1.241 . S
O349 Nd320 2.414 . S
O349 Nd321 2.682 . S
O349 C338 1.273 . S
O350 Nd321 2.410 . S
O350 C339 1.251 . S
O351 Nd320 2.424 . S
O351 C339 1.268 . S
H352 C324 0.930 . S
H353 C325 0.929 . S
H354 C327 0.930 . S
H355 C328 0.929 . S
H356 C333 0.930 . S
H357 C334 0.929 . S
H358 C336 0.930 . S
H359 C337 0.929 . S
Nd360 C362 2.836 . S
Nd360 O380 2.500 . S
Nd360 O381 2.492 . S
Nd360 O382 2.487 . S
Nd360 O383 2.682 . S
Nd360 O384 2.410 . S
Nd360 O389 2.414 . S
Nd360 O391 2.424 . S
Nd361 C371 2.836 . S
Nd361 O383 2.414 . S
Nd361 O385 2.424 . S
Nd361 O386 2.500 . S
Nd361 O387 2.492 . S
Nd361 O388 2.487 . S
Nd361 O389 2.682 . S
Nd361 O390 2.410 . S
C362 Nd360 2.836 . S
C362 C363 1.498 . S
C362 O380 1.258 . S
C362 O381 1.239 . S
C363 C362 1.498 . S
C363 C364 1.366 . S
C363 C368 1.407 . S
C364 C363 1.366 . S
C364 C365 1.392 . S
C364 H392 0.930 . S
C365 C364 1.392 . S
C365 C366 1.398 . S
C365 H393 0.929 . S
C366 C365 1.398 . S
C366 C367 1.352 . S
C367 C366 1.352 . S
C367 C368 1.384 . S
C367 H394 0.930 . S
C368 C363 1.407 . S
C368 C367 1.384 . S
C368 H395 0.929 . S
C369 O382 1.241 . S
C369 O383 1.273 . S
C370 O384 1.251 . S
C370 O385 1.268 . S
C371 Nd361 2.836 . S
C371 C372 1.498 . S
C371 O386 1.258 . S
C371 O387 1.239 . S
C372 C371 1.498 . S
C372 C373 1.366 . S
C372 C377 1.407 . S
C373 C372 1.366 . S
C373 C374 1.392 . S
C373 H396 0.930 . S
C374 C373 1.392 . S
C374 C375 1.398 . S
C374 H397 0.929 . S
C375 C374 1.398 . S
C375 C376 1.352 . S
C376 C375 1.352 . S
C376 C377 1.384 . S
C376 H398 0.930 . S
C377 C372 1.407 . S
C377 C376 1.384 . S
C377 H399 0.929 . S
C378 O388 1.241 . S
C378 O389 1.273 . S
C379 O390 1.251 . S
C379 O391 1.268 . S
O380 Nd360 2.500 . S
O380 C362 1.258 . S
O381 Nd360 2.492 . S
O381 C362 1.239 . S
O382 Nd360 2.487 . S
O382 C369 1.241 . S
O383 Nd360 2.682 . S
O383 Nd361 2.414 . S
O383 C369 1.273 . S
O384 Nd360 2.410 . S
O384 C370 1.251 . S
O385 Nd361 2.424 . S
O385 C370 1.268 . S
O386 Nd361 2.500 . S
O386 C371 1.258 . S
O387 Nd361 2.492 . S
O387 C371 1.239 . S
O388 Nd361 2.487 . S
O388 C378 1.241 . S
O389 Nd360 2.414 . S
O389 Nd361 2.682 . S
O389 C378 1.273 . S
O390 Nd361 2.410 . S
O390 C379 1.251 . S
O391 Nd360 2.424 . S
O391 C379 1.268 . S
H392 C364 0.930 . S
H393 C365 0.929 . S
H394 C367 0.930 . S
H395 C368 0.929 . S
H396 C373 0.930 . S
H397 C374 0.929 . S
H398 C376 0.930 . S
H399 C377 0.929 . S
Nd400 C402 2.836 . S
Nd400 O420 2.500 . S
Nd400 O421 2.492 . S
Nd400 O422 2.487 . S
Nd400 O423 2.682 . S
Nd400 O424 2.410 . S
Nd400 O429 2.414 . S
Nd400 O431 2.424 . S
Nd401 C411 2.836 . S
Nd401 O423 2.414 . S
Nd401 O425 2.424 . S
Nd401 O426 2.500 . S
Nd401 O427 2.492 . S
Nd401 O428 2.487 . S
Nd401 O429 2.682 . S
Nd401 O430 2.410 . S
C402 Nd400 2.836 . S
C402 C403 1.498 . S
C402 O420 1.258 . S
C402 O421 1.239 . S
C403 C402 1.498 . S
C403 C404 1.366 . S
C403 C408 1.407 . S
C404 C403 1.366 . S
C404 C405 1.392 . S
C404 H432 0.930 . S
C405 C404 1.392 . S
C405 C406 1.398 . S
C405 H433 0.929 . S
C406 C405 1.398 . S
C406 C407 1.352 . S
C407 C406 1.352 . S
C407 C408 1.384 . S
C407 H434 0.930 . S
C408 C403 1.407 . S
C408 C407 1.384 . S
C408 H435 0.929 . S
C409 O422 1.241 . S
C409 O423 1.273 . S
C410 O424 1.251 . S
C410 O425 1.268 . S
C411 Nd401 2.836 . S
C411 C412 1.498 . S
C411 O426 1.258 . S
C411 O427 1.239 . S
C412 C411 1.498 . S
C412 C413 1.366 . S
C412 C417 1.407 . S
C413 C412 1.366 . S
C413 C414 1.392 . S
C413 H436 0.930 . S
C414 C413 1.392 . S
C414 C415 1.398 . S
C414 H437 0.929 . S
C415 C414 1.398 . S
C415 C416 1.352 . S
C416 C415 1.352 . S
C416 C417 1.384 . S
C416 H438 0.930 . S
C417 C412 1.407 . S
C417 C416 1.384 . S
C417 H439 0.929 . S
C418 O428 1.241 . S
C418 O429 1.273 . S
C419 O430 1.251 . S
C419 O431 1.268 . S
O420 Nd400 2.500 . S
O420 C402 1.258 . S
O421 Nd400 2.492 . S
O421 C402 1.239 . S
O422 Nd400 2.487 . S
O422 C409 1.241 . S
O423 Nd400 2.682 . S
O423 Nd401 2.414 . S
O423 C409 1.273 . S
O424 Nd400 2.410 . S
O424 C410 1.251 . S
O425 Nd401 2.424 . S
O425 C410 1.268 . S
O426 Nd401 2.500 . S
O426 C411 1.258 . S
O427 Nd401 2.492 . S
O427 C411 1.239 . S
O428 Nd401 2.487 . S
O428 C418 1.241 . S
O429 Nd400 2.414 . S
O429 Nd401 2.682 . S
O429 C418 1.273 . S
O430 Nd401 2.410 . S
O430 C419 1.251 . S
O431 Nd400 2.424 . S
O431 C419 1.268 . S
H432 C404 0.930 . S
H433 C405 0.929 . S
H434 C407 0.930 . S
H435 C408 0.929 . S
H436 C413 0.930 . S
H437 C414 0.929 . S
H438 C416 0.930 . S
H439 C417 0.929 . S
Nd440 C442 2.836 . S
Nd440 O460 2.500 . S
Nd440 O461 2.492 . S
Nd440 O462 2.487 . S
Nd440 O463 2.682 . S
Nd440 O464 2.410 . S
Nd440 O469 2.414 . S
Nd440 O471 2.424 . S
Nd441 C451 2.836 . S
Nd441 O463 2.414 . S
Nd441 O465 2.424 . S
Nd441 O466 2.500 . S
Nd441 O467 2.492 . S
Nd441 O468 2.487 . S
Nd441 O469 2.682 . S
Nd441 O470 2.410 . S
C442 Nd440 2.836 . S
C442 C443 1.498 . S
C442 O460 1.258 . S
C442 O461 1.239 . S
C443 C442 1.498 . S
C443 C444 1.366 . S
C443 C448 1.407 . S
C444 C443 1.366 . S
C444 C445 1.392 . S
C444 H472 0.930 . S
C445 C444 1.392 . S
C445 C446 1.398 . S
C445 H473 0.929 . S
C446 C445 1.398 . S
C446 C447 1.352 . S
C447 C446 1.352 . S
C447 C448 1.384 . S
C447 H474 0.930 . S
C448 C443 1.407 . S
C448 C447 1.384 . S
C448 H475 0.929 . S
C449 O462 1.241 . S
C449 O463 1.273 . S
C450 O464 1.251 . S
C450 O465 1.268 . S
C451 Nd441 2.836 . S
C451 C452 1.498 . S
C451 O466 1.258 . S
C451 O467 1.239 . S
C452 C451 1.498 . S
C452 C453 1.366 . S
C452 C457 1.407 . S
C453 C452 1.366 . S
C453 C454 1.392 . S
C453 H476 0.930 . S
C454 C453 1.392 . S
C454 C455 1.398 . S
C454 H477 0.929 . S
C455 C454 1.398 . S
C455 C456 1.352 . S
C456 C455 1.352 . S
C456 C457 1.384 . S
C456 H478 0.930 . S
C457 C452 1.407 . S
C457 C456 1.384 . S
C457 H479 0.929 . S
C458 O468 1.241 . S
C458 O469 1.273 . S
C459 O470 1.251 . S
C459 O471 1.268 . S
O460 Nd440 2.500 . S
O460 C442 1.258 . S
O461 Nd440 2.492 . S
O461 C442 1.239 . S
O462 Nd440 2.487 . S
O462 C449 1.241 . S
O463 Nd440 2.682 . S
O463 Nd441 2.414 . S
O463 C449 1.273 . S
O464 Nd440 2.410 . S
O464 C450 1.251 . S
O465 Nd441 2.424 . S
O465 C450 1.268 . S
O466 Nd441 2.500 . S
O466 C451 1.258 . S
O467 Nd441 2.492 . S
O467 C451 1.239 . S
O468 Nd441 2.487 . S
O468 C458 1.241 . S
O469 Nd440 2.414 . S
O469 Nd441 2.682 . S
O469 C458 1.273 . S
O470 Nd441 2.410 . S
O470 C459 1.251 . S
O471 Nd440 2.424 . S
O471 C459 1.268 . S
H472 C444 0.930 . S
H473 C445 0.929 . S
H474 C447 0.930 . S
H475 C448 0.929 . S
H476 C453 0.930 . S
H477 C454 0.929 . S
H478 C456 0.930 . S
H479 C457 0.929 . S
Nd480 C482 2.836 . S
Nd480 O500 2.500 . S
Nd480 O501 2.492 . S
Nd480 O502 2.487 . S
Nd480 O503 2.682 . S
Nd480 O504 2.410 . S
Nd480 O509 2.414 . S
Nd480 O511 2.424 . S
Nd481 C491 2.836 . S
Nd481 O503 2.414 . S
Nd481 O505 2.424 . S
Nd481 O506 2.500 . S
Nd481 O507 2.492 . S
Nd481 O508 2.487 . S
Nd481 O509 2.682 . S
Nd481 O510 2.410 . S
C482 Nd480 2.836 . S
C482 C483 1.498 . S
C482 O500 1.258 . S
C482 O501 1.239 . S
C483 C482 1.498 . S
C483 C484 1.366 . S
C483 C488 1.407 . S
C484 C483 1.366 . S
C484 C485 1.392 . S
C484 H512 0.930 . S
C485 C484 1.392 . S
C485 C486 1.398 . S
C485 H513 0.929 . S
C486 C485 1.398 . S
C486 C487 1.352 . S
C487 C486 1.352 . S
C487 C488 1.384 . S
C487 H514 0.930 . S
C488 C483 1.407 . S
C488 C487 1.384 . S
C488 H515 0.929 . S
C489 O502 1.241 . S
C489 O503 1.273 . S
C490 O504 1.251 . S
C490 O505 1.268 . S
C491 Nd481 2.836 . S
C491 C492 1.498 . S
C491 O506 1.258 . S
C491 O507 1.239 . S
C492 C491 1.498 . S
C492 C493 1.366 . S
C492 C497 1.407 . S
C493 C492 1.366 . S
C493 C494 1.392 . S
C493 H516 0.930 . S
C494 C493 1.392 . S
C494 C495 1.398 . S
C494 H517 0.929 . S
C495 C494 1.398 . S
C495 C496 1.352 . S
C496 C495 1.352 . S
C496 C497 1.384 . S
C496 H518 0.930 . S
C497 C492 1.407 . S
C497 C496 1.384 . S
C497 H519 0.929 . S
C498 O508 1.241 . S
C498 O509 1.273 . S
C499 O510 1.251 . S
C499 O511 1.268 . S
O500 Nd480 2.500 . S
O500 C482 1.258 . S
O501 Nd480 2.492 . S
O501 C482 1.239 . S
O502 Nd480 2.487 . S
O502 C489 1.241 . S
O503 Nd480 2.682 . S
O503 Nd481 2.414 . S
O503 C489 1.273 . S
O504 Nd480 2.410 . S
O504 C490 1.251 . S
O505 Nd481 2.424 . S
O505 C490 1.268 . S
O506 Nd481 2.500 . S
O506 C491 1.258 . S
O507 Nd481 2.492 . S
O507 C491 1.239 . S
O508 Nd481 2.487 . S
O508 C498 1.241 . S
O509 Nd480 2.414 . S
O509 Nd481 2.682 . S
O509 C498 1.273 . S
O510 Nd481 2.410 . S
O510 C499 1.251 . S
O511 Nd480 2.424 . S
O511 C499 1.268 . S
H512 C484 0.930 . S
H513 C485 0.929 . S
H514 C487 0.930 . S
H515 C488 0.929 . S
H516 C493 0.930 . S
H517 C494 0.929 . S
H518 C496 0.930 . S
H519 C497 0.929 . S
Nd520 C522 2.836 . S
Nd520 O540 2.500 . S
Nd520 O541 2.492 . S
Nd520 O542 2.487 . S
Nd520 O543 2.682 . S
Nd520 O544 2.410 . S
Nd520 O549 2.414 . S
Nd520 O551 2.424 . S
Nd521 C531 2.836 . S
Nd521 O543 2.414 . S
Nd521 O545 2.424 . S
Nd521 O546 2.500 . S
Nd521 O547 2.492 . S
Nd521 O548 2.487 . S
Nd521 O549 2.682 . S
Nd521 O550 2.410 . S
C522 Nd520 2.836 . S
C522 C523 1.498 . S
C522 O540 1.258 . S
C522 O541 1.239 . S
C523 C522 1.498 . S
C523 C524 1.366 . S
C523 C528 1.407 . S
C524 C523 1.366 . S
C524 C525 1.392 . S
C524 H552 0.930 . S
C525 C524 1.392 . S
C525 C526 1.398 . S
C525 H553 0.929 . S
C526 C525 1.398 . S
C526 C527 1.352 . S
C527 C526 1.352 . S
C527 C528 1.384 . S
C527 H554 0.930 . S
C528 C523 1.407 . S
C528 C527 1.384 . S
C528 H555 0.929 . S
C529 O542 1.241 . S
C529 O543 1.273 . S
C530 O544 1.251 . S
C530 O545 1.268 . S
C531 Nd521 2.836 . S
C531 C532 1.498 . S
C531 O546 1.258 . S
C531 O547 1.239 . S
C532 C531 1.498 . S
C532 C533 1.366 . S
C532 C537 1.407 . S
C533 C532 1.366 . S
C533 C534 1.392 . S
C533 H556 0.930 . S
C534 C533 1.392 . S
C534 C535 1.398 . S
C534 H557 0.929 . S
C535 C534 1.398 . S
C535 C536 1.352 . S
C536 C535 1.352 . S
C536 C537 1.384 . S
C536 H558 0.930 . S
C537 C532 1.407 . S
C537 C536 1.384 . S
C537 H559 0.929 . S
C538 O548 1.241 . S
C538 O549 1.273 . S
C539 O550 1.251 . S
C539 O551 1.268 . S
O540 Nd520 2.500 . S
O540 C522 1.258 . S
O541 Nd520 2.492 . S
O541 C522 1.239 . S
O542 Nd520 2.487 . S
O542 C529 1.241 . S
O543 Nd520 2.682 . S
O543 Nd521 2.414 . S
O543 C529 1.273 . S
O544 Nd520 2.410 . S
O544 C530 1.251 . S
O545 Nd521 2.424 . S
O545 C530 1.268 . S
O546 Nd521 2.500 . S
O546 C531 1.258 . S
O547 Nd521 2.492 . S
O547 C531 1.239 . S
O548 Nd521 2.487 . S
O548 C538 1.241 . S
O549 Nd520 2.414 . S
O549 Nd521 2.682 . S
O549 C538 1.273 . S
O550 Nd521 2.410 . S
O550 C539 1.251 . S
O551 Nd520 2.424 . S
O551 C539 1.268 . S
H552 C524 0.930 . S
H553 C525 0.929 . S
H554 C527 0.930 . S
H555 C528 0.929 . S
H556 C533 0.930 . S
H557 C534 0.929 . S
H558 C536 0.930 . S
H559 C537 0.929 . S
Nd560 C562 2.836 . S
Nd560 O580 2.500 . S
Nd560 O581 2.492 . S
Nd560 O582 2.487 . S
Nd560 O583 2.682 . S
Nd560 O584 2.410 . S
Nd560 O589 2.414 . S
Nd560 O591 2.424 . S
Nd561 C571 2.836 . S
Nd561 O583 2.414 . S
Nd561 O585 2.424 . S
Nd561 O586 2.500 . S
Nd561 O587 2.492 . S
Nd561 O588 2.487 . S
Nd561 O589 2.682 . S
Nd561 O590 2.410 . S
C562 Nd560 2.836 . S
C562 C563 1.498 . S
C562 O580 1.258 . S
C562 O581 1.239 . S
C563 C562 1.498 . S
C563 C564 1.366 . S
C563 C568 1.407 . S
C564 C563 1.366 . S
C564 C565 1.392 . S
C564 H592 0.930 . S
C565 C564 1.392 . S
C565 C566 1.398 . S
C565 H593 0.929 . S
C566 C565 1.398 . S
C566 C567 1.352 . S
C567 C566 1.352 . S
C567 C568 1.384 . S
C567 H594 0.930 . S
C568 C563 1.407 . S
C568 C567 1.384 . S
C568 H595 0.929 . S
C569 O582 1.241 . S
C569 O583 1.273 . S
C570 O584 1.251 . S
C570 O585 1.268 . S
C571 Nd561 2.836 . S
C571 C572 1.498 . S
C571 O586 1.258 . S
C571 O587 1.239 . S
C572 C571 1.498 . S
C572 C573 1.366 . S
C572 C577 1.407 . S
C573 C572 1.366 . S
C573 C574 1.392 . S
C573 H596 0.930 . S
C574 C573 1.392 . S
C574 C575 1.398 . S
C574 H597 0.929 . S
C575 C574 1.398 . S
C575 C576 1.352 . S
C576 C575 1.352 . S
C576 C577 1.384 . S
C576 H598 0.930 . S
C577 C572 1.407 . S
C577 C576 1.384 . S
C577 H599 0.929 . S
C578 O588 1.241 . S
C578 O589 1.273 . S
C579 O590 1.251 . S
C579 O591 1.268 . S
O580 Nd560 2.500 . S
O580 C562 1.258 . S
O581 Nd560 2.492 . S
O581 C562 1.239 . S
O582 Nd560 2.487 . S
O582 C569 1.241 . S
O583 Nd560 2.682 . S
O583 Nd561 2.414 . S
O583 C569 1.273 . S
O584 Nd560 2.410 . S
O584 C570 1.251 . S
O585 Nd561 2.424 . S
O585 C570 1.268 . S
O586 Nd561 2.500 . S
O586 C571 1.258 . S
O587 Nd561 2.492 . S
O587 C571 1.239 . S
O588 Nd561 2.487 . S
O588 C578 1.241 . S
O589 Nd560 2.414 . S
O589 Nd561 2.682 . S
O589 C578 1.273 . S
O590 Nd561 2.410 . S
O590 C579 1.251 . S
O591 Nd560 2.424 . S
O591 C579 1.268 . S
H592 C564 0.930 . S
H593 C565 0.929 . S
H594 C567 0.930 . S
H595 C568 0.929 . S
H596 C573 0.930 . S
H597 C574 0.929 . S
H598 C576 0.930 . S
H599 C577 0.929 . S
Nd600 C602 2.836 . S
Nd600 O620 2.500 . S
Nd600 O621 2.492 . S
Nd600 O622 2.487 . S
Nd600 O623 2.682 . S
Nd600 O624 2.410 . S
Nd600 O629 2.414 . S
Nd600 O631 2.424 . S
Nd601 C611 2.836 . S
Nd601 O623 2.414 . S
Nd601 O625 2.424 . S
Nd601 O626 2.500 . S
Nd601 O627 2.492 . S
Nd601 O628 2.487 . S
Nd601 O629 2.682 . S
Nd601 O630 2.410 . S
C602 Nd600 2.836 . S
C602 C603 1.498 . S
C602 O620 1.258 . S
C602 O621 1.239 . S
C603 C602 1.498 . S
C603 C604 1.366 . S
C603 C608 1.407 . S
C604 C603 1.366 . S
C604 C605 1.392 . S
C604 H632 0.930 . S
C605 C604 1.392 . S
C605 C606 1.398 . S
C605 H633 0.929 . S
C606 C605 1.398 . S
C606 C607 1.352 . S
C607 C606 1.352 . S
C607 C608 1.384 . S
C607 H634 0.930 . S
C608 C603 1.407 . S
C608 C607 1.384 . S
C608 H635 0.929 . S
C609 O622 1.241 . S
C609 O623 1.273 . S
C610 O624 1.251 . S
C610 O625 1.268 . S
C611 Nd601 2.836 . S
C611 C612 1.498 . S
C611 O626 1.258 . S
C611 O627 1.239 . S
C612 C611 1.498 . S
C612 C613 1.366 . S
C612 C617 1.407 . S
C613 C612 1.366 . S
C613 C614 1.392 . S
C613 H636 0.930 . S
C614 C613 1.392 . S
C614 C615 1.398 . S
C614 H637 0.929 . S
C615 C614 1.398 . S
C615 C616 1.352 . S
C616 C615 1.352 . S
C616 C617 1.384 . S
C616 H638 0.930 . S
C617 C612 1.407 . S
C617 C616 1.384 . S
C617 H639 0.929 . S
C618 O628 1.241 . S
C618 O629 1.273 . S
C619 O630 1.251 . S
C619 O631 1.268 . S
O620 Nd600 2.500 . S
O620 C602 1.258 . S
O621 Nd600 2.492 . S
O621 C602 1.239 . S
O622 Nd600 2.487 . S
O622 C609 1.241 . S
O623 Nd600 2.682 . S
O623 Nd601 2.414 . S
O623 C609 1.273 . S
O624 Nd600 2.410 . S
O624 C610 1.251 . S
O625 Nd601 2.424 . S
O625 C610 1.268 . S
O626 Nd601 2.500 . S
O626 C611 1.258 . S
O627 Nd601 2.492 . S
O627 C611 1.239 . S
O628 Nd601 2.487 . S
O628 C618 1.241 . S
O629 Nd600 2.414 . S
O629 Nd601 2.682 . S
O629 C618 1.273 . S
O630 Nd601 2.410 . S
O630 C619 1.251 . S
O631 Nd600 2.424 . S
O631 C619 1.268 . S
H632 C604 0.930 . S
H633 C605 0.929 . S
H634 C607 0.930 . S
H635 C608 0.929 . S
H636 C613 0.930 . S
H637 C614 0.929 . S
H638 C616 0.930 . S
H639 C617 0.929 . S
H640 C658 0.961 . S
H641 C660 0.951 . S
H642 C662 0.950 . S
H643 C663 0.950 . S
H644 C665 0.950 . S
H645 C668 0.950 . S
H646 C669 0.950 . S
H647 C671 0.950 . S
H648 C672 0.950 . S
H649 C673 0.951 . S
H650 C675 0.951 . S
H651 C677 0.950 . S
H652 C678 0.950 . S
H653 C680 0.950 . S
H654 C683 0.950 . S
H655 C684 0.950 . S
H656 C686 0.950 . S
H657 C687 0.950 . S
C658 H640 0.961 . S
C658 C659 1.385 . S
C658 C660 1.359 1_565 S
C659 C658 1.385 . S
C659 C663 1.385 . S
C660 H641 0.951 . S
C660 C658 1.359 1_545 S
C660 C661 1.366 . S
C661 C660 1.366 . S
C661 C662 1.414 . S
C661 C664 1.499 . S
C662 H642 0.950 . S
C662 C661 1.414 . S
C662 C663 1.374 1_545 S
C663 H643 0.950 . S
C663 C659 1.385 . S
C663 C662 1.374 1_565 S
C664 C661 1.499 . S
C664 C665 1.373 . S
C664 C666 1.389 . S
C665 H644 0.950 . S
C665 C664 1.373 . S
C665 C681 1.377 . S
C666 C664 1.389 . S
C666 C667 1.524 . S
C666 C680 1.377 . S
C667 C666 1.524 . S
C667 C668 1.397 . S
C667 C672 1.363 . S
C668 H645 0.950 . S
C668 C667 1.397 . S
C668 C669 1.334 . S
C669 H646 0.950 . S
C669 C668 1.334 . S
C669 C670 1.287 . S
C670 C669 1.287 . S
C670 C671 1.524 . S
C670 H689 0.913 . S
C671 H647 0.950 . S
C671 C670 1.524 . S
C671 C672 1.415 . S
C672 H648 0.950 . S
C672 C667 1.363 . S
C672 C671 1.415 . S
C673 H649 0.951 . S
C673 C674 1.366 . S
C673 C675 1.388 . S
C674 C673 1.366 . S
C674 C678 1.385 . S
C675 H650 0.951 . S
C675 C673 1.388 . S
C675 C676 1.366 . S
C676 C675 1.366 . S
C676 C677 1.414 . S
C676 C679 1.499 . S
C677 H651 0.950 . S
C677 C676 1.414 . S
C677 C678 1.374 . S
C678 H652 0.950 . S
C678 C674 1.385 . S
C678 C677 1.374 . S
C679 C676 1.499 . S
C679 C680 1.373 . S
C679 C681 1.389 . S
C680 H653 0.950 . S
C680 C666 1.377 . S
C680 C679 1.373 . S
C681 C665 1.377 . S
C681 C679 1.389 . S
C681 C682 1.524 . S
C682 C681 1.524 . S
C682 C683 1.397 . S
C682 C687 1.363 . S
C683 H654 0.950 . S
C683 C682 1.397 . S
C683 C684 1.334 . S
C684 H655 0.950 . S
C684 C683 1.334 . S
C684 C685 1.287 . S
C685 C684 1.287 . S
C685 C686 1.524 . S
C685 H688 0.999 . S
C686 H656 0.950 . S
C686 C685 1.524 . S
C686 C687 1.415 . S
C687 H657 0.950 . S
C687 C682 1.363 . S
C687 C686 1.415 . S
H688 C685 0.999 . S
H689 C670 0.913 . S
H690 C708 0.967 . S
H691 C710 0.951 . S
H692 C712 0.950 . S
H693 C713 0.950 . S
H694 C715 0.950 . S
H695 C718 0.950 . S
H696 C719 0.950 . S
H697 C721 0.950 . S
H698 C722 0.950 . S
H699 C723 0.951 . S
H700 C725 0.951 . S
H701 C727 0.950 . S
H702 C728 0.950 . S
H703 C730 0.950 . S
H704 C733 0.950 . S
H705 C734 0.950 . S
H706 C736 0.950 . S
H707 C737 0.950 . S
C708 H690 0.967 . S
C708 C709 1.395 . S
C708 C710 1.343 1_655 S
C709 C708 1.395 . S
C709 C713 1.385 . S
C710 H691 0.951 . S
C710 C708 1.343 1_455 S
C710 C711 1.366 . S
C711 C710 1.366 . S
C711 C712 1.414 . S
C711 C714 1.499 . S
C712 H692 0.950 . S
C712 C711 1.414 . S
C712 C713 1.374 1_455 S
C713 H693 0.950 . S
C713 C709 1.385 . S
C713 C712 1.374 1_655 S
C714 C711 1.499 . S
C714 C715 1.373 . S
C714 C716 1.389 . S
C715 H694 0.950 . S
C715 C714 1.373 . S
C715 C731 1.377 . S
C716 C714 1.389 . S
C716 C717 1.524 . S
C716 C730 1.377 . S
C717 C716 1.524 . S
C717 C718 1.397 . S
C717 C722 1.363 . S
C718 H695 0.950 . S
C718 C717 1.397 . S
C718 C719 1.334 . S
C719 H696 0.950 . S
C719 C718 1.334 . S
C719 C720 1.287 . S
C720 C719 1.287 . S
C720 C721 1.524 . S
C720 H739 0.913 . S
C721 H697 0.950 . S
C721 C720 1.524 . S
C721 C722 1.415 . S
C722 H698 0.950 . S
C722 C717 1.363 . S
C722 C721 1.415 . S
C723 H699 0.951 . S
C723 C724 1.366 . S
C723 C725 1.388 . S
C724 C723 1.366 . S
C724 C728 1.385 . S
C725 H700 0.951 . S
C725 C723 1.388 . S
C725 C726 1.366 . S
C726 C725 1.366 . S
C726 C727 1.414 . S
C726 C729 1.499 . S
C727 H701 0.950 . S
C727 C726 1.414 . S
C727 C728 1.374 . S
C728 H702 0.950 . S
C728 C724 1.385 . S
C728 C727 1.374 . S
C729 C726 1.499 . S
C729 C730 1.373 . S
C729 C731 1.389 . S
C730 H703 0.950 . S
C730 C716 1.377 . S
C730 C729 1.373 . S
C731 C715 1.377 . S
C731 C729 1.389 . S
C731 C732 1.524 . S
C732 C731 1.524 . S
C732 C733 1.397 . S
C732 C737 1.363 . S
C733 H704 0.950 . S
C733 C732 1.397 . S
C733 C734 1.334 . S
C734 H705 0.950 . S
C734 C733 1.334 . S
C734 C735 1.287 . S
C735 C734 1.287 . S
C735 C736 1.524 . S
C735 H738 0.999 . S
C736 H706 0.950 . S
C736 C735 1.524 . S
C736 C737 1.415 . S
C737 H707 0.950 . S
C737 C732 1.363 . S
C737 C736 1.415 . S
H738 C735 0.999 . S
H739 C720 0.913 . S
H740 C758 0.951 . S
H741 C760 0.951 . S
H742 C762 0.950 . S
H743 C763 0.950 . S
H744 C765 0.950 . S
H745 C768 0.950 . S
H746 C769 0.950 . S
H747 C771 0.950 . S
H748 C772 0.950 . S
H749 C773 0.951 . S
H750 C775 0.951 . S
H751 C777 0.950 . S
H752 C778 0.987 . S
H753 C780 0.950 . S
H754 C783 0.950 . S
H755 C784 0.950 . S
H756 C786 0.950 . S
H757 C787 0.950 . S
C758 H740 0.951 . S
C758 C759 1.366 . S
C758 C760 1.388 . S
C759 C758 1.366 . S
C759 C763 1.385 . S
C760 H741 0.951 . S
C760 C758 1.388 . S
C760 C761 1.366 . S
C761 C760 1.366 . S
C761 C762 1.414 . S
C761 C764 1.499 . S
C762 H742 0.950 . S
C762 C761 1.414 . S
C762 C763 1.374 . S
C763 H743 0.950 . S
C763 C759 1.385 . S
C763 C762 1.374 . S
C764 C761 1.499 . S
C764 C765 1.373 . S
C764 C766 1.389 . S
C765 H744 0.950 . S
C765 C764 1.373 . S
C765 C781 1.377 . S
C766 C764 1.389 . S
C766 C767 1.524 . S
C766 C780 1.377 . S
C767 C766 1.524 . S
C767 C768 1.397 . S
C767 C772 1.363 . S
C768 H745 0.950 . S
C768 C767 1.397 . S
C768 C769 1.334 . S
C769 H746 0.950 . S
C769 C768 1.334 . S
C769 C770 1.287 . S
C770 C769 1.287 . S
C770 C771 1.524 . S
C770 H789 0.913 . S
C771 H747 0.950 . S
C771 C770 1.524 . S
C771 C772 1.415 . S
C772 H748 0.950 . S
C772 C767 1.363 . S
C772 C771 1.415 . S
C773 H749 0.951 . S
C773 C774 1.366 . S
C773 C775 1.388 1_545 S
C774 C773 1.366 . S
C774 C778 1.439 . S
C775 H750 0.951 . S
C775 C773 1.388 1_565 S
C775 C776 1.366 . S
C776 C775 1.366 . S
C776 C777 1.414 . S
C776 C779 1.499 . S
C777 H751 0.950 . S
C777 C776 1.414 . S
C777 C778 1.287 1_565 S
C778 H752 0.987 . S
C778 C774 1.439 . S
C778 C777 1.287 1_545 S
C779 C776 1.499 . S
C779 C780 1.373 . S
C779 C781 1.389 . S
C780 H753 0.950 . S
C780 C766 1.377 . S
C780 C779 1.373 . S
C781 C765 1.377 . S
C781 C779 1.389 . S
C781 C782 1.524 . S
C782 C781 1.524 . S
C782 C783 1.397 . S
C782 C787 1.363 1_554 S
C783 H754 0.950 . S
C783 C782 1.397 . S
C783 C784 1.334 . S
C784 H755 0.950 . S
C784 C783 1.334 . S
C784 C785 1.287 1_554 S
C785 C784 1.287 1_556 S
C785 C786 1.524 . S
C785 H788 0.999 . S
C786 H756 0.950 . S
C786 C785 1.524 . S
C786 C787 1.415 . S
C787 H757 0.950 . S
C787 C782 1.363 1_556 S
C787 C786 1.415 . S
H788 C785 0.999 . S
H789 C770 0.913 . S
H790 C808 0.951 . S
H791 C810 0.951 . S
H792 C812 0.950 . S
H793 C813 0.950 . S
H794 C815 0.950 . S
H795 C818 0.950 . S
H796 C819 0.950 . S
H797 C821 0.950 . S
H798 C822 0.950 . S
H799 C823 0.949 1_455 S
H800 C825 0.951 . S
H801 C827 0.950 . S
H802 C828 0.950 . S
H803 C830 0.950 . S
H804 C833 0.950 . S
H805 C834 0.950 . S
H806 C836 0.950 . S
H807 C837 0.950 . S
C808 H790 0.951 . S
C808 C809 1.366 . S
C808 C810 1.388 . S
C809 C808 1.366 . S
C809 C813 1.385 . S
C810 H791 0.951 . S
C810 C808 1.388 . S
C810 C811 1.366 . S
C811 C810 1.366 . S
C811 C812 1.414 . S
C811 C814 1.499 . S
C812 H792 0.950 . S
C812 C811 1.414 . S
C812 C813 1.374 . S
C813 H793 0.950 . S
C813 C809 1.385 . S
C813 C812 1.374 . S
C814 C811 1.499 . S
C814 C815 1.373 . S
C814 C816 1.389 . S
C815 H794 0.950 . S
C815 C814 1.373 . S
C815 C831 1.377 . S
C816 C814 1.389 . S
C816 C817 1.524 . S
C816 C830 1.377 . S
C817 C816 1.524 . S
C817 C818 1.397 . S
C817 C822 1.363 . S
C818 H795 0.950 . S
C818 C817 1.397 . S
C818 C819 1.334 . S
C819 H796 0.950 . S
C819 C818 1.334 . S
C819 C820 1.287 . S
C820 C819 1.287 . S
C820 C821 1.524 . S
C820 H839 0.913 . S
C821 H797 0.950 . S
C821 C820 1.524 . S
C821 C822 1.415 . S
C822 H798 0.950 . S
C822 C817 1.363 . S
C822 C821 1.415 . S
C823 H799 0.949 1_655 S
C823 C824 1.362 1_655 S
C823 C825 1.394 . S
C824 C823 1.362 1_455 S
C824 C828 1.385 . S
C825 H800 0.951 . S
C825 C823 1.394 . S
C825 C826 1.366 . S
C826 C825 1.366 . S
C826 C827 1.414 . S
C826 C829 1.499 . S
C827 H801 0.950 . S
C827 C826 1.414 . S
C827 C828 1.374 1_655 S
C828 H802 0.950 . S
C828 C824 1.385 . S
C828 C827 1.374 1_455 S
C829 C826 1.499 . S
C829 C830 1.373 . S
C829 C831 1.389 . S
C830 H803 0.950 . S
C830 C816 1.377 . S
C830 C829 1.373 . S
C831 C815 1.377 . S
C831 C829 1.389 . S
C831 C832 1.524 . S
C832 C831 1.524 . S
C832 C833 1.397 . S
C832 C837 1.363 . S
C833 H804 0.950 . S
C833 C832 1.397 . S
C833 C834 1.334 1_556 S
C834 H805 0.950 . S
C834 C833 1.334 1_554 S
C834 C835 1.287 . S
C835 C834 1.287 . S
C835 C836 1.524 1_554 S
C835 H838 0.999 . S
C836 H806 0.950 . S
C836 C835 1.524 1_556 S
C836 C837 1.415 . S
C837 H807 0.950 . S
C837 C832 1.363 . S
C837 C836 1.415 . S
H838 C835 0.999 . S
H839 C820 0.913 . S
H840 C858 0.951 . S
H841 C860 0.951 . S
H842 C862 0.950 . S
H843 C863 0.950 . S
H844 C865 0.950 . S
H845 C868 0.950 . S
H846 C869 0.950 . S
H847 C871 0.950 . S
H848 C872 0.950 . S
H849 C873 0.951 . S
H850 C875 0.951 . S
H851 C877 0.950 . S
H852 C878 0.950 . S
H853 C880 0.950 . S
H854 C883 0.950 . S
H855 C884 0.950 . S
H856 C886 0.950 . S
H857 C887 0.950 . S
C858 H840 0.951 . S
C858 C859 1.366 . S
C858 C860 1.388 . S
C859 C858 1.366 . S
C859 C863 1.385 . S
C860 H841 0.951 . S
C860 C858 1.388 . S
C860 C861 1.366 . S
C861 C860 1.366 . S
C861 C862 1.414 . S
C861 C864 1.499 . S
C862 H842 0.950 . S
C862 C861 1.414 . S
C862 C863 1.374 . S
C863 H843 0.950 . S
C863 C859 1.385 . S
C863 C862 1.374 . S
C864 C861 1.499 . S
C864 C865 1.373 . S
C864 C866 1.389 . S
C865 H844 0.950 . S
C865 C864 1.373 . S
C865 C881 1.377 . S
C866 C864 1.389 . S
C866 C867 1.524 . S
C866 C880 1.377 . S
C867 C866 1.524 . S
C867 C868 1.397 1_554 S
C867 C872 1.363 . S
C868 H845 0.950 . S
C868 C867 1.397 1_556 S
C868 C869 1.334 . S
C869 H846 0.950 . S
C869 C868 1.334 . S
C869 C870 1.287 . S
C870 C869 1.287 . S
C870 C871 1.524 1_556 S
C870 H889 0.913 . S
C871 H847 0.950 . S
C871 C870 1.524 1_554 S
C871 C872 1.415 . S
C872 H848 0.950 . S
C872 C867 1.363 . S
C872 C871 1.415 . S
C873 H849 0.951 . S
C873 C874 1.366 . S
C873 C875 1.388 . S
C874 C873 1.366 . S
C874 C878 1.385 . S
C875 H850 0.951 . S
C875 C873 1.388 . S
C875 C876 1.366 . S
C876 C875 1.366 . S
C876 C877 1.414 . S
C876 C879 1.499 . S
C877 H851 0.950 . S
C877 C876 1.414 . S
C877 C878 1.374 . S
C878 H852 0.950 . S
C878 C874 1.385 . S
C878 C877 1.374 . S
C879 C876 1.499 . S
C879 C880 1.373 . S
C879 C881 1.389 . S
C880 H853 0.950 . S
C880 C866 1.377 . S
C880 C879 1.373 . S
C881 C865 1.377 . S
C881 C879 1.389 . S
C881 C882 1.524 . S
C882 C881 1.524 . S
C882 C883 1.397 . S
C882 C887 1.363 . S
C883 H854 0.950 . S
C883 C882 1.397 . S
C883 C884 1.334 . S
C884 H855 0.950 . S
C884 C883 1.334 . S
C884 C885 1.287 . S
C885 C884 1.287 . S
C885 C886 1.524 . S
C885 H888 0.999 . S
C886 H856 0.950 . S
C886 C885 1.524 . S
C886 C887 1.415 . S
C887 H857 0.950 . S
C887 C882 1.363 . S
C887 C886 1.415 . S
H888 C885 0.999 . S
H889 C870 0.913 . S
H890 C908 0.951 . S
H891 C910 0.951 . S
H892 C912 0.950 . S
H893 C913 0.950 . S
H894 C915 0.950 . S
H895 C918 0.950 . S
H896 C919 0.950 . S
H897 C921 0.950 . S
H898 C922 0.950 . S
H899 C923 0.951 . S
H900 C925 0.951 . S
H901 C927 0.950 . S
H902 C928 0.950 . S
H903 C930 0.950 . S
H904 C933 0.950 . S
H905 C934 0.950 . S
H906 C936 0.950 . S
H907 C937 0.950 1_556 S
C908 H890 0.951 . S
C908 C909 1.366 . S
C908 C910 1.388 . S
C909 C908 1.366 . S
C909 C913 1.385 . S
C910 H891 0.951 . S
C910 C908 1.388 . S
C910 C911 1.366 . S
C911 C910 1.366 . S
C911 C912 1.414 . S
C911 C914 1.499 . S
C912 H892 0.950 . S
C912 C911 1.414 . S
C912 C913 1.374 . S
C913 H893 0.950 . S
C913 C909 1.385 . S
C913 C912 1.374 . S
C914 C911 1.499 . S
C914 C915 1.373 . S
C914 C916 1.389 . S
C915 H894 0.950 . S
C915 C914 1.373 . S
C915 C931 1.377 . S
C916 C914 1.389 . S
C916 C917 1.524 . S
C916 C930 1.377 . S
C917 C916 1.524 . S
C917 C918 1.397 . S
C917 C922 1.363 . S
C918 H895 0.950 . S
C918 C917 1.397 . S
C918 C919 1.334 . S
C919 H896 0.950 . S
C919 C918 1.334 . S
C919 C920 1.287 . S
C920 C919 1.287 . S
C920 C921 1.524 . S
C920 H939 0.913 . S
C921 H897 0.950 . S
C921 C920 1.524 . S
C921 C922 1.415 . S
C922 H898 0.950 . S
C922 C917 1.363 . S
C922 C921 1.415 . S
C923 H899 0.951 . S
C923 C924 1.366 . S
C923 C925 1.388 . S
C924 C923 1.366 . S
C924 C928 1.385 . S
C925 H900 0.951 . S
C925 C923 1.388 . S
C925 C926 1.366 . S
C926 C925 1.366 . S
C926 C927 1.414 . S
C926 C929 1.499 . S
C927 H901 0.950 . S
C927 C926 1.414 . S
C927 C928 1.374 . S
C928 H902 0.950 . S
C928 C924 1.385 . S
C928 C927 1.374 . S
C929 C926 1.499 . S
C929 C930 1.373 . S
C929 C931 1.389 . S
C930 H903 0.950 . S
C930 C916 1.377 . S
C930 C929 1.373 . S
C931 C915 1.377 . S
C931 C929 1.389 . S
C931 C932 1.532 . S
C932 C931 1.532 . S
C932 C933 1.390 1_556 S
C932 C937 1.362 1_556 S
C933 H904 0.950 . S
C933 C932 1.390 1_554 S
C933 C934 1.334 . S
C934 H905 0.950 . S
C934 C933 1.334 . S
C934 C935 1.287 . S
C935 C934 1.287 . S
C935 C936 1.524 . S
C935 H938 0.999 . S
C936 H906 0.950 . S
C936 C935 1.524 . S
C936 C937 1.415 . S
C937 H907 0.950 1_554 S
C937 C932 1.362 1_554 S
C937 C936 1.415 . S
H938 C935 0.999 . S
H939 C920 0.913 . S
H940 C958 0.951 . S
H941 C960 0.951 . S
H942 C962 0.950 . S
H943 C963 0.950 . S
H944 C965 0.950 . S
H945 C968 0.950 . S
H946 C969 0.950 . S
H947 C971 0.950 . S
H948 C972 0.950 1_554 S
H949 C973 0.951 . S
H950 C975 0.951 . S
H951 C977 0.950 . S
H952 C978 0.950 . S
H953 C980 0.950 . S
H954 C983 0.950 . S
H955 C984 0.950 . S
H956 C986 0.950 . S
H957 C987 0.950 . S
C958 H940 0.951 . S
C958 C959 1.366 . S
C958 C960 1.388 . S
C959 C958 1.366 . S
C959 C963 1.385 . S
C960 H941 0.951 . S
C960 C958 1.388 . S
C960 C961 1.366 . S
C961 C960 1.366 . S
C961 C962 1.414 . S
C961 C964 1.499 . S
C962 H942 0.950 . S
C962 C961 1.414 . S
C962 C963 1.374 . S
C963 H943 0.950 . S
C963 C959 1.385 . S
C963 C962 1.374 . S
C964 C961 1.499 . S
C964 C965 1.373 . S
C964 C966 1.389 . S
C965 H944 0.950 . S
C965 C964 1.373 . S
C965 C981 1.377 . S
C966 C964 1.389 . S
C966 C967 1.524 . S
C966 C980 1.377 . S
C967 C966 1.524 . S
C967 C968 1.397 1_554 S
C967 C972 1.363 1_554 S
C968 H945 0.950 . S
C968 C967 1.397 1_556 S
C968 C969 1.334 . S
C969 H946 0.950 . S
C969 C968 1.334 . S
C969 C970 1.287 . S
C970 C969 1.287 . S
C970 C971 1.524 . S
C970 H989 0.913 . S
C971 H947 0.950 . S
C971 C970 1.524 . S
C971 C972 1.415 . S
C972 H948 0.950 1_556 S
C972 C967 1.363 1_556 S
C972 C971 1.415 . S
C973 H949 0.951 . S
C973 C974 1.366 . S
C973 C975 1.388 . S
C974 C973 1.366 . S
C974 C978 1.385 . S
C975 H950 0.951 . S
C975 C973 1.388 . S
C975 C976 1.366 . S
C976 C975 1.366 . S
C976 C977 1.414 . S
C976 C979 1.499 . S
C977 H951 0.950 . S
C977 C976 1.414 . S
C977 C978 1.374 . S
C978 H952 0.950 . S
C978 C974 1.385 . S
C978 C977 1.374 . S
C979 C976 1.499 . S
C979 C980 1.373 . S
C979 C981 1.389 . S
C980 H953 0.950 . S
C980 C966 1.377 . S
C980 C979 1.373 . S
C981 C965 1.377 . S
C981 C979 1.389 . S
C981 C982 1.524 . S
C982 C981 1.524 . S
C982 C983 1.397 . S
C982 C987 1.363 . S
C983 H954 0.950 . S
C983 C982 1.397 . S
C983 C984 1.334 . S
C984 H955 0.950 . S
C984 C983 1.334 . S
C984 C985 1.287 . S
C985 C984 1.287 . S
C985 C986 1.524 . S
C985 H988 0.999 . S
C986 H956 0.950 . S
C986 C985 1.524 . S
C986 C987 1.415 . S
C987 H957 0.950 . S
C987 C982 1.363 . S
C987 C986 1.415 . S
H988 C985 0.999 . S
H989 C970 0.913 . S
H990 C1008 0.951 . S
H991 C1010 0.951 . S
H992 C1012 0.950 . S
H993 C1013 0.950 . S
H994 C1015 0.950 1_554 S
H995 C1018 0.950 . S
H996 C1019 0.950 . S
H997 C1021 0.950 . S
H998 C1022 0.950 . S
H999 C1023 0.951 . S
H1000 C1025 0.951 . S
H1001 C1027 0.950 . S
H1002 C1028 0.950 . S
H1003 C1030 0.950 . S
H1004 C1033 0.950 . S
H1005 C1034 0.950 . S
H1006 C1036 0.950 . S
H1007 C1037 0.950 . S
C1008 H990 0.951 . S
C1008 C1009 1.366 . S
C1008 C1010 1.388 . S
C1009 C1008 1.366 . S
C1009 C1013 1.385 . S
C1010 H991 0.951 . S
C1010 C1008 1.388 . S
C1010 C1011 1.366 . S
C1011 C1010 1.366 . S
C1011 C1012 1.414 . S
C1011 C1014 1.499 . S
C1012 H992 0.950 . S
C1012 C1011 1.414 . S
C1012 C1013 1.374 . S
C1013 H993 0.950 . S
C1013 C1009 1.385 . S
C1013 C1012 1.374 . S
C1014 C1011 1.499 . S
C1014 C1015 1.373 . S
C1014 C1016 1.389 . S
C1015 H994 0.950 1_556 S
C1015 C1014 1.373 . S
C1015 C1031 1.377 . S
C1016 C1014 1.389 . S
C1016 C1017 1.524 . S
C1016 C1030 1.377 . S
C1017 C1016 1.524 . S
C1017 C1018 1.397 . S
C1017 C1022 1.363 . S
C1018 H995 0.950 . S
C1018 C1017 1.397 . S
C1018 C1019 1.334 . S
C1019 H996 0.950 . S
C1019 C1018 1.334 . S
C1019 C1020 1.287 . S
C1020 C1019 1.287 . S
C1020 C1021 1.524 . S
C1020 H1039 0.913 . S
C1021 H997 0.950 . S
C1021 C1020 1.524 . S
C1021 C1022 1.415 . S
C1022 H998 0.950 . S
C1022 C1017 1.363 . S
C1022 C1021 1.415 . S
C1023 H999 0.951 . S
C1023 C1024 1.366 . S
C1023 C1025 1.388 . S
C1024 C1023 1.366 . S
C1024 C1028 1.385 . S
C1025 H1000 0.951 . S
C1025 C1023 1.388 . S
C1025 C1026 1.366 . S
C1026 C1025 1.366 . S
C1026 C1027 1.414 . S
C1026 C1029 1.499 . S
C1027 H1001 0.950 . S
C1027 C1026 1.414 . S
C1027 C1028 1.374 . S
C1028 H1002 0.950 . S
C1028 C1024 1.385 . S
C1028 C1027 1.374 . S
C1029 C1026 1.499 . S
C1029 C1030 1.373 . S
C1029 C1031 1.389 . S
C1030 H1003 0.950 . S
C1030 C1016 1.377 . S
C1030 C1029 1.373 . S
C1031 C1015 1.377 . S
C1031 C1029 1.389 . S
C1031 C1032 1.524 1_556 S
C1032 C1031 1.524 1_554 S
C1032 C1033 1.397 . S
C1032 C1037 1.363 . S
C1033 H1004 0.950 . S
C1033 C1032 1.397 . S
C1033 C1034 1.334 . S
C1034 H1005 0.950 . S
C1034 C1033 1.334 . S
C1034 C1035 1.287 . S
C1035 C1034 1.287 . S
C1035 C1036 1.524 . S
C1035 H1038 0.999 . S
C1036 H1006 0.950 . S
C1036 C1035 1.524 . S
C1036 C1037 1.415 . S
C1037 H1007 0.950 . S
C1037 C1032 1.363 . S
C1037 C1036 1.415 . S
H1038 C1035 0.999 . S
H1039 C1020 0.913 . S
H1040 C1058 0.951 . S
H1041 C1060 0.951 . S
H1042 C1062 0.950 . S
H1043 C1063 0.950 . S
H1044 C1065 0.950 . S
H1045 C1068 0.950 . S
H1046 C1069 0.950 . S
H1047 C1071 0.950 . S
H1048 C1072 0.950 . S
H1049 C1073 0.951 . S
H1050 C1075 0.951 . S
H1051 C1077 0.950 . S
H1052 C1078 0.950 . S
H1053 C1080 0.950 . S
H1054 C1083 0.950 . S
H1055 C1084 0.950 . S
H1056 C1086 0.950 . S
H1057 C1087 0.950 . S
C1058 H1040 0.951 . S
C1058 C1059 1.366 . S
C1058 C1060 1.388 . S
C1059 C1058 1.366 . S
C1059 C1063 1.385 . S
C1060 H1041 0.951 . S
C1060 C1058 1.388 . S
C1060 C1061 1.366 . S
C1061 C1060 1.366 . S
C1061 C1062 1.414 . S
C1061 C1064 1.499 . S
C1062 H1042 0.950 . S
C1062 C1061 1.414 . S
C1062 C1063 1.374 . S
C1063 H1043 0.950 . S
C1063 C1059 1.385 . S
C1063 C1062 1.374 . S
C1064 C1061 1.499 . S
C1064 C1065 1.373 . S
C1064 C1066 1.389 . S
C1065 H1044 0.950 . S
C1065 C1064 1.373 . S
C1065 C1081 1.377 . S
C1066 C1064 1.389 . S
C1066 C1067 1.524 . S
C1066 C1080 1.377 . S
C1067 C1066 1.524 . S
C1067 C1068 1.397 . S
C1067 C1072 1.363 . S
C1068 H1045 0.950 . S
C1068 C1067 1.397 . S
C1068 C1069 1.334 . S
C1069 H1046 0.950 . S
C1069 C1068 1.334 . S
C1069 C1070 1.287 . S
C1070 C1069 1.287 . S
C1070 C1071 1.524 . S
C1070 H1089 0.913 . S
C1071 H1047 0.950 . S
C1071 C1070 1.524 . S
C1071 C1072 1.415 . S
C1072 H1048 0.950 . S
C1072 C1067 1.363 . S
C1072 C1071 1.415 . S
C1073 H1049 0.951 . S
C1073 C1074 1.366 . S
C1073 C1075 1.388 . S
C1074 C1073 1.366 . S
C1074 C1078 1.385 . S
C1075 H1050 0.951 . S
C1075 C1073 1.388 . S
C1075 C1076 1.366 . S
C1076 C1075 1.366 . S
C1076 C1077 1.414 . S
C1076 C1079 1.499 . S
C1077 H1051 0.950 . S
C1077 C1076 1.414 . S
C1077 C1078 1.374 . S
C1078 H1052 0.950 . S
C1078 C1074 1.385 . S
C1078 C1077 1.374 . S
C1079 C1076 1.499 . S
C1079 C1080 1.373 . S
C1079 C1081 1.389 . S
C1080 H1053 0.950 . S
C1080 C1066 1.377 . S
C1080 C1079 1.373 . S
C1081 C1065 1.377 . S
C1081 C1079 1.389 . S
C1081 C1082 1.524 . S
C1082 C1081 1.524 . S
C1082 C1083 1.397 . S
C1082 C1087 1.363 . S
C1083 H1054 0.950 . S
C1083 C1082 1.397 . S
C1083 C1084 1.334 . S
C1084 H1055 0.950 . S
C1084 C1083 1.334 . S
C1084 C1085 1.287 . S
C1085 C1084 1.287 . S
C1085 C1086 1.524 . S
C1085 H1088 0.999 . S
C1086 H1056 0.950 . S
C1086 C1085 1.524 . S
C1086 C1087 1.415 . S
C1087 H1057 0.950 . S
C1087 C1082 1.363 . S
C1087 C1086 1.415 . S
H1088 C1085 0.999 . S
H1089 C1070 0.913 . S
H1090 C1108 0.951 . S
H1091 C1110 0.951 . S
H1092 C1112 0.950 . S
H1093 C1113 0.950 . S
H1094 C1115 0.950 . S
H1095 C1118 0.950 . S
H1096 C1119 0.950 . S
H1097 C1121 0.950 . S
H1098 C1122 0.950 . S
H1099 C1123 0.951 . S
H1100 C1125 0.951 . S
H1101 C1127 0.950 . S
H1102 C1128 0.950 . S
H1103 C1130 0.950 . S
H1104 C1133 0.950 . S
H1105 C1134 0.950 . S
H1106 C1136 0.950 . S
H1107 C1137 0.950 . S
C1108 H1090 0.951 . S
C1108 C1109 1.366 . S
C1108 C1110 1.388 . S
C1109 C1108 1.366 . S
C1109 C1113 1.385 . S
C1110 H1091 0.951 . S
C1110 C1108 1.388 . S
C1110 C1111 1.366 . S
C1111 C1110 1.366 . S
C1111 C1112 1.414 . S
C1111 C1114 1.499 . S
C1112 H1092 0.950 . S
C1112 C1111 1.414 . S
C1112 C1113 1.374 . S
C1113 H1093 0.950 . S
C1113 C1109 1.385 . S
C1113 C1112 1.374 . S
C1114 C1111 1.499 . S
C1114 C1115 1.373 . S
C1114 C1116 1.389 . S
C1115 H1094 0.950 . S
C1115 C1114 1.373 . S
C1115 C1131 1.377 . S
C1116 C1114 1.389 . S
C1116 C1117 1.524 . S
C1116 C1130 1.377 . S
C1117 C1116 1.524 . S
C1117 C1118 1.397 . S
C1117 C1122 1.363 . S
C1118 H1095 0.950 . S
C1118 C1117 1.397 . S
C1118 C1119 1.334 . S
C1119 H1096 0.950 . S
C1119 C1118 1.334 . S
C1119 C1120 1.287 . S
C1120 C1119 1.287 . S
C1120 C1121 1.524 . S
C1120 H1139 0.913 . S
C1121 H1097 0.950 . S
C1121 C1120 1.524 . S
C1121 C1122 1.415 . S
C1122 H1098 0.950 . S
C1122 C1117 1.363 . S
C1122 C1121 1.415 . S
C1123 H1099 0.951 . S
C1123 C1124 1.366 . S
C1123 C1125 1.388 . S
C1124 C1123 1.366 . S
C1124 C1128 1.385 . S
C1125 H1100 0.951 . S
C1125 C1123 1.388 . S
C1125 C1126 1.366 . S
C1126 C1125 1.366 . S
C1126 C1127 1.414 . S
C1126 C1129 1.499 . S
C1127 H1101 0.950 . S
C1127 C1126 1.414 . S
C1127 C1128 1.374 . S
C1128 H1102 0.950 . S
C1128 C1124 1.385 . S
C1128 C1127 1.374 . S
C1129 C1126 1.499 . S
C1129 C1130 1.373 . S
C1129 C1131 1.389 . S
C1130 H1103 0.950 . S
C1130 C1116 1.377 . S
C1130 C1129 1.373 . S
C1131 C1115 1.377 . S
C1131 C1129 1.389 . S
C1131 C1132 1.524 . S
C1132 C1131 1.524 . S
C1132 C1133 1.397 . S
C1132 C1137 1.363 . S
C1133 H1104 0.950 . S
C1133 C1132 1.397 . S
C1133 C1134 1.334 . S
C1134 H1105 0.950 . S
C1134 C1133 1.334 . S
C1134 C1135 1.287 . S
C1135 C1134 1.287 . S
C1135 C1136 1.524 . S
C1135 H1138 0.999 . S
C1136 H1106 0.950 . S
C1136 C1135 1.524 . S
C1136 C1137 1.415 . S
C1137 H1107 0.950 . S
C1137 C1132 1.363 . S
C1137 C1136 1.415 . S
H1138 C1135 0.999 . S
H1139 C1120 0.913 . S
H1140 C1158 0.951 . S
H1141 C1160 0.951 . S
H1142 C1162 0.950 . S
H1143 C1163 0.950 . S
H1144 C1165 0.950 . S
H1145 C1168 0.950 . S
H1146 C1169 0.950 . S
H1147 C1171 0.950 . S
H1148 C1172 0.950 . S
H1149 C1173 0.951 . S
H1150 C1175 0.951 . S
H1151 C1177 0.950 . S
H1152 C1178 0.950 . S
H1153 C1180 0.950 . S
H1154 C1183 0.950 . S
H1155 C1184 0.950 . S
H1156 C1186 0.950 . S
H1157 C1187 0.950 . S
C1158 H1140 0.951 . S
C1158 C1159 1.366 . S
C1158 C1160 1.388 . S
C1159 C1158 1.366 . S
C1159 C1163 1.385 . S
C1160 H1141 0.951 . S
C1160 C1158 1.388 . S
C1160 C1161 1.366 . S
C1161 C1160 1.366 . S
C1161 C1162 1.414 . S
C1161 C1164 1.499 . S
C1162 H1142 0.950 . S
C1162 C1161 1.414 . S
C1162 C1163 1.374 . S
C1163 H1143 0.950 . S
C1163 C1159 1.385 . S
C1163 C1162 1.374 . S
C1164 C1161 1.499 . S
C1164 C1165 1.373 . S
C1164 C1166 1.389 . S
C1165 H1144 0.950 . S
C1165 C1164 1.373 . S
C1165 C1181 1.377 . S
C1166 C1164 1.389 . S
C1166 C1167 1.524 . S
C1166 C1180 1.377 . S
C1167 C1166 1.524 . S
C1167 C1168 1.397 . S
C1167 C1172 1.363 . S
C1168 H1145 0.950 . S
C1168 C1167 1.397 . S
C1168 C1169 1.334 . S
C1169 H1146 0.950 . S
C1169 C1168 1.334 . S
C1169 C1170 1.287 . S
C1170 C1169 1.287 . S
C1170 C1171 1.524 . S
C1170 H1189 0.913 . S
C1171 H1147 0.950 . S
C1171 C1170 1.524 . S
C1171 C1172 1.415 . S
C1172 H1148 0.950 . S
C1172 C1167 1.363 . S
C1172 C1171 1.415 . S
C1173 H1149 0.951 . S
C1173 C1174 1.366 . S
C1173 C1175 1.388 . S
C1174 C1173 1.366 . S
C1174 C1178 1.385 . S
C1175 H1150 0.951 . S
C1175 C1173 1.388 . S
C1175 C1176 1.366 . S
C1176 C1175 1.366 . S
C1176 C1177 1.414 . S
C1176 C1179 1.499 . S
C1177 H1151 0.950 . S
C1177 C1176 1.414 . S
C1177 C1178 1.374 . S
C1178 H1152 0.950 . S
C1178 C1174 1.385 . S
C1178 C1177 1.374 . S
C1179 C1176 1.499 . S
C1179 C1180 1.373 . S
C1179 C1181 1.389 . S
C1180 H1153 0.950 . S
C1180 C1166 1.377 . S
C1180 C1179 1.373 . S
C1181 C1165 1.377 . S
C1181 C1179 1.389 . S
C1181 C1182 1.524 . S
C1182 C1181 1.524 . S
C1182 C1183 1.397 . S
C1182 C1187 1.363 . S
C1183 H1154 0.950 . S
C1183 C1182 1.397 . S
C1183 C1184 1.334 . S
C1184 H1155 0.950 . S
C1184 C1183 1.334 . S
C1184 C1185 1.287 . S
C1185 C1184 1.287 . S
C1185 C1186 1.524 . S
C1185 H1188 0.999 . S
C1186 H1156 0.950 . S
C1186 C1185 1.524 . S
C1186 C1187 1.415 . S
C1187 H1157 0.950 . S
C1187 C1182 1.363 . S
C1187 C1186 1.415 . S
H1188 C1185 0.999 . S
H1189 C1170 0.913 . S
H1190 C1208 0.951 . S
H1191 C1210 0.951 . S
H1192 C1212 0.950 . S
H1193 C1213 0.950 . S
H1194 C1215 0.950 . S
H1195 C1218 0.950 . S
H1196 C1219 0.950 . S
H1197 C1221 0.950 . S
H1198 C1222 0.950 . S
H1199 C1223 0.951 . S
H1200 C1225 0.951 . S
H1201 C1227 0.950 . S
H1202 C1228 0.950 . S
H1203 C1230 0.950 . S
H1204 C1233 0.950 . S
H1205 C1234 0.950 . S
H1206 C1236 0.950 . S
H1207 C1237 0.950 . S
C1208 H1190 0.951 . S
C1208 C1209 1.366 . S
C1208 C1210 1.388 . S
C1209 C1208 1.366 . S
C1209 C1213 1.385 . S
C1210 H1191 0.951 . S
C1210 C1208 1.388 . S
C1210 C1211 1.366 . S
C1211 C1210 1.366 . S
C1211 C1212 1.414 . S
C1211 C1214 1.499 . S
C1212 H1192 0.950 . S
C1212 C1211 1.414 . S
C1212 C1213 1.374 . S
C1213 H1193 0.950 . S
C1213 C1209 1.385 . S
C1213 C1212 1.374 . S
C1214 C1211 1.499 . S
C1214 C1215 1.373 . S
C1214 C1216 1.389 . S
C1215 H1194 0.950 . S
C1215 C1214 1.373 . S
C1215 C1231 1.377 . S
C1216 C1214 1.389 . S
C1216 C1217 1.524 . S
C1216 C1230 1.377 . S
C1217 C1216 1.524 . S
C1217 C1218 1.397 . S
C1217 C1222 1.363 . S
C1218 H1195 0.950 . S
C1218 C1217 1.397 . S
C1218 C1219 1.334 . S
C1219 H1196 0.950 . S
C1219 C1218 1.334 . S
C1219 C1220 1.287 . S
C1220 C1219 1.287 . S
C1220 C1221 1.524 . S
C1220 H1239 0.913 . S
C1221 H1197 0.950 . S
C1221 C1220 1.524 . S
C1221 C1222 1.415 . S
C1222 H1198 0.950 . S
C1222 C1217 1.363 . S
C1222 C1221 1.415 . S
C1223 H1199 0.951 . S
C1223 C1224 1.366 . S
C1223 C1225 1.388 . S
C1224 C1223 1.366 . S
C1224 C1228 1.385 . S
C1225 H1200 0.951 . S
C1225 C1223 1.388 . S
C1225 C1226 1.366 . S
C1226 C1225 1.366 . S
C1226 C1227 1.414 . S
C1226 C1229 1.499 . S
C1227 H1201 0.950 . S
C1227 C1226 1.414 . S
C1227 C1228 1.374 . S
C1228 H1202 0.950 . S
C1228 C1224 1.385 . S
C1228 C1227 1.374 . S
C1229 C1226 1.499 . S
C1229 C1230 1.373 . S
C1229 C1231 1.389 . S
C1230 H1203 0.950 . S
C1230 C1216 1.377 . S
C1230 C1229 1.373 . S
C1231 C1215 1.377 . S
C1231 C1229 1.389 . S
C1231 C1232 1.524 . S
C1232 C1231 1.524 . S
C1232 C1233 1.397 . S
C1232 C1237 1.363 . S
C1233 H1204 0.950 . S
C1233 C1232 1.397 . S
C1233 C1234 1.334 . S
C1234 H1205 0.950 . S
C1234 C1233 1.334 . S
C1234 C1235 1.287 . S
C1235 C1234 1.287 . S
C1235 C1236 1.524 . S
C1235 H1238 0.999 . S
C1236 H1206 0.950 . S
C1236 C1235 1.524 . S
C1236 C1237 1.415 . S
C1237 H1207 0.950 . S
C1237 C1232 1.363 . S
C1237 C1236 1.415 . S
H1238 C1235 0.999 . S
H1239 C1220 0.913 . S
H1240 C1258 0.951 . S
H1241 C1260 0.951 . S
H1242 C1262 0.950 . S
H1243 C1263 0.950 . S
H1244 C1265 0.950 . S
H1245 C1268 0.950 . S
H1246 C1269 0.950 . S
H1247 C1271 0.950 . S
H1248 C1272 0.950 . S
H1249 C1273 0.951 . S
H1250 C1275 0.951 . S
H1251 C1277 0.950 . S
H1252 C1278 0.975 . S
H1253 C1280 0.950 . S
H1254 C1283 0.950 . S
H1255 C1284 0.950 . S
H1256 C1286 0.950 . S
H1257 C1287 0.950 . S
C1258 H1240 0.951 . S
C1258 C1259 1.366 . S
C1258 C1260 1.388 . S
C1259 C1258 1.366 . S
C1259 C1263 1.385 . S
C1260 H1241 0.951 . S
C1260 C1258 1.388 . S
C1260 C1261 1.366 . S
C1261 C1260 1.366 . S
C1261 C1262 1.414 . S
C1261 C1264 1.499 . S
C1262 H1242 0.950 . S
C1262 C1261 1.414 . S
C1262 C1263 1.374 . S
C1263 H1243 0.950 . S
C1263 C1259 1.385 . S
C1263 C1262 1.374 . S
C1264 C1261 1.499 . S
C1264 C1265 1.373 . S
C1264 C1266 1.389 . S
C1265 H1244 0.950 . S
C1265 C1264 1.373 . S
C1265 C1281 1.377 . S
C1266 C1264 1.389 . S
C1266 C1267 1.524 . S
C1266 C1280 1.377 . S
C1267 C1266 1.524 . S
C1267 C1268 1.397 . S
C1267 C1272 1.363 . S
C1268 H1245 0.950 . S
C1268 C1267 1.397 . S
C1268 C1269 1.334 . S
C1269 H1246 0.950 . S
C1269 C1268 1.334 . S
C1269 C1270 1.287 . S
C1270 C1269 1.287 . S
C1270 C1271 1.524 . S
C1270 H1289 0.913 . S
C1271 H1247 0.950 . S
C1271 C1270 1.524 . S
C1271 C1272 1.415 . S
C1272 H1248 0.950 . S
C1272 C1267 1.363 . S
C1272 C1271 1.415 . S
C1273 H1249 0.951 . S
C1273 C1274 1.366 . S
C1273 C1275 1.388 1_545 S
C1274 C1273 1.366 . S
C1274 C1278 1.424 . S
C1275 H1250 0.951 . S
C1275 C1273 1.388 1_565 S
C1275 C1276 1.366 . S
C1276 C1275 1.366 . S
C1276 C1277 1.414 . S
C1276 C1279 1.499 . S
C1277 H1251 0.950 . S
C1277 C1276 1.414 . S
C1277 C1278 1.312 1_565 S
C1278 H1252 0.975 . S
C1278 C1274 1.424 . S
C1278 C1277 1.312 1_545 S
C1279 C1276 1.499 . S
C1279 C1280 1.373 . S
C1279 C1281 1.389 . S
C1280 H1253 0.950 . S
C1280 C1266 1.377 . S
C1280 C1279 1.373 . S
C1281 C1265 1.377 . S
C1281 C1279 1.389 . S
C1281 C1282 1.524 . S
C1282 C1281 1.524 . S
C1282 C1283 1.397 . S
C1282 C1287 1.363 . S
C1283 H1254 0.950 . S
C1283 C1282 1.397 . S
C1283 C1284 1.334 . S
C1284 H1255 0.950 . S
C1284 C1283 1.334 . S
C1284 C1285 1.287 . S
C1285 C1284 1.287 . S
C1285 C1286 1.524 . S
C1285 H1288 0.999 . S
C1286 H1256 0.950 . S
C1286 C1285 1.524 . S
C1286 C1287 1.415 . S
C1287 H1257 0.950 . S
C1287 C1282 1.363 . S
C1287 C1286 1.415 . S
H1288 C1285 0.999 . S
H1289 C1270 0.913 . S
H1290 C1308 0.951 . S
H1291 C1310 0.951 . S
H1292 C1312 0.950 . S
H1293 C1313 0.950 . S
H1294 C1315 0.950 . S
H1295 C1318 0.950 . S
H1296 C1319 0.950 . S
H1297 C1321 0.950 . S
H1298 C1322 0.950 . S
H1299 C1323 0.951 . S
H1300 C1325 0.951 . S
H1301 C1327 0.950 . S
H1302 C1328 0.950 . S
H1303 C1330 0.950 . S
H1304 C1333 0.950 . S
H1305 C1334 0.950 . S
H1306 C1336 0.950 . S
H1307 C1337 0.950 . S
C1308 H1290 0.951 . S
C1308 C1309 1.366 . S
C1308 C1310 1.388 1_455 S
C1309 C1308 1.366 . S
C1309 C1313 1.384 . S
C1310 H1291 0.951 . S
C1310 C1308 1.388 1_655 S
C1310 C1311 1.366 . S
C1311 C1310 1.366 . S
C1311 C1312 1.414 . S
C1311 C1314 1.499 . S
C1312 H1292 0.950 . S
C1312 C1311 1.414 . S
C1312 C1313 1.375 1_655 S
C1313 H1293 0.950 . S
C1313 C1309 1.384 . S
C1313 C1312 1.375 1_455 S
C1314 C1311 1.499 . S
C1314 C1315 1.373 . S
C1314 C1316 1.389 . S
C1315 H1294 0.950 . S
C1315 C1314 1.373 . S
C1315 C1331 1.377 . S
C1316 C1314 1.389 . S
C1316 C1317 1.524 . S
C1316 C1330 1.377 . S
C1317 C1316 1.524 . S
C1317 C1318 1.397 . S
C1317 C1322 1.363 . S
C1318 H1295 0.950 . S
C1318 C1317 1.397 . S
C1318 C1319 1.334 . S
C1319 H1296 0.950 . S
C1319 C1318 1.334 . S
C1319 C1320 1.287 . S
C1320 C1319 1.287 . S
C1320 C1321 1.524 . S
C1320 H1339 0.913 . S
C1321 H1297 0.950 . S
C1321 C1320 1.524 . S
C1321 C1322 1.415 . S
C1322 H1298 0.950 . S
C1322 C1317 1.363 . S
C1322 C1321 1.415 . S
C1323 H1299 0.951 . S
C1323 C1324 1.366 . S
C1323 C1325 1.388 . S
C1324 C1323 1.366 . S
C1324 C1328 1.385 . S
C1325 H1300 0.951 . S
C1325 C1323 1.388 . S
C1325 C1326 1.366 . S
C1326 C1325 1.366 . S
C1326 C1327 1.414 . S
C1326 C1329 1.499 . S
C1327 H1301 0.950 . S
C1327 C1326 1.414 . S
C1327 C1328 1.374 . S
C1328 H1302 0.950 . S
C1328 C1324 1.385 . S
C1328 C1327 1.374 . S
C1329 C1326 1.499 . S
C1329 C1330 1.373 . S
C1329 C1331 1.389 . S
C1330 H1303 0.950 . S
C1330 C1316 1.377 . S
C1330 C1329 1.373 . S
C1331 C1315 1.377 . S
C1331 C1329 1.389 . S
C1331 C1332 1.524 . S
C1332 C1331 1.524 . S
C1332 C1333 1.397 . S
C1332 C1337 1.363 . S
C1333 H1304 0.950 . S
C1333 C1332 1.397 . S
C1333 C1334 1.334 . S
C1334 H1305 0.950 . S
C1334 C1333 1.334 . S
C1334 C1335 1.287 . S
C1335 C1334 1.287 . S
C1335 C1336 1.524 . S
C1335 H1338 0.999 . S
C1336 H1306 0.950 . S
C1336 C1335 1.524 . S
C1336 C1337 1.415 . S
C1337 H1307 0.950 . S
C1337 C1332 1.363 . S
C1337 C1336 1.415 . S
H1338 C1335 0.999 . S
H1339 C1320 0.913 . S
H1340 C1358 0.953 . S
H1341 C1360 0.951 . S
H1342 C1362 0.950 . S
H1343 C1363 0.950 . S
H1344 C1365 0.950 . S
H1345 C1368 0.950 . S
H1346 C1369 0.950 . S
H1347 C1371 0.950 . S
H1348 C1372 0.950 . S
H1349 C1373 0.951 . S
H1350 C1375 0.951 . S
H1351 C1377 0.950 . S
H1352 C1378 0.950 . S
H1353 C1380 0.950 . S
H1354 C1383 0.950 . S
H1355 C1384 0.950 . S
H1356 C1386 0.950 . S
H1357 C1387 0.950 . S
C1358 H1340 0.953 . S
C1358 C1359 1.371 . S
C1358 C1360 1.380 1_565 S
C1359 C1358 1.371 . S
C1359 C1363 1.385 . S
C1360 H1341 0.951 . S
C1360 C1358 1.380 1_545 S
C1360 C1361 1.366 . S
C1361 C1360 1.366 . S
C1361 C1362 1.414 . S
C1361 C1364 1.499 . S
C1362 H1342 0.950 . S
C1362 C1361 1.414 . S
C1362 C1363 1.374 1_545 S
C1363 H1343 0.950 . S
C1363 C1359 1.385 . S
C1363 C1362 1.374 1_565 S
C1364 C1361 1.499 . S
C1364 C1365 1.373 . S
C1364 C1366 1.389 . S
C1365 H1344 0.950 . S
C1365 C1364 1.373 . S
C1365 C1381 1.377 . S
C1366 C1364 1.389 . S
C1366 C1367 1.524 . S
C1366 C1380 1.377 . S
C1367 C1366 1.524 . S
C1367 C1368 1.397 . S
C1367 C1372 1.363 . S
C1368 H1345 0.950 . S
C1368 C1367 1.397 . S
C1368 C1369 1.334 . S
C1369 H1346 0.950 . S
C1369 C1368 1.334 . S
C1369 C1370 1.287 . S
C1370 C1369 1.287 . S
C1370 C1371 1.524 . S
C1370 H1389 0.913 . S
C1371 H1347 0.950 . S
C1371 C1370 1.524 . S
C1371 C1372 1.415 . S
C1372 H1348 0.950 . S
C1372 C1367 1.363 . S
C1372 C1371 1.415 . S
C1373 H1349 0.951 . S
C1373 C1374 1.366 . S
C1373 C1375 1.388 . S
C1374 C1373 1.366 . S
C1374 C1378 1.385 . S
C1375 H1350 0.951 . S
C1375 C1373 1.388 . S
C1375 C1376 1.366 . S
C1376 C1375 1.366 . S
C1376 C1377 1.414 . S
C1376 C1379 1.499 . S
C1377 H1351 0.950 . S
C1377 C1376 1.414 . S
C1377 C1378 1.374 . S
C1378 H1352 0.950 . S
C1378 C1374 1.385 . S
C1378 C1377 1.374 . S
C1379 C1376 1.499 . S
C1379 C1380 1.373 . S
C1379 C1381 1.389 . S
C1380 H1353 0.950 . S
C1380 C1366 1.377 . S
C1380 C1379 1.373 . S
C1381 C1365 1.377 . S
C1381 C1379 1.389 . S
C1381 C1382 1.524 . S
C1382 C1381 1.524 . S
C1382 C1383 1.397 . S
C1382 C1387 1.363 . S
C1383 H1354 0.950 . S
C1383 C1382 1.397 . S
C1383 C1384 1.334 . S
C1384 H1355 0.950 . S
C1384 C1383 1.334 . S
C1384 C1385 1.287 . S
C1385 C1384 1.287 . S
C1385 C1386 1.524 . S
C1385 H1388 0.999 . S
C1386 H1356 0.950 . S
C1386 C1385 1.524 . S
C1386 C1387 1.415 . S
C1387 H1357 0.950 . S
C1387 C1382 1.363 . S
C1387 C1386 1.415 . S
H1388 C1385 0.999 . S
H1389 C1370 0.913 . S
H1390 C1408 0.951 . S
H1391 C1410 0.951 . S
H1392 C1412 0.950 . S
H1393 C1413 0.950 . S
H1394 C1415 0.950 . S
H1395 C1418 0.950 . S
H1396 C1419 0.950 . S
H1397 C1421 0.950 . S
H1398 C1422 0.950 . S
H1399 C1423 0.951 . S
H1400 C1425 0.951 . S
H1401 C1427 0.950 . S
H1402 C1428 0.951 1_655 S
H1403 C1430 0.950 . S
H1404 C1433 0.950 . S
H1405 C1434 0.950 . S
H1406 C1436 0.950 . S
H1407 C1437 0.950 . S
C1408 H1390 0.951 . S
C1408 C1409 1.366 . S
C1408 C1410 1.388 . S
C1409 C1408 1.366 . S
C1409 C1413 1.385 . S
C1410 H1391 0.951 . S
C1410 C1408 1.388 . S
C1410 C1411 1.366 . S
C1411 C1410 1.366 . S
C1411 C1412 1.414 . S
C1411 C1414 1.499 . S
C1412 H1392 0.950 . S
C1412 C1411 1.414 . S
C1412 C1413 1.374 . S
C1413 H1393 0.950 . S
C1413 C1409 1.385 . S
C1413 C1412 1.374 . S
C1414 C1411 1.499 . S
C1414 C1415 1.373 . S
C1414 C1416 1.389 . S
C1415 H1394 0.950 . S
C1415 C1414 1.373 . S
C1415 C1431 1.377 . S
C1416 C1414 1.389 . S
C1416 C1417 1.524 . S
C1416 C1430 1.377 . S
C1417 C1416 1.524 . S
C1417 C1418 1.397 . S
C1417 C1422 1.363 . S
C1418 H1395 0.950 . S
C1418 C1417 1.397 . S
C1418 C1419 1.334 . S
C1419 H1396 0.950 . S
C1419 C1418 1.334 . S
C1419 C1420 1.287 . S
C1420 C1419 1.287 . S
C1420 C1421 1.524 . S
C1420 H1439 0.913 . S
C1421 H1397 0.950 . S
C1421 C1420 1.524 . S
C1421 C1422 1.415 . S
C1422 H1398 0.950 . S
C1422 C1417 1.363 . S
C1422 C1421 1.415 . S
C1423 H1399 0.951 . S
C1423 C1424 1.366 . S
C1423 C1425 1.388 1_655 S
C1424 C1423 1.366 . S
C1424 C1428 1.386 1_655 S
C1425 H1400 0.951 . S
C1425 C1423 1.388 1_455 S
C1425 C1426 1.366 . S
C1426 C1425 1.366 . S
C1426 C1427 1.414 . S
C1426 C1429 1.499 . S
C1427 H1401 0.950 . S
C1427 C1426 1.414 . S
C1427 C1428 1.372 . S
C1428 H1402 0.951 1_455 S
C1428 C1424 1.386 1_455 S
C1428 C1427 1.372 . S
C1429 C1426 1.499 . S
C1429 C1430 1.373 . S
C1429 C1431 1.389 . S
C1430 H1403 0.950 . S
C1430 C1416 1.377 . S
C1430 C1429 1.373 . S
C1431 C1415 1.377 . S
C1431 C1429 1.389 . S
C1431 C1432 1.524 . S
C1432 C1431 1.524 . S
C1432 C1433 1.397 . S
C1432 C1437 1.363 . S
C1433 H1404 0.950 . S
C1433 C1432 1.397 . S
C1433 C1434 1.334 . S
C1434 H1405 0.950 . S
C1434 C1433 1.334 . S
C1434 C1435 1.287 . S
C1435 C1434 1.287 . S
C1435 C1436 1.524 . S
C1435 H1438 0.999 . S
C1436 H1406 0.950 . S
C1436 C1435 1.524 . S
C1436 C1437 1.415 . S
C1437 H1407 0.950 . S
C1437 C1432 1.363 . S
C1437 C1436 1.415 . S
H1438 C1435 0.999 . S
H1439 C1420 0.913 . S
H1440 C1458 0.951 . S
H1441 C1460 0.951 . S
H1442 C1462 0.950 . S
H1443 C1463 0.950 . S
H1444 C1465 0.950 . S
H1445 C1468 0.950 . S
H1446 C1469 0.950 . S
H1447 C1471 0.950 . S
H1448 C1472 0.950 . S
H1449 C1473 0.951 . S
H1450 C1475 0.951 . S
H1451 C1477 0.950 . S
H1452 C1478 0.950 . S
H1453 C1480 0.950 . S
H1454 C1483 0.950 . S
H1455 C1484 0.950 . S
H1456 C1486 0.950 1_556 S
H1457 C1487 0.950 1_556 S
C1458 H1440 0.951 . S
C1458 C1459 1.366 . S
C1458 C1460 1.388 . S
C1459 C1458 1.366 . S
C1459 C1463 1.385 . S
C1460 H1441 0.951 . S
C1460 C1458 1.388 . S
C1460 C1461 1.366 . S
C1461 C1460 1.366 . S
C1461 C1462 1.414 . S
C1461 C1464 1.499 . S
C1462 H1442 0.950 . S
C1462 C1461 1.414 . S
C1462 C1463 1.374 . S
C1463 H1443 0.950 . S
C1463 C1459 1.385 . S
C1463 C1462 1.374 . S
C1464 C1461 1.499 . S
C1464 C1465 1.373 . S
C1464 C1466 1.389 . S
C1465 H1444 0.950 . S
C1465 C1464 1.373 . S
C1465 C1481 1.377 . S
C1466 C1464 1.389 . S
C1466 C1467 1.524 . S
C1466 C1480 1.377 . S
C1467 C1466 1.524 . S
C1467 C1468 1.397 . S
C1467 C1472 1.363 . S
C1468 H1445 0.950 . S
C1468 C1467 1.397 . S
C1468 C1469 1.334 . S
C1469 H1446 0.950 . S
C1469 C1468 1.334 . S
C1469 C1470 1.287 . S
C1470 C1469 1.287 . S
C1470 C1471 1.524 . S
C1470 H1489 0.913 . S
C1471 H1447 0.950 . S
C1471 C1470 1.524 . S
C1471 C1472 1.415 . S
C1472 H1448 0.950 . S
C1472 C1467 1.363 . S
C1472 C1471 1.415 . S
C1473 H1449 0.951 . S
C1473 C1474 1.366 . S
C1473 C1475 1.388 . S
C1474 C1473 1.366 . S
C1474 C1478 1.385 . S
C1475 H1450 0.951 . S
C1475 C1473 1.388 . S
C1475 C1476 1.366 . S
C1476 C1475 1.366 . S
C1476 C1477 1.414 . S
C1476 C1479 1.499 . S
C1477 H1451 0.950 . S
C1477 C1476 1.414 . S
C1477 C1478 1.374 . S
C1478 H1452 0.950 . S
C1478 C1474 1.385 . S
C1478 C1477 1.374 . S
C1479 C1476 1.499 . S
C1479 C1480 1.373 . S
C1479 C1481 1.389 . S
C1480 H1453 0.950 . S
C1480 C1466 1.377 . S
C1480 C1479 1.373 . S
C1481 C1465 1.377 . S
C1481 C1479 1.389 . S
C1481 C1482 1.524 . S
C1482 C1481 1.524 . S
C1482 C1483 1.397 . S
C1482 C1487 1.363 . S
C1483 H1454 0.950 . S
C1483 C1482 1.397 . S
C1483 C1484 1.334 . S
C1484 H1455 0.950 . S
C1484 C1483 1.334 . S
C1484 C1485 1.287 . S
C1485 C1484 1.287 . S
C1485 C1486 1.524 . S
C1485 H1488 0.999 . S
C1486 H1456 0.950 1_554 S
C1486 C1485 1.524 . S
C1486 C1487 1.415 . S
C1487 H1457 0.950 1_554 S
C1487 C1482 1.363 . S
C1487 C1486 1.415 . S
H1488 C1485 0.999 . S
H1489 C1470 0.913 . S
H1490 C1508 0.951 . S
H1491 C1510 0.951 . S
H1492 C1512 0.950 . S
H1493 C1513 0.950 . S
H1494 C1515 0.950 . S
H1495 C1518 0.950 . S
H1496 C1519 0.950 . S
H1497 C1521 0.950 . S
H1498 C1522 0.950 . S
H1499 C1523 0.951 . S
H1500 C1525 0.951 . S
H1501 C1527 0.950 . S
H1502 C1528 0.950 . S
H1503 C1530 0.950 . S
H1504 C1533 0.950 . S
H1505 C1534 0.950 . S
H1506 C1536 0.950 . S
H1507 C1537 0.950 . S
C1508 H1490 0.951 . S
C1508 C1509 1.366 . S
C1508 C1510 1.388 . S
C1509 C1508 1.366 . S
C1509 C1513 1.385 . S
C1510 H1491 0.951 . S
C1510 C1508 1.388 . S
C1510 C1511 1.366 . S
C1511 C1510 1.366 . S
C1511 C1512 1.414 . S
C1511 C1514 1.499 . S
C1512 H1492 0.950 . S
C1512 C1511 1.414 . S
C1512 C1513 1.374 . S
C1513 H1493 0.950 . S
C1513 C1509 1.385 . S
C1513 C1512 1.374 . S
C1514 C1511 1.499 . S
C1514 C1515 1.373 . S
C1514 C1516 1.389 . S
C1515 H1494 0.950 . S
C1515 C1514 1.373 . S
C1515 C1531 1.377 . S
C1516 C1514 1.389 . S
C1516 C1517 1.524 . S
C1516 C1530 1.377 . S
C1517 C1516 1.524 . S
C1517 C1518 1.397 . S
C1517 C1522 1.363 1_556 S
C1518 H1495 0.950 . S
C1518 C1517 1.397 . S
C1518 C1519 1.334 . S
C1519 H1496 0.950 . S
C1519 C1518 1.334 . S
C1519 C1520 1.287 1_556 S
C1520 C1519 1.287 1_554 S
C1520 C1521 1.524 . S
C1520 H1539 0.913 . S
C1521 H1497 0.950 . S
C1521 C1520 1.524 . S
C1521 C1522 1.415 . S
C1522 H1498 0.950 . S
C1522 C1517 1.363 1_554 S
C1522 C1521 1.415 . S
C1523 H1499 0.951 . S
C1523 C1524 1.366 . S
C1523 C1525 1.388 . S
C1524 C1523 1.366 . S
C1524 C1528 1.385 . S
C1525 H1500 0.951 . S
C1525 C1523 1.388 . S
C1525 C1526 1.366 . S
C1526 C1525 1.366 . S
C1526 C1527 1.414 . S
C1526 C1529 1.499 . S
C1527 H1501 0.950 . S
C1527 C1526 1.414 . S
C1527 C1528 1.374 . S
C1528 H1502 0.950 . S
C1528 C1524 1.385 . S
C1528 C1527 1.374 . S
C1529 C1526 1.499 . S
C1529 C1530 1.373 . S
C1529 C1531 1.389 . S
C1530 H1503 0.950 . S
C1530 C1516 1.377 . S
C1530 C1529 1.373 . S
C1531 C1515 1.377 . S
C1531 C1529 1.389 . S
C1531 C1532 1.524 . S
C1532 C1531 1.524 . S
C1532 C1533 1.397 . S
C1532 C1537 1.363 . S
C1533 H1504 0.950 . S
C1533 C1532 1.397 . S
C1533 C1534 1.334 . S
C1534 H1505 0.950 . S
C1534 C1533 1.334 . S
C1534 C1535 1.287 . S
C1535 C1534 1.287 . S
C1535 C1536 1.524 . S
C1535 H1538 0.999 . S
C1536 H1506 0.950 . S
C1536 C1535 1.524 . S
C1536 C1537 1.415 . S
C1537 H1507 0.950 . S
C1537 C1532 1.363 . S
C1537 C1536 1.415 . S
H1538 C1535 0.999 . S
H1539 C1520 0.913 . S
H1540 C1558 0.951 . S
H1541 C1560 0.951 . S
H1542 C1562 0.950 . S
H1543 C1563 0.950 . S
H1544 C1565 0.950 . S
H1545 C1568 0.950 . S
H1546 C1569 0.950 . S
H1547 C1571 0.950 . S
H1548 C1572 0.950 . S
H1549 C1573 0.951 . S
H1550 C1575 0.951 . S
H1551 C1577 0.950 . S
H1552 C1578 0.950 . S
H1553 C1580 0.950 . S
H1554 C1583 0.950 . S
H1555 C1584 0.950 . S
H1556 C1586 0.950 . S
H1557 C1587 0.950 . S
C1558 H1540 0.951 . S
C1558 C1559 1.366 . S
C1558 C1560 1.388 . S
C1559 C1558 1.366 . S
C1559 C1563 1.385 . S
C1560 H1541 0.951 . S
C1560 C1558 1.388 . S
C1560 C1561 1.366 . S
C1561 C1560 1.366 . S
C1561 C1562 1.414 . S
C1561 C1564 1.499 . S
C1562 H1542 0.950 . S
C1562 C1561 1.414 . S
C1562 C1563 1.374 . S
C1563 H1543 0.950 . S
C1563 C1559 1.385 . S
C1563 C1562 1.374 . S
C1564 C1561 1.499 . S
C1564 C1565 1.373 . S
C1564 C1566 1.389 . S
C1565 H1544 0.950 . S
C1565 C1564 1.373 . S
C1565 C1581 1.377 . S
C1566 C1564 1.389 . S
C1566 C1567 1.524 . S
C1566 C1580 1.377 . S
C1567 C1566 1.524 . S
C1567 C1568 1.397 . S
C1567 C1572 1.363 . S
C1568 H1545 0.950 . S
C1568 C1567 1.397 . S
C1568 C1569 1.334 . S
C1569 H1546 0.950 . S
C1569 C1568 1.334 . S
C1569 C1570 1.287 . S
C1570 C1569 1.287 . S
C1570 C1571 1.524 . S
C1570 H1589 0.913 . S
C1571 H1547 0.950 . S
C1571 C1570 1.524 . S
C1571 C1572 1.415 . S
C1572 H1548 0.950 . S
C1572 C1567 1.363 . S
C1572 C1571 1.415 . S
C1573 H1549 0.951 . S
C1573 C1574 1.366 . S
C1573 C1575 1.388 . S
C1574 C1573 1.366 . S
C1574 C1578 1.385 . S
C1575 H1550 0.951 . S
C1575 C1573 1.388 . S
C1575 C1576 1.366 . S
C1576 C1575 1.366 . S
C1576 C1577 1.414 . S
C1576 C1579 1.499 . S
C1577 H1551 0.950 . S
C1577 C1576 1.414 . S
C1577 C1578 1.374 . S
C1578 H1552 0.950 . S
C1578 C1574 1.385 . S
C1578 C1577 1.374 . S
C1579 C1576 1.499 . S
C1579 C1580 1.373 . S
C1579 C1581 1.389 . S
C1580 H1553 0.950 . S
C1580 C1566 1.377 . S
C1580 C1579 1.373 . S
C1581 C1565 1.377 . S
C1581 C1579 1.389 . S
C1581 C1582 1.524 . S
C1582 C1581 1.524 . S
C1582 C1583 1.397 . S
C1582 C1587 1.363 1_554 S
C1583 H1554 0.950 . S
C1583 C1582 1.397 . S
C1583 C1584 1.334 . S
C1584 H1555 0.950 . S
C1584 C1583 1.334 . S
C1584 C1585 1.287 1_554 S
C1585 C1584 1.287 1_556 S
C1585 C1586 1.524 . S
C1585 H1588 0.999 . S
C1586 H1556 0.950 . S
C1586 C1585 1.524 . S
C1586 C1587 1.415 . S
C1587 H1557 0.950 . S
C1587 C1582 1.363 1_556 S
C1587 C1586 1.415 . S
H1588 C1585 0.999 . S
H1589 C1570 0.913 . S
H1590 C1608 0.951 . S
H1591 C1610 0.951 . S
H1592 C1612 0.950 . S
H1593 C1613 0.950 . S
H1594 C1615 0.950 . S
H1595 C1618 0.950 . S
H1596 C1619 0.950 . S
H1597 C1621 0.950 . S
H1598 C1622 0.950 . S
H1599 C1623 0.951 . S
H1600 C1625 0.951 . S
H1601 C1627 0.950 . S
H1602 C1628 0.950 . S
H1603 C1630 0.950 . S
H1604 C1633 0.950 . S
H1605 C1634 0.950 . S
H1606 C1636 0.950 . S
H1607 C1637 0.950 . S
C1608 H1590 0.951 . S
C1608 C1609 1.366 . S
C1608 C1610 1.388 . S
C1609 C1608 1.366 . S
C1609 C1613 1.385 . S
C1610 H1591 0.951 . S
C1610 C1608 1.388 . S
C1610 C1611 1.366 . S
C1611 C1610 1.366 . S
C1611 C1612 1.414 . S
C1611 C1614 1.499 . S
C1612 H1592 0.950 . S
C1612 C1611 1.414 . S
C1612 C1613 1.374 . S
C1613 H1593 0.950 . S
C1613 C1609 1.385 . S
C1613 C1612 1.374 . S
C1614 C1611 1.499 . S
C1614 C1615 1.373 . S
C1614 C1616 1.389 . S
C1615 H1594 0.950 . S
C1615 C1614 1.373 . S
C1615 C1631 1.377 . S
C1616 C1614 1.389 . S
C1616 C1617 1.524 . S
C1616 C1630 1.377 . S
C1617 C1616 1.524 . S
C1617 C1618 1.397 . S
C1617 C1622 1.363 1_556 S
C1618 H1595 0.950 . S
C1618 C1617 1.397 . S
C1618 C1619 1.334 . S
C1619 H1596 0.950 . S
C1619 C1618 1.334 . S
C1619 C1620 1.287 1_556 S
C1620 C1619 1.287 1_554 S
C1620 C1621 1.524 . S
C1620 H1639 0.913 . S
C1621 H1597 0.950 . S
C1621 C1620 1.524 . S
C1621 C1622 1.415 . S
C1622 H1598 0.950 . S
C1622 C1617 1.363 1_554 S
C1622 C1621 1.415 . S
C1623 H1599 0.951 . S
C1623 C1624 1.366 . S
C1623 C1625 1.388 . S
C1624 C1623 1.366 . S
C1624 C1628 1.385 . S
C1625 H1600 0.951 . S
C1625 C1623 1.388 . S
C1625 C1626 1.366 . S
C1626 C1625 1.366 . S
C1626 C1627 1.414 . S
C1626 C1629 1.499 . S
C1627 H1601 0.950 . S
C1627 C1626 1.414 . S
C1627 C1628 1.374 . S
C1628 H1602 0.950 . S
C1628 C1624 1.385 . S
C1628 C1627 1.374 . S
C1629 C1626 1.499 . S
C1629 C1630 1.373 . S
C1629 C1631 1.389 . S
C1630 H1603 0.950 . S
C1630 C1616 1.377 . S
C1630 C1629 1.373 . S
C1631 C1615 1.377 . S
C1631 C1629 1.389 . S
C1631 C1632 1.524 . S
C1632 C1631 1.524 . S
C1632 C1633 1.397 . S
C1632 C1637 1.363 . S
C1633 H1604 0.950 . S
C1633 C1632 1.397 . S
C1633 C1634 1.334 . S
C1634 H1605 0.950 . S
C1634 C1633 1.334 . S
C1634 C1635 1.287 . S
C1635 C1634 1.287 . S
C1635 C1636 1.524 . S
C1635 H1638 0.999 . S
C1636 H1606 0.950 . S
C1636 C1635 1.524 . S
C1636 C1637 1.415 . S
C1637 H1607 0.950 . S
C1637 C1632 1.363 . S
C1637 C1636 1.415 . S
H1638 C1635 0.999 . S
H1639 C1620 0.913 . S
H1640 C1658 0.951 . S
H1641 C1660 0.951 . S
H1642 C1662 0.950 . S
H1643 C1663 0.950 . S
H1644 C1665 0.950 . S
H1645 C1668 0.950 . S
H1646 C1669 0.950 . S
H1647 C1671 0.950 . S
H1648 C1672 0.950 . S
H1649 C1673 0.951 . S
H1650 C1675 0.951 . S
H1651 C1677 0.950 . S
H1652 C1678 0.950 . S
H1653 C1680 0.950 . S
H1654 C1683 0.950 . S
H1655 C1684 0.950 . S
H1656 C1686 0.950 . S
H1657 C1687 0.950 . S
C1658 H1640 0.951 . S
C1658 C1659 1.366 . S
C1658 C1660 1.388 . S
C1659 C1658 1.366 . S
C1659 C1663 1.385 . S
C1660 H1641 0.951 . S
C1660 C1658 1.388 . S
C1660 C1661 1.366 . S
C1661 C1660 1.366 . S
C1661 C1662 1.414 . S
C1661 C1664 1.499 . S
C1662 H1642 0.950 . S
C1662 C1661 1.414 . S
C1662 C1663 1.374 . S
C1663 H1643 0.950 . S
C1663 C1659 1.385 . S
C1663 C1662 1.374 . S
C1664 C1661 1.499 . S
C1664 C1665 1.373 . S
C1664 C1666 1.389 . S
C1665 H1644 0.950 . S
C1665 C1664 1.373 . S
C1665 C1681 1.377 . S
C1666 C1664 1.389 . S
C1666 C1667 1.524 . S
C1666 C1680 1.377 . S
C1667 C1666 1.524 . S
C1667 C1668 1.397 . S
C1667 C1672 1.363 . S
C1668 H1645 0.950 . S
C1668 C1667 1.397 . S
C1668 C1669 1.334 . S
C1669 H1646 0.950 . S
C1669 C1668 1.334 . S
C1669 C1670 1.287 . S
C1670 C1669 1.287 . S
C1670 C1671 1.524 . S
C1670 H1689 0.913 . S
C1671 H1647 0.950 . S
C1671 C1670 1.524 . S
C1671 C1672 1.415 . S
C1672 H1648 0.950 . S
C1672 C1667 1.363 . S
C1672 C1671 1.415 . S
C1673 H1649 0.951 . S
C1673 C1674 1.366 . S
C1673 C1675 1.388 . S
C1674 C1673 1.366 . S
C1674 C1678 1.385 . S
C1675 H1650 0.951 . S
C1675 C1673 1.388 . S
C1675 C1676 1.366 . S
C1676 C1675 1.366 . S
C1676 C1677 1.414 . S
C1676 C1679 1.499 . S
C1677 H1651 0.950 . S
C1677 C1676 1.414 . S
C1677 C1678 1.374 . S
C1678 H1652 0.950 . S
C1678 C1674 1.385 . S
C1678 C1677 1.374 . S
C1679 C1676 1.499 . S
C1679 C1680 1.373 . S
C1679 C1681 1.389 . S
C1680 H1653 0.950 . S
C1680 C1666 1.377 . S
C1680 C1679 1.373 . S
C1681 C1665 1.377 . S
C1681 C1679 1.389 . S
C1681 C1682 1.524 . S
C1682 C1681 1.524 . S
C1682 C1683 1.397 . S
C1682 C1687 1.363 . S
C1683 H1654 0.950 . S
C1683 C1682 1.397 . S
C1683 C1684 1.334 . S
C1684 H1655 0.950 . S
C1684 C1683 1.334 . S
C1684 C1685 1.287 . S
C1685 C1684 1.287 . S
C1685 C1686 1.524 . S
C1685 H1688 0.999 . S
C1686 H1656 0.950 . S
C1686 C1685 1.524 . S
C1686 C1687 1.415 . S
C1687 H1657 0.950 . S
C1687 C1682 1.363 . S
C1687 C1686 1.415 . S
H1688 C1685 0.999 . S
H1689 C1670 0.913 . S
H1690 C1708 0.951 . S
H1691 C1710 0.951 . S
H1692 C1712 0.950 . S
H1693 C1713 0.950 . S
H1694 C1715 0.950 . S
H1695 C1718 0.950 . S
H1696 C1719 0.950 . S
H1697 C1721 0.950 . S
H1698 C1722 0.950 . S
H1699 C1723 0.951 . S
H1700 C1725 0.951 . S
H1701 C1727 0.950 . S
H1702 C1728 0.950 . S
H1703 C1730 0.950 . S
H1704 C1733 0.950 . S
H1705 C1734 0.950 . S
H1706 C1736 0.950 . S
H1707 C1737 0.950 . S
C1708 H1690 0.951 . S
C1708 C1709 1.366 . S
C1708 C1710 1.388 . S
C1709 C1708 1.366 . S
C1709 C1713 1.385 . S
C1710 H1691 0.951 . S
C1710 C1708 1.388 . S
C1710 C1711 1.366 . S
C1711 C1710 1.366 . S
C1711 C1712 1.414 . S
C1711 C1714 1.499 . S
C1712 H1692 0.950 . S
C1712 C1711 1.414 . S
C1712 C1713 1.374 . S
C1713 H1693 0.950 . S
C1713 C1709 1.385 . S
C1713 C1712 1.374 . S
C1714 C1711 1.499 . S
C1714 C1715 1.373 . S
C1714 C1716 1.389 . S
C1715 H1694 0.950 . S
C1715 C1714 1.373 . S
C1715 C1731 1.377 . S
C1716 C1714 1.389 . S
C1716 C1717 1.524 . S
C1716 C1730 1.377 . S
C1717 C1716 1.524 . S
C1717 C1718 1.397 . S
C1717 C1722 1.363 . S
C1718 H1695 0.950 . S
C1718 C1717 1.397 . S
C1718 C1719 1.334 . S
C1719 H1696 0.950 . S
C1719 C1718 1.334 . S
C1719 C1720 1.287 . S
C1720 C1719 1.287 . S
C1720 C1721 1.524 . S
C1720 H1739 0.913 . S
C1721 H1697 0.950 . S
C1721 C1720 1.524 . S
C1721 C1722 1.415 . S
C1722 H1698 0.950 . S
C1722 C1717 1.363 . S
C1722 C1721 1.415 . S
C1723 H1699 0.951 . S
C1723 C1724 1.366 . S
C1723 C1725 1.388 . S
C1724 C1723 1.366 . S
C1724 C1728 1.385 . S
C1725 H1700 0.951 . S
C1725 C1723 1.388 . S
C1725 C1726 1.366 . S
C1726 C1725 1.366 . S
C1726 C1727 1.414 . S
C1726 C1729 1.499 . S
C1727 H1701 0.950 . S
C1727 C1726 1.414 . S
C1727 C1728 1.374 . S
C1728 H1702 0.950 . S
C1728 C1724 1.385 . S
C1728 C1727 1.374 . S
C1729 C1726 1.499 . S
C1729 C1730 1.373 . S
C1729 C1731 1.389 . S
C1730 H1703 0.950 . S
C1730 C1716 1.377 . S
C1730 C1729 1.373 . S
C1731 C1715 1.377 . S
C1731 C1729 1.389 . S
C1731 C1732 1.524 . S
C1732 C1731 1.524 . S
C1732 C1733 1.397 . S
C1732 C1737 1.363 . S
C1733 H1704 0.950 . S
C1733 C1732 1.397 . S
C1733 C1734 1.334 . S
C1734 H1705 0.950 . S
C1734 C1733 1.334 . S
C1734 C1735 1.287 . S
C1735 C1734 1.287 . S
C1735 C1736 1.524 . S
C1735 H1738 0.999 . S
C1736 H1706 0.950 . S
C1736 C1735 1.524 . S
C1736 C1737 1.415 . S
C1737 H1707 0.950 . S
C1737 C1732 1.363 . S
C1737 C1736 1.415 . S
H1738 C1735 0.999 . S
H1739 C1720 0.913 . S
H1740 C1758 0.951 . S
H1741 C1760 0.951 . S
H1742 C1762 0.950 . S
H1743 C1763 0.950 . S
H1744 C1765 0.950 . S
H1745 C1768 0.950 . S
H1746 C1769 0.950 . S
H1747 C1771 0.950 . S
H1748 C1772 0.950 . S
H1749 C1773 0.951 . S
H1750 C1775 0.951 . S
H1751 C1777 0.950 . S
H1752 C1778 0.950 . S
H1753 C1780 0.950 . S
H1754 C1783 0.950 . S
H1755 C1784 0.950 . S
H1756 C1786 0.950 . S
H1757 C1787 0.950 . S
C1758 H1740 0.951 . S
C1758 C1759 1.366 . S
C1758 C1760 1.388 . S
C1759 C1758 1.366 . S
C1759 C1763 1.385 . S
C1760 H1741 0.951 . S
C1760 C1758 1.388 . S
C1760 C1761 1.366 . S
C1761 C1760 1.366 . S
C1761 C1762 1.414 . S
C1761 C1764 1.499 . S
C1762 H1742 0.950 . S
C1762 C1761 1.414 . S
C1762 C1763 1.374 . S
C1763 H1743 0.950 . S
C1763 C1759 1.385 . S
C1763 C1762 1.374 . S
C1764 C1761 1.499 . S
C1764 C1765 1.373 . S
C1764 C1766 1.389 . S
C1765 H1744 0.950 . S
C1765 C1764 1.373 . S
C1765 C1781 1.377 . S
C1766 C1764 1.389 . S
C1766 C1767 1.524 . S
C1766 C1780 1.377 . S
C1767 C1766 1.524 . S
C1767 C1768 1.397 . S
C1767 C1772 1.363 . S
C1768 H1745 0.950 . S
C1768 C1767 1.397 . S
C1768 C1769 1.334 . S
C1769 H1746 0.950 . S
C1769 C1768 1.334 . S
C1769 C1770 1.287 . S
C1770 C1769 1.287 . S
C1770 C1771 1.524 . S
C1770 H1789 0.913 . S
C1771 H1747 0.950 . S
C1771 C1770 1.524 . S
C1771 C1772 1.415 . S
C1772 H1748 0.950 . S
C1772 C1767 1.363 . S
C1772 C1771 1.415 . S
C1773 H1749 0.951 . S
C1773 C1774 1.366 . S
C1773 C1775 1.388 . S
C1774 C1773 1.366 . S
C1774 C1778 1.385 . S
C1775 H1750 0.951 . S
C1775 C1773 1.388 . S
C1775 C1776 1.366 . S
C1776 C1775 1.366 . S
C1776 C1777 1.414 . S
C1776 C1779 1.499 . S
C1777 H1751 0.950 . S
C1777 C1776 1.414 . S
C1777 C1778 1.374 . S
C1778 H1752 0.950 . S
C1778 C1774 1.385 . S
C1778 C1777 1.374 . S
C1779 C1776 1.499 . S
C1779 C1780 1.373 . S
C1779 C1781 1.389 . S
C1780 H1753 0.950 . S
C1780 C1766 1.377 . S
C1780 C1779 1.373 . S
C1781 C1765 1.377 . S
C1781 C1779 1.389 . S
C1781 C1782 1.524 . S
C1782 C1781 1.524 . S
C1782 C1783 1.397 . S
C1782 C1787 1.363 . S
C1783 H1754 0.950 . S
C1783 C1782 1.397 . S
C1783 C1784 1.334 . S
C1784 H1755 0.950 . S
C1784 C1783 1.334 . S
C1784 C1785 1.287 . S
C1785 C1784 1.287 . S
C1785 C1786 1.524 . S
C1785 H1788 0.999 . S
C1786 H1756 0.950 . S
C1786 C1785 1.524 . S
C1786 C1787 1.415 . S
C1787 H1757 0.950 . S
C1787 C1782 1.363 . S
C1787 C1786 1.415 . S
H1788 C1785 0.999 . S
H1789 C1770 0.913 . S
H1790 C1808 0.951 . S
H1791 C1810 0.951 . S
H1792 C1812 0.950 . S
H1793 C1813 0.950 . S
H1794 C1815 0.950 . S
H1795 C1818 0.950 . S
H1796 C1819 0.950 . S
H1797 C1821 0.950 . S
H1798 C1822 0.950 . S
H1799 C1823 0.951 . S
H1800 C1825 0.951 . S
H1801 C1827 0.950 . S
H1802 C1828 0.950 . S
H1803 C1830 0.950 . S
H1804 C1833 0.950 . S
H1805 C1834 0.950 . S
H1806 C1836 0.950 . S
H1807 C1837 0.950 . S
C1808 H1790 0.951 . S
C1808 C1809 1.366 . S
C1808 C1810 1.388 . S
C1809 C1808 1.366 . S
C1809 C1813 1.385 . S
C1810 H1791 0.951 . S
C1810 C1808 1.388 . S
C1810 C1811 1.366 . S
C1811 C1810 1.366 . S
C1811 C1812 1.414 . S
C1811 C1814 1.499 . S
C1812 H1792 0.950 . S
C1812 C1811 1.414 . S
C1812 C1813 1.374 . S
C1813 H1793 0.950 . S
C1813 C1809 1.385 . S
C1813 C1812 1.374 . S
C1814 C1811 1.499 . S
C1814 C1815 1.373 . S
C1814 C1816 1.389 . S
C1815 H1794 0.950 . S
C1815 C1814 1.373 . S
C1815 C1831 1.377 . S
C1816 C1814 1.389 . S
C1816 C1817 1.524 . S
C1816 C1830 1.377 . S
C1817 C1816 1.524 . S
C1817 C1818 1.397 . S
C1817 C1822 1.363 . S
C1818 H1795 0.950 . S
C1818 C1817 1.397 . S
C1818 C1819 1.334 . S
C1819 H1796 0.950 . S
C1819 C1818 1.334 . S
C1819 C1820 1.287 . S
C1820 C1819 1.287 . S
C1820 C1821 1.524 . S
C1820 H1839 0.913 . S
C1821 H1797 0.950 . S
C1821 C1820 1.524 . S
C1821 C1822 1.415 . S
C1822 H1798 0.950 . S
C1822 C1817 1.363 . S
C1822 C1821 1.415 . S
C1823 H1799 0.951 . S
C1823 C1824 1.366 . S
C1823 C1825 1.388 . S
C1824 C1823 1.366 . S
C1824 C1828 1.385 . S
C1825 H1800 0.951 . S
C1825 C1823 1.388 . S
C1825 C1826 1.366 . S
C1826 C1825 1.366 . S
C1826 C1827 1.414 . S
C1826 C1829 1.499 . S
C1827 H1801 0.950 . S
C1827 C1826 1.414 . S
C1827 C1828 1.374 . S
C1828 H1802 0.950 . S
C1828 C1824 1.385 . S
C1828 C1827 1.374 . S
C1829 C1826 1.499 . S
C1829 C1830 1.373 . S
C1829 C1831 1.389 . S
C1830 H1803 0.950 . S
C1830 C1816 1.377 . S
C1830 C1829 1.373 . S
C1831 C1815 1.377 . S
C1831 C1829 1.389 . S
C1831 C1832 1.524 . S
C1832 C1831 1.524 . S
C1832 C1833 1.397 . S
C1832 C1837 1.363 . S
C1833 H1804 0.950 . S
C1833 C1832 1.397 . S
C1833 C1834 1.334 . S
C1834 H1805 0.950 . S
C1834 C1833 1.334 . S
C1834 C1835 1.287 . S
C1835 C1834 1.287 . S
C1835 C1836 1.524 . S
C1835 H1838 0.999 . S
C1836 H1806 0.950 . S
C1836 C1835 1.524 . S
C1836 C1837 1.415 . S
C1837 H1807 0.950 . S
C1837 C1832 1.363 . S
C1837 C1836 1.415 . S
H1838 C1835 0.999 . S
H1839 C1820 0.913 . S
H1840 C1858 0.951 . S
H1841 C1860 0.951 . S
H1842 C1862 0.950 . S
H1843 C1863 0.950 . S
H1844 C1865 0.950 . S
H1845 C1868 0.950 . S
H1846 C1869 0.950 . S
H1847 C1871 0.950 . S
H1848 C1872 0.950 . S
H1849 C1873 0.951 1_554 S
H1850 C1875 0.951 . S
H1851 C1877 0.950 . S
H1852 C1878 0.950 . S
H1853 C1880 0.950 . S
H1854 C1883 0.950 . S
H1855 C1884 0.950 . S
H1856 C1886 0.948 . S
H1857 C1887 0.950 . S
C1858 H1840 0.951 . S
C1858 C1859 1.366 . S
C1858 C1860 1.388 . S
C1859 C1858 1.366 . S
C1859 C1863 1.385 . S
C1860 H1841 0.951 . S
C1860 C1858 1.388 . S
C1860 C1861 1.366 . S
C1861 C1860 1.366 . S
C1861 C1862 1.414 . S
C1861 C1864 1.499 . S
C1862 H1842 0.950 . S
C1862 C1861 1.414 . S
C1862 C1863 1.374 . S
C1863 H1843 0.950 . S
C1863 C1859 1.385 . S
C1863 C1862 1.374 . S
C1864 C1861 1.499 . S
C1864 C1865 1.373 . S
C1864 C1866 1.389 . S
C1865 H1844 0.950 . S
C1865 C1864 1.373 . S
C1865 C1881 1.377 . S
C1866 C1864 1.389 . S
C1866 C1867 1.524 . S
C1866 C1880 1.377 . S
C1867 C1866 1.524 . S
C1867 C1868 1.397 . S
C1867 C1872 1.363 . S
C1868 H1845 0.950 . S
C1868 C1867 1.397 . S
C1868 C1869 1.334 . S
C1869 H1846 0.950 . S
C1869 C1868 1.334 . S
C1869 C1870 1.287 . S
C1870 C1869 1.287 . S
C1870 C1871 1.524 . S
C1870 H1889 0.913 . S
C1871 H1847 0.950 . S
C1871 C1870 1.524 . S
C1871 C1872 1.415 . S
C1872 H1848 0.950 . S
C1872 C1867 1.363 . S
C1872 C1871 1.415 . S
C1873 H1849 0.951 1_556 S
C1873 C1874 1.366 . S
C1873 C1875 1.388 . S
C1874 C1873 1.366 . S
C1874 C1878 1.385 . S
C1875 H1850 0.951 . S
C1875 C1873 1.388 . S
C1875 C1876 1.366 . S
C1876 C1875 1.366 . S
C1876 C1877 1.414 . S
C1876 C1879 1.499 . S
C1877 H1851 0.950 . S
C1877 C1876 1.414 . S
C1877 C1878 1.374 . S
C1878 H1852 0.950 . S
C1878 C1874 1.385 . S
C1878 C1877 1.374 . S
C1879 C1876 1.499 . S
C1879 C1880 1.373 . S
C1879 C1881 1.389 . S
C1880 H1853 0.950 . S
C1880 C1866 1.377 . S
C1880 C1879 1.373 . S
C1881 C1865 1.377 . S
C1881 C1879 1.389 . S
C1881 C1882 1.524 . S
C1882 C1881 1.524 . S
C1882 C1883 1.397 . S
C1882 C1887 1.363 . S
C1883 H1854 0.950 . S
C1883 C1882 1.397 . S
C1883 C1884 1.334 . S
C1884 H1855 0.950 . S
C1884 C1883 1.334 . S
C1884 C1885 1.287 . S
C1885 C1884 1.287 . S
C1885 C1886 1.525 1_556 S
C1885 H1888 0.999 . S
C1886 H1856 0.948 . S
C1886 C1885 1.525 1_554 S
C1886 C1887 1.415 1_554 S
C1887 H1857 0.950 . S
C1887 C1882 1.363 . S
C1887 C1886 1.415 1_556 S
H1888 C1885 0.999 . S
H1889 C1870 0.913 . S
H1890 C1908 0.951 . S
H1891 C1910 0.951 . S
H1892 C1912 0.950 . S
H1893 C1913 0.950 . S
H1894 C1915 0.950 . S
H1895 C1918 0.950 . S
H1896 C1919 0.950 . S
H1897 C1921 0.950 . S
H1898 C1922 0.950 . S
H1899 C1923 0.951 . S
H1900 C1925 0.951 . S
H1901 C1927 0.950 . S
H1902 C1928 0.950 . S
H1903 C1930 0.950 . S
H1904 C1933 0.950 . S
H1905 C1934 0.950 . S
H1906 C1936 0.950 . S
H1907 C1937 0.950 . S
C1908 H1890 0.951 . S
C1908 C1909 1.366 . S
C1908 C1910 1.388 . S
C1909 C1908 1.366 . S
C1909 C1913 1.385 . S
C1910 H1891 0.951 . S
C1910 C1908 1.388 . S
C1910 C1911 1.366 . S
C1911 C1910 1.366 . S
C1911 C1912 1.414 . S
C1911 C1914 1.499 . S
C1912 H1892 0.950 . S
C1912 C1911 1.414 . S
C1912 C1913 1.374 . S
C1913 H1893 0.950 . S
C1913 C1909 1.385 . S
C1913 C1912 1.374 . S
C1914 C1911 1.499 . S
C1914 C1915 1.373 . S
C1914 C1916 1.389 . S
C1915 H1894 0.950 . S
C1915 C1914 1.373 . S
C1915 C1931 1.377 . S
C1916 C1914 1.389 . S
C1916 C1917 1.524 . S
C1916 C1930 1.377 . S
C1917 C1916 1.524 . S
C1917 C1918 1.397 1_554 S
C1917 C1922 1.363 . S
C1918 H1895 0.950 . S
C1918 C1917 1.397 1_556 S
C1918 C1919 1.334 . S
C1919 H1896 0.950 . S
C1919 C1918 1.334 . S
C1919 C1920 1.287 . S
C1920 C1919 1.287 . S
C1920 C1921 1.524 . S
C1920 H1939 0.913 . S
C1921 H1897 0.950 . S
C1921 C1920 1.524 . S
C1921 C1922 1.415 1_556 S
C1922 H1898 0.950 . S
C1922 C1917 1.363 . S
C1922 C1921 1.415 1_554 S
C1923 H1899 0.951 . S
C1923 C1924 1.366 . S
C1923 C1925 1.388 . S
C1924 C1923 1.366 . S
C1924 C1928 1.385 . S
C1925 H1900 0.951 . S
C1925 C1923 1.388 . S
C1925 C1926 1.366 . S
C1926 C1925 1.366 . S
C1926 C1927 1.414 . S
C1926 C1929 1.499 . S
C1927 H1901 0.950 . S
C1927 C1926 1.414 . S
C1927 C1928 1.374 . S
C1928 H1902 0.950 . S
C1928 C1924 1.385 . S
C1928 C1927 1.374 . S
C1929 C1926 1.499 . S
C1929 C1930 1.373 . S
C1929 C1931 1.389 . S
C1930 H1903 0.950 . S
C1930 C1916 1.377 . S
C1930 C1929 1.373 . S
C1931 C1915 1.377 . S
C1931 C1929 1.389 . S
C1931 C1932 1.524 . S
C1932 C1931 1.524 . S
C1932 C1933 1.397 . S
C1932 C1937 1.363 . S
C1933 H1904 0.950 . S
C1933 C1932 1.397 . S
C1933 C1934 1.334 . S
C1934 H1905 0.950 . S
C1934 C1933 1.334 . S
C1934 C1935 1.287 . S
C1935 C1934 1.287 . S
C1935 C1936 1.524 . S
C1935 H1938 0.999 . S
C1936 H1906 0.950 . S
C1936 C1935 1.524 . S
C1936 C1937 1.415 . S
C1937 H1907 0.950 . S
C1937 C1932 1.363 . S
C1937 C1936 1.415 . S
H1938 C1935 0.999 . S
H1939 C1920 0.913 . S
H1940 C1958 0.951 . S
H1941 C1960 0.951 . S
H1942 C1962 0.950 . S
H1943 C1963 0.950 . S
H1944 C1965 0.950 . S
H1945 C1968 0.950 . S
H1946 C1969 0.950 . S
H1947 C1971 0.950 . S
H1948 C1972 0.950 . S
H1949 C1973 0.951 . S
H1950 C1975 0.951 . S
H1951 C1977 0.950 . S
H1952 C1978 0.950 . S
H1953 C1980 0.950 . S
H1954 C1983 0.950 . S
H1955 C1984 0.950 . S
H1956 C1986 0.950 . S
H1957 C1987 0.950 . S
C1958 H1940 0.951 . S
C1958 C1959 1.366 . S
C1958 C1960 1.388 . S
C1959 C1958 1.366 . S
C1959 C1963 1.385 . S
C1960 H1941 0.951 . S
C1960 C1958 1.388 . S
C1960 C1961 1.366 . S
C1961 C1960 1.366 . S
C1961 C1962 1.414 . S
C1961 C1964 1.499 . S
C1962 H1942 0.950 . S
C1962 C1961 1.414 . S
C1962 C1963 1.374 . S
C1963 H1943 0.950 . S
C1963 C1959 1.385 . S
C1963 C1962 1.374 . S
C1964 C1961 1.499 . S
C1964 C1965 1.373 . S
C1964 C1966 1.389 . S
C1965 H1944 0.950 . S
C1965 C1964 1.373 . S
C1965 C1981 1.377 . S
C1966 C1964 1.389 . S
C1966 C1967 1.524 . S
C1966 C1980 1.377 . S
C1967 C1966 1.524 . S
C1967 C1968 1.397 . S
C1967 C1972 1.363 . S
C1968 H1945 0.950 . S
C1968 C1967 1.397 . S
C1968 C1969 1.334 . S
C1969 H1946 0.950 . S
C1969 C1968 1.334 . S
C1969 C1970 1.287 . S
C1970 C1969 1.287 . S
C1970 C1971 1.524 . S
C1970 H1989 0.913 . S
C1971 H1947 0.950 . S
C1971 C1970 1.524 . S
C1971 C1972 1.415 . S
C1972 H1948 0.950 . S
C1972 C1967 1.363 . S
C1972 C1971 1.415 . S
C1973 H1949 0.951 . S
C1973 C1974 1.366 . S
C1973 C1975 1.388 . S
C1974 C1973 1.366 . S
C1974 C1978 1.385 . S
C1975 H1950 0.951 . S
C1975 C1973 1.388 . S
C1975 C1976 1.366 . S
C1976 C1975 1.366 . S
C1976 C1977 1.414 . S
C1976 C1979 1.499 . S
C1977 H1951 0.950 . S
C1977 C1976 1.414 . S
C1977 C1978 1.374 . S
C1978 H1952 0.950 . S
C1978 C1974 1.385 . S
C1978 C1977 1.374 . S
C1979 C1976 1.499 . S
C1979 C1980 1.373 . S
C1979 C1981 1.389 . S
C1980 H1953 0.950 . S
C1980 C1966 1.377 . S
C1980 C1979 1.373 . S
C1981 C1965 1.377 . S
C1981 C1979 1.389 . S
C1981 C1982 1.524 . S
C1982 C1981 1.524 . S
C1982 C1983 1.397 . S
C1982 C1987 1.363 1_556 S
C1983 H1954 0.950 . S
C1983 C1982 1.397 . S
C1983 C1984 1.334 1_556 S
C1984 H1955 0.950 . S
C1984 C1983 1.334 1_554 S
C1984 C1985 1.287 . S
C1985 C1984 1.287 . S
C1985 C1986 1.524 . S
C1985 H1988 0.999 . S
C1986 H1956 0.950 . S
C1986 C1985 1.524 . S
C1986 C1987 1.415 . S
C1987 H1957 0.950 . S
C1987 C1982 1.363 1_554 S
C1987 C1986 1.415 . S
H1988 C1985 0.999 . S
H1989 C1970 0.913 . S
H1990 C2008 0.951 . S
H1991 C2010 0.951 . S
H1992 C2012 0.950 . S
H1993 C2013 0.950 . S
H1994 C2015 0.950 . S
H1995 C2018 0.950 . S
H1996 C2019 0.950 . S
H1997 C2021 0.950 . S
H1998 C2022 0.950 . S
H1999 C2023 0.951 . S
H2000 C2025 0.951 . S
H2001 C2027 0.950 . S
H2002 C2028 0.950 . S
H2003 C2030 0.950 . S
H2004 C2033 0.950 . S
H2005 C2034 0.950 1_556 S
H2006 C2036 0.950 . S
H2007 C2037 0.950 . S
C2008 H1990 0.951 . S
C2008 C2009 1.366 . S
C2008 C2010 1.388 . S
C2009 C2008 1.366 . S
C2009 C2013 1.385 . S
C2010 H1991 0.951 . S
C2010 C2008 1.388 . S
C2010 C2011 1.366 . S
C2011 C2010 1.366 . S
C2011 C2012 1.414 . S
C2011 C2014 1.499 . S
C2012 H1992 0.950 . S
C2012 C2011 1.414 . S
C2012 C2013 1.374 . S
C2013 H1993 0.950 . S
C2013 C2009 1.385 . S
C2013 C2012 1.374 . S
C2014 C2011 1.499 . S
C2014 C2015 1.373 . S
C2014 C2016 1.389 . S
C2015 H1994 0.950 . S
C2015 C2014 1.373 . S
C2015 C2031 1.377 . S
C2016 C2014 1.389 . S
C2016 C2017 1.524 . S
C2016 C2030 1.377 . S
C2017 C2016 1.524 . S
C2017 C2018 1.397 . S
C2017 C2022 1.363 . S
C2018 H1995 0.950 . S
C2018 C2017 1.397 . S
C2018 C2019 1.334 . S
C2019 H1996 0.950 . S
C2019 C2018 1.334 . S
C2019 C2020 1.287 . S
C2020 C2019 1.287 . S
C2020 C2021 1.524 . S
C2020 H2039 0.913 . S
C2021 H1997 0.950 . S
C2021 C2020 1.524 . S
C2021 C2022 1.415 . S
C2022 H1998 0.950 . S
C2022 C2017 1.363 . S
C2022 C2021 1.415 . S
C2023 H1999 0.951 . S
C2023 C2024 1.366 . S
C2023 C2025 1.388 . S
C2024 C2023 1.366 . S
C2024 C2028 1.385 . S
C2025 H2000 0.951 . S
C2025 C2023 1.388 . S
C2025 C2026 1.366 . S
C2026 C2025 1.366 . S
C2026 C2027 1.414 . S
C2026 C2029 1.499 . S
C2027 H2001 0.950 . S
C2027 C2026 1.414 . S
C2027 C2028 1.374 . S
C2028 H2002 0.950 . S
C2028 C2024 1.385 . S
C2028 C2027 1.374 . S
C2029 C2026 1.499 . S
C2029 C2030 1.373 . S
C2029 C2031 1.389 . S
C2030 H2003 0.950 . S
C2030 C2016 1.377 . S
C2030 C2029 1.373 . S
C2031 C2015 1.377 . S
C2031 C2029 1.389 . S
C2031 C2032 1.524 . S
C2032 C2031 1.524 . S
C2032 C2033 1.397 . S
C2032 C2037 1.363 . S
C2033 H2004 0.950 . S
C2033 C2032 1.397 . S
C2033 C2034 1.334 . S
C2034 H2005 0.950 1_554 S
C2034 C2033 1.334 . S
C2034 C2035 1.287 . S
C2035 C2034 1.287 . S
C2035 C2036 1.524 . S
C2035 H2038 0.999 . S
C2036 H2006 0.950 . S
C2036 C2035 1.524 . S
C2036 C2037 1.415 . S
C2037 H2007 0.950 . S
C2037 C2032 1.363 . S
C2037 C2036 1.415 . S
H2038 C2035 0.999 . S
H2039 C2020 0.913 . S
H2040 C2058 0.951 . S
H2041 C2060 0.951 . S
H2042 C2062 0.950 . S
H2043 C2063 0.950 . S
H2044 C2065 0.950 . S
H2045 C2068 0.950 . S
H2046 C2069 0.950 . S
H2047 C2071 0.950 . S
H2048 C2072 0.950 . S
H2049 C2073 0.951 . S
H2050 C2075 0.951 . S
H2051 C2077 0.950 . S
H2052 C2078 0.950 . S
H2053 C2080 0.950 . S
H2054 C2083 0.950 . S
H2055 C2084 0.950 . S
H2056 C2086 0.950 . S
H2057 C2087 0.950 . S
C2058 H2040 0.951 . S
C2058 C2059 1.366 . S
C2058 C2060 1.388 . S
C2059 C2058 1.366 . S
C2059 C2063 1.385 . S
C2060 H2041 0.951 . S
C2060 C2058 1.388 . S
C2060 C2061 1.366 . S
C2061 C2060 1.366 . S
C2061 C2062 1.414 . S
C2061 C2064 1.499 . S
C2062 H2042 0.950 . S
C2062 C2061 1.414 . S
C2062 C2063 1.374 . S
C2063 H2043 0.950 . S
C2063 C2059 1.385 . S
C2063 C2062 1.374 . S
C2064 C2061 1.499 . S
C2064 C2065 1.373 . S
C2064 C2066 1.389 . S
C2065 H2044 0.950 . S
C2065 C2064 1.373 . S
C2065 C2081 1.377 . S
C2066 C2064 1.389 . S
C2066 C2067 1.524 . S
C2066 C2080 1.377 . S
C2067 C2066 1.524 . S
C2067 C2068 1.397 . S
C2067 C2072 1.363 . S
C2068 H2045 0.950 . S
C2068 C2067 1.397 . S
C2068 C2069 1.334 . S
C2069 H2046 0.950 . S
C2069 C2068 1.334 . S
C2069 C2070 1.287 . S
C2070 C2069 1.287 . S
C2070 C2071 1.524 . S
C2070 H2089 0.913 . S
C2071 H2047 0.950 . S
C2071 C2070 1.524 . S
C2071 C2072 1.415 . S
C2072 H2048 0.950 . S
C2072 C2067 1.363 . S
C2072 C2071 1.415 . S
C2073 H2049 0.951 . S
C2073 C2074 1.366 . S
C2073 C2075 1.388 . S
C2074 C2073 1.366 . S
C2074 C2078 1.385 . S
C2075 H2050 0.951 . S
C2075 C2073 1.388 . S
C2075 C2076 1.366 . S
C2076 C2075 1.366 . S
C2076 C2077 1.414 . S
C2076 C2079 1.499 . S
C2077 H2051 0.950 . S
C2077 C2076 1.414 . S
C2077 C2078 1.374 . S
C2078 H2052 0.950 . S
C2078 C2074 1.385 . S
C2078 C2077 1.374 . S
C2079 C2076 1.499 . S
C2079 C2080 1.373 . S
C2079 C2081 1.389 . S
C2080 H2053 0.950 . S
C2080 C2066 1.377 . S
C2080 C2079 1.373 . S
C2081 C2065 1.377 . S
C2081 C2079 1.389 . S
C2081 C2082 1.524 . S
C2082 C2081 1.524 . S
C2082 C2083 1.397 . S
C2082 C2087 1.363 . S
C2083 H2054 0.950 . S
C2083 C2082 1.397 . S
C2083 C2084 1.334 . S
C2084 H2055 0.950 . S
C2084 C2083 1.334 . S
C2084 C2085 1.287 . S
C2085 C2084 1.287 . S
C2085 C2086 1.524 . S
C2085 H2088 0.999 . S
C2086 H2056 0.950 . S
C2086 C2085 1.524 . S
C2086 C2087 1.415 . S
C2087 H2057 0.950 . S
C2087 C2082 1.363 . S
C2087 C2086 1.415 . S
H2088 C2085 0.999 . S
H2089 C2070 0.913 . S
H2090 C2108 0.951 . S
H2091 C2110 0.951 . S
H2092 C2112 0.950 . S
H2093 C2113 0.950 . S
H2094 C2115 0.950 . S
H2095 C2118 0.950 . S
H2096 C2119 0.950 . S
H2097 C2121 0.950 . S
H2098 C2122 0.950 . S
H2099 C2123 0.951 . S
H2100 C2125 0.951 . S
H2101 C2127 0.950 . S
H2102 C2128 0.950 . S
H2103 C2130 0.950 . S
H2104 C2133 0.950 . S
H2105 C2134 0.950 . S
H2106 C2136 0.950 . S
H2107 C2137 0.950 . S
C2108 H2090 0.951 . S
C2108 C2109 1.366 . S
C2108 C2110 1.388 . S
C2109 C2108 1.366 . S
C2109 C2113 1.385 . S
C2110 H2091 0.951 . S
C2110 C2108 1.388 . S
C2110 C2111 1.366 . S
C2111 C2110 1.366 . S
C2111 C2112 1.414 . S
C2111 C2114 1.499 . S
C2112 H2092 0.950 . S
C2112 C2111 1.414 . S
C2112 C2113 1.374 . S
C2113 H2093 0.950 . S
C2113 C2109 1.385 . S
C2113 C2112 1.374 . S
C2114 C2111 1.499 . S
C2114 C2115 1.373 . S
C2114 C2116 1.389 . S
C2115 H2094 0.950 . S
C2115 C2114 1.373 . S
C2115 C2131 1.377 . S
C2116 C2114 1.389 . S
C2116 C2117 1.524 . S
C2116 C2130 1.377 . S
C2117 C2116 1.524 . S
C2117 C2118 1.397 . S
C2117 C2122 1.363 . S
C2118 H2095 0.950 . S
C2118 C2117 1.397 . S
C2118 C2119 1.334 . S
C2119 H2096 0.950 . S
C2119 C2118 1.334 . S
C2119 C2120 1.287 . S
C2120 C2119 1.287 . S
C2120 C2121 1.524 . S
C2120 H2139 0.913 . S
C2121 H2097 0.950 . S
C2121 C2120 1.524 . S
C2121 C2122 1.415 . S
C2122 H2098 0.950 . S
C2122 C2117 1.363 . S
C2122 C2121 1.415 . S
C2123 H2099 0.951 . S
C2123 C2124 1.366 . S
C2123 C2125 1.388 . S
C2124 C2123 1.366 . S
C2124 C2128 1.385 . S
C2125 H2100 0.951 . S
C2125 C2123 1.388 . S
C2125 C2126 1.366 . S
C2126 C2125 1.366 . S
C2126 C2127 1.414 . S
C2126 C2129 1.499 . S
C2127 H2101 0.950 . S
C2127 C2126 1.414 . S
C2127 C2128 1.374 . S
C2128 H2102 0.950 . S
C2128 C2124 1.385 . S
C2128 C2127 1.374 . S
C2129 C2126 1.499 . S
C2129 C2130 1.373 . S
C2129 C2131 1.389 . S
C2130 H2103 0.950 . S
C2130 C2116 1.377 . S
C2130 C2129 1.373 . S
C2131 C2115 1.377 . S
C2131 C2129 1.389 . S
C2131 C2132 1.524 . S
C2132 C2131 1.524 . S
C2132 C2133 1.397 . S
C2132 C2137 1.363 . S
C2133 H2104 0.950 . S
C2133 C2132 1.397 . S
C2133 C2134 1.334 . S
C2134 H2105 0.950 . S
C2134 C2133 1.334 . S
C2134 C2135 1.287 . S
C2135 C2134 1.287 . S
C2135 C2136 1.524 . S
C2135 H2138 0.999 . S
C2136 H2106 0.950 . S
C2136 C2135 1.524 . S
C2136 C2137 1.415 . S
C2137 H2107 0.950 . S
C2137 C2132 1.363 . S
C2137 C2136 1.415 . S
H2138 C2135 0.999 . S
H2139 C2120 0.913 . S
H2140 C2158 0.951 . S
H2141 C2160 0.951 . S
H2142 C2162 0.950 . S
H2143 C2163 0.950 . S
H2144 C2165 0.950 . S
H2145 C2168 0.950 . S
H2146 C2169 0.950 . S
H2147 C2171 0.950 . S
H2148 C2172 0.950 . S
H2149 C2173 0.951 . S
H2150 C2175 0.951 . S
H2151 C2177 0.950 . S
H2152 C2178 0.950 . S
H2153 C2180 0.950 . S
H2154 C2183 0.950 . S
H2155 C2184 0.950 . S
H2156 C2186 0.950 . S
H2157 C2187 0.950 . S
C2158 H2140 0.951 . S
C2158 C2159 1.366 . S
C2158 C2160 1.388 . S
C2159 C2158 1.366 . S
C2159 C2163 1.385 . S
C2160 H2141 0.951 . S
C2160 C2158 1.388 . S
C2160 C2161 1.366 . S
C2161 C2160 1.366 . S
C2161 C2162 1.414 . S
C2161 C2164 1.499 . S
C2162 H2142 0.950 . S
C2162 C2161 1.414 . S
C2162 C2163 1.374 . S
C2163 H2143 0.950 . S
C2163 C2159 1.385 . S
C2163 C2162 1.374 . S
C2164 C2161 1.499 . S
C2164 C2165 1.373 . S
C2164 C2166 1.389 . S
C2165 H2144 0.950 . S
C2165 C2164 1.373 . S
C2165 C2181 1.377 . S
C2166 C2164 1.389 . S
C2166 C2167 1.524 . S
C2166 C2180 1.377 . S
C2167 C2166 1.524 . S
C2167 C2168 1.397 . S
C2167 C2172 1.363 . S
C2168 H2145 0.950 . S
C2168 C2167 1.397 . S
C2168 C2169 1.334 . S
C2169 H2146 0.950 . S
C2169 C2168 1.334 . S
C2169 C2170 1.287 . S
C2170 C2169 1.287 . S
C2170 C2171 1.524 . S
C2170 H2189 0.913 . S
C2171 H2147 0.950 . S
C2171 C2170 1.524 . S
C2171 C2172 1.415 . S
C2172 H2148 0.950 . S
C2172 C2167 1.363 . S
C2172 C2171 1.415 . S
C2173 H2149 0.951 . S
C2173 C2174 1.366 . S
C2173 C2175 1.388 . S
C2174 C2173 1.366 . S
C2174 C2178 1.385 . S
C2175 H2150 0.951 . S
C2175 C2173 1.388 . S
C2175 C2176 1.366 . S
C2176 C2175 1.366 . S
C2176 C2177 1.414 . S
C2176 C2179 1.499 . S
C2177 H2151 0.950 . S
C2177 C2176 1.414 . S
C2177 C2178 1.374 . S
C2178 H2152 0.950 . S
C2178 C2174 1.385 . S
C2178 C2177 1.374 . S
C2179 C2176 1.499 . S
C2179 C2180 1.373 . S
C2179 C2181 1.389 . S
C2180 H2153 0.950 . S
C2180 C2166 1.377 . S
C2180 C2179 1.373 . S
C2181 C2165 1.377 . S
C2181 C2179 1.389 . S
C2181 C2182 1.524 . S
C2182 C2181 1.524 . S
C2182 C2183 1.397 . S
C2182 C2187 1.363 . S
C2183 H2154 0.950 . S
C2183 C2182 1.397 . S
C2183 C2184 1.334 . S
C2184 H2155 0.950 . S
C2184 C2183 1.334 . S
C2184 C2185 1.287 . S
C2185 C2184 1.287 . S
C2185 C2186 1.524 . S
C2185 H2188 0.999 . S
C2186 H2156 0.950 . S
C2186 C2185 1.524 . S
C2186 C2187 1.415 . S
C2187 H2157 0.950 . S
C2187 C2182 1.363 . S
C2187 C2186 1.415 . S
H2188 C2185 0.999 . S
H2189 C2170 0.913 . S
H2190 C2208 0.951 . S
H2191 C2210 0.951 . S
H2192 C2212 0.950 . S
H2193 C2213 0.950 . S
H2194 C2215 0.950 . S
H2195 C2218 0.950 . S
H2196 C2219 0.950 . S
H2197 C2221 0.950 . S
H2198 C2222 0.950 . S
H2199 C2223 0.951 . S
H2200 C2225 0.951 . S
H2201 C2227 0.950 . S
H2202 C2228 0.950 . S
H2203 C2230 0.950 . S
H2204 C2233 0.950 . S
H2205 C2234 0.950 . S
H2206 C2236 0.950 . S
H2207 C2237 0.950 . S
C2208 H2190 0.951 . S
C2208 C2209 1.366 . S
C2208 C2210 1.388 . S
C2209 C2208 1.366 . S
C2209 C2213 1.385 . S
C2210 H2191 0.951 . S
C2210 C2208 1.388 . S
C2210 C2211 1.366 . S
C2211 C2210 1.366 . S
C2211 C2212 1.414 . S
C2211 C2214 1.499 . S
C2212 H2192 0.950 . S
C2212 C2211 1.414 . S
C2212 C2213 1.374 . S
C2213 H2193 0.950 . S
C2213 C2209 1.385 . S
C2213 C2212 1.374 . S
C2214 C2211 1.499 . S
C2214 C2215 1.373 . S
C2214 C2216 1.389 . S
C2215 H2194 0.950 . S
C2215 C2214 1.373 . S
C2215 C2231 1.377 . S
C2216 C2214 1.389 . S
C2216 C2217 1.524 . S
C2216 C2230 1.377 . S
C2217 C2216 1.524 . S
C2217 C2218 1.397 . S
C2217 C2222 1.363 . S
C2218 H2195 0.950 . S
C2218 C2217 1.397 . S
C2218 C2219 1.334 . S
C2219 H2196 0.950 . S
C2219 C2218 1.334 . S
C2219 C2220 1.287 . S
C2220 C2219 1.287 . S
C2220 C2221 1.524 . S
C2220 H2239 0.913 . S
C2221 H2197 0.950 . S
C2221 C2220 1.524 . S
C2221 C2222 1.415 . S
C2222 H2198 0.950 . S
C2222 C2217 1.363 . S
C2222 C2221 1.415 . S
C2223 H2199 0.951 . S
C2223 C2224 1.366 . S
C2223 C2225 1.388 . S
C2224 C2223 1.366 . S
C2224 C2228 1.385 . S
C2225 H2200 0.951 . S
C2225 C2223 1.388 . S
C2225 C2226 1.366 . S
C2226 C2225 1.366 . S
C2226 C2227 1.414 . S
C2226 C2229 1.499 . S
C2227 H2201 0.950 . S
C2227 C2226 1.414 . S
C2227 C2228 1.374 . S
C2228 H2202 0.950 . S
C2228 C2224 1.385 . S
C2228 C2227 1.374 . S
C2229 C2226 1.499 . S
C2229 C2230 1.373 . S
C2229 C2231 1.389 . S
C2230 H2203 0.950 . S
C2230 C2216 1.377 . S
C2230 C2229 1.373 . S
C2231 C2215 1.377 . S
C2231 C2229 1.389 . S
C2231 C2232 1.524 . S
C2232 C2231 1.524 . S
C2232 C2233 1.397 . S
C2232 C2237 1.363 . S
C2233 H2204 0.950 . S
C2233 C2232 1.397 . S
C2233 C2234 1.334 . S
C2234 H2205 0.950 . S
C2234 C2233 1.334 . S
C2234 C2235 1.287 . S
C2235 C2234 1.287 . S
C2235 C2236 1.524 . S
C2235 H2238 0.999 . S
C2236 H2206 0.950 . S
C2236 C2235 1.524 . S
C2236 C2237 1.415 . S
C2237 H2207 0.950 . S
C2237 C2232 1.363 . S
C2237 C2236 1.415 . S
H2238 C2235 0.999 . S
H2239 C2220 0.913 . S
H2240 C2258 0.951 . S
H2241 C2260 0.951 . S
H2242 C2262 0.950 . S
H2243 C2263 0.950 . S
H2244 C2265 0.950 . S
H2245 C2268 0.950 . S
H2246 C2269 0.950 . S
H2247 C2271 0.950 . S
H2248 C2272 0.950 . S
H2249 C2273 0.951 . S
H2250 C2275 0.951 . S
H2251 C2277 0.950 . S
H2252 C2278 0.950 . S
H2253 C2280 0.950 . S
H2254 C2283 0.950 . S
H2255 C2284 0.950 . S
H2256 C2286 0.950 . S
H2257 C2287 0.950 . S
C2258 H2240 0.951 . S
C2258 C2259 1.366 . S
C2258 C2260 1.388 . S
C2259 C2258 1.366 . S
C2259 C2263 1.385 . S
C2260 H2241 0.951 . S
C2260 C2258 1.388 . S
C2260 C2261 1.366 . S
C2261 C2260 1.366 . S
C2261 C2262 1.414 . S
C2261 C2264 1.499 . S
C2262 H2242 0.950 . S
C2262 C2261 1.414 . S
C2262 C2263 1.374 . S
C2263 H2243 0.950 . S
C2263 C2259 1.385 . S
C2263 C2262 1.374 . S
C2264 C2261 1.499 . S
C2264 C2265 1.373 . S
C2264 C2266 1.389 . S
C2265 H2244 0.950 . S
C2265 C2264 1.373 . S
C2265 C2281 1.377 . S
C2266 C2264 1.389 . S
C2266 C2267 1.524 . S
C2266 C2280 1.377 . S
C2267 C2266 1.524 . S
C2267 C2268 1.397 . S
C2267 C2272 1.363 . S
C2268 H2245 0.950 . S
C2268 C2267 1.397 . S
C2268 C2269 1.334 . S
C2269 H2246 0.950 . S
C2269 C2268 1.334 . S
C2269 C2270 1.287 . S
C2270 C2269 1.287 . S
C2270 C2271 1.524 . S
C2270 H2289 0.913 . S
C2271 H2247 0.950 . S
C2271 C2270 1.524 . S
C2271 C2272 1.415 . S
C2272 H2248 0.950 . S
C2272 C2267 1.363 . S
C2272 C2271 1.415 . S
C2273 H2249 0.951 . S
C2273 C2274 1.366 . S
C2273 C2275 1.388 . S
C2274 C2273 1.366 . S
C2274 C2278 1.385 . S
C2275 H2250 0.951 . S
C2275 C2273 1.388 . S
C2275 C2276 1.366 . S
C2276 C2275 1.366 . S
C2276 C2277 1.414 . S
C2276 C2279 1.499 . S
C2277 H2251 0.950 . S
C2277 C2276 1.414 . S
C2277 C2278 1.374 . S
C2278 H2252 0.950 . S
C2278 C2274 1.385 . S
C2278 C2277 1.374 . S
C2279 C2276 1.499 . S
C2279 C2280 1.373 . S
C2279 C2281 1.389 . S
C2280 H2253 0.950 . S
C2280 C2266 1.377 . S
C2280 C2279 1.373 . S
C2281 C2265 1.377 . S
C2281 C2279 1.389 . S
C2281 C2282 1.524 . S
C2282 C2281 1.524 . S
C2282 C2283 1.397 . S
C2282 C2287 1.363 . S
C2283 H2254 0.950 . S
C2283 C2282 1.397 . S
C2283 C2284 1.334 . S
C2284 H2255 0.950 . S
C2284 C2283 1.334 . S
C2284 C2285 1.287 . S
C2285 C2284 1.287 . S
C2285 C2286 1.524 . S
C2285 H2288 0.999 . S
C2286 H2256 0.950 . S
C2286 C2285 1.524 . S
C2286 C2287 1.415 . S
C2287 H2257 0.950 . S
C2287 C2282 1.363 . S
C2287 C2286 1.415 . S
H2288 C2285 0.999 . S
H2289 C2270 0.913 . S
H2290 C2308 0.951 . S
H2291 C2310 0.951 . S
H2292 C2312 0.950 . S
H2293 C2313 0.950 . S
H2294 C2315 0.950 . S
H2295 C2318 0.950 . S
H2296 C2319 0.950 . S
H2297 C2321 0.950 . S
H2298 C2322 0.950 . S
H2299 C2323 0.951 . S
H2300 C2325 0.951 . S
H2301 C2327 0.950 . S
H2302 C2328 0.950 . S
H2303 C2330 0.950 . S
H2304 C2333 0.950 . S
H2305 C2334 0.950 . S
H2306 C2336 0.950 . S
H2307 C2337 0.950 . S
C2308 H2290 0.951 . S
C2308 C2309 1.366 . S
C2308 C2310 1.388 . S
C2309 C2308 1.366 . S
C2309 C2313 1.385 . S
C2310 H2291 0.951 . S
C2310 C2308 1.388 . S
C2310 C2311 1.366 . S
C2311 C2310 1.366 . S
C2311 C2312 1.414 . S
C2311 C2314 1.499 . S
C2312 H2292 0.950 . S
C2312 C2311 1.414 . S
C2312 C2313 1.374 . S
C2313 H2293 0.950 . S
C2313 C2309 1.385 . S
C2313 C2312 1.374 . S
C2314 C2311 1.499 . S
C2314 C2315 1.373 . S
C2314 C2316 1.389 . S
C2315 H2294 0.950 . S
C2315 C2314 1.373 . S
C2315 C2331 1.377 . S
C2316 C2314 1.389 . S
C2316 C2317 1.524 . S
C2316 C2330 1.377 . S
C2317 C2316 1.524 . S
C2317 C2318 1.397 . S
C2317 C2322 1.363 . S
C2318 H2295 0.950 . S
C2318 C2317 1.397 . S
C2318 C2319 1.334 . S
C2319 H2296 0.950 . S
C2319 C2318 1.334 . S
C2319 C2320 1.287 . S
C2320 C2319 1.287 . S
C2320 C2321 1.524 . S
C2320 H2339 0.913 . S
C2321 H2297 0.950 . S
C2321 C2320 1.524 . S
C2321 C2322 1.415 . S
C2322 H2298 0.950 . S
C2322 C2317 1.363 . S
C2322 C2321 1.415 . S
C2323 H2299 0.951 . S
C2323 C2324 1.366 . S
C2323 C2325 1.388 . S
C2324 C2323 1.366 . S
C2324 C2328 1.385 . S
C2325 H2300 0.951 . S
C2325 C2323 1.388 . S
C2325 C2326 1.366 . S
C2326 C2325 1.366 . S
C2326 C2327 1.414 . S
C2326 C2329 1.499 . S
C2327 H2301 0.950 . S
C2327 C2326 1.414 . S
C2327 C2328 1.374 . S
C2328 H2302 0.950 . S
C2328 C2324 1.385 . S
C2328 C2327 1.374 . S
C2329 C2326 1.499 . S
C2329 C2330 1.373 . S
C2329 C2331 1.389 . S
C2330 H2303 0.950 . S
C2330 C2316 1.377 . S
C2330 C2329 1.373 . S
C2331 C2315 1.377 . S
C2331 C2329 1.389 . S
C2331 C2332 1.524 . S
C2332 C2331 1.524 . S
C2332 C2333 1.397 . S
C2332 C2337 1.363 . S
C2333 H2304 0.950 . S
C2333 C2332 1.397 . S
C2333 C2334 1.334 . S
C2334 H2305 0.950 . S
C2334 C2333 1.334 . S
C2334 C2335 1.287 . S
C2335 C2334 1.287 . S
C2335 C2336 1.524 . S
C2335 H2338 0.999 . S
C2336 H2306 0.950 . S
C2336 C2335 1.524 . S
C2336 C2337 1.415 . S
C2337 H2307 0.950 . S
C2337 C2332 1.363 . S
C2337 C2336 1.415 . S
H2338 C2335 0.999 . S
H2339 C2320 0.913 . S
H2340 C2358 0.951 . S
H2341 C2360 0.951 . S
H2342 C2362 0.950 . S
H2343 C2363 0.950 . S
H2344 C2365 0.950 . S
H2345 C2368 0.950 . S
H2346 C2369 0.950 . S
H2347 C2371 0.950 . S
H2348 C2372 0.950 . S
H2349 C2373 0.951 . S
H2350 C2375 0.951 . S
H2351 C2377 0.950 . S
H2352 C2378 0.950 . S
H2353 C2380 0.950 . S
H2354 C2383 0.950 . S
H2355 C2384 0.950 . S
H2356 C2386 0.950 . S
H2357 C2387 0.950 . S
C2358 H2340 0.951 . S
C2358 C2359 1.366 . S
C2358 C2360 1.388 . S
C2359 C2358 1.366 . S
C2359 C2363 1.385 . S
C2360 H2341 0.951 . S
C2360 C2358 1.388 . S
C2360 C2361 1.366 . S
C2361 C2360 1.366 . S
C2361 C2362 1.414 . S
C2361 C2364 1.499 . S
C2362 H2342 0.950 . S
C2362 C2361 1.414 . S
C2362 C2363 1.374 . S
C2363 H2343 0.950 . S
C2363 C2359 1.385 . S
C2363 C2362 1.374 . S
C2364 C2361 1.499 . S
C2364 C2365 1.373 . S
C2364 C2366 1.389 . S
C2365 H2344 0.950 . S
C2365 C2364 1.373 . S
C2365 C2381 1.377 . S
C2366 C2364 1.389 . S
C2366 C2367 1.524 . S
C2366 C2380 1.377 . S
C2367 C2366 1.524 . S
C2367 C2368 1.397 . S
C2367 C2372 1.363 . S
C2368 H2345 0.950 . S
C2368 C2367 1.397 . S
C2368 C2369 1.334 . S
C2369 H2346 0.950 . S
C2369 C2368 1.334 . S
C2369 C2370 1.287 . S
C2370 C2369 1.287 . S
C2370 C2371 1.524 . S
C2370 H2389 0.913 . S
C2371 H2347 0.950 . S
C2371 C2370 1.524 . S
C2371 C2372 1.415 . S
C2372 H2348 0.950 . S
C2372 C2367 1.363 . S
C2372 C2371 1.415 . S
C2373 H2349 0.951 . S
C2373 C2374 1.366 . S
C2373 C2375 1.388 . S
C2374 C2373 1.366 . S
C2374 C2378 1.385 . S
C2375 H2350 0.951 . S
C2375 C2373 1.388 . S
C2375 C2376 1.366 . S
C2376 C2375 1.366 . S
C2376 C2377 1.414 . S
C2376 C2379 1.499 . S
C2377 H2351 0.950 . S
C2377 C2376 1.414 . S
C2377 C2378 1.374 . S
C2378 H2352 0.950 . S
C2378 C2374 1.385 . S
C2378 C2377 1.374 . S
C2379 C2376 1.499 . S
C2379 C2380 1.373 . S
C2379 C2381 1.389 . S
C2380 H2353 0.950 . S
C2380 C2366 1.377 . S
C2380 C2379 1.373 . S
C2381 C2365 1.377 . S
C2381 C2379 1.389 . S
C2381 C2382 1.524 . S
C2382 C2381 1.524 . S
C2382 C2383 1.397 . S
C2382 C2387 1.363 . S
C2383 H2354 0.950 . S
C2383 C2382 1.397 . S
C2383 C2384 1.334 . S
C2384 H2355 0.950 . S
C2384 C2383 1.334 . S
C2384 C2385 1.287 . S
C2385 C2384 1.287 . S
C2385 C2386 1.524 . S
C2385 H2388 0.999 . S
C2386 H2356 0.950 . S
C2386 C2385 1.524 . S
C2386 C2387 1.415 . S
C2387 H2357 0.950 . S
C2387 C2382 1.363 . S
C2387 C2386 1.415 . S
H2388 C2385 0.999 . S
H2389 C2370 0.913 . S
H2390 C2408 0.951 . S
H2391 C2410 0.951 . S
H2392 C2412 0.950 . S
H2393 C2413 0.950 . S
H2394 C2415 0.950 . S
H2395 C2418 0.950 . S
H2396 C2419 0.950 . S
H2397 C2421 0.950 . S
H2398 C2422 0.950 . S
H2399 C2423 0.951 . S
H2400 C2425 0.951 . S
H2401 C2427 0.950 . S
H2402 C2428 0.950 . S
H2403 C2430 0.950 . S
H2404 C2433 0.950 . S
H2405 C2434 0.950 . S
H2406 C2436 0.950 . S
H2407 C2437 0.950 . S
C2408 H2390 0.951 . S
C2408 C2409 1.366 . S
C2408 C2410 1.388 . S
C2409 C2408 1.366 . S
C2409 C2413 1.385 . S
C2410 H2391 0.951 . S
C2410 C2408 1.388 . S
C2410 C2411 1.366 . S
C2411 C2410 1.366 . S
C2411 C2412 1.414 . S
C2411 C2414 1.499 . S
C2412 H2392 0.950 . S
C2412 C2411 1.414 . S
C2412 C2413 1.374 . S
C2413 H2393 0.950 . S
C2413 C2409 1.385 . S
C2413 C2412 1.374 . S
C2414 C2411 1.499 . S
C2414 C2415 1.373 . S
C2414 C2416 1.389 . S
C2415 H2394 0.950 . S
C2415 C2414 1.373 . S
C2415 C2431 1.377 . S
C2416 C2414 1.389 . S
C2416 C2417 1.524 . S
C2416 C2430 1.377 . S
C2417 C2416 1.524 . S
C2417 C2418 1.397 . S
C2417 C2422 1.363 . S
C2418 H2395 0.950 . S
C2418 C2417 1.397 . S
C2418 C2419 1.334 . S
C2419 H2396 0.950 . S
C2419 C2418 1.334 . S
C2419 C2420 1.287 . S
C2420 C2419 1.287 . S
C2420 C2421 1.524 . S
C2420 H2439 0.913 . S
C2421 H2397 0.950 . S
C2421 C2420 1.524 . S
C2421 C2422 1.415 . S
C2422 H2398 0.950 . S
C2422 C2417 1.363 . S
C2422 C2421 1.415 . S
C2423 H2399 0.951 . S
C2423 C2424 1.366 . S
C2423 C2425 1.388 . S
C2424 C2423 1.366 . S
C2424 C2428 1.385 . S
C2425 H2400 0.951 . S
C2425 C2423 1.388 . S
C2425 C2426 1.366 . S
C2426 C2425 1.366 . S
C2426 C2427 1.414 . S
C2426 C2429 1.499 . S
C2427 H2401 0.950 . S
C2427 C2426 1.414 . S
C2427 C2428 1.374 . S
C2428 H2402 0.950 . S
C2428 C2424 1.385 . S
C2428 C2427 1.374 . S
C2429 C2426 1.499 . S
C2429 C2430 1.373 . S
C2429 C2431 1.389 . S
C2430 H2403 0.950 . S
C2430 C2416 1.377 . S
C2430 C2429 1.373 . S
C2431 C2415 1.377 . S
C2431 C2429 1.389 . S
C2431 C2432 1.524 . S
C2432 C2431 1.524 . S
C2432 C2433 1.397 . S
C2432 C2437 1.363 . S
C2433 H2404 0.950 . S
C2433 C2432 1.397 . S
C2433 C2434 1.334 . S
C2434 H2405 0.950 . S
C2434 C2433 1.334 . S
C2434 C2435 1.287 . S
C2435 C2434 1.287 . S
C2435 C2436 1.524 . S
C2435 H2438 0.999 . S
C2436 H2406 0.950 . S
C2436 C2435 1.524 . S
C2436 C2437 1.415 . S
C2437 H2407 0.950 . S
C2437 C2432 1.363 . S
C2437 C2436 1.415 . S
H2438 C2435 0.999 . S
H2439 C2420 0.913 . S
H2440 C2458 0.951 . S
H2441 C2460 0.951 . S
H2442 C2462 0.950 . S
H2443 C2463 0.950 . S
H2444 C2465 0.950 . S
H2445 C2468 0.950 . S
H2446 C2469 0.950 . S
H2447 C2471 0.950 . S
H2448 C2472 0.950 . S
H2449 C2473 0.951 . S
H2450 C2475 0.951 . S
H2451 C2477 0.950 . S
H2452 C2478 0.950 . S
H2453 C2480 0.950 . S
H2454 C2483 0.950 . S
H2455 C2484 0.950 . S
H2456 C2486 0.950 . S
H2457 C2487 0.950 . S
C2458 H2440 0.951 . S
C2458 C2459 1.366 . S
C2458 C2460 1.388 . S
C2459 C2458 1.366 . S
C2459 C2463 1.385 . S
C2460 H2441 0.951 . S
C2460 C2458 1.388 . S
C2460 C2461 1.366 . S
C2461 C2460 1.366 . S
C2461 C2462 1.414 . S
C2461 C2464 1.499 . S
C2462 H2442 0.950 . S
C2462 C2461 1.414 . S
C2462 C2463 1.374 . S
C2463 H2443 0.950 . S
C2463 C2459 1.385 . S
C2463 C2462 1.374 . S
C2464 C2461 1.499 . S
C2464 C2465 1.373 . S
C2464 C2466 1.389 . S
C2465 H2444 0.950 . S
C2465 C2464 1.373 . S
C2465 C2481 1.377 . S
C2466 C2464 1.389 . S
C2466 C2467 1.524 . S
C2466 C2480 1.377 . S
C2467 C2466 1.524 . S
C2467 C2468 1.397 . S
C2467 C2472 1.363 . S
C2468 H2445 0.950 . S
C2468 C2467 1.397 . S
C2468 C2469 1.334 . S
C2469 H2446 0.950 . S
C2469 C2468 1.334 . S
C2469 C2470 1.287 . S
C2470 C2469 1.287 . S
C2470 C2471 1.524 . S
C2470 H2489 0.913 . S
C2471 H2447 0.950 . S
C2471 C2470 1.524 . S
C2471 C2472 1.415 . S
C2472 H2448 0.950 . S
C2472 C2467 1.363 . S
C2472 C2471 1.415 . S
C2473 H2449 0.951 . S
C2473 C2474 1.366 . S
C2473 C2475 1.388 . S
C2474 C2473 1.366 . S
C2474 C2478 1.385 . S
C2475 H2450 0.951 . S
C2475 C2473 1.388 . S
C2475 C2476 1.366 . S
C2476 C2475 1.366 . S
C2476 C2477 1.414 . S
C2476 C2479 1.499 . S
C2477 H2451 0.950 . S
C2477 C2476 1.414 . S
C2477 C2478 1.374 . S
C2478 H2452 0.950 . S
C2478 C2474 1.385 . S
C2478 C2477 1.374 . S
C2479 C2476 1.499 . S
C2479 C2480 1.373 . S
C2479 C2481 1.389 . S
C2480 H2453 0.950 . S
C2480 C2466 1.377 . S
C2480 C2479 1.373 . S
C2481 C2465 1.377 . S
C2481 C2479 1.389 . S
C2481 C2482 1.524 . S
C2482 C2481 1.524 . S
C2482 C2483 1.397 . S
C2482 C2487 1.363 . S
C2483 H2454 0.950 . S
C2483 C2482 1.397 . S
C2483 C2484 1.334 . S
C2484 H2455 0.950 . S
C2484 C2483 1.334 . S
C2484 C2485 1.287 . S
C2485 C2484 1.287 . S
C2485 C2486 1.524 . S
C2485 H2488 0.999 . S
C2486 H2456 0.950 . S
C2486 C2485 1.524 . S
C2486 C2487 1.415 . S
C2487 H2457 0.950 . S
C2487 C2482 1.363 . S
C2487 C2486 1.415 . S
H2488 C2485 0.999 . S
H2489 C2470 0.913 . S
H2490 C2508 0.951 . S
H2491 C2510 0.951 . S
H2492 C2512 0.950 . S
H2493 C2513 0.950 . S
H2494 C2515 0.950 . S
H2495 C2518 0.950 . S
H2496 C2519 0.950 . S
H2497 C2521 0.950 . S
H2498 C2522 0.950 . S
H2499 C2523 0.951 . S
H2500 C2525 0.951 . S
H2501 C2527 0.950 . S
H2502 C2528 0.950 . S
H2503 C2530 0.950 . S
H2504 C2533 0.950 . S
H2505 C2534 0.950 . S
H2506 C2536 0.950 . S
H2507 C2537 0.950 . S
C2508 H2490 0.951 . S
C2508 C2509 1.366 . S
C2508 C2510 1.388 . S
C2509 C2508 1.366 . S
C2509 C2513 1.385 . S
C2510 H2491 0.951 . S
C2510 C2508 1.388 . S
C2510 C2511 1.366 . S
C2511 C2510 1.366 . S
C2511 C2512 1.414 . S
C2511 C2514 1.499 . S
C2512 H2492 0.950 . S
C2512 C2511 1.414 . S
C2512 C2513 1.374 . S
C2513 H2493 0.950 . S
C2513 C2509 1.385 . S
C2513 C2512 1.374 . S
C2514 C2511 1.499 . S
C2514 C2515 1.373 . S
C2514 C2516 1.389 . S
C2515 H2494 0.950 . S
C2515 C2514 1.373 . S
C2515 C2531 1.377 . S
C2516 C2514 1.389 . S
C2516 C2517 1.524 . S
C2516 C2530 1.377 . S
C2517 C2516 1.524 . S
C2517 C2518 1.397 . S
C2517 C2522 1.363 . S
C2518 H2495 0.950 . S
C2518 C2517 1.397 . S
C2518 C2519 1.334 . S
C2519 H2496 0.950 . S
C2519 C2518 1.334 . S
C2519 C2520 1.287 . S
C2520 C2519 1.287 . S
C2520 C2521 1.524 . S
C2520 H2539 0.913 . S
C2521 H2497 0.950 . S
C2521 C2520 1.524 . S
C2521 C2522 1.415 . S
C2522 H2498 0.950 . S
C2522 C2517 1.363 . S
C2522 C2521 1.415 . S
C2523 H2499 0.951 . S
C2523 C2524 1.366 . S
C2523 C2525 1.388 . S
C2524 C2523 1.366 . S
C2524 C2528 1.385 . S
C2525 H2500 0.951 . S
C2525 C2523 1.388 . S
C2525 C2526 1.366 . S
C2526 C2525 1.366 . S
C2526 C2527 1.414 . S
C2526 C2529 1.499 . S
C2527 H2501 0.950 . S
C2527 C2526 1.414 . S
C2527 C2528 1.374 . S
C2528 H2502 0.950 . S
C2528 C2524 1.385 . S
C2528 C2527 1.374 . S
C2529 C2526 1.499 . S
C2529 C2530 1.373 . S
C2529 C2531 1.389 . S
C2530 H2503 0.950 . S
C2530 C2516 1.377 . S
C2530 C2529 1.373 . S
C2531 C2515 1.377 . S
C2531 C2529 1.389 . S
C2531 C2532 1.524 . S
C2532 C2531 1.524 . S
C2532 C2533 1.397 . S
C2532 C2537 1.363 . S
C2533 H2504 0.950 . S
C2533 C2532 1.397 . S
C2533 C2534 1.334 . S
C2534 H2505 0.950 . S
C2534 C2533 1.334 . S
C2534 C2535 1.287 . S
C2535 C2534 1.287 . S
C2535 C2536 1.524 . S
C2535 H2538 0.999 . S
C2536 H2506 0.950 . S
C2536 C2535 1.524 . S
C2536 C2537 1.415 . S
C2537 H2507 0.950 . S
C2537 C2532 1.363 . S
C2537 C2536 1.415 . S
H2538 C2535 0.999 . S
H2539 C2520 0.913 . S
H2540 C2558 0.951 . S
H2541 C2560 0.951 . S
H2542 C2562 0.950 . S
H2543 C2563 0.950 . S
H2544 C2565 0.950 . S
H2545 C2568 0.950 . S
H2546 C2569 0.950 . S
H2547 C2571 0.950 . S
H2548 C2572 0.950 . S
H2549 C2573 0.951 . S
H2550 C2575 0.951 . S
H2551 C2577 0.950 . S
H2552 C2578 0.950 . S
H2553 C2580 0.950 . S
H2554 C2583 0.950 . S
H2555 C2584 0.950 . S
H2556 C2586 0.950 . S
H2557 C2587 0.950 . S
C2558 H2540 0.951 . S
C2558 C2559 1.366 . S
C2558 C2560 1.388 . S
C2559 C2558 1.366 . S
C2559 C2563 1.385 . S
C2560 H2541 0.951 . S
C2560 C2558 1.388 . S
C2560 C2561 1.366 . S
C2561 C2560 1.366 . S
C2561 C2562 1.414 . S
C2561 C2564 1.499 . S
C2562 H2542 0.950 . S
C2562 C2561 1.414 . S
C2562 C2563 1.374 . S
C2563 H2543 0.950 . S
C2563 C2559 1.385 . S
C2563 C2562 1.374 . S
C2564 C2561 1.499 . S
C2564 C2565 1.373 . S
C2564 C2566 1.389 . S
C2565 H2544 0.950 . S
C2565 C2564 1.373 . S
C2565 C2581 1.377 . S
C2566 C2564 1.389 . S
C2566 C2567 1.524 . S
C2566 C2580 1.377 . S
C2567 C2566 1.524 . S
C2567 C2568 1.397 . S
C2567 C2572 1.363 . S
C2568 H2545 0.950 . S
C2568 C2567 1.397 . S
C2568 C2569 1.334 . S
C2569 H2546 0.950 . S
C2569 C2568 1.334 . S
C2569 C2570 1.287 . S
C2570 C2569 1.287 . S
C2570 C2571 1.524 . S
C2570 H2589 0.913 . S
C2571 H2547 0.950 . S
C2571 C2570 1.524 . S
C2571 C2572 1.415 . S
C2572 H2548 0.950 . S
C2572 C2567 1.363 . S
C2572 C2571 1.415 . S
C2573 H2549 0.951 . S
C2573 C2574 1.366 . S
C2573 C2575 1.388 . S
C2574 C2573 1.366 . S
C2574 C2578 1.385 . S
C2575 H2550 0.951 . S
C2575 C2573 1.388 . S
C2575 C2576 1.366 . S
C2576 C2575 1.366 . S
C2576 C2577 1.414 . S
C2576 C2579 1.499 . S
C2577 H2551 0.950 . S
C2577 C2576 1.414 . S
C2577 C2578 1.374 . S
C2578 H2552 0.950 . S
C2578 C2574 1.385 . S
C2578 C2577 1.374 . S
C2579 C2576 1.499 . S
C2579 C2580 1.373 . S
C2579 C2581 1.389 . S
C2580 H2553 0.950 . S
C2580 C2566 1.377 . S
C2580 C2579 1.373 . S
C2581 C2565 1.377 . S
C2581 C2579 1.389 . S
C2581 C2582 1.524 . S
C2582 C2581 1.524 . S
C2582 C2583 1.397 . S
C2582 C2587 1.363 . S
C2583 H2554 0.950 . S
C2583 C2582 1.397 . S
C2583 C2584 1.334 . S
C2584 H2555 0.950 . S
C2584 C2583 1.334 . S
C2584 C2585 1.287 . S
C2585 C2584 1.287 . S
C2585 C2586 1.524 . S
C2585 H2588 0.999 . S
C2586 H2556 0.950 . S
C2586 C2585 1.524 . S
C2586 C2587 1.415 . S
C2587 H2557 0.950 . S
C2587 C2582 1.363 . S
C2587 C2586 1.415 . S
H2588 C2585 0.999 . S
H2589 C2570 0.913 . S
H2590 C2608 0.951 . S
H2591 C2610 0.951 . S
H2592 C2612 0.950 . S
H2593 C2613 0.950 . S
H2594 C2615 0.950 . S
H2595 C2618 0.950 . S
H2596 C2619 0.950 . S
H2597 C2621 0.950 . S
H2598 C2622 0.950 . S
H2599 C2623 0.951 . S
H2600 C2625 0.951 . S
H2601 C2627 0.950 . S
H2602 C2628 0.950 . S
H2603 C2630 0.950 . S
H2604 C2633 0.950 . S
H2605 C2634 0.950 . S
H2606 C2636 0.950 . S
H2607 C2637 0.950 . S
C2608 H2590 0.951 . S
C2608 C2609 1.366 . S
C2608 C2610 1.388 . S
C2609 C2608 1.366 . S
C2609 C2613 1.385 . S
C2610 H2591 0.951 . S
C2610 C2608 1.388 . S
C2610 C2611 1.366 . S
C2611 C2610 1.366 . S
C2611 C2612 1.414 . S
C2611 C2614 1.499 . S
C2612 H2592 0.950 . S
C2612 C2611 1.414 . S
C2612 C2613 1.374 . S
C2613 H2593 0.950 . S
C2613 C2609 1.385 . S
C2613 C2612 1.374 . S
C2614 C2611 1.499 . S
C2614 C2615 1.373 . S
C2614 C2616 1.389 . S
C2615 H2594 0.950 . S
C2615 C2614 1.373 . S
C2615 C2631 1.377 . S
C2616 C2614 1.389 . S
C2616 C2617 1.524 . S
C2616 C2630 1.377 . S
C2617 C2616 1.524 . S
C2617 C2618 1.397 . S
C2617 C2622 1.363 . S
C2618 H2595 0.950 . S
C2618 C2617 1.397 . S
C2618 C2619 1.334 . S
C2619 H2596 0.950 . S
C2619 C2618 1.334 . S
C2619 C2620 1.287 . S
C2620 C2619 1.287 . S
C2620 C2621 1.524 . S
C2620 H2639 0.913 . S
C2621 H2597 0.950 . S
C2621 C2620 1.524 . S
C2621 C2622 1.415 . S
C2622 H2598 0.950 . S
C2622 C2617 1.363 . S
C2622 C2621 1.415 . S
C2623 H2599 0.951 . S
C2623 C2624 1.366 . S
C2623 C2625 1.388 . S
C2624 C2623 1.366 . S
C2624 C2628 1.385 . S
C2625 H2600 0.951 . S
C2625 C2623 1.388 . S
C2625 C2626 1.366 . S
C2626 C2625 1.366 . S
C2626 C2627 1.414 . S
C2626 C2629 1.499 . S
C2627 H2601 0.950 . S
C2627 C2626 1.414 . S
C2627 C2628 1.374 . S
C2628 H2602 0.950 . S
C2628 C2624 1.385 . S
C2628 C2627 1.374 . S
C2629 C2626 1.499 . S
C2629 C2630 1.373 . S
C2629 C2631 1.389 . S
C2630 H2603 0.950 . S
C2630 C2616 1.377 . S
C2630 C2629 1.373 . S
C2631 C2615 1.377 . S
C2631 C2629 1.389 . S
C2631 C2632 1.524 . S
C2632 C2631 1.524 . S
C2632 C2633 1.397 . S
C2632 C2637 1.363 . S
C2633 H2604 0.950 . S
C2633 C2632 1.397 . S
C2633 C2634 1.334 . S
C2634 H2605 0.950 . S
C2634 C2633 1.334 . S
C2634 C2635 1.287 . S
C2635 C2634 1.287 . S
C2635 C2636 1.524 . S
C2635 H2638 0.999 . S
C2636 H2606 0.950 . S
C2636 C2635 1.524 . S
C2636 C2637 1.415 . S
C2637 H2607 0.950 . S
C2637 C2632 1.363 . S
C2637 C2636 1.415 . S
H2638 C2635 0.999 . S
H2639 C2620 0.913 . S
H2640 C2658 0.951 . S
H2641 C2660 0.959 . S
H2642 C2662 0.950 . S
H2643 C2663 0.950 . S
H2644 C2665 0.950 . S
H2645 C2668 0.950 . S
H2646 C2669 0.950 . S
H2647 C2671 0.950 . S
H2648 C2672 0.950 . S
H2649 C2673 0.951 . S
H2650 C2675 0.951 . S
H2651 C2677 0.950 . S
H2652 C2678 0.950 . S
H2653 C2680 0.950 . S
H2654 C2683 0.950 . S
H2655 C2684 0.950 . S
H2656 C2686 0.950 . S
H2657 C2687 0.950 . S
C2658 H2640 0.951 . S
C2658 C2659 1.366 . S
C2658 C2660 1.388 . S
C2659 C2658 1.366 . S
C2659 C2663 1.385 . S
C2660 H2641 0.959 . S
C2660 C2658 1.388 . S
C2660 C2661 1.366 1_556 S
C2661 C2660 1.366 1_554 S
C2661 C2662 1.414 1_554 S
C2661 C2664 1.499 . S
C2662 H2642 0.950 . S
C2662 C2661 1.414 1_556 S
C2662 C2663 1.374 . S
C2663 H2643 0.950 . S
C2663 C2659 1.385 . S
C2663 C2662 1.374 . S
C2664 C2661 1.499 . S
C2664 C2665 1.373 . S
C2664 C2666 1.389 . S
C2665 H2644 0.950 . S
C2665 C2664 1.373 . S
C2665 C2681 1.377 . S
C2666 C2664 1.389 . S
C2666 C2667 1.524 . S
C2666 C2680 1.377 . S
C2667 C2666 1.524 . S
C2667 C2668 1.397 . S
C2667 C2672 1.363 . S
C2668 H2645 0.950 . S
C2668 C2667 1.397 . S
C2668 C2669 1.334 . S
C2669 H2646 0.950 . S
C2669 C2668 1.334 . S
C2669 C2670 1.287 . S
C2670 C2669 1.287 . S
C2670 C2671 1.524 . S
C2670 H2689 0.913 . S
C2671 H2647 0.950 . S
C2671 C2670 1.524 . S
C2671 C2672 1.415 . S
C2672 H2648 0.950 . S
C2672 C2667 1.363 . S
C2672 C2671 1.415 . S
C2673 H2649 0.951 . S
C2673 C2674 1.366 . S
C2673 C2675 1.388 . S
C2674 C2673 1.366 . S
C2674 C2678 1.385 . S
C2675 H2650 0.951 . S
C2675 C2673 1.388 . S
C2675 C2676 1.366 . S
C2676 C2675 1.366 . S
C2676 C2677 1.414 . S
C2676 C2679 1.499 . S
C2677 H2651 0.950 . S
C2677 C2676 1.414 . S
C2677 C2678 1.374 . S
C2678 H2652 0.950 . S
C2678 C2674 1.385 . S
C2678 C2677 1.374 . S
C2679 C2676 1.499 . S
C2679 C2680 1.373 . S
C2679 C2681 1.389 . S
C2680 H2653 0.950 . S
C2680 C2666 1.377 . S
C2680 C2679 1.373 . S
C2681 C2665 1.377 . S
C2681 C2679 1.389 . S
C2681 C2682 1.524 . S
C2682 C2681 1.524 . S
C2682 C2683 1.397 . S
C2682 C2687 1.363 . S
C2683 H2654 0.950 . S
C2683 C2682 1.397 . S
C2683 C2684 1.334 . S
C2684 H2655 0.950 . S
C2684 C2683 1.334 . S
C2684 C2685 1.287 . S
C2685 C2684 1.287 . S
C2685 C2686 1.524 . S
C2685 H2688 0.999 . S
C2686 H2656 0.950 . S
C2686 C2685 1.524 . S
C2686 C2687 1.415 . S
C2687 H2657 0.950 . S
C2687 C2682 1.363 . S
C2687 C2686 1.415 . S
H2688 C2685 0.999 . S
H2689 C2670 0.913 . S
H2690 C2708 0.951 . S
H2691 C2710 0.951 . S
H2692 C2712 0.950 . S
H2693 C2713 0.950 . S
H2694 C2715 0.950 . S
H2695 C2718 0.950 . S
H2696 C2719 0.950 . S
H2697 C2721 0.950 . S
H2698 C2722 0.950 . S
H2699 C2723 0.951 . S
H2700 C2725 0.955 . S
H2701 C2727 0.950 . S
H2702 C2728 0.950 . S
H2703 C2730 0.950 . S
H2704 C2733 0.950 . S
H2705 C2734 0.950 . S
H2706 C2736 0.950 . S
H2707 C2737 0.950 . S
C2708 H2690 0.951 . S
C2708 C2709 1.366 . S
C2708 C2710 1.388 . S
C2709 C2708 1.366 . S
C2709 C2713 1.385 . S
C2710 H2691 0.951 . S
C2710 C2708 1.388 . S
C2710 C2711 1.366 . S
C2711 C2710 1.366 . S
C2711 C2712 1.414 . S
C2711 C2714 1.499 . S
C2712 H2692 0.950 . S
C2712 C2711 1.414 . S
C2712 C2713 1.374 . S
C2713 H2693 0.950 . S
C2713 C2709 1.385 . S
C2713 C2712 1.374 . S
C2714 C2711 1.499 . S
C2714 C2715 1.373 . S
C2714 C2716 1.389 . S
C2715 H2694 0.950 . S
C2715 C2714 1.373 . S
C2715 C2731 1.377 . S
C2716 C2714 1.389 . S
C2716 C2717 1.524 . S
C2716 C2730 1.377 . S
C2717 C2716 1.524 . S
C2717 C2718 1.397 . S
C2717 C2722 1.363 . S
C2718 H2695 0.950 . S
C2718 C2717 1.397 . S
C2718 C2719 1.334 . S
C2719 H2696 0.950 . S
C2719 C2718 1.334 . S
C2719 C2720 1.287 . S
C2720 C2719 1.287 . S
C2720 C2721 1.524 . S
C2720 H2739 0.913 . S
C2721 H2697 0.950 . S
C2721 C2720 1.524 . S
C2721 C2722 1.415 . S
C2722 H2698 0.950 . S
C2722 C2717 1.363 . S
C2722 C2721 1.415 . S
C2723 H2699 0.951 . S
C2723 C2724 1.366 . S
C2723 C2725 1.388 . S
C2724 C2723 1.366 . S
C2724 C2728 1.385 . S
C2725 H2700 0.955 . S
C2725 C2723 1.388 . S
C2725 C2726 1.366 1_554 S
C2726 C2725 1.366 1_556 S
C2726 C2727 1.414 1_556 S
C2726 C2729 1.499 . S
C2727 H2701 0.950 . S
C2727 C2726 1.414 1_554 S
C2727 C2728 1.374 . S
C2728 H2702 0.950 . S
C2728 C2724 1.385 . S
C2728 C2727 1.374 . S
C2729 C2726 1.499 . S
C2729 C2730 1.373 . S
C2729 C2731 1.389 . S
C2730 H2703 0.950 . S
C2730 C2716 1.377 . S
C2730 C2729 1.373 . S
C2731 C2715 1.377 . S
C2731 C2729 1.389 . S
C2731 C2732 1.524 . S
C2732 C2731 1.524 . S
C2732 C2733 1.397 . S
C2732 C2737 1.363 . S
C2733 H2704 0.950 . S
C2733 C2732 1.397 . S
C2733 C2734 1.334 . S
C2734 H2705 0.950 . S
C2734 C2733 1.334 . S
C2734 C2735 1.287 . S
C2735 C2734 1.287 . S
C2735 C2736 1.524 . S
C2735 H2738 0.999 . S
C2736 H2706 0.950 . S
C2736 C2735 1.524 . S
C2736 C2737 1.415 . S
C2737 H2707 0.950 . S
C2737 C2732 1.363 . S
C2737 C2736 1.415 . S
H2738 C2735 0.999 . S
H2739 C2720 0.913 . S
H2740 C2758 0.951 . S
H2741 C2760 0.951 . S
H2742 C2762 0.950 . S
H2743 C2763 0.950 . S
H2744 C2765 0.950 . S
H2745 C2768 0.950 . S
H2746 C2769 0.950 . S
H2747 C2771 0.950 . S
H2748 C2772 0.950 . S
H2749 C2773 0.951 . S
H2750 C2775 0.951 . S
H2751 C2777 0.950 . S
H2752 C2778 0.950 . S
H2753 C2780 0.950 . S
H2754 C2783 0.950 . S
H2755 C2784 0.950 1_556 S
H2756 C2786 0.950 . S
H2757 C2787 0.950 . S
C2758 H2740 0.951 . S
C2758 C2759 1.366 . S
C2758 C2760 1.388 . S
C2759 C2758 1.366 . S
C2759 C2763 1.385 . S
C2760 H2741 0.951 . S
C2760 C2758 1.388 . S
C2760 C2761 1.366 . S
C2761 C2760 1.366 . S
C2761 C2762 1.414 . S
C2761 C2764 1.499 . S
C2762 H2742 0.950 . S
C2762 C2761 1.414 . S
C2762 C2763 1.374 . S
C2763 H2743 0.950 . S
C2763 C2759 1.385 . S
C2763 C2762 1.374 . S
C2764 C2761 1.499 . S
C2764 C2765 1.373 . S
C2764 C2766 1.389 . S
C2765 H2744 0.950 . S
C2765 C2764 1.373 . S
C2765 C2781 1.377 . S
C2766 C2764 1.389 . S
C2766 C2767 1.524 . S
C2766 C2780 1.377 . S
C2767 C2766 1.524 . S
C2767 C2768 1.397 . S
C2767 C2772 1.363 . S
C2768 H2745 0.950 . S
C2768 C2767 1.397 . S
C2768 C2769 1.334 . S
C2769 H2746 0.950 . S
C2769 C2768 1.334 . S
C2769 C2770 1.287 . S
C2770 C2769 1.287 . S
C2770 C2771 1.524 . S
C2770 H2789 0.913 . S
C2771 H2747 0.950 . S
C2771 C2770 1.524 . S
C2771 C2772 1.415 . S
C2772 H2748 0.950 . S
C2772 C2767 1.363 . S
C2772 C2771 1.415 . S
C2773 H2749 0.951 . S
C2773 C2774 1.366 . S
C2773 C2775 1.388 . S
C2774 C2773 1.366 . S
C2774 C2778 1.385 . S
C2775 H2750 0.951 . S
C2775 C2773 1.388 . S
C2775 C2776 1.366 1_556 S
C2776 C2775 1.366 1_554 S
C2776 C2777 1.414 1_554 S
C2776 C2779 1.499 . S
C2777 H2751 0.950 . S
C2777 C2776 1.414 1_556 S
C2777 C2778 1.374 . S
C2778 H2752 0.950 . S
C2778 C2774 1.385 . S
C2778 C2777 1.374 . S
C2779 C2776 1.499 . S
C2779 C2780 1.373 . S
C2779 C2781 1.389 . S
C2780 H2753 0.950 . S
C2780 C2766 1.377 . S
C2780 C2779 1.373 . S
C2781 C2765 1.377 . S
C2781 C2779 1.389 . S
C2781 C2782 1.524 . S
C2782 C2781 1.524 . S
C2782 C2783 1.397 . S
C2782 C2787 1.363 . S
C2783 H2754 0.950 . S
C2783 C2782 1.397 . S
C2783 C2784 1.334 . S
C2784 H2755 0.950 1_554 S
C2784 C2783 1.334 . S
C2784 C2785 1.287 . S
C2785 C2784 1.287 . S
C2785 C2786 1.524 . S
C2785 H2788 0.999 1_554 S
C2786 H2756 0.950 . S
C2786 C2785 1.524 . S
C2786 C2787 1.415 . S
C2787 H2757 0.950 . S
C2787 C2782 1.363 . S
C2787 C2786 1.415 . S
H2788 C2785 0.999 1_556 S
H2789 C2770 0.913 . S
H2790 C2808 0.951 . S
H2791 C2810 0.951 . S
H2792 C2812 0.950 . S
H2793 C2813 0.950 . S
H2794 C2815 0.950 . S
H2795 C2818 0.950 . S
H2796 C2819 0.950 . S
H2797 C2821 0.950 . S
H2798 C2822 0.950 . S
H2799 C2823 0.951 . S
H2800 C2825 0.951 . S
H2801 C2827 0.950 . S
H2802 C2828 0.950 . S
H2803 C2830 0.950 . S
H2804 C2833 0.950 . S
H2805 C2834 0.950 . S
H2806 C2836 0.950 . S
H2807 C2837 0.950 . S
C2808 H2790 0.951 . S
C2808 C2809 1.366 . S
C2808 C2810 1.388 . S
C2809 C2808 1.366 . S
C2809 C2813 1.385 . S
C2810 H2791 0.951 . S
C2810 C2808 1.388 . S
C2810 C2811 1.366 1_554 S
C2811 C2810 1.366 1_556 S
C2811 C2812 1.414 1_556 S
C2811 C2814 1.499 . S
C2812 H2792 0.950 . S
C2812 C2811 1.414 1_554 S
C2812 C2813 1.374 . S
C2813 H2793 0.950 . S
C2813 C2809 1.385 . S
C2813 C2812 1.374 . S
C2814 C2811 1.499 . S
C2814 C2815 1.373 . S
C2814 C2816 1.389 . S
C2815 H2794 0.950 . S
C2815 C2814 1.373 . S
C2815 C2831 1.377 . S
C2816 C2814 1.389 . S
C2816 C2817 1.524 . S
C2816 C2830 1.377 . S
C2817 C2816 1.524 . S
C2817 C2818 1.397 . S
C2817 C2822 1.363 . S
C2818 H2795 0.950 . S
C2818 C2817 1.397 . S
C2818 C2819 1.334 . S
C2819 H2796 0.950 . S
C2819 C2818 1.334 . S
C2819 C2820 1.287 . S
C2820 C2819 1.287 . S
C2820 C2821 1.524 . S
C2820 H2839 0.913 . S
C2821 H2797 0.950 . S
C2821 C2820 1.524 . S
C2821 C2822 1.415 . S
C2822 H2798 0.950 . S
C2822 C2817 1.363 . S
C2822 C2821 1.415 . S
C2823 H2799 0.951 . S
C2823 C2824 1.366 . S
C2823 C2825 1.388 . S
C2824 C2823 1.366 . S
C2824 C2828 1.385 . S
C2825 H2800 0.951 . S
C2825 C2823 1.388 . S
C2825 C2826 1.366 . S
C2826 C2825 1.366 . S
C2826 C2827 1.414 . S
C2826 C2829 1.499 . S
C2827 H2801 0.950 . S
C2827 C2826 1.414 . S
C2827 C2828 1.374 . S
C2828 H2802 0.950 . S
C2828 C2824 1.385 . S
C2828 C2827 1.374 . S
C2829 C2826 1.499 . S
C2829 C2830 1.373 . S
C2829 C2831 1.389 . S
C2830 H2803 0.950 . S
C2830 C2816 1.377 . S
C2830 C2829 1.373 . S
C2831 C2815 1.377 . S
C2831 C2829 1.389 . S
C2831 C2832 1.524 . S
C2832 C2831 1.524 . S
C2832 C2833 1.397 . S
C2832 C2837 1.363 . S
C2833 H2804 0.950 . S
C2833 C2832 1.397 . S
C2833 C2834 1.334 . S
C2834 H2805 0.950 . S
C2834 C2833 1.334 . S
C2834 C2835 1.287 . S
C2835 C2834 1.287 . S
C2835 C2836 1.524 . S
C2835 H2838 0.999 . S
C2836 H2806 0.950 . S
C2836 C2835 1.524 . S
C2836 C2837 1.415 . S
C2837 H2807 0.950 . S
C2837 C2832 1.363 . S
C2837 C2836 1.415 . S
H2838 C2835 0.999 . S
H2839 C2820 0.913 . S
H2840 C2858 0.951 . S
H2841 C2860 0.951 . S
H2842 C2862 0.950 . S
H2843 C2863 0.950 . S
H2844 C2865 0.950 . S
H2845 C2868 0.950 . S
H2846 C2869 0.950 . S
H2847 C2871 0.950 . S
H2848 C2872 0.950 . S
H2849 C2873 0.951 . S
H2850 C2875 0.951 . S
H2851 C2877 0.950 . S
H2852 C2878 0.950 . S
H2853 C2880 0.950 . S
H2854 C2883 0.950 . S
H2855 C2884 0.950 . S
H2856 C2886 0.950 . S
H2857 C2887 0.950 . S
C2858 H2840 0.951 . S
C2858 C2859 1.366 . S
C2858 C2860 1.388 . S
C2859 C2858 1.366 . S
C2859 C2863 1.385 . S
C2860 H2841 0.951 . S
C2860 C2858 1.388 . S
C2860 C2861 1.366 . S
C2861 C2860 1.366 . S
C2861 C2862 1.414 . S
C2861 C2864 1.499 . S
C2862 H2842 0.950 . S
C2862 C2861 1.414 . S
C2862 C2863 1.374 . S
C2863 H2843 0.950 . S
C2863 C2859 1.385 . S
C2863 C2862 1.374 . S
C2864 C2861 1.499 . S
C2864 C2865 1.373 . S
C2864 C2866 1.389 . S
C2865 H2844 0.950 . S
C2865 C2864 1.373 . S
C2865 C2881 1.377 . S
C2866 C2864 1.389 . S
C2866 C2867 1.524 . S
C2866 C2880 1.377 . S
C2867 C2866 1.524 . S
C2867 C2868 1.397 . S
C2867 C2872 1.363 . S
C2868 H2845 0.950 . S
C2868 C2867 1.397 . S
C2868 C2869 1.334 . S
C2869 H2846 0.950 . S
C2869 C2868 1.334 . S
C2869 C2870 1.287 . S
C2870 C2869 1.287 . S
C2870 C2871 1.524 . S
C2870 H2889 0.913 . S
C2871 H2847 0.950 . S
C2871 C2870 1.524 . S
C2871 C2872 1.415 . S
C2872 H2848 0.950 . S
C2872 C2867 1.363 . S
C2872 C2871 1.415 . S
C2873 H2849 0.951 . S
C2873 C2874 1.366 . S
C2873 C2875 1.388 . S
C2874 C2873 1.366 . S
C2874 C2878 1.385 . S
C2875 H2850 0.951 . S
C2875 C2873 1.388 . S
C2875 C2876 1.366 . S
C2876 C2875 1.366 . S
C2876 C2877 1.414 . S
C2876 C2879 1.499 1_556 S
C2877 H2851 0.950 . S
C2877 C2876 1.414 . S
C2877 C2878 1.374 . S
C2878 H2852 0.950 . S
C2878 C2874 1.385 . S
C2878 C2877 1.374 . S
C2879 C2876 1.499 1_554 S
C2879 C2880 1.373 . S
C2879 C2881 1.389 . S
C2880 H2853 0.950 . S
C2880 C2866 1.377 . S
C2880 C2879 1.373 . S
C2881 C2865 1.377 . S
C2881 C2879 1.389 . S
C2881 C2882 1.524 . S
C2882 C2881 1.524 . S
C2882 C2883 1.397 . S
C2882 C2887 1.363 . S
C2883 H2854 0.950 . S
C2883 C2882 1.397 . S
C2883 C2884 1.334 1_554 S
C2884 H2855 0.950 . S
C2884 C2883 1.334 1_556 S
C2884 C2885 1.287 1_556 S
C2885 C2884 1.287 1_554 S
C2885 C2886 1.524 . S
C2885 H2888 0.999 1_554 S
C2886 H2856 0.950 . S
C2886 C2885 1.524 . S
C2886 C2887 1.415 . S
C2887 H2857 0.950 . S
C2887 C2882 1.363 . S
C2887 C2886 1.415 . S
H2888 C2885 0.999 1_556 S
H2889 C2870 0.913 . S
H2890 C2908 0.951 . S
H2891 C2910 0.951 . S
H2892 C2912 0.950 . S
H2893 C2913 0.950 . S
H2894 C2915 0.950 . S
H2895 C2918 0.950 . S
H2896 C2919 0.950 . S
H2897 C2921 0.950 . S
H2898 C2922 0.950 . S
H2899 C2923 0.951 . S
H2900 C2925 0.951 . S
H2901 C2927 0.950 . S
H2902 C2928 0.950 . S
H2903 C2930 0.950 . S
H2904 C2933 0.950 . S
H2905 C2934 0.950 . S
H2906 C2936 0.950 . S
H2907 C2937 0.950 . S
C2908 H2890 0.951 . S
C2908 C2909 1.366 . S
C2908 C2910 1.388 . S
C2909 C2908 1.366 . S
C2909 C2913 1.385 . S
C2910 H2891 0.951 . S
C2910 C2908 1.388 . S
C2910 C2911 1.366 . S
C2911 C2910 1.366 . S
C2911 C2912 1.414 . S
C2911 C2914 1.499 1_554 S
C2912 H2892 0.950 . S
C2912 C2911 1.414 . S
C2912 C2913 1.374 . S
C2913 H2893 0.950 . S
C2913 C2909 1.385 . S
C2913 C2912 1.374 . S
C2914 C2911 1.499 1_556 S
C2914 C2915 1.373 . S
C2914 C2916 1.389 . S
C2915 H2894 0.950 . S
C2915 C2914 1.373 . S
C2915 C2931 1.377 . S
C2916 C2914 1.389 . S
C2916 C2917 1.524 . S
C2916 C2930 1.377 . S
C2917 C2916 1.524 . S
C2917 C2918 1.397 . S
C2917 C2922 1.363 . S
C2918 H2895 0.950 . S
C2918 C2917 1.397 . S
C2918 C2919 1.334 1_556 S
C2919 H2896 0.950 . S
C2919 C2918 1.334 1_554 S
C2919 C2920 1.287 1_554 S
C2920 C2919 1.287 1_556 S
C2920 C2921 1.524 . S
C2920 H2939 0.913 1_556 S
C2921 H2897 0.950 . S
C2921 C2920 1.524 . S
C2921 C2922 1.415 . S
C2922 H2898 0.950 . S
C2922 C2917 1.363 . S
C2922 C2921 1.415 . S
C2923 H2899 0.951 . S
C2923 C2924 1.366 . S
C2923 C2925 1.388 . S
C2924 C2923 1.366 . S
C2924 C2928 1.385 . S
C2925 H2900 0.951 . S
C2925 C2923 1.388 . S
C2925 C2926 1.366 . S
C2926 C2925 1.366 . S
C2926 C2927 1.414 . S
C2926 C2929 1.499 . S
C2927 H2901 0.950 . S
C2927 C2926 1.414 . S
C2927 C2928 1.374 . S
C2928 H2902 0.950 . S
C2928 C2924 1.385 . S
C2928 C2927 1.374 . S
C2929 C2926 1.499 . S
C2929 C2930 1.373 . S
C2929 C2931 1.389 . S
C2930 H2903 0.950 . S
C2930 C2916 1.377 . S
C2930 C2929 1.373 . S
C2931 C2915 1.377 . S
C2931 C2929 1.389 . S
C2931 C2932 1.524 . S
C2932 C2931 1.524 . S
C2932 C2933 1.397 . S
C2932 C2937 1.363 . S
C2933 H2904 0.950 . S
C2933 C2932 1.397 . S
C2933 C2934 1.334 . S
C2934 H2905 0.950 . S
C2934 C2933 1.334 . S
C2934 C2935 1.287 . S
C2935 C2934 1.287 . S
C2935 C2936 1.524 . S
C2935 H2938 0.999 . S
C2936 H2906 0.950 . S
C2936 C2935 1.524 . S
C2936 C2937 1.415 . S
C2937 H2907 0.950 . S
C2937 C2932 1.363 . S
C2937 C2936 1.415 . S
H2938 C2935 0.999 . S
H2939 C2920 0.913 1_554 S
H2940 C2958 0.951 . S
H2941 C2960 0.951 . S
H2942 C2962 0.950 . S
H2943 C2963 0.950 . S
H2944 C2965 0.950 . S
H2945 C2968 0.950 1_556 S
H2946 C2969 0.950 . S
H2947 C2971 0.950 . S
H2948 C2972 0.950 . S
H2949 C2973 0.951 . S
H2950 C2975 0.951 . S
H2951 C2977 0.950 . S
H2952 C2978 0.950 . S
H2953 C2980 0.950 . S
H2954 C2983 0.950 . S
H2955 C2984 0.950 . S
H2956 C2986 0.950 . S
H2957 C2987 0.950 . S
C2958 H2940 0.951 . S
C2958 C2959 1.366 . S
C2958 C2960 1.388 . S
C2959 C2958 1.366 . S
C2959 C2963 1.385 . S
C2960 H2941 0.951 . S
C2960 C2958 1.388 . S
C2960 C2961 1.366 . S
C2961 C2960 1.366 . S
C2961 C2962 1.414 . S
C2961 C2964 1.499 1_556 S
C2962 H2942 0.950 . S
C2962 C2961 1.414 . S
C2962 C2963 1.374 . S
C2963 H2943 0.950 . S
C2963 C2959 1.385 . S
C2963 C2962 1.374 . S
C2964 C2961 1.499 1_554 S
C2964 C2965 1.373 . S
C2964 C2966 1.389 . S
C2965 H2944 0.950 . S
C2965 C2964 1.373 . S
C2965 C2981 1.377 . S
C2966 C2964 1.389 . S
C2966 C2967 1.524 . S
C2966 C2980 1.377 . S
C2967 C2966 1.524 . S
C2967 C2968 1.397 . S
C2967 C2972 1.363 . S
C2968 H2945 0.950 1_554 S
C2968 C2967 1.397 . S
C2968 C2969 1.334 1_554 S
C2969 H2946 0.950 . S
C2969 C2968 1.334 1_556 S
C2969 C2970 1.287 . S
C2970 C2969 1.287 . S
C2970 C2971 1.524 1_556 S
C2970 H2989 0.913 . S
C2971 H2947 0.950 . S
C2971 C2970 1.524 1_554 S
C2971 C2972 1.415 . S
C2972 H2948 0.950 . S
C2972 C2967 1.363 . S
C2972 C2971 1.415 . S
C2973 H2949 0.951 . S
C2973 C2974 1.366 . S
C2973 C2975 1.388 . S
C2974 C2973 1.366 . S
C2974 C2978 1.385 . S
C2975 H2950 0.951 . S
C2975 C2973 1.388 . S
C2975 C2976 1.366 . S
C2976 C2975 1.366 . S
C2976 C2977 1.414 . S
C2976 C2979 1.499 . S
C2977 H2951 0.950 . S
C2977 C2976 1.414 . S
C2977 C2978 1.374 . S
C2978 H2952 0.950 . S
C2978 C2974 1.385 . S
C2978 C2977 1.374 . S
C2979 C2976 1.499 . S
C2979 C2980 1.373 . S
C2979 C2981 1.389 . S
C2980 H2953 0.950 . S
C2980 C2966 1.377 . S
C2980 C2979 1.373 . S
C2981 C2965 1.377 . S
C2981 C2979 1.389 . S
C2981 C2982 1.524 . S
C2982 C2981 1.524 . S
C2982 C2983 1.397 . S
C2982 C2987 1.363 . S
C2983 H2954 0.950 . S
C2983 C2982 1.397 . S
C2983 C2984 1.334 . S
C2984 H2955 0.950 . S
C2984 C2983 1.334 . S
C2984 C2985 1.287 . S
C2985 C2984 1.287 . S
C2985 C2986 1.524 . S
C2985 H2988 0.999 . S
C2986 H2956 0.950 . S
C2986 C2985 1.524 . S
C2986 C2987 1.415 . S
C2987 H2957 0.950 . S
C2987 C2982 1.363 . S
C2987 C2986 1.415 . S
H2988 C2985 0.999 . S
H2989 C2970 0.913 . S
H2990 C3008 0.951 . S
H2991 C3010 0.951 . S
H2992 C3012 0.950 . S
H2993 C3013 0.950 . S
H2994 C3015 0.950 . S
H2995 C3018 0.950 . S
H2996 C3019 0.950 . S
H2997 C3021 0.950 . S
H2998 C3022 0.950 . S
H2999 C3023 0.951 . S
H3000 C3025 0.951 . S
H3001 C3027 0.950 . S
H3002 C3028 0.950 . S
H3003 C3030 0.950 . S
H3004 C3033 0.950 . S
H3005 C3034 0.950 . S
H3006 C3036 0.950 . S
H3007 C3037 0.950 . S
C3008 H2990 0.951 . S
C3008 C3009 1.366 . S
C3008 C3010 1.388 . S
C3009 C3008 1.366 . S
C3009 C3013 1.385 . S
C3010 H2991 0.951 . S
C3010 C3008 1.388 . S
C3010 C3011 1.366 . S
C3011 C3010 1.366 . S
C3011 C3012 1.414 . S
C3011 C3014 1.499 . S
C3012 H2992 0.950 . S
C3012 C3011 1.414 . S
C3012 C3013 1.374 . S
C3013 H2993 0.950 . S
C3013 C3009 1.385 . S
C3013 C3012 1.374 . S
C3014 C3011 1.499 . S
C3014 C3015 1.373 . S
C3014 C3016 1.389 . S
C3015 H2994 0.950 . S
C3015 C3014 1.373 . S
C3015 C3031 1.377 . S
C3016 C3014 1.389 . S
C3016 C3017 1.524 . S
C3016 C3030 1.377 . S
C3017 C3016 1.524 . S
C3017 C3018 1.397 . S
C3017 C3022 1.363 . S
C3018 H2995 0.950 . S
C3018 C3017 1.397 . S
C3018 C3019 1.334 . S
C3019 H2996 0.950 . S
C3019 C3018 1.334 . S
C3019 C3020 1.287 . S
C3020 C3019 1.287 . S
C3020 C3021 1.524 . S
C3020 H3039 0.913 . S
C3021 H2997 0.950 . S
C3021 C3020 1.524 . S
C3021 C3022 1.415 . S
C3022 H2998 0.950 . S
C3022 C3017 1.363 . S
C3022 C3021 1.415 . S
C3023 H2999 0.951 . S
C3023 C3024 1.366 . S
C3023 C3025 1.388 . S
C3024 C3023 1.366 . S
C3024 C3028 1.385 . S
C3025 H3000 0.951 . S
C3025 C3023 1.388 . S
C3025 C3026 1.366 . S
C3026 C3025 1.366 . S
C3026 C3027 1.414 . S
C3026 C3029 1.499 1_554 S
C3027 H3001 0.950 . S
C3027 C3026 1.414 . S
C3027 C3028 1.374 . S
C3028 H3002 0.950 . S
C3028 C3024 1.385 . S
C3028 C3027 1.374 . S
C3029 C3026 1.499 1_556 S
C3029 C3030 1.373 . S
C3029 C3031 1.389 . S
C3030 H3003 0.950 . S
C3030 C3016 1.377 . S
C3030 C3029 1.373 . S
C3031 C3015 1.377 . S
C3031 C3029 1.389 . S
C3031 C3032 1.524 . S
C3032 C3031 1.524 . S
C3032 C3033 1.397 . S
C3032 C3037 1.363 . S
C3033 H3004 0.950 . S
C3033 C3032 1.397 . S
C3033 C3034 1.334 1_556 S
C3034 H3005 0.950 . S
C3034 C3033 1.334 1_554 S
C3034 C3035 1.287 1_554 S
C3035 C3034 1.287 1_556 S
C3035 C3036 1.524 . S
C3035 H3038 0.999 1_556 S
C3036 H3006 0.950 . S
C3036 C3035 1.524 . S
C3036 C3037 1.415 . S
C3037 H3007 0.950 . S
C3037 C3032 1.363 . S
C3037 C3036 1.415 . S
H3038 C3035 0.999 1_554 S
H3039 C3020 0.913 . S
C659 C455 1.808 . S
C674 C18 1.775 . S
C709 C326 1.808 . S
C724 C49 1.775 . S
C759 C98 1.775 . S
C774 C375 1.808 . S
C809 C129 1.776 . S
C824 C406 1.808 . S
C859 C178 1.776 . S
C874 C215 1.808 . S
C909 C246 1.807 . S
C924 C209 1.776 . S
C959 C258 1.776 . S
C974 C295 1.808 . S
C1009 C166 1.808 . S
C1024 C289 1.776 . S
C1059 C135 1.808 . S
C1074 C338 1.775 . S
C1109 C369 1.775 . S
C1124 C6 1.808 . S
C1159 C55 1.808 . S
C1174 C418 1.776 . S
C1209 C86 1.808 . S
C1224 C449 1.776 . S
C1259 C498 1.776 . S
C1274 C535 1.808 . S
C1309 C566 1.808 . S
C1324 C529 1.776 . S
C1359 C615 1.808 . S
C1374 C578 1.776 . S
C1409 C609 1.776 . S
C1424 C486 1.809 . S
C1459 C9 2.055 . S
C1474 C169 2.056 . S
C1509 C218 2.056 . S
C1524 C58 2.056 . S
C1559 C89 2.055 . S
C1574 C249 2.056 . S
C1609 C138 2.055 . S
C1624 C298 2.056 . S
C1659 C329 2.056 . S
C1674 C489 2.056 . S
C1709 C538 2.056 . S
C1724 C378 2.055 . S
C1759 C409 2.056 . S
C1774 C569 2.056 . S
C1809 C458 2.056 . S
C1824 C618 2.055 . S
C1859 C575 1.314 . S
C1874 C15 1.314 . S
C1909 C46 1.315 . S
C1924 C606 1.314 . S
C1959 C95 1.314 . S
C1974 C495 1.314 . S
C2009 C126 1.314 . S
C2024 C526 1.314 . S
C2059 C175 1.314 . S
C2074 C415 1.314 . S
C2109 C206 1.314 . S
C2124 C446 1.314 . S
C2159 C255 1.314 . S
C2174 C335 1.314 . S
C2209 C366 1.314 . S
C2224 C286 1.314 . S
C2259 C10 2.483 . S
C2274 C19 2.483 1_556 S
C2309 C59 2.482 . S
C2324 C50 2.482 1_554 S
C2359 C90 2.482 . S
C2374 C99 2.482 1_556 S
C2409 C130 2.482 1_554 S
C2424 C139 2.482 . S
C2459 C179 2.483 . S
C2474 C170 2.483 . S
C2509 C219 2.483 . S
C2524 C210 2.483 . S
C2559 C250 2.482 . S
C2574 C259 2.482 . S
C2609 C290 2.482 . S
C2624 C299 2.482 . S
C2659 C330 2.482 . S
C2674 C339 2.482 . S
C2709 C370 2.482 . S
C2724 C379 2.482 . S
C2759 C419 2.483 . S
C2774 C410 2.483 . S
C2809 C459 2.482 . S
C2824 C450 2.482 . S
C2859 C490 2.482 . S
C2874 C499 2.482 . S
C2909 C530 2.482 . S
C2924 C539 2.482 . S
C2959 C579 2.483 . S
C2974 C570 2.483 . S
C3009 C619 2.482 . S
C3024 C610 2.482 . S
