# Generated by pormake.
# Topology ato, (4)-cn, num edge types: 1
# Building blocks:
#     Node 0, Type 0, BuildingBlock: TATPOV_clean_sbu_0, # of connection points: 4
#     Node 1, Type 0, BuildingBlock: TATPOV_clean_sbu_0, # of connection points: 4
#     Node 2, Type 0, BuildingBlock: TATPOV_clean_sbu_0, # of connection points: 4
#     Node 3, Type 0, BuildingBlock: TATPOV_clean_sbu_0, # of connection points: 4
#     Node 4, Type 0, BuildingBlock: TATPOV_clean_sbu_0, # of connection points: 4
#     Node 5, Type 0, BuildingBlock: TATPOV_clean_sbu_0, # of connection points: 4
#     Node 6, Type 0, BuildingBlock: TATPOV_clean_sbu_0, # of connection points: 4
#     Node 7, Type 0, BuildingBlock: TATPOV_clean_sbu_0, # of connection points: 4
#     Node 8, Type 0, BuildingBlock: TATPOV_clean_sbu_0, # of connection points: 4
#     Node 9, Type 0, BuildingBlock: TATPOV_clean_sbu_0, # of connection points: 4
#     Node 10, Type 0, BuildingBlock: TATPOV_clean_sbu_0, # of connection points: 4
#     Node 11, Type 0, BuildingBlock: TATPOV_clean_sbu_0, # of connection points: 4
#     Node 12, Type 0, BuildingBlock: TATPOV_clean_sbu_0, # of connection points: 4
#     Node 13, Type 0, BuildingBlock: TATPOV_clean_sbu_0, # of connection points: 4
#     Node 14, Type 0, BuildingBlock: TATPOV_clean_sbu_0, # of connection points: 4
#     Node 15, Type 0, BuildingBlock: TATPOV_clean_sbu_0, # of connection points: 4
#     Node 16, Type 0, BuildingBlock: TATPOV_clean_sbu_0, # of connection points: 4
#     Node 17, Type 0, BuildingBlock: TATPOV_clean_sbu_0, # of connection points: 4
#     Node 18, Type 0, BuildingBlock: TATPOV_clean_sbu_0, # of connection points: 4
#     Node 19, Type 0, BuildingBlock: TATPOV_clean_sbu_0, # of connection points: 4
#     Node 20, Type 0, BuildingBlock: TATPOV_clean_sbu_0, # of connection points: 4
#     Node 21, Type 0, BuildingBlock: TATPOV_clean_sbu_0, # of connection points: 4
#     Node 22, Type 0, BuildingBlock: TATPOV_clean_sbu_0, # of connection points: 4
#     Node 23, Type 0, BuildingBlock: TATPOV_clean_sbu_0, # of connection points: 4
#     Node 24, Type 0, BuildingBlock: TATPOV_clean_sbu_0, # of connection points: 4
#     Node 25, Type 0, BuildingBlock: TATPOV_clean_sbu_0, # of connection points: 4
#     Node 26, Type 0, BuildingBlock: TATPOV_clean_sbu_0, # of connection points: 4
#     Node 27, Type 0, BuildingBlock: TATPOV_clean_sbu_0, # of connection points: 4
#     Node 28, Type 0, BuildingBlock: TATPOV_clean_sbu_0, # of connection points: 4
#     Node 29, Type 0, BuildingBlock: TATPOV_clean_sbu_0, # of connection points: 4
#     Node 30, Type 0, BuildingBlock: TATPOV_clean_sbu_0, # of connection points: 4
#     Node 31, Type 0, BuildingBlock: TATPOV_clean_sbu_0, # of connection points: 4
#     Node 32, Type 0, BuildingBlock: TATPOV_clean_sbu_0, # of connection points: 4
#     Node 33, Type 0, BuildingBlock: TATPOV_clean_sbu_0, # of connection points: 4
#     Node 34, Type 0, BuildingBlock: TATPOV_clean_sbu_0, # of connection points: 4
#     Node 35, Type 0, BuildingBlock: TATPOV_clean_sbu_0, # of connection points: 4
#     Edge 36, Type (0, 0), BuildingBlock: AJUNOK_clean_linker_0, # of connection points: 2
#     Edge 37, Type (0, 0), BuildingBlock: AJUNOK_clean_linker_0, # of connection points: 2
#     Edge 38, Type (0, 0), BuildingBlock: AJUNOK_clean_linker_0, # of connection points: 2
#     Edge 39, Type (0, 0), BuildingBlock: AJUNOK_clean_linker_0, # of connection points: 2
#     Edge 40, Type (0, 0), BuildingBlock: AJUNOK_clean_linker_0, # of connection points: 2
#     Edge 41, Type (0, 0), BuildingBlock: AJUNOK_clean_linker_0, # of connection points: 2
#     Edge 42, Type (0, 0), BuildingBlock: AJUNOK_clean_linker_0, # of connection points: 2
#     Edge 43, Type (0, 0), BuildingBlock: AJUNOK_clean_linker_0, # of connection points: 2
#     Edge 44, Type (0, 0), BuildingBlock: AJUNOK_clean_linker_0, # of connection points: 2
#     Edge 45, Type (0, 0), BuildingBlock: AJUNOK_clean_linker_0, # of connection points: 2
#     Edge 46, Type (0, 0), BuildingBlock: AJUNOK_clean_linker_0, # of connection points: 2
#     Edge 47, Type (0, 0), BuildingBlock: AJUNOK_clean_linker_0, # of connection points: 2
#     Edge 48, Type (0, 0), BuildingBlock: AJUNOK_clean_linker_0, # of connection points: 2
#     Edge 49, Type (0, 0), BuildingBlock: AJUNOK_clean_linker_0, # of connection points: 2
#     Edge 50, Type (0, 0), BuildingBlock: AJUNOK_clean_linker_0, # of connection points: 2
#     Edge 51, Type (0, 0), BuildingBlock: AJUNOK_clean_linker_0, # of connection points: 2
#     Edge 52, Type (0, 0), BuildingBlock: AJUNOK_clean_linker_0, # of connection points: 2
#     Edge 53, Type (0, 0), BuildingBlock: AJUNOK_clean_linker_0, # of connection points: 2
#     Edge 54, Type (0, 0), BuildingBlock: AJUNOK_clean_linker_0, # of connection points: 2
#     Edge 55, Type (0, 0), BuildingBlock: AJUNOK_clean_linker_0, # of connection points: 2
#     Edge 56, Type (0, 0), BuildingBlock: AJUNOK_clean_linker_0, # of connection points: 2
#     Edge 57, Type (0, 0), BuildingBlock: AJUNOK_clean_linker_0, # of connection points: 2
#     Edge 58, Type (0, 0), BuildingBlock: AJUNOK_clean_linker_0, # of connection points: 2
#     Edge 59, Type (0, 0), BuildingBlock: AJUNOK_clean_linker_0, # of connection points: 2
#     Edge 60, Type (0, 0), BuildingBlock: AJUNOK_clean_linker_0, # of connection points: 2
#     Edge 61, Type (0, 0), BuildingBlock: AJUNOK_clean_linker_0, # of connection points: 2
#     Edge 62, Type (0, 0), BuildingBlock: AJUNOK_clean_linker_0, # of connection points: 2
#     Edge 63, Type (0, 0), BuildingBlock: AJUNOK_clean_linker_0, # of connection points: 2
#     Edge 64, Type (0, 0), BuildingBlock: AJUNOK_clean_linker_0, # of connection points: 2
#     Edge 65, Type (0, 0), BuildingBlock: AJUNOK_clean_linker_0, # of connection points: 2
#     Edge 66, Type (0, 0), BuildingBlock: AJUNOK_clean_linker_0, # of connection points: 2
#     Edge 67, Type (0, 0), BuildingBlock: AJUNOK_clean_linker_0, # of connection points: 2
#     Edge 68, Type (0, 0), BuildingBlock: AJUNOK_clean_linker_0, # of connection points: 2
#     Edge 69, Type (0, 0), BuildingBlock: AJUNOK_clean_linker_0, # of connection points: 2
#     Edge 70, Type (0, 0), BuildingBlock: AJUNOK_clean_linker_0, # of connection points: 2
#     Edge 71, Type (0, 0), BuildingBlock: AJUNOK_clean_linker_0, # of connection points: 2
#     Edge 72, Type (0, 0), BuildingBlock: AJUNOK_clean_linker_0, # of connection points: 2
#     Edge 73, Type (0, 0), BuildingBlock: AJUNOK_clean_linker_0, # of connection points: 2
#     Edge 74, Type (0, 0), BuildingBlock: AJUNOK_clean_linker_0, # of connection points: 2
#     Edge 75, Type (0, 0), BuildingBlock: AJUNOK_clean_linker_0, # of connection points: 2
#     Edge 76, Type (0, 0), BuildingBlock: AJUNOK_clean_linker_0, # of connection points: 2
#     Edge 77, Type (0, 0), BuildingBlock: AJUNOK_clean_linker_0, # of connection points: 2
#     Edge 78, Type (0, 0), BuildingBlock: AJUNOK_clean_linker_0, # of connection points: 2
#     Edge 79, Type (0, 0), BuildingBlock: AJUNOK_clean_linker_0, # of connection points: 2
#     Edge 80, Type (0, 0), BuildingBlock: AJUNOK_clean_linker_0, # of connection points: 2
#     Edge 81, Type (0, 0), BuildingBlock: AJUNOK_clean_linker_0, # of connection points: 2
#     Edge 82, Type (0, 0), BuildingBlock: AJUNOK_clean_linker_0, # of connection points: 2
#     Edge 83, Type (0, 0), BuildingBlock: AJUNOK_clean_linker_0, # of connection points: 2
#     Edge 84, Type (0, 0), BuildingBlock: AJUNOK_clean_linker_0, # of connection points: 2
#     Edge 85, Type (0, 0), BuildingBlock: AJUNOK_clean_linker_0, # of connection points: 2
#     Edge 86, Type (0, 0), BuildingBlock: AJUNOK_clean_linker_0, # of connection points: 2
#     Edge 87, Type (0, 0), BuildingBlock: AJUNOK_clean_linker_0, # of connection points: 2
#     Edge 88, Type (0, 0), BuildingBlock: AJUNOK_clean_linker_0, # of connection points: 2
#     Edge 89, Type (0, 0), BuildingBlock: AJUNOK_clean_linker_0, # of connection points: 2
#     Edge 90, Type (0, 0), BuildingBlock: AJUNOK_clean_linker_0, # of connection points: 2
#     Edge 91, Type (0, 0), BuildingBlock: AJUNOK_clean_linker_0, # of connection points: 2
#     Edge 92, Type (0, 0), BuildingBlock: AJUNOK_clean_linker_0, # of connection points: 2
#     Edge 93, Type (0, 0), BuildingBlock: AJUNOK_clean_linker_0, # of connection points: 2
#     Edge 94, Type (0, 0), BuildingBlock: AJUNOK_clean_linker_0, # of connection points: 2
#     Edge 95, Type (0, 0), BuildingBlock: AJUNOK_clean_linker_0, # of connection points: 2
#     Edge 96, Type (0, 0), BuildingBlock: AJUNOK_clean_linker_0, # of connection points: 2
#     Edge 97, Type (0, 0), BuildingBlock: AJUNOK_clean_linker_0, # of connection points: 2
#     Edge 98, Type (0, 0), BuildingBlock: AJUNOK_clean_linker_0, # of connection points: 2
#     Edge 99, Type (0, 0), BuildingBlock: AJUNOK_clean_linker_0, # of connection points: 2
#     Edge 100, Type (0, 0), BuildingBlock: AJUNOK_clean_linker_0, # of connection points: 2
#     Edge 101, Type (0, 0), BuildingBlock: AJUNOK_clean_linker_0, # of connection points: 2
#     Edge 102, Type (0, 0), BuildingBlock: AJUNOK_clean_linker_0, # of connection points: 2
#     Edge 103, Type (0, 0), BuildingBlock: AJUNOK_clean_linker_0, # of connection points: 2
#     Edge 104, Type (0, 0), BuildingBlock: AJUNOK_clean_linker_0, # of connection points: 2
#     Edge 105, Type (0, 0), BuildingBlock: AJUNOK_clean_linker_0, # of connection points: 2
#     Edge 106, Type (0, 0), BuildingBlock: AJUNOK_clean_linker_0, # of connection points: 2
#     Edge 107, Type (0, 0), BuildingBlock: AJUNOK_clean_linker_0, # of connection points: 2
# Relax obj value: 0.033
# Max RMSD: 0.049
# Mean RMSD: 0.049
data_MOF--net-ato--node1-TATPOV_clean_sbu_0--edge1-AJUNOK_clean_linker_0
_symmetry_space_group_name_H-M    P1
_symmetry_Int_Tables_number       1
_symmetry_cell_setting            triclinic
loop_
_symmetry_equiv_pos_as_xyz
'x, y, z'
_cell_length_a     74.769289
_cell_length_b     74.623281
_cell_length_c     18.512304
_cell_angle_alpha  89.992733
_cell_angle_beta   90.123205
_cell_angle_gamma 120.04279
loop_
_atom_site_label
_atom_site_type_symbol
_atom_site_fract_x
_atom_site_fract_y
_atom_site_fract_z
_atom_type_partial_charge
Zn0 Zn 0.23728 0.06694 0.1349 0.0
Zn1 Zn 0.23184 0.04254 0.24816 0.0
O2 O 0.22413 0.06312 0.29274 0.0
O3 O 0.2291 0.08316 0.19841 0.0
O4 O 0.22619 0.02208 0.32875 0.0
O5 O 0.21605 0.04423 0.07514 0.0
O6 O 0.21295 0.02384 0.16585 0.0
C7 C 0.22395 0.07848 0.26372 0.0
C8 C 0.27427 0.06695 0.17538 0.0
O9 O 0.26296 0.05539 0.22653 0.0
O10 O 0.26676 0.07356 0.12803 0.0
C11 C 0.23205 0.02791 0.39333 0.0
O12 O 0.24258 0.04783 0.40743 0.0
C13 C 0.20801 0.02631 0.10209 0.0
Zn14 Zn 0.91724 0.16417 0.13242 0.0
Zn15 Zn 0.94177 0.18377 0.24488 0.0
O16 O 0.91957 0.15642 0.29144 0.0
O17 O 0.90081 0.13987 0.19617 0.0
O18 O 0.96238 0.19827 0.32598 0.0
O19 O 0.93939 0.16502 0.07245 0.0
O20 O 0.95991 0.18216 0.16326 0.0
C21 C 0.90462 0.14036 0.26293 0.0
C22 C 0.91859 0.20242 0.16855 0.0
O23 O 0.93046 0.20308 0.21936 0.0
O24 O 0.91108 0.18749 0.12419 0.0
C25 C 0.95678 0.19918 0.39011 0.0
O26 O 0.93697 0.19093 0.40376 0.0
C27 C 0.95728 0.17459 0.09964 0.0
Zn28 Zn 0.8071 0.73908 0.13659 0.0
Zn29 Zn 0.79344 0.7509 0.24518 0.0
O30 O 0.82025 0.75398 0.28863 0.0
O31 O 0.82812 0.73873 0.20254 0.0
O32 O 0.78229 0.76105 0.32515 0.0
O33 O 0.81399 0.7637 0.07613 0.0
O34 O 0.79818 0.77104 0.1613 0.0
C35 C 0.83142 0.74692 0.26452 0.0
C36 C 0.76672 0.7084 0.17307 0.0
O37 O 0.77036 0.72047 0.22688 0.0
O38 O 0.7798 0.71359 0.1228 0.0
C39 C 0.78141 0.75498 0.38994 0.0
O40 O 0.78733 0.74147 0.40387 0.0
C41 C 0.80698 0.77485 0.09969 0.0
Zn42 Zn 0.06442 0.24494 0.86693 0.0
Zn43 Zn 0.03772 0.23697 0.75958 0.0
O44 O 0.05978 0.23244 0.70916 0.0
O45 O 0.08191 0.23977 0.79873 0.0
O46 O 0.01557 0.22885 0.6826 0.0
O47 O 0.04452 0.22241 0.92973 0.0
O48 O 0.02188 0.21721 0.84448 0.0
C49 C 0.07655 0.23439 0.73391 0.0
C50 C 0.05929 0.27954 0.83313 0.0
O51 O 0.04784 0.26773 0.78249 0.0
O52 O 0.06771 0.27314 0.87757 0.0
C53 C 0.01995 0.23344 0.61631 0.0
O54 O 0.03947 0.24434 0.59744 0.0
C55 C 0.02616 0.2129 0.90672 0.0
Zn56 Zn 0.75229 0.82815 0.87394 0.0
Zn57 Zn 0.75664 0.80819 0.76205 0.0
O58 O 0.76275 0.83578 0.71437 0.0
O59 O 0.7593 0.85193 0.80842 0.0
O60 O 0.76195 0.7928 0.68264 0.0
O61 O 0.77427 0.82786 0.93229 0.0
O62 O 0.77634 0.80949 0.84339 0.0
C63 C 0.76327 0.85163 0.74222 0.0
C64 C 0.71533 0.78979 0.84139 0.0
O65 O 0.726 0.78933 0.78846 0.0
O66 O 0.72311 0.80466 0.88593 0.0
C67 C 0.75723 0.79307 0.61677 0.0
O68 O 0.74818 0.80365 0.59864 0.0
C69 C 0.78191 0.81756 0.90614 0.0
Zn70 Zn 0.17765 0.9212 0.86974 0.0
Zn71 Zn 0.19255 0.94711 0.76231 0.0
O72 O 0.16573 0.92376 0.71649 0.0
O73 O 0.15647 0.90042 0.80277 0.0
O74 O 0.20464 0.96908 0.68466 0.0
O75 O 0.17142 0.93926 0.93104 0.0
O76 O 0.18823 0.96249 0.84709 0.0
C77 C 0.15387 0.90556 0.74023 0.0
C78 C 0.21804 0.93018 0.83468 0.0
O79 O 0.21513 0.93929 0.7814 0.0
O80 O 0.20454 0.92215 0.88366 0.0
C81 C 0.20516 0.9648 0.61849 0.0
O82 O 0.1978 0.94537 0.59968 0.0
C83 C 0.17936 0.95765 0.90862 0.0
Zn84 Zn 0.73625 0.92381 0.86166 0.0
Zn85 Zn 0.73859 0.94712 0.74909 0.0
O86 O 0.75019 0.9295 0.7052 0.0
O87 O 0.74778 0.9103 0.79939 0.0
O88 O 0.74278 0.96748 0.6696 0.0
O89 O 0.75481 0.94746 0.92385 0.0
O90 O 0.75524 0.96679 0.83341 0.0
C91 C 0.75271 0.91546 0.73424 0.0
C92 C 0.6969 0.91844 0.81959 0.0
O93 O 0.70709 0.93067 0.76809 0.0
O94 O 0.70591 0.91342 0.86656 0.0
C95 C 0.73882 0.96237 0.60346 0.0
O96 O 0.73083 0.94278 0.58572 0.0
C97 C 0.76051 0.96513 0.89763 0.0
Zn98 Zn 0.06344 0.81353 0.87215 0.0
Zn99 Zn 0.03845 0.7983 0.76006 0.0
O100 O 0.06266 0.82453 0.71483 0.0
O101 O 0.08446 0.83485 0.80661 0.0
O102 O 0.01723 0.78598 0.67997 0.0
O103 O 0.04457 0.81952 0.92913 0.0
O104 O 0.02245 0.80308 0.84145 0.0
C105 C 0.08029 0.83686 0.74192 0.0
C106 C 0.05428 0.77264 0.8382 0.0
O107 O 0.04555 0.77549 0.7836 0.0
O108 O 0.06237 0.78642 0.88657 0.0
C109 C 0.02202 0.78522 0.61462 0.0
O110 O 0.04156 0.79267 0.59804 0.0
C111 C 0.02656 0.81185 0.90327 0.0
Zn112 Zn 0.174 0.25535 0.85401 0.0
Zn113 Zn 0.19213 0.24716 0.7469 0.0
O114 O 0.16413 0.23953 0.69982 0.0
O115 O 0.15097 0.24972 0.7863 0.0
O116 O 0.2064 0.23929 0.67102 0.0
O117 O 0.17231 0.23323 0.91807 0.0
O118 O 0.19055 0.22901 0.83378 0.0
C119 C 0.14986 0.24246 0.72367 0.0
C120 C 0.21247 0.29031 0.81547 0.0
O121 O 0.2116 0.27857 0.76381 0.0
O122 O 0.19853 0.28366 0.86316 0.0
C123 C 0.20642 0.24349 0.60446 0.0
O124 O 0.19723 0.25378 0.58426 0.0
C125 C 0.18217 0.22464 0.89618 0.0
Zn126 Zn 0.92034 0.74337 0.12606 0.0
Zn127 Zn 0.94549 0.75233 0.23775 0.0
O128 O 0.92194 0.75536 0.28298 0.0
O129 O 0.90022 0.74542 0.19104 0.0
O130 O 0.96619 0.76041 0.31937 0.0
O131 O 0.94026 0.76762 0.06864 0.0
O132 O 0.96217 0.77311 0.15672 0.0
C133 C 0.90466 0.7513 0.25593 0.0
C134 C 0.92721 0.71017 0.16111 0.0
O135 O 0.93703 0.72201 0.21408 0.0
O136 O 0.91933 0.71622 0.11322 0.0
C137 C 0.96034 0.75419 0.38358 0.0
O138 O 0.94056 0.74182 0.39589 0.0
C139 C 0.95829 0.77775 0.09444 0.0
Zn140 Zn 0.24095 0.17348 0.12813 0.0
Zn141 Zn 0.23654 0.19391 0.23938 0.0
O142 O 0.22745 0.16551 0.28595 0.0
O143 O 0.23104 0.14902 0.19323 0.0
O144 O 0.23122 0.20941 0.31816 0.0
O145 O 0.22105 0.17636 0.06563 0.0
O146 O 0.2185 0.19433 0.1552 0.0
C147 C 0.22613 0.14929 0.25838 0.0
C148 C 0.2789 0.20968 0.16932 0.0
O149 O 0.26784 0.21097 0.2192 0.0
O150 O 0.27091 0.19526 0.1231 0.0
C151 C 0.23665 0.20943 0.38332 0.0
O152 O 0.24677 0.19975 0.39915 0.0
C153 C 0.21366 0.18695 0.09135 0.0
Zn154 Zn 0.80318 0.07442 0.14238 0.0
Zn155 Zn 0.78333 0.0472 0.24702 0.0
O156 O 0.81209 0.06483 0.29347 0.0
O157 O 0.8271 0.08897 0.21018 0.0
O158 O 0.76801 0.02453 0.32058 0.0
O159 O 0.80167 0.05327 0.07338 0.0
O160 O 0.78287 0.03067 0.15682 0.0
C161 C 0.82751 0.08155 0.27119 0.0
C162 C 0.7669 0.07461 0.18764 0.0
O163 O 0.76631 0.06208 0.23584 0.0
O164 O 0.78076 0.08143 0.13966 0.0
C165 C 0.76831 0.02821 0.38776 0.0
O166 O 0.77817 0.04754 0.40994 0.0
C167 C 0.79073 0.03471 0.09362 0.0
Zn168 Zn 0.91408 0.40304 0.46939 0.0
Zn169 Zn 0.90838 0.37747 0.57862 0.0
O170 O 0.89827 0.39619 0.62411 0.0
O171 O 0.90375 0.41742 0.53307 0.0
O172 O 0.90202 0.3556 0.6547 0.0
O173 O 0.89494 0.38088 0.40293 0.0
O174 O 0.89185 0.35964 0.49056 0.0
C175 C 0.8977 0.41157 0.59697 0.0
C176 C 0.95149 0.40459 0.5151 0.0
O177 O 0.94 0.39208 0.56399 0.0
O178 O 0.94396 0.41113 0.46768 0.0
C179 C 0.90629 0.35952 0.72139 0.0
O180 O 0.91579 0.3789 0.743 0.0
C181 C 0.88774 0.36265 0.4262 0.0
Zn182 Zn 0.58235 0.50243 0.48163 0.0
Zn183 Zn 0.60699 0.52196 0.59482 0.0
O184 O 0.5871 0.49359 0.64051 0.0
O185 O 0.56707 0.47806 0.54643 0.0
O186 O 0.62821 0.53737 0.67297 0.0
O187 O 0.60495 0.50452 0.42016 0.0
O188 O 0.62525 0.52202 0.51095 0.0
C189 C 0.57195 0.4778 0.61173 0.0
C190 C 0.5816 0.53908 0.52353 0.0
O191 O 0.59343 0.53967 0.57441 0.0
O192 O 0.57516 0.52496 0.47616 0.0
C193 C 0.62381 0.5368 0.73953 0.0
O194 O 0.60437 0.52605 0.75943 0.0
C195 C 0.62285 0.51475 0.447 0.0
Zn196 Zn 0.46933 0.06356 0.47235 0.0
Zn197 Zn 0.45172 0.07151 0.58101 0.0
O198 O 0.47997 0.07894 0.62585 0.0
O199 O 0.49302 0.06948 0.53673 0.0
O200 O 0.43806 0.07944 0.65944 0.0
O201 O 0.47036 0.08522 0.40809 0.0
O202 O 0.45251 0.08943 0.49393 0.0
C203 C 0.49429 0.07637 0.60004 0.0
C204 C 0.43148 0.02822 0.5137 0.0
O205 O 0.43239 0.03998 0.56536 0.0
O206 O 0.44511 0.03501 0.46492 0.0
C207 C 0.43817 0.07458 0.72526 0.0
O208 O 0.44682 0.06354 0.74207 0.0
C209 C 0.46044 0.09367 0.43076 0.0
Zn210 Zn 0.7294 0.58865 0.21799 0.0
Zn211 Zn 0.70418 0.57796 0.10745 0.0
O212 O 0.72764 0.57417 0.06478 0.0
O213 O 0.7498 0.58639 0.15537 0.0
O214 O 0.68288 0.56823 0.02719 0.0
O215 O 0.7103 0.56527 0.28007 0.0
O216 O 0.68794 0.55859 0.19249 0.0
C217 C 0.74519 0.57922 0.09194 0.0
C218 C 0.72218 0.62103 0.17621 0.0
O219 O 0.71265 0.60867 0.12408 0.0
O220 O 0.72988 0.61554 0.22646 0.0
C221 C 0.68785 0.57387 0.96197 0.0
O222 O 0.70734 0.58678 0.9468 0.0
C223 C 0.69213 0.55488 0.25578 0.0
Zn224 Zn 0.4011 0.14458 0.19997 0.0
Zn225 Zn 0.40499 0.1239 0.08838 0.0
O226 O 0.41412 0.15231 0.04146 0.0
O227 O 0.4109 0.16895 0.13453 0.0
O228 O 0.41064 0.10815 0.01105 0.0
O229 O 0.42102 0.14186 0.26282 0.0
O230 O 0.42292 0.12351 0.17325 0.0
C231 C 0.41561 0.1686 0.06916 0.0
C232 C 0.36291 0.1083 0.15971 0.0
O233 O 0.37361 0.10696 0.10858 0.0
O234 O 0.37118 0.12275 0.20573 0.0
C235 C 0.40781 0.10936 0.94387 0.0
O236 O 0.39992 0.12075 0.92257 0.0
C237 C 0.42804 0.13097 0.23693 0.0
Zn238 Zn 0.84257 0.25208 0.19272 0.0
Zn239 Zn 0.8621 0.27731 0.08235 0.0
O240 O 0.83304 0.25894 0.03881 0.0
O241 O 0.81811 0.23671 0.12781 0.0
O242 O 0.87709 0.29857 0.00392 0.0
O243 O 0.84488 0.27462 0.25618 0.0
O244 O 0.86312 0.29558 0.16798 0.0
C245 C 0.81752 0.24296 0.06482 0.0
C246 C 0.87855 0.25081 0.15019 0.0
O247 O 0.87907 0.26251 0.09891 0.0
O248 O 0.86475 0.24475 0.19824 0.0
C249 C 0.87556 0.29365 0.93748 0.0
O250 O 0.86471 0.27401 0.91962 0.0
C251 C 0.8556 0.29275 0.23156 0.0
Zn252 Zn 0.40375 0.25034 0.19431 0.0
Zn253 Zn 0.40991 0.27546 0.08278 0.0
O254 O 0.41735 0.25473 0.03724 0.0
O255 O 0.41129 0.23382 0.12977 0.0
O256 O 0.41659 0.29662 0.00346 0.0
O257 O 0.42501 0.27223 0.25619 0.0
O258 O 0.42858 0.29333 0.16721 0.0
C259 C 0.41682 0.23888 0.06497 0.0
C260 C 0.36742 0.2517 0.15486 0.0
O261 O 0.3787 0.26301 0.10317 0.0
O262 O 0.3747 0.2447 0.20156 0.0
C263 C 0.41085 0.29143 0.93833 0.0
O264 O 0.39964 0.27166 0.92252 0.0
C265 C 0.43325 0.29033 0.23075 0.0
Zn266 Zn 0.72733 0.16051 0.2088 0.0
Zn267 Zn 0.70294 0.14047 0.09703 0.0
O268 O 0.72504 0.16765 0.04915 0.0
O269 O 0.74408 0.18436 0.14373 0.0
O270 O 0.68213 0.12521 0.01725 0.0
O271 O 0.70531 0.16024 0.26787 0.0
O272 O 0.68478 0.14213 0.17858 0.0
C273 C 0.7402 0.18367 0.07696 0.0
C274 C 0.72591 0.12207 0.17592 0.0
O275 O 0.71446 0.12145 0.12368 0.0
O276 O 0.73321 0.13706 0.22005 0.0
C277 C 0.68709 0.12523 0.95154 0.0
O278 O 0.70672 0.13549 0.93365 0.0
C279 C 0.68737 0.15011 0.24153 0.0
Zn280 Zn 0.8446 0.59183 0.20996 0.0
Zn281 Zn 0.85715 0.57906 0.10142 0.0
O282 O 0.82948 0.57509 0.06213 0.0
O283 O 0.82197 0.59046 0.14882 0.0
O284 O 0.86636 0.56691 0.02137 0.0
O285 O 0.83964 0.56894 0.27626 0.0
O286 O 0.85483 0.56108 0.19044 0.0
C287 C 0.81811 0.58174 0.08769 0.0
C288 C 0.88419 0.62266 0.16306 0.0
O289 O 0.8802 0.60996 0.11101 0.0
O290 O 0.87175 0.61787 0.21524 0.0
C291 C 0.87301 0.5757 0.96058 0.0
O292 O 0.87465 0.59385 0.94939 0.0
C293 C 0.84731 0.55824 0.25413 0.0
Zn294 Zn 0.58249 0.07285 0.46937 0.0
Zn295 Zn 0.60842 0.08338 0.57919 0.0
O296 O 0.58487 0.08636 0.62484 0.0
O297 O 0.56226 0.07438 0.53553 0.0
O298 O 0.62987 0.09299 0.65921 0.0
O299 O 0.60117 0.09697 0.40922 0.0
O300 O 0.62392 0.10382 0.49584 0.0
C301 C 0.56715 0.08125 0.59926 0.0
C302 C 0.59123 0.041 0.50473 0.0
O303 O 0.60065 0.05298 0.55795 0.0
O304 O 0.58283 0.04646 0.45688 0.0
C305 C 0.6247 0.08711 0.72416 0.0
O306 O 0.60519 0.07399 0.73827 0.0
C307 C 0.61927 0.10781 0.43378 0.0
Zn308 Zn 0.90371 0.50382 0.47359 0.0
Zn309 Zn 0.90065 0.52314 0.59009 0.0
O310 O 0.89298 0.49427 0.63138 0.0
O311 O 0.89435 0.47844 0.53271 0.0
O312 O 0.89724 0.53887 0.67406 0.0
O313 O 0.88329 0.50723 0.41686 0.0
O314 O 0.8815 0.52432 0.51071 0.0
C315 C 0.89084 0.47817 0.59959 0.0
C316 C 0.94216 0.53961 0.5118 0.0
O317 O 0.93156 0.54056 0.56407 0.0
O318 O 0.93375 0.52537 0.46508 0.0
C319 C 0.88635 0.53016 0.72973 0.0
O320 O 0.87686 0.50989 0.73469 0.0
C321 C 0.87613 0.51757 0.44626 0.0
Zn322 Zn 0.47995 0.39947 0.46759 0.0
Zn323 Zn 0.45873 0.37349 0.5741 0.0
O324 O 0.48645 0.39302 0.62502 0.0
O325 O 0.50332 0.41467 0.53631 0.0
O326 O 0.44286 0.35159 0.65004 0.0
O327 O 0.47939 0.37797 0.404 0.0
O328 O 0.45989 0.35621 0.48829 0.0
C329 C 0.50256 0.40877 0.60084 0.0
C330 C 0.44236 0.39919 0.50074 0.0
O331 O 0.44107 0.3871 0.55182 0.0
O332 O 0.45734 0.40625 0.45705 0.0
C333 C 0.44353 0.35589 0.71686 0.0
O334 O 0.45421 0.37535 0.73723 0.0
C335 C 0.46841 0.35963 0.42616 0.0
Zn336 Zn 0.59043 0.74167 0.82015 0.0
Zn337 Zn 0.58373 0.71463 0.92387 0.0
O338 O 0.57322 0.73262 0.97182 0.0
O339 O 0.58216 0.75681 0.88882 0.0
O340 O 0.5768 0.6921 0.99814 0.0
O341 O 0.57 0.7208 0.7525 0.0
O342 O 0.56679 0.69806 0.83464 0.0
C343 C 0.57467 0.74946 0.95017 0.0
C344 C 0.62709 0.74162 0.86002 0.0
O345 O 0.61557 0.7293 0.90938 0.0
O346 O 0.61966 0.74839 0.8131 0.0
C347 C 0.58003 0.69601 0.06532 0.0
O348 O 0.5891 0.71539 0.08676 0.0
C349 C 0.56244 0.70221 0.7723 0.0
Zn350 Zn 0.2517 0.84705 0.80171 0.0
Zn351 Zn 0.27539 0.85894 0.91154 0.0
O352 O 0.25054 0.83212 0.95104 0.0
O353 O 0.22852 0.82684 0.86319 0.0
O354 O 0.29607 0.86937 0.9939 0.0
O355 O 0.26812 0.83818 0.74352 0.0
O356 O 0.29116 0.85424 0.82881 0.0
C357 C 0.23236 0.8223 0.92487 0.0
C358 C 0.26222 0.8874 0.83735 0.0
O359 O 0.26903 0.88271 0.89333 0.0
O360 O 0.25535 0.875 0.78461 0.0
C361 C 0.29054 0.86896 0.05911 0.0
O362 O 0.27091 0.86193 0.07295 0.0
C363 C 0.28624 0.8452 0.7674 0.0
Zn364 Zn 0.14276 0.39979 0.79885 0.0
Zn365 Zn 0.12676 0.41118 0.9033 0.0
O366 O 0.15488 0.41805 0.94681 0.0
O367 O 0.16569 0.40409 0.86557 0.0
O368 O 0.11569 0.42241 0.97981 0.0
O369 O 0.1459 0.42185 0.73077 0.0
O370 O 0.12869 0.42834 0.81305 0.0
C371 C 0.16797 0.41308 0.92559 0.0
C372 C 0.10317 0.36727 0.84204 0.0
O373 O 0.10533 0.37982 0.89273 0.0
O374 O 0.11674 0.37261 0.79344 0.0
C375 C 0.11012 0.41458 0.04245 0.0
O376 O 0.11017 0.39741 0.0577 0.0
C377 C 0.13686 0.43149 0.75041 0.0
Zn378 Zn 0.39378 0.9045 0.54651 0.0
Zn379 Zn 0.36942 0.89767 0.43202 0.0
O380 O 0.39236 0.89359 0.387 0.0
O381 O 0.41193 0.89896 0.48313 0.0
O382 O 0.34842 0.89037 0.35201 0.0
O383 O 0.3723 0.88187 0.60519 0.0
O384 O 0.35181 0.87773 0.51365 0.0
C385 C 0.40821 0.89464 0.41679 0.0
C386 C 0.39028 0.93989 0.50694 0.0
O387 O 0.3795 0.92822 0.45501 0.0
O388 O 0.39767 0.93316 0.55439 0.0
C389 C 0.35314 0.89595 0.28666 0.0
O390 O 0.37274 0.90723 0.26921 0.0
C391 C 0.3545 0.87283 0.57717 0.0
Zn392 Zn 0.07901 0.48419 0.53055 0.0
Zn393 Zn 0.08083 0.46375 0.415 0.0
O394 O 0.08748 0.4921 0.37247 0.0
O395 O 0.08774 0.5092 0.46987 0.0
O396 O 0.08395 0.44835 0.32945 0.0
O397 O 0.09999 0.48119 0.58504 0.0
O398 O 0.10071 0.46309 0.4925 0.0
C399 C 0.09015 0.50859 0.40254 0.0
C400 C 0.04021 0.44785 0.49744 0.0
O401 O 0.05023 0.44643 0.44416 0.0
O402 O 0.04905 0.46256 0.5423 0.0
C403 C 0.09616 0.45819 0.27773 0.0
O404 O 0.10708 0.47847 0.28096 0.0
C405 C 0.10675 0.47046 0.55592 0.0
Zn406 Zn 0.50612 0.59205 0.539 0.0
Zn407 Zn 0.52822 0.61554 0.42828 0.0
O408 O 0.49987 0.59635 0.38047 0.0
O409 O 0.48144 0.5787 0.4745 0.0
O410 O 0.54449 0.63604 0.34908 0.0
O411 O 0.51065 0.61534 0.60142 0.0
O412 O 0.52977 0.63486 0.51185 0.0
C413 C 0.48275 0.58292 0.40789 0.0
C414 C 0.54118 0.5874 0.50247 0.0
O415 O 0.54391 0.6001 0.45176 0.0
O416 O 0.52627 0.58166 0.54606 0.0
C417 C 0.54421 0.63078 0.28352 0.0
O418 O 0.53359 0.61106 0.26647 0.0
C419 C 0.52249 0.63307 0.57549 0.0
Zn420 Zn 0.06844 0.58618 0.52228 0.0
Zn421 Zn 0.07251 0.60973 0.40974 0.0
O422 O 0.08109 0.58946 0.36724 0.0
O423 O 0.07569 0.56899 0.4605 0.0
O424 O 0.07641 0.62881 0.32521 0.0
O425 O 0.09022 0.60928 0.57894 0.0
O426 O 0.0918 0.62955 0.48998 0.0
C427 C 0.08103 0.5739 0.39551 0.0
C428 C 0.03081 0.5849 0.48828 0.0
O429 O 0.04128 0.59588 0.43462 0.0
O430 O 0.03916 0.57915 0.53533 0.0
C431 C 0.09108 0.63362 0.28068 0.0
O432 O 0.10386 0.62664 0.2919 0.0
C433 C 0.09751 0.62722 0.55278 0.0
Zn434 Zn 0.40543 0.48525 0.52102 0.0
Zn435 Zn 0.37912 0.46739 0.41356 0.0
O436 O 0.39965 0.49574 0.36858 0.0
O437 O 0.42307 0.50862 0.45517 0.0
O438 O 0.35747 0.4535 0.33505 0.0
O439 O 0.38495 0.48681 0.5847 0.0
O440 O 0.36237 0.46889 0.49981 0.0
C441 C 0.41688 0.50997 0.39289 0.0
C442 C 0.40183 0.44681 0.48243 0.0
O443 O 0.39079 0.44767 0.43125 0.0
O444 O 0.40929 0.46081 0.53017 0.0
C445 C 0.36262 0.4535 0.26959 0.0
O446 O 0.38234 0.46203 0.25391 0.0
C447 C 0.3665 0.47719 0.5625 0.0
Zn448 Zn 0.50938 0.92092 0.54666 0.0
Zn449 Zn 0.52554 0.90956 0.44063 0.0
O450 O 0.49794 0.90347 0.39546 0.0
O451 O 0.48647 0.91627 0.4789 0.0
O452 O 0.53694 0.89892 0.36337 0.0
O453 O 0.50657 0.89872 0.61344 0.0
O454 O 0.52252 0.89132 0.52872 0.0
C455 C 0.48462 0.90801 0.4176 0.0
C456 C 0.54898 0.95355 0.50347 0.0
O457 O 0.54708 0.94077 0.454 0.0
O458 O 0.53524 0.9483 0.55145 0.0
C459 C 0.54219 0.90725 0.30131 0.0
O460 O 0.5413 0.92409 0.28822 0.0
C461 C 0.51452 0.88824 0.59158 0.0
Zn462 Zn 0.25728 0.41577 0.78843 0.0
Zn463 Zn 0.28154 0.42084 0.90152 0.0
O464 O 0.25954 0.42626 0.94769 0.0
O465 O 0.24074 0.42351 0.85189 0.0
O466 O 0.3027 0.42751 0.98078 0.0
O467 O 0.27933 0.43698 0.72758 0.0
O468 O 0.29957 0.44013 0.81882 0.0
C469 C 0.24451 0.42704 0.9186 0.0
C470 C 0.25805 0.37874 0.82758 0.0
O471 O 0.26978 0.38999 0.87865 0.0
O472 O 0.25106 0.38627 0.78166 0.0
C473 C 0.29834 0.42304 0.0471 0.0
O474 O 0.27884 0.41303 0.06672 0.0
C475 C 0.29717 0.44512 0.75505 0.0
Zn476 Zn 0.56972 0.83348 0.81338 0.0
Zn477 Zn 0.56743 0.85429 0.92727 0.0
O478 O 0.56129 0.82633 0.97193 0.0
O479 O 0.56051 0.80863 0.8756 0.0
O480 O 0.56455 0.87049 0.01059 0.0
O481 O 0.5491 0.83663 0.75705 0.0
O482 O 0.54739 0.85429 0.84917 0.0
C483 C 0.55838 0.80962 0.94295 0.0
C484 C 0.60831 0.8701 0.84629 0.0
O485 O 0.59786 0.8718 0.89742 0.0
O486 O 0.59986 0.85502 0.80267 0.0
C487 C 0.55513 0.86205 0.06899 0.0
O488 O 0.5468 0.84194 0.07644 0.0
C489 C 0.54181 0.84698 0.78543 0.0
Zn490 Zn 0.13424 0.73389 0.78702 0.0
Zn491 Zn 0.12083 0.70867 0.89807 0.0
O492 O 0.14808 0.73265 0.93829 0.0
O493 O 0.15741 0.75472 0.84775 0.0
O494 O 0.11178 0.68765 0.97891 0.0
O495 O 0.1378 0.7149 0.72162 0.0
O496 O 0.123 0.69261 0.81017 0.0
C497 C 0.16029 0.75026 0.91098 0.0
C498 C 0.09477 0.72603 0.83589 0.0
O499 O 0.09805 0.71656 0.88711 0.0
O500 O 0.1075 0.73374 0.78443 0.0
C501 C 0.10374 0.68878 0.03797 0.0
O502 O 0.09981 0.70394 0.04715 0.0
C503 C 0.13016 0.69672 0.74594 0.0
C504 C 0.20986 0.97595 0.48889 0.0
C505 C 0.21302 0.98133 0.56258 0.0
C506 C 0.21626 0.99109 0.43486 0.0
C507 C 0.22624 0.01232 0.45202 0.0
H508 H 0.20207 0.95985 0.47251 0.0
H509 H 0.21319 0.98602 0.3791 0.0
S510 S 0.23912 0.03479 0.63682 0.0
N511 N 0.22742 0.00955 0.64984 0.0
N512 N 0.23952 0.03797 0.54849 0.0
C513 C 0.2299 0.01798 0.52549 0.0
C514 C 0.22327 0.00253 0.58063 0.0
C515 C 0.00879 0.22705 0.48653 0.0
C516 C 0.00344 0.22549 0.5601 0.0
C517 C -0.00635 0.21875 0.43226 0.0
C518 C 0.97244 0.20863 0.44897 0.0
H519 H 0.02485 0.23443 0.47046 0.0
H520 H -0.00131 0.22016 0.37669 0.0
S521 S 0.95012 0.20129 0.63314 0.0
N522 N 0.97533 0.21363 0.64664 0.0
N523 N 0.9469 0.19816 0.54488 0.0
C524 C 0.96684 0.20738 0.52226 0.0
C525 C 0.9823 0.21574 0.57766 0.0
C526 C 0.76695 0.77709 0.43237 0.0
C527 C 0.77457 0.76372 0.44902 0.0
C528 C 0.76109 0.78618 0.48681 0.0
C529 C 0.76271 0.78242 0.56041 0.0
H530 H 0.76561 0.78074 0.3767 0.0
H531 H 0.75554 0.79651 0.47083 0.0
S532 S 0.78101 0.748 0.63341 0.0
N533 N 0.78285 0.74671 0.54497 0.0
N534 N 0.77193 0.76383 0.64703 0.0
C535 C 0.77001 0.76883 0.57795 0.0
C536 C 0.77589 0.75948 0.52242 0.0
C537 C 0.75457 -0.00037 0.56734 0.0
C538 C 0.74471 0.97862 0.54709 0.0
C539 C 0.76162 0.01543 0.51556 0.0
C540 C 0.75917 0.01097 0.44111 0.0
H541 H 0.75726 0.00404 0.62378 0.0
H542 H 0.76945 0.03132 0.53437 0.0
S543 S 0.73311 0.95843 0.35912 0.0
N544 N 0.73192 0.95417 0.44693 0.0
N545 N 0.74517 0.98382 0.34979 0.0
C546 C 0.74877 0.99 0.41998 0.0
C547 C 0.74155 0.97387 0.47283 0.0
C548 C 0.01171 0.77931 0.48402 0.0
C549 C 0.00588 0.77662 0.55724 0.0
C550 C -0.00308 0.77192 0.42854 0.0
C551 C 0.97561 0.76135 0.44378 0.0
H552 H 0.02788 0.78744 0.46911 0.0
H553 H 0.00229 0.77458 0.37317 0.0
S554 S 0.95206 0.74974 0.62669 0.0
N555 N 0.97719 0.7623 0.64203 0.0
N556 N 0.94943 0.74832 0.53799 0.0
C557 C 0.96952 0.75828 0.51682 0.0
C558 C 0.98462 0.76594 0.5734 0.0
C559 C 0.21944 0.22928 0.42249 0.0
C560 C 0.23036 0.21908 0.44093 0.0
C561 C 0.2122 0.23748 0.47557 0.0
C562 C 0.21547 0.23577 0.54957 0.0
H563 H 0.21615 0.23075 0.36648 0.0
H564 H 0.20361 0.24486 0.4582 0.0
S565 S 0.24422 0.21157 0.62697 0.0
N566 N 0.24488 0.20855 0.53889 0.0
N567 N 0.23123 0.22387 0.63847 0.0
C568 C 0.22681 0.22606 0.56887 0.0
C569 C 0.23426 0.21776 0.5147 0.0
C570 C 0.90181 0.3469 0.84932 0.0
C571 C 0.8995 0.34241 0.77487 0.0
C572 C 0.89447 0.33109 0.90119 0.0
C573 C 0.8845 0.31006 0.88101 0.0
H574 H 0.90902 0.36276 0.86806 0.0
H575 H 0.89633 0.33546 0.95768 0.0
S576 S 0.87577 0.28994 0.69292 0.0
N577 N 0.88738 0.31531 0.68356 0.0
N578 N 0.87364 0.28568 0.7808 0.0
C579 C 0.88261 0.30535 0.80669 0.0
C580 C 0.89008 0.32147 0.75378 0.0
C581 C 0.6355 0.54428 0.86864 0.0
C582 C 0.64045 0.54723 0.79464 0.0
C583 C 0.65087 0.5531 0.922 0.0
C584 C 0.6719 0.56539 0.90385 0.0
H585 H 0.61961 0.53481 0.88585 0.0
H586 H 0.64616 0.55012 0.97806 0.0
S587 S 0.69315 0.57851 0.71776 0.0
N588 N 0.66799 0.56378 0.70596 0.0
N589 N 0.69681 0.5804 0.80603 0.0
C590 C 0.67707 0.56879 0.83001 0.0
C591 C 0.6614 0.55972 0.77556 0.0
C592 C 0.42006 0.09373 0.76296 0.0
C593 C 0.42959 0.08223 0.78234 0.0
C594 C 0.41273 0.10201 0.81541 0.0
C595 C 0.41462 0.09924 0.88972 0.0
H596 H 0.41842 0.0966 0.70666 0.0
H597 H 0.40578 0.11095 0.79726 0.0
S598 S 0.4377 0.06972 0.96967 0.0
N599 N 0.43998 0.06799 0.88166 0.0
N600 N 0.42626 0.08357 0.97997 0.0
C601 C 0.42375 0.08742 0.91 0.0
C602 C 0.43121 0.07893 0.85648 0.0
C603 C 0.43771 0.34406 0.84584 0.0
C604 C 0.4338 0.33915 0.77192 0.0
C605 C 0.42994 0.32859 0.89899 0.0
C606 C 0.41781 0.3075 0.88073 0.0
H607 H 0.44723 0.35998 0.8631 0.0
H608 H 0.43375 0.33328 0.95488 0.0
S609 S 0.40191 0.28637 0.69507 0.0
N610 N 0.41615 0.31163 0.68341 0.0
N611 N 0.4015 0.28261 0.78305 0.0
C612 C 0.41328 0.30238 0.80708 0.0
C613 C 0.42127 0.31816 0.75285 0.0
C614 C 0.67629 0.1182 0.82144 0.0
C615 C 0.67093 0.11457 0.89503 0.0
C616 C 0.66132 0.10908 0.76686 0.0
C617 C 0.64032 0.0958 0.78335 0.0
H618 H 0.69217 0.12845 0.80556 0.0
H619 H 0.6663 0.11265 0.71121 0.0
S620 S 0.61823 0.08036 0.96772 0.0
N621 N 0.64314 0.09616 0.98148 0.0
N622 N 0.61507 0.07897 0.87923 0.0
C623 C 0.63479 0.09167 0.85677 0.0
C624 C 0.65005 0.10106 0.91242 0.0
C625 C 0.87455 0.53289 0.85379 0.0
C626 C 0.88397 0.54253 0.78821 0.0
C627 C 0.87148 0.54384 0.90939 0.0
C628 C 0.87752 0.5649 0.9018 0.0
H629 H 0.86938 0.51667 0.86247 0.0
H630 H 0.86397 0.53554 0.95832 0.0
S631 S 0.90341 0.59767 0.74156 0.0
N632 N 0.89978 0.57464 0.71958 0.0
N633 N 0.89392 0.59516 0.82374 0.0
C634 C 0.88721 0.57485 0.83684 0.0
C635 C 0.89047 0.5637 0.78026 0.0
C636 C 0.56491 0.66802 0.24605 0.0
C637 C 0.55449 0.64692 0.22673 0.0
C638 C 0.57354 0.68366 0.19369 0.0
C639 C 0.57213 0.67896 0.11949 0.0
H640 H 0.56614 0.6726 0.30219 0.0
H641 H 0.58101 0.6996 0.21178 0.0
S642 S 0.54768 0.62617 0.03996 0.0
N643 N 0.54418 0.62218 0.12779 0.0
N644 N 0.56034 0.65154 0.02956 0.0
C645 C 0.56229 0.65793 0.09935 0.0
C646 C 0.55351 0.64196 0.15282 0.0
C647 C 0.34233 0.89291 0.1568 0.0
C648 C 0.3368 0.88932 0.23024 0.0
C649 C 0.32731 0.88636 0.10218 0.0
C650 C 0.30608 0.87605 0.11853 0.0
H651 H 0.35843 0.90069 0.14101 0.0
H652 H 0.33246 0.88943 0.04659 0.0
S653 S 0.28328 0.86311 0.30252 0.0
N654 N 0.30845 0.87492 0.31647 0.0
N655 N 0.28029 0.86273 0.21407 0.0
C656 C 0.30029 0.87254 0.19184 0.0
C657 C 0.31561 0.87912 0.24752 0.0
C658 C 0.09342 0.42617 0.22255 0.0
C659 C 0.09862 0.447 0.21559 0.0
C660 C 0.09684 0.41572 0.16591 0.0
C661 C 0.10533 0.42558 0.09961 0.0
H662 H 0.08716 0.41798 0.27281 0.0
H663 H 0.09299 0.39983 0.17461 0.0
S664 S 0.12016 0.47966 0.052 0.0
N665 N 0.11174 0.47684 0.13587 0.0
N666 N 0.11795 0.45725 0.02947 0.0
C667 C 0.10995 0.44624 0.09118 0.0
C668 C 0.10668 0.45692 0.14911 0.0
C669 C 0.08516 0.65989 0.21659 0.0
C670 C 0.09387 0.64698 0.21718 0.0
C671 C 0.08826 0.67318 0.15826 0.0
C672 C 0.09996 0.6739 0.0976 0.0
H673 H 0.07617 0.66004 0.26217 0.0
H674 H 0.08147 0.68302 0.16099 0.0
S675 S 0.12519 0.64232 0.07067 0.0
N676 N 0.11414 0.63524 0.15067 0.0
N677 N 0.11978 0.65994 0.04108 0.0
C678 C 0.10836 0.66069 0.09682 0.0
C679 C 0.10539 0.64734 0.15654 0.0
C680 C 0.3255 0.43501 0.22974 0.0
C681 C 0.34661 0.44495 0.21159 0.0
C682 C 0.31008 0.42766 0.17634 0.0
C683 C 0.31505 0.43001 0.10232 0.0
H684 H 0.32077 0.43302 0.2858 0.0
H685 H 0.29412 0.42036 0.19352 0.0
S686 S 0.36798 0.45424 0.02543 0.0
N687 N 0.37163 0.45618 0.11369 0.0
N688 N 0.34272 0.44248 0.01366 0.0
C689 C 0.33609 0.43959 0.08327 0.0
C690 C 0.35182 0.44701 0.13771 0.0
C691 C 0.54212 0.87604 0.25129 0.0
C692 C 0.54706 0.89676 0.24259 0.0
C693 C 0.54501 0.86514 0.19519 0.0
C694 C 0.55314 0.8745 0.12798 0.0
H695 H 0.53549 0.86792 0.30137 0.0
H696 H 0.54064 0.84914 0.20469 0.0
S697 S 0.56985 0.9289 0.07865 0.0
N698 N 0.56135 0.92655 0.1623 0.0
N699 N 0.56692 0.90612 0.05703 0.0
C700 C 0.55872 0.89541 0.1191 0.0
C701 C 0.55563 0.9065 0.17625 0.0
C702 C 0.18967 0.99442 0.93199 0.0
C703 C 0.18135 0.97412 0.9581 0.0
C704 C 0.19661 0.01116 0.9794 0.0
C705 C 0.1957 0.00825 0.05478 0.0
H706 H 0.19203 -0.00241 0.87462 0.0
H707 H 0.20409 0.02657 0.95643 0.0
S708 S 0.1709 0.95786 0.15045 0.0
N709 N 0.16917 0.95172 0.06405 0.0
N710 N 0.18256 0.98336 0.15314 0.0
C711 C 0.18542 0.98792 0.08151 0.0
C712 C 0.17813 0.97079 0.03313 0.0
C713 C 0.97227 0.17828 0.97696 0.0
C714 C 0.97519 0.17999 0.05242 0.0
C715 C 0.98902 0.18775 0.92974 0.0
C716 C 0.00934 0.19906 0.9561 0.0
H717 H 0.95689 0.17082 0.95382 0.0
H718 H 0.9859 0.18714 0.87234 0.0
S719 S 0.02545 0.20418 0.14876 0.0
N720 N -3e-05 0.19097 0.15108 0.0
N721 N 0.03162 0.20855 0.06245 0.0
C722 C 0.01258 0.19898 0.03123 0.0
C723 C -0.00454 0.18951 0.07939 0.0
C724 C 0.80009 0.79772 0.92791 0.0
C725 C 0.794 0.81158 0.9537 0.0
C726 C 0.80608 0.78716 0.9756 0.0
C727 C 0.80603 0.78995 0.05078 0.0
H728 H 0.79883 0.79386 0.87102 0.0
H729 H 0.8092 0.77556 0.95347 0.0
S730 S 0.79658 0.82829 0.14458 0.0
N731 N 0.79232 0.83056 0.05844 0.0
N732 N 0.80319 0.81026 0.1479 0.0
C733 C 0.80225 0.80541 0.07669 0.0
C734 C 0.79639 0.81639 0.02811 0.0
C735 C 0.77026 0.98059 0.02065 0.0
C736 C 0.77106 0.98345 0.94525 0.0
C737 C 0.77734 -0.00266 0.06813 0.0
C738 C 0.78577 0.01767 0.04222 0.0
H739 H 0.76327 0.9652 0.04361 0.0
H740 H 0.77569 0.99424 0.12564 0.0
S741 S 0.79361 0.03377 0.84947 0.0
N742 N 0.78248 0.0083 0.84676 0.0
N743 N 0.79608 0.03994 0.93599 0.0
C744 C 0.78781 0.02091 0.96691 0.0
C745 C 0.78037 0.00377 0.91845 0.0
C746 C 0.01262 0.81035 0.02635 0.0
C747 C 0.00963 0.80928 0.95099 0.0
C748 C -0.00419 0.80185 0.07358 0.0
C749 C 0.97544 0.79216 0.04715 0.0
H750 H 0.02789 0.81611 0.04913 0.0
H751 H -0.00118 0.80148 0.13068 0.0
S752 S 0.95982 0.79101 0.85558 0.0
N753 N 0.98522 0.80187 0.853 0.0
N754 N 0.9535 0.7862 0.94167 0.0
C755 C 0.97243 0.79365 0.97259 0.0
C756 C 0.98958 0.80213 0.92445 0.0
C757 C 0.20358 0.19182 0.96787 0.0
C758 C 0.20186 0.19307 0.04321 0.0
C759 C 0.19601 0.20102 0.92036 0.0
C760 C 0.18623 0.21162 0.94626 0.0
H761 H 0.2119 0.18474 0.94517 0.0
H762 H 0.19871 0.20058 0.86307 0.0
S763 S 0.17446 0.21597 0.13842 0.0
N764 N 0.18732 0.20334 0.14126 0.0
N765 N 0.17277 0.22045 0.05206 0.0
C766 C 0.18278 0.21141 0.02126 0.0
C767 C 0.19071 0.2022 0.06972 0.0
C768 C 0.86805 0.32462 0.4023 0.0
C769 C 0.87662 0.34495 0.37606 0.0
C770 C 0.86031 0.30774 0.35507 0.0
C771 C 0.86105 0.31054 0.2797 0.0
H772 H 0.86795 0.32172 0.45968 0.0
H773 H 0.8546 0.29247 0.37793 0.0
S774 S 0.87933 0.36025 0.18333 0.0
N775 N 0.88336 0.3667 0.26958 0.0
N776 N 0.86902 0.33486 0.1811 0.0
C777 C 0.86844 0.33061 0.25275 0.0
C778 C 0.87614 0.34783 0.30086 0.0
C779 C 0.65501 0.52928 0.27761 0.0
C780 C 0.67527 0.54072 0.30454 0.0
C781 C 0.63817 0.51947 0.32433 0.0
C782 C 0.64092 0.52089 0.39983 0.0
H783 H 0.65199 0.52882 0.22018 0.0
H784 H 0.62282 0.51189 0.30087 0.0
S785 S 0.691 0.54534 0.49751 0.0
N786 N 0.69734 0.5501 0.41143 0.0
N787 N 0.66552 0.53184 0.49909 0.0
C788 C 0.66115 0.53059 0.42731 0.0
C789 C 0.67837 0.54045 0.37968 0.0
C790 C 0.43849 0.12617 0.36 0.0
C791 C 0.43984 0.12471 0.28456 0.0
C792 C 0.44626 0.11706 0.40715 0.0
C793 C 0.45589 0.10636 0.38077 0.0
H794 H 0.43037 0.13341 0.38311 0.0
H795 H 0.44391 0.11772 0.46461 0.0
S796 S 0.46633 0.1011 0.18778 0.0
N797 N 0.45361 0.11388 0.18569 0.0
N798 N 0.46853 0.09696 0.27408 0.0
C799 C 0.45882 0.10623 0.30549 0.0
C800 C 0.45069 0.11534 0.25744 0.0
C801 C 0.44383 0.30502 0.35442 0.0
C802 C 0.44585 0.308 0.27909 0.0
C803 C 0.45227 0.32181 0.40204 0.0
C804 C 0.46327 0.34222 0.37624 0.0
H805 H 0.43463 0.28965 0.37698 0.0
H806 H 0.44934 0.31875 0.45928 0.0
S807 S 0.47605 0.35813 0.18417 0.0
N808 N 0.4618 0.33266 0.18122 0.0
N809 N 0.47803 0.36436 0.27053 0.0
C810 C 0.46694 0.34535 0.30126 0.0
C811 C 0.45811 0.3282 0.25271 0.0
C812 C 0.64937 0.13068 0.26281 0.0
C813 C 0.66936 0.14421 0.28904 0.0
C814 C 0.63276 0.12023 0.31015 0.0
C815 C 0.63559 0.12278 0.38545 0.0
H816 H 0.64672 0.12701 0.20578 0.0
H817 H 0.61797 0.10891 0.28758 0.0
S818 S 0.68361 0.1602 0.48055 0.0
N819 N 0.69015 0.16261 0.39448 0.0
N820 N 0.65887 0.14249 0.48327 0.0
C821 C 0.65492 0.13789 0.41189 0.0
C822 C 0.67182 0.14877 0.36366 0.0
C823 C 0.8633 0.52102 0.3257 0.0
C824 C 0.86428 0.52437 0.40093 0.0
C825 C 0.85648 0.53102 0.27876 0.0
C826 C 0.85009 0.54455 0.30512 0.0
H827 H 0.86903 0.51159 0.30204 0.0
H828 H 0.85717 0.52886 0.22117 0.0
S829 S 0.84584 0.55546 0.49842 0.0
N830 N 0.85556 0.53989 0.50028 0.0
N831 N 0.8424 0.55853 0.41217 0.0
C832 C 0.84908 0.54648 0.38064 0.0
C833 C 0.85626 0.53643 0.42852 0.0
C834 C 0.52823 0.64828 0.69882 0.0
C835 C 0.53004 0.65128 0.62345 0.0
C836 C 0.53811 0.66494 0.74658 0.0
C837 C 0.54994 0.68529 0.72097 0.0
H838 H 0.51996 0.63284 0.72149 0.0
H839 H 0.53693 0.66174 0.80401 0.0
S840 S 0.55732 0.70174 0.52856 0.0
N841 N 0.54298 0.67627 0.52542 0.0
N842 N 0.56139 0.70776 0.61516 0.0
C843 C 0.55077 0.68868 0.64576 0.0
C844 C 0.54087 0.67163 0.59702 0.0
C845 C 0.3226 0.85408 0.74604 0.0
C846 C 0.30245 0.84617 0.71922 0.0
C847 C 0.33934 0.86068 0.69915 0.0
C848 C 0.33655 0.85985 0.62368 0.0
H849 H 0.32571 0.85656 0.80345 0.0
H850 H 0.3547 0.86807 0.72255 0.0
S851 S 0.28639 0.8354 0.52652 0.0
N852 N 0.28019 0.83392 0.61271 0.0
N853 N 0.31183 0.84671 0.52463 0.0
C854 C 0.31629 0.84962 0.59638 0.0
C855 C 0.29917 0.84267 0.64421 0.0
C856 C 0.12772 0.45856 0.7233 0.0
C857 C 0.13358 0.44453 0.69805 0.0
C858 C 0.12068 0.46821 0.67574 0.0
C859 C 0.11887 0.46394 0.60103 0.0
H860 H 0.12771 0.46146 0.78065 0.0
H861 H 0.11543 0.47812 0.69872 0.0
S862 S 0.13542 0.43091 0.50616 0.0
N863 N 0.13972 0.42885 0.59245 0.0
N864 N 0.12611 0.44681 0.50303 0.0
C865 C 0.12628 0.45126 0.57432 0.0
C866 C 0.13373 0.44158 0.62285 0.0
C867 C 0.12447 0.68232 0.62129 0.0
C868 C 0.12642 0.67981 0.69578 0.0
C869 C 0.11644 0.66541 0.57409 0.0
C870 C 0.11025 0.64539 0.5995 0.0
H871 H 0.12783 0.69719 0.59982 0.0
H872 H 0.11401 0.66791 0.51815 0.0
S873 S 0.11664 0.63158 0.78725 0.0
N874 N 0.1246 0.65657 0.79089 0.0
N875 N 0.10992 0.62472 0.70234 0.0
C876 C 0.11414 0.64309 0.67267 0.0
C877 C 0.12209 0.66032 0.72081 0.0
C878 C 0.31245 0.45695 0.63295 0.0
C879 C 0.31524 0.45763 0.7084 0.0
C880 C 0.32928 0.46453 0.58596 0.0
C881 C 0.34955 0.47333 0.61254 0.0
H882 H 0.2971 0.44933 0.6095 0.0
H883 H 0.32625 0.46257 0.5284 0.0
S884 S 0.36538 0.48241 0.80577 0.0
N885 N 0.3399 0.47035 0.80765 0.0
N886 N 0.37167 0.48493 0.71945 0.0
C887 C 0.35269 0.47591 0.6879 0.0
C888 C 0.33549 0.46797 0.73582 0.0
C889 C 0.52573 0.86889 0.76438 0.0
C890 C 0.52983 0.8535 0.73954 0.0
C891 C 0.51927 0.87909 0.71668 0.0
C892 C 0.51688 0.87437 0.64245 0.0
H893 H 0.52878 0.87407 0.82003 0.0
H894 H 0.51754 0.89172 0.73739 0.0
S895 S 0.52103 0.83223 0.55285 0.0
N896 N 0.52738 0.83154 0.63784 0.0
N897 N 0.51577 0.85121 0.5483 0.0
C898 C 0.51901 0.85776 0.61811 0.0
C899 C 0.52529 0.84715 0.66672 0.0
C900 C 0.32835 0.089 0.10082 0.0
C901 C 0.34042 0.09411 0.16373 0.0
C902 C 0.30677 0.07926 0.10505 0.0
C903 C 0.29655 0.07391 0.17221 0.0
H904 H 0.33564 0.09372 0.04836 0.0
H905 H 0.29806 0.07654 0.05543 0.0
S906 S 0.32125 0.08146 0.35204 0.0
N907 N 0.34073 0.09146 0.29458 0.0
N908 N 0.30011 0.07266 0.3024 0.0
C909 C 0.30841 0.07753 0.23509 0.0
C910 C 0.33039 0.0878 0.23086 0.0
C911 C 0.89614 0.2339 0.0907 0.0
C912 C 0.8929 0.24271 0.15266 0.0
C913 C 0.90548 0.22168 0.09587 0.0
C914 C 0.91223 0.21822 0.16291 0.0
H915 H 0.89014 0.23524 0.03889 0.0
H916 H 0.90669 0.21422 0.04739 0.0
S917 S 0.90987 0.24051 0.33924 0.0
N918 N 0.8989 0.24899 0.28161 0.0
N919 N 0.91692 0.22645 0.29113 0.0
C920 C 0.91057 0.22838 0.22419 0.0
C921 C 0.90075 0.2405 0.21909 0.0
C922 C 0.7328 0.65428 0.23976 0.0
C923 C 0.72717 0.64286 0.17481 0.0
C924 C 0.74363 0.67595 0.23934 0.0
C925 C 0.74938 0.68687 0.17388 0.0
H926 H 0.73023 0.64644 0.29121 0.0
H927 H 0.74924 0.68405 0.29025 0.0
S928 S 0.73414 0.66444 0.98997 0.0
N929 N 0.72481 0.64415 0.04406 0.0
N930 N 0.74538 0.68495 0.04321 0.0
C931 C 0.74166 0.67571 0.10907 0.0
C932 C 0.73044 0.65364 0.10953 0.0
C933 C 0.07183 0.3122 0.90331 0.0
C934 C 0.06491 0.30154 0.83706 0.0
C935 C 0.0823 0.33388 0.90616 0.0
C936 C 0.08644 0.34553 0.84266 0.0
H937 H 0.07032 0.30379 0.95274 0.0
H938 H 0.08881 0.34148 0.95722 0.0
S939 S 0.06837 0.32523 0.65788 0.0
N940 N 0.06024 0.30432 0.70832 0.0
N941 N 0.08029 0.34509 0.71354 0.0
C942 C 0.07783 0.33509 0.77732 0.0
C943 C 0.06692 0.31304 0.77453 0.0
C944 C 0.68114 0.76571 0.78618 0.0
C945 C 0.6933 0.77395 0.84845 0.0
C946 C 0.65959 0.75393 0.79102 0.0
C947 C 0.64953 0.74959 0.85832 0.0
H948 H 0.68816 0.76953 0.73312 0.0
H949 H 0.65067 0.74898 0.74144 0.0
S950 S 0.67465 0.76482 0.03791 0.0
N951 N 0.69399 0.77508 0.97988 0.0
N952 N 0.65341 0.75248 0.98875 0.0
C953 C 0.66159 0.75619 0.92125 0.0
C954 C 0.68354 0.76855 0.91634 0.0
C955 C 0.24053 0.9201 0.90175 0.0
C956 C 0.2354 0.926 0.83605 0.0
C957 C 0.25179 0.90974 0.90288 0.0
C958 C 0.25809 0.90478 0.8382 0.0
H959 H 0.23438 0.92199 0.95232 0.0
H960 H 0.25365 0.90376 0.95396 0.0
S961 S 0.25336 0.92157 0.65396 0.0
N962 N 0.24112 0.92985 0.70631 0.0
N963 N 0.2622 0.9102 0.70834 0.0
C964 C 0.25548 0.91302 0.77322 0.0
C965 C 0.24414 0.92372 0.77213 0.0
C966 C 0.66177 0.9003 0.76406 0.0
C967 C 0.67435 0.90926 0.82493 0.0
C968 C 0.64026 0.88818 0.77116 0.0
C969 C 0.63064 0.88503 0.83909 0.0
H970 H 0.66865 0.90169 0.7114 0.0
H971 H 0.63114 0.88078 0.72334 0.0
S972 S 0.65688 0.90728 0.01361 0.0
N973 N 0.67581 0.91559 0.95415 0.0
N974 N 0.63536 0.89328 0.96731 0.0
C975 C 0.64304 0.89505 0.89954 0.0
C976 C 0.66492 0.90703 0.89249 0.0
C977 C 0.06109 0.74717 0.77556 0.0
C978 C 0.05815 0.75508 0.84047 0.0
C979 C 0.07108 0.73556 0.77524 0.0
C980 C 0.0782 0.73125 0.83981 0.0
H981 H 0.05747 0.75159 0.7242 0.0
H982 H 0.07473 0.73136 0.72357 0.0
S983 S 0.06948 0.74398 0.02511 0.0
N984 N 0.05953 0.75451 0.97177 0.0
N985 N 0.07821 0.7325 0.97099 0.0
C986 C 0.07288 0.7367 0.90555 0.0
C987 C 0.0629 0.74873 0.90589 0.0
C988 C 0.23344 0.32423 0.75417 0.0
C989 C 0.2284 0.31237 0.8175 0.0
C990 C 0.2443 0.3459 0.75758 0.0
C991 C 0.25079 0.35636 0.82426 0.0
H992 H 0.22764 0.3168 0.70233 0.0
H993 H 0.24676 0.35451 0.70793 0.0
S994 S 0.24425 0.33206 0.00425 0.0
N995 N 0.23265 0.31237 0.94771 0.0
N996 N 0.25349 0.35312 0.95402 0.0
C997 C 0.24747 0.3446 0.8872 0.0
C998 C 0.23612 0.32257 0.88383 0.0
C999 C 0.91494 0.67696 0.09436 0.0
C1000 C 0.92227 0.68831 0.15919 0.0
C1001 C 0.90465 0.65527 0.09421 0.0
C1002 C 0.90118 0.64428 0.15902 0.0
H1003 H 0.91582 0.68479 0.04409 0.0
H1004 H 0.89766 0.64714 0.04433 0.0
S1005 S 0.92123 0.66655 0.34028 0.0
N1006 N 0.9285 0.68689 0.28757 0.0
N1007 N 0.9089 0.64612 0.28728 0.0
C1008 C 0.9105 0.65543 0.22259 0.0
C1009 C 0.92116 0.67749 0.2227 0.0
C1010 C 0.33324 0.2389 0.09548 0.0
C1011 C 0.34529 0.24509 0.15858 0.0
C1012 C 0.31163 0.22835 0.09942 0.0
C1013 C 0.3014 0.22406 0.16645 0.0
H1014 H 0.34048 0.24098 0.04313 0.0
H1015 H 0.30286 0.22281 0.04971 0.0
S1016 S 0.32619 0.23978 0.34662 0.0
N1017 N 0.34567 0.2481 0.28945 0.0
N1018 N 0.30502 0.2287 0.29666 0.0
C1019 C 0.31333 0.23167 0.22949 0.0
C1020 C 0.33532 0.24205 0.22558 0.0
C1021 C 0.73584 0.09815 0.11877 0.0
C1022 C 0.73244 0.10646 0.18182 0.0
C1023 C 0.74589 0.0866 0.12186 0.0
C1024 C 0.75242 0.08256 0.18816 0.0
H1025 H 0.73198 0.10172 0.06629 0.0
H1026 H 0.74939 0.08157 0.07161 0.0
S1027 S 0.74436 0.09821 0.36949 0.0
N1028 N 0.73441 0.10808 0.31311 0.0
N1029 N 0.7529 0.08588 0.31872 0.0
C1030 C 0.74757 0.08928 0.25203 0.0
C1031 C 0.7377 0.10141 0.24887 0.0
C1032 C 0.00551 0.42673 0.44136 0.0
C1033 C 0.01776 0.43361 0.50395 0.0
C1034 C 0.98393 0.41644 0.44589 0.0
C1035 C 0.97388 0.41226 0.51315 0.0
H1036 H 0.0126 0.43038 0.38841 0.0
H1037 H 0.97506 0.41232 0.39619 0.0
S1038 S -0.00104 0.4247 0.69319 0.0
N1039 N 0.01836 0.43399 0.63539 0.0
N1040 N 0.97769 0.41411 0.6437 0.0
C1041 C 0.9859 0.41771 0.57624 0.0
C1042 C 0.0079 0.42858 0.57166 0.0
C1043 C 0.57017 0.55988 0.45223 0.0
C1044 C 0.57439 0.5542 0.51999 0.0
C1045 C 0.56061 0.57188 0.44682 0.0
C1046 C 0.5545 0.57815 0.50902 0.0
H1047 H 0.57377 0.55453 0.40293 0.0
H1048 H 0.55695 0.57526 0.39369 0.0
S1049 S 0.56359 0.56888 0.69899 0.0
N1050 N 0.57322 0.55715 0.65039 0.0
N1051 N 0.55471 0.57923 0.64034 0.0
C1052 C 0.55947 0.57339 0.57705 0.0
C1053 C 0.56959 0.56155 0.58253 0.0
C1054 C 0.41212 0.99447 0.5774 0.0
C1055 C 0.41619 0.00594 0.51343 0.0
C1056 C 0.4024 0.97282 0.57526 0.0
C1057 C 0.39613 0.96196 0.50924 0.0
H1058 H 0.41791 0.00229 0.62868 0.0
H1059 H 0.40074 0.96462 0.62533 0.0
S1060 S 0.40016 0.98496 0.32817 0.0
N1061 N 0.41104 0.005 0.38352 0.0
N1062 N 0.39238 0.96428 0.37953 0.0
C1063 C 0.39835 0.97321 0.44578 0.0
C1064 C 0.40852 -0.00475 0.44788 0.0
C1065 C 0.58239 0.00824 0.56819 0.0
C1066 C 0.58691 0.01942 0.50336 0.0
C1067 C 0.57176 0.98657 0.56754 0.0
C1068 C 0.56562 0.97541 0.50212 0.0
H1069 H 0.58526 0.01614 0.61968 0.0
H1070 H 0.56697 0.9785 0.61873 0.0
S1071 S 0.57815 -0.00233 0.31793 0.0
N1072 N 0.5877 0.01798 0.37217 0.0
N1073 N 0.56794 0.97717 0.37118 0.0
C1074 C 0.57236 0.98644 0.43711 0.0
C1075 C 0.58294 0.00851 0.43771 0.0
C1076 C 0.97432 0.55834 0.43841 0.0
C1077 C 0.9646 0.55434 0.50638 0.0
C1078 C -0.00411 0.56974 0.4322 0.0
C1079 C 0.00845 0.57714 0.49392 0.0
H1080 H 0.96522 0.55204 0.38971 0.0
H1081 H 0.00275 0.57162 0.37926 0.0
S1082 S 0.99074 0.57293 0.68345 0.0
N1083 N 0.96921 0.56045 0.63587 0.0
N1084 N 0.00977 0.58145 0.62435 0.0
C1085 C -0.00106 0.5743 0.56174 0.0
C1086 C 0.97698 0.56303 0.56795 0.0
C1087 C 0.41161 0.42457 0.55261 0.0
C1088 C 0.40754 0.43055 0.48512 0.0
C1089 C 0.42132 0.4127 0.55746 0.0
C1090 C 0.42764 0.40681 0.49494 0.0
H1091 H 0.40817 0.42996 0.60218 0.0
H1092 H 0.42525 0.40948 0.6104 0.0
S1093 S 0.41799 0.41595 0.30547 0.0
N1094 N 0.40834 0.42756 0.35463 0.0
N1095 N 0.42704 0.40563 0.36361 0.0
C1096 C 0.42228 0.41134 0.42718 0.0
C1097 C 0.41206 0.4231 0.42227 0.0
C1098 C 0.20179 0.09343 0.28142 0.0
C1099 C 0.21905 0.09224 0.30464 0.0
C1100 C 0.20242 0.11248 0.2796 0.0
C1101 C 0.2203 0.13068 0.30117 0.0
H1102 H 0.18913 0.08034 0.2543 0.0
H1103 H 0.19021 0.11341 0.25123 0.0
S1104 S 0.26696 0.13447 0.38529 0.0
N1105 N 0.25238 0.1097 0.36466 0.0
N1106 N 0.25355 0.14564 0.36142 0.0
C1107 C 0.23597 0.12897 0.33659 0.0
C1108 C 0.23533 0.10957 0.33836 0.0
C1109 C 0.85324 0.11138 0.3407 0.0
C1110 C 0.84709 0.09183 0.31082 0.0
C1111 C 0.87406 0.12703 0.33954 0.0
C1112 C 0.88895 0.1235 0.30681 0.0
H1113 H 0.84172 0.11548 0.35535 0.0
H1114 H 0.87781 0.14267 0.35318 0.0
S1115 S 0.88126 0.07342 0.24002 0.0
N1116 N 0.85794 0.06845 0.26392 0.0
N1117 N 0.897 0.09807 0.25957 0.0
C1118 C 0.88345 0.10314 0.28866 0.0
C1119 C 0.86237 0.08716 0.29104 0.0
C1120 C 0.88738 0.77049 0.29233 0.0
C1121 C 0.88886 0.75252 0.29849 0.0
C1122 C 0.86806 0.76929 0.29487 0.0
C1123 C 0.84991 0.75005 0.30277 0.0
H1124 H 0.90071 0.78493 0.27583 0.0
H1125 H 0.86713 0.78286 0.28026 0.0
S1126 S 0.84636 0.69959 0.33792 0.0
N1127 N 0.8713 0.7159 0.32688 0.0
N1128 N 0.83493 0.71357 0.33044 0.0
C1129 C 0.85161 0.73267 0.3198 0.0
C1130 C 0.87122 0.73393 0.31793 0.0
C1131 C 0.09393 0.21506 0.70284 0.0
C1132 C 0.09114 0.23197 0.68824 0.0
C1133 C 0.11365 0.21724 0.69974 0.0
C1134 C 0.13094 0.23644 0.68262 0.0
H1135 H 0.08152 0.20115 0.727 0.0
H1136 H 0.11574 0.20494 0.72165 0.0
S1137 S 0.13063 0.28343 0.62127 0.0
N1138 N 0.10624 0.26681 0.64061 0.0
N1139 N 0.14343 0.27103 0.63581 0.0
C1140 C 0.12771 0.25217 0.65596 0.0
C1141 C 0.10764 0.24989 0.65852 0.0
C1142 C 0.78217 0.88892 0.71975 0.0
C1143 C 0.76623 0.86927 0.69855 0.0
C1144 C 0.77935 0.90609 0.71731 0.0
C1145 C 0.76051 0.90394 0.69385 0.0
H1146 H 0.79552 0.8904 0.74835 0.0
H1147 H 0.79062 0.92019 0.74419 0.0
S1148 S 0.71661 0.85716 0.61364 0.0
N1149 N 0.73314 0.84968 0.63803 0.0
N1150 N 0.72777 0.88205 0.63386 0.0
C1151 C 0.74613 0.88535 0.66044 0.0
C1152 C 0.74903 0.86787 0.66269 0.0
C1153 C 0.11756 0.89154 0.70517 0.0
C1154 C 0.1357 0.89037 0.69992 0.0
C1155 C 0.09814 0.87343 0.7057 0.0
C1156 C 0.09655 0.8539 0.7005 0.0
H1157 H 0.11847 0.90607 0.7192 0.0
H1158 H 0.08473 0.8746 0.72016 0.0
S1159 S 0.13916 0.84329 0.66795 0.0
N1160 N 0.15067 0.86874 0.67555 0.0
N1161 N 0.11416 0.83473 0.67588 0.0
C1162 C 0.1143 0.85291 0.68376 0.0
C1163 C 0.13399 0.87124 0.68362 0.0
C1164 C 0.87239 0.42279 0.61398 0.0
C1165 C 0.89062 0.42362 0.638 0.0
C1166 C 0.87056 0.44056 0.61456 0.0
C1167 C 0.8869 0.45954 0.63928 0.0
H1168 H 0.86088 0.40929 0.58489 0.0
H1169 H 0.85769 0.44013 0.5859 0.0
S1170 S 0.93525 0.46815 0.72546 0.0
N1171 N 0.92323 0.44354 0.70108 0.0
N1172 N 0.91973 0.47702 0.70262 0.0
C1173 C 0.90348 0.45958 0.675 0.0
C1174 C 0.90538 0.44148 0.67415 0.0
C1175 C 0.53907 0.42214 0.6275 0.0
C1176 C 0.52056 0.42144 0.6465 0.0
C1177 C 0.55788 0.44079 0.6308 0.0
C1178 C 0.55851 0.45909 0.65302 0.0
H1179 H 0.53862 0.40915 0.59959 0.0
H1180 H 0.57126 0.44153 0.60518 0.0
S1181 S 0.51525 0.46372 0.72831 0.0
N1182 N 0.50467 0.43917 0.70412 0.0
N1183 N 0.54015 0.47434 0.71033 0.0
C1184 C 0.54083 0.45762 0.68483 0.0
C1185 C 0.52167 0.43863 0.68145 0.0
C1186 C 0.53424 0.06565 0.66391 0.0
C1187 C 0.55189 0.08375 0.64054 0.0
C1188 C 0.51493 0.06442 0.66447 0.0
C1189 C 0.51288 0.08123 0.64136 0.0
H1190 H 0.53484 0.05157 0.67187 0.0
H1191 H 0.50128 0.04941 0.67276 0.0
S1192 S 0.55519 0.13341 0.5924 0.0
N1193 N 0.56683 0.11991 0.60789 0.0
N1194 N 0.5304 0.11754 0.60854 0.0
C1195 C 0.53082 0.10029 0.62932 0.0
C1196 C 0.55048 0.10157 0.62895 0.0
C1197 C 0.77902 0.59536 0.03361 0.0
C1198 C 0.76086 0.57705 0.05199 0.0
C1199 C 0.79807 0.59608 0.03312 0.0
C1200 C 0.79939 0.57847 0.0506 0.0
H1201 H 0.77889 0.60978 0.02918 0.0
H1202 H 0.81202 0.61102 0.02815 0.0
S1203 S 0.75577 0.5259 0.08689 0.0
N1204 N 0.74483 0.54024 0.07572 0.0
N1205 N 0.78078 0.54154 0.07414 0.0
C1206 C 0.78106 0.55946 0.05835 0.0
C1207 C 0.76165 0.55875 0.0592 0.0
C1208 C 0.4051 0.18865 0.99356 0.0
C1209 C 0.42127 0.18716 0.0263 0.0
C1210 C 0.40542 0.20761 0.9923 0.0
C1211 C 0.42194 0.22535 0.02361 0.0
H1212 H 0.39086 0.17472 0.97934 0.0
H1213 H 0.39141 0.20761 0.97723 0.0
S1214 S 0.47038 0.23038 0.09587 0.0
N1215 N 0.45606 0.20561 0.07488 0.0
N1216 N 0.4567 0.24128 0.0722 0.0
C1217 C 0.43966 0.22469 0.04396 0.0
C1218 C 0.43931 0.20545 0.04543 0.0
C1219 C 0.76168 0.2207 0.05111 0.0
C1220 C 0.75597 0.20027 0.03239 0.0
C1221 C 0.78237 0.23647 0.04781 0.0
C1222 C 0.79778 0.23208 0.02635 0.0
H1223 H 0.75073 0.22386 0.07829 0.0
H1224 H 0.78664 0.25127 0.07242 0.0
S1225 S 0.7898 0.18244 0.95378 0.0
N1226 N 0.76642 0.17757 0.97637 0.0
N1227 N 0.8055 0.20721 0.9718 0.0
C1228 C 0.79174 0.21265 0.99609 0.0
C1229 C 0.77063 0.19666 0.99849 0.0
C1230 C 0.57966 0.77943 0.0207 0.0
C1231 C 0.56585 0.75999 0.99084 0.0
C1232 C 0.57509 0.7955 0.0193 0.0
C1233 C 0.55683 0.79249 0.98641 0.0
H1234 H 0.59518 0.7831 0.03528 0.0
H1235 H 0.58727 0.81099 0.03287 0.0
S1236 S 0.51344 0.74292 0.92034 0.0
N1237 N 0.53136 0.7373 0.94434 0.0
N1238 N 0.52301 0.7677 0.9395 0.0
C1239 C 0.54153 0.77227 0.96852 0.0
C1240 C 0.54603 0.75587 0.97121 0.0
C1241 C 0.19678 0.76644 0.94892 0.0
C1242 C 0.17791 0.76623 0.9514 0.0
C1243 C 0.21555 0.7852 0.95362 0.0
C1244 C 0.21571 0.80404 0.96021 0.0
H1245 H 0.19708 0.75253 0.93426 0.0
H1246 H 0.22975 0.78519 0.94212 0.0
S1247 S 0.17042 0.8109 0.98491 0.0
N1248 N 0.16048 0.7857 0.97388 0.0
N1249 N 0.19575 0.82098 0.98199 0.0
C1250 C 0.19702 0.80358 0.97302 0.0
C1251 C 0.17802 0.78457 0.96859 0.0
C1252 C 0.1923 0.4053 0.9884 0.0
C1253 C 0.1876 0.42024 0.96348 0.0
C1254 C 0.21273 0.40934 0.98861 0.0
C1255 C 0.22875 0.42818 0.96179 0.0
H1256 H 0.17998 0.38963 0.9988 0.0
H1257 H 0.21544 0.39658 0.99871 0.0
S1258 S 0.22486 0.47378 0.90732 0.0
N1259 N 0.20087 0.45585 0.92633 0.0
N1260 N 0.23924 0.46316 0.92382 0.0
C1261 C 0.2246 0.4442 0.94766 0.0
C1262 C 0.20389 0.44025 0.949 0.0
C1263 C 0.42846 0.8779 0.39036 0.0
C1264 C 0.4244 0.89395 0.37487 0.0
C1265 C 0.44878 0.88164 0.39144 0.0
C1266 C 0.46542 0.90157 0.37787 0.0
H1267 H 0.4163 0.86333 0.41162 0.0
H1268 H 0.45161 0.86977 0.413 0.0
S1269 S 0.46231 0.94719 0.31773 0.0
N1270 N 0.43803 0.92904 0.33115 0.0
N1271 N 0.47637 0.93626 0.33515 0.0
C1272 C 0.46126 0.91672 0.3516 0.0
C1273 C 0.44058 0.9128 0.34927 0.0
C1274 C 0.07256 0.54244 0.32744 0.0
C1275 C 0.08786 0.56145 0.35596 0.0
C1276 C 0.07511 0.52505 0.3291 0.0
C1277 C 0.09288 0.52637 0.36032 0.0
H1278 H 0.0575 0.54025 0.31368 0.0
H1279 H 0.0619 0.51005 0.31651 0.0
S1280 S 0.13938 0.57388 0.42355 0.0
N1281 N 0.12297 0.58164 0.4006 0.0
N1282 N 0.1276 0.54886 0.40517 0.0
C1283 C 0.10951 0.54597 0.37737 0.0
C1284 C 0.10702 0.56365 0.37485 0.0
C1285 C 0.46588 0.55268 0.32862 0.0
C1286 C 0.46503 0.56905 0.36277 0.0
C1287 C 0.44823 0.53296 0.32496 0.0
C1288 C 0.42939 0.52941 0.35399 0.0
H1289 H 0.4807 0.55419 0.31561 0.0
H1290 H 0.45008 0.51998 0.30933 0.0
S1291 S 0.41815 0.56874 0.42777 0.0
N1292 N 0.44317 0.58165 0.41035 0.0
N1293 N 0.40986 0.54468 0.4014 0.0
C1294 C 0.42765 0.5465 0.37511 0.0
C1295 C 0.44562 0.56644 0.38 0.0
loop_
_geom_bond_atom_site_label_1
_geom_bond_atom_site_label_2
_geom_bond_distance
_geom_bond_site_symmetry_2
_ccdc_geom_bond_type
Zn0 O3 2.031 . S
Zn0 O5 2.049 . S
Zn0 O10 2.067 . S
Zn1 O2 1.962 . S
Zn1 O4 1.986 . S
Zn1 O6 1.996 . S
Zn1 O9 1.943 . S
O2 Zn1 1.962 . S
O2 C7 1.254 . S
O3 Zn0 2.031 . S
O3 C7 1.269 . S
O4 Zn1 1.986 . S
O4 C11 1.262 . S
O5 Zn0 2.049 . S
O5 C13 1.260 . S
O6 Zn1 1.996 . S
O6 C13 1.257 . S
C7 O2 1.254 . S
C7 O3 1.269 . S
C8 O9 1.249 . S
C8 O10 1.270 . S
O9 Zn1 1.943 . S
O9 C8 1.249 . S
O10 Zn0 2.067 . S
O10 C8 1.270 . S
C11 O4 1.262 . S
C11 O12 1.232 . S
O12 C11 1.232 . S
C13 O5 1.260 . S
C13 O6 1.257 . S
Zn14 O17 2.031 . S
Zn14 O19 2.049 . S
Zn14 O24 2.067 . S
Zn15 O16 1.962 . S
Zn15 O18 1.986 . S
Zn15 O20 1.996 . S
Zn15 O23 1.943 . S
O16 Zn15 1.962 . S
O16 C21 1.254 . S
O17 Zn14 2.031 . S
O17 C21 1.269 . S
O18 Zn15 1.986 . S
O18 C25 1.262 . S
O19 Zn14 2.049 . S
O19 C27 1.260 . S
O20 Zn15 1.996 . S
O20 C27 1.257 . S
C21 O16 1.254 . S
C21 O17 1.269 . S
C22 O23 1.249 . S
C22 O24 1.270 . S
O23 Zn15 1.943 . S
O23 C22 1.249 . S
O24 Zn14 2.067 . S
O24 C22 1.270 . S
C25 O18 1.262 . S
C25 O26 1.232 . S
O26 C25 1.232 . S
C27 O19 1.260 . S
C27 O20 1.257 . S
Zn28 O31 2.031 . S
Zn28 O33 2.049 . S
Zn28 O38 2.067 . S
Zn29 O30 1.962 . S
Zn29 O32 1.986 . S
Zn29 O34 1.996 . S
Zn29 O37 1.943 . S
O30 Zn29 1.962 . S
O30 C35 1.254 . S
O31 Zn28 2.031 . S
O31 C35 1.269 . S
O32 Zn29 1.986 . S
O32 C39 1.262 . S
O33 Zn28 2.049 . S
O33 C41 1.260 . S
O34 Zn29 1.996 . S
O34 C41 1.257 . S
C35 O30 1.254 . S
C35 O31 1.269 . S
C36 O37 1.249 . S
C36 O38 1.270 . S
O37 Zn29 1.943 . S
O37 C36 1.249 . S
O38 Zn28 2.067 . S
O38 C36 1.270 . S
C39 O32 1.262 . S
C39 O40 1.232 . S
O40 C39 1.232 . S
C41 O33 1.260 . S
C41 O34 1.257 . S
Zn42 O45 2.031 . S
Zn42 O47 2.049 . S
Zn42 O52 2.067 . S
Zn43 O44 1.962 . S
Zn43 O46 1.986 . S
Zn43 O48 1.996 . S
Zn43 O51 1.943 . S
O44 Zn43 1.962 . S
O44 C49 1.254 . S
O45 Zn42 2.031 . S
O45 C49 1.269 . S
O46 Zn43 1.986 . S
O46 C53 1.262 . S
O47 Zn42 2.049 . S
O47 C55 1.260 . S
O48 Zn43 1.996 . S
O48 C55 1.257 . S
C49 O44 1.254 . S
C49 O45 1.269 . S
C50 O51 1.249 . S
C50 O52 1.270 . S
O51 Zn43 1.943 . S
O51 C50 1.249 . S
O52 Zn42 2.067 . S
O52 C50 1.270 . S
C53 O46 1.262 . S
C53 O54 1.232 . S
O54 C53 1.232 . S
C55 O47 1.260 . S
C55 O48 1.257 . S
Zn56 O59 2.031 . S
Zn56 O61 2.049 . S
Zn56 O66 2.067 . S
Zn57 O58 1.962 . S
Zn57 O60 1.986 . S
Zn57 O62 1.996 . S
Zn57 O65 1.943 . S
O58 Zn57 1.962 . S
O58 C63 1.254 . S
O59 Zn56 2.031 . S
O59 C63 1.269 . S
O60 Zn57 1.986 . S
O60 C67 1.262 . S
O61 Zn56 2.049 . S
O61 C69 1.260 . S
O62 Zn57 1.996 . S
O62 C69 1.257 . S
C63 O58 1.254 . S
C63 O59 1.269 . S
C64 O65 1.249 . S
C64 O66 1.270 . S
O65 Zn57 1.943 . S
O65 C64 1.249 . S
O66 Zn56 2.067 . S
O66 C64 1.270 . S
C67 O60 1.262 . S
C67 O68 1.232 . S
O68 C67 1.232 . S
C69 O61 1.260 . S
C69 O62 1.257 . S
Zn70 O73 2.031 . S
Zn70 O75 2.049 . S
Zn70 O80 2.067 . S
Zn71 O72 1.962 . S
Zn71 O74 1.986 . S
Zn71 O76 1.996 . S
Zn71 O79 1.943 . S
O72 Zn71 1.962 . S
O72 C77 1.254 . S
O73 Zn70 2.031 . S
O73 C77 1.269 . S
O74 Zn71 1.986 . S
O74 C81 1.262 . S
O75 Zn70 2.049 . S
O75 C83 1.260 . S
O76 Zn71 1.996 . S
O76 C83 1.257 . S
C77 O72 1.254 . S
C77 O73 1.269 . S
C78 O79 1.249 . S
C78 O80 1.270 . S
O79 Zn71 1.943 . S
O79 C78 1.249 . S
O80 Zn70 2.067 . S
O80 C78 1.270 . S
C81 O74 1.262 . S
C81 O82 1.232 . S
O82 C81 1.232 . S
C83 O75 1.260 . S
C83 O76 1.257 . S
Zn84 O87 2.031 . S
Zn84 O89 2.049 . S
Zn84 O94 2.067 . S
Zn85 O86 1.962 . S
Zn85 O88 1.986 . S
Zn85 O90 1.996 . S
Zn85 O93 1.943 . S
O86 Zn85 1.962 . S
O86 C91 1.254 . S
O87 Zn84 2.031 . S
O87 C91 1.269 . S
O88 Zn85 1.986 . S
O88 C95 1.262 . S
O89 Zn84 2.049 . S
O89 C97 1.260 . S
O90 Zn85 1.996 . S
O90 C97 1.257 . S
C91 O86 1.254 . S
C91 O87 1.269 . S
C92 O93 1.249 . S
C92 O94 1.270 . S
O93 Zn85 1.943 . S
O93 C92 1.249 . S
O94 Zn84 2.067 . S
O94 C92 1.270 . S
C95 O88 1.262 . S
C95 O96 1.232 . S
O96 C95 1.232 . S
C97 O89 1.260 . S
C97 O90 1.257 . S
Zn98 O101 2.031 . S
Zn98 O103 2.049 . S
Zn98 O108 2.067 . S
Zn99 O100 1.962 . S
Zn99 O102 1.986 . S
Zn99 O104 1.996 . S
Zn99 O107 1.943 . S
O100 Zn99 1.962 . S
O100 C105 1.254 . S
O101 Zn98 2.031 . S
O101 C105 1.269 . S
O102 Zn99 1.986 . S
O102 C109 1.262 . S
O103 Zn98 2.049 . S
O103 C111 1.260 . S
O104 Zn99 1.996 . S
O104 C111 1.257 . S
C105 O100 1.254 . S
C105 O101 1.269 . S
C106 O107 1.249 . S
C106 O108 1.270 . S
O107 Zn99 1.943 . S
O107 C106 1.249 . S
O108 Zn98 2.067 . S
O108 C106 1.270 . S
C109 O102 1.262 . S
C109 O110 1.232 . S
O110 C109 1.232 . S
C111 O103 1.260 . S
C111 O104 1.257 . S
Zn112 O115 2.031 . S
Zn112 O117 2.049 . S
Zn112 O122 2.067 . S
Zn113 O114 1.962 . S
Zn113 O116 1.986 . S
Zn113 O118 1.996 . S
Zn113 O121 1.943 . S
O114 Zn113 1.962 . S
O114 C119 1.254 . S
O115 Zn112 2.031 . S
O115 C119 1.269 . S
O116 Zn113 1.986 . S
O116 C123 1.262 . S
O117 Zn112 2.049 . S
O117 C125 1.260 . S
O118 Zn113 1.996 . S
O118 C125 1.257 . S
C119 O114 1.254 . S
C119 O115 1.269 . S
C120 O121 1.249 . S
C120 O122 1.270 . S
O121 Zn113 1.943 . S
O121 C120 1.249 . S
O122 Zn112 2.067 . S
O122 C120 1.270 . S
C123 O116 1.262 . S
C123 O124 1.232 . S
O124 C123 1.232 . S
C125 O117 1.260 . S
C125 O118 1.257 . S
Zn126 O129 2.031 . S
Zn126 O131 2.049 . S
Zn126 O136 2.067 . S
Zn127 O128 1.962 . S
Zn127 O130 1.986 . S
Zn127 O132 1.996 . S
Zn127 O135 1.943 . S
O128 Zn127 1.962 . S
O128 C133 1.254 . S
O129 Zn126 2.031 . S
O129 C133 1.269 . S
O130 Zn127 1.986 . S
O130 C137 1.262 . S
O131 Zn126 2.049 . S
O131 C139 1.260 . S
O132 Zn127 1.996 . S
O132 C139 1.257 . S
C133 O128 1.254 . S
C133 O129 1.269 . S
C134 O135 1.249 . S
C134 O136 1.270 . S
O135 Zn127 1.943 . S
O135 C134 1.249 . S
O136 Zn126 2.067 . S
O136 C134 1.270 . S
C137 O130 1.262 . S
C137 O138 1.232 . S
O138 C137 1.232 . S
C139 O131 1.260 . S
C139 O132 1.257 . S
Zn140 O143 2.031 . S
Zn140 O145 2.049 . S
Zn140 O150 2.067 . S
Zn141 O142 1.962 . S
Zn141 O144 1.986 . S
Zn141 O146 1.996 . S
Zn141 O149 1.943 . S
O142 Zn141 1.962 . S
O142 C147 1.254 . S
O143 Zn140 2.031 . S
O143 C147 1.269 . S
O144 Zn141 1.986 . S
O144 C151 1.262 . S
O145 Zn140 2.049 . S
O145 C153 1.260 . S
O146 Zn141 1.996 . S
O146 C153 1.257 . S
C147 O142 1.254 . S
C147 O143 1.269 . S
C148 O149 1.249 . S
C148 O150 1.270 . S
O149 Zn141 1.943 . S
O149 C148 1.249 . S
O150 Zn140 2.067 . S
O150 C148 1.270 . S
C151 O144 1.262 . S
C151 O152 1.232 . S
O152 C151 1.232 . S
C153 O145 1.260 . S
C153 O146 1.257 . S
Zn154 O157 2.031 . S
Zn154 O159 2.049 . S
Zn154 O164 2.067 . S
Zn155 O156 1.962 . S
Zn155 O158 1.986 . S
Zn155 O160 1.996 . S
Zn155 O163 1.943 . S
O156 Zn155 1.962 . S
O156 C161 1.254 . S
O157 Zn154 2.031 . S
O157 C161 1.269 . S
O158 Zn155 1.986 . S
O158 C165 1.262 . S
O159 Zn154 2.049 . S
O159 C167 1.260 . S
O160 Zn155 1.996 . S
O160 C167 1.257 . S
C161 O156 1.254 . S
C161 O157 1.269 . S
C162 O163 1.249 . S
C162 O164 1.270 . S
O163 Zn155 1.943 . S
O163 C162 1.249 . S
O164 Zn154 2.067 . S
O164 C162 1.270 . S
C165 O158 1.262 . S
C165 O166 1.232 . S
O166 C165 1.232 . S
C167 O159 1.260 . S
C167 O160 1.257 . S
Zn168 O171 2.031 . S
Zn168 O173 2.049 . S
Zn168 O178 2.067 . S
Zn169 O170 1.962 . S
Zn169 O172 1.986 . S
Zn169 O174 1.996 . S
Zn169 O177 1.943 . S
O170 Zn169 1.962 . S
O170 C175 1.254 . S
O171 Zn168 2.031 . S
O171 C175 1.269 . S
O172 Zn169 1.986 . S
O172 C179 1.262 . S
O173 Zn168 2.049 . S
O173 C181 1.260 . S
O174 Zn169 1.996 . S
O174 C181 1.257 . S
C175 O170 1.254 . S
C175 O171 1.269 . S
C176 O177 1.249 . S
C176 O178 1.270 . S
O177 Zn169 1.943 . S
O177 C176 1.249 . S
O178 Zn168 2.067 . S
O178 C176 1.270 . S
C179 O172 1.262 . S
C179 O180 1.232 . S
O180 C179 1.232 . S
C181 O173 1.260 . S
C181 O174 1.257 . S
Zn182 O185 2.031 . S
Zn182 O187 2.049 . S
Zn182 O192 2.067 . S
Zn183 O184 1.962 . S
Zn183 O186 1.986 . S
Zn183 O188 1.996 . S
Zn183 O191 1.943 . S
O184 Zn183 1.962 . S
O184 C189 1.254 . S
O185 Zn182 2.031 . S
O185 C189 1.269 . S
O186 Zn183 1.986 . S
O186 C193 1.262 . S
O187 Zn182 2.049 . S
O187 C195 1.260 . S
O188 Zn183 1.996 . S
O188 C195 1.257 . S
C189 O184 1.254 . S
C189 O185 1.269 . S
C190 O191 1.249 . S
C190 O192 1.270 . S
O191 Zn183 1.943 . S
O191 C190 1.249 . S
O192 Zn182 2.067 . S
O192 C190 1.270 . S
C193 O186 1.262 . S
C193 O194 1.232 . S
O194 C193 1.232 . S
C195 O187 1.260 . S
C195 O188 1.257 . S
Zn196 O199 2.031 . S
Zn196 O201 2.049 . S
Zn196 O206 2.067 . S
Zn197 O198 1.962 . S
Zn197 O200 1.986 . S
Zn197 O202 1.996 . S
Zn197 O205 1.943 . S
O198 Zn197 1.962 . S
O198 C203 1.254 . S
O199 Zn196 2.031 . S
O199 C203 1.269 . S
O200 Zn197 1.986 . S
O200 C207 1.262 . S
O201 Zn196 2.049 . S
O201 C209 1.260 . S
O202 Zn197 1.996 . S
O202 C209 1.257 . S
C203 O198 1.254 . S
C203 O199 1.269 . S
C204 O205 1.249 . S
C204 O206 1.270 . S
O205 Zn197 1.943 . S
O205 C204 1.249 . S
O206 Zn196 2.067 . S
O206 C204 1.270 . S
C207 O200 1.262 . S
C207 O208 1.232 . S
O208 C207 1.232 . S
C209 O201 1.260 . S
C209 O202 1.257 . S
Zn210 O213 2.031 . S
Zn210 O215 2.049 . S
Zn210 O220 2.067 . S
Zn211 O212 1.962 . S
Zn211 O214 1.986 . S
Zn211 O216 1.996 . S
Zn211 O219 1.943 . S
O212 Zn211 1.962 . S
O212 C217 1.254 . S
O213 Zn210 2.031 . S
O213 C217 1.269 . S
O214 Zn211 1.986 . S
O214 C221 1.262 1_554 S
O215 Zn210 2.049 . S
O215 C223 1.260 . S
O216 Zn211 1.996 . S
O216 C223 1.257 . S
C217 O212 1.254 . S
C217 O213 1.269 . S
C218 O219 1.249 . S
C218 O220 1.270 . S
O219 Zn211 1.943 . S
O219 C218 1.249 . S
O220 Zn210 2.067 . S
O220 C218 1.270 . S
C221 O214 1.262 1_556 S
C221 O222 1.232 . S
O222 C221 1.232 . S
C223 O215 1.260 . S
C223 O216 1.257 . S
Zn224 O227 2.031 . S
Zn224 O229 2.049 . S
Zn224 O234 2.067 . S
Zn225 O226 1.962 . S
Zn225 O228 1.986 . S
Zn225 O230 1.996 . S
Zn225 O233 1.943 . S
O226 Zn225 1.962 . S
O226 C231 1.254 . S
O227 Zn224 2.031 . S
O227 C231 1.269 . S
O228 Zn225 1.986 . S
O228 C235 1.262 1_554 S
O229 Zn224 2.049 . S
O229 C237 1.260 . S
O230 Zn225 1.996 . S
O230 C237 1.257 . S
C231 O226 1.254 . S
C231 O227 1.269 . S
C232 O233 1.249 . S
C232 O234 1.270 . S
O233 Zn225 1.943 . S
O233 C232 1.249 . S
O234 Zn224 2.067 . S
O234 C232 1.270 . S
C235 O228 1.262 1_556 S
C235 O236 1.232 . S
O236 C235 1.232 . S
C237 O229 1.260 . S
C237 O230 1.257 . S
Zn238 O241 2.031 . S
Zn238 O243 2.049 . S
Zn238 O248 2.067 . S
Zn239 O240 1.962 . S
Zn239 O242 1.986 . S
Zn239 O244 1.996 . S
Zn239 O247 1.943 . S
O240 Zn239 1.962 . S
O240 C245 1.254 . S
O241 Zn238 2.031 . S
O241 C245 1.269 . S
O242 Zn239 1.986 . S
O242 C249 1.262 1_554 S
O243 Zn238 2.049 . S
O243 C251 1.260 . S
O244 Zn239 1.996 . S
O244 C251 1.257 . S
C245 O240 1.254 . S
C245 O241 1.269 . S
C246 O247 1.249 . S
C246 O248 1.270 . S
O247 Zn239 1.943 . S
O247 C246 1.249 . S
O248 Zn238 2.067 . S
O248 C246 1.270 . S
C249 O242 1.262 1_556 S
C249 O250 1.232 . S
O250 C249 1.232 . S
C251 O243 1.260 . S
C251 O244 1.257 . S
Zn252 O255 2.031 . S
Zn252 O257 2.049 . S
Zn252 O262 2.067 . S
Zn253 O254 1.962 . S
Zn253 O256 1.986 . S
Zn253 O258 1.996 . S
Zn253 O261 1.943 . S
O254 Zn253 1.962 . S
O254 C259 1.254 . S
O255 Zn252 2.031 . S
O255 C259 1.269 . S
O256 Zn253 1.986 . S
O256 C263 1.262 1_554 S
O257 Zn252 2.049 . S
O257 C265 1.260 . S
O258 Zn253 1.996 . S
O258 C265 1.257 . S
C259 O254 1.254 . S
C259 O255 1.269 . S
C260 O261 1.249 . S
C260 O262 1.270 . S
O261 Zn253 1.943 . S
O261 C260 1.249 . S
O262 Zn252 2.067 . S
O262 C260 1.270 . S
C263 O256 1.262 1_556 S
C263 O264 1.232 . S
O264 C263 1.232 . S
C265 O257 1.260 . S
C265 O258 1.257 . S
Zn266 O269 2.031 . S
Zn266 O271 2.049 . S
Zn266 O276 2.067 . S
Zn267 O268 1.962 . S
Zn267 O270 1.986 . S
Zn267 O272 1.996 . S
Zn267 O275 1.943 . S
O268 Zn267 1.962 . S
O268 C273 1.254 . S
O269 Zn266 2.031 . S
O269 C273 1.269 . S
O270 Zn267 1.986 . S
O270 C277 1.262 1_554 S
O271 Zn266 2.049 . S
O271 C279 1.260 . S
O272 Zn267 1.996 . S
O272 C279 1.257 . S
C273 O268 1.254 . S
C273 O269 1.269 . S
C274 O275 1.249 . S
C274 O276 1.270 . S
O275 Zn267 1.943 . S
O275 C274 1.249 . S
O276 Zn266 2.067 . S
O276 C274 1.270 . S
C277 O270 1.262 1_556 S
C277 O278 1.232 . S
O278 C277 1.232 . S
C279 O271 1.260 . S
C279 O272 1.257 . S
Zn280 O283 2.031 . S
Zn280 O285 2.049 . S
Zn280 O290 2.067 . S
Zn281 O282 1.962 . S
Zn281 O284 1.986 . S
Zn281 O286 1.996 . S
Zn281 O289 1.943 . S
O282 Zn281 1.962 . S
O282 C287 1.254 . S
O283 Zn280 2.031 . S
O283 C287 1.269 . S
O284 Zn281 1.986 . S
O284 C291 1.262 1_554 S
O285 Zn280 2.049 . S
O285 C293 1.260 . S
O286 Zn281 1.996 . S
O286 C293 1.257 . S
C287 O282 1.254 . S
C287 O283 1.269 . S
C288 O289 1.249 . S
C288 O290 1.270 . S
O289 Zn281 1.943 . S
O289 C288 1.249 . S
O290 Zn280 2.067 . S
O290 C288 1.270 . S
C291 O284 1.262 1_556 S
C291 O292 1.232 . S
O292 C291 1.232 . S
C293 O285 1.260 . S
C293 O286 1.257 . S
Zn294 O297 2.031 . S
Zn294 O299 2.049 . S
Zn294 O304 2.067 . S
Zn295 O296 1.962 . S
Zn295 O298 1.986 . S
Zn295 O300 1.996 . S
Zn295 O303 1.943 . S
O296 Zn295 1.962 . S
O296 C301 1.254 . S
O297 Zn294 2.031 . S
O297 C301 1.269 . S
O298 Zn295 1.986 . S
O298 C305 1.262 . S
O299 Zn294 2.049 . S
O299 C307 1.260 . S
O300 Zn295 1.996 . S
O300 C307 1.257 . S
C301 O296 1.254 . S
C301 O297 1.269 . S
C302 O303 1.249 . S
C302 O304 1.270 . S
O303 Zn295 1.943 . S
O303 C302 1.249 . S
O304 Zn294 2.067 . S
O304 C302 1.270 . S
C305 O298 1.262 . S
C305 O306 1.232 . S
O306 C305 1.232 . S
C307 O299 1.260 . S
C307 O300 1.257 . S
Zn308 O311 2.031 . S
Zn308 O313 2.049 . S
Zn308 O318 2.067 . S
Zn309 O310 1.962 . S
Zn309 O312 1.986 . S
Zn309 O314 1.996 . S
Zn309 O317 1.943 . S
O310 Zn309 1.962 . S
O310 C315 1.254 . S
O311 Zn308 2.031 . S
O311 C315 1.269 . S
O312 Zn309 1.986 . S
O312 C319 1.262 . S
O313 Zn308 2.049 . S
O313 C321 1.260 . S
O314 Zn309 1.996 . S
O314 C321 1.257 . S
C315 O310 1.254 . S
C315 O311 1.269 . S
C316 O317 1.249 . S
C316 O318 1.270 . S
O317 Zn309 1.943 . S
O317 C316 1.249 . S
O318 Zn308 2.067 . S
O318 C316 1.270 . S
C319 O312 1.262 . S
C319 O320 1.232 . S
O320 C319 1.232 . S
C321 O313 1.260 . S
C321 O314 1.257 . S
Zn322 O325 2.031 . S
Zn322 O327 2.049 . S
Zn322 O332 2.067 . S
Zn323 O324 1.962 . S
Zn323 O326 1.986 . S
Zn323 O328 1.996 . S
Zn323 O331 1.943 . S
O324 Zn323 1.962 . S
O324 C329 1.254 . S
O325 Zn322 2.031 . S
O325 C329 1.269 . S
O326 Zn323 1.986 . S
O326 C333 1.262 . S
O327 Zn322 2.049 . S
O327 C335 1.260 . S
O328 Zn323 1.996 . S
O328 C335 1.257 . S
C329 O324 1.254 . S
C329 O325 1.269 . S
C330 O331 1.249 . S
C330 O332 1.270 . S
O331 Zn323 1.943 . S
O331 C330 1.249 . S
O332 Zn322 2.067 . S
O332 C330 1.270 . S
C333 O326 1.262 . S
C333 O334 1.232 . S
O334 C333 1.232 . S
C335 O327 1.260 . S
C335 O328 1.257 . S
Zn336 O339 2.031 . S
Zn336 O341 2.049 . S
Zn336 O346 2.067 . S
Zn337 O338 1.962 . S
Zn337 O340 1.986 . S
Zn337 O342 1.996 . S
Zn337 O345 1.943 . S
O338 Zn337 1.962 . S
O338 C343 1.254 . S
O339 Zn336 2.031 . S
O339 C343 1.269 . S
O340 Zn337 1.986 . S
O340 C347 1.262 1_556 S
O341 Zn336 2.049 . S
O341 C349 1.260 . S
O342 Zn337 1.996 . S
O342 C349 1.257 . S
C343 O338 1.254 . S
C343 O339 1.269 . S
C344 O345 1.249 . S
C344 O346 1.270 . S
O345 Zn337 1.943 . S
O345 C344 1.249 . S
O346 Zn336 2.067 . S
O346 C344 1.270 . S
C347 O340 1.262 1_554 S
C347 O348 1.232 . S
O348 C347 1.232 . S
C349 O341 1.260 . S
C349 O342 1.257 . S
Zn350 O353 2.031 . S
Zn350 O355 2.049 . S
Zn350 O360 2.067 . S
Zn351 O352 1.962 . S
Zn351 O354 1.986 . S
Zn351 O356 1.996 . S
Zn351 O359 1.943 . S
O352 Zn351 1.962 . S
O352 C357 1.254 . S
O353 Zn350 2.031 . S
O353 C357 1.269 . S
O354 Zn351 1.986 . S
O354 C361 1.262 1_556 S
O355 Zn350 2.049 . S
O355 C363 1.260 . S
O356 Zn351 1.996 . S
O356 C363 1.257 . S
C357 O352 1.254 . S
C357 O353 1.269 . S
C358 O359 1.249 . S
C358 O360 1.270 . S
O359 Zn351 1.943 . S
O359 C358 1.249 . S
O360 Zn350 2.067 . S
O360 C358 1.270 . S
C361 O354 1.262 1_554 S
C361 O362 1.232 . S
O362 C361 1.232 . S
C363 O355 1.260 . S
C363 O356 1.257 . S
Zn364 O367 2.031 . S
Zn364 O369 2.049 . S
Zn364 O374 2.067 . S
Zn365 O366 1.962 . S
Zn365 O368 1.986 . S
Zn365 O370 1.996 . S
Zn365 O373 1.943 . S
O366 Zn365 1.962 . S
O366 C371 1.254 . S
O367 Zn364 2.031 . S
O367 C371 1.269 . S
O368 Zn365 1.986 . S
O368 C375 1.262 1_556 S
O369 Zn364 2.049 . S
O369 C377 1.260 . S
O370 Zn365 1.996 . S
O370 C377 1.257 . S
C371 O366 1.254 . S
C371 O367 1.269 . S
C372 O373 1.249 . S
C372 O374 1.270 . S
O373 Zn365 1.943 . S
O373 C372 1.249 . S
O374 Zn364 2.067 . S
O374 C372 1.270 . S
C375 O368 1.262 1_554 S
C375 O376 1.232 . S
O376 C375 1.232 . S
C377 O369 1.260 . S
C377 O370 1.257 . S
Zn378 O381 2.031 . S
Zn378 O383 2.049 . S
Zn378 O388 2.067 . S
Zn379 O380 1.962 . S
Zn379 O382 1.986 . S
Zn379 O384 1.996 . S
Zn379 O387 1.943 . S
O380 Zn379 1.962 . S
O380 C385 1.254 . S
O381 Zn378 2.031 . S
O381 C385 1.269 . S
O382 Zn379 1.986 . S
O382 C389 1.262 . S
O383 Zn378 2.049 . S
O383 C391 1.260 . S
O384 Zn379 1.996 . S
O384 C391 1.257 . S
C385 O380 1.254 . S
C385 O381 1.269 . S
C386 O387 1.249 . S
C386 O388 1.270 . S
O387 Zn379 1.943 . S
O387 C386 1.249 . S
O388 Zn378 2.067 . S
O388 C386 1.270 . S
C389 O382 1.262 . S
C389 O390 1.232 . S
O390 C389 1.232 . S
C391 O383 1.260 . S
C391 O384 1.257 . S
Zn392 O395 2.031 . S
Zn392 O397 2.049 . S
Zn392 O402 2.067 . S
Zn393 O394 1.962 . S
Zn393 O396 1.986 . S
Zn393 O398 1.996 . S
Zn393 O401 1.943 . S
O394 Zn393 1.962 . S
O394 C399 1.254 . S
O395 Zn392 2.031 . S
O395 C399 1.269 . S
O396 Zn393 1.986 . S
O396 C403 1.262 . S
O397 Zn392 2.049 . S
O397 C405 1.260 . S
O398 Zn393 1.996 . S
O398 C405 1.257 . S
C399 O394 1.254 . S
C399 O395 1.269 . S
C400 O401 1.249 . S
C400 O402 1.270 . S
O401 Zn393 1.943 . S
O401 C400 1.249 . S
O402 Zn392 2.067 . S
O402 C400 1.270 . S
C403 O396 1.262 . S
C403 O404 1.232 . S
O404 C403 1.232 . S
C405 O397 1.260 . S
C405 O398 1.257 . S
Zn406 O409 2.031 . S
Zn406 O411 2.049 . S
Zn406 O416 2.067 . S
Zn407 O408 1.962 . S
Zn407 O410 1.986 . S
Zn407 O412 1.996 . S
Zn407 O415 1.943 . S
O408 Zn407 1.962 . S
O408 C413 1.254 . S
O409 Zn406 2.031 . S
O409 C413 1.269 . S
O410 Zn407 1.986 . S
O410 C417 1.262 . S
O411 Zn406 2.049 . S
O411 C419 1.260 . S
O412 Zn407 1.996 . S
O412 C419 1.257 . S
C413 O408 1.254 . S
C413 O409 1.269 . S
C414 O415 1.249 . S
C414 O416 1.270 . S
O415 Zn407 1.943 . S
O415 C414 1.249 . S
O416 Zn406 2.067 . S
O416 C414 1.270 . S
C417 O410 1.262 . S
C417 O418 1.232 . S
O418 C417 1.232 . S
C419 O411 1.260 . S
C419 O412 1.257 . S
Zn420 O423 2.031 . S
Zn420 O425 2.049 . S
Zn420 O430 2.067 . S
Zn421 O422 1.962 . S
Zn421 O424 1.986 . S
Zn421 O426 1.996 . S
Zn421 O429 1.943 . S
O422 Zn421 1.962 . S
O422 C427 1.254 . S
O423 Zn420 2.031 . S
O423 C427 1.269 . S
O424 Zn421 1.986 . S
O424 C431 1.262 . S
O425 Zn420 2.049 . S
O425 C433 1.260 . S
O426 Zn421 1.996 . S
O426 C433 1.257 . S
C427 O422 1.254 . S
C427 O423 1.269 . S
C428 O429 1.249 . S
C428 O430 1.270 . S
O429 Zn421 1.943 . S
O429 C428 1.249 . S
O430 Zn420 2.067 . S
O430 C428 1.270 . S
C431 O424 1.262 . S
C431 O432 1.232 . S
O432 C431 1.232 . S
C433 O425 1.260 . S
C433 O426 1.257 . S
Zn434 O437 2.031 . S
Zn434 O439 2.049 . S
Zn434 O444 2.067 . S
Zn435 O436 1.962 . S
Zn435 O438 1.986 . S
Zn435 O440 1.996 . S
Zn435 O443 1.943 . S
O436 Zn435 1.962 . S
O436 C441 1.254 . S
O437 Zn434 2.031 . S
O437 C441 1.269 . S
O438 Zn435 1.986 . S
O438 C445 1.262 . S
O439 Zn434 2.049 . S
O439 C447 1.260 . S
O440 Zn435 1.996 . S
O440 C447 1.257 . S
C441 O436 1.254 . S
C441 O437 1.269 . S
C442 O443 1.249 . S
C442 O444 1.270 . S
O443 Zn435 1.943 . S
O443 C442 1.249 . S
O444 Zn434 2.067 . S
O444 C442 1.270 . S
C445 O438 1.262 . S
C445 O446 1.232 . S
O446 C445 1.232 . S
C447 O439 1.260 . S
C447 O440 1.257 . S
Zn448 O451 2.031 . S
Zn448 O453 2.049 . S
Zn448 O458 2.067 . S
Zn449 O450 1.962 . S
Zn449 O452 1.986 . S
Zn449 O454 1.996 . S
Zn449 O457 1.943 . S
O450 Zn449 1.962 . S
O450 C455 1.254 . S
O451 Zn448 2.031 . S
O451 C455 1.269 . S
O452 Zn449 1.986 . S
O452 C459 1.262 . S
O453 Zn448 2.049 . S
O453 C461 1.260 . S
O454 Zn449 1.996 . S
O454 C461 1.257 . S
C455 O450 1.254 . S
C455 O451 1.269 . S
C456 O457 1.249 . S
C456 O458 1.270 . S
O457 Zn449 1.943 . S
O457 C456 1.249 . S
O458 Zn448 2.067 . S
O458 C456 1.270 . S
C459 O452 1.262 . S
C459 O460 1.232 . S
O460 C459 1.232 . S
C461 O453 1.260 . S
C461 O454 1.257 . S
Zn462 O465 2.031 . S
Zn462 O467 2.049 . S
Zn462 O472 2.067 . S
Zn463 O464 1.962 . S
Zn463 O466 1.986 . S
Zn463 O468 1.996 . S
Zn463 O471 1.943 . S
O464 Zn463 1.962 . S
O464 C469 1.254 . S
O465 Zn462 2.031 . S
O465 C469 1.269 . S
O466 Zn463 1.986 . S
O466 C473 1.262 1_556 S
O467 Zn462 2.049 . S
O467 C475 1.260 . S
O468 Zn463 1.996 . S
O468 C475 1.257 . S
C469 O464 1.254 . S
C469 O465 1.269 . S
C470 O471 1.249 . S
C470 O472 1.270 . S
O471 Zn463 1.943 . S
O471 C470 1.249 . S
O472 Zn462 2.067 . S
O472 C470 1.270 . S
C473 O466 1.262 1_554 S
C473 O474 1.232 . S
O474 C473 1.232 . S
C475 O467 1.260 . S
C475 O468 1.257 . S
Zn476 O479 2.031 . S
Zn476 O481 2.049 . S
Zn476 O486 2.067 . S
Zn477 O478 1.962 . S
Zn477 O480 1.986 . S
Zn477 O482 1.996 . S
Zn477 O485 1.943 . S
O478 Zn477 1.962 . S
O478 C483 1.254 . S
O479 Zn476 2.031 . S
O479 C483 1.269 . S
O480 Zn477 1.986 . S
O480 C487 1.262 1_556 S
O481 Zn476 2.049 . S
O481 C489 1.260 . S
O482 Zn477 1.996 . S
O482 C489 1.257 . S
C483 O478 1.254 . S
C483 O479 1.269 . S
C484 O485 1.249 . S
C484 O486 1.270 . S
O485 Zn477 1.943 . S
O485 C484 1.249 . S
O486 Zn476 2.067 . S
O486 C484 1.270 . S
C487 O480 1.262 1_554 S
C487 O488 1.232 . S
O488 C487 1.232 . S
C489 O481 1.260 . S
C489 O482 1.257 . S
Zn490 O493 2.031 . S
Zn490 O495 2.049 . S
Zn490 O500 2.067 . S
Zn491 O492 1.962 . S
Zn491 O494 1.986 . S
Zn491 O496 1.996 . S
Zn491 O499 1.943 . S
O492 Zn491 1.962 . S
O492 C497 1.254 . S
O493 Zn490 2.031 . S
O493 C497 1.269 . S
O494 Zn491 1.986 . S
O494 C501 1.262 1_556 S
O495 Zn490 2.049 . S
O495 C503 1.260 . S
O496 Zn491 1.996 . S
O496 C503 1.257 . S
C497 O492 1.254 . S
C497 O493 1.269 . S
C498 O499 1.249 . S
C498 O500 1.270 . S
O499 Zn491 1.943 . S
O499 C498 1.249 . S
O500 Zn490 2.067 . S
O500 C498 1.270 . S
C501 O494 1.262 1_554 S
C501 O502 1.232 . S
O502 C501 1.232 . S
C503 O495 1.260 . S
C503 O496 1.257 . S
C504 C505 1.369 . S
C504 C506 1.417 . S
C504 H508 0.930 . S
C505 C504 1.369 . S
C505 C514 1.424 1_565 S
C506 C504 1.417 . S
C506 C507 1.367 1_565 S
C506 H509 0.907 . S
C507 C506 1.367 1_545 S
C507 C513 1.428 . S
H508 C504 0.930 . S
H509 C506 0.907 . S
S510 N511 1.613 . S
S510 N512 1.610 . S
N511 S510 1.613 . S
N511 C514 1.352 . S
N512 S510 1.610 . S
N512 C513 1.351 . S
C513 C507 1.428 . S
C513 N512 1.351 . S
C513 C514 1.436 . S
C514 C505 1.424 1_545 S
C514 N511 1.352 . S
C514 C513 1.436 . S
C515 C516 1.369 . S
C515 C517 1.419 . S
C515 H519 0.930 . S
C516 C515 1.369 . S
C516 C525 1.429 1_455 S
C517 C515 1.419 . S
C517 C518 1.363 1_455 S
C517 H520 0.929 . S
C518 C517 1.363 1_655 S
C518 C524 1.428 . S
H519 C515 0.930 . S
H520 C517 0.929 . S
S521 N522 1.613 . S
S521 N523 1.610 . S
N522 S521 1.613 . S
N522 C525 1.350 . S
N523 S521 1.610 . S
N523 C524 1.351 . S
C524 C518 1.428 . S
C524 N523 1.351 . S
C524 C525 1.434 . S
C525 C516 1.429 1_655 S
C525 N522 1.350 . S
C525 C524 1.434 . S
C526 C527 1.369 . S
C526 C528 1.419 . S
C526 H530 0.930 . S
C527 C526 1.369 . S
C527 C536 1.429 . S
C528 C526 1.419 . S
C528 C529 1.363 . S
C528 H531 0.929 . S
C529 C528 1.363 . S
C529 C535 1.428 . S
H530 C526 0.930 . S
H531 C528 0.929 . S
S532 N533 1.613 . S
S532 N534 1.610 . S
N533 S532 1.613 . S
N533 C536 1.350 . S
N534 S532 1.610 . S
N534 C535 1.351 . S
C535 C529 1.428 . S
C535 N534 1.351 . S
C535 C536 1.434 . S
C536 C527 1.429 . S
C536 N533 1.350 . S
C536 C535 1.434 . S
C537 C538 1.369 1_545 S
C537 C539 1.419 . S
C537 H541 0.930 . S
C538 C537 1.369 1_565 S
C538 C547 1.429 . S
C539 C537 1.419 . S
C539 C540 1.363 . S
C539 H542 0.929 . S
C540 C539 1.363 . S
C540 C546 1.428 1_545 S
H541 C537 0.930 . S
H542 C539 0.929 . S
S543 N544 1.613 . S
S543 N545 1.610 . S
N544 S543 1.613 . S
N544 C547 1.350 . S
N545 S543 1.610 . S
N545 C546 1.351 . S
C546 C540 1.428 1_565 S
C546 N545 1.351 . S
C546 C547 1.434 . S
C547 C538 1.429 . S
C547 N544 1.350 . S
C547 C546 1.434 . S
C548 C549 1.369 . S
C548 C550 1.419 . S
C548 H552 0.930 . S
C549 C548 1.369 . S
C549 C558 1.429 1_455 S
C550 C548 1.419 . S
C550 C551 1.363 1_455 S
C550 H553 0.929 . S
C551 C550 1.363 1_655 S
C551 C557 1.428 . S
H552 C548 0.930 . S
H553 C550 0.929 . S
S554 N555 1.613 . S
S554 N556 1.610 . S
N555 S554 1.613 . S
N555 C558 1.350 . S
N556 S554 1.610 . S
N556 C557 1.351 . S
C557 C551 1.428 . S
C557 N556 1.351 . S
C557 C558 1.434 . S
C558 C549 1.429 1_655 S
C558 N555 1.350 . S
C558 C557 1.434 . S
C559 C560 1.369 . S
C559 C561 1.419 . S
C559 H563 0.930 . S
C560 C559 1.369 . S
C560 C569 1.429 . S
C561 C559 1.419 . S
C561 C562 1.363 . S
C561 H564 0.929 . S
C562 C561 1.363 . S
C562 C568 1.428 . S
H563 C559 0.930 . S
H564 C561 0.929 . S
S565 N566 1.613 . S
S565 N567 1.610 . S
N566 S565 1.613 . S
N566 C569 1.350 . S
N567 S565 1.610 . S
N567 C568 1.351 . S
C568 C562 1.428 . S
C568 N567 1.351 . S
C568 C569 1.434 . S
C569 C560 1.429 . S
C569 N566 1.350 . S
C569 C568 1.434 . S
C570 C571 1.369 . S
C570 C572 1.419 . S
C570 H574 0.930 . S
C571 C570 1.369 . S
C571 C580 1.429 . S
C572 C570 1.419 . S
C572 C573 1.363 . S
C572 H575 0.929 . S
C573 C572 1.363 . S
C573 C579 1.428 . S
H574 C570 0.930 . S
H575 C572 0.929 . S
S576 N577 1.613 . S
S576 N578 1.610 . S
N577 S576 1.613 . S
N577 C580 1.350 . S
N578 S576 1.610 . S
N578 C579 1.351 . S
C579 C573 1.428 . S
C579 N578 1.351 . S
C579 C580 1.434 . S
C580 C571 1.429 . S
C580 N577 1.350 . S
C580 C579 1.434 . S
C581 C582 1.369 . S
C581 C583 1.419 . S
C581 H585 0.930 . S
C582 C581 1.369 . S
C582 C591 1.429 . S
C583 C581 1.419 . S
C583 C584 1.363 . S
C583 H586 0.929 . S
C584 C583 1.363 . S
C584 C590 1.428 . S
H585 C581 0.930 . S
H586 C583 0.929 . S
S587 N588 1.613 . S
S587 N589 1.610 . S
N588 S587 1.613 . S
N588 C591 1.350 . S
N589 S587 1.610 . S
N589 C590 1.351 . S
C590 C584 1.428 . S
C590 N589 1.351 . S
C590 C591 1.434 . S
C591 C582 1.429 . S
C591 N588 1.350 . S
C591 C590 1.434 . S
C592 C593 1.369 . S
C592 C594 1.419 . S
C592 H596 0.930 . S
C593 C592 1.369 . S
C593 C602 1.429 . S
C594 C592 1.419 . S
C594 C595 1.363 . S
C594 H597 0.929 . S
C595 C594 1.363 . S
C595 C601 1.428 . S
H596 C592 0.930 . S
H597 C594 0.929 . S
S598 N599 1.613 . S
S598 N600 1.610 . S
N599 S598 1.613 . S
N599 C602 1.350 . S
N600 S598 1.610 . S
N600 C601 1.351 . S
C601 C595 1.428 . S
C601 N600 1.351 . S
C601 C602 1.434 . S
C602 C593 1.429 . S
C602 N599 1.350 . S
C602 C601 1.434 . S
C603 C604 1.369 . S
C603 C605 1.419 . S
C603 H607 0.930 . S
C604 C603 1.369 . S
C604 C613 1.429 . S
C605 C603 1.419 . S
C605 C606 1.363 . S
C605 H608 0.929 . S
C606 C605 1.363 . S
C606 C612 1.428 . S
H607 C603 0.930 . S
H608 C605 0.929 . S
S609 N610 1.613 . S
S609 N611 1.610 . S
N610 S609 1.613 . S
N610 C613 1.350 . S
N611 S609 1.610 . S
N611 C612 1.351 . S
C612 C606 1.428 . S
C612 N611 1.351 . S
C612 C613 1.434 . S
C613 C604 1.429 . S
C613 N610 1.350 . S
C613 C612 1.434 . S
C614 C615 1.369 . S
C614 C616 1.419 . S
C614 H618 0.930 . S
C615 C614 1.369 . S
C615 C624 1.429 . S
C616 C614 1.419 . S
C616 C617 1.363 . S
C616 H619 0.929 . S
C617 C616 1.363 . S
C617 C623 1.428 . S
H618 C614 0.930 . S
H619 C616 0.929 . S
S620 N621 1.613 . S
S620 N622 1.610 . S
N621 S620 1.613 . S
N621 C624 1.350 . S
N622 S620 1.610 . S
N622 C623 1.351 . S
C623 C617 1.428 . S
C623 N622 1.351 . S
C623 C624 1.434 . S
C624 C615 1.429 . S
C624 N621 1.350 . S
C624 C623 1.434 . S
C625 C626 1.369 . S
C625 C627 1.419 . S
C625 H629 0.930 . S
C626 C625 1.369 . S
C626 C635 1.429 . S
C627 C625 1.419 . S
C627 C628 1.363 . S
C627 H630 0.929 . S
C628 C627 1.363 . S
C628 C634 1.428 . S
H629 C625 0.930 . S
H630 C627 0.929 . S
S631 N632 1.613 . S
S631 N633 1.610 . S
N632 S631 1.613 . S
N632 C635 1.350 . S
N633 S631 1.610 . S
N633 C634 1.351 . S
C634 C628 1.428 . S
C634 N633 1.351 . S
C634 C635 1.434 . S
C635 C626 1.429 . S
C635 N632 1.350 . S
C635 C634 1.434 . S
C636 C637 1.369 . S
C636 C638 1.419 . S
C636 H640 0.930 . S
C637 C636 1.369 . S
C637 C646 1.429 . S
C638 C636 1.419 . S
C638 C639 1.363 . S
C638 H641 0.929 . S
C639 C638 1.363 . S
C639 C645 1.428 . S
H640 C636 0.930 . S
H641 C638 0.929 . S
S642 N643 1.613 . S
S642 N644 1.610 . S
N643 S642 1.613 . S
N643 C646 1.350 . S
N644 S642 1.610 . S
N644 C645 1.351 . S
C645 C639 1.428 . S
C645 N644 1.351 . S
C645 C646 1.434 . S
C646 C637 1.429 . S
C646 N643 1.350 . S
C646 C645 1.434 . S
C647 C648 1.369 . S
C647 C649 1.419 . S
C647 H651 0.930 . S
C648 C647 1.369 . S
C648 C657 1.429 . S
C649 C647 1.419 . S
C649 C650 1.363 . S
C649 H652 0.929 . S
C650 C649 1.363 . S
C650 C656 1.428 . S
H651 C647 0.930 . S
H652 C649 0.929 . S
S653 N654 1.613 . S
S653 N655 1.610 . S
N654 S653 1.613 . S
N654 C657 1.350 . S
N655 S653 1.610 . S
N655 C656 1.351 . S
C656 C650 1.428 . S
C656 N655 1.351 . S
C656 C657 1.434 . S
C657 C648 1.429 . S
C657 N654 1.350 . S
C657 C656 1.434 . S
C658 C659 1.369 . S
C658 C660 1.419 . S
C658 H662 0.930 . S
C659 C658 1.369 . S
C659 C668 1.429 . S
C660 C658 1.419 . S
C660 C661 1.363 . S
C660 H663 0.929 . S
C661 C660 1.363 . S
C661 C667 1.428 . S
H662 C658 0.930 . S
H663 C660 0.929 . S
S664 N665 1.613 . S
S664 N666 1.610 . S
N665 S664 1.613 . S
N665 C668 1.350 . S
N666 S664 1.610 . S
N666 C667 1.351 . S
C667 C661 1.428 . S
C667 N666 1.351 . S
C667 C668 1.434 . S
C668 C659 1.429 . S
C668 N665 1.350 . S
C668 C667 1.434 . S
C669 C670 1.369 . S
C669 C671 1.419 . S
C669 H673 0.930 . S
C670 C669 1.369 . S
C670 C679 1.429 . S
C671 C669 1.419 . S
C671 C672 1.363 . S
C671 H674 0.929 . S
C672 C671 1.363 . S
C672 C678 1.428 . S
H673 C669 0.930 . S
H674 C671 0.929 . S
S675 N676 1.613 . S
S675 N677 1.610 . S
N676 S675 1.613 . S
N676 C679 1.350 . S
N677 S675 1.610 . S
N677 C678 1.351 . S
C678 C672 1.428 . S
C678 N677 1.351 . S
C678 C679 1.434 . S
C679 C670 1.429 . S
C679 N676 1.350 . S
C679 C678 1.434 . S
C680 C681 1.369 . S
C680 C682 1.419 . S
C680 H684 0.930 . S
C681 C680 1.369 . S
C681 C690 1.429 . S
C682 C680 1.419 . S
C682 C683 1.363 . S
C682 H685 0.929 . S
C683 C682 1.363 . S
C683 C689 1.428 . S
H684 C680 0.930 . S
H685 C682 0.929 . S
S686 N687 1.613 . S
S686 N688 1.610 . S
N687 S686 1.613 . S
N687 C690 1.350 . S
N688 S686 1.610 . S
N688 C689 1.351 . S
C689 C683 1.428 . S
C689 N688 1.351 . S
C689 C690 1.434 . S
C690 C681 1.429 . S
C690 N687 1.350 . S
C690 C689 1.434 . S
C691 C692 1.369 . S
C691 C693 1.419 . S
C691 H695 0.930 . S
C692 C691 1.369 . S
C692 C701 1.429 . S
C693 C691 1.419 . S
C693 C694 1.363 . S
C693 H696 0.929 . S
C694 C693 1.363 . S
C694 C700 1.428 . S
H695 C691 0.930 . S
H696 C693 0.929 . S
S697 N698 1.613 . S
S697 N699 1.610 . S
N698 S697 1.613 . S
N698 C701 1.350 . S
N699 S697 1.610 . S
N699 C700 1.351 . S
C700 C694 1.428 . S
C700 N699 1.351 . S
C700 C701 1.434 . S
C701 C692 1.429 . S
C701 N698 1.350 . S
C701 C700 1.434 . S
C702 C703 1.369 . S
C702 C704 1.419 1_566 S
C702 H706 0.930 . S
C703 C702 1.369 . S
C703 C712 1.429 . S
C704 C702 1.419 1_544 S
C704 C705 1.363 . S
C704 H707 0.929 . S
C705 C704 1.363 . S
C705 C711 1.428 . S
H706 C702 0.930 . S
H707 C704 0.929 . S
S708 N709 1.613 1_554 S
S708 N710 1.610 1_565 S
N709 S708 1.613 1_556 S
N709 C712 1.350 . S
N710 S708 1.610 1_545 S
N710 C711 1.351 . S
C711 C705 1.428 . S
C711 N710 1.351 . S
C711 C712 1.434 1_544 S
C712 C703 1.429 . S
C712 N709 1.350 . S
C712 C711 1.434 1_566 S
C713 C714 1.369 1_556 S
C713 C715 1.419 . S
C713 H717 0.930 . S
C714 C713 1.369 1_554 S
C714 C723 1.429 1_655 S
C715 C713 1.419 . S
C715 C716 1.363 1_655 S
C715 H718 0.929 . S
C716 C715 1.363 1_455 S
C716 C722 1.428 1_556 S
H717 C713 0.930 . S
H718 C715 0.929 . S
S719 N720 1.613 . S
S719 N721 1.610 . S
N720 S719 1.613 . S
N720 C723 1.350 . S
N721 S719 1.610 . S
N721 C722 1.351 . S
C722 C716 1.428 1_554 S
C722 N721 1.351 . S
C722 C723 1.434 . S
C723 C714 1.429 1_455 S
C723 N720 1.350 . S
C723 C722 1.434 . S
C724 C725 1.369 . S
C724 C726 1.419 . S
C724 H728 0.930 . S
C725 C724 1.369 . S
C725 C734 1.429 1_556 S
C726 C724 1.419 . S
C726 C727 1.363 1_556 S
C726 H729 0.929 . S
C727 C726 1.363 1_554 S
C727 C733 1.428 . S
H728 C724 0.930 . S
H729 C726 0.929 . S
S730 N731 1.613 . S
S730 N732 1.610 . S
N731 S730 1.613 . S
N731 C734 1.350 . S
N732 S730 1.610 . S
N732 C733 1.351 . S
C733 C727 1.428 . S
C733 N732 1.351 . S
C733 C734 1.434 . S
C734 C725 1.429 1_554 S
C734 N731 1.350 . S
C734 C733 1.434 . S
C735 C736 1.369 . S
C735 C737 1.419 1_566 S
C735 H739 0.930 . S
C736 C735 1.369 . S
C736 C745 1.429 . S
C737 C735 1.419 1_544 S
C737 C738 1.363 . S
C737 H740 0.929 . S
C738 C737 1.363 . S
C738 C744 1.428 . S
H739 C735 0.930 . S
H740 C737 0.929 . S
S741 N742 1.613 1_545 S
S741 N743 1.610 1_556 S
N742 S741 1.613 1_565 S
N742 C745 1.350 . S
N743 S741 1.610 1_554 S
N743 C744 1.351 . S
C744 C738 1.428 . S
C744 N743 1.351 . S
C744 C745 1.434 1_544 S
C745 C736 1.429 . S
C745 N742 1.350 . S
C745 C744 1.434 1_566 S
C746 C747 1.369 . S
C746 C748 1.419 1_556 S
C746 H750 0.930 . S
C747 C746 1.369 . S
C747 C756 1.429 1_455 S
C748 C746 1.419 1_554 S
C748 C749 1.363 1_455 S
C748 H751 0.929 . S
C749 C748 1.363 1_655 S
C749 C755 1.428 . S
H750 C746 0.930 . S
H751 C748 0.929 . S
S752 N753 1.613 . S
S752 N754 1.610 1_556 S
N753 S752 1.613 . S
N753 C756 1.350 . S
N754 S752 1.610 1_554 S
N754 C755 1.351 . S
C755 C749 1.428 . S
C755 N754 1.351 . S
C755 C756 1.434 1_554 S
C756 C747 1.429 1_655 S
C756 N753 1.350 . S
C756 C755 1.434 1_556 S
C757 C758 1.369 . S
C757 C759 1.419 1_554 S
C757 H761 0.930 . S
C758 C757 1.369 . S
C758 C767 1.429 . S
C759 C757 1.419 1_556 S
C759 C760 1.363 . S
C759 H762 0.929 . S
C760 C759 1.363 . S
C760 C766 1.428 . S
H761 C757 0.930 . S
H762 C759 0.929 . S
S763 N764 1.613 . S
S763 N765 1.610 1_554 S
N764 S763 1.613 . S
N764 C767 1.350 . S
N765 S763 1.610 1_556 S
N765 C766 1.351 . S
C766 C760 1.428 . S
C766 N765 1.351 . S
C766 C767 1.434 1_556 S
C767 C758 1.429 . S
C767 N764 1.350 . S
C767 C766 1.434 1_554 S
C768 C769 1.369 . S
C768 C770 1.419 . S
C768 H772 0.930 . S
C769 C768 1.369 . S
C769 C778 1.429 . S
C770 C768 1.419 . S
C770 C771 1.363 . S
C770 H773 0.929 . S
C771 C770 1.363 . S
C771 C777 1.428 . S
H772 C768 0.930 . S
H773 C770 0.929 . S
S774 N775 1.613 . S
S774 N776 1.610 . S
N775 S774 1.613 . S
N775 C778 1.350 . S
N776 S774 1.610 . S
N776 C777 1.351 . S
C777 C771 1.428 . S
C777 N776 1.351 . S
C777 C778 1.434 . S
C778 C769 1.429 . S
C778 N775 1.350 . S
C778 C777 1.434 . S
C779 C780 1.369 . S
C779 C781 1.419 . S
C779 H783 0.930 . S
C780 C779 1.369 . S
C780 C789 1.429 . S
C781 C779 1.419 . S
C781 C782 1.363 . S
C781 H784 0.929 . S
C782 C781 1.363 . S
C782 C788 1.428 . S
H783 C779 0.930 . S
H784 C781 0.929 . S
S785 N786 1.613 . S
S785 N787 1.610 . S
N786 S785 1.613 . S
N786 C789 1.350 . S
N787 S785 1.610 . S
N787 C788 1.351 . S
C788 C782 1.428 . S
C788 N787 1.351 . S
C788 C789 1.434 . S
C789 C780 1.429 . S
C789 N786 1.350 . S
C789 C788 1.434 . S
C790 C791 1.369 . S
C790 C792 1.419 . S
C790 H794 0.930 . S
C791 C790 1.369 . S
C791 C800 1.429 . S
C792 C790 1.419 . S
C792 C793 1.363 . S
C792 H795 0.929 . S
C793 C792 1.363 . S
C793 C799 1.428 . S
H794 C790 0.930 . S
H795 C792 0.929 . S
S796 N797 1.613 . S
S796 N798 1.610 . S
N797 S796 1.613 . S
N797 C800 1.350 . S
N798 S796 1.610 . S
N798 C799 1.351 . S
C799 C793 1.428 . S
C799 N798 1.351 . S
C799 C800 1.434 . S
C800 C791 1.429 . S
C800 N797 1.350 . S
C800 C799 1.434 . S
C801 C802 1.369 . S
C801 C803 1.419 . S
C801 H805 0.930 . S
C802 C801 1.369 . S
C802 C811 1.429 . S
C803 C801 1.419 . S
C803 C804 1.363 . S
C803 H806 0.929 . S
C804 C803 1.363 . S
C804 C810 1.428 . S
H805 C801 0.930 . S
H806 C803 0.929 . S
S807 N808 1.613 . S
S807 N809 1.610 . S
N808 S807 1.613 . S
N808 C811 1.350 . S
N809 S807 1.610 . S
N809 C810 1.351 . S
C810 C804 1.428 . S
C810 N809 1.351 . S
C810 C811 1.434 . S
C811 C802 1.429 . S
C811 N808 1.350 . S
C811 C810 1.434 . S
C812 C813 1.369 . S
C812 C814 1.419 . S
C812 H816 0.930 . S
C813 C812 1.369 . S
C813 C822 1.429 . S
C814 C812 1.419 . S
C814 C815 1.363 . S
C814 H817 0.929 . S
C815 C814 1.363 . S
C815 C821 1.428 . S
H816 C812 0.930 . S
H817 C814 0.929 . S
S818 N819 1.613 . S
S818 N820 1.610 . S
N819 S818 1.613 . S
N819 C822 1.350 . S
N820 S818 1.610 . S
N820 C821 1.351 . S
C821 C815 1.428 . S
C821 N820 1.351 . S
C821 C822 1.434 . S
C822 C813 1.429 . S
C822 N819 1.350 . S
C822 C821 1.434 . S
C823 C824 1.369 . S
C823 C825 1.419 . S
C823 H827 0.930 . S
C824 C823 1.369 . S
C824 C833 1.429 . S
C825 C823 1.419 . S
C825 C826 1.363 . S
C825 H828 0.929 . S
C826 C825 1.363 . S
C826 C832 1.428 . S
H827 C823 0.930 . S
H828 C825 0.929 . S
S829 N830 1.613 . S
S829 N831 1.610 . S
N830 S829 1.613 . S
N830 C833 1.350 . S
N831 S829 1.610 . S
N831 C832 1.351 . S
C832 C826 1.428 . S
C832 N831 1.351 . S
C832 C833 1.434 . S
C833 C824 1.429 . S
C833 N830 1.350 . S
C833 C832 1.434 . S
C834 C835 1.369 . S
C834 C836 1.419 . S
C834 H838 0.930 . S
C835 C834 1.369 . S
C835 C844 1.429 . S
C836 C834 1.419 . S
C836 C837 1.363 . S
C836 H839 0.929 . S
C837 C836 1.363 . S
C837 C843 1.428 . S
H838 C834 0.930 . S
H839 C836 0.929 . S
S840 N841 1.613 . S
S840 N842 1.610 . S
N841 S840 1.613 . S
N841 C844 1.350 . S
N842 S840 1.610 . S
N842 C843 1.351 . S
C843 C837 1.428 . S
C843 N842 1.351 . S
C843 C844 1.434 . S
C844 C835 1.429 . S
C844 N841 1.350 . S
C844 C843 1.434 . S
C845 C846 1.369 . S
C845 C847 1.419 . S
C845 H849 0.930 . S
C846 C845 1.369 . S
C846 C855 1.429 . S
C847 C845 1.419 . S
C847 C848 1.363 . S
C847 H850 0.929 . S
C848 C847 1.363 . S
C848 C854 1.428 . S
H849 C845 0.930 . S
H850 C847 0.929 . S
S851 N852 1.613 . S
S851 N853 1.610 . S
N852 S851 1.613 . S
N852 C855 1.350 . S
N853 S851 1.610 . S
N853 C854 1.351 . S
C854 C848 1.428 . S
C854 N853 1.351 . S
C854 C855 1.434 . S
C855 C846 1.429 . S
C855 N852 1.350 . S
C855 C854 1.434 . S
C856 C857 1.369 . S
C856 C858 1.419 . S
C856 H860 0.930 . S
C857 C856 1.369 . S
C857 C866 1.429 . S
C858 C856 1.419 . S
C858 C859 1.363 . S
C858 H861 0.929 . S
C859 C858 1.363 . S
C859 C865 1.428 . S
H860 C856 0.930 . S
H861 C858 0.929 . S
S862 N863 1.613 . S
S862 N864 1.610 . S
N863 S862 1.613 . S
N863 C866 1.350 . S
N864 S862 1.610 . S
N864 C865 1.351 . S
C865 C859 1.428 . S
C865 N864 1.351 . S
C865 C866 1.434 . S
C866 C857 1.429 . S
C866 N863 1.350 . S
C866 C865 1.434 . S
C867 C868 1.369 . S
C867 C869 1.419 . S
C867 H871 0.930 . S
C868 C867 1.369 . S
C868 C877 1.429 . S
C869 C867 1.419 . S
C869 C870 1.363 . S
C869 H872 0.929 . S
C870 C869 1.363 . S
C870 C876 1.428 . S
H871 C867 0.930 . S
H872 C869 0.929 . S
S873 N874 1.613 . S
S873 N875 1.610 . S
N874 S873 1.613 . S
N874 C877 1.350 . S
N875 S873 1.610 . S
N875 C876 1.351 . S
C876 C870 1.428 . S
C876 N875 1.351 . S
C876 C877 1.434 . S
C877 C868 1.429 . S
C877 N874 1.350 . S
C877 C876 1.434 . S
C878 C879 1.369 . S
C878 C880 1.419 . S
C878 H882 0.930 . S
C879 C878 1.369 . S
C879 C888 1.429 . S
C880 C878 1.419 . S
C880 C881 1.363 . S
C880 H883 0.929 . S
C881 C880 1.363 . S
C881 C887 1.428 . S
H882 C878 0.930 . S
H883 C880 0.929 . S
S884 N885 1.613 . S
S884 N886 1.610 . S
N885 S884 1.613 . S
N885 C888 1.350 . S
N886 S884 1.610 . S
N886 C887 1.351 . S
C887 C881 1.428 . S
C887 N886 1.351 . S
C887 C888 1.434 . S
C888 C879 1.429 . S
C888 N885 1.350 . S
C888 C887 1.434 . S
C889 C890 1.369 . S
C889 C891 1.419 . S
C889 H893 0.930 . S
C890 C889 1.369 . S
C890 C899 1.429 . S
C891 C889 1.419 . S
C891 C892 1.363 . S
C891 H894 0.929 . S
C892 C891 1.363 . S
C892 C898 1.428 . S
H893 C889 0.930 . S
H894 C891 0.929 . S
S895 N896 1.613 . S
S895 N897 1.610 . S
N896 S895 1.613 . S
N896 C899 1.350 . S
N897 S895 1.610 . S
N897 C898 1.351 . S
C898 C892 1.428 . S
C898 N897 1.351 . S
C898 C899 1.434 . S
C899 C890 1.429 . S
C899 N896 1.350 . S
C899 C898 1.434 . S
C900 C901 1.369 . S
C900 C902 1.419 . S
C900 H904 0.930 . S
C901 C900 1.369 . S
C901 C910 1.429 . S
C902 C900 1.419 . S
C902 C903 1.363 . S
C902 H905 0.929 . S
C903 C902 1.363 . S
C903 C909 1.428 . S
H904 C900 0.930 . S
H905 C902 0.929 . S
S906 N907 1.613 . S
S906 N908 1.610 . S
N907 S906 1.613 . S
N907 C910 1.350 . S
N908 S906 1.610 . S
N908 C909 1.351 . S
C909 C903 1.428 . S
C909 N908 1.351 . S
C909 C910 1.434 . S
C910 C901 1.429 . S
C910 N907 1.350 . S
C910 C909 1.434 . S
C911 C912 1.369 . S
C911 C913 1.419 . S
C911 H915 0.930 . S
C912 C911 1.369 . S
C912 C921 1.429 . S
C913 C911 1.419 . S
C913 C914 1.363 . S
C913 H916 0.929 . S
C914 C913 1.363 . S
C914 C920 1.428 . S
H915 C911 0.930 . S
H916 C913 0.929 . S
S917 N918 1.613 . S
S917 N919 1.610 . S
N918 S917 1.613 . S
N918 C921 1.350 . S
N919 S917 1.610 . S
N919 C920 1.351 . S
C920 C914 1.428 . S
C920 N919 1.351 . S
C920 C921 1.434 . S
C921 C912 1.429 . S
C921 N918 1.350 . S
C921 C920 1.434 . S
C922 C923 1.369 . S
C922 C924 1.419 . S
C922 H926 0.930 . S
C923 C922 1.369 . S
C923 C932 1.429 . S
C924 C922 1.419 . S
C924 C925 1.363 . S
C924 H927 0.929 . S
C925 C924 1.363 . S
C925 C931 1.428 . S
H926 C922 0.930 . S
H927 C924 0.929 . S
S928 N929 1.613 . S
S928 N930 1.610 . S
N929 S928 1.613 . S
N929 C932 1.350 . S
N930 S928 1.610 . S
N930 C931 1.351 . S
C931 C925 1.428 . S
C931 N930 1.351 . S
C931 C932 1.434 . S
C932 C923 1.429 . S
C932 N929 1.350 . S
C932 C931 1.434 . S
C933 C934 1.369 . S
C933 C935 1.419 . S
C933 H937 0.930 . S
C934 C933 1.369 . S
C934 C943 1.429 . S
C935 C933 1.419 . S
C935 C936 1.363 . S
C935 H938 0.929 . S
C936 C935 1.363 . S
C936 C942 1.428 . S
H937 C933 0.930 . S
H938 C935 0.929 . S
S939 N940 1.613 . S
S939 N941 1.610 . S
N940 S939 1.613 . S
N940 C943 1.350 . S
N941 S939 1.610 . S
N941 C942 1.351 . S
C942 C936 1.428 . S
C942 N941 1.351 . S
C942 C943 1.434 . S
C943 C934 1.429 . S
C943 N940 1.350 . S
C943 C942 1.434 . S
C944 C945 1.369 . S
C944 C946 1.419 . S
C944 H948 0.930 . S
C945 C944 1.369 . S
C945 C954 1.429 . S
C946 C944 1.419 . S
C946 C947 1.363 . S
C946 H949 0.929 . S
C947 C946 1.363 . S
C947 C953 1.428 . S
H948 C944 0.930 . S
H949 C946 0.929 . S
S950 N951 1.614 1_554 S
S950 N952 1.611 1_554 S
N951 S950 1.614 1_556 S
N951 C954 1.350 . S
N952 S950 1.611 1_556 S
N952 C953 1.351 . S
C953 C947 1.428 . S
C953 N952 1.351 . S
C953 C954 1.434 . S
C954 C945 1.429 . S
C954 N951 1.350 . S
C954 C953 1.434 . S
C955 C956 1.369 . S
C955 C957 1.419 . S
C955 H959 0.930 . S
C956 C955 1.369 . S
C956 C965 1.429 . S
C957 C955 1.419 . S
C957 C958 1.363 . S
C957 H960 0.929 . S
C958 C957 1.363 . S
C958 C964 1.428 . S
H959 C955 0.930 . S
H960 C957 0.929 . S
S961 N962 1.613 . S
S961 N963 1.610 . S
N962 S961 1.613 . S
N962 C965 1.350 . S
N963 S961 1.610 . S
N963 C964 1.351 . S
C964 C958 1.428 . S
C964 N963 1.351 . S
C964 C965 1.434 . S
C965 C956 1.429 . S
C965 N962 1.350 . S
C965 C964 1.434 . S
C966 C967 1.369 . S
C966 C968 1.419 . S
C966 H970 0.930 . S
C967 C966 1.369 . S
C967 C976 1.429 . S
C968 C966 1.419 . S
C968 C969 1.363 . S
C968 H971 0.929 . S
C969 C968 1.363 . S
C969 C975 1.428 . S
H970 C966 0.930 . S
H971 C968 0.929 . S
S972 N973 1.613 . S
S972 N974 1.610 . S
N973 S972 1.613 . S
N973 C976 1.350 . S
N974 S972 1.610 . S
N974 C975 1.351 . S
C975 C969 1.428 . S
C975 N974 1.351 . S
C975 C976 1.434 . S
C976 C967 1.429 . S
C976 N973 1.350 . S
C976 C975 1.434 . S
C977 C978 1.369 . S
C977 C979 1.419 . S
C977 H981 0.930 . S
C978 C977 1.369 . S
C978 C987 1.429 . S
C979 C977 1.419 . S
C979 C980 1.363 . S
C979 H982 0.929 . S
C980 C979 1.363 . S
C980 C986 1.428 . S
H981 C977 0.930 . S
H982 C979 0.929 . S
S983 N984 1.613 . S
S983 N985 1.610 . S
N984 S983 1.613 . S
N984 C987 1.350 . S
N985 S983 1.610 . S
N985 C986 1.351 . S
C986 C980 1.428 . S
C986 N985 1.351 . S
C986 C987 1.434 . S
C987 C978 1.429 . S
C987 N984 1.350 . S
C987 C986 1.434 . S
C988 C989 1.369 . S
C988 C990 1.419 . S
C988 H992 0.930 . S
C989 C988 1.369 . S
C989 C998 1.429 . S
C990 C988 1.419 . S
C990 C991 1.363 . S
C990 H993 0.929 . S
C991 C990 1.363 . S
C991 C997 1.428 . S
H992 C988 0.930 . S
H993 C990 0.929 . S
S994 N995 1.613 . S
S994 N996 1.610 . S
N995 S994 1.613 . S
N995 C998 1.350 . S
N996 S994 1.610 . S
N996 C997 1.351 . S
C997 C991 1.428 . S
C997 N996 1.351 . S
C997 C998 1.434 . S
C998 C989 1.429 . S
C998 N995 1.350 . S
C998 C997 1.434 . S
C999 C1000 1.369 . S
C999 C1001 1.419 . S
C999 H1003 0.930 . S
C1000 C999 1.369 . S
C1000 C1009 1.429 . S
C1001 C999 1.419 . S
C1001 C1002 1.363 . S
C1001 H1004 0.929 . S
C1002 C1001 1.363 . S
C1002 C1008 1.428 . S
H1003 C999 0.930 . S
H1004 C1001 0.929 . S
S1005 N1006 1.613 . S
S1005 N1007 1.610 . S
N1006 S1005 1.613 . S
N1006 C1009 1.350 . S
N1007 S1005 1.610 . S
N1007 C1008 1.351 . S
C1008 C1002 1.428 . S
C1008 N1007 1.351 . S
C1008 C1009 1.434 . S
C1009 C1000 1.429 . S
C1009 N1006 1.350 . S
C1009 C1008 1.434 . S
C1010 C1011 1.369 . S
C1010 C1012 1.419 . S
C1010 H1014 0.930 . S
C1011 C1010 1.369 . S
C1011 C1020 1.429 . S
C1012 C1010 1.419 . S
C1012 C1013 1.363 . S
C1012 H1015 0.929 . S
C1013 C1012 1.363 . S
C1013 C1019 1.428 . S
H1014 C1010 0.930 . S
H1015 C1012 0.929 . S
S1016 N1017 1.613 . S
S1016 N1018 1.610 . S
N1017 S1016 1.613 . S
N1017 C1020 1.350 . S
N1018 S1016 1.610 . S
N1018 C1019 1.351 . S
C1019 C1013 1.428 . S
C1019 N1018 1.351 . S
C1019 C1020 1.434 . S
C1020 C1011 1.429 . S
C1020 N1017 1.350 . S
C1020 C1019 1.434 . S
C1021 C1022 1.369 . S
C1021 C1023 1.419 . S
C1021 H1025 0.930 . S
C1022 C1021 1.369 . S
C1022 C1031 1.429 . S
C1023 C1021 1.419 . S
C1023 C1024 1.363 . S
C1023 H1026 0.929 . S
C1024 C1023 1.363 . S
C1024 C1030 1.428 . S
H1025 C1021 0.930 . S
H1026 C1023 0.929 . S
S1027 N1028 1.613 . S
S1027 N1029 1.610 . S
N1028 S1027 1.613 . S
N1028 C1031 1.350 . S
N1029 S1027 1.610 . S
N1029 C1030 1.351 . S
C1030 C1024 1.428 . S
C1030 N1029 1.351 . S
C1030 C1031 1.434 . S
C1031 C1022 1.429 . S
C1031 N1028 1.350 . S
C1031 C1030 1.434 . S
C1032 C1033 1.369 . S
C1032 C1034 1.419 1_455 S
C1032 H1036 0.930 . S
C1033 C1032 1.369 . S
C1033 C1042 1.429 . S
C1034 C1032 1.419 1_655 S
C1034 C1035 1.363 . S
C1034 H1037 0.929 . S
C1035 C1034 1.363 . S
C1035 C1041 1.428 . S
H1036 C1032 0.930 . S
H1037 C1034 0.929 . S
S1038 N1039 1.613 . S
S1038 N1040 1.610 1_455 S
N1039 S1038 1.613 . S
N1039 C1042 1.350 . S
N1040 S1038 1.610 1_655 S
N1040 C1041 1.351 . S
C1041 C1035 1.428 . S
C1041 N1040 1.351 . S
C1041 C1042 1.434 1_655 S
C1042 C1033 1.429 . S
C1042 N1039 1.350 . S
C1042 C1041 1.434 1_455 S
C1043 C1044 1.369 . S
C1043 C1045 1.419 . S
C1043 H1047 0.930 . S
C1044 C1043 1.369 . S
C1044 C1053 1.429 . S
C1045 C1043 1.419 . S
C1045 C1046 1.363 . S
C1045 H1048 0.929 . S
C1046 C1045 1.363 . S
C1046 C1052 1.428 . S
H1047 C1043 0.930 . S
H1048 C1045 0.929 . S
S1049 N1050 1.613 . S
S1049 N1051 1.610 . S
N1050 S1049 1.613 . S
N1050 C1053 1.350 . S
N1051 S1049 1.610 . S
N1051 C1052 1.351 . S
C1052 C1046 1.428 . S
C1052 N1051 1.351 . S
C1052 C1053 1.434 . S
C1053 C1044 1.429 . S
C1053 N1050 1.350 . S
C1053 C1052 1.434 . S
C1054 C1055 1.369 . S
C1054 C1056 1.419 1_545 S
C1054 H1058 0.930 . S
C1055 C1054 1.369 . S
C1055 C1064 1.429 . S
C1056 C1054 1.419 1_565 S
C1056 C1057 1.363 . S
C1056 H1059 0.929 . S
C1057 C1056 1.363 . S
C1057 C1063 1.428 . S
H1058 C1054 0.930 . S
H1059 C1056 0.929 . S
S1060 N1061 1.613 . S
S1060 N1062 1.610 1_545 S
N1061 S1060 1.613 . S
N1061 C1064 1.350 . S
N1062 S1060 1.610 1_565 S
N1062 C1063 1.351 . S
C1063 C1057 1.428 . S
C1063 N1062 1.351 . S
C1063 C1064 1.434 1_565 S
C1064 C1055 1.429 . S
C1064 N1061 1.350 . S
C1064 C1063 1.434 1_545 S
C1065 C1066 1.369 . S
C1065 C1067 1.419 1_545 S
C1065 H1069 0.930 . S
C1066 C1065 1.369 . S
C1066 C1075 1.429 . S
C1067 C1065 1.419 1_565 S
C1067 C1068 1.363 . S
C1067 H1070 0.929 . S
C1068 C1067 1.363 . S
C1068 C1074 1.428 . S
H1069 C1065 0.930 . S
H1070 C1067 0.929 . S
S1071 N1072 1.613 . S
S1071 N1073 1.610 1_545 S
N1072 S1071 1.613 . S
N1072 C1075 1.350 . S
N1073 S1071 1.610 1_565 S
N1073 C1074 1.351 . S
C1074 C1068 1.428 . S
C1074 N1073 1.351 . S
C1074 C1075 1.434 1_565 S
C1075 C1066 1.429 . S
C1075 N1072 1.350 . S
C1075 C1074 1.434 1_545 S
C1076 C1077 1.369 . S
C1076 C1078 1.419 1_655 S
C1076 H1080 0.930 . S
C1077 C1076 1.369 . S
C1077 C1086 1.429 . S
C1078 C1076 1.419 1_455 S
C1078 C1079 1.363 . S
C1078 H1081 0.929 . S
C1079 C1078 1.363 . S
C1079 C1085 1.428 . S
H1080 C1076 0.930 . S
H1081 C1078 0.929 . S
S1082 N1083 1.613 1_455 S
S1082 N1084 1.610 . S
N1083 S1082 1.613 1_655 S
N1083 C1086 1.350 . S
N1084 S1082 1.610 . S
N1084 C1085 1.351 . S
C1085 C1079 1.428 . S
C1085 N1084 1.351 . S
C1085 C1086 1.434 1_455 S
C1086 C1077 1.429 . S
C1086 N1083 1.350 . S
C1086 C1085 1.434 1_655 S
C1087 C1088 1.369 . S
C1087 C1089 1.419 . S
C1087 H1091 0.930 . S
C1088 C1087 1.369 . S
C1088 C1097 1.429 . S
C1089 C1087 1.419 . S
C1089 C1090 1.363 . S
C1089 H1092 0.929 . S
C1090 C1089 1.363 . S
C1090 C1096 1.428 . S
H1091 C1087 0.930 . S
H1092 C1089 0.929 . S
S1093 N1094 1.613 . S
S1093 N1095 1.610 . S
N1094 S1093 1.613 . S
N1094 C1097 1.350 . S
N1095 S1093 1.610 . S
N1095 C1096 1.351 . S
C1096 C1090 1.428 . S
C1096 N1095 1.351 . S
C1096 C1097 1.434 . S
C1097 C1088 1.429 . S
C1097 N1094 1.350 . S
C1097 C1096 1.434 . S
C1098 C1099 1.369 . S
C1098 C1100 1.419 . S
C1098 H1102 0.930 . S
C1099 C1098 1.369 . S
C1099 C1108 1.429 . S
C1100 C1098 1.419 . S
C1100 C1101 1.363 . S
C1100 H1103 0.929 . S
C1101 C1100 1.363 . S
C1101 C1107 1.428 . S
H1102 C1098 0.930 . S
H1103 C1100 0.929 . S
S1104 N1105 1.613 . S
S1104 N1106 1.610 . S
N1105 S1104 1.613 . S
N1105 C1108 1.350 . S
N1106 S1104 1.610 . S
N1106 C1107 1.351 . S
C1107 C1101 1.428 . S
C1107 N1106 1.351 . S
C1107 C1108 1.434 . S
C1108 C1099 1.429 . S
C1108 N1105 1.350 . S
C1108 C1107 1.434 . S
C1109 C1110 1.369 . S
C1109 C1111 1.419 . S
C1109 H1113 0.930 . S
C1110 C1109 1.369 . S
C1110 C1119 1.429 . S
C1111 C1109 1.419 . S
C1111 C1112 1.363 . S
C1111 H1114 0.929 . S
C1112 C1111 1.363 . S
C1112 C1118 1.428 . S
H1113 C1109 0.930 . S
H1114 C1111 0.929 . S
S1115 N1116 1.613 . S
S1115 N1117 1.610 . S
N1116 S1115 1.613 . S
N1116 C1119 1.350 . S
N1117 S1115 1.610 . S
N1117 C1118 1.351 . S
C1118 C1112 1.428 . S
C1118 N1117 1.351 . S
C1118 C1119 1.434 . S
C1119 C1110 1.429 . S
C1119 N1116 1.350 . S
C1119 C1118 1.434 . S
C1120 C1121 1.369 . S
C1120 C1122 1.419 . S
C1120 H1124 0.930 . S
C1121 C1120 1.369 . S
C1121 C1130 1.429 . S
C1122 C1120 1.419 . S
C1122 C1123 1.363 . S
C1122 H1125 0.929 . S
C1123 C1122 1.363 . S
C1123 C1129 1.428 . S
H1124 C1120 0.930 . S
H1125 C1122 0.929 . S
S1126 N1127 1.613 . S
S1126 N1128 1.610 . S
N1127 S1126 1.613 . S
N1127 C1130 1.350 . S
N1128 S1126 1.610 . S
N1128 C1129 1.351 . S
C1129 C1123 1.428 . S
C1129 N1128 1.351 . S
C1129 C1130 1.434 . S
C1130 C1121 1.429 . S
C1130 N1127 1.350 . S
C1130 C1129 1.434 . S
C1131 C1132 1.369 . S
C1131 C1133 1.419 . S
C1131 H1135 0.930 . S
C1132 C1131 1.369 . S
C1132 C1141 1.429 . S
C1133 C1131 1.419 . S
C1133 C1134 1.363 . S
C1133 H1136 0.929 . S
C1134 C1133 1.363 . S
C1134 C1140 1.428 . S
H1135 C1131 0.930 . S
H1136 C1133 0.929 . S
S1137 N1138 1.613 . S
S1137 N1139 1.610 . S
N1138 S1137 1.613 . S
N1138 C1141 1.350 . S
N1139 S1137 1.610 . S
N1139 C1140 1.351 . S
C1140 C1134 1.428 . S
C1140 N1139 1.351 . S
C1140 C1141 1.434 . S
C1141 C1132 1.429 . S
C1141 N1138 1.350 . S
C1141 C1140 1.434 . S
C1142 C1143 1.369 . S
C1142 C1144 1.419 . S
C1142 H1146 0.930 . S
C1143 C1142 1.369 . S
C1143 C1152 1.429 . S
C1144 C1142 1.419 . S
C1144 C1145 1.363 . S
C1144 H1147 0.929 . S
C1145 C1144 1.363 . S
C1145 C1151 1.428 . S
H1146 C1142 0.930 . S
H1147 C1144 0.929 . S
S1148 N1149 1.613 . S
S1148 N1150 1.610 . S
N1149 S1148 1.613 . S
N1149 C1152 1.350 . S
N1150 S1148 1.610 . S
N1150 C1151 1.351 . S
C1151 C1145 1.428 . S
C1151 N1150 1.351 . S
C1151 C1152 1.434 . S
C1152 C1143 1.429 . S
C1152 N1149 1.350 . S
C1152 C1151 1.434 . S
C1153 C1154 1.369 . S
C1153 C1155 1.419 . S
C1153 H1157 0.930 . S
C1154 C1153 1.369 . S
C1154 C1163 1.429 . S
C1155 C1153 1.419 . S
C1155 C1156 1.363 . S
C1155 H1158 0.929 . S
C1156 C1155 1.363 . S
C1156 C1162 1.428 . S
H1157 C1153 0.930 . S
H1158 C1155 0.929 . S
S1159 N1160 1.613 . S
S1159 N1161 1.610 . S
N1160 S1159 1.613 . S
N1160 C1163 1.350 . S
N1161 S1159 1.610 . S
N1161 C1162 1.351 . S
C1162 C1156 1.428 . S
C1162 N1161 1.351 . S
C1162 C1163 1.434 . S
C1163 C1154 1.429 . S
C1163 N1160 1.350 . S
C1163 C1162 1.434 . S
C1164 C1165 1.369 . S
C1164 C1166 1.419 . S
C1164 H1168 0.930 . S
C1165 C1164 1.369 . S
C1165 C1174 1.429 . S
C1166 C1164 1.419 . S
C1166 C1167 1.363 . S
C1166 H1169 0.929 . S
C1167 C1166 1.363 . S
C1167 C1173 1.428 . S
H1168 C1164 0.930 . S
H1169 C1166 0.929 . S
S1170 N1171 1.613 . S
S1170 N1172 1.610 . S
N1171 S1170 1.613 . S
N1171 C1174 1.350 . S
N1172 S1170 1.610 . S
N1172 C1173 1.351 . S
C1173 C1167 1.428 . S
C1173 N1172 1.351 . S
C1173 C1174 1.434 . S
C1174 C1165 1.429 . S
C1174 N1171 1.350 . S
C1174 C1173 1.434 . S
C1175 C1176 1.369 . S
C1175 C1177 1.419 . S
C1175 H1179 0.930 . S
C1176 C1175 1.369 . S
C1176 C1185 1.429 . S
C1177 C1175 1.419 . S
C1177 C1178 1.363 . S
C1177 H1180 0.929 . S
C1178 C1177 1.363 . S
C1178 C1184 1.428 . S
H1179 C1175 0.930 . S
H1180 C1177 0.929 . S
S1181 N1182 1.613 . S
S1181 N1183 1.610 . S
N1182 S1181 1.613 . S
N1182 C1185 1.350 . S
N1183 S1181 1.610 . S
N1183 C1184 1.351 . S
C1184 C1178 1.428 . S
C1184 N1183 1.351 . S
C1184 C1185 1.434 . S
C1185 C1176 1.429 . S
C1185 N1182 1.350 . S
C1185 C1184 1.434 . S
C1186 C1187 1.369 . S
C1186 C1188 1.419 . S
C1186 H1190 0.930 . S
C1187 C1186 1.369 . S
C1187 C1196 1.429 . S
C1188 C1186 1.419 . S
C1188 C1189 1.363 . S
C1188 H1191 0.929 . S
C1189 C1188 1.363 . S
C1189 C1195 1.428 . S
H1190 C1186 0.930 . S
H1191 C1188 0.929 . S
S1192 N1193 1.613 . S
S1192 N1194 1.610 . S
N1193 S1192 1.613 . S
N1193 C1196 1.350 . S
N1194 S1192 1.610 . S
N1194 C1195 1.351 . S
C1195 C1189 1.428 . S
C1195 N1194 1.351 . S
C1195 C1196 1.434 . S
C1196 C1187 1.429 . S
C1196 N1193 1.350 . S
C1196 C1195 1.434 . S
C1197 C1198 1.369 . S
C1197 C1199 1.419 . S
C1197 H1201 0.930 . S
C1198 C1197 1.369 . S
C1198 C1207 1.429 . S
C1199 C1197 1.419 . S
C1199 C1200 1.363 . S
C1199 H1202 0.929 . S
C1200 C1199 1.363 . S
C1200 C1206 1.428 . S
H1201 C1197 0.930 . S
H1202 C1199 0.929 . S
S1203 N1204 1.613 . S
S1203 N1205 1.610 . S
N1204 S1203 1.613 . S
N1204 C1207 1.350 . S
N1205 S1203 1.610 . S
N1205 C1206 1.351 . S
C1206 C1200 1.428 . S
C1206 N1205 1.351 . S
C1206 C1207 1.434 . S
C1207 C1198 1.429 . S
C1207 N1204 1.350 . S
C1207 C1206 1.434 . S
C1208 C1209 1.369 . S
C1208 C1210 1.419 . S
C1208 H1212 0.930 1_554 S
C1209 C1208 1.369 . S
C1209 C1218 1.429 . S
C1210 C1208 1.419 . S
C1210 C1211 1.363 . S
C1210 H1213 0.929 1_554 S
C1211 C1210 1.363 . S
C1211 C1217 1.428 . S
H1212 C1208 0.930 1_556 S
H1213 C1210 0.929 1_556 S
S1214 N1215 1.613 . S
S1214 N1216 1.610 . S
N1215 S1214 1.613 . S
N1215 C1218 1.350 . S
N1216 S1214 1.610 . S
N1216 C1217 1.351 . S
C1217 C1211 1.428 . S
C1217 N1216 1.351 . S
C1217 C1218 1.434 . S
C1218 C1209 1.429 . S
C1218 N1215 1.350 . S
C1218 C1217 1.434 . S
C1219 C1220 1.369 . S
C1219 C1221 1.419 . S
C1219 H1223 0.930 . S
C1220 C1219 1.369 . S
C1220 C1229 1.429 . S
C1221 C1219 1.419 . S
C1221 C1222 1.363 . S
C1221 H1224 0.929 . S
C1222 C1221 1.363 . S
C1222 C1228 1.428 . S
H1223 C1219 0.930 . S
H1224 C1221 0.929 . S
S1225 N1226 1.613 . S
S1225 N1227 1.610 . S
N1226 S1225 1.613 . S
N1226 C1229 1.350 . S
N1227 S1225 1.610 . S
N1227 C1228 1.351 . S
C1228 C1222 1.428 . S
C1228 N1227 1.351 . S
C1228 C1229 1.434 . S
C1229 C1220 1.429 . S
C1229 N1226 1.350 . S
C1229 C1228 1.434 . S
C1230 C1231 1.369 . S
C1230 C1232 1.419 . S
C1230 H1234 0.930 . S
C1231 C1230 1.369 . S
C1231 C1240 1.429 . S
C1232 C1230 1.419 . S
C1232 C1233 1.363 . S
C1232 H1235 0.929 . S
C1233 C1232 1.363 . S
C1233 C1239 1.428 . S
H1234 C1230 0.930 . S
H1235 C1232 0.929 . S
S1236 N1237 1.613 . S
S1236 N1238 1.610 . S
N1237 S1236 1.613 . S
N1237 C1240 1.350 . S
N1238 S1236 1.610 . S
N1238 C1239 1.351 . S
C1239 C1233 1.428 . S
C1239 N1238 1.351 . S
C1239 C1240 1.434 . S
C1240 C1231 1.429 . S
C1240 N1237 1.350 . S
C1240 C1239 1.434 . S
C1241 C1242 1.369 . S
C1241 C1243 1.419 . S
C1241 H1245 0.930 . S
C1242 C1241 1.369 . S
C1242 C1251 1.429 . S
C1243 C1241 1.419 . S
C1243 C1244 1.363 . S
C1243 H1246 0.929 . S
C1244 C1243 1.363 . S
C1244 C1250 1.428 . S
H1245 C1241 0.930 . S
H1246 C1243 0.929 . S
S1247 N1248 1.613 . S
S1247 N1249 1.610 . S
N1248 S1247 1.613 . S
N1248 C1251 1.350 . S
N1249 S1247 1.610 . S
N1249 C1250 1.351 . S
C1250 C1244 1.428 . S
C1250 N1249 1.351 . S
C1250 C1251 1.434 . S
C1251 C1242 1.429 . S
C1251 N1248 1.350 . S
C1251 C1250 1.434 . S
C1252 C1253 1.369 . S
C1252 C1254 1.419 . S
C1252 H1256 0.930 1_556 S
C1253 C1252 1.369 . S
C1253 C1262 1.429 . S
C1254 C1252 1.419 . S
C1254 C1255 1.363 . S
C1254 H1257 0.929 1_556 S
C1255 C1254 1.363 . S
C1255 C1261 1.428 . S
H1256 C1252 0.930 1_554 S
H1257 C1254 0.929 1_554 S
S1258 N1259 1.613 . S
S1258 N1260 1.610 . S
N1259 S1258 1.613 . S
N1259 C1262 1.350 . S
N1260 S1258 1.610 . S
N1260 C1261 1.351 . S
C1261 C1255 1.428 . S
C1261 N1260 1.351 . S
C1261 C1262 1.434 . S
C1262 C1253 1.429 . S
C1262 N1259 1.350 . S
C1262 C1261 1.434 . S
C1263 C1264 1.369 . S
C1263 C1265 1.419 . S
C1263 H1267 0.930 . S
C1264 C1263 1.369 . S
C1264 C1273 1.429 . S
C1265 C1263 1.419 . S
C1265 C1266 1.363 . S
C1265 H1268 0.929 . S
C1266 C1265 1.363 . S
C1266 C1272 1.428 . S
H1267 C1263 0.930 . S
H1268 C1265 0.929 . S
S1269 N1270 1.613 . S
S1269 N1271 1.610 . S
N1270 S1269 1.613 . S
N1270 C1273 1.350 . S
N1271 S1269 1.610 . S
N1271 C1272 1.351 . S
C1272 C1266 1.428 . S
C1272 N1271 1.351 . S
C1272 C1273 1.434 . S
C1273 C1264 1.429 . S
C1273 N1270 1.350 . S
C1273 C1272 1.434 . S
C1274 C1275 1.369 . S
C1274 C1276 1.419 . S
C1274 H1278 0.930 . S
C1275 C1274 1.369 . S
C1275 C1284 1.429 . S
C1276 C1274 1.419 . S
C1276 C1277 1.363 . S
C1276 H1279 0.929 . S
C1277 C1276 1.363 . S
C1277 C1283 1.428 . S
H1278 C1274 0.930 . S
H1279 C1276 0.929 . S
S1280 N1281 1.613 . S
S1280 N1282 1.610 . S
N1281 S1280 1.613 . S
N1281 C1284 1.350 . S
N1282 S1280 1.610 . S
N1282 C1283 1.351 . S
C1283 C1277 1.428 . S
C1283 N1282 1.351 . S
C1283 C1284 1.434 . S
C1284 C1275 1.429 . S
C1284 N1281 1.350 . S
C1284 C1283 1.434 . S
C1285 C1286 1.369 . S
C1285 C1287 1.419 . S
C1285 H1289 0.930 . S
C1286 C1285 1.369 . S
C1286 C1295 1.429 . S
C1287 C1285 1.419 . S
C1287 C1288 1.363 . S
C1287 H1290 0.929 . S
C1288 C1287 1.363 . S
C1288 C1294 1.428 . S
H1289 C1285 0.930 . S
H1290 C1287 0.929 . S
S1291 N1292 1.613 . S
S1291 N1293 1.610 . S
N1292 S1291 1.613 . S
N1292 C1295 1.350 . S
N1293 S1291 1.610 . S
N1293 C1294 1.351 . S
C1294 C1288 1.428 . S
C1294 N1293 1.351 . S
C1294 C1295 1.434 . S
C1295 C1286 1.429 . S
C1295 N1292 1.350 . S
C1295 C1294 1.434 . S
C505 C81 1.574 . S
C507 C11 1.574 . S
C516 C53 1.575 . S
C518 C25 1.574 . S
C527 C39 1.575 . S
C529 C67 1.575 . S
C538 C95 1.574 . S
C540 C165 1.574 . S
C549 C109 1.575 . S
C551 C137 1.574 . S
C560 C151 1.574 . S
C562 C123 1.575 . S
C571 C179 1.575 . S
C573 C249 1.574 . S
C582 C193 1.574 . S
C584 C221 1.574 . S
C593 C207 1.574 . S
C595 C235 1.575 . S
C604 C333 1.575 . S
C606 C263 1.575 . S
C615 C277 1.575 . S
C617 C305 1.574 . S
C626 C319 1.575 . S
C628 C291 1.575 . S
C637 C417 1.574 . S
C639 C347 1.575 . S
C648 C389 1.574 . S
C650 C361 1.574 . S
C659 C403 1.574 . S
C661 C375 1.575 . S
C670 C431 1.574 . S
C672 C501 1.574 . S
C681 C445 1.574 . S
C683 C473 1.574 . S
C692 C459 1.575 . S
C694 C487 1.575 . S
C703 C83 1.182 . S
C705 C13 1.179 . S
C714 C27 1.187 . S
C716 C55 1.174 . S
C725 C69 1.171 . S
C727 C41 1.185 . S
C736 C97 1.184 . S
C738 C167 1.177 . S
C747 C111 1.181 . S
C749 C139 1.179 . S
C758 C153 1.179 . S
C760 C125 1.179 . S
C769 C181 1.177 . S
C771 C251 1.183 . S
C780 C223 1.172 . S
C782 C195 1.186 . S
C791 C237 1.186 . S
C793 C209 1.173 . S
C802 C265 1.188 . S
C804 C335 1.174 . S
C813 C279 1.173 . S
C815 C307 1.184 . S
C824 C321 1.182 . S
C826 C293 1.177 . S
C835 C419 1.188 . S
C837 C349 1.174 . S
C846 C363 1.172 . S
C848 C391 1.186 . S
C857 C377 1.175 . S
C859 C405 1.182 . S
C868 C503 1.184 . S
C870 C433 1.176 . S
C879 C475 1.188 . S
C881 C447 1.174 . S
C890 C489 1.173 . S
C892 C461 1.184 . S
C901 C232 1.503 . S
C903 C8 1.509 . S
C912 C246 1.502 . S
C914 C22 1.510 . S
C923 C218 1.511 . S
C925 C36 1.503 . S
C934 C50 1.511 . S
C936 C372 1.503 . S
C945 C64 1.503 . S
C947 C344 1.509 . S
C956 C78 1.511 . S
C958 C358 1.503 . S
C967 C92 1.502 . S
C969 C484 1.510 . S
C978 C106 1.507 . S
C980 C498 1.508 . S
C989 C120 1.502 . S
C991 C470 1.510 . S
C1000 C134 1.510 . S
C1002 C288 1.504 . S
C1011 C260 1.503 . S
C1013 C148 1.509 . S
C1022 C274 1.508 . S
C1024 C162 1.507 . S
C1033 C400 1.504 . S
C1035 C176 1.508 . S
C1044 C190 1.506 . S
C1046 C414 1.508 . S
C1055 C204 1.502 . S
C1057 C386 1.510 . S
C1066 C302 1.502 . S
C1068 C456 1.510 . S
C1077 C316 1.505 . S
C1079 C428 1.506 . S
C1088 C442 1.510 . S
C1090 C330 1.504 . S
C1099 C7 1.399 . S
C1101 C147 1.399 . S
C1110 C161 1.401 . S
C1112 C21 1.400 . S
C1121 C133 1.397 . S
C1123 C35 1.397 . S
C1132 C49 1.401 . S
C1134 C119 1.400 . S
C1143 C63 1.399 . S
C1145 C91 1.399 . S
C1154 C77 1.399 . S
C1156 C105 1.398 . S
C1165 C175 1.401 . S
C1167 C315 1.401 . S
C1176 C329 1.401 . S
C1178 C189 1.401 . S
C1187 C301 1.400 . S
C1189 C203 1.400 . S
C1198 C217 1.397 . S
C1200 C287 1.397 . S
C1209 C231 1.396 . S
C1211 C259 1.397 . S
C1220 C273 1.397 . S
C1222 C245 1.398 . S
C1231 C343 1.398 . S
C1233 C483 1.399 . S
C1242 C497 1.396 . S
C1244 C357 1.397 . S
C1253 C371 1.396 . S
C1255 C469 1.397 . S
C1264 C385 1.399 . S
C1266 C455 1.399 . S
C1275 C427 1.396 . S
C1277 C399 1.397 . S
C1286 C413 1.396 . S
C1288 C441 1.397 . S
