# Generated by pormake.
# Topology wgp, (5)-cn, num edge types: 1
# Building blocks:
#     Node 0, Type 0, BuildingBlock: BEQFEK_clean_sbu_0, # of connection points: 5
#     Node 1, Type 0, BuildingBlock: BEQFEK_clean_sbu_0, # of connection points: 5
#     Node 2, Type 0, BuildingBlock: BEQFEK_clean_sbu_0, # of connection points: 5
#     Node 3, Type 0, BuildingBlock: BEQFEK_clean_sbu_0, # of connection points: 5
#     Node 4, Type 0, BuildingBlock: BEQFEK_clean_sbu_0, # of connection points: 5
#     Node 5, Type 0, BuildingBlock: BEQFEK_clean_sbu_0, # of connection points: 5
#     Node 6, Type 0, BuildingBlock: BEQFEK_clean_sbu_0, # of connection points: 5
#     Node 7, Type 0, BuildingBlock: BEQFEK_clean_sbu_0, # of connection points: 5
#     Node 8, Type 0, BuildingBlock: BEQFEK_clean_sbu_0, # of connection points: 5
#     Node 9, Type 0, BuildingBlock: BEQFEK_clean_sbu_0, # of connection points: 5
#     Node 10, Type 0, BuildingBlock: BEQFEK_clean_sbu_0, # of connection points: 5
#     Node 11, Type 0, BuildingBlock: BEQFEK_clean_sbu_0, # of connection points: 5
#     Node 12, Type 0, BuildingBlock: BEQFEK_clean_sbu_0, # of connection points: 5
#     Node 13, Type 0, BuildingBlock: BEQFEK_clean_sbu_0, # of connection points: 5
#     Node 14, Type 0, BuildingBlock: BEQFEK_clean_sbu_0, # of connection points: 5
#     Node 15, Type 0, BuildingBlock: BEQFEK_clean_sbu_0, # of connection points: 5
#     Node 16, Type 0, BuildingBlock: BEQFEK_clean_sbu_0, # of connection points: 5
#     Node 17, Type 0, BuildingBlock: BEQFEK_clean_sbu_0, # of connection points: 5
#     Node 18, Type 0, BuildingBlock: BEQFEK_clean_sbu_0, # of connection points: 5
#     Node 19, Type 0, BuildingBlock: BEQFEK_clean_sbu_0, # of connection points: 5
#     Node 20, Type 0, BuildingBlock: BEQFEK_clean_sbu_0, # of connection points: 5
#     Node 21, Type 0, BuildingBlock: BEQFEK_clean_sbu_0, # of connection points: 5
#     Node 22, Type 0, BuildingBlock: BEQFEK_clean_sbu_0, # of connection points: 5
#     Node 23, Type 0, BuildingBlock: BEQFEK_clean_sbu_0, # of connection points: 5
#     Node 24, Type 0, BuildingBlock: BEQFEK_clean_sbu_0, # of connection points: 5
#     Node 25, Type 0, BuildingBlock: BEQFEK_clean_sbu_0, # of connection points: 5
#     Node 26, Type 0, BuildingBlock: BEQFEK_clean_sbu_0, # of connection points: 5
#     Node 27, Type 0, BuildingBlock: BEQFEK_clean_sbu_0, # of connection points: 5
#     Node 28, Type 0, BuildingBlock: BEQFEK_clean_sbu_0, # of connection points: 5
#     Node 29, Type 0, BuildingBlock: BEQFEK_clean_sbu_0, # of connection points: 5
#     Node 30, Type 0, BuildingBlock: BEQFEK_clean_sbu_0, # of connection points: 5
#     Node 31, Type 0, BuildingBlock: BEQFEK_clean_sbu_0, # of connection points: 5
#     Edge 32, Type (0, 0), BuildingBlock: AJUNOK_clean_linker_0, # of connection points: 2
#     Edge 33, Type (0, 0), BuildingBlock: AJUNOK_clean_linker_0, # of connection points: 2
#     Edge 34, Type (0, 0), BuildingBlock: AJUNOK_clean_linker_0, # of connection points: 2
#     Edge 35, Type (0, 0), BuildingBlock: AJUNOK_clean_linker_0, # of connection points: 2
#     Edge 36, Type (0, 0), BuildingBlock: AJUNOK_clean_linker_0, # of connection points: 2
#     Edge 37, Type (0, 0), BuildingBlock: AJUNOK_clean_linker_0, # of connection points: 2
#     Edge 38, Type (0, 0), BuildingBlock: AJUNOK_clean_linker_0, # of connection points: 2
#     Edge 39, Type (0, 0), BuildingBlock: AJUNOK_clean_linker_0, # of connection points: 2
#     Edge 40, Type (0, 0), BuildingBlock: AJUNOK_clean_linker_0, # of connection points: 2
#     Edge 41, Type (0, 0), BuildingBlock: AJUNOK_clean_linker_0, # of connection points: 2
#     Edge 42, Type (0, 0), BuildingBlock: AJUNOK_clean_linker_0, # of connection points: 2
#     Edge 43, Type (0, 0), BuildingBlock: AJUNOK_clean_linker_0, # of connection points: 2
#     Edge 44, Type (0, 0), BuildingBlock: AJUNOK_clean_linker_0, # of connection points: 2
#     Edge 45, Type (0, 0), BuildingBlock: AJUNOK_clean_linker_0, # of connection points: 2
#     Edge 46, Type (0, 0), BuildingBlock: AJUNOK_clean_linker_0, # of connection points: 2
#     Edge 47, Type (0, 0), BuildingBlock: AJUNOK_clean_linker_0, # of connection points: 2
#     Edge 48, Type (0, 0), BuildingBlock: AJUNOK_clean_linker_0, # of connection points: 2
#     Edge 49, Type (0, 0), BuildingBlock: AJUNOK_clean_linker_0, # of connection points: 2
#     Edge 50, Type (0, 0), BuildingBlock: AJUNOK_clean_linker_0, # of connection points: 2
#     Edge 51, Type (0, 0), BuildingBlock: AJUNOK_clean_linker_0, # of connection points: 2
#     Edge 52, Type (0, 0), BuildingBlock: AJUNOK_clean_linker_0, # of connection points: 2
#     Edge 53, Type (0, 0), BuildingBlock: AJUNOK_clean_linker_0, # of connection points: 2
#     Edge 54, Type (0, 0), BuildingBlock: AJUNOK_clean_linker_0, # of connection points: 2
#     Edge 55, Type (0, 0), BuildingBlock: AJUNOK_clean_linker_0, # of connection points: 2
#     Edge 56, Type (0, 0), BuildingBlock: AJUNOK_clean_linker_0, # of connection points: 2
#     Edge 57, Type (0, 0), BuildingBlock: AJUNOK_clean_linker_0, # of connection points: 2
#     Edge 58, Type (0, 0), BuildingBlock: AJUNOK_clean_linker_0, # of connection points: 2
#     Edge 59, Type (0, 0), BuildingBlock: AJUNOK_clean_linker_0, # of connection points: 2
#     Edge 60, Type (0, 0), BuildingBlock: AJUNOK_clean_linker_0, # of connection points: 2
#     Edge 61, Type (0, 0), BuildingBlock: AJUNOK_clean_linker_0, # of connection points: 2
#     Edge 62, Type (0, 0), BuildingBlock: AJUNOK_clean_linker_0, # of connection points: 2
#     Edge 63, Type (0, 0), BuildingBlock: AJUNOK_clean_linker_0, # of connection points: 2
#     Edge 64, Type (0, 0), BuildingBlock: AJUNOK_clean_linker_0, # of connection points: 2
#     Edge 65, Type (0, 0), BuildingBlock: AJUNOK_clean_linker_0, # of connection points: 2
#     Edge 66, Type (0, 0), BuildingBlock: AJUNOK_clean_linker_0, # of connection points: 2
#     Edge 67, Type (0, 0), BuildingBlock: AJUNOK_clean_linker_0, # of connection points: 2
#     Edge 68, Type (0, 0), BuildingBlock: AJUNOK_clean_linker_0, # of connection points: 2
#     Edge 69, Type (0, 0), BuildingBlock: AJUNOK_clean_linker_0, # of connection points: 2
#     Edge 70, Type (0, 0), BuildingBlock: AJUNOK_clean_linker_0, # of connection points: 2
#     Edge 71, Type (0, 0), BuildingBlock: AJUNOK_clean_linker_0, # of connection points: 2
#     Edge 72, Type (0, 0), BuildingBlock: AJUNOK_clean_linker_0, # of connection points: 2
#     Edge 73, Type (0, 0), BuildingBlock: AJUNOK_clean_linker_0, # of connection points: 2
#     Edge 74, Type (0, 0), BuildingBlock: AJUNOK_clean_linker_0, # of connection points: 2
#     Edge 75, Type (0, 0), BuildingBlock: AJUNOK_clean_linker_0, # of connection points: 2
#     Edge 76, Type (0, 0), BuildingBlock: AJUNOK_clean_linker_0, # of connection points: 2
#     Edge 77, Type (0, 0), BuildingBlock: AJUNOK_clean_linker_0, # of connection points: 2
#     Edge 78, Type (0, 0), BuildingBlock: AJUNOK_clean_linker_0, # of connection points: 2
#     Edge 79, Type (0, 0), BuildingBlock: AJUNOK_clean_linker_0, # of connection points: 2
#     Edge 80, Type (0, 0), BuildingBlock: AJUNOK_clean_linker_0, # of connection points: 2
#     Edge 81, Type (0, 0), BuildingBlock: AJUNOK_clean_linker_0, # of connection points: 2
#     Edge 82, Type (0, 0), BuildingBlock: AJUNOK_clean_linker_0, # of connection points: 2
#     Edge 83, Type (0, 0), BuildingBlock: AJUNOK_clean_linker_0, # of connection points: 2
#     Edge 84, Type (0, 0), BuildingBlock: AJUNOK_clean_linker_0, # of connection points: 2
#     Edge 85, Type (0, 0), BuildingBlock: AJUNOK_clean_linker_0, # of connection points: 2
#     Edge 86, Type (0, 0), BuildingBlock: AJUNOK_clean_linker_0, # of connection points: 2
#     Edge 87, Type (0, 0), BuildingBlock: AJUNOK_clean_linker_0, # of connection points: 2
#     Edge 88, Type (0, 0), BuildingBlock: AJUNOK_clean_linker_0, # of connection points: 2
#     Edge 89, Type (0, 0), BuildingBlock: AJUNOK_clean_linker_0, # of connection points: 2
#     Edge 90, Type (0, 0), BuildingBlock: AJUNOK_clean_linker_0, # of connection points: 2
#     Edge 91, Type (0, 0), BuildingBlock: AJUNOK_clean_linker_0, # of connection points: 2
#     Edge 92, Type (0, 0), BuildingBlock: AJUNOK_clean_linker_0, # of connection points: 2
#     Edge 93, Type (0, 0), BuildingBlock: AJUNOK_clean_linker_0, # of connection points: 2
#     Edge 94, Type (0, 0), BuildingBlock: AJUNOK_clean_linker_0, # of connection points: 2
#     Edge 95, Type (0, 0), BuildingBlock: AJUNOK_clean_linker_0, # of connection points: 2
#     Edge 96, Type (0, 0), BuildingBlock: AJUNOK_clean_linker_0, # of connection points: 2
#     Edge 97, Type (0, 0), BuildingBlock: AJUNOK_clean_linker_0, # of connection points: 2
#     Edge 98, Type (0, 0), BuildingBlock: AJUNOK_clean_linker_0, # of connection points: 2
#     Edge 99, Type (0, 0), BuildingBlock: AJUNOK_clean_linker_0, # of connection points: 2
#     Edge 100, Type (0, 0), BuildingBlock: AJUNOK_clean_linker_0, # of connection points: 2
#     Edge 101, Type (0, 0), BuildingBlock: AJUNOK_clean_linker_0, # of connection points: 2
#     Edge 102, Type (0, 0), BuildingBlock: AJUNOK_clean_linker_0, # of connection points: 2
#     Edge 103, Type (0, 0), BuildingBlock: AJUNOK_clean_linker_0, # of connection points: 2
#     Edge 104, Type (0, 0), BuildingBlock: AJUNOK_clean_linker_0, # of connection points: 2
#     Edge 105, Type (0, 0), BuildingBlock: AJUNOK_clean_linker_0, # of connection points: 2
#     Edge 106, Type (0, 0), BuildingBlock: AJUNOK_clean_linker_0, # of connection points: 2
#     Edge 107, Type (0, 0), BuildingBlock: AJUNOK_clean_linker_0, # of connection points: 2
#     Edge 108, Type (0, 0), BuildingBlock: AJUNOK_clean_linker_0, # of connection points: 2
#     Edge 109, Type (0, 0), BuildingBlock: AJUNOK_clean_linker_0, # of connection points: 2
#     Edge 110, Type (0, 0), BuildingBlock: AJUNOK_clean_linker_0, # of connection points: 2
#     Edge 111, Type (0, 0), BuildingBlock: AJUNOK_clean_linker_0, # of connection points: 2
# Relax obj value: 0.311
# Max RMSD: 0.177
# Mean RMSD: 0.177
data_MOF--net-wgp--node1-BEQFEK_clean_sbu_0--edge1-AJUNOK_clean_linker_0
_symmetry_space_group_name_H-M    P1
_symmetry_Int_Tables_number       1
_symmetry_cell_setting            triclinic
loop_
_symmetry_equiv_pos_as_xyz
'x, y, z'
_cell_length_a     27.43826
_cell_length_b     27.473033
_cell_length_c     80.916196
_cell_angle_alpha  90.032999
_cell_angle_beta   89.965412
_cell_angle_gamma 90.01557
loop_
_atom_site_label
_atom_site_type_symbol
_atom_site_fract_x
_atom_site_fract_y
_atom_site_fract_z
_atom_type_partial_charge
Co0 Co 0.30398 0.23152 0.10255 0.0
Co1 Co 0.35312 0.12909 0.09957 0.0
C2 C 0.30054 0.17233 0.07103 0.0
O3 O 0.29227 0.21015 0.07961 0.0
O4 O 0.32319 0.13614 0.07716 0.0
C5 C 0.22335 0.29365 0.09734 0.0
O6 O 0.20928 0.25708 0.08804 0.0
C7 C 0.35648 0.02376 0.09598 0.0
C8 C 0.41831 1.00305 0.11197 0.0
C9 C 0.38089 0.9841 0.10246 0.0
N10 N 0.3782 0.06452 0.10143 0.0
N11 N 0.41588 0.05195 0.11068 0.0
C12 C 0.3099 0.02312 0.08635 0.0
H13 H 0.28674 0.05456 0.08988 0.0
H14 H 0.28955 0.98869 0.08832 0.0
H15 H 0.31862 0.02637 0.073 0.0
C16 C 0.25113 0.18138 0.12991 0.0
N17 N 0.28481 0.18232 0.11773 0.0
N18 N 0.30542 0.13915 0.11656 0.0
C19 C 0.28552 0.1096 0.1281 0.0
C20 C 0.25031 0.13516 0.13675 0.0
C21 C 0.2197 0.22356 0.13466 0.0
H22 H 0.24231 0.2569 0.13573 0.0
H23 H 0.19225 0.22975 0.12482 0.0
H24 H 0.2005 0.2167 0.14651 0.0
O25 O 0.37446 0.24884 0.10465 0.0
O26 O 0.40869 0.17612 0.10173 0.0
H27 H 0.34005 0.05496 0.1318 0.0
H28 H 0.28412 0.04374 0.14281 0.0
C29 C 0.29988 0.05783 0.13112 0.0
H30 H 0.28647 0.03486 0.12083 0.0
H31 H 0.43808 0.0767 0.11693 0.0
O32 O 0.26298 0.29037 0.10544 0.0
C33 C 0.41239 0.22211 0.10368 0.0
Co34 Co 0.05047 0.05786 0.35121 0.0
Co35 Co 0.15223 0.10338 0.34421 0.0
C36 C 0.10345 0.04902 0.31787 0.0
O37 O 0.06786 0.0422 0.32772 0.0
O38 O 0.14083 0.07285 0.32244 0.0
C39 C 0.99178 0.9753 0.34954 0.0
O40 O 0.0304 0.95904 0.3417 0.0
C41 C 0.25651 0.11334 0.33664 0.0
C42 C 0.28217 0.15377 0.35854 0.0
C43 C 0.29847 0.12793 0.3449 0.0
N44 N 0.21751 0.12784 0.34543 0.0
N45 N 0.23312 0.15344 0.3582 0.0
C46 C 0.25327 0.08535 0.32079 0.0
H47 H 0.23751 0.04883 0.32314 0.0
H48 H 0.28953 0.08156 0.31484 0.0
H49 H 0.22834 0.1046 0.3122 0.0
C50 C 0.10495 1.01139 0.37892 0.0
N51 N 0.1017 0.041 0.36565 0.0
N52 N 0.14542 0.05471 0.36113 0.0
C53 C 0.1783 0.03065 0.37038 0.0
C54 C 0.15432 1.00301 0.38241 0.0
C55 C 0.06118 0.99562 0.38856 0.0
H56 H 0.03154 0.02281 0.38721 0.0
H57 H 0.04758 0.96054 0.38356 0.0
H58 H 0.07013 0.99141 0.40185 0.0
O59 O 0.03415 0.1273 0.35297 0.0
O60 O 0.10597 0.16059 0.3475 0.0
H61 H 0.25104 0.0586 0.37097 0.0
H62 H 0.24752 0.99286 0.37009 0.0
C63 C 0.2308 0.02729 0.36573 0.0
H64 H 0.23335 0.02828 0.35212 0.0
H65 H 0.2104 0.16735 0.36741 0.0
O66 O 0.99262 0.01771 0.35584 0.0
C67 C 0.06057 0.16486 0.35087 0.0
Co68 Co 0.21787 0.8024 0.60108 0.0
Co69 Co 0.17071 0.90378 0.59416 0.0
C70 C 0.22563 0.85592 0.56765 0.0
O71 O 0.2335 0.81997 0.5773 0.0
O72 O 0.20081 0.89251 0.57243 0.0
C73 C 0.29987 0.74013 0.59951 0.0
O74 O 0.31566 0.77444 0.58956 0.0
C75 C 0.15596 1.00871 0.58802 0.0
C76 C 0.11559 0.02959 0.61049 0.0
C77 C 0.13969 0.04872 0.59693 0.0
N78 N 0.1438 0.96796 0.59623 0.0
N79 N 0.11811 0.98074 0.60936 0.0
C80 C 0.18405 1.00951 0.57221 0.0
H81 H 0.16843 0.98215 0.56363 0.0
H82 H 0.22253 0.99976 0.57458 0.0
H83 H 0.18268 0.046 0.56634 0.0
C84 C 0.26252 0.85981 0.62906 0.0
N85 N 0.23376 0.85472 0.6156 0.0
N86 N 0.21986 0.89793 0.61065 0.0
C87 C 0.24324 0.93202 0.61955 0.0
C88 C 0.26921 0.90956 0.63229 0.0
C89 C 0.2821 0.8176 0.63864 0.0
H90 H 0.25918 0.78487 0.63659 0.0
H91 H 0.31964 0.80944 0.63435 0.0
H92 H 0.28319 0.82616 0.65204 0.0
O93 O 0.14799 0.78474 0.60291 0.0
O94 O 0.11522 0.85692 0.59782 0.0
H95 H 0.21878 1.00552 0.61635 0.0
H96 H 0.28418 0.9995 0.61842 0.0
C97 C 0.25072 0.98271 0.61324 0.0
H98 H 0.25444 0.98168 0.59964 0.0
H99 H 0.10577 0.95626 0.61829 0.0
O100 O 0.2584 0.74479 0.60637 0.0
C101 C 0.11061 0.81172 0.60113 0.0
Co102 Co 0.47654 0.9569 0.85211 0.0
Co103 Co 0.37476 0.91171 0.84475 0.0
C104 C 0.42466 0.9678 0.81885 0.0
O105 O 0.46087 0.97428 0.82847 0.0
O106 O 0.38741 0.94377 0.82344 0.0
C107 C 0.53655 0.03998 0.85276 0.0
O108 O 0.49821 0.05904 0.84552 0.0
C109 C 0.27047 0.90202 0.83716 0.0
C110 C 0.24579 0.85626 0.85793 0.0
C111 C 0.22897 0.88468 0.84501 0.0
N112 N 0.30984 0.88635 0.84547 0.0
N113 N 0.29484 0.85752 0.85752 0.0
C114 C 0.27243 0.93459 0.82235 0.0
H115 H 0.28407 0.97154 0.82609 0.0
H116 H 0.23639 0.93692 0.81618 0.0
H117 H 0.29965 0.92035 0.81344 0.0
C118 C 0.42005 1.00099 0.88031 0.0
N119 N 0.42426 0.97315 0.8666 0.0
N120 N 0.38072 0.95895 0.86196 0.0
C121 C 0.34716 0.98078 0.87158 0.0
C122 C 0.37062 1.00653 0.88414 0.0
C123 C 0.46275 0.02049 0.88969 0.0
H124 H 0.49525 0.99728 0.88761 0.0
H125 H 0.47109 0.05778 0.88525 0.0
H126 H 0.45459 0.02218 0.90312 0.0
O127 O 0.49252 0.88681 0.85375 0.0
O128 O 0.42017 0.8548 0.84824 0.0
H129 H 0.27468 0.95211 0.86974 0.0
H130 H 0.27715 0.0174 0.87261 0.0
C131 C 0.29487 0.98573 0.86658 0.0
H132 H 0.29297 0.99118 0.85308 0.0
H133 H 0.31793 0.84192 0.86629 0.0
O134 O 0.53477 0.99588 0.85751 0.0
C135 C 0.46525 0.84972 0.85176 0.0
Co136 Co 0.31166 0.79783 0.46798 0.0
Co137 Co 0.36087 0.89942 0.47324 0.0
C138 C 0.30667 0.85358 0.50076 0.0
O139 O 0.29794 0.81688 0.49157 0.0
O140 O 0.33129 0.88962 0.49538 0.0
C141 C 0.22919 0.73746 0.47081 0.0
O142 O 0.21379 0.77447 0.47967 0.0
C143 C 0.37483 1.0044 0.4793 0.0
C144 C 0.41604 0.02631 0.45716 0.0
C145 C 0.39119 0.04481 0.47067 0.0
N146 N 0.38766 0.96395 0.47102 0.0
N147 N 0.41384 0.97735 0.45807 0.0
C148 C 0.34489 1.00454 0.4947 0.0
H149 H 0.3616 0.9792 0.50373 0.0
H150 H 0.30761 0.99153 0.49187 0.0
H151 H 0.34285 0.04142 0.50027 0.0
C152 C 0.26449 0.85154 0.44011 0.0
N153 N 0.29486 0.84879 0.45321 0.0
N154 N 0.31061 0.8925 0.45692 0.0
C155 C 0.28733 0.92508 0.4473 0.0
C156 C 0.25796 0.90063 0.43588 0.0
C157 C 0.24638 0.80738 0.4312 0.0
H158 H 0.27283 0.7771 0.43259 0.0
H159 H 0.21139 0.79546 0.43676 0.0
H160 H 0.24104 0.81505 0.41786 0.0
O161 O 0.381 0.77986 0.46579 0.0
O162 O 0.41635 0.85143 0.46984 0.0
H163 H 0.31981 0.99561 0.44496 0.0
H164 H 0.25398 0.99649 0.44603 0.0
C165 C 0.28741 0.97857 0.45074 0.0
H166 H 0.28879 0.98442 0.46422 0.0
H167 H 0.42681 0.95325 0.44912 0.0
O168 O 0.27052 0.73996 0.46374 0.0
C169 C 0.41935 0.80566 0.46708 0.0
Co170 Co 0.47777 0.05465 0.71908 0.0
Co171 Co 0.37793 0.106 0.7255 0.0
C172 C 0.42485 0.05057 0.75242 0.0
O173 O 0.45994 0.0398 0.74273 0.0
O174 O 0.38968 0.07698 0.74746 0.0
C175 C 0.53914 0.97192 0.72079 0.0
O176 O 0.50493 0.9567 0.7309 0.0
C177 C 0.27205 0.11899 0.73129 0.0
C178 C 0.25403 0.17068 0.71133 0.0
C179 C 0.23323 0.14104 0.72324 0.0
N180 N 0.31385 0.13403 0.7242 0.0
N181 N 0.30274 0.16609 0.71262 0.0
C182 C 0.26869 0.0791 0.74385 0.0
H183 H 0.30231 0.05693 0.74397 0.0
H184 H 0.2371 0.05502 0.74128 0.0
H185 H 0.26328 0.09557 0.75623 0.0
C186 C 0.421 1.01238 0.69077 0.0
N187 N 0.42552 0.04037 0.70444 0.0
N188 N 0.38242 0.05681 0.70871 0.0
C189 C 0.34858 0.03648 0.6988 0.0
C190 C 0.37174 1.00929 0.68651 0.0
C191 C 0.46337 0.99054 0.68181 0.0
H192 H 0.49652 0.01293 0.68375 0.0
H193 H 0.47035 0.95353 0.68675 0.0
H194 H 0.45573 0.98767 0.66837 0.0
O195 O 0.49723 0.12385 0.71743 0.0
O196 O 0.42654 0.16064 0.72189 0.0
H197 H 0.27823 0.07019 0.69997 0.0
H198 H 0.27618 1.0052 0.69645 0.0
C199 C 0.29546 0.03491 0.70304 0.0
H200 H 0.29137 0.02811 0.71641 0.0
H201 H 0.32827 0.18203 0.70473 0.0
O202 O 0.53468 0.01318 0.71383 0.0
C203 C 0.47235 0.16269 0.71902 0.0
Co204 Co 0.2224 0.21648 0.96988 0.0
Co205 Co 0.17431 0.11516 0.97697 0.0
C206 C 0.22552 0.16374 1.00366 0.0
O207 O 0.23405 0.19854 0.99365 0.0
O208 O 0.20187 0.12626 0.9991 0.0
C209 C 0.30169 0.28278 0.97451 0.0
O210 O 0.31294 0.25232 0.9864 0.0
C211 C 0.15909 1.00914 0.98186 0.0
C212 C 0.11297 0.99345 0.96014 0.0
C213 C 0.13891 0.97135 0.97273 0.0
N214 N 0.14632 0.0516 0.97477 0.0
N215 N 0.11736 0.04186 0.96214 0.0
C216 C 0.19551 1.0043 0.99556 0.0
H217 H 0.21779 0.03765 0.9968 0.0
H218 H 0.21977 0.97258 0.99343 0.0
H219 H 0.17575 0.99824 1.00735 0.0
C220 C 0.26724 0.15842 0.94217 0.0
N221 N 0.23899 0.16362 0.95576 0.0
N222 N 0.22463 0.12048 0.96071 0.0
C223 C 0.24682 0.08627 0.95147 0.0
C224 C 0.27268 0.10875 0.93873 0.0
C225 C 0.28726 0.20044 0.93259 0.0
H226 H 0.26504 0.23355 0.9348 0.0
H227 H 0.32509 0.20782 0.93674 0.0
H228 H 0.2879 0.19203 0.91917 0.0
O229 O 0.15287 0.23448 0.96725 0.0
O230 O 0.11941 0.16289 0.97286 0.0
H231 H 0.21885 0.01381 0.95391 0.0
H232 H 0.28413 0.01668 0.95118 0.0
C233 C 0.25217 0.03452 0.95701 0.0
H234 H 0.25735 0.03361 0.97056 0.0
H235 H 0.10395 0.06817 0.95404 0.0
O236 O 0.26477 0.27411 0.96542 0.0
C237 C 0.1152 0.2079 0.96915 0.0
Co238 Co 0.04347 0.97052 0.21857 0.0
Co239 Co 0.14542 0.92068 0.22218 0.0
C240 C 0.0992 0.97055 0.25084 0.0
O241 O 0.0621 0.97967 0.24198 0.0
O242 O 0.13597 0.94847 0.24483 0.0
C243 C 0.97996 0.04977 0.22423 0.0
O244 O 0.01521 0.06241 0.23432 0.0
C245 C 0.25028 0.91691 0.22701 0.0
C246 C 0.27268 0.85651 0.21064 0.0
C247 C 0.29066 0.89308 0.22072 0.0
N248 N 0.21011 0.89562 0.22089 0.0
N249 N 0.22364 0.85876 0.21142 0.0
C250 C 0.24982 0.96303 0.23688 0.0
H251 H 0.21827 0.98594 0.23329 0.0
H252 H 0.28411 0.98389 0.2352 0.0
H253 H 0.24602 0.95374 0.25016 0.0
C254 C 0.09759 0.02699 0.19285 0.0
N255 N 0.09476 0.99146 0.20436 0.0
N256 N 0.13758 0.9702 0.20572 0.0
C257 C 0.1688 0.99138 0.19498 0.0
C258 C 0.14482 0.02848 0.1867 0.0
C259 C 0.05653 0.0604 0.18852 0.0
H260 H 0.04906 0.0847 0.19918 0.0
H261 H 0.0653 0.08305 0.17757 0.0
H262 H 0.02313 0.03879 0.18609 0.0
O263 O 0.02646 0.90032 0.21517 0.0
O264 O 0.09882 0.86562 0.21855 0.0
H265 H 0.2348 0.99065 0.18027 0.0
H266 H 0.24366 0.98785 0.20224 0.0
C267 C 0.2202 0.97533 0.19195 0.0
H268 H 0.22177 0.93518 0.19115 0.0
H269 H 0.19952 0.83714 0.20467 0.0
O270 O 0.98461 1.01169 0.2154 0.0
C271 C 0.0531 0.86229 0.21588 0.0
Co272 Co 0.72332 0.79614 0.96877 0.0
Co273 Co 0.67168 0.89672 0.97239 0.0
C274 C 0.72655 0.85372 1.00074 0.0
O275 O 0.73558 0.81639 0.99196 0.0
O276 O 0.70239 0.88926 0.99482 0.0
C277 C 0.80116 0.72881 0.97378 0.0
O278 O 0.81352 0.76039 0.98521 0.0
C279 C 0.66807 1.00134 0.97631 0.0
C280 C 0.60222 0.02214 0.9623 0.0
C281 C 0.6417 0.04096 0.97081 0.0
N282 N 0.64542 0.96068 0.9713 0.0
N283 N 0.60543 0.97322 0.96323 0.0
C284 C 0.71696 1.00204 0.98452 0.0
H285 H 0.71166 1.00091 0.99811 0.0
H286 H 0.73853 0.96964 0.98084 0.0
H287 H 0.73739 0.03569 0.98141 0.0
C288 C 0.77782 0.85075 0.94248 0.0
N289 N 0.74239 0.84708 0.95405 0.0
N290 N 0.7193 0.88894 0.95515 0.0
C291 C 0.73842 0.91998 0.94393 0.0
C292 C 0.77665 0.89735 0.93572 0.0
C293 C 0.81438 0.81167 0.93903 0.0
H294 H 0.83297 0.80162 0.9507 0.0
H295 H 0.84214 0.82354 0.92992 0.0
H296 H 0.79528 0.77882 0.93436 0.0
O297 O 0.65231 0.77803 0.9663 0.0
O298 O 0.61665 0.84977 0.96964 0.0
H299 H 0.67925 0.97032 0.9412 0.0
H300 H 0.73027 0.98234 0.92789 0.0
C301 C 0.71948 0.96995 0.94043 0.0
H302 H 0.73484 0.99576 0.94956 0.0
H303 H 0.58196 0.94851 0.95752 0.0
O304 O 0.76389 0.73705 0.96484 0.0
C305 C 0.61376 0.80399 0.9672 0.0
Co306 Co 0.97348 0.9751 0.72046 0.0
Co307 Co 0.87363 0.92058 0.72313 0.0
C308 C 0.91426 0.97518 0.752 0.0
O309 O 0.95195 0.98525 0.74353 0.0
O310 O 0.87941 0.95058 0.74577 0.0
C311 C 0.04268 0.05124 0.72721 0.0
O312 O 0.01402 0.05969 0.73988 0.0
C313 C 0.76813 0.91372 0.72571 0.0
C314 C 0.75148 0.84656 0.71179 0.0
C315 C 0.73017 0.88553 0.71987 0.0
N316 N 0.81028 0.89257 0.72134 0.0
N317 N 0.80016 0.85183 0.71332 0.0
C318 C 0.76427 0.96272 0.7337 0.0
H319 H 0.79864 0.9835 0.73216 0.0
H320 H 0.73344 0.98367 0.72839 0.0
H321 H 0.75698 0.95771 0.74707 0.0
C322 C 0.91953 0.02828 0.6939 0.0
N323 N 0.92288 0.99324 0.70556 0.0
N324 N 0.88155 0.96894 0.70618 0.0
C325 C 0.85122 0.98694 0.69454 0.0
C326 C 0.87378 0.02557 0.68655 0.0
C327 C 0.95828 0.06541 0.69073 0.0
H328 H 0.96986 0.08188 0.70261 0.0
H329 H 0.94537 0.09458 0.68233 0.0
H330 H 0.99049 0.04719 0.68519 0.0
O331 O 0.99282 0.90502 0.7175 0.0
O332 O 0.92212 0.86687 0.72039 0.0
H333 H 0.79132 0.97623 0.67756 0.0
H334 H 0.77482 0.98081 0.69898 0.0
C335 C 0.80239 0.96618 0.6903 0.0
H336 H 0.80326 0.92602 0.69119 0.0
H337 H 0.82642 0.8291 0.70807 0.0
O338 O 0.03205 0.01717 0.71714 0.0
C339 C 0.96812 0.86565 0.71812 0.0
Co340 Co 0.80972 0.22288 0.47042 0.0
Co341 Co 0.86242 0.1225 0.47325 0.0
C342 C 0.80426 0.16302 0.50155 0.0
O343 O 0.7957 0.20109 0.49315 0.0
O344 O 0.82948 0.12843 0.49548 0.0
C345 C 0.7308 0.28842 0.47561 0.0
O346 O 0.71619 0.25365 0.48557 0.0
C347 C 0.86001 0.01736 0.47456 0.0
C348 C 0.93318 0.99529 0.46598 0.0
C349 C 0.88814 0.97719 0.47068 0.0
N350 N 0.88673 0.05759 0.47206 0.0
N351 N 0.93073 0.04426 0.46714 0.0
C352 C 0.80831 0.0177 0.48053 0.0
H353 H 0.79216 0.05452 0.47933 0.0
H354 H 0.78578 0.99117 0.47361 0.0
H355 H 0.8077 1.0067 0.49372 0.0
C356 C 0.75961 0.17182 0.44256 0.0
N357 N 0.79261 0.17367 0.45494 0.0
N358 N 0.81692 0.13236 0.4554 0.0
C359 C 0.80126 0.10385 0.44285 0.0
C360 C 0.76393 0.12736 0.43455 0.0
C361 C 0.72472 0.21186 0.43853 0.0
H362 H 0.7452 0.24624 0.43662 0.0
H363 H 0.69972 0.21742 0.44915 0.0
H364 H 0.7031 0.20332 0.42731 0.0
O365 O 0.88061 0.24047 0.46866 0.0
O366 O 0.91837 0.16955 0.47151 0.0
H367 H 0.86153 0.05407 0.44109 0.0
H368 H 0.81673 0.0477 0.42495 0.0
C369 C 0.82207 0.05537 0.43829 0.0
H370 H 0.80269 0.02676 0.44531 0.0
H371 H 0.9585 0.06856 0.46403 0.0
O372 O 0.76945 0.2824 0.46712 0.0
C373 C 0.91991 0.21569 0.46957 0.0
Co374 Co 0.54912 0.05797 0.21932 0.0
Co375 Co 0.64762 0.11324 0.22394 0.0
C376 C 0.60498 0.05423 0.25148 0.0
O377 O 0.56852 0.04428 0.24242 0.0
O378 O 0.63972 0.08041 0.24601 0.0
C379 C 0.48272 0.97932 0.22389 0.0
O380 O 0.51531 0.96605 0.23486 0.0
C381 C 0.75171 0.1176 0.22906 0.0
C382 C 0.7739 0.18308 0.21514 0.0
C383 C 0.79195 0.1437 0.22388 0.0
N384 N 0.71149 0.14031 0.22366 0.0
N385 N 0.72483 0.18016 0.21568 0.0
C386 C 0.75158 0.06844 0.23706 0.0
H387 H 0.72041 0.04651 0.23249 0.0
H388 H 0.78614 0.04865 0.23468 0.0
H389 H 0.74746 0.07318 0.2506 0.0
C390 C 0.60668 1.00817 0.19273 0.0
N391 N 0.60137 0.04225 0.20466 0.0
N392 N 0.64241 0.06667 0.2062 0.0
C393 C 0.67468 0.04954 0.19496 0.0
C394 C 0.65355 1.0115 0.1862 0.0
C395 C 0.5688 0.97083 0.18872 0.0
H396 H 0.55799 0.95164 0.20021 0.0
H397 H 0.58222 0.94377 0.17962 0.0
H398 H 0.53592 0.98929 0.18378 0.0
O399 O 0.5291 0.12823 0.21765 0.0
O400 O 0.59878 0.16741 0.2216 0.0
H401 H 0.73816 0.06022 0.17951 0.0
H402 H 0.75008 0.05588 0.20128 0.0
C403 C 0.72436 0.07029 0.19194 0.0
H404 H 0.72316 0.11044 0.1928 0.0
H405 H 0.70065 0.20353 0.20968 0.0
O406 O 0.49068 0.01666 0.21496 0.0
C407 C 0.55278 0.16801 0.21914 0.0
Co408 Co 0.72 0.22279 0.59951 0.0
Co409 Co 0.66752 0.12291 0.59734 0.0
C410 C 0.7244 0.16228 0.56857 0.0
O411 O 0.73368 0.20035 0.5769 0.0
O412 O 0.69914 0.12779 0.57475 0.0
C413 C 0.80051 0.28857 0.59578 0.0
O414 O 0.82331 0.25125 0.5892 0.0
C415 C 0.66258 0.01717 0.59534 0.0
C416 C 0.59727 1.00012 0.61023 0.0
C417 C 0.63592 0.97907 0.60188 0.0
N418 N 0.6409 0.05911 0.59962 0.0
N419 N 0.60121 0.04869 0.60821 0.0
C420 C 0.71095 0.01385 0.58686 0.0
H421 H 0.732 0.04795 0.58858 0.0
H422 H 0.73229 0.9825 0.5916 0.0
H423 H 0.70476 1.00804 0.57346 0.0
C424 C 0.77171 0.17354 0.62738 0.0
N425 N 0.73815 0.17479 0.61517 0.0
N426 N 0.71488 0.13287 0.61467 0.0
C427 C 0.73242 0.10412 0.62687 0.0
C428 C 0.76921 0.12866 0.63514 0.0
C429 C 0.8055 0.21445 0.63151 0.0
H430 H 0.78513 0.24932 0.63163 0.0
H431 H 0.8341 0.21685 0.62185 0.0
H432 H 0.82325 0.20865 0.64367 0.0
O433 O 0.64984 0.24114 0.6016 0.0
O434 O 0.61176 0.17044 0.59933 0.0
H435 H 0.67493 0.05243 0.63044 0.0
H436 H 0.72827 0.04086 0.64279 0.0
C437 C 0.71523 0.05364 0.63056 0.0
H438 H 0.72964 0.02851 0.62105 0.0
H439 H 0.57848 0.07479 0.61354 0.0
O440 O 0.75818 0.2829 0.60189 0.0
C441 C 0.61043 0.21662 0.60107 0.0
Co442 Co 0.55875 0.96753 0.3509 0.0
Co443 Co 0.65881 0.91816 0.34572 0.0
C444 C 0.6121 0.97318 0.31827 0.0
O445 O 0.57603 0.98114 0.32773 0.0
O446 O 0.64902 0.9495 0.32344 0.0
C447 C 0.49347 0.04756 0.34792 0.0
O448 O 0.53057 0.06938 0.34082 0.0
C449 C 0.76354 0.91263 0.34117 0.0
C450 C 0.78286 0.8463 0.35512 0.0
C451 C 0.80262 0.88519 0.34657 0.0
N452 N 0.72237 0.89104 0.34626 0.0
N453 N 0.73402 0.85071 0.35424 0.0
C454 C 0.76526 0.96129 0.33285 0.0
H455 H 0.73339 0.98364 0.33656 0.0
H456 H 0.79955 0.98089 0.33581 0.0
H457 H 0.76364 0.95576 0.31928 0.0
C458 C 0.61379 0.02073 0.37732 0.0
N459 N 0.61015 0.98686 0.36526 0.0
N460 N 0.65264 0.96537 0.36329 0.0
C461 C 0.68446 0.9846 0.37427 0.0
C462 C 0.66131 0.02093 0.38329 0.0
C463 C 0.57325 0.05409 0.38226 0.0
H464 H 0.53886 0.03315 0.38346 0.0
H465 H 0.56808 0.08179 0.37245 0.0
H466 H 0.58127 0.07313 0.39403 0.0
O467 O 0.54122 0.89712 0.35343 0.0
O468 O 0.61261 0.86238 0.34876 0.0
H469 H 0.7497 0.97864 0.38912 0.0
H470 H 0.75946 0.98254 0.36722 0.0
C471 C 0.7355 0.96707 0.3769 0.0
H472 H 0.73672 0.92687 0.37622 0.0
H473 H 0.7088 0.82795 0.36003 0.0
O474 O 0.49911 1.00569 0.35433 0.0
C475 C 0.56722 0.85893 0.3519 0.0
Co476 Co 0.8043 0.80612 0.1006 0.0
Co477 Co 0.85784 0.90424 0.09668 0.0
C478 C 0.80018 0.85968 0.06864 0.0
O479 O 0.78996 0.82376 0.0778 0.0
O480 O 0.82557 0.89495 0.0742 0.0
C481 C 0.72288 0.74374 0.09798 0.0
O482 O 0.70163 0.78207 0.09151 0.0
C483 C 0.85331 1.00866 0.09355 0.0
C484 C 0.92086 0.03384 0.10568 0.0
C485 C 0.87729 0.05003 0.099 0.0
N486 N 0.88056 0.96969 0.09734 0.0
N487 N 0.92145 0.98491 0.10426 0.0
C488 C 0.80409 1.00546 0.08563 0.0
H489 H 0.80753 0.98664 0.07357 0.0
H490 H 0.77947 0.98336 0.09352 0.0
H491 H 0.78799 0.0419 0.08342 0.0
C492 C 0.75363 0.86034 0.12782 0.0
N493 N 0.78646 0.8563 0.11543 0.0
N494 N 0.81347 0.89577 0.11499 0.0
C495 C 0.80112 0.92437 0.12793 0.0
C496 C 0.76167 0.90385 0.13611 0.0
C497 C 0.71623 0.82271 0.13198 0.0
H498 H 0.73351 0.78625 0.13237 0.0
H499 H 0.68794 0.82227 0.1222 0.0
H500 H 0.69857 0.83051 0.14404 0.0
O501 O 0.8754 0.78844 0.10243 0.0
O502 O 0.91402 0.85861 0.09885 0.0
H503 H 0.86937 0.95767 0.13376 0.0
H504 H 0.81874 0.97998 0.14602 0.0
C505 C 0.8301 0.96725 0.13359 0.0
H506 H 0.82536 0.99713 0.12481 0.0
H507 H 0.94843 0.96184 0.10886 0.0
O508 O 0.76552 0.74741 0.10401 0.0
C509 C 0.91499 0.81268 0.10118 0.0
Co510 Co 0.97625 0.05871 0.85033 0.0
Co511 Co 0.87398 0.10679 0.84818 0.0
C512 C 0.91548 0.05058 0.81958 0.0
O513 O 0.95421 0.04309 0.82777 0.0
O514 O 0.88033 0.07459 0.82586 0.0
C515 C 0.03943 0.97768 0.84743 0.0
O516 O 1.00006 0.957 0.84143 0.0
C517 C 0.76868 0.10163 0.84708 0.0
C518 C 0.74503 0.17316 0.85665 0.0
C519 C 0.7279 0.12823 0.85149 0.0
N520 N 0.80835 0.1291 0.84975 0.0
N521 N 0.79404 0.17212 0.85526 0.0
C522 C 0.77021 0.05078 0.8404 0.0
H523 H 0.80735 0.03523 0.84153 0.0
H524 H 0.74391 0.02685 0.84686 0.0
H525 H 0.75969 0.05161 0.82717 0.0
C526 C 0.92817 1.00564 0.87851 0.0
N527 N 0.92865 0.03918 0.86626 0.0
N528 N 0.88618 0.06152 0.8659 0.0
C529 C 0.85828 0.04403 0.87836 0.0
C530 C 0.88345 1.0075 0.88648 0.0
C531 C 0.96951 0.97232 0.88256 0.0
H532 H 1.00449 0.99246 0.88195 0.0
H533 H 0.97059 0.94238 0.87337 0.0
H534 H 0.96498 0.95621 0.89505 0.0
O535 O 0.99198 0.13019 0.85182 0.0
O536 O 0.91897 0.16425 0.84971 0.0
H537 H 0.80506 0.10114 0.88038 0.0
H538 H 0.79992 0.05456 0.89592 0.0
C539 C 0.80833 0.0616 0.88272 0.0
H540 H 0.78132 0.04145 0.87523 0.0
H541 H 0.81775 0.20013 0.85863 0.0
O542 O 0.03714 0.02123 0.85274 0.0
C543 C 0.96515 0.16813 0.85118 0.0
Co544 Co 0.80884 0.72957 0.60334 0.0
Co545 Co 0.85731 0.62928 0.5954 0.0
C546 C 0.80084 0.67884 0.56962 0.0
O547 O 0.79247 0.71393 0.57955 0.0
O548 O 0.82583 0.64223 0.5741 0.0
C549 C 0.72595 0.78976 0.6026 0.0
O550 O 0.71015 0.75425 0.59314 0.0
C551 C 0.86709 0.526 0.58658 0.0
C552 C 0.9096 0.49821 0.60768 0.0
C553 C 0.88233 0.48326 0.59419 0.0
N554 N 0.88253 0.5641 0.59563 0.0
N555 N 0.90937 0.54724 0.60791 0.0
C556 C 0.83793 0.53075 0.57103 0.0
H557 H 0.85648 0.55662 0.56258 0.0
H558 H 0.80149 0.54599 0.5739 0.0
H559 H 0.83385 0.49516 0.56468 0.0
C560 C 0.76718 0.67064 0.63146 0.0
N561 N 0.79461 0.67659 0.61769 0.0
N562 N 0.80984 0.63387 0.61266 0.0
C563 C 0.78883 0.59917 0.62196 0.0
C564 C 0.76299 0.62082 0.63486 0.0
C565 C 0.74633 0.71207 0.64114 0.0
H566 H 0.76818 0.74554 0.63912 0.0
H567 H 0.70853 0.71908 0.63689 0.0
H568 H 0.74549 0.70329 0.65452 0.0
O569 O 0.87862 0.74707 0.60465 0.0
O570 O 0.91342 0.67619 0.59881 0.0
H571 H 0.8152 0.52639 0.61875 0.0
H572 H 0.74992 0.53054 0.6214 0.0
C573 C 0.78245 0.54825 0.61588 0.0
H574 H 0.77763 0.54948 0.60233 0.0
H575 H 0.92416 0.56899 0.61722 0.0
O576 O 0.76806 0.78661 0.60908 0.0
C577 C 0.91674 0.7215 0.6023 0.0
Co578 Co 0.55083 0.54796 0.8525 0.0
Co579 Co 0.65099 0.60108 0.84852 0.0
C580 C 0.60668 0.54716 0.82031 0.0
O581 O 0.57004 0.53741 0.82931 0.0
O582 O 0.64275 0.57093 0.82609 0.0
C583 C 0.4878 0.46768 0.84726 0.0
O584 O 0.52342 0.45414 0.83744 0.0
C585 C 0.75593 0.6077 0.8441 0.0
C586 C 0.77556 0.67088 0.85963 0.0
C587 C 0.7952 0.63362 0.85023 0.0
N588 N 0.71479 0.6284 0.84969 0.0
N589 N 0.72666 0.66691 0.85864 0.0
C590 C 0.75745 0.56051 0.83484 0.0
H591 H 0.72633 0.53708 0.83852 0.0
H592 H 0.79224 0.54094 0.83703 0.0
H593 H 0.75423 0.56817 0.82143 0.0
C594 C 0.60582 0.49619 0.87904 0.0
N595 N 0.60229 0.53007 0.86701 0.0
N596 N 0.64417 0.55321 0.86568 0.0
C597 C 0.67526 0.53522 0.87711 0.0
C598 C 0.65222 0.49836 0.88579 0.0
C599 C 0.56572 0.46215 0.88381 0.0
H600 H 0.53159 0.48301 0.88579 0.0
H601 H 0.55927 0.43617 0.87354 0.0
H602 H 0.57499 0.4415 0.89517 0.0
O603 O 0.53192 0.61778 0.85507 0.0
O604 O 0.60272 0.65516 0.85129 0.0
H605 H 0.7272 0.59266 0.8803 0.0
H606 H 0.74177 0.538 0.89153 0.0
C607 C 0.72638 0.55242 0.87984 0.0
H608 H 0.74969 0.53968 0.86954 0.0
H609 H 0.70152 0.68859 0.86493 0.0
O610 O 0.49252 0.50622 0.85586 0.0
C611 C 0.55682 0.65683 0.85382 0.0
Co612 Co 0.71276 0.30658 0.10046 0.0
Co613 Co 0.66525 0.40611 0.09311 0.0
C614 C 0.7248 0.35883 0.06736 0.0
O615 O 0.73172 0.32306 0.07711 0.0
O616 O 0.69879 0.39506 0.07167 0.0
C617 C 0.79442 0.24367 0.10173 0.0
O618 O 0.81692 0.27998 0.09442 0.0
C619 C 0.65229 0.50958 0.08531 0.0
C620 C 0.61337 0.53488 0.10756 0.0
C621 C 0.63809 0.55138 0.09371 0.0
N622 N 0.63906 0.47056 0.09424 0.0
N623 N 0.61413 0.4859 0.10721 0.0
C624 C 0.67905 0.50653 0.06925 0.0
H625 H 0.66091 0.47957 0.0611 0.0
H626 H 0.71653 0.4935 0.0716 0.0
H627 H 0.68031 0.54239 0.06294 0.0
C628 C 0.75639 0.36275 0.12864 0.0
N629 N 0.72762 0.35787 0.11518 0.0
N630 N 0.71254 0.40091 0.11049 0.0
C631 C 0.73503 0.43494 0.1197 0.0
C632 C 0.76194 0.41231 0.13217 0.0
C633 C 0.77729 0.32057 0.1379 0.0
H634 H 0.75445 0.28768 0.13606 0.0
H635 H 0.81444 0.31281 0.13316 0.0
H636 H 0.77973 0.32889 0.1513 0.0
O637 O 0.64344 0.28915 0.10183 0.0
O638 O 0.60827 0.35973 0.09637 0.0
H639 H 0.70927 0.50815 0.11725 0.0
H640 H 0.77479 0.50303 0.11893 0.0
C641 C 0.74136 0.48601 0.11379 0.0
H642 H 0.74436 0.48528 0.10016 0.0
H643 H 0.60134 0.46313 0.11658 0.0
O644 O 0.7502 0.24872 0.106 0.0
C645 C 0.60513 0.31446 0.09986 0.0
Co646 Co 0.98115 0.46673 0.35141 0.0
Co647 Co 0.87966 0.41958 0.34446 0.0
C648 C 0.927 0.47741 0.31844 0.0
O649 O 0.96373 0.48447 0.32781 0.0
O650 O 0.89059 0.45248 0.32324 0.0
C651 C 0.04317 0.54918 0.35107 0.0
O652 O 1.00843 0.56643 0.34158 0.0
C653 C 0.77512 0.40657 0.3375 0.0
C654 C 0.75307 0.3604 0.3585 0.0
C655 C 0.73463 0.38804 0.34564 0.0
N656 N 0.81545 0.39233 0.34558 0.0
N657 N 0.80204 0.36322 0.35777 0.0
C658 C 0.7751 0.43898 0.32264 0.0
H659 H 0.78421 0.47666 0.32634 0.0
H660 H 0.73896 0.43893 0.31648 0.0
H661 H 0.8032 0.4264 0.31376 0.0
C662 C 0.92435 0.50898 0.38004 0.0
N663 N 0.92887 0.48135 0.36627 0.0
N664 N 0.88548 0.46633 0.36176 0.0
C665 C 0.8517 0.48732 0.37149 0.0
C666 C 0.87487 0.51338 0.38404 0.0
C667 C 0.96682 0.5297 0.38924 0.0
H668 H 0.99969 0.50696 0.38722 0.0
H669 H 0.97446 0.56689 0.38456 0.0
H670 H 0.95885 0.5319 0.40267 0.0
O671 O 0.999 0.39664 0.35253 0.0
O672 O 0.92664 0.36407 0.34739 0.0
H673 H 0.77964 0.45755 0.3698 0.0
H674 H 0.78115 0.52287 0.37261 0.0
C675 C 0.79928 0.49143 0.36658 0.0
H676 H 0.79711 0.49674 0.35307 0.0
H677 H 0.82609 0.3485 0.36641 0.0
O678 O 0.03888 0.50665 0.35711 0.0
C679 C 0.97199 0.35936 0.35053 0.0
Co680 Co 0.81302 0.29493 0.9694 0.0
Co681 Co 0.86618 0.39487 0.97278 0.0
C682 C 0.80991 0.35153 1.00117 0.0
O683 O 0.79967 0.31432 0.99252 0.0
O684 O 0.83538 0.38605 0.99515 0.0
C685 C 0.73392 0.22928 0.97341 0.0
O686 O 0.71999 0.26195 0.98427 0.0
C687 C 0.86715 0.50001 0.97656 0.0
C688 C 0.93439 0.52193 0.96354 0.0
C689 C 0.89348 0.54007 0.97144 0.0
N690 N 0.89117 0.45965 0.97195 0.0
N691 N 0.93191 0.47294 0.96445 0.0
C692 C 0.81703 0.50042 0.98387 0.0
H693 H 0.79919 0.46445 0.98248 0.0
H694 H 0.79433 0.52885 0.9779 0.0
H695 H 0.81975 0.50973 0.99718 0.0
C696 C 0.76052 0.34883 0.94274 0.0
N697 N 0.79514 0.3456 0.95457 0.0
N698 N 0.81876 0.38721 0.9555 0.0
C699 C 0.80055 0.41778 0.94396 0.0
C700 C 0.76265 0.39488 0.93568 0.0
C701 C 0.724 0.30977 0.9392 0.0
H702 H 0.70325 0.30168 0.95064 0.0
H703 H 0.69801 0.32068 0.92939 0.0
H704 H 0.74331 0.27608 0.93543 0.0
O705 O 0.88356 0.27701 0.96723 0.0
O706 O 0.92147 0.34784 0.97005 0.0
H707 H 0.81053 0.47862 0.92738 0.0
H708 H 0.80403 0.49413 0.9488 0.0
C709 C 0.82014 0.46736 0.94014 0.0
H710 H 0.86029 0.46771 0.94137 0.0
H711 H 0.95661 0.44864 0.95915 0.0
O712 O 0.77284 0.23623 0.96518 0.0
C713 C 0.92287 0.30177 0.96798 0.0
Co714 Co 0.97172 0.56148 0.21807 0.0
Co715 Co 0.86985 0.6096 0.2244 0.0
C716 C 0.91874 0.55825 0.25169 0.0
O717 O 0.95403 0.54911 0.24191 0.0
O718 O 0.88179 0.58221 0.24671 0.0
C719 C 0.03069 0.47856 0.22113 0.0
O720 O 0.99294 0.46419 0.22984 0.0
C721 C 0.76427 0.62033 0.2307 0.0
C722 C 0.74047 0.65716 0.20791 0.0
C723 C 0.72295 0.63305 0.22174 0.0
N724 N 0.80415 0.63409 0.22222 0.0
N725 N 0.78952 0.65757 0.20886 0.0
C726 C 0.76604 0.59586 0.24715 0.0
H727 H 0.78851 0.61849 0.25555 0.0
H728 H 0.78382 0.5598 0.24592 0.0
H729 H 0.72914 0.59163 0.25259 0.0
C730 C 0.91566 0.5162 0.18999 0.0
N731 N 0.92013 0.54447 0.2036 0.0
N732 N 0.87676 0.55912 0.20822 0.0
C733 C 0.8431 0.53689 0.1988 0.0
C734 C 0.86615 0.51097 0.18622 0.0
C735 C 0.95812 0.49577 0.18071 0.0
H736 H 0.99131 0.51775 0.18309 0.0
H737 H 0.96494 0.45799 0.18497 0.0
H738 H 0.95045 0.49495 0.16725 0.0
O739 O 0.98851 0.63091 0.21542 0.0
O740 O 0.91675 0.66557 0.22014 0.0
H741 H 0.76913 0.561 0.20092 0.0
H742 H 0.77573 0.49593 0.19918 0.0
C743 C 0.79185 0.52954 0.20449 0.0
H744 H 0.79191 0.52641 0.21812 0.0
H745 H 0.813 0.67033 0.19968 0.0
O746 O 0.0293 0.51968 0.21391 0.0
C747 C 0.96224 0.66896 0.21678 0.0
Co748 Co 0.72001 0.72423 0.46823 0.0
Co749 Co 0.6733 0.62351 0.47592 0.0
C750 C 0.72438 0.67519 0.50238 0.0
O751 O 0.73347 0.70961 0.49225 0.0
O752 O 0.70066 0.63766 0.49786 0.0
C753 C 0.80321 0.78459 0.46904 0.0
O754 O 0.8208 0.74746 0.47733 0.0
C755 C 0.66019 0.51801 0.48228 0.0
C756 C 0.61392 0.4988 0.46091 0.0
C757 C 0.6405 0.47878 0.47374 0.0
N758 N 0.6465 0.55929 0.47461 0.0
N759 N 0.61751 0.54748 0.4622 0.0
C760 C 0.69685 0.51562 0.49597 0.0
H761 H 0.7192 0.54909 0.49644 0.0
H762 H 0.72104 0.48353 0.49449 0.0
H763 H 0.67728 0.5119 0.50791 0.0
C764 C 0.76649 0.66512 0.44102 0.0
N765 N 0.73758 0.67078 0.45443 0.0
N766 N 0.72348 0.62779 0.45959 0.0
C767 C 0.74645 0.59329 0.45068 0.0
C768 C 0.77276 0.61532 0.43793 0.0
C769 C 0.78637 0.70682 0.43125 0.0
H770 H 0.76348 0.73968 0.43305 0.0
H771 H 0.82382 0.71511 0.43558 0.0
H772 H 0.78788 0.69756 0.41791 0.0
O773 O 0.65035 0.7415 0.4657 0.0
O774 O 0.61755 0.66975 0.47141 0.0
H775 H 0.71876 0.52082 0.45353 0.0
H776 H 0.78418 0.52389 0.451 0.0
C777 C 0.75193 0.54189 0.45658 0.0
H778 H 0.75679 0.54181 0.47014 0.0
H779 H 0.60345 0.57253 0.45376 0.0
O780 O 0.76039 0.7817 0.46311 0.0
C781 C 0.61294 0.71465 0.46762 0.0
Co782 Co 0.55821 0.46178 0.71966 0.0
Co783 Co 0.65868 0.41506 0.72686 0.0
C784 C 0.61005 0.47004 0.75312 0.0
O785 O 0.57491 0.47827 0.74319 0.0
O786 O 0.64675 0.44497 0.74866 0.0
C787 C 0.49275 0.54261 0.7199 0.0
O788 O 0.52696 0.56363 0.72873 0.0
C789 C 0.76413 0.40186 0.73263 0.0
C790 C 0.78191 0.35343 0.71168 0.0
C791 C 0.80279 0.38125 0.72406 0.0
N792 N 0.72236 0.38758 0.7254 0.0
N793 N 0.73328 0.35722 0.71328 0.0
C794 C 0.76745 0.43991 0.74588 0.0
H795 H 0.73434 0.4628 0.74617 0.0
H796 H 0.79983 0.46351 0.74404 0.0
H797 H 0.77119 0.42161 0.75803 0.0
C798 C 0.61496 0.50727 0.69185 0.0
N799 N 0.61033 0.47818 0.70523 0.0
N800 N 0.65368 0.4637 0.70994 0.0
C801 C 0.68757 0.48643 0.70067 0.0
C802 C 0.66451 0.51327 0.68827 0.0
C803 C 0.5725 0.52793 0.68264 0.0
H804 H 0.53989 0.50458 0.68435 0.0
H805 H 0.56416 0.5647 0.68757 0.0
H806 H 0.5809 0.53108 0.66927 0.0
O807 O 0.5405 0.39213 0.71794 0.0
O808 O 0.61219 0.3589 0.72326 0.0
H809 H 0.75952 0.45699 0.70257 0.0
H810 H 0.758 0.52243 0.70001 0.0
C811 C 0.73977 0.49076 0.70585 0.0
H812 H 0.74155 0.49587 0.71937 0.0
H813 H 0.70764 0.34244 0.70518 0.0
O814 O 0.49983 0.49991 0.71436 0.0
C815 C 0.56697 0.35456 0.71987 0.0
Co816 Co 0.22155 0.30207 0.47082 0.0
Co817 Co 0.17132 0.4033 0.47402 0.0
C818 C 0.22751 0.36064 0.50231 0.0
O819 O 0.23631 0.32271 0.49378 0.0
O820 O 0.20268 0.39564 0.49631 0.0
C821 C 0.30303 0.23684 0.4727 0.0
O822 O 0.32459 0.27388 0.47992 0.0
C823 C 0.16704 0.50891 0.47733 0.0
C824 C 0.10087 0.52757 0.46316 0.0
C825 C 0.13987 0.54764 0.47157 0.0
N826 N 0.14523 0.46745 0.4726 0.0
N827 N 0.10505 0.47881 0.46443 0.0
C828 C 0.21578 0.51157 0.48556 0.0
H829 H 0.23577 0.47672 0.4842 0.0
H830 H 0.23783 0.54169 0.48028 0.0
H831 H 0.21029 0.51949 0.49887 0.0
C832 C 0.27473 0.35429 0.44351 0.0
N833 N 0.24043 0.35181 0.45551 0.0
N834 N 0.21842 0.3943 0.45669 0.0
C835 C 0.23768 0.42475 0.4453 0.0
C836 C 0.27439 0.40083 0.43677 0.0
C837 C 0.30936 0.31404 0.43939 0.0
H838 H 0.33681 0.311 0.44939 0.0
H839 H 0.32885 0.32101 0.42762 0.0
H840 H 0.28933 0.27906 0.43857 0.0
O841 O 0.15039 0.28499 0.4689 0.0
O842 O 0.11537 0.35712 0.47168 0.0
H843 H 0.23232 0.48824 0.4296 0.0
H844 H 0.23624 0.50047 0.45135 0.0
C845 C 0.22054 0.47556 0.442 0.0
H846 H 0.18031 0.47719 0.44258 0.0
H847 H 0.08204 0.45333 0.4589 0.0
O848 O 0.25961 0.24159 0.46741 0.0
C849 C 0.11205 0.31121 0.46967 0.0
Co850 Co 0.4632 0.46642 0.2211 0.0
Co851 Co 0.3622 0.4189 0.22742 0.0
C852 C 0.40832 0.47435 0.2542 0.0
O853 O 0.44418 0.48263 0.24452 0.0
O854 O 0.37216 0.44879 0.24948 0.0
C855 C 0.52808 0.54932 0.22051 0.0
O856 O 0.49016 0.57475 0.22537 0.0
C857 C 0.25576 0.40412 0.23178 0.0
C858 C 0.24104 0.35719 0.21019 0.0
C859 C 0.21836 0.38358 0.22256 0.0
N860 N 0.29858 0.39108 0.22497 0.0
N861 N 0.28941 0.36164 0.21242 0.0
C862 C 0.2504 0.44114 0.24525 0.0
H863 H 0.28297 0.4647 0.24588 0.0
H864 H 0.21755 0.46399 0.24331 0.0
H865 H 0.24639 0.422 0.25724 0.0
C866 C 0.40785 0.51141 0.19268 0.0
N867 N 0.41206 0.48275 0.20619 0.0
N868 N 0.36854 0.46812 0.21071 0.0
C869 C 0.33496 0.49063 0.20129 0.0
C870 C 0.35836 0.51702 0.18883 0.0
C871 C 0.45061 0.53202 0.18361 0.0
H872 H 0.48371 0.50999 0.18606 0.0
H873 H 0.45734 0.56972 0.18798 0.0
H874 H 0.44339 0.53302 0.17012 0.0
O875 O 0.481 0.39657 0.21939 0.0
O876 O 0.40923 0.36261 0.22407 0.0
H877 H 0.26226 0.46281 0.20332 0.0
H878 H 0.26534 0.52811 0.20067 0.0
C879 C 0.28288 0.4961 0.20653 0.0
H880 H 0.28131 0.50137 0.22006 0.0
H881 H 0.31614 0.34789 0.20451 0.0
O882 O 0.52289 0.50452 0.21695 0.0
C883 C 0.45473 0.35867 0.221 0.0
Co884 Co 0.3121 0.72016 0.96863 0.0
Co885 Co 0.36082 0.61872 0.97456 0.0
C886 C 0.30806 0.66657 1.0019 0.0
O887 O 0.29869 0.70209 0.99229 0.0
O888 O 0.33277 0.63032 0.9968 0.0
C889 C 0.23024 0.7816 0.9721 0.0
O890 O 0.21524 0.74497 0.98119 0.0
C891 C 0.3711 0.5123 0.97972 0.0
C892 C 0.4215 0.4939 0.95937 0.0
C893 C 0.39173 0.47334 0.9713 0.0
N894 N 0.38703 0.55398 0.9728 0.0
N895 N 0.41832 0.54259 0.96099 0.0
C896 C 0.3317 0.50948 0.9925 0.0
H897 H 0.30988 0.54332 0.99269 0.0
H898 H 0.3072 0.4781 0.99013 0.0
H899 H 0.34871 0.50425 1.00481 0.0
C900 C 0.26725 0.66524 0.94025 0.0
N901 N 0.29539 0.66865 0.95393 0.0
N902 N 0.311 0.62508 0.95796 0.0
C903 C 0.29002 0.59214 0.94784 0.0
C904 C 0.2633 0.6163 0.93568 0.0
C905 C 0.24613 0.70834 0.93154 0.0
H906 H 0.26847 0.74123 0.93398 0.0
H907 H 0.20875 0.71499 0.93627 0.0
H908 H 0.24412 0.70171 0.91803 0.0
O909 O 0.38197 0.73741 0.96632 0.0
O910 O 0.41702 0.66588 0.97073 0.0
H911 H 0.32255 0.52129 0.94842 0.0
H912 H 0.25745 0.52056 0.94502 0.0
C913 C 0.2876 0.53889 0.95171 0.0
H914 H 0.28091 0.53408 0.96506 0.0
H915 H 0.43465 0.56802 0.95317 0.0
O916 O 0.27081 0.77835 0.96453 0.0
C917 C 0.42028 0.71146 0.96767 0.0
Co918 Co 0.04724 0.56339 0.71806 0.0
Co919 Co 0.15037 0.61052 0.72109 0.0
C920 C 0.10402 0.55811 0.74968 0.0
O921 O 0.06608 0.55152 0.74107 0.0
O922 O 0.1412 0.57917 0.74352 0.0
C923 C 0.98646 0.48313 0.72285 0.0
O924 O 0.02485 0.46873 0.7312 0.0
C925 C 0.25554 0.60005 0.72262 0.0
C926 C 0.28321 0.67093 0.7138 0.0
C927 C 0.29794 0.62478 0.71857 0.0
N928 N 0.21738 0.62967 0.71997 0.0
N929 N 0.23413 0.67226 0.71489 0.0
C930 C 0.25087 0.54926 0.72918 0.0
H931 H 0.23218 0.55041 0.74132 0.0
H932 H 0.22786 0.52723 0.72075 0.0
H933 H 0.28684 0.53152 0.73083 0.0
C934 C 0.09788 0.50802 0.69105 0.0
N935 N 0.09628 0.54214 0.70311 0.0
N936 N 0.13778 0.56608 0.70327 0.0
C937 C 0.16543 0.55016 0.69058 0.0
C938 C 0.14207 0.51189 0.6828 0.0
C939 C 0.05813 0.47231 0.68751 0.0
H940 H 0.02287 0.49176 0.68637 0.0
H941 H 0.05518 0.44642 0.69797 0.0
H942 H 0.06551 0.45164 0.67599 0.0
O943 O 0.03344 0.63511 0.71556 0.0
O944 O 0.10663 0.66849 0.719 0.0
H945 H 0.2128 0.61203 0.68809 0.0
H946 H 0.21763 0.56773 0.67161 0.0
C947 C 0.21212 0.57269 0.6851 0.0
H948 H 0.24196 0.55401 0.69151 0.0
H949 H 0.21204 0.70169 0.71169 0.0
O950 O 0.98771 0.52357 0.71517 0.0
C951 C 0.06078 0.67276 0.71663 0.0
Co952 Co 0.21475 0.72588 0.10142 0.0
Co953 Co 0.16658 0.62481 0.09458 0.0
C954 C 0.22423 0.67081 0.06833 0.0
O955 O 0.23171 0.70725 0.07781 0.0
O956 O 0.19871 0.63471 0.07305 0.0
C957 C 0.29445 0.79232 0.09918 0.0
O958 O 0.30989 0.76051 0.08824 0.0
C959 C 0.15065 0.51939 0.08919 0.0
C960 C 0.10218 0.50308 0.11027 0.0
C961 C 0.12905 0.48139 0.0978 0.0
N962 N 0.13774 0.56157 0.09642 0.0
N963 N 0.1074 0.55155 0.10866 0.0
C964 C 0.18849 0.51511 0.07594 0.0
H965 H 0.21419 0.54591 0.07667 0.0
H966 H 0.20904 0.48046 0.07693 0.0
H967 H 0.1703 0.51619 0.06371 0.0
C968 C 0.25658 0.66897 0.13013 0.0
N969 N 0.22925 0.6737 0.1163 0.0
N970 N 0.21418 0.63045 0.11169 0.0
C971 C 0.23499 0.59653 0.1214 0.0
C972 C 0.26073 0.61947 0.13409 0.0
C973 C 0.2772 0.71127 0.13942 0.0
H974 H 0.25524 0.74446 0.13709 0.0
H975 H 0.315 0.7181 0.13512 0.0
H976 H 0.27802 0.70359 0.15288 0.0
O977 O 0.14465 0.74403 0.10272 0.0
O978 O 0.11119 0.67232 0.09749 0.0
H979 H 0.20494 0.52475 0.11935 0.0
H980 H 0.27011 0.52581 0.12266 0.0
C981 C 0.2392 0.54416 0.11641 0.0
H982 H 0.24559 0.54187 0.10295 0.0
H983 H 0.09347 0.5776 0.11677 0.0
O984 O 0.25472 0.78431 0.10683 0.0
C985 C 0.10693 0.71762 0.10068 0.0
Co986 Co 0.05313 0.46885 0.85004 0.0
Co987 Co 0.15268 0.41901 0.84237 0.0
C988 C 0.1062 0.4755 0.81628 0.0
O989 O 0.07143 0.48411 0.82637 0.0
O990 O 0.14237 0.4494 0.82055 0.0
C991 C 0.98775 0.54908 0.84733 0.0
O992 O 0.0191 0.56301 0.83602 0.0
C993 C 0.25861 0.40179 0.83723 0.0
C994 C 0.27326 0.35485 0.85882 0.0
C995 C 0.29597 0.3805 0.84628 0.0
N996 N 0.21581 0.38986 0.84433 0.0
N997 N 0.22492 0.36045 0.85687 0.0
C998 C 0.26437 0.43838 0.82364 0.0
H999 H 0.23123 0.46083 0.82224 0.0
H1000 H 0.29613 0.46241 0.82601 0.0
H1001 H 0.271 0.41885 0.81185 0.0
C1002 C 0.11226 0.5114 0.87786 0.0
N1003 N 0.10615 0.48299 0.86437 0.0
N1004 N 0.14889 0.46825 0.85915 0.0
C1005 C 0.18384 0.49081 0.86798 0.0
C1006 C 0.16229 0.51709 0.88089 0.0
C1007 C 0.07063 0.53165 0.88761 0.0
H1008 H 0.03729 0.50959 0.88556 0.0
H1009 H 0.06323 0.56944 0.88348 0.0
H1010 H 0.07944 0.53214 0.901 0.0
O1011 O 0.03367 0.39968 0.85178 0.0
O1012 O 0.10387 0.36399 0.8459 0.0
H1013 H 0.25668 0.46467 0.86433 0.0
H1014 H 0.25242 0.53002 0.86684 0.0
C1015 C 0.2346 0.49733 0.86152 0.0
H1016 H 0.23328 0.502 0.84795 0.0
H1017 H 0.19829 0.3475 0.86496 0.0
O1018 O 0.99574 0.51019 0.85542 0.0
C1019 C 0.05858 0.36116 0.84954 0.0
Co1020 Co 0.3098 0.30417 0.60129 0.0
Co1021 Co 0.35926 0.40575 0.59807 0.0
C1022 C 0.30395 0.36257 0.56975 0.0
O1023 O 0.29556 0.32476 0.57836 0.0
O1024 O 0.32817 0.39808 0.57571 0.0
C1025 C 0.22809 0.24036 0.59895 0.0
O1026 O 0.20665 0.27886 0.59265 0.0
C1027 C 0.36305 0.51151 0.59487 0.0
C1028 C 0.42846 0.53058 0.60938 0.0
C1029 C 0.3896 0.55046 0.60084 0.0
N1030 N 0.385 0.47017 0.59962 0.0
N1031 N 0.42475 0.48179 0.60799 0.0
C1032 C 0.31467 0.51377 0.58637 0.0
H1033 H 0.29445 0.47912 0.58796 0.0
H1034 H 0.29254 0.54443 0.59124 0.0
H1035 H 0.32079 0.52036 0.57301 0.0
C1036 C 0.25601 0.3559 0.6286 0.0
N1037 N 0.29041 0.35363 0.61662 0.0
N1038 N 0.31181 0.39641 0.61535 0.0
C1039 C 0.29181 0.42688 0.6266 0.0
C1040 C 0.25542 0.40266 0.63515 0.0
C1041 C 0.22253 0.31504 0.63308 0.0
H1042 H 0.24275 0.2801 0.63304 0.0
H1043 H 0.19295 0.31281 0.62378 0.0
H1044 H 0.2057 0.32096 0.64539 0.0
O1045 O 0.38075 0.28728 0.60323 0.0
O1046 O 0.41555 0.35948 0.60028 0.0
H1047 H 0.34779 0.48074 0.62927 0.0
H1048 H 0.29496 0.49127 0.64194 0.0
C1049 C 0.30758 0.47818 0.62968 0.0
H1050 H 0.29162 0.50213 0.62011 0.0
H1051 H 0.44776 0.45644 0.61358 0.0
O1052 O 0.27172 0.24369 0.60415 0.0
C1053 C 0.41902 0.31355 0.6023 0.0
Co1054 Co 0.4792 0.55748 0.35199 0.0
Co1055 Co 0.37857 0.60962 0.35016 0.0
C1056 C 0.41849 0.55309 0.32125 0.0
O1057 O 0.45697 0.54332 0.32931 0.0
O1058 O 0.38442 0.57823 0.32773 0.0
C1059 C 0.54273 0.47596 0.34895 0.0
O1060 O 0.50397 0.45497 0.34263 0.0
C1061 C 0.27259 0.61031 0.34831 0.0
C1062 C 0.25272 0.67996 0.36016 0.0
C1063 C 0.23333 0.638 0.35335 0.0
N1064 N 0.31375 0.63449 0.35194 0.0
N1065 N 0.30165 0.67653 0.3588 0.0
C1066 C 0.27083 0.55998 0.34126 0.0
H1067 H 0.30691 0.54201 0.34216 0.0
H1068 H 0.24301 0.53776 0.34777 0.0
H1069 H 0.25974 0.56227 0.32811 0.0
C1070 C 0.42946 0.50525 0.37993 0.0
N1071 N 0.43104 0.5392 0.36783 0.0
N1072 N 0.38924 0.56279 0.36751 0.0
C1073 C 0.36049 0.54524 0.37971 0.0
C1074 C 0.38457 0.50789 0.38775 0.0
C1075 C 0.4697 0.47044 0.3838 0.0
H1076 H 0.50523 0.48966 0.38353 0.0
H1077 H 0.47034 0.44135 0.3743 0.0
H1078 H 0.46426 0.45337 0.3961 0.0
O1079 O 0.4966 0.62807 0.35378 0.0
O1080 O 0.42536 0.66566 0.35198 0.0
H1081 H 0.30838 0.60304 0.38226 0.0
H1082 H 0.30033 0.55375 0.39668 0.0
C1083 C 0.31048 0.56308 0.38379 0.0
H1084 H 0.28404 0.54508 0.37547 0.0
H1085 H 0.32678 0.70193 0.3632 0.0
O1086 O 0.53961 0.51923 0.35446 0.0
C1087 C 0.47169 0.66726 0.35337 0.0
C1088 C 0.17749 0.08754 0.14579 0.0
C1089 C 0.21853 0.11566 0.14994 0.0
C1090 C 0.15168 0.06157 0.15794 0.0
C1091 C 0.16659 0.06255 0.17456 0.0
H1092 H 0.16654 0.08406 0.13298 0.0
H1093 H 0.12147 0.03867 0.15421 0.0
S1094 S 0.2705 0.13237 0.19176 0.0
N1095 N 0.27173 0.14452 0.17176 0.0
N1096 N 0.22351 0.09567 0.19461 0.0
C1097 C 0.20651 0.09198 0.17889 0.0
C1098 C 0.23248 0.11855 0.16656 0.0
C1099 C 0.22271 0.99188 0.40259 0.0
C1100 C 0.1783 0.97472 0.39612 0.0
C1101 C 0.24884 0.96584 0.41446 0.0
C1102 C 0.22984 0.92374 0.42198 0.0
H1103 H 0.23812 0.02595 0.39843 0.0
H1104 H 0.28433 0.97966 0.41788 0.0
S1105 S 0.11354 0.86348 0.41033 0.0
N1106 N 0.11812 0.90969 0.39741 0.0
N1107 N 0.16162 0.86712 0.42252 0.0
C1108 C 0.18441 0.90678 0.41618 0.0
C1109 C 0.15973 0.93105 0.40283 0.0
C1110 C 0.33837 0.91488 0.6533 0.0
C1111 C 0.29556 0.93445 0.64626 0.0
C1112 C 0.36321 0.93892 0.66623 0.0
C1113 C 0.34798 0.98492 0.67198 0.0
H1114 H 0.35312 0.88085 0.64884 0.0
H1115 H 0.39421 0.921 0.6718 0.0
S1116 S 0.24062 0.05408 0.657 0.0
N1117 N 0.23733 1.00129 0.64741 0.0
N1118 N 0.29119 0.05171 0.66792 0.0
C1119 C 0.30726 1.00614 0.66427 0.0
C1120 C 0.27927 0.97965 0.65245 0.0
C1121 C 0.36504 0.0765 0.90469 0.0
C1122 C 0.34701 0.03201 0.89848 0.0
C1123 C 0.34131 0.10128 0.91769 0.0
C1124 C 0.29716 0.08395 0.92442 0.0
H1125 H 0.39749 0.09265 0.89944 0.0
H1126 H 0.35799 0.13399 0.92251 0.0
S1127 S 0.23353 0.97008 0.91213 0.0
N1128 N 0.28469 0.96959 0.90146 0.0
N1129 N 0.23408 0.02189 0.92239 0.0
C1130 C 0.27776 0.04074 0.9177 0.0
C1131 C 0.30416 0.01336 0.90569 0.0
C1132 C 0.85882 0.99198 0.91576 0.0
C1133 C 0.86367 0.97493 0.89948 0.0
C1134 C 0.83274 0.96523 0.92762 0.0
C1135 C 0.81026 0.92063 0.92361 0.0
H1136 H 0.87368 0.02713 0.91916 0.0
H1137 H 0.82867 0.98038 0.93991 0.0
S1138 S 0.81316 0.86008 0.88268 0.0
N1139 N 0.8453 0.91035 0.88 0.0
N1140 N 0.79556 0.86036 0.90221 0.0
C1141 C 0.81631 0.90247 0.9075 0.0
C1142 C 0.84313 0.92964 0.89544 0.0
C1143 C 0.80552 0.0789 0.67698 0.0
C1144 C 0.85139 0.05778 0.67388 0.0
C1145 C 0.78014 0.10402 0.66458 0.0
C1146 C 0.7999 0.10923 0.64868 0.0
H1147 H 0.78843 0.07463 0.68897 0.0
H1148 H 0.74408 0.11801 0.66728 0.0
S1149 S 0.91885 0.06185 0.6342 0.0
N1150 N 0.9157 0.04449 0.65373 0.0
N1151 N 0.8682 0.09251 0.6305 0.0
C1152 C 0.84636 0.08994 0.64554 0.0
C1153 C 0.87214 0.06407 0.65814 0.0
C1154 C 0.66689 0.05395 0.41223 0.0
C1155 C 0.6839 0.05358 0.39583 0.0
C1156 C 0.69165 0.08011 0.42462 0.0
C1157 C 0.73403 0.10686 0.42097 0.0
H1158 H 0.63546 0.03229 0.41564 0.0
H1159 H 0.67866 0.07793 0.43725 0.0
S1160 S 0.79188 0.11992 0.37988 0.0
N1161 N 0.74434 0.08433 0.37651 0.0
N1162 N 0.79092 0.13286 0.39982 0.0
C1163 C 0.75044 0.10806 0.40457 0.0
C1164 C 0.72534 0.08156 0.39199 0.0
C1165 C 0.72275 0.9576 0.17741 0.0
C1166 C 0.67791 0.98004 0.17365 0.0
C1167 C 0.74903 0.93156 0.16538 0.0
C1168 C 0.73134 0.9269 0.14917 0.0
H1169 H 0.73807 0.961 0.18969 0.0
H1170 H 0.7839 0.91584 0.16866 0.0
S1171 S 0.61653 0.97912 0.13286 0.0
N1172 N 0.61742 0.99609 0.15246 0.0
N1173 N 0.66647 0.94661 0.12994 0.0
C1174 C 0.68621 0.94823 0.14532 0.0
C1175 C 0.65955 0.97492 0.15754 0.0
C1176 C 0.69424 0.61139 0.65584 0.0
C1177 C 0.73854 0.5949 0.64899 0.0
C1178 C 0.67044 0.58532 0.66855 0.0
C1179 C 0.68853 0.54036 0.67432 0.0
H1180 H 0.6774 0.64437 0.65133 0.0
H1181 H 0.63782 0.60084 0.67389 0.0
S1182 S 0.80252 0.4803 0.6602 0.0
N1183 N 0.80178 0.53291 0.65043 0.0
N1184 N 0.75129 0.47866 0.67082 0.0
C1185 C 0.73162 0.52265 0.667 0.0
C1186 C 0.75802 0.55119 0.65529 0.0
C1187 C 0.70546 0.46098 0.92702 0.0
C1188 C 0.72978 0.41724 0.92323 0.0
C1189 C 0.67817 0.48583 0.91502 0.0
C1190 C 0.67416 0.46769 0.89885 0.0
H1191 H 0.70858 0.47671 0.93925 0.0
H1192 H 0.66144 0.52027 0.91824 0.0
S1193 S 0.73108 0.35528 0.88255 0.0
N1194 N 0.74814 0.35709 0.90212 0.0
N1195 N 0.69644 0.40372 0.87961 0.0
C1196 C 0.69731 0.42359 0.89498 0.0
C1197 C 0.72519 0.3983 0.90718 0.0
C1198 C 0.83321 0.41853 0.15229 0.0
C1199 C 0.78874 0.4368 0.14609 0.0
C1200 C 0.85849 0.44234 0.16517 0.0
C1201 C 0.84161 0.4867 0.17181 0.0
H1202 H 0.84892 0.38573 0.14717 0.0
H1203 H 0.89108 0.42547 0.17002 0.0
S1204 S 0.72876 0.55172 0.15929 0.0
N1205 N 0.72757 0.50045 0.14872 0.0
N1206 N 0.78044 0.55048 0.16963 0.0
C1207 C 0.7987 0.50652 0.16502 0.0
C1208 C 0.77097 0.48032 0.15305 0.0
C1209 C 0.86755 0.58348 0.40453 0.0
C1210 C 0.85074 0.53842 0.3984 0.0
C1211 C 0.84277 0.60814 0.41735 0.0
C1212 C 0.79871 0.59012 0.42396 0.0
H1213 H 0.89975 0.60025 0.39932 0.0
H1214 H 0.85852 0.6414 0.42208 0.0
S1215 S 0.73848 0.47414 0.41195 0.0
N1216 N 0.78999 0.47454 0.40148 0.0
N1217 N 0.73737 0.52633 0.42199 0.0
C1218 C 0.78072 0.5461 0.41738 0.0
C1219 C 0.80822 0.51894 0.40559 0.0
C1220 C 0.33614 0.46377 0.42895 0.0
C1221 C 0.30811 0.42286 0.42449 0.0
C1222 C 0.36336 0.48958 0.41712 0.0
C1223 C 0.36348 0.4753 0.40046 0.0
H1224 H 0.3357 0.47683 0.44158 0.0
H1225 H 0.38284 0.52203 0.42091 0.0
S1226 S 0.29622 0.37121 0.38239 0.0
N1227 N 0.28236 0.36938 0.40226 0.0
N1228 N 0.33375 0.41778 0.38007 0.0
C1229 C 0.33671 0.43384 0.39591 0.0
C1230 C 0.309 0.40756 0.40793 0.0
C1231 C 0.35299 0.58707 0.1682 0.0
C1232 C 0.33453 0.54292 0.17457 0.0
C1233 C 0.32934 0.61191 0.15519 0.0
C1234 C 0.28478 0.59514 0.14861 0.0
H1235 H 0.38578 0.60289 0.17329 0.0
H1236 H 0.3465 0.64417 0.15021 0.0
S1237 S 0.2196 0.48266 0.16137 0.0
N1238 N 0.27111 0.48145 0.17182 0.0
N1239 N 0.22066 0.53435 0.15106 0.0
C1240 C 0.26478 0.55254 0.15556 0.0
C1241 C 0.29114 0.52489 0.16751 0.0
C1242 C 0.16892 0.58571 0.9021 0.0
C1243 C 0.18799 0.54297 0.89484 0.0
C1244 C 0.19316 0.60971 0.91518 0.0
C1245 C 0.2389 0.59366 0.92093 0.0
H1246 H 0.13507 0.60107 0.89772 0.0
H1247 H 0.17554 0.64065 0.9209 0.0
S1248 S 0.30733 0.48663 0.90525 0.0
N1249 N 0.25456 0.48434 0.89559 0.0
N1250 N 0.30524 0.5365 0.91654 0.0
C1251 C 0.25981 0.55318 0.91296 0.0
C1252 C 0.23315 0.52609 0.90091 0.0
C1253 C 0.18994 0.46267 0.64211 0.0
C1254 C 0.22097 0.42468 0.64719 0.0
C1255 C 0.162 0.48908 0.65361 0.0
C1256 C 0.16435 0.47844 0.67056 0.0
H1257 H 0.18855 0.47308 0.62921 0.0
H1258 H 0.14002 0.51927 0.64931 0.0
S1259 S 0.24055 0.38347 0.69024 0.0
N1260 N 0.25244 0.37807 0.67029 0.0
N1261 N 0.20014 0.4278 0.6919 0.0
C1262 C 0.19446 0.44003 0.67575 0.0
C1263 C 0.2227 0.41304 0.66406 0.0
C1264 C 0.25416 0.12393 1.02983 0.0
C1265 C 0.24446 0.1667 1.02082 0.0
C1266 C 0.27325 0.12592 0.04592 0.0
C1267 C 0.28252 0.17077 0.05373 0.0
H1268 H 0.2475 0.08856 1.02435 0.0
H1269 H 0.28 0.09206 0.05238 0.0
S1270 S 0.26287 0.29343 0.03553 0.0
N1271 N 0.24551 0.25524 1.02093 0.0
N1272 N 0.28067 0.25908 0.05112 0.0
C1273 C 0.27278 0.21382 0.04485 0.0
C1274 C 0.25398 0.21176 1.02842 0.0
C1275 C 0.14486 0.02014 0.29194 0.0
C1276 C 0.10154 0.02804 0.30092 0.0
C1277 C 0.144 1.00012 0.27596 0.0
C1278 C 0.09973 0.98801 0.26821 0.0
H1279 H 0.17984 0.02924 0.29731 0.0
H1280 H 0.17822 0.99524 0.26949 0.0
S1281 S 0.97604 1.00044 0.28645 0.0
N1282 N 1.01309 0.02098 0.30092 0.0
N1283 N 1.01147 0.98423 0.2709 0.0
C1284 C 0.05617 0.99535 0.27709 0.0
C1285 C 0.05707 0.01508 0.29343 0.0
C1286 C 0.25752 0.8116 0.54258 0.0
C1287 C 0.24671 0.85571 0.55069 0.0
C1288 C 0.27666 0.81108 0.52643 0.0
C1289 C 0.28656 0.85467 0.51787 0.0
H1290 H 0.25057 0.77717 0.54866 0.0
H1291 H 0.2841 0.77626 0.52067 0.0
S1292 S 0.26528 0.97981 0.53364 0.0
N1293 N 0.24842 0.94395 0.54893 0.0
N1294 N 0.28299 0.94291 0.51873 0.0
C1295 C 0.27603 0.89882 0.52589 0.0
C1296 C 0.25649 0.89936 0.54224 0.0
C1297 C 0.46654 0.9881 0.79214 0.0
C1298 C 0.42486 0.99023 0.80222 0.0
C1299 C 0.46628 1.00771 0.77609 0.0
C1300 C 0.42464 0.03114 0.76964 0.0
H1301 H 0.49922 0.97021 0.79656 0.0
H1302 H 0.49904 1.00439 0.7687 0.0
S1303 S 0.30765 0.05008 0.79199 0.0
N1304 N 0.34205 0.01976 0.80515 0.0
N1305 N 0.34145 0.05738 0.7753 0.0
C1306 C 0.38327 0.03474 0.77993 0.0
C1307 C 0.38341 0.01409 0.79611 0.0
C1308 C 0.75342 0.89994 1.02621 0.0
C1309 C 0.74502 0.85527 1.01807 0.0
C1310 C 0.77241 0.90154 0.04241 0.0
C1311 C 0.78282 0.85851 0.05118 0.0
H1312 H 0.74581 0.93395 1.01996 0.0
H1313 H 0.77809 0.93665 0.04819 0.0
S1314 S 0.7676 0.73216 0.03548 0.0
N1315 N 0.74903 0.76701 1.02014 0.0
N1316 N 0.78403 0.76993 0.05032 0.0
C1317 C 0.77458 0.8137 0.04314 0.0
C1318 C 0.75589 0.8121 1.02669 0.0
C1319 C 0.95639 0.02054 0.79394 0.0
C1320 C 0.91281 0.03135 0.80238 0.0
C1321 C 0.9561 1.00213 0.77781 0.0
C1322 C 0.91221 0.99282 0.76938 0.0
H1323 H 0.99137 0.02685 0.79977 0.0
H1324 H 0.99084 0.99495 0.77192 0.0
S1325 S 0.78775 0.01391 0.78589 0.0
N1326 N 0.82425 0.0311 0.80104 0.0
N1327 N 0.82374 0.99559 0.77074 0.0
C1328 C 0.86821 1.00281 0.77768 0.0
C1329 C 0.8685 0.0224 0.79412 0.0
C1330 C 0.7517 0.20358 0.54274 0.0
C1331 C 0.74327 0.15983 0.55133 0.0
C1332 C 0.77133 0.20382 0.52678 0.0
C1333 C 0.78431 0.16034 0.51867 0.0
H1334 H 0.74285 0.23827 0.54837 0.0
H1335 H 0.77677 0.23871 0.52082 0.0
S1336 S 0.76996 0.03566 0.53569 0.0
N1337 N 0.74924 0.0716 0.55049 0.0
N1338 N 0.78702 0.072 0.52048 0.0
C1339 C 0.77627 0.11616 0.52709 0.0
C1340 C 0.75543 0.11591 0.54337 0.0
C1341 C 0.65321 1.00417 0.29241 0.0
C1342 C 0.61024 0.99254 0.30109 0.0
C1343 C 0.65142 0.02502 0.27651 0.0
C1344 C 0.60661 0.03417 0.26857 0.0
H1345 H 0.68847 0.99791 0.29804 0.0
H1346 H 0.68538 0.03337 0.27031 0.0
S1347 S 0.48356 1.0097 0.28589 0.0
N1348 N 0.52154 0.99153 0.30043 0.0
N1349 N 0.51826 0.02993 0.27071 0.0
C1350 C 0.56347 0.02228 0.27709 0.0
C1351 C 0.56526 1.00171 0.29328 0.0
C1352 C 0.76945 0.63551 0.54464 0.0
C1353 C 0.78045 0.67967 0.55263 0.0
C1354 C 0.75071 0.63463 0.52854 0.0
C1355 C 0.74303 0.67785 0.51959 0.0
H1356 H 0.77491 0.60117 0.55092 0.0
H1357 H 0.74293 0.59959 0.523 0.0
S1358 S 0.76599 0.8033 0.53486 0.0
N1359 N 0.78179 0.76792 0.55045 0.0
N1360 N 0.74762 0.76633 0.52001 0.0
C1361 C 0.75394 0.72239 0.52741 0.0
C1362 C 0.77225 0.72329 0.54397 0.0
C1363 C 0.65192 0.5006 0.7787 0.0
C1364 C 0.6084 0.49044 0.77012 0.0
C1365 C 0.65122 0.52018 0.79475 0.0
C1366 C 0.60696 0.52941 0.80296 0.0
H1367 H 0.68689 0.49373 0.77293 0.0
H1368 H 0.68561 0.52713 0.80088 0.0
S1369 S 0.48277 0.50902 0.78595 0.0
N1370 N 0.51983 0.49145 0.77103 0.0
N1371 N 0.51837 0.52731 0.80117 0.0
C1372 C 0.56317 0.51943 0.79449 0.0
C1373 C 0.56392 0.50024 0.77809 0.0
C1374 C 0.77059 0.31252 1.02589 0.0
C1375 C 0.79039 0.35445 1.01836 0.0
C1376 C 0.7501 0.31417 0.04178 0.0
C1377 C 0.74763 0.35797 0.05072 0.0
H1378 H 0.77079 0.27793 1.01946 0.0
H1379 H 0.73522 0.28101 0.04698 0.0
S1380 S 0.79671 0.47747 0.03731 0.0
N1381 N 0.8081 0.44072 1.02163 0.0
N1382 N 0.76916 0.44365 0.05135 0.0
C1383 C 0.76788 0.39996 0.04353 0.0
C1384 C 0.78941 0.39823 1.02742 0.0
C1385 C 0.96658 0.50023 0.29148 0.0
C1386 C 0.92539 0.50003 0.30182 0.0
C1387 C 0.96419 0.51925 0.27535 0.0
C1388 C 0.92073 0.53963 0.26905 0.0
H1389 H 1.00054 0.4845 0.29574 0.0
H1390 H 0.9967 0.51773 0.26777 0.0
S1391 S 0.80391 0.55145 0.29202 0.0
N1392 N 0.84103 0.52436 0.30513 0.0
N1393 N 0.8363 0.56009 0.2751 0.0
C1394 C 0.87983 0.5408 0.27958 0.0
C1395 C 0.88222 0.52103 0.29587 0.0
C1396 C 0.27592 0.3201 0.54411 0.0
C1397 C 0.28519 0.36407 0.5525 0.0
C1398 C 0.25748 0.31962 0.52797 0.0
C1399 C 0.24654 0.36307 0.51953 0.0
H1400 H 0.28335 0.28551 0.55002 0.0
H1401 H 0.25131 0.28468 0.52212 0.0
S1402 S 0.26352 0.48817 0.53595 0.0
N1403 N 0.28196 0.45239 0.5511 0.0
N1404 N 0.24646 0.4515 0.52084 0.0
C1405 C 0.25527 0.40739 0.52778 0.0
C1406 C 0.27487 0.40788 0.54419 0.0
C1407 C 0.45429 0.50594 0.27872 0.0
C1408 C 0.40933 0.49485 0.27124 0.0
C1409 C 0.45668 0.52483 0.29481 0.0
C1410 C 0.41418 0.53447 0.30403 0.0
H1411 H 0.48812 0.49932 0.27219 0.0
H1412 H 0.49228 0.53218 0.30003 0.0
S1413 S 0.28717 0.51318 0.29008 0.0
N1414 N 0.32112 0.49545 0.27434 0.0
N1415 N 0.3257 0.53188 0.3044 0.0
C1416 C 0.36894 0.52432 0.29664 0.0
C1417 C 0.3665 0.50422 0.28033 0.0
C1418 C 0.24875 0.71167 0.04182 0.0
C1419 C 0.24694 0.66958 0.05168 0.0
C1420 C 0.26866 0.71042 1.0258 0.0
C1421 C 0.28856 0.66725 1.01914 0.0
H1422 H 0.2337 0.74558 0.04638 0.0
H1423 H 0.26836 0.74364 1.0186 0.0
S1424 S 0.29625 0.54804 0.04069 0.0
N1425 N 0.26894 0.58432 0.05405 0.0
N1426 N 0.30695 0.58188 1.02425 0.0
C1427 C 0.28818 0.62531 1.02915 0.0
C1428 C 0.26722 0.62649 0.04532 0.0
C1429 C 0.14859 0.50537 0.79061 0.0
C1430 C 0.10498 0.49722 0.79943 0.0
C1431 C 0.14831 0.52645 0.77476 0.0
C1432 C 0.10434 0.53938 0.76697 0.0
H1433 H 0.18335 0.49571 0.79603 0.0
H1434 H 0.18273 0.53159 0.76843 0.0
S1435 S 0.98004 0.52586 0.78476 0.0
N1436 N 0.01666 0.50434 0.79918 0.0
N1437 N 0.01593 0.54313 0.76948 0.0
C1438 C 0.06049 0.53158 0.7757 0.0
C1439 C 0.06085 0.51077 0.79188 0.0
C1440 C 0.34597 0.85871 0.08743 0.0
C1441 C 0.31992 0.83949 0.10095 0.0
C1442 C 0.36685 0.90524 0.08814 0.0
C1443 C 0.3635 0.93345 0.10253 0.0
H1444 H 0.3487 0.83846 0.07597 0.0
H1445 H 0.38496 0.9196 0.07728 0.0
S1446 S 0.30199 0.89939 0.14161 0.0
N1447 N 0.29336 0.85208 0.12933 0.0
N1448 N 0.33403 0.93901 0.13075 0.0
C1449 C 0.33916 0.91425 0.11631 0.0
C1450 C 0.31699 0.86733 0.11551 0.0
C1451 C 0.43629 0.11859 0.34677 0.0
C1452 C 0.44404 0.06802 0.34637 0.0
C1453 C 0.389 0.13795 0.34568 0.0
C1454 C 0.34826 0.10744 0.34358 0.0
H1455 H 0.46675 0.14322 0.34843 0.0
H1456 H 0.38417 0.17697 0.34671 0.0
S1457 S 0.3501 0.97232 0.34087 0.0
N1458 N 0.40772 0.98793 0.34316 0.0
N1459 N 0.31952 0.02395 0.34088 0.0
C1460 C 0.35604 0.05685 0.34265 0.0
C1461 C 0.40381 0.03723 0.34409 0.0
C1462 C 0.23252 0.15033 0.59652 0.0
C1463 C 0.20392 0.19237 0.5984 0.0
C1464 C 0.21112 0.10431 0.59544 0.0
C1465 C 0.16028 0.09838 0.59639 0.0
H1466 H 0.27186 0.15295 0.59573 0.0
H1467 H 0.23486 0.07308 0.59425 0.0
S1468 S 0.06917 0.19647 0.60193 0.0
N1469 N 0.12205 0.22525 0.60135 0.0
N1470 N 0.08187 0.138 0.5998 0.0
C1471 C 0.13119 0.13992 0.59848 0.0
C1472 C 0.15297 0.18712 0.59929 0.0
C1473 C 0.17542 0.95772 0.84482 0.0
C1474 C 0.17992 0.90674 0.8445 0.0
C1475 C 0.12986 0.98009 0.84597 0.0
C1476 C 0.08687 0.9524 0.84671 0.0
H1477 H 0.20737 0.98076 0.84461 0.0
H1478 H 0.12841 0.0195 0.84617 0.0
S1479 S 0.07896 0.81753 0.84674 0.0
N1480 N 0.13795 0.82905 0.84547 0.0
N1481 N 0.05161 0.87109 0.84728 0.0
C1482 C 0.09073 0.9013 0.84637 0.0
C1483 C 0.13743 0.87849 0.84543 0.0
C1484 C 0.29837 0.14648 0.47171 0.0
C1485 C 0.32717 0.18877 0.47194 0.0
C1486 C 0.31961 0.10028 0.47163 0.0
C1487 C 0.37052 0.0944 0.47159 0.0
H1488 H 0.25896 0.14898 0.47182 0.0
H1489 H 0.29578 0.06893 0.4714 0.0
S1490 S 0.46238 0.19311 0.47133 0.0
N1491 N 0.40949 0.22186 0.47176 0.0
N1492 N 0.44934 0.13437 0.47118 0.0
C1493 C 0.39988 0.13617 0.47147 0.0
C1494 C 0.37824 0.1835 0.47183 0.0
C1495 C 0.11132 0.09834 0.73969 0.0
C1496 C 0.08886 0.07862 0.72554 0.0
C1497 C 0.15726 0.12052 0.73876 0.0
C1498 C 0.18195 0.12449 0.72362 0.0
H1499 H 0.0942 0.09496 0.7517 0.0
H1500 H 0.17416 0.1335 0.75003 0.0
S1501 S 0.13673 0.08337 0.68272 0.0
N1502 N 0.09325 0.06765 0.69578 0.0
N1503 N 0.17933 0.10992 0.69398 0.0
C1504 C 0.15883 0.10727 0.70925 0.0
C1505 C 0.11239 0.08405 0.71023 0.0
C1506 C 0.2052 0.8587 0.95818 0.0
C1507 C 0.2027 0.82781 0.97199 0.0
C1508 C 0.18218 0.90421 0.95826 0.0
C1509 C 0.15679 0.92077 0.97228 0.0
H1510 H 0.22552 0.84786 0.94729 0.0
H1511 H 0.18589 0.92737 0.9475 0.0
S1512 S 0.13879 0.8539 1.01149 0.0
N1513 N 0.17153 0.81662 0.99993 0.0
N1514 N 0.12936 0.90287 1.0001 0.0
C1515 C 0.15325 0.89011 0.98604 0.0
C1516 C 0.1759 0.84337 0.98588 0.0
C1517 C 0.36379 0.92897 0.20717 0.0
C1518 C 0.34142 0.91021 0.22144 0.0
C1519 C 0.40992 0.95088 0.20798 0.0
C1520 C 0.43545 0.95372 0.22302 0.0
H1521 H 0.34473 0.92826 0.19545 0.0
H1522 H 0.42556 0.96597 0.1968 0.0
S1523 S 0.39227 0.90903 0.26378 0.0
N1524 N 0.34758 0.89555 0.2509 0.0
N1525 N 0.43491 0.93531 0.25246 0.0
C1526 C 0.41378 0.93383 0.23728 0.0
C1527 C 0.36651 0.91246 0.23648 0.0
C1528 C 0.65674 0.12006 0.98471 0.0
C1529 C 0.6591 0.09143 0.9704 0.0
C1530 C 0.6795 0.16567 0.98531 0.0
C1531 C 0.70647 0.18333 0.97176 0.0
H1532 H 0.63828 0.10654 0.99562 0.0
H1533 H 0.67762 0.18626 0.99671 0.0
S1534 S 0.72172 0.12208 0.9312 0.0
N1535 N 0.68795 0.08417 0.94215 0.0
N1536 N 0.73242 0.16916 0.94339 0.0
C1537 C 0.70813 0.15523 0.95725 0.0
C1538 C 0.68399 0.10936 0.95654 0.0
C1539 C 0.64893 0.89671 0.73284 0.0
C1540 C 0.67895 0.90063 0.71889 0.0
C1541 C 0.60244 0.9178 0.73301 0.0
C1542 C 0.58526 0.94466 0.71938 0.0
H1543 H 0.66207 0.87853 0.74385 0.0
H1544 H 0.58088 0.91511 0.74419 0.0
S1545 S 0.64976 0.96315 0.67958 0.0
N1546 N 0.68785 0.93044 0.69082 0.0
N1547 N 0.60114 0.97181 0.69128 0.0
C1548 C 0.61462 0.94759 0.70518 0.0
C1549 C 0.66141 0.92513 0.7049 0.0
C1550 C 0.83324 0.91522 0.4583 0.0
C1551 C 0.87132 0.92648 0.46922 0.0
C1552 C 0.81281 0.86862 0.45787 0.0
C1553 C 0.83 0.83138 0.46828 0.0
H1554 H 0.81839 0.94291 0.45025 0.0
H1555 H 0.78254 0.86215 0.44956 0.0
S1556 S 0.93262 0.84187 0.49804 0.0
N1557 N 0.92803 0.89668 0.48981 0.0
N1558 N 0.89008 0.80849 0.48908 0.0
C1559 C 0.87005 0.84164 0.47864 0.0
C1560 C 0.8907 0.88936 0.47907 0.0
C1561 C 0.90742 0.0827 0.20934 0.0
C1562 C 0.93406 0.07764 0.22407 0.0
C1563 C 0.86242 0.10691 0.20919 0.0
C1564 C 0.84244 0.1259 0.22382 0.0
H1565 H 0.92122 0.06749 0.1979 0.0
H1566 H 0.84222 0.10906 0.19771 0.0
S1567 S 0.89691 0.12138 0.26561 0.0
N1568 N 0.93721 0.09397 0.25362 0.0
N1569 N 0.85184 0.13803 0.25332 0.0
C1570 C 0.86871 0.12146 0.23857 0.0
C1571 C 0.91486 0.09772 0.23869 0.0
C1572 C 0.6712 0.85135 0.58979 0.0
C1573 C 0.69829 0.83566 0.60357 0.0
C1574 C 0.64923 0.89738 0.58955 0.0
C1575 C 0.65247 0.92842 0.60326 0.0
H1576 H 0.6689 0.82892 0.5788 0.0
H1577 H 0.63078 0.90932 0.57843 0.0
S1578 S 0.71565 0.90331 0.64279 0.0
N1579 N 0.72528 0.85409 0.6315 0.0
N1580 N 0.68217 0.9399 0.63125 0.0
C1581 C 0.67737 0.91241 0.61738 0.0
C1582 C 0.70077 0.86611 0.6175 0.0
C1583 C 0.86663 0.93045 0.36165 0.0
C1584 C 0.85301 0.90234 0.34791 0.0
C1585 C 0.91234 0.95293 0.36231 0.0
C1586 C 0.94602 0.9473 0.34936 0.0
H1587 H 0.84115 0.93638 0.37168 0.0
H1588 H 0.92107 0.97548 0.37289 0.0
S1589 S 0.92732 0.87634 0.31082 0.0
N1590 N 0.87594 0.86951 0.32122 0.0
N1591 N 0.96273 0.91069 0.32251 0.0
C1592 C 0.93322 0.91784 0.33579 0.0
C1593 C 0.88634 0.89564 0.33504 0.0
C1594 C 0.88313 0.13971 0.09465 0.0
C1595 C 0.85714 0.09954 0.10074 0.0
C1596 C 0.86346 0.18678 0.09554 0.0
C1597 C 0.81751 0.19515 0.1028 0.0
H1598 H 0.91815 0.13452 0.08872 0.0
H1599 H 0.88388 0.21649 0.09011 0.0
S1600 S 0.73837 0.10247 0.12281 0.0
N1601 N 0.7854 0.07165 0.11566 0.0
N1602 N 0.74903 0.1596 0.11773 0.0
C1603 C 0.79261 0.15543 0.10981 0.0
C1604 C 0.8123 0.1077 0.10869 0.0
C1605 C 0.66772 0.06969 0.863 0.0
C1606 C 0.67756 0.11011 0.85293 0.0
C1607 C 0.62144 0.04844 0.86334 0.0
C1608 C 0.58308 0.06719 0.85373 0.0
H1609 H 0.69626 0.05374 0.87046 0.0
H1610 H 0.61607 0.01642 0.87093 0.0
S1611 S 0.58947 0.17618 0.82661 0.0
N1612 N 0.64512 0.17066 0.83416 0.0
N1613 N 0.55747 0.13126 0.83477 0.0
C1614 C 0.59186 0.10954 0.84433 0.0
C1615 C 0.63928 0.13097 0.84397 0.0
C1616 C 0.872 0.34545 0.59468 0.0
C1617 C 0.82128 0.33799 0.59451 0.0
C1618 C 0.89167 0.39266 0.59398 0.0
C1619 C 0.86134 0.43374 0.59255 0.0
H1620 H 0.89656 0.31477 0.59584 0.0
H1621 H 0.93083 0.39714 0.59478 0.0
S1622 S 0.72585 0.43299 0.59088 0.0
N1623 N 0.74119 0.37516 0.59236 0.0
N1624 N 0.77778 0.46314 0.59083 0.0
C1625 C 0.81057 0.42633 0.59191 0.0
C1626 C 0.79064 0.37862 0.59293 0.0
C1627 C 0.87344 0.61809 0.83564 0.0
C1628 C 0.84625 0.61738 0.85031 0.0
C1629 C 0.92021 0.59768 0.83502 0.0
C1630 C 0.94065 0.5747 0.84895 0.0
H1631 H 0.85803 0.63364 0.8245 0.0
H1632 H 0.9396 0.59814 0.82335 0.0
S1633 S 0.88384 0.56439 0.89041 0.0
N1634 N 0.84306 0.59374 0.87919 0.0
N1635 N 0.93043 0.55384 0.87796 0.0
C1636 C 0.91391 0.57449 0.86377 0.0
C1637 C 0.86677 0.59625 0.86447 0.0
C1638 C 0.65036 0.68849 0.09687 0.0
C1639 C 0.70107 0.69522 0.09596 0.0
C1640 C 0.62991 0.6418 0.09544 0.0
C1641 C 0.6594 0.60078 0.09252 0.0
H1642 H 0.62657 0.7192 0.09921 0.0
H1643 H 0.59088 0.6376 0.09691 0.0
S1644 S 0.79445 0.60045 0.08815 0.0
N1645 N 0.78014 0.65796 0.09127 0.0
N1646 N 0.74218 0.57093 0.08846 0.0
C1647 C 0.7101 0.60771 0.09104 0.0
C1648 C 0.73082 0.65482 0.09277 0.0
C1649 C 0.67911 0.45955 0.34593 0.0
C1650 C 0.68496 0.40873 0.34544 0.0
C1651 C 0.63302 0.48068 0.3473 0.0
C1652 C 0.59078 0.45186 0.34808 0.0
H1653 H 0.71044 0.48343 0.34565 0.0
H1654 H 0.63055 0.52003 0.34759 0.0
S1655 S 0.58643 0.31685 0.34778 0.0
N1656 N 0.64507 0.32993 0.34636 0.0
N1657 N 0.55768 0.36966 0.34854 0.0
C1658 C 0.59597 0.4009 0.3476 0.0
C1659 C 0.64325 0.37934 0.34645 0.0
C1660 C 0.87403 0.61738 0.98589 0.0
C1661 C 0.87568 0.59049 0.97118 0.0
C1662 C 0.85126 0.66299 0.98642 0.0
C1663 C 0.8282 0.68249 0.97235 0.0
H1664 H 0.88949 0.60254 0.99713 0.0
H1665 H 0.85011 0.68221 0.99811 0.0
S1666 S 0.82352 0.62592 0.93074 0.0
N1667 N 0.85411 0.58651 0.94213 0.0
N1668 N 0.80982 0.67168 0.94316 0.0
C1669 C 0.83028 0.65601 0.95749 0.0
C1670 C 0.85442 0.61007 0.9569 0.0
C1671 C 0.63207 0.64124 0.21993 0.0
C1672 C 0.6732 0.61197 0.22293 0.0
C1673 C 0.58497 0.62103 0.21932 0.0
C1674 C 0.57763 0.57061 0.22118 0.0
H1675 H 0.63639 0.68 0.21794 0.0
H1676 H 0.55427 0.64488 0.21705 0.0
S1677 S 0.67315 0.47778 0.229 0.0
N1678 N 0.70294 0.52971 0.22769 0.0
N1679 N 0.61533 0.492 0.22634 0.0
C1680 C 0.61844 0.54101 0.22417 0.0
C1681 C 0.66599 0.56161 0.22508 0.0
C1682 C 0.70614 0.3641 0.46073 0.0
C1683 C 0.70424 0.33519 0.47505 0.0
C1684 C 0.68338 0.40971 0.46022 0.0
C1685 C 0.65877 0.42834 0.4741 0.0
H1686 H 0.72563 0.35156 0.44989 0.0
H1687 H 0.68654 0.43128 0.44906 0.0
S1688 S 0.64264 0.36723 0.51447 0.0
N1689 N 0.67464 0.32821 0.50334 0.0
N1690 N 0.6328 0.41457 0.50235 0.0
C1691 C 0.65595 0.39973 0.48838 0.0
C1692 C 0.67841 0.35292 0.48885 0.0
C1693 C 0.86796 0.42587 0.70916 0.0
C1694 C 0.85253 0.40115 0.72345 0.0
C1695 C 0.9117 0.45207 0.70899 0.0
C1696 C 0.94184 0.45344 0.72299 0.0
H1697 H 0.84512 0.42668 0.69824 0.0
H1698 H 0.92178 0.47167 0.69788 0.0
S1699 S 0.91842 0.39306 0.76324 0.0
N1700 N 0.8708 0.37862 0.75175 0.0
N1701 N 0.95395 0.42681 0.75139 0.0
C1702 C 0.92764 0.42736 0.73717 0.0
C1703 C 0.88266 0.40144 0.73741 0.0
C1704 C 0.20422 0.66059 0.45672 0.0
C1705 C 0.20142 0.69149 0.47056 0.0
C1706 C 0.18164 0.61483 0.45681 0.0
C1707 C 0.15624 0.59841 0.47081 0.0
H1708 H 0.22464 0.67152 0.44588 0.0
H1709 H 0.18565 0.59135 0.44612 0.0
S1710 S 0.13865 0.66459 0.51017 0.0
N1711 N 0.17059 0.70238 0.49855 0.0
N1712 N 0.12939 0.61563 0.49873 0.0
C1713 C 0.15255 0.62894 0.48459 0.0
C1714 C 0.17476 0.67582 0.48444 0.0
C1715 C 0.10742 0.45132 0.20742 0.0
C1716 C 0.07601 0.44965 0.22113 0.0
C1717 C 0.15242 0.42728 0.20768 0.0
C1718 C 0.1679 0.40169 0.22178 0.0
H1719 H 0.09746 0.47189 0.19651 0.0
H1720 H 0.17614 0.43049 0.19702 0.0
S1721 S 0.09916 0.38556 0.26075 0.0
N1722 N 0.06299 0.41896 0.24902 0.0
N1723 N 0.14837 0.3749 0.24954 0.0
C1724 C 0.13659 0.39884 0.23541 0.0
C1725 C 0.09036 0.42253 0.23507 0.0
C1726 C 0.34931 0.3507 0.98717 0.0
C1727 C 0.32861 0.3292 0.973 0.0
C1728 C 0.37127 0.39675 0.98644 0.0
C1729 C 0.37413 0.42245 0.97148 0.0
H1730 H 0.34692 0.33267 0.99905 0.0
H1731 H 0.3852 0.41283 0.99772 0.0
S1732 S 0.32927 0.38033 0.93065 0.0
N1733 N 0.31476 0.33588 0.94345 0.0
N1734 N 0.35686 0.42205 0.942 0.0
C1735 C 0.35557 0.40044 0.95709 0.0
C1736 C 0.33247 0.35394 0.95789 0.0
C1737 C 0.43321 0.60915 0.72658 0.0
C1738 C 0.44426 0.56573 0.71806 0.0
C1739 C 0.38597 0.62879 0.72637 0.0
C1740 C 0.34814 0.60536 0.71782 0.0
H1741 H 0.46086 0.62753 0.73381 0.0
H1742 H 0.37865 0.66165 0.73335 0.0
S1743 S 0.35903 0.49458 0.69179 0.0
N1744 N 0.41406 0.50274 0.69949 0.0
N1745 N 0.32587 0.53944 0.69932 0.0
C1746 C 0.3592 0.56334 0.70866 0.0
C1747 C 0.40713 0.54356 0.70873 0.0
C1748 C 0.19529 0.36859 0.11188 0.0
C1749 C 0.19478 0.3391 0.09769 0.0
C1750 C 0.17118 0.4135 0.1121 0.0
C1751 C 0.14659 0.43075 0.09804 0.0
H1752 H 0.21498 0.3572 0.12282 0.0
H1753 H 0.17366 0.43581 0.12312 0.0
S1754 S 0.13357 0.36732 0.05793 0.0
N1755 N 0.16623 0.32973 0.06937 0.0
N1756 N 0.12187 0.41489 0.06978 0.0
C1757 C 0.14478 0.40128 0.08392 0.0
C1758 C 0.16864 0.35519 0.08375 0.0
C1759 C 0.41075 0.44229 0.8612 0.0
C1760 C 0.4411 0.44091 0.84721 0.0
C1761 C 0.3647 0.42032 0.86102 0.0
C1762 C 0.34707 0.39703 0.84674 0.0
H1763 H 0.42238 0.46102 0.87231 0.0
H1764 H 0.34194 0.42329 0.87192 0.0
S1765 S 0.41233 0.38227 0.80701 0.0
N1766 N 0.45068 0.41291 0.81882 0.0
N1767 N 0.36354 0.37242 0.8185 0.0
C1768 C 0.37725 0.39443 0.8328 0.0
C1769 C 0.42449 0.41613 0.83304 0.0
C1770 C 0.37698 0.63125 0.58775 0.0
C1771 C 0.37274 0.60113 0.60165 0.0
C1772 C 0.35509 0.67733 0.58749 0.0
C1773 C 0.32712 0.69402 0.60096 0.0
H1774 H 0.39623 0.61856 0.57688 0.0
H1775 H 0.35826 0.69904 0.57637 0.0
S1776 S 0.30711 0.62895 0.64054 0.0
N1777 N 0.34116 0.59153 0.62948 0.0
N1778 N 0.29835 0.67744 0.62884 0.0
C1779 C 0.32365 0.66447 0.61508 0.0
C1780 C 0.34689 0.6181 0.61546 0.0
C1781 C 0.10486 0.60798 0.34032 0.0
C1782 C 0.08925 0.57642 0.35298 0.0
C1783 C 0.15104 0.62981 0.34084 0.0
C1784 C 0.18244 0.62159 0.35421 0.0
H1785 H 0.08225 0.61409 0.32955 0.0
H1786 H 0.1629 0.65187 0.3305 0.0
S1787 S 0.15718 0.54681 0.39131 0.0
N1788 N 0.10782 0.54091 0.37979 0.0
N1789 N 0.19393 0.58337 0.38094 0.0
C1790 C 0.1664 0.5924 0.36734 0.0
C1791 C 0.11988 0.56944 0.36669 0.0
C1792 C 0.5131 0.31772 0.09986 0.0
C1793 C 0.55633 0.29047 0.10155 0.0
C1794 C 0.46692 0.29565 0.101 0.0
C1795 C 0.46176 0.24523 0.10379 0.0
H1796 H 0.5148 0.35647 0.09748 0.0
H1797 H 0.435 0.31829 0.09931 0.0
S1798 S 0.56309 0.15746 0.1101 0.0
N1799 N 0.5905 0.21008 0.10691 0.0
N1800 N 0.50419 0.16904 0.10897 0.0
C1801 C 0.50462 0.21767 0.10585 0.0
C1802 C 0.55163 0.24011 0.10476 0.0
C1803 C 0.04466 0.30322 0.3498 0.0
C1804 C 0.9939 0.30962 0.35144 0.0
C1805 C 0.06592 0.2566 0.34985 0.0
C1806 C 0.03746 0.21421 0.35167 0.0
H1807 H 0.06827 0.33445 0.34814 0.0
H1808 H 0.10503 0.25388 0.34827 0.0
S1809 S 0.90286 0.2111 0.35753 0.0
N1810 N 0.91591 0.26946 0.35569 0.0
N1811 N 0.95542 0.18233 0.35589 0.0
C1812 C 0.98666 0.22025 0.35375 0.0
C1813 C 0.96505 0.26769 0.35359 0.0
C1814 C 0.05496 0.7388 0.60133 0.0
C1815 C 0.06091 0.78969 0.60233 0.0
C1816 C 1.00852 0.71716 0.60156 0.0
C1817 C 0.96579 0.74535 0.60295 0.0
H1818 H 0.08642 0.7153 0.60002 0.0
H1819 H 1.00622 0.67793 0.60049 0.0
S1820 S 0.96126 0.88024 0.60695 0.0
N1821 N 0.01989 0.86763 0.60544 0.0
N1822 N 0.93296 0.82731 0.60597 0.0
C1823 C 0.97129 0.7963 0.60438 0.0
C1824 C 0.01862 0.81833 0.60403 0.0
C1825 C 0.53807 0.79446 0.85371 0.0
C1826 C 0.48703 0.79998 0.85313 0.0
C1827 C 0.55998 0.74832 0.85427 0.0
C1828 C 0.53198 0.70531 0.85439 0.0
H1829 H 0.56164 0.82609 0.85343 0.0
H1830 H 0.59942 0.74653 0.85442 0.0
S1831 S 0.39657 0.69929 0.854 0.0
N1832 N 0.40888 0.75807 0.8534 0.0
N1833 N 0.4499 0.67153 0.85451 0.0
C1834 C 0.48077 0.71022 0.85425 0.0
C1835 C 0.45841 0.75736 0.85359 0.0
C1836 C 0.55759 0.7878 0.46698 0.0
C1837 C 0.56329 0.73681 0.46633 0.0
C1838 C 0.51124 0.80964 0.46693 0.0
C1839 C 0.46829 0.78159 0.4661 0.0
H1840 H 0.58922 0.81124 0.46793 0.0
H1841 H 0.50919 0.84894 0.46777 0.0
S1842 S 0.463 0.64649 0.46297 0.0
N1843 N 0.52176 0.65892 0.464 0.0
N1844 N 0.43499 0.69958 0.4638 0.0
C1845 C 0.47352 0.73052 0.46494 0.0
C1846 C 0.52078 0.7083 0.46509 0.0
C1847 C 0.47017 0.25449 0.71895 0.0
C1848 C 0.49749 0.2111 0.71827 0.0
C1849 C 0.49288 0.30038 0.71913 0.0
C1850 C 0.54406 0.3052 0.71878 0.0
H1851 H 0.43075 0.25316 0.7195 0.0
H1852 H 0.46991 0.33237 0.71987 0.0
S1853 S 0.63279 0.20336 0.71618 0.0
N1854 N 0.57908 0.17634 0.71662 0.0
N1855 N 0.62139 0.26227 0.71707 0.0
C1856 C 0.57189 0.26221 0.71779 0.0
C1857 C 0.54877 0.2154 0.7175 0.0
C1858 C 0.0147 0.304 0.96743 0.0
C1859 C 0.97127 0.27655 0.96718 0.0
C1860 C 0.06071 0.28154 0.96767 0.0
C1861 C 0.06568 0.23047 0.9678 0.0
H1862 H 0.01333 0.3434 0.96764 0.0
H1863 H 0.09266 0.30466 0.96812 0.0
S1864 S 0.96383 0.14137 0.96626 0.0
N1865 N 0.93662 0.19494 0.96634 0.0
N1866 N 0.02282 0.15298 0.96687 0.0
C1867 C 0.02266 0.20245 0.96717 0.0
C1868 C 0.97568 0.22535 0.96683 0.0
C1869 C 0.95794 0.76078 0.21753 0.0
C1870 C 0.98559 0.71807 0.21518 0.0
C1871 C 0.97968 0.80718 0.2172 0.0
C1872 C 0.03015 0.81305 0.21461 0.0
H1873 H 0.91919 0.75848 0.21997 0.0
H1874 H 0.95681 0.83861 0.21948 0.0
S1875 S 0.11866 0.71364 0.20632 0.0
N1876 N 0.0662 0.68539 0.20905 0.0
N1877 N 0.10667 0.77212 0.20854 0.0
C1878 C 0.05801 0.77084 0.2117 0.0
C1879 C 0.03589 0.72361 0.21195 0.0
C1880 C 0.51249 0.70795 0.96873 0.0
C1881 C 0.46947 0.73524 0.96638 0.0
C1882 C 0.55888 0.73005 0.96854 0.0
C1883 C 0.56448 0.78056 0.9661 0.0
H1884 H 0.51043 0.66916 0.97102 0.0
H1885 H 0.59051 0.70741 0.97075 0.0
S1886 S 0.46421 0.86835 0.95801 0.0
N1887 N 0.43631 0.81567 0.96053 0.0
N1888 N 0.52281 0.85677 0.96027 0.0
C1889 C 0.52193 0.80809 0.96326 0.0
C1890 C 0.47476 0.78561 0.96337 0.0
C1891 C 0.98733 0.72784 0.71664 0.0
C1892 C 0.03836 0.72248 0.71592 0.0
C1893 C 0.96524 0.77399 0.71707 0.0
C1894 C 0.99301 0.81722 0.71673 0.0
H1895 H 0.96399 0.69609 0.71722 0.0
H1896 H 0.92587 0.77559 0.71788 0.0
S1897 S 0.12809 0.82379 0.71377 0.0
N1898 N 0.11609 0.76493 0.71411 0.0
N1899 N 0.07472 0.85131 0.71488 0.0
C1900 C 0.04409 0.81247 0.71555 0.0
C1901 C 0.06665 0.76536 0.71517 0.0
C1902 C 1.01201 0.21395 0.46987 0.0
C1903 C 0.9684 0.24099 0.46882 0.0
C1904 C 0.05798 0.23675 0.46983 0.0
C1905 C 0.06271 0.28777 0.46881 0.0
H1906 H 1.01082 0.17466 0.47089 0.0
H1907 H 0.09008 0.21402 0.47088 0.0
S1908 S 0.96027 0.37568 0.46498 0.0
N1909 N 0.93341 0.32204 0.4661 0.0
N1910 N 0.01927 0.36458 0.46607 0.0
C1911 C 0.01945 0.31527 0.46744 0.0
C1912 C 0.97261 0.29204 0.46743 0.0
C1913 C 0.55292 0.25986 0.21951 0.0
C1914 C 0.52641 0.21594 0.21874 0.0
C1915 C 0.52948 0.30537 0.21997 0.0
C1916 C 0.47823 0.30944 0.2198 0.0
H1917 H 0.59238 0.25929 0.2199 0.0
H1918 H 0.55201 0.33767 0.22074 0.0
S1919 S 0.39124 0.20601 0.21711 0.0
N1920 N 0.44542 0.17987 0.21726 0.0
N1921 N 0.40162 0.26511 0.21822 0.0
C1922 C 0.45112 0.26592 0.21876 0.0
C1923 C 0.47505 0.21942 0.21819 0.0
C1924 C 0.51835 0.21557 0.60202 0.0
C1925 C 0.56222 0.24234 0.60211 0.0
C1926 C 0.4726 0.23876 0.60241 0.0
C1927 C 0.46833 0.28992 0.60283 0.0
H1928 H 0.51916 0.17618 0.60151 0.0
H1929 H 0.44027 0.21616 0.6021 0.0
S1930 S 0.57181 0.37736 0.60391 0.0
N1931 N 0.5981 0.32339 0.60316 0.0
N1932 N 0.51263 0.36664 0.60385 0.0
C1933 C 0.51191 0.3172 0.60321 0.0
C1934 C 0.55855 0.29357 0.60286 0.0
C1935 C 0.49275 0.80506 0.35322 0.0
C1936 C 0.54393 0.80969 0.35318 0.0
C1937 C 0.4699 0.75919 0.35353 0.0
C1938 C 0.49709 0.71562 0.3539 0.0
H1939 H 0.46989 0.83716 0.3527 0.0
H1940 H 0.43045 0.75804 0.35329 0.0
S1941 S 0.63239 0.70731 0.35494 0.0
N1942 N 0.62116 0.76626 0.35422 0.0
N1943 N 0.57855 0.68054 0.35486 0.0
C1944 C 0.54837 0.71974 0.35427 0.0
C1945 C 0.57163 0.76648 0.35388 0.0
C1946 C 0.05269 0.79153 0.10196 0.0
C1947 C 0.05739 0.74044 0.10155 0.0
C1948 C 1.00679 0.81425 0.10206 0.0
C1949 C 0.96319 0.78707 0.10188 0.0
H1950 H 0.08479 0.81447 0.10193 0.0
H1951 H 1.00566 0.85365 0.10217 0.0
S1952 S 0.9548 0.65195 0.10152 0.0
N1953 N 0.0139 0.66319 0.10147 0.0
N1954 N 0.92796 0.70571 0.10173 0.0
C1955 C 0.96726 0.73585 0.10181 0.0
C1956 C 0.01411 0.71267 0.10162 0.0
C1957 C 0.0613 0.26911 0.84875 0.0
C1958 C 0.03413 0.31232 0.85072 0.0
C1959 C 0.03896 0.22295 0.84922 0.0
C1960 C 0.98828 0.21764 0.85158 0.0
H1961 H 0.10026 0.27081 0.84669 0.0
H1962 H 0.06169 0.19115 0.84743 0.0
S1963 S 0.90039 0.31879 0.85817 0.0
N1964 N 0.95341 0.34623 0.85573 0.0
N1965 N 0.91182 0.26003 0.85653 0.0
C1966 C 0.96073 0.26046 0.85384 0.0
C1967 C 0.98348 0.30748 0.85344 0.0
loop_
_geom_bond_atom_site_label_1
_geom_bond_atom_site_label_2
_geom_bond_distance
_geom_bond_site_symmetry_2
_ccdc_geom_bond_type
Co0 O3 1.970 . S
Co0 N17 1.989 . S
Co0 O25 1.967 . S
Co0 O32 1.920 . S
Co1 O4 1.966 . S
Co1 N10 2.022 . S
Co1 N18 1.993 . S
Co1 O26 1.941 . S
C2 O3 1.258 . S
C2 O4 1.263 . S
O3 Co0 1.970 . S
O3 C2 1.258 . S
O4 Co1 1.966 . S
O4 C2 1.263 . S
C5 O6 1.235 . S
C5 O32 1.289 . S
O6 C5 1.235 . S
C7 C9 1.400 1_545 S
C7 N10 1.351 . S
C7 C12 1.501 . S
C8 C9 1.387 . S
C8 N11 1.341 1_565 S
C9 C7 1.400 1_565 S
C9 C8 1.387 . S
N10 Co1 2.022 . S
N10 C7 1.351 . S
N10 N11 1.365 . S
N11 C8 1.341 1_545 S
N11 N10 1.365 . S
N11 H31 0.862 . S
C12 C7 1.501 . S
C12 H13 0.961 . S
C12 H14 0.961 . S
C12 H15 0.960 . S
H13 C12 0.961 . S
H14 C12 0.961 . S
H15 C12 0.960 . S
C16 N17 1.342 . S
C16 C20 1.401 . S
C16 C21 1.499 . S
N17 Co0 1.989 . S
N17 C16 1.342 . S
N17 N18 1.388 . S
N18 Co1 1.993 . S
N18 N17 1.388 . S
N18 C19 1.346 . S
C19 N18 1.346 . S
C19 C20 1.396 . S
C19 C29 1.510 . S
C20 C16 1.401 . S
C20 C19 1.396 . S
C21 C16 1.499 . S
C21 H22 0.959 . S
C21 H23 0.960 . S
C21 H24 0.961 . S
H22 C21 0.959 . S
H23 C21 0.960 . S
H24 C21 0.961 . S
O25 Co0 1.967 . S
O25 C33 1.258 . S
O26 Co1 1.941 . S
O26 C33 1.266 . S
H27 C29 0.959 . S
H28 C29 0.961 . S
C29 C19 1.510 . S
C29 H27 0.959 . S
C29 H28 0.961 . S
C29 H30 0.960 . S
H30 C29 0.960 . S
H31 N11 0.862 . S
O32 Co0 1.920 . S
O32 C5 1.289 . S
C33 O25 1.258 . S
C33 O26 1.266 . S
Co34 O37 1.970 . S
Co34 N51 1.989 1_545 S
Co34 O59 1.967 . S
Co34 O66 1.920 1_455 S
Co35 O38 1.966 . S
Co35 N44 2.022 . S
Co35 N52 1.993 . S
Co35 O60 1.941 . S
C36 O37 1.258 . S
C36 O38 1.263 . S
O37 Co34 1.970 . S
O37 C36 1.258 . S
O38 Co35 1.966 . S
O38 C36 1.263 . S
C39 O40 1.235 . S
C39 O66 1.289 1_565 S
O40 C39 1.235 . S
C41 C43 1.400 . S
C41 N44 1.351 . S
C41 C46 1.501 . S
C42 C43 1.387 . S
C42 N45 1.341 . S
C43 C41 1.400 . S
C43 C42 1.387 . S
N44 Co35 2.022 . S
N44 C41 1.351 . S
N44 N45 1.365 . S
N45 C42 1.341 . S
N45 N44 1.365 . S
N45 H65 0.862 . S
C46 C41 1.501 . S
C46 H47 0.961 . S
C46 H48 0.961 1_545 S
C46 H49 0.960 . S
H47 C46 0.961 . S
H48 C46 0.961 1_565 S
H49 C46 0.960 . S
C50 N51 1.342 . S
C50 C54 1.401 . S
C50 C55 1.499 1_455 S
N51 Co34 1.989 1_565 S
N51 C50 1.342 . S
N51 N52 1.388 1_565 S
N52 Co35 1.993 . S
N52 N51 1.388 1_545 S
N52 C53 1.346 1_545 S
C53 N52 1.346 1_565 S
C53 C54 1.396 . S
C53 C63 1.510 . S
C54 C50 1.401 . S
C54 C53 1.396 . S
C55 C50 1.499 1_655 S
C55 H56 0.959 . S
C55 H57 0.960 . S
C55 H58 0.961 . S
H56 C55 0.959 . S
H57 C55 0.960 . S
H58 C55 0.961 . S
O59 Co34 1.967 . S
O59 C67 1.258 . S
O60 Co35 1.941 . S
O60 C67 1.266 . S
H61 C63 0.959 . S
H62 C63 0.961 . S
C63 C53 1.510 . S
C63 H61 0.959 . S
C63 H62 0.961 . S
C63 H64 0.960 . S
H64 C63 0.960 . S
H65 N45 0.862 . S
O66 Co34 1.920 1_655 S
O66 C39 1.289 1_545 S
C67 O59 1.258 . S
C67 O60 1.266 . S
Co68 O71 1.970 . S
Co68 N85 1.989 . S
Co68 O93 1.967 . S
Co68 O100 1.920 . S
Co69 O72 1.966 . S
Co69 N78 2.022 . S
Co69 N86 1.993 . S
Co69 O94 1.941 . S
C70 O71 1.258 . S
C70 O72 1.263 . S
O71 Co68 1.970 . S
O71 C70 1.258 . S
O72 Co69 1.966 . S
O72 C70 1.263 . S
C73 O74 1.235 . S
C73 O100 1.289 . S
O74 C73 1.235 . S
C75 C77 1.400 1_565 S
C75 N78 1.351 . S
C75 C80 1.501 . S
C76 C77 1.387 . S
C76 N79 1.341 1_545 S
C77 C75 1.400 1_545 S
C77 C76 1.387 . S
N78 Co69 2.022 . S
N78 C75 1.351 . S
N78 N79 1.365 . S
N79 C76 1.341 1_565 S
N79 N78 1.365 . S
N79 H99 0.862 . S
C80 C75 1.501 . S
C80 H81 0.961 . S
C80 H82 0.961 . S
C80 H83 0.960 . S
H81 C80 0.961 . S
H82 C80 0.961 . S
H83 C80 0.960 . S
C84 N85 1.342 . S
C84 C88 1.401 . S
C84 C89 1.499 . S
N85 Co68 1.989 . S
N85 C84 1.342 . S
N85 N86 1.388 . S
N86 Co69 1.993 . S
N86 N85 1.388 . S
N86 C87 1.346 . S
C87 N86 1.346 . S
C87 C88 1.396 . S
C87 C97 1.510 . S
C88 C84 1.401 . S
C88 C87 1.396 . S
C89 C84 1.499 . S
C89 H90 0.959 . S
C89 H91 0.960 . S
C89 H92 0.961 . S
H90 C89 0.959 . S
H91 C89 0.960 . S
H92 C89 0.961 . S
O93 Co68 1.967 . S
O93 C101 1.258 . S
O94 Co69 1.941 . S
O94 C101 1.266 . S
H95 C97 0.959 . S
H96 C97 0.961 . S
C97 C87 1.510 . S
C97 H95 0.959 . S
C97 H96 0.961 . S
C97 H98 0.960 . S
H98 C97 0.960 . S
H99 N79 0.862 . S
O100 Co68 1.920 . S
O100 C73 1.289 . S
C101 O93 1.258 . S
C101 O94 1.266 . S
Co102 O105 1.970 . S
Co102 N119 1.989 1_565 S
Co102 O127 1.967 . S
Co102 O134 1.920 . S
Co103 O106 1.966 . S
Co103 N112 2.022 . S
Co103 N120 1.993 . S
Co103 O128 1.941 . S
C104 O105 1.258 . S
C104 O106 1.263 . S
O105 Co102 1.970 . S
O105 C104 1.258 . S
O106 Co103 1.966 . S
O106 C104 1.263 . S
C107 O108 1.235 . S
C107 O134 1.289 1_545 S
O108 C107 1.235 . S
C109 C111 1.400 . S
C109 N112 1.351 . S
C109 C114 1.501 . S
C110 C111 1.387 . S
C110 N113 1.341 . S
C111 C109 1.400 . S
C111 C110 1.387 . S
N112 Co103 2.022 . S
N112 C109 1.351 . S
N112 N113 1.365 . S
N113 C110 1.341 . S
N113 N112 1.365 . S
N113 H133 0.862 . S
C114 C109 1.501 . S
C114 H115 0.961 . S
C114 H116 0.961 1_565 S
C114 H117 0.960 . S
H115 C114 0.961 . S
H116 C114 0.961 1_545 S
H117 C114 0.960 . S
C118 N119 1.342 . S
C118 C122 1.401 . S
C118 C123 1.499 . S
N119 Co102 1.989 1_545 S
N119 C118 1.342 . S
N119 N120 1.388 1_545 S
N120 Co103 1.993 . S
N120 N119 1.388 1_565 S
N120 C121 1.346 1_565 S
C121 N120 1.346 1_545 S
C121 C122 1.396 . S
C121 C131 1.510 . S
C122 C118 1.401 . S
C122 C121 1.396 . S
C123 C118 1.499 . S
C123 H124 0.959 . S
C123 H125 0.960 . S
C123 H126 0.961 . S
H124 C123 0.959 . S
H125 C123 0.960 . S
H126 C123 0.961 . S
O127 Co102 1.967 . S
O127 C135 1.258 . S
O128 Co103 1.941 . S
O128 C135 1.266 . S
H129 C131 0.959 . S
H130 C131 0.961 . S
C131 C121 1.510 . S
C131 H129 0.959 . S
C131 H130 0.961 . S
C131 H132 0.960 . S
H132 C131 0.960 . S
H133 N113 0.862 . S
O134 Co102 1.920 . S
O134 C107 1.289 1_565 S
C135 O127 1.258 . S
C135 O128 1.266 . S
Co136 O139 1.970 . S
Co136 N153 1.989 . S
Co136 O161 1.967 . S
Co136 O168 1.920 . S
Co137 O140 1.966 . S
Co137 N146 2.022 . S
Co137 N154 1.993 . S
Co137 O162 1.941 . S
C138 O139 1.258 . S
C138 O140 1.263 . S
O139 Co136 1.970 . S
O139 C138 1.258 . S
O140 Co137 1.966 . S
O140 C138 1.263 . S
C141 O142 1.235 . S
C141 O168 1.289 . S
O142 C141 1.235 . S
C143 C145 1.400 1_565 S
C143 N146 1.351 . S
C143 C148 1.501 . S
C144 C145 1.387 . S
C144 N147 1.341 1_545 S
C145 C143 1.400 1_545 S
C145 C144 1.387 . S
N146 Co137 2.022 . S
N146 C143 1.351 . S
N146 N147 1.365 . S
N147 C144 1.341 1_565 S
N147 N146 1.365 . S
N147 H167 0.862 . S
C148 C143 1.501 . S
C148 H149 0.961 . S
C148 H150 0.961 . S
C148 H151 0.960 . S
H149 C148 0.961 . S
H150 C148 0.961 . S
H151 C148 0.960 . S
C152 N153 1.342 . S
C152 C156 1.401 . S
C152 C157 1.499 . S
N153 Co136 1.989 . S
N153 C152 1.342 . S
N153 N154 1.388 . S
N154 Co137 1.993 . S
N154 N153 1.388 . S
N154 C155 1.346 . S
C155 N154 1.346 . S
C155 C156 1.396 . S
C155 C165 1.510 . S
C156 C152 1.401 . S
C156 C155 1.396 . S
C157 C152 1.499 . S
C157 H158 0.959 . S
C157 H159 0.960 . S
C157 H160 0.961 . S
H158 C157 0.959 . S
H159 C157 0.960 . S
H160 C157 0.961 . S
O161 Co136 1.967 . S
O161 C169 1.258 . S
O162 Co137 1.941 . S
O162 C169 1.266 . S
H163 C165 0.959 . S
H164 C165 0.961 . S
C165 C155 1.510 . S
C165 H163 0.959 . S
C165 H164 0.961 . S
C165 H166 0.960 . S
H166 C165 0.960 . S
H167 N147 0.862 . S
O168 Co136 1.920 . S
O168 C141 1.289 . S
C169 O161 1.258 . S
C169 O162 1.266 . S
Co170 O173 1.970 . S
Co170 N187 1.989 1_545 S
Co170 O195 1.967 . S
Co170 O202 1.920 . S
Co171 O174 1.966 . S
Co171 N180 2.022 . S
Co171 N188 1.993 . S
Co171 O196 1.941 . S
C172 O173 1.258 . S
C172 O174 1.263 . S
O173 Co170 1.970 . S
O173 C172 1.258 . S
O174 Co171 1.966 . S
O174 C172 1.263 . S
C175 O176 1.235 . S
C175 O202 1.289 1_565 S
O176 C175 1.235 . S
C177 C179 1.400 . S
C177 N180 1.351 . S
C177 C182 1.501 . S
C178 C179 1.387 . S
C178 N181 1.341 . S
C179 C177 1.400 . S
C179 C178 1.387 . S
N180 Co171 2.022 . S
N180 C177 1.351 . S
N180 N181 1.365 . S
N181 C178 1.341 . S
N181 N180 1.365 . S
N181 H201 0.862 . S
C182 C177 1.501 . S
C182 H183 0.961 . S
C182 H184 0.961 1_545 S
C182 H185 0.960 . S
H183 C182 0.961 . S
H184 C182 0.961 1_565 S
H185 C182 0.960 . S
C186 N187 1.342 . S
C186 C190 1.401 . S
C186 C191 1.499 . S
N187 Co170 1.989 1_565 S
N187 C186 1.342 . S
N187 N188 1.388 1_565 S
N188 Co171 1.993 . S
N188 N187 1.388 1_545 S
N188 C189 1.346 1_545 S
C189 N188 1.346 1_565 S
C189 C190 1.396 . S
C189 C199 1.510 . S
C190 C186 1.401 . S
C190 C189 1.396 . S
C191 C186 1.499 . S
C191 H192 0.959 . S
C191 H193 0.960 . S
C191 H194 0.961 . S
H192 C191 0.959 . S
H193 C191 0.960 . S
H194 C191 0.961 . S
O195 Co170 1.967 . S
O195 C203 1.258 . S
O196 Co171 1.941 . S
O196 C203 1.266 . S
H197 C199 0.959 . S
H198 C199 0.961 . S
C199 C189 1.510 . S
C199 H197 0.959 . S
C199 H198 0.961 . S
C199 H200 0.960 . S
H200 C199 0.960 . S
H201 N181 0.862 . S
O202 Co170 1.920 . S
O202 C175 1.289 1_545 S
C203 O195 1.258 . S
C203 O196 1.266 . S
Co204 O207 1.970 . S
Co204 N221 1.989 . S
Co204 O229 1.967 . S
Co204 O236 1.920 . S
Co205 O208 1.966 . S
Co205 N214 2.022 . S
Co205 N222 1.993 . S
Co205 O230 1.941 . S
C206 O207 1.258 . S
C206 O208 1.263 . S
O207 Co204 1.970 . S
O207 C206 1.258 . S
O208 Co205 1.966 . S
O208 C206 1.263 . S
C209 O210 1.235 . S
C209 O236 1.289 . S
O210 C209 1.235 . S
C211 C213 1.400 1_545 S
C211 N214 1.351 . S
C211 C216 1.501 . S
C212 C213 1.387 . S
C212 N215 1.341 1_565 S
C213 C211 1.400 1_565 S
C213 C212 1.387 . S
N214 Co205 2.022 . S
N214 C211 1.351 . S
N214 N215 1.365 . S
N215 C212 1.341 1_545 S
N215 N214 1.365 . S
N215 H235 0.862 . S
C216 C211 1.501 . S
C216 H217 0.961 . S
C216 H218 0.961 . S
C216 H219 0.960 . S
H217 C216 0.961 . S
H218 C216 0.961 . S
H219 C216 0.960 . S
C220 N221 1.342 . S
C220 C224 1.401 . S
C220 C225 1.499 . S
N221 Co204 1.989 . S
N221 C220 1.342 . S
N221 N222 1.388 . S
N222 Co205 1.993 . S
N222 N221 1.388 . S
N222 C223 1.346 . S
C223 N222 1.346 . S
C223 C224 1.396 . S
C223 C233 1.510 . S
C224 C220 1.401 . S
C224 C223 1.396 . S
C225 C220 1.499 . S
C225 H226 0.959 . S
C225 H227 0.960 . S
C225 H228 0.961 . S
H226 C225 0.959 . S
H227 C225 0.960 . S
H228 C225 0.961 . S
O229 Co204 1.967 . S
O229 C237 1.258 . S
O230 Co205 1.941 . S
O230 C237 1.266 . S
H231 C233 0.959 . S
H232 C233 0.961 . S
C233 C223 1.510 . S
C233 H231 0.959 . S
C233 H232 0.961 . S
C233 H234 0.960 . S
H234 C233 0.960 . S
H235 N215 0.862 . S
O236 Co204 1.920 . S
O236 C209 1.289 . S
C237 O229 1.258 . S
C237 O230 1.266 . S
Co238 O241 1.970 . S
Co238 N255 1.989 1_565 S
Co238 O263 1.967 . S
Co238 O270 1.920 1_455 S
Co239 O242 1.966 . S
Co239 N248 2.022 . S
Co239 N256 1.993 . S
Co239 O264 1.941 . S
C240 O241 1.258 . S
C240 O242 1.263 . S
O241 Co238 1.970 . S
O241 C240 1.258 . S
O242 Co239 1.966 . S
O242 C240 1.263 . S
C243 O244 1.235 . S
C243 O270 1.289 1_545 S
O244 C243 1.235 . S
C245 C247 1.400 . S
C245 N248 1.351 . S
C245 C250 1.501 . S
C246 C247 1.387 . S
C246 N249 1.341 . S
C247 C245 1.400 . S
C247 C246 1.387 . S
N248 Co239 2.022 . S
N248 C245 1.351 . S
N248 N249 1.365 . S
N249 C246 1.341 . S
N249 N248 1.365 . S
N249 H269 0.862 . S
C250 C245 1.501 . S
C250 H251 0.961 . S
C250 H252 0.961 1_565 S
C250 H253 0.960 . S
H251 C250 0.961 . S
H252 C250 0.961 1_545 S
H253 C250 0.960 . S
C254 N255 1.342 . S
C254 C258 1.401 . S
C254 C259 1.499 1_455 S
N255 Co238 1.989 1_545 S
N255 C254 1.342 . S
N255 N256 1.388 1_545 S
N256 Co239 1.993 . S
N256 N255 1.388 1_565 S
N256 C257 1.346 1_565 S
C257 N256 1.346 1_545 S
C257 C258 1.396 . S
C257 C267 1.510 . S
C258 C254 1.401 . S
C258 C257 1.396 . S
C259 C254 1.499 1_655 S
C259 H260 0.959 . S
C259 H261 0.960 . S
C259 H262 0.961 . S
H260 C259 0.959 . S
H261 C259 0.960 . S
H262 C259 0.961 . S
O263 Co238 1.967 . S
O263 C271 1.258 . S
O264 Co239 1.941 . S
O264 C271 1.266 . S
H265 C267 0.959 . S
H266 C267 0.961 . S
C267 C257 1.510 . S
C267 H265 0.959 . S
C267 H266 0.961 . S
C267 H268 0.960 . S
H268 C267 0.960 . S
H269 N249 0.862 . S
O270 Co238 1.920 1_655 S
O270 C243 1.289 1_565 S
C271 O263 1.258 . S
C271 O264 1.266 . S
Co272 O275 1.970 . S
Co272 N289 1.989 . S
Co272 O297 1.967 . S
Co272 O304 1.920 . S
Co273 O276 1.966 . S
Co273 N282 2.022 . S
Co273 N290 1.993 . S
Co273 O298 1.941 . S
C274 O275 1.258 . S
C274 O276 1.263 . S
O275 Co272 1.970 . S
O275 C274 1.258 . S
O276 Co273 1.966 . S
O276 C274 1.263 . S
C277 O278 1.235 . S
C277 O304 1.289 . S
O278 C277 1.235 . S
C279 C281 1.400 1_565 S
C279 N282 1.351 . S
C279 C284 1.501 . S
C280 C281 1.387 . S
C280 N283 1.341 1_545 S
C281 C279 1.400 1_545 S
C281 C280 1.387 . S
N282 Co273 2.022 . S
N282 C279 1.351 . S
N282 N283 1.365 . S
N283 C280 1.341 1_565 S
N283 N282 1.365 . S
N283 H303 0.862 . S
C284 C279 1.501 . S
C284 H285 0.961 . S
C284 H286 0.961 . S
C284 H287 0.960 . S
H285 C284 0.961 . S
H286 C284 0.961 . S
H287 C284 0.960 . S
C288 N289 1.342 . S
C288 C292 1.401 . S
C288 C293 1.499 . S
N289 Co272 1.989 . S
N289 C288 1.342 . S
N289 N290 1.388 . S
N290 Co273 1.993 . S
N290 N289 1.388 . S
N290 C291 1.346 . S
C291 N290 1.346 . S
C291 C292 1.396 . S
C291 C301 1.510 . S
C292 C288 1.401 . S
C292 C291 1.396 . S
C293 C288 1.499 . S
C293 H294 0.959 . S
C293 H295 0.960 . S
C293 H296 0.961 . S
H294 C293 0.959 . S
H295 C293 0.960 . S
H296 C293 0.961 . S
O297 Co272 1.967 . S
O297 C305 1.258 . S
O298 Co273 1.941 . S
O298 C305 1.266 . S
H299 C301 0.959 . S
H300 C301 0.961 . S
C301 C291 1.510 . S
C301 H299 0.959 . S
C301 H300 0.961 . S
C301 H302 0.960 . S
H302 C301 0.960 . S
H303 N283 0.862 . S
O304 Co272 1.920 . S
O304 C277 1.289 . S
C305 O297 1.258 . S
C305 O298 1.266 . S
Co306 O309 1.970 . S
Co306 N323 1.989 1_565 S
Co306 O331 1.967 . S
Co306 O338 1.920 1_655 S
Co307 O310 1.966 . S
Co307 N316 2.022 . S
Co307 N324 1.993 . S
Co307 O332 1.941 . S
C308 O309 1.258 . S
C308 O310 1.263 . S
O309 Co306 1.970 . S
O309 C308 1.258 . S
O310 Co307 1.966 . S
O310 C308 1.263 . S
C311 O312 1.235 . S
C311 O338 1.289 1_545 S
O312 C311 1.235 . S
C313 C315 1.400 . S
C313 N316 1.351 . S
C313 C318 1.501 . S
C314 C315 1.387 . S
C314 N317 1.341 . S
C315 C313 1.400 . S
C315 C314 1.387 . S
N316 Co307 2.022 . S
N316 C313 1.351 . S
N316 N317 1.365 . S
N317 C314 1.341 . S
N317 N316 1.365 . S
N317 H337 0.862 . S
C318 C313 1.501 . S
C318 H319 0.961 . S
C318 H320 0.961 1_565 S
C318 H321 0.960 . S
H319 C318 0.961 . S
H320 C318 0.961 1_545 S
H321 C318 0.960 . S
C322 N323 1.342 . S
C322 C326 1.401 . S
C322 C327 1.499 1_655 S
N323 Co306 1.989 1_545 S
N323 C322 1.342 . S
N323 N324 1.388 1_545 S
N324 Co307 1.993 . S
N324 N323 1.388 1_565 S
N324 C325 1.346 1_565 S
C325 N324 1.346 1_545 S
C325 C326 1.396 . S
C325 C335 1.510 . S
C326 C322 1.401 . S
C326 C325 1.396 . S
C327 C322 1.499 1_455 S
C327 H328 0.959 . S
C327 H329 0.960 . S
C327 H330 0.961 . S
H328 C327 0.959 . S
H329 C327 0.960 . S
H330 C327 0.961 . S
O331 Co306 1.967 . S
O331 C339 1.258 . S
O332 Co307 1.941 . S
O332 C339 1.266 . S
H333 C335 0.959 . S
H334 C335 0.961 . S
C335 C325 1.510 . S
C335 H333 0.959 . S
C335 H334 0.961 . S
C335 H336 0.960 . S
H336 C335 0.960 . S
H337 N317 0.862 . S
O338 Co306 1.920 1_455 S
O338 C311 1.289 1_565 S
C339 O331 1.258 . S
C339 O332 1.266 . S
Co340 O343 1.970 . S
Co340 N357 1.989 . S
Co340 O365 1.967 . S
Co340 O372 1.920 . S
Co341 O344 1.966 . S
Co341 N350 2.022 . S
Co341 N358 1.993 . S
Co341 O366 1.941 . S
C342 O343 1.258 . S
C342 O344 1.263 . S
O343 Co340 1.970 . S
O343 C342 1.258 . S
O344 Co341 1.966 . S
O344 C342 1.263 . S
C345 O346 1.235 . S
C345 O372 1.289 . S
O346 C345 1.235 . S
C347 C349 1.400 1_545 S
C347 N350 1.351 . S
C347 C352 1.501 . S
C348 C349 1.387 . S
C348 N351 1.341 1_565 S
C349 C347 1.400 1_565 S
C349 C348 1.387 . S
N350 Co341 2.022 . S
N350 C347 1.351 . S
N350 N351 1.365 . S
N351 C348 1.341 1_545 S
N351 N350 1.365 . S
N351 H371 0.862 . S
C352 C347 1.501 . S
C352 H353 0.961 . S
C352 H354 0.961 . S
C352 H355 0.960 . S
H353 C352 0.961 . S
H354 C352 0.961 . S
H355 C352 0.960 . S
C356 N357 1.342 . S
C356 C360 1.401 . S
C356 C361 1.499 . S
N357 Co340 1.989 . S
N357 C356 1.342 . S
N357 N358 1.388 . S
N358 Co341 1.993 . S
N358 N357 1.388 . S
N358 C359 1.346 . S
C359 N358 1.346 . S
C359 C360 1.396 . S
C359 C369 1.510 . S
C360 C356 1.401 . S
C360 C359 1.396 . S
C361 C356 1.499 . S
C361 H362 0.959 . S
C361 H363 0.960 . S
C361 H364 0.961 . S
H362 C361 0.959 . S
H363 C361 0.960 . S
H364 C361 0.961 . S
O365 Co340 1.967 . S
O365 C373 1.258 . S
O366 Co341 1.941 . S
O366 C373 1.266 . S
H367 C369 0.959 . S
H368 C369 0.961 . S
C369 C359 1.510 . S
C369 H367 0.959 . S
C369 H368 0.961 . S
C369 H370 0.960 . S
H370 C369 0.960 . S
H371 N351 0.862 . S
O372 Co340 1.920 . S
O372 C345 1.289 . S
C373 O365 1.258 . S
C373 O366 1.266 . S
Co374 O377 1.970 . S
Co374 N391 1.989 1_545 S
Co374 O399 1.967 . S
Co374 O406 1.920 . S
Co375 O378 1.966 . S
Co375 N384 2.022 . S
Co375 N392 1.993 . S
Co375 O400 1.941 . S
C376 O377 1.258 . S
C376 O378 1.263 . S
O377 Co374 1.970 . S
O377 C376 1.258 . S
O378 Co375 1.966 . S
O378 C376 1.263 . S
C379 O380 1.235 . S
C379 O406 1.289 1_565 S
O380 C379 1.235 . S
C381 C383 1.400 . S
C381 N384 1.351 . S
C381 C386 1.501 . S
C382 C383 1.387 . S
C382 N385 1.341 . S
C383 C381 1.400 . S
C383 C382 1.387 . S
N384 Co375 2.022 . S
N384 C381 1.351 . S
N384 N385 1.365 . S
N385 C382 1.341 . S
N385 N384 1.365 . S
N385 H405 0.862 . S
C386 C381 1.501 . S
C386 H387 0.961 . S
C386 H388 0.961 1_545 S
C386 H389 0.960 . S
H387 C386 0.961 . S
H388 C386 0.961 1_565 S
H389 C386 0.960 . S
C390 N391 1.342 . S
C390 C394 1.401 . S
C390 C395 1.499 . S
N391 Co374 1.989 1_565 S
N391 C390 1.342 . S
N391 N392 1.388 1_565 S
N392 Co375 1.993 . S
N392 N391 1.388 1_545 S
N392 C393 1.346 1_545 S
C393 N392 1.346 1_565 S
C393 C394 1.396 . S
C393 C403 1.510 . S
C394 C390 1.401 . S
C394 C393 1.396 . S
C395 C390 1.499 . S
C395 H396 0.959 . S
C395 H397 0.960 . S
C395 H398 0.961 . S
H396 C395 0.959 . S
H397 C395 0.960 . S
H398 C395 0.961 . S
O399 Co374 1.967 . S
O399 C407 1.258 . S
O400 Co375 1.941 . S
O400 C407 1.266 . S
H401 C403 0.959 . S
H402 C403 0.961 . S
C403 C393 1.510 . S
C403 H401 0.959 . S
C403 H402 0.961 . S
C403 H404 0.960 . S
H404 C403 0.960 . S
H405 N385 0.862 . S
O406 Co374 1.920 . S
O406 C379 1.289 1_545 S
C407 O399 1.258 . S
C407 O400 1.266 . S
Co408 O411 1.970 . S
Co408 N425 1.989 . S
Co408 O433 1.967 . S
Co408 O440 1.920 . S
Co409 O412 1.966 . S
Co409 N418 2.022 . S
Co409 N426 1.993 . S
Co409 O434 1.941 . S
C410 O411 1.258 . S
C410 O412 1.263 . S
O411 Co408 1.970 . S
O411 C410 1.258 . S
O412 Co409 1.966 . S
O412 C410 1.263 . S
C413 O414 1.235 . S
C413 O440 1.289 . S
O414 C413 1.235 . S
C415 C417 1.400 1_545 S
C415 N418 1.351 . S
C415 C420 1.501 . S
C416 C417 1.387 . S
C416 N419 1.341 1_565 S
C417 C415 1.400 1_565 S
C417 C416 1.387 . S
N418 Co409 2.022 . S
N418 C415 1.351 . S
N418 N419 1.365 . S
N419 C416 1.341 1_545 S
N419 N418 1.365 . S
N419 H439 0.862 . S
C420 C415 1.501 . S
C420 H421 0.961 . S
C420 H422 0.961 . S
C420 H423 0.960 . S
H421 C420 0.961 . S
H422 C420 0.961 . S
H423 C420 0.960 . S
C424 N425 1.342 . S
C424 C428 1.401 . S
C424 C429 1.499 . S
N425 Co408 1.989 . S
N425 C424 1.342 . S
N425 N426 1.388 . S
N426 Co409 1.993 . S
N426 N425 1.388 . S
N426 C427 1.346 . S
C427 N426 1.346 . S
C427 C428 1.396 . S
C427 C437 1.510 . S
C428 C424 1.401 . S
C428 C427 1.396 . S
C429 C424 1.499 . S
C429 H430 0.959 . S
C429 H431 0.960 . S
C429 H432 0.961 . S
H430 C429 0.959 . S
H431 C429 0.960 . S
H432 C429 0.961 . S
O433 Co408 1.967 . S
O433 C441 1.258 . S
O434 Co409 1.941 . S
O434 C441 1.266 . S
H435 C437 0.959 . S
H436 C437 0.961 . S
C437 C427 1.510 . S
C437 H435 0.959 . S
C437 H436 0.961 . S
C437 H438 0.960 . S
H438 C437 0.960 . S
H439 N419 0.862 . S
O440 Co408 1.920 . S
O440 C413 1.289 . S
C441 O433 1.258 . S
C441 O434 1.266 . S
Co442 O445 1.970 . S
Co442 N459 1.989 1_565 S
Co442 O467 1.967 . S
Co442 O474 1.920 . S
Co443 O446 1.966 . S
Co443 N452 2.022 . S
Co443 N460 1.993 . S
Co443 O468 1.941 . S
C444 O445 1.258 . S
C444 O446 1.263 . S
O445 Co442 1.970 . S
O445 C444 1.258 . S
O446 Co443 1.966 . S
O446 C444 1.263 . S
C447 O448 1.235 . S
C447 O474 1.289 1_545 S
O448 C447 1.235 . S
C449 C451 1.400 . S
C449 N452 1.351 . S
C449 C454 1.501 . S
C450 C451 1.387 . S
C450 N453 1.341 . S
C451 C449 1.400 . S
C451 C450 1.387 . S
N452 Co443 2.022 . S
N452 C449 1.351 . S
N452 N453 1.365 . S
N453 C450 1.341 . S
N453 N452 1.365 . S
N453 H473 0.862 . S
C454 C449 1.501 . S
C454 H455 0.961 . S
C454 H456 0.961 1_565 S
C454 H457 0.960 . S
H455 C454 0.961 . S
H456 C454 0.961 1_545 S
H457 C454 0.960 . S
C458 N459 1.342 . S
C458 C462 1.401 . S
C458 C463 1.499 . S
N459 Co442 1.989 1_545 S
N459 C458 1.342 . S
N459 N460 1.388 1_545 S
N460 Co443 1.993 . S
N460 N459 1.388 1_565 S
N460 C461 1.346 1_565 S
C461 N460 1.346 1_545 S
C461 C462 1.396 . S
C461 C471 1.510 . S
C462 C458 1.401 . S
C462 C461 1.396 . S
C463 C458 1.499 . S
C463 H464 0.959 . S
C463 H465 0.960 . S
C463 H466 0.961 . S
H464 C463 0.959 . S
H465 C463 0.960 . S
H466 C463 0.961 . S
O467 Co442 1.967 . S
O467 C475 1.258 . S
O468 Co443 1.941 . S
O468 C475 1.266 . S
H469 C471 0.959 . S
H470 C471 0.961 . S
C471 C461 1.510 . S
C471 H469 0.959 . S
C471 H470 0.961 . S
C471 H472 0.960 . S
H472 C471 0.960 . S
H473 N453 0.862 . S
O474 Co442 1.920 . S
O474 C447 1.289 1_565 S
C475 O467 1.258 . S
C475 O468 1.266 . S
Co476 O479 1.970 . S
Co476 N493 1.989 . S
Co476 O501 1.967 . S
Co476 O508 1.920 . S
Co477 O480 1.966 . S
Co477 N486 2.022 . S
Co477 N494 1.993 . S
Co477 O502 1.941 . S
C478 O479 1.258 . S
C478 O480 1.263 . S
O479 Co476 1.970 . S
O479 C478 1.258 . S
O480 Co477 1.966 . S
O480 C478 1.263 . S
C481 O482 1.235 . S
C481 O508 1.289 . S
O482 C481 1.235 . S
C483 C485 1.400 1_565 S
C483 N486 1.351 . S
C483 C488 1.501 . S
C484 C485 1.387 . S
C484 N487 1.341 1_545 S
C485 C483 1.400 1_545 S
C485 C484 1.387 . S
N486 Co477 2.022 . S
N486 C483 1.351 . S
N486 N487 1.365 . S
N487 C484 1.341 1_565 S
N487 N486 1.365 . S
N487 H507 0.862 . S
C488 C483 1.501 . S
C488 H489 0.961 . S
C488 H490 0.961 . S
C488 H491 0.960 . S
H489 C488 0.961 . S
H490 C488 0.961 . S
H491 C488 0.960 . S
C492 N493 1.342 . S
C492 C496 1.401 . S
C492 C497 1.499 . S
N493 Co476 1.989 . S
N493 C492 1.342 . S
N493 N494 1.388 . S
N494 Co477 1.993 . S
N494 N493 1.388 . S
N494 C495 1.346 . S
C495 N494 1.346 . S
C495 C496 1.396 . S
C495 C505 1.510 . S
C496 C492 1.401 . S
C496 C495 1.396 . S
C497 C492 1.499 . S
C497 H498 0.959 . S
C497 H499 0.960 . S
C497 H500 0.961 . S
H498 C497 0.959 . S
H499 C497 0.960 . S
H500 C497 0.961 . S
O501 Co476 1.967 . S
O501 C509 1.258 . S
O502 Co477 1.941 . S
O502 C509 1.266 . S
H503 C505 0.959 . S
H504 C505 0.961 . S
C505 C495 1.510 . S
C505 H503 0.959 . S
C505 H504 0.961 . S
C505 H506 0.960 . S
H506 C505 0.960 . S
H507 N487 0.862 . S
O508 Co476 1.920 . S
O508 C481 1.289 . S
C509 O501 1.258 . S
C509 O502 1.266 . S
Co510 O513 1.970 . S
Co510 N527 1.989 1_545 S
Co510 O535 1.967 . S
Co510 O542 1.920 1_655 S
Co511 O514 1.966 . S
Co511 N520 2.022 . S
Co511 N528 1.993 . S
Co511 O536 1.941 . S
C512 O513 1.258 . S
C512 O514 1.263 . S
O513 Co510 1.970 . S
O513 C512 1.258 . S
O514 Co511 1.966 . S
O514 C512 1.263 . S
C515 O516 1.235 . S
C515 O542 1.289 1_565 S
O516 C515 1.235 . S
C517 C519 1.400 . S
C517 N520 1.351 . S
C517 C522 1.501 . S
C518 C519 1.387 . S
C518 N521 1.341 . S
C519 C517 1.400 . S
C519 C518 1.387 . S
N520 Co511 2.022 . S
N520 C517 1.351 . S
N520 N521 1.365 . S
N521 C518 1.341 . S
N521 N520 1.365 . S
N521 H541 0.862 . S
C522 C517 1.501 . S
C522 H523 0.961 . S
C522 H524 0.961 1_545 S
C522 H525 0.960 . S
H523 C522 0.961 . S
H524 C522 0.961 1_565 S
H525 C522 0.960 . S
C526 N527 1.342 . S
C526 C530 1.401 . S
C526 C531 1.499 1_655 S
N527 Co510 1.989 1_565 S
N527 C526 1.342 . S
N527 N528 1.388 1_565 S
N528 Co511 1.993 . S
N528 N527 1.388 1_545 S
N528 C529 1.346 1_545 S
C529 N528 1.346 1_565 S
C529 C530 1.396 . S
C529 C539 1.510 . S
C530 C526 1.401 . S
C530 C529 1.396 . S
C531 C526 1.499 1_455 S
C531 H532 0.959 . S
C531 H533 0.960 . S
C531 H534 0.961 . S
H532 C531 0.959 . S
H533 C531 0.960 . S
H534 C531 0.961 . S
O535 Co510 1.967 . S
O535 C543 1.258 . S
O536 Co511 1.941 . S
O536 C543 1.266 . S
H537 C539 0.959 . S
H538 C539 0.961 . S
C539 C529 1.510 . S
C539 H537 0.959 . S
C539 H538 0.961 . S
C539 H540 0.960 . S
H540 C539 0.960 . S
H541 N521 0.862 . S
O542 Co510 1.920 1_455 S
O542 C515 1.289 1_545 S
C543 O535 1.258 . S
C543 O536 1.266 . S
Co544 O547 1.970 . S
Co544 N561 1.989 . S
Co544 O569 1.967 . S
Co544 O576 1.920 . S
Co545 O548 1.966 . S
Co545 N554 2.022 . S
Co545 N562 1.993 . S
Co545 O570 1.941 . S
C546 O547 1.258 . S
C546 O548 1.263 . S
O547 Co544 1.970 . S
O547 C546 1.258 . S
O548 Co545 1.966 . S
O548 C546 1.263 . S
C549 O550 1.235 . S
C549 O576 1.289 . S
O550 C549 1.235 . S
C551 C553 1.400 . S
C551 N554 1.351 . S
C551 C556 1.501 . S
C552 C553 1.387 . S
C552 N555 1.341 . S
C553 C551 1.400 . S
C553 C552 1.387 . S
N554 Co545 2.022 . S
N554 C551 1.351 . S
N554 N555 1.365 . S
N555 C552 1.341 . S
N555 N554 1.365 . S
N555 H575 0.862 . S
C556 C551 1.501 . S
C556 H557 0.961 . S
C556 H558 0.961 . S
C556 H559 0.960 . S
H557 C556 0.961 . S
H558 C556 0.961 . S
H559 C556 0.960 . S
C560 N561 1.342 . S
C560 C564 1.401 . S
C560 C565 1.499 . S
N561 Co544 1.989 . S
N561 C560 1.342 . S
N561 N562 1.388 . S
N562 Co545 1.993 . S
N562 N561 1.388 . S
N562 C563 1.346 . S
C563 N562 1.346 . S
C563 C564 1.396 . S
C563 C573 1.510 . S
C564 C560 1.401 . S
C564 C563 1.396 . S
C565 C560 1.499 . S
C565 H566 0.959 . S
C565 H567 0.960 . S
C565 H568 0.961 . S
H566 C565 0.959 . S
H567 C565 0.960 . S
H568 C565 0.961 . S
O569 Co544 1.967 . S
O569 C577 1.258 . S
O570 Co545 1.941 . S
O570 C577 1.266 . S
H571 C573 0.959 . S
H572 C573 0.961 . S
C573 C563 1.510 . S
C573 H571 0.959 . S
C573 H572 0.961 . S
C573 H574 0.960 . S
H574 C573 0.960 . S
H575 N555 0.862 . S
O576 Co544 1.920 . S
O576 C549 1.289 . S
C577 O569 1.258 . S
C577 O570 1.266 . S
Co578 O581 1.970 . S
Co578 N595 1.989 . S
Co578 O603 1.967 . S
Co578 O610 1.920 . S
Co579 O582 1.966 . S
Co579 N588 2.022 . S
Co579 N596 1.993 . S
Co579 O604 1.941 . S
C580 O581 1.258 . S
C580 O582 1.263 . S
O581 Co578 1.970 . S
O581 C580 1.258 . S
O582 Co579 1.966 . S
O582 C580 1.263 . S
C583 O584 1.235 . S
C583 O610 1.289 . S
O584 C583 1.235 . S
C585 C587 1.400 . S
C585 N588 1.351 . S
C585 C590 1.501 . S
C586 C587 1.387 . S
C586 N589 1.341 . S
C587 C585 1.400 . S
C587 C586 1.387 . S
N588 Co579 2.022 . S
N588 C585 1.351 . S
N588 N589 1.365 . S
N589 C586 1.341 . S
N589 N588 1.365 . S
N589 H609 0.862 . S
C590 C585 1.501 . S
C590 H591 0.961 . S
C590 H592 0.961 . S
C590 H593 0.960 . S
H591 C590 0.961 . S
H592 C590 0.961 . S
H593 C590 0.960 . S
C594 N595 1.342 . S
C594 C598 1.401 . S
C594 C599 1.499 . S
N595 Co578 1.989 . S
N595 C594 1.342 . S
N595 N596 1.388 . S
N596 Co579 1.993 . S
N596 N595 1.388 . S
N596 C597 1.346 . S
C597 N596 1.346 . S
C597 C598 1.396 . S
C597 C607 1.510 . S
C598 C594 1.401 . S
C598 C597 1.396 . S
C599 C594 1.499 . S
C599 H600 0.959 . S
C599 H601 0.960 . S
C599 H602 0.961 . S
H600 C599 0.959 . S
H601 C599 0.960 . S
H602 C599 0.961 . S
O603 Co578 1.967 . S
O603 C611 1.258 . S
O604 Co579 1.941 . S
O604 C611 1.266 . S
H605 C607 0.959 . S
H606 C607 0.961 . S
C607 C597 1.510 . S
C607 H605 0.959 . S
C607 H606 0.961 . S
C607 H608 0.960 . S
H608 C607 0.960 . S
H609 N589 0.862 . S
O610 Co578 1.920 . S
O610 C583 1.289 . S
C611 O603 1.258 . S
C611 O604 1.266 . S
Co612 O615 1.970 . S
Co612 N629 1.989 . S
Co612 O637 1.967 . S
Co612 O644 1.920 . S
Co613 O616 1.966 . S
Co613 N622 2.022 . S
Co613 N630 1.993 . S
Co613 O638 1.941 . S
C614 O615 1.258 . S
C614 O616 1.263 . S
O615 Co612 1.970 . S
O615 C614 1.258 . S
O616 Co613 1.966 . S
O616 C614 1.263 . S
C617 O618 1.235 . S
C617 O644 1.289 . S
O618 C617 1.235 . S
C619 C621 1.400 . S
C619 N622 1.351 . S
C619 C624 1.501 . S
C620 C621 1.387 . S
C620 N623 1.341 . S
C621 C619 1.400 . S
C621 C620 1.387 . S
N622 Co613 2.022 . S
N622 C619 1.351 . S
N622 N623 1.365 . S
N623 C620 1.341 . S
N623 N622 1.365 . S
N623 H643 0.862 . S
C624 C619 1.501 . S
C624 H625 0.961 . S
C624 H626 0.961 . S
C624 H627 0.960 . S
H625 C624 0.961 . S
H626 C624 0.961 . S
H627 C624 0.960 . S
C628 N629 1.342 . S
C628 C632 1.401 . S
C628 C633 1.499 . S
N629 Co612 1.989 . S
N629 C628 1.342 . S
N629 N630 1.388 . S
N630 Co613 1.993 . S
N630 N629 1.388 . S
N630 C631 1.346 . S
C631 N630 1.346 . S
C631 C632 1.396 . S
C631 C641 1.510 . S
C632 C628 1.401 . S
C632 C631 1.396 . S
C633 C628 1.499 . S
C633 H634 0.959 . S
C633 H635 0.960 . S
C633 H636 0.961 . S
H634 C633 0.959 . S
H635 C633 0.960 . S
H636 C633 0.961 . S
O637 Co612 1.967 . S
O637 C645 1.258 . S
O638 Co613 1.941 . S
O638 C645 1.266 . S
H639 C641 0.959 . S
H640 C641 0.961 . S
C641 C631 1.510 . S
C641 H639 0.959 . S
C641 H640 0.961 . S
C641 H642 0.960 . S
H642 C641 0.960 . S
H643 N623 0.862 . S
O644 Co612 1.920 . S
O644 C617 1.289 . S
C645 O637 1.258 . S
C645 O638 1.266 . S
Co646 O649 1.970 . S
Co646 N663 1.989 . S
Co646 O671 1.967 . S
Co646 O678 1.920 1_655 S
Co647 O650 1.966 . S
Co647 N656 2.022 . S
Co647 N664 1.993 . S
Co647 O672 1.941 . S
C648 O649 1.258 . S
C648 O650 1.263 . S
O649 Co646 1.970 . S
O649 C648 1.258 . S
O650 Co647 1.966 . S
O650 C648 1.263 . S
C651 O652 1.235 . S
C651 O678 1.289 . S
O652 C651 1.235 . S
C653 C655 1.400 . S
C653 N656 1.351 . S
C653 C658 1.501 . S
C654 C655 1.387 . S
C654 N657 1.341 . S
C655 C653 1.400 . S
C655 C654 1.387 . S
N656 Co647 2.022 . S
N656 C653 1.351 . S
N656 N657 1.365 . S
N657 C654 1.341 . S
N657 N656 1.365 . S
N657 H677 0.862 . S
C658 C653 1.501 . S
C658 H659 0.961 . S
C658 H660 0.961 . S
C658 H661 0.960 . S
H659 C658 0.961 . S
H660 C658 0.961 . S
H661 C658 0.960 . S
C662 N663 1.342 . S
C662 C666 1.401 . S
C662 C667 1.499 1_655 S
N663 Co646 1.989 . S
N663 C662 1.342 . S
N663 N664 1.388 . S
N664 Co647 1.993 . S
N664 N663 1.388 . S
N664 C665 1.346 . S
C665 N664 1.346 . S
C665 C666 1.396 . S
C665 C675 1.510 . S
C666 C662 1.401 . S
C666 C665 1.396 . S
C667 C662 1.499 1_455 S
C667 H668 0.959 . S
C667 H669 0.960 . S
C667 H670 0.961 . S
H668 C667 0.959 . S
H669 C667 0.960 . S
H670 C667 0.961 . S
O671 Co646 1.967 . S
O671 C679 1.258 . S
O672 Co647 1.941 . S
O672 C679 1.266 . S
H673 C675 0.959 . S
H674 C675 0.961 . S
C675 C665 1.510 . S
C675 H673 0.959 . S
C675 H674 0.961 . S
C675 H676 0.960 . S
H676 C675 0.960 . S
H677 N657 0.862 . S
O678 Co646 1.920 1_455 S
O678 C651 1.289 . S
C679 O671 1.258 . S
C679 O672 1.266 . S
Co680 O683 1.970 . S
Co680 N697 1.989 . S
Co680 O705 1.967 . S
Co680 O712 1.920 . S
Co681 O684 1.966 . S
Co681 N690 2.022 . S
Co681 N698 1.993 . S
Co681 O706 1.941 . S
C682 O683 1.258 . S
C682 O684 1.263 . S
O683 Co680 1.970 . S
O683 C682 1.258 . S
O684 Co681 1.966 . S
O684 C682 1.263 . S
C685 O686 1.235 . S
C685 O712 1.289 . S
O686 C685 1.235 . S
C687 C689 1.400 . S
C687 N690 1.351 . S
C687 C692 1.501 . S
C688 C689 1.387 . S
C688 N691 1.341 . S
C689 C687 1.400 . S
C689 C688 1.387 . S
N690 Co681 2.022 . S
N690 C687 1.351 . S
N690 N691 1.365 . S
N691 C688 1.341 . S
N691 N690 1.365 . S
N691 H711 0.862 . S
C692 C687 1.501 . S
C692 H693 0.961 . S
C692 H694 0.961 . S
C692 H695 0.960 . S
H693 C692 0.961 . S
H694 C692 0.961 . S
H695 C692 0.960 . S
C696 N697 1.342 . S
C696 C700 1.401 . S
C696 C701 1.499 . S
N697 Co680 1.989 . S
N697 C696 1.342 . S
N697 N698 1.388 . S
N698 Co681 1.993 . S
N698 N697 1.388 . S
N698 C699 1.346 . S
C699 N698 1.346 . S
C699 C700 1.396 . S
C699 C709 1.510 . S
C700 C696 1.401 . S
C700 C699 1.396 . S
C701 C696 1.499 . S
C701 H702 0.959 . S
C701 H703 0.960 . S
C701 H704 0.961 . S
H702 C701 0.959 . S
H703 C701 0.960 . S
H704 C701 0.961 . S
O705 Co680 1.967 . S
O705 C713 1.258 . S
O706 Co681 1.941 . S
O706 C713 1.266 . S
H707 C709 0.959 . S
H708 C709 0.961 . S
C709 C699 1.510 . S
C709 H707 0.959 . S
C709 H708 0.961 . S
C709 H710 0.960 . S
H710 C709 0.960 . S
H711 N691 0.862 . S
O712 Co680 1.920 . S
O712 C685 1.289 . S
C713 O705 1.258 . S
C713 O706 1.266 . S
Co714 O717 1.970 . S
Co714 N731 1.989 . S
Co714 O739 1.967 . S
Co714 O746 1.920 1_655 S
Co715 O718 1.966 . S
Co715 N724 2.022 . S
Co715 N732 1.993 . S
Co715 O740 1.941 . S
C716 O717 1.258 . S
C716 O718 1.263 . S
O717 Co714 1.970 . S
O717 C716 1.258 . S
O718 Co715 1.966 . S
O718 C716 1.263 . S
C719 O720 1.235 . S
C719 O746 1.289 . S
O720 C719 1.235 . S
C721 C723 1.400 . S
C721 N724 1.351 . S
C721 C726 1.501 . S
C722 C723 1.387 . S
C722 N725 1.341 . S
C723 C721 1.400 . S
C723 C722 1.387 . S
N724 Co715 2.022 . S
N724 C721 1.351 . S
N724 N725 1.365 . S
N725 C722 1.341 . S
N725 N724 1.365 . S
N725 H745 0.862 . S
C726 C721 1.501 . S
C726 H727 0.961 . S
C726 H728 0.961 . S
C726 H729 0.960 . S
H727 C726 0.961 . S
H728 C726 0.961 . S
H729 C726 0.960 . S
C730 N731 1.342 . S
C730 C734 1.401 . S
C730 C735 1.499 1_655 S
N731 Co714 1.989 . S
N731 C730 1.342 . S
N731 N732 1.388 . S
N732 Co715 1.993 . S
N732 N731 1.388 . S
N732 C733 1.346 . S
C733 N732 1.346 . S
C733 C734 1.396 . S
C733 C743 1.510 . S
C734 C730 1.401 . S
C734 C733 1.396 . S
C735 C730 1.499 1_455 S
C735 H736 0.959 . S
C735 H737 0.960 . S
C735 H738 0.961 . S
H736 C735 0.959 . S
H737 C735 0.960 . S
H738 C735 0.961 . S
O739 Co714 1.967 . S
O739 C747 1.258 . S
O740 Co715 1.941 . S
O740 C747 1.266 . S
H741 C743 0.959 . S
H742 C743 0.961 . S
C743 C733 1.510 . S
C743 H741 0.959 . S
C743 H742 0.961 . S
C743 H744 0.960 . S
H744 C743 0.960 . S
H745 N725 0.862 . S
O746 Co714 1.920 1_455 S
O746 C719 1.289 . S
C747 O739 1.258 . S
C747 O740 1.266 . S
Co748 O751 1.970 . S
Co748 N765 1.989 . S
Co748 O773 1.967 . S
Co748 O780 1.920 . S
Co749 O752 1.966 . S
Co749 N758 2.022 . S
Co749 N766 1.993 . S
Co749 O774 1.941 . S
C750 O751 1.258 . S
C750 O752 1.263 . S
O751 Co748 1.970 . S
O751 C750 1.258 . S
O752 Co749 1.966 . S
O752 C750 1.263 . S
C753 O754 1.235 . S
C753 O780 1.289 . S
O754 C753 1.235 . S
C755 C757 1.400 . S
C755 N758 1.351 . S
C755 C760 1.501 . S
C756 C757 1.387 . S
C756 N759 1.341 . S
C757 C755 1.400 . S
C757 C756 1.387 . S
N758 Co749 2.022 . S
N758 C755 1.351 . S
N758 N759 1.365 . S
N759 C756 1.341 . S
N759 N758 1.365 . S
N759 H779 0.862 . S
C760 C755 1.501 . S
C760 H761 0.961 . S
C760 H762 0.961 . S
C760 H763 0.960 . S
H761 C760 0.961 . S
H762 C760 0.961 . S
H763 C760 0.960 . S
C764 N765 1.342 . S
C764 C768 1.401 . S
C764 C769 1.499 . S
N765 Co748 1.989 . S
N765 C764 1.342 . S
N765 N766 1.388 . S
N766 Co749 1.993 . S
N766 N765 1.388 . S
N766 C767 1.346 . S
C767 N766 1.346 . S
C767 C768 1.396 . S
C767 C777 1.510 . S
C768 C764 1.401 . S
C768 C767 1.396 . S
C769 C764 1.499 . S
C769 H770 0.959 . S
C769 H771 0.960 . S
C769 H772 0.961 . S
H770 C769 0.959 . S
H771 C769 0.960 . S
H772 C769 0.961 . S
O773 Co748 1.967 . S
O773 C781 1.258 . S
O774 Co749 1.941 . S
O774 C781 1.266 . S
H775 C777 0.959 . S
H776 C777 0.961 . S
C777 C767 1.510 . S
C777 H775 0.959 . S
C777 H776 0.961 . S
C777 H778 0.960 . S
H778 C777 0.960 . S
H779 N759 0.862 . S
O780 Co748 1.920 . S
O780 C753 1.289 . S
C781 O773 1.258 . S
C781 O774 1.266 . S
Co782 O785 1.970 . S
Co782 N799 1.989 . S
Co782 O807 1.967 . S
Co782 O814 1.920 . S
Co783 O786 1.966 . S
Co783 N792 2.022 . S
Co783 N800 1.993 . S
Co783 O808 1.941 . S
C784 O785 1.258 . S
C784 O786 1.263 . S
O785 Co782 1.970 . S
O785 C784 1.258 . S
O786 Co783 1.966 . S
O786 C784 1.263 . S
C787 O788 1.235 . S
C787 O814 1.289 . S
O788 C787 1.235 . S
C789 C791 1.400 . S
C789 N792 1.351 . S
C789 C794 1.501 . S
C790 C791 1.387 . S
C790 N793 1.341 . S
C791 C789 1.400 . S
C791 C790 1.387 . S
N792 Co783 2.022 . S
N792 C789 1.351 . S
N792 N793 1.365 . S
N793 C790 1.341 . S
N793 N792 1.365 . S
N793 H813 0.862 . S
C794 C789 1.501 . S
C794 H795 0.961 . S
C794 H796 0.961 . S
C794 H797 0.960 . S
H795 C794 0.961 . S
H796 C794 0.961 . S
H797 C794 0.960 . S
C798 N799 1.342 . S
C798 C802 1.401 . S
C798 C803 1.499 . S
N799 Co782 1.989 . S
N799 C798 1.342 . S
N799 N800 1.388 . S
N800 Co783 1.993 . S
N800 N799 1.388 . S
N800 C801 1.346 . S
C801 N800 1.346 . S
C801 C802 1.396 . S
C801 C811 1.510 . S
C802 C798 1.401 . S
C802 C801 1.396 . S
C803 C798 1.499 . S
C803 H804 0.959 . S
C803 H805 0.960 . S
C803 H806 0.961 . S
H804 C803 0.959 . S
H805 C803 0.960 . S
H806 C803 0.961 . S
O807 Co782 1.967 . S
O807 C815 1.258 . S
O808 Co783 1.941 . S
O808 C815 1.266 . S
H809 C811 0.959 . S
H810 C811 0.961 . S
C811 C801 1.510 . S
C811 H809 0.959 . S
C811 H810 0.961 . S
C811 H812 0.960 . S
H812 C811 0.960 . S
H813 N793 0.862 . S
O814 Co782 1.920 . S
O814 C787 1.289 . S
C815 O807 1.258 . S
C815 O808 1.266 . S
Co816 O819 1.970 . S
Co816 N833 1.989 . S
Co816 O841 1.967 . S
Co816 O848 1.920 . S
Co817 O820 1.966 . S
Co817 N826 2.022 . S
Co817 N834 1.993 . S
Co817 O842 1.941 . S
C818 O819 1.258 . S
C818 O820 1.263 . S
O819 Co816 1.970 . S
O819 C818 1.258 . S
O820 Co817 1.966 . S
O820 C818 1.263 . S
C821 O822 1.235 . S
C821 O848 1.289 . S
O822 C821 1.235 . S
C823 C825 1.400 . S
C823 N826 1.351 . S
C823 C828 1.501 . S
C824 C825 1.387 . S
C824 N827 1.341 . S
C825 C823 1.400 . S
C825 C824 1.387 . S
N826 Co817 2.022 . S
N826 C823 1.351 . S
N826 N827 1.365 . S
N827 C824 1.341 . S
N827 N826 1.365 . S
N827 H847 0.862 . S
C828 C823 1.501 . S
C828 H829 0.961 . S
C828 H830 0.961 . S
C828 H831 0.960 . S
H829 C828 0.961 . S
H830 C828 0.961 . S
H831 C828 0.960 . S
C832 N833 1.342 . S
C832 C836 1.401 . S
C832 C837 1.499 . S
N833 Co816 1.989 . S
N833 C832 1.342 . S
N833 N834 1.388 . S
N834 Co817 1.993 . S
N834 N833 1.388 . S
N834 C835 1.346 . S
C835 N834 1.346 . S
C835 C836 1.396 . S
C835 C845 1.510 . S
C836 C832 1.401 . S
C836 C835 1.396 . S
C837 C832 1.499 . S
C837 H838 0.959 . S
C837 H839 0.960 . S
C837 H840 0.961 . S
H838 C837 0.959 . S
H839 C837 0.960 . S
H840 C837 0.961 . S
O841 Co816 1.967 . S
O841 C849 1.258 . S
O842 Co817 1.941 . S
O842 C849 1.266 . S
H843 C845 0.959 . S
H844 C845 0.961 . S
C845 C835 1.510 . S
C845 H843 0.959 . S
C845 H844 0.961 . S
C845 H846 0.960 . S
H846 C845 0.960 . S
H847 N827 0.862 . S
O848 Co816 1.920 . S
O848 C821 1.289 . S
C849 O841 1.258 . S
C849 O842 1.266 . S
Co850 O853 1.970 . S
Co850 N867 1.989 . S
Co850 O875 1.967 . S
Co850 O882 1.920 . S
Co851 O854 1.966 . S
Co851 N860 2.022 . S
Co851 N868 1.993 . S
Co851 O876 1.941 . S
C852 O853 1.258 . S
C852 O854 1.263 . S
O853 Co850 1.970 . S
O853 C852 1.258 . S
O854 Co851 1.966 . S
O854 C852 1.263 . S
C855 O856 1.235 . S
C855 O882 1.289 . S
O856 C855 1.235 . S
C857 C859 1.400 . S
C857 N860 1.351 . S
C857 C862 1.501 . S
C858 C859 1.387 . S
C858 N861 1.341 . S
C859 C857 1.400 . S
C859 C858 1.387 . S
N860 Co851 2.022 . S
N860 C857 1.351 . S
N860 N861 1.365 . S
N861 C858 1.341 . S
N861 N860 1.365 . S
N861 H881 0.862 . S
C862 C857 1.501 . S
C862 H863 0.961 . S
C862 H864 0.961 . S
C862 H865 0.960 . S
H863 C862 0.961 . S
H864 C862 0.961 . S
H865 C862 0.960 . S
C866 N867 1.342 . S
C866 C870 1.401 . S
C866 C871 1.499 . S
N867 Co850 1.989 . S
N867 C866 1.342 . S
N867 N868 1.388 . S
N868 Co851 1.993 . S
N868 N867 1.388 . S
N868 C869 1.346 . S
C869 N868 1.346 . S
C869 C870 1.396 . S
C869 C879 1.510 . S
C870 C866 1.401 . S
C870 C869 1.396 . S
C871 C866 1.499 . S
C871 H872 0.959 . S
C871 H873 0.960 . S
C871 H874 0.961 . S
H872 C871 0.959 . S
H873 C871 0.960 . S
H874 C871 0.961 . S
O875 Co850 1.967 . S
O875 C883 1.258 . S
O876 Co851 1.941 . S
O876 C883 1.266 . S
H877 C879 0.959 . S
H878 C879 0.961 . S
C879 C869 1.510 . S
C879 H877 0.959 . S
C879 H878 0.961 . S
C879 H880 0.960 . S
H880 C879 0.960 . S
H881 N861 0.862 . S
O882 Co850 1.920 . S
O882 C855 1.289 . S
C883 O875 1.258 . S
C883 O876 1.266 . S
Co884 O887 1.970 . S
Co884 N901 1.989 . S
Co884 O909 1.967 . S
Co884 O916 1.920 . S
Co885 O888 1.966 . S
Co885 N894 2.022 . S
Co885 N902 1.993 . S
Co885 O910 1.941 . S
C886 O887 1.258 . S
C886 O888 1.263 . S
O887 Co884 1.970 . S
O887 C886 1.258 . S
O888 Co885 1.966 . S
O888 C886 1.263 . S
C889 O890 1.235 . S
C889 O916 1.289 . S
O890 C889 1.235 . S
C891 C893 1.400 . S
C891 N894 1.351 . S
C891 C896 1.501 . S
C892 C893 1.387 . S
C892 N895 1.341 . S
C893 C891 1.400 . S
C893 C892 1.387 . S
N894 Co885 2.022 . S
N894 C891 1.351 . S
N894 N895 1.365 . S
N895 C892 1.341 . S
N895 N894 1.365 . S
N895 H915 0.862 . S
C896 C891 1.501 . S
C896 H897 0.961 . S
C896 H898 0.961 . S
C896 H899 0.960 . S
H897 C896 0.961 . S
H898 C896 0.961 . S
H899 C896 0.960 . S
C900 N901 1.342 . S
C900 C904 1.401 . S
C900 C905 1.499 . S
N901 Co884 1.989 . S
N901 C900 1.342 . S
N901 N902 1.388 . S
N902 Co885 1.993 . S
N902 N901 1.388 . S
N902 C903 1.346 . S
C903 N902 1.346 . S
C903 C904 1.396 . S
C903 C913 1.510 . S
C904 C900 1.401 . S
C904 C903 1.396 . S
C905 C900 1.499 . S
C905 H906 0.959 . S
C905 H907 0.960 . S
C905 H908 0.961 . S
H906 C905 0.959 . S
H907 C905 0.960 . S
H908 C905 0.961 . S
O909 Co884 1.967 . S
O909 C917 1.258 . S
O910 Co885 1.941 . S
O910 C917 1.266 . S
H911 C913 0.959 . S
H912 C913 0.961 . S
C913 C903 1.510 . S
C913 H911 0.959 . S
C913 H912 0.961 . S
C913 H914 0.960 . S
H914 C913 0.960 . S
H915 N895 0.862 . S
O916 Co884 1.920 . S
O916 C889 1.289 . S
C917 O909 1.258 . S
C917 O910 1.266 . S
Co918 O921 1.970 . S
Co918 N935 1.989 . S
Co918 O943 1.967 . S
Co918 O950 1.920 1_455 S
Co919 O922 1.966 . S
Co919 N928 2.022 . S
Co919 N936 1.993 . S
Co919 O944 1.941 . S
C920 O921 1.258 . S
C920 O922 1.263 . S
O921 Co918 1.970 . S
O921 C920 1.258 . S
O922 Co919 1.966 . S
O922 C920 1.263 . S
C923 O924 1.235 . S
C923 O950 1.289 . S
O924 C923 1.235 . S
C925 C927 1.400 . S
C925 N928 1.351 . S
C925 C930 1.501 . S
C926 C927 1.387 . S
C926 N929 1.341 . S
C927 C925 1.400 . S
C927 C926 1.387 . S
N928 Co919 2.022 . S
N928 C925 1.351 . S
N928 N929 1.365 . S
N929 C926 1.341 . S
N929 N928 1.365 . S
N929 H949 0.862 . S
C930 C925 1.501 . S
C930 H931 0.961 . S
C930 H932 0.961 . S
C930 H933 0.960 . S
H931 C930 0.961 . S
H932 C930 0.961 . S
H933 C930 0.960 . S
C934 N935 1.342 . S
C934 C938 1.401 . S
C934 C939 1.499 1_455 S
N935 Co918 1.989 . S
N935 C934 1.342 . S
N935 N936 1.388 . S
N936 Co919 1.993 . S
N936 N935 1.388 . S
N936 C937 1.346 . S
C937 N936 1.346 . S
C937 C938 1.396 . S
C937 C947 1.510 . S
C938 C934 1.401 . S
C938 C937 1.396 . S
C939 C934 1.499 1_655 S
C939 H940 0.959 . S
C939 H941 0.960 . S
C939 H942 0.961 . S
H940 C939 0.959 . S
H941 C939 0.960 . S
H942 C939 0.961 . S
O943 Co918 1.967 . S
O943 C951 1.258 . S
O944 Co919 1.941 . S
O944 C951 1.266 . S
H945 C947 0.959 . S
H946 C947 0.961 . S
C947 C937 1.510 . S
C947 H945 0.959 . S
C947 H946 0.961 . S
C947 H948 0.960 . S
H948 C947 0.960 . S
H949 N929 0.862 . S
O950 Co918 1.920 1_655 S
O950 C923 1.289 . S
C951 O943 1.258 . S
C951 O944 1.266 . S
Co952 O955 1.970 . S
Co952 N969 1.989 . S
Co952 O977 1.967 . S
Co952 O984 1.920 . S
Co953 O956 1.966 . S
Co953 N962 2.022 . S
Co953 N970 1.993 . S
Co953 O978 1.941 . S
C954 O955 1.258 . S
C954 O956 1.263 . S
O955 Co952 1.970 . S
O955 C954 1.258 . S
O956 Co953 1.966 . S
O956 C954 1.263 . S
C957 O958 1.235 . S
C957 O984 1.289 . S
O958 C957 1.235 . S
C959 C961 1.400 . S
C959 N962 1.351 . S
C959 C964 1.501 . S
C960 C961 1.387 . S
C960 N963 1.341 . S
C961 C959 1.400 . S
C961 C960 1.387 . S
N962 Co953 2.022 . S
N962 C959 1.351 . S
N962 N963 1.365 . S
N963 C960 1.341 . S
N963 N962 1.365 . S
N963 H983 0.862 . S
C964 C959 1.501 . S
C964 H965 0.961 . S
C964 H966 0.961 . S
C964 H967 0.960 . S
H965 C964 0.961 . S
H966 C964 0.961 . S
H967 C964 0.960 . S
C968 N969 1.342 . S
C968 C972 1.401 . S
C968 C973 1.499 . S
N969 Co952 1.989 . S
N969 C968 1.342 . S
N969 N970 1.388 . S
N970 Co953 1.993 . S
N970 N969 1.388 . S
N970 C971 1.346 . S
C971 N970 1.346 . S
C971 C972 1.396 . S
C971 C981 1.510 . S
C972 C968 1.401 . S
C972 C971 1.396 . S
C973 C968 1.499 . S
C973 H974 0.959 . S
C973 H975 0.960 . S
C973 H976 0.961 . S
H974 C973 0.959 . S
H975 C973 0.960 . S
H976 C973 0.961 . S
O977 Co952 1.967 . S
O977 C985 1.258 . S
O978 Co953 1.941 . S
O978 C985 1.266 . S
H979 C981 0.959 . S
H980 C981 0.961 . S
C981 C971 1.510 . S
C981 H979 0.959 . S
C981 H980 0.961 . S
C981 H982 0.960 . S
H982 C981 0.960 . S
H983 N963 0.862 . S
O984 Co952 1.920 . S
O984 C957 1.289 . S
C985 O977 1.258 . S
C985 O978 1.266 . S
Co986 O989 1.970 . S
Co986 N1003 1.989 . S
Co986 O1011 1.967 . S
Co986 O1018 1.920 1_455 S
Co987 O990 1.966 . S
Co987 N996 2.022 . S
Co987 N1004 1.993 . S
Co987 O1012 1.941 . S
C988 O989 1.258 . S
C988 O990 1.263 . S
O989 Co986 1.970 . S
O989 C988 1.258 . S
O990 Co987 1.966 . S
O990 C988 1.263 . S
C991 O992 1.235 . S
C991 O1018 1.289 . S
O992 C991 1.235 . S
C993 C995 1.400 . S
C993 N996 1.351 . S
C993 C998 1.501 . S
C994 C995 1.387 . S
C994 N997 1.341 . S
C995 C993 1.400 . S
C995 C994 1.387 . S
N996 Co987 2.022 . S
N996 C993 1.351 . S
N996 N997 1.365 . S
N997 C994 1.341 . S
N997 N996 1.365 . S
N997 H1017 0.862 . S
C998 C993 1.501 . S
C998 H999 0.961 . S
C998 H1000 0.961 . S
C998 H1001 0.960 . S
H999 C998 0.961 . S
H1000 C998 0.961 . S
H1001 C998 0.960 . S
C1002 N1003 1.342 . S
C1002 C1006 1.401 . S
C1002 C1007 1.499 1_455 S
N1003 Co986 1.989 . S
N1003 C1002 1.342 . S
N1003 N1004 1.388 . S
N1004 Co987 1.993 . S
N1004 N1003 1.388 . S
N1004 C1005 1.346 . S
C1005 N1004 1.346 . S
C1005 C1006 1.396 . S
C1005 C1015 1.510 . S
C1006 C1002 1.401 . S
C1006 C1005 1.396 . S
C1007 C1002 1.499 1_655 S
C1007 H1008 0.959 . S
C1007 H1009 0.960 . S
C1007 H1010 0.961 . S
H1008 C1007 0.959 . S
H1009 C1007 0.960 . S
H1010 C1007 0.961 . S
O1011 Co986 1.967 . S
O1011 C1019 1.258 . S
O1012 Co987 1.941 . S
O1012 C1019 1.266 . S
H1013 C1015 0.959 . S
H1014 C1015 0.961 . S
C1015 C1005 1.510 . S
C1015 H1013 0.959 . S
C1015 H1014 0.961 . S
C1015 H1016 0.960 . S
H1016 C1015 0.960 . S
H1017 N997 0.862 . S
O1018 Co986 1.920 1_655 S
O1018 C991 1.289 . S
C1019 O1011 1.258 . S
C1019 O1012 1.266 . S
Co1020 O1023 1.970 . S
Co1020 N1037 1.989 . S
Co1020 O1045 1.967 . S
Co1020 O1052 1.920 . S
Co1021 O1024 1.966 . S
Co1021 N1030 2.022 . S
Co1021 N1038 1.993 . S
Co1021 O1046 1.941 . S
C1022 O1023 1.258 . S
C1022 O1024 1.263 . S
O1023 Co1020 1.970 . S
O1023 C1022 1.258 . S
O1024 Co1021 1.966 . S
O1024 C1022 1.263 . S
C1025 O1026 1.235 . S
C1025 O1052 1.289 . S
O1026 C1025 1.235 . S
C1027 C1029 1.400 . S
C1027 N1030 1.351 . S
C1027 C1032 1.501 . S
C1028 C1029 1.387 . S
C1028 N1031 1.341 . S
C1029 C1027 1.400 . S
C1029 C1028 1.387 . S
N1030 Co1021 2.022 . S
N1030 C1027 1.351 . S
N1030 N1031 1.365 . S
N1031 C1028 1.341 . S
N1031 N1030 1.365 . S
N1031 H1051 0.862 . S
C1032 C1027 1.501 . S
C1032 H1033 0.961 . S
C1032 H1034 0.961 . S
C1032 H1035 0.960 . S
H1033 C1032 0.961 . S
H1034 C1032 0.961 . S
H1035 C1032 0.960 . S
C1036 N1037 1.342 . S
C1036 C1040 1.401 . S
C1036 C1041 1.499 . S
N1037 Co1020 1.989 . S
N1037 C1036 1.342 . S
N1037 N1038 1.388 . S
N1038 Co1021 1.993 . S
N1038 N1037 1.388 . S
N1038 C1039 1.346 . S
C1039 N1038 1.346 . S
C1039 C1040 1.396 . S
C1039 C1049 1.510 . S
C1040 C1036 1.401 . S
C1040 C1039 1.396 . S
C1041 C1036 1.499 . S
C1041 H1042 0.959 . S
C1041 H1043 0.960 . S
C1041 H1044 0.961 . S
H1042 C1041 0.959 . S
H1043 C1041 0.960 . S
H1044 C1041 0.961 . S
O1045 Co1020 1.967 . S
O1045 C1053 1.258 . S
O1046 Co1021 1.941 . S
O1046 C1053 1.266 . S
H1047 C1049 0.959 . S
H1048 C1049 0.961 . S
C1049 C1039 1.510 . S
C1049 H1047 0.959 . S
C1049 H1048 0.961 . S
C1049 H1050 0.960 . S
H1050 C1049 0.960 . S
H1051 N1031 0.862 . S
O1052 Co1020 1.920 . S
O1052 C1025 1.289 . S
C1053 O1045 1.258 . S
C1053 O1046 1.266 . S
Co1054 O1057 1.970 . S
Co1054 N1071 1.989 . S
Co1054 O1079 1.967 . S
Co1054 O1086 1.920 . S
Co1055 O1058 1.966 . S
Co1055 N1064 2.022 . S
Co1055 N1072 1.993 . S
Co1055 O1080 1.941 . S
C1056 O1057 1.258 . S
C1056 O1058 1.263 . S
O1057 Co1054 1.970 . S
O1057 C1056 1.258 . S
O1058 Co1055 1.966 . S
O1058 C1056 1.263 . S
C1059 O1060 1.235 . S
C1059 O1086 1.289 . S
O1060 C1059 1.235 . S
C1061 C1063 1.400 . S
C1061 N1064 1.351 . S
C1061 C1066 1.501 . S
C1062 C1063 1.387 . S
C1062 N1065 1.341 . S
C1063 C1061 1.400 . S
C1063 C1062 1.387 . S
N1064 Co1055 2.022 . S
N1064 C1061 1.351 . S
N1064 N1065 1.365 . S
N1065 C1062 1.341 . S
N1065 N1064 1.365 . S
N1065 H1085 0.862 . S
C1066 C1061 1.501 . S
C1066 H1067 0.961 . S
C1066 H1068 0.961 . S
C1066 H1069 0.960 . S
H1067 C1066 0.961 . S
H1068 C1066 0.961 . S
H1069 C1066 0.960 . S
C1070 N1071 1.342 . S
C1070 C1074 1.401 . S
C1070 C1075 1.499 . S
N1071 Co1054 1.989 . S
N1071 C1070 1.342 . S
N1071 N1072 1.388 . S
N1072 Co1055 1.993 . S
N1072 N1071 1.388 . S
N1072 C1073 1.346 . S
C1073 N1072 1.346 . S
C1073 C1074 1.396 . S
C1073 C1083 1.510 . S
C1074 C1070 1.401 . S
C1074 C1073 1.396 . S
C1075 C1070 1.499 . S
C1075 H1076 0.959 . S
C1075 H1077 0.960 . S
C1075 H1078 0.961 . S
H1076 C1075 0.959 . S
H1077 C1075 0.960 . S
H1078 C1075 0.961 . S
O1079 Co1054 1.967 . S
O1079 C1087 1.258 . S
O1080 Co1055 1.941 . S
O1080 C1087 1.266 . S
H1081 C1083 0.959 . S
H1082 C1083 0.961 . S
C1083 C1073 1.510 . S
C1083 H1081 0.959 . S
C1083 H1082 0.961 . S
C1083 H1084 0.960 . S
H1084 C1083 0.960 . S
H1085 N1065 0.862 . S
O1086 Co1054 1.920 . S
O1086 C1059 1.289 . S
C1087 O1079 1.258 . S
C1087 O1080 1.266 . S
C1088 C1089 1.369 . S
C1088 C1090 1.419 . S
C1088 H1092 0.930 . S
C1089 C1088 1.369 . S
C1089 C1098 1.429 . S
C1090 C1088 1.419 . S
C1090 C1091 1.363 . S
C1090 H1093 0.929 . S
C1091 C1090 1.363 . S
C1091 C1097 1.428 . S
H1092 C1088 0.930 . S
H1093 C1090 0.929 . S
S1094 N1095 1.613 . S
S1094 N1096 1.610 . S
N1095 S1094 1.613 . S
N1095 C1098 1.350 . S
N1096 S1094 1.610 . S
N1096 C1097 1.351 . S
C1097 C1091 1.428 . S
C1097 N1096 1.351 . S
C1097 C1098 1.434 . S
C1098 C1089 1.429 . S
C1098 N1095 1.350 . S
C1098 C1097 1.434 . S
C1099 C1100 1.369 . S
C1099 C1101 1.419 . S
C1099 H1103 0.930 . S
C1100 C1099 1.369 . S
C1100 C1109 1.429 . S
C1101 C1099 1.419 . S
C1101 C1102 1.363 . S
C1101 H1104 0.929 . S
C1102 C1101 1.363 . S
C1102 C1108 1.428 . S
H1103 C1099 0.930 . S
H1104 C1101 0.929 . S
S1105 N1106 1.613 . S
S1105 N1107 1.610 . S
N1106 S1105 1.613 . S
N1106 C1109 1.350 . S
N1107 S1105 1.610 . S
N1107 C1108 1.351 . S
C1108 C1102 1.428 . S
C1108 N1107 1.351 . S
C1108 C1109 1.434 . S
C1109 C1100 1.429 . S
C1109 N1106 1.350 . S
C1109 C1108 1.434 . S
C1110 C1111 1.369 . S
C1110 C1112 1.419 . S
C1110 H1114 0.930 . S
C1111 C1110 1.369 . S
C1111 C1120 1.429 . S
C1112 C1110 1.419 . S
C1112 C1113 1.363 . S
C1112 H1115 0.929 . S
C1113 C1112 1.363 . S
C1113 C1119 1.428 . S
H1114 C1110 0.930 . S
H1115 C1112 0.929 . S
S1116 N1117 1.613 . S
S1116 N1118 1.610 . S
N1117 S1116 1.613 . S
N1117 C1120 1.350 . S
N1118 S1116 1.610 . S
N1118 C1119 1.351 . S
C1119 C1113 1.428 . S
C1119 N1118 1.351 . S
C1119 C1120 1.434 . S
C1120 C1111 1.429 . S
C1120 N1117 1.350 . S
C1120 C1119 1.434 . S
C1121 C1122 1.369 . S
C1121 C1123 1.419 . S
C1121 H1125 0.930 . S
C1122 C1121 1.369 . S
C1122 C1131 1.429 . S
C1123 C1121 1.419 . S
C1123 C1124 1.363 . S
C1123 H1126 0.929 . S
C1124 C1123 1.363 . S
C1124 C1130 1.428 . S
H1125 C1121 0.930 . S
H1126 C1123 0.929 . S
S1127 N1128 1.613 . S
S1127 N1129 1.610 . S
N1128 S1127 1.613 . S
N1128 C1131 1.350 . S
N1129 S1127 1.610 . S
N1129 C1130 1.351 . S
C1130 C1124 1.428 . S
C1130 N1129 1.351 . S
C1130 C1131 1.434 . S
C1131 C1122 1.429 . S
C1131 N1128 1.350 . S
C1131 C1130 1.434 . S
C1132 C1133 1.369 . S
C1132 C1134 1.419 . S
C1132 H1136 0.930 . S
C1133 C1132 1.369 . S
C1133 C1142 1.429 . S
C1134 C1132 1.419 . S
C1134 C1135 1.363 . S
C1134 H1137 0.929 . S
C1135 C1134 1.363 . S
C1135 C1141 1.428 . S
H1136 C1132 0.930 . S
H1137 C1134 0.929 . S
S1138 N1139 1.613 . S
S1138 N1140 1.610 . S
N1139 S1138 1.613 . S
N1139 C1142 1.350 . S
N1140 S1138 1.610 . S
N1140 C1141 1.351 . S
C1141 C1135 1.428 . S
C1141 N1140 1.351 . S
C1141 C1142 1.434 . S
C1142 C1133 1.429 . S
C1142 N1139 1.350 . S
C1142 C1141 1.434 . S
C1143 C1144 1.369 . S
C1143 C1145 1.419 . S
C1143 H1147 0.930 . S
C1144 C1143 1.369 . S
C1144 C1153 1.429 . S
C1145 C1143 1.419 . S
C1145 C1146 1.363 . S
C1145 H1148 0.929 . S
C1146 C1145 1.363 . S
C1146 C1152 1.428 . S
H1147 C1143 0.930 . S
H1148 C1145 0.929 . S
S1149 N1150 1.613 . S
S1149 N1151 1.610 . S
N1150 S1149 1.613 . S
N1150 C1153 1.350 . S
N1151 S1149 1.610 . S
N1151 C1152 1.351 . S
C1152 C1146 1.428 . S
C1152 N1151 1.351 . S
C1152 C1153 1.434 . S
C1153 C1144 1.429 . S
C1153 N1150 1.350 . S
C1153 C1152 1.434 . S
C1154 C1155 1.369 . S
C1154 C1156 1.419 . S
C1154 H1158 0.930 . S
C1155 C1154 1.369 . S
C1155 C1164 1.429 . S
C1156 C1154 1.419 . S
C1156 C1157 1.363 . S
C1156 H1159 0.929 . S
C1157 C1156 1.363 . S
C1157 C1163 1.428 . S
H1158 C1154 0.930 . S
H1159 C1156 0.929 . S
S1160 N1161 1.613 . S
S1160 N1162 1.610 . S
N1161 S1160 1.613 . S
N1161 C1164 1.350 . S
N1162 S1160 1.610 . S
N1162 C1163 1.351 . S
C1163 C1157 1.428 . S
C1163 N1162 1.351 . S
C1163 C1164 1.434 . S
C1164 C1155 1.429 . S
C1164 N1161 1.350 . S
C1164 C1163 1.434 . S
C1165 C1166 1.369 . S
C1165 C1167 1.419 . S
C1165 H1169 0.930 . S
C1166 C1165 1.369 . S
C1166 C1175 1.429 . S
C1167 C1165 1.419 . S
C1167 C1168 1.363 . S
C1167 H1170 0.929 . S
C1168 C1167 1.363 . S
C1168 C1174 1.428 . S
H1169 C1165 0.930 . S
H1170 C1167 0.929 . S
S1171 N1172 1.613 . S
S1171 N1173 1.610 . S
N1172 S1171 1.613 . S
N1172 C1175 1.350 . S
N1173 S1171 1.610 . S
N1173 C1174 1.351 . S
C1174 C1168 1.428 . S
C1174 N1173 1.351 . S
C1174 C1175 1.434 . S
C1175 C1166 1.429 . S
C1175 N1172 1.350 . S
C1175 C1174 1.434 . S
C1176 C1177 1.369 . S
C1176 C1178 1.419 . S
C1176 H1180 0.930 . S
C1177 C1176 1.369 . S
C1177 C1186 1.429 . S
C1178 C1176 1.419 . S
C1178 C1179 1.363 . S
C1178 H1181 0.929 . S
C1179 C1178 1.363 . S
C1179 C1185 1.428 . S
H1180 C1176 0.930 . S
H1181 C1178 0.929 . S
S1182 N1183 1.613 . S
S1182 N1184 1.610 . S
N1183 S1182 1.613 . S
N1183 C1186 1.350 . S
N1184 S1182 1.610 . S
N1184 C1185 1.351 . S
C1185 C1179 1.428 . S
C1185 N1184 1.351 . S
C1185 C1186 1.434 . S
C1186 C1177 1.429 . S
C1186 N1183 1.350 . S
C1186 C1185 1.434 . S
C1187 C1188 1.369 . S
C1187 C1189 1.419 . S
C1187 H1191 0.930 . S
C1188 C1187 1.369 . S
C1188 C1197 1.429 . S
C1189 C1187 1.419 . S
C1189 C1190 1.363 . S
C1189 H1192 0.929 . S
C1190 C1189 1.363 . S
C1190 C1196 1.428 . S
H1191 C1187 0.930 . S
H1192 C1189 0.929 . S
S1193 N1194 1.613 . S
S1193 N1195 1.610 . S
N1194 S1193 1.613 . S
N1194 C1197 1.350 . S
N1195 S1193 1.610 . S
N1195 C1196 1.351 . S
C1196 C1190 1.428 . S
C1196 N1195 1.351 . S
C1196 C1197 1.434 . S
C1197 C1188 1.429 . S
C1197 N1194 1.350 . S
C1197 C1196 1.434 . S
C1198 C1199 1.369 . S
C1198 C1200 1.419 . S
C1198 H1202 0.930 . S
C1199 C1198 1.369 . S
C1199 C1208 1.429 . S
C1200 C1198 1.419 . S
C1200 C1201 1.363 . S
C1200 H1203 0.929 . S
C1201 C1200 1.363 . S
C1201 C1207 1.428 . S
H1202 C1198 0.930 . S
H1203 C1200 0.929 . S
S1204 N1205 1.613 . S
S1204 N1206 1.610 . S
N1205 S1204 1.613 . S
N1205 C1208 1.350 . S
N1206 S1204 1.610 . S
N1206 C1207 1.351 . S
C1207 C1201 1.428 . S
C1207 N1206 1.351 . S
C1207 C1208 1.434 . S
C1208 C1199 1.429 . S
C1208 N1205 1.350 . S
C1208 C1207 1.434 . S
C1209 C1210 1.369 . S
C1209 C1211 1.419 . S
C1209 H1213 0.930 . S
C1210 C1209 1.369 . S
C1210 C1219 1.429 . S
C1211 C1209 1.419 . S
C1211 C1212 1.363 . S
C1211 H1214 0.929 . S
C1212 C1211 1.363 . S
C1212 C1218 1.428 . S
H1213 C1209 0.930 . S
H1214 C1211 0.929 . S
S1215 N1216 1.613 . S
S1215 N1217 1.610 . S
N1216 S1215 1.613 . S
N1216 C1219 1.350 . S
N1217 S1215 1.610 . S
N1217 C1218 1.351 . S
C1218 C1212 1.428 . S
C1218 N1217 1.351 . S
C1218 C1219 1.434 . S
C1219 C1210 1.429 . S
C1219 N1216 1.350 . S
C1219 C1218 1.434 . S
C1220 C1221 1.369 . S
C1220 C1222 1.419 . S
C1220 H1224 0.930 . S
C1221 C1220 1.369 . S
C1221 C1230 1.429 . S
C1222 C1220 1.419 . S
C1222 C1223 1.363 . S
C1222 H1225 0.929 . S
C1223 C1222 1.363 . S
C1223 C1229 1.428 . S
H1224 C1220 0.930 . S
H1225 C1222 0.929 . S
S1226 N1227 1.613 . S
S1226 N1228 1.610 . S
N1227 S1226 1.613 . S
N1227 C1230 1.350 . S
N1228 S1226 1.610 . S
N1228 C1229 1.351 . S
C1229 C1223 1.428 . S
C1229 N1228 1.351 . S
C1229 C1230 1.434 . S
C1230 C1221 1.429 . S
C1230 N1227 1.350 . S
C1230 C1229 1.434 . S
C1231 C1232 1.369 . S
C1231 C1233 1.419 . S
C1231 H1235 0.930 . S
C1232 C1231 1.369 . S
C1232 C1241 1.429 . S
C1233 C1231 1.419 . S
C1233 C1234 1.363 . S
C1233 H1236 0.929 . S
C1234 C1233 1.363 . S
C1234 C1240 1.428 . S
H1235 C1231 0.930 . S
H1236 C1233 0.929 . S
S1237 N1238 1.613 . S
S1237 N1239 1.610 . S
N1238 S1237 1.613 . S
N1238 C1241 1.350 . S
N1239 S1237 1.610 . S
N1239 C1240 1.351 . S
C1240 C1234 1.428 . S
C1240 N1239 1.351 . S
C1240 C1241 1.434 . S
C1241 C1232 1.429 . S
C1241 N1238 1.350 . S
C1241 C1240 1.434 . S
C1242 C1243 1.369 . S
C1242 C1244 1.419 . S
C1242 H1246 0.930 . S
C1243 C1242 1.369 . S
C1243 C1252 1.429 . S
C1244 C1242 1.419 . S
C1244 C1245 1.363 . S
C1244 H1247 0.929 . S
C1245 C1244 1.363 . S
C1245 C1251 1.428 . S
H1246 C1242 0.930 . S
H1247 C1244 0.929 . S
S1248 N1249 1.613 . S
S1248 N1250 1.610 . S
N1249 S1248 1.613 . S
N1249 C1252 1.350 . S
N1250 S1248 1.610 . S
N1250 C1251 1.351 . S
C1251 C1245 1.428 . S
C1251 N1250 1.351 . S
C1251 C1252 1.434 . S
C1252 C1243 1.429 . S
C1252 N1249 1.350 . S
C1252 C1251 1.434 . S
C1253 C1254 1.369 . S
C1253 C1255 1.419 . S
C1253 H1257 0.930 . S
C1254 C1253 1.369 . S
C1254 C1263 1.429 . S
C1255 C1253 1.419 . S
C1255 C1256 1.363 . S
C1255 H1258 0.929 . S
C1256 C1255 1.363 . S
C1256 C1262 1.428 . S
H1257 C1253 0.930 . S
H1258 C1255 0.929 . S
S1259 N1260 1.613 . S
S1259 N1261 1.610 . S
N1260 S1259 1.613 . S
N1260 C1263 1.350 . S
N1261 S1259 1.610 . S
N1261 C1262 1.351 . S
C1262 C1256 1.428 . S
C1262 N1261 1.351 . S
C1262 C1263 1.434 . S
C1263 C1254 1.429 . S
C1263 N1260 1.350 . S
C1263 C1262 1.434 . S
C1264 C1265 1.369 . S
C1264 C1266 1.419 1_556 S
C1264 H1268 0.930 . S
C1265 C1264 1.369 . S
C1265 C1274 1.429 . S
C1266 C1264 1.419 1_554 S
C1266 C1267 1.363 . S
C1266 H1269 0.929 . S
C1267 C1266 1.363 . S
C1267 C1273 1.428 . S
H1268 C1264 0.930 . S
H1269 C1266 0.929 . S
S1270 N1271 1.613 1_554 S
S1270 N1272 1.610 . S
N1271 S1270 1.613 1_556 S
N1271 C1274 1.350 . S
N1272 S1270 1.610 . S
N1272 C1273 1.351 . S
C1273 C1267 1.428 . S
C1273 N1272 1.351 . S
C1273 C1274 1.434 1_554 S
C1274 C1265 1.429 . S
C1274 N1271 1.350 . S
C1274 C1273 1.434 1_556 S
C1275 C1276 1.369 . S
C1275 C1277 1.419 . S
C1275 H1279 0.930 . S
C1276 C1275 1.369 . S
C1276 C1285 1.429 1_545 S
C1277 C1275 1.419 . S
C1277 C1278 1.363 1_545 S
C1277 H1280 0.929 . S
C1278 C1277 1.363 1_565 S
C1278 C1284 1.428 . S
H1279 C1275 0.930 . S
H1280 C1277 0.929 . S
S1281 N1282 1.613 . S
S1281 N1283 1.610 . S
N1282 S1281 1.613 . S
N1282 C1285 1.350 1_655 S
N1283 S1281 1.610 . S
N1283 C1284 1.351 1_655 S
C1284 C1278 1.428 . S
C1284 N1283 1.351 1_455 S
C1284 C1285 1.434 . S
C1285 C1276 1.429 1_565 S
C1285 N1282 1.350 1_455 S
C1285 C1284 1.434 . S
C1286 C1287 1.369 . S
C1286 C1288 1.419 . S
C1286 H1290 0.930 . S
C1287 C1286 1.369 . S
C1287 C1296 1.429 . S
C1288 C1286 1.419 . S
C1288 C1289 1.363 . S
C1288 H1291 0.929 . S
C1289 C1288 1.363 . S
C1289 C1295 1.428 . S
H1290 C1286 0.930 . S
H1291 C1288 0.929 . S
S1292 N1293 1.613 . S
S1292 N1294 1.610 . S
N1293 S1292 1.613 . S
N1293 C1296 1.350 . S
N1294 S1292 1.610 . S
N1294 C1295 1.351 . S
C1295 C1289 1.428 . S
C1295 N1294 1.351 . S
C1295 C1296 1.434 . S
C1296 C1287 1.429 . S
C1296 N1293 1.350 . S
C1296 C1295 1.434 . S
C1297 C1298 1.369 1_545 S
C1297 C1299 1.419 . S
C1297 H1301 0.930 . S
C1298 C1297 1.369 1_565 S
C1298 C1307 1.429 . S
C1299 C1297 1.419 . S
C1299 C1300 1.363 . S
C1299 H1302 0.929 . S
C1300 C1299 1.363 . S
C1300 C1306 1.428 1_545 S
H1301 C1297 0.930 . S
H1302 C1299 0.929 . S
S1303 N1304 1.613 . S
S1303 N1305 1.610 . S
N1304 S1303 1.613 . S
N1304 C1307 1.350 . S
N1305 S1303 1.610 . S
N1305 C1306 1.351 . S
C1306 C1300 1.428 1_565 S
C1306 N1305 1.351 . S
C1306 C1307 1.434 . S
C1307 C1298 1.429 . S
C1307 N1304 1.350 . S
C1307 C1306 1.434 . S
C1308 C1309 1.369 . S
C1308 C1310 1.419 1_556 S
C1308 H1312 0.930 . S
C1309 C1308 1.369 . S
C1309 C1318 1.429 . S
C1310 C1308 1.419 1_554 S
C1310 C1311 1.363 . S
C1310 H1313 0.929 . S
C1311 C1310 1.363 . S
C1311 C1317 1.428 . S
H1312 C1308 0.930 . S
H1313 C1310 0.929 . S
S1314 N1315 1.613 1_554 S
S1314 N1316 1.610 . S
N1315 S1314 1.613 1_556 S
N1315 C1318 1.350 . S
N1316 S1314 1.610 . S
N1316 C1317 1.351 . S
C1317 C1311 1.428 . S
C1317 N1316 1.351 . S
C1317 C1318 1.434 1_554 S
C1318 C1309 1.429 . S
C1318 N1315 1.350 . S
C1318 C1317 1.434 1_556 S
C1319 C1320 1.369 . S
C1319 C1321 1.419 . S
C1319 H1323 0.930 . S
C1320 C1319 1.369 . S
C1320 C1329 1.429 1_545 S
C1321 C1319 1.419 . S
C1321 C1322 1.363 1_545 S
C1321 H1324 0.929 . S
C1322 C1321 1.363 1_565 S
C1322 C1328 1.428 . S
H1323 C1319 0.930 . S
H1324 C1321 0.929 . S
S1325 N1326 1.613 . S
S1325 N1327 1.610 . S
N1326 S1325 1.613 . S
N1326 C1329 1.350 . S
N1327 S1325 1.610 . S
N1327 C1328 1.351 . S
C1328 C1322 1.428 . S
C1328 N1327 1.351 . S
C1328 C1329 1.434 . S
C1329 C1320 1.429 1_565 S
C1329 N1326 1.350 . S
C1329 C1328 1.434 . S
C1330 C1331 1.369 . S
C1330 C1332 1.419 . S
C1330 H1334 0.930 . S
C1331 C1330 1.369 . S
C1331 C1340 1.429 . S
C1332 C1330 1.419 . S
C1332 C1333 1.363 . S
C1332 H1335 0.929 . S
C1333 C1332 1.363 . S
C1333 C1339 1.428 . S
H1334 C1330 0.930 . S
H1335 C1332 0.929 . S
S1336 N1337 1.613 . S
S1336 N1338 1.610 . S
N1337 S1336 1.613 . S
N1337 C1340 1.350 . S
N1338 S1336 1.610 . S
N1338 C1339 1.351 . S
C1339 C1333 1.428 . S
C1339 N1338 1.351 . S
C1339 C1340 1.434 . S
C1340 C1331 1.429 . S
C1340 N1337 1.350 . S
C1340 C1339 1.434 . S
C1341 C1342 1.369 1_545 S
C1341 C1343 1.419 . S
C1341 H1345 0.930 . S
C1342 C1341 1.369 1_565 S
C1342 C1351 1.429 . S
C1343 C1341 1.419 . S
C1343 C1344 1.363 . S
C1343 H1346 0.929 . S
C1344 C1343 1.363 . S
C1344 C1350 1.428 1_545 S
H1345 C1341 0.930 . S
H1346 C1343 0.929 . S
S1347 N1348 1.613 . S
S1347 N1349 1.610 . S
N1348 S1347 1.613 . S
N1348 C1351 1.350 . S
N1349 S1347 1.610 . S
N1349 C1350 1.351 . S
C1350 C1344 1.428 1_565 S
C1350 N1349 1.351 . S
C1350 C1351 1.434 . S
C1351 C1342 1.429 . S
C1351 N1348 1.350 . S
C1351 C1350 1.434 . S
C1352 C1353 1.369 . S
C1352 C1354 1.419 . S
C1352 H1356 0.930 . S
C1353 C1352 1.369 . S
C1353 C1362 1.429 . S
C1354 C1352 1.419 . S
C1354 C1355 1.363 . S
C1354 H1357 0.929 . S
C1355 C1354 1.363 . S
C1355 C1361 1.428 . S
H1356 C1352 0.930 . S
H1357 C1354 0.929 . S
S1358 N1359 1.613 . S
S1358 N1360 1.610 . S
N1359 S1358 1.613 . S
N1359 C1362 1.350 . S
N1360 S1358 1.610 . S
N1360 C1361 1.351 . S
C1361 C1355 1.428 . S
C1361 N1360 1.351 . S
C1361 C1362 1.434 . S
C1362 C1353 1.429 . S
C1362 N1359 1.350 . S
C1362 C1361 1.434 . S
C1363 C1364 1.369 . S
C1363 C1365 1.419 . S
C1363 H1367 0.930 . S
C1364 C1363 1.369 . S
C1364 C1373 1.429 . S
C1365 C1363 1.419 . S
C1365 C1366 1.363 . S
C1365 H1368 0.929 . S
C1366 C1365 1.363 . S
C1366 C1372 1.428 . S
H1367 C1363 0.930 . S
H1368 C1365 0.929 . S
S1369 N1370 1.613 . S
S1369 N1371 1.610 . S
N1370 S1369 1.613 . S
N1370 C1373 1.350 . S
N1371 S1369 1.610 . S
N1371 C1372 1.351 . S
C1372 C1366 1.428 . S
C1372 N1371 1.351 . S
C1372 C1373 1.434 . S
C1373 C1364 1.429 . S
C1373 N1370 1.350 . S
C1373 C1372 1.434 . S
C1374 C1375 1.369 . S
C1374 C1376 1.419 1_556 S
C1374 H1378 0.930 . S
C1375 C1374 1.369 . S
C1375 C1384 1.429 . S
C1376 C1374 1.419 1_554 S
C1376 C1377 1.363 . S
C1376 H1379 0.929 . S
C1377 C1376 1.363 . S
C1377 C1383 1.428 . S
H1378 C1374 0.930 . S
H1379 C1376 0.929 . S
S1380 N1381 1.613 . S
S1380 N1382 1.610 1_556 S
N1381 S1380 1.613 . S
N1381 C1384 1.350 . S
N1382 S1380 1.610 1_554 S
N1382 C1383 1.351 . S
C1383 C1377 1.428 . S
C1383 N1382 1.351 . S
C1383 C1384 1.434 1_554 S
C1384 C1375 1.429 . S
C1384 N1381 1.350 . S
C1384 C1383 1.434 1_556 S
C1385 C1386 1.369 . S
C1385 C1387 1.419 . S
C1385 H1389 0.930 1_655 S
C1386 C1385 1.369 . S
C1386 C1395 1.429 . S
C1387 C1385 1.419 . S
C1387 C1388 1.363 . S
C1387 H1390 0.929 1_655 S
C1388 C1387 1.363 . S
C1388 C1394 1.428 . S
H1389 C1385 0.930 1_455 S
H1390 C1387 0.929 1_455 S
S1391 N1392 1.613 . S
S1391 N1393 1.610 . S
N1392 S1391 1.613 . S
N1392 C1395 1.350 . S
N1393 S1391 1.610 . S
N1393 C1394 1.351 . S
C1394 C1388 1.428 . S
C1394 N1393 1.351 . S
C1394 C1395 1.434 . S
C1395 C1386 1.429 . S
C1395 N1392 1.350 . S
C1395 C1394 1.434 . S
C1396 C1397 1.369 . S
C1396 C1398 1.419 . S
C1396 H1400 0.930 . S
C1397 C1396 1.369 . S
C1397 C1406 1.429 . S
C1398 C1396 1.419 . S
C1398 C1399 1.363 . S
C1398 H1401 0.929 . S
C1399 C1398 1.363 . S
C1399 C1405 1.428 . S
H1400 C1396 0.930 . S
H1401 C1398 0.929 . S
S1402 N1403 1.613 . S
S1402 N1404 1.610 . S
N1403 S1402 1.613 . S
N1403 C1406 1.350 . S
N1404 S1402 1.610 . S
N1404 C1405 1.351 . S
C1405 C1399 1.428 . S
C1405 N1404 1.351 . S
C1405 C1406 1.434 . S
C1406 C1397 1.429 . S
C1406 N1403 1.350 . S
C1406 C1405 1.434 . S
C1407 C1408 1.369 . S
C1407 C1409 1.419 . S
C1407 H1411 0.930 . S
C1408 C1407 1.369 . S
C1408 C1417 1.429 . S
C1409 C1407 1.419 . S
C1409 C1410 1.363 . S
C1409 H1412 0.929 . S
C1410 C1409 1.363 . S
C1410 C1416 1.428 . S
H1411 C1407 0.930 . S
H1412 C1409 0.929 . S
S1413 N1414 1.613 . S
S1413 N1415 1.610 . S
N1414 S1413 1.613 . S
N1414 C1417 1.350 . S
N1415 S1413 1.610 . S
N1415 C1416 1.351 . S
C1416 C1410 1.428 . S
C1416 N1415 1.351 . S
C1416 C1417 1.434 . S
C1417 C1408 1.429 . S
C1417 N1414 1.350 . S
C1417 C1416 1.434 . S
C1418 C1419 1.369 . S
C1418 C1420 1.419 1_554 S
C1418 H1422 0.930 . S
C1419 C1418 1.369 . S
C1419 C1428 1.429 . S
C1420 C1418 1.419 1_556 S
C1420 C1421 1.363 . S
C1420 H1423 0.929 . S
C1421 C1420 1.363 . S
C1421 C1427 1.428 . S
H1422 C1418 0.930 . S
H1423 C1420 0.929 . S
S1424 N1425 1.613 . S
S1424 N1426 1.610 1_554 S
N1425 S1424 1.613 . S
N1425 C1428 1.350 . S
N1426 S1424 1.610 1_556 S
N1426 C1427 1.351 . S
C1427 C1421 1.428 . S
C1427 N1426 1.351 . S
C1427 C1428 1.434 1_556 S
C1428 C1419 1.429 . S
C1428 N1425 1.350 . S
C1428 C1427 1.434 1_554 S
C1429 C1430 1.369 . S
C1429 C1431 1.419 . S
C1429 H1433 0.930 . S
C1430 C1429 1.369 . S
C1430 C1439 1.429 . S
C1431 C1429 1.419 . S
C1431 C1432 1.363 . S
C1431 H1434 0.929 . S
C1432 C1431 1.363 . S
C1432 C1438 1.428 . S
H1433 C1429 0.930 . S
H1434 C1431 0.929 . S
S1435 N1436 1.613 . S
S1435 N1437 1.610 . S
N1436 S1435 1.613 . S
N1436 C1439 1.350 1_655 S
N1437 S1435 1.610 . S
N1437 C1438 1.351 1_655 S
C1438 C1432 1.428 . S
C1438 N1437 1.351 1_455 S
C1438 C1439 1.434 . S
C1439 C1430 1.429 . S
C1439 N1436 1.350 1_455 S
C1439 C1438 1.434 . S
C1440 C1441 1.369 . S
C1440 C1442 1.419 . S
C1440 H1444 0.930 . S
C1441 C1440 1.369 . S
C1441 C1450 1.429 . S
C1442 C1440 1.419 . S
C1442 C1443 1.363 . S
C1442 H1445 0.929 . S
C1443 C1442 1.363 . S
C1443 C1449 1.428 . S
H1444 C1440 0.930 . S
H1445 C1442 0.929 . S
S1446 N1447 1.613 . S
S1446 N1448 1.610 . S
N1447 S1446 1.613 . S
N1447 C1450 1.350 . S
N1448 S1446 1.610 . S
N1448 C1449 1.351 . S
C1449 C1443 1.428 . S
C1449 N1448 1.351 . S
C1449 C1450 1.434 . S
C1450 C1441 1.429 . S
C1450 N1447 1.350 . S
C1450 C1449 1.434 . S
C1451 C1452 1.369 . S
C1451 C1453 1.419 . S
C1451 H1455 0.930 . S
C1452 C1451 1.369 . S
C1452 C1461 1.429 1_545 S
C1453 C1451 1.419 . S
C1453 C1454 1.363 . S
C1453 H1456 0.929 . S
C1454 C1453 1.363 . S
C1454 C1460 1.428 1_545 S
H1455 C1451 0.930 . S
H1456 C1453 0.929 . S
S1457 N1458 1.613 . S
S1457 N1459 1.610 . S
N1458 S1457 1.613 . S
N1458 C1461 1.350 . S
N1459 S1457 1.610 . S
N1459 C1460 1.351 . S
C1460 C1454 1.428 1_565 S
C1460 N1459 1.351 . S
C1460 C1461 1.434 . S
C1461 C1452 1.429 1_565 S
C1461 N1458 1.350 . S
C1461 C1460 1.434 . S
C1462 C1463 1.369 . S
C1462 C1464 1.419 . S
C1462 H1466 0.930 . S
C1463 C1462 1.369 . S
C1463 C1472 1.429 . S
C1464 C1462 1.419 . S
C1464 C1465 1.363 . S
C1464 H1467 0.929 . S
C1465 C1464 1.363 . S
C1465 C1471 1.428 . S
H1466 C1462 0.930 . S
H1467 C1464 0.929 . S
S1468 N1469 1.613 . S
S1468 N1470 1.610 . S
N1469 S1468 1.613 . S
N1469 C1472 1.350 . S
N1470 S1468 1.610 . S
N1470 C1471 1.351 . S
C1471 C1465 1.428 . S
C1471 N1470 1.351 . S
C1471 C1472 1.434 . S
C1472 C1463 1.429 . S
C1472 N1469 1.350 . S
C1472 C1471 1.434 . S
C1473 C1474 1.369 1_545 S
C1473 C1475 1.419 . S
C1473 H1477 0.930 . S
C1474 C1473 1.369 1_565 S
C1474 C1483 1.429 . S
C1475 C1473 1.419 . S
C1475 C1476 1.363 1_545 S
C1475 H1478 0.929 . S
C1476 C1475 1.363 1_565 S
C1476 C1482 1.428 . S
H1477 C1473 0.930 . S
H1478 C1475 0.929 . S
S1479 N1480 1.613 . S
S1479 N1481 1.610 . S
N1480 S1479 1.613 . S
N1480 C1483 1.350 . S
N1481 S1479 1.610 . S
N1481 C1482 1.351 . S
C1482 C1476 1.428 . S
C1482 N1481 1.351 . S
C1482 C1483 1.434 . S
C1483 C1474 1.429 . S
C1483 N1480 1.350 . S
C1483 C1482 1.434 . S
C1484 C1485 1.369 . S
C1484 C1486 1.419 . S
C1484 H1488 0.930 . S
C1485 C1484 1.369 . S
C1485 C1494 1.429 . S
C1486 C1484 1.419 . S
C1486 C1487 1.363 . S
C1486 H1489 0.929 . S
C1487 C1486 1.363 . S
C1487 C1493 1.428 . S
H1488 C1484 0.930 . S
H1489 C1486 0.929 . S
S1490 N1491 1.613 . S
S1490 N1492 1.610 . S
N1491 S1490 1.613 . S
N1491 C1494 1.350 . S
N1492 S1490 1.610 . S
N1492 C1493 1.351 . S
C1493 C1487 1.428 . S
C1493 N1492 1.351 . S
C1493 C1494 1.434 . S
C1494 C1485 1.429 . S
C1494 N1491 1.350 . S
C1494 C1493 1.434 . S
C1495 C1496 1.369 . S
C1495 C1497 1.419 . S
C1495 H1499 0.930 . S
C1496 C1495 1.369 . S
C1496 C1505 1.429 . S
C1497 C1495 1.419 . S
C1497 C1498 1.363 . S
C1497 H1500 0.929 . S
C1498 C1497 1.363 . S
C1498 C1504 1.428 . S
H1499 C1495 0.930 . S
H1500 C1497 0.929 . S
S1501 N1502 1.613 . S
S1501 N1503 1.610 . S
N1502 S1501 1.613 . S
N1502 C1505 1.350 . S
N1503 S1501 1.610 . S
N1503 C1504 1.351 . S
C1504 C1498 1.428 . S
C1504 N1503 1.351 . S
C1504 C1505 1.434 . S
C1505 C1496 1.429 . S
C1505 N1502 1.350 . S
C1505 C1504 1.434 . S
C1506 C1507 1.369 . S
C1506 C1508 1.419 . S
C1506 H1510 0.930 . S
C1507 C1506 1.369 . S
C1507 C1516 1.429 . S
C1508 C1506 1.419 . S
C1508 C1509 1.363 . S
C1508 H1511 0.929 . S
C1509 C1508 1.363 . S
C1509 C1515 1.428 . S
H1510 C1506 0.930 . S
H1511 C1508 0.929 . S
S1512 N1513 1.613 . S
S1512 N1514 1.610 . S
N1513 S1512 1.613 . S
N1513 C1516 1.350 . S
N1514 S1512 1.610 . S
N1514 C1515 1.351 . S
C1515 C1509 1.428 . S
C1515 N1514 1.351 . S
C1515 C1516 1.434 . S
C1516 C1507 1.429 . S
C1516 N1513 1.350 . S
C1516 C1515 1.434 . S
C1517 C1518 1.369 . S
C1517 C1519 1.419 . S
C1517 H1521 0.930 . S
C1518 C1517 1.369 . S
C1518 C1527 1.429 . S
C1519 C1517 1.419 . S
C1519 C1520 1.363 . S
C1519 H1522 0.929 . S
C1520 C1519 1.363 . S
C1520 C1526 1.428 . S
H1521 C1517 0.930 . S
H1522 C1519 0.929 . S
S1523 N1524 1.613 . S
S1523 N1525 1.610 . S
N1524 S1523 1.613 . S
N1524 C1527 1.350 . S
N1525 S1523 1.610 . S
N1525 C1526 1.351 . S
C1526 C1520 1.428 . S
C1526 N1525 1.351 . S
C1526 C1527 1.434 . S
C1527 C1518 1.429 . S
C1527 N1524 1.350 . S
C1527 C1526 1.434 . S
C1528 C1529 1.369 . S
C1528 C1530 1.419 . S
C1528 H1532 0.930 . S
C1529 C1528 1.369 . S
C1529 C1538 1.429 . S
C1530 C1528 1.419 . S
C1530 C1531 1.363 . S
C1530 H1533 0.929 . S
C1531 C1530 1.363 . S
C1531 C1537 1.428 . S
H1532 C1528 0.930 . S
H1533 C1530 0.929 . S
S1534 N1535 1.613 . S
S1534 N1536 1.610 . S
N1535 S1534 1.613 . S
N1535 C1538 1.350 . S
N1536 S1534 1.610 . S
N1536 C1537 1.351 . S
C1537 C1531 1.428 . S
C1537 N1536 1.351 . S
C1537 C1538 1.434 . S
C1538 C1529 1.429 . S
C1538 N1535 1.350 . S
C1538 C1537 1.434 . S
C1539 C1540 1.369 . S
C1539 C1541 1.419 . S
C1539 H1543 0.930 . S
C1540 C1539 1.369 . S
C1540 C1549 1.429 . S
C1541 C1539 1.419 . S
C1541 C1542 1.363 . S
C1541 H1544 0.929 . S
C1542 C1541 1.363 . S
C1542 C1548 1.428 . S
H1543 C1539 0.930 . S
H1544 C1541 0.929 . S
S1545 N1546 1.613 . S
S1545 N1547 1.610 . S
N1546 S1545 1.613 . S
N1546 C1549 1.350 . S
N1547 S1545 1.610 . S
N1547 C1548 1.351 . S
C1548 C1542 1.428 . S
C1548 N1547 1.351 . S
C1548 C1549 1.434 . S
C1549 C1540 1.429 . S
C1549 N1546 1.350 . S
C1549 C1548 1.434 . S
C1550 C1551 1.369 . S
C1550 C1552 1.419 . S
C1550 H1554 0.930 . S
C1551 C1550 1.369 . S
C1551 C1560 1.429 . S
C1552 C1550 1.419 . S
C1552 C1553 1.363 . S
C1552 H1555 0.929 . S
C1553 C1552 1.363 . S
C1553 C1559 1.428 . S
H1554 C1550 0.930 . S
H1555 C1552 0.929 . S
S1556 N1557 1.613 . S
S1556 N1558 1.610 . S
N1557 S1556 1.613 . S
N1557 C1560 1.350 . S
N1558 S1556 1.610 . S
N1558 C1559 1.351 . S
C1559 C1553 1.428 . S
C1559 N1558 1.351 . S
C1559 C1560 1.434 . S
C1560 C1551 1.429 . S
C1560 N1557 1.350 . S
C1560 C1559 1.434 . S
C1561 C1562 1.369 . S
C1561 C1563 1.419 . S
C1561 H1565 0.930 . S
C1562 C1561 1.369 . S
C1562 C1571 1.429 . S
C1563 C1561 1.419 . S
C1563 C1564 1.363 . S
C1563 H1566 0.929 . S
C1564 C1563 1.363 . S
C1564 C1570 1.428 . S
H1565 C1561 0.930 . S
H1566 C1563 0.929 . S
S1567 N1568 1.613 . S
S1567 N1569 1.610 . S
N1568 S1567 1.613 . S
N1568 C1571 1.350 . S
N1569 S1567 1.610 . S
N1569 C1570 1.351 . S
C1570 C1564 1.428 . S
C1570 N1569 1.351 . S
C1570 C1571 1.434 . S
C1571 C1562 1.429 . S
C1571 N1568 1.350 . S
C1571 C1570 1.434 . S
C1572 C1573 1.369 . S
C1572 C1574 1.419 . S
C1572 H1576 0.930 . S
C1573 C1572 1.369 . S
C1573 C1582 1.429 . S
C1574 C1572 1.419 . S
C1574 C1575 1.363 . S
C1574 H1577 0.929 . S
C1575 C1574 1.363 . S
C1575 C1581 1.428 . S
H1576 C1572 0.930 . S
H1577 C1574 0.929 . S
S1578 N1579 1.613 . S
S1578 N1580 1.610 . S
N1579 S1578 1.613 . S
N1579 C1582 1.350 . S
N1580 S1578 1.610 . S
N1580 C1581 1.351 . S
C1581 C1575 1.428 . S
C1581 N1580 1.351 . S
C1581 C1582 1.434 . S
C1582 C1573 1.429 . S
C1582 N1579 1.350 . S
C1582 C1581 1.434 . S
C1583 C1584 1.369 . S
C1583 C1585 1.419 . S
C1583 H1587 0.930 1_565 S
C1584 C1583 1.369 . S
C1584 C1593 1.429 . S
C1585 C1583 1.419 . S
C1585 C1586 1.363 . S
C1585 H1588 0.930 1_565 S
C1586 C1585 1.363 . S
C1586 C1592 1.428 . S
H1587 C1583 0.930 1_545 S
H1588 C1585 0.930 1_545 S
S1589 N1590 1.613 . S
S1589 N1591 1.610 . S
N1590 S1589 1.613 . S
N1590 C1593 1.350 . S
N1591 S1589 1.610 . S
N1591 C1592 1.351 . S
C1592 C1586 1.428 . S
C1592 N1591 1.351 . S
C1592 C1593 1.434 . S
C1593 C1584 1.429 . S
C1593 N1590 1.350 . S
C1593 C1592 1.434 . S
C1594 C1595 1.369 . S
C1594 C1596 1.419 . S
C1594 H1598 0.930 . S
C1595 C1594 1.369 . S
C1595 C1604 1.429 . S
C1596 C1594 1.419 . S
C1596 C1597 1.363 . S
C1596 H1599 0.929 . S
C1597 C1596 1.363 . S
C1597 C1603 1.428 . S
H1598 C1594 0.930 . S
H1599 C1596 0.929 . S
S1600 N1601 1.613 . S
S1600 N1602 1.610 . S
N1601 S1600 1.613 . S
N1601 C1604 1.350 . S
N1602 S1600 1.610 . S
N1602 C1603 1.351 . S
C1603 C1597 1.428 . S
C1603 N1602 1.351 . S
C1603 C1604 1.434 . S
C1604 C1595 1.429 . S
C1604 N1601 1.350 . S
C1604 C1603 1.434 . S
C1605 C1606 1.369 1_565 S
C1605 C1607 1.419 . S
C1605 H1609 0.930 . S
C1606 C1605 1.369 1_545 S
C1606 C1615 1.429 . S
C1607 C1605 1.419 . S
C1607 C1608 1.363 1_565 S
C1607 H1610 0.929 . S
C1608 C1607 1.363 1_545 S
C1608 C1614 1.428 . S
H1609 C1605 0.930 . S
H1610 C1607 0.929 . S
S1611 N1612 1.613 . S
S1611 N1613 1.610 . S
N1612 S1611 1.613 . S
N1612 C1615 1.350 . S
N1613 S1611 1.610 . S
N1613 C1614 1.351 . S
C1614 C1608 1.428 . S
C1614 N1613 1.351 . S
C1614 C1615 1.434 . S
C1615 C1606 1.429 . S
C1615 N1612 1.350 . S
C1615 C1614 1.434 . S
C1616 C1617 1.369 . S
C1616 C1618 1.419 . S
C1616 H1620 0.930 . S
C1617 C1616 1.369 . S
C1617 C1626 1.429 . S
C1618 C1616 1.419 . S
C1618 C1619 1.363 . S
C1618 H1621 0.929 . S
C1619 C1618 1.363 . S
C1619 C1625 1.428 . S
H1620 C1616 0.930 . S
H1621 C1618 0.929 . S
S1622 N1623 1.613 . S
S1622 N1624 1.610 . S
N1623 S1622 1.613 . S
N1623 C1626 1.350 . S
N1624 S1622 1.610 . S
N1624 C1625 1.351 . S
C1625 C1619 1.428 . S
C1625 N1624 1.351 . S
C1625 C1626 1.434 . S
C1626 C1617 1.429 . S
C1626 N1623 1.350 . S
C1626 C1625 1.434 . S
C1627 C1628 1.369 . S
C1627 C1629 1.419 . S
C1627 H1631 0.930 . S
C1628 C1627 1.369 . S
C1628 C1637 1.429 . S
C1629 C1627 1.419 . S
C1629 C1630 1.363 . S
C1629 H1632 0.929 . S
C1630 C1629 1.363 . S
C1630 C1636 1.428 . S
H1631 C1627 0.930 . S
H1632 C1629 0.929 . S
S1633 N1634 1.613 . S
S1633 N1635 1.610 . S
N1634 S1633 1.613 . S
N1634 C1637 1.350 . S
N1635 S1633 1.610 . S
N1635 C1636 1.351 . S
C1636 C1630 1.428 . S
C1636 N1635 1.351 . S
C1636 C1637 1.434 . S
C1637 C1628 1.429 . S
C1637 N1634 1.350 . S
C1637 C1636 1.434 . S
C1638 C1639 1.369 . S
C1638 C1640 1.419 . S
C1638 H1642 0.930 . S
C1639 C1638 1.369 . S
C1639 C1648 1.429 . S
C1640 C1638 1.419 . S
C1640 C1641 1.363 . S
C1640 H1643 0.929 . S
C1641 C1640 1.363 . S
C1641 C1647 1.428 . S
H1642 C1638 0.930 . S
H1643 C1640 0.929 . S
S1644 N1645 1.613 . S
S1644 N1646 1.610 . S
N1645 S1644 1.613 . S
N1645 C1648 1.350 . S
N1646 S1644 1.610 . S
N1646 C1647 1.351 . S
C1647 C1641 1.428 . S
C1647 N1646 1.351 . S
C1647 C1648 1.434 . S
C1648 C1639 1.429 . S
C1648 N1645 1.350 . S
C1648 C1647 1.434 . S
C1649 C1650 1.369 . S
C1649 C1651 1.419 . S
C1649 H1653 0.930 . S
C1650 C1649 1.369 . S
C1650 C1659 1.429 . S
C1651 C1649 1.419 . S
C1651 C1652 1.363 . S
C1651 H1654 0.929 . S
C1652 C1651 1.363 . S
C1652 C1658 1.428 . S
H1653 C1649 0.930 . S
H1654 C1651 0.929 . S
S1655 N1656 1.613 . S
S1655 N1657 1.610 . S
N1656 S1655 1.613 . S
N1656 C1659 1.350 . S
N1657 S1655 1.610 . S
N1657 C1658 1.351 . S
C1658 C1652 1.428 . S
C1658 N1657 1.351 . S
C1658 C1659 1.434 . S
C1659 C1650 1.429 . S
C1659 N1656 1.350 . S
C1659 C1658 1.434 . S
C1660 C1661 1.369 . S
C1660 C1662 1.419 . S
C1660 H1664 0.930 . S
C1661 C1660 1.369 . S
C1661 C1670 1.429 . S
C1662 C1660 1.419 . S
C1662 C1663 1.363 . S
C1662 H1665 0.929 . S
C1663 C1662 1.363 . S
C1663 C1669 1.428 . S
H1664 C1660 0.930 . S
H1665 C1662 0.929 . S
S1666 N1667 1.613 . S
S1666 N1668 1.610 . S
N1667 S1666 1.613 . S
N1667 C1670 1.350 . S
N1668 S1666 1.610 . S
N1668 C1669 1.351 . S
C1669 C1663 1.428 . S
C1669 N1668 1.351 . S
C1669 C1670 1.434 . S
C1670 C1661 1.429 . S
C1670 N1667 1.350 . S
C1670 C1669 1.434 . S
C1671 C1672 1.369 . S
C1671 C1673 1.419 . S
C1671 H1675 0.930 . S
C1672 C1671 1.369 . S
C1672 C1681 1.429 . S
C1673 C1671 1.419 . S
C1673 C1674 1.363 . S
C1673 H1676 0.929 . S
C1674 C1673 1.363 . S
C1674 C1680 1.428 . S
H1675 C1671 0.930 . S
H1676 C1673 0.929 . S
S1677 N1678 1.613 . S
S1677 N1679 1.610 . S
N1678 S1677 1.613 . S
N1678 C1681 1.350 . S
N1679 S1677 1.610 . S
N1679 C1680 1.351 . S
C1680 C1674 1.428 . S
C1680 N1679 1.351 . S
C1680 C1681 1.434 . S
C1681 C1672 1.429 . S
C1681 N1678 1.350 . S
C1681 C1680 1.434 . S
C1682 C1683 1.369 . S
C1682 C1684 1.419 . S
C1682 H1686 0.930 . S
C1683 C1682 1.369 . S
C1683 C1692 1.429 . S
C1684 C1682 1.419 . S
C1684 C1685 1.363 . S
C1684 H1687 0.929 . S
C1685 C1684 1.363 . S
C1685 C1691 1.428 . S
H1686 C1682 0.930 . S
H1687 C1684 0.929 . S
S1688 N1689 1.613 . S
S1688 N1690 1.610 . S
N1689 S1688 1.613 . S
N1689 C1692 1.350 . S
N1690 S1688 1.610 . S
N1690 C1691 1.351 . S
C1691 C1685 1.428 . S
C1691 N1690 1.351 . S
C1691 C1692 1.434 . S
C1692 C1683 1.429 . S
C1692 N1689 1.350 . S
C1692 C1691 1.434 . S
C1693 C1694 1.369 . S
C1693 C1695 1.419 . S
C1693 H1697 0.930 . S
C1694 C1693 1.369 . S
C1694 C1703 1.429 . S
C1695 C1693 1.419 . S
C1695 C1696 1.363 . S
C1695 H1698 0.929 . S
C1696 C1695 1.363 . S
C1696 C1702 1.428 . S
H1697 C1693 0.930 . S
H1698 C1695 0.929 . S
S1699 N1700 1.613 . S
S1699 N1701 1.610 . S
N1700 S1699 1.613 . S
N1700 C1703 1.350 . S
N1701 S1699 1.610 . S
N1701 C1702 1.351 . S
C1702 C1696 1.428 . S
C1702 N1701 1.351 . S
C1702 C1703 1.434 . S
C1703 C1694 1.429 . S
C1703 N1700 1.350 . S
C1703 C1702 1.434 . S
C1704 C1705 1.369 . S
C1704 C1706 1.419 . S
C1704 H1708 0.930 . S
C1705 C1704 1.369 . S
C1705 C1714 1.429 . S
C1706 C1704 1.419 . S
C1706 C1707 1.363 . S
C1706 H1709 0.929 . S
C1707 C1706 1.363 . S
C1707 C1713 1.428 . S
H1708 C1704 0.930 . S
H1709 C1706 0.929 . S
S1710 N1711 1.613 . S
S1710 N1712 1.610 . S
N1711 S1710 1.613 . S
N1711 C1714 1.350 . S
N1712 S1710 1.610 . S
N1712 C1713 1.351 . S
C1713 C1707 1.428 . S
C1713 N1712 1.351 . S
C1713 C1714 1.434 . S
C1714 C1705 1.429 . S
C1714 N1711 1.350 . S
C1714 C1713 1.434 . S
C1715 C1716 1.369 . S
C1715 C1717 1.419 . S
C1715 H1719 0.930 . S
C1716 C1715 1.369 . S
C1716 C1725 1.429 . S
C1717 C1715 1.419 . S
C1717 C1718 1.363 . S
C1717 H1720 0.929 . S
C1718 C1717 1.363 . S
C1718 C1724 1.428 . S
H1719 C1715 0.930 . S
H1720 C1717 0.929 . S
S1721 N1722 1.613 . S
S1721 N1723 1.610 . S
N1722 S1721 1.613 . S
N1722 C1725 1.350 . S
N1723 S1721 1.610 . S
N1723 C1724 1.351 . S
C1724 C1718 1.428 . S
C1724 N1723 1.351 . S
C1724 C1725 1.434 . S
C1725 C1716 1.429 . S
C1725 N1722 1.350 . S
C1725 C1724 1.434 . S
C1726 C1727 1.369 . S
C1726 C1728 1.419 . S
C1726 H1730 0.930 . S
C1727 C1726 1.369 . S
C1727 C1736 1.429 . S
C1728 C1726 1.419 . S
C1728 C1729 1.363 . S
C1728 H1731 0.929 . S
C1729 C1728 1.363 . S
C1729 C1735 1.428 . S
H1730 C1726 0.930 . S
H1731 C1728 0.929 . S
S1732 N1733 1.613 . S
S1732 N1734 1.610 . S
N1733 S1732 1.613 . S
N1733 C1736 1.350 . S
N1734 S1732 1.610 . S
N1734 C1735 1.351 . S
C1735 C1729 1.428 . S
C1735 N1734 1.351 . S
C1735 C1736 1.434 . S
C1736 C1727 1.429 . S
C1736 N1733 1.350 . S
C1736 C1735 1.434 . S
C1737 C1738 1.369 . S
C1737 C1739 1.419 . S
C1737 H1741 0.930 . S
C1738 C1737 1.369 . S
C1738 C1747 1.429 . S
C1739 C1737 1.419 . S
C1739 C1740 1.363 . S
C1739 H1742 0.929 . S
C1740 C1739 1.363 . S
C1740 C1746 1.428 . S
H1741 C1737 0.930 . S
H1742 C1739 0.929 . S
S1743 N1744 1.613 . S
S1743 N1745 1.610 . S
N1744 S1743 1.613 . S
N1744 C1747 1.350 . S
N1745 S1743 1.610 . S
N1745 C1746 1.351 . S
C1746 C1740 1.428 . S
C1746 N1745 1.351 . S
C1746 C1747 1.434 . S
C1747 C1738 1.429 . S
C1747 N1744 1.350 . S
C1747 C1746 1.434 . S
C1748 C1749 1.369 . S
C1748 C1750 1.419 . S
C1748 H1752 0.930 . S
C1749 C1748 1.369 . S
C1749 C1758 1.429 . S
C1750 C1748 1.419 . S
C1750 C1751 1.363 . S
C1750 H1753 0.929 . S
C1751 C1750 1.363 . S
C1751 C1757 1.428 . S
H1752 C1748 0.930 . S
H1753 C1750 0.929 . S
S1754 N1755 1.613 . S
S1754 N1756 1.610 . S
N1755 S1754 1.613 . S
N1755 C1758 1.350 . S
N1756 S1754 1.610 . S
N1756 C1757 1.351 . S
C1757 C1751 1.428 . S
C1757 N1756 1.351 . S
C1757 C1758 1.434 . S
C1758 C1749 1.429 . S
C1758 N1755 1.350 . S
C1758 C1757 1.434 . S
C1759 C1760 1.369 . S
C1759 C1761 1.419 . S
C1759 H1763 0.930 . S
C1760 C1759 1.369 . S
C1760 C1769 1.429 . S
C1761 C1759 1.419 . S
C1761 C1762 1.363 . S
C1761 H1764 0.929 . S
C1762 C1761 1.363 . S
C1762 C1768 1.428 . S
H1763 C1759 0.930 . S
H1764 C1761 0.929 . S
S1765 N1766 1.613 . S
S1765 N1767 1.610 . S
N1766 S1765 1.613 . S
N1766 C1769 1.350 . S
N1767 S1765 1.610 . S
N1767 C1768 1.351 . S
C1768 C1762 1.428 . S
C1768 N1767 1.351 . S
C1768 C1769 1.434 . S
C1769 C1760 1.429 . S
C1769 N1766 1.350 . S
C1769 C1768 1.434 . S
C1770 C1771 1.369 . S
C1770 C1772 1.419 . S
C1770 H1774 0.930 . S
C1771 C1770 1.369 . S
C1771 C1780 1.429 . S
C1772 C1770 1.419 . S
C1772 C1773 1.363 . S
C1772 H1775 0.929 . S
C1773 C1772 1.363 . S
C1773 C1779 1.428 . S
H1774 C1770 0.930 . S
H1775 C1772 0.929 . S
S1776 N1777 1.613 . S
S1776 N1778 1.610 . S
N1777 S1776 1.613 . S
N1777 C1780 1.350 . S
N1778 S1776 1.610 . S
N1778 C1779 1.351 . S
C1779 C1773 1.428 . S
C1779 N1778 1.351 . S
C1779 C1780 1.434 . S
C1780 C1771 1.429 . S
C1780 N1777 1.350 . S
C1780 C1779 1.434 . S
C1781 C1782 1.369 . S
C1781 C1783 1.419 . S
C1781 H1785 0.930 . S
C1782 C1781 1.369 . S
C1782 C1791 1.429 . S
C1783 C1781 1.419 . S
C1783 C1784 1.363 . S
C1783 H1786 0.929 . S
C1784 C1783 1.363 . S
C1784 C1790 1.428 . S
H1785 C1781 0.930 . S
H1786 C1783 0.929 . S
S1787 N1788 1.613 . S
S1787 N1789 1.610 . S
N1788 S1787 1.613 . S
N1788 C1791 1.350 . S
N1789 S1787 1.610 . S
N1789 C1790 1.351 . S
C1790 C1784 1.428 . S
C1790 N1789 1.351 . S
C1790 C1791 1.434 . S
C1791 C1782 1.429 . S
C1791 N1788 1.350 . S
C1791 C1790 1.434 . S
C1792 C1793 1.369 . S
C1792 C1794 1.419 . S
C1792 H1796 0.930 . S
C1793 C1792 1.369 . S
C1793 C1802 1.429 . S
C1794 C1792 1.419 . S
C1794 C1795 1.363 . S
C1794 H1797 0.929 . S
C1795 C1794 1.363 . S
C1795 C1801 1.428 . S
H1796 C1792 0.930 . S
H1797 C1794 0.929 . S
S1798 N1799 1.613 . S
S1798 N1800 1.610 . S
N1799 S1798 1.613 . S
N1799 C1802 1.350 . S
N1800 S1798 1.610 . S
N1800 C1801 1.351 . S
C1801 C1795 1.428 . S
C1801 N1800 1.351 . S
C1801 C1802 1.434 . S
C1802 C1793 1.429 . S
C1802 N1799 1.350 . S
C1802 C1801 1.434 . S
C1803 C1804 1.369 1_455 S
C1803 C1805 1.419 . S
C1803 H1807 0.930 . S
C1804 C1803 1.369 1_655 S
C1804 C1813 1.429 . S
C1805 C1803 1.419 . S
C1805 C1806 1.363 . S
C1805 H1808 0.929 . S
C1806 C1805 1.363 . S
C1806 C1812 1.428 1_455 S
H1807 C1803 0.930 . S
H1808 C1805 0.929 . S
S1809 N1810 1.613 . S
S1809 N1811 1.610 . S
N1810 S1809 1.613 . S
N1810 C1813 1.350 . S
N1811 S1809 1.610 . S
N1811 C1812 1.351 . S
C1812 C1806 1.428 1_655 S
C1812 N1811 1.351 . S
C1812 C1813 1.434 . S
C1813 C1804 1.429 . S
C1813 N1810 1.350 . S
C1813 C1812 1.434 . S
C1814 C1815 1.369 . S
C1814 C1816 1.419 1_455 S
C1814 H1818 0.930 . S
C1815 C1814 1.369 . S
C1815 C1824 1.429 . S
C1816 C1814 1.419 1_655 S
C1816 C1817 1.363 . S
C1816 H1819 0.929 . S
C1817 C1816 1.363 . S
C1817 C1823 1.428 . S
H1818 C1814 0.930 . S
H1819 C1816 0.929 . S
S1820 N1821 1.613 1_655 S
S1820 N1822 1.610 . S
N1821 S1820 1.613 1_455 S
N1821 C1824 1.350 . S
N1822 S1820 1.610 . S
N1822 C1823 1.351 . S
C1823 C1817 1.428 . S
C1823 N1822 1.351 . S
C1823 C1824 1.434 1_655 S
C1824 C1815 1.429 . S
C1824 N1821 1.350 . S
C1824 C1823 1.434 1_455 S
C1825 C1826 1.369 . S
C1825 C1827 1.419 . S
C1825 H1829 0.930 . S
C1826 C1825 1.369 . S
C1826 C1835 1.429 . S
C1827 C1825 1.419 . S
C1827 C1828 1.363 . S
C1827 H1830 0.929 . S
C1828 C1827 1.363 . S
C1828 C1834 1.428 . S
H1829 C1825 0.930 . S
H1830 C1827 0.929 . S
S1831 N1832 1.613 . S
S1831 N1833 1.610 . S
N1832 S1831 1.613 . S
N1832 C1835 1.350 . S
N1833 S1831 1.610 . S
N1833 C1834 1.351 . S
C1834 C1828 1.428 . S
C1834 N1833 1.351 . S
C1834 C1835 1.434 . S
C1835 C1826 1.429 . S
C1835 N1832 1.350 . S
C1835 C1834 1.434 . S
C1836 C1837 1.369 . S
C1836 C1838 1.419 . S
C1836 H1840 0.930 . S
C1837 C1836 1.369 . S
C1837 C1846 1.429 . S
C1838 C1836 1.419 . S
C1838 C1839 1.363 . S
C1838 H1841 0.929 . S
C1839 C1838 1.363 . S
C1839 C1845 1.428 . S
H1840 C1836 0.930 . S
H1841 C1838 0.929 . S
S1842 N1843 1.613 . S
S1842 N1844 1.610 . S
N1843 S1842 1.613 . S
N1843 C1846 1.350 . S
N1844 S1842 1.610 . S
N1844 C1845 1.351 . S
C1845 C1839 1.428 . S
C1845 N1844 1.351 . S
C1845 C1846 1.434 . S
C1846 C1837 1.429 . S
C1846 N1843 1.350 . S
C1846 C1845 1.434 . S
C1847 C1848 1.369 . S
C1847 C1849 1.419 . S
C1847 H1851 0.930 . S
C1848 C1847 1.369 . S
C1848 C1857 1.429 . S
C1849 C1847 1.419 . S
C1849 C1850 1.363 . S
C1849 H1852 0.929 . S
C1850 C1849 1.363 . S
C1850 C1856 1.428 . S
H1851 C1847 0.930 . S
H1852 C1849 0.929 . S
S1853 N1854 1.613 . S
S1853 N1855 1.610 . S
N1854 S1853 1.613 . S
N1854 C1857 1.350 . S
N1855 S1853 1.610 . S
N1855 C1856 1.351 . S
C1856 C1850 1.428 . S
C1856 N1855 1.351 . S
C1856 C1857 1.434 . S
C1857 C1848 1.429 . S
C1857 N1854 1.350 . S
C1857 C1856 1.434 . S
C1858 C1859 1.369 . S
C1858 C1860 1.419 1_655 S
C1858 H1862 0.930 . S
C1859 C1858 1.369 . S
C1859 C1868 1.429 . S
C1860 C1858 1.419 1_455 S
C1860 C1861 1.363 . S
C1860 H1863 0.929 . S
C1861 C1860 1.363 . S
C1861 C1867 1.428 . S
H1862 C1858 0.930 . S
H1863 C1860 0.929 . S
S1864 N1865 1.613 . S
S1864 N1866 1.610 1_655 S
N1865 S1864 1.613 . S
N1865 C1868 1.350 . S
N1866 S1864 1.610 1_455 S
N1866 C1867 1.351 . S
C1867 C1861 1.428 . S
C1867 N1866 1.351 . S
C1867 C1868 1.434 1_455 S
C1868 C1859 1.429 . S
C1868 N1865 1.350 . S
C1868 C1867 1.434 1_655 S
C1869 C1870 1.369 . S
C1869 C1871 1.419 . S
C1869 H1873 0.930 . S
C1870 C1869 1.369 . S
C1870 C1879 1.429 1_655 S
C1871 C1869 1.419 . S
C1871 C1872 1.363 1_655 S
C1871 H1874 0.929 . S
C1872 C1871 1.363 1_455 S
C1872 C1878 1.428 . S
H1873 C1869 0.930 . S
H1874 C1871 0.929 . S
S1875 N1876 1.613 . S
S1875 N1877 1.610 . S
N1876 S1875 1.613 . S
N1876 C1879 1.350 . S
N1877 S1875 1.610 . S
N1877 C1878 1.351 . S
C1878 C1872 1.428 . S
C1878 N1877 1.351 . S
C1878 C1879 1.434 . S
C1879 C1870 1.429 1_455 S
C1879 N1876 1.350 . S
C1879 C1878 1.434 . S
C1880 C1881 1.369 . S
C1880 C1882 1.419 . S
C1880 H1884 0.930 . S
C1881 C1880 1.369 . S
C1881 C1890 1.429 . S
C1882 C1880 1.419 . S
C1882 C1883 1.363 . S
C1882 H1885 0.929 . S
C1883 C1882 1.363 . S
C1883 C1889 1.428 . S
H1884 C1880 0.930 . S
H1885 C1882 0.929 . S
S1886 N1887 1.613 . S
S1886 N1888 1.610 . S
N1887 S1886 1.613 . S
N1887 C1890 1.350 . S
N1888 S1886 1.610 . S
N1888 C1889 1.351 . S
C1889 C1883 1.428 . S
C1889 N1888 1.351 . S
C1889 C1890 1.434 . S
C1890 C1881 1.429 . S
C1890 N1887 1.350 . S
C1890 C1889 1.434 . S
C1891 C1892 1.369 1_655 S
C1891 C1893 1.419 . S
C1891 H1895 0.930 . S
C1892 C1891 1.369 1_455 S
C1892 C1901 1.429 . S
C1893 C1891 1.419 . S
C1893 C1894 1.363 . S
C1893 H1896 0.929 . S
C1894 C1893 1.363 . S
C1894 C1900 1.428 1_655 S
H1895 C1891 0.930 . S
H1896 C1893 0.929 . S
S1897 N1898 1.613 . S
S1897 N1899 1.610 . S
N1898 S1897 1.613 . S
N1898 C1901 1.350 . S
N1899 S1897 1.610 . S
N1899 C1900 1.351 . S
C1900 C1894 1.428 1_455 S
C1900 N1899 1.351 . S
C1900 C1901 1.434 . S
C1901 C1892 1.429 . S
C1901 N1898 1.350 . S
C1901 C1900 1.434 . S
C1902 C1903 1.369 . S
C1902 C1904 1.419 1_655 S
C1902 H1906 0.930 . S
C1903 C1902 1.369 . S
C1903 C1912 1.429 . S
C1904 C1902 1.419 1_455 S
C1904 C1905 1.363 . S
C1904 H1907 0.929 . S
C1905 C1904 1.363 . S
C1905 C1911 1.428 . S
H1906 C1902 0.930 . S
H1907 C1904 0.929 . S
S1908 N1909 1.613 . S
S1908 N1910 1.610 1_655 S
N1909 S1908 1.613 . S
N1909 C1912 1.350 . S
N1910 S1908 1.610 1_455 S
N1910 C1911 1.351 . S
C1911 C1905 1.428 . S
C1911 N1910 1.351 . S
C1911 C1912 1.434 1_455 S
C1912 C1903 1.429 . S
C1912 N1909 1.350 . S
C1912 C1911 1.434 1_655 S
C1913 C1914 1.369 . S
C1913 C1915 1.419 . S
C1913 H1917 0.930 . S
C1914 C1913 1.369 . S
C1914 C1923 1.429 . S
C1915 C1913 1.419 . S
C1915 C1916 1.363 . S
C1915 H1918 0.929 . S
C1916 C1915 1.363 . S
C1916 C1922 1.428 . S
H1917 C1913 0.930 . S
H1918 C1915 0.929 . S
S1919 N1920 1.613 . S
S1919 N1921 1.610 . S
N1920 S1919 1.613 . S
N1920 C1923 1.350 . S
N1921 S1919 1.610 . S
N1921 C1922 1.351 . S
C1922 C1916 1.428 . S
C1922 N1921 1.351 . S
C1922 C1923 1.434 . S
C1923 C1914 1.429 . S
C1923 N1920 1.350 . S
C1923 C1922 1.434 . S
C1924 C1925 1.369 . S
C1924 C1926 1.419 . S
C1924 H1928 0.930 . S
C1925 C1924 1.369 . S
C1925 C1934 1.429 . S
C1926 C1924 1.419 . S
C1926 C1927 1.363 . S
C1926 H1929 0.929 . S
C1927 C1926 1.363 . S
C1927 C1933 1.428 . S
H1928 C1924 0.930 . S
H1929 C1926 0.929 . S
S1930 N1931 1.613 . S
S1930 N1932 1.610 . S
N1931 S1930 1.613 . S
N1931 C1934 1.350 . S
N1932 S1930 1.610 . S
N1932 C1933 1.351 . S
C1933 C1927 1.428 . S
C1933 N1932 1.351 . S
C1933 C1934 1.434 . S
C1934 C1925 1.429 . S
C1934 N1931 1.350 . S
C1934 C1933 1.434 . S
C1935 C1936 1.369 . S
C1935 C1937 1.419 . S
C1935 H1939 0.930 . S
C1936 C1935 1.369 . S
C1936 C1945 1.429 . S
C1937 C1935 1.419 . S
C1937 C1938 1.363 . S
C1937 H1940 0.929 . S
C1938 C1937 1.363 . S
C1938 C1944 1.428 . S
H1939 C1935 0.930 . S
H1940 C1937 0.929 . S
S1941 N1942 1.613 . S
S1941 N1943 1.610 . S
N1942 S1941 1.613 . S
N1942 C1945 1.350 . S
N1943 S1941 1.610 . S
N1943 C1944 1.351 . S
C1944 C1938 1.428 . S
C1944 N1943 1.351 . S
C1944 C1945 1.434 . S
C1945 C1936 1.429 . S
C1945 N1942 1.350 . S
C1945 C1944 1.434 . S
C1946 C1947 1.369 . S
C1946 C1948 1.419 1_455 S
C1946 H1950 0.930 . S
C1947 C1946 1.369 . S
C1947 C1956 1.429 . S
C1948 C1946 1.419 1_655 S
C1948 C1949 1.363 . S
C1948 H1951 0.929 . S
C1949 C1948 1.363 . S
C1949 C1955 1.428 . S
H1950 C1946 0.930 . S
H1951 C1948 0.929 . S
S1952 N1953 1.613 1_655 S
S1952 N1954 1.610 . S
N1953 S1952 1.613 1_455 S
N1953 C1956 1.350 . S
N1954 S1952 1.610 . S
N1954 C1955 1.351 . S
C1955 C1949 1.428 . S
C1955 N1954 1.351 . S
C1955 C1956 1.434 1_655 S
C1956 C1947 1.429 . S
C1956 N1953 1.350 . S
C1956 C1955 1.434 1_455 S
C1957 C1958 1.369 . S
C1957 C1959 1.419 . S
C1957 H1961 0.930 . S
C1958 C1957 1.369 . S
C1958 C1967 1.429 1_455 S
C1959 C1957 1.419 . S
C1959 C1960 1.363 1_455 S
C1959 H1962 0.929 . S
C1960 C1959 1.363 1_655 S
C1960 C1966 1.428 . S
H1961 C1957 0.930 . S
H1962 C1959 0.929 . S
S1963 N1964 1.613 . S
S1963 N1965 1.610 . S
N1964 S1963 1.613 . S
N1964 C1967 1.350 . S
N1965 S1963 1.610 . S
N1965 C1966 1.351 . S
C1966 C1960 1.428 . S
C1966 N1965 1.351 . S
C1966 C1967 1.434 . S
C1967 C1958 1.429 1_655 S
C1967 N1964 1.350 . S
C1967 C1966 1.434 . S
C1089 C20 1.903 . S
C1091 C258 1.899 . S
C1100 C54 1.904 . S
C1102 C156 1.902 . S
C1111 C88 1.900 . S
C1113 C190 1.901 . S
C1122 C122 1.902 . S
C1124 C224 1.900 . S
C1133 C530 1.898 . S
C1135 C292 1.904 . S
C1144 C326 1.904 . S
C1146 C428 1.901 . S
C1155 C462 1.898 . S
C1157 C360 1.903 . S
C1166 C394 1.905 . S
C1168 C496 1.900 . S
C1177 C564 1.900 . S
C1179 C802 1.901 . S
C1188 C700 1.905 . S
C1190 C598 1.899 . S
C1199 C632 1.901 . S
C1201 C734 1.900 . S
C1210 C666 1.900 . S
C1212 C768 1.901 . S
C1221 C836 1.905 . S
C1223 C1074 1.900 . S
C1232 C870 1.904 . S
C1234 C972 1.899 . S
C1243 C1006 1.901 . S
C1245 C904 1.901 . S
C1254 C1040 1.905 . S
C1256 C938 1.899 . S
C1265 C206 1.633 . S
C1267 C2 1.633 . S
C1276 C36 1.633 . S
C1278 C240 1.632 . S
C1287 C70 1.632 . S
C1289 C138 1.633 . S
C1298 C104 1.633 . S
C1300 C172 1.633 . S
C1309 C274 1.632 . S
C1311 C478 1.633 . S
C1320 C512 1.632 . S
C1322 C308 1.632 . S
C1331 C410 1.632 . S
C1333 C342 1.633 . S
C1342 C444 1.633 . S
C1344 C376 1.633 . S
C1353 C546 1.633 . S
C1355 C750 1.633 . S
C1364 C784 1.633 . S
C1366 C580 1.633 . S
C1375 C682 1.632 . S
C1377 C614 1.632 . S
C1386 C648 1.632 . S
C1388 C716 1.633 . S
C1397 C1022 1.632 . S
C1399 C818 1.633 . S
C1408 C852 1.633 . S
C1410 C1056 1.633 . S
C1419 C954 1.632 . S
C1421 C886 1.632 . S
C1430 C988 1.633 . S
C1432 C920 1.633 . S
C1441 C957 0.859 . S
C1443 C9 0.828 . S
C1452 C447 0.854 . S
C1454 C43 0.836 . S
C1463 C1025 0.860 . S
C1465 C77 0.821 . S
C1474 C111 0.832 . S
C1476 C515 0.851 . S
C1485 C821 0.860 . S
C1487 C145 0.821 . S
C1496 C311 0.860 . S
C1498 C179 0.826 . S
C1507 C889 0.847 . S
C1509 C213 0.839 . S
C1518 C247 0.841 . S
C1520 C379 0.849 . S
C1529 C281 0.841 . S
C1531 C685 0.849 . S
C1540 C315 0.824 . S
C1542 C175 0.860 . S
C1551 C349 0.828 . S
C1553 C753 0.852 . S
C1562 C243 0.848 . S
C1564 C383 0.839 . S
C1573 C549 0.861 . S
C1575 C417 0.825 . S
C1584 C451 0.832 . S
C1586 C39 0.850 . S
C1595 C485 0.842 . S
C1597 C617 0.850 . S
C1606 C519 0.829 . S
C1608 C107 0.851 . S
C1617 C413 0.848 . S
C1619 C553 0.839 . S
C1628 C587 0.819 . S
C1630 C991 0.859 . S
C1639 C481 0.848 . S
C1641 C621 0.839 . S
C1650 C655 0.827 . S
C1652 C1059 0.853 . S
C1661 C689 0.820 . S
C1663 C277 0.860 . S
C1672 C723 0.836 . S
C1674 C855 0.855 . S
C1683 C345 0.848 . S
C1685 C757 0.835 . S
C1694 C791 0.842 . S
C1696 C923 0.850 . S
C1705 C141 0.849 . S
C1707 C825 0.840 . S
C1716 C719 0.849 . S
C1718 C859 0.840 . S
C1727 C209 0.861 . S
C1729 C893 0.824 . S
C1738 C787 0.854 . S
C1740 C927 0.837 . S
C1749 C5 0.848 . S
C1751 C961 0.834 . S
C1760 C583 0.847 . S
C1762 C995 0.837 . S
C1771 C1029 0.841 . S
C1773 C73 0.849 . S
C1782 C651 0.857 . S
C1784 C1063 0.833 . S
C1793 C645 2.375 . S
C1795 C33 2.376 . S
C1804 C679 2.376 . S
C1806 C67 2.375 . S
C1815 C101 2.376 . S
C1817 C577 2.375 . S
C1826 C135 2.376 . S
C1828 C611 2.375 . S
C1837 C781 2.376 . S
C1839 C169 2.375 . S
C1848 C203 2.375 . S
C1850 C815 2.376 . S
C1859 C713 2.375 . S
C1861 C237 2.375 . S
C1870 C747 2.375 . S
C1872 C271 2.375 . S
C1881 C917 2.376 . S
C1883 C305 2.376 . S
C1892 C951 2.376 . S
C1894 C339 2.375 . S
C1903 C373 2.376 . S
C1905 C849 2.376 . S
C1914 C407 2.375 . S
C1916 C883 2.375 . S
C1925 C441 2.375 . S
C1927 C1053 2.376 . S
C1936 C475 2.375 . S
C1938 C1087 2.375 . S
C1947 C985 2.375 . S
C1949 C509 2.375 . S
C1958 C1019 2.375 . S
C1960 C543 2.375 . S
