# Generated by pormake.
# Topology can, (4)-cn, num edge types: 1
# Building blocks:
#     Node 0, Type 0, BuildingBlock: QUQFOY_clean_sbu_3, # of connection points: 4
#     Node 1, Type 0, BuildingBlock: QUQFOY_clean_sbu_3, # of connection points: 4
#     Node 2, Type 0, BuildingBlock: QUQFOY_clean_sbu_3, # of connection points: 4
#     Node 3, Type 0, BuildingBlock: QUQFOY_clean_sbu_3, # of connection points: 4
#     Node 4, Type 0, BuildingBlock: QUQFOY_clean_sbu_3, # of connection points: 4
#     Node 5, Type 0, BuildingBlock: QUQFOY_clean_sbu_3, # of connection points: 4
#     Node 6, Type 0, BuildingBlock: QUQFOY_clean_sbu_3, # of connection points: 4
#     Node 7, Type 0, BuildingBlock: QUQFOY_clean_sbu_3, # of connection points: 4
#     Node 8, Type 0, BuildingBlock: QUQFOY_clean_sbu_3, # of connection points: 4
#     Node 9, Type 0, BuildingBlock: QUQFOY_clean_sbu_3, # of connection points: 4
#     Node 10, Type 0, BuildingBlock: QUQFOY_clean_sbu_3, # of connection points: 4
#     Node 11, Type 0, BuildingBlock: QUQFOY_clean_sbu_3, # of connection points: 4
#     Edge 12, Type (0, 0), BuildingBlock: XIVTED_clean_linker_0, # of connection points: 2
#     Edge 13, Type (0, 0), BuildingBlock: XIVTED_clean_linker_0, # of connection points: 2
#     Edge 14, Type (0, 0), BuildingBlock: XIVTED_clean_linker_0, # of connection points: 2
#     Edge 15, Type (0, 0), BuildingBlock: XIVTED_clean_linker_0, # of connection points: 2
#     Edge 16, Type (0, 0), BuildingBlock: XIVTED_clean_linker_0, # of connection points: 2
#     Edge 17, Type (0, 0), BuildingBlock: XIVTED_clean_linker_0, # of connection points: 2
#     Edge 18, Type (0, 0), BuildingBlock: XIVTED_clean_linker_0, # of connection points: 2
#     Edge 19, Type (0, 0), BuildingBlock: XIVTED_clean_linker_0, # of connection points: 2
#     Edge 20, Type (0, 0), BuildingBlock: XIVTED_clean_linker_0, # of connection points: 2
#     Edge 21, Type (0, 0), BuildingBlock: XIVTED_clean_linker_0, # of connection points: 2
#     Edge 22, Type (0, 0), BuildingBlock: XIVTED_clean_linker_0, # of connection points: 2
#     Edge 23, Type (0, 0), BuildingBlock: XIVTED_clean_linker_0, # of connection points: 2
#     Edge 24, Type (0, 0), BuildingBlock: XIVTED_clean_linker_0, # of connection points: 2
#     Edge 25, Type (0, 0), BuildingBlock: XIVTED_clean_linker_0, # of connection points: 2
#     Edge 26, Type (0, 0), BuildingBlock: XIVTED_clean_linker_0, # of connection points: 2
#     Edge 27, Type (0, 0), BuildingBlock: XIVTED_clean_linker_0, # of connection points: 2
#     Edge 28, Type (0, 0), BuildingBlock: XIVTED_clean_linker_0, # of connection points: 2
#     Edge 29, Type (0, 0), BuildingBlock: XIVTED_clean_linker_0, # of connection points: 2
#     Edge 30, Type (0, 0), BuildingBlock: XIVTED_clean_linker_0, # of connection points: 2
#     Edge 31, Type (0, 0), BuildingBlock: XIVTED_clean_linker_0, # of connection points: 2
#     Edge 32, Type (0, 0), BuildingBlock: XIVTED_clean_linker_0, # of connection points: 2
#     Edge 33, Type (0, 0), BuildingBlock: XIVTED_clean_linker_0, # of connection points: 2
#     Edge 34, Type (0, 0), BuildingBlock: XIVTED_clean_linker_0, # of connection points: 2
#     Edge 35, Type (0, 0), BuildingBlock: XIVTED_clean_linker_0, # of connection points: 2
# Relax obj value: 0.050
# Max RMSD: 0.036
# Mean RMSD: 0.036
data_MOF--net-can--node1-QUQFOY_clean_sbu_3--edge1-XIVTED_clean_linker_0
_symmetry_space_group_name_H-M    P1
_symmetry_Int_Tables_number       1
_symmetry_cell_setting            triclinic
loop_
_symmetry_equiv_pos_as_xyz
'x, y, z'
_cell_length_a     56.914767
_cell_length_b     56.902514
_cell_length_c     28.551738
_cell_angle_alpha  90.041832
_cell_angle_beta   89.899123
_cell_angle_gamma 120.022
loop_
_atom_site_label
_atom_site_type_symbol
_atom_site_fract_x
_atom_site_fract_y
_atom_site_fract_z
_atom_type_partial_charge
C0 C -0.00638 0.34126 0.31618 0.0
O1 O 0.97384 0.33587 0.28913 0.0
Cd2 Cd 0.97925 0.35015 0.20871 0.0
O3 O 0.01798 0.35511 0.30171 0.0
Cd4 Cd 0.04271 0.37763 0.23031 0.0
C5 C 0.01569 0.41864 0.22671 0.0
O6 O 0.01307 0.34107 0.17883 0.0
O7 O 0.04355 0.37768 0.14503 0.0
O8 O 0.07445 0.36314 0.25049 0.0
C9 C 0.0249 0.35312 0.14142 0.0
O10 O -0.00569 0.39865 0.20992 0.0
C11 C 0.09557 0.38597 0.24342 0.0
O12 O 0.03549 0.41602 0.24055 0.0
O13 O 0.09211 0.4057 0.23271 0.0
C14 C 0.64739 0.01465 0.81198 0.0
O15 O 0.63481 -0.00576 0.78515 0.0
Cd16 Cd 0.62641 -0.00259 0.70353 0.0
O17 O 0.65575 0.03862 0.79694 0.0
Cd18 Cd 0.65541 0.06158 0.72471 0.0
C19 C 0.58684 0.02634 0.71634 0.0
O20 O 0.66885 0.03456 0.67838 0.0
O21 O 0.6621 0.06327 0.64016 0.0
O22 O 0.69545 0.09947 0.75909 0.0
C23 C 0.66959 0.04574 0.63974 0.0
O24 O 0.58845 0.00627 0.70049 0.0
C25 C 0.69156 0.11747 0.74034 0.0
O26 O 0.60774 0.0477 0.73073 0.0
O27 O 0.6703 0.1094 0.71588 0.0
C28 C 0.63597 0.65017 0.30929 0.0
O29 O 0.64071 0.63531 0.28215 0.0
Cd30 Cd 0.6258 0.62699 0.20212 0.0
O31 O 0.62243 0.66105 0.2952 0.0
Cd32 Cd 0.5996 0.66442 0.22545 0.0
C33 C 0.55728 0.59661 0.22077 0.0
O34 O 0.63587 0.67059 0.17464 0.0
O35 O 0.60065 0.66692 0.13969 0.0
O36 O 0.61579 0.71022 0.2507 0.0
C37 C 0.62475 0.67131 0.13682 0.0
O38 O 0.57702 0.59471 0.20404 0.0
C39 C 0.59378 0.71015 0.24336 0.0
O40 O 0.56041 0.61921 0.23489 0.0
O41 O 0.57362 0.68802 0.22948 0.0
C42 C 0.9889 0.64497 0.80974 0.0
O43 O 0.00931 0.65235 0.78308 0.0
Cd44 Cd 0.00483 0.63823 0.70293 0.0
O45 O 0.96491 0.63019 0.79428 0.0
Cd46 Cd 0.94027 0.60887 0.72208 0.0
C47 C 0.96889 0.56903 0.7189 0.0
O48 O 0.97034 0.64647 0.67293 0.0
O49 O 0.93901 0.61145 0.63691 0.0
O50 O 0.90908 0.62269 0.74916 0.0
C51 C 0.9587 0.63559 0.63477 0.0
O52 O -0.00889 0.59009 0.70758 0.0
C53 C 0.88772 0.60023 0.74114 0.0
O54 O 0.94771 0.57051 0.72743 0.0
O55 O 0.89077 0.58103 0.72536 0.0
C56 C 0.32906 0.97188 0.31955 0.0
O57 O 0.34184 0.99357 0.29574 0.0
Cd58 Cd 0.3548 -0.00504 0.21546 0.0
O59 O 0.32219 0.94887 0.30145 0.0
Cd60 Cd 0.32489 0.92938 0.22619 0.0
C61 C 0.39385 0.9648 0.22572 0.0
O62 O 0.31386 0.95921 0.18252 0.0
O63 O 0.3196 0.93046 0.14207 0.0
O64 O 0.28402 0.89075 0.25676 0.0
C65 C 0.31376 0.94918 0.14293 0.0
O66 O 0.39283 0.98624 0.21724 0.0
C67 C 0.28799 0.87318 0.23643 0.0
O68 O 0.37226 0.94216 0.23199 0.0
O69 O 0.30953 0.88176 0.21245 0.0
C70 C 0.34942 0.33535 0.82482 0.0
O71 O 0.34162 0.34922 0.80153 0.0
Cd72 Cd 0.35213 0.36052 0.72045 0.0
O73 O 0.3631 0.32591 0.80542 0.0
Cd74 Cd 0.38099 0.32398 0.72841 0.0
C75 C 0.42194 0.39213 0.72607 0.0
O76 O 0.34236 0.31888 0.68426 0.0
O77 O 0.37674 0.3235 0.64423 0.0
O78 O 0.36504 0.27714 0.74483 0.0
C79 C 0.35266 0.31925 0.64472 0.0
O80 O 0.40055 0.3935 0.7193 0.0
C81 C 0.38709 0.27776 0.73508 0.0
O82 O 0.42063 0.36935 0.73249 0.0
O83 O 0.40729 0.30064 0.72413 0.0
C84 C 0.64625 0.99082 0.1562 0.0
O85 O 0.6539 0.01123 0.18292 0.0
Cd86 Cd 0.64179 0.00763 0.26416 0.0
O87 O 0.63215 0.9668 0.17207 0.0
Cd88 Cd 0.6128 0.94287 0.24585 0.0
C89 C 0.57238 0.97083 0.25273 0.0
O90 O 0.65052 0.9736 0.2945 0.0
O91 O 0.61561 0.94213 0.33067 0.0
O92 O 0.62663 0.91097 0.2226 0.0
C93 C 0.63961 0.96203 0.33276 0.0
O94 O 0.59349 0.99322 0.26309 0.0
C95 C 0.6038 0.88992 0.23009 0.0
O96 O 0.57398 0.9498 0.24335 0.0
O97 O 0.58448 0.89352 0.24319 0.0
C98 C 0.65633 0.64167 0.65099 0.0
O99 O 0.64358 0.64988 0.67656 0.0
Cd100 Cd 0.63223 0.63723 0.75686 0.0
O101 O 0.66487 0.62657 0.66767 0.0
Cd102 Cd 0.66705 0.60609 0.74179 0.0
C103 C 0.5986 0.56738 0.74422 0.0
O104 O 0.67338 0.64367 0.78948 0.0
O105 O 0.66838 0.60855 0.82697 0.0
O106 O 0.7133 0.62083 0.72228 0.0
C107 C 0.67262 0.63262 0.8283 0.0
O108 O 0.5982 0.58908 0.75355 0.0
C109 C 0.71193 0.5982 0.72972 0.0
O110 O 0.6209 0.56785 0.7366 0.0
O111 O 0.68888 0.57833 0.74091 0.0
C112 C 0.01252 0.65744 0.15403 0.0
O113 O -0.00784 0.64479 0.181 0.0
Cd114 Cd -0.00451 0.63676 0.26284 0.0
O115 O 0.03653 0.6662 0.16903 0.0
Cd116 Cd 0.05966 0.66653 0.24116 0.0
C117 C 0.02505 0.59786 0.25039 0.0
O118 O 0.03237 0.67923 0.28846 0.0
O119 O 0.06179 0.67329 0.32581 0.0
O120 O 0.09747 0.70692 0.20719 0.0
C121 C 0.04361 0.6799 0.32695 0.0
O122 O 0.00485 0.59916 0.26644 0.0
C123 C 0.11546 0.70247 0.22438 0.0
O124 O 0.04618 0.61891 0.23564 0.0
O125 O 0.10737 0.68088 0.24798 0.0
C126 C 0.33057 -0.00503 0.66173 0.0
O127 O 0.32509 0.9756 0.68988 0.0
Cd128 Cd 0.34016 0.98332 0.7702 0.0
O129 O 0.34489 0.01953 0.67482 0.0
Cd130 Cd 0.36885 0.04658 0.74299 0.0
C131 C 0.40843 0.01787 0.74949 0.0
O132 O 0.33286 0.019 0.79706 0.0
O133 O 0.36953 0.05087 0.82815 0.0
O134 O 0.35551 0.07796 0.71465 0.0
C135 C 0.34529 0.03179 0.83354 0.0
O136 O 0.38836 -0.00284 0.7679 0.0
C137 C 0.37856 0.09906 0.72006 0.0
O138 O 0.40619 0.03764 0.73411 0.0
O139 O 0.39771 0.09567 0.73485 0.0
C140 C 0.33319 0.34508 0.16829 0.0
O141 O 0.34687 0.34039 0.19812 0.0
Cd142 Cd 0.35136 0.35489 0.27838 0.0
O143 O 0.32146 0.35831 0.17966 0.0
Cd144 Cd 0.31514 0.38084 0.24721 0.0
C145 C 0.38268 0.4232 0.25894 0.0
O146 O 0.30674 0.34474 0.30047 0.0
O147 O 0.30973 0.38046 0.33229 0.0
O148 O 0.27048 0.36576 0.21655 0.0
C149 C 0.30491 0.3563 0.33698 0.0
O150 O 0.38395 0.40365 0.27801 0.0
C151 C 0.27109 0.38814 0.22287 0.0
O152 O 0.36066 0.41983 0.24144 0.0
O153 O 0.293 0.40782 0.23857 0.0
C154 C 0.9686 0.32746 0.65982 0.0
O155 O 0.98948 0.3395 0.68575 0.0
Cd156 Cd 0.98912 0.35007 0.76696 0.0
O157 O 0.94496 0.31982 0.67597 0.0
Cd158 Cd 0.92286 0.31998 0.74986 0.0
C159 C 0.95904 0.38918 0.75617 0.0
O160 O 0.95168 0.30849 0.79433 0.0
O161 O 0.92104 0.31133 0.83392 0.0
O162 O 0.88385 0.28007 0.71728 0.0
C163 C 0.94068 0.30686 0.83357 0.0
O164 O 0.98033 0.38811 0.76583 0.0
C165 C 0.86661 0.28516 0.73604 0.0
O166 O 0.93665 0.36768 0.74785 0.0
O167 O 0.87565 0.30682 0.75977 0.0
H168 H 0.04992 0.37021 0.05656 0.0
H169 H 0.9158 0.28898 0.91773 0.0
H170 H 0.97729 0.30698 0.12217 0.0
H171 H -0.00653 0.32117 0.84899 0.0
H172 H 0.93792 0.29362 -0.00689 0.0
H173 H 0.03041 0.35157 0.97985 0.0
C174 C 0.03001 0.35223 0.05477 0.0
C175 C 0.01495 0.34036 0.09552 0.0
C176 C 0.95006 0.29914 0.96147 0.0
C177 C -0.00742 0.31915 0.0084 0.0
C178 C 0.93747 0.2966 0.91857 0.0
C179 C 0.95297 0.30506 0.87748 0.0
C180 C 0.97838 0.31089 0.96316 0.0
C181 C 0.9809 0.31457 0.88012 0.0
C182 C 0.01899 0.3415 0.01109 0.0
C183 C 0.98942 0.31691 0.09147 0.0
N184 N -0.00711 0.31783 0.92253 0.0
N185 N 0.97878 0.30734 0.04854 0.0
H186 H 0.62805 0.93673 0.41738 0.0
H187 H 0.68262 0.07121 0.55509 0.0
H188 H 0.67948 0.01397 0.35073 0.0
H189 H 0.66715 -0.00269 0.62399 0.0
H190 H 0.68369 0.0513 0.47979 0.0
H191 H 0.64389 0.95827 0.49376 0.0
C192 C 0.64299 0.95815 0.41892 0.0
C193 C 0.6522 0.97375 0.378 0.0
C194 C 0.68061 0.03966 0.51149 0.0
C195 C 0.67004 -0.00151 0.46478 0.0
C196 C 0.67983 0.05093 0.55434 0.0
C197 C 0.67434 0.03566 0.59548 0.0
C198 C 0.67522 0.01275 0.50991 0.0
C199 C 0.6712 0.00963 0.59288 0.0
C200 C 0.65214 0.97039 0.4624 0.0
C201 C 0.67176 0.00133 0.38163 0.0
N202 N 0.6711 -0.00127 0.55057 0.0
N203 N 0.67963 0.01302 0.42446 0.0
H204 H 0.66917 0.66634 0.12025 0.0
H205 H 0.65942 0.672 0.84266 0.0
H206 H 0.60969 0.67992 0.0506 0.0
H207 H 0.6848 0.62176 0.91465 0.0
H208 H 0.65321 0.68834 0.9186 0.0
H209 H 0.68711 0.66359 0.04393 0.0
C210 C 0.66014 0.66913 0.08891 0.0
C211 C 0.63763 0.67289 0.09149 0.0
C212 C 0.66052 0.67406 0.91752 0.0
C213 C 0.65819 0.67003 0.00469 0.0
C214 C 0.66415 0.66482 0.87443 0.0
C215 C 0.67227 0.64528 0.87277 0.0
C216 C 0.66555 0.66399 0.95879 0.0
C217 C 0.67815 0.63657 0.9147 0.0
C218 C 0.67037 0.66753 0.04552 0.0
C219 C 0.62681 0.67657 0.04992 0.0
N220 N 0.67455 0.64593 0.95619 0.0
N221 N 0.63711 0.67487 0.00799 0.0
H222 H 0.06897 0.6938 0.41143 0.0
H223 H 0.9336 0.62253 0.54976 0.0
H224 H -0.0072 0.67144 0.34401 0.0
H225 H 0.00883 0.67896 0.6174 0.0
H226 H 0.95441 0.64133 0.47379 0.0
H227 H 0.04771 0.69033 0.4875 0.0
C228 C 0.04788 0.6886 0.41272 0.0
C229 C 0.03245 0.68251 0.37171 0.0
C230 C 0.96618 0.64993 0.50534 0.0
C231 C 0.00799 0.67807 0.45813 0.0
C232 C 0.9544 0.6391 0.54857 0.0
C233 C 0.96971 0.64896 0.58963 0.0
C234 C -0.00641 0.67028 0.50332 0.0
C235 C -0.00356 0.67064 0.58641 0.0
C236 C 0.0358 0.68674 0.45601 0.0
C237 C 0.0053 0.67611 0.37499 0.0
N238 N 0.00775 0.68026 0.5438 0.0
N239 N -0.0063 0.67345 0.41768 0.0
H240 H 0.3635 0.05803 0.91709 0.0
H241 H 0.29631 0.92397 0.05901 0.0
H242 H 0.30156 0.9829 0.85635 0.0
H243 H 0.32403 0.00085 0.12813 0.0
H244 H 0.29699 0.94516 0.9843 0.0
H245 H 0.34862 0.03833 -0.00486 0.0
C246 C 0.34652 0.03753 0.92026 0.0
C247 C 0.33401 0.02186 0.8804 0.0
C248 C 0.30242 0.95729 0.01592 0.0
C249 C 0.31718 -0.00074 0.969 0.0
C250 C 0.30219 0.94523 0.0584 0.0
C251 C 0.31043 0.96081 0.09938 0.0
C252 C 0.31166 0.98522 0.01441 0.0
C253 C 0.31764 0.98823 0.09705 0.0
C254 C 0.33795 0.02639 0.96471 0.0
C255 C 0.31192 -0.00444 0.88627 0.0
N256 N 0.31866 -0.00022 0.05494 0.0
N257 N 0.30454 0.98485 0.92983 0.0
H258 H 0.29673 0.37404 0.42109 0.0
H259 H 0.36039 0.30272 0.55986 0.0
H260 H 0.30837 0.31151 0.3584 0.0
H261 H 0.31283 0.33183 0.63067 0.0
H262 H 0.34043 0.30484 0.4855 0.0
H263 H 0.30073 0.35811 0.49865 0.0
C264 C 0.29971 0.35671 0.42372 0.0
C265 C 0.30278 0.34439 0.38347 0.0
C266 C 0.33399 0.31031 0.51739 0.0
C267 C 0.3076 0.32636 0.47146 0.0
C268 C 0.34551 0.30929 0.55967 0.0
C269 C 0.33843 0.31745 0.60103 0.0
C270 C 0.31585 0.32024 0.51651 0.0
C271 C 0.31885 0.32551 0.59927 0.0
C272 C 0.30184 0.34756 0.46788 0.0
C273 C 0.30626 0.32181 0.38863 0.0
N274 N 0.3086 0.32726 0.55737 0.0
N275 N 0.30914 0.31385 0.43191 0.0
H276 H 0.03681 0.67491 0.85696 0.0
H277 H 0.96449 0.63911 0.10695 0.0
H278 H 0.94985 0.63189 0.87652 0.0
H279 H 0.05143 0.68348 0.08709 0.0
H280 H 0.95865 0.64104 0.02262 0.0
H281 H 0.04253 0.68302 0.9412 0.0
C282 C 0.01892 0.66737 0.87888 0.0
C283 C -0.00718 0.65237 0.85976 0.0
C284 C 0.979 0.65057 0.03681 0.0
C285 C -0.00079 0.66146 0.9561 0.0
C286 C 0.98234 0.64947 0.08496 0.0
C287 C 0.00847 0.66079 0.10402 0.0
C288 C 0.00195 0.66297 0.00761 0.0
C289 C 0.03088 0.67416 0.07388 0.0
C290 C 0.02219 0.67201 0.92698 0.0
C291 C 0.97037 0.64328 0.8898 0.0
N292 N 0.02709 0.67464 0.02712 0.0
N293 N 0.97409 0.64774 0.93655 0.0
H294 H 0.30602 0.93036 0.38318 0.0
H295 H 0.33224 0.03075 0.59665 0.0
H296 H 0.33764 0.01665 0.36912 0.0
H297 H 0.31037 0.94682 0.61394 0.0
H298 H 0.32549 0.02351 0.51264 0.0
H299 H 0.29935 0.93396 0.46679 0.0
C300 C 0.31136 0.95003 0.39756 0.0
C301 C 0.32281 0.97334 0.36925 0.0
C302 C 0.3219 0.00658 0.5348 0.0
C303 C 0.31514 0.97751 0.46476 0.0
C304 C 0.32573 0.01069 0.58282 0.0
C305 C 0.32236 0.98946 0.61222 0.0
C306 C 0.31482 0.98112 0.51593 0.0
C307 C 0.31346 0.9638 0.59245 0.0
C308 C 0.30752 0.95204 0.44529 0.0
C309 C 0.3291 -0.00178 0.38971 0.0
N310 N 0.31036 0.96043 0.54532 0.0
N311 N 0.32538 -0.00033 0.43631 0.0
H312 H 0.36174 0.30564 0.88502 0.0
H313 H 0.36249 0.3247 0.12578 0.0
H314 H 0.3233 0.35459 0.87971 0.0
H315 H 0.3014 0.34679 0.09866 0.0
H316 H 0.36423 0.31682 0.04238 0.0
H317 H 0.35456 0.30116 0.96933 0.0
C318 C 0.35186 0.31554 0.90164 0.0
C319 C 0.34353 0.33093 0.87536 0.0
C320 C 0.34988 0.32265 0.05458 0.0
C321 C 0.33589 0.32649 0.97219 0.0
C322 C 0.34904 0.32734 0.10235 0.0
C323 C 0.33202 0.33672 0.11911 0.0
C324 C 0.33343 0.32725 0.02354 0.0
C325 C 0.31509 0.3399 0.08723 0.0
C326 C 0.34798 0.31315 0.94998 0.0
C327 C 0.33037 0.34282 0.8986 0.0
N328 N 0.31646 0.33547 0.04096 0.0
N329 N 0.32712 0.34048 0.94573 0.0
H330 H 0.01544 0.34041 0.61251 0.0
H331 H 0.94484 0.31457 0.36237 0.0
H332 H 0.92907 0.30554 0.59278 0.0
H333 H 0.03107 0.34879 0.38291 0.0
H334 H 0.93788 0.30547 0.44631 0.0
H335 H 0.02077 0.33801 0.52822 0.0
C336 C -0.00244 0.33204 0.59052 0.0
C337 C 0.97182 0.32356 0.60965 0.0
C338 C 0.95829 0.31472 0.43233 0.0
C339 C 0.9778 0.32087 0.51314 0.0
C340 C 0.96227 0.31993 0.38442 0.0
C341 C 0.98861 0.33285 0.36572 0.0
C342 C 0.98081 0.3226 0.46166 0.0
C343 C 0.01043 0.33912 0.39588 0.0
C344 C 0.00062 0.33065 0.54237 0.0
C345 C 0.94935 0.31261 0.57951 0.0
N346 N 0.00605 0.33419 0.44243 0.0
N347 N 0.9529 0.31186 0.53266 0.0
H348 H 0.63093 0.96673 0.85851 0.0
H349 H 0.67411 0.03883 0.10829 0.0
H350 H 0.67367 0.05365 0.8786 0.0
H351 H 0.63153 0.95188 0.08866 0.0
H352 H 0.6789 0.0447 0.02353 0.0
H353 H 0.63545 0.96092 0.9421 0.0
C354 C 0.64142 0.98459 0.8804 0.0
C355 C 0.65163 0.0107 0.86163 0.0
C356 C 0.66872 0.02434 0.0378 0.0
C357 C 0.65684 0.0042 0.95722 0.0
C358 C 0.666 0.02097 0.08621 0.0
C359 C 0.65207 -0.00517 0.10557 0.0
C360 C 0.65732 0.0014 0.00859 0.0
C361 C 0.64217 0.97243 0.07526 0.0
C362 C 0.64402 0.98127 0.92812 0.0
C363 C 0.66522 0.03312 0.8916 0.0
N364 N 0.64475 0.97624 0.02824 0.0
N365 N 0.66723 0.02933 0.93797 0.0
H366 H 0.63245 0.68346 0.37422 0.0
H367 H 0.67943 0.62477 0.58474 0.0
H368 H 0.66066 0.62626 0.35603 0.0
H369 H 0.6416 0.67377 0.60257 0.0
H370 H 0.68053 0.63178 0.50034 0.0
H371 H 0.64358 0.68667 0.45705 0.0
C372 C 0.64115 0.67168 0.38757 0.0
C373 C 0.64519 0.65418 0.35832 0.0
C374 C 0.67223 0.6412 0.52279 0.0
C375 C 0.65792 0.65776 0.45322 0.0
C376 C 0.6716 0.63723 0.57099 0.0
C377 C 0.65997 0.64833 0.60068 0.0
C378 C 0.66116 0.65635 0.50422 0.0
C379 C 0.65041 0.66452 0.58094 0.0
C380 C 0.64754 0.67357 0.4349 0.0
C381 C 0.65692 0.63976 0.37744 0.0
N382 N 0.65098 0.66782 0.53385 0.0
N383 N 0.66262 0.64165 0.4239 0.0
H384 H 0.04207 0.57913 0.17811 0.0
H385 H 0.03588 0.45408 0.29966 0.0
H386 H 0.00498 0.55691 0.31486 0.0
H387 H -0.00092 0.44306 0.16349 0.0
H388 H 0.03746 0.49799 0.30663 0.0
H389 H 0.03924 0.53469 0.17221 0.0
C390 C 0.0335 0.56492 0.20694 0.0
C391 C 0.02367 0.57145 0.24699 0.0
C392 C 0.02909 0.48584 0.27534 0.0
C393 C 0.02108 0.52143 0.24087 0.0
C394 C 0.02833 0.46104 0.2712 0.0
C395 C 0.01731 0.44513 0.23097 0.0
C396 C 0.01964 0.49499 0.23832 0.0
C397 C 0.0076 0.4548 0.1951 0.0
C398 C 0.03181 0.5397 0.20343 0.0
C399 C 0.01261 0.55241 0.28336 0.0
N400 N 0.00933 0.4794 0.1993 0.0
N401 N 0.01192 0.52825 0.27974 0.0
H402 H 0.43283 0.00173 0.81364 0.0
H403 H 0.54551 0.00512 0.65271 0.0
H404 H 0.44293 0.03563 0.67503 0.0
H405 H 0.56795 0.04326 0.78852 0.0
H406 H 0.50132 0.00299 0.66013 0.0
H407 H 0.47681 0.00364 0.80528 0.0
C408 C 0.44428 0.00942 0.78145 0.0
C409 C 0.43454 0.0187 0.74503 0.0
C410 C 0.51603 0.01175 0.68816 0.0
C411 C 0.48385 0.02012 0.73492 0.0
C412 C 0.54102 0.01288 0.68408 0.0
C413 C 0.56023 0.0245 0.71999 0.0
C414 C 0.51009 0.02143 0.72906 0.0
C415 C 0.55364 0.03436 0.75997 0.0
C416 C 0.46922 0.01055 0.77681 0.0
C417 C 0.45001 0.02853 0.70397 0.0
N418 N 0.5289 0.0323 0.76376 0.0
N419 N 0.47387 0.0287 0.69972 0.0
H420 H 0.53251 0.55522 0.15817 0.0
H421 H 0.4227 0.44873 0.32388 0.0
H422 H 0.52193 0.58209 0.29384 0.0
H423 H 0.39891 0.45766 0.18463 0.0
H424 H 0.46482 0.49264 0.3148 0.0
H425 H 0.48839 0.51347 0.16767 0.0
C426 C 0.52085 0.55227 0.18987 0.0
C427 C 0.5306 0.57198 0.22524 0.0
C428 C 0.45021 0.48491 0.28649 0.0
C429 C 0.48106 0.52445 0.23666 0.0
C430 C 0.42638 0.45999 0.29152 0.0
C431 C 0.40745 0.44982 0.25498 0.0
C432 C 0.45537 0.49908 0.2441 0.0
C433 C 0.41301 0.46504 0.21367 0.0
C434 C 0.4958 0.52864 0.19513 0.0
C435 C 0.51487 0.56736 0.2657 0.0
N436 N 0.43676 0.48881 0.20899 0.0
N437 N 0.49094 0.54378 0.27071 0.0
H438 H 0.0112 0.55898 0.7153 0.0
H439 H 0.91677 0.39881 0.74791 0.0
H440 H 0.92428 0.51901 0.73373 0.0
H441 H 0.00422 0.44001 0.75645 0.0
H442 H 0.91921 0.44255 0.73881 0.0
H443 H 0.00907 0.51533 0.72569 0.0
C444 C -0.00835 0.54103 0.72136 0.0
C445 C 0.96787 0.54267 0.72365 0.0
C446 C 0.93787 0.44205 0.74285 0.0
C447 C 0.96534 0.49271 0.73565 0.0
C448 C 0.93651 0.41706 0.74801 0.0
C449 C 0.96035 0.41572 0.7529 0.0
C450 C 0.96325 0.46593 0.74219 0.0
C451 C 0.98533 0.44008 0.75289 0.0
C452 C 0.99049 0.51615 0.72749 0.0
C453 C 0.94314 0.51875 0.73176 0.0
N454 N 0.98614 0.4642 0.74738 0.0
N455 N 0.94252 0.49476 0.73738 0.0
H456 H 0.44454 0.01008 0.22582 0.0
H457 H 0.52226 0.92587 0.24047 0.0
H458 H 0.4037 0.92259 0.23363 0.0
H459 H 0.56193 0.01279 0.25871 0.0
H460 H 0.4788 0.92441 0.23374 0.0
H461 H 0.48807 0.01163 0.23318 0.0
C462 C 0.44471 0.9912 0.22895 0.0
C463 C 0.42042 0.96616 0.22913 0.0
C464 C 0.49701 0.94379 0.23936 0.0
C465 C 0.47014 0.96781 0.23757 0.0
C466 C 0.52185 0.94465 0.24316 0.0
C467 C 0.5458 0.9695 0.25015 0.0
C468 C 0.49611 0.96796 0.24222 0.0
C469 C 0.54399 0.99317 0.25343 0.0
C470 C 0.46956 0.99211 0.23331 0.0
C471 C 0.42189 0.94235 0.23342 0.0
N472 N 0.51958 0.99182 0.24926 0.0
N473 N 0.44633 0.94377 0.23739 0.0
H474 H 0.54729 0.55971 0.74853 0.0
H475 H 0.47275 0.39793 0.73283 0.0
H476 H 0.59071 0.51591 0.73364 0.0
H477 H 0.43163 0.4442 0.72283 0.0
H478 H 0.51617 0.44046 0.7369 0.0
H479 H 0.50463 0.51699 0.74342 0.0
C480 C 0.54788 0.5411 0.74425 0.0
C481 C 0.57266 0.54143 0.74151 0.0
C482 C 0.49762 0.44124 0.73368 0.0
C483 C 0.52372 0.49231 0.7356 0.0
C484 C 0.47283 0.41699 0.73142 0.0
C485 C 0.44849 0.41748 0.72753 0.0
C486 C 0.498 0.4661 0.73237 0.0
C487 C 0.44984 0.44278 0.72578 0.0
C488 C 0.52347 0.51669 0.74119 0.0
C489 C 0.57209 0.51662 0.73584 0.0
N490 N 0.47415 0.46603 0.72837 0.0
N491 N 0.54798 0.49302 0.73318 0.0
H492 H 0.1453 0.43226 0.23452 0.0
H493 H 0.22101 0.34801 0.19655 0.0
H494 H 0.10717 0.34524 0.2492 0.0
H495 H 0.26472 0.43227 0.23819 0.0
H496 H 0.17876 0.34891 0.20057 0.0
H497 H 0.18931 0.43457 0.22455 0.0
C498 C 0.14623 0.41373 0.23608 0.0
C499 C 0.1226 0.38852 0.24271 0.0
C500 C 0.19762 0.36725 0.20856 0.0
C501 C 0.17237 0.39098 0.23024 0.0
C502 C 0.22177 0.36683 0.20593 0.0
C503 C 0.24636 0.39002 0.2176 0.0
C504 C 0.19803 0.39106 0.22272 0.0
C505 C 0.24613 0.41389 0.22924 0.0
C506 C 0.17125 0.41506 0.23023 0.0
C507 C 0.12486 0.3651 0.24429 0.0
N508 N 0.22222 0.41378 0.23182 0.0
N509 N 0.14926 0.3669 0.2377 0.0
H510 H 0.82921 0.27524 0.80372 0.0
H511 H 0.70457 0.15518 0.67203 0.0
H512 H 0.83825 0.24988 0.66563 0.0
H513 H 0.72649 0.14456 0.81178 0.0
H514 H 0.74494 0.20068 0.66963 0.0
H515 H 0.78224 0.23733 0.80603 0.0
C516 C 0.82106 0.2621 0.77346 0.0
C517 C 0.83748 0.26539 0.73451 0.0
C518 C 0.74042 0.18852 0.70109 0.0
C519 C 0.78417 0.22289 0.73669 0.0
C520 C 0.71746 0.16276 0.70265 0.0
C521 C 0.71248 0.14624 0.7421 0.0
C522 C 0.75784 0.19789 0.73974 0.0
C523 C 0.72986 0.15675 0.78069 0.0
C524 C 0.79445 0.24056 0.77496 0.0
C525 C 0.82617 0.24777 0.69636 0.0
N526 N 0.75192 0.18203 0.77857 0.0
N527 N 0.80007 0.22714 0.69837 0.0
H528 H 0.5499 0.71735 0.23085 0.0
H529 H 0.64342 0.87752 0.21406 0.0
H530 H 0.63574 0.76073 0.26118 0.0
H531 H 0.55749 0.84047 0.24175 0.0
H532 H 0.63958 0.83306 0.21913 0.0
H533 H 0.55089 0.76096 0.2261 0.0
C534 C 0.56883 0.73598 0.23702 0.0
C535 C 0.59281 0.73548 0.24619 0.0
C536 C 0.62154 0.83463 0.22402 0.0
C537 C 0.59413 0.785 0.23986 0.0
C538 C 0.62366 0.85997 0.22076 0.0
C539 C 0.60076 0.86269 0.2278 0.0
C540 C 0.5963 0.81175 0.23399 0.0
C541 C 0.57566 0.83922 0.23631 0.0
C542 C 0.56938 0.76076 0.23418 0.0
C543 C 0.61679 0.76014 0.25388 0.0
N544 N 0.57407 0.81461 0.23924 0.0
N545 N 0.61688 0.7839 0.25006 0.0
H546 H 0.87648 0.63911 0.76952 0.0
H547 H 0.71637 0.55235 0.73737 0.0
H548 H 0.83774 0.55568 0.72342 0.0
H549 H 0.76386 0.6395 0.72275 0.0
H550 H 0.75873 0.5509 0.74404 0.0
H551 H 0.83273 0.63695 0.76783 0.0
C552 C 0.85871 0.62022 0.75948 0.0
C553 C 0.86077 0.59763 0.74604 0.0
C554 C 0.75969 0.57023 0.73913 0.0
C555 C 0.81066 0.59513 0.74373 0.0
C556 C 0.73564 0.57109 0.73522 0.0
C557 C 0.73666 0.59609 0.7295 0.0
C558 C 0.78466 0.59458 0.73813 0.0
C559 C 0.76209 0.61977 0.72704 0.0
C560 C 0.83377 0.61907 0.75825 0.0
C561 C 0.837 0.57361 0.7337 0.0
N562 N 0.78505 0.61844 0.73175 0.0
N563 N 0.8128 0.573 0.73259 0.0
H564 H 0.25352 0.84468 0.30754 0.0
H565 H 0.14171 0.73889 0.1542 0.0
H566 H 0.2747 0.83689 0.1655 0.0
H567 H 0.15433 0.71302 0.28922 0.0
H568 H 0.18838 0.77735 0.1566 0.0
H569 H 0.21455 0.79839 0.303 0.0
C570 C 0.25015 0.83301 0.27574 0.0
C571 C 0.26714 0.84439 0.23683 0.0
C572 C 0.181 0.76287 0.18515 0.0
C573 C 0.22264 0.7923 0.23104 0.0
C574 C 0.15449 0.7411 0.1839 0.0
C575 C 0.14435 0.72297 0.22161 0.0
C576 C 0.19689 0.76686 0.22506 0.0
C577 C 0.16156 0.7266 0.25941 0.0
C578 C 0.2281 0.80671 0.27325 0.0
C579 C 0.26202 0.82863 0.19628 0.0
N580 N 0.18689 0.74861 0.26077 0.0
N581 N 0.23974 0.8035 0.19397 0.0
H582 H 0.43175 0.27159 0.72396 0.0
H583 H 0.34031 0.11142 0.69264 0.0
H584 H 0.34459 0.22636 0.7398 0.0
H585 H 0.42442 0.14857 0.73379 0.0
H586 H 0.344 0.15589 0.69344 0.0
H587 H 0.43152 0.22848 0.71462 0.0
C588 C 0.41265 0.25264 0.72572 0.0
C589 C 0.38816 0.25248 0.7328 0.0
C590 C 0.36171 0.15434 0.70204 0.0
C591 C 0.38774 0.20363 0.72113 0.0
C592 C 0.35967 0.12899 0.70133 0.0
C593 C 0.382 0.12628 0.71379 0.0
C594 C 0.38626 0.17721 0.71513 0.0
C595 C 0.40666 0.14981 0.72435 0.0
C596 C 0.41255 0.22817 0.72029 0.0
C597 C 0.36396 0.22745 0.73464 0.0
N598 N 0.40812 0.1744 0.72511 0.0
N599 N 0.36437 0.20408 0.72854 0.0
loop_
_geom_bond_atom_site_label_1
_geom_bond_atom_site_label_2
_geom_bond_distance
_geom_bond_site_symmetry_2
_ccdc_geom_bond_type
C0 O1 1.306 . S
C0 O3 1.160 . S
O1 C0 1.306 . S
O1 Cd2 2.228 1_455 S
Cd2 O1 2.228 1_655 S
Cd2 O6 2.273 1_655 S
Cd2 O10 2.277 1_655 S
O3 C0 1.160 . S
O3 Cd4 2.203 . S
Cd4 O3 2.203 . S
Cd4 O6 2.411 . S
Cd4 O7 2.333 . S
Cd4 O8 2.352 . S
Cd4 O12 2.277 . S
Cd4 O13 2.356 . S
C5 O10 1.209 . S
C5 O12 1.226 . S
O6 Cd2 2.273 1_455 S
O6 Cd4 2.411 . S
O6 C9 1.320 . S
O7 Cd4 2.333 . S
O7 C9 1.214 . S
O8 Cd4 2.352 . S
O8 C11 1.258 . S
C9 O6 1.320 . S
C9 O7 1.214 . S
O10 Cd2 2.277 1_455 S
O10 C5 1.209 . S
C11 O8 1.258 . S
C11 O13 1.282 . S
O12 Cd4 2.277 . S
O12 C5 1.226 . S
O13 Cd4 2.356 . S
O13 C11 1.282 . S
C14 O15 1.306 . S
C14 O17 1.160 . S
O15 C14 1.306 . S
O15 Cd16 2.228 1_545 S
Cd16 O15 2.228 1_565 S
Cd16 O20 2.273 1_565 S
Cd16 O24 2.277 1_565 S
O17 C14 1.160 . S
O17 Cd18 2.203 . S
Cd18 O17 2.203 . S
Cd18 O20 2.411 . S
Cd18 O21 2.333 . S
Cd18 O22 2.352 . S
Cd18 O26 2.277 . S
Cd18 O27 2.356 . S
C19 O24 1.209 . S
C19 O26 1.226 . S
O20 Cd16 2.273 1_545 S
O20 Cd18 2.411 . S
O20 C23 1.320 . S
O21 Cd18 2.333 . S
O21 C23 1.214 . S
O22 Cd18 2.352 . S
O22 C25 1.258 . S
C23 O20 1.320 . S
C23 O21 1.214 . S
O24 Cd16 2.277 1_545 S
O24 C19 1.209 . S
C25 O22 1.258 . S
C25 O27 1.282 . S
O26 Cd18 2.277 . S
O26 C19 1.226 . S
O27 Cd18 2.356 . S
O27 C25 1.282 . S
C28 O29 1.306 . S
C28 O31 1.160 . S
O29 C28 1.306 . S
O29 Cd30 2.228 . S
Cd30 O29 2.228 . S
Cd30 O34 2.273 . S
Cd30 O38 2.277 . S
O31 C28 1.160 . S
O31 Cd32 2.203 . S
Cd32 O31 2.203 . S
Cd32 O34 2.411 . S
Cd32 O35 2.333 . S
Cd32 O36 2.352 . S
Cd32 O40 2.277 . S
Cd32 O41 2.356 . S
C33 O38 1.209 . S
C33 O40 1.226 . S
O34 Cd30 2.273 . S
O34 Cd32 2.411 . S
O34 C37 1.320 . S
O35 Cd32 2.333 . S
O35 C37 1.214 . S
O36 Cd32 2.352 . S
O36 C39 1.258 . S
C37 O34 1.320 . S
C37 O35 1.214 . S
O38 Cd30 2.277 . S
O38 C33 1.209 . S
C39 O36 1.258 . S
C39 O41 1.282 . S
O40 Cd32 2.277 . S
O40 C33 1.226 . S
O41 Cd32 2.356 . S
O41 C39 1.282 . S
C42 O43 1.306 . S
C42 O45 1.160 . S
O43 C42 1.306 . S
O43 Cd44 2.228 1_655 S
Cd44 O43 2.228 1_455 S
Cd44 O48 2.273 1_455 S
Cd44 O52 2.277 1_455 S
O45 C42 1.160 . S
O45 Cd46 2.203 . S
Cd46 O45 2.203 . S
Cd46 O48 2.411 . S
Cd46 O49 2.333 . S
Cd46 O50 2.352 . S
Cd46 O54 2.277 . S
Cd46 O55 2.356 . S
C47 O52 1.209 . S
C47 O54 1.226 . S
O48 Cd44 2.273 1_655 S
O48 Cd46 2.411 . S
O48 C51 1.320 . S
O49 Cd46 2.333 . S
O49 C51 1.214 . S
O50 Cd46 2.352 . S
O50 C53 1.258 . S
C51 O48 1.320 . S
C51 O49 1.214 . S
O52 Cd44 2.277 1_655 S
O52 C47 1.209 . S
C53 O50 1.258 . S
C53 O55 1.282 . S
O54 Cd46 2.277 . S
O54 C47 1.226 . S
O55 Cd46 2.356 . S
O55 C53 1.282 . S
C56 O57 1.306 . S
C56 O59 1.160 . S
O57 C56 1.306 . S
O57 Cd58 2.228 1_565 S
Cd58 O57 2.228 1_545 S
Cd58 O62 2.273 1_545 S
Cd58 O66 2.277 1_545 S
O59 C56 1.160 . S
O59 Cd60 2.203 . S
Cd60 O59 2.203 . S
Cd60 O62 2.411 . S
Cd60 O63 2.333 . S
Cd60 O64 2.352 . S
Cd60 O68 2.277 . S
Cd60 O69 2.356 . S
C61 O66 1.209 . S
C61 O68 1.226 . S
O62 Cd58 2.273 1_565 S
O62 Cd60 2.411 . S
O62 C65 1.320 . S
O63 Cd60 2.333 . S
O63 C65 1.214 . S
O64 Cd60 2.352 . S
O64 C67 1.258 . S
C65 O62 1.320 . S
C65 O63 1.214 . S
O66 Cd58 2.277 1_565 S
O66 C61 1.209 . S
C67 O64 1.258 . S
C67 O69 1.282 . S
O68 Cd60 2.277 . S
O68 C61 1.226 . S
O69 Cd60 2.356 . S
O69 C67 1.282 . S
C70 O71 1.306 . S
C70 O73 1.160 . S
O71 C70 1.306 . S
O71 Cd72 2.228 . S
Cd72 O71 2.228 . S
Cd72 O76 2.273 . S
Cd72 O80 2.277 . S
O73 C70 1.160 . S
O73 Cd74 2.203 . S
Cd74 O73 2.203 . S
Cd74 O76 2.411 . S
Cd74 O77 2.333 . S
Cd74 O78 2.352 . S
Cd74 O82 2.277 . S
Cd74 O83 2.356 . S
C75 O80 1.209 . S
C75 O82 1.226 . S
O76 Cd72 2.273 . S
O76 Cd74 2.411 . S
O76 C79 1.320 . S
O77 Cd74 2.333 . S
O77 C79 1.214 . S
O78 Cd74 2.352 . S
O78 C81 1.258 . S
C79 O76 1.320 . S
C79 O77 1.214 . S
O80 Cd72 2.277 . S
O80 C75 1.209 . S
C81 O78 1.258 . S
C81 O83 1.282 . S
O82 Cd74 2.277 . S
O82 C75 1.226 . S
O83 Cd74 2.356 . S
O83 C81 1.282 . S
C84 O85 1.306 . S
C84 O87 1.160 . S
O85 C84 1.306 . S
O85 Cd86 2.228 1_565 S
Cd86 O85 2.228 1_545 S
Cd86 O90 2.273 1_545 S
Cd86 O94 2.277 1_545 S
O87 C84 1.160 . S
O87 Cd88 2.203 . S
Cd88 O87 2.203 . S
Cd88 O90 2.411 . S
Cd88 O91 2.333 . S
Cd88 O92 2.352 . S
Cd88 O96 2.277 . S
Cd88 O97 2.356 . S
C89 O94 1.209 . S
C89 O96 1.226 . S
O90 Cd86 2.273 1_565 S
O90 Cd88 2.411 . S
O90 C93 1.320 . S
O91 Cd88 2.333 . S
O91 C93 1.214 . S
O92 Cd88 2.352 . S
O92 C95 1.258 . S
C93 O90 1.320 . S
C93 O91 1.214 . S
O94 Cd86 2.277 1_565 S
O94 C89 1.209 . S
C95 O92 1.258 . S
C95 O97 1.282 . S
O96 Cd88 2.277 . S
O96 C89 1.226 . S
O97 Cd88 2.356 . S
O97 C95 1.282 . S
C98 O99 1.306 . S
C98 O101 1.160 . S
O99 C98 1.306 . S
O99 Cd100 2.228 . S
Cd100 O99 2.228 . S
Cd100 O104 2.273 . S
Cd100 O108 2.277 . S
O101 C98 1.160 . S
O101 Cd102 2.203 . S
Cd102 O101 2.203 . S
Cd102 O104 2.411 . S
Cd102 O105 2.333 . S
Cd102 O106 2.352 . S
Cd102 O110 2.277 . S
Cd102 O111 2.356 . S
C103 O108 1.209 . S
C103 O110 1.226 . S
O104 Cd100 2.273 . S
O104 Cd102 2.411 . S
O104 C107 1.320 . S
O105 Cd102 2.333 . S
O105 C107 1.214 . S
O106 Cd102 2.352 . S
O106 C109 1.258 . S
C107 O104 1.320 . S
C107 O105 1.214 . S
O108 Cd100 2.277 . S
O108 C103 1.209 . S
C109 O106 1.258 . S
C109 O111 1.282 . S
O110 Cd102 2.277 . S
O110 C103 1.226 . S
O111 Cd102 2.356 . S
O111 C109 1.282 . S
C112 O113 1.306 . S
C112 O115 1.160 . S
O113 C112 1.306 . S
O113 Cd114 2.228 1_455 S
Cd114 O113 2.228 1_655 S
Cd114 O118 2.273 1_655 S
Cd114 O122 2.277 1_655 S
O115 C112 1.160 . S
O115 Cd116 2.203 . S
Cd116 O115 2.203 . S
Cd116 O118 2.411 . S
Cd116 O119 2.333 . S
Cd116 O120 2.352 . S
Cd116 O124 2.277 . S
Cd116 O125 2.356 . S
C117 O122 1.209 . S
C117 O124 1.226 . S
O118 Cd114 2.273 1_455 S
O118 Cd116 2.411 . S
O118 C121 1.320 . S
O119 Cd116 2.333 . S
O119 C121 1.214 . S
O120 Cd116 2.352 . S
O120 C123 1.258 . S
C121 O118 1.320 . S
C121 O119 1.214 . S
O122 Cd114 2.277 1_455 S
O122 C117 1.209 . S
C123 O120 1.258 . S
C123 O125 1.282 . S
O124 Cd116 2.277 . S
O124 C117 1.226 . S
O125 Cd116 2.356 . S
O125 C123 1.282 . S
C126 O127 1.306 . S
C126 O129 1.160 . S
O127 C126 1.306 . S
O127 Cd128 2.228 1_545 S
Cd128 O127 2.228 1_565 S
Cd128 O132 2.273 1_565 S
Cd128 O136 2.277 1_565 S
O129 C126 1.160 . S
O129 Cd130 2.203 . S
Cd130 O129 2.203 . S
Cd130 O132 2.411 . S
Cd130 O133 2.333 . S
Cd130 O134 2.352 . S
Cd130 O138 2.277 . S
Cd130 O139 2.356 . S
C131 O136 1.209 . S
C131 O138 1.226 . S
O132 Cd128 2.273 1_545 S
O132 Cd130 2.411 . S
O132 C135 1.320 . S
O133 Cd130 2.333 . S
O133 C135 1.214 . S
O134 Cd130 2.352 . S
O134 C137 1.258 . S
C135 O132 1.320 . S
C135 O133 1.214 . S
O136 Cd128 2.277 1_545 S
O136 C131 1.209 . S
C137 O134 1.258 . S
C137 O139 1.282 . S
O138 Cd130 2.277 . S
O138 C131 1.226 . S
O139 Cd130 2.356 . S
O139 C137 1.282 . S
C140 O141 1.306 . S
C140 O143 1.160 . S
O141 C140 1.306 . S
O141 Cd142 2.228 . S
Cd142 O141 2.228 . S
Cd142 O146 2.273 . S
Cd142 O150 2.277 . S
O143 C140 1.160 . S
O143 Cd144 2.203 . S
Cd144 O143 2.203 . S
Cd144 O146 2.411 . S
Cd144 O147 2.333 . S
Cd144 O148 2.352 . S
Cd144 O152 2.277 . S
Cd144 O153 2.356 . S
C145 O150 1.209 . S
C145 O152 1.226 . S
O146 Cd142 2.273 . S
O146 Cd144 2.411 . S
O146 C149 1.320 . S
O147 Cd144 2.333 . S
O147 C149 1.214 . S
O148 Cd144 2.352 . S
O148 C151 1.258 . S
C149 O146 1.320 . S
C149 O147 1.214 . S
O150 Cd142 2.277 . S
O150 C145 1.209 . S
C151 O148 1.258 . S
C151 O153 1.282 . S
O152 Cd144 2.277 . S
O152 C145 1.226 . S
O153 Cd144 2.356 . S
O153 C151 1.282 . S
C154 O155 1.306 . S
C154 O157 1.160 . S
O155 C154 1.306 . S
O155 Cd156 2.228 1_655 S
Cd156 O155 2.228 1_455 S
Cd156 O160 2.273 1_455 S
Cd156 O164 2.277 1_455 S
O157 C154 1.160 . S
O157 Cd158 2.203 . S
Cd158 O157 2.203 . S
Cd158 O160 2.411 . S
Cd158 O161 2.333 . S
Cd158 O162 2.352 . S
Cd158 O166 2.277 . S
Cd158 O167 2.356 . S
C159 O164 1.209 . S
C159 O166 1.226 . S
O160 Cd156 2.273 1_655 S
O160 Cd158 2.411 . S
O160 C163 1.320 . S
O161 Cd158 2.333 . S
O161 C163 1.214 . S
O162 Cd158 2.352 . S
O162 C165 1.258 . S
C163 O160 1.320 . S
C163 O161 1.214 . S
O164 Cd156 2.277 1_655 S
O164 C159 1.209 . S
C165 O162 1.258 . S
C165 O167 1.282 . S
O166 Cd158 2.277 . S
O166 C159 1.226 . S
O167 Cd158 2.356 . S
O167 C165 1.282 . S
H168 C174 0.930 . S
H169 C178 0.930 . S
H170 C183 0.929 . S
H171 C181 0.929 . S
H172 C176 0.929 . S
H173 C182 0.929 . S
C174 H168 0.930 . S
C174 C175 1.367 . S
C174 C182 1.378 . S
C175 C174 1.367 . S
C175 C183 1.433 1_455 S
C176 H172 0.929 . S
C176 C178 1.378 . S
C176 C180 1.350 . S
C177 C180 1.463 1_454 S
C177 C182 1.350 . S
C177 N185 1.427 1_455 S
C178 H169 0.930 . S
C178 C176 1.378 . S
C178 C179 1.367 . S
C179 C178 1.367 . S
C179 C181 1.433 1_655 S
C180 C176 1.350 . S
C180 C177 1.463 1_656 S
C180 N184 1.427 1_655 S
C181 H171 0.929 . S
C181 C179 1.433 1_455 S
C181 N184 1.384 . S
C182 H173 0.929 . S
C182 C174 1.378 . S
C182 C177 1.350 . S
C183 H170 0.929 . S
C183 C175 1.433 1_655 S
C183 N185 1.384 . S
N184 C180 1.427 1_455 S
N184 C181 1.384 . S
N185 C177 1.427 1_655 S
N185 C183 1.384 . S
H186 C192 0.930 . S
H187 C196 0.930 . S
H188 C201 0.929 . S
H189 C199 0.929 . S
H190 C194 0.929 . S
H191 C200 0.929 . S
C192 H186 0.930 . S
C192 C193 1.367 . S
C192 C200 1.378 . S
C193 C192 1.367 . S
C193 C201 1.433 1_565 S
C194 H190 0.929 . S
C194 C196 1.378 . S
C194 C198 1.350 . S
C195 C198 1.463 1_565 S
C195 C200 1.350 . S
C195 N203 1.427 1_565 S
C196 H187 0.930 . S
C196 C194 1.378 . S
C196 C197 1.367 . S
C197 C196 1.367 . S
C197 C199 1.433 1_545 S
C198 C194 1.350 . S
C198 C195 1.463 1_545 S
C198 N202 1.427 1_545 S
C199 H189 0.929 . S
C199 C197 1.433 1_565 S
C199 N202 1.384 . S
C200 H191 0.929 . S
C200 C192 1.378 . S
C200 C195 1.350 . S
C201 H188 0.929 . S
C201 C193 1.433 1_545 S
C201 N203 1.384 . S
N202 C198 1.427 1_565 S
N202 C199 1.384 . S
N203 C195 1.427 1_545 S
N203 C201 1.384 . S
H204 C210 0.930 . S
H205 C214 0.930 . S
H206 C219 0.929 . S
H207 C217 0.929 . S
H208 C212 0.929 . S
H209 C218 0.929 . S
C210 H204 0.930 . S
C210 C211 1.367 . S
C210 C218 1.378 . S
C211 C210 1.367 . S
C211 C219 1.433 . S
C212 H208 0.929 . S
C212 C214 1.378 . S
C212 C216 1.350 . S
C213 C216 1.463 1_554 S
C213 C218 1.350 . S
C213 N221 1.427 . S
C214 H205 0.930 . S
C214 C212 1.378 . S
C214 C215 1.367 . S
C215 C214 1.367 . S
C215 C217 1.433 . S
C216 C212 1.350 . S
C216 C213 1.463 1_556 S
C216 N220 1.427 . S
C217 H207 0.929 . S
C217 C215 1.433 . S
C217 N220 1.384 . S
C218 H209 0.929 . S
C218 C210 1.378 . S
C218 C213 1.350 . S
C219 H206 0.929 . S
C219 C211 1.433 . S
C219 N221 1.384 . S
N220 C216 1.427 . S
N220 C217 1.384 . S
N221 C213 1.427 . S
N221 C219 1.384 . S
H222 C228 0.930 . S
H223 C232 0.930 . S
H224 C237 0.929 . S
H225 C235 0.929 . S
H226 C230 0.929 . S
H227 C236 0.929 . S
C228 H222 0.930 . S
C228 C229 1.367 . S
C228 C236 1.378 . S
C229 C228 1.367 . S
C229 C237 1.433 1_455 S
C230 H226 0.929 . S
C230 C232 1.378 . S
C230 C234 1.350 . S
C231 C234 1.463 1_455 S
C231 C236 1.350 . S
C231 N239 1.427 1_455 S
C232 H223 0.930 . S
C232 C230 1.378 . S
C232 C233 1.367 . S
C233 C232 1.367 . S
C233 C235 1.433 1_655 S
C234 C230 1.350 . S
C234 C231 1.463 1_655 S
C234 N238 1.427 1_655 S
C235 H225 0.929 . S
C235 C233 1.433 1_455 S
C235 N238 1.384 . S
C236 H227 0.929 . S
C236 C228 1.378 . S
C236 C231 1.350 . S
C237 H224 0.929 . S
C237 C229 1.433 1_655 S
C237 N239 1.384 . S
N238 C234 1.427 1_455 S
N238 C235 1.384 . S
N239 C231 1.427 1_655 S
N239 C237 1.384 . S
H240 C246 0.930 . S
H241 C250 0.930 . S
H242 C255 0.929 . S
H243 C253 0.929 . S
H244 C248 0.929 . S
H245 C254 0.929 . S
C246 H240 0.930 . S
C246 C247 1.367 . S
C246 C254 1.378 . S
C247 C246 1.367 . S
C247 C255 1.433 1_545 S
C248 H244 0.929 . S
C248 C250 1.378 . S
C248 C252 1.350 . S
C249 C252 1.463 1_546 S
C249 C254 1.350 . S
C249 N257 1.427 1_545 S
C250 H241 0.930 . S
C250 C248 1.378 . S
C250 C251 1.367 . S
C251 C250 1.367 . S
C251 C253 1.433 1_565 S
C252 C248 1.350 . S
C252 C249 1.463 1_564 S
C252 N256 1.427 1_565 S
C253 H243 0.929 . S
C253 C251 1.433 1_545 S
C253 N256 1.384 . S
C254 H245 0.929 . S
C254 C246 1.378 . S
C254 C249 1.350 . S
C255 H242 0.929 . S
C255 C247 1.433 1_565 S
C255 N257 1.384 . S
N256 C252 1.427 1_545 S
N256 C253 1.384 . S
N257 C249 1.427 1_565 S
N257 C255 1.384 . S
H258 C264 0.930 . S
H259 C268 0.930 . S
H260 C273 0.929 . S
H261 C271 0.929 . S
H262 C266 0.929 . S
H263 C272 0.929 . S
C264 H258 0.930 . S
C264 C265 1.367 . S
C264 C272 1.378 . S
C265 C264 1.367 . S
C265 C273 1.433 . S
C266 H262 0.929 . S
C266 C268 1.378 . S
C266 C270 1.350 . S
C267 C270 1.463 . S
C267 C272 1.350 . S
C267 N275 1.427 . S
C268 H259 0.930 . S
C268 C266 1.378 . S
C268 C269 1.367 . S
C269 C268 1.367 . S
C269 C271 1.433 . S
C270 C266 1.350 . S
C270 C267 1.463 . S
C270 N274 1.427 . S
C271 H261 0.929 . S
C271 C269 1.433 . S
C271 N274 1.384 . S
C272 H263 0.929 . S
C272 C264 1.378 . S
C272 C267 1.350 . S
C273 H260 0.929 . S
C273 C265 1.433 . S
C273 N275 1.384 . S
N274 C270 1.427 . S
N274 C271 1.384 . S
N275 C267 1.427 . S
N275 C273 1.384 . S
H276 C282 0.930 . S
H277 C286 0.930 . S
H278 C291 0.929 . S
H279 C289 0.929 . S
H280 C284 0.958 . S
H281 C290 0.958 . S
C282 H276 0.930 . S
C282 C283 1.367 . S
C282 C290 1.378 . S
C283 C282 1.367 . S
C283 C291 1.433 . S
C284 H280 0.958 . S
C284 C286 1.378 . S
C284 C288 1.350 . S
C285 C288 1.463 1_656 S
C285 C290 1.350 . S
C285 N293 1.427 . S
C286 H277 0.930 . S
C286 C284 1.378 . S
C286 C287 1.367 . S
C287 C286 1.367 . S
C287 C289 1.433 . S
C288 C284 1.350 . S
C288 C285 1.463 1_454 S
C288 N292 1.427 . S
C289 H279 0.929 . S
C289 C287 1.433 . S
C289 N292 1.384 . S
C290 H281 0.958 . S
C290 C282 1.378 . S
C290 C285 1.350 . S
C291 H278 0.929 . S
C291 C283 1.433 . S
C291 N293 1.384 . S
N292 C288 1.427 . S
N292 C289 1.384 . S
N293 C285 1.427 . S
N293 C291 1.384 . S
H294 C300 0.930 . S
H295 C304 0.930 . S
H296 C309 0.915 1_545 S
H297 C307 0.915 1_565 S
H298 C302 0.929 . S
H299 C308 0.929 . S
C300 H294 0.930 . S
C300 C301 1.367 . S
C300 C308 1.378 . S
C301 C300 1.367 . S
C301 C309 1.453 . S
C302 H298 0.929 . S
C302 C304 1.378 . S
C302 C306 1.350 . S
C303 C306 1.463 1_565 S
C303 C308 1.350 . S
C303 N311 1.427 1_565 S
C304 H295 0.930 . S
C304 C302 1.378 . S
C304 C305 1.367 . S
C305 C304 1.367 . S
C305 C307 1.453 . S
C306 C302 1.350 . S
C306 C303 1.463 1_545 S
C306 N310 1.427 1_545 S
C307 H297 0.915 1_545 S
C307 C305 1.453 . S
C307 N310 1.379 1_545 S
C308 H299 0.929 . S
C308 C300 1.378 . S
C308 C303 1.350 . S
C309 H296 0.915 1_565 S
C309 C301 1.453 . S
C309 N311 1.379 1_565 S
N310 C306 1.427 1_565 S
N310 C307 1.379 1_565 S
N311 C303 1.427 1_545 S
N311 C309 1.379 1_545 S
H312 C318 0.930 . S
H313 C322 0.930 . S
H314 C327 0.929 . S
H315 C325 0.929 . S
H316 C320 0.929 . S
H317 C326 0.929 . S
C318 H312 0.930 . S
C318 C319 1.367 . S
C318 C326 1.378 . S
C319 C318 1.367 . S
C319 C327 1.433 . S
C320 H316 0.929 . S
C320 C322 1.378 . S
C320 C324 1.350 . S
C321 C324 1.463 1_556 S
C321 C326 1.350 . S
C321 N329 1.427 . S
C322 H313 0.930 . S
C322 C320 1.378 . S
C322 C323 1.367 . S
C323 C322 1.367 . S
C323 C325 1.433 . S
C324 C320 1.350 . S
C324 C321 1.463 1_554 S
C324 N328 1.427 . S
C325 H315 0.929 . S
C325 C323 1.433 . S
C325 N328 1.384 . S
C326 H317 0.929 . S
C326 C318 1.378 . S
C326 C321 1.350 . S
C327 H314 0.929 . S
C327 C319 1.433 . S
C327 N329 1.384 . S
N328 C324 1.427 . S
N328 C325 1.384 . S
N329 C321 1.427 . S
N329 C327 1.384 . S
H330 C336 0.930 . S
H331 C340 0.930 . S
H332 C345 0.929 . S
H333 C343 0.929 . S
H334 C338 0.929 . S
H335 C344 0.929 . S
C336 H330 0.930 . S
C336 C337 1.367 1_455 S
C336 C344 1.378 . S
C337 C336 1.367 1_655 S
C337 C345 1.433 . S
C338 H334 0.929 . S
C338 C340 1.378 . S
C338 C342 1.350 1_655 S
C339 C342 1.463 1_655 S
C339 C344 1.350 1_655 S
C339 N347 1.427 . S
C340 H331 0.930 . S
C340 C338 1.378 . S
C340 C341 1.367 1_655 S
C341 C340 1.367 1_455 S
C341 C343 1.433 . S
C342 C338 1.350 1_455 S
C342 C339 1.463 1_455 S
C342 N346 1.427 . S
C343 H333 0.929 . S
C343 C341 1.433 . S
C343 N346 1.384 . S
C344 H335 0.929 . S
C344 C336 1.378 . S
C344 C339 1.350 1_455 S
C345 H332 0.929 . S
C345 C337 1.433 . S
C345 N347 1.384 . S
N346 C342 1.427 . S
N346 C343 1.384 . S
N347 C339 1.427 . S
N347 C345 1.384 . S
H348 C354 0.907 1_565 S
H349 C358 0.907 1_545 S
H350 C363 0.929 . S
H351 C361 0.929 . S
H352 C356 0.929 . S
H353 C362 0.929 . S
C354 H348 0.907 1_545 S
C354 C355 1.367 . S
C354 C362 1.378 1_545 S
C355 C354 1.367 . S
C355 C363 1.433 . S
C356 H352 0.929 . S
C356 C358 1.378 1_545 S
C356 C360 1.350 1_545 S
C357 C360 1.463 1_546 S
C357 C362 1.350 1_545 S
C357 N365 1.427 . S
C358 H349 0.907 1_565 S
C358 C356 1.378 1_565 S
C358 C359 1.367 . S
C359 C358 1.367 . S
C359 C361 1.433 . S
C360 C356 1.350 1_565 S
C360 C357 1.463 1_564 S
C360 N364 1.427 . S
C361 H351 0.929 . S
C361 C359 1.433 . S
C361 N364 1.384 . S
C362 H353 0.929 . S
C362 C354 1.378 1_565 S
C362 C357 1.350 1_565 S
C363 H350 0.929 . S
C363 C355 1.433 . S
C363 N365 1.384 . S
N364 C360 1.427 . S
N364 C361 1.384 . S
N365 C357 1.427 . S
N365 C363 1.384 . S
H366 C372 0.930 . S
H367 C376 0.930 . S
H368 C381 0.929 . S
H369 C379 0.929 . S
H370 C374 0.929 . S
H371 C380 0.929 . S
C372 H366 0.930 . S
C372 C373 1.367 . S
C372 C380 1.378 . S
C373 C372 1.367 . S
C373 C381 1.433 . S
C374 H370 0.929 . S
C374 C376 1.378 . S
C374 C378 1.350 . S
C375 C378 1.463 . S
C375 C380 1.350 . S
C375 N383 1.427 . S
C376 H367 0.930 . S
C376 C374 1.378 . S
C376 C377 1.367 . S
C377 C376 1.367 . S
C377 C379 1.433 . S
C378 C374 1.350 . S
C378 C375 1.463 . S
C378 N382 1.427 . S
C379 H369 0.929 . S
C379 C377 1.433 . S
C379 N382 1.384 . S
C380 H371 0.929 . S
C380 C372 1.378 . S
C380 C375 1.350 . S
C381 H368 0.929 . S
C381 C373 1.433 . S
C381 N383 1.384 . S
N382 C378 1.427 . S
N382 C379 1.384 . S
N383 C375 1.427 . S
N383 C381 1.384 . S
H384 C390 0.930 . S
H385 C394 0.930 . S
H386 C399 0.929 . S
H387 C397 0.929 . S
H388 C392 0.929 . S
H389 C398 0.929 . S
C390 H384 0.930 . S
C390 C391 1.367 . S
C390 C398 1.378 . S
C391 C390 1.367 . S
C391 C399 1.433 . S
C392 H388 0.929 . S
C392 C394 1.378 . S
C392 C396 1.350 . S
C393 C396 1.463 . S
C393 C398 1.350 . S
C393 N401 1.427 . S
C394 H385 0.930 . S
C394 C392 1.378 . S
C394 C395 1.367 . S
C395 C394 1.367 . S
C395 C397 1.433 . S
C396 C392 1.350 . S
C396 C393 1.463 . S
C396 N400 1.427 . S
C397 H387 0.929 . S
C397 C395 1.433 . S
C397 N400 1.384 . S
C398 H389 0.929 . S
C398 C390 1.378 . S
C398 C393 1.350 . S
C399 H386 0.929 . S
C399 C391 1.433 . S
C399 N401 1.384 . S
N400 C396 1.427 . S
N400 C397 1.384 . S
N401 C393 1.427 . S
N401 C399 1.384 . S
H402 C408 0.930 . S
H403 C412 0.930 . S
H404 C417 0.929 . S
H405 C415 0.929 . S
H406 C410 0.929 . S
H407 C416 0.929 . S
C408 H402 0.930 . S
C408 C409 1.367 . S
C408 C416 1.378 . S
C409 C408 1.367 . S
C409 C417 1.433 . S
C410 H406 0.929 . S
C410 C412 1.378 . S
C410 C414 1.350 . S
C411 C414 1.463 . S
C411 C416 1.350 . S
C411 N419 1.427 . S
C412 H403 0.930 . S
C412 C410 1.378 . S
C412 C413 1.367 . S
C413 C412 1.367 . S
C413 C415 1.433 . S
C414 C410 1.350 . S
C414 C411 1.463 . S
C414 N418 1.427 . S
C415 H405 0.929 . S
C415 C413 1.433 . S
C415 N418 1.384 . S
C416 H407 0.929 . S
C416 C408 1.378 . S
C416 C411 1.350 . S
C417 H404 0.929 . S
C417 C409 1.433 . S
C417 N419 1.384 . S
N418 C414 1.427 . S
N418 C415 1.384 . S
N419 C411 1.427 . S
N419 C417 1.384 . S
H420 C426 0.930 . S
H421 C430 0.930 . S
H422 C435 0.929 . S
H423 C433 0.929 . S
H424 C428 0.929 . S
H425 C434 0.929 . S
C426 H420 0.930 . S
C426 C427 1.367 . S
C426 C434 1.378 . S
C427 C426 1.367 . S
C427 C435 1.433 . S
C428 H424 0.929 . S
C428 C430 1.378 . S
C428 C432 1.350 . S
C429 C432 1.463 . S
C429 C434 1.350 . S
C429 N437 1.427 . S
C430 H421 0.930 . S
C430 C428 1.378 . S
C430 C431 1.367 . S
C431 C430 1.367 . S
C431 C433 1.433 . S
C432 C428 1.350 . S
C432 C429 1.463 . S
C432 N436 1.427 . S
C433 H423 0.929 . S
C433 C431 1.433 . S
C433 N436 1.384 . S
C434 H425 0.929 . S
C434 C426 1.378 . S
C434 C429 1.350 . S
C435 H422 0.929 . S
C435 C427 1.433 . S
C435 N437 1.384 . S
N436 C432 1.427 . S
N436 C433 1.384 . S
N437 C429 1.427 . S
N437 C435 1.384 . S
H438 C444 0.930 . S
H439 C448 0.930 . S
H440 C453 0.929 . S
H441 C451 0.929 . S
H442 C446 0.929 . S
H443 C452 0.929 . S
C444 H438 0.930 . S
C444 C445 1.367 . S
C444 C452 1.378 . S
C445 C444 1.367 . S
C445 C453 1.433 . S
C446 H442 0.929 . S
C446 C448 1.378 . S
C446 C450 1.350 . S
C447 C450 1.463 . S
C447 C452 1.350 . S
C447 N455 1.427 . S
C448 H439 0.930 . S
C448 C446 1.378 . S
C448 C449 1.367 . S
C449 C448 1.367 . S
C449 C451 1.433 . S
C450 C446 1.350 . S
C450 C447 1.463 . S
C450 N454 1.427 . S
C451 H441 0.929 . S
C451 C449 1.433 . S
C451 N454 1.384 . S
C452 H443 0.929 . S
C452 C444 1.378 . S
C452 C447 1.350 . S
C453 H440 0.929 . S
C453 C445 1.433 . S
C453 N455 1.384 . S
N454 C450 1.427 . S
N454 C451 1.384 . S
N455 C447 1.427 . S
N455 C453 1.384 . S
H456 C462 0.930 . S
H457 C466 0.930 . S
H458 C471 0.929 . S
H459 C469 0.929 . S
H460 C464 0.929 . S
H461 C470 0.929 . S
C462 H456 0.930 . S
C462 C463 1.367 . S
C462 C470 1.378 . S
C463 C462 1.367 . S
C463 C471 1.433 . S
C464 H460 0.929 . S
C464 C466 1.378 . S
C464 C468 1.350 . S
C465 C468 1.463 . S
C465 C470 1.350 . S
C465 N473 1.427 . S
C466 H457 0.930 . S
C466 C464 1.378 . S
C466 C467 1.367 . S
C467 C466 1.367 . S
C467 C469 1.433 . S
C468 C464 1.350 . S
C468 C465 1.463 . S
C468 N472 1.427 . S
C469 H459 0.929 . S
C469 C467 1.433 . S
C469 N472 1.384 . S
C470 H461 0.929 . S
C470 C462 1.378 . S
C470 C465 1.350 . S
C471 H458 0.929 . S
C471 C463 1.433 . S
C471 N473 1.384 . S
N472 C468 1.427 . S
N472 C469 1.384 . S
N473 C465 1.427 . S
N473 C471 1.384 . S
H474 C480 0.930 . S
H475 C484 0.930 . S
H476 C489 0.929 . S
H477 C487 0.929 . S
H478 C482 0.929 . S
H479 C488 0.929 . S
C480 H474 0.930 . S
C480 C481 1.367 . S
C480 C488 1.378 . S
C481 C480 1.367 . S
C481 C489 1.433 . S
C482 H478 0.929 . S
C482 C484 1.378 . S
C482 C486 1.350 . S
C483 C486 1.463 . S
C483 C488 1.350 . S
C483 N491 1.427 . S
C484 H475 0.930 . S
C484 C482 1.378 . S
C484 C485 1.367 . S
C485 C484 1.367 . S
C485 C487 1.433 . S
C486 C482 1.350 . S
C486 C483 1.463 . S
C486 N490 1.427 . S
C487 H477 0.929 . S
C487 C485 1.433 . S
C487 N490 1.384 . S
C488 H479 0.929 . S
C488 C480 1.378 . S
C488 C483 1.350 . S
C489 H476 0.929 . S
C489 C481 1.433 . S
C489 N491 1.384 . S
N490 C486 1.427 . S
N490 C487 1.384 . S
N491 C483 1.427 . S
N491 C489 1.384 . S
H492 C498 0.930 . S
H493 C502 0.930 . S
H494 C507 0.929 . S
H495 C505 0.929 . S
H496 C500 0.929 . S
H497 C506 0.929 . S
C498 H492 0.930 . S
C498 C499 1.367 . S
C498 C506 1.378 . S
C499 C498 1.367 . S
C499 C507 1.433 . S
C500 H496 0.929 . S
C500 C502 1.378 . S
C500 C504 1.350 . S
C501 C504 1.463 . S
C501 C506 1.350 . S
C501 N509 1.427 . S
C502 H493 0.930 . S
C502 C500 1.378 . S
C502 C503 1.367 . S
C503 C502 1.367 . S
C503 C505 1.433 . S
C504 C500 1.350 . S
C504 C501 1.463 . S
C504 N508 1.427 . S
C505 H495 0.929 . S
C505 C503 1.433 . S
C505 N508 1.384 . S
C506 H497 0.929 . S
C506 C498 1.378 . S
C506 C501 1.350 . S
C507 H494 0.929 . S
C507 C499 1.433 . S
C507 N509 1.384 . S
N508 C504 1.427 . S
N508 C505 1.384 . S
N509 C501 1.427 . S
N509 C507 1.384 . S
H510 C516 0.930 . S
H511 C520 0.930 . S
H512 C525 0.929 . S
H513 C523 0.929 . S
H514 C518 0.929 . S
H515 C524 0.929 . S
C516 H510 0.930 . S
C516 C517 1.367 . S
C516 C524 1.378 . S
C517 C516 1.367 . S
C517 C525 1.433 . S
C518 H514 0.929 . S
C518 C520 1.378 . S
C518 C522 1.350 . S
C519 C522 1.463 . S
C519 C524 1.350 . S
C519 N527 1.427 . S
C520 H511 0.930 . S
C520 C518 1.378 . S
C520 C521 1.367 . S
C521 C520 1.367 . S
C521 C523 1.433 . S
C522 C518 1.350 . S
C522 C519 1.463 . S
C522 N526 1.427 . S
C523 H513 0.929 . S
C523 C521 1.433 . S
C523 N526 1.384 . S
C524 H515 0.929 . S
C524 C516 1.378 . S
C524 C519 1.350 . S
C525 H512 0.929 . S
C525 C517 1.433 . S
C525 N527 1.384 . S
N526 C522 1.427 . S
N526 C523 1.384 . S
N527 C519 1.427 . S
N527 C525 1.384 . S
H528 C534 0.930 . S
H529 C538 0.930 . S
H530 C543 0.929 . S
H531 C541 0.929 . S
H532 C536 0.929 . S
H533 C542 0.929 . S
C534 H528 0.930 . S
C534 C535 1.367 . S
C534 C542 1.378 . S
C535 C534 1.367 . S
C535 C543 1.433 . S
C536 H532 0.929 . S
C536 C538 1.378 . S
C536 C540 1.350 . S
C537 C540 1.463 . S
C537 C542 1.350 . S
C537 N545 1.427 . S
C538 H529 0.930 . S
C538 C536 1.378 . S
C538 C539 1.367 . S
C539 C538 1.367 . S
C539 C541 1.433 . S
C540 C536 1.350 . S
C540 C537 1.463 . S
C540 N544 1.427 . S
C541 H531 0.929 . S
C541 C539 1.433 . S
C541 N544 1.384 . S
C542 H533 0.929 . S
C542 C534 1.378 . S
C542 C537 1.350 . S
C543 H530 0.929 . S
C543 C535 1.433 . S
C543 N545 1.384 . S
N544 C540 1.427 . S
N544 C541 1.384 . S
N545 C537 1.427 . S
N545 C543 1.384 . S
H546 C552 0.930 . S
H547 C556 0.930 . S
H548 C561 0.929 . S
H549 C559 0.929 . S
H550 C554 0.929 . S
H551 C560 0.929 . S
C552 H546 0.930 . S
C552 C553 1.367 . S
C552 C560 1.378 . S
C553 C552 1.367 . S
C553 C561 1.433 . S
C554 H550 0.929 . S
C554 C556 1.378 . S
C554 C558 1.350 . S
C555 C558 1.463 . S
C555 C560 1.350 . S
C555 N563 1.427 . S
C556 H547 0.930 . S
C556 C554 1.378 . S
C556 C557 1.367 . S
C557 C556 1.367 . S
C557 C559 1.433 . S
C558 C554 1.350 . S
C558 C555 1.463 . S
C558 N562 1.427 . S
C559 H549 0.929 . S
C559 C557 1.433 . S
C559 N562 1.384 . S
C560 H551 0.929 . S
C560 C552 1.378 . S
C560 C555 1.350 . S
C561 H548 0.929 . S
C561 C553 1.433 . S
C561 N563 1.384 . S
N562 C558 1.427 . S
N562 C559 1.384 . S
N563 C555 1.427 . S
N563 C561 1.384 . S
H564 C570 0.930 . S
H565 C574 0.930 . S
H566 C579 0.929 . S
H567 C577 0.929 . S
H568 C572 0.929 . S
H569 C578 0.929 . S
C570 H564 0.930 . S
C570 C571 1.367 . S
C570 C578 1.378 . S
C571 C570 1.367 . S
C571 C579 1.433 . S
C572 H568 0.929 . S
C572 C574 1.378 . S
C572 C576 1.350 . S
C573 C576 1.463 . S
C573 C578 1.350 . S
C573 N581 1.427 . S
C574 H565 0.930 . S
C574 C572 1.378 . S
C574 C575 1.367 . S
C575 C574 1.367 . S
C575 C577 1.433 . S
C576 C572 1.350 . S
C576 C573 1.463 . S
C576 N580 1.427 . S
C577 H567 0.929 . S
C577 C575 1.433 . S
C577 N580 1.384 . S
C578 H569 0.929 . S
C578 C570 1.378 . S
C578 C573 1.350 . S
C579 H566 0.929 . S
C579 C571 1.433 . S
C579 N581 1.384 . S
N580 C576 1.427 . S
N580 C577 1.384 . S
N581 C573 1.427 . S
N581 C579 1.384 . S
H582 C588 0.930 . S
H583 C592 0.930 . S
H584 C597 0.929 . S
H585 C595 0.929 . S
H586 C590 0.929 . S
H587 C596 0.929 . S
C588 H582 0.930 . S
C588 C589 1.367 . S
C588 C596 1.378 . S
C589 C588 1.367 . S
C589 C597 1.433 . S
C590 H586 0.929 . S
C590 C592 1.378 . S
C590 C594 1.350 . S
C591 C594 1.463 . S
C591 C596 1.350 . S
C591 N599 1.427 . S
C592 H583 0.930 . S
C592 C590 1.378 . S
C592 C593 1.367 . S
C593 C592 1.367 . S
C593 C595 1.433 . S
C594 C590 1.350 . S
C594 C591 1.463 . S
C594 N598 1.427 . S
C595 H585 0.929 . S
C595 C593 1.433 . S
C595 N598 1.384 . S
C596 H587 0.929 . S
C596 C588 1.378 . S
C596 C591 1.350 . S
C597 H584 0.929 . S
C597 C589 1.433 . S
C597 N599 1.384 . S
N598 C594 1.427 . S
N598 C595 1.384 . S
N599 C591 1.427 . S
N599 C597 1.384 . S
C175 C9 1.368 . S
C179 C163 1.368 . S
C193 C93 1.368 . S
C197 C23 1.368 . S
C211 C37 1.377 . S
C215 C107 1.373 . S
C229 C121 1.371 . S
C233 C51 1.368 . S
C247 C135 1.368 . S
C251 C65 1.371 . S
C265 C149 1.368 . S
C269 C79 1.369 . S
C283 C42 1.299 . S
C287 C112 1.307 . S
C301 C56 1.299 . S
C305 C126 1.306 . S
C319 C70 1.307 . S
C323 C140 1.299 . S
C337 C154 1.300 . S
C341 C0 1.306 . S
C355 C14 1.307 . S
C359 C84 1.299 . S
C373 C28 1.305 . S
C377 C98 1.301 . S
C391 C117 1.662 . S
C395 C5 1.662 . S
C409 C131 1.661 . S
C413 C19 1.661 . S
C427 C33 1.661 . S
C431 C145 1.661 . S
C445 C47 1.662 . S
C449 C159 1.661 . S
C463 C61 1.662 . S
C467 C89 1.661 . S
C481 C103 1.662 . S
C485 C75 1.661 . S
C499 C11 1.599 . S
C503 C151 1.602 . S
C517 C165 1.600 . S
C521 C25 1.599 . S
C535 C39 1.599 . S
C539 C95 1.601 . S
C553 C53 1.603 . S
C557 C109 1.597 . S
C571 C67 1.600 . S
C575 C123 1.601 . S
C589 C81 1.599 . S
C593 C137 1.601 . S
