# Generated by pormake.
# Topology uoe, (4)-cn, num edge types: 1
# Building blocks:
#     Node 0, Type 0, BuildingBlock: QUQFOY_clean_sbu_1, # of connection points: 4
#     Node 1, Type 0, BuildingBlock: QUQFOY_clean_sbu_1, # of connection points: 4
#     Node 2, Type 0, BuildingBlock: QUQFOY_clean_sbu_1, # of connection points: 4
#     Node 3, Type 0, BuildingBlock: QUQFOY_clean_sbu_1, # of connection points: 4
#     Node 4, Type 0, BuildingBlock: QUQFOY_clean_sbu_1, # of connection points: 4
#     Node 5, Type 0, BuildingBlock: QUQFOY_clean_sbu_1, # of connection points: 4
#     Node 6, Type 0, BuildingBlock: QUQFOY_clean_sbu_1, # of connection points: 4
#     Node 7, Type 0, BuildingBlock: QUQFOY_clean_sbu_1, # of connection points: 4
#     Node 8, Type 0, BuildingBlock: QUQFOY_clean_sbu_1, # of connection points: 4
#     Node 9, Type 0, BuildingBlock: QUQFOY_clean_sbu_1, # of connection points: 4
#     Node 10, Type 0, BuildingBlock: QUQFOY_clean_sbu_1, # of connection points: 4
#     Node 11, Type 0, BuildingBlock: QUQFOY_clean_sbu_1, # of connection points: 4
#     Node 12, Type 0, BuildingBlock: QUQFOY_clean_sbu_1, # of connection points: 4
#     Node 13, Type 0, BuildingBlock: QUQFOY_clean_sbu_1, # of connection points: 4
#     Node 14, Type 0, BuildingBlock: QUQFOY_clean_sbu_1, # of connection points: 4
#     Node 15, Type 0, BuildingBlock: QUQFOY_clean_sbu_1, # of connection points: 4
#     Node 16, Type 0, BuildingBlock: QUQFOY_clean_sbu_1, # of connection points: 4
#     Node 17, Type 0, BuildingBlock: QUQFOY_clean_sbu_1, # of connection points: 4
#     Node 18, Type 0, BuildingBlock: QUQFOY_clean_sbu_1, # of connection points: 4
#     Node 19, Type 0, BuildingBlock: QUQFOY_clean_sbu_1, # of connection points: 4
#     Node 20, Type 0, BuildingBlock: QUQFOY_clean_sbu_1, # of connection points: 4
#     Node 21, Type 0, BuildingBlock: QUQFOY_clean_sbu_1, # of connection points: 4
#     Node 22, Type 0, BuildingBlock: QUQFOY_clean_sbu_1, # of connection points: 4
#     Node 23, Type 0, BuildingBlock: QUQFOY_clean_sbu_1, # of connection points: 4
#     Node 24, Type 0, BuildingBlock: QUQFOY_clean_sbu_1, # of connection points: 4
#     Node 25, Type 0, BuildingBlock: QUQFOY_clean_sbu_1, # of connection points: 4
#     Node 26, Type 0, BuildingBlock: QUQFOY_clean_sbu_1, # of connection points: 4
#     Node 27, Type 0, BuildingBlock: QUQFOY_clean_sbu_1, # of connection points: 4
#     Node 28, Type 0, BuildingBlock: QUQFOY_clean_sbu_1, # of connection points: 4
#     Node 29, Type 0, BuildingBlock: QUQFOY_clean_sbu_1, # of connection points: 4
#     Node 30, Type 0, BuildingBlock: QUQFOY_clean_sbu_1, # of connection points: 4
#     Node 31, Type 0, BuildingBlock: QUQFOY_clean_sbu_1, # of connection points: 4
#     Edge 32, Type (0, 0), BuildingBlock: KIFKEQ_clean_linker_1, # of connection points: 2
#     Edge 33, Type (0, 0), BuildingBlock: KIFKEQ_clean_linker_1, # of connection points: 2
#     Edge 34, Type (0, 0), BuildingBlock: KIFKEQ_clean_linker_1, # of connection points: 2
#     Edge 35, Type (0, 0), BuildingBlock: KIFKEQ_clean_linker_1, # of connection points: 2
#     Edge 36, Type (0, 0), BuildingBlock: KIFKEQ_clean_linker_1, # of connection points: 2
#     Edge 37, Type (0, 0), BuildingBlock: KIFKEQ_clean_linker_1, # of connection points: 2
#     Edge 38, Type (0, 0), BuildingBlock: KIFKEQ_clean_linker_1, # of connection points: 2
#     Edge 39, Type (0, 0), BuildingBlock: KIFKEQ_clean_linker_1, # of connection points: 2
#     Edge 40, Type (0, 0), BuildingBlock: KIFKEQ_clean_linker_1, # of connection points: 2
#     Edge 41, Type (0, 0), BuildingBlock: KIFKEQ_clean_linker_1, # of connection points: 2
#     Edge 42, Type (0, 0), BuildingBlock: KIFKEQ_clean_linker_1, # of connection points: 2
#     Edge 43, Type (0, 0), BuildingBlock: KIFKEQ_clean_linker_1, # of connection points: 2
#     Edge 44, Type (0, 0), BuildingBlock: KIFKEQ_clean_linker_1, # of connection points: 2
#     Edge 45, Type (0, 0), BuildingBlock: KIFKEQ_clean_linker_1, # of connection points: 2
#     Edge 46, Type (0, 0), BuildingBlock: KIFKEQ_clean_linker_1, # of connection points: 2
#     Edge 47, Type (0, 0), BuildingBlock: KIFKEQ_clean_linker_1, # of connection points: 2
#     Edge 48, Type (0, 0), BuildingBlock: KIFKEQ_clean_linker_1, # of connection points: 2
#     Edge 49, Type (0, 0), BuildingBlock: KIFKEQ_clean_linker_1, # of connection points: 2
#     Edge 50, Type (0, 0), BuildingBlock: KIFKEQ_clean_linker_1, # of connection points: 2
#     Edge 51, Type (0, 0), BuildingBlock: KIFKEQ_clean_linker_1, # of connection points: 2
#     Edge 52, Type (0, 0), BuildingBlock: KIFKEQ_clean_linker_1, # of connection points: 2
#     Edge 53, Type (0, 0), BuildingBlock: KIFKEQ_clean_linker_1, # of connection points: 2
#     Edge 54, Type (0, 0), BuildingBlock: KIFKEQ_clean_linker_1, # of connection points: 2
#     Edge 55, Type (0, 0), BuildingBlock: KIFKEQ_clean_linker_1, # of connection points: 2
#     Edge 56, Type (0, 0), BuildingBlock: KIFKEQ_clean_linker_1, # of connection points: 2
#     Edge 57, Type (0, 0), BuildingBlock: KIFKEQ_clean_linker_1, # of connection points: 2
#     Edge 58, Type (0, 0), BuildingBlock: KIFKEQ_clean_linker_1, # of connection points: 2
#     Edge 59, Type (0, 0), BuildingBlock: KIFKEQ_clean_linker_1, # of connection points: 2
#     Edge 60, Type (0, 0), BuildingBlock: KIFKEQ_clean_linker_1, # of connection points: 2
#     Edge 61, Type (0, 0), BuildingBlock: KIFKEQ_clean_linker_1, # of connection points: 2
#     Edge 62, Type (0, 0), BuildingBlock: KIFKEQ_clean_linker_1, # of connection points: 2
#     Edge 63, Type (0, 0), BuildingBlock: KIFKEQ_clean_linker_1, # of connection points: 2
#     Edge 64, Type (0, 0), BuildingBlock: KIFKEQ_clean_linker_1, # of connection points: 2
#     Edge 65, Type (0, 0), BuildingBlock: KIFKEQ_clean_linker_1, # of connection points: 2
#     Edge 66, Type (0, 0), BuildingBlock: KIFKEQ_clean_linker_1, # of connection points: 2
#     Edge 67, Type (0, 0), BuildingBlock: KIFKEQ_clean_linker_1, # of connection points: 2
#     Edge 68, Type (0, 0), BuildingBlock: KIFKEQ_clean_linker_1, # of connection points: 2
#     Edge 69, Type (0, 0), BuildingBlock: KIFKEQ_clean_linker_1, # of connection points: 2
#     Edge 70, Type (0, 0), BuildingBlock: KIFKEQ_clean_linker_1, # of connection points: 2
#     Edge 71, Type (0, 0), BuildingBlock: KIFKEQ_clean_linker_1, # of connection points: 2
#     Edge 72, Type (0, 0), BuildingBlock: KIFKEQ_clean_linker_1, # of connection points: 2
#     Edge 73, Type (0, 0), BuildingBlock: KIFKEQ_clean_linker_1, # of connection points: 2
#     Edge 74, Type (0, 0), BuildingBlock: KIFKEQ_clean_linker_1, # of connection points: 2
#     Edge 75, Type (0, 0), BuildingBlock: KIFKEQ_clean_linker_1, # of connection points: 2
#     Edge 76, Type (0, 0), BuildingBlock: KIFKEQ_clean_linker_1, # of connection points: 2
#     Edge 77, Type (0, 0), BuildingBlock: KIFKEQ_clean_linker_1, # of connection points: 2
#     Edge 78, Type (0, 0), BuildingBlock: KIFKEQ_clean_linker_1, # of connection points: 2
#     Edge 79, Type (0, 0), BuildingBlock: KIFKEQ_clean_linker_1, # of connection points: 2
#     Edge 80, Type (0, 0), BuildingBlock: KIFKEQ_clean_linker_1, # of connection points: 2
#     Edge 81, Type (0, 0), BuildingBlock: KIFKEQ_clean_linker_1, # of connection points: 2
#     Edge 82, Type (0, 0), BuildingBlock: KIFKEQ_clean_linker_1, # of connection points: 2
#     Edge 83, Type (0, 0), BuildingBlock: KIFKEQ_clean_linker_1, # of connection points: 2
#     Edge 84, Type (0, 0), BuildingBlock: KIFKEQ_clean_linker_1, # of connection points: 2
#     Edge 85, Type (0, 0), BuildingBlock: KIFKEQ_clean_linker_1, # of connection points: 2
#     Edge 86, Type (0, 0), BuildingBlock: KIFKEQ_clean_linker_1, # of connection points: 2
#     Edge 87, Type (0, 0), BuildingBlock: KIFKEQ_clean_linker_1, # of connection points: 2
#     Edge 88, Type (0, 0), BuildingBlock: KIFKEQ_clean_linker_1, # of connection points: 2
#     Edge 89, Type (0, 0), BuildingBlock: KIFKEQ_clean_linker_1, # of connection points: 2
#     Edge 90, Type (0, 0), BuildingBlock: KIFKEQ_clean_linker_1, # of connection points: 2
#     Edge 91, Type (0, 0), BuildingBlock: KIFKEQ_clean_linker_1, # of connection points: 2
#     Edge 92, Type (0, 0), BuildingBlock: KIFKEQ_clean_linker_1, # of connection points: 2
#     Edge 93, Type (0, 0), BuildingBlock: KIFKEQ_clean_linker_1, # of connection points: 2
#     Edge 94, Type (0, 0), BuildingBlock: KIFKEQ_clean_linker_1, # of connection points: 2
#     Edge 95, Type (0, 0), BuildingBlock: KIFKEQ_clean_linker_1, # of connection points: 2
# Relax obj value: 0.068
# Max RMSD: 0.140
# Mean RMSD: 0.140
data_MOF--net-uoe--node1-QUQFOY_clean_sbu_1--edge1-KIFKEQ_clean_linker_1
_symmetry_space_group_name_H-M    P1
_symmetry_Int_Tables_number       1
_symmetry_cell_setting            triclinic
loop_
_symmetry_equiv_pos_as_xyz
'x, y, z'
_cell_length_a     79.634285
_cell_length_b     79.621479
_cell_length_c     28.760552
_cell_angle_alpha  89.992797
_cell_angle_beta   90.003743
_cell_angle_gamma 90.09419
loop_
_atom_site_label
_atom_site_type_symbol
_atom_site_fract_x
_atom_site_fract_y
_atom_site_fract_z
_atom_type_partial_charge
O0 O 0.10826 0.4758 0.15271 0.0
Cd1 Cd 0.09543 0.46236 0.10312 0.0
Cd2 Cd 0.1065 0.49143 0.05333 0.0
O3 O 0.12074 0.49579 0.11202 0.0
O4 O 0.09182 0.44098 0.13839 0.0
O5 O 0.10848 0.4427 0.07726 0.0
C6 C 0.103 0.43409 0.11225 0.0
C7 C 0.11725 0.49536 0.97842 0.0
C8 C 0.11846 0.48802 0.15008 0.0
C9 C 0.06905 0.48622 0.06792 0.0
O10 O 0.08117 0.49606 0.05842 0.0
O11 O 0.07189 0.47129 0.08206 0.0
O12 O 0.11453 0.50787 1.0058 0.0
O13 O 0.11466 0.48041 0.99443 0.0
O14 O 0.79281 0.85613 0.39307 0.0
Cd15 Cd 0.80708 0.84407 0.34447 0.0
Cd16 Cd 0.77739 0.85512 0.29255 0.0
O17 O 0.77254 0.86841 0.35329 0.0
O18 O 0.82799 0.84072 0.38206 0.0
O19 O 0.82697 0.85749 0.32109 0.0
C20 C 0.83514 0.85203 0.35686 0.0
C21 C 0.77114 0.86632 0.21899 0.0
C22 C 0.78028 0.86593 0.39138 0.0
C23 C 0.78437 0.81737 0.30599 0.0
O24 O 0.77463 0.8293 0.29437 0.0
O25 O 0.79875 0.82042 0.32364 0.0
O26 O 0.75949 0.86165 0.24727 0.0
O27 O 0.78648 0.86557 0.23351 0.0
O28 O 0.4116 0.54286 0.64301 0.0
Cd29 Cd 0.42396 0.55715 0.59479 0.0
Cd30 Cd 0.4133 0.52747 0.54264 0.0
O31 O 0.39968 0.52248 0.60266 0.0
O32 O 0.42718 0.57812 0.63214 0.0
O33 O 0.41082 0.577 0.57033 0.0
C34 C 0.41615 0.58527 0.60609 0.0
C35 C 0.40261 0.52111 0.46851 0.0
C36 C 0.4019 0.53023 0.64087 0.0
C37 C 0.45093 0.53461 0.55814 0.0
O38 O 0.43907 0.52481 0.54609 0.0
O39 O 0.44775 0.54903 0.57526 0.0
O40 O 0.40716 0.50951 0.49703 0.0
O41 O 0.4032 0.53646 0.48302 0.0
O42 O 0.72714 0.15862 0.89281 0.0
Cd43 Cd 0.71326 0.17259 0.84678 0.0
Cd44 Cd 0.74221 0.16186 0.79253 0.0
O45 O 0.74719 0.14724 0.85006 0.0
O46 O 0.69297 0.17652 0.88646 0.0
O47 O 0.69237 0.16076 0.82343 0.0
C48 C 0.68491 0.16606 0.86054 0.0
C49 C 0.74615 0.15143 0.71721 0.0
C50 C 0.73952 0.14874 0.88854 0.0
C51 C 0.73716 0.19922 0.81153 0.0
O52 O 0.74665 0.18722 0.7989 0.0
O53 O 0.72252 0.19626 0.82774 0.0
O54 O 0.75867 0.15439 0.74441 0.0
O55 O 0.7312 0.15372 0.73346 0.0
O56 O 0.10919 0.54063 0.46136 0.0
Cd57 Cd 0.09525 0.55518 0.50566 0.0
Cd58 Cd 0.10495 0.52626 0.56376 0.0
O59 O 0.11877 0.51999 0.50547 0.0
O60 O 0.09223 0.57555 0.46563 0.0
O61 O 0.10739 0.57575 0.52983 0.0
C62 C 0.10256 0.58338 0.49247 0.0
C63 C 0.11584 0.52162 0.63836 0.0
C64 C 0.11813 0.5276 0.46668 0.0
C65 C 0.06772 0.53282 0.54414 0.0
O66 O 0.07929 0.52343 0.56 0.0
O67 O 0.07126 0.5466 0.5236 0.0
O68 O 0.11175 0.50934 0.61148 0.0
O69 O 0.11443 0.53669 0.62219 0.0
O70 O 0.72403 0.85388 0.70502 0.0
Cd71 Cd 0.71035 0.84239 0.75601 0.0
Cd72 Cd 0.73966 0.85445 0.80482 0.0
O73 O 0.74365 0.8677 0.74347 0.0
O74 O 0.68897 0.83862 0.72095 0.0
O75 O 0.69088 0.85612 0.7802 0.0
C76 C 0.68223 0.85027 0.74577 0.0
C77 C 0.74552 0.86611 0.87801 0.0
C78 C 0.73604 0.86435 0.70566 0.0
C79 C 0.73364 0.8165 0.79451 0.0
O80 O 0.74335 0.82874 0.80386 0.0
O81 O 0.71894 0.8191 0.77845 0.0
O82 O 0.75733 0.86195 0.84966 0.0
O83 O 0.73021 0.86464 0.86366 0.0
O84 O 0.41414 0.47408 0.95457 0.0
Cd85 Cd 0.42509 0.46076 0.00737 0.0
Cd86 Cd 0.41329 0.48983 0.05255 0.0
O87 O 0.39927 0.49301 0.9924 0.0
O88 O 0.42841 0.4388 0.97481 0.0
O89 O 0.41066 0.44202 0.03307 0.0
C90 C 0.41641 0.43274 0.99981 0.0
C91 C 0.40245 0.4954 0.12687 0.0
C92 C 0.40314 0.4856 0.95471 0.0
C93 C 0.45108 0.48454 0.04119 0.0
O94 O 0.43877 0.49443 0.04772 0.0
O95 O 0.44848 0.46926 0.02995 0.0
O96 O 0.40583 0.50731 0.09798 0.0
O97 O 0.40428 0.48012 0.11256 0.0
O98 O 0.79084 0.15917 0.20099 0.0
Cd99 Cd 0.80474 0.17274 0.24783 0.0
Cd100 Cd 0.77579 0.1623 0.30224 0.0
O101 O 0.77033 0.1484 0.24347 0.0
O102 O 0.82577 0.17592 0.21077 0.0
O103 O 0.82468 0.16021 0.27392 0.0
C104 C 0.83297 0.16524 0.23785 0.0
C105 C 0.77158 0.15124 0.37673 0.0
C106 C 0.77811 0.14968 0.20507 0.0
C107 C 0.78183 0.19971 0.2855 0.0
O108 O 0.77227 0.18787 0.29899 0.0
O109 O 0.79601 0.19653 0.26683 0.0
O110 O 0.75914 0.1548 0.34985 0.0
O111 O 0.78659 0.1532 0.36046 0.0
O112 O 0.90946 0.54036 0.95729 0.0
Cd113 Cd 0.92339 0.55461 1.00246 0.0
Cd114 Cd 0.91316 0.52576 0.05929 0.0
O115 O 0.89927 0.51984 1.00085 0.0
O116 O 0.92661 0.57518 0.96339 0.0
O117 O 0.91125 0.57502 0.02724 0.0
C118 C 0.91619 0.58284 0.99027 0.0
C119 C 0.90209 0.5214 0.13376 0.0
C120 C 0.90021 0.5275 0.96219 0.0
C121 C 0.95052 0.53192 0.04095 0.0
O122 O 0.93877 0.52253 0.05592 0.0
O123 O 0.94724 0.54585 0.02096 0.0
O124 O 0.90593 0.50902 0.107 0.0
O125 O 0.90384 0.53643 0.11748 0.0
O126 O 0.22582 0.16043 0.7078 0.0
Cd127 Cd 0.2117 0.17377 0.75486 0.0
Cd128 Cd 0.24101 0.1632 0.80809 0.0
O129 O 0.24629 0.14928 0.74957 0.0
O130 O 0.19086 0.17703 0.71697 0.0
O131 O 0.19161 0.161 0.77951 0.0
C132 C 0.18352 0.16616 0.74325 0.0
C133 C 0.24658 0.15251 0.88241 0.0
C134 C 0.23847 0.15084 0.71133 0.0
C135 C 0.23482 0.20067 0.79127 0.0
O136 O 0.24446 0.18873 0.80328 0.0
O137 O 0.22026 0.19762 0.77475 0.0
O138 O 0.25848 0.15684 0.85454 0.0
O139 O 0.23134 0.15346 0.86723 0.0
O140 O 0.60157 0.47543 0.44445 0.0
Cd141 Cd 0.59339 0.46286 0.50219 0.0
Cd142 Cd 0.60623 0.49039 0.54138 0.0
O143 O 0.61999 0.49155 0.4801 0.0
O144 O 0.59141 0.43927 0.47899 0.0
O145 O 0.61105 0.44763 0.52841 0.0
C146 C 0.60523 0.43616 0.50085 0.0
C147 C 0.61763 0.49393 0.61567 0.0
C148 C 0.61412 0.48525 0.4428 0.0
C149 C 0.56862 0.48682 0.5378 0.0
O150 O 0.58111 0.4968 0.53794 0.0
O151 O 0.57092 0.47117 0.53086 0.0
O152 O 0.61621 0.5064 0.58728 0.0
O153 O 0.6136 0.47915 0.60067 0.0
O154 O 0.28981 0.86146 0.21523 0.0
Cd155 Cd 0.30443 0.84733 0.25911 0.0
Cd156 Cd 0.27599 0.85788 0.31698 0.0
O157 O 0.2702 0.8725 0.26023 0.0
O158 O 0.3242 0.84377 0.21712 0.0
O159 O 0.32557 0.85917 0.28072 0.0
C160 C 0.33255 0.85413 0.24264 0.0
C161 C 0.27175 0.86823 0.39229 0.0
C162 C 0.27739 0.8712 0.22104 0.0
C163 C 0.28104 0.82055 0.29614 0.0
O164 O 0.2718 0.8325 0.31037 0.0
O165 O 0.29543 0.82354 0.2783 0.0
O166 O 0.25934 0.86487 0.36511 0.0
O167 O 0.28676 0.8663 0.37614 0.0
O168 O 0.90936 0.47651 0.64862 0.0
Cd169 Cd 0.92247 0.46299 0.59989 0.0
Cd170 Cd 0.91158 0.49198 0.54904 0.0
O171 O 0.8972 0.49649 0.60731 0.0
O172 O 0.92612 0.44183 0.63611 0.0
O173 O 0.90964 0.44305 0.57454 0.0
C174 C 0.91507 0.43469 0.61001 0.0
C175 C 0.90092 0.49581 0.47401 0.0
C176 C 0.89925 0.48875 0.6455 0.0
C177 C 0.94898 0.48689 0.56495 0.0
O178 O 0.93692 0.49663 0.55456 0.0
O179 O 0.94609 0.47202 0.57955 0.0
O180 O 0.90371 0.50836 0.50124 0.0
O181 O 0.90344 0.48088 0.49019 0.0
O182 O 0.29099 0.15943 0.39925 0.0
Cd183 Cd 0.30567 0.17293 0.35379 0.0
Cd184 Cd 0.27637 0.16258 0.2984 0.0
O185 O 0.27055 0.14863 0.35649 0.0
O186 O 0.32593 0.17613 0.39415 0.0
O187 O 0.32618 0.16036 0.33111 0.0
C188 C 0.33369 0.16541 0.36844 0.0
C189 C 0.27065 0.15215 0.22382 0.0
C190 C 0.27821 0.15001 0.39503 0.0
C191 C 0.28299 0.20001 0.3164 0.0
O192 O 0.27335 0.18814 0.30358 0.0
O193 O 0.2974 0.19686 0.33373 0.0
O194 O 0.25882 0.15665 0.25164 0.0
O195 O 0.28589 0.15278 0.23914 0.0
O196 O 0.60938 0.5409 0.13244 0.0
Cd197 Cd 0.59635 0.55548 0.08645 0.0
Cd198 Cd 0.60648 0.52622 0.03113 0.0
O199 O 0.62064 0.52079 0.08979 0.0
O200 O 0.59321 0.57593 0.12612 0.0
O201 O 0.60905 0.57589 0.06324 0.0
C202 C 0.60397 0.58358 0.10021 0.0
C203 C 0.61694 0.52112 0.95607 0.0
C204 C 0.61895 0.52826 0.12859 0.0
C205 C 0.5691 0.53271 0.05026 0.0
O206 O 0.5808 0.52309 0.03628 0.0
O207 O 0.57245 0.54699 0.0682 0.0
O208 O 0.61323 0.50901 0.98397 0.0
O209 O 0.61545 0.53629 0.9715 0.0
O210 O 0.22764 0.8573 0.90641 0.0
Cd211 Cd 0.21457 0.84613 0.85326 0.0
Cd212 Cd 0.2428 0.85767 0.80673 0.0
O213 O 0.24638 0.87171 0.86611 0.0
O214 O 0.19183 0.84348 0.88193 0.0
O215 O 0.19735 0.86166 0.82575 0.0
C216 C 0.18709 0.85612 0.85712 0.0
C217 C 0.24633 0.86894 0.73244 0.0
C218 C 0.23914 0.86833 0.90432 0.0
C219 C 0.23821 0.82018 0.81693 0.0
O220 O 0.24818 0.83244 0.81049 0.0
O221 O 0.22304 0.82284 0.82919 0.0
O222 O 0.25894 0.86652 0.75969 0.0
O223 O 0.23147 0.86578 0.74835 0.0
O224 O 0.60474 0.97396 0.64869 0.0
Cd225 Cd 0.59269 0.95974 0.59988 0.0
Cd226 Cd 0.60379 0.98951 0.54851 0.0
O227 O 0.61735 0.99411 0.60908 0.0
O228 O 0.58923 0.93887 0.63753 0.0
O229 O 0.60599 0.93981 0.57654 0.0
C230 C 0.60049 0.93168 0.61235 0.0
C231 C 0.61467 0.99582 0.4745 0.0
C232 C 0.61471 0.98639 0.64716 0.0
C233 C 0.56603 0.9825 0.56252 0.0
O234 O 0.57799 0.99232 0.55135 0.0
O235 O 0.56905 0.96798 0.57928 0.0
O236 O 0.61026 1.00745 0.50312 0.0
O237 O 0.61387 0.98047 0.4889 0.0
O238 O 0.29043 0.3605 0.89775 0.0
Cd239 Cd 0.30458 0.34607 0.85377 0.0
Cd240 Cd 0.27568 0.35653 0.79614 0.0
O241 O 0.26996 0.37072 0.85422 0.0
O242 O 0.32452 0.34238 0.89493 0.0
O243 O 0.32572 0.35752 0.83079 0.0
C244 C 0.33286 0.35251 0.86869 0.0
C245 C 0.2716 0.36732 0.72123 0.0
C246 C 0.2777 0.36987 0.89277 0.0
C247 C 0.28136 0.31915 0.81564 0.0
O248 O 0.27216 0.33095 0.80026 0.0
O249 O 0.29532 0.32234 0.83566 0.0
O250 O 0.25912 0.36375 0.74796 0.0
O251 O 0.28657 0.36548 0.73778 0.0
O252 O 0.90872 0.0401 0.1488 0.0
Cd253 Cd 0.92253 0.05428 0.10314 0.0
Cd254 Cd 0.91253 0.02522 0.04732 0.0
O255 O 0.8986 0.01941 0.10577 0.0
O256 O 0.92562 0.075 0.1416 0.0
O257 O 0.91026 0.07452 0.07777 0.0
C258 C 0.91516 0.0825 0.11449 0.0
C259 C 0.90162 0.02078 0.97271 0.0
C260 C 0.89952 0.02718 0.14425 0.0
C261 C 0.94983 0.03165 0.06557 0.0
O262 O 0.93814 0.02209 0.05104 0.0
O263 O 0.94643 0.04567 0.08489 0.0
O264 O 0.90541 1.00842 0.99962 0.0
O265 O 0.9033 0.03582 0.98895 0.0
O266 O 0.22625 0.66069 0.39561 0.0
Cd267 Cd 0.2117 0.67449 0.35105 0.0
Cd268 Cd 0.24118 0.66493 0.29399 0.0
O269 O 0.24748 0.6515 0.35302 0.0
O270 O 0.19118 0.67715 0.39062 0.0
O271 O 0.1914 0.66204 0.32634 0.0
C272 C 0.18361 0.66668 0.3636 0.0
C273 C 0.24706 0.65406 0.21997 0.0
C274 C 0.23951 0.65202 0.39127 0.0
C275 C 0.23372 0.70222 0.31278 0.0
O276 O 0.24316 0.6907 0.29694 0.0
O277 O 0.22003 0.69861 0.3336 0.0
O278 O 0.25881 0.65922 0.24727 0.0
O279 O 0.23185 0.6543 0.23556 0.0
O280 O 0.60503 0.0442 0.95877 0.0
Cd281 Cd 0.59318 0.05848 0.00774 0.0
Cd282 Cd 0.60407 0.02877 0.0591 0.0
O283 O 0.61761 0.02411 0.99855 0.0
O284 O 0.59013 0.07957 0.97073 0.0
O285 O 0.60692 0.07808 0.03158 0.0
C286 C 0.60158 0.08645 0.99603 0.0
C287 C 0.61488 0.02243 0.13317 0.0
C288 C 0.61496 0.03178 0.96039 0.0
C289 C 0.56635 0.03584 0.04497 0.0
O290 O 0.57827 0.026 0.05618 0.0
O291 O 0.56945 0.05035 0.02825 0.0
O292 O 0.61042 0.01081 0.10452 0.0
O293 O 0.61418 0.03779 0.11876 0.0
O294 O 0.22742 0.35927 0.2049 0.0
Cd295 Cd 0.21368 0.34522 0.25089 0.0
Cd296 Cd 0.24265 0.35599 0.30597 0.0
O297 O 0.24789 0.37011 0.24734 0.0
O298 O 0.19301 0.34164 0.21246 0.0
O299 O 0.1932 0.35719 0.27595 0.0
C300 C 0.18535 0.35211 0.23919 0.0
C301 C 0.2466 0.36704 0.38059 0.0
C302 C 0.24003 0.36889 0.20905 0.0
C303 C 0.2371 0.31852 0.28844 0.0
O304 O 0.24645 0.33044 0.30249 0.0
O305 O 0.22293 0.32155 0.26944 0.0
O306 O 0.25913 0.36368 0.35384 0.0
O307 O 0.23165 0.36487 0.36415 0.0
O308 O 0.90918 0.97622 0.45702 0.0
Cd309 Cd 0.9228 0.96255 0.50431 0.0
Cd310 Cd 0.91178 0.99142 0.55702 0.0
O311 O 0.89723 0.9961 0.49917 0.0
O312 O 0.9267 0.94191 0.46607 0.0
O313 O 0.91057 0.94202 0.52842 0.0
C314 C 0.91596 0.93421 0.49197 0.0
C315 C 0.90126 0.99523 0.63226 0.0
C316 C 0.89907 0.98845 0.46078 0.0
C317 C 0.94921 0.98659 0.53952 0.0
O318 O 0.9371 0.99613 0.55104 0.0
O319 O 0.94638 0.97182 0.52407 0.0
O320 O 0.90404 1.00778 0.60506 0.0
O321 O 0.90375 0.9803 0.61601 0.0
O322 O 0.29212 0.6609 0.7036 0.0
Cd323 Cd 0.3065 0.67464 0.7489 0.0
Cd324 Cd 0.277 0.66445 0.80489 0.0
O325 O 0.27102 0.65103 0.74559 0.0
O326 O 0.32694 0.67784 0.70939 0.0
O327 O 0.32694 0.66238 0.77306 0.0
C328 C 0.33464 0.66736 0.73596 0.0
C329 C 0.27116 0.65346 0.87882 0.0
C330 C 0.27902 0.65192 0.70745 0.0
C331 C 0.2842 0.7019 0.78763 0.0
O332 O 0.27472 0.69018 0.80231 0.0
O333 O 0.29807 0.69855 0.76746 0.0
O334 O 0.25938 0.65839 0.85136 0.0
O335 O 0.28639 0.65394 0.86337 0.0
O336 O 0.41124 0.04185 0.45862 0.0
Cd337 Cd 0.42277 0.05513 0.51062 0.0
Cd338 Cd 0.4107 0.02645 0.55696 0.0
O339 O 0.39608 0.02351 0.4979 0.0
O340 O 0.42666 0.0768 0.47693 0.0
O341 O 0.40897 0.07442 0.53564 0.0
C342 C 0.4149 0.08333 0.5018 0.0
C343 C 0.40027 0.0222 0.63228 0.0
C344 C 0.39991 0.03063 0.45976 0.0
C345 C 0.44837 0.03079 0.54415 0.0
O346 O 0.43595 0.021 0.55067 0.0
O347 O 0.44596 0.04613 0.53328 0.0
O348 O 0.40233 0.00986 0.60383 0.0
O349 O 0.40326 0.03719 0.61707 0.0
O350 O 0.72806 0.65785 0.20746 0.0
Cd351 Cd 0.71354 0.67209 0.25145 0.0
Cd352 Cd 0.74261 0.66195 0.30817 0.0
O353 O 0.74833 0.64735 0.25128 0.0
O354 O 0.69346 0.67529 0.21041 0.0
O355 O 0.69268 0.66014 0.27457 0.0
C356 C 0.68538 0.66498 0.23673 0.0
C357 C 0.748 0.65213 0.3836 0.0
C358 C 0.74072 0.64836 0.21259 0.0
C359 C 0.73671 0.69924 0.28658 0.0
O360 O 0.74608 0.6874 0.30078 0.0
O361 O 0.72226 0.6961 0.26934 0.0
O362 O 0.75996 0.65629 0.35574 0.0
O363 O 0.73281 0.65281 0.36795 0.0
O364 O 0.10576 0.97728 0.94619 0.0
Cd365 Cd 0.09508 0.96419 1.00006 0.0
Cd366 Cd 0.10621 0.99279 0.04532 0.0
O367 O 0.12007 0.99636 0.98552 0.0
O368 O 0.09271 0.94132 0.97197 0.0
O369 O 0.11102 0.9473 0.02742 0.0
C370 C 0.10553 0.93687 0.99646 0.0
C371 C 0.11746 0.99646 0.11961 0.0
C372 C 0.11663 0.98894 0.94759 0.0
C373 C 0.06881 0.98749 0.03615 0.0
O374 O 0.08089 0.99775 0.04172 0.0
O375 O 0.07173 0.9723 0.02459 0.0
O376 O 0.11494 1.00905 0.0923 0.0
O377 O 0.11445 0.98157 0.10372 0.0
O378 O 0.79025 0.36021 0.72024 0.0
Cd379 Cd 0.8055 0.34592 0.76173 0.0
Cd380 Cd 0.77678 0.35485 0.82337 0.0
O381 O 0.76967 0.36877 0.7661 0.0
O382 O 0.82503 0.34317 0.71843 0.0
O383 O 0.82664 0.35772 0.78349 0.0
C384 C 0.83347 0.35319 0.74471 0.0
C385 C 0.77188 0.36538 0.8983 0.0
C386 C 0.77703 0.36872 0.72693 0.0
C387 C 0.78378 0.31785 0.8005 0.0
O388 O 0.77455 0.32915 0.81847 0.0
O389 O 0.79718 0.32173 0.77857 0.0
O390 O 0.75973 0.3609 0.8715 0.0
O391 O 0.78697 0.36446 0.88201 0.0
O392 O 0.41156 0.97608 0.14746 0.0
Cd393 Cd 0.42303 0.96265 0.09576 0.0
Cd394 Cd 0.41102 0.99119 0.0487 0.0
O395 O 0.39638 0.99422 0.1077 0.0
O396 O 0.42671 0.94101 0.12974 0.0
O397 O 0.40903 0.94341 0.07104 0.0
C398 C 0.41485 0.93453 0.10504 0.0
C399 C 0.40055 0.9954 0.97338 0.0
C400 C 0.40021 0.98724 0.14601 0.0
C401 C 0.4487 0.98695 0.06185 0.0
O402 O 0.43628 0.99667 0.05497 0.0
O403 O 0.44628 0.97163 0.07306 0.0
O404 O 0.40268 1.00775 1.00177 0.0
O405 O 0.40351 0.98042 0.98862 0.0
O406 O 0.79208 0.65849 0.9006 0.0
Cd407 Cd 0.80581 0.67234 0.85365 0.0
Cd408 Cd 0.77656 0.66164 0.80127 0.0
O409 O 0.77173 0.64706 0.85885 0.0
O410 O 0.82676 0.6757 0.89104 0.0
O411 O 0.82597 0.66007 0.82774 0.0
C412 C 0.83413 0.66513 0.86401 0.0
C413 C 0.77126 0.65159 0.72612 0.0
C414 C 0.77962 0.64861 0.89698 0.0
C415 C 0.78209 0.69905 0.82026 0.0
O416 O 0.77254 0.68701 0.80832 0.0
O417 O 0.79689 0.69618 0.83533 0.0
O418 O 0.75925 0.65531 0.75425 0.0
O419 O 0.78647 0.65279 0.74144 0.0
O420 O 0.10944 0.04101 0.63693 0.0
Cd421 Cd 0.09522 0.0559 0.59424 0.0
Cd422 Cd 0.10473 0.02724 0.53401 0.0
O423 O 0.11863 0.02052 0.59168 0.0
O424 O 0.09222 0.07576 0.6362 0.0
O425 O 0.10706 0.07687 0.57154 0.0
C426 C 0.10236 0.084 0.60974 0.0
C427 C 0.11554 0.02257 0.45933 0.0
C428 C 0.11824 0.02794 0.63074 0.0
C429 C 0.06757 0.03373 0.55539 0.0
O430 O 0.07906 0.02454 0.53829 0.0
O431 O 0.07118 0.04731 0.57682 0.0
O432 O 0.11127 0.01032 0.48606 0.0
O433 O 0.11427 0.03764 0.4756 0.0
O434 O 0.72669 0.35473 0.41134 0.0
Cd435 Cd 0.71374 0.34435 0.35681 0.0
Cd436 Cd 0.74218 0.35577 0.31239 0.0
O437 O 0.74541 0.36962 0.37238 0.0
O438 O 0.69075 0.34204 0.38407 0.0
O439 O 0.69716 0.36058 0.32955 0.0
C440 C 0.68655 0.35505 0.36002 0.0
C441 C 0.74568 0.36708 0.23813 0.0
C442 C 0.73811 0.36586 0.41025 0.0
C443 C 0.73716 0.31834 0.32035 0.0
O444 O 0.7474 0.33049 0.31576 0.0
O445 O 0.72189 0.32115 0.33134 0.0
O446 O 0.7583 0.36476 0.26545 0.0
O447 O 0.73084 0.36387 0.25404 0.0
H448 H 0.97879 0.5432 0.99562 0.0
H449 H 0.96207 0.50689 0.0972 0.0
H450 H 1.00718 0.53178 1.0004 0.0
H451 H 0.99041 0.49592 0.10334 0.0
H452 H 0.03924 0.46863 0.0718 0.0
H453 H 0.01081 0.47978 0.06415 0.0
H454 H 0.03111 0.52983 0.048 0.0
H455 H 0.05933 0.51865 0.05379 0.0
C456 C 0.98121 0.53294 0.01942 0.0
C457 C 0.96812 0.52597 0.04591 0.0
C458 C 0.99752 0.52638 0.0223 0.0
C459 C 1.00118 0.5128 0.05213 0.0
C460 C 0.98809 0.50609 0.07921 0.0
C461 C 0.97181 0.51252 0.07598 0.0
C462 C 0.03761 0.482 0.06646 0.0
C463 C 0.05161 0.49269 0.06332 0.0
C464 C 0.02129 0.48844 0.06234 0.0
C465 C 0.01856 0.50578 0.05545 0.0
C466 C 0.03262 0.51641 0.05239 0.0
C467 C 0.04887 0.50996 0.05605 0.0
H468 H 0.79545 0.78904 0.35074 0.0
H469 H 0.75905 0.8061 0.25009 0.0
H470 H 0.78347 0.76089 0.34713 0.0
H471 H 0.74755 0.77786 0.24469 0.0
H472 H 0.71958 0.72923 0.27834 0.0
H473 H 0.73122 0.75763 0.28318 0.0
H474 H 0.78086 0.73681 0.30218 0.0
H475 H 0.76919 0.70876 0.29956 0.0
C476 C 0.78508 0.78671 0.32721 0.0
C477 C 0.77823 0.79984 0.30075 0.0
C478 C 0.77819 0.77052 0.32498 0.0
C479 C 0.76443 0.76696 0.29566 0.0
C480 C 0.75786 0.78008 0.26845 0.0
C481 C 0.76459 0.7963 0.27119 0.0
C482 C 0.73296 0.73078 0.28372 0.0
C483 C 0.74339 0.71669 0.28888 0.0
C484 C 0.73969 0.74707 0.2862 0.0
C485 C 0.75706 0.74965 0.29325 0.0
C486 C 0.76742 0.73548 0.29783 0.0
C487 C 0.76069 0.71929 0.29601 0.0
H488 H 0.47949 0.54763 0.59822 0.0
H489 H 0.46211 0.50753 0.50914 0.0
H490 H 0.5078 0.53592 0.59605 0.0
H491 H 0.49036 0.49617 0.50572 0.0
H492 H 0.53867 0.46974 0.5449 0.0
H493 H 0.51052 0.4816 0.5511 0.0
H494 H 0.53157 0.53165 0.54772 0.0
H495 H 0.5596 0.51984 0.54319 0.0
C496 C 0.48174 0.53646 0.57767 0.0
C497 C 0.46849 0.52852 0.55398 0.0
C498 C 0.498 0.52973 0.57634 0.0
C499 C 0.50142 0.51497 0.551 0.0
C500 C 0.4882 0.5073 0.5265 0.0
C501 C 0.47197 0.51393 0.52812 0.0
C502 C 0.53728 0.48327 0.5458 0.0
C503 C 0.55144 0.49379 0.54349 0.0
C504 C 0.52112 0.4901 0.54901 0.0
C505 C 0.51868 0.50764 0.54964 0.0
C506 C 0.53289 0.51812 0.54797 0.0
C507 C 0.54902 0.5113 0.54508 0.0
H508 H 0.72033 0.22904 0.82509 0.0
H509 H 0.76924 0.20898 0.79169 0.0
H510 H 0.73184 0.25746 0.82153 0.0
H511 H 0.78082 0.23714 0.78994 0.0
H512 H 0.79365 0.29091 0.74738 0.0
H513 H 0.78202 0.26252 0.74819 0.0
H514 H 0.74944 0.27629 0.86214 0.0
H515 H 0.76059 0.30469 0.86006 0.0
C516 C 0.73352 0.23067 0.81715 0.0
C517 C 0.7438 0.21667 0.80863 0.0
C518 C 0.74019 0.24698 0.81542 0.0
C519 C 0.75734 0.2497 0.80557 0.0
C520 C 0.76754 0.23566 0.79686 0.0
C521 C 0.76086 0.21942 0.79817 0.0
C522 C 0.78411 0.28781 0.77282 0.0
C523 C 0.77805 0.30011 0.80355 0.0
C524 C 0.77742 0.2715 0.77338 0.0
C525 C 0.76464 0.26703 0.80504 0.0
C526 C 0.75894 0.27928 0.83651 0.0
C527 C 0.76549 0.29558 0.83562 0.0
H528 H 0.03993 0.54371 0.49607 0.0
H529 H 0.05553 0.50843 0.6016 0.0
H530 H 0.0115 0.53225 0.49935 0.0
H531 H 0.02712 0.49744 0.60621 0.0
H532 H 0.97879 0.46954 0.57225 0.0
H533 H 1.00726 0.48081 0.56624 0.0
H534 H 0.987 0.53055 0.54484 0.0
H535 H 0.95877 0.51923 0.54899 0.0
C536 C 0.03724 0.53368 0.52044 0.0
C537 C 0.05004 0.52699 0.54845 0.0
C538 C 0.02091 0.5271 0.52245 0.0
C539 C 0.01693 0.51378 0.55289 0.0
C540 C 0.02971 0.50739 0.58157 0.0
C541 C 0.04602 0.51383 0.57921 0.0
C542 C 0.98044 0.48286 0.56607 0.0
C543 C 0.96645 0.49342 0.56103 0.0
C544 C 0.99678 0.48938 0.56292 0.0
C545 C 0.99954 0.50667 0.5551 0.0
C546 C 0.98549 0.51717 0.55003 0.0
C547 C 0.96922 0.51064 0.55274 0.0
H548 H 0.79931 0.72917 0.82158 0.0
H549 H 0.74933 0.70825 0.81336 0.0
H550 H 0.78752 0.75743 0.81531 0.0
H551 H 0.73755 0.73621 0.80933 0.0
H552 H 0.72172 0.78735 0.75563 0.0
H553 H 0.73386 0.75935 0.76107 0.0
H554 H 0.77212 0.77834 0.854 0.0
H555 H 0.76041 0.8064 0.84674 0.0
C556 C 0.78582 0.7306 0.81882 0.0
C557 C 0.77531 0.71642 0.81762 0.0
C558 C 0.77901 0.74681 0.8155 0.0
C559 C 0.7615 0.74923 0.81156 0.0
C560 C 0.75107 0.73498 0.81114 0.0
C561 C 0.75786 0.71885 0.81379 0.0
C562 C 0.73266 0.78551 0.77744 0.0
C563 C 0.74007 0.79913 0.8007 0.0
C564 C 0.73963 0.7694 0.78074 0.0
C565 C 0.75407 0.76645 0.80797 0.0
C566 C 0.76125 0.78008 0.83192 0.0
C567 C 0.75441 0.7962 0.82811 0.0
H568 H 0.54132 0.54449 0.09659 0.0
H569 H 0.55707 0.50664 0.99837 0.0
H570 H 0.51309 0.53253 0.09684 0.0
H571 H 0.52882 0.49509 0.99719 0.0
H572 H 0.48114 0.46748 0.03816 0.0
H573 H 0.50943 0.47932 0.04142 0.0
H574 H 0.48842 0.52917 0.05291 0.0
H575 H 0.46036 0.51733 0.05154 0.0
C576 C 0.5387 0.53379 0.0745 0.0
C577 C 0.55149 0.52654 0.04754 0.0
C578 C 0.52248 0.5269 0.07455 0.0
C579 C 0.51859 0.5127 0.04725 0.0
C580 C 0.53135 0.50574 0.01951 0.0
C581 C 0.54757 0.5125 0.01983 0.0
C582 C 0.48259 0.48094 0.0417 0.0
C583 C 0.46843 0.4914 0.04464 0.0
C584 C 0.49882 0.48778 0.04321 0.0
C585 C 0.50132 0.50527 0.04725 0.0
C586 C 0.48711 0.51566 0.05055 0.0
C587 C 0.47094 0.50883 0.04947 0.0
H588 H 0.71908 0.28885 0.31608 0.0
H589 H 0.7697 0.30834 0.31007 0.0
H590 H 0.72995 0.26041 0.30599 0.0
H591 H 0.78056 0.28006 0.30178 0.0
H592 H 0.7943 0.22844 0.24488 0.0
H593 H 0.78315 0.25691 0.25101 0.0
H594 H 0.74489 0.23916 0.34571 0.0
H595 H 0.75564 0.21079 0.33827 0.0
C596 C 0.73251 0.28708 0.31281 0.0
C597 C 0.74347 0.30092 0.31386 0.0
C598 C 0.73879 0.27075 0.3073 0.0
C599 C 0.75619 0.26784 0.30311 0.0
C600 C 0.76709 0.28174 0.30404 0.0
C601 C 0.76083 0.29802 0.30915 0.0
C602 C 0.78356 0.23066 0.26711 0.0
C603 C 0.77588 0.21729 0.29096 0.0
C604 C 0.77716 0.24701 0.27077 0.0
C605 C 0.76301 0.25042 0.29872 0.0
C606 C 0.75554 0.23704 0.32306 0.0
C607 C 0.76183 0.22073 0.31908 0.0
H608 H 0.25668 0.30751 0.7582 0.0
H609 H 0.29175 0.29109 0.86324 0.0
H610 H 0.24538 0.27923 0.75263 0.0
H611 H 0.27998 0.26282 0.85915 0.0
H612 H 0.26703 0.21048 0.80812 0.0
H613 H 0.27831 0.23867 0.81314 0.0
H614 H 0.22867 0.259 0.79057 0.0
H615 H 0.21743 0.23051 0.78354 0.0
C616 C 0.26195 0.29785 0.78031 0.0
C617 C 0.27518 0.30159 0.81113 0.0
C618 C 0.25534 0.28161 0.77742 0.0
C619 C 0.26161 0.26863 0.80562 0.0
C620 C 0.27493 0.27237 0.83631 0.0
C621 C 0.2817 0.28861 0.83881 0.0
C622 C 0.25844 0.22093 0.80431 0.0
C623 C 0.24127 0.21817 0.79545 0.0
C624 C 0.26495 0.23719 0.80753 0.0
C625 C 0.25447 0.25126 0.80252 0.0
C626 C 0.23723 0.24852 0.79396 0.0
C627 C 0.23072 0.23217 0.79021 0.0
H628 H 0.24894 0.81103 0.31595 0.0
H629 H 0.29769 0.79057 0.28276 0.0
H630 H 0.23718 0.78298 0.31859 0.0
H631 H 0.28601 0.76221 0.28738 0.0
H632 H 0.2571 0.71469 0.2527 0.0
H633 H 0.26842 0.743 0.24875 0.0
H634 H 0.23567 0.758 0.36117 0.0
H635 H 0.22385 0.72971 0.36368 0.0
C636 C 0.25724 0.80051 0.30974 0.0
C637 C 0.27432 0.80312 0.29914 0.0
C638 C 0.25047 0.78433 0.31156 0.0
C639 C 0.26057 0.77018 0.30334 0.0
C640 C 0.27772 0.77276 0.29316 0.0
C641 C 0.28449 0.78904 0.29082 0.0
C642 C 0.2522 0.72406 0.27638 0.0
C643 C 0.23952 0.71991 0.3085 0.0
C644 C 0.25885 0.74031 0.27443 0.0
C645 C 0.25316 0.75289 0.30492 0.0
C646 C 0.24027 0.74877 0.33665 0.0
C647 C 0.23347 0.73252 0.33821 0.0
H648 H 0.30068 0.22979 0.32262 0.0
H649 H 0.25079 0.20992 0.30087 0.0
H650 H 0.28966 0.25831 0.31472 0.0
H651 H 0.23972 0.23812 0.29509 0.0
H652 H 0.22628 0.29014 0.24297 0.0
H653 H 0.23793 0.26189 0.24804 0.0
H654 H 0.27341 0.27902 0.35158 0.0
H655 H 0.26224 0.30729 0.34489 0.0
C656 C 0.28737 0.23149 0.31644 0.0
C657 C 0.27668 0.21753 0.31214 0.0
C658 C 0.28099 0.24786 0.31218 0.0
C659 C 0.26373 0.25065 0.30409 0.0
C660 C 0.2531 0.23661 0.30021 0.0
C661 C 0.25949 0.22034 0.30388 0.0
C662 C 0.23651 0.28783 0.26694 0.0
C663 C 0.2433 0.301 0.29346 0.0
C664 C 0.24321 0.27159 0.27003 0.0
C665 C 0.25672 0.26804 0.30022 0.0
C666 C 0.26329 0.28123 0.32721 0.0
C667 C 0.25675 0.29747 0.32368 0.0
H668 H 0.29567 0.73026 0.74298 0.0
H669 H 0.25921 0.71339 0.84397 0.0
H670 H 0.28422 0.75865 0.74793 0.0
H671 H 0.24819 0.7417 0.85014 0.0
H672 H 0.22072 0.79029 0.81822 0.0
H673 H 0.23204 0.76196 0.80987 0.0
H674 H 0.28205 0.78255 0.79631 0.0
H675 H 0.27072 0.8107 0.8029 0.0
C676 C 0.28538 0.73265 0.76669 0.0
C677 C 0.27836 0.71952 0.79294 0.0
C678 C 0.2788 0.74895 0.76963 0.0
C679 C 0.26514 0.75254 0.79923 0.0
C680 C 0.25841 0.73942 0.82616 0.0
C681 C 0.26487 0.72316 0.82291 0.0
C682 C 0.23411 0.78875 0.81325 0.0
C683 C 0.24477 0.80281 0.81123 0.0
C684 C 0.24065 0.77248 0.80875 0.0
C685 C 0.25803 0.76987 0.80252 0.0
C686 C 0.26861 0.78398 0.80028 0.0
C687 C 0.26208 0.80019 0.80439 0.0
H688 H 0.45737 0.99783 0.55102 0.0
H689 H 0.47852 0.04778 0.54499 0.0
H690 H 0.48536 0.98592 0.55402 0.0
H691 H 0.50669 0.03586 0.54994 0.0
H692 H 0.55502 0.00917 0.51142 0.0
H693 H 0.52682 0.02066 0.50712 0.0
H694 H 0.50922 0.98198 0.60076 0.0
H695 H 0.53742 0.97008 0.60353 0.0
C696 C 0.46801 1.00633 0.55086 0.0
C697 C 0.46564 0.02381 0.54772 0.0
C698 C 0.48413 0.99945 0.55289 0.0
C699 C 0.49841 0.00985 0.55229 0.0
C700 C 0.49605 0.02738 0.54967 0.0
C701 C 0.47987 0.03427 0.54716 0.0
C702 C 0.54511 1.00302 0.53088 0.0
C703 C 0.54851 0.98867 0.55781 0.0
C704 C 0.52892 0.00974 0.52876 0.0
C705 C 0.51565 1.00241 0.55391 0.0
C706 C 0.51902 0.98789 0.5804 0.0
C707 C 0.53522 0.98105 0.58211 0.0
H708 H 0.96147 1.00599 0.0117 0.0
H709 H 0.97814 0.04389 0.10883 0.0
H710 H 0.98993 0.99537 1.00561 0.0
H711 H 1.00668 0.03284 0.10404 0.0
H712 H 0.05868 0.01992 0.04802 0.0
H713 H 0.03032 0.03069 0.05491 0.0
H714 H 0.01079 0.98011 0.04605 0.0
H715 H 0.03933 0.96934 0.03736 0.0
C716 C 0.97121 0.01204 0.03198 0.0
C717 C 0.96748 0.02583 0.06077 0.0
C718 C 0.98757 1.00582 0.02878 0.0
C719 C 1.00069 0.0131 0.05459 0.0
C720 C 0.99698 0.027 0.08317 0.0
C721 C 0.98059 0.03334 0.08605 0.0
C722 C 0.04837 0.01103 0.04763 0.0
C723 C 0.05134 0.99372 0.04201 0.0
C724 C 0.03204 0.01724 0.05193 0.0
C725 C 0.01815 1.00633 0.05111 0.0
C726 C 0.02112 0.98896 0.04607 0.0
C727 C 0.03751 0.98274 0.04138 0.0
H728 H 0.53784 0.04799 1.00298 0.0
H729 H 0.55519 0.00935 0.09668 0.0
H730 H 0.50966 0.03595 1.0053 0.0
H731 H 0.527 0.99772 0.10054 0.0
H732 H 0.47892 0.97014 0.06238 0.0
H733 H 0.50707 0.98223 0.05778 0.0
H734 H 0.4856 0.032 0.05116 0.0
H735 H 0.45764 0.01992 0.05381 0.0
C736 C 0.53559 0.0371 0.02467 0.0
C737 C 0.5488 0.02964 0.04953 0.0
C738 C 0.51939 0.03017 0.02611 0.0
C739 C 0.51595 0.01572 0.05289 0.0
C740 C 0.52915 1.00857 0.07864 0.0
C741 C 0.54534 0.01537 0.07679 0.0
C742 C 0.48023 0.98365 0.05971 0.0
C743 C 0.46597 0.99401 0.05836 0.0
C744 C 0.4964 0.99063 0.05741 0.0
C745 C 0.49873 1.00817 0.05421 0.0
C746 C 0.48441 0.01846 0.05277 0.0
C747 C 0.4683 0.01149 0.05459 0.0
H748 H 0.04013 0.04387 0.60615 0.0
H749 H 0.05505 0.00986 0.4968 0.0
H750 H 0.0118 0.03211 0.60417 0.0
H751 H 0.02673 0.99857 0.49353 0.0
H752 H 0.97916 0.9697 0.52905 0.0
H753 H 1.00752 0.98129 0.53387 0.0
H754 H 0.98686 0.03052 0.56054 0.0
H755 H 0.95874 0.01887 0.55755 0.0
C756 C 0.0373 0.03408 0.58121 0.0
C757 C 0.04989 0.02782 0.55174 0.0
C758 C 0.02103 0.02732 0.57997 0.0
C759 C 0.0169 0.01424 0.54887 0.0
C760 C 0.02945 1.00831 0.51871 0.0
C761 C 0.04571 0.01493 0.52028 0.0
C762 C 0.9807 0.98297 0.53615 0.0
C763 C 0.96662 0.9933 0.54296 0.0
C764 C 0.99698 0.98968 0.53861 0.0
C765 C 0.99959 1.00691 0.5475 0.0
C766 C 0.98546 0.01717 0.55444 0.0
C767 C 0.96925 0.01046 0.55241 0.0
H768 H 0.11321 0.47392 0.90519 0.0
H769 H 0.13067 0.5237 0.93995 0.0
H770 H 0.11578 0.48047 0.82294 0.0
H771 H 0.13417 0.53006 0.85768 0.0
H772 H 0.11425 0.54327 0.71187 0.0
H773 H 0.11753 0.53655 0.79388 0.0
H774 H 0.13191 0.48586 0.75745 0.0
H775 H 0.12768 0.49245 0.67561 0.0
C776 C 0.11806 0.48612 0.89522 0.0
C777 C 0.12161 0.49832 0.92903 0.0
C778 C 0.11962 0.4899 0.84789 0.0
C779 C 0.12504 0.50591 0.83319 0.0
C780 C 0.12954 0.51776 0.86736 0.0
C781 C 0.12769 0.51406 0.91465 0.0
C782 C 0.11836 0.53077 0.72142 0.0
C783 C 0.12057 0.51836 0.68734 0.0
C784 C 0.12033 0.52689 0.76858 0.0
C785 C 0.12484 0.51055 0.78277 0.0
C786 C 0.128 0.49844 0.74821 0.0
C787 C 0.12573 0.50225 0.70116 0.0
H788 H 0.77583 0.86399 0.92156 0.0
H789 H 0.72426 0.8783 0.9452 0.0
H790 H 0.78177 0.8672 1.0037 0.0
H791 H 0.73038 0.8824 0.02759 0.0
H792 H 0.74102 0.86276 0.17516 0.0
H793 H 0.73497 0.86591 0.09307 0.0
H794 H 0.78565 0.88362 0.0697 0.0
H795 H 0.79191 0.87958 0.15204 0.0
C796 C 0.76582 0.86825 0.94417 0.0
C797 C 0.74951 0.87074 0.92679 0.0
C798 C 0.76927 0.87021 0.99152 0.0
C799 C 0.75656 0.87495 0.02287 0.0
C800 C 0.74043 0.87836 1.00491 0.0
C801 C 0.73693 0.87616 0.95752 0.0
C802 C 0.75084 0.86754 0.15267 0.0
C803 C 0.76701 0.87077 0.17018 0.0
C804 C 0.74732 0.86948 0.10535 0.0
C805 C 0.75982 0.87492 0.07417 0.0
C806 C 0.77577 0.87903 0.09225 0.0
C807 C 0.77935 0.87686 0.13961 0.0
H808 H 0.4045 0.52573 0.17036 0.0
H809 H 0.39119 0.47389 0.1948 0.0
H810 H 0.40164 0.53165 0.25263 0.0
H811 H 0.38741 0.47997 0.27732 0.0
H812 H 0.40682 0.49109 0.42466 0.0
H813 H 0.40386 0.48496 0.34255 0.0
H814 H 0.38539 0.5353 0.31892 0.0
H815 H 0.38925 0.54166 0.40126 0.0
C816 C 0.40055 0.51565 0.1932 0.0
C817 C 0.39821 0.49929 0.17598 0.0
C818 C 0.39879 0.51909 0.24063 0.0
C819 C 0.3944 0.5063 0.27222 0.0
C820 C 0.39119 0.4901 0.25446 0.0
C821 C 0.39321 0.48661 0.207 0.0
C822 C 0.40192 0.50081 0.4021 0.0
C823 C 0.3984 0.51692 0.41955 0.0
C824 C 0.4001 0.49725 0.35476 0.0
C825 C 0.39447 0.50963 0.3235 0.0
C826 C 0.39013 0.52552 0.34151 0.0
C827 C 0.39219 0.52915 0.38888 0.0
H828 H 0.72452 0.15477 0.6441 0.0
H829 H 0.77461 0.13838 0.67883 0.0
H830 H 0.73092 0.15174 0.56184 0.0
H831 H 0.78083 0.13444 0.59666 0.0
H832 H 0.79338 0.15368 0.44969 0.0
H833 H 0.7869 0.15083 0.53194 0.0
H834 H 0.73641 0.13511 0.49718 0.0
H835 H 0.74275 0.13889 0.415 0.0
C836 C 0.73677 0.15007 0.63414 0.0
C837 C 0.7491 0.14695 0.66791 0.0
C838 C 0.74046 0.14825 0.58683 0.0
C839 C 0.7565 0.14298 0.57215 0.0
C840 C 0.76849 0.13893 0.60632 0.0
C841 C 0.76488 0.14104 0.65356 0.0
C842 C 0.78099 0.14935 0.45965 0.0
C843 C 0.76855 0.14665 0.42591 0.0
C844 C 0.77725 0.14763 0.50696 0.0
C845 C 0.76102 0.14289 0.52166 0.0
C846 C 0.7489 0.13921 0.4875 0.0
C847 C 0.75257 0.14122 0.44026 0.0
H848 H 0.88985 0.49243 0.17145 0.0
H849 H 0.904 0.54318 0.20691 0.0
H850 H 0.88565 0.48602 0.25342 0.0
H851 H 0.90073 0.53664 0.28902 0.0
H852 H 0.88766 0.52414 0.43535 0.0
H853 H 0.88404 0.53037 0.35305 0.0
H854 H 0.90196 0.48064 0.3187 0.0
H855 H 0.90467 0.47422 0.40101 0.0
C856 C 0.89195 0.50226 0.19684 0.0
C857 C 0.89732 0.51829 0.18277 0.0
C858 C 0.8897 0.49855 0.24396 0.0
C859 C 0.89307 0.51069 0.27832 0.0
C860 C 0.89777 0.52696 0.26388 0.0
C861 C 0.89973 0.53075 0.21665 0.0
C862 C 0.89051 0.51445 0.41014 0.0
C863 C 0.89651 0.49871 0.42464 0.0
C864 C 0.88859 0.51807 0.36284 0.0
C865 C 0.89292 0.50614 0.32878 0.0
C866 C 0.89826 0.49013 0.34359 0.0
C867 C 0.8999 0.48642 0.39095 0.0
H868 H 0.22518 0.13987 0.94863 0.0
H869 H 0.27658 0.1554 0.9271 0.0
H870 H 0.23099 0.13572 0.03117 0.0
H871 H 0.2822 0.15211 0.00938 0.0
H872 H 0.24075 0.15561 0.17902 0.0
H873 H 0.23509 0.15249 0.09672 0.0
H874 H 0.28597 0.13526 0.07495 0.0
H875 H 0.29184 0.13925 0.15754 0.0
C876 C 0.23774 0.14228 0.96146 0.0
C877 C 0.25037 0.14806 0.93134 0.0
C878 C 0.24107 0.14004 0.00889 0.0
C879 C 0.25705 0.14375 0.02741 0.0
C880 C 0.26982 0.14886 0.99668 0.0
C881 C 0.26655 0.15088 0.94929 0.0
C882 C 0.2507 0.15095 0.15683 0.0
C883 C 0.2668 0.14784 0.17482 0.0
C884 C 0.2474 0.14903 0.10943 0.0
C885 C 0.26007 0.14372 0.07871 0.0
C886 C 0.27597 0.13973 0.09723 0.0
C887 C 0.27933 0.14188 0.14469 0.0
H888 H 0.62768 0.49147 0.91897 0.0
H889 H 0.61571 0.54258 0.8819 0.0
H890 H 0.63153 0.48455 0.8372 0.0
H891 H 0.61869 0.53557 0.79995 0.0
H892 H 0.63196 0.52192 0.65403 0.0
H893 H 0.63534 0.52841 0.7363 0.0
H894 H 0.61518 0.47958 0.77159 0.0
H895 H 0.61263 0.47289 0.68943 0.0
C896 C 0.62597 0.50127 0.89329 0.0
C897 C 0.62133 0.51756 0.90692 0.0
C898 C 0.62802 0.49727 0.84625 0.0
C899 C 0.62522 0.50939 0.81147 0.0
C900 C 0.6212 0.52589 0.82542 0.0
C901 C 0.61941 0.52994 0.87256 0.0
C902 C 0.62857 0.51246 0.67943 0.0
C903 C 0.62199 0.4969 0.66516 0.0
C904 C 0.63034 0.51624 0.72673 0.0
C905 C 0.62534 0.50465 0.76106 0.0
C906 C 0.61941 0.4888 0.74653 0.0
C907 C 0.61787 0.48494 0.69922 0.0
H908 H 0.27449 0.88267 0.69384 0.0
H909 H 0.22469 0.86512 0.65955 0.0
H910 H 0.28069 0.88632 0.61151 0.0
H911 H 0.23107 0.86792 0.57724 0.0
H912 H 0.24283 0.8804 0.4301 0.0
H913 H 0.23643 0.88452 0.51209 0.0
H914 H 0.28694 0.8693 0.54771 0.0
H915 H 0.29348 0.86604 0.46555 0.0
C916 C 0.26481 0.87973 0.66865 0.0
C917 C 0.24913 0.87354 0.68316 0.0
C918 C 0.26841 0.88167 0.62136 0.0
C919 C 0.25651 0.8772 0.58734 0.0
C920 C 0.24053 0.87172 0.60215 0.0
C921 C 0.23685 0.87004 0.64949 0.0
C922 C 0.25264 0.87822 0.45549 0.0
C923 C 0.26864 0.87281 0.44141 0.0
C924 C 0.24894 0.88045 0.5026 0.0
C925 C 0.26106 0.87703 0.53693 0.0
C926 C 0.2773 0.87229 0.52252 0.0
C927 C 0.28107 0.87033 0.4753 0.0
H928 H 0.61154 0.99213 0.17634 0.0
H929 H 0.62736 0.04323 0.20122 0.0
H930 H 0.6144 0.9859 0.25846 0.0
H931 H 0.63107 0.03681 0.28358 0.0
H932 H 0.61155 0.02613 0.43131 0.0
H933 H 0.61451 0.03236 0.34921 0.0
H934 H 0.63088 0.9814 0.32419 0.0
H935 H 0.62706 0.97498 0.40652 0.0
C936 C 0.61602 1.00197 0.19923 0.0
C937 C 0.61909 0.01824 0.18216 0.0
C938 C 0.61779 0.99835 0.24657 0.0
C939 C 0.62287 0.01084 0.27824 0.0
C940 C 0.62676 0.02692 0.26064 0.0
C941 C 0.62478 0.0306 0.21326 0.0
C942 C 0.61599 0.01628 0.40844 0.0
C943 C 0.61893 1.00001 0.42553 0.0
C944 C 0.61781 0.0199 0.36112 0.0
C945 C 0.62284 1.00739 0.32948 0.0
C946 C 0.62662 0.9913 0.3471 0.0
C947 C 0.62458 0.98762 0.39446 0.0
H948 H 0.27513 0.38 0.41908 0.0
H949 H 0.22479 0.36414 0.45339 0.0
H950 H 0.28129 0.38398 0.50129 0.0
H951 H 0.23111 0.36718 0.53568 0.0
H952 H 0.24291 0.37977 0.68265 0.0
H953 H 0.23671 0.38364 0.60043 0.0
H954 H 0.2871 0.36763 0.56612 0.0
H955 H 0.29345 0.36471 0.64844 0.0
C956 C 0.26533 0.37747 0.44427 0.0
C957 C 0.2495 0.37169 0.42979 0.0
C958 C 0.2689 0.3796 0.49153 0.0
C959 C 0.25682 0.37568 0.52561 0.0
C960 C 0.24073 0.37057 0.51078 0.0
C961 C 0.23708 0.36874 0.46344 0.0
C962 C 0.25274 0.37739 0.65748 0.0
C963 C 0.26865 0.37187 0.67199 0.0
C964 C 0.24915 0.37945 0.61021 0.0
C965 C 0.26128 0.37572 0.57615 0.0
C966 C 0.27744 0.37087 0.59101 0.0
C967 C 0.28111 0.36911 0.63836 0.0
H968 H 0.90361 0.04257 0.89959 0.0
H969 H 0.88967 0.99173 0.93475 0.0
H970 H 0.90061 0.03601 0.81742 0.0
H971 H 0.88574 0.98531 0.85268 0.0
H972 H 0.90505 0.97364 0.7053 0.0
H973 H 0.90219 0.98003 0.78761 0.0
H974 H 0.88411 0.02969 0.75311 0.0
H975 H 0.88788 0.0235 0.67085 0.0
C976 C 0.89944 0.03011 0.88976 0.0
C977 C 0.89701 0.01764 0.9236 0.0
C978 C 0.89763 0.02632 0.84249 0.0
C979 C 0.89308 0.01002 0.82795 0.0
C980 C 0.88969 0.99786 0.86222 0.0
C981 C 0.89178 1.00158 0.9094 0.0
C982 C 0.90022 0.98583 0.71534 0.0
C983 C 0.89683 0.99811 0.68162 0.0
C984 C 0.89849 0.98951 0.76269 0.0
C985 C 0.89306 1.00549 0.77746 0.0
C986 C 0.88874 0.01741 0.74336 0.0
C987 C 0.89075 0.01382 0.69609 0.0
H988 H 0.29245 0.64069 0.94506 0.0
H989 H 0.24114 0.65636 0.92347 0.0
H990 H 0.28663 0.63669 0.02768 0.0
H991 H 0.23552 0.65317 1.00579 0.0
H992 H 0.22591 0.64066 0.15423 0.0
H993 H 0.23176 0.63634 0.07175 0.0
H994 H 0.28262 0.65387 0.09279 0.0
H995 H 0.27698 0.65738 0.175 0.0
C996 C 0.2799 0.64314 0.95787 0.0
C997 C 0.26731 0.64895 0.92771 0.0
C998 C 0.27657 0.64098 1.00534 0.0
C999 C 0.26063 0.64478 0.02385 0.0
C1000 C 0.24788 0.64987 0.99308 0.0
C1001 C 0.25115 0.65183 0.94567 0.0
C1002 C 0.23841 0.64329 0.14127 0.0
C1003 C 0.25093 0.64947 0.17116 0.0
C1004 C 0.24176 0.64094 0.09388 0.0
C1005 C 0.25764 0.64492 0.07517 0.0
C1006 C 0.27032 0.65042 0.10568 0.0
C1007 C 0.26703 0.65257 0.15301 0.0
H1008 H 0.40401 0.97406 0.8995 0.0
H1009 H 0.38807 0.02421 0.93518 0.0
H1010 H 0.40133 0.9808 0.81731 0.0
H1011 H 0.38459 0.0308 0.85305 0.0
H1012 H 0.40382 0.04355 0.70612 0.0
H1013 H 0.40129 0.03678 0.78833 0.0
H1014 H 0.38452 0.98672 0.75278 0.0
H1015 H 0.38785 0.99334 0.67059 0.0
C1016 C 0.39952 0.98641 0.88979 0.0
C1017 C 0.39637 0.99862 0.9239 0.0
C1018 C 0.3979 0.99029 0.84251 0.0
C1019 C 0.39287 1.00645 0.82809 0.0
C1020 C 0.38888 0.01837 0.86251 0.0
C1021 C 0.39072 0.01454 0.90975 0.0
C1022 C 0.39935 0.03118 0.71587 0.0
C1023 C 0.39615 0.01896 0.6818 0.0
C1024 C 0.39782 0.02728 0.76317 0.0
C1025 C 0.39282 0.0111 0.77764 0.0
C1026 C 0.38878 0.99917 0.74326 0.0
C1027 C 0.39054 1.00301 0.69601 0.0
H1028 H 0.72662 0.63932 0.44965 0.0
H1029 H 0.77771 0.656 0.42916 0.0
H1030 H 0.73229 0.63535 0.53234 0.0
H1031 H 0.78317 0.65291 0.51158 0.0
H1032 H 0.79287 0.63968 0.65952 0.0
H1033 H 0.78724 0.63601 0.57671 0.0
H1034 H 0.73591 0.65184 0.59853 0.0
H1035 H 0.74136 0.65462 0.68106 0.0
C1036 C 0.73908 0.64205 0.46276 0.0
C1037 C 0.75167 0.64804 0.43285 0.0
C1038 C 0.74233 0.63991 0.51028 0.0
C1039 C 0.75818 0.64395 0.52911 0.0
C1040 C 0.77089 0.64939 0.49864 0.0
C1041 C 0.76772 0.65129 0.45117 0.0
C1042 C 0.78033 0.64209 0.64661 0.0
C1043 C 0.7676 0.64753 0.67685 0.0
C1044 C 0.7771 0.64012 0.59903 0.0
C1045 C 0.76113 0.6438 0.58046 0.0
C1046 C 0.74828 0.64863 0.61124 0.0
C1047 C 0.75145 0.65035 0.65878 0.0
H1048 H 0.11433 0.04426 0.38582 0.0
H1049 H 0.1273 0.99334 0.42241 0.0
H1050 H 0.11789 0.03753 0.30389 0.0
H1051 H 0.1318 0.98674 0.34071 0.0
H1052 H 0.11322 0.975 0.19268 0.0
H1053 H 0.11575 0.9815 0.27494 0.0
H1054 H 0.13475 0.03089 0.24052 0.0
H1055 H 0.13131 0.02459 0.15818 0.0
C1056 C 0.1184 0.03174 0.37637 0.0
C1057 C 0.12039 0.0193 0.41049 0.0
C1058 C 0.12053 0.02785 0.32927 0.0
C1059 C 0.12499 0.01149 0.31521 0.0
C1060 C 0.12794 0.99934 0.34984 0.0
C1061 C 0.12551 1.00316 0.39682 0.0
C1062 C 0.11822 0.98714 0.20271 0.0
C1063 C 0.12194 0.99932 0.16896 0.0
C1064 C 0.11975 0.99089 0.25005 0.0
C1065 C 0.12531 1.00684 0.26482 0.0
C1066 C 0.13001 0.01864 0.23074 0.0
C1067 C 0.1282 0.01498 0.18343 0.0
H1068 H 0.77358 0.38133 0.19943 0.0
H1069 H 0.7243 0.36242 0.16511 0.0
H1070 H 0.77984 0.38477 0.11706 0.0
H1071 H 0.73077 0.36493 0.08283 0.0
H1072 H 0.74243 0.37655 0.93522 0.0
H1073 H 0.73573 0.38096 0.0169 0.0
H1074 H 0.78676 0.36798 0.0538 0.0
H1075 H 0.79356 0.36453 0.97188 0.0
C1076 C 0.76402 0.37805 0.17421 0.0
C1077 C 0.74847 0.37155 0.18875 0.0
C1078 C 0.76767 0.37985 0.12688 0.0
C1079 C 0.75595 0.37491 0.09284 0.0
C1080 C 0.74009 0.36911 0.10767 0.0
C1081 C 0.73635 0.36759 0.15503 0.0
C1082 C 0.75227 0.37494 0.96083 0.0
C1083 C 0.7685 0.37012 0.94717 0.0
C1084 C 0.74841 0.37732 0.00779 0.0
C1085 C 0.76059 0.37461 0.04244 0.0
C1086 C 0.77704 0.37043 0.02841 0.0
C1087 C 0.78097 0.36836 0.98131 0.0
H1088 H 0.13584 0.54453 0.40123 0.0
H1089 H 0.11808 0.49513 0.4382 0.0
H1090 H 0.14328 0.53448 0.32393 0.0
H1091 H 0.12412 0.48525 0.36019 0.0
H1092 H 0.13216 0.4689 0.21815 0.0
H1093 H 0.13952 0.47787 0.29654 0.0
H1094 H 0.12792 0.52921 0.25858 0.0
H1095 H 0.12197 0.52021 0.17966 0.0
C1096 C 0.13384 0.5314 0.39287 0.0
C1097 C 0.12632 0.52058 0.42527 0.0
C1098 C 0.13789 0.52567 0.34839 0.0
C1099 C 0.13389 0.50915 0.33488 0.0
C1100 C 0.12759 0.49801 0.36889 0.0
C1101 C 0.12403 0.50365 0.41383 0.0
C1102 C 0.13177 0.48217 0.2265 0.0
C1103 C 0.1264 0.49389 0.19327 0.0
C1104 C 0.13579 0.48732 0.27154 0.0
C1105 C 0.13391 0.50424 0.28475 0.0
C1106 C 0.12973 0.5161 0.25014 0.0
C1107 C 0.12621 0.51097 0.2047 0.0
H1108 H 0.71949 0.86282 0.62325 0.0
H1109 H 0.76465 0.88263 0.68621 0.0
H1110 H 0.73007 0.86976 0.5471 0.0
H1111 H 0.7751 0.89035 0.6091 0.0
H1112 H 0.74997 0.88116 0.41017 0.0
H1113 H 0.73881 0.88797 0.48713 0.0
H1114 H 0.78607 0.87341 0.54917 0.0
H1115 H 0.79727 0.8674 0.47306 0.0
C1116 C 0.73158 0.86903 0.62092 0.0
C1117 C 0.74145 0.87173 0.66081 0.0
C1118 C 0.73757 0.87327 0.57699 0.0
C1119 C 0.75357 0.88044 0.57163 0.0
C1120 C 0.76285 0.88451 0.61188 0.0
C1121 C 0.75685 0.88016 0.6561 0.0
C1122 C 0.75807 0.87989 0.44022 0.0
C1123 C 0.77433 0.87332 0.43563 0.0
C1124 C 0.75167 0.8837 0.48436 0.0
C1125 C 0.7614 0.88091 0.52462 0.0
C1126 C 0.77817 0.87583 0.51927 0.0
C1127 C 0.78455 0.87213 0.47539 0.0
H1128 H 0.38719 0.49956 0.65881 0.0
H1129 H 0.39972 0.54707 0.72269 0.0
H1130 H 0.3804 0.48806 0.73542 0.0
H1131 H 0.39367 0.53555 0.79853 0.0
H1132 H 0.40571 0.46927 0.87215 0.0
H1133 H 0.39884 0.47979 0.7958 0.0
H1134 H 0.37651 0.52393 0.8576 0.0
H1135 H 0.38407 0.51356 0.93487 0.0
C1136 C 0.38817 0.50764 0.68899 0.0
C1137 C 0.3944 0.52407 0.6848 0.0
C1138 C 0.38437 0.50104 0.73294 0.0
C1139 C 0.38681 0.51076 0.77338 0.0
C1140 C 0.39154 0.52767 0.76843 0.0
C1141 C 0.39524 0.53423 0.72474 0.0
C1142 C 0.39911 0.48113 0.8697 0.0
C1143 C 0.39585 0.4908 0.9096 0.0
C1144 C 0.39494 0.48708 0.82567 0.0
C1145 C 0.38729 0.50284 0.82027 0.0
C1146 C 0.3827 0.51188 0.86046 0.0
C1147 C 0.38696 0.50592 0.90476 0.0
H1148 H 0.79632 0.13346 0.13947 0.0
H1149 H 0.74581 0.14791 0.17534 0.0
H1150 H 0.78702 0.12557 0.06177 0.0
H1151 H 0.73659 0.14141 0.09694 0.0
H1152 H 0.72117 0.13295 0.95478 0.0
H1153 H 0.73041 0.12561 0.03293 0.0
H1154 H 0.78101 0.14072 0.99653 0.0
H1155 H 0.77182 0.14665 0.9178 0.0
C1156 C 0.78313 0.13466 0.13074 0.0
C1157 C 0.77176 0.14138 0.16296 0.0
C1158 C 0.77781 0.13034 0.08607 0.0
C1159 C 0.76112 0.13325 0.07217 0.0
C1160 C 0.74951 0.13878 0.10596 0.0
C1161 C 0.75476 0.14261 0.15109 0.0
C1162 C 0.73437 0.13406 0.96335 0.0
C1163 C 0.7458 0.14045 0.93069 0.0
C1164 C 0.73967 0.13008 0.00828 0.0
C1165 C 0.75639 0.13301 0.02193 0.0
C1166 C 0.76806 0.13811 0.98774 0.0
C1167 C 0.76282 0.1416 0.94239 0.0
H1168 H 0.89634 0.52094 0.67526 0.0
H1169 H 0.88471 0.46981 0.71267 0.0
H1170 H 0.89042 0.52991 0.75419 0.0
H1171 H 0.87737 0.47878 0.79106 0.0
H1172 H 0.89938 0.49512 0.933 0.0
H1173 H 0.893 0.48559 0.85482 0.0
H1174 H 0.87521 0.53538 0.81964 0.0
H1175 H 0.88299 0.54503 0.8971 0.0
C1176 C 0.89177 0.51176 0.70005 0.0
C1177 C 0.89119 0.49471 0.68836 0.0
C1178 C 0.88827 0.51686 0.7455 0.0
C1179 C 0.88372 0.50502 0.77983 0.0
C1180 C 0.88141 0.48819 0.76629 0.0
C1181 C 0.8854 0.48304 0.72124 0.0
C1182 C 0.89367 0.50385 0.90881 0.0
C1183 C 0.89186 0.5208 0.92058 0.0
C1184 C 0.88991 0.49841 0.8638 0.0
C1185 C 0.88389 0.50979 0.83005 0.0
C1186 C 0.88037 0.52637 0.84391 0.0
C1187 C 0.88462 0.53189 0.88845 0.0
H1188 H 0.22006 0.13551 0.64436 0.0
H1189 H 0.2708 0.14861 0.68223 0.0
H1190 H 0.22944 0.12781 0.56662 0.0
H1191 H 0.28014 0.14231 0.60385 0.0
H1192 H 0.29589 0.13385 0.46187 0.0
H1193 H 0.28615 0.12661 0.53965 0.0
H1194 H 0.23613 0.14304 0.50203 0.0
H1195 H 0.24578 0.14887 0.42364 0.0
C1196 C 0.2333 0.13647 0.63604 0.0
C1197 C 0.24473 0.14276 0.66884 0.0
C1198 C 0.23868 0.13225 0.59136 0.0
C1199 C 0.25549 0.13484 0.57808 0.0
C1200 C 0.26712 0.13994 0.61238 0.0
C1201 C 0.26179 0.14366 0.65749 0.0
C1202 C 0.28269 0.1353 0.47011 0.0
C1203 C 0.27156 0.142 0.4372 0.0
C1204 C 0.27712 0.13136 0.51481 0.0
C1205 C 0.26043 0.13466 0.528 0.0
C1206 C 0.24904 0.14014 0.49357 0.0
C1207 C 0.25454 0.14358 0.44844 0.0
H1208 H 0.62494 0.54522 0.20862 0.0
H1209 H 0.62998 0.49618 0.14603 0.0
H1210 H 0.62994 0.53326 0.2847 0.0
H1211 H 0.63556 0.48413 0.22275 0.0
H1212 H 0.63721 0.50983 0.42131 0.0
H1213 H 0.64575 0.51891 0.34349 0.0
H1214 H 0.61529 0.47954 0.28323 0.0
H1215 H 0.60724 0.4703 0.36011 0.0
C1216 C 0.62764 0.53192 0.211 0.0
C1217 C 0.62662 0.52155 0.17153 0.0
C1218 C 0.6307 0.52506 0.25474 0.0
C1219 C 0.63282 0.50766 0.26004 0.0
C1220 C 0.63361 0.49755 0.21988 0.0
C1221 C 0.63054 0.50445 0.1759 0.0
C1222 C 0.63265 0.50294 0.39138 0.0
C1223 C 0.62126 0.4896 0.39684 0.0
C1224 C 0.63751 0.50814 0.34683 0.0
C1225 C 0.6311 0.50005 0.30702 0.0
C1226 C 0.62067 0.48597 0.31289 0.0
C1227 C 0.61583 0.48081 0.35718 0.0
H1228 H 0.27102 0.87275 0.93504 0.0
H1229 H 0.21926 0.88157 0.97121 0.0
H1230 H 0.27951 0.87978 0.0137 0.0
H1231 H 0.22766 0.89013 0.04916 0.0
H1232 H 0.24501 0.87079 0.19285 0.0
H1233 H 0.23518 0.87604 0.11445 0.0
H1234 H 0.28414 0.89582 0.07777 0.0
H1235 H 0.29418 0.88903 0.15558 0.0
C1236 C 0.26156 0.87688 0.95956 0.0
C1237 C 0.24453 0.8764 0.94766 0.0
C1238 C 0.26638 0.88107 1.00479 0.0
C1239 C 0.25425 0.88528 0.03865 0.0
C1240 C 0.23733 0.8864 0.02484 0.0
C1241 C 0.23249 0.88167 0.98006 0.0
C1242 C 0.25346 0.87673 0.16828 0.0
C1243 C 0.27034 0.87935 0.17974 0.0
C1244 C 0.24785 0.87983 0.1231 0.0
C1245 C 0.25896 0.88601 0.08886 0.0
C1246 C 0.27537 0.89046 0.10241 0.0
C1247 C 0.28109 0.88683 0.14716 0.0
H1248 H 0.63152 0.01598 0.66555 0.0
H1249 H 0.6148 0.9698 0.72961 0.0
H1250 H 0.63888 0.02702 0.74228 0.0
H1251 H 0.6213 0.98093 0.80543 0.0
H1252 H 0.61529 0.04837 0.87797 0.0
H1253 H 0.62166 0.03718 0.80216 0.0
H1254 H 0.63864 0.99093 0.86533 0.0
H1255 H 0.63141 1.00203 0.94206 0.0
C1256 C 0.62967 1.0081 0.69581 0.0
C1257 C 0.62217 0.9922 0.69154 0.0
C1258 C 0.63379 0.01443 0.73985 0.0
C1259 C 0.63038 1.00502 0.78036 0.0
C1260 C 0.62425 0.98857 0.77538 0.0
C1261 C 0.62027 0.98224 0.73161 0.0
C1262 C 0.6206 0.03588 0.87597 0.0
C1263 C 0.62237 0.0259 0.91605 0.0
C1264 C 0.62451 0.02951 0.83222 0.0
C1265 C 0.63043 0.013 0.82725 0.0
C1266 C 0.63372 1.00356 0.86776 0.0
C1267 C 0.62968 0.00994 0.91179 0.0
H1268 H 0.27223 0.37147 0.17868 0.0
H1269 H 0.2213 0.38489 0.1442 0.0
H1270 H 0.28102 0.37819 0.1 0.0
H1271 H 0.23013 0.3929 0.06617 0.0
H1272 H 0.24539 0.37122 0.92251 0.0
H1273 H 0.23627 0.37738 1.00122 0.0
H1274 H 0.28648 0.39429 0.03556 0.0
H1275 H 0.29568 0.38685 0.95745 0.0
C1276 C 0.26308 0.3766 0.1547 0.0
C1277 C 0.2461 0.37746 0.16703 0.0
C1278 C 0.26808 0.38055 0.10941 0.0
C1279 C 0.25622 0.38579 0.07593 0.0
C1280 C 0.23953 0.38838 0.09028 0.0
C1281 C 0.23448 0.38398 0.13513 0.0
C1282 C 0.25429 0.37675 0.94658 0.0
C1283 C 0.27122 0.37837 0.93438 0.0
C1284 C 0.2491 0.38036 0.99191 0.0
C1285 C 0.26072 0.38601 0.02555 0.0
C1286 C 0.27728 0.38942 0.01131 0.0
C1287 C 0.28254 0.38536 0.9664 0.0
H1288 H 0.89629 0.02068 0.43128 0.0
H1289 H 0.88403 0.96967 0.39413 0.0
H1290 H 0.89022 0.02972 0.35247 0.0
H1291 H 0.87657 0.97872 0.3159 0.0
H1292 H 0.89851 0.99482 0.17364 0.0
H1293 H 0.8922 0.98537 0.25194 0.0
H1294 H 0.8749 0.03532 0.28722 0.0
H1295 H 0.8826 0.04488 0.20961 0.0
C1296 C 0.89154 0.01155 0.40661 0.0
C1297 C 0.89082 0.9945 0.41831 0.0
C1298 C 0.88796 0.01669 0.36123 0.0
C1299 C 0.88321 1.0049 0.32699 0.0
C1300 C 0.88075 0.98809 0.3406 0.0
C1301 C 0.88482 0.9829 0.38556 0.0
C1302 C 0.89292 1.0036 0.19788 0.0
C1303 C 0.89123 0.02057 0.18607 0.0
C1304 C 0.8892 0.99821 0.24296 0.0
C1305 C 0.88333 0.00965 0.27676 0.0
C1306 C 0.87994 0.02626 0.2629 0.0
C1307 C 0.88415 0.03172 0.21827 0.0
H1308 H 0.29714 0.63605 0.64102 0.0
H1309 H 0.24662 0.65012 0.67808 0.0
H1310 H 0.28779 0.62869 0.56298 0.0
H1311 H 0.23732 0.64398 0.59944 0.0
H1312 H 0.22182 0.6353 0.45713 0.0
H1313 H 0.23138 0.62791 0.53494 0.0
H1314 H 0.28142 0.64479 0.49888 0.0
H1315 H 0.27195 0.65097 0.42044 0.0
C1316 C 0.28394 0.63725 0.63251 0.0
C1317 C 0.27259 0.64377 0.66517 0.0
C1318 C 0.27859 0.63322 0.58767 0.0
C1319 C 0.26187 0.63614 0.57413 0.0
C1320 C 0.25027 0.64138 0.60827 0.0
C1321 C 0.25557 0.64499 0.65352 0.0
C1322 C 0.23499 0.63684 0.46565 0.0
C1323 C 0.24616 0.64382 0.43319 0.0
C1324 C 0.24045 0.63279 0.51037 0.0
C1325 C 0.25709 0.63615 0.52398 0.0
C1326 C 0.26855 0.64186 0.48999 0.0
C1327 C 0.26315 0.64549 0.44485 0.0
H1328 H 0.40045 0.97032 0.22786 0.0
H1329 H 0.38269 0.01623 0.16476 0.0
H1330 H 0.39359 0.98112 0.30407 0.0
H1331 H 0.37527 0.02698 0.24178 0.0
H1332 H 0.38227 1.0017 0.44056 0.0
H1333 H 0.37499 0.99099 0.36337 0.0
H1334 H 0.39372 0.03684 0.30158 0.0
H1335 H 0.40042 0.0476 0.37797 0.0
C1336 C 0.39467 0.98261 0.23021 0.0
C1337 C 0.39252 0.99261 0.19038 0.0
C1338 C 0.39051 0.98873 0.27406 0.0
C1339 C 0.38408 1.00503 0.27926 0.0
C1340 C 0.38049 0.01447 0.23901 0.0
C1341 C 0.38467 1.0083 0.19488 0.0
C1342 C 0.38436 0.00963 0.41051 0.0
C1343 C 0.39229 0.02531 0.41522 0.0
C1344 C 0.38027 1.00349 0.36628 0.0
C1345 C 0.38402 0.01293 0.32613 0.0
C1346 C 0.39052 0.02922 0.3315 0.0
C1347 C 0.39459 0.03533 0.37547 0.0
H1348 H 0.72305 0.63134 0.14726 0.0
H1349 H 0.77311 0.64718 0.1839 0.0
H1350 H 0.7327 0.62366 0.06975 0.0
H1351 H 0.78265 0.64092 0.10572 0.0
H1352 H 0.79842 0.63348 0.96342 0.0
H1353 H 0.78934 0.62562 0.04134 0.0
H1354 H 0.73834 0.63917 1.00495 0.0
H1355 H 0.7474 0.64561 0.92643 0.0
C1356 C 0.73622 0.63286 0.13877 0.0
C1357 C 0.74736 0.63994 0.1711 0.0
C1358 C 0.74175 0.62867 0.0942 0.0
C1359 C 0.75838 0.6321 0.08054 0.0
C1360 C 0.76979 0.6379 0.11452 0.0
C1361 C 0.76435 0.64159 0.15955 0.0
C1362 C 0.78518 0.63417 0.97195 0.0
C1363 C 0.77359 0.64026 0.93936 0.0
C1364 C 0.77997 0.62987 0.01675 0.0
C1365 C 0.76316 0.63218 0.03034 0.0
C1366 C 0.75137 0.63701 0.99621 0.0
C1367 C 0.75653 0.64082 0.95099 0.0
H1368 H 0.12895 0.96898 0.87952 0.0
H1369 H 0.12137 0.02084 0.91691 0.0
H1370 H 0.13696 0.97737 0.80113 0.0
H1371 H 0.12793 0.02934 0.8379 0.0
H1372 H 0.13696 0.04403 0.69567 0.0
H1373 H 0.14382 0.03368 0.77309 0.0
H1374 H 0.12238 0.98539 0.73681 0.0
H1375 H 0.11695 0.9955 0.65872 0.0
C1376 C 0.1292 0.98223 0.87085 0.0
C1377 C 0.12442 0.9943 0.90376 0.0
C1378 C 0.13362 0.98706 0.82583 0.0
C1379 C 0.13272 1.00402 0.81232 0.0
C1380 C 0.12902 0.01617 0.84659 0.0
C1381 C 0.12511 0.01134 0.89203 0.0
C1382 C 0.13437 0.031 0.70404 0.0
C1383 C 0.12637 0.02054 0.67167 0.0
C1384 C 0.13807 0.02511 0.74858 0.0
C1385 C 0.13321 1.00882 0.76215 0.0
C1386 C 0.12649 0.99796 0.72809 0.0
C1387 C 0.12329 1.00373 0.68309 0.0
H1388 H 0.79245 0.38807 0.6622 0.0
H1389 H 0.7446 0.36655 0.69932 0.0
H1390 H 0.78187 0.39457 0.58477 0.0
H1391 H 0.73431 0.37162 0.62125 0.0
H1392 H 0.71775 0.37748 0.47834 0.0
H1393 H 0.72584 0.38581 0.55671 0.0
H1394 H 0.77809 0.3784 0.52018 0.0
H1395 H 0.76984 0.3715 0.44116 0.0
C1396 C 0.77951 0.38509 0.65389 0.0
C1397 C 0.76932 0.37676 0.68629 0.0
C1398 C 0.77349 0.38857 0.60933 0.0
C1399 C 0.75738 0.38316 0.5958 0.0
C1400 C 0.74673 0.37614 0.62993 0.0
C1401 C 0.75261 0.37315 0.67493 0.0
C1402 C 0.73098 0.37813 0.48707 0.0
C1403 C 0.74321 0.37372 0.45422 0.0
C1404 C 0.73564 0.38275 0.53207 0.0
C1405 C 0.75262 0.38242 0.54563 0.0
C1406 C 0.76489 0.37905 0.51143 0.0
C1407 C 0.76021 0.37495 0.46601 0.0
H1408 H 0.09721 0.41585 0.19121 0.0
H1409 H 0.12783 0.41657 0.06726 0.0
H1410 H 0.1144 0.39327 0.22296 0.0
H1411 H 0.14501 0.39394 0.09912 0.0
H1412 H 0.16851 0.34707 0.15752 0.0
H1413 H 0.14593 0.36412 0.12515 0.0
H1414 H 0.1438 0.39273 0.25249 0.0
H1415 H 0.16642 0.37569 0.28497 0.0
C1416 C 0.10736 0.41095 0.17019 0.0
C1417 C 0.11117 0.41812 0.12667 0.0
C1418 C 0.1173 0.39807 0.18866 0.0
C1419 C 0.13119 0.3919 0.16387 0.0
C1420 C 0.13434 0.39832 0.11906 0.0
C1421 C 0.12449 0.41132 0.10076 0.0
C1422 C 0.16299 0.35674 0.17911 0.0
C1423 C 0.16937 0.36004 0.22386 0.0
C1424 C 0.15012 0.3666 0.16032 0.0
C1425 C 0.14317 0.37991 0.18596 0.0
C1426 C 0.1488 0.38251 0.23184 0.0
C1427 C 0.16179 0.37274 0.25051 0.0
H1428 H 0.89178 0.91529 0.53558 0.0
H1429 H 0.92181 0.91744 0.41065 0.0
H1430 H 0.87495 0.89278 0.50144 0.0
H1431 H 0.90497 0.89497 0.37662 0.0
H1432 H 0.85317 0.87704 0.31395 0.0
H1433 H 0.87544 0.89419 0.34805 0.0
H1434 H 0.87455 0.8634 0.47156 0.0
H1435 H 0.85233 0.84623 0.43756 0.0
C1436 C 0.89507 0.91069 0.50135 0.0
C1437 C 0.90811 0.91827 0.47587 0.0
C1438 C 0.88542 0.89776 0.48172 0.0
C1439 C 0.88849 0.8922 0.43602 0.0
C1440 C 0.90212 0.89913 0.4116 0.0
C1441 C 0.91186 0.91193 0.43136 0.0
C1442 C 0.858 0.87366 0.34788 0.0
C1443 C 0.85087 0.86028 0.37299 0.0
C1444 C 0.87079 0.8835 0.36748 0.0
C1445 C 0.87667 0.88028 0.4128 0.0
C1446 C 0.87016 0.86636 0.43687 0.0
C1447 C 0.8575 0.85643 0.41713 0.0
H1448 H 0.39138 0.6031 0.56187 0.0
H1449 H 0.42215 0.60311 0.68558 0.0
H1450 H 0.37444 0.62576 0.59447 0.0
H1451 H 0.40521 0.62574 0.71805 0.0
H1452 H 0.35347 0.64353 0.781 0.0
H1453 H 0.37591 0.62644 0.74788 0.0
H1454 H 0.37377 0.65545 0.6212 0.0
H1455 H 0.35136 0.67253 0.65418 0.0
C1456 C 0.3948 0.6082 0.59549 0.0
C1457 C 0.40808 0.60119 0.62114 0.0
C1458 C 0.38509 0.62122 0.61421 0.0
C1459 C 0.38836 0.62745 0.65914 0.0
C1460 C 0.40222 0.62107 0.68366 0.0
C1461 C 0.412 0.60817 0.6648 0.0
C1462 C 0.35807 0.64655 0.74655 0.0
C1463 C 0.35052 0.65936 0.72024 0.0
C1464 C 0.37096 0.63675 0.72752 0.0
C1465 C 0.37652 0.63946 0.68163 0.0
C1466 C 0.36962 0.65288 0.65635 0.0
C1467 C 0.35685 0.66276 0.6755 0.0
H1468 H 0.66529 0.14244 0.81695 0.0
H1469 H 0.66874 0.17183 0.94283 0.0
H1470 H 0.64258 0.12596 0.8514 0.0
H1471 H 0.64608 0.15534 0.97715 0.0
H1472 H 0.62712 0.10377 0.03879 0.0
H1473 H 0.64465 0.12577 1.00484 0.0
H1474 H 0.61338 0.12608 0.88223 0.0
H1475 H 0.59585 0.10411 0.91607 0.0
C1476 C 0.66094 0.14567 0.85149 0.0
C1477 C 0.66893 0.15843 0.8771 0.0
C1478 C 0.6479 0.13622 0.87129 0.0
C1479 C 0.64263 0.13921 0.91729 0.0
C1480 C 0.64999 0.15256 0.94192 0.0
C1481 C 0.66291 0.1621 0.92201 0.0
C1482 C 0.62372 0.10881 1.00511 0.0
C1483 C 0.61009 0.10208 0.98017 0.0
C1484 C 0.63378 0.12145 0.98559 0.0
C1485 C 0.63053 0.12757 0.94053 0.0
C1486 C 0.61637 0.12148 0.91669 0.0
C1487 C 0.60623 0.10897 0.93635 0.0
H1488 H 0.16546 0.64232 0.31836 0.0
H1489 H 0.16637 0.67166 0.44465 0.0
H1490 H 0.14317 0.62484 0.35085 0.0
H1491 H 0.14404 0.65423 0.47697 0.0
H1492 H 0.12646 0.60219 0.53753 0.0
H1493 H 0.1433 0.62496 0.50496 0.0
H1494 H 0.11394 0.6232 0.37883 0.0
H1495 H 0.09716 0.60039 0.41124 0.0
C1496 C 0.16063 0.64533 0.35256 0.0
C1497 C 0.16781 0.65836 0.37891 0.0
C1498 C 0.14781 0.63529 0.37124 0.0
C1499 C 0.14192 0.638 0.41681 0.0
C1500 C 0.14845 0.65163 0.44209 0.0
C1501 C 0.16117 0.66172 0.42332 0.0
C1502 C 0.12333 0.60691 0.50331 0.0
C1503 C 0.1105 0.59936 0.47699 0.0
C1504 C 0.13298 0.62001 0.48459 0.0
C1505 C 0.1301 0.62581 0.439 0.0
C1506 C 0.11667 0.61888 0.41373 0.0
C1507 C 0.10695 0.60587 0.43255 0.0
H1508 H 0.62494 0.91319 0.5687 0.0
H1509 H 0.59506 0.91495 0.69395 0.0
H1510 H 0.64202 0.89087 0.60269 0.0
H1511 H 0.61219 0.89274 0.72788 0.0
H1512 H 0.66462 0.87547 0.7889 0.0
H1513 H 0.64218 0.89251 0.75541 0.0
H1514 H 0.64209 0.86121 0.6329 0.0
H1515 H 0.66443 0.84411 0.66633 0.0
C1516 C 0.62175 0.90856 0.60299 0.0
C1517 C 0.60865 0.91594 0.62857 0.0
C1518 C 0.63154 0.89575 0.62251 0.0
C1519 C 0.62857 0.89014 0.66823 0.0
C1520 C 0.61493 0.89692 0.69284 0.0
C1521 C 0.60503 0.90957 0.67315 0.0
C1522 C 0.65953 0.87195 0.75536 0.0
C1523 C 0.66641 0.85845 0.73032 0.0
C1524 C 0.64665 0.88172 0.73612 0.0
C1525 C 0.64046 0.87831 0.69122 0.0
C1526 C 0.64672 0.86428 0.66727 0.0
C1527 C 0.65945 0.85441 0.6867 0.0
H1528 H 0.3533 0.3751 0.82378 0.0
H1529 H 0.34815 0.34777 0.95276 0.0
H1530 H 0.37602 0.39167 0.85784 0.0
H1531 H 0.37081 0.36436 0.9867 0.0
H1532 H 0.39008 0.41676 0.04284 0.0
H1533 H 0.37245 0.3945 0.01054 0.0
H1534 H 0.40504 0.39124 0.89098 0.0
H1535 H 0.4227 0.41343 0.9232 0.0
C1536 C 0.35727 0.37233 0.85897 0.0
C1537 C 0.34881 0.36013 0.8855 0.0
C1538 C 0.37032 0.38183 0.87854 0.0
C1539 C 0.37512 0.37946 0.92521 0.0
C1540 C 0.36727 0.36665 0.9509 0.0
C1541 C 0.35435 0.35705 0.93122 0.0
C1542 C 0.39374 0.41101 0.01025 0.0
C1543 C 0.40779 0.41697 0.98561 0.0
C1544 C 0.38363 0.39823 0.9917 0.0
C1545 C 0.38724 0.39121 0.94788 0.0
C1546 C 0.40179 0.39653 0.92448 0.0
C1547 C 0.41199 0.40917 0.94323 0.0
H1548 H 0.85082 0.14098 0.28417 0.0
H1549 H 0.85095 0.17052 0.15818 0.0
H1550 H 0.87348 0.12372 0.25304 0.0
H1551 H 0.87361 0.15327 0.12719 0.0
H1552 H 0.9202 0.09986 0.19532 0.0
H1553 H 0.90313 0.12261 0.22661 0.0
H1554 H 0.87435 0.12376 0.09945 0.0
H1555 H 0.89143 0.101 0.06802 0.0
C1556 C 0.85595 0.14408 0.25036 0.0
C1557 C 0.84896 0.1571 0.22365 0.0
C1558 C 0.86898 0.13417 0.23247 0.0
C1559 C 0.87525 0.13699 0.18734 0.0
C1560 C 0.86891 0.15061 0.16176 0.0
C1561 C 0.85599 0.16059 0.17977 0.0
C1562 C 0.91048 0.1052 0.17354 0.0
C1563 C 0.90714 0.0985 0.12916 0.0
C1564 C 0.90061 0.11817 0.19171 0.0
C1565 C 0.88725 0.1249 0.16581 0.0
C1566 C 0.8846 0.11895 0.12027 0.0
C1567 C 0.8944 0.10587 0.10222 0.0
H1568 H 0.89245 0.60155 0.03602 0.0
H1569 H 0.92135 0.59991 0.909 0.0
H1570 H 0.87544 0.62422 1.00383 0.0
H1571 H 0.90436 0.62259 0.87695 0.0
H1572 H 0.85217 0.64086 0.81831 0.0
H1573 H 0.87482 0.62373 0.85007 0.0
H1574 H 0.87464 0.65357 0.97538 0.0
H1575 H 0.85198 0.67068 0.94377 0.0
C1576 C 0.89546 0.60629 1.00172 0.0
C1577 C 0.90822 0.59881 0.97509 0.0
C1578 C 0.88571 0.61932 0.98322 0.0
C1579 C 0.88841 0.62511 0.93754 0.0
C1580 C 0.90178 0.61827 0.91195 0.0
C1581 C 0.91162 0.60534 0.93056 0.0
C1582 C 0.85724 0.64405 0.85213 0.0
C1583 C 0.85015 0.6571 0.87851 0.0
C1584 C 0.87026 0.63422 0.87039 0.0
C1585 C 0.87643 0.63715 0.91557 0.0
C1586 C 0.87001 0.65082 0.9408 0.0
C1587 C 0.8571 0.66072 0.92243 0.0
H1588 H 0.12587 0.10357 0.5656 0.0
H1589 H 0.09723 0.09994 0.69275 0.0
H1590 H 0.14269 0.12606 0.5997 0.0
H1591 H 0.11401 0.12246 0.7267 0.0
H1592 H 0.16576 0.14114 0.78689 0.0
H1593 H 0.14339 0.12394 0.75364 0.0
H1594 H 0.14333 0.15498 0.63054 0.0
H1595 H 0.16574 0.17213 0.66362 0.0
C1596 C 0.12287 0.10784 0.60037 0.0
C1597 C 0.11024 0.09985 0.62643 0.0
C1598 C 0.13252 0.12077 0.61997 0.0
C1599 C 0.12983 0.12597 0.6662 0.0
C1600 C 0.11658 0.11861 0.6913 0.0
C1601 C 0.10687 0.10577 0.67161 0.0
C1602 C 0.1607 0.14456 0.75324 0.0
C1603 C 0.16765 0.15798 0.7279 0.0
C1604 C 0.14784 0.1347 0.73413 0.0
C1605 C 0.14168 0.13795 0.68911 0.0
C1606 C 0.14796 0.15196 0.66495 0.0
C1607 C 0.16073 0.16189 0.68417 0.0
H1608 H 0.65919 0.34491 0.41089 0.0
H1609 H 0.68075 0.38819 0.34256 0.0
H1610 H 0.63812 0.36305 0.44765 0.0
H1611 H 0.66003 0.40621 0.3803 0.0
H1612 H 0.63892 0.4321 0.51284 0.0
H1613 H 0.65692 0.41132 0.47525 0.0
H1614 H 0.61328 0.38629 0.41961 0.0
H1615 H 0.59513 0.4074 0.45619 0.0
C1616 C 0.65921 0.35821 0.40288 0.0
C1617 C 0.67164 0.36509 0.37367 0.0
C1618 C 0.6472 0.36856 0.4241 0.0
C1619 C 0.64766 0.38602 0.41732 0.0
C1620 C 0.65954 0.39279 0.38645 0.0
C1621 C 0.67129 0.38243 0.36445 0.0
C1622 C 0.63308 0.42196 0.49358 0.0
C1623 C 0.61557 0.42142 0.48757 0.0
C1624 C 0.64342 0.41018 0.47165 0.0
C1625 C 0.63647 0.39737 0.44406 0.0
C1626 C 0.61893 0.39609 0.44057 0.0
C1627 C 0.60857 0.40812 0.4617 0.0
H1628 H 0.42143 0.9159 0.18281 0.0
H1629 H 0.38863 0.9179 0.06333 0.0
H1630 H 0.40406 0.89379 0.21659 0.0
H1631 H 0.37127 0.89574 0.0972 0.0
H1632 H 0.34748 0.84921 0.1581 0.0
H1633 H 0.36979 0.86589 0.12272 0.0
H1634 H 0.37525 0.89393 0.25029 0.0
H1635 H 0.35289 0.87726 0.28579 0.0
C1636 C 0.41074 0.91138 0.16317 0.0
C1637 C 0.40641 0.91877 0.12033 0.0
C1638 C 0.40069 0.89878 0.18281 0.0
C1639 C 0.38616 0.8931 0.15992 0.0
C1640 C 0.38243 0.89973 0.11571 0.0
C1641 C 0.39239 0.91246 0.09623 0.0
C1642 C 0.35366 0.85868 0.17905 0.0
C1643 C 0.3483 0.86192 0.22485 0.0
C1644 C 0.36638 0.86834 0.15854 0.0
C1645 C 0.37421 0.88137 0.18343 0.0
C1646 C 0.36957 0.88392 0.23016 0.0
C1647 C 0.35673 0.87436 0.25057 0.0
H1648 H 0.85345 0.37643 0.78857 0.0
H1649 H 0.84873 0.34846 0.66054 0.0
H1650 H 0.87578 0.39331 0.75386 0.0
H1651 H 0.87108 0.3653 0.62598 0.0
H1652 H 0.88967 0.41729 0.5669 0.0
H1653 H 0.87257 0.39483 0.60013 0.0
H1654 H 0.90449 0.39388 0.72144 0.0
H1655 H 0.92156 0.41636 0.68838 0.0
C1656 C 0.85744 0.37359 0.75344 0.0
C1657 C 0.8492 0.36113 0.72737 0.0
C1658 C 0.87028 0.38327 0.73349 0.0
C1659 C 0.87513 0.38079 0.68688 0.0
C1660 C 0.8675 0.36772 0.66168 0.0
C1661 C 0.85476 0.35797 0.68172 0.0
C1662 C 0.89331 0.41201 0.60011 0.0
C1663 C 0.90695 0.41873 0.62499 0.0
C1664 C 0.8835 0.39911 0.61922 0.0
C1665 C 0.88703 0.39267 0.66378 0.0
C1666 C 0.90126 0.39872 0.68741 0.0
C1667 C 0.91113 0.41153 0.66818 0.0
H1668 H 0.42148 0.1019 0.42391 0.0
H1669 H 0.38922 0.10034 0.54459 0.0
H1670 H 0.40441 0.12435 0.39096 0.0
H1671 H 0.37219 0.12287 0.51156 0.0
H1672 H 0.3494 0.17009 0.45197 0.0
H1673 H 0.37151 0.15291 0.48622 0.0
H1674 H 0.37524 0.12462 0.35865 0.0
H1675 H 0.35305 0.14176 0.3243 0.0
C1676 C 0.41098 0.10659 0.44399 0.0
C1677 C 0.4067 0.09923 0.48692 0.0
C1678 C 0.40112 0.11939 0.42483 0.0
C1679 C 0.38683 0.1253 0.44833 0.0
C1680 C 0.38316 0.11869 0.49261 0.0
C1681 C 0.39294 0.10575 0.51159 0.0
C1682 C 0.35516 0.16045 0.43077 0.0
C1683 C 0.34936 0.15728 0.38534 0.0
C1684 C 0.36777 0.15051 0.45063 0.0
C1685 C 0.37504 0.13728 0.42541 0.0
C1686 C 0.36998 0.13478 0.37899 0.0
C1687 C 0.35724 0.14461 0.35925 0.0
H1688 H 0.59808 0.60057 0.18123 0.0
H1689 H 0.62871 0.60198 0.05734 0.0
H1690 H 0.61502 0.62295 0.21532 0.0
H1691 H 0.64569 0.62433 0.0916 0.0
H1692 H 0.66909 0.67044 0.15441 0.0
H1693 H 0.64676 0.65352 0.12006 0.0
H1694 H 0.64396 0.62395 0.24568 0.0
H1695 H 0.66626 0.64093 0.28019 0.0
C1696 C 0.60821 0.60588 0.16079 0.0
C1697 C 0.61206 0.59938 0.11653 0.0
C1698 C 0.61801 0.61864 0.18058 0.0
C1699 C 0.63184 0.62533 0.1565 0.0
C1700 C 0.63506 0.61956 0.11107 0.0
C1701 C 0.62532 0.60671 0.09137 0.0
C1702 C 0.66347 0.66058 0.17519 0.0
C1703 C 0.66957 0.65701 0.22008 0.0
C1704 C 0.65075 0.65078 0.15526 0.0
C1705 C 0.64368 0.63723 0.17981 0.0
C1706 C 0.64903 0.63434 0.22581 0.0
C1707 C 0.66185 0.64408 0.24566 0.0
H1708 H 0.16034 0.84558 0.90975 0.0
H1709 H 0.18013 0.88888 0.83753 0.0
H1710 H 0.13884 0.86337 0.94601 0.0
H1711 H 0.15898 0.90657 0.87485 0.0
H1712 H 0.13844 0.93044 0.01541 0.0
H1713 H 0.15634 0.90946 0.97811 0.0
H1714 H 0.11325 0.8885 0.90829 0.0
H1715 H 0.09525 0.90983 0.94453 0.0
C1716 C 0.15987 0.85878 0.90077 0.0
C1717 C 0.17193 0.86579 0.8706 0.0
C1718 C 0.14762 0.86894 0.9217 0.0
C1719 C 0.14745 0.88631 0.91354 0.0
C1720 C 0.15896 0.89319 0.8818 0.0
C1721 C 0.17095 0.88302 0.86014 0.0
C1722 C 0.13266 0.92112 0.9931 0.0
C1723 C 0.11539 0.92182 0.98301 0.0
C1724 C 0.14294 0.90922 0.97145 0.0
C1725 C 0.13614 0.89754 0.9401 0.0
C1726 C 0.11875 0.89743 0.93231 0.0
C1727 C 0.10848 0.90958 0.95322 0.0
loop_
_geom_bond_atom_site_label_1
_geom_bond_atom_site_label_2
_geom_bond_distance
_geom_bond_site_symmetry_2
_ccdc_geom_bond_type
O0 Cd1 2.223 . S
O0 C8 1.315 . S
Cd1 O0 2.223 . S
Cd1 O4 2.297 . S
Cd1 O5 2.439 . S
Cd1 O11 2.240 . S
Cd2 O3 2.240 . S
Cd2 O10 2.223 . S
Cd2 O12 2.297 1_554 S
Cd2 O13 2.439 1_554 S
O3 Cd2 2.240 . S
O3 C8 1.279 . S
O4 Cd1 2.297 . S
O4 C6 1.247 . S
O5 Cd1 2.439 . S
O5 C6 1.208 . S
C6 O4 1.247 . S
C6 O5 1.208 . S
C7 O12 1.247 . S
C7 O13 1.208 . S
C8 O0 1.315 . S
C8 O3 1.279 . S
C9 O10 1.315 . S
C9 O11 1.279 . S
O10 Cd2 2.223 . S
O10 C9 1.315 . S
O11 Cd1 2.240 . S
O11 C9 1.279 . S
O12 Cd2 2.297 1_556 S
O12 C7 1.247 . S
O13 Cd2 2.439 1_556 S
O13 C7 1.208 . S
O14 Cd15 2.223 . S
O14 C22 1.315 . S
Cd15 O14 2.223 . S
Cd15 O18 2.297 . S
Cd15 O19 2.439 . S
Cd15 O25 2.240 . S
Cd16 O17 2.240 . S
Cd16 O24 2.223 . S
Cd16 O26 2.297 . S
Cd16 O27 2.439 . S
O17 Cd16 2.240 . S
O17 C22 1.279 . S
O18 Cd15 2.297 . S
O18 C20 1.247 . S
O19 Cd15 2.439 . S
O19 C20 1.208 . S
C20 O18 1.247 . S
C20 O19 1.208 . S
C21 O26 1.247 . S
C21 O27 1.208 . S
C22 O14 1.315 . S
C22 O17 1.279 . S
C23 O24 1.315 . S
C23 O25 1.279 . S
O24 Cd16 2.223 . S
O24 C23 1.315 . S
O25 Cd15 2.240 . S
O25 C23 1.279 . S
O26 Cd16 2.297 . S
O26 C21 1.247 . S
O27 Cd16 2.439 . S
O27 C21 1.208 . S
O28 Cd29 2.223 . S
O28 C36 1.315 . S
Cd29 O28 2.223 . S
Cd29 O32 2.297 . S
Cd29 O33 2.439 . S
Cd29 O39 2.240 . S
Cd30 O31 2.240 . S
Cd30 O38 2.223 . S
Cd30 O40 2.297 . S
Cd30 O41 2.439 . S
O31 Cd30 2.240 . S
O31 C36 1.279 . S
O32 Cd29 2.297 . S
O32 C34 1.247 . S
O33 Cd29 2.439 . S
O33 C34 1.208 . S
C34 O32 1.247 . S
C34 O33 1.208 . S
C35 O40 1.247 . S
C35 O41 1.208 . S
C36 O28 1.315 . S
C36 O31 1.279 . S
C37 O38 1.315 . S
C37 O39 1.279 . S
O38 Cd30 2.223 . S
O38 C37 1.315 . S
O39 Cd29 2.240 . S
O39 C37 1.279 . S
O40 Cd30 2.297 . S
O40 C35 1.247 . S
O41 Cd30 2.439 . S
O41 C35 1.208 . S
O42 Cd43 2.223 . S
O42 C50 1.315 . S
Cd43 O42 2.223 . S
Cd43 O46 2.297 . S
Cd43 O47 2.439 . S
Cd43 O53 2.240 . S
Cd44 O45 2.240 . S
Cd44 O52 2.223 . S
Cd44 O54 2.297 . S
Cd44 O55 2.439 . S
O45 Cd44 2.240 . S
O45 C50 1.279 . S
O46 Cd43 2.297 . S
O46 C48 1.247 . S
O47 Cd43 2.439 . S
O47 C48 1.208 . S
C48 O46 1.247 . S
C48 O47 1.208 . S
C49 O54 1.247 . S
C49 O55 1.208 . S
C50 O42 1.315 . S
C50 O45 1.279 . S
C51 O52 1.315 . S
C51 O53 1.279 . S
O52 Cd44 2.223 . S
O52 C51 1.315 . S
O53 Cd43 2.240 . S
O53 C51 1.279 . S
O54 Cd44 2.297 . S
O54 C49 1.247 . S
O55 Cd44 2.439 . S
O55 C49 1.208 . S
O56 Cd57 2.223 . S
O56 C64 1.315 . S
Cd57 O56 2.223 . S
Cd57 O60 2.297 . S
Cd57 O61 2.439 . S
Cd57 O67 2.240 . S
Cd58 O59 2.240 . S
Cd58 O66 2.223 . S
Cd58 O68 2.297 . S
Cd58 O69 2.439 . S
O59 Cd58 2.240 . S
O59 C64 1.279 . S
O60 Cd57 2.297 . S
O60 C62 1.247 . S
O61 Cd57 2.439 . S
O61 C62 1.208 . S
C62 O60 1.247 . S
C62 O61 1.208 . S
C63 O68 1.247 . S
C63 O69 1.208 . S
C64 O56 1.315 . S
C64 O59 1.279 . S
C65 O66 1.315 . S
C65 O67 1.279 . S
O66 Cd58 2.223 . S
O66 C65 1.315 . S
O67 Cd57 2.240 . S
O67 C65 1.279 . S
O68 Cd58 2.297 . S
O68 C63 1.247 . S
O69 Cd58 2.439 . S
O69 C63 1.208 . S
O70 Cd71 2.223 . S
O70 C78 1.315 . S
Cd71 O70 2.223 . S
Cd71 O74 2.297 . S
Cd71 O75 2.439 . S
Cd71 O81 2.240 . S
Cd72 O73 2.240 . S
Cd72 O80 2.223 . S
Cd72 O82 2.297 . S
Cd72 O83 2.439 . S
O73 Cd72 2.240 . S
O73 C78 1.279 . S
O74 Cd71 2.297 . S
O74 C76 1.247 . S
O75 Cd71 2.439 . S
O75 C76 1.208 . S
C76 O74 1.247 . S
C76 O75 1.208 . S
C77 O82 1.247 . S
C77 O83 1.208 . S
C78 O70 1.315 . S
C78 O73 1.279 . S
C79 O80 1.315 . S
C79 O81 1.279 . S
O80 Cd72 2.223 . S
O80 C79 1.315 . S
O81 Cd71 2.240 . S
O81 C79 1.279 . S
O82 Cd72 2.297 . S
O82 C77 1.247 . S
O83 Cd72 2.439 . S
O83 C77 1.208 . S
O84 Cd85 2.223 . S
O84 C92 1.315 . S
Cd85 O84 2.223 . S
Cd85 O88 2.297 . S
Cd85 O89 2.439 1_556 S
Cd85 O95 2.240 1_556 S
Cd86 O87 2.240 1_554 S
Cd86 O94 2.223 . S
Cd86 O96 2.297 . S
Cd86 O97 2.439 . S
O87 Cd86 2.240 1_556 S
O87 C92 1.279 . S
O88 Cd85 2.297 . S
O88 C90 1.247 . S
O89 Cd85 2.439 1_554 S
O89 C90 1.208 1_554 S
C90 O88 1.247 . S
C90 O89 1.208 1_556 S
C91 O96 1.247 . S
C91 O97 1.208 . S
C92 O84 1.315 . S
C92 O87 1.279 . S
C93 O94 1.315 . S
C93 O95 1.279 . S
O94 Cd86 2.223 . S
O94 C93 1.315 . S
O95 Cd85 2.240 1_554 S
O95 C93 1.279 . S
O96 Cd86 2.297 . S
O96 C91 1.247 . S
O97 Cd86 2.439 . S
O97 C91 1.208 . S
O98 Cd99 2.223 . S
O98 C106 1.315 . S
Cd99 O98 2.223 . S
Cd99 O102 2.297 . S
Cd99 O103 2.439 . S
Cd99 O109 2.240 . S
Cd100 O101 2.240 . S
Cd100 O108 2.223 . S
Cd100 O110 2.297 . S
Cd100 O111 2.439 . S
O101 Cd100 2.240 . S
O101 C106 1.279 . S
O102 Cd99 2.297 . S
O102 C104 1.247 . S
O103 Cd99 2.439 . S
O103 C104 1.208 . S
C104 O102 1.247 . S
C104 O103 1.208 . S
C105 O110 1.247 . S
C105 O111 1.208 . S
C106 O98 1.315 . S
C106 O101 1.279 . S
C107 O108 1.315 . S
C107 O109 1.279 . S
O108 Cd100 2.223 . S
O108 C107 1.315 . S
O109 Cd99 2.240 . S
O109 C107 1.279 . S
O110 Cd100 2.297 . S
O110 C105 1.247 . S
O111 Cd100 2.439 . S
O111 C105 1.208 . S
O112 Cd113 2.223 . S
O112 C120 1.315 . S
Cd113 O112 2.223 . S
Cd113 O116 2.297 . S
Cd113 O117 2.439 1_556 S
Cd113 O123 2.240 1_556 S
Cd114 O115 2.240 1_554 S
Cd114 O122 2.223 . S
Cd114 O124 2.297 . S
Cd114 O125 2.439 . S
O115 Cd114 2.240 1_556 S
O115 C120 1.279 . S
O116 Cd113 2.297 . S
O116 C118 1.247 . S
O117 Cd113 2.439 1_554 S
O117 C118 1.208 1_554 S
C118 O116 1.247 . S
C118 O117 1.208 1_556 S
C119 O124 1.247 . S
C119 O125 1.208 . S
C120 O112 1.315 . S
C120 O115 1.279 . S
C121 O122 1.315 . S
C121 O123 1.279 . S
O122 Cd114 2.223 . S
O122 C121 1.315 . S
O123 Cd113 2.240 1_554 S
O123 C121 1.279 . S
O124 Cd114 2.297 . S
O124 C119 1.247 . S
O125 Cd114 2.439 . S
O125 C119 1.208 . S
O126 Cd127 2.223 . S
O126 C134 1.315 . S
Cd127 O126 2.223 . S
Cd127 O130 2.297 . S
Cd127 O131 2.439 . S
Cd127 O137 2.240 . S
Cd128 O129 2.240 . S
Cd128 O136 2.223 . S
Cd128 O138 2.297 . S
Cd128 O139 2.439 . S
O129 Cd128 2.240 . S
O129 C134 1.279 . S
O130 Cd127 2.297 . S
O130 C132 1.247 . S
O131 Cd127 2.439 . S
O131 C132 1.208 . S
C132 O130 1.247 . S
C132 O131 1.208 . S
C133 O138 1.247 . S
C133 O139 1.208 . S
C134 O126 1.315 . S
C134 O129 1.279 . S
C135 O136 1.315 . S
C135 O137 1.279 . S
O136 Cd128 2.223 . S
O136 C135 1.315 . S
O137 Cd127 2.240 . S
O137 C135 1.279 . S
O138 Cd128 2.297 . S
O138 C133 1.247 . S
O139 Cd128 2.439 . S
O139 C133 1.208 . S
O140 Cd141 2.223 . S
O140 C148 1.315 . S
Cd141 O140 2.223 . S
Cd141 O144 2.297 . S
Cd141 O145 2.439 . S
Cd141 O151 2.240 . S
Cd142 O143 2.240 . S
Cd142 O150 2.223 . S
Cd142 O152 2.297 . S
Cd142 O153 2.439 . S
O143 Cd142 2.240 . S
O143 C148 1.279 . S
O144 Cd141 2.297 . S
O144 C146 1.247 . S
O145 Cd141 2.439 . S
O145 C146 1.208 . S
C146 O144 1.247 . S
C146 O145 1.208 . S
C147 O152 1.247 . S
C147 O153 1.208 . S
C148 O140 1.315 . S
C148 O143 1.279 . S
C149 O150 1.315 . S
C149 O151 1.279 . S
O150 Cd142 2.223 . S
O150 C149 1.315 . S
O151 Cd141 2.240 . S
O151 C149 1.279 . S
O152 Cd142 2.297 . S
O152 C147 1.247 . S
O153 Cd142 2.439 . S
O153 C147 1.208 . S
O154 Cd155 2.223 . S
O154 C162 1.315 . S
Cd155 O154 2.223 . S
Cd155 O158 2.297 . S
Cd155 O159 2.439 . S
Cd155 O165 2.240 . S
Cd156 O157 2.240 . S
Cd156 O164 2.223 . S
Cd156 O166 2.297 . S
Cd156 O167 2.439 . S
O157 Cd156 2.240 . S
O157 C162 1.279 . S
O158 Cd155 2.297 . S
O158 C160 1.247 . S
O159 Cd155 2.439 . S
O159 C160 1.208 . S
C160 O158 1.247 . S
C160 O159 1.208 . S
C161 O166 1.247 . S
C161 O167 1.208 . S
C162 O154 1.315 . S
C162 O157 1.279 . S
C163 O164 1.315 . S
C163 O165 1.279 . S
O164 Cd156 2.223 . S
O164 C163 1.315 . S
O165 Cd155 2.240 . S
O165 C163 1.279 . S
O166 Cd156 2.297 . S
O166 C161 1.247 . S
O167 Cd156 2.439 . S
O167 C161 1.208 . S
O168 Cd169 2.223 . S
O168 C176 1.315 . S
Cd169 O168 2.223 . S
Cd169 O172 2.297 . S
Cd169 O173 2.439 . S
Cd169 O179 2.240 . S
Cd170 O171 2.240 . S
Cd170 O178 2.223 . S
Cd170 O180 2.297 . S
Cd170 O181 2.439 . S
O171 Cd170 2.240 . S
O171 C176 1.279 . S
O172 Cd169 2.297 . S
O172 C174 1.247 . S
O173 Cd169 2.439 . S
O173 C174 1.208 . S
C174 O172 1.247 . S
C174 O173 1.208 . S
C175 O180 1.247 . S
C175 O181 1.208 . S
C176 O168 1.315 . S
C176 O171 1.279 . S
C177 O178 1.315 . S
C177 O179 1.279 . S
O178 Cd170 2.223 . S
O178 C177 1.315 . S
O179 Cd169 2.240 . S
O179 C177 1.279 . S
O180 Cd170 2.297 . S
O180 C175 1.247 . S
O181 Cd170 2.439 . S
O181 C175 1.208 . S
O182 Cd183 2.223 . S
O182 C190 1.315 . S
Cd183 O182 2.223 . S
Cd183 O186 2.297 . S
Cd183 O187 2.439 . S
Cd183 O193 2.240 . S
Cd184 O185 2.240 . S
Cd184 O192 2.223 . S
Cd184 O194 2.297 . S
Cd184 O195 2.439 . S
O185 Cd184 2.240 . S
O185 C190 1.279 . S
O186 Cd183 2.297 . S
O186 C188 1.247 . S
O187 Cd183 2.439 . S
O187 C188 1.208 . S
C188 O186 1.247 . S
C188 O187 1.208 . S
C189 O194 1.247 . S
C189 O195 1.208 . S
C190 O182 1.315 . S
C190 O185 1.279 . S
C191 O192 1.315 . S
C191 O193 1.279 . S
O192 Cd184 2.223 . S
O192 C191 1.315 . S
O193 Cd183 2.240 . S
O193 C191 1.279 . S
O194 Cd184 2.297 . S
O194 C189 1.247 . S
O195 Cd184 2.439 . S
O195 C189 1.208 . S
O196 Cd197 2.223 . S
O196 C204 1.315 . S
Cd197 O196 2.223 . S
Cd197 O200 2.297 . S
Cd197 O201 2.439 . S
Cd197 O207 2.240 . S
Cd198 O199 2.240 . S
Cd198 O206 2.223 . S
Cd198 O208 2.297 1_554 S
Cd198 O209 2.439 1_554 S
O199 Cd198 2.240 . S
O199 C204 1.279 . S
O200 Cd197 2.297 . S
O200 C202 1.247 . S
O201 Cd197 2.439 . S
O201 C202 1.208 . S
C202 O200 1.247 . S
C202 O201 1.208 . S
C203 O208 1.247 . S
C203 O209 1.208 . S
C204 O196 1.315 . S
C204 O199 1.279 . S
C205 O206 1.315 . S
C205 O207 1.279 . S
O206 Cd198 2.223 . S
O206 C205 1.315 . S
O207 Cd197 2.240 . S
O207 C205 1.279 . S
O208 Cd198 2.297 1_556 S
O208 C203 1.247 . S
O209 Cd198 2.439 1_556 S
O209 C203 1.208 . S
O210 Cd211 2.223 . S
O210 C218 1.315 . S
Cd211 O210 2.223 . S
Cd211 O214 2.297 . S
Cd211 O215 2.439 . S
Cd211 O221 2.240 . S
Cd212 O213 2.240 . S
Cd212 O220 2.223 . S
Cd212 O222 2.297 . S
Cd212 O223 2.439 . S
O213 Cd212 2.240 . S
O213 C218 1.279 . S
O214 Cd211 2.297 . S
O214 C216 1.247 . S
O215 Cd211 2.439 . S
O215 C216 1.208 . S
C216 O214 1.247 . S
C216 O215 1.208 . S
C217 O222 1.247 . S
C217 O223 1.208 . S
C218 O210 1.315 . S
C218 O213 1.279 . S
C219 O220 1.315 . S
C219 O221 1.279 . S
O220 Cd212 2.223 . S
O220 C219 1.315 . S
O221 Cd211 2.240 . S
O221 C219 1.279 . S
O222 Cd212 2.297 . S
O222 C217 1.247 . S
O223 Cd212 2.439 . S
O223 C217 1.208 . S
O224 Cd225 2.223 . S
O224 C232 1.315 . S
Cd225 O224 2.223 . S
Cd225 O228 2.297 . S
Cd225 O229 2.439 . S
Cd225 O235 2.240 . S
Cd226 O227 2.240 . S
Cd226 O234 2.223 . S
Cd226 O236 2.291 1_565 S
Cd226 O237 2.439 . S
O227 Cd226 2.240 . S
O227 C232 1.279 . S
O228 Cd225 2.297 . S
O228 C230 1.247 . S
O229 Cd225 2.439 . S
O229 C230 1.208 . S
C230 O228 1.247 . S
C230 O229 1.208 . S
C231 O236 1.215 1_565 S
C231 O237 1.208 . S
C232 O224 1.315 . S
C232 O227 1.279 . S
C233 O234 1.315 . S
C233 O235 1.279 . S
O234 Cd226 2.223 . S
O234 C233 1.315 . S
O235 Cd225 2.240 . S
O235 C233 1.279 . S
O236 Cd226 2.291 1_545 S
O236 C231 1.215 1_545 S
O237 Cd226 2.439 . S
O237 C231 1.208 . S
O238 Cd239 2.223 . S
O238 C246 1.315 . S
Cd239 O238 2.223 . S
Cd239 O242 2.297 . S
Cd239 O243 2.439 . S
Cd239 O249 2.240 . S
Cd240 O241 2.240 . S
Cd240 O248 2.223 . S
Cd240 O250 2.297 . S
Cd240 O251 2.439 . S
O241 Cd240 2.240 . S
O241 C246 1.279 . S
O242 Cd239 2.297 . S
O242 C244 1.247 . S
O243 Cd239 2.439 . S
O243 C244 1.208 . S
C244 O242 1.247 . S
C244 O243 1.208 . S
C245 O250 1.247 . S
C245 O251 1.208 . S
C246 O238 1.315 . S
C246 O241 1.279 . S
C247 O248 1.315 . S
C247 O249 1.279 . S
O248 Cd240 2.223 . S
O248 C247 1.315 . S
O249 Cd239 2.240 . S
O249 C247 1.279 . S
O250 Cd240 2.297 . S
O250 C245 1.247 . S
O251 Cd240 2.439 . S
O251 C245 1.208 . S
O252 Cd253 2.223 . S
O252 C260 1.315 . S
Cd253 O252 2.223 . S
Cd253 O256 2.297 . S
Cd253 O257 2.439 . S
Cd253 O263 2.240 . S
Cd254 O255 2.240 . S
Cd254 O262 2.223 . S
Cd254 O264 2.291 1_544 S
Cd254 O265 2.439 1_554 S
O255 Cd254 2.240 . S
O255 C260 1.279 . S
O256 Cd253 2.297 . S
O256 C258 1.247 . S
O257 Cd253 2.439 . S
O257 C258 1.208 . S
C258 O256 1.247 . S
C258 O257 1.208 . S
C259 O264 1.216 1_545 S
C259 O265 1.208 . S
C260 O252 1.315 . S
C260 O255 1.279 . S
C261 O262 1.315 . S
C261 O263 1.279 . S
O262 Cd254 2.223 . S
O262 C261 1.315 . S
O263 Cd253 2.240 . S
O263 C261 1.279 . S
O264 Cd254 2.291 1_566 S
O264 C259 1.216 1_565 S
O265 Cd254 2.439 1_556 S
O265 C259 1.208 . S
O266 Cd267 2.223 . S
O266 C274 1.315 . S
Cd267 O266 2.223 . S
Cd267 O270 2.297 . S
Cd267 O271 2.439 . S
Cd267 O277 2.240 . S
Cd268 O269 2.240 . S
Cd268 O276 2.223 . S
Cd268 O278 2.297 . S
Cd268 O279 2.439 . S
O269 Cd268 2.240 . S
O269 C274 1.279 . S
O270 Cd267 2.297 . S
O270 C272 1.247 . S
O271 Cd267 2.439 . S
O271 C272 1.208 . S
C272 O270 1.247 . S
C272 O271 1.208 . S
C273 O278 1.247 . S
C273 O279 1.208 . S
C274 O266 1.315 . S
C274 O269 1.279 . S
C275 O276 1.315 . S
C275 O277 1.279 . S
O276 Cd268 2.223 . S
O276 C275 1.315 . S
O277 Cd267 2.240 . S
O277 C275 1.279 . S
O278 Cd268 2.297 . S
O278 C273 1.247 . S
O279 Cd268 2.439 . S
O279 C273 1.208 . S
O280 Cd281 2.223 . S
O280 C288 1.315 . S
Cd281 O280 2.223 . S
Cd281 O284 2.297 . S
Cd281 O285 2.439 1_556 S
Cd281 O291 2.240 1_556 S
Cd282 O283 2.240 1_554 S
Cd282 O290 2.223 . S
Cd282 O292 2.291 1_545 S
Cd282 O293 2.439 . S
O283 Cd282 2.240 1_556 S
O283 C288 1.279 . S
O284 Cd281 2.297 . S
O284 C286 1.247 . S
O285 Cd281 2.439 1_554 S
O285 C286 1.208 1_554 S
C286 O284 1.247 . S
C286 O285 1.208 1_556 S
C287 O292 1.215 1_545 S
C287 O293 1.208 . S
C288 O280 1.315 . S
C288 O283 1.279 . S
C289 O290 1.315 . S
C289 O291 1.279 . S
O290 Cd282 2.223 . S
O290 C289 1.315 . S
O291 Cd281 2.240 1_554 S
O291 C289 1.279 . S
O292 Cd282 2.291 1_565 S
O292 C287 1.215 1_565 S
O293 Cd282 2.439 . S
O293 C287 1.208 . S
O294 Cd295 2.223 . S
O294 C302 1.315 . S
Cd295 O294 2.223 . S
Cd295 O298 2.297 . S
Cd295 O299 2.439 . S
Cd295 O305 2.240 . S
Cd296 O297 2.240 . S
Cd296 O304 2.223 . S
Cd296 O306 2.297 . S
Cd296 O307 2.439 . S
O297 Cd296 2.240 . S
O297 C302 1.279 . S
O298 Cd295 2.297 . S
O298 C300 1.247 . S
O299 Cd295 2.439 . S
O299 C300 1.208 . S
C300 O298 1.247 . S
C300 O299 1.208 . S
C301 O306 1.247 . S
C301 O307 1.208 . S
C302 O294 1.315 . S
C302 O297 1.279 . S
C303 O304 1.315 . S
C303 O305 1.279 . S
O304 Cd296 2.223 . S
O304 C303 1.315 . S
O305 Cd295 2.240 . S
O305 C303 1.279 . S
O306 Cd296 2.297 . S
O306 C301 1.247 . S
O307 Cd296 2.439 . S
O307 C301 1.208 . S
O308 Cd309 2.223 . S
O308 C316 1.315 . S
Cd309 O308 2.223 . S
Cd309 O312 2.297 . S
Cd309 O313 2.439 . S
Cd309 O319 2.240 . S
Cd310 O311 2.240 . S
Cd310 O318 2.223 . S
Cd310 O320 2.291 1_565 S
Cd310 O321 2.439 . S
O311 Cd310 2.240 . S
O311 C316 1.279 . S
O312 Cd309 2.297 . S
O312 C314 1.247 . S
O313 Cd309 2.439 . S
O313 C314 1.208 . S
C314 O312 1.247 . S
C314 O313 1.208 . S
C315 O320 1.214 1_565 S
C315 O321 1.208 . S
C316 O308 1.315 . S
C316 O311 1.279 . S
C317 O318 1.315 . S
C317 O319 1.279 . S
O318 Cd310 2.223 . S
O318 C317 1.315 . S
O319 Cd309 2.240 . S
O319 C317 1.279 . S
O320 Cd310 2.291 1_545 S
O320 C315 1.214 1_545 S
O321 Cd310 2.439 . S
O321 C315 1.208 . S
O322 Cd323 2.223 . S
O322 C330 1.315 . S
Cd323 O322 2.223 . S
Cd323 O326 2.297 . S
Cd323 O327 2.439 . S
Cd323 O333 2.240 . S
Cd324 O325 2.240 . S
Cd324 O332 2.223 . S
Cd324 O334 2.297 . S
Cd324 O335 2.439 . S
O325 Cd324 2.240 . S
O325 C330 1.279 . S
O326 Cd323 2.297 . S
O326 C328 1.247 . S
O327 Cd323 2.439 . S
O327 C328 1.208 . S
C328 O326 1.247 . S
C328 O327 1.208 . S
C329 O334 1.247 . S
C329 O335 1.208 . S
C330 O322 1.315 . S
C330 O325 1.279 . S
C331 O332 1.315 . S
C331 O333 1.279 . S
O332 Cd324 2.223 . S
O332 C331 1.315 . S
O333 Cd323 2.240 . S
O333 C331 1.279 . S
O334 Cd324 2.297 . S
O334 C329 1.247 . S
O335 Cd324 2.439 . S
O335 C329 1.208 . S
O336 Cd337 2.223 . S
O336 C344 1.315 . S
Cd337 O336 2.223 . S
Cd337 O340 2.297 . S
Cd337 O341 2.439 . S
Cd337 O347 2.240 . S
Cd338 O339 2.240 . S
Cd338 O346 2.223 . S
Cd338 O348 2.291 1_545 S
Cd338 O349 2.439 . S
O339 Cd338 2.240 . S
O339 C344 1.279 . S
O340 Cd337 2.297 . S
O340 C342 1.247 . S
O341 Cd337 2.439 . S
O341 C342 1.208 . S
C342 O340 1.247 . S
C342 O341 1.208 . S
C343 O348 1.214 1_545 S
C343 O349 1.208 . S
C344 O336 1.315 . S
C344 O339 1.279 . S
C345 O346 1.315 . S
C345 O347 1.279 . S
O346 Cd338 2.223 . S
O346 C345 1.315 . S
O347 Cd337 2.240 . S
O347 C345 1.279 . S
O348 Cd338 2.291 1_565 S
O348 C343 1.214 1_565 S
O349 Cd338 2.439 . S
O349 C343 1.208 . S
O350 Cd351 2.223 . S
O350 C358 1.315 . S
Cd351 O350 2.223 . S
Cd351 O354 2.297 . S
Cd351 O355 2.439 . S
Cd351 O361 2.240 . S
Cd352 O353 2.240 . S
Cd352 O360 2.223 . S
Cd352 O362 2.297 . S
Cd352 O363 2.439 . S
O353 Cd352 2.240 . S
O353 C358 1.279 . S
O354 Cd351 2.297 . S
O354 C356 1.247 . S
O355 Cd351 2.439 . S
O355 C356 1.208 . S
C356 O354 1.247 . S
C356 O355 1.208 . S
C357 O362 1.247 . S
C357 O363 1.208 . S
C358 O350 1.315 . S
C358 O353 1.279 . S
C359 O360 1.315 . S
C359 O361 1.279 . S
O360 Cd352 2.223 . S
O360 C359 1.315 . S
O361 Cd351 2.240 . S
O361 C359 1.279 . S
O362 Cd352 2.297 . S
O362 C357 1.247 . S
O363 Cd352 2.439 . S
O363 C357 1.208 . S
O364 Cd365 2.223 . S
O364 C372 1.315 . S
Cd365 O364 2.223 . S
Cd365 O368 2.297 . S
Cd365 O369 2.439 1_556 S
Cd365 O375 2.240 1_556 S
Cd366 O367 2.240 1_554 S
Cd366 O374 2.223 . S
Cd366 O376 2.291 1_565 S
Cd366 O377 2.439 . S
O367 Cd366 2.240 1_556 S
O367 C372 1.279 . S
O368 Cd365 2.297 . S
O368 C370 1.247 . S
O369 Cd365 2.439 1_554 S
O369 C370 1.208 1_554 S
C370 O368 1.247 . S
C370 O369 1.208 1_556 S
C371 O376 1.215 1_565 S
C371 O377 1.208 . S
C372 O364 1.315 . S
C372 O367 1.279 . S
C373 O374 1.315 . S
C373 O375 1.279 . S
O374 Cd366 2.223 . S
O374 C373 1.315 . S
O375 Cd365 2.240 1_554 S
O375 C373 1.279 . S
O376 Cd366 2.291 1_545 S
O376 C371 1.215 1_545 S
O377 Cd366 2.439 . S
O377 C371 1.208 . S
O378 Cd379 2.223 . S
O378 C386 1.315 . S
Cd379 O378 2.223 . S
Cd379 O382 2.297 . S
Cd379 O383 2.439 . S
Cd379 O389 2.240 . S
Cd380 O381 2.240 . S
Cd380 O388 2.223 . S
Cd380 O390 2.297 . S
Cd380 O391 2.439 . S
O381 Cd380 2.240 . S
O381 C386 1.279 . S
O382 Cd379 2.297 . S
O382 C384 1.247 . S
O383 Cd379 2.439 . S
O383 C384 1.208 . S
C384 O382 1.247 . S
C384 O383 1.208 . S
C385 O390 1.247 . S
C385 O391 1.208 . S
C386 O378 1.315 . S
C386 O381 1.279 . S
C387 O388 1.315 . S
C387 O389 1.279 . S
O388 Cd380 2.223 . S
O388 C387 1.315 . S
O389 Cd379 2.240 . S
O389 C387 1.279 . S
O390 Cd380 2.297 . S
O390 C385 1.247 . S
O391 Cd380 2.439 . S
O391 C385 1.208 . S
O392 Cd393 2.223 . S
O392 C400 1.315 . S
Cd393 O392 2.223 . S
Cd393 O396 2.297 . S
Cd393 O397 2.439 . S
Cd393 O403 2.240 . S
Cd394 O395 2.240 . S
Cd394 O402 2.223 . S
Cd394 O404 2.291 1_564 S
Cd394 O405 2.439 1_554 S
O395 Cd394 2.240 . S
O395 C400 1.279 . S
O396 Cd393 2.297 . S
O396 C398 1.247 . S
O397 Cd393 2.439 . S
O397 C398 1.208 . S
C398 O396 1.247 . S
C398 O397 1.208 . S
C399 O404 1.216 1_565 S
C399 O405 1.208 . S
C400 O392 1.315 . S
C400 O395 1.279 . S
C401 O402 1.315 . S
C401 O403 1.279 . S
O402 Cd394 2.223 . S
O402 C401 1.315 . S
O403 Cd393 2.240 . S
O403 C401 1.279 . S
O404 Cd394 2.291 1_546 S
O404 C399 1.216 1_545 S
O405 Cd394 2.439 1_556 S
O405 C399 1.208 . S
O406 Cd407 2.223 . S
O406 C414 1.315 . S
Cd407 O406 2.223 . S
Cd407 O410 2.297 . S
Cd407 O411 2.439 . S
Cd407 O417 2.240 . S
Cd408 O409 2.240 . S
Cd408 O416 2.223 . S
Cd408 O418 2.297 . S
Cd408 O419 2.439 . S
O409 Cd408 2.240 . S
O409 C414 1.279 . S
O410 Cd407 2.297 . S
O410 C412 1.247 . S
O411 Cd407 2.439 . S
O411 C412 1.208 . S
C412 O410 1.247 . S
C412 O411 1.208 . S
C413 O418 1.247 . S
C413 O419 1.208 . S
C414 O406 1.315 . S
C414 O409 1.279 . S
C415 O416 1.315 . S
C415 O417 1.279 . S
O416 Cd408 2.223 . S
O416 C415 1.315 . S
O417 Cd407 2.240 . S
O417 C415 1.279 . S
O418 Cd408 2.297 . S
O418 C413 1.247 . S
O419 Cd408 2.439 . S
O419 C413 1.208 . S
O420 Cd421 2.223 . S
O420 C428 1.315 . S
Cd421 O420 2.223 . S
Cd421 O424 2.297 . S
Cd421 O425 2.439 . S
Cd421 O431 2.240 . S
Cd422 O423 2.240 . S
Cd422 O430 2.223 . S
Cd422 O432 2.291 1_545 S
Cd422 O433 2.439 . S
O423 Cd422 2.240 . S
O423 C428 1.279 . S
O424 Cd421 2.297 . S
O424 C426 1.247 . S
O425 Cd421 2.439 . S
O425 C426 1.208 . S
C426 O424 1.247 . S
C426 O425 1.208 . S
C427 O432 1.215 1_545 S
C427 O433 1.208 . S
C428 O420 1.315 . S
C428 O423 1.279 . S
C429 O430 1.315 . S
C429 O431 1.279 . S
O430 Cd422 2.223 . S
O430 C429 1.315 . S
O431 Cd421 2.240 . S
O431 C429 1.279 . S
O432 Cd422 2.291 1_565 S
O432 C427 1.215 1_565 S
O433 Cd422 2.439 . S
O433 C427 1.208 . S
O434 Cd435 2.223 . S
O434 C442 1.315 . S
Cd435 O434 2.223 . S
Cd435 O438 2.297 . S
Cd435 O439 2.439 . S
Cd435 O445 2.240 . S
Cd436 O437 2.240 . S
Cd436 O444 2.223 . S
Cd436 O446 2.297 . S
Cd436 O447 2.439 . S
O437 Cd436 2.240 . S
O437 C442 1.279 . S
O438 Cd435 2.297 . S
O438 C440 1.247 . S
O439 Cd435 2.439 . S
O439 C440 1.208 . S
C440 O438 1.247 . S
C440 O439 1.208 . S
C441 O446 1.247 . S
C441 O447 1.208 . S
C442 O434 1.315 . S
C442 O437 1.279 . S
C443 O444 1.315 . S
C443 O445 1.279 . S
O444 Cd436 2.223 . S
O444 C443 1.315 . S
O445 Cd435 2.240 . S
O445 C443 1.279 . S
O446 Cd436 2.297 . S
O446 C441 1.247 . S
O447 Cd436 2.439 . S
O447 C441 1.208 . S
H448 C456 0.950 . S
H449 C461 0.950 . S
H450 C458 0.950 . S
H451 C460 0.950 . S
H452 C462 0.950 . S
H453 C464 0.950 . S
H454 C466 0.950 . S
H455 C467 0.950 . S
C456 H448 0.950 . S
C456 C457 1.386 . S
C456 C458 1.391 . S
C457 C456 1.386 . S
C457 C461 1.393 . S
C458 H450 0.950 . S
C458 C456 1.391 . S
C458 C459 1.400 . S
C459 C458 1.400 . S
C459 C460 1.398 . S
C459 C465 1.491 1_655 S
C460 H451 0.950 . S
C460 C459 1.398 . S
C460 C461 1.391 . S
C461 H449 0.950 . S
C461 C457 1.393 . S
C461 C460 1.391 . S
C462 H452 0.950 . S
C462 C463 1.386 . S
C462 C464 1.391 . S
C463 C462 1.386 . S
C463 C467 1.393 . S
C464 H453 0.950 . S
C464 C462 1.391 . S
C464 C465 1.400 . S
C465 C459 1.491 1_455 S
C465 C464 1.400 . S
C465 C466 1.398 . S
C466 H454 0.950 . S
C466 C465 1.398 . S
C466 C467 1.391 . S
C467 H455 0.950 . S
C467 C463 1.393 . S
C467 C466 1.391 . S
H468 C476 0.950 . S
H469 C481 0.950 . S
H470 C478 0.950 . S
H471 C480 0.950 . S
H472 C482 0.950 . S
H473 C484 0.950 . S
H474 C486 0.950 . S
H475 C487 0.950 . S
C476 H468 0.950 . S
C476 C477 1.386 . S
C476 C478 1.391 . S
C477 C476 1.386 . S
C477 C481 1.393 . S
C478 H470 0.950 . S
C478 C476 1.391 . S
C478 C479 1.400 . S
C479 C478 1.400 . S
C479 C480 1.398 . S
C479 C485 1.491 . S
C480 H471 0.950 . S
C480 C479 1.398 . S
C480 C481 1.391 . S
C481 H469 0.950 . S
C481 C477 1.393 . S
C481 C480 1.391 . S
C482 H472 0.950 . S
C482 C483 1.386 . S
C482 C484 1.391 . S
C483 C482 1.386 . S
C483 C487 1.393 . S
C484 H473 0.950 . S
C484 C482 1.391 . S
C484 C485 1.400 . S
C485 C479 1.491 . S
C485 C484 1.400 . S
C485 C486 1.398 . S
C486 H474 0.950 . S
C486 C485 1.398 . S
C486 C487 1.391 . S
C487 H475 0.950 . S
C487 C483 1.393 . S
C487 C486 1.391 . S
H488 C496 0.950 . S
H489 C501 0.950 . S
H490 C498 0.950 . S
H491 C500 0.950 . S
H492 C502 0.950 . S
H493 C504 0.950 . S
H494 C506 0.950 . S
H495 C507 0.950 . S
C496 H488 0.950 . S
C496 C497 1.386 . S
C496 C498 1.391 . S
C497 C496 1.386 . S
C497 C501 1.393 . S
C498 H490 0.950 . S
C498 C496 1.391 . S
C498 C499 1.400 . S
C499 C498 1.400 . S
C499 C500 1.398 . S
C499 C505 1.491 . S
C500 H491 0.950 . S
C500 C499 1.398 . S
C500 C501 1.391 . S
C501 H489 0.950 . S
C501 C497 1.393 . S
C501 C500 1.391 . S
C502 H492 0.950 . S
C502 C503 1.386 . S
C502 C504 1.391 . S
C503 C502 1.386 . S
C503 C507 1.393 . S
C504 H493 0.950 . S
C504 C502 1.391 . S
C504 C505 1.400 . S
C505 C499 1.491 . S
C505 C504 1.400 . S
C505 C506 1.398 . S
C506 H494 0.950 . S
C506 C505 1.398 . S
C506 C507 1.391 . S
C507 H495 0.950 . S
C507 C503 1.393 . S
C507 C506 1.391 . S
H508 C516 0.950 . S
H509 C521 0.950 . S
H510 C518 0.950 . S
H511 C520 0.950 . S
H512 C522 0.950 . S
H513 C524 0.950 . S
H514 C526 0.950 . S
H515 C527 0.950 . S
C516 H508 0.950 . S
C516 C517 1.386 . S
C516 C518 1.391 . S
C517 C516 1.386 . S
C517 C521 1.393 . S
C518 H510 0.950 . S
C518 C516 1.391 . S
C518 C519 1.400 . S
C519 C518 1.400 . S
C519 C520 1.398 . S
C519 C525 1.491 . S
C520 H511 0.950 . S
C520 C519 1.398 . S
C520 C521 1.391 . S
C521 H509 0.950 . S
C521 C517 1.393 . S
C521 C520 1.391 . S
C522 H512 0.950 . S
C522 C523 1.386 . S
C522 C524 1.391 . S
C523 C522 1.386 . S
C523 C527 1.393 . S
C524 H513 0.950 . S
C524 C522 1.391 . S
C524 C525 1.400 . S
C525 C519 1.491 . S
C525 C524 1.400 . S
C525 C526 1.398 . S
C526 H514 0.950 . S
C526 C525 1.398 . S
C526 C527 1.391 . S
C527 H515 0.950 . S
C527 C523 1.393 . S
C527 C526 1.391 . S
H528 C536 0.950 . S
H529 C541 0.950 . S
H530 C538 0.950 . S
H531 C540 0.950 . S
H532 C542 0.950 . S
H533 C544 0.950 . S
H534 C546 0.950 . S
H535 C547 0.950 . S
C536 H528 0.950 . S
C536 C537 1.386 . S
C536 C538 1.391 . S
C537 C536 1.386 . S
C537 C541 1.393 . S
C538 H530 0.950 . S
C538 C536 1.391 . S
C538 C539 1.400 . S
C539 C538 1.400 . S
C539 C540 1.398 . S
C539 C545 1.491 1_455 S
C540 H531 0.950 . S
C540 C539 1.398 . S
C540 C541 1.391 . S
C541 H529 0.950 . S
C541 C537 1.393 . S
C541 C540 1.391 . S
C542 H532 0.950 . S
C542 C543 1.386 . S
C542 C544 1.391 . S
C543 C542 1.386 . S
C543 C547 1.393 . S
C544 H533 0.950 . S
C544 C542 1.391 . S
C544 C545 1.400 . S
C545 C539 1.491 1_655 S
C545 C544 1.400 . S
C545 C546 1.398 . S
C546 H534 0.950 . S
C546 C545 1.398 . S
C546 C547 1.391 . S
C547 H535 0.950 . S
C547 C543 1.393 . S
C547 C546 1.391 . S
H548 C556 0.950 . S
H549 C561 0.950 . S
H550 C558 0.950 . S
H551 C560 0.950 . S
H552 C562 0.950 . S
H553 C564 0.950 . S
H554 C566 0.950 . S
H555 C567 0.950 . S
C556 H548 0.950 . S
C556 C557 1.386 . S
C556 C558 1.391 . S
C557 C556 1.386 . S
C557 C561 1.393 . S
C558 H550 0.950 . S
C558 C556 1.391 . S
C558 C559 1.400 . S
C559 C558 1.400 . S
C559 C560 1.398 . S
C559 C565 1.491 . S
C560 H551 0.950 . S
C560 C559 1.398 . S
C560 C561 1.391 . S
C561 H549 0.950 . S
C561 C557 1.393 . S
C561 C560 1.391 . S
C562 H552 0.950 . S
C562 C563 1.386 . S
C562 C564 1.391 . S
C563 C562 1.386 . S
C563 C567 1.393 . S
C564 H553 0.950 . S
C564 C562 1.391 . S
C564 C565 1.400 . S
C565 C559 1.491 . S
C565 C564 1.400 . S
C565 C566 1.398 . S
C566 H554 0.950 . S
C566 C565 1.398 . S
C566 C567 1.391 . S
C567 H555 0.950 . S
C567 C563 1.393 . S
C567 C566 1.391 . S
H568 C576 0.950 . S
H569 C581 0.950 . S
H570 C578 0.950 . S
H571 C580 0.950 . S
H572 C582 0.950 . S
H573 C584 0.950 . S
H574 C586 0.950 . S
H575 C587 0.950 . S
C576 H568 0.950 . S
C576 C577 1.386 . S
C576 C578 1.391 . S
C577 C576 1.386 . S
C577 C581 1.393 . S
C578 H570 0.950 . S
C578 C576 1.391 . S
C578 C579 1.400 . S
C579 C578 1.400 . S
C579 C580 1.398 . S
C579 C585 1.491 . S
C580 H571 0.950 . S
C580 C579 1.398 . S
C580 C581 1.391 . S
C581 H569 0.950 . S
C581 C577 1.393 . S
C581 C580 1.391 . S
C582 H572 0.950 . S
C582 C583 1.386 . S
C582 C584 1.391 . S
C583 C582 1.386 . S
C583 C587 1.393 . S
C584 H573 0.950 . S
C584 C582 1.391 . S
C584 C585 1.400 . S
C585 C579 1.491 . S
C585 C584 1.400 . S
C585 C586 1.398 . S
C586 H574 0.950 . S
C586 C585 1.398 . S
C586 C587 1.391 . S
C587 H575 0.950 . S
C587 C583 1.393 . S
C587 C586 1.391 . S
H588 C596 0.950 . S
H589 C601 0.950 . S
H590 C598 0.950 . S
H591 C600 0.950 . S
H592 C602 0.950 . S
H593 C604 0.950 . S
H594 C606 0.950 . S
H595 C607 0.950 . S
C596 H588 0.950 . S
C596 C597 1.386 . S
C596 C598 1.391 . S
C597 C596 1.386 . S
C597 C601 1.393 . S
C598 H590 0.950 . S
C598 C596 1.391 . S
C598 C599 1.400 . S
C599 C598 1.400 . S
C599 C600 1.398 . S
C599 C605 1.491 . S
C600 H591 0.950 . S
C600 C599 1.398 . S
C600 C601 1.391 . S
C601 H589 0.950 . S
C601 C597 1.393 . S
C601 C600 1.391 . S
C602 H592 0.950 . S
C602 C603 1.386 . S
C602 C604 1.391 . S
C603 C602 1.386 . S
C603 C607 1.393 . S
C604 H593 0.950 . S
C604 C602 1.391 . S
C604 C605 1.400 . S
C605 C599 1.491 . S
C605 C604 1.400 . S
C605 C606 1.398 . S
C606 H594 0.950 . S
C606 C605 1.398 . S
C606 C607 1.391 . S
C607 H595 0.950 . S
C607 C603 1.393 . S
C607 C606 1.391 . S
H608 C616 0.950 . S
H609 C621 0.950 . S
H610 C618 0.950 . S
H611 C620 0.950 . S
H612 C622 0.950 . S
H613 C624 0.950 . S
H614 C626 0.950 . S
H615 C627 0.950 . S
C616 H608 0.950 . S
C616 C617 1.386 . S
C616 C618 1.391 . S
C617 C616 1.386 . S
C617 C621 1.393 . S
C618 H610 0.950 . S
C618 C616 1.391 . S
C618 C619 1.400 . S
C619 C618 1.400 . S
C619 C620 1.398 . S
C619 C625 1.491 . S
C620 H611 0.950 . S
C620 C619 1.398 . S
C620 C621 1.391 . S
C621 H609 0.950 . S
C621 C617 1.393 . S
C621 C620 1.391 . S
C622 H612 0.950 . S
C622 C623 1.386 . S
C622 C624 1.391 . S
C623 C622 1.386 . S
C623 C627 1.393 . S
C624 H613 0.950 . S
C624 C622 1.391 . S
C624 C625 1.400 . S
C625 C619 1.491 . S
C625 C624 1.400 . S
C625 C626 1.398 . S
C626 H614 0.950 . S
C626 C625 1.398 . S
C626 C627 1.391 . S
C627 H615 0.950 . S
C627 C623 1.393 . S
C627 C626 1.391 . S
H628 C636 0.950 . S
H629 C641 0.950 . S
H630 C638 0.950 . S
H631 C640 0.950 . S
H632 C642 0.950 . S
H633 C644 0.950 . S
H634 C646 0.950 . S
H635 C647 0.950 . S
C636 H628 0.950 . S
C636 C637 1.386 . S
C636 C638 1.391 . S
C637 C636 1.386 . S
C637 C641 1.393 . S
C638 H630 0.950 . S
C638 C636 1.391 . S
C638 C639 1.400 . S
C639 C638 1.400 . S
C639 C640 1.398 . S
C639 C645 1.491 . S
C640 H631 0.950 . S
C640 C639 1.398 . S
C640 C641 1.391 . S
C641 H629 0.950 . S
C641 C637 1.393 . S
C641 C640 1.391 . S
C642 H632 0.950 . S
C642 C643 1.386 . S
C642 C644 1.391 . S
C643 C642 1.386 . S
C643 C647 1.393 . S
C644 H633 0.950 . S
C644 C642 1.391 . S
C644 C645 1.400 . S
C645 C639 1.491 . S
C645 C644 1.400 . S
C645 C646 1.398 . S
C646 H634 0.950 . S
C646 C645 1.398 . S
C646 C647 1.391 . S
C647 H635 0.950 . S
C647 C643 1.393 . S
C647 C646 1.391 . S
H648 C656 0.950 . S
H649 C661 0.950 . S
H650 C658 0.950 . S
H651 C660 0.950 . S
H652 C662 0.950 . S
H653 C664 0.950 . S
H654 C666 0.950 . S
H655 C667 0.950 . S
C656 H648 0.950 . S
C656 C657 1.386 . S
C656 C658 1.391 . S
C657 C656 1.386 . S
C657 C661 1.393 . S
C658 H650 0.950 . S
C658 C656 1.391 . S
C658 C659 1.400 . S
C659 C658 1.400 . S
C659 C660 1.398 . S
C659 C665 1.491 . S
C660 H651 0.950 . S
C660 C659 1.398 . S
C660 C661 1.391 . S
C661 H649 0.950 . S
C661 C657 1.393 . S
C661 C660 1.391 . S
C662 H652 0.950 . S
C662 C663 1.386 . S
C662 C664 1.391 . S
C663 C662 1.386 . S
C663 C667 1.393 . S
C664 H653 0.950 . S
C664 C662 1.391 . S
C664 C665 1.400 . S
C665 C659 1.491 . S
C665 C664 1.400 . S
C665 C666 1.398 . S
C666 H654 0.950 . S
C666 C665 1.398 . S
C666 C667 1.391 . S
C667 H655 0.950 . S
C667 C663 1.393 . S
C667 C666 1.391 . S
H668 C676 0.950 . S
H669 C681 0.950 . S
H670 C678 0.950 . S
H671 C680 0.950 . S
H672 C682 0.950 . S
H673 C684 0.950 . S
H674 C686 0.950 . S
H675 C687 0.950 . S
C676 H668 0.950 . S
C676 C677 1.386 . S
C676 C678 1.391 . S
C677 C676 1.386 . S
C677 C681 1.393 . S
C678 H670 0.950 . S
C678 C676 1.391 . S
C678 C679 1.400 . S
C679 C678 1.400 . S
C679 C680 1.398 . S
C679 C685 1.491 . S
C680 H671 0.950 . S
C680 C679 1.398 . S
C680 C681 1.391 . S
C681 H669 0.950 . S
C681 C677 1.393 . S
C681 C680 1.391 . S
C682 H672 0.950 . S
C682 C683 1.386 . S
C682 C684 1.391 . S
C683 C682 1.386 . S
C683 C687 1.393 . S
C684 H673 0.950 . S
C684 C682 1.391 . S
C684 C685 1.400 . S
C685 C679 1.491 . S
C685 C684 1.400 . S
C685 C686 1.398 . S
C686 H674 0.950 . S
C686 C685 1.398 . S
C686 C687 1.391 . S
C687 H675 0.950 . S
C687 C683 1.393 . S
C687 C686 1.391 . S
H688 C696 0.950 . S
H689 C701 0.950 . S
H690 C698 0.988 . S
H691 C700 0.950 . S
H692 C702 0.950 . S
H693 C704 0.986 . S
H694 C706 0.950 . S
H695 C707 0.950 . S
C696 H688 0.950 . S
C696 C697 1.386 . S
C696 C698 1.370 1_545 S
C697 C696 1.386 . S
C697 C701 1.393 . S
C698 H690 0.988 . S
C698 C696 1.370 1_565 S
C698 C699 1.387 1_565 S
C699 C698 1.387 1_545 S
C699 C700 1.398 . S
C699 C705 1.491 1_545 S
C700 H691 0.950 . S
C700 C699 1.398 . S
C700 C701 1.391 . S
C701 H689 0.950 . S
C701 C697 1.393 . S
C701 C700 1.391 . S
C702 H692 0.950 . S
C702 C703 1.386 . S
C702 C704 1.371 1_565 S
C703 C702 1.386 . S
C703 C707 1.393 . S
C704 H693 0.986 . S
C704 C702 1.371 1_545 S
C704 C705 1.387 1_545 S
C705 C699 1.491 1_565 S
C705 C704 1.387 1_565 S
C705 C706 1.398 . S
C706 H694 0.950 . S
C706 C705 1.398 . S
C706 C707 1.391 . S
C707 H695 0.950 . S
C707 C703 1.393 . S
C707 C706 1.391 . S
H708 C716 0.923 1_565 S
H709 C721 0.950 . S
H710 C718 0.950 . S
H711 C720 0.950 . S
H712 C722 0.924 1_545 S
H713 C724 0.950 . S
H714 C726 0.950 . S
H715 C727 0.950 . S
C716 H708 0.923 1_545 S
C716 C717 1.432 . S
C716 C718 1.373 1_545 S
C717 C716 1.432 . S
C717 C721 1.393 . S
C718 H710 0.950 . S
C718 C716 1.373 1_565 S
C718 C719 1.400 1_565 S
C719 C718 1.400 1_545 S
C719 C720 1.398 . S
C719 C725 1.491 1_645 S
C720 H711 0.950 . S
C720 C719 1.398 . S
C720 C721 1.391 . S
C721 H709 0.950 . S
C721 C717 1.393 . S
C721 C720 1.391 . S
C722 H712 0.924 1_565 S
C722 C723 1.430 . S
C722 C724 1.374 1_565 S
C723 C722 1.430 . S
C723 C727 1.393 . S
C724 H713 0.950 . S
C724 C722 1.374 1_545 S
C724 C725 1.400 1_545 S
C725 C719 1.491 1_465 S
C725 C724 1.400 1_565 S
C725 C726 1.398 . S
C726 H714 0.950 . S
C726 C725 1.398 . S
C726 C727 1.391 . S
C727 H715 0.950 . S
C727 C723 1.393 . S
C727 C726 1.391 . S
H728 C736 0.950 . S
H729 C741 0.950 . S
H730 C738 0.950 . S
H731 C740 0.950 . S
H732 C742 0.950 . S
H733 C744 0.950 . S
H734 C746 0.950 1_556 S
H735 C747 0.950 1_556 S
C736 H728 0.950 . S
C736 C737 1.386 1_556 S
C736 C738 1.391 . S
C737 C736 1.386 1_554 S
C737 C741 1.393 . S
C738 H730 0.950 . S
C738 C736 1.391 . S
C738 C739 1.400 1_556 S
C739 C738 1.400 1_554 S
C739 C740 1.398 . S
C739 C745 1.491 1_545 S
C740 H731 0.950 . S
C740 C739 1.398 . S
C740 C741 1.391 . S
C741 H729 0.950 . S
C741 C737 1.393 . S
C741 C740 1.391 . S
C742 H732 0.950 . S
C742 C743 1.386 . S
C742 C744 1.391 . S
C743 C742 1.386 . S
C743 C747 1.393 . S
C744 H733 0.950 . S
C744 C742 1.391 . S
C744 C745 1.400 . S
C745 C739 1.491 1_565 S
C745 C744 1.400 . S
C745 C746 1.398 . S
C746 H734 0.950 1_554 S
C746 C745 1.398 . S
C746 C747 1.391 . S
C747 H735 0.950 1_554 S
C747 C743 1.393 . S
C747 C746 1.391 . S
H748 C756 0.950 . S
H749 C761 0.930 1_565 S
H750 C758 0.950 . S
H751 C760 0.950 . S
H752 C762 0.950 . S
H753 C764 0.950 . S
H754 C766 0.950 . S
H755 C767 0.931 1_545 S
C756 H748 0.950 . S
C756 C757 1.386 . S
C756 C758 1.391 . S
C757 C756 1.386 . S
C757 C761 1.426 . S
C758 H750 0.950 . S
C758 C756 1.391 . S
C758 C759 1.400 . S
C759 C758 1.400 . S
C759 C760 1.398 1_545 S
C759 C765 1.491 1_445 S
C760 H751 0.950 . S
C760 C759 1.398 1_565 S
C760 C761 1.378 1_565 S
C761 H749 0.930 1_545 S
C761 C757 1.426 . S
C761 C760 1.378 1_545 S
C762 H752 0.950 . S
C762 C763 1.386 . S
C762 C764 1.391 . S
C763 C762 1.386 . S
C763 C767 1.424 . S
C764 H753 0.950 . S
C764 C762 1.391 . S
C764 C765 1.400 . S
C765 C759 1.491 1_665 S
C765 C764 1.400 . S
C765 C766 1.398 1_565 S
C766 H754 0.950 . S
C766 C765 1.398 1_545 S
C766 C767 1.379 1_545 S
C767 H755 0.931 1_565 S
C767 C763 1.424 . S
C767 C766 1.379 1_565 S
H768 C776 0.950 . S
H769 C781 0.950 . S
H770 C778 0.950 . S
H771 C780 0.950 . S
H772 C782 0.950 . S
H773 C784 0.950 . S
H774 C786 0.950 . S
H775 C787 0.950 . S
C776 H768 0.950 . S
C776 C777 1.386 . S
C776 C778 1.391 . S
C777 C776 1.386 . S
C777 C781 1.393 . S
C778 H770 0.950 . S
C778 C776 1.391 . S
C778 C779 1.400 . S
C779 C778 1.400 . S
C779 C780 1.398 . S
C779 C785 1.491 . S
C780 H771 0.950 . S
C780 C779 1.398 . S
C780 C781 1.391 . S
C781 H769 0.950 . S
C781 C777 1.393 . S
C781 C780 1.391 . S
C782 H772 0.950 . S
C782 C783 1.386 . S
C782 C784 1.391 . S
C783 C782 1.386 . S
C783 C787 1.393 . S
C784 H773 0.950 . S
C784 C782 1.391 . S
C784 C785 1.400 . S
C785 C779 1.491 . S
C785 C784 1.400 . S
C785 C786 1.398 . S
C786 H774 0.950 . S
C786 C785 1.398 . S
C786 C787 1.391 . S
C787 H775 0.950 . S
C787 C783 1.393 . S
C787 C786 1.391 . S
H788 C796 0.950 . S
H789 C801 0.950 . S
H790 C798 0.950 . S
H791 C800 0.950 . S
H792 C802 0.950 . S
H793 C804 0.950 . S
H794 C806 0.950 . S
H795 C807 0.950 . S
C796 H788 0.950 . S
C796 C797 1.386 . S
C796 C798 1.391 . S
C797 C796 1.386 . S
C797 C801 1.393 . S
C798 H790 0.950 . S
C798 C796 1.391 . S
C798 C799 1.400 1_556 S
C799 C798 1.400 1_554 S
C799 C800 1.398 . S
C799 C805 1.491 . S
C800 H791 0.950 . S
C800 C799 1.398 . S
C800 C801 1.391 1_554 S
C801 H789 0.950 . S
C801 C797 1.393 . S
C801 C800 1.391 1_556 S
C802 H792 0.950 . S
C802 C803 1.386 . S
C802 C804 1.391 . S
C803 C802 1.386 . S
C803 C807 1.393 . S
C804 H793 0.950 . S
C804 C802 1.391 . S
C804 C805 1.400 . S
C805 C799 1.491 . S
C805 C804 1.400 . S
C805 C806 1.398 . S
C806 H794 0.950 . S
C806 C805 1.398 . S
C806 C807 1.391 . S
C807 H795 0.950 . S
C807 C803 1.393 . S
C807 C806 1.391 . S
H808 C816 0.950 . S
H809 C821 0.950 . S
H810 C818 0.950 . S
H811 C820 0.950 . S
H812 C822 0.950 . S
H813 C824 0.950 . S
H814 C826 0.950 . S
H815 C827 0.950 . S
C816 H808 0.950 . S
C816 C817 1.386 . S
C816 C818 1.391 . S
C817 C816 1.386 . S
C817 C821 1.393 . S
C818 H810 0.950 . S
C818 C816 1.391 . S
C818 C819 1.400 . S
C819 C818 1.400 . S
C819 C820 1.398 . S
C819 C825 1.491 . S
C820 H811 0.950 . S
C820 C819 1.398 . S
C820 C821 1.391 . S
C821 H809 0.950 . S
C821 C817 1.393 . S
C821 C820 1.391 . S
C822 H812 0.950 . S
C822 C823 1.386 . S
C822 C824 1.391 . S
C823 C822 1.386 . S
C823 C827 1.393 . S
C824 H813 0.950 . S
C824 C822 1.391 . S
C824 C825 1.400 . S
C825 C819 1.491 . S
C825 C824 1.400 . S
C825 C826 1.398 . S
C826 H814 0.950 . S
C826 C825 1.398 . S
C826 C827 1.391 . S
C827 H815 0.950 . S
C827 C823 1.393 . S
C827 C826 1.391 . S
H828 C836 0.950 . S
H829 C841 0.950 . S
H830 C838 0.950 . S
H831 C840 0.950 . S
H832 C842 0.950 . S
H833 C844 0.950 . S
H834 C846 0.950 . S
H835 C847 0.950 . S
C836 H828 0.950 . S
C836 C837 1.386 . S
C836 C838 1.391 . S
C837 C836 1.386 . S
C837 C841 1.393 . S
C838 H830 0.950 . S
C838 C836 1.391 . S
C838 C839 1.400 . S
C839 C838 1.400 . S
C839 C840 1.398 . S
C839 C845 1.491 . S
C840 H831 0.950 . S
C840 C839 1.398 . S
C840 C841 1.391 . S
C841 H829 0.950 . S
C841 C837 1.393 . S
C841 C840 1.391 . S
C842 H832 0.950 . S
C842 C843 1.386 . S
C842 C844 1.391 . S
C843 C842 1.386 . S
C843 C847 1.393 . S
C844 H833 0.950 . S
C844 C842 1.391 . S
C844 C845 1.400 . S
C845 C839 1.491 . S
C845 C844 1.400 . S
C845 C846 1.398 . S
C846 H834 0.950 . S
C846 C845 1.398 . S
C846 C847 1.391 . S
C847 H835 0.950 . S
C847 C843 1.393 . S
C847 C846 1.391 . S
H848 C856 0.950 . S
H849 C861 0.950 . S
H850 C858 0.950 . S
H851 C860 0.950 . S
H852 C862 0.950 . S
H853 C864 0.950 . S
H854 C866 0.950 . S
H855 C867 0.950 . S
C856 H848 0.950 . S
C856 C857 1.386 . S
C856 C858 1.391 . S
C857 C856 1.386 . S
C857 C861 1.393 . S
C858 H850 0.950 . S
C858 C856 1.391 . S
C858 C859 1.400 . S
C859 C858 1.400 . S
C859 C860 1.398 . S
C859 C865 1.491 . S
C860 H851 0.950 . S
C860 C859 1.398 . S
C860 C861 1.391 . S
C861 H849 0.950 . S
C861 C857 1.393 . S
C861 C860 1.391 . S
C862 H852 0.950 . S
C862 C863 1.386 . S
C862 C864 1.391 . S
C863 C862 1.386 . S
C863 C867 1.393 . S
C864 H853 0.950 . S
C864 C862 1.391 . S
C864 C865 1.400 . S
C865 C859 1.491 . S
C865 C864 1.400 . S
C865 C866 1.398 . S
C866 H854 0.950 . S
C866 C865 1.398 . S
C866 C867 1.391 . S
C867 H855 0.950 . S
C867 C863 1.393 . S
C867 C866 1.391 . S
H868 C876 0.950 . S
H869 C881 0.950 . S
H870 C878 0.950 1_554 S
H871 C880 0.950 1_554 S
H872 C882 0.950 . S
H873 C884 0.950 . S
H874 C886 0.950 . S
H875 C887 0.950 . S
C876 H868 0.950 . S
C876 C877 1.386 . S
C876 C878 1.391 . S
C877 C876 1.386 . S
C877 C881 1.393 . S
C878 H870 0.950 1_556 S
C878 C876 1.391 . S
C878 C879 1.400 1_556 S
C879 C878 1.400 1_554 S
C879 C880 1.398 1_554 S
C879 C885 1.491 . S
C880 H871 0.950 1_556 S
C880 C879 1.398 1_556 S
C880 C881 1.391 . S
C881 H869 0.950 . S
C881 C877 1.393 . S
C881 C880 1.391 . S
C882 H872 0.950 . S
C882 C883 1.386 . S
C882 C884 1.391 . S
C883 C882 1.386 . S
C883 C887 1.393 . S
C884 H873 0.950 . S
C884 C882 1.391 . S
C884 C885 1.400 . S
C885 C879 1.491 . S
C885 C884 1.400 . S
C885 C886 1.398 . S
C886 H874 0.950 . S
C886 C885 1.398 . S
C886 C887 1.391 . S
C887 H875 0.950 . S
C887 C883 1.393 . S
C887 C886 1.391 . S
H888 C896 0.950 . S
H889 C901 0.950 . S
H890 C898 0.950 . S
H891 C900 0.950 . S
H892 C902 0.950 . S
H893 C904 0.950 . S
H894 C906 0.950 . S
H895 C907 0.950 . S
C896 H888 0.950 . S
C896 C897 1.386 . S
C896 C898 1.391 . S
C897 C896 1.386 . S
C897 C901 1.393 . S
C898 H890 0.950 . S
C898 C896 1.391 . S
C898 C899 1.400 . S
C899 C898 1.400 . S
C899 C900 1.398 . S
C899 C905 1.491 . S
C900 H891 0.950 . S
C900 C899 1.398 . S
C900 C901 1.391 . S
C901 H889 0.950 . S
C901 C897 1.393 . S
C901 C900 1.391 . S
C902 H892 0.950 . S
C902 C903 1.386 . S
C902 C904 1.391 . S
C903 C902 1.386 . S
C903 C907 1.393 . S
C904 H893 0.950 . S
C904 C902 1.391 . S
C904 C905 1.400 . S
C905 C899 1.491 . S
C905 C904 1.400 . S
C905 C906 1.398 . S
C906 H894 0.950 . S
C906 C905 1.398 . S
C906 C907 1.391 . S
C907 H895 0.950 . S
C907 C903 1.393 . S
C907 C906 1.391 . S
H908 C916 0.950 . S
H909 C921 0.950 . S
H910 C918 0.950 . S
H911 C920 0.950 . S
H912 C922 0.950 . S
H913 C924 0.950 . S
H914 C926 0.950 . S
H915 C927 0.950 . S
C916 H908 0.950 . S
C916 C917 1.386 . S
C916 C918 1.391 . S
C917 C916 1.386 . S
C917 C921 1.393 . S
C918 H910 0.950 . S
C918 C916 1.391 . S
C918 C919 1.400 . S
C919 C918 1.400 . S
C919 C920 1.398 . S
C919 C925 1.491 . S
C920 H911 0.950 . S
C920 C919 1.398 . S
C920 C921 1.391 . S
C921 H909 0.950 . S
C921 C917 1.393 . S
C921 C920 1.391 . S
C922 H912 0.950 . S
C922 C923 1.386 . S
C922 C924 1.391 . S
C923 C922 1.386 . S
C923 C927 1.393 . S
C924 H913 0.950 . S
C924 C922 1.391 . S
C924 C925 1.400 . S
C925 C919 1.491 . S
C925 C924 1.400 . S
C925 C926 1.398 . S
C926 H914 0.950 . S
C926 C925 1.398 . S
C926 C927 1.391 . S
C927 H915 0.950 . S
C927 C923 1.393 . S
C927 C926 1.391 . S
H928 C936 0.950 . S
H929 C941 0.950 . S
H930 C938 0.950 . S
H931 C940 0.950 . S
H932 C942 0.950 . S
H933 C944 0.950 . S
H934 C946 0.950 . S
H935 C947 0.950 . S
C936 H928 0.950 . S
C936 C937 1.386 1_565 S
C936 C938 1.391 . S
C937 C936 1.386 1_545 S
C937 C941 1.393 . S
C938 H930 0.950 . S
C938 C936 1.391 . S
C938 C939 1.400 1_565 S
C939 C938 1.400 1_545 S
C939 C940 1.398 . S
C939 C945 1.491 1_545 S
C940 H931 0.950 . S
C940 C939 1.398 . S
C940 C941 1.391 . S
C941 H929 0.950 . S
C941 C937 1.393 . S
C941 C940 1.391 . S
C942 H932 0.950 . S
C942 C943 1.386 1_545 S
C942 C944 1.391 . S
C943 C942 1.386 1_565 S
C943 C947 1.393 . S
C944 H933 0.950 . S
C944 C942 1.391 . S
C944 C945 1.400 1_545 S
C945 C939 1.491 1_565 S
C945 C944 1.400 1_565 S
C945 C946 1.398 . S
C946 H934 0.950 . S
C946 C945 1.398 . S
C946 C947 1.391 . S
C947 H935 0.950 . S
C947 C943 1.393 . S
C947 C946 1.391 . S
H948 C956 0.950 . S
H949 C961 0.950 . S
H950 C958 0.950 . S
H951 C960 0.950 . S
H952 C962 0.950 . S
H953 C964 0.950 . S
H954 C966 0.950 . S
H955 C967 0.950 . S
C956 H948 0.950 . S
C956 C957 1.386 . S
C956 C958 1.391 . S
C957 C956 1.386 . S
C957 C961 1.393 . S
C958 H950 0.950 . S
C958 C956 1.391 . S
C958 C959 1.400 . S
C959 C958 1.400 . S
C959 C960 1.398 . S
C959 C965 1.491 . S
C960 H951 0.950 . S
C960 C959 1.398 . S
C960 C961 1.391 . S
C961 H949 0.950 . S
C961 C957 1.393 . S
C961 C960 1.391 . S
C962 H952 0.950 . S
C962 C963 1.386 . S
C962 C964 1.391 . S
C963 C962 1.386 . S
C963 C967 1.393 . S
C964 H953 0.950 . S
C964 C962 1.391 . S
C964 C965 1.400 . S
C965 C959 1.491 . S
C965 C964 1.400 . S
C965 C966 1.398 . S
C966 H954 0.950 . S
C966 C965 1.398 . S
C966 C967 1.391 . S
C967 H955 0.950 . S
C967 C963 1.393 . S
C967 C966 1.391 . S
H968 C976 0.950 . S
H969 C981 0.950 . S
H970 C978 0.950 . S
H971 C980 0.952 . S
H972 C982 0.950 . S
H973 C984 0.950 . S
H974 C986 0.953 . S
H975 C987 0.950 . S
C976 H968 0.950 . S
C976 C977 1.386 . S
C976 C978 1.391 . S
C977 C976 1.386 . S
C977 C981 1.393 . S
C978 H970 0.950 . S
C978 C976 1.391 . S
C978 C979 1.400 . S
C979 C978 1.400 . S
C979 C980 1.398 1_545 S
C979 C985 1.491 1_545 S
C980 H971 0.952 . S
C980 C979 1.398 1_565 S
C980 C981 1.390 1_565 S
C981 H969 0.950 . S
C981 C977 1.393 . S
C981 C980 1.390 1_545 S
C982 H972 0.950 . S
C982 C983 1.386 . S
C982 C984 1.391 . S
C983 C982 1.386 . S
C983 C987 1.393 . S
C984 H973 0.950 . S
C984 C982 1.391 . S
C984 C985 1.400 . S
C985 C979 1.491 1_565 S
C985 C984 1.400 . S
C985 C986 1.397 1_565 S
C986 H974 0.953 . S
C986 C985 1.397 1_545 S
C986 C987 1.389 1_545 S
C987 H975 0.950 . S
C987 C983 1.393 . S
C987 C986 1.389 1_565 S
H988 C996 0.950 . S
H989 C1001 0.950 . S
H990 C998 0.950 . S
H991 C1000 0.950 . S
H992 C1002 0.950 . S
H993 C1004 0.950 . S
H994 C1006 0.950 . S
H995 C1007 0.950 . S
C996 H988 0.950 . S
C996 C997 1.386 . S
C996 C998 1.391 1_556 S
C997 C996 1.386 . S
C997 C1001 1.393 . S
C998 H990 0.950 . S
C998 C996 1.391 1_554 S
C998 C999 1.400 . S
C999 C998 1.400 . S
C999 C1000 1.398 1_554 S
C999 C1005 1.491 . S
C1000 H991 0.950 . S
C1000 C999 1.398 1_556 S
C1000 C1001 1.391 . S
C1001 H989 0.950 . S
C1001 C997 1.393 . S
C1001 C1000 1.391 . S
C1002 H992 0.950 . S
C1002 C1003 1.386 . S
C1002 C1004 1.391 . S
C1003 C1002 1.386 . S
C1003 C1007 1.393 . S
C1004 H993 0.950 . S
C1004 C1002 1.391 . S
C1004 C1005 1.400 . S
C1005 C999 1.491 . S
C1005 C1004 1.400 . S
C1005 C1006 1.398 . S
C1006 H994 0.950 . S
C1006 C1005 1.398 . S
C1006 C1007 1.391 . S
C1007 H995 0.950 . S
C1007 C1003 1.393 . S
C1007 C1006 1.391 . S
H1008 C1016 0.950 . S
H1009 C1021 0.950 . S
H1010 C1018 0.950 . S
H1011 C1020 0.950 . S
H1012 C1022 0.950 . S
H1013 C1024 0.950 . S
H1014 C1026 0.950 . S
H1015 C1027 0.950 . S
C1016 H1008 0.950 . S
C1016 C1017 1.386 . S
C1016 C1018 1.391 . S
C1017 C1016 1.386 . S
C1017 C1021 1.393 1_565 S
C1018 H1010 0.950 . S
C1018 C1016 1.391 . S
C1018 C1019 1.400 . S
C1019 C1018 1.400 . S
C1019 C1020 1.398 1_565 S
C1019 C1025 1.491 1_565 S
C1020 H1011 0.950 . S
C1020 C1019 1.398 1_545 S
C1020 C1021 1.391 . S
C1021 H1009 0.950 . S
C1021 C1017 1.393 1_545 S
C1021 C1020 1.391 . S
C1022 H1012 0.950 . S
C1022 C1023 1.386 . S
C1022 C1024 1.391 . S
C1023 C1022 1.386 . S
C1023 C1027 1.393 1_545 S
C1024 H1013 0.950 . S
C1024 C1022 1.391 . S
C1024 C1025 1.400 . S
C1025 C1019 1.491 1_545 S
C1025 C1024 1.400 . S
C1025 C1026 1.398 1_545 S
C1026 H1014 0.950 . S
C1026 C1025 1.398 1_565 S
C1026 C1027 1.391 . S
C1027 H1015 0.950 . S
C1027 C1023 1.393 1_565 S
C1027 C1026 1.391 . S
H1028 C1036 0.950 . S
H1029 C1041 0.950 . S
H1030 C1038 0.950 . S
H1031 C1040 0.950 . S
H1032 C1042 0.950 . S
H1033 C1044 0.950 . S
H1034 C1046 0.950 . S
H1035 C1047 0.950 . S
C1036 H1028 0.950 . S
C1036 C1037 1.386 . S
C1036 C1038 1.391 . S
C1037 C1036 1.386 . S
C1037 C1041 1.393 . S
C1038 H1030 0.950 . S
C1038 C1036 1.391 . S
C1038 C1039 1.400 . S
C1039 C1038 1.400 . S
C1039 C1040 1.398 . S
C1039 C1045 1.491 . S
C1040 H1031 0.950 . S
C1040 C1039 1.398 . S
C1040 C1041 1.391 . S
C1041 H1029 0.950 . S
C1041 C1037 1.393 . S
C1041 C1040 1.391 . S
C1042 H1032 0.950 . S
C1042 C1043 1.386 . S
C1042 C1044 1.391 . S
C1043 C1042 1.386 . S
C1043 C1047 1.393 . S
C1044 H1033 0.950 . S
C1044 C1042 1.391 . S
C1044 C1045 1.400 . S
C1045 C1039 1.491 . S
C1045 C1044 1.400 . S
C1045 C1046 1.398 . S
C1046 H1034 0.950 . S
C1046 C1045 1.398 . S
C1046 C1047 1.391 . S
C1047 H1035 0.950 . S
C1047 C1043 1.393 . S
C1047 C1046 1.391 . S
H1048 C1056 0.950 . S
H1049 C1061 0.969 . S
H1050 C1058 0.950 . S
H1051 C1060 0.969 . S
H1052 C1062 0.950 . S
H1053 C1064 0.950 . S
H1054 C1066 0.970 . S
H1055 C1067 0.969 . S
C1056 H1048 0.950 . S
C1056 C1057 1.386 . S
C1056 C1058 1.391 . S
C1057 C1056 1.386 . S
C1057 C1061 1.393 . S
C1058 H1050 0.950 . S
C1058 C1056 1.391 . S
C1058 C1059 1.400 . S
C1059 C1058 1.400 . S
C1059 C1060 1.391 1_545 S
C1059 C1065 1.491 1_545 S
C1060 H1051 0.969 . S
C1060 C1059 1.391 1_565 S
C1060 C1061 1.381 1_565 S
C1061 H1049 0.969 . S
C1061 C1057 1.393 . S
C1061 C1060 1.381 1_545 S
C1062 H1052 0.950 . S
C1062 C1063 1.386 . S
C1062 C1064 1.391 . S
C1063 C1062 1.386 . S
C1063 C1067 1.393 . S
C1064 H1053 0.950 . S
C1064 C1062 1.391 . S
C1064 C1065 1.400 . S
C1065 C1059 1.491 1_565 S
C1065 C1064 1.400 . S
C1065 C1066 1.391 1_565 S
C1066 H1054 0.970 . S
C1066 C1065 1.391 1_545 S
C1066 C1067 1.381 1_545 S
C1067 H1055 0.969 . S
C1067 C1063 1.393 . S
C1067 C1066 1.381 1_565 S
H1068 C1076 0.950 . S
H1069 C1081 0.950 . S
H1070 C1078 0.950 . S
H1071 C1080 0.950 . S
H1072 C1082 0.950 . S
H1073 C1084 0.950 1_554 S
H1074 C1086 0.952 . S
H1075 C1087 0.950 . S
C1076 H1068 0.950 . S
C1076 C1077 1.386 . S
C1076 C1078 1.391 . S
C1077 C1076 1.386 . S
C1077 C1081 1.393 . S
C1078 H1070 0.950 . S
C1078 C1076 1.391 . S
C1078 C1079 1.400 . S
C1079 C1078 1.400 . S
C1079 C1080 1.398 . S
C1079 C1085 1.491 . S
C1080 H1071 0.950 . S
C1080 C1079 1.398 . S
C1080 C1081 1.391 . S
C1081 H1069 0.950 . S
C1081 C1077 1.393 . S
C1081 C1080 1.391 . S
C1082 H1072 0.950 . S
C1082 C1083 1.386 . S
C1082 C1084 1.391 . S
C1083 C1082 1.386 . S
C1083 C1087 1.393 . S
C1084 H1073 0.950 1_556 S
C1084 C1082 1.391 . S
C1084 C1085 1.400 1_556 S
C1085 C1079 1.491 . S
C1085 C1084 1.400 1_554 S
C1085 C1086 1.400 . S
C1086 H1074 0.952 . S
C1086 C1085 1.400 . S
C1086 C1087 1.388 1_554 S
C1087 H1075 0.950 . S
C1087 C1083 1.393 . S
C1087 C1086 1.388 1_556 S
H1088 C1096 0.950 . S
H1089 C1101 0.950 . S
H1090 C1098 0.950 . S
H1091 C1100 0.950 . S
H1092 C1102 0.950 . S
H1093 C1104 0.950 . S
H1094 C1106 0.950 . S
H1095 C1107 0.950 . S
C1096 H1088 0.950 . S
C1096 C1097 1.386 . S
C1096 C1098 1.391 . S
C1097 C1096 1.386 . S
C1097 C1101 1.393 . S
C1098 H1090 0.950 . S
C1098 C1096 1.391 . S
C1098 C1099 1.400 . S
C1099 C1098 1.400 . S
C1099 C1100 1.398 . S
C1099 C1105 1.491 . S
C1100 H1091 0.950 . S
C1100 C1099 1.398 . S
C1100 C1101 1.391 . S
C1101 H1089 0.950 . S
C1101 C1097 1.393 . S
C1101 C1100 1.391 . S
C1102 H1092 0.950 . S
C1102 C1103 1.386 . S
C1102 C1104 1.391 . S
C1103 C1102 1.386 . S
C1103 C1107 1.393 . S
C1104 H1093 0.950 . S
C1104 C1102 1.391 . S
C1104 C1105 1.400 . S
C1105 C1099 1.491 . S
C1105 C1104 1.400 . S
C1105 C1106 1.398 . S
C1106 H1094 0.950 . S
C1106 C1105 1.398 . S
C1106 C1107 1.391 . S
C1107 H1095 0.950 . S
C1107 C1103 1.393 . S
C1107 C1106 1.391 . S
H1108 C1116 0.950 . S
H1109 C1121 0.950 . S
H1110 C1118 0.950 . S
H1111 C1120 0.950 . S
H1112 C1122 0.950 . S
H1113 C1124 0.950 . S
H1114 C1126 0.950 . S
H1115 C1127 0.950 . S
C1116 H1108 0.950 . S
C1116 C1117 1.386 . S
C1116 C1118 1.391 . S
C1117 C1116 1.386 . S
C1117 C1121 1.393 . S
C1118 H1110 0.950 . S
C1118 C1116 1.391 . S
C1118 C1119 1.400 . S
C1119 C1118 1.400 . S
C1119 C1120 1.398 . S
C1119 C1125 1.491 . S
C1120 H1111 0.950 . S
C1120 C1119 1.398 . S
C1120 C1121 1.391 . S
C1121 H1109 0.950 . S
C1121 C1117 1.393 . S
C1121 C1120 1.391 . S
C1122 H1112 0.950 . S
C1122 C1123 1.386 . S
C1122 C1124 1.391 . S
C1123 C1122 1.386 . S
C1123 C1127 1.393 . S
C1124 H1113 0.950 . S
C1124 C1122 1.391 . S
C1124 C1125 1.400 . S
C1125 C1119 1.491 . S
C1125 C1124 1.400 . S
C1125 C1126 1.398 . S
C1126 H1114 0.950 . S
C1126 C1125 1.398 . S
C1126 C1127 1.391 . S
C1127 H1115 0.950 . S
C1127 C1123 1.393 . S
C1127 C1126 1.391 . S
H1128 C1136 0.950 . S
H1129 C1141 0.950 . S
H1130 C1138 0.950 . S
H1131 C1140 0.950 . S
H1132 C1142 0.950 . S
H1133 C1144 0.950 . S
H1134 C1146 0.950 . S
H1135 C1147 0.950 . S
C1136 H1128 0.950 . S
C1136 C1137 1.386 . S
C1136 C1138 1.391 . S
C1137 C1136 1.386 . S
C1137 C1141 1.393 . S
C1138 H1130 0.950 . S
C1138 C1136 1.391 . S
C1138 C1139 1.400 . S
C1139 C1138 1.400 . S
C1139 C1140 1.398 . S
C1139 C1145 1.491 . S
C1140 H1131 0.950 . S
C1140 C1139 1.398 . S
C1140 C1141 1.391 . S
C1141 H1129 0.950 . S
C1141 C1137 1.393 . S
C1141 C1140 1.391 . S
C1142 H1132 0.950 . S
C1142 C1143 1.386 . S
C1142 C1144 1.391 . S
C1143 C1142 1.386 . S
C1143 C1147 1.393 . S
C1144 H1133 0.950 . S
C1144 C1142 1.391 . S
C1144 C1145 1.400 . S
C1145 C1139 1.491 . S
C1145 C1144 1.400 . S
C1145 C1146 1.398 . S
C1146 H1134 0.950 . S
C1146 C1145 1.398 . S
C1146 C1147 1.391 . S
C1147 H1135 0.950 . S
C1147 C1143 1.393 . S
C1147 C1146 1.391 . S
H1148 C1156 0.950 . S
H1149 C1161 0.950 . S
H1150 C1158 0.950 . S
H1151 C1160 0.950 . S
H1152 C1162 0.950 . S
H1153 C1164 0.950 . S
H1154 C1166 0.950 . S
H1155 C1167 0.950 . S
C1156 H1148 0.950 . S
C1156 C1157 1.386 . S
C1156 C1158 1.391 . S
C1157 C1156 1.386 . S
C1157 C1161 1.393 . S
C1158 H1150 0.950 . S
C1158 C1156 1.391 . S
C1158 C1159 1.400 . S
C1159 C1158 1.400 . S
C1159 C1160 1.398 . S
C1159 C1165 1.491 . S
C1160 H1151 0.950 . S
C1160 C1159 1.398 . S
C1160 C1161 1.391 . S
C1161 H1149 0.950 . S
C1161 C1157 1.393 . S
C1161 C1160 1.391 . S
C1162 H1152 0.950 . S
C1162 C1163 1.386 . S
C1162 C1164 1.391 1_556 S
C1163 C1162 1.386 . S
C1163 C1167 1.393 . S
C1164 H1153 0.950 . S
C1164 C1162 1.391 1_554 S
C1164 C1165 1.400 . S
C1165 C1159 1.491 . S
C1165 C1164 1.400 . S
C1165 C1166 1.398 1_554 S
C1166 H1154 0.950 . S
C1166 C1165 1.398 1_556 S
C1166 C1167 1.391 . S
C1167 H1155 0.950 . S
C1167 C1163 1.393 . S
C1167 C1166 1.391 . S
H1168 C1176 0.950 . S
H1169 C1181 0.950 . S
H1170 C1178 0.950 . S
H1171 C1180 0.950 . S
H1172 C1182 0.950 . S
H1173 C1184 0.950 . S
H1174 C1186 0.950 . S
H1175 C1187 0.950 . S
C1176 H1168 0.950 . S
C1176 C1177 1.386 . S
C1176 C1178 1.391 . S
C1177 C1176 1.386 . S
C1177 C1181 1.393 . S
C1178 H1170 0.950 . S
C1178 C1176 1.391 . S
C1178 C1179 1.400 . S
C1179 C1178 1.400 . S
C1179 C1180 1.398 . S
C1179 C1185 1.491 . S
C1180 H1171 0.950 . S
C1180 C1179 1.398 . S
C1180 C1181 1.391 . S
C1181 H1169 0.950 . S
C1181 C1177 1.393 . S
C1181 C1180 1.391 . S
C1182 H1172 0.950 . S
C1182 C1183 1.386 . S
C1182 C1184 1.391 . S
C1183 C1182 1.386 . S
C1183 C1187 1.393 . S
C1184 H1173 0.950 . S
C1184 C1182 1.391 . S
C1184 C1185 1.400 . S
C1185 C1179 1.491 . S
C1185 C1184 1.400 . S
C1185 C1186 1.398 . S
C1186 H1174 0.950 . S
C1186 C1185 1.398 . S
C1186 C1187 1.391 . S
C1187 H1175 0.950 . S
C1187 C1183 1.393 . S
C1187 C1186 1.391 . S
H1188 C1196 0.950 . S
H1189 C1201 0.950 . S
H1190 C1198 0.950 . S
H1191 C1200 0.950 . S
H1192 C1202 0.950 . S
H1193 C1204 0.950 . S
H1194 C1206 0.950 . S
H1195 C1207 0.950 . S
C1196 H1188 0.950 . S
C1196 C1197 1.386 . S
C1196 C1198 1.391 . S
C1197 C1196 1.386 . S
C1197 C1201 1.393 . S
C1198 H1190 0.950 . S
C1198 C1196 1.391 . S
C1198 C1199 1.400 . S
C1199 C1198 1.400 . S
C1199 C1200 1.398 . S
C1199 C1205 1.491 . S
C1200 H1191 0.950 . S
C1200 C1199 1.398 . S
C1200 C1201 1.391 . S
C1201 H1189 0.950 . S
C1201 C1197 1.393 . S
C1201 C1200 1.391 . S
C1202 H1192 0.950 . S
C1202 C1203 1.386 . S
C1202 C1204 1.391 . S
C1203 C1202 1.386 . S
C1203 C1207 1.393 . S
C1204 H1193 0.950 . S
C1204 C1202 1.391 . S
C1204 C1205 1.400 . S
C1205 C1199 1.491 . S
C1205 C1204 1.400 . S
C1205 C1206 1.398 . S
C1206 H1194 0.950 . S
C1206 C1205 1.398 . S
C1206 C1207 1.391 . S
C1207 H1195 0.950 . S
C1207 C1203 1.393 . S
C1207 C1206 1.391 . S
H1208 C1216 0.950 . S
H1209 C1221 0.950 . S
H1210 C1218 0.950 . S
H1211 C1220 0.950 . S
H1212 C1222 0.950 . S
H1213 C1224 0.950 . S
H1214 C1226 0.950 . S
H1215 C1227 0.950 . S
C1216 H1208 0.950 . S
C1216 C1217 1.386 . S
C1216 C1218 1.391 . S
C1217 C1216 1.386 . S
C1217 C1221 1.393 . S
C1218 H1210 0.950 . S
C1218 C1216 1.391 . S
C1218 C1219 1.400 . S
C1219 C1218 1.400 . S
C1219 C1220 1.398 . S
C1219 C1225 1.491 . S
C1220 H1211 0.950 . S
C1220 C1219 1.398 . S
C1220 C1221 1.391 . S
C1221 H1209 0.950 . S
C1221 C1217 1.393 . S
C1221 C1220 1.391 . S
C1222 H1212 0.950 . S
C1222 C1223 1.386 . S
C1222 C1224 1.391 . S
C1223 C1222 1.386 . S
C1223 C1227 1.393 . S
C1224 H1213 0.950 . S
C1224 C1222 1.391 . S
C1224 C1225 1.400 . S
C1225 C1219 1.491 . S
C1225 C1224 1.400 . S
C1225 C1226 1.398 . S
C1226 H1214 0.950 . S
C1226 C1225 1.398 . S
C1226 C1227 1.391 . S
C1227 H1215 0.950 . S
C1227 C1223 1.393 . S
C1227 C1226 1.391 . S
H1228 C1236 0.950 . S
H1229 C1241 0.950 . S
H1230 C1238 0.950 . S
H1231 C1240 0.950 . S
H1232 C1242 0.950 . S
H1233 C1244 0.950 . S
H1234 C1246 0.950 . S
H1235 C1247 0.950 . S
C1236 H1228 0.950 . S
C1236 C1237 1.386 . S
C1236 C1238 1.391 . S
C1237 C1236 1.386 . S
C1237 C1241 1.393 . S
C1238 H1230 0.950 . S
C1238 C1236 1.391 . S
C1238 C1239 1.400 1_556 S
C1239 C1238 1.400 1_554 S
C1239 C1240 1.398 . S
C1239 C1245 1.491 . S
C1240 H1231 0.950 . S
C1240 C1239 1.398 . S
C1240 C1241 1.391 1_554 S
C1241 H1229 0.950 . S
C1241 C1237 1.393 . S
C1241 C1240 1.391 1_556 S
C1242 H1232 0.950 . S
C1242 C1243 1.386 . S
C1242 C1244 1.391 . S
C1243 C1242 1.386 . S
C1243 C1247 1.393 . S
C1244 H1233 0.950 . S
C1244 C1242 1.391 . S
C1244 C1245 1.400 . S
C1245 C1239 1.491 . S
C1245 C1244 1.400 . S
C1245 C1246 1.398 . S
C1246 H1234 0.950 . S
C1246 C1245 1.398 . S
C1246 C1247 1.391 . S
C1247 H1235 0.950 . S
C1247 C1243 1.393 . S
C1247 C1246 1.391 . S
H1248 C1256 0.950 . S
H1249 C1261 0.950 . S
H1250 C1258 0.950 . S
H1251 C1260 0.950 . S
H1252 C1262 0.950 . S
H1253 C1264 0.950 . S
H1254 C1266 0.950 . S
H1255 C1267 0.950 . S
C1256 H1248 0.950 . S
C1256 C1257 1.386 . S
C1256 C1258 1.391 . S
C1257 C1256 1.386 . S
C1257 C1261 1.393 . S
C1258 H1250 0.950 . S
C1258 C1256 1.391 . S
C1258 C1259 1.400 . S
C1259 C1258 1.400 . S
C1259 C1260 1.398 . S
C1259 C1265 1.491 1_565 S
C1260 H1251 0.950 . S
C1260 C1259 1.398 . S
C1260 C1261 1.391 . S
C1261 H1249 0.950 . S
C1261 C1257 1.393 . S
C1261 C1260 1.391 . S
C1262 H1252 0.950 . S
C1262 C1263 1.386 . S
C1262 C1264 1.391 . S
C1263 C1262 1.386 . S
C1263 C1267 1.393 . S
C1264 H1253 0.950 . S
C1264 C1262 1.391 . S
C1264 C1265 1.400 . S
C1265 C1259 1.491 1_545 S
C1265 C1264 1.400 . S
C1265 C1266 1.398 . S
C1266 H1254 0.950 . S
C1266 C1265 1.398 . S
C1266 C1267 1.391 . S
C1267 H1255 0.950 . S
C1267 C1263 1.393 . S
C1267 C1266 1.391 . S
H1268 C1276 0.950 . S
H1269 C1281 0.950 . S
H1270 C1278 0.950 . S
H1271 C1280 0.950 . S
H1272 C1282 0.950 . S
H1273 C1284 0.950 . S
H1274 C1286 0.950 . S
H1275 C1287 0.950 . S
C1276 H1268 0.950 . S
C1276 C1277 1.386 . S
C1276 C1278 1.391 . S
C1277 C1276 1.386 . S
C1277 C1281 1.393 . S
C1278 H1270 0.950 . S
C1278 C1276 1.391 . S
C1278 C1279 1.400 . S
C1279 C1278 1.400 . S
C1279 C1280 1.398 . S
C1279 C1285 1.491 . S
C1280 H1271 0.950 . S
C1280 C1279 1.398 . S
C1280 C1281 1.391 . S
C1281 H1269 0.950 . S
C1281 C1277 1.393 . S
C1281 C1280 1.391 . S
C1282 H1272 0.950 . S
C1282 C1283 1.386 . S
C1282 C1284 1.391 . S
C1283 C1282 1.386 . S
C1283 C1287 1.393 . S
C1284 H1273 0.950 . S
C1284 C1282 1.391 . S
C1284 C1285 1.400 1_556 S
C1285 C1279 1.491 . S
C1285 C1284 1.400 1_554 S
C1285 C1286 1.398 . S
C1286 H1274 0.950 . S
C1286 C1285 1.398 . S
C1286 C1287 1.391 1_554 S
C1287 H1275 0.950 . S
C1287 C1283 1.393 . S
C1287 C1286 1.391 1_556 S
H1288 C1296 0.950 . S
H1289 C1301 0.950 . S
H1290 C1298 0.950 . S
H1291 C1300 0.950 . S
H1292 C1302 0.950 . S
H1293 C1304 0.950 . S
H1294 C1306 0.950 . S
H1295 C1307 0.950 . S
C1296 H1288 0.950 . S
C1296 C1297 1.386 1_545 S
C1296 C1298 1.391 . S
C1297 C1296 1.386 1_565 S
C1297 C1301 1.393 . S
C1298 H1290 0.950 . S
C1298 C1296 1.391 . S
C1298 C1299 1.400 1_545 S
C1299 C1298 1.400 1_565 S
C1299 C1300 1.398 . S
C1299 C1305 1.491 1_565 S
C1300 H1291 0.950 . S
C1300 C1299 1.398 . S
C1300 C1301 1.391 . S
C1301 H1289 0.950 . S
C1301 C1297 1.393 . S
C1301 C1300 1.391 . S
C1302 H1292 0.950 . S
C1302 C1303 1.386 1_565 S
C1302 C1304 1.391 . S
C1303 C1302 1.386 1_545 S
C1303 C1307 1.393 . S
C1304 H1293 0.950 . S
C1304 C1302 1.391 . S
C1304 C1305 1.400 1_565 S
C1305 C1299 1.491 1_545 S
C1305 C1304 1.400 1_545 S
C1305 C1306 1.398 . S
C1306 H1294 0.950 . S
C1306 C1305 1.398 . S
C1306 C1307 1.391 . S
C1307 H1295 0.950 . S
C1307 C1303 1.393 . S
C1307 C1306 1.391 . S
H1308 C1316 0.950 . S
H1309 C1321 0.950 . S
H1310 C1318 0.950 . S
H1311 C1320 0.950 . S
H1312 C1322 0.950 . S
H1313 C1324 0.950 . S
H1314 C1326 0.950 . S
H1315 C1327 0.950 . S
C1316 H1308 0.950 . S
C1316 C1317 1.386 . S
C1316 C1318 1.391 . S
C1317 C1316 1.386 . S
C1317 C1321 1.393 . S
C1318 H1310 0.950 . S
C1318 C1316 1.391 . S
C1318 C1319 1.400 . S
C1319 C1318 1.400 . S
C1319 C1320 1.398 . S
C1319 C1325 1.491 . S
C1320 H1311 0.950 . S
C1320 C1319 1.398 . S
C1320 C1321 1.391 . S
C1321 H1309 0.950 . S
C1321 C1317 1.393 . S
C1321 C1320 1.391 . S
C1322 H1312 0.950 . S
C1322 C1323 1.386 . S
C1322 C1324 1.391 . S
C1323 C1322 1.386 . S
C1323 C1327 1.393 . S
C1324 H1313 0.950 . S
C1324 C1322 1.391 . S
C1324 C1325 1.400 . S
C1325 C1319 1.491 . S
C1325 C1324 1.400 . S
C1325 C1326 1.398 . S
C1326 H1314 0.950 . S
C1326 C1325 1.398 . S
C1326 C1327 1.391 . S
C1327 H1315 0.950 . S
C1327 C1323 1.393 . S
C1327 C1326 1.391 . S
H1328 C1336 0.950 . S
H1329 C1341 0.950 . S
H1330 C1338 0.962 . S
H1331 C1340 0.950 . S
H1332 C1342 0.950 . S
H1333 C1344 0.964 . S
H1334 C1346 0.950 . S
H1335 C1347 0.950 . S
C1336 H1328 0.950 . S
C1336 C1337 1.386 . S
C1336 C1338 1.384 1_565 S
C1337 C1336 1.386 . S
C1337 C1341 1.393 . S
C1338 H1330 0.962 . S
C1338 C1336 1.384 1_545 S
C1338 C1339 1.396 1_545 S
C1339 C1338 1.396 1_565 S
C1339 C1340 1.398 . S
C1339 C1345 1.491 1_565 S
C1340 H1331 0.950 . S
C1340 C1339 1.398 . S
C1340 C1341 1.391 . S
C1341 H1329 0.950 . S
C1341 C1337 1.393 . S
C1341 C1340 1.391 . S
C1342 H1332 0.950 . S
C1342 C1343 1.386 . S
C1342 C1344 1.384 1_545 S
C1343 C1342 1.386 . S
C1343 C1347 1.393 . S
C1344 H1333 0.964 . S
C1344 C1342 1.384 1_565 S
C1344 C1345 1.396 1_565 S
C1345 C1339 1.491 1_545 S
C1345 C1344 1.396 1_545 S
C1345 C1346 1.398 . S
C1346 H1334 0.950 . S
C1346 C1345 1.398 . S
C1346 C1347 1.391 . S
C1347 H1335 0.950 . S
C1347 C1343 1.393 . S
C1347 C1346 1.391 . S
H1348 C1356 0.950 . S
H1349 C1361 0.950 . S
H1350 C1358 0.950 . S
H1351 C1360 0.950 . S
H1352 C1362 0.950 . S
H1353 C1364 0.950 . S
H1354 C1366 0.950 . S
H1355 C1367 0.950 . S
C1356 H1348 0.950 . S
C1356 C1357 1.386 . S
C1356 C1358 1.391 . S
C1357 C1356 1.386 . S
C1357 C1361 1.393 . S
C1358 H1350 0.950 . S
C1358 C1356 1.391 . S
C1358 C1359 1.400 . S
C1359 C1358 1.400 . S
C1359 C1360 1.398 . S
C1359 C1365 1.491 . S
C1360 H1351 0.950 . S
C1360 C1359 1.398 . S
C1360 C1361 1.391 . S
C1361 H1349 0.950 . S
C1361 C1357 1.393 . S
C1361 C1360 1.391 . S
C1362 H1352 0.950 . S
C1362 C1363 1.386 . S
C1362 C1364 1.391 1_556 S
C1363 C1362 1.386 . S
C1363 C1367 1.393 . S
C1364 H1353 0.950 . S
C1364 C1362 1.391 1_554 S
C1364 C1365 1.400 . S
C1365 C1359 1.491 . S
C1365 C1364 1.400 . S
C1365 C1366 1.398 1_554 S
C1366 H1354 0.950 . S
C1366 C1365 1.398 1_556 S
C1366 C1367 1.391 . S
C1367 H1355 0.950 . S
C1367 C1363 1.393 . S
C1367 C1366 1.391 . S
H1368 C1376 0.950 . S
H1369 C1381 0.950 . S
H1370 C1378 0.950 . S
H1371 C1380 0.950 . S
H1372 C1382 0.950 . S
H1373 C1384 0.950 . S
H1374 C1386 0.950 . S
H1375 C1387 0.950 . S
C1376 H1368 0.950 . S
C1376 C1377 1.386 . S
C1376 C1378 1.391 . S
C1377 C1376 1.386 . S
C1377 C1381 1.393 1_565 S
C1378 H1370 0.950 . S
C1378 C1376 1.391 . S
C1378 C1379 1.400 . S
C1379 C1378 1.400 . S
C1379 C1380 1.398 1_565 S
C1379 C1385 1.491 1_565 S
C1380 H1371 0.950 . S
C1380 C1379 1.398 1_545 S
C1380 C1381 1.391 . S
C1381 H1369 0.950 . S
C1381 C1377 1.393 1_545 S
C1381 C1380 1.391 . S
C1382 H1372 0.950 . S
C1382 C1383 1.386 . S
C1382 C1384 1.391 . S
C1383 C1382 1.386 . S
C1383 C1387 1.393 1_545 S
C1384 H1373 0.950 . S
C1384 C1382 1.391 . S
C1384 C1385 1.400 . S
C1385 C1379 1.491 1_545 S
C1385 C1384 1.400 . S
C1385 C1386 1.398 1_545 S
C1386 H1374 0.950 . S
C1386 C1385 1.398 1_565 S
C1386 C1387 1.391 . S
C1387 H1375 0.950 . S
C1387 C1383 1.393 1_565 S
C1387 C1386 1.391 . S
H1388 C1396 0.950 . S
H1389 C1401 0.950 . S
H1390 C1398 0.950 . S
H1391 C1400 0.950 . S
H1392 C1402 0.950 . S
H1393 C1404 0.950 . S
H1394 C1406 0.950 . S
H1395 C1407 0.950 . S
C1396 H1388 0.950 . S
C1396 C1397 1.386 . S
C1396 C1398 1.391 . S
C1397 C1396 1.386 . S
C1397 C1401 1.393 . S
C1398 H1390 0.950 . S
C1398 C1396 1.391 . S
C1398 C1399 1.400 . S
C1399 C1398 1.400 . S
C1399 C1400 1.398 . S
C1399 C1405 1.491 . S
C1400 H1391 0.950 . S
C1400 C1399 1.398 . S
C1400 C1401 1.391 . S
C1401 H1389 0.950 . S
C1401 C1397 1.393 . S
C1401 C1400 1.391 . S
C1402 H1392 0.950 . S
C1402 C1403 1.386 . S
C1402 C1404 1.391 . S
C1403 C1402 1.386 . S
C1403 C1407 1.393 . S
C1404 H1393 0.950 . S
C1404 C1402 1.391 . S
C1404 C1405 1.400 . S
C1405 C1399 1.491 . S
C1405 C1404 1.400 . S
C1405 C1406 1.398 . S
C1406 H1394 0.950 . S
C1406 C1405 1.398 . S
C1406 C1407 1.391 . S
C1407 H1395 0.950 . S
C1407 C1403 1.393 . S
C1407 C1406 1.391 . S
H1408 C1416 0.950 . S
H1409 C1421 0.950 . S
H1410 C1418 0.950 . S
H1411 C1420 0.950 . S
H1412 C1422 0.950 . S
H1413 C1424 0.950 . S
H1414 C1426 0.950 . S
H1415 C1427 0.950 . S
C1416 H1408 0.950 . S
C1416 C1417 1.386 . S
C1416 C1418 1.391 . S
C1417 C1416 1.386 . S
C1417 C1421 1.393 . S
C1418 H1410 0.950 . S
C1418 C1416 1.391 . S
C1418 C1419 1.400 . S
C1419 C1418 1.400 . S
C1419 C1420 1.398 . S
C1419 C1425 1.491 . S
C1420 H1411 0.950 . S
C1420 C1419 1.398 . S
C1420 C1421 1.391 . S
C1421 H1409 0.950 . S
C1421 C1417 1.393 . S
C1421 C1420 1.391 . S
C1422 H1412 0.950 . S
C1422 C1423 1.386 . S
C1422 C1424 1.391 . S
C1423 C1422 1.386 . S
C1423 C1427 1.393 . S
C1424 H1413 0.950 . S
C1424 C1422 1.391 . S
C1424 C1425 1.400 . S
C1425 C1419 1.491 . S
C1425 C1424 1.400 . S
C1425 C1426 1.398 . S
C1426 H1414 0.950 . S
C1426 C1425 1.398 . S
C1426 C1427 1.391 . S
C1427 H1415 0.950 . S
C1427 C1423 1.393 . S
C1427 C1426 1.391 . S
H1428 C1436 0.950 . S
H1429 C1441 0.950 . S
H1430 C1438 0.950 . S
H1431 C1440 0.950 . S
H1432 C1442 0.950 . S
H1433 C1444 0.950 . S
H1434 C1446 0.950 . S
H1435 C1447 0.950 . S
C1436 H1428 0.950 . S
C1436 C1437 1.386 . S
C1436 C1438 1.391 . S
C1437 C1436 1.386 . S
C1437 C1441 1.393 . S
C1438 H1430 0.950 . S
C1438 C1436 1.391 . S
C1438 C1439 1.400 . S
C1439 C1438 1.400 . S
C1439 C1440 1.398 . S
C1439 C1445 1.491 . S
C1440 H1431 0.950 . S
C1440 C1439 1.398 . S
C1440 C1441 1.391 . S
C1441 H1429 0.950 . S
C1441 C1437 1.393 . S
C1441 C1440 1.391 . S
C1442 H1432 0.950 . S
C1442 C1443 1.386 . S
C1442 C1444 1.391 . S
C1443 C1442 1.386 . S
C1443 C1447 1.393 . S
C1444 H1433 0.950 . S
C1444 C1442 1.391 . S
C1444 C1445 1.400 . S
C1445 C1439 1.491 . S
C1445 C1444 1.400 . S
C1445 C1446 1.398 . S
C1446 H1434 0.950 . S
C1446 C1445 1.398 . S
C1446 C1447 1.391 . S
C1447 H1435 0.950 . S
C1447 C1443 1.393 . S
C1447 C1446 1.391 . S
H1448 C1456 0.950 . S
H1449 C1461 0.950 . S
H1450 C1458 0.950 . S
H1451 C1460 0.950 . S
H1452 C1462 0.950 . S
H1453 C1464 0.950 . S
H1454 C1466 0.950 . S
H1455 C1467 0.950 . S
C1456 H1448 0.950 . S
C1456 C1457 1.386 . S
C1456 C1458 1.391 . S
C1457 C1456 1.386 . S
C1457 C1461 1.393 . S
C1458 H1450 0.950 . S
C1458 C1456 1.391 . S
C1458 C1459 1.400 . S
C1459 C1458 1.400 . S
C1459 C1460 1.398 . S
C1459 C1465 1.491 . S
C1460 H1451 0.950 . S
C1460 C1459 1.398 . S
C1460 C1461 1.391 . S
C1461 H1449 0.950 . S
C1461 C1457 1.393 . S
C1461 C1460 1.391 . S
C1462 H1452 0.950 . S
C1462 C1463 1.386 . S
C1462 C1464 1.391 . S
C1463 C1462 1.386 . S
C1463 C1467 1.393 . S
C1464 H1453 0.950 . S
C1464 C1462 1.391 . S
C1464 C1465 1.400 . S
C1465 C1459 1.491 . S
C1465 C1464 1.400 . S
C1465 C1466 1.398 . S
C1466 H1454 0.950 . S
C1466 C1465 1.398 . S
C1466 C1467 1.391 . S
C1467 H1455 0.950 . S
C1467 C1463 1.393 . S
C1467 C1466 1.391 . S
H1468 C1476 0.950 . S
H1469 C1481 0.950 . S
H1470 C1478 0.950 . S
H1471 C1480 0.950 . S
H1472 C1482 0.950 . S
H1473 C1484 0.950 . S
H1474 C1486 0.950 . S
H1475 C1487 0.950 . S
C1476 H1468 0.950 . S
C1476 C1477 1.386 . S
C1476 C1478 1.391 . S
C1477 C1476 1.386 . S
C1477 C1481 1.393 . S
C1478 H1470 0.950 . S
C1478 C1476 1.391 . S
C1478 C1479 1.400 . S
C1479 C1478 1.400 . S
C1479 C1480 1.398 . S
C1479 C1485 1.491 . S
C1480 H1471 0.950 . S
C1480 C1479 1.398 . S
C1480 C1481 1.391 . S
C1481 H1469 0.950 . S
C1481 C1477 1.393 . S
C1481 C1480 1.391 . S
C1482 H1472 0.950 . S
C1482 C1483 1.386 1_554 S
C1482 C1484 1.391 1_554 S
C1483 C1482 1.386 1_556 S
C1483 C1487 1.393 . S
C1484 H1473 0.950 . S
C1484 C1482 1.391 1_556 S
C1484 C1485 1.400 . S
C1485 C1479 1.491 . S
C1485 C1484 1.400 . S
C1485 C1486 1.398 . S
C1486 H1474 0.950 . S
C1486 C1485 1.398 . S
C1486 C1487 1.391 . S
C1487 H1475 0.950 . S
C1487 C1483 1.393 . S
C1487 C1486 1.391 . S
H1488 C1496 0.950 . S
H1489 C1501 0.950 . S
H1490 C1498 0.950 . S
H1491 C1500 0.950 . S
H1492 C1502 0.950 . S
H1493 C1504 0.950 . S
H1494 C1506 0.950 . S
H1495 C1507 0.950 . S
C1496 H1488 0.950 . S
C1496 C1497 1.386 . S
C1496 C1498 1.391 . S
C1497 C1496 1.386 . S
C1497 C1501 1.393 . S
C1498 H1490 0.950 . S
C1498 C1496 1.391 . S
C1498 C1499 1.400 . S
C1499 C1498 1.400 . S
C1499 C1500 1.398 . S
C1499 C1505 1.491 . S
C1500 H1491 0.950 . S
C1500 C1499 1.398 . S
C1500 C1501 1.391 . S
C1501 H1489 0.950 . S
C1501 C1497 1.393 . S
C1501 C1500 1.391 . S
C1502 H1492 0.950 . S
C1502 C1503 1.386 . S
C1502 C1504 1.391 . S
C1503 C1502 1.386 . S
C1503 C1507 1.393 . S
C1504 H1493 0.950 . S
C1504 C1502 1.391 . S
C1504 C1505 1.400 . S
C1505 C1499 1.491 . S
C1505 C1504 1.400 . S
C1505 C1506 1.398 . S
C1506 H1494 0.950 . S
C1506 C1505 1.398 . S
C1506 C1507 1.391 . S
C1507 H1495 0.950 . S
C1507 C1503 1.393 . S
C1507 C1506 1.391 . S
H1508 C1516 0.950 . S
H1509 C1521 0.950 . S
H1510 C1518 0.950 . S
H1511 C1520 0.950 . S
H1512 C1522 0.950 . S
H1513 C1524 0.950 . S
H1514 C1526 0.950 . S
H1515 C1527 0.950 . S
C1516 H1508 0.950 . S
C1516 C1517 1.386 . S
C1516 C1518 1.391 . S
C1517 C1516 1.386 . S
C1517 C1521 1.393 . S
C1518 H1510 0.950 . S
C1518 C1516 1.391 . S
C1518 C1519 1.400 . S
C1519 C1518 1.400 . S
C1519 C1520 1.398 . S
C1519 C1525 1.491 . S
C1520 H1511 0.950 . S
C1520 C1519 1.398 . S
C1520 C1521 1.391 . S
C1521 H1509 0.950 . S
C1521 C1517 1.393 . S
C1521 C1520 1.391 . S
C1522 H1512 0.950 . S
C1522 C1523 1.386 . S
C1522 C1524 1.391 . S
C1523 C1522 1.386 . S
C1523 C1527 1.393 . S
C1524 H1513 0.950 . S
C1524 C1522 1.391 . S
C1524 C1525 1.400 . S
C1525 C1519 1.491 . S
C1525 C1524 1.400 . S
C1525 C1526 1.398 . S
C1526 H1514 0.950 . S
C1526 C1525 1.398 . S
C1526 C1527 1.391 . S
C1527 H1515 0.950 . S
C1527 C1523 1.393 . S
C1527 C1526 1.391 . S
H1528 C1536 0.950 . S
H1529 C1541 0.950 . S
H1530 C1538 0.950 . S
H1531 C1540 0.950 . S
H1532 C1542 0.950 . S
H1533 C1544 0.950 . S
H1534 C1546 0.950 . S
H1535 C1547 0.950 . S
C1536 H1528 0.950 . S
C1536 C1537 1.386 . S
C1536 C1538 1.391 . S
C1537 C1536 1.386 . S
C1537 C1541 1.393 . S
C1538 H1530 0.950 . S
C1538 C1536 1.391 . S
C1538 C1539 1.400 . S
C1539 C1538 1.400 . S
C1539 C1540 1.398 . S
C1539 C1545 1.491 . S
C1540 H1531 0.950 . S
C1540 C1539 1.398 . S
C1540 C1541 1.391 . S
C1541 H1529 0.950 . S
C1541 C1537 1.393 . S
C1541 C1540 1.391 . S
C1542 H1532 0.950 . S
C1542 C1543 1.386 1_554 S
C1542 C1544 1.391 1_554 S
C1543 C1542 1.386 1_556 S
C1543 C1547 1.393 . S
C1544 H1533 0.950 . S
C1544 C1542 1.391 1_556 S
C1544 C1545 1.400 . S
C1545 C1539 1.491 . S
C1545 C1544 1.400 . S
C1545 C1546 1.398 . S
C1546 H1534 0.950 . S
C1546 C1545 1.398 . S
C1546 C1547 1.391 . S
C1547 H1535 0.950 . S
C1547 C1543 1.393 . S
C1547 C1546 1.391 . S
H1548 C1556 0.950 . S
H1549 C1561 0.950 . S
H1550 C1558 0.950 . S
H1551 C1560 0.950 . S
H1552 C1562 0.950 . S
H1553 C1564 0.950 . S
H1554 C1566 0.950 . S
H1555 C1567 0.950 . S
C1556 H1548 0.950 . S
C1556 C1557 1.386 . S
C1556 C1558 1.391 . S
C1557 C1556 1.386 . S
C1557 C1561 1.393 . S
C1558 H1550 0.950 . S
C1558 C1556 1.391 . S
C1558 C1559 1.400 . S
C1559 C1558 1.400 . S
C1559 C1560 1.398 . S
C1559 C1565 1.491 . S
C1560 H1551 0.950 . S
C1560 C1559 1.398 . S
C1560 C1561 1.391 . S
C1561 H1549 0.950 . S
C1561 C1557 1.393 . S
C1561 C1560 1.391 . S
C1562 H1552 0.950 . S
C1562 C1563 1.386 . S
C1562 C1564 1.391 . S
C1563 C1562 1.386 . S
C1563 C1567 1.393 . S
C1564 H1553 0.950 . S
C1564 C1562 1.391 . S
C1564 C1565 1.400 . S
C1565 C1559 1.491 . S
C1565 C1564 1.400 . S
C1565 C1566 1.398 . S
C1566 H1554 0.950 . S
C1566 C1565 1.398 . S
C1566 C1567 1.391 . S
C1567 H1555 0.950 . S
C1567 C1563 1.393 . S
C1567 C1566 1.391 . S
H1568 C1576 0.950 1_554 S
H1569 C1581 0.950 . S
H1570 C1578 0.950 . S
H1571 C1580 0.950 . S
H1572 C1582 0.950 . S
H1573 C1584 0.950 . S
H1574 C1586 0.950 . S
H1575 C1587 0.950 . S
C1576 H1568 0.950 1_556 S
C1576 C1577 1.386 . S
C1576 C1578 1.391 . S
C1577 C1576 1.386 . S
C1577 C1581 1.393 . S
C1578 H1570 0.950 . S
C1578 C1576 1.391 . S
C1578 C1579 1.400 . S
C1579 C1578 1.400 . S
C1579 C1580 1.398 . S
C1579 C1585 1.491 . S
C1580 H1571 0.950 . S
C1580 C1579 1.398 . S
C1580 C1581 1.391 . S
C1581 H1569 0.950 . S
C1581 C1577 1.393 . S
C1581 C1580 1.391 . S
C1582 H1572 0.950 . S
C1582 C1583 1.386 . S
C1582 C1584 1.391 . S
C1583 C1582 1.386 . S
C1583 C1587 1.393 . S
C1584 H1573 0.950 . S
C1584 C1582 1.391 . S
C1584 C1585 1.400 . S
C1585 C1579 1.491 . S
C1585 C1584 1.400 . S
C1585 C1586 1.398 . S
C1586 H1574 0.950 . S
C1586 C1585 1.398 . S
C1586 C1587 1.391 . S
C1587 H1575 0.950 . S
C1587 C1583 1.393 . S
C1587 C1586 1.391 . S
H1588 C1596 0.950 . S
H1589 C1601 0.950 . S
H1590 C1598 0.950 . S
H1591 C1600 0.950 . S
H1592 C1602 0.950 . S
H1593 C1604 0.950 . S
H1594 C1606 0.950 . S
H1595 C1607 0.950 . S
C1596 H1588 0.950 . S
C1596 C1597 1.386 . S
C1596 C1598 1.391 . S
C1597 C1596 1.386 . S
C1597 C1601 1.393 . S
C1598 H1590 0.950 . S
C1598 C1596 1.391 . S
C1598 C1599 1.400 . S
C1599 C1598 1.400 . S
C1599 C1600 1.398 . S
C1599 C1605 1.491 . S
C1600 H1591 0.950 . S
C1600 C1599 1.398 . S
C1600 C1601 1.391 . S
C1601 H1589 0.950 . S
C1601 C1597 1.393 . S
C1601 C1600 1.391 . S
C1602 H1592 0.950 . S
C1602 C1603 1.386 . S
C1602 C1604 1.391 . S
C1603 C1602 1.386 . S
C1603 C1607 1.393 . S
C1604 H1593 0.950 . S
C1604 C1602 1.391 . S
C1604 C1605 1.400 . S
C1605 C1599 1.491 . S
C1605 C1604 1.400 . S
C1605 C1606 1.398 . S
C1606 H1594 0.950 . S
C1606 C1605 1.398 . S
C1606 C1607 1.391 . S
C1607 H1595 0.950 . S
C1607 C1603 1.393 . S
C1607 C1606 1.391 . S
H1608 C1616 0.950 . S
H1609 C1621 0.950 . S
H1610 C1618 0.950 . S
H1611 C1620 0.950 . S
H1612 C1622 0.950 . S
H1613 C1624 0.950 . S
H1614 C1626 0.950 . S
H1615 C1627 0.950 . S
C1616 H1608 0.950 . S
C1616 C1617 1.386 . S
C1616 C1618 1.391 . S
C1617 C1616 1.386 . S
C1617 C1621 1.393 . S
C1618 H1610 0.950 . S
C1618 C1616 1.391 . S
C1618 C1619 1.400 . S
C1619 C1618 1.400 . S
C1619 C1620 1.398 . S
C1619 C1625 1.491 . S
C1620 H1611 0.950 . S
C1620 C1619 1.398 . S
C1620 C1621 1.391 . S
C1621 H1609 0.950 . S
C1621 C1617 1.393 . S
C1621 C1620 1.391 . S
C1622 H1612 0.950 . S
C1622 C1623 1.386 . S
C1622 C1624 1.391 . S
C1623 C1622 1.386 . S
C1623 C1627 1.393 . S
C1624 H1613 0.950 . S
C1624 C1622 1.391 . S
C1624 C1625 1.400 . S
C1625 C1619 1.491 . S
C1625 C1624 1.400 . S
C1625 C1626 1.398 . S
C1626 H1614 0.950 . S
C1626 C1625 1.398 . S
C1626 C1627 1.391 . S
C1627 H1615 0.950 . S
C1627 C1623 1.393 . S
C1627 C1626 1.391 . S
H1628 C1636 0.950 . S
H1629 C1641 0.950 . S
H1630 C1638 0.950 . S
H1631 C1640 0.950 . S
H1632 C1642 0.950 . S
H1633 C1644 0.950 . S
H1634 C1646 0.950 . S
H1635 C1647 0.950 . S
C1636 H1628 0.950 . S
C1636 C1637 1.386 . S
C1636 C1638 1.391 . S
C1637 C1636 1.386 . S
C1637 C1641 1.393 . S
C1638 H1630 0.950 . S
C1638 C1636 1.391 . S
C1638 C1639 1.400 . S
C1639 C1638 1.400 . S
C1639 C1640 1.398 . S
C1639 C1645 1.491 . S
C1640 H1631 0.950 . S
C1640 C1639 1.398 . S
C1640 C1641 1.391 . S
C1641 H1629 0.950 . S
C1641 C1637 1.393 . S
C1641 C1640 1.391 . S
C1642 H1632 0.950 . S
C1642 C1643 1.386 . S
C1642 C1644 1.391 . S
C1643 C1642 1.386 . S
C1643 C1647 1.393 . S
C1644 H1633 0.950 . S
C1644 C1642 1.391 . S
C1644 C1645 1.400 . S
C1645 C1639 1.491 . S
C1645 C1644 1.400 . S
C1645 C1646 1.398 . S
C1646 H1634 0.950 . S
C1646 C1645 1.398 . S
C1646 C1647 1.391 . S
C1647 H1635 0.950 . S
C1647 C1643 1.393 . S
C1647 C1646 1.391 . S
H1648 C1656 0.950 . S
H1649 C1661 0.950 . S
H1650 C1658 0.950 . S
H1651 C1660 0.950 . S
H1652 C1662 0.950 . S
H1653 C1664 0.950 . S
H1654 C1666 0.950 . S
H1655 C1667 0.950 . S
C1656 H1648 0.950 . S
C1656 C1657 1.386 . S
C1656 C1658 1.391 . S
C1657 C1656 1.386 . S
C1657 C1661 1.393 . S
C1658 H1650 0.950 . S
C1658 C1656 1.391 . S
C1658 C1659 1.400 . S
C1659 C1658 1.400 . S
C1659 C1660 1.398 . S
C1659 C1665 1.491 . S
C1660 H1651 0.950 . S
C1660 C1659 1.398 . S
C1660 C1661 1.391 . S
C1661 H1649 0.950 . S
C1661 C1657 1.393 . S
C1661 C1660 1.391 . S
C1662 H1652 0.950 . S
C1662 C1663 1.386 . S
C1662 C1664 1.391 . S
C1663 C1662 1.386 . S
C1663 C1667 1.393 . S
C1664 H1653 0.950 . S
C1664 C1662 1.391 . S
C1664 C1665 1.400 . S
C1665 C1659 1.491 . S
C1665 C1664 1.400 . S
C1665 C1666 1.398 . S
C1666 H1654 0.950 . S
C1666 C1665 1.398 . S
C1666 C1667 1.391 . S
C1667 H1655 0.950 . S
C1667 C1663 1.393 . S
C1667 C1666 1.391 . S
H1668 C1676 0.950 . S
H1669 C1681 0.950 . S
H1670 C1678 0.950 . S
H1671 C1680 0.950 . S
H1672 C1682 0.950 . S
H1673 C1684 0.950 . S
H1674 C1686 0.950 . S
H1675 C1687 0.950 . S
C1676 H1668 0.950 . S
C1676 C1677 1.386 . S
C1676 C1678 1.391 . S
C1677 C1676 1.386 . S
C1677 C1681 1.393 . S
C1678 H1670 0.950 . S
C1678 C1676 1.391 . S
C1678 C1679 1.400 . S
C1679 C1678 1.400 . S
C1679 C1680 1.398 . S
C1679 C1685 1.491 . S
C1680 H1671 0.950 . S
C1680 C1679 1.398 . S
C1680 C1681 1.391 . S
C1681 H1669 0.950 . S
C1681 C1677 1.393 . S
C1681 C1680 1.391 . S
C1682 H1672 0.950 . S
C1682 C1683 1.386 . S
C1682 C1684 1.391 . S
C1683 C1682 1.386 . S
C1683 C1687 1.393 . S
C1684 H1673 0.950 . S
C1684 C1682 1.391 . S
C1684 C1685 1.400 . S
C1685 C1679 1.491 . S
C1685 C1684 1.400 . S
C1685 C1686 1.398 . S
C1686 H1674 0.950 . S
C1686 C1685 1.398 . S
C1686 C1687 1.391 . S
C1687 H1675 0.950 . S
C1687 C1683 1.393 . S
C1687 C1686 1.391 . S
H1688 C1696 0.950 . S
H1689 C1701 0.950 . S
H1690 C1698 0.950 . S
H1691 C1700 0.950 . S
H1692 C1702 0.950 . S
H1693 C1704 0.950 . S
H1694 C1706 0.950 . S
H1695 C1707 0.950 . S
C1696 H1688 0.950 . S
C1696 C1697 1.386 . S
C1696 C1698 1.391 . S
C1697 C1696 1.386 . S
C1697 C1701 1.393 . S
C1698 H1690 0.950 . S
C1698 C1696 1.391 . S
C1698 C1699 1.400 . S
C1699 C1698 1.400 . S
C1699 C1700 1.398 . S
C1699 C1705 1.491 . S
C1700 H1691 0.950 . S
C1700 C1699 1.398 . S
C1700 C1701 1.391 . S
C1701 H1689 0.950 . S
C1701 C1697 1.393 . S
C1701 C1700 1.391 . S
C1702 H1692 0.950 . S
C1702 C1703 1.386 . S
C1702 C1704 1.391 . S
C1703 C1702 1.386 . S
C1703 C1707 1.393 . S
C1704 H1693 0.950 . S
C1704 C1702 1.391 . S
C1704 C1705 1.400 . S
C1705 C1699 1.491 . S
C1705 C1704 1.400 . S
C1705 C1706 1.398 . S
C1706 H1694 0.950 . S
C1706 C1705 1.398 . S
C1706 C1707 1.391 . S
C1707 H1695 0.950 . S
C1707 C1703 1.393 . S
C1707 C1706 1.391 . S
H1708 C1716 0.950 . S
H1709 C1721 0.950 . S
H1710 C1718 0.950 . S
H1711 C1720 0.950 . S
H1712 C1722 0.950 . S
H1713 C1724 0.950 . S
H1714 C1726 0.950 . S
H1715 C1727 0.950 . S
C1716 H1708 0.950 . S
C1716 C1717 1.386 . S
C1716 C1718 1.391 . S
C1717 C1716 1.386 . S
C1717 C1721 1.393 . S
C1718 H1710 0.950 . S
C1718 C1716 1.391 . S
C1718 C1719 1.400 . S
C1719 C1718 1.400 . S
C1719 C1720 1.398 . S
C1719 C1725 1.491 . S
C1720 H1711 0.950 . S
C1720 C1719 1.398 . S
C1720 C1721 1.391 . S
C1721 H1709 0.950 . S
C1721 C1717 1.393 . S
C1721 C1720 1.391 . S
C1722 H1712 0.950 . S
C1722 C1723 1.386 . S
C1722 C1724 1.391 . S
C1723 C1722 1.386 . S
C1723 C1727 1.393 . S
C1724 H1713 0.950 . S
C1724 C1722 1.391 . S
C1724 C1725 1.400 . S
C1725 C1719 1.491 . S
C1725 C1724 1.400 . S
C1725 C1726 1.398 . S
C1726 H1714 0.950 . S
C1726 C1725 1.398 . S
C1726 C1727 1.391 . S
C1727 H1715 0.950 . S
C1727 C1723 1.393 . S
C1727 C1726 1.391 . S
C457 C121 1.320 . S
C463 C9 1.320 . S
C477 C23 1.317 . S
C483 C359 1.317 . S
C497 C37 1.348 . S
C503 C149 1.348 . S
C517 C51 1.321 . S
C523 C387 1.321 . S
C537 C65 1.318 . S
C543 C177 1.318 . S
C557 C415 1.320 . S
C563 C79 1.320 . S
C577 C205 1.326 . S
C583 C93 1.326 . S
C597 C443 1.318 . S
C603 C107 1.318 . S
C617 C247 1.321 . S
C623 C135 1.321 . S
C637 C163 1.324 . S
C643 C275 1.324 . S
C657 C191 1.317 . S
C663 C303 1.317 . S
C677 C331 1.346 . S
C683 C219 1.346 . S
C697 C345 1.350 . S
C703 C233 1.350 . S
C717 C261 1.325 . S
C723 C373 1.325 . S
C737 C289 1.318 . S
C743 C401 1.318 . S
C757 C429 1.324 . S
C763 C317 1.324 . S
C777 C7 1.222 . S
C783 C63 1.228 . S
C797 C77 1.227 . S
C803 C21 1.219 . S
C817 C91 1.228 . S
C823 C35 1.221 . S
C837 C49 1.206 . S
C843 C105 1.214 . S
C857 C119 1.211 . S
C863 C175 1.222 . S
C877 C133 1.207 . S
C883 C189 1.206 . S
C897 C203 1.219 . S
C903 C147 1.227 . S
C917 C217 1.207 . S
C923 C161 1.218 . S
C937 C287 1.228 . S
C943 C231 1.220 . S
C957 C301 1.219 . S
C963 C245 1.208 . S
C977 C259 1.222 . S
C983 C315 1.228 . S
C997 C329 1.205 . S
C1003 C273 1.213 . S
C1017 C399 1.216 . S
C1023 C343 1.207 . S
C1037 C357 1.209 . S
C1043 C413 1.205 . S
C1057 C427 1.228 . S
C1063 C371 1.222 . S
C1077 C441 1.205 . S
C1083 C385 1.211 . S
C1097 C64 1.066 . S
C1103 C8 1.063 . S
C1117 C78 1.038 . S
C1123 C22 1.038 . S
C1137 C36 1.074 . S
C1143 C92 1.075 . S
C1157 C106 1.050 . S
C1163 C50 1.047 . S
C1177 C176 1.061 . S
C1183 C120 1.057 . S
C1197 C134 1.061 . S
C1203 C190 1.064 . S
C1217 C204 1.074 . S
C1223 C148 1.075 . S
C1237 C218 1.046 . S
C1243 C162 1.043 . S
C1257 C232 1.075 . S
C1263 C288 1.076 . S
C1277 C302 1.059 . S
C1283 C246 1.063 . S
C1297 C316 1.056 . S
C1303 C260 1.060 . S
C1317 C330 1.070 . S
C1323 C274 1.067 . S
C1337 C400 1.075 . S
C1343 C344 1.073 . S
C1357 C358 1.057 . S
C1363 C414 1.061 . S
C1377 C372 1.047 . S
C1383 C428 1.051 . S
C1397 C386 1.062 . S
C1403 C442 1.066 . S
C1417 C6 1.399 . S
C1423 C300 1.409 . S
C1437 C314 1.408 . S
C1443 C20 1.397 . S
C1457 C34 1.401 . S
C1463 C328 1.393 . S
C1477 C48 1.408 . S
C1483 C286 1.398 . S
C1497 C272 1.414 . S
C1503 C62 1.405 . S
C1517 C230 1.414 . S
C1523 C76 1.405 . S
C1537 C244 1.408 . S
C1543 C90 1.398 . S
C1557 C104 1.397 . S
C1563 C258 1.391 . S
C1577 C118 1.393 . S
C1583 C412 1.402 . S
C1597 C426 1.398 . S
C1603 C132 1.408 . S
C1617 C440 1.392 . S
C1623 C146 1.393 . S
C1637 C398 1.415 . S
C1643 C160 1.408 . S
C1657 C384 1.410 . S
C1663 C174 1.415 . S
C1677 C342 1.411 . S
C1683 C188 1.401 . S
C1697 C202 1.413 . S
C1703 C356 1.403 . S
C1717 C216 1.395 . S
C1723 C370 1.391 . S
