# Generated by pormake.
# Topology unj, (4)-cn, num edge types: 1
# Building blocks:
#     Node 0, Type 0, BuildingBlock: QUQFOY_clean_sbu_3, # of connection points: 4
#     Node 1, Type 0, BuildingBlock: QUQFOY_clean_sbu_3, # of connection points: 4
#     Node 2, Type 0, BuildingBlock: QUQFOY_clean_sbu_3, # of connection points: 4
#     Node 3, Type 0, BuildingBlock: QUQFOY_clean_sbu_3, # of connection points: 4
#     Node 4, Type 0, BuildingBlock: QUQFOY_clean_sbu_3, # of connection points: 4
#     Node 5, Type 0, BuildingBlock: QUQFOY_clean_sbu_3, # of connection points: 4
#     Edge 6, Type (0, 0), BuildingBlock: UVAHIK_clean_linker_0, # of connection points: 2
#     Edge 7, Type (0, 0), BuildingBlock: UVAHIK_clean_linker_0, # of connection points: 2
#     Edge 8, Type (0, 0), BuildingBlock: UVAHIK_clean_linker_0, # of connection points: 2
#     Edge 9, Type (0, 0), BuildingBlock: UVAHIK_clean_linker_0, # of connection points: 2
#     Edge 10, Type (0, 0), BuildingBlock: UVAHIK_clean_linker_0, # of connection points: 2
#     Edge 11, Type (0, 0), BuildingBlock: UVAHIK_clean_linker_0, # of connection points: 2
#     Edge 12, Type (0, 0), BuildingBlock: UVAHIK_clean_linker_0, # of connection points: 2
#     Edge 13, Type (0, 0), BuildingBlock: UVAHIK_clean_linker_0, # of connection points: 2
#     Edge 14, Type (0, 0), BuildingBlock: UVAHIK_clean_linker_0, # of connection points: 2
#     Edge 15, Type (0, 0), BuildingBlock: UVAHIK_clean_linker_0, # of connection points: 2
#     Edge 16, Type (0, 0), BuildingBlock: UVAHIK_clean_linker_0, # of connection points: 2
#     Edge 17, Type (0, 0), BuildingBlock: UVAHIK_clean_linker_0, # of connection points: 2
# Relax obj value: 0.028
# Max RMSD: 0.080
# Mean RMSD: 0.080
data_MOF--net-unj--node1-QUQFOY_clean_sbu_3--edge1-UVAHIK_clean_linker_0
_symmetry_space_group_name_H-M    P1
_symmetry_Int_Tables_number       1
_symmetry_cell_setting            triclinic
loop_
_symmetry_equiv_pos_as_xyz
'x, y, z'
_cell_length_a     43.768215
_cell_length_b     43.741416
_cell_length_c     48.575776
_cell_angle_alpha  90.084326
_cell_angle_beta   89.859912
_cell_angle_gamma 119.93876
loop_
_atom_site_label
_atom_site_type_symbol
_atom_site_fract_x
_atom_site_fract_y
_atom_site_fract_z
_atom_type_partial_charge
C0 C 0.56038 0.29087 0.53607 0.0
O1 O 0.57363 0.2729 0.54524 0.0
Cd2 Cd 0.54453 0.22758 0.5786 0.0
O3 O 0.53034 0.28505 0.54452 0.0
Cd4 Cd 0.48398 0.24565 0.57778 0.0
C5 C 0.46873 0.17244 0.54341 0.0
O6 O 0.52595 0.25403 0.6133 0.0
O7 O 0.47266 0.213 0.62177 0.0
O8 O 0.47813 0.29735 0.58463 0.0
C9 C 0.50387 0.23247 0.63035 0.0
O10 O 0.49781 0.1778 0.55352 0.0
C11 C 0.44473 0.28106 0.58568 0.0
O12 O 0.45792 0.19415 0.54781 0.0
O13 O 0.42906 0.2478 0.58258 0.0
C14 C 0.25103 0.55409 0.69973 0.0
O15 O 0.28282 0.571 0.70785 0.0
Cd16 Cd 0.30794 0.54733 0.73882 0.0
O17 O 0.23009 0.52313 0.70874 0.0
Cd18 Cd 0.22886 0.47956 0.74218 0.0
C19 C 0.28898 0.47039 0.7046 0.0
O20 O 0.26606 0.52352 0.77524 0.0
O21 O 0.25295 0.47044 0.78548 0.0
O22 O 0.17167 0.47178 0.75364 0.0
C23 C 0.26842 0.50278 0.79209 0.0
O24 O 0.31119 0.50133 0.71283 0.0
C25 C 0.15526 0.43832 0.75357 0.0
O26 O 0.25656 0.45615 0.71131 0.0
O27 O 0.17309 0.42346 0.74773 0.0
C28 C 0.6985 0.25984 0.86914 0.0
O29 O 0.71556 0.29095 0.87871 0.0
Cd30 Cd 0.75905 0.30774 0.91362 0.0
O31 O 0.70422 0.23575 0.87806 0.0
Cd32 Cd 0.74242 0.22964 0.913 0.0
C33 C 0.81715 0.28886 0.88086 0.0
O34 O 0.73146 0.26245 0.94788 0.0
O35 O 0.77272 0.25104 0.95785 0.0
O36 O 0.6917 0.17141 0.91974 0.0
C37 C 0.75239 0.26222 0.96566 0.0
O38 O 0.81073 0.31218 0.89047 0.0
C39 C 0.70884 0.1551 0.92056 0.0
O40 O 0.79564 0.25625 0.88481 0.0
O41 O 0.74202 0.17347 0.91739 0.0
C42 C 0.43071 0.69551 0.03193 0.0
O43 O 0.41355 0.71013 0.04016 0.0
Cd44 Cd 0.4373 0.75671 0.07314 0.0
O45 O 0.46085 0.70444 0.04207 0.0
Cd46 Cd 0.50087 0.74403 0.07841 0.0
C47 C 0.51564 0.8153 0.04194 0.0
O48 O 0.45504 0.73411 0.11111 0.0
O49 O 0.50674 0.77736 0.12103 0.0
O50 O 0.50772 0.69409 0.09001 0.0
C51 C 0.47514 0.75688 0.12845 0.0
O52 O 0.48472 0.80776 0.04935 0.0
C53 C 0.54109 0.71104 0.09143 0.0
O54 O 0.52801 0.79555 0.04873 0.0
O55 O 0.55633 0.74391 0.08638 0.0
C56 C 0.72425 0.43416 0.20361 0.0
O57 O 0.6937 0.42043 0.21424 0.0
Cd58 Cd 0.67875 0.44834 0.24968 0.0
O59 O 0.74866 0.46437 0.2115 0.0
Cd60 Cd 0.75598 0.51011 0.24558 0.0
C61 C 0.69396 0.52317 0.21584 0.0
O62 O 0.72613 0.4684 0.28232 0.0
O63 O 0.73692 0.5213 0.29069 0.0
O64 O 0.81535 0.52 0.2507 0.0
C65 C 0.72703 0.49052 0.29957 0.0
O66 O 0.67153 0.49398 0.22669 0.0
C67 C 0.83058 0.55342 0.25025 0.0
O68 O 0.72682 0.53448 0.21822 0.0
O69 O 0.81106 0.56699 0.24707 0.0
C70 C 0.27995 0.72629 0.36993 0.0
O71 O 0.26149 0.69478 0.37851 0.0
Cd72 Cd 0.21522 0.67555 0.41159 0.0
O73 O 0.2749 0.75074 0.37917 0.0
Cd74 Cd 0.23653 0.75848 0.41308 0.0
C75 C 0.16339 0.70177 0.37719 0.0
O76 O 0.2402 0.71979 0.44623 0.0
O77 O 0.20536 0.73897 0.45802 0.0
O78 O 0.28855 0.81502 0.42226 0.0
C79 C 0.21967 0.72082 0.46406 0.0
O80 O 0.16822 0.67713 0.38605 0.0
C81 C 0.27291 0.83285 0.42163 0.0
O82 O 0.18487 0.73388 0.38314 0.0
O83 O 0.24004 0.81607 0.41663 0.0
C84 C 0.46115 0.11881 0.51882 0.0
C85 C 0.44754 0.14074 0.52629 0.0
C86 C 0.44118 0.08864 0.503 0.0
C87 C 0.35013 0.02348 0.48627 0.0
H88 H 0.39412 -0.00401 0.42945 0.0
C89 C 0.27395 0.89005 0.42946 0.0
C90 C 0.29199 0.87106 0.42763 0.0
C91 C 0.29183 0.92561 0.43718 0.0
C92 C 0.38148 0.00327 0.4453 0.0
H93 H 0.40233 0.14833 0.5227 0.0
H94 H 0.36733 0.09532 0.49512 0.0
H95 H 0.42759 0.05369 0.4513 0.0
H96 H 0.34306 0.87468 0.43161 0.0
H97 H 0.37403 0.93633 0.4453 0.0
H98 H 0.30441 0.97263 0.48095 0.0
C99 C 0.39348 0.10157 0.50163 0.0
C100 C 0.40063 0.03629 0.45779 0.0
C101 C 0.41357 0.13195 0.51735 0.0
C102 C 0.32839 0.88857 0.43284 0.0
C103 C 0.34622 0.92402 0.44049 0.0
C104 C 0.33099 0.99038 0.47383 0.0
C105 C 0.40707 0.07957 0.49437 0.0
C106 C 0.38544 0.04639 0.47886 0.0
C107 C 0.32809 0.94284 0.44312 0.0
C108 C 0.34675 0.97959 0.45368 0.0
H109 H 0.48723 0.1248 0.52529 0.0
H110 H 0.45218 0.07193 0.49807 0.0
H111 H 0.33782 0.03042 0.50261 0.0
H112 H 0.2459 0.87729 0.42547 0.0
H113 H 0.27721 0.93952 0.43876 0.0
C114 C 0.38928 0.28151 0.59816 0.0
C115 C 0.42547 0.29999 0.59188 0.0
C116 C 0.37225 0.29968 0.60697 0.0
C117 C 0.39324 0.38258 0.64133 0.0
H118 H 0.29852 0.35945 0.62075 0.0
C119 C 0.33622 0.46816 0.67727 0.0
C120 C 0.30162 0.45075 0.68767 0.0
C121 C 0.34939 0.44955 0.66299 0.0
C122 C 0.32489 0.36597 0.62683 0.0
H123 H 0.47169 0.35203 0.58826 0.0
H124 H 0.44197 0.38361 0.60319 0.0
H125 H 0.32509 0.32716 0.59987 0.0
H126 H 0.25323 0.40028 0.69027 0.0
H127 H 0.27657 0.36754 0.66558 0.0
H128 H 0.39316 0.42094 0.66846 0.0
C129 C 0.42688 0.35509 0.60195 0.0
C130 C 0.34008 0.34754 0.61488 0.0
C131 C 0.44387 0.33699 0.59327 0.0
C132 C 0.28004 0.41444 0.68257 0.0
C133 C 0.29334 0.39572 0.66832 0.0
C134 C 0.37813 0.40089 0.65324 0.0
C135 C 0.39114 0.33662 0.60959 0.0
C136 C 0.37453 0.35585 0.62191 0.0
C137 C 0.3284 0.413 0.65886 0.0
C138 C 0.34389 0.393 0.64602 0.0
H139 H 0.37442 0.25297 0.59724 0.0
H140 H 0.34472 0.28472 0.61281 0.0
H141 H 0.41949 0.38903 0.64772 0.0
H142 H 0.35343 0.4962 0.68047 0.0
H143 H 0.37626 0.46378 0.65542 0.0
C144 C 0.85963 0.2753 0.85636 0.0
C145 C 0.84963 0.29994 0.86455 0.0
C146 C 0.89034 0.28602 0.84091 0.0
C147 C 0.95284 0.35733 0.79534 0.0
H148 H 0.02006 0.3294 0.81866 0.0
C149 C 0.09889 0.4359 0.7663 0.0
C150 C 0.11752 0.41804 0.76107 0.0
C151 C 0.06396 0.41753 0.7752 0.0
C152 C 0.0013 0.3369 0.81152 0.0
H153 H 0.86399 0.35511 0.86274 0.0
H154 H 0.91738 0.37368 0.83589 0.0
H155 H 0.96283 0.30437 0.84156 0.0
H156 H 0.11383 0.36674 0.76036 0.0
H157 H 0.05239 0.33444 0.77587 0.0
H158 H 0.9914 0.39031 0.76566 0.0
C159 C 0.90135 0.34605 0.84123 0.0
C160 C 0.96856 0.32261 0.82468 0.0
C161 C 0.87089 0.33543 0.85682 0.0
C162 C 0.10015 0.38121 0.76428 0.0
C163 C 0.06507 0.36277 0.77329 0.0
C164 C 0.98545 0.37147 0.78213 0.0
C165 C 0.91143 0.3215 0.83312 0.0
C166 C 0.94439 0.33339 0.81718 0.0
C167 C 0.04672 0.38082 0.77908 0.0
C168 C 0.01041 0.36214 0.79055 0.0
H169 H 0.84382 0.24775 0.86197 0.0
H170 H 0.89742 0.26652 0.83483 0.0
H171 H 0.93443 0.36558 0.78876 0.0
H172 H 0.1115 0.46427 0.76405 0.0
H173 H 0.05083 0.43235 0.77989 0.0
C174 C 0.52258 0.86731 0.01527 0.0
C175 C 0.53721 0.84724 0.02515 0.0
C176 C 0.54288 0.89764 -0.00032 0.0
C177 C 0.63413 0.96652 0.98757 0.0
H178 H 0.59358 0.9894 0.92552 0.0
C179 C 0.7104 0.09966 0.93054 0.0
C180 C 0.69095 0.11687 0.92632 0.0
C181 C 0.69337 0.06415 0.93838 0.0
C182 C 0.60526 0.98341 0.94283 0.0
H183 H 0.58463 0.84315 0.02612 0.0
H184 H 0.62015 0.89636 -0.00106 0.0
H185 H 0.56036 0.93181 0.94758 0.0
H186 H 0.63835 0.1101 0.92597 0.0
H187 H 0.60881 0.04855 0.93982 0.0
H188 H 0.67853 0.0185 0.98342 0.0
C189 C 0.59296 0.88857 0.00339 0.0
C190 C 0.58624 0.95046 0.95545 0.0
C191 C 0.57257 0.85806 0.01888 0.0
C192 C 0.6541 0.09761 0.9291 0.0
C193 C 0.63712 0.0622 0.93684 0.0
C194 C 0.65314 -0.00047 0.97498 0.0
C195 C 0.57833 0.90871 -0.00631 0.0
C196 C 0.60013 0.94199 0.97836 0.0
C197 C 0.65658 0.0452 0.942 0.0
C198 C 0.63854 0.00863 0.95289 0.0
H199 H 0.49543 0.85973 0.01967 0.0
H200 H 0.53101 0.9129 -0.00716 0.0
H201 H 0.6454 0.96086 0.00532 0.0
H202 H 0.73884 0.11381 0.92846 0.0
H203 H 0.70903 0.05165 0.94193 0.0
C204 C 0.70565 0.57826 0.19105 0.0
C205 C 0.68165 0.54392 0.20013 0.0
C206 C 0.69385 0.5978 0.1763 0.0
C207 C 0.61999 0.58802 0.13388 0.0
H208 H 0.64976 0.68394 0.15646 0.0
C209 C 0.5425 0.65692 0.10526 0.0
C210 C 0.56082 0.69323 0.09952 0.0
C211 C 0.56046 0.64003 0.11437 0.0
C212 C 0.64169 0.65743 0.14953 0.0
H213 H 0.62651 0.50311 0.20067 0.0
H214 H 0.60604 0.53718 0.17496 0.0
H215 H 0.67539 0.65185 0.17854 0.0
H216 H 0.61247 0.74023 0.09824 0.0
H217 H 0.64406 0.71052 0.11399 0.0
H218 H 0.58603 0.59331 0.10512 0.0
C219 C 0.63397 0.54888 0.17909 0.0
C220 C 0.65631 0.63905 0.16223 0.0
C221 C 0.64569 0.52948 0.194 0.0
C222 C 0.59765 0.71222 0.10256 0.0
C223 C 0.61569 0.69526 0.11171 0.0
C224 C 0.60553 0.60642 0.1211 0.0
C225 C 0.6579 0.58324 0.17013 0.0
C226 C 0.64502 0.6039 0.15493 0.0
C227 C 0.59721 0.65901 0.11791 0.0
C228 C 0.61562 0.64105 0.12921 0.0
H229 H 0.73353 0.59016 0.19544 0.0
H230 H 0.71287 0.62416 0.16952 0.0
H231 H 0.61129 0.56117 0.1275 0.0
H232 H 0.5141 0.64153 0.10319 0.0
H233 H 0.54532 0.61224 0.1194 0.0
C234 C 0.12359 0.71822 0.35196 0.0
C235 C 0.13282 0.69275 0.35919 0.0
C236 C 0.09446 0.70919 0.33504 0.0
C237 C 0.03545 0.64224 0.28493 0.0
H238 H 0.96512 0.66479 0.31075 0.0
C239 C 0.88947 0.55903 0.2579 0.0
C240 C 0.8689 0.57523 0.25495 0.0
C241 C 0.9249 0.57886 0.26521 0.0
C242 C 0.98479 0.65893 0.30285 0.0
H243 H 0.11902 0.63801 0.35395 0.0
H244 H 0.06844 0.62243 0.32465 0.0
H245 H 0.02186 0.68996 0.3341 0.0
H246 H 0.86968 0.62519 0.25608 0.0
H247 H 0.93188 0.66 0.26882 0.0
H248 H -0.00193 0.61037 0.25422 0.0
C249 C 0.08381 0.6494 0.33184 0.0
C250 C 0.01727 0.67331 0.31627 0.0
C251 C 0.11263 0.65828 0.34887 0.0
C252 C 0.88486 0.61196 0.25832 0.0
C253 C 0.9204 0.63185 0.26573 0.0
C254 C 0.00308 0.62798 0.27146 0.0
C255 C 0.07433 0.67468 0.32482 0.0
C256 C 0.04243 0.66416 0.30799 0.0
C257 C 0.9406 0.61538 0.26975 0.0
C258 C 0.97696 0.63524 0.28084 0.0
H259 H 0.13865 0.74502 0.35953 0.0
H260 H 0.08773 0.7292 0.32989 0.0
H261 H 0.05467 0.63529 0.2778 0.0
H262 H 0.87795 0.53078 0.25539 0.0
H263 H 0.93954 0.56525 0.26851 0.0
C264 C 0.60983 0.32105 0.50245 0.0
C265 C 0.58025 0.31895 0.51563 0.0
C266 C 0.62861 0.34724 0.48298 0.0
C267 C 0.61919 0.40744 0.43528 0.0
H268 H 0.71935 0.44316 0.42531 0.0
C269 C 0.70099 0.49687 0.34375 0.0
C270 C 0.71516 0.47985 0.3281 0.0
C271 C 0.68748 0.48454 0.37012 0.0
C272 C 0.69147 0.43372 0.42809 0.0
H273 H 0.54762 0.34321 0.51917 0.0
H274 H 0.58094 0.38952 0.48546 0.0
H275 H 0.6896 0.40813 0.46598 0.0
H276 H 0.72785 0.43786 0.32793 0.0
H277 H 0.70525 0.41708 0.37414 0.0
H278 H 0.6213 0.43287 0.39704 0.0
C279 C 0.58919 0.37046 0.48983 0.0
C280 C 0.67434 0.41341 0.4512 0.0
C281 C 0.57014 0.34396 0.50918 0.0
C282 C 0.71689 0.45132 0.33954 0.0
C283 C 0.70421 0.4396 0.36601 0.0
C284 C 0.6365 0.42824 0.41235 0.0
C285 C 0.61856 0.37229 0.4764 0.0
C286 C 0.63771 0.39882 0.4545 0.0
C287 C 0.68894 0.45573 0.38135 0.0
C288 C 0.67247 0.44041 0.40812 0.0
H289 H 0.61822 0.30209 0.50683 0.0
H290 H 0.65053 0.34723 0.47261 0.0
H291 H 0.59096 0.39649 0.43703 0.0
H292 H 0.69931 0.51889 0.3353 0.0
H293 H 0.67568 0.49725 0.38165 0.0
C294 C 0.22174 0.67458 0.49237 0.0
C295 C 0.2119 0.70047 0.48983 0.0
C296 C 0.21619 0.6562 0.51695 0.0
C297 C 0.2113 0.66623 0.59046 0.0
H298 H 0.18419 0.56718 0.59084 0.0
C299 C 0.20434 0.55123 0.6682 0.0
C300 C 0.2384 0.57043 0.67943 0.0
C301 C 0.1933 0.56619 0.6479 0.0
C302 C 0.19118 0.59467 0.59127 0.0
H303 H 0.18784 0.72698 0.5108 0.0
H304 H 0.17864 0.69499 0.55429 0.0
H305 H 0.17715 0.59366 0.54897 0.0
H306 H 0.28704 0.6209 0.67889 0.0
H307 H 0.26794 0.64671 0.64339 0.0
H308 H 0.22644 0.6675 0.63252 0.0
C309 C 0.19051 0.68895 0.53707 0.0
C310 C 0.18742 0.60989 0.56723 0.0
C311 C 0.19569 0.70714 0.51224 0.0
C312 C 0.26069 0.60529 0.67061 0.0
C313 C 0.24961 0.62025 0.65043 0.0
C314 C 0.21519 0.65104 0.61451 0.0
C315 C 0.20093 0.66345 0.53966 0.0
C316 C 0.19856 0.64606 0.56633 0.0
C317 C 0.21602 0.6007 0.63855 0.0
C318 C 0.20625 0.61537 0.61487 0.0
H319 H 0.23415 0.66874 0.47542 0.0
H320 H 0.22501 0.6371 0.51846 0.0
H321 H 0.2202 0.69421 0.59032 0.0
H322 H 0.18642 0.52439 0.67468 0.0
H323 H 0.16716 0.5506 0.63925 0.0
C324 C 0.66943 0.27914 0.83464 0.0
C325 C 0.67154 0.25166 0.84773 0.0
C326 C 0.64409 0.27184 0.81449 0.0
C327 C 0.58655 0.20339 0.76495 0.0
H328 H 0.54901 0.26654 0.75606 0.0
C329 C 0.49733 0.19833 0.67357 0.0
C330 C 0.51483 0.22989 0.65847 0.0
C331 C 0.50961 0.19606 0.69967 0.0
C332 C 0.55895 0.24844 0.75854 0.0
H333 H 0.64832 0.19482 0.85018 0.0
H334 H 0.60348 0.18199 0.81518 0.0
H335 H 0.58302 0.27103 0.79709 0.0
H336 H 0.55784 0.28402 0.65896 0.0
H337 H 0.57845 0.28034 0.70474 0.0
H338 H 0.56258 0.18123 0.72602 0.0
C339 C 0.62187 0.20925 0.82025 0.0
C340 C 0.57869 0.25118 0.78185 0.0
C341 C 0.64751 0.2166 0.84033 0.0
C342 C 0.54398 0.25934 0.67013 0.0
C343 C 0.55564 0.25733 0.69634 0.0
C344 C 0.5663 0.20033 0.74179 0.0
C345 C 0.6199 0.23683 0.80708 0.0
C346 C 0.59396 0.22968 0.78479 0.0
C347 C 0.53883 0.22563 0.71119 0.0
C348 C 0.55347 0.22369 0.73799 0.0
H349 H 0.68767 0.30646 0.83969 0.0
H350 H 0.64402 0.29382 0.80432 0.0
H351 H 0.59804 0.18653 0.76646 0.0
H352 H 0.47485 0.17524 0.66492 0.0
H353 H 0.4964 0.17135 0.71084 0.0
C354 C 0.31248 0.55251 0.82063 0.0
C355 C 0.28926 0.51616 0.81753 0.0
C356 C 0.33123 0.56581 0.845 0.0
C357 C 0.32455 0.54824 0.91804 0.0
H358 H 0.42124 0.6255 0.91827 0.0
C359 C 0.43626 0.65555 -0.00228 0.0
C360 C 0.41569 0.66816 0.01027 0.0
C361 C 0.42247 0.63103 0.97627 0.0
C362 C 0.39444 0.60355 0.91866 0.0
H363 H 0.26794 0.46506 0.83721 0.0
H364 H 0.30043 0.48859 0.88033 0.0
H365 H 0.39554 0.59318 0.87569 0.0
H366 H 0.36411 0.66391 0.01084 0.0
H367 H 0.34021 0.62132 0.97346 0.0
H368 H 0.32304 0.55949 0.96079 0.0
C369 C 0.30414 0.50663 0.86372 0.0
C370 C 0.37968 0.58526 0.89426 0.0
C371 C 0.28566 0.49322 0.8391 0.0
C372 C 0.38073 0.65489 0.00154 0.0
C373 C 0.36689 0.63021 0.98029 0.0
C374 C 0.33924 0.5667 0.94241 0.0
C375 C 0.32691 0.5431 0.86692 0.0
C376 C 0.34429 0.55815 0.89355 0.0
C377 C 0.38776 0.6184 0.96718 0.0
C378 C 0.374 0.5952 0.94275 0.0
H379 H 0.31594 0.57082 0.80429 0.0
H380 H 0.34821 0.59408 0.84703 0.0
H381 H 0.29716 0.52754 0.91803 0.0
H382 H 0.46326 0.66515 0.00404 0.0
H383 H 0.43906 0.62222 0.9666 0.0
C384 C 0.72377 0.27582 0.0042 0.0
C385 C 0.75366 0.2759 -0.0064 0.0
C386 C 0.72466 0.28978 0.03016 0.0
C387 C 0.78089 0.35762 0.07638 0.0
H388 H 0.70745 0.30563 0.13028 0.0
C389 C 0.76613 0.42441 0.17456 0.0
C390 C 0.73139 0.41464 0.18207 0.0
C391 C 0.77255 0.40546 0.15437 0.0
C392 C 0.72801 0.32064 0.11539 0.0
H393 H 0.80791 0.29037 0.00174 0.0
H394 H 0.80984 0.31622 0.04718 0.0
H395 H 0.71196 0.27539 0.0896 0.0
H396 H 0.6762 0.37762 0.1741 0.0
H397 H 0.68726 0.34557 0.13839 0.0
H398 H 0.79559 0.40341 0.10103 0.0
C399 C 0.78564 0.30473 0.03539 0.0
C400 C 0.73075 0.30319 0.09228 0.0
C401 C 0.7845 0.28994 0.00954 0.0
C402 C 0.70328 0.38567 0.16895 0.0
C403 C 0.70967 0.36705 0.14861 0.0
C404 C 0.77783 0.37526 0.09931 0.0
C405 C 0.75568 0.30471 0.04582 0.0
C406 C 0.75666 0.32173 0.07229 0.0
C407 C 0.74437 0.37658 0.14109 0.0
C408 C 0.7507 0.35716 0.1187 0.0
H409 H 0.69962 0.26502 -0.00763 0.0
H410 H 0.70136 0.2898 0.03771 0.0
H411 H 0.8009 0.37246 0.06104 0.0
H412 H 0.78836 0.44648 0.18447 0.0
H413 H 0.7996 0.41333 0.14931 0.0
C414 C 0.30813 0.70668 0.3347 0.0
C415 C 0.30706 0.73431 0.34859 0.0
C416 C 0.3328 0.71381 0.31394 0.0
C417 C 0.38976 0.78283 0.26443 0.0
H418 H 0.42472 0.71814 0.25161 0.0
C419 C 0.47911 0.78985 0.17185 0.0
C420 C 0.462 0.75893 0.15594 0.0
C421 C 0.46584 0.79127 0.19779 0.0
C422 C 0.41542 0.7366 0.25515 0.0
H423 H 0.33167 0.79122 0.352 0.0
H424 H 0.37545 0.80373 0.31601 0.0
H425 H 0.3921 0.71313 0.29372 0.0
H426 H 0.41822 0.70518 0.15473 0.0
H427 H 0.39578 0.70743 0.20022 0.0
H428 H 0.4132 0.80604 0.22553 0.0
C429 C 0.35669 0.7765 0.32087 0.0
C430 C 0.3965 0.7336 0.2791 0.0
C431 C 0.33169 0.76933 0.34155 0.0
C432 C 0.43185 0.7294 0.1665 0.0
C433 C 0.41913 0.73058 0.19255 0.0
C434 C 0.40922 0.78616 0.24062 0.0
C435 C 0.35738 0.74878 0.3067 0.0
C436 C 0.38229 0.75581 0.28354 0.0
C437 C 0.43591 0.7615 0.20834 0.0
C438 C 0.42114 0.76231 0.23545 0.0
H439 H 0.2894 0.67939 0.33945 0.0
H440 H 0.33192 0.69175 0.30307 0.0
H441 H 0.37902 0.80023 0.26706 0.0
H442 H 0.50236 0.81299 0.1641 0.0
H443 H 0.47905 0.8154 0.20971 0.0
loop_
_geom_bond_atom_site_label_1
_geom_bond_atom_site_label_2
_geom_bond_distance
_geom_bond_site_symmetry_2
_ccdc_geom_bond_type
C0 O1 1.306 . S
C0 O3 1.160 . S
O1 C0 1.306 . S
O1 Cd2 2.228 . S
Cd2 O1 2.228 . S
Cd2 O6 2.273 . S
Cd2 O10 2.277 . S
O3 C0 1.160 . S
O3 Cd4 2.203 . S
Cd4 O3 2.203 . S
Cd4 O6 2.411 . S
Cd4 O7 2.333 . S
Cd4 O8 2.352 . S
Cd4 O12 2.277 . S
Cd4 O13 2.356 . S
C5 O10 1.209 . S
C5 O12 1.226 . S
O6 Cd2 2.273 . S
O6 Cd4 2.411 . S
O6 C9 1.320 . S
O7 Cd4 2.333 . S
O7 C9 1.214 . S
O8 Cd4 2.352 . S
O8 C11 1.258 . S
C9 O6 1.320 . S
C9 O7 1.214 . S
O10 Cd2 2.277 . S
O10 C5 1.209 . S
C11 O8 1.258 . S
C11 O13 1.282 . S
O12 Cd4 2.277 . S
O12 C5 1.226 . S
O13 Cd4 2.356 . S
O13 C11 1.282 . S
C14 O15 1.306 . S
C14 O17 1.160 . S
O15 C14 1.306 . S
O15 Cd16 2.228 . S
Cd16 O15 2.228 . S
Cd16 O20 2.273 . S
Cd16 O24 2.277 . S
O17 C14 1.160 . S
O17 Cd18 2.203 . S
Cd18 O17 2.203 . S
Cd18 O20 2.411 . S
Cd18 O21 2.333 . S
Cd18 O22 2.352 . S
Cd18 O26 2.277 . S
Cd18 O27 2.356 . S
C19 O24 1.209 . S
C19 O26 1.226 . S
O20 Cd16 2.273 . S
O20 Cd18 2.411 . S
O20 C23 1.320 . S
O21 Cd18 2.333 . S
O21 C23 1.214 . S
O22 Cd18 2.352 . S
O22 C25 1.258 . S
C23 O20 1.320 . S
C23 O21 1.214 . S
O24 Cd16 2.277 . S
O24 C19 1.209 . S
C25 O22 1.258 . S
C25 O27 1.282 . S
O26 Cd18 2.277 . S
O26 C19 1.226 . S
O27 Cd18 2.356 . S
O27 C25 1.282 . S
C28 O29 1.306 . S
C28 O31 1.160 . S
O29 C28 1.306 . S
O29 Cd30 2.228 . S
Cd30 O29 2.228 . S
Cd30 O34 2.273 . S
Cd30 O38 2.277 . S
O31 C28 1.160 . S
O31 Cd32 2.203 . S
Cd32 O31 2.203 . S
Cd32 O34 2.411 . S
Cd32 O35 2.333 . S
Cd32 O36 2.352 . S
Cd32 O40 2.277 . S
Cd32 O41 2.356 . S
C33 O38 1.209 . S
C33 O40 1.226 . S
O34 Cd30 2.273 . S
O34 Cd32 2.411 . S
O34 C37 1.320 . S
O35 Cd32 2.333 . S
O35 C37 1.214 . S
O36 Cd32 2.352 . S
O36 C39 1.258 . S
C37 O34 1.320 . S
C37 O35 1.214 . S
O38 Cd30 2.277 . S
O38 C33 1.209 . S
C39 O36 1.258 . S
C39 O41 1.282 . S
O40 Cd32 2.277 . S
O40 C33 1.226 . S
O41 Cd32 2.356 . S
O41 C39 1.282 . S
C42 O43 1.306 . S
C42 O45 1.160 . S
O43 C42 1.306 . S
O43 Cd44 2.228 . S
Cd44 O43 2.228 . S
Cd44 O48 2.273 . S
Cd44 O52 2.277 . S
O45 C42 1.160 . S
O45 Cd46 2.203 . S
Cd46 O45 2.203 . S
Cd46 O48 2.411 . S
Cd46 O49 2.333 . S
Cd46 O50 2.352 . S
Cd46 O54 2.277 . S
Cd46 O55 2.356 . S
C47 O52 1.209 . S
C47 O54 1.226 . S
O48 Cd44 2.273 . S
O48 Cd46 2.411 . S
O48 C51 1.320 . S
O49 Cd46 2.333 . S
O49 C51 1.214 . S
O50 Cd46 2.352 . S
O50 C53 1.258 . S
C51 O48 1.320 . S
C51 O49 1.214 . S
O52 Cd44 2.277 . S
O52 C47 1.209 . S
C53 O50 1.258 . S
C53 O55 1.282 . S
O54 Cd46 2.277 . S
O54 C47 1.226 . S
O55 Cd46 2.356 . S
O55 C53 1.282 . S
C56 O57 1.306 . S
C56 O59 1.160 . S
O57 C56 1.306 . S
O57 Cd58 2.228 . S
Cd58 O57 2.228 . S
Cd58 O62 2.273 . S
Cd58 O66 2.277 . S
O59 C56 1.160 . S
O59 Cd60 2.203 . S
Cd60 O59 2.203 . S
Cd60 O62 2.411 . S
Cd60 O63 2.333 . S
Cd60 O64 2.352 . S
Cd60 O68 2.277 . S
Cd60 O69 2.356 . S
C61 O66 1.209 . S
C61 O68 1.226 . S
O62 Cd58 2.273 . S
O62 Cd60 2.411 . S
O62 C65 1.320 . S
O63 Cd60 2.333 . S
O63 C65 1.214 . S
O64 Cd60 2.352 . S
O64 C67 1.258 . S
C65 O62 1.320 . S
C65 O63 1.214 . S
O66 Cd58 2.277 . S
O66 C61 1.209 . S
C67 O64 1.258 . S
C67 O69 1.282 . S
O68 Cd60 2.277 . S
O68 C61 1.226 . S
O69 Cd60 2.356 . S
O69 C67 1.282 . S
C70 O71 1.306 . S
C70 O73 1.160 . S
O71 C70 1.306 . S
O71 Cd72 2.228 . S
Cd72 O71 2.228 . S
Cd72 O76 2.273 . S
Cd72 O80 2.277 . S
O73 C70 1.160 . S
O73 Cd74 2.203 . S
Cd74 O73 2.203 . S
Cd74 O76 2.411 . S
Cd74 O77 2.333 . S
Cd74 O78 2.352 . S
Cd74 O82 2.277 . S
Cd74 O83 2.356 . S
C75 O80 1.209 . S
C75 O82 1.226 . S
O76 Cd72 2.273 . S
O76 Cd74 2.411 . S
O76 C79 1.320 . S
O77 Cd74 2.333 . S
O77 C79 1.214 . S
O78 Cd74 2.352 . S
O78 C81 1.258 . S
C79 O76 1.320 . S
C79 O77 1.214 . S
O80 Cd72 2.277 . S
O80 C75 1.209 . S
C81 O78 1.258 . S
C81 O83 1.282 . S
O82 Cd74 2.277 . S
O82 C75 1.226 . S
O83 Cd74 2.356 . S
O83 C81 1.282 . S
C84 C85 1.349 . S
C84 C86 1.327 . S
C84 H109 0.950 . S
C85 C84 1.349 . S
C85 C101 1.349 . S
C86 C84 1.327 . S
C86 C105 1.429 . S
C86 H110 0.950 . S
C87 C104 1.574 1_545 S
C87 C106 1.368 . S
C87 H111 0.949 . S
H88 C92 0.949 1_565 S
C89 C90 1.349 . S
C89 C91 1.327 . S
C89 H112 0.950 . S
C90 C89 1.349 . S
C90 C102 1.349 . S
C91 C89 1.327 . S
C91 C107 1.429 . S
C91 H113 0.950 . S
C92 H88 0.949 1_545 S
C92 C100 1.574 . S
C92 C108 1.368 1_545 S
H93 C101 0.950 . S
H94 C99 0.950 . S
H95 C100 0.949 . S
H96 C102 0.950 . S
H97 C103 0.950 . S
H98 C104 0.949 . S
C99 H94 0.950 . S
C99 C101 1.327 . S
C99 C105 1.429 . S
C100 C92 1.574 . S
C100 H95 0.949 . S
C100 C106 1.368 . S
C101 C85 1.349 . S
C101 H93 0.950 . S
C101 C99 1.327 . S
C102 C90 1.349 . S
C102 H96 0.950 . S
C102 C103 1.327 . S
C103 H97 0.950 . S
C103 C102 1.327 . S
C103 C107 1.429 . S
C104 C87 1.574 1_565 S
C104 H98 0.949 . S
C104 C108 1.368 . S
C105 C86 1.429 . S
C105 C99 1.429 . S
C105 C106 1.523 . S
C106 C87 1.368 . S
C106 C100 1.368 . S
C106 C105 1.523 . S
C107 C91 1.429 . S
C107 C103 1.429 . S
C107 C108 1.523 . S
C108 C92 1.368 1_565 S
C108 C104 1.368 . S
C108 C107 1.523 . S
H109 C84 0.950 . S
H110 C86 0.950 . S
H111 C87 0.949 . S
H112 C89 0.950 . S
H113 C91 0.950 . S
C114 C115 1.349 . S
C114 C116 1.327 . S
C114 H139 0.950 . S
C115 C114 1.349 . S
C115 C131 1.349 . S
C116 C114 1.327 . S
C116 C135 1.429 . S
C116 H140 0.950 . S
C117 C134 1.574 . S
C117 C136 1.368 . S
C117 H141 0.949 . S
H118 C122 0.949 . S
C119 C120 1.349 . S
C119 C121 1.327 . S
C119 H142 0.950 . S
C120 C119 1.349 . S
C120 C132 1.349 . S
C121 C119 1.327 . S
C121 C137 1.429 . S
C121 H143 0.950 . S
C122 H118 0.949 . S
C122 C130 1.574 . S
C122 C138 1.368 . S
H123 C131 0.950 . S
H124 C129 0.950 . S
H125 C130 0.949 . S
H126 C132 0.950 . S
H127 C133 0.950 . S
H128 C134 0.949 . S
C129 H124 0.950 . S
C129 C131 1.327 . S
C129 C135 1.429 . S
C130 C122 1.574 . S
C130 H125 0.949 . S
C130 C136 1.368 . S
C131 C115 1.349 . S
C131 H123 0.950 . S
C131 C129 1.327 . S
C132 C120 1.349 . S
C132 H126 0.950 . S
C132 C133 1.327 . S
C133 H127 0.950 . S
C133 C132 1.327 . S
C133 C137 1.429 . S
C134 C117 1.574 . S
C134 H128 0.949 . S
C134 C138 1.368 . S
C135 C116 1.429 . S
C135 C129 1.429 . S
C135 C136 1.523 . S
C136 C117 1.368 . S
C136 C130 1.368 . S
C136 C135 1.523 . S
C137 C121 1.429 . S
C137 C133 1.429 . S
C137 C138 1.523 . S
C138 C122 1.368 . S
C138 C134 1.368 . S
C138 C137 1.523 . S
H139 C114 0.950 . S
H140 C116 0.950 . S
H141 C117 0.949 . S
H142 C119 0.950 . S
H143 C121 0.950 . S
C144 C145 1.349 . S
C144 C146 1.327 . S
C144 H169 0.950 . S
C145 C144 1.349 . S
C145 C161 1.349 . S
C146 C144 1.327 . S
C146 C165 1.429 . S
C146 H170 0.950 . S
C147 C164 1.574 . S
C147 C166 1.368 . S
C147 H171 0.949 . S
H148 C152 0.949 . S
C149 C150 1.349 . S
C149 C151 1.327 . S
C149 H172 0.950 . S
C150 C149 1.349 . S
C150 C162 1.349 . S
C151 C149 1.327 . S
C151 C167 1.429 . S
C151 H173 0.950 . S
C152 H148 0.949 . S
C152 C160 1.574 1_455 S
C152 C168 1.368 . S
H153 C161 0.950 . S
H154 C159 0.950 . S
H155 C160 0.949 . S
H156 C162 0.950 . S
H157 C163 0.950 . S
H158 C164 0.949 . S
C159 H154 0.950 . S
C159 C161 1.327 . S
C159 C165 1.429 . S
C160 C152 1.574 1_655 S
C160 H155 0.949 . S
C160 C166 1.368 . S
C161 C145 1.349 . S
C161 H153 0.950 . S
C161 C159 1.327 . S
C162 C150 1.349 . S
C162 H156 0.950 . S
C162 C163 1.327 . S
C163 H157 0.950 . S
C163 C162 1.327 . S
C163 C167 1.429 . S
C164 C147 1.574 . S
C164 H158 0.949 . S
C164 C168 1.368 1_655 S
C165 C146 1.429 . S
C165 C159 1.429 . S
C165 C166 1.523 . S
C166 C147 1.368 . S
C166 C160 1.368 . S
C166 C165 1.523 . S
C167 C151 1.429 . S
C167 C163 1.429 . S
C167 C168 1.523 . S
C168 C152 1.368 . S
C168 C164 1.368 1_455 S
C168 C167 1.523 . S
H169 C144 0.950 . S
H170 C146 0.950 . S
H171 C147 0.949 . S
H172 C149 0.950 . S
H173 C151 0.950 . S
C174 C175 1.349 . S
C174 C176 1.327 . S
C174 H199 0.950 . S
C175 C174 1.349 . S
C175 C191 1.349 . S
C176 C174 1.327 . S
C176 C195 1.429 . S
C176 H200 0.976 . S
C177 C194 1.574 1_565 S
C177 C196 1.368 . S
C177 H201 0.949 . S
H178 C182 0.949 1_545 S
C179 C180 1.349 . S
C179 C181 1.327 . S
C179 H202 0.950 . S
C180 C179 1.349 . S
C180 C192 1.349 . S
C181 C179 1.327 . S
C181 C197 1.429 . S
C181 H203 0.918 1_556 S
C182 H178 0.949 1_565 S
C182 C190 1.574 . S
C182 C198 1.368 1_565 S
H183 C191 0.950 . S
H184 C189 0.950 . S
H185 C190 0.949 . S
H186 C192 0.950 . S
H187 C193 0.950 . S
H188 C194 0.949 . S
C189 H184 0.950 . S
C189 C191 1.327 . S
C189 C195 1.429 . S
C190 C182 1.574 . S
C190 H185 0.949 . S
C190 C196 1.368 1_556 S
C191 C175 1.349 . S
C191 H183 0.950 . S
C191 C189 1.327 . S
C192 C180 1.349 . S
C192 H186 0.950 . S
C192 C193 1.327 . S
C193 H187 0.950 . S
C193 C192 1.327 . S
C193 C197 1.429 . S
C194 C177 1.574 1_545 S
C194 H188 0.949 . S
C194 C198 1.368 1_554 S
C195 C176 1.429 . S
C195 C189 1.429 . S
C195 C196 1.523 . S
C196 C177 1.368 . S
C196 C190 1.368 1_554 S
C196 C195 1.523 . S
C197 C181 1.429 . S
C197 C193 1.429 . S
C197 C198 1.523 . S
C198 C182 1.368 1_545 S
C198 C194 1.368 1_556 S
C198 C197 1.523 . S
H199 C174 0.950 . S
H200 C176 0.976 . S
H201 C177 0.949 . S
H202 C179 0.950 . S
H203 C181 0.918 1_554 S
C204 C205 1.349 . S
C204 C206 1.327 . S
C204 H229 0.950 . S
C205 C204 1.349 . S
C205 C221 1.349 . S
C206 C204 1.327 . S
C206 C225 1.429 . S
C206 H230 0.950 . S
C207 C224 1.574 . S
C207 C226 1.368 . S
C207 H231 0.949 . S
H208 C212 0.949 . S
C209 C210 1.349 . S
C209 C211 1.327 . S
C209 H232 0.950 . S
C210 C209 1.349 . S
C210 C222 1.349 . S
C211 C209 1.327 . S
C211 C227 1.429 . S
C211 H233 0.950 . S
C212 H208 0.949 . S
C212 C220 1.574 . S
C212 C228 1.368 . S
H213 C221 0.950 . S
H214 C219 0.950 . S
H215 C220 0.949 . S
H216 C222 0.950 . S
H217 C223 0.950 . S
H218 C224 0.949 . S
C219 H214 0.950 . S
C219 C221 1.327 . S
C219 C225 1.429 . S
C220 C212 1.574 . S
C220 H215 0.949 . S
C220 C226 1.368 . S
C221 C205 1.349 . S
C221 H213 0.950 . S
C221 C219 1.327 . S
C222 C210 1.349 . S
C222 H216 0.950 . S
C222 C223 1.327 . S
C223 H217 0.950 . S
C223 C222 1.327 . S
C223 C227 1.429 . S
C224 C207 1.574 . S
C224 H218 0.949 . S
C224 C228 1.368 . S
C225 C206 1.429 . S
C225 C219 1.429 . S
C225 C226 1.523 . S
C226 C207 1.368 . S
C226 C220 1.368 . S
C226 C225 1.523 . S
C227 C211 1.429 . S
C227 C223 1.429 . S
C227 C228 1.523 . S
C228 C212 1.368 . S
C228 C224 1.368 . S
C228 C227 1.523 . S
H229 C204 0.950 . S
H230 C206 0.950 . S
H231 C207 0.949 . S
H232 C209 0.950 . S
H233 C211 0.950 . S
C234 C235 1.349 . S
C234 C236 1.327 . S
C234 H259 0.950 . S
C235 C234 1.349 . S
C235 C251 1.349 . S
C236 C234 1.327 . S
C236 C255 1.429 . S
C236 H260 0.950 . S
C237 C254 1.574 . S
C237 C256 1.368 . S
C237 H261 0.949 . S
H238 C242 0.949 . S
C239 C240 1.349 . S
C239 C241 1.327 . S
C239 H262 0.950 . S
C240 C239 1.349 . S
C240 C252 1.349 . S
C241 C239 1.327 . S
C241 C257 1.429 . S
C241 H263 0.950 . S
C242 H238 0.949 . S
C242 C250 1.574 1_655 S
C242 C258 1.368 . S
H243 C251 0.950 . S
H244 C249 0.950 . S
H245 C250 0.949 . S
H246 C252 0.950 . S
H247 C253 0.950 . S
H248 C254 0.949 . S
C249 H244 0.950 . S
C249 C251 1.327 . S
C249 C255 1.429 . S
C250 C242 1.574 1_455 S
C250 H245 0.949 . S
C250 C256 1.368 . S
C251 C235 1.349 . S
C251 H243 0.950 . S
C251 C249 1.327 . S
C252 C240 1.349 . S
C252 H246 0.950 . S
C252 C253 1.327 . S
C253 H247 0.950 . S
C253 C252 1.327 . S
C253 C257 1.429 . S
C254 C237 1.574 . S
C254 H248 0.949 . S
C254 C258 1.368 1_455 S
C255 C236 1.429 . S
C255 C249 1.429 . S
C255 C256 1.523 . S
C256 C237 1.368 . S
C256 C250 1.368 . S
C256 C255 1.523 . S
C257 C241 1.429 . S
C257 C253 1.429 . S
C257 C258 1.523 . S
C258 C242 1.368 . S
C258 C254 1.368 1_655 S
C258 C257 1.523 . S
H259 C234 0.950 . S
H260 C236 0.950 . S
H261 C237 0.949 . S
H262 C239 0.950 . S
H263 C241 0.950 . S
C264 C265 1.349 . S
C264 C266 1.327 . S
C264 H289 0.950 . S
C265 C264 1.349 . S
C265 C281 1.349 . S
C266 C264 1.327 . S
C266 C285 1.429 . S
C266 H290 0.950 . S
C267 C284 1.574 . S
C267 C286 1.368 . S
C267 H291 0.949 . S
H268 C272 0.949 . S
C269 C270 1.349 . S
C269 C271 1.327 . S
C269 H292 0.950 . S
C270 C269 1.349 . S
C270 C282 1.349 . S
C271 C269 1.327 . S
C271 C287 1.429 . S
C271 H293 0.950 . S
C272 H268 0.949 . S
C272 C280 1.574 . S
C272 C288 1.368 . S
H273 C281 0.950 . S
H274 C279 0.950 . S
H275 C280 0.949 . S
H276 C282 0.950 . S
H277 C283 0.950 . S
H278 C284 0.949 . S
C279 H274 0.950 . S
C279 C281 1.327 . S
C279 C285 1.429 . S
C280 C272 1.574 . S
C280 H275 0.949 . S
C280 C286 1.368 . S
C281 C265 1.349 . S
C281 H273 0.950 . S
C281 C279 1.327 . S
C282 C270 1.349 . S
C282 H276 0.950 . S
C282 C283 1.327 . S
C283 H277 0.950 . S
C283 C282 1.327 . S
C283 C287 1.429 . S
C284 C267 1.574 . S
C284 H278 0.949 . S
C284 C288 1.368 . S
C285 C266 1.429 . S
C285 C279 1.429 . S
C285 C286 1.523 . S
C286 C267 1.368 . S
C286 C280 1.368 . S
C286 C285 1.523 . S
C287 C271 1.429 . S
C287 C283 1.429 . S
C287 C288 1.523 . S
C288 C272 1.368 . S
C288 C284 1.368 . S
C288 C287 1.523 . S
H289 C264 0.950 . S
H290 C266 0.950 . S
H291 C267 0.949 . S
H292 C269 0.950 . S
H293 C271 0.950 . S
C294 C295 1.349 . S
C294 C296 1.327 . S
C294 H319 0.950 . S
C295 C294 1.349 . S
C295 C311 1.349 . S
C296 C294 1.327 . S
C296 C315 1.429 . S
C296 H320 0.950 . S
C297 C314 1.574 . S
C297 C316 1.368 . S
C297 H321 0.949 . S
H298 C302 0.949 . S
C299 C300 1.349 . S
C299 C301 1.327 . S
C299 H322 0.950 . S
C300 C299 1.349 . S
C300 C312 1.349 . S
C301 C299 1.327 . S
C301 C317 1.429 . S
C301 H323 0.950 . S
C302 H298 0.949 . S
C302 C310 1.574 . S
C302 C318 1.368 . S
H303 C311 0.950 . S
H304 C309 0.950 . S
H305 C310 0.949 . S
H306 C312 0.950 . S
H307 C313 0.950 . S
H308 C314 0.949 . S
C309 H304 0.950 . S
C309 C311 1.327 . S
C309 C315 1.429 . S
C310 C302 1.574 . S
C310 H305 0.949 . S
C310 C316 1.368 . S
C311 C295 1.349 . S
C311 H303 0.950 . S
C311 C309 1.327 . S
C312 C300 1.349 . S
C312 H306 0.950 . S
C312 C313 1.327 . S
C313 H307 0.950 . S
C313 C312 1.327 . S
C313 C317 1.429 . S
C314 C297 1.574 . S
C314 H308 0.949 . S
C314 C318 1.368 . S
C315 C296 1.429 . S
C315 C309 1.429 . S
C315 C316 1.523 . S
C316 C297 1.368 . S
C316 C310 1.368 . S
C316 C315 1.523 . S
C317 C301 1.429 . S
C317 C313 1.429 . S
C317 C318 1.523 . S
C318 C302 1.368 . S
C318 C314 1.368 . S
C318 C317 1.523 . S
H319 C294 0.950 . S
H320 C296 0.950 . S
H321 C297 0.949 . S
H322 C299 0.950 . S
H323 C301 0.950 . S
C324 C325 1.349 . S
C324 C326 1.327 . S
C324 H349 0.950 . S
C325 C324 1.349 . S
C325 C341 1.349 . S
C326 C324 1.327 . S
C326 C345 1.429 . S
C326 H350 0.950 . S
C327 C344 1.574 . S
C327 C346 1.368 . S
C327 H351 0.949 . S
H328 C332 0.949 . S
C329 C330 1.349 . S
C329 C331 1.327 . S
C329 H352 0.950 . S
C330 C329 1.349 . S
C330 C342 1.349 . S
C331 C329 1.327 . S
C331 C347 1.429 . S
C331 H353 0.950 . S
C332 H328 0.949 . S
C332 C340 1.574 . S
C332 C348 1.368 . S
H333 C341 0.950 . S
H334 C339 0.950 . S
H335 C340 0.949 . S
H336 C342 0.950 . S
H337 C343 0.950 . S
H338 C344 0.949 . S
C339 H334 0.950 . S
C339 C341 1.327 . S
C339 C345 1.429 . S
C340 C332 1.574 . S
C340 H335 0.949 . S
C340 C346 1.368 . S
C341 C325 1.349 . S
C341 H333 0.950 . S
C341 C339 1.327 . S
C342 C330 1.349 . S
C342 H336 0.950 . S
C342 C343 1.327 . S
C343 H337 0.950 . S
C343 C342 1.327 . S
C343 C347 1.429 . S
C344 C327 1.574 . S
C344 H338 0.949 . S
C344 C348 1.368 . S
C345 C326 1.429 . S
C345 C339 1.429 . S
C345 C346 1.523 . S
C346 C327 1.368 . S
C346 C340 1.368 . S
C346 C345 1.523 . S
C347 C331 1.429 . S
C347 C343 1.429 . S
C347 C348 1.523 . S
C348 C332 1.368 . S
C348 C344 1.368 . S
C348 C347 1.523 . S
H349 C324 0.950 . S
H350 C326 0.950 . S
H351 C327 0.949 . S
H352 C329 0.950 . S
H353 C331 0.950 . S
C354 C355 1.349 . S
C354 C356 1.327 . S
C354 H379 0.950 . S
C355 C354 1.349 . S
C355 C371 1.349 . S
C356 C354 1.327 . S
C356 C375 1.429 . S
C356 H380 0.950 . S
C357 C374 1.574 . S
C357 C376 1.368 . S
C357 H381 0.949 . S
H358 C362 0.949 . S
C359 C360 1.349 . S
C359 C361 1.327 1_554 S
C359 H382 0.950 . S
C360 C359 1.349 . S
C360 C372 1.349 1_554 S
C361 C359 1.327 1_556 S
C361 C377 1.429 . S
C361 H383 0.950 . S
C362 H358 0.949 . S
C362 C370 1.574 . S
C362 C378 1.368 . S
H363 C371 0.950 . S
H364 C369 0.950 . S
H365 C370 0.949 . S
H366 C372 0.950 . S
H367 C373 0.950 . S
H368 C374 0.949 . S
C369 H364 0.950 . S
C369 C371 1.327 . S
C369 C375 1.429 . S
C370 C362 1.574 . S
C370 H365 0.949 . S
C370 C376 1.368 . S
C371 C355 1.349 . S
C371 H363 0.950 . S
C371 C369 1.327 . S
C372 C360 1.349 1_556 S
C372 H366 0.950 . S
C372 C373 1.327 . S
C373 H367 0.950 . S
C373 C372 1.327 . S
C373 C377 1.429 . S
C374 C357 1.574 . S
C374 H368 0.949 . S
C374 C378 1.368 . S
C375 C356 1.429 . S
C375 C369 1.429 . S
C375 C376 1.523 . S
C376 C357 1.368 . S
C376 C370 1.368 . S
C376 C375 1.523 . S
C377 C361 1.429 . S
C377 C373 1.429 . S
C377 C378 1.523 . S
C378 C362 1.368 . S
C378 C374 1.368 . S
C378 C377 1.523 . S
H379 C354 0.950 . S
H380 C356 0.950 . S
H381 C357 0.949 . S
H382 C359 0.950 . S
H383 C361 0.950 . S
C384 C385 1.349 . S
C384 C386 1.327 1_556 S
C384 H409 0.950 . S
C385 C384 1.349 . S
C385 C401 1.349 . S
C386 C384 1.327 1_554 S
C386 C405 1.429 . S
C386 H410 0.950 . S
C387 C404 1.574 . S
C387 C406 1.368 . S
C387 H411 0.949 . S
H388 C392 0.949 . S
C389 C390 1.349 . S
C389 C391 1.327 . S
C389 H412 0.950 . S
C390 C389 1.349 . S
C390 C402 1.349 . S
C391 C389 1.327 . S
C391 C407 1.429 . S
C391 H413 0.950 . S
C392 H388 0.949 . S
C392 C400 1.574 . S
C392 C408 1.368 . S
H393 C401 0.950 . S
H394 C399 0.950 . S
H395 C400 0.949 . S
H396 C402 0.950 . S
H397 C403 0.950 . S
H398 C404 0.949 . S
C399 H394 0.950 . S
C399 C401 1.327 1_554 S
C399 C405 1.429 . S
C400 C392 1.574 . S
C400 H395 0.949 . S
C400 C406 1.368 . S
C401 C385 1.349 . S
C401 H393 0.950 . S
C401 C399 1.327 1_556 S
C402 C390 1.349 . S
C402 H396 0.950 . S
C402 C403 1.327 . S
C403 H397 0.950 . S
C403 C402 1.327 . S
C403 C407 1.429 . S
C404 C387 1.574 . S
C404 H398 0.949 . S
C404 C408 1.368 . S
C405 C386 1.429 . S
C405 C399 1.429 . S
C405 C406 1.523 . S
C406 C387 1.368 . S
C406 C400 1.368 . S
C406 C405 1.523 . S
C407 C391 1.429 . S
C407 C403 1.429 . S
C407 C408 1.523 . S
C408 C392 1.368 . S
C408 C404 1.368 . S
C408 C407 1.523 . S
H409 C384 0.950 . S
H410 C386 0.950 . S
H411 C387 0.949 . S
H412 C389 0.950 . S
H413 C391 0.950 . S
C414 C415 1.349 . S
C414 C416 1.327 . S
C414 H439 0.950 . S
C415 C414 1.349 . S
C415 C431 1.349 . S
C416 C414 1.327 . S
C416 C435 1.429 . S
C416 H440 0.950 . S
C417 C434 1.574 . S
C417 C436 1.368 . S
C417 H441 0.949 . S
H418 C422 0.949 . S
C419 C420 1.349 . S
C419 C421 1.327 . S
C419 H442 0.950 . S
C420 C419 1.349 . S
C420 C432 1.349 . S
C421 C419 1.327 . S
C421 C437 1.429 . S
C421 H443 0.950 . S
C422 H418 0.949 . S
C422 C430 1.574 . S
C422 C438 1.368 . S
H423 C431 0.950 . S
H424 C429 0.950 . S
H425 C430 0.949 . S
H426 C432 0.950 . S
H427 C433 0.950 . S
H428 C434 0.949 . S
C429 H424 0.950 . S
C429 C431 1.327 . S
C429 C435 1.429 . S
C430 C422 1.574 . S
C430 H425 0.949 . S
C430 C436 1.368 . S
C431 C415 1.349 . S
C431 H423 0.950 . S
C431 C429 1.327 . S
C432 C420 1.349 . S
C432 H426 0.950 . S
C432 C433 1.327 . S
C433 H427 0.950 . S
C433 C432 1.327 . S
C433 C437 1.429 . S
C434 C417 1.574 . S
C434 H428 0.949 . S
C434 C438 1.368 . S
C435 C416 1.429 . S
C435 C429 1.429 . S
C435 C436 1.523 . S
C436 C417 1.368 . S
C436 C430 1.368 . S
C436 C435 1.523 . S
C437 C421 1.429 . S
C437 C433 1.429 . S
C437 C438 1.523 . S
C438 C422 1.368 . S
C438 C434 1.368 . S
C438 C437 1.523 . S
H439 C414 0.950 . S
H440 C416 0.950 . S
H441 C417 0.949 . S
H442 C419 0.950 . S
H443 C421 0.950 . S
C85 C5 1.636 . S
C90 C81 1.629 . S
C115 C11 1.630 . S
C120 C19 1.636 . S
C145 C33 1.636 . S
C150 C25 1.629 . S
C175 C47 1.636 . S
C180 C39 1.629 . S
C205 C61 1.636 . S
C210 C53 1.629 . S
C235 C75 1.636 . S
C240 C67 1.629 . S
C265 C0 1.435 . S
C270 C65 1.444 . S
C295 C79 1.444 . S
C300 C14 1.435 . S
C325 C28 1.435 . S
C330 C9 1.444 . S
C355 C23 1.444 . S
C360 C42 1.435 . S
C385 C37 1.444 . S
C390 C56 1.435 . S
C415 C70 1.435 . S
C420 C51 1.444 . S
