# Generated by pormake.
# Topology ums, (4)-cn, num edge types: 1
# Building blocks:
#     Node 0, Type 0, BuildingBlock: QUQFOY_clean_sbu_1, # of connection points: 4
#     Node 1, Type 0, BuildingBlock: QUQFOY_clean_sbu_1, # of connection points: 4
#     Node 2, Type 0, BuildingBlock: QUQFOY_clean_sbu_1, # of connection points: 4
#     Node 3, Type 0, BuildingBlock: QUQFOY_clean_sbu_1, # of connection points: 4
#     Node 4, Type 0, BuildingBlock: QUQFOY_clean_sbu_1, # of connection points: 4
#     Node 5, Type 0, BuildingBlock: QUQFOY_clean_sbu_1, # of connection points: 4
#     Node 6, Type 0, BuildingBlock: QUQFOY_clean_sbu_1, # of connection points: 4
#     Node 7, Type 0, BuildingBlock: QUQFOY_clean_sbu_1, # of connection points: 4
#     Node 8, Type 0, BuildingBlock: QUQFOY_clean_sbu_1, # of connection points: 4
#     Node 9, Type 0, BuildingBlock: QUQFOY_clean_sbu_1, # of connection points: 4
#     Node 10, Type 0, BuildingBlock: QUQFOY_clean_sbu_1, # of connection points: 4
#     Node 11, Type 0, BuildingBlock: QUQFOY_clean_sbu_1, # of connection points: 4
#     Node 12, Type 0, BuildingBlock: QUQFOY_clean_sbu_1, # of connection points: 4
#     Node 13, Type 0, BuildingBlock: QUQFOY_clean_sbu_1, # of connection points: 4
#     Node 14, Type 0, BuildingBlock: QUQFOY_clean_sbu_1, # of connection points: 4
#     Node 15, Type 0, BuildingBlock: QUQFOY_clean_sbu_1, # of connection points: 4
#     Node 16, Type 0, BuildingBlock: QUQFOY_clean_sbu_1, # of connection points: 4
#     Node 17, Type 0, BuildingBlock: QUQFOY_clean_sbu_1, # of connection points: 4
#     Node 18, Type 0, BuildingBlock: QUQFOY_clean_sbu_1, # of connection points: 4
#     Node 19, Type 0, BuildingBlock: QUQFOY_clean_sbu_1, # of connection points: 4
#     Node 20, Type 0, BuildingBlock: QUQFOY_clean_sbu_1, # of connection points: 4
#     Node 21, Type 0, BuildingBlock: QUQFOY_clean_sbu_1, # of connection points: 4
#     Node 22, Type 0, BuildingBlock: QUQFOY_clean_sbu_1, # of connection points: 4
#     Node 23, Type 0, BuildingBlock: QUQFOY_clean_sbu_1, # of connection points: 4
#     Node 24, Type 0, BuildingBlock: QUQFOY_clean_sbu_1, # of connection points: 4
#     Node 25, Type 0, BuildingBlock: QUQFOY_clean_sbu_1, # of connection points: 4
#     Node 26, Type 0, BuildingBlock: QUQFOY_clean_sbu_1, # of connection points: 4
#     Node 27, Type 0, BuildingBlock: QUQFOY_clean_sbu_1, # of connection points: 4
#     Node 28, Type 0, BuildingBlock: QUQFOY_clean_sbu_1, # of connection points: 4
#     Node 29, Type 0, BuildingBlock: QUQFOY_clean_sbu_1, # of connection points: 4
#     Node 30, Type 0, BuildingBlock: QUQFOY_clean_sbu_1, # of connection points: 4
#     Node 31, Type 0, BuildingBlock: QUQFOY_clean_sbu_1, # of connection points: 4
#     Node 32, Type 0, BuildingBlock: QUQFOY_clean_sbu_1, # of connection points: 4
#     Node 33, Type 0, BuildingBlock: QUQFOY_clean_sbu_1, # of connection points: 4
#     Node 34, Type 0, BuildingBlock: QUQFOY_clean_sbu_1, # of connection points: 4
#     Node 35, Type 0, BuildingBlock: QUQFOY_clean_sbu_1, # of connection points: 4
#     Edge 36, Type (0, 0), BuildingBlock: AJUNOK_clean_linker_0, # of connection points: 2
#     Edge 37, Type (0, 0), BuildingBlock: AJUNOK_clean_linker_0, # of connection points: 2
#     Edge 38, Type (0, 0), BuildingBlock: AJUNOK_clean_linker_0, # of connection points: 2
#     Edge 39, Type (0, 0), BuildingBlock: AJUNOK_clean_linker_0, # of connection points: 2
#     Edge 40, Type (0, 0), BuildingBlock: AJUNOK_clean_linker_0, # of connection points: 2
#     Edge 41, Type (0, 0), BuildingBlock: AJUNOK_clean_linker_0, # of connection points: 2
#     Edge 42, Type (0, 0), BuildingBlock: AJUNOK_clean_linker_0, # of connection points: 2
#     Edge 43, Type (0, 0), BuildingBlock: AJUNOK_clean_linker_0, # of connection points: 2
#     Edge 44, Type (0, 0), BuildingBlock: AJUNOK_clean_linker_0, # of connection points: 2
#     Edge 45, Type (0, 0), BuildingBlock: AJUNOK_clean_linker_0, # of connection points: 2
#     Edge 46, Type (0, 0), BuildingBlock: AJUNOK_clean_linker_0, # of connection points: 2
#     Edge 47, Type (0, 0), BuildingBlock: AJUNOK_clean_linker_0, # of connection points: 2
#     Edge 48, Type (0, 0), BuildingBlock: AJUNOK_clean_linker_0, # of connection points: 2
#     Edge 49, Type (0, 0), BuildingBlock: AJUNOK_clean_linker_0, # of connection points: 2
#     Edge 50, Type (0, 0), BuildingBlock: AJUNOK_clean_linker_0, # of connection points: 2
#     Edge 51, Type (0, 0), BuildingBlock: AJUNOK_clean_linker_0, # of connection points: 2
#     Edge 52, Type (0, 0), BuildingBlock: AJUNOK_clean_linker_0, # of connection points: 2
#     Edge 53, Type (0, 0), BuildingBlock: AJUNOK_clean_linker_0, # of connection points: 2
#     Edge 54, Type (0, 0), BuildingBlock: AJUNOK_clean_linker_0, # of connection points: 2
#     Edge 55, Type (0, 0), BuildingBlock: AJUNOK_clean_linker_0, # of connection points: 2
#     Edge 56, Type (0, 0), BuildingBlock: AJUNOK_clean_linker_0, # of connection points: 2
#     Edge 57, Type (0, 0), BuildingBlock: AJUNOK_clean_linker_0, # of connection points: 2
#     Edge 58, Type (0, 0), BuildingBlock: AJUNOK_clean_linker_0, # of connection points: 2
#     Edge 59, Type (0, 0), BuildingBlock: AJUNOK_clean_linker_0, # of connection points: 2
#     Edge 60, Type (0, 0), BuildingBlock: AJUNOK_clean_linker_0, # of connection points: 2
#     Edge 61, Type (0, 0), BuildingBlock: AJUNOK_clean_linker_0, # of connection points: 2
#     Edge 62, Type (0, 0), BuildingBlock: AJUNOK_clean_linker_0, # of connection points: 2
#     Edge 63, Type (0, 0), BuildingBlock: AJUNOK_clean_linker_0, # of connection points: 2
#     Edge 64, Type (0, 0), BuildingBlock: AJUNOK_clean_linker_0, # of connection points: 2
#     Edge 65, Type (0, 0), BuildingBlock: AJUNOK_clean_linker_0, # of connection points: 2
#     Edge 66, Type (0, 0), BuildingBlock: AJUNOK_clean_linker_0, # of connection points: 2
#     Edge 67, Type (0, 0), BuildingBlock: AJUNOK_clean_linker_0, # of connection points: 2
#     Edge 68, Type (0, 0), BuildingBlock: AJUNOK_clean_linker_0, # of connection points: 2
#     Edge 69, Type (0, 0), BuildingBlock: AJUNOK_clean_linker_0, # of connection points: 2
#     Edge 70, Type (0, 0), BuildingBlock: AJUNOK_clean_linker_0, # of connection points: 2
#     Edge 71, Type (0, 0), BuildingBlock: AJUNOK_clean_linker_0, # of connection points: 2
#     Edge 72, Type (0, 0), BuildingBlock: AJUNOK_clean_linker_0, # of connection points: 2
#     Edge 73, Type (0, 0), BuildingBlock: AJUNOK_clean_linker_0, # of connection points: 2
#     Edge 74, Type (0, 0), BuildingBlock: AJUNOK_clean_linker_0, # of connection points: 2
#     Edge 75, Type (0, 0), BuildingBlock: AJUNOK_clean_linker_0, # of connection points: 2
#     Edge 76, Type (0, 0), BuildingBlock: AJUNOK_clean_linker_0, # of connection points: 2
#     Edge 77, Type (0, 0), BuildingBlock: AJUNOK_clean_linker_0, # of connection points: 2
#     Edge 78, Type (0, 0), BuildingBlock: AJUNOK_clean_linker_0, # of connection points: 2
#     Edge 79, Type (0, 0), BuildingBlock: AJUNOK_clean_linker_0, # of connection points: 2
#     Edge 80, Type (0, 0), BuildingBlock: AJUNOK_clean_linker_0, # of connection points: 2
#     Edge 81, Type (0, 0), BuildingBlock: AJUNOK_clean_linker_0, # of connection points: 2
#     Edge 82, Type (0, 0), BuildingBlock: AJUNOK_clean_linker_0, # of connection points: 2
#     Edge 83, Type (0, 0), BuildingBlock: AJUNOK_clean_linker_0, # of connection points: 2
#     Edge 84, Type (0, 0), BuildingBlock: AJUNOK_clean_linker_0, # of connection points: 2
#     Edge 85, Type (0, 0), BuildingBlock: AJUNOK_clean_linker_0, # of connection points: 2
#     Edge 86, Type (0, 0), BuildingBlock: AJUNOK_clean_linker_0, # of connection points: 2
#     Edge 87, Type (0, 0), BuildingBlock: AJUNOK_clean_linker_0, # of connection points: 2
#     Edge 88, Type (0, 0), BuildingBlock: AJUNOK_clean_linker_0, # of connection points: 2
#     Edge 89, Type (0, 0), BuildingBlock: AJUNOK_clean_linker_0, # of connection points: 2
#     Edge 90, Type (0, 0), BuildingBlock: AJUNOK_clean_linker_0, # of connection points: 2
#     Edge 91, Type (0, 0), BuildingBlock: AJUNOK_clean_linker_0, # of connection points: 2
#     Edge 92, Type (0, 0), BuildingBlock: AJUNOK_clean_linker_0, # of connection points: 2
#     Edge 93, Type (0, 0), BuildingBlock: AJUNOK_clean_linker_0, # of connection points: 2
#     Edge 94, Type (0, 0), BuildingBlock: AJUNOK_clean_linker_0, # of connection points: 2
#     Edge 95, Type (0, 0), BuildingBlock: AJUNOK_clean_linker_0, # of connection points: 2
#     Edge 96, Type (0, 0), BuildingBlock: AJUNOK_clean_linker_0, # of connection points: 2
#     Edge 97, Type (0, 0), BuildingBlock: AJUNOK_clean_linker_0, # of connection points: 2
#     Edge 98, Type (0, 0), BuildingBlock: AJUNOK_clean_linker_0, # of connection points: 2
#     Edge 99, Type (0, 0), BuildingBlock: AJUNOK_clean_linker_0, # of connection points: 2
#     Edge 100, Type (0, 0), BuildingBlock: AJUNOK_clean_linker_0, # of connection points: 2
#     Edge 101, Type (0, 0), BuildingBlock: AJUNOK_clean_linker_0, # of connection points: 2
#     Edge 102, Type (0, 0), BuildingBlock: AJUNOK_clean_linker_0, # of connection points: 2
#     Edge 103, Type (0, 0), BuildingBlock: AJUNOK_clean_linker_0, # of connection points: 2
#     Edge 104, Type (0, 0), BuildingBlock: AJUNOK_clean_linker_0, # of connection points: 2
#     Edge 105, Type (0, 0), BuildingBlock: AJUNOK_clean_linker_0, # of connection points: 2
#     Edge 106, Type (0, 0), BuildingBlock: AJUNOK_clean_linker_0, # of connection points: 2
#     Edge 107, Type (0, 0), BuildingBlock: AJUNOK_clean_linker_0, # of connection points: 2
# Relax obj value: 0.228
# Max RMSD: 0.701
# Mean RMSD: 0.413
data_MOF--net-ums--node1-QUQFOY_clean_sbu_1--edge1-AJUNOK_clean_linker_0
_symmetry_space_group_name_H-M    P1
_symmetry_Int_Tables_number       1
_symmetry_cell_setting            triclinic
loop_
_symmetry_equiv_pos_as_xyz
'x, y, z'
_cell_length_a     56.936239
_cell_length_b     56.897592
_cell_length_c     17.648322
_cell_angle_alpha  90.583903
_cell_angle_beta   89.521045
_cell_angle_gamma 114.88009
loop_
_atom_site_label
_atom_site_type_symbol
_atom_site_fract_x
_atom_site_fract_y
_atom_site_fract_z
_atom_type_partial_charge
O0 O 0.25024 0.3427 0.08623 0.0
Cd1 Cd 0.22428 0.32477 0.16775 0.0
Cd2 Cd 0.24818 0.36989 0.22447 0.0
O3 O 0.27796 0.35997 0.17704 0.0
O4 O 0.21991 0.28748 0.16484 0.0
O5 O 0.24317 0.31591 0.25069 0.0
C6 C 0.23686 0.29367 0.21816 0.0
C7 C 0.23685 0.36705 0.35657 0.0
C8 C 0.27294 0.34965 0.111 0.0
C9 C 0.20063 0.35867 0.12885 0.0
O10 O 0.22334 0.37573 0.14481 0.0
O11 O 0.19387 0.33561 0.15285 0.0
O12 O 0.25282 0.3888 0.32791 0.0
O13 O 0.22759 0.34749 0.31109 0.0
O14 O 0.67496 0.92229 0.31999 0.0
Cd15 Cd 0.70132 0.90737 0.31028 0.0
Cd16 Cd 0.63623 0.87976 0.38703 0.0
O17 O 0.63441 0.90446 0.29967 0.0
O18 O 0.73235 0.93263 0.25117 0.0
O19 O 0.73308 0.92889 0.37489 0.0
C20 C 0.74407 0.94169 0.31445 0.0
C21 C 0.62627 0.8644 0.51158 0.0
C22 C 0.65709 0.91567 0.27131 0.0
C23 C 0.6576 0.84912 0.28513 0.0
O24 O 0.6409 0.85227 0.32652 0.0
O25 O 0.68104 0.86691 0.27616 0.0
O26 O 0.60815 0.85883 0.46137 0.0
O27 O 0.64913 0.88181 0.49385 0.0
O28 O 0.08209 0.76753 0.2529 0.0
Cd29 Cd 0.08058 0.79953 0.20551 0.0
Cd30 Cd 0.12925 0.78588 0.29639 0.0
O31 O 0.10759 0.74895 0.25024 0.0
O32 O 0.04758 0.78739 0.1461 0.0
O33 O 0.05229 0.80783 0.25579 0.0
C34 C 0.03714 0.79456 0.20167 0.0
C35 C 0.14301 0.80171 0.41659 0.0
C36 C 0.08958 0.75239 0.21725 0.0
C37 C 0.1403 0.82755 0.1666 0.0
O38 O 0.14509 0.81355 0.21441 0.0
O39 O 0.1172 0.82611 0.15729 0.0
O40 O 0.15634 0.79281 0.37503 0.0
O41 O 0.12055 0.79903 0.39268 0.0
O42 O 0.35311 0.25842 0.38284 0.0
Cd43 Cd 0.33853 0.23223 0.29968 0.0
Cd44 Cd 0.38317 0.26179 0.24598 0.0
O45 O 0.36766 0.28744 0.29418 0.0
O46 O 0.29976 0.22259 0.30052 0.0
O47 O 0.32675 0.24913 0.21727 0.0
C48 C 0.30405 0.23959 0.24807 0.0
C49 C 0.3798 0.24763 0.11635 0.0
C50 C 0.35716 0.2807 0.35951 0.0
C51 C 0.37886 0.2163 0.33885 0.0
O52 O 0.39321 0.24014 0.32536 0.0
O53 O 0.35581 0.2064 0.3127 0.0
O54 O 0.40068 0.2666 0.13995 0.0
O55 O 0.3615 0.23739 0.16499 0.0
O56 O 0.79558 0.09726 0.41297 0.0
Cd57 Cd 0.82463 0.09676 0.3498 0.0
Cd58 Cd 0.80473 0.1239 0.27244 0.0
O59 O 0.77022 0.09423 0.31733 0.0
O60 O 0.82547 0.06392 0.3921 0.0
O61 O 0.81374 0.0664 0.27494 0.0
C62 C 0.81521 0.05209 0.32967 0.0
C63 C 0.81626 0.13603 0.14442 0.0
C64 C 0.77307 0.08955 0.38636 0.0
C65 C 0.84908 0.15147 0.3838 0.0
O66 O 0.82844 0.15044 0.35321 0.0
O67 O 0.85542 0.13248 0.37432 0.0
O68 O 0.80174 0.1444 0.1823 0.0
O69 O 0.82267 0.11938 0.17749 0.0
O70 O 0.90768 0.69525 0.37012 0.0
Cd71 Cd 0.89009 0.71158 0.30427 0.0
Cd72 Cd 0.87464 0.66486 0.24048 0.0
O73 O 0.91076 0.66853 0.28317 0.0
O74 O 0.91044 0.72334 0.20952 0.0
O75 O 0.91575 0.74928 0.30851 0.0
C76 C 0.92449 0.74469 0.24474 0.0
C77 C 0.86041 0.65947 0.1134 0.0
C78 C 0.91872 0.68158 0.34442 0.0
C79 C 0.83817 0.67479 0.34864 0.0
O80 O 0.8462 0.65849 0.32287 0.0
O81 O 0.85101 0.69888 0.33468 0.0
O82 O 0.85852 0.63981 0.15329 0.0
O83 O 0.8716 0.68218 0.14408 0.0
O84 O 0.77133 0.69112 0.87523 0.0
Cd85 Cd 0.79435 0.70213 0.78391 0.0
Cd86 Cd 0.7616 0.65793 0.74714 0.0
O87 O 0.73982 0.67812 0.79437 0.0
O88 O 0.80478 0.74084 0.77599 0.0
O89 O 0.77607 0.71189 0.70074 0.0
C90 C 0.78661 0.73539 0.72614 0.0
C91 C 0.775 0.65576 0.61944 0.0
C92 C 0.74905 0.68879 0.85808 0.0
C93 C 0.80795 0.66242 0.83449 0.0
O94 O 0.7835 0.64914 0.82796 0.0
O95 O 0.81872 0.68349 0.79699 0.0
O96 O 0.75354 0.63796 0.64431 0.0
O97 O 0.7876 0.67459 0.66472 0.0
O98 O 0.34108 0.10874 0.76992 0.0
Cd99 Cd 0.31359 0.12041 0.80635 0.0
Cd100 Cd 0.37928 0.15198 0.74035 0.0
O101 O 0.38102 0.11979 0.79216 0.0
O102 O 0.28327 0.09077 0.85338 0.0
O103 O 0.28232 0.10406 0.73703 0.0
C104 C 0.27167 0.08675 0.78879 0.0
C105 C 0.38651 0.16629 0.61527 0.0
C106 C 0.35781 0.10721 0.81405 0.0
C107 C 0.35335 0.17584 0.86184 0.0
O108 O 0.37106 0.17466 0.81918 0.0
O109 O 0.32998 0.15779 0.86223 0.0
O110 O 0.40539 0.1739 0.66325 0.0
O111 O 0.364 0.14948 0.63756 0.0
O112 O 0.94518 0.23154 0.89914 0.0
Cd113 Cd 0.93444 0.20175 0.82695 0.0
Cd114 Cd 0.90917 0.22802 0.77385 0.0
O115 O 0.94002 0.25995 0.82496 0.0
O116 O 0.96574 0.19333 0.83448 0.0
O117 O 0.95864 0.21385 0.73771 0.0
C118 C 0.9746 0.20748 0.77477 0.0
C119 C 0.89774 0.21658 0.64538 0.0
C120 C 0.9501 0.2548 0.88338 0.0
C121 C 0.87972 0.18368 0.87868 0.0
O122 O 0.88225 0.20544 0.853 0.0
O123 O 0.89676 0.17517 0.86157 0.0
O124 O 0.89055 0.23253 0.68071 0.0
O125 O 0.91277 0.20873 0.68137 0.0
O126 O 0.64945 0.74649 0.86036 0.0
Cd127 Cd 0.67063 0.77459 0.78645 0.0
Cd128 Cd 0.6126 0.76039 0.90374 0.0
O129 O 0.60851 0.72372 0.86169 0.0
O130 O 0.68953 0.76427 0.70628 0.0
O131 O 0.70894 0.78791 0.80621 0.0
C132 C 0.71038 0.77567 0.74561 0.0
C133 C 0.62116 0.77451 0.03574 0.0
C134 C 0.63062 0.72592 0.83925 0.0
C135 C 0.63056 0.79894 0.7583 0.0
O136 O 0.61517 0.78716 0.81343 0.0
O137 O 0.65152 0.79633 0.74491 0.0
O138 O 0.59807 0.7662 1.00798 0.0
O139 O 0.63851 0.7737 0.99011 0.0
O140 O 0.23816 0.93709 0.76953 0.0
Cd141 Cd 0.20631 0.9355 0.71752 0.0
Cd142 Cd 0.22621 0.88993 0.79772 0.0
O143 O 0.2611 0.91656 0.74842 0.0
O144 O 0.21646 0.96952 0.66367 0.0
O145 O 0.19584 0.96093 0.77353 0.0
C146 C 0.20884 0.97793 0.72306 0.0
C147 C 0.21368 0.8793 0.92507 0.0
C148 C 0.25582 0.93523 0.72973 0.0
C149 C 0.18558 0.87571 0.66486 0.0
O150 O 0.19893 0.87052 0.71451 0.0
O151 O 0.18597 0.89859 0.65846 0.0
O152 O 0.22517 0.86756 0.88692 0.0
O153 O 0.2111 0.89833 0.8922 0.0
O154 O 0.10639 0.31106 0.59947 0.0
Cd155 Cd 0.12336 0.30003 0.68081 0.0
Cd156 Cd 0.13348 0.34777 0.72362 0.0
O157 O 0.09872 0.34049 0.66417 0.0
O158 O 0.09941 0.26156 0.68377 0.0
O159 O 0.09856 0.29012 0.7687 0.0
C160 C 0.08723 0.26729 0.7382 0.0
C161 C 0.14616 0.3566 0.85164 0.0
C162 C 0.09396 0.32485 0.6078 0.0
C163 C 0.17399 0.3397 0.62911 0.0
O164 O 0.16382 0.35478 0.64994 0.0
O165 O 0.16316 0.31575 0.64873 0.0
O166 O 0.14691 0.37491 0.80743 0.0
O167 O 0.13643 0.33321 0.82499 0.0
O168 O 0.90815 0.68335 0.59569 0.0
Cd169 Cd 0.87688 0.68222 0.65227 0.0
Cd170 Cd 0.91387 0.73254 0.67725 0.0
O171 O 0.94038 0.71742 0.64405 0.0
O172 O 0.85513 0.6436 0.65369 0.0
O173 O 0.8735 0.66636 0.75553 0.0
C174 C 0.86139 0.64397 0.72395 0.0
C175 C 0.89687 0.73676 0.79514 0.0
C176 C 0.93224 0.69688 0.60328 0.0
C177 C 0.87202 0.72666 0.5707 0.0
O178 O 0.89566 0.74034 0.58707 0.0
O179 O 0.85955 0.70449 0.60158 0.0
O180 O 0.91784 0.75549 0.77093 0.0
O181 O 0.88735 0.71577 0.75561 0.0
O182 O 0.34211 0.30472 0.65756 0.0
Cd183 Cd 0.36643 0.2912 0.60574 0.0
Cd184 Cd 0.30265 0.26209 0.70008 0.0
O185 O 0.30171 0.29537 0.6534 0.0
O186 O 0.39091 0.31729 0.53298 0.0
O187 O 0.40373 0.31052 0.64428 0.0
C188 C 0.40879 0.32433 0.58345 0.0
C189 C 0.29168 0.24597 0.82371 0.0
C190 C 0.32377 0.30692 0.62247 0.0
C191 C 0.32262 0.23536 0.56831 0.0
O192 O 0.30683 0.23768 0.61666 0.0
O193 O 0.34604 0.25282 0.55992 0.0
O194 O 0.27412 0.24092 0.77232 0.0
O195 O 0.3153 0.26123 0.80598 0.0
O196 O 0.81268 0.10382 0.60278 0.0
Cd197 Cd 0.83953 0.12884 0.6735 0.0
Cd198 Cd 0.84321 0.08529 0.7055 0.0
O199 O 0.80348 0.06955 0.67403 0.0
O200 O 0.82668 0.15682 0.68015 0.0
O201 O 0.82274 0.12993 0.77369 0.0
C202 C 0.81602 0.14687 0.74408 0.0
C203 C 0.86207 0.09266 0.8267 0.0
C204 C 0.79699 0.0813 0.62264 0.0
C205 C 0.88358 0.12217 0.60337 0.0
O206 O 0.86972 0.09829 0.61692 0.0
O207 O 0.87766 0.13953 0.63378 0.0
O208 O 0.85502 0.07019 0.79466 0.0
O209 O 0.85697 0.10984 0.79222 0.0
O210 O 0.94624 0.55781 0.86936 0.0
Cd211 Cd 0.90669 0.53905 0.88917 0.0
Cd212 Cd 0.91414 0.49789 0.80122 0.0
O213 O 0.95077 0.52808 0.7965 0.0
O214 O 0.89527 0.56696 0.916 0.0
O215 O 0.88281 0.54325 0.81181 0.0
C216 C 0.88277 0.56218 0.85288 0.0
C217 C 0.90445 0.46468 0.70991 0.0
C218 C 0.96038 0.55012 0.8293 0.0
C219 C 0.89372 0.48823 0.9654 0.0
O220 O 0.90071 0.48142 0.90383 0.0
O221 O 0.89429 0.51075 0.97295 0.0
O222 O 0.92175 0.46895 0.76079 0.0
O223 O 0.89329 0.48025 0.70776 0.0
O224 O 0.44061 0.46256 0.47249 0.0
Cd225 Cd 0.47366 0.47283 0.53168 0.0
Cd226 Cd 0.43888 0.50457 0.43743 0.0
O227 O 0.40817 0.47126 0.48433 0.0
O228 O 0.46775 0.44553 0.61057 0.0
O229 O 0.48671 0.44597 0.50069 0.0
C230 C 0.47541 0.43339 0.56107 0.0
C231 C 0.45197 0.51481 0.31037 0.0
C232 C 0.41893 0.45678 0.50432 0.0
C233 C 0.48368 0.53255 0.55883 0.0
O234 O 0.4648 0.53056 0.51617 0.0
O235 O 0.49026 0.51347 0.56777 0.0
O236 O 0.4367 0.52349 0.34282 0.0
O237 O 0.45758 0.49844 0.34772 0.0
O238 O 0.64395 0.08444 0.7936 0.0
Cd239 Cd 0.66638 0.12295 0.822 0.0
Cd240 Cd 0.61939 0.12626 0.72956 0.0
O241 O 0.61176 0.0874 0.73017 0.0
O242 O 0.69889 0.12282 0.86759 0.0
O243 O 0.69955 0.14423 0.76399 0.0
C244 C 0.71214 0.13724 0.81276 0.0
C245 C 0.59487 0.13757 0.63986 0.0
C246 C 0.6225 0.07391 0.75852 0.0
C247 C 0.63104 0.14506 0.89593 0.0
O248 O 0.61943 0.14253 0.83325 0.0
O249 O 0.64972 0.13842 0.90304 0.0
O250 O 0.58433 0.12306 0.69685 0.0
O251 O 0.61957 0.14555 0.63226 0.0
O252 O 0.46648 0.08914 0.28667 0.0
Cd253 Cd 0.48091 0.12858 0.30915 0.0
Cd254 Cd 0.52638 0.12584 0.22867 0.0
O255 O 0.49957 0.08762 0.22361 0.0
O256 O 0.44872 0.13324 0.33627 0.0
O257 O 0.47296 0.15213 0.23712 0.0
C258 C 0.45223 0.14724 0.27661 0.0
C259 C 0.56003 0.13813 0.13741 0.0
C260 C 0.47699 0.0763 0.25204 0.0
C261 C 0.53118 0.14422 0.39487 0.0
O262 O 0.54045 0.13966 0.33376 0.0
O263 O 0.50778 0.14159 0.39817 0.0
O264 O 0.55773 0.12192 0.19008 0.0
O265 O 0.54276 0.14719 0.13491 0.0
O266 O 0.96053 0.38477 0.35863 0.0
Cd267 Cd 0.92209 0.36173 0.38634 0.0
Cd268 Cd 0.91401 0.40376 0.30262 0.0
O269 O 0.95362 0.41607 0.30348 0.0
O270 O 0.91927 0.32652 0.41717 0.0
O271 O 0.89952 0.33252 0.31728 0.0
C272 C 0.90461 0.31674 0.35914 0.0
C273 C 0.90021 0.42474 0.20916 0.0
C274 C 0.96904 0.40695 0.32757 0.0
C275 C 0.89803 0.39359 0.46832 0.0
O276 O 0.89725 0.40369 0.40518 0.0
O277 O 0.90728 0.37678 0.47301 0.0
O278 O 0.9136 0.43686 0.26662 0.0
O279 O 0.89445 0.40031 0.20389 0.0
O280 O 0.58986 0.61666 0.98434 0.0
Cd281 Cd 0.58476 0.58199 0.02977 0.0
Cd282 Cd 0.5429 0.60775 0.94034 0.0
O283 O 0.57037 0.64126 0.99382 0.0
O284 O 0.61348 0.58664 0.1016 0.0
O285 O 0.61166 0.5707 0.98635 0.0
C286 C 0.6247 0.57964 0.04794 0.0
C287 C 0.5291 0.59995 0.81263 0.0
C288 C 0.5866 0.63403 0.02262 0.0
C289 C 0.5252 0.56276 0.06551 0.0
O290 O 0.52292 0.57902 0.01985 0.0
O291 O 0.54656 0.56026 0.07319 0.0
O292 O 0.51834 0.60985 0.86039 0.0
O293 O 0.54863 0.59604 0.83642 0.0
O294 O 0.3179 0.15102 0.0462 0.0
Cd295 Cd 0.33228 0.17761 0.12863 0.0
Cd296 Cd 0.28846 0.14726 0.18842 0.0
O297 O 0.30521 0.12285 0.13783 0.0
O298 O 0.3715 0.1909 0.12747 0.0
O299 O 0.34613 0.16231 0.20917 0.0
C300 C 0.36893 0.17458 0.18046 0.0
C301 C 0.29164 0.16251 0.3171 0.0
C302 C 0.31453 0.12905 0.07079 0.0
C303 C 0.29088 0.19194 0.09826 0.0
O304 O 0.27721 0.16788 0.1099 0.0
O305 O 0.31371 0.20229 0.12555 0.0
O306 O 0.27104 0.14294 0.29477 0.0
O307 O 0.30999 0.17234 0.26828 0.0
O308 O 0.92677 0.21584 0.11843 0.0
Cd309 Cd 0.90182 0.18835 0.18676 0.0
Cd310 Cd 0.94499 0.18232 0.20892 0.0
O311 O 0.9625 0.22205 0.17918 0.0
O312 O 0.87507 0.20252 0.19735 0.0
O313 O 0.90155 0.20395 0.28969 0.0
C314 C 0.88547 0.21215 0.26187 0.0
C315 C 0.93783 0.16333 0.32966 0.0
C316 C 0.95023 0.23008 0.13355 0.0
C317 C 0.9056 0.14444 0.10489 0.0
O318 O 0.92973 0.15675 0.11861 0.0
O319 O 0.88922 0.15099 0.13867 0.0
O320 O 0.95966 0.16881 0.2954 0.0
O321 O 0.92123 0.16981 0.29733 0.0
O322 O 0.75986 0.70615 0.15911 0.0
Cd323 Cd 0.76858 0.6815 0.09088 0.0
Cd324 Cd 0.80654 0.74255 0.18484 0.0
O325 O 0.77317 0.74727 0.15565 0.0
O326 O 0.73991 0.65986 0.02126 0.0
O327 O 0.74937 0.64391 0.12387 0.0
C328 C 0.73399 0.64078 0.06732 0.0
C329 C 0.82364 0.74459 0.30453 0.0
C330 C 0.75652 0.72531 0.13371 0.0
C331 C 0.82537 0.72056 0.04298 0.0
O332 O 0.82763 0.73727 0.09455 0.0
O333 O 0.80496 0.69916 0.0354 0.0
O334 O 0.83066 0.76532 0.26418 0.0
O335 O 0.806 0.72317 0.27821 0.0
O336 O 0.57728 0.94757 0.73306 0.0
Cd337 Cd 0.56016 0.90775 0.71827 0.0
Cd338 Cd 0.51826 0.91219 0.79176 0.0
O339 O 0.54456 0.95068 0.7933 0.0
O340 O 0.58931 0.89701 0.71178 0.0
O341 O 0.55999 0.88429 0.80381 0.0
C342 C 0.58094 0.88453 0.77419 0.0
C343 C 0.48529 0.89924 0.88353 0.0
C344 C 0.56717 0.96127 0.76474 0.0
C345 C 0.51161 0.89138 0.62962 0.0
O346 O 0.50275 0.89702 0.68966 0.0
O347 O 0.535 0.89417 0.62638 0.0
O348 O 0.48699 0.91546 0.8315 0.0
O349 O 0.50324 0.89106 0.88631 0.0
O350 O 0.08015 0.63699 0.78452 0.0
Cd351 Cd 0.11811 0.66079 0.75347 0.0
Cd352 Cd 0.12674 0.61753 0.83199 0.0
O353 O 0.0871 0.60493 0.8341 0.0
O354 O 0.11571 0.69333 0.71919 0.0
O355 O 0.14028 0.69323 0.81487 0.0
C356 C 0.13111 0.7059 0.7732 0.0
C357 C 0.14108 0.59556 0.92075 0.0
C358 C 0.07167 0.61451 0.81347 0.0
C359 C 0.14207 0.62977 0.66589 0.0
O360 O 0.14314 0.6192 0.72789 0.0
O361 O 0.13235 0.64628 0.66312 0.0
O362 O 0.12764 0.58414 0.86265 0.0
O363 O 0.14664 0.61985 0.92934 0.0
O364 O 0.43949 0.44736 0.86751 0.0
Cd365 Cd 0.44756 0.48411 0.89308 0.0
Cd366 Cd 0.47266 0.43685 0.90661 0.0
O367 O 0.44183 0.41331 0.82961 0.0
O368 O 0.41714 0.48932 0.85126 0.0
O369 O 0.41982 0.4808 0.97147 0.0
C370 C 0.40562 0.48158 0.91534 0.0
C371 C 0.48126 0.44166 0.0385 0.0
C372 C 0.43395 0.43057 0.81516 0.0
C373 C 0.50119 0.49199 0.82219 0.0
O374 O 0.49653 0.46899 0.84339 0.0
O375 O 0.48673 0.50343 0.84428 0.0
O376 O 0.49115 0.42965 0.99498 0.0
O377 O 0.46454 0.44869 1.00872 0.0
O378 O 0.68677 0.84545 0.05367 0.0
Cd379 Cd 0.67454 0.82377 0.95968 0.0
Cd380 Cd 0.7204 0.84812 0.914 0.0
O381 O 0.70858 0.87604 0.97447 0.0
O382 O 0.63709 0.81894 0.95153 0.0
O383 O 0.66847 0.8465 0.88151 0.0
C384 C 0.64478 0.83778 0.90425 0.0
C385 C 0.71939 0.84215 0.77569 0.0
C386 C 0.69516 0.86901 0.03599 0.0
C387 C 0.70763 0.79578 0.98507 0.0
O388 O 0.72546 0.81893 0.98154 0.0
O389 O 0.68562 0.7921 0.95768 0.0
O390 O 0.74064 0.85671 0.80968 0.0
O391 O 0.69939 0.83156 0.81871 0.0
O392 O 0.11681 0.8294 0.99059 0.0
Cd393 Cd 0.1417 0.84646 0.9067 0.0
Cd394 Cd 0.09894 0.84824 0.8586 0.0
O395 O 0.08796 0.81012 0.90322 0.0
O396 O 0.13079 0.82095 0.82232 0.0
O397 O 0.16383 0.82623 0.89567 0.0
C398 C 0.14718 0.81245 0.84542 0.0
C399 C 0.10536 0.8609 0.72981 0.0
C400 C 0.09845 0.80907 0.96609 0.0
C401 C 0.13642 0.89309 0.94643 0.0
O402 O 0.11238 0.87842 0.93784 0.0
O403 O 0.15312 0.88659 0.91445 0.0
O404 O 0.08277 0.85391 0.76067 0.0
O405 O 0.12359 0.86008 0.77086 0.0
O406 O 0.29208 0.33732 0.81535 0.0
Cd407 Cd 0.27447 0.35708 0.87354 0.0
Cd408 Cd 0.25326 0.2927 0.78051 0.0
O409 O 0.29031 0.29909 0.81629 0.0
O410 O 0.298 0.38339 0.94779 0.0
O411 O 0.28787 0.39483 0.83877 0.0
C412 C 0.30171 0.40144 0.89969 0.0
C413 C 0.23495 0.28032 0.66105 0.0
C414 C 0.29931 0.32144 0.84644 0.0
C415 C 0.22361 0.30762 0.91459 0.0
O416 O 0.22856 0.29302 0.86773 0.0
O417 O 0.23772 0.33221 0.92012 0.0
O418 O 0.23393 0.26303 0.70955 0.0
O419 O 0.24756 0.30453 0.67902 0.0
O420 O 0.1289 0.30135 0.41563 0.0
Cd421 Cd 0.16141 0.316 0.35153 0.0
Cd422 Cd 0.13463 0.26929 0.28711 0.0
O423 O 0.1051 0.28139 0.31772 0.0
O424 O 0.1757 0.3546 0.37094 0.0
O425 O 0.15697 0.33568 0.26432 0.0
C426 C 0.16651 0.35633 0.30577 0.0
C427 C 0.15113 0.27162 0.16199 0.0
C428 C 0.1075 0.29319 0.3811 0.0
C429 C 0.17797 0.27626 0.39245 0.0
O430 O 0.15476 0.26097 0.37529 0.0
O431 O 0.18721 0.29957 0.36927 0.0
O432 O 0.13358 0.25001 0.18667 0.0
O433 O 0.15852 0.29132 0.20717 0.0
O434 O 0.64643 0.73249 0.53777 0.0
Cd435 Cd 0.64296 0.74402 0.43579 0.0
Cd436 Cd 0.68662 0.74145 0.40692 0.0
O437 O 0.66892 0.71165 0.49473 0.0
O438 O 0.60396 0.7231 0.42206 0.0
O439 O 0.63362 0.71119 0.37526 0.0
C440 C 0.60954 0.70507 0.39207 0.0
C441 C 0.69582 0.7443 0.27001 0.0
C442 C 0.65489 0.71554 0.54714 0.0
C443 C 0.69061 0.79063 0.48246 0.0
O444 O 0.70211 0.77631 0.4658 0.0
O445 O 0.66721 0.78384 0.45955 0.0
O446 O 0.7117 0.7421 0.31864 0.0
O447 O 0.67432 0.7433 0.29777 0.0
O448 O 0.2264 0.9392 0.37173 0.0
Cd449 Cd 0.20859 0.90017 0.37612 0.0
Cd450 Cd 0.19042 0.95082 0.35367 0.0
O451 O 0.22498 0.97357 0.41439 0.0
O452 O 0.2344 0.88653 0.40432 0.0
O453 O 0.21876 0.88357 0.28837 0.0
C454 C 0.23549 0.88119 0.33344 0.0
C455 C 0.17921 0.94705 0.22453 0.0
C456 C 0.23385 0.95672 0.42262 0.0
C457 C 0.15911 0.90021 0.45121 0.0
O458 O 0.16442 0.92288 0.42563 0.0
O459 O 0.17255 0.88754 0.43351 0.0
O460 O 0.17328 0.96183 0.26971 0.0
O461 O 0.19294 0.93586 0.25139 0.0
O462 O 0.09374 0.4643 0.27164 0.0
Cd463 Cd 0.13259 0.48011 0.24234 0.0
Cd464 Cd 0.12608 0.5253 0.33277 0.0
O465 O 0.08958 0.49507 0.34077 0.0
O466 O 0.13456 0.44922 0.1926 0.0
O467 O 0.15614 0.46693 0.29667 0.0
C468 C 0.14912 0.44844 0.24701 0.0
C469 C 0.1362 0.5591 0.4232 0.0
C470 C 0.07993 0.47253 0.31104 0.0
C471 C 0.14586 0.53191 0.1665 0.0
O472 O 0.13941 0.53965 0.22758 0.0
O473 O 0.14503 0.50921 0.16082 0.0
O474 O 0.119 0.55493 0.37191 0.0
O475 O 0.14736 0.54353 0.42493 0.0
O476 O 0.55537 0.55994 0.26717 0.0
Cd477 Cd 0.52949 0.55233 0.35161 0.0
Cd478 Cd 0.56609 0.54093 0.40819 0.0
O479 O 0.58485 0.57847 0.35227 0.0
O480 O 0.52062 0.58373 0.35166 0.0
O481 O 0.54608 0.57786 0.43557 0.0
C482 C 0.53846 0.59364 0.40278 0.0
C483 C 0.55844 0.53053 0.54116 0.0
C484 C 0.57578 0.57906 0.28639 0.0
C485 C 0.52289 0.50061 0.31585 0.0
O486 O 0.54697 0.51026 0.33238 0.0
O487 O 0.50901 0.51206 0.33976 0.0
O488 O 0.57905 0.5312 0.50794 0.0
O489 O 0.54293 0.53614 0.50015 0.0
O490 O 0.40251 0.95178 0.22673 0.0
Cd491 Cd 0.38196 0.91221 0.20873 0.0
Cd492 Cd 0.42762 0.91184 0.29173 0.0
O493 O 0.43579 0.95081 0.2887 0.0
O494 O 0.34643 0.90682 0.17484 0.0
O495 O 0.35341 0.8909 0.28139 0.0
C496 C 0.3372 0.8939 0.23596 0.0
C497 C 0.4497 0.89958 0.38527 0.0
C498 C 0.42432 0.96343 0.2592 0.0
C499 C 0.41634 0.89116 0.12932 0.0
O500 O 0.42898 0.89507 0.19046 0.0
O501 O 0.39677 0.89642 0.12465 0.0
O502 O 0.46162 0.91439 0.33005 0.0
O503 O 0.42497 0.89212 0.38918 0.0
C504 C 0.25912 0.23873 0.23528 0.0
C505 C 0.28631 0.25248 0.23658 0.0
C506 C 0.24284 0.25184 0.22914 0.0
C507 C 0.25319 0.27915 0.22881 0.0
H508 H 0.25043 0.21777 0.23801 0.0
H509 H 0.22209 0.2406 0.22608 0.0
S510 S 0.32299 0.32408 0.23568 0.0
N511 N 0.32256 0.29493 0.23574 0.0
N512 N 0.29235 0.31921 0.23361 0.0
C513 C 0.28026 0.2929 0.23263 0.0
C514 C 0.29669 0.27969 0.23416 0.0
C515 C 0.79098 1.00832 0.39151 0.0
C516 C 0.80162 0.02288 0.32549 0.0
C517 C 0.77374 0.98173 0.3881 0.0
C518 C 0.7667 0.96813 0.31852 0.0
H519 H 0.79481 0.01787 0.44626 0.0
H520 H 0.7649 0.97215 0.44035 0.0
S521 S 0.794 0.99564 0.13067 0.0
N522 N 0.80652 0.02055 0.18945 0.0
N523 N 0.77581 0.97065 0.18327 0.0
C524 C 0.77924 0.9819 0.25292 0.0
C525 C 0.79619 1.00914 0.25629 0.0
C526 C 0.96693 0.78558 0.23897 0.0
C527 C 0.95258 0.7588 0.22494 0.0
C528 C 0.9943 0.79758 0.2304 0.0
C529 C 1.00824 0.78303 0.20964 0.0
H530 H 0.95701 0.79724 0.25739 0.0
H531 H 1.00457 0.8182 0.24085 0.0
S532 S 0.98042 0.71154 0.18602 0.0
N533 N 0.955 0.71804 0.19677 0.0
N534 N 1.00569 0.73983 0.19075 0.0
C535 C 0.99409 0.75617 0.20003 0.0
C536 C 0.96649 0.74428 0.20481 0.0
C537 C 0.77445 0.77088 0.77129 0.0
C538 C 0.77321 0.75275 0.71462 0.0
C539 C 0.75489 0.77977 0.77871 0.0
C540 C 0.73419 0.772 0.72707 0.0
H541 H 0.7892 0.77641 0.81458 0.0
H542 H 0.75523 0.79153 0.8277 0.0
S543 S 0.72837 0.73408 0.55063 0.0
N544 N 0.7529 0.73266 0.5961 0.0
N545 N 0.71851 0.75208 0.60439 0.0
C546 C 0.73546 0.75781 0.66285 0.0
C547 C 0.75446 0.74762 0.65771 0.0
C548 C 0.24701 0.05087 0.6961 0.0
C549 C 0.25006 0.06081 0.77071 0.0
C550 C 0.23177 0.02442 0.68017 0.0
C551 C 0.2188 1.00661 0.73797 0.0
H552 H 0.25793 0.06319 0.6501 0.0
H553 H 0.2314 0.01762 0.62246 0.0
S554 S 0.2163 0.02366 0.94086 0.0
N555 N 0.23554 0.05135 0.90126 0.0
N556 N 0.20727 1.0019 0.8718 0.0
C557 C 0.21974 0.0168 0.81172 0.0
C558 C 0.2353 0.04375 0.82794 0.0
C559 C 0.04759 0.22417 0.75675 0.0
C560 C 0.05876 0.25145 0.75095 0.0
C561 C 0.02038 0.20968 0.76424 0.0
C562 C 1.00324 0.22179 0.76147 0.0
H563 H 0.05996 0.21401 0.7567 0.0
H564 H 0.0127 0.18889 0.77123 0.0
S565 S 0.0225 0.29251 0.74348 0.0
N566 N 0.0502 0.28973 0.74362 0.0
N567 N 0.99974 0.26271 0.75079 0.0
C568 C 0.01426 0.24891 0.7535 0.0
C569 C 0.04175 0.26364 0.74995 0.0
C570 C 0.86979 0.62217 0.83636 0.0
C571 C 0.85983 0.62016 0.76259 0.0
C572 C 0.87537 0.60246 0.86709 0.0
C573 C 0.87139 0.57986 0.82534 0.0
H574 H 0.87497 0.63983 0.86905 0.0
H575 H 0.88435 0.60576 0.9224 0.0
S576 S 0.84112 0.5628 0.63523 0.0
N577 N 0.8427 0.59198 0.65288 0.0
N578 N 0.85336 0.55505 0.71039 0.0
C579 C 0.85923 0.57652 0.75433 0.0
C580 C 0.85339 0.5966 0.7231 0.0
C581 C 0.43749 0.36285 0.50576 0.0
C582 C 0.43198 0.34992 0.57593 0.0
C583 C 0.45383 0.3895 0.50042 0.0
C584 C 0.46546 0.40449 0.56503 0.0
H585 H 0.42785 0.35267 0.45492 0.0
H586 H 0.45562 0.3988 0.44605 0.0
S587 S 0.46396 0.37848 0.7578 0.0
N588 N 0.44432 0.35313 0.70837 0.0
N589 N 0.47446 0.40318 0.69874 0.0
C590 C 0.46245 0.39125 0.63398 0.0
C591 C 0.44602 0.36398 0.63921 0.0
C592 C 0.77726 0.13333 0.83063 0.0
C593 C 0.79252 0.1498 0.77289 0.0
C594 C 0.75184 0.1304 0.84558 0.0
C595 C 0.74041 0.14375 0.80348 0.0
H596 H 0.78439 0.12139 0.86184 0.0
H597 H 0.74066 0.11653 0.88811 0.0
S598 S 0.77352 0.19293 0.65624 0.0
N599 N 0.79531 0.18242 0.68094 0.0
N600 N 0.74768 0.17676 0.70867 0.0
C601 C 0.75611 0.16181 0.74989 0.0
C602 C 0.78208 0.16491 0.73489 0.0
C603 C 0.43652 0.18017 0.23038 0.0
C604 C 0.43148 0.15453 0.25009 0.0
C605 C 0.41635 0.18677 0.20719 0.0
C606 C 0.39059 0.16788 0.20233 0.0
H607 H 0.45602 0.19525 0.23439 0.0
H608 H 0.42085 0.20678 0.19427 0.0
S609 S 0.36835 0.09734 0.23391 0.0
N610 N 0.39942 0.10993 0.2554 0.0
N611 N 0.36206 0.12199 0.20901 0.0
C612 C 0.38576 0.14202 0.2177 0.0
C613 C 0.40603 0.13546 0.24255 0.0
C614 C 0.89593 0.24634 0.36374 0.0
C615 C 0.88432 0.23619 0.29344 0.0
C616 C 0.90127 0.27192 0.38615 0.0
C617 C 0.89536 0.2886 0.33915 0.0
H618 H 0.90221 0.23491 0.40023 0.0
H619 H 0.91112 0.27896 0.43948 0.0
S620 S 0.86271 0.27099 0.1525 0.0
N621 N 0.86535 0.24454 0.17963 0.0
N622 N 0.87532 0.29227 0.22152 0.0
C623 C 0.88229 0.27819 0.27096 0.0
C624 C 0.87677 0.25212 0.24828 0.0
C625 C 0.66848 0.59677 0.98605 0.0
C626 C 0.6532 0.58735 0.05158 0.0
C627 C 0.69536 0.61203 0.9909 0.0
C628 C 0.70811 0.61828 0.06135 0.0
H629 H 0.65935 0.59442 0.93117 0.0
H630 H 0.70586 0.62065 0.9395 0.0
S631 S 0.67779 0.5938 0.24828 0.0
N632 N 0.65352 0.58193 0.18783 0.0
N633 N 0.70384 0.61042 0.19698 0.0
C634 C 0.69353 0.60653 0.12633 0.0
C635 C 0.66613 0.59117 0.12142 0.0
C636 C 0.62324 0.88586 0.81482 0.0
C637 C 0.59615 0.87247 0.81253 0.0
C638 C 0.63853 0.87496 0.84837 0.0
C639 C 0.62748 0.84968 0.87789 0.0
H640 H 0.63276 0.905 0.79042 0.0
H641 H 0.65935 0.88608 0.84827 0.0
S642 S 0.55716 0.80722 0.89082 0.0
N643 N 0.55861 0.8335 0.84796 0.0
N644 N 0.58742 0.81237 0.90805 0.0
C645 C 0.60027 0.83647 0.87888 0.0
C646 C 0.58461 0.84794 0.84637 0.0
C647 C 0.1603 0.75217 0.81188 0.0
C648 C 0.13575 0.7332 0.79062 0.0
C649 C 0.16425 0.77798 0.82817 0.0
C650 C 0.14373 0.78565 0.82437 0.0
H651 H 0.17658 0.74709 0.81523 0.0
H652 H 0.18343 0.79197 0.84398 0.0
S653 S 0.07481 0.74191 0.78574 0.0
N654 N 0.09031 0.72329 0.77429 0.0
N655 N 0.09723 0.7708 0.80832 0.0
C656 C 0.11891 0.76639 0.80669 0.0
C657 C 0.11507 0.74048 0.78881 0.0
C658 C 0.33768 0.44056 0.84317 0.0
C659 C 0.32454 0.42714 0.90811 0.0
C660 C 0.36306 0.46021 0.84746 0.0
C661 C 0.37661 0.46726 0.91686 0.0
H662 H 0.32918 0.43447 0.78766 0.0
H663 H 0.3728 0.46839 0.79472 0.0
S664 S 0.34837 0.44264 0.10578 0.0
N665 N 0.32502 0.42602 0.04573 0.0
N666 N 0.37292 0.46217 0.05357 0.0
C667 C 0.36263 0.45593 0.98308 0.0
C668 C 0.3366 0.43612 0.97873 0.0
C669 C 0.17798 0.42725 0.28866 0.0
C670 C 0.15466 0.42534 0.25664 0.0
C671 C 0.18226 0.40494 0.30185 0.0
C672 C 0.16326 0.38 0.28445 0.0
H673 H 0.19295 0.44605 0.30381 0.0
H674 H 0.20045 0.4072 0.32617 0.0
S675 S 0.09754 0.36446 0.21007 0.0
N676 N 0.11177 0.39639 0.21276 0.0
N677 N 0.11937 0.35483 0.24043 0.0
C678 C 0.13977 0.37794 0.25365 0.0
C679 C 0.13558 0.40051 0.23913 0.0
C680 C 0.5474 0.64091 0.37499 0.0
C681 C 0.55488 0.62256 0.4083 0.0
C682 C 0.56468 0.66764 0.37022 0.0
C683 C 0.59063 0.67689 0.3945 0.0
H684 H 0.52815 0.63455 0.35167 0.0
H685 H 0.55789 0.68096 0.34538 0.0
S686 S 0.62015 0.63751 0.48715 0.0
N687 N 0.59004 0.61676 0.47073 0.0
N688 N 0.62258 0.66537 0.45366 0.0
C689 C 0.59825 0.65872 0.4272 0.0
C690 C 0.58044 0.63211 0.43624 0.0
C691 C 0.30146 0.87987 0.33258 0.0
C692 C 0.30934 0.88502 0.25647 0.0
C693 C 0.27655 0.87628 0.35598 0.0
C694 C 0.25836 0.8775 0.3042 0.0
H695 H 0.31511 0.88019 0.37542 0.0
H696 H 0.27211 0.87408 0.41601 0.0
S697 S 0.2676 0.88517 0.09589 0.0
N698 N 0.29567 0.88734 0.12753 0.0
N699 N 0.24885 0.88037 0.17134 0.0
C700 C 0.26516 0.88012 0.22682 0.0
C701 C 0.29065 0.88401 0.20305 0.0
C702 C 0.18515 0.37764 0.93529 0.0
C703 C 0.15842 0.36214 0.9279 0.0
C704 C 0.1983 0.3783 1.00337 0.0
C705 C 0.18521 0.36362 0.06702 0.0
H706 H 0.19633 0.38782 0.88648 0.0
H707 H 0.21918 0.38881 1.00396 0.0
S708 S 0.11412 0.32395 0.0799 0.0
N709 N 0.11883 0.33445 0.99184 0.0
N710 N 0.14294 0.33662 0.12024 0.0
C711 C 0.158 0.3504 0.06219 0.0
C712 C 0.14479 0.34922 0.99238 0.0
C713 C 0.62075 0.81586 0.20877 0.0
C714 C 0.6468 0.8261 0.23381 0.0
C715 C 0.61198 0.79789 0.148 0.0
C716 C 0.62873 0.78902 0.11065 0.0
H717 H 0.60746 0.82313 0.23247 0.0
H718 H 0.59244 0.79212 0.1276 0.0
S719 S 0.69668 0.8067 0.16888 0.0
N720 N 0.68739 0.82371 0.22644 0.0
N721 N 0.67162 0.78974 0.11454 0.0
C722 C 0.65389 0.79747 0.14156 0.0
C723 C 0.6627 0.81594 0.20242 0.0
C724 C 0.16625 0.86745 0.08884 0.0
C725 C 0.16212 0.84273 0.1139 0.0
C726 C 0.18557 0.88049 0.0345 0.0
C727 C 0.20017 0.86883 0.99887 0.0
H728 H 0.15447 0.87666 0.11123 0.0
H729 H 0.18855 0.89949 1.01716 0.0
S730 S 0.20136 0.80694 0.05742 0.0
N731 N 0.17873 0.80957 0.11121 0.0
N732 N 0.21266 0.833 1.00383 0.0
C733 C 0.19812 0.84529 0.02903 0.0
C734 C 0.17949 0.8325 0.08722 0.0
C735 C 0.4033 0.20495 0.52922 0.0
C736 C 0.38968 0.17802 0.5388 0.0
C737 C 0.4016 0.21697 0.46124 0.0
C738 C 0.38636 0.20252 0.39995 0.0
H739 H 0.41378 0.21705 0.57637 0.0
H740 H 0.41071 0.23794 0.45912 0.0
S741 S 0.35125 0.13069 0.3929 0.0
N742 N 0.3635 0.13695 0.47891 0.0
N743 N 0.36106 0.15907 0.35106 0.0
C744 C 0.3752 0.17529 0.40666 0.0
C745 C 0.37645 0.16317 0.47627 0.0
C746 C 0.88817 0.1774 0.46332 0.0
C747 C 0.86316 0.17274 0.44009 0.0
C748 C 0.89997 0.1932 0.52623 0.0
C749 C 0.88726 0.20528 0.56922 0.0
H750 H 0.89842 0.16831 0.43303 0.0
H751 H 0.91902 0.19553 0.54266 0.0
S752 S 0.82453 0.20619 0.51868 0.0
N753 N 0.82817 0.18632 0.4557 0.0
N754 N 0.85023 0.21602 0.57393 0.0
C755 C 0.86342 0.20344 0.54139 0.0
C756 C 0.85139 0.18722 0.47695 0.0
C757 C 0.81295 0.65689 0.54832 0.0
C758 C 0.78731 0.65419 0.54589 0.0
C759 C 0.82867 0.66267 0.48343 0.0
C760 C 0.81962 0.66666 0.41317 0.0
H761 H 0.82131 0.65588 0.60223 0.0
H762 H 0.84856 0.66524 0.48908 0.0
S763 S 0.75295 0.65898 0.37318 0.0
N764 N 0.75255 0.65324 0.46503 0.0
N765 N 0.78251 0.66509 0.34278 0.0
C766 C 0.7935 0.66251 0.40826 0.0
C767 C 0.77717 0.65588 0.47463 0.0
C768 C 0.84868 0.67319 0.91006 0.0
C769 C 0.82228 0.6571 0.89853 0.0
C770 C 0.8613 0.67302 0.97814 0.0
C771 C 0.84822 0.65622 0.03736 0.0
H772 H 0.85949 0.68693 0.86742 0.0
H773 H 0.88132 0.68664 0.98522 0.0
S774 S 0.77987 0.60755 0.0344 0.0
N775 N 0.7841 0.62197 0.95146 0.0
N776 N 0.80801 0.62128 0.07813 0.0
C777 C 0.82242 0.63851 0.02489 0.0
C778 C 0.80942 0.63896 0.95589 0.0
C779 C 0.34499 0.2081 0.94525 0.0
C780 C 0.36189 0.19764 0.91866 0.0
C781 C 0.35262 0.2271 1.00304 0.0
C782 C 0.37676 0.23575 0.03899 0.0
H783 H 0.32566 0.20132 0.92219 0.0
H784 H 0.33928 0.23458 0.02268 0.0
S785 S 0.42926 0.21647 0.98673 0.0
N786 N 0.4054 0.19952 0.92866 0.0
N787 N 0.41864 0.23431 0.03871 0.0
C788 C 0.39464 0.22712 1.00908 0.0
C789 C 0.38726 0.20804 0.94938 0.0
C790 C 0.83655 0.13291 0.01968 0.0
C791 C 0.8275 0.14692 0.06858 0.0
C792 C 0.85185 0.14443 0.95564 0.0
C793 C 0.85905 0.17043 0.93735 0.0
H794 H 0.83199 0.11293 0.03175 0.0
H795 H 0.85833 0.13307 0.92015 0.0
S796 S 0.8334 0.21335 0.03295 0.0
N797 N 0.82197 0.18677 0.08446 0.0
N798 N 0.85074 0.20829 0.96463 0.0
C799 C 0.84748 0.18381 0.98063 0.0
C800 C 0.83175 0.17208 0.04598 0.0
C801 C 0.63941 0.85876 0.64375 0.0
C802 C 0.62235 0.84867 0.58258 0.0
C803 C 0.64015 0.84293 0.70364 0.0
C804 C 0.62426 0.81616 0.70571 0.0
H805 H 0.65336 0.87886 0.64359 0.0
H806 H 0.65504 0.85151 0.74557 0.0
S807 S 0.57461 0.77999 0.56255 0.0
N808 N 0.5875 0.81002 0.53073 0.0
N809 N 0.58954 0.78052 0.64286 0.0
C810 C 0.60594 0.80603 0.64744 0.0
C811 C 0.60487 0.82219 0.58624 0.0
C812 C 0.17935 0.8384 0.47958 0.0
C813 C 0.15459 0.81792 0.48415 0.0
C814 C 0.18899 0.85669 0.53865 0.0
C815 C 0.17413 0.85576 0.60363 0.0
H816 H 0.19103 0.84076 0.42906 0.0
H817 H 0.20838 0.87143 0.53344 0.0
S818 S 0.11207 0.80049 0.6523 0.0
N819 N 0.11789 0.7942 0.56461 0.0
N820 N 0.13638 0.82818 0.67591 0.0
C821 C 0.15071 0.83353 0.6119 0.0
C822 C 0.14071 0.81494 0.55165 0.0
C823 C 0.20559 0.33309 0.53899 0.0
C824 C 0.19572 0.34968 0.57182 0.0
C825 C 0.22143 0.34038 0.47382 0.0
C826 C 0.2277 0.36407 0.43729 0.0
H827 H 0.20005 0.31389 0.56148 0.0
H828 H 0.22802 0.32698 0.44898 0.0
S829 S 0.21265 0.41744 0.51013 0.0
N830 N 0.19802 0.39356 0.57023 0.0
N831 N 0.2273 0.40637 0.44752 0.0
C832 C 0.2208 0.38216 0.47445 0.0
C833 C 0.20476 0.37503 0.54131 0.0
C834 C 0.87497 0.74936 0.44703 0.0
C835 C 0.85991 0.73529 0.50888 0.0
C836 C 0.86331 0.75413 0.38239 0.0
C837 C 0.83624 0.74468 0.37739 0.0
H838 H 0.89574 0.75555 0.44686 0.0
H839 H 0.87537 0.76372 0.33432 0.0
S840 S 0.78942 0.71376 0.53009 0.0
N841 N 0.8173 0.71719 0.56623 0.0
N842 N 0.79541 0.72514 0.44337 0.0
C843 C 0.82137 0.7327 0.44077 0.0
C844 C 0.83319 0.72824 0.50684 0.0
C845 C 0.31764 0.18046 0.43405 0.0
C846 C 0.2947 0.17477 0.39407 0.0
C847 C 0.3266 0.19963 0.49107 0.0
C848 C 0.3119 0.21299 0.51389 0.0
H849 H 0.32911 0.17046 0.41851 0.0
H850 H 0.34526 0.20421 0.51668 0.0
S851 S 0.24706 0.20153 0.43874 0.0
N852 N 0.25553 0.18164 0.38845 0.0
N853 N 0.27084 0.21626 0.49933 0.0
C854 C 0.28712 0.2052 0.48083 0.0
C855 C 0.27863 0.1862 0.42075 0.0
C856 C 0.90742 0.12564 0.40188 0.0
C857 C 0.93043 0.14855 0.40135 0.0
C858 C 0.8937 0.11594 0.46938 0.0
C859 C 0.90222 0.12903 0.53885 0.0
H860 H 0.89871 0.11646 0.34884 0.0
H861 H 0.87505 0.09943 0.46584 0.0
S862 S 0.96473 0.18588 0.57075 0.0
N863 N 0.96373 0.18121 0.47794 0.0
N864 N 0.93777 0.16303 0.60524 0.0
C865 C 0.92675 0.15013 0.54053 0.0
C866 C 0.94096 0.15986 0.47153 0.0
C867 C 0.89658 0.48096 0.10377 0.0
C868 C 0.88889 0.47065 0.03083 0.0
C869 C 0.89887 0.46551 0.16217 0.0
C870 C 0.89338 0.43916 0.15001 0.0
H871 H 0.90266 0.50146 0.11454 0.0
H872 H 0.90616 0.47469 0.21635 0.0
S873 S 0.86809 0.40191 0.97239 0.0
N874 N 0.87247 0.43174 0.95208 0.0
N875 N 0.87671 0.40278 0.06182 0.0
C876 C 0.88352 0.42813 0.07911 0.0
C877 C 0.88128 0.44387 0.01958 0.0
C878 C 0.53335 0.5867 0.67886 0.0
C879 C 0.51783 0.59026 0.73594 0.0
C880 C 0.52232 0.56997 0.61669 0.0
C881 C 0.49544 0.55638 0.60879 0.0
H882 H 0.5542 0.59558 0.68493 0.0
H883 H 0.53505 0.5669 0.57676 0.0
S884 S 0.44723 0.57113 0.71855 0.0
N885 N 0.47457 0.58644 0.76537 0.0
N886 N 0.45442 0.55738 0.64438 0.0
C887 C 0.48018 0.56493 0.65518 0.0
C888 C 0.49122 0.58114 0.72033 0.0
C889 C 0.61851 0.13805 0.0325 0.0
C890 C 0.61826 0.15018 0.96374 0.0
C891 C 0.60035 0.1354 0.08973 0.0
C892 C 0.58131 0.14491 0.08076 0.0
H893 H 0.63146 0.12873 0.04004 0.0
H894 H 0.60052 0.12468 0.13994 0.0
S895 S 0.57569 0.18267 0.91724 0.0
N896 N 0.59985 0.17511 0.89428 0.0
N897 N 0.56579 0.17018 1.00192 0.0
C898 C 0.58242 0.1592 1.01527 0.0
C899 C 0.6009 0.16185 0.95686 0.0
C900 C 0.5744 0.15716 0.45532 0.0
C901 C 0.54737 0.14845 0.46388 0.0
C902 C 0.58981 0.15482 0.51377 0.0
C903 C 0.57887 0.14354 0.58334 0.0
H904 H 0.58361 0.1646 0.40135 0.0
H905 H 0.61025 0.16072 0.50275 0.0
S906 S 0.50973 0.12125 0.63914 0.0
N907 N 0.51084 0.1308 0.55062 0.0
N908 N 0.5397 0.12648 0.6608 0.0
C909 C 0.55219 0.13662 0.59488 0.0
C910 C 0.5365 0.13914 0.53523 0.0
C911 C 0.88312 0.42477 0.5295 0.0
C912 C 0.89344 0.40628 0.5374 0.0
C913 C 0.88556 0.4428 0.58705 0.0
C914 C 0.89841 0.44307 0.65481 0.0
H915 H 0.87451 0.42646 0.47651 0.0
H916 H 0.87858 0.45747 0.57651 0.0
S917 S 0.92385 0.39541 0.71082 0.0
N918 N 0.91335 0.38693 0.62347 0.0
N919 N 0.91777 0.42066 0.73178 0.0
C920 C 0.90654 0.42316 0.66652 0.0
C921 C 0.90399 0.40473 0.60794 0.0
C922 C 0.47534 0.51145 0.192 0.0
C923 C 0.46591 0.52591 0.23797 0.0
C924 C 0.49435 0.5231 0.13571 0.0
C925 C 0.50335 0.54958 0.11972 0.0
H926 H 0.46795 0.49096 0.20064 0.0
H927 H 0.50191 0.51135 0.10431 0.0
S928 S 0.48016 0.59515 0.21113 0.0
N929 N 0.46466 0.56768 0.25685 0.0
N930 N 0.4978 0.58905 0.14581 0.0
C931 C 0.49161 0.56364 0.15897 0.0
C932 C 0.47337 0.55199 0.21894 0.0
C933 C 0.29605 0.24608 0.96559 0.0
C934 C 0.28557 0.23254 0.89802 0.0
C935 C 0.29457 0.23284 0.03381 0.0
C936 C 0.28388 0.20554 0.03608 0.0
H937 H 0.3065 0.26699 0.965 0.0
H938 H 0.30426 0.2441 0.083 0.0
S939 S 0.25093 0.16127 0.87601 0.0
N940 N 0.26106 0.19055 0.83973 0.0
N941 N 0.2597 0.16564 0.96585 0.0
C942 C 0.2713 0.19194 0.97024 0.0
C943 C 0.27207 0.20545 0.90154 0.0
C944 C 0.90019 0.12222 0.90039 0.0
C945 C 0.87672 0.09978 0.89895 0.0
C946 C 0.91046 0.1353 0.96863 0.0
C947 C 0.89747 0.12666 0.03809 0.0
H948 H 0.90958 0.13094 0.84769 0.0
H949 H 0.92756 0.15351 0.966 0.0
S950 S 0.83845 0.06595 0.06693 0.0
N951 N 0.84305 0.06719 0.97416 0.0
N952 N 0.86232 0.09192 0.10272 0.0
C953 C 0.87551 0.1028 0.03845 0.0
C954 C 0.86518 0.08926 0.96873 0.0
C955 C 0.83806 0.72914 0.90804 0.0
C956 C 0.84551 0.72823 0.98289 0.0
C957 C 0.85581 0.73473 0.84797 0.0
C958 C 0.88171 0.73937 0.86052 0.0
H959 H 0.81816 0.725 0.89615 0.0
H960 H 0.84889 0.73389 0.79057 0.0
S961 S 0.91244 0.74462 0.04727 0.0
N962 N 0.88167 0.73688 0.06791 0.0
N963 N 0.91495 0.74636 0.954 0.0
C964 C 0.8901 0.74093 0.93562 0.0
C965 C 0.87199 0.73561 0.99724 0.0
C966 C 0.49146 0.90105 0.43433 0.0
C967 C 0.46444 0.89252 0.44291 0.0
C968 C 0.50664 0.898 0.49232 0.0
C969 C 0.49536 0.88642 0.56115 0.0
H970 H 0.50124 0.91133 0.38388 0.0
H971 H 0.5275 0.90663 0.48541 0.0
S972 S 0.42516 0.85656 0.6073 0.0
N973 N 0.42679 0.86875 0.52189 0.0
N974 N 0.4553 0.86313 0.63082 0.0
C975 C 0.46818 0.87573 0.5678 0.0
C976 C 0.45272 0.87878 0.50879 0.0
C977 C 0.13096 0.61478 0.53202 0.0
C978 C 0.14663 0.61766 0.59568 0.0
C979 C 0.12863 0.59657 0.47496 0.0
C980 C 0.14196 0.58058 0.47908 0.0
H981 H 0.11884 0.62518 0.52892 0.0
H982 H 0.11528 0.5942 0.4291 0.0
S983 S 0.18933 0.58415 0.62696 0.0
N984 N 0.17854 0.60568 0.65414 0.0
N985 N 0.17422 0.57156 0.547 0.0
C986 C 0.15947 0.58494 0.53897 0.0
C987 C 0.16183 0.60348 0.59709 0.0
C988 C 0.53365 0.52938 0.74319 0.0
C989 C 0.52089 0.50271 0.75862 0.0
C990 C 0.54949 0.53849 0.67777 0.0
C991 C 0.55102 0.52157 0.62132 0.0
H992 H 0.53141 0.54324 0.78165 0.0
H993 H 0.56032 0.55898 0.66969 0.0
S994 S 0.53062 0.45135 0.64679 0.0
N995 N 0.51867 0.46021 0.72179 0.0
N996 N 0.54507 0.4777 0.59549 0.0
C997 C 0.54117 0.49535 0.64002 0.0
C998 C 0.52666 0.48593 0.70888 0.0
C999 C 0.73023 0.78258 0.09183 0.0
C1000 C 0.70962 0.77559 0.03913 0.0
C1001 C 0.72681 0.77035 0.16401 0.0
C1002 C 0.70269 0.75061 0.18664 0.0
H1003 H 0.74791 0.79977 0.08197 0.0
H1004 H 0.74219 0.7785 0.20521 0.0
S1005 S 0.64717 0.71714 0.05767 0.0
N1006 N 0.66787 0.74104 1.00601 0.0
N1007 N 0.66107 0.71956 0.14092 0.0
C1008 C 0.68398 0.74035 0.12922 0.0
C1009 C 0.68774 0.75216 0.0553 0.0
C1010 C 0.18123 0.94478 0.08167 0.0
C1011 C 0.16667 0.93903 0.14925 0.0
C1012 C 0.1702 0.93242 1.0126 0.0
C1013 C 0.14474 0.9127 1.00977 0.0
H1014 H 0.20157 0.95795 0.08285 0.0
H1015 H 0.18254 0.93641 0.9629 0.0
S1016 S 0.09776 0.89319 0.17014 0.0
N1017 N 0.12465 0.91519 0.20716 0.0
N1018 N 0.10436 0.89088 0.07985 0.0
C1019 C 0.12939 0.9087 0.07584 0.0
C1020 C 0.14039 0.92186 0.14521 0.0
C1021 C 0.1841 0.30561 0.98376 0.0
C1022 C 0.20161 0.29476 0.9681 0.0
C1023 C 0.16491 0.29499 0.03974 0.0
C1024 C 0.16346 0.2745 0.08568 0.0
H1025 H 0.18537 0.3225 0.9531 0.0
H1026 H 0.15145 0.30323 0.04942 0.0
S1027 S 0.20041 0.235 0.05489 0.0
N1028 N 0.21249 0.2584 0.9918 0.0
N1029 N 0.17749 0.24004 0.10079 0.0
C1030 C 0.17859 0.26141 0.06442 0.0
C1031 C 0.19769 0.2715 1.00539 0.0
C1032 C 0.19339 0.26062 0.58862 0.0
C1033 C 0.22064 0.27295 0.58874 0.0
C1034 C 0.1793 0.2591 0.52196 0.0
C1035 C 0.19208 0.26954 0.45327 0.0
H1036 H 0.18292 0.25407 0.64142 0.0
H1037 H 0.15843 0.25181 0.5259 0.0
S1038 S 0.26306 0.29859 0.42176 0.0
N1039 N 0.25966 0.29269 0.51349 0.0
N1040 N 0.23339 0.28796 0.38779 0.0
C1041 C 0.21919 0.27882 0.45154 0.0
C1042 C 0.23346 0.28123 0.51955 0.0
C1043 C 0.6942 0.83318 0.65454 0.0
C1044 C 0.71701 0.83623 0.69143 0.0
C1045 C 0.68658 0.82057 0.58386 0.0
C1046 C 0.7022 0.81084 0.54447 0.0
H1047 H 0.68157 0.83969 0.68326 0.0
H1048 H 0.66761 0.81708 0.56262 0.0
S1049 S 0.76882 0.82178 0.60309 0.0
N1050 N 0.75825 0.83379 0.67452 0.0
N1051 N 0.74511 0.81091 0.54053 0.0
C1052 C 0.72709 0.81706 0.57566 0.0
C1053 C 0.73444 0.82969 0.64883 0.0
C1054 C 0.10785 0.85545 0.58839 0.0
C1055 C 0.11161 0.87168 0.65216 0.0
C1056 C 0.1225 0.8647 0.52139 0.0
C1057 C 0.14002 0.89088 0.51465 0.0
H1058 H 0.09493 0.83515 0.59204 0.0
H1059 H 0.12076 0.85117 0.47587 0.0
S1060 S 0.14921 0.94274 0.65608 0.0
N1061 N 0.12966 0.91585 0.69869 0.0
N1062 N 0.15528 0.9339 0.57148 0.0
C1063 C 0.14067 0.90792 0.57404 0.0
C1064 C 0.12682 0.8982 0.64303 0.0
C1065 C 0.155 0.59088 0.05156 0.0
C1066 C 0.14771 0.58055 0.97845 0.0
C1067 C 0.15649 0.5754 0.11089 0.0
C1068 C 0.15086 0.54899 0.09952 0.0
H1069 H 0.1581 0.61063 0.06431 0.0
H1070 H 0.16073 0.58392 0.16714 0.0
S1071 S 0.13559 0.51391 0.91535 0.0
N1072 N 0.13843 0.54327 0.89533 0.0
N1073 N 0.14114 0.51421 1.00711 0.0
C1074 C 0.14592 0.53908 0.02521 0.0
C1075 C 0.1443 0.55484 0.96468 0.0
C1076 C 0.47748 0.44802 0.1805 0.0
C1077 C 0.49276 0.45209 0.11435 0.0
C1078 C 0.48781 0.46195 0.24857 0.0
C1079 C 0.51346 0.48125 0.25186 0.0
H1080 H 0.45716 0.4348 0.17881 0.0
H1081 H 0.47507 0.45899 0.29695 0.0
S1082 S 0.56171 0.49821 0.09505 0.0
N1083 N 0.5353 0.47527 0.05869 0.0
N1084 N 0.55422 0.50214 0.18337 0.0
C1085 C 0.52922 0.48422 0.1872 0.0
C1086 C 0.51894 0.46963 0.11917 0.0
C1087 C 0.46663 0.88137 1.00993 0.0
C1088 C 0.46405 0.89152 0.93997 0.0
C1089 C 0.44914 0.87854 0.06914 0.0
C1090 C 0.42844 0.88576 0.06056 0.0
H1091 H 0.48315 0.87716 0.02082 0.0
H1092 H 0.45301 0.87238 0.1237 0.0
S1093 S 0.40979 0.90736 0.88231 0.0
N1094 N 0.43662 0.90427 0.86069 0.0
N1095 N 0.40388 0.89913 0.97224 0.0
C1096 C 0.424 0.8931 0.98818 0.0
C1097 C 0.44187 0.89605 0.92788 0.0
C1098 C 0.28105 0.30522 0.97244 0.0
C1099 C 0.30164 0.32294 0.92987 0.0
C1100 C 0.27462 0.3126 0.04234 0.0
C1101 C 0.28856 0.33783 0.07166 0.0
H1102 H 0.26763 0.28714 0.9473 0.0
H1103 H 0.25632 0.2999 0.06718 0.0
S1104 S 0.35269 0.38428 1.00264 0.0
N1105 N 0.34193 0.36189 0.93524 0.0
N1106 N 0.33016 0.37527 0.06969 0.0
C1107 C 0.3129 0.3526 0.03961 0.0
C1108 C 0.31927 0.34534 0.96696 0.0
C1109 C 0.64805 0.88269 0.16483 0.0
C1110 C 0.66296 0.90758 0.19399 0.0
C1111 C 0.65816 0.87148 0.10906 0.0
C1112 C 0.68341 0.88469 0.07867 0.0
H1113 H 0.62943 0.87086 0.18993 0.0
H1114 H 0.64648 0.85163 0.09224 0.0
S1115 S 0.72245 0.95527 0.10097 0.0
N1116 N 0.69906 0.94858 0.16462 0.0
N1117 N 0.71795 0.92747 0.05972 0.0
C1118 C 0.69606 0.91126 0.09573 0.0
C1119 C 0.68581 0.92269 0.15325 0.0
C1120 C 0.11698 0.78323 0.03473 0.0
C1121 C 0.09498 0.78462 1.00313 0.0
C1122 C 0.1149 0.76833 0.09914 0.0
C1123 C 0.0907 0.75447 0.13321 0.0
H1124 H 0.13608 0.79604 1.015 0.0
H1125 H 0.13242 0.77047 0.12771 0.0
S1126 S 0.02804 0.73656 0.03529 0.0
N1127 N 0.04883 0.76083 0.98503 0.0
N1128 N 0.04465 0.73199 0.10596 0.0
C1129 C 0.06865 0.75018 0.08938 0.0
C1130 C 0.07086 0.76552 0.02363 0.0
C1131 C 0.31879 0.27689 0.4328 0.0
C1132 C 0.34274 0.29346 0.40057 0.0
C1133 C 0.31024 0.28319 0.50109 0.0
C1134 C 0.32512 0.30648 0.53859 0.0
H1135 H 0.30832 0.25745 0.41079 0.0
H1136 H 0.29364 0.26843 0.52884 0.0
S1137 S 0.37997 0.36221 0.45389 0.0
N1138 N 0.37479 0.33809 0.39354 0.0
N1139 N 0.35858 0.35022 0.52322 0.0
C1140 C 0.34543 0.32556 0.4977 0.0
C1141 C 0.35421 0.31903 0.42748 0.0
C1142 C 0.76739 0.05025 0.52863 0.0
C1143 C 0.77192 0.07011 0.58223 0.0
C1144 C 0.75579 0.05073 0.45847 0.0
C1145 C 0.7523 0.07303 0.43796 0.0
H1146 H 0.77608 0.03679 0.53602 0.0
H1147 H 0.75652 0.03767 0.41432 0.0
S1148 S 0.74626 0.11998 0.57342 0.0
N1149 N 0.75975 0.10442 0.62274 0.0
N1150 N 0.7403 0.10613 0.48866 0.0
C1151 C 0.74853 0.08717 0.49864 0.0
C1152 C 0.75926 0.08638 0.57097 0.0
C1153 C 0.9336 0.66067 0.44134 0.0
C1154 C 0.94006 0.68138 0.39089 0.0
C1155 C 0.93872 0.66564 0.51914 0.0
C1156 C 0.9488 0.69139 0.54714 0.0
H1157 H 0.92036 0.64133 0.42382 0.0
H1158 H 0.9292 0.6497 0.55781 0.0
S1159 S 0.98236 0.75018 0.43249 0.0
N1160 N 0.96818 0.72672 0.37003 0.0
N1161 N 0.97598 0.73617 0.51636 0.0
C1162 C 0.96233 0.71102 0.49544 0.0
C1163 C 0.95809 0.70587 0.41624 0.0
C1164 C 0.7588 0.72959 0.92383 0.0
C1165 C 0.73953 0.70497 0.904 0.0
C1166 C 0.76218 0.73844 0.99884 0.0
C1167 C 0.74591 0.72313 0.05613 0.0
H1168 H 0.77469 0.73938 0.88565 0.0
H1169 H 0.77978 0.75526 1.01293 0.0
S1170 S 0.68422 0.66554 0.02477 0.0
N1171 N 0.69803 0.67152 0.94028 0.0
N1172 N 0.70403 0.68789 0.08311 0.0
C1173 C 0.72298 0.70203 0.03374 0.0
C1174 C 0.71961 0.6932 0.95649 0.0
C1175 C 0.35475 0.13348 1.0065 0.0
C1176 C 0.32948 0.11681 0.03012 0.0
C1177 C 0.36585 0.12836 0.94101 0.0
C1178 C 0.352 0.10637 0.89649 0.0
H1179 H 0.36481 0.15222 0.03329 0.0
H1180 H 0.38391 0.14328 0.92063 0.0
S1181 S 0.29133 0.05087 0.95389 0.0
N1182 N 0.29503 0.07349 0.01832 0.0
N1183 N 0.31611 0.0636 0.89468 0.0
C1184 C 0.32912 0.08723 0.92738 0.0
C1185 C 0.31774 0.09251 0.99456 0.0
C1186 C 0.94791 0.27713 0.99702 0.0
C1187 C 0.9644 0.27385 0.94254 0.0
C1188 C 0.94633 0.26663 0.06965 0.0
C1189 C 0.9624 0.25436 0.08974 0.0
H1190 H 0.93218 0.2817 0.97898 0.0
H1191 H 0.92984 0.26434 0.105 0.0
S1192 S 0.01989 0.25828 0.98216 0.0
N1193 N 1.00547 0.27106 0.92558 0.0
N1194 N 1.00244 0.25057 0.0609 0.0
C1195 C 0.98411 0.25907 0.044 0.0
C1196 C 0.98578 0.27029 0.97086 0.0
C1197 C 0.65831 0.71225 0.75325 0.0
C1198 C 0.63377 0.71154 0.77101 0.0
C1199 C 0.6645 0.70705 0.67901 0.0
C1200 C 0.64643 0.70131 0.6201 0.0
H1201 H 0.67366 0.71942 0.79487 0.0
H1202 H 0.68434 0.71087 0.66623 0.0
S1203 S 0.57668 0.68605 0.64452 0.0
N1204 N 0.58923 0.69643 0.72902 0.0
N1205 N 0.6008 0.68652 0.59102 0.0
C1206 C 0.62049 0.69482 0.64184 0.0
C1207 C 0.6142 0.70038 0.71672 0.0
C1208 C 0.24265 0.92192 0.59695 0.0
C1209 C 0.25642 0.94181 0.64798 0.0
C1210 C 0.23526 0.9272 0.52586 0.0
C1211 C 0.24301 0.95249 0.49886 0.0
H1212 H 0.2358 0.90203 0.61477 0.0
H1213 H 0.2218 0.91131 0.49419 0.0
S1214 S 0.28313 0.0121 0.60689 0.0
N1215 N 0.2792 0.98835 0.66599 0.0
N1216 N 0.2677 0.99818 0.52828 0.0
C1217 C 0.25859 0.97282 0.54745 0.0
C1218 C 0.26504 0.96748 0.62226 0.0
C1219 C 0.09802 0.32986 0.42054 0.0
C1220 C 0.08868 0.30279 0.41017 0.0
C1221 C 0.09109 0.34029 0.48501 0.0
C1222 C 0.07707 0.32366 0.54357 0.0
H1223 H 0.1139 0.34282 0.38612 0.0
H1224 H 0.10225 0.3607 0.49718 0.0
S1225 S 0.03672 0.25338 0.52328 0.0
N1226 N 0.05586 0.26088 0.44791 0.0
N1227 N 0.04317 0.28098 0.56851 0.0
C1228 C 0.06109 0.29799 0.52133 0.0
C1229 C 0.06802 0.28703 0.45622 0.0
C1230 C 0.02563 0.60915 0.82867 0.0
C1231 C 0.04336 0.5981 0.81777 0.0
C1232 C 0.99881 0.59357 0.83265 0.0
C1233 C 0.98871 0.56644 0.82379 0.0
H1234 H 0.03253 0.62994 0.83523 0.0
H1235 H 0.98589 0.60288 0.84203 0.0
S1236 S 0.02696 0.52807 0.79115 0.0
N1237 N 0.04883 0.55835 0.79681 0.0
N1238 N 0.99873 0.52932 0.80277 0.0
C1239 C 1.00628 0.55525 0.81164 0.0
C1240 C 0.03349 0.571 0.80906 0.0
C1241 C 0.41533 0.41588 0.68055 0.0
C1242 C 0.42693 0.43553 0.73586 0.0
C1243 C 0.41076 0.42208 0.60544 0.0
C1244 C 0.41612 0.44787 0.58467 0.0
H1245 H 0.41092 0.39594 0.69408 0.0
H1246 H 0.40404 0.40689 0.56297 0.0
S1247 S 0.4477 0.50558 0.70418 0.0
N1248 N 0.44719 0.48161 0.75525 0.0
N1249 N 0.43218 0.49219 0.6261 0.0
C1250 C 0.42583 0.46683 0.64052 0.0
C1251 C 0.43291 0.46095 0.71266 0.0
C1252 C 0.60834 1.0022 0.76248 0.0
C1253 C 0.58109 0.98996 0.76376 0.0
C1254 C 0.62171 0.02935 0.76036 0.0
C1255 C 0.6083 0.04522 0.75726 0.0
H1256 H 0.61945 0.99073 0.76414 0.0
H1257 H 0.64268 0.03796 0.7607 0.0
S1258 S 0.53683 0.02269 0.75738 0.0
N1259 N 0.54119 0.99583 0.76102 0.0
N1260 N 0.56613 0.04656 0.75548 0.0
C1261 C 0.58103 0.03315 0.75741 0.0
C1262 C 0.56748 1.00562 0.76113 0.0
C1263 C 0.43648 0.03465 0.25526 0.0
C1264 C 0.46368 0.04753 0.25058 0.0
C1265 C 0.42375 1.00744 0.25747 0.0
C1266 C 0.4378 0.99215 0.25729 0.0
H1267 H 0.42491 0.04567 0.2569 0.0
H1268 H 0.4028 0.99833 0.26055 0.0
S1269 S 0.50932 0.0163 0.24542 0.0
N1270 N 0.50416 0.04274 0.24498 0.0
N1271 N 0.4804 0.99193 0.25072 0.0
C1272 C 0.46498 1.00481 0.2527 0.0
C1273 C 0.47787 0.03239 0.24888 0.0
C1274 C 0.04207 0.42878 0.31296 0.0
C1275 C 0.05174 0.45598 0.31861 0.0
C1276 C 0.01534 0.41288 0.31689 0.0
C1277 C 0.99728 0.42366 0.32454 0.0
H1278 H 0.05526 0.41967 0.30571 0.0
H1279 H 1.00877 0.39207 0.3125 0.0
S1280 S 1.01251 0.49372 0.34265 0.0
N1281 N 0.04101 0.49287 0.33364 0.0
N1282 N 0.99103 0.46323 0.33954 0.0
C1283 C 1.00673 0.45082 0.33049 0.0
C1284 C 0.03386 0.46691 0.32796 0.0
C1285 C 0.56305 0.62033 0.14371 0.0
C1286 C 0.58689 0.63177 0.10658 0.0
C1287 C 0.56035 0.60586 0.2092 0.0
C1288 C 0.58157 0.6031 0.2422 0.0
H1289 H 0.54579 0.6196 0.11665 0.0
H1290 H 0.54092 0.5943 0.22846 0.0
S1291 S 0.64997 0.64158 0.19016 0.0
N1292 N 0.63345 0.6477 0.12229 0.0
N1293 N 0.62836 0.62142 0.24922 0.0
C1294 C 0.60625 0.61949 0.21591 0.0
C1295 C 0.60894 0.63366 0.14689 0.0
loop_
_geom_bond_atom_site_label_1
_geom_bond_atom_site_label_2
_geom_bond_distance
_geom_bond_site_symmetry_2
_ccdc_geom_bond_type
O0 Cd1 2.223 . S
O0 C8 1.315 . S
Cd1 O0 2.223 . S
Cd1 O4 2.297 . S
Cd1 O5 2.439 . S
Cd1 O11 2.240 . S
Cd2 O3 2.240 . S
Cd2 O10 2.223 . S
Cd2 O12 2.297 . S
Cd2 O13 2.439 . S
O3 Cd2 2.240 . S
O3 C8 1.279 . S
O4 Cd1 2.297 . S
O4 C6 1.247 . S
O5 Cd1 2.439 . S
O5 C6 1.208 . S
C6 O4 1.247 . S
C6 O5 1.208 . S
C7 O12 1.247 . S
C7 O13 1.208 . S
C8 O0 1.315 . S
C8 O3 1.279 . S
C9 O10 1.315 . S
C9 O11 1.279 . S
O10 Cd2 2.223 . S
O10 C9 1.315 . S
O11 Cd1 2.240 . S
O11 C9 1.279 . S
O12 Cd2 2.297 . S
O12 C7 1.247 . S
O13 Cd2 2.439 . S
O13 C7 1.208 . S
O14 Cd15 2.223 . S
O14 C22 1.315 . S
Cd15 O14 2.223 . S
Cd15 O18 2.297 . S
Cd15 O19 2.439 . S
Cd15 O25 2.240 . S
Cd16 O17 2.240 . S
Cd16 O24 2.223 . S
Cd16 O26 2.297 . S
Cd16 O27 2.439 . S
O17 Cd16 2.240 . S
O17 C22 1.279 . S
O18 Cd15 2.297 . S
O18 C20 1.247 . S
O19 Cd15 2.439 . S
O19 C20 1.208 . S
C20 O18 1.247 . S
C20 O19 1.208 . S
C21 O26 1.247 . S
C21 O27 1.208 . S
C22 O14 1.315 . S
C22 O17 1.279 . S
C23 O24 1.315 . S
C23 O25 1.279 . S
O24 Cd16 2.223 . S
O24 C23 1.315 . S
O25 Cd15 2.240 . S
O25 C23 1.279 . S
O26 Cd16 2.297 . S
O26 C21 1.247 . S
O27 Cd16 2.439 . S
O27 C21 1.208 . S
O28 Cd29 2.223 . S
O28 C36 1.315 . S
Cd29 O28 2.223 . S
Cd29 O32 2.297 . S
Cd29 O33 2.439 . S
Cd29 O39 2.240 . S
Cd30 O31 2.240 . S
Cd30 O38 2.223 . S
Cd30 O40 2.297 . S
Cd30 O41 2.439 . S
O31 Cd30 2.240 . S
O31 C36 1.279 . S
O32 Cd29 2.297 . S
O32 C34 1.247 . S
O33 Cd29 2.439 . S
O33 C34 1.208 . S
C34 O32 1.247 . S
C34 O33 1.208 . S
C35 O40 1.247 . S
C35 O41 1.208 . S
C36 O28 1.315 . S
C36 O31 1.279 . S
C37 O38 1.315 . S
C37 O39 1.279 . S
O38 Cd30 2.223 . S
O38 C37 1.315 . S
O39 Cd29 2.240 . S
O39 C37 1.279 . S
O40 Cd30 2.297 . S
O40 C35 1.247 . S
O41 Cd30 2.439 . S
O41 C35 1.208 . S
O42 Cd43 2.223 . S
O42 C50 1.315 . S
Cd43 O42 2.223 . S
Cd43 O46 2.297 . S
Cd43 O47 2.439 . S
Cd43 O53 2.240 . S
Cd44 O45 2.240 . S
Cd44 O52 2.223 . S
Cd44 O54 2.297 . S
Cd44 O55 2.439 . S
O45 Cd44 2.240 . S
O45 C50 1.279 . S
O46 Cd43 2.297 . S
O46 C48 1.247 . S
O47 Cd43 2.439 . S
O47 C48 1.208 . S
C48 O46 1.247 . S
C48 O47 1.208 . S
C49 O54 1.247 . S
C49 O55 1.208 . S
C50 O42 1.315 . S
C50 O45 1.279 . S
C51 O52 1.315 . S
C51 O53 1.279 . S
O52 Cd44 2.223 . S
O52 C51 1.315 . S
O53 Cd43 2.240 . S
O53 C51 1.279 . S
O54 Cd44 2.297 . S
O54 C49 1.247 . S
O55 Cd44 2.439 . S
O55 C49 1.208 . S
O56 Cd57 2.223 . S
O56 C64 1.315 . S
Cd57 O56 2.223 . S
Cd57 O60 2.297 . S
Cd57 O61 2.439 . S
Cd57 O67 2.240 . S
Cd58 O59 2.240 . S
Cd58 O66 2.223 . S
Cd58 O68 2.297 . S
Cd58 O69 2.439 . S
O59 Cd58 2.240 . S
O59 C64 1.279 . S
O60 Cd57 2.297 . S
O60 C62 1.247 . S
O61 Cd57 2.439 . S
O61 C62 1.208 . S
C62 O60 1.247 . S
C62 O61 1.208 . S
C63 O68 1.247 . S
C63 O69 1.208 . S
C64 O56 1.315 . S
C64 O59 1.279 . S
C65 O66 1.315 . S
C65 O67 1.279 . S
O66 Cd58 2.223 . S
O66 C65 1.315 . S
O67 Cd57 2.240 . S
O67 C65 1.279 . S
O68 Cd58 2.297 . S
O68 C63 1.247 . S
O69 Cd58 2.439 . S
O69 C63 1.208 . S
O70 Cd71 2.223 . S
O70 C78 1.315 . S
Cd71 O70 2.223 . S
Cd71 O74 2.297 . S
Cd71 O75 2.439 . S
Cd71 O81 2.240 . S
Cd72 O73 2.240 . S
Cd72 O80 2.223 . S
Cd72 O82 2.297 . S
Cd72 O83 2.439 . S
O73 Cd72 2.240 . S
O73 C78 1.279 . S
O74 Cd71 2.297 . S
O74 C76 1.247 . S
O75 Cd71 2.439 . S
O75 C76 1.208 . S
C76 O74 1.247 . S
C76 O75 1.208 . S
C77 O82 1.247 . S
C77 O83 1.208 . S
C78 O70 1.315 . S
C78 O73 1.279 . S
C79 O80 1.315 . S
C79 O81 1.279 . S
O80 Cd72 2.223 . S
O80 C79 1.315 . S
O81 Cd71 2.240 . S
O81 C79 1.279 . S
O82 Cd72 2.297 . S
O82 C77 1.247 . S
O83 Cd72 2.439 . S
O83 C77 1.208 . S
O84 Cd85 2.223 . S
O84 C92 1.315 . S
Cd85 O84 2.223 . S
Cd85 O88 2.297 . S
Cd85 O89 2.439 . S
Cd85 O95 2.240 . S
Cd86 O87 2.240 . S
Cd86 O94 2.223 . S
Cd86 O96 2.297 . S
Cd86 O97 2.439 . S
O87 Cd86 2.240 . S
O87 C92 1.279 . S
O88 Cd85 2.297 . S
O88 C90 1.247 . S
O89 Cd85 2.439 . S
O89 C90 1.208 . S
C90 O88 1.247 . S
C90 O89 1.208 . S
C91 O96 1.247 . S
C91 O97 1.208 . S
C92 O84 1.315 . S
C92 O87 1.279 . S
C93 O94 1.315 . S
C93 O95 1.279 . S
O94 Cd86 2.223 . S
O94 C93 1.315 . S
O95 Cd85 2.240 . S
O95 C93 1.279 . S
O96 Cd86 2.297 . S
O96 C91 1.247 . S
O97 Cd86 2.439 . S
O97 C91 1.208 . S
O98 Cd99 2.223 . S
O98 C106 1.315 . S
Cd99 O98 2.223 . S
Cd99 O102 2.297 . S
Cd99 O103 2.439 . S
Cd99 O109 2.240 . S
Cd100 O101 2.240 . S
Cd100 O108 2.223 . S
Cd100 O110 2.297 . S
Cd100 O111 2.439 . S
O101 Cd100 2.240 . S
O101 C106 1.279 . S
O102 Cd99 2.297 . S
O102 C104 1.247 . S
O103 Cd99 2.439 . S
O103 C104 1.208 . S
C104 O102 1.247 . S
C104 O103 1.208 . S
C105 O110 1.247 . S
C105 O111 1.208 . S
C106 O98 1.315 . S
C106 O101 1.279 . S
C107 O108 1.315 . S
C107 O109 1.279 . S
O108 Cd100 2.223 . S
O108 C107 1.315 . S
O109 Cd99 2.240 . S
O109 C107 1.279 . S
O110 Cd100 2.297 . S
O110 C105 1.247 . S
O111 Cd100 2.439 . S
O111 C105 1.208 . S
O112 Cd113 2.223 . S
O112 C120 1.315 . S
Cd113 O112 2.223 . S
Cd113 O116 2.297 . S
Cd113 O117 2.439 . S
Cd113 O123 2.240 . S
Cd114 O115 2.240 . S
Cd114 O122 2.223 . S
Cd114 O124 2.297 . S
Cd114 O125 2.439 . S
O115 Cd114 2.240 . S
O115 C120 1.279 . S
O116 Cd113 2.297 . S
O116 C118 1.247 . S
O117 Cd113 2.439 . S
O117 C118 1.208 . S
C118 O116 1.247 . S
C118 O117 1.208 . S
C119 O124 1.247 . S
C119 O125 1.208 . S
C120 O112 1.315 . S
C120 O115 1.279 . S
C121 O122 1.315 . S
C121 O123 1.279 . S
O122 Cd114 2.223 . S
O122 C121 1.315 . S
O123 Cd113 2.240 . S
O123 C121 1.279 . S
O124 Cd114 2.297 . S
O124 C119 1.247 . S
O125 Cd114 2.439 . S
O125 C119 1.208 . S
O126 Cd127 2.223 . S
O126 C134 1.315 . S
Cd127 O126 2.223 . S
Cd127 O130 2.297 . S
Cd127 O131 2.439 . S
Cd127 O137 2.240 . S
Cd128 O129 2.240 . S
Cd128 O136 2.223 . S
Cd128 O138 2.297 . S
Cd128 O139 2.439 . S
O129 Cd128 2.240 . S
O129 C134 1.279 . S
O130 Cd127 2.297 . S
O130 C132 1.247 . S
O131 Cd127 2.439 . S
O131 C132 1.208 . S
C132 O130 1.247 . S
C132 O131 1.208 . S
C133 O138 1.247 . S
C133 O139 1.208 . S
C134 O126 1.315 . S
C134 O129 1.279 . S
C135 O136 1.315 . S
C135 O137 1.279 . S
O136 Cd128 2.223 . S
O136 C135 1.315 . S
O137 Cd127 2.240 . S
O137 C135 1.279 . S
O138 Cd128 2.297 . S
O138 C133 1.247 . S
O139 Cd128 2.439 . S
O139 C133 1.208 . S
O140 Cd141 2.223 . S
O140 C148 1.315 . S
Cd141 O140 2.223 . S
Cd141 O144 2.297 . S
Cd141 O145 2.439 . S
Cd141 O151 2.240 . S
Cd142 O143 2.240 . S
Cd142 O150 2.223 . S
Cd142 O152 2.297 . S
Cd142 O153 2.439 . S
O143 Cd142 2.240 . S
O143 C148 1.279 . S
O144 Cd141 2.297 . S
O144 C146 1.247 . S
O145 Cd141 2.439 . S
O145 C146 1.208 . S
C146 O144 1.247 . S
C146 O145 1.208 . S
C147 O152 1.247 . S
C147 O153 1.208 . S
C148 O140 1.315 . S
C148 O143 1.279 . S
C149 O150 1.315 . S
C149 O151 1.279 . S
O150 Cd142 2.223 . S
O150 C149 1.315 . S
O151 Cd141 2.240 . S
O151 C149 1.279 . S
O152 Cd142 2.297 . S
O152 C147 1.247 . S
O153 Cd142 2.439 . S
O153 C147 1.208 . S
O154 Cd155 2.223 . S
O154 C162 1.315 . S
Cd155 O154 2.223 . S
Cd155 O158 2.297 . S
Cd155 O159 2.439 . S
Cd155 O165 2.240 . S
Cd156 O157 2.240 . S
Cd156 O164 2.223 . S
Cd156 O166 2.297 . S
Cd156 O167 2.439 . S
O157 Cd156 2.240 . S
O157 C162 1.279 . S
O158 Cd155 2.297 . S
O158 C160 1.247 . S
O159 Cd155 2.439 . S
O159 C160 1.208 . S
C160 O158 1.247 . S
C160 O159 1.208 . S
C161 O166 1.247 . S
C161 O167 1.208 . S
C162 O154 1.315 . S
C162 O157 1.279 . S
C163 O164 1.315 . S
C163 O165 1.279 . S
O164 Cd156 2.223 . S
O164 C163 1.315 . S
O165 Cd155 2.240 . S
O165 C163 1.279 . S
O166 Cd156 2.297 . S
O166 C161 1.247 . S
O167 Cd156 2.439 . S
O167 C161 1.208 . S
O168 Cd169 2.223 . S
O168 C176 1.315 . S
Cd169 O168 2.223 . S
Cd169 O172 2.297 . S
Cd169 O173 2.439 . S
Cd169 O179 2.240 . S
Cd170 O171 2.240 . S
Cd170 O178 2.223 . S
Cd170 O180 2.297 . S
Cd170 O181 2.439 . S
O171 Cd170 2.240 . S
O171 C176 1.279 . S
O172 Cd169 2.297 . S
O172 C174 1.247 . S
O173 Cd169 2.439 . S
O173 C174 1.208 . S
C174 O172 1.247 . S
C174 O173 1.208 . S
C175 O180 1.247 . S
C175 O181 1.208 . S
C176 O168 1.315 . S
C176 O171 1.279 . S
C177 O178 1.315 . S
C177 O179 1.279 . S
O178 Cd170 2.223 . S
O178 C177 1.315 . S
O179 Cd169 2.240 . S
O179 C177 1.279 . S
O180 Cd170 2.297 . S
O180 C175 1.247 . S
O181 Cd170 2.439 . S
O181 C175 1.208 . S
O182 Cd183 2.223 . S
O182 C190 1.315 . S
Cd183 O182 2.223 . S
Cd183 O186 2.297 . S
Cd183 O187 2.439 . S
Cd183 O193 2.240 . S
Cd184 O185 2.240 . S
Cd184 O192 2.223 . S
Cd184 O194 2.297 . S
Cd184 O195 2.439 . S
O185 Cd184 2.240 . S
O185 C190 1.279 . S
O186 Cd183 2.297 . S
O186 C188 1.247 . S
O187 Cd183 2.439 . S
O187 C188 1.208 . S
C188 O186 1.247 . S
C188 O187 1.208 . S
C189 O194 1.247 . S
C189 O195 1.208 . S
C190 O182 1.315 . S
C190 O185 1.279 . S
C191 O192 1.315 . S
C191 O193 1.279 . S
O192 Cd184 2.223 . S
O192 C191 1.315 . S
O193 Cd183 2.240 . S
O193 C191 1.279 . S
O194 Cd184 2.297 . S
O194 C189 1.247 . S
O195 Cd184 2.439 . S
O195 C189 1.208 . S
O196 Cd197 2.223 . S
O196 C204 1.315 . S
Cd197 O196 2.223 . S
Cd197 O200 2.297 . S
Cd197 O201 2.439 . S
Cd197 O207 2.240 . S
Cd198 O199 2.240 . S
Cd198 O206 2.223 . S
Cd198 O208 2.297 . S
Cd198 O209 2.439 . S
O199 Cd198 2.240 . S
O199 C204 1.279 . S
O200 Cd197 2.297 . S
O200 C202 1.247 . S
O201 Cd197 2.439 . S
O201 C202 1.208 . S
C202 O200 1.247 . S
C202 O201 1.208 . S
C203 O208 1.247 . S
C203 O209 1.208 . S
C204 O196 1.315 . S
C204 O199 1.279 . S
C205 O206 1.315 . S
C205 O207 1.279 . S
O206 Cd198 2.223 . S
O206 C205 1.315 . S
O207 Cd197 2.240 . S
O207 C205 1.279 . S
O208 Cd198 2.297 . S
O208 C203 1.247 . S
O209 Cd198 2.439 . S
O209 C203 1.208 . S
O210 Cd211 2.223 . S
O210 C218 1.315 . S
Cd211 O210 2.223 . S
Cd211 O214 2.297 . S
Cd211 O215 2.439 . S
Cd211 O221 2.240 . S
Cd212 O213 2.240 . S
Cd212 O220 2.223 . S
Cd212 O222 2.297 . S
Cd212 O223 2.439 . S
O213 Cd212 2.240 . S
O213 C218 1.279 . S
O214 Cd211 2.297 . S
O214 C216 1.247 . S
O215 Cd211 2.439 . S
O215 C216 1.208 . S
C216 O214 1.247 . S
C216 O215 1.208 . S
C217 O222 1.247 . S
C217 O223 1.208 . S
C218 O210 1.315 . S
C218 O213 1.279 . S
C219 O220 1.315 . S
C219 O221 1.279 . S
O220 Cd212 2.223 . S
O220 C219 1.315 . S
O221 Cd211 2.240 . S
O221 C219 1.279 . S
O222 Cd212 2.297 . S
O222 C217 1.247 . S
O223 Cd212 2.439 . S
O223 C217 1.208 . S
O224 Cd225 2.223 . S
O224 C232 1.315 . S
Cd225 O224 2.223 . S
Cd225 O228 2.297 . S
Cd225 O229 2.439 . S
Cd225 O235 2.240 . S
Cd226 O227 2.240 . S
Cd226 O234 2.223 . S
Cd226 O236 2.297 . S
Cd226 O237 2.439 . S
O227 Cd226 2.240 . S
O227 C232 1.279 . S
O228 Cd225 2.297 . S
O228 C230 1.247 . S
O229 Cd225 2.439 . S
O229 C230 1.208 . S
C230 O228 1.247 . S
C230 O229 1.208 . S
C231 O236 1.247 . S
C231 O237 1.208 . S
C232 O224 1.315 . S
C232 O227 1.279 . S
C233 O234 1.315 . S
C233 O235 1.279 . S
O234 Cd226 2.223 . S
O234 C233 1.315 . S
O235 Cd225 2.240 . S
O235 C233 1.279 . S
O236 Cd226 2.297 . S
O236 C231 1.247 . S
O237 Cd226 2.439 . S
O237 C231 1.208 . S
O238 Cd239 2.223 . S
O238 C246 1.315 . S
Cd239 O238 2.223 . S
Cd239 O242 2.297 . S
Cd239 O243 2.439 . S
Cd239 O249 2.240 . S
Cd240 O241 2.240 . S
Cd240 O248 2.223 . S
Cd240 O250 2.297 . S
Cd240 O251 2.439 . S
O241 Cd240 2.240 . S
O241 C246 1.279 . S
O242 Cd239 2.297 . S
O242 C244 1.247 . S
O243 Cd239 2.439 . S
O243 C244 1.208 . S
C244 O242 1.247 . S
C244 O243 1.208 . S
C245 O250 1.247 . S
C245 O251 1.208 . S
C246 O238 1.315 . S
C246 O241 1.279 . S
C247 O248 1.315 . S
C247 O249 1.279 . S
O248 Cd240 2.223 . S
O248 C247 1.315 . S
O249 Cd239 2.240 . S
O249 C247 1.279 . S
O250 Cd240 2.297 . S
O250 C245 1.247 . S
O251 Cd240 2.439 . S
O251 C245 1.208 . S
O252 Cd253 2.223 . S
O252 C260 1.315 . S
Cd253 O252 2.223 . S
Cd253 O256 2.297 . S
Cd253 O257 2.439 . S
Cd253 O263 2.240 . S
Cd254 O255 2.240 . S
Cd254 O262 2.223 . S
Cd254 O264 2.297 . S
Cd254 O265 2.439 . S
O255 Cd254 2.240 . S
O255 C260 1.279 . S
O256 Cd253 2.297 . S
O256 C258 1.247 . S
O257 Cd253 2.439 . S
O257 C258 1.208 . S
C258 O256 1.247 . S
C258 O257 1.208 . S
C259 O264 1.247 . S
C259 O265 1.208 . S
C260 O252 1.315 . S
C260 O255 1.279 . S
C261 O262 1.315 . S
C261 O263 1.279 . S
O262 Cd254 2.223 . S
O262 C261 1.315 . S
O263 Cd253 2.240 . S
O263 C261 1.279 . S
O264 Cd254 2.297 . S
O264 C259 1.247 . S
O265 Cd254 2.439 . S
O265 C259 1.208 . S
O266 Cd267 2.223 . S
O266 C274 1.315 . S
Cd267 O266 2.223 . S
Cd267 O270 2.297 . S
Cd267 O271 2.439 . S
Cd267 O277 2.240 . S
Cd268 O269 2.240 . S
Cd268 O276 2.223 . S
Cd268 O278 2.297 . S
Cd268 O279 2.439 . S
O269 Cd268 2.240 . S
O269 C274 1.279 . S
O270 Cd267 2.297 . S
O270 C272 1.247 . S
O271 Cd267 2.439 . S
O271 C272 1.208 . S
C272 O270 1.247 . S
C272 O271 1.208 . S
C273 O278 1.247 . S
C273 O279 1.208 . S
C274 O266 1.315 . S
C274 O269 1.279 . S
C275 O276 1.315 . S
C275 O277 1.279 . S
O276 Cd268 2.223 . S
O276 C275 1.315 . S
O277 Cd267 2.240 . S
O277 C275 1.279 . S
O278 Cd268 2.297 . S
O278 C273 1.247 . S
O279 Cd268 2.439 . S
O279 C273 1.208 . S
O280 Cd281 2.223 . S
O280 C288 1.315 . S
Cd281 O280 2.223 . S
Cd281 O284 2.297 . S
Cd281 O285 2.439 . S
Cd281 O291 2.240 . S
Cd282 O283 2.240 . S
Cd282 O290 2.223 . S
Cd282 O292 2.297 . S
Cd282 O293 2.439 . S
O283 Cd282 2.240 . S
O283 C288 1.279 . S
O284 Cd281 2.297 . S
O284 C286 1.247 . S
O285 Cd281 2.439 . S
O285 C286 1.208 . S
C286 O284 1.247 . S
C286 O285 1.208 . S
C287 O292 1.247 . S
C287 O293 1.208 . S
C288 O280 1.315 . S
C288 O283 1.279 . S
C289 O290 1.315 . S
C289 O291 1.279 . S
O290 Cd282 2.223 . S
O290 C289 1.315 . S
O291 Cd281 2.240 . S
O291 C289 1.279 . S
O292 Cd282 2.297 . S
O292 C287 1.247 . S
O293 Cd282 2.439 . S
O293 C287 1.208 . S
O294 Cd295 2.223 1_556 S
O294 C302 1.315 1_556 S
Cd295 O294 2.223 1_554 S
Cd295 O298 2.297 . S
Cd295 O299 2.439 . S
Cd295 O305 2.240 . S
Cd296 O297 2.240 . S
Cd296 O304 2.223 . S
Cd296 O306 2.297 . S
Cd296 O307 2.439 . S
O297 Cd296 2.240 . S
O297 C302 1.279 . S
O298 Cd295 2.297 . S
O298 C300 1.247 . S
O299 Cd295 2.439 . S
O299 C300 1.208 . S
C300 O298 1.247 . S
C300 O299 1.208 . S
C301 O306 1.247 . S
C301 O307 1.208 . S
C302 O294 1.315 1_554 S
C302 O297 1.279 . S
C303 O304 1.315 . S
C303 O305 1.279 . S
O304 Cd296 2.223 . S
O304 C303 1.315 . S
O305 Cd295 2.240 . S
O305 C303 1.279 . S
O306 Cd296 2.297 . S
O306 C301 1.247 . S
O307 Cd296 2.439 . S
O307 C301 1.208 . S
O308 Cd309 2.223 1_556 S
O308 C316 1.315 . S
Cd309 O308 2.223 1_554 S
Cd309 O312 2.297 . S
Cd309 O313 2.439 . S
Cd309 O319 2.240 . S
Cd310 O311 2.240 . S
Cd310 O318 2.223 . S
Cd310 O320 2.297 . S
Cd310 O321 2.439 . S
O311 Cd310 2.240 . S
O311 C316 1.279 1_554 S
O312 Cd309 2.297 . S
O312 C314 1.247 . S
O313 Cd309 2.439 . S
O313 C314 1.208 . S
C314 O312 1.247 . S
C314 O313 1.208 . S
C315 O320 1.247 . S
C315 O321 1.208 . S
C316 O308 1.315 . S
C316 O311 1.279 1_556 S
C317 O318 1.315 . S
C317 O319 1.279 . S
O318 Cd310 2.223 . S
O318 C317 1.315 . S
O319 Cd309 2.240 . S
O319 C317 1.279 . S
O320 Cd310 2.297 . S
O320 C315 1.247 . S
O321 Cd310 2.439 . S
O321 C315 1.208 . S
O322 Cd323 2.223 1_556 S
O322 C330 1.315 . S
Cd323 O322 2.223 1_554 S
Cd323 O326 2.297 . S
Cd323 O327 2.439 . S
Cd323 O333 2.240 . S
Cd324 O325 2.240 . S
Cd324 O332 2.223 . S
Cd324 O334 2.297 . S
Cd324 O335 2.439 . S
O325 Cd324 2.240 . S
O325 C330 1.279 1_554 S
O326 Cd323 2.297 . S
O326 C328 1.247 . S
O327 Cd323 2.439 . S
O327 C328 1.208 . S
C328 O326 1.247 . S
C328 O327 1.208 . S
C329 O334 1.247 . S
C329 O335 1.208 . S
C330 O322 1.315 . S
C330 O325 1.279 1_556 S
C331 O332 1.315 . S
C331 O333 1.279 . S
O332 Cd324 2.223 . S
O332 C331 1.315 . S
O333 Cd323 2.240 . S
O333 C331 1.279 . S
O334 Cd324 2.297 . S
O334 C329 1.247 . S
O335 Cd324 2.439 . S
O335 C329 1.208 . S
O336 Cd337 2.223 . S
O336 C344 1.315 . S
Cd337 O336 2.223 . S
Cd337 O340 2.297 . S
Cd337 O341 2.439 . S
Cd337 O347 2.240 . S
Cd338 O339 2.240 . S
Cd338 O346 2.223 . S
Cd338 O348 2.297 . S
Cd338 O349 2.439 . S
O339 Cd338 2.240 . S
O339 C344 1.279 . S
O340 Cd337 2.297 . S
O340 C342 1.247 . S
O341 Cd337 2.439 . S
O341 C342 1.208 . S
C342 O340 1.247 . S
C342 O341 1.208 . S
C343 O348 1.247 . S
C343 O349 1.208 . S
C344 O336 1.315 . S
C344 O339 1.279 . S
C345 O346 1.315 . S
C345 O347 1.279 . S
O346 Cd338 2.223 . S
O346 C345 1.315 . S
O347 Cd337 2.240 . S
O347 C345 1.279 . S
O348 Cd338 2.297 . S
O348 C343 1.247 . S
O349 Cd338 2.439 . S
O349 C343 1.208 . S
O350 Cd351 2.223 . S
O350 C358 1.315 . S
Cd351 O350 2.223 . S
Cd351 O354 2.297 . S
Cd351 O355 2.439 . S
Cd351 O361 2.240 . S
Cd352 O353 2.240 . S
Cd352 O360 2.223 . S
Cd352 O362 2.297 . S
Cd352 O363 2.439 . S
O353 Cd352 2.240 . S
O353 C358 1.279 . S
O354 Cd351 2.297 . S
O354 C356 1.247 . S
O355 Cd351 2.439 . S
O355 C356 1.208 . S
C356 O354 1.247 . S
C356 O355 1.208 . S
C357 O362 1.247 . S
C357 O363 1.208 . S
C358 O350 1.315 . S
C358 O353 1.279 . S
C359 O360 1.315 . S
C359 O361 1.279 . S
O360 Cd352 2.223 . S
O360 C359 1.315 . S
O361 Cd351 2.240 . S
O361 C359 1.279 . S
O362 Cd352 2.297 . S
O362 C357 1.247 . S
O363 Cd352 2.439 . S
O363 C357 1.208 . S
O364 Cd365 2.223 . S
O364 C372 1.315 . S
Cd365 O364 2.223 . S
Cd365 O368 2.297 . S
Cd365 O369 2.439 . S
Cd365 O375 2.240 . S
Cd366 O367 2.240 . S
Cd366 O374 2.223 . S
Cd366 O376 2.297 . S
Cd366 O377 2.439 . S
O367 Cd366 2.240 . S
O367 C372 1.279 . S
O368 Cd365 2.297 . S
O368 C370 1.247 . S
O369 Cd365 2.439 . S
O369 C370 1.208 . S
C370 O368 1.247 . S
C370 O369 1.208 . S
C371 O376 1.247 . S
C371 O377 1.208 . S
C372 O364 1.315 . S
C372 O367 1.279 . S
C373 O374 1.315 . S
C373 O375 1.279 . S
O374 Cd366 2.223 . S
O374 C373 1.315 . S
O375 Cd365 2.240 . S
O375 C373 1.279 . S
O376 Cd366 2.297 . S
O376 C371 1.247 . S
O377 Cd366 2.439 . S
O377 C371 1.208 . S
O378 Cd379 2.223 1_554 S
O378 C386 1.315 1_554 S
Cd379 O378 2.223 1_556 S
Cd379 O382 2.297 . S
Cd379 O383 2.439 . S
Cd379 O389 2.240 . S
Cd380 O381 2.240 . S
Cd380 O388 2.223 . S
Cd380 O390 2.297 . S
Cd380 O391 2.439 . S
O381 Cd380 2.240 . S
O381 C386 1.279 . S
O382 Cd379 2.297 . S
O382 C384 1.247 . S
O383 Cd379 2.439 . S
O383 C384 1.208 . S
C384 O382 1.247 . S
C384 O383 1.208 . S
C385 O390 1.247 . S
C385 O391 1.208 . S
C386 O378 1.315 1_556 S
C386 O381 1.279 . S
C387 O388 1.315 . S
C387 O389 1.279 . S
O388 Cd380 2.223 . S
O388 C387 1.315 . S
O389 Cd379 2.240 . S
O389 C387 1.279 . S
O390 Cd380 2.297 . S
O390 C385 1.247 . S
O391 Cd380 2.439 . S
O391 C385 1.208 . S
O392 Cd393 2.223 1_554 S
O392 C400 1.315 . S
Cd393 O392 2.223 1_556 S
Cd393 O396 2.297 . S
Cd393 O397 2.439 . S
Cd393 O403 2.240 . S
Cd394 O395 2.240 . S
Cd394 O402 2.223 . S
Cd394 O404 2.297 . S
Cd394 O405 2.439 . S
O395 Cd394 2.240 . S
O395 C400 1.279 1_556 S
O396 Cd393 2.297 . S
O396 C398 1.247 . S
O397 Cd393 2.439 . S
O397 C398 1.208 . S
C398 O396 1.247 . S
C398 O397 1.208 . S
C399 O404 1.247 . S
C399 O405 1.208 . S
C400 O392 1.315 . S
C400 O395 1.279 1_554 S
C401 O402 1.315 . S
C401 O403 1.279 . S
O402 Cd394 2.223 . S
O402 C401 1.315 . S
O403 Cd393 2.240 . S
O403 C401 1.279 . S
O404 Cd394 2.297 . S
O404 C399 1.247 . S
O405 Cd394 2.439 . S
O405 C399 1.208 . S
O406 Cd407 2.223 1_554 S
O406 C414 1.315 . S
Cd407 O406 2.223 1_556 S
Cd407 O410 2.297 . S
Cd407 O411 2.439 . S
Cd407 O417 2.240 . S
Cd408 O409 2.240 . S
Cd408 O416 2.223 . S
Cd408 O418 2.297 . S
Cd408 O419 2.439 . S
O409 Cd408 2.240 . S
O409 C414 1.279 1_556 S
O410 Cd407 2.297 . S
O410 C412 1.247 . S
O411 Cd407 2.439 . S
O411 C412 1.208 . S
C412 O410 1.247 . S
C412 O411 1.208 . S
C413 O418 1.247 . S
C413 O419 1.208 . S
C414 O406 1.315 . S
C414 O409 1.279 1_554 S
C415 O416 1.315 . S
C415 O417 1.279 . S
O416 Cd408 2.223 . S
O416 C415 1.315 . S
O417 Cd407 2.240 . S
O417 C415 1.279 . S
O418 Cd408 2.297 . S
O418 C413 1.247 . S
O419 Cd408 2.439 . S
O419 C413 1.208 . S
O420 Cd421 2.223 . S
O420 C428 1.315 . S
Cd421 O420 2.223 . S
Cd421 O424 2.297 . S
Cd421 O425 2.439 . S
Cd421 O431 2.240 . S
Cd422 O423 2.240 . S
Cd422 O430 2.223 . S
Cd422 O432 2.297 . S
Cd422 O433 2.439 . S
O423 Cd422 2.240 . S
O423 C428 1.279 . S
O424 Cd421 2.297 . S
O424 C426 1.247 . S
O425 Cd421 2.439 . S
O425 C426 1.208 . S
C426 O424 1.247 . S
C426 O425 1.208 . S
C427 O432 1.247 . S
C427 O433 1.208 . S
C428 O420 1.315 . S
C428 O423 1.279 . S
C429 O430 1.315 . S
C429 O431 1.279 . S
O430 Cd422 2.223 . S
O430 C429 1.315 . S
O431 Cd421 2.240 . S
O431 C429 1.279 . S
O432 Cd422 2.297 . S
O432 C427 1.247 . S
O433 Cd422 2.439 . S
O433 C427 1.208 . S
O434 Cd435 2.223 . S
O434 C442 1.315 . S
Cd435 O434 2.223 . S
Cd435 O438 2.297 . S
Cd435 O439 2.439 . S
Cd435 O445 2.240 . S
Cd436 O437 2.240 . S
Cd436 O444 2.223 . S
Cd436 O446 2.297 . S
Cd436 O447 2.439 . S
O437 Cd436 2.240 . S
O437 C442 1.279 . S
O438 Cd435 2.297 . S
O438 C440 1.247 . S
O439 Cd435 2.439 . S
O439 C440 1.208 . S
C440 O438 1.247 . S
C440 O439 1.208 . S
C441 O446 1.247 . S
C441 O447 1.208 . S
C442 O434 1.315 . S
C442 O437 1.279 . S
C443 O444 1.315 . S
C443 O445 1.279 . S
O444 Cd436 2.223 . S
O444 C443 1.315 . S
O445 Cd435 2.240 . S
O445 C443 1.279 . S
O446 Cd436 2.297 . S
O446 C441 1.247 . S
O447 Cd436 2.439 . S
O447 C441 1.208 . S
O448 Cd449 2.223 . S
O448 C456 1.315 . S
Cd449 O448 2.223 . S
Cd449 O452 2.297 . S
Cd449 O453 2.439 . S
Cd449 O459 2.240 . S
Cd450 O451 2.240 . S
Cd450 O458 2.223 . S
Cd450 O460 2.297 . S
Cd450 O461 2.439 . S
O451 Cd450 2.240 . S
O451 C456 1.279 . S
O452 Cd449 2.297 . S
O452 C454 1.247 . S
O453 Cd449 2.439 . S
O453 C454 1.208 . S
C454 O452 1.247 . S
C454 O453 1.208 . S
C455 O460 1.247 . S
C455 O461 1.208 . S
C456 O448 1.315 . S
C456 O451 1.279 . S
C457 O458 1.315 . S
C457 O459 1.279 . S
O458 Cd450 2.223 . S
O458 C457 1.315 . S
O459 Cd449 2.240 . S
O459 C457 1.279 . S
O460 Cd450 2.297 . S
O460 C455 1.247 . S
O461 Cd450 2.439 . S
O461 C455 1.208 . S
O462 Cd463 2.223 . S
O462 C470 1.315 . S
Cd463 O462 2.223 . S
Cd463 O466 2.297 . S
Cd463 O467 2.439 . S
Cd463 O473 2.240 . S
Cd464 O465 2.240 . S
Cd464 O472 2.223 . S
Cd464 O474 2.297 . S
Cd464 O475 2.439 . S
O465 Cd464 2.240 . S
O465 C470 1.279 . S
O466 Cd463 2.297 . S
O466 C468 1.247 . S
O467 Cd463 2.439 . S
O467 C468 1.208 . S
C468 O466 1.247 . S
C468 O467 1.208 . S
C469 O474 1.247 . S
C469 O475 1.208 . S
C470 O462 1.315 . S
C470 O465 1.279 . S
C471 O472 1.315 . S
C471 O473 1.279 . S
O472 Cd464 2.223 . S
O472 C471 1.315 . S
O473 Cd463 2.240 . S
O473 C471 1.279 . S
O474 Cd464 2.297 . S
O474 C469 1.247 . S
O475 Cd464 2.439 . S
O475 C469 1.208 . S
O476 Cd477 2.223 . S
O476 C484 1.315 . S
Cd477 O476 2.223 . S
Cd477 O480 2.297 . S
Cd477 O481 2.439 . S
Cd477 O487 2.240 . S
Cd478 O479 2.240 . S
Cd478 O486 2.223 . S
Cd478 O488 2.297 . S
Cd478 O489 2.439 . S
O479 Cd478 2.240 . S
O479 C484 1.279 . S
O480 Cd477 2.297 . S
O480 C482 1.247 . S
O481 Cd477 2.439 . S
O481 C482 1.208 . S
C482 O480 1.247 . S
C482 O481 1.208 . S
C483 O488 1.247 . S
C483 O489 1.208 . S
C484 O476 1.315 . S
C484 O479 1.279 . S
C485 O486 1.315 . S
C485 O487 1.279 . S
O486 Cd478 2.223 . S
O486 C485 1.315 . S
O487 Cd477 2.240 . S
O487 C485 1.279 . S
O488 Cd478 2.297 . S
O488 C483 1.247 . S
O489 Cd478 2.439 . S
O489 C483 1.208 . S
O490 Cd491 2.223 . S
O490 C498 1.315 . S
Cd491 O490 2.223 . S
Cd491 O494 2.297 . S
Cd491 O495 2.439 . S
Cd491 O501 2.240 . S
Cd492 O493 2.240 . S
Cd492 O500 2.223 . S
Cd492 O502 2.297 . S
Cd492 O503 2.439 . S
O493 Cd492 2.240 . S
O493 C498 1.279 . S
O494 Cd491 2.297 . S
O494 C496 1.247 . S
O495 Cd491 2.439 . S
O495 C496 1.208 . S
C496 O494 1.247 . S
C496 O495 1.208 . S
C497 O502 1.247 . S
C497 O503 1.208 . S
C498 O490 1.315 . S
C498 O493 1.279 . S
C499 O500 1.315 . S
C499 O501 1.279 . S
O500 Cd492 2.223 . S
O500 C499 1.315 . S
O501 Cd491 2.240 . S
O501 C499 1.279 . S
O502 Cd492 2.297 . S
O502 C497 1.247 . S
O503 Cd492 2.439 . S
O503 C497 1.208 . S
C504 C505 1.369 . S
C504 C506 1.419 . S
C504 H508 0.930 . S
C505 C504 1.369 . S
C505 C514 1.429 . S
C506 C504 1.419 . S
C506 C507 1.363 . S
C506 H509 0.929 . S
C507 C506 1.363 . S
C507 C513 1.428 . S
H508 C504 0.930 . S
H509 C506 0.929 . S
S510 N511 1.613 . S
S510 N512 1.610 . S
N511 S510 1.613 . S
N511 C514 1.350 . S
N512 S510 1.610 . S
N512 C513 1.351 . S
C513 C507 1.428 . S
C513 N512 1.351 . S
C513 C514 1.434 . S
C514 C505 1.429 . S
C514 N511 1.350 . S
C514 C513 1.434 . S
C515 C516 1.369 1_565 S
C515 C517 1.419 . S
C515 H519 0.930 . S
C516 C515 1.369 1_545 S
C516 C525 1.429 . S
C517 C515 1.419 . S
C517 C518 1.363 . S
C517 H520 0.929 . S
C518 C517 1.363 . S
C518 C524 1.428 . S
H519 C515 0.930 . S
H520 C517 0.929 . S
S521 N522 1.613 . S
S521 N523 1.610 1_545 S
N522 S521 1.613 . S
N522 C525 1.350 . S
N523 S521 1.610 1_565 S
N523 C524 1.351 . S
C524 C518 1.428 . S
C524 N523 1.351 . S
C524 C525 1.434 1_565 S
C525 C516 1.429 . S
C525 N522 1.350 . S
C525 C524 1.434 1_545 S
C526 C527 1.369 . S
C526 C528 1.426 . S
C526 H530 0.930 . S
C527 C526 1.369 . S
C527 C536 1.429 . S
C528 C526 1.426 . S
C528 C529 1.355 1_655 S
C528 H531 0.930 1_655 S
C529 C528 1.355 1_455 S
C529 C535 1.428 . S
H530 C526 0.930 . S
H531 C528 0.930 1_455 S
S532 N533 1.644 . S
S532 N534 1.602 1_655 S
N533 S532 1.644 . S
N533 C536 1.350 . S
N534 S532 1.602 1_455 S
N534 C535 1.351 . S
C535 C529 1.428 . S
C535 N534 1.351 . S
C535 C536 1.434 1_455 S
C536 C527 1.429 . S
C536 N533 1.350 . S
C536 C535 1.434 1_655 S
C537 C538 1.369 . S
C537 C539 1.419 . S
C537 H541 0.930 . S
C538 C537 1.369 . S
C538 C547 1.429 . S
C539 C537 1.419 . S
C539 C540 1.363 . S
C539 H542 0.929 . S
C540 C539 1.363 . S
C540 C546 1.428 . S
H541 C537 0.930 . S
H542 C539 0.929 . S
S543 N544 1.613 . S
S543 N545 1.610 . S
N544 S543 1.613 . S
N544 C547 1.350 . S
N545 S543 1.610 . S
N545 C546 1.351 . S
C546 C540 1.428 . S
C546 N545 1.351 . S
C546 C547 1.434 . S
C547 C538 1.429 . S
C547 N544 1.350 . S
C547 C546 1.434 . S
C548 C549 1.369 . S
C548 C550 1.449 . S
C548 H552 0.930 . S
C549 C548 1.369 . S
C549 C558 1.429 . S
C550 C548 1.449 . S
C550 C551 1.328 1_545 S
C550 H553 0.935 1_545 S
C551 C550 1.328 1_565 S
C551 C557 1.428 . S
H552 C548 0.930 . S
H553 C550 0.935 1_565 S
S554 N555 1.613 1_565 S
S554 N556 1.610 . S
N555 S554 1.613 1_545 S
N555 C558 1.350 . S
N556 S554 1.610 . S
N556 C557 1.351 . S
C557 C551 1.428 . S
C557 N556 1.351 . S
C557 C558 1.434 1_565 S
C558 C549 1.429 . S
C558 N555 1.350 . S
C558 C557 1.434 1_545 S
C559 C560 1.369 . S
C559 C561 1.419 1_455 S
C559 H563 0.930 . S
C560 C559 1.369 . S
C560 C569 1.429 . S
C561 C559 1.419 1_655 S
C561 C562 1.363 . S
C561 H564 0.929 . S
C562 C561 1.363 . S
C562 C568 1.428 1_655 S
H563 C559 0.930 . S
H564 C561 0.929 . S
S565 N566 1.613 . S
S565 N567 1.610 1_455 S
N566 S565 1.613 . S
N566 C569 1.350 . S
N567 S565 1.610 1_655 S
N567 C568 1.351 1_655 S
C568 C562 1.428 1_455 S
C568 N567 1.351 1_455 S
C568 C569 1.434 . S
C569 C560 1.429 . S
C569 N566 1.350 . S
C569 C568 1.434 . S
C570 C571 1.369 . S
C570 C572 1.419 . S
C570 H574 0.930 . S
C571 C570 1.369 . S
C571 C580 1.429 . S
C572 C570 1.419 . S
C572 C573 1.363 . S
C572 H575 0.929 . S
C573 C572 1.363 . S
C573 C579 1.428 . S
H574 C570 0.930 . S
H575 C572 0.929 . S
S576 N577 1.613 . S
S576 N578 1.610 . S
N577 S576 1.613 . S
N577 C580 1.350 . S
N578 S576 1.610 . S
N578 C579 1.351 . S
C579 C573 1.428 . S
C579 N578 1.351 . S
C579 C580 1.434 . S
C580 C571 1.429 . S
C580 N577 1.350 . S
C580 C579 1.434 . S
C581 C582 1.369 . S
C581 C583 1.419 . S
C581 H585 0.930 . S
C582 C581 1.369 . S
C582 C591 1.429 . S
C583 C581 1.419 . S
C583 C584 1.363 . S
C583 H586 0.929 . S
C584 C583 1.363 . S
C584 C590 1.428 . S
H585 C581 0.930 . S
H586 C583 0.929 . S
S587 N588 1.613 . S
S587 N589 1.610 . S
N588 S587 1.613 . S
N588 C591 1.350 . S
N589 S587 1.610 . S
N589 C590 1.351 . S
C590 C584 1.428 . S
C590 N589 1.351 . S
C590 C591 1.434 . S
C591 C582 1.429 . S
C591 N588 1.350 . S
C591 C590 1.434 . S
C592 C593 1.369 . S
C592 C594 1.419 . S
C592 H596 0.930 . S
C593 C592 1.369 . S
C593 C602 1.429 . S
C594 C592 1.419 . S
C594 C595 1.363 . S
C594 H597 0.929 . S
C595 C594 1.363 . S
C595 C601 1.428 . S
H596 C592 0.930 . S
H597 C594 0.929 . S
S598 N599 1.613 . S
S598 N600 1.610 . S
N599 S598 1.613 . S
N599 C602 1.350 . S
N600 S598 1.610 . S
N600 C601 1.351 . S
C601 C595 1.428 . S
C601 N600 1.351 . S
C601 C602 1.434 . S
C602 C593 1.429 . S
C602 N599 1.350 . S
C602 C601 1.434 . S
C603 C604 1.369 . S
C603 C605 1.419 . S
C603 H607 0.930 . S
C604 C603 1.369 . S
C604 C613 1.429 . S
C605 C603 1.419 . S
C605 C606 1.363 . S
C605 H608 0.929 . S
C606 C605 1.363 . S
C606 C612 1.428 . S
H607 C603 0.930 . S
H608 C605 0.929 . S
S609 N610 1.613 . S
S609 N611 1.610 . S
N610 S609 1.613 . S
N610 C613 1.350 . S
N611 S609 1.610 . S
N611 C612 1.351 . S
C612 C606 1.428 . S
C612 N611 1.351 . S
C612 C613 1.434 . S
C613 C604 1.429 . S
C613 N610 1.350 . S
C613 C612 1.434 . S
C614 C615 1.369 . S
C614 C616 1.419 . S
C614 H618 0.930 . S
C615 C614 1.369 . S
C615 C624 1.429 . S
C616 C614 1.419 . S
C616 C617 1.363 . S
C616 H619 0.929 . S
C617 C616 1.363 . S
C617 C623 1.428 . S
H618 C614 0.930 . S
H619 C616 0.929 . S
S620 N621 1.613 1_556 S
S620 N622 1.610 1_556 S
N621 S620 1.613 1_554 S
N621 C624 1.350 . S
N622 S620 1.610 1_554 S
N622 C623 1.351 . S
C623 C617 1.428 . S
C623 N622 1.351 . S
C623 C624 1.434 . S
C624 C615 1.429 . S
C624 N621 1.350 . S
C624 C623 1.434 . S
C625 C626 1.369 . S
C625 C627 1.419 . S
C625 H629 0.930 . S
C626 C625 1.369 . S
C626 C635 1.429 . S
C627 C625 1.419 . S
C627 C628 1.363 . S
C627 H630 0.929 . S
C628 C627 1.363 . S
C628 C634 1.428 . S
H629 C625 0.930 . S
H630 C627 0.929 . S
S631 N632 1.613 . S
S631 N633 1.610 . S
N632 S631 1.613 . S
N632 C635 1.350 . S
N633 S631 1.610 . S
N633 C634 1.351 . S
C634 C628 1.428 . S
C634 N633 1.351 . S
C634 C635 1.434 . S
C635 C626 1.429 . S
C635 N632 1.350 . S
C635 C634 1.434 . S
C636 C637 1.369 . S
C636 C638 1.419 . S
C636 H640 0.930 . S
C637 C636 1.369 . S
C637 C646 1.429 . S
C638 C636 1.419 . S
C638 C639 1.363 . S
C638 H641 0.929 . S
C639 C638 1.363 . S
C639 C645 1.428 . S
H640 C636 0.930 . S
H641 C638 0.929 . S
S642 N643 1.613 . S
S642 N644 1.610 . S
N643 S642 1.613 . S
N643 C646 1.350 . S
N644 S642 1.610 . S
N644 C645 1.351 . S
C645 C639 1.428 . S
C645 N644 1.351 . S
C645 C646 1.434 . S
C646 C637 1.429 . S
C646 N643 1.350 . S
C646 C645 1.434 . S
C647 C648 1.369 . S
C647 C649 1.419 . S
C647 H651 0.930 . S
C648 C647 1.369 . S
C648 C657 1.429 . S
C649 C647 1.419 . S
C649 C650 1.363 . S
C649 H652 0.929 . S
C650 C649 1.363 . S
C650 C656 1.428 . S
H651 C647 0.930 . S
H652 C649 0.929 . S
S653 N654 1.613 . S
S653 N655 1.610 . S
N654 S653 1.613 . S
N654 C657 1.350 . S
N655 S653 1.610 . S
N655 C656 1.351 . S
C656 C650 1.428 . S
C656 N655 1.351 . S
C656 C657 1.434 . S
C657 C648 1.429 . S
C657 N654 1.350 . S
C657 C656 1.434 . S
C658 C659 1.369 . S
C658 C660 1.419 . S
C658 H662 0.930 . S
C659 C658 1.369 . S
C659 C668 1.429 . S
C660 C658 1.419 . S
C660 C661 1.363 . S
C660 H663 0.929 . S
C661 C660 1.363 . S
C661 C667 1.428 . S
H662 C658 0.930 . S
H663 C660 0.929 . S
S664 N665 1.613 . S
S664 N666 1.610 . S
N665 S664 1.613 . S
N665 C668 1.350 . S
N666 S664 1.610 . S
N666 C667 1.351 . S
C667 C661 1.428 . S
C667 N666 1.351 . S
C667 C668 1.434 . S
C668 C659 1.429 . S
C668 N665 1.350 . S
C668 C667 1.434 . S
C669 C670 1.369 . S
C669 C671 1.419 . S
C669 H673 0.930 . S
C670 C669 1.369 . S
C670 C679 1.429 . S
C671 C669 1.419 . S
C671 C672 1.363 . S
C671 H674 0.929 . S
C672 C671 1.363 . S
C672 C678 1.428 . S
H673 C669 0.930 . S
H674 C671 0.929 . S
S675 N676 1.613 . S
S675 N677 1.610 . S
N676 S675 1.613 . S
N676 C679 1.350 . S
N677 S675 1.610 . S
N677 C678 1.351 . S
C678 C672 1.428 . S
C678 N677 1.351 . S
C678 C679 1.434 . S
C679 C670 1.429 . S
C679 N676 1.350 . S
C679 C678 1.434 . S
C680 C681 1.369 . S
C680 C682 1.419 . S
C680 H684 0.930 . S
C681 C680 1.369 . S
C681 C690 1.429 . S
C682 C680 1.419 . S
C682 C683 1.363 . S
C682 H685 0.929 . S
C683 C682 1.363 . S
C683 C689 1.428 . S
H684 C680 0.930 . S
H685 C682 0.929 . S
S686 N687 1.613 . S
S686 N688 1.610 . S
N687 S686 1.613 . S
N687 C690 1.350 . S
N688 S686 1.610 . S
N688 C689 1.351 . S
C689 C683 1.428 . S
C689 N688 1.351 . S
C689 C690 1.434 . S
C690 C681 1.429 . S
C690 N687 1.350 . S
C690 C689 1.434 . S
C691 C692 1.369 . S
C691 C693 1.419 . S
C691 H695 0.930 . S
C692 C691 1.369 . S
C692 C701 1.429 . S
C693 C691 1.419 . S
C693 C694 1.363 . S
C693 H696 0.929 . S
C694 C693 1.363 . S
C694 C700 1.428 . S
H695 C691 0.930 . S
H696 C693 0.929 . S
S697 N698 1.613 . S
S697 N699 1.610 . S
N698 S697 1.613 . S
N698 C701 1.350 . S
N699 S697 1.610 . S
N699 C700 1.351 . S
C700 C694 1.428 . S
C700 N699 1.351 . S
C700 C701 1.434 . S
C701 C692 1.429 . S
C701 N698 1.350 . S
C701 C700 1.434 . S
C702 C703 1.369 . S
C702 C704 1.419 . S
C702 H706 0.930 . S
C703 C702 1.369 . S
C703 C712 1.429 . S
C704 C702 1.419 . S
C704 C705 1.363 1_556 S
C704 H707 0.929 . S
C705 C704 1.363 1_554 S
C705 C711 1.428 . S
H706 C702 0.930 . S
H707 C704 0.929 . S
S708 N709 1.613 . S
S708 N710 1.610 . S
N709 S708 1.613 . S
N709 C712 1.350 1_554 S
N710 S708 1.610 . S
N710 C711 1.351 . S
C711 C705 1.428 . S
C711 N710 1.351 . S
C711 C712 1.434 1_554 S
C712 C703 1.429 . S
C712 N709 1.350 1_556 S
C712 C711 1.434 1_556 S
C713 C714 1.369 . S
C713 C715 1.419 1_554 S
C713 H717 0.930 . S
C714 C713 1.369 . S
C714 C723 1.429 . S
C715 C713 1.419 1_556 S
C715 C716 1.363 . S
C715 H718 0.929 . S
C716 C715 1.363 . S
C716 C722 1.428 . S
H717 C713 0.930 . S
H718 C715 0.929 . S
S719 N720 1.613 1_556 S
S719 N721 1.610 . S
N720 S719 1.613 1_554 S
N720 C723 1.350 . S
N721 S719 1.610 . S
N721 C722 1.351 . S
C722 C716 1.428 . S
C722 N721 1.351 . S
C722 C723 1.434 1_556 S
C723 C714 1.429 . S
C723 N720 1.350 . S
C723 C722 1.434 1_554 S
C724 C725 1.369 . S
C724 C726 1.419 . S
C724 H728 0.930 . S
C725 C724 1.369 . S
C725 C734 1.429 . S
C726 C724 1.419 . S
C726 C727 1.363 1_554 S
C726 H729 0.929 1_554 S
C727 C726 1.363 1_556 S
C727 C733 1.428 1_556 S
H728 C724 0.930 . S
H729 C726 0.929 1_556 S
S730 N731 1.613 . S
S730 N732 1.610 . S
N731 S730 1.613 . S
N731 C734 1.350 . S
N732 S730 1.610 . S
N732 C733 1.351 . S
C733 C727 1.428 1_554 S
C733 N732 1.351 . S
C733 C734 1.434 . S
C734 C725 1.429 . S
C734 N731 1.350 . S
C734 C733 1.434 . S
C735 C736 1.369 . S
C735 C737 1.419 . S
C735 H739 0.930 . S
C736 C735 1.369 . S
C736 C745 1.429 . S
C737 C735 1.419 . S
C737 C738 1.363 . S
C737 H740 0.929 . S
C738 C737 1.363 . S
C738 C744 1.428 . S
H739 C735 0.930 . S
H740 C737 0.929 . S
S741 N742 1.613 . S
S741 N743 1.610 . S
N742 S741 1.613 . S
N742 C745 1.350 . S
N743 S741 1.610 . S
N743 C744 1.351 . S
C744 C738 1.428 . S
C744 N743 1.351 . S
C744 C745 1.434 . S
C745 C736 1.429 . S
C745 N742 1.350 . S
C745 C744 1.434 . S
C746 C747 1.369 . S
C746 C748 1.419 . S
C746 H750 0.930 . S
C747 C746 1.369 . S
C747 C756 1.429 . S
C748 C746 1.419 . S
C748 C749 1.363 . S
C748 H751 0.929 . S
C749 C748 1.363 . S
C749 C755 1.428 . S
H750 C746 0.930 . S
H751 C748 0.929 . S
S752 N753 1.613 . S
S752 N754 1.610 . S
N753 S752 1.613 . S
N753 C756 1.350 . S
N754 S752 1.610 . S
N754 C755 1.351 . S
C755 C749 1.428 . S
C755 N754 1.351 . S
C755 C756 1.434 . S
C756 C747 1.429 . S
C756 N753 1.350 . S
C756 C755 1.434 . S
C757 C758 1.369 . S
C757 C759 1.419 . S
C757 H761 0.930 . S
C758 C757 1.369 . S
C758 C767 1.429 . S
C759 C757 1.419 . S
C759 C760 1.363 . S
C759 H762 0.929 . S
C760 C759 1.363 . S
C760 C766 1.428 . S
H761 C757 0.930 . S
H762 C759 0.929 . S
S763 N764 1.613 . S
S763 N765 1.610 . S
N764 S763 1.613 . S
N764 C767 1.350 . S
N765 S763 1.610 . S
N765 C766 1.351 . S
C766 C760 1.428 . S
C766 N765 1.351 . S
C766 C767 1.434 . S
C767 C758 1.429 . S
C767 N764 1.350 . S
C767 C766 1.434 . S
C768 C769 1.369 1_554 S
C768 C770 1.419 . S
C768 H772 0.930 . S
C769 C768 1.369 1_556 S
C769 C778 1.429 . S
C770 C768 1.419 . S
C770 C771 1.363 . S
C770 H773 0.929 . S
C771 C770 1.363 . S
C771 C777 1.428 1_554 S
H772 C768 0.930 . S
H773 C770 0.929 . S
S774 N775 1.613 . S
S774 N776 1.610 . S
N775 S774 1.613 . S
N775 C778 1.350 . S
N776 S774 1.610 . S
N776 C777 1.351 . S
C777 C771 1.428 1_556 S
C777 N776 1.351 . S
C777 C778 1.434 . S
C778 C769 1.429 . S
C778 N775 1.350 . S
C778 C777 1.434 . S
C779 C780 1.369 . S
C779 C781 1.419 1_556 S
C779 H783 0.930 . S
C780 C779 1.369 . S
C780 C789 1.429 1_556 S
C781 C779 1.419 1_554 S
C781 C782 1.363 . S
C781 H784 0.929 . S
C782 C781 1.363 . S
C782 C788 1.428 . S
H783 C779 0.930 . S
H784 C781 0.929 . S
S785 N786 1.613 . S
S785 N787 1.610 . S
N786 S785 1.613 . S
N786 C789 1.350 . S
N787 S785 1.610 . S
N787 C788 1.351 . S
C788 C782 1.428 . S
C788 N787 1.351 . S
C788 C789 1.434 . S
C789 C780 1.429 1_554 S
C789 N786 1.350 . S
C789 C788 1.434 . S
C790 C791 1.369 1_556 S
C790 C792 1.419 . S
C790 H794 0.930 . S
C791 C790 1.369 1_554 S
C791 C800 1.429 . S
C792 C790 1.419 . S
C792 C793 1.363 . S
C792 H795 0.929 . S
C793 C792 1.363 . S
C793 C799 1.428 . S
H794 C790 0.930 . S
H795 C792 0.929 . S
S796 N797 1.613 . S
S796 N798 1.610 1_554 S
N797 S796 1.613 . S
N797 C800 1.350 . S
N798 S796 1.610 1_556 S
N798 C799 1.351 . S
C799 C793 1.428 . S
C799 N798 1.351 . S
C799 C800 1.434 1_556 S
C800 C791 1.429 . S
C800 N797 1.350 . S
C800 C799 1.434 1_554 S
C801 C802 1.369 . S
C801 C803 1.419 . S
C801 H805 0.930 . S
C802 C801 1.369 . S
C802 C811 1.429 . S
C803 C801 1.419 . S
C803 C804 1.363 . S
C803 H806 0.929 . S
C804 C803 1.363 . S
C804 C810 1.428 . S
H805 C801 0.930 . S
H806 C803 0.929 . S
S807 N808 1.613 . S
S807 N809 1.610 . S
N808 S807 1.613 . S
N808 C811 1.350 . S
N809 S807 1.610 . S
N809 C810 1.351 . S
C810 C804 1.428 . S
C810 N809 1.351 . S
C810 C811 1.434 . S
C811 C802 1.429 . S
C811 N808 1.350 . S
C811 C810 1.434 . S
C812 C813 1.369 . S
C812 C814 1.419 . S
C812 H816 0.930 . S
C813 C812 1.369 . S
C813 C822 1.429 . S
C814 C812 1.419 . S
C814 C815 1.363 . S
C814 H817 0.929 . S
C815 C814 1.363 . S
C815 C821 1.428 . S
H816 C812 0.930 . S
H817 C814 0.929 . S
S818 N819 1.613 . S
S818 N820 1.610 . S
N819 S818 1.613 . S
N819 C822 1.350 . S
N820 S818 1.610 . S
N820 C821 1.351 . S
C821 C815 1.428 . S
C821 N820 1.351 . S
C821 C822 1.434 . S
C822 C813 1.429 . S
C822 N819 1.350 . S
C822 C821 1.434 . S
C823 C824 1.369 . S
C823 C825 1.419 . S
C823 H827 0.930 . S
C824 C823 1.369 . S
C824 C833 1.429 . S
C825 C823 1.419 . S
C825 C826 1.363 . S
C825 H828 0.929 . S
C826 C825 1.363 . S
C826 C832 1.428 . S
H827 C823 0.930 . S
H828 C825 0.929 . S
S829 N830 1.613 . S
S829 N831 1.610 . S
N830 S829 1.613 . S
N830 C833 1.350 . S
N831 S829 1.610 . S
N831 C832 1.351 . S
C832 C826 1.428 . S
C832 N831 1.351 . S
C832 C833 1.434 . S
C833 C824 1.429 . S
C833 N830 1.350 . S
C833 C832 1.434 . S
C834 C835 1.369 . S
C834 C836 1.419 . S
C834 H838 0.930 . S
C835 C834 1.369 . S
C835 C844 1.429 . S
C836 C834 1.419 . S
C836 C837 1.363 . S
C836 H839 0.929 . S
C837 C836 1.363 . S
C837 C843 1.428 . S
H838 C834 0.930 . S
H839 C836 0.929 . S
S840 N841 1.613 . S
S840 N842 1.610 . S
N841 S840 1.613 . S
N841 C844 1.350 . S
N842 S840 1.610 . S
N842 C843 1.351 . S
C843 C837 1.428 . S
C843 N842 1.351 . S
C843 C844 1.434 . S
C844 C835 1.429 . S
C844 N841 1.350 . S
C844 C843 1.434 . S
C845 C846 1.369 . S
C845 C847 1.419 . S
C845 H849 0.930 . S
C846 C845 1.369 . S
C846 C855 1.429 . S
C847 C845 1.419 . S
C847 C848 1.363 . S
C847 H850 0.929 . S
C848 C847 1.363 . S
C848 C854 1.428 . S
H849 C845 0.930 . S
H850 C847 0.929 . S
S851 N852 1.613 . S
S851 N853 1.610 . S
N852 S851 1.613 . S
N852 C855 1.350 . S
N853 S851 1.610 . S
N853 C854 1.351 . S
C854 C848 1.428 . S
C854 N853 1.351 . S
C854 C855 1.434 . S
C855 C846 1.429 . S
C855 N852 1.350 . S
C855 C854 1.434 . S
C856 C857 1.369 . S
C856 C858 1.419 . S
C856 H860 0.930 . S
C857 C856 1.369 . S
C857 C866 1.429 . S
C858 C856 1.419 . S
C858 C859 1.363 . S
C858 H861 0.929 . S
C859 C858 1.363 . S
C859 C865 1.428 . S
H860 C856 0.930 . S
H861 C858 0.929 . S
S862 N863 1.613 . S
S862 N864 1.610 . S
N863 S862 1.613 . S
N863 C866 1.350 . S
N864 S862 1.610 . S
N864 C865 1.351 . S
C865 C859 1.428 . S
C865 N864 1.351 . S
C865 C866 1.434 . S
C866 C857 1.429 . S
C866 N863 1.350 . S
C866 C865 1.434 . S
C867 C868 1.369 . S
C867 C869 1.419 . S
C867 H871 0.930 . S
C868 C867 1.369 . S
C868 C877 1.429 . S
C869 C867 1.419 . S
C869 C870 1.363 . S
C869 H872 0.929 1_556 S
C870 C869 1.363 . S
C870 C876 1.428 . S
H871 C867 0.930 . S
H872 C869 0.929 1_554 S
S873 N874 1.613 . S
S873 N875 1.610 . S
N874 S873 1.613 . S
N874 C877 1.350 . S
N875 S873 1.610 . S
N875 C876 1.351 . S
C876 C870 1.428 . S
C876 N875 1.351 . S
C876 C877 1.434 . S
C877 C868 1.429 . S
C877 N874 1.350 . S
C877 C876 1.434 . S
C878 C879 1.369 . S
C878 C880 1.419 . S
C878 H882 0.930 . S
C879 C878 1.369 . S
C879 C888 1.429 . S
C880 C878 1.419 . S
C880 C881 1.363 . S
C880 H883 0.929 . S
C881 C880 1.363 . S
C881 C887 1.428 . S
H882 C878 0.930 . S
H883 C880 0.929 . S
S884 N885 1.613 . S
S884 N886 1.610 . S
N885 S884 1.613 . S
N885 C888 1.350 . S
N886 S884 1.610 . S
N886 C887 1.351 . S
C887 C881 1.428 . S
C887 N886 1.351 . S
C887 C888 1.434 . S
C888 C879 1.429 . S
C888 N885 1.350 . S
C888 C887 1.434 . S
C889 C890 1.369 . S
C889 C891 1.419 . S
C889 H893 0.930 . S
C890 C889 1.369 . S
C890 C899 1.429 . S
C891 C889 1.419 . S
C891 C892 1.363 . S
C891 H894 0.929 . S
C892 C891 1.363 . S
C892 C898 1.428 . S
H893 C889 0.930 . S
H894 C891 0.929 . S
S895 N896 1.613 . S
S895 N897 1.610 . S
N896 S895 1.613 . S
N896 C899 1.350 . S
N897 S895 1.610 . S
N897 C898 1.351 . S
C898 C892 1.428 . S
C898 N897 1.351 . S
C898 C899 1.434 . S
C899 C890 1.429 . S
C899 N896 1.350 . S
C899 C898 1.434 . S
C900 C901 1.369 . S
C900 C902 1.419 . S
C900 H904 0.930 . S
C901 C900 1.369 . S
C901 C910 1.429 . S
C902 C900 1.419 . S
C902 C903 1.363 . S
C902 H905 0.929 . S
C903 C902 1.363 . S
C903 C909 1.428 . S
H904 C900 0.930 . S
H905 C902 0.929 . S
S906 N907 1.613 . S
S906 N908 1.610 . S
N907 S906 1.613 . S
N907 C910 1.350 . S
N908 S906 1.610 . S
N908 C909 1.351 . S
C909 C903 1.428 . S
C909 N908 1.351 . S
C909 C910 1.434 . S
C910 C901 1.429 . S
C910 N907 1.350 . S
C910 C909 1.434 . S
C911 C912 1.369 . S
C911 C913 1.419 . S
C911 H915 0.930 . S
C912 C911 1.369 . S
C912 C921 1.429 . S
C913 C911 1.419 . S
C913 C914 1.363 . S
C913 H916 0.929 . S
C914 C913 1.363 . S
C914 C920 1.428 . S
H915 C911 0.930 . S
H916 C913 0.929 . S
S917 N918 1.613 . S
S917 N919 1.610 . S
N918 S917 1.613 . S
N918 C921 1.350 . S
N919 S917 1.610 . S
N919 C920 1.351 . S
C920 C914 1.428 . S
C920 N919 1.351 . S
C920 C921 1.434 . S
C921 C912 1.429 . S
C921 N918 1.350 . S
C921 C920 1.434 . S
C922 C923 1.369 . S
C922 C924 1.419 . S
C922 H926 0.930 . S
C923 C922 1.369 . S
C923 C932 1.429 . S
C924 C922 1.419 . S
C924 C925 1.363 . S
C924 H927 0.929 . S
C925 C924 1.363 . S
C925 C931 1.428 . S
H926 C922 0.930 . S
H927 C924 0.929 . S
S928 N929 1.613 . S
S928 N930 1.610 . S
N929 S928 1.613 . S
N929 C932 1.350 . S
N930 S928 1.610 . S
N930 C931 1.351 . S
C931 C925 1.428 . S
C931 N930 1.351 . S
C931 C932 1.434 . S
C932 C923 1.429 . S
C932 N929 1.350 . S
C932 C931 1.434 . S
C933 C934 1.369 . S
C933 C935 1.419 . S
C933 H937 0.930 . S
C934 C933 1.369 . S
C934 C943 1.429 . S
C935 C933 1.419 . S
C935 C936 1.363 . S
C935 H938 0.929 . S
C936 C935 1.363 . S
C936 C942 1.428 . S
H937 C933 0.930 . S
H938 C935 0.929 . S
S939 N940 1.613 . S
S939 N941 1.610 . S
N940 S939 1.613 . S
N940 C943 1.350 . S
N941 S939 1.610 . S
N941 C942 1.351 . S
C942 C936 1.428 . S
C942 N941 1.351 . S
C942 C943 1.434 . S
C943 C934 1.429 . S
C943 N940 1.350 . S
C943 C942 1.434 . S
C944 C945 1.369 . S
C944 C946 1.419 . S
C944 H948 0.930 . S
C945 C944 1.369 . S
C945 C954 1.429 . S
C946 C944 1.419 . S
C946 C947 1.363 . S
C946 H949 0.929 . S
C947 C946 1.363 . S
C947 C953 1.428 . S
H948 C944 0.930 . S
H949 C946 0.929 . S
S950 N951 1.613 . S
S950 N952 1.610 . S
N951 S950 1.613 . S
N951 C954 1.350 . S
N952 S950 1.610 . S
N952 C953 1.351 . S
C953 C947 1.428 . S
C953 N952 1.351 . S
C953 C954 1.434 . S
C954 C945 1.429 . S
C954 N951 1.350 . S
C954 C953 1.434 . S
C955 C956 1.369 . S
C955 C957 1.419 . S
C955 H959 0.930 1_556 S
C956 C955 1.369 . S
C956 C965 1.429 . S
C957 C955 1.419 . S
C957 C958 1.363 . S
C957 H960 0.929 . S
C958 C957 1.363 . S
C958 C964 1.428 . S
H959 C955 0.930 1_554 S
H960 C957 0.929 . S
S961 N962 1.613 . S
S961 N963 1.610 . S
N962 S961 1.613 . S
N962 C965 1.350 . S
N963 S961 1.610 . S
N963 C964 1.351 . S
C964 C958 1.428 . S
C964 N963 1.351 . S
C964 C965 1.434 . S
C965 C956 1.429 . S
C965 N962 1.350 . S
C965 C964 1.434 . S
C966 C967 1.369 . S
C966 C968 1.419 . S
C966 H970 0.930 . S
C967 C966 1.369 . S
C967 C976 1.429 . S
C968 C966 1.419 . S
C968 C969 1.363 . S
C968 H971 0.929 . S
C969 C968 1.363 . S
C969 C975 1.428 . S
H970 C966 0.930 . S
H971 C968 0.929 . S
S972 N973 1.613 . S
S972 N974 1.610 . S
N973 S972 1.613 . S
N973 C976 1.350 . S
N974 S972 1.610 . S
N974 C975 1.351 . S
C975 C969 1.428 . S
C975 N974 1.351 . S
C975 C976 1.434 . S
C976 C967 1.429 . S
C976 N973 1.350 . S
C976 C975 1.434 . S
C977 C978 1.369 . S
C977 C979 1.419 . S
C977 H981 0.930 . S
C978 C977 1.369 . S
C978 C987 1.429 . S
C979 C977 1.419 . S
C979 C980 1.363 . S
C979 H982 0.929 . S
C980 C979 1.363 . S
C980 C986 1.428 . S
H981 C977 0.930 . S
H982 C979 0.929 . S
S983 N984 1.613 . S
S983 N985 1.610 . S
N984 S983 1.613 . S
N984 C987 1.350 . S
N985 S983 1.610 . S
N985 C986 1.351 . S
C986 C980 1.428 . S
C986 N985 1.351 . S
C986 C987 1.434 . S
C987 C978 1.429 . S
C987 N984 1.350 . S
C987 C986 1.434 . S
C988 C989 1.369 . S
C988 C990 1.419 . S
C988 H992 0.930 . S
C989 C988 1.369 . S
C989 C998 1.429 . S
C990 C988 1.419 . S
C990 C991 1.363 . S
C990 H993 0.929 . S
C991 C990 1.363 . S
C991 C997 1.428 . S
H992 C988 0.930 . S
H993 C990 0.929 . S
S994 N995 1.613 . S
S994 N996 1.610 . S
N995 S994 1.613 . S
N995 C998 1.350 . S
N996 S994 1.610 . S
N996 C997 1.351 . S
C997 C991 1.428 . S
C997 N996 1.351 . S
C997 C998 1.434 . S
C998 C989 1.429 . S
C998 N995 1.350 . S
C998 C997 1.434 . S
C999 C1000 1.369 . S
C999 C1001 1.419 . S
C999 H1003 0.930 . S
C1000 C999 1.369 . S
C1000 C1009 1.429 . S
C1001 C999 1.419 . S
C1001 C1002 1.363 . S
C1001 H1004 0.929 . S
C1002 C1001 1.363 . S
C1002 C1008 1.428 . S
H1003 C999 0.930 . S
H1004 C1001 0.929 . S
S1005 N1006 1.613 1_554 S
S1005 N1007 1.610 . S
N1006 S1005 1.613 1_556 S
N1006 C1009 1.350 1_556 S
N1007 S1005 1.610 . S
N1007 C1008 1.351 . S
C1008 C1002 1.428 . S
C1008 N1007 1.351 . S
C1008 C1009 1.434 . S
C1009 C1000 1.429 . S
C1009 N1006 1.350 1_554 S
C1009 C1008 1.434 . S
C1010 C1011 1.369 . S
C1010 C1012 1.419 . S
C1010 H1014 0.930 . S
C1011 C1010 1.369 . S
C1011 C1020 1.429 . S
C1012 C1010 1.419 . S
C1012 C1013 1.363 . S
C1012 H1015 0.929 . S
C1013 C1012 1.363 . S
C1013 C1019 1.428 . S
H1014 C1010 0.930 . S
H1015 C1012 0.929 . S
S1016 N1017 1.613 . S
S1016 N1018 1.610 . S
N1017 S1016 1.613 . S
N1017 C1020 1.350 . S
N1018 S1016 1.610 . S
N1018 C1019 1.351 . S
C1019 C1013 1.428 . S
C1019 N1018 1.351 . S
C1019 C1020 1.434 . S
C1020 C1011 1.429 . S
C1020 N1017 1.350 . S
C1020 C1019 1.434 . S
C1021 C1022 1.369 . S
C1021 C1023 1.419 . S
C1021 H1025 0.930 1_554 S
C1022 C1021 1.369 . S
C1022 C1031 1.429 . S
C1023 C1021 1.419 . S
C1023 C1024 1.363 . S
C1023 H1026 0.929 . S
C1024 C1023 1.363 . S
C1024 C1030 1.428 . S
H1025 C1021 0.930 1_556 S
H1026 C1023 0.929 . S
S1027 N1028 1.613 . S
S1027 N1029 1.610 . S
N1028 S1027 1.613 . S
N1028 C1031 1.350 . S
N1029 S1027 1.610 . S
N1029 C1030 1.351 . S
C1030 C1024 1.428 . S
C1030 N1029 1.351 . S
C1030 C1031 1.434 . S
C1031 C1022 1.429 . S
C1031 N1028 1.350 . S
C1031 C1030 1.434 . S
C1032 C1033 1.369 . S
C1032 C1034 1.419 . S
C1032 H1036 0.930 . S
C1033 C1032 1.369 . S
C1033 C1042 1.429 . S
C1034 C1032 1.419 . S
C1034 C1035 1.363 . S
C1034 H1037 0.929 . S
C1035 C1034 1.363 . S
C1035 C1041 1.428 . S
H1036 C1032 0.930 . S
H1037 C1034 0.929 . S
S1038 N1039 1.613 . S
S1038 N1040 1.610 . S
N1039 S1038 1.613 . S
N1039 C1042 1.350 . S
N1040 S1038 1.610 . S
N1040 C1041 1.351 . S
C1041 C1035 1.428 . S
C1041 N1040 1.351 . S
C1041 C1042 1.434 . S
C1042 C1033 1.429 . S
C1042 N1039 1.350 . S
C1042 C1041 1.434 . S
C1043 C1044 1.369 . S
C1043 C1045 1.419 . S
C1043 H1047 0.930 . S
C1044 C1043 1.369 . S
C1044 C1053 1.429 . S
C1045 C1043 1.419 . S
C1045 C1046 1.363 . S
C1045 H1048 0.929 . S
C1046 C1045 1.363 . S
C1046 C1052 1.428 . S
H1047 C1043 0.930 . S
H1048 C1045 0.929 . S
S1049 N1050 1.613 . S
S1049 N1051 1.610 . S
N1050 S1049 1.613 . S
N1050 C1053 1.350 . S
N1051 S1049 1.610 . S
N1051 C1052 1.351 . S
C1052 C1046 1.428 . S
C1052 N1051 1.351 . S
C1052 C1053 1.434 . S
C1053 C1044 1.429 . S
C1053 N1050 1.350 . S
C1053 C1052 1.434 . S
C1054 C1055 1.369 . S
C1054 C1056 1.419 . S
C1054 H1058 0.930 . S
C1055 C1054 1.369 . S
C1055 C1064 1.429 . S
C1056 C1054 1.419 . S
C1056 C1057 1.363 . S
C1056 H1059 0.929 . S
C1057 C1056 1.363 . S
C1057 C1063 1.428 . S
H1058 C1054 0.930 . S
H1059 C1056 0.929 . S
S1060 N1061 1.613 . S
S1060 N1062 1.610 . S
N1061 S1060 1.613 . S
N1061 C1064 1.350 . S
N1062 S1060 1.610 . S
N1062 C1063 1.351 . S
C1063 C1057 1.428 . S
C1063 N1062 1.351 . S
C1063 C1064 1.434 . S
C1064 C1055 1.429 . S
C1064 N1061 1.350 . S
C1064 C1063 1.434 . S
C1065 C1066 1.369 . S
C1065 C1067 1.419 . S
C1065 H1069 0.930 . S
C1066 C1065 1.369 . S
C1066 C1075 1.429 . S
C1067 C1065 1.419 . S
C1067 C1068 1.363 . S
C1067 H1070 0.929 . S
C1068 C1067 1.363 . S
C1068 C1074 1.428 . S
H1069 C1065 0.930 . S
H1070 C1067 0.929 . S
S1071 N1072 1.613 . S
S1071 N1073 1.610 . S
N1072 S1071 1.613 . S
N1072 C1075 1.350 . S
N1073 S1071 1.610 . S
N1073 C1074 1.351 . S
C1074 C1068 1.428 . S
C1074 N1073 1.351 . S
C1074 C1075 1.434 . S
C1075 C1066 1.429 . S
C1075 N1072 1.350 . S
C1075 C1074 1.434 . S
C1076 C1077 1.369 . S
C1076 C1078 1.419 . S
C1076 H1080 0.930 . S
C1077 C1076 1.369 . S
C1077 C1086 1.429 . S
C1078 C1076 1.419 . S
C1078 C1079 1.363 . S
C1078 H1081 0.929 . S
C1079 C1078 1.363 . S
C1079 C1085 1.428 . S
H1080 C1076 0.930 . S
H1081 C1078 0.929 . S
S1082 N1083 1.613 1_554 S
S1082 N1084 1.610 . S
N1083 S1082 1.613 1_556 S
N1083 C1086 1.350 1_556 S
N1084 S1082 1.610 . S
N1084 C1085 1.351 . S
C1085 C1079 1.428 . S
C1085 N1084 1.351 . S
C1085 C1086 1.434 . S
C1086 C1077 1.429 . S
C1086 N1083 1.350 1_554 S
C1086 C1085 1.434 . S
C1087 C1088 1.369 . S
C1087 C1089 1.419 . S
C1087 H1091 0.930 . S
C1088 C1087 1.369 . S
C1088 C1097 1.429 . S
C1089 C1087 1.419 . S
C1089 C1090 1.363 . S
C1089 H1092 0.929 . S
C1090 C1089 1.363 . S
C1090 C1096 1.428 . S
H1091 C1087 0.930 . S
H1092 C1089 0.929 . S
S1093 N1094 1.613 . S
S1093 N1095 1.610 . S
N1094 S1093 1.613 . S
N1094 C1097 1.350 . S
N1095 S1093 1.610 . S
N1095 C1096 1.351 . S
C1096 C1090 1.428 . S
C1096 N1095 1.351 . S
C1096 C1097 1.434 . S
C1097 C1088 1.429 . S
C1097 N1094 1.350 . S
C1097 C1096 1.434 . S
C1098 C1099 1.369 . S
C1098 C1100 1.419 . S
C1098 H1102 0.930 . S
C1099 C1098 1.369 . S
C1099 C1108 1.429 . S
C1100 C1098 1.419 . S
C1100 C1101 1.363 . S
C1100 H1103 0.929 . S
C1101 C1100 1.363 . S
C1101 C1107 1.428 . S
H1102 C1098 0.930 . S
H1103 C1100 0.929 . S
S1104 N1105 1.613 . S
S1104 N1106 1.610 . S
N1105 S1104 1.613 . S
N1105 C1108 1.350 . S
N1106 S1104 1.610 . S
N1106 C1107 1.351 . S
C1107 C1101 1.428 . S
C1107 N1106 1.351 . S
C1107 C1108 1.434 . S
C1108 C1099 1.429 . S
C1108 N1105 1.350 . S
C1108 C1107 1.434 . S
C1109 C1110 1.369 . S
C1109 C1111 1.419 . S
C1109 H1113 0.930 . S
C1110 C1109 1.369 . S
C1110 C1119 1.429 . S
C1111 C1109 1.419 . S
C1111 C1112 1.363 . S
C1111 H1114 0.929 1_554 S
C1112 C1111 1.363 . S
C1112 C1118 1.428 . S
H1113 C1109 0.930 . S
H1114 C1111 0.929 1_556 S
S1115 N1116 1.613 . S
S1115 N1117 1.610 . S
N1116 S1115 1.613 . S
N1116 C1119 1.350 . S
N1117 S1115 1.610 . S
N1117 C1118 1.351 . S
C1118 C1112 1.428 . S
C1118 N1117 1.351 . S
C1118 C1119 1.434 . S
C1119 C1110 1.429 . S
C1119 N1116 1.350 . S
C1119 C1118 1.434 . S
C1120 C1121 1.369 . S
C1120 C1122 1.419 . S
C1120 H1124 0.930 1_554 S
C1121 C1120 1.369 . S
C1121 C1130 1.429 . S
C1122 C1120 1.419 . S
C1122 C1123 1.363 . S
C1122 H1125 0.929 . S
C1123 C1122 1.363 . S
C1123 C1129 1.428 . S
H1124 C1120 0.930 1_556 S
H1125 C1122 0.929 . S
S1126 N1127 1.613 . S
S1126 N1128 1.610 . S
N1127 S1126 1.613 . S
N1127 C1130 1.350 . S
N1128 S1126 1.610 . S
N1128 C1129 1.351 . S
C1129 C1123 1.428 . S
C1129 N1128 1.351 . S
C1129 C1130 1.434 . S
C1130 C1121 1.429 . S
C1130 N1127 1.350 . S
C1130 C1129 1.434 . S
C1131 C1132 1.369 . S
C1131 C1133 1.419 . S
C1131 H1135 0.930 . S
C1132 C1131 1.369 . S
C1132 C1141 1.429 . S
C1133 C1131 1.419 . S
C1133 C1134 1.363 . S
C1133 H1136 0.929 . S
C1134 C1133 1.363 . S
C1134 C1140 1.428 . S
H1135 C1131 0.930 . S
H1136 C1133 0.929 . S
S1137 N1138 1.613 . S
S1137 N1139 1.610 . S
N1138 S1137 1.613 . S
N1138 C1141 1.350 . S
N1139 S1137 1.610 . S
N1139 C1140 1.351 . S
C1140 C1134 1.428 . S
C1140 N1139 1.351 . S
C1140 C1141 1.434 . S
C1141 C1132 1.429 . S
C1141 N1138 1.350 . S
C1141 C1140 1.434 . S
C1142 C1143 1.369 . S
C1142 C1144 1.419 . S
C1142 H1146 0.930 . S
C1143 C1142 1.369 . S
C1143 C1152 1.429 . S
C1144 C1142 1.419 . S
C1144 C1145 1.363 . S
C1144 H1147 0.929 . S
C1145 C1144 1.363 . S
C1145 C1151 1.428 . S
H1146 C1142 0.930 . S
H1147 C1144 0.929 . S
S1148 N1149 1.613 . S
S1148 N1150 1.610 . S
N1149 S1148 1.613 . S
N1149 C1152 1.350 . S
N1150 S1148 1.610 . S
N1150 C1151 1.351 . S
C1151 C1145 1.428 . S
C1151 N1150 1.351 . S
C1151 C1152 1.434 . S
C1152 C1143 1.429 . S
C1152 N1149 1.350 . S
C1152 C1151 1.434 . S
C1153 C1154 1.369 . S
C1153 C1155 1.419 . S
C1153 H1157 0.930 . S
C1154 C1153 1.369 . S
C1154 C1163 1.429 . S
C1155 C1153 1.419 . S
C1155 C1156 1.363 . S
C1155 H1158 0.929 . S
C1156 C1155 1.363 . S
C1156 C1162 1.428 . S
H1157 C1153 0.930 . S
H1158 C1155 0.929 . S
S1159 N1160 1.613 . S
S1159 N1161 1.610 . S
N1160 S1159 1.613 . S
N1160 C1163 1.350 . S
N1161 S1159 1.610 . S
N1161 C1162 1.351 . S
C1162 C1156 1.428 . S
C1162 N1161 1.351 . S
C1162 C1163 1.434 . S
C1163 C1154 1.429 . S
C1163 N1160 1.350 . S
C1163 C1162 1.434 . S
C1164 C1165 1.369 . S
C1164 C1166 1.419 . S
C1164 H1168 0.930 . S
C1165 C1164 1.369 . S
C1165 C1174 1.429 . S
C1166 C1164 1.419 . S
C1166 C1167 1.363 . S
C1166 H1169 0.929 . S
C1167 C1166 1.363 . S
C1167 C1173 1.428 . S
H1168 C1164 0.930 . S
H1169 C1166 0.929 . S
S1170 N1171 1.613 1_554 S
S1170 N1172 1.610 1_554 S
N1171 S1170 1.613 1_556 S
N1171 C1174 1.350 . S
N1172 S1170 1.610 1_556 S
N1172 C1173 1.351 . S
C1173 C1167 1.428 . S
C1173 N1172 1.351 . S
C1173 C1174 1.434 . S
C1174 C1165 1.429 . S
C1174 N1171 1.350 . S
C1174 C1173 1.434 . S
C1175 C1176 1.369 . S
C1175 C1177 1.419 . S
C1175 H1179 0.930 . S
C1176 C1175 1.369 . S
C1176 C1185 1.429 1_556 S
C1177 C1175 1.419 . S
C1177 C1178 1.363 . S
C1177 H1180 0.929 . S
C1178 C1177 1.363 . S
C1178 C1184 1.428 1_556 S
H1179 C1175 0.930 . S
H1180 C1177 0.929 . S
S1181 N1182 1.613 . S
S1181 N1183 1.610 . S
N1182 S1181 1.613 . S
N1182 C1185 1.350 . S
N1183 S1181 1.610 . S
N1183 C1184 1.351 . S
C1184 C1178 1.428 1_554 S
C1184 N1183 1.351 . S
C1184 C1185 1.434 . S
C1185 C1176 1.429 1_554 S
C1185 N1182 1.350 . S
C1185 C1184 1.434 . S
C1186 C1187 1.369 . S
C1186 C1188 1.419 . S
C1186 H1190 0.930 1_556 S
C1187 C1186 1.369 . S
C1187 C1196 1.429 . S
C1188 C1186 1.419 . S
C1188 C1189 1.363 . S
C1188 H1191 0.929 1_556 S
C1189 C1188 1.363 . S
C1189 C1195 1.428 . S
H1190 C1186 0.930 1_554 S
H1191 C1188 0.929 1_554 S
S1192 N1193 1.613 . S
S1192 N1194 1.610 . S
N1193 S1192 1.613 . S
N1193 C1196 1.350 . S
N1194 S1192 1.610 . S
N1194 C1195 1.351 . S
C1195 C1189 1.428 . S
C1195 N1194 1.351 . S
C1195 C1196 1.434 . S
C1196 C1187 1.429 . S
C1196 N1193 1.350 . S
C1196 C1195 1.434 . S
C1197 C1198 1.369 . S
C1197 C1199 1.419 . S
C1197 H1201 0.930 . S
C1198 C1197 1.369 . S
C1198 C1207 1.429 . S
C1199 C1197 1.419 . S
C1199 C1200 1.363 . S
C1199 H1202 0.929 . S
C1200 C1199 1.363 . S
C1200 C1206 1.428 . S
H1201 C1197 0.930 . S
H1202 C1199 0.929 . S
S1203 N1204 1.613 . S
S1203 N1205 1.610 . S
N1204 S1203 1.613 . S
N1204 C1207 1.350 . S
N1205 S1203 1.610 . S
N1205 C1206 1.351 . S
C1206 C1200 1.428 . S
C1206 N1205 1.351 . S
C1206 C1207 1.434 . S
C1207 C1198 1.429 . S
C1207 N1204 1.350 . S
C1207 C1206 1.434 . S
C1208 C1209 1.369 . S
C1208 C1210 1.419 . S
C1208 H1212 0.930 . S
C1209 C1208 1.369 . S
C1209 C1218 1.429 . S
C1210 C1208 1.419 . S
C1210 C1211 1.363 . S
C1210 H1213 0.929 . S
C1211 C1210 1.363 . S
C1211 C1217 1.428 . S
H1212 C1208 0.930 . S
H1213 C1210 0.929 . S
S1214 N1215 1.613 . S
S1214 N1216 1.610 . S
N1215 S1214 1.613 . S
N1215 C1218 1.350 . S
N1216 S1214 1.610 . S
N1216 C1217 1.351 . S
C1217 C1211 1.428 . S
C1217 N1216 1.351 . S
C1217 C1218 1.434 . S
C1218 C1209 1.429 . S
C1218 N1215 1.350 . S
C1218 C1217 1.434 . S
C1219 C1220 1.369 . S
C1219 C1221 1.419 . S
C1219 H1223 0.930 . S
C1220 C1219 1.369 . S
C1220 C1229 1.429 . S
C1221 C1219 1.419 . S
C1221 C1222 1.363 . S
C1221 H1224 0.929 . S
C1222 C1221 1.363 . S
C1222 C1228 1.428 . S
H1223 C1219 0.930 . S
H1224 C1221 0.929 . S
S1225 N1226 1.613 . S
S1225 N1227 1.610 . S
N1226 S1225 1.613 . S
N1226 C1229 1.350 . S
N1227 S1225 1.610 . S
N1227 C1228 1.351 . S
C1228 C1222 1.428 . S
C1228 N1227 1.351 . S
C1228 C1229 1.434 . S
C1229 C1220 1.429 . S
C1229 N1226 1.350 . S
C1229 C1228 1.434 . S
C1230 C1231 1.369 . S
C1230 C1232 1.419 1_455 S
C1230 H1234 0.930 . S
C1231 C1230 1.369 . S
C1231 C1240 1.429 . S
C1232 C1230 1.419 1_655 S
C1232 C1233 1.363 . S
C1232 H1235 0.929 . S
C1233 C1232 1.363 . S
C1233 C1239 1.428 . S
H1234 C1230 0.930 . S
H1235 C1232 0.929 . S
S1236 N1237 1.613 1_655 S
S1236 N1238 1.610 . S
N1237 S1236 1.613 1_455 S
N1237 C1240 1.350 . S
N1238 S1236 1.610 . S
N1238 C1239 1.351 . S
C1239 C1233 1.428 . S
C1239 N1238 1.351 . S
C1239 C1240 1.434 1_655 S
C1240 C1231 1.429 . S
C1240 N1237 1.350 . S
C1240 C1239 1.434 1_455 S
C1241 C1242 1.369 . S
C1241 C1243 1.419 . S
C1241 H1245 0.930 . S
C1242 C1241 1.369 . S
C1242 C1251 1.429 . S
C1243 C1241 1.419 . S
C1243 C1244 1.363 . S
C1243 H1246 0.929 . S
C1244 C1243 1.363 . S
C1244 C1250 1.428 . S
H1245 C1241 0.930 . S
H1246 C1243 0.929 . S
S1247 N1248 1.613 . S
S1247 N1249 1.610 . S
N1248 S1247 1.613 . S
N1248 C1251 1.350 . S
N1249 S1247 1.610 . S
N1249 C1250 1.351 . S
C1250 C1244 1.428 . S
C1250 N1249 1.351 . S
C1250 C1251 1.434 . S
C1251 C1242 1.429 . S
C1251 N1248 1.350 . S
C1251 C1250 1.434 . S
C1252 C1253 1.369 . S
C1252 C1254 1.419 1_565 S
C1252 H1256 0.930 . S
C1253 C1252 1.369 . S
C1253 C1262 1.429 . S
C1254 C1252 1.419 1_545 S
C1254 C1255 1.363 . S
C1254 H1257 0.929 . S
C1255 C1254 1.363 . S
C1255 C1261 1.428 . S
H1256 C1252 0.930 . S
H1257 C1254 0.929 . S
S1258 N1259 1.613 . S
S1258 N1260 1.610 1_565 S
N1259 S1258 1.613 . S
N1259 C1262 1.350 . S
N1260 S1258 1.610 1_545 S
N1260 C1261 1.351 . S
C1261 C1255 1.428 . S
C1261 N1260 1.351 . S
C1261 C1262 1.434 1_545 S
C1262 C1253 1.429 . S
C1262 N1259 1.350 . S
C1262 C1261 1.434 1_565 S
C1263 C1264 1.369 . S
C1263 C1265 1.419 1_545 S
C1263 H1267 0.930 . S
C1264 C1263 1.369 . S
C1264 C1273 1.429 . S
C1265 C1263 1.419 1_565 S
C1265 C1266 1.363 . S
C1265 H1268 0.929 . S
C1266 C1265 1.363 . S
C1266 C1272 1.428 . S
H1267 C1263 0.930 . S
H1268 C1265 0.929 . S
S1269 N1270 1.613 . S
S1269 N1271 1.610 1_545 S
N1270 S1269 1.613 . S
N1270 C1273 1.350 . S
N1271 S1269 1.610 1_565 S
N1271 C1272 1.351 . S
C1272 C1266 1.428 . S
C1272 N1271 1.351 . S
C1272 C1273 1.434 1_565 S
C1273 C1264 1.429 . S
C1273 N1270 1.350 . S
C1273 C1272 1.434 1_545 S
C1274 C1275 1.369 . S
C1274 C1276 1.419 1_455 S
C1274 H1278 0.930 . S
C1275 C1274 1.369 . S
C1275 C1284 1.429 . S
C1276 C1274 1.419 1_655 S
C1276 C1277 1.363 . S
C1276 H1279 0.929 . S
C1277 C1276 1.363 . S
C1277 C1283 1.428 . S
H1278 C1274 0.930 . S
H1279 C1276 0.929 . S
S1280 N1281 1.613 . S
S1280 N1282 1.610 1_455 S
N1281 S1280 1.613 . S
N1281 C1284 1.350 . S
N1282 S1280 1.610 1_655 S
N1282 C1283 1.351 . S
C1283 C1277 1.428 . S
C1283 N1282 1.351 . S
C1283 C1284 1.434 1_655 S
C1284 C1275 1.429 . S
C1284 N1281 1.350 . S
C1284 C1283 1.434 1_455 S
C1285 C1286 1.369 . S
C1285 C1287 1.419 . S
C1285 H1289 0.930 . S
C1286 C1285 1.369 . S
C1286 C1295 1.429 . S
C1287 C1285 1.419 . S
C1287 C1288 1.363 . S
C1287 H1290 0.929 . S
C1288 C1287 1.363 . S
C1288 C1294 1.428 . S
H1289 C1285 0.930 . S
H1290 C1287 0.929 . S
S1291 N1292 1.613 . S
S1291 N1293 1.610 . S
N1292 S1291 1.613 . S
N1292 C1295 1.350 . S
N1293 S1291 1.610 . S
N1293 C1294 1.351 . S
C1294 C1288 1.428 . S
C1294 N1293 1.351 . S
C1294 C1295 1.434 . S
C1295 C1286 1.429 . S
C1295 N1292 1.350 . S
C1295 C1294 1.434 . S
C505 C48 1.490 . S
C507 C6 1.490 . S
C516 C62 1.821 . S
C518 C20 1.824 . S
C527 C76 1.818 . S
C529 C34 1.830 . S
C538 C90 1.482 . S
C540 C132 1.495 . S
C549 C104 1.823 . S
C551 C146 1.827 . S
C560 C160 1.818 . S
C562 C118 1.831 . S
C571 C174 1.450 . S
C573 C216 1.499 . S
C582 C188 1.895 . S
C584 C230 1.871 . S
C593 C202 1.429 . S
C595 C244 1.498 . S
C604 C258 1.501 . S
C606 C300 1.448 . S
C615 C314 1.431 . S
C617 C272 1.498 . S
C626 C286 1.874 . S
C628 C328 1.894 . S
C637 C342 1.506 . S
C639 C384 1.443 . S
C648 C356 1.488 . S
C650 C398 1.442 . S
C659 C412 1.892 . S
C661 C370 1.873 . S
C670 C468 1.495 . S
C672 C426 1.453 . S
C681 C482 1.882 . S
C683 C440 1.887 . S
C692 C496 1.490 . S
C694 C454 1.438 . S
C703 C161 2.316 . S
C705 C9 2.298 . S
C714 C23 2.418 . S
C716 C133 2.546 . S
C725 C37 2.177 . S
C727 C147 2.357 . S
C736 C105 2.316 . S
C738 C51 2.299 . S
C747 C65 2.181 . S
C749 C119 2.357 . S
C758 C91 2.545 . S
C760 C79 2.417 . S
C769 C93 2.297 . S
C771 C77 2.316 . S
C780 C107 2.410 . S
C782 C49 2.548 . S
C791 C63 2.351 . S
C793 C121 2.184 . S
C802 C21 2.313 . S
C804 C135 2.298 . S
C813 C35 2.352 . S
C815 C149 2.186 . S
C824 C163 2.408 . S
C826 C7 2.550 . S
C835 C177 2.564 . S
C837 C329 2.430 . S
C846 C301 2.139 . S
C848 C191 1.978 . S
C857 C315 2.104 . S
C859 C205 2.126 . S
C868 C219 1.647 . S
C870 C273 1.528 1_556 S
C879 C287 2.773 1_556 S
C881 C233 2.679 . S
C890 C247 1.728 . S
C892 C259 1.558 1_556 S
C901 C261 1.649 . S
C903 C245 1.522 . S
C912 C275 1.732 . S
C914 C217 1.559 . S
C923 C231 2.777 . S
C925 C289 2.677 . S
C934 C189 2.437 . S
C936 C303 2.560 1_556 S
C945 C203 2.099 . S
C947 C317 2.126 1_556 S
C956 C331 1.983 1_556 S
C958 C175 2.139 . S
C967 C497 1.528 . S
C969 C345 1.648 . S
C978 C359 1.732 . S
C980 C469 1.561 . S
C989 C373 2.680 . S
C991 C483 2.773 . S
C1000 C387 2.563 1_554 S
C1002 C441 2.433 . S
C1011 C455 2.102 . S
C1013 C401 2.124 1_554 S
C1022 C415 1.974 1_554 S
C1024 C427 2.141 . S
C1033 C413 2.431 . S
C1035 C429 2.563 . S
C1044 C385 2.145 . S
C1046 C443 1.975 . S
C1055 C399 2.102 . S
C1057 C457 2.124 . S
C1066 C357 1.522 1_554 S
C1068 C471 1.648 . S
C1077 C371 2.775 1_554 S
C1079 C485 2.678 . S
C1088 C343 1.559 1_554 S
C1090 C499 1.732 . S
C1099 C414 2.210 . S
C1101 C8 2.263 . S
C1110 C22 1.519 . S
C1112 C386 1.579 1_554 S
C1121 C400 1.460 . S
C1123 C36 1.564 . S
C1132 C50 2.266 . S
C1134 C190 2.206 . S
C1143 C204 1.448 . S
C1145 C64 1.574 . S
C1154 C78 1.518 . S
C1156 C176 1.585 . S
C1165 C92 2.262 . S
C1167 C330 2.204 . S
C1176 C302 1.579 1_556 S
C1178 C106 1.531 . S
C1187 C120 1.561 . S
C1189 C316 1.455 . S
C1198 C134 2.262 . S
C1200 C442 2.204 . S
C1209 C148 1.568 . S
C1211 C456 1.457 . S
C1220 C428 1.587 . S
C1222 C162 1.520 . S
C1231 C358 1.265 . S
C1233 C218 1.263 . S
C1242 C372 2.591 . S
C1244 C232 2.592 . S
C1253 C344 1.266 . S
C1255 C246 1.263 . S
C1264 C260 1.263 . S
C1266 C498 1.265 . S
C1275 C470 1.264 . S
C1277 C274 1.264 . S
C1286 C288 2.589 . S
C1288 C484 2.596 . S
