# Generated by pormake.
# Topology qtz-f, (3)-cn, num edge types: 1
# Building blocks:
#     Node 0, Type 0, BuildingBlock: OLANEW_clean_sbu_2, # of connection points: 3
#     Node 1, Type 0, BuildingBlock: OLANEW_clean_sbu_2, # of connection points: 3
#     Node 2, Type 0, BuildingBlock: OLANEW_clean_sbu_2, # of connection points: 3
#     Node 3, Type 0, BuildingBlock: OLANEW_clean_sbu_2, # of connection points: 3
#     Node 4, Type 0, BuildingBlock: OLANEW_clean_sbu_2, # of connection points: 3
#     Node 5, Type 0, BuildingBlock: OLANEW_clean_sbu_2, # of connection points: 3
#     Node 6, Type 0, BuildingBlock: OLANEW_clean_sbu_2, # of connection points: 3
#     Node 7, Type 0, BuildingBlock: OLANEW_clean_sbu_2, # of connection points: 3
#     Node 8, Type 0, BuildingBlock: OLANEW_clean_sbu_2, # of connection points: 3
#     Node 9, Type 0, BuildingBlock: OLANEW_clean_sbu_2, # of connection points: 3
#     Node 10, Type 0, BuildingBlock: OLANEW_clean_sbu_2, # of connection points: 3
#     Node 11, Type 0, BuildingBlock: OLANEW_clean_sbu_2, # of connection points: 3
#     Edge 12, Type (0, 0), BuildingBlock: CIFDUS_clean_linker_0, # of connection points: 2
#     Edge 13, Type (0, 0), BuildingBlock: CIFDUS_clean_linker_0, # of connection points: 2
#     Edge 14, Type (0, 0), BuildingBlock: CIFDUS_clean_linker_0, # of connection points: 2
#     Edge 15, Type (0, 0), BuildingBlock: CIFDUS_clean_linker_0, # of connection points: 2
#     Edge 16, Type (0, 0), BuildingBlock: CIFDUS_clean_linker_0, # of connection points: 2
#     Edge 17, Type (0, 0), BuildingBlock: CIFDUS_clean_linker_0, # of connection points: 2
#     Edge 18, Type (0, 0), BuildingBlock: CIFDUS_clean_linker_0, # of connection points: 2
#     Edge 19, Type (0, 0), BuildingBlock: CIFDUS_clean_linker_0, # of connection points: 2
#     Edge 20, Type (0, 0), BuildingBlock: CIFDUS_clean_linker_0, # of connection points: 2
#     Edge 21, Type (0, 0), BuildingBlock: CIFDUS_clean_linker_0, # of connection points: 2
#     Edge 22, Type (0, 0), BuildingBlock: CIFDUS_clean_linker_0, # of connection points: 2
#     Edge 23, Type (0, 0), BuildingBlock: CIFDUS_clean_linker_0, # of connection points: 2
#     Edge 24, Type (0, 0), BuildingBlock: CIFDUS_clean_linker_0, # of connection points: 2
#     Edge 25, Type (0, 0), BuildingBlock: CIFDUS_clean_linker_0, # of connection points: 2
#     Edge 26, Type (0, 0), BuildingBlock: CIFDUS_clean_linker_0, # of connection points: 2
#     Edge 27, Type (0, 0), BuildingBlock: CIFDUS_clean_linker_0, # of connection points: 2
#     Edge 28, Type (0, 0), BuildingBlock: CIFDUS_clean_linker_0, # of connection points: 2
#     Edge 29, Type (0, 0), BuildingBlock: CIFDUS_clean_linker_0, # of connection points: 2
# Relax obj value: 0.008
# Max RMSD: 0.017
# Mean RMSD: 0.017
data_MOF--net-qtz-f--node1-OLANEW_clean_sbu_2--edge1-CIFDUS_clean_linker_0
_symmetry_space_group_name_H-M    P1
_symmetry_Int_Tables_number       1
_symmetry_cell_setting            triclinic
loop_
_symmetry_equiv_pos_as_xyz
'x, y, z'
_cell_length_a     66.287261
_cell_length_b     66.214931
_cell_length_c     22.012289
_cell_angle_alpha  89.995227
_cell_angle_beta   89.781251
_cell_angle_gamma 120.15769
loop_
_atom_site_label
_atom_site_type_symbol
_atom_site_fract_x
_atom_site_fract_y
_atom_site_fract_z
_atom_type_partial_charge
O0 O 0.14054 0.50042 0.19309 0.0
Cd1 Cd 0.13409 0.46073 0.18669 0.0
O2 O 0.12452 0.49775 0.10398 0.0
Cd3 Cd 0.1089 0.45987 0.09788 0.0
O4 O 0.0754 0.42722 0.09789 0.0
C5 C 0.06385 0.4208 0.14731 0.0
O6 O 0.07348 0.43281 0.19689 0.0
C7 C 0.13537 0.50984 0.15013 0.0
C8 C 0.17356 0.46097 0.14091 0.0
O9 O 0.15755 0.45934 0.10531 0.0
O10 O 0.17081 0.46235 0.19813 0.0
O11 O 0.62838 0.13269 0.3968 0.0
Cd12 Cd 0.66026 0.12473 0.38074 0.0
O13 O 0.6271 0.1264 0.49522 0.0
Cd14 Cd 0.64718 0.10849 0.48938 0.0
O15 O 0.64343 0.0738 0.49729 0.0
C16 C 0.63963 0.06468 0.54995 0.0
O17 O 0.64023 0.07725 0.59685 0.0
C18 C 0.62033 0.13296 0.44915 0.0
C19 C 0.70022 0.16443 0.33767 0.0
O20 O 0.6852 0.14946 0.30094 0.0
O21 O 0.69641 0.16056 0.3948 0.0
O22 O 0.49039 0.63831 0.8147 0.0
Cd23 Cd 0.52983 0.6722 0.81958 0.0
O24 O 0.49952 0.62366 0.73673 0.0
Cd25 Cd 0.53719 0.64627 0.74701 0.0
O26 O 0.56832 0.64467 0.77145 0.0
C27 C 0.57061 0.64062 0.8267 0.0
O28 O 0.5555 0.63984 0.86683 0.0
C29 C 0.48429 0.6229 0.77346 0.0
C30 C 0.53189 0.71127 0.76477 0.0
O31 O 0.53511 0.69674 0.73373 0.0
O32 O 0.52779 0.70737 0.8218 0.0
O33 O 0.8393 0.49037 0.18743 0.0
Cd34 Cd 0.84683 0.5305 0.1821 0.0
O35 O 0.85705 0.49375 0.10025 0.0
Cd36 Cd 0.87312 0.53171 0.09519 0.0
O37 O 0.90654 0.56443 0.09619 0.0
C38 C 0.91765 0.57084 0.146 0.0
O39 O 0.90763 0.55874 0.19543 0.0
C40 C 0.84516 0.48125 0.14507 0.0
C41 C 0.81114 0.53289 0.1214 0.0
O42 O 0.82874 0.53459 0.09239 0.0
O43 O 0.81046 0.53011 0.17915 0.0
O44 O 0.35535 0.85214 0.40484 0.0
Cd45 Cd 0.3239 0.86072 0.38852 0.0
O46 O 0.35827 0.8605 0.50224 0.0
Cd47 Cd 0.33745 0.87751 0.49335 0.0
O48 O 0.33934 0.91087 0.47493 0.0
C49 C 0.34432 0.92542 0.51793 0.0
O50 O 0.34608 0.91909 0.57334 0.0
C51 C 0.3643 0.85299 0.45649 0.0
C52 C 0.28343 0.82189 0.3453 0.0
O53 O 0.28711 0.82552 0.40245 0.0
O54 O 0.2989 0.83663 0.30864 0.0
O55 O 0.49965 0.35898 0.80586 0.0
Cd56 Cd 0.46048 0.3275 0.78003 0.0
O57 O 0.48948 0.36201 0.89916 0.0
Cd58 Cd 0.45214 0.34149 0.88012 0.0
O59 O 0.42118 0.34411 0.86085 0.0
C60 C 0.41701 0.3473 0.80646 0.0
O61 O 0.43027 0.34682 0.76263 0.0
C62 C 0.50519 0.36793 0.85859 0.0
C63 C 0.46075 0.28804 0.73643 0.0
O64 O 0.46256 0.304 0.7001 0.0
O65 O 0.45882 0.29076 0.7934 0.0
O66 O 0.49073 0.8556 0.58812 0.0
Cd67 Cd 0.53088 0.8642 0.60234 0.0
O68 O 0.49456 0.86133 0.48932 0.0
Cd69 Cd 0.53263 0.87892 0.49197 0.0
O70 O 0.56409 0.91336 0.48536 0.0
C71 C 0.57115 0.92625 0.53225 0.0
O72 O 0.56057 0.91764 0.5844 0.0
C73 C 0.48177 0.85503 0.53669 0.0
C74 C 0.53181 0.82663 0.65731 0.0
O75 O 0.53185 0.82844 0.59932 0.0
O76 O 0.53148 0.84266 0.6892 0.0
O77 O 0.63137 0.49569 0.91483 0.0
Cd78 Cd 0.66244 0.53563 0.93587 0.0
O79 O 0.63452 0.50054 0.81572 0.0
Cd80 Cd 0.65506 0.5386 0.82196 0.0
O81 O 0.65241 0.57 0.81026 0.0
C82 C 0.64375 0.57621 0.85299 0.0
O83 O 0.63873 0.56484 0.90488 0.0
C84 C 0.62556 0.48727 0.86164 0.0
C85 C 0.69939 0.53568 0.99668 0.0
O86 O 0.68234 0.53504 0.02602 0.0
O87 O 0.69904 0.53644 0.93853 0.0
O88 O 0.13115 0.63467 0.20297 0.0
Cd89 Cd 0.12322 0.66589 0.2298 0.0
O90 O 0.11624 0.63048 0.11161 0.0
Cd91 Cd 0.09961 0.65118 0.13011 0.0
O92 O 0.06509 0.64753 0.13943 0.0
C93 C 0.05469 0.6415 0.1905 0.0
O94 O 0.06598 0.6399 0.23749 0.0
C95 C 0.12686 0.62517 0.15082 0.0
C96 C 0.16323 0.70512 0.27344 0.0
O97 O 0.14896 0.68909 0.30969 0.0
O98 O 0.15852 0.70262 0.21657 0.0
O99 O 0.49955 0.13755 0.59865 0.0
Cd100 Cd 0.46003 0.1297 0.62052 0.0
O101 O 0.49229 0.12835 0.50208 0.0
Cd102 Cd 0.45462 0.11155 0.51643 0.0
O103 O 0.42355 0.07814 0.53818 0.0
C104 C 0.41301 0.06356 0.49583 0.0
O105 O 0.41985 0.06989 0.43944 0.0
C106 C 0.50667 0.13617 0.54589 0.0
C107 C 0.46013 0.16937 0.66406 0.0
O108 O 0.46104 0.15476 0.70054 0.0
O109 O 0.45914 0.16519 0.60695 0.0
O110 O 0.35061 0.5037 0.89218 0.0
Cd111 Cd 0.31948 0.46391 0.91552 0.0
O112 O 0.36078 0.49288 0.80846 0.0
Cd113 Cd 0.33962 0.45541 0.82611 0.0
O114 O 0.3416 0.42386 0.84218 0.0
C115 C 0.34707 0.4153 0.79766 0.0
O116 O 0.34917 0.42448 0.74345 0.0
C117 C 0.36317 0.50895 0.8445 0.0
C118 C 0.27952 0.46276 0.96105 0.0
O119 O 0.29566 0.46473 0.9967 0.0
O120 O 0.28231 0.46137 0.90385 0.0
O121 O 0.84832 0.35576 0.19668 0.0
Cd122 Cd 0.85686 0.32495 0.22349 0.0
O123 O 0.86512 0.36135 0.10705 0.0
Cd124 Cd 0.88191 0.34087 0.12602 0.0
O125 O 0.91641 0.34457 0.13632 0.0
C126 C 0.92643 0.35046 0.18765 0.0
O127 O 0.91478 0.35191 0.23428 0.0
C128 C 0.85349 0.3659 0.1452 0.0
C129 C 0.81738 0.28479 0.26656 0.0
O130 O 0.83109 0.30095 0.30299 0.0
O131 O 0.82234 0.28763 0.20973 0.0
H132 H 0.26856 0.46475 0.07936 0.0
H133 H 0.24268 0.45922 0.89685 0.0
H134 H 0.20765 0.45807 0.93632 0.0
H135 H 0.18437 0.45872 0.02256 0.0
H136 H 0.21027 0.46425 0.20504 0.0
H137 H 0.24524 0.46529 0.16557 0.0
C138 C 0.25527 0.46329 0.04816 0.0
C139 C 0.25829 0.46208 0.98522 0.0
C140 C 0.23514 0.46263 0.07114 0.0
C141 C 0.24085 0.46018 0.94551 0.0
C142 C 0.22078 0.45952 0.96803 0.0
C143 C 0.19764 0.46013 0.05374 0.0
C144 C 0.19466 0.4614 0.11669 0.0
C145 C 0.21775 0.46074 0.03075 0.0
C146 C 0.21208 0.46323 0.15638 0.0
C147 C 0.23211 0.46384 0.13386 0.0
H148 H 0.73357 0.20035 0.40393 0.0
H149 H 0.71414 0.17619 0.21968 0.0
H150 H 0.74864 0.21115 0.18156 0.0
H151 H 0.78427 0.24866 0.20036 0.0
H152 H 0.80348 0.273 0.38455 0.0
H153 H 0.76912 0.23792 0.42271 0.0
C154 C 0.73688 0.2027 0.35542 0.0
C155 C 0.72127 0.18563 0.31479 0.0
C156 C 0.75672 0.22291 0.33373 0.0
C157 C 0.72584 0.18902 0.25205 0.0
C158 C 0.74558 0.20903 0.23015 0.0
C159 C 0.78097 0.2463 0.24886 0.0
C160 C 0.79647 0.26346 0.28948 0.0
C161 C 0.76113 0.22609 0.27056 0.0
C162 C 0.79186 0.26011 0.3522 0.0
C163 C 0.7722 0.24003 0.37412 0.0
H164 H 0.53545 0.79173 0.60242 0.0
H165 H 0.52836 0.81635 0.77837 0.0
H166 H 0.52783 0.78296 0.827 0.0
H167 H 0.52901 0.74657 0.81968 0.0
H168 H 0.53657 0.72215 0.6439 0.0
H169 H 0.5373 0.75566 0.59526 0.0
C170 C 0.53381 0.78981 0.65142 0.0
C171 C 0.5319 0.80652 0.68662 0.0
C172 C 0.53358 0.77058 0.67919 0.0
C173 C 0.52986 0.80378 0.7501 0.0
C174 C 0.52954 0.78466 0.77801 0.0
C175 C 0.53083 0.74857 0.77072 0.0
C176 C 0.53268 0.73182 0.73554 0.0
C177 C 0.53132 0.76793 0.743 0.0
C178 C 0.53512 0.73476 0.67215 0.0
C179 C 0.53552 0.75392 0.64423 0.0
H180 H 0.73815 0.53782 0.94733 0.0
H181 H 0.70413 0.53261 0.119 0.0
H182 H 0.73566 0.53137 0.17257 0.0
H183 H 0.77273 0.53146 0.1708 0.0
H184 H 0.80687 0.53684 0.99921 0.0
H185 H 0.77546 0.53833 0.94564 0.0
C186 C 0.73763 0.53644 0.99647 0.0
C187 C 0.71876 0.53529 0.02902 0.0
C188 C 0.75584 0.53575 0.02708 0.0
C189 C 0.71842 0.53353 0.09273 0.0
C190 C 0.73645 0.53281 0.12346 0.0
C191 C 0.77333 0.53297 0.12168 0.0
C192 C 0.79214 0.534 0.08913 0.0
C193 C 0.75522 0.53385 0.09111 0.0
C194 C 0.79262 0.53601 0.02547 0.0
C195 C 0.77464 0.53685 0.99474 0.0
H196 H 0.19773 0.74044 0.20748 0.0
H197 H 0.17672 0.71629 0.39159 0.0
H198 H 0.21191 0.75027 0.42997 0.0
H199 H 0.24872 0.78678 0.41139 0.0
H200 H 0.2699 0.81072 0.22721 0.0
H201 H 0.23458 0.77688 0.18889 0.0
C202 C 0.20081 0.74261 0.25602 0.0
C203 C 0.18457 0.72583 0.29655 0.0
C204 C 0.22114 0.76215 0.27784 0.0
C205 C 0.18891 0.72891 0.35931 0.0
C206 C 0.20905 0.74835 0.38136 0.0
C207 C 0.24562 0.78462 0.36285 0.0
C208 C 0.26196 0.8013 0.32229 0.0
C209 C 0.22529 0.76507 0.34105 0.0
C210 C 0.25765 0.79817 0.25952 0.0
C211 C 0.23744 0.77881 0.23751 0.0
H212 H 0.45977 0.25278 0.80237 0.0
H213 H 0.46193 0.27618 0.61815 0.0
H214 H 0.46185 0.24157 0.57961 0.0
H215 H 0.4611 0.20462 0.59807 0.0
H216 H 0.45936 0.18144 0.78233 0.0
H217 H 0.45935 0.216 0.82085 0.0
C218 C 0.46021 0.25032 0.75378 0.0
C219 C 0.46082 0.26706 0.71326 0.0
C220 C 0.46024 0.23041 0.73187 0.0
C221 C 0.46147 0.2636 0.65042 0.0
C222 C 0.46141 0.24379 0.62829 0.0
C223 C 0.4607 0.20711 0.64667 0.0
C224 C 0.4602 0.19042 0.6872 0.0
C225 C 0.46078 0.22708 0.66858 0.0
C226 C 0.45976 0.19399 0.75005 0.0
C227 C 0.45974 0.21375 0.77217 0.0
H228 H 0.14475 0.60574 0.22753 0.0
H229 H 0.12025 0.60178 0.04396 0.0
H230 H 0.12303 0.56697 0.02581 0.0
H231 H 0.12844 0.53545 0.065 0.0
H232 H 0.1521 0.53865 0.24908 0.0
H233 H 0.1539 0.57609 0.26362 0.0
C234 C 0.14035 0.59749 0.18325 0.0
C235 C 0.13201 0.60625 0.13749 0.0
C236 C 0.14166 0.5772 0.17326 0.0
C237 C 0.12652 0.59535 0.08027 0.0
C238 C 0.12805 0.57537 0.06981 0.0
C239 C 0.13427 0.54444 0.10812 0.0
C240 C 0.13982 0.53405 0.15609 0.0
C241 C 0.13497 0.56579 0.11648 0.0
C242 C 0.14759 0.54613 0.21141 0.0
C243 C 0.14855 0.56753 0.21988 0.0
H244 H 0.52873 0.13903 0.43878 0.0
H245 H 0.53908 0.14413 0.63297 0.0
H246 H 0.57645 0.14586 0.6196 0.0
H247 H 0.60403 0.14156 0.55382 0.0
H248 H 0.59382 0.13655 0.35964 0.0
H249 H 0.55874 0.13944 0.37205 0.0
C250 C 0.5393 0.14085 0.47816 0.0
C251 C 0.53091 0.1411 0.53683 0.0
C252 C 0.56075 0.14168 0.47023 0.0
C253 C 0.545 0.14376 0.58727 0.0
C254 C 0.56636 0.14465 0.57972 0.0
C255 C 0.59431 0.14141 0.51411 0.0
C256 C 0.60137 0.13849 0.45598 0.0
C257 C 0.57407 0.14294 0.52156 0.0
C258 C 0.58875 0.13866 0.40497 0.0
C259 C 0.5686 0.14021 0.41203 0.0
H260 H 0.44925 0.6112 0.85606 0.0
H261 H 0.46508 0.58901 0.68683 0.0
H262 H 0.42766 0.55279 0.6908 0.0
H263 H 0.39252 0.52567 0.74739 0.0
H264 H 0.37697 0.547 0.91826 0.0
H265 H 0.41201 0.58537 0.90799 0.0
C266 C 0.44437 0.59862 0.81953 0.0
C267 C 0.46014 0.60275 0.77162 0.0
C268 C 0.42292 0.57755 0.82257 0.0
C269 C 0.45343 0.58624 0.72459 0.0
C270 C 0.43202 0.56546 0.72683 0.0
C271 C 0.39658 0.53878 0.78209 0.0
C272 C 0.38225 0.5333 0.83391 0.0
C273 C 0.41695 0.56065 0.77645 0.0
C274 C 0.38773 0.55065 0.87804 0.0
C275 C 0.40784 0.57259 0.87233 0.0
H276 H 0.83451 0.38467 0.22106 0.0
H277 H 0.86107 0.38984 0.03877 0.0
H278 H 0.85844 0.42472 0.02071 0.0
H279 H 0.85273 0.45605 0.05993 0.0
H280 H 0.82704 0.45172 0.24276 0.0
H281 H 0.82491 0.41409 0.25686 0.0
C282 C 0.83937 0.39319 0.17705 0.0
C283 C 0.84828 0.38476 0.13168 0.0
C284 C 0.83816 0.41354 0.16712 0.0
C285 C 0.85437 0.39601 0.0748 0.0
C286 C 0.85292 0.41604 0.06439 0.0
C287 C 0.84637 0.44677 0.10266 0.0
C288 C 0.84037 0.4569 0.15047 0.0
C289 C 0.8455 0.42533 0.11078 0.0
C290 C 0.83191 0.44444 0.20525 0.0
C291 C 0.83077 0.42294 0.21346 0.0
H292 H 0.45583 0.84719 0.43455 0.0
H293 H 0.45252 0.85077 0.62989 0.0
H294 H 0.41452 0.84807 0.62258 0.0
H295 H 0.38438 0.84911 0.56028 0.0
H296 H 0.38774 0.84553 0.36492 0.0
H297 H 0.42337 0.84351 0.3729 0.0
C298 C 0.44667 0.84706 0.4756 0.0
C299 C 0.45721 0.84954 0.53261 0.0
C300 C 0.42487 0.84566 0.4711 0.0
C301 C 0.44491 0.84902 0.58536 0.0
C302 C 0.42319 0.84757 0.58124 0.0
C303 C 0.39271 0.84756 0.51945 0.0
C304 C 0.38355 0.84783 0.46207 0.0
C305 C 0.41333 0.84658 0.52428 0.0
C306 C 0.39444 0.8455 0.4097 0.0
C307 C 0.4149 0.84444 0.41417 0.0
H308 H 0.5966 0.45696 0.9478 0.0
H309 H 0.61173 0.46258 0.75558 0.0
H310 H 0.57707 0.42453 0.73878 0.0
H311 H 0.54025 0.39186 0.7769 0.0
H312 H 0.52412 0.38731 0.96837 0.0
H313 H 0.56149 0.42256 0.98717 0.0
C314 C 0.59256 0.44972 0.90234 0.0
C315 C 0.60665 0.46276 0.85298 0.0
C316 C 0.57228 0.42806 0.89274 0.0
C317 C 0.60111 0.45304 0.79439 0.0
C318 C 0.58124 0.43128 0.78467 0.0
C319 C 0.54506 0.39832 0.82292 0.0
C320 C 0.52927 0.38705 0.87103 0.0
C321 C 0.56634 0.41895 0.83325 0.0
C322 C 0.53583 0.39573 0.93037 0.0
C323 C 0.5572 0.41593 0.94118 0.0
H324 H 0.03386 0.40532 0.24339 0.0
H325 H 0.03728 0.39575 0.05039 0.0
H326 H -0.00507 0.37076 0.04719 0.0
H327 H 0.95674 0.35537 0.09696 0.0
H328 H 0.95339 0.36603 0.28942 0.0
H329 H -0.00413 0.38658 0.29501 0.0
C330 C 0.02541 0.39752 0.20073 0.0
C331 C 0.03875 0.40271 0.14709 0.0
C332 C 0.001 0.38347 0.19898 0.0
C333 C 0.02747 0.39223 0.09234 0.0
C334 C 0.00321 0.37797 0.0904 0.0
C335 C 0.96526 0.36186 0.14034 0.0
C336 C 0.95185 0.35942 0.19251 0.0
C337 C 0.98976 0.37405 0.14311 0.0
C338 C 0.96324 0.36782 0.24839 0.0
C339 C 0.98757 0.37965 0.25165 0.0
H340 H 0.63166 0.03258 0.4616 0.0
H341 H 0.62811 0.0398 0.65572 0.0
H342 H 0.60866 -0.00247 0.66787 0.0
H343 H 0.58905 0.95845 0.62268 0.0
H344 H 0.5918 0.95101 0.42848 0.0
H345 H 0.61538 0.99336 0.41734 0.0
C346 C 0.62694 0.02494 0.50667 0.0
C347 C 0.63109 0.03939 0.55755 0.0
C348 C 0.61544 0.00053 0.51336 0.0
C349 C 0.62498 0.02915 0.61564 0.0
C350 C 0.61378 0.00493 0.62268 0.0
C351 C 0.59505 0.96604 0.57796 0.0
C352 C 0.58837 0.95153 0.52647 0.0
C353 C 0.60835 0.99043 0.57174 0.0
C354 C 0.59653 0.96172 0.46893 0.0
C355 C 0.60997 0.98598 0.46245 0.0
H356 H 0.60096 0.63556 0.75291 0.0
H357 H 0.57781 0.62829 0.93939 0.0
H358 H 0.60059 0.6099 0.96537 0.0
H359 H 0.62345 0.59199 0.93298 0.0
H360 H 0.64595 0.59841 0.74613 0.0
H361 H 0.62733 0.62126 0.72286 0.0
C362 C 0.60117 0.63028 0.79944 0.0
C363 C 0.58739 0.63302 0.84389 0.0
C364 C 0.61406 0.61938 0.81401 0.0
C365 C 0.58805 0.62623 0.90406 0.0
C366 C 0.60104 0.61563 0.919 0.0
C367 C 0.62458 0.59865 0.88733 0.0
C368 C 0.63581 0.59317 0.84124 0.0
C369 C 0.61354 0.6115 0.87399 0.0
C370 C 0.63729 0.60218 0.78247 0.0
C371 C 0.62656 0.61521 0.76902 0.0
H372 H 0.94685 0.5862 0.24303 0.0
H373 H 0.94491 0.59623 0.04978 0.0
H374 H 0.98726 0.6214 0.04785 0.0
H375 H 0.02507 0.63677 0.09882 0.0
H376 H 0.02695 0.62564 0.29151 0.0
H377 H 0.98443 0.60496 0.29582 0.0
C378 C 0.95562 0.59415 0.20058 0.0
C379 C 0.9427 0.58903 0.14651 0.0
C380 C 0.98003 0.60829 0.19956 0.0
C381 C 0.9544 0.59969 0.09205 0.0
C382 C 0.97866 0.61404 0.09084 0.0
C383 C 0.01622 0.63016 0.14197 0.0
C384 C 0.02923 0.6325 0.19459 0.0
C385 C 0.9917 0.61789 0.14399 0.0
C386 C 0.01741 0.62393 0.25016 0.0
C387 C -0.00694 0.61202 0.25268 0.0
H388 H 0.38894 0.02786 0.41659 0.0
H389 H 0.39934 0.04345 0.60823 0.0
H390 H 0.37666 0.00187 0.63218 0.0
H391 H 0.35775 0.96107 0.59844 0.0
H392 H 0.34809 0.9455 0.40671 0.0
H393 H 0.36635 0.98706 0.3833 0.0
C394 C 0.38599 0.02222 0.46365 0.0
C395 C 0.39615 0.03878 0.51045 0.0
C396 C 0.37319 -0.00176 0.47715 0.0
C397 C 0.3919 0.03111 0.5712 0.0
C398 C 0.37898 0.0073 0.58499 0.0
C399 C 0.35933 0.96672 0.55155 0.0
C400 C 0.35186 0.95016 0.50442 0.0
C401 C 0.37015 0.99069 0.53828 0.0
C402 C 0.35384 0.95783 0.44394 0.0
C403 C 0.36436 0.98163 0.43044 0.0
H404 H 0.39122 0.35596 0.8881 0.0
H405 H 0.4051 0.35686 0.696 0.0
H406 H 0.38232 0.37575 0.67577 0.0
H407 H 0.36226 0.39588 0.71347 0.0
H408 H 0.34937 0.39612 0.9058 0.0
H409 H 0.36769 0.37267 0.92483 0.0
C410 C 0.38898 0.35995 0.8417 0.0
C411 C 0.40015 0.35526 0.79376 0.0
C412 C 0.37617 0.3712 0.8304 0.0
C413 C 0.3969 0.36044 0.73388 0.0
C414 C 0.38391 0.37131 0.72222 0.0
C415 C 0.36314 0.39054 0.75951 0.0
C416 C 0.35473 0.39805 0.80818 0.0
C417 C 0.37406 0.37739 0.77028 0.0
C418 C 0.35585 0.39076 0.86746 0.0
C419 C 0.3664 0.3774 0.87845 0.0
loop_
_geom_bond_atom_site_label_1
_geom_bond_atom_site_label_2
_geom_bond_distance
_geom_bond_site_symmetry_2
_ccdc_geom_bond_type
O0 Cd1 2.300 . S
O0 C7 1.275 . S
Cd1 O0 2.300 . S
Cd1 O9 2.381 . S
Cd1 O10 2.378 . S
O2 Cd3 2.385 . S
O2 C7 1.255 . S
Cd3 O2 2.385 . S
Cd3 O4 2.317 . S
O4 Cd3 2.317 . S
O4 C5 1.232 . S
C5 O4 1.232 . S
C5 O6 1.218 . S
O6 C5 1.218 . S
C7 O0 1.275 . S
C7 O2 1.255 . S
C8 O9 1.258 . S
C8 O10 1.256 . S
O9 Cd1 2.381 . S
O9 C8 1.258 . S
O10 Cd1 2.378 . S
O10 C8 1.256 . S
O11 Cd12 2.300 . S
O11 C18 1.275 . S
Cd12 O11 2.300 . S
Cd12 O20 2.381 . S
Cd12 O21 2.378 . S
O13 Cd14 2.385 . S
O13 C18 1.255 . S
Cd14 O13 2.385 . S
Cd14 O15 2.317 . S
O15 Cd14 2.317 . S
O15 C16 1.232 . S
C16 O15 1.232 . S
C16 O17 1.218 . S
O17 C16 1.218 . S
C18 O11 1.275 . S
C18 O13 1.255 . S
C19 O20 1.258 . S
C19 O21 1.256 . S
O20 Cd12 2.381 . S
O20 C19 1.258 . S
O21 Cd12 2.378 . S
O21 C19 1.256 . S
O22 Cd23 2.300 . S
O22 C29 1.275 . S
Cd23 O22 2.300 . S
Cd23 O31 2.381 . S
Cd23 O32 2.378 . S
O24 Cd25 2.385 . S
O24 C29 1.255 . S
Cd25 O24 2.385 . S
Cd25 O26 2.317 . S
O26 Cd25 2.317 . S
O26 C27 1.232 . S
C27 O26 1.232 . S
C27 O28 1.218 . S
O28 C27 1.218 . S
C29 O22 1.275 . S
C29 O24 1.255 . S
C30 O31 1.258 . S
C30 O32 1.256 . S
O31 Cd23 2.381 . S
O31 C30 1.258 . S
O32 Cd23 2.378 . S
O32 C30 1.256 . S
O33 Cd34 2.300 . S
O33 C40 1.275 . S
Cd34 O33 2.300 . S
Cd34 O42 2.381 . S
Cd34 O43 2.378 . S
O35 Cd36 2.385 . S
O35 C40 1.255 . S
Cd36 O35 2.385 . S
Cd36 O37 2.317 . S
O37 Cd36 2.317 . S
O37 C38 1.232 . S
C38 O37 1.232 . S
C38 O39 1.218 . S
O39 C38 1.218 . S
C40 O33 1.275 . S
C40 O35 1.255 . S
C41 O42 1.258 . S
C41 O43 1.256 . S
O42 Cd34 2.381 . S
O42 C41 1.258 . S
O43 Cd34 2.378 . S
O43 C41 1.256 . S
O44 Cd45 2.300 . S
O44 C51 1.275 . S
Cd45 O44 2.300 . S
Cd45 O53 2.381 . S
Cd45 O54 2.378 . S
O46 Cd47 2.385 . S
O46 C51 1.255 . S
Cd47 O46 2.385 . S
Cd47 O48 2.317 . S
O48 Cd47 2.317 . S
O48 C49 1.232 . S
C49 O48 1.232 . S
C49 O50 1.218 . S
O50 C49 1.218 . S
C51 O44 1.275 . S
C51 O46 1.255 . S
C52 O53 1.258 . S
C52 O54 1.256 . S
O53 Cd45 2.381 . S
O53 C52 1.258 . S
O54 Cd45 2.378 . S
O54 C52 1.256 . S
O55 Cd56 2.300 . S
O55 C62 1.275 . S
Cd56 O55 2.300 . S
Cd56 O64 2.381 . S
Cd56 O65 2.378 . S
O57 Cd58 2.385 . S
O57 C62 1.255 . S
Cd58 O57 2.385 . S
Cd58 O59 2.317 . S
O59 Cd58 2.317 . S
O59 C60 1.232 . S
C60 O59 1.232 . S
C60 O61 1.218 . S
O61 C60 1.218 . S
C62 O55 1.275 . S
C62 O57 1.255 . S
C63 O64 1.258 . S
C63 O65 1.256 . S
O64 Cd56 2.381 . S
O64 C63 1.258 . S
O65 Cd56 2.378 . S
O65 C63 1.256 . S
O66 Cd67 2.300 . S
O66 C73 1.275 . S
Cd67 O66 2.300 . S
Cd67 O75 2.381 . S
Cd67 O76 2.378 . S
O68 Cd69 2.385 . S
O68 C73 1.255 . S
Cd69 O68 2.385 . S
Cd69 O70 2.317 . S
O70 Cd69 2.317 . S
O70 C71 1.232 . S
C71 O70 1.232 . S
C71 O72 1.218 . S
O72 C71 1.218 . S
C73 O66 1.275 . S
C73 O68 1.255 . S
C74 O75 1.258 . S
C74 O76 1.256 . S
O75 Cd67 2.381 . S
O75 C74 1.258 . S
O76 Cd67 2.378 . S
O76 C74 1.256 . S
O77 Cd78 2.300 . S
O77 C84 1.275 . S
Cd78 O77 2.300 . S
Cd78 O86 2.381 . S
Cd78 O87 2.378 . S
O79 Cd80 2.385 . S
O79 C84 1.255 . S
Cd80 O79 2.385 . S
Cd80 O81 2.317 . S
O81 Cd80 2.317 . S
O81 C82 1.232 . S
C82 O81 1.232 . S
C82 O83 1.218 . S
O83 C82 1.218 . S
C84 O77 1.275 . S
C84 O79 1.255 . S
C85 O86 1.258 . S
C85 O87 1.256 . S
O86 Cd78 2.381 . S
O86 C85 1.258 . S
O87 Cd78 2.378 . S
O87 C85 1.256 . S
O88 Cd89 2.300 . S
O88 C95 1.275 . S
Cd89 O88 2.300 . S
Cd89 O97 2.381 . S
Cd89 O98 2.378 . S
O90 Cd91 2.385 . S
O90 C95 1.255 . S
Cd91 O90 2.385 . S
Cd91 O92 2.317 . S
O92 Cd91 2.317 . S
O92 C93 1.232 . S
C93 O92 1.232 . S
C93 O94 1.218 . S
O94 C93 1.218 . S
C95 O88 1.275 . S
C95 O90 1.255 . S
C96 O97 1.258 . S
C96 O98 1.256 . S
O97 Cd89 2.381 . S
O97 C96 1.258 . S
O98 Cd89 2.378 . S
O98 C96 1.256 . S
O99 Cd100 2.300 . S
O99 C106 1.275 . S
Cd100 O99 2.300 . S
Cd100 O108 2.381 . S
Cd100 O109 2.378 . S
O101 Cd102 2.385 . S
O101 C106 1.255 . S
Cd102 O101 2.385 . S
Cd102 O103 2.317 . S
O103 Cd102 2.317 . S
O103 C104 1.232 . S
C104 O103 1.232 . S
C104 O105 1.218 . S
O105 C104 1.218 . S
C106 O99 1.275 . S
C106 O101 1.255 . S
C107 O108 1.258 . S
C107 O109 1.256 . S
O108 Cd100 2.381 . S
O108 C107 1.258 . S
O109 Cd100 2.378 . S
O109 C107 1.256 . S
O110 Cd111 2.300 . S
O110 C117 1.275 . S
Cd111 O110 2.300 . S
Cd111 O119 2.381 . S
Cd111 O120 2.378 . S
O112 Cd113 2.385 . S
O112 C117 1.255 . S
Cd113 O112 2.385 . S
Cd113 O114 2.317 . S
O114 Cd113 2.317 . S
O114 C115 1.232 . S
C115 O114 1.232 . S
C115 O116 1.218 . S
O116 C115 1.218 . S
C117 O110 1.275 . S
C117 O112 1.255 . S
C118 O119 1.258 . S
C118 O120 1.256 . S
O119 Cd111 2.381 . S
O119 C118 1.258 . S
O120 Cd111 2.378 . S
O120 C118 1.256 . S
O121 Cd122 2.300 . S
O121 C128 1.275 . S
Cd122 O121 2.300 . S
Cd122 O130 2.381 . S
Cd122 O131 2.378 . S
O123 Cd124 2.385 . S
O123 C128 1.255 . S
Cd124 O123 2.385 . S
Cd124 O125 2.317 . S
O125 Cd124 2.317 . S
O125 C126 1.232 . S
C126 O125 1.232 . S
C126 O127 1.218 . S
O127 C126 1.218 . S
C128 O121 1.275 . S
C128 O123 1.255 . S
C129 O130 1.258 . S
C129 O131 1.256 . S
O130 Cd122 2.381 . S
O130 C129 1.258 . S
O131 Cd122 2.378 . S
O131 C129 1.256 . S
H132 C138 0.930 . S
H133 C141 0.930 . S
H134 C142 0.930 . S
H135 C143 0.930 . S
H136 C146 0.930 . S
H137 C147 0.930 . S
C138 H132 0.930 . S
C138 C139 1.355 . S
C138 C140 1.415 1_556 S
C139 C138 1.355 . S
C139 C141 1.419 . S
C140 C138 1.415 1_554 S
C140 C145 1.425 1_554 S
C140 C147 1.409 . S
C141 H133 0.930 . S
C141 C139 1.419 . S
C141 C142 1.362 . S
C142 H134 0.930 . S
C142 C141 1.362 . S
C142 C145 1.409 . S
C143 H135 0.930 . S
C143 C144 1.355 . S
C143 C145 1.415 1_554 S
C144 C143 1.355 . S
C144 C146 1.419 . S
C145 C140 1.425 1_556 S
C145 C142 1.409 . S
C145 C143 1.415 1_556 S
C146 H136 0.930 . S
C146 C144 1.419 . S
C146 C147 1.362 . S
C147 H137 0.930 . S
C147 C140 1.409 . S
C147 C146 1.362 . S
H148 C154 0.930 . S
H149 C157 0.930 . S
H150 C158 0.930 . S
H151 C159 0.930 . S
H152 C162 0.930 . S
H153 C163 0.930 . S
C154 H148 0.930 . S
C154 C155 1.355 . S
C154 C156 1.415 . S
C155 C154 1.355 . S
C155 C157 1.419 . S
C156 C154 1.415 . S
C156 C161 1.425 . S
C156 C163 1.409 . S
C157 H149 0.930 . S
C157 C155 1.419 . S
C157 C158 1.362 . S
C158 H150 0.930 . S
C158 C157 1.362 . S
C158 C161 1.409 . S
C159 H151 0.930 . S
C159 C160 1.355 . S
C159 C161 1.415 . S
C160 C159 1.355 . S
C160 C162 1.419 . S
C161 C156 1.425 . S
C161 C158 1.409 . S
C161 C159 1.415 . S
C162 H152 0.930 . S
C162 C160 1.419 . S
C162 C163 1.362 . S
C163 H153 0.930 . S
C163 C156 1.409 . S
C163 C162 1.362 . S
H164 C170 0.930 . S
H165 C173 0.930 . S
H166 C174 0.930 . S
H167 C175 0.930 . S
H168 C178 0.930 . S
H169 C179 0.930 . S
C170 H164 0.930 . S
C170 C171 1.355 . S
C170 C172 1.415 . S
C171 C170 1.355 . S
C171 C173 1.419 . S
C172 C170 1.415 . S
C172 C177 1.425 . S
C172 C179 1.409 . S
C173 H165 0.930 . S
C173 C171 1.419 . S
C173 C174 1.362 . S
C174 H166 0.930 . S
C174 C173 1.362 . S
C174 C177 1.409 . S
C175 H167 0.930 . S
C175 C176 1.355 . S
C175 C177 1.415 . S
C176 C175 1.355 . S
C176 C178 1.419 . S
C177 C172 1.425 . S
C177 C174 1.409 . S
C177 C175 1.415 . S
C178 H168 0.930 . S
C178 C176 1.419 . S
C178 C179 1.362 . S
C179 H169 0.930 . S
C179 C172 1.409 . S
C179 C178 1.362 . S
H180 C186 0.930 . S
H181 C189 0.930 1_554 S
H182 C190 0.930 . S
H183 C191 0.930 . S
H184 C194 0.930 1_556 S
H185 C195 0.930 . S
C186 H180 0.930 . S
C186 C187 1.355 . S
C186 C188 1.415 . S
C187 C186 1.355 . S
C187 C189 1.419 . S
C188 C186 1.415 . S
C188 C193 1.425 1_556 S
C188 C195 1.409 . S
C189 H181 0.930 1_556 S
C189 C187 1.419 . S
C189 C190 1.362 1_556 S
C190 H182 0.930 . S
C190 C189 1.362 1_554 S
C190 C193 1.409 . S
C191 H183 0.930 . S
C191 C192 1.355 . S
C191 C193 1.415 . S
C192 C191 1.355 . S
C192 C194 1.419 . S
C193 C188 1.425 1_554 S
C193 C190 1.409 . S
C193 C191 1.415 . S
C194 H184 0.930 1_554 S
C194 C192 1.419 . S
C194 C195 1.362 1_554 S
C195 H185 0.930 . S
C195 C188 1.409 . S
C195 C194 1.362 1_556 S
H196 C202 0.930 . S
H197 C205 0.930 . S
H198 C206 0.930 . S
H199 C207 0.930 . S
H200 C210 0.930 . S
H201 C211 0.930 . S
C202 H196 0.930 . S
C202 C203 1.355 . S
C202 C204 1.415 . S
C203 C202 1.355 . S
C203 C205 1.419 . S
C204 C202 1.415 . S
C204 C209 1.425 . S
C204 C211 1.409 . S
C205 H197 0.930 . S
C205 C203 1.419 . S
C205 C206 1.362 . S
C206 H198 0.930 . S
C206 C205 1.362 . S
C206 C209 1.409 . S
C207 H199 0.930 . S
C207 C208 1.355 . S
C207 C209 1.415 . S
C208 C207 1.355 . S
C208 C210 1.419 . S
C209 C204 1.425 . S
C209 C206 1.409 . S
C209 C207 1.415 . S
C210 H200 0.930 . S
C210 C208 1.419 . S
C210 C211 1.362 . S
C211 H201 0.930 . S
C211 C204 1.409 . S
C211 C210 1.362 . S
H212 C218 0.930 . S
H213 C221 0.930 . S
H214 C222 0.930 . S
H215 C223 0.930 . S
H216 C226 0.930 . S
H217 C227 0.930 . S
C218 H212 0.930 . S
C218 C219 1.355 . S
C218 C220 1.415 . S
C219 C218 1.355 . S
C219 C221 1.419 . S
C220 C218 1.415 . S
C220 C225 1.425 . S
C220 C227 1.409 . S
C221 H213 0.930 . S
C221 C219 1.419 . S
C221 C222 1.362 . S
C222 H214 0.930 . S
C222 C221 1.362 . S
C222 C225 1.409 . S
C223 H215 0.930 . S
C223 C224 1.355 . S
C223 C225 1.415 . S
C224 C223 1.355 . S
C224 C226 1.419 . S
C225 C220 1.425 . S
C225 C222 1.409 . S
C225 C223 1.415 . S
C226 H216 0.930 . S
C226 C224 1.419 . S
C226 C227 1.362 . S
C227 H217 0.930 . S
C227 C220 1.409 . S
C227 C226 1.362 . S
H228 C234 0.930 . S
H229 C237 0.930 . S
H230 C238 0.930 . S
H231 C239 0.930 . S
H232 C242 0.930 . S
H233 C243 0.930 . S
C234 H228 0.930 . S
C234 C235 1.355 . S
C234 C236 1.415 . S
C235 C234 1.355 . S
C235 C237 1.419 . S
C236 C234 1.415 . S
C236 C241 1.425 . S
C236 C243 1.409 . S
C237 H229 0.930 . S
C237 C235 1.419 . S
C237 C238 1.362 . S
C238 H230 0.930 . S
C238 C237 1.362 . S
C238 C241 1.409 . S
C239 H231 0.930 . S
C239 C240 1.355 . S
C239 C241 1.415 . S
C240 C239 1.355 . S
C240 C242 1.419 . S
C241 C236 1.425 . S
C241 C238 1.409 . S
C241 C239 1.415 . S
C242 H232 0.930 . S
C242 C240 1.419 . S
C242 C243 1.362 . S
C243 H233 0.930 . S
C243 C236 1.409 . S
C243 C242 1.362 . S
H244 C250 0.930 . S
H245 C253 0.930 . S
H246 C254 0.930 . S
H247 C255 0.930 . S
H248 C258 0.930 . S
H249 C259 0.930 . S
C250 H244 0.930 . S
C250 C251 1.355 . S
C250 C252 1.415 . S
C251 C250 1.355 . S
C251 C253 1.419 . S
C252 C250 1.415 . S
C252 C257 1.425 . S
C252 C259 1.409 . S
C253 H245 0.930 . S
C253 C251 1.419 . S
C253 C254 1.362 . S
C254 H246 0.930 . S
C254 C253 1.362 . S
C254 C257 1.409 . S
C255 H247 0.930 . S
C255 C256 1.355 . S
C255 C257 1.415 . S
C256 C255 1.355 . S
C256 C258 1.419 . S
C257 C252 1.425 . S
C257 C254 1.409 . S
C257 C255 1.415 . S
C258 H248 0.930 . S
C258 C256 1.419 . S
C258 C259 1.362 . S
C259 H249 0.930 . S
C259 C252 1.409 . S
C259 C258 1.362 . S
H260 C266 0.930 . S
H261 C269 0.930 . S
H262 C270 0.930 . S
H263 C271 0.930 . S
H264 C274 0.930 . S
H265 C275 0.930 . S
C266 H260 0.930 . S
C266 C267 1.355 . S
C266 C268 1.415 . S
C267 C266 1.355 . S
C267 C269 1.419 . S
C268 C266 1.415 . S
C268 C273 1.425 . S
C268 C275 1.409 . S
C269 H261 0.930 . S
C269 C267 1.419 . S
C269 C270 1.362 . S
C270 H262 0.930 . S
C270 C269 1.362 . S
C270 C273 1.409 . S
C271 H263 0.930 . S
C271 C272 1.355 . S
C271 C273 1.415 . S
C272 C271 1.355 . S
C272 C274 1.419 . S
C273 C268 1.425 . S
C273 C270 1.409 . S
C273 C271 1.415 . S
C274 H264 0.930 . S
C274 C272 1.419 . S
C274 C275 1.362 . S
C275 H265 0.930 . S
C275 C268 1.409 . S
C275 C274 1.362 . S
H276 C282 0.930 . S
H277 C285 0.930 . S
H278 C286 0.930 . S
H279 C287 0.930 . S
H280 C290 0.930 . S
H281 C291 0.930 . S
C282 H276 0.930 . S
C282 C283 1.355 . S
C282 C284 1.415 . S
C283 C282 1.355 . S
C283 C285 1.419 . S
C284 C282 1.415 . S
C284 C289 1.425 . S
C284 C291 1.409 . S
C285 H277 0.930 . S
C285 C283 1.419 . S
C285 C286 1.362 . S
C286 H278 0.930 . S
C286 C285 1.362 . S
C286 C289 1.409 . S
C287 H279 0.930 . S
C287 C288 1.355 . S
C287 C289 1.415 . S
C288 C287 1.355 . S
C288 C290 1.419 . S
C289 C284 1.425 . S
C289 C286 1.409 . S
C289 C287 1.415 . S
C290 H280 0.930 . S
C290 C288 1.419 . S
C290 C291 1.362 . S
C291 H281 0.930 . S
C291 C284 1.409 . S
C291 C290 1.362 . S
H292 C298 0.930 . S
H293 C301 0.930 . S
H294 C302 0.930 . S
H295 C303 0.930 . S
H296 C306 0.930 . S
H297 C307 0.930 . S
C298 H292 0.930 . S
C298 C299 1.355 . S
C298 C300 1.415 . S
C299 C298 1.355 . S
C299 C301 1.419 . S
C300 C298 1.415 . S
C300 C305 1.425 . S
C300 C307 1.409 . S
C301 H293 0.930 . S
C301 C299 1.419 . S
C301 C302 1.362 . S
C302 H294 0.930 . S
C302 C301 1.362 . S
C302 C305 1.409 . S
C303 H295 0.930 . S
C303 C304 1.355 . S
C303 C305 1.415 . S
C304 C303 1.355 . S
C304 C306 1.419 . S
C305 C300 1.425 . S
C305 C302 1.409 . S
C305 C303 1.415 . S
C306 H296 0.930 . S
C306 C304 1.419 . S
C306 C307 1.362 . S
C307 H297 0.930 . S
C307 C300 1.409 . S
C307 C306 1.362 . S
H308 C314 0.930 . S
H309 C317 0.930 . S
H310 C318 0.930 . S
H311 C319 0.930 . S
H312 C322 0.930 . S
H313 C323 0.930 . S
C314 H308 0.930 . S
C314 C315 1.355 . S
C314 C316 1.415 . S
C315 C314 1.355 . S
C315 C317 1.419 . S
C316 C314 1.415 . S
C316 C321 1.425 . S
C316 C323 1.409 . S
C317 H309 0.930 . S
C317 C315 1.419 . S
C317 C318 1.362 . S
C318 H310 0.930 . S
C318 C317 1.362 . S
C318 C321 1.409 . S
C319 H311 0.930 . S
C319 C320 1.355 . S
C319 C321 1.415 . S
C320 C319 1.355 . S
C320 C322 1.419 . S
C321 C316 1.425 . S
C321 C318 1.409 . S
C321 C319 1.415 . S
C322 H312 0.930 . S
C322 C320 1.419 . S
C322 C323 1.362 . S
C323 H313 0.930 . S
C323 C316 1.409 . S
C323 C322 1.362 . S
H324 C330 0.930 . S
H325 C333 0.930 . S
H326 C334 0.930 . S
H327 C335 0.930 . S
H328 C338 0.930 . S
H329 C339 0.930 . S
C330 H324 0.930 . S
C330 C331 1.355 . S
C330 C332 1.415 . S
C331 C330 1.355 . S
C331 C333 1.419 . S
C332 C330 1.415 . S
C332 C337 1.425 1_455 S
C332 C339 1.409 1_455 S
C333 H325 0.930 . S
C333 C331 1.419 . S
C333 C334 1.362 . S
C334 H326 0.930 . S
C334 C333 1.362 . S
C334 C337 1.409 1_455 S
C335 H327 0.930 . S
C335 C336 1.355 . S
C335 C337 1.415 . S
C336 C335 1.355 . S
C336 C338 1.419 . S
C337 C332 1.425 1_655 S
C337 C334 1.409 1_655 S
C337 C335 1.415 . S
C338 H328 0.930 . S
C338 C336 1.419 . S
C338 C339 1.362 . S
C339 H329 0.930 . S
C339 C332 1.409 1_655 S
C339 C338 1.362 . S
H340 C346 0.930 . S
H341 C349 0.930 . S
H342 C350 0.930 . S
H343 C351 0.930 . S
H344 C354 0.930 . S
H345 C355 0.930 . S
C346 H340 0.930 . S
C346 C347 1.355 . S
C346 C348 1.415 . S
C347 C346 1.355 . S
C347 C349 1.419 . S
C348 C346 1.415 . S
C348 C353 1.425 1_545 S
C348 C355 1.409 1_545 S
C349 H341 0.930 . S
C349 C347 1.419 . S
C349 C350 1.362 . S
C350 H342 0.930 . S
C350 C349 1.362 . S
C350 C353 1.409 1_545 S
C351 H343 0.930 . S
C351 C352 1.355 . S
C351 C353 1.415 . S
C352 C351 1.355 . S
C352 C354 1.419 . S
C353 C348 1.425 1_565 S
C353 C350 1.409 1_565 S
C353 C351 1.415 . S
C354 H344 0.930 . S
C354 C352 1.419 . S
C354 C355 1.362 . S
C355 H345 0.930 . S
C355 C348 1.409 1_565 S
C355 C354 1.362 . S
H356 C362 0.930 . S
H357 C365 0.930 . S
H358 C366 0.930 . S
H359 C367 0.930 . S
H360 C370 0.930 . S
H361 C371 0.930 . S
C362 H356 0.930 . S
C362 C363 1.355 . S
C362 C364 1.415 . S
C363 C362 1.355 . S
C363 C365 1.419 . S
C364 C362 1.415 . S
C364 C369 1.425 . S
C364 C371 1.409 . S
C365 H357 0.930 . S
C365 C363 1.419 . S
C365 C366 1.362 . S
C366 H358 0.930 . S
C366 C365 1.362 . S
C366 C369 1.409 . S
C367 H359 0.930 . S
C367 C368 1.355 . S
C367 C369 1.415 . S
C368 C367 1.355 . S
C368 C370 1.419 . S
C369 C364 1.425 . S
C369 C366 1.409 . S
C369 C367 1.415 . S
C370 H360 0.930 . S
C370 C368 1.419 . S
C370 C371 1.362 . S
C371 H361 0.930 . S
C371 C364 1.409 . S
C371 C370 1.362 . S
H372 C378 0.930 . S
H373 C381 0.930 . S
H374 C382 0.930 . S
H375 C383 0.930 . S
H376 C386 0.930 . S
H377 C387 0.930 . S
C378 H372 0.930 . S
C378 C379 1.355 . S
C378 C380 1.415 . S
C379 C378 1.355 . S
C379 C381 1.419 . S
C380 C378 1.415 . S
C380 C385 1.425 1_655 S
C380 C387 1.409 1_655 S
C381 H373 0.930 . S
C381 C379 1.419 . S
C381 C382 1.362 . S
C382 H374 0.930 . S
C382 C381 1.362 . S
C382 C385 1.409 1_655 S
C383 H375 0.930 . S
C383 C384 1.355 . S
C383 C385 1.415 . S
C384 C383 1.355 . S
C384 C386 1.419 . S
C385 C380 1.425 1_455 S
C385 C382 1.409 1_455 S
C385 C383 1.415 . S
C386 H376 0.930 . S
C386 C384 1.419 . S
C386 C387 1.362 . S
C387 H377 0.930 . S
C387 C380 1.409 1_455 S
C387 C386 1.362 . S
H388 C394 0.930 . S
H389 C397 0.930 . S
H390 C398 0.930 . S
H391 C399 0.930 . S
H392 C402 0.930 . S
H393 C403 0.930 . S
C394 H388 0.930 . S
C394 C395 1.355 . S
C394 C396 1.415 . S
C395 C394 1.355 . S
C395 C397 1.419 . S
C396 C394 1.415 . S
C396 C401 1.425 1_545 S
C396 C403 1.409 1_545 S
C397 H389 0.930 . S
C397 C395 1.419 . S
C397 C398 1.362 . S
C398 H390 0.930 . S
C398 C397 1.362 . S
C398 C401 1.409 1_545 S
C399 H391 0.930 . S
C399 C400 1.355 . S
C399 C401 1.415 . S
C400 C399 1.355 . S
C400 C402 1.419 . S
C401 C396 1.425 1_565 S
C401 C398 1.409 1_565 S
C401 C399 1.415 . S
C402 H392 0.930 . S
C402 C400 1.419 . S
C402 C403 1.362 . S
C403 H393 0.930 . S
C403 C396 1.409 1_565 S
C403 C402 1.362 . S
H404 C410 0.930 . S
H405 C413 0.930 . S
H406 C414 0.930 . S
H407 C415 0.930 . S
H408 C418 0.930 . S
H409 C419 0.930 . S
C410 H404 0.930 . S
C410 C411 1.355 . S
C410 C412 1.415 . S
C411 C410 1.355 . S
C411 C413 1.419 . S
C412 C410 1.415 . S
C412 C417 1.425 . S
C412 C419 1.409 . S
C413 H405 0.930 . S
C413 C411 1.419 . S
C413 C414 1.362 . S
C414 H406 0.930 . S
C414 C413 1.362 . S
C414 C417 1.409 . S
C415 H407 0.930 . S
C415 C416 1.355 . S
C415 C417 1.415 . S
C416 C415 1.355 . S
C416 C418 1.419 . S
C417 C412 1.425 . S
C417 C414 1.409 . S
C417 C415 1.415 . S
C418 H408 0.930 . S
C418 C416 1.419 . S
C418 C419 1.362 . S
C419 H409 0.930 . S
C419 C412 1.409 . S
C419 C418 1.362 . S
C139 C118 1.615 . S
C144 C8 1.601 . S
C155 C19 1.598 . S
C160 C129 1.609 . S
C171 C74 1.611 . S
C176 C30 1.598 . S
C187 C85 1.597 . S
C192 C41 1.604 . S
C203 C96 1.600 . S
C208 C52 1.613 . S
C219 C63 1.597 . S
C224 C107 1.609 . S
C235 C95 1.629 . S
C240 C7 1.590 . S
C251 C106 1.612 . S
C256 C18 1.600 . S
C267 C29 1.629 . S
C272 C117 1.590 . S
C283 C128 1.628 . S
C288 C40 1.593 . S
C299 C73 1.612 . S
C304 C51 1.601 . S
C315 C84 1.594 . S
C320 C62 1.628 . S
C331 C5 1.479 . S
C336 C126 1.457 . S
C347 C16 1.472 . S
C352 C71 1.491 . S
C363 C27 1.446 . S
C368 C82 1.469 . S
C379 C38 1.487 . S
C384 C93 1.466 . S
C395 C104 1.504 . S
C400 C49 1.492 . S
C411 C60 1.492 . S
C416 C115 1.504 . S
