# Generated by pormake.
# Topology msp, (4)-cn, num edge types: 1
# Building blocks:
#     Node 0, Type 0, BuildingBlock: ESEHIV_clean_sbu_0, # of connection points: 4
#     Node 1, Type 0, BuildingBlock: ESEHIV_clean_sbu_0, # of connection points: 4
#     Node 2, Type 0, BuildingBlock: ESEHIV_clean_sbu_0, # of connection points: 4
#     Node 3, Type 0, BuildingBlock: ESEHIV_clean_sbu_0, # of connection points: 4
#     Node 4, Type 0, BuildingBlock: ESEHIV_clean_sbu_0, # of connection points: 4
#     Node 5, Type 0, BuildingBlock: ESEHIV_clean_sbu_0, # of connection points: 4
#     Node 6, Type 0, BuildingBlock: ESEHIV_clean_sbu_0, # of connection points: 4
#     Node 7, Type 0, BuildingBlock: ESEHIV_clean_sbu_0, # of connection points: 4
#     Edge 8, Type (0, 0), BuildingBlock: MIFKUJ_clean_linker_0, # of connection points: 2
#     Edge 9, Type (0, 0), BuildingBlock: MIFKUJ_clean_linker_0, # of connection points: 2
#     Edge 10, Type (0, 0), BuildingBlock: MIFKUJ_clean_linker_0, # of connection points: 2
#     Edge 11, Type (0, 0), BuildingBlock: MIFKUJ_clean_linker_0, # of connection points: 2
#     Edge 12, Type (0, 0), BuildingBlock: MIFKUJ_clean_linker_0, # of connection points: 2
#     Edge 13, Type (0, 0), BuildingBlock: MIFKUJ_clean_linker_0, # of connection points: 2
#     Edge 14, Type (0, 0), BuildingBlock: MIFKUJ_clean_linker_0, # of connection points: 2
#     Edge 15, Type (0, 0), BuildingBlock: MIFKUJ_clean_linker_0, # of connection points: 2
#     Edge 16, Type (0, 0), BuildingBlock: MIFKUJ_clean_linker_0, # of connection points: 2
#     Edge 17, Type (0, 0), BuildingBlock: MIFKUJ_clean_linker_0, # of connection points: 2
#     Edge 18, Type (0, 0), BuildingBlock: MIFKUJ_clean_linker_0, # of connection points: 2
#     Edge 19, Type (0, 0), BuildingBlock: MIFKUJ_clean_linker_0, # of connection points: 2
#     Edge 20, Type (0, 0), BuildingBlock: MIFKUJ_clean_linker_0, # of connection points: 2
#     Edge 21, Type (0, 0), BuildingBlock: MIFKUJ_clean_linker_0, # of connection points: 2
#     Edge 22, Type (0, 0), BuildingBlock: MIFKUJ_clean_linker_0, # of connection points: 2
#     Edge 23, Type (0, 0), BuildingBlock: MIFKUJ_clean_linker_0, # of connection points: 2
# Relax obj value: 0.063
# Max RMSD: 0.171
# Mean RMSD: 0.156
data_MOF--net-msp--node1-ESEHIV_clean_sbu_0--edge1-MIFKUJ_clean_linker_0
_symmetry_space_group_name_H-M    P1
_symmetry_Int_Tables_number       1
_symmetry_cell_setting            triclinic
loop_
_symmetry_equiv_pos_as_xyz
'x, y, z'
_cell_length_a     29.271109
_cell_length_b     28.070637
_cell_length_c     63.348805
_cell_angle_alpha  90.124527
_cell_angle_beta   99.011586
_cell_angle_gamma 90.050403
loop_
_atom_site_label
_atom_site_type_symbol
_atom_site_fract_x
_atom_site_fract_y
_atom_site_fract_z
_atom_type_partial_charge
Cu0 Cu 0.02482 0.31222 0.3731 0.0
N1 N 0.05098 0.26744 0.39333 0.0
N2 N 0.09318 0.23731 0.42273 0.0
C3 C 0.07983 0.27707 0.41157 0.0
C4 C 0.07182 0.20103 0.41115 0.0
C5 C 0.04549 0.21978 0.39309 0.0
O6 O 0.01841 0.37069 0.38902 0.0
C7 C 0.06823 0.27786 0.34052 0.0
O8 O 0.04562 0.23993 0.34527 0.0
H9 H 0.09142 0.31244 0.41652 0.0
H10 H 0.02373 0.20004 0.3807 0.0
N11 N 0.96512 0.29255 0.36156 0.0
N12 N 0.8988 0.281 0.33934 0.0
C13 C 0.94369 0.29417 0.34109 0.0
C14 C 0.93287 0.27765 0.37301 0.0
C15 C 0.89194 0.27057 0.35938 0.0
C16 C 0.05209 0.39562 0.39823 0.0
O17 O 0.09384 0.38731 0.39392 0.0
H18 H 0.96011 0.30641 0.32792 0.0
H19 H 0.93856 0.27337 0.39019 0.0
O20 O 0.06354 0.31646 0.35061 0.0
H21 H 0.0745 0.16379 0.41557 0.0
H22 H 0.85953 0.25896 0.36388 0.0
Cu23 Cu 0.49151 0.31542 0.66176 0.0
N24 N 0.46308 0.26669 0.64459 0.0
N25 N 0.41508 0.23418 0.6175 0.0
C26 C 0.42795 0.27427 0.62859 0.0
C27 C 0.44355 0.19983 0.62688 0.0
C28 C 0.47319 0.22007 0.64369 0.0
O29 O 0.48477 0.36961 0.64238 0.0
C30 C 0.41655 0.32696 0.68478 0.0
O31 O 0.39307 0.33595 0.66579 0.0
H32 H 0.41331 0.30913 0.62469 0.0
H33 H 0.50068 0.20237 0.65417 0.0
N34 N 0.55414 0.30159 0.67014 0.0
N35 N 0.62393 0.29245 0.68982 0.0
C36 C 0.5784 0.30001 0.69008 0.0
C37 C 0.58521 0.29437 0.65691 0.0
C38 C 0.62829 0.2889 0.66898 0.0
C39 C 0.51575 0.40006 0.63994 0.0
O40 O 0.55333 0.40322 0.65423 0.0
H41 H 0.56326 0.3058 0.7044 0.0
H42 H 0.57711 0.29418 0.63966 0.0
O43 O 0.46006 0.32049 0.68662 0.0
H44 H 0.44322 0.16291 0.62191 0.0
H45 H 0.66037 0.28287 0.66291 0.0
Cu46 Cu 0.94877 0.67923 0.64283 0.0
N47 N 0.90069 0.66159 0.65751 0.0
N48 N 0.84936 0.66618 0.68021 0.0
C49 C 0.88933 0.68324 0.67498 0.0
C50 C 0.83543 0.63207 0.66551 0.0
C51 C 0.86712 0.62937 0.65154 0.0
O52 O 0.99811 0.70604 0.66355 0.0
C53 C 0.89026 0.75007 0.62071 0.0
O54 O 0.87396 0.75483 0.63876 0.0
H55 H 0.90871 0.71279 0.68294 0.0
H56 H 0.86502 0.60671 0.63759 0.0
N57 N 0.97156 0.62649 0.62969 0.0
N58 N 0.99213 0.58044 0.60387 0.0
C59 C 0.96525 0.61688 0.60855 0.0
C60 C 1.00322 0.59488 0.6387 0.0
C61 C 0.01604 0.56647 0.62281 0.0
C62 C 0.03838 0.71524 0.65946 0.0
O63 O 0.04684 0.71002 0.63982 0.0
H64 H 0.94339 0.63794 0.59673 0.0
H65 H 0.01747 0.594 0.65551 0.0
O66 O 0.9246 0.72269 0.61998 0.0
H67 H 0.80418 0.61106 0.66465 0.0
H68 H 0.04171 0.53845 0.62496 0.0
Cu69 Cu 0.58326 0.66946 0.38674 0.0
N70 N 0.62655 0.65267 0.36913 0.0
N71 N 0.67653 0.65857 0.34588 0.0
C72 C 0.63967 0.67817 0.35305 0.0
C73 C 0.68685 0.61917 0.35783 0.0
C74 C 0.65596 0.6156 0.37211 0.0
O75 O 0.52657 0.69279 0.36972 0.0
C76 C 0.59356 0.7317 0.42257 0.0
O77 O 0.54942 0.72313 0.42258 0.0
H78 H 0.62421 0.71168 0.34745 0.0
H79 H 0.65603 0.58888 0.38439 0.0
N80 N 0.56747 0.6162 0.40186 0.0
N81 N 0.55292 0.57075 0.42914 0.0
C82 C 0.57464 0.61001 0.42323 0.0
C83 C 0.54081 0.57939 0.39388 0.0
C84 C 0.53185 0.5513 0.4106 0.0
C85 C 0.5227 0.73125 0.35902 0.0
O86 O 0.55853 0.75977 0.35983 0.0
H87 H 0.5945 0.63454 0.43422 0.0
H88 H 0.52715 0.57452 0.37714 0.0
O89 O 0.6129 0.71494 0.40754 0.0
H90 H 0.71525 0.59517 0.3566 0.0
H91 H 0.50963 0.52027 0.40914 0.0
Cu92 Cu 0.53007 0.80597 0.86934 0.0
N93 N 0.56697 0.76399 0.88733 0.0
N94 N 0.61708 0.73757 0.9151 0.0
C95 C 0.59066 0.7744 0.90676 0.0
C96 C 0.60948 0.70252 0.90031 0.0
C97 C 0.57851 0.71895 0.8832 0.0
O98 O 0.51391 0.85778 0.88732 0.0
C99 C 0.60664 0.82383 0.84776 0.0
O100 O 0.63104 0.82213 0.867 0.0
H101 H 0.58988 0.80897 0.91425 0.0
H102 H 0.56599 0.69985 0.86859 0.0
N103 N 0.47523 0.77528 0.85775 0.0
N104 N 0.41024 0.75638 0.83574 0.0
C105 C 0.44868 0.78392 0.83877 0.0
C106 C 0.45307 0.74111 0.86703 0.0
C107 C 0.41301 0.72938 0.85352 0.0
C108 C 0.54051 0.89099 0.89564 0.0
O109 O 0.58124 0.8965 0.88974 0.0
H110 H 0.45693 0.81064 0.82767 0.0
H111 H 0.46512 0.72606 0.88261 0.0
O112 O 0.56265 0.82224 0.84572 0.0
H113 H 0.62529 0.6676 0.90168 0.0
H114 H 0.38805 0.70277 0.85653 0.0
Cu115 Cu 1.00758 0.81578 0.16065 0.0
N116 N 0.97948 0.77158 0.14059 0.0
N117 N 0.93572 0.74271 0.11127 0.0
C118 C 0.94768 0.78155 0.12343 0.0
C119 C 0.96127 0.70675 0.12105 0.0
C120 C 0.98819 0.72469 0.1392 0.0
O121 O 0.01485 0.874 0.14475 0.0
C122 C 0.9279 0.81742 0.18153 0.0
O123 O 0.90496 0.8149 0.16201 0.0
H124 H 0.93425 0.81683 0.11961 0.0
H125 H 1.01284 0.70513 0.15044 0.0
N126 N 0.06725 0.79475 0.17124 0.0
N127 N 0.13443 0.78187 0.19258 0.0
C128 C 0.08962 0.79473 0.19156 0.0
C129 C 0.09879 0.78117 0.15912 0.0
C130 C 0.14024 0.77326 0.17221 0.0
C131 C 0.98223 0.90099 0.1362 0.0
O132 O 0.94061 0.89527 0.1411 0.0
H133 H 0.074 0.80589 0.20516 0.0
H134 H 0.09232 0.77859 0.14187 0.0
O135 O 0.97188 0.82082 0.18423 0.0
H136 H 0.96042 0.67019 0.11553 0.0
H137 H 0.17234 0.76256 0.16712 0.0
Cu138 Cu 0.4525 0.16823 0.14515 0.0
N139 N 0.41389 0.15134 0.16511 0.0
N140 N 0.36513 0.1571 0.1891 0.0
C141 C 0.3918 0.18097 0.17698 0.0
C142 C 0.37043 0.11066 0.18436 0.0
C143 C 0.40023 0.10729 0.16963 0.0
O144 O 0.51033 0.19452 0.16009 0.0
C145 C 0.37951 0.19497 0.11529 0.0
O146 O 0.36463 0.1545 0.1221 0.0
H147 H 0.39488 0.21927 0.17651 0.0
H148 H 0.41012 0.07488 0.16234 0.0
N149 N 0.46748 0.11499 0.12964 0.0
N150 N 0.48046 0.06992 0.102 0.0
C151 C 0.46784 0.11325 0.10837 0.0
C152 C 0.48113 0.0715 0.13698 0.0
C153 C 0.48868 0.04347 0.11994 0.0
C154 C 0.51289 0.23018 0.17266 0.0
O155 O 0.47508 0.2537 0.1747 0.0
H156 H 0.45876 0.14309 0.09775 0.0
H157 H 0.48585 0.06103 0.1536 0.0
O158 O 0.41867 0.21076 0.12416 0.0
H159 H 0.35313 0.08096 0.19056 0.0
H160 H 0.50038 0.00685 0.12074 0.0
Cu161 Cu 0.06692 0.177 0.88752 0.0
N162 N 0.11158 0.15923 0.8707 0.0
N163 N 0.16143 0.16296 0.84725 0.0
C164 C 0.12369 0.18239 0.85374 0.0
C165 C 0.17296 0.12568 0.86045 0.0
C166 C 0.14222 0.1235 0.87484 0.0
O167 O 1.01192 0.201 0.86943 0.0
C168 C 0.13133 0.24365 0.90977 0.0
O169 O 0.1513 0.24258 0.89262 0.0
H170 H 0.1069 0.21447 0.84709 0.0
H171 H 0.14311 0.09864 0.88792 0.0
N172 N 0.04839 0.12395 0.9019 0.0
N173 N 0.03166 0.07854 0.92867 0.0
C174 C 0.05666 0.11571 0.92315 0.0
C175 C 0.01746 0.09067 0.89373 0.0
C176 C 1.00698 0.06268 0.9102 0.0
C177 C 1.00937 0.23958 0.85882 0.0
O178 O 0.04546 0.26798 0.86056 0.0
H179 H 0.07829 0.1383 0.93447 0.0
H180 H 1.00193 0.08845 0.8771 0.0
O181 O 0.09337 0.22146 0.90975 0.0
H182 H 0.20208 0.10216 0.86003 0.0
H183 H 0.98217 0.03378 0.90881 0.0
H184 H 0.9707 0.42385 0.41071 0.0
H185 H 0.96036 0.46021 0.44478 0.0
H186 H 0.10834 0.46805 0.46322 0.0
H187 H 0.11904 0.43181 0.42919 0.0
H188 H 0.06483 0.42495 0.49373 0.0
H189 H 0.04614 0.56814 0.45137 0.0
H190 H 1.01169 0.618 0.42101 0.0
H191 H 0.87788 0.60298 0.43999 0.0
H192 H 0.91143 0.55246 0.4703 0.0
H193 H 0.07122 0.55103 0.59088 0.0
H194 H 0.08095 0.52358 0.55524 0.0
H195 H 0.93468 0.54216 0.53374 0.0
H196 H 0.92546 0.57173 0.56927 0.0
H197 H 0.97644 0.57144 0.5042 0.0
H198 H 0.99088 0.42847 0.54548 0.0
H199 H 0.02111 0.37459 0.57508 0.0
H200 H 0.15671 0.38295 0.5575 0.0
H201 H 0.12747 0.43748 0.528 0.0
C202 C 1.00109 0.43417 0.42182 0.0
C203 C 0.04573 0.42488 0.41716 0.0
C204 C 0.9951 0.455 0.44131 0.0
C205 C 0.03357 0.46688 0.45659 0.0
C206 C 0.07814 0.45914 0.45169 0.0
C207 C 0.08418 0.4387 0.43213 0.0
C208 C 0.02741 0.4844 0.47819 0.0
C209 C 0.04613 0.4574 0.49608 0.0
C210 C 1.00142 0.52566 0.48118 0.0
C211 C 0.98125 0.55613 0.46299 0.0
C212 C 1.00931 0.57513 0.44896 0.0
C213 C 0.98995 0.60358 0.43179 0.0
C214 C 0.94261 0.61355 0.42854 0.0
C215 C 0.91454 0.59519 0.4425 0.0
C216 C 0.93372 0.56668 0.4597 0.0
C217 C 0.04111 0.54887 0.57858 0.0
C218 C 0.9975 0.56318 0.58291 0.0
C219 C 0.04663 0.53298 0.55818 0.0
C220 C 1.00842 0.52967 0.54173 0.0
C221 C 0.9648 0.5442 0.54605 0.0
C222 C 0.95947 0.56105 0.56637 0.0
C223 C 0.01414 0.51213 0.51997 0.0
C224 C 0.99522 0.53899 0.50198 0.0
C225 C 0.0393 0.47016 0.51684 0.0
C226 C 0.05706 0.43758 0.53468 0.0
C227 C 0.02724 0.41921 0.54805 0.0
C228 C 0.0442 0.38851 0.5648 0.0
C229 C 0.09086 0.3756 0.56825 0.0
C230 C 0.12063 0.39317 0.55488 0.0
C231 C 0.10387 0.42395 0.53813 0.0
H232 H 0.1039 0.35173 0.58119 0.0
H233 H 0.92769 0.63559 0.41523 0.0
H234 H 0.57 0.62305 0.46598 0.0
H235 H 0.56175 0.59736 0.50189 0.0
H236 H 0.51776 0.45844 0.47764 0.0
H237 H 0.52687 0.48328 0.44164 0.0
H238 H 0.46163 0.49578 0.50562 0.0
H239 H 0.62531 0.46734 0.5055 0.0
H240 H 0.7022 0.49274 0.4984 0.0
H241 H 0.70027 0.61088 0.54131 0.0
H242 H 0.62371 0.58583 0.54897 0.0
H243 H 0.47598 0.36563 0.60131 0.0
H244 H 0.48128 0.39748 0.56613 0.0
H245 H 0.55609 0.51962 0.5953 0.0
H246 H 0.554 0.48542 0.63076 0.0
H247 H 0.59487 0.49582 0.56462 0.0
H248 H 0.43377 0.51904 0.56807 0.0
H249 H 0.35522 0.49612 0.57372 0.0
H250 H 0.34776 0.39323 0.52304 0.0
H251 H 0.42655 0.41493 0.51732 0.0
C252 C 0.5592 0.58679 0.46815 0.0
C253 C 0.54924 0.55533 0.45065 0.0
C254 C 0.55426 0.57223 0.4888 0.0
C255 C 0.53925 0.52592 0.49249 0.0
C256 C 0.52915 0.49444 0.47516 0.0
C257 C 0.53433 0.50884 0.45451 0.0
C258 C 0.53425 0.51023 0.51445 0.0
C259 C 0.49075 0.49529 0.51852 0.0
C260 C 0.57192 0.51093 0.53139 0.0
C261 C 0.61888 0.52476 0.52776 0.0
C262 C 0.64147 0.4986 0.51351 0.0
C263 C 0.68501 0.51288 0.50944 0.0
C264 C 0.70621 0.55333 0.5195 0.0
C265 C 0.68402 0.57936 0.53374 0.0
C266 C 0.64066 0.56502 0.53803 0.0
C267 C 0.49294 0.39969 0.60027 0.0
C268 C 0.51407 0.42337 0.61885 0.0
C269 C 0.49575 0.41813 0.58004 0.0
C270 C 0.51804 0.46183 0.5778 0.0
C271 C 0.53851 0.48597 0.59643 0.0
C272 C 0.53703 0.46665 0.61673 0.0
C273 C 0.52186 0.48093 0.55608 0.0
C274 C 0.56532 0.49655 0.55194 0.0
C275 C 0.48384 0.48123 0.53909 0.0
C276 C 0.43622 0.46843 0.54237 0.0
C277 C 0.41548 0.49134 0.55821 0.0
C278 C 0.37092 0.47854 0.56143 0.0
C279 C 0.34658 0.44312 0.5488 0.0
C280 C 0.3667 0.42056 0.53286 0.0
C281 C 0.41128 0.43315 0.5296 0.0
H282 H 0.31211 0.43324 0.55133 0.0
H283 H 0.73978 0.56456 0.51623 0.0
H284 H 0.45859 0.98399 0.084 0.0
H285 H 0.46733 0.95807 0.04797 0.0
H286 H 0.52341 0.09582 0.03582 0.0
H287 H 0.51257 0.12234 0.07161 0.0
H288 H 0.47015 0.06973 1.00191 0.0
H289 H 0.59302 0.99104 0.04697 0.0
H290 H 0.63014 0.94143 0.0769 0.0
H291 H 0.54779 0.82147 0.05183 0.0
H292 H 0.51002 0.87041 0.0218 0.0
H293 H 0.5796 0.97309 0.91415 0.0
H294 H 0.56654 0.00926 0.94808 0.0
H295 H 0.46494 0.90145 0.95474 0.0
H296 H 0.47667 0.86597 0.92076 0.0
H297 H 0.54457 0.91492 0.9908 0.0
H298 H 0.42267 -0.00152 0.9451 0.0
H299 H 0.39094 0.05022 0.91495 0.0
H300 H 0.47979 0.1643 0.94149 0.0
H301 H 0.51259 0.11294 0.97165 0.0
C302 C 0.47288 0.00861 0.07362 0.0
C303 C 0.48517 0.05505 0.08063 0.0
C304 C 0.47815 0.99374 0.05305 0.0
C305 C 0.49714 0.02451 0.0392 0.0
C306 C 0.50893 0.0712 0.04614 0.0
C307 C 0.5027 0.0864 0.06659 0.0
C308 C 0.50408 0.00809 0.01747 0.0
C309 C 0.48709 0.03619 0.99959 0.0
C310 C 0.52579 0.9641 1.01419 0.0
C311 C 0.54841 0.93453 0.03224 0.0
C312 C 0.58264 0.95415 0.04791 0.0
C313 C 0.60389 0.92611 0.06486 0.0
C314 C 0.59135 0.87831 0.06626 0.0
C315 C 0.55758 0.85844 0.05069 0.0
C316 C 0.53629 0.8863 0.03369 0.0
C317 C 0.55387 0.95764 0.92265 0.0
C318 C 0.52914 0.91669 0.91469 0.0
C319 C 0.54647 0.97833 0.94202 0.0
C320 C 0.51482 0.95794 0.9539 0.0
C321 C 0.48945 0.91775 0.94579 0.0
C322 C 0.4961 0.89767 0.92628 0.0
C323 C 0.5103 0.97631 0.97548 0.0
C324 C 0.52788 0.94853 0.99327 0.0
C325 C 0.49 0.02089 0.97867 0.0
C326 C 0.47056 0.05163 0.96047 0.0
C327 C 0.43588 0.03439 0.94437 0.0
C328 C 0.41758 0.0637 0.92731 0.0
C329 C 0.43347 0.11046 0.92626 0.0
C330 C 0.4676 0.12804 0.9423 0.0
C331 C 0.48604 0.09884 0.95938 0.0
H332 H 0.41922 0.13312 0.91306 0.0
H333 H 0.60781 0.85666 0.0794 0.0
H334 H 0.06375 0.92281 0.12216 0.0
H335 H 0.07342 0.95918 0.08808 0.0
H336 H 0.92605 0.98051 0.07321 0.0
H337 H 0.91602 0.94428 0.10724 0.0
H338 H 0.96196 0.93281 0.04152 0.0
H339 H 0.99824 0.07424 0.08429 0.0
H340 H 0.04083 0.12061 0.11418 0.0
H341 H 0.16841 0.09383 0.0908 0.0
H342 H 0.12667 0.04666 0.06094 0.0
H343 H 0.95366 0.05327 0.94358 0.0
H344 H 0.94659 0.02787 0.97977 0.0
H345 H 0.09456 0.04054 0.99806 0.0
H346 H 0.101 0.06878 0.962 0.0
H347 H 0.05968 0.07088 0.02882 0.0
H348 H 0.03104 0.92774 0.98828 0.0
H349 H 0.99526 0.87294 0.95994 0.0
H350 H 0.86302 0.89225 0.97999 0.0
H351 H 0.89786 0.94772 1.00826 0.0
C352 C 0.03345 0.93615 0.11186 0.0
C353 C 0.98907 0.93048 0.11747 0.0
C354 C 0.03907 0.95701 0.09236 0.0
C355 C 1.00046 0.97259 0.07805 0.0
C356 C 0.95634 0.96873 0.08399 0.0
C357 C 0.95071 0.94822 0.10354 0.0
C358 C 1.00553 0.98916 0.05623 0.0
C359 C 0.98281 0.96339 0.03867 0.0
C360 C 0.03431 0.02784 0.0526 0.0
C361 C 0.05935 0.05652 0.07048 0.0
C362 C 0.03542 0.0779 0.08561 0.0
C363 C 0.05941 0.10439 0.10254 0.0
C364 C 0.10731 0.11006 0.10442 0.0
C365 C 0.13131 0.08936 0.08934 0.0
C366 C 0.10749 0.06278 0.0724 0.0
C367 C 0.98465 0.05032 0.95532 0.0
C368 C 0.02793 0.06259 0.94996 0.0
C369 C 0.98069 0.03548 0.97603 0.0
C370 C 0.02014 0.03097 0.99174 0.0
C371 C 0.06348 0.0435 0.98636 0.0
C372 C 0.06726 0.05955 0.96575 0.0
C373 C 0.01597 0.01444 1.01382 0.0
C374 C 0.03888 0.04014 0.0315 0.0
C375 C 0.98836 0.97469 0.01762 0.0
C376 C 0.96699 0.94241 1.00022 0.0
C377 C 0.99422 0.92077 0.98648 0.0
C378 C 0.97412 0.88952 0.97045 0.0
C379 C 0.92685 0.87935 0.96809 0.0
C380 C 0.89958 0.9004 0.98175 0.0
C381 C 0.91949 0.93173 0.99779 0.0
H382 H 0.91141 0.85493 0.95575 0.0
H383 H 0.12581 0.13056 0.11754 0.0
H384 H 0.52595 0.28735 0.20803 0.0
H385 H 0.59715 0.30022 0.23297 0.0
H386 H 0.67175 0.21281 0.1938 0.0
H387 H 0.59991 0.19818 0.16917 0.0
H388 H 0.69668 0.18854 0.23262 0.0
H389 H 0.68533 0.33866 0.1981 0.0
H390 H 0.6491 0.41328 0.18345 0.0
H391 H 0.62757 0.45624 0.24623 0.0
H392 H 0.66309 0.38156 0.26124 0.0
H393 H 0.91077 0.2555 0.29928 0.0
H394 H 0.85066 0.25093 0.26748 0.0
H395 H 0.74931 0.30125 0.30485 0.0
H396 H 0.80891 0.30527 0.33656 0.0
H397 H 0.74591 0.34634 0.26359 0.0
H398 H 0.75206 0.18908 0.29618 0.0
H399 H 0.79153 0.11501 0.30957 0.0
H400 H 0.82799 0.08768 0.2476 0.0
H401 H 0.78926 0.16201 0.23393 0.0
C402 C 0.55758 0.27132 0.20454 0.0
C403 C 0.55719 0.24178 0.18657 0.0
C404 C 0.59849 0.27894 0.2188 0.0
C405 C 0.64026 0.25811 0.2152 0.0
C406 C 0.64011 0.22935 0.19699 0.0
C407 C 0.59901 0.22114 0.18286 0.0
C408 C 0.68325 0.26413 0.23111 0.0
C409 C 0.70789 0.22326 0.239 0.0
C410 C 0.69803 0.30927 0.23971 0.0
C411 C 0.67659 0.35429 0.23077 0.0
C412 C 0.67257 0.36385 0.20877 0.0
C413 C 0.6522 0.40619 0.2004 0.0
C414 C 0.63596 0.43943 0.21389 0.0
C415 C 0.64014 0.43044 0.23579 0.0
C416 C 0.66045 0.38813 0.24425 0.0
C417 C 0.87572 0.2659 0.30059 0.0
C418 C 0.86439 0.28042 0.32039 0.0
C419 C 0.84146 0.26315 0.28249 0.0
C420 C 0.79553 0.27564 0.28386 0.0
C421 C 0.78452 0.29147 0.30346 0.0
C422 C 0.81849 0.29342 0.32158 0.0
C423 C 0.75831 0.27084 0.26515 0.0
C424 C 0.73487 0.31189 0.25683 0.0
C425 C 0.74513 0.22605 0.25589 0.0
C426 C 0.76829 0.18137 0.26411 0.0
C427 C 0.76888 0.16751 0.28547 0.0
C428 C 0.79103 0.12543 0.2931 0.0
C429 C 0.81239 0.09673 0.27947 0.0
C430 C 0.81152 0.10999 0.25816 0.0
C431 C 0.78946 0.15207 0.25046 0.0
H432 H 0.82951 0.06416 0.2854 0.0
H433 H 0.6202 0.4722 0.20738 0.0
H434 H 0.61994 0.25499 0.72886 0.0
H435 H 0.6836 0.24837 0.75883 0.0
H436 H 0.77444 0.31987 0.7216 0.0
H437 H 0.71134 0.32483 0.69148 0.0
H438 H 0.81833 0.24984 0.74028 0.0
H439 H 0.72755 0.37448 0.76474 0.0
H440 H 0.65709 0.4123 0.7738 0.0
H441 H 0.64722 0.30412 0.82071 0.0
H442 H 0.71735 0.26532 0.81174 0.0
H443 H 0.99996 0.30264 0.82553 0.0
H444 H 0.93221 0.31433 0.798 0.0
H445 H 0.85576 0.21194 0.82923 0.0
H446 H 0.92352 0.1995 0.85667 0.0
H447 H 0.8047 0.2974 0.81451 0.0
H448 H 0.89747 0.1741 0.78909 0.0
H449 H 0.96984 0.14019 0.78023 0.0
H450 H 0.97739 0.25223 0.73486 0.0
H451 H 0.90539 0.28722 0.7437 0.0
C452 C 0.65344 0.26956 0.7272 0.0
C453 C 0.66071 0.29031 0.70783 0.0
C454 C 0.68983 0.26596 0.74436 0.0
C455 C 0.73394 0.28415 0.74268 0.0
C456 C 0.74094 0.30535 0.72336 0.0
C457 C 0.70485 0.30818 0.70612 0.0
C458 C 0.77326 0.2799 0.76069 0.0
C459 C 0.81534 0.26098 0.75642 0.0
C460 C 0.76951 0.29342 0.78194 0.0
C461 C 0.72744 0.31674 0.78742 0.0
C462 C 0.71017 0.35857 0.77688 0.0
C463 C 0.67033 0.38022 0.78202 0.0
C464 C 0.64762 0.36055 0.79778 0.0
C465 C 0.66481 0.31928 0.80848 0.0
C466 C 0.70463 0.29747 0.8034 0.0
C467 C 0.96859 0.28299 0.82669 0.0
C468 C 0.96721 0.24999 0.84325 0.0
C469 C 0.92996 0.28962 0.81091 0.0
C470 C 0.88907 0.2638 0.81152 0.0
C471 C 0.88697 0.23223 0.82848 0.0
C472 C 0.92579 0.22506 0.8441 0.0
C473 C 0.84935 0.26797 0.7939 0.0
C474 C 0.80738 0.28659 0.7983 0.0
C475 C 0.85329 0.25481 0.77271 0.0
C476 C 0.89632 0.23355 0.76722 0.0
C477 C 0.91477 0.19172 0.77736 0.0
C478 C 0.95569 0.17227 0.77232 0.0
C479 C 0.97827 0.19412 0.75704 0.0
C480 C 0.9599 0.23539 0.74672 0.0
C481 C 0.91902 0.25503 0.75172 0.0
H482 H 1.00995 0.17901 0.75316 0.0
H483 H 0.61678 0.37735 0.80173 0.0
H484 H 0.03661 0.71159 0.70247 0.0
H485 H 0.10066 0.72442 0.7315 0.0
H486 H 0.19033 0.75883 0.68573 0.0
H487 H 0.12655 0.74445 0.65649 0.0
H488 H 0.23328 0.70126 0.71418 0.0
H489 H 0.14849 0.84552 0.71844 0.0
H490 H 0.07989 0.89508 0.72068 0.0
H491 H 0.06482 0.82976 0.78043 0.0
H492 H 0.13299 0.77934 0.77842 0.0
H493 H 0.41637 0.78041 0.79474 0.0
H494 H 0.35402 0.77938 0.76407 0.0
H495 H 0.25855 0.73051 0.80475 0.0
H496 H 0.32036 0.73245 0.8355 0.0
H497 H 0.22086 0.80054 0.7779 0.0
H498 H 0.30285 0.65317 0.77211 0.0
H499 H 0.37144 0.60368 0.7697 0.0
H500 H 0.3921 0.67687 0.71249 0.0
H501 H 0.32387 0.72715 0.71469 0.0
C502 C 0.0698 0.72239 0.69854 0.0
C503 C 0.07637 0.72708 0.67711 0.0
C504 C 0.10646 0.72995 0.71521 0.0
C505 C 0.15036 0.74327 0.7109 0.0
C506 C 0.15684 0.74864 0.68952 0.0
C507 C 0.12027 0.74057 0.67279 0.0
C508 C 0.18988 0.74942 0.72867 0.0
C509 C 0.23077 0.72373 0.72791 0.0
C510 C 0.18654 0.77791 0.74687 0.0
C511 C 0.14566 0.80838 0.74819 0.0
C512 C 0.13037 0.84149 0.73199 0.0
C513 C 0.09159 0.86978 0.73323 0.0
C514 C 0.06795 0.8655 0.75066 0.0
C515 C 0.08314 0.83302 0.76693 0.0
C516 C 0.12188 0.80462 0.76576 0.0
C517 C 0.38204 0.76984 0.7972 0.0
C518 C 0.3735 0.75629 0.81761 0.0
C519 C 0.34649 0.76891 0.77961 0.0
C520 C 0.30165 0.75443 0.78206 0.0
C521 C 0.29286 0.74168 0.80245 0.0
C522 C 0.32839 0.7424 0.82 0.0
C523 C 0.26386 0.75216 0.7634 0.0
C524 C 0.22335 0.77851 0.76404 0.0
C525 C 0.2676 0.72447 0.74505 0.0
C526 C 0.30858 0.69425 0.7437 0.0
C527 C 0.32224 0.65895 0.75911 0.0
C528 C 0.361 0.63071 0.75776 0.0
C529 C 0.3862 0.63723 0.74099 0.0
C530 C 0.37259 0.67191 0.72549 0.0
C531 C 0.33386 0.70026 0.72677 0.0
H532 H 0.41619 0.61533 0.73998 0.0
H533 H 0.03793 0.88742 0.75158 0.0
H534 H 0.51017 0.791 0.32459 0.0
H535 H 0.43982 0.80287 0.29888 0.0
H536 H 0.36574 0.70783 0.33504 0.0
H537 H 0.43675 0.69408 0.36022 0.0
H538 H 0.3428 0.68686 0.29612 0.0
H539 H 0.34962 0.83467 0.3331 0.0
H540 H 0.38373 0.90939 0.34897 0.0
H541 H 0.40524 0.95775 0.28702 0.0
H542 H 0.37183 0.88302 0.2708 0.0
H543 H 0.12522 0.7529 0.23247 0.0
H544 H 0.18696 0.74741 0.26359 0.0
H545 H 0.28494 0.80311 0.22572 0.0
H546 H 0.22375 0.808 0.19467 0.0
H547 H 0.28925 0.84536 0.26796 0.0
H548 H 0.28542 0.69093 0.23266 0.0
H549 H 0.24731 0.61674 0.21828 0.0
H550 H 0.21429 0.58271 0.28021 0.0
H551 H 0.25164 0.65712 0.29488 0.0
C552 C 0.47877 0.77304 0.3272 0.0
C553 C 0.47905 0.74167 0.34447 0.0
C554 C 0.43837 0.78005 0.31252 0.0
C555 C 0.39695 0.75687 0.31509 0.0
C556 C 0.39707 0.72617 0.3326 0.0
C557 C 0.4377 0.71844 0.34706 0.0
C558 C 0.35432 0.76273 0.29894 0.0
C559 C 0.33071 0.72169 0.29034 0.0
C560 C 0.33836 0.80802 0.29109 0.0
C561 C 0.35855 0.85303 0.30076 0.0
C562 C 0.36194 0.86108 0.32288 0.0
C563 C 0.3811 0.90346 0.33194 0.0
C564 C 0.39674 0.93824 0.31902 0.0
C565 C 0.39315 0.93075 0.29701 0.0
C566 C 0.37405 0.88841 0.28787 0.0
C567 C 0.15989 0.76424 0.23091 0.0
C568 C 0.16982 0.78056 0.21115 0.0
C569 C 0.19508 0.76097 0.24862 0.0
C570 C 0.24052 0.77475 0.24691 0.0
C571 C 0.25013 0.79231 0.22737 0.0
C572 C 0.21525 0.79476 0.20962 0.0
C573 C 0.27863 0.76966 0.2652 0.0
C574 C 0.30127 0.81077 0.27409 0.0
C575 C 0.29313 0.72459 0.27363 0.0
C576 C 0.2708 0.67986 0.2648 0.0
C577 C 0.26963 0.66786 0.24316 0.0
C578 C 0.24826 0.62572 0.23496 0.0
C579 C 0.22825 0.5951 0.2483 0.0
C580 C 0.2297 0.60651 0.26988 0.0
C581 C 0.25098 0.64864 0.27815 0.0
H582 H 0.21174 0.56248 0.24193 0.0
H583 H 0.41155 0.97104 0.32606 0.0
H584 H 0.32825 0.10966 0.21994 0.0
H585 H 0.27701 0.1411 0.24325 0.0
H586 H 0.28558 0.28068 0.21601 0.0
H587 H 0.33608 0.24936 0.19196 0.0
H588 H 0.29338 0.27964 0.26213 0.0
H589 H 0.19195 0.22385 0.20049 0.0
H590 H 0.1623 0.1665 0.17207 0.0
H591 H 0.13412 0.06574 0.2193 0.0
H592 H 0.16424 0.12223 0.24802 0.0
H593 H 0.10797 0.34958 0.31953 0.0
H594 H 0.15744 0.34001 0.29177 0.0
H595 H 0.14938 0.18723 0.29779 0.0
H596 H 0.09932 0.19649 0.32463 0.0
H597 H 0.13725 0.20798 0.25793 0.0
H598 H 0.24759 0.25848 0.31946 0.0
H599 H 0.27961 0.31382 0.34834 0.0
H600 H 0.29231 0.42271 0.3021 0.0
H601 H 0.25986 0.36814 0.27295 0.0
C602 C 0.31913 0.14695 0.21857 0.0
C603 C 0.33623 0.17657 0.20365 0.0
C604 C 0.28991 0.16497 0.23211 0.0
C605 C 0.27711 0.21314 0.23125 0.0
C606 C 0.29503 0.24336 0.21694 0.0
C607 C 0.32406 0.22525 0.20318 0.0
C608 C 0.24399 0.23096 0.24501 0.0
C609 C 0.25889 0.26469 0.26102 0.0
C610 C 0.19919 0.21116 0.24366 0.0
C611 C 0.18064 0.1772 0.22642 0.0
C612 C 0.17973 0.18934 0.20482 0.0
C613 C 0.16279 0.157 0.18866 0.0
C614 C 0.14641 0.11247 0.19388 0.0
C615 C 0.14683 0.10024 0.21528 0.0
C616 C 0.16378 0.13244 0.23151 0.0
C617 C 0.1169 0.31404 0.3149 0.0
C618 C 0.09947 0.27383 0.32423 0.0
C619 C 0.14533 0.30857 0.29909 0.0
C620 C 0.15745 0.2628 0.29265 0.0
C621 C 0.14038 0.22291 0.30224 0.0
C622 C 0.11171 0.22831 0.3177 0.0
C623 C 0.18715 0.2553 0.27578 0.0
C624 C 0.17148 0.22355 0.259 0.0
C625 C 0.23128 0.27675 0.27657 0.0
C626 C 0.25079 0.30946 0.29407 0.0
C627 C 0.25688 0.29435 0.31547 0.0
C628 C 0.27517 0.32554 0.33188 0.0
C629 C 0.28784 0.3718 0.32706 0.0
C630 C 0.28238 0.38691 0.30581 0.0
C631 C 0.26407 0.35586 0.28935 0.0
H632 H 0.30199 0.39589 0.33979 0.0
H633 H 0.13331 0.08748 0.18134 0.0
H634 H 0.32464 0.34054 0.68665 0.0
H635 H 0.28208 0.31705 0.71523 0.0
H636 H 0.40888 0.26823 0.75288 0.0
H637 H 0.45177 0.29153 0.72432 0.0
H638 H 0.34047 0.20162 0.75045 0.0
H639 H 0.35644 0.3684 0.76683 0.0
H640 H 0.35029 0.45447 0.75921 0.0
H641 H 0.20299 0.44115 0.74207 0.0
H642 H 0.20833 0.35485 0.74931 0.0
H643 H 0.25342 0.15458 0.84625 0.0
H644 H 0.29642 0.18585 0.8193 0.0
H645 H 0.17049 0.24409 0.78448 0.0
H646 H 0.12724 0.2132 0.81165 0.0
H647 H 0.23819 0.30673 0.78533 0.0
H648 H 0.22097 0.14115 0.76785 0.0
H649 H 0.22552 0.05462 0.77446 0.0
H650 H 0.37292 0.06485 0.79221 0.0
H651 H 0.36918 0.1516 0.78597 0.0
C652 C 0.34365 0.32542 0.70112 0.0
C653 C 0.39169 0.31791 0.70314 0.0
C654 C 0.31923 0.31209 0.7175 0.0
C655 C 0.34224 0.29095 0.73627 0.0
C656 C 0.39035 0.28442 0.73855 0.0
C657 C 0.41487 0.29801 0.72223 0.0
C658 C 0.31582 0.27332 0.75298 0.0
C659 C 0.31869 0.22478 0.75833 0.0
C660 C 0.28616 0.30314 0.76276 0.0
C661 C 0.28285 0.35505 0.75842 0.0
C662 C 0.32278 0.38374 0.76126 0.0
C663 C 0.31943 0.43259 0.75705 0.0
C664 C 0.27629 0.45324 0.75011 0.0
C665 C 0.23639 0.4251 0.74742 0.0
C666 C 0.23955 0.37622 0.7516 0.0
C667 C 0.23469 0.17354 0.83276 0.0
C668 C 0.18671 0.18096 0.83106 0.0
C669 C 0.2594 0.19153 0.81733 0.0
C670 C 0.23671 0.2168 0.79961 0.0
C671 C 0.18887 0.22473 0.79796 0.0
C672 C 0.16414 0.20703 0.81352 0.0
C673 C 0.26302 0.23499 0.7829 0.0
C674 C 0.26005 0.28356 0.7775 0.0
C675 C 0.29235 0.20513 0.77291 0.0
C676 C 0.29473 0.15295 0.77664 0.0
C677 C 0.25432 0.12501 0.77332 0.0
C678 C 0.25675 0.07591 0.77697 0.0
C679 C 0.29946 0.05427 0.7838 0.0
C680 C 0.33985 0.08168 0.78694 0.0
C681 C 0.3376 0.1308 0.78333 0.0
H682 H 0.30128 0.01626 0.78662 0.0
H683 H 0.27378 0.49107 0.74685 0.0
H684 H 0.69902 0.83267 0.84585 0.0
H685 H 0.73907 0.81157 0.81603 0.0
H686 H 0.60828 0.77947 0.77705 0.0
H687 H 0.56787 0.80071 0.80677 0.0
H688 H 0.67161 0.70631 0.77768 0.0
H689 H 0.66782 0.87518 0.76598 0.0
H690 H 0.6804 0.95967 0.77594 0.0
H691 H 0.82639 0.93466 0.79202 0.0
H692 H 0.81461 0.84981 0.78245 0.0
H693 H 0.75673 0.66315 0.68069 0.0
H694 H 0.71529 0.69399 0.70835 0.0
H695 H 0.8443 0.74037 0.74511 0.0
H696 H 0.88602 0.7097 0.71738 0.0
H697 H 0.78117 0.80753 0.74539 0.0
H698 H 0.78688 0.64011 0.75888 0.0
H699 H 0.77663 0.55455 0.75055 0.0
H700 H 0.63026 0.57521 0.73312 0.0
H701 H 0.63972 0.66106 0.74107 0.0
C702 C 0.67866 0.82197 0.83081 0.0
C703 C 0.6302 0.81834 0.82874 0.0
C704 C 0.70164 0.80996 0.81376 0.0
C705 C 0.67671 0.79388 0.79429 0.0
C706 C 0.62824 0.79172 0.79193 0.0
C707 C 0.60517 0.80417 0.80892 0.0
C708 C 0.70136 0.77633 0.77694 0.0
C709 C 0.69496 0.72868 0.77035 0.0
C710 C 0.73308 0.805 0.76791 0.0
C711 C 0.74026 0.85601 0.77369 0.0
C712 C 0.70256 0.88758 0.77182 0.0
C713 C 0.70956 0.93557 0.77736 0.0
C714 C 0.75415 0.9525 0.78466 0.0
C715 C 0.79186 0.92148 0.78639 0.0
C716 C 0.78505 0.87345 0.78089 0.0
C717 C 0.77644 0.67937 0.69475 0.0
C718 C 0.82486 0.68362 0.69681 0.0
C719 C 0.75262 0.69713 0.71058 0.0
C720 C 0.77662 0.71909 0.72901 0.0
C721 C 0.82492 0.72368 0.73106 0.0
C722 C 0.84877 0.70612 0.71516 0.0
C723 C 0.75129 0.73746 0.74603 0.0
C724 C 0.75767 0.78518 0.75263 0.0
C725 C 0.71989 0.7087 0.75527 0.0
C726 C 0.71409 0.65712 0.75035 0.0
C727 C 0.75256 0.62649 0.75309 0.0
C728 C 0.74688 0.57792 0.74847 0.0
C729 C 0.70284 0.55948 0.74125 0.0
C730 C 0.66437 0.58956 0.73868 0.0
C731 C 0.66986 0.63817 0.74325 0.0
H732 H 0.69851 0.52185 0.73771 0.0
H733 H 0.7595 0.98967 0.78893 0.0
H734 H 0.96472 0.7991 0.22332 0.0
H735 H 0.9228 0.77777 0.25253 0.0
H736 H 0.79302 0.79736 0.21079 0.0
H737 H 0.83454 0.81867 0.18154 0.0
H738 H 0.79145 0.83298 0.25185 0.0
H739 H 0.83541 0.68829 0.21869 0.0
H740 H 0.89092 0.63321 0.20602 0.0
H741 H 0.96564 0.62215 0.26979 0.0
H742 H 0.91089 0.67772 0.28279 0.0
H743 H 0.6416 0.70474 0.30946 0.0
H744 H 0.68476 0.73639 0.28243 0.0
H745 H 0.81251 0.68942 0.32009 0.0
H746 H 0.76909 0.656 0.34655 0.0
H747 H 0.81694 0.6701 0.28156 0.0
H748 H 0.77381 0.81198 0.3157 0.0
H749 H 0.72075 0.86872 0.32911 0.0
H750 H 0.64796 0.8879 0.2654 0.0
H751 H 0.70023 0.83078 0.25164 0.0
C752 C 0.92726 0.79957 0.22042 0.0
C753 C 0.90302 0.8103 0.20002 0.0
C754 C 0.90334 0.78715 0.23713 0.0
C755 C 0.85474 0.78539 0.23378 0.0
C756 C 0.83048 0.79836 0.21374 0.0
C757 C 0.85434 0.81041 0.197 0.0
C758 C 0.82916 0.76752 0.25073 0.0
C759 C 0.79668 0.79725 0.25827 0.0
C760 C 0.83671 0.72128 0.25943 0.0
C761 C 0.86934 0.68752 0.25166 0.0
C762 C 0.86387 0.67437 0.22998 0.0
C763 C 0.89517 0.64303 0.22274 0.0
C764 C 0.93186 0.62429 0.23708 0.0
C765 C 0.93724 0.63675 0.2587 0.0
C766 C 0.90608 0.66813 0.26601 0.0
C767 C 0.6789 0.7014 0.31194 0.0
C768 C 0.70196 0.67785 0.33008 0.0
C769 C 0.70367 0.71975 0.29655 0.0
C770 C 0.75222 0.71619 0.29928 0.0
C771 C 0.77518 0.69269 0.31748 0.0
C772 C 0.75034 0.67351 0.33262 0.0
C773 C 0.77908 0.73561 0.28297 0.0
C774 C 0.81177 0.70604 0.27541 0.0
C775 C 0.77205 0.78224 0.27446 0.0
C776 C 0.74069 0.81676 0.28267 0.0
C777 C 0.7463 0.82806 0.30457 0.0
C778 C 0.71639 0.86032 0.31223 0.0
C779 C 0.68094 0.88181 0.29812 0.0
C780 C 0.6754 0.87118 0.27631 0.0
C781 C 0.70519 0.8389 0.26857 0.0
H782 H 0.65781 0.90677 0.30408 0.0
H783 H 0.95606 0.60004 0.23145 0.0
H784 H 0.41212 0.17155 0.58455 0.0
H785 H 0.35552 0.1699 0.55171 0.0
H786 H 0.28314 0.2881 0.57486 0.0
H787 H 0.33862 0.28894 0.60789 0.0
H788 H 0.22291 0.22549 0.55602 0.0
H789 H 0.3535 0.30655 0.53885 0.0
H790 H 0.43541 0.32139 0.53624 0.0
H791 H 0.43635 0.19934 0.49531 0.0
H792 H 0.35447 0.18342 0.4979 0.0
H793 H 0.10229 0.30205 0.45479 0.0
H794 H 0.15635 0.29905 0.48841 0.0
H795 H 0.20855 0.16435 0.46968 0.0
H796 H 0.15433 0.16715 0.43595 0.0
H797 H 0.27838 0.23576 0.48604 0.0
H798 H 0.14028 0.16048 0.50473 0.0
H799 H 0.05677 0.15828 0.5066 0.0
H800 H 0.06962 0.28621 0.54432 0.0
H801 H 0.15321 0.28948 0.54249 0.0
C802 C 0.38377 0.19668 0.58278 0.0
C803 C 0.38016 0.23065 0.59877 0.0
C804 C 0.35168 0.19602 0.56392 0.0
C805 C 0.31545 0.22934 0.56069 0.0
C806 C 0.31088 0.26218 0.57694 0.0
C807 C 0.34291 0.26288 0.59575 0.0
C808 C 0.28283 0.23068 0.54023 0.0
C809 C 0.23511 0.22807 0.54075 0.0
C810 C 0.29861 0.23438 0.52027 0.0
C811 C 0.34797 0.24346 0.51876 0.0
C812 C 0.37127 0.28261 0.52944 0.0
C813 C 0.41767 0.29129 0.52793 0.0
C814 C 0.44111 0.26125 0.51566 0.0
C815 C 0.41815 0.22253 0.50484 0.0
C816 C 0.37172 0.21368 0.50631 0.0
C817 C 0.12536 0.27186 0.45781 0.0
C818 C 0.12411 0.23478 0.44276 0.0
C819 C 0.15605 0.27011 0.47704 0.0
C820 C 0.1863 0.23143 0.48151 0.0
C821 C 0.18541 0.19448 0.46649 0.0
C822 C 0.15425 0.19592 0.44735 0.0
C823 C 0.21881 0.22962 0.50191 0.0
C824 C 0.26643 0.2326 0.50134 0.0
C825 C 0.2029 0.22782 0.52185 0.0
C826 C 0.1529 0.22538 0.52334 0.0
C827 C 0.12525 0.18828 0.51333 0.0
C828 C 0.07793 0.18682 0.51441 0.0
C829 C 0.05792 0.22215 0.52555 0.0
C830 C 0.08522 0.25892 0.53571 0.0
C831 C 0.13257 0.26053 0.53469 0.0
H832 H 0.02126 0.22101 0.52634 0.0
H833 H 0.47703 0.26803 0.5145 0.0
H834 H 0.80432 0.79067 0.61498 0.0
H835 H 0.75358 0.80395 0.58104 0.0
H836 H 0.86317 0.76185 0.54675 0.0
H837 H 0.91422 0.74815 0.58062 0.0
H838 H 0.80696 0.83744 0.52688 0.0
H839 H 0.79348 0.68272 0.55771 0.0
H840 H 0.78045 0.6269 0.58613 0.0
H841 H 0.64235 0.68028 0.58385 0.0
H842 H 0.65512 0.73768 0.55592 0.0
H843 H 0.68738 0.74421 0.42946 0.0
H844 H 0.73655 0.76288 0.46314 0.0
H845 H 0.6157 0.78136 0.49351 0.0
H846 H 0.5661 0.76146 0.45987 0.0
H847 H 0.67493 0.72428 0.51634 0.0
H848 H 0.6868 0.87688 0.48418 0.0
H849 H 0.70045 0.93315 0.45598 0.0
H850 H 0.84007 0.88293 0.46008 0.0
H851 H 0.82709 0.82588 0.48811 0.0
C852 C 0.8181 0.78534 0.60025 0.0
C853 C 0.86317 0.76771 0.60051 0.0
C854 C 0.78897 0.7929 0.58086 0.0
C855 C 0.80446 0.78323 0.56143 0.0
C856 C 0.85056 0.76944 0.56159 0.0
C857 C 0.87963 0.76147 0.58098 0.0
C858 C 0.77133 0.78201 0.54117 0.0
C859 C 0.77815 0.81265 0.52448 0.0
C860 C 0.73339 0.75005 0.53826 0.0
C861 C 0.72556 0.71518 0.55496 0.0
C862 C 0.7606 0.68317 0.5635 0.0
C863 C 0.75325 0.6512 0.57953 0.0
C864 C 0.71068 0.65022 0.58688 0.0
C865 C 0.67538 0.68123 0.57821 0.0
C866 C 0.6827 0.71358 0.56232 0.0
C867 C 0.6711 0.75313 0.44317 0.0
C868 C 0.62271 0.75116 0.44195 0.0
C869 C 0.69936 0.76402 0.46246 0.0
C870 C 0.67991 0.77385 0.4809 0.0
C871 C 0.63153 0.77388 0.47951 0.0
C872 C 0.60319 0.76273 0.46022 0.0
C873 C 0.71013 0.78006 0.50191 0.0
C874 C 0.70311 0.74985 0.51876 0.0
C875 C 0.74783 0.8124 0.50493 0.0
C876 C 0.75584 0.84685 0.48815 0.0
C877 C 0.72032 0.87759 0.47897 0.0
C878 C 0.72796 0.90967 0.46303 0.0
C879 C 0.77107 0.91155 0.45622 0.0
C880 C 0.80668 0.88142 0.46537 0.0
C881 C 0.79922 0.84925 0.4813 0.0
H882 H 0.77691 0.9364 0.44387 0.0
H883 H 0.70496 0.62527 0.5992 0.0
H884 H 0.93922 0.68628 0.07679 0.0
H885 H 0.88484 0.68605 0.04311 0.0
H886 H 0.80424 0.79538 0.0679 0.0
H887 H 0.85826 0.79557 0.10152 0.0
H888 H 0.75025 0.72304 0.04811 0.0
H889 H 0.87223 0.82456 0.03422 0.0
H890 H 0.95252 0.84806 0.03221 0.0
H891 H 0.96138 0.73882 0.98554 0.0
H892 H 0.88161 0.7134 0.98781 0.0
H893 H 0.61123 0.79016 0.95054 0.0
H894 H 0.66589 0.79134 0.98389 0.0
H895 H 0.74884 0.68485 0.95863 0.0
H896 H 0.69494 0.68442 0.92497 0.0
H897 H 0.80173 0.75709 0.97868 0.0
H898 H 0.67878 0.65473 0.99425 0.0
H899 H 0.59779 0.63405 0.99652 0.0
H900 H 0.59013 0.75072 0.03975 0.0
H901 H 0.67084 0.77262 0.03747 0.0
C902 C 0.9097 0.70993 0.07508 0.0
C903 C 0.90307 0.74106 0.09174 0.0
C904 C 0.8789 0.71006 0.05581 0.0
C905 C 0.84074 0.74101 0.05296 0.0
C906 C 0.83354 0.77135 0.06974 0.0
C907 C 0.86456 0.77162 0.08888 0.0
C908 C 0.80811 0.74164 0.03253 0.0
C909 C 0.76142 0.73097 0.03295 0.0
C910 C 0.82287 0.75153 1.01275 0.0
C911 C 0.87106 0.76654 1.01145 0.0
C912 C 0.89147 0.805 0.02377 0.0
C913 C 0.93691 0.81872 0.02257 0.0
C914 C 0.96209 0.79486 1.00882 0.0
C915 C 0.94189 0.75716 0.99625 0.0
C916 C 0.89659 0.74298 0.99753 0.0
C917 C 0.64122 0.76719 0.95199 0.0
C918 C 0.6486 0.73712 0.93505 0.0
C919 C 0.67227 0.76765 0.97115 0.0
C920 C 0.71125 0.73788 0.97382 0.0
C921 C 0.71892 0.70803 0.95693 0.0
C922 C 0.68781 0.70748 0.93776 0.0
C923 C 0.74403 0.73789 0.99424 0.0
C924 C 0.79069 0.74891 0.99383 0.0
C925 C 0.72922 0.72877 1.01407 0.0
C926 C 0.68073 0.71556 0.01553 0.0
C927 C 0.6597 0.67621 1.00411 0.0
C928 C 0.61385 0.66426 1.00541 0.0
C929 C 0.58878 0.69117 0.01822 0.0
C930 C 0.60954 0.73001 0.02979 0.0
C931 C 0.65535 0.74219 0.02852 0.0
H932 H 0.55329 0.68184 0.01921 0.0
H933 H 0.99715 0.80579 1.00782 0.0
H934 H 0.29884 0.16421 0.09213 0.0
H935 H 0.26186 0.19213 0.05727 0.0
H936 H 0.36419 0.30304 0.05872 0.0
H937 H 0.40247 0.27469 0.09381 0.0
H938 H 0.25595 0.3236 0.042 0.0
H939 H 0.39028 0.22824 0.03186 0.0
H940 H 0.44023 0.15746 0.03862 0.0
H941 H 0.32504 0.06676 1.01535 0.0
H942 H 0.27425 0.13701 1.00874 0.0
H943 H 0.22158 0.27257 0.91781 0.0
H944 H 0.26856 0.28545 0.95277 0.0
H945 H 0.14793 0.26657 0.98316 0.0
H946 H 0.10062 0.25315 0.94827 0.0
H947 H 0.27729 0.21318 0.98303 0.0
H948 H 0.16667 0.33083 0.0308 0.0
H949 H 0.11315 0.39896 0.02462 0.0
H950 H 0.17872 0.4445 0.97202 0.0
H951 H 0.23307 0.37706 0.97808 0.0
C952 C 0.31334 0.19499 0.08528 0.0
C953 C 0.35396 0.21695 0.09569 0.0
C954 C 0.29199 0.21092 0.06535 0.0
C955 C 0.31047 0.2494 0.05547 0.0
C956 C 0.34946 0.2733 0.06622 0.0
C957 C 0.37128 0.25701 0.08619 0.0
C958 C 0.291 0.26107 0.03314 0.0
C959 C 0.26093 0.29997 0.02899 0.0
C960 C 0.29773 0.23008 0.01629 0.0
C961 C 0.32842 0.18787 0.01997 0.0
C962 C 0.37554 0.19318 0.02835 0.0
C963 C 0.40402 0.15314 0.03212 0.0
C964 C 0.38578 0.10762 0.02747 0.0
C965 C 0.3391 0.10204 0.01896 0.0
C966 C 0.31047 0.14196 1.01517 0.0
C967 C 0.20471 0.27233 0.93186 0.0
C968 C 0.15738 0.26133 0.93025 0.0
C969 C 0.2317 0.27963 0.95184 0.0
C970 C 0.21176 0.27692 0.97054 0.0
C971 C 0.16394 0.26924 0.96891 0.0
C972 C 0.13697 0.26143 0.94894 0.0
C973 C 0.24157 0.27558 0.99173 0.0
C974 C 0.27314 0.23789 0.99579 0.0
C975 C 0.23592 0.30759 1.00842 0.0
C976 C 0.20375 0.34864 1.00482 0.0
C977 C 0.16984 0.35551 0.01799 0.0
C978 C 0.13932 0.39399 1.01449 0.0
C979 C 0.14246 0.42597 0.99791 0.0
C980 C 0.17622 0.4196 0.98482 0.0
C981 C 0.20684 0.3812 0.98825 0.0
H982 H 0.11878 0.45572 0.99522 0.0
H983 H 0.40774 0.07663 0.03042 0.0
loop_
_geom_bond_atom_site_label_1
_geom_bond_atom_site_label_2
_geom_bond_distance
_geom_bond_site_symmetry_2
_ccdc_geom_bond_type
Cu0 N1 1.999 . S
Cu0 O6 1.974 1_455 S
Cu0 N11 1.985 1_455 S
Cu0 O20 1.959 . S
N1 Cu0 1.999 . S
N1 C3 1.263 . S
N1 C5 1.389 . S
N2 C3 1.358 . S
N2 C4 1.400 . S
C3 N1 1.263 . S
C3 N2 1.358 . S
C3 H9 0.930 . S
C4 N2 1.400 . S
C4 C5 1.351 . S
C4 H21 0.930 . S
C5 N1 1.389 . S
C5 C4 1.351 . S
C5 H10 0.930 . S
O6 Cu0 1.974 1_655 S
O6 C16 1.282 . S
C7 O8 1.261 . S
C7 O20 1.251 . S
O8 C7 1.261 . S
H9 C3 0.930 . S
H10 C5 0.930 . S
N11 Cu0 1.985 1_655 S
N11 C13 1.335 . S
N11 C14 1.390 . S
N12 C13 1.345 . S
N12 C15 1.336 . S
C13 N11 1.335 . S
C13 N12 1.345 . S
C13 H18 0.930 . S
C14 N11 1.390 . S
C14 C15 1.346 . S
C14 H19 0.930 . S
C15 N12 1.336 . S
C15 C14 1.346 . S
C15 H22 0.929 . S
C16 O6 1.282 . S
C16 O17 1.216 1_655 S
O17 C16 1.216 1_455 S
H18 C13 0.930 . S
H19 C14 0.930 . S
O20 Cu0 1.959 . S
O20 C7 1.251 . S
H21 C4 0.930 . S
H22 C15 0.929 . S
Cu23 N24 1.999 . S
Cu23 O29 1.974 . S
Cu23 N34 1.985 . S
Cu23 O43 1.959 . S
N24 Cu23 1.999 . S
N24 C26 1.263 . S
N24 C28 1.389 . S
N25 C26 1.358 . S
N25 C27 1.400 . S
C26 N24 1.263 . S
C26 N25 1.358 . S
C26 H32 0.930 . S
C27 N25 1.400 . S
C27 C28 1.351 . S
C27 H44 0.930 . S
C28 N24 1.389 . S
C28 C27 1.351 . S
C28 H33 0.930 . S
O29 Cu23 1.974 . S
O29 C39 1.282 . S
C30 O31 1.261 . S
C30 O43 1.251 . S
O31 C30 1.261 . S
H32 C26 0.930 . S
H33 C28 0.930 . S
N34 Cu23 1.985 . S
N34 C36 1.335 . S
N34 C37 1.390 . S
N35 C36 1.345 . S
N35 C38 1.336 . S
C36 N34 1.335 . S
C36 N35 1.345 . S
C36 H41 0.930 . S
C37 N34 1.390 . S
C37 C38 1.346 . S
C37 H42 0.930 . S
C38 N35 1.336 . S
C38 C37 1.346 . S
C38 H45 0.929 . S
C39 O29 1.282 . S
C39 O40 1.216 . S
O40 C39 1.216 . S
H41 C36 0.930 . S
H42 C37 0.930 . S
O43 Cu23 1.959 . S
O43 C30 1.251 . S
H44 C27 0.930 . S
H45 C38 0.929 . S
Cu46 N47 1.999 . S
Cu46 O52 1.974 . S
Cu46 N57 1.985 . S
Cu46 O66 1.959 . S
N47 Cu46 1.999 . S
N47 C49 1.263 . S
N47 C51 1.389 . S
N48 C49 1.358 . S
N48 C50 1.400 . S
C49 N47 1.263 . S
C49 N48 1.358 . S
C49 H55 0.930 . S
C50 N48 1.400 . S
C50 C51 1.351 . S
C50 H67 0.930 . S
C51 N47 1.389 . S
C51 C50 1.351 . S
C51 H56 0.930 . S
O52 Cu46 1.974 . S
O52 C62 1.292 . S
C53 O54 1.261 . S
C53 O66 1.251 . S
O54 C53 1.261 . S
H55 C49 0.930 . S
H56 C51 0.930 . S
N57 Cu46 1.985 . S
N57 C59 1.335 . S
N57 C60 1.390 1_655 S
N58 C59 1.345 . S
N58 C61 1.336 1_655 S
C59 N57 1.335 . S
C59 N58 1.345 . S
C59 H64 0.930 . S
C60 N57 1.390 1_455 S
C60 C61 1.346 . S
C60 H65 0.930 . S
C61 N58 1.336 1_455 S
C61 C60 1.346 . S
C61 H68 0.929 . S
C62 O52 1.292 . S
C62 O63 1.216 . S
O63 C62 1.216 . S
H64 C59 0.930 . S
H65 C60 0.930 . S
O66 Cu46 1.959 . S
O66 C53 1.251 . S
H67 C50 0.930 . S
H68 C61 0.929 . S
Cu69 N70 1.999 . S
Cu69 O75 1.974 . S
Cu69 N80 1.985 . S
Cu69 O89 1.959 . S
N70 Cu69 1.999 . S
N70 C72 1.263 . S
N70 C74 1.389 . S
N71 C72 1.358 . S
N71 C73 1.400 . S
C72 N70 1.263 . S
C72 N71 1.358 . S
C72 H78 0.930 . S
C73 N71 1.400 . S
C73 C74 1.351 . S
C73 H90 0.930 . S
C74 N70 1.389 . S
C74 C73 1.351 . S
C74 H79 0.930 . S
O75 Cu69 1.974 . S
O75 C85 1.282 . S
C76 O77 1.261 . S
C76 O89 1.251 . S
O77 C76 1.261 . S
H78 C72 0.930 . S
H79 C74 0.930 . S
N80 Cu69 1.985 . S
N80 C82 1.335 . S
N80 C83 1.390 . S
N81 C82 1.345 . S
N81 C84 1.336 . S
C82 N80 1.335 . S
C82 N81 1.345 . S
C82 H87 0.930 . S
C83 N80 1.390 . S
C83 C84 1.346 . S
C83 H88 0.930 . S
C84 N81 1.336 . S
C84 C83 1.346 . S
C84 H91 0.929 . S
C85 O75 1.282 . S
C85 O86 1.216 . S
O86 C85 1.216 . S
H87 C82 0.930 . S
H88 C83 0.930 . S
O89 Cu69 1.959 . S
O89 C76 1.251 . S
H90 C73 0.930 . S
H91 C84 0.929 . S
Cu92 N93 1.999 . S
Cu92 O98 1.974 . S
Cu92 N103 1.985 . S
Cu92 O112 1.959 . S
N93 Cu92 1.999 . S
N93 C95 1.263 . S
N93 C97 1.389 . S
N94 C95 1.358 . S
N94 C96 1.400 . S
C95 N93 1.263 . S
C95 N94 1.358 . S
C95 H101 0.930 . S
C96 N94 1.400 . S
C96 C97 1.351 . S
C96 H113 0.930 . S
C97 N93 1.389 . S
C97 C96 1.351 . S
C97 H102 0.930 . S
O98 Cu92 1.974 . S
O98 C108 1.282 . S
C99 O100 1.261 . S
C99 O112 1.251 . S
O100 C99 1.261 . S
H101 C95 0.930 . S
H102 C97 0.930 . S
N103 Cu92 1.985 . S
N103 C105 1.335 . S
N103 C106 1.390 . S
N104 C105 1.345 . S
N104 C107 1.336 . S
C105 N103 1.335 . S
C105 N104 1.345 . S
C105 H110 0.930 . S
C106 N103 1.390 . S
C106 C107 1.346 . S
C106 H111 0.930 . S
C107 N104 1.336 . S
C107 C106 1.346 . S
C107 H114 0.929 . S
C108 O98 1.282 . S
C108 O109 1.216 . S
O109 C108 1.216 . S
H110 C105 0.930 . S
H111 C106 0.930 . S
O112 Cu92 1.959 . S
O112 C99 1.251 . S
H113 C96 0.930 . S
H114 C107 0.929 . S
Cu115 N116 1.999 . S
Cu115 O121 1.974 1_655 S
Cu115 N126 1.985 1_655 S
Cu115 O135 1.959 . S
N116 Cu115 1.999 . S
N116 C118 1.263 . S
N116 C120 1.389 . S
N117 C118 1.358 . S
N117 C119 1.400 . S
C118 N116 1.263 . S
C118 N117 1.358 . S
C118 H124 0.930 . S
C119 N117 1.400 . S
C119 C120 1.351 . S
C119 H136 0.930 . S
C120 N116 1.389 . S
C120 C119 1.351 . S
C120 H125 0.930 . S
O121 Cu115 1.974 1_455 S
O121 C131 1.282 . S
C122 O123 1.261 . S
C122 O135 1.251 . S
O123 C122 1.261 . S
H124 C118 0.930 . S
H125 C120 0.930 . S
N126 Cu115 1.985 1_455 S
N126 C128 1.335 . S
N126 C129 1.390 . S
N127 C128 1.345 . S
N127 C130 1.336 . S
C128 N126 1.335 . S
C128 N127 1.345 . S
C128 H133 0.930 . S
C129 N126 1.390 . S
C129 C130 1.346 . S
C129 H134 0.930 . S
C130 N127 1.336 . S
C130 C129 1.346 . S
C130 H137 0.929 . S
C131 O121 1.282 . S
C131 O132 1.216 1_455 S
O132 C131 1.216 1_655 S
H133 C128 0.930 . S
H134 C129 0.930 . S
O135 Cu115 1.959 . S
O135 C122 1.251 . S
H136 C119 0.930 . S
H137 C130 0.929 . S
Cu138 N139 1.999 . S
Cu138 O144 1.974 . S
Cu138 N149 1.985 . S
Cu138 O158 1.959 . S
N139 Cu138 1.999 . S
N139 C141 1.263 . S
N139 C143 1.389 . S
N140 C141 1.358 . S
N140 C142 1.400 . S
C141 N139 1.263 . S
C141 N140 1.358 . S
C141 H147 0.930 . S
C142 N140 1.400 . S
C142 C143 1.351 . S
C142 H159 0.930 . S
C143 N139 1.389 . S
C143 C142 1.351 . S
C143 H148 0.930 . S
O144 Cu138 1.974 . S
O144 C154 1.282 . S
C145 O146 1.261 . S
C145 O158 1.251 . S
O146 C145 1.261 . S
H147 C141 0.930 . S
H148 C143 0.930 . S
N149 Cu138 1.985 . S
N149 C151 1.335 . S
N149 C152 1.390 . S
N150 C151 1.345 . S
N150 C153 1.336 . S
C151 N149 1.335 . S
C151 N150 1.345 . S
C151 H156 0.930 . S
C152 N149 1.390 . S
C152 C153 1.346 . S
C152 H157 0.930 . S
C153 N150 1.336 . S
C153 C152 1.346 . S
C153 H160 0.929 . S
C154 O144 1.282 . S
C154 O155 1.216 . S
O155 C154 1.216 . S
H156 C151 0.930 . S
H157 C152 0.930 . S
O158 Cu138 1.959 . S
O158 C145 1.251 . S
H159 C142 0.930 . S
H160 C153 0.929 . S
Cu161 N162 1.999 . S
Cu161 O167 1.974 . S
Cu161 N172 1.985 . S
Cu161 O181 1.959 . S
N162 Cu161 1.999 . S
N162 C164 1.263 . S
N162 C166 1.389 . S
N163 C164 1.358 . S
N163 C165 1.400 . S
C164 N162 1.263 . S
C164 N163 1.358 . S
C164 H170 0.930 . S
C165 N163 1.400 . S
C165 C166 1.351 . S
C165 H182 0.930 . S
C166 N162 1.389 . S
C166 C165 1.351 . S
C166 H171 0.930 . S
O167 Cu161 1.974 . S
O167 C177 1.292 . S
C168 O169 1.261 . S
C168 O181 1.251 . S
O169 C168 1.261 . S
H170 C164 0.930 . S
H171 C166 0.930 . S
N172 Cu161 1.985 . S
N172 C174 1.335 . S
N172 C175 1.390 1_455 S
N173 C174 1.345 . S
N173 C176 1.336 1_455 S
C174 N172 1.335 . S
C174 N173 1.345 . S
C174 H179 0.930 . S
C175 N172 1.390 1_655 S
C175 C176 1.346 . S
C175 H180 0.930 . S
C176 N173 1.336 1_655 S
C176 C175 1.346 . S
C176 H183 0.929 . S
C177 O167 1.292 . S
C177 O178 1.216 . S
O178 C177 1.216 . S
H179 C174 0.930 . S
H180 C175 0.930 . S
O181 Cu161 1.959 . S
O181 C168 1.251 . S
H182 C165 0.930 . S
H183 C176 0.929 . S
H184 C202 0.951 . S
H185 C204 0.951 . S
H186 C206 0.950 . S
H187 C207 0.950 . S
H188 C209 0.950 . S
H189 C212 0.950 . S
H190 C213 0.950 . S
H191 C215 0.950 . S
H192 C216 0.950 . S
H193 C217 0.951 . S
H194 C219 0.951 . S
H195 C221 0.950 . S
H196 C222 0.950 . S
H197 C224 0.950 . S
H198 C227 0.950 1_655 S
H199 C228 0.950 . S
H200 C230 0.950 . S
H201 C231 0.950 . S
C202 H184 0.951 . S
C202 C203 1.366 . S
C202 C204 1.388 . S
C203 C202 1.366 . S
C203 C207 1.385 1_655 S
C204 H185 0.951 . S
C204 C202 1.388 . S
C204 C205 1.366 . S
C205 C204 1.366 . S
C205 C206 1.414 1_655 S
C205 C208 1.499 . S
C206 H186 0.950 . S
C206 C205 1.414 1_455 S
C206 C207 1.374 . S
C207 H187 0.950 . S
C207 C203 1.385 1_455 S
C207 C206 1.374 . S
C208 C205 1.499 . S
C208 C209 1.373 1_655 S
C208 C210 1.389 . S
C209 H188 0.950 . S
C209 C208 1.373 1_455 S
C209 C225 1.377 . S
C210 C208 1.389 . S
C210 C211 1.524 . S
C210 C224 1.377 . S
C211 C210 1.524 . S
C211 C212 1.397 . S
C211 C216 1.363 . S
C212 H189 0.950 . S
C212 C211 1.397 . S
C212 C213 1.334 . S
C213 H190 0.950 . S
C213 C212 1.334 . S
C213 C214 1.287 . S
C214 C213 1.287 . S
C214 C215 1.524 . S
C214 H233 0.913 . S
C215 H191 0.950 . S
C215 C214 1.524 . S
C215 C216 1.415 . S
C216 H192 0.950 . S
C216 C211 1.363 . S
C216 C215 1.415 . S
C217 H193 0.951 . S
C217 C218 1.366 1_455 S
C217 C219 1.388 . S
C218 C217 1.366 1_655 S
C218 C222 1.385 . S
C219 H194 0.951 . S
C219 C217 1.388 . S
C219 C220 1.366 1_455 S
C220 C219 1.366 1_655 S
C220 C221 1.414 . S
C220 C223 1.499 . S
C221 H195 0.950 . S
C221 C220 1.414 . S
C221 C222 1.374 . S
C222 H196 0.950 . S
C222 C218 1.385 . S
C222 C221 1.374 . S
C223 C220 1.499 . S
C223 C224 1.373 . S
C223 C225 1.389 1_655 S
C224 H197 0.950 . S
C224 C210 1.377 . S
C224 C223 1.373 . S
C225 C209 1.377 . S
C225 C223 1.389 1_455 S
C225 C226 1.524 . S
C226 C225 1.524 . S
C226 C227 1.397 . S
C226 C231 1.363 . S
C227 H198 0.950 1_455 S
C227 C226 1.397 . S
C227 C228 1.334 . S
C228 H199 0.950 . S
C228 C227 1.334 . S
C228 C229 1.287 . S
C229 C228 1.287 . S
C229 C230 1.524 . S
C229 H232 0.999 . S
C230 H200 0.950 . S
C230 C229 1.524 . S
C230 C231 1.415 . S
C231 H201 0.950 . S
C231 C226 1.363 . S
C231 C230 1.415 . S
H232 C229 0.999 . S
H233 C214 0.913 . S
H234 C252 0.951 . S
H235 C254 0.951 . S
H236 C256 0.950 . S
H237 C257 0.950 . S
H238 C259 0.950 . S
H239 C262 0.950 . S
H240 C263 0.950 . S
H241 C265 0.950 . S
H242 C266 0.950 . S
H243 C267 0.951 . S
H244 C269 0.951 . S
H245 C271 0.950 . S
H246 C272 0.950 . S
H247 C274 0.950 . S
H248 C277 0.950 . S
H249 C278 0.950 . S
H250 C280 0.950 . S
H251 C281 0.950 . S
C252 H234 0.951 . S
C252 C253 1.366 . S
C252 C254 1.388 . S
C253 C252 1.366 . S
C253 C257 1.385 . S
C254 H235 0.951 . S
C254 C252 1.388 . S
C254 C255 1.366 . S
C255 C254 1.366 . S
C255 C256 1.414 . S
C255 C258 1.499 . S
C256 H236 0.950 . S
C256 C255 1.414 . S
C256 C257 1.374 . S
C257 H237 0.950 . S
C257 C253 1.385 . S
C257 C256 1.374 . S
C258 C255 1.499 . S
C258 C259 1.373 . S
C258 C260 1.389 . S
C259 H238 0.950 . S
C259 C258 1.373 . S
C259 C275 1.377 . S
C260 C258 1.389 . S
C260 C261 1.524 . S
C260 C274 1.377 . S
C261 C260 1.524 . S
C261 C262 1.397 . S
C261 C266 1.363 . S
C262 H239 0.950 . S
C262 C261 1.397 . S
C262 C263 1.334 . S
C263 H240 0.950 . S
C263 C262 1.334 . S
C263 C264 1.287 . S
C264 C263 1.287 . S
C264 C265 1.524 . S
C264 H283 0.913 . S
C265 H241 0.950 . S
C265 C264 1.524 . S
C265 C266 1.415 . S
C266 H242 0.950 . S
C266 C261 1.363 . S
C266 C265 1.415 . S
C267 H243 0.951 . S
C267 C268 1.366 . S
C267 C269 1.388 . S
C268 C267 1.366 . S
C268 C272 1.385 . S
C269 H244 0.951 . S
C269 C267 1.388 . S
C269 C270 1.366 . S
C270 C269 1.366 . S
C270 C271 1.414 . S
C270 C273 1.499 . S
C271 H245 0.950 . S
C271 C270 1.414 . S
C271 C272 1.374 . S
C272 H246 0.950 . S
C272 C268 1.385 . S
C272 C271 1.374 . S
C273 C270 1.499 . S
C273 C274 1.373 . S
C273 C275 1.389 . S
C274 H247 0.950 . S
C274 C260 1.377 . S
C274 C273 1.373 . S
C275 C259 1.377 . S
C275 C273 1.389 . S
C275 C276 1.524 . S
C276 C275 1.524 . S
C276 C277 1.397 . S
C276 C281 1.363 . S
C277 H248 0.950 . S
C277 C276 1.397 . S
C277 C278 1.334 . S
C278 H249 0.950 . S
C278 C277 1.334 . S
C278 C279 1.287 . S
C279 C278 1.287 . S
C279 C280 1.524 . S
C279 H282 0.999 . S
C280 H250 0.950 . S
C280 C279 1.524 . S
C280 C281 1.415 . S
C281 H251 0.950 . S
C281 C276 1.363 . S
C281 C280 1.415 . S
H282 C279 0.999 . S
H283 C264 0.913 . S
H284 C302 0.951 . S
H285 C304 0.951 . S
H286 C306 0.950 . S
H287 C307 0.950 . S
H288 C309 0.950 . S
H289 C312 0.950 1_545 S
H290 C313 0.950 . S
H291 C315 0.950 . S
H292 C316 0.950 . S
H293 C317 0.951 . S
H294 C319 0.951 . S
H295 C321 0.950 . S
H296 C322 0.950 . S
H297 C324 0.950 . S
H298 C327 0.950 . S
H299 C328 0.950 1_565 S
H300 C330 0.950 . S
H301 C331 0.950 . S
C302 H284 0.951 . S
C302 C303 1.366 . S
C302 C304 1.388 . S
C303 C302 1.366 . S
C303 C307 1.385 . S
C304 H285 0.951 . S
C304 C302 1.388 . S
C304 C305 1.366 . S
C305 C304 1.366 . S
C305 C306 1.414 . S
C305 C308 1.499 1_554 S
C306 H286 0.950 . S
C306 C305 1.414 . S
C306 C307 1.374 . S
C307 H287 0.950 . S
C307 C303 1.385 . S
C307 C306 1.374 . S
C308 C305 1.499 1_556 S
C308 C309 1.373 . S
C308 C310 1.389 1_546 S
C309 H288 0.950 . S
C309 C308 1.373 . S
C309 C325 1.377 . S
C310 C308 1.389 1_564 S
C310 C311 1.524 . S
C310 C324 1.377 1_554 S
C311 C310 1.524 . S
C311 C312 1.397 . S
C311 C316 1.363 . S
C312 H289 0.950 1_565 S
C312 C311 1.397 . S
C312 C313 1.334 . S
C313 H290 0.950 . S
C313 C312 1.334 . S
C313 C314 1.287 . S
C314 C313 1.287 . S
C314 C315 1.524 . S
C314 H333 0.913 . S
C315 H291 0.950 . S
C315 C314 1.524 . S
C315 C316 1.415 . S
C316 H292 0.950 . S
C316 C311 1.363 . S
C316 C315 1.415 . S
C317 H293 0.951 . S
C317 C318 1.366 . S
C317 C319 1.388 . S
C318 C317 1.366 . S
C318 C322 1.385 . S
C319 H294 0.951 . S
C319 C317 1.388 . S
C319 C320 1.366 . S
C320 C319 1.366 . S
C320 C321 1.414 . S
C320 C323 1.499 . S
C321 H295 0.950 . S
C321 C320 1.414 . S
C321 C322 1.374 . S
C322 H296 0.950 . S
C322 C318 1.385 . S
C322 C321 1.374 . S
C323 C320 1.499 . S
C323 C324 1.373 . S
C323 C325 1.389 1_565 S
C324 H297 0.950 . S
C324 C310 1.377 1_556 S
C324 C323 1.373 . S
C325 C309 1.377 . S
C325 C323 1.389 1_545 S
C325 C326 1.524 . S
C326 C325 1.524 . S
C326 C327 1.397 1_545 S
C326 C331 1.363 . S
C327 H298 0.950 . S
C327 C326 1.397 1_565 S
C327 C328 1.334 1_565 S
C328 H299 0.950 1_545 S
C328 C327 1.334 1_545 S
C328 C329 1.287 . S
C329 C328 1.287 . S
C329 C330 1.524 . S
C329 H332 0.999 . S
C330 H300 0.950 . S
C330 C329 1.524 . S
C330 C331 1.415 . S
C331 H301 0.950 . S
C331 C326 1.363 . S
C331 C330 1.415 . S
H332 C329 0.999 . S
H333 C314 0.913 . S
H334 C352 0.951 . S
H335 C354 0.951 . S
H336 C356 0.950 . S
H337 C357 0.950 . S
H338 C359 0.950 . S
H339 C362 0.950 . S
H340 C363 0.950 . S
H341 C365 0.950 . S
H342 C366 0.950 . S
H343 C367 0.951 . S
H344 C369 0.951 . S
H345 C371 0.950 . S
H346 C372 0.950 . S
H347 C374 0.950 . S
H348 C377 0.950 . S
H349 C378 0.950 . S
H350 C380 0.950 . S
H351 C381 0.950 1_554 S
C352 H334 0.951 . S
C352 C353 1.366 . S
C352 C354 1.388 . S
C353 C352 1.366 . S
C353 C357 1.385 1_455 S
C354 H335 0.951 . S
C354 C352 1.388 . S
C354 C355 1.366 . S
C355 C354 1.366 . S
C355 C356 1.414 1_455 S
C355 C358 1.499 . S
C356 H336 0.950 . S
C356 C355 1.414 1_655 S
C356 C357 1.374 . S
C357 H337 0.950 . S
C357 C353 1.385 1_655 S
C357 C356 1.374 . S
C358 C355 1.499 . S
C358 C359 1.373 1_455 S
C358 C360 1.389 . S
C359 H338 0.950 . S
C359 C358 1.373 1_655 S
C359 C375 1.377 . S
C360 C358 1.389 . S
C360 C361 1.524 . S
C360 C374 1.377 1_565 S
C361 C360 1.524 . S
C361 C362 1.397 1_565 S
C361 C366 1.363 . S
C362 H339 0.950 . S
C362 C361 1.397 1_545 S
C362 C363 1.334 . S
C363 H340 0.950 . S
C363 C362 1.334 . S
C363 C364 1.287 . S
C364 C363 1.287 . S
C364 C365 1.524 1_545 S
C364 H383 0.913 . S
C365 H341 0.950 . S
C365 C364 1.524 1_565 S
C365 C366 1.415 . S
C366 H342 0.950 . S
C366 C361 1.363 . S
C366 C365 1.415 . S
C367 H343 0.951 . S
C367 C368 1.366 1_655 S
C367 C369 1.388 . S
C368 C367 1.366 1_455 S
C368 C372 1.385 . S
C369 H344 0.951 . S
C369 C367 1.388 . S
C369 C370 1.366 1_655 S
C370 C369 1.366 1_455 S
C370 C371 1.414 . S
C370 C373 1.474 1_556 S
C371 H345 0.950 . S
C371 C370 1.414 . S
C371 C372 1.374 . S
C372 H346 0.950 . S
C372 C368 1.385 . S
C372 C371 1.374 . S
C373 C370 1.474 1_554 S
C373 C374 1.393 . S
C373 C375 1.397 1_445 S
C374 H347 0.950 . S
C374 C360 1.377 1_545 S
C374 C373 1.393 . S
C375 C359 1.377 . S
C375 C373 1.397 1_665 S
C375 C376 1.524 1_554 S
C376 C375 1.524 1_556 S
C376 C377 1.397 . S
C376 C381 1.363 . S
C377 H348 0.950 . S
C377 C376 1.397 . S
C377 C378 1.334 . S
C378 H349 0.950 . S
C378 C377 1.334 . S
C378 C379 1.287 . S
C379 C378 1.287 . S
C379 C380 1.524 . S
C379 H382 0.999 . S
C380 H350 0.950 . S
C380 C379 1.524 . S
C380 C381 1.415 . S
C381 H351 0.950 1_556 S
C381 C376 1.363 . S
C381 C380 1.415 . S
H382 C379 0.999 . S
H383 C364 0.913 . S
H384 C402 0.951 . S
H385 C404 0.951 . S
H386 C406 0.950 . S
H387 C407 0.950 . S
H388 C409 0.950 . S
H389 C412 0.950 . S
H390 C413 0.950 . S
H391 C415 0.950 . S
H392 C416 0.950 . S
H393 C417 0.951 . S
H394 C419 0.951 . S
H395 C421 0.950 . S
H396 C422 0.950 . S
H397 C424 0.950 . S
H398 C427 0.950 . S
H399 C428 0.950 . S
H400 C430 0.950 . S
H401 C431 0.950 . S
C402 H384 0.951 . S
C402 C403 1.366 . S
C402 C404 1.388 . S
C403 C402 1.366 . S
C403 C407 1.385 . S
C404 H385 0.951 . S
C404 C402 1.388 . S
C404 C405 1.366 . S
C405 C404 1.366 . S
C405 C406 1.414 . S
C405 C408 1.499 . S
C406 H386 0.950 . S
C406 C405 1.414 . S
C406 C407 1.374 . S
C407 H387 0.950 . S
C407 C403 1.385 . S
C407 C406 1.374 . S
C408 C405 1.499 . S
C408 C409 1.373 . S
C408 C410 1.389 . S
C409 H388 0.950 . S
C409 C408 1.373 . S
C409 C425 1.377 . S
C410 C408 1.389 . S
C410 C411 1.524 . S
C410 C424 1.377 . S
C411 C410 1.524 . S
C411 C412 1.397 . S
C411 C416 1.363 . S
C412 H389 0.950 . S
C412 C411 1.397 . S
C412 C413 1.334 . S
C413 H390 0.950 . S
C413 C412 1.334 . S
C413 C414 1.287 . S
C414 C413 1.287 . S
C414 C415 1.524 . S
C414 H433 0.913 . S
C415 H391 0.950 . S
C415 C414 1.524 . S
C415 C416 1.415 . S
C416 H392 0.950 . S
C416 C411 1.363 . S
C416 C415 1.415 . S
C417 H393 0.951 . S
C417 C418 1.366 . S
C417 C419 1.388 . S
C418 C417 1.366 . S
C418 C422 1.385 . S
C419 H394 0.951 . S
C419 C417 1.388 . S
C419 C420 1.366 . S
C420 C419 1.366 . S
C420 C421 1.414 . S
C420 C423 1.499 . S
C421 H395 0.950 . S
C421 C420 1.414 . S
C421 C422 1.374 . S
C422 H396 0.950 . S
C422 C418 1.385 . S
C422 C421 1.374 . S
C423 C420 1.499 . S
C423 C424 1.373 . S
C423 C425 1.389 . S
C424 H397 0.950 . S
C424 C410 1.377 . S
C424 C423 1.373 . S
C425 C409 1.377 . S
C425 C423 1.389 . S
C425 C426 1.524 . S
C426 C425 1.524 . S
C426 C427 1.397 . S
C426 C431 1.363 . S
C427 H398 0.950 . S
C427 C426 1.397 . S
C427 C428 1.334 . S
C428 H399 0.950 . S
C428 C427 1.334 . S
C428 C429 1.287 . S
C429 C428 1.287 . S
C429 C430 1.524 . S
C429 H432 0.999 . S
C430 H400 0.950 . S
C430 C429 1.524 . S
C430 C431 1.415 . S
C431 H401 0.950 . S
C431 C426 1.363 . S
C431 C430 1.415 . S
H432 C429 0.999 . S
H433 C414 0.913 . S
H434 C452 0.951 . S
H435 C454 0.951 . S
H436 C456 0.950 . S
H437 C457 0.950 . S
H438 C459 0.950 . S
H439 C462 0.950 . S
H440 C463 0.950 . S
H441 C465 0.950 . S
H442 C466 0.950 . S
H443 C467 0.951 . S
H444 C469 0.951 . S
H445 C471 0.950 . S
H446 C472 0.950 . S
H447 C474 0.950 . S
H448 C477 0.950 . S
H449 C478 0.950 . S
H450 C480 0.950 . S
H451 C481 0.950 . S
C452 H434 0.951 . S
C452 C453 1.366 . S
C452 C454 1.388 . S
C453 C452 1.366 . S
C453 C457 1.385 . S
C454 H435 0.951 . S
C454 C452 1.388 . S
C454 C455 1.366 . S
C455 C454 1.366 . S
C455 C456 1.414 . S
C455 C458 1.499 . S
C456 H436 0.950 . S
C456 C455 1.414 . S
C456 C457 1.374 . S
C457 H437 0.950 . S
C457 C453 1.385 . S
C457 C456 1.374 . S
C458 C455 1.499 . S
C458 C459 1.373 . S
C458 C460 1.389 . S
C459 H438 0.950 . S
C459 C458 1.373 . S
C459 C475 1.377 . S
C460 C458 1.389 . S
C460 C461 1.524 . S
C460 C474 1.377 . S
C461 C460 1.524 . S
C461 C462 1.397 . S
C461 C466 1.363 . S
C462 H439 0.950 . S
C462 C461 1.397 . S
C462 C463 1.334 . S
C463 H440 0.950 . S
C463 C462 1.334 . S
C463 C464 1.287 . S
C464 C463 1.287 . S
C464 C465 1.524 . S
C464 H483 0.913 . S
C465 H441 0.950 . S
C465 C464 1.524 . S
C465 C466 1.415 . S
C466 H442 0.950 . S
C466 C461 1.363 . S
C466 C465 1.415 . S
C467 H443 0.951 . S
C467 C468 1.366 . S
C467 C469 1.388 . S
C468 C467 1.366 . S
C468 C472 1.385 . S
C469 H444 0.951 . S
C469 C467 1.388 . S
C469 C470 1.366 . S
C470 C469 1.366 . S
C470 C471 1.414 . S
C470 C473 1.499 . S
C471 H445 0.950 . S
C471 C470 1.414 . S
C471 C472 1.374 . S
C472 H446 0.950 . S
C472 C468 1.385 . S
C472 C471 1.374 . S
C473 C470 1.499 . S
C473 C474 1.373 . S
C473 C475 1.389 . S
C474 H447 0.950 . S
C474 C460 1.377 . S
C474 C473 1.373 . S
C475 C459 1.377 . S
C475 C473 1.389 . S
C475 C476 1.524 . S
C476 C475 1.524 . S
C476 C477 1.397 . S
C476 C481 1.363 . S
C477 H448 0.950 . S
C477 C476 1.397 . S
C477 C478 1.334 . S
C478 H449 0.950 . S
C478 C477 1.334 . S
C478 C479 1.287 . S
C479 C478 1.287 . S
C479 C480 1.524 . S
C479 H482 0.999 . S
C480 H450 0.950 . S
C480 C479 1.524 . S
C480 C481 1.415 . S
C481 H451 0.950 . S
C481 C476 1.363 . S
C481 C480 1.415 . S
H482 C479 0.999 . S
H483 C464 0.913 . S
H484 C502 0.951 . S
H485 C504 0.951 . S
H486 C506 0.950 . S
H487 C507 0.950 . S
H488 C509 0.950 . S
H489 C512 0.950 . S
H490 C513 0.950 . S
H491 C515 0.950 . S
H492 C516 0.950 . S
H493 C517 0.951 . S
H494 C519 0.951 . S
H495 C521 0.950 . S
H496 C522 0.950 . S
H497 C524 0.950 . S
H498 C527 0.950 . S
H499 C528 0.950 . S
H500 C530 0.950 . S
H501 C531 0.950 . S
C502 H484 0.951 . S
C502 C503 1.366 . S
C502 C504 1.388 . S
C503 C502 1.366 . S
C503 C507 1.385 . S
C504 H485 0.951 . S
C504 C502 1.388 . S
C504 C505 1.366 . S
C505 C504 1.366 . S
C505 C506 1.414 . S
C505 C508 1.499 . S
C506 H486 0.950 . S
C506 C505 1.414 . S
C506 C507 1.374 . S
C507 H487 0.950 . S
C507 C503 1.385 . S
C507 C506 1.374 . S
C508 C505 1.499 . S
C508 C509 1.373 . S
C508 C510 1.389 . S
C509 H488 0.950 . S
C509 C508 1.373 . S
C509 C525 1.377 . S
C510 C508 1.389 . S
C510 C511 1.524 . S
C510 C524 1.377 . S
C511 C510 1.524 . S
C511 C512 1.397 . S
C511 C516 1.363 . S
C512 H489 0.950 . S
C512 C511 1.397 . S
C512 C513 1.334 . S
C513 H490 0.950 . S
C513 C512 1.334 . S
C513 C514 1.287 . S
C514 C513 1.287 . S
C514 C515 1.524 . S
C514 H533 0.913 . S
C515 H491 0.950 . S
C515 C514 1.524 . S
C515 C516 1.415 . S
C516 H492 0.950 . S
C516 C511 1.363 . S
C516 C515 1.415 . S
C517 H493 0.951 . S
C517 C518 1.366 . S
C517 C519 1.388 . S
C518 C517 1.366 . S
C518 C522 1.385 . S
C519 H494 0.951 . S
C519 C517 1.388 . S
C519 C520 1.366 . S
C520 C519 1.366 . S
C520 C521 1.414 . S
C520 C523 1.499 . S
C521 H495 0.950 . S
C521 C520 1.414 . S
C521 C522 1.374 . S
C522 H496 0.950 . S
C522 C518 1.385 . S
C522 C521 1.374 . S
C523 C520 1.499 . S
C523 C524 1.373 . S
C523 C525 1.389 . S
C524 H497 0.950 . S
C524 C510 1.377 . S
C524 C523 1.373 . S
C525 C509 1.377 . S
C525 C523 1.389 . S
C525 C526 1.524 . S
C526 C525 1.524 . S
C526 C527 1.397 . S
C526 C531 1.363 . S
C527 H498 0.950 . S
C527 C526 1.397 . S
C527 C528 1.334 . S
C528 H499 0.950 . S
C528 C527 1.334 . S
C528 C529 1.287 . S
C529 C528 1.287 . S
C529 C530 1.524 . S
C529 H532 0.999 . S
C530 H500 0.950 . S
C530 C529 1.524 . S
C530 C531 1.415 . S
C531 H501 0.950 . S
C531 C526 1.363 . S
C531 C530 1.415 . S
H532 C529 0.999 . S
H533 C514 0.913 . S
H534 C552 0.951 . S
H535 C554 0.951 . S
H536 C556 0.950 . S
H537 C557 0.950 . S
H538 C559 0.950 . S
H539 C562 0.950 . S
H540 C563 0.950 . S
H541 C565 0.950 . S
H542 C566 0.950 . S
H543 C567 0.951 . S
H544 C569 0.951 . S
H545 C571 0.950 . S
H546 C572 0.950 . S
H547 C574 0.950 . S
H548 C577 0.950 . S
H549 C578 0.950 . S
H550 C580 0.950 . S
H551 C581 0.950 . S
C552 H534 0.951 . S
C552 C553 1.366 . S
C552 C554 1.388 . S
C553 C552 1.366 . S
C553 C557 1.385 . S
C554 H535 0.951 . S
C554 C552 1.388 . S
C554 C555 1.366 . S
C555 C554 1.366 . S
C555 C556 1.414 . S
C555 C558 1.499 . S
C556 H536 0.950 . S
C556 C555 1.414 . S
C556 C557 1.374 . S
C557 H537 0.950 . S
C557 C553 1.385 . S
C557 C556 1.374 . S
C558 C555 1.499 . S
C558 C559 1.373 . S
C558 C560 1.389 . S
C559 H538 0.950 . S
C559 C558 1.373 . S
C559 C575 1.377 . S
C560 C558 1.389 . S
C560 C561 1.524 . S
C560 C574 1.377 . S
C561 C560 1.524 . S
C561 C562 1.397 . S
C561 C566 1.363 . S
C562 H539 0.950 . S
C562 C561 1.397 . S
C562 C563 1.334 . S
C563 H540 0.950 . S
C563 C562 1.334 . S
C563 C564 1.287 . S
C564 C563 1.287 . S
C564 C565 1.524 . S
C564 H583 0.913 . S
C565 H541 0.950 . S
C565 C564 1.524 . S
C565 C566 1.415 . S
C566 H542 0.950 . S
C566 C561 1.363 . S
C566 C565 1.415 . S
C567 H543 0.951 . S
C567 C568 1.366 . S
C567 C569 1.388 . S
C568 C567 1.366 . S
C568 C572 1.385 . S
C569 H544 0.951 . S
C569 C567 1.388 . S
C569 C570 1.366 . S
C570 C569 1.366 . S
C570 C571 1.414 . S
C570 C573 1.499 . S
C571 H545 0.950 . S
C571 C570 1.414 . S
C571 C572 1.374 . S
C572 H546 0.950 . S
C572 C568 1.385 . S
C572 C571 1.374 . S
C573 C570 1.499 . S
C573 C574 1.373 . S
C573 C575 1.389 . S
C574 H547 0.950 . S
C574 C560 1.377 . S
C574 C573 1.373 . S
C575 C559 1.377 . S
C575 C573 1.389 . S
C575 C576 1.524 . S
C576 C575 1.524 . S
C576 C577 1.397 . S
C576 C581 1.363 . S
C577 H548 0.950 . S
C577 C576 1.397 . S
C577 C578 1.334 . S
C578 H549 0.950 . S
C578 C577 1.334 . S
C578 C579 1.287 . S
C579 C578 1.287 . S
C579 C580 1.524 . S
C579 H582 0.999 . S
C580 H550 0.950 . S
C580 C579 1.524 . S
C580 C581 1.415 . S
C581 H551 0.950 . S
C581 C576 1.363 . S
C581 C580 1.415 . S
H582 C579 0.999 . S
H583 C564 0.913 . S
H584 C602 0.951 . S
H585 C604 0.951 . S
H586 C606 0.950 . S
H587 C607 0.950 . S
H588 C609 0.950 . S
H589 C612 0.950 . S
H590 C613 0.950 . S
H591 C615 0.950 . S
H592 C616 0.950 . S
H593 C617 0.951 . S
H594 C619 0.951 . S
H595 C621 0.950 . S
H596 C622 0.950 . S
H597 C624 0.950 . S
H598 C627 0.950 . S
H599 C628 0.950 . S
H600 C630 0.950 . S
H601 C631 0.950 . S
C602 H584 0.951 . S
C602 C603 1.366 . S
C602 C604 1.388 . S
C603 C602 1.366 . S
C603 C607 1.385 . S
C604 H585 0.951 . S
C604 C602 1.388 . S
C604 C605 1.366 . S
C605 C604 1.366 . S
C605 C606 1.414 . S
C605 C608 1.499 . S
C606 H586 0.950 . S
C606 C605 1.414 . S
C606 C607 1.374 . S
C607 H587 0.950 . S
C607 C603 1.385 . S
C607 C606 1.374 . S
C608 C605 1.499 . S
C608 C609 1.373 . S
C608 C610 1.389 . S
C609 H588 0.950 . S
C609 C608 1.373 . S
C609 C625 1.377 . S
C610 C608 1.389 . S
C610 C611 1.524 . S
C610 C624 1.377 . S
C611 C610 1.524 . S
C611 C612 1.397 . S
C611 C616 1.363 . S
C612 H589 0.950 . S
C612 C611 1.397 . S
C612 C613 1.334 . S
C613 H590 0.950 . S
C613 C612 1.334 . S
C613 C614 1.287 . S
C614 C613 1.287 . S
C614 C615 1.524 . S
C614 H633 0.913 . S
C615 H591 0.950 . S
C615 C614 1.524 . S
C615 C616 1.415 . S
C616 H592 0.950 . S
C616 C611 1.363 . S
C616 C615 1.415 . S
C617 H593 0.951 . S
C617 C618 1.366 . S
C617 C619 1.388 . S
C618 C617 1.366 . S
C618 C622 1.385 . S
C619 H594 0.951 . S
C619 C617 1.388 . S
C619 C620 1.366 . S
C620 C619 1.366 . S
C620 C621 1.414 . S
C620 C623 1.499 . S
C621 H595 0.950 . S
C621 C620 1.414 . S
C621 C622 1.374 . S
C622 H596 0.950 . S
C622 C618 1.385 . S
C622 C621 1.374 . S
C623 C620 1.499 . S
C623 C624 1.373 . S
C623 C625 1.389 . S
C624 H597 0.950 . S
C624 C610 1.377 . S
C624 C623 1.373 . S
C625 C609 1.377 . S
C625 C623 1.389 . S
C625 C626 1.524 . S
C626 C625 1.524 . S
C626 C627 1.397 . S
C626 C631 1.363 . S
C627 H598 0.950 . S
C627 C626 1.397 . S
C627 C628 1.334 . S
C628 H599 0.950 . S
C628 C627 1.334 . S
C628 C629 1.287 . S
C629 C628 1.287 . S
C629 C630 1.524 . S
C629 H632 0.999 . S
C630 H600 0.950 . S
C630 C629 1.524 . S
C630 C631 1.415 . S
C631 H601 0.950 . S
C631 C626 1.363 . S
C631 C630 1.415 . S
H632 C629 0.999 . S
H633 C614 0.913 . S
H634 C652 0.951 . S
H635 C654 0.951 . S
H636 C656 0.950 . S
H637 C657 0.950 . S
H638 C659 0.950 . S
H639 C662 0.950 . S
H640 C663 0.950 . S
H641 C665 0.950 . S
H642 C666 0.950 . S
H643 C667 0.951 . S
H644 C669 0.951 . S
H645 C671 0.950 . S
H646 C672 0.950 . S
H647 C674 0.950 . S
H648 C677 0.950 . S
H649 C678 0.950 . S
H650 C680 0.950 . S
H651 C681 0.950 . S
C652 H634 0.951 . S
C652 C653 1.366 . S
C652 C654 1.388 . S
C653 C652 1.366 . S
C653 C657 1.385 . S
C654 H635 0.951 . S
C654 C652 1.388 . S
C654 C655 1.366 . S
C655 C654 1.366 . S
C655 C656 1.414 . S
C655 C658 1.499 . S
C656 H636 0.950 . S
C656 C655 1.414 . S
C656 C657 1.374 . S
C657 H637 0.950 . S
C657 C653 1.385 . S
C657 C656 1.374 . S
C658 C655 1.499 . S
C658 C659 1.373 . S
C658 C660 1.389 . S
C659 H638 0.950 . S
C659 C658 1.373 . S
C659 C675 1.377 . S
C660 C658 1.389 . S
C660 C661 1.524 . S
C660 C674 1.377 . S
C661 C660 1.524 . S
C661 C662 1.397 . S
C661 C666 1.363 . S
C662 H639 0.950 . S
C662 C661 1.397 . S
C662 C663 1.334 . S
C663 H640 0.950 . S
C663 C662 1.334 . S
C663 C664 1.287 . S
C664 C663 1.287 . S
C664 C665 1.524 . S
C664 H683 0.913 . S
C665 H641 0.950 . S
C665 C664 1.524 . S
C665 C666 1.415 . S
C666 H642 0.950 . S
C666 C661 1.363 . S
C666 C665 1.415 . S
C667 H643 0.951 . S
C667 C668 1.366 . S
C667 C669 1.388 . S
C668 C667 1.366 . S
C668 C672 1.385 . S
C669 H644 0.951 . S
C669 C667 1.388 . S
C669 C670 1.366 . S
C670 C669 1.366 . S
C670 C671 1.414 . S
C670 C673 1.499 . S
C671 H645 0.950 . S
C671 C670 1.414 . S
C671 C672 1.374 . S
C672 H646 0.950 . S
C672 C668 1.385 . S
C672 C671 1.374 . S
C673 C670 1.499 . S
C673 C674 1.373 . S
C673 C675 1.389 . S
C674 H647 0.950 . S
C674 C660 1.377 . S
C674 C673 1.373 . S
C675 C659 1.377 . S
C675 C673 1.389 . S
C675 C676 1.524 . S
C676 C675 1.524 . S
C676 C677 1.397 . S
C676 C681 1.363 . S
C677 H648 0.950 . S
C677 C676 1.397 . S
C677 C678 1.334 . S
C678 H649 0.950 . S
C678 C677 1.334 . S
C678 C679 1.287 . S
C679 C678 1.287 . S
C679 C680 1.524 . S
C679 H682 0.999 . S
C680 H650 0.950 . S
C680 C679 1.524 . S
C680 C681 1.415 . S
C681 H651 0.950 . S
C681 C676 1.363 . S
C681 C680 1.415 . S
H682 C679 0.999 . S
H683 C664 0.913 . S
H684 C702 0.951 . S
H685 C704 0.951 . S
H686 C706 0.950 . S
H687 C707 0.950 . S
H688 C709 0.950 . S
H689 C712 0.950 . S
H690 C713 0.950 . S
H691 C715 0.950 . S
H692 C716 0.950 . S
H693 C717 0.951 . S
H694 C719 0.951 . S
H695 C721 0.950 . S
H696 C722 0.950 . S
H697 C724 0.950 . S
H698 C727 0.950 . S
H699 C728 0.950 . S
H700 C730 0.950 . S
H701 C731 0.950 . S
C702 H684 0.951 . S
C702 C703 1.366 . S
C702 C704 1.388 . S
C703 C702 1.366 . S
C703 C707 1.385 . S
C704 H685 0.951 . S
C704 C702 1.388 . S
C704 C705 1.366 . S
C705 C704 1.366 . S
C705 C706 1.414 . S
C705 C708 1.499 . S
C706 H686 0.950 . S
C706 C705 1.414 . S
C706 C707 1.374 . S
C707 H687 0.950 . S
C707 C703 1.385 . S
C707 C706 1.374 . S
C708 C705 1.499 . S
C708 C709 1.373 . S
C708 C710 1.389 . S
C709 H688 0.950 . S
C709 C708 1.373 . S
C709 C725 1.377 . S
C710 C708 1.389 . S
C710 C711 1.524 . S
C710 C724 1.377 . S
C711 C710 1.524 . S
C711 C712 1.397 . S
C711 C716 1.363 . S
C712 H689 0.950 . S
C712 C711 1.397 . S
C712 C713 1.334 . S
C713 H690 0.950 . S
C713 C712 1.334 . S
C713 C714 1.287 . S
C714 C713 1.287 . S
C714 C715 1.524 . S
C714 H733 0.913 . S
C715 H691 0.950 . S
C715 C714 1.524 . S
C715 C716 1.415 . S
C716 H692 0.950 . S
C716 C711 1.363 . S
C716 C715 1.415 . S
C717 H693 0.951 . S
C717 C718 1.366 . S
C717 C719 1.388 . S
C718 C717 1.366 . S
C718 C722 1.385 . S
C719 H694 0.951 . S
C719 C717 1.388 . S
C719 C720 1.366 . S
C720 C719 1.366 . S
C720 C721 1.414 . S
C720 C723 1.499 . S
C721 H695 0.950 . S
C721 C720 1.414 . S
C721 C722 1.374 . S
C722 H696 0.950 . S
C722 C718 1.385 . S
C722 C721 1.374 . S
C723 C720 1.499 . S
C723 C724 1.373 . S
C723 C725 1.389 . S
C724 H697 0.950 . S
C724 C710 1.377 . S
C724 C723 1.373 . S
C725 C709 1.377 . S
C725 C723 1.389 . S
C725 C726 1.524 . S
C726 C725 1.524 . S
C726 C727 1.397 . S
C726 C731 1.363 . S
C727 H698 0.950 . S
C727 C726 1.397 . S
C727 C728 1.334 . S
C728 H699 0.950 . S
C728 C727 1.334 . S
C728 C729 1.287 . S
C729 C728 1.287 . S
C729 C730 1.524 . S
C729 H732 0.999 . S
C730 H700 0.950 . S
C730 C729 1.524 . S
C730 C731 1.415 . S
C731 H701 0.950 . S
C731 C726 1.363 . S
C731 C730 1.415 . S
H732 C729 0.999 . S
H733 C714 0.913 . S
H734 C752 0.951 . S
H735 C754 0.951 . S
H736 C756 0.950 . S
H737 C757 0.950 . S
H738 C759 0.950 . S
H739 C762 0.950 . S
H740 C763 0.950 . S
H741 C765 0.950 . S
H742 C766 0.950 . S
H743 C767 0.951 . S
H744 C769 0.951 . S
H745 C771 0.950 . S
H746 C772 0.950 . S
H747 C774 0.950 . S
H748 C777 0.950 . S
H749 C778 0.950 . S
H750 C780 0.950 . S
H751 C781 0.950 . S
C752 H734 0.951 . S
C752 C753 1.366 . S
C752 C754 1.388 . S
C753 C752 1.366 . S
C753 C757 1.385 . S
C754 H735 0.951 . S
C754 C752 1.388 . S
C754 C755 1.366 . S
C755 C754 1.366 . S
C755 C756 1.414 . S
C755 C758 1.499 . S
C756 H736 0.950 . S
C756 C755 1.414 . S
C756 C757 1.374 . S
C757 H737 0.950 . S
C757 C753 1.385 . S
C757 C756 1.374 . S
C758 C755 1.499 . S
C758 C759 1.373 . S
C758 C760 1.389 . S
C759 H738 0.950 . S
C759 C758 1.373 . S
C759 C775 1.377 . S
C760 C758 1.389 . S
C760 C761 1.524 . S
C760 C774 1.377 . S
C761 C760 1.524 . S
C761 C762 1.397 . S
C761 C766 1.363 . S
C762 H739 0.950 . S
C762 C761 1.397 . S
C762 C763 1.334 . S
C763 H740 0.950 . S
C763 C762 1.334 . S
C763 C764 1.287 . S
C764 C763 1.287 . S
C764 C765 1.524 . S
C764 H783 0.913 . S
C765 H741 0.950 . S
C765 C764 1.524 . S
C765 C766 1.415 . S
C766 H742 0.950 . S
C766 C761 1.363 . S
C766 C765 1.415 . S
C767 H743 0.951 . S
C767 C768 1.366 . S
C767 C769 1.388 . S
C768 C767 1.366 . S
C768 C772 1.385 . S
C769 H744 0.951 . S
C769 C767 1.388 . S
C769 C770 1.366 . S
C770 C769 1.366 . S
C770 C771 1.414 . S
C770 C773 1.499 . S
C771 H745 0.950 . S
C771 C770 1.414 . S
C771 C772 1.374 . S
C772 H746 0.950 . S
C772 C768 1.385 . S
C772 C771 1.374 . S
C773 C770 1.499 . S
C773 C774 1.373 . S
C773 C775 1.389 . S
C774 H747 0.950 . S
C774 C760 1.377 . S
C774 C773 1.373 . S
C775 C759 1.377 . S
C775 C773 1.389 . S
C775 C776 1.524 . S
C776 C775 1.524 . S
C776 C777 1.397 . S
C776 C781 1.363 . S
C777 H748 0.950 . S
C777 C776 1.397 . S
C777 C778 1.334 . S
C778 H749 0.950 . S
C778 C777 1.334 . S
C778 C779 1.287 . S
C779 C778 1.287 . S
C779 C780 1.524 . S
C779 H782 0.999 . S
C780 H750 0.950 . S
C780 C779 1.524 . S
C780 C781 1.415 . S
C781 H751 0.950 . S
C781 C776 1.363 . S
C781 C780 1.415 . S
H782 C779 0.999 . S
H783 C764 0.913 . S
H784 C802 0.951 . S
H785 C804 0.951 . S
H786 C806 0.950 . S
H787 C807 0.950 . S
H788 C809 0.950 . S
H789 C812 0.950 . S
H790 C813 0.950 . S
H791 C815 0.950 . S
H792 C816 0.950 . S
H793 C817 0.951 . S
H794 C819 0.951 . S
H795 C821 0.950 . S
H796 C822 0.950 . S
H797 C824 0.950 . S
H798 C827 0.950 . S
H799 C828 0.950 . S
H800 C830 0.950 . S
H801 C831 0.950 . S
C802 H784 0.951 . S
C802 C803 1.366 . S
C802 C804 1.388 . S
C803 C802 1.366 . S
C803 C807 1.385 . S
C804 H785 0.951 . S
C804 C802 1.388 . S
C804 C805 1.366 . S
C805 C804 1.366 . S
C805 C806 1.414 . S
C805 C808 1.499 . S
C806 H786 0.950 . S
C806 C805 1.414 . S
C806 C807 1.374 . S
C807 H787 0.950 . S
C807 C803 1.385 . S
C807 C806 1.374 . S
C808 C805 1.499 . S
C808 C809 1.373 . S
C808 C810 1.389 . S
C809 H788 0.950 . S
C809 C808 1.373 . S
C809 C825 1.377 . S
C810 C808 1.389 . S
C810 C811 1.524 . S
C810 C824 1.377 . S
C811 C810 1.524 . S
C811 C812 1.397 . S
C811 C816 1.363 . S
C812 H789 0.950 . S
C812 C811 1.397 . S
C812 C813 1.334 . S
C813 H790 0.950 . S
C813 C812 1.334 . S
C813 C814 1.287 . S
C814 C813 1.287 . S
C814 C815 1.524 . S
C814 H833 0.913 . S
C815 H791 0.950 . S
C815 C814 1.524 . S
C815 C816 1.415 . S
C816 H792 0.950 . S
C816 C811 1.363 . S
C816 C815 1.415 . S
C817 H793 0.951 . S
C817 C818 1.366 . S
C817 C819 1.388 . S
C818 C817 1.366 . S
C818 C822 1.385 . S
C819 H794 0.951 . S
C819 C817 1.388 . S
C819 C820 1.366 . S
C820 C819 1.366 . S
C820 C821 1.414 . S
C820 C823 1.499 . S
C821 H795 0.950 . S
C821 C820 1.414 . S
C821 C822 1.374 . S
C822 H796 0.950 . S
C822 C818 1.385 . S
C822 C821 1.374 . S
C823 C820 1.499 . S
C823 C824 1.373 . S
C823 C825 1.389 . S
C824 H797 0.950 . S
C824 C810 1.377 . S
C824 C823 1.373 . S
C825 C809 1.377 . S
C825 C823 1.389 . S
C825 C826 1.524 . S
C826 C825 1.524 . S
C826 C827 1.397 . S
C826 C831 1.363 . S
C827 H798 0.950 . S
C827 C826 1.397 . S
C827 C828 1.334 . S
C828 H799 0.950 . S
C828 C827 1.334 . S
C828 C829 1.287 . S
C829 C828 1.287 . S
C829 C830 1.524 . S
C829 H832 0.999 . S
C830 H800 0.950 . S
C830 C829 1.524 . S
C830 C831 1.415 . S
C831 H801 0.950 . S
C831 C826 1.363 . S
C831 C830 1.415 . S
H832 C829 0.999 . S
H833 C814 0.913 . S
H834 C852 0.951 . S
H835 C854 0.951 . S
H836 C856 0.950 . S
H837 C857 0.950 . S
H838 C859 0.950 . S
H839 C862 0.950 . S
H840 C863 0.950 . S
H841 C865 0.950 . S
H842 C866 0.950 . S
H843 C867 0.951 . S
H844 C869 0.951 . S
H845 C871 0.950 . S
H846 C872 0.950 . S
H847 C874 0.950 . S
H848 C877 0.950 . S
H849 C878 0.950 . S
H850 C880 0.950 . S
H851 C881 0.950 . S
C852 H834 0.951 . S
C852 C853 1.366 . S
C852 C854 1.388 . S
C853 C852 1.366 . S
C853 C857 1.385 . S
C854 H835 0.951 . S
C854 C852 1.388 . S
C854 C855 1.366 . S
C855 C854 1.366 . S
C855 C856 1.414 . S
C855 C858 1.499 . S
C856 H836 0.950 . S
C856 C855 1.414 . S
C856 C857 1.374 . S
C857 H837 0.950 . S
C857 C853 1.385 . S
C857 C856 1.374 . S
C858 C855 1.499 . S
C858 C859 1.373 . S
C858 C860 1.389 . S
C859 H838 0.950 . S
C859 C858 1.373 . S
C859 C875 1.377 . S
C860 C858 1.389 . S
C860 C861 1.524 . S
C860 C874 1.377 . S
C861 C860 1.524 . S
C861 C862 1.397 . S
C861 C866 1.363 . S
C862 H839 0.950 . S
C862 C861 1.397 . S
C862 C863 1.334 . S
C863 H840 0.950 . S
C863 C862 1.334 . S
C863 C864 1.287 . S
C864 C863 1.287 . S
C864 C865 1.524 . S
C864 H883 0.913 . S
C865 H841 0.950 . S
C865 C864 1.524 . S
C865 C866 1.415 . S
C866 H842 0.950 . S
C866 C861 1.363 . S
C866 C865 1.415 . S
C867 H843 0.951 . S
C867 C868 1.366 . S
C867 C869 1.388 . S
C868 C867 1.366 . S
C868 C872 1.385 . S
C869 H844 0.951 . S
C869 C867 1.388 . S
C869 C870 1.366 . S
C870 C869 1.366 . S
C870 C871 1.414 . S
C870 C873 1.499 . S
C871 H845 0.950 . S
C871 C870 1.414 . S
C871 C872 1.374 . S
C872 H846 0.950 . S
C872 C868 1.385 . S
C872 C871 1.374 . S
C873 C870 1.499 . S
C873 C874 1.373 . S
C873 C875 1.389 . S
C874 H847 0.950 . S
C874 C860 1.377 . S
C874 C873 1.373 . S
C875 C859 1.377 . S
C875 C873 1.389 . S
C875 C876 1.524 . S
C876 C875 1.524 . S
C876 C877 1.397 . S
C876 C881 1.363 . S
C877 H848 0.950 . S
C877 C876 1.397 . S
C877 C878 1.334 . S
C878 H849 0.950 . S
C878 C877 1.334 . S
C878 C879 1.287 . S
C879 C878 1.287 . S
C879 C880 1.524 . S
C879 H882 0.999 . S
C880 H850 0.950 . S
C880 C879 1.524 . S
C880 C881 1.415 . S
C881 H851 0.950 . S
C881 C876 1.363 . S
C881 C880 1.415 . S
H882 C879 0.999 . S
H883 C864 0.913 . S
H884 C902 0.951 . S
H885 C904 0.951 . S
H886 C906 0.950 . S
H887 C907 0.950 . S
H888 C909 0.950 . S
H889 C912 0.950 . S
H890 C913 0.950 . S
H891 C915 0.950 . S
H892 C916 0.950 . S
H893 C917 0.951 . S
H894 C919 0.951 . S
H895 C921 0.950 . S
H896 C922 0.950 . S
H897 C924 0.950 . S
H898 C927 0.950 . S
H899 C928 0.950 . S
H900 C930 0.950 . S
H901 C931 0.950 . S
C902 H884 0.951 . S
C902 C903 1.366 . S
C902 C904 1.388 . S
C903 C902 1.366 . S
C903 C907 1.385 . S
C904 H885 0.951 . S
C904 C902 1.388 . S
C904 C905 1.366 . S
C905 C904 1.366 . S
C905 C906 1.414 . S
C905 C908 1.499 . S
C906 H886 0.950 . S
C906 C905 1.414 . S
C906 C907 1.374 . S
C907 H887 0.950 . S
C907 C903 1.385 . S
C907 C906 1.374 . S
C908 C905 1.499 . S
C908 C909 1.373 . S
C908 C910 1.389 . S
C909 H888 0.950 . S
C909 C908 1.373 . S
C909 C925 1.377 1_554 S
C910 C908 1.389 . S
C910 C911 1.524 . S
C910 C924 1.377 1_554 S
C911 C910 1.524 . S
C911 C912 1.397 . S
C911 C916 1.363 1_554 S
C912 H889 0.950 . S
C912 C911 1.397 . S
C912 C913 1.334 . S
C913 H890 0.950 . S
C913 C912 1.334 . S
C913 C914 1.287 . S
C914 C913 1.287 . S
C914 C915 1.524 1_554 S
C914 H933 0.913 . S
C915 H891 0.950 . S
C915 C914 1.524 1_556 S
C915 C916 1.415 . S
C916 H892 0.950 . S
C916 C911 1.363 1_556 S
C916 C915 1.415 . S
C917 H893 0.951 . S
C917 C918 1.366 . S
C917 C919 1.388 . S
C918 C917 1.366 . S
C918 C922 1.385 . S
C919 H894 0.951 . S
C919 C917 1.388 . S
C919 C920 1.366 . S
C920 C919 1.366 . S
C920 C921 1.414 . S
C920 C923 1.499 . S
C921 H895 0.950 . S
C921 C920 1.414 . S
C921 C922 1.374 . S
C922 H896 0.950 . S
C922 C918 1.385 . S
C922 C921 1.374 . S
C923 C920 1.499 . S
C923 C924 1.373 . S
C923 C925 1.389 . S
C924 H897 0.950 . S
C924 C910 1.377 1_556 S
C924 C923 1.373 . S
C925 C909 1.377 1_556 S
C925 C923 1.389 . S
C925 C926 1.524 . S
C926 C925 1.524 . S
C926 C927 1.397 . S
C926 C931 1.363 1_556 S
C927 H898 0.950 . S
C927 C926 1.397 . S
C927 C928 1.334 . S
C928 H899 0.950 . S
C928 C927 1.334 . S
C928 C929 1.287 . S
C929 C928 1.287 . S
C929 C930 1.524 1_556 S
C929 H932 0.999 . S
C930 H900 0.950 . S
C930 C929 1.524 1_554 S
C930 C931 1.415 . S
C931 H901 0.950 . S
C931 C926 1.363 1_554 S
C931 C930 1.415 . S
H932 C929 0.999 . S
H933 C914 0.913 . S
H934 C952 0.951 . S
H935 C954 0.951 . S
H936 C956 0.950 . S
H937 C957 0.950 . S
H938 C959 0.950 . S
H939 C962 0.950 . S
H940 C963 0.950 . S
H941 C965 0.950 . S
H942 C966 0.950 . S
H943 C967 0.951 . S
H944 C969 0.951 . S
H945 C971 0.950 . S
H946 C972 0.950 . S
H947 C974 0.950 . S
H948 C977 0.950 . S
H949 C978 0.950 . S
H950 C980 0.950 . S
H951 C981 0.950 . S
C952 H934 0.951 . S
C952 C953 1.366 . S
C952 C954 1.388 . S
C953 C952 1.366 . S
C953 C957 1.385 . S
C954 H935 0.951 . S
C954 C952 1.388 . S
C954 C955 1.366 . S
C955 C954 1.366 . S
C955 C956 1.414 . S
C955 C958 1.499 . S
C956 H936 0.950 . S
C956 C955 1.414 . S
C956 C957 1.374 . S
C957 H937 0.950 . S
C957 C953 1.385 . S
C957 C956 1.374 . S
C958 C955 1.499 . S
C958 C959 1.373 . S
C958 C960 1.389 . S
C959 H938 0.950 . S
C959 C958 1.373 . S
C959 C975 1.377 1_554 S
C960 C958 1.389 . S
C960 C961 1.524 . S
C960 C974 1.377 1_554 S
C961 C960 1.524 . S
C961 C962 1.397 . S
C961 C966 1.363 . S
C962 H939 0.950 . S
C962 C961 1.397 . S
C962 C963 1.334 . S
C963 H940 0.950 . S
C963 C962 1.334 . S
C963 C964 1.287 . S
C964 C963 1.287 . S
C964 C965 1.524 . S
C964 H983 0.913 . S
C965 H941 0.950 . S
C965 C964 1.524 . S
C965 C966 1.415 . S
C966 H942 0.950 . S
C966 C961 1.363 . S
C966 C965 1.415 . S
C967 H943 0.951 . S
C967 C968 1.366 . S
C967 C969 1.388 . S
C968 C967 1.366 . S
C968 C972 1.385 . S
C969 H944 0.951 . S
C969 C967 1.388 . S
C969 C970 1.366 . S
C970 C969 1.366 . S
C970 C971 1.414 . S
C970 C973 1.499 . S
C971 H945 0.950 . S
C971 C970 1.414 . S
C971 C972 1.374 . S
C972 H946 0.950 . S
C972 C968 1.385 . S
C972 C971 1.374 . S
C973 C970 1.499 . S
C973 C974 1.373 . S
C973 C975 1.389 . S
C974 H947 0.950 . S
C974 C960 1.377 1_556 S
C974 C973 1.373 . S
C975 C959 1.377 1_556 S
C975 C973 1.389 . S
C975 C976 1.524 . S
C976 C975 1.524 . S
C976 C977 1.397 . S
C976 C981 1.363 . S
C977 H948 0.950 . S
C977 C976 1.397 . S
C977 C978 1.334 . S
C978 H949 0.950 . S
C978 C977 1.334 . S
C978 C979 1.287 . S
C979 C978 1.287 . S
C979 C980 1.524 . S
C979 H982 0.999 . S
C980 H950 0.950 . S
C980 C979 1.524 . S
C980 C981 1.415 . S
C981 H951 0.950 . S
C981 C976 1.363 . S
C981 C980 1.415 . S
H982 C979 0.999 . S
H983 C964 0.913 . S
C203 C16 1.666 . S
C218 N58 1.730 . S
C253 N81 1.730 . S
C268 C39 1.666 . S
C303 N150 1.730 . S
C318 C108 1.665 . S
C353 C131 1.666 . S
C368 N173 1.730 . S
C403 C154 1.963 . S
C418 N12 1.939 . S
C453 N35 1.938 . S
C468 C177 1.951 1_655 S
C503 C62 1.951 1_455 S
C518 N104 1.938 . S
C553 C85 1.962 . S
C568 N127 1.938 . S
C603 N140 1.929 . S
C618 C7 2.057 . S
C653 C30 2.057 . S
C668 N163 1.929 . S
C703 C99 2.057 . S
C718 N48 1.929 . S
C753 C122 2.056 . S
C768 N71 1.927 . S
C803 N25 0.571 . S
C818 N2 0.572 . S
C853 C53 0.294 . S
C868 C76 0.295 . S
C903 N117 0.571 . S
C918 N94 0.572 . S
C953 C145 0.296 . S
C968 C168 0.296 . S
