# Generated by pormake.
# Topology upa, (4)-cn, num edge types: 1
# Building blocks:
#     Node 0, Type 0, BuildingBlock: NAHDIM_clean_sbu_0, # of connection points: 4
#     Node 1, Type 0, BuildingBlock: NAHDIM_clean_sbu_0, # of connection points: 4
#     Node 2, Type 0, BuildingBlock: NAHDIM_clean_sbu_0, # of connection points: 4
#     Node 3, Type 0, BuildingBlock: NAHDIM_clean_sbu_0, # of connection points: 4
#     Node 4, Type 0, BuildingBlock: NAHDIM_clean_sbu_0, # of connection points: 4
#     Node 5, Type 0, BuildingBlock: NAHDIM_clean_sbu_0, # of connection points: 4
#     Node 6, Type 0, BuildingBlock: NAHDIM_clean_sbu_0, # of connection points: 4
#     Node 7, Type 0, BuildingBlock: NAHDIM_clean_sbu_0, # of connection points: 4
#     Edge 8, Type (0, 0), BuildingBlock: MIFKUJ_clean_linker_0, # of connection points: 2
#     Edge 9, Type (0, 0), BuildingBlock: MIFKUJ_clean_linker_0, # of connection points: 2
#     Edge 10, Type (0, 0), BuildingBlock: MIFKUJ_clean_linker_0, # of connection points: 2
#     Edge 11, Type (0, 0), BuildingBlock: MIFKUJ_clean_linker_0, # of connection points: 2
#     Edge 12, Type (0, 0), BuildingBlock: MIFKUJ_clean_linker_0, # of connection points: 2
#     Edge 13, Type (0, 0), BuildingBlock: MIFKUJ_clean_linker_0, # of connection points: 2
#     Edge 14, Type (0, 0), BuildingBlock: MIFKUJ_clean_linker_0, # of connection points: 2
#     Edge 15, Type (0, 0), BuildingBlock: MIFKUJ_clean_linker_0, # of connection points: 2
#     Edge 16, Type (0, 0), BuildingBlock: MIFKUJ_clean_linker_0, # of connection points: 2
#     Edge 17, Type (0, 0), BuildingBlock: MIFKUJ_clean_linker_0, # of connection points: 2
#     Edge 18, Type (0, 0), BuildingBlock: MIFKUJ_clean_linker_0, # of connection points: 2
#     Edge 19, Type (0, 0), BuildingBlock: MIFKUJ_clean_linker_0, # of connection points: 2
#     Edge 20, Type (0, 0), BuildingBlock: MIFKUJ_clean_linker_0, # of connection points: 2
#     Edge 21, Type (0, 0), BuildingBlock: MIFKUJ_clean_linker_0, # of connection points: 2
#     Edge 22, Type (0, 0), BuildingBlock: MIFKUJ_clean_linker_0, # of connection points: 2
#     Edge 23, Type (0, 0), BuildingBlock: MIFKUJ_clean_linker_0, # of connection points: 2
# Relax obj value: 0.271
# Max RMSD: 0.206
# Mean RMSD: 0.206
data_MOF--net-upa--node1-NAHDIM_clean_sbu_0--edge1-MIFKUJ_clean_linker_0
_symmetry_space_group_name_H-M    P1
_symmetry_Int_Tables_number       1
_symmetry_cell_setting            triclinic
loop_
_symmetry_equiv_pos_as_xyz
'x, y, z'
_cell_length_a     34.33808
_cell_length_b     34.419453
_cell_length_c     54.065593
_cell_angle_alpha  89.971242
_cell_angle_beta   90.013212
_cell_angle_gamma 89.965608
loop_
_atom_site_label
_atom_site_type_symbol
_atom_site_fract_x
_atom_site_fract_y
_atom_site_fract_z
_atom_type_partial_charge
C0 C 0.24163 0.22212 0.28144 0.0
O1 O 0.21076 0.22586 0.26728 0.0
O2 O 0.14982 0.26447 0.31205 0.0
Zn3 Zn 0.18659 0.22175 0.32321 0.0
O4 O 0.19897 0.22622 0.35974 0.0
C5 C 0.12814 0.16929 0.30385 0.0
O6 O 0.11712 0.20008 0.29135 0.0
O7 O 0.23749 0.22086 0.30478 0.0
C8 C 0.18086 0.20566 0.37555 0.0
O9 O 0.15314 0.18219 0.36802 0.0
C10 C 0.11934 0.26858 0.32518 0.0
O11 O 0.11781 0.25096 0.3467 0.0
O12 O 0.15831 0.1709 0.31747 0.0
C13 C 0.26211 0.75557 0.79802 0.0
O14 O 0.2313 0.74321 0.8101 0.0
O15 O 0.24773 0.64907 0.80322 0.0
Zn16 Zn 0.2889 0.68465 0.81728 0.0
O17 O 0.27965 0.69855 0.85295 0.0
C18 C 0.36698 0.65642 0.80167 0.0
O19 O 0.36765 0.68481 0.78542 0.0
O20 O 0.29237 0.7343 0.79764 0.0
C21 C 0.28454 0.67335 0.86985 0.0
O22 O 0.29333 0.63748 0.86367 0.0
C23 C 0.22126 0.63189 0.81549 0.0
O24 O 0.21641 0.64046 0.83895 0.0
O25 O 0.3381 0.65309 0.81617 0.0
C26 C 0.76746 0.7941 0.28347 0.0
O27 O 0.79659 0.8085 0.27066 0.0
O28 O 0.86041 0.73209 0.30198 0.0
Zn29 Zn 0.82835 0.7742 0.31852 0.0
O30 O 0.82332 0.76696 0.35554 0.0
C31 C 0.89346 0.82497 0.30981 0.0
O32 O 0.91201 0.79162 0.30947 0.0
O33 O 0.77439 0.77752 0.30402 0.0
C34 C 0.85132 0.77543 0.36996 0.0
O35 O 0.88467 0.78666 0.36049 0.0
C36 C 0.88218 0.70888 0.314 0.0
O37 O 0.8788 0.70713 0.33816 0.0
O38 O 0.85671 0.82518 0.31297 0.0
C39 C 0.73064 0.22969 0.79078 0.0
O40 O 0.76107 0.25279 0.79056 0.0
O41 O 0.74049 0.32817 0.8064 0.0
Zn42 Zn 0.69783 0.29284 0.81878 0.0
O43 O 0.70035 0.28514 0.85567 0.0
C44 C 0.64695 0.34578 0.79367 0.0
O45 O 0.67705 0.34823 0.77876 0.0
O46 O 0.69969 0.24083 0.80157 0.0
C47 C 0.68924 0.31255 0.86977 0.0
O48 O 0.67772 0.34553 0.85992 0.0
C49 C 0.76038 0.35195 0.81918 0.0
O50 O 0.75801 0.35091 0.8434 0.0
O51 O 0.64777 0.32142 0.81137 0.0
C52 C 0.745 0.28522 0.21252 0.0
O53 O 0.72473 0.25324 0.21572 0.0
O54 O 0.64263 0.26989 0.20089 0.0
Zn55 Zn 0.67799 0.30776 0.18337 0.0
O56 O 0.6843 0.29428 0.14743 0.0
C57 C 0.6281 0.36711 0.20285 0.0
O58 O 0.62737 0.3434 0.22189 0.0
O59 O 0.73062 0.31254 0.19961 0.0
C60 C 0.65427 0.29288 0.1337 0.0
O61 O 0.61977 0.2983 0.14365 0.0
C62 C 0.62916 0.23793 0.19281 0.0
O63 O 0.64191 0.2241 0.17167 0.0
O64 O 0.64969 0.35894 0.18447 0.0
C65 C 0.18809 0.26266 0.70495 0.0
O66 O 0.22241 0.25124 0.69703 0.0
O67 O 0.19252 0.15125 0.69914 0.0
Zn68 Zn 0.16467 0.19324 0.68 0.0
O69 O 0.18917 0.20578 0.64692 0.0
C70 C 0.11413 0.13827 0.66051 0.0
O71 O 0.14818 0.12715 0.65201 0.0
O72 O 0.15843 0.24196 0.70013 0.0
C73 C 0.21472 0.18555 0.63578 0.0
O74 O 0.22888 0.15441 0.64657 0.0
C75 C 0.22794 0.14352 0.70387 0.0
O76 O 0.25563 0.16673 0.69596 0.0
O77 O 0.11226 0.16931 0.6732 0.0
C78 C 0.26308 0.73524 0.21535 0.0
O79 O 0.2928 0.73388 0.23064 0.0
O80 O 0.35679 0.78636 0.19685 0.0
Zn81 Zn 0.32179 0.75053 0.17726 0.0
O82 O 0.3142 0.76548 0.14157 0.0
C83 C 0.3393 0.66666 0.18318 0.0
O84 O 0.30307 0.66181 0.19033 0.0
O85 O 0.26902 0.7427 0.19265 0.0
C86 C 0.34107 0.759 0.12594 0.0
O87 O 0.37495 0.74615 0.13376 0.0
C88 C 0.38096 0.80961 0.18693 0.0
O89 O 0.37843 0.81658 0.16311 0.0
O90 O 0.35115 0.70024 0.17707 0.0
C91 C 0.81791 0.70772 0.68894 0.0
O92 O 0.83003 0.70478 0.66598 0.0
O93 O 0.83583 0.83516 0.69709 0.0
Zn94 Zn 0.85157 0.7828 0.68356 0.0
O95 O 0.84402 0.78048 0.64658 0.0
C96 C 0.93856 0.78861 0.69447 0.0
O97 O 0.9703 0.76985 0.70097 0.0
O98 O 0.82142 0.74005 0.70006 0.0
C99 C 0.82623 0.80611 0.63396 0.0
O100 O 0.81118 0.83641 0.64521 0.0
C101 C 0.8014 0.84218 0.70449 0.0
O102 O 0.7754 0.8142 0.70418 0.0
O103 O 0.90745 0.7692 0.69141 0.0
H104 H 0.15043 0.09355 0.30853 0.0
H105 H 0.10794 0.03617 0.30901 0.0
H106 H 0.00711 0.11013 0.30196 0.0
H107 H 0.04944 0.16742 0.30088 0.0
H108 H 0.99892 0.05127 0.33793 0.0
H109 H 0.03485 0.06598 0.25289 0.0
H110 H 0.08046 0.0745 0.2181 0.0
H111 H 0.13553 0.966 0.23593 0.0
H112 H 0.09058 0.95711 0.27108 0.0
H113 H 0.86526 0.89949 0.30742 0.0
H114 H 0.90322 0.95973 0.30572 0.0
H115 H 0.00972 0.89321 0.30717 0.0
H116 H 0.97228 0.83318 0.30882 0.0
H117 H 0.01239 0.95059 0.27279 0.0
H118 H 0.97698 0.93667 0.35855 0.0
H119 H 0.93096 0.92819 0.39312 0.0
H120 H 0.87454 0.03546 0.37401 0.0
H121 H 0.91983 0.04422 0.33901 0.0
C122 C 0.11921 0.09742 0.30698 0.0
C123 C 0.10313 0.13465 0.30421 0.0
C124 C 0.09504 0.06477 0.30725 0.0
C125 C 0.05448 0.06904 0.30523 0.0
C126 C 0.03836 0.10632 0.30329 0.0
C127 C 0.06253 0.13887 0.3025 0.0
C128 C 0.02895 0.0345 0.30463 0.0
C129 C 0.00144 0.02946 0.32354 0.0
C130 C 0.0327 0.00599 0.28598 0.0
C131 C 0.05961 0.01108 0.26477 0.0
C132 C 0.05691 0.0441 0.24952 0.0
C133 C 0.0826 0.04897 0.22971 0.0
C134 C 0.11095 0.02086 0.22485 0.0
C135 C 0.11359 0.98777 0.23974 0.0
C136 C 0.08799 0.98278 0.2596 0.0
C137 C 0.89676 0.89774 0.30733 0.0
C138 C 0.91575 0.86158 0.30821 0.0
C139 C 0.91837 0.93214 0.30641 0.0
C140 C 0.95926 0.93087 0.30647 0.0
C141 C 0.9782 0.89481 0.30704 0.0
C142 C 0.9567 0.86053 0.30803 0.0
C143 C 0.9826 0.967 0.30627 0.0
C144 C 0.00971 0.97242 0.28716 0.0
C145 C 0.97843 0.99583 0.32475 0.0
C146 C 0.95152 0.99088 0.34599 0.0
C147 C 0.95457 0.9583 0.3616 0.0
C148 C 0.92865 0.95346 0.38129 0.0
C149 C 0.89978 0.98122 0.38573 0.0
C150 C 0.89688 0.01395 0.37053 0.0
C151 C 0.92267 0.01887 0.35076 0.0
H152 H 0.87969 0.97742 0.40096 0.0
H153 H 0.13081 0.02468 0.2095 0.0
H154 H 0.43533 0.65482 0.77534 0.0
H155 H 0.48354 0.6024 0.77413 0.0
H156 H 0.41536 0.53673 0.82654 0.0
H157 H 0.36791 0.58924 0.82843 0.0
H158 H 0.48902 0.52965 0.83741 0.0
H159 H 0.41281 0.51785 0.76322 0.0
H160 H 0.38337 0.54034 0.72413 0.0
H161 H 0.49705 0.56339 0.6945 0.0
H162 H 0.52716 0.54148 0.73354 0.0
H163 H 0.57731 0.34624 0.81837 0.0
H164 H 0.52888 0.3984 0.81911 0.0
H165 H 0.59839 0.46467 0.76772 0.0
H166 H 0.64609 0.41223 0.76621 0.0
H167 H 0.52417 0.47145 0.75649 0.0
H168 H 0.59972 0.48027 0.8314 0.0
H169 H 0.6277 0.45482 0.87025 0.0
H170 H 0.51271 0.43542 0.89883 0.0
H171 H 0.48416 0.45994 0.85994 0.0
C172 C 0.43079 0.62934 0.78673 0.0
C173 C 0.39765 0.62614 0.80185 0.0
C174 C 0.45825 0.5993 0.78593 0.0
C175 C 0.45273 0.56529 0.79992 0.0
C176 C 0.42025 0.5626 0.81554 0.0
C177 C 0.39306 0.59269 0.81654 0.0
C178 C 0.48017 0.53204 0.79797 0.0
C179 C 0.49638 0.51667 0.81973 0.0
C180 C 0.49022 0.51537 0.7749 0.0
C181 C 0.4722 0.5284 0.75138 0.0
C182 C 0.43151 0.52797 0.74842 0.0
C183 C 0.41471 0.54057 0.72627 0.0
C184 C 0.43832 0.55339 0.70687 0.0
C185 C 0.4788 0.55352 0.70956 0.0
C186 C 0.49575 0.54098 0.73168 0.0
C187 C 0.58198 0.37171 0.80697 0.0
C188 C 0.61557 0.37513 0.79228 0.0
C189 C 0.55443 0.40162 0.80755 0.0
C190 C 0.56038 0.43581 0.79385 0.0
C191 C 0.59318 0.43862 0.77848 0.0
C192 C 0.62044 0.40855 0.77763 0.0
C193 C 0.53307 0.46911 0.79591 0.0
C194 C 0.51687 0.48448 0.77417 0.0
C195 C 0.5228 0.48555 0.81903 0.0
C196 C 0.53989 0.4716 0.84266 0.0
C197 C 0.58048 0.47035 0.84593 0.0
C198 C 0.59642 0.4561 0.86795 0.0
C199 C 0.572 0.44348 0.88699 0.0
C200 C 0.5316 0.44517 0.88406 0.0
C201 C 0.51554 0.45923 0.86203 0.0
H202 H 0.58439 0.43244 0.90401 0.0
H203 H 0.42526 0.56314 0.68973 0.0
H204 H 0.5732 0.38818 0.23691 0.0
H205 H 0.52331 0.43856 0.23266 0.0
H206 H 0.57092 0.47149 0.16199 0.0
H207 H 0.62047 0.42062 0.16567 0.0
H208 H 0.54508 0.52993 0.2145 0.0
H209 H 0.51099 0.44719 0.14151 0.0
H210 H 0.49447 0.38509 0.12134 0.0
H211 H 0.4054 0.36459 0.17553 0.0
H212 H 0.42211 0.42621 0.19635 0.0
H213 H 0.4139 0.66669 0.16609 0.0
H214 H 0.46204 0.61497 0.16947 0.0
H215 H 0.37714 0.5414 0.20501 0.0
H216 H 0.3283 0.59308 0.20141 0.0
H217 H 0.42049 0.50151 0.17153 0.0
H218 H 0.44408 0.58638 0.23956 0.0
H219 H 0.45365 0.65044 0.25899 0.0
H220 H 0.55825 0.66718 0.21686 0.0
H221 H 0.54906 0.60332 0.1969 0.0
C222 C 0.57329 0.40626 0.22051 0.0
C223 C 0.60064 0.40017 0.20153 0.0
C224 C 0.54464 0.43485 0.21809 0.0
C225 C 0.54304 0.45789 0.19676 0.0
C226 C 0.57128 0.45323 0.17831 0.0
C227 C 0.5997 0.42437 0.18056 0.0
C228 C 0.51222 0.4874 0.19409 0.0
C229 C 0.51801 0.52398 0.20485 0.0
C230 C 0.47653 0.479 0.18224 0.0
C231 C 0.4684 0.44081 0.17078 0.0
C232 C 0.48851 0.42902 0.14944 0.0
C233 C 0.47888 0.39408 0.13777 0.0
C234 C 0.44885 0.37095 0.14711 0.0
C235 C 0.42856 0.38259 0.16826 0.0
C236 C 0.43823 0.41741 0.18006 0.0
C237 C 0.40529 0.63947 0.17453 0.0
C238 C 0.36734 0.6341 0.18371 0.0
C239 C 0.43293 0.60998 0.17651 0.0
C240 C 0.42334 0.57466 0.1879 0.0
C241 C 0.38513 0.56858 0.19628 0.0
C242 C 0.35731 0.59812 0.19423 0.0
C243 C 0.45358 0.54451 0.1914 0.0
C244 C 0.44758 0.50765 0.1811 0.0
C245 C 0.48896 0.5526 0.20385 0.0
C246 C 0.49565 0.59024 0.21655 0.0
C247 C 0.46907 0.60377 0.23438 0.0
C248 C 0.47442 0.64002 0.24548 0.0
C249 C 0.50641 0.66291 0.23905 0.0
C250 C 0.53343 0.64941 0.22175 0.0
C251 C 0.5282 0.61315 0.21056 0.0
H252 H 0.51018 0.69111 0.2475 0.0
H253 H 0.44141 0.34393 0.13804 0.0
H254 H 0.1122 0.06767 0.6381 0.0
H255 H 0.06089 0.01953 0.64008 0.0
H256 H 0.98767 0.10023 0.67973 0.0
H257 H 0.03994 0.14868 0.67847 0.0
H258 H 0.98834 0.03675 0.70327 0.0
H259 H 0.96196 0.06461 0.62031 0.0
H260 H 0.9745 0.07961 0.57644 0.0
H261 H 0.0272 0.96755 0.56655 0.0
H262 H 0.01557 0.95204 0.61043 0.0
H263 H 0.89394 0.8345 0.66404 0.0
H264 H 0.90075 0.90457 0.65701 0.0
H265 H 0.99642 0.90745 0.70881 0.0
H266 H 0.98828 0.83841 0.71672 0.0
H267 H 0.95749 0.94151 0.63731 0.0
H268 H 0.00753 0.9912 0.73685 0.0
H269 H 0.98785 0.97942 0.78006 0.0
H270 H 0.87472 0.94266 0.75566 0.0
H271 H 0.89363 0.95501 0.71236 0.0
C272 C 0.08495 0.07563 0.64683 0.0
C273 C 0.0803 0.11194 0.65833 0.0
C274 C 0.05535 0.04805 0.64775 0.0
C275 C 0.02011 0.05624 0.65984 0.0
C276 C 0.01457 0.09324 0.67026 0.0
C277 C 0.04443 0.12091 0.6695 0.0
C278 C 0.99191 0.02427 0.66428 0.0
C279 C 0.98107 0.01622 0.68878 0.0
C280 C 0.98086 0.9982 0.64527 0.0
C281 C 0.98786 0.00718 0.61874 0.0
C282 C 0.97641 0.04321 0.60883 0.0
C283 C 0.98335 0.05181 0.58394 0.0
C284 C 0.00163 0.02455 0.56872 0.0
C285 C 0.01298 0.98861 0.57835 0.0
C286 C 0.00612 0.97987 0.60323 0.0
C287 C 0.9154 0.85046 0.67453 0.0
C288 C 0.94003 0.83117 0.69127 0.0
C289 C 0.9196 0.89039 0.67031 0.0
C290 C 0.94867 0.91154 0.68269 0.0
C291 C 0.97302 0.89218 0.69954 0.0
C292 C 0.96864 0.85253 0.70385 0.0
C293 C 0.95672 0.95281 0.67649 0.0
C294 C 0.9637 0.96258 0.65168 0.0
C295 C 0.9632 0.98096 0.69513 0.0
C296 C 0.95193 0.97393 0.7213 0.0
C297 C 0.97834 0.98094 0.74069 0.0
C298 C 0.96736 0.97411 0.76523 0.0
C299 C 0.93005 0.96032 0.77062 0.0
C300 C 0.90361 0.95336 0.7515 0.0
C301 C 0.91444 0.96022 0.72697 0.0
H302 H 0.92163 0.95502 0.78962 0.0
H303 H 0.00699 0.03127 0.54946 0.0
H304 H 0.24547 0.23849 0.39678 0.0
H305 H 0.26376 0.23746 0.4406 0.0
H306 H 0.1573 0.17669 0.4579 0.0
H307 H 0.13951 0.17656 0.41428 0.0
H308 H 0.23366 0.26599 0.48131 0.0
H309 H 0.16973 0.11275 0.50274 0.0
H310 H 0.16029 0.05013 0.48142 0.0
H311 H 0.2543 0.07682 0.43191 0.0
H312 H 0.26469 0.13935 0.45315 0.0
H313 H 0.18154 0.24023 0.6058 0.0
H314 H 0.18968 0.24734 0.5613 0.0
H315 H 0.27701 0.15712 0.5617 0.0
H316 H 0.26818 0.14903 0.60628 0.0
H317 H 0.22679 0.14203 0.52798 0.0
H318 H 0.30023 0.25339 0.54787 0.0
H319 H 0.31672 0.31506 0.56852 0.0
H320 H 0.21792 0.37014 0.5347 0.0
H321 H 0.20048 0.30865 0.51411 0.0
C322 C 0.22598 0.22495 0.40996 0.0
C323 C 0.19123 0.20725 0.40206 0.0
C324 C 0.23645 0.22443 0.43498 0.0
C325 C 0.21229 0.20632 0.45247 0.0
C326 C 0.17693 0.18992 0.44467 0.0
C327 C 0.16669 0.19003 0.41971 0.0
C328 C 0.22368 0.20434 0.47893 0.0
C329 C 0.23242 0.2389 0.49153 0.0
C330 C 0.22344 0.16877 0.49209 0.0
C331 C 0.21781 0.13087 0.47946 0.0
C332 C 0.18855 0.10516 0.48741 0.0
C333 C 0.18299 0.0697 0.47531 0.0
C334 C 0.20662 0.05954 0.45529 0.0
C335 C 0.23595 0.08477 0.44738 0.0
C336 C 0.24165 0.12025 0.45942 0.0
C337 C 0.20299 0.22232 0.59654 0.0
C338 C 0.22397 0.19381 0.60957 0.0
C339 C 0.20782 0.22662 0.57105 0.0
C340 C 0.23416 0.20294 0.55811 0.0
C341 C 0.25647 0.17568 0.57127 0.0
C342 C 0.25143 0.17113 0.59677 0.0
C343 C 0.23517 0.20395 0.53065 0.0
C344 C 0.22871 0.16913 0.5178 0.0
C345 C 0.23861 0.23912 0.51722 0.0
C346 C 0.24892 0.27628 0.52954 0.0
C347 C 0.28184 0.27856 0.54497 0.0
C348 C 0.29139 0.31351 0.55664 0.0
C349 C 0.26835 0.34648 0.55295 0.0
C350 C 0.23574 0.34457 0.53754 0.0
C351 C 0.22605 0.30969 0.52582 0.0
H352 H 0.27579 0.37351 0.56201 0.0
H353 H 0.20224 0.0321 0.44593 0.0
H354 H 0.27677 0.62618 0.91007 0.0
H355 H 0.27989 0.64471 0.95365 0.0
H356 H 0.29556 0.76468 0.93251 0.0
H357 H 0.29067 0.74647 0.88899 0.0
H358 H 0.33607 0.67175 0.97833 0.0
H359 H 0.26614 0.82586 0.97732 0.0
H360 H 0.2136 0.86103 0.95566 0.0
H361 H 0.15574 0.75311 0.94042 0.0
H362 H 0.20764 0.71734 0.96225 0.0
H363 H 0.3931 0.76162 0.08787 0.0
H364 H 0.37934 0.75314 0.04385 0.0
H365 H 0.25628 0.7476 0.05969 0.0
H366 H 0.26977 0.75777 0.10357 0.0
H367 H 0.26572 0.78169 0.01739 0.0
H368 H 0.31279 0.66426 0.05391 0.0
H369 H 0.35825 0.623 0.07757 0.0
H370 H 0.44856 0.64611 0.02465 0.0
H371 H 0.40376 0.68796 0.00086 0.0
C372 C 0.28032 0.65657 0.91475 0.0
C373 C 0.28345 0.68487 0.89614 0.0
C374 C 0.28221 0.66714 0.93966 0.0
C375 C 0.28776 0.70615 0.94645 0.0
C376 C 0.29043 0.73452 0.92784 0.0
C377 C 0.28782 0.72404 0.90293 0.0
C378 C 0.29314 0.7167 0.97289 0.0
C379 C 0.32054 0.69575 0.98682 0.0
C380 C 0.27255 0.74763 0.98422 0.0
C381 C 0.24101 0.76892 0.97121 0.0
C382 C 0.24213 0.80965 0.96942 0.0
C383 C 0.21247 0.82969 0.9571 0.0
C384 C 0.18142 0.80931 0.9466 0.0
C385 C 0.17989 0.76885 0.94847 0.0
C386 C 0.20945 0.74868 0.96079 0.0
C387 C 0.36308 0.75931 0.0819 0.0
C388 C 0.33255 0.7599 0.09917 0.0
C389 C 0.35524 0.75427 0.05676 0.0
C390 C 0.31683 0.74867 0.04853 0.0
C391 C 0.28615 0.75164 0.06559 0.0
C392 C 0.29392 0.75741 0.09069 0.0
C393 C 0.30888 0.73698 0.02259 0.0
C394 C 0.28114 0.75772 0.0088 0.0
C395 C 0.32808 0.70492 0.0116 0.0
C396 C 0.35503 0.67952 0.02574 0.0
C397 C 0.34241 0.66072 0.04741 0.0
C398 C 0.36805 0.63722 0.06083 0.0
C399 C 0.40629 0.63201 0.05265 0.0
C400 C 0.41894 0.65021 0.03099 0.0
C401 C 0.39344 0.67381 0.01752 0.0
H402 H 0.4261 0.61381 0.06307 0.0
H403 H 0.1585 0.82487 0.93706 0.0
H404 H 0.79394 0.85718 0.60096 0.0
H405 H 0.79183 0.85143 0.55587 0.0
H406 H 0.85148 0.74131 0.56035 0.0
H407 H 0.85329 0.74653 0.60534 0.0
H408 H 0.8502 0.84816 0.52342 0.0
H409 H 0.82111 0.68257 0.51389 0.0
H410 H 0.78593 0.63069 0.53607 0.0
H411 H 0.70849 0.71528 0.56753 0.0
H412 H 0.74285 0.76758 0.54529 0.0
H413 H 0.90696 0.78462 0.40548 0.0
H414 H 0.89755 0.78913 0.45012 0.0
H415 H 0.77407 0.77154 0.44054 0.0
H416 H 0.78337 0.76604 0.3958 0.0
H417 H 0.79924 0.73229 0.47948 0.0
H418 H 0.81204 0.86267 0.44976 0.0
H419 H 0.84289 0.91706 0.42742 0.0
H420 H 0.94379 0.90804 0.47398 0.0
H421 H 0.91385 0.85319 0.49633 0.0
C422 C 0.80636 0.83161 0.59236 0.0
C423 C 0.82377 0.80231 0.60675 0.0
C424 C 0.80521 0.82842 0.56659 0.0
C425 C 0.82119 0.7958 0.55477 0.0
C426 C 0.83842 0.76645 0.5691 0.0
C427 C 0.8396 0.7696 0.59483 0.0
C428 C 0.82126 0.79303 0.52741 0.0
C429 C 0.83893 0.8229 0.5138 0.0
C430 C 0.80596 0.76035 0.51484 0.0
C431 C 0.78481 0.72902 0.52808 0.0
C432 C 0.79648 0.69008 0.52546 0.0
C433 C 0.77669 0.6606 0.53805 0.0
C434 C 0.74507 0.6697 0.55325 0.0
C435 C 0.73308 0.70828 0.55582 0.0
C436 C 0.75274 0.73786 0.54325 0.0
C437 C 0.87781 0.78145 0.41285 0.0
C438 C 0.84586 0.77526 0.39709 0.0
C439 C 0.87246 0.78423 0.43838 0.0
C440 C 0.835 0.78146 0.44862 0.0
C441 C 0.8032 0.77396 0.43301 0.0
C442 C 0.80857 0.77086 0.40746 0.0
C443 C 0.82905 0.787 0.47556 0.0
C444 C 0.81032 0.75765 0.48908 0.0
C445 C 0.84275 0.82052 0.48801 0.0
C446 C 0.86078 0.85361 0.47461 0.0
C447 C 0.84092 0.87209 0.45512 0.0
C448 C 0.85824 0.90303 0.44247 0.0
C449 C 0.89528 0.91596 0.44927 0.0
C450 C 0.9151 0.89799 0.46873 0.0
C451 C 0.89796 0.86699 0.48141 0.0
H452 H 0.90861 0.93998 0.43953 0.0
H453 H 0.72981 0.64684 0.563 0.0
H454 H 0.68965 0.24421 0.89553 0.0
H455 H 0.68283 0.23557 0.94024 0.0
H456 H 0.68129 0.36007 0.94983 0.0
H457 H 0.68628 0.36879 0.90514 0.0
H458 H 0.72299 0.25242 0.97887 0.0
H459 H 0.62404 0.38667 0.99626 0.0
H460 H 0.57502 0.42548 0.97378 0.0
H461 H 0.54795 0.32723 0.92802 0.0
H462 H 0.59639 0.28768 0.95043 0.0
H463 H 0.72011 0.30052 0.10581 0.0
H464 H 0.72543 0.29801 0.06084 0.0
H465 H 0.60299 0.27092 0.05548 0.0
H466 H 0.5972 0.27495 0.10047 0.0
H467 H 0.61863 0.32308 0.02363 0.0
H468 H 0.67687 0.20188 0.04392 0.0
H469 H 0.7213 0.15669 0.06532 0.0
H470 H 0.81992 0.2162 0.03457 0.0
H471 H 0.77609 0.2621 0.01324 0.0
C472 C 0.68793 0.26971 0.90721 0.0
C473 C 0.68805 0.30717 0.89685 0.0
C474 C 0.68411 0.26475 0.93276 0.0
C475 C 0.68076 0.29715 0.9484 0.0
C476 C 0.68271 0.33459 0.93811 0.0
C477 C 0.68576 0.33956 0.91257 0.0
C478 C 0.67456 0.29188 0.97538 0.0
C479 C 0.70012 0.26779 0.98866 0.0
C480 C 0.64404 0.31105 0.9881 0.0
C481 C 0.61409 0.33433 0.97492 0.0
C482 C 0.60746 0.37328 0.9815 0.0
C483 C 0.57981 0.39542 0.96875 0.0
C484 C 0.55845 0.37885 0.94945 0.0
C485 C 0.56458 0.34005 0.94293 0.0
C486 C 0.59214 0.31777 0.95564 0.0
C487 C 0.6944 0.29363 0.09507 0.0
C488 C 0.65821 0.28798 0.10667 0.0
C489 C 0.69751 0.29201 0.06933 0.0
C490 C 0.6647 0.28384 0.0547 0.0
C491 C 0.62871 0.27735 0.06633 0.0
C492 C 0.62545 0.27956 0.09205 0.0
C493 C 0.66753 0.28417 0.02727 0.0
C494 C 0.64135 0.30744 0.01388 0.0
C495 C 0.69666 0.26321 0.01438 0.0
C496 C 0.72317 0.23563 0.02714 0.0
C497 C 0.70804 0.20551 0.04186 0.0
C498 C 0.73312 0.17973 0.05396 0.0
C499 C 0.77341 0.18362 0.05135 0.0
C500 C 0.7887 0.21325 0.03659 0.0
C501 C 0.76375 0.23912 0.02446 0.0
H502 H 0.79277 0.16364 0.06073 0.0
H503 H 0.53712 0.39606 0.93958 0.0
H504 H 0.58096 0.18065 0.1751 0.0
H505 H 0.51464 0.16659 0.18929 0.0
H506 H 0.52993 0.2458 0.25024 0.0
H507 H 0.59595 0.25991 0.23641 0.0
H508 H 0.47495 0.14534 0.23706 0.0
H509 H 0.45583 0.3109 0.24312 0.0
H510 H 0.48854 0.36913 0.22655 0.0
H511 H 0.5209 0.3061 0.1612 0.0
H512 H 0.48726 0.2479 0.177 0.0
H513 H 0.30881 0.20194 0.30515 0.0
H514 H 0.37377 0.19486 0.28749 0.0
H515 H 0.32911 0.22569 0.21555 0.0
H516 H 0.26361 0.23277 0.23311 0.0
H517 H 0.39616 0.26555 0.22752 0.0
H518 H 0.3527 0.13418 0.22587 0.0
H519 H 0.32394 0.07397 0.24246 0.0
H520 H 0.41606 0.06563 0.29592 0.0
H521 H 0.44507 0.12616 0.2799 0.0
C522 C 0.57065 0.19415 0.19196 0.0
C523 C 0.59347 0.22198 0.20435 0.0
C524 C 0.53279 0.18596 0.20007 0.0
C525 C 0.51735 0.20562 0.22057 0.0
C526 C 0.54132 0.23058 0.23426 0.0
C527 C 0.57904 0.23868 0.22625 0.0
C528 C 0.47498 0.20512 0.22552 0.0
C529 C 0.45757 0.17145 0.23494 0.0
C530 C 0.45229 0.23903 0.22206 0.0
C531 C 0.46945 0.27491 0.21141 0.0
C532 C 0.46955 0.3096 0.2251 0.0
C533 C 0.48841 0.34255 0.21588 0.0
C534 C 0.5073 0.3411 0.19301 0.0
C535 C 0.50665 0.307 0.17905 0.0
C536 C 0.48754 0.2741 0.18807 0.0
C537 C 0.31267 0.20718 0.28555 0.0
C538 C 0.28099 0.21797 0.27053 0.0
C539 C 0.34983 0.20286 0.27546 0.0
C540 C 0.35617 0.20933 0.25017 0.0
C541 C 0.32474 0.22039 0.23511 0.0
C542 C 0.28737 0.22439 0.24516 0.0
C543 C 0.39604 0.20597 0.23985 0.0
C544 C 0.41316 0.23913 0.2294 0.0
C545 C 0.4182 0.17138 0.24209 0.0
C546 C 0.40091 0.1349 0.25178 0.0
C547 C 0.36666 0.1197 0.24129 0.0
C548 C 0.35034 0.08547 0.25058 0.0
C549 C 0.36812 0.06602 0.27026 0.0
C550 C 0.40231 0.08074 0.28068 0.0
C551 C 0.41873 0.11499 0.27148 0.0
H552 H 0.35545 0.03952 0.27742 0.0
H553 H 0.52189 0.36656 0.18586 0.0
H554 H 0.32203 0.7926 0.774 0.0
H555 H 0.32158 0.85818 0.75631 0.0
H556 H 0.20158 0.87208 0.77821 0.0
H557 H 0.20161 0.80671 0.79557 0.0
H558 H 0.21301 0.89859 0.73222 0.0
H559 H 0.276 0.91218 0.81173 0.0
H560 H 0.32593 0.89769 0.84322 0.0
H561 H 0.41581 0.93386 0.79304 0.0
H562 H 0.3664 0.94809 0.76112 0.0
H563 H 0.17893 0.09739 0.73019 0.0
H564 H 0.19073 0.03161 0.745 0.0
H565 H 0.30895 0.03731 0.71827 0.0
H566 H 0.29754 0.10399 0.70376 0.0
H567 H 0.30449 -0.00052 0.76256 0.0
H568 H 0.23999 0.99185 0.68432 0.0
H569 H 0.18931 0.00735 0.65353 0.0
H570 H 0.10162 0.96009 0.70146 0.0
H571 H 0.1517 0.94484 0.73274 0.0
C572 C 0.2955 0.80957 0.77492 0.0
C573 C 0.26189 0.79447 0.78628 0.0
C574 C 0.29535 0.84709 0.7649 0.0
C575 C 0.26166 0.87019 0.76616 0.0
C576 C 0.22791 0.85481 0.77702 0.0
C577 C 0.22803 0.81742 0.78701 0.0
C578 C 0.26126 0.91057 0.75649 0.0
C579 C 0.23284 0.92069 0.73898 0.0
C580 C 0.28788 0.93918 0.76477 0.0
C581 C 0.31756 0.93076 0.78395 0.0
C582 C 0.30644 0.91674 0.80735 0.0
C583 C 0.33463 0.90864 0.82528 0.0
C584 C 0.37403 0.91474 0.82011 0.0
C585 C 0.38529 0.92908 0.797 0.0
C586 C 0.35721 0.93719 0.77899 0.0
C587 C 0.20762 0.0849 0.72767 0.0
C588 C 0.23721 0.10575 0.71555 0.0
C589 C 0.21426 0.04719 0.73606 0.0
C590 C 0.25041 0.02919 0.73217 0.0
C591 C 0.28073 0.05057 0.72126 0.0
C592 C 0.27419 0.08864 0.71302 0.0
C593 C 0.25563 0.98764 0.73876 0.0
C594 C 0.28497 0.97727 0.75559 0.0
C595 C 0.22981 0.95873 0.72988 0.0
C596 C 0.19962 0.9674 0.71095 0.0
C597 C 0.20988 0.98496 0.68837 0.0
C598 C 0.18126 0.99369 0.67082 0.0
C599 C 0.14229 0.98472 0.67555 0.0
C600 C 0.13184 0.96699 0.69783 0.0
C601 C 0.16034 0.95826 0.71546 0.0
H602 H 0.12023 0.99137 0.66191 0.0
H603 H 0.39581 0.90845 0.83402 0.0
H604 H 0.70055 0.7733 0.30745 0.0
H605 H 0.63357 0.78185 0.29338 0.0
H606 H 0.67508 0.83292 0.22544 0.0
H607 H 0.74232 0.8252 0.23963 0.0
H608 H 0.61478 0.87357 0.24356 0.0
H609 H 0.63977 0.73814 0.22589 0.0
H610 H 0.66046 0.67115 0.23556 0.0
H611 H 0.5747 0.66467 0.29321 0.0
H612 H 0.55378 0.73177 0.284 0.0
H613 H 0.44518 0.84746 0.16914 0.0
H614 H 0.50902 0.85179 0.18873 0.0
H615 H 0.46258 0.79956 0.25499 0.0
H616 H 0.39872 0.79449 0.23538 0.0
H617 H 0.52459 0.76126 0.23968 0.0
H618 H 0.4946 0.89502 0.25378 0.0
H619 H 0.47348 0.96138 0.24299 0.0
H620 H 0.56843 0.97162 0.19174 0.0
H621 H 0.58984 0.9051 0.20197 0.0
C622 C 0.69551 0.78625 0.28947 0.0
C623 C 0.72684 0.79841 0.27462 0.0
C624 C 0.65715 0.79102 0.28142 0.0
C625 C 0.64927 0.80762 0.25822 0.0
C626 C 0.68046 0.82003 0.24341 0.0
C627 C 0.71889 0.81544 0.25151 0.0
C628 C 0.60851 0.81199 0.24944 0.0
C629 C 0.59513 0.84897 0.24243 0.0
C630 C 0.58258 0.78011 0.2486 0.0
C631 C 0.59539 0.73998 0.25436 0.0
C632 C 0.62553 0.72249 0.24074 0.0
C633 C 0.63726 0.68451 0.24611 0.0
C634 C 0.61896 0.6637 0.26502 0.0
C635 C 0.58892 0.68085 0.27861 0.0
C636 C 0.5771 0.71884 0.27332 0.0
C637 C 0.44823 0.83778 0.18811 0.0
C638 C 0.41685 0.82028 0.20059 0.0
C639 C 0.48483 0.84036 0.19933 0.0
C640 C 0.49068 0.82593 0.22334 0.0
C641 C 0.45881 0.81072 0.23641 0.0
C642 C 0.42224 0.80801 0.22518 0.0
C643 C 0.53064 0.82288 0.23375 0.0
C644 C 0.544 0.78602 0.24099 0.0
C645 C 0.55646 0.8549 0.23473 0.0
C646 C 0.54362 0.89491 0.2285 0.0
C647 C 0.51079 0.91129 0.24005 0.0
C648 C 0.4988 0.94896 0.23407 0.0
C649 C 0.51954 0.97067 0.21665 0.0
C650 C 0.55237 0.95476 0.20522 0.0
C651 C 0.56447 0.91709 0.21112 0.0
H652 H 0.51022 -0.00016 0.21205 0.0
H653 H 0.628 0.63426 0.2691 0.0
H654 H 0.79135 0.1987 0.76482 0.0
H655 H 0.79695 0.13311 0.74808 0.0
H656 H 0.68154 0.10625 0.7745 0.0
H657 H 0.67575 0.17191 0.79154 0.0
H658 H 0.73371 0.05007 0.78662 0.0
H659 H 0.69729 0.11909 0.71342 0.0
H660 H 0.70107 0.17099 0.68207 0.0
H661 H 0.81728 0.13552 0.66335 0.0
H662 H 0.81444 0.08373 0.69485 0.0
H663 H 0.73346 0.86576 0.72639 0.0
H664 H 0.71561 0.93164 0.73911 0.0
H665 H 0.82617 0.97419 0.71284 0.0
H666 H 0.84413 0.9085 0.69986 0.0
H667 H 0.76963 0.02205 0.69956 0.0
H668 H 0.80926 0.95867 0.77499 0.0
H669 H 0.8077 0.90737 0.80684 0.0
H670 H 0.68755 0.93304 0.82169 0.0
H671 H 0.68832 0.98419 0.78967 0.0
C672 C 0.76701 0.17898 0.76695 0.0
C673 C 0.73311 0.19054 0.77955 0.0
C674 C 0.7702 0.14153 0.75725 0.0
C675 C 0.73952 0.11492 0.75984 0.0
C676 C 0.70551 0.1264 0.77225 0.0
C677 C 0.70224 0.16394 0.78192 0.0
C678 C 0.74383 0.07462 0.75053 0.0
C679 C 0.7408 0.04386 0.76747 0.0
C680 C 0.75396 0.06664 0.72568 0.0
C681 C 0.75574 0.0977 0.70665 0.0
C682 C 0.72377 0.12254 0.70276 0.0
C683 C 0.72572 0.15191 0.68494 0.0
C684 C 0.75942 0.1566 0.67077 0.0
C685 C 0.79121 0.13187 0.67436 0.0
C686 C 0.78942 0.10247 0.69217 0.0
C687 C 0.75403 0.88913 0.72336 0.0
C688 C 0.79043 0.88187 0.71238 0.0
C689 C 0.74382 0.92674 0.73071 0.0
C690 C 0.76987 0.95773 0.72726 0.0
C691 C 0.80584 0.95063 0.71584 0.0
C692 C 0.81612 0.91307 0.70858 0.0
C693 C 0.76005 0.99757 0.73572 0.0
C694 C 0.76207 0.02823 0.71864 0.0
C695 C 0.74924 0.00552 0.76047 0.0
C696 C 0.74873 0.97489 0.77975 0.0
C697 C 0.78243 0.95313 0.78491 0.0
C698 C 0.78171 0.92414 0.80302 0.0
C699 C 0.7475 0.91686 0.81623 0.0
C700 C 0.714 0.93866 0.81141 0.0
C701 C 0.71457 0.96766 0.7933 0.0
H702 H 0.74699 0.8944 0.83024 0.0
H703 H 0.76087 0.17936 0.65697 0.0
H704 H 0.04553 0.25313 0.34036 0.0
H705 H 0.98536 0.26418 0.31754 0.0
H706 H 0.04891 0.32566 0.26107 0.0
H707 H 0.11016 0.31325 0.28337 0.0
H708 H 0.9613 0.35306 0.28841 0.0
H709 H 0.03614 0.26371 0.23706 0.0
H710 H 0.07693 0.20609 0.22931 0.0
H711 H 0.98746 0.1325 0.25891 0.0
H712 H 0.94706 0.18993 0.2682 0.0
H713 H 0.79703 0.34478 0.20631 0.0
H714 H 0.86304 0.34962 0.22304 0.0
H715 H 0.84822 0.23934 0.25982 0.0
H716 H 0.78261 0.23392 0.2428 0.0
H717 H 0.91641 0.24191 0.23744 0.0
H718 H 0.84381 0.32678 0.29123 0.0
H719 H 0.80075 0.3819 0.30132 0.0
H720 H 0.88225 0.46102 0.26832 0.0
H721 H 0.92559 0.40627 0.25775 0.0
C722 C 0.04687 0.26963 0.32331 0.0
C723 C 0.08273 0.2822 0.31361 0.0
C724 C 0.01239 0.27572 0.31026 0.0
C725 C 0.01294 0.29516 0.28753 0.0
C726 C 0.04816 0.31019 0.27851 0.0
C727 C 0.08299 0.30325 0.29129 0.0
C728 C 0.97663 0.29754 0.27296 0.0
C729 C 0.95174 0.32927 0.27674 0.0
C730 C 0.96392 0.2658 0.25846 0.0
C731 C 0.98893 0.23132 0.25386 0.0
C732 C 0.02561 0.2354 0.2426 0.0
C733 C 0.04863 0.20272 0.23785 0.0
C734 C 0.03492 0.16567 0.24377 0.0
C735 C 0.9982 0.16124 0.25452 0.0
C736 C 0.97535 0.19388 0.2597 0.0
C737 C 0.80778 0.32161 0.21803 0.0
C738 C 0.78453 0.28893 0.22322 0.0
C739 C 0.84549 0.3245 0.22764 0.0
C740 C 0.86052 0.29497 0.24282 0.0
C741 C 0.83729 0.26243 0.24809 0.0
C742 C 0.79971 0.25943 0.2384 0.0
C743 C 0.90066 0.29736 0.25297 0.0
C744 C 0.92615 0.26623 0.2486 0.0
C745 C 0.91372 0.32947 0.2671 0.0
C746 C 0.88771 0.36239 0.27343 0.0
C747 C 0.85239 0.3559 0.28593 0.0
C748 C 0.82796 0.38708 0.29178 0.0
C749 C 0.83869 0.42493 0.28539 0.0
C750 C 0.87393 0.43168 0.27321 0.0
C751 C 0.89845 0.40059 0.2673 0.0
H752 H 0.81975 0.44903 0.28993 0.0
H753 H 0.05269 0.14039 0.23998 0.0
H754 H 0.24594 0.31173 0.7199 0.0
H755 H 0.2391 0.37364 0.74147 0.0
H756 H 0.1143 0.35961 0.74253 0.0
H757 H 0.12082 0.2976 0.72073 0.0
H758 H 0.13486 0.43245 0.72853 0.0
H759 H 0.16442 0.34639 0.79489 0.0
H760 H 0.20059 0.295 0.81687 0.0
H761 H 0.30359 0.36567 0.81637 0.0
H762 H 0.26819 0.41729 0.79406 0.0
H763 H 0.17862 0.57628 0.8395 0.0
H764 H 0.15816 0.51331 0.82306 0.0
H765 H 0.20119 0.54566 0.751 0.0
H766 H 0.22156 0.60858 0.7672 0.0
H767 H 0.20836 0.46047 0.80549 0.0
H768 H 0.15146 0.49703 0.70652 0.0
H769 H 0.11167 0.54721 0.68595 0.0
H770 H 0.05588 0.57393 0.75494 0.0
H771 H 0.09492 0.52356 0.77587 0.0
C772 C 0.21701 0.32167 0.72478 0.0
C773 C 0.18393 0.29968 0.71863 0.0
C774 C 0.21317 0.35702 0.73721 0.0
C775 C 0.17621 0.37104 0.74381 0.0
C776 C 0.14308 0.34927 0.73764 0.0
C777 C 0.1469 0.31379 0.72526 0.0
C778 C 0.1724 0.40887 0.75671 0.0
C779 C 0.15071 0.43859 0.74544 0.0
C780 C 0.19228 0.41651 0.7791 0.0
C781 C 0.21368 0.38562 0.79265 0.0
C782 C 0.19485 0.35087 0.79931 0.0
C783 C 0.21521 0.32171 0.81186 0.0
C784 C 0.25438 0.32704 0.81798 0.0
C785 C 0.27325 0.36158 0.81161 0.0
C786 C 0.25303 0.39082 0.79904 0.0
C787 C 0.18284 0.5704 0.82001 0.0
C788 C 0.20205 0.59732 0.8047 0.0
C789 C 0.17126 0.53432 0.81068 0.0
C790 C 0.17818 0.52476 0.78583 0.0
C791 C 0.19516 0.55253 0.77017 0.0
C792 C 0.20696 0.58847 0.7795 0.0
C793 C 0.17197 0.48453 0.77684 0.0
C794 C 0.19196 0.4543 0.7888 0.0
C795 C 0.15009 0.47636 0.75528 0.0
C796 C 0.12637 0.50666 0.7428 0.0
C797 C 0.13059 0.51348 0.71729 0.0
C798 C 0.10818 0.542 0.70557 0.0
C799 C 0.08133 0.56381 0.71914 0.0
C800 C 0.07679 0.55711 0.74447 0.0
C801 C 0.09911 0.52863 0.75628 0.0
H802 H 0.064 0.58585 0.71003 0.0
H803 H 0.27009 0.30443 0.82769 0.0
H804 H 0.23815 0.72386 0.26296 0.0
H805 H 0.1721 0.70877 0.27687 0.0
H806 H 0.13215 0.70961 0.2012 0.0
H807 H 0.19773 0.72566 0.18723 0.0
H808 H 0.08376 0.74824 0.22841 0.0
H809 H 0.14337 0.62379 0.23436 0.0
H810 H 0.19297 0.57575 0.24674 0.0
H811 H 0.16799 0.5977 0.32328 0.0
H812 H 0.1186 0.64631 0.31137 0.0
H813 H 0.89479 0.69535 0.26474 0.0
H814 H 0.95801 0.68675 0.24452 0.0
H815 H 0.01429 0.68535 0.31592 0.0
H816 H 0.95127 0.69155 0.33612 0.0
H817 H 0.05301 0.64092 0.28645 0.0
H818 H 0.99697 0.77181 0.27808 0.0
H819 H 0.94744 0.81859 0.26342 0.0
H820 H 0.96622 0.78198 0.18858 0.0
H821 H 0.01527 0.7345 0.2027 0.0
C822 C 0.21531 0.72078 0.24928 0.0
C823 C 0.22321 0.72607 0.224 0.0
C824 C 0.1776 0.71185 0.25725 0.0
C825 C 0.1472 0.7075 0.24005 0.0
C826 C 0.15509 0.71275 0.21481 0.0
C827 C 0.19265 0.72196 0.20686 0.0
C828 C 0.10681 0.69925 0.24843 0.0
C829 C 0.07695 0.72436 0.24079 0.0
C830 C 0.09789 0.66827 0.2647 0.0
C831 C 0.12749 0.63895 0.27196 0.0
C832 C 0.14865 0.6186 0.25384 0.0
C833 C 0.1767 0.59123 0.26077 0.0
C834 C 0.18369 0.58374 0.28578 0.0
C835 C 0.16257 0.60356 0.30392 0.0
C836 C 0.13451 0.63099 0.29708 0.0
C837 C 0.92058 0.692 0.27609 0.0
C838 C 0.91811 0.69455 0.30199 0.0
C839 C 0.95675 0.68749 0.26453 0.0
C840 C 0.99114 0.68685 0.27865 0.0
C841 C 0.9883 0.68615 0.30456 0.0
C842 C 0.95212 0.68966 0.31613 0.0
C843 C 0.03012 0.69044 0.26684 0.0
C844 C 0.05978 0.66452 0.27386 0.0
C845 C 0.03886 0.72053 0.24979 0.0
C846 C 0.00948 0.74933 0.24147 0.0
C847 C 0.99038 0.7736 0.25852 0.0
C848 C 0.96242 0.80023 0.25032 0.0
C849 C 0.9537 0.80321 0.22516 0.0
C850 C 0.97294 0.7796 0.20808 0.0
C851 C 0.00079 0.75281 0.21616 0.0
H852 H 0.93206 0.82387 0.2189 0.0
H853 H 0.20542 0.56254 0.29111 0.0
H854 H 0.78985 0.41801 0.84033 0.0
H855 H 0.80499 0.47902 0.8192 0.0
H856 H 0.78425 0.42425 0.74869 0.0
H857 H 0.7696 0.36314 0.76954 0.0
H858 H 0.84467 0.47662 0.74679 0.0
H859 H 0.71226 0.47102 0.77835 0.0
H860 H 0.66385 0.46336 0.81166 0.0
H861 H 0.71133 0.56238 0.84934 0.0
H862 H 0.76075 0.56999 0.8166 0.0
H863 H 0.8021 0.63566 0.67047 0.0
H864 H 0.7947 0.57529 0.69376 0.0
H865 H 0.80441 0.63894 0.76222 0.0
H866 H 0.81067 0.69958 0.73907 0.0
H867 H 0.75263 0.58326 0.76699 0.0
H868 H 0.88344 0.59106 0.73703 0.0
H869 H 0.9351 0.59923 0.70578 0.0
H870 H 0.89399 0.49835 0.66708 0.0
H871 H 0.84175 0.48987 0.69794 0.0
C872 C 0.78949 0.41865 0.8203 0.0
C873 C 0.77793 0.38587 0.80663 0.0
C874 C 0.79794 0.4536 0.80828 0.0
C875 C 0.79485 0.4563 0.78244 0.0
C876 C 0.78651 0.42283 0.76866 0.0
C877 C 0.77808 0.38792 0.78064 0.0
C878 C 0.79677 0.49443 0.76981 0.0
C879 C 0.8244 0.49987 0.75105 0.0
C880 C 0.77081 0.525 0.7758 0.0
C881 C 0.74047 0.52083 0.79515 0.0
C882 C 0.71255 0.491 0.79382 0.0
C883 C 0.68491 0.48668 0.8126 0.0
C884 C 0.68452 0.51238 0.8326 0.0
C885 C 0.71171 0.54248 0.83385 0.0
C886 C 0.73957 0.54677 0.81521 0.0
C887 C 0.80207 0.63689 0.69048 0.0
C888 C 0.8074 0.67233 0.70292 0.0
C889 C 0.79811 0.60233 0.70377 0.0
C890 C 0.80008 0.60249 0.72972 0.0
C891 C 0.80313 0.63809 0.7422 0.0
C892 C 0.80667 0.67275 0.72893 0.0
C893 C 0.80038 0.56545 0.74377 0.0
C894 C 0.77309 0.56017 0.76277 0.0
C895 C 0.82696 0.53518 0.73819 0.0
C896 C 0.85848 0.54004 0.71968 0.0
C897 C 0.88526 0.57077 0.72176 0.0
C898 C 0.91467 0.57543 0.70413 0.0
C899 C 0.91777 0.54938 0.68442 0.0
C900 C 0.89153 0.51853 0.68234 0.0
C901 C 0.86204 0.51376 0.69991 0.0
H902 H 0.94055 0.55304 0.67079 0.0
H903 H 0.66318 0.50906 0.84715 0.0
loop_
_geom_bond_atom_site_label_1
_geom_bond_atom_site_label_2
_geom_bond_distance
_geom_bond_site_symmetry_2
_ccdc_geom_bond_type
C0 O1 1.160 . S
C0 O7 1.185 . S
O1 C0 1.160 . S
O2 Zn3 1.899 . S
O2 C10 1.284 . S
Zn3 O2 1.899 . S
Zn3 O4 2.032 . S
Zn3 O7 2.086 . S
Zn3 O12 1.977 . S
O4 Zn3 2.032 . S
O4 C8 1.278 . S
C5 O6 1.203 . S
C5 O12 1.267 . S
O6 C5 1.203 . S
O7 C0 1.185 . S
O7 Zn3 2.086 . S
C8 O4 1.278 . S
C8 O9 1.211 . S
O9 C8 1.211 . S
C10 O2 1.284 . S
C10 O11 1.273 . S
O11 C10 1.273 . S
O12 Zn3 1.977 . S
O12 C5 1.267 . S
C13 O14 1.160 . S
C13 O20 1.185 . S
O14 C13 1.160 . S
O15 Zn16 1.899 . S
O15 C23 1.284 . S
Zn16 O15 1.899 . S
Zn16 O17 2.032 . S
Zn16 O20 2.086 . S
Zn16 O25 1.977 . S
O17 Zn16 2.032 . S
O17 C21 1.278 . S
C18 O19 1.203 . S
C18 O25 1.267 . S
O19 C18 1.203 . S
O20 C13 1.185 . S
O20 Zn16 2.086 . S
C21 O17 1.278 . S
C21 O22 1.211 . S
O22 C21 1.211 . S
C23 O15 1.284 . S
C23 O24 1.273 . S
O24 C23 1.273 . S
O25 Zn16 1.977 . S
O25 C18 1.267 . S
C26 O27 1.160 . S
C26 O33 1.185 . S
O27 C26 1.160 . S
O28 Zn29 1.899 . S
O28 C36 1.284 . S
Zn29 O28 1.899 . S
Zn29 O30 2.032 . S
Zn29 O33 2.086 . S
Zn29 O38 1.977 . S
O30 Zn29 2.032 . S
O30 C34 1.278 . S
C31 O32 1.203 . S
C31 O38 1.267 . S
O32 C31 1.203 . S
O33 C26 1.185 . S
O33 Zn29 2.086 . S
C34 O30 1.278 . S
C34 O35 1.211 . S
O35 C34 1.211 . S
C36 O28 1.284 . S
C36 O37 1.273 . S
O37 C36 1.273 . S
O38 Zn29 1.977 . S
O38 C31 1.267 . S
C39 O40 1.160 . S
C39 O46 1.185 . S
O40 C39 1.160 . S
O41 Zn42 1.899 . S
O41 C49 1.284 . S
Zn42 O41 1.899 . S
Zn42 O43 2.032 . S
Zn42 O46 2.086 . S
Zn42 O51 1.977 . S
O43 Zn42 2.032 . S
O43 C47 1.278 . S
C44 O45 1.203 . S
C44 O51 1.267 . S
O45 C44 1.203 . S
O46 C39 1.185 . S
O46 Zn42 2.086 . S
C47 O43 1.278 . S
C47 O48 1.211 . S
O48 C47 1.211 . S
C49 O41 1.284 . S
C49 O50 1.273 . S
O50 C49 1.273 . S
O51 Zn42 1.977 . S
O51 C44 1.267 . S
C52 O53 1.160 . S
C52 O59 1.185 . S
O53 C52 1.160 . S
O54 Zn55 1.899 . S
O54 C62 1.284 . S
Zn55 O54 1.899 . S
Zn55 O56 2.032 . S
Zn55 O59 2.086 . S
Zn55 O64 1.977 . S
O56 Zn55 2.032 . S
O56 C60 1.278 . S
C57 O58 1.203 . S
C57 O64 1.267 . S
O58 C57 1.203 . S
O59 C52 1.185 . S
O59 Zn55 2.086 . S
C60 O56 1.278 . S
C60 O61 1.211 . S
O61 C60 1.211 . S
C62 O54 1.284 . S
C62 O63 1.273 . S
O63 C62 1.273 . S
O64 Zn55 1.977 . S
O64 C57 1.267 . S
C65 O66 1.160 . S
C65 O72 1.185 . S
O66 C65 1.160 . S
O67 Zn68 1.899 . S
O67 C75 1.284 . S
Zn68 O67 1.899 . S
Zn68 O69 2.032 . S
Zn68 O72 2.086 . S
Zn68 O77 1.977 . S
O69 Zn68 2.032 . S
O69 C73 1.278 . S
C70 O71 1.203 . S
C70 O77 1.267 . S
O71 C70 1.203 . S
O72 C65 1.185 . S
O72 Zn68 2.086 . S
C73 O69 1.278 . S
C73 O74 1.211 . S
O74 C73 1.211 . S
C75 O67 1.284 . S
C75 O76 1.273 . S
O76 C75 1.273 . S
O77 Zn68 1.977 . S
O77 C70 1.267 . S
C78 O79 1.160 . S
C78 O85 1.185 . S
O79 C78 1.160 . S
O80 Zn81 1.899 . S
O80 C88 1.284 . S
Zn81 O80 1.899 . S
Zn81 O82 2.032 . S
Zn81 O85 2.086 . S
Zn81 O90 1.977 . S
O82 Zn81 2.032 . S
O82 C86 1.278 . S
C83 O84 1.203 . S
C83 O90 1.267 . S
O84 C83 1.203 . S
O85 C78 1.185 . S
O85 Zn81 2.086 . S
C86 O82 1.278 . S
C86 O87 1.211 . S
O87 C86 1.211 . S
C88 O80 1.284 . S
C88 O89 1.273 . S
O89 C88 1.273 . S
O90 Zn81 1.977 . S
O90 C83 1.267 . S
C91 O92 1.160 . S
C91 O98 1.185 . S
O92 C91 1.160 . S
O93 Zn94 1.899 . S
O93 C101 1.284 . S
Zn94 O93 1.899 . S
Zn94 O95 2.032 . S
Zn94 O98 2.086 . S
Zn94 O103 1.977 . S
O95 Zn94 2.032 . S
O95 C99 1.278 . S
C96 O97 1.203 . S
C96 O103 1.267 . S
O97 C96 1.203 . S
O98 C91 1.185 . S
O98 Zn94 2.086 . S
C99 O95 1.278 . S
C99 O100 1.211 . S
O100 C99 1.211 . S
C101 O93 1.284 . S
C101 O102 1.273 . S
O102 C101 1.273 . S
O103 Zn94 1.977 . S
O103 C96 1.267 . S
H104 C122 0.951 . S
H105 C124 0.951 . S
H106 C126 0.950 . S
H107 C127 0.950 . S
H108 C129 0.950 . S
H109 C132 0.950 . S
H110 C133 0.950 . S
H111 C135 0.950 . S
H112 C136 0.950 . S
H113 C137 0.951 . S
H114 C139 0.951 . S
H115 C141 0.950 . S
H116 C142 0.950 . S
H117 C144 0.950 . S
H118 C147 0.950 . S
H119 C148 0.950 . S
H120 C150 0.950 . S
H121 C151 0.950 . S
C122 H104 0.951 . S
C122 C123 1.366 . S
C122 C124 1.388 . S
C123 C122 1.366 . S
C123 C127 1.385 . S
C124 H105 0.951 . S
C124 C122 1.388 . S
C124 C125 1.366 . S
C125 C124 1.366 . S
C125 C126 1.414 . S
C125 C128 1.499 . S
C126 H106 0.950 . S
C126 C125 1.414 . S
C126 C127 1.374 . S
C127 H107 0.950 . S
C127 C123 1.385 . S
C127 C126 1.374 . S
C128 C125 1.499 . S
C128 C129 1.373 1_455 S
C128 C130 1.389 1_545 S
C129 H108 0.950 . S
C129 C128 1.373 1_655 S
C129 C145 1.377 . S
C130 C128 1.389 1_565 S
C130 C131 1.524 . S
C130 C144 1.377 . S
C131 C130 1.524 . S
C131 C132 1.397 1_565 S
C131 C136 1.363 . S
C132 H109 0.950 . S
C132 C131 1.397 1_545 S
C132 C133 1.334 . S
C133 H110 0.950 . S
C133 C132 1.334 . S
C133 C134 1.287 1_545 S
C134 C133 1.287 1_565 S
C134 C135 1.524 . S
C134 H153 0.913 . S
C135 H111 0.950 . S
C135 C134 1.524 . S
C135 C136 1.415 . S
C136 H112 0.950 . S
C136 C131 1.363 . S
C136 C135 1.415 . S
C137 H113 0.951 . S
C137 C138 1.366 . S
C137 C139 1.388 . S
C138 C137 1.366 . S
C138 C142 1.385 . S
C139 H114 0.951 . S
C139 C137 1.388 . S
C139 C140 1.366 . S
C140 C139 1.366 . S
C140 C141 1.414 . S
C140 C143 1.499 . S
C141 H115 0.950 . S
C141 C140 1.414 . S
C141 C142 1.374 . S
C142 H116 0.950 . S
C142 C138 1.385 . S
C142 C141 1.374 . S
C143 C140 1.499 . S
C143 C144 1.373 1_655 S
C143 C145 1.389 1_565 S
C144 H117 0.950 . S
C144 C130 1.377 . S
C144 C143 1.373 1_455 S
C145 C129 1.377 . S
C145 C143 1.389 1_545 S
C145 C146 1.524 . S
C146 C145 1.524 . S
C146 C147 1.397 1_545 S
C146 C151 1.363 . S
C147 H118 0.950 . S
C147 C146 1.397 1_565 S
C147 C148 1.334 . S
C148 H119 0.950 . S
C148 C147 1.334 . S
C148 C149 1.287 1_565 S
C149 C148 1.287 1_545 S
C149 C150 1.524 . S
C149 H152 0.999 . S
C150 H120 0.950 . S
C150 C149 1.524 . S
C150 C151 1.415 . S
C151 H121 0.950 . S
C151 C146 1.363 . S
C151 C150 1.415 . S
H152 C149 0.999 . S
H153 C134 0.913 . S
H154 C172 0.951 . S
H155 C174 0.951 . S
H156 C176 0.950 . S
H157 C177 0.950 . S
H158 C179 0.950 . S
H159 C182 0.950 . S
H160 C183 0.950 . S
H161 C185 0.950 . S
H162 C186 0.950 . S
H163 C187 0.951 . S
H164 C189 0.951 . S
H165 C191 0.950 . S
H166 C192 0.950 . S
H167 C194 0.950 . S
H168 C197 0.950 . S
H169 C198 0.950 . S
H170 C200 0.950 . S
H171 C201 0.950 . S
C172 H154 0.951 . S
C172 C173 1.366 . S
C172 C174 1.388 . S
C173 C172 1.366 . S
C173 C177 1.385 . S
C174 H155 0.951 . S
C174 C172 1.388 . S
C174 C175 1.366 . S
C175 C174 1.366 . S
C175 C176 1.414 . S
C175 C178 1.499 . S
C176 H156 0.950 . S
C176 C175 1.414 . S
C176 C177 1.374 . S
C177 H157 0.950 . S
C177 C173 1.385 . S
C177 C176 1.374 . S
C178 C175 1.499 . S
C178 C179 1.373 . S
C178 C180 1.389 . S
C179 H158 0.950 . S
C179 C178 1.373 . S
C179 C195 1.377 . S
C180 C178 1.389 . S
C180 C181 1.524 . S
C180 C194 1.377 . S
C181 C180 1.524 . S
C181 C182 1.397 . S
C181 C186 1.363 . S
C182 H159 0.950 . S
C182 C181 1.397 . S
C182 C183 1.334 . S
C183 H160 0.950 . S
C183 C182 1.334 . S
C183 C184 1.287 . S
C184 C183 1.287 . S
C184 C185 1.524 . S
C184 H203 0.913 . S
C185 H161 0.950 . S
C185 C184 1.524 . S
C185 C186 1.415 . S
C186 H162 0.950 . S
C186 C181 1.363 . S
C186 C185 1.415 . S
C187 H163 0.951 . S
C187 C188 1.366 . S
C187 C189 1.388 . S
C188 C187 1.366 . S
C188 C192 1.385 . S
C189 H164 0.951 . S
C189 C187 1.388 . S
C189 C190 1.366 . S
C190 C189 1.366 . S
C190 C191 1.414 . S
C190 C193 1.499 . S
C191 H165 0.950 . S
C191 C190 1.414 . S
C191 C192 1.374 . S
C192 H166 0.950 . S
C192 C188 1.385 . S
C192 C191 1.374 . S
C193 C190 1.499 . S
C193 C194 1.373 . S
C193 C195 1.389 . S
C194 H167 0.950 . S
C194 C180 1.377 . S
C194 C193 1.373 . S
C195 C179 1.377 . S
C195 C193 1.389 . S
C195 C196 1.524 . S
C196 C195 1.524 . S
C196 C197 1.397 . S
C196 C201 1.363 . S
C197 H168 0.950 . S
C197 C196 1.397 . S
C197 C198 1.334 . S
C198 H169 0.950 . S
C198 C197 1.334 . S
C198 C199 1.287 . S
C199 C198 1.287 . S
C199 C200 1.524 . S
C199 H202 0.999 . S
C200 H170 0.950 . S
C200 C199 1.524 . S
C200 C201 1.415 . S
C201 H171 0.950 . S
C201 C196 1.363 . S
C201 C200 1.415 . S
H202 C199 0.999 . S
H203 C184 0.913 . S
H204 C222 0.951 . S
H205 C224 0.951 . S
H206 C226 0.950 . S
H207 C227 0.950 . S
H208 C229 0.950 . S
H209 C232 0.950 . S
H210 C233 0.950 . S
H211 C235 0.950 . S
H212 C236 0.950 . S
H213 C237 0.951 . S
H214 C239 0.951 . S
H215 C241 0.950 . S
H216 C242 0.950 . S
H217 C244 0.950 . S
H218 C247 0.950 . S
H219 C248 0.950 . S
H220 C250 0.950 . S
H221 C251 0.950 . S
C222 H204 0.951 . S
C222 C223 1.366 . S
C222 C224 1.388 . S
C223 C222 1.366 . S
C223 C227 1.385 . S
C224 H205 0.951 . S
C224 C222 1.388 . S
C224 C225 1.366 . S
C225 C224 1.366 . S
C225 C226 1.414 . S
C225 C228 1.499 . S
C226 H206 0.950 . S
C226 C225 1.414 . S
C226 C227 1.374 . S
C227 H207 0.950 . S
C227 C223 1.385 . S
C227 C226 1.374 . S
C228 C225 1.499 . S
C228 C229 1.373 . S
C228 C230 1.389 . S
C229 H208 0.950 . S
C229 C228 1.373 . S
C229 C245 1.377 . S
C230 C228 1.389 . S
C230 C231 1.524 . S
C230 C244 1.377 . S
C231 C230 1.524 . S
C231 C232 1.397 . S
C231 C236 1.363 . S
C232 H209 0.950 . S
C232 C231 1.397 . S
C232 C233 1.334 . S
C233 H210 0.950 . S
C233 C232 1.334 . S
C233 C234 1.287 . S
C234 C233 1.287 . S
C234 C235 1.524 . S
C234 H253 0.913 . S
C235 H211 0.950 . S
C235 C234 1.524 . S
C235 C236 1.415 . S
C236 H212 0.950 . S
C236 C231 1.363 . S
C236 C235 1.415 . S
C237 H213 0.951 . S
C237 C238 1.366 . S
C237 C239 1.388 . S
C238 C237 1.366 . S
C238 C242 1.385 . S
C239 H214 0.951 . S
C239 C237 1.388 . S
C239 C240 1.366 . S
C240 C239 1.366 . S
C240 C241 1.414 . S
C240 C243 1.499 . S
C241 H215 0.950 . S
C241 C240 1.414 . S
C241 C242 1.374 . S
C242 H216 0.950 . S
C242 C238 1.385 . S
C242 C241 1.374 . S
C243 C240 1.499 . S
C243 C244 1.373 . S
C243 C245 1.389 . S
C244 H217 0.950 . S
C244 C230 1.377 . S
C244 C243 1.373 . S
C245 C229 1.377 . S
C245 C243 1.389 . S
C245 C246 1.524 . S
C246 C245 1.524 . S
C246 C247 1.397 . S
C246 C251 1.363 . S
C247 H218 0.950 . S
C247 C246 1.397 . S
C247 C248 1.334 . S
C248 H219 0.950 . S
C248 C247 1.334 . S
C248 C249 1.287 . S
C249 C248 1.287 . S
C249 C250 1.524 . S
C249 H252 0.999 . S
C250 H220 0.950 . S
C250 C249 1.524 . S
C250 C251 1.415 . S
C251 H221 0.950 . S
C251 C246 1.363 . S
C251 C250 1.415 . S
H252 C249 0.999 . S
H253 C234 0.913 . S
H254 C272 0.951 . S
H255 C274 0.951 . S
H256 C276 0.950 . S
H257 C277 0.950 . S
H258 C279 0.950 . S
H259 C282 0.950 . S
H260 C283 0.950 . S
H261 C285 0.950 . S
H262 C286 0.950 . S
H263 C287 0.951 . S
H264 C289 0.951 . S
H265 C291 0.950 . S
H266 C292 0.950 . S
H267 C294 0.950 . S
H268 C297 0.950 . S
H269 C298 0.950 . S
H270 C300 0.950 . S
H271 C301 0.950 . S
C272 H254 0.951 . S
C272 C273 1.366 . S
C272 C274 1.388 . S
C273 C272 1.366 . S
C273 C277 1.385 . S
C274 H255 0.951 . S
C274 C272 1.388 . S
C274 C275 1.366 . S
C275 C274 1.366 . S
C275 C276 1.414 . S
C275 C278 1.499 . S
C276 H256 0.950 . S
C276 C275 1.414 . S
C276 C277 1.374 . S
C277 H257 0.950 . S
C277 C273 1.385 . S
C277 C276 1.374 . S
C278 C275 1.499 . S
C278 C279 1.370 1_455 S
C278 C280 1.389 1_545 S
C279 H258 0.950 . S
C279 C278 1.370 1_655 S
C279 C295 1.380 . S
C280 C278 1.389 1_565 S
C280 C281 1.524 . S
C280 C294 1.380 . S
C281 C280 1.524 . S
C281 C282 1.397 1_565 S
C281 C286 1.363 . S
C282 H259 0.950 . S
C282 C281 1.397 1_545 S
C282 C283 1.334 . S
C283 H260 0.950 . S
C283 C282 1.334 . S
C283 C284 1.287 1_545 S
C284 C283 1.287 1_565 S
C284 C285 1.524 . S
C284 H303 0.913 . S
C285 H261 0.950 . S
C285 C284 1.524 . S
C285 C286 1.415 . S
C286 H262 0.950 . S
C286 C281 1.363 . S
C286 C285 1.415 . S
C287 H263 0.951 . S
C287 C288 1.366 . S
C287 C289 1.388 . S
C288 C287 1.366 . S
C288 C292 1.385 . S
C289 H264 0.951 . S
C289 C287 1.388 . S
C289 C290 1.366 . S
C290 C289 1.366 . S
C290 C291 1.414 . S
C290 C293 1.499 . S
C291 H265 0.950 . S
C291 C290 1.414 . S
C291 C292 1.374 . S
C292 H266 0.950 . S
C292 C288 1.385 . S
C292 C291 1.374 . S
C293 C290 1.499 . S
C293 C294 1.370 1_655 S
C293 C295 1.389 1_565 S
C294 H267 0.950 . S
C294 C280 1.380 . S
C294 C293 1.370 1_455 S
C295 C279 1.380 . S
C295 C293 1.389 1_545 S
C295 C296 1.524 . S
C296 C295 1.524 . S
C296 C297 1.397 1_545 S
C296 C301 1.363 . S
C297 H268 0.950 . S
C297 C296 1.397 1_565 S
C297 C298 1.334 . S
C298 H269 0.950 . S
C298 C297 1.334 . S
C298 C299 1.287 1_565 S
C299 C298 1.287 1_545 S
C299 C300 1.524 . S
C299 H302 0.999 . S
C300 H270 0.950 . S
C300 C299 1.524 . S
C300 C301 1.415 . S
C301 H271 0.950 . S
C301 C296 1.363 . S
C301 C300 1.415 . S
H302 C299 0.999 . S
H303 C284 0.913 . S
H304 C322 0.951 . S
H305 C324 0.951 . S
H306 C326 0.950 . S
H307 C327 0.950 . S
H308 C329 0.950 . S
H309 C332 0.950 . S
H310 C333 0.950 . S
H311 C335 0.950 . S
H312 C336 0.950 . S
H313 C337 0.951 . S
H314 C339 0.951 . S
H315 C341 0.950 . S
H316 C342 0.950 . S
H317 C344 0.950 . S
H318 C347 0.950 . S
H319 C348 0.950 . S
H320 C350 0.950 . S
H321 C351 0.950 . S
C322 H304 0.951 . S
C322 C323 1.366 . S
C322 C324 1.388 . S
C323 C322 1.366 . S
C323 C327 1.385 . S
C324 H305 0.951 . S
C324 C322 1.388 . S
C324 C325 1.366 . S
C325 C324 1.366 . S
C325 C326 1.414 . S
C325 C328 1.499 . S
C326 H306 0.950 . S
C326 C325 1.414 . S
C326 C327 1.374 . S
C327 H307 0.950 . S
C327 C323 1.385 . S
C327 C326 1.374 . S
C328 C325 1.499 . S
C328 C329 1.373 . S
C328 C330 1.389 . S
C329 H308 0.950 . S
C329 C328 1.373 . S
C329 C345 1.377 . S
C330 C328 1.389 . S
C330 C331 1.524 . S
C330 C344 1.377 . S
C331 C330 1.524 . S
C331 C332 1.397 . S
C331 C336 1.363 . S
C332 H309 0.950 . S
C332 C331 1.397 . S
C332 C333 1.334 . S
C333 H310 0.950 . S
C333 C332 1.334 . S
C333 C334 1.287 . S
C334 C333 1.287 . S
C334 C335 1.524 . S
C334 H353 0.913 . S
C335 H311 0.950 . S
C335 C334 1.524 . S
C335 C336 1.415 . S
C336 H312 0.950 . S
C336 C331 1.363 . S
C336 C335 1.415 . S
C337 H313 0.951 . S
C337 C338 1.366 . S
C337 C339 1.388 . S
C338 C337 1.366 . S
C338 C342 1.385 . S
C339 H314 0.951 . S
C339 C337 1.388 . S
C339 C340 1.366 . S
C340 C339 1.366 . S
C340 C341 1.414 . S
C340 C343 1.499 . S
C341 H315 0.950 . S
C341 C340 1.414 . S
C341 C342 1.374 . S
C342 H316 0.950 . S
C342 C338 1.385 . S
C342 C341 1.374 . S
C343 C340 1.499 . S
C343 C344 1.373 . S
C343 C345 1.389 . S
C344 H317 0.950 . S
C344 C330 1.377 . S
C344 C343 1.373 . S
C345 C329 1.377 . S
C345 C343 1.389 . S
C345 C346 1.524 . S
C346 C345 1.524 . S
C346 C347 1.397 . S
C346 C351 1.363 . S
C347 H318 0.950 . S
C347 C346 1.397 . S
C347 C348 1.334 . S
C348 H319 0.950 . S
C348 C347 1.334 . S
C348 C349 1.287 . S
C349 C348 1.287 . S
C349 C350 1.524 . S
C349 H352 0.999 . S
C350 H320 0.950 . S
C350 C349 1.524 . S
C350 C351 1.415 . S
C351 H321 0.950 . S
C351 C346 1.363 . S
C351 C350 1.415 . S
H352 C349 0.999 . S
H353 C334 0.913 . S
H354 C372 0.951 . S
H355 C374 0.951 . S
H356 C376 0.950 . S
H357 C377 0.950 . S
H358 C379 0.950 . S
H359 C382 0.950 . S
H360 C383 0.950 . S
H361 C385 0.950 1_554 S
H362 C386 0.974 . S
H363 C387 0.951 . S
H364 C389 0.951 . S
H365 C391 0.950 . S
H366 C392 0.950 . S
H367 C394 0.950 . S
H368 C397 0.950 . S
H369 C398 0.950 . S
H370 C400 0.950 1_556 S
H371 C401 0.974 . S
C372 H354 0.951 . S
C372 C373 1.366 . S
C372 C374 1.388 . S
C373 C372 1.366 . S
C373 C377 1.385 . S
C374 H355 0.951 . S
C374 C372 1.388 . S
C374 C375 1.366 . S
C375 C374 1.366 . S
C375 C376 1.414 . S
C375 C378 1.499 . S
C376 H356 0.950 . S
C376 C375 1.414 . S
C376 C377 1.374 . S
C377 H357 0.950 . S
C377 C373 1.385 . S
C377 C376 1.374 . S
C378 C375 1.499 . S
C378 C379 1.373 . S
C378 C380 1.389 . S
C379 H358 0.950 . S
C379 C378 1.373 . S
C379 C395 1.377 1_556 S
C380 C378 1.389 . S
C380 C381 1.524 . S
C380 C394 1.377 1_556 S
C381 C380 1.524 . S
C381 C382 1.397 . S
C381 C386 1.346 1_556 S
C382 H359 0.950 . S
C382 C381 1.397 . S
C382 C383 1.334 . S
C383 H360 0.950 . S
C383 C382 1.334 . S
C383 C384 1.287 . S
C384 C383 1.287 . S
C384 C385 1.524 . S
C384 H403 0.913 . S
C385 H361 0.950 1_556 S
C385 C384 1.524 . S
C385 C386 1.409 1_556 S
C386 H362 0.974 . S
C386 C381 1.346 1_554 S
C386 C385 1.409 1_554 S
C387 H363 0.951 . S
C387 C388 1.366 . S
C387 C389 1.388 . S
C388 C387 1.366 . S
C388 C392 1.385 . S
C389 H364 0.951 . S
C389 C387 1.388 . S
C389 C390 1.366 . S
C390 C389 1.366 . S
C390 C391 1.414 . S
C390 C393 1.499 . S
C391 H365 0.950 . S
C391 C390 1.414 . S
C391 C392 1.374 . S
C392 H366 0.950 . S
C392 C388 1.385 . S
C392 C391 1.374 . S
C393 C390 1.499 . S
C393 C394 1.373 . S
C393 C395 1.389 . S
C394 H367 0.950 . S
C394 C380 1.377 1_554 S
C394 C393 1.373 . S
C395 C379 1.377 1_554 S
C395 C393 1.389 . S
C395 C396 1.524 . S
C396 C395 1.524 . S
C396 C397 1.397 . S
C396 C401 1.346 1_554 S
C397 H368 0.950 . S
C397 C396 1.397 . S
C397 C398 1.334 . S
C398 H369 0.950 . S
C398 C397 1.334 . S
C398 C399 1.287 . S
C399 C398 1.287 . S
C399 C400 1.524 . S
C399 H402 0.999 . S
C400 H370 0.950 1_554 S
C400 C399 1.524 . S
C400 C401 1.409 1_554 S
C401 H371 0.974 . S
C401 C396 1.346 1_556 S
C401 C400 1.409 1_556 S
H402 C399 0.999 . S
H403 C384 0.913 . S
H404 C422 0.951 . S
H405 C424 0.951 . S
H406 C426 0.950 . S
H407 C427 0.950 . S
H408 C429 0.950 . S
H409 C432 0.950 . S
H410 C433 0.950 . S
H411 C435 0.950 . S
H412 C436 0.950 . S
H413 C437 0.951 . S
H414 C439 0.951 . S
H415 C441 0.950 . S
H416 C442 0.950 . S
H417 C444 0.950 . S
H418 C447 0.950 . S
H419 C448 0.950 . S
H420 C450 0.950 . S
H421 C451 0.950 . S
C422 H404 0.951 . S
C422 C423 1.366 . S
C422 C424 1.388 . S
C423 C422 1.366 . S
C423 C427 1.385 . S
C424 H405 0.951 . S
C424 C422 1.388 . S
C424 C425 1.366 . S
C425 C424 1.366 . S
C425 C426 1.414 . S
C425 C428 1.499 . S
C426 H406 0.950 . S
C426 C425 1.414 . S
C426 C427 1.374 . S
C427 H407 0.950 . S
C427 C423 1.385 . S
C427 C426 1.374 . S
C428 C425 1.499 . S
C428 C429 1.373 . S
C428 C430 1.389 . S
C429 H408 0.950 . S
C429 C428 1.373 . S
C429 C445 1.377 . S
C430 C428 1.389 . S
C430 C431 1.524 . S
C430 C444 1.377 . S
C431 C430 1.524 . S
C431 C432 1.397 . S
C431 C436 1.363 . S
C432 H409 0.950 . S
C432 C431 1.397 . S
C432 C433 1.334 . S
C433 H410 0.950 . S
C433 C432 1.334 . S
C433 C434 1.287 . S
C434 C433 1.287 . S
C434 C435 1.524 . S
C434 H453 0.913 . S
C435 H411 0.950 . S
C435 C434 1.524 . S
C435 C436 1.415 . S
C436 H412 0.950 . S
C436 C431 1.363 . S
C436 C435 1.415 . S
C437 H413 0.951 . S
C437 C438 1.366 . S
C437 C439 1.388 . S
C438 C437 1.366 . S
C438 C442 1.385 . S
C439 H414 0.951 . S
C439 C437 1.388 . S
C439 C440 1.366 . S
C440 C439 1.366 . S
C440 C441 1.414 . S
C440 C443 1.499 . S
C441 H415 0.950 . S
C441 C440 1.414 . S
C441 C442 1.374 . S
C442 H416 0.950 . S
C442 C438 1.385 . S
C442 C441 1.374 . S
C443 C440 1.499 . S
C443 C444 1.373 . S
C443 C445 1.389 . S
C444 H417 0.950 . S
C444 C430 1.377 . S
C444 C443 1.373 . S
C445 C429 1.377 . S
C445 C443 1.389 . S
C445 C446 1.524 . S
C446 C445 1.524 . S
C446 C447 1.397 . S
C446 C451 1.363 . S
C447 H418 0.950 . S
C447 C446 1.397 . S
C447 C448 1.334 . S
C448 H419 0.950 . S
C448 C447 1.334 . S
C448 C449 1.287 . S
C449 C448 1.287 . S
C449 C450 1.524 . S
C449 H452 0.971 1_655 S
C450 H420 0.950 . S
C450 C449 1.524 . S
C450 C451 1.415 . S
C451 H421 0.950 . S
C451 C446 1.363 . S
C451 C450 1.415 . S
H452 C449 0.971 1_455 S
H453 C434 0.913 . S
H454 C472 0.951 . S
H455 C474 0.951 . S
H456 C476 0.950 . S
H457 C477 0.950 . S
H458 C479 0.950 . S
H459 C482 0.950 . S
H460 C483 0.950 . S
H461 C485 0.950 . S
H462 C486 0.950 . S
H463 C487 0.951 . S
H464 C489 0.951 . S
H465 C491 0.950 . S
H466 C492 0.950 . S
H467 C494 0.950 . S
H468 C497 0.950 . S
H469 C498 0.950 . S
H470 C500 0.950 . S
H471 C501 0.950 . S
C472 H454 0.951 . S
C472 C473 1.366 . S
C472 C474 1.388 . S
C473 C472 1.366 . S
C473 C477 1.385 . S
C474 H455 0.951 . S
C474 C472 1.388 . S
C474 C475 1.366 . S
C475 C474 1.366 . S
C475 C476 1.414 . S
C475 C478 1.499 . S
C476 H456 0.950 . S
C476 C475 1.414 . S
C476 C477 1.374 . S
C477 H457 0.950 . S
C477 C473 1.385 . S
C477 C476 1.374 . S
C478 C475 1.499 . S
C478 C479 1.373 . S
C478 C480 1.389 . S
C479 H458 0.950 . S
C479 C478 1.373 . S
C479 C495 1.377 1_556 S
C480 C478 1.389 . S
C480 C481 1.524 . S
C480 C494 1.377 1_556 S
C481 C480 1.524 . S
C481 C482 1.397 . S
C481 C486 1.363 . S
C482 H459 0.950 . S
C482 C481 1.397 . S
C482 C483 1.334 . S
C483 H460 0.950 . S
C483 C482 1.334 . S
C483 C484 1.287 . S
C484 C483 1.287 . S
C484 C485 1.524 . S
C484 H503 0.913 . S
C485 H461 0.950 . S
C485 C484 1.524 . S
C485 C486 1.415 . S
C486 H462 0.950 . S
C486 C481 1.363 . S
C486 C485 1.415 . S
C487 H463 0.951 . S
C487 C488 1.366 . S
C487 C489 1.388 . S
C488 C487 1.366 . S
C488 C492 1.385 . S
C489 H464 0.951 . S
C489 C487 1.388 . S
C489 C490 1.366 . S
C490 C489 1.366 . S
C490 C491 1.414 . S
C490 C493 1.499 . S
C491 H465 0.950 . S
C491 C490 1.414 . S
C491 C492 1.374 . S
C492 H466 0.950 . S
C492 C488 1.385 . S
C492 C491 1.374 . S
C493 C490 1.499 . S
C493 C494 1.373 . S
C493 C495 1.389 . S
C494 H467 0.950 . S
C494 C480 1.377 1_554 S
C494 C493 1.373 . S
C495 C479 1.377 1_554 S
C495 C493 1.389 . S
C495 C496 1.524 . S
C496 C495 1.524 . S
C496 C497 1.397 . S
C496 C501 1.363 . S
C497 H468 0.950 . S
C497 C496 1.397 . S
C497 C498 1.334 . S
C498 H469 0.950 . S
C498 C497 1.334 . S
C498 C499 1.287 . S
C499 C498 1.287 . S
C499 C500 1.524 . S
C499 H502 0.999 . S
C500 H470 0.950 . S
C500 C499 1.524 . S
C500 C501 1.415 . S
C501 H471 0.950 . S
C501 C496 1.363 . S
C501 C500 1.415 . S
H502 C499 0.999 . S
H503 C484 0.913 . S
H504 C522 0.951 . S
H505 C524 0.951 . S
H506 C526 0.950 . S
H507 C527 0.950 . S
H508 C529 0.950 . S
H509 C532 0.950 . S
H510 C533 0.950 . S
H511 C535 0.950 . S
H512 C536 0.950 . S
H513 C537 0.951 . S
H514 C539 0.951 . S
H515 C541 0.950 . S
H516 C542 0.950 . S
H517 C544 0.950 . S
H518 C547 0.950 . S
H519 C548 0.950 . S
H520 C550 0.950 . S
H521 C551 0.950 . S
C522 H504 0.951 . S
C522 C523 1.366 . S
C522 C524 1.388 . S
C523 C522 1.366 . S
C523 C527 1.385 . S
C524 H505 0.951 . S
C524 C522 1.388 . S
C524 C525 1.366 . S
C525 C524 1.366 . S
C525 C526 1.414 . S
C525 C528 1.499 . S
C526 H506 0.950 . S
C526 C525 1.414 . S
C526 C527 1.374 . S
C527 H507 0.950 . S
C527 C523 1.385 . S
C527 C526 1.374 . S
C528 C525 1.499 . S
C528 C529 1.373 . S
C528 C530 1.389 . S
C529 H508 0.950 . S
C529 C528 1.373 . S
C529 C545 1.377 . S
C530 C528 1.389 . S
C530 C531 1.524 . S
C530 C544 1.377 . S
C531 C530 1.524 . S
C531 C532 1.397 . S
C531 C536 1.363 . S
C532 H509 0.950 . S
C532 C531 1.397 . S
C532 C533 1.334 . S
C533 H510 0.950 . S
C533 C532 1.334 . S
C533 C534 1.287 . S
C534 C533 1.287 . S
C534 C535 1.524 . S
C534 H553 0.913 . S
C535 H511 0.950 . S
C535 C534 1.524 . S
C535 C536 1.415 . S
C536 H512 0.950 . S
C536 C531 1.363 . S
C536 C535 1.415 . S
C537 H513 0.951 . S
C537 C538 1.366 . S
C537 C539 1.388 . S
C538 C537 1.366 . S
C538 C542 1.385 . S
C539 H514 0.951 . S
C539 C537 1.388 . S
C539 C540 1.366 . S
C540 C539 1.366 . S
C540 C541 1.414 . S
C540 C543 1.499 . S
C541 H515 0.950 . S
C541 C540 1.414 . S
C541 C542 1.374 . S
C542 H516 0.950 . S
C542 C538 1.385 . S
C542 C541 1.374 . S
C543 C540 1.499 . S
C543 C544 1.373 . S
C543 C545 1.389 . S
C544 H517 0.950 . S
C544 C530 1.377 . S
C544 C543 1.373 . S
C545 C529 1.377 . S
C545 C543 1.389 . S
C545 C546 1.524 . S
C546 C545 1.524 . S
C546 C547 1.397 . S
C546 C551 1.363 . S
C547 H518 0.950 . S
C547 C546 1.397 . S
C547 C548 1.334 . S
C548 H519 0.950 . S
C548 C547 1.334 . S
C548 C549 1.287 . S
C549 C548 1.287 . S
C549 C550 1.524 . S
C549 H552 0.999 . S
C550 H520 0.950 . S
C550 C549 1.524 . S
C550 C551 1.415 . S
C551 H521 0.950 . S
C551 C546 1.363 . S
C551 C550 1.415 . S
H552 C549 0.999 . S
H553 C534 0.913 . S
H554 C572 0.951 . S
H555 C574 0.951 . S
H556 C576 0.950 . S
H557 C577 0.950 . S
H558 C579 0.950 . S
H559 C582 0.950 . S
H560 C583 0.950 . S
H561 C585 0.950 . S
H562 C586 0.950 . S
H563 C587 0.951 . S
H564 C589 0.951 . S
H565 C591 0.950 . S
H566 C592 0.950 . S
H567 C594 0.950 . S
H568 C597 0.950 . S
H569 C598 0.950 . S
H570 C600 0.950 . S
H571 C601 0.950 . S
C572 H554 0.951 . S
C572 C573 1.366 . S
C572 C574 1.388 . S
C573 C572 1.366 . S
C573 C577 1.385 . S
C574 H555 0.951 . S
C574 C572 1.388 . S
C574 C575 1.366 . S
C575 C574 1.366 . S
C575 C576 1.414 . S
C575 C578 1.499 . S
C576 H556 0.950 . S
C576 C575 1.414 . S
C576 C577 1.374 . S
C577 H557 0.950 . S
C577 C573 1.385 . S
C577 C576 1.374 . S
C578 C575 1.499 . S
C578 C579 1.373 . S
C578 C580 1.389 . S
C579 H558 0.950 . S
C579 C578 1.373 . S
C579 C595 1.377 . S
C580 C578 1.389 . S
C580 C581 1.524 . S
C580 C594 1.377 . S
C581 C580 1.524 . S
C581 C582 1.397 . S
C581 C586 1.363 . S
C582 H559 0.950 . S
C582 C581 1.397 . S
C582 C583 1.334 . S
C583 H560 0.950 . S
C583 C582 1.334 . S
C583 C584 1.287 . S
C584 C583 1.287 . S
C584 C585 1.524 . S
C584 H603 0.913 . S
C585 H561 0.950 . S
C585 C584 1.524 . S
C585 C586 1.415 . S
C586 H562 0.950 . S
C586 C581 1.363 . S
C586 C585 1.415 . S
C587 H563 0.951 . S
C587 C588 1.366 . S
C587 C589 1.388 1_545 S
C588 C587 1.366 . S
C588 C592 1.385 . S
C589 H564 0.951 . S
C589 C587 1.388 1_565 S
C589 C590 1.366 . S
C590 C589 1.366 . S
C590 C591 1.414 . S
C590 C593 1.499 . S
C591 H565 0.950 . S
C591 C590 1.414 . S
C591 C592 1.374 1_565 S
C592 H566 0.950 . S
C592 C588 1.385 . S
C592 C591 1.374 1_545 S
C593 C590 1.499 . S
C593 C594 1.373 . S
C593 C595 1.389 . S
C594 H567 0.950 . S
C594 C580 1.377 . S
C594 C593 1.373 . S
C595 C579 1.377 . S
C595 C593 1.389 . S
C595 C596 1.524 . S
C596 C595 1.524 . S
C596 C597 1.397 . S
C596 C601 1.363 . S
C597 H568 0.950 . S
C597 C596 1.397 . S
C597 C598 1.334 . S
C598 H569 0.950 . S
C598 C597 1.334 . S
C598 C599 1.287 . S
C599 C598 1.287 . S
C599 C600 1.524 . S
C599 H602 0.999 . S
C600 H570 0.950 . S
C600 C599 1.524 . S
C600 C601 1.415 . S
C601 H571 0.950 . S
C601 C596 1.363 . S
C601 C600 1.415 . S
H602 C599 0.999 . S
H603 C584 0.913 . S
H604 C622 0.951 . S
H605 C624 0.951 . S
H606 C626 0.950 . S
H607 C627 0.950 . S
H608 C629 0.950 . S
H609 C632 0.950 . S
H610 C633 0.950 . S
H611 C635 0.950 . S
H612 C636 0.950 . S
H613 C637 0.951 . S
H614 C639 0.951 . S
H615 C641 0.950 . S
H616 C642 0.950 . S
H617 C644 0.950 . S
H618 C647 0.950 . S
H619 C648 0.950 . S
H620 C650 0.950 . S
H621 C651 0.950 . S
C622 H604 0.951 . S
C622 C623 1.366 . S
C622 C624 1.388 . S
C623 C622 1.366 . S
C623 C627 1.385 . S
C624 H605 0.951 . S
C624 C622 1.388 . S
C624 C625 1.366 . S
C625 C624 1.366 . S
C625 C626 1.414 . S
C625 C628 1.499 . S
C626 H606 0.950 . S
C626 C625 1.414 . S
C626 C627 1.374 . S
C627 H607 0.950 . S
C627 C623 1.385 . S
C627 C626 1.374 . S
C628 C625 1.499 . S
C628 C629 1.373 . S
C628 C630 1.389 . S
C629 H608 0.950 . S
C629 C628 1.373 . S
C629 C645 1.377 . S
C630 C628 1.389 . S
C630 C631 1.524 . S
C630 C644 1.377 . S
C631 C630 1.524 . S
C631 C632 1.397 . S
C631 C636 1.363 . S
C632 H609 0.950 . S
C632 C631 1.397 . S
C632 C633 1.334 . S
C633 H610 0.950 . S
C633 C632 1.334 . S
C633 C634 1.287 . S
C634 C633 1.287 . S
C634 C635 1.524 . S
C634 H653 0.913 . S
C635 H611 0.950 . S
C635 C634 1.524 . S
C635 C636 1.415 . S
C636 H612 0.950 . S
C636 C631 1.363 . S
C636 C635 1.415 . S
C637 H613 0.951 . S
C637 C638 1.366 . S
C637 C639 1.388 . S
C638 C637 1.366 . S
C638 C642 1.385 . S
C639 H614 0.951 . S
C639 C637 1.388 . S
C639 C640 1.366 . S
C640 C639 1.366 . S
C640 C641 1.414 . S
C640 C643 1.499 . S
C641 H615 0.950 . S
C641 C640 1.414 . S
C641 C642 1.374 . S
C642 H616 0.950 . S
C642 C638 1.385 . S
C642 C641 1.374 . S
C643 C640 1.499 . S
C643 C644 1.373 . S
C643 C645 1.389 . S
C644 H617 0.950 . S
C644 C630 1.377 . S
C644 C643 1.373 . S
C645 C629 1.377 . S
C645 C643 1.389 . S
C645 C646 1.524 . S
C646 C645 1.524 . S
C646 C647 1.397 . S
C646 C651 1.363 . S
C647 H618 0.950 . S
C647 C646 1.397 . S
C647 C648 1.334 . S
C648 H619 0.950 . S
C648 C647 1.334 . S
C648 C649 1.287 . S
C649 C648 1.287 . S
C649 C650 1.524 . S
C649 H652 0.999 . S
C650 H620 0.950 . S
C650 C649 1.524 . S
C650 C651 1.415 . S
C651 H621 0.950 . S
C651 C646 1.363 . S
C651 C650 1.415 . S
H652 C649 0.999 . S
H653 C634 0.913 . S
H654 C672 0.951 . S
H655 C674 0.951 . S
H656 C676 0.950 . S
H657 C677 0.950 . S
H658 C679 0.950 . S
H659 C682 0.950 . S
H660 C683 0.950 . S
H661 C685 0.950 . S
H662 C686 0.950 . S
H663 C687 0.951 . S
H664 C689 0.951 . S
H665 C691 0.950 . S
H666 C692 0.950 . S
H667 C694 0.950 . S
H668 C697 0.950 . S
H669 C698 0.947 1_565 S
H670 C700 0.950 . S
H671 C701 0.950 . S
C672 H654 0.951 . S
C672 C673 1.366 . S
C672 C674 1.388 . S
C673 C672 1.366 . S
C673 C677 1.385 . S
C674 H655 0.951 . S
C674 C672 1.388 . S
C674 C675 1.366 . S
C675 C674 1.366 . S
C675 C676 1.414 . S
C675 C678 1.499 . S
C676 H656 0.950 . S
C676 C675 1.414 . S
C676 C677 1.374 . S
C677 H657 0.950 . S
C677 C673 1.385 . S
C677 C676 1.374 . S
C678 C675 1.499 . S
C678 C679 1.373 . S
C678 C680 1.389 . S
C679 H658 0.950 . S
C679 C678 1.373 . S
C679 C695 1.377 . S
C680 C678 1.389 . S
C680 C681 1.524 . S
C680 C694 1.377 . S
C681 C680 1.524 . S
C681 C682 1.397 . S
C681 C686 1.363 . S
C682 H659 0.950 . S
C682 C681 1.397 . S
C682 C683 1.334 . S
C683 H660 0.950 . S
C683 C682 1.334 . S
C683 C684 1.287 . S
C684 C683 1.287 . S
C684 C685 1.524 . S
C684 H703 0.913 . S
C685 H661 0.950 . S
C685 C684 1.524 . S
C685 C686 1.415 . S
C686 H662 0.950 . S
C686 C681 1.363 . S
C686 C685 1.415 . S
C687 H663 0.951 . S
C687 C688 1.366 . S
C687 C689 1.388 1_565 S
C688 C687 1.366 . S
C688 C692 1.385 . S
C689 H664 0.951 . S
C689 C687 1.388 1_545 S
C689 C690 1.366 . S
C690 C689 1.366 . S
C690 C691 1.414 . S
C690 C693 1.499 . S
C691 H665 0.950 . S
C691 C690 1.414 . S
C691 C692 1.374 1_545 S
C692 H666 0.950 . S
C692 C688 1.385 . S
C692 C691 1.374 1_565 S
C693 C690 1.499 . S
C693 C694 1.373 . S
C693 C695 1.389 . S
C694 H667 0.950 . S
C694 C680 1.377 . S
C694 C693 1.373 . S
C695 C679 1.377 . S
C695 C693 1.389 . S
C695 C696 1.524 . S
C696 C695 1.524 . S
C696 C697 1.397 . S
C696 C701 1.363 . S
C697 H668 0.950 . S
C697 C696 1.397 . S
C697 C698 1.339 . S
C698 H669 0.947 1_545 S
C698 C697 1.339 . S
C698 C699 1.285 1_545 S
C699 C698 1.285 1_565 S
C699 C700 1.524 1_565 S
C699 H702 0.999 . S
C700 H670 0.950 . S
C700 C699 1.524 1_545 S
C700 C701 1.415 . S
C701 H671 0.950 . S
C701 C696 1.363 . S
C701 C700 1.415 . S
H702 C699 0.999 . S
H703 C684 0.913 . S
H704 C722 0.951 . S
H705 C724 0.951 . S
H706 C726 0.950 . S
H707 C727 0.950 . S
H708 C729 0.950 . S
H709 C732 0.950 . S
H710 C733 0.950 1_455 S
H711 C735 0.950 . S
H712 C736 0.950 . S
H713 C737 0.951 . S
H714 C739 0.951 . S
H715 C741 0.950 . S
H716 C742 0.950 . S
H717 C744 0.950 . S
H718 C747 0.950 . S
H719 C748 0.950 . S
H720 C750 0.950 . S
H721 C751 0.950 . S
C722 H704 0.951 . S
C722 C723 1.366 . S
C722 C724 1.388 1_455 S
C723 C722 1.366 . S
C723 C727 1.385 . S
C724 H705 0.951 . S
C724 C722 1.388 1_655 S
C724 C725 1.366 . S
C725 C724 1.366 . S
C725 C726 1.414 . S
C725 C728 1.499 . S
C726 H706 0.950 . S
C726 C725 1.414 . S
C726 C727 1.374 1_655 S
C727 H707 0.950 . S
C727 C723 1.385 . S
C727 C726 1.374 1_455 S
C728 C725 1.499 . S
C728 C729 1.373 . S
C728 C730 1.389 . S
C729 H708 0.950 . S
C729 C728 1.373 . S
C729 C745 1.377 . S
C730 C728 1.389 . S
C730 C731 1.524 . S
C730 C744 1.377 . S
C731 C730 1.524 . S
C731 C732 1.397 . S
C731 C736 1.363 . S
C732 H709 0.950 . S
C732 C731 1.397 . S
C732 C733 1.334 . S
C733 H710 0.950 1_655 S
C733 C732 1.334 . S
C733 C734 1.287 . S
C734 C733 1.287 . S
C734 C735 1.524 . S
C734 H753 0.913 . S
C735 H711 0.950 . S
C735 C734 1.524 . S
C735 C736 1.415 . S
C736 H712 0.950 . S
C736 C731 1.363 . S
C736 C735 1.415 . S
C737 H713 0.951 . S
C737 C738 1.366 . S
C737 C739 1.388 . S
C738 C737 1.366 . S
C738 C742 1.385 . S
C739 H714 0.951 . S
C739 C737 1.388 . S
C739 C740 1.366 . S
C740 C739 1.366 . S
C740 C741 1.414 . S
C740 C743 1.499 . S
C741 H715 0.950 . S
C741 C740 1.414 . S
C741 C742 1.374 . S
C742 H716 0.950 . S
C742 C738 1.385 . S
C742 C741 1.374 . S
C743 C740 1.499 . S
C743 C744 1.373 . S
C743 C745 1.389 . S
C744 H717 0.950 . S
C744 C730 1.377 . S
C744 C743 1.373 . S
C745 C729 1.377 . S
C745 C743 1.389 . S
C745 C746 1.524 . S
C746 C745 1.524 . S
C746 C747 1.397 . S
C746 C751 1.363 . S
C747 H718 0.950 . S
C747 C746 1.397 . S
C747 C748 1.334 . S
C748 H719 0.950 . S
C748 C747 1.334 . S
C748 C749 1.287 . S
C749 C748 1.287 . S
C749 C750 1.524 . S
C749 H752 0.999 . S
C750 H720 0.950 . S
C750 C749 1.524 . S
C750 C751 1.415 . S
C751 H721 0.950 . S
C751 C746 1.363 . S
C751 C750 1.415 . S
H752 C749 0.999 . S
H753 C734 0.913 . S
H754 C772 0.951 . S
H755 C774 0.951 . S
H756 C776 0.950 . S
H757 C777 0.950 . S
H758 C779 0.950 . S
H759 C782 0.950 . S
H760 C783 0.950 . S
H761 C785 0.950 . S
H762 C786 0.950 . S
H763 C787 0.951 . S
H764 C789 0.951 . S
H765 C791 0.950 . S
H766 C792 0.950 . S
H767 C794 0.950 . S
H768 C797 0.950 . S
H769 C798 0.950 . S
H770 C800 0.950 . S
H771 C801 0.950 . S
C772 H754 0.951 . S
C772 C773 1.366 . S
C772 C774 1.388 . S
C773 C772 1.366 . S
C773 C777 1.385 . S
C774 H755 0.951 . S
C774 C772 1.388 . S
C774 C775 1.366 . S
C775 C774 1.366 . S
C775 C776 1.414 . S
C775 C778 1.499 . S
C776 H756 0.950 . S
C776 C775 1.414 . S
C776 C777 1.374 . S
C777 H757 0.950 . S
C777 C773 1.385 . S
C777 C776 1.374 . S
C778 C775 1.499 . S
C778 C779 1.373 . S
C778 C780 1.389 . S
C779 H758 0.950 . S
C779 C778 1.373 . S
C779 C795 1.377 . S
C780 C778 1.389 . S
C780 C781 1.524 . S
C780 C794 1.377 . S
C781 C780 1.524 . S
C781 C782 1.397 . S
C781 C786 1.363 . S
C782 H759 0.950 . S
C782 C781 1.397 . S
C782 C783 1.334 . S
C783 H760 0.950 . S
C783 C782 1.334 . S
C783 C784 1.287 . S
C784 C783 1.287 . S
C784 C785 1.524 . S
C784 H803 0.913 . S
C785 H761 0.950 . S
C785 C784 1.524 . S
C785 C786 1.415 . S
C786 H762 0.950 . S
C786 C781 1.363 . S
C786 C785 1.415 . S
C787 H763 0.951 . S
C787 C788 1.366 . S
C787 C789 1.388 . S
C788 C787 1.366 . S
C788 C792 1.385 . S
C789 H764 0.951 . S
C789 C787 1.388 . S
C789 C790 1.366 . S
C790 C789 1.366 . S
C790 C791 1.414 . S
C790 C793 1.499 . S
C791 H765 0.950 . S
C791 C790 1.414 . S
C791 C792 1.374 . S
C792 H766 0.950 . S
C792 C788 1.385 . S
C792 C791 1.374 . S
C793 C790 1.499 . S
C793 C794 1.373 . S
C793 C795 1.389 . S
C794 H767 0.950 . S
C794 C780 1.377 . S
C794 C793 1.373 . S
C795 C779 1.377 . S
C795 C793 1.389 . S
C795 C796 1.524 . S
C796 C795 1.524 . S
C796 C797 1.397 . S
C796 C801 1.363 . S
C797 H768 0.950 . S
C797 C796 1.397 . S
C797 C798 1.334 . S
C798 H769 0.950 . S
C798 C797 1.334 . S
C798 C799 1.287 . S
C799 C798 1.287 . S
C799 C800 1.524 . S
C799 H802 0.999 . S
C800 H770 0.950 . S
C800 C799 1.524 . S
C800 C801 1.415 . S
C801 H771 0.950 . S
C801 C796 1.363 . S
C801 C800 1.415 . S
H802 C799 0.999 . S
H803 C784 0.913 . S
H804 C822 0.951 . S
H805 C824 0.951 . S
H806 C826 0.950 . S
H807 C827 0.950 . S
H808 C829 0.950 . S
H809 C832 0.950 . S
H810 C833 0.950 . S
H811 C835 0.950 . S
H812 C836 0.950 . S
H813 C837 0.951 . S
H814 C839 0.951 . S
H815 C841 0.950 . S
H816 C842 0.950 . S
H817 C844 0.950 . S
H818 C847 0.950 . S
H819 C848 0.950 . S
H820 C850 0.950 . S
H821 C851 0.950 . S
C822 H804 0.951 . S
C822 C823 1.366 . S
C822 C824 1.388 . S
C823 C822 1.366 . S
C823 C827 1.385 . S
C824 H805 0.951 . S
C824 C822 1.388 . S
C824 C825 1.366 . S
C825 C824 1.366 . S
C825 C826 1.414 . S
C825 C828 1.499 . S
C826 H806 0.950 . S
C826 C825 1.414 . S
C826 C827 1.374 . S
C827 H807 0.950 . S
C827 C823 1.385 . S
C827 C826 1.374 . S
C828 C825 1.499 . S
C828 C829 1.373 . S
C828 C830 1.389 . S
C829 H808 0.950 . S
C829 C828 1.373 . S
C829 C845 1.377 . S
C830 C828 1.389 . S
C830 C831 1.524 . S
C830 C844 1.377 . S
C831 C830 1.524 . S
C831 C832 1.397 . S
C831 C836 1.363 . S
C832 H809 0.950 . S
C832 C831 1.397 . S
C832 C833 1.334 . S
C833 H810 0.950 . S
C833 C832 1.334 . S
C833 C834 1.287 . S
C834 C833 1.287 . S
C834 C835 1.524 . S
C834 H853 0.913 . S
C835 H811 0.950 . S
C835 C834 1.524 . S
C835 C836 1.415 . S
C836 H812 0.950 . S
C836 C831 1.363 . S
C836 C835 1.415 . S
C837 H813 0.951 . S
C837 C838 1.366 . S
C837 C839 1.388 1_655 S
C838 C837 1.366 . S
C838 C842 1.385 . S
C839 H814 0.951 . S
C839 C837 1.388 1_455 S
C839 C840 1.366 . S
C840 C839 1.366 . S
C840 C841 1.414 . S
C840 C843 1.499 . S
C841 H815 0.950 . S
C841 C840 1.414 . S
C841 C842 1.374 1_455 S
C842 H816 0.950 . S
C842 C838 1.385 . S
C842 C841 1.374 1_655 S
C843 C840 1.499 . S
C843 C844 1.373 . S
C843 C845 1.389 . S
C844 H817 0.950 . S
C844 C830 1.377 . S
C844 C843 1.373 . S
C845 C829 1.377 . S
C845 C843 1.389 . S
C845 C846 1.524 . S
C846 C845 1.524 . S
C846 C847 1.397 . S
C846 C851 1.363 . S
C847 H818 0.950 . S
C847 C846 1.397 . S
C847 C848 1.334 . S
C848 H819 0.950 . S
C848 C847 1.334 . S
C848 C849 1.287 . S
C849 C848 1.287 . S
C849 C850 1.524 . S
C849 H852 0.999 . S
C850 H820 0.950 . S
C850 C849 1.524 . S
C850 C851 1.415 . S
C851 H821 0.950 . S
C851 C846 1.363 . S
C851 C850 1.415 . S
H852 C849 0.999 . S
H853 C834 0.913 . S
H854 C872 0.951 . S
H855 C874 0.951 . S
H856 C876 0.950 . S
H857 C877 0.950 . S
H858 C879 0.950 . S
H859 C882 0.950 . S
H860 C883 0.950 . S
H861 C885 0.950 . S
H862 C886 0.950 . S
H863 C887 0.951 . S
H864 C889 0.951 . S
H865 C891 0.950 . S
H866 C892 0.950 . S
H867 C894 0.950 . S
H868 C897 0.950 . S
H869 C898 0.950 . S
H870 C900 0.950 . S
H871 C901 0.950 . S
C872 H854 0.951 . S
C872 C873 1.366 . S
C872 C874 1.388 . S
C873 C872 1.366 . S
C873 C877 1.385 . S
C874 H855 0.951 . S
C874 C872 1.388 . S
C874 C875 1.366 . S
C875 C874 1.366 . S
C875 C876 1.414 . S
C875 C878 1.499 . S
C876 H856 0.950 . S
C876 C875 1.414 . S
C876 C877 1.374 . S
C877 H857 0.950 . S
C877 C873 1.385 . S
C877 C876 1.374 . S
C878 C875 1.499 . S
C878 C879 1.373 . S
C878 C880 1.389 . S
C879 H858 0.950 . S
C879 C878 1.373 . S
C879 C895 1.377 . S
C880 C878 1.389 . S
C880 C881 1.524 . S
C880 C894 1.377 . S
C881 C880 1.524 . S
C881 C882 1.397 . S
C881 C886 1.363 . S
C882 H859 0.950 . S
C882 C881 1.397 . S
C882 C883 1.334 . S
C883 H860 0.950 . S
C883 C882 1.334 . S
C883 C884 1.287 . S
C884 C883 1.287 . S
C884 C885 1.524 . S
C884 H903 0.913 . S
C885 H861 0.950 . S
C885 C884 1.524 . S
C885 C886 1.415 . S
C886 H862 0.950 . S
C886 C881 1.363 . S
C886 C885 1.415 . S
C887 H863 0.951 . S
C887 C888 1.366 . S
C887 C889 1.388 . S
C888 C887 1.366 . S
C888 C892 1.385 . S
C889 H864 0.951 . S
C889 C887 1.388 . S
C889 C890 1.366 . S
C890 C889 1.366 . S
C890 C891 1.414 . S
C890 C893 1.499 . S
C891 H865 0.950 . S
C891 C890 1.414 . S
C891 C892 1.374 . S
C892 H866 0.950 . S
C892 C888 1.385 . S
C892 C891 1.374 . S
C893 C890 1.499 . S
C893 C894 1.373 . S
C893 C895 1.389 . S
C894 H867 0.950 . S
C894 C880 1.377 . S
C894 C893 1.373 . S
C895 C879 1.377 . S
C895 C893 1.389 . S
C895 C896 1.524 . S
C896 C895 1.524 . S
C896 C897 1.397 . S
C896 C901 1.363 . S
C897 H868 0.950 . S
C897 C896 1.397 . S
C897 C898 1.334 . S
C898 H869 0.950 . S
C898 C897 1.334 . S
C898 C899 1.287 . S
C899 C898 1.287 . S
C899 C900 1.524 . S
C899 H902 0.999 . S
C900 H870 0.950 . S
C900 C899 1.524 . S
C900 C901 1.415 . S
C901 H871 0.950 . S
C901 C896 1.363 . S
C901 C900 1.415 . S
H902 C899 0.999 . S
H903 C884 0.913 . S
C123 C5 0.602 . S
C138 C31 0.603 . S
C173 C18 0.603 . S
C188 C44 0.603 . S
C223 C57 0.605 . S
C238 C83 0.604 . S
C273 C70 0.604 . S
C288 C96 0.603 . S
C323 C8 1.318 . S
C338 C73 1.316 . S
C373 C21 1.316 . S
C388 C86 1.317 . S
C423 C99 1.316 . S
C438 C34 1.317 . S
C473 C47 1.317 . S
C488 C60 1.316 . S
C523 C62 1.444 . S
C538 C0 1.471 . S
C573 C13 1.471 . S
C588 C75 1.444 . S
C623 C26 1.471 . S
C638 C88 1.443 . S
C673 C39 1.472 . S
C688 C101 1.444 . S
C723 C10 1.444 . S
C738 C52 1.472 . S
C773 C65 1.472 . S
C788 C23 1.443 . S
C823 C78 1.471 . S
C838 C36 1.444 . S
C873 C49 1.444 . S
C888 C91 1.471 . S
