# Generated by pormake.
# Topology zfx, (5)-cn, num edge types: 1
# Building blocks:
#     Node 0, Type 0, BuildingBlock: XOMCOT_clean_sbu_1, # of connection points: 5
#     Node 1, Type 0, BuildingBlock: XOMCOT_clean_sbu_1, # of connection points: 5
#     Node 2, Type 0, BuildingBlock: XOMCOT_clean_sbu_1, # of connection points: 5
#     Node 3, Type 0, BuildingBlock: XOMCOT_clean_sbu_1, # of connection points: 5
#     Node 4, Type 0, BuildingBlock: XOMCOT_clean_sbu_1, # of connection points: 5
#     Node 5, Type 0, BuildingBlock: XOMCOT_clean_sbu_1, # of connection points: 5
#     Node 6, Type 0, BuildingBlock: XOMCOT_clean_sbu_1, # of connection points: 5
#     Node 7, Type 0, BuildingBlock: XOMCOT_clean_sbu_1, # of connection points: 5
#     Node 8, Type 0, BuildingBlock: XOMCOT_clean_sbu_1, # of connection points: 5
#     Node 9, Type 0, BuildingBlock: XOMCOT_clean_sbu_1, # of connection points: 5
#     Node 10, Type 0, BuildingBlock: XOMCOT_clean_sbu_1, # of connection points: 5
#     Node 11, Type 0, BuildingBlock: XOMCOT_clean_sbu_1, # of connection points: 5
#     Node 12, Type 0, BuildingBlock: XOMCOT_clean_sbu_1, # of connection points: 5
#     Node 13, Type 0, BuildingBlock: XOMCOT_clean_sbu_1, # of connection points: 5
#     Node 14, Type 0, BuildingBlock: XOMCOT_clean_sbu_1, # of connection points: 5
#     Node 15, Type 0, BuildingBlock: XOMCOT_clean_sbu_1, # of connection points: 5
#     Edge 16, Type (0, 0), BuildingBlock: KIFKEQ_clean_linker_1, # of connection points: 2
#     Edge 17, Type (0, 0), BuildingBlock: KIFKEQ_clean_linker_1, # of connection points: 2
#     Edge 18, Type (0, 0), BuildingBlock: KIFKEQ_clean_linker_1, # of connection points: 2
#     Edge 19, Type (0, 0), BuildingBlock: KIFKEQ_clean_linker_1, # of connection points: 2
#     Edge 20, Type (0, 0), BuildingBlock: KIFKEQ_clean_linker_1, # of connection points: 2
#     Edge 21, Type (0, 0), BuildingBlock: KIFKEQ_clean_linker_1, # of connection points: 2
#     Edge 22, Type (0, 0), BuildingBlock: KIFKEQ_clean_linker_1, # of connection points: 2
#     Edge 23, Type (0, 0), BuildingBlock: KIFKEQ_clean_linker_1, # of connection points: 2
#     Edge 24, Type (0, 0), BuildingBlock: KIFKEQ_clean_linker_1, # of connection points: 2
#     Edge 25, Type (0, 0), BuildingBlock: KIFKEQ_clean_linker_1, # of connection points: 2
#     Edge 26, Type (0, 0), BuildingBlock: KIFKEQ_clean_linker_1, # of connection points: 2
#     Edge 27, Type (0, 0), BuildingBlock: KIFKEQ_clean_linker_1, # of connection points: 2
#     Edge 28, Type (0, 0), BuildingBlock: KIFKEQ_clean_linker_1, # of connection points: 2
#     Edge 29, Type (0, 0), BuildingBlock: KIFKEQ_clean_linker_1, # of connection points: 2
#     Edge 30, Type (0, 0), BuildingBlock: KIFKEQ_clean_linker_1, # of connection points: 2
#     Edge 31, Type (0, 0), BuildingBlock: KIFKEQ_clean_linker_1, # of connection points: 2
#     Edge 32, Type (0, 0), BuildingBlock: KIFKEQ_clean_linker_1, # of connection points: 2
#     Edge 33, Type (0, 0), BuildingBlock: KIFKEQ_clean_linker_1, # of connection points: 2
#     Edge 34, Type (0, 0), BuildingBlock: KIFKEQ_clean_linker_1, # of connection points: 2
#     Edge 35, Type (0, 0), BuildingBlock: KIFKEQ_clean_linker_1, # of connection points: 2
#     Edge 36, Type (0, 0), BuildingBlock: KIFKEQ_clean_linker_1, # of connection points: 2
#     Edge 37, Type (0, 0), BuildingBlock: KIFKEQ_clean_linker_1, # of connection points: 2
#     Edge 38, Type (0, 0), BuildingBlock: KIFKEQ_clean_linker_1, # of connection points: 2
#     Edge 39, Type (0, 0), BuildingBlock: KIFKEQ_clean_linker_1, # of connection points: 2
#     Edge 40, Type (0, 0), BuildingBlock: KIFKEQ_clean_linker_1, # of connection points: 2
#     Edge 41, Type (0, 0), BuildingBlock: KIFKEQ_clean_linker_1, # of connection points: 2
#     Edge 42, Type (0, 0), BuildingBlock: KIFKEQ_clean_linker_1, # of connection points: 2
#     Edge 43, Type (0, 0), BuildingBlock: KIFKEQ_clean_linker_1, # of connection points: 2
#     Edge 44, Type (0, 0), BuildingBlock: KIFKEQ_clean_linker_1, # of connection points: 2
#     Edge 45, Type (0, 0), BuildingBlock: KIFKEQ_clean_linker_1, # of connection points: 2
#     Edge 46, Type (0, 0), BuildingBlock: KIFKEQ_clean_linker_1, # of connection points: 2
#     Edge 47, Type (0, 0), BuildingBlock: KIFKEQ_clean_linker_1, # of connection points: 2
#     Edge 48, Type (0, 0), BuildingBlock: KIFKEQ_clean_linker_1, # of connection points: 2
#     Edge 49, Type (0, 0), BuildingBlock: KIFKEQ_clean_linker_1, # of connection points: 2
#     Edge 50, Type (0, 0), BuildingBlock: KIFKEQ_clean_linker_1, # of connection points: 2
#     Edge 51, Type (0, 0), BuildingBlock: KIFKEQ_clean_linker_1, # of connection points: 2
#     Edge 52, Type (0, 0), BuildingBlock: KIFKEQ_clean_linker_1, # of connection points: 2
#     Edge 53, Type (0, 0), BuildingBlock: KIFKEQ_clean_linker_1, # of connection points: 2
#     Edge 54, Type (0, 0), BuildingBlock: KIFKEQ_clean_linker_1, # of connection points: 2
#     Edge 55, Type (0, 0), BuildingBlock: KIFKEQ_clean_linker_1, # of connection points: 2
# Relax obj value: 0.339
# Max RMSD: 0.202
# Mean RMSD: 0.202
data_MOF--net-zfx--node1-XOMCOT_clean_sbu_1--edge1-KIFKEQ_clean_linker_1
_symmetry_space_group_name_H-M    P1
_symmetry_Int_Tables_number       1
_symmetry_cell_setting            triclinic
loop_
_symmetry_equiv_pos_as_xyz
'x, y, z'
_cell_length_a     64.316715
_cell_length_b     64.331248
_cell_length_c     24.163291
_cell_angle_alpha  90.015594
_cell_angle_beta   90.015016
_cell_angle_gamma 90.050652
loop_
_atom_site_label
_atom_site_type_symbol
_atom_site_fract_x
_atom_site_fract_y
_atom_site_fract_z
_atom_type_partial_charge
C0 C 0.54959 0.13822 0.35673 0.0
C1 C 0.56798 0.14291 0.38319 0.0
N2 N 0.56392 0.15743 0.42179 0.0
N3 N 0.53413 0.14949 0.3795 0.0
C4 C 0.54338 0.16122 0.41844 0.0
H5 H 0.54739 0.12654 0.32505 0.0
Co6 Co 0.50627 0.14604 0.36509 0.0
C7 C 0.48489 0.16011 0.46959 0.0
O8 O 0.47426 0.1427 0.47004 0.0
N9 N 0.4775 0.14207 0.3493 0.0
C10 C 0.44558 0.12866 0.34066 0.0
C11 C 0.46475 0.12624 0.36454 0.0
C12 C 0.46528 0.15409 0.31698 0.0
N13 N 0.446 0.14619 0.31071 0.0
O14 O 0.50764 0.17067 0.31803 0.0
H15 H 0.46881 0.11345 0.3913 0.0
H16 H 0.47055 0.16792 0.29588 0.0
O17 O 0.49827 0.16339 0.43106 0.0
C18 C 0.51164 0.16578 0.26773 0.0
O19 O 0.51164 0.14596 0.25451 0.0
N20 N 0.50736 0.12089 0.40469 0.0
C21 C 0.51243 0.08041 0.44432 0.0
C22 C 0.51342 0.0975 0.48053 0.0
C23 C 0.51146 0.11776 0.45955 0.0
C24 C 0.50754 0.10453 0.36881 0.0
C25 C 0.50971 0.08421 0.38772 0.0
H26 H 0.51365 0.13078 0.48713 0.0
H27 H 0.50567 0.10737 0.32495 0.0
H28 H 0.53508 0.17129 0.44663 0.0
H29 H 0.58294 0.13567 0.37621 0.0
H30 H 0.43254 0.11808 0.3438 0.0
H31 H 0.51628 0.09525 0.52429 0.0
H32 H 0.50904 0.07155 0.3582 0.0
C33 C 0.129 0.29851 0.64277 0.0
C34 C 0.12701 0.31469 0.67982 0.0
N35 N 0.11266 0.30922 0.71772 0.0
N36 N 0.11619 0.28294 0.65808 0.0
C37 C 0.10626 0.29004 0.70323 0.0
H38 H 0.13985 0.29767 0.60866 0.0
Co39 Co 0.11571 0.25657 0.62855 0.0
C40 C 0.10526 0.22832 0.72236 0.0
O41 O 0.12068 0.21669 0.70455 0.0
N42 N 0.11492 0.22993 0.59683 0.0
C43 C 0.10151 0.20022 0.56622 0.0
C44 C 0.09854 0.21684 0.60063 0.0
C45 C 0.12725 0.22121 0.55792 0.0
N46 N 0.11953 0.20306 0.53903 0.0
O47 O 0.08959 0.26302 0.5913 0.0
H48 H 0.08456 0.21986 0.62416 0.0
H49 H 0.14063 0.22868 0.53995 0.0
O50 O 0.10102 0.24525 0.69632 0.0
C51 C 0.09236 0.26603 0.5394 0.0
O52 O 0.1112 0.26399 0.51914 0.0
N53 N 0.14243 0.25203 0.65988 0.0
C54 C 0.18401 0.25095 0.69494 0.0
C55 C 0.1677 0.25185 0.73353 0.0
C56 C 0.14706 0.25286 0.71515 0.0
C57 C 0.15818 0.25272 0.62217 0.0
C58 C 0.17896 0.2516 0.63856 0.0
H59 H 0.13494 0.25504 0.74549 0.0
H60 H 0.1547 0.2554 0.5791 0.0
H61 H 0.09551 0.28084 0.7274 0.0
H62 H 0.13591 0.32898 0.68003 0.0
H63 H 0.09028 0.18808 0.5577 0.0
H64 H 0.17086 0.25209 0.77755 0.0
H65 H 0.19102 0.25221 0.6073 0.0
C66 C 0.97156 0.87903 0.86499 0.0
C67 C 0.95229 0.87626 0.88879 0.0
N68 N 0.95346 0.85983 0.92314 0.0
N69 N 0.98479 0.86474 0.88568 0.0
C70 C 0.97321 0.85301 0.91991 0.0
H71 H 0.97608 0.8916 0.83779 0.0
Co72 Co 0.01333 0.86457 0.87674 0.0
C73 C 0.02609 0.85177 0.99319 0.0
O74 O 0.033 0.8705 1.004 0.0
N75 N 0.04262 0.86427 0.86719 0.0
C76 C 0.0767 0.87071 0.87407 0.0
C77 C 0.05748 0.87438 0.8967 0.0
C78 C 0.05349 0.85418 0.82763 0.0
N79 N 0.07406 0.85786 0.83103 0.0
O80 O 0.01013 0.83923 0.83293 0.0
H81 H 0.05472 0.88471 0.93104 0.0
H82 H 0.04658 0.84494 0.79518 0.0
O83 O 0.01771 0.84775 0.94604 0.0
C84 C 1.00571 0.84398 0.78277 0.0
O85 O 0.00634 0.86372 0.76882 0.0
N86 N 0.01455 0.89085 0.91276 0.0
C87 C 0.01259 0.9323 0.94738 0.0
C88 C 1.00248 0.91664 0.97751 0.0
C89 C 1.00349 0.89599 0.95922 0.0
C90 C 0.02324 0.90621 0.8813 0.0
C91 C 0.02306 0.92688 0.89876 0.0
H92 H 0.99509 0.88417 0.98184 0.0
H93 H 0.03021 0.90243 0.84184 0.0
H94 H 0.97951 0.84088 0.946 0.0
H95 H 0.9389 0.88629 0.88408 0.0
H96 H 0.09138 0.87734 0.8872 0.0
H97 H 0.99378 0.92036 0.01457 0.0
H98 H 0.0304 0.93866 0.87334 0.0
C99 C 0.39003 0.7122 0.13856 0.0
C100 C 0.39207 0.69455 0.17023 0.0
N101 N 0.40809 0.69746 0.20523 0.0
N102 N 0.40442 0.72623 0.15461 0.0
C103 C 0.41549 0.71663 0.19438 0.0
H104 H 0.37786 0.71527 0.10877 0.0
Co105 Co 0.40465 0.75385 0.13324 0.0
C106 C 0.41875 0.77051 0.24669 0.0
O107 O 0.39999 0.77666 0.26004 0.0
N108 N 0.40482 0.78159 0.10998 0.0
C109 C 0.4035 0.81604 0.10263 0.0
C110 C 0.40454 0.7996 0.13881 0.0
C111 C 0.40375 0.78754 0.05659 0.0
N112 N 0.40288 0.80834 0.05093 0.0
O113 O 0.42961 0.74844 0.08883 0.0
H114 H 0.40466 0.80106 0.1831 0.0
H115 H 0.4036 0.77682 0.02225 0.0
O116 O 0.42222 0.76199 0.19936 0.0
C117 C 0.42455 0.74064 0.04184 0.0
O118 O 0.40471 0.73736 0.03207 0.0
N119 N 0.3786 0.75783 0.17007 0.0
C120 C 0.33704 0.75871 0.20572 0.0
C121 C 0.35249 0.7493 0.23816 0.0
C122 C 0.37305 0.74858 0.21899 0.0
C123 C 0.36353 0.76659 0.13774 0.0
C124 C 0.34287 0.7675 0.15506 0.0
H125 H 0.38446 0.7403 0.2433 0.0
H126 H 0.36717 0.77216 0.09678 0.0
H127 H 0.42751 0.72414 0.21854 0.0
H128 H 0.38189 0.68114 0.16985 0.0
H129 H 0.40303 0.83235 0.11358 0.0
H130 H 0.34858 0.74182 0.27694 0.0
H131 H 0.33145 0.77471 0.12828 0.0
C132 C 0.55844 0.85509 0.64361 0.0
C133 C 0.57438 0.85379 0.6055 0.0
N134 N 0.56599 0.85521 0.55456 0.0
N135 N 0.54024 0.85699 0.61634 0.0
C136 C 0.54535 0.85679 0.5624 0.0
H137 H 0.56011 0.85565 0.68812 0.0
Co138 Co 0.51437 0.86358 0.6438 0.0
C139 C 0.48337 0.84676 0.56037 0.0
O140 O 0.46964 0.86071 0.57571 0.0
N141 N 0.48811 0.87087 0.67249 0.0
C142 C 0.46034 0.88872 0.69998 0.0
C143 C 0.4791 0.88987 0.67341 0.0
C144 C 0.4744 0.8585 0.69915 0.0
N145 N 0.45743 0.86899 0.71665 0.0
O146 O 0.51601 0.83952 0.69319 0.0
H147 H 0.48565 0.90401 0.65695 0.0
H148 H 0.47721 0.84223 0.70742 0.0
O149 O 0.50129 0.84633 0.58382 0.0
C150 C 0.5205 0.84461 0.74306 0.0
O151 O 0.5217 0.86451 0.75505 0.0
N152 N 0.51491 0.88814 0.60102 0.0
C153 C 0.51696 0.92907 0.56215 0.0
C154 C 0.50678 0.91352 0.53134 0.0
C155 C 0.50611 0.89303 0.55121 0.0
C156 C 0.52599 0.90271 0.62943 0.0
C157 C 0.52722 0.92317 0.6109 0.0
H158 H 0.49831 0.88149 0.52666 0.0
H159 H 0.5333 0.89849 0.66816 0.0
H160 H 0.53414 0.85855 0.52936 0.0
H161 H 0.59084 0.85289 0.61453 0.0
H162 H 0.44997 0.90164 0.70764 0.0
H163 H 0.49884 0.91721 0.49308 0.0
H164 H 0.53592 0.93434 0.63521 0.0
C165 C 0.3883 0.29703 0.88318 0.0
C166 C 0.39084 0.31555 0.8555 0.0
N167 N 0.40733 0.31358 0.82163 0.0
N168 N 0.40285 0.28344 0.86566 0.0
C169 C 0.41447 0.2941 0.82907 0.0
H170 H 0.37589 0.29323 0.91164 0.0
Co171 Co 0.40363 0.25557 0.88392 0.0
C172 C 0.41676 0.23993 0.76951 0.0
O173 O 0.39806 0.23264 0.75981 0.0
N174 N 0.40439 0.2276 0.9049 0.0
C175 C 0.40507 0.19314 0.91287 0.0
C176 C 0.40699 0.20959 0.87687 0.0
C177 C 0.40109 0.22162 0.95757 0.0
N178 N 0.40117 0.20082 0.96358 0.0
O179 O 0.42873 0.26089 0.92805 0.0
H180 H 0.41003 0.20807 0.83333 0.0
H181 H 0.39853 0.23242 0.99105 0.0
O182 O 0.42089 0.24873 0.81615 0.0
C183 C 0.4239 0.26832 0.97563 0.0
O184 O 0.40409 0.2712 0.98653 0.0
N185 N 0.37745 0.25164 0.84694 0.0
C186 C 0.33595 0.25082 0.80992 0.0
C187 C 0.35137 0.26137 0.77982 0.0
C188 C 0.37189 0.26187 0.79941 0.0
C189 C 0.36246 0.24163 0.8769 0.0
C190 C 0.34189 0.24066 0.8587 0.0
H191 H 0.38328 0.27076 0.77657 0.0
H192 H 0.36596 0.23507 0.91679 0.0
H193 H 0.42693 0.28728 0.80509 0.0
H194 H 0.38081 0.32902 0.85804 0.0
H195 H 0.40636 0.17683 0.9024 0.0
H196 H 0.3475 0.26988 0.74255 0.0
H197 H 0.33064 0.23234 0.88361 0.0
C198 C 0.96807 0.15627 0.14614 0.0
C199 C 0.9524 0.15788 0.10733 0.0
N200 N 0.96121 0.15774 0.05676 0.0
N201 N 0.98652 0.15541 0.11975 0.0
C202 C 0.98183 0.15659 0.06561 0.0
H203 H 0.96607 0.15468 0.19037 0.0
Co204 Co 0.01213 0.14863 0.14857 0.0
C205 C 0.04426 0.16548 0.06892 0.0
O206 O 0.05726 0.15088 0.08439 0.0
N207 N 0.03813 0.14116 0.17886 0.0
C208 C 0.06636 0.12363 0.20432 0.0
C209 C 0.04712 0.12216 0.18045 0.0
C210 C 0.05225 0.15381 0.20303 0.0
N211 N 0.06968 0.14358 0.21867 0.0
O212 O 0.01017 0.1725 0.19856 0.0
H213 H 0.04049 0.10791 0.16498 0.0
H214 H 0.04966 0.17024 0.20899 0.0
O215 O 0.02592 0.16607 0.08993 0.0
C216 C 1.00552 0.16738 0.24829 0.0
O217 O 1.00441 0.14748 0.26028 0.0
N218 N 0.01189 0.12436 0.10481 0.0
C219 C 0.00857 0.0843 0.06007 0.0
C220 C 0.01779 0.10058 0.02974 0.0
C221 C 0.01928 0.12056 0.05279 0.0
C222 C 1.00179 0.10914 0.1333 0.0
C223 C 1.0003 0.08902 0.11237 0.0
H224 H 0.02613 0.13276 0.02836 0.0
H225 H 0.99565 0.11252 0.174 0.0
H226 H 0.99331 0.15576 0.03302 0.0
H227 H 0.93585 0.15799 0.1155 0.0
H228 H 0.07693 0.11079 0.21066 0.0
H229 H 0.02377 0.09801 0.98844 0.0
H230 H 0.99328 0.07719 0.13813 0.0
C231 C 0.12907 0.71589 0.3947 0.0
C232 C 0.12817 0.69846 0.3616 0.0
N233 N 0.11622 0.70303 0.31765 0.0
N234 N 0.11768 0.73119 0.37143 0.0
C235 C 0.10972 0.72269 0.32511 0.0
H236 H 0.13865 0.7178 0.43112 0.0
Co237 Co 0.11782 0.75879 0.39344 0.0
C238 C 0.10488 0.77799 0.28353 0.0
O239 O 0.1229 0.78749 0.2792 0.0
N240 N 0.1181 0.78655 0.41802 0.0
C241 C 0.11487 0.82053 0.43309 0.0
C242 C 0.11195 0.80477 0.39552 0.0
C243 C 0.12423 0.79175 0.46957 0.0
N244 N 0.12258 0.81229 0.48 0.0
O245 O 0.09264 0.75378 0.43691 0.0
H246 H 0.10478 0.80685 0.35575 0.0
H247 H 0.12924 0.7804 0.49953 0.0
O248 O 0.10083 0.76704 0.32674 0.0
C249 C 0.09729 0.74687 0.4851 0.0
O250 O 0.11699 0.74394 0.49701 0.0
N251 N 0.14395 0.76231 0.35692 0.0
C252 C 0.18529 0.76252 0.31904 0.0
C253 C 0.16905 0.7555 0.28495 0.0
C254 C 0.1486 0.75513 0.305 0.0
C255 C 0.15974 0.76847 0.39098 0.0
C256 C 0.18031 0.76903 0.37277 0.0
H257 H 0.13657 0.74897 0.27855 0.0
H258 H 0.15671 0.77201 0.43376 0.0
H259 H 0.10071 0.73114 0.29479 0.0
H260 H 0.13692 0.68423 0.36695 0.0
H261 H 0.11078 0.83664 0.42663 0.0
H262 H 0.17207 0.75012 0.24326 0.0
H263 H 0.19233 0.77367 0.40165 0.0
C264 C 0.91462 0.80753 0.37885 0.0
C265 C 0.91619 0.82252 0.33826 0.0
N266 N 0.91441 0.81306 0.28871 0.0
N267 N 0.91214 0.78881 0.3546 0.0
C268 C 0.91227 0.79267 0.29989 0.0
H269 H 0.91421 0.81023 0.423 0.0
Co270 Co 0.90483 0.76399 0.38716 0.0
C271 C 0.9228 0.73002 0.31327 0.0
O272 O 0.91037 0.71611 0.33532 0.0
N273 N 0.89678 0.73904 0.42138 0.0
C274 C 0.87808 0.71284 0.45497 0.0
C275 C 0.87738 0.73113 0.42604 0.0
C276 C 0.90889 0.72545 0.44913 0.0
N277 N 0.89795 0.70924 0.46964 0.0
O278 O 0.92873 0.76649 0.43717 0.0
H279 H 0.86335 0.73818 0.41035 0.0
H280 H 0.92542 0.72763 0.45464 0.0
O281 O 0.92206 0.74894 0.33026 0.0
C282 C 0.92366 0.77217 0.48618 0.0
O283 O 0.9038 0.77451 0.49728 0.0
N284 N 0.88054 0.76346 0.34285 0.0
C285 C 0.84019 0.76391 0.30002 0.0
C286 C 0.85538 0.75076 0.27748 0.0
C287 C 0.87561 0.75097 0.29896 0.0
C288 C 0.86617 0.77701 0.36339 0.0
C289 C 0.84596 0.77759 0.34241 0.0
H290 H 0.8868 0.74064 0.28098 0.0
H291 H 0.87025 0.78683 0.39809 0.0
H292 H 0.91002 0.78075 0.26885 0.0
H293 H 0.91751 0.83911 0.34476 0.0
H294 H 0.86483 0.7032 0.46496 0.0
H295 H 0.85156 0.7402 0.24407 0.0
H296 H 0.83468 0.78794 0.36106 0.0
C297 C 0.62515 0.2085 0.86844 0.0
C298 C 0.62339 0.19366 0.82757 0.0
N299 N 0.61114 0.20143 0.78752 0.0
N300 N 0.61403 0.22542 0.85384 0.0
C301 C 0.60522 0.22036 0.80512 0.0
H302 H 0.63544 0.2078 0.90379 0.0
Co303 Co 0.61656 0.25142 0.88613 0.0
C304 C 0.60408 0.27607 0.78148 0.0
O305 O 0.62306 0.28242 0.77136 0.0
N306 N 0.61943 0.27745 0.92036 0.0
C307 C 0.62736 0.31018 0.9415 0.0
C308 C 0.62378 0.2964 0.8992 0.0
C309 C 0.62054 0.28022 0.97561 0.0
N310 N 0.62542 0.29991 0.9897 0.0
O311 O 0.59089 0.24637 0.92806 0.0
H312 H 0.62527 0.30017 0.85619 0.0
H313 H 0.61815 0.2679 1.00511 0.0
O314 O 0.60012 0.26467 0.82398 0.0
C315 C 0.59454 0.23581 0.97199 0.0
O316 O 0.61375 0.22975 0.98114 0.0
N317 N 0.64295 0.25467 0.85115 0.0
C318 C 0.68452 0.25442 0.81583 0.0
C319 C 0.66833 0.24975 0.77889 0.0
C320 C 0.64771 0.24947 0.79769 0.0
C321 C 0.65867 0.25859 0.88773 0.0
C322 C 0.6794 0.25889 0.87088 0.0
H323 H 0.63565 0.24492 0.76914 0.0
H324 H 0.65529 0.26086 0.93107 0.0
H325 H 0.59633 0.23102 0.77997 0.0
H326 H 0.63206 0.17928 0.82485 0.0
H327 H 0.63154 0.32638 0.93681 0.0
H328 H 0.67161 0.24563 0.73632 0.0
H329 H 0.69135 0.26238 0.90108 0.0
C330 C 0.63327 0.79941 0.12812 0.0
C331 C 0.63079 0.81802 0.15541 0.0
N332 N 0.61454 0.81606 0.19005 0.0
N333 N 0.61895 0.78577 0.1468 0.0
C334 C 0.60748 0.7965 0.18353 0.0
H335 H 0.64563 0.79554 0.09959 0.0
Co336 Co 0.61869 0.75763 0.13127 0.0
C337 C 0.60561 0.74386 0.24827 0.0
O338 O 0.62462 0.73847 0.26153 0.0
N339 N 0.61851 0.72924 0.11378 0.0
C340 C 0.62135 0.69474 0.11336 0.0
C341 C 0.6206 0.7122 0.14607 0.0
C342 C 0.61817 0.72168 0.0618 0.0
N343 N 0.61995 0.7008 0.06026 0.0
O344 O 0.59331 0.76185 0.08797 0.0
H345 H 0.62222 0.71216 0.1903 0.0
H346 H 0.61677 0.73133 0.02552 0.0
O347 O 0.60171 0.75126 0.19983 0.0
C348 C 0.59781 0.76876 0.03966 0.0
O349 O 0.61755 0.77123 0.02724 0.0
N350 N 0.64504 0.75489 0.16707 0.0
C351 C 0.68693 0.75553 0.20075 0.0
C352 C 0.67146 0.7655 0.23211 0.0
C353 C 0.65079 0.76549 0.21379 0.0
C354 C 0.66 0.74563 0.13547 0.0
C355 C 0.68083 0.74557 0.15168 0.0
H356 H 0.6394 0.7742 0.23712 0.0
H357 H 0.65608 0.73907 0.09568 0.0
H358 H 0.59537 0.78965 0.20869 0.0
H359 H 0.64084 0.83149 0.15254 0.0
H360 H 0.62323 0.6789 0.12756 0.0
H361 H 0.67522 0.77354 0.27016 0.0
H362 H 0.69214 0.73851 0.12438 0.0
C363 C 0.89055 0.21174 0.63087 0.0
C364 C 0.89369 0.19327 0.6584 0.0
N365 N 0.91022 0.19569 0.69196 0.0
N366 N 0.90472 0.22576 0.64843 0.0
C367 C 0.91677 0.21538 0.68454 0.0
H368 H 0.87787 0.21524 0.60298 0.0
Co369 Co 0.90456 0.25389 0.6326 0.0
C370 C 0.9173 0.26772 0.74969 0.0
O371 O 0.89818 0.27271 0.76289 0.0
N372 N 0.90446 0.28225 0.61493 0.0
C373 C 0.90121 0.31671 0.61471 0.0
C374 C 0.90226 0.29925 0.64733 0.0
C375 C 0.90462 0.28984 0.56297 0.0
N376 N 0.90257 0.3107 0.56154 0.0
O377 O 0.93004 0.24993 0.58953 0.0
H378 H 0.90073 0.29925 0.6916 0.0
H379 H 0.90603 0.28019 0.52666 0.0
O380 O 0.92139 0.26054 0.70115 0.0
C381 C 0.92578 0.2429 0.5412 0.0
O382 O 0.9061 0.24016 0.52833 0.0
N383 N 0.87812 0.25641 0.66848 0.0
C384 C 0.8365 0.25627 0.7041 0.0
C385 C 0.85189 0.24552 0.73374 0.0
C386 C 0.87246 0.24543 0.71467 0.0
C387 C 0.86311 0.26626 0.63823 0.0
C388 C 0.84242 0.26668 0.65566 0.0
H389 H 0.88386 0.23646 0.73721 0.0
H390 H 0.86685 0.27318 0.59878 0.0
H391 H 0.92901 0.22254 0.70864 0.0
H392 H 0.88393 0.17957 0.65639 0.0
H393 H 0.89912 0.3325 0.62906 0.0
H394 H 0.84812 0.23709 0.77118 0.0
H395 H 0.83103 0.27442 0.62993 0.0
C396 C 0.05586 0.6394 0.88387 0.0
C397 C 0.07286 0.64087 0.91839 0.0
N398 N 0.06751 0.65294 0.9615 0.0
N399 N 0.04005 0.65056 0.9054 0.0
C400 C 0.04781 0.65899 0.95202 0.0
H401 H 0.05459 0.62959 0.84768 0.0
Co402 Co 0.01277 0.64963 0.88106 0.0
C403 C 0.99349 0.66294 0.99267 0.0
O404 O 0.98741 0.64414 1.00588 0.0
N405 N 0.98543 0.64854 0.85499 0.0
C406 C 0.95128 0.64444 0.84495 0.0
C407 C 0.96735 0.64533 0.88223 0.0
C408 C 0.97993 0.6492 0.8012 0.0
N409 N 0.9593 0.64678 0.794 0.0
O410 O 0.01753 0.67528 0.83953 0.0
H411 H 0.96567 0.64311 0.92601 0.0
H412 H 0.99081 0.65149 0.76774 0.0
O413 O 1.00291 0.66639 0.94663 0.0
C414 C 0.02659 0.6725 0.79292 0.0
O415 O 0.03134 0.65349 0.77774 0.0
N416 N 0.00952 0.62326 0.91602 0.0
C417 C 0.00905 0.58167 0.95077 0.0
C418 C 0.01649 0.5974 0.98576 0.0
C419 C 0.01708 0.618 0.9671 0.0
C420 C 1.00283 0.60795 0.88108 0.0
C421 C 1.0022 0.58719 0.89778 0.0
H422 H 0.02374 0.62965 0.99391 0.0
H423 H 0.99855 0.61164 0.839 0.0
H424 H 0.03879 0.66805 0.98107 0.0
H425 H 0.08733 0.6324 0.91455 0.0
H426 H 0.93502 0.642 0.8545 0.0
H427 H 0.02248 0.59373 0.0265 0.0
H428 H 0.9966 0.57553 0.86907 0.0
C429 C 0.46481 0.36008 0.37328 0.0
C430 C 0.44885 0.35934 0.4114 0.0
N431 N 0.45739 0.35829 0.4622 0.0
N432 N 0.48313 0.35921 0.40034 0.0
C433 C 0.47807 0.3579 0.4542 0.0
H434 H 0.46321 0.36202 0.32903 0.0
Co435 Co 0.50925 0.3634 0.37156 0.0
C436 C 0.53936 0.34921 0.45883 0.0
O437 O 0.55138 0.3648 0.44421 0.0
N438 N 0.53566 0.36791 0.34106 0.0
C439 C 0.56394 0.38143 0.30254 0.0
C440 C 0.54473 0.38575 0.32414 0.0
C441 C 0.54963 0.35298 0.32862 0.0
N442 N 0.56706 0.36077 0.30541 0.0
O443 O 0.50575 0.33862 0.32508 0.0
H444 H 0.53786 0.401 0.32528 0.0
H445 H 0.54686 0.33665 0.33629 0.0
O446 O 0.52193 0.34659 0.43361 0.0
C447 C 0.50206 0.34333 0.27445 0.0
O448 O 0.50243 0.36309 0.26065 0.0
N449 N 0.51068 0.38882 0.4113 0.0
C450 C 0.51004 0.4297 0.45059 0.0
C451 C 0.51522 0.4132 0.48593 0.0
C452 C 0.51527 0.39277 0.46561 0.0
C453 C 0.50378 0.40453 0.37822 0.0
C454 C 0.50386 0.4251 0.39642 0.0
H455 H 0.51863 0.38039 0.49416 0.0
H456 H 0.4989 0.40107 0.33636 0.0
H457 H 0.48936 0.35722 0.48729 0.0
H458 H 0.43237 0.36039 0.40268 0.0
H459 H 0.57423 0.3926 0.28328 0.0
H460 H 0.51948 0.41607 0.52863 0.0
H461 H 0.49907 0.43732 0.36833 0.0
C462 C 0.05142 0.37643 0.14595 0.0
C463 C 0.06982 0.37275 0.11845 0.0
N464 N 0.06696 0.35628 0.0849 0.0
N465 N 0.03704 0.36262 0.12857 0.0
C466 C 0.0471 0.35027 0.09254 0.0
H467 H 0.04828 0.38919 0.17386 0.0
Co468 Co 0.00893 0.36326 0.14462 0.0
C469 C 0.99456 0.35 0.02836 0.0
O470 O 0.98914 0.36899 0.015 0.0
N471 N 0.98058 0.36387 0.16274 0.0
C472 C 0.94609 0.36694 0.16434 0.0
C473 C 0.96337 0.36579 0.13099 0.0
C474 C 0.9733 0.36407 0.215 0.0
N475 N 0.95245 0.36597 0.21728 0.0
O476 O 0.01255 0.338 0.18826 0.0
H477 H 0.96306 0.36684 0.08665 0.0
H478 H 0.98314 0.36283 0.25097 0.0
O479 O 1.00204 0.34617 0.07672 0.0
C480 C 0.01947 0.34191 0.23689 0.0
O481 O 0.0226 0.36138 0.25102 0.0
N482 N 0.00672 0.38942 0.10771 0.0
C483 C 0.00694 0.43064 0.06927 0.0
C484 C 0.01727 0.41485 0.04001 0.0
C485 C 0.01738 0.3945 0.06056 0.0
C486 C 0.99735 0.40479 0.13766 0.0
C487 C 0.997 0.4253 0.11893 0.0
H488 H 0.02603 0.38278 0.03828 0.0
H489 H 0.99071 0.40144 0.17771 0.0
H490 H 0.03958 0.33819 0.06866 0.0
H491 H 0.08379 0.38212 0.12057 0.0
H492 H 0.93017 0.36863 0.15062 0.0
H493 H 0.02533 0.41814 1.00167 0.0
H494 H 0.98965 0.437 0.14448 0.0
C495 C 0.46864 0.63602 0.6421 0.0
C496 C 0.45088 0.6373 0.61033 0.0
N497 N 0.45404 0.65183 0.57123 0.0
N498 N 0.48297 0.64936 0.62202 0.0
C499 C 0.47341 0.65908 0.57969 0.0
H500 H 0.47165 0.62468 0.67414 0.0
Co501 Co 0.51102 0.64936 0.64068 0.0
C502 C 0.52597 0.66286 0.52526 0.0
O503 O 0.53109 0.64382 0.51169 0.0
N504 N 0.53922 0.64945 0.66078 0.0
C505 C 0.5737 0.6464 0.66299 0.0
C506 C 0.55649 0.6473 0.6294 0.0
C507 C 0.54641 0.64973 0.71317 0.0
N508 N 0.56727 0.64782 0.71579 0.0
O509 O 0.50628 0.67445 0.68503 0.0
H510 H 0.55683 0.64566 0.58516 0.0
H511 H 0.53652 0.65116 0.74896 0.0
O512 O 0.51837 0.66669 0.5735 0.0
C513 C 0.4993 0.66939 0.7329 0.0
O514 O 0.49687 0.64951 0.74371 0.0
N515 N 0.5143 0.62302 0.60413 0.0
C516 C 0.51428 0.58123 0.56906 0.0
C517 C 0.50372 0.59661 0.53888 0.0
C518 C 0.50375 0.61725 0.55734 0.0
C519 C 0.52414 0.60807 0.63462 0.0
C520 C 0.52481 0.58739 0.61722 0.0
H521 H 0.49511 0.62857 0.53393 0.0
H522 H 0.53098 0.61185 0.67416 0.0
H523 H 0.48116 0.66953 0.55135 0.0
H524 H 0.43761 0.62697 0.61221 0.0
H525 H 0.58962 0.6444 0.64954 0.0
H526 H 0.49486 0.59272 0.50222 0.0
H527 H 0.53324 0.57628 0.64224 0.0
H528 H 0.49287 0.0625 0.53287 0.0
H529 H 0.5361 0.04914 0.40106 0.0
H530 H 0.4937 0.02606 0.56101 0.0
H531 H 0.53745 0.01288 0.42984 0.0
H532 H 0.5186 0.94547 0.45684 0.0
H533 H 0.51742 0.98194 0.4299 0.0
H534 H 0.5141 0.99979 0.60211 0.0
H535 H 0.51391 0.96343 0.62873 0.0
C536 C 0.50282 0.05182 0.51051 0.0
C537 C 0.51432 0.05866 0.46462 0.0
C538 C 0.50332 0.0309 0.5266 0.0
C539 C 0.51554 0.01636 0.4975 0.0
C540 C 0.52748 0.02343 0.45248 0.0
C541 C 0.52681 0.04427 0.43615 0.0
C542 C 0.51735 0.95715 0.48894 0.0
C543 C 0.51646 0.95138 0.54502 0.0
C544 C 0.51697 0.97814 0.47353 0.0
C545 C 0.51578 0.99395 0.51379 0.0
C546 C 0.51481 0.98815 0.56981 0.0
C547 C 0.51504 0.9672 0.58516 0.0
H548 H 0.30142 0.25421 0.87581 0.0
H549 H 0.31983 0.24842 0.70455 0.0
H550 H 0.2651 0.25356 0.84854 0.0
H551 H 0.28332 0.24888 0.67689 0.0
H552 H 0.21588 0.22791 0.65174 0.0
H553 H 0.25241 0.22805 0.67884 0.0
H554 H 0.23899 0.27384 0.80471 0.0
H555 H 0.20244 0.27342 0.77807 0.0
C556 C 0.29775 0.25274 0.83224 0.0
C557 C 0.31367 0.25115 0.79246 0.0
C558 C 0.27684 0.25268 0.81651 0.0
C559 C 0.27116 0.25117 0.76045 0.0
C560 C 0.28706 0.24979 0.72052 0.0
C561 C 0.30804 0.24978 0.73632 0.0
C562 C 0.22075 0.23803 0.68514 0.0
C563 C 0.20619 0.2506 0.71284 0.0
C564 C 0.24174 0.23819 0.70055 0.0
C565 C 0.24876 0.25099 0.74394 0.0
C566 C 0.23415 0.26352 0.77172 0.0
C567 C 0.21315 0.26328 0.75648 0.0
H568 H 0.97876 0.0542 0.07779 0.0
H569 H 0.0372 0.06442 0.99368 0.0
H570 H 0.97997 0.01784 0.05294 0.0
H571 H 0.03731 0.02844 0.96378 0.0
H572 H 0.04491 0.95851 0.96761 0.0
H573 H 0.04348 0.99511 0.99328 0.0
H574 H 0.97625 0.99276 0.98672 0.0
H575 H 0.97797 0.9558 0.9648 0.0
C576 C 0.99186 0.0488 0.05366 0.0
C577 C 0.00807 0.06243 0.03875 0.0
C578 C 0.99236 0.02784 0.03839 0.0
C579 C 0.00882 0.01986 1.00646 0.0
C580 C 0.02459 0.0337 0.98951 0.0
C581 C 0.02432 0.0546 1.00581 0.0
C582 C 0.02987 0.96589 0.97221 0.0
C583 C 0.01156 0.95437 0.96469 0.0
C584 C 0.02899 0.98697 0.98629 0.0
C585 C 0.00973 0.99722 0.99189 0.0
C586 C 0.9914 0.98553 0.98401 0.0
C587 C 0.99232 0.96432 0.97119 0.0
H588 H 0.30306 0.74971 0.14215 0.0
H589 H 0.32074 0.76735 0.30805 0.0
H590 H 0.2665 0.75076 0.16867 0.0
H591 H 0.28405 0.76806 0.33495 0.0
H592 H 0.21607 0.79091 0.34134 0.0
H593 H 0.25264 0.78936 0.31522 0.0
H594 H 0.24138 0.73191 0.22777 0.0
H595 H 0.20485 0.7332 0.25466 0.0
C596 C 0.29913 0.75384 0.18432 0.0
C597 C 0.31481 0.7586 0.22292 0.0
C598 C 0.27817 0.75425 0.19964 0.0
C599 C 0.27233 0.75955 0.25387 0.0
C600 C 0.28802 0.76413 0.29267 0.0
C601 C 0.30903 0.76355 0.27744 0.0
C602 C 0.22138 0.77784 0.31689 0.0
C603 C 0.20742 0.76215 0.30027 0.0
C604 C 0.24237 0.77696 0.30197 0.0
C605 C 0.24996 0.76047 0.26965 0.0
C606 C 0.23599 0.74495 0.25224 0.0
C607 C 0.215 0.74575 0.26747 0.0
H608 H 0.81443 0.79555 0.26864 0.0
H609 H 0.81619 0.72917 0.29268 0.0
H610 H 0.77771 0.79338 0.24396 0.0
H611 H 0.77927 0.72692 0.27118 0.0
H612 H 0.71717 0.72592 0.18409 0.0
H613 H 0.75401 0.72829 0.20374 0.0
H614 H 0.74452 0.78857 0.27873 0.0
H615 H 0.70799 0.78705 0.2543 0.0
C616 C 0.80687 0.78049 0.26877 0.0
C617 C 0.81815 0.76252 0.28217 0.0
C618 C 0.78574 0.77922 0.25518 0.0
C619 C 0.77525 0.75997 0.25577 0.0
C620 C 0.78672 0.74198 0.26908 0.0
C621 C 0.80792 0.74324 0.28161 0.0
C622 C 0.72291 0.73987 0.20398 0.0
C623 C 0.70938 0.75635 0.21707 0.0
C624 C 0.74414 0.74108 0.21618 0.0
C625 C 0.7525 0.75865 0.2429 0.0
C626 C 0.73889 0.77493 0.25718 0.0
C627 C 0.71771 0.77388 0.24409 0.0
H628 H 0.81447 0.22379 0.74923 0.0
H629 H 0.80791 0.28787 0.69851 0.0
H630 H 0.77785 0.22296 0.77513 0.0
H631 H 0.77122 0.28687 0.72364 0.0
H632 H 0.70162 0.27027 0.72077 0.0
H633 H 0.73827 0.27039 0.69354 0.0
H634 H 0.75414 0.23801 0.84425 0.0
H635 H 0.71759 0.23749 0.87078 0.0
C636 C 0.80532 0.23778 0.74414 0.0
C637 C 0.81425 0.25591 0.72175 0.0
C638 C 0.78427 0.23727 0.7588 0.0
C639 C 0.77156 0.25482 0.75122 0.0
C640 C 0.78047 0.27297 0.72913 0.0
C641 C 0.80154 0.27352 0.71475 0.0
C642 C 0.71293 0.26301 0.74777 0.0
C643 C 0.70669 0.25397 0.79806 0.0
C644 C 0.73394 0.26326 0.73247 0.0
C645 C 0.74916 0.25428 0.76684 0.0
C646 C 0.74284 0.24493 0.81664 0.0
C647 C 0.72189 0.24482 0.8321 0.0
H648 H 0.99605 0.56537 0.04951 0.0
H649 H 0.0223 0.54796 0.89174 0.0
H650 H 0.99564 0.52879 0.07748 0.0
H651 H 0.02173 0.51145 0.91946 0.0
H652 H 0.03867 0.45181 0.01757 0.0
H653 H 0.03926 0.48812 0.98868 0.0
H654 H 0.9767 0.49607 0.04958 0.0
H655 H 0.97576 0.45964 0.07705 0.0
C656 C 1.0018 0.55374 0.02095 0.0
C657 C 0.00913 0.55953 0.96837 0.0
C658 C 1.00141 0.5328 0.03675 0.0
C659 C 0.0086 0.51724 1.00059 0.0
C660 C 0.0162 0.52308 0.94834 0.0
C661 C 0.01636 0.54397 0.93231 0.0
C662 C 0.02488 0.46114 0.02402 0.0
C663 C 0.00716 0.45267 0.0498 0.0
C664 C 0.02529 0.48201 1.00768 0.0
C665 C 0.00808 0.49499 0.01717 0.0
C666 C 0.99033 0.48655 0.04253 0.0
C667 C 0.98983 0.46565 0.05835 0.0
H668 H 0.49335 0.44679 0.54438 0.0
H669 H 0.52909 0.46212 0.39901 0.0
H670 H 0.49383 0.48323 0.57256 0.0
H671 H 0.53057 0.49832 0.42806 0.0
H672 H 0.51325 0.56499 0.46353 0.0
H673 H 0.51146 0.52874 0.43603 0.0
H674 H 0.51379 0.51025 0.60791 0.0
H675 H 0.51373 0.54644 0.63548 0.0
C676 C 0.50156 0.45796 0.5189 0.0
C677 C 0.51109 0.45166 0.46943 0.0
C678 C 0.50194 0.47888 0.53508 0.0
C679 C 0.51219 0.49395 0.50261 0.0
C680 C 0.52207 0.48742 0.4536 0.0
C681 C 0.52137 0.4666 0.43704 0.0
C682 C 0.51304 0.55325 0.4956 0.0
C683 C 0.5137 0.55888 0.55186 0.0
C684 C 0.51236 0.53232 0.47974 0.0
C685 C 0.5126 0.51634 0.5196 0.0
C686 C 0.51331 0.52198 0.57583 0.0
C687 C 0.51367 0.54289 0.5917 0.0
H688 H 0.43663 0.18562 0.28357 0.0
H689 H 0.42191 0.12164 0.24662 0.0
H690 H 0.41758 0.19667 0.20146 0.0
H691 H 0.40267 0.13266 0.16455 0.0
H692 H 0.41753 0.16317 0.9879 0.0
H693 H 0.42026 0.14775 0.07939 0.0
H694 H 0.38369 0.19784 0.14763 0.0
H695 H 0.38051 0.21309 0.05567 0.0
C696 C 0.42879 0.17402 0.25864 0.0
C697 C 0.43095 0.15283 0.27073 0.0
C698 C 0.41772 0.18031 0.21204 0.0
C699 C 0.40882 0.16545 0.17656 0.0
C700 C 0.4095 0.14436 0.19121 0.0
C701 C 0.4204 0.1381 0.23823 0.0
C702 C 0.40947 0.17053 0.02194 0.0
C703 C 0.39931 0.18965 0.01482 0.0
C704 C 0.41096 0.16165 0.07439 0.0
C705 C 0.40237 0.17178 0.12053 0.0
C706 C 0.39066 0.18991 0.1127 0.0
C707 C 0.38904 0.19871 0.0602 0.0
H708 H 0.07938 0.18427 0.23713 0.0
H709 H 0.10036 0.12161 0.27086 0.0
H710 H 0.10248 0.19726 0.3077 0.0
H711 H 0.12439 0.1349 0.33912 0.0
H712 H 0.11569 0.16219 0.51938 0.0
H713 H 0.11369 0.14638 0.4285 0.0
H714 H 0.13464 0.20388 0.35433 0.0
H715 H 0.13579 0.21987 0.44563 0.0
C716 C 0.08912 0.17323 0.25861 0.0
C717 C 0.08699 0.15172 0.25001 0.0
C718 C 0.10282 0.18079 0.2985 0.0
C719 C 0.11493 0.16702 0.33016 0.0
C720 C 0.11485 0.14583 0.3164 0.0
C721 C 0.10096 0.13823 0.27698 0.0
C722 C 0.12051 0.17118 0.48374 0.0
C723 C 0.12526 0.19234 0.48928 0.0
C724 C 0.11961 0.1621 0.43153 0.0
C725 C 0.12349 0.17408 0.38391 0.0
C726 C 0.13111 0.19443 0.3902 0.0
C727 C 0.13193 0.20353 0.44259 0.0
H728 H 0.14268 0.79726 0.57111 0.0
H729 H 0.10799 0.85035 0.51112 0.0
H730 H 0.13829 0.80963 0.66543 0.0
H731 H 0.1046 0.86294 0.60504 0.0
H732 H 0.10231 0.88253 0.78177 0.0
H733 H 0.12295 0.8736 0.69965 0.0
H734 H 0.10019 0.81051 0.70865 0.0
H735 H 0.07933 0.81965 0.78959 0.0
C736 C 0.13444 0.81169 0.5775 0.0
C737 C 0.12483 0.82223 0.53323 0.0
C738 C 0.13224 0.81889 0.63161 0.0
C739 C 0.12092 0.83704 0.6422 0.0
C740 C 0.11349 0.8489 0.59774 0.0
C741 C 0.11536 0.84154 0.54373 0.0
C742 C 0.10235 0.86664 0.767 0.0
C743 C 0.08927 0.85173 0.79117 0.0
C744 C 0.11407 0.86157 0.72028 0.0
C745 C 0.11314 0.84141 0.69825 0.0
C746 C 0.10137 0.8261 0.72539 0.0
C747 C 0.08935 0.8313 0.77121 0.0
H748 H 0.38709 0.79604 0.9523 0.0
H749 H 0.4195 0.84632 0.03367 0.0
H750 H 0.39314 0.81256 0.86283 0.0
H751 H 0.42556 0.86276 0.94486 0.0
H752 H 0.43339 0.89208 0.78594 0.0
H753 H 0.4124 0.87913 0.86166 0.0
H754 H 0.42542 0.81607 0.81092 0.0
H755 H 0.44552 0.82898 0.73318 0.0
C756 C 0.39529 0.81073 0.95111 0.0
C757 C 0.40321 0.8197 0.99981 0.0
C758 C 0.39865 0.82021 0.89999 0.0
C759 C 0.40998 0.83883 0.89677 0.0
C760 C 0.41653 0.84855 0.94592 0.0
C761 C 0.41313 0.83909 0.99694 0.0
C762 C 0.43128 0.87546 0.78953 0.0
C763 C 0.44173 0.86155 0.75424 0.0
C764 C 0.41932 0.86806 0.83336 0.0
C765 C 0.41767 0.84662 0.84299 0.0
C766 C 0.42641 0.83271 0.80468 0.0
C767 C 0.43825 0.84012 0.76056 0.0
H768 H 0.52024 0.85052 0.85442 0.0
H769 H 0.53427 0.8041 0.7311 0.0
H770 H 0.53508 0.82855 0.926 0.0
H771 H 0.54902 0.78174 0.80343 0.0
H772 H 0.55728 0.78254 0.05376 0.0
H773 H 0.53441 0.79721 0.98214 0.0
H774 H 0.58052 0.78312 0.85781 0.0
H775 H 0.60293 0.76847 0.92852 0.0
C776 C 0.52614 0.83538 0.84266 0.0
C777 C 0.52621 0.8292 0.78673 0.0
C778 C 0.53455 0.82266 0.88404 0.0
C779 C 0.54347 0.80334 0.87087 0.0
C780 C 0.54254 0.79662 0.81521 0.0
C781 C 0.53393 0.80936 0.77368 0.0
C782 C 0.56224 0.78216 0.01095 0.0
C783 C 0.582 0.77446 0.99704 0.0
C784 C 0.54923 0.79073 0.96984 0.0
C785 C 0.5556 0.79154 0.91386 0.0
C786 C 0.57487 0.78267 0.90001 0.0
C787 C 0.58785 0.77437 0.94088 0.0
H788 H 0.00796 0.84795 0.67118 0.0
H789 H 0.98696 0.8056 0.79777 0.0
H790 H 0.99121 0.82691 0.60063 0.0
H791 H 0.97022 0.7841 0.72643 0.0
H792 H 0.91683 0.77475 0.59697 0.0
H793 H 0.93978 0.78807 0.6685 0.0
H794 H 0.98881 0.79508 0.54787 0.0
H795 H 0.96547 0.78187 0.47547 0.0
C796 C 1.0001 0.83384 0.68391 0.0
C797 C 0.99872 0.82858 0.74037 0.0
C798 C 0.99056 0.82164 0.64314 0.0
C799 C 0.97914 0.80379 0.65741 0.0
C800 C 0.97864 0.79788 0.71376 0.0
C801 C 0.98841 0.81007 0.75474 0.0
C802 C 0.9326 0.77885 0.58559 0.0
C803 C 0.93919 0.77739 0.53011 0.0
C804 C 0.94588 0.78636 0.62699 0.0
C805 C 0.96622 0.79283 0.61438 0.0
C806 C 0.97318 0.7905 0.55922 0.0
C807 C 0.95986 0.78278 0.51765 0.0
H808 H 0.99131 0.20769 0.23543 0.0
H809 H 1.00519 0.16162 0.35973 0.0
H810 H 0.97586 0.22997 0.30691 0.0
H811 H 0.98968 0.18352 0.4305 0.0
H812 H 0.96641 0.22968 0.55678 0.0
H813 H 0.98977 0.21509 0.48619 0.0
H814 H 0.944 0.22816 0.36015 0.0
H815 H 0.92108 0.24271 0.42987 0.0
C816 C 0.99148 0.2025 0.27806 0.0
C817 C 0.99937 0.18277 0.29161 0.0
C818 C 0.98246 0.21518 0.3191 0.0
C819 C 0.98129 0.20854 0.37477 0.0
C820 C 0.99038 0.18935 0.3885 0.0
C821 C 0.99918 0.17667 0.3476 0.0
C822 C 0.96162 0.22985 0.51381 0.0
C823 C 0.94181 0.23724 0.49914 0.0
C824 C 0.97491 0.22133 0.4733 0.0
C825 C 0.9688 0.22027 0.41715 0.0
C826 C 0.94946 0.22882 0.40251 0.0
C827 C 0.93619 0.23706 0.44281 0.0
H828 H 0.50884 0.16172 0.15603 0.0
H829 H 0.53012 0.20424 0.28199 0.0
H830 H 0.52549 0.18274 0.085 0.0
H831 H 0.54682 0.22557 0.21038 0.0
H832 H 0.55227 0.2281 0.96019 0.0
H833 H 0.52835 0.21531 0.03217 0.0
H834 H 0.57753 0.21998 0.1532 0.0
H835 H 0.60103 0.23261 0.08215 0.0
C836 C 0.51671 0.17587 0.1685 0.0
C837 C 0.51823 0.18119 0.22492 0.0
C838 C 0.52618 0.18804 0.1275 0.0
C839 C 0.53772 0.20584 0.14161 0.0
C840 C 0.53827 0.21184 0.19787 0.0
C841 C 0.52854 0.19972 0.239 0.0
C842 C 0.55775 0.22678 1.00242 0.0
C843 C 0.57861 0.23121 0.01523 0.0
C844 C 0.54412 0.21932 0.04368 0.0
C845 C 0.55096 0.21648 0.0988 0.0
C846 C 0.57152 0.2221 0.11172 0.0
C847 C 0.58511 0.22921 0.07063 0.0
H848 H 0.92077 0.6622 0.77984 0.0
H849 H 0.97267 0.63516 0.69253 0.0
H850 H 0.90426 0.67056 0.69256 0.0
H851 H 0.95593 0.64313 0.60435 0.0
H852 H 0.93813 0.69721 0.48425 0.0
H853 H 0.95128 0.67555 0.55806 0.0
H854 H 0.88838 0.66086 0.60748 0.0
H855 H 0.87515 0.68369 0.53622 0.0
C856 C 0.92833 0.65746 0.74188 0.0
C857 C 0.94814 0.6484 0.74283 0.0
C858 C 0.91882 0.66214 0.69168 0.0
C859 C 0.92888 0.65768 0.64139 0.0
C860 C 0.94799 0.64713 0.64242 0.0
C861 C 0.95758 0.64261 0.69276 0.0
C862 C 0.92703 0.68942 0.51068 0.0
C863 C 0.90556 0.69302 0.50543 0.0
C864 C 0.9346 0.67659 0.55249 0.0
C865 C 0.92085 0.66681 0.58941 0.0
C866 C 0.89937 0.66863 0.58051 0.0
C867 C 0.89179 0.68168 0.53919 0.0
H868 H 0.60768 0.6605 0.05385 0.0
H869 H 0.63109 0.7117 0.9563 0.0
H870 H 0.60104 0.64089 0.96945 0.0
H871 H 0.62322 0.69284 0.87235 0.0
H872 H 0.5554 0.63761 0.81985 0.0
H873 H 0.574 0.64534 0.90427 0.0
H874 H 0.62722 0.66529 0.80863 0.0
H875 H 0.60792 0.65889 0.72371 0.0
C876 C 0.61174 0.66745 0.01453 0.0
C877 C 0.6193 0.68791 0.01168 0.0
C878 C 0.60779 0.65627 0.96613 0.0
C879 C 0.61116 0.66544 0.91407 0.0
C880 C 0.62046 0.68519 0.91157 0.0
C881 C 0.62459 0.69624 0.95985 0.0
C882 C 0.57107 0.64361 0.81667 0.0
C883 C 0.57986 0.64837 0.76499 0.0
C884 C 0.58196 0.64765 0.86528 0.0
C885 C 0.60202 0.65629 0.8633 0.0
C886 C 0.6116 0.65908 0.81153 0.0
C887 C 0.60058 0.65525 0.76281 0.0
H888 H 0.62206 0.3404 0.01966 0.0
H889 H 0.63198 0.27869 0.08571 0.0
H890 H 0.61702 0.35355 0.11239 0.0
H891 H 0.62621 0.29195 0.17883 0.0
H892 H 0.5667 0.3202 0.27367 0.0
H893 H 0.59048 0.30414 0.20942 0.0
H894 H 0.62903 0.35911 0.21163 0.0
H895 H 0.60541 0.37522 0.27784 0.0
C896 C 0.62378 0.3297 0.05384 0.0
C897 C 0.6267 0.30833 0.04481 0.0
C898 C 0.62102 0.33731 0.10726 0.0
C899 C 0.62098 0.32368 0.15264 0.0
C900 C 0.62594 0.3027 0.14432 0.0
C901 C 0.62893 0.2951 0.09086 0.0
C902 C 0.58059 0.32869 0.26252 0.0
C903 C 0.58366 0.34938 0.27936 0.0
C904 C 0.59436 0.31935 0.22571 0.0
C905 C 0.61136 0.33058 0.20484 0.0
C906 C 0.61581 0.35029 0.22659 0.0
C907 C 0.60214 0.35957 0.26394 0.0
H908 H 0.89184 0.29955 0.45731 0.0
H909 H 0.91338 0.35144 0.55548 0.0
H910 H 0.8987 0.31893 0.37365 0.0
H911 H 0.91893 0.37151 0.47141 0.0
H912 H 0.96395 0.37705 0.32091 0.0
H913 H 0.94586 0.36854 0.40557 0.0
H914 H 0.89331 0.34642 0.31053 0.0
H915 H 0.91217 0.35366 0.22536 0.0
C916 C 0.89772 0.31524 0.46111 0.0
C917 C 0.90278 0.32365 0.51304 0.0
C918 C 0.90126 0.32658 0.41298 0.0
C919 C 0.90969 0.34671 0.4157 0.0
C920 C 0.91285 0.35587 0.46788 0.0
C921 C 0.90952 0.34441 0.51613 0.0
C922 C 0.94851 0.37045 0.31796 0.0
C923 C 0.93984 0.36529 0.26639 0.0
C924 C 0.93791 0.36594 0.36668 0.0
C925 C 0.91825 0.35641 0.36492 0.0
C926 C 0.90865 0.3533 0.31326 0.0
C927 C 0.9194 0.35761 0.2644 0.0
H928 H 0.04649 0.30929 0.22714 0.0
H929 H 1.00455 0.33894 0.34126 0.0
H930 H 0.0608 0.28852 0.30246 0.0
H931 H 0.01757 0.31729 0.41633 0.0
H932 H 0.06549 0.29883 0.5495 0.0
H933 H 0.0448 0.31438 0.47573 0.0
H934 H 0.0609 0.26316 0.36778 0.0
H935 H 0.08268 0.24872 0.44067 0.0
C936 C 0.03974 0.31069 0.26805 0.0
C937 C 0.0243 0.32558 0.27825 0.0
C938 C 0.04794 0.29877 0.31169 0.0
C939 C 0.04066 0.30118 0.36663 0.0
C940 C 0.02417 0.31522 0.37552 0.0
C941 C 0.01638 0.32745 0.33219 0.0
C942 C 0.06409 0.29069 0.51041 0.0
C943 C 0.07557 0.27252 0.50097 0.0
C944 C 0.0522 0.29959 0.46766 0.0
C945 C 0.05118 0.29033 0.41455 0.0
C946 C 0.06163 0.27128 0.40694 0.0
C947 C 0.07388 0.26273 0.44917 0.0
H948 H 0.41729 0.26997 0.08617 0.0
H949 H 0.46526 0.28026 0.96446 0.0
H950 H 0.43945 0.28431 0.15785 0.0
H951 H 0.48791 0.29458 0.0372 0.0
H952 H 0.50417 0.34789 0.16283 0.0
H953 H 0.48876 0.32624 0.09139 0.0
H954 H 0.46984 0.28188 0.2157 0.0
H955 H 0.48516 0.30398 0.28791 0.0
C956 C 0.43279 0.275 0.07478 0.0
C957 C 0.43937 0.27411 0.01921 0.0
C958 C 0.44564 0.2831 0.1163 0.0
C959 C 0.46556 0.29079 0.1038 0.0
C960 C 0.47258 0.28905 0.0485 0.0
C961 C 0.45969 0.28068 1.00674 0.0
C962 C 0.49702 0.33335 0.17508 0.0
C963 C 0.49577 0.32782 0.23143 0.0
C964 C 0.48828 0.32079 0.13376 0.0
C965 C 0.47781 0.30228 0.14731 0.0
C966 C 0.4775 0.29616 0.20353 0.0
C967 C 0.48645 0.30873 0.24505 0.0
H968 H 0.41718 0.74075 0.93159 0.0
H969 H 0.46598 0.7288 0.04982 0.0
H970 H 0.43892 0.72764 0.85731 0.0
H971 H 0.48813 0.71561 0.97457 0.0
H972 H 0.50195 0.66327 0.84342 0.0
H973 H 0.48761 0.68433 0.91758 0.0
H974 H 0.46949 0.73099 0.79857 0.0
H975 H 0.48392 0.70953 0.72356 0.0
C976 C 0.43276 0.73561 0.94166 0.0
C977 C 0.43972 0.73565 0.99696 0.0
C978 C 0.44536 0.72823 0.8987 0.0
C979 C 0.46534 0.7204 0.9095 0.0
C980 C 0.47275 0.72132 0.96459 0.0
C981 C 0.46013 0.72901 1.00778 0.0
C982 C 0.49526 0.67822 0.83298 0.0
C983 C 0.49395 0.68461 0.77733 0.0
C984 C 0.48713 0.69042 0.87582 0.0
C985 C 0.47718 0.70938 0.86449 0.0
C986 C 0.47683 0.71636 0.80897 0.0
C987 C 0.48525 0.70417 0.7659 0.0
H988 H 0.06387 0.69175 0.79041 0.0
H989 H 1.00447 0.69001 0.70849 0.0
H990 H 0.07795 0.71306 0.71607 0.0
H991 H 0.01822 0.71204 0.63396 0.0
H992 H 0.06091 0.72412 0.47808 0.0
H993 H 0.04112 0.70977 0.55615 0.0
H994 H 0.07945 0.74482 0.66976 0.0
H995 H 0.09949 0.75822 0.59223 0.0
C996 C 0.05358 0.69674 0.75747 0.0
C997 C 0.03293 0.68977 0.75609 0.0
C998 C 0.06163 0.70895 0.71446 0.0
C999 C 0.04929 0.7145 0.66842 0.0
C1000 C 0.02832 0.70803 0.66818 0.0
C1001 C 0.02029 0.69571 0.71135 0.0
C1002 C 0.06465 0.72914 0.5197 0.0
C1003 C 0.08177 0.74225 0.52903 0.0
C1004 C 0.05335 0.72088 0.56469 0.0
C1005 C 0.05886 0.72571 0.61991 0.0
C1006 C 0.07502 0.74015 0.62835 0.0
C1007 C 0.08641 0.74808 0.58373 0.0
H1008 H 0.45428 0.2205 0.78603 0.0
H1009 H 0.41499 0.24623 0.65895 0.0
H1010 H 0.47576 0.2038 0.71454 0.0
H1011 H 0.4365 0.23002 0.5877 0.0
H1012 H 0.48396 0.20306 0.46676 0.0
H1013 H 0.47213 0.22647 0.54108 0.0
H1014 H 0.46587 0.17394 0.65085 0.0
H1015 H 0.47717 0.15078 0.57693 0.0
C1016 C 0.45075 0.22329 0.74283 0.0
C1017 C 0.43307 0.23483 0.72807 0.0
C1018 C 0.4629 0.21356 0.70183 0.0
C1019 C 0.45783 0.21547 0.6452 0.0
C1020 C 0.44103 0.22833 0.63064 0.0
C1021 C 0.42869 0.23766 0.67153 0.0
C1022 C 0.48048 0.19665 0.50716 0.0
C1023 C 0.48142 0.17506 0.51585 0.0
C1024 C 0.4736 0.21001 0.54966 0.0
C1025 C 0.46803 0.20211 0.60212 0.0
C1026 C 0.47021 0.18065 0.6114 0.0
C1027 C 0.47658 0.16734 0.5688 0.0
H1028 H 0.08355 0.17718 0.04492 0.0
H1029 H 0.02037 0.18544 0.98896 0.0
H1030 H 0.09632 0.195 0.96319 0.0
H1031 H 0.03339 0.20333 0.90546 0.0
H1032 H 0.07238 0.24734 0.77853 0.0
H1033 H 0.0556 0.23526 0.86477 0.0
H1034 H 0.09594 0.18172 0.86629 0.0
H1035 H 0.11238 0.19342 0.78218 0.0
C1036 C 0.07232 0.18303 0.01535 0.0
C1037 C 0.05094 0.17959 0.02326 0.0
C1038 C 0.07967 0.19325 0.96829 0.0
C1039 C 0.06594 0.20026 0.92708 0.0
C1040 C 0.04439 0.19811 0.9364 0.0
C1041 C 0.03694 0.18787 0.98418 0.0
C1042 C 0.07756 0.23297 0.79735 0.0
C1043 C 0.09392 0.22151 0.77332 0.0
C1044 C 0.0679 0.22603 0.8466 0.0
C1045 C 0.07463 0.20765 0.87297 0.0
C1046 C 0.0906 0.19613 0.84795 0.0
C1047 C 0.10003 0.20289 0.79922 0.0
H1048 H 0.02338 0.85527 0.1046 0.0
H1049 H 0.04009 0.81185 0.97622 0.0
H1050 H 0.03858 0.83244 0.1742 0.0
H1051 H 0.05567 0.78889 0.04618 0.0
H1052 H 0.11177 0.78164 0.17352 0.0
H1053 H 0.08811 0.7946 0.10269 0.0
H1054 H 0.03884 0.79786 0.22362 0.0
H1055 H 0.0627 0.78447 0.2948 0.0
C1056 C 0.02977 0.8405 0.09147 0.0
C1057 C 0.03049 0.83536 0.0349 0.0
C1058 C 0.03846 0.82736 0.13147 0.0
C1059 C 0.04851 0.80886 0.11594 0.0
C1060 C 0.04815 0.80309 0.05957 0.0
C1061 C 0.03905 0.81612 0.0195 0.0
C1062 C 0.09574 0.78463 0.18474 0.0
C1063 C 0.08912 0.78207 0.23979 0.0
C1064 C 0.08211 0.79196 0.14398 0.0
C1065 C 0.06154 0.79737 0.15729 0.0
C1066 C 0.0546 0.79391 0.21195 0.0
C1067 C 0.0682 0.78612 0.25267 0.0
H1068 H 0.4271 0.75491 0.34868 0.0
H1069 H 0.44679 0.80172 0.23253 0.0
H1070 H 0.44733 0.77192 0.42196 0.0
H1071 H 0.46666 0.81908 0.30599 0.0
H1072 H 0.46048 0.85823 0.47135 0.0
H1073 H 0.45032 0.83754 0.39137 0.0
H1074 H 0.4847 0.78531 0.4557 0.0
H1075 H 0.49551 0.80648 0.53595 0.0
C1076 C 0.43648 0.76836 0.33835 0.0
C1077 C 0.43576 0.77673 0.28463 0.0
C1078 C 0.44799 0.77817 0.38037 0.0
C1079 C 0.45854 0.79693 0.36997 0.0
C1080 C 0.45871 0.80466 0.31538 0.0
C1081 C 0.44754 0.7946 0.27312 0.0
C1082 C 0.46611 0.8424 0.46835 0.0
C1083 C 0.47874 0.83399 0.51029 0.0
C1084 C 0.46039 0.83058 0.42216 0.0
C1085 C 0.46674 0.80977 0.41689 0.0
C1086 C 0.47958 0.80131 0.45849 0.0
C1087 C 0.4858 0.81342 0.50433 0.0
H1088 H 0.5541 0.8769 0.46438 0.0
H1089 H 0.60162 0.83562 0.52623 0.0
H1090 H 0.56823 0.87369 0.37124 0.0
H1091 H 0.61597 0.83257 0.43279 0.0
H1092 H 0.64104 0.8354 0.25952 0.0
H1093 H 0.63187 0.85106 0.34876 0.0
H1094 H 0.5668 0.84118 0.31263 0.0
H1095 H 0.5761 0.82552 0.22402 0.0
C1096 C 0.5677 0.86728 0.45809 0.0
C1097 C 0.57645 0.85601 0.50212 0.0
C1098 C 0.57586 0.86561 0.40493 0.0
C1099 C 0.593 0.85272 0.39486 0.0
C1100 C 0.6028 0.84274 0.43959 0.0
C1101 C 0.59458 0.8444 0.49294 0.0
C1102 C 0.6248 0.83731 0.27008 0.0
C1103 C 0.60919 0.82935 0.23535 0.0
C1104 C 0.61958 0.84605 0.32113 0.0
C1105 C 0.59867 0.84723 0.33752 0.0
C1106 C 0.58304 0.84066 0.30078 0.0
C1107 C 0.58829 0.83167 0.25029 0.0
H1108 H 0.93341 0.8486 0.25663 0.0
H1109 H 0.89351 0.7991 0.19885 0.0
H1110 H 0.93584 0.86204 0.16238 0.0
H1111 H 0.89613 0.81238 0.1047 0.0
H1112 H 0.94344 0.82132 0.95546 0.0
H1113 H 0.9276 0.8119 0.04369 0.0
H1114 H 0.917 0.87687 0.07924 0.0
H1115 H 0.93294 0.88616 0.99053 0.0
C1116 C 0.92483 0.84087 0.22404 0.0
C1117 C 0.91373 0.82252 0.23485 0.0
C1118 C 0.92611 0.8486 0.17015 0.0
C1119 C 0.91629 0.83812 0.12626 0.0
C1120 C 0.90407 0.82057 0.13771 0.0
C1121 C 0.90275 0.81289 0.1915 0.0
C1122 C 0.93702 0.83345 0.9814 0.0
C1123 C 0.93937 0.85438 0.96662 0.0
C1124 C 0.92793 0.82813 0.03175 0.0
C1125 C 0.92126 0.84371 0.06845 0.0
C1126 C 0.92216 0.8646 0.05177 0.0
C1127 C 0.93104 0.8699 1.00093 0.0
H1128 H 0.88492 0.17542 0.76276 0.0
H1129 H 0.94921 0.18776 0.72443 0.0
H1130 H 0.89524 0.16037 0.85181 0.0
H1131 H 0.95964 0.17282 0.81295 0.0
H1132 H 0.97456 0.13783 0.96504 0.0
H1133 H 0.96029 0.1409 0.87205 0.0
H1134 H 0.91043 0.17903 0.93533 0.0
H1135 H 0.92487 0.17607 0.0287 0.0
C1136 C 0.90129 0.1742 0.77267 0.0
C1137 C 0.91635 0.18268 0.73716 0.0
C1138 C 0.90716 0.16583 0.82367 0.0
C1139 C 0.9282 0.16556 0.8393 0.0
C1140 C 0.94332 0.17264 0.80179 0.0
C1141 C 0.93742 0.18123 0.7513 0.0
C1142 C 0.96051 0.14681 0.95915 0.0
C1143 C 0.9511 0.15721 1.00376 0.0
C1144 C 0.95228 0.1484 0.90604 0.0
C1145 C 0.93442 0.16036 0.8965 0.0
C1146 C 0.92414 0.16956 0.94166 0.0
C1147 C 0.93243 0.16797 0.99497 0.0
H1148 H 0.59286 0.1351 0.47709 0.0
H1149 H 0.56427 0.19557 0.46609 0.0
H1150 H 0.60994 0.14538 0.56353 0.0
H1151 H 0.58065 0.20572 0.55253 0.0
H1152 H 0.61756 0.22413 0.69596 0.0
H1153 H 0.61238 0.21319 0.60062 0.0
H1154 H 0.59628 0.15149 0.65732 0.0
H1155 H 0.60228 0.16252 0.75326 0.0
C1156 C 0.59072 0.15076 0.49244 0.0
C1157 C 0.5772 0.16457 0.46544 0.0
C1158 C 0.60026 0.15655 0.54212 0.0
C1159 C 0.5965 0.17627 0.56505 0.0
C1160 C 0.58407 0.19048 0.53579 0.0
C1161 C 0.57455 0.18468 0.4865 0.0
C1162 C 0.61306 0.2082 0.68788 0.0
C1163 C 0.60976 0.19422 0.73159 0.0
C1164 C 0.61017 0.20192 0.63339 0.0
C1165 C 0.60361 0.18159 0.62153 0.0
C1166 C 0.60149 0.16723 0.66516 0.0
C1167 C 0.6047 0.1735 0.71993 0.0
H1168 H 0.0137 0.68032 0.08077 0.0
H1169 H 0.95626 0.68218 0.98926 0.0
H1170 H 0.99756 0.70061 0.15568 0.0
H1171 H 0.94008 0.70224 0.06374 0.0
H1172 H 0.91347 0.69877 0.24228 0.0
H1173 H 0.93197 0.68759 0.16009 0.0
H1174 H 0.9776 0.73586 0.18529 0.0
H1175 H 0.95854 0.74758 0.2684 0.0
C1176 C 0.99791 0.68586 0.07571 0.0
C1177 C 0.98632 0.68007 0.02881 0.0
C1178 C 0.98863 0.69738 0.11865 0.0
C1179 C 0.96748 0.70292 0.11589 0.0
C1180 C 0.95636 0.69815 0.06731 0.0
C1181 C 0.96566 0.68684 0.02437 0.0
C1182 C 0.9274 0.70715 0.23058 0.0
C1183 C 0.93454 0.72406 0.26236 0.0
C1184 C 0.93794 0.7008 0.18297 0.0
C1185 C 0.9562 0.71088 0.16577 0.0
C1186 C 0.96354 0.72779 0.19744 0.0
C1187 C 0.95263 0.73452 0.24489 0.0
H1188 H 0.60886 0.74356 0.36002 0.0
H1189 H 0.56501 0.73171 0.22866 0.0
H1190 H 0.58516 0.72819 0.42679 0.0
H1191 H 0.54091 0.7163 0.29608 0.0
H1192 H 0.52681 0.65963 0.41352 0.0
H1193 H 0.54174 0.68368 0.34699 0.0
H1194 H 0.55255 0.72808 0.47798 0.0
H1195 H 0.53758 0.70361 0.5452 0.0
C1196 C 0.59386 0.73811 0.34558 0.0
C1197 C 0.58891 0.73875 0.28884 0.0
C1198 C 0.58016 0.72938 0.38412 0.0
C1199 C 0.5611 0.72077 0.36712 0.0
C1200 C 0.55556 0.72255 0.31071 0.0
C1201 C 0.56926 0.73156 0.27203 0.0
C1202 C 0.53197 0.6747 0.42811 0.0
C1203 C 0.53115 0.6796 0.48486 0.0
C1204 C 0.54043 0.68862 0.3897 0.0
C1205 C 0.54857 0.70786 0.40682 0.0
C1206 C 0.54665 0.71331 0.46326 0.0
C1207 C 0.53791 0.69938 0.50182 0.0
H1208 H 0.52253 0.31233 0.49999 0.0
H1209 H 0.57023 0.35812 0.5317 0.0
H1210 H 0.53385 0.29294 0.58286 0.0
H1211 H 0.58118 0.33917 0.6129 0.0
H1212 H 0.58733 0.31448 0.78149 0.0
H1213 H 0.56812 0.33104 0.70625 0.0
H1214 H 0.56625 0.27267 0.61827 0.0
H1215 H 0.58537 0.25606 0.6946 0.0
C1216 C 0.53531 0.3183 0.52448 0.0
C1217 C 0.54542 0.33684 0.50879 0.0
C1218 C 0.54183 0.30718 0.57187 0.0
C1219 C 0.55829 0.3146 0.60514 0.0
C1220 C 0.56821 0.33312 0.58919 0.0
C1221 C 0.56197 0.34396 0.54196 0.0
C1222 C 0.58209 0.30502 0.74708 0.0
C1223 C 0.58749 0.28393 0.74441 0.0
C1224 C 0.5713 0.31454 0.70355 0.0
C1225 C 0.56585 0.30329 0.65564 0.0
C1226 C 0.57004 0.28179 0.65458 0.0
C1227 C 0.5809 0.27223 0.69841 0.0
H1228 H 0.98422 0.30887 0.04744 0.0
H1229 H 0.99351 0.35355 0.91669 0.0
H1230 H 0.97002 0.28412 0.97972 0.0
H1231 H 0.97935 0.32921 0.84968 0.0
H1232 H 0.95758 0.28087 0.73043 0.0
H1233 H 0.98127 0.29668 0.79824 0.0
H1234 H 0.93733 0.28331 0.92858 0.0
H1235 H 0.91402 0.26755 0.8614 0.0
C1236 C 0.98372 0.31322 1.00416 0.0
C1237 C 0.98982 0.33325 0.98761 0.0
C1238 C 0.97543 0.29912 0.96533 0.0
C1239 C 0.97333 0.30466 0.90901 0.0
C1240 C 0.98083 0.32421 0.89228 0.0
C1241 C 0.98884 0.33829 0.93097 0.0
C1242 C 0.95332 0.28078 0.7738 0.0
C1243 C 0.93385 0.27308 0.79041 0.0
C1244 C 0.96679 0.29001 0.81269 0.0
C1245 C 0.96119 0.29151 0.86909 0.0
C1246 C 0.94236 0.28236 0.88589 0.0
C1247 C 0.92888 0.27341 0.84714 0.0
H1248 H 0.13799 0.33342 0.78062 0.0
H1249 H 0.07596 0.30794 0.77057 0.0
H1250 H 0.13073 0.34567 0.87488 0.0
H1251 H 0.0689 0.31979 0.86433 0.0
H1252 H 0.07113 0.31733 0.04698 0.0
H1253 H 0.08482 0.30741 0.9566 0.0
H1254 H 0.1048 0.37063 0.92858 0.0
H1255 H 0.09095 0.38057 0.01927 0.0
C1256 C 0.12271 0.33082 0.7981 0.0
C1257 C 0.10759 0.31948 0.76872 0.0
C1258 C 0.11865 0.33767 0.852 0.0
C1259 C 0.09949 0.33314 0.87705 0.0
C1260 C 0.08402 0.32294 0.84638 0.0
C1261 C 0.08801 0.31624 0.79276 0.0
C1262 C 0.07891 0.32895 0.02203 0.0
C1263 C 0.07975 0.34971 0.03956 0.0
C1264 C 0.08664 0.32334 0.97039 0.0
C1265 C 0.09538 0.33841 0.93541 0.0
C1266 C 0.09805 0.35878 0.95491 0.0
C1267 C 0.09024 0.36442 1.0068 0.0
H1268 H 0.3818 0.33537 0.75459 0.0
H1269 H 0.4462 0.3215 0.78773 0.0
H1270 H 0.39173 0.35248 0.66793 0.0
H1271 H 0.4562 0.33842 0.70148 0.0
H1272 H 0.47114 0.37641 0.55588 0.0
H1273 H 0.45698 0.37173 0.64859 0.0
H1274 H 0.40609 0.33607 0.5805 0.0
H1275 H 0.42039 0.34076 0.48749 0.0
C1276 C 0.39812 0.33659 0.74408 0.0
C1277 C 0.41331 0.32713 0.77739 0.0
C1278 C 0.40376 0.34618 0.69444 0.0
C1279 C 0.42469 0.34667 0.67799 0.0
C1280 C 0.43996 0.33847 0.71337 0.0
C1281 C 0.43429 0.32869 0.76249 0.0
C1282 C 0.45683 0.36774 0.56073 0.0
C1283 C 0.4471 0.35844 0.51488 0.0
C1284 C 0.44867 0.36519 0.61365 0.0
C1285 C 0.43063 0.35333 0.62168 0.0
C1286 C 0.41997 0.34542 0.57538 0.0
C1287 C 0.42816 0.348 0.52225 0.0
H1288 H 0.42009 0.67448 0.54721 0.0
H1289 H 0.46504 0.63217 0.47856 0.0
H1290 H 0.4064 0.68125 0.45376 0.0
H1291 H 0.45175 0.63892 0.38545 0.0
H1292 H 0.44628 0.68937 0.24394 0.0
H1293 H 0.45489 0.67374 0.33328 0.0
H1294 H 0.38959 0.66386 0.36575 0.0
H1295 H 0.38108 0.67937 0.2758 0.0
C1296 C 0.42658 0.66628 0.51211 0.0
C1297 C 0.44355 0.65296 0.51923 0.0
C1298 C 0.41882 0.67006 0.45895 0.0
C1299 C 0.42818 0.66068 0.41262 0.0
C1300 C 0.4444 0.64643 0.42049 0.0
C1301 C 0.45197 0.64257 0.47345 0.0
C1302 C 0.43388 0.6834 0.26977 0.0
C1303 C 0.41311 0.6854 0.25322 0.0
C1304 C 0.43874 0.67444 0.32062 0.0
C1305 C 0.42286 0.66763 0.35619 0.0
C1306 C 0.40207 0.66902 0.33895 0.0
C1307 C 0.39724 0.67768 0.2875 0.0
H1308 H 0.10513 0.66287 0.30559 0.0
H1309 H 0.12398 0.71767 0.21607 0.0
H1310 H 0.09767 0.6452 0.2174 0.0
H1311 H 0.11676 0.70028 0.12854 0.0
H1312 H 0.05134 0.64789 0.06288 0.0
H1313 H 0.06832 0.65517 0.15088 0.0
H1314 H 0.12529 0.66977 0.06443 0.0
H1315 H 0.10803 0.6623 0.9757 0.0
C1316 C 0.10809 0.67086 0.26695 0.0
C1317 C 0.11468 0.69161 0.26702 0.0
C1318 C 0.10388 0.66085 0.21679 0.0
C1319 C 0.10664 0.67143 0.16635 0.0
C1320 C 0.11472 0.69169 0.16672 0.0
C1321 C 0.11858 0.70172 0.21665 0.0
C1322 C 0.06756 0.65241 0.06288 0.0
C1323 C 0.07836 0.65501 0.01291 0.0
C1324 C 0.07736 0.65626 0.11315 0.0
C1325 C 0.0981 0.66301 0.11431 0.0
C1326 C 0.10927 0.66457 0.06443 0.0
C1327 C 0.09948 0.66038 0.01396 0.0
loop_
_geom_bond_atom_site_label_1
_geom_bond_atom_site_label_2
_geom_bond_distance
_geom_bond_site_symmetry_2
_ccdc_geom_bond_type
C0 C1 1.351 . S
C0 N3 1.368 . S
C0 H5 0.931 . S
C1 C0 1.351 . S
C1 N2 1.373 . S
C1 H29 0.930 . S
N2 C1 1.373 . S
N2 C4 1.340 . S
N3 C0 1.368 . S
N3 C4 1.321 . S
N3 Co6 2.135 . S
C4 N2 1.340 . S
C4 N3 1.321 . S
C4 H28 0.930 . S
H5 C0 0.931 . S
Co6 N3 2.135 . S
Co6 N9 2.121 . S
Co6 O14 2.055 . S
Co6 O17 2.039 . S
Co6 N20 2.140 . S
C7 O8 1.227 . S
C7 O17 1.265 . S
O8 C7 1.227 . S
N9 Co6 2.121 . S
N9 C11 1.375 . S
N9 C12 1.313 . S
C10 C11 1.338 . S
C10 N13 1.377 . S
C10 H30 0.930 . S
C11 N9 1.375 . S
C11 C10 1.338 . S
C11 H15 0.931 . S
C12 N9 1.313 . S
C12 N13 1.344 . S
C12 H16 0.930 . S
N13 C10 1.377 . S
N13 C12 1.344 . S
O14 Co6 2.055 . S
O14 C18 1.253 . S
H15 C11 0.931 . S
H16 C12 0.930 . S
O17 Co6 2.039 . S
O17 C7 1.265 . S
C18 O14 1.253 . S
C18 O19 1.227 . S
O19 C18 1.227 . S
N20 Co6 2.140 . S
N20 C23 1.346 . S
N20 C24 1.345 . S
C21 C22 1.387 . S
C21 C25 1.391 . S
C22 C21 1.387 . S
C22 C23 1.369 . S
C22 H31 0.929 . S
C23 N20 1.346 . S
C23 C22 1.369 . S
C23 H26 0.928 . S
C24 N20 1.345 . S
C24 C25 1.371 . S
C24 H27 0.931 . S
C25 C21 1.391 . S
C25 C24 1.371 . S
C25 H32 0.930 . S
H26 C23 0.928 . S
H27 C24 0.931 . S
H28 C4 0.930 . S
H29 C1 0.930 . S
H30 C10 0.930 . S
H31 C22 0.929 . S
H32 C25 0.930 . S
C33 C34 1.351 . S
C33 N36 1.368 . S
C33 H38 0.931 . S
C34 C33 1.351 . S
C34 N35 1.373 . S
C34 H62 0.930 . S
N35 C34 1.373 . S
N35 C37 1.340 . S
N36 C33 1.368 . S
N36 C37 1.321 . S
N36 Co39 2.135 . S
C37 N35 1.340 . S
C37 N36 1.321 . S
C37 H61 0.930 . S
H38 C33 0.931 . S
Co39 N36 2.135 . S
Co39 N42 2.121 . S
Co39 O47 2.055 . S
Co39 O50 2.039 . S
Co39 N53 2.140 . S
C40 O41 1.227 . S
C40 O50 1.265 . S
O41 C40 1.227 . S
N42 Co39 2.121 . S
N42 C44 1.375 . S
N42 C45 1.313 . S
C43 C44 1.338 . S
C43 N46 1.377 . S
C43 H63 0.930 . S
C44 N42 1.375 . S
C44 C43 1.338 . S
C44 H48 0.931 . S
C45 N42 1.313 . S
C45 N46 1.344 . S
C45 H49 0.930 . S
N46 C43 1.377 . S
N46 C45 1.344 . S
O47 Co39 2.055 . S
O47 C51 1.253 . S
H48 C44 0.931 . S
H49 C45 0.930 . S
O50 Co39 2.039 . S
O50 C40 1.265 . S
C51 O47 1.253 . S
C51 O52 1.227 . S
O52 C51 1.227 . S
N53 Co39 2.140 . S
N53 C56 1.346 . S
N53 C57 1.345 . S
C54 C55 1.387 . S
C54 C58 1.391 . S
C55 C54 1.387 . S
C55 C56 1.369 . S
C55 H64 0.929 . S
C56 N53 1.346 . S
C56 C55 1.369 . S
C56 H59 0.928 . S
C57 N53 1.345 . S
C57 C58 1.371 . S
C57 H60 0.931 . S
C58 C54 1.391 . S
C58 C57 1.371 . S
C58 H65 0.930 . S
H59 C56 0.928 . S
H60 C57 0.931 . S
H61 C37 0.930 . S
H62 C34 0.930 . S
H63 C43 0.930 . S
H64 C55 0.929 . S
H65 C58 0.930 . S
C66 C67 1.351 . S
C66 N69 1.368 . S
C66 H71 0.931 . S
C67 C66 1.351 . S
C67 N68 1.373 1_556 S
C67 H95 0.930 . S
N68 C67 1.373 1_554 S
N68 C70 1.340 1_554 S
N69 C66 1.368 . S
N69 C70 1.321 . S
N69 Co72 2.135 1_655 S
C70 N68 1.340 1_556 S
C70 N69 1.321 . S
C70 H94 0.930 1_556 S
H71 C66 0.931 . S
Co72 N69 2.135 1_455 S
Co72 N75 2.121 . S
Co72 O80 2.055 1_455 S
Co72 O83 2.039 . S
Co72 N86 2.140 . S
C73 O74 1.227 . S
C73 O83 1.265 . S
O74 C73 1.227 . S
N75 Co72 2.121 . S
N75 C77 1.375 . S
N75 C78 1.313 . S
C76 C77 1.338 . S
C76 N79 1.377 . S
C76 H96 0.930 . S
C77 N75 1.375 . S
C77 C76 1.338 . S
C77 H81 0.931 . S
C78 N75 1.313 . S
C78 N79 1.344 . S
C78 H82 0.930 . S
N79 C76 1.377 . S
N79 C78 1.344 . S
O80 Co72 2.055 1_655 S
O80 C84 1.253 . S
H81 C77 0.931 . S
H82 C78 0.930 . S
O83 Co72 2.039 . S
O83 C73 1.265 . S
C84 O80 1.253 . S
C84 O85 1.227 . S
O85 C84 1.227 . S
N86 Co72 2.140 . S
N86 C89 1.346 . S
N86 C90 1.345 . S
C87 C88 1.387 . S
C87 C91 1.391 . S
C88 C87 1.387 . S
C88 C89 1.369 . S
C88 H97 0.929 . S
C89 N86 1.346 . S
C89 C88 1.369 . S
C89 H92 0.928 . S
C90 N86 1.345 . S
C90 C91 1.371 . S
C90 H93 0.931 . S
C91 C87 1.391 . S
C91 C90 1.371 . S
C91 H98 0.930 . S
H92 C89 0.928 . S
H93 C90 0.931 . S
H94 C70 0.930 1_554 S
H95 C67 0.930 . S
H96 C76 0.930 . S
H97 C88 0.929 . S
H98 C91 0.930 . S
C99 C100 1.351 . S
C99 N102 1.368 . S
C99 H104 0.931 . S
C100 C99 1.351 . S
C100 N101 1.373 . S
C100 H128 0.930 . S
N101 C100 1.373 . S
N101 C103 1.340 . S
N102 C99 1.368 . S
N102 C103 1.321 . S
N102 Co105 2.135 . S
C103 N101 1.340 . S
C103 N102 1.321 . S
C103 H127 0.930 . S
H104 C99 0.931 . S
Co105 N102 2.135 . S
Co105 N108 2.121 . S
Co105 O113 2.055 . S
Co105 O116 2.039 . S
Co105 N119 2.140 . S
C106 O107 1.227 . S
C106 O116 1.265 . S
O107 C106 1.227 . S
N108 Co105 2.121 . S
N108 C110 1.375 . S
N108 C111 1.313 . S
C109 C110 1.338 . S
C109 N112 1.377 . S
C109 H129 0.930 . S
C110 N108 1.375 . S
C110 C109 1.338 . S
C110 H114 0.931 . S
C111 N108 1.313 . S
C111 N112 1.344 . S
C111 H115 0.930 . S
N112 C109 1.377 . S
N112 C111 1.344 . S
O113 Co105 2.055 . S
O113 C117 1.253 . S
H114 C110 0.931 . S
H115 C111 0.930 . S
O116 Co105 2.039 . S
O116 C106 1.265 . S
C117 O113 1.253 . S
C117 O118 1.227 . S
O118 C117 1.227 . S
N119 Co105 2.140 . S
N119 C122 1.346 . S
N119 C123 1.345 . S
C120 C121 1.387 . S
C120 C124 1.391 . S
C121 C120 1.387 . S
C121 C122 1.369 . S
C121 H130 0.929 . S
C122 N119 1.346 . S
C122 C121 1.369 . S
C122 H125 0.928 . S
C123 N119 1.345 . S
C123 C124 1.371 . S
C123 H126 0.931 . S
C124 C120 1.391 . S
C124 C123 1.371 . S
C124 H131 0.930 . S
H125 C122 0.928 . S
H126 C123 0.931 . S
H127 C103 0.930 . S
H128 C100 0.930 . S
H129 C109 0.930 . S
H130 C121 0.929 . S
H131 C124 0.930 . S
C132 C133 1.351 . S
C132 N135 1.368 . S
C132 H137 0.931 . S
C133 C132 1.351 . S
C133 N134 1.373 . S
C133 H161 0.930 . S
N134 C133 1.373 . S
N134 C136 1.340 . S
N135 C132 1.368 . S
N135 C136 1.321 . S
N135 Co138 2.135 . S
C136 N134 1.340 . S
C136 N135 1.321 . S
C136 H160 0.930 . S
H137 C132 0.931 . S
Co138 N135 2.135 . S
Co138 N141 2.121 . S
Co138 O146 2.055 . S
Co138 O149 2.039 . S
Co138 N152 2.140 . S
C139 O140 1.227 . S
C139 O149 1.265 . S
O140 C139 1.227 . S
N141 Co138 2.121 . S
N141 C143 1.375 . S
N141 C144 1.313 . S
C142 C143 1.338 . S
C142 N145 1.377 . S
C142 H162 0.930 . S
C143 N141 1.375 . S
C143 C142 1.338 . S
C143 H147 0.931 . S
C144 N141 1.313 . S
C144 N145 1.344 . S
C144 H148 0.930 . S
N145 C142 1.377 . S
N145 C144 1.344 . S
O146 Co138 2.055 . S
O146 C150 1.253 . S
H147 C143 0.931 . S
H148 C144 0.930 . S
O149 Co138 2.039 . S
O149 C139 1.265 . S
C150 O146 1.253 . S
C150 O151 1.227 . S
O151 C150 1.227 . S
N152 Co138 2.140 . S
N152 C155 1.346 . S
N152 C156 1.345 . S
C153 C154 1.387 . S
C153 C157 1.391 . S
C154 C153 1.387 . S
C154 C155 1.369 . S
C154 H163 0.929 . S
C155 N152 1.346 . S
C155 C154 1.369 . S
C155 H158 0.928 . S
C156 N152 1.345 . S
C156 C157 1.371 . S
C156 H159 0.931 . S
C157 C153 1.391 . S
C157 C156 1.371 . S
C157 H164 0.930 . S
H158 C155 0.928 . S
H159 C156 0.931 . S
H160 C136 0.930 . S
H161 C133 0.930 . S
H162 C142 0.930 . S
H163 C154 0.929 . S
H164 C157 0.930 . S
C165 C166 1.351 . S
C165 N168 1.368 . S
C165 H170 0.931 . S
C166 C165 1.351 . S
C166 N167 1.373 . S
C166 H194 0.930 . S
N167 C166 1.373 . S
N167 C169 1.340 . S
N168 C165 1.368 . S
N168 C169 1.321 . S
N168 Co171 2.135 . S
C169 N167 1.340 . S
C169 N168 1.321 . S
C169 H193 0.930 . S
H170 C165 0.931 . S
Co171 N168 2.135 . S
Co171 N174 2.121 . S
Co171 O179 2.055 . S
Co171 O182 2.039 . S
Co171 N185 2.140 . S
C172 O173 1.227 . S
C172 O182 1.265 . S
O173 C172 1.227 . S
N174 Co171 2.121 . S
N174 C176 1.375 . S
N174 C177 1.313 . S
C175 C176 1.338 . S
C175 N178 1.377 . S
C175 H195 0.930 . S
C176 N174 1.375 . S
C176 C175 1.338 . S
C176 H180 0.931 . S
C177 N174 1.313 . S
C177 N178 1.344 . S
C177 H181 0.930 . S
N178 C175 1.377 . S
N178 C177 1.344 . S
O179 Co171 2.055 . S
O179 C183 1.253 . S
H180 C176 0.931 . S
H181 C177 0.930 . S
O182 Co171 2.039 . S
O182 C172 1.265 . S
C183 O179 1.253 . S
C183 O184 1.227 . S
O184 C183 1.227 . S
N185 Co171 2.140 . S
N185 C188 1.346 . S
N185 C189 1.345 . S
C186 C187 1.387 . S
C186 C190 1.391 . S
C187 C186 1.387 . S
C187 C188 1.369 . S
C187 H196 0.929 . S
C188 N185 1.346 . S
C188 C187 1.369 . S
C188 H191 0.928 . S
C189 N185 1.345 . S
C189 C190 1.371 . S
C189 H192 0.931 . S
C190 C186 1.391 . S
C190 C189 1.371 . S
C190 H197 0.930 . S
H191 C188 0.928 . S
H192 C189 0.931 . S
H193 C169 0.930 . S
H194 C166 0.930 . S
H195 C175 0.930 . S
H196 C187 0.929 . S
H197 C190 0.930 . S
C198 C199 1.351 . S
C198 N201 1.368 . S
C198 H203 0.931 . S
C199 C198 1.351 . S
C199 N200 1.373 1_554 S
C199 H227 0.930 . S
N200 C199 1.373 1_556 S
N200 C202 1.340 1_556 S
N201 C198 1.368 . S
N201 C202 1.321 . S
N201 Co204 2.135 1_655 S
C202 N200 1.340 1_554 S
C202 N201 1.321 . S
C202 H226 0.930 1_554 S
H203 C198 0.931 . S
Co204 N201 2.135 1_455 S
Co204 N207 2.121 . S
Co204 O212 2.055 1_455 S
Co204 O215 2.039 . S
Co204 N218 2.140 . S
C205 O206 1.227 . S
C205 O215 1.265 . S
O206 C205 1.227 . S
N207 Co204 2.121 . S
N207 C209 1.375 . S
N207 C210 1.313 . S
C208 C209 1.338 . S
C208 N211 1.377 . S
C208 H228 0.930 . S
C209 N207 1.375 . S
C209 C208 1.338 . S
C209 H213 0.931 . S
C210 N207 1.313 . S
C210 N211 1.344 . S
C210 H214 0.930 . S
N211 C208 1.377 . S
N211 C210 1.344 . S
O212 Co204 2.055 1_655 S
O212 C216 1.253 . S
H213 C209 0.931 . S
H214 C210 0.930 . S
O215 Co204 2.039 . S
O215 C205 1.265 . S
C216 O212 1.253 . S
C216 O217 1.227 . S
O217 C216 1.227 . S
N218 Co204 2.140 . S
N218 C221 1.346 . S
N218 C222 1.345 . S
C219 C220 1.387 . S
C219 C223 1.391 . S
C220 C219 1.387 . S
C220 C221 1.369 . S
C220 H229 0.929 . S
C221 N218 1.346 . S
C221 C220 1.369 . S
C221 H224 0.928 . S
C222 N218 1.345 . S
C222 C223 1.371 . S
C222 H225 0.931 . S
C223 C219 1.391 . S
C223 C222 1.371 . S
C223 H230 0.930 . S
H224 C221 0.928 . S
H225 C222 0.931 . S
H226 C202 0.930 1_556 S
H227 C199 0.930 . S
H228 C208 0.930 . S
H229 C220 0.929 . S
H230 C223 0.930 . S
C231 C232 1.351 . S
C231 N234 1.368 . S
C231 H236 0.931 . S
C232 C231 1.351 . S
C232 N233 1.373 . S
C232 H260 0.930 . S
N233 C232 1.373 . S
N233 C235 1.340 . S
N234 C231 1.368 . S
N234 C235 1.321 . S
N234 Co237 2.135 . S
C235 N233 1.340 . S
C235 N234 1.321 . S
C235 H259 0.930 . S
H236 C231 0.931 . S
Co237 N234 2.135 . S
Co237 N240 2.121 . S
Co237 O245 2.055 . S
Co237 O248 2.039 . S
Co237 N251 2.140 . S
C238 O239 1.227 . S
C238 O248 1.265 . S
O239 C238 1.227 . S
N240 Co237 2.121 . S
N240 C242 1.375 . S
N240 C243 1.313 . S
C241 C242 1.338 . S
C241 N244 1.377 . S
C241 H261 0.930 . S
C242 N240 1.375 . S
C242 C241 1.338 . S
C242 H246 0.931 . S
C243 N240 1.313 . S
C243 N244 1.344 . S
C243 H247 0.930 . S
N244 C241 1.377 . S
N244 C243 1.344 . S
O245 Co237 2.055 . S
O245 C249 1.253 . S
H246 C242 0.931 . S
H247 C243 0.930 . S
O248 Co237 2.039 . S
O248 C238 1.265 . S
C249 O245 1.253 . S
C249 O250 1.227 . S
O250 C249 1.227 . S
N251 Co237 2.140 . S
N251 C254 1.346 . S
N251 C255 1.345 . S
C252 C253 1.387 . S
C252 C256 1.391 . S
C253 C252 1.387 . S
C253 C254 1.369 . S
C253 H262 0.929 . S
C254 N251 1.346 . S
C254 C253 1.369 . S
C254 H257 0.928 . S
C255 N251 1.345 . S
C255 C256 1.371 . S
C255 H258 0.931 . S
C256 C252 1.391 . S
C256 C255 1.371 . S
C256 H263 0.930 . S
H257 C254 0.928 . S
H258 C255 0.931 . S
H259 C235 0.930 . S
H260 C232 0.930 . S
H261 C241 0.930 . S
H262 C253 0.929 . S
H263 C256 0.930 . S
C264 C265 1.351 . S
C264 N267 1.368 . S
C264 H269 0.931 . S
C265 C264 1.351 . S
C265 N266 1.373 . S
C265 H293 0.930 . S
N266 C265 1.373 . S
N266 C268 1.340 . S
N267 C264 1.368 . S
N267 C268 1.321 . S
N267 Co270 2.135 . S
C268 N266 1.340 . S
C268 N267 1.321 . S
C268 H292 0.930 . S
H269 C264 0.931 . S
Co270 N267 2.135 . S
Co270 N273 2.121 . S
Co270 O278 2.055 . S
Co270 O281 2.039 . S
Co270 N284 2.140 . S
C271 O272 1.227 . S
C271 O281 1.265 . S
O272 C271 1.227 . S
N273 Co270 2.121 . S
N273 C275 1.375 . S
N273 C276 1.313 . S
C274 C275 1.338 . S
C274 N277 1.377 . S
C274 H294 0.930 . S
C275 N273 1.375 . S
C275 C274 1.338 . S
C275 H279 0.931 . S
C276 N273 1.313 . S
C276 N277 1.344 . S
C276 H280 0.930 . S
N277 C274 1.377 . S
N277 C276 1.344 . S
O278 Co270 2.055 . S
O278 C282 1.253 . S
H279 C275 0.931 . S
H280 C276 0.930 . S
O281 Co270 2.039 . S
O281 C271 1.265 . S
C282 O278 1.253 . S
C282 O283 1.227 . S
O283 C282 1.227 . S
N284 Co270 2.140 . S
N284 C287 1.346 . S
N284 C288 1.345 . S
C285 C286 1.387 . S
C285 C289 1.391 . S
C286 C285 1.387 . S
C286 C287 1.369 . S
C286 H295 0.929 . S
C287 N284 1.346 . S
C287 C286 1.369 . S
C287 H290 0.928 . S
C288 N284 1.345 . S
C288 C289 1.371 . S
C288 H291 0.931 . S
C289 C285 1.391 . S
C289 C288 1.371 . S
C289 H296 0.930 . S
H290 C287 0.928 . S
H291 C288 0.931 . S
H292 C268 0.930 . S
H293 C265 0.930 . S
H294 C274 0.930 . S
H295 C286 0.929 . S
H296 C289 0.930 . S
C297 C298 1.351 . S
C297 N300 1.368 . S
C297 H302 0.931 . S
C298 C297 1.351 . S
C298 N299 1.373 . S
C298 H326 0.930 . S
N299 C298 1.373 . S
N299 C301 1.340 . S
N300 C297 1.368 . S
N300 C301 1.321 . S
N300 Co303 2.135 . S
C301 N299 1.340 . S
C301 N300 1.321 . S
C301 H325 0.930 . S
H302 C297 0.931 . S
Co303 N300 2.135 . S
Co303 N306 2.121 . S
Co303 O311 2.055 . S
Co303 O314 2.039 . S
Co303 N317 2.140 . S
C304 O305 1.227 . S
C304 O314 1.265 . S
O305 C304 1.227 . S
N306 Co303 2.121 . S
N306 C308 1.375 . S
N306 C309 1.313 . S
C307 C308 1.338 . S
C307 N310 1.377 . S
C307 H327 0.930 . S
C308 N306 1.375 . S
C308 C307 1.338 . S
C308 H312 0.931 . S
C309 N306 1.313 . S
C309 N310 1.344 . S
C309 H313 0.930 . S
N310 C307 1.377 . S
N310 C309 1.344 . S
O311 Co303 2.055 . S
O311 C315 1.253 . S
H312 C308 0.931 . S
H313 C309 0.930 . S
O314 Co303 2.039 . S
O314 C304 1.265 . S
C315 O311 1.253 . S
C315 O316 1.227 . S
O316 C315 1.227 . S
N317 Co303 2.140 . S
N317 C320 1.346 . S
N317 C321 1.345 . S
C318 C319 1.387 . S
C318 C322 1.391 . S
C319 C318 1.387 . S
C319 C320 1.369 . S
C319 H328 0.929 . S
C320 N317 1.346 . S
C320 C319 1.369 . S
C320 H323 0.928 . S
C321 N317 1.345 . S
C321 C322 1.371 . S
C321 H324 0.931 . S
C322 C318 1.391 . S
C322 C321 1.371 . S
C322 H329 0.930 . S
H323 C320 0.928 . S
H324 C321 0.931 . S
H325 C301 0.930 . S
H326 C298 0.930 . S
H327 C307 0.930 . S
H328 C319 0.929 . S
H329 C322 0.930 . S
C330 C331 1.351 . S
C330 N333 1.368 . S
C330 H335 0.931 . S
C331 C330 1.351 . S
C331 N332 1.373 . S
C331 H359 0.930 . S
N332 C331 1.373 . S
N332 C334 1.340 . S
N333 C330 1.368 . S
N333 C334 1.321 . S
N333 Co336 2.135 . S
C334 N332 1.340 . S
C334 N333 1.321 . S
C334 H358 0.930 . S
H335 C330 0.931 . S
Co336 N333 2.135 . S
Co336 N339 2.121 . S
Co336 O344 2.055 . S
Co336 O347 2.039 . S
Co336 N350 2.140 . S
C337 O338 1.227 . S
C337 O347 1.265 . S
O338 C337 1.227 . S
N339 Co336 2.121 . S
N339 C341 1.375 . S
N339 C342 1.313 . S
C340 C341 1.338 . S
C340 N343 1.377 . S
C340 H360 0.930 . S
C341 N339 1.375 . S
C341 C340 1.338 . S
C341 H345 0.931 . S
C342 N339 1.313 . S
C342 N343 1.344 . S
C342 H346 0.930 . S
N343 C340 1.377 . S
N343 C342 1.344 . S
O344 Co336 2.055 . S
O344 C348 1.253 . S
H345 C341 0.931 . S
H346 C342 0.930 . S
O347 Co336 2.039 . S
O347 C337 1.265 . S
C348 O344 1.253 . S
C348 O349 1.227 . S
O349 C348 1.227 . S
N350 Co336 2.140 . S
N350 C353 1.346 . S
N350 C354 1.345 . S
C351 C352 1.387 . S
C351 C355 1.391 . S
C352 C351 1.387 . S
C352 C353 1.369 . S
C352 H361 0.929 . S
C353 N350 1.346 . S
C353 C352 1.369 . S
C353 H356 0.928 . S
C354 N350 1.345 . S
C354 C355 1.371 . S
C354 H357 0.931 . S
C355 C351 1.391 . S
C355 C354 1.371 . S
C355 H362 0.930 . S
H356 C353 0.928 . S
H357 C354 0.931 . S
H358 C334 0.930 . S
H359 C331 0.930 . S
H360 C340 0.930 . S
H361 C352 0.929 . S
H362 C355 0.930 . S
C363 C364 1.351 . S
C363 N366 1.368 . S
C363 H368 0.931 . S
C364 C363 1.351 . S
C364 N365 1.373 . S
C364 H392 0.930 . S
N365 C364 1.373 . S
N365 C367 1.340 . S
N366 C363 1.368 . S
N366 C367 1.321 . S
N366 Co369 2.135 . S
C367 N365 1.340 . S
C367 N366 1.321 . S
C367 H391 0.930 . S
H368 C363 0.931 . S
Co369 N366 2.135 . S
Co369 N372 2.121 . S
Co369 O377 2.055 . S
Co369 O380 2.039 . S
Co369 N383 2.140 . S
C370 O371 1.227 . S
C370 O380 1.265 . S
O371 C370 1.227 . S
N372 Co369 2.121 . S
N372 C374 1.375 . S
N372 C375 1.313 . S
C373 C374 1.338 . S
C373 N376 1.377 . S
C373 H393 0.930 . S
C374 N372 1.375 . S
C374 C373 1.338 . S
C374 H378 0.931 . S
C375 N372 1.313 . S
C375 N376 1.344 . S
C375 H379 0.930 . S
N376 C373 1.377 . S
N376 C375 1.344 . S
O377 Co369 2.055 . S
O377 C381 1.253 . S
H378 C374 0.931 . S
H379 C375 0.930 . S
O380 Co369 2.039 . S
O380 C370 1.265 . S
C381 O377 1.253 . S
C381 O382 1.227 . S
O382 C381 1.227 . S
N383 Co369 2.140 . S
N383 C386 1.346 . S
N383 C387 1.345 . S
C384 C385 1.387 . S
C384 C388 1.391 . S
C385 C384 1.387 . S
C385 C386 1.369 . S
C385 H394 0.929 . S
C386 N383 1.346 . S
C386 C385 1.369 . S
C386 H389 0.928 . S
C387 N383 1.345 . S
C387 C388 1.371 . S
C387 H390 0.931 . S
C388 C384 1.391 . S
C388 C387 1.371 . S
C388 H395 0.930 . S
H389 C386 0.928 . S
H390 C387 0.931 . S
H391 C367 0.930 . S
H392 C364 0.930 . S
H393 C373 0.930 . S
H394 C385 0.929 . S
H395 C388 0.930 . S
C396 C397 1.351 . S
C396 N399 1.368 . S
C396 H401 0.931 . S
C397 C396 1.351 . S
C397 N398 1.373 1_556 S
C397 H425 0.930 . S
N398 C397 1.373 1_554 S
N398 C400 1.340 1_554 S
N399 C396 1.368 . S
N399 C400 1.321 . S
N399 Co402 2.135 . S
C400 N398 1.340 1_556 S
C400 N399 1.321 . S
C400 H424 0.930 1_556 S
H401 C396 0.931 . S
Co402 N399 2.135 . S
Co402 N405 2.121 1_455 S
Co402 O410 2.055 . S
Co402 O413 2.039 1_455 S
Co402 N416 2.140 . S
C403 O404 1.227 . S
C403 O413 1.265 . S
O404 C403 1.227 . S
N405 Co402 2.121 1_655 S
N405 C407 1.375 . S
N405 C408 1.313 . S
C406 C407 1.338 . S
C406 N409 1.377 . S
C406 H426 0.930 . S
C407 N405 1.375 . S
C407 C406 1.338 . S
C407 H411 0.931 . S
C408 N405 1.313 . S
C408 N409 1.344 . S
C408 H412 0.930 . S
N409 C406 1.377 . S
N409 C408 1.344 . S
O410 Co402 2.055 . S
O410 C414 1.253 . S
H411 C407 0.931 . S
H412 C408 0.930 . S
O413 Co402 2.039 1_655 S
O413 C403 1.265 . S
C414 O410 1.253 . S
C414 O415 1.227 . S
O415 C414 1.227 . S
N416 Co402 2.140 . S
N416 C419 1.346 . S
N416 C420 1.345 . S
C417 C418 1.387 . S
C417 C421 1.391 . S
C418 C417 1.387 . S
C418 C419 1.369 . S
C418 H427 0.929 . S
C419 N416 1.346 . S
C419 C418 1.369 . S
C419 H422 0.928 . S
C420 N416 1.345 . S
C420 C421 1.371 . S
C420 H423 0.931 . S
C421 C417 1.391 . S
C421 C420 1.371 . S
C421 H428 0.930 . S
H422 C419 0.928 . S
H423 C420 0.931 . S
H424 C400 0.930 1_554 S
H425 C397 0.930 . S
H426 C406 0.930 . S
H427 C418 0.929 . S
H428 C421 0.930 . S
C429 C430 1.351 . S
C429 N432 1.368 . S
C429 H434 0.931 . S
C430 C429 1.351 . S
C430 N431 1.373 . S
C430 H458 0.930 . S
N431 C430 1.373 . S
N431 C433 1.340 . S
N432 C429 1.368 . S
N432 C433 1.321 . S
N432 Co435 2.135 . S
C433 N431 1.340 . S
C433 N432 1.321 . S
C433 H457 0.930 . S
H434 C429 0.931 . S
Co435 N432 2.135 . S
Co435 N438 2.121 . S
Co435 O443 2.055 . S
Co435 O446 2.039 . S
Co435 N449 2.140 . S
C436 O437 1.227 . S
C436 O446 1.265 . S
O437 C436 1.227 . S
N438 Co435 2.121 . S
N438 C440 1.375 . S
N438 C441 1.313 . S
C439 C440 1.338 . S
C439 N442 1.377 . S
C439 H459 0.930 . S
C440 N438 1.375 . S
C440 C439 1.338 . S
C440 H444 0.931 . S
C441 N438 1.313 . S
C441 N442 1.344 . S
C441 H445 0.930 . S
N442 C439 1.377 . S
N442 C441 1.344 . S
O443 Co435 2.055 . S
O443 C447 1.253 . S
H444 C440 0.931 . S
H445 C441 0.930 . S
O446 Co435 2.039 . S
O446 C436 1.265 . S
C447 O443 1.253 . S
C447 O448 1.227 . S
O448 C447 1.227 . S
N449 Co435 2.140 . S
N449 C452 1.346 . S
N449 C453 1.345 . S
C450 C451 1.387 . S
C450 C454 1.391 . S
C451 C450 1.387 . S
C451 C452 1.369 . S
C451 H460 0.929 . S
C452 N449 1.346 . S
C452 C451 1.369 . S
C452 H455 0.928 . S
C453 N449 1.345 . S
C453 C454 1.371 . S
C453 H456 0.931 . S
C454 C450 1.391 . S
C454 C453 1.371 . S
C454 H461 0.930 . S
H455 C452 0.928 . S
H456 C453 0.931 . S
H457 C433 0.930 . S
H458 C430 0.930 . S
H459 C439 0.930 . S
H460 C451 0.929 . S
H461 C454 0.930 . S
C462 C463 1.351 . S
C462 N465 1.368 . S
C462 H467 0.931 . S
C463 C462 1.351 . S
C463 N464 1.373 1_554 S
C463 H491 0.930 . S
N464 C463 1.373 1_556 S
N464 C466 1.340 1_556 S
N465 C462 1.368 . S
N465 C466 1.321 . S
N465 Co468 2.135 . S
C466 N464 1.340 1_554 S
C466 N465 1.321 . S
C466 H490 0.930 1_554 S
H467 C462 0.931 . S
Co468 N465 2.135 . S
Co468 N471 2.121 1_455 S
Co468 O476 2.055 . S
Co468 O479 2.039 1_455 S
Co468 N482 2.140 . S
C469 O470 1.227 . S
C469 O479 1.265 . S
O470 C469 1.227 . S
N471 Co468 2.121 1_655 S
N471 C473 1.375 . S
N471 C474 1.313 . S
C472 C473 1.338 . S
C472 N475 1.377 . S
C472 H492 0.930 . S
C473 N471 1.375 . S
C473 C472 1.338 . S
C473 H477 0.931 . S
C474 N471 1.313 . S
C474 N475 1.344 . S
C474 H478 0.930 . S
N475 C472 1.377 . S
N475 C474 1.344 . S
O476 Co468 2.055 . S
O476 C480 1.253 . S
H477 C473 0.931 . S
H478 C474 0.930 . S
O479 Co468 2.039 1_655 S
O479 C469 1.265 . S
C480 O476 1.253 . S
C480 O481 1.227 . S
O481 C480 1.227 . S
N482 Co468 2.140 . S
N482 C485 1.346 . S
N482 C486 1.345 . S
C483 C484 1.387 . S
C483 C487 1.391 . S
C484 C483 1.387 . S
C484 C485 1.369 . S
C484 H493 0.929 . S
C485 N482 1.346 . S
C485 C484 1.369 . S
C485 H488 0.928 . S
C486 N482 1.345 . S
C486 C487 1.371 . S
C486 H489 0.931 . S
C487 C483 1.391 . S
C487 C486 1.371 . S
C487 H494 0.930 . S
H488 C485 0.928 . S
H489 C486 0.931 . S
H490 C466 0.930 1_556 S
H491 C463 0.930 . S
H492 C472 0.930 . S
H493 C484 0.929 . S
H494 C487 0.930 . S
C495 C496 1.351 . S
C495 N498 1.368 . S
C495 H500 0.931 . S
C496 C495 1.351 . S
C496 N497 1.373 . S
C496 H524 0.930 . S
N497 C496 1.373 . S
N497 C499 1.340 . S
N498 C495 1.368 . S
N498 C499 1.321 . S
N498 Co501 2.135 . S
C499 N497 1.340 . S
C499 N498 1.321 . S
C499 H523 0.930 . S
H500 C495 0.931 . S
Co501 N498 2.135 . S
Co501 N504 2.121 . S
Co501 O509 2.055 . S
Co501 O512 2.039 . S
Co501 N515 2.140 . S
C502 O503 1.227 . S
C502 O512 1.265 . S
O503 C502 1.227 . S
N504 Co501 2.121 . S
N504 C506 1.375 . S
N504 C507 1.313 . S
C505 C506 1.338 . S
C505 N508 1.377 . S
C505 H525 0.930 . S
C506 N504 1.375 . S
C506 C505 1.338 . S
C506 H510 0.931 . S
C507 N504 1.313 . S
C507 N508 1.344 . S
C507 H511 0.930 . S
N508 C505 1.377 . S
N508 C507 1.344 . S
O509 Co501 2.055 . S
O509 C513 1.253 . S
H510 C506 0.931 . S
H511 C507 0.930 . S
O512 Co501 2.039 . S
O512 C502 1.265 . S
C513 O509 1.253 . S
C513 O514 1.227 . S
O514 C513 1.227 . S
N515 Co501 2.140 . S
N515 C518 1.346 . S
N515 C519 1.345 . S
C516 C517 1.387 . S
C516 C520 1.391 . S
C517 C516 1.387 . S
C517 C518 1.369 . S
C517 H526 0.929 . S
C518 N515 1.346 . S
C518 C517 1.369 . S
C518 H521 0.928 . S
C519 N515 1.345 . S
C519 C520 1.371 . S
C519 H522 0.931 . S
C520 C516 1.391 . S
C520 C519 1.371 . S
C520 H527 0.930 . S
H521 C518 0.928 . S
H522 C519 0.931 . S
H523 C499 0.930 . S
H524 C496 0.930 . S
H525 C505 0.930 . S
H526 C517 0.929 . S
H527 C520 0.930 . S
H528 C536 0.950 . S
H529 C541 0.950 . S
H530 C538 0.950 . S
H531 C540 0.950 . S
H532 C542 0.950 . S
H533 C544 0.950 . S
H534 C546 0.950 . S
H535 C547 0.950 . S
C536 H528 0.950 . S
C536 C537 1.386 . S
C536 C538 1.391 . S
C537 C536 1.386 . S
C537 C541 1.393 . S
C538 H530 0.950 . S
C538 C536 1.391 . S
C538 C539 1.400 . S
C539 C538 1.400 . S
C539 C540 1.398 . S
C539 C545 1.491 1_545 S
C540 H531 0.950 . S
C540 C539 1.398 . S
C540 C541 1.391 . S
C541 H529 0.950 . S
C541 C537 1.393 . S
C541 C540 1.391 . S
C542 H532 0.950 . S
C542 C543 1.386 . S
C542 C544 1.391 . S
C543 C542 1.386 . S
C543 C547 1.393 . S
C544 H533 0.950 . S
C544 C542 1.391 . S
C544 C545 1.400 . S
C545 C539 1.491 1_565 S
C545 C544 1.400 . S
C545 C546 1.398 . S
C546 H534 0.950 . S
C546 C545 1.398 . S
C546 C547 1.391 . S
C547 H535 0.950 . S
C547 C543 1.393 . S
C547 C546 1.391 . S
H548 C556 0.950 . S
H549 C561 0.950 . S
H550 C558 0.950 . S
H551 C560 0.950 . S
H552 C562 0.950 . S
H553 C564 0.950 . S
H554 C566 0.950 . S
H555 C567 0.950 . S
C556 H548 0.950 . S
C556 C557 1.386 . S
C556 C558 1.391 . S
C557 C556 1.386 . S
C557 C561 1.393 . S
C558 H550 0.950 . S
C558 C556 1.391 . S
C558 C559 1.400 . S
C559 C558 1.400 . S
C559 C560 1.398 . S
C559 C565 1.491 . S
C560 H551 0.950 . S
C560 C559 1.398 . S
C560 C561 1.391 . S
C561 H549 0.950 . S
C561 C557 1.393 . S
C561 C560 1.391 . S
C562 H552 0.950 . S
C562 C563 1.386 . S
C562 C564 1.391 . S
C563 C562 1.386 . S
C563 C567 1.393 . S
C564 H553 0.950 . S
C564 C562 1.391 . S
C564 C565 1.400 . S
C565 C559 1.491 . S
C565 C564 1.400 . S
C565 C566 1.398 . S
C566 H554 0.950 . S
C566 C565 1.398 . S
C566 C567 1.391 . S
C567 H555 0.950 . S
C567 C563 1.393 . S
C567 C566 1.391 . S
H568 C576 0.950 . S
H569 C581 0.950 . S
H570 C578 0.950 . S
H571 C580 0.950 1_556 S
H572 C582 0.950 . S
H573 C584 0.950 . S
H574 C586 0.950 1_554 S
H575 C587 0.950 . S
C576 H568 0.950 . S
C576 C577 1.386 1_655 S
C576 C578 1.391 . S
C577 C576 1.386 1_455 S
C577 C581 1.393 . S
C578 H570 0.950 . S
C578 C576 1.391 . S
C578 C579 1.400 1_655 S
C579 C578 1.400 1_455 S
C579 C580 1.398 . S
C579 C585 1.491 1_544 S
C580 H571 0.950 1_554 S
C580 C579 1.398 . S
C580 C581 1.391 . S
C581 H569 0.950 . S
C581 C577 1.393 . S
C581 C580 1.391 . S
C582 H572 0.950 . S
C582 C583 1.386 . S
C582 C584 1.391 . S
C583 C582 1.386 . S
C583 C587 1.393 1_455 S
C584 H573 0.950 . S
C584 C582 1.391 . S
C584 C585 1.400 . S
C585 C579 1.491 1_566 S
C585 C584 1.400 . S
C585 C586 1.398 1_455 S
C586 H574 0.950 1_556 S
C586 C585 1.398 1_655 S
C586 C587 1.391 . S
C587 H575 0.950 . S
C587 C583 1.393 1_655 S
C587 C586 1.391 . S
H588 C596 0.950 . S
H589 C601 0.950 . S
H590 C598 0.950 . S
H591 C600 0.950 . S
H592 C602 0.950 . S
H593 C604 0.950 . S
H594 C606 0.950 . S
H595 C607 0.950 . S
C596 H588 0.950 . S
C596 C597 1.386 . S
C596 C598 1.391 . S
C597 C596 1.386 . S
C597 C601 1.393 . S
C598 H590 0.950 . S
C598 C596 1.391 . S
C598 C599 1.400 . S
C599 C598 1.400 . S
C599 C600 1.398 . S
C599 C605 1.491 . S
C600 H591 0.950 . S
C600 C599 1.398 . S
C600 C601 1.391 . S
C601 H589 0.950 . S
C601 C597 1.393 . S
C601 C600 1.391 . S
C602 H592 0.950 . S
C602 C603 1.386 . S
C602 C604 1.391 . S
C603 C602 1.386 . S
C603 C607 1.393 . S
C604 H593 0.950 . S
C604 C602 1.391 . S
C604 C605 1.400 . S
C605 C599 1.491 . S
C605 C604 1.400 . S
C605 C606 1.398 . S
C606 H594 0.950 . S
C606 C605 1.398 . S
C606 C607 1.391 . S
C607 H595 0.950 . S
C607 C603 1.393 . S
C607 C606 1.391 . S
H608 C616 0.950 . S
H609 C621 0.950 . S
H610 C618 0.950 . S
H611 C620 0.950 . S
H612 C622 0.950 . S
H613 C624 0.950 . S
H614 C626 0.950 . S
H615 C627 0.950 . S
C616 H608 0.950 . S
C616 C617 1.386 . S
C616 C618 1.391 . S
C617 C616 1.386 . S
C617 C621 1.393 . S
C618 H610 0.950 . S
C618 C616 1.391 . S
C618 C619 1.400 . S
C619 C618 1.400 . S
C619 C620 1.398 . S
C619 C625 1.491 . S
C620 H611 0.950 . S
C620 C619 1.398 . S
C620 C621 1.391 . S
C621 H609 0.950 . S
C621 C617 1.393 . S
C621 C620 1.391 . S
C622 H612 0.950 . S
C622 C623 1.386 . S
C622 C624 1.391 . S
C623 C622 1.386 . S
C623 C627 1.393 . S
C624 H613 0.950 . S
C624 C622 1.391 . S
C624 C625 1.400 . S
C625 C619 1.491 . S
C625 C624 1.400 . S
C625 C626 1.398 . S
C626 H614 0.950 . S
C626 C625 1.398 . S
C626 C627 1.391 . S
C627 H615 0.950 . S
C627 C623 1.393 . S
C627 C626 1.391 . S
H628 C636 0.950 . S
H629 C641 0.950 . S
H630 C638 0.950 . S
H631 C640 0.950 . S
H632 C642 0.950 . S
H633 C644 0.950 . S
H634 C646 0.950 . S
H635 C647 0.950 . S
C636 H628 0.950 . S
C636 C637 1.386 . S
C636 C638 1.391 . S
C637 C636 1.386 . S
C637 C641 1.393 . S
C638 H630 0.950 . S
C638 C636 1.391 . S
C638 C639 1.400 . S
C639 C638 1.400 . S
C639 C640 1.398 . S
C639 C645 1.491 . S
C640 H631 0.950 . S
C640 C639 1.398 . S
C640 C641 1.391 . S
C641 H629 0.950 . S
C641 C637 1.393 . S
C641 C640 1.391 . S
C642 H632 0.950 . S
C642 C643 1.386 . S
C642 C644 1.391 . S
C643 C642 1.386 . S
C643 C647 1.393 . S
C644 H633 0.950 . S
C644 C642 1.391 . S
C644 C645 1.400 . S
C645 C639 1.491 . S
C645 C644 1.400 . S
C645 C646 1.398 . S
C646 H634 0.950 . S
C646 C645 1.398 . S
C646 C647 1.391 . S
C647 H635 0.950 . S
C647 C643 1.393 . S
C647 C646 1.391 . S
H648 C656 0.950 . S
H649 C661 0.950 . S
H650 C658 0.950 . S
H651 C660 0.950 . S
H652 C662 0.950 . S
H653 C664 0.950 . S
H654 C666 0.955 . S
H655 C667 0.960 . S
C656 H648 0.950 . S
C656 C657 1.386 1_655 S
C656 C658 1.391 1_556 S
C657 C656 1.386 1_455 S
C657 C661 1.393 . S
C658 H650 0.950 . S
C658 C656 1.391 1_554 S
C658 C659 1.400 1_654 S
C659 C658 1.400 1_456 S
C659 C660 1.398 . S
C659 C665 1.491 1_556 S
C660 H651 0.950 . S
C660 C659 1.398 . S
C660 C661 1.391 . S
C661 H649 0.950 . S
C661 C657 1.393 . S
C661 C660 1.391 . S
C662 H652 0.950 . S
C662 C663 1.386 . S
C662 C664 1.391 1_554 S
C663 C662 1.386 . S
C663 C667 1.384 1_455 S
C664 H653 0.950 . S
C664 C662 1.391 1_556 S
C664 C665 1.400 1_556 S
C665 C659 1.491 1_554 S
C665 C664 1.400 1_554 S
C665 C666 1.393 1_455 S
C666 H654 0.955 . S
C666 C665 1.393 1_655 S
C666 C667 1.391 . S
C667 H655 0.960 . S
C667 C663 1.384 1_655 S
C667 C666 1.391 . S
H668 C676 0.950 . S
H669 C681 0.950 . S
H670 C678 0.950 . S
H671 C680 0.950 . S
H672 C682 0.950 . S
H673 C684 0.950 . S
H674 C686 0.950 . S
H675 C687 0.950 . S
C676 H668 0.950 . S
C676 C677 1.386 . S
C676 C678 1.391 . S
C677 C676 1.386 . S
C677 C681 1.393 . S
C678 H670 0.950 . S
C678 C676 1.391 . S
C678 C679 1.400 . S
C679 C678 1.400 . S
C679 C680 1.398 . S
C679 C685 1.491 . S
C680 H671 0.950 . S
C680 C679 1.398 . S
C680 C681 1.391 . S
C681 H669 0.950 . S
C681 C677 1.393 . S
C681 C680 1.391 . S
C682 H672 0.950 . S
C682 C683 1.386 . S
C682 C684 1.391 . S
C683 C682 1.386 . S
C683 C687 1.393 . S
C684 H673 0.950 . S
C684 C682 1.391 . S
C684 C685 1.400 . S
C685 C679 1.491 . S
C685 C684 1.400 . S
C685 C686 1.398 . S
C686 H674 0.950 . S
C686 C685 1.398 . S
C686 C687 1.391 . S
C687 H675 0.950 . S
C687 C683 1.393 . S
C687 C686 1.391 . S
H688 C696 0.950 . S
H689 C701 0.950 . S
H690 C698 0.950 . S
H691 C700 0.950 . S
H692 C702 0.950 1_556 S
H693 C704 0.950 . S
H694 C706 0.950 . S
H695 C707 0.950 . S
C696 H688 0.950 . S
C696 C697 1.386 . S
C696 C698 1.391 . S
C697 C696 1.386 . S
C697 C701 1.393 . S
C698 H690 0.950 . S
C698 C696 1.391 . S
C698 C699 1.400 . S
C699 C698 1.400 . S
C699 C700 1.398 . S
C699 C705 1.491 . S
C700 H691 0.950 . S
C700 C699 1.398 . S
C700 C701 1.391 . S
C701 H689 0.950 . S
C701 C697 1.393 . S
C701 C700 1.391 . S
C702 H692 0.950 1_554 S
C702 C703 1.386 . S
C702 C704 1.391 . S
C703 C702 1.386 . S
C703 C707 1.393 . S
C704 H693 0.950 . S
C704 C702 1.391 . S
C704 C705 1.400 . S
C705 C699 1.491 . S
C705 C704 1.400 . S
C705 C706 1.398 . S
C706 H694 0.950 . S
C706 C705 1.398 . S
C706 C707 1.391 . S
C707 H695 0.950 . S
C707 C703 1.393 . S
C707 C706 1.391 . S
H708 C716 0.950 . S
H709 C721 0.950 . S
H710 C718 0.950 . S
H711 C720 0.950 . S
H712 C722 0.950 . S
H713 C724 0.950 . S
H714 C726 0.950 . S
H715 C727 0.950 . S
C716 H708 0.950 . S
C716 C717 1.386 . S
C716 C718 1.391 . S
C717 C716 1.386 . S
C717 C721 1.393 . S
C718 H710 0.950 . S
C718 C716 1.391 . S
C718 C719 1.400 . S
C719 C718 1.400 . S
C719 C720 1.398 . S
C719 C725 1.491 . S
C720 H711 0.950 . S
C720 C719 1.398 . S
C720 C721 1.391 . S
C721 H709 0.950 . S
C721 C717 1.393 . S
C721 C720 1.391 . S
C722 H712 0.950 . S
C722 C723 1.386 . S
C722 C724 1.391 . S
C723 C722 1.386 . S
C723 C727 1.393 . S
C724 H713 0.950 . S
C724 C722 1.391 . S
C724 C725 1.400 . S
C725 C719 1.491 . S
C725 C724 1.400 . S
C725 C726 1.398 . S
C726 H714 0.950 . S
C726 C725 1.398 . S
C726 C727 1.391 . S
C727 H715 0.950 . S
C727 C723 1.393 . S
C727 C726 1.391 . S
H728 C736 0.950 . S
H729 C741 0.950 . S
H730 C738 0.950 . S
H731 C740 0.950 . S
H732 C742 0.950 . S
H733 C744 0.950 . S
H734 C746 0.950 . S
H735 C747 0.950 . S
C736 H728 0.950 . S
C736 C737 1.386 . S
C736 C738 1.391 . S
C737 C736 1.386 . S
C737 C741 1.393 . S
C738 H730 0.950 . S
C738 C736 1.391 . S
C738 C739 1.400 . S
C739 C738 1.400 . S
C739 C740 1.398 . S
C739 C745 1.491 . S
C740 H731 0.950 . S
C740 C739 1.398 . S
C740 C741 1.391 . S
C741 H729 0.950 . S
C741 C737 1.393 . S
C741 C740 1.391 . S
C742 H732 0.950 . S
C742 C743 1.386 . S
C742 C744 1.391 . S
C743 C742 1.386 . S
C743 C747 1.393 . S
C744 H733 0.950 . S
C744 C742 1.391 . S
C744 C745 1.400 . S
C745 C739 1.491 . S
C745 C744 1.400 . S
C745 C746 1.398 . S
C746 H734 0.950 . S
C746 C745 1.398 . S
C746 C747 1.391 . S
C747 H735 0.950 . S
C747 C743 1.393 . S
C747 C746 1.391 . S
H748 C756 0.950 . S
H749 C761 0.950 1_554 S
H750 C758 0.950 . S
H751 C760 0.950 . S
H752 C762 0.950 . S
H753 C764 0.950 . S
H754 C766 0.950 . S
H755 C767 0.950 . S
C756 H748 0.950 . S
C756 C757 1.386 . S
C756 C758 1.391 . S
C757 C756 1.386 . S
C757 C761 1.393 . S
C758 H750 0.950 . S
C758 C756 1.391 . S
C758 C759 1.400 . S
C759 C758 1.400 . S
C759 C760 1.398 . S
C759 C765 1.491 . S
C760 H751 0.950 . S
C760 C759 1.398 . S
C760 C761 1.391 . S
C761 H749 0.950 1_556 S
C761 C757 1.393 . S
C761 C760 1.391 . S
C762 H752 0.950 . S
C762 C763 1.386 . S
C762 C764 1.391 . S
C763 C762 1.386 . S
C763 C767 1.393 . S
C764 H753 0.950 . S
C764 C762 1.391 . S
C764 C765 1.400 . S
C765 C759 1.491 . S
C765 C764 1.400 . S
C765 C766 1.398 . S
C766 H754 0.950 . S
C766 C765 1.398 . S
C766 C767 1.391 . S
C767 H755 0.950 . S
C767 C763 1.393 . S
C767 C766 1.391 . S
H768 C776 0.950 . S
H769 C781 0.950 . S
H770 C778 0.950 . S
H771 C780 0.950 . S
H772 C782 0.950 . S
H773 C784 0.950 . S
H774 C786 0.950 . S
H775 C787 0.950 . S
C776 H768 0.950 . S
C776 C777 1.386 . S
C776 C778 1.391 . S
C777 C776 1.386 . S
C777 C781 1.393 . S
C778 H770 0.950 . S
C778 C776 1.391 . S
C778 C779 1.400 . S
C779 C778 1.400 . S
C779 C780 1.398 . S
C779 C785 1.491 . S
C780 H771 0.950 . S
C780 C779 1.398 . S
C780 C781 1.391 . S
C781 H769 0.950 . S
C781 C777 1.393 . S
C781 C780 1.391 . S
C782 H772 0.950 . S
C782 C783 1.386 . S
C782 C784 1.391 . S
C783 C782 1.386 . S
C783 C787 1.393 . S
C784 H773 0.950 . S
C784 C782 1.391 . S
C784 C785 1.400 . S
C785 C779 1.491 . S
C785 C784 1.400 . S
C785 C786 1.398 . S
C786 H774 0.950 . S
C786 C785 1.398 . S
C786 C787 1.391 . S
C787 H775 0.950 . S
C787 C783 1.393 . S
C787 C786 1.391 . S
H788 C796 0.950 . S
H789 C801 0.950 . S
H790 C798 0.950 . S
H791 C800 0.950 . S
H792 C802 0.950 . S
H793 C804 0.950 . S
H794 C806 0.950 . S
H795 C807 0.950 . S
C796 H788 0.950 . S
C796 C797 1.386 . S
C796 C798 1.391 . S
C797 C796 1.386 . S
C797 C801 1.393 . S
C798 H790 0.950 . S
C798 C796 1.391 . S
C798 C799 1.400 . S
C799 C798 1.400 . S
C799 C800 1.398 . S
C799 C805 1.491 . S
C800 H791 0.950 . S
C800 C799 1.398 . S
C800 C801 1.391 . S
C801 H789 0.950 . S
C801 C797 1.393 . S
C801 C800 1.391 . S
C802 H792 0.950 . S
C802 C803 1.386 . S
C802 C804 1.391 . S
C803 C802 1.386 . S
C803 C807 1.393 . S
C804 H793 0.950 . S
C804 C802 1.391 . S
C804 C805 1.400 . S
C805 C799 1.491 . S
C805 C804 1.400 . S
C805 C806 1.398 . S
C806 H794 0.950 . S
C806 C805 1.398 . S
C806 C807 1.391 . S
C807 H795 0.950 . S
C807 C803 1.393 . S
C807 C806 1.391 . S
H808 C816 0.950 . S
H809 C821 0.950 . S
H810 C818 0.950 . S
H811 C820 0.950 . S
H812 C822 0.950 . S
H813 C824 0.950 . S
H814 C826 0.950 . S
H815 C827 0.950 . S
C816 H808 0.950 . S
C816 C817 1.386 . S
C816 C818 1.391 . S
C817 C816 1.386 . S
C817 C821 1.393 . S
C818 H810 0.950 . S
C818 C816 1.391 . S
C818 C819 1.400 . S
C819 C818 1.400 . S
C819 C820 1.398 . S
C819 C825 1.491 . S
C820 H811 0.950 . S
C820 C819 1.398 . S
C820 C821 1.391 . S
C821 H809 0.950 . S
C821 C817 1.393 . S
C821 C820 1.391 . S
C822 H812 0.950 . S
C822 C823 1.386 . S
C822 C824 1.391 . S
C823 C822 1.386 . S
C823 C827 1.393 . S
C824 H813 0.950 . S
C824 C822 1.391 . S
C824 C825 1.400 . S
C825 C819 1.491 . S
C825 C824 1.400 . S
C825 C826 1.398 . S
C826 H814 0.950 . S
C826 C825 1.398 . S
C826 C827 1.391 . S
C827 H815 0.950 . S
C827 C823 1.393 . S
C827 C826 1.391 . S
H828 C836 0.950 . S
H829 C841 0.950 . S
H830 C838 0.950 . S
H831 C840 0.950 . S
H832 C842 0.950 1_556 S
H833 C844 0.950 . S
H834 C846 0.950 . S
H835 C847 0.950 . S
C836 H828 0.950 . S
C836 C837 1.386 . S
C836 C838 1.391 . S
C837 C836 1.386 . S
C837 C841 1.393 . S
C838 H830 0.950 . S
C838 C836 1.391 . S
C838 C839 1.400 . S
C839 C838 1.400 . S
C839 C840 1.398 . S
C839 C845 1.491 . S
C840 H831 0.950 . S
C840 C839 1.398 . S
C840 C841 1.391 . S
C841 H829 0.950 . S
C841 C837 1.393 . S
C841 C840 1.391 . S
C842 H832 0.950 1_554 S
C842 C843 1.386 . S
C842 C844 1.391 . S
C843 C842 1.386 . S
C843 C847 1.393 . S
C844 H833 0.950 . S
C844 C842 1.391 . S
C844 C845 1.400 . S
C845 C839 1.491 . S
C845 C844 1.400 . S
C845 C846 1.398 . S
C846 H834 0.950 . S
C846 C845 1.398 . S
C846 C847 1.391 . S
C847 H835 0.950 . S
C847 C843 1.393 . S
C847 C846 1.391 . S
H848 C856 0.950 . S
H849 C861 0.950 . S
H850 C858 0.950 . S
H851 C860 0.950 . S
H852 C862 0.950 . S
H853 C864 0.950 . S
H854 C866 0.950 . S
H855 C867 0.950 . S
C856 H848 0.950 . S
C856 C857 1.386 . S
C856 C858 1.391 . S
C857 C856 1.386 . S
C857 C861 1.393 . S
C858 H850 0.950 . S
C858 C856 1.391 . S
C858 C859 1.400 . S
C859 C858 1.400 . S
C859 C860 1.398 . S
C859 C865 1.491 . S
C860 H851 0.950 . S
C860 C859 1.398 . S
C860 C861 1.391 . S
C861 H849 0.950 . S
C861 C857 1.393 . S
C861 C860 1.391 . S
C862 H852 0.950 . S
C862 C863 1.386 . S
C862 C864 1.391 . S
C863 C862 1.386 . S
C863 C867 1.393 . S
C864 H853 0.950 . S
C864 C862 1.391 . S
C864 C865 1.400 . S
C865 C859 1.491 . S
C865 C864 1.400 . S
C865 C866 1.398 . S
C866 H854 0.950 . S
C866 C865 1.398 . S
C866 C867 1.391 . S
C867 H855 0.950 . S
C867 C863 1.393 . S
C867 C866 1.391 . S
H868 C876 0.950 . S
H869 C881 0.950 . S
H870 C878 0.950 . S
H871 C880 0.950 . S
H872 C882 0.950 . S
H873 C884 0.950 . S
H874 C886 0.950 . S
H875 C887 0.950 . S
C876 H868 0.950 . S
C876 C877 1.386 . S
C876 C878 1.391 . S
C877 C876 1.386 . S
C877 C881 1.393 . S
C878 H870 0.950 . S
C878 C876 1.391 . S
C878 C879 1.400 . S
C879 C878 1.400 . S
C879 C880 1.398 . S
C879 C885 1.491 . S
C880 H871 0.950 . S
C880 C879 1.398 . S
C880 C881 1.391 . S
C881 H869 0.950 . S
C881 C877 1.393 . S
C881 C880 1.391 . S
C882 H872 0.950 . S
C882 C883 1.386 . S
C882 C884 1.391 . S
C883 C882 1.386 . S
C883 C887 1.393 . S
C884 H873 0.950 . S
C884 C882 1.391 . S
C884 C885 1.400 . S
C885 C879 1.491 . S
C885 C884 1.400 . S
C885 C886 1.398 . S
C886 H874 0.950 . S
C886 C885 1.398 . S
C886 C887 1.391 . S
C887 H875 0.950 . S
C887 C883 1.393 . S
C887 C886 1.391 . S
H888 C896 0.950 . S
H889 C901 0.950 . S
H890 C898 0.950 . S
H891 C900 0.950 . S
H892 C902 0.950 . S
H893 C904 0.950 . S
H894 C906 0.950 . S
H895 C907 0.950 . S
C896 H888 0.950 . S
C896 C897 1.386 . S
C896 C898 1.391 . S
C897 C896 1.386 . S
C897 C901 1.393 . S
C898 H890 0.950 . S
C898 C896 1.391 . S
C898 C899 1.400 . S
C899 C898 1.400 . S
C899 C900 1.398 . S
C899 C905 1.491 . S
C900 H891 0.950 . S
C900 C899 1.398 . S
C900 C901 1.391 . S
C901 H889 0.950 . S
C901 C897 1.393 . S
C901 C900 1.391 . S
C902 H892 0.950 . S
C902 C903 1.386 . S
C902 C904 1.391 . S
C903 C902 1.386 . S
C903 C907 1.393 . S
C904 H893 0.950 . S
C904 C902 1.391 . S
C904 C905 1.400 . S
C905 C899 1.491 . S
C905 C904 1.400 . S
C905 C906 1.398 . S
C906 H894 0.950 . S
C906 C905 1.398 . S
C906 C907 1.391 . S
C907 H895 0.950 . S
C907 C903 1.393 . S
C907 C906 1.391 . S
H908 C916 0.950 . S
H909 C921 0.950 . S
H910 C918 0.950 . S
H911 C920 0.950 . S
H912 C922 0.950 . S
H913 C924 0.950 . S
H914 C926 0.950 . S
H915 C927 0.950 . S
C916 H908 0.950 . S
C916 C917 1.386 . S
C916 C918 1.391 . S
C917 C916 1.386 . S
C917 C921 1.393 . S
C918 H910 0.950 . S
C918 C916 1.391 . S
C918 C919 1.400 . S
C919 C918 1.400 . S
C919 C920 1.398 . S
C919 C925 1.491 . S
C920 H911 0.950 . S
C920 C919 1.398 . S
C920 C921 1.391 . S
C921 H909 0.950 . S
C921 C917 1.393 . S
C921 C920 1.391 . S
C922 H912 0.950 . S
C922 C923 1.386 . S
C922 C924 1.391 . S
C923 C922 1.386 . S
C923 C927 1.393 . S
C924 H913 0.950 . S
C924 C922 1.391 . S
C924 C925 1.400 . S
C925 C919 1.491 . S
C925 C924 1.400 . S
C925 C926 1.398 . S
C926 H914 0.950 . S
C926 C925 1.398 . S
C926 C927 1.391 . S
C927 H915 0.950 . S
C927 C923 1.393 . S
C927 C926 1.391 . S
H928 C936 0.950 . S
H929 C941 0.950 . S
H930 C938 0.950 . S
H931 C940 0.950 . S
H932 C942 0.950 . S
H933 C944 0.950 . S
H934 C946 0.950 . S
H935 C947 0.950 . S
C936 H928 0.950 . S
C936 C937 1.386 . S
C936 C938 1.391 . S
C937 C936 1.386 . S
C937 C941 1.393 . S
C938 H930 0.950 . S
C938 C936 1.391 . S
C938 C939 1.400 . S
C939 C938 1.400 . S
C939 C940 1.398 . S
C939 C945 1.491 . S
C940 H931 0.950 . S
C940 C939 1.398 . S
C940 C941 1.391 . S
C941 H929 0.950 . S
C941 C937 1.393 . S
C941 C940 1.391 . S
C942 H932 0.950 . S
C942 C943 1.386 . S
C942 C944 1.391 . S
C943 C942 1.386 . S
C943 C947 1.393 . S
C944 H933 0.950 . S
C944 C942 1.391 . S
C944 C945 1.400 . S
C945 C939 1.491 . S
C945 C944 1.400 . S
C945 C946 1.398 . S
C946 H934 0.950 . S
C946 C945 1.398 . S
C946 C947 1.391 . S
C947 H935 0.950 . S
C947 C943 1.393 . S
C947 C946 1.391 . S
H948 C956 0.950 . S
H949 C961 0.950 1_556 S
H950 C958 0.950 . S
H951 C960 0.950 . S
H952 C962 0.950 . S
H953 C964 0.950 . S
H954 C966 0.950 . S
H955 C967 0.950 . S
C956 H948 0.950 . S
C956 C957 1.386 . S
C956 C958 1.391 . S
C957 C956 1.386 . S
C957 C961 1.393 . S
C958 H950 0.950 . S
C958 C956 1.391 . S
C958 C959 1.400 . S
C959 C958 1.400 . S
C959 C960 1.398 . S
C959 C965 1.491 . S
C960 H951 0.950 . S
C960 C959 1.398 . S
C960 C961 1.391 . S
C961 H949 0.950 1_554 S
C961 C957 1.393 . S
C961 C960 1.391 . S
C962 H952 0.950 . S
C962 C963 1.386 . S
C962 C964 1.391 . S
C963 C962 1.386 . S
C963 C967 1.393 . S
C964 H953 0.950 . S
C964 C962 1.391 . S
C964 C965 1.400 . S
C965 C959 1.491 . S
C965 C964 1.400 . S
C965 C966 1.398 . S
C966 H954 0.950 . S
C966 C965 1.398 . S
C966 C967 1.391 . S
C967 H955 0.950 . S
C967 C963 1.393 . S
C967 C966 1.391 . S
H968 C976 0.950 . S
H969 C981 0.950 1_554 S
H970 C978 0.950 . S
H971 C980 0.950 . S
H972 C982 0.950 . S
H973 C984 0.950 . S
H974 C986 0.950 . S
H975 C987 0.950 . S
C976 H968 0.950 . S
C976 C977 1.386 . S
C976 C978 1.391 . S
C977 C976 1.386 . S
C977 C981 1.393 . S
C978 H970 0.950 . S
C978 C976 1.391 . S
C978 C979 1.400 . S
C979 C978 1.400 . S
C979 C980 1.398 . S
C979 C985 1.491 . S
C980 H971 0.950 . S
C980 C979 1.398 . S
C980 C981 1.391 . S
C981 H969 0.950 1_556 S
C981 C977 1.393 . S
C981 C980 1.391 . S
C982 H972 0.950 . S
C982 C983 1.386 . S
C982 C984 1.391 . S
C983 C982 1.386 . S
C983 C987 1.393 . S
C984 H973 0.950 . S
C984 C982 1.391 . S
C984 C985 1.400 . S
C985 C979 1.491 . S
C985 C984 1.400 . S
C985 C986 1.398 . S
C986 H974 0.950 . S
C986 C985 1.398 . S
C986 C987 1.391 . S
C987 H975 0.950 . S
C987 C983 1.393 . S
C987 C986 1.391 . S
H988 C996 0.950 . S
H989 C1001 0.950 . S
H990 C998 0.950 . S
H991 C1000 0.950 . S
H992 C1002 0.950 . S
H993 C1004 0.950 . S
H994 C1006 0.950 . S
H995 C1007 0.950 . S
C996 H988 0.950 . S
C996 C997 1.386 . S
C996 C998 1.391 . S
C997 C996 1.386 . S
C997 C1001 1.393 . S
C998 H990 0.950 . S
C998 C996 1.391 . S
C998 C999 1.400 . S
C999 C998 1.400 . S
C999 C1000 1.398 . S
C999 C1005 1.491 . S
C1000 H991 0.950 . S
C1000 C999 1.398 . S
C1000 C1001 1.391 . S
C1001 H989 0.950 . S
C1001 C997 1.393 . S
C1001 C1000 1.391 . S
C1002 H992 0.950 . S
C1002 C1003 1.386 . S
C1002 C1004 1.391 . S
C1003 C1002 1.386 . S
C1003 C1007 1.393 . S
C1004 H993 0.950 . S
C1004 C1002 1.391 . S
C1004 C1005 1.400 . S
C1005 C999 1.491 . S
C1005 C1004 1.400 . S
C1005 C1006 1.398 . S
C1006 H994 0.950 . S
C1006 C1005 1.398 . S
C1006 C1007 1.391 . S
C1007 H995 0.950 . S
C1007 C1003 1.393 . S
C1007 C1006 1.391 . S
H1008 C1016 0.950 . S
H1009 C1021 0.950 . S
H1010 C1018 0.950 . S
H1011 C1020 0.950 . S
H1012 C1022 0.950 . S
H1013 C1024 0.950 . S
H1014 C1026 0.950 . S
H1015 C1027 0.950 . S
C1016 H1008 0.950 . S
C1016 C1017 1.386 . S
C1016 C1018 1.391 . S
C1017 C1016 1.386 . S
C1017 C1021 1.393 . S
C1018 H1010 0.950 . S
C1018 C1016 1.391 . S
C1018 C1019 1.400 . S
C1019 C1018 1.400 . S
C1019 C1020 1.398 . S
C1019 C1025 1.491 . S
C1020 H1011 0.950 . S
C1020 C1019 1.398 . S
C1020 C1021 1.391 . S
C1021 H1009 0.950 . S
C1021 C1017 1.393 . S
C1021 C1020 1.391 . S
C1022 H1012 0.950 . S
C1022 C1023 1.386 . S
C1022 C1024 1.391 . S
C1023 C1022 1.386 . S
C1023 C1027 1.393 . S
C1024 H1013 0.950 . S
C1024 C1022 1.391 . S
C1024 C1025 1.400 . S
C1025 C1019 1.491 . S
C1025 C1024 1.400 . S
C1025 C1026 1.398 . S
C1026 H1014 0.950 . S
C1026 C1025 1.398 . S
C1026 C1027 1.391 . S
C1027 H1015 0.950 . S
C1027 C1023 1.393 . S
C1027 C1026 1.391 . S
H1028 C1036 0.950 . S
H1029 C1041 0.950 . S
H1030 C1038 0.950 . S
H1031 C1040 0.950 . S
H1032 C1042 0.950 . S
H1033 C1044 0.950 . S
H1034 C1046 0.950 . S
H1035 C1047 0.950 . S
C1036 H1028 0.950 . S
C1036 C1037 1.386 . S
C1036 C1038 1.391 . S
C1037 C1036 1.386 . S
C1037 C1041 1.393 . S
C1038 H1030 0.950 . S
C1038 C1036 1.391 . S
C1038 C1039 1.400 . S
C1039 C1038 1.400 . S
C1039 C1040 1.398 . S
C1039 C1045 1.491 . S
C1040 H1031 0.950 . S
C1040 C1039 1.398 . S
C1040 C1041 1.391 . S
C1041 H1029 0.950 . S
C1041 C1037 1.393 . S
C1041 C1040 1.391 . S
C1042 H1032 0.950 . S
C1042 C1043 1.386 . S
C1042 C1044 1.391 . S
C1043 C1042 1.386 . S
C1043 C1047 1.393 . S
C1044 H1033 0.950 . S
C1044 C1042 1.391 . S
C1044 C1045 1.400 . S
C1045 C1039 1.491 . S
C1045 C1044 1.400 . S
C1045 C1046 1.398 . S
C1046 H1034 0.950 . S
C1046 C1045 1.398 . S
C1046 C1047 1.391 . S
C1047 H1035 0.950 . S
C1047 C1043 1.393 . S
C1047 C1046 1.391 . S
H1048 C1056 0.950 . S
H1049 C1061 0.950 1_556 S
H1050 C1058 0.950 . S
H1051 C1060 0.950 . S
H1052 C1062 0.950 . S
H1053 C1064 0.950 . S
H1054 C1066 0.950 . S
H1055 C1067 0.950 . S
C1056 H1048 0.950 . S
C1056 C1057 1.386 . S
C1056 C1058 1.391 . S
C1057 C1056 1.386 . S
C1057 C1061 1.393 . S
C1058 H1050 0.950 . S
C1058 C1056 1.391 . S
C1058 C1059 1.400 . S
C1059 C1058 1.400 . S
C1059 C1060 1.398 . S
C1059 C1065 1.491 . S
C1060 H1051 0.950 . S
C1060 C1059 1.398 . S
C1060 C1061 1.391 . S
C1061 H1049 0.950 1_554 S
C1061 C1057 1.393 . S
C1061 C1060 1.391 . S
C1062 H1052 0.950 . S
C1062 C1063 1.386 . S
C1062 C1064 1.391 . S
C1063 C1062 1.386 . S
C1063 C1067 1.393 . S
C1064 H1053 0.950 . S
C1064 C1062 1.391 . S
C1064 C1065 1.400 . S
C1065 C1059 1.491 . S
C1065 C1064 1.400 . S
C1065 C1066 1.398 . S
C1066 H1054 0.950 . S
C1066 C1065 1.398 . S
C1066 C1067 1.391 . S
C1067 H1055 0.950 . S
C1067 C1063 1.393 . S
C1067 C1066 1.391 . S
H1068 C1076 0.950 . S
H1069 C1081 0.950 . S
H1070 C1078 0.950 . S
H1071 C1080 0.950 . S
H1072 C1082 0.950 . S
H1073 C1084 0.950 . S
H1074 C1086 0.950 . S
H1075 C1087 0.950 . S
C1076 H1068 0.950 . S
C1076 C1077 1.386 . S
C1076 C1078 1.391 . S
C1077 C1076 1.386 . S
C1077 C1081 1.393 . S
C1078 H1070 0.950 . S
C1078 C1076 1.391 . S
C1078 C1079 1.400 . S
C1079 C1078 1.400 . S
C1079 C1080 1.398 . S
C1079 C1085 1.491 . S
C1080 H1071 0.950 . S
C1080 C1079 1.398 . S
C1080 C1081 1.391 . S
C1081 H1069 0.950 . S
C1081 C1077 1.393 . S
C1081 C1080 1.391 . S
C1082 H1072 0.950 . S
C1082 C1083 1.386 . S
C1082 C1084 1.391 . S
C1083 C1082 1.386 . S
C1083 C1087 1.393 . S
C1084 H1073 0.950 . S
C1084 C1082 1.391 . S
C1084 C1085 1.400 . S
C1085 C1079 1.491 . S
C1085 C1084 1.400 . S
C1085 C1086 1.398 . S
C1086 H1074 0.950 . S
C1086 C1085 1.398 . S
C1086 C1087 1.391 . S
C1087 H1075 0.950 . S
C1087 C1083 1.393 . S
C1087 C1086 1.391 . S
H1088 C1096 0.950 . S
H1089 C1101 0.950 . S
H1090 C1098 0.950 . S
H1091 C1100 0.950 . S
H1092 C1102 0.950 . S
H1093 C1104 0.950 . S
H1094 C1106 0.950 . S
H1095 C1107 0.950 . S
C1096 H1088 0.950 . S
C1096 C1097 1.386 . S
C1096 C1098 1.391 . S
C1097 C1096 1.386 . S
C1097 C1101 1.393 . S
C1098 H1090 0.950 . S
C1098 C1096 1.391 . S
C1098 C1099 1.400 . S
C1099 C1098 1.400 . S
C1099 C1100 1.398 . S
C1099 C1105 1.491 . S
C1100 H1091 0.950 . S
C1100 C1099 1.398 . S
C1100 C1101 1.391 . S
C1101 H1089 0.950 . S
C1101 C1097 1.393 . S
C1101 C1100 1.391 . S
C1102 H1092 0.950 . S
C1102 C1103 1.386 . S
C1102 C1104 1.391 . S
C1103 C1102 1.386 . S
C1103 C1107 1.393 . S
C1104 H1093 0.950 . S
C1104 C1102 1.391 . S
C1104 C1105 1.400 . S
C1105 C1099 1.491 . S
C1105 C1104 1.400 . S
C1105 C1106 1.398 . S
C1106 H1094 0.950 . S
C1106 C1105 1.398 . S
C1106 C1107 1.391 . S
C1107 H1095 0.950 . S
C1107 C1103 1.393 . S
C1107 C1106 1.391 . S
H1108 C1116 0.950 . S
H1109 C1121 0.950 . S
H1110 C1118 0.950 . S
H1111 C1120 0.950 . S
H1112 C1122 0.950 1_556 S
H1113 C1124 0.950 . S
H1114 C1126 0.950 . S
H1115 C1127 0.950 . S
C1116 H1108 0.950 . S
C1116 C1117 1.386 . S
C1116 C1118 1.391 . S
C1117 C1116 1.386 . S
C1117 C1121 1.393 . S
C1118 H1110 0.950 . S
C1118 C1116 1.391 . S
C1118 C1119 1.400 . S
C1119 C1118 1.400 . S
C1119 C1120 1.398 . S
C1119 C1125 1.491 . S
C1120 H1111 0.950 . S
C1120 C1119 1.398 . S
C1120 C1121 1.391 . S
C1121 H1109 0.950 . S
C1121 C1117 1.393 . S
C1121 C1120 1.391 . S
C1122 H1112 0.950 1_554 S
C1122 C1123 1.386 . S
C1122 C1124 1.391 . S
C1123 C1122 1.386 . S
C1123 C1127 1.393 . S
C1124 H1113 0.950 . S
C1124 C1122 1.391 . S
C1124 C1125 1.400 . S
C1125 C1119 1.491 . S
C1125 C1124 1.400 . S
C1125 C1126 1.398 . S
C1126 H1114 0.950 . S
C1126 C1125 1.398 . S
C1126 C1127 1.391 . S
C1127 H1115 0.950 . S
C1127 C1123 1.393 . S
C1127 C1126 1.391 . S
H1128 C1136 0.950 . S
H1129 C1141 0.950 . S
H1130 C1138 0.950 . S
H1131 C1140 0.950 . S
H1132 C1142 0.950 . S
H1133 C1144 0.950 . S
H1134 C1146 0.950 . S
H1135 C1147 0.950 . S
C1136 H1128 0.950 . S
C1136 C1137 1.386 . S
C1136 C1138 1.391 . S
C1137 C1136 1.386 . S
C1137 C1141 1.393 . S
C1138 H1130 0.950 . S
C1138 C1136 1.391 . S
C1138 C1139 1.400 . S
C1139 C1138 1.400 . S
C1139 C1140 1.398 . S
C1139 C1145 1.491 . S
C1140 H1131 0.950 . S
C1140 C1139 1.398 . S
C1140 C1141 1.391 . S
C1141 H1129 0.950 . S
C1141 C1137 1.393 . S
C1141 C1140 1.391 . S
C1142 H1132 0.950 . S
C1142 C1143 1.386 . S
C1142 C1144 1.391 . S
C1143 C1142 1.386 . S
C1143 C1147 1.393 . S
C1144 H1133 0.950 . S
C1144 C1142 1.391 . S
C1144 C1145 1.400 . S
C1145 C1139 1.491 . S
C1145 C1144 1.400 . S
C1145 C1146 1.398 . S
C1146 H1134 0.950 . S
C1146 C1145 1.398 . S
C1146 C1147 1.391 . S
C1147 H1135 0.950 . S
C1147 C1143 1.393 . S
C1147 C1146 1.391 . S
H1148 C1156 0.950 . S
H1149 C1161 0.950 . S
H1150 C1158 0.950 . S
H1151 C1160 0.950 . S
H1152 C1162 0.950 . S
H1153 C1164 0.950 . S
H1154 C1166 0.950 . S
H1155 C1167 0.950 . S
C1156 H1148 0.950 . S
C1156 C1157 1.386 . S
C1156 C1158 1.391 . S
C1157 C1156 1.386 . S
C1157 C1161 1.393 . S
C1158 H1150 0.950 . S
C1158 C1156 1.391 . S
C1158 C1159 1.400 . S
C1159 C1158 1.400 . S
C1159 C1160 1.398 . S
C1159 C1165 1.491 . S
C1160 H1151 0.950 . S
C1160 C1159 1.398 . S
C1160 C1161 1.391 . S
C1161 H1149 0.950 . S
C1161 C1157 1.393 . S
C1161 C1160 1.391 . S
C1162 H1152 0.950 . S
C1162 C1163 1.386 . S
C1162 C1164 1.391 . S
C1163 C1162 1.386 . S
C1163 C1167 1.393 . S
C1164 H1153 0.950 . S
C1164 C1162 1.391 . S
C1164 C1165 1.400 . S
C1165 C1159 1.491 . S
C1165 C1164 1.400 . S
C1165 C1166 1.398 . S
C1166 H1154 0.950 . S
C1166 C1165 1.398 . S
C1166 C1167 1.391 . S
C1167 H1155 0.950 . S
C1167 C1163 1.393 . S
C1167 C1166 1.391 . S
H1168 C1176 0.950 . S
H1169 C1181 0.950 1_556 S
H1170 C1178 0.950 . S
H1171 C1180 0.950 . S
H1172 C1182 0.950 . S
H1173 C1184 0.950 . S
H1174 C1186 0.950 . S
H1175 C1187 0.950 . S
C1176 H1168 0.950 . S
C1176 C1177 1.386 . S
C1176 C1178 1.391 . S
C1177 C1176 1.386 . S
C1177 C1181 1.393 . S
C1178 H1170 0.950 . S
C1178 C1176 1.391 . S
C1178 C1179 1.400 . S
C1179 C1178 1.400 . S
C1179 C1180 1.398 . S
C1179 C1185 1.491 . S
C1180 H1171 0.950 . S
C1180 C1179 1.398 . S
C1180 C1181 1.391 . S
C1181 H1169 0.950 1_554 S
C1181 C1177 1.393 . S
C1181 C1180 1.391 . S
C1182 H1172 0.950 . S
C1182 C1183 1.386 . S
C1182 C1184 1.391 . S
C1183 C1182 1.386 . S
C1183 C1187 1.393 . S
C1184 H1173 0.950 . S
C1184 C1182 1.391 . S
C1184 C1185 1.400 . S
C1185 C1179 1.491 . S
C1185 C1184 1.400 . S
C1185 C1186 1.398 . S
C1186 H1174 0.950 . S
C1186 C1185 1.398 . S
C1186 C1187 1.391 . S
C1187 H1175 0.950 . S
C1187 C1183 1.393 . S
C1187 C1186 1.391 . S
H1188 C1196 0.950 . S
H1189 C1201 0.950 . S
H1190 C1198 0.950 . S
H1191 C1200 0.950 . S
H1192 C1202 0.950 . S
H1193 C1204 0.950 . S
H1194 C1206 0.950 . S
H1195 C1207 0.950 . S
C1196 H1188 0.950 . S
C1196 C1197 1.386 . S
C1196 C1198 1.391 . S
C1197 C1196 1.386 . S
C1197 C1201 1.393 . S
C1198 H1190 0.950 . S
C1198 C1196 1.391 . S
C1198 C1199 1.400 . S
C1199 C1198 1.400 . S
C1199 C1200 1.398 . S
C1199 C1205 1.491 . S
C1200 H1191 0.950 . S
C1200 C1199 1.398 . S
C1200 C1201 1.391 . S
C1201 H1189 0.950 . S
C1201 C1197 1.393 . S
C1201 C1200 1.391 . S
C1202 H1192 0.950 . S
C1202 C1203 1.386 . S
C1202 C1204 1.391 . S
C1203 C1202 1.386 . S
C1203 C1207 1.393 . S
C1204 H1193 0.950 . S
C1204 C1202 1.391 . S
C1204 C1205 1.400 . S
C1205 C1199 1.491 . S
C1205 C1204 1.400 . S
C1205 C1206 1.398 . S
C1206 H1194 0.950 . S
C1206 C1205 1.398 . S
C1206 C1207 1.391 . S
C1207 H1195 0.950 . S
C1207 C1203 1.393 . S
C1207 C1206 1.391 . S
H1208 C1216 0.950 . S
H1209 C1221 0.950 . S
H1210 C1218 0.950 . S
H1211 C1220 0.950 . S
H1212 C1222 0.950 . S
H1213 C1224 0.950 . S
H1214 C1226 0.950 . S
H1215 C1227 0.950 . S
C1216 H1208 0.950 . S
C1216 C1217 1.386 . S
C1216 C1218 1.391 . S
C1217 C1216 1.386 . S
C1217 C1221 1.393 . S
C1218 H1210 0.950 . S
C1218 C1216 1.391 . S
C1218 C1219 1.400 . S
C1219 C1218 1.400 . S
C1219 C1220 1.398 . S
C1219 C1225 1.491 . S
C1220 H1211 0.950 . S
C1220 C1219 1.398 . S
C1220 C1221 1.391 . S
C1221 H1209 0.950 . S
C1221 C1217 1.393 . S
C1221 C1220 1.391 . S
C1222 H1212 0.950 . S
C1222 C1223 1.386 . S
C1222 C1224 1.391 . S
C1223 C1222 1.386 . S
C1223 C1227 1.393 . S
C1224 H1213 0.950 . S
C1224 C1222 1.391 . S
C1224 C1225 1.400 . S
C1225 C1219 1.491 . S
C1225 C1224 1.400 . S
C1225 C1226 1.398 . S
C1226 H1214 0.950 . S
C1226 C1225 1.398 . S
C1226 C1227 1.391 . S
C1227 H1215 0.950 . S
C1227 C1223 1.393 . S
C1227 C1226 1.391 . S
H1228 C1236 0.950 1_554 S
H1229 C1241 0.950 . S
H1230 C1238 0.950 . S
H1231 C1240 0.950 . S
H1232 C1242 0.950 . S
H1233 C1244 0.950 . S
H1234 C1246 0.950 . S
H1235 C1247 0.950 . S
C1236 H1228 0.950 1_556 S
C1236 C1237 1.386 . S
C1236 C1238 1.391 . S
C1237 C1236 1.386 . S
C1237 C1241 1.393 . S
C1238 H1230 0.950 . S
C1238 C1236 1.391 . S
C1238 C1239 1.400 . S
C1239 C1238 1.400 . S
C1239 C1240 1.398 . S
C1239 C1245 1.491 . S
C1240 H1231 0.950 . S
C1240 C1239 1.398 . S
C1240 C1241 1.391 . S
C1241 H1229 0.950 . S
C1241 C1237 1.393 . S
C1241 C1240 1.391 . S
C1242 H1232 0.950 . S
C1242 C1243 1.386 . S
C1242 C1244 1.391 . S
C1243 C1242 1.386 . S
C1243 C1247 1.393 . S
C1244 H1233 0.950 . S
C1244 C1242 1.391 . S
C1244 C1245 1.400 . S
C1245 C1239 1.491 . S
C1245 C1244 1.400 . S
C1245 C1246 1.398 . S
C1246 H1234 0.950 . S
C1246 C1245 1.398 . S
C1246 C1247 1.391 . S
C1247 H1235 0.950 . S
C1247 C1243 1.393 . S
C1247 C1246 1.391 . S
H1248 C1256 0.950 . S
H1249 C1261 0.950 . S
H1250 C1258 0.950 . S
H1251 C1260 0.950 . S
H1252 C1262 0.950 . S
H1253 C1264 0.950 . S
H1254 C1266 0.950 . S
H1255 C1267 0.950 1_554 S
C1256 H1248 0.950 . S
C1256 C1257 1.386 . S
C1256 C1258 1.391 . S
C1257 C1256 1.386 . S
C1257 C1261 1.393 . S
C1258 H1250 0.950 . S
C1258 C1256 1.391 . S
C1258 C1259 1.400 . S
C1259 C1258 1.400 . S
C1259 C1260 1.398 . S
C1259 C1265 1.491 . S
C1260 H1251 0.950 . S
C1260 C1259 1.398 . S
C1260 C1261 1.391 . S
C1261 H1249 0.950 . S
C1261 C1257 1.393 . S
C1261 C1260 1.391 . S
C1262 H1252 0.950 . S
C1262 C1263 1.386 . S
C1262 C1264 1.391 . S
C1263 C1262 1.386 . S
C1263 C1267 1.393 . S
C1264 H1253 0.950 . S
C1264 C1262 1.391 . S
C1264 C1265 1.400 . S
C1265 C1259 1.491 . S
C1265 C1264 1.400 . S
C1265 C1266 1.398 . S
C1266 H1254 0.950 . S
C1266 C1265 1.398 . S
C1266 C1267 1.391 . S
C1267 H1255 0.950 1_556 S
C1267 C1263 1.393 . S
C1267 C1266 1.391 . S
H1268 C1276 0.950 . S
H1269 C1281 0.950 . S
H1270 C1278 0.950 . S
H1271 C1280 0.950 . S
H1272 C1282 0.950 . S
H1273 C1284 0.950 . S
H1274 C1286 0.950 . S
H1275 C1287 0.950 . S
C1276 H1268 0.950 . S
C1276 C1277 1.386 . S
C1276 C1278 1.391 . S
C1277 C1276 1.386 . S
C1277 C1281 1.393 . S
C1278 H1270 0.950 . S
C1278 C1276 1.391 . S
C1278 C1279 1.400 . S
C1279 C1278 1.400 . S
C1279 C1280 1.398 . S
C1279 C1285 1.491 . S
C1280 H1271 0.950 . S
C1280 C1279 1.398 . S
C1280 C1281 1.391 . S
C1281 H1269 0.950 . S
C1281 C1277 1.393 . S
C1281 C1280 1.391 . S
C1282 H1272 0.950 . S
C1282 C1283 1.386 . S
C1282 C1284 1.391 . S
C1283 C1282 1.386 . S
C1283 C1287 1.393 . S
C1284 H1273 0.950 . S
C1284 C1282 1.391 . S
C1284 C1285 1.400 . S
C1285 C1279 1.491 . S
C1285 C1284 1.400 . S
C1285 C1286 1.398 . S
C1286 H1274 0.950 . S
C1286 C1285 1.398 . S
C1286 C1287 1.391 . S
C1287 H1275 0.950 . S
C1287 C1283 1.393 . S
C1287 C1286 1.391 . S
H1288 C1296 0.950 . S
H1289 C1301 0.950 . S
H1290 C1298 0.950 . S
H1291 C1300 0.950 . S
H1292 C1302 0.950 . S
H1293 C1304 0.950 . S
H1294 C1306 0.950 . S
H1295 C1307 0.950 . S
C1296 H1288 0.950 . S
C1296 C1297 1.386 . S
C1296 C1298 1.391 . S
C1297 C1296 1.386 . S
C1297 C1301 1.393 . S
C1298 H1290 0.950 . S
C1298 C1296 1.391 . S
C1298 C1299 1.400 . S
C1299 C1298 1.400 . S
C1299 C1300 1.398 . S
C1299 C1305 1.491 . S
C1300 H1291 0.950 . S
C1300 C1299 1.398 . S
C1300 C1301 1.391 . S
C1301 H1289 0.950 . S
C1301 C1297 1.393 . S
C1301 C1300 1.391 . S
C1302 H1292 0.950 . S
C1302 C1303 1.386 . S
C1302 C1304 1.391 . S
C1303 C1302 1.386 . S
C1303 C1307 1.393 . S
C1304 H1293 0.950 . S
C1304 C1302 1.391 . S
C1304 C1305 1.400 . S
C1305 C1299 1.491 . S
C1305 C1304 1.400 . S
C1305 C1306 1.398 . S
C1306 H1294 0.950 . S
C1306 C1305 1.398 . S
C1306 C1307 1.391 . S
C1307 H1295 0.950 . S
C1307 C1303 1.393 . S
C1307 C1306 1.391 . S
H1308 C1316 0.950 . S
H1309 C1321 0.950 . S
H1310 C1318 0.950 . S
H1311 C1320 0.950 . S
H1312 C1322 0.950 . S
H1313 C1324 0.950 . S
H1314 C1326 0.950 . S
H1315 C1327 0.950 . S
C1316 H1308 0.950 . S
C1316 C1317 1.386 . S
C1316 C1318 1.391 . S
C1317 C1316 1.386 . S
C1317 C1321 1.393 . S
C1318 H1310 0.950 . S
C1318 C1316 1.391 . S
C1318 C1319 1.400 . S
C1319 C1318 1.400 . S
C1319 C1320 1.398 . S
C1319 C1325 1.491 . S
C1320 H1311 0.950 . S
C1320 C1319 1.398 . S
C1320 C1321 1.391 . S
C1321 H1309 0.950 . S
C1321 C1317 1.393 . S
C1321 C1320 1.391 . S
C1322 H1312 0.950 . S
C1322 C1323 1.386 . S
C1322 C1324 1.391 . S
C1323 C1322 1.386 . S
C1323 C1327 1.393 . S
C1324 H1313 0.950 . S
C1324 C1322 1.391 . S
C1324 C1325 1.400 . S
C1325 C1319 1.491 . S
C1325 C1324 1.400 . S
C1325 C1326 1.398 . S
C1326 H1314 0.950 . S
C1326 C1325 1.398 . S
C1326 C1327 1.391 . S
C1327 H1315 0.950 . S
C1327 C1323 1.393 . S
C1327 C1326 1.391 . S
C537 C21 1.153 . S
C543 C153 1.153 . S
C557 C186 1.132 . S
C563 C54 1.132 . S
C577 C219 1.128 . S
C583 C87 1.128 . S
C597 C120 1.127 . S
C603 C252 1.128 . S
C617 C285 1.135 . S
C623 C351 1.135 . S
C637 C384 1.129 . S
C643 C318 1.129 . S
C657 C417 1.146 . S
C663 C483 1.146 . S
C677 C450 1.135 . S
C683 C516 1.135 . S
C697 N13 1.173 . S
C703 N178 1.186 1_554 S
C717 N211 1.197 . S
C723 N46 1.197 . S
C737 N244 1.184 . S
C743 N79 1.171 . S
C757 N112 1.193 1_556 S
C763 N145 1.183 . S
C777 C150 1.974 . S
C783 C348 1.974 1_556 S
C797 C84 1.975 . S
C803 C282 1.978 . S
C817 C216 1.979 . S
C823 C381 1.976 . S
C837 C18 1.975 . S
C843 C315 1.973 1_554 S
C857 N409 1.166 . S
C863 N277 1.179 . S
C877 N343 1.155 1_556 S
C883 N508 1.160 . S
C897 N310 1.155 1_554 S
C903 N442 1.161 . S
C917 N376 1.189 . S
C923 N475 1.177 . S
C937 C480 1.979 . S
C943 C51 1.977 . S
C957 C183 1.977 1_554 S
C963 C447 1.980 . S
C977 C117 1.977 1_556 S
C983 C513 1.980 . S
C997 C414 1.974 . S
C1003 C249 1.974 . S
C1017 C172 1.665 . S
C1023 C7 1.664 . S
C1037 C205 1.664 1_556 S
C1043 C40 1.664 . S
C1057 C73 1.677 1_554 S
C1063 C238 1.680 . S
C1077 C106 1.673 . S
C1083 C139 1.676 . S
C1097 N134 0.725 . S
C1103 N332 0.708 . S
C1117 N266 0.703 . S
C1123 N68 0.720 . S
C1137 N365 0.678 . S
C1143 N200 0.678 . S
C1157 N2 0.710 . S
C1163 N299 0.693 . S
C1177 C403 1.672 1_554 S
C1183 C271 1.675 . S
C1197 C337 1.673 . S
C1203 C502 1.676 . S
C1217 C436 1.681 . S
C1223 C304 1.679 . S
C1237 C469 1.666 1_556 S
C1243 C370 1.665 . S
C1257 N35 0.689 . S
C1263 N464 0.678 . S
C1277 N167 0.683 . S
C1283 N431 0.677 . S
C1297 N497 0.686 . S
C1303 N101 0.701 . S
C1317 N233 0.676 . S
C1323 N398 0.682 . S
