# Generated by pormake.
# Topology wnd, (6)-cn, num edge types: 1
# Building blocks:
#     Node 0, Type 0, BuildingBlock: MIFKUJ_clean_sbu_0, # of connection points: 6
#     Node 1, Type 0, BuildingBlock: MIFKUJ_clean_sbu_0, # of connection points: 6
#     Node 2, Type 0, BuildingBlock: MIFKUJ_clean_sbu_0, # of connection points: 6
#     Node 3, Type 0, BuildingBlock: MIFKUJ_clean_sbu_0, # of connection points: 6
#     Node 4, Type 0, BuildingBlock: MIFKUJ_clean_sbu_0, # of connection points: 6
#     Node 5, Type 0, BuildingBlock: MIFKUJ_clean_sbu_0, # of connection points: 6
#     Node 6, Type 0, BuildingBlock: MIFKUJ_clean_sbu_0, # of connection points: 6
#     Node 7, Type 0, BuildingBlock: MIFKUJ_clean_sbu_0, # of connection points: 6
#     Node 8, Type 0, BuildingBlock: MIFKUJ_clean_sbu_0, # of connection points: 6
#     Node 9, Type 0, BuildingBlock: MIFKUJ_clean_sbu_0, # of connection points: 6
#     Node 10, Type 0, BuildingBlock: MIFKUJ_clean_sbu_0, # of connection points: 6
#     Node 11, Type 0, BuildingBlock: MIFKUJ_clean_sbu_0, # of connection points: 6
#     Node 12, Type 0, BuildingBlock: MIFKUJ_clean_sbu_0, # of connection points: 6
#     Node 13, Type 0, BuildingBlock: MIFKUJ_clean_sbu_0, # of connection points: 6
#     Node 14, Type 0, BuildingBlock: MIFKUJ_clean_sbu_0, # of connection points: 6
#     Node 15, Type 0, BuildingBlock: MIFKUJ_clean_sbu_0, # of connection points: 6
#     Node 16, Type 0, BuildingBlock: MIFKUJ_clean_sbu_0, # of connection points: 6
#     Node 17, Type 0, BuildingBlock: MIFKUJ_clean_sbu_0, # of connection points: 6
#     Node 18, Type 0, BuildingBlock: MIFKUJ_clean_sbu_0, # of connection points: 6
#     Node 19, Type 0, BuildingBlock: MIFKUJ_clean_sbu_0, # of connection points: 6
#     Node 20, Type 0, BuildingBlock: MIFKUJ_clean_sbu_0, # of connection points: 6
#     Node 21, Type 0, BuildingBlock: MIFKUJ_clean_sbu_0, # of connection points: 6
#     Node 22, Type 0, BuildingBlock: MIFKUJ_clean_sbu_0, # of connection points: 6
#     Node 23, Type 0, BuildingBlock: MIFKUJ_clean_sbu_0, # of connection points: 6
#     Node 24, Type 0, BuildingBlock: MIFKUJ_clean_sbu_0, # of connection points: 6
#     Node 25, Type 0, BuildingBlock: MIFKUJ_clean_sbu_0, # of connection points: 6
#     Node 26, Type 0, BuildingBlock: MIFKUJ_clean_sbu_0, # of connection points: 6
#     Node 27, Type 0, BuildingBlock: MIFKUJ_clean_sbu_0, # of connection points: 6
#     Node 28, Type 0, BuildingBlock: MIFKUJ_clean_sbu_0, # of connection points: 6
#     Node 29, Type 0, BuildingBlock: MIFKUJ_clean_sbu_0, # of connection points: 6
#     Node 30, Type 0, BuildingBlock: MIFKUJ_clean_sbu_0, # of connection points: 6
#     Node 31, Type 0, BuildingBlock: MIFKUJ_clean_sbu_0, # of connection points: 6
#     Node 32, Type 0, BuildingBlock: MIFKUJ_clean_sbu_0, # of connection points: 6
#     Node 33, Type 0, BuildingBlock: MIFKUJ_clean_sbu_0, # of connection points: 6
#     Node 34, Type 0, BuildingBlock: MIFKUJ_clean_sbu_0, # of connection points: 6
#     Node 35, Type 0, BuildingBlock: MIFKUJ_clean_sbu_0, # of connection points: 6
#     Edge 36, Type (0, 0), BuildingBlock: KIFKEQ_clean_linker_1, # of connection points: 2
#     Edge 37, Type (0, 0), BuildingBlock: KIFKEQ_clean_linker_1, # of connection points: 2
#     Edge 38, Type (0, 0), BuildingBlock: KIFKEQ_clean_linker_1, # of connection points: 2
#     Edge 39, Type (0, 0), BuildingBlock: KIFKEQ_clean_linker_1, # of connection points: 2
#     Edge 40, Type (0, 0), BuildingBlock: KIFKEQ_clean_linker_1, # of connection points: 2
#     Edge 41, Type (0, 0), BuildingBlock: KIFKEQ_clean_linker_1, # of connection points: 2
#     Edge 42, Type (0, 0), BuildingBlock: KIFKEQ_clean_linker_1, # of connection points: 2
#     Edge 43, Type (0, 0), BuildingBlock: KIFKEQ_clean_linker_1, # of connection points: 2
#     Edge 44, Type (0, 0), BuildingBlock: KIFKEQ_clean_linker_1, # of connection points: 2
#     Edge 45, Type (0, 0), BuildingBlock: KIFKEQ_clean_linker_1, # of connection points: 2
#     Edge 46, Type (0, 0), BuildingBlock: KIFKEQ_clean_linker_1, # of connection points: 2
#     Edge 47, Type (0, 0), BuildingBlock: KIFKEQ_clean_linker_1, # of connection points: 2
#     Edge 48, Type (0, 0), BuildingBlock: KIFKEQ_clean_linker_1, # of connection points: 2
#     Edge 49, Type (0, 0), BuildingBlock: KIFKEQ_clean_linker_1, # of connection points: 2
#     Edge 50, Type (0, 0), BuildingBlock: KIFKEQ_clean_linker_1, # of connection points: 2
#     Edge 51, Type (0, 0), BuildingBlock: KIFKEQ_clean_linker_1, # of connection points: 2
#     Edge 52, Type (0, 0), BuildingBlock: KIFKEQ_clean_linker_1, # of connection points: 2
#     Edge 53, Type (0, 0), BuildingBlock: KIFKEQ_clean_linker_1, # of connection points: 2
#     Edge 54, Type (0, 0), BuildingBlock: KIFKEQ_clean_linker_1, # of connection points: 2
#     Edge 55, Type (0, 0), BuildingBlock: KIFKEQ_clean_linker_1, # of connection points: 2
#     Edge 56, Type (0, 0), BuildingBlock: KIFKEQ_clean_linker_1, # of connection points: 2
#     Edge 57, Type (0, 0), BuildingBlock: KIFKEQ_clean_linker_1, # of connection points: 2
#     Edge 58, Type (0, 0), BuildingBlock: KIFKEQ_clean_linker_1, # of connection points: 2
#     Edge 59, Type (0, 0), BuildingBlock: KIFKEQ_clean_linker_1, # of connection points: 2
#     Edge 60, Type (0, 0), BuildingBlock: KIFKEQ_clean_linker_1, # of connection points: 2
#     Edge 61, Type (0, 0), BuildingBlock: KIFKEQ_clean_linker_1, # of connection points: 2
#     Edge 62, Type (0, 0), BuildingBlock: KIFKEQ_clean_linker_1, # of connection points: 2
#     Edge 63, Type (0, 0), BuildingBlock: KIFKEQ_clean_linker_1, # of connection points: 2
#     Edge 64, Type (0, 0), BuildingBlock: KIFKEQ_clean_linker_1, # of connection points: 2
#     Edge 65, Type (0, 0), BuildingBlock: KIFKEQ_clean_linker_1, # of connection points: 2
#     Edge 66, Type (0, 0), BuildingBlock: KIFKEQ_clean_linker_1, # of connection points: 2
#     Edge 67, Type (0, 0), BuildingBlock: KIFKEQ_clean_linker_1, # of connection points: 2
#     Edge 68, Type (0, 0), BuildingBlock: KIFKEQ_clean_linker_1, # of connection points: 2
#     Edge 69, Type (0, 0), BuildingBlock: KIFKEQ_clean_linker_1, # of connection points: 2
#     Edge 70, Type (0, 0), BuildingBlock: KIFKEQ_clean_linker_1, # of connection points: 2
#     Edge 71, Type (0, 0), BuildingBlock: KIFKEQ_clean_linker_1, # of connection points: 2
#     Edge 72, Type (0, 0), BuildingBlock: KIFKEQ_clean_linker_1, # of connection points: 2
#     Edge 73, Type (0, 0), BuildingBlock: KIFKEQ_clean_linker_1, # of connection points: 2
#     Edge 74, Type (0, 0), BuildingBlock: KIFKEQ_clean_linker_1, # of connection points: 2
#     Edge 75, Type (0, 0), BuildingBlock: KIFKEQ_clean_linker_1, # of connection points: 2
#     Edge 76, Type (0, 0), BuildingBlock: KIFKEQ_clean_linker_1, # of connection points: 2
#     Edge 77, Type (0, 0), BuildingBlock: KIFKEQ_clean_linker_1, # of connection points: 2
#     Edge 78, Type (0, 0), BuildingBlock: KIFKEQ_clean_linker_1, # of connection points: 2
#     Edge 79, Type (0, 0), BuildingBlock: KIFKEQ_clean_linker_1, # of connection points: 2
#     Edge 80, Type (0, 0), BuildingBlock: KIFKEQ_clean_linker_1, # of connection points: 2
#     Edge 81, Type (0, 0), BuildingBlock: KIFKEQ_clean_linker_1, # of connection points: 2
#     Edge 82, Type (0, 0), BuildingBlock: KIFKEQ_clean_linker_1, # of connection points: 2
#     Edge 83, Type (0, 0), BuildingBlock: KIFKEQ_clean_linker_1, # of connection points: 2
#     Edge 84, Type (0, 0), BuildingBlock: KIFKEQ_clean_linker_1, # of connection points: 2
#     Edge 85, Type (0, 0), BuildingBlock: KIFKEQ_clean_linker_1, # of connection points: 2
#     Edge 86, Type (0, 0), BuildingBlock: KIFKEQ_clean_linker_1, # of connection points: 2
#     Edge 87, Type (0, 0), BuildingBlock: KIFKEQ_clean_linker_1, # of connection points: 2
#     Edge 88, Type (0, 0), BuildingBlock: KIFKEQ_clean_linker_1, # of connection points: 2
#     Edge 89, Type (0, 0), BuildingBlock: KIFKEQ_clean_linker_1, # of connection points: 2
#     Edge 90, Type (0, 0), BuildingBlock: KIFKEQ_clean_linker_1, # of connection points: 2
#     Edge 91, Type (0, 0), BuildingBlock: KIFKEQ_clean_linker_1, # of connection points: 2
#     Edge 92, Type (0, 0), BuildingBlock: KIFKEQ_clean_linker_1, # of connection points: 2
#     Edge 93, Type (0, 0), BuildingBlock: KIFKEQ_clean_linker_1, # of connection points: 2
#     Edge 94, Type (0, 0), BuildingBlock: KIFKEQ_clean_linker_1, # of connection points: 2
#     Edge 95, Type (0, 0), BuildingBlock: KIFKEQ_clean_linker_1, # of connection points: 2
#     Edge 96, Type (0, 0), BuildingBlock: KIFKEQ_clean_linker_1, # of connection points: 2
#     Edge 97, Type (0, 0), BuildingBlock: KIFKEQ_clean_linker_1, # of connection points: 2
#     Edge 98, Type (0, 0), BuildingBlock: KIFKEQ_clean_linker_1, # of connection points: 2
#     Edge 99, Type (0, 0), BuildingBlock: KIFKEQ_clean_linker_1, # of connection points: 2
#     Edge 100, Type (0, 0), BuildingBlock: KIFKEQ_clean_linker_1, # of connection points: 2
#     Edge 101, Type (0, 0), BuildingBlock: KIFKEQ_clean_linker_1, # of connection points: 2
#     Edge 102, Type (0, 0), BuildingBlock: KIFKEQ_clean_linker_1, # of connection points: 2
#     Edge 103, Type (0, 0), BuildingBlock: KIFKEQ_clean_linker_1, # of connection points: 2
#     Edge 104, Type (0, 0), BuildingBlock: KIFKEQ_clean_linker_1, # of connection points: 2
#     Edge 105, Type (0, 0), BuildingBlock: KIFKEQ_clean_linker_1, # of connection points: 2
#     Edge 106, Type (0, 0), BuildingBlock: KIFKEQ_clean_linker_1, # of connection points: 2
#     Edge 107, Type (0, 0), BuildingBlock: KIFKEQ_clean_linker_1, # of connection points: 2
#     Edge 108, Type (0, 0), BuildingBlock: KIFKEQ_clean_linker_1, # of connection points: 2
#     Edge 109, Type (0, 0), BuildingBlock: KIFKEQ_clean_linker_1, # of connection points: 2
#     Edge 110, Type (0, 0), BuildingBlock: KIFKEQ_clean_linker_1, # of connection points: 2
#     Edge 111, Type (0, 0), BuildingBlock: KIFKEQ_clean_linker_1, # of connection points: 2
#     Edge 112, Type (0, 0), BuildingBlock: KIFKEQ_clean_linker_1, # of connection points: 2
#     Edge 113, Type (0, 0), BuildingBlock: KIFKEQ_clean_linker_1, # of connection points: 2
#     Edge 114, Type (0, 0), BuildingBlock: KIFKEQ_clean_linker_1, # of connection points: 2
#     Edge 115, Type (0, 0), BuildingBlock: KIFKEQ_clean_linker_1, # of connection points: 2
#     Edge 116, Type (0, 0), BuildingBlock: KIFKEQ_clean_linker_1, # of connection points: 2
#     Edge 117, Type (0, 0), BuildingBlock: KIFKEQ_clean_linker_1, # of connection points: 2
#     Edge 118, Type (0, 0), BuildingBlock: KIFKEQ_clean_linker_1, # of connection points: 2
#     Edge 119, Type (0, 0), BuildingBlock: KIFKEQ_clean_linker_1, # of connection points: 2
#     Edge 120, Type (0, 0), BuildingBlock: KIFKEQ_clean_linker_1, # of connection points: 2
#     Edge 121, Type (0, 0), BuildingBlock: KIFKEQ_clean_linker_1, # of connection points: 2
#     Edge 122, Type (0, 0), BuildingBlock: KIFKEQ_clean_linker_1, # of connection points: 2
#     Edge 123, Type (0, 0), BuildingBlock: KIFKEQ_clean_linker_1, # of connection points: 2
#     Edge 124, Type (0, 0), BuildingBlock: KIFKEQ_clean_linker_1, # of connection points: 2
#     Edge 125, Type (0, 0), BuildingBlock: KIFKEQ_clean_linker_1, # of connection points: 2
#     Edge 126, Type (0, 0), BuildingBlock: KIFKEQ_clean_linker_1, # of connection points: 2
#     Edge 127, Type (0, 0), BuildingBlock: KIFKEQ_clean_linker_1, # of connection points: 2
#     Edge 128, Type (0, 0), BuildingBlock: KIFKEQ_clean_linker_1, # of connection points: 2
#     Edge 129, Type (0, 0), BuildingBlock: KIFKEQ_clean_linker_1, # of connection points: 2
#     Edge 130, Type (0, 0), BuildingBlock: KIFKEQ_clean_linker_1, # of connection points: 2
#     Edge 131, Type (0, 0), BuildingBlock: KIFKEQ_clean_linker_1, # of connection points: 2
#     Edge 132, Type (0, 0), BuildingBlock: KIFKEQ_clean_linker_1, # of connection points: 2
#     Edge 133, Type (0, 0), BuildingBlock: KIFKEQ_clean_linker_1, # of connection points: 2
#     Edge 134, Type (0, 0), BuildingBlock: KIFKEQ_clean_linker_1, # of connection points: 2
#     Edge 135, Type (0, 0), BuildingBlock: KIFKEQ_clean_linker_1, # of connection points: 2
#     Edge 136, Type (0, 0), BuildingBlock: KIFKEQ_clean_linker_1, # of connection points: 2
#     Edge 137, Type (0, 0), BuildingBlock: KIFKEQ_clean_linker_1, # of connection points: 2
#     Edge 138, Type (0, 0), BuildingBlock: KIFKEQ_clean_linker_1, # of connection points: 2
#     Edge 139, Type (0, 0), BuildingBlock: KIFKEQ_clean_linker_1, # of connection points: 2
#     Edge 140, Type (0, 0), BuildingBlock: KIFKEQ_clean_linker_1, # of connection points: 2
#     Edge 141, Type (0, 0), BuildingBlock: KIFKEQ_clean_linker_1, # of connection points: 2
#     Edge 142, Type (0, 0), BuildingBlock: KIFKEQ_clean_linker_1, # of connection points: 2
#     Edge 143, Type (0, 0), BuildingBlock: KIFKEQ_clean_linker_1, # of connection points: 2
# Relax obj value: 0.073
# Max RMSD: 0.166
# Mean RMSD: 0.166
data_MOF--net-wnd--node1-MIFKUJ_clean_sbu_0--edge1-KIFKEQ_clean_linker_1
_symmetry_space_group_name_H-M    P1
_symmetry_Int_Tables_number       1
_symmetry_cell_setting            triclinic
loop_
_symmetry_equiv_pos_as_xyz
'x, y, z'
_cell_length_a     35.405109
_cell_length_b     35.408106
_cell_length_c     158.59226
_cell_angle_alpha  90.038075
_cell_angle_beta   89.957424
_cell_angle_gamma 120.06163
loop_
_atom_site_label
_atom_site_type_symbol
_atom_site_fract_x
_atom_site_fract_y
_atom_site_fract_z
_atom_type_partial_charge
Zn0 Zn 0.47211 0.9735 0.04155 0.0
Zn1 Zn 0.48031 0.08495 0.0393 0.0
C2 C 0.38016 0.90785 0.04546 0.0
O3 O 0.38515 0.92889 0.05257 0.0
C4 C 0.56761 0.14527 0.03785 0.0
O5 O 0.54873 0.15541 0.03183 0.0
O6 O 0.51134 0.9478 0.04145 0.0
O7 O 0.48328 0.01057 0.03081 0.0
O8 O 0.48162 0.07054 0.02735 0.0
C9 C 0.50777 0.92553 0.0349 0.0
O10 O 0.48156 0.92344 0.02883 0.0
O11 O 0.41165 0.9217 0.04026 0.0
C12 C 0.47511 0.15215 0.04766 0.0
O13 O 0.50069 0.14609 0.05279 0.0
O14 O 0.46012 0.12814 0.04115 0.0
O15 O 0.4437 0.02871 0.04497 0.0
O16 O 0.47586 0.0032 0.05275 0.0
O17 O 0.54376 0.11365 0.04273 0.0
C18 C 0.48742 0.039 0.02536 0.0
C19 C 0.45786 0.02619 0.05211 0.0
Zn20 Zn 0.0742 0.51755 0.03868 0.0
Zn21 Zn 0.9627 0.42841 0.03571 0.0
C22 C 0.1493 0.51266 0.0438 0.0
O23 O 0.14427 0.53096 0.0506 0.0
C24 C 0.95107 0.50371 0.03971 0.0
O25 O 0.98163 0.52511 0.03407 0.0
O26 O 0.10586 0.58202 0.04098 0.0
O27 O 0.04636 0.50737 0.027 0.0
O28 O 0.98096 0.45088 0.02408 0.0
C29 C 0.12912 0.60693 0.03505 0.0
O30 O 0.1296 0.58968 0.02775 0.0
O31 O 0.12194 0.50226 0.03782 0.0
C32 C 0.88801 0.35352 0.04202 0.0
O33 O 0.90239 0.3767 0.04896 0.0
O34 O 0.90985 0.36837 0.03525 0.0
O35 O 0.00959 0.42494 0.04196 0.0
O36 O 0.03713 0.48631 0.04886 0.0
O37 O 0.9411 0.46493 0.04163 0.0
C38 C 0.01567 0.48497 0.02179 0.0
C39 C 0.01702 0.44496 0.04889 0.0
Zn40 Zn 0.53603 0.59007 0.03845 0.0
Zn41 Zn 0.6225 0.53962 0.03845 0.0
C42 C 0.57578 0.68424 0.03715 0.0
O43 O 0.60468 0.68468 0.0424 0.0
C44 C 0.55073 0.45652 0.04319 0.0
O45 O 0.52755 0.47294 0.04014 0.0
O46 O 0.47072 0.55297 0.03996 0.0
O47 O 0.55946 0.56319 0.02959 0.0
O48 O 0.6029 0.53653 0.02652 0.0
C49 C 0.44701 0.55425 0.03407 0.0
O50 O 0.46603 0.57613 0.02718 0.0
O51 O 0.54567 0.64796 0.03432 0.0
C52 C 0.70134 0.55437 0.04613 0.0
O53 O 0.67377 0.53378 0.05229 0.0
O54 O 0.68744 0.56369 0.0395 0.0
O55 O 0.59737 0.57112 0.04393 0.0
O56 O 0.56623 0.60254 0.04998 0.0
O57 O 0.5921 0.47931 0.0431 0.0
C58 C 0.57445 0.54666 0.02428 0.0
C59 C 0.595 0.59142 0.05022 0.0
Zn60 Zn 0.97785 0.45754 0.44527 0.0
Zn61 Zn 0.09852 0.47831 0.44706 0.0
C62 C 0.89961 0.38086 0.44054 0.0
O63 O 0.90478 0.4055 0.43395 0.0
C64 C 0.15541 0.56657 0.44871 0.0
O65 O 0.16638 0.54883 0.45481 0.0
O66 O 0.94981 0.49494 0.44565 0.0
O67 O 0.0187 0.47043 0.45551 0.0
O68 O 0.08275 0.47776 0.45907 0.0
C69 C 0.92258 0.48726 0.45156 0.0
O70 O 0.91698 0.45826 0.45732 0.0
O71 O 0.9282 0.39577 0.44634 0.0
C72 C 0.16802 0.47706 0.43853 0.0
O73 O 0.16048 0.5019 0.43347 0.0
O74 O 0.14397 0.46072 0.44501 0.0
O75 O 0.04168 0.44083 0.44165 0.0
O76 O 0.00633 0.46261 0.43384 0.0
O77 O 0.12471 0.54164 0.44376 0.0
C78 C 0.04777 0.47761 0.46106 0.0
C79 C 0.03551 0.45213 0.43448 0.0
Zn80 Zn 0.59216 0.53402 0.44619 0.0
Zn81 Zn 0.552 0.62178 0.44751 0.0
C82 C 0.67357 0.54088 0.44342 0.0
O83 O 0.65554 0.52988 0.43592 0.0
C84 C 0.47332 0.5458 0.441 0.0
O85 O 0.48581 0.52328 0.44563 0.0
O86 O 0.55914 0.46926 0.44364 0.0
O87 O 0.56431 0.54854 0.45628 0.0
O88 O 0.53927 0.59411 0.45879 0.0
C89 C 0.53814 0.44046 0.44922 0.0
O90 O 0.53428 0.45295 0.45682 0.0
O91 O 0.65256 0.54639 0.44935 0.0
C92 C 0.55231 0.69888 0.44189 0.0
O93 O 0.53682 0.67484 0.43507 0.0
O94 O 0.56336 0.68382 0.44812 0.0
O95 O 0.60279 0.61751 0.44388 0.0
O96 O 0.59823 0.56758 0.43539 0.0
O97 O 0.49801 0.58691 0.44043 0.0
C98 C 0.54695 0.56426 0.46122 0.0
C99 C 0.60253 0.60497 0.43644 0.0
Zn100 Zn 0.51072 0.0701 0.44713 0.0
Zn101 Zn 0.42051 0.96784 0.45096 0.0
C102 C 0.49502 0.13934 0.44148 0.0
O103 O 0.50036 0.1271 0.43396 0.0
C104 C 0.46388 0.92164 0.45228 0.0
O105 O 0.44118 0.91328 0.45929 0.0
O106 O 0.57525 0.10224 0.44471 0.0
O107 O 0.50331 0.04524 0.459 0.0
O108 O 0.43817 0.99023 0.46253 0.0
C109 C 0.5988 0.12916 0.45038 0.0
O110 O 0.57993 0.13214 0.45729 0.0
O111 O 0.49612 0.11851 0.44792 0.0
C112 C 0.35 0.88995 0.44447 0.0
O113 O 0.37443 0.90508 0.43769 0.0
O114 O 0.36211 0.91264 0.45119 0.0
O115 O 0.41585 0.0099 0.44337 0.0
O116 O 0.47833 0.03155 0.4371 0.0
O117 O 0.46225 0.94783 0.44699 0.0
C118 C 0.47676 0.01912 0.46449 0.0
C119 C 0.43734 0.01581 0.43665 0.0
Zn120 Zn 0.57515 0.96912 0.95162 0.0
Zn121 Zn 0.59487 0.07727 0.94855 0.0
C122 C 0.48539 0.92895 0.95182 0.0
O123 O 0.49587 0.91886 0.95908 0.0
C124 C 0.67303 0.15428 0.94333 0.0
O125 O 0.65034 0.14654 0.93635 0.0
O126 O 0.57652 0.91309 0.95172 0.0
O127 O 0.62655 0.01253 0.9451 0.0
O128 O 0.59345 0.04141 0.93835 0.0
C129 C 0.56741 0.89065 0.94499 0.0
O130 O 0.55917 0.90569 0.93808 0.0
O131 O 0.51594 0.95342 0.94677 0.0
C132 C 0.53976 0.11509 0.95164 0.0
O133 O 0.5385 0.10101 0.95935 0.0
O134 O 0.55967 0.10651 0.94594 0.0
O135 O 0.57939 0.05104 0.9604 0.0
O136 O 0.57652 0.98837 0.9633 0.0
O137 O 0.65651 0.1278 0.94946 0.0
C138 C 0.61613 0.02276 0.93822 0.0
C139 C 0.57442 0.02154 0.96563 0.0
Zn140 Zn 0.09998 0.64327 0.94773 0.0
Zn141 Zn 0.97248 0.54826 0.94663 0.0
C142 C 0.15233 0.60698 0.94817 0.0
O143 O 0.16422 0.63317 0.95473 0.0
C144 C 0.91127 0.58136 0.94495 0.0
O145 O 0.93357 0.60158 0.93817 0.0
O146 O 0.14758 0.70657 0.94673 0.0
O147 O 0.04265 0.62742 0.94309 0.0
O148 O 0.99811 0.57428 0.93512 0.0
C149 C 0.17469 0.71712 0.94067 0.0
O150 O 0.16808 0.68774 0.93491 0.0
O151 O 0.12303 0.60531 0.9433 0.0
C152 C 0.91846 0.46023 0.95179 0.0
O153 O 0.91414 0.48059 0.95833 0.0
O154 O 0.9443 0.48272 0.94589 0.0
O155 O 0.01668 0.57235 0.95653 0.0
O156 O 0.08459 0.6239 0.9596 0.0
O157 O 0.9231 0.55907 0.94934 0.0
C158 C 0.03209 0.61132 0.93581 0.0
C159 C 0.04797 0.59158 0.96182 0.0
Zn160 Zn 0.41755 0.48221 0.95008 0.0
Zn161 Zn 0.51337 0.45814 0.94801 0.0
C162 C 0.45162 0.57028 0.95105 0.0
O163 O 0.42393 0.5536 0.95735 0.0
C164 C 0.49542 0.37109 0.94314 0.0
O165 O 0.4907 0.38311 0.93557 0.0
O166 O 0.3555 0.46878 0.94879 0.0
O167 O 0.42879 0.43897 0.94461 0.0
O168 O 0.48661 0.46185 0.93692 0.0
C169 C 0.34666 0.48367 0.94225 0.0
O170 O 0.37702 0.50343 0.93648 0.0
O171 O 0.4563 0.54443 0.94615 0.0
C172 C 0.6026 0.50852 0.95367 0.0
O173 O 0.58448 0.49608 0.96114 0.0
O174 O 0.57834 0.49756 0.94718 0.0
O175 O 0.48985 0.47196 0.95886 0.0
O176 O 0.43464 0.48282 0.96194 0.0
O177 O 0.50405 0.39724 0.9493 0.0
C178 C 0.44657 0.45001 0.93747 0.0
C179 C 0.46762 0.47996 0.9642 0.0
Zn180 Zn 0.96983 0.56783 0.53409 0.0
Zn181 Zn 0.08156 0.5908 0.53728 0.0
C182 C 0.92624 0.47856 0.53398 0.0
O183 O 0.91606 0.49013 0.52685 0.0
C184 C 0.14862 0.67731 0.54253 0.0
O185 O 0.13393 0.66181 0.55009 0.0
O186 O 0.91473 0.57138 0.53379 0.0
O187 O 0.01455 0.61856 0.54053 0.0
O188 O 0.04505 0.58763 0.54749 0.0
C189 C 0.8915 0.56152 0.54043 0.0
O190 O 0.90527 0.5514 0.54729 0.0
O191 O 0.95208 0.50838 0.53902 0.0
C192 C 0.13999 0.56011 0.5341 0.0
O193 O 0.14225 0.58015 0.52698 0.0
O194 O 0.11362 0.55817 0.53976 0.0
O195 O 0.05372 0.57244 0.52559 0.0
O196 O 0.99 0.56728 0.52253 0.0
O197 O 0.13021 0.65341 0.53613 0.0
C198 C 0.02394 0.60793 0.54748 0.0
C199 C 0.0236 0.56556 0.52034 0.0
Zn200 Zn 0.48401 0.41792 0.53607 0.0
Zn201 Zn 0.47059 0.51273 0.53898 0.0
C202 C 0.57257 0.45516 0.53439 0.0
O203 O 0.55562 0.42878 0.52791 0.0
C204 C 0.39428 0.51525 0.54455 0.0
O205 O 0.42034 0.53724 0.55081 0.0
O206 O 0.47495 0.35712 0.5368 0.0
O207 O 0.43967 0.42199 0.54302 0.0
O208 O 0.4787 0.48416 0.54939 0.0
C209 C 0.48895 0.34745 0.54337 0.0
O210 O 0.5058 0.37623 0.54949 0.0
O211 O 0.54683 0.45809 0.53962 0.0
C212 C 0.5002 0.60028 0.53464 0.0
O213 O 0.474 0.57974 0.52829 0.0
O214 O 0.50627 0.57804 0.54021 0.0
O215 O 0.48145 0.49592 0.52723 0.0
O216 O 0.48045 0.434 0.52431 0.0
O217 O 0.40809 0.49982 0.53886 0.0
C218 C 0.45642 0.44289 0.54973 0.0
C219 C 0.48381 0.46988 0.52197 0.0
Zn220 Zn 0.63976 0.09166 0.53781 0.0
Zn221 Zn 0.54279 0.97468 0.54063 0.0
C222 C 0.60455 0.14479 0.53735 0.0
O223 O 0.63022 0.15539 0.53072 0.0
C224 C 0.54879 0.89976 0.54519 0.0
O225 O 0.5334 0.90548 0.55233 0.0
O226 O 0.70275 0.14027 0.53831 0.0
O227 O 0.62848 0.03697 0.54314 0.0
O228 O 0.57226 0.00765 0.55137 0.0
C229 C 0.71402 0.16706 0.54444 0.0
O230 O 0.68549 0.15994 0.55041 0.0
O231 O 0.60243 0.11557 0.54232 0.0
C232 C 0.45036 0.93547 0.53636 0.0
O233 O 0.46505 0.95195 0.52885 0.0
O234 O 0.47742 0.94301 0.54228 0.0
O235 O 0.56048 0.00971 0.52946 0.0
O236 O 0.61819 0.07432 0.52623 0.0
O237 O 0.557 0.92666 0.53921 0.0
C238 C 0.61282 0.03298 0.55042 0.0
C239 C 0.58281 0.04015 0.52416 0.0
Zn240 Zn 0.16509 0.32696 0.37334 0.0
Zn241 Zn 0.17681 0.4334 0.36923 0.0
C242 C 0.08621 0.25353 0.3795 0.0
O243 O 0.11206 0.25841 0.38586 0.0
C244 C 0.26533 0.48962 0.36804 0.0
O245 O 0.24875 0.4967 0.36122 0.0
O246 O 0.19653 0.29334 0.37512 0.0
O247 O 0.1787 0.35225 0.36132 0.0
O248 O 0.17635 0.41184 0.35777 0.0
C249 C 0.18988 0.26543 0.36941 0.0
O250 O 0.16634 0.26309 0.36282 0.0
O251 O 0.10129 0.28029 0.37338 0.0
C252 C 0.17493 0.50744 0.37541 0.0
O253 O 0.19432 0.50006 0.38173 0.0
O254 O 0.16257 0.48173 0.36911 0.0
O255 O 0.13383 0.38512 0.37633 0.0
O256 O 0.1742 0.36622 0.38341 0.0
O257 O 0.23952 0.46079 0.37323 0.0
C258 C 0.18131 0.37979 0.35581 0.0
C259 C 0.151 0.38423 0.38324 0.0
Zn260 Zn 0.74744 0.87731 0.37575 0.0
Zn261 Zn 0.65779 0.78745 0.37162 0.0
C262 C 0.8188 0.86408 0.3797 0.0
O263 O 0.81488 0.88047 0.38686 0.0
C264 C 0.60467 0.82291 0.36888 0.0
O265 O 0.60056 0.79992 0.36208 0.0
O266 O 0.78654 0.94134 0.3785 0.0
O267 O 0.71944 0.87621 0.36435 0.0
O268 O 0.68618 0.80679 0.36055 0.0
C269 C 0.81285 0.96318 0.37259 0.0
O270 O 0.81054 0.94332 0.36545 0.0
O271 O 0.79141 0.857 0.37384 0.0
C272 C 0.58039 0.71196 0.37696 0.0
O273 O 0.59116 0.73528 0.38391 0.0
O274 O 0.60562 0.72684 0.3706 0.0
O275 O 0.69708 0.78447 0.38014 0.0
O276 O 0.71048 0.8455 0.38614 0.0
O277 O 0.63075 0.82491 0.37463 0.0
C278 C 0.70342 0.84685 0.35866 0.0
C279 C 0.70162 0.80612 0.38677 0.0
Zn280 Zn 0.20021 0.91585 0.37176 0.0
Zn281 Zn 0.29416 0.90407 0.36771 0.0
C282 C 0.21255 0.99774 0.37767 0.0
O283 O 0.19348 0.97405 0.38438 0.0
C284 C 0.25288 0.81475 0.36625 0.0
O285 O 0.27411 0.82935 0.3591 0.0
O286 O 0.13479 0.88731 0.37389 0.0
O287 O 0.20937 0.90033 0.35983 0.0
O288 O 0.27318 0.9068 0.35625 0.0
C289 C 0.11335 0.8959 0.36852 0.0
O290 O 0.1341 0.91981 0.36193 0.0
O291 O 0.2205 0.9801 0.37145 0.0
C292 C 0.36776 0.89938 0.37378 0.0
O293 O 0.34176 0.88412 0.38035 0.0
O294 O 0.35525 0.91204 0.36739 0.0
O295 O 0.29336 0.9479 0.37539 0.0
O296 O 0.23095 0.90661 0.38169 0.0
O297 O 0.25519 0.84224 0.37169 0.0
C298 C 0.23518 0.89937 0.35432 0.0
C299 C 0.27222 0.93041 0.38206 0.0
Zn300 Zn 0.64306 0.79736 0.77816 0.0
Zn301 Zn 0.75706 0.81523 0.78066 0.0
C302 C 0.58026 0.70815 0.7838 0.0
O303 O 0.60594 0.71775 0.79039 0.0
C304 C 0.80929 0.90411 0.78202 0.0
O305 O 0.8191 0.88786 0.78855 0.0
O306 O 0.61645 0.83588 0.77742 0.0
O307 O 0.67417 0.80758 0.78972 0.0
O308 O 0.7388 0.81364 0.7924 0.0
C309 C 0.59015 0.83175 0.78329 0.0
O310 O 0.5849 0.80578 0.78965 0.0
O311 O 0.59063 0.73614 0.77794 0.0
C312 C 0.83253 0.81929 0.77343 0.0
O313 O 0.82332 0.83956 0.76755 0.0
O314 O 0.80696 0.80331 0.77972 0.0
O315 O 0.70426 0.77154 0.77475 0.0
O316 O 0.67802 0.80475 0.76747 0.0
O317 O 0.78038 0.87784 0.77688 0.0
C318 C 0.70412 0.81257 0.79489 0.0
C319 C 0.7007 0.78628 0.76776 0.0
Zn320 Zn 0.26148 0.87988 0.77963 0.0
Zn321 Zn 0.23808 0.97447 0.78177 0.0
C322 C 0.34103 0.88434 0.77463 0.0
O323 O 0.31812 0.86736 0.76774 0.0
C324 C 0.14845 0.93435 0.78219 0.0
O325 O 0.16142 0.95849 0.78904 0.0
O326 O 0.22691 0.81439 0.7787 0.0
O327 O 0.24568 0.89947 0.79069 0.0
O328 O 0.23574 0.95554 0.79354 0.0
C329 C 0.2321 0.79274 0.78452 0.0
O330 O 0.25684 0.81388 0.791 0.0
O331 O 0.32399 0.89425 0.78067 0.0
C332 C 0.23524 0.04701 0.7747 0.0
O333 O 0.21411 0.01782 0.76881 0.0
O334 O 0.25078 0.03663 0.78094 0.0
O335 O 0.28264 0.96509 0.77635 0.0
O336 O 0.25573 0.90656 0.76874 0.0
O337 O 0.17718 0.93511 0.77726 0.0
C338 C 0.23723 0.92195 0.79588 0.0
C339 C 0.2702 0.94718 0.76925 0.0
Zn340 Zn 0.18079 0.41283 0.78133 0.0
Zn341 Zn 0.08852 0.30138 0.78338 0.0
C342 C 0.18066 0.49011 0.7761 0.0
O343 O 0.19748 0.48337 0.76927 0.0
C344 C 0.13467 0.25814 0.78399 0.0
O345 O 0.11131 0.24688 0.79094 0.0
O346 O 0.2465 0.44221 0.7801 0.0
O347 O 0.16376 0.38264 0.79283 0.0
O348 O 0.10447 0.31846 0.79523 0.0
C349 C 0.26827 0.46605 0.7863 0.0
O350 O 0.24702 0.46753 0.79297 0.0
O351 O 0.16933 0.46297 0.78214 0.0
C352 C 0.01848 0.22363 0.77614 0.0
O353 O 0.04519 0.23702 0.76966 0.0
O354 O 0.02931 0.24697 0.78278 0.0
O355 O 0.08763 0.34946 0.77718 0.0
O356 O 0.15033 0.37915 0.77066 0.0
O357 O 0.13157 0.28438 0.77894 0.0
C358 C 0.13861 0.35213 0.79784 0.0
C359 C 0.10891 0.35853 0.77037 0.0
Zn360 Zn 0.2308 0.28941 0.28035 0.0
Zn361 Zn 0.26258 0.41638 0.2798 0.0
C362 C 0.14227 0.23388 0.28108 0.0
O363 O 0.15794 0.22184 0.28738 0.0
C364 C 0.35708 0.47634 0.27833 0.0
O365 O 0.35542 0.45166 0.27199 0.0
O366 O 0.24854 0.24419 0.27836 0.0
O367 O 0.27036 0.34756 0.27582 0.0
O368 O 0.26374 0.39334 0.26796 0.0
C369 C 0.23458 0.22169 0.27164 0.0
O370 O 0.2126 0.23122 0.26621 0.0
O371 O 0.16882 0.2649 0.27636 0.0
C372 C 0.2269 0.4679 0.28571 0.0
O373 O 0.25325 0.47318 0.292 0.0
O374 O 0.22334 0.44252 0.2797 0.0
O375 O 0.24532 0.3711 0.28952 0.0
O376 O 0.22912 0.30317 0.29243 0.0
O377 O 0.32247 0.46655 0.28242 0.0
C378 C 0.26643 0.35917 0.26854 0.0
C379 C 0.23467 0.34005 0.29481 0.0
Zn380 Zn 0.74835 0.96485 0.28208 0.0
Zn381 Zn 0.63644 0.87241 0.28145 0.0
C382 C 0.75811 0.88803 0.2789 0.0
O383 O 0.72907 0.86926 0.28492 0.0
C384 C 0.55743 0.86976 0.27629 0.0
O385 O 0.5646 0.85362 0.26941 0.0
O386 O 0.80017 0.02524 0.28139 0.0
O387 O 0.69709 0.96385 0.27682 0.0
O388 O 0.66807 0.90085 0.27057 0.0
C389 C 0.82231 0.03761 0.27461 0.0
O390 O 0.80868 0.01172 0.268 0.0
O391 O 0.76783 0.92601 0.27643 0.0
C392 C 0.59769 0.78299 0.28673 0.0
O393 O 0.6038 0.80079 0.29423 0.0
O394 O 0.61078 0.80754 0.28027 0.0
O395 O 0.66841 0.89232 0.29278 0.0
O396 O 0.73579 0.94849 0.29405 0.0
O397 O 0.58463 0.88132 0.28232 0.0
C398 C 0.68764 0.94208 0.27008 0.0
C399 C 0.70132 0.91767 0.2973 0.0
Zn400 Zn 0.07838 0.83127 0.27997 0.0
Zn401 Zn 0.16802 0.79013 0.27957 0.0
C402 C 0.15481 0.91269 0.27468 0.0
O403 O 0.17665 0.89835 0.27903 0.0
C404 C 0.16418 0.71032 0.27655 0.0
O405 O 0.1795 0.73104 0.26938 0.0
O406 O 0.01479 0.81493 0.27947 0.0
O407 O 0.09136 0.78665 0.27595 0.0
O408 O 0.14206 0.7888 0.26806 0.0
C409 C 1.0018 0.82628 0.27297 0.0
O410 O 0.02916 0.84523 0.2667 0.0
O411 O 0.11371 0.88864 0.27394 0.0
C412 C 0.25546 0.82108 0.28461 0.0
O413 O 0.23458 0.79776 0.29125 0.0
O414 O 0.23357 0.82486 0.27865 0.0
O415 O 0.14685 0.81561 0.28906 0.0
O416 O 0.10106 0.84008 0.29172 0.0
O417 O 0.15425 0.72878 0.28233 0.0
C418 C 0.10649 0.78886 0.26867 0.0
C419 C 0.13032 0.83148 0.29416 0.0
Zn420 Zn 0.64406 0.89893 0.86904 0.0
Zn421 Zn 0.73959 0.90452 0.87291 0.0
C422 C 0.59608 0.80884 0.86751 0.0
O423 O 0.58917 0.82336 0.86039 0.0
C424 C 0.81099 0.98671 0.87776 0.0
O425 O 0.804 0.96444 0.88477 0.0
O426 O 0.58966 0.90374 0.86834 0.0
O427 O 0.68418 0.9444 0.87704 0.0
O428 O 0.70246 0.90046 0.88314 0.0
C429 C 0.56574 0.89406 0.87488 0.0
O430 O 0.57867 0.88378 0.88184 0.0
O431 O 0.62179 0.83651 0.87289 0.0
C432 C 0.80305 0.88056 0.87007 0.0
O433 O 0.80279 0.89888 0.86288 0.0
O434 O 0.77619 0.87693 0.87579 0.0
O435 O 0.71306 0.88038 0.86129 0.0
O436 O 0.6689 0.90506 0.85764 0.0
O437 O 0.78554 0.96843 0.87153 0.0
C438 C 0.69133 0.92939 0.8837 0.0
C439 C 0.69129 0.88736 0.85572 0.0
Zn440 Zn 0.16034 0.76529 0.86978 0.0
Zn441 Zn 0.15002 0.86033 0.87373 0.0
C442 C 0.24848 0.79812 0.86825 0.0
O443 O 0.23079 0.77317 0.8616 0.0
C444 C 0.07087 0.85656 0.87938 0.0
O445 O 0.09613 0.87815 0.88577 0.0
O446 O 0.14804 0.70316 0.86986 0.0
O447 O 0.11712 0.77004 0.87694 0.0
O448 O 0.15857 0.82994 0.88381 0.0
C449 C 0.16037 0.69117 0.87636 0.0
O450 O 0.17749 0.71853 0.88269 0.0
O451 O 0.22346 0.80193 0.87353 0.0
C452 C 0.17662 0.94788 0.87004 0.0
O453 O 0.15388 0.92797 0.86328 0.0
O454 O 0.18196 0.92539 0.87567 0.0
O455 O 0.16449 0.84893 0.8618 0.0
O456 O 0.15893 0.78545 0.85827 0.0
O457 O 0.08631 0.84375 0.8735 0.0
C458 C 0.13447 0.78878 0.88379 0.0
C459 C 0.16595 0.82324 0.85631 0.0
Zn460 Zn 0.29332 0.42054 0.87165 0.0
Zn461 Zn 0.19635 0.31249 0.87526 0.0
C462 C 0.2577 0.47343 0.87015 0.0
O463 O 0.2818 0.48104 0.86336 0.0
C464 C 0.20485 0.2396 0.88055 0.0
O465 O 0.18459 0.24276 0.88722 0.0
O466 O 0.35583 0.47069 0.87153 0.0
O467 O 0.28651 0.3715 0.87869 0.0
O468 O 0.22589 0.35052 0.88553 0.0
C469 C 0.36854 0.49806 0.87757 0.0
O470 O 0.3418 0.4909 0.8839 0.0
O471 O 0.25632 0.44607 0.87552 0.0
C472 C 0.11024 0.24915 0.87095 0.0
O473 O 0.13249 0.24805 0.86441 0.0
O474 O 0.13061 0.27668 0.87679 0.0
O475 O 0.20859 0.34069 0.86355 0.0
O476 O 0.27227 0.39899 0.86016 0.0
O477 O 0.21511 0.26734 0.87465 0.0
C478 C 0.26728 0.36987 0.8855 0.0
C479 C 0.23431 0.36854 0.85816 0.0
Zn480 Zn 0.80593 0.64367 0.70633 0.0
Zn481 Zn 0.83802 0.77032 0.70534 0.0
C482 C 0.72285 0.57124 0.70992 0.0
O483 O 0.7424 0.57641 0.71722 0.0
C484 C 0.91897 0.77731 0.71151 0.0
O485 O 0.90585 0.74054 0.70743 0.0
O486 O 0.83805 0.60975 0.70726 0.0
O487 O 0.82947 0.6865 0.69624 0.0
O488 O 0.84929 0.75613 0.69385 0.0
C489 C 0.8313 0.58217 0.70146 0.0
O490 O 0.80667 0.57944 0.69503 0.0
O491 O 0.7434 0.59801 0.70401 0.0
C492 C 0.83449 0.84569 0.71096 0.0
O493 O 0.8542 0.84041 0.71749 0.0
O494 O 0.82153 0.8177 0.70502 0.0
O495 O 0.79338 0.71293 0.70953 0.0
O496 O 0.80727 0.672 0.71757 0.0
O497 O 0.89439 0.79389 0.71177 0.0
C498 C 0.84388 0.71952 0.69131 0.0
C499 C 0.80033 0.70359 0.71682 0.0
Zn500 Zn 0.41297 0.18686 0.70691 0.0
Zn501 Zn 0.28976 0.08838 0.70539 0.0
C502 C 0.49035 0.18692 0.71161 0.0
O503 O 0.48637 0.20769 0.71811 0.0
C504 C 0.23084 0.11664 0.70372 0.0
O505 O 0.22054 0.08745 0.69772 0.0
O506 O 0.44189 0.25234 0.70657 0.0
O507 O 0.3718 0.15878 0.69662 0.0
O508 O 0.30579 0.10363 0.69343 0.0
C509 C 0.46951 0.27233 0.70075 0.0
O510 O 0.47517 0.24939 0.69489 0.0
O511 O 0.46156 0.17342 0.70585 0.0
C512 C 0.22243 0.01667 0.71403 0.0
O513 O 0.22972 0.04881 0.71915 0.0
O514 O 0.24589 0.02498 0.70745 0.0
O515 O 0.34679 0.10897 0.71064 0.0
O516 O 0.38548 0.16496 0.71848 0.0
O517 O 0.26212 0.1241 0.70865 0.0
C518 C 0.34189 0.13667 0.69121 0.0
C519 C 0.35416 0.12629 0.71782 0.0
Zn520 Zn 0.87143 0.2458 0.70448 0.0
Zn521 Zn 0.96 0.2453 0.70087 0.0
C522 C 0.87891 0.32707 0.7091 0.0
O523 O 0.86389 0.3051 0.71616 0.0
C524 C 0.91742 0.15466 0.69925 0.0
O525 O 0.94034 0.16894 0.69227 0.0
O526 O 0.80749 0.21615 0.70731 0.0
O527 O 0.87423 0.22148 0.69291 0.0
O528 O 0.94394 0.25344 0.6894 0.0
C529 C 0.7837 0.21827 0.70154 0.0
O530 O 0.80196 0.2369 0.69434 0.0
O531 O 0.88727 0.30909 0.70298 0.0
C532 C 0.03132 0.23971 0.70726 0.0
O533 O 0.00779 0.23183 0.71413 0.0
O534 O 0.01826 0.24864 0.70048 0.0
O535 O 0.96548 0.29026 0.70902 0.0
O536 O 0.90399 0.24246 0.71482 0.0
O537 O 0.91848 0.18252 0.70448 0.0
C538 C 0.90398 0.23263 0.68735 0.0
C539 C 0.94324 0.27312 0.7156 0.0
Zn540 Zn 0.32266 0.14923 0.11247 0.0
Zn541 Zn 0.44502 0.17763 0.11456 0.0
C542 C 0.24531 0.07277 0.10748 0.0
O543 O 0.25057 0.0982 0.10102 0.0
C544 C 0.49822 0.2666 0.11592 0.0
O545 O 0.50891 0.2507 0.12239 0.0
O546 O 0.2941 0.18607 0.11238 0.0
O547 O 0.3614 0.16241 0.12311 0.0
O548 O 0.4281 0.17614 0.12647 0.0
C549 C 0.26721 0.17956 0.11829 0.0
O550 O 0.26239 0.15218 0.12434 0.0
O551 O 0.27331 0.08731 0.11339 0.0
C552 C 0.51377 0.17553 0.10601 0.0
O553 O 0.50425 0.19768 0.10062 0.0
O554 O 0.49165 0.1618 0.11278 0.0
O555 O 0.38964 0.13632 0.10916 0.0
O556 O 0.35171 0.15364 0.10111 0.0
O557 O 0.46892 0.24014 0.11089 0.0
C558 C 0.39103 0.17078 0.12861 0.0
C559 C 0.38232 0.14531 0.10188 0.0
Zn560 Zn 0.92788 0.2076 0.11273 0.0
Zn561 Zn 0.89457 0.30164 0.11407 0.0
C562 C 0.01151 0.22042 0.10918 0.0
O563 O 0.99211 0.20618 0.10186 0.0
C564 C 0.81378 0.22915 0.10749 0.0
O565 O 0.82554 0.20457 0.11162 0.0
O566 O 0.89672 0.14164 0.11142 0.0
O567 O 0.90279 0.22491 0.12272 0.0
O568 O 0.88192 0.2735 0.12543 0.0
C569 C 0.90272 0.11975 0.1171 0.0
O570 O 0.92616 0.14042 0.12374 0.0
O571 O 0.99054 0.22565 0.11514 0.0
C572 C 0.89986 0.38174 0.1087 0.0
O573 O 0.88587 0.35931 0.10167 0.0
O574 O 0.90899 0.36491 0.11491 0.0
O575 O 0.941 0.29209 0.10943 0.0
O576 O 0.9263 0.23553 0.10173 0.0
O577 O 0.83924 0.2702 0.10734 0.0
C578 C 0.88743 0.2421 0.12776 0.0
C579 C 0.93345 0.27428 0.10225 0.0
Zn580 Zn 0.86511 0.74469 0.11124 0.0
Zn581 Zn 0.77455 0.66129 0.11479 0.0
C582 C 0.85751 0.8191 0.10713 0.0
O583 O 0.87386 0.81398 0.10007 0.0
C584 C 0.80694 0.60463 0.11698 0.0
O585 O 0.78053 0.59652 0.12341 0.0
O586 O 0.92943 0.78049 0.10878 0.0
O587 O 0.86105 0.71514 0.12258 0.0
O588 O 0.79177 0.68671 0.12614 0.0
C589 C 0.95166 0.80554 0.1148 0.0
O590 O 0.9317 0.8039 0.1219 0.0
O591 O 0.84827 0.79135 0.11302 0.0
C592 C 0.70011 0.58586 0.1086 0.0
O593 O 0.72497 0.59797 0.10185 0.0
O594 O 0.71357 0.60972 0.11516 0.0
O595 O 0.77481 0.70294 0.10641 0.0
O596 O 0.83371 0.70934 0.10072 0.0
O597 O 0.81214 0.63433 0.11179 0.0
C598 C 0.83121 0.70079 0.12818 0.0
C599 C 0.79578 0.70427 0.09987 0.0
Zn600 Zn 0.9161 0.65166 0.6165 0.0
Zn601 Zn 0.91507 0.74103 0.61288 0.0
C602 C 0.82654 0.60064 0.61888 0.0
O603 O 0.84377 0.59404 0.62566 0.0
C604 C 0.99552 0.81706 0.60818 0.0
O605 O 0.97282 0.81147 0.60127 0.0
O606 O 0.92183 0.59809 0.61674 0.0
O607 O 0.95953 0.69199 0.6082 0.0
O608 O 0.91103 0.70486 0.60252 0.0
C609 C 0.91274 0.57618 0.60994 0.0
O610 O 0.90337 0.59127 0.60317 0.0
O611 O 0.85209 0.62762 0.61338 0.0
C612 C 0.88105 0.79598 0.61632 0.0
O613 O 0.89743 0.79487 0.62368 0.0
O614 O 0.88345 0.77368 0.61027 0.0
O615 O 0.89332 0.7143 0.62459 0.0
O616 O 0.92554 0.67659 0.62792 0.0
O617 O 0.97825 0.78944 0.61413 0.0
C618 C 0.94193 0.69675 0.60167 0.0
C619 C 0.90541 0.69625 0.63008 0.0
Zn620 Zn 0.43294 0.29528 0.61721 0.0
Zn621 Zn 0.32281 0.20223 0.61371 0.0
C622 C 0.47678 0.24877 0.61742 0.0
O623 O 0.485 0.26718 0.6249 0.0
C624 C 0.25285 0.2147 0.60828 0.0
O625 O 0.2586 0.19799 0.60133 0.0
O626 O 0.48668 0.35588 0.61763 0.0
O627 O 0.38633 0.29527 0.6103 0.0
O628 O 0.36135 0.23331 0.60362 0.0
C629 C 0.51269 0.36922 0.61135 0.0
O630 O 0.50266 0.34428 0.60464 0.0
O631 O 0.45294 0.25549 0.61236 0.0
C632 C 0.25786 0.1152 0.61728 0.0
O633 O 0.25634 0.13587 0.62404 0.0
O634 O 0.28623 0.13681 0.61164 0.0
O635 O 0.35032 0.21195 0.62538 0.0
O636 O 0.41139 0.2732 0.62872 0.0
O637 O 0.27811 0.22148 0.6145 0.0
C638 C 0.3814 0.27476 0.60349 0.0
C639 C 0.37925 0.23626 0.63074 0.0
Zn640 Zn 0.7699 0.16781 0.61201 0.0
Zn641 Zn 0.86934 0.14401 0.6103 0.0
C642 C 0.79571 0.25449 0.61344 0.0
O643 O 0.76762 0.2354 0.61961 0.0
C644 C 0.83529 0.05004 0.6073 0.0
O645 O 0.81484 0.05405 0.60076 0.0
O646 O 0.70556 0.14596 0.61078 0.0
O647 O 0.79172 0.13239 0.607 0.0
O648 O 0.84517 0.14678 0.59871 0.0
C649 C 0.69383 0.16163 0.60477 0.0
O650 O 0.72319 0.1873 0.59925 0.0
O651 O 0.80331 0.23091 0.60846 0.0
C652 C 0.95568 0.17554 0.61598 0.0
O653 O 0.93353 0.14894 0.62217 0.0
O654 O 0.93486 0.18129 0.61007 0.0
O655 O 0.84342 0.15845 0.6209 0.0
O656 O 0.7877 0.16908 0.62379 0.0
O657 O 0.85822 0.08293 0.61197 0.0
C658 C 0.80703 0.14042 0.59966 0.0
C659 C 0.82089 0.16671 0.62615 0.0
Zn660 Zn 0.29022 0.21934 0.20326 0.0
Zn661 Zn 0.39958 0.2349 0.20673 0.0
C662 C 0.23943 0.13012 0.20259 0.0
O663 O 0.22977 0.14444 0.19574 0.0
C664 C 0.47564 0.31464 0.21185 0.0
O665 O 0.47095 0.29126 0.21861 0.0
O666 O 0.23937 0.23009 0.20353 0.0
O667 O 0.33949 0.26562 0.20976 0.0
O668 O 0.36314 0.22974 0.21708 0.0
C669 C 0.21728 0.22091 0.21031 0.0
O670 O 0.22933 0.20637 0.21679 0.0
O671 O 0.26744 0.1579 0.20766 0.0
C672 C 0.45964 0.20805 0.20264 0.0
O673 O 0.4621 0.23163 0.19604 0.0
O674 O 0.4322 0.20214 0.20841 0.0
O675 O 0.37111 0.2199 0.19501 0.0
O676 O 0.30967 0.21887 0.19161 0.0
O677 O 0.44766 0.29792 0.20596 0.0
C678 C 0.34377 0.25168 0.21681 0.0
C679 C 0.34242 0.2152 0.18959 0.0
Zn680 Zn 0.82541 0.08643 0.20213 0.0
Zn681 Zn 0.79985 0.17593 0.20507 0.0
C682 C 0.91212 0.16207 0.20583 0.0
O683 O 0.90182 0.18299 0.2003 0.0
C684 C 0.72037 0.1711 0.21052 0.0
O685 O 0.74428 0.18918 0.21726 0.0
O686 O 0.81808 0.02618 0.20159 0.0
O687 O 0.77576 0.08324 0.20857 0.0
O688 O 0.80601 0.14535 0.21533 0.0
C689 C 0.82591 0.01108 0.20823 0.0
O690 O 0.83579 0.0341 0.21521 0.0
O691 O 0.88391 0.12318 0.20783 0.0
C692 C 0.828 0.26396 0.20138 0.0
O693 O 0.80488 0.24439 0.19463 0.0
O694 O 0.83284 0.24105 0.20698 0.0
O695 O 0.8156 0.16322 0.19344 0.0
O696 O 0.82784 0.10883 0.19055 0.0
O697 O 0.73674 0.16067 0.20443 0.0
C698 C 0.78786 0.10406 0.21544 0.0
C699 C 0.8245 0.14138 0.18822 0.0
Zn700 Zn 0.95798 0.73786 0.20359 0.0
Zn701 Zn 0.86073 0.63473 0.20598 0.0
C702 C 0.925 0.79291 0.20203 0.0
O703 O 0.95188 0.80197 0.19564 0.0
C704 C 0.8655 0.55988 0.21154 0.0
O705 O 0.84499 0.56376 0.2181 0.0
O706 O 0.02017 0.78798 0.20432 0.0
O707 O 0.94973 0.6872 0.21029 0.0
O708 O 0.88895 0.67205 0.21638 0.0
C709 C 0.03058 0.81358 0.21062 0.0
O710 O 1.00182 0.80432 0.21666 0.0
O711 O 0.92009 0.76312 0.20716 0.0
C712 C 0.77332 0.57302 0.20189 0.0
O713 O 0.79387 0.56979 0.19527 0.0
O714 O 0.79527 0.6012 0.20751 0.0
O715 O 0.87482 0.6624 0.19416 0.0
O716 O 0.94115 0.71937 0.19186 0.0
O717 O 0.8773 0.58785 0.20565 0.0
C718 C 0.9296 0.68623 0.21691 0.0
C719 C 0.90383 0.69044 0.18921 0.0
H720 H 0.38986 0.17724 0.0858 0.0
H721 H 0.42329 0.09829 0.10139 0.0
H722 H 0.41862 0.15832 0.07345 0.0
H723 H 0.45079 0.07874 0.08919 0.0
H724 H 0.50992 0.05662 0.0662 0.0
H725 H 0.50224 0.09723 0.07798 0.0
H726 H 0.39058 0.09167 0.06568 0.0
H727 H 0.39901 0.05254 0.05397 0.0
C728 C 0.40383 0.15637 0.0866 0.0
C729 C 0.40425 0.13918 0.09454 0.0
C730 C 0.42021 0.14544 0.07955 0.0
C731 C 0.43664 0.11665 0.08032 0.0
C732 C 0.43897 0.1014 0.08835 0.0
C733 C 0.42286 0.11242 0.09536 0.0
C734 C 0.48403 0.06447 0.06604 0.0
C735 C 0.45508 0.05152 0.0592 0.0
C736 C 0.47965 0.08775 0.07275 0.0
C737 C 0.44586 0.09787 0.07276 0.0
C738 C 0.4175 0.08536 0.06582 0.0
C739 C 0.42202 0.06242 0.05914 0.0
H740 H 0.97603 0.36207 0.10045 0.0
H741 H 0.89422 0.24215 0.08701 0.0
H742 H 0.98892 0.40323 0.08752 0.0
H743 H 0.90505 0.28356 0.07405 0.0
H744 H 0.99164 0.36016 0.0517 0.0
H745 H 0.9627 0.31868 0.06457 0.0
H746 H 0.9667 0.43077 0.07642 0.0
H747 H 0.998 0.47303 0.06356 0.0
C748 C 0.95984 0.34463 0.09474 0.0
C749 C 0.93465 0.29891 0.09468 0.0
C750 C 0.96696 0.3683 0.08732 0.0
C751 C 0.94859 0.34677 0.07967 0.0
C752 C 0.92075 0.30115 0.07976 0.0
C753 C 0.91426 0.27739 0.08719 0.0
C754 C 0.9862 0.3759 0.05705 0.0
C755 C 0.9976 0.41995 0.05668 0.0
C756 C 0.96903 0.35192 0.06442 0.0
C757 C 0.96223 0.37123 0.07158 0.0
C758 C 0.97223 0.41502 0.07109 0.0
C759 C 0.99013 0.43927 0.06373 0.0
H760 H 0.57532 0.58656 0.06687 0.0
H761 H 0.68204 0.62353 0.04954 0.0
H762 H 0.62655 0.61196 0.07867 0.0
H763 H 0.73373 0.64986 0.06127 0.0
H764 H 0.80876 0.66371 0.08628 0.0
H765 H 0.75992 0.63171 0.07413 0.0
H766 H 0.6801 0.68346 0.08341 0.0
H767 H 0.72779 0.71411 0.0955 0.0
C768 C 0.60979 0.59981 0.06562 0.0
C769 C 0.62496 0.60278 0.05737 0.0
C770 C 0.63915 0.61455 0.07234 0.0
C771 C 0.6843 0.63348 0.07089 0.0
C772 C 0.6992 0.63508 0.06261 0.0
C773 C 0.66969 0.61991 0.05591 0.0
C774 C 0.78114 0.66872 0.08561 0.0
C775 C 0.77182 0.69111 0.09183 0.0
C776 C 0.75309 0.65027 0.07869 0.0
C777 C 0.7156 0.65424 0.07792 0.0
C778 C 0.70786 0.67858 0.08395 0.0
C779 C 0.7355 0.69662 0.09083 0.0
H780 H 0.05675 0.50157 0.42006 0.0
H781 H 0.0719 0.40174 0.43258 0.0
H782 H 0.09609 0.49641 0.40779 0.0
H783 H 0.10965 0.39554 0.42039 0.0
H784 H 0.18975 0.3981 0.39884 0.0
H785 H 0.17204 0.42619 0.41143 0.0
H786 H 0.07803 0.44336 0.39703 0.0
H787 H 0.09663 0.41706 0.38455 0.0
C788 C 0.06874 0.4788 0.42019 0.0
C789 C 0.06145 0.45213 0.42724 0.0
C790 C 0.09122 0.47578 0.41319 0.0
C791 C 0.10605 0.44552 0.4131 0.0
C792 C 0.09956 0.41979 0.42028 0.0
C793 C 0.07749 0.42304 0.42725 0.0
C794 C 0.16577 0.40848 0.39838 0.0
C795 C 0.14411 0.40471 0.39074 0.0
C796 C 0.15557 0.4245 0.40557 0.0
C797 C 0.12323 0.43659 0.40527 0.0
C798 C 0.10341 0.4349 0.39751 0.0
C799 C 0.11376 0.41923 0.39035 0.0
H800 H 0.59133 0.58524 0.41962 0.0
H801 H 0.6322 0.69212 0.43717 0.0
H802 H 0.61351 0.63663 0.4079 0.0
H803 H 0.65495 0.74344 0.42549 0.0
H804 H 0.71353 0.73909 0.39075 0.0
H805 H 0.6851 0.69096 0.40285 0.0
H806 H 0.63355 0.76942 0.41295 0.0
H807 H 0.66322 0.81863 0.40077 0.0
C808 C 0.60457 0.6196 0.42097 0.0
C809 C 0.61021 0.63466 0.4293 0.0
C810 C 0.6175 0.64907 0.41427 0.0
C811 C 0.63671 0.69419 0.41579 0.0
C812 C 0.64016 0.70894 0.42411 0.0
C813 C 0.62713 0.67946 0.4308 0.0
C814 C 0.69656 0.74639 0.39561 0.0
C815 C 0.69037 0.7824 0.39483 0.0
C816 C 0.6798 0.71851 0.40248 0.0
C817 C 0.65607 0.7257 0.40874 0.0
C818 C 0.65158 0.76298 0.4082 0.0
C819 C 0.66874 0.79126 0.40128 0.0
H820 H 0.24022 0.89159 0.39741 0.0
H821 H 0.35895 0.98423 0.38468 0.0
H822 H 0.28067 0.90629 0.41063 0.0
H823 H 0.3987 0.99996 0.39783 0.0
H824 H 0.46782 0.00248 0.4217 0.0
H825 H 0.42718 0.97451 0.40856 0.0
H826 H 0.31282 0.96514 0.42044 0.0
H827 H 0.35276 0.99143 0.43356 0.0
C828 C 0.27486 0.91503 0.39744 0.0
C829 C 0.29626 0.93709 0.39003 0.0
C830 C 0.29803 0.92357 0.405 0.0
C831 C 0.3429 0.95457 0.4053 0.0
C832 C 0.36437 0.9755 0.39782 0.0
C833 C 0.34138 0.96677 0.39028 0.0
C834 C 0.43399 0.99435 0.42148 0.0
C835 C 0.41359 0.99947 0.42863 0.0
C836 C 0.41069 0.97833 0.41397 0.0
C837 C 0.36671 0.9676 0.41344 0.0
C838 C 0.34633 0.97228 0.42065 0.0
C839 C 0.36944 0.98786 0.42815 0.0
H840 H 0.58655 0.0243 0.92233 0.0
H841 H 0.66939 0.9887 0.93611 0.0
H842 H 0.60376 0.99956 0.90928 0.0
H843 H 0.68765 0.96541 0.92309 0.0
H844 H 0.67895 0.88944 0.89911 0.0
H845 H 0.65875 0.91035 0.91233 0.0
H846 H 0.66401 0.02153 0.89991 0.0
H847 H 0.68267 0.99999 0.88675 0.0
C848 C 0.60865 0.01152 0.92257 0.0
C849 C 0.62673 0.00865 0.93024 0.0
C850 C 0.61866 0.99746 0.91509 0.0
C851 C 0.64724 0.98063 0.91514 0.0
C852 C 0.66507 0.9776 0.92283 0.0
C853 C 0.65486 0.99134 0.9303 0.0
C854 C 0.67597 0.91842 0.89924 0.0
C855 C 0.68223 0.94296 0.89189 0.0
C856 C 0.66446 0.93046 0.9068 0.0
C857 C 0.6594 0.96745 0.90716 0.0
C858 C 0.6666 0.99233 0.89982 0.0
C859 C 0.6777 0.98015 0.89229 0.0
H860 H 0.18193 0.81258 0.89851 0.0
H861 H 0.07356 0.70398 0.886 0.0
H862 H 0.16833 0.76742 0.91107 0.0
H863 H 0.05867 0.65994 0.8985 0.0
H864 H 0.04022 0.57905 0.92063 0.0
H865 H 0.07644 0.62124 0.90799 0.0
H866 H 0.11612 0.74076 0.92182 0.0
H867 H 0.08206 0.69871 0.93441 0.0
C868 C 0.15525 0.77915 0.89845 0.0
C869 C 0.12847 0.76199 0.89133 0.0
C870 C 0.14739 0.75325 0.90563 0.0
C871 C 0.11218 0.70999 0.90585 0.0
C872 C 0.08655 0.69268 0.89857 0.0
C873 C 0.09473 0.71825 0.89141 0.0
C874 C 0.05751 0.61436 0.92096 0.0
C875 C 0.05821 0.63569 0.92845 0.0
C876 C 0.07809 0.63859 0.91373 0.0
C877 C 0.09867 0.68451 0.91382 0.0
C878 C 0.10119 0.70562 0.92148 0.0
C879 C 0.08131 0.68145 0.92871 0.0
H880 H 0.35917 0.40096 0.93571 0.0
H881 H 0.47541 0.49573 0.92266 0.0
H882 H 0.3159 0.3916 0.92325 0.0
H883 H 0.43161 0.48795 0.91016 0.0
H884 H 0.35458 0.40481 0.88727 0.0
H885 H 0.39793 0.43393 0.89985 0.0
H886 H 0.2842 0.4168 0.91337 0.0
H887 H 0.23995 0.38545 0.9007 0.0
C888 C 0.37532 0.42052 0.9302 0.0
C889 C 0.42069 0.44871 0.9301 0.0
C890 C 0.35037 0.41552 0.92306 0.0
C891 C 0.37017 0.43879 0.91565 0.0
C892 C 0.41539 0.46883 0.91571 0.0
C893 C 0.44052 0.47341 0.92285 0.0
C894 C 0.33872 0.40753 0.8929 0.0
C895 C 0.2936 0.39203 0.89303 0.0
C896 C 0.36386 0.42486 0.90012 0.0
C897 C 0.34464 0.42749 0.90768 0.0
C898 C 0.2999 0.41439 0.90769 0.0
C899 C 0.27452 0.39653 0.90044 0.0
H900 H 0.89441 0.67417 0.587 0.0
H901 H 0.01502 0.69406 0.59782 0.0
H902 H 0.91139 0.64942 0.57387 0.0
H903 H 0.0325 0.67069 0.58473 0.0
H904 H 0.03216 0.58542 0.56363 0.0
H905 H 0.00954 0.60552 0.57662 0.0
H906 H 0.96113 0.6757 0.56211 0.0
H907 H 0.98236 0.65458 0.54918 0.0
C908 C 0.92477 0.67385 0.58653 0.0
C909 C 0.95331 0.68589 0.59343 0.0
C910 C 0.9345 0.65965 0.57903 0.0
C911 C 0.97308 0.65759 0.5783 0.0
C912 C 1.00201 0.67079 0.58515 0.0
C913 C 0.99218 0.68462 0.59262 0.0
C914 C 0.01651 0.60495 0.56323 0.0
C915 C 0.0094 0.61869 0.55539 0.0
C916 C 0.00373 0.61666 0.57066 0.0
C917 C 0.98385 0.64255 0.5704 0.0
C918 C 0.97593 0.65541 0.56254 0.0
C919 C 0.98849 0.64357 0.55513 0.0
H920 H 0.40142 0.35694 0.55263 0.0
H921 H 0.50408 0.47362 0.56432 0.0
H922 H 0.39172 0.31653 0.56551 0.0
H923 H 0.49554 0.43247 0.57725 0.0
H924 H 0.41727 0.36204 0.60118 0.0
H925 H 0.44328 0.40274 0.58817 0.0
H926 H 0.41881 0.2852 0.57516 0.0
H927 H 0.39077 0.24384 0.58822 0.0
C928 C 0.42239 0.37385 0.55794 0.0
C929 C 0.45312 0.41862 0.55751 0.0
C930 C 0.41719 0.35046 0.56531 0.0
C931 C 0.44278 0.37116 0.57244 0.0
C932 C 0.47478 0.41567 0.57191 0.0
C933 C 0.47972 0.43927 0.56452 0.0
C934 C 0.41767 0.34483 0.59556 0.0
C935 C 0.40114 0.29953 0.59568 0.0
C936 C 0.43313 0.36837 0.5881 0.0
C937 C 0.43281 0.34726 0.58058 0.0
C938 C 0.4186 0.30231 0.5808 0.0
C939 C 0.40262 0.27859 0.58828 0.0
H940 H 0.71956 0.09315 0.59905 0.0
H941 H 0.83196 0.18087 0.58422 0.0
H942 H 0.67267 0.07902 0.58702 0.0
H943 H 0.7844 0.16806 0.57204 0.0
H944 H 0.70027 0.07021 0.55119 0.0
H945 H 0.74782 0.10854 0.5629 0.0
H946 H 0.63788 0.09842 0.5768 0.0
H947 H 0.58961 0.05779 0.56507 0.0
C948 C 0.73406 0.11054 0.59324 0.0
C949 C 0.77935 0.13809 0.59255 0.0
C950 C 0.70702 0.10267 0.58633 0.0
C951 C 0.72461 0.12219 0.57851 0.0
C952 C 0.76984 0.15188 0.57794 0.0
C953 C 0.79709 0.15937 0.58489 0.0
C954 C 0.68628 0.0766 0.55671 0.0
C955 C 0.64118 0.06047 0.55729 0.0
C956 C 0.71373 0.09916 0.56341 0.0
C957 C 0.69678 0.10639 0.57085 0.0
C958 C 0.6519 0.09261 0.57122 0.0
C959 C 0.62421 0.06937 0.56453 0.0
H960 H 0.83963 0.71371 0.73222 0.0
H961 H 0.76014 0.75107 0.71781 0.0
H962 H 0.82917 0.74767 0.74475 0.0
H963 H 0.74745 0.78242 0.73027 0.0
H964 H 0.72603 0.83759 0.7535 0.0
H965 H 0.76521 0.83127 0.74135 0.0
H966 H 0.77021 0.72488 0.75371 0.0
H967 H 0.73363 0.73284 0.76582 0.0
C968 C 0.82027 0.72952 0.73173 0.0
C969 C 0.80017 0.72925 0.7241 0.0
C970 C 0.81405 0.74881 0.73889 0.0
C971 C 0.78657 0.76698 0.7386 0.0
C972 C 0.76908 0.76921 0.73079 0.0
C973 C 0.77602 0.75077 0.72362 0.0
C974 C 0.7361 0.81331 0.7536 0.0
C975 C 0.72639 0.78538 0.76054 0.0
C976 C 0.75851 0.80961 0.74666 0.0
C977 C 0.77072 0.7773 0.74648 0.0
C978 C 0.76229 0.7507 0.75361 0.0
C979 C 0.74063 0.75484 0.76055 0.0
H980 H 0.31759 0.03474 0.76767 0.0
H981 H 0.22308 0.91857 0.75455 0.0
H982 H 0.32629 0.07824 0.75531 0.0
H983 H 0.23019 0.96269 0.74215 0.0
H984 H 0.31778 0.03944 0.71955 0.0
H985 H 0.28559 0.99588 0.73203 0.0
H986 H 0.30236 0.11021 0.74526 0.0
H987 H 0.33656 0.15443 0.73267 0.0
C988 C 0.29786 0.01864 0.76218 0.0
C989 C 0.27022 0.97318 0.76201 0.0
C990 C 0.30246 0.04375 0.75509 0.0
C991 C 0.2793 0.02402 0.74767 0.0
C992 C 0.24928 0.9788 0.7477 0.0
C993 C 0.24512 0.9535 0.75479 0.0
C994 C 0.31388 0.05517 0.72508 0.0
C995 C 0.32968 0.10026 0.72518 0.0
C996 C 0.29497 0.03004 0.73224 0.0
C997 C 0.2914 0.04943 0.7397 0.0
C998 C 0.30523 0.09435 0.73966 0.0
C999 C 0.3247 0.11969 0.73247 0.0
H1000 H 0.02061 0.34503 0.71931 0.0
H1001 H 0.91715 0.22668 0.73036 0.0
H1002 H 0.06077 0.3628 0.73248 0.0
H1003 H 0.95817 0.24384 0.74356 0.0
H1004 H 0.02104 0.31694 0.76815 0.0
H1005 H 0.98066 0.29447 0.75503 0.0
H1006 H 0.10137 0.3407 0.74126 0.0
H1007 H 0.14221 0.36464 0.75447 0.0
C1008 C 0.00649 0.32271 0.72457 0.0
C1009 C 0.96567 0.2845 0.72382 0.0
C1010 C 0.02977 0.33269 0.7321 0.0
C1011 C 0.01296 0.30455 0.73905 0.0
C1012 C 0.97187 0.26642 0.73833 0.0
C1013 C 0.94833 0.25658 0.73079 0.0
C1014 C 0.0391 0.3223 0.76233 0.0
C1015 C 0.08494 0.34303 0.76234 0.0
C1016 C 0.01581 0.309 0.7548 0.0
C1017 C 0.03773 0.31594 0.74709 0.0
C1018 C 0.08355 0.33559 0.7471 0.0
C1019 C 0.10696 0.34914 0.75465 0.0
H1020 H 0.31214 0.31752 0.26718 0.0
H1021 H 0.22676 0.34848 0.25316 0.0
H1022 H 0.32327 0.28445 0.25475 0.0
H1023 H 0.23608 0.31327 0.24067 0.0
H1024 H 0.31788 0.31143 0.21837 0.0
H1025 H 0.29121 0.33007 0.23081 0.0
H1026 H 0.29748 0.22838 0.24476 0.0
H1027 H 0.32654 0.21112 0.23226 0.0
C1028 C 0.2949 0.31625 0.26145 0.0
C1029 C 0.26857 0.33544 0.2611 0.0
C1030 C 0.30099 0.29693 0.25432 0.0
C1031 C 0.2807 0.29614 0.24666 0.0
C1032 C 0.25288 0.31395 0.24642 0.0
C1033 C 0.24731 0.33394 0.25356 0.0
C1034 C 0.31344 0.29286 0.22408 0.0
C1035 C 0.32495 0.26023 0.22438 0.0
C1036 C 0.29753 0.30322 0.23122 0.0
C1037 C 0.29224 0.28092 0.23884 0.0
C1038 C 0.30199 0.24688 0.23904 0.0
C1039 C 0.31857 0.23688 0.23189 0.0
H1040 H 0.70339 0.90936 0.25565 0.0
H1041 H 0.71608 0.02687 0.26662 0.0
H1042 H 0.73565 0.94882 0.24255 0.0
H1043 H 0.74632 0.06567 0.25353 0.0
H1044 H 0.82342 0.13625 0.23095 0.0
H1045 H 0.80609 0.0962 0.24423 0.0
H1046 H 0.71559 0.97766 0.23115 0.0
H1047 H 0.73447 0.01713 0.21792 0.0
C1048 C 0.71283 0.94351 0.25523 0.0
C1049 C 0.707 0.96502 0.26211 0.0
C1050 C 0.73127 0.96614 0.24774 0.0
C1051 C 0.74358 0.01049 0.24697 0.0
C1052 C 0.73813 0.03188 0.25392 0.0
C1053 C 0.72028 0.00948 0.26141 0.0
C1054 C 0.80014 0.10156 0.23093 0.0
C1055 C 0.77985 0.07995 0.22343 0.0
C1056 C 0.79007 0.0786 0.23854 0.0
C1057 C 0.75898 0.03374 0.23879 0.0
C1058 C 0.74002 0.01198 0.23121 0.0
C1059 C 0.75054 0.03477 0.22361 0.0
H1060 H 0.01313 0.70912 0.2201 0.0
H1061 H 0.90467 0.71763 0.23044 0.0
H1062 H 0.05667 0.7461 0.23231 0.0
H1063 H 0.94929 0.75656 0.24272 0.0
H1064 H 0.01907 0.75194 0.26744 0.0
H1065 H 0.97629 0.73747 0.25468 0.0
H1066 H 0.09505 0.81048 0.24023 0.0
H1067 H 0.13796 0.82323 0.25307 0.0
C1068 C 0.99876 0.7195 0.22496 0.0
C1069 C 0.95532 0.71005 0.22437 0.0
C1070 C 0.02405 0.74137 0.23193 0.0
C1071 C 0.0067 0.75465 0.2385 0.0
C1072 C 0.96351 0.74637 0.2378 0.0
C1073 C 0.93791 0.724 0.23081 0.0
C1074 C 0.03598 0.76577 0.26156 0.0
C1075 C 0.08173 0.78826 0.26119 0.0
C1076 C 0.01141 0.7577 0.25423 0.0
C1077 C 0.03218 0.77213 0.24639 0.0
C1078 C 0.07805 0.79792 0.24615 0.0
C1079 C 0.10266 0.80541 0.25348 0.0
H1080 H 0.47566 0.07604 0.01125 0.0
H1081 H 0.52742 0.9951 0.01975 0.0
H1082 H 0.49767 0.07201 -0.00314 0.0
H1083 H 0.55018 0.99171 0.00543 0.0
H1084 H 0.54234 0.95724 0.9775 0.0
H1085 H 0.52079 0.96111 0.99188 0.0
H1086 H 0.56225 0.09749 0.98835 0.0
H1087 H 0.58274 0.0933 0.97385 0.0
C1088 C 0.49171 0.05735 0.01004 0.0
C1089 C 0.49929 0.03536 0.0166 0.0
C1090 C 0.50461 0.05531 0.00181 0.0
C1091 C 0.52574 0.03158 -1e-05 0.0
C1092 C 0.5333 0.00963 0.00658 0.0
C1093 C 0.52014 0.01145 0.01479 0.0
C1094 C 0.54718 0.98816 0.9798 0.0
C1095 C 0.56417 0.02496 0.97453 0.0
C1096 C 0.53492 0.9904 0.98806 0.0
C1097 C 0.53967 0.02957 0.99126 0.0
C1098 C 0.55742 0.06661 0.98603 0.0
C1099 C 0.56941 0.06428 0.97774 0.0
H1100 H 0.97178 0.53616 0.97001 0.0
H1101 H 0.1115 0.6114 0.9735 0.0
H1102 H 0.96324 0.50997 0.98451 0.0
H1103 H 0.10314 0.58452 0.98786 0.0
H1104 H 0.07033 0.56646 0.01568 0.0
H1105 H 0.07682 0.59203 0.00126 0.0
H1106 H 0.97721 0.46305 -0.00654 0.0
H1107 H 0.97001 0.43769 0.008 0.0
C1108 C 1.00064 0.54689 0.97385 0.0
C1109 C 0.04226 0.57595 0.97062 0.0
C1110 C 0.99579 0.53175 0.98215 0.0
C1111 C 0.03251 0.54522 0.98735 0.0
C1112 C 0.0741 0.57412 0.98408 0.0
C1113 C 0.0789 0.58943 0.97583 0.0
C1114 C 0.05011 0.54343 0.01088 0.0
C1115 C 0.02 0.49995 0.01297 0.0
C1116 C 0.05383 0.55809 0.0026 0.0
C1117 C 0.02772 0.52954 -0.00381 0.0
C1118 C 0.99744 0.48602 -0.00173 0.0
C1119 C 0.9935 0.47142 0.00659 0.0
H1120 H 0.49575 0.53169 0.01836 0.0
H1121 H 0.61702 0.54159 0.01043 0.0
H1122 H 0.46794 0.51312 0.00399 0.0
H1123 H 0.59021 0.52478 -0.00398 0.0
H1124 H 0.51622 0.45207 0.97273 0.0
H1125 H 0.54057 0.46722 0.98734 0.0
H1126 H 0.47513 0.54188 0.99031 0.0
H1127 H 0.44953 0.52522 0.97583 0.0
C1128 C 0.51673 0.53073 0.0135 0.0
C1129 C 0.55858 0.53833 0.0155 0.0
C1130 C 0.50085 0.52005 0.00526 0.0
C1131 C 0.52675 0.51728 -0.00118 0.0
C1132 C 0.56894 0.52564 0.00083 0.0
C1133 C 0.58451 0.53569 0.00908 0.0
C1134 C 0.50704 0.47163 0.97652 0.0
C1135 C 0.48112 0.48756 0.97313 0.0
C1136 C 0.52114 0.48054 0.98489 0.0
C1137 C 0.51012 0.50609 0.99002 0.0
C1138 C 0.48374 0.52156 0.98662 0.0
C1139 C 0.46919 0.51216 0.97829 0.0
H1140 H 0.95767 0.5245 0.50897 0.0
H1141 H 0.09671 0.57881 0.51195 0.0
H1142 H 0.96188 0.50067 0.4948 0.0
H1143 H 0.1013 0.55649 0.49763 0.0
H1144 H 0.08936 0.47277 0.47514 0.0
H1145 H 0.0825 0.49317 0.48949 0.0
H1146 H 0.98703 0.52687 0.48101 0.0
H1147 H 0.99282 0.50495 0.46675 0.0
C1148 C 0.98927 0.53191 0.50655 0.0
C1149 C 0.02689 0.55355 0.51157 0.0
C1150 C 0.9917 0.51834 0.49841 0.0
C1151 C 0.0319 0.52655 0.49507 0.0
C1152 C 0.06965 0.54883 0.50006 0.0
C1153 C 0.06712 0.56193 0.50825 0.0
C1154 C 0.06664 0.48418 0.47637 0.0
C1155 C 0.04148 0.48709 0.46984 0.0
C1156 C 0.06297 0.49623 0.48458 0.0
C1157 C 0.03447 0.51201 0.48641 0.0
C1158 C 0.00885 0.51428 0.47987 0.0
C1159 C 0.01216 0.50174 0.47168 0.0
H1160 H 0.49408 0.57585 0.47211 0.0
H1161 H 0.57346 0.51511 0.47002 0.0
H1162 H 0.47639 0.55063 0.4866 0.0
H1163 H 0.55642 0.49059 0.48461 0.0
H1164 H 0.48436 0.42052 0.50871 0.0
H1165 H 0.49735 0.4411 0.49387 0.0
H1166 H 0.51327 0.5672 0.50001 0.0
H1167 H 0.49935 0.54641 0.51477 0.0
C1168 C 0.50788 0.55721 0.47475 0.0
C1169 C 0.53532 0.54761 0.46992 0.0
C1170 C 0.49785 0.54289 0.48307 0.0
C1171 C 0.51524 0.51889 0.48678 0.0
C1172 C 0.54211 0.50862 0.48191 0.0
C1173 C 0.55199 0.52279 0.47356 0.0
C1174 C 0.4904 0.45256 0.50689 0.0
C1175 C 0.49061 0.48176 0.51293 0.0
C1176 C 0.49811 0.46442 0.49839 0.0
C1177 C 0.50629 0.50575 0.49576 0.0
C1178 C 0.50636 0.53483 0.50181 0.0
C1179 C 0.49854 0.52296 0.51028 0.0
H1180 H 0.60657 0.10546 0.51274 0.0
H1181 H 0.52346 0.96618 0.51585 0.0
H1182 H 0.57982 0.10014 0.49845 0.0
H1183 H 0.49727 0.96069 0.50141 0.0
H1184 H 0.42789 0.97589 0.47833 0.0
H1185 H 0.45316 0.98054 0.4928 0.0
H1186 H 0.58476 0.07262 0.48491 0.0
H1187 H 0.55948 0.06895 0.47054 0.0
C1188 C 0.58288 0.0736 0.51034 0.0
C1189 C 0.56713 0.03621 0.51541 0.0
C1190 C 0.56763 0.07055 0.50213 0.0
C1191 C 0.53653 0.02998 0.49878 0.0
C1192 C 0.52079 0.99251 0.50385 0.0
C1193 C 0.53588 0.99561 0.5121 0.0
C1194 C 0.46218 0.99727 0.4797 0.0
C1195 C 0.49161 0.0223 0.47329 0.0
C1196 C 0.47669 0.99967 0.48797 0.0
C1197 C 0.52094 0.02699 0.49 0.0
C1198 C 0.55033 0.05183 0.48359 0.0
C1199 C 0.53582 0.04962 0.47534 0.0
H1200 H 0.25975 0.41706 0.30302 0.0
H1201 H 0.19583 0.27769 0.30694 0.0
H1202 H 0.24839 0.42721 0.31783 0.0
H1203 H 0.18355 0.28766 0.32165 0.0
H1204 H 0.20604 0.32367 0.34941 0.0
H1205 H 0.22114 0.31531 0.33476 0.0
H1206 H 0.19024 0.41423 0.32738 0.0
H1207 H 0.1763 0.42346 0.34204 0.0
C1208 C 0.24307 0.38861 0.30703 0.0
C1209 C 0.22864 0.34661 0.30381 0.0
C1210 C 0.23642 0.39438 0.31551 0.0
C1211 C 0.21499 0.35823 0.32093 0.0
C1212 C 0.20079 0.31627 0.31769 0.0
C1213 C 0.20766 0.31054 0.30924 0.0
C1214 C 0.20234 0.34355 0.34466 0.0
C1215 C 0.18978 0.37409 0.3469 0.0
C1216 C 0.2109 0.33868 0.33626 0.0
C1217 C 0.20686 0.36407 0.32989 0.0
C1218 C 0.19432 0.39463 0.33214 0.0
C1219 C 0.18602 0.39968 0.34054 0.0
H1220 H 0.73976 0.92898 0.35191 0.0
H1221 H 0.66418 0.79222 0.34535 0.0
H1222 H 0.73724 0.94841 0.33722 0.0
H1223 H 0.66229 0.8117 0.33073 0.0
H1224 H 0.63139 0.86093 0.30689 0.0
H1225 H 0.63063 0.84596 0.3219 0.0
H1226 H 0.76754 0.94265 0.32354 0.0
H1227 H 0.76838 0.95793 0.30856 0.0
C1228 C 0.72268 0.9031 0.34735 0.0
C1229 C 0.70231 0.85906 0.34979 0.0
C1230 C 0.72136 0.91424 0.33894 0.0
C1231 C 0.69946 0.88156 0.33284 0.0
C1232 C 0.67887 0.83761 0.33531 0.0
C1233 C 0.68031 0.82647 0.34368 0.0
C1234 C 0.66133 0.87901 0.31044 0.0
C1235 C 0.70005 0.91023 0.30649 0.0
C1236 C 0.66089 0.87041 0.31904 0.0
C1237 C 0.6991 0.89294 0.32387 0.0
C1238 C 0.73749 0.92506 0.31999 0.0
C1239 C 0.73798 0.93361 0.31139 0.0
H1240 H 0.18131 0.80583 0.30252 0.0
H1241 H 0.11482 0.87924 0.3057 0.0
H1242 H 0.20716 0.82228 0.31704 0.0
H1243 H 0.14128 0.89632 0.32012 0.0
H1244 H 0.15491 0.87726 0.34804 0.0
H1245 H 0.12995 0.86016 0.33355 0.0
H1246 H 0.25699 0.88309 0.32595 0.0
H1247 H 0.28185 0.89926 0.34053 0.0
C1248 C 0.17249 0.82571 0.30629 0.0
C1249 C 0.146 0.84118 0.30296 0.0
C1250 C 0.18742 0.83527 0.3146 0.0
C1251 C 0.17622 0.86056 0.31974 0.0
C1252 C 0.1499 0.87616 0.31638 0.0
C1253 C 0.13486 0.86648 0.30809 0.0
C1254 C 0.17765 0.8788 0.3433 0.0
C1255 C 0.22047 0.88982 0.34546 0.0
C1256 C 0.16335 0.86916 0.33497 0.0
C1257 C 0.19153 0.87042 0.32859 0.0
C1258 C 0.23434 0.88135 0.33074 0.0
C1259 C 0.24866 0.89091 0.33909 0.0
H1260 H 0.63173 0.80236 0.80327 0.0
H1261 H 0.76634 0.83742 0.80707 0.0
H1262 H 0.62619 0.81683 0.81814 0.0
H1263 H 0.76106 0.85271 0.8218 0.0
H1264 H 0.72874 0.84177 0.8495 0.0
H1265 H 0.72833 0.81896 0.83501 0.0
H1266 H 0.65364 0.87939 0.82747 0.0
H1267 H 0.65297 0.90119 0.84201 0.0
C1268 C 0.66008 0.81311 0.80726 0.0
C1269 C 0.69948 0.81885 0.80397 0.0
C1270 C 0.65697 0.82156 0.81577 0.0
C1271 C 0.69323 0.83602 0.82115 0.0
C1272 C 0.73232 0.84098 0.81787 0.0
C1273 C 0.73537 0.83239 0.8094 0.0
C1274 C 0.71217 0.85016 0.84476 0.0
C1275 C 0.69116 0.87359 0.84691 0.0
C1276 C 0.71203 0.83717 0.83644 0.0
C1277 C 0.69107 0.84747 0.83007 0.0
C1278 C 0.66958 0.87041 0.83224 0.0
C1279 C 0.66956 0.88326 0.84057 0.0
H1280 H 0.15898 0.77405 0.84248 0.0
H1281 H 0.19633 0.90545 0.85012 0.0
H1282 H 0.17667 0.79829 0.82792 0.0
H1283 H 0.21527 0.92992 0.8356 0.0
H1284 H 0.19944 0.94847 0.80768 0.0
H1285 H 0.18187 0.92432 0.82222 0.0
H1286 H 0.23793 0.84133 0.81889 0.0
H1287 H 0.25437 0.86461 0.80423 0.0
C1288 C 0.17111 0.80814 0.84106 0.0
C1289 C 0.17602 0.83778 0.84745 0.0
C1290 C 0.18156 0.8221 0.83272 0.0
C1291 C 0.19747 0.86606 0.8306 0.0
C1292 C 0.20245 0.89569 0.837 0.0
C1293 C 0.1917 0.88168 0.84533 0.0
C1294 C 0.20824 0.92524 0.81005 0.0
C1295 C 0.22828 0.90841 0.8048 0.0
C1296 C 0.1983 0.91151 0.81841 0.0
C1297 C 0.2085 0.88091 0.82173 0.0
C1298 C 0.22899 0.86442 0.81649 0.0
C1299 C 0.23862 0.87791 0.80811 0.0
H1300 H 0.10851 0.28596 0.80929 0.0
H1301 H 0.19509 0.42498 0.80672 0.0
H1302 H 0.13127 0.28973 0.82388 0.0
H1303 H 0.21695 0.42903 0.8214 0.0
H1304 H 0.1517 0.31846 0.85199 0.0
H1305 H 0.12694 0.31563 0.83757 0.0
H1306 H 0.25902 0.40801 0.82997 0.0
H1307 H 0.28353 0.41194 0.84442 0.0
C1308 C 0.13195 0.31746 0.81188 0.0
C1309 C 0.15019 0.35517 0.80685 0.0
C1310 C 0.1449 0.31964 0.82025 0.0
C1311 C 0.17608 0.35965 0.8238 0.0
C1312 C 0.19351 0.39755 0.81881 0.0
C1313 C 0.18085 0.39529 0.81041 0.0
C1314 C 0.17549 0.33804 0.84723 0.0
C1315 C 0.2196 0.36538 0.84935 0.0
C1316 C 0.16131 0.33633 0.83896 0.0
C1317 C 0.19098 0.36167 0.83261 0.0
C1318 C 0.23516 0.38869 0.83473 0.0
C1319 C 0.24928 0.39067 0.84301 0.0
H1320 H 0.83486 0.64683 0.6833 0.0
H1321 H 0.87501 0.78257 0.67917 0.0
H1322 H 0.84883 0.63972 0.66847 0.0
H1323 H 0.88943 0.77548 0.66445 0.0
H1324 H 0.86184 0.73427 0.63697 0.0
H1325 H 0.84663 0.73839 0.6518 0.0
H1326 H 0.91079 0.66606 0.65842 0.0
H1327 H 0.92571 0.66142 0.64355 0.0
C1328 C 0.84683 0.67516 0.67925 0.0
C1329 C 0.8536 0.71519 0.68242 0.0
C1330 C 0.85499 0.67111 0.67077 0.0
C1331 C 0.86994 0.70698 0.6653 0.0
C1332 C 0.87721 0.74708 0.66849 0.0
C1333 C 0.86917 0.75116 0.67694 0.0
C1334 C 0.87277 0.71925 0.64157 0.0
C1335 C 0.89534 0.69785 0.63908 0.0
C1336 C 0.86416 0.72174 0.65007 0.0
C1337 C 0.8778 0.70281 0.65627 0.0
C1338 C 0.89963 0.68069 0.65378 0.0
C1339 C 0.90838 0.67828 0.64527 0.0
H1340 H 0.3254 0.15429 0.63681 0.0
H1341 H 0.42363 0.28392 0.64459 0.0
H1342 H 0.31842 0.12904 0.65128 0.0
H1343 H 0.41554 0.25898 0.65914 0.0
H1344 H 0.41893 0.191 0.68321 0.0
H1345 H 0.42928 0.21408 0.6685 0.0
H1346 H 0.2901 0.13607 0.66441 0.0
H1347 H 0.28005 0.1121 0.67899 0.0
C1348 C 0.34524 0.17751 0.64162 0.0
C1349 C 0.37488 0.22118 0.63956 0.0
C1350 C 0.34114 0.16306 0.64993 0.0
C1351 C 0.36627 0.19202 0.65638 0.0
C1352 C 0.39613 0.23565 0.6543 0.0
C1353 C 0.40053 0.25004 0.64597 0.0
C1354 C 0.39064 0.17876 0.67915 0.0
C1355 C 0.34872 0.14976 0.68226 0.0
C1356 C 0.39651 0.1921 0.67073 0.0
C1357 C 0.36051 0.17697 0.66527 0.0
C1358 C 0.31864 0.14777 0.66839 0.0
C1359 C 0.31285 0.13415 0.67677 0.0
H1360 H 0.88478 0.15802 0.63423 0.0
H1361 H 0.78393 0.19072 0.63856 0.0
H1362 H 0.9045 0.17067 0.64915 0.0
H1363 H 0.80403 0.20392 0.65332 0.0
H1364 H 0.82193 0.18489 0.68078 0.0
H1365 H 0.80171 0.16515 0.66609 0.0
H1366 H 0.93794 0.23235 0.65906 0.0
H1367 H 0.95835 0.25137 0.67378 0.0
C1368 C 0.86688 0.1679 0.63834 0.0
C1369 C 0.8328 0.17332 0.63519 0.0
C1370 C 0.87825 0.17528 0.64687 0.0
C1371 C 0.85571 0.18815 0.65241 0.0
C1372 C 0.82153 0.19329 0.64925 0.0
C1373 C 0.81019 0.18594 0.64076 0.0
C1374 C 0.84762 0.19538 0.67611 0.0
C1375 C 0.89175 0.22004 0.67845 0.0
C1376 C 0.83601 0.18416 0.66769 0.0
C1377 C 0.86824 0.19742 0.66141 0.0
C1378 C 0.91238 0.22129 0.66376 0.0
C1379 C 0.92403 0.23248 0.67219 0.0
H1380 H 0.39883 0.19079 0.1833 0.0
H1381 H 0.29857 0.21951 0.17577 0.0
H1382 H 0.40872 0.17706 0.16866 0.0
H1383 H 0.30937 0.20702 0.16109 0.0
H1384 H 0.31231 0.14315 0.13635 0.0
H1385 H 0.29918 0.15138 0.15116 0.0
H1386 H 0.43803 0.21687 0.15589 0.0
H1387 H 0.45094 0.20763 0.14119 0.0
C1388 C 0.37914 0.19452 0.17851 0.0
C1389 C 0.34816 0.20659 0.1807 0.0
C1390 C 0.38489 0.18675 0.17011 0.0
C1391 C 0.36001 0.19117 0.16369 0.0
C1392 C 0.32868 0.20277 0.16589 0.0
C1393 C 0.3227 0.21023 0.1743 0.0
C1394 C 0.33996 0.15929 0.14056 0.0
C1395 C 0.38262 0.17478 0.1376 0.0
C1396 C 0.33248 0.16413 0.14904 0.0
C1397 C 0.36756 0.18481 0.15472 0.0
C1398 C 0.41019 0.2001 0.15174 0.0
C1399 C 0.41761 0.19498 0.14329 0.0
H1400 H 0.83728 0.25594 0.13903 0.0
H1401 H 0.91195 0.19059 0.13618 0.0
H1402 H 0.81951 0.22944 0.15346 0.0
H1403 H 0.8955 0.16533 0.1507 0.0
H1404 H 0.82601 0.0943 0.17467 0.0
H1405 H 0.83858 0.11674 0.15993 0.0
H1406 H 0.85369 0.24168 0.16687 0.0
H1407 H 0.83971 0.21872 0.18152 0.0
C1408 C 0.85011 0.23612 0.1415 0.0
C1409 C 0.87613 0.22547 0.13647 0.0
C1410 C 0.8401 0.22108 0.14979 0.0
C1411 C 0.85626 0.19543 0.15327 0.0
C1412 C 0.88196 0.18447 0.1482 0.0
C1413 C 0.89161 0.19915 0.13988 0.0
C1414 C 0.83189 0.12651 0.17304 0.0
C1415 C 0.83172 0.15468 0.17926 0.0
C1416 C 0.83932 0.13946 0.16459 0.0
C1417 C 0.84716 0.18103 0.1622 0.0
C1418 C 0.84696 0.20914 0.16845 0.0
C1419 C 0.83913 0.19604 0.17687 0.0
H1420 H 0.9107 0.72119 0.13468 0.0
H1421 H 0.77636 0.67384 0.14176 0.0
H1422 H 0.9284 0.71584 0.14931 0.0
H1423 H 0.79437 0.6696 0.15641 0.0
H1424 H 0.8326 0.62838 0.18059 0.0
H1425 H 0.81562 0.62899 0.16571 0.0
H1426 H 0.93487 0.75236 0.16257 0.0
H1427 H 0.95239 0.75133 0.17734 0.0
C1428 C 0.88499 0.70983 0.13936 0.0
C1429 C 0.84215 0.69807 0.13706 0.0
C1430 C 0.89517 0.70692 0.14774 0.0
C1431 C 0.86278 0.69233 0.15401 0.0
C1432 C 0.81992 0.68036 0.15171 0.0
C1433 C 0.80969 0.68314 0.14332 0.0
C1434 C 0.85528 0.65551 0.17671 0.0
C1435 C 0.89385 0.68978 0.18015 0.0
C1436 C 0.84545 0.65596 0.1682 0.0
C1437 C 0.87388 0.69076 0.16297 0.0
C1438 C 0.91261 0.72475 0.1664 0.0
C1439 C 0.92253 0.72423 0.17488 0.0
H1440 H 0.51469 0.88311 0.02119 0.0
H1441 H 0.54596 0.90488 0.04772 0.0
H1442 H 0.53887 0.82974 0.02085 0.0
H1443 H 0.56901 0.85054 0.04744 0.0
H1444 H 0.62928 0.76587 0.04359 0.0
H1445 H 0.62066 0.82983 0.04232 0.0
H1446 H 0.50858 0.75682 0.02622 0.0
H1447 H 0.51776 0.6935 0.02731 0.0
C1448 C 0.52709 0.87676 0.02694 0.0
C1449 C 0.52799 0.89783 0.03451 0.0
C1450 C 0.54074 0.84602 0.02675 0.0
C1451 C 0.55532 0.83543 0.03414 0.0
C1452 C 0.55832 0.85818 0.04162 0.0
C1453 C 0.54492 0.8892 0.04179 0.0
C1454 C 0.60327 0.76374 0.03966 0.0
C1455 C 0.57411 0.72454 0.03557 0.0
C1456 C 0.59816 0.8003 0.03899 0.0
C1457 C 0.56385 0.79842 0.0342 0.0
C1458 C 0.53576 0.75967 0.02986 0.0
C1459 C 0.54087 0.7232 0.03053 0.0
H1460 H 0.16906 0.67099 0.02331 0.0
H1461 H 0.15728 0.64866 0.0502 0.0
H1462 H 0.22503 0.74666 0.02565 0.0
H1463 H 0.21459 0.7239 0.05256 0.0
H1464 H 0.30418 0.86999 0.05461 0.0
H1465 H 0.23831 0.80006 0.05193 0.0
H1466 H 0.2991 0.78222 0.0298 0.0
H1467 H 0.36382 0.85229 0.0323 0.0
C1468 C 0.17832 0.68236 0.02973 0.0
C1469 C 0.15912 0.65385 0.03656 0.0
C1470 C 0.21059 0.72567 0.03107 0.0
C1471 C 0.22487 0.74127 0.03929 0.0
C1472 C 0.20418 0.71318 0.04615 0.0
C1473 C 0.17144 0.66996 0.0448 0.0
C1474 C 0.30321 0.85126 0.04913 0.0
C1475 C 0.33927 0.86666 0.04369 0.0
C1476 C 0.26556 0.81108 0.04762 0.0
C1477 C 0.26331 0.78544 0.04064 0.0
C1478 C 0.29921 0.80137 0.03514 0.0
C1479 C 0.33659 0.84151 0.03662 0.0
H1480 H 0.21673 0.53758 0.0549 0.0
H1481 H 0.17149 0.47899 0.03037 0.0
H1482 H 0.2854 0.5391 0.05257 0.0
H1483 H 0.2399 0.47949 0.02813 0.0
H1484 H 0.38861 0.55304 0.02274 0.0
H1485 H 0.31386 0.53515 0.02532 0.0
H1486 H 0.32281 0.49826 0.05089 0.0
H1487 H 0.39839 0.51729 0.04835 0.0
C1488 C 0.22111 0.52432 0.04906 0.0
C1489 C 0.18876 0.50862 0.04278 0.0
C1490 C 0.26045 0.52489 0.04775 0.0
C1491 C 0.26838 0.50968 0.04014 0.0
C1492 C 0.23518 0.49213 0.03401 0.0
C1493 C 0.19585 0.49164 0.03531 0.0
C1494 C 0.37455 0.54057 0.02888 0.0
C1495 C 0.39969 0.53706 0.03536 0.0
C1496 C 0.33145 0.52999 0.03035 0.0
C1497 C 0.3123 0.51552 0.03834 0.0
C1498 C 0.33677 0.50997 0.04471 0.0
C1499 C 0.38 0.52058 0.04323 0.0
H1500 H 0.85692 0.47184 0.46253 0.0
H1501 H 0.92125 0.54398 0.43998 0.0
H1502 H 0.80162 0.49288 0.46098 0.0
H1503 H 0.86644 0.56607 0.43855 0.0
H1504 H 0.72584 0.53232 0.43191 0.0
H1505 H 0.79088 0.52764 0.4345 0.0
H1506 H 0.7828 0.54983 0.46107 0.0
H1507 H 0.71662 0.5535 0.45849 0.0
C1508 C 0.85978 0.49293 0.45733 0.0
C1509 C 0.89318 0.50571 0.45131 0.0
C1510 C 0.82817 0.50527 0.45647 0.0
C1511 C 0.82928 0.53081 0.44959 0.0
C1512 C 0.86416 0.54569 0.44384 0.0
C1513 C 0.89573 0.53324 0.44469 0.0
C1514 C 0.73809 0.53666 0.43831 0.0
C1515 C 0.71578 0.5429 0.445 0.0
C1516 C 0.77572 0.53436 0.43978 0.0
C1517 C 0.79213 0.53831 0.448 0.0
C1518 C 0.77073 0.54615 0.45468 0.0
C1519 C 0.73295 0.54848 0.45319 0.0
H1520 H 0.48411 0.18732 0.42919 0.0
H1521 H 0.50165 0.18348 0.45607 0.0
H1522 H 0.48709 0.25729 0.43073 0.0
H1523 H 0.50628 0.254 0.45758 0.0
H1524 H 0.48755 0.3699 0.45923 0.0
H1525 H 0.46986 0.29459 0.45712 0.0
H1526 H 0.53983 0.33095 0.43344 0.0
H1527 H 0.55603 0.40569 0.43542 0.0
C1528 C 0.48841 0.20131 0.43544 0.0
C1529 C 0.4928 0.17985 0.4425 0.0
C1530 C 0.49043 0.24163 0.43632 0.0
C1531 C 0.49728 0.26168 0.44428 0.0
C1532 C 0.50034 0.23945 0.45137 0.0
C1533 C 0.49793 0.19899 0.45049 0.0
C1534 C 0.49862 0.36165 0.45352 0.0
C1535 C 0.52339 0.3939 0.44752 0.0
C1536 C 0.48876 0.31848 0.45233 0.0
C1537 C 0.50374 0.30654 0.44515 0.0
C1538 C 0.5272 0.3386 0.43901 0.0
C1539 C 0.53673 0.38166 0.44016 0.0
H1540 H 0.83131 0.34135 0.42955 0.0
H1541 H 0.87584 0.32432 0.45386 0.0
H1542 H 0.76122 0.27563 0.43187 0.0
H1543 H 0.80589 0.25795 0.4561 0.0
H1544 H 0.65731 0.18733 0.46158 0.0
H1545 H 0.73245 0.24338 0.45895 0.0
H1546 H 0.72253 0.19646 0.43343 0.0
H1547 H 0.64665 0.1406 0.43602 0.0
C1548 C 0.82641 0.32322 0.43534 0.0
C1549 C 0.85902 0.33834 0.44156 0.0
C1550 C 0.78629 0.28532 0.43664 0.0
C1551 C 0.77786 0.26165 0.44419 0.0
C1552 C 0.81115 0.27579 0.45026 0.0
C1553 C 0.8513 0.31372 0.44896 0.0
C1554 C 0.67121 0.1886 0.45543 0.0
C1555 C 0.64585 0.15974 0.44898 0.0
C1556 C 0.71448 0.22058 0.45394 0.0
C1557 C 0.73347 0.22452 0.44597 0.0
C1558 C 0.70864 0.1946 0.43961 0.0
C1559 C 0.66527 0.16246 0.44111 0.0
H1560 H 0.51287 0.34052 0.95758 0.0
H1561 H 0.47533 0.30648 0.93154 0.0
H1562 H 0.51696 0.27445 0.95935 0.0
H1563 H 0.47824 0.2396 0.93337 0.0
H1564 H 0.55016 0.16168 0.93721 0.0
H1565 H 0.53345 0.21982 0.93513 0.0
H1566 H 0.47644 0.19635 0.96003 0.0
H1567 H 0.4943 0.13896 0.96221 0.0
C1568 C 0.50485 0.31861 0.95226 0.0
C1569 C 0.49409 0.32898 0.9444 0.0
C1570 C 0.5069 0.28049 0.95329 0.0
C1571 C 0.49803 0.25166 0.94649 0.0
C1572 C 0.48591 0.26138 0.9387 0.0
C1573 C 0.48403 0.29963 0.93766 0.0
C1574 C 0.5335 0.16847 0.9422 0.0
C1575 C 0.52394 0.14592 0.94991 0.0
C1576 C 0.52371 0.20174 0.94099 0.0
C1577 C 0.50393 0.2131 0.94744 0.0
C1578 C 0.49245 0.18905 0.95499 0.0
C1579 C 0.50242 0.15592 0.95622 0.0
H1580 H 0.85924 0.40382 0.96316 0.0
H1581 H 0.91134 0.40863 0.93828 0.0
H1582 H 0.80487 0.32756 0.96102 0.0
H1583 H 0.8573 0.33173 0.93621 0.0
H1584 H 0.71481 0.21954 0.93177 0.0
H1585 H 0.77912 0.29087 0.93394 0.0
H1586 H 0.79117 0.25398 0.95933 0.0
H1587 H 0.72613 0.18282 0.95722 0.0
C1588 C 0.8596 0.38841 0.95728 0.0
C1589 C 0.88942 0.41248 0.95086 0.0
C1590 C 0.82853 0.3445 0.95607 0.0
C1591 C 0.82651 0.32351 0.94842 0.0
C1592 C 0.85755 0.34708 0.94213 0.0
C1593 C 0.88871 0.39109 0.94334 0.0
C1594 C 0.73142 0.2264 0.93779 0.0
C1595 C 0.71503 0.19559 0.94435 0.0
C1596 C 0.76854 0.26727 0.93901 0.0
C1597 C 0.79021 0.2783 0.94683 0.0
C1598 C 0.77487 0.24678 0.95327 0.0
C1599 C 0.73771 0.20589 0.95205 0.0
H1600 H 0.64962 0.529 0.93903 0.0
H1601 H 0.66407 0.53589 0.96614 0.0
H1602 H 0.727 0.55434 0.93746 0.0
H1603 H 0.74191 0.56247 0.96456 0.0
H1604 H 0.85548 0.53842 0.95794 0.0
H1605 H 0.78358 0.52905 0.96036 0.0
H1606 H 0.80125 0.61274 0.93911 0.0
H1607 H 0.87311 0.62125 0.93654 0.0
C1608 C 0.66947 0.53675 0.94466 0.0
C1609 C 0.65055 0.52988 0.95272 0.0
C1610 C 0.71399 0.55159 0.94376 0.0
C1611 C 0.74066 0.5601 0.95089 0.0
C1612 C 0.72213 0.55546 0.95894 0.0
C1613 C 0.67755 0.54044 0.95985 0.0
C1614 C 0.84434 0.5553 0.95383 0.0
C1615 C 0.86991 0.58025 0.94699 0.0
C1616 C 0.80314 0.55017 0.95527 0.0
C1617 C 0.78651 0.57001 0.94991 0.0
C1618 C 0.81285 0.59651 0.94328 0.0
C1619 C 0.85412 0.60157 0.94183 0.0
H1620 H 0.33508 0.47784 0.53173 0.0
H1621 H 0.35676 0.54789 0.55519 0.0
H1622 H 0.26855 0.48093 0.52947 0.0
H1623 H 0.29075 0.55166 0.55285 0.0
H1624 H 0.15443 0.52938 0.54894 0.0
H1625 H 0.21118 0.511 0.55181 0.0
H1626 H 0.25339 0.53857 0.52586 0.0
H1627 H 0.19652 0.55611 0.52296 0.0
C1628 C 0.32547 0.49353 0.53645 0.0
C1629 C 0.35148 0.51292 0.54361 0.0
C1630 C 0.28743 0.4955 0.53513 0.0
C1631 C 0.27447 0.51685 0.54094 0.0
C1632 C 0.2995 0.5346 0.54828 0.0
C1633 C 0.33756 0.53267 0.5496 0.0
C1634 C 0.17543 0.53088 0.54382 0.0
C1635 C 0.17109 0.54445 0.53573 0.0
C1636 C 0.20813 0.52062 0.54548 0.0
C1637 C 0.23698 0.52349 0.53908 0.0
C1638 C 0.23147 0.53549 0.53092 0.0
C1639 C 0.19897 0.54586 0.52927 0.0
H1640 H 0.54607 0.65139 0.54809 0.0
H1641 H 0.49301 0.65621 0.52384 0.0
H1642 H 0.56667 0.72738 0.55062 0.0
H1643 H 0.51272 0.73154 0.52644 0.0
H1644 H 0.57435 0.87527 0.53089 0.0
H1645 H 0.57161 0.8061 0.52821 0.0
H1646 H 0.52615 0.76464 0.55366 0.0
H1647 H 0.52973 0.83399 0.5564 0.0
C1648 C 0.53927 0.66878 0.54326 0.0
C1649 C 0.51758 0.64764 0.53579 0.0
C1650 C 0.55083 0.71222 0.54473 0.0
C1651 C 0.54106 0.73545 0.53876 0.0
C1652 C 0.52117 0.71483 0.53114 0.0
C1653 C 0.50957 0.67146 0.52967 0.0
C1654 C 0.56436 0.85164 0.53595 0.0
C1655 C 0.55186 0.86 0.54384 0.0
C1656 C 0.5626 0.81192 0.5344 0.0
C1657 C 0.54833 0.77969 0.54069 0.0
C1658 C 0.53772 0.78888 0.54869 0.0
C1659 C 0.53948 0.82859 0.55025 0.0
H1660 H 0.41133 0.88527 0.55026 0.0
H1661 H 0.38311 0.9134 0.5253 0.0
H1662 H 0.33614 0.82688 0.55171 0.0
H1663 H 0.30726 0.85577 0.52686 0.0
H1664 H 0.19706 0.71174 0.52822 0.0
H1665 H 0.26753 0.77811 0.52694 0.0
H1666 H 0.26171 0.8069 0.55324 0.0
H1667 H 0.19182 0.73959 0.55458 0.0
C1668 C 0.38886 0.87957 0.54514 0.0
C1669 C 0.40337 0.90382 0.53763 0.0
C1670 C 0.34555 0.84615 0.54599 0.0
C1671 C 0.31551 0.83631 0.53938 0.0
C1672 C 0.32963 0.86186 0.53201 0.0
C1673 C 0.37308 0.89514 0.53114 0.0
C1674 C 0.21057 0.73246 0.53371 0.0
C1675 C 0.18897 0.72015 0.54152 0.0
C1676 C 0.25095 0.77076 0.53296 0.0
C1677 C 0.27058 0.79788 0.54 0.0
C1678 C 0.24802 0.78642 0.54773 0.0
C1679 C 0.20779 0.74793 0.54849 0.0
H1680 H 0.24839 0.05442 0.36444 0.0
H1681 H 0.19258 0.04242 0.38922 0.0
H1682 H 0.2522 0.12458 0.36259 0.0
H1683 H 0.1955 0.11205 0.38729 0.0
H1684 H 0.22629 0.25077 0.38341 0.0
H1685 H 0.24082 0.1909 0.38565 0.0
H1686 H 0.19755 0.14535 0.36027 0.0
H1687 H 0.18396 0.2053 0.35799 0.0
C1688 C 0.23734 0.06693 0.36953 0.0
C1689 C 0.21976 0.04258 0.37694 0.0
C1690 C 0.23934 0.10706 0.36845 0.0
C1691 C 0.22375 0.12374 0.37475 0.0
C1692 C 0.20816 0.10038 0.38234 0.0
C1693 C 0.20621 0.06027 0.38342 0.0
C1694 C 0.2206 0.22837 0.37827 0.0
C1695 C 0.20369 0.23262 0.37054 0.0
C1696 C 0.22866 0.19392 0.37957 0.0
C1697 C 0.22015 0.1632 0.37316 0.0
C1698 C 0.20499 0.16866 0.36532 0.0
C1699 C 0.19687 0.20293 0.36403 0.0
H1700 H 0.0248 0.23238 0.36715 0.0
H1701 H 0.04691 0.18697 0.39091 0.0
H1702 H 0.95449 0.16547 0.36585 0.0
H1703 H 0.97716 0.11967 0.38951 0.0
H1704 H 0.83587 0.01192 0.38716 0.0
H1705 H 0.89804 0.08547 0.38923 0.0
H1706 H 0.93199 0.09048 0.36291 0.0
H1707 H 0.86982 0.01799 0.36083 0.0
C1708 C 0.01455 0.20829 0.37213 0.0
C1709 C 0.04169 0.21491 0.37909 0.0
C1710 C 0.97432 0.16981 0.37136 0.0
C1711 C 0.9603 0.13696 0.37754 0.0
C1712 C 0.98667 0.1444 0.38468 0.0
C1713 C 0.02687 0.18293 0.38545 0.0
C1714 C 0.85631 0.02904 0.38181 0.0
C1715 C 0.84797 0.009 0.37384 0.0
C1716 C 0.89208 0.07105 0.383 0.0
C1717 C 0.9201 0.09391 0.37624 0.0
C1718 C 0.91083 0.07422 0.36824 0.0
C1719 C 0.87527 0.03237 0.36705 0.0
H1720 H 0.88325 0.8782 0.39087 0.0
H1721 H 0.84285 0.83985 0.36509 0.0
H1722 H 0.95134 0.87935 0.38807 0.0
H1723 H 0.91077 0.83995 0.36233 0.0
H1724 H 0.05989 0.90885 0.35803 0.0
H1725 H 0.98631 0.89438 0.36075 0.0
H1726 H 0.98702 0.8383 0.38489 0.0
H1727 H 0.06152 0.85383 0.38224 0.0
C1728 C 0.88854 0.86929 0.38463 0.0
C1729 C 0.85764 0.85929 0.37819 0.0
C1730 C 0.9276 0.86966 0.38304 0.0
C1731 C 0.93685 0.86001 0.37495 0.0
C1732 C 0.90511 0.84825 0.36859 0.0
C1733 C 0.86598 0.84788 0.37019 0.0
C1734 C 0.04433 0.89307 0.3639 0.0
C1735 C 0.06685 0.8828 0.36994 0.0
C1736 C 1.00183 0.88444 0.36543 0.0
C1737 C 0.98056 0.86523 0.37305 0.0
C1738 C 1.00257 0.85366 0.379 0.0
C1739 C 0.04521 0.86231 0.37746 0.0
H1740 H 0.39389 0.91132 0.78855 0.0
H1741 H 0.38506 0.86333 0.76315 0.0
H1742 H 0.46048 0.90823 0.79078 0.0
H1743 H 0.45094 0.85942 0.76543 0.0
H1744 H 0.5839 0.87754 0.76995 0.0
H1745 H 0.52931 0.89955 0.76786 0.0
H1746 H 0.47568 0.84908 0.7925 0.0
H1747 H 0.53055 0.82797 0.79465 0.0
C1748 C 0.40638 0.90055 0.78341 0.0
C1749 C 0.38394 0.8872 0.7757 0.0
C1750 C 0.44442 0.89859 0.7847 0.0
C1751 C 0.46088 0.88329 0.7783 0.0
C1752 C 0.43948 0.87182 0.77046 0.0
C1753 C 0.40146 0.87376 0.76918 0.0
C1754 C 0.56093 0.87186 0.77498 0.0
C1755 C 0.5613 0.85061 0.78243 0.0
C1756 C 0.52949 0.88423 0.77376 0.0
C1757 C 0.49788 0.87572 0.77998 0.0
C1758 C 0.49975 0.85652 0.78761 0.0
C1759 C 0.5311 0.84413 0.78882 0.0
H1760 H 0.18937 0.74063 0.77097 0.0
H1761 H 0.23722 0.73771 0.79589 0.0
H1762 H 0.16915 0.66444 0.76889 0.0
H1763 H 0.2178 0.66209 0.79374 0.0
H1764 H 0.15389 0.51722 0.78988 0.0
H1765 H 0.15828 0.58757 0.79196 0.0
H1766 H 0.20967 0.62618 0.76675 0.0
H1767 H 0.20453 0.55567 0.76461 0.0
C1768 C 0.19513 0.72363 0.77604 0.0
C1769 C 0.21519 0.74534 0.78357 0.0
C1770 C 0.18379 0.68006 0.77482 0.0
C1771 C 0.19212 0.65726 0.78112 0.0
C1772 C 0.2105 0.6785 0.78879 0.0
C1773 C 0.22191 0.72201 0.79 0.0
C1774 C 0.16558 0.54049 0.78474 0.0
C1775 C 0.17917 0.53094 0.77709 0.0
C1776 C 0.16831 0.5809 0.78595 0.0
C1777 C 0.18459 0.61261 0.77955 0.0
C1778 C 0.19654 0.60235 0.77179 0.0
C1779 C 0.19386 0.56198 0.77058 0.0
H1780 H 0.51736 0.68043 0.77157 0.0
H1781 H 0.54602 0.64306 0.79561 0.0
H1782 H 0.44407 0.61711 0.77198 0.0
H1783 H 0.47294 0.57926 0.79593 0.0
H1784 H 0.32321 0.51461 0.79894 0.0
H1785 H 0.40033 0.56843 0.79796 0.0
H1786 H 0.39971 0.53747 0.77159 0.0
H1787 H 0.32183 0.48378 0.77254 0.0
C1788 C 0.50829 0.65836 0.77688 0.0
C1789 C 0.53749 0.6671 0.78359 0.0
C1790 C 0.4663 0.62185 0.77709 0.0
C1791 C 0.45248 0.59322 0.78401 0.0
C1792 C 0.4823 0.60102 0.79056 0.0
C1793 C 0.5243 0.63751 0.79036 0.0
C1794 C 0.33951 0.51887 0.79294 0.0
C1795 C 0.31624 0.49507 0.7858 0.0
C1796 C 0.38392 0.54959 0.7924 0.0
C1797 C 0.40627 0.5574 0.78469 0.0
C1798 C 0.38334 0.53258 0.7776 0.0
C1799 C 0.3388 0.50162 0.77815 0.0
H1800 H 0.17486 0.46958 0.2731 0.0
H1801 H 0.23404 0.52993 0.29686 0.0
H1802 H 0.15035 0.52231 0.27123 0.0
H1803 H 0.21061 0.5832 0.29489 0.0
H1804 H 0.14569 0.66359 0.2913 0.0
H1805 H 0.15146 0.59862 0.29393 0.0
H1806 H 0.18743 0.59879 0.26788 0.0
H1807 H 0.18069 0.66262 0.26522 0.0
C1808 C 0.18222 0.49376 0.27797 0.0
C1809 C 0.20684 0.49583 0.28509 0.0
C1810 C 0.16839 0.52415 0.27688 0.0
C1811 C 0.17894 0.55736 0.28286 0.0
C1812 C 0.20154 0.55791 0.29019 0.0
C1813 C 0.21526 0.52747 0.29129 0.0
C1814 C 0.15414 0.64928 0.28611 0.0
C1815 C 0.163 0.66846 0.27806 0.0
C1816 C 0.1577 0.61221 0.28763 0.0
C1817 C 0.17008 0.59353 0.28113 0.0
C1818 C 0.17724 0.61184 0.27302 0.0
C1819 C 0.17372 0.64877 0.27151 0.0
H1820 H 0.43499 0.51249 0.26987 0.0
H1821 H 0.37108 0.53358 0.29109 0.0
H1822 H 0.4995 0.58385 0.27229 0.0
H1823 H 0.43492 0.60487 0.29339 0.0
H1824 H 0.56369 0.72142 0.29916 0.0
H1825 H 0.51097 0.64395 0.29759 0.0
H1826 H 0.51647 0.65915 0.27051 0.0
H1827 H 0.56984 0.73632 0.27206 0.0
C1828 C 0.43484 0.53212 0.27509 0.0
C1829 C 0.39778 0.51749 0.28025 0.0
C1830 C 0.47171 0.57307 0.27645 0.0
C1831 C 0.47229 0.60011 0.28301 0.0
C1832 C 0.43582 0.58467 0.28835 0.0
C1833 C 0.39903 0.54387 0.28699 0.0
C1834 C 0.55418 0.7081 0.29287 0.0
C1835 C 0.57057 0.73514 0.28574 0.0
C1836 C 0.52381 0.66374 0.29197 0.0
C1837 C 0.50914 0.64549 0.28393 0.0
C1838 C 0.52734 0.67206 0.27679 0.0
C1839 C 0.55778 0.71641 0.27768 0.0
H1840 H 0.30725 0.86154 0.27088 0.0
H1841 H 0.31067 0.81734 0.29611 0.0
H1842 H 0.38317 0.88078 0.26881 0.0
H1843 H 0.38597 0.83566 0.29398 0.0
H1844 H 0.53063 0.89755 0.28996 0.0
H1845 H 0.46054 0.89381 0.29199 0.0
H1846 H 0.42098 0.83991 0.26697 0.0
H1847 H 0.49127 0.84449 0.26487 0.0
C1848 C 0.3243 0.85637 0.27602 0.0
C1849 C 0.3028 0.83761 0.28364 0.0
C1850 C 0.36772 0.86712 0.27481 0.0
C1851 C 0.39057 0.85946 0.2812 0.0
C1852 C 0.36956 0.84243 0.28895 0.0
C1853 C 0.32621 0.83165 0.29016 0.0
C1854 C 0.50717 0.88537 0.28485 0.0
C1855 C 0.51645 0.87102 0.27727 0.0
C1856 C 0.46691 0.88304 0.28603 0.0
C1857 C 0.43502 0.86632 0.27966 0.0
C1858 C 0.44494 0.85343 0.27197 0.0
C1859 C 0.48519 0.85576 0.27079 0.0
H1860 H 0.01128 0.81673 0.86669 0.0
H1861 H 0.03073 0.88523 0.89028 0.0
H1862 H 0.94202 0.81487 0.86478 0.0
H1863 H 0.96207 0.88425 0.88827 0.0
H1864 H 0.82245 0.85374 0.8849 0.0
H1865 H 0.88295 0.84051 0.88752 0.0
H1866 H 0.92137 0.86834 0.86137 0.0
H1867 H 0.86082 0.88056 0.85873 0.0
C1868 C 1.00065 0.83109 0.8715 0.0
C1869 C 0.02677 0.85144 0.87861 0.0
C1870 C 0.96103 0.83023 0.87038 0.0
C1871 C 0.94659 0.84976 0.87633 0.0
C1872 C 0.97189 0.86852 0.8836 0.0
C1873 C 0.01148 0.86933 0.88473 0.0
C1874 C 0.84348 0.8564 0.87969 0.0
C1875 C 0.8369 0.8684 0.87162 0.0
C1876 C 0.87832 0.84911 0.88121 0.0
C1877 C 0.90716 0.85348 0.87467 0.0
C1878 C 0.89956 0.86408 0.86654 0.0
C1879 C 0.86492 0.87143 0.86504 0.0
H1880 H 0.18235 0.17217 0.89154 0.0
H1881 H 0.24027 0.22003 0.86705 0.0
H1882 H 0.18351 0.10492 0.88904 0.0
H1883 H 0.24222 0.15302 0.86462 0.0
H1884 H 0.17216 0.00448 0.85901 0.0
H1885 H 0.18671 0.07806 0.86181 0.0
H1886 H 0.22813 0.07086 0.88708 0.0
H1887 H 0.21271 0.99654 0.88433 0.0
C1888 C 0.19603 0.16869 0.88568 0.0
C1889 C 0.21079 0.20132 0.87946 0.0
C1890 C 0.19696 0.13019 0.88427 0.0
C1891 C 0.21269 0.12343 0.8766 0.0
C1892 C 0.22929 0.15693 0.87054 0.0
C1893 C 0.22837 0.19544 0.87196 0.0
C1894 C 0.18487 0.0187 0.86514 0.0
C1895 C 0.19092 0.99448 0.87147 0.0
C1896 C 0.19352 0.06109 0.86673 0.0
C1897 C 0.20842 0.08033 0.87469 0.0
C1898 C 0.21615 0.05676 0.88092 0.0
C1899 C 0.20758 0.01429 0.87932 0.0
H1900 H 0.87264 0.03217 0.88974 0.0
H1901 H 0.83979 0.03978 0.86381 0.0
H1902 H 0.94197 0.09929 0.888 0.0
H1903 H 0.90895 0.10787 0.86212 0.0
H1904 H 0.05908 0.18729 0.85945 0.0
H1905 H 0.9844 0.12828 0.86113 0.0
H1906 H 0.97937 0.17693 0.88586 0.0
H1907 H 0.05496 0.23569 0.88425 0.0
C1908 C 0.87987 0.04854 0.8837 0.0
C1909 C 0.85073 0.03031 0.87689 0.0
C1910 C 0.91963 0.08733 0.88271 0.0
C1911 C 0.93131 0.10902 0.8749 0.0
C1912 C 0.90136 0.0917 0.86819 0.0
C1913 C 0.86155 0.05279 0.86917 0.0
C1914 C 0.04202 0.18575 0.86523 0.0
C1915 C 0.06322 0.21611 0.87174 0.0
C1916 C 0.99892 0.15198 0.86616 0.0
C1917 C 0.97572 0.14763 0.87364 0.0
C1918 C 0.99643 0.1789 0.88006 0.0
C1919 C 0.03969 0.21277 0.87912 0.0
H1920 H 0.86172 0.37251 0.72093 0.0
H1921 H 0.90036 0.37818 0.6949 0.0
H1922 H 0.85684 0.43797 0.71892 0.0
H1923 H 0.8965 0.44458 0.69294 0.0
H1924 H 0.82127 0.51964 0.69017 0.0
H1925 H 0.83945 0.46247 0.69201 0.0
H1926 H 0.89532 0.51545 0.71639 0.0
H1927 H 0.87608 0.57232 0.71463 0.0
C1928 C 0.86988 0.38811 0.7148 0.0
C1929 C 0.8811 0.36981 0.70806 0.0
C1930 C 0.86736 0.42595 0.71367 0.0
C1931 C 0.87605 0.44658 0.70576 0.0
C1932 C 0.88893 0.42921 0.69909 0.0
C1933 C 0.89144 0.39128 0.70022 0.0
C1934 C 0.83782 0.51945 0.6959 0.0
C1935 C 0.8469 0.55045 0.70228 0.0
C1936 C 0.84857 0.48674 0.69692 0.0
C1937 C 0.86875 0.48413 0.70436 0.0
C1938 C 0.87924 0.51608 0.71063 0.0
C1939 C 0.86846 0.54887 0.7096 0.0
H1940 H 0.47222 0.32882 0.71287 0.0
H1941 H 0.53501 0.32379 0.68985 0.0
H1942 H 0.52807 0.40519 0.71471 0.0
H1943 H 0.59123 0.39963 0.6918 0.0
H1944 H 0.6775 0.54434 0.69504 0.0
H1945 H 0.61022 0.47568 0.69233 0.0
H1946 H 0.60439 0.44063 0.71858 0.0
H1947 H 0.67079 0.5093 0.72132 0.0
C1948 C 0.49759 0.34413 0.70814 0.0
C1949 C 0.49943 0.32006 0.70126 0.0
C1950 C 0.52973 0.38782 0.70923 0.0
C1951 C 0.5644 0.4084 0.70346 0.0
C1952 C 0.56483 0.38497 0.69633 0.0
C1953 C 0.53269 0.34132 0.69524 0.0
C1954 C 0.66144 0.52226 0.70025 0.0
C1955 C 0.67968 0.53214 0.70838 0.0
C1956 C 0.62303 0.48283 0.69869 0.0
C1957 C 0.60202 0.45255 0.70523 0.0
C1958 C 0.61935 0.46338 0.71342 0.0
C1959 C 0.65769 0.50268 0.71498 0.0
H1960 H 0.50986 0.14796 0.69875 0.0
H1961 H 0.55995 0.21675 0.72229 0.0
H1962 H 0.57762 0.14712 0.69659 0.0
H1963 H 0.62796 0.21679 0.72003 0.0
H1964 H 0.73769 0.18867 0.7163 0.0
H1965 H 0.6633 0.17304 0.71906 0.0
H1966 H 0.65147 0.20229 0.69308 0.0
H1967 H 0.72501 0.21688 0.69029 0.0
C1968 C 0.53518 0.16261 0.7035 0.0
C1969 C 0.52967 0.18277 0.71066 0.0
C1970 C 0.57407 0.16229 0.70224 0.0
C1971 C 0.60832 0.18216 0.70811 0.0
C1972 C 0.60209 0.20076 0.71543 0.0
C1973 C 0.56318 0.20103 0.7167 0.0
C1974 C 0.71892 0.1911 0.71116 0.0
C1975 C 0.73735 0.20431 0.70309 0.0
C1976 C 0.67642 0.1824 0.71275 0.0
C1977 C 0.65154 0.18663 0.7063 0.0
C1978 C 0.66948 0.19818 0.69817 0.0
C1979 C 0.71185 0.20689 0.69658 0.0
H1980 H 0.26309 0.23133 0.10591 0.0
H1981 H 0.20286 0.16701 0.12934 0.0
H1982 H 0.20688 0.25123 0.10405 0.0
H1983 H 0.14622 0.18585 0.12737 0.0
H1984 H 0.05801 0.24136 0.12395 0.0
H1985 H 0.12613 0.24169 0.12659 0.0
H1986 H 0.13058 0.20979 0.10044 0.0
H1987 H 0.06345 0.21052 0.09776 0.0
C1988 C 0.23821 0.22191 0.11072 0.0
C1989 C 0.23717 0.19714 0.11773 0.0
C1990 C 0.20585 0.2331 0.10962 0.0
C1991 C 0.17174 0.21971 0.11551 0.0
C1992 C 0.17217 0.19706 0.12275 0.0
C1993 C 0.20454 0.18596 0.12385 0.0
C1994 C 0.07395 0.23512 0.11874 0.0
C1995 C 0.05511 0.22554 0.11066 0.0
C1996 C 0.11285 0.23508 0.12027 0.0
C1997 C 0.13371 0.22551 0.11374 0.0
C1998 C 0.11577 0.21785 0.10559 0.0
C1999 C 0.07699 0.21791 0.10407 0.0
H2000 H 0.91175 0.06514 0.128 0.0
H2001 H 0.85992 0.0677 0.10349 0.0
H2002 H 0.89417 0.99028 0.12558 0.0
H2003 H 0.84131 0.9921 0.10114 0.0
H2004 H 0.87581 0.88411 0.0958 0.0
H2005 H 0.88023 0.9539 0.09835 0.0
H2006 H 0.83754 0.91535 0.12403 0.0
H2007 H 0.83412 0.84561 0.12153 0.0
C2008 C 0.89598 0.04953 0.12213 0.0
C2009 C 0.88756 0.07264 0.11591 0.0
C2010 C 0.88559 0.00635 0.12077 0.0
C2011 C 0.86642 0.98502 0.11315 0.0
C2012 C 0.85661 0.00767 0.10704 0.0
C2013 C 0.86703 0.05095 0.1084 0.0
C2014 C 0.86689 0.89022 0.10198 0.0
C2015 C 0.85494 0.85929 0.10848 0.0
C2016 C 0.86915 0.93027 0.10342 0.0
C2017 C 0.85948 0.94052 0.11141 0.0
C2018 C 0.84587 0.90887 0.11783 0.0
C2019 C 0.84361 0.86873 0.11638 0.0
H2020 H 0.22324 0.01265 0.12011 0.0
H2021 H 0.17772 0.03434 0.09632 0.0
H2022 H 0.15543 0.94327 0.12164 0.0
H2023 H 0.10966 0.96562 0.09794 0.0
H2024 H 1.00103 0.82604 0.10039 0.0
H2025 H 0.07538 0.88657 0.09836 0.0
H2026 H 0.08048 0.92221 0.12457 0.0
H2027 H 0.00701 0.8615 0.12664 0.0
C2028 C 0.19891 0.00252 0.11518 0.0
C2029 C 0.20575 0.02918 0.10813 0.0
C2030 C 0.15997 0.96285 0.11607 0.0
C2031 C 0.12702 0.94901 0.10993 0.0
C2032 C 0.13454 0.97501 0.10274 0.0
C2033 C 0.17348 0.01462 0.10184 0.0
C2034 C 0.01832 0.84644 0.10574 0.0
C2035 C 0.99803 0.83914 0.11366 0.0
C2036 C 0.06079 0.88126 0.10456 0.0
C2037 C 0.08379 0.90936 0.11129 0.0
C2038 C 0.06397 0.90094 0.11928 0.0
C2039 C 0.02164 0.86625 0.12045 0.0
H2040 H 0.86645 0.82492 0.60133 0.0
H2041 H 0.85838 0.83582 0.62832 0.0
H2042 H 0.84895 0.88282 0.59932 0.0
H2043 H 0.83962 0.89256 0.62633 0.0
H2044 H 0.8769 0.03296 0.61989 0.0
H2045 H 0.88088 0.96729 0.62204 0.0
H2046 H 0.79576 0.90682 0.60068 0.0
H2047 H 0.79261 0.97345 0.59838 0.0
C2048 C 0.86003 0.83903 0.60682 0.0
C2049 C 0.86438 0.8263 0.61498 0.0
C2050 C 0.84981 0.87208 0.60567 0.0
C2051 C 0.84347 0.89274 0.61267 0.0
C2052 C 0.84531 0.87805 0.62081 0.0
C2053 C 0.85586 0.84537 0.62195 0.0
C2054 C 0.85869 0.00561 0.61568 0.0
C2055 C 0.83457 0.00855 0.60894 0.0
C2056 C 0.86072 0.96773 0.61695 0.0
C2057 C 0.83852 0.93168 0.61155 0.0
C2058 C 0.81357 0.93419 0.60491 0.0
C2059 C 0.81159 0.97226 0.60362 0.0
H2060 H 0.19577 0.06099 0.62846 0.0
H2061 H 0.24365 0.06387 0.60327 0.0
H2062 H 0.13639 0.98702 0.62614 0.0
H2063 H 0.18442 0.98902 0.601 0.0
H2064 H 0.03954 0.88276 0.5968 0.0
H2065 H 0.10628 0.95206 0.599 0.0
H2066 H 0.11655 0.91191 0.62421 0.0
H2067 H 0.04901 0.84277 0.62207 0.0
C2068 C 0.19401 0.04563 0.62246 0.0
C2069 C 0.22442 0.06857 0.61604 0.0
C2070 C 0.16001 0.00294 0.62115 0.0
C2071 C 0.15542 0.98191 0.61338 0.0
C2072 C 0.18661 0.00439 0.60703 0.0
C2073 C 0.22076 0.0472 0.60835 0.0
C2074 C 0.05619 0.88845 0.60279 0.0
C2075 C 0.03864 0.85724 0.60928 0.0
C2076 C 0.09474 0.9282 0.60403 0.0
C2077 C 0.11682 0.93782 0.6118 0.0
C2078 C 0.10008 0.90592 0.61819 0.0
C2079 C 0.06147 0.86612 0.61694 0.0
H2080 H 0.19034 0.1989 0.5965 0.0
H2081 H 0.22769 0.24256 0.62218 0.0
H2082 H 0.12209 0.19857 0.59857 0.0
H2083 H 0.15968 0.24315 0.6242 0.0
H2084 H 0.00882 0.16812 0.62747 0.0
H2085 H 0.08419 0.18639 0.62556 0.0
H2086 H 0.08623 0.24076 0.60106 0.0
H2087 H 0.01017 0.22155 0.60291 0.0
C2088 C 0.18437 0.2092 0.60255 0.0
C2089 C 0.21428 0.22027 0.60921 0.0
C2090 C 0.1453 0.20931 0.60372 0.0
C2091 C 0.13524 0.22055 0.61157 0.0
C2092 C 0.16614 0.23368 0.61811 0.0
C2093 C 0.20523 0.23355 0.61694 0.0
C2094 C 0.02546 0.18455 0.62172 0.0
C2095 C 1.0033 0.19292 0.6153 0.0
C2096 C 0.06887 0.19532 0.62065 0.0
C2097 C 0.09121 0.21478 0.61313 0.0
C2098 C 0.06973 0.2252 0.60688 0.0
C2099 C 0.02624 0.21445 0.60796 0.0
H2100 H 0.47327 0.16976 0.21648 0.0
H2101 H 0.5193 0.21341 0.19114 0.0
H2102 H 0.53167 0.15286 0.21851 0.0
H2103 H 0.57786 0.19749 0.19322 0.0
H2104 H 0.66458 0.14048 0.19703 0.0
H2105 H 0.59652 0.14117 0.1952 0.0
H2106 H 0.61045 0.19516 0.2202 0.0
H2107 H 0.67786 0.1936 0.2221 0.0
C2108 C 0.49551 0.1753 0.21132 0.0
C2109 C 0.49176 0.19319 0.20366 0.0
C2110 C 0.52915 0.1659 0.2125 0.0
C2111 C 0.55963 0.17403 0.20605 0.0
C2112 C 0.55473 0.19031 0.1983 0.0
C2113 C 0.52125 0.19975 0.19712 0.0
C2114 C 0.65282 0.15195 0.20218 0.0
C2115 C 0.67688 0.1673 0.20969 0.0
C2116 C 0.61391 0.15256 0.20111 0.0
C2117 C 0.59814 0.16852 0.20752 0.0
C2118 C 0.62133 0.18221 0.21516 0.0
C2119 C 0.66021 0.18159 0.21623 0.0
H2120 H 0.90068 0.53866 0.19825 0.0
H2121 H 0.8399 0.49198 0.22257 0.0
H2122 H 0.90021 0.47033 0.19594 0.0
H2123 H 0.83872 0.42343 0.22019 0.0
H2124 H 0.86406 0.31207 0.21573 0.0
H2125 H 0.88154 0.38709 0.21845 0.0
H2126 H 0.84289 0.39605 0.19304 0.0
H2127 H 0.82621 0.32174 0.19028 0.0
C2128 C 0.88764 0.51404 0.20314 0.0
C2129 C 0.86996 0.52066 0.21056 0.0
C2130 C 0.88717 0.47478 0.2018 0.0
C2131 C 0.86908 0.44125 0.20784 0.0
C2132 C 0.85327 0.44869 0.21543 0.0
C2133 C 0.8537 0.48794 0.21677 0.0
C2134 C 0.85997 0.33033 0.21069 0.0
C2135 C 0.84346 0.31082 0.20281 0.0
C2136 C 0.86972 0.3732 0.21227 0.0
C2137 C 0.8634 0.39751 0.20598 0.0
C2138 C 0.84863 0.37851 0.198 0.0
C2139 C 0.83875 0.33571 0.19643 0.0
H2140 H 0.49939 0.36825 0.19805 0.0
H2141 H 0.54247 0.35852 0.22302 0.0
H2142 H 0.56837 0.4355 0.19566 0.0
H2143 H 0.61162 0.42522 0.22058 0.0
H2144 H 0.72298 0.56191 0.21586 0.0
H2145 H 0.6479 0.50396 0.21838 0.0
H2146 H 0.64327 0.45292 0.19341 0.0
H2147 H 0.7177 0.51102 0.19084 0.0
C2148 C 0.52336 0.38065 0.20306 0.0
C2149 C 0.51549 0.3578 0.21071 0.0
C2150 C 0.56301 0.41908 0.20167 0.0
C2151 C 0.59567 0.43561 0.2079 0.0
C2152 C 0.58706 0.41369 0.21567 0.0
C2153 C 0.54745 0.37523 0.21706 0.0
C2154 C 0.70569 0.53868 0.21087 0.0
C2155 C 0.72644 0.54096 0.20316 0.0
C2156 C 0.66277 0.50532 0.21233 0.0
C2157 C 0.63962 0.47364 0.20612 0.0
C2158 C 0.65989 0.47701 0.19831 0.0
C2159 C 0.70275 0.51022 0.19685 0.0
H2160 H 0.46663 0.39171 0.04038 0.0
H2161 H 0.58721 0.41794 0.05227 0.0
H2162 H 0.43555 0.31386 0.04328 0.0
H2163 H 0.55653 0.34066 0.05507 0.0
H2164 H 0.49394 0.20302 0.06166 0.0
H2165 H 0.50136 0.27522 0.06246 0.0
H2166 H 0.45341 0.26088 0.03693 0.0
H2167 H 0.44533 0.18855 0.03618 0.0
C2168 C 0.48617 0.38097 0.04374 0.0
C2169 C 0.52954 0.41072 0.04598 0.0
C2170 C 0.46842 0.33646 0.04538 0.0
C2171 C 0.49365 0.32116 0.04936 0.0
C2172 C 0.53603 0.35141 0.05208 0.0
C2173 C 0.55382 0.39569 0.05039 0.0
C2174 C 0.48406 0.21493 0.05629 0.0
C2175 C 0.47007 0.19069 0.04878 0.0
C2176 C 0.48831 0.25622 0.05675 0.0
C2177 C 0.47872 0.27397 0.04971 0.0
C2178 C 0.46086 0.24801 0.04248 0.0
C2179 C 0.45646 0.20663 0.04203 0.0
H2180 H 0.83016 0.318 0.05506 0.0
H2181 H 0.84605 0.30063 0.02857 0.0
H2182 H 0.75354 0.26162 0.05422 0.0
H2183 H 0.76966 0.24356 0.02779 0.0
H2184 H 0.62535 0.20609 0.02702 0.0
H2185 H 0.70397 0.24923 0.02829 0.0
H2186 H 0.69831 0.1842 0.05169 0.0
H2187 H 0.6186 0.14085 0.05048 0.0
C2188 C 0.81756 0.30154 0.0491 0.0
C2189 C 0.84398 0.31437 0.04184 0.0
C2190 C 0.77367 0.269 0.04863 0.0
C2191 C 0.75539 0.24862 0.04091 0.0
C2192 C 0.78263 0.25934 0.03379 0.0
C2193 C 0.82645 0.2919 0.03425 0.0
C2194 C 0.64069 0.20071 0.03244 0.0
C2195 C 0.61566 0.17015 0.03867 0.0
C2196 C 0.68594 0.2252 0.03311 0.0
C2197 C 0.70746 0.21989 0.04005 0.0
C2198 C 0.68258 0.18906 0.04628 0.0
C2199 C 0.63703 0.16422 0.04558 0.0
H2200 H 0.88171 0.46572 0.05054 0.0
H2201 H 0.95546 0.58031 0.03508 0.0
H2202 H 0.82742 0.48726 0.05309 0.0
H2203 H 0.90142 0.60236 0.03778 0.0
H2204 H 0.76067 0.57908 0.03327 0.0
H2205 H 0.82721 0.5749 0.03302 0.0
H2206 H 0.80921 0.53833 0.05933 0.0
H2207 H 0.74203 0.54157 0.05953 0.0
C2208 C 0.8869 0.49605 0.04784 0.0
C2209 C 0.9227 0.52099 0.04252 0.0
C2210 C 0.85582 0.50858 0.04934 0.0
C2211 C 0.85982 0.54638 0.04557 0.0
C2212 C 0.897 0.5727 0.04067 0.0
C2213 C 0.92814 0.56018 0.03917 0.0
C2214 C 0.77133 0.57099 0.03905 0.0
C2215 C 0.74567 0.55998 0.04638 0.0
C2216 C 0.80967 0.56878 0.03892 0.0
C2217 C 0.82331 0.55572 0.04613 0.0
C2218 C 0.79916 0.54763 0.05362 0.0
C2219 C 0.76076 0.5497 0.05374 0.0
H2220 H 0.43656 0.58332 0.43152 0.0
H2221 H 0.40605 0.46313 0.44413 0.0
H2222 H 0.35926 0.5565 0.42946 0.0
H2223 H 0.32839 0.43588 0.44192 0.0
H2224 H 0.20698 0.44858 0.44974 0.0
H2225 H 0.27907 0.45626 0.44851 0.0
H2226 H 0.29028 0.50484 0.4231 0.0
H2227 H 0.21846 0.49796 0.42441 0.0
C2228 C 0.41341 0.55069 0.43366 0.0
C2229 C 0.42749 0.52567 0.43811 0.0
C2230 C 0.36897 0.53515 0.43243 0.0
C2231 C 0.33756 0.4942 0.43562 0.0
C2232 C 0.35176 0.46785 0.43952 0.0
C2233 C 0.3963 0.48338 0.44073 0.0
C2234 C 0.22442 0.45999 0.44383 0.0
C2235 C 0.20746 0.47349 0.43724 0.0
C2236 C 0.26571 0.4642 0.4431 0.0
C2237 C 0.29073 0.48176 0.43574 0.0
C2238 C 0.27222 0.49206 0.42891 0.0
C2239 C 0.23104 0.48802 0.42966 0.0
H2240 H 0.58227 0.75743 0.45495 0.0
H2241 H 0.51981 0.73356 0.43059 0.0
H2242 H 0.5712 0.81944 0.45702 0.0
H2243 H 0.50735 0.79443 0.43278 0.0
H2244 H 0.50235 0.91762 0.43744 0.0
H2245 H 0.53407 0.87137 0.43445 0.0
H2246 H 0.50824 0.82435 0.46014 0.0
H2247 H 0.47811 0.87093 0.46314 0.0
C2248 C 0.56656 0.76565 0.45 0.0
C2249 C 0.55133 0.7401 0.44267 0.0
C2250 C 0.55998 0.80108 0.4512 0.0
C2251 C 0.53769 0.81158 0.44513 0.0
C2252 C 0.52487 0.7876 0.43757 0.0
C2253 C 0.53174 0.75238 0.43635 0.0
C2254 C 0.50423 0.89793 0.44246 0.0
C2255 C 0.48744 0.89776 0.4505 0.0
C2256 C 0.52214 0.87123 0.44075 0.0
C2257 C 0.5237 0.84399 0.44705 0.0
C2258 C 0.50836 0.8453 0.45516 0.0
C2259 C 0.49058 0.87182 0.45686 0.0
H2260 H 0.29704 0.84584 0.45779 0.0
H2261 H 0.31934 0.83127 0.43149 0.0
H2262 H 0.24357 0.76823 0.45855 0.0
H2263 H 0.26648 0.75348 0.43231 0.0
H2264 H 0.1493 0.61558 0.43589 0.0
H2265 H 0.18955 0.69535 0.4346 0.0
H2266 H 0.25379 0.70498 0.45831 0.0
H2267 H 0.2137 0.62623 0.45964 0.0
C2268 C 0.29013 0.82624 0.45214 0.0
C2269 C 0.31292 0.84462 0.44461 0.0
C2270 C 0.25965 0.78172 0.45259 0.0
C2271 C 0.25132 0.75461 0.44552 0.0
C2272 C 0.27204 0.7735 0.43785 0.0
C2273 C 0.30255 0.81807 0.4374 0.0
C2274 C 0.17183 0.63488 0.44084 0.0
C2275 C 0.17841 0.6146 0.44785 0.0
C2276 C 0.19491 0.68046 0.44009 0.0
C2277 C 0.22459 0.70647 0.44639 0.0
C2278 C 0.23059 0.68601 0.45343 0.0
C2279 C 0.20786 0.64072 0.45415 0.0
H2280 H 0.45691 0.63136 0.96201 0.0
H2281 H 0.50084 0.61743 0.93738 0.0
H2282 H 0.49243 0.70953 0.96007 0.0
H2283 H 0.53742 0.69687 0.93547 0.0
H2284 H 0.53606 0.82939 0.93242 0.0
H2285 H 0.51509 0.7526 0.93355 0.0
H2286 H 0.56386 0.77437 0.95909 0.0
H2287 H 0.58384 0.85076 0.95805 0.0
C2288 C 0.47453 0.64505 0.95619 0.0
C2289 C 0.47589 0.61812 0.94983 0.0
C2290 C 0.49533 0.69007 0.95512 0.0
C2291 C 0.51807 0.70952 0.94765 0.0
C2292 C 0.52001 0.68276 0.94129 0.0
C2293 C 0.49927 0.63739 0.9424 0.0
C2294 C 0.54288 0.81793 0.93824 0.0
C2295 C 0.56088 0.84599 0.9452 0.0
C2296 C 0.53111 0.77396 0.93886 0.0
C2297 C 0.53723 0.75727 0.94645 0.0
C2298 C 0.5579 0.78606 0.95321 0.0
C2299 C 0.56948 0.82988 0.95261 0.0
H2300 H 0.20164 0.78399 0.95206 0.0
H2301 H 0.24352 0.74427 0.92984 0.0
H2302 H 0.27542 0.84534 0.95389 0.0
H2303 H 0.31743 0.80455 0.93183 0.0
H2304 H 0.449 0.92338 0.93617 0.0
H2305 H 0.37131 0.88148 0.9325 0.0
H2306 H 0.33961 0.84629 0.9587 0.0
H2307 H 0.4161 0.88846 0.96233 0.0
C2308 C 0.22639 0.7887 0.94749 0.0
C2309 C 0.21685 0.75872 0.9409 0.0
C2310 C 0.26878 0.82375 0.94856 0.0
C2311 C 0.30265 0.82943 0.94311 0.0
C2312 C 0.29226 0.80139 0.93614 0.0
C2313 C 0.24981 0.76652 0.93503 0.0
C2314 C 0.42521 0.90737 0.94114 0.0
C2315 C 0.43871 0.90888 0.94953 0.0
C2316 C 0.38077 0.88317 0.93904 0.0
C2317 C 0.3491 0.86037 0.9453 0.0
C2318 C 0.36277 0.86386 0.95372 0.0
C2319 C 0.40689 0.88776 0.9558 0.0
H2320 H 0.20109 0.59162 0.95926 0.0
H2321 H 0.14915 0.56082 0.93395 0.0
H2322 H 0.23805 0.55054 0.95705 0.0
H2323 H 0.18643 0.51889 0.93174 0.0
H2324 H 0.32073 0.5181 0.92963 0.0
H2325 H 0.2647 0.53867 0.93051 0.0
H2326 H 0.22548 0.47644 0.95488 0.0
H2327 H 0.28211 0.45662 0.9541 0.0
C2328 C 0.19726 0.57573 0.95323 0.0
C2329 C 0.17248 0.57974 0.94676 0.0
C2330 C 0.21807 0.55167 0.952 0.0
C2331 C 0.21483 0.53112 0.94425 0.0
C2332 C 0.18944 0.53441 0.93778 0.0
C2333 C 0.16814 0.55832 0.93905 0.0
C2334 C 0.29955 0.50796 0.9351 0.0
C2335 C 0.30657 0.48671 0.9419 0.0
C2336 C 0.26721 0.5195 0.93557 0.0
C2337 C 0.24131 0.50991 0.94283 0.0
C2338 C 0.24562 0.48503 0.94927 0.0
C2339 C 0.27795 0.47353 0.94881 0.0
H2340 H 0.63324 0.46262 0.52307 0.0
H2341 H 0.62042 0.50124 0.54828 0.0
H2342 H 0.71124 0.49587 0.52497 0.0
H2343 H 0.69971 0.53576 0.55015 0.0
H2344 H 0.82939 0.53 0.55283 0.0
H2345 H 0.75346 0.51179 0.55168 0.0
H2346 H 0.77797 0.5642 0.5264 0.0
H2347 H 0.85354 0.58126 0.52745 0.0
C2348 C 0.64717 0.47872 0.52901 0.0
C2349 C 0.62052 0.47906 0.53554 0.0
C2350 C 0.69213 0.49824 0.53007 0.0
C2351 C 0.71189 0.51874 0.5377 0.0
C2352 C 0.68543 0.52 0.54421 0.0
C2353 C 0.64012 0.50046 0.54313 0.0
C2354 C 0.81874 0.53816 0.54706 0.0
C2355 C 0.84734 0.55639 0.54018 0.0
C2356 C 0.77522 0.52799 0.54643 0.0
C2357 C 0.75944 0.53598 0.5389 0.0
C2358 C 0.78884 0.55676 0.53222 0.0
C2359 C 0.83223 0.56671 0.53284 0.0
H2360 H 0.59026 0.19364 0.5261 0.0
H2361 H 0.56105 0.14573 0.5517 0.0
H2362 H 0.55268 0.23411 0.52827 0.0
H2363 H 0.52248 0.18647 0.55387 0.0
H2364 H 0.52503 0.32187 0.55575 0.0
H2365 H 0.54445 0.26499 0.55483 0.0
H2366 H 0.48101 0.22607 0.53057 0.0
H2367 H 0.46245 0.2836 0.53138 0.0
C2368 C 0.57543 0.19143 0.53219 0.0
C2369 C 0.57891 0.16673 0.53875 0.0
C2370 C 0.55338 0.2143 0.5334 0.0
C2371 C 0.53428 0.21327 0.54122 0.0
C2372 C 0.53697 0.18792 0.54778 0.0
C2373 C 0.5589 0.16456 0.54653 0.0
C2374 C 0.51452 0.30069 0.55028 0.0
C2375 C 0.49303 0.30787 0.54355 0.0
C2376 C 0.5254 0.26786 0.54979 0.0
C2377 C 0.51491 0.24154 0.54256 0.0
C2378 C 0.49031 0.24646 0.53614 0.0
C2379 C 0.47954 0.27933 0.53662 0.0
H2380 H 0.9223 0.44035 0.54935 0.0
H2381 H 0.88268 0.41055 0.52331 0.0
H2382 H 0.88023 0.3623 0.55275 0.0
H2383 H 0.8404 0.33377 0.52667 0.0
H2384 H 0.77908 0.19515 0.53262 0.0
H2385 H 0.84037 0.26903 0.53087 0.0
H2386 H 0.80307 0.30869 0.5537 0.0
H2387 H 0.74286 0.23465 0.55561 0.0
C2388 C 0.90516 0.41717 0.54435 0.0
C2389 C 0.90547 0.43163 0.53608 0.0
C2390 C 0.88091 0.37254 0.54629 0.0
C2391 C 0.85687 0.34168 0.53998 0.0
C2392 C 0.85899 0.35631 0.53167 0.0
C2393 C 0.88294 0.40059 0.52975 0.0
C2394 C 0.78455 0.2194 0.53737 0.0
C2395 C 0.75556 0.20922 0.54416 0.0
C2396 C 0.81956 0.26182 0.53634 0.0
C2397 C 0.82615 0.29506 0.54205 0.0
C2398 C 0.79915 0.28398 0.5492 0.0
C2399 C 0.76432 0.24149 0.55025 0.0
H2400 H 0.20945 0.57447 0.38675 0.0
H2401 H 0.13685 0.53302 0.36342 0.0
H2402 H 0.21811 0.64663 0.38504 0.0
H2403 H 0.14426 0.6049 0.36186 0.0
H2404 H 0.23578 0.74983 0.35516 0.0
H2405 H 0.20663 0.67313 0.3581 0.0
H2406 H 0.18796 0.69481 0.38422 0.0
H2407 H 0.2185 0.77268 0.38128 0.0
C2408 C 0.19445 0.58043 0.38135 0.0
C2409 C 0.17328 0.54832 0.37512 0.0
C2410 C 0.19912 0.62179 0.38041 0.0
C2411 C 0.18245 0.63177 0.37324 0.0
C2412 C 0.15832 0.59853 0.36736 0.0
C2413 C 0.15393 0.55728 0.36827 0.0
C2414 C 0.22503 0.73831 0.36152 0.0
C2415 C 0.2299 0.76743 0.36801 0.0
C2416 C 0.20782 0.69409 0.36319 0.0
C2417 C 0.1949 0.67771 0.3714 0.0
C2418 C 0.198 0.7065 0.37784 0.0
C2419 C 0.21527 0.751 0.37616 0.0
H2420 H 0.5467 0.65692 0.36344 0.0
H2421 H 0.51557 0.67695 0.3888 0.0
H2422 H 0.47217 0.59702 0.36162 0.0
H2423 H 0.44074 0.61788 0.3869 0.0
H2424 H 0.31153 0.49249 0.38225 0.0
H2425 H 0.3899 0.54018 0.38475 0.0
H2426 H 0.40396 0.59512 0.35984 0.0
H2427 H 0.32681 0.54741 0.35731 0.0
C2428 C 0.5241 0.64829 0.36866 0.0
C2429 C 0.53697 0.6721 0.37622 0.0
C2430 C 0.48128 0.61409 0.3676 0.0
C2431 C 0.45025 0.60303 0.37408 0.0
C2432 C 0.46379 0.6253 0.38181 0.0
C2433 C 0.5067 0.65941 0.38287 0.0
C2434 C 0.33158 0.51446 0.3773 0.0
C2435 C 0.31289 0.51622 0.36959 0.0
C2436 C 0.37638 0.5419 0.37874 0.0
C2437 C 0.40331 0.57138 0.37248 0.0
C2438 C 0.38452 0.57232 0.36475 0.0
C2439 C 0.34002 0.54514 0.36332 0.0
H2440 H 0.42891 0.92622 0.36116 0.0
H2441 H 0.39942 0.86796 0.38596 0.0
H2442 H 0.49217 0.91623 0.36034 0.0
H2443 H 0.4617 0.85674 0.38504 0.0
H2444 H 0.59146 0.86054 0.383 0.0
H2445 H 0.53979 0.88712 0.38452 0.0
H2446 H 0.50226 0.85528 0.35842 0.0
H2447 H 0.55409 0.83015 0.35687 0.0
C2448 C 0.43605 0.91155 0.36646 0.0
C2449 C 0.40875 0.89749 0.37358 0.0
C2450 C 0.47223 0.90558 0.36598 0.0
C2451 C 0.48189 0.88517 0.37258 0.0
C2452 C 0.45565 0.87291 0.37986 0.0
C2453 C 0.41961 0.87906 0.38035 0.0
C2454 C 0.5726 0.85991 0.37757 0.0
C2455 C 0.57679 0.843 0.36983 0.0
C2456 C 0.54276 0.87484 0.37845 0.0
C2457 C 0.51668 0.87334 0.3716 0.0
C2458 C 0.52211 0.85769 0.36381 0.0
C2459 C 0.55171 0.84282 0.36294 0.0
H2460 H 0.10825 0.89418 0.76732 0.0
H2461 H 0.08196 0.91468 0.79302 0.0
H2462 H 0.02959 0.85499 0.76438 0.0
H2463 H 0.00445 0.8765 0.7901 0.0
H2464 H 0.86584 0.78818 0.78535 0.0
H2465 H 0.94153 0.80598 0.78679 0.0
H2466 H 0.97314 0.87637 0.76321 0.0
H2467 H 0.89731 0.8577 0.76165 0.0
C2468 C 0.08573 0.88992 0.77235 0.0
C2469 C 0.10127 0.90778 0.78038 0.0
C2470 C 0.04079 0.86764 0.77067 0.0
C2471 C 0.01076 0.86244 0.77702 0.0
C2472 C 0.02651 0.87916 0.7851 0.0
C2473 C 0.07112 0.90155 0.78675 0.0
C2474 C 0.88869 0.80658 0.78037 0.0
C2475 C 0.87575 0.82232 0.77348 0.0
C2476 C 0.93211 0.81694 0.78122 0.0
C2477 C 0.9635 0.84334 0.7752 0.0
C2478 C 0.94979 0.85594 0.76795 0.0
C2479 C 0.90632 0.84547 0.7671 0.0
H2480 H 0.27295 0.11366 0.78615 0.0
H2481 H 0.19577 0.07413 0.76335 0.0
H2482 H 0.26039 0.17504 0.78759 0.0
H2483 H 0.18213 0.13461 0.76493 0.0
H2484 H 0.16999 0.25424 0.76875 0.0
H2485 H 0.20653 0.21251 0.76558 0.0
H2486 H 0.19467 0.17407 0.79174 0.0
H2487 H 0.15941 0.21588 0.79489 0.0
C2488 C 0.25387 0.11842 0.78137 0.0
C2489 C 0.23458 0.08848 0.77474 0.0
C2490 C 0.24653 0.15351 0.78221 0.0
C2491 C 0.21953 0.15924 0.77647 0.0
C2492 C 0.20319 0.13131 0.76946 0.0
C2493 C 0.21074 0.09636 0.76859 0.0
C2494 C 0.17606 0.23751 0.77383 0.0
C2495 C 0.16148 0.23797 0.78205 0.0
C2496 C 0.19675 0.21348 0.77201 0.0
C2497 C 0.20353 0.18991 0.77841 0.0
C2498 C 0.19071 0.1923 0.78668 0.0
C2499 C 0.16998 0.21597 0.78847 0.0
H2500 H 0.95688 0.1855 0.78851 0.0
H2501 H 0.9919 0.16135 0.7638 0.0
H2502 H 0.89912 0.10948 0.7894 0.0
H2503 H 0.93472 0.08499 0.76478 0.0
H2504 H 0.81234 0.95055 0.76782 0.0
H2505 H 0.85612 0.02989 0.76581 0.0
H2506 H 0.90351 0.04404 0.79138 0.0
H2507 H 0.85991 0.96593 0.79339 0.0
C2508 C 0.95196 0.16412 0.78322 0.0
C2509 C 0.97948 0.17935 0.77614 0.0
C2510 C 0.91894 0.12049 0.78374 0.0
C2511 C 0.91277 0.09099 0.77722 0.0
C2512 C 0.93845 0.10686 0.7699 0.0
C2513 C 0.97145 0.15061 0.76937 0.0
C2514 C 0.83174 0.97083 0.77302 0.0
C2515 C 0.8328 0.95196 0.78075 0.0
C2516 C 0.85693 0.01616 0.77187 0.0
C2517 C 0.88315 0.04333 0.77845 0.0
C2518 C 0.88315 0.0243 0.78622 0.0
C2519 C 0.85839 0.97931 0.78735 0.0
H2520 H 0.23771 0.97832 0.27824 0.0
H2521 H 0.11965 0.95183 0.26524 0.0
H2522 H 0.26757 0.0564 0.27598 0.0
H2523 H 0.14909 0.02956 0.26313 0.0
H2524 H 0.2135 0.17046 0.25761 0.0
H2525 H 0.20357 0.09729 0.25663 0.0
H2526 H 0.24905 0.10795 0.28227 0.0
H2527 H 0.25973 0.18129 0.2832 0.0
C2528 C 0.21846 0.98905 0.27476 0.0
C2529 C 0.17606 0.95891 0.27202 0.0
C2530 C 0.23549 0.03381 0.27351 0.0
C2531 C 0.21057 0.04926 0.26946 0.0
C2532 C 0.16938 0.01885 0.26622 0.0
C2533 C 0.15232 0.9742 0.26748 0.0
C2534 C 0.22216 0.15748 0.26298 0.0
C2535 C 0.23664 0.18131 0.27054 0.0
C2536 C 0.21635 0.11552 0.26242 0.0
C2537 C 0.22486 0.09652 0.26941 0.0
C2538 C 0.24245 0.12168 0.27675 0.0
C2539 C 0.24837 0.1637 0.2773 0.0
H2540 H 0.09758 0.23956 0.2674 0.0
H2541 H 0.07924 0.17786 0.29175 0.0
H2542 H 0.01822 0.20001 0.26528 0.0
H2543 H 1.00097 0.13863 0.28961 0.0
H2544 H 0.86179 0.09591 0.28742 0.0
H2545 H 0.93869 0.15097 0.28852 0.0
H2546 H 0.96028 0.12169 0.26313 0.0
H2547 H 0.88308 0.06702 0.26195 0.0
C2548 C 0.07667 0.21786 0.27231 0.0
C2549 C 0.09463 0.2117 0.27973 0.0
C2550 C 0.03137 0.19521 0.27108 0.0
C2551 C 0.0034 0.16656 0.27731 0.0
C2552 C 0.02153 0.1611 0.28476 0.0
C2553 C 0.06652 0.1833 0.28595 0.0
C2554 C 0.88268 0.1018 0.282 0.0
C2555 C 0.86651 0.07648 0.27466 0.0
C2556 C 0.92677 0.13323 0.28265 0.0
C2557 C 0.95562 0.14 0.27597 0.0
C2558 C 0.93882 0.11722 0.26838 0.0
C2559 C 0.89462 0.08573 0.26773 0.0
H2560 H 0.96198 0.84041 0.2596 0.0
H2561 H 0.94447 0.80694 0.28605 0.0
H2562 H 0.8965 0.84665 0.25979 0.0
H2563 H 0.87963 0.81423 0.28631 0.0
H2564 H 0.75277 0.81191 0.28422 0.0
H2565 H 0.80561 0.78802 0.28178 0.0
H2566 H 0.8796 0.89918 0.26553 0.0
H2567 H 0.82642 0.92242 0.26779 0.0
C2568 C 0.94391 0.83396 0.26544 0.0
C2569 C 0.95874 0.8237 0.27284 0.0
C2570 C 0.90646 0.83774 0.26556 0.0
C2571 C 0.88303 0.8315 0.27308 0.0
C2572 C 0.89657 0.81888 0.28037 0.0
C2573 C 0.93393 0.81489 0.28025 0.0
C2574 C 0.77983 0.83076 0.27998 0.0
C2575 C 0.78558 0.86936 0.27627 0.0
C2576 C 0.81031 0.81722 0.27864 0.0
C2577 C 0.8472 0.84193 0.27355 0.0
C2578 C 0.85145 0.87907 0.26943 0.0
C2579 C 0.82098 0.89257 0.27077 0.0
H2580 H 0.30802 0.80134 0.85708 0.0
H2581 H 0.29725 0.84291 0.88215 0.0
H2582 H 0.38558 0.83124 0.85906 0.0
H2583 H 0.37612 0.87409 0.8841 0.0
H2584 H 0.50303 0.86434 0.88716 0.0
H2585 H 0.4277 0.84781 0.88583 0.0
H2586 H 0.4539 0.89785 0.86036 0.0
H2587 H 0.52888 0.91322 0.86161 0.0
C2588 C 0.32231 0.81735 0.86301 0.0
C2589 C 0.29632 0.81955 0.86947 0.0
C2590 C 0.36705 0.83494 0.86411 0.0
C2591 C 0.38727 0.85536 0.87172 0.0
C2592 C 0.36149 0.85833 0.87817 0.0
C2593 C 0.31641 0.84069 0.87705 0.0
C2594 C 0.49288 0.87231 0.88131 0.0
C2595 C 0.52183 0.88951 0.87444 0.0
C2596 C 0.4497 0.86309 0.88057 0.0
C2597 C 0.43454 0.871 0.87295 0.0
C2598 C 0.46424 0.8905 0.86626 0.0
C2599 C 0.50732 0.89952 0.86698 0.0
H2600 H 0.19224 0.66065 0.88864 0.0
H2601 H 0.13237 0.62906 0.86397 0.0
H2602 H 0.20701 0.60071 0.88753 0.0
H2603 H 0.14604 0.56822 0.86297 0.0
H2604 H 0.24665 0.52389 0.85872 0.0
H2605 H 0.21356 0.56866 0.86079 0.0
H2606 H 0.18124 0.52255 0.88646 0.0
H2607 H 0.21554 0.47779 0.8844 0.0
C2608 C 0.18134 0.64032 0.88305 0.0
C2609 C 0.16193 0.65018 0.87631 0.0
C2610 C 0.18953 0.60569 0.88245 0.0
C2611 C 0.17832 0.58009 0.87511 0.0
C2612 C 0.15592 0.58795 0.86864 0.0
C2613 C 0.1479 0.62269 0.86923 0.0
C2614 C 0.23223 0.5229 0.8648 0.0
C2615 C 0.23405 0.49754 0.87142 0.0
C2616 C 0.21276 0.54829 0.86596 0.0
C2617 C 0.19452 0.54908 0.87377 0.0
C2618 C 0.19524 0.52281 0.88037 0.0
C2619 C 0.21471 0.4971 0.87919 0.0
H2620 H 0.40053 0.56633 0.88866 0.0
H2621 H 0.43024 0.52576 0.86507 0.0
H2622 H 0.46214 0.63954 0.88662 0.0
H2623 H 0.49281 0.59878 0.86315 0.0
H2624 H 0.54708 0.74365 0.85652 0.0
H2625 H 0.4989 0.66703 0.85952 0.0
H2626 H 0.54006 0.68887 0.88558 0.0
H2627 H 0.58801 0.76664 0.88258 0.0
C2628 C 0.42074 0.57276 0.88311 0.0
C2629 C 0.40998 0.54031 0.87695 0.0
C2630 C 0.45636 0.61478 0.88197 0.0
C2631 C 0.48221 0.62533 0.87467 0.0
C2632 C 0.47306 0.59206 0.86877 0.0
C2633 C 0.43731 0.55009 0.86989 0.0
C2634 C 0.54633 0.7322 0.86289 0.0
C2635 C 0.57116 0.76141 0.86933 0.0
C2636 C 0.51889 0.68798 0.86459 0.0
C2637 C 0.51547 0.67158 0.87279 0.0
C2638 C 0.54156 0.70049 0.8792 0.0
C2639 C 0.56924 0.74498 0.87748 0.0
H2640 H 0.86555 0.91416 0.72198 0.0
H2641 H 0.80301 0.87156 0.6977 0.0
H2642 H 0.87669 0.98671 0.7194 0.0
H2643 H 0.81294 0.94398 0.69522 0.0
H2644 H 0.90443 0.089 0.68863 0.0
H2645 H 0.87532 0.01256 0.6919 0.0
H2646 H 0.84839 0.03539 0.7174 0.0
H2647 H 0.87892 0.11295 0.71414 0.0
C2648 C 0.85329 0.91997 0.71616 0.0
C2649 C 0.83402 0.88716 0.70998 0.0
C2650 C 0.85943 0.96165 0.7147 0.0
C2651 C 0.84628 0.97153 0.70705 0.0
C2652 C 0.82434 0.93782 0.70112 0.0
C2653 C 0.81836 0.89616 0.70255 0.0
C2654 C 0.8919 0.0778 0.69492 0.0
C2655 C 0.89441 0.10725 0.70115 0.0
C2656 C 0.87474 0.03367 0.69678 0.0
C2657 C 0.85945 0.01759 0.70493 0.0
C2658 C 0.86033 0.04673 0.71109 0.0
C2659 C 0.87755 0.09112 0.70921 0.0
H2660 H 0.95507 0.85216 0.72081 0.0
H2661 H 0.98665 0.76256 0.70848 0.0
H2662 H 0.03222 0.90315 0.72295 0.0
H2663 H 0.06419 0.81354 0.71076 0.0
H2664 H 0.18462 0.94886 0.70286 0.0
H2665 H 0.1131 0.8836 0.7041 0.0
H2666 H 0.10105 0.92066 0.7295 0.0
H2667 H 0.17231 0.98643 0.72819 0.0
C2668 C 0.97846 0.84287 0.71874 0.0
C2669 C 0.96476 0.80363 0.71435 0.0
C2670 C 0.02277 0.87202 0.72002 0.0
C2671 C 0.05442 0.8626 0.71695 0.0
C2672 C 0.04059 0.82197 0.71309 0.0
C2673 C 0.99616 0.79267 0.71183 0.0
C2674 C 0.16715 0.94259 0.70877 0.0
C2675 C 0.18364 0.9732 0.71536 0.0
C2676 C 0.12621 0.90502 0.70951 0.0
C2677 C 0.1011 0.89725 0.71687 0.0
C2678 C 0.11923 0.92618 0.72369 0.0
C2679 C 0.16008 0.9638 0.72294 0.0
H2680 H 0.2366 0.17335 0.71619 0.0
H2681 H 0.17009 0.11358 0.69289 0.0
H2682 H 0.19473 0.21122 0.71725 0.0
H2683 H 0.12839 0.15064 0.694 0.0
H2684 H 0.08301 0.24665 0.69386 0.0
H2685 H 0.13725 0.22358 0.69324 0.0
H2686 H 0.11749 0.19092 0.71972 0.0
H2687 H 0.06382 0.21478 0.72041 0.0
C2688 C 0.21323 0.16842 0.71129 0.0
C2689 C 0.20658 0.14042 0.70447 0.0
C2690 C 0.18923 0.18998 0.71191 0.0
C2691 C 0.15854 0.18418 0.70567 0.0
C2692 C 0.15237 0.15649 0.69883 0.0
C2693 C 0.17603 0.13488 0.69824 0.0
C2694 C 0.09075 0.23527 0.69959 0.0
C2695 C 0.06866 0.23196 0.70715 0.0
C2696 C 0.12167 0.22185 0.69922 0.0
C2697 C 0.13113 0.20483 0.7064 0.0
C2698 C 0.11103 0.20405 0.71409 0.0
C2699 C 0.08008 0.21749 0.71446 0.0
H2700 H 0.78012 0.27024 0.09824 0.0
H2701 H 0.74416 0.14768 0.11046 0.0
H2702 H 0.70353 0.2472 0.09634 0.0
H2703 H 0.66717 0.12422 0.10841 0.0
H2704 H 0.55184 0.14529 0.11703 0.0
H2705 H 0.62197 0.14894 0.11544 0.0
H2706 H 0.63297 0.19802 0.09008 0.0
H2707 H 0.56308 0.19513 0.09173 0.0
C2708 C 0.75586 0.23788 0.10033 0.0
C2709 C 0.7682 0.2111 0.10464 0.0
C2710 C 0.71186 0.22451 0.09918 0.0
C2711 C 0.67923 0.18407 0.10232 0.0
C2712 C 0.6916 0.15586 0.10604 0.0
C2713 C 0.73571 0.1692 0.10717 0.0
C2714 C 0.56882 0.15608 0.11106 0.0
C2715 C 0.5524 0.17077 0.10457 0.0
C2716 C 0.60891 0.15788 0.11012 0.0
C2717 C 0.63327 0.17422 0.10265 0.0
C2718 C 0.61531 0.18599 0.09595 0.0
C2719 C 0.57528 0.1843 0.0969 0.0
H2720 H 0.9102 0.42835 0.12319 0.0
H2721 H 0.88412 0.42688 0.09655 0.0
H2722 H 0.89542 0.48806 0.12517 0.0
H2723 H 0.86839 0.48582 0.09856 0.0
H2724 H 0.86201 0.60889 0.10421 0.0
H2725 H 0.89334 0.56146 0.10222 0.0
H2726 H 0.82956 0.49178 0.12501 0.0
H2727 H 0.79942 0.53922 0.12708 0.0
C2728 C 0.90196 0.44116 0.11774 0.0
C2729 C 0.89785 0.42241 0.10973 0.0
C2730 C 0.89312 0.4752 0.11888 0.0
C2731 C 0.88001 0.49138 0.11205 0.0
C2732 C 0.87855 0.4744 0.10396 0.0
C2733 C 0.88733 0.44033 0.10282 0.0
C2734 C 0.85511 0.58368 0.10882 0.0
C2735 C 0.82815 0.57788 0.11579 0.0
C2736 C 0.8729 0.55639 0.10767 0.0
C2737 C 0.86418 0.52284 0.11347 0.0
C2738 C 0.83779 0.51772 0.12049 0.0
C2739 C 0.82013 0.54483 0.12164 0.0
H2740 H 0.66799 0.52348 0.09628 0.0
H2741 H 0.64409 0.54831 0.12186 0.0
H2742 H 0.61225 0.447 0.09781 0.0
H2743 H 0.58759 0.47202 0.12331 0.0
H2744 H 0.55339 0.3293 0.12676 0.0
H2745 H 0.59437 0.40748 0.12459 0.0
H2746 H 0.53524 0.39117 0.10004 0.0
H2747 H 0.49424 0.31194 0.10218 0.0
C2748 C 0.65018 0.51286 0.10217 0.0
C2749 C 0.66104 0.54181 0.10901 0.0
C2750 C 0.618 0.46902 0.10302 0.0
C2751 C 0.59598 0.45329 0.11073 0.0
C2752 C 0.60465 0.48298 0.11735 0.0
C2753 C 0.63688 0.52675 0.11651 0.0
C2754 C 0.54879 0.34223 0.12091 0.0
C2755 C 0.52074 0.31435 0.11462 0.0
C2756 C 0.57201 0.38722 0.1197 0.0
C2757 C 0.56789 0.40564 0.11216 0.0
C2758 C 0.53922 0.3779 0.1059 0.0
C2759 C 0.51568 0.33262 0.10714 0.0
H2760 H 0.8504 0.3057 0.60075 0.0
H2761 H 0.79222 0.31184 0.62431 0.0
H2762 H 0.88694 0.38544 0.59962 0.0
H2763 H 0.82798 0.39054 0.62314 0.0
H2764 H 0.92249 0.53232 0.62315 0.0
H2765 H 0.90083 0.45531 0.62369 0.0
H2766 H 0.86515 0.44156 0.59737 0.0
H2767 H 0.88759 0.5188 0.59676 0.0
C2768 C 0.84551 0.32401 0.60568 0.0
C2769 C 0.81839 0.30248 0.61261 0.0
C2770 C 0.86633 0.36955 0.60503 0.0
C2771 C 0.86066 0.39425 0.61133 0.0
C2772 C 0.83375 0.37257 0.61826 0.0
C2773 C 0.81287 0.32732 0.61888 0.0
C2774 C 0.91077 0.5131 0.61744 0.0
C2775 C 0.90615 0.53152 0.60995 0.0
C2776 C 0.89816 0.46894 0.61776 0.0
C2777 C 0.88065 0.44227 0.61061 0.0
C2778 C 0.87866 0.46129 0.60297 0.0
C2779 C 0.89129 0.50552 0.60265 0.0
H2780 H 0.76563 0.54882 0.63036 0.0
H2781 H 0.77898 0.59159 0.60448 0.0
H2782 H 0.68863 0.49862 0.62816 0.0
H2783 H 0.70075 0.54153 0.60229 0.0
H2784 H 0.5782 0.40214 0.59962 0.0
H2785 H 0.65202 0.46356 0.60118 0.0
H2786 H 0.61862 0.49067 0.62578 0.0
H2787 H 0.54508 0.42835 0.62433 0.0
C2788 C 0.75197 0.548 0.62421 0.0
C2789 C 0.77864 0.57409 0.61758 0.0
C2790 C 0.70751 0.51934 0.62296 0.0
C2791 C 0.68822 0.51587 0.61505 0.0
C2792 C 0.71459 0.54301 0.60845 0.0
C2793 C 0.75934 0.57193 0.60971 0.0
C2794 C 0.58641 0.42145 0.60534 0.0
C2795 C 0.5558 0.40988 0.6119 0.0
C2796 C 0.62878 0.45698 0.6062 0.0
C2797 C 0.64159 0.48194 0.61364 0.0
C2798 C 0.61022 0.47167 0.62003 0.0
C2799 C 0.56792 0.43603 0.61918 0.0
H2800 H 0.62717 0.11668 0.61597 0.0
H2801 H 0.66294 0.20022 0.59407 0.0
H2802 H 0.56378 0.12538 0.61813 0.0
H2803 H 0.60057 0.21005 0.59638 0.0
H2804 H 0.48084 0.21876 0.60164 0.0
H2805 H 0.523 0.18412 0.59747 0.0
H2806 H 0.56288 0.18847 0.62337 0.0
H2807 H 0.52045 0.22178 0.62751 0.0
C2808 C 0.62107 0.13621 0.61152 0.0
C2809 C 0.65065 0.1586 0.60497 0.0
C2810 C 0.58486 0.14138 0.61278 0.0
C2811 C 0.57768 0.16924 0.60755 0.0
C2812 C 0.60502 0.18831 0.60053 0.0
C2813 C 0.64106 0.18292 0.59924 0.0
C2814 C 0.49801 0.21151 0.60644 0.0
C2815 C 0.49774 0.22343 0.61488 0.0
C2816 C 0.52225 0.19183 0.60405 0.0
C2817 C 0.54637 0.18354 0.61008 0.0
C2818 C 0.5442 0.19364 0.61857 0.0
C2819 C 0.5202 0.21329 0.62094 0.0
H2820 H 0.94544 0.12507 0.21642 0.0
H2821 H 0.98337 0.23879 0.20087 0.0
H2822 H 0.0218 0.14705 0.21843 0.0
H2823 H 0.06 0.26124 0.20303 0.0
H2824 H 0.17728 0.23956 0.19754 0.0
H2825 H 0.10541 0.23286 0.19776 0.0
H2826 H 0.09247 0.19915 0.2242 0.0
H2827 H 0.1641 0.20505 0.22394 0.0
C2828 C 0.97008 0.15531 0.21358 0.0
C2829 C 0.95823 0.17984 0.20838 0.0
C2830 C 0.01398 0.16806 0.21477 0.0
C2831 C 0.04705 0.20566 0.2108 0.0
C2832 C 0.03527 0.23168 0.20605 0.0
C2833 C 0.99134 0.21895 0.20487 0.0
C2834 C 0.15938 0.23129 0.20343 0.0
C2835 C 0.17618 0.22226 0.21068 0.0
C2836 C 0.11825 0.22774 0.20357 0.0
C2837 C 0.09301 0.21517 0.21099 0.0
C2838 C 0.11077 0.20822 0.21835 0.0
C2839 C 0.15189 0.21174 0.2182 0.0
H2840 H 0.80808 0.95569 0.19488 0.0
H2841 H 0.85241 0.9764 0.22074 0.0
H2842 H 0.82359 0.89618 0.1937 0.0
H2843 H 0.86906 0.91768 0.21948 0.0
H2844 H 0.87662 0.79369 0.2156 0.0
H2845 H 0.84374 0.83992 0.21743 0.0
H2846 H 0.8914 0.89633 0.19284 0.0
H2847 H 0.92304 0.85017 0.19097 0.0
C2848 C 0.82071 0.94728 0.20034 0.0
C2849 C 0.8296 0.97124 0.20786 0.0
C2850 C 0.8298 0.91328 0.19966 0.0
C2851 C 0.84824 0.90261 0.20646 0.0
C2852 C 0.85468 0.92486 0.21414 0.0
C2853 C 0.84539 0.95876 0.21483 0.0
C2854 C 0.87951 0.81564 0.21057 0.0
C2855 C 0.90254 0.81834 0.20316 0.0
C2856 C 0.8609 0.84223 0.21162 0.0
C2857 C 0.86473 0.87169 0.20526 0.0
C2858 C 0.88701 0.8735 0.1978 0.0
C2859 C 0.9056 0.84723 0.19677 0.0
H2860 H 0.05897 0.87782 0.22256 0.0
H2861 H 0.09343 0.84746 0.19836 0.0
H2862 H 0.11704 0.9534 0.2211 0.0
H2863 H 0.15227 0.92286 0.19701 0.0
H2864 H 0.19017 0.06537 0.19159 0.0
H2865 H 0.14796 0.9877 0.19421 0.0
H2866 H 0.19505 0.00841 0.21988 0.0
H2867 H 0.23737 0.08731 0.21725 0.0
C2868 C 0.07957 0.88701 0.21701 0.0
C2869 C 0.07098 0.85679 0.21049 0.0
C2870 C 0.11311 0.93035 0.21621 0.0
C2871 C 0.13883 0.94436 0.20887 0.0
C2872 C 0.1324 0.91329 0.20266 0.0
C2873 C 0.09881 0.87 0.20345 0.0
C2874 C 0.19195 0.05353 0.19779 0.0
C2875 C 0.21692 0.0826 0.20423 0.0
C2876 C 0.16802 0.00878 0.19927 0.0
C2877 C 0.16827 0.9917 0.20724 0.0
C2878 C 0.19406 0.02061 0.21367 0.0
C2879 C 0.21839 0.06569 0.21217 0.0
loop_
_geom_bond_atom_site_label_1
_geom_bond_atom_site_label_2
_geom_bond_distance
_geom_bond_site_symmetry_2
_ccdc_geom_bond_type
Zn0 O6 1.969 . S
Zn0 O7 1.965 1_565 S
Zn0 O11 2.024 . S
Zn0 O16 1.969 . S
Zn1 O8 1.969 . S
Zn1 O14 1.969 . S
Zn1 O15 1.965 . S
Zn1 O17 2.024 . S
C2 O3 1.229 . S
C2 O11 1.058 . S
O3 C2 1.229 . S
C4 O5 1.229 . S
C4 O17 1.058 . S
O5 C4 1.229 . S
O6 Zn0 1.969 . S
O6 C9 1.267 . S
O7 Zn0 1.965 1_545 S
O7 C18 1.260 . S
O8 Zn1 1.969 . S
O8 C18 1.258 . S
C9 O6 1.267 . S
C9 O10 1.228 . S
O10 C9 1.228 . S
O11 Zn0 2.024 . S
O11 C2 1.058 . S
C12 O13 1.228 . S
C12 O14 1.267 . S
O13 C12 1.228 . S
O14 Zn1 1.969 . S
O14 C12 1.267 . S
O15 Zn1 1.965 . S
O15 C19 1.260 . S
O16 Zn0 1.969 . S
O16 C19 1.258 1_565 S
O17 Zn1 2.024 . S
O17 C4 1.058 . S
C18 O7 1.260 . S
C18 O8 1.258 . S
C19 O15 1.260 . S
C19 O16 1.258 1_545 S
Zn20 O26 1.969 . S
Zn20 O27 1.965 . S
Zn20 O31 2.024 . S
Zn20 O36 1.969 . S
Zn21 O28 1.969 . S
Zn21 O34 1.969 . S
Zn21 O35 1.965 . S
Zn21 O37 2.024 . S
C22 O23 1.229 . S
C22 O31 1.058 . S
O23 C22 1.229 . S
C24 O25 1.229 . S
C24 O37 1.058 . S
O25 C24 1.229 . S
O26 Zn20 1.969 . S
O26 C29 1.267 . S
O27 Zn20 1.965 . S
O27 C38 1.260 . S
O28 Zn21 1.969 . S
O28 C38 1.258 1_655 S
C29 O26 1.267 . S
C29 O30 1.228 . S
O30 C29 1.228 . S
O31 Zn20 2.024 . S
O31 C22 1.058 . S
C32 O33 1.228 . S
C32 O34 1.267 . S
O33 C32 1.228 . S
O34 Zn21 1.969 . S
O34 C32 1.267 . S
O35 Zn21 1.965 . S
O35 C39 1.260 1_655 S
O36 Zn20 1.969 . S
O36 C39 1.258 . S
O37 Zn21 2.024 . S
O37 C24 1.058 . S
C38 O27 1.260 . S
C38 O28 1.258 1_455 S
C39 O35 1.260 1_455 S
C39 O36 1.258 . S
Zn40 O46 1.969 . S
Zn40 O47 1.965 . S
Zn40 O51 2.024 . S
Zn40 O56 1.969 . S
Zn41 O48 1.969 . S
Zn41 O54 1.969 . S
Zn41 O55 1.965 . S
Zn41 O57 2.024 . S
C42 O43 1.229 . S
C42 O51 1.058 . S
O43 C42 1.229 . S
C44 O45 1.229 . S
C44 O57 1.058 . S
O45 C44 1.229 . S
O46 Zn40 1.969 . S
O46 C49 1.267 . S
O47 Zn40 1.965 . S
O47 C58 1.260 . S
O48 Zn41 1.969 . S
O48 C58 1.258 . S
C49 O46 1.267 . S
C49 O50 1.228 . S
O50 C49 1.228 . S
O51 Zn40 2.024 . S
O51 C42 1.058 . S
C52 O53 1.228 . S
C52 O54 1.267 . S
O53 C52 1.228 . S
O54 Zn41 1.969 . S
O54 C52 1.267 . S
O55 Zn41 1.965 . S
O55 C59 1.260 . S
O56 Zn40 1.969 . S
O56 C59 1.258 . S
O57 Zn41 2.024 . S
O57 C44 1.058 . S
C58 O47 1.260 . S
C58 O48 1.258 . S
C59 O55 1.260 . S
C59 O56 1.258 . S
Zn60 O66 1.969 . S
Zn60 O67 1.965 1_655 S
Zn60 O71 2.024 . S
Zn60 O76 1.969 . S
Zn61 O68 1.969 . S
Zn61 O74 1.969 . S
Zn61 O75 1.965 . S
Zn61 O77 2.024 . S
C62 O63 1.229 . S
C62 O71 1.058 . S
O63 C62 1.229 . S
C64 O65 1.229 . S
C64 O77 1.058 . S
O65 C64 1.229 . S
O66 Zn60 1.969 . S
O66 C69 1.267 . S
O67 Zn60 1.965 1_455 S
O67 C78 1.260 . S
O68 Zn61 1.969 . S
O68 C78 1.258 . S
C69 O66 1.267 . S
C69 O70 1.228 . S
O70 C69 1.228 . S
O71 Zn60 2.024 . S
O71 C62 1.058 . S
C72 O73 1.228 . S
C72 O74 1.267 . S
O73 C72 1.228 . S
O74 Zn61 1.969 . S
O74 C72 1.267 . S
O75 Zn61 1.965 . S
O75 C79 1.260 . S
O76 Zn60 1.969 . S
O76 C79 1.258 1_655 S
O77 Zn61 2.024 . S
O77 C64 1.058 . S
C78 O67 1.260 . S
C78 O68 1.258 . S
C79 O75 1.260 . S
C79 O76 1.258 1_455 S
Zn80 O86 1.969 . S
Zn80 O87 1.965 . S
Zn80 O91 2.024 . S
Zn80 O96 1.969 . S
Zn81 O88 1.969 . S
Zn81 O94 1.969 . S
Zn81 O95 1.965 . S
Zn81 O97 2.024 . S
C82 O83 1.229 . S
C82 O91 1.058 . S
O83 C82 1.229 . S
C84 O85 1.229 . S
C84 O97 1.058 . S
O85 C84 1.229 . S
O86 Zn80 1.969 . S
O86 C89 1.267 . S
O87 Zn80 1.965 . S
O87 C98 1.260 . S
O88 Zn81 1.969 . S
O88 C98 1.258 . S
C89 O86 1.267 . S
C89 O90 1.228 . S
O90 C89 1.228 . S
O91 Zn80 2.024 . S
O91 C82 1.058 . S
C92 O93 1.228 . S
C92 O94 1.267 . S
O93 C92 1.228 . S
O94 Zn81 1.969 . S
O94 C92 1.267 . S
O95 Zn81 1.965 . S
O95 C99 1.260 . S
O96 Zn80 1.969 . S
O96 C99 1.258 . S
O97 Zn81 2.024 . S
O97 C84 1.058 . S
C98 O87 1.260 . S
C98 O88 1.258 . S
C99 O95 1.260 . S
C99 O96 1.258 . S
Zn100 O106 1.969 . S
Zn100 O107 1.965 . S
Zn100 O111 2.024 . S
Zn100 O116 1.969 . S
Zn101 O108 1.969 . S
Zn101 O114 1.969 . S
Zn101 O115 1.965 . S
Zn101 O117 2.024 . S
C102 O103 1.229 . S
C102 O111 1.058 . S
O103 C102 1.229 . S
C104 O105 1.229 . S
C104 O117 1.058 . S
O105 C104 1.229 . S
O106 Zn100 1.969 . S
O106 C109 1.267 . S
O107 Zn100 1.965 . S
O107 C118 1.260 . S
O108 Zn101 1.969 . S
O108 C118 1.258 1_565 S
C109 O106 1.267 . S
C109 O110 1.228 . S
O110 C109 1.228 . S
O111 Zn100 2.024 . S
O111 C102 1.058 . S
C112 O113 1.228 . S
C112 O114 1.267 . S
O113 C112 1.228 . S
O114 Zn101 1.969 . S
O114 C112 1.267 . S
O115 Zn101 1.965 . S
O115 C119 1.260 1_565 S
O116 Zn100 1.969 . S
O116 C119 1.258 . S
O117 Zn101 2.024 . S
O117 C104 1.058 . S
C118 O107 1.260 . S
C118 O108 1.258 1_545 S
C119 O115 1.260 1_545 S
C119 O116 1.258 . S
Zn120 O126 1.969 . S
Zn120 O127 1.965 . S
Zn120 O131 2.024 . S
Zn120 O136 1.969 . S
Zn121 O128 1.969 . S
Zn121 O134 1.969 . S
Zn121 O135 1.965 . S
Zn121 O137 2.024 . S
C122 O123 1.229 . S
C122 O131 1.058 . S
O123 C122 1.229 . S
C124 O125 1.229 . S
C124 O137 1.058 . S
O125 C124 1.229 . S
O126 Zn120 1.969 . S
O126 C129 1.267 . S
O127 Zn120 1.965 . S
O127 C138 1.260 1_565 S
O128 Zn121 1.969 . S
O128 C138 1.258 . S
C129 O126 1.267 . S
C129 O130 1.228 . S
O130 C129 1.228 . S
O131 Zn120 2.024 . S
O131 C122 1.058 . S
C132 O133 1.228 . S
C132 O134 1.267 . S
O133 C132 1.228 . S
O134 Zn121 1.969 . S
O134 C132 1.267 . S
O135 Zn121 1.965 . S
O135 C139 1.260 . S
O136 Zn120 1.969 . S
O136 C139 1.258 1_565 S
O137 Zn121 2.024 . S
O137 C124 1.058 . S
C138 O127 1.260 1_545 S
C138 O128 1.258 . S
C139 O135 1.260 . S
C139 O136 1.258 1_545 S
Zn140 O146 1.969 . S
Zn140 O147 1.965 . S
Zn140 O151 2.024 . S
Zn140 O156 1.969 . S
Zn141 O148 1.969 . S
Zn141 O154 1.969 . S
Zn141 O155 1.965 1_655 S
Zn141 O157 2.024 . S
C142 O143 1.229 . S
C142 O151 1.058 . S
O143 C142 1.229 . S
C144 O145 1.229 . S
C144 O157 1.058 . S
O145 C144 1.229 . S
O146 Zn140 1.969 . S
O146 C149 1.267 . S
O147 Zn140 1.965 . S
O147 C158 1.260 . S
O148 Zn141 1.969 . S
O148 C158 1.258 1_655 S
C149 O146 1.267 . S
C149 O150 1.228 . S
O150 C149 1.228 . S
O151 Zn140 2.024 . S
O151 C142 1.058 . S
C152 O153 1.228 . S
C152 O154 1.267 . S
O153 C152 1.228 . S
O154 Zn141 1.969 . S
O154 C152 1.267 . S
O155 Zn141 1.965 1_455 S
O155 C159 1.260 . S
O156 Zn140 1.969 . S
O156 C159 1.258 . S
O157 Zn141 2.024 . S
O157 C144 1.058 . S
C158 O147 1.260 . S
C158 O148 1.258 1_455 S
C159 O155 1.260 . S
C159 O156 1.258 . S
Zn160 O166 1.969 . S
Zn160 O167 1.965 . S
Zn160 O171 2.024 . S
Zn160 O176 1.969 . S
Zn161 O168 1.969 . S
Zn161 O174 1.969 . S
Zn161 O175 1.965 . S
Zn161 O177 2.024 . S
C162 O163 1.229 . S
C162 O171 1.058 . S
O163 C162 1.229 . S
C164 O165 1.229 . S
C164 O177 1.058 . S
O165 C164 1.229 . S
O166 Zn160 1.969 . S
O166 C169 1.267 . S
O167 Zn160 1.965 . S
O167 C178 1.260 . S
O168 Zn161 1.969 . S
O168 C178 1.258 . S
C169 O166 1.267 . S
C169 O170 1.228 . S
O170 C169 1.228 . S
O171 Zn160 2.024 . S
O171 C162 1.058 . S
C172 O173 1.228 . S
C172 O174 1.267 . S
O173 C172 1.228 . S
O174 Zn161 1.969 . S
O174 C172 1.267 . S
O175 Zn161 1.965 . S
O175 C179 1.260 . S
O176 Zn160 1.969 . S
O176 C179 1.258 . S
O177 Zn161 2.024 . S
O177 C164 1.058 . S
C178 O167 1.260 . S
C178 O168 1.258 . S
C179 O175 1.260 . S
C179 O176 1.258 . S
Zn180 O186 1.969 . S
Zn180 O187 1.965 . S
Zn180 O191 2.024 . S
Zn180 O196 1.969 . S
Zn181 O188 1.969 . S
Zn181 O194 1.969 . S
Zn181 O195 1.965 . S
Zn181 O197 2.024 . S
C182 O183 1.229 . S
C182 O191 1.058 . S
O183 C182 1.229 . S
C184 O185 1.229 . S
C184 O197 1.058 . S
O185 C184 1.229 . S
O186 Zn180 1.969 . S
O186 C189 1.267 . S
O187 Zn180 1.965 . S
O187 C198 1.260 1_655 S
O188 Zn181 1.969 . S
O188 C198 1.258 . S
C189 O186 1.267 . S
C189 O190 1.228 . S
O190 C189 1.228 . S
O191 Zn180 2.024 . S
O191 C182 1.058 . S
C192 O193 1.228 . S
C192 O194 1.267 . S
O193 C192 1.228 . S
O194 Zn181 1.969 . S
O194 C192 1.267 . S
O195 Zn181 1.965 . S
O195 C199 1.260 . S
O196 Zn180 1.969 . S
O196 C199 1.258 1_655 S
O197 Zn181 2.024 . S
O197 C184 1.058 . S
C198 O187 1.260 1_455 S
C198 O188 1.258 . S
C199 O195 1.260 . S
C199 O196 1.258 1_455 S
Zn200 O206 1.969 . S
Zn200 O207 1.965 . S
Zn200 O211 2.024 . S
Zn200 O216 1.969 . S
Zn201 O208 1.969 . S
Zn201 O214 1.969 . S
Zn201 O215 1.965 . S
Zn201 O217 2.024 . S
C202 O203 1.229 . S
C202 O211 1.058 . S
O203 C202 1.229 . S
C204 O205 1.229 . S
C204 O217 1.058 . S
O205 C204 1.229 . S
O206 Zn200 1.969 . S
O206 C209 1.267 . S
O207 Zn200 1.965 . S
O207 C218 1.260 . S
O208 Zn201 1.969 . S
O208 C218 1.258 . S
C209 O206 1.267 . S
C209 O210 1.228 . S
O210 C209 1.228 . S
O211 Zn200 2.024 . S
O211 C202 1.058 . S
C212 O213 1.228 . S
C212 O214 1.267 . S
O213 C212 1.228 . S
O214 Zn201 1.969 . S
O214 C212 1.267 . S
O215 Zn201 1.965 . S
O215 C219 1.260 . S
O216 Zn200 1.969 . S
O216 C219 1.258 . S
O217 Zn201 2.024 . S
O217 C204 1.058 . S
C218 O207 1.260 . S
C218 O208 1.258 . S
C219 O215 1.260 . S
C219 O216 1.258 . S
Zn220 O226 1.969 . S
Zn220 O227 1.965 . S
Zn220 O231 2.024 . S
Zn220 O236 1.969 . S
Zn221 O228 1.969 . S
Zn221 O234 1.969 . S
Zn221 O235 1.965 1_565 S
Zn221 O237 2.024 . S
C222 O223 1.229 . S
C222 O231 1.058 . S
O223 C222 1.229 . S
C224 O225 1.229 . S
C224 O237 1.058 . S
O225 C224 1.229 . S
O226 Zn220 1.969 . S
O226 C229 1.267 . S
O227 Zn220 1.965 . S
O227 C238 1.260 . S
O228 Zn221 1.969 . S
O228 C238 1.258 1_565 S
C229 O226 1.267 . S
C229 O230 1.228 . S
O230 C229 1.228 . S
O231 Zn220 2.024 . S
O231 C222 1.058 . S
C232 O233 1.228 . S
C232 O234 1.267 . S
O233 C232 1.228 . S
O234 Zn221 1.969 . S
O234 C232 1.267 . S
O235 Zn221 1.965 1_545 S
O235 C239 1.260 . S
O236 Zn220 1.969 . S
O236 C239 1.258 . S
O237 Zn221 2.024 . S
O237 C224 1.058 . S
C238 O227 1.260 . S
C238 O228 1.258 1_545 S
C239 O235 1.260 . S
C239 O236 1.258 . S
Zn240 O246 1.969 . S
Zn240 O247 1.965 . S
Zn240 O251 2.024 . S
Zn240 O256 1.969 . S
Zn241 O248 1.969 . S
Zn241 O254 1.969 . S
Zn241 O255 1.965 . S
Zn241 O257 2.024 . S
C242 O243 1.229 . S
C242 O251 1.058 . S
O243 C242 1.229 . S
C244 O245 1.229 . S
C244 O257 1.058 . S
O245 C244 1.229 . S
O246 Zn240 1.969 . S
O246 C249 1.267 . S
O247 Zn240 1.965 . S
O247 C258 1.260 . S
O248 Zn241 1.969 . S
O248 C258 1.258 . S
C249 O246 1.267 . S
C249 O250 1.228 . S
O250 C249 1.228 . S
O251 Zn240 2.024 . S
O251 C242 1.058 . S
C252 O253 1.228 . S
C252 O254 1.267 . S
O253 C252 1.228 . S
O254 Zn241 1.969 . S
O254 C252 1.267 . S
O255 Zn241 1.965 . S
O255 C259 1.260 . S
O256 Zn240 1.969 . S
O256 C259 1.258 . S
O257 Zn241 2.024 . S
O257 C244 1.058 . S
C258 O247 1.260 . S
C258 O248 1.258 . S
C259 O255 1.260 . S
C259 O256 1.258 . S
Zn260 O266 1.969 . S
Zn260 O267 1.965 . S
Zn260 O271 2.024 . S
Zn260 O276 1.969 . S
Zn261 O268 1.969 . S
Zn261 O274 1.969 . S
Zn261 O275 1.965 . S
Zn261 O277 2.024 . S
C262 O263 1.229 . S
C262 O271 1.058 . S
O263 C262 1.229 . S
C264 O265 1.229 . S
C264 O277 1.058 . S
O265 C264 1.229 . S
O266 Zn260 1.969 . S
O266 C269 1.267 . S
O267 Zn260 1.965 . S
O267 C278 1.260 . S
O268 Zn261 1.969 . S
O268 C278 1.258 . S
C269 O266 1.267 . S
C269 O270 1.228 . S
O270 C269 1.228 . S
O271 Zn260 2.024 . S
O271 C262 1.058 . S
C272 O273 1.228 . S
C272 O274 1.267 . S
O273 C272 1.228 . S
O274 Zn261 1.969 . S
O274 C272 1.267 . S
O275 Zn261 1.965 . S
O275 C279 1.260 . S
O276 Zn260 1.969 . S
O276 C279 1.258 . S
O277 Zn261 2.024 . S
O277 C264 1.058 . S
C278 O267 1.260 . S
C278 O268 1.258 . S
C279 O275 1.260 . S
C279 O276 1.258 . S
Zn280 O286 1.969 . S
Zn280 O287 1.965 . S
Zn280 O291 2.024 . S
Zn280 O296 1.969 . S
Zn281 O288 1.969 . S
Zn281 O294 1.969 . S
Zn281 O295 1.965 . S
Zn281 O297 2.024 . S
C282 O283 1.229 . S
C282 O291 1.058 . S
O283 C282 1.229 . S
C284 O285 1.229 . S
C284 O297 1.058 . S
O285 C284 1.229 . S
O286 Zn280 1.969 . S
O286 C289 1.267 . S
O287 Zn280 1.965 . S
O287 C298 1.260 . S
O288 Zn281 1.969 . S
O288 C298 1.258 . S
C289 O286 1.267 . S
C289 O290 1.228 . S
O290 C289 1.228 . S
O291 Zn280 2.024 . S
O291 C282 1.058 . S
C292 O293 1.228 . S
C292 O294 1.267 . S
O293 C292 1.228 . S
O294 Zn281 1.969 . S
O294 C292 1.267 . S
O295 Zn281 1.965 . S
O295 C299 1.260 . S
O296 Zn280 1.969 . S
O296 C299 1.258 . S
O297 Zn281 2.024 . S
O297 C284 1.058 . S
C298 O287 1.260 . S
C298 O288 1.258 . S
C299 O295 1.260 . S
C299 O296 1.258 . S
Zn300 O306 1.969 . S
Zn300 O307 1.965 . S
Zn300 O311 2.024 . S
Zn300 O316 1.969 . S
Zn301 O308 1.969 . S
Zn301 O314 1.969 . S
Zn301 O315 1.965 . S
Zn301 O317 2.024 . S
C302 O303 1.229 . S
C302 O311 1.058 . S
O303 C302 1.229 . S
C304 O305 1.229 . S
C304 O317 1.058 . S
O305 C304 1.229 . S
O306 Zn300 1.969 . S
O306 C309 1.267 . S
O307 Zn300 1.965 . S
O307 C318 1.260 . S
O308 Zn301 1.969 . S
O308 C318 1.258 . S
C309 O306 1.267 . S
C309 O310 1.228 . S
O310 C309 1.228 . S
O311 Zn300 2.024 . S
O311 C302 1.058 . S
C312 O313 1.228 . S
C312 O314 1.267 . S
O313 C312 1.228 . S
O314 Zn301 1.969 . S
O314 C312 1.267 . S
O315 Zn301 1.965 . S
O315 C319 1.260 . S
O316 Zn300 1.969 . S
O316 C319 1.258 . S
O317 Zn301 2.024 . S
O317 C304 1.058 . S
C318 O307 1.260 . S
C318 O308 1.258 . S
C319 O315 1.260 . S
C319 O316 1.258 . S
Zn320 O326 1.969 . S
Zn320 O327 1.965 . S
Zn320 O331 2.024 . S
Zn320 O336 1.969 . S
Zn321 O328 1.969 . S
Zn321 O334 1.969 . S
Zn321 O335 1.965 . S
Zn321 O337 2.024 . S
C322 O323 1.229 . S
C322 O331 1.058 . S
O323 C322 1.229 . S
C324 O325 1.229 . S
C324 O337 1.058 . S
O325 C324 1.229 . S
O326 Zn320 1.969 . S
O326 C329 1.267 . S
O327 Zn320 1.965 . S
O327 C338 1.260 . S
O328 Zn321 1.969 . S
O328 C338 1.258 . S
C329 O326 1.267 . S
C329 O330 1.228 . S
O330 C329 1.228 . S
O331 Zn320 2.024 . S
O331 C322 1.058 . S
C332 O333 1.228 . S
C332 O334 1.267 1_545 S
O333 C332 1.228 . S
O334 Zn321 1.969 . S
O334 C332 1.267 1_565 S
O335 Zn321 1.965 . S
O335 C339 1.260 . S
O336 Zn320 1.969 . S
O336 C339 1.258 . S
O337 Zn321 2.024 . S
O337 C324 1.058 . S
C338 O327 1.260 . S
C338 O328 1.258 . S
C339 O335 1.260 . S
C339 O336 1.258 . S
Zn340 O346 1.969 . S
Zn340 O347 1.965 . S
Zn340 O351 2.024 . S
Zn340 O356 1.969 . S
Zn341 O348 1.969 . S
Zn341 O354 1.969 . S
Zn341 O355 1.965 . S
Zn341 O357 2.024 . S
C342 O343 1.229 . S
C342 O351 1.058 . S
O343 C342 1.229 . S
C344 O345 1.229 . S
C344 O357 1.058 . S
O345 C344 1.229 . S
O346 Zn340 1.969 . S
O346 C349 1.267 . S
O347 Zn340 1.965 . S
O347 C358 1.260 . S
O348 Zn341 1.969 . S
O348 C358 1.258 . S
C349 O346 1.267 . S
C349 O350 1.228 . S
O350 C349 1.228 . S
O351 Zn340 2.024 . S
O351 C342 1.058 . S
C352 O353 1.228 . S
C352 O354 1.267 . S
O353 C352 1.228 . S
O354 Zn341 1.969 . S
O354 C352 1.267 . S
O355 Zn341 1.965 . S
O355 C359 1.260 . S
O356 Zn340 1.969 . S
O356 C359 1.258 . S
O357 Zn341 2.024 . S
O357 C344 1.058 . S
C358 O347 1.260 . S
C358 O348 1.258 . S
C359 O355 1.260 . S
C359 O356 1.258 . S
Zn360 O366 1.969 . S
Zn360 O367 1.965 . S
Zn360 O371 2.024 . S
Zn360 O376 1.969 . S
Zn361 O368 1.969 . S
Zn361 O374 1.969 . S
Zn361 O375 1.965 . S
Zn361 O377 2.024 . S
C362 O363 1.229 . S
C362 O371 1.058 . S
O363 C362 1.229 . S
C364 O365 1.229 . S
C364 O377 1.058 . S
O365 C364 1.229 . S
O366 Zn360 1.969 . S
O366 C369 1.267 . S
O367 Zn360 1.965 . S
O367 C378 1.260 . S
O368 Zn361 1.969 . S
O368 C378 1.258 . S
C369 O366 1.267 . S
C369 O370 1.228 . S
O370 C369 1.228 . S
O371 Zn360 2.024 . S
O371 C362 1.058 . S
C372 O373 1.228 . S
C372 O374 1.267 . S
O373 C372 1.228 . S
O374 Zn361 1.969 . S
O374 C372 1.267 . S
O375 Zn361 1.965 . S
O375 C379 1.260 . S
O376 Zn360 1.969 . S
O376 C379 1.258 . S
O377 Zn361 2.024 . S
O377 C364 1.058 . S
C378 O367 1.260 . S
C378 O368 1.258 . S
C379 O375 1.260 . S
C379 O376 1.258 . S
Zn380 O386 1.969 . S
Zn380 O387 1.965 . S
Zn380 O391 2.024 . S
Zn380 O396 1.969 . S
Zn381 O388 1.969 . S
Zn381 O394 1.969 . S
Zn381 O395 1.965 . S
Zn381 O397 2.024 . S
C382 O383 1.229 . S
C382 O391 1.058 . S
O383 C382 1.229 . S
C384 O385 1.229 . S
C384 O397 1.058 . S
O385 C384 1.229 . S
O386 Zn380 1.969 . S
O386 C389 1.267 1_565 S
O387 Zn380 1.965 . S
O387 C398 1.260 . S
O388 Zn381 1.969 . S
O388 C398 1.258 . S
C389 O386 1.267 1_545 S
C389 O390 1.241 . S
O390 C389 1.241 . S
O391 Zn380 2.024 . S
O391 C382 1.058 . S
C392 O393 1.228 . S
C392 O394 1.267 . S
O393 C392 1.228 . S
O394 Zn381 1.969 . S
O394 C392 1.267 . S
O395 Zn381 1.965 . S
O395 C399 1.260 . S
O396 Zn380 1.969 . S
O396 C399 1.258 . S
O397 Zn381 2.024 . S
O397 C384 1.058 . S
C398 O387 1.260 . S
C398 O388 1.258 . S
C399 O395 1.260 . S
C399 O396 1.258 . S
Zn400 O406 1.969 . S
Zn400 O407 1.965 . S
Zn400 O411 2.024 . S
Zn400 O416 1.969 . S
Zn401 O408 1.969 . S
Zn401 O414 1.969 . S
Zn401 O415 1.965 . S
Zn401 O417 2.024 . S
C402 O403 1.229 . S
C402 O411 1.058 . S
O403 C402 1.229 . S
C404 O405 1.229 . S
C404 O417 1.058 . S
O405 C404 1.229 . S
O406 Zn400 1.969 . S
O406 C409 1.267 . S
O407 Zn400 1.965 . S
O407 C418 1.260 . S
O408 Zn401 1.969 . S
O408 C418 1.258 . S
C409 O406 1.267 . S
C409 O410 1.228 . S
O410 C409 1.228 . S
O411 Zn400 2.024 . S
O411 C402 1.058 . S
C412 O413 1.228 . S
C412 O414 1.267 . S
O413 C412 1.228 . S
O414 Zn401 1.969 . S
O414 C412 1.267 . S
O415 Zn401 1.965 . S
O415 C419 1.260 . S
O416 Zn400 1.969 . S
O416 C419 1.258 . S
O417 Zn401 2.024 . S
O417 C404 1.058 . S
C418 O407 1.260 . S
C418 O408 1.258 . S
C419 O415 1.260 . S
C419 O416 1.258 . S
Zn420 O426 1.969 . S
Zn420 O427 1.965 . S
Zn420 O431 2.024 . S
Zn420 O436 1.969 . S
Zn421 O428 1.969 . S
Zn421 O434 1.969 . S
Zn421 O435 1.965 . S
Zn421 O437 2.024 . S
C422 O423 1.229 . S
C422 O431 1.058 . S
O423 C422 1.229 . S
C424 O425 1.229 . S
C424 O437 1.058 . S
O425 C424 1.229 . S
O426 Zn420 1.969 . S
O426 C429 1.267 . S
O427 Zn420 1.965 . S
O427 C438 1.260 . S
O428 Zn421 1.969 . S
O428 C438 1.258 . S
C429 O426 1.267 . S
C429 O430 1.228 . S
O430 C429 1.228 . S
O431 Zn420 2.024 . S
O431 C422 1.058 . S
C432 O433 1.228 . S
C432 O434 1.267 . S
O433 C432 1.228 . S
O434 Zn421 1.969 . S
O434 C432 1.267 . S
O435 Zn421 1.965 . S
O435 C439 1.260 . S
O436 Zn420 1.969 . S
O436 C439 1.258 . S
O437 Zn421 2.024 . S
O437 C424 1.058 . S
C438 O427 1.260 . S
C438 O428 1.258 . S
C439 O435 1.260 . S
C439 O436 1.258 . S
Zn440 O446 1.969 . S
Zn440 O447 1.965 . S
Zn440 O451 2.024 . S
Zn440 O456 1.969 . S
Zn441 O448 1.969 . S
Zn441 O454 1.969 . S
Zn441 O455 1.965 . S
Zn441 O457 2.024 . S
C442 O443 1.229 . S
C442 O451 1.058 . S
O443 C442 1.229 . S
C444 O445 1.229 . S
C444 O457 1.058 . S
O445 C444 1.229 . S
O446 Zn440 1.969 . S
O446 C449 1.267 . S
O447 Zn440 1.965 . S
O447 C458 1.260 . S
O448 Zn441 1.969 . S
O448 C458 1.258 . S
C449 O446 1.267 . S
C449 O450 1.228 . S
O450 C449 1.228 . S
O451 Zn440 2.024 . S
O451 C442 1.058 . S
C452 O453 1.228 . S
C452 O454 1.267 . S
O453 C452 1.228 . S
O454 Zn441 1.969 . S
O454 C452 1.267 . S
O455 Zn441 1.965 . S
O455 C459 1.260 . S
O456 Zn440 1.969 . S
O456 C459 1.258 . S
O457 Zn441 2.024 . S
O457 C444 1.058 . S
C458 O447 1.260 . S
C458 O448 1.258 . S
C459 O455 1.260 . S
C459 O456 1.258 . S
Zn460 O466 1.969 . S
Zn460 O467 1.965 . S
Zn460 O471 2.024 . S
Zn460 O476 1.969 . S
Zn461 O468 1.969 . S
Zn461 O474 1.969 . S
Zn461 O475 1.965 . S
Zn461 O477 2.024 . S
C462 O463 1.229 . S
C462 O471 1.058 . S
O463 C462 1.229 . S
C464 O465 1.229 . S
C464 O477 1.058 . S
O465 C464 1.229 . S
O466 Zn460 1.969 . S
O466 C469 1.267 . S
O467 Zn460 1.965 . S
O467 C478 1.260 . S
O468 Zn461 1.969 . S
O468 C478 1.258 . S
C469 O466 1.267 . S
C469 O470 1.228 . S
O470 C469 1.228 . S
O471 Zn460 2.024 . S
O471 C462 1.058 . S
C472 O473 1.228 . S
C472 O474 1.267 . S
O473 C472 1.228 . S
O474 Zn461 1.969 . S
O474 C472 1.267 . S
O475 Zn461 1.965 . S
O475 C479 1.260 . S
O476 Zn460 1.969 . S
O476 C479 1.258 . S
O477 Zn461 2.024 . S
O477 C464 1.058 . S
C478 O467 1.260 . S
C478 O468 1.258 . S
C479 O475 1.260 . S
C479 O476 1.258 . S
Zn480 O486 1.969 . S
Zn480 O487 1.965 . S
Zn480 O491 2.024 . S
Zn480 O496 1.969 . S
Zn481 O488 1.969 . S
Zn481 O494 1.969 . S
Zn481 O495 1.965 . S
Zn481 O497 2.024 . S
C482 O483 1.229 . S
C482 O491 1.058 . S
O483 C482 1.229 . S
C484 O485 1.229 . S
C484 O497 1.058 . S
O485 C484 1.229 . S
O486 Zn480 1.969 . S
O486 C489 1.267 . S
O487 Zn480 1.965 . S
O487 C498 1.260 . S
O488 Zn481 1.969 . S
O488 C498 1.258 . S
C489 O486 1.267 . S
C489 O490 1.228 . S
O490 C489 1.228 . S
O491 Zn480 2.024 . S
O491 C482 1.058 . S
C492 O493 1.228 . S
C492 O494 1.267 . S
O493 C492 1.228 . S
O494 Zn481 1.969 . S
O494 C492 1.267 . S
O495 Zn481 1.965 . S
O495 C499 1.260 . S
O496 Zn480 1.969 . S
O496 C499 1.258 . S
O497 Zn481 2.024 . S
O497 C484 1.058 . S
C498 O487 1.260 . S
C498 O488 1.258 . S
C499 O495 1.260 . S
C499 O496 1.258 . S
Zn500 O506 1.969 . S
Zn500 O507 1.965 . S
Zn500 O511 2.024 . S
Zn500 O516 1.969 . S
Zn501 O508 1.969 . S
Zn501 O514 1.969 . S
Zn501 O515 1.965 . S
Zn501 O517 2.024 . S
C502 O503 1.229 . S
C502 O511 1.058 . S
O503 C502 1.229 . S
C504 O505 1.229 . S
C504 O517 1.058 . S
O505 C504 1.229 . S
O506 Zn500 1.969 . S
O506 C509 1.267 . S
O507 Zn500 1.965 . S
O507 C518 1.260 . S
O508 Zn501 1.969 . S
O508 C518 1.258 . S
C509 O506 1.267 . S
C509 O510 1.228 . S
O510 C509 1.228 . S
O511 Zn500 2.024 . S
O511 C502 1.058 . S
C512 O513 1.228 . S
C512 O514 1.267 . S
O513 C512 1.228 . S
O514 Zn501 1.969 . S
O514 C512 1.267 . S
O515 Zn501 1.965 . S
O515 C519 1.260 . S
O516 Zn500 1.969 . S
O516 C519 1.258 . S
O517 Zn501 2.024 . S
O517 C504 1.058 . S
C518 O507 1.260 . S
C518 O508 1.258 . S
C519 O515 1.260 . S
C519 O516 1.258 . S
Zn520 O526 1.969 . S
Zn520 O527 1.965 . S
Zn520 O531 2.024 . S
Zn520 O536 1.969 . S
Zn521 O528 1.969 . S
Zn521 O534 1.969 . S
Zn521 O535 1.965 . S
Zn521 O537 2.024 . S
C522 O523 1.229 . S
C522 O531 1.058 . S
O523 C522 1.229 . S
C524 O525 1.229 . S
C524 O537 1.058 . S
O525 C524 1.229 . S
O526 Zn520 1.969 . S
O526 C529 1.267 . S
O527 Zn520 1.965 . S
O527 C538 1.260 . S
O528 Zn521 1.969 . S
O528 C538 1.258 . S
C529 O526 1.267 . S
C529 O530 1.228 . S
O530 C529 1.228 . S
O531 Zn520 2.024 . S
O531 C522 1.058 . S
C532 O533 1.228 . S
C532 O534 1.267 1_455 S
O533 C532 1.228 . S
O534 Zn521 1.969 . S
O534 C532 1.267 1_655 S
O535 Zn521 1.965 . S
O535 C539 1.260 . S
O536 Zn520 1.969 . S
O536 C539 1.258 . S
O537 Zn521 2.024 . S
O537 C524 1.058 . S
C538 O527 1.260 . S
C538 O528 1.258 . S
C539 O535 1.260 . S
C539 O536 1.258 . S
Zn540 O546 1.969 . S
Zn540 O547 1.965 . S
Zn540 O551 2.024 . S
Zn540 O556 1.969 . S
Zn541 O548 1.969 . S
Zn541 O554 1.969 . S
Zn541 O555 1.965 . S
Zn541 O557 2.024 . S
C542 O543 1.229 . S
C542 O551 1.058 . S
O543 C542 1.229 . S
C544 O545 1.229 . S
C544 O557 1.058 . S
O545 C544 1.229 . S
O546 Zn540 1.969 . S
O546 C549 1.267 . S
O547 Zn540 1.965 . S
O547 C558 1.260 . S
O548 Zn541 1.969 . S
O548 C558 1.258 . S
C549 O546 1.267 . S
C549 O550 1.228 . S
O550 C549 1.228 . S
O551 Zn540 2.024 . S
O551 C542 1.058 . S
C552 O553 1.228 . S
C552 O554 1.267 . S
O553 C552 1.228 . S
O554 Zn541 1.969 . S
O554 C552 1.267 . S
O555 Zn541 1.965 . S
O555 C559 1.260 . S
O556 Zn540 1.969 . S
O556 C559 1.258 . S
O557 Zn541 2.024 . S
O557 C544 1.058 . S
C558 O547 1.260 . S
C558 O548 1.258 . S
C559 O555 1.260 . S
C559 O556 1.258 . S
Zn560 O566 1.969 . S
Zn560 O567 1.965 . S
Zn560 O571 2.024 . S
Zn560 O576 1.969 . S
Zn561 O568 1.969 . S
Zn561 O574 1.969 . S
Zn561 O575 1.965 . S
Zn561 O577 2.024 . S
C562 O563 1.229 . S
C562 O571 1.058 . S
O563 C562 1.229 . S
C564 O565 1.229 . S
C564 O577 1.058 . S
O565 C564 1.229 . S
O566 Zn560 1.969 . S
O566 C569 1.267 . S
O567 Zn560 1.965 . S
O567 C578 1.260 . S
O568 Zn561 1.969 . S
O568 C578 1.258 . S
C569 O566 1.267 . S
C569 O570 1.228 . S
O570 C569 1.228 . S
O571 Zn560 2.024 . S
O571 C562 1.058 . S
C572 O573 1.228 . S
C572 O574 1.267 . S
O573 C572 1.228 . S
O574 Zn561 1.969 . S
O574 C572 1.267 . S
O575 Zn561 1.965 . S
O575 C579 1.260 . S
O576 Zn560 1.969 . S
O576 C579 1.258 . S
O577 Zn561 2.024 . S
O577 C564 1.058 . S
C578 O567 1.260 . S
C578 O568 1.258 . S
C579 O575 1.260 . S
C579 O576 1.258 . S
Zn580 O586 1.969 . S
Zn580 O587 1.965 . S
Zn580 O591 2.024 . S
Zn580 O596 1.969 . S
Zn581 O588 1.969 . S
Zn581 O594 1.969 . S
Zn581 O595 1.965 . S
Zn581 O597 2.024 . S
C582 O583 1.229 . S
C582 O591 1.058 . S
O583 C582 1.229 . S
C584 O585 1.229 . S
C584 O597 1.058 . S
O585 C584 1.229 . S
O586 Zn580 1.969 . S
O586 C589 1.267 . S
O587 Zn580 1.965 . S
O587 C598 1.260 . S
O588 Zn581 1.969 . S
O588 C598 1.258 . S
C589 O586 1.267 . S
C589 O590 1.228 . S
O590 C589 1.228 . S
O591 Zn580 2.024 . S
O591 C582 1.058 . S
C592 O593 1.228 . S
C592 O594 1.267 . S
O593 C592 1.228 . S
O594 Zn581 1.969 . S
O594 C592 1.267 . S
O595 Zn581 1.965 . S
O595 C599 1.260 . S
O596 Zn580 1.969 . S
O596 C599 1.258 . S
O597 Zn581 2.024 . S
O597 C584 1.058 . S
C598 O587 1.260 . S
C598 O588 1.258 . S
C599 O595 1.260 . S
C599 O596 1.258 . S
Zn600 O606 1.969 . S
Zn600 O607 1.965 . S
Zn600 O611 2.024 . S
Zn600 O616 1.969 . S
Zn601 O608 1.969 . S
Zn601 O614 1.969 . S
Zn601 O615 1.965 . S
Zn601 O617 2.024 . S
C602 O603 1.229 . S
C602 O611 1.058 . S
O603 C602 1.229 . S
C604 O605 1.229 . S
C604 O617 1.058 . S
O605 C604 1.229 . S
O606 Zn600 1.969 . S
O606 C609 1.267 . S
O607 Zn600 1.965 . S
O607 C618 1.260 . S
O608 Zn601 1.969 . S
O608 C618 1.258 . S
C609 O606 1.267 . S
C609 O610 1.228 . S
O610 C609 1.228 . S
O611 Zn600 2.024 . S
O611 C602 1.058 . S
C612 O613 1.228 . S
C612 O614 1.267 . S
O613 C612 1.228 . S
O614 Zn601 1.969 . S
O614 C612 1.267 . S
O615 Zn601 1.965 . S
O615 C619 1.260 . S
O616 Zn600 1.969 . S
O616 C619 1.258 . S
O617 Zn601 2.024 . S
O617 C604 1.058 . S
C618 O607 1.260 . S
C618 O608 1.258 . S
C619 O615 1.260 . S
C619 O616 1.258 . S
Zn620 O626 1.969 . S
Zn620 O627 1.965 . S
Zn620 O631 2.024 . S
Zn620 O636 1.969 . S
Zn621 O628 1.969 . S
Zn621 O634 1.969 . S
Zn621 O635 1.965 . S
Zn621 O637 2.024 . S
C622 O623 1.229 . S
C622 O631 1.058 . S
O623 C622 1.229 . S
C624 O625 1.229 . S
C624 O637 1.058 . S
O625 C624 1.229 . S
O626 Zn620 1.969 . S
O626 C629 1.267 . S
O627 Zn620 1.965 . S
O627 C638 1.260 . S
O628 Zn621 1.969 . S
O628 C638 1.258 . S
C629 O626 1.267 . S
C629 O630 1.228 . S
O630 C629 1.228 . S
O631 Zn620 2.024 . S
O631 C622 1.058 . S
C632 O633 1.228 . S
C632 O634 1.267 . S
O633 C632 1.228 . S
O634 Zn621 1.969 . S
O634 C632 1.267 . S
O635 Zn621 1.965 . S
O635 C639 1.260 . S
O636 Zn620 1.969 . S
O636 C639 1.258 . S
O637 Zn621 2.024 . S
O637 C624 1.058 . S
C638 O627 1.260 . S
C638 O628 1.258 . S
C639 O635 1.260 . S
C639 O636 1.258 . S
Zn640 O646 1.969 . S
Zn640 O647 1.965 . S
Zn640 O651 2.024 . S
Zn640 O656 1.969 . S
Zn641 O648 1.969 . S
Zn641 O654 1.969 . S
Zn641 O655 1.965 . S
Zn641 O657 2.024 . S
C642 O643 1.229 . S
C642 O651 1.058 . S
O643 C642 1.229 . S
C644 O645 1.229 . S
C644 O657 1.058 . S
O645 C644 1.229 . S
O646 Zn640 1.969 . S
O646 C649 1.267 . S
O647 Zn640 1.965 . S
O647 C658 1.260 . S
O648 Zn641 1.969 . S
O648 C658 1.258 . S
C649 O646 1.267 . S
C649 O650 1.228 . S
O650 C649 1.228 . S
O651 Zn640 2.024 . S
O651 C642 1.058 . S
C652 O653 1.228 . S
C652 O654 1.267 . S
O653 C652 1.228 . S
O654 Zn641 1.969 . S
O654 C652 1.267 . S
O655 Zn641 1.965 . S
O655 C659 1.260 . S
O656 Zn640 1.969 . S
O656 C659 1.258 . S
O657 Zn641 2.024 . S
O657 C644 1.058 . S
C658 O647 1.260 . S
C658 O648 1.258 . S
C659 O655 1.260 . S
C659 O656 1.258 . S
Zn660 O666 1.969 . S
Zn660 O667 1.965 . S
Zn660 O671 2.024 . S
Zn660 O676 1.969 . S
Zn661 O668 1.969 . S
Zn661 O674 1.969 . S
Zn661 O675 1.965 . S
Zn661 O677 2.024 . S
C662 O663 1.229 . S
C662 O671 1.058 . S
O663 C662 1.229 . S
C664 O665 1.229 . S
C664 O677 1.058 . S
O665 C664 1.229 . S
O666 Zn660 1.969 . S
O666 C669 1.267 . S
O667 Zn660 1.965 . S
O667 C678 1.260 . S
O668 Zn661 1.969 . S
O668 C678 1.258 . S
C669 O666 1.267 . S
C669 O670 1.228 . S
O670 C669 1.228 . S
O671 Zn660 2.024 . S
O671 C662 1.058 . S
C672 O673 1.228 . S
C672 O674 1.267 . S
O673 C672 1.228 . S
O674 Zn661 1.969 . S
O674 C672 1.267 . S
O675 Zn661 1.965 . S
O675 C679 1.260 . S
O676 Zn660 1.969 . S
O676 C679 1.258 . S
O677 Zn661 2.024 . S
O677 C664 1.058 . S
C678 O667 1.260 . S
C678 O668 1.258 . S
C679 O675 1.260 . S
C679 O676 1.258 . S
Zn680 O686 1.969 . S
Zn680 O687 1.965 . S
Zn680 O691 2.024 . S
Zn680 O696 1.969 . S
Zn681 O688 1.969 . S
Zn681 O694 1.969 . S
Zn681 O695 1.965 . S
Zn681 O697 2.024 . S
C682 O683 1.229 . S
C682 O691 1.058 . S
O683 C682 1.229 . S
C684 O685 1.229 . S
C684 O697 1.058 . S
O685 C684 1.229 . S
O686 Zn680 1.969 . S
O686 C689 1.267 . S
O687 Zn680 1.965 . S
O687 C698 1.260 . S
O688 Zn681 1.969 . S
O688 C698 1.258 . S
C689 O686 1.267 . S
C689 O690 1.228 . S
O690 C689 1.228 . S
O691 Zn680 2.024 . S
O691 C682 1.058 . S
C692 O693 1.228 . S
C692 O694 1.267 . S
O693 C692 1.228 . S
O694 Zn681 1.969 . S
O694 C692 1.267 . S
O695 Zn681 1.965 . S
O695 C699 1.260 . S
O696 Zn680 1.969 . S
O696 C699 1.258 . S
O697 Zn681 2.024 . S
O697 C684 1.058 . S
C698 O687 1.260 . S
C698 O688 1.258 . S
C699 O695 1.260 . S
C699 O696 1.258 . S
Zn700 O706 1.969 . S
Zn700 O707 1.965 . S
Zn700 O711 2.024 . S
Zn700 O716 1.969 . S
Zn701 O708 1.969 . S
Zn701 O714 1.969 . S
Zn701 O715 1.965 . S
Zn701 O717 2.024 . S
C702 O703 1.229 . S
C702 O711 1.058 . S
O703 C702 1.229 . S
C704 O705 1.229 . S
C704 O717 1.058 . S
O705 C704 1.229 . S
O706 Zn700 1.969 . S
O706 C709 1.267 1_655 S
O707 Zn700 1.965 . S
O707 C718 1.260 . S
O708 Zn701 1.969 . S
O708 C718 1.258 . S
C709 O706 1.267 1_455 S
C709 O710 1.241 . S
O710 C709 1.241 . S
O711 Zn700 2.024 . S
O711 C702 1.058 . S
C712 O713 1.228 . S
C712 O714 1.267 . S
O713 C712 1.228 . S
O714 Zn701 1.969 . S
O714 C712 1.267 . S
O715 Zn701 1.965 . S
O715 C719 1.260 . S
O716 Zn700 1.969 . S
O716 C719 1.258 . S
O717 Zn701 2.024 . S
O717 C704 1.058 . S
C718 O707 1.260 . S
C718 O708 1.258 . S
C719 O715 1.260 . S
C719 O716 1.258 . S
H720 C728 0.950 . S
H721 C733 0.950 . S
H722 C730 0.950 . S
H723 C732 0.950 . S
H724 C734 0.950 . S
H725 C736 0.950 . S
H726 C738 0.950 . S
H727 C739 0.950 . S
C728 H720 0.950 . S
C728 C729 1.386 . S
C728 C730 1.391 . S
C729 C728 1.386 . S
C729 C733 1.393 . S
C730 H722 0.950 . S
C730 C728 1.391 . S
C730 C731 1.400 . S
C731 C730 1.400 . S
C731 C732 1.398 . S
C731 C737 1.491 . S
C732 H723 0.950 . S
C732 C731 1.398 . S
C732 C733 1.391 . S
C733 H721 0.950 . S
C733 C729 1.393 . S
C733 C732 1.391 . S
C734 H724 0.950 . S
C734 C735 1.386 . S
C734 C736 1.391 . S
C735 C734 1.386 . S
C735 C739 1.393 . S
C736 H725 0.950 . S
C736 C734 1.391 . S
C736 C737 1.400 . S
C737 C731 1.491 . S
C737 C736 1.400 . S
C737 C738 1.398 . S
C738 H726 0.950 . S
C738 C737 1.398 . S
C738 C739 1.391 . S
C739 H727 0.950 . S
C739 C735 1.393 . S
C739 C738 1.391 . S
H740 C748 0.950 . S
H741 C753 0.950 . S
H742 C750 0.950 . S
H743 C752 0.950 . S
H744 C754 0.950 . S
H745 C756 0.950 1_455 S
H746 C758 0.950 . S
H747 C759 0.950 . S
C748 H740 0.950 . S
C748 C749 1.386 . S
C748 C750 1.391 . S
C749 C748 1.386 . S
C749 C753 1.393 . S
C750 H742 0.950 . S
C750 C748 1.391 . S
C750 C751 1.400 . S
C751 C750 1.400 . S
C751 C752 1.398 . S
C751 C757 1.491 . S
C752 H743 0.950 . S
C752 C751 1.398 . S
C752 C753 1.391 . S
C753 H741 0.950 . S
C753 C749 1.393 . S
C753 C752 1.391 . S
C754 H744 0.950 . S
C754 C755 1.386 1_455 S
C754 C756 1.391 1_455 S
C755 C754 1.386 1_655 S
C755 C759 1.393 . S
C756 H745 0.950 1_655 S
C756 C754 1.391 1_655 S
C756 C757 1.400 . S
C757 C751 1.491 . S
C757 C756 1.400 . S
C757 C758 1.398 . S
C758 H746 0.950 . S
C758 C757 1.398 . S
C758 C759 1.391 . S
C759 H747 0.950 . S
C759 C755 1.393 . S
C759 C758 1.391 . S
H760 C768 0.950 . S
H761 C773 0.950 . S
H762 C770 0.950 . S
H763 C772 0.950 . S
H764 C774 0.950 . S
H765 C776 0.950 . S
H766 C778 0.950 . S
H767 C779 0.950 . S
C768 H760 0.950 . S
C768 C769 1.386 . S
C768 C770 1.391 . S
C769 C768 1.386 . S
C769 C773 1.393 . S
C770 H762 0.950 . S
C770 C768 1.391 . S
C770 C771 1.400 . S
C771 C770 1.400 . S
C771 C772 1.398 . S
C771 C777 1.491 . S
C772 H763 0.950 . S
C772 C771 1.398 . S
C772 C773 1.391 . S
C773 H761 0.950 . S
C773 C769 1.393 . S
C773 C772 1.391 . S
C774 H764 0.950 . S
C774 C775 1.386 . S
C774 C776 1.391 . S
C775 C774 1.386 . S
C775 C779 1.393 . S
C776 H765 0.950 . S
C776 C774 1.391 . S
C776 C777 1.400 . S
C777 C771 1.491 . S
C777 C776 1.400 . S
C777 C778 1.398 . S
C778 H766 0.950 . S
C778 C777 1.398 . S
C778 C779 1.391 . S
C779 H767 0.950 . S
C779 C775 1.393 . S
C779 C778 1.391 . S
H780 C788 0.950 . S
H781 C793 0.950 . S
H782 C790 0.950 . S
H783 C792 0.950 . S
H784 C794 0.950 . S
H785 C796 0.950 . S
H786 C798 0.950 . S
H787 C799 0.950 . S
C788 H780 0.950 . S
C788 C789 1.386 . S
C788 C790 1.391 . S
C789 C788 1.386 . S
C789 C793 1.393 . S
C790 H782 0.950 . S
C790 C788 1.391 . S
C790 C791 1.400 . S
C791 C790 1.400 . S
C791 C792 1.398 . S
C791 C797 1.491 . S
C792 H783 0.950 . S
C792 C791 1.398 . S
C792 C793 1.391 . S
C793 H781 0.950 . S
C793 C789 1.393 . S
C793 C792 1.391 . S
C794 H784 0.950 . S
C794 C795 1.386 . S
C794 C796 1.391 . S
C795 C794 1.386 . S
C795 C799 1.393 . S
C796 H785 0.950 . S
C796 C794 1.391 . S
C796 C797 1.400 . S
C797 C791 1.491 . S
C797 C796 1.400 . S
C797 C798 1.398 . S
C798 H786 0.950 . S
C798 C797 1.398 . S
C798 C799 1.391 . S
C799 H787 0.950 . S
C799 C795 1.393 . S
C799 C798 1.391 . S
H800 C808 0.950 . S
H801 C813 0.950 . S
H802 C810 0.950 . S
H803 C812 0.950 . S
H804 C814 0.950 . S
H805 C816 0.950 . S
H806 C818 0.950 . S
H807 C819 0.950 . S
C808 H800 0.950 . S
C808 C809 1.386 . S
C808 C810 1.391 . S
C809 C808 1.386 . S
C809 C813 1.393 . S
C810 H802 0.950 . S
C810 C808 1.391 . S
C810 C811 1.400 . S
C811 C810 1.400 . S
C811 C812 1.398 . S
C811 C817 1.491 . S
C812 H803 0.950 . S
C812 C811 1.398 . S
C812 C813 1.391 . S
C813 H801 0.950 . S
C813 C809 1.393 . S
C813 C812 1.391 . S
C814 H804 0.950 . S
C814 C815 1.386 . S
C814 C816 1.391 . S
C815 C814 1.386 . S
C815 C819 1.393 . S
C816 H805 0.950 . S
C816 C814 1.391 . S
C816 C817 1.400 . S
C817 C811 1.491 . S
C817 C816 1.400 . S
C817 C818 1.398 . S
C818 H806 0.950 . S
C818 C817 1.398 . S
C818 C819 1.391 . S
C819 H807 0.950 . S
C819 C815 1.393 . S
C819 C818 1.391 . S
H820 C828 0.950 . S
H821 C833 0.950 . S
H822 C830 0.950 . S
H823 C832 0.950 . S
H824 C834 0.950 . S
H825 C836 0.950 . S
H826 C838 0.950 . S
H827 C839 0.950 . S
C828 H820 0.950 . S
C828 C829 1.386 . S
C828 C830 1.391 . S
C829 C828 1.386 . S
C829 C833 1.393 . S
C830 H822 0.950 . S
C830 C828 1.391 . S
C830 C831 1.400 . S
C831 C830 1.400 . S
C831 C832 1.398 . S
C831 C837 1.491 . S
C832 H823 0.950 . S
C832 C831 1.398 . S
C832 C833 1.391 . S
C833 H821 0.950 . S
C833 C829 1.393 . S
C833 C832 1.391 . S
C834 H824 0.950 . S
C834 C835 1.386 1_545 S
C834 C836 1.391 1_545 S
C835 C834 1.386 1_565 S
C835 C839 1.393 . S
C836 H825 0.950 . S
C836 C834 1.391 1_565 S
C836 C837 1.400 . S
C837 C831 1.491 . S
C837 C836 1.400 . S
C837 C838 1.398 . S
C838 H826 0.950 . S
C838 C837 1.398 . S
C838 C839 1.391 . S
C839 H827 0.950 . S
C839 C835 1.393 . S
C839 C838 1.391 . S
H840 C848 0.950 1_545 S
H841 C853 0.950 . S
H842 C850 0.950 . S
H843 C852 0.950 . S
H844 C854 0.950 . S
H845 C856 0.950 . S
H846 C858 0.950 . S
H847 C859 0.950 . S
C848 H840 0.950 1_565 S
C848 C849 1.386 . S
C848 C850 1.391 . S
C849 C848 1.386 . S
C849 C853 1.393 . S
C850 H842 0.950 . S
C850 C848 1.391 . S
C850 C851 1.400 . S
C851 C850 1.400 . S
C851 C852 1.398 . S
C851 C857 1.491 . S
C852 H843 0.950 . S
C852 C851 1.398 . S
C852 C853 1.391 . S
C853 H841 0.950 . S
C853 C849 1.393 . S
C853 C852 1.391 . S
C854 H844 0.950 . S
C854 C855 1.386 . S
C854 C856 1.391 . S
C855 C854 1.386 . S
C855 C859 1.393 . S
C856 H845 0.950 . S
C856 C854 1.391 . S
C856 C857 1.400 . S
C857 C851 1.491 . S
C857 C856 1.400 . S
C857 C858 1.398 . S
C858 H846 0.950 . S
C858 C857 1.398 . S
C858 C859 1.391 . S
C859 H847 0.950 . S
C859 C855 1.393 . S
C859 C858 1.391 . S
H860 C868 0.950 . S
H861 C873 0.950 . S
H862 C870 0.950 . S
H863 C872 0.950 . S
H864 C874 0.950 . S
H865 C876 0.950 . S
H866 C878 0.950 . S
H867 C879 0.950 . S
C868 H860 0.950 . S
C868 C869 1.386 . S
C868 C870 1.391 . S
C869 C868 1.386 . S
C869 C873 1.393 . S
C870 H862 0.950 . S
C870 C868 1.391 . S
C870 C871 1.400 . S
C871 C870 1.400 . S
C871 C872 1.398 . S
C871 C877 1.491 . S
C872 H863 0.950 . S
C872 C871 1.398 . S
C872 C873 1.391 . S
C873 H861 0.950 . S
C873 C869 1.393 . S
C873 C872 1.391 . S
C874 H864 0.950 . S
C874 C875 1.386 . S
C874 C876 1.391 . S
C875 C874 1.386 . S
C875 C879 1.393 . S
C876 H865 0.950 . S
C876 C874 1.391 . S
C876 C877 1.400 . S
C877 C871 1.491 . S
C877 C876 1.400 . S
C877 C878 1.398 . S
C878 H866 0.950 . S
C878 C877 1.398 . S
C878 C879 1.391 . S
C879 H867 0.950 . S
C879 C875 1.393 . S
C879 C878 1.391 . S
H880 C888 0.950 . S
H881 C893 0.950 . S
H882 C890 0.950 . S
H883 C892 0.950 . S
H884 C894 0.950 . S
H885 C896 0.950 . S
H886 C898 0.950 . S
H887 C899 0.950 . S
C888 H880 0.950 . S
C888 C889 1.386 . S
C888 C890 1.391 . S
C889 C888 1.386 . S
C889 C893 1.393 . S
C890 H882 0.950 . S
C890 C888 1.391 . S
C890 C891 1.400 . S
C891 C890 1.400 . S
C891 C892 1.398 . S
C891 C897 1.491 . S
C892 H883 0.950 . S
C892 C891 1.398 . S
C892 C893 1.391 . S
C893 H881 0.950 . S
C893 C889 1.393 . S
C893 C892 1.391 . S
C894 H884 0.950 . S
C894 C895 1.386 . S
C894 C896 1.391 . S
C895 C894 1.386 . S
C895 C899 1.393 . S
C896 H885 0.950 . S
C896 C894 1.391 . S
C896 C897 1.400 . S
C897 C891 1.491 . S
C897 C896 1.400 . S
C897 C898 1.398 . S
C898 H886 0.950 . S
C898 C897 1.398 . S
C898 C899 1.391 . S
C899 H887 0.950 . S
C899 C895 1.393 . S
C899 C898 1.391 . S
H900 C908 0.950 . S
H901 C913 0.950 . S
H902 C910 0.950 . S
H903 C912 0.950 . S
H904 C914 0.950 . S
H905 C916 0.950 1_455 S
H906 C918 0.950 . S
H907 C919 0.950 . S
C908 H900 0.950 . S
C908 C909 1.386 . S
C908 C910 1.391 . S
C909 C908 1.386 . S
C909 C913 1.393 . S
C910 H902 0.950 . S
C910 C908 1.391 . S
C910 C911 1.400 . S
C911 C910 1.400 . S
C911 C912 1.398 . S
C911 C917 1.491 . S
C912 H903 0.950 . S
C912 C911 1.398 . S
C912 C913 1.391 . S
C913 H901 0.950 . S
C913 C909 1.393 . S
C913 C912 1.391 . S
C914 H904 0.950 . S
C914 C915 1.386 1_455 S
C914 C916 1.391 1_455 S
C915 C914 1.386 1_655 S
C915 C919 1.393 . S
C916 H905 0.950 1_655 S
C916 C914 1.391 1_655 S
C916 C917 1.400 . S
C917 C911 1.491 . S
C917 C916 1.400 . S
C917 C918 1.398 . S
C918 H906 0.950 . S
C918 C917 1.398 . S
C918 C919 1.391 . S
C919 H907 0.950 . S
C919 C915 1.393 . S
C919 C918 1.391 . S
H920 C928 0.950 . S
H921 C933 0.950 . S
H922 C930 0.950 . S
H923 C932 0.950 . S
H924 C934 0.950 . S
H925 C936 0.950 . S
H926 C938 0.950 . S
H927 C939 0.950 . S
C928 H920 0.950 . S
C928 C929 1.386 . S
C928 C930 1.391 . S
C929 C928 1.386 . S
C929 C933 1.393 . S
C930 H922 0.950 . S
C930 C928 1.391 . S
C930 C931 1.400 . S
C931 C930 1.400 . S
C931 C932 1.398 . S
C931 C937 1.491 . S
C932 H923 0.950 . S
C932 C931 1.398 . S
C932 C933 1.391 . S
C933 H921 0.950 . S
C933 C929 1.393 . S
C933 C932 1.391 . S
C934 H924 0.950 . S
C934 C935 1.386 . S
C934 C936 1.391 . S
C935 C934 1.386 . S
C935 C939 1.393 . S
C936 H925 0.950 . S
C936 C934 1.391 . S
C936 C937 1.400 . S
C937 C931 1.491 . S
C937 C936 1.400 . S
C937 C938 1.398 . S
C938 H926 0.950 . S
C938 C937 1.398 . S
C938 C939 1.391 . S
C939 H927 0.950 . S
C939 C935 1.393 . S
C939 C938 1.391 . S
H940 C948 0.950 . S
H941 C953 0.950 . S
H942 C950 0.950 . S
H943 C952 0.950 . S
H944 C954 0.950 . S
H945 C956 0.950 . S
H946 C958 0.950 . S
H947 C959 0.950 . S
C948 H940 0.950 . S
C948 C949 1.386 . S
C948 C950 1.391 . S
C949 C948 1.386 . S
C949 C953 1.393 . S
C950 H942 0.950 . S
C950 C948 1.391 . S
C950 C951 1.400 . S
C951 C950 1.400 . S
C951 C952 1.398 . S
C951 C957 1.491 . S
C952 H943 0.950 . S
C952 C951 1.398 . S
C952 C953 1.391 . S
C953 H941 0.950 . S
C953 C949 1.393 . S
C953 C952 1.391 . S
C954 H944 0.950 . S
C954 C955 1.386 . S
C954 C956 1.391 . S
C955 C954 1.386 . S
C955 C959 1.393 . S
C956 H945 0.950 . S
C956 C954 1.391 . S
C956 C957 1.400 . S
C957 C951 1.491 . S
C957 C956 1.400 . S
C957 C958 1.398 . S
C958 H946 0.950 . S
C958 C957 1.398 . S
C958 C959 1.391 . S
C959 H947 0.950 . S
C959 C955 1.393 . S
C959 C958 1.391 . S
H960 C968 0.950 . S
H961 C973 0.950 . S
H962 C970 0.950 . S
H963 C972 0.950 . S
H964 C974 0.950 . S
H965 C976 0.950 . S
H966 C978 0.950 . S
H967 C979 0.950 . S
C968 H960 0.950 . S
C968 C969 1.386 . S
C968 C970 1.391 . S
C969 C968 1.386 . S
C969 C973 1.393 . S
C970 H962 0.950 . S
C970 C968 1.391 . S
C970 C971 1.400 . S
C971 C970 1.400 . S
C971 C972 1.398 . S
C971 C977 1.491 . S
C972 H963 0.950 . S
C972 C971 1.398 . S
C972 C973 1.391 . S
C973 H961 0.950 . S
C973 C969 1.393 . S
C973 C972 1.391 . S
C974 H964 0.950 . S
C974 C975 1.386 . S
C974 C976 1.391 . S
C975 C974 1.386 . S
C975 C979 1.393 . S
C976 H965 0.950 . S
C976 C974 1.391 . S
C976 C977 1.400 . S
C977 C971 1.491 . S
C977 C976 1.400 . S
C977 C978 1.398 . S
C978 H966 0.950 . S
C978 C977 1.398 . S
C978 C979 1.391 . S
C979 H967 0.950 . S
C979 C975 1.393 . S
C979 C978 1.391 . S
H980 C988 0.950 . S
H981 C993 0.950 . S
H982 C990 0.950 . S
H983 C992 0.950 . S
H984 C994 0.950 . S
H985 C996 0.950 . S
H986 C998 0.950 . S
H987 C999 0.950 . S
C988 H980 0.950 . S
C988 C989 1.386 . S
C988 C990 1.391 1_565 S
C989 C988 1.386 . S
C989 C993 1.393 . S
C990 H982 0.950 . S
C990 C988 1.391 1_545 S
C990 C991 1.400 . S
C991 C990 1.400 . S
C991 C992 1.398 1_545 S
C991 C997 1.491 . S
C992 H983 0.950 . S
C992 C991 1.398 1_565 S
C992 C993 1.391 . S
C993 H981 0.950 . S
C993 C989 1.393 . S
C993 C992 1.391 . S
C994 H984 0.950 . S
C994 C995 1.386 . S
C994 C996 1.391 . S
C995 C994 1.386 . S
C995 C999 1.393 . S
C996 H985 0.950 . S
C996 C994 1.391 . S
C996 C997 1.400 . S
C997 C991 1.491 . S
C997 C996 1.400 . S
C997 C998 1.398 . S
C998 H986 0.950 . S
C998 C997 1.398 . S
C998 C999 1.391 . S
C999 H987 0.950 . S
C999 C995 1.393 . S
C999 C998 1.391 . S
H1000 C1008 0.950 . S
H1001 C1013 0.950 . S
H1002 C1010 0.950 . S
H1003 C1012 0.950 . S
H1004 C1014 0.950 . S
H1005 C1016 0.950 . S
H1006 C1018 0.950 . S
H1007 C1019 0.950 . S
C1008 H1000 0.950 . S
C1008 C1009 1.386 . S
C1008 C1010 1.391 1_655 S
C1009 C1008 1.386 . S
C1009 C1013 1.393 . S
C1010 H1002 0.950 . S
C1010 C1008 1.391 1_455 S
C1010 C1011 1.400 . S
C1011 C1010 1.400 . S
C1011 C1012 1.398 1_455 S
C1011 C1017 1.491 . S
C1012 H1003 0.950 . S
C1012 C1011 1.398 1_655 S
C1012 C1013 1.391 . S
C1013 H1001 0.950 . S
C1013 C1009 1.393 . S
C1013 C1012 1.391 . S
C1014 H1004 0.950 . S
C1014 C1015 1.386 . S
C1014 C1016 1.391 . S
C1015 C1014 1.386 . S
C1015 C1019 1.393 . S
C1016 H1005 0.950 . S
C1016 C1014 1.391 . S
C1016 C1017 1.400 . S
C1017 C1011 1.491 . S
C1017 C1016 1.400 . S
C1017 C1018 1.398 . S
C1018 H1006 0.950 . S
C1018 C1017 1.398 . S
C1018 C1019 1.391 . S
C1019 H1007 0.950 . S
C1019 C1015 1.393 . S
C1019 C1018 1.391 . S
H1020 C1028 0.950 . S
H1021 C1033 0.950 . S
H1022 C1030 0.950 . S
H1023 C1032 0.950 . S
H1024 C1034 0.950 . S
H1025 C1036 0.950 . S
H1026 C1038 0.950 . S
H1027 C1039 0.950 . S
C1028 H1020 0.950 . S
C1028 C1029 1.386 . S
C1028 C1030 1.391 . S
C1029 C1028 1.386 . S
C1029 C1033 1.393 . S
C1030 H1022 0.950 . S
C1030 C1028 1.391 . S
C1030 C1031 1.400 . S
C1031 C1030 1.400 . S
C1031 C1032 1.398 . S
C1031 C1037 1.491 . S
C1032 H1023 0.950 . S
C1032 C1031 1.398 . S
C1032 C1033 1.391 . S
C1033 H1021 0.950 . S
C1033 C1029 1.393 . S
C1033 C1032 1.391 . S
C1034 H1024 0.950 . S
C1034 C1035 1.386 . S
C1034 C1036 1.391 . S
C1035 C1034 1.386 . S
C1035 C1039 1.393 . S
C1036 H1025 0.950 . S
C1036 C1034 1.391 . S
C1036 C1037 1.400 . S
C1037 C1031 1.491 . S
C1037 C1036 1.400 . S
C1037 C1038 1.398 . S
C1038 H1026 0.950 . S
C1038 C1037 1.398 . S
C1038 C1039 1.391 . S
C1039 H1027 0.950 . S
C1039 C1035 1.393 . S
C1039 C1038 1.391 . S
H1040 C1048 0.950 . S
H1041 C1053 0.950 . S
H1042 C1050 0.950 . S
H1043 C1052 0.950 1_545 S
H1044 C1054 0.950 . S
H1045 C1056 0.950 . S
H1046 C1058 0.950 . S
H1047 C1059 0.950 . S
C1048 H1040 0.950 . S
C1048 C1049 1.386 . S
C1048 C1050 1.391 . S
C1049 C1048 1.386 . S
C1049 C1053 1.393 . S
C1050 H1042 0.950 . S
C1050 C1048 1.391 . S
C1050 C1051 1.400 1_565 S
C1051 C1050 1.400 1_545 S
C1051 C1052 1.398 1_545 S
C1051 C1057 1.491 . S
C1052 H1043 0.950 1_565 S
C1052 C1051 1.398 1_565 S
C1052 C1053 1.391 . S
C1053 H1041 0.950 . S
C1053 C1049 1.393 . S
C1053 C1052 1.391 . S
C1054 H1044 0.950 . S
C1054 C1055 1.386 . S
C1054 C1056 1.391 . S
C1055 C1054 1.386 . S
C1055 C1059 1.393 . S
C1056 H1045 0.950 . S
C1056 C1054 1.391 . S
C1056 C1057 1.400 . S
C1057 C1051 1.491 . S
C1057 C1056 1.400 . S
C1057 C1058 1.398 . S
C1058 H1046 0.950 . S
C1058 C1057 1.398 . S
C1058 C1059 1.391 . S
C1059 H1047 0.950 . S
C1059 C1055 1.393 . S
C1059 C1058 1.391 . S
H1060 C1068 0.950 . S
H1061 C1073 0.950 . S
H1062 C1070 0.950 . S
H1063 C1072 0.950 . S
H1064 C1074 0.950 . S
H1065 C1076 0.950 . S
H1066 C1078 0.950 . S
H1067 C1079 0.950 . S
C1068 H1060 0.950 . S
C1068 C1069 1.386 . S
C1068 C1070 1.391 1_655 S
C1069 C1068 1.386 . S
C1069 C1073 1.393 . S
C1070 H1062 0.950 . S
C1070 C1068 1.391 1_455 S
C1070 C1071 1.400 . S
C1071 C1070 1.400 . S
C1071 C1072 1.398 1_455 S
C1071 C1077 1.491 . S
C1072 H1063 0.950 . S
C1072 C1071 1.398 1_655 S
C1072 C1073 1.391 . S
C1073 H1061 0.950 . S
C1073 C1069 1.393 . S
C1073 C1072 1.391 . S
C1074 H1064 0.950 . S
C1074 C1075 1.386 . S
C1074 C1076 1.391 . S
C1075 C1074 1.386 . S
C1075 C1079 1.393 . S
C1076 H1065 0.950 . S
C1076 C1074 1.391 . S
C1076 C1077 1.400 . S
C1077 C1071 1.491 . S
C1077 C1076 1.400 . S
C1077 C1078 1.398 . S
C1078 H1066 0.950 . S
C1078 C1077 1.398 . S
C1078 C1079 1.391 . S
C1079 H1067 0.950 . S
C1079 C1075 1.393 . S
C1079 C1078 1.391 . S
H1080 C1088 0.950 . S
H1081 C1093 0.950 . S
H1082 C1090 0.950 . S
H1083 C1092 0.950 . S
H1084 C1094 0.950 . S
H1085 C1096 0.950 . S
H1086 C1098 0.950 . S
H1087 C1099 0.950 . S
C1088 H1080 0.950 . S
C1088 C1089 1.386 . S
C1088 C1090 1.391 . S
C1089 C1088 1.386 . S
C1089 C1093 1.393 . S
C1090 H1082 0.950 . S
C1090 C1088 1.391 . S
C1090 C1091 1.400 . S
C1091 C1090 1.400 . S
C1091 C1092 1.398 . S
C1091 C1097 1.491 1_554 S
C1092 H1083 0.950 . S
C1092 C1091 1.398 . S
C1092 C1093 1.391 . S
C1093 H1081 0.950 . S
C1093 C1089 1.393 . S
C1093 C1092 1.391 . S
C1094 H1084 0.950 . S
C1094 C1095 1.386 . S
C1094 C1096 1.391 . S
C1095 C1094 1.386 . S
C1095 C1099 1.393 . S
C1096 H1085 0.950 . S
C1096 C1094 1.391 . S
C1096 C1097 1.400 . S
C1097 C1091 1.491 1_556 S
C1097 C1096 1.400 . S
C1097 C1098 1.398 . S
C1098 H1086 0.950 . S
C1098 C1097 1.398 . S
C1098 C1099 1.391 . S
C1099 H1087 0.950 . S
C1099 C1095 1.393 . S
C1099 C1098 1.391 . S
H1100 C1108 0.950 1_655 S
H1101 C1113 0.950 . S
H1102 C1110 0.950 1_655 S
H1103 C1112 0.950 . S
H1104 C1114 0.950 . S
H1105 C1116 0.950 . S
H1106 C1118 0.946 1_655 S
H1107 C1119 0.950 1_655 S
C1108 H1100 0.950 1_455 S
C1108 C1109 1.386 . S
C1108 C1110 1.391 . S
C1109 C1108 1.386 . S
C1109 C1113 1.393 . S
C1110 H1102 0.950 1_455 S
C1110 C1108 1.391 . S
C1110 C1111 1.400 . S
C1111 C1110 1.400 . S
C1111 C1112 1.398 . S
C1111 C1117 1.491 1_556 S
C1112 H1103 0.950 . S
C1112 C1111 1.398 . S
C1112 C1113 1.391 . S
C1113 H1101 0.950 . S
C1113 C1109 1.393 . S
C1113 C1112 1.391 . S
C1114 H1104 0.950 . S
C1114 C1115 1.386 . S
C1114 C1116 1.391 . S
C1115 C1114 1.386 . S
C1115 C1119 1.393 . S
C1116 H1105 0.950 . S
C1116 C1114 1.391 . S
C1116 C1117 1.400 . S
C1117 C1111 1.491 1_554 S
C1117 C1116 1.400 . S
C1117 C1118 1.401 . S
C1118 H1106 0.946 1_455 S
C1118 C1117 1.401 . S
C1118 C1119 1.392 . S
C1119 H1107 0.950 1_455 S
C1119 C1115 1.393 . S
C1119 C1118 1.392 . S
H1120 C1128 0.950 . S
H1121 C1133 0.950 . S
H1122 C1130 0.950 . S
H1123 C1132 0.950 . S
H1124 C1134 0.950 . S
H1125 C1136 0.950 . S
H1126 C1138 0.950 . S
H1127 C1139 0.950 . S
C1128 H1120 0.950 . S
C1128 C1129 1.386 . S
C1128 C1130 1.391 . S
C1129 C1128 1.386 . S
C1129 C1133 1.393 . S
C1130 H1122 0.950 . S
C1130 C1128 1.391 . S
C1130 C1131 1.400 . S
C1131 C1130 1.400 . S
C1131 C1132 1.398 . S
C1131 C1137 1.491 1_554 S
C1132 H1123 0.950 . S
C1132 C1131 1.398 . S
C1132 C1133 1.391 . S
C1133 H1121 0.950 . S
C1133 C1129 1.393 . S
C1133 C1132 1.391 . S
C1134 H1124 0.950 . S
C1134 C1135 1.386 . S
C1134 C1136 1.391 . S
C1135 C1134 1.386 . S
C1135 C1139 1.393 . S
C1136 H1125 0.950 . S
C1136 C1134 1.391 . S
C1136 C1137 1.400 . S
C1137 C1131 1.491 1_556 S
C1137 C1136 1.400 . S
C1137 C1138 1.398 . S
C1138 H1126 0.950 . S
C1138 C1137 1.398 . S
C1138 C1139 1.391 . S
C1139 H1127 0.950 . S
C1139 C1135 1.393 . S
C1139 C1138 1.391 . S
H1140 C1148 0.950 . S
H1141 C1153 0.950 1_655 S
H1142 C1150 0.950 . S
H1143 C1152 0.950 1_655 S
H1144 C1154 0.950 . S
H1145 C1156 0.950 . S
H1146 C1158 0.950 . S
H1147 C1159 0.950 . S
C1148 H1140 0.950 . S
C1148 C1149 1.386 . S
C1148 C1150 1.391 . S
C1149 C1148 1.386 . S
C1149 C1153 1.393 . S
C1150 H1142 0.950 . S
C1150 C1148 1.391 . S
C1150 C1151 1.400 . S
C1151 C1150 1.400 . S
C1151 C1152 1.398 . S
C1151 C1157 1.491 . S
C1152 H1143 0.950 1_455 S
C1152 C1151 1.398 . S
C1152 C1153 1.391 . S
C1153 H1141 0.950 1_455 S
C1153 C1149 1.393 . S
C1153 C1152 1.391 . S
C1154 H1144 0.950 . S
C1154 C1155 1.386 1_655 S
C1154 C1156 1.391 . S
C1155 C1154 1.386 1_455 S
C1155 C1159 1.393 . S
C1156 H1145 0.950 . S
C1156 C1154 1.391 . S
C1156 C1157 1.400 1_655 S
C1157 C1151 1.491 . S
C1157 C1156 1.400 1_455 S
C1157 C1158 1.398 . S
C1158 H1146 0.950 . S
C1158 C1157 1.398 . S
C1158 C1159 1.391 . S
C1159 H1147 0.950 . S
C1159 C1155 1.393 . S
C1159 C1158 1.391 . S
H1160 C1168 0.950 . S
H1161 C1173 0.950 . S
H1162 C1170 0.950 . S
H1163 C1172 0.950 . S
H1164 C1174 0.950 . S
H1165 C1176 0.950 . S
H1166 C1178 0.950 . S
H1167 C1179 0.950 . S
C1168 H1160 0.950 . S
C1168 C1169 1.386 . S
C1168 C1170 1.391 . S
C1169 C1168 1.386 . S
C1169 C1173 1.393 . S
C1170 H1162 0.950 . S
C1170 C1168 1.391 . S
C1170 C1171 1.400 . S
C1171 C1170 1.400 . S
C1171 C1172 1.398 . S
C1171 C1177 1.491 . S
C1172 H1163 0.950 . S
C1172 C1171 1.398 . S
C1172 C1173 1.391 . S
C1173 H1161 0.950 . S
C1173 C1169 1.393 . S
C1173 C1172 1.391 . S
C1174 H1164 0.950 . S
C1174 C1175 1.386 . S
C1174 C1176 1.391 . S
C1175 C1174 1.386 . S
C1175 C1179 1.393 . S
C1176 H1165 0.950 . S
C1176 C1174 1.391 . S
C1176 C1177 1.400 . S
C1177 C1171 1.491 . S
C1177 C1176 1.400 . S
C1177 C1178 1.398 . S
C1178 H1166 0.950 . S
C1178 C1177 1.398 . S
C1178 C1179 1.391 . S
C1179 H1167 0.950 . S
C1179 C1175 1.393 . S
C1179 C1178 1.391 . S
H1180 C1188 0.950 . S
H1181 C1193 0.950 . S
H1182 C1190 0.950 . S
H1183 C1192 0.950 . S
H1184 C1194 0.959 . S
H1185 C1196 0.950 . S
H1186 C1198 0.950 . S
H1187 C1199 0.950 . S
C1188 H1180 0.950 . S
C1188 C1189 1.386 . S
C1188 C1190 1.391 . S
C1189 C1188 1.386 . S
C1189 C1193 1.393 1_545 S
C1190 H1182 0.950 . S
C1190 C1188 1.391 . S
C1190 C1191 1.400 . S
C1191 C1190 1.400 . S
C1191 C1192 1.398 1_545 S
C1191 C1197 1.491 . S
C1192 H1183 0.950 . S
C1192 C1191 1.398 1_565 S
C1192 C1193 1.391 . S
C1193 H1181 0.950 . S
C1193 C1189 1.393 1_565 S
C1193 C1192 1.391 . S
C1194 H1184 0.959 . S
C1194 C1195 1.375 1_565 S
C1194 C1196 1.393 . S
C1195 C1194 1.375 1_545 S
C1195 C1199 1.393 . S
C1196 H1185 0.950 . S
C1196 C1194 1.393 . S
C1196 C1197 1.400 1_565 S
C1197 C1191 1.491 . S
C1197 C1196 1.400 1_545 S
C1197 C1198 1.398 . S
C1198 H1186 0.950 . S
C1198 C1197 1.398 . S
C1198 C1199 1.391 . S
C1199 H1187 0.950 . S
C1199 C1195 1.393 . S
C1199 C1198 1.391 . S
H1200 C1208 0.950 . S
H1201 C1213 0.950 . S
H1202 C1210 0.950 . S
H1203 C1212 0.950 . S
H1204 C1214 0.950 . S
H1205 C1216 0.950 . S
H1206 C1218 0.950 . S
H1207 C1219 0.950 . S
C1208 H1200 0.950 . S
C1208 C1209 1.386 . S
C1208 C1210 1.391 . S
C1209 C1208 1.386 . S
C1209 C1213 1.393 . S
C1210 H1202 0.950 . S
C1210 C1208 1.391 . S
C1210 C1211 1.400 . S
C1211 C1210 1.400 . S
C1211 C1212 1.398 . S
C1211 C1217 1.491 . S
C1212 H1203 0.950 . S
C1212 C1211 1.398 . S
C1212 C1213 1.391 . S
C1213 H1201 0.950 . S
C1213 C1209 1.393 . S
C1213 C1212 1.391 . S
C1214 H1204 0.950 . S
C1214 C1215 1.386 . S
C1214 C1216 1.391 . S
C1215 C1214 1.386 . S
C1215 C1219 1.393 . S
C1216 H1205 0.950 . S
C1216 C1214 1.391 . S
C1216 C1217 1.400 . S
C1217 C1211 1.491 . S
C1217 C1216 1.400 . S
C1217 C1218 1.398 . S
C1218 H1206 0.950 . S
C1218 C1217 1.398 . S
C1218 C1219 1.391 . S
C1219 H1207 0.950 . S
C1219 C1215 1.393 . S
C1219 C1218 1.391 . S
H1220 C1228 0.950 . S
H1221 C1233 0.950 . S
H1222 C1230 0.950 . S
H1223 C1232 0.950 . S
H1224 C1234 0.950 . S
H1225 C1236 0.950 . S
H1226 C1238 0.950 . S
H1227 C1239 0.950 . S
C1228 H1220 0.950 . S
C1228 C1229 1.386 . S
C1228 C1230 1.391 . S
C1229 C1228 1.386 . S
C1229 C1233 1.393 . S
C1230 H1222 0.950 . S
C1230 C1228 1.391 . S
C1230 C1231 1.400 . S
C1231 C1230 1.400 . S
C1231 C1232 1.398 . S
C1231 C1237 1.491 . S
C1232 H1223 0.950 . S
C1232 C1231 1.398 . S
C1232 C1233 1.391 . S
C1233 H1221 0.950 . S
C1233 C1229 1.393 . S
C1233 C1232 1.391 . S
C1234 H1224 0.950 . S
C1234 C1235 1.386 . S
C1234 C1236 1.391 . S
C1235 C1234 1.386 . S
C1235 C1239 1.393 . S
C1236 H1225 0.950 . S
C1236 C1234 1.391 . S
C1236 C1237 1.400 . S
C1237 C1231 1.491 . S
C1237 C1236 1.400 . S
C1237 C1238 1.398 . S
C1238 H1226 0.950 . S
C1238 C1237 1.398 . S
C1238 C1239 1.391 . S
C1239 H1227 0.950 . S
C1239 C1235 1.393 . S
C1239 C1238 1.391 . S
H1240 C1248 0.950 . S
H1241 C1253 0.950 . S
H1242 C1250 0.950 . S
H1243 C1252 0.950 . S
H1244 C1254 0.950 . S
H1245 C1256 0.950 . S
H1246 C1258 0.950 . S
H1247 C1259 0.950 . S
C1248 H1240 0.950 . S
C1248 C1249 1.386 . S
C1248 C1250 1.391 . S
C1249 C1248 1.386 . S
C1249 C1253 1.393 . S
C1250 H1242 0.950 . S
C1250 C1248 1.391 . S
C1250 C1251 1.400 . S
C1251 C1250 1.400 . S
C1251 C1252 1.398 . S
C1251 C1257 1.491 . S
C1252 H1243 0.950 . S
C1252 C1251 1.398 . S
C1252 C1253 1.391 . S
C1253 H1241 0.950 . S
C1253 C1249 1.393 . S
C1253 C1252 1.391 . S
C1254 H1244 0.950 . S
C1254 C1255 1.386 . S
C1254 C1256 1.391 . S
C1255 C1254 1.386 . S
C1255 C1259 1.393 . S
C1256 H1245 0.950 . S
C1256 C1254 1.391 . S
C1256 C1257 1.400 . S
C1257 C1251 1.491 . S
C1257 C1256 1.400 . S
C1257 C1258 1.398 . S
C1258 H1246 0.950 . S
C1258 C1257 1.398 . S
C1258 C1259 1.391 . S
C1259 H1247 0.950 . S
C1259 C1255 1.393 . S
C1259 C1258 1.391 . S
H1260 C1268 0.950 . S
H1261 C1273 0.950 . S
H1262 C1270 0.950 . S
H1263 C1272 0.950 . S
H1264 C1274 0.950 . S
H1265 C1276 0.950 . S
H1266 C1278 0.950 . S
H1267 C1279 0.950 . S
C1268 H1260 0.950 . S
C1268 C1269 1.386 . S
C1268 C1270 1.391 . S
C1269 C1268 1.386 . S
C1269 C1273 1.393 . S
C1270 H1262 0.950 . S
C1270 C1268 1.391 . S
C1270 C1271 1.400 . S
C1271 C1270 1.400 . S
C1271 C1272 1.398 . S
C1271 C1277 1.491 . S
C1272 H1263 0.950 . S
C1272 C1271 1.398 . S
C1272 C1273 1.391 . S
C1273 H1261 0.950 . S
C1273 C1269 1.393 . S
C1273 C1272 1.391 . S
C1274 H1264 0.950 . S
C1274 C1275 1.386 . S
C1274 C1276 1.391 . S
C1275 C1274 1.386 . S
C1275 C1279 1.393 . S
C1276 H1265 0.950 . S
C1276 C1274 1.391 . S
C1276 C1277 1.400 . S
C1277 C1271 1.491 . S
C1277 C1276 1.400 . S
C1277 C1278 1.398 . S
C1278 H1266 0.950 . S
C1278 C1277 1.398 . S
C1278 C1279 1.391 . S
C1279 H1267 0.950 . S
C1279 C1275 1.393 . S
C1279 C1278 1.391 . S
H1280 C1288 0.950 . S
H1281 C1293 0.950 . S
H1282 C1290 0.950 . S
H1283 C1292 0.950 . S
H1284 C1294 0.950 . S
H1285 C1296 0.950 . S
H1286 C1298 0.950 . S
H1287 C1299 0.950 . S
C1288 H1280 0.950 . S
C1288 C1289 1.386 . S
C1288 C1290 1.391 . S
C1289 C1288 1.386 . S
C1289 C1293 1.393 . S
C1290 H1282 0.950 . S
C1290 C1288 1.391 . S
C1290 C1291 1.400 . S
C1291 C1290 1.400 . S
C1291 C1292 1.398 . S
C1291 C1297 1.491 . S
C1292 H1283 0.950 . S
C1292 C1291 1.398 . S
C1292 C1293 1.391 . S
C1293 H1281 0.950 . S
C1293 C1289 1.393 . S
C1293 C1292 1.391 . S
C1294 H1284 0.950 . S
C1294 C1295 1.386 . S
C1294 C1296 1.391 . S
C1295 C1294 1.386 . S
C1295 C1299 1.393 . S
C1296 H1285 0.950 . S
C1296 C1294 1.391 . S
C1296 C1297 1.400 . S
C1297 C1291 1.491 . S
C1297 C1296 1.400 . S
C1297 C1298 1.398 . S
C1298 H1286 0.950 . S
C1298 C1297 1.398 . S
C1298 C1299 1.391 . S
C1299 H1287 0.950 . S
C1299 C1295 1.393 . S
C1299 C1298 1.391 . S
H1300 C1308 0.950 . S
H1301 C1313 0.950 . S
H1302 C1310 0.950 . S
H1303 C1312 0.950 . S
H1304 C1314 0.950 . S
H1305 C1316 0.950 . S
H1306 C1318 0.950 . S
H1307 C1319 0.950 . S
C1308 H1300 0.950 . S
C1308 C1309 1.386 . S
C1308 C1310 1.391 . S
C1309 C1308 1.386 . S
C1309 C1313 1.393 . S
C1310 H1302 0.950 . S
C1310 C1308 1.391 . S
C1310 C1311 1.400 . S
C1311 C1310 1.400 . S
C1311 C1312 1.398 . S
C1311 C1317 1.491 . S
C1312 H1303 0.950 . S
C1312 C1311 1.398 . S
C1312 C1313 1.391 . S
C1313 H1301 0.950 . S
C1313 C1309 1.393 . S
C1313 C1312 1.391 . S
C1314 H1304 0.950 . S
C1314 C1315 1.386 . S
C1314 C1316 1.391 . S
C1315 C1314 1.386 . S
C1315 C1319 1.393 . S
C1316 H1305 0.950 . S
C1316 C1314 1.391 . S
C1316 C1317 1.400 . S
C1317 C1311 1.491 . S
C1317 C1316 1.400 . S
C1317 C1318 1.398 . S
C1318 H1306 0.950 . S
C1318 C1317 1.398 . S
C1318 C1319 1.391 . S
C1319 H1307 0.950 . S
C1319 C1315 1.393 . S
C1319 C1318 1.391 . S
H1320 C1328 0.950 . S
H1321 C1333 0.950 . S
H1322 C1330 0.950 . S
H1323 C1332 0.950 . S
H1324 C1334 0.950 . S
H1325 C1336 0.950 . S
H1326 C1338 0.950 . S
H1327 C1339 0.950 . S
C1328 H1320 0.950 . S
C1328 C1329 1.386 . S
C1328 C1330 1.391 . S
C1329 C1328 1.386 . S
C1329 C1333 1.393 . S
C1330 H1322 0.950 . S
C1330 C1328 1.391 . S
C1330 C1331 1.400 . S
C1331 C1330 1.400 . S
C1331 C1332 1.398 . S
C1331 C1337 1.491 . S
C1332 H1323 0.950 . S
C1332 C1331 1.398 . S
C1332 C1333 1.391 . S
C1333 H1321 0.950 . S
C1333 C1329 1.393 . S
C1333 C1332 1.391 . S
C1334 H1324 0.950 . S
C1334 C1335 1.386 . S
C1334 C1336 1.391 . S
C1335 C1334 1.386 . S
C1335 C1339 1.393 . S
C1336 H1325 0.950 . S
C1336 C1334 1.391 . S
C1336 C1337 1.400 . S
C1337 C1331 1.491 . S
C1337 C1336 1.400 . S
C1337 C1338 1.398 . S
C1338 H1326 0.950 . S
C1338 C1337 1.398 . S
C1338 C1339 1.391 . S
C1339 H1327 0.950 . S
C1339 C1335 1.393 . S
C1339 C1338 1.391 . S
H1340 C1348 0.950 . S
H1341 C1353 0.950 . S
H1342 C1350 0.950 . S
H1343 C1352 0.950 . S
H1344 C1354 0.950 . S
H1345 C1356 0.950 . S
H1346 C1358 0.950 . S
H1347 C1359 0.950 . S
C1348 H1340 0.950 . S
C1348 C1349 1.386 . S
C1348 C1350 1.391 . S
C1349 C1348 1.386 . S
C1349 C1353 1.393 . S
C1350 H1342 0.950 . S
C1350 C1348 1.391 . S
C1350 C1351 1.400 . S
C1351 C1350 1.400 . S
C1351 C1352 1.398 . S
C1351 C1357 1.491 . S
C1352 H1343 0.950 . S
C1352 C1351 1.398 . S
C1352 C1353 1.391 . S
C1353 H1341 0.950 . S
C1353 C1349 1.393 . S
C1353 C1352 1.391 . S
C1354 H1344 0.950 . S
C1354 C1355 1.386 . S
C1354 C1356 1.391 . S
C1355 C1354 1.386 . S
C1355 C1359 1.393 . S
C1356 H1345 0.950 . S
C1356 C1354 1.391 . S
C1356 C1357 1.400 . S
C1357 C1351 1.491 . S
C1357 C1356 1.400 . S
C1357 C1358 1.398 . S
C1358 H1346 0.950 . S
C1358 C1357 1.398 . S
C1358 C1359 1.391 . S
C1359 H1347 0.950 . S
C1359 C1355 1.393 . S
C1359 C1358 1.391 . S
H1360 C1368 0.950 . S
H1361 C1373 0.950 . S
H1362 C1370 0.950 . S
H1363 C1372 0.950 . S
H1364 C1374 0.950 . S
H1365 C1376 0.950 . S
H1366 C1378 0.950 . S
H1367 C1379 0.950 . S
C1368 H1360 0.950 . S
C1368 C1369 1.386 . S
C1368 C1370 1.391 . S
C1369 C1368 1.386 . S
C1369 C1373 1.393 . S
C1370 H1362 0.950 . S
C1370 C1368 1.391 . S
C1370 C1371 1.400 . S
C1371 C1370 1.400 . S
C1371 C1372 1.398 . S
C1371 C1377 1.491 . S
C1372 H1363 0.950 . S
C1372 C1371 1.398 . S
C1372 C1373 1.391 . S
C1373 H1361 0.950 . S
C1373 C1369 1.393 . S
C1373 C1372 1.391 . S
C1374 H1364 0.950 . S
C1374 C1375 1.386 . S
C1374 C1376 1.391 . S
C1375 C1374 1.386 . S
C1375 C1379 1.393 . S
C1376 H1365 0.950 . S
C1376 C1374 1.391 . S
C1376 C1377 1.400 . S
C1377 C1371 1.491 . S
C1377 C1376 1.400 . S
C1377 C1378 1.398 . S
C1378 H1366 0.950 . S
C1378 C1377 1.398 . S
C1378 C1379 1.391 . S
C1379 H1367 0.950 . S
C1379 C1375 1.393 . S
C1379 C1378 1.391 . S
H1380 C1388 0.950 . S
H1381 C1393 0.950 . S
H1382 C1390 0.950 . S
H1383 C1392 0.950 . S
H1384 C1394 0.950 . S
H1385 C1396 0.950 . S
H1386 C1398 0.950 . S
H1387 C1399 0.950 . S
C1388 H1380 0.950 . S
C1388 C1389 1.386 . S
C1388 C1390 1.391 . S
C1389 C1388 1.386 . S
C1389 C1393 1.393 . S
C1390 H1382 0.950 . S
C1390 C1388 1.391 . S
C1390 C1391 1.400 . S
C1391 C1390 1.400 . S
C1391 C1392 1.398 . S
C1391 C1397 1.491 . S
C1392 H1383 0.950 . S
C1392 C1391 1.398 . S
C1392 C1393 1.391 . S
C1393 H1381 0.950 . S
C1393 C1389 1.393 . S
C1393 C1392 1.391 . S
C1394 H1384 0.950 . S
C1394 C1395 1.386 . S
C1394 C1396 1.391 . S
C1395 C1394 1.386 . S
C1395 C1399 1.393 . S
C1396 H1385 0.950 . S
C1396 C1394 1.391 . S
C1396 C1397 1.400 . S
C1397 C1391 1.491 . S
C1397 C1396 1.400 . S
C1397 C1398 1.398 . S
C1398 H1386 0.950 . S
C1398 C1397 1.398 . S
C1398 C1399 1.391 . S
C1399 H1387 0.950 . S
C1399 C1395 1.393 . S
C1399 C1398 1.391 . S
H1400 C1408 0.950 . S
H1401 C1413 0.950 . S
H1402 C1410 0.950 . S
H1403 C1412 0.950 . S
H1404 C1414 0.950 . S
H1405 C1416 0.950 . S
H1406 C1418 0.950 . S
H1407 C1419 0.950 . S
C1408 H1400 0.950 . S
C1408 C1409 1.386 . S
C1408 C1410 1.391 . S
C1409 C1408 1.386 . S
C1409 C1413 1.393 . S
C1410 H1402 0.950 . S
C1410 C1408 1.391 . S
C1410 C1411 1.400 . S
C1411 C1410 1.400 . S
C1411 C1412 1.398 . S
C1411 C1417 1.491 . S
C1412 H1403 0.950 . S
C1412 C1411 1.398 . S
C1412 C1413 1.391 . S
C1413 H1401 0.950 . S
C1413 C1409 1.393 . S
C1413 C1412 1.391 . S
C1414 H1404 0.950 . S
C1414 C1415 1.386 . S
C1414 C1416 1.391 . S
C1415 C1414 1.386 . S
C1415 C1419 1.393 . S
C1416 H1405 0.950 . S
C1416 C1414 1.391 . S
C1416 C1417 1.400 . S
C1417 C1411 1.491 . S
C1417 C1416 1.400 . S
C1417 C1418 1.398 . S
C1418 H1406 0.950 . S
C1418 C1417 1.398 . S
C1418 C1419 1.391 . S
C1419 H1407 0.950 . S
C1419 C1415 1.393 . S
C1419 C1418 1.391 . S
H1420 C1428 0.950 . S
H1421 C1433 0.950 . S
H1422 C1430 0.950 . S
H1423 C1432 0.950 . S
H1424 C1434 0.950 . S
H1425 C1436 0.950 . S
H1426 C1438 0.950 . S
H1427 C1439 0.950 . S
C1428 H1420 0.950 . S
C1428 C1429 1.386 . S
C1428 C1430 1.391 . S
C1429 C1428 1.386 . S
C1429 C1433 1.393 . S
C1430 H1422 0.950 . S
C1430 C1428 1.391 . S
C1430 C1431 1.400 . S
C1431 C1430 1.400 . S
C1431 C1432 1.398 . S
C1431 C1437 1.491 . S
C1432 H1423 0.950 . S
C1432 C1431 1.398 . S
C1432 C1433 1.391 . S
C1433 H1421 0.950 . S
C1433 C1429 1.393 . S
C1433 C1432 1.391 . S
C1434 H1424 0.950 . S
C1434 C1435 1.386 . S
C1434 C1436 1.391 . S
C1435 C1434 1.386 . S
C1435 C1439 1.393 . S
C1436 H1425 0.950 . S
C1436 C1434 1.391 . S
C1436 C1437 1.400 . S
C1437 C1431 1.491 . S
C1437 C1436 1.400 . S
C1437 C1438 1.398 . S
C1438 H1426 0.950 . S
C1438 C1437 1.398 . S
C1438 C1439 1.391 . S
C1439 H1427 0.950 . S
C1439 C1435 1.393 . S
C1439 C1438 1.391 . S
H1440 C1448 0.950 . S
H1441 C1453 0.950 . S
H1442 C1450 0.950 . S
H1443 C1452 0.950 . S
H1444 C1454 0.950 . S
H1445 C1456 0.950 . S
H1446 C1458 0.950 . S
H1447 C1459 0.950 . S
C1448 H1440 0.950 . S
C1448 C1449 1.386 . S
C1448 C1450 1.391 . S
C1449 C1448 1.386 . S
C1449 C1453 1.393 . S
C1450 H1442 0.950 . S
C1450 C1448 1.391 . S
C1450 C1451 1.400 . S
C1451 C1450 1.400 . S
C1451 C1452 1.398 . S
C1451 C1457 1.491 . S
C1452 H1443 0.950 . S
C1452 C1451 1.398 . S
C1452 C1453 1.391 . S
C1453 H1441 0.950 . S
C1453 C1449 1.393 . S
C1453 C1452 1.391 . S
C1454 H1444 0.950 . S
C1454 C1455 1.386 . S
C1454 C1456 1.391 . S
C1455 C1454 1.386 . S
C1455 C1459 1.393 . S
C1456 H1445 0.950 . S
C1456 C1454 1.391 . S
C1456 C1457 1.400 . S
C1457 C1451 1.491 . S
C1457 C1456 1.400 . S
C1457 C1458 1.398 . S
C1458 H1446 0.950 . S
C1458 C1457 1.398 . S
C1458 C1459 1.391 . S
C1459 H1447 0.950 . S
C1459 C1455 1.393 . S
C1459 C1458 1.391 . S
H1460 C1468 0.950 . S
H1461 C1473 0.950 . S
H1462 C1470 0.950 . S
H1463 C1472 0.950 . S
H1464 C1474 0.950 . S
H1465 C1476 0.950 . S
H1466 C1478 0.950 . S
H1467 C1479 0.950 . S
C1468 H1460 0.950 . S
C1468 C1469 1.386 . S
C1468 C1470 1.391 . S
C1469 C1468 1.386 . S
C1469 C1473 1.393 . S
C1470 H1462 0.950 . S
C1470 C1468 1.391 . S
C1470 C1471 1.400 . S
C1471 C1470 1.400 . S
C1471 C1472 1.398 . S
C1471 C1477 1.491 . S
C1472 H1463 0.950 . S
C1472 C1471 1.398 . S
C1472 C1473 1.391 . S
C1473 H1461 0.950 . S
C1473 C1469 1.393 . S
C1473 C1472 1.391 . S
C1474 H1464 0.950 . S
C1474 C1475 1.386 . S
C1474 C1476 1.391 . S
C1475 C1474 1.386 . S
C1475 C1479 1.393 . S
C1476 H1465 0.950 . S
C1476 C1474 1.391 . S
C1476 C1477 1.400 . S
C1477 C1471 1.491 . S
C1477 C1476 1.400 . S
C1477 C1478 1.398 . S
C1478 H1466 0.950 . S
C1478 C1477 1.398 . S
C1478 C1479 1.391 . S
C1479 H1467 0.950 . S
C1479 C1475 1.393 . S
C1479 C1478 1.391 . S
H1480 C1488 0.950 . S
H1481 C1493 0.950 . S
H1482 C1490 0.950 . S
H1483 C1492 0.950 . S
H1484 C1494 0.950 . S
H1485 C1496 0.950 . S
H1486 C1498 0.950 . S
H1487 C1499 0.950 . S
C1488 H1480 0.950 . S
C1488 C1489 1.386 . S
C1488 C1490 1.391 . S
C1489 C1488 1.386 . S
C1489 C1493 1.393 . S
C1490 H1482 0.950 . S
C1490 C1488 1.391 . S
C1490 C1491 1.400 . S
C1491 C1490 1.400 . S
C1491 C1492 1.398 . S
C1491 C1497 1.491 . S
C1492 H1483 0.950 . S
C1492 C1491 1.398 . S
C1492 C1493 1.391 . S
C1493 H1481 0.950 . S
C1493 C1489 1.393 . S
C1493 C1492 1.391 . S
C1494 H1484 0.950 . S
C1494 C1495 1.386 . S
C1494 C1496 1.391 . S
C1495 C1494 1.386 . S
C1495 C1499 1.393 . S
C1496 H1485 0.950 . S
C1496 C1494 1.391 . S
C1496 C1497 1.400 . S
C1497 C1491 1.491 . S
C1497 C1496 1.400 . S
C1497 C1498 1.398 . S
C1498 H1486 0.950 . S
C1498 C1497 1.398 . S
C1498 C1499 1.391 . S
C1499 H1487 0.950 . S
C1499 C1495 1.393 . S
C1499 C1498 1.391 . S
H1500 C1508 0.950 . S
H1501 C1513 0.950 . S
H1502 C1510 0.950 . S
H1503 C1512 0.950 . S
H1504 C1514 0.950 . S
H1505 C1516 0.950 . S
H1506 C1518 0.950 . S
H1507 C1519 0.950 . S
C1508 H1500 0.950 . S
C1508 C1509 1.386 . S
C1508 C1510 1.391 . S
C1509 C1508 1.386 . S
C1509 C1513 1.393 . S
C1510 H1502 0.950 . S
C1510 C1508 1.391 . S
C1510 C1511 1.400 . S
C1511 C1510 1.400 . S
C1511 C1512 1.398 . S
C1511 C1517 1.491 . S
C1512 H1503 0.950 . S
C1512 C1511 1.398 . S
C1512 C1513 1.391 . S
C1513 H1501 0.950 . S
C1513 C1509 1.393 . S
C1513 C1512 1.391 . S
C1514 H1504 0.950 . S
C1514 C1515 1.386 . S
C1514 C1516 1.391 . S
C1515 C1514 1.386 . S
C1515 C1519 1.393 . S
C1516 H1505 0.950 . S
C1516 C1514 1.391 . S
C1516 C1517 1.400 . S
C1517 C1511 1.491 . S
C1517 C1516 1.400 . S
C1517 C1518 1.398 . S
C1518 H1506 0.950 . S
C1518 C1517 1.398 . S
C1518 C1519 1.391 . S
C1519 H1507 0.950 . S
C1519 C1515 1.393 . S
C1519 C1518 1.391 . S
H1520 C1528 0.950 . S
H1521 C1533 0.950 . S
H1522 C1530 0.950 . S
H1523 C1532 0.950 . S
H1524 C1534 0.950 . S
H1525 C1536 0.950 . S
H1526 C1538 0.950 . S
H1527 C1539 0.950 . S
C1528 H1520 0.950 . S
C1528 C1529 1.386 . S
C1528 C1530 1.391 . S
C1529 C1528 1.386 . S
C1529 C1533 1.393 . S
C1530 H1522 0.950 . S
C1530 C1528 1.391 . S
C1530 C1531 1.400 . S
C1531 C1530 1.400 . S
C1531 C1532 1.398 . S
C1531 C1537 1.491 . S
C1532 H1523 0.950 . S
C1532 C1531 1.398 . S
C1532 C1533 1.391 . S
C1533 H1521 0.950 . S
C1533 C1529 1.393 . S
C1533 C1532 1.391 . S
C1534 H1524 0.950 . S
C1534 C1535 1.386 . S
C1534 C1536 1.391 . S
C1535 C1534 1.386 . S
C1535 C1539 1.393 . S
C1536 H1525 0.950 . S
C1536 C1534 1.391 . S
C1536 C1537 1.400 . S
C1537 C1531 1.491 . S
C1537 C1536 1.400 . S
C1537 C1538 1.398 . S
C1538 H1526 0.950 . S
C1538 C1537 1.398 . S
C1538 C1539 1.391 . S
C1539 H1527 0.950 . S
C1539 C1535 1.393 . S
C1539 C1538 1.391 . S
H1540 C1548 0.950 . S
H1541 C1553 0.950 . S
H1542 C1550 0.950 . S
H1543 C1552 0.950 . S
H1544 C1554 0.950 . S
H1545 C1556 0.950 . S
H1546 C1558 0.950 . S
H1547 C1559 0.950 . S
C1548 H1540 0.950 . S
C1548 C1549 1.386 . S
C1548 C1550 1.391 . S
C1549 C1548 1.386 . S
C1549 C1553 1.393 . S
C1550 H1542 0.950 . S
C1550 C1548 1.391 . S
C1550 C1551 1.400 . S
C1551 C1550 1.400 . S
C1551 C1552 1.398 . S
C1551 C1557 1.491 . S
C1552 H1543 0.950 . S
C1552 C1551 1.398 . S
C1552 C1553 1.391 . S
C1553 H1541 0.950 . S
C1553 C1549 1.393 . S
C1553 C1552 1.391 . S
C1554 H1544 0.950 . S
C1554 C1555 1.386 . S
C1554 C1556 1.391 . S
C1555 C1554 1.386 . S
C1555 C1559 1.393 . S
C1556 H1545 0.950 . S
C1556 C1554 1.391 . S
C1556 C1557 1.400 . S
C1557 C1551 1.491 . S
C1557 C1556 1.400 . S
C1557 C1558 1.398 . S
C1558 H1546 0.950 . S
C1558 C1557 1.398 . S
C1558 C1559 1.391 . S
C1559 H1547 0.950 . S
C1559 C1555 1.393 . S
C1559 C1558 1.391 . S
H1560 C1568 0.950 . S
H1561 C1573 0.950 . S
H1562 C1570 0.950 . S
H1563 C1572 0.950 . S
H1564 C1574 0.950 . S
H1565 C1576 0.950 . S
H1566 C1578 0.950 . S
H1567 C1579 0.950 . S
C1568 H1560 0.950 . S
C1568 C1569 1.386 . S
C1568 C1570 1.391 . S
C1569 C1568 1.386 . S
C1569 C1573 1.393 . S
C1570 H1562 0.950 . S
C1570 C1568 1.391 . S
C1570 C1571 1.400 . S
C1571 C1570 1.400 . S
C1571 C1572 1.398 . S
C1571 C1577 1.491 . S
C1572 H1563 0.950 . S
C1572 C1571 1.398 . S
C1572 C1573 1.391 . S
C1573 H1561 0.950 . S
C1573 C1569 1.393 . S
C1573 C1572 1.391 . S
C1574 H1564 0.950 . S
C1574 C1575 1.386 . S
C1574 C1576 1.391 . S
C1575 C1574 1.386 . S
C1575 C1579 1.393 . S
C1576 H1565 0.950 . S
C1576 C1574 1.391 . S
C1576 C1577 1.400 . S
C1577 C1571 1.491 . S
C1577 C1576 1.400 . S
C1577 C1578 1.398 . S
C1578 H1566 0.950 . S
C1578 C1577 1.398 . S
C1578 C1579 1.391 . S
C1579 H1567 0.950 . S
C1579 C1575 1.393 . S
C1579 C1578 1.391 . S
H1580 C1588 0.950 . S
H1581 C1593 0.950 . S
H1582 C1590 0.950 . S
H1583 C1592 0.950 . S
H1584 C1594 0.950 . S
H1585 C1596 0.950 . S
H1586 C1598 0.950 . S
H1587 C1599 0.950 . S
C1588 H1580 0.950 . S
C1588 C1589 1.386 . S
C1588 C1590 1.391 . S
C1589 C1588 1.386 . S
C1589 C1593 1.393 . S
C1590 H1582 0.950 . S
C1590 C1588 1.391 . S
C1590 C1591 1.400 . S
C1591 C1590 1.400 . S
C1591 C1592 1.398 . S
C1591 C1597 1.491 . S
C1592 H1583 0.950 . S
C1592 C1591 1.398 . S
C1592 C1593 1.391 . S
C1593 H1581 0.950 . S
C1593 C1589 1.393 . S
C1593 C1592 1.391 . S
C1594 H1584 0.950 . S
C1594 C1595 1.386 . S
C1594 C1596 1.391 . S
C1595 C1594 1.386 . S
C1595 C1599 1.393 . S
C1596 H1585 0.950 . S
C1596 C1594 1.391 . S
C1596 C1597 1.400 . S
C1597 C1591 1.491 . S
C1597 C1596 1.400 . S
C1597 C1598 1.398 . S
C1598 H1586 0.950 . S
C1598 C1597 1.398 . S
C1598 C1599 1.391 . S
C1599 H1587 0.950 . S
C1599 C1595 1.393 . S
C1599 C1598 1.391 . S
H1600 C1608 0.950 . S
H1601 C1613 0.950 . S
H1602 C1610 0.950 . S
H1603 C1612 0.950 . S
H1604 C1614 0.950 . S
H1605 C1616 0.950 . S
H1606 C1618 0.950 . S
H1607 C1619 0.950 . S
C1608 H1600 0.950 . S
C1608 C1609 1.386 . S
C1608 C1610 1.391 . S
C1609 C1608 1.386 . S
C1609 C1613 1.393 . S
C1610 H1602 0.950 . S
C1610 C1608 1.391 . S
C1610 C1611 1.400 . S
C1611 C1610 1.400 . S
C1611 C1612 1.398 . S
C1611 C1617 1.491 . S
C1612 H1603 0.950 . S
C1612 C1611 1.398 . S
C1612 C1613 1.391 . S
C1613 H1601 0.950 . S
C1613 C1609 1.393 . S
C1613 C1612 1.391 . S
C1614 H1604 0.950 . S
C1614 C1615 1.386 . S
C1614 C1616 1.391 . S
C1615 C1614 1.386 . S
C1615 C1619 1.393 . S
C1616 H1605 0.950 . S
C1616 C1614 1.391 . S
C1616 C1617 1.400 . S
C1617 C1611 1.491 . S
C1617 C1616 1.400 . S
C1617 C1618 1.398 . S
C1618 H1606 0.950 . S
C1618 C1617 1.398 . S
C1618 C1619 1.391 . S
C1619 H1607 0.950 . S
C1619 C1615 1.393 . S
C1619 C1618 1.391 . S
H1620 C1628 0.950 . S
H1621 C1633 0.950 . S
H1622 C1630 0.950 . S
H1623 C1632 0.950 . S
H1624 C1634 0.950 . S
H1625 C1636 0.950 . S
H1626 C1638 0.950 . S
H1627 C1639 0.950 . S
C1628 H1620 0.950 . S
C1628 C1629 1.386 . S
C1628 C1630 1.391 . S
C1629 C1628 1.386 . S
C1629 C1633 1.393 . S
C1630 H1622 0.950 . S
C1630 C1628 1.391 . S
C1630 C1631 1.400 . S
C1631 C1630 1.400 . S
C1631 C1632 1.398 . S
C1631 C1637 1.491 . S
C1632 H1623 0.950 . S
C1632 C1631 1.398 . S
C1632 C1633 1.391 . S
C1633 H1621 0.950 . S
C1633 C1629 1.393 . S
C1633 C1632 1.391 . S
C1634 H1624 0.950 . S
C1634 C1635 1.386 . S
C1634 C1636 1.391 . S
C1635 C1634 1.386 . S
C1635 C1639 1.393 . S
C1636 H1625 0.950 . S
C1636 C1634 1.391 . S
C1636 C1637 1.400 . S
C1637 C1631 1.491 . S
C1637 C1636 1.400 . S
C1637 C1638 1.398 . S
C1638 H1626 0.950 . S
C1638 C1637 1.398 . S
C1638 C1639 1.391 . S
C1639 H1627 0.950 . S
C1639 C1635 1.393 . S
C1639 C1638 1.391 . S
H1640 C1648 0.950 . S
H1641 C1653 0.950 . S
H1642 C1650 0.950 . S
H1643 C1652 0.950 . S
H1644 C1654 0.950 . S
H1645 C1656 0.950 . S
H1646 C1658 0.950 . S
H1647 C1659 0.950 . S
C1648 H1640 0.950 . S
C1648 C1649 1.386 . S
C1648 C1650 1.391 . S
C1649 C1648 1.386 . S
C1649 C1653 1.393 . S
C1650 H1642 0.950 . S
C1650 C1648 1.391 . S
C1650 C1651 1.400 . S
C1651 C1650 1.400 . S
C1651 C1652 1.398 . S
C1651 C1657 1.491 . S
C1652 H1643 0.950 . S
C1652 C1651 1.398 . S
C1652 C1653 1.391 . S
C1653 H1641 0.950 . S
C1653 C1649 1.393 . S
C1653 C1652 1.391 . S
C1654 H1644 0.950 . S
C1654 C1655 1.386 . S
C1654 C1656 1.391 . S
C1655 C1654 1.386 . S
C1655 C1659 1.393 . S
C1656 H1645 0.950 . S
C1656 C1654 1.391 . S
C1656 C1657 1.400 . S
C1657 C1651 1.491 . S
C1657 C1656 1.400 . S
C1657 C1658 1.398 . S
C1658 H1646 0.950 . S
C1658 C1657 1.398 . S
C1658 C1659 1.391 . S
C1659 H1647 0.950 . S
C1659 C1655 1.393 . S
C1659 C1658 1.391 . S
H1660 C1668 0.950 . S
H1661 C1673 0.950 . S
H1662 C1670 0.950 . S
H1663 C1672 0.950 . S
H1664 C1674 0.950 . S
H1665 C1676 0.950 . S
H1666 C1678 0.950 . S
H1667 C1679 0.950 . S
C1668 H1660 0.950 . S
C1668 C1669 1.386 . S
C1668 C1670 1.391 . S
C1669 C1668 1.386 . S
C1669 C1673 1.393 . S
C1670 H1662 0.950 . S
C1670 C1668 1.391 . S
C1670 C1671 1.400 . S
C1671 C1670 1.400 . S
C1671 C1672 1.398 . S
C1671 C1677 1.491 . S
C1672 H1663 0.950 . S
C1672 C1671 1.398 . S
C1672 C1673 1.391 . S
C1673 H1661 0.950 . S
C1673 C1669 1.393 . S
C1673 C1672 1.391 . S
C1674 H1664 0.950 . S
C1674 C1675 1.386 . S
C1674 C1676 1.391 . S
C1675 C1674 1.386 . S
C1675 C1679 1.393 . S
C1676 H1665 0.950 . S
C1676 C1674 1.391 . S
C1676 C1677 1.400 . S
C1677 C1671 1.491 . S
C1677 C1676 1.400 . S
C1677 C1678 1.398 . S
C1678 H1666 0.950 . S
C1678 C1677 1.398 . S
C1678 C1679 1.391 . S
C1679 H1667 0.950 . S
C1679 C1675 1.393 . S
C1679 C1678 1.391 . S
H1680 C1688 0.950 . S
H1681 C1693 0.950 . S
H1682 C1690 0.950 . S
H1683 C1692 0.950 . S
H1684 C1694 0.950 . S
H1685 C1696 0.950 . S
H1686 C1698 0.950 . S
H1687 C1699 0.950 . S
C1688 H1680 0.950 . S
C1688 C1689 1.386 . S
C1688 C1690 1.391 . S
C1689 C1688 1.386 . S
C1689 C1693 1.393 . S
C1690 H1682 0.950 . S
C1690 C1688 1.391 . S
C1690 C1691 1.400 . S
C1691 C1690 1.400 . S
C1691 C1692 1.398 . S
C1691 C1697 1.491 . S
C1692 H1683 0.950 . S
C1692 C1691 1.398 . S
C1692 C1693 1.391 . S
C1693 H1681 0.950 . S
C1693 C1689 1.393 . S
C1693 C1692 1.391 . S
C1694 H1684 0.950 . S
C1694 C1695 1.386 . S
C1694 C1696 1.391 . S
C1695 C1694 1.386 . S
C1695 C1699 1.393 . S
C1696 H1685 0.950 . S
C1696 C1694 1.391 . S
C1696 C1697 1.400 . S
C1697 C1691 1.491 . S
C1697 C1696 1.400 . S
C1697 C1698 1.398 . S
C1698 H1686 0.950 . S
C1698 C1697 1.398 . S
C1698 C1699 1.391 . S
C1699 H1687 0.950 . S
C1699 C1695 1.393 . S
C1699 C1698 1.391 . S
H1700 C1708 0.950 . S
H1701 C1713 0.950 . S
H1702 C1710 0.954 . S
H1703 C1712 0.950 . S
H1704 C1714 0.950 . S
H1705 C1716 0.950 . S
H1706 C1718 0.950 . S
H1707 C1719 0.950 1_565 S
C1708 H1700 0.950 . S
C1708 C1709 1.386 . S
C1708 C1710 1.391 1_455 S
C1709 C1708 1.386 . S
C1709 C1713 1.393 1_455 S
C1710 H1702 0.954 . S
C1710 C1708 1.391 1_655 S
C1710 C1711 1.400 . S
C1711 C1710 1.400 . S
C1711 C1712 1.398 . S
C1711 C1717 1.491 . S
C1712 H1703 0.950 . S
C1712 C1711 1.398 . S
C1712 C1713 1.391 . S
C1713 H1701 0.950 . S
C1713 C1709 1.393 1_655 S
C1713 C1712 1.391 . S
C1714 H1704 0.950 . S
C1714 C1715 1.406 . S
C1714 C1716 1.391 . S
C1715 C1714 1.406 . S
C1715 C1719 1.387 . S
C1716 H1705 0.950 . S
C1716 C1714 1.391 . S
C1716 C1717 1.400 . S
C1717 C1711 1.491 . S
C1717 C1716 1.400 . S
C1717 C1718 1.398 . S
C1718 H1706 0.950 . S
C1718 C1717 1.398 . S
C1718 C1719 1.391 . S
C1719 H1707 0.950 1_545 S
C1719 C1715 1.387 . S
C1719 C1718 1.391 . S
H1720 C1728 0.950 . S
H1721 C1733 0.950 . S
H1722 C1730 0.950 . S
H1723 C1732 0.950 . S
H1724 C1734 0.950 . S
H1725 C1736 0.950 1_655 S
H1726 C1738 0.950 . S
H1727 C1739 0.950 . S
C1728 H1720 0.950 . S
C1728 C1729 1.386 . S
C1728 C1730 1.391 . S
C1729 C1728 1.386 . S
C1729 C1733 1.393 . S
C1730 H1722 0.950 . S
C1730 C1728 1.391 . S
C1730 C1731 1.400 . S
C1731 C1730 1.400 . S
C1731 C1732 1.398 . S
C1731 C1737 1.491 . S
C1732 H1723 0.950 . S
C1732 C1731 1.398 . S
C1732 C1733 1.391 . S
C1733 H1721 0.950 . S
C1733 C1729 1.393 . S
C1733 C1732 1.391 . S
C1734 H1724 0.950 . S
C1734 C1735 1.386 . S
C1734 C1736 1.391 . S
C1735 C1734 1.386 . S
C1735 C1739 1.393 . S
C1736 H1725 0.950 1_455 S
C1736 C1734 1.391 . S
C1736 C1737 1.400 1_455 S
C1737 C1731 1.491 . S
C1737 C1736 1.400 1_655 S
C1737 C1738 1.398 . S
C1738 H1726 0.950 . S
C1738 C1737 1.398 . S
C1738 C1739 1.391 1_655 S
C1739 H1727 0.950 . S
C1739 C1735 1.393 . S
C1739 C1738 1.391 1_455 S
H1740 C1748 0.950 . S
H1741 C1753 0.950 . S
H1742 C1750 0.950 . S
H1743 C1752 0.950 . S
H1744 C1754 0.950 . S
H1745 C1756 0.950 . S
H1746 C1758 0.950 . S
H1747 C1759 0.950 . S
C1748 H1740 0.950 . S
C1748 C1749 1.386 . S
C1748 C1750 1.391 . S
C1749 C1748 1.386 . S
C1749 C1753 1.393 . S
C1750 H1742 0.950 . S
C1750 C1748 1.391 . S
C1750 C1751 1.400 . S
C1751 C1750 1.400 . S
C1751 C1752 1.398 . S
C1751 C1757 1.491 . S
C1752 H1743 0.950 . S
C1752 C1751 1.398 . S
C1752 C1753 1.391 . S
C1753 H1741 0.950 . S
C1753 C1749 1.393 . S
C1753 C1752 1.391 . S
C1754 H1744 0.950 . S
C1754 C1755 1.386 . S
C1754 C1756 1.391 . S
C1755 C1754 1.386 . S
C1755 C1759 1.393 . S
C1756 H1745 0.950 . S
C1756 C1754 1.391 . S
C1756 C1757 1.400 . S
C1757 C1751 1.491 . S
C1757 C1756 1.400 . S
C1757 C1758 1.398 . S
C1758 H1746 0.950 . S
C1758 C1757 1.398 . S
C1758 C1759 1.391 . S
C1759 H1747 0.950 . S
C1759 C1755 1.393 . S
C1759 C1758 1.391 . S
H1760 C1768 0.950 . S
H1761 C1773 0.950 . S
H1762 C1770 0.950 . S
H1763 C1772 0.950 . S
H1764 C1774 0.950 . S
H1765 C1776 0.950 . S
H1766 C1778 0.950 . S
H1767 C1779 0.950 . S
C1768 H1760 0.950 . S
C1768 C1769 1.386 . S
C1768 C1770 1.391 . S
C1769 C1768 1.386 . S
C1769 C1773 1.393 . S
C1770 H1762 0.950 . S
C1770 C1768 1.391 . S
C1770 C1771 1.400 . S
C1771 C1770 1.400 . S
C1771 C1772 1.398 . S
C1771 C1777 1.491 . S
C1772 H1763 0.950 . S
C1772 C1771 1.398 . S
C1772 C1773 1.391 . S
C1773 H1761 0.950 . S
C1773 C1769 1.393 . S
C1773 C1772 1.391 . S
C1774 H1764 0.950 . S
C1774 C1775 1.386 . S
C1774 C1776 1.391 . S
C1775 C1774 1.386 . S
C1775 C1779 1.393 . S
C1776 H1765 0.950 . S
C1776 C1774 1.391 . S
C1776 C1777 1.400 . S
C1777 C1771 1.491 . S
C1777 C1776 1.400 . S
C1777 C1778 1.398 . S
C1778 H1766 0.950 . S
C1778 C1777 1.398 . S
C1778 C1779 1.391 . S
C1779 H1767 0.950 . S
C1779 C1775 1.393 . S
C1779 C1778 1.391 . S
H1780 C1788 0.950 . S
H1781 C1793 0.950 . S
H1782 C1790 0.950 . S
H1783 C1792 0.950 . S
H1784 C1794 0.950 . S
H1785 C1796 0.950 . S
H1786 C1798 0.950 . S
H1787 C1799 0.950 . S
C1788 H1780 0.950 . S
C1788 C1789 1.386 . S
C1788 C1790 1.391 . S
C1789 C1788 1.386 . S
C1789 C1793 1.393 . S
C1790 H1782 0.950 . S
C1790 C1788 1.391 . S
C1790 C1791 1.400 . S
C1791 C1790 1.400 . S
C1791 C1792 1.398 . S
C1791 C1797 1.491 . S
C1792 H1783 0.950 . S
C1792 C1791 1.398 . S
C1792 C1793 1.391 . S
C1793 H1781 0.950 . S
C1793 C1789 1.393 . S
C1793 C1792 1.391 . S
C1794 H1784 0.950 . S
C1794 C1795 1.386 . S
C1794 C1796 1.391 . S
C1795 C1794 1.386 . S
C1795 C1799 1.393 . S
C1796 H1785 0.950 . S
C1796 C1794 1.391 . S
C1796 C1797 1.400 . S
C1797 C1791 1.491 . S
C1797 C1796 1.400 . S
C1797 C1798 1.398 . S
C1798 H1786 0.950 . S
C1798 C1797 1.398 . S
C1798 C1799 1.391 . S
C1799 H1787 0.950 . S
C1799 C1795 1.393 . S
C1799 C1798 1.391 . S
H1800 C1808 0.950 . S
H1801 C1813 0.950 . S
H1802 C1810 0.950 . S
H1803 C1812 0.950 . S
H1804 C1814 0.950 . S
H1805 C1816 0.950 . S
H1806 C1818 0.950 . S
H1807 C1819 0.950 . S
C1808 H1800 0.950 . S
C1808 C1809 1.386 . S
C1808 C1810 1.391 . S
C1809 C1808 1.386 . S
C1809 C1813 1.393 . S
C1810 H1802 0.950 . S
C1810 C1808 1.391 . S
C1810 C1811 1.400 . S
C1811 C1810 1.400 . S
C1811 C1812 1.398 . S
C1811 C1817 1.491 . S
C1812 H1803 0.950 . S
C1812 C1811 1.398 . S
C1812 C1813 1.391 . S
C1813 H1801 0.950 . S
C1813 C1809 1.393 . S
C1813 C1812 1.391 . S
C1814 H1804 0.950 . S
C1814 C1815 1.386 . S
C1814 C1816 1.391 . S
C1815 C1814 1.386 . S
C1815 C1819 1.393 . S
C1816 H1805 0.950 . S
C1816 C1814 1.391 . S
C1816 C1817 1.400 . S
C1817 C1811 1.491 . S
C1817 C1816 1.400 . S
C1817 C1818 1.398 . S
C1818 H1806 0.950 . S
C1818 C1817 1.398 . S
C1818 C1819 1.391 . S
C1819 H1807 0.950 . S
C1819 C1815 1.393 . S
C1819 C1818 1.391 . S
H1820 C1828 0.950 . S
H1821 C1833 0.950 . S
H1822 C1830 0.950 . S
H1823 C1832 0.950 . S
H1824 C1834 0.950 . S
H1825 C1836 0.950 . S
H1826 C1838 0.950 . S
H1827 C1839 0.950 . S
C1828 H1820 0.950 . S
C1828 C1829 1.386 . S
C1828 C1830 1.391 . S
C1829 C1828 1.386 . S
C1829 C1833 1.393 . S
C1830 H1822 0.950 . S
C1830 C1828 1.391 . S
C1830 C1831 1.400 . S
C1831 C1830 1.400 . S
C1831 C1832 1.398 . S
C1831 C1837 1.491 . S
C1832 H1823 0.950 . S
C1832 C1831 1.398 . S
C1832 C1833 1.391 . S
C1833 H1821 0.950 . S
C1833 C1829 1.393 . S
C1833 C1832 1.391 . S
C1834 H1824 0.950 . S
C1834 C1835 1.386 . S
C1834 C1836 1.391 . S
C1835 C1834 1.386 . S
C1835 C1839 1.393 . S
C1836 H1825 0.950 . S
C1836 C1834 1.391 . S
C1836 C1837 1.400 . S
C1837 C1831 1.491 . S
C1837 C1836 1.400 . S
C1837 C1838 1.398 . S
C1838 H1826 0.950 . S
C1838 C1837 1.398 . S
C1838 C1839 1.391 . S
C1839 H1827 0.950 . S
C1839 C1835 1.393 . S
C1839 C1838 1.391 . S
H1840 C1848 0.950 . S
H1841 C1853 0.950 . S
H1842 C1850 0.950 . S
H1843 C1852 0.950 . S
H1844 C1854 0.950 . S
H1845 C1856 0.950 . S
H1846 C1858 0.950 . S
H1847 C1859 0.950 . S
C1848 H1840 0.950 . S
C1848 C1849 1.386 . S
C1848 C1850 1.391 . S
C1849 C1848 1.386 . S
C1849 C1853 1.393 . S
C1850 H1842 0.950 . S
C1850 C1848 1.391 . S
C1850 C1851 1.400 . S
C1851 C1850 1.400 . S
C1851 C1852 1.398 . S
C1851 C1857 1.491 . S
C1852 H1843 0.950 . S
C1852 C1851 1.398 . S
C1852 C1853 1.391 . S
C1853 H1841 0.950 . S
C1853 C1849 1.393 . S
C1853 C1852 1.391 . S
C1854 H1844 0.950 . S
C1854 C1855 1.386 . S
C1854 C1856 1.391 . S
C1855 C1854 1.386 . S
C1855 C1859 1.393 . S
C1856 H1845 0.950 . S
C1856 C1854 1.391 . S
C1856 C1857 1.400 . S
C1857 C1851 1.491 . S
C1857 C1856 1.400 . S
C1857 C1858 1.398 . S
C1858 H1846 0.950 . S
C1858 C1857 1.398 . S
C1858 C1859 1.391 . S
C1859 H1847 0.950 . S
C1859 C1855 1.393 . S
C1859 C1858 1.391 . S
H1860 C1868 0.950 . S
H1861 C1873 0.950 . S
H1862 C1870 0.950 . S
H1863 C1872 0.950 . S
H1864 C1874 0.950 . S
H1865 C1876 0.950 . S
H1866 C1878 0.950 . S
H1867 C1879 0.950 . S
C1868 H1860 0.950 . S
C1868 C1869 1.386 1_655 S
C1868 C1870 1.391 . S
C1869 C1868 1.386 1_455 S
C1869 C1873 1.393 . S
C1870 H1862 0.950 . S
C1870 C1868 1.391 . S
C1870 C1871 1.400 . S
C1871 C1870 1.400 . S
C1871 C1872 1.398 . S
C1871 C1877 1.491 . S
C1872 H1863 0.950 . S
C1872 C1871 1.398 . S
C1872 C1873 1.391 1_655 S
C1873 H1861 0.950 . S
C1873 C1869 1.393 . S
C1873 C1872 1.391 1_455 S
C1874 H1864 0.950 . S
C1874 C1875 1.386 . S
C1874 C1876 1.391 . S
C1875 C1874 1.386 . S
C1875 C1879 1.393 . S
C1876 H1865 0.950 . S
C1876 C1874 1.391 . S
C1876 C1877 1.400 . S
C1877 C1871 1.491 . S
C1877 C1876 1.400 . S
C1877 C1878 1.398 . S
C1878 H1866 0.950 . S
C1878 C1877 1.398 . S
C1878 C1879 1.391 . S
C1879 H1867 0.950 . S
C1879 C1875 1.393 . S
C1879 C1878 1.391 . S
H1880 C1888 0.950 . S
H1881 C1893 0.950 . S
H1882 C1890 0.950 . S
H1883 C1892 0.950 . S
H1884 C1894 0.950 . S
H1885 C1896 0.950 . S
H1886 C1898 0.950 . S
H1887 C1899 0.950 1_565 S
C1888 H1880 0.950 . S
C1888 C1889 1.386 . S
C1888 C1890 1.391 . S
C1889 C1888 1.386 . S
C1889 C1893 1.393 . S
C1890 H1882 0.950 . S
C1890 C1888 1.391 . S
C1890 C1891 1.400 . S
C1891 C1890 1.400 . S
C1891 C1892 1.398 . S
C1891 C1897 1.491 . S
C1892 H1883 0.950 . S
C1892 C1891 1.398 . S
C1892 C1893 1.391 . S
C1893 H1881 0.950 . S
C1893 C1889 1.393 . S
C1893 C1892 1.391 . S
C1894 H1884 0.950 . S
C1894 C1895 1.386 . S
C1894 C1896 1.391 . S
C1895 C1894 1.386 . S
C1895 C1899 1.393 . S
C1896 H1885 0.950 . S
C1896 C1894 1.391 . S
C1896 C1897 1.400 . S
C1897 C1891 1.491 . S
C1897 C1896 1.400 . S
C1897 C1898 1.398 . S
C1898 H1886 0.950 . S
C1898 C1897 1.398 . S
C1898 C1899 1.391 . S
C1899 H1887 0.950 1_545 S
C1899 C1895 1.393 . S
C1899 C1898 1.391 . S
H1900 C1908 0.950 . S
H1901 C1913 0.950 . S
H1902 C1910 0.950 . S
H1903 C1912 0.950 . S
H1904 C1914 0.950 . S
H1905 C1916 0.950 . S
H1906 C1918 0.950 . S
H1907 C1919 0.950 . S
C1908 H1900 0.950 . S
C1908 C1909 1.386 . S
C1908 C1910 1.391 . S
C1909 C1908 1.386 . S
C1909 C1913 1.393 . S
C1910 H1902 0.950 . S
C1910 C1908 1.391 . S
C1910 C1911 1.400 . S
C1911 C1910 1.400 . S
C1911 C1912 1.398 . S
C1911 C1917 1.491 . S
C1912 H1903 0.950 . S
C1912 C1911 1.398 . S
C1912 C1913 1.391 . S
C1913 H1901 0.950 . S
C1913 C1909 1.393 . S
C1913 C1912 1.391 . S
C1914 H1904 0.950 . S
C1914 C1915 1.386 . S
C1914 C1916 1.391 1_455 S
C1915 C1914 1.386 . S
C1915 C1919 1.393 . S
C1916 H1905 0.950 . S
C1916 C1914 1.391 1_655 S
C1916 C1917 1.400 . S
C1917 C1911 1.491 . S
C1917 C1916 1.400 . S
C1917 C1918 1.398 . S
C1918 H1906 0.950 . S
C1918 C1917 1.398 . S
C1918 C1919 1.391 1_655 S
C1919 H1907 0.950 . S
C1919 C1915 1.393 . S
C1919 C1918 1.391 1_455 S
H1920 C1928 0.950 . S
H1921 C1933 0.950 . S
H1922 C1930 0.950 . S
H1923 C1932 0.950 . S
H1924 C1934 0.950 . S
H1925 C1936 0.950 . S
H1926 C1938 0.950 . S
H1927 C1939 0.950 . S
C1928 H1920 0.950 . S
C1928 C1929 1.386 . S
C1928 C1930 1.391 . S
C1929 C1928 1.386 . S
C1929 C1933 1.393 . S
C1930 H1922 0.950 . S
C1930 C1928 1.391 . S
C1930 C1931 1.400 . S
C1931 C1930 1.400 . S
C1931 C1932 1.398 . S
C1931 C1937 1.491 . S
C1932 H1923 0.950 . S
C1932 C1931 1.398 . S
C1932 C1933 1.391 . S
C1933 H1921 0.950 . S
C1933 C1929 1.393 . S
C1933 C1932 1.391 . S
C1934 H1924 0.950 . S
C1934 C1935 1.386 . S
C1934 C1936 1.391 . S
C1935 C1934 1.386 . S
C1935 C1939 1.393 . S
C1936 H1925 0.950 . S
C1936 C1934 1.391 . S
C1936 C1937 1.400 . S
C1937 C1931 1.491 . S
C1937 C1936 1.400 . S
C1937 C1938 1.398 . S
C1938 H1926 0.950 . S
C1938 C1937 1.398 . S
C1938 C1939 1.391 . S
C1939 H1927 0.950 . S
C1939 C1935 1.393 . S
C1939 C1938 1.391 . S
H1940 C1948 0.950 . S
H1941 C1953 0.950 . S
H1942 C1950 0.950 . S
H1943 C1952 0.950 . S
H1944 C1954 0.950 . S
H1945 C1956 0.950 . S
H1946 C1958 0.950 . S
H1947 C1959 0.950 . S
C1948 H1940 0.950 . S
C1948 C1949 1.386 . S
C1948 C1950 1.391 . S
C1949 C1948 1.386 . S
C1949 C1953 1.393 . S
C1950 H1942 0.950 . S
C1950 C1948 1.391 . S
C1950 C1951 1.400 . S
C1951 C1950 1.400 . S
C1951 C1952 1.398 . S
C1951 C1957 1.491 . S
C1952 H1943 0.950 . S
C1952 C1951 1.398 . S
C1952 C1953 1.391 . S
C1953 H1941 0.950 . S
C1953 C1949 1.393 . S
C1953 C1952 1.391 . S
C1954 H1944 0.950 . S
C1954 C1955 1.386 . S
C1954 C1956 1.391 . S
C1955 C1954 1.386 . S
C1955 C1959 1.393 . S
C1956 H1945 0.950 . S
C1956 C1954 1.391 . S
C1956 C1957 1.400 . S
C1957 C1951 1.491 . S
C1957 C1956 1.400 . S
C1957 C1958 1.398 . S
C1958 H1946 0.950 . S
C1958 C1957 1.398 . S
C1958 C1959 1.391 . S
C1959 H1947 0.950 . S
C1959 C1955 1.393 . S
C1959 C1958 1.391 . S
H1960 C1968 0.950 . S
H1961 C1973 0.950 . S
H1962 C1970 0.950 . S
H1963 C1972 0.950 . S
H1964 C1974 0.950 . S
H1965 C1976 0.950 . S
H1966 C1978 0.950 . S
H1967 C1979 0.950 . S
C1968 H1960 0.950 . S
C1968 C1969 1.386 . S
C1968 C1970 1.391 . S
C1969 C1968 1.386 . S
C1969 C1973 1.393 . S
C1970 H1962 0.950 . S
C1970 C1968 1.391 . S
C1970 C1971 1.400 . S
C1971 C1970 1.400 . S
C1971 C1972 1.398 . S
C1971 C1977 1.491 . S
C1972 H1963 0.950 . S
C1972 C1971 1.398 . S
C1972 C1973 1.391 . S
C1973 H1961 0.950 . S
C1973 C1969 1.393 . S
C1973 C1972 1.391 . S
C1974 H1964 0.950 . S
C1974 C1975 1.386 . S
C1974 C1976 1.391 . S
C1975 C1974 1.386 . S
C1975 C1979 1.393 . S
C1976 H1965 0.950 . S
C1976 C1974 1.391 . S
C1976 C1977 1.400 . S
C1977 C1971 1.491 . S
C1977 C1976 1.400 . S
C1977 C1978 1.398 . S
C1978 H1966 0.950 . S
C1978 C1977 1.398 . S
C1978 C1979 1.391 . S
C1979 H1967 0.950 . S
C1979 C1975 1.393 . S
C1979 C1978 1.391 . S
H1980 C1988 0.950 . S
H1981 C1993 0.950 . S
H1982 C1990 0.950 . S
H1983 C1992 0.950 . S
H1984 C1994 0.950 1_655 S
H1985 C1996 0.950 . S
H1986 C1998 0.950 . S
H1987 C1999 0.950 . S
C1988 H1980 0.950 . S
C1988 C1989 1.386 . S
C1988 C1990 1.391 . S
C1989 C1988 1.386 . S
C1989 C1993 1.393 . S
C1990 H1982 0.950 . S
C1990 C1988 1.391 . S
C1990 C1991 1.400 . S
C1991 C1990 1.400 . S
C1991 C1992 1.398 . S
C1991 C1997 1.491 . S
C1992 H1983 0.950 . S
C1992 C1991 1.398 . S
C1992 C1993 1.391 . S
C1993 H1981 0.950 . S
C1993 C1989 1.393 . S
C1993 C1992 1.391 . S
C1994 H1984 0.950 1_455 S
C1994 C1995 1.386 . S
C1994 C1996 1.391 . S
C1995 C1994 1.386 . S
C1995 C1999 1.393 . S
C1996 H1985 0.950 . S
C1996 C1994 1.391 . S
C1996 C1997 1.400 . S
C1997 C1991 1.491 . S
C1997 C1996 1.400 . S
C1997 C1998 1.398 . S
C1998 H1986 0.950 . S
C1998 C1997 1.398 . S
C1998 C1999 1.391 . S
C1999 H1987 0.950 . S
C1999 C1995 1.393 . S
C1999 C1998 1.391 . S
H2000 C2008 0.950 . S
H2001 C2013 0.950 . S
H2002 C2010 0.947 1_565 S
H2003 C2012 0.950 . S
H2004 C2014 0.950 . S
H2005 C2016 0.950 . S
H2006 C2018 0.950 . S
H2007 C2019 0.950 . S
C2008 H2000 0.950 . S
C2008 C2009 1.386 . S
C2008 C2010 1.396 . S
C2009 C2008 1.386 . S
C2009 C2013 1.393 . S
C2010 H2002 0.947 1_545 S
C2010 C2008 1.396 . S
C2010 C2011 1.398 1_545 S
C2011 C2010 1.398 1_565 S
C2011 C2012 1.398 . S
C2011 C2017 1.491 . S
C2012 H2003 0.950 . S
C2012 C2011 1.398 . S
C2012 C2013 1.391 1_565 S
C2013 H2001 0.950 . S
C2013 C2009 1.393 . S
C2013 C2012 1.391 1_545 S
C2014 H2004 0.950 . S
C2014 C2015 1.386 . S
C2014 C2016 1.391 . S
C2015 C2014 1.386 . S
C2015 C2019 1.393 . S
C2016 H2005 0.950 . S
C2016 C2014 1.391 . S
C2016 C2017 1.400 . S
C2017 C2011 1.491 . S
C2017 C2016 1.400 . S
C2017 C2018 1.398 . S
C2018 H2006 0.950 . S
C2018 C2017 1.398 . S
C2018 C2019 1.391 . S
C2019 H2007 0.950 . S
C2019 C2015 1.393 . S
C2019 C2018 1.391 . S
H2020 C2028 0.950 . S
H2021 C2033 0.950 . S
H2022 C2030 0.950 . S
H2023 C2032 0.950 . S
H2024 C2034 0.950 . S
H2025 C2036 0.950 . S
H2026 C2038 0.950 . S
H2027 C2039 0.950 1_655 S
C2028 H2020 0.950 . S
C2028 C2029 1.386 . S
C2028 C2030 1.391 1_545 S
C2029 C2028 1.386 . S
C2029 C2033 1.393 1_545 S
C2030 H2022 0.950 . S
C2030 C2028 1.391 1_565 S
C2030 C2031 1.400 . S
C2031 C2030 1.400 . S
C2031 C2032 1.398 . S
C2031 C2037 1.491 . S
C2032 H2023 0.950 . S
C2032 C2031 1.398 . S
C2032 C2033 1.391 . S
C2033 H2021 0.950 . S
C2033 C2029 1.393 1_565 S
C2033 C2032 1.391 . S
C2034 H2024 0.950 . S
C2034 C2035 1.386 . S
C2034 C2036 1.391 . S
C2035 C2034 1.386 . S
C2035 C2039 1.393 . S
C2036 H2025 0.950 . S
C2036 C2034 1.391 . S
C2036 C2037 1.400 . S
C2037 C2031 1.491 . S
C2037 C2036 1.400 . S
C2037 C2038 1.398 . S
C2038 H2026 0.950 . S
C2038 C2037 1.398 . S
C2038 C2039 1.391 . S
C2039 H2027 0.950 1_455 S
C2039 C2035 1.393 . S
C2039 C2038 1.391 . S
H2040 C2048 0.950 . S
H2041 C2053 0.950 . S
H2042 C2050 0.950 . S
H2043 C2052 0.950 . S
H2044 C2054 0.950 . S
H2045 C2056 0.950 . S
H2046 C2058 0.950 . S
H2047 C2059 0.950 . S
C2048 H2040 0.950 . S
C2048 C2049 1.386 . S
C2048 C2050 1.391 . S
C2049 C2048 1.386 . S
C2049 C2053 1.393 . S
C2050 H2042 0.950 . S
C2050 C2048 1.391 . S
C2050 C2051 1.400 . S
C2051 C2050 1.400 . S
C2051 C2052 1.398 . S
C2051 C2057 1.491 . S
C2052 H2043 0.950 . S
C2052 C2051 1.398 . S
C2052 C2053 1.391 . S
C2053 H2041 0.950 . S
C2053 C2049 1.393 . S
C2053 C2052 1.391 . S
C2054 H2044 0.950 . S
C2054 C2055 1.386 . S
C2054 C2056 1.391 1_545 S
C2055 C2054 1.386 . S
C2055 C2059 1.393 . S
C2056 H2045 0.950 . S
C2056 C2054 1.391 1_565 S
C2056 C2057 1.400 . S
C2057 C2051 1.491 . S
C2057 C2056 1.400 . S
C2057 C2058 1.398 . S
C2058 H2046 0.950 . S
C2058 C2057 1.398 . S
C2058 C2059 1.391 1_565 S
C2059 H2047 0.950 . S
C2059 C2055 1.393 . S
C2059 C2058 1.391 1_545 S
H2060 C2068 0.950 . S
H2061 C2073 0.950 . S
H2062 C2070 0.950 . S
H2063 C2072 0.950 . S
H2064 C2074 0.950 . S
H2065 C2076 0.950 . S
H2066 C2078 0.950 . S
H2067 C2079 0.950 . S
C2068 H2060 0.950 . S
C2068 C2069 1.386 . S
C2068 C2070 1.391 1_545 S
C2069 C2068 1.386 . S
C2069 C2073 1.393 . S
C2070 H2062 0.950 . S
C2070 C2068 1.391 1_565 S
C2070 C2071 1.400 . S
C2071 C2070 1.400 . S
C2071 C2072 1.398 . S
C2071 C2077 1.491 . S
C2072 H2063 0.950 . S
C2072 C2071 1.398 . S
C2072 C2073 1.391 1_565 S
C2073 H2061 0.950 . S
C2073 C2069 1.393 . S
C2073 C2072 1.391 1_545 S
C2074 H2064 0.950 . S
C2074 C2075 1.386 . S
C2074 C2076 1.391 . S
C2075 C2074 1.386 . S
C2075 C2079 1.393 . S
C2076 H2065 0.950 . S
C2076 C2074 1.391 . S
C2076 C2077 1.400 . S
C2077 C2071 1.491 . S
C2077 C2076 1.400 . S
C2077 C2078 1.398 . S
C2078 H2066 0.950 . S
C2078 C2077 1.398 . S
C2078 C2079 1.391 . S
C2079 H2067 0.950 . S
C2079 C2075 1.393 . S
C2079 C2078 1.391 . S
H2080 C2088 0.950 . S
H2081 C2093 0.950 . S
H2082 C2090 0.950 . S
H2083 C2092 0.950 . S
H2084 C2094 0.950 1_655 S
H2085 C2096 0.950 . S
H2086 C2098 0.950 . S
H2087 C2099 0.950 . S
C2088 H2080 0.950 . S
C2088 C2089 1.386 . S
C2088 C2090 1.391 . S
C2089 C2088 1.386 . S
C2089 C2093 1.393 . S
C2090 H2082 0.950 . S
C2090 C2088 1.391 . S
C2090 C2091 1.400 . S
C2091 C2090 1.400 . S
C2091 C2092 1.398 . S
C2091 C2097 1.491 . S
C2092 H2083 0.950 . S
C2092 C2091 1.398 . S
C2092 C2093 1.391 . S
C2093 H2081 0.950 . S
C2093 C2089 1.393 . S
C2093 C2092 1.391 . S
C2094 H2084 0.950 1_455 S
C2094 C2095 1.386 . S
C2094 C2096 1.391 . S
C2095 C2094 1.386 . S
C2095 C2099 1.393 . S
C2096 H2085 0.950 . S
C2096 C2094 1.391 . S
C2096 C2097 1.400 . S
C2097 C2091 1.491 . S
C2097 C2096 1.400 . S
C2097 C2098 1.398 . S
C2098 H2086 0.950 . S
C2098 C2097 1.398 . S
C2098 C2099 1.391 . S
C2099 H2087 0.950 . S
C2099 C2095 1.393 . S
C2099 C2098 1.391 . S
H2100 C2108 0.950 . S
H2101 C2113 0.950 . S
H2102 C2110 0.950 . S
H2103 C2112 0.950 . S
H2104 C2114 0.950 . S
H2105 C2116 0.950 . S
H2106 C2118 0.950 . S
H2107 C2119 0.950 . S
C2108 H2100 0.950 . S
C2108 C2109 1.386 . S
C2108 C2110 1.391 . S
C2109 C2108 1.386 . S
C2109 C2113 1.393 . S
C2110 H2102 0.950 . S
C2110 C2108 1.391 . S
C2110 C2111 1.400 . S
C2111 C2110 1.400 . S
C2111 C2112 1.398 . S
C2111 C2117 1.491 . S
C2112 H2103 0.950 . S
C2112 C2111 1.398 . S
C2112 C2113 1.391 . S
C2113 H2101 0.950 . S
C2113 C2109 1.393 . S
C2113 C2112 1.391 . S
C2114 H2104 0.950 . S
C2114 C2115 1.386 . S
C2114 C2116 1.391 . S
C2115 C2114 1.386 . S
C2115 C2119 1.393 . S
C2116 H2105 0.950 . S
C2116 C2114 1.391 . S
C2116 C2117 1.400 . S
C2117 C2111 1.491 . S
C2117 C2116 1.400 . S
C2117 C2118 1.398 . S
C2118 H2106 0.950 . S
C2118 C2117 1.398 . S
C2118 C2119 1.391 . S
C2119 H2107 0.950 . S
C2119 C2115 1.393 . S
C2119 C2118 1.391 . S
H2120 C2128 0.950 . S
H2121 C2133 0.950 . S
H2122 C2130 0.950 . S
H2123 C2132 0.950 . S
H2124 C2134 0.950 . S
H2125 C2136 0.950 . S
H2126 C2138 0.950 . S
H2127 C2139 0.950 . S
C2128 H2120 0.950 . S
C2128 C2129 1.386 . S
C2128 C2130 1.391 . S
C2129 C2128 1.386 . S
C2129 C2133 1.393 . S
C2130 H2122 0.950 . S
C2130 C2128 1.391 . S
C2130 C2131 1.400 . S
C2131 C2130 1.400 . S
C2131 C2132 1.398 . S
C2131 C2137 1.491 . S
C2132 H2123 0.950 . S
C2132 C2131 1.398 . S
C2132 C2133 1.391 . S
C2133 H2121 0.950 . S
C2133 C2129 1.393 . S
C2133 C2132 1.391 . S
C2134 H2124 0.950 . S
C2134 C2135 1.386 . S
C2134 C2136 1.391 . S
C2135 C2134 1.386 . S
C2135 C2139 1.393 . S
C2136 H2125 0.950 . S
C2136 C2134 1.391 . S
C2136 C2137 1.400 . S
C2137 C2131 1.491 . S
C2137 C2136 1.400 . S
C2137 C2138 1.398 . S
C2138 H2126 0.950 . S
C2138 C2137 1.398 . S
C2138 C2139 1.391 . S
C2139 H2127 0.950 . S
C2139 C2135 1.393 . S
C2139 C2138 1.391 . S
H2140 C2148 0.950 . S
H2141 C2153 0.950 . S
H2142 C2150 0.950 . S
H2143 C2152 0.950 . S
H2144 C2154 0.950 . S
H2145 C2156 0.950 . S
H2146 C2158 0.950 . S
H2147 C2159 0.950 . S
C2148 H2140 0.950 . S
C2148 C2149 1.386 . S
C2148 C2150 1.391 . S
C2149 C2148 1.386 . S
C2149 C2153 1.393 . S
C2150 H2142 0.950 . S
C2150 C2148 1.391 . S
C2150 C2151 1.400 . S
C2151 C2150 1.400 . S
C2151 C2152 1.398 . S
C2151 C2157 1.491 . S
C2152 H2143 0.950 . S
C2152 C2151 1.398 . S
C2152 C2153 1.391 . S
C2153 H2141 0.950 . S
C2153 C2149 1.393 . S
C2153 C2152 1.391 . S
C2154 H2144 0.950 . S
C2154 C2155 1.386 . S
C2154 C2156 1.391 . S
C2155 C2154 1.386 . S
C2155 C2159 1.393 . S
C2156 H2145 0.950 . S
C2156 C2154 1.391 . S
C2156 C2157 1.400 . S
C2157 C2151 1.491 . S
C2157 C2156 1.400 . S
C2157 C2158 1.398 . S
C2158 H2146 0.950 . S
C2158 C2157 1.398 . S
C2158 C2159 1.391 . S
C2159 H2147 0.950 . S
C2159 C2155 1.393 . S
C2159 C2158 1.391 . S
H2160 C2168 0.950 . S
H2161 C2173 0.950 . S
H2162 C2170 0.950 . S
H2163 C2172 0.950 . S
H2164 C2174 0.950 . S
H2165 C2176 0.950 . S
H2166 C2178 0.950 . S
H2167 C2179 0.950 . S
C2168 H2160 0.950 . S
C2168 C2169 1.386 . S
C2168 C2170 1.391 . S
C2169 C2168 1.386 . S
C2169 C2173 1.393 . S
C2170 H2162 0.950 . S
C2170 C2168 1.391 . S
C2170 C2171 1.400 . S
C2171 C2170 1.400 . S
C2171 C2172 1.398 . S
C2171 C2177 1.491 . S
C2172 H2163 0.950 . S
C2172 C2171 1.398 . S
C2172 C2173 1.391 . S
C2173 H2161 0.950 . S
C2173 C2169 1.393 . S
C2173 C2172 1.391 . S
C2174 H2164 0.950 . S
C2174 C2175 1.386 . S
C2174 C2176 1.391 . S
C2175 C2174 1.386 . S
C2175 C2179 1.393 . S
C2176 H2165 0.950 . S
C2176 C2174 1.391 . S
C2176 C2177 1.400 . S
C2177 C2171 1.491 . S
C2177 C2176 1.400 . S
C2177 C2178 1.398 . S
C2178 H2166 0.950 . S
C2178 C2177 1.398 . S
C2178 C2179 1.391 . S
C2179 H2167 0.950 . S
C2179 C2175 1.393 . S
C2179 C2178 1.391 . S
H2180 C2188 0.950 . S
H2181 C2193 0.950 . S
H2182 C2190 0.950 . S
H2183 C2192 0.950 . S
H2184 C2194 0.950 . S
H2185 C2196 0.950 . S
H2186 C2198 0.950 . S
H2187 C2199 0.950 . S
C2188 H2180 0.950 . S
C2188 C2189 1.386 . S
C2188 C2190 1.391 . S
C2189 C2188 1.386 . S
C2189 C2193 1.393 . S
C2190 H2182 0.950 . S
C2190 C2188 1.391 . S
C2190 C2191 1.400 . S
C2191 C2190 1.400 . S
C2191 C2192 1.398 . S
C2191 C2197 1.491 . S
C2192 H2183 0.950 . S
C2192 C2191 1.398 . S
C2192 C2193 1.391 . S
C2193 H2181 0.950 . S
C2193 C2189 1.393 . S
C2193 C2192 1.391 . S
C2194 H2184 0.950 . S
C2194 C2195 1.386 . S
C2194 C2196 1.391 . S
C2195 C2194 1.386 . S
C2195 C2199 1.393 . S
C2196 H2185 0.950 . S
C2196 C2194 1.391 . S
C2196 C2197 1.400 . S
C2197 C2191 1.491 . S
C2197 C2196 1.400 . S
C2197 C2198 1.398 . S
C2198 H2186 0.950 . S
C2198 C2197 1.398 . S
C2198 C2199 1.391 . S
C2199 H2187 0.950 . S
C2199 C2195 1.393 . S
C2199 C2198 1.391 . S
H2200 C2208 0.950 . S
H2201 C2213 0.950 . S
H2202 C2210 0.950 . S
H2203 C2212 0.950 . S
H2204 C2214 0.950 . S
H2205 C2216 0.950 . S
H2206 C2218 0.950 . S
H2207 C2219 0.950 . S
C2208 H2200 0.950 . S
C2208 C2209 1.386 . S
C2208 C2210 1.391 . S
C2209 C2208 1.386 . S
C2209 C2213 1.393 . S
C2210 H2202 0.950 . S
C2210 C2208 1.391 . S
C2210 C2211 1.400 . S
C2211 C2210 1.400 . S
C2211 C2212 1.398 . S
C2211 C2217 1.491 . S
C2212 H2203 0.950 . S
C2212 C2211 1.398 . S
C2212 C2213 1.391 . S
C2213 H2201 0.950 . S
C2213 C2209 1.393 . S
C2213 C2212 1.391 . S
C2214 H2204 0.950 . S
C2214 C2215 1.386 . S
C2214 C2216 1.391 . S
C2215 C2214 1.386 . S
C2215 C2219 1.393 . S
C2216 H2205 0.950 . S
C2216 C2214 1.391 . S
C2216 C2217 1.400 . S
C2217 C2211 1.491 . S
C2217 C2216 1.400 . S
C2217 C2218 1.398 . S
C2218 H2206 0.950 . S
C2218 C2217 1.398 . S
C2218 C2219 1.391 . S
C2219 H2207 0.950 . S
C2219 C2215 1.393 . S
C2219 C2218 1.391 . S
H2220 C2228 0.950 . S
H2221 C2233 0.950 . S
H2222 C2230 0.950 . S
H2223 C2232 0.950 . S
H2224 C2234 0.950 . S
H2225 C2236 0.950 . S
H2226 C2238 0.950 . S
H2227 C2239 0.950 . S
C2228 H2220 0.950 . S
C2228 C2229 1.386 . S
C2228 C2230 1.391 . S
C2229 C2228 1.386 . S
C2229 C2233 1.393 . S
C2230 H2222 0.950 . S
C2230 C2228 1.391 . S
C2230 C2231 1.400 . S
C2231 C2230 1.400 . S
C2231 C2232 1.398 . S
C2231 C2237 1.491 . S
C2232 H2223 0.950 . S
C2232 C2231 1.398 . S
C2232 C2233 1.391 . S
C2233 H2221 0.950 . S
C2233 C2229 1.393 . S
C2233 C2232 1.391 . S
C2234 H2224 0.950 . S
C2234 C2235 1.386 . S
C2234 C2236 1.391 . S
C2235 C2234 1.386 . S
C2235 C2239 1.393 . S
C2236 H2225 0.950 . S
C2236 C2234 1.391 . S
C2236 C2237 1.400 . S
C2237 C2231 1.491 . S
C2237 C2236 1.400 . S
C2237 C2238 1.398 . S
C2238 H2226 0.950 . S
C2238 C2237 1.398 . S
C2238 C2239 1.391 . S
C2239 H2227 0.950 . S
C2239 C2235 1.393 . S
C2239 C2238 1.391 . S
H2240 C2248 0.950 . S
H2241 C2253 0.950 . S
H2242 C2250 0.950 . S
H2243 C2252 0.950 . S
H2244 C2254 0.950 . S
H2245 C2256 0.950 . S
H2246 C2258 0.950 . S
H2247 C2259 0.950 . S
C2248 H2240 0.950 . S
C2248 C2249 1.386 . S
C2248 C2250 1.391 . S
C2249 C2248 1.386 . S
C2249 C2253 1.393 . S
C2250 H2242 0.950 . S
C2250 C2248 1.391 . S
C2250 C2251 1.400 . S
C2251 C2250 1.400 . S
C2251 C2252 1.398 . S
C2251 C2257 1.491 . S
C2252 H2243 0.950 . S
C2252 C2251 1.398 . S
C2252 C2253 1.391 . S
C2253 H2241 0.950 . S
C2253 C2249 1.393 . S
C2253 C2252 1.391 . S
C2254 H2244 0.950 . S
C2254 C2255 1.386 . S
C2254 C2256 1.391 . S
C2255 C2254 1.386 . S
C2255 C2259 1.393 . S
C2256 H2245 0.950 . S
C2256 C2254 1.391 . S
C2256 C2257 1.400 . S
C2257 C2251 1.491 . S
C2257 C2256 1.400 . S
C2257 C2258 1.398 . S
C2258 H2246 0.950 . S
C2258 C2257 1.398 . S
C2258 C2259 1.391 . S
C2259 H2247 0.950 . S
C2259 C2255 1.393 . S
C2259 C2258 1.391 . S
H2260 C2268 0.950 . S
H2261 C2273 0.950 . S
H2262 C2270 0.950 . S
H2263 C2272 0.950 . S
H2264 C2274 0.950 . S
H2265 C2276 0.950 . S
H2266 C2278 0.950 . S
H2267 C2279 0.950 . S
C2268 H2260 0.950 . S
C2268 C2269 1.386 . S
C2268 C2270 1.391 . S
C2269 C2268 1.386 . S
C2269 C2273 1.393 . S
C2270 H2262 0.950 . S
C2270 C2268 1.391 . S
C2270 C2271 1.400 . S
C2271 C2270 1.400 . S
C2271 C2272 1.398 . S
C2271 C2277 1.491 . S
C2272 H2263 0.950 . S
C2272 C2271 1.398 . S
C2272 C2273 1.391 . S
C2273 H2261 0.950 . S
C2273 C2269 1.393 . S
C2273 C2272 1.391 . S
C2274 H2264 0.950 . S
C2274 C2275 1.386 . S
C2274 C2276 1.391 . S
C2275 C2274 1.386 . S
C2275 C2279 1.393 . S
C2276 H2265 0.950 . S
C2276 C2274 1.391 . S
C2276 C2277 1.400 . S
C2277 C2271 1.491 . S
C2277 C2276 1.400 . S
C2277 C2278 1.398 . S
C2278 H2266 0.950 . S
C2278 C2277 1.398 . S
C2278 C2279 1.391 . S
C2279 H2267 0.950 . S
C2279 C2275 1.393 . S
C2279 C2278 1.391 . S
H2280 C2288 0.950 . S
H2281 C2293 0.950 . S
H2282 C2290 0.950 . S
H2283 C2292 0.950 . S
H2284 C2294 0.950 . S
H2285 C2296 0.950 . S
H2286 C2298 0.950 . S
H2287 C2299 0.950 . S
C2288 H2280 0.950 . S
C2288 C2289 1.386 . S
C2288 C2290 1.391 . S
C2289 C2288 1.386 . S
C2289 C2293 1.393 . S
C2290 H2282 0.950 . S
C2290 C2288 1.391 . S
C2290 C2291 1.400 . S
C2291 C2290 1.400 . S
C2291 C2292 1.398 . S
C2291 C2297 1.491 . S
C2292 H2283 0.950 . S
C2292 C2291 1.398 . S
C2292 C2293 1.391 . S
C2293 H2281 0.950 . S
C2293 C2289 1.393 . S
C2293 C2292 1.391 . S
C2294 H2284 0.950 . S
C2294 C2295 1.386 . S
C2294 C2296 1.391 . S
C2295 C2294 1.386 . S
C2295 C2299 1.393 . S
C2296 H2285 0.950 . S
C2296 C2294 1.391 . S
C2296 C2297 1.400 . S
C2297 C2291 1.491 . S
C2297 C2296 1.400 . S
C2297 C2298 1.398 . S
C2298 H2286 0.950 . S
C2298 C2297 1.398 . S
C2298 C2299 1.391 . S
C2299 H2287 0.950 . S
C2299 C2295 1.393 . S
C2299 C2298 1.391 . S
H2300 C2308 0.950 . S
H2301 C2313 0.950 . S
H2302 C2310 0.950 . S
H2303 C2312 0.950 . S
H2304 C2314 0.950 . S
H2305 C2316 0.950 . S
H2306 C2318 0.950 . S
H2307 C2319 0.950 . S
C2308 H2300 0.950 . S
C2308 C2309 1.386 . S
C2308 C2310 1.391 . S
C2309 C2308 1.386 . S
C2309 C2313 1.393 . S
C2310 H2302 0.950 . S
C2310 C2308 1.391 . S
C2310 C2311 1.400 . S
C2311 C2310 1.400 . S
C2311 C2312 1.398 . S
C2311 C2317 1.491 . S
C2312 H2303 0.950 . S
C2312 C2311 1.398 . S
C2312 C2313 1.391 . S
C2313 H2301 0.950 . S
C2313 C2309 1.393 . S
C2313 C2312 1.391 . S
C2314 H2304 0.950 . S
C2314 C2315 1.386 . S
C2314 C2316 1.391 . S
C2315 C2314 1.386 . S
C2315 C2319 1.393 . S
C2316 H2305 0.950 . S
C2316 C2314 1.391 . S
C2316 C2317 1.400 . S
C2317 C2311 1.491 . S
C2317 C2316 1.400 . S
C2317 C2318 1.398 . S
C2318 H2306 0.950 . S
C2318 C2317 1.398 . S
C2318 C2319 1.391 . S
C2319 H2307 0.950 . S
C2319 C2315 1.393 . S
C2319 C2318 1.391 . S
H2320 C2328 0.950 . S
H2321 C2333 0.950 . S
H2322 C2330 0.950 . S
H2323 C2332 0.950 . S
H2324 C2334 0.950 . S
H2325 C2336 0.950 . S
H2326 C2338 0.950 . S
H2327 C2339 0.950 . S
C2328 H2320 0.950 . S
C2328 C2329 1.386 . S
C2328 C2330 1.391 . S
C2329 C2328 1.386 . S
C2329 C2333 1.393 . S
C2330 H2322 0.950 . S
C2330 C2328 1.391 . S
C2330 C2331 1.400 . S
C2331 C2330 1.400 . S
C2331 C2332 1.398 . S
C2331 C2337 1.491 . S
C2332 H2323 0.950 . S
C2332 C2331 1.398 . S
C2332 C2333 1.391 . S
C2333 H2321 0.950 . S
C2333 C2329 1.393 . S
C2333 C2332 1.391 . S
C2334 H2324 0.950 . S
C2334 C2335 1.386 . S
C2334 C2336 1.391 . S
C2335 C2334 1.386 . S
C2335 C2339 1.393 . S
C2336 H2325 0.950 . S
C2336 C2334 1.391 . S
C2336 C2337 1.400 . S
C2337 C2331 1.491 . S
C2337 C2336 1.400 . S
C2337 C2338 1.398 . S
C2338 H2326 0.950 . S
C2338 C2337 1.398 . S
C2338 C2339 1.391 . S
C2339 H2327 0.950 . S
C2339 C2335 1.393 . S
C2339 C2338 1.391 . S
H2340 C2348 0.950 . S
H2341 C2353 0.950 . S
H2342 C2350 0.950 . S
H2343 C2352 0.950 . S
H2344 C2354 0.950 . S
H2345 C2356 0.950 . S
H2346 C2358 0.950 . S
H2347 C2359 0.950 . S
C2348 H2340 0.950 . S
C2348 C2349 1.386 . S
C2348 C2350 1.391 . S
C2349 C2348 1.386 . S
C2349 C2353 1.393 . S
C2350 H2342 0.950 . S
C2350 C2348 1.391 . S
C2350 C2351 1.400 . S
C2351 C2350 1.400 . S
C2351 C2352 1.398 . S
C2351 C2357 1.491 . S
C2352 H2343 0.950 . S
C2352 C2351 1.398 . S
C2352 C2353 1.391 . S
C2353 H2341 0.950 . S
C2353 C2349 1.393 . S
C2353 C2352 1.391 . S
C2354 H2344 0.950 . S
C2354 C2355 1.386 . S
C2354 C2356 1.391 . S
C2355 C2354 1.386 . S
C2355 C2359 1.393 . S
C2356 H2345 0.950 . S
C2356 C2354 1.391 . S
C2356 C2357 1.400 . S
C2357 C2351 1.491 . S
C2357 C2356 1.400 . S
C2357 C2358 1.398 . S
C2358 H2346 0.950 . S
C2358 C2357 1.398 . S
C2358 C2359 1.391 . S
C2359 H2347 0.950 . S
C2359 C2355 1.393 . S
C2359 C2358 1.391 . S
H2360 C2368 0.950 . S
H2361 C2373 0.950 . S
H2362 C2370 0.950 . S
H2363 C2372 0.950 . S
H2364 C2374 0.950 . S
H2365 C2376 0.950 . S
H2366 C2378 0.950 . S
H2367 C2379 0.950 . S
C2368 H2360 0.950 . S
C2368 C2369 1.386 . S
C2368 C2370 1.391 . S
C2369 C2368 1.386 . S
C2369 C2373 1.393 . S
C2370 H2362 0.950 . S
C2370 C2368 1.391 . S
C2370 C2371 1.400 . S
C2371 C2370 1.400 . S
C2371 C2372 1.398 . S
C2371 C2377 1.491 . S
C2372 H2363 0.950 . S
C2372 C2371 1.398 . S
C2372 C2373 1.391 . S
C2373 H2361 0.950 . S
C2373 C2369 1.393 . S
C2373 C2372 1.391 . S
C2374 H2364 0.950 . S
C2374 C2375 1.386 . S
C2374 C2376 1.391 . S
C2375 C2374 1.386 . S
C2375 C2379 1.393 . S
C2376 H2365 0.950 . S
C2376 C2374 1.391 . S
C2376 C2377 1.400 . S
C2377 C2371 1.491 . S
C2377 C2376 1.400 . S
C2377 C2378 1.398 . S
C2378 H2366 0.950 . S
C2378 C2377 1.398 . S
C2378 C2379 1.391 . S
C2379 H2367 0.950 . S
C2379 C2375 1.393 . S
C2379 C2378 1.391 . S
H2380 C2388 0.950 . S
H2381 C2393 0.950 . S
H2382 C2390 0.950 . S
H2383 C2392 0.950 . S
H2384 C2394 0.950 . S
H2385 C2396 0.950 . S
H2386 C2398 0.950 . S
H2387 C2399 0.950 . S
C2388 H2380 0.950 . S
C2388 C2389 1.386 . S
C2388 C2390 1.391 . S
C2389 C2388 1.386 . S
C2389 C2393 1.393 . S
C2390 H2382 0.950 . S
C2390 C2388 1.391 . S
C2390 C2391 1.400 . S
C2391 C2390 1.400 . S
C2391 C2392 1.398 . S
C2391 C2397 1.491 . S
C2392 H2383 0.950 . S
C2392 C2391 1.398 . S
C2392 C2393 1.391 . S
C2393 H2381 0.950 . S
C2393 C2389 1.393 . S
C2393 C2392 1.391 . S
C2394 H2384 0.950 . S
C2394 C2395 1.386 . S
C2394 C2396 1.391 . S
C2395 C2394 1.386 . S
C2395 C2399 1.393 . S
C2396 H2385 0.950 . S
C2396 C2394 1.391 . S
C2396 C2397 1.400 . S
C2397 C2391 1.491 . S
C2397 C2396 1.400 . S
C2397 C2398 1.398 . S
C2398 H2386 0.950 . S
C2398 C2397 1.398 . S
C2398 C2399 1.391 . S
C2399 H2387 0.950 . S
C2399 C2395 1.393 . S
C2399 C2398 1.391 . S
H2400 C2408 0.950 . S
H2401 C2413 0.950 . S
H2402 C2410 0.950 . S
H2403 C2412 0.950 . S
H2404 C2414 0.950 . S
H2405 C2416 0.950 . S
H2406 C2418 0.950 . S
H2407 C2419 0.950 . S
C2408 H2400 0.950 . S
C2408 C2409 1.386 . S
C2408 C2410 1.391 . S
C2409 C2408 1.386 . S
C2409 C2413 1.393 . S
C2410 H2402 0.950 . S
C2410 C2408 1.391 . S
C2410 C2411 1.400 . S
C2411 C2410 1.400 . S
C2411 C2412 1.398 . S
C2411 C2417 1.491 . S
C2412 H2403 0.950 . S
C2412 C2411 1.398 . S
C2412 C2413 1.391 . S
C2413 H2401 0.950 . S
C2413 C2409 1.393 . S
C2413 C2412 1.391 . S
C2414 H2404 0.950 . S
C2414 C2415 1.386 . S
C2414 C2416 1.391 . S
C2415 C2414 1.386 . S
C2415 C2419 1.393 . S
C2416 H2405 0.950 . S
C2416 C2414 1.391 . S
C2416 C2417 1.400 . S
C2417 C2411 1.491 . S
C2417 C2416 1.400 . S
C2417 C2418 1.398 . S
C2418 H2406 0.950 . S
C2418 C2417 1.398 . S
C2418 C2419 1.391 . S
C2419 H2407 0.950 . S
C2419 C2415 1.393 . S
C2419 C2418 1.391 . S
H2420 C2428 0.950 . S
H2421 C2433 0.950 . S
H2422 C2430 0.950 . S
H2423 C2432 0.950 . S
H2424 C2434 0.950 . S
H2425 C2436 0.950 . S
H2426 C2438 0.950 . S
H2427 C2439 0.950 . S
C2428 H2420 0.950 . S
C2428 C2429 1.386 . S
C2428 C2430 1.391 . S
C2429 C2428 1.386 . S
C2429 C2433 1.393 . S
C2430 H2422 0.950 . S
C2430 C2428 1.391 . S
C2430 C2431 1.400 . S
C2431 C2430 1.400 . S
C2431 C2432 1.398 . S
C2431 C2437 1.491 . S
C2432 H2423 0.950 . S
C2432 C2431 1.398 . S
C2432 C2433 1.391 . S
C2433 H2421 0.950 . S
C2433 C2429 1.393 . S
C2433 C2432 1.391 . S
C2434 H2424 0.950 . S
C2434 C2435 1.386 . S
C2434 C2436 1.391 . S
C2435 C2434 1.386 . S
C2435 C2439 1.393 . S
C2436 H2425 0.950 . S
C2436 C2434 1.391 . S
C2436 C2437 1.400 . S
C2437 C2431 1.491 . S
C2437 C2436 1.400 . S
C2437 C2438 1.398 . S
C2438 H2426 0.950 . S
C2438 C2437 1.398 . S
C2438 C2439 1.391 . S
C2439 H2427 0.950 . S
C2439 C2435 1.393 . S
C2439 C2438 1.391 . S
H2440 C2448 0.950 . S
H2441 C2453 0.950 . S
H2442 C2450 0.950 . S
H2443 C2452 0.950 . S
H2444 C2454 0.950 . S
H2445 C2456 0.950 . S
H2446 C2458 0.950 . S
H2447 C2459 0.950 . S
C2448 H2440 0.950 . S
C2448 C2449 1.386 . S
C2448 C2450 1.391 . S
C2449 C2448 1.386 . S
C2449 C2453 1.393 . S
C2450 H2442 0.950 . S
C2450 C2448 1.391 . S
C2450 C2451 1.400 . S
C2451 C2450 1.400 . S
C2451 C2452 1.398 . S
C2451 C2457 1.491 . S
C2452 H2443 0.950 . S
C2452 C2451 1.398 . S
C2452 C2453 1.391 . S
C2453 H2441 0.950 . S
C2453 C2449 1.393 . S
C2453 C2452 1.391 . S
C2454 H2444 0.950 . S
C2454 C2455 1.386 . S
C2454 C2456 1.391 . S
C2455 C2454 1.386 . S
C2455 C2459 1.393 . S
C2456 H2445 0.950 . S
C2456 C2454 1.391 . S
C2456 C2457 1.400 . S
C2457 C2451 1.491 . S
C2457 C2456 1.400 . S
C2457 C2458 1.398 . S
C2458 H2446 0.950 . S
C2458 C2457 1.398 . S
C2458 C2459 1.391 . S
C2459 H2447 0.950 . S
C2459 C2455 1.393 . S
C2459 C2458 1.391 . S
H2460 C2468 0.950 . S
H2461 C2473 0.950 . S
H2462 C2470 0.950 . S
H2463 C2472 0.950 . S
H2464 C2474 0.950 . S
H2465 C2476 0.950 . S
H2466 C2478 0.950 . S
H2467 C2479 0.950 . S
C2468 H2460 0.950 . S
C2468 C2469 1.386 . S
C2468 C2470 1.391 . S
C2469 C2468 1.386 . S
C2469 C2473 1.393 . S
C2470 H2462 0.950 . S
C2470 C2468 1.391 . S
C2470 C2471 1.400 1_455 S
C2471 C2470 1.400 1_655 S
C2471 C2472 1.398 . S
C2471 C2477 1.491 . S
C2472 H2463 0.950 . S
C2472 C2471 1.398 . S
C2472 C2473 1.391 1_655 S
C2473 H2461 0.950 . S
C2473 C2469 1.393 . S
C2473 C2472 1.391 1_455 S
C2474 H2464 0.950 . S
C2474 C2475 1.386 . S
C2474 C2476 1.391 . S
C2475 C2474 1.386 . S
C2475 C2479 1.393 . S
C2476 H2465 0.950 . S
C2476 C2474 1.391 . S
C2476 C2477 1.400 . S
C2477 C2471 1.491 . S
C2477 C2476 1.400 . S
C2477 C2478 1.398 . S
C2478 H2466 0.950 . S
C2478 C2477 1.398 . S
C2478 C2479 1.391 . S
C2479 H2467 0.950 . S
C2479 C2475 1.393 . S
C2479 C2478 1.391 . S
H2480 C2488 0.950 . S
H2481 C2493 0.950 . S
H2482 C2490 0.950 . S
H2483 C2492 0.950 . S
H2484 C2494 0.950 . S
H2485 C2496 0.950 . S
H2486 C2498 0.950 . S
H2487 C2499 0.950 . S
C2488 H2480 0.950 . S
C2488 C2489 1.386 . S
C2488 C2490 1.391 . S
C2489 C2488 1.386 . S
C2489 C2493 1.393 . S
C2490 H2482 0.950 . S
C2490 C2488 1.391 . S
C2490 C2491 1.400 . S
C2491 C2490 1.400 . S
C2491 C2492 1.398 . S
C2491 C2497 1.491 . S
C2492 H2483 0.950 . S
C2492 C2491 1.398 . S
C2492 C2493 1.391 . S
C2493 H2481 0.950 . S
C2493 C2489 1.393 . S
C2493 C2492 1.391 . S
C2494 H2484 0.950 . S
C2494 C2495 1.386 . S
C2494 C2496 1.391 . S
C2495 C2494 1.386 . S
C2495 C2499 1.393 . S
C2496 H2485 0.950 . S
C2496 C2494 1.391 . S
C2496 C2497 1.400 . S
C2497 C2491 1.491 . S
C2497 C2496 1.400 . S
C2497 C2498 1.398 . S
C2498 H2486 0.950 . S
C2498 C2497 1.398 . S
C2498 C2499 1.391 . S
C2499 H2487 0.950 . S
C2499 C2495 1.393 . S
C2499 C2498 1.391 . S
H2500 C2508 0.950 . S
H2501 C2513 0.950 . S
H2502 C2510 0.950 . S
H2503 C2512 0.950 . S
H2504 C2514 0.950 . S
H2505 C2516 0.950 . S
H2506 C2518 0.950 . S
H2507 C2519 0.950 . S
C2508 H2500 0.950 . S
C2508 C2509 1.386 . S
C2508 C2510 1.391 1_455 S
C2509 C2508 1.386 . S
C2509 C2513 1.393 1_455 S
C2510 H2502 0.950 . S
C2510 C2508 1.391 1_655 S
C2510 C2511 1.400 . S
C2511 C2510 1.400 . S
C2511 C2512 1.398 . S
C2511 C2517 1.491 . S
C2512 H2503 0.950 . S
C2512 C2511 1.398 . S
C2512 C2513 1.391 . S
C2513 H2501 0.950 . S
C2513 C2509 1.393 1_655 S
C2513 C2512 1.391 . S
C2514 H2504 0.950 . S
C2514 C2515 1.386 1_545 S
C2514 C2516 1.391 . S
C2515 C2514 1.386 1_565 S
C2515 C2519 1.393 . S
C2516 H2505 0.950 . S
C2516 C2514 1.391 . S
C2516 C2517 1.400 . S
C2517 C2511 1.491 . S
C2517 C2516 1.400 . S
C2517 C2518 1.398 . S
C2518 H2506 0.950 . S
C2518 C2517 1.398 . S
C2518 C2519 1.391 1_545 S
C2519 H2507 0.950 . S
C2519 C2515 1.393 . S
C2519 C2518 1.391 1_565 S
H2520 C2528 0.944 1_565 S
H2521 C2533 0.950 1_565 S
H2522 C2530 0.950 . S
H2523 C2532 0.950 . S
H2524 C2534 0.950 . S
H2525 C2536 0.950 . S
H2526 C2538 0.950 . S
H2527 C2539 0.950 . S
C2528 H2520 0.944 1_545 S
C2528 C2529 1.381 1_545 S
C2528 C2530 1.401 . S
C2529 C2528 1.381 1_565 S
C2529 C2533 1.393 1_565 S
C2530 H2522 0.950 . S
C2530 C2528 1.401 . S
C2530 C2531 1.400 . S
C2531 C2530 1.400 . S
C2531 C2532 1.398 . S
C2531 C2537 1.491 . S
C2532 H2523 0.950 . S
C2532 C2531 1.398 . S
C2532 C2533 1.391 . S
C2533 H2521 0.950 1_545 S
C2533 C2529 1.393 1_545 S
C2533 C2532 1.391 . S
C2534 H2524 0.950 . S
C2534 C2535 1.386 . S
C2534 C2536 1.391 . S
C2535 C2534 1.386 . S
C2535 C2539 1.393 . S
C2536 H2525 0.950 . S
C2536 C2534 1.391 . S
C2536 C2537 1.400 . S
C2537 C2531 1.491 . S
C2537 C2536 1.400 . S
C2537 C2538 1.398 . S
C2538 H2526 0.950 . S
C2538 C2537 1.398 . S
C2538 C2539 1.391 . S
C2539 H2527 0.950 . S
C2539 C2535 1.393 . S
C2539 C2538 1.391 . S
H2540 C2548 0.950 . S
H2541 C2553 0.950 . S
H2542 C2550 0.950 . S
H2543 C2552 0.950 . S
H2544 C2554 0.950 . S
H2545 C2556 0.950 . S
H2546 C2558 0.950 . S
H2547 C2559 0.950 . S
C2548 H2540 0.950 . S
C2548 C2549 1.386 . S
C2548 C2550 1.391 1_455 S
C2549 C2548 1.386 . S
C2549 C2553 1.393 . S
C2550 H2542 0.950 . S
C2550 C2548 1.391 1_655 S
C2550 C2551 1.400 . S
C2551 C2550 1.400 . S
C2551 C2552 1.398 1_655 S
C2551 C2557 1.491 . S
C2552 H2543 0.950 . S
C2552 C2551 1.398 1_455 S
C2552 C2553 1.391 . S
C2553 H2541 0.950 . S
C2553 C2549 1.393 . S
C2553 C2552 1.391 . S
C2554 H2544 0.950 . S
C2554 C2555 1.386 . S
C2554 C2556 1.391 . S
C2555 C2554 1.386 . S
C2555 C2559 1.393 . S
C2556 H2545 0.950 . S
C2556 C2554 1.391 . S
C2556 C2557 1.400 . S
C2557 C2551 1.491 . S
C2557 C2556 1.400 . S
C2557 C2558 1.398 . S
C2558 H2546 0.950 . S
C2558 C2557 1.398 . S
C2558 C2559 1.391 . S
C2559 H2547 0.950 . S
C2559 C2555 1.393 . S
C2559 C2558 1.391 . S
H2560 C2568 0.950 . S
H2561 C2573 0.950 . S
H2562 C2570 0.950 . S
H2563 C2572 0.950 . S
H2564 C2574 0.950 . S
H2565 C2576 0.950 . S
H2566 C2578 0.950 . S
H2567 C2579 0.950 . S
C2568 H2560 0.950 . S
C2568 C2569 1.386 . S
C2568 C2570 1.391 1_455 S
C2569 C2568 1.386 . S
C2569 C2573 1.393 1_455 S
C2570 H2562 0.950 . S
C2570 C2568 1.391 1_655 S
C2570 C2571 1.400 . S
C2571 C2570 1.400 . S
C2571 C2572 1.398 . S
C2571 C2577 1.491 . S
C2572 H2563 0.950 . S
C2572 C2571 1.398 . S
C2572 C2573 1.391 . S
C2573 H2561 0.950 . S
C2573 C2569 1.393 1_655 S
C2573 C2572 1.391 . S
C2574 H2564 0.950 . S
C2574 C2575 1.386 . S
C2574 C2576 1.391 . S
C2575 C2574 1.386 . S
C2575 C2579 1.393 . S
C2576 H2565 0.950 . S
C2576 C2574 1.391 . S
C2576 C2577 1.400 . S
C2577 C2571 1.491 . S
C2577 C2576 1.400 . S
C2577 C2578 1.398 . S
C2578 H2566 0.950 . S
C2578 C2577 1.398 . S
C2578 C2579 1.391 . S
C2579 H2567 0.950 . S
C2579 C2575 1.393 . S
C2579 C2578 1.391 . S
H2580 C2588 0.950 . S
H2581 C2593 0.950 . S
H2582 C2590 0.950 . S
H2583 C2592 0.950 . S
H2584 C2594 0.950 . S
H2585 C2596 0.950 . S
H2586 C2598 0.950 . S
H2587 C2599 0.950 . S
C2588 H2580 0.950 . S
C2588 C2589 1.386 . S
C2588 C2590 1.391 . S
C2589 C2588 1.386 . S
C2589 C2593 1.393 . S
C2590 H2582 0.950 . S
C2590 C2588 1.391 . S
C2590 C2591 1.400 . S
C2591 C2590 1.400 . S
C2591 C2592 1.398 . S
C2591 C2597 1.491 . S
C2592 H2583 0.950 . S
C2592 C2591 1.398 . S
C2592 C2593 1.391 . S
C2593 H2581 0.950 . S
C2593 C2589 1.393 . S
C2593 C2592 1.391 . S
C2594 H2584 0.950 . S
C2594 C2595 1.386 . S
C2594 C2596 1.391 . S
C2595 C2594 1.386 . S
C2595 C2599 1.393 . S
C2596 H2585 0.950 . S
C2596 C2594 1.391 . S
C2596 C2597 1.400 . S
C2597 C2591 1.491 . S
C2597 C2596 1.400 . S
C2597 C2598 1.398 . S
C2598 H2586 0.950 . S
C2598 C2597 1.398 . S
C2598 C2599 1.391 . S
C2599 H2587 0.950 . S
C2599 C2595 1.393 . S
C2599 C2598 1.391 . S
H2600 C2608 0.950 . S
H2601 C2613 0.950 . S
H2602 C2610 0.950 . S
H2603 C2612 0.950 . S
H2604 C2614 0.950 . S
H2605 C2616 0.950 . S
H2606 C2618 0.950 . S
H2607 C2619 0.950 . S
C2608 H2600 0.950 . S
C2608 C2609 1.386 . S
C2608 C2610 1.391 . S
C2609 C2608 1.386 . S
C2609 C2613 1.393 . S
C2610 H2602 0.950 . S
C2610 C2608 1.391 . S
C2610 C2611 1.400 . S
C2611 C2610 1.400 . S
C2611 C2612 1.398 . S
C2611 C2617 1.491 . S
C2612 H2603 0.950 . S
C2612 C2611 1.398 . S
C2612 C2613 1.391 . S
C2613 H2601 0.950 . S
C2613 C2609 1.393 . S
C2613 C2612 1.391 . S
C2614 H2604 0.950 . S
C2614 C2615 1.386 . S
C2614 C2616 1.391 . S
C2615 C2614 1.386 . S
C2615 C2619 1.393 . S
C2616 H2605 0.950 . S
C2616 C2614 1.391 . S
C2616 C2617 1.400 . S
C2617 C2611 1.491 . S
C2617 C2616 1.400 . S
C2617 C2618 1.398 . S
C2618 H2606 0.950 . S
C2618 C2617 1.398 . S
C2618 C2619 1.391 . S
C2619 H2607 0.950 . S
C2619 C2615 1.393 . S
C2619 C2618 1.391 . S
H2620 C2628 0.950 . S
H2621 C2633 0.950 . S
H2622 C2630 0.950 . S
H2623 C2632 0.950 . S
H2624 C2634 0.950 . S
H2625 C2636 0.950 . S
H2626 C2638 0.950 . S
H2627 C2639 0.950 . S
C2628 H2620 0.950 . S
C2628 C2629 1.386 . S
C2628 C2630 1.391 . S
C2629 C2628 1.386 . S
C2629 C2633 1.393 . S
C2630 H2622 0.950 . S
C2630 C2628 1.391 . S
C2630 C2631 1.400 . S
C2631 C2630 1.400 . S
C2631 C2632 1.398 . S
C2631 C2637 1.491 . S
C2632 H2623 0.950 . S
C2632 C2631 1.398 . S
C2632 C2633 1.391 . S
C2633 H2621 0.950 . S
C2633 C2629 1.393 . S
C2633 C2632 1.391 . S
C2634 H2624 0.950 . S
C2634 C2635 1.386 . S
C2634 C2636 1.391 . S
C2635 C2634 1.386 . S
C2635 C2639 1.393 . S
C2636 H2625 0.950 . S
C2636 C2634 1.391 . S
C2636 C2637 1.400 . S
C2637 C2631 1.491 . S
C2637 C2636 1.400 . S
C2637 C2638 1.398 . S
C2638 H2626 0.950 . S
C2638 C2637 1.398 . S
C2638 C2639 1.391 . S
C2639 H2627 0.950 . S
C2639 C2635 1.393 . S
C2639 C2638 1.391 . S
H2640 C2648 0.950 . S
H2641 C2653 0.950 . S
H2642 C2650 0.950 . S
H2643 C2652 0.950 . S
H2644 C2654 0.950 . S
H2645 C2656 0.950 1_565 S
H2646 C2658 0.966 . S
H2647 C2659 0.950 . S
C2648 H2640 0.950 . S
C2648 C2649 1.386 . S
C2648 C2650 1.391 . S
C2649 C2648 1.386 . S
C2649 C2653 1.393 . S
C2650 H2642 0.950 . S
C2650 C2648 1.391 . S
C2650 C2651 1.400 . S
C2651 C2650 1.400 . S
C2651 C2652 1.398 . S
C2651 C2657 1.491 . S
C2652 H2643 0.950 . S
C2652 C2651 1.398 . S
C2652 C2653 1.391 . S
C2653 H2641 0.950 . S
C2653 C2649 1.393 . S
C2653 C2652 1.391 . S
C2654 H2644 0.950 . S
C2654 C2655 1.386 . S
C2654 C2656 1.391 . S
C2655 C2654 1.386 . S
C2655 C2659 1.393 . S
C2656 H2645 0.950 1_545 S
C2656 C2654 1.391 . S
C2656 C2657 1.400 1_545 S
C2657 C2651 1.491 . S
C2657 C2656 1.400 1_565 S
C2657 C2658 1.398 1_565 S
C2658 H2646 0.966 . S
C2658 C2657 1.398 1_545 S
C2658 C2659 1.391 . S
C2659 H2647 0.950 . S
C2659 C2655 1.393 . S
C2659 C2658 1.391 . S
H2660 C2668 0.950 1_655 S
H2661 C2673 0.950 1_655 S
H2662 C2670 0.950 . S
H2663 C2672 0.950 . S
H2664 C2674 0.950 . S
H2665 C2676 0.950 . S
H2666 C2678 0.950 . S
H2667 C2679 0.950 . S
C2668 H2660 0.950 1_455 S
C2668 C2669 1.386 1_455 S
C2668 C2670 1.391 . S
C2669 C2668 1.386 1_655 S
C2669 C2673 1.393 1_655 S
C2670 H2662 0.950 . S
C2670 C2668 1.391 . S
C2670 C2671 1.400 . S
C2671 C2670 1.400 . S
C2671 C2672 1.398 . S
C2671 C2677 1.491 . S
C2672 H2663 0.950 . S
C2672 C2671 1.398 . S
C2672 C2673 1.391 . S
C2673 H2661 0.950 1_455 S
C2673 C2669 1.393 1_455 S
C2673 C2672 1.391 . S
C2674 H2664 0.950 . S
C2674 C2675 1.386 1_565 S
C2674 C2676 1.391 . S
C2675 C2674 1.386 1_545 S
C2675 C2679 1.393 . S
C2676 H2665 0.950 . S
C2676 C2674 1.391 . S
C2676 C2677 1.400 . S
C2677 C2671 1.491 . S
C2677 C2676 1.400 . S
C2677 C2678 1.398 . S
C2678 H2666 0.950 . S
C2678 C2677 1.398 . S
C2678 C2679 1.391 1_565 S
C2679 H2667 0.950 . S
C2679 C2675 1.393 . S
C2679 C2678 1.391 1_545 S
H2680 C2688 0.950 . S
H2681 C2693 0.950 . S
H2682 C2690 0.950 . S
H2683 C2692 0.950 . S
H2684 C2694 0.950 . S
H2685 C2696 0.950 . S
H2686 C2698 0.950 . S
H2687 C2699 0.950 . S
C2688 H2680 0.950 . S
C2688 C2689 1.386 . S
C2688 C2690 1.391 . S
C2689 C2688 1.386 . S
C2689 C2693 1.393 . S
C2690 H2682 0.950 . S
C2690 C2688 1.391 . S
C2690 C2691 1.400 . S
C2691 C2690 1.400 . S
C2691 C2692 1.398 . S
C2691 C2697 1.491 . S
C2692 H2683 0.950 . S
C2692 C2691 1.398 . S
C2692 C2693 1.391 . S
C2693 H2681 0.950 . S
C2693 C2689 1.393 . S
C2693 C2692 1.391 . S
C2694 H2684 0.950 . S
C2694 C2695 1.386 . S
C2694 C2696 1.391 . S
C2695 C2694 1.386 . S
C2695 C2699 1.393 . S
C2696 H2685 0.950 . S
C2696 C2694 1.391 . S
C2696 C2697 1.400 . S
C2697 C2691 1.491 . S
C2697 C2696 1.400 . S
C2697 C2698 1.398 . S
C2698 H2686 0.950 . S
C2698 C2697 1.398 . S
C2698 C2699 1.391 . S
C2699 H2687 0.950 . S
C2699 C2695 1.393 . S
C2699 C2698 1.391 . S
H2700 C2708 0.950 . S
H2701 C2713 0.950 . S
H2702 C2710 0.950 . S
H2703 C2712 0.950 . S
H2704 C2714 0.950 . S
H2705 C2716 0.950 . S
H2706 C2718 0.950 . S
H2707 C2719 0.950 . S
C2708 H2700 0.950 . S
C2708 C2709 1.386 . S
C2708 C2710 1.391 . S
C2709 C2708 1.386 . S
C2709 C2713 1.393 . S
C2710 H2702 0.950 . S
C2710 C2708 1.391 . S
C2710 C2711 1.400 . S
C2711 C2710 1.400 . S
C2711 C2712 1.398 . S
C2711 C2717 1.491 . S
C2712 H2703 0.950 . S
C2712 C2711 1.398 . S
C2712 C2713 1.391 . S
C2713 H2701 0.950 . S
C2713 C2709 1.393 . S
C2713 C2712 1.391 . S
C2714 H2704 0.950 . S
C2714 C2715 1.386 . S
C2714 C2716 1.391 . S
C2715 C2714 1.386 . S
C2715 C2719 1.393 . S
C2716 H2705 0.950 . S
C2716 C2714 1.391 . S
C2716 C2717 1.400 . S
C2717 C2711 1.491 . S
C2717 C2716 1.400 . S
C2717 C2718 1.398 . S
C2718 H2706 0.950 . S
C2718 C2717 1.398 . S
C2718 C2719 1.391 . S
C2719 H2707 0.950 . S
C2719 C2715 1.393 . S
C2719 C2718 1.391 . S
H2720 C2728 0.950 . S
H2721 C2733 0.950 . S
H2722 C2730 0.950 . S
H2723 C2732 0.950 . S
H2724 C2734 0.950 . S
H2725 C2736 0.950 . S
H2726 C2738 0.950 . S
H2727 C2739 0.950 . S
C2728 H2720 0.950 . S
C2728 C2729 1.386 . S
C2728 C2730 1.391 . S
C2729 C2728 1.386 . S
C2729 C2733 1.393 . S
C2730 H2722 0.950 . S
C2730 C2728 1.391 . S
C2730 C2731 1.400 . S
C2731 C2730 1.400 . S
C2731 C2732 1.398 . S
C2731 C2737 1.491 . S
C2732 H2723 0.950 . S
C2732 C2731 1.398 . S
C2732 C2733 1.391 . S
C2733 H2721 0.950 . S
C2733 C2729 1.393 . S
C2733 C2732 1.391 . S
C2734 H2724 0.950 . S
C2734 C2735 1.386 . S
C2734 C2736 1.391 . S
C2735 C2734 1.386 . S
C2735 C2739 1.393 . S
C2736 H2725 0.950 . S
C2736 C2734 1.391 . S
C2736 C2737 1.400 . S
C2737 C2731 1.491 . S
C2737 C2736 1.400 . S
C2737 C2738 1.398 . S
C2738 H2726 0.950 . S
C2738 C2737 1.398 . S
C2738 C2739 1.391 . S
C2739 H2727 0.950 . S
C2739 C2735 1.393 . S
C2739 C2738 1.391 . S
H2740 C2748 0.950 . S
H2741 C2753 0.950 . S
H2742 C2750 0.950 . S
H2743 C2752 0.950 . S
H2744 C2754 0.950 . S
H2745 C2756 0.950 . S
H2746 C2758 0.950 . S
H2747 C2759 0.950 . S
C2748 H2740 0.950 . S
C2748 C2749 1.386 . S
C2748 C2750 1.391 . S
C2749 C2748 1.386 . S
C2749 C2753 1.393 . S
C2750 H2742 0.950 . S
C2750 C2748 1.391 . S
C2750 C2751 1.400 . S
C2751 C2750 1.400 . S
C2751 C2752 1.398 . S
C2751 C2757 1.491 . S
C2752 H2743 0.950 . S
C2752 C2751 1.398 . S
C2752 C2753 1.391 . S
C2753 H2741 0.950 . S
C2753 C2749 1.393 . S
C2753 C2752 1.391 . S
C2754 H2744 0.950 . S
C2754 C2755 1.386 . S
C2754 C2756 1.391 . S
C2755 C2754 1.386 . S
C2755 C2759 1.393 . S
C2756 H2745 0.950 . S
C2756 C2754 1.391 . S
C2756 C2757 1.400 . S
C2757 C2751 1.491 . S
C2757 C2756 1.400 . S
C2757 C2758 1.398 . S
C2758 H2746 0.950 . S
C2758 C2757 1.398 . S
C2758 C2759 1.391 . S
C2759 H2747 0.950 . S
C2759 C2755 1.393 . S
C2759 C2758 1.391 . S
H2760 C2768 0.950 . S
H2761 C2773 0.950 . S
H2762 C2770 0.950 . S
H2763 C2772 0.950 . S
H2764 C2774 0.950 . S
H2765 C2776 0.950 . S
H2766 C2778 0.950 . S
H2767 C2779 0.950 . S
C2768 H2760 0.950 . S
C2768 C2769 1.386 . S
C2768 C2770 1.391 . S
C2769 C2768 1.386 . S
C2769 C2773 1.393 . S
C2770 H2762 0.950 . S
C2770 C2768 1.391 . S
C2770 C2771 1.400 . S
C2771 C2770 1.400 . S
C2771 C2772 1.398 . S
C2771 C2777 1.491 . S
C2772 H2763 0.950 . S
C2772 C2771 1.398 . S
C2772 C2773 1.391 . S
C2773 H2761 0.950 . S
C2773 C2769 1.393 . S
C2773 C2772 1.391 . S
C2774 H2764 0.950 . S
C2774 C2775 1.386 . S
C2774 C2776 1.391 . S
C2775 C2774 1.386 . S
C2775 C2779 1.393 . S
C2776 H2765 0.950 . S
C2776 C2774 1.391 . S
C2776 C2777 1.400 . S
C2777 C2771 1.491 . S
C2777 C2776 1.400 . S
C2777 C2778 1.398 . S
C2778 H2766 0.950 . S
C2778 C2777 1.398 . S
C2778 C2779 1.391 . S
C2779 H2767 0.950 . S
C2779 C2775 1.393 . S
C2779 C2778 1.391 . S
H2780 C2788 0.950 . S
H2781 C2793 0.950 . S
H2782 C2790 0.950 . S
H2783 C2792 0.950 . S
H2784 C2794 0.950 . S
H2785 C2796 0.950 . S
H2786 C2798 0.950 . S
H2787 C2799 0.950 . S
C2788 H2780 0.950 . S
C2788 C2789 1.386 . S
C2788 C2790 1.391 . S
C2789 C2788 1.386 . S
C2789 C2793 1.393 . S
C2790 H2782 0.950 . S
C2790 C2788 1.391 . S
C2790 C2791 1.400 . S
C2791 C2790 1.400 . S
C2791 C2792 1.398 . S
C2791 C2797 1.491 . S
C2792 H2783 0.950 . S
C2792 C2791 1.398 . S
C2792 C2793 1.391 . S
C2793 H2781 0.950 . S
C2793 C2789 1.393 . S
C2793 C2792 1.391 . S
C2794 H2784 0.950 . S
C2794 C2795 1.386 . S
C2794 C2796 1.391 . S
C2795 C2794 1.386 . S
C2795 C2799 1.393 . S
C2796 H2785 0.950 . S
C2796 C2794 1.391 . S
C2796 C2797 1.400 . S
C2797 C2791 1.491 . S
C2797 C2796 1.400 . S
C2797 C2798 1.398 . S
C2798 H2786 0.950 . S
C2798 C2797 1.398 . S
C2798 C2799 1.391 . S
C2799 H2787 0.950 . S
C2799 C2795 1.393 . S
C2799 C2798 1.391 . S
H2800 C2808 0.950 . S
H2801 C2813 0.950 . S
H2802 C2810 0.950 . S
H2803 C2812 0.950 . S
H2804 C2814 0.950 . S
H2805 C2816 0.950 . S
H2806 C2818 0.950 . S
H2807 C2819 0.950 . S
C2808 H2800 0.950 . S
C2808 C2809 1.386 . S
C2808 C2810 1.391 . S
C2809 C2808 1.386 . S
C2809 C2813 1.393 . S
C2810 H2802 0.950 . S
C2810 C2808 1.391 . S
C2810 C2811 1.400 . S
C2811 C2810 1.400 . S
C2811 C2812 1.398 . S
C2811 C2817 1.491 . S
C2812 H2803 0.950 . S
C2812 C2811 1.398 . S
C2812 C2813 1.391 . S
C2813 H2801 0.950 . S
C2813 C2809 1.393 . S
C2813 C2812 1.391 . S
C2814 H2804 0.950 . S
C2814 C2815 1.386 . S
C2814 C2816 1.391 . S
C2815 C2814 1.386 . S
C2815 C2819 1.393 . S
C2816 H2805 0.950 . S
C2816 C2814 1.391 . S
C2816 C2817 1.400 . S
C2817 C2811 1.491 . S
C2817 C2816 1.400 . S
C2817 C2818 1.398 . S
C2818 H2806 0.950 . S
C2818 C2817 1.398 . S
C2818 C2819 1.391 . S
C2819 H2807 0.950 . S
C2819 C2815 1.393 . S
C2819 C2818 1.391 . S
H2820 C2828 0.950 . S
H2821 C2833 0.950 1_655 S
H2822 C2830 0.950 . S
H2823 C2832 0.950 . S
H2824 C2834 0.950 . S
H2825 C2836 0.950 . S
H2826 C2838 0.950 . S
H2827 C2839 0.950 . S
C2828 H2820 0.950 . S
C2828 C2829 1.386 . S
C2828 C2830 1.391 1_655 S
C2829 C2828 1.386 . S
C2829 C2833 1.393 1_655 S
C2830 H2822 0.950 . S
C2830 C2828 1.391 1_455 S
C2830 C2831 1.400 . S
C2831 C2830 1.400 . S
C2831 C2832 1.398 . S
C2831 C2837 1.491 . S
C2832 H2823 0.950 . S
C2832 C2831 1.398 . S
C2832 C2833 1.391 . S
C2833 H2821 0.950 1_455 S
C2833 C2829 1.393 1_455 S
C2833 C2832 1.391 . S
C2834 H2824 0.950 . S
C2834 C2835 1.386 . S
C2834 C2836 1.391 . S
C2835 C2834 1.386 . S
C2835 C2839 1.393 . S
C2836 H2825 0.950 . S
C2836 C2834 1.391 . S
C2836 C2837 1.400 . S
C2837 C2831 1.491 . S
C2837 C2836 1.400 . S
C2837 C2838 1.398 . S
C2838 H2826 0.950 . S
C2838 C2837 1.398 . S
C2838 C2839 1.391 . S
C2839 H2827 0.950 . S
C2839 C2835 1.393 . S
C2839 C2838 1.391 . S
H2840 C2848 0.950 . S
H2841 C2853 0.950 . S
H2842 C2850 0.950 . S
H2843 C2852 0.950 . S
H2844 C2854 0.950 . S
H2845 C2856 0.950 . S
H2846 C2858 0.950 . S
H2847 C2859 0.950 . S
C2848 H2840 0.950 . S
C2848 C2849 1.386 . S
C2848 C2850 1.391 1_545 S
C2849 C2848 1.386 . S
C2849 C2853 1.393 1_545 S
C2850 H2842 0.950 . S
C2850 C2848 1.391 1_565 S
C2850 C2851 1.400 . S
C2851 C2850 1.400 . S
C2851 C2852 1.398 . S
C2851 C2857 1.491 . S
C2852 H2843 0.950 . S
C2852 C2851 1.398 . S
C2852 C2853 1.391 . S
C2853 H2841 0.950 . S
C2853 C2849 1.393 1_565 S
C2853 C2852 1.391 . S
C2854 H2844 0.950 . S
C2854 C2855 1.386 . S
C2854 C2856 1.391 . S
C2855 C2854 1.386 . S
C2855 C2859 1.393 . S
C2856 H2845 0.950 . S
C2856 C2854 1.391 . S
C2856 C2857 1.400 . S
C2857 C2851 1.491 . S
C2857 C2856 1.400 . S
C2857 C2858 1.398 . S
C2858 H2846 0.950 . S
C2858 C2857 1.398 . S
C2858 C2859 1.391 . S
C2859 H2847 0.950 . S
C2859 C2855 1.393 . S
C2859 C2858 1.391 . S
H2860 C2868 0.950 . S
H2861 C2873 0.950 . S
H2862 C2870 0.950 . S
H2863 C2872 0.950 . S
H2864 C2874 0.950 . S
H2865 C2876 0.950 . S
H2866 C2878 0.950 . S
H2867 C2879 0.950 . S
C2868 H2860 0.950 . S
C2868 C2869 1.386 . S
C2868 C2870 1.391 . S
C2869 C2868 1.386 . S
C2869 C2873 1.393 . S
C2870 H2862 0.950 . S
C2870 C2868 1.391 . S
C2870 C2871 1.400 . S
C2871 C2870 1.400 . S
C2871 C2872 1.398 . S
C2871 C2877 1.491 . S
C2872 H2863 0.950 . S
C2872 C2871 1.398 . S
C2872 C2873 1.391 . S
C2873 H2861 0.950 . S
C2873 C2869 1.393 . S
C2873 C2872 1.391 . S
C2874 H2864 0.950 . S
C2874 C2875 1.386 . S
C2874 C2876 1.391 . S
C2875 C2874 1.386 . S
C2875 C2879 1.393 . S
C2876 H2865 0.950 . S
C2876 C2874 1.391 . S
C2876 C2877 1.400 1_545 S
C2877 C2871 1.491 . S
C2877 C2876 1.400 1_565 S
C2877 C2878 1.398 . S
C2878 H2866 0.950 . S
C2878 C2877 1.398 . S
C2878 C2879 1.391 1_565 S
C2879 H2867 0.950 . S
C2879 C2875 1.393 . S
C2879 C2878 1.391 1_545 S
C729 C559 1.825 . S
C735 C19 1.816 . S
C749 C579 1.803 . S
C755 C39 1.807 1_655 S
C769 C59 1.817 . S
C775 C599 1.805 . S
C789 C79 1.824 . S
C795 C259 1.813 . S
C809 C99 1.805 . S
C815 C279 1.802 . S
C829 C299 1.818 . S
C835 C119 1.806 1_565 S
C849 C138 1.808 1_565 S
C855 C438 1.821 . S
C869 C458 1.805 . S
C875 C158 1.817 . S
C889 C178 1.820 . S
C895 C478 1.808 . S
C909 C618 1.813 . S
C915 C198 1.824 1_655 S
C929 C218 1.814 . S
C935 C638 1.803 . S
C949 C658 1.826 . S
C955 C238 1.820 . S
C969 C499 1.815 . S
C975 C319 1.804 . S
C989 C339 1.810 . S
C995 C519 1.822 . S
C1009 C539 1.815 . S
C1015 C359 1.825 . S
C1029 C378 1.816 . S
C1035 C678 1.805 . S
C1049 C398 1.822 . S
C1055 C698 1.825 . S
C1069 C718 1.820 . S
C1075 C418 1.807 . S
C1089 C18 1.641 . S
C1095 C139 1.641 . S
C1109 C159 1.643 . S
C1115 C38 1.643 . S
C1129 C58 1.656 . S
C1135 C179 1.656 . S
C1149 C199 1.656 . S
C1155 C78 1.656 . S
C1169 C98 1.652 . S
C1175 C219 1.652 . S
C1189 C239 1.656 . S
C1195 C118 1.656 . S
C1209 C379 1.652 . S
C1215 C258 1.652 . S
C1229 C278 1.654 . S
C1235 C399 1.654 . S
C1249 C419 1.653 . S
C1255 C298 1.653 . S
C1269 C318 1.659 . S
C1275 C439 1.659 . S
C1289 C459 1.645 . S
C1295 C338 1.645 . S
C1309 C358 1.657 . S
C1315 C479 1.657 . S
C1329 C498 1.651 . S
C1335 C619 1.651 . S
C1349 C639 1.644 . S
C1355 C518 1.644 . S
C1369 C659 1.654 . S
C1375 C538 1.654 . S
C1389 C679 1.654 . S
C1395 C558 1.654 . S
C1409 C578 1.653 . S
C1415 C699 1.653 . S
C1429 C598 1.659 . S
C1435 C719 1.659 . S
C1449 C9 1.502 . S
C1455 C42 1.352 . S
C1469 C29 1.502 . S
C1475 C2 1.352 . S
C1489 C22 1.380 . S
C1495 C49 1.485 . S
C1509 C69 1.489 . S
C1515 C82 1.361 . S
C1529 C102 1.393 . S
C1535 C89 1.491 . S
C1549 C62 1.383 . S
C1555 C109 1.485 . S
C1569 C164 1.391 . S
C1575 C132 1.488 . S
C1589 C152 1.504 . S
C1595 C124 1.381 . S
C1609 C172 1.502 . S
C1615 C144 1.352 . S
C1629 C204 1.376 . S
C1635 C192 1.485 . S
C1649 C212 1.487 . S
C1655 C224 1.365 . S
C1669 C232 1.502 . S
C1675 C184 1.352 . S
C1689 C282 1.360 1_545 S
C1695 C249 1.506 . S
C1709 C242 1.371 . S
C1715 C269 1.471 1_545 S
C1729 C262 1.379 . S
C1735 C289 1.505 . S
C1749 C322 1.360 . S
C1755 C309 1.506 . S
C1769 C329 1.496 . S
C1775 C342 1.393 . S
C1789 C302 1.377 . S
C1795 C349 1.485 . S
C1809 C372 1.495 . S
C1815 C404 1.352 . S
C1829 C364 1.351 . S
C1835 C392 1.500 . S
C1849 C412 1.506 . S
C1855 C384 1.362 . S
C1869 C444 1.376 . S
C1875 C432 1.485 . S
C1889 C464 1.366 . S
C1895 C452 1.507 1_545 S
C1909 C424 1.366 1_545 S
C1915 C472 1.507 . S
C1929 C522 1.374 . S
C1935 C489 1.506 . S
C1949 C509 1.496 . S
C1955 C482 1.393 . S
C1969 C502 1.364 . S
C1975 C529 1.507 . S
C1989 C549 1.504 . S
C1995 C562 1.383 1_455 S
C2009 C569 1.493 . S
C2015 C582 1.353 . S
C2029 C542 1.356 . S
C2035 C589 1.491 1_455 S
C2049 C612 1.500 . S
C2055 C644 1.351 . S
C2069 C632 1.486 . S
C2075 C604 1.382 1_455 S
C2089 C624 1.362 . S
C2095 C652 1.489 1_455 S
C2109 C672 1.506 . S
C2115 C684 1.363 . S
C2129 C704 1.381 . S
C2135 C692 1.504 . S
C2149 C664 1.383 . S
C2155 C712 1.504 . S
C2169 C44 1.022 . S
C2175 C12 1.033 . S
C2189 C32 1.028 . S
C2195 C4 1.056 . S
C2209 C24 1.047 . S
C2215 C52 0.995 . S
C2229 C84 1.059 . S
C2235 C72 0.999 . S
C2249 C92 1.021 . S
C2255 C104 1.023 . S
C2269 C112 1.044 . S
C2275 C64 1.036 . S
C2289 C162 1.050 . S
C2295 C129 0.994 . S
C2309 C149 1.006 . S
C2315 C122 1.062 . S
C2329 C142 1.042 . S
C2335 C169 0.997 . S
C2349 C202 1.041 . S
C2355 C189 0.997 . S
C2369 C222 1.062 . S
C2375 C209 1.012 . S
C2389 C182 1.024 . S
C2395 C229 1.019 . S
C2409 C252 1.028 . S
C2415 C284 1.056 . S
C2429 C272 1.043 . S
C2435 C244 1.037 . S
C2449 C292 1.035 . S
C2455 C264 1.051 . S
C2469 C324 1.061 . S
C2475 C312 1.014 . S
C2489 C332 1.004 . S
C2495 C344 1.033 . S
C2509 C352 1.043 . S
C2515 C304 1.038 . S
C2529 C402 1.059 . S
C2535 C369 0.999 . S
C2549 C362 1.039 . S
C2555 C389 1.043 . S
C2569 C409 1.036 . S
C2575 C382 1.023 . S
C2589 C442 1.061 . S
C2595 C429 1.014 . S
C2609 C449 1.010 . S
C2615 C462 1.028 . S
C2629 C469 1.038 . S
C2635 C422 1.047 . S
C2649 C492 1.013 . S
C2655 C524 1.062 . S
C2669 C484 1.059 . S
C2675 C512 0.999 . S
C2689 C504 1.061 . S
C2695 C532 1.005 . S
C2709 C564 1.061 . S
C2715 C552 1.003 . S
C2729 C572 1.041 . S
C2735 C584 1.043 . S
C2749 C592 1.032 . S
C2755 C544 1.053 . S
C2769 C642 1.023 . S
C2775 C609 1.020 . S
C2789 C602 1.039 . S
C2795 C629 0.998 . S
C2809 C649 1.001 . S
C2815 C622 1.036 . S
C2829 C682 1.022 . S
C2835 C669 1.027 . S
C2849 C689 1.000 . S
C2855 C702 1.037 . S
C2869 C709 1.033 . S
C2875 C662 1.053 . S
