# Generated by pormake.
# Topology ukg, (4)-cn, num edge types: 1
# Building blocks:
#     Node 0, Type 0, BuildingBlock: ESEHIV_clean_sbu_0, # of connection points: 4
#     Node 1, Type 0, BuildingBlock: ESEHIV_clean_sbu_0, # of connection points: 4
#     Node 2, Type 0, BuildingBlock: ESEHIV_clean_sbu_0, # of connection points: 4
#     Node 3, Type 0, BuildingBlock: ESEHIV_clean_sbu_0, # of connection points: 4
#     Node 4, Type 0, BuildingBlock: ESEHIV_clean_sbu_0, # of connection points: 4
#     Node 5, Type 0, BuildingBlock: ESEHIV_clean_sbu_0, # of connection points: 4
#     Node 6, Type 0, BuildingBlock: ESEHIV_clean_sbu_0, # of connection points: 4
#     Node 7, Type 0, BuildingBlock: ESEHIV_clean_sbu_0, # of connection points: 4
#     Edge 8, Type (0, 0), BuildingBlock: XUDNAN_clean_linker_2, # of connection points: 2
#     Edge 9, Type (0, 0), BuildingBlock: XUDNAN_clean_linker_2, # of connection points: 2
#     Edge 10, Type (0, 0), BuildingBlock: XUDNAN_clean_linker_2, # of connection points: 2
#     Edge 11, Type (0, 0), BuildingBlock: XUDNAN_clean_linker_2, # of connection points: 2
#     Edge 12, Type (0, 0), BuildingBlock: XUDNAN_clean_linker_2, # of connection points: 2
#     Edge 13, Type (0, 0), BuildingBlock: XUDNAN_clean_linker_2, # of connection points: 2
#     Edge 14, Type (0, 0), BuildingBlock: XUDNAN_clean_linker_2, # of connection points: 2
#     Edge 15, Type (0, 0), BuildingBlock: XUDNAN_clean_linker_2, # of connection points: 2
#     Edge 16, Type (0, 0), BuildingBlock: XUDNAN_clean_linker_2, # of connection points: 2
#     Edge 17, Type (0, 0), BuildingBlock: XUDNAN_clean_linker_2, # of connection points: 2
#     Edge 18, Type (0, 0), BuildingBlock: XUDNAN_clean_linker_2, # of connection points: 2
#     Edge 19, Type (0, 0), BuildingBlock: XUDNAN_clean_linker_2, # of connection points: 2
#     Edge 20, Type (0, 0), BuildingBlock: XUDNAN_clean_linker_2, # of connection points: 2
#     Edge 21, Type (0, 0), BuildingBlock: XUDNAN_clean_linker_2, # of connection points: 2
#     Edge 22, Type (0, 0), BuildingBlock: XUDNAN_clean_linker_2, # of connection points: 2
#     Edge 23, Type (0, 0), BuildingBlock: XUDNAN_clean_linker_2, # of connection points: 2
# Relax obj value: 0.121
# Max RMSD: 0.193
# Mean RMSD: 0.176
data_MOF--net-ukg--node1-ESEHIV_clean_sbu_0--edge1-XUDNAN_clean_linker_2
_symmetry_space_group_name_H-M    P1
_symmetry_Int_Tables_number       1
_symmetry_cell_setting            triclinic
loop_
_symmetry_equiv_pos_as_xyz
'x, y, z'
_cell_length_a     30.922619
_cell_length_b     31.970287
_cell_length_c     42.781887
_cell_angle_alpha  90.444457
_cell_angle_beta   90.190693
_cell_angle_gamma 89.868169
loop_
_atom_site_label
_atom_site_type_symbol
_atom_site_fract_x
_atom_site_fract_y
_atom_site_fract_z
_atom_type_partial_charge
Cu0 Cu 0.08311 0.6416 0.17442 0.0
N1 N 0.04431 0.68108 0.15852 0.0
N2 N 1.00045 0.73648 0.16221 0.0
C3 C 1.01438 0.70104 0.17579 0.0
C4 C 1.02111 0.73816 0.13455 0.0
C5 C 0.04826 0.70384 0.13232 0.0
O6 O 0.06178 0.62346 0.21538 0.0
C7 C 0.14712 0.70563 0.18113 0.0
O8 O 0.11366 0.7298 0.18695 0.0
H9 H 1.00598 0.69221 0.1993 0.0
H10 H 0.07249 0.69844 0.11456 0.0
N11 N 0.08493 0.59436 0.14829 0.0
N12 N 0.07927 0.54997 0.10761 0.0
C13 C 0.07385 0.5899 0.11786 0.0
C14 C 0.09759 0.55619 0.15756 0.0
C15 C 0.09414 0.52886 0.13271 0.0
C16 C 0.05634 0.6474 0.23904 0.0
O17 O 0.06933 0.68644 0.23778 0.0
H18 H 0.06226 0.6154 0.10362 0.0
H19 H 0.10815 0.54872 0.181 0.0
O20 O 0.14105 0.6666 0.17639 0.0
H21 H 1.02043 0.76457 0.11886 0.0
H22 H 0.10117 0.49572 0.13344 0.0
Cu23 Cu 0.3699 0.57793 0.67629 0.0
N24 N 0.32397 0.53956 0.67813 0.0
N25 N 0.2819 0.48738 0.69533 0.0
C26 C 0.32054 0.50693 0.69781 0.0
C27 C 0.2604 0.5085 0.67282 0.0
C28 C 0.28631 0.54057 0.66237 0.0
O29 O 0.41447 0.55588 0.70393 0.0
C30 C 0.32733 0.65629 0.66765 0.0
O31 O 0.32408 0.64215 0.63884 0.0
H32 H 0.34536 0.49858 0.71441 0.0
H33 H 0.27781 0.56367 0.64506 0.0
N34 N 0.39476 0.57723 0.63623 0.0
N35 N 0.44503 0.57337 0.59856 0.0
C36 C 0.43733 0.57965 0.62939 0.0
C37 C 0.37491 0.56917 0.60882 0.0
C38 C 0.40567 0.56694 0.58562 0.0
C39 C 0.40963 0.55047 0.73311 0.0
O40 O 0.37579 0.56708 0.74701 0.0
H41 H 0.46225 0.58413 0.64691 0.0
H42 H 0.34054 0.56421 0.606 0.0
O43 O 0.3474 0.63403 0.68778 0.0
H44 H 0.22799 0.50183 0.66464 0.0
H45 H 0.39945 0.56068 0.56112 0.0
Cu46 Cu 0.48838 0.91995 0.17816 0.0
N47 N 0.54241 0.89489 0.1813 0.0
N48 N 0.59539 0.85385 0.19915 0.0
C49 C 0.5532 0.86454 0.20138 0.0
C50 C 0.61161 0.87867 0.17663 0.0
C51 C 0.5788 0.90396 0.16567 0.0
O52 O 0.4701 0.94015 0.21916 0.0
C53 C 0.40537 0.88566 0.17062 0.0
O54 O 0.39407 0.92302 0.18073 0.0
H55 H 0.53056 0.8517 0.21793 0.0
H56 H 0.58139 0.92762 0.14785 0.0
N57 N 0.49072 0.96425 0.14984 0.0
N58 N 0.50167 1.00231 0.1069 0.0
C59 C 0.49804 0.96333 0.11871 0.0
C60 C 0.48925 1.00499 0.15778 0.0
C61 C 0.49604 0.02849 0.13146 0.0
C62 C 0.49013 0.94621 0.24492 0.0
O63 O 0.46728 0.95563 0.26983 0.0
H64 H 0.50208 0.93478 0.10525 0.0
H65 H 0.48439 1.01674 0.18129 0.0
O66 O 0.44535 0.87809 0.16596 0.0
H67 H 0.64467 0.87857 0.16847 0.0
H68 H 0.49671 0.06231 0.13044 0.0
Cu69 Cu 0.1311 1.00504 0.68418 0.0
N70 N 0.17928 0.03903 0.69184 0.0
N71 N 0.22118 0.0844 0.71813 0.0
C72 C 0.18341 0.06339 0.71751 0.0
C73 C 0.24201 0.07233 0.69182 0.0
C74 C 0.21606 0.04429 0.67565 0.0
O75 O 0.08751 0.03071 0.71171 0.0
C76 C 0.17103 0.92675 0.67339 0.0
O77 O 0.17862 0.94444 0.64635 0.0
H78 H 0.1595 0.06472 0.73588 0.0
H79 H 0.22365 0.02864 0.65384 0.0
N80 N 0.11163 1.00934 0.64239 0.0
N81 N 0.06904 1.00596 0.59982 0.0
C82 C 0.07543 0.99281 0.62953 0.0
C83 C 0.12873 0.03348 0.61997 0.0
C84 C 0.10264 0.03149 0.59382 0.0
C85 C 0.0765 0.06781 0.70393 0.0
O86 O 0.09024 0.0821 0.67703 0.0
H87 H 0.05343 0.97278 0.64209 0.0
H88 H 0.1575 0.05229 0.62272 0.0
O89 O 0.14888 0.94704 0.69369 0.0
H90 H 0.27363 0.08298 0.68469 0.0
H91 H 0.10798 0.04773 0.57207 0.0
Cu92 Cu 1.00082 0.32279 0.87453 0.0
N93 N 0.96736 0.28902 0.90059 0.0
N94 N 0.90875 0.27446 0.92897 0.0
C95 C 0.93028 0.30375 0.91284 0.0
C96 C 0.93331 0.23959 0.92697 0.0
C97 C 0.96993 0.24884 0.90974 0.0
O98 O 1.01103 0.37348 0.89913 0.0
C99 C 0.96218 0.31828 0.81101 0.0
O100 O 0.93825 0.33711 0.78992 0.0
H101 H 0.91841 0.33515 0.90883 0.0
H102 H 0.99566 0.22742 0.90347 0.0
N103 N 0.05441 0.30333 0.86049 0.0
N104 N 0.1152 0.30723 0.83233 0.0
C105 C 0.07631 0.32445 0.83863 0.0
C106 C 0.08023 0.27125 0.86862 0.0
C107 C 0.11795 0.27363 0.85126 0.0
C108 C 1.03411 0.37046 0.92374 0.0
O109 O 0.05175 0.33412 0.93029 0.0
H110 H 0.06422 0.35304 0.82839 0.0
H111 H 0.07261 0.2483 0.88619 0.0
O112 O 0.9665 0.33632 0.83767 0.0
H113 H 0.92515 0.20961 0.93691 0.0
H114 H 0.14526 0.2525 0.85267 0.0
Cu115 Cu 0.74412 0.55942 0.40475 0.0
N116 N 0.73618 0.50697 0.38636 0.0
N117 N 0.74263 0.43833 0.3777 0.0
C118 C 0.74955 0.47016 0.398 0.0
C119 C 0.72419 0.45586 0.35232 0.0
C120 C 0.72021 0.49826 0.35776 0.0
O121 O 0.7217 0.55849 0.44776 0.0
C122 C 0.82238 0.60497 0.38973 0.0
O123 O 0.79857 0.63904 0.38967 0.0
H124 H 0.76556 0.4671 0.42041 0.0
H125 H 0.70759 0.52128 0.34171 0.0
N126 N 0.71037 0.59842 0.3834 0.0
N127 N 0.68533 0.64394 0.34846 0.0
C128 C 0.71723 0.61667 0.35555 0.0
C129 C 0.67299 0.61469 0.39405 0.0
C130 C 0.65744 0.64262 0.37257 0.0
C131 C 0.68527 0.54033 0.45143 0.0
O132 O 0.66816 0.52062 0.42735 0.0
H133 H 0.74502 0.61029 0.34093 0.0
H134 H 0.65829 0.6074 0.4162 0.0
O135 O 0.80588 0.57071 0.399 0.0
H136 H 0.71464 0.43928 0.33125 0.0
H137 H 0.62855 0.66156 0.37497 0.0
Cu138 Cu 0.50397 0.24906 0.90056 0.0
N139 N 0.53691 0.2741 0.93231 0.0
N140 N 0.59924 0.28822 0.95684 0.0
C141 C 0.57998 0.26861 0.93259 0.0
C142 C 0.56674 0.3072 0.9726 0.0
C143 C 0.52806 0.29809 0.9575 0.0
O144 O 0.52034 0.19013 0.90421 0.0
C145 C 0.50333 0.31955 0.86711 0.0
O146 O 0.49167 0.33088 0.89542 0.0
H147 H 0.59694 0.25107 0.91468 0.0
H148 H 0.49606 0.30836 0.96427 0.0
N149 N 0.44364 0.24926 0.90344 0.0
N150 N 0.37908 0.23483 0.882 0.0
C151 C 0.42119 0.22405 0.88412 0.0
C152 C 0.41466 0.27689 0.91478 0.0
C153 C 0.37463 0.26785 0.9017 0.0
C154 C 0.50877 0.17745 0.93119 0.0
O155 O 0.48746 0.20332 0.94954 0.0
H156 H 0.43663 0.19984 0.87034 0.0
H157 H 0.42253 0.30357 0.92939 0.0
O158 O 0.51455 0.28145 0.86259 0.0
H159 H 0.57058 0.32609 0.99352 0.0
H160 H 0.34543 0.28612 0.90475 0.0
Cu161 Cu 0.84352 0.02406 0.36885 0.0
N162 N 0.85227 0.08051 0.36099 0.0
N163 N 0.84375 0.14983 0.36249 0.0
C164 C 0.83315 0.113 0.37563 0.0
C165 C 0.87067 0.14005 0.33874 0.0
C166 C 0.87589 0.09722 0.3379 0.0
O167 O 0.85434 1.01573 0.41351 0.0
C168 C 0.76823 0.97586 0.34799 0.0
O169 O 0.78534 0.94247 0.36079 0.0
H170 H 0.81065 0.1095 0.39476 0.0
H171 H 0.89477 0.07941 0.32121 0.0
N172 N 0.88476 0.99403 0.34654 0.0
N173 N 0.91637 0.95369 0.3105 0.0
C174 C 0.87917 0.97188 0.31996 0.0
C175 C 0.92681 0.99011 0.35403 0.0
C176 C 0.94641 0.96512 0.33188 0.0
C177 C 0.86455 0.98055 0.42529 0.0
O178 O 0.86134 0.94656 0.408 0.0
H179 H 0.84831 0.96846 0.30823 0.0
H180 H 0.94198 1.0043 0.3743 0.0
O181 O 0.78649 1.01129 0.35146 0.0
H182 H 0.88533 0.1622 0.323 0.0
H183 H 0.98019 0.9562 0.33151 0.0
H184 H 0.08526 0.37388 0.97596 0.0
H185 H 0.99258 0.44692 0.9229 0.0
H186 H 0.99657 0.50316 0.96299 0.0
H187 H 0.0451 0.39855 0.05055 0.0
H188 H 0.09745 0.40082 0.06913 0.0
H189 H 0.08945 0.36807 0.03522 0.0
H190 H 0.15226 0.40559 1.00698 0.0
H191 H 0.16063 0.43835 0.0409 0.0
H192 H 0.15108 0.46172 1.00329 0.0
H193 H 1.00775 0.54964 1.01149 0.0
H194 H 1.02554 0.58173 0.06268 0.0
H195 H 0.11214 0.4781 0.08235 0.0
C196 C 0.06611 0.40187 0.97248 0.0
C197 C 0.03862 0.40594 0.94619 0.0
C198 C 1.01404 0.44312 0.94274 0.0
C199 C 1.01607 0.47522 0.96543 0.0
C200 C 0.04307 0.46982 0.99132 0.0
C201 C 0.06787 0.43412 0.99475 0.0
C202 C 0.0933 0.43509 1.02504 0.0
C203 C 0.08054 0.39847 0.04623 0.0
C204 C 0.14221 0.43521 1.01866 0.0
C205 C 0.0784 0.47656 0.03852 0.0
C206 C 0.04961 0.49635 1.01876 0.0
C207 C 1.03061 0.53452 1.02695 0.0
C208 C 0.04108 0.55265 0.05611 0.0
C209 C 0.07024 0.5326 0.07688 0.0
C210 C 0.08935 0.49424 0.06748 0.0
H211 H 0.4648 0.52901 0.54595 0.0
H212 H 0.51962 0.61325 0.61531 0.0
H213 H 0.58967 0.61115 0.58736 0.0
H214 H 0.56062 0.46561 0.53414 0.0
H215 H 0.55085 0.4593 0.49282 0.0
H216 H 0.50606 0.46641 0.51917 0.0
H217 H 0.47971 0.53008 0.48706 0.0
H218 H 0.52424 0.52301 0.46056 0.0
H219 H 0.51638 0.57269 0.47995 0.0
H220 H 0.65354 0.60231 0.5489 0.0
H221 H 0.70325 0.58739 0.50468 0.0
H222 H 0.60525 0.50811 0.46228 0.0
C223 C 0.49138 0.54718 0.55531 0.0
C224 C 0.48644 0.57146 0.58285 0.0
C225 C 0.52256 0.59415 0.59443 0.0
C226 C 0.56249 0.59323 0.57863 0.0
C227 C 0.56604 0.56914 0.55138 0.0
C228 C 0.53134 0.54639 0.54 0.0
C229 C 0.54283 0.52352 0.51006 0.0
C230 C 0.53992 0.47589 0.51432 0.0
C231 C 0.51409 0.53822 0.4828 0.0
C232 C 0.58921 0.53739 0.50597 0.0
C233 C 0.60233 0.56361 0.52997 0.0
C234 C 0.64359 0.58147 0.53018 0.0
C235 C 0.67171 0.57275 0.50501 0.0
C236 C 0.65844 0.54639 0.47999 0.0
C237 C 0.6168 0.52815 0.48102 0.0
H238 H 0.54906 0.06841 0.08822 0.0
H239 H 0.47269 0.96454 0.05364 0.0
H240 H 0.47965 0.99144 0.99963 0.0
H241 H 0.50286 0.14394 0.04377 0.0
H242 H 0.55162 0.17343 0.03739 0.0
H243 H 0.54687 0.14144 0.07145 0.0
H244 H 0.61738 0.10243 0.05597 0.0
H245 H 0.62188 0.13414 1.02146 0.0
H246 H 0.62138 0.07792 1.018 0.0
H247 H 0.48371 0.03764 0.95117 0.0
H248 H 0.48318 0.098 0.915 0.0
H249 H 0.5597 0.1692 0.98118 0.0
C250 C 0.53457 0.05085 0.06917 0.0
C251 C 0.51026 1.01445 0.07507 0.0
C252 C 0.49182 0.99226 0.04956 0.0
C253 C 0.49568 1.00735 1.01883 0.0
C254 C 0.51895 0.04414 1.01392 0.0
C255 C 0.53857 0.06522 0.03851 0.0
C256 C 0.5581 0.10606 1.02798 0.0
C257 C 0.53868 0.14338 0.04621 0.0
C258 C 0.60763 0.10505 0.03103 0.0
C259 C 0.54432 0.10609 0.99401 0.0
C260 C 0.52248 0.06981 0.98598 0.0
C261 C 0.50199 0.0655 0.9569 0.0
C262 C 0.50221 0.09972 0.93628 0.0
C263 C 0.52269 0.13754 0.94496 0.0
C264 C 0.5454 0.13991 0.97355 0.0
H265 H 0.91161 0.04224 0.45467 0.0
H266 H 0.87001 0.91364 0.46471 0.0
H267 H 0.914 0.90762 0.51292 0.0
H268 H 1.01956 0.02406 0.47602 0.0
H269 H 1.02689 0.07312 0.49637 0.0
H270 H 0.98794 0.06914 0.46514 0.0
H271 H 0.9276 0.09574 0.5022 0.0
H272 H 0.96646 0.10012 0.53353 0.0
H273 H 0.91832 0.06925 0.53861 0.0
H274 H 0.96605 0.91471 0.55889 0.0
H275 H 1.02381 0.93322 0.59676 0.0
H276 H 1.03396 0.05591 0.55502 0.0
C277 C 0.91081 1.01317 0.46747 0.0
C278 C 0.88671 0.97859 0.45618 0.0
C279 C 0.88781 0.94066 0.47308 0.0
C280 C 0.91271 0.93697 0.50051 0.0
C281 C 0.93681 0.97137 0.51066 0.0
C282 C 0.93612 1.00873 0.49459 0.0
C283 C 0.9676 0.03986 0.50887 0.0
C284 C 1.00256 0.05225 0.48519 0.0
C285 C 0.94355 0.07853 0.52156 0.0
C286 C 0.98653 1.01407 0.53523 0.0
C287 C 0.96793 0.97486 0.5362 0.0
C288 C 0.98065 0.94542 0.55838 0.0
C289 C 1.0134 0.95623 0.57989 0.0
C290 C 1.03362 0.99592 0.57886 0.0
C291 C 1.01955 0.02516 0.55627 0.0
H292 H 0.16948 0.78801 0.18914 0.0
H293 H 0.22395 0.66642 0.16617 0.0
H294 H 0.29583 0.69909 0.15942 0.0
H295 H 0.23138 0.84718 0.13436 0.0
H296 H 0.23749 0.89164 0.16015 0.0
H297 H 0.1907 0.85853 0.16332 0.0
H298 H 0.20788 0.84615 0.22185 0.0
H299 H 0.25455 0.87944 0.21892 0.0
H300 H 0.26047 0.82671 0.23294 0.0
H301 H 0.36244 0.74621 0.155 0.0
H302 H 0.41736 0.80248 0.15525 0.0
H303 H 0.31814 0.89252 0.18089 0.0
C304 C 0.19646 0.76808 0.18279 0.0
C305 C 0.19092 0.72451 0.17824 0.0
C306 C 0.22728 0.6998 0.16988 0.0
C307 C 0.26825 0.71813 0.16591 0.0
C308 C 0.27243 0.76125 0.17034 0.0
C309 C 0.23744 0.78581 0.17872 0.0
C310 C 0.25028 0.83131 0.18231 0.0
C311 C 0.22602 0.85877 0.15862 0.0
C312 C 0.24286 0.8468 0.21601 0.0
C313 C 0.29803 0.82864 0.17474 0.0
C314 C 0.3103 0.78805 0.16779 0.0
C315 C 0.35307 0.77808 0.16038 0.0
C316 C 0.38406 0.81031 0.16049 0.0
C317 C 0.37222 0.85205 0.16801 0.0
C318 C 0.32843 0.86107 0.17492 0.0
H319 H 0.29611 0.71596 0.62785 0.0
H320 H 0.30865 0.68813 0.72651 0.0
H321 H 0.26812 0.75313 0.73939 0.0
H322 H 0.31024 0.82755 0.6353 0.0
H323 H 0.27207 0.83907 0.6046 0.0
H324 H 0.3018 0.79059 0.60384 0.0
H325 H 0.22975 0.74953 0.6007 0.0
H326 H 0.19978 0.79787 0.60174 0.0
H327 H 0.18915 0.758 0.63024 0.0
H328 H 0.22277 0.82179 0.74072 0.0
H329 H 0.18392 0.88843 0.73056 0.0
H330 H 0.20409 0.87064 0.63109 0.0
C331 C 0.29055 0.72345 0.65224 0.0
C332 C 0.30561 0.69665 0.67617 0.0
C333 C 0.29767 0.70807 0.70773 0.0
C334 C 0.27444 0.7449 0.71525 0.0
C335 C 0.25959 0.77031 0.69097 0.0
C336 C 0.26788 0.76011 0.6601 0.0
C337 C 0.24938 0.79267 0.63818 0.0
C338 C 0.28553 0.81371 0.61938 0.0
C339 C 0.21498 0.77335 0.61644 0.0
C340 C 0.22919 0.82291 0.66139 0.0
C341 C 0.23495 0.8095 0.69176 0.0
C342 C 0.21836 0.8325 0.71699 0.0
C343 C 0.19609 0.87027 0.71101 0.0
C344 C 0.1909 0.88503 0.68005 0.0
C345 C 0.20753 0.86054 0.65508 0.0
H346 H 0.65867 0.22854 0.94238 0.0
H347 H 0.64441 0.3521 0.98357 0.0
H348 H 0.72407 0.35848 0.98678 0.0
H349 H 0.75749 0.19754 0.9863 0.0
H350 H 0.7797 0.17033 0.95294 0.0
H351 H 0.72192 0.17335 0.95804 0.0
H352 H 0.71406 0.20561 0.90294 0.0
H353 H 0.77167 0.20284 0.89771 0.0
H354 H 0.744 0.25218 0.89362 0.0
H355 H 0.80469 0.35528 0.97837 0.0
H356 H 0.87973 0.34175 0.96107 0.0
H357 H 0.84172 0.21983 0.92602 0.0
C358 C 0.67226 0.25673 0.95248 0.0
C359 C 0.64524 0.28994 0.96265 0.0
C360 C 0.66437 0.32613 0.97597 0.0
C361 C 0.70961 0.33003 0.97777 0.0
C362 C 0.73525 0.2972 0.96659 0.0
C363 C 0.71721 0.26101 0.95455 0.0
C364 C 0.75167 0.23147 0.94212 0.0
C365 C 0.75275 0.19076 0.96098 0.0
C366 C 0.74494 0.22253 0.90702 0.0
C367 C 0.79194 0.25732 0.94793 0.0
C368 C 0.7818 0.295 0.96232 0.0
C369 C 0.81306 0.32557 0.96769 0.0
C370 C 0.85552 0.31771 0.9577 0.0
C371 C 0.8665 0.27958 0.9426 0.0
C372 C 0.8344 0.24873 0.93827 0.0
H373 H 0.76918 0.38416 0.33247 0.0
H374 H 0.74457 0.39511 0.43191 0.0
H375 H 0.76757 0.32162 0.43899 0.0
H376 H 0.73271 0.27741 0.32288 0.0
H377 H 0.77427 0.26413 0.29506 0.0
H378 H 0.75479 0.31715 0.29792 0.0
H379 H 0.83311 0.34316 0.30737 0.0
H380 H 0.85282 0.29021 0.30469 0.0
H381 H 0.86446 0.32142 0.33895 0.0
H382 H 0.79301 0.24673 0.43498 0.0
H383 H 0.82105 0.17675 0.42043 0.0
H384 H 0.83001 0.21551 0.32375 0.0
C385 C 0.76813 0.37092 0.35566 0.0
C386 C 0.75494 0.39523 0.38165 0.0
C387 C 0.75486 0.37707 0.41174 0.0
C388 C 0.76768 0.33536 0.41595 0.0
C389 C 0.78075 0.31234 0.38983 0.0
C390 C 0.7812 0.32952 0.36029 0.0
C391 C 0.79773 0.29847 0.33622 0.0
C392 C 0.76279 0.28872 0.31157 0.0
C393 C 0.83951 0.31426 0.32092 0.0
C394 C 0.80646 0.2611 0.35682 0.0
C395 C 0.79623 0.26962 0.38764 0.0
C396 C 0.80114 0.23971 0.41091 0.0
C397 C 0.81689 0.20003 0.40243 0.0
C398 C 0.82784 0.19073 0.37101 0.0
C399 C 0.82254 0.22184 0.34802 0.0
H400 H 0.86491 0.67097 0.36244 0.0
H401 H 0.87534 0.53742 0.37854 0.0
H402 H 0.9397 0.53443 0.34465 0.0
H403 H 0.891 0.66781 0.28365 0.0
H404 H 0.92226 0.7152 0.28304 0.0
H405 H 0.88004 0.70909 0.31148 0.0
H406 H 0.93357 0.72285 0.35666 0.0
H407 H 0.97662 0.73011 0.32896 0.0
H408 H 0.98234 0.69209 0.35955 0.0
H409 H 0.99745 0.54441 0.30343 0.0
H410 H 0.04728 0.56797 0.26188 0.0
H411 H 1.00162 0.69518 0.27456 0.0
C412 C 0.8813 0.64124 0.35952 0.0
C413 C 0.86495 0.60446 0.37341 0.0
C414 C 0.88721 0.56614 0.36844 0.0
C415 C 0.92384 0.56408 0.34911 0.0
C416 C 0.93833 0.60068 0.33509 0.0
C417 C 0.91811 0.63867 0.34044 0.0
C418 C 0.9389 0.67305 0.32143 0.0
C419 C 0.90609 0.69243 0.29857 0.0
C420 C 0.95905 0.70651 0.34293 0.0
C421 C 0.97344 0.64838 0.30416 0.0
C422 C 0.97252 0.60663 0.31224 0.0
C423 C 0.99907 0.5772 0.29745 0.0
C424 C 1.0272 0.59079 0.27383 0.0
C425 C 1.02903 0.63351 0.26548 0.0
C426 C 1.00196 0.66257 0.28113 0.0
H427 H 0.40466 0.52659 0.79437 0.0
H428 H 0.47128 0.49819 0.70765 0.0
H429 H 0.50501 0.43637 0.73219 0.0
H430 H 0.4916 0.49358 0.84721 0.0
H431 H 0.454 0.47254 0.87506 0.0
H432 H 0.43832 0.51603 0.851 0.0
H433 H 0.3717 0.47411 0.83139 0.0
H434 H 0.38746 0.43027 0.85499 0.0
H435 H 0.37958 0.42343 0.81351 0.0
H436 H 0.52612 0.37252 0.7659 0.0
H437 H 0.53662 0.31811 0.80663 0.0
H438 H 0.45698 0.39128 0.87009 0.0
C439 C 0.42705 0.50798 0.78066 0.0
C440 C 0.43533 0.5175 0.74909 0.0
C441 C 0.46455 0.49184 0.73197 0.0
C442 C 0.48377 0.45645 0.74568 0.0
C443 C 0.4738 0.44725 0.77663 0.0
C444 C 0.44656 0.47276 0.79396 0.0
C445 C 0.43974 0.45569 0.82638 0.0
C446 C 0.45696 0.48628 0.85138 0.0
C447 C 0.39179 0.44525 0.83187 0.0
C448 C 0.46706 0.41646 0.8246 0.0
C449 C 0.48642 0.41168 0.79578 0.0
C450 C 0.51154 0.37635 0.78871 0.0
C451 C 0.51724 0.34552 0.81186 0.0
C452 C 0.49816 0.35057 0.84169 0.0
C453 C 0.47278 0.38658 0.84778 0.0
H454 H 0.53637 0.90199 0.28745 0.0
H455 H 0.54997 0.98971 0.21159 0.0
H456 H 0.62616 1.00203 0.22702 0.0
H457 H 0.59128 0.95446 0.34273 0.0
H458 H 0.61893 0.91098 0.36051 0.0
H459 H 0.56865 0.90259 0.34025 0.0
H460 H 0.60431 0.84756 0.30332 0.0
H461 H 0.65397 0.85424 0.32503 0.0
H462 H 0.65346 0.86081 0.28327 0.0
H463 H 0.69417 1.01602 0.25776 0.0
H464 H 0.75414 0.02198 0.29575 0.0
H465 H 0.69944 0.92097 0.3498 0.0
C466 C 0.55609 0.92243 0.27334 0.0
C467 C 0.53766 0.94458 0.2481 0.0
C468 C 0.56381 0.97186 0.23055 0.0
C469 C 0.60702 0.97918 0.23932 0.0
C470 C 0.62371 0.95825 0.26526 0.0
C471 C 0.5995 0.9293 0.28138 0.0
C472 C 0.6242 0.91276 0.30946 0.0
C473 C 0.59927 0.9207 0.34002 0.0
C474 C 0.63461 0.86606 0.30502 0.0
C475 C 0.66488 0.93907 0.30796 0.0
C476 C 0.664 0.96495 0.28218 0.0
C477 C 0.69576 0.99508 0.27749 0.0
C478 C 0.72946 0.99855 0.29941 0.0
C479 C 0.73157 0.97182 0.32566 0.0
C480 C 0.69901 0.94139 0.32972 0.0
H481 H 0.98657 0.2923 0.75292 0.0
H482 H 0.98121 0.25092 0.84861 0.0
H483 H 1.00934 0.18149 0.83272 0.0
H484 H 0.94919 0.19736 0.71895 0.0
H485 H 0.98333 0.20074 0.685 0.0
H486 H 0.96584 0.24774 0.70473 0.0
H487 H 0.04557 0.27104 0.71191 0.0
H488 H 0.06329 0.22441 0.6918 0.0
H489 H 0.08357 0.2362 0.73042 0.0
H490 H 1.03633 0.11442 0.80435 0.0
H491 H 0.06224 0.05935 0.76757 0.0
H492 H 0.04571 0.1455 0.69058 0.0
C493 C 0.99178 0.26883 0.77067 0.0
C494 C 0.98274 0.27754 0.80244 0.0
C495 C 0.98939 0.24559 0.8246 0.0
C496 C 1.00485 0.20581 0.81555 0.0
C497 C 1.01301 0.1982 0.78394 0.0
C498 C 1.00679 0.22906 0.7619 0.0
C499 C 1.01678 0.21316 0.72932 0.0
C500 C 0.97638 0.21485 0.70827 0.0
C501 C 0.05455 0.23765 0.71503 0.0
C502 C 1.02956 0.16846 0.73631 0.0
C503 C 1.02725 0.16014 0.76789 0.0
C504 C 1.03812 0.12072 0.77957 0.0
C505 C 0.05249 0.08947 0.7585 0.0
C506 C 0.05582 0.09785 0.72612 0.0
C507 C 0.04348 0.13779 0.71513 0.0
H508 H 0.10098 0.35665 0.78189 0.0
H509 H 0.20285 0.29678 0.83541 0.0
H510 H 0.25762 0.33241 0.8031 0.0
H511 H 0.15628 0.35623 0.70623 0.0
H512 H 0.13486 0.40678 0.69591 0.0
H513 H 0.10436 0.37274 0.72093 0.0
H514 H 0.10048 0.43139 0.76301 0.0
H515 H 0.13104 0.46551 0.73824 0.0
H516 H 0.14985 0.45471 0.77728 0.0
H517 H 0.30116 0.38033 0.76746 0.0
H518 H 0.32914 0.43383 0.73175 0.0
H519 H 0.19765 0.46403 0.70367 0.0
C520 C 0.13475 0.35076 0.78685 0.0
C521 C 0.14744 0.32405 0.81148 0.0
C522 C 0.19216 0.31678 0.81661 0.0
C523 C 0.22354 0.33707 0.79842 0.0
C524 C 0.20972 0.3643 0.77501 0.0
C525 C 0.1663 0.37082 0.7691 0.0
C526 C 0.15954 0.40315 0.74385 0.0
C527 C 0.13746 0.38355 0.71502 0.0
C528 C 0.13372 0.44092 0.75636 0.0
C529 C 0.20593 0.4148 0.73695 0.0
C530 C 0.23449 0.3918 0.75488 0.0
C531 C 0.27898 0.39827 0.75321 0.0
C532 C 0.29458 0.42914 0.73292 0.0
C533 C 0.26581 0.45371 0.71464 0.0
C534 C 0.22087 0.44578 0.7167 0.0
H535 H 0.61212 0.66805 0.31943 0.0
H536 H 0.75137 0.6825 0.31854 0.0
H537 H 0.7444 0.73637 0.27739 0.0
H538 H 0.59441 0.6837 0.23535 0.0
H539 H 0.54442 0.71147 0.24193 0.0
H540 H 0.56161 0.67163 0.26884 0.0
H541 H 0.5555 0.7251 0.31416 0.0
H542 H 0.53993 0.76597 0.2877 0.0
H543 H 0.58623 0.77283 0.31292 0.0
H544 H 0.72051 0.79367 0.23985 0.0
H545 H 0.68279 0.84601 0.20753 0.0
H546 H 0.55957 0.79108 0.23295 0.0
C547 C 0.64116 0.68221 0.31029 0.0
C548 C 0.68224 0.67131 0.32208 0.0
C549 C 0.71963 0.6902 0.30948 0.0
C550 C 0.71592 0.72092 0.28629 0.0
C551 C 0.67465 0.73179 0.2758 0.0
C552 C 0.63802 0.71249 0.28715 0.0
C553 C 0.59729 0.73054 0.27307 0.0
C554 C 0.57302 0.69736 0.25364 0.0
C555 C 0.56803 0.74977 0.29846 0.0
C556 C 0.61654 0.76376 0.2525 0.0
C557 C 0.66114 0.76405 0.2542 0.0
C558 C 0.6856 0.79326 0.23799 0.0
C559 C 0.66381 0.82283 0.21956 0.0
C560 C 0.61798 0.82292 0.21746 0.0
C561 C 0.59444 0.79258 0.2341 0.0
H562 H 0.39599 0.19052 0.82845 0.0
H563 H 0.29093 0.24128 0.88432 0.0
H564 H 0.23835 0.21173 0.84643 0.0
H565 H 0.34771 0.20628 0.75294 0.0
H566 H 0.36899 0.15808 0.7371 0.0
H567 H 0.39794 0.18535 0.76763 0.0
H568 H 0.39699 0.11865 0.80168 0.0
H569 H 0.36827 0.09111 0.77124 0.0
H570 H 0.34609 0.09384 0.81012 0.0
H571 H 0.19734 0.17339 0.80292 0.0
H572 H 0.17177 0.12973 0.7588 0.0
H573 H 0.30472 0.10245 0.73348 0.0
C574 C 0.36207 0.1953 0.83325 0.0
C575 C 0.34789 0.21812 0.85985 0.0
C576 C 0.30284 0.22418 0.86419 0.0
C577 C 0.27269 0.20739 0.84279 0.0
C578 C 0.28807 0.18463 0.81713 0.0
C579 C 0.33176 0.17866 0.81236 0.0
C580 C 0.3403 0.15207 0.78358 0.0
C581 C 0.3652 0.17694 0.75885 0.0
C582 C 0.36432 0.11152 0.79218 0.0
C583 C 0.2945 0.14327 0.77301 0.0
C584 C 0.26476 0.16256 0.79247 0.0
C585 C 0.22043 0.15815 0.78762 0.0
C586 C 0.20622 0.133 0.76256 0.0
C587 C 0.2362 0.11226 0.74264 0.0
C588 C 0.28091 0.11809 0.74791 0.0
H589 H 1.02212 0.76328 0.21987 0.0
H590 H 0.93756 0.78888 0.14143 0.0
H591 H 0.90564 0.84897 0.17084 0.0
H592 H 0.94847 0.78771 0.28139 0.0
H593 H 0.98932 0.8114 0.3058 0.0
H594 H 1.00406 0.77087 0.27846 0.0
H595 H 0.06058 0.82003 0.25362 0.0
H596 H 0.04586 0.86089 0.2808 0.0
H597 H 0.04366 0.87041 0.23935 0.0
H598 H 0.88197 0.90493 0.21079 0.0
H599 H 0.87167 0.95358 0.25553 0.0
H600 H 0.97443 0.89054 0.30592 0.0
C601 C 0.99648 0.78122 0.20902 0.0
C602 C 0.9815 0.77122 0.17871 0.0
C603 C 0.94899 0.79612 0.16479 0.0
C604 C 0.93082 0.83009 0.18132 0.0
C605 C 0.94623 0.83888 0.2114 0.0
C606 C 0.97867 0.81526 0.2249 0.0
C607 C 0.99082 0.83149 0.25697 0.0
C608 C 0.98264 0.79838 0.28213 0.0
C609 C 1.03802 0.84661 0.25771 0.0
C610 C 0.95959 0.86759 0.25988 0.0
C611 C 0.93399 0.87149 0.2335 0.0
C612 C 0.90203 0.90221 0.23145 0.0
C613 C 0.89625 0.92953 0.25702 0.0
C614 C 0.92245 0.92602 0.28414 0.0
C615 C 0.95445 0.8946 0.28535 0.0
loop_
_geom_bond_atom_site_label_1
_geom_bond_atom_site_label_2
_geom_bond_distance
_geom_bond_site_symmetry_2
_ccdc_geom_bond_type
Cu0 N1 1.999 . S
Cu0 O6 1.974 . S
Cu0 N11 1.983 1_655 S
Cu0 O20 1.959 1_655 S
N1 Cu0 1.999 . S
N1 C3 1.263 . S
N1 C5 1.389 . S
N2 C3 1.358 . S
N2 C4 1.400 . S
C3 N1 1.263 . S
C3 N2 1.358 . S
C3 H9 0.930 . S
C4 N2 1.400 . S
C4 C5 1.351 . S
C4 H21 0.930 . S
C5 N1 1.389 . S
C5 C4 1.351 . S
C5 H10 0.930 1_655 S
O6 Cu0 1.974 . S
O6 C16 1.282 . S
C7 O8 1.261 . S
C7 O20 1.251 . S
O8 C7 1.261 . S
H9 C3 0.930 . S
H10 C5 0.930 1_455 S
N11 Cu0 1.983 1_455 S
N11 C13 1.342 . S
N11 C14 1.385 1_455 S
N12 C13 1.345 . S
N12 C15 1.334 1_455 S
C13 N11 1.342 . S
C13 N12 1.345 . S
C13 H18 0.930 . S
C14 N11 1.385 1_655 S
C14 C15 1.348 . S
C14 H19 0.930 . S
C15 N12 1.334 1_655 S
C15 C14 1.348 . S
C15 H22 0.930 . S
C16 O6 1.282 . S
C16 O17 1.216 . S
O17 C16 1.216 . S
H18 C13 0.930 . S
H19 C14 0.930 . S
O20 Cu0 1.959 1_455 S
O20 C7 1.251 . S
H21 C4 0.930 . S
H22 C15 0.930 . S
Cu23 N24 1.999 . S
Cu23 O29 1.974 . S
Cu23 N34 1.985 . S
Cu23 O43 1.959 . S
N24 Cu23 1.999 . S
N24 C26 1.263 . S
N24 C28 1.389 . S
N25 C26 1.358 . S
N25 C27 1.400 . S
C26 N24 1.263 . S
C26 N25 1.358 . S
C26 H32 0.930 . S
C27 N25 1.400 . S
C27 C28 1.351 . S
C27 H44 0.930 . S
C28 N24 1.389 . S
C28 C27 1.351 . S
C28 H33 0.930 . S
O29 Cu23 1.974 . S
O29 C39 1.282 . S
C30 O31 1.261 . S
C30 O43 1.251 . S
O31 C30 1.261 . S
H32 C26 0.930 . S
H33 C28 0.930 . S
N34 Cu23 1.985 . S
N34 C36 1.335 . S
N34 C37 1.390 . S
N35 C36 1.345 . S
N35 C38 1.336 . S
C36 N34 1.335 . S
C36 N35 1.345 . S
C36 H41 0.930 . S
C37 N34 1.390 . S
C37 C38 1.346 . S
C37 H42 0.930 . S
C38 N35 1.336 . S
C38 C37 1.346 . S
C38 H45 0.929 . S
C39 O29 1.282 . S
C39 O40 1.216 . S
O40 C39 1.216 . S
H41 C36 0.930 . S
H42 C37 0.930 . S
O43 Cu23 1.959 . S
O43 C30 1.251 . S
H44 C27 0.930 . S
H45 C38 0.929 . S
Cu46 N47 1.999 . S
Cu46 O52 1.974 . S
Cu46 N57 1.985 . S
Cu46 O66 1.959 . S
N47 Cu46 1.999 . S
N47 C49 1.263 . S
N47 C51 1.389 . S
N48 C49 1.358 . S
N48 C50 1.400 . S
C49 N47 1.263 . S
C49 N48 1.358 . S
C49 H55 0.930 . S
C50 N48 1.400 . S
C50 C51 1.351 . S
C50 H67 0.930 . S
C51 N47 1.389 . S
C51 C50 1.351 . S
C51 H56 0.930 . S
O52 Cu46 1.974 . S
O52 C62 1.282 . S
C53 O54 1.261 . S
C53 O66 1.251 . S
O54 C53 1.261 . S
H55 C49 0.930 . S
H56 C51 0.930 . S
N57 Cu46 1.985 . S
N57 C59 1.335 . S
N57 C60 1.390 . S
N58 C59 1.345 . S
N58 C61 1.336 . S
C59 N57 1.335 . S
C59 N58 1.345 . S
C59 H64 0.930 . S
C60 N57 1.390 . S
C60 C61 1.346 . S
C60 H65 0.930 . S
C61 N58 1.336 . S
C61 C60 1.346 . S
C61 H68 0.929 . S
C62 O52 1.282 . S
C62 O63 1.216 . S
O63 C62 1.216 . S
H64 C59 0.930 . S
H65 C60 0.930 . S
O66 Cu46 1.959 . S
O66 C53 1.251 . S
H67 C50 0.930 . S
H68 C61 0.929 . S
Cu69 N70 1.999 . S
Cu69 O75 1.974 . S
Cu69 N80 1.982 1_545 S
Cu69 O89 1.959 1_545 S
N70 Cu69 1.999 . S
N70 C72 1.263 . S
N70 C74 1.389 . S
N71 C72 1.358 . S
N71 C73 1.400 . S
C72 N70 1.263 . S
C72 N71 1.358 . S
C72 H78 0.930 . S
C73 N71 1.400 . S
C73 C74 1.351 . S
C73 H90 0.930 . S
C74 N70 1.389 . S
C74 C73 1.351 . S
C74 H79 0.930 1_545 S
O75 Cu69 1.974 . S
O75 C85 1.282 . S
C76 O77 1.261 . S
C76 O89 1.251 . S
O77 C76 1.261 . S
H78 C72 0.930 . S
H79 C74 0.930 1_565 S
N80 Cu69 1.982 1_565 S
N80 C82 1.344 . S
N80 C83 1.384 1_565 S
N81 C82 1.345 . S
N81 C84 1.338 1_565 S
C82 N80 1.344 . S
C82 N81 1.345 . S
C82 H87 0.930 . S
C83 N80 1.384 1_545 S
C83 C84 1.345 . S
C83 H88 0.930 . S
C84 N81 1.338 1_545 S
C84 C83 1.345 . S
C84 H91 0.940 . S
C85 O75 1.282 . S
C85 O86 1.216 . S
O86 C85 1.216 . S
H87 C82 0.930 . S
H88 C83 0.930 . S
O89 Cu69 1.959 1_565 S
O89 C76 1.251 . S
H90 C73 0.930 . S
H91 C84 0.940 . S
Cu92 N93 1.999 . S
Cu92 O98 1.974 . S
Cu92 N103 1.985 1_655 S
Cu92 O112 1.959 1_655 S
N93 Cu92 1.999 . S
N93 C95 1.263 . S
N93 C97 1.389 . S
N94 C95 1.358 . S
N94 C96 1.400 . S
C95 N93 1.263 . S
C95 N94 1.358 . S
C95 H101 0.930 . S
C96 N94 1.400 . S
C96 C97 1.351 . S
C96 H113 0.930 . S
C97 N93 1.389 . S
C97 C96 1.351 . S
C97 H102 0.930 . S
O98 Cu92 1.974 . S
O98 C108 1.282 . S
C99 O100 1.261 . S
C99 O112 1.251 . S
O100 C99 1.261 . S
H101 C95 0.930 . S
H102 C97 0.930 . S
N103 Cu92 1.985 1_455 S
N103 C105 1.335 . S
N103 C106 1.390 . S
N104 C105 1.345 . S
N104 C107 1.336 . S
C105 N103 1.335 . S
C105 N104 1.345 . S
C105 H110 0.930 . S
C106 N103 1.390 . S
C106 C107 1.346 . S
C106 H111 0.930 . S
C107 N104 1.336 . S
C107 C106 1.346 . S
C107 H114 0.929 . S
C108 O98 1.282 . S
C108 O109 1.216 1_655 S
O109 C108 1.216 1_455 S
H110 C105 0.930 . S
H111 C106 0.930 . S
O112 Cu92 1.959 1_455 S
O112 C99 1.251 . S
H113 C96 0.930 . S
H114 C107 0.929 . S
Cu115 N116 1.999 . S
Cu115 O121 1.974 . S
Cu115 N126 1.985 . S
Cu115 O135 1.959 . S
N116 Cu115 1.999 . S
N116 C118 1.263 . S
N116 C120 1.389 . S
N117 C118 1.358 . S
N117 C119 1.400 . S
C118 N116 1.263 . S
C118 N117 1.358 . S
C118 H124 0.930 . S
C119 N117 1.400 . S
C119 C120 1.351 . S
C119 H136 0.930 . S
C120 N116 1.389 . S
C120 C119 1.351 . S
C120 H125 0.930 . S
O121 Cu115 1.974 . S
O121 C131 1.282 . S
C122 O123 1.261 . S
C122 O135 1.251 . S
O123 C122 1.261 . S
H124 C118 0.930 . S
H125 C120 0.930 . S
N126 Cu115 1.985 . S
N126 C128 1.335 . S
N126 C129 1.390 . S
N127 C128 1.345 . S
N127 C130 1.336 . S
C128 N126 1.335 . S
C128 N127 1.345 . S
C128 H133 0.930 . S
C129 N126 1.390 . S
C129 C130 1.346 . S
C129 H134 0.930 . S
C130 N127 1.336 . S
C130 C129 1.346 . S
C130 H137 0.929 . S
C131 O121 1.282 . S
C131 O132 1.216 . S
O132 C131 1.216 . S
H133 C128 0.930 . S
H134 C129 0.930 . S
O135 Cu115 1.959 . S
O135 C122 1.251 . S
H136 C119 0.930 . S
H137 C130 0.929 . S
Cu138 N139 1.999 . S
Cu138 O144 1.974 . S
Cu138 N149 1.985 . S
Cu138 O158 1.959 . S
N139 Cu138 1.999 . S
N139 C141 1.263 . S
N139 C143 1.389 . S
N140 C141 1.358 . S
N140 C142 1.400 . S
C141 N139 1.263 . S
C141 N140 1.358 . S
C141 H147 0.930 . S
C142 N140 1.400 . S
C142 C143 1.351 . S
C142 H159 0.930 . S
C143 N139 1.389 . S
C143 C142 1.351 . S
C143 H148 0.930 . S
O144 Cu138 1.974 . S
O144 C154 1.282 . S
C145 O146 1.261 . S
C145 O158 1.251 . S
O146 C145 1.261 . S
H147 C141 0.930 . S
H148 C143 0.930 . S
N149 Cu138 1.985 . S
N149 C151 1.335 . S
N149 C152 1.390 . S
N150 C151 1.345 . S
N150 C153 1.336 . S
C151 N149 1.335 . S
C151 N150 1.345 . S
C151 H156 0.930 . S
C152 N149 1.390 . S
C152 C153 1.346 . S
C152 H157 0.930 . S
C153 N150 1.336 . S
C153 C152 1.346 . S
C153 H160 0.929 . S
C154 O144 1.282 . S
C154 O155 1.216 . S
O155 C154 1.216 . S
H156 C151 0.930 . S
H157 C152 0.930 . S
O158 Cu138 1.959 . S
O158 C145 1.251 . S
H159 C142 0.930 . S
H160 C153 0.929 . S
Cu161 N162 1.999 . S
Cu161 O167 1.974 . S
Cu161 N172 1.985 1_545 S
Cu161 O181 1.958 1_545 S
N162 Cu161 1.999 . S
N162 C164 1.263 . S
N162 C166 1.389 . S
N163 C164 1.358 . S
N163 C165 1.400 . S
C164 N162 1.263 . S
C164 N163 1.358 . S
C164 H170 0.930 . S
C165 N163 1.400 . S
C165 C166 1.351 . S
C165 H182 0.930 . S
C166 N162 1.389 . S
C166 C165 1.351 . S
C166 H171 0.930 . S
O167 Cu161 1.974 . S
O167 C177 1.282 . S
C168 O169 1.261 . S
C168 O181 1.254 . S
O169 C168 1.261 . S
H170 C164 0.930 . S
H171 C166 0.930 . S
N172 Cu161 1.985 1_565 S
N172 C174 1.335 . S
N172 C175 1.390 . S
N173 C174 1.345 . S
N173 C176 1.336 . S
C174 N172 1.335 . S
C174 N173 1.345 . S
C174 H179 0.930 . S
C175 N172 1.390 . S
C175 C176 1.346 . S
C175 H180 0.930 . S
C176 N173 1.336 . S
C176 C175 1.346 . S
C176 H183 0.929 . S
C177 O167 1.282 . S
C177 O178 1.216 1_545 S
O178 C177 1.216 1_565 S
H179 C174 0.930 . S
H180 C175 0.930 . S
O181 Cu161 1.958 1_565 S
O181 C168 1.254 . S
H182 C165 0.930 . S
H183 C176 0.929 . S
H184 C196 0.930 . S
H185 C198 0.930 . S
H186 C199 0.930 . S
H187 C203 0.959 . S
H188 C203 0.959 . S
H189 C203 0.961 . S
H190 C204 0.960 1_556 S
H191 C204 0.961 . S
H192 C204 0.959 . S
H193 C207 0.929 . S
H194 C208 0.931 . S
H195 C210 0.930 . S
C196 H184 0.930 . S
C196 C197 1.399 . S
C196 C201 1.399 . S
C197 C196 1.399 . S
C197 C198 1.376 1_655 S
C198 H185 0.930 . S
C198 C197 1.376 1_455 S
C198 C199 1.388 . S
C199 H186 0.930 . S
C199 C198 1.388 . S
C199 C200 1.390 . S
C200 C199 1.390 . S
C200 C201 1.394 1_455 S
C200 C206 1.465 1_556 S
C201 C196 1.399 . S
C201 C200 1.394 1_655 S
C201 C202 1.516 . S
C202 C201 1.516 . S
C202 C203 1.502 . S
C202 C204 1.561 1_556 S
C202 C205 1.526 1_556 S
C203 H187 0.959 . S
C203 H188 0.959 . S
C203 H189 0.961 . S
C203 C202 1.502 . S
C204 H190 0.960 1_554 S
C204 H191 0.961 . S
C204 H192 0.959 . S
C204 C202 1.561 1_554 S
C205 C202 1.526 1_554 S
C205 C206 1.396 1_655 S
C205 C210 1.390 . S
C206 C200 1.465 1_554 S
C206 C205 1.396 1_455 S
C206 C207 1.399 . S
C207 H193 0.929 . S
C207 C206 1.399 . S
C207 C208 1.385 . S
C208 H194 0.931 . S
C208 C207 1.385 . S
C208 C209 1.389 . S
C209 C208 1.389 . S
C209 C210 1.387 1_455 S
C210 H195 0.930 . S
C210 C205 1.390 . S
C210 C209 1.387 1_655 S
H211 C223 0.930 . S
H212 C225 0.930 . S
H213 C226 0.930 . S
H214 C230 0.959 . S
H215 C230 0.959 . S
H216 C230 0.961 . S
H217 C231 0.960 . S
H218 C231 0.961 . S
H219 C231 0.959 . S
H220 C234 0.929 . S
H221 C235 0.931 . S
H222 C237 0.930 . S
C223 H211 0.930 . S
C223 C224 1.399 . S
C223 C228 1.399 . S
C224 C223 1.399 . S
C224 C225 1.376 . S
C225 H212 0.930 . S
C225 C224 1.376 . S
C225 C226 1.388 . S
C226 H213 0.930 . S
C226 C225 1.388 . S
C226 C227 1.390 . S
C227 C226 1.390 . S
C227 C228 1.394 . S
C227 C233 1.465 . S
C228 C223 1.399 . S
C228 C227 1.394 . S
C228 C229 1.516 . S
C229 C228 1.516 . S
C229 C230 1.502 . S
C229 C231 1.561 . S
C229 C232 1.526 . S
C230 H214 0.959 . S
C230 H215 0.959 . S
C230 H216 0.961 . S
C230 C229 1.502 . S
C231 H217 0.960 . S
C231 H218 0.961 . S
C231 H219 0.959 . S
C231 C229 1.561 . S
C232 C229 1.526 . S
C232 C233 1.396 . S
C232 C237 1.390 . S
C233 C227 1.465 . S
C233 C232 1.396 . S
C233 C234 1.399 . S
C234 H220 0.929 . S
C234 C233 1.399 . S
C234 C235 1.385 . S
C235 H221 0.931 . S
C235 C234 1.385 . S
C235 C236 1.389 . S
C236 C235 1.389 . S
C236 C237 1.387 . S
C237 H222 0.930 . S
C237 C232 1.390 . S
C237 C236 1.387 . S
H238 C250 0.930 . S
H239 C252 0.930 . S
H240 C253 0.930 . S
H241 C257 0.959 . S
H242 C257 0.959 . S
H243 C257 0.961 . S
H244 C258 0.960 . S
H245 C258 0.961 . S
H246 C258 0.959 . S
H247 C261 0.929 . S
H248 C262 0.931 . S
H249 C264 0.930 . S
C250 H238 0.930 . S
C250 C251 1.399 1_545 S
C250 C255 1.399 . S
C251 C250 1.399 1_565 S
C251 C252 1.376 . S
C252 H239 0.930 . S
C252 C251 1.376 . S
C252 C253 1.388 1_554 S
C253 H240 0.930 . S
C253 C252 1.388 1_556 S
C253 C254 1.390 1_565 S
C254 C253 1.390 1_545 S
C254 C255 1.394 1_556 S
C254 C260 1.465 . S
C255 C250 1.399 . S
C255 C254 1.394 1_554 S
C255 C256 1.516 . S
C256 C255 1.516 . S
C256 C257 1.502 . S
C256 C258 1.561 . S
C256 C259 1.526 1_554 S
C257 H241 0.959 . S
C257 H242 0.959 . S
C257 H243 0.961 . S
C257 C256 1.502 . S
C258 H244 0.960 . S
C258 H245 0.961 . S
C258 H246 0.959 . S
C258 C256 1.561 . S
C259 C256 1.526 1_556 S
C259 C260 1.396 . S
C259 C264 1.390 . S
C260 C254 1.465 . S
C260 C259 1.396 . S
C260 C261 1.399 . S
C261 H247 0.929 . S
C261 C260 1.399 . S
C261 C262 1.385 . S
C262 H248 0.931 . S
C262 C261 1.385 . S
C262 C263 1.389 . S
C263 C262 1.389 . S
C263 C264 1.387 . S
C264 H249 0.930 . S
C264 C259 1.390 . S
C264 C263 1.387 . S
H265 C277 0.930 . S
H266 C279 0.930 . S
H267 C280 0.930 . S
H268 C284 0.959 . S
H269 C284 0.959 . S
H270 C284 0.961 . S
H271 C285 0.960 . S
H272 C285 0.961 . S
H273 C285 0.959 . S
H274 C288 0.929 . S
H275 C289 0.931 1_455 S
H276 C291 0.934 . S
C277 H265 0.930 . S
C277 C278 1.399 . S
C277 C282 1.399 . S
C278 C277 1.399 . S
C278 C279 1.376 1_545 S
C279 H266 0.930 . S
C279 C278 1.376 1_565 S
C279 C280 1.388 . S
C280 H267 0.930 . S
C280 C279 1.388 . S
C280 C281 1.390 . S
C281 C280 1.390 . S
C281 C282 1.394 1_565 S
C281 C287 1.465 . S
C282 C277 1.399 . S
C282 C281 1.394 1_545 S
C282 C283 1.516 . S
C283 C282 1.516 . S
C283 C284 1.502 . S
C283 C285 1.561 . S
C283 C286 1.526 . S
C284 H268 0.959 . S
C284 H269 0.959 . S
C284 H270 0.961 . S
C284 C283 1.502 . S
C285 H271 0.960 . S
C285 H272 0.961 . S
C285 H273 0.959 . S
C285 C283 1.561 . S
C286 C283 1.526 . S
C286 C287 1.396 1_545 S
C286 C291 1.382 1_655 S
C287 C281 1.465 . S
C287 C286 1.396 1_565 S
C287 C288 1.399 . S
C288 H274 0.929 . S
C288 C287 1.399 . S
C288 C289 1.385 . S
C289 H275 0.931 1_655 S
C289 C288 1.385 . S
C289 C290 1.389 1_655 S
C290 C289 1.389 1_455 S
C290 C291 1.390 1_565 S
C291 H276 0.934 . S
C291 C286 1.382 1_455 S
C291 C290 1.390 1_545 S
H292 C304 0.930 . S
H293 C306 0.930 . S
H294 C307 0.930 . S
H295 C311 0.959 . S
H296 C311 0.959 . S
H297 C311 0.961 . S
H298 C312 0.960 . S
H299 C312 0.961 . S
H300 C312 0.959 . S
H301 C315 0.929 . S
H302 C316 0.931 . S
H303 C318 0.930 . S
C304 H292 0.930 . S
C304 C305 1.399 . S
C304 C309 1.399 . S
C305 C304 1.399 . S
C305 C306 1.376 . S
C306 H293 0.930 . S
C306 C305 1.376 . S
C306 C307 1.388 . S
C307 H294 0.930 . S
C307 C306 1.388 . S
C307 C308 1.390 . S
C308 C307 1.390 . S
C308 C309 1.394 . S
C308 C314 1.465 . S
C309 C304 1.399 . S
C309 C308 1.394 . S
C309 C310 1.516 . S
C310 C309 1.516 . S
C310 C311 1.502 . S
C310 C312 1.561 . S
C310 C313 1.526 . S
C311 H295 0.959 . S
C311 H296 0.959 . S
C311 H297 0.961 . S
C311 C310 1.502 . S
C312 H298 0.960 . S
C312 H299 0.961 . S
C312 H300 0.959 . S
C312 C310 1.561 . S
C313 C310 1.526 . S
C313 C314 1.396 . S
C313 C318 1.390 . S
C314 C308 1.465 . S
C314 C313 1.396 . S
C314 C315 1.399 . S
C315 H301 0.929 . S
C315 C314 1.399 . S
C315 C316 1.385 . S
C316 H302 0.931 . S
C316 C315 1.385 . S
C316 C317 1.389 . S
C317 C316 1.389 . S
C317 C318 1.387 . S
C318 H303 0.930 . S
C318 C313 1.390 . S
C318 C317 1.387 . S
H319 C331 0.930 . S
H320 C333 0.930 . S
H321 C334 0.930 . S
H322 C338 0.959 . S
H323 C338 0.959 . S
H324 C338 0.961 . S
H325 C339 0.960 . S
H326 C339 0.961 . S
H327 C339 0.959 . S
H328 C342 0.929 . S
H329 C343 0.931 . S
H330 C345 0.930 . S
C331 H319 0.930 . S
C331 C332 1.399 . S
C331 C336 1.399 . S
C332 C331 1.399 . S
C332 C333 1.376 . S
C333 H320 0.930 . S
C333 C332 1.376 . S
C333 C334 1.388 . S
C334 H321 0.930 . S
C334 C333 1.388 . S
C334 C335 1.390 . S
C335 C334 1.390 . S
C335 C336 1.394 . S
C335 C341 1.465 . S
C336 C331 1.399 . S
C336 C335 1.394 . S
C336 C337 1.516 . S
C337 C336 1.516 . S
C337 C338 1.502 . S
C337 C339 1.561 . S
C337 C340 1.526 . S
C338 H322 0.959 . S
C338 H323 0.959 . S
C338 H324 0.961 . S
C338 C337 1.502 . S
C339 H325 0.960 . S
C339 H326 0.961 . S
C339 H327 0.959 . S
C339 C337 1.561 . S
C340 C337 1.526 . S
C340 C341 1.396 . S
C340 C345 1.390 . S
C341 C335 1.465 . S
C341 C340 1.396 . S
C341 C342 1.399 . S
C342 H328 0.929 . S
C342 C341 1.399 . S
C342 C343 1.385 . S
C343 H329 0.931 . S
C343 C342 1.385 . S
C343 C344 1.389 . S
C344 C343 1.389 . S
C344 C345 1.387 . S
C345 H330 0.930 . S
C345 C340 1.390 . S
C345 C344 1.387 . S
H346 C358 0.930 . S
H347 C360 0.930 . S
H348 C361 0.930 . S
H349 C365 0.959 . S
H350 C365 0.959 . S
H351 C365 0.961 . S
H352 C366 0.960 . S
H353 C366 0.961 . S
H354 C366 0.959 . S
H355 C369 0.929 . S
H356 C370 0.931 . S
H357 C372 0.930 . S
C358 H346 0.930 . S
C358 C359 1.399 . S
C358 C363 1.399 . S
C359 C358 1.399 . S
C359 C360 1.376 . S
C360 H347 0.930 . S
C360 C359 1.376 . S
C360 C361 1.388 . S
C361 H348 0.930 . S
C361 C360 1.388 . S
C361 C362 1.390 . S
C362 C361 1.390 . S
C362 C363 1.394 . S
C362 C368 1.465 . S
C363 C358 1.399 . S
C363 C362 1.394 . S
C363 C364 1.516 . S
C364 C363 1.516 . S
C364 C365 1.502 . S
C364 C366 1.561 . S
C364 C367 1.526 . S
C365 H349 0.959 . S
C365 H350 0.959 . S
C365 H351 0.961 . S
C365 C364 1.502 . S
C366 H352 0.960 . S
C366 H353 0.961 . S
C366 H354 0.959 . S
C366 C364 1.561 . S
C367 C364 1.526 . S
C367 C368 1.396 . S
C367 C372 1.390 . S
C368 C362 1.465 . S
C368 C367 1.396 . S
C368 C369 1.399 . S
C369 H355 0.929 . S
C369 C368 1.399 . S
C369 C370 1.385 . S
C370 H356 0.931 . S
C370 C369 1.385 . S
C370 C371 1.389 . S
C371 C370 1.389 . S
C371 C372 1.387 . S
C372 H357 0.930 . S
C372 C367 1.390 . S
C372 C371 1.387 . S
H373 C385 0.930 . S
H374 C387 0.930 . S
H375 C388 0.930 . S
H376 C392 0.959 . S
H377 C392 0.959 . S
H378 C392 0.961 . S
H379 C393 0.960 . S
H380 C393 0.961 . S
H381 C393 0.959 . S
H382 C396 0.929 . S
H383 C397 0.931 . S
H384 C399 0.930 . S
C385 H373 0.930 . S
C385 C386 1.399 . S
C385 C390 1.399 . S
C386 C385 1.399 . S
C386 C387 1.376 . S
C387 H374 0.930 . S
C387 C386 1.376 . S
C387 C388 1.388 . S
C388 H375 0.930 . S
C388 C387 1.388 . S
C388 C389 1.390 . S
C389 C388 1.390 . S
C389 C390 1.394 . S
C389 C395 1.465 . S
C390 C385 1.399 . S
C390 C389 1.394 . S
C390 C391 1.516 . S
C391 C390 1.516 . S
C391 C392 1.502 . S
C391 C393 1.561 . S
C391 C394 1.526 . S
C392 H376 0.959 . S
C392 H377 0.959 . S
C392 H378 0.961 . S
C392 C391 1.502 . S
C393 H379 0.960 . S
C393 H380 0.961 . S
C393 H381 0.959 . S
C393 C391 1.561 . S
C394 C391 1.526 . S
C394 C395 1.396 . S
C394 C399 1.390 . S
C395 C389 1.465 . S
C395 C394 1.396 . S
C395 C396 1.399 . S
C396 H382 0.929 . S
C396 C395 1.399 . S
C396 C397 1.385 . S
C397 H383 0.931 . S
C397 C396 1.385 . S
C397 C398 1.389 . S
C398 C397 1.389 . S
C398 C399 1.387 . S
C399 H384 0.930 . S
C399 C394 1.390 . S
C399 C398 1.387 . S
H400 C412 0.930 . S
H401 C414 0.930 . S
H402 C415 0.930 . S
H403 C419 0.959 . S
H404 C419 0.959 . S
H405 C419 0.961 . S
H406 C420 0.960 . S
H407 C420 0.961 . S
H408 C420 0.959 . S
H409 C423 0.929 . S
H410 C424 0.931 . S
H411 C426 0.930 . S
C412 H400 0.930 . S
C412 C413 1.399 . S
C412 C417 1.399 . S
C413 C412 1.399 . S
C413 C414 1.376 . S
C414 H401 0.930 . S
C414 C413 1.376 . S
C414 C415 1.388 . S
C415 H402 0.930 . S
C415 C414 1.388 . S
C415 C416 1.390 . S
C416 C415 1.390 . S
C416 C417 1.394 . S
C416 C422 1.465 . S
C417 C412 1.399 . S
C417 C416 1.394 . S
C417 C418 1.516 . S
C418 C417 1.516 . S
C418 C419 1.502 . S
C418 C420 1.561 . S
C418 C421 1.526 . S
C419 H403 0.959 . S
C419 H404 0.959 . S
C419 H405 0.961 . S
C419 C418 1.502 . S
C420 H406 0.960 . S
C420 H407 0.961 . S
C420 H408 0.959 . S
C420 C418 1.561 . S
C421 C418 1.526 . S
C421 C422 1.396 . S
C421 C426 1.390 . S
C422 C416 1.465 . S
C422 C421 1.396 . S
C422 C423 1.399 . S
C423 H409 0.929 . S
C423 C422 1.399 . S
C423 C424 1.385 . S
C424 H410 0.931 . S
C424 C423 1.385 . S
C424 C425 1.389 . S
C425 C424 1.389 . S
C425 C426 1.387 . S
C426 H411 0.930 . S
C426 C421 1.390 . S
C426 C425 1.387 . S
H427 C439 0.930 . S
H428 C441 0.930 . S
H429 C442 0.930 . S
H430 C446 0.959 . S
H431 C446 0.959 . S
H432 C446 0.961 . S
H433 C447 0.960 . S
H434 C447 0.961 . S
H435 C447 0.959 . S
H436 C450 0.929 . S
H437 C451 0.931 . S
H438 C453 0.930 . S
C439 H427 0.930 . S
C439 C440 1.399 . S
C439 C444 1.399 . S
C440 C439 1.399 . S
C440 C441 1.376 . S
C441 H428 0.930 . S
C441 C440 1.376 . S
C441 C442 1.388 . S
C442 H429 0.930 . S
C442 C441 1.388 . S
C442 C443 1.390 . S
C443 C442 1.390 . S
C443 C444 1.394 . S
C443 C449 1.465 . S
C444 C439 1.399 . S
C444 C443 1.394 . S
C444 C445 1.516 . S
C445 C444 1.516 . S
C445 C446 1.502 . S
C445 C447 1.561 . S
C445 C448 1.526 . S
C446 H430 0.959 . S
C446 H431 0.959 . S
C446 H432 0.961 . S
C446 C445 1.502 . S
C447 H433 0.960 . S
C447 H434 0.961 . S
C447 H435 0.959 . S
C447 C445 1.561 . S
C448 C445 1.526 . S
C448 C449 1.396 . S
C448 C453 1.390 . S
C449 C443 1.465 . S
C449 C448 1.396 . S
C449 C450 1.399 . S
C450 H436 0.929 . S
C450 C449 1.399 . S
C450 C451 1.385 . S
C451 H437 0.931 . S
C451 C450 1.385 . S
C451 C452 1.389 . S
C452 C451 1.389 . S
C452 C453 1.387 . S
C453 H438 0.930 . S
C453 C448 1.390 . S
C453 C452 1.387 . S
H454 C466 0.930 . S
H455 C468 0.930 . S
H456 C469 0.930 . S
H457 C473 0.959 . S
H458 C473 0.959 . S
H459 C473 0.961 . S
H460 C474 0.960 . S
H461 C474 0.961 . S
H462 C474 0.959 . S
H463 C477 0.929 1_545 S
H464 C478 0.929 . S
H465 C480 0.930 . S
C466 H454 0.930 . S
C466 C467 1.399 . S
C466 C471 1.399 . S
C467 C466 1.399 . S
C467 C468 1.376 . S
C468 H455 0.930 . S
C468 C467 1.376 . S
C468 C469 1.388 . S
C469 H456 0.930 . S
C469 C468 1.388 . S
C469 C470 1.390 . S
C470 C469 1.390 . S
C470 C471 1.394 . S
C470 C476 1.465 . S
C471 C466 1.399 . S
C471 C470 1.394 . S
C471 C472 1.516 . S
C472 C471 1.516 . S
C472 C473 1.502 . S
C472 C474 1.561 . S
C472 C475 1.526 . S
C473 H457 0.959 . S
C473 H458 0.959 . S
C473 H459 0.961 . S
C473 C472 1.502 . S
C474 H460 0.960 . S
C474 H461 0.961 . S
C474 H462 0.959 . S
C474 C472 1.561 . S
C475 C472 1.526 . S
C475 C476 1.396 . S
C475 C480 1.390 . S
C476 C470 1.465 . S
C476 C475 1.396 . S
C476 C477 1.399 . S
C477 H463 0.929 1_565 S
C477 C476 1.399 . S
C477 C478 1.385 1_565 S
C478 H464 0.929 . S
C478 C477 1.385 1_545 S
C478 C479 1.390 1_545 S
C479 C478 1.390 1_565 S
C479 C480 1.387 . S
C480 H465 0.930 . S
C480 C475 1.390 . S
C480 C479 1.387 . S
H481 C493 0.930 1_655 S
H482 C495 0.930 . S
H483 C496 0.930 . S
H484 C500 0.959 . S
H485 C500 0.959 . S
H486 C500 0.961 . S
H487 C501 0.960 1_655 S
H488 C501 0.954 1_655 S
H489 C501 0.959 . S
H490 C504 0.929 . S
H491 C505 0.931 . S
H492 C507 0.930 . S
C493 H481 0.930 1_455 S
C493 C494 1.399 . S
C493 C498 1.399 . S
C494 C493 1.399 . S
C494 C495 1.376 . S
C495 H482 0.930 . S
C495 C494 1.376 . S
C495 C496 1.388 . S
C496 H483 0.930 . S
C496 C495 1.388 . S
C496 C497 1.390 . S
C497 C496 1.390 . S
C497 C498 1.394 . S
C497 C503 1.465 . S
C498 C493 1.399 . S
C498 C497 1.394 . S
C498 C499 1.516 . S
C499 C498 1.516 . S
C499 C500 1.502 1_455 S
C499 C501 1.561 . S
C499 C502 1.526 . S
C500 H484 0.959 . S
C500 H485 0.959 . S
C500 H486 0.961 . S
C500 C499 1.502 1_655 S
C501 H487 0.960 1_455 S
C501 H488 0.954 1_455 S
C501 H489 0.959 . S
C501 C499 1.561 . S
C502 C499 1.526 . S
C502 C503 1.396 . S
C502 C507 1.390 . S
C503 C497 1.465 . S
C503 C502 1.396 . S
C503 C504 1.399 . S
C504 H490 0.929 . S
C504 C503 1.399 . S
C504 C505 1.385 . S
C505 H491 0.931 . S
C505 C504 1.385 . S
C505 C506 1.389 . S
C506 C505 1.389 . S
C506 C507 1.387 . S
C507 H492 0.930 . S
C507 C502 1.390 . S
C507 C506 1.387 . S
H508 C520 0.930 . S
H509 C522 0.930 . S
H510 C523 0.930 . S
H511 C527 0.959 . S
H512 C527 0.959 . S
H513 C527 0.961 . S
H514 C528 0.960 . S
H515 C528 0.961 . S
H516 C528 0.959 . S
H517 C531 0.929 . S
H518 C532 0.931 . S
H519 C534 0.930 . S
C520 H508 0.930 . S
C520 C521 1.399 . S
C520 C525 1.399 . S
C521 C520 1.399 . S
C521 C522 1.376 . S
C522 H509 0.930 . S
C522 C521 1.376 . S
C522 C523 1.388 . S
C523 H510 0.930 . S
C523 C522 1.388 . S
C523 C524 1.390 . S
C524 C523 1.390 . S
C524 C525 1.394 . S
C524 C530 1.465 . S
C525 C520 1.399 . S
C525 C524 1.394 . S
C525 C526 1.516 . S
C526 C525 1.516 . S
C526 C527 1.502 . S
C526 C528 1.561 . S
C526 C529 1.526 . S
C527 H511 0.959 . S
C527 H512 0.959 . S
C527 H513 0.961 . S
C527 C526 1.502 . S
C528 H514 0.960 . S
C528 H515 0.961 . S
C528 H516 0.959 . S
C528 C526 1.561 . S
C529 C526 1.526 . S
C529 C530 1.396 . S
C529 C534 1.390 . S
C530 C524 1.465 . S
C530 C529 1.396 . S
C530 C531 1.399 . S
C531 H517 0.929 . S
C531 C530 1.399 . S
C531 C532 1.385 . S
C532 H518 0.931 . S
C532 C531 1.385 . S
C532 C533 1.389 . S
C533 C532 1.389 . S
C533 C534 1.387 . S
C534 H519 0.930 . S
C534 C529 1.390 . S
C534 C533 1.387 . S
H535 C547 0.930 . S
H536 C549 0.930 . S
H537 C550 0.930 . S
H538 C554 0.959 . S
H539 C554 0.959 . S
H540 C554 0.961 . S
H541 C555 0.960 . S
H542 C555 0.961 . S
H543 C555 0.959 . S
H544 C558 0.929 . S
H545 C559 0.931 . S
H546 C561 0.930 . S
C547 H535 0.930 . S
C547 C548 1.399 . S
C547 C552 1.399 . S
C548 C547 1.399 . S
C548 C549 1.376 . S
C549 H536 0.930 . S
C549 C548 1.376 . S
C549 C550 1.388 . S
C550 H537 0.930 . S
C550 C549 1.388 . S
C550 C551 1.390 . S
C551 C550 1.390 . S
C551 C552 1.394 . S
C551 C557 1.465 . S
C552 C547 1.399 . S
C552 C551 1.394 . S
C552 C553 1.516 . S
C553 C552 1.516 . S
C553 C554 1.502 . S
C553 C555 1.561 . S
C553 C556 1.526 . S
C554 H538 0.959 . S
C554 H539 0.959 . S
C554 H540 0.961 . S
C554 C553 1.502 . S
C555 H541 0.960 . S
C555 H542 0.961 . S
C555 H543 0.959 . S
C555 C553 1.561 . S
C556 C553 1.526 . S
C556 C557 1.396 . S
C556 C561 1.390 . S
C557 C551 1.465 . S
C557 C556 1.396 . S
C557 C558 1.399 . S
C558 H544 0.929 . S
C558 C557 1.399 . S
C558 C559 1.385 . S
C559 H545 0.931 . S
C559 C558 1.385 . S
C559 C560 1.389 . S
C560 C559 1.389 . S
C560 C561 1.387 . S
C561 H546 0.930 . S
C561 C556 1.390 . S
C561 C560 1.387 . S
H562 C574 0.930 . S
H563 C576 0.930 . S
H564 C577 0.930 . S
H565 C581 0.959 . S
H566 C581 0.959 . S
H567 C581 0.961 . S
H568 C582 0.960 . S
H569 C582 0.961 . S
H570 C582 0.959 . S
H571 C585 0.929 . S
H572 C586 0.931 1_565 S
H573 C588 0.930 . S
C574 H562 0.930 . S
C574 C575 1.399 . S
C574 C579 1.399 . S
C575 C574 1.399 . S
C575 C576 1.376 . S
C576 H563 0.930 . S
C576 C575 1.376 . S
C576 C577 1.388 . S
C577 H564 0.930 . S
C577 C576 1.388 . S
C577 C578 1.390 . S
C578 C577 1.390 . S
C578 C579 1.394 . S
C578 C584 1.465 . S
C579 C574 1.399 . S
C579 C578 1.394 . S
C579 C580 1.516 . S
C580 C579 1.516 . S
C580 C581 1.502 . S
C580 C582 1.561 . S
C580 C583 1.526 . S
C581 H565 0.959 . S
C581 H566 0.959 . S
C581 H567 0.961 . S
C581 C580 1.502 . S
C582 H568 0.960 . S
C582 H569 0.961 . S
C582 H570 0.959 . S
C582 C580 1.561 . S
C583 C580 1.526 . S
C583 C584 1.396 . S
C583 C588 1.390 . S
C584 C578 1.465 . S
C584 C583 1.396 . S
C584 C585 1.399 . S
C585 H571 0.929 . S
C585 C584 1.399 . S
C585 C586 1.385 . S
C586 H572 0.931 1_545 S
C586 C585 1.385 . S
C586 C587 1.389 . S
C587 C586 1.389 . S
C587 C588 1.387 . S
C588 H573 0.930 . S
C588 C583 1.390 . S
C588 C587 1.387 . S
H589 C601 0.930 . S
H590 C603 0.930 . S
H591 C604 0.930 . S
H592 C608 0.959 . S
H593 C608 0.959 . S
H594 C608 0.961 . S
H595 C609 0.960 . S
H596 C609 0.961 . S
H597 C609 0.959 . S
H598 C612 0.929 . S
H599 C613 0.931 . S
H600 C615 0.930 . S
C601 H589 0.930 . S
C601 C602 1.399 . S
C601 C606 1.399 . S
C602 C601 1.399 . S
C602 C603 1.376 . S
C603 H590 0.930 . S
C603 C602 1.376 . S
C603 C604 1.388 . S
C604 H591 0.930 . S
C604 C603 1.388 . S
C604 C605 1.390 . S
C605 C604 1.390 . S
C605 C606 1.394 . S
C605 C611 1.465 . S
C606 C601 1.399 . S
C606 C605 1.394 . S
C606 C607 1.516 . S
C607 C606 1.516 . S
C607 C608 1.502 . S
C607 C609 1.561 . S
C607 C610 1.526 . S
C608 H592 0.959 . S
C608 H593 0.959 . S
C608 H594 0.961 . S
C608 C607 1.502 . S
C609 H595 0.960 . S
C609 H596 0.961 . S
C609 H597 0.959 . S
C609 C607 1.561 . S
C610 C607 1.526 . S
C610 C611 1.396 . S
C610 C615 1.390 . S
C611 C605 1.465 . S
C611 C610 1.396 . S
C611 C612 1.399 . S
C612 H598 0.929 . S
C612 C611 1.399 . S
C612 C613 1.385 . S
C613 H599 0.931 . S
C613 C612 1.385 . S
C613 C614 1.389 . S
C614 C613 1.389 . S
C614 C615 1.387 . S
C615 H600 0.930 . S
C615 C610 1.390 . S
C615 C614 1.387 . S
C197 C108 1.832 . S
C209 N12 1.793 . S
C224 N35 1.790 . S
C236 C131 1.802 . S
C251 N58 1.705 . S
C263 C154 1.771 . S
C278 C177 1.772 . S
C290 N81 1.754 . S
C305 C7 2.693 . S
C317 C53 2.693 . S
C332 C30 2.670 . S
C344 C76 2.676 . S
C359 N140 1.892 . S
C371 N94 1.876 . S
C386 N117 1.922 . S
C398 N163 1.932 . S
C413 C122 1.704 . S
C425 C16 1.592 . S
C440 C39 1.675 . S
C452 C145 1.720 . S
C467 C62 1.637 . S
C479 C168 1.682 . S
C494 C99 1.652 . S
C506 C85 1.583 . S
C521 N104 1.125 . S
C533 N25 1.246 . S
C548 N127 1.265 . S
C560 N48 1.263 . S
C575 N150 1.166 . S
C587 N71 1.292 . S
C602 N2 1.199 . S
C614 N173 1.166 . S
