# Generated by pormake.
# Topology wmt, (6)-cn, num edge types: 1
# Building blocks:
#     Node 0, Type 0, BuildingBlock: KUMBUR_clean_sbu_0, # of connection points: 6
#     Node 1, Type 0, BuildingBlock: KUMBUR_clean_sbu_0, # of connection points: 6
#     Node 2, Type 0, BuildingBlock: KUMBUR_clean_sbu_0, # of connection points: 6
#     Node 3, Type 0, BuildingBlock: KUMBUR_clean_sbu_0, # of connection points: 6
#     Node 4, Type 0, BuildingBlock: KUMBUR_clean_sbu_0, # of connection points: 6
#     Node 5, Type 0, BuildingBlock: KUMBUR_clean_sbu_0, # of connection points: 6
#     Node 6, Type 0, BuildingBlock: KUMBUR_clean_sbu_0, # of connection points: 6
#     Node 7, Type 0, BuildingBlock: KUMBUR_clean_sbu_0, # of connection points: 6
#     Node 8, Type 0, BuildingBlock: KUMBUR_clean_sbu_0, # of connection points: 6
#     Node 9, Type 0, BuildingBlock: KUMBUR_clean_sbu_0, # of connection points: 6
#     Node 10, Type 0, BuildingBlock: KUMBUR_clean_sbu_0, # of connection points: 6
#     Node 11, Type 0, BuildingBlock: KUMBUR_clean_sbu_0, # of connection points: 6
#     Node 12, Type 0, BuildingBlock: KUMBUR_clean_sbu_0, # of connection points: 6
#     Node 13, Type 0, BuildingBlock: KUMBUR_clean_sbu_0, # of connection points: 6
#     Node 14, Type 0, BuildingBlock: KUMBUR_clean_sbu_0, # of connection points: 6
#     Node 15, Type 0, BuildingBlock: KUMBUR_clean_sbu_0, # of connection points: 6
#     Node 16, Type 0, BuildingBlock: KUMBUR_clean_sbu_0, # of connection points: 6
#     Node 17, Type 0, BuildingBlock: KUMBUR_clean_sbu_0, # of connection points: 6
#     Node 18, Type 0, BuildingBlock: KUMBUR_clean_sbu_0, # of connection points: 6
#     Node 19, Type 0, BuildingBlock: KUMBUR_clean_sbu_0, # of connection points: 6
#     Node 20, Type 0, BuildingBlock: KUMBUR_clean_sbu_0, # of connection points: 6
#     Node 21, Type 0, BuildingBlock: KUMBUR_clean_sbu_0, # of connection points: 6
#     Node 22, Type 0, BuildingBlock: KUMBUR_clean_sbu_0, # of connection points: 6
#     Node 23, Type 0, BuildingBlock: KUMBUR_clean_sbu_0, # of connection points: 6
#     Node 24, Type 0, BuildingBlock: KUMBUR_clean_sbu_0, # of connection points: 6
#     Node 25, Type 0, BuildingBlock: KUMBUR_clean_sbu_0, # of connection points: 6
#     Node 26, Type 0, BuildingBlock: KUMBUR_clean_sbu_0, # of connection points: 6
#     Node 27, Type 0, BuildingBlock: KUMBUR_clean_sbu_0, # of connection points: 6
#     Node 28, Type 0, BuildingBlock: KUMBUR_clean_sbu_0, # of connection points: 6
#     Node 29, Type 0, BuildingBlock: KUMBUR_clean_sbu_0, # of connection points: 6
#     Node 30, Type 0, BuildingBlock: KUMBUR_clean_sbu_0, # of connection points: 6
#     Node 31, Type 0, BuildingBlock: KUMBUR_clean_sbu_0, # of connection points: 6
#     Node 32, Type 0, BuildingBlock: KUMBUR_clean_sbu_0, # of connection points: 6
#     Node 33, Type 0, BuildingBlock: KUMBUR_clean_sbu_0, # of connection points: 6
#     Node 34, Type 0, BuildingBlock: KUMBUR_clean_sbu_0, # of connection points: 6
#     Node 35, Type 0, BuildingBlock: KUMBUR_clean_sbu_0, # of connection points: 6
#     Edge 36, Type (0, 0), None
#     Edge 37, Type (0, 0), None
#     Edge 38, Type (0, 0), None
#     Edge 39, Type (0, 0), None
#     Edge 40, Type (0, 0), None
#     Edge 41, Type (0, 0), None
#     Edge 42, Type (0, 0), None
#     Edge 43, Type (0, 0), None
#     Edge 44, Type (0, 0), None
#     Edge 45, Type (0, 0), None
#     Edge 46, Type (0, 0), None
#     Edge 47, Type (0, 0), None
#     Edge 48, Type (0, 0), None
#     Edge 49, Type (0, 0), None
#     Edge 50, Type (0, 0), None
#     Edge 51, Type (0, 0), None
#     Edge 52, Type (0, 0), None
#     Edge 53, Type (0, 0), None
#     Edge 54, Type (0, 0), None
#     Edge 55, Type (0, 0), None
#     Edge 56, Type (0, 0), None
#     Edge 57, Type (0, 0), None
#     Edge 58, Type (0, 0), None
#     Edge 59, Type (0, 0), None
#     Edge 60, Type (0, 0), None
#     Edge 61, Type (0, 0), None
#     Edge 62, Type (0, 0), None
#     Edge 63, Type (0, 0), None
#     Edge 64, Type (0, 0), None
#     Edge 65, Type (0, 0), None
#     Edge 66, Type (0, 0), None
#     Edge 67, Type (0, 0), None
#     Edge 68, Type (0, 0), None
#     Edge 69, Type (0, 0), None
#     Edge 70, Type (0, 0), None
#     Edge 71, Type (0, 0), None
#     Edge 72, Type (0, 0), None
#     Edge 73, Type (0, 0), None
#     Edge 74, Type (0, 0), None
#     Edge 75, Type (0, 0), None
#     Edge 76, Type (0, 0), None
#     Edge 77, Type (0, 0), None
#     Edge 78, Type (0, 0), None
#     Edge 79, Type (0, 0), None
#     Edge 80, Type (0, 0), None
#     Edge 81, Type (0, 0), None
#     Edge 82, Type (0, 0), None
#     Edge 83, Type (0, 0), None
#     Edge 84, Type (0, 0), None
#     Edge 85, Type (0, 0), None
#     Edge 86, Type (0, 0), None
#     Edge 87, Type (0, 0), None
#     Edge 88, Type (0, 0), None
#     Edge 89, Type (0, 0), None
#     Edge 90, Type (0, 0), None
#     Edge 91, Type (0, 0), None
#     Edge 92, Type (0, 0), None
#     Edge 93, Type (0, 0), None
#     Edge 94, Type (0, 0), None
#     Edge 95, Type (0, 0), None
#     Edge 96, Type (0, 0), None
#     Edge 97, Type (0, 0), None
#     Edge 98, Type (0, 0), None
#     Edge 99, Type (0, 0), None
#     Edge 100, Type (0, 0), None
#     Edge 101, Type (0, 0), None
#     Edge 102, Type (0, 0), None
#     Edge 103, Type (0, 0), None
#     Edge 104, Type (0, 0), None
#     Edge 105, Type (0, 0), None
#     Edge 106, Type (0, 0), None
#     Edge 107, Type (0, 0), None
#     Edge 108, Type (0, 0), None
#     Edge 109, Type (0, 0), None
#     Edge 110, Type (0, 0), None
#     Edge 111, Type (0, 0), None
#     Edge 112, Type (0, 0), None
#     Edge 113, Type (0, 0), None
#     Edge 114, Type (0, 0), None
#     Edge 115, Type (0, 0), None
#     Edge 116, Type (0, 0), None
#     Edge 117, Type (0, 0), None
#     Edge 118, Type (0, 0), None
#     Edge 119, Type (0, 0), None
#     Edge 120, Type (0, 0), None
#     Edge 121, Type (0, 0), None
#     Edge 122, Type (0, 0), None
#     Edge 123, Type (0, 0), None
#     Edge 124, Type (0, 0), None
#     Edge 125, Type (0, 0), None
#     Edge 126, Type (0, 0), None
#     Edge 127, Type (0, 0), None
#     Edge 128, Type (0, 0), None
#     Edge 129, Type (0, 0), None
#     Edge 130, Type (0, 0), None
#     Edge 131, Type (0, 0), None
#     Edge 132, Type (0, 0), None
#     Edge 133, Type (0, 0), None
#     Edge 134, Type (0, 0), None
#     Edge 135, Type (0, 0), None
#     Edge 136, Type (0, 0), None
#     Edge 137, Type (0, 0), None
#     Edge 138, Type (0, 0), None
#     Edge 139, Type (0, 0), None
#     Edge 140, Type (0, 0), None
#     Edge 141, Type (0, 0), None
#     Edge 142, Type (0, 0), None
#     Edge 143, Type (0, 0), None
# Relax obj value: 0.584
# Max RMSD: 0.266
# Mean RMSD: 0.266
data_MOF--net-wmt--node1-KUMBUR_clean_sbu_0--edge1-none
_symmetry_space_group_name_H-M    P1
_symmetry_Int_Tables_number       1
_symmetry_cell_setting            triclinic
loop_
_symmetry_equiv_pos_as_xyz
'x, y, z'
_cell_length_a     40.735173
_cell_length_b     40.730151
_cell_length_c     18.920261
_cell_angle_alpha  90.006324
_cell_angle_beta   90.017062
_cell_angle_gamma 120.01668
loop_
_atom_site_label
_atom_site_type_symbol
_atom_site_fract_x
_atom_site_fract_y
_atom_site_fract_z
_atom_type_partial_charge
Tb0 Tb 0.01175 0.45268 0.21129 0.0
C1 C 0.86363 0.30158 0.11678 0.0
C2 C 0.87932 0.24501 0.09645 0.0
C3 C 0.81806 0.24255 0.07211 0.0
C4 C 0.89005 0.29077 0.11735 0.0
C5 C 0.8276 0.27794 0.09425 0.0
C6 C 0.84073 0.22755 0.08817 0.0
C7 C 0.80849 0.31917 0.14866 0.0
N8 N 0.87305 0.33432 0.15106 0.0
C9 C 0.84531 0.34246 0.16987 0.0
C10 C 0.79978 0.28651 0.11147 0.0
Tb11 Tb -0.06311 0.3781 0.14182 0.0
N12 N 0.91754 0.31271 0.18012 0.0
C13 C -0.05666 0.28511 0.25212 0.0
C14 C 0.8995 0.21853 0.14115 0.0
C15 C -0.06828 0.23827 0.22085 0.0
H16 H 0.85285 0.3688 0.19392 0.0
H17 H 0.91577 0.22338 0.1809 0.0
H18 H 0.82568 0.20952 0.12971 0.0
H19 H 0.78648 0.32539 0.16258 0.0
H20 H -0.03808 0.2966 0.29724 0.0
H21 H 0.0685 0.60119 0.2184 0.0
H22 H 0.89088 0.19027 0.1111 0.0
H23 H 0.05766 0.41239 0.23143 0.0
H24 H 0.01919 0.53673 0.18844 0.0
H25 H 0.12162 0.4181 0.20958 0.0
H26 H 0.78871 0.22236 0.07222 0.0
H27 H 0.13528 0.621 0.2042 0.0
H28 H 0.18359 0.60271 0.17644 0.0
H29 H 0.77037 0.26665 0.10026 0.0
H30 H 0.19863 0.55125 0.17215 0.0
N31 N 0.05557 0.51568 0.18395 0.0
C32 C 0.0475 0.54361 0.19057 0.0
C33 C 0.11366 0.59189 0.19496 0.0
C34 C 0.12279 0.56434 0.18144 0.0
C35 C 0.07596 0.58072 0.20346 0.0
C36 C 0.09305 0.5261 0.18114 0.0
H37 H 0.17584 0.48273 0.18818 0.0
N38 N 0.07266 0.46329 0.19701 0.0
C39 C 0.11678 0.44105 0.1988 0.0
C40 C 0.1017 0.49849 0.18475 0.0
C41 C 0.08071 0.43616 0.20959 0.0
C42 C 0.14703 0.47723 0.18678 0.0
C43 C 0.1398 0.50683 0.18061 0.0
O44 O 0.03742 0.45218 0.30977 0.0
O45 O -0.04421 0.41133 0.26083 0.0
O46 O 0.91778 0.41558 0.17312 0.0
O47 O -0.02655 0.47098 0.1554 0.0
O48 O -0.04421 0.41254 0.26699 0.0
O49 O 0.01742 0.49205 0.28827 0.0
O50 O 0.89567 0.38143 0.0878 0.0
O51 O -0.00853 0.42802 0.11858 0.0
O52 O 0.03145 0.41883 0.1142 0.0
O53 O -0.02274 0.36895 0.06899 0.0
O54 O -0.04484 0.41648 0.0452 0.0
O55 O 0.92492 0.35554 1.03867 0.0
C56 C -0.05407 0.41705 0.33265 0.0
C57 C 0.0364 0.49264 0.4112 0.0
C58 C 0.01604 0.51715 0.51493 0.0
C59 C 0.0073 0.49391 0.45234 0.0
C60 C 0.05443 0.53846 0.53211 0.0
C61 C 0.07263 0.5095 0.44044 0.0
C62 C 0.08182 0.5329 0.49922 0.0
C63 C -0.06444 0.44817 0.14205 0.0
C64 C 0.03286 0.48007 0.33426 0.0
C65 C 0.16929 0.5444 0.17462 0.0
C66 C 0.16076 0.57346 0.17645 0.0
C67 C -0.01072 0.44119 0.05827 0.0
C68 C 0.88474 0.36942 0.9698 0.0
C69 C 0.9 0.40476 0.93951 0.0
C70 C 0.90711 0.40496 0.86972 0.0
C71 C 0.88397 0.37253 0.82996 0.0
C72 C 0.85895 0.33806 0.93296 0.0
C73 C 0.85541 0.34199 0.86108 0.0
C74 C 0.01502 0.38968 0.0603 0.0
C75 C 0.89743 0.36323 1.03463 0.0
H76 H -0.02173 0.47577 0.43725 0.0
H77 H 0.06396 0.56036 0.57018 0.0
H78 H 0.09497 0.50756 0.41393 0.0
H79 H 0.11099 0.54869 0.51689 0.0
H80 H 0.91949 0.42977 0.96642 0.0
H81 H 0.89352 0.3653 0.78406 0.0
H82 H 0.84507 0.31111 0.95937 0.0
H83 H 0.83875 0.3189 0.82634 0.0
Tb84 Tb 0.42354 0.53481 0.21148 0.0
C85 C 0.57463 0.53756 0.11693 0.0
C86 C 0.63156 0.60975 0.09712 0.0
C87 C 0.63369 0.5508 0.07289 0.0
C88 C 0.58567 0.57486 0.11769 0.0
C89 C 0.59819 0.52505 0.0946 0.0
C90 C 0.64884 0.58845 0.08921 0.0
C91 C 0.55674 0.46474 0.14891 0.0
N92 N 0.54185 0.51431 0.15117 0.0
C93 C 0.53357 0.47839 0.17004 0.0
C94 C 0.58947 0.48861 0.11187 0.0
Tb95 Tb 0.49818 0.53452 0.14214 0.0
N96 N 0.56374 0.58051 0.18031 0.0
C97 C 0.59147 0.63388 0.2524 0.0
C98 C 0.65818 0.65638 0.14196 0.0
C99 C 0.63843 0.66895 0.22147 0.0
H100 H 0.50723 0.45968 0.19408 0.0
H101 H 0.65334 0.66783 0.18166 0.0
H102 H 0.66689 0.59141 0.13078 0.0
H103 H 0.5504 0.43647 0.16286 0.0
H104 H 0.58 0.64105 0.29742 0.0
H105 H 0.27505 0.44309 0.21826 0.0
H106 H 0.68651 0.67595 0.11211 0.0
H107 H 0.46389 0.62099 0.23172 0.0
H108 H 0.33948 0.45821 0.18847 0.0
H109 H 0.45825 0.67928 0.2102 0.0
H110 H 0.65377 0.54152 0.07338 0.0
H111 H 0.25527 0.49007 0.20393 0.0
H112 H 0.27363 0.55672 0.17644 0.0
H113 H 0.60926 0.47897 0.1008 0.0
H114 H 0.32512 0.62324 0.17249 0.0
N115 N 0.36057 0.51566 0.18401 0.0
C116 C 0.33262 0.47965 0.19055 0.0
C117 C 0.28438 0.49756 0.19481 0.0
C118 C 0.31195 0.53426 0.18142 0.0
C119 C 0.29552 0.47101 0.20333 0.0
C120 C 0.35018 0.54274 0.1812 0.0
H121 H 0.39362 0.66893 0.1889 0.0
N122 N 0.41299 0.58514 0.19718 0.0
C123 C 0.43528 0.65152 0.19926 0.0
C124 C 0.3778 0.579 0.18491 0.0
C125 C 0.44014 0.6203 0.20986 0.0
C126 C 0.39911 0.64562 0.1873 0.0
C127 C 0.3695 0.60879 0.18092 0.0
O128 O 0.42407 0.56098 0.30997 0.0
O129 O 0.46488 0.5202 0.26107 0.0
O130 O 0.46057 0.47789 0.1733 0.0
O131 O 0.4052 0.4782 0.15552 0.0
O132 O 0.46366 0.51898 0.26722 0.0
O133 O 0.38416 0.50111 0.28842 0.0
O134 O 0.49468 0.48992 0.088 0.0
O135 O 0.44824 0.53916 0.11887 0.0
O136 O 0.45741 0.58834 0.11443 0.0
O137 O 0.50734 0.58407 0.06949 0.0
O138 O 0.45982 0.51449 0.04545 0.0
O139 O 0.52065 0.5451 1.039 0.0
C140 C 0.45906 0.50447 0.33278 0.0
C141 C 0.38359 0.51951 0.41137 0.0
C142 C 0.35895 0.47458 0.51503 0.0
C143 C 0.38222 0.48908 0.45251 0.0
C144 C 0.33768 0.4917 0.53212 0.0
C145 C 0.36678 0.53891 0.44057 0.0
C146 C 0.34333 0.5247 0.49927 0.0
C147 C 0.42799 0.4631 0.14216 0.0
C148 C 0.39618 0.52853 0.33445 0.0
C149 C 0.33195 0.60073 0.17487 0.0
C150 C 0.30287 0.56314 0.17651 0.0
C151 C 0.43507 0.52385 0.05848 0.0
C152 C 0.50655 0.49101 0.96996 0.0
C153 C 0.47117 0.47093 0.93977 0.0
C154 C 0.47091 0.47772 0.86993 0.0
C155 C 0.50327 0.48685 0.83017 0.0
C156 C 0.5378 0.49635 0.93311 0.0
C157 C 0.53376 0.48873 0.86127 0.0
C158 C 0.4866 0.60107 0.06066 0.0
C159 C 0.51288 0.50989 1.03486 0.0
H160 H 0.40034 0.47816 0.4375 0.0
H161 H 0.31575 0.47934 0.5701 0.0
H162 H 0.36878 0.56323 0.41409 0.0
H163 H 0.32758 0.53812 0.51686 0.0
H164 H 0.44622 0.46552 0.96667 0.0
H165 H 0.51054 0.50363 0.78426 0.0
H166 H 0.56476 0.50933 0.95951 0.0
H167 H 0.55675 0.49497 0.82646 0.0
Tb168 Tb 0.34125 0.86406 0.21148 0.0
C169 C 0.33867 0.01262 0.11687 0.0
C170 C 0.26651 -0.00259 0.09703 0.0
C171 C 0.32548 0.05851 0.07302 0.0
C172 C 0.30138 -0.01361 0.11761 0.0
C173 C 0.35121 0.04873 0.09465 0.0
C174 C 0.28782 0.036 0.08921 0.0
C175 C 0.41153 0.06751 0.14888 0.0
N176 N 0.36191 0.00303 0.15106 0.0
C177 C 0.39785 0.03066 0.1699 0.0
C178 C 0.38766 0.07642 0.11193 0.0
Tb179 Tb 0.34159 0.93909 0.14209 0.0
N180 N 0.29572 -0.04119 0.18024 0.0
C181 C 0.24239 0.93318 0.25232 0.0
C182 C 0.21989 -0.02261 0.14184 0.0
C183 C 0.20733 0.94508 0.22138 0.0
H184 H 0.41656 0.023 0.19384 0.0
H185 H 0.20845 -0.03889 0.18155 0.0
H186 H 0.28481 0.05112 0.13069 0.0
H187 H 0.43982 0.08942 0.16281 0.0
H188 H 0.23522 0.91454 0.29737 0.0
H189 H 0.43233 0.80635 0.21794 0.0
H190 H 0.2003 -0.01391 0.11188 0.0
H191 H 0.25516 0.81859 0.23162 0.0
H192 H 0.41764 0.8561 0.18863 0.0
H193 H 0.19663 0.75476 0.20986 0.0
H194 H 0.33477 0.08787 0.07359 0.0
H195 H 0.38514 0.73976 0.20323 0.0
H196 H 0.31836 0.69176 0.17626 0.0
H197 H 0.39734 0.10588 0.10091 0.0
H198 H 0.25197 0.67709 0.17253 0.0
N199 N 0.36013 0.81997 0.18414 0.0
C200 C 0.39608 0.82782 0.19053 0.0
C201 C 0.3778 0.76152 0.1944 0.0
C202 C 0.34115 0.75262 0.18134 0.0
C203 C 0.40452 0.79915 0.20291 0.0
C204 C 0.33289 0.78252 0.18131 0.0
H205 H 0.20663 0.70025 0.18901 0.0
N206 N 0.29076 0.80325 0.1972 0.0
C207 C 0.22433 0.75941 0.19907 0.0
C208 C 0.2967 0.77407 0.18499 0.0
C209 C 0.25567 0.79542 0.2098 0.0
C210 C 0.23002 0.72901 0.18728 0.0
C211 C 0.26677 0.73603 0.18097 0.0
O212 O 0.31513 0.83849 0.31002 0.0
O213 O 0.35588 0.92007 0.26103 0.0
O214 O 0.39819 -0.04196 0.17325 0.0
O215 O 0.39782 0.90231 0.15554 0.0
O216 O 0.3571 0.92006 0.26719 0.0
O217 O 0.37493 0.85827 0.28834 0.0
O218 O 0.38615 -0.01983 0.08792 0.0
O219 O 0.33701 0.88452 0.11886 0.0
O220 O 0.2878 0.8444 0.11425 0.0
O221 O 0.29201 0.89862 0.06947 0.0
O222 O 0.36148 0.92071 0.04532 0.0
O223 O 0.33094 -0.04906 1.03896 0.0
C224 C 0.37159 0.93 0.33278 0.0
C225 C 0.35661 0.83938 0.41137 0.0
C226 C 0.40153 0.85971 0.51509 0.0
C227 C 0.38698 0.86846 0.45259 0.0
C228 C 0.38447 0.8213 0.53214 0.0
C229 C 0.33725 0.80314 0.44052 0.0
C230 C 0.35149 0.79393 0.49924 0.0
C231 C 0.41291 0.9402 0.14209 0.0
C232 C 0.34756 0.84297 0.33445 0.0
C233 C 0.2746 0.70638 0.17491 0.0
C234 C 0.31212 0.7147 0.17644 0.0
C235 C 0.35223 0.88663 0.05842 0.0
C236 C 0.38499 -0.0091 0.96987 0.0
C237 C 0.40505 -0.02442 0.93971 0.0
C238 C 0.39829 -0.03146 0.86987 0.0
C239 C 0.38917 -0.00822 0.83008 0.0
C240 C 0.37971 0.01684 0.933 0.0
C241 C 0.38735 0.02043 0.86117 0.0
C242 C 0.27506 0.86087 0.06055 0.0
C243 C 0.36616 -0.02161 1.03478 0.0
H244 H 0.3978 0.89749 0.43766 0.0
H245 H 0.39688 0.81177 0.57013 0.0
H246 H 0.31295 0.78079 0.41402 0.0
H247 H 0.33811 0.76474 0.51681 0.0
H248 H 0.41043 -0.04399 0.96659 0.0
H249 H 0.37235 -0.01776 0.78421 0.0
H250 H 0.36675 0.03083 0.9594 0.0
H251 H 0.38116 0.03721 0.82633 0.0
Tb252 Tb 0.42902 0.03729 0.50603 0.0
C253 C 0.27439 0.8871 0.60658 0.0
C254 C 0.21799 0.90345 0.62651 0.0
C255 C 0.21489 0.84141 0.64824 0.0
C256 C 0.26371 0.91367 0.60604 0.0
C257 C 0.25049 0.85097 0.62751 0.0
C258 C 0.20005 0.86455 0.63401 0.0
C259 C 0.29162 0.83195 0.57161 0.0
N260 N 0.30709 0.89643 0.5723 0.0
C261 C 0.3152 0.86893 0.55193 0.0
C262 C 0.25902 0.82315 0.60919 0.0
Tb263 Tb 0.35077 -0.04051 0.58356 0.0
N264 N 0.28596 0.94104 0.5434 0.0
C265 C 0.25918 -0.03245 0.47132 0.0
C266 C 0.19231 0.9246 0.58152 0.0
C267 C 0.21263 -0.04331 0.50193 0.0
H268 H 0.34158 0.87663 0.52738 0.0
H269 H 0.19765 0.94097 0.54171 0.0
H270 H 0.18188 0.84939 0.59261 0.0
H271 H 0.2977 0.80994 0.55667 0.0
H272 H 0.27093 -0.01405 0.42622 0.0
H273 H 0.57643 0.09303 0.49978 0.0
H274 H 0.16453 0.91752 0.61177 0.0
H275 H 0.38943 0.08368 0.49013 0.0
H276 H 0.51239 0.0447 0.53481 0.0
H277 H 0.39503 0.14735 0.51181 0.0
H278 H 0.19489 0.81205 0.64448 0.0
H279 H 0.59695 0.16019 0.51224 0.0
H280 H 0.57965 0.20906 0.54284 0.0
H281 H 0.23944 0.79375 0.62029 0.0
H282 H 0.52844 0.2245 0.54809 0.0
N283 N 0.49173 0.08116 0.53774 0.0
C284 C 0.51954 0.07292 0.53162 0.0
C285 C 0.56804 0.13879 0.52364 0.0
C286 C 0.54094 0.14828 0.539 0.0
C287 C 0.55646 0.10094 0.51587 0.0
C288 C 0.50262 0.11874 0.54048 0.0
H289 H 0.45985 0.20184 0.53194 0.0
N290 N 0.44022 0.09846 0.52427 0.0
C291 C 0.41811 0.14272 0.52218 0.0
C292 C 0.47531 0.12752 0.53689 0.0
C293 C 0.4132 0.10666 0.51172 0.0
C294 C 0.45429 0.17301 0.53387 0.0
C295 C 0.48379 0.16569 0.54053 0.0
O296 O 0.42601 0.06269 0.40901 0.0
O297 O 0.38307 -0.02258 0.47196 0.0
O298 O 0.38987 0.94342 0.54557 0.0
O299 O 0.44594 -0.002 0.56258 0.0
O300 O 0.41792 0.00194 0.40176 0.0
O301 O 0.47071 0.04865 0.43131 0.0
O302 O 0.3554 0.91862 0.63552 0.0
O303 O 0.40227 0.01359 0.5991 0.0
O304 O 0.39368 0.05532 0.60385 0.0
O305 O 0.34387 0.00146 0.6537 0.0
O306 O 0.38963 -0.02111 0.67793 0.0
O307 O 0.32884 0.9469 0.68622 0.0
C308 C 0.38756 -0.03152 0.40129 0.0
C309 C 0.46883 0.06473 0.30784 0.0
C310 C 0.49361 0.0432 0.20569 0.0
C311 C 0.47034 0.03518 0.26818 0.0
C312 C 0.51524 0.08147 0.18769 0.0
C313 C 0.48639 0.10079 0.2777 0.0
C314 C 0.50999 0.10931 0.21942 0.0
C315 C 0.42276 -0.03965 0.5771 0.0
C316 C 0.45669 0.06235 0.38529 0.0
C317 C 0.52144 0.19511 0.54603 0.0
C318 C 0.55035 0.18636 0.54371 0.0
C319 C 0.41497 0.01217 0.66086 0.0
C320 C 0.3426 0.90667 0.75301 0.0
C321 C 0.37793 0.92197 0.78283 0.0
C322 C 0.3783 0.92921 0.85263 0.0
C323 C 0.3459 0.90633 0.89277 0.0
C324 C 0.31109 0.88158 0.79006 0.0
C325 C 0.31504 0.8781 0.86177 0.0
C326 C 0.36503 0.03924 0.65945 0.0
C327 C 0.3366 0.91948 0.68872 0.0
H328 H 0.45183 0.00627 0.28345 0.0
H329 H 0.53705 0.09059 0.14949 0.0
H330 H 0.4848 0.1236 0.30299 0.0
H331 H 0.52609 0.13833 0.20109 0.0
H332 H 0.40272 0.94132 0.75495 0.0
H333 H 0.33914 0.91572 0.93947 0.0
H334 H 0.28392 0.86833 0.76421 0.0
H335 H 0.29186 0.8617 0.89608 0.0
Tb336 Tb 0.8387 0.36682 0.5058 0.0
C337 C -0.01099 0.36278 0.60661 0.0
C338 C -0.02727 0.28999 0.6262 0.0
C339 C 0.03477 0.34898 0.64789 0.0
C340 C -0.03753 0.32549 0.60594 0.0
C341 C 0.02518 0.37501 0.62733 0.0
C342 C 0.01163 0.31099 0.63362 0.0
C343 C 0.04414 0.43516 0.57144 0.0
N344 N -0.02035 0.38616 0.57242 0.0
C345 C 0.00712 0.42179 0.55204 0.0
C346 C 0.05299 0.41138 0.60891 0.0
Tb347 Tb 0.91656 0.36668 0.58347 0.0
N348 N -0.0649 0.32041 0.5433 0.0
C349 C 0.90864 0.26721 0.47095 0.0
C350 C -0.04839 0.2432 0.58096 0.0
C351 C 0.91952 0.2315 0.50134 0.0
H352 H -0.00059 0.4405 0.52763 0.0
H353 H -0.06475 0.2322 0.5411 0.0
H354 H 0.02673 0.30801 0.5921 0.0
H355 H 0.06613 0.46329 0.55656 0.0
H356 H 0.89029 0.26066 0.42583 0.0
H357 H 0.78348 0.45854 0.50032 0.0
H358 H -0.04124 0.2225 0.61103 0.0
H359 H 0.79237 0.28044 0.49031 0.0
H360 H 0.8315 0.44267 0.53538 0.0
H361 H 0.72842 0.22244 0.50967 0.0
H362 H 0.06412 0.35836 0.64406 0.0
H363 H 0.71618 0.41203 0.51228 0.0
H364 H 0.66711 0.34564 0.54197 0.0
H365 H 0.08239 0.42123 0.62004 0.0
H366 H 0.65157 0.27893 0.5467 0.0
N367 N 0.79493 0.38554 0.53782 0.0
C368 C 0.80326 0.42163 0.5322 0.0
C369 C 0.73748 0.40436 0.52366 0.0
C370 C 0.72787 0.36766 0.53862 0.0
C371 C 0.77537 0.43059 0.51623 0.0
C372 C 0.75736 0.35883 0.54016 0.0
H373 H 0.67411 0.23298 0.53028 0.0
N374 N 0.7776 0.31661 0.52404 0.0
C375 C 0.7332 0.25018 0.52116 0.0
C376 C 0.74855 0.32269 0.53639 0.0
C377 C 0.7694 0.28133 0.5116 0.0
C378 C 0.70297 0.25618 0.53264 0.0
C379 C 0.71036 0.29303 0.53964 0.0
O380 O 0.8132 0.33838 0.40883 0.0
O381 O 0.89862 0.38105 0.47181 0.0
O382 O -0.06743 0.42185 0.54547 0.0
O383 O 0.87789 0.4231 0.56239 0.0
O384 O 0.87398 0.39122 0.40155 0.0
O385 O 0.82702 0.39703 0.4313 0.0
O386 O -0.04263 0.41217 0.63561 0.0
O387 O 0.86239 0.36394 0.59903 0.0
O388 O 0.82078 0.31349 0.60347 0.0
O389 O 0.87468 0.31774 0.65348 0.0
O390 O 0.89708 0.38609 0.67781 0.0
O391 O -0.07093 0.35726 0.68613 0.0
C392 C 0.9075 0.3945 0.40116 0.0
C393 C 0.81107 0.37918 0.30777 0.0
C394 C 0.83253 0.42558 0.20573 0.0
C395 C 0.84058 0.41037 0.26827 0.0
C396 C 0.79426 0.40876 0.18757 0.0
C397 C 0.77504 0.36059 0.2775 0.0
C398 C 0.76649 0.37562 0.21921 0.0
C399 C 0.91555 0.43772 0.57692 0.0
C400 C 0.81338 0.36934 0.38521 0.0
C401 C 0.68098 0.30131 0.54497 0.0
C402 C 0.68977 0.339 0.54292 0.0
C403 C 0.86377 0.37804 0.66081 0.0
C404 C -0.0309 0.41122 0.75323 0.0
C405 C -0.04626 0.43123 0.78286 0.0
C406 C -0.05355 0.42438 0.85265 0.0
C407 C -0.03067 0.41493 0.89295 0.0
C408 C -0.00579 0.40491 0.79046 0.0
C409 C -0.00232 0.41245 0.86215 0.0
C410 C 0.8369 0.30098 0.65904 0.0
C411 C -0.04353 0.39246 0.6888 0.0
H412 H 0.86949 0.42089 0.28367 0.0
H413 H 0.78509 0.42135 0.14929 0.0
H414 H 0.75226 0.33614 0.3027 0.0
H415 H 0.73748 0.36259 0.20075 0.0
H416 H -0.06556 0.43668 0.75483 0.0
H417 H -0.04012 0.3987 0.93954 0.0
H418 H 0.00747 0.39098 0.76474 0.0
H419 H 0.01416 0.40583 0.89662 0.0
Tb420 Tb 0.50893 0.44716 0.50604 0.0
C421 C 0.51346 0.60176 0.60677 0.0
C422 C 0.58622 0.65822 0.62673 0.0
C423 C 0.52727 0.66128 0.64839 0.0
C424 C 0.55072 0.61247 0.60627 0.0
C425 C 0.50124 0.62568 0.62762 0.0
C426 C 0.56526 0.67615 0.63419 0.0
C427 C 0.4411 0.58454 0.57157 0.0
N428 N 0.49008 0.56905 0.57245 0.0
C429 C 0.45447 0.56093 0.552 0.0
C430 C 0.46489 0.61715 0.60916 0.0
Tb431 Tb 0.50943 0.52536 0.58363 0.0
N432 N 0.55584 0.5902 0.54363 0.0
C433 C 0.60912 0.61701 0.47154 0.0
C434 C 0.63304 0.68393 0.58173 0.0
C435 C 0.6448 0.6636 0.50213 0.0
H436 H 0.43578 0.53454 0.52742 0.0
H437 H 0.64406 0.67859 0.54191 0.0
H438 H 0.56828 0.69432 0.5928 0.0
H439 H 0.413 0.57844 0.55663 0.0
H440 H 0.61575 0.60526 0.42645 0.0
H441 H 0.41607 0.30061 0.49963 0.0
H442 H 0.65376 0.7117 0.61203 0.0
H443 H 0.59506 0.48612 0.49017 0.0
H444 H 0.43268 0.36456 0.53517 0.0
H445 H 0.65263 0.47985 0.51175 0.0
H446 H 0.51792 0.68127 0.64459 0.0
H447 H 0.46206 0.27908 0.51131 0.0
H448 H 0.52812 0.29555 0.54257 0.0
H449 H 0.45508 0.63672 0.62029 0.0
H450 H 0.59504 0.34627 0.54842 0.0
N451 N 0.48961 0.38453 0.53807 0.0
C452 C 0.45345 0.35707 0.53187 0.0
C453 C 0.47 0.30807 0.52312 0.0
C454 C 0.50672 0.3348 0.53893 0.0
C455 C 0.44413 0.32018 0.51542 0.0
C456 C 0.51597 0.37325 0.54077 0.0
H457 H 0.64165 0.41484 0.53279 0.0
N458 N 0.55859 0.4355 0.52461 0.0
C459 C 0.62485 0.45697 0.52235 0.0
C460 C 0.55218 0.40028 0.53726 0.0
C461 C 0.59394 0.46227 0.51201 0.0
C462 C 0.61856 0.42067 0.53437 0.0
C463 C 0.58157 0.3914 0.54095 0.0
O464 O 0.5375 0.45034 0.40913 0.0
O465 O 0.49504 0.49308 0.47196 0.0
O466 O 0.4542 0.48627 0.54562 0.0
O467 O 0.45269 0.43022 0.56252 0.0
O468 O 0.48445 0.45806 0.4019 0.0
O469 O 0.47886 0.40543 0.43114 0.0
O470 O 0.46396 0.52075 0.63567 0.0
O471 O 0.512 0.47384 0.5992 0.0
O472 O 0.56233 0.48246 0.60377 0.0
O473 O 0.55829 0.53224 0.65373 0.0
O474 O 0.4899 0.48645 0.67793 0.0
O475 O 0.51886 0.54729 0.6863 0.0
C476 C 0.48156 0.48853 0.40131 0.0
C477 C 0.49683 0.40749 0.30777 0.0
C478 C 0.45037 0.38247 0.20581 0.0
C479 C 0.46565 0.40581 0.26825 0.0
C480 C 0.46705 0.36087 0.18787 0.0
C481 C 0.51534 0.38996 0.27759 0.0
C482 C 0.5002 0.36625 0.21946 0.0
C483 C 0.43821 0.45336 0.57704 0.0
C484 C 0.50661 0.41957 0.38526 0.0
C485 C 0.57288 0.3536 0.54633 0.0
C486 C 0.53507 0.32496 0.54368 0.0
C487 C 0.49784 0.46111 0.66093 0.0
C488 C 0.46493 0.53353 0.75323 0.0
C489 C 0.4448 0.49817 0.78289 0.0
C490 C 0.4516 0.49773 0.85272 0.0
C491 C 0.46114 0.53012 0.89295 0.0
C492 C 0.47135 0.56502 0.79037 0.0
C493 C 0.46384 0.56101 0.86204 0.0
C494 C 0.57489 0.51107 0.65946 0.0
C495 C 0.48369 0.53955 0.68888 0.0
H496 H 0.45517 0.42424 0.28359 0.0
H497 H 0.45434 0.33898 0.14983 0.0
H498 H 0.53979 0.39163 0.30278 0.0
H499 H 0.51314 0.35017 0.20115 0.0
H500 H 0.43931 0.47339 0.75492 0.0
H501 H 0.47728 0.53685 0.93967 0.0
H502 H 0.48532 0.59221 0.76461 0.0
H503 H 0.47057 0.58416 0.89646 0.0
Tb504 Tb 0.91405 0.52294 0.07763 0.0
C505 C 0.74929 0.40216 1.03452 0.0
C506 C 0.72845 0.33636 1.03713 0.0
C507 C 0.68174 0.35603 0.04415 0.0
C508 C 0.75808 0.37463 1.03799 0.0
C509 C 0.71114 0.39367 1.0385 0.0
C510 C 0.69042 0.32707 0.04198 0.0
C511 C 0.73392 0.4594 1.02023 0.0
N512 N 0.77824 0.43743 1.02242 0.0
C513 C 0.77006 0.46445 1.00965 0.0
C514 C 0.70376 0.42318 1.03237 0.0
Tb515 Tb 0.83921 0.44823 1.00811 0.0
N516 N 0.7956 0.38519 1.03534 0.0
C517 C 0.80382 0.35737 1.02861 0.0
C518 C 0.73776 0.30896 1.02323 0.0
C519 C 0.77552 0.32026 1.01527 0.0
H520 H 0.79302 0.48825 0.98773 0.0
H521 H 0.78317 0.29989 1.00059 0.0
H522 H 0.66768 0.29779 0.04162 0.0
H523 H 0.72899 0.48226 1.00921 0.0
H524 H 0.83214 0.36435 1.03104 0.0
H525 H -0.0646 0.67801 1.03777 0.0
H526 H 0.71624 0.2799 1.01335 0.0
H527 H -0.00194 0.53257 1.0253 0.0
H528 H 0.88876 0.60435 0.92253 0.0
H529 H 0.06436 0.57583 0.05711 0.0
H530 H 0.65236 0.34905 0.04649 0.0
H531 H -0.03925 0.71149 0.1068 0.0
H532 H 0.02519 0.69136 0.08868 0.0
H533 H 0.67491 0.41758 1.03099 0.0
H534 H 0.06223 0.67886 0.14665 0.0
N535 N -0.06675 0.58849 1.03966 0.0
C536 C 0.90743 0.61597 0.96747 0.0
C537 C -0.04824 0.68298 0.07741 0.0
C538 C -0.02816 0.65648 0.12243 0.0
C539 C 0.9193 0.66298 0.99808 0.0
C540 C -0.03909 0.61057 0.10213 0.0
H541 H 0.08043 0.63447 0.11965 0.0
N542 N -0.02217 0.56691 0.06867 0.0
C543 C 0.04233 0.582 0.07121 0.0
C544 C -0.01279 0.59961 0.10309 0.0
C545 C 0.00558 0.55883 0.04966 0.0
C546 C 0.05102 0.61458 0.10861 0.0
C547 C 0.02324 0.62323 0.12566 0.0
O548 O -0.04465 0.51953 0.13137 0.0
O549 O 0.85945 0.47291 0.10083 0.0
O550 O 0.81945 0.48205 0.10518 0.0
O551 O 0.87364 0.53199 0.15036 0.0
O552 O 0.89569 0.48473 0.17448 0.0
O553 O -0.07391 0.54523 0.18087 0.0
O554 O 0.8136 0.44886 0.90958 0.0
O555 O 0.89518 0.48953 0.95866 0.0
O556 O -0.06683 0.48543 0.0465 0.0
O557 O 0.8775 0.43 0.06421 0.0
O558 O 0.89518 0.4883 0.95248 0.0
O559 O 0.83346 0.4089 0.93095 0.0
C560 C 0.86166 0.45982 0.16125 0.0
C561 C -0.03377 0.53119 0.24952 0.0
C562 C -0.05647 0.4958 0.34976 0.0
C563 C -0.0495 0.49585 0.27994 0.0
C564 C -0.03314 0.52819 0.38939 0.0
C565 C -0.00764 0.5624 0.28636 0.0
C566 C -0.00415 0.55841 0.35828 0.0
C567 C 0.83589 0.5112 0.15914 0.0
C568 C -0.04636 0.53763 0.18473 0.0
C569 C 0.03288 0.65872 0.14728 0.0
C570 C 0.01033 0.6738 0.13099 0.0
C571 C 0.9051 0.48364 0.88699 0.0
C572 C 0.81464 0.40848 0.80794 0.0
C573 C 0.84373 0.40708 0.76695 0.0
C574 C 0.83497 0.38378 0.70442 0.0
C575 C 0.7966 0.36257 0.68709 0.0
C576 C 0.77847 0.39176 0.77847 0.0
C577 C 0.76928 0.36834 0.71968 0.0
C578 C 0.91537 0.45285 0.07764 0.0
C579 C 0.81808 0.42094 0.88498 0.0
H580 H -0.0692 0.4709 0.25315 0.0
H581 H -0.04267 0.53559 0.43519 0.0
H582 H 0.00646 0.58935 0.25993 0.0
H583 H 0.01273 0.5814 0.39303 0.0
H584 H 0.87275 0.42515 0.7821 0.0
H585 H 0.78707 0.34063 0.64905 0.0
H586 H 0.75614 0.3938 0.80483 0.0
H587 H 0.74013 0.35266 0.70188 0.0
Tb588 Tb 0.3531 0.36676 0.07765 0.0
C589 C 0.47379 0.32273 1.03511 0.0
C590 C 0.53956 0.36776 1.0383 0.0
C591 C 0.51993 0.30138 0.04533 0.0
C592 C 0.50127 0.35906 1.03874 0.0
C593 C 0.4823 0.2931 1.03921 0.0
C594 C 0.54887 0.33904 0.04344 0.0
C595 C 0.41664 0.2501 1.02028 0.0
N596 N 0.43854 0.31639 1.02268 0.0
C597 C 0.41158 0.28118 1.00969 0.0
C598 C 0.45284 0.25619 1.03274 0.0
Tb599 Tb 0.42769 0.36654 1.00824 0.0
N600 N 0.49069 0.38599 1.03575 0.0
C601 C 0.51848 0.42203 1.02879 0.0
C602 C 0.56695 0.40448 1.02442 0.0
C603 C 0.55558 0.43084 1.01571 0.0
H604 H 0.38783 0.28032 0.98747 0.0
H605 H 0.57592 0.45887 1.00095 0.0
H606 H 0.57816 0.34562 0.04341 0.0
H607 H 0.39382 0.22229 1.00905 0.0
H608 H 0.51148 0.44334 1.03092 0.0
H609 H 0.19805 0.23302 1.03778 0.0
H610 H 0.59609 0.41211 1.01511 0.0
H611 H 0.34351 0.44118 1.02534 0.0
H612 H 0.27162 0.26002 0.92248 0.0
H613 H 0.30028 0.46423 0.05712 0.0
H614 H 0.52693 0.27899 0.04781 0.0
H615 H 0.16463 0.22487 0.10688 0.0
H616 H 0.18476 0.30949 0.08876 0.0
H617 H 0.45848 0.23297 1.03137 0.0
H618 H 0.19728 0.35905 0.14677 0.0
N619 N 0.28757 0.32041 1.03965 0.0
C620 C 0.26004 0.26709 0.96744 0.0
C621 C 0.19311 0.24442 0.07743 0.0
C622 C 0.21964 0.29101 0.12244 0.0
C623 C 0.21305 0.23195 0.99807 0.0
C624 C 0.26552 0.32599 0.10213 0.0
H625 H 0.24165 0.42165 0.11966 0.0
N626 N 0.30917 0.38659 0.06866 0.0
C627 C 0.29411 0.43603 0.07123 0.0
C628 C 0.27648 0.36326 0.10306 0.0
C629 C 0.31726 0.42244 0.04969 0.0
C630 C 0.26153 0.41212 0.10862 0.0
C631 C 0.25288 0.37569 0.12567 0.0
O632 O 0.3566 0.4115 0.13138 0.0
O633 O 0.40302 0.36205 0.10092 0.0
O634 O 0.3938 0.3129 0.10515 0.0
O635 O 0.34398 0.31727 0.15044 0.0
O636 O 0.39138 0.38668 0.17443 0.0
O637 O 0.33079 0.35649 0.18084 0.0
O638 O 0.42699 0.34023 0.90976 0.0
O639 O 0.38645 0.38128 0.95873 0.0
O640 O 0.39066 0.42343 0.04662 0.0
O641 O 0.44603 0.42312 0.06435 0.0
O642 O 0.38767 0.38251 0.95257 0.0
O643 O 0.46698 0.40008 0.93106 0.0
C644 C 0.41616 0.3774 0.1613 0.0
C645 C 0.34483 0.41068 0.24945 0.0
C646 C 0.38023 0.42352 0.34975 0.0
C647 C 0.38016 0.43041 0.27993 0.0
C648 C 0.34783 0.41443 0.38933 0.0
C649 C 0.31357 0.40542 0.2862 0.0
C650 C 0.3175 0.41288 0.3581 0.0
C651 C 0.3647 0.30023 0.15914 0.0
C652 C 0.33847 0.39168 0.18469 0.0
C653 C 0.21742 0.34984 0.14736 0.0
C654 C 0.20233 0.31219 0.13107 0.0
C655 C 0.39232 0.39705 0.88703 0.0
C656 C 0.46738 0.3816 0.80816 0.0
C657 C 0.46883 0.4121 0.76713 0.0
C658 C 0.49213 0.4266 0.70465 0.0
C659 C 0.51336 0.40945 0.68751 0.0
C660 C 0.48412 0.36215 0.77886 0.0
C661 C 0.5076 0.37638 0.72022 0.0
C662 C 0.42325 0.4382 0.07775 0.0
C663 C 0.4549 0.37262 0.88515 0.0
H664 H 0.40511 0.43568 0.25318 0.0
H665 H 0.34049 0.39766 0.4353 0.0
H666 H 0.28663 0.3925 0.25969 0.0
H667 H 0.29447 0.40666 0.39277 0.0
H668 H 0.45077 0.42308 0.7822 0.0
H669 H 0.53532 0.42183 0.64959 0.0
H670 H 0.48203 0.33776 0.80525 0.0
H671 H 0.52331 0.36292 0.70257 0.0
Tb672 Tb 0.50903 -0.03851 0.07731 0.0
C673 C 0.55339 0.12631 1.03455 0.0
C674 C 0.50848 0.14721 1.03799 0.0
C675 C 0.57491 0.19388 0.04454 0.0
C676 C 0.51709 0.11755 1.03835 0.0
C677 C 0.58309 0.16447 1.0384 0.0
C678 C 0.53728 0.18523 0.04294 0.0
C679 C 0.62598 0.14168 1.01962 0.0
N680 N 0.55964 0.09733 1.02221 0.0
C681 C 0.59483 0.1055 1.00924 0.0
C682 C 0.61995 0.17185 1.03174 0.0
Tb683 Tb 0.50933 0.03638 1.00784 0.0
N684 N 0.49008 0.08004 1.03548 0.0
C685 C 0.45407 0.07187 1.02859 0.0
C686 C 0.47177 0.13796 1.02436 0.0
C687 C 0.44533 0.10023 1.01563 0.0
H688 H 0.59567 0.08248 0.98751 0.0
H689 H 0.4173 0.09261 1.00097 0.0
H690 H 0.53077 0.20799 0.04296 0.0
H691 H 0.65379 0.14664 1.00856 0.0
H692 H 0.43271 0.04357 1.03074 0.0
H693 H 0.64313 0.94078 1.03687 0.0
H694 H 0.46416 0.1595 1.0153 0.0
H695 H 0.4349 0.87717 1.02577 0.0
H696 H 0.61524 -0.01354 0.9211 0.0
H697 H 0.41232 0.8111 0.0581 0.0
H698 H 0.59735 0.22326 0.04685 0.0
H699 H 0.6516 0.91571 0.10599 0.0
H700 H 0.56725 0.8515 0.08872 0.0
H701 H 0.64319 0.20071 1.03014 0.0
H702 H 0.51794 0.81415 0.14719 0.0
N703 N 0.55567 0.94267 1.03971 0.0
C704 C 0.60857 -0.0318 0.96659 0.0
C705 C 0.63197 0.92465 0.07686 0.0
C706 C 0.58565 0.90474 0.12265 0.0
C707 C 0.64393 -0.04335 0.99694 0.0
C708 C 0.55047 0.9154 0.10256 0.0
H709 H 0.45523 0.79558 0.12091 0.0
N710 N 0.48968 0.89787 0.06883 0.0
C711 C 0.44047 0.83329 0.07223 0.0
C712 C 0.5132 0.88885 0.10355 0.0
C713 C 0.45384 0.8699 0.05021 0.0
C714 C 0.46457 0.82493 0.10974 0.0
C715 C 0.501 0.8529 0.12635 0.0
O716 O 0.46429 0.92025 0.13103 0.0
O717 O 0.51363 0.0161 0.10055 0.0
O718 O 0.56287 0.05587 0.10425 0.0
O719 O 0.55861 0.00162 0.14934 0.0
O720 O 0.48947 -0.02001 0.17444 0.0
O721 O 0.51924 0.94966 0.18075 0.0
O722 O 0.5357 0.06215 0.90958 0.0
O723 O 0.49455 -0.01961 0.95847 0.0
O724 O 0.45237 0.94238 0.04636 0.0
O725 O 0.45283 -0.00183 0.06412 0.0
O726 O 0.49334 -0.01961 0.95231 0.0
O727 O 0.47581 0.04217 0.93067 0.0
C728 C 0.49856 0.01401 0.16114 0.0
C729 C 0.46513 0.9093 0.24916 0.0
C730 C 0.4522 0.93167 0.34965 0.0
C731 C 0.4454 0.92484 0.27975 0.0
C732 C 0.46143 0.90845 0.38912 0.0
C733 C 0.47064 0.88345 0.28584 0.0
C734 C 0.46324 0.87986 0.35774 0.0
C735 C 0.57562 0.03932 0.15769 0.0
C736 C 0.4841 0.92207 0.18445 0.0
C737 C 0.52702 0.84349 0.14778 0.0
C738 C 0.5646 0.86623 0.1313 0.0
C739 C 0.47894 -0.02941 0.8867 0.0
C740 C 0.49443 0.0612 0.80796 0.0
C741 C 0.46395 0.03214 0.76694 0.0
C742 C 0.44951 0.04094 0.70442 0.0
C743 C 0.46678 0.07932 0.68708 0.0
C744 C 0.51401 0.09737 0.77856 0.0
C745 C 0.49988 0.10662 0.71976 0.0
C746 C 0.43773 -0.03971 0.07761 0.0
C747 C 0.50333 0.0577 0.88493 0.0
H748 H 0.44021 0.94461 0.25311 0.0
H749 H 0.47806 0.91786 0.43527 0.0
H750 H 0.48372 0.86961 0.2593 0.0
H751 H 0.46961 0.86314 0.39235 0.0
H752 H 0.4529 0.00311 0.78212 0.0
H753 H 0.45445 0.08889 0.64904 0.0
H754 H 0.53838 0.11967 0.805 0.0
H755 H 0.51341 0.13578 0.70201 0.0
Tb756 Tb 0.5001 0.94134 0.63648 0.0
C757 C 0.37515 0.77343 0.68251 0.0
C758 C 0.30966 0.75336 0.68082 0.0
C759 C 0.32847 0.70601 0.67339 0.0
C760 C 0.3481 0.78258 0.67892 0.0
C761 C 0.36626 0.73514 0.67888 0.0
C762 C 0.29983 0.71516 0.67599 0.0
C763 C 0.43179 0.75745 0.69792 0.0
N764 N 0.41037 0.80225 0.69524 0.0
C765 C 0.43714 0.7937 0.708 0.0
C766 C 0.3955 0.72742 0.68576 0.0
Tb767 Tb 0.42196 0.86353 0.71383 0.0
N768 N 0.35936 0.82023 0.68175 0.0
C769 C 0.33192 0.82891 0.68835 0.0
C770 C 0.28294 0.76332 0.69682 0.0
C771 C 0.29505 0.8013 0.70472 0.0
H772 H 0.46108 0.81647 0.72964 0.0
H773 H 0.27546 0.80978 0.72038 0.0
H774 H 0.27043 0.69269 0.67709 0.0
H775 H 0.45461 0.75252 0.70887 0.0
H776 H 0.33941 0.85719 0.68531 0.0
H777 H 0.65297 -0.04107 0.68014 0.0
H778 H 0.25396 0.74225 0.70855 0.0
H779 H 0.51016 0.02461 0.69269 0.0
H780 H 0.57929 0.91459 0.79538 0.0
H781 H 0.55431 0.09103 0.6621 0.0
H782 H 0.32114 0.67652 0.67133 0.0
H783 H 0.68631 -0.01753 0.61027 0.0
H784 H 0.66877 0.04998 0.62893 0.0
H785 H 0.38966 0.69848 0.68746 0.0
H786 H 0.65636 0.08759 0.57277 0.0
N787 N 0.56481 -0.04076 0.67704 0.0
C788 C 0.59121 0.93271 0.75003 0.0
C789 C 0.65839 -0.0248 0.64016 0.0
C790 C 0.63286 -0.00374 0.59448 0.0
C791 C 0.6378 0.9433 0.71998 0.0
C792 C 0.58719 -0.01366 0.61433 0.0
H793 H 0.61222 0.10641 0.59764 0.0
N794 N 0.54416 0.00418 0.64774 0.0
C795 C 0.56006 0.06878 0.64717 0.0
C796 C 0.57662 0.01305 0.61316 0.0
C797 C 0.53641 0.03198 0.66782 0.0
C798 C 0.59237 0.07712 0.60903 0.0
C799 C 0.60063 0.04904 0.59157 0.0
O800 O 0.49542 -0.01755 0.58524 0.0
O801 O 0.44865 0.88715 0.62076 0.0
O802 O 0.45747 0.84561 0.61626 0.0
O803 O 0.50731 0.89956 0.56661 0.0
O804 O 0.46142 0.92178 0.54186 0.0
O805 O 0.5215 -0.04589 0.53353 0.0
O806 O 0.42525 0.83818 0.81077 0.0
O807 O 0.46767 0.92345 0.74774 0.0
O808 O 0.46101 -0.04258 0.67441 0.0
O809 O 0.40501 0.9028 0.65717 0.0
O810 O 0.43279 0.89873 0.81812 0.0
O811 O 0.38034 0.85189 0.78887 0.0
C812 C 0.43598 0.88856 0.55894 0.0
C813 C 0.50734 -0.00579 0.46734 0.0
C814 C 0.47203 -0.02912 0.36734 0.0
C815 C 0.47206 -0.022 0.43714 0.0
C816 C 0.50444 -0.00605 0.32744 0.0
C817 C 0.53866 0.01971 0.4303 0.0
C818 C 0.53484 0.02281 0.35835 0.0
C819 C 0.48613 0.86178 0.56069 0.0
C820 C 0.51388 -0.0184 0.53152 0.0
C821 C 0.6361 0.05823 0.57127 0.0
C822 C 0.65069 0.03504 0.58731 0.0
C823 C 0.46305 0.93221 0.81836 0.0
C824 C 0.38253 0.83608 0.91229 0.0
C825 C 0.38086 0.86561 0.95177 0.0
C826 C 0.35752 0.85755 1.01417 0.0
C827 C 0.33609 0.81929 1.03232 0.0
C828 C 0.36519 0.80009 0.9427 0.0
C829 C 0.34159 0.79155 1.00095 0.0
C830 C 0.42814 0.94045 0.64274 0.0
C831 C 0.3945 0.83829 0.83473 0.0
H832 H 0.44736 -0.04165 0.46484 0.0
H833 H 0.51142 -0.01534 0.28081 0.0
H834 H 0.56569 0.03328 0.45658 0.0
H835 H 0.55798 0.03936 0.32387 0.0
H836 H 0.39919 0.89452 0.93631 0.0
H837 H 0.31422 0.8101 0.07037 0.0
H838 H 0.36689 0.7773 0.91759 0.0
H839 H 0.32563 0.76254 1.01942 0.0
Tb840 Tb -0.06553 0.53413 0.63614 0.0
C841 C 0.10233 0.57687 0.68246 0.0
C842 C 0.12221 0.53131 0.68095 0.0
C843 C 0.16969 0.59744 0.6734 0.0
C844 C 0.09307 0.54064 0.67896 0.0
C845 C 0.14065 0.60621 0.67881 0.0
C846 C 0.16043 0.5596 0.67611 0.0
C847 C 0.11852 0.64958 0.69777 0.0
N848 N 0.07358 0.58336 0.69513 0.0
C849 C 0.08225 0.61872 0.7079 0.0
C850 C 0.14848 0.64322 0.68559 0.0
Tb851 Tb 0.01222 0.53378 0.71371 0.0
N852 N 0.05541 0.51433 0.68178 0.0
C853 C 0.04662 0.47818 0.68839 0.0
C854 C 0.11212 0.49459 0.69703 0.0
C855 C 0.07411 0.4688 0.70497 0.0
H856 H 0.05957 0.61994 0.72971 0.0
H857 H 0.06551 0.44068 0.72058 0.0
H858 H 0.18283 0.55259 0.67727 0.0
H859 H 0.12351 0.67736 0.70866 0.0
H860 H 0.01836 0.45748 0.68524 0.0
H861 H 0.91636 0.66915 0.67882 0.0
H862 H 0.13311 0.48658 0.70879 0.0
H863 H 0.85151 0.46098 0.6929 0.0
H864 H -0.03858 0.64055 0.79356 0.0
H865 H 0.78495 0.4383 0.66288 0.0
H866 H 0.19921 0.61956 0.67132 0.0
H867 H 0.89259 0.67889 0.60943 0.0
H868 H 0.82528 0.59328 0.62806 0.0
H869 H 0.17743 0.66628 0.68724 0.0
H870 H 0.78751 0.54334 0.57516 0.0
N871 N 0.91643 0.58089 0.67604 0.0
C872 C -0.05697 0.63405 0.74851 0.0
C873 C 0.89996 0.65821 0.639 0.0
C874 C 0.87883 0.61147 0.59357 0.0
C875 C -0.06785 0.66982 0.71845 0.0
C876 C 0.88901 0.57589 0.61355 0.0
H877 H 0.76906 0.48036 0.5986 0.0
N878 N 0.87155 0.51521 0.64736 0.0
C879 C 0.80705 0.46632 0.64773 0.0
C880 C 0.8624 0.53863 0.61278 0.0
C881 C 0.84394 0.47968 0.6679 0.0
C882 C 0.79842 0.4901 0.6097 0.0
C883 C 0.8263 0.52648 0.59164 0.0
O884 O 0.8934 0.4883 0.58488 0.0
O885 O -0.01137 0.53685 0.62052 0.0
O886 O 0.03026 0.58722 0.61612 0.0
O887 O -0.02362 0.58298 0.56596 0.0
O888 O -0.04606 0.51487 0.54159 0.0
O889 O 0.92152 0.54289 0.53343 0.0
O890 O 0.03737 0.56252 0.81072 0.0
O891 O -0.04765 0.51966 0.74775 0.0
O892 O 0.91839 0.47893 0.6741 0.0
O893 O -0.02701 0.47755 0.6571 0.0
O894 O -0.02317 0.50904 0.81769 0.0
O895 O 0.02409 0.50402 0.78885 0.0
C896 C -0.01282 0.52271 0.55874 0.0
C897 C 0.88122 0.4887 0.46725 0.0
C898 C 0.90429 0.4765 0.36721 0.0
C899 C 0.8971 0.46935 0.43696 0.0
C900 C 0.88131 0.48598 0.32731 0.0
C901 C 0.85604 0.49503 0.43028 0.0
C902 C 0.85276 0.48799 0.35843 0.0
C903 C 0.01417 0.59967 0.56031 0.0
C904 C 0.8941 0.50771 0.5314 0.0
C905 C 0.81684 0.55262 0.57112 0.0
C906 C 0.84002 0.59057 0.58554 0.0
C907 C -0.05654 0.50612 0.81836 0.0
C908 C 0.03976 0.52203 0.91221 0.0
C909 C 0.01028 0.49074 0.95156 0.0
C910 C 0.01838 0.47547 1.01395 0.0
C911 C 0.05664 0.49224 1.032 0.0
C912 C 0.07578 0.54061 0.94253 0.0
C913 C 0.08438 0.52548 1.00061 0.0
C914 C -0.06463 0.46301 0.64259 0.0
C915 C 0.03751 0.53178 0.8347 0.0
H916 H 0.91663 0.46409 0.46467 0.0
H917 H 0.89059 0.50211 0.28051 0.0
H918 H 0.84276 0.50888 0.45632 0.0
H919 H 0.83623 0.49471 0.3243 0.0
H920 H -0.01865 0.48013 0.93613 0.0
H921 H 0.06584 0.47953 0.06999 0.0
H922 H 0.09854 0.56513 0.91749 0.0
H923 H 0.1134 0.53849 1.019 0.0
Tb924 Tb 0.34174 0.37591 0.63622 0.0
C925 C 0.29926 0.50121 0.68235 0.0
C926 C 0.34486 0.56666 0.68084 0.0
C927 C 0.27876 0.54805 0.67318 0.0
C928 C 0.3355 0.52818 0.67887 0.0
C929 C 0.26995 0.51021 0.67867 0.0
C930 C 0.3166 0.57661 0.67591 0.0
C931 C 0.22655 0.44474 0.69794 0.0
N932 N 0.29275 0.46596 0.69514 0.0
C933 C 0.25739 0.43931 0.70809 0.0
C934 C 0.23293 0.48105 0.68555 0.0
Tb935 Tb 0.34229 0.45414 0.71377 0.0
N936 N 0.36178 0.51679 0.68179 0.0
C937 C 0.39794 0.54416 0.68846 0.0
C938 C 0.38158 0.59328 0.69701 0.0
C939 C 0.40733 0.58105 0.70498 0.0
H940 H 0.25618 0.41546 0.73012 0.0
H941 H 0.43544 0.60057 0.72064 0.0
H942 H 0.32363 0.60604 0.67705 0.0
H943 H 0.19877 0.42198 0.70896 0.0
H944 H 0.41864 0.53659 0.68538 0.0
H945 H 0.2069 0.2226 0.67838 0.0
H946 H 0.38959 0.62229 0.70879 0.0
H947 H 0.41503 0.36639 0.69286 0.0
H948 H 0.23529 0.29618 0.79328 0.0
H949 H 0.43779 0.32249 0.66336 0.0
H950 H 0.25666 0.55546 0.67107 0.0
H951 H 0.19723 0.18921 0.6088 0.0
H952 H 0.28281 0.20748 0.62779 0.0
H953 H 0.2099 0.48697 0.68716 0.0
H954 H 0.33285 0.21983 0.57529 0.0
N955 N 0.29507 0.31105 0.67601 0.0
C956 C 0.24186 0.28434 0.74827 0.0
C957 C 0.21789 0.2172 0.63861 0.0
C958 C 0.26466 0.2429 0.59338 0.0
C959 C 0.20618 0.23768 0.71803 0.0
C960 C 0.30017 0.2887 0.61353 0.0
H961 H 0.39575 0.26438 0.59936 0.0
N962 N 0.36082 0.33203 0.64746 0.0
C963 C 0.40973 0.31647 0.64831 0.0
C964 C 0.33743 0.2994 0.61296 0.0
C965 C 0.39636 0.34005 0.66807 0.0
C966 C 0.38596 0.28396 0.61047 0.0
C967 C 0.34962 0.27545 0.59204 0.0
O968 O 0.38733 0.38053 0.58452 0.0
O969 O 0.33914 0.42743 0.6206 0.0
O970 O 0.28881 0.4188 0.61614 0.0
O971 O 0.29291 0.36905 0.56611 0.0
O972 O 0.36113 0.41472 0.54179 0.0
O973 O 0.33261 0.35415 0.53348 0.0
O974 O 0.31362 0.45062 0.81079 0.0
O975 O 0.35624 0.40828 0.74783 0.0
O976 O 0.39698 0.41501 0.67415 0.0
O977 O 0.39849 0.47107 0.6572 0.0
O978 O 0.36701 0.44345 0.81774 0.0
O979 O 0.37214 0.49577 0.78892 0.0
C980 C 0.3533 0.44012 0.55885 0.0
C981 C 0.38664 0.36792 0.46686 0.0
C982 C 0.39952 0.40354 0.36719 0.0
C983 C 0.4064 0.40325 0.43701 0.0
C984 C 0.39007 0.37114 0.32708 0.0
C985 C 0.38045 0.33648 0.42976 0.0
C986 C 0.38787 0.34045 0.35803 0.0
C987 C 0.27631 0.39021 0.56038 0.0
C988 C 0.36774 0.3618 0.53115 0.0
C989 C 0.32355 0.23986 0.57126 0.0
C990 C 0.28557 0.22502 0.58537 0.0
C991 C 0.36984 0.41294 0.81841 0.0
C992 C 0.35419 0.49347 0.91232 0.0
C993 C 0.38546 0.49525 0.95173 0.0
C994 C 0.40076 0.51863 1.01413 0.0
C995 C 0.38401 0.54015 1.03215 0.0
C996 C 0.33563 0.51092 0.94262 0.0
C997 C 0.35078 0.53465 1.00073 0.0
C998 C 0.41295 0.44792 0.64268 0.0
C999 C 0.3444 0.48146 0.83479 0.0
H1000 H 0.41174 0.42802 0.46486 0.0
H1001 H 0.37391 0.36433 0.28035 0.0
H1002 H 0.36659 0.30929 0.45555 0.0
H1003 H 0.38127 0.31731 0.32366 0.0
H1004 H 0.39601 0.47689 0.93633 0.0
H1005 H 0.39674 0.56206 0.07015 0.0
H1006 H 0.31111 0.50917 0.91754 0.0
H1007 H 0.33779 0.55067 1.01911 0.0
Tb1008 Tb 0.6787 0.78618 0.54498 0.0
C1009 C 0.53028 0.63501 0.45034 0.0
C1010 C 0.54555 0.5781 0.43048 0.0
C1011 C 0.48445 0.57591 0.40633 0.0
C1012 C 0.55653 0.62399 0.4511 0.0
C1013 C 0.49419 0.61141 0.42804 0.0
C1014 C 0.50697 0.56079 0.42257 0.0
C1015 C 0.47535 0.65286 0.48238 0.0
N1016 N 0.53983 0.66781 0.4846 0.0
C1017 C 0.51219 0.67608 0.50344 0.0
C1018 C 0.46647 0.62012 0.44534 0.0
Tb1019 Tb 0.60371 0.71152 0.47564 0.0
N1020 N 0.58412 0.64594 0.51374 0.0
C1021 C 0.60981 0.61827 0.58579 0.0
C1022 C 0.5656 0.55153 0.47528 0.0
C1023 C 0.59794 0.57132 0.55481 0.0
H1024 H 0.51983 0.70245 0.52747 0.0
H1025 H 0.5819 0.55639 0.51498 0.0
H1026 H 0.49189 0.54272 0.46412 0.0
H1027 H 0.45342 0.6592 0.49631 0.0
H1028 H 0.62845 0.62976 0.63083 0.0
H1029 H 0.7365 0.93501 0.55112 0.0
H1030 H 0.55682 0.52319 0.44543 0.0
H1031 H 0.72415 0.7455 0.56522 0.0
H1032 H 0.68669 0.87054 0.52174 0.0
H1033 H 0.78797 0.75081 0.5435 0.0
H1034 H 0.45509 0.55581 0.40685 0.0
H1035 H 0.80305 -0.04565 0.53662 0.0
H1036 H 0.85101 0.93558 0.50958 0.0
H1037 H 0.43703 0.60033 0.43415 0.0
H1038 H 0.86565 0.88384 0.50602 0.0
N1039 N 0.72281 0.84913 0.51756 0.0
C1040 C 0.71497 0.87725 0.52367 0.0
C1041 C 0.78128 0.92527 0.5276 0.0
C1042 C 0.79016 0.8975 0.51469 0.0
C1043 C 0.74366 0.91438 0.53596 0.0
C1044 C 0.76025 0.85933 0.5148 0.0
H1045 H 0.84246 0.8153 0.52253 0.0
N1046 N 0.7395 0.79647 0.53087 0.0
C1047 C 0.78331 0.77386 0.53275 0.0
C1048 C 0.76868 0.83159 0.5186 0.0
C1049 C 0.74732 0.7692 0.54348 0.0
C1050 C 0.81372 0.80995 0.52088 0.0
C1051 C 0.80671 0.83969 0.51456 0.0
O1052 O 0.70423 0.78556 0.64356 0.0
O1053 O 0.62273 0.74484 0.59456 0.0
O1054 O 0.58475 0.7492 0.50674 0.0
O1055 O 0.64048 0.8046 0.48912 0.0
O1056 O 0.62274 0.74606 0.60071 0.0
O1057 O 0.6845 0.82564 0.62185 0.0
O1058 O 0.56265 0.71509 0.42148 0.0
O1059 O 0.65831 0.76142 0.45242 0.0
O1060 O 0.69832 0.7523 0.44783 0.0
O1061 O 0.64409 0.70235 0.40289 0.0
O1062 O 0.62198 0.74992 0.3791 0.0
O1063 O 0.59179 0.68899 0.37256 0.0
C1064 C 0.61284 0.75063 0.66631 0.0
C1065 C 0.70323 0.82603 0.74502 0.0
C1066 C 0.68293 0.85051 0.8489 0.0
C1067 C 0.67416 0.82735 0.78618 0.0
C1068 C 0.72132 0.87172 0.86615 0.0
C1069 C 0.73942 0.84274 0.77437 0.0
C1070 C 0.74866 0.86611 0.83321 0.0
C1071 C 0.60258 0.78182 0.47571 0.0
C1072 C 0.69972 0.81348 0.66802 0.0
C1073 C 0.83636 0.87717 0.50841 0.0
C1074 C 0.82806 0.90638 0.50984 0.0
C1075 C 0.65612 0.7746 0.39212 0.0
C1076 C 0.5519 0.70312 0.30343 0.0
C1077 C 0.56714 0.73852 0.27335 0.0
C1078 C 0.57424 0.73882 0.20353 0.0
C1079 C 0.55105 0.70643 0.16369 0.0
C1080 C 0.52601 0.67186 0.26651 0.0
C1081 C 0.52243 0.67591 0.19469 0.0
C1082 C 0.68184 0.72308 0.39406 0.0
C1083 C 0.56438 0.69681 0.36838 0.0
H1084 H 0.64513 0.80926 0.77107 0.0
H1085 H 0.73088 0.89355 0.90435 0.0
H1086 H 0.76172 0.84069 0.74797 0.0
H1087 H 0.77782 0.8818 0.85094 0.0
H1088 H 0.58661 0.7635 0.30035 0.0
H1089 H 0.56061 0.69917 0.11784 0.0
H1090 H 0.51207 0.64489 0.29286 0.0
H1091 H 0.50569 0.65294 0.15979 0.0
Tb1092 Tb 0.09003 0.86793 0.5448 0.0
C1093 C 0.24109 0.87065 0.45018 0.0
C1094 C 0.29801 0.94283 0.43025 0.0
C1095 C 0.30019 0.88388 0.40631 0.0
C1096 C 0.25213 0.90795 0.45088 0.0
C1097 C 0.26468 0.85814 0.42803 0.0
C1098 C 0.31531 0.92156 0.42243 0.0
C1099 C 0.22321 0.79786 0.48242 0.0
N1100 N 0.20829 0.84741 0.4844 0.0
C1101 C 0.2 0.8115 0.50332 0.0
C1102 C 0.25598 0.82173 0.44548 0.0
Tb1103 Tb 0.16464 0.86766 0.47544 0.0
N1104 N 0.23022 0.91362 0.51352 0.0
C1105 C 0.25798 -0.033 0.58556 0.0
C1106 C 0.32464 -0.01053 0.47503 0.0
C1107 C 0.30493 0.00206 0.55457 0.0
H1108 H 0.17364 0.79278 0.52731 0.0
H1109 H 0.31982 0.00093 0.51473 0.0
H1110 H 0.33341 0.9246 0.46398 0.0
H1111 H 0.21685 0.76958 0.49636 0.0
H1112 H 0.24653 -0.02583 0.63062 0.0
H1113 H -0.05843 0.77614 0.55171 0.0
H1114 H 0.35294 0.00905 0.44508 0.0
H1115 H 0.13026 -0.04587 0.56514 0.0
H1116 H 0.00599 0.79129 0.5218 0.0
H1117 H 0.12463 0.01239 0.54315 0.0
H1118 H 0.32028 0.87463 0.40691 0.0
H1119 H 0.92175 0.8231 0.53749 0.0
H1120 H -0.05997 0.88971 0.50973 0.0
H1121 H 0.27576 0.81205 0.43438 0.0
H1122 H -0.00851 -0.04376 0.50546 0.0
N1123 N 0.02705 0.84874 0.51733 0.0
C1124 C -0.00089 0.81272 0.52388 0.0
C1125 C -0.04915 0.83059 0.52824 0.0
C1126 C -0.02161 0.86729 0.51475 0.0
C1127 C -0.03799 0.80406 0.53672 0.0
C1128 C 0.01663 0.8758 0.51449 0.0
H1129 H 0.06002 0.002 0.52149 0.0
N1130 N 0.07942 0.91824 0.53044 0.0
C1131 C 0.10167 -0.01539 0.5323 0.0
C1132 C 0.04423 0.91207 0.51812 0.0
C1133 C 0.10654 -0.04659 0.54311 0.0
C1134 C 0.06551 -0.02131 0.52014 0.0
C1135 C 0.03591 0.94184 0.51396 0.0
O1136 O 0.09056 0.8941 0.64332 0.0
O1137 O 0.13138 0.85333 0.59438 0.0
O1138 O 0.12707 0.81102 0.5066 0.0
O1139 O 0.07168 0.8113 0.48891 0.0
O1140 O 0.13016 0.85211 0.60052 0.0
O1141 O 0.05065 0.83423 0.62176 0.0
O1142 O 0.16116 0.82311 0.42118 0.0
O1143 O 0.11472 0.87234 0.45218 0.0
O1144 O 0.12389 0.92148 0.44774 0.0
O1145 O 0.1738 0.9172 0.40273 0.0
O1146 O 0.12619 0.84749 0.37891 0.0
O1147 O 0.18713 0.87837 0.37231 0.0
C1148 C 0.12556 0.83756 0.66605 0.0
C1149 C 0.05007 0.85261 0.74472 0.0
C1150 C 0.02537 0.80766 0.84835 0.0
C1151 C 0.04868 0.82217 0.78586 0.0
C1152 C 0.00405 0.82474 0.86534 0.0
C1153 C 0.03324 0.87201 0.77389 0.0
C1154 C 0.00973 0.85775 0.83251 0.0
C1155 C 0.09446 0.7962 0.47554 0.0
C1156 C 0.06268 0.86165 0.6678 0.0
C1157 C -0.00166 0.93375 0.50794 0.0
C1158 C -0.03072 0.89614 0.50975 0.0
C1159 C 0.10151 0.85695 0.39186 0.0
C1160 C 0.17303 0.82433 0.30314 0.0
C1161 C 0.13762 0.804 0.27309 0.0
C1162 C 0.13723 0.81067 0.20322 0.0
C1163 C 0.16959 0.81983 0.16339 0.0
C1164 C 0.2043 0.82981 0.26625 0.0
C1165 C 0.20023 0.82209 0.19447 0.0
C1166 C 0.15307 0.93422 0.39393 0.0
C1167 C 0.17934 0.84315 0.36806 0.0
H1168 H 0.06681 0.81127 0.77088 0.0
H1169 H -0.01794 0.81232 0.9032 0.0
H1170 H 0.03527 0.89635 0.74743 0.0
H1171 H -0.00606 0.87115 0.85005 0.0
H1172 H 0.11266 0.79853 0.30005 0.0
H1173 H 0.17678 0.83651 0.1174 0.0
H1174 H 0.23127 0.84292 0.29261 0.0
H1175 H 0.22321 0.82838 0.15957 0.0
Tb1176 Tb 0.00839 0.19769 0.54454 0.0
C1177 C 0.00552 0.3461 0.44999 0.0
C1178 C -0.06668 0.33083 0.43022 0.0
C1179 C -0.00776 0.39199 0.40644 0.0
C1180 C -0.03178 0.31984 0.45074 0.0
C1181 C 0.01801 0.38222 0.42787 0.0
C1182 C -0.04541 0.36943 0.42257 0.0
C1183 C 0.07834 0.40106 0.48207 0.0
N1184 N 0.02879 0.33655 0.48412 0.0
C1185 C 0.06471 0.3642 0.50303 0.0
C1186 C 0.05446 0.40993 0.44513 0.0
Tb1187 Tb 0.00859 0.27263 0.47518 0.0
N1188 N -0.03743 0.29218 0.51324 0.0
C1189 C 0.90918 0.2664 0.5852 0.0
C1190 C 0.88666 0.31068 0.47495 0.0
C1191 C 0.8741 0.27827 0.55431 0.0
H1192 H 0.08344 0.35657 0.52698 0.0
H1193 H 0.87522 0.29434 0.51457 0.0
H1194 H -0.04846 0.38451 0.46405 0.0
H1195 H 0.10662 0.42299 0.49602 0.0
H1196 H 0.90201 0.24771 0.63015 0.0
H1197 H 0.10043 0.14146 0.55172 0.0
H1198 H 0.86701 0.31932 0.445 0.0
H1199 H 0.9223 0.15136 0.56569 0.0
H1200 H 0.08508 0.19054 0.52165 0.0
H1201 H 0.86405 0.08738 0.5436 0.0
H1202 H 0.00149 0.42134 0.40709 0.0
H1203 H 0.0536 0.07459 0.53741 0.0
H1204 H -0.01291 0.0261 0.50906 0.0
H1205 H 0.06411 0.43939 0.43411 0.0
H1206 H 0.92051 0.0108 0.50475 0.0
N1207 N 0.0277 0.15403 0.51692 0.0
C1208 C 0.06372 0.16222 0.52375 0.0
C1209 C 0.04603 0.09613 0.52807 0.0
C1210 C 0.00934 0.08687 0.51421 0.0
C1211 C 0.07247 0.13386 0.53676 0.0
C1212 C 0.00072 0.11652 0.51386 0.0
H1213 H 0.87462 0.03334 0.52136 0.0
N1214 N -0.04182 0.13669 0.52993 0.0
C1215 C 0.89185 0.09235 0.53237 0.0
C1216 C -0.03557 0.10773 0.51745 0.0
C1217 C 0.92301 0.12848 0.54305 0.0
C1218 C 0.89787 0.0622 0.51992 0.0
C1219 C -0.06526 0.06958 0.51335 0.0
O1220 O -0.01781 0.17193 0.64292 0.0
O1221 O 0.02295 0.25365 0.59412 0.0
O1222 O 0.06522 0.29169 0.50636 0.0
O1223 O 0.06496 0.23603 0.48866 0.0
O1224 O 0.02418 0.25365 0.60027 0.0
O1225 O 0.04208 0.19207 0.62159 0.0
O1226 O 0.05313 0.31374 0.42101 0.0
O1227 O 0.00404 0.21806 0.45196 0.0
O1228 O -0.04518 0.17791 0.44754 0.0
O1229 O -0.04089 0.23212 0.40245 0.0
O1230 O 0.02857 0.25428 0.37848 0.0
O1231 O -0.00209 0.28448 0.3721 0.0
C1232 C 0.03878 0.26365 0.66578 0.0
C1233 C 0.02363 0.173 0.74444 0.0
C1234 C 0.06853 0.19331 0.84814 0.0
C1235 C 0.05405 0.20208 0.78559 0.0
C1236 C 0.05144 0.15491 0.86522 0.0
C1237 C 0.00423 0.13677 0.77365 0.0
C1238 C 0.01845 0.12755 0.83235 0.0
C1239 C 0.08002 0.2739 0.47527 0.0
C1240 C 0.01463 0.17653 0.66748 0.0
C1241 C -0.05706 0.04018 0.50722 0.0
C1242 C -0.01943 0.04885 0.50906 0.0
C1243 C 0.01931 0.2202 0.39156 0.0
C1244 C 0.05193 0.32444 0.30297 0.0
C1245 C 0.07206 0.30918 0.27288 0.0
C1246 C 0.0653 0.30211 0.20304 0.0
C1247 C 0.05615 0.32531 0.1632 0.0
C1248 C 0.04659 0.35033 0.26605 0.0
C1249 C 0.05428 0.35393 0.19423 0.0
C1250 C -0.05786 0.19437 0.39364 0.0
C1251 C 0.03311 0.31195 0.3679 0.0
H1252 H 0.06494 0.23112 0.77058 0.0
H1253 H 0.06382 0.14536 0.90319 0.0
H1254 H -0.0201 0.11445 0.74718 0.0
H1255 H 0.00504 0.09836 0.84994 0.0
H1256 H 0.07751 0.28967 0.29982 0.0
H1257 H 0.03932 0.31574 0.11733 0.0
H1258 H 0.03354 0.36425 0.2924 0.0
H1259 H 0.04811 0.3707 0.15929 0.0
Tb1260 Tb 0.09585 0.37082 0.83925 0.0
C1261 C -0.05855 0.22063 0.93961 0.0
C1262 C 0.885 0.23692 0.95933 0.0
C1263 C 0.88193 0.17489 0.98102 0.0
C1264 C -0.06925 0.2472 0.93908 0.0
C1265 C 0.91754 0.18448 0.96041 0.0
C1266 C 0.86711 0.19803 0.96665 0.0
C1267 C -0.04133 0.16551 0.90437 0.0
N1268 N -0.02585 0.22998 0.90533 0.0
C1269 C -0.01774 0.20251 0.88484 0.0
C1270 C -0.07392 0.15668 0.94196 0.0
Tb1271 Tb 0.01778 0.29303 0.91671 0.0
N1272 N -0.04697 0.27457 0.87644 0.0
C1273 C -0.07376 0.30099 0.80415 0.0
C1274 C 0.8593 0.25801 0.91413 0.0
C1275 C 0.87966 0.29008 0.83454 0.0
H1276 H 0.00865 0.21023 0.86032 0.0
H1277 H 0.86466 0.27435 0.87429 0.0
H1278 H 0.84905 0.18293 0.92508 0.0
H1279 H -0.03523 0.14351 0.88943 0.0
H1280 H -0.06199 0.31933 0.75901 0.0
H1281 H 0.24252 0.42507 0.83318 0.0
H1282 H 0.83146 0.25087 0.9442 0.0
H1283 H 0.05651 0.41768 0.8238 0.0
H1284 H 0.17859 0.37747 0.86849 0.0
H1285 H 0.06264 0.48149 0.84533 0.0
H1286 H 0.86192 0.14553 0.97726 0.0
H1287 H 0.26379 0.49253 0.8448 0.0
H1288 H 0.24709 0.54196 0.87576 0.0
H1289 H 0.90651 0.12728 0.95301 0.0
H1290 H 0.19622 0.55792 0.88146 0.0
N1291 N 0.15845 0.41431 0.87129 0.0
C1292 C 0.18599 0.40573 0.86526 0.0
C1293 C 0.23483 0.47139 0.85657 0.0
C1294 C 0.208 0.48125 0.87216 0.0
C1295 C 0.22287 0.43343 0.849 0.0
C1296 C 0.1696 0.45194 0.87389 0.0
H1297 H 0.12761 0.53571 0.86599 0.0
N1298 N 0.10729 0.43208 0.85771 0.0
C1299 C 0.0856 0.47669 0.85573 0.0
C1300 C 0.14248 0.46099 0.87031 0.0
C1301 C 0.08041 0.44052 0.84532 0.0
C1302 C 0.12188 0.50681 0.86756 0.0
C1303 C 0.15123 0.49923 0.87402 0.0
O1304 O 0.09261 0.39614 0.74225 0.0
O1305 O 0.05008 0.31094 0.80507 0.0
O1306 O 0.05688 0.27697 0.87871 0.0
O1307 O 0.11286 0.33158 0.89581 0.0
O1308 O 0.08501 0.33552 0.73502 0.0
O1309 O 0.1376 0.38254 0.76447 0.0
O1310 O 0.0224 0.25214 0.96866 0.0
O1311 O 0.06918 0.3472 0.93239 0.0
O1312 O 0.06042 0.38879 0.93696 0.0
O1313 O 0.01071 0.3349 0.98687 0.0
O1314 O 0.05667 0.31245 1.01107 0.0
O1315 O -0.00415 0.28041 1.01935 0.0
C1316 C 0.05464 0.30207 0.73438 0.0
C1317 C 0.13553 0.39837 0.641 0.0
C1318 C 0.16055 0.37693 0.53904 0.0
C1319 C 0.13721 0.36886 0.60147 0.0
C1320 C 0.18213 0.41521 0.52114 0.0
C1321 C 0.15305 0.43442 0.61083 0.0
C1322 C 0.17675 0.44299 0.55273 0.0
C1323 C 0.08976 0.29393 0.91024 0.0
C1324 C 0.12341 0.39606 0.71847 0.0
C1325 C 0.18899 0.52845 0.87938 0.0
C1326 C 0.21772 0.51942 0.87681 0.0
C1327 C 0.08192 0.34578 0.99413 0.0
C1328 C 0.00963 0.24022 0.0862 0.0
C1329 C 0.04496 0.25555 0.116 0.0
C1330 C 0.04534 0.26278 0.18582 0.0
C1331 C 0.01293 0.23988 0.22595 0.0
C1332 C -0.02185 0.21507 0.12325 0.0
C1333 C -0.01789 0.2116 0.19495 0.0
C1334 C 0.03179 0.37269 0.99258 0.0
C1335 C 0.0036 0.25299 1.02187 0.0
H1336 H 0.11877 0.33994 0.61677 0.0
H1337 H 0.20402 0.42441 0.48314 0.0
H1338 H 0.15136 0.4572 0.63601 0.0
H1339 H 0.19283 0.47202 0.53442 0.0
H1340 H 0.06974 0.27491 0.0881 0.0
H1341 H 0.00616 0.24926 0.27265 0.0
H1342 H -0.04902 0.20174 0.09741 0.0
H1343 H -0.04109 0.19519 0.22921 0.0
Tb1344 Tb 0.50565 0.70071 0.8395 0.0
C1345 C 0.6557 0.6962 0.9403 0.0
C1346 C 0.63933 0.62339 0.95996 0.0
C1347 C 0.70139 0.68234 0.98173 0.0
C1348 C 0.62913 0.65892 0.93962 0.0
C1349 C 0.69184 0.7084 0.96118 0.0
C1350 C 0.67823 0.64436 0.96741 0.0
C1351 C 0.71089 0.76859 0.90541 0.0
N1352 N 0.6464 0.7196 0.90604 0.0
C1353 C 0.67392 0.75522 0.88571 0.0
C1354 C 0.71968 0.74478 0.94292 0.0
Tb1355 Tb 0.58335 0.70026 0.91713 0.0
N1356 N 0.60174 0.65383 0.87699 0.0
C1357 C 0.57518 0.60056 0.8048 0.0
C1358 C 0.61814 0.57656 0.91486 0.0
C1359 C 0.58603 0.56484 0.83528 0.0
H1360 H 0.66624 0.77392 0.86117 0.0
H1361 H 0.60176 0.56555 0.87503 0.0
H1362 H 0.69335 0.64133 0.92597 0.0
H1363 H 0.73291 0.7967 0.89056 0.0
H1364 H 0.55678 0.59396 0.75971 0.0
H1365 H 0.45177 0.7934 0.83301 0.0
H1366 H 0.62522 0.55583 0.94501 0.0
H1367 H 0.45855 0.61453 0.82365 0.0
H1368 H 0.49919 0.7769 0.8685 0.0
H1369 H 0.39471 0.5569 0.84528 0.0
H1370 H 0.73073 0.69169 0.97788 0.0
H1371 H 0.38427 0.74729 0.84469 0.0
H1372 H 0.33474 0.68121 0.87604 0.0
H1373 H 0.74907 0.75458 0.95402 0.0
H1374 H 0.31861 0.61432 0.88193 0.0
N1375 N 0.46228 0.71994 0.8715 0.0
C1376 C 0.47094 0.75608 0.8652 0.0
C1377 C 0.40535 0.73941 0.85648 0.0
C1378 C 0.3954 0.70271 0.87236 0.0
C1379 C 0.44333 0.76533 0.84873 0.0
C1380 C 0.42464 0.69352 0.87421 0.0
H1381 H 0.34064 0.56779 0.86629 0.0
N1382 N 0.44434 0.65097 0.85797 0.0
C1383 C 0.39959 0.58468 0.85581 0.0
C1384 C 0.41551 0.65733 0.87067 0.0
C1385 C 0.43579 0.61563 0.8454 0.0
C1386 C 0.36955 0.59091 0.86784 0.0
C1387 C 0.37723 0.62789 0.87441 0.0
O1388 O 0.48021 0.67217 0.74253 0.0
O1389 O 0.56548 0.71467 0.80548 0.0
O1390 O 0.59948 0.7555 0.87929 0.0
O1391 O 0.5449 0.75694 0.89611 0.0
O1392 O 0.54101 0.72516 0.73536 0.0
O1393 O 0.49418 0.73089 0.76459 0.0
O1394 O 0.62422 0.74576 0.96921 0.0
O1395 O 0.52925 0.69764 0.93268 0.0
O1396 O 0.48755 0.64729 0.93717 0.0
O1397 O 0.54138 0.65138 0.98721 0.0
O1398 O 0.56394 0.7197 1.01149 0.0
O1399 O 0.59589 0.69086 1.01978 0.0
C1400 C 0.57441 0.72814 0.73482 0.0
C1401 C 0.47821 0.71293 0.64117 0.0
C1402 C 0.49962 0.75949 0.53938 0.0
C1403 C 0.50771 0.74417 0.60173 0.0
C1404 C 0.46132 0.74278 0.52153 0.0
C1405 C 0.44218 0.69435 0.61092 0.0
C1406 C 0.43358 0.70954 0.55293 0.0
C1407 C 0.58251 0.77145 0.91072 0.0
C1408 C 0.4805 0.70314 0.71866 0.0
C1409 C 0.34809 0.63652 0.87981 0.0
C1410 C 0.35722 0.67431 0.87714 0.0
C1411 C 0.53067 0.71177 0.99445 0.0
C1412 C 0.63599 0.74481 0.08683 0.0
C1413 C 0.62078 0.76495 0.11654 0.0
C1414 C 0.61357 0.7582 0.18637 0.0
C1415 C 0.63643 0.74869 0.22661 0.0
C1416 C 0.661 0.73834 0.12399 0.0
C1417 C 0.66452 0.74585 0.19568 0.0
C1418 C 0.5036 0.63474 0.99285 0.0
C1419 C 0.62329 0.72605 1.02242 0.0
H1420 H 0.53663 0.75466 0.61708 0.0
H1421 H 0.45209 0.75554 0.48372 0.0
H1422 H 0.41942 0.66983 0.63599 0.0
H1423 H 0.40454 0.69658 0.53462 0.0
H1424 H 0.60144 0.77037 0.08863 0.0
H1425 H 0.62703 0.73258 0.27334 0.0
H1426 H 0.67419 0.72435 0.09818 0.0
H1427 H 0.68091 0.73908 0.23009 0.0
Tb1428 Tb 0.17546 0.78026 0.83928 0.0
C1429 C 0.17992 0.93483 0.93993 0.0
C1430 C 0.25268 -0.00866 0.95989 0.0
C1431 C 0.1937 -0.00564 0.98143 0.0
C1432 C 0.2172 0.94557 0.93942 0.0
C1433 C 0.16769 -0.04124 0.96064 0.0
C1434 C 0.2317 0.00925 0.96732 0.0
C1435 C 0.10756 0.91756 0.9046 0.0
N1436 N 0.15655 0.90208 0.9057 0.0
C1437 C 0.12094 0.89392 0.88525 0.0
C1438 C 0.13135 0.95023 0.94206 0.0
Tb1439 Tb 0.17598 0.85845 0.91683 0.0
N1440 N 0.22235 0.92332 0.87681 0.0
C1441 C 0.27564 0.95015 0.80475 0.0
C1442 C 0.29952 0.01706 0.91491 0.0
C1443 C 0.3113 -0.00325 0.83534 0.0
H1444 H 0.10225 0.8675 0.8608 0.0
H1445 H 0.31055 0.01173 0.8751 0.0
H1446 H 0.23473 0.02743 0.92594 0.0
H1447 H 0.07944 0.91142 0.88971 0.0
H1448 H 0.28229 0.9384 0.75967 0.0
H1449 H 0.08266 0.63371 0.8329 0.0
H1450 H 0.32023 0.04484 0.94522 0.0
H1451 H 0.26161 0.81924 0.82328 0.0
H1452 H 0.09922 0.69765 0.86844 0.0
H1453 H 0.31919 0.81301 0.84502 0.0
H1454 H 0.18433 0.01434 0.97759 0.0
H1455 H 0.12871 0.61225 0.8444 0.0
H1456 H 0.19475 0.62872 0.87584 0.0
H1457 H 0.1215 -0.03023 0.95321 0.0
H1458 H 0.26166 0.67946 0.88185 0.0
N1459 N 0.15617 0.71764 0.87133 0.0
C1460 C 0.12001 0.69017 0.86518 0.0
C1461 C 0.13661 0.64121 0.85635 0.0
C1462 C 0.17332 0.66794 0.87219 0.0
C1463 C 0.11071 0.65329 0.84875 0.0
C1464 C 0.18255 0.70638 0.87404 0.0
H1465 H 0.30826 0.74805 0.86636 0.0
N1466 N 0.22516 0.76865 0.85788 0.0
C1467 C 0.29142 0.79014 0.85567 0.0
C1468 C 0.21876 0.73343 0.87057 0.0
C1469 C 0.2605 0.79542 0.84522 0.0
C1470 C 0.28515 0.75385 0.86783 0.0
C1471 C 0.24816 0.72457 0.87435 0.0
O1472 O 0.20404 0.78345 0.74237 0.0
O1473 O 0.16158 0.82618 0.80517 0.0
O1474 O 0.12072 0.81938 0.87892 0.0
O1475 O 0.11921 0.76332 0.89575 0.0
O1476 O 0.15096 0.79114 0.73516 0.0
O1477 O 0.14541 0.73853 0.7644 0.0
O1478 O 0.1306 0.85386 0.9691 0.0
O1479 O 0.17856 0.80694 0.93244 0.0
O1480 O 0.22887 0.81555 0.93701 0.0
O1481 O 0.22484 0.86535 0.98691 0.0
O1482 O 0.15634 0.81949 1.01104 0.0
O1483 O 0.1856 0.88045 1.01947 0.0
C1484 C 0.14808 0.82163 0.73454 0.0
C1485 C 0.16337 0.7406 0.64102 0.0
C1486 C 0.11684 0.71551 0.53914 0.0
C1487 C 0.13215 0.73888 0.60153 0.0
C1488 C 0.1335 0.69388 0.52126 0.0
C1489 C 0.18188 0.72308 0.61081 0.0
C1490 C 0.16669 0.69931 0.55277 0.0
C1491 C 0.10473 0.78645 0.9103 0.0
C1492 C 0.17315 0.75268 0.71851 0.0
C1493 C 0.23949 0.68677 0.87971 0.0
C1494 C 0.20169 0.65812 0.87697 0.0
C1495 C 0.16437 0.7942 0.99415 0.0
C1496 C 0.13173 0.86668 0.08667 0.0
C1497 C 0.1113 0.83129 0.11612 0.0
C1498 C 0.1179 0.83068 0.186 0.0
C1499 C 0.12744 0.86305 0.22633 0.0
C1500 C 0.13823 0.89816 0.12387 0.0
C1501 C 0.13051 0.89409 0.19546 0.0
C1502 C 0.24144 0.84419 0.99265 0.0
C1503 C 0.15042 0.87268 1.02224 0.0
H1504 H 0.12166 0.75731 0.61687 0.0
H1505 H 0.12073 0.67193 0.48335 0.0
H1506 H 0.20638 0.72481 0.63595 0.0
H1507 H 0.17962 0.68322 0.53448 0.0
H1508 H 0.10576 0.80651 0.0881 0.0
H1509 H 0.14346 0.86969 0.27314 0.0
H1510 H 0.15228 0.92536 0.09818 0.0
H1511 H 0.13725 0.91721 0.22998 0.0
Tb1512 Tb 0.58106 0.85691 0.41129 0.0
C1513 C 0.41639 0.73574 0.36909 0.0
C1514 C 0.39585 0.67002 0.37228 0.0
C1515 C 0.34894 0.68941 0.37958 0.0
C1516 C 0.42535 0.70836 0.3727 0.0
C1517 C 0.37819 0.72707 0.37323 0.0
C1518 C 0.35779 0.66057 0.37766 0.0
C1519 C 0.4006 0.79261 0.35337 0.0
N1520 N 0.44522 0.77101 0.35636 0.0
C1521 C 0.43679 0.79777 0.34276 0.0
C1522 C 0.3706 0.75641 0.36637 0.0
Tb1523 Tb 0.50631 0.78212 0.34183 0.0
N1524 N 0.4629 0.7191 0.36949 0.0
C1525 C 0.47125 0.6914 0.36238 0.0
C1526 C 0.40528 0.64274 0.35807 0.0
C1527 C 0.44305 0.65428 0.34911 0.0
H1528 H 0.45951 0.82137 0.31982 0.0
H1529 H 0.45085 0.63404 0.33425 0.0
H1530 H 0.33515 0.63123 0.37769 0.0
H1531 H 0.39547 0.81528 0.34175 0.0
H1532 H 0.49957 0.6985 0.36453 0.0
H1533 H 0.60135 0.01167 0.37183 0.0
H1534 H 0.38385 0.61358 0.34875 0.0
H1535 H 0.66488 0.86701 0.35789 0.0
H1536 H 0.55539 0.93822 0.25648 0.0
H1537 H 0.73102 0.9099 0.39102 0.0
H1538 H 0.31952 0.6823 0.38213 0.0
H1539 H 0.62538 0.04475 0.44187 0.0
H1540 H 0.69246 0.02656 0.42367 0.0
H1541 H 0.3417 0.75064 0.36501 0.0
H1542 H 0.72897 0.01262 0.47973 0.0
N1543 N 0.60011 0.92264 0.37354 0.0
C1544 C 0.57404 0.94988 0.30148 0.0
C1545 C 0.61773 0.01683 0.41154 0.0
C1546 C 0.63833 -0.00932 0.45649 0.0
C1547 C 0.58543 -0.00334 0.33212 0.0
C1548 C 0.62763 0.94476 0.43609 0.0
H1549 H 0.747 -0.03164 0.454 0.0
N1550 N 0.64459 0.90115 0.40211 0.0
C1551 C 0.70897 0.916 0.40532 0.0
C1552 C 0.65387 0.93372 0.43702 0.0
C1553 C 0.67235 0.89311 0.38298 0.0
C1554 C 0.71757 0.94845 0.44309 0.0
C1555 C 0.6898 -0.0428 0.45978 0.0
O1556 O 0.62241 0.85321 0.46451 0.0
O1557 O 0.5265 0.80685 0.43449 0.0
O1558 O 0.48642 0.81592 0.43858 0.0
O1559 O 0.54059 0.86578 0.48414 0.0
O1560 O 0.56275 0.8187 0.50815 0.0
O1561 O 0.59346 0.87909 0.51445 0.0
O1562 O 0.48076 0.78276 0.24321 0.0
O1563 O 0.56231 0.82353 0.2925 0.0
O1564 O 0.60021 0.8193 0.38042 0.0
O1565 O 0.54454 0.76383 0.39796 0.0
O1566 O 0.56233 0.82231 0.28638 0.0
O1567 O 0.50068 0.74286 0.26464 0.0
C1568 C 0.52872 0.79376 0.49491 0.0
C1569 C 0.63361 0.86492 0.58263 0.0
C1570 C 0.61099 0.82964 0.68312 0.0
C1571 C 0.61783 0.82963 0.61324 0.0
C1572 C 0.63438 0.86204 0.72264 0.0
C1573 C 0.65964 0.89619 0.61935 0.0
C1574 C 0.6631 0.89237 0.69127 0.0
C1575 C 0.50282 0.84498 0.49269 0.0
C1576 C 0.62092 0.87136 0.51797 0.0
C1577 C 0.6995 -0.00724 0.48068 0.0
C1578 C 0.67699 0.00807 0.46439 0.0
C1579 C 0.57228 0.81764 0.22092 0.0
C1580 C 0.48168 0.74225 0.14175 0.0
C1581 C 0.51069 0.74074 0.10074 0.0
C1582 C 0.50186 0.71743 1.03823 0.0
C1583 C 0.46345 0.69615 1.02114 0.0
C1584 C 0.44545 0.72541 0.11258 0.0
C1585 C 0.43615 0.70186 0.05398 0.0
C1586 C 0.5824 0.78664 0.41142 0.0
C1587 C 0.48529 0.75489 0.21865 0.0
H1588 H 0.59799 0.8047 0.58658 0.0
H1589 H 0.62515 0.86928 0.769 0.0
H1590 H 0.67381 0.92308 0.59274 0.0
H1591 H 0.67991 0.91551 0.72573 0.0
H1592 H 0.53974 0.75886 0.11573 0.0
H1593 H 0.45386 0.6742 0.98315 0.0
H1594 H 0.42318 0.72754 0.139 0.0
H1595 H 0.40696 0.68612 1.03639 0.0
Tb1596 Tb 0.01956 0.69981 0.41101 0.0
C1597 C 0.14054 0.65615 0.36858 0.0
C1598 C 0.20625 0.70142 0.37172 0.0
C1599 C 0.18693 0.63511 0.37897 0.0
C1600 C 0.16791 0.69252 0.37218 0.0
C1601 C 0.14924 0.62664 0.3728 0.0
C1602 C 0.21574 0.67283 0.37697 0.0
C1603 C 0.08363 0.5834 0.35378 0.0
N1604 N 0.10523 0.64963 0.35613 0.0
C1605 C 0.07837 0.61436 0.34325 0.0
C1606 C 0.11989 0.58966 0.36637 0.0
Tb1607 Tb 0.09414 0.69962 0.34156 0.0
N1608 N 0.15715 0.71932 0.36916 0.0
C1609 C 0.18481 0.7554 0.36212 0.0
C1610 C 0.2335 0.73818 0.35767 0.0
C1611 C 0.22193 0.76439 0.34888 0.0
H1612 H 0.05453 0.61331 0.32108 0.0
H1613 H 0.24213 0.79247 0.33415 0.0
H1614 H 0.24508 0.67956 0.37694 0.0
H1615 H 0.06089 0.55557 0.34246 0.0
H1616 H 0.17768 0.77661 0.36425 0.0
H1617 H 0.86451 0.56599 0.37113 0.0
H1618 H 0.26267 0.74597 0.34832 0.0
H1619 H 0.00986 0.77413 0.35866 0.0
H1620 H -0.06191 0.59306 0.2558 0.0
H1621 H -0.03337 0.79715 0.39061 0.0
H1622 H 0.19407 0.61283 0.38155 0.0
H1623 H 0.83106 0.55784 0.44017 0.0
H1624 H 0.85128 0.64246 0.42219 0.0
H1625 H 0.12565 0.56652 0.36519 0.0
H1626 H 0.86374 0.69197 0.4804 0.0
N1627 N -0.04596 0.6534 0.37306 0.0
C1628 C -0.07349 0.6001 0.30079 0.0
C1629 C 0.85957 0.57737 0.4108 0.0
C1630 C 0.8861 0.62395 0.45588 0.0
C1631 C 0.87952 0.56494 0.33141 0.0
C1632 C -0.06802 0.65894 0.43558 0.0
H1633 H 0.90807 0.75456 0.4533 0.0
N1634 N -0.02443 0.71955 0.40206 0.0
C1635 C -0.03951 0.76896 0.40472 0.0
C1636 C -0.05708 0.69621 0.43653 0.0
C1637 C -0.01637 0.75539 0.38309 0.0
C1638 C -0.07206 0.74504 0.4422 0.0
C1639 C 0.91932 0.70862 0.45921 0.0
O1640 O 0.02306 0.74457 0.46474 0.0
O1641 O 0.06948 0.69508 0.43426 0.0
O1642 O 0.0602 0.64595 0.43841 0.0
O1643 O 0.01041 0.65033 0.48377 0.0
O1644 O 0.05786 0.71974 0.50777 0.0
O1645 O -0.00272 0.68956 0.51424 0.0
O1646 O 0.09341 0.67325 0.24309 0.0
O1647 O 0.05291 0.71437 0.29209 0.0
O1648 O 0.05709 0.7565 0.38004 0.0
O1649 O 0.11247 0.75619 0.39772 0.0
O1650 O 0.05413 0.7156 0.28593 0.0
O1651 O 0.13336 0.73311 0.26424 0.0
C1652 C 0.08263 0.71043 0.49463 0.0
C1653 C 0.01131 0.74376 0.58282 0.0
C1654 C 0.04673 0.75662 0.6831 0.0
C1655 C 0.04665 0.76351 0.61328 0.0
C1656 C 0.01434 0.74753 0.7227 0.0
C1657 C -0.01995 0.73849 0.61959 0.0
C1658 C -0.016 0.74596 0.69149 0.0
C1659 C 0.03111 0.63328 0.49242 0.0
C1660 C 0.00495 0.72475 0.51806 0.0
C1661 C 0.88387 0.68275 0.48094 0.0
C1662 C 0.86879 0.64512 0.46456 0.0
C1663 C 0.05878 0.73013 0.22039 0.0
C1664 C 0.13375 0.7146 0.14134 0.0
C1665 C 0.13525 0.74514 0.10032 0.0
C1666 C 0.15859 0.75966 1.03786 0.0
C1667 C 0.17981 0.74249 1.02076 0.0
C1668 C 0.15043 0.69511 0.11194 0.0
C1669 C 0.17397 0.70938 0.05337 0.0
C1670 C 0.08969 0.77128 0.41115 0.0
C1671 C 0.12131 0.70563 0.21839 0.0
H1672 H 0.07159 0.76876 0.58652 0.0
H1673 H 0.007 0.73074 0.76863 0.0
H1674 H -0.0469 0.72555 0.59311 0.0
H1675 H -0.03903 0.73973 0.72619 0.0
H1676 H 0.11719 0.75611 0.11535 0.0
H1677 H 0.20182 0.75491 0.98292 0.0
H1678 H 0.14827 0.67068 0.13821 0.0
H1679 H 0.18966 0.6959 1.03572 0.0
Tb1680 Tb 0.17631 0.29536 0.41086 0.0
C1681 C 0.2202 0.46011 0.36845 0.0
C1682 C 0.17513 0.48078 0.37163 0.0
C1683 C 0.24149 0.5276 0.37887 0.0
C1684 C 0.18386 0.45122 0.37201 0.0
C1685 C 0.24981 0.49828 0.37267 0.0
C1686 C 0.20382 0.51883 0.37692 0.0
C1687 C 0.29285 0.4757 0.35362 0.0
N1688 N 0.22658 0.43122 0.35599 0.0
C1689 C 0.26179 0.43953 0.34299 0.0
C1690 C 0.28672 0.50578 0.3662 0.0
Tb1691 Tb 0.17648 0.3702 0.34142 0.0
N1692 N 0.15696 0.41368 0.36891 0.0
C1693 C 0.12092 0.4054 0.36184 0.0
C1694 C 0.1384 0.47142 0.3577 0.0
C1695 C 0.11207 0.43366 0.34879 0.0
H1696 H 0.26269 0.41668 0.32067 0.0
H1697 H 0.08402 0.42594 0.33405 0.0
H1698 H 0.19721 0.54152 0.37695 0.0
H1699 H 0.32065 0.48072 0.34235 0.0
H1700 H 0.09962 0.37707 0.36388 0.0
H1701 H 0.30988 0.27378 0.37124 0.0
H1702 H 0.13072 0.4929 0.34859 0.0
H1703 H 0.1018 0.21138 0.35861 0.0
H1704 H 0.28304 0.32053 0.256 0.0
H1705 H 0.07867 0.14502 0.38999 0.0
H1706 H 0.26386 0.557 0.38144 0.0
H1707 H 0.31798 0.2485 0.44039 0.0
H1708 H 0.23335 0.18399 0.42206 0.0
H1709 H 0.30992 0.53466 0.36493 0.0
H1710 H 0.18373 0.14699 0.47982 0.0
N1711 N 0.22259 0.27606 0.37299 0.0
C1712 C 0.27592 0.30184 0.3009 0.0
C1713 C 0.29845 0.25743 0.41085 0.0
C1714 C 0.25185 0.23738 0.45576 0.0
C1715 C 0.31099 0.28989 0.33156 0.0
C1716 C 0.21694 0.24837 0.43542 0.0
H1717 H 0.12118 0.12882 0.45244 0.0
N1718 N 0.15637 0.23153 0.40192 0.0
C1719 C 0.10689 0.16701 0.40411 0.0
C1720 C 0.17966 0.22209 0.43628 0.0
C1721 C 0.12051 0.20381 0.38285 0.0
C1722 C 0.13076 0.15826 0.44142 0.0
C1723 C 0.16718 0.18602 0.4587 0.0
O1724 O 0.13164 0.25412 0.46471 0.0
O1725 O 0.18094 0.34998 0.4341 0.0
O1726 O 0.23009 0.38999 0.43839 0.0
O1727 O 0.22578 0.3358 0.48361 0.0
O1728 O 0.15642 0.31372 0.50763 0.0
O1729 O 0.1867 0.28342 0.51406 0.0
O1730 O 0.20279 0.39586 0.243 0.0
O1731 O 0.1618 0.31421 0.29191 0.0
O1732 O 0.11965 0.27624 0.37977 0.0
O1733 O 0.11993 0.33192 0.39745 0.0
O1734 O 0.16056 0.3142 0.28575 0.0
O1735 O 0.14293 0.37591 0.26416 0.0
C1736 C 0.16563 0.34778 0.4945 0.0
C1737 C 0.13257 0.24333 0.58283 0.0
C1738 C 0.11963 0.26588 0.68298 0.0
C1739 C 0.11279 0.2589 0.61314 0.0
C1740 C 0.1287 0.24258 0.72265 0.0
C1741 C 0.1377 0.21725 0.61966 0.0
C1742 C 0.13013 0.21372 0.69153 0.0
C1743 C 0.24277 0.37355 0.49236 0.0
C1744 C 0.15152 0.25588 0.518 0.0
C1745 C 0.19298 0.17635 0.48045 0.0
C1746 C 0.23063 0.19888 0.4643 0.0
C1747 C 0.14597 0.30426 0.22024 0.0
C1748 C 0.16145 0.39487 0.14134 0.0
C1749 C 0.13094 0.3658 0.1003 0.0
C1750 C 0.11643 0.37459 1.03782 0.0
C1751 C 0.13356 0.41299 1.02067 0.0
C1752 C 0.18088 0.43107 0.11206 0.0
C1753 C 0.16663 0.44031 0.0534 0.0
C1754 C 0.10488 0.29406 0.41088 0.0
C1755 C 0.17041 0.39137 0.21833 0.0
H1756 H 0.1075 0.27856 0.58632 0.0
H1757 H 0.14556 0.25208 0.76852 0.0
H1758 H 0.15059 0.20319 0.59324 0.0
H1759 H 0.13624 0.19686 0.72635 0.0
H1760 H 0.11997 0.33676 0.11538 0.0
H1761 H 0.12115 0.42254 0.98272 0.0
H1762 H 0.20525 0.45339 0.13847 0.0
H1763 H 0.18008 0.46949 1.03576 0.0
Tb1764 Tb 0.16711 0.27484 0.96945 0.0
C1765 C 0.04195 0.10698 1.01539 0.0
C1766 C -0.02349 0.08705 1.01382 0.0
C1767 C -0.00484 0.0396 1.00616 0.0
C1768 C 0.01497 0.11621 1.01187 0.0
C1769 C 0.03298 0.06867 1.0117 0.0
C1770 C -0.03342 0.04883 1.00888 0.0
C1771 C 0.09845 0.09083 1.0311 0.0
N1772 N 0.07717 0.13575 1.02826 0.0
C1773 C 0.10383 0.12709 1.04128 0.0
C1774 C 0.06216 0.06086 1.01866 0.0
Tb1775 Tb 0.08894 0.19712 0.04688 0.0
N1776 N 0.02632 0.15388 1.01478 0.0
C1777 C -0.00107 0.16262 1.02134 0.0
C1778 C -0.05013 0.09709 1.03002 0.0
C1779 C -0.03794 0.13509 1.03787 0.0
H1780 H 0.12765 0.14975 0.06338 0.0
H1781 H -0.05748 0.14364 0.05346 0.0
H1782 H -0.06284 0.0264 1.01 0.0
H1783 H 0.12122 0.08584 0.0422 0.0
H1784 H 0.00647 0.19089 1.01813 0.0
H1785 H 0.32029 0.29318 1.01178 0.0
H1786 H 0.92091 0.07607 0.04198 0.0
H1787 H 0.17673 0.35771 1.0263 0.0
H1788 H 0.24677 0.24803 0.12671 0.0
H1789 H 0.22059 0.42433 0.99652 0.0
H1790 H -0.01222 0.01009 1.00404 0.0
H1791 H 0.35369 0.31691 0.94224 0.0
H1792 H 0.33539 0.38423 0.96112 0.0
H1793 H 0.05625 0.03191 1.02034 0.0
H1794 H 0.32313 0.42194 0.90841 0.0
N1795 N 0.2319 0.29294 1.00936 0.0
C1796 C 0.25859 0.26643 0.08167 0.0
C1797 C 0.32569 0.30957 0.97199 0.0
C1798 C 0.3 0.33063 0.92673 0.0
C1799 C 0.30523 0.27739 0.05143 0.0
C1800 C 0.25424 0.32039 0.94687 0.0
H1801 H 0.27863 0.44033 0.93244 0.0
N1802 N 0.211 0.33778 0.98084 0.0
C1803 C 0.22657 0.40226 0.98145 0.0
C1804 C 0.24359 0.34699 0.94629 0.0
C1805 C 0.20303 0.36534 1.00141 0.0
C1806 C 0.25903 0.41096 0.94353 0.0
C1807 C 0.26751 0.3831 0.92523 0.0
O1808 O 0.16248 0.31587 0.9179 0.0
O1809 O 0.11564 0.22069 0.95375 0.0
O1810 O 0.12432 0.17902 0.94937 0.0
O1811 O 0.17401 0.23291 0.89931 0.0
O1812 O 0.12832 0.25542 0.87495 0.0
O1813 O 0.18884 0.28758 0.86672 0.0
O1814 O 0.09248 0.17201 0.14393 0.0
O1815 O 0.13477 0.25697 0.08101 0.0
O1816 O 0.12806 0.29099 1.00742 0.0
O1817 O 0.07204 0.23642 0.99029 0.0
O1818 O 0.09962 0.23252 0.15088 0.0
O1819 O 0.04729 0.18531 0.12191 0.0
C1820 C 0.10295 0.22216 0.89199 0.0
C1821 C 0.17509 0.32792 0.8003 0.0
C1822 C 0.13958 0.30516 0.70045 0.0
C1823 C 0.13979 0.31231 0.77027 0.0
C1824 C 0.172 0.32813 0.66046 0.0
C1825 C 0.20658 0.35314 0.76332 0.0
C1826 C 0.2027 0.35655 0.69155 0.0
C1827 C 0.15288 0.19511 0.89362 0.0
C1828 C 0.18118 0.31506 0.86451 0.0
C1829 C 0.30308 0.3926 0.90443 0.0
C1830 C 0.31789 0.36944 0.91865 0.0
C1831 C 0.1301 0.26588 0.1516 0.0
C1832 C 0.04958 0.16967 0.24532 0.0
C1833 C 0.04784 0.19916 0.28478 0.0
C1834 C 0.02445 0.19107 0.34713 0.0
C1835 C 0.00287 0.15278 0.36499 0.0
C1836 C 0.03203 0.1336 0.27543 0.0
C1837 C 0.0083 0.12502 0.33348 0.0
C1838 C 0.09517 0.27405 0.97586 0.0
C1839 C 0.06163 0.17194 0.16784 0.0
H1840 H 0.11502 0.29283 0.79803 0.0
H1841 H 0.17879 0.31884 0.61364 0.0
H1842 H 0.23374 0.36645 0.78924 0.0
H1843 H 0.22589 0.37304 0.65731 0.0
H1844 H 0.06624 0.22809 0.26947 0.0
H1845 H -0.01908 0.14356 0.40287 0.0
H1846 H 0.03371 0.11083 0.25022 0.0
H1847 H -0.0078 0.09598 0.35175 0.0
Tb1848 Tb 0.60146 0.8678 0.97003 0.0
C1849 C 0.76925 0.91065 1.0166 0.0
C1850 C 0.78935 0.86524 1.01491 0.0
C1851 C 0.83665 0.93144 1.00737 0.0
C1852 C 0.76012 0.87443 1.01311 0.0
C1853 C 0.80752 0.94008 1.01292 0.0
C1854 C 0.82753 0.89364 1.00999 0.0
C1855 C 0.7852 -0.01673 1.0323 0.0
N1856 N 0.74044 0.91704 1.02948 0.0
C1857 C 0.74904 -0.04767 0.04292 0.0
C1858 C 0.81522 -0.02295 1.01981 0.0
Tb1859 Tb 0.67921 0.86733 0.04787 0.0
N1860 N 0.72249 0.84802 1.01601 0.0
C1861 C 0.71381 0.81188 1.02248 0.0
C1862 C 0.7794 0.82853 1.03075 0.0
C1863 C 0.74143 0.80262 1.03865 0.0
H1864 H 0.7264 -0.04656 0.06554 0.0
H1865 H 0.73297 0.77452 0.05414 0.0
H1866 H 0.85 0.88673 1.011 0.0
H1867 H 0.7901 0.01102 0.04302 0.0
H1868 H 0.68555 0.79109 1.01933 0.0
H1869 H 0.58265 0.00248 1.01083 0.0
H1870 H 0.80049 0.82061 0.04224 0.0
H1871 H 0.51876 0.79436 1.02689 0.0
H1872 H 0.62902 -0.02467 0.12514 0.0
H1873 H 0.45197 0.77121 0.9975 0.0
H1874 H 0.86614 -0.04637 1.00524 0.0
H1875 H 0.55874 0.01188 0.94133 0.0
H1876 H 0.49099 0.9261 0.96088 0.0
H1877 H 0.84414 0.00017 1.0214 0.0
H1878 H 0.45364 0.87574 0.90911 0.0
N1879 N 0.58307 0.91441 1.00947 0.0
C1880 C 0.60988 -0.03195 0.08083 0.0
C1881 C 0.56606 -0.00871 0.97138 0.0
C1882 C 0.54479 0.94425 0.92693 0.0
C1883 C 0.59867 0.00348 0.05025 0.0
C1884 C 0.55528 0.90893 0.94732 0.0
H1885 H 0.43556 0.81299 0.93356 0.0
N1886 N 0.53836 0.84841 0.98121 0.0
C1887 C 0.47392 0.7993 0.98243 0.0
C1888 C 0.52889 0.87163 0.94677 0.0
C1889 C 0.51094 0.81286 1.00206 0.0
C1890 C 0.46499 0.8229 0.94455 0.0
C1891 C 0.4927 0.85926 0.92593 0.0
O1892 O 0.56044 0.82222 0.91821 0.0
O1893 O 0.6555 0.87018 0.95464 0.0
O1894 O 0.6975 0.92066 0.95028 0.0
O1895 O 0.64364 0.91637 0.89976 0.0
O1896 O 0.62094 0.84851 0.87554 0.0
O1897 O 0.58894 0.87695 0.86725 0.0
O1898 O 0.70437 0.8961 0.1448 0.0
O1899 O 0.61946 0.85352 0.08176 0.0
O1900 O 0.58533 0.81259 1.008 0.0
O1901 O 0.63989 0.81109 0.99126 0.0
O1902 O 0.64391 0.84287 0.15195 0.0
O1903 O 0.69099 0.83754 0.12312 0.0
C1904 C 0.6541 0.85612 0.89278 0.0
C1905 C 0.54877 0.82292 0.80042 0.0
C1906 C 0.57176 0.81037 0.70073 0.0
C1907 C 0.56458 0.80339 0.77052 0.0
C1908 C 0.54875 0.81975 0.66067 0.0
C1909 C 0.52334 0.82885 0.76328 0.0
C1910 C 0.51996 0.82142 0.69151 0.0
C1911 C 0.68143 0.93301 0.89435 0.0
C1912 C 0.56141 0.84182 0.86479 0.0
C1913 C 0.48298 0.88518 0.90514 0.0
C1914 C 0.50598 0.92322 0.91896 0.0
C1915 C 0.61062 0.84008 0.15241 0.0
C1916 C 0.70649 0.8557 0.24655 0.0
C1917 C 0.67702 0.82439 0.28585 0.0
C1918 C 0.68515 0.80904 0.34806 0.0
C1919 C 0.72343 0.82581 0.36605 0.0
C1920 C 0.7425 0.87434 0.27693 0.0
C1921 C 0.75112 0.85916 0.33489 0.0
C1922 C 0.60228 0.79665 0.97654 0.0
C1923 C 0.70435 0.86533 0.16895 0.0
H1924 H 0.58401 0.79807 0.7984 0.0
H1925 H 0.55821 0.83622 0.61429 0.0
H1926 H 0.50994 0.84264 0.78904 0.0
H1927 H 0.50331 0.82784 0.65701 0.0
H1928 H 0.6481 0.81375 0.27038 0.0
H1929 H 0.73267 0.81303 0.40382 0.0
H1930 H 0.76526 0.89888 0.25194 0.0
H1931 H 0.78015 0.87217 0.35324 0.0
Tb1932 Tb 0.00821 0.70901 0.96957 0.0
C1933 C -0.03389 0.8346 1.01549 0.0
C1934 C 0.01199 0.89997 1.01398 0.0
C1935 C -0.05402 0.88171 1.00607 0.0
C1936 C 0.00241 0.86143 1.01201 0.0
C1937 C -0.06305 0.84381 1.0117 0.0
C1938 C -0.01612 0.91013 1.00889 0.0
C1939 C 0.89328 0.77843 1.03133 0.0
N1940 N -0.0406 0.79929 1.02837 0.0
C1941 C 0.92398 0.77277 1.04139 0.0
C1942 C 0.89986 0.81479 1.01866 0.0
Tb1943 Tb 0.00878 0.78721 0.04714 0.0
N1944 N 0.02854 0.84986 1.01502 0.0
C1945 C 0.06474 0.87707 1.02179 0.0
C1946 C 0.04874 0.92643 1.03035 0.0
C1947 C 0.07432 0.91397 1.03846 0.0
H1948 H 0.92256 0.74885 0.06352 0.0
H1949 H 0.10249 0.93335 0.05406 0.0
H1950 H -0.00891 0.93961 1.00999 0.0
H1951 H 0.86546 0.75579 0.04258 0.0
H1952 H 0.08531 0.86935 1.01873 0.0
H1953 H 0.87327 0.55573 1.01184 0.0
H1954 H 0.05692 -0.04453 0.04216 0.0
H1955 H 0.08142 0.69935 1.02618 0.0
H1956 H 0.90174 0.62933 0.12673 0.0
H1957 H 0.10413 0.65546 0.99641 0.0
H1958 H 0.92401 0.88929 1.00386 0.0
H1959 H 0.86358 0.52229 0.94231 0.0
H1960 H -0.05083 0.54064 0.96116 0.0
H1961 H 0.87693 0.82087 1.02008 0.0
H1962 H -0.00087 0.55288 0.90841 0.0
N1963 N -0.03854 0.64416 1.00936 0.0
C1964 C 0.90828 0.61748 0.0817 0.0
C1965 C 0.88424 0.55031 0.97205 0.0
C1966 C -0.06902 0.576 0.92674 0.0
C1967 C 0.87257 0.57081 0.0515 0.0
C1968 C -0.03348 0.62179 0.94685 0.0
H1969 H 0.06206 0.59742 0.93233 0.0
N1970 N 0.02719 0.66507 0.98077 0.0
C1971 C 0.07608 0.64948 0.98138 0.0
C1972 C 0.00378 0.63246 0.94622 0.0
C1973 C 0.06273 0.67304 1.00132 0.0
C1974 C 0.05229 0.617 0.94348 0.0
C1975 C 0.01594 0.60851 0.92518 0.0
O1976 O 0.05383 0.71363 0.91789 0.0
O1977 O 0.00559 0.76051 0.95396 0.0
O1978 O -0.04475 0.75184 0.94966 0.0
O1979 O -0.04062 0.70212 0.89952 0.0
O1980 O 0.02758 0.74781 0.87513 0.0
O1981 O -0.00088 0.68727 0.86681 0.0
O1982 O -0.01997 0.78361 0.14413 0.0
O1983 O 0.02274 0.74137 0.08119 0.0
O1984 O 0.06349 0.74808 1.0074 0.0
O1985 O 0.06499 0.80413 0.99049 0.0
O1986 O 0.03353 0.77656 0.1511 0.0
O1987 O 0.03852 0.82881 0.1224 0.0
C1988 C 0.01974 0.77321 0.89219 0.0
C1989 C 0.05315 0.70104 0.80023 0.0
C1990 C 0.06603 0.73665 0.70054 0.0
C1991 C 0.07291 0.73637 0.77036 0.0
C1992 C 0.05657 0.70425 0.66044 0.0
C1993 C 0.04691 0.66958 0.76313 0.0
C1994 C 0.0543 0.67354 0.69139 0.0
C1995 C -0.05724 0.72327 0.89385 0.0
C1996 C 0.03425 0.69492 0.86451 0.0
C1997 C -0.01016 0.57292 0.90444 0.0
C1998 C -0.04812 0.55811 0.91866 0.0
C1999 C 0.03632 0.74604 0.15177 0.0
C2000 C 0.02054 0.82644 0.24579 0.0
C2001 C 0.05183 0.82826 0.2852 0.0
C2002 C 0.06717 0.85169 0.34753 0.0
C2003 C 0.05044 0.87323 0.36548 0.0
C2004 C 0.00198 0.84389 0.27613 0.0
C2005 C 0.01717 0.86768 0.33414 0.0
C2006 C 0.07944 0.78099 0.97592 0.0
C2007 C 0.01077 0.81446 0.16822 0.0
H2008 H 0.07823 0.76113 0.7982 0.0
H2009 H 0.0404 0.69745 0.61371 0.0
H2010 H 0.03304 0.6424 0.78893 0.0
H2011 H 0.04766 0.6504 0.657 0.0
H2012 H 0.06237 0.80988 0.26984 0.0
H2013 H 0.06321 0.8952 0.40337 0.0
H2014 H -0.02256 0.8421 0.25111 0.0
H2015 H 0.00419 0.88371 0.35249 0.0
Tb2016 Tb 0.34514 0.1193 0.87808 0.0
C2017 C 0.19677 -0.0319 0.78347 0.0
C2018 C 0.21208 0.91121 0.76366 0.0
C2019 C 0.15094 0.90896 0.7396 0.0
C2020 C 0.22304 -0.04291 0.78426 0.0
C2021 C 0.16068 0.94448 0.76119 0.0
C2022 C 0.17349 0.89387 0.75583 0.0
C2023 C 0.14183 -0.01404 0.81537 0.0
N2024 N 0.20631 0.0009 0.81769 0.0
C2025 C 0.17866 0.00917 0.83651 0.0
C2026 C 0.13297 -0.0468 0.77838 0.0
Tb2027 Tb 0.27019 0.04463 0.80871 0.0
N2028 N 0.25061 -0.02095 0.8469 0.0
C2029 C 0.27631 -0.04859 0.91899 0.0
C2030 C 0.23215 0.88466 0.80849 0.0
C2031 C 0.26448 0.90446 0.88804 0.0
H2032 H 0.18628 0.03553 0.86054 0.0
H2033 H 0.24845 0.88953 0.8482 0.0
H2034 H 0.15845 0.87582 0.7974 0.0
H2035 H 0.11989 -0.00772 0.8293 0.0
H2036 H 0.29494 -0.03708 0.96404 0.0
H2037 H 0.402 0.26783 0.88502 0.0
H2038 H 0.22339 0.85631 0.77865 0.0
H2039 H 0.39107 0.07901 0.89843 0.0
H2040 H 0.35264 0.20338 0.85529 0.0
H2041 H 0.45494 0.08466 0.87644 0.0
H2042 H 0.12159 0.88885 0.74019 0.0
H2043 H 0.46876 0.28761 0.87035 0.0
H2044 H 0.51699 0.26924 0.84242 0.0
H2045 H 0.10352 0.93339 0.76727 0.0
H2046 H 0.53199 0.21774 0.83817 0.0
N2047 N 0.38897 0.18228 0.85062 0.0
C2048 C 0.38094 0.21024 0.85727 0.0
C2049 C 0.44711 0.25849 0.86133 0.0
C2050 C 0.4562 0.2309 0.84779 0.0
C2051 C 0.40943 0.24735 0.87003 0.0
C2052 C 0.42644 0.19267 0.84765 0.0
H2053 H 0.50918 0.14923 0.85453 0.0
N2054 N 0.40603 0.12986 0.86369 0.0
C2055 C 0.45012 0.1076 0.86554 0.0
C2056 C 0.43507 0.16505 0.85127 0.0
C2057 C 0.41407 0.10275 0.87641 0.0
C2058 C 0.48037 0.14374 0.85325 0.0
C2059 C 0.47315 0.17335 0.84699 0.0
O2060 O 0.37084 0.11884 0.97657 0.0
O2061 O 0.28919 0.07794 0.92765 0.0
O2062 O 0.2512 0.08226 0.83986 0.0
O2063 O 0.30691 0.13765 0.82216 0.0
O2064 O 0.28919 0.07916 0.9338 0.0
O2065 O 0.35084 0.1587 0.95504 0.0
O2066 O 0.22909 0.04815 0.7546 0.0
O2067 O 0.32478 0.09458 0.78543 0.0
O2068 O 0.3648 0.08544 0.78103 0.0
O2069 O 0.31059 0.03548 0.73604 0.0
O2070 O 0.28849 0.08297 0.71205 0.0
O2071 O 0.25822 0.02209 0.70561 0.0
C2072 C 0.27929 0.08375 0.99938 0.0
C2073 C 0.36986 0.15934 0.07798 0.0
C2074 C 0.34958 0.18398 0.18164 0.0
C2075 C 0.34079 0.1607 0.1191 0.0
C2076 C 0.38798 0.20529 0.19877 0.0
C2077 C 0.40609 0.17618 0.10721 0.0
C2078 C 0.41532 0.19965 0.16591 0.0
C2079 C 0.26902 0.11486 0.80878 0.0
C2080 C 0.36629 0.14673 1.00105 0.0
C2081 C 0.50266 0.21091 0.84078 0.0
C2082 C 0.49415 0.23999 0.84259 0.0
C2083 C 0.32261 0.10772 0.72506 0.0
C2084 C 0.21826 0.0362 0.63655 0.0
C2085 C 0.23348 0.07159 0.60642 0.0
C2086 C 0.24051 0.07189 0.53656 0.0
C2087 C 0.2173 0.03952 0.49674 0.0
C2088 C 0.1924 0.00492 0.59966 0.0
C2089 C 0.18879 0.00895 0.52784 0.0
C2090 C 0.34834 0.05622 0.72726 0.0
C2091 C 0.23081 0.0299 0.70147 0.0
H2092 H 0.31175 0.14256 0.10406 0.0
H2093 H 0.39753 0.22722 0.23678 0.0
H2094 H 0.4284 0.17416 0.08075 0.0
H2095 H 0.4445 0.21542 0.18354 0.0
H2096 H 0.25302 0.09655 0.63334 0.0
H2097 H 0.22679 0.03231 0.45075 0.0
H2098 H 0.17849 -0.02204 0.62604 0.0
H2099 H 0.17206 -0.01406 0.49301 0.0
Tb2100 Tb 0.75709 0.20108 0.8771 0.0
C2101 C 0.90834 0.20411 0.7831 0.0
C2102 C -0.03482 0.27635 0.76334 0.0
C2103 C -0.03259 0.21749 0.73899 0.0
C2104 C 0.91931 0.24141 0.78387 0.0
C2105 C -0.06807 0.19167 0.76061 0.0
C2106 C -0.01751 0.2551 0.75548 0.0
C2107 C 0.89062 0.13131 0.81491 0.0
N2108 N 0.8756 0.18078 0.81742 0.0
C2109 C 0.8674 0.14487 0.83619 0.0
C2110 C 0.92327 0.15524 0.77773 0.0
Tb2111 Tb 0.83183 0.2008 0.80843 0.0
N2112 N 0.89732 0.24706 0.84638 0.0
C2113 C 0.92495 0.30047 0.91839 0.0
C2114 C -0.00828 0.32302 0.80811 0.0
C2115 C -0.0281 0.33557 0.88751 0.0
H2116 H 0.84109 0.12607 0.86039 0.0
H2117 H -0.01317 0.33446 0.84775 0.0
H2118 H 0.00053 0.25807 0.79708 0.0
H2119 H 0.8844 0.10309 0.82896 0.0
H2120 H 0.91343 0.30766 0.96336 0.0
H2121 H 0.60895 0.10897 0.88492 0.0
H2122 H 0.02004 0.34264 0.77824 0.0
H2123 H 0.79678 0.28727 0.89846 0.0
H2124 H 0.6733 0.12426 0.85468 0.0
H2125 H 0.79086 0.34533 0.87659 0.0
H2126 H -0.01247 0.2083 0.73956 0.0
H2127 H 0.58885 0.15572 0.86964 0.0
H2128 H 0.60677 0.22203 0.83976 0.0
H2129 H -0.05688 0.14568 0.76664 0.0
H2130 H 0.65801 0.28864 0.83518 0.0
N2131 N 0.69416 0.1816 0.84894 0.0
C2132 C 0.66634 0.1456 0.85634 0.0
C2133 C 0.61795 0.16327 0.86028 0.0
C2134 C 0.64534 0.19988 0.84558 0.0
C2135 C 0.6293 0.13691 0.86966 0.0
C2136 C 0.68363 0.20855 0.84523 0.0
H2137 H 0.72629 0.3346 0.85303 0.0
N2138 N 0.74634 0.25125 0.86178 0.0
C2139 C 0.76813 0.31753 0.86488 0.0
C2140 C 0.71114 0.2449 0.84868 0.0
C2141 C 0.77317 0.28644 0.87559 0.0
C2142 C 0.732 0.31143 0.8516 0.0
C2143 C 0.70261 0.27453 0.84442 0.0
O2144 O 0.75771 0.22762 0.97516 0.0
O2145 O 0.79847 0.18666 0.92713 0.0
O2146 O 0.79428 0.14415 0.84004 0.0
O2147 O 0.73883 0.14432 0.82201 0.0
O2148 O 0.79724 0.18545 0.93324 0.0
O2149 O 0.7177 0.1677 0.95412 0.0
O2150 O 0.82815 0.15605 0.75447 0.0
O2151 O 0.78196 0.20534 0.78473 0.0
O2152 O 0.79066 0.25447 0.78013 0.0
O2153 O 0.84077 0.25033 0.73567 0.0
O2154 O 0.79363 0.18028 0.71189 0.0
O2155 O 0.85429 0.21123 0.70531 0.0
C2156 C 0.79267 0.17097 0.99883 0.0
C2157 C 0.71714 0.18649 0.07637 0.0
C2158 C 0.69179 0.14115 0.17882 0.0
C2159 C 0.71553 0.15591 0.11711 0.0
C2160 C 0.67064 0.15841 0.19608 0.0
C2161 C 0.70031 0.20592 0.1054 0.0
C2162 C 0.67666 0.19164 0.16378 0.0
C2163 C 0.7616 0.12916 0.80913 0.0
C2164 C 0.72963 0.19533 0.99964 0.0
C2165 C 0.665 0.26625 0.83785 0.0
C2166 C 0.63606 0.2286 0.83985 0.0
C2167 C 0.76895 0.18974 0.72453 0.0
C2168 C 0.84023 0.15706 0.63643 0.0
C2169 C 0.80487 0.13658 0.60615 0.0
C2170 C 0.80453 0.14318 0.53614 0.0
C2171 C 0.83698 0.15247 0.49654 0.0
C2172 C 0.87165 0.16289 0.5997 0.0
C2173 C 0.86779 0.15527 0.52792 0.0
C2174 C 0.81995 0.26727 0.72667 0.0
C2175 C 0.84638 0.17596 0.70128 0.0
H2176 H 0.73369 0.14502 0.10228 0.0
H2177 H 0.64861 0.14606 0.23393 0.0
H2178 H 0.70244 0.23029 0.07899 0.0
H2179 H 0.661 0.20515 0.18141 0.0
H2180 H 0.77984 0.13089 0.63314 0.0
H2181 H 0.84388 0.16848 0.44977 0.0
H2182 H 0.8986 0.17614 0.62616 0.0
H2183 H 0.8909 0.16182 0.49328 0.0
Tb2184 Tb 0.67477 0.53094 0.87818 0.0
C2185 C 0.67209 0.67936 0.78367 0.0
C2186 C 0.59992 0.66415 0.76388 0.0
C2187 C 0.65888 0.72526 0.73993 0.0
C2188 C 0.63479 0.65312 0.78442 0.0
C2189 C 0.68462 0.71549 0.76158 0.0
C2190 C 0.62123 0.70275 0.75613 0.0
C2191 C 0.74489 0.73429 0.81601 0.0
N2192 N 0.69532 0.66979 0.81788 0.0
C2193 C 0.73124 0.69742 0.83686 0.0
C2194 C 0.72103 0.74319 0.77906 0.0
Tb2195 Tb 0.67508 0.60588 0.80887 0.0
N2196 N 0.62913 0.62551 0.84699 0.0
C2197 C 0.57578 0.59985 0.91904 0.0
C2198 C 0.55329 0.64412 0.80869 0.0
C2199 C 0.54073 0.61176 0.88815 0.0
H2200 H 0.74995 0.68976 0.86083 0.0
H2201 H 0.54185 0.62782 0.84835 0.0
H2202 H 0.61825 0.71781 0.79773 0.0
H2203 H 0.77316 0.75621 0.82999 0.0
H2204 H 0.56862 0.58119 0.96404 0.0
H2205 H 0.76659 0.47434 0.88497 0.0
H2206 H 0.53373 0.65289 0.77884 0.0
H2207 H 0.58857 0.48496 0.89843 0.0
H2208 H 0.75139 0.52357 0.85502 0.0
H2209 H 0.53035 0.42104 0.87664 0.0
H2210 H 0.66816 0.75462 0.74057 0.0
H2211 H 0.71967 0.40752 0.87032 0.0
H2212 H 0.653 0.35916 0.84271 0.0
H2213 H 0.73071 0.77265 0.76803 0.0
H2214 H 0.58647 0.34406 0.83863 0.0
N2215 N 0.69396 0.48717 0.85064 0.0
C2216 C 0.72997 0.49527 0.85717 0.0
C2217 C 0.71213 0.42912 0.86133 0.0
C2218 C 0.67542 0.41996 0.8479 0.0
C2219 C 0.73864 0.46683 0.87001 0.0
C2220 C 0.6669 0.44967 0.84775 0.0
H2221 H 0.54073 0.3668 0.85498 0.0
N2222 N 0.62446 0.47002 0.86374 0.0
C2223 C 0.55811 0.42586 0.86569 0.0
C2224 C 0.63063 0.44099 0.85141 0.0
C2225 C 0.5893 0.46195 0.87641 0.0
C2226 C 0.56403 0.39562 0.85356 0.0
C2227 C 0.60087 0.40288 0.84726 0.0
O2228 O 0.64857 0.50526 0.9766 0.0
O2229 O 0.6894 0.5869 0.92781 0.0
O2230 O 0.73171 0.62489 0.84002 0.0
O2231 O 0.73136 0.56918 0.82231 0.0
O2232 O 0.69062 0.5869 0.93396 0.0
O2233 O 0.70843 0.5252 0.95515 0.0
O2234 O 0.71967 0.64698 0.75476 0.0
O2235 O 0.67043 0.55127 0.78557 0.0
O2236 O 0.62124 0.51126 0.7811 0.0
O2237 O 0.62553 0.56548 0.73618 0.0
O2238 O 0.69506 0.58751 0.71219 0.0
O2239 O 0.66445 0.61773 0.70577 0.0
C2240 C 0.70515 0.59683 0.99954 0.0
C2241 C 0.68999 0.50621 0.07803 0.0
C2242 C 0.73492 0.52645 0.18167 0.0
C2243 C 0.72044 0.53526 0.11918 0.0
C2244 C 0.71782 0.48803 0.19867 0.0
C2245 C 0.67057 0.46997 0.10717 0.0
C2246 C 0.6848 0.4607 0.16581 0.0
C2247 C 0.74647 0.60707 0.80892 0.0
C2248 C 0.68099 0.50978 1.00111 0.0
C2249 C 0.60896 0.37341 0.84113 0.0
C2250 C 0.64656 0.38197 0.84284 0.0
C2251 C 0.68572 0.5534 0.72519 0.0
C2252 C 0.7185 0.6576 0.63664 0.0
C2253 C 0.7386 0.64232 0.60652 0.0
C2254 C 0.73185 0.63527 0.53666 0.0
C2255 C 0.72273 0.65849 0.49685 0.0
C2256 C 0.71312 0.68347 0.59973 0.0
C2257 C 0.72077 0.68706 0.52791 0.0
C2258 C 0.60852 0.52773 0.72733 0.0
C2259 C 0.69967 0.64516 0.70158 0.0
H2260 H 0.73139 0.56431 0.10417 0.0
H2261 H 0.73021 0.47845 0.23657 0.0
H2262 H 0.64624 0.44766 0.08067 0.0
H2263 H 0.67139 0.43151 0.18334 0.0
H2264 H 0.74401 0.62278 0.63344 0.0
H2265 H 0.70594 0.64896 0.45093 0.0
H2266 H 0.70009 0.69739 0.62613 0.0
H2267 H 0.71458 0.70382 0.49301 0.0
Tb2268 Tb 0.76244 0.70405 0.17289 0.0
C2269 C 0.60786 0.55395 0.27336 0.0
C2270 C 0.55147 0.57033 0.29329 0.0
C2271 C 0.54836 0.50828 0.315 0.0
C2272 C 0.5972 0.58054 0.27287 0.0
C2273 C 0.58393 0.51782 0.29423 0.0
C2274 C 0.53353 0.53143 0.30077 0.0
C2275 C 0.62501 0.49878 0.23819 0.0
N2276 N 0.64055 0.56327 0.23906 0.0
C2277 C 0.64863 0.53576 0.21861 0.0
C2278 C 0.59243 0.48998 0.2758 0.0
Tb2279 Tb 0.68426 0.62631 0.25037 0.0
N2280 N 0.61947 0.60793 0.21026 0.0
C2281 C 0.59272 0.63446 0.13815 0.0
C2282 C 0.52581 0.59148 0.24826 0.0
C2283 C 0.54615 0.62359 0.16869 0.0
H2284 H 0.67501 0.54345 0.19403 0.0
H2285 H 0.53116 0.60786 0.20845 0.0
H2286 H 0.51539 0.5163 0.25929 0.0
H2287 H 0.63108 0.47676 0.22322 0.0
H2288 H 0.60449 0.65284 0.09307 0.0
H2289 H 0.90917 0.75842 0.16663 0.0
H2290 H 0.49801 0.5844 0.27847 0.0
H2291 H 0.72324 0.75101 0.1571 0.0
H2292 H 0.84524 0.71075 0.20205 0.0
H2293 H 0.72922 0.81477 0.17956 0.0
H2294 H 0.52835 0.47893 0.31121 0.0
H2295 H -0.06964 0.82585 0.17816 0.0
H2296 H 0.91366 0.87523 0.2096 0.0
H2297 H 0.57284 0.46059 0.28691 0.0
H2298 H 0.86277 0.89115 0.21576 0.0
N2299 N 0.82506 0.74757 0.20488 0.0
C2300 C 0.85262 0.73902 0.19879 0.0
C2301 C 0.90143 0.80469 0.19005 0.0
C2302 C 0.87459 0.81452 0.20582 0.0
C2303 C 0.88949 0.76674 0.18249 0.0
C2304 C 0.8362 0.7852 0.20759 0.0
H2305 H 0.79412 0.86893 0.20068 0.0
N2306 N 0.7739 0.76534 0.19143 0.0
C2307 C 0.75218 0.80994 0.18975 0.0
C2308 C 0.80907 0.79423 0.20414 0.0
C2309 C 0.74705 0.7738 0.17896 0.0
C2310 C 0.78843 0.84004 0.20188 0.0
C2311 C 0.8178 0.83247 0.20811 0.0
O2312 O 0.75932 0.72943 0.07592 0.0
O2313 O 0.71655 0.64421 0.13875 0.0
O2314 O 0.72331 0.61017 0.21231 0.0
O2315 O 0.77937 0.66472 0.22936 0.0
O2316 O 0.75152 0.66869 0.06871 0.0
O2317 O 0.80418 0.71565 0.09811 0.0
O2318 O 0.68885 0.58542 0.30235 0.0
O2319 O 0.73574 0.68042 0.26601 0.0
O2320 O 0.72713 0.72212 0.27064 0.0
O2321 O 0.67737 0.66827 0.32057 0.0
O2322 O 0.72319 0.64564 0.34465 0.0
O2323 O 0.66231 0.61374 0.35302 0.0
C2324 C 0.72109 0.63528 0.0681 0.0
C2325 C 0.80216 0.73155 0.97466 0.0
C2326 C 0.8271 0.71006 0.87262 0.0
C2327 C 0.80378 0.70202 0.93508 0.0
C2328 C 0.8487 0.74835 0.85472 0.0
C2329 C 0.81972 0.76761 0.94454 0.0
C2330 C 0.84338 0.77616 0.88637 0.0
C2331 C 0.75622 0.62707 0.24378 0.0
C2332 C 0.79005 0.72924 0.05213 0.0
C2333 C 0.85556 0.8617 0.21349 0.0
C2334 C 0.88429 0.85269 0.21066 0.0
C2335 C 0.74848 0.67895 0.32772 0.0
C2336 C 0.67603 0.5735 0.41986 0.0
C2337 C 0.71137 0.58869 0.44959 0.0
C2338 C 0.71181 0.59594 0.51942 0.0
C2339 C 0.67941 0.57311 0.5596 0.0
C2340 C 0.64452 0.54847 0.45694 0.0
C2341 C 0.64849 0.54495 0.52863 0.0
C2342 C 0.69851 0.70606 0.32628 0.0
C2343 C 0.67005 0.58631 0.35554 0.0
H2344 H 0.78532 0.67311 0.95038 0.0
H2345 H 0.87056 0.75753 0.81666 0.0
H2346 H 0.81808 0.7904 0.96981 0.0
H2347 H 0.85948 0.80519 0.86807 0.0
H2348 H 0.73616 0.60798 0.42164 0.0
H2349 H 0.67271 0.5825 0.60635 0.0
H2350 H 0.61734 0.53526 0.43114 0.0
H2351 H 0.62532 0.52857 0.56297 0.0
Tb2352 Tb 0.17209 0.03382 0.17257 0.0
C2353 C 0.32229 0.02954 0.27338 0.0
C2354 C 0.30596 -0.04324 0.29321 0.0
C2355 C 0.36804 0.01574 0.31472 0.0
C2356 C 0.29574 -0.00774 0.27279 0.0
C2357 C 0.35846 0.04176 0.29406 0.0
C2358 C 0.34487 -0.02227 0.3006 0.0
C2359 C 0.37742 0.10188 0.23804 0.0
N2360 N 0.31292 0.0529 0.23914 0.0
C2361 C 0.3404 0.08851 0.21867 0.0
C2362 C 0.38628 0.0781 0.27553 0.0
Tb2363 Tb 0.24983 0.03345 0.25024 0.0
N2364 N 0.26834 -0.01287 0.21017 0.0
C2365 C 0.24177 0.93383 0.13807 0.0
C2366 C 0.28475 0.9099 0.24821 0.0
C2367 C 0.25263 0.89813 0.16862 0.0
H2368 H 0.33268 0.1072 0.19418 0.0
H2369 H 0.26836 0.89886 0.20839 0.0
H2370 H 0.36002 -0.02539 0.25933 0.0
H2371 H 0.39941 0.12999 0.2231 0.0
H2372 H 0.22335 0.92719 0.09301 0.0
H2373 H 0.1176 0.1261 0.16641 0.0
H2374 H 0.29175 0.88916 0.27852 0.0
H2375 H 0.12542 0.94768 0.15712 0.0
H2376 H 0.1653 0.10988 0.20164 0.0
H2377 H 0.06166 0.88983 0.17894 0.0
H2378 H 0.39738 0.02511 0.31083 0.0
H2379 H 0.05018 0.07979 0.1779 0.0
H2380 H 0.00082 0.01355 0.20831 0.0
H2381 H 0.41569 0.08794 0.28661 0.0
H2382 H -0.01501 0.94674 0.21397 0.0
N2383 N 0.12852 0.05284 0.20438 0.0
C2384 C 0.13704 0.08897 0.1984 0.0
C2385 C 0.07135 0.07202 0.18964 0.0
C2386 C 0.06155 0.03532 0.20503 0.0
C2387 C 0.1093 0.0981 0.18222 0.0
C2388 C 0.0909 0.0263 0.20685 0.0
H2389 H 0.00734 0.90045 0.19892 0.0
N2390 N 0.11087 -0.01606 0.19088 0.0
C2391 C 0.06639 0.91759 0.18908 0.0
C2392 C 0.08192 -0.00985 0.2033 0.0
C2393 C 0.10252 0.94864 0.17858 0.0
C2394 C 0.03621 0.92366 0.20061 0.0
C2395 C 0.0437 -0.03941 0.20689 0.0
O2396 O 0.14668 0.00528 0.07559 0.0
O2397 O 0.23195 0.04783 0.13856 0.0
O2398 O 0.26595 0.08865 0.2122 0.0
O2399 O 0.21137 0.09009 0.22906 0.0
O2400 O 0.20742 0.05818 0.06837 0.0
O2401 O 0.16052 0.06396 0.09777 0.0
O2402 O 0.29067 0.07894 0.30231 0.0
O2403 O 0.19571 0.0308 0.26577 0.0
O2404 O 0.15404 -0.01952 0.27046 0.0
O2405 O 0.20788 -0.0154 0.32048 0.0
O2406 O 0.23046 0.05303 0.34447 0.0
O2407 O 0.26232 0.02401 0.35289 0.0
C2408 C 0.24086 0.06125 0.06789 0.0
C2409 C 0.14461 0.04602 0.9743 0.0
C2410 C 0.16607 0.0925 0.87239 0.0
C2411 C 0.17412 0.07722 0.93482 0.0
C2412 C 0.12779 0.07578 0.85438 0.0
C2413 C 0.10858 0.02746 0.94401 0.0
C2414 C 0.10002 0.04259 0.88588 0.0
C2415 C 0.24901 0.10462 0.2436 0.0
C2416 C 0.14689 0.03622 0.05179 0.0
C2417 C 0.01443 -0.03096 0.21202 0.0
C2418 C 0.02339 0.00678 0.20947 0.0
C2419 C 0.19715 0.04501 0.32747 0.0
C2420 C 0.30238 0.07797 0.41991 0.0
C2421 C 0.28715 0.09807 0.44962 0.0
C2422 C 0.27985 0.09121 0.51941 0.0
C2423 C 0.30264 0.0816 0.55966 0.0
C2424 C 0.32732 0.07141 0.45709 0.0
C2425 C 0.3308 0.07886 0.52879 0.0
C2426 C 0.17009 -0.03207 0.32615 0.0
C2427 C 0.28971 0.05921 0.35553 0.0
H2428 H 0.20304 0.08771 0.9502 0.0
H2429 H 0.11861 0.08848 0.81634 0.0
H2430 H 0.08579 0.00297 0.96912 0.0
H2431 H 0.071 0.02962 0.8675 0.0
H2432 H 0.2679 0.10362 0.42162 0.0
H2433 H 0.29318 0.0654 0.60626 0.0
H2434 H 0.34044 0.05736 0.43127 0.0
H2435 H 0.3472 0.07211 0.56323 0.0
Tb2436 Tb 0.84285 0.11408 0.17187 0.0
C2437 C 0.84674 0.26813 0.27288 0.0
C2438 C 0.91942 0.32477 0.29317 0.0
C2439 C 0.86026 0.32752 0.31469 0.0
C2440 C 0.88409 0.279 0.27242 0.0
C2441 C 0.83435 0.2919 0.2938 0.0
C2442 C 0.89829 0.34254 0.30069 0.0
C2443 C 0.77423 0.25058 0.23779 0.0
N2444 N 0.82347 0.23542 0.23846 0.0
C2445 C 0.7878 0.22718 0.21792 0.0
C2446 C 0.79796 0.28325 0.27532 0.0
Tb2447 Tb 0.84343 0.19219 0.24952 0.0
N2448 N 0.88945 0.25694 0.2097 0.0
C2449 C -0.05719 0.28407 0.13786 0.0
C2450 C -0.03369 0.35072 0.24842 0.0
C2451 C -0.0217 0.33066 0.16876 0.0
H2452 H 0.76915 0.20083 0.19314 0.0
H2453 H -0.02257 0.34551 0.2086 0.0
H2454 H 0.9013 0.36083 0.25953 0.0
H2455 H 0.74606 0.24433 0.223 0.0
H2456 H -0.05044 0.27247 0.0927 0.0
H2457 H 0.74903 -0.03202 0.16764 0.0
H2458 H -0.01304 0.37842 0.27898 0.0
H2459 H -0.07096 0.15261 0.15655 0.0
H2460 H 0.76616 0.03215 0.20257 0.0
H2461 H -0.01378 0.1458 0.17803 0.0
H2462 H 0.85077 0.3474 0.31088 0.0
H2463 H 0.79459 0.94593 0.17881 0.0
H2464 H 0.86053 -0.03818 0.2099 0.0
H2465 H 0.78802 0.30273 0.28655 0.0
H2466 H -0.07235 0.01214 0.21542 0.0
N2467 N 0.82307 0.05158 0.20485 0.0
C2468 C 0.78677 0.02437 0.19939 0.0
C2469 C 0.80278 -0.02503 0.19065 0.0
C2470 C 0.83963 0.00148 0.20605 0.0
C2471 C 0.77713 -0.01262 0.1832 0.0
C2472 C 0.84922 0.04 0.20751 0.0
H2473 H -0.02524 0.08064 0.19981 0.0
N2474 N 0.89224 0.10211 0.19094 0.0
C2475 C -0.04162 0.12307 0.18878 0.0
C2476 C 0.88552 0.06681 0.20375 0.0
C2477 C -0.07232 0.12869 0.17846 0.0
C2478 C -0.0482 0.08668 0.20105 0.0
C2479 C 0.91469 0.05761 0.20762 0.0
O2480 O 0.87145 0.11718 0.07509 0.0
O2481 O 0.82914 0.16003 0.13765 0.0
O2482 O 0.78886 0.15416 0.20909 0.0
O2483 O 0.78663 0.09789 0.22687 0.0
O2484 O 0.81792 0.12457 0.068 0.0
O2485 O 0.81296 0.07205 0.09756 0.0
O2486 O 0.79827 0.18795 0.30206 0.0
O2487 O 0.84579 0.14047 0.26524 0.0
O2488 O 0.89604 0.14912 0.26996 0.0
O2489 O 0.89217 0.19901 0.31965 0.0
O2490 O 0.82314 0.15278 0.3432 0.0
O2491 O 0.85308 0.21364 0.35267 0.0
C2492 C 0.81536 0.15523 0.06719 0.0
C2493 C 0.83066 0.07407 0.97418 0.0
C2494 C 0.78387 0.04871 0.87282 0.0
C2495 C 0.79925 0.07216 0.93508 0.0
C2496 C 0.8006 0.02719 0.85477 0.0
C2497 C 0.84919 0.05661 0.9438 0.0
C2498 C 0.8339 0.03275 0.88595 0.0
C2499 C 0.77257 0.12141 0.24048 0.0
C2500 C 0.84065 0.08619 0.05155 0.0
C2501 C 0.90567 0.01972 0.21323 0.0
C2502 C 0.86775 -0.00869 0.21077 0.0
C2503 C 0.83125 0.1275 0.32665 0.0
C2504 C 0.79905 0.19954 0.41976 0.0
C2505 C 0.77867 0.16395 0.44879 0.0
C2506 C 0.78534 0.1633 0.51871 0.0
C2507 C 0.79499 0.19571 0.55915 0.0
C2508 C 0.80513 0.23083 0.45717 0.0
C2509 C 0.79739 0.22658 0.52871 0.0
C2510 C 0.9086 0.17773 0.32562 0.0
C2511 C 0.81799 0.20613 0.35556 0.0
H2512 H 0.7886 0.09042 0.95065 0.0
H2513 H 0.78783 0.0052 0.81697 0.0
H2514 H 0.87378 0.05842 0.96867 0.0
H2515 H 0.84685 0.01669 0.86758 0.0
H2516 H 0.77257 0.13909 0.42024 0.0
H2517 H 0.81109 0.2024 0.60587 0.0
H2518 H 0.81902 0.25809 0.43164 0.0
H2519 H 0.80382 0.24959 0.56339 0.0
Tb2520 Tb 0.24764 0.18981 0.74428 0.0
C2521 C 0.08286 0.06905 0.70157 0.0
C2522 C 0.06207 0.00327 0.70484 0.0
C2523 C 0.01534 0.02291 0.71172 0.0
C2524 C 0.09168 0.04156 0.70522 0.0
C2525 C 0.04471 0.06054 0.70561 0.0
C2526 C 0.02405 -0.00603 0.70993 0.0
C2527 C 0.06744 0.12622 0.68685 0.0
N2528 N 0.1118 0.10431 0.68924 0.0
C2529 C 0.10359 0.13131 0.67639 0.0
C2530 C 0.03729 0.09001 0.6991 0.0
Tb2531 Tb 0.17277 0.11516 0.67482 0.0
N2532 N 0.1292 0.05215 0.70229 0.0
C2533 C 0.13743 0.02435 0.6954 0.0
C2534 C 0.07138 -0.02414 0.6911 0.0
C2535 C 0.10912 -0.01277 0.68236 0.0
H2536 H 0.12653 0.15512 0.65441 0.0
H2537 H 0.11679 -0.03311 0.66762 0.0
H2538 H 0.00132 -0.03533 0.70994 0.0
H2539 H 0.0625 0.14905 0.67561 0.0
H2540 H 0.16574 0.03135 0.69756 0.0
H2541 H 0.26899 0.34488 0.70437 0.0
H2542 H 0.04987 0.94669 0.68196 0.0
H2543 H 0.33167 0.19943 0.69217 0.0
H2544 H 0.22241 0.27123 0.58907 0.0
H2545 H 0.39796 0.24272 0.72401 0.0
H2546 H -0.01404 0.01592 0.71416 0.0
H2547 H 0.29427 0.37834 0.77348 0.0
H2548 H 0.35875 0.35829 0.7554 0.0
H2549 H 0.00843 0.08435 0.69759 0.0
H2550 H 0.39582 0.34579 0.81328 0.0
N2551 N 0.26687 0.25537 0.7063 0.0
C2552 C 0.24106 0.28285 0.63404 0.0
C2553 C 0.28532 0.34984 0.74404 0.0
C2554 C 0.3054 0.32335 0.78909 0.0
C2555 C 0.2529 0.32984 0.66465 0.0
C2556 C 0.29449 0.27746 0.7688 0.0
H2557 H 0.41402 0.30136 0.78654 0.0
N2558 N 0.31143 0.23379 0.73542 0.0
C2559 C 0.37593 0.24888 0.73807 0.0
C2560 C 0.3208 0.2665 0.76981 0.0
C2561 C 0.33919 0.2257 0.71651 0.0
C2562 C 0.38461 0.28148 0.77544 0.0
C2563 C 0.35683 0.29014 0.79239 0.0
O2564 O 0.28887 0.18629 0.79805 0.0
O2565 O 0.193 0.13985 0.76752 0.0
O2566 O 0.15308 0.14905 0.77177 0.0
O2567 O 0.20729 0.19893 0.81701 0.0
O2568 O 0.22928 0.15158 0.84109 0.0
O2569 O 0.25971 0.21215 0.84747 0.0
O2570 O 0.14716 0.11585 0.57634 0.0
O2571 O 0.22877 0.15642 0.62536 0.0
O2572 O 0.26671 0.15222 0.71329 0.0
O2573 O 0.21099 0.09683 0.73094 0.0
O2574 O 0.22877 0.1552 0.61919 0.0
O2575 O 0.16695 0.07583 0.59762 0.0
C2576 C 0.19521 0.12674 0.82792 0.0
C2577 C 0.29977 0.19805 0.91618 0.0
C2578 C 0.27716 0.16263 1.01641 0.0
C2579 C 0.28415 0.16271 0.94659 0.0
C2580 C 0.30044 0.19503 0.05606 0.0
C2581 C 0.32576 0.22931 0.95301 0.0
C2582 C 0.32927 0.22536 1.02492 0.0
C2583 C 0.16953 0.17819 0.82571 0.0
C2584 C 0.28719 0.20445 0.85136 0.0
C2585 C 0.36647 0.32564 0.81393 0.0
C2586 C 0.3439 0.3407 0.79767 0.0
C2587 C 0.23863 0.15057 0.55362 0.0
C2588 C 0.14808 0.07543 0.47468 0.0
C2589 C 0.17715 0.07404 0.43363 0.0
C2590 C 0.16836 0.05074 0.37111 0.0
C2591 C 0.12998 0.02952 0.35384 0.0
C2592 C 0.11188 0.05866 0.44533 0.0
C2593 C 0.10265 0.03523 0.38658 0.0
C2594 C 0.24887 0.11962 0.7444 0.0
C2595 C 0.15157 0.0879 0.55171 0.0
H2596 H 0.26448 0.13776 0.91979 0.0
H2597 H 0.29094 0.20237 0.10193 0.0
H2598 H 0.33975 0.25626 0.92655 0.0
H2599 H 0.3461 0.24837 0.05967 0.0
H2600 H 0.20618 0.09211 0.44874 0.0
H2601 H 0.12042 0.00761 0.31578 0.0
H2602 H 0.08957 0.06069 0.4717 0.0
H2603 H 0.07349 0.01952 0.36886 0.0
Tb2604 Tb 0.68636 0.03278 0.74525 0.0
C2605 C 0.80765 -0.01126 0.70286 0.0
C2606 C 0.87339 0.03384 0.70579 0.0
C2607 C 0.85388 -0.03251 0.71295 0.0
C2608 C 0.83508 0.02508 0.70637 0.0
C2609 C 0.81623 -0.04086 0.70672 0.0
C2610 C 0.88277 0.00518 0.71108 0.0
C2611 C 0.75069 0.91616 0.68654 0.0
N2612 N 0.7724 -0.01764 0.69024 0.0
C2613 C 0.74558 0.94722 0.67651 0.0
C2614 C 0.78685 0.92224 0.6995 0.0
Tb2615 Tb 0.76136 0.03232 0.67563 0.0
N2616 N 0.82442 0.05194 0.70302 0.0
C2617 C 0.85214 0.08797 0.69552 0.0
C2618 C 0.90071 0.07053 0.69147 0.0
C2619 C 0.88926 0.09681 0.68249 0.0
H2620 H 0.72204 0.94643 0.65356 0.0
H2621 H 0.90955 0.1248 0.66751 0.0
H2622 H 0.91208 0.01181 0.71099 0.0
H2623 H 0.72796 0.88848 0.67447 0.0
H2624 H 0.84507 0.10926 0.6971 0.0
H2625 H 0.53069 0.89945 0.70606 0.0
H2626 H -0.07016 0.07818 0.68203 0.0
H2627 H 0.67704 0.10711 0.69128 0.0
H2628 H 0.60419 0.9256 0.59123 0.0
H2629 H 0.63409 0.13069 0.72203 0.0
H2630 H 0.86093 0.94514 0.71529 0.0
H2631 H 0.49739 0.89152 0.77517 0.0
H2632 H 0.51751 -0.02383 0.756 0.0
H2633 H 0.79255 0.89906 0.69778 0.0
H2634 H 0.53065 0.0262 0.81251 0.0
N2635 N 0.62048 -0.01346 0.70745 0.0
C2636 C 0.59268 0.93295 0.63583 0.0
C2637 C 0.52581 0.91101 0.74549 0.0
C2638 C 0.55251 -0.04223 0.78997 0.0
C2639 C 0.54561 0.89814 0.66652 0.0
C2640 C 0.59852 -0.00752 0.76963 0.0
H2641 H 0.57537 0.08868 0.78497 0.0
N2642 N 0.64258 0.05288 0.7359 0.0
C2643 C 0.62774 0.10249 0.73667 0.0
C2644 C 0.60979 0.02982 0.7703 0.0
C2645 C 0.65082 0.08865 0.71599 0.0
C2646 C 0.59509 0.0789 0.77417 0.0
C2647 C 0.58626 0.0425 0.79206 0.0
O2648 O 0.6899 0.07763 0.7986 0.0
O2649 O 0.73647 0.02826 0.76809 0.0
O2650 O 0.72741 -0.02118 0.77237 0.0
O2651 O 0.67761 -0.0166 0.81772 0.0
O2652 O 0.72464 0.0526 0.84191 0.0
O2653 O 0.66419 0.02263 0.84844 0.0
O2654 O 0.76019 0.00639 0.57626 0.0
O2655 O 0.72002 0.04709 0.62737 0.0
O2656 O 0.72414 0.08939 0.714 0.0
O2657 O 0.77959 0.08901 0.73156 0.0
O2658 O 0.72117 0.04813 0.62122 0.0
O2659 O 0.80043 0.06604 0.59816 0.0
C2660 C 0.7495 0.04343 0.82861 0.0
C2661 C 0.6783 0.07686 0.91667 0.0
C2662 C 0.71362 0.08952 1.01689 0.0
C2663 C 0.71365 0.09642 0.94708 0.0
C2664 C 0.68124 0.08067 0.05645 0.0
C2665 C 0.6471 0.07186 0.95333 0.0
C2666 C 0.65108 0.07946 1.02518 0.0
C2667 C 0.69834 -0.03363 0.82633 0.0
C2668 C 0.67182 0.05781 0.85203 0.0
C2669 C 0.55066 0.01686 0.81358 0.0
C2670 C 0.53536 -0.02088 0.79799 0.0
C2671 C 0.72448 0.06106 0.55478 0.0
C2672 C 0.80087 0.04801 0.4747 0.0
C2673 C 0.80225 0.07843 0.43333 0.0
C2674 C 0.82566 0.09306 0.37084 0.0
C2675 C 0.84716 0.07611 0.35426 0.0
C2676 C 0.81784 0.02873 0.44563 0.0
C2677 C 0.84147 0.0431 0.38715 0.0
C2678 C 0.75679 0.10412 0.74496 0.0
C2679 C 0.78804 0.03884 0.55169 0.0
H2680 H 0.73859 0.10165 0.9203 0.0
H2681 H 0.67389 0.06425 0.10294 0.0
H2682 H 0.62013 0.05884 0.92687 0.0
H2683 H 0.62814 0.07353 0.0599 0.0
H2684 H 0.78384 0.08908 0.44791 0.0
H2685 H 0.86925 0.0886 0.31655 0.0
H2686 H 0.81577 0.00437 0.47204 0.0
H2687 H 0.85734 0.02977 0.36975 0.0
Tb2688 Tb 0.84274 0.62841 0.74437 0.0
C2689 C 0.88671 0.79319 0.70192 0.0
C2690 C 0.84164 0.81387 0.70521 0.0
C2691 C 0.90801 0.86069 0.71221 0.0
C2692 C 0.85037 0.78431 0.70555 0.0
C2693 C 0.91632 0.83137 0.70603 0.0
C2694 C 0.87033 0.85192 0.71038 0.0
C2695 C -0.04065 0.80877 0.68699 0.0
N2696 N 0.89308 0.7643 0.68949 0.0
C2697 C -0.07172 0.7726 0.67644 0.0
C2698 C -0.04677 0.83886 0.6995 0.0
Tb2699 Tb 0.84296 0.70328 0.67496 0.0
N2700 N 0.82347 0.74677 0.70253 0.0
C2701 C 0.78742 0.73848 0.69567 0.0
C2702 C 0.8049 0.8045 0.69142 0.0
C2703 C 0.77856 0.76673 0.68266 0.0
H2704 H -0.07083 0.74974 0.65413 0.0
H2705 H 0.7505 0.75899 0.66794 0.0
H2706 H 0.86373 0.87461 0.71041 0.0
H2707 H -0.01286 0.81378 0.67567 0.0
H2708 H 0.76613 0.71016 0.6978 0.0
H2709 H -0.02366 0.60688 0.70445 0.0
H2710 H 0.79721 0.82597 0.68226 0.0
H2711 H 0.7683 0.54441 0.69202 0.0
H2712 H -0.05055 0.65366 0.5894 0.0
H2713 H 0.74519 0.47806 0.72349 0.0
H2714 H -0.06962 0.8901 0.7147 0.0
H2715 H -0.0155 0.58159 0.77352 0.0
H2716 H 0.89981 0.51705 0.75531 0.0
H2717 H -0.02357 0.86775 0.69812 0.0
H2718 H 0.85024 0.48008 0.81323 0.0
N2719 N 0.88904 0.60915 0.70647 0.0
C2720 C -0.05765 0.63495 0.63429 0.0
C2721 C -0.03506 0.59052 0.74406 0.0
C2722 C 0.91836 0.57046 0.78907 0.0
C2723 C -0.02257 0.623 0.66481 0.0
C2724 C 0.88343 0.58145 0.76886 0.0
H2725 H 0.78767 0.46191 0.78607 0.0
N2726 N 0.82285 0.56459 0.73545 0.0
C2727 C 0.7734 0.50007 0.73764 0.0
C2728 C 0.84614 0.55518 0.76983 0.0
C2729 C 0.78701 0.53685 0.71632 0.0
C2730 C 0.79726 0.49134 0.77504 0.0
C2731 C 0.83368 0.51911 0.79228 0.0
O2732 O 0.79799 0.58714 0.79809 0.0
O2733 O 0.84739 0.68305 0.76763 0.0
O2734 O 0.89658 0.72306 0.77188 0.0
O2735 O 0.89222 0.66885 0.81712 0.0
O2736 O 0.82295 0.64684 0.84124 0.0
O2737 O 0.85302 0.61641 0.84755 0.0
O2738 O 0.86932 0.72887 0.57654 0.0
O2739 O 0.8282 0.64727 0.62544 0.0
O2740 O 0.78607 0.60933 0.71338 0.0
O2741 O 0.78642 0.66505 0.73104 0.0
O2742 O 0.82698 0.64727 0.61928 0.0
O2743 O 0.80949 0.70909 0.59772 0.0
C2744 C 0.83212 0.68089 0.82806 0.0
C2745 C 0.79887 0.57639 0.91628 0.0
C2746 C 0.78613 0.59905 1.01652 0.0
C2747 C 0.77923 0.59209 0.94669 0.0
C2748 C 0.79515 0.57571 0.05614 0.0
C2749 C 0.80399 0.55031 0.9531 0.0
C2750 C 0.79651 0.54681 1.025 0.0
C2751 C 0.90923 0.70661 0.82585 0.0
C2752 C 0.81784 0.58889 0.85144 0.0
C2753 C 0.85949 0.50944 0.8139 0.0
C2754 C 0.89712 0.53195 0.79757 0.0
C2755 C 0.81242 0.63736 0.55373 0.0
C2756 C 0.82803 0.72794 0.47486 0.0
C2757 C 0.79749 0.6989 0.43386 0.0
C2758 C 0.783 0.70772 0.3714 0.0
C2759 C 0.80018 0.74612 0.35426 0.0
C2760 C 0.84753 0.76413 0.44552 0.0
C2761 C 0.83329 0.77341 0.38691 0.0
C2762 C 0.77134 0.62719 0.74452 0.0
C2763 C 0.83697 0.72447 0.55187 0.0
H2764 H 0.774 0.61179 0.91991 0.0
H2765 H 0.81204 0.5852 0.10199 0.0
H2766 H 0.81687 0.53625 0.92662 0.0
H2767 H 0.80262 0.52994 0.05978 0.0
H2768 H 0.78648 0.66986 0.44894 0.0
H2769 H 0.78779 0.75571 0.31637 0.0
H2770 H 0.87196 0.78641 0.47184 0.0
H2771 H 0.84678 0.80258 0.36927 0.0
Tb2772 Tb 0.83356 0.60789 0.30293 0.0
C2773 C 0.70826 0.4401 0.34873 0.0
C2774 C 0.64283 0.42027 0.34713 0.0
C2775 C 0.6614 0.37275 0.33928 0.0
C2776 C 0.68131 0.44939 0.34521 0.0
C2777 C 0.69923 0.40177 0.34496 0.0
C2778 C 0.63285 0.38204 0.34204 0.0
C2779 C 0.76463 0.42378 0.36488 0.0
N2780 N 0.74349 0.46882 0.36178 0.0
C2781 C 0.77007 0.46006 0.3751 0.0
C2782 C 0.72836 0.39389 0.35205 0.0
Tb2783 Tb 0.75534 0.53021 0.3804 0.0
N2784 N 0.69271 0.48706 0.34827 0.0
C2785 C 0.66536 0.49586 0.355 0.0
C2786 C 0.61624 0.43035 0.36348 0.0
C2787 C 0.62848 0.46835 0.37151 0.0
H2788 H 0.79386 0.48264 0.39744 0.0
H2789 H 0.60897 0.47693 0.38722 0.0
H2790 H 0.60342 0.35964 0.34311 0.0
H2791 H 0.78733 0.4187 0.37614 0.0
H2792 H 0.67294 0.52415 0.352 0.0
H2793 H -0.01324 0.62618 0.34511 0.0
H2794 H 0.58726 0.40934 0.37539 0.0
H2795 H 0.84328 0.69077 0.35992 0.0
H2796 H 0.91324 0.58098 0.46002 0.0
H2797 H 0.88713 0.75738 0.32999 0.0
H2798 H 0.65396 0.34323 0.33708 0.0
H2799 H 0.02018 0.64998 0.27564 0.0
H2800 H 0.00181 0.71722 0.29453 0.0
H2801 H 0.72241 0.36491 0.35355 0.0
H2802 H -0.01042 0.75493 0.24168 0.0
N2803 N 0.89836 0.62593 0.34278 0.0
C2804 C 0.92506 0.5994 0.41501 0.0
C2805 C -0.00783 0.64258 0.30535 0.0
C2806 C -0.03354 0.66364 0.26014 0.0
C2807 C -0.0283 0.61037 0.38475 0.0
C2808 C 0.9207 0.65339 0.28031 0.0
H2809 H -0.05489 0.77333 0.2658 0.0
N2810 N 0.8775 0.67082 0.31436 0.0
C2811 C 0.89308 0.7353 0.31489 0.0
C2812 C 0.91007 0.68001 0.27978 0.0
C2813 C 0.86955 0.69839 0.33496 0.0
C2814 C 0.9255 0.74397 0.27688 0.0
C2815 C -0.06602 0.7161 0.25861 0.0
O2816 O 0.82895 0.64897 0.25145 0.0
O2817 O 0.78206 0.55377 0.28726 0.0
O2818 O 0.79068 0.51203 0.28292 0.0
O2819 O 0.84039 0.56591 0.2328 0.0
O2820 O 0.79477 0.5885 0.20844 0.0
O2821 O 0.85529 0.6207 0.20018 0.0
O2822 O 0.75884 0.50508 0.47748 0.0
O2823 O 0.80121 0.59004 0.41451 0.0
O2824 O 0.79451 0.62406 0.34091 0.0
O2825 O 0.73845 0.56953 0.32377 0.0
O2826 O 0.76602 0.56564 0.48435 0.0
O2827 O 0.71373 0.51847 0.4555 0.0
C2828 C 0.76938 0.55525 0.22549 0.0
C2829 C 0.8416 0.66113 0.13388 0.0
C2830 C 0.80613 0.63832 1.03402 0.0
C2831 C 0.80631 0.64547 0.10382 0.0
C2832 C 0.83855 0.66129 0.99405 0.0
C2833 C 0.87308 0.68643 0.09691 0.0
C2834 C 0.86919 0.68982 1.02513 0.0
C2835 C 0.81924 0.52811 0.22713 0.0
C2836 C 0.84767 0.64821 0.19805 0.0
C2837 C -0.03047 0.72559 0.23775 0.0
C2838 C -0.01565 0.70244 0.25201 0.0
C2839 C 0.79654 0.59898 0.48508 0.0
C2840 C 0.71601 0.50284 0.57895 0.0
C2841 C 0.71427 0.53234 0.6184 0.0
C2842 C 0.69089 0.52428 0.68077 0.0
C2843 C 0.66933 0.48599 0.6987 0.0
C2844 C 0.69853 0.46681 0.60918 0.0
C2845 C 0.67479 0.45823 0.66725 0.0
C2846 C 0.76162 0.60715 0.30936 0.0
C2847 C 0.72804 0.50507 0.50143 0.0
H2848 H 0.78154 0.62598 0.13159 0.0
H2849 H 0.84537 0.65198 0.94726 0.0
H2850 H 0.90025 0.69981 0.1228 0.0
H2851 H 0.89238 0.70634 0.99091 0.0
H2852 H 0.73268 0.56127 0.60308 0.0
H2853 H 0.6474 0.47679 0.73664 0.0
H2854 H 0.70029 0.44405 0.58404 0.0
H2855 H 0.65874 0.42921 0.68558 0.0
Tb2856 Tb 0.26806 0.20108 0.30278 0.0
C2857 C 0.43583 0.24366 0.3492 0.0
C2858 C 0.45564 0.19804 0.34754 0.0
C2859 C 0.50317 0.26416 0.34002 0.0
C2860 C 0.42653 0.20741 0.34565 0.0
C2861 C 0.47416 0.27297 0.3455 0.0
C2862 C 0.49387 0.22631 0.34268 0.0
C2863 C 0.45211 0.3164 0.36448 0.0
N2864 N 0.40711 0.25019 0.36191 0.0
C2865 C 0.41582 0.28558 0.37463 0.0
C2866 C 0.48203 0.31 0.35226 0.0
Tb2867 Tb 0.34573 0.20064 0.38043 0.0
N2868 N 0.38886 0.18113 0.34847 0.0
C2869 C 0.38003 0.14496 0.35507 0.0
C2870 C 0.44551 0.1613 0.36352 0.0
C2871 C 0.40751 0.13554 0.3715 0.0
H2872 H 0.39315 0.28684 0.39637 0.0
H2873 H 0.39887 0.10741 0.38713 0.0
H2874 H 0.51625 0.21927 0.34377 0.0
H2875 H 0.45713 0.3442 0.37535 0.0
H2876 H 0.35175 0.12426 0.35208 0.0
H2877 H 0.24992 0.33605 0.34527 0.0
H2878 H 0.46649 0.15325 0.37515 0.0
H2879 H 0.18513 0.12785 0.35936 0.0
H2880 H 0.29491 0.30747 0.46021 0.0
H2881 H 0.11856 0.10515 0.32942 0.0
H2882 H 0.53269 0.28625 0.33791 0.0
H2883 H 0.22618 0.34577 0.27577 0.0
H2884 H 0.15887 0.26022 0.29446 0.0
H2885 H 0.511 0.33304 0.35381 0.0
H2886 H 0.12108 0.21022 0.24174 0.0
N2887 N 0.24998 0.24779 0.3427 0.0
C2888 C 0.27655 0.30097 0.41513 0.0
C2889 C 0.23353 0.3251 0.30543 0.0
C2890 C 0.21242 0.27835 0.26006 0.0
C2891 C 0.26568 0.33673 0.38495 0.0
C2892 C 0.22259 0.24277 0.28015 0.0
H2893 H 0.10263 0.14725 0.26536 0.0
N2894 N 0.20514 0.1821 0.31398 0.0
C2895 C 0.14065 0.1332 0.31437 0.0
C2896 C 0.19597 0.20552 0.27943 0.0
C2897 C 0.17754 0.14655 0.33446 0.0
C2898 C 0.13199 0.157 0.27647 0.0
C2899 C 0.15987 0.19337 0.25834 0.0
O2900 O 0.22704 0.15537 0.25126 0.0
O2901 O 0.32221 0.20378 0.2872 0.0
O2902 O 0.36383 0.25412 0.28282 0.0
O2903 O 0.30997 0.24993 0.23266 0.0
O2904 O 0.28749 0.18171 0.20835 0.0
O2905 O 0.25528 0.21002 0.20003 0.0
O2906 O 0.37095 0.22932 0.47748 0.0
O2907 O 0.28588 0.18657 0.41441 0.0
O2908 O 0.25191 0.14586 0.34075 0.0
O2909 O 0.30647 0.14441 0.32379 0.0
O2910 O 0.31038 0.17601 0.48446 0.0
O2911 O 0.35744 0.17076 0.45556 0.0
C2912 C 0.32075 0.1896 0.22545 0.0
C2913 C 0.215 0.1559 0.13362 0.0
C2914 C 0.23789 0.14333 1.03378 0.0
C2915 C 0.23068 0.1363 0.10356 0.0
C2916 C 0.21498 0.15285 0.99376 0.0
C2917 C 0.18985 0.16224 0.09656 0.0
C2918 C 0.18651 0.15504 1.02476 0.0
C2919 C 0.34776 0.26661 0.22703 0.0
C2920 C 0.22783 0.17486 0.19784 0.0
C2921 C 0.15041 0.2195 0.23773 0.0
C2922 C 0.17361 0.25747 0.25199 0.0
C2923 C 0.277 0.17304 0.48502 0.0
C2924 C 0.37311 0.18869 0.57903 0.0
C2925 C 0.34361 0.15738 0.61835 0.0
C2926 C 0.35169 0.14206 0.68071 0.0
C2927 C 0.38996 0.15882 0.69872 0.0
C2928 C 0.40909 0.20731 0.60949 0.0
C2929 C 0.41769 0.19212 0.66748 0.0
C2930 C 0.26886 0.12991 0.30926 0.0
C2931 C 0.37092 0.1985 0.50147 0.0
H2932 H 0.25014 0.13098 0.13136 0.0
H2933 H 0.22434 0.16903 0.94706 0.0
H2934 H 0.17657 0.17611 0.12248 0.0
H2935 H 0.17003 0.16175 0.99048 0.0
H2936 H 0.3147 0.14682 0.60294 0.0
H2937 H 0.39917 0.14606 0.73659 0.0
H2938 H 0.43185 0.23191 0.58459 0.0
H2939 H 0.4467 0.20513 0.68589 0.0
Tb2940 Tb 0.67535 0.04428 0.30631 0.0
C2941 C 0.63252 0.16693 0.34755 0.0
C2942 C 0.67835 0.23243 0.34644 0.0
C2943 C 0.6123 0.21401 0.33869 0.0
C2944 C 0.66894 0.19393 0.34441 0.0
C2945 C 0.60334 0.17614 0.34429 0.0
C2946 C 0.65016 0.24247 0.34128 0.0
C2947 C 0.55972 0.11081 0.36477 0.0
N2948 N 0.62568 0.13152 0.3601 0.0
C2949 C 0.59046 0.10513 0.3742 0.0
C2950 C 0.56629 0.14715 0.35193 0.0
Tb2951 Tb 0.67499 0.11941 0.37536 0.0
N2952 N 0.69527 0.18261 0.34779 0.0
C2953 C 0.73136 0.20986 0.356 0.0
C2954 C 0.71505 0.25905 0.36276 0.0
C2955 C 0.74076 0.24681 0.37148 0.0
H2956 H 0.5894 0.08138 0.39644 0.0
H2957 H 0.76889 0.26636 0.38713 0.0
H2958 H 0.65728 0.27193 0.34237 0.0
H2959 H 0.53195 0.0883 0.37662 0.0
H2960 H 0.75216 0.20241 0.35355 0.0
H2961 H 0.54016 0.88958 0.34563 0.0
H2962 H 0.72308 0.28809 0.37424 0.0
H2963 H 0.74804 0.03368 0.36119 0.0
H2964 H 0.56825 -0.03713 0.46111 0.0
H2965 H 0.77091 -0.00997 0.33116 0.0
H2966 H 0.59028 0.22154 0.33672 0.0
H2967 H 0.53071 0.85626 0.27602 0.0
H2968 H 0.61624 0.87481 0.29395 0.0
H2969 H 0.54339 0.15327 0.354 0.0
H2970 H 0.6664 0.8877 0.24118 0.0
N2971 N 0.62805 -0.02157 0.34353 0.0
C2972 C 0.5748 -0.04872 0.41574 0.0
C2973 C 0.55122 0.8843 0.30581 0.0
C2974 C 0.59797 0.91029 0.26058 0.0
C2975 C 0.53933 0.90456 0.38535 0.0
C2976 C 0.63333 -0.04381 0.281 0.0
H2977 H 0.7289 0.93192 0.26709 0.0
N2978 N 0.69383 -0.00047 0.31614 0.0
C2979 C 0.74284 -0.01601 0.31621 0.0
C2980 C 0.67055 -0.03309 0.28115 0.0
C2981 C 0.72941 0.00747 0.33627 0.0
C2982 C 0.71911 -0.04848 0.27831 0.0
C2983 C 0.68284 0.9431 0.25972 0.0
O2984 O 0.72064 0.04836 0.25349 0.0
O2985 O 0.67059 0.09403 0.28323 0.0
O2986 O 0.62137 0.08528 0.27916 0.0
O2987 O 0.62594 0.03536 0.23389 0.0
O2988 O 0.69522 0.08202 0.20941 0.0
O2989 O 0.66531 0.0215 0.20383 0.0
O2990 O 0.64857 0.11773 0.47457 0.0
O2991 O 0.68996 0.07808 0.42365 0.0
O2992 O 0.73259 0.0831 0.33561 0.0
O2993 O 0.7317 0.13838 0.31891 0.0
O2994 O 0.69096 0.07917 0.42964 0.0
O2995 O 0.7081 0.1584 0.45334 0.0
C2996 C 0.68585 0.10672 0.22272 0.0
C2997 C 0.71904 0.03452 0.13566 0.0
C2998 C 0.73307 0.06976 1.03497 0.0
C2999 C 0.73952 0.06962 0.10494 0.0
C3000 C 0.72372 0.03725 0.99556 0.0
C3001 C 0.71264 0.00274 0.09933 0.0
C3002 C 0.72032 0.00633 1.02762 0.0
C3003 C 0.60878 0.05597 0.22563 0.0
C3004 C 0.70056 0.02936 0.20059 0.0
C3005 C 0.65695 0.90764 0.23775 0.0
C3006 C 0.61893 0.89251 0.25189 0.0
C3007 C 0.70363 0.08222 0.49632 0.0
C3008 C 0.6897 0.159 0.57611 0.0
C3009 C 0.72011 0.16053 0.61752 0.0
C3010 C 0.73479 0.18417 0.67963 0.0
C3011 C 0.71769 0.20552 0.69633 0.0
C3012 C 0.67049 0.17614 0.60475 0.0
C3013 C 0.6847 0.19976 0.6633 0.0
C3014 C 0.74732 0.11611 0.30518 0.0
C3015 C 0.68075 0.14593 0.49931 0.0
H3016 H 0.74481 0.09464 0.13147 0.0
H3017 H 0.70828 0.03061 0.94804 0.0
H3018 H 0.69894 -0.02429 0.12556 0.0
H3019 H 0.71352 -0.01699 0.99361 0.0
H3020 H 0.7305 0.14185 0.60346 0.0
H3021 H 0.72996 0.22748 0.73438 0.0
H3022 H 0.64623 0.1741 0.57812 0.0
H3023 H 0.67127 0.21555 0.68065 0.0
loop_
_geom_bond_atom_site_label_1
_geom_bond_atom_site_label_2
_geom_bond_distance
_geom_bond_site_symmetry_2
_ccdc_geom_bond_type
Tb0 N31 2.660 . S
Tb0 N38 2.600 . S
Tb0 O44 2.546 . S
Tb0 O45 2.610 . S
Tb0 O47 2.320 . S
Tb0 O48 2.552 . S
Tb0 O49 2.413 . S
Tb0 O51 2.362 . S
Tb0 O52 2.421 . S
Tb0 C64 2.833 . S
C1 C4 1.432 . S
C1 C5 1.414 . S
C1 N8 1.359 . S
C2 C4 1.417 . S
C2 C6 1.432 . S
C2 C14 1.410 . S
C3 C5 1.444 . S
C3 C6 1.317 . S
C3 H26 0.929 . S
C4 C1 1.432 . S
C4 C2 1.417 . S
C4 N12 1.360 . S
C5 C1 1.414 . S
C5 C3 1.444 . S
C5 C10 1.385 . S
C6 C2 1.432 . S
C6 C3 1.317 . S
C6 H18 0.930 . S
C7 C9 1.392 . S
C7 C10 1.370 . S
C7 H19 0.931 . S
N8 C1 1.359 . S
N8 C9 1.327 . S
N8 Tb11 2.600 1_655 S
C9 C7 1.392 . S
C9 N8 1.327 . S
C9 H16 0.930 . S
C10 C5 1.385 . S
C10 C7 1.370 . S
C10 H29 0.930 . S
Tb11 N8 2.600 1_455 S
Tb11 N12 2.660 1_455 S
Tb11 O45 2.362 . S
Tb11 O46 2.421 . S
Tb11 O50 2.546 1_454 S
Tb11 O51 2.610 . S
Tb11 O53 2.320 . S
Tb11 O54 2.552 1_554 S
Tb11 O55 2.413 1_554 S
Tb11 C75 2.833 1_454 S
N12 C4 1.360 . S
N12 Tb11 2.660 1_655 S
N12 C13 1.305 1_655 S
C13 N12 1.305 1_455 S
C13 C15 1.407 . S
C13 H20 0.930 . S
C14 C2 1.410 . S
C14 C15 1.345 1_655 S
C14 H22 0.930 . S
C15 C13 1.407 . S
C15 C14 1.345 1_455 S
C15 H17 0.930 . S
H16 C9 0.930 . S
H17 C15 0.930 . S
H18 C6 0.930 . S
H19 C7 0.931 . S
H20 C13 0.930 . S
H21 C35 0.930 . S
H22 C14 0.930 . S
H23 C41 0.930 . S
H24 C32 0.930 . S
H25 C39 0.931 . S
H26 C3 0.929 . S
H27 C33 0.930 . S
H28 C66 0.930 . S
H29 C10 0.930 . S
H30 C65 0.929 . S
N31 Tb0 2.660 . S
N31 C32 1.305 . S
N31 C36 1.360 . S
C32 H24 0.930 . S
C32 N31 1.305 . S
C32 C35 1.407 . S
C33 H27 0.930 . S
C33 C34 1.410 . S
C33 C35 1.345 . S
C34 C33 1.410 . S
C34 C36 1.417 . S
C34 C66 1.432 . S
C35 H21 0.930 . S
C35 C32 1.407 . S
C35 C33 1.345 . S
C36 N31 1.360 . S
C36 C34 1.417 . S
C36 C40 1.432 . S
H37 C42 0.930 . S
N38 Tb0 2.600 . S
N38 C40 1.359 . S
N38 C41 1.327 . S
C39 H25 0.931 . S
C39 C41 1.392 . S
C39 C42 1.370 . S
C40 C36 1.432 . S
C40 N38 1.359 . S
C40 C43 1.414 . S
C41 H23 0.930 . S
C41 N38 1.327 . S
C41 C39 1.392 . S
C42 H37 0.930 . S
C42 C39 1.370 . S
C42 C43 1.385 . S
C43 C40 1.414 . S
C43 C42 1.385 . S
C43 C65 1.444 . S
O44 Tb0 2.546 . S
O44 C64 1.251 . S
O45 Tb0 2.610 . S
O45 Tb11 2.362 . S
O45 C56 1.283 . S
O46 Tb11 2.421 . S
O46 C63 1.262 . S
O47 Tb0 2.320 . S
O47 C63 1.260 . S
O48 Tb0 2.552 . S
O48 C56 1.243 . S
O49 Tb0 2.413 . S
O49 C64 1.256 . S
O50 Tb11 2.546 1_656 S
O50 C75 1.251 . S
O51 Tb0 2.362 . S
O51 Tb11 2.610 . S
O51 C67 1.283 . S
O52 Tb0 2.421 . S
O52 C74 1.262 . S
O53 Tb11 2.320 . S
O53 C74 1.260 . S
O54 Tb11 2.552 1_556 S
O54 C67 1.243 1_556 S
O55 Tb11 2.413 1_556 S
O55 C75 1.256 1_455 S
C56 O45 1.283 . S
C56 O48 1.243 . S
C57 C59 1.382 . S
C57 C61 1.393 . S
C57 C64 1.500 . S
C58 C59 1.400 . S
C58 C60 1.384 . S
C59 C57 1.382 . S
C59 C58 1.400 . S
C59 H76 0.930 . S
C60 C58 1.384 . S
C60 C62 1.392 . S
C60 H77 0.931 . S
C61 C57 1.393 . S
C61 C62 1.401 . S
C61 H78 0.930 . S
C62 C60 1.392 . S
C62 C61 1.401 . S
C62 H79 0.930 . S
C63 O46 1.262 . S
C63 O47 1.260 . S
C64 Tb0 2.833 . S
C64 O44 1.251 . S
C64 O49 1.256 . S
C64 C57 1.500 . S
C65 H30 0.929 . S
C65 C43 1.444 . S
C65 C66 1.317 . S
C66 H28 0.930 . S
C66 C34 1.432 . S
C66 C65 1.317 . S
C67 O51 1.283 . S
C67 O54 1.243 1_554 S
C68 C69 1.382 . S
C68 C72 1.393 . S
C68 C75 1.500 . S
C69 C68 1.382 . S
C69 C70 1.400 . S
C69 H80 0.930 1_655 S
C70 C69 1.400 . S
C70 C71 1.384 . S
C71 C70 1.384 . S
C71 C73 1.392 . S
C71 H81 0.931 . S
C72 C68 1.393 . S
C72 C73 1.401 . S
C72 H82 0.930 . S
C73 C71 1.392 . S
C73 C72 1.401 . S
C73 H83 0.930 . S
C74 O52 1.262 . S
C74 O53 1.260 . S
C75 Tb11 2.833 1_656 S
C75 O50 1.251 . S
C75 O55 1.256 1_655 S
C75 C68 1.500 . S
H76 C59 0.930 . S
H77 C60 0.931 . S
H78 C61 0.930 . S
H79 C62 0.930 . S
H80 C69 0.930 1_455 S
H81 C71 0.931 . S
H82 C72 0.930 . S
H83 C73 0.930 . S
Tb84 N115 2.660 . S
Tb84 N122 2.600 . S
Tb84 O128 2.546 . S
Tb84 O129 2.610 . S
Tb84 O131 2.320 . S
Tb84 O132 2.552 . S
Tb84 O133 2.413 . S
Tb84 O135 2.362 . S
Tb84 O136 2.421 . S
Tb84 C148 2.833 . S
C85 C88 1.432 . S
C85 C89 1.414 . S
C85 N92 1.359 . S
C86 C88 1.417 . S
C86 C90 1.432 . S
C86 C98 1.410 . S
C87 C89 1.444 . S
C87 C90 1.317 . S
C87 H110 0.929 . S
C88 C85 1.432 . S
C88 C86 1.417 . S
C88 N96 1.360 . S
C89 C85 1.414 . S
C89 C87 1.444 . S
C89 C94 1.385 . S
C90 C86 1.432 . S
C90 C87 1.317 . S
C90 H102 0.930 . S
C91 C93 1.392 . S
C91 C94 1.370 . S
C91 H103 0.931 . S
N92 C85 1.359 . S
N92 C93 1.327 . S
N92 Tb95 2.600 . S
C93 C91 1.392 . S
C93 N92 1.327 . S
C93 H100 0.930 . S
C94 C89 1.385 . S
C94 C91 1.370 . S
C94 H113 0.930 . S
Tb95 N92 2.600 . S
Tb95 N96 2.660 . S
Tb95 O129 2.362 . S
Tb95 O130 2.421 . S
Tb95 O134 2.546 1_554 S
Tb95 O135 2.610 . S
Tb95 O137 2.320 . S
Tb95 O138 2.552 1_554 S
Tb95 O139 2.413 1_554 S
Tb95 C159 2.833 1_554 S
N96 C88 1.360 . S
N96 Tb95 2.660 . S
N96 C97 1.305 . S
C97 N96 1.305 . S
C97 C99 1.407 . S
C97 H104 0.930 . S
C98 C86 1.410 . S
C98 C99 1.345 . S
C98 H106 0.930 . S
C99 C97 1.407 . S
C99 C98 1.345 . S
C99 H101 0.930 . S
H100 C93 0.930 . S
H101 C99 0.930 . S
H102 C90 0.930 . S
H103 C91 0.931 . S
H104 C97 0.930 . S
H105 C119 0.930 . S
H106 C98 0.930 . S
H107 C125 0.930 . S
H108 C116 0.930 . S
H109 C123 0.931 . S
H110 C87 0.929 . S
H111 C117 0.930 . S
H112 C150 0.930 . S
H113 C94 0.930 . S
H114 C149 0.929 . S
N115 Tb84 2.660 . S
N115 C116 1.305 . S
N115 C120 1.360 . S
C116 H108 0.930 . S
C116 N115 1.305 . S
C116 C119 1.407 . S
C117 H111 0.930 . S
C117 C118 1.410 . S
C117 C119 1.345 . S
C118 C117 1.410 . S
C118 C120 1.417 . S
C118 C150 1.432 . S
C119 H105 0.930 . S
C119 C116 1.407 . S
C119 C117 1.345 . S
C120 N115 1.360 . S
C120 C118 1.417 . S
C120 C124 1.432 . S
H121 C126 0.930 . S
N122 Tb84 2.600 . S
N122 C124 1.359 . S
N122 C125 1.327 . S
C123 H109 0.931 . S
C123 C125 1.392 . S
C123 C126 1.370 . S
C124 C120 1.432 . S
C124 N122 1.359 . S
C124 C127 1.414 . S
C125 H107 0.930 . S
C125 N122 1.327 . S
C125 C123 1.392 . S
C126 H121 0.930 . S
C126 C123 1.370 . S
C126 C127 1.385 . S
C127 C124 1.414 . S
C127 C126 1.385 . S
C127 C149 1.444 . S
O128 Tb84 2.546 . S
O128 C148 1.251 . S
O129 Tb84 2.610 . S
O129 Tb95 2.362 . S
O129 C140 1.283 . S
O130 Tb95 2.421 . S
O130 C147 1.262 . S
O131 Tb84 2.320 . S
O131 C147 1.260 . S
O132 Tb84 2.552 . S
O132 C140 1.243 . S
O133 Tb84 2.413 . S
O133 C148 1.256 . S
O134 Tb95 2.546 1_556 S
O134 C159 1.251 . S
O135 Tb84 2.362 . S
O135 Tb95 2.610 . S
O135 C151 1.283 . S
O136 Tb84 2.421 . S
O136 C158 1.262 . S
O137 Tb95 2.320 . S
O137 C158 1.260 . S
O138 Tb95 2.552 1_556 S
O138 C151 1.243 1_556 S
O139 Tb95 2.413 1_556 S
O139 C159 1.256 . S
C140 O129 1.283 . S
C140 O132 1.243 . S
C141 C143 1.382 . S
C141 C145 1.393 . S
C141 C148 1.500 . S
C142 C143 1.400 . S
C142 C144 1.384 . S
C143 C141 1.382 . S
C143 C142 1.400 . S
C143 H160 0.930 . S
C144 C142 1.384 . S
C144 C146 1.392 . S
C144 H161 0.931 . S
C145 C141 1.393 . S
C145 C146 1.401 . S
C145 H162 0.930 . S
C146 C144 1.392 . S
C146 C145 1.401 . S
C146 H163 0.930 . S
C147 O130 1.262 . S
C147 O131 1.260 . S
C148 Tb84 2.833 . S
C148 O128 1.251 . S
C148 O133 1.256 . S
C148 C141 1.500 . S
C149 H114 0.929 . S
C149 C127 1.444 . S
C149 C150 1.317 . S
C150 H112 0.930 . S
C150 C118 1.432 . S
C150 C149 1.317 . S
C151 O135 1.283 . S
C151 O138 1.243 1_554 S
C152 C153 1.382 . S
C152 C156 1.393 . S
C152 C159 1.500 . S
C153 C152 1.382 . S
C153 C154 1.400 . S
C153 H164 0.930 . S
C154 C153 1.400 . S
C154 C155 1.384 . S
C155 C154 1.384 . S
C155 C157 1.392 . S
C155 H165 0.931 . S
C156 C152 1.393 . S
C156 C157 1.401 . S
C156 H166 0.930 . S
C157 C155 1.392 . S
C157 C156 1.401 . S
C157 H167 0.930 . S
C158 O136 1.262 . S
C158 O137 1.260 . S
C159 Tb95 2.833 1_556 S
C159 O134 1.251 . S
C159 O139 1.256 . S
C159 C152 1.500 . S
H160 C143 0.930 . S
H161 C144 0.931 . S
H162 C145 0.930 . S
H163 C146 0.930 . S
H164 C153 0.930 . S
H165 C155 0.931 . S
H166 C156 0.930 . S
H167 C157 0.930 . S
Tb168 N199 2.660 . S
Tb168 N206 2.600 . S
Tb168 O212 2.546 . S
Tb168 O213 2.610 . S
Tb168 O215 2.320 . S
Tb168 O216 2.552 . S
Tb168 O217 2.413 . S
Tb168 O219 2.362 . S
Tb168 O220 2.421 . S
Tb168 C232 2.833 . S
C169 C172 1.432 . S
C169 C173 1.414 . S
C169 N176 1.359 . S
C170 C172 1.417 . S
C170 C174 1.432 . S
C170 C182 1.410 . S
C171 C173 1.444 . S
C171 C174 1.317 . S
C171 H194 0.929 . S
C172 C169 1.432 . S
C172 C170 1.417 . S
C172 N180 1.360 . S
C173 C169 1.414 . S
C173 C171 1.444 . S
C173 C178 1.385 . S
C174 C170 1.432 . S
C174 C171 1.317 . S
C174 H186 0.930 . S
C175 C177 1.392 . S
C175 C178 1.370 . S
C175 H187 0.931 . S
N176 C169 1.359 . S
N176 C177 1.327 . S
N176 Tb179 2.600 1_545 S
C177 C175 1.392 . S
C177 N176 1.327 . S
C177 H184 0.930 . S
C178 C173 1.385 . S
C178 C175 1.370 . S
C178 H197 0.930 . S
Tb179 N176 2.600 1_565 S
Tb179 N180 2.660 1_565 S
Tb179 O213 2.362 . S
Tb179 O214 2.421 . S
Tb179 O218 2.546 1_564 S
Tb179 O219 2.610 . S
Tb179 O221 2.320 . S
Tb179 O222 2.552 1_554 S
Tb179 O223 2.413 1_554 S
Tb179 C243 2.833 1_564 S
N180 C172 1.360 . S
N180 Tb179 2.660 1_545 S
N180 C181 1.305 1_545 S
C181 N180 1.305 1_565 S
C181 C183 1.407 . S
C181 H188 0.930 . S
C182 C170 1.410 . S
C182 C183 1.345 1_545 S
C182 H190 0.930 . S
C183 C181 1.407 . S
C183 C182 1.345 1_565 S
C183 H185 0.930 . S
H184 C177 0.930 . S
H185 C183 0.930 . S
H186 C174 0.930 . S
H187 C175 0.931 . S
H188 C181 0.930 . S
H189 C203 0.930 . S
H190 C182 0.930 . S
H191 C209 0.930 . S
H192 C200 0.930 . S
H193 C207 0.931 . S
H194 C171 0.929 . S
H195 C201 0.930 . S
H196 C234 0.930 . S
H197 C178 0.930 . S
H198 C233 0.929 . S
N199 Tb168 2.660 . S
N199 C200 1.305 . S
N199 C204 1.360 . S
C200 H192 0.930 . S
C200 N199 1.305 . S
C200 C203 1.407 . S
C201 H195 0.930 . S
C201 C202 1.410 . S
C201 C203 1.345 . S
C202 C201 1.410 . S
C202 C204 1.417 . S
C202 C234 1.432 . S
C203 H189 0.930 . S
C203 C200 1.407 . S
C203 C201 1.345 . S
C204 N199 1.360 . S
C204 C202 1.417 . S
C204 C208 1.432 . S
H205 C210 0.930 . S
N206 Tb168 2.600 . S
N206 C208 1.359 . S
N206 C209 1.327 . S
C207 H193 0.931 . S
C207 C209 1.392 . S
C207 C210 1.370 . S
C208 C204 1.432 . S
C208 N206 1.359 . S
C208 C211 1.414 . S
C209 H191 0.930 . S
C209 N206 1.327 . S
C209 C207 1.392 . S
C210 H205 0.930 . S
C210 C207 1.370 . S
C210 C211 1.385 . S
C211 C208 1.414 . S
C211 C210 1.385 . S
C211 C233 1.444 . S
O212 Tb168 2.546 . S
O212 C232 1.251 . S
O213 Tb168 2.610 . S
O213 Tb179 2.362 . S
O213 C224 1.283 . S
O214 Tb179 2.421 . S
O214 C231 1.262 . S
O215 Tb168 2.320 . S
O215 C231 1.260 . S
O216 Tb168 2.552 . S
O216 C224 1.243 . S
O217 Tb168 2.413 . S
O217 C232 1.256 . S
O218 Tb179 2.546 1_546 S
O218 C243 1.251 . S
O219 Tb168 2.362 . S
O219 Tb179 2.610 . S
O219 C235 1.283 . S
O220 Tb168 2.421 . S
O220 C242 1.262 . S
O221 Tb179 2.320 . S
O221 C242 1.260 . S
O222 Tb179 2.552 1_556 S
O222 C235 1.243 1_556 S
O223 Tb179 2.413 1_556 S
O223 C243 1.256 1_565 S
C224 O213 1.283 . S
C224 O216 1.243 . S
C225 C227 1.382 . S
C225 C229 1.393 . S
C225 C232 1.500 . S
C226 C227 1.400 . S
C226 C228 1.384 . S
C227 C225 1.382 . S
C227 C226 1.400 . S
C227 H244 0.930 . S
C228 C226 1.384 . S
C228 C230 1.392 . S
C228 H245 0.931 . S
C229 C225 1.393 . S
C229 C230 1.401 . S
C229 H246 0.930 . S
C230 C228 1.392 . S
C230 C229 1.401 . S
C230 H247 0.930 . S
C231 O214 1.262 . S
C231 O215 1.260 . S
C232 Tb168 2.833 . S
C232 O212 1.251 . S
C232 O217 1.256 . S
C232 C225 1.500 . S
C233 H198 0.929 . S
C233 C211 1.444 . S
C233 C234 1.317 . S
C234 H196 0.930 . S
C234 C202 1.432 . S
C234 C233 1.317 . S
C235 O219 1.283 . S
C235 O222 1.243 1_554 S
C236 C237 1.382 . S
C236 C240 1.393 . S
C236 C243 1.500 . S
C237 C236 1.382 . S
C237 C238 1.400 . S
C237 H248 0.930 1_545 S
C238 C237 1.400 . S
C238 C239 1.384 . S
C239 C238 1.384 . S
C239 C241 1.392 . S
C239 H249 0.931 . S
C240 C236 1.393 . S
C240 C241 1.401 . S
C240 H250 0.930 . S
C241 C239 1.392 . S
C241 C240 1.401 . S
C241 H251 0.930 . S
C242 O220 1.262 . S
C242 O221 1.260 . S
C243 Tb179 2.833 1_546 S
C243 O218 1.251 . S
C243 O223 1.256 1_545 S
C243 C236 1.500 . S
H244 C227 0.930 . S
H245 C228 0.931 . S
H246 C229 0.930 . S
H247 C230 0.930 . S
H248 C237 0.930 1_565 S
H249 C239 0.931 . S
H250 C240 0.930 . S
H251 C241 0.930 . S
Tb252 N283 2.660 . S
Tb252 N290 2.600 . S
Tb252 O296 2.546 . S
Tb252 O297 2.610 . S
Tb252 O299 2.320 . S
Tb252 O300 2.552 . S
Tb252 O301 2.413 . S
Tb252 O303 2.362 . S
Tb252 O304 2.421 . S
Tb252 C316 2.833 . S
C253 C256 1.432 . S
C253 C257 1.414 . S
C253 N260 1.359 . S
C254 C256 1.417 . S
C254 C258 1.432 . S
C254 C266 1.410 . S
C255 C257 1.444 . S
C255 C258 1.317 . S
C255 H278 0.929 . S
C256 C253 1.432 . S
C256 C254 1.417 . S
C256 N264 1.360 . S
C257 C253 1.414 . S
C257 C255 1.444 . S
C257 C262 1.385 . S
C258 C254 1.432 . S
C258 C255 1.317 . S
C258 H270 0.930 . S
C259 C261 1.392 . S
C259 C262 1.370 . S
C259 H271 0.931 . S
N260 C253 1.359 . S
N260 C261 1.327 . S
N260 Tb263 2.600 1_565 S
C261 C259 1.392 . S
C261 N260 1.327 . S
C261 H268 0.930 . S
C262 C257 1.385 . S
C262 C259 1.370 . S
C262 H281 0.930 . S
Tb263 N260 2.600 1_545 S
Tb263 N264 2.660 1_545 S
Tb263 O297 2.362 . S
Tb263 O298 2.421 . S
Tb263 O302 2.546 1_545 S
Tb263 O303 2.610 . S
Tb263 O305 2.320 . S
Tb263 O306 2.552 . S
Tb263 O307 2.413 . S
Tb263 C327 2.833 1_545 S
N264 C256 1.360 . S
N264 Tb263 2.660 1_565 S
N264 C265 1.305 1_565 S
C265 N264 1.305 1_545 S
C265 C267 1.407 . S
C265 H272 0.930 . S
C266 C254 1.410 . S
C266 C267 1.345 1_565 S
C266 H274 0.930 . S
C267 C265 1.407 . S
C267 C266 1.345 1_545 S
C267 H269 0.930 . S
H268 C261 0.930 . S
H269 C267 0.930 . S
H270 C258 0.930 . S
H271 C259 0.931 . S
H272 C265 0.930 . S
H273 C287 0.930 . S
H274 C266 0.930 . S
H275 C293 0.930 . S
H276 C284 0.930 . S
H277 C291 0.931 . S
H278 C255 0.929 . S
H279 C285 0.930 . S
H280 C318 0.930 . S
H281 C262 0.930 . S
H282 C317 0.929 . S
N283 Tb252 2.660 . S
N283 C284 1.305 . S
N283 C288 1.360 . S
C284 H276 0.930 . S
C284 N283 1.305 . S
C284 C287 1.407 . S
C285 H279 0.930 . S
C285 C286 1.410 . S
C285 C287 1.345 . S
C286 C285 1.410 . S
C286 C288 1.417 . S
C286 C318 1.432 . S
C287 H273 0.930 . S
C287 C284 1.407 . S
C287 C285 1.345 . S
C288 N283 1.360 . S
C288 C286 1.417 . S
C288 C292 1.432 . S
H289 C294 0.930 . S
N290 Tb252 2.600 . S
N290 C292 1.359 . S
N290 C293 1.327 . S
C291 H277 0.931 . S
C291 C293 1.392 . S
C291 C294 1.370 . S
C292 C288 1.432 . S
C292 N290 1.359 . S
C292 C295 1.414 . S
C293 H275 0.930 . S
C293 N290 1.327 . S
C293 C291 1.392 . S
C294 H289 0.930 . S
C294 C291 1.370 . S
C294 C295 1.385 . S
C295 C292 1.414 . S
C295 C294 1.385 . S
C295 C317 1.444 . S
O296 Tb252 2.546 . S
O296 C316 1.251 . S
O297 Tb252 2.610 . S
O297 Tb263 2.362 . S
O297 C308 1.283 . S
O298 Tb263 2.421 . S
O298 C315 1.262 . S
O299 Tb252 2.320 . S
O299 C315 1.260 . S
O300 Tb252 2.552 . S
O300 C308 1.243 . S
O301 Tb252 2.413 . S
O301 C316 1.256 . S
O302 Tb263 2.546 1_565 S
O302 C327 1.251 . S
O303 Tb252 2.362 . S
O303 Tb263 2.610 . S
O303 C319 1.283 . S
O304 Tb252 2.421 . S
O304 C326 1.262 . S
O305 Tb263 2.320 . S
O305 C326 1.260 . S
O306 Tb263 2.552 . S
O306 C319 1.243 . S
O307 Tb263 2.413 . S
O307 C327 1.256 1_545 S
C308 O297 1.283 . S
C308 O300 1.243 . S
C309 C311 1.382 . S
C309 C313 1.393 . S
C309 C316 1.500 . S
C310 C311 1.400 . S
C310 C312 1.384 . S
C311 C309 1.382 . S
C311 C310 1.400 . S
C311 H328 0.930 . S
C312 C310 1.384 . S
C312 C314 1.392 . S
C312 H329 0.931 . S
C313 C309 1.393 . S
C313 C314 1.401 . S
C313 H330 0.930 . S
C314 C312 1.392 . S
C314 C313 1.401 . S
C314 H331 0.930 . S
C315 O298 1.262 . S
C315 O299 1.260 . S
C316 Tb252 2.833 . S
C316 O296 1.251 . S
C316 O301 1.256 . S
C316 C309 1.500 . S
C317 H282 0.929 . S
C317 C295 1.444 . S
C317 C318 1.317 . S
C318 H280 0.930 . S
C318 C286 1.432 . S
C318 C317 1.317 . S
C319 O303 1.283 . S
C319 O306 1.243 . S
C320 C321 1.382 . S
C320 C324 1.393 . S
C320 C327 1.500 . S
C321 C320 1.382 . S
C321 C322 1.400 . S
C321 H332 0.930 1_565 S
C322 C321 1.400 . S
C322 C323 1.384 . S
C323 C322 1.384 . S
C323 C325 1.392 . S
C323 H333 0.931 . S
C324 C320 1.393 . S
C324 C325 1.401 . S
C324 H334 0.930 . S
C325 C323 1.392 . S
C325 C324 1.401 . S
C325 H335 0.930 . S
C326 O304 1.262 . S
C326 O305 1.260 . S
C327 Tb263 2.833 1_565 S
C327 O302 1.251 . S
C327 O307 1.256 1_565 S
C327 C320 1.500 . S
H328 C311 0.930 . S
H329 C312 0.931 . S
H330 C313 0.930 . S
H331 C314 0.930 . S
H332 C321 0.930 1_545 S
H333 C323 0.931 . S
H334 C324 0.930 . S
H335 C325 0.930 . S
Tb336 N367 2.660 . S
Tb336 N374 2.600 . S
Tb336 O380 2.546 . S
Tb336 O381 2.610 . S
Tb336 O383 2.320 . S
Tb336 O384 2.552 . S
Tb336 O385 2.413 . S
Tb336 O387 2.362 . S
Tb336 O388 2.421 . S
Tb336 C400 2.833 . S
C337 C340 1.432 . S
C337 C341 1.414 . S
C337 N344 1.359 . S
C338 C340 1.417 . S
C338 C342 1.432 . S
C338 C350 1.410 . S
C339 C341 1.444 . S
C339 C342 1.317 . S
C339 H362 0.929 . S
C340 C337 1.432 . S
C340 C338 1.417 . S
C340 N348 1.360 . S
C341 C337 1.414 . S
C341 C339 1.444 . S
C341 C346 1.385 . S
C342 C338 1.432 . S
C342 C339 1.317 . S
C342 H354 0.930 . S
C343 C345 1.392 . S
C343 C346 1.370 . S
C343 H355 0.931 . S
N344 C337 1.359 . S
N344 C345 1.327 . S
N344 Tb347 2.600 1_455 S
C345 C343 1.392 . S
C345 N344 1.327 . S
C345 H352 0.930 . S
C346 C341 1.385 . S
C346 C343 1.370 . S
C346 H365 0.930 . S
Tb347 N344 2.600 1_655 S
Tb347 N348 2.660 1_655 S
Tb347 O381 2.362 . S
Tb347 O382 2.421 . S
Tb347 O386 2.546 1_655 S
Tb347 O387 2.610 . S
Tb347 O389 2.320 . S
Tb347 O390 2.552 . S
Tb347 O391 2.413 . S
Tb347 C411 2.833 1_655 S
N348 C340 1.360 . S
N348 Tb347 2.660 1_455 S
N348 C349 1.305 1_455 S
C349 N348 1.305 1_655 S
C349 C351 1.407 . S
C349 H356 0.930 . S
C350 C338 1.410 . S
C350 C351 1.345 1_455 S
C350 H358 0.930 . S
C351 C349 1.407 . S
C351 C350 1.345 1_655 S
C351 H353 0.930 . S
H352 C345 0.930 . S
H353 C351 0.930 . S
H354 C342 0.930 . S
H355 C343 0.931 . S
H356 C349 0.930 . S
H357 C371 0.930 . S
H358 C350 0.930 . S
H359 C377 0.930 . S
H360 C368 0.930 . S
H361 C375 0.931 . S
H362 C339 0.929 . S
H363 C369 0.930 . S
H364 C402 0.930 . S
H365 C346 0.930 . S
H366 C401 0.929 . S
N367 Tb336 2.660 . S
N367 C368 1.305 . S
N367 C372 1.360 . S
C368 H360 0.930 . S
C368 N367 1.305 . S
C368 C371 1.407 . S
C369 H363 0.930 . S
C369 C370 1.410 . S
C369 C371 1.345 . S
C370 C369 1.410 . S
C370 C372 1.417 . S
C370 C402 1.432 . S
C371 H357 0.930 . S
C371 C368 1.407 . S
C371 C369 1.345 . S
C372 N367 1.360 . S
C372 C370 1.417 . S
C372 C376 1.432 . S
H373 C378 0.930 . S
N374 Tb336 2.600 . S
N374 C376 1.359 . S
N374 C377 1.327 . S
C375 H361 0.931 . S
C375 C377 1.392 . S
C375 C378 1.370 . S
C376 C372 1.432 . S
C376 N374 1.359 . S
C376 C379 1.414 . S
C377 H359 0.930 . S
C377 N374 1.327 . S
C377 C375 1.392 . S
C378 H373 0.930 . S
C378 C375 1.370 . S
C378 C379 1.385 . S
C379 C376 1.414 . S
C379 C378 1.385 . S
C379 C401 1.444 . S
O380 Tb336 2.546 . S
O380 C400 1.251 . S
O381 Tb336 2.610 . S
O381 Tb347 2.362 . S
O381 C392 1.283 . S
O382 Tb347 2.421 . S
O382 C399 1.262 . S
O383 Tb336 2.320 . S
O383 C399 1.260 . S
O384 Tb336 2.552 . S
O384 C392 1.243 . S
O385 Tb336 2.413 . S
O385 C400 1.256 . S
O386 Tb347 2.546 1_455 S
O386 C411 1.251 . S
O387 Tb336 2.362 . S
O387 Tb347 2.610 . S
O387 C403 1.283 . S
O388 Tb336 2.421 . S
O388 C410 1.262 . S
O389 Tb347 2.320 . S
O389 C410 1.260 . S
O390 Tb347 2.552 . S
O390 C403 1.243 . S
O391 Tb347 2.413 . S
O391 C411 1.256 1_655 S
C392 O381 1.283 . S
C392 O384 1.243 . S
C393 C395 1.382 . S
C393 C397 1.393 . S
C393 C400 1.500 . S
C394 C395 1.400 . S
C394 C396 1.384 . S
C395 C393 1.382 . S
C395 C394 1.400 . S
C395 H412 0.930 . S
C396 C394 1.384 . S
C396 C398 1.392 . S
C396 H413 0.931 . S
C397 C393 1.393 . S
C397 C398 1.401 . S
C397 H414 0.930 . S
C398 C396 1.392 . S
C398 C397 1.401 . S
C398 H415 0.930 . S
C399 O382 1.262 . S
C399 O383 1.260 . S
C400 Tb336 2.833 . S
C400 O380 1.251 . S
C400 O385 1.256 . S
C400 C393 1.500 . S
C401 H366 0.929 . S
C401 C379 1.444 . S
C401 C402 1.317 . S
C402 H364 0.930 . S
C402 C370 1.432 . S
C402 C401 1.317 . S
C403 O387 1.283 . S
C403 O390 1.243 . S
C404 C405 1.382 . S
C404 C408 1.393 . S
C404 C411 1.500 . S
C405 C404 1.382 . S
C405 C406 1.400 . S
C405 H416 0.930 1_455 S
C406 C405 1.400 . S
C406 C407 1.384 . S
C407 C406 1.384 . S
C407 C409 1.392 . S
C407 H417 0.931 . S
C408 C404 1.393 . S
C408 C409 1.401 . S
C408 H418 0.930 . S
C409 C407 1.392 . S
C409 C408 1.401 . S
C409 H419 0.930 . S
C410 O388 1.262 . S
C410 O389 1.260 . S
C411 Tb347 2.833 1_455 S
C411 O386 1.251 . S
C411 O391 1.256 1_455 S
C411 C404 1.500 . S
H412 C395 0.930 . S
H413 C396 0.931 . S
H414 C397 0.930 . S
H415 C398 0.930 . S
H416 C405 0.930 1_655 S
H417 C407 0.931 . S
H418 C408 0.930 . S
H419 C409 0.930 . S
Tb420 N451 2.660 . S
Tb420 N458 2.600 . S
Tb420 O464 2.546 . S
Tb420 O465 2.610 . S
Tb420 O467 2.320 . S
Tb420 O468 2.552 . S
Tb420 O469 2.413 . S
Tb420 O471 2.362 . S
Tb420 O472 2.421 . S
Tb420 C484 2.833 . S
C421 C424 1.432 . S
C421 C425 1.414 . S
C421 N428 1.359 . S
C422 C424 1.417 . S
C422 C426 1.432 . S
C422 C434 1.410 . S
C423 C425 1.444 . S
C423 C426 1.317 . S
C423 H446 0.929 . S
C424 C421 1.432 . S
C424 C422 1.417 . S
C424 N432 1.360 . S
C425 C421 1.414 . S
C425 C423 1.444 . S
C425 C430 1.385 . S
C426 C422 1.432 . S
C426 C423 1.317 . S
C426 H438 0.930 . S
C427 C429 1.392 . S
C427 C430 1.370 . S
C427 H439 0.931 . S
N428 C421 1.359 . S
N428 C429 1.327 . S
N428 Tb431 2.600 . S
C429 C427 1.392 . S
C429 N428 1.327 . S
C429 H436 0.930 . S
C430 C425 1.385 . S
C430 C427 1.370 . S
C430 H449 0.930 . S
Tb431 N428 2.600 . S
Tb431 N432 2.660 . S
Tb431 O465 2.362 . S
Tb431 O466 2.421 . S
Tb431 O470 2.546 . S
Tb431 O471 2.610 . S
Tb431 O473 2.320 . S
Tb431 O474 2.552 . S
Tb431 O475 2.413 . S
Tb431 C495 2.833 . S
N432 C424 1.360 . S
N432 Tb431 2.660 . S
N432 C433 1.305 . S
C433 N432 1.305 . S
C433 C435 1.407 . S
C433 H440 0.930 . S
C434 C422 1.410 . S
C434 C435 1.345 . S
C434 H442 0.930 . S
C435 C433 1.407 . S
C435 C434 1.345 . S
C435 H437 0.930 . S
H436 C429 0.930 . S
H437 C435 0.930 . S
H438 C426 0.930 . S
H439 C427 0.931 . S
H440 C433 0.930 . S
H441 C455 0.930 . S
H442 C434 0.930 . S
H443 C461 0.930 . S
H444 C452 0.930 . S
H445 C459 0.931 . S
H446 C423 0.929 . S
H447 C453 0.930 . S
H448 C486 0.930 . S
H449 C430 0.930 . S
H450 C485 0.929 . S
N451 Tb420 2.660 . S
N451 C452 1.305 . S
N451 C456 1.360 . S
C452 H444 0.930 . S
C452 N451 1.305 . S
C452 C455 1.407 . S
C453 H447 0.930 . S
C453 C454 1.410 . S
C453 C455 1.345 . S
C454 C453 1.410 . S
C454 C456 1.417 . S
C454 C486 1.432 . S
C455 H441 0.930 . S
C455 C452 1.407 . S
C455 C453 1.345 . S
C456 N451 1.360 . S
C456 C454 1.417 . S
C456 C460 1.432 . S
H457 C462 0.930 . S
N458 Tb420 2.600 . S
N458 C460 1.359 . S
N458 C461 1.327 . S
C459 H445 0.931 . S
C459 C461 1.392 . S
C459 C462 1.370 . S
C460 C456 1.432 . S
C460 N458 1.359 . S
C460 C463 1.414 . S
C461 H443 0.930 . S
C461 N458 1.327 . S
C461 C459 1.392 . S
C462 H457 0.930 . S
C462 C459 1.370 . S
C462 C463 1.385 . S
C463 C460 1.414 . S
C463 C462 1.385 . S
C463 C485 1.444 . S
O464 Tb420 2.546 . S
O464 C484 1.251 . S
O465 Tb420 2.610 . S
O465 Tb431 2.362 . S
O465 C476 1.283 . S
O466 Tb431 2.421 . S
O466 C483 1.262 . S
O467 Tb420 2.320 . S
O467 C483 1.260 . S
O468 Tb420 2.552 . S
O468 C476 1.243 . S
O469 Tb420 2.413 . S
O469 C484 1.256 . S
O470 Tb431 2.546 . S
O470 C495 1.251 . S
O471 Tb420 2.362 . S
O471 Tb431 2.610 . S
O471 C487 1.283 . S
O472 Tb420 2.421 . S
O472 C494 1.262 . S
O473 Tb431 2.320 . S
O473 C494 1.260 . S
O474 Tb431 2.552 . S
O474 C487 1.243 . S
O475 Tb431 2.413 . S
O475 C495 1.256 . S
C476 O465 1.283 . S
C476 O468 1.243 . S
C477 C479 1.382 . S
C477 C481 1.393 . S
C477 C484 1.500 . S
C478 C479 1.400 . S
C478 C480 1.384 . S
C479 C477 1.382 . S
C479 C478 1.400 . S
C479 H496 0.930 . S
C480 C478 1.384 . S
C480 C482 1.392 . S
C480 H497 0.931 . S
C481 C477 1.393 . S
C481 C482 1.401 . S
C481 H498 0.930 . S
C482 C480 1.392 . S
C482 C481 1.401 . S
C482 H499 0.930 . S
C483 O466 1.262 . S
C483 O467 1.260 . S
C484 Tb420 2.833 . S
C484 O464 1.251 . S
C484 O469 1.256 . S
C484 C477 1.500 . S
C485 H450 0.929 . S
C485 C463 1.444 . S
C485 C486 1.317 . S
C486 H448 0.930 . S
C486 C454 1.432 . S
C486 C485 1.317 . S
C487 O471 1.283 . S
C487 O474 1.243 . S
C488 C489 1.382 . S
C488 C492 1.393 . S
C488 C495 1.500 . S
C489 C488 1.382 . S
C489 C490 1.400 . S
C489 H500 0.930 . S
C490 C489 1.400 . S
C490 C491 1.384 . S
C491 C490 1.384 . S
C491 C493 1.392 . S
C491 H501 0.931 . S
C492 C488 1.393 . S
C492 C493 1.401 . S
C492 H502 0.930 . S
C493 C491 1.392 . S
C493 C492 1.401 . S
C493 H503 0.930 . S
C494 O472 1.262 . S
C494 O473 1.260 . S
C495 Tb431 2.833 . S
C495 O470 1.251 . S
C495 O475 1.256 . S
C495 C488 1.500 . S
H496 C479 0.930 . S
H497 C480 0.931 . S
H498 C481 0.930 . S
H499 C482 0.930 . S
H500 C489 0.930 . S
H501 C491 0.931 . S
H502 C492 0.930 . S
H503 C493 0.930 . S
Tb504 N535 2.660 1_655 S
Tb504 N542 2.600 1_655 S
Tb504 O548 2.546 1_655 S
Tb504 O549 2.610 . S
Tb504 O551 2.320 . S
Tb504 O552 2.552 . S
Tb504 O553 2.413 . S
Tb504 O555 2.362 1_554 S
Tb504 O556 2.421 . S
Tb504 C568 2.833 1_655 S
C505 C508 1.432 . S
C505 C509 1.414 . S
C505 N512 1.359 1_554 S
C506 C508 1.417 . S
C506 C510 1.432 . S
C506 C518 1.410 . S
C507 C509 1.444 . S
C507 C510 1.317 . S
C507 H530 0.929 . S
C508 C505 1.432 . S
C508 C506 1.417 . S
C508 N516 1.360 . S
C509 C505 1.414 . S
C509 C507 1.444 . S
C509 C514 1.385 . S
C510 C506 1.432 . S
C510 C507 1.317 . S
C510 H522 0.930 . S
C511 C513 1.392 . S
C511 C514 1.370 1_556 S
C511 H523 0.931 . S
N512 C505 1.359 1_556 S
N512 C513 1.327 . S
N512 Tb515 2.600 . S
C513 C511 1.392 . S
C513 N512 1.327 . S
C513 H520 0.930 . S
C514 C509 1.385 . S
C514 C511 1.370 1_554 S
C514 H533 0.930 . S
Tb515 N512 2.600 . S
Tb515 N516 2.660 1_556 S
Tb515 O549 2.362 1_556 S
Tb515 O550 2.421 . S
Tb515 O554 2.546 . S
Tb515 O555 2.610 . S
Tb515 O557 2.320 . S
Tb515 O558 2.552 . S
Tb515 O559 2.413 . S
Tb515 C579 2.833 . S
N516 C508 1.360 . S
N516 Tb515 2.660 1_554 S
N516 C517 1.305 . S
C517 N516 1.305 . S
C517 C519 1.407 . S
C517 H524 0.930 . S
C518 C506 1.410 . S
C518 C519 1.345 . S
C518 H526 0.930 . S
C519 C517 1.407 . S
C519 C518 1.345 . S
C519 H521 0.930 . S
H520 C513 0.930 . S
H521 C519 0.930 . S
H522 C510 0.930 . S
H523 C511 0.931 . S
H524 C517 0.930 . S
H525 C539 0.930 . S
H526 C518 0.930 . S
H527 C545 0.930 . S
H528 C536 0.930 . S
H529 C543 0.931 . S
H530 C507 0.929 . S
H531 C537 0.930 . S
H532 C570 0.930 . S
H533 C514 0.930 . S
H534 C569 0.929 . S
N535 Tb504 2.660 1_455 S
N535 C536 1.305 1_454 S
N535 C540 1.360 1_554 S
C536 H528 0.930 . S
C536 N535 1.305 1_656 S
C536 C539 1.407 . S
C537 H531 0.930 . S
C537 C538 1.410 . S
C537 C539 1.345 1_455 S
C538 C537 1.410 . S
C538 C540 1.417 . S
C538 C570 1.432 . S
C539 H525 0.930 . S
C539 C536 1.407 . S
C539 C537 1.345 1_655 S
C540 N535 1.360 1_556 S
C540 C538 1.417 . S
C540 C544 1.432 1_556 S
H541 C546 0.930 1_556 S
N542 Tb504 2.600 1_455 S
N542 C544 1.359 . S
N542 C545 1.327 . S
C543 H529 0.931 . S
C543 C545 1.392 . S
C543 C546 1.370 . S
C544 C540 1.432 1_554 S
C544 N542 1.359 . S
C544 C547 1.414 1_554 S
C545 H527 0.930 . S
C545 N542 1.327 . S
C545 C543 1.392 . S
C546 H541 0.930 1_554 S
C546 C543 1.370 . S
C546 C547 1.385 1_554 S
C547 C544 1.414 1_556 S
C547 C546 1.385 1_556 S
C547 C569 1.444 . S
O548 Tb504 2.546 1_455 S
O548 C568 1.251 . S
O549 Tb504 2.610 . S
O549 Tb515 2.362 1_554 S
O549 C560 1.283 . S
O550 Tb515 2.421 . S
O550 C567 1.262 1_556 S
O551 Tb504 2.320 . S
O551 C567 1.260 . S
O552 Tb504 2.552 . S
O552 C560 1.243 . S
O553 Tb504 2.413 . S
O553 C568 1.256 1_655 S
O554 Tb515 2.546 . S
O554 C579 1.251 . S
O555 Tb504 2.362 1_556 S
O555 Tb515 2.610 . S
O555 C571 1.283 . S
O556 Tb504 2.421 . S
O556 C578 1.262 1_554 S
O557 Tb515 2.320 . S
O557 C578 1.260 . S
O558 Tb515 2.552 . S
O558 C571 1.243 . S
O559 Tb515 2.413 . S
O559 C579 1.256 . S
C560 O549 1.283 . S
C560 O552 1.243 . S
C561 C563 1.382 . S
C561 C565 1.393 . S
C561 C568 1.500 . S
C562 C563 1.400 . S
C562 C564 1.384 . S
C563 C561 1.382 . S
C563 C562 1.400 . S
C563 H580 0.930 1_455 S
C564 C562 1.384 . S
C564 C566 1.392 . S
C564 H581 0.931 . S
C565 C561 1.393 . S
C565 C566 1.401 . S
C565 H582 0.930 . S
C566 C564 1.392 . S
C566 C565 1.401 . S
C566 H583 0.930 . S
C567 O550 1.262 1_554 S
C567 O551 1.260 . S
C568 Tb504 2.833 1_455 S
C568 O548 1.251 . S
C568 O553 1.256 1_455 S
C568 C561 1.500 . S
C569 H534 0.929 . S
C569 C547 1.444 . S
C569 C570 1.317 . S
C570 H532 0.930 . S
C570 C538 1.432 . S
C570 C569 1.317 . S
C571 O555 1.283 . S
C571 O558 1.243 . S
C572 C573 1.382 . S
C572 C576 1.393 . S
C572 C579 1.500 . S
C573 C572 1.382 . S
C573 C574 1.400 . S
C573 H584 0.930 . S
C574 C573 1.400 . S
C574 C575 1.384 . S
C575 C574 1.384 . S
C575 C577 1.392 . S
C575 H585 0.931 . S
C576 C572 1.393 . S
C576 C577 1.401 . S
C576 H586 0.930 . S
C577 C575 1.392 . S
C577 C576 1.401 . S
C577 H587 0.930 . S
C578 O556 1.262 1_556 S
C578 O557 1.260 . S
C579 Tb515 2.833 . S
C579 O554 1.251 . S
C579 O559 1.256 . S
C579 C572 1.500 . S
H580 C563 0.930 1_655 S
H581 C564 0.931 . S
H582 C565 0.930 . S
H583 C566 0.930 . S
H584 C573 0.930 . S
H585 C575 0.931 . S
H586 C576 0.930 . S
H587 C577 0.930 . S
Tb588 N619 2.660 . S
Tb588 N626 2.600 . S
Tb588 O632 2.546 . S
Tb588 O633 2.610 . S
Tb588 O635 2.320 . S
Tb588 O636 2.552 . S
Tb588 O637 2.413 . S
Tb588 O639 2.362 1_554 S
Tb588 O640 2.421 . S
Tb588 C652 2.833 . S
C589 C592 1.432 . S
C589 C593 1.414 . S
C589 N596 1.359 1_554 S
C590 C592 1.417 . S
C590 C594 1.432 . S
C590 C602 1.410 . S
C591 C593 1.444 . S
C591 C594 1.317 . S
C591 H614 0.929 . S
C592 C589 1.432 . S
C592 C590 1.417 . S
C592 N600 1.360 . S
C593 C589 1.414 . S
C593 C591 1.444 . S
C593 C598 1.385 . S
C594 C590 1.432 . S
C594 C591 1.317 . S
C594 H606 0.930 . S
C595 C597 1.392 . S
C595 C598 1.370 1_556 S
C595 H607 0.931 . S
N596 C589 1.359 1_556 S
N596 C597 1.327 . S
N596 Tb599 2.600 . S
C597 C595 1.392 . S
C597 N596 1.327 . S
C597 H604 0.930 . S
C598 C593 1.385 . S
C598 C595 1.370 1_554 S
C598 H617 0.930 . S
Tb599 N596 2.600 . S
Tb599 N600 2.660 1_556 S
Tb599 O633 2.362 1_556 S
Tb599 O634 2.421 . S
Tb599 O638 2.546 . S
Tb599 O639 2.610 . S
Tb599 O641 2.320 . S
Tb599 O642 2.552 . S
Tb599 O643 2.413 . S
Tb599 C663 2.833 . S
N600 C592 1.360 . S
N600 Tb599 2.660 1_554 S
N600 C601 1.305 . S
C601 N600 1.305 . S
C601 C603 1.407 . S
C601 H608 0.930 . S
C602 C590 1.410 . S
C602 C603 1.345 . S
C602 H610 0.930 . S
C603 C601 1.407 . S
C603 C602 1.345 . S
C603 H605 0.930 . S
H604 C597 0.930 . S
H605 C603 0.930 . S
H606 C594 0.930 . S
H607 C595 0.931 . S
H608 C601 0.930 . S
H609 C623 0.930 . S
H610 C602 0.930 . S
H611 C629 0.930 . S
H612 C620 0.930 . S
H613 C627 0.931 . S
H614 C591 0.929 . S
H615 C621 0.930 . S
H616 C654 0.930 . S
H617 C598 0.930 . S
H618 C653 0.929 . S
N619 Tb588 2.660 . S
N619 C620 1.305 1_554 S
N619 C624 1.360 1_554 S
C620 H612 0.930 . S
C620 N619 1.305 1_556 S
C620 C623 1.407 . S
C621 H615 0.930 . S
C621 C622 1.410 . S
C621 C623 1.345 . S
C622 C621 1.410 . S
C622 C624 1.417 . S
C622 C654 1.432 . S
C623 H609 0.930 . S
C623 C620 1.407 . S
C623 C621 1.345 . S
C624 N619 1.360 1_556 S
C624 C622 1.417 . S
C624 C628 1.432 1_556 S
H625 C630 0.930 1_556 S
N626 Tb588 2.600 . S
N626 C628 1.359 . S
N626 C629 1.327 . S
C627 H613 0.931 . S
C627 C629 1.392 . S
C627 C630 1.370 . S
C628 C624 1.432 1_554 S
C628 N626 1.359 . S
C628 C631 1.414 1_554 S
C629 H611 0.930 . S
C629 N626 1.327 . S
C629 C627 1.392 . S
C630 H625 0.930 1_554 S
C630 C627 1.370 . S
C630 C631 1.385 1_554 S
C631 C628 1.414 1_556 S
C631 C630 1.385 1_556 S
C631 C653 1.444 . S
O632 Tb588 2.546 . S
O632 C652 1.251 . S
O633 Tb588 2.610 . S
O633 Tb599 2.362 1_554 S
O633 C644 1.283 . S
O634 Tb599 2.421 . S
O634 C651 1.262 1_556 S
O635 Tb588 2.320 . S
O635 C651 1.260 . S
O636 Tb588 2.552 . S
O636 C644 1.243 . S
O637 Tb588 2.413 . S
O637 C652 1.256 . S
O638 Tb599 2.546 . S
O638 C663 1.251 . S
O639 Tb588 2.362 1_556 S
O639 Tb599 2.610 . S
O639 C655 1.283 . S
O640 Tb588 2.421 . S
O640 C662 1.262 1_554 S
O641 Tb599 2.320 . S
O641 C662 1.260 . S
O642 Tb599 2.552 . S
O642 C655 1.243 . S
O643 Tb599 2.413 . S
O643 C663 1.256 . S
C644 O633 1.283 . S
C644 O636 1.243 . S
C645 C647 1.382 . S
C645 C649 1.393 . S
C645 C652 1.500 . S
C646 C647 1.400 . S
C646 C648 1.384 . S
C647 C645 1.382 . S
C647 C646 1.400 . S
C647 H664 0.930 . S
C648 C646 1.384 . S
C648 C650 1.392 . S
C648 H665 0.931 . S
C649 C645 1.393 . S
C649 C650 1.401 . S
C649 H666 0.930 . S
C650 C648 1.392 . S
C650 C649 1.401 . S
C650 H667 0.930 . S
C651 O634 1.262 1_554 S
C651 O635 1.260 . S
C652 Tb588 2.833 . S
C652 O632 1.251 . S
C652 O637 1.256 . S
C652 C645 1.500 . S
C653 H618 0.929 . S
C653 C631 1.444 . S
C653 C654 1.317 . S
C654 H616 0.930 . S
C654 C622 1.432 . S
C654 C653 1.317 . S
C655 O639 1.283 . S
C655 O642 1.243 . S
C656 C657 1.382 . S
C656 C660 1.393 . S
C656 C663 1.500 . S
C657 C656 1.382 . S
C657 C658 1.400 . S
C657 H668 0.930 . S
C658 C657 1.400 . S
C658 C659 1.384 . S
C659 C658 1.384 . S
C659 C661 1.392 . S
C659 H669 0.931 . S
C660 C656 1.393 . S
C660 C661 1.401 . S
C660 H670 0.930 . S
C661 C659 1.392 . S
C661 C660 1.401 . S
C661 H671 0.930 . S
C662 O640 1.262 1_556 S
C662 O641 1.260 . S
C663 Tb599 2.833 . S
C663 O638 1.251 . S
C663 O643 1.256 . S
C663 C656 1.500 . S
H664 C647 0.930 . S
H665 C648 0.931 . S
H666 C649 0.930 . S
H667 C650 0.930 . S
H668 C657 0.930 . S
H669 C659 0.931 . S
H670 C660 0.930 . S
H671 C661 0.930 . S
Tb672 N703 2.660 1_545 S
Tb672 N710 2.600 1_545 S
Tb672 O716 2.546 1_545 S
Tb672 O717 2.610 . S
Tb672 O719 2.320 . S
Tb672 O720 2.552 . S
Tb672 O721 2.413 . S
Tb672 O723 2.362 1_554 S
Tb672 O724 2.421 . S
Tb672 C736 2.833 1_545 S
C673 C676 1.432 . S
C673 C677 1.414 . S
C673 N680 1.359 1_554 S
C674 C676 1.417 . S
C674 C678 1.432 . S
C674 C686 1.410 . S
C675 C677 1.444 . S
C675 C678 1.317 . S
C675 H698 0.929 . S
C676 C673 1.432 . S
C676 C674 1.417 . S
C676 N684 1.360 . S
C677 C673 1.414 . S
C677 C675 1.444 . S
C677 C682 1.385 . S
C678 C674 1.432 . S
C678 C675 1.317 . S
C678 H690 0.930 . S
C679 C681 1.392 . S
C679 C682 1.370 1_556 S
C679 H691 0.931 . S
N680 C673 1.359 1_556 S
N680 C681 1.327 . S
N680 Tb683 2.600 . S
C681 C679 1.392 . S
C681 N680 1.327 . S
C681 H688 0.930 . S
C682 C677 1.385 . S
C682 C679 1.370 1_554 S
C682 H701 0.930 . S
Tb683 N680 2.600 . S
Tb683 N684 2.660 1_556 S
Tb683 O717 2.362 1_556 S
Tb683 O718 2.421 . S
Tb683 O722 2.546 . S
Tb683 O723 2.610 . S
Tb683 O725 2.320 . S
Tb683 O726 2.552 . S
Tb683 O727 2.413 . S
Tb683 C747 2.833 . S
N684 C676 1.360 . S
N684 Tb683 2.660 1_554 S
N684 C685 1.305 . S
C685 N684 1.305 . S
C685 C687 1.407 . S
C685 H692 0.930 . S
C686 C674 1.410 . S
C686 C687 1.345 . S
C686 H694 0.930 . S
C687 C685 1.407 . S
C687 C686 1.345 . S
C687 H689 0.930 . S
H688 C681 0.930 . S
H689 C687 0.930 . S
H690 C678 0.930 . S
H691 C679 0.931 . S
H692 C685 0.930 . S
H693 C707 0.930 . S
H694 C686 0.930 . S
H695 C713 0.930 . S
H696 C704 0.930 . S
H697 C711 0.931 . S
H698 C675 0.929 . S
H699 C705 0.930 . S
H700 C738 0.930 . S
H701 C682 0.930 . S
H702 C737 0.929 . S
N703 Tb672 2.660 1_565 S
N703 C704 1.305 1_564 S
N703 C708 1.360 1_554 S
C704 H696 0.930 . S
C704 N703 1.305 1_546 S
C704 C707 1.407 . S
C705 H699 0.930 . S
C705 C706 1.410 . S
C705 C707 1.345 1_565 S
C706 C705 1.410 . S
C706 C708 1.417 . S
C706 C738 1.432 . S
C707 H693 0.930 . S
C707 C704 1.407 . S
C707 C705 1.345 1_545 S
C708 N703 1.360 1_556 S
C708 C706 1.417 . S
C708 C712 1.432 1_556 S
H709 C714 0.930 1_556 S
N710 Tb672 2.600 1_565 S
N710 C712 1.359 . S
N710 C713 1.327 . S
C711 H697 0.931 . S
C711 C713 1.392 . S
C711 C714 1.370 . S
C712 C708 1.432 1_554 S
C712 N710 1.359 . S
C712 C715 1.414 1_554 S
C713 H695 0.930 . S
C713 N710 1.327 . S
C713 C711 1.392 . S
C714 H709 0.930 1_554 S
C714 C711 1.370 . S
C714 C715 1.385 1_554 S
C715 C712 1.414 1_556 S
C715 C714 1.385 1_556 S
C715 C737 1.444 . S
O716 Tb672 2.546 1_565 S
O716 C736 1.251 . S
O717 Tb672 2.610 . S
O717 Tb683 2.362 1_554 S
O717 C728 1.283 . S
O718 Tb683 2.421 . S
O718 C735 1.262 1_556 S
O719 Tb672 2.320 . S
O719 C735 1.260 . S
O720 Tb672 2.552 . S
O720 C728 1.243 . S
O721 Tb672 2.413 . S
O721 C736 1.256 1_545 S
O722 Tb683 2.546 . S
O722 C747 1.251 . S
O723 Tb672 2.362 1_556 S
O723 Tb683 2.610 . S
O723 C739 1.283 . S
O724 Tb672 2.421 . S
O724 C746 1.262 1_554 S
O725 Tb683 2.320 . S
O725 C746 1.260 . S
O726 Tb683 2.552 . S
O726 C739 1.243 . S
O727 Tb683 2.413 . S
O727 C747 1.256 . S
C728 O717 1.283 . S
C728 O720 1.243 . S
C729 C731 1.382 . S
C729 C733 1.393 . S
C729 C736 1.500 . S
C730 C731 1.400 . S
C730 C732 1.384 . S
C731 C729 1.382 . S
C731 C730 1.400 . S
C731 H748 0.930 1_565 S
C732 C730 1.384 . S
C732 C734 1.392 . S
C732 H749 0.931 . S
C733 C729 1.393 . S
C733 C734 1.401 . S
C733 H750 0.930 . S
C734 C732 1.392 . S
C734 C733 1.401 . S
C734 H751 0.930 . S
C735 O718 1.262 1_554 S
C735 O719 1.260 . S
C736 Tb672 2.833 1_565 S
C736 O716 1.251 . S
C736 O721 1.256 1_565 S
C736 C729 1.500 . S
C737 H702 0.929 . S
C737 C715 1.444 . S
C737 C738 1.317 . S
C738 H700 0.930 . S
C738 C706 1.432 . S
C738 C737 1.317 . S
C739 O723 1.283 . S
C739 O726 1.243 . S
C740 C741 1.382 . S
C740 C744 1.393 . S
C740 C747 1.500 . S
C741 C740 1.382 . S
C741 C742 1.400 . S
C741 H752 0.930 . S
C742 C741 1.400 . S
C742 C743 1.384 . S
C743 C742 1.384 . S
C743 C745 1.392 . S
C743 H753 0.931 . S
C744 C740 1.393 . S
C744 C745 1.401 . S
C744 H754 0.930 . S
C745 C743 1.392 . S
C745 C744 1.401 . S
C745 H755 0.930 . S
C746 O724 1.262 1_556 S
C746 O725 1.260 . S
C747 Tb683 2.833 . S
C747 O722 1.251 . S
C747 O727 1.256 . S
C747 C740 1.500 . S
H748 C731 0.930 1_545 S
H749 C732 0.931 . S
H750 C733 0.930 . S
H751 C734 0.930 . S
H752 C741 0.930 . S
H753 C743 0.931 . S
H754 C744 0.930 . S
H755 C745 0.930 . S
Tb756 N787 2.660 1_565 S
Tb756 N794 2.600 1_565 S
Tb756 O800 2.546 1_565 S
Tb756 O801 2.610 . S
Tb756 O803 2.320 . S
Tb756 O804 2.552 . S
Tb756 O805 2.413 . S
Tb756 O807 2.362 . S
Tb756 O808 2.421 . S
Tb756 C820 2.833 1_565 S
C757 C760 1.432 . S
C757 C761 1.414 . S
C757 N764 1.359 . S
C758 C760 1.417 . S
C758 C762 1.432 . S
C758 C770 1.410 . S
C759 C761 1.444 . S
C759 C762 1.317 . S
C759 H782 0.929 . S
C760 C757 1.432 . S
C760 C758 1.417 . S
C760 N768 1.360 . S
C761 C757 1.414 . S
C761 C759 1.444 . S
C761 C766 1.385 . S
C762 C758 1.432 . S
C762 C759 1.317 . S
C762 H774 0.930 . S
C763 C765 1.392 . S
C763 C766 1.370 . S
C763 H775 0.931 . S
N764 C757 1.359 . S
N764 C765 1.327 . S
N764 Tb767 2.600 . S
C765 C763 1.392 . S
C765 N764 1.327 . S
C765 H772 0.930 . S
C766 C761 1.385 . S
C766 C763 1.370 . S
C766 H785 0.930 . S
Tb767 N764 2.600 . S
Tb767 N768 2.660 . S
Tb767 O801 2.362 . S
Tb767 O802 2.421 . S
Tb767 O806 2.546 . S
Tb767 O807 2.610 . S
Tb767 O809 2.320 . S
Tb767 O810 2.552 . S
Tb767 O811 2.413 . S
Tb767 C831 2.833 . S
N768 C760 1.360 . S
N768 Tb767 2.660 . S
N768 C769 1.305 . S
C769 N768 1.305 . S
C769 C771 1.407 . S
C769 H776 0.930 . S
C770 C758 1.410 . S
C770 C771 1.345 . S
C770 H778 0.930 . S
C771 C769 1.407 . S
C771 C770 1.345 . S
C771 H773 0.930 . S
H772 C765 0.930 . S
H773 C771 0.930 . S
H774 C762 0.930 . S
H775 C763 0.931 . S
H776 C769 0.930 . S
H777 C791 0.930 . S
H778 C770 0.930 . S
H779 C797 0.930 . S
H780 C788 0.930 . S
H781 C795 0.931 . S
H782 C759 0.929 . S
H783 C789 0.930 . S
H784 C822 0.930 . S
H785 C766 0.930 . S
H786 C821 0.929 . S
N787 Tb756 2.660 1_545 S
N787 C788 1.305 1_545 S
N787 C792 1.360 . S
C788 H780 0.930 . S
C788 N787 1.305 1_565 S
C788 C791 1.407 . S
C789 H783 0.930 . S
C789 C790 1.410 . S
C789 C791 1.345 1_545 S
C790 C789 1.410 . S
C790 C792 1.417 . S
C790 C822 1.432 . S
C791 H777 0.930 . S
C791 C788 1.407 . S
C791 C789 1.345 1_565 S
C792 N787 1.360 . S
C792 C790 1.417 . S
C792 C796 1.432 . S
H793 C798 0.930 . S
N794 Tb756 2.600 1_545 S
N794 C796 1.359 . S
N794 C797 1.327 . S
C795 H781 0.931 . S
C795 C797 1.392 . S
C795 C798 1.370 . S
C796 C792 1.432 . S
C796 N794 1.359 . S
C796 C799 1.414 . S
C797 H779 0.930 . S
C797 N794 1.327 . S
C797 C795 1.392 . S
C798 H793 0.930 . S
C798 C795 1.370 . S
C798 C799 1.385 . S
C799 C796 1.414 . S
C799 C798 1.385 . S
C799 C821 1.444 . S
O800 Tb756 2.546 1_545 S
O800 C820 1.251 . S
O801 Tb756 2.610 . S
O801 Tb767 2.362 . S
O801 C812 1.283 . S
O802 Tb767 2.421 . S
O802 C819 1.262 . S
O803 Tb756 2.320 . S
O803 C819 1.260 . S
O804 Tb756 2.552 . S
O804 C812 1.243 . S
O805 Tb756 2.413 . S
O805 C820 1.256 1_565 S
O806 Tb767 2.546 . S
O806 C831 1.251 . S
O807 Tb756 2.362 . S
O807 Tb767 2.610 . S
O807 C823 1.283 . S
O808 Tb756 2.421 . S
O808 C830 1.262 . S
O809 Tb767 2.320 . S
O809 C830 1.260 . S
O810 Tb767 2.552 . S
O810 C823 1.243 . S
O811 Tb767 2.413 . S
O811 C831 1.256 . S
C812 O801 1.283 . S
C812 O804 1.243 . S
C813 C815 1.382 . S
C813 C817 1.393 . S
C813 C820 1.500 . S
C814 C815 1.400 . S
C814 C816 1.384 . S
C815 C813 1.382 . S
C815 C814 1.400 . S
C815 H832 0.930 1_545 S
C816 C814 1.384 . S
C816 C818 1.392 . S
C816 H833 0.931 . S
C817 C813 1.393 . S
C817 C818 1.401 . S
C817 H834 0.930 . S
C818 C816 1.392 . S
C818 C817 1.401 . S
C818 H835 0.930 . S
C819 O802 1.262 . S
C819 O803 1.260 . S
C820 Tb756 2.833 1_545 S
C820 O800 1.251 . S
C820 O805 1.256 1_545 S
C820 C813 1.500 . S
C821 H786 0.929 . S
C821 C799 1.444 . S
C821 C822 1.317 . S
C822 H784 0.930 . S
C822 C790 1.432 . S
C822 C821 1.317 . S
C823 O807 1.283 . S
C823 O810 1.243 . S
C824 C825 1.382 . S
C824 C828 1.393 . S
C824 C831 1.500 . S
C825 C824 1.382 . S
C825 C826 1.400 . S
C825 H836 0.930 . S
C826 C825 1.400 . S
C826 C827 1.384 . S
C827 C826 1.384 . S
C827 C829 1.392 . S
C827 H837 0.931 1_556 S
C828 C824 1.393 . S
C828 C829 1.401 . S
C828 H838 0.930 . S
C829 C827 1.392 . S
C829 C828 1.401 . S
C829 H839 0.930 . S
C830 O808 1.262 . S
C830 O809 1.260 . S
C831 Tb767 2.833 . S
C831 O806 1.251 . S
C831 O811 1.256 . S
C831 C824 1.500 . S
H832 C815 0.930 1_565 S
H833 C816 0.931 . S
H834 C817 0.930 . S
H835 C818 0.930 . S
H836 C825 0.930 . S
H837 C827 0.931 1_554 S
H838 C828 0.930 . S
H839 C829 0.930 . S
Tb840 N871 2.660 1_455 S
Tb840 N878 2.600 1_455 S
Tb840 O884 2.546 1_455 S
Tb840 O885 2.610 . S
Tb840 O887 2.320 . S
Tb840 O888 2.552 . S
Tb840 O889 2.413 . S
Tb840 O891 2.362 . S
Tb840 O892 2.421 . S
Tb840 C904 2.833 1_455 S
C841 C844 1.432 . S
C841 C845 1.414 . S
C841 N848 1.359 . S
C842 C844 1.417 . S
C842 C846 1.432 . S
C842 C854 1.410 . S
C843 C845 1.444 . S
C843 C846 1.317 . S
C843 H866 0.929 . S
C844 C841 1.432 . S
C844 C842 1.417 . S
C844 N852 1.360 . S
C845 C841 1.414 . S
C845 C843 1.444 . S
C845 C850 1.385 . S
C846 C842 1.432 . S
C846 C843 1.317 . S
C846 H858 0.930 . S
C847 C849 1.392 . S
C847 C850 1.370 . S
C847 H859 0.931 . S
N848 C841 1.359 . S
N848 C849 1.327 . S
N848 Tb851 2.600 . S
C849 C847 1.392 . S
C849 N848 1.327 . S
C849 H856 0.930 . S
C850 C845 1.385 . S
C850 C847 1.370 . S
C850 H869 0.930 . S
Tb851 N848 2.600 . S
Tb851 N852 2.660 . S
Tb851 O885 2.362 . S
Tb851 O886 2.421 . S
Tb851 O890 2.546 . S
Tb851 O891 2.610 . S
Tb851 O893 2.320 . S
Tb851 O894 2.552 . S
Tb851 O895 2.413 . S
Tb851 C915 2.833 . S
N852 C844 1.360 . S
N852 Tb851 2.660 . S
N852 C853 1.305 . S
C853 N852 1.305 . S
C853 C855 1.407 . S
C853 H860 0.930 . S
C854 C842 1.410 . S
C854 C855 1.345 . S
C854 H862 0.930 . S
C855 C853 1.407 . S
C855 C854 1.345 . S
C855 H857 0.930 . S
H856 C849 0.930 . S
H857 C855 0.930 . S
H858 C846 0.930 . S
H859 C847 0.931 . S
H860 C853 0.930 . S
H861 C875 0.930 . S
H862 C854 0.930 . S
H863 C881 0.930 . S
H864 C872 0.930 . S
H865 C879 0.931 . S
H866 C843 0.929 . S
H867 C873 0.930 . S
H868 C906 0.930 . S
H869 C850 0.930 . S
H870 C905 0.929 . S
N871 Tb840 2.660 1_655 S
N871 C872 1.305 1_655 S
N871 C876 1.360 . S
C872 H864 0.930 . S
C872 N871 1.305 1_455 S
C872 C875 1.407 . S
C873 H867 0.930 . S
C873 C874 1.410 . S
C873 C875 1.345 1_655 S
C874 C873 1.410 . S
C874 C876 1.417 . S
C874 C906 1.432 . S
C875 H861 0.930 . S
C875 C872 1.407 . S
C875 C873 1.345 1_455 S
C876 N871 1.360 . S
C876 C874 1.417 . S
C876 C880 1.432 . S
H877 C882 0.930 . S
N878 Tb840 2.600 1_655 S
N878 C880 1.359 . S
N878 C881 1.327 . S
C879 H865 0.931 . S
C879 C881 1.392 . S
C879 C882 1.370 . S
C880 C876 1.432 . S
C880 N878 1.359 . S
C880 C883 1.414 . S
C881 H863 0.930 . S
C881 N878 1.327 . S
C881 C879 1.392 . S
C882 H877 0.930 . S
C882 C879 1.370 . S
C882 C883 1.385 . S
C883 C880 1.414 . S
C883 C882 1.385 . S
C883 C905 1.444 . S
O884 Tb840 2.546 1_655 S
O884 C904 1.251 . S
O885 Tb840 2.610 . S
O885 Tb851 2.362 . S
O885 C896 1.283 . S
O886 Tb851 2.421 . S
O886 C903 1.262 . S
O887 Tb840 2.320 . S
O887 C903 1.260 . S
O888 Tb840 2.552 . S
O888 C896 1.243 . S
O889 Tb840 2.413 . S
O889 C904 1.256 1_455 S
O890 Tb851 2.546 . S
O890 C915 1.251 . S
O891 Tb840 2.362 . S
O891 Tb851 2.610 . S
O891 C907 1.283 . S
O892 Tb840 2.421 . S
O892 C914 1.262 . S
O893 Tb851 2.320 . S
O893 C914 1.260 . S
O894 Tb851 2.552 . S
O894 C907 1.243 . S
O895 Tb851 2.413 . S
O895 C915 1.256 . S
C896 O885 1.283 . S
C896 O888 1.243 . S
C897 C899 1.382 . S
C897 C901 1.393 . S
C897 C904 1.500 . S
C898 C899 1.400 . S
C898 C900 1.384 . S
C899 C897 1.382 . S
C899 C898 1.400 . S
C899 H916 0.930 1_655 S
C900 C898 1.384 . S
C900 C902 1.392 . S
C900 H917 0.931 . S
C901 C897 1.393 . S
C901 C902 1.401 . S
C901 H918 0.930 . S
C902 C900 1.392 . S
C902 C901 1.401 . S
C902 H919 0.930 . S
C903 O886 1.262 . S
C903 O887 1.260 . S
C904 Tb840 2.833 1_655 S
C904 O884 1.251 . S
C904 O889 1.256 1_655 S
C904 C897 1.500 . S
C905 H870 0.929 . S
C905 C883 1.444 . S
C905 C906 1.317 . S
C906 H868 0.930 . S
C906 C874 1.432 . S
C906 C905 1.317 . S
C907 O891 1.283 . S
C907 O894 1.243 . S
C908 C909 1.382 . S
C908 C912 1.393 . S
C908 C915 1.500 . S
C909 C908 1.382 . S
C909 C910 1.400 . S
C909 H920 0.930 . S
C910 C909 1.400 . S
C910 C911 1.384 . S
C911 C910 1.384 . S
C911 C913 1.392 . S
C911 H921 0.931 1_556 S
C912 C908 1.393 . S
C912 C913 1.401 . S
C912 H922 0.930 . S
C913 C911 1.392 . S
C913 C912 1.401 . S
C913 H923 0.930 . S
C914 O892 1.262 . S
C914 O893 1.260 . S
C915 Tb851 2.833 . S
C915 O890 1.251 . S
C915 O895 1.256 . S
C915 C908 1.500 . S
H916 C899 0.930 1_455 S
H917 C900 0.931 . S
H918 C901 0.930 . S
H919 C902 0.930 . S
H920 C909 0.930 . S
H921 C911 0.931 1_554 S
H922 C912 0.930 . S
H923 C913 0.930 . S
Tb924 N955 2.660 . S
Tb924 N962 2.600 . S
Tb924 O968 2.546 . S
Tb924 O969 2.610 . S
Tb924 O971 2.320 . S
Tb924 O972 2.552 . S
Tb924 O973 2.413 . S
Tb924 O975 2.362 . S
Tb924 O976 2.421 . S
Tb924 C988 2.833 . S
C925 C928 1.432 . S
C925 C929 1.414 . S
C925 N932 1.359 . S
C926 C928 1.417 . S
C926 C930 1.432 . S
C926 C938 1.410 . S
C927 C929 1.444 . S
C927 C930 1.317 . S
C927 H950 0.929 . S
C928 C925 1.432 . S
C928 C926 1.417 . S
C928 N936 1.360 . S
C929 C925 1.414 . S
C929 C927 1.444 . S
C929 C934 1.385 . S
C930 C926 1.432 . S
C930 C927 1.317 . S
C930 H942 0.930 . S
C931 C933 1.392 . S
C931 C934 1.370 . S
C931 H943 0.931 . S
N932 C925 1.359 . S
N932 C933 1.327 . S
N932 Tb935 2.600 . S
C933 C931 1.392 . S
C933 N932 1.327 . S
C933 H940 0.930 . S
C934 C929 1.385 . S
C934 C931 1.370 . S
C934 H953 0.930 . S
Tb935 N932 2.600 . S
Tb935 N936 2.660 . S
Tb935 O969 2.362 . S
Tb935 O970 2.421 . S
Tb935 O974 2.546 . S
Tb935 O975 2.610 . S
Tb935 O977 2.320 . S
Tb935 O978 2.552 . S
Tb935 O979 2.413 . S
Tb935 C999 2.833 . S
N936 C928 1.360 . S
N936 Tb935 2.660 . S
N936 C937 1.305 . S
C937 N936 1.305 . S
C937 C939 1.407 . S
C937 H944 0.930 . S
C938 C926 1.410 . S
C938 C939 1.345 . S
C938 H946 0.930 . S
C939 C937 1.407 . S
C939 C938 1.345 . S
C939 H941 0.930 . S
H940 C933 0.930 . S
H941 C939 0.930 . S
H942 C930 0.930 . S
H943 C931 0.931 . S
H944 C937 0.930 . S
H945 C959 0.930 . S
H946 C938 0.930 . S
H947 C965 0.930 . S
H948 C956 0.930 . S
H949 C963 0.931 . S
H950 C927 0.929 . S
H951 C957 0.930 . S
H952 C990 0.930 . S
H953 C934 0.930 . S
H954 C989 0.929 . S
N955 Tb924 2.660 . S
N955 C956 1.305 . S
N955 C960 1.360 . S
C956 H948 0.930 . S
C956 N955 1.305 . S
C956 C959 1.407 . S
C957 H951 0.930 . S
C957 C958 1.410 . S
C957 C959 1.345 . S
C958 C957 1.410 . S
C958 C960 1.417 . S
C958 C990 1.432 . S
C959 H945 0.930 . S
C959 C956 1.407 . S
C959 C957 1.345 . S
C960 N955 1.360 . S
C960 C958 1.417 . S
C960 C964 1.432 . S
H961 C966 0.930 . S
N962 Tb924 2.600 . S
N962 C964 1.359 . S
N962 C965 1.327 . S
C963 H949 0.931 . S
C963 C965 1.392 . S
C963 C966 1.370 . S
C964 C960 1.432 . S
C964 N962 1.359 . S
C964 C967 1.414 . S
C965 H947 0.930 . S
C965 N962 1.327 . S
C965 C963 1.392 . S
C966 H961 0.930 . S
C966 C963 1.370 . S
C966 C967 1.385 . S
C967 C964 1.414 . S
C967 C966 1.385 . S
C967 C989 1.444 . S
O968 Tb924 2.546 . S
O968 C988 1.251 . S
O969 Tb924 2.610 . S
O969 Tb935 2.362 . S
O969 C980 1.283 . S
O970 Tb935 2.421 . S
O970 C987 1.262 . S
O971 Tb924 2.320 . S
O971 C987 1.260 . S
O972 Tb924 2.552 . S
O972 C980 1.243 . S
O973 Tb924 2.413 . S
O973 C988 1.256 . S
O974 Tb935 2.546 . S
O974 C999 1.251 . S
O975 Tb924 2.362 . S
O975 Tb935 2.610 . S
O975 C991 1.283 . S
O976 Tb924 2.421 . S
O976 C998 1.262 . S
O977 Tb935 2.320 . S
O977 C998 1.260 . S
O978 Tb935 2.552 . S
O978 C991 1.243 . S
O979 Tb935 2.413 . S
O979 C999 1.256 . S
C980 O969 1.283 . S
C980 O972 1.243 . S
C981 C983 1.382 . S
C981 C985 1.393 . S
C981 C988 1.500 . S
C982 C983 1.400 . S
C982 C984 1.384 . S
C983 C981 1.382 . S
C983 C982 1.400 . S
C983 H1000 0.930 . S
C984 C982 1.384 . S
C984 C986 1.392 . S
C984 H1001 0.931 . S
C985 C981 1.393 . S
C985 C986 1.401 . S
C985 H1002 0.930 . S
C986 C984 1.392 . S
C986 C985 1.401 . S
C986 H1003 0.930 . S
C987 O970 1.262 . S
C987 O971 1.260 . S
C988 Tb924 2.833 . S
C988 O968 1.251 . S
C988 O973 1.256 . S
C988 C981 1.500 . S
C989 H954 0.929 . S
C989 C967 1.444 . S
C989 C990 1.317 . S
C990 H952 0.930 . S
C990 C958 1.432 . S
C990 C989 1.317 . S
C991 O975 1.283 . S
C991 O978 1.243 . S
C992 C993 1.382 . S
C992 C996 1.393 . S
C992 C999 1.500 . S
C993 C992 1.382 . S
C993 C994 1.400 . S
C993 H1004 0.930 . S
C994 C993 1.400 . S
C994 C995 1.384 . S
C995 C994 1.384 . S
C995 C997 1.392 . S
C995 H1005 0.931 1_556 S
C996 C992 1.393 . S
C996 C997 1.401 . S
C996 H1006 0.930 . S
C997 C995 1.392 . S
C997 C996 1.401 . S
C997 H1007 0.930 . S
C998 O976 1.262 . S
C998 O977 1.260 . S
C999 Tb935 2.833 . S
C999 O974 1.251 . S
C999 O979 1.256 . S
C999 C992 1.500 . S
H1000 C983 0.930 . S
H1001 C984 0.931 . S
H1002 C985 0.930 . S
H1003 C986 0.930 . S
H1004 C993 0.930 . S
H1005 C995 0.931 1_554 S
H1006 C996 0.930 . S
H1007 C997 0.930 . S
Tb1008 N1039 2.660 . S
Tb1008 N1046 2.600 . S
Tb1008 O1052 2.546 . S
Tb1008 O1053 2.610 . S
Tb1008 O1055 2.320 . S
Tb1008 O1056 2.552 . S
Tb1008 O1057 2.413 . S
Tb1008 O1059 2.362 . S
Tb1008 O1060 2.421 . S
Tb1008 C1072 2.833 . S
C1009 C1012 1.432 . S
C1009 C1013 1.414 . S
C1009 N1016 1.359 . S
C1010 C1012 1.417 . S
C1010 C1014 1.432 . S
C1010 C1022 1.410 . S
C1011 C1013 1.444 . S
C1011 C1014 1.317 . S
C1011 H1034 0.929 . S
C1012 C1009 1.432 . S
C1012 C1010 1.417 . S
C1012 N1020 1.360 . S
C1013 C1009 1.414 . S
C1013 C1011 1.444 . S
C1013 C1018 1.385 . S
C1014 C1010 1.432 . S
C1014 C1011 1.317 . S
C1014 H1026 0.930 . S
C1015 C1017 1.392 . S
C1015 C1018 1.370 . S
C1015 H1027 0.931 . S
N1016 C1009 1.359 . S
N1016 C1017 1.327 . S
N1016 Tb1019 2.600 . S
C1017 C1015 1.392 . S
C1017 N1016 1.327 . S
C1017 H1024 0.930 . S
C1018 C1013 1.385 . S
C1018 C1015 1.370 . S
C1018 H1037 0.930 . S
Tb1019 N1016 2.600 . S
Tb1019 N1020 2.660 . S
Tb1019 O1053 2.362 . S
Tb1019 O1054 2.421 . S
Tb1019 O1058 2.546 . S
Tb1019 O1059 2.610 . S
Tb1019 O1061 2.320 . S
Tb1019 O1062 2.552 . S
Tb1019 O1063 2.413 . S
Tb1019 C1083 2.833 . S
N1020 C1012 1.360 . S
N1020 Tb1019 2.660 . S
N1020 C1021 1.305 . S
C1021 N1020 1.305 . S
C1021 C1023 1.407 . S
C1021 H1028 0.930 . S
C1022 C1010 1.410 . S
C1022 C1023 1.345 . S
C1022 H1030 0.930 . S
C1023 C1021 1.407 . S
C1023 C1022 1.345 . S
C1023 H1025 0.930 . S
H1024 C1017 0.930 . S
H1025 C1023 0.930 . S
H1026 C1014 0.930 . S
H1027 C1015 0.931 . S
H1028 C1021 0.930 . S
H1029 C1043 0.930 . S
H1030 C1022 0.930 . S
H1031 C1049 0.930 . S
H1032 C1040 0.930 . S
H1033 C1047 0.931 . S
H1034 C1011 0.929 . S
H1035 C1041 0.930 1_545 S
H1036 C1074 0.930 . S
H1037 C1018 0.930 . S
H1038 C1073 0.929 1_545 S
N1039 Tb1008 2.660 . S
N1039 C1040 1.305 . S
N1039 C1044 1.360 . S
C1040 H1032 0.930 . S
C1040 N1039 1.305 . S
C1040 C1043 1.407 . S
C1041 H1035 0.930 1_565 S
C1041 C1042 1.410 . S
C1041 C1043 1.345 . S
C1042 C1041 1.410 . S
C1042 C1044 1.417 . S
C1042 C1074 1.432 1_565 S
C1043 H1029 0.930 . S
C1043 C1040 1.407 . S
C1043 C1041 1.345 . S
C1044 N1039 1.360 . S
C1044 C1042 1.417 . S
C1044 C1048 1.432 . S
H1045 C1050 0.930 . S
N1046 Tb1008 2.600 . S
N1046 C1048 1.359 . S
N1046 C1049 1.327 . S
C1047 H1033 0.931 . S
C1047 C1049 1.392 . S
C1047 C1050 1.370 . S
C1048 C1044 1.432 . S
C1048 N1046 1.359 . S
C1048 C1051 1.414 . S
C1049 H1031 0.930 . S
C1049 N1046 1.327 . S
C1049 C1047 1.392 . S
C1050 H1045 0.930 . S
C1050 C1047 1.370 . S
C1050 C1051 1.385 . S
C1051 C1048 1.414 . S
C1051 C1050 1.385 . S
C1051 C1073 1.444 . S
O1052 Tb1008 2.546 . S
O1052 C1072 1.251 . S
O1053 Tb1008 2.610 . S
O1053 Tb1019 2.362 . S
O1053 C1064 1.283 . S
O1054 Tb1019 2.421 . S
O1054 C1071 1.262 . S
O1055 Tb1008 2.320 . S
O1055 C1071 1.260 . S
O1056 Tb1008 2.552 . S
O1056 C1064 1.243 . S
O1057 Tb1008 2.413 . S
O1057 C1072 1.256 . S
O1058 Tb1019 2.546 . S
O1058 C1083 1.251 . S
O1059 Tb1008 2.362 . S
O1059 Tb1019 2.610 . S
O1059 C1075 1.283 . S
O1060 Tb1008 2.421 . S
O1060 C1082 1.262 . S
O1061 Tb1019 2.320 . S
O1061 C1082 1.260 . S
O1062 Tb1019 2.552 . S
O1062 C1075 1.243 . S
O1063 Tb1019 2.413 . S
O1063 C1083 1.256 . S
C1064 O1053 1.283 . S
C1064 O1056 1.243 . S
C1065 C1067 1.382 . S
C1065 C1069 1.393 . S
C1065 C1072 1.500 . S
C1066 C1067 1.400 . S
C1066 C1068 1.384 . S
C1067 C1065 1.382 . S
C1067 C1066 1.400 . S
C1067 H1084 0.930 . S
C1068 C1066 1.384 . S
C1068 C1070 1.392 . S
C1068 H1085 0.931 . S
C1069 C1065 1.393 . S
C1069 C1070 1.401 . S
C1069 H1086 0.930 . S
C1070 C1068 1.392 . S
C1070 C1069 1.401 . S
C1070 H1087 0.930 . S
C1071 O1054 1.262 . S
C1071 O1055 1.260 . S
C1072 Tb1008 2.833 . S
C1072 O1052 1.251 . S
C1072 O1057 1.256 . S
C1072 C1065 1.500 . S
C1073 H1038 0.929 1_565 S
C1073 C1051 1.444 . S
C1073 C1074 1.317 1_565 S
C1074 H1036 0.930 . S
C1074 C1042 1.432 1_545 S
C1074 C1073 1.317 1_545 S
C1075 O1059 1.283 . S
C1075 O1062 1.243 . S
C1076 C1077 1.382 . S
C1076 C1080 1.393 . S
C1076 C1083 1.500 . S
C1077 C1076 1.382 . S
C1077 C1078 1.400 . S
C1077 H1088 0.930 . S
C1078 C1077 1.400 . S
C1078 C1079 1.384 . S
C1079 C1078 1.384 . S
C1079 C1081 1.392 . S
C1079 H1089 0.931 . S
C1080 C1076 1.393 . S
C1080 C1081 1.401 . S
C1080 H1090 0.930 . S
C1081 C1079 1.392 . S
C1081 C1080 1.401 . S
C1081 H1091 0.930 . S
C1082 O1060 1.262 . S
C1082 O1061 1.260 . S
C1083 Tb1019 2.833 . S
C1083 O1058 1.251 . S
C1083 O1063 1.256 . S
C1083 C1076 1.500 . S
H1084 C1067 0.930 . S
H1085 C1068 0.931 . S
H1086 C1069 0.930 . S
H1087 C1070 0.930 . S
H1088 C1077 0.930 . S
H1089 C1079 0.931 . S
H1090 C1080 0.930 . S
H1091 C1081 0.930 . S
Tb1092 N1123 2.660 . S
Tb1092 N1130 2.600 . S
Tb1092 O1136 2.546 . S
Tb1092 O1137 2.610 . S
Tb1092 O1139 2.320 . S
Tb1092 O1140 2.552 . S
Tb1092 O1141 2.413 . S
Tb1092 O1143 2.362 . S
Tb1092 O1144 2.421 1_565 S
Tb1092 C1156 2.833 . S
C1093 C1096 1.432 . S
C1093 C1097 1.414 . S
C1093 N1100 1.359 . S
C1094 C1096 1.417 . S
C1094 C1098 1.432 . S
C1094 C1106 1.410 1_565 S
C1095 C1097 1.444 . S
C1095 C1098 1.317 . S
C1095 H1118 0.929 . S
C1096 C1093 1.432 . S
C1096 C1094 1.417 . S
C1096 N1104 1.360 . S
C1097 C1093 1.414 . S
C1097 C1095 1.444 . S
C1097 C1102 1.385 . S
C1098 C1094 1.432 . S
C1098 C1095 1.317 . S
C1098 H1110 0.930 . S
C1099 C1101 1.392 . S
C1099 C1102 1.370 . S
C1099 H1111 0.931 . S
N1100 C1093 1.359 . S
N1100 C1101 1.327 . S
N1100 Tb1103 2.600 . S
C1101 C1099 1.392 . S
C1101 N1100 1.327 . S
C1101 H1108 0.930 . S
C1102 C1097 1.385 . S
C1102 C1099 1.370 . S
C1102 H1121 0.930 . S
Tb1103 N1100 2.600 . S
Tb1103 N1104 2.660 . S
Tb1103 O1137 2.362 . S
Tb1103 O1138 2.421 . S
Tb1103 O1142 2.546 . S
Tb1103 O1143 2.610 . S
Tb1103 O1145 2.320 . S
Tb1103 O1146 2.552 . S
Tb1103 O1147 2.413 . S
Tb1103 C1167 2.833 . S
N1104 C1096 1.360 . S
N1104 Tb1103 2.660 . S
N1104 C1105 1.305 1_565 S
C1105 N1104 1.305 1_545 S
C1105 C1107 1.407 . S
C1105 H1112 0.930 . S
C1106 C1094 1.410 1_545 S
C1106 C1107 1.345 . S
C1106 H1114 0.930 . S
C1107 C1105 1.407 . S
C1107 C1106 1.345 . S
C1107 H1109 0.930 . S
H1108 C1101 0.930 . S
H1109 C1107 0.930 . S
H1110 C1098 0.930 . S
H1111 C1099 0.931 . S
H1112 C1105 0.930 . S
H1113 C1127 0.930 . S
H1114 C1106 0.930 . S
H1115 C1133 0.930 . S
H1116 C1124 0.930 . S
H1117 C1131 0.931 . S
H1118 C1095 0.929 . S
H1119 C1125 0.930 1_655 S
H1120 C1158 0.930 . S
H1121 C1102 0.930 . S
H1122 C1157 0.929 1_655 S
N1123 Tb1092 2.660 . S
N1123 C1124 1.305 . S
N1123 C1128 1.360 . S
C1124 H1116 0.930 . S
C1124 N1123 1.305 . S
C1124 C1127 1.407 . S
C1125 H1119 0.930 1_455 S
C1125 C1126 1.410 . S
C1125 C1127 1.345 . S
C1126 C1125 1.410 . S
C1126 C1128 1.417 . S
C1126 C1158 1.432 1_455 S
C1127 H1113 0.930 . S
C1127 C1124 1.407 . S
C1127 C1125 1.345 . S
C1128 N1123 1.360 . S
C1128 C1126 1.417 . S
C1128 C1132 1.432 . S
H1129 C1134 0.930 . S
N1130 Tb1092 2.600 . S
N1130 C1132 1.359 . S
N1130 C1133 1.327 1_565 S
C1131 H1117 0.931 . S
C1131 C1133 1.392 . S
C1131 C1134 1.370 . S
C1132 C1128 1.432 . S
C1132 N1130 1.359 . S
C1132 C1135 1.414 . S
C1133 H1115 0.930 . S
C1133 N1130 1.327 1_545 S
C1133 C1131 1.392 . S
C1134 H1129 0.930 . S
C1134 C1131 1.370 . S
C1134 C1135 1.385 1_545 S
C1135 C1132 1.414 . S
C1135 C1134 1.385 1_565 S
C1135 C1157 1.444 . S
O1136 Tb1092 2.546 . S
O1136 C1156 1.251 . S
O1137 Tb1092 2.610 . S
O1137 Tb1103 2.362 . S
O1137 C1148 1.283 . S
O1138 Tb1103 2.421 . S
O1138 C1155 1.262 . S
O1139 Tb1092 2.320 . S
O1139 C1155 1.260 . S
O1140 Tb1092 2.552 . S
O1140 C1148 1.243 . S
O1141 Tb1092 2.413 . S
O1141 C1156 1.256 . S
O1142 Tb1103 2.546 . S
O1142 C1167 1.251 . S
O1143 Tb1092 2.362 . S
O1143 Tb1103 2.610 . S
O1143 C1159 1.283 . S
O1144 Tb1092 2.421 1_545 S
O1144 C1166 1.262 . S
O1145 Tb1103 2.320 . S
O1145 C1166 1.260 1_565 S
O1146 Tb1103 2.552 . S
O1146 C1159 1.243 . S
O1147 Tb1103 2.413 . S
O1147 C1167 1.256 . S
C1148 O1137 1.283 . S
C1148 O1140 1.243 . S
C1149 C1151 1.382 . S
C1149 C1153 1.393 . S
C1149 C1156 1.500 . S
C1150 C1151 1.400 . S
C1150 C1152 1.384 . S
C1151 C1149 1.382 . S
C1151 C1150 1.400 . S
C1151 H1168 0.930 . S
C1152 C1150 1.384 . S
C1152 C1154 1.392 . S
C1152 H1169 0.931 . S
C1153 C1149 1.393 . S
C1153 C1154 1.401 . S
C1153 H1170 0.930 . S
C1154 C1152 1.392 . S
C1154 C1153 1.401 . S
C1154 H1171 0.930 . S
C1155 O1138 1.262 . S
C1155 O1139 1.260 . S
C1156 Tb1092 2.833 . S
C1156 O1136 1.251 . S
C1156 O1141 1.256 . S
C1156 C1149 1.500 . S
C1157 H1122 0.929 1_455 S
C1157 C1135 1.444 . S
C1157 C1158 1.317 1_455 S
C1158 H1120 0.930 . S
C1158 C1126 1.432 1_655 S
C1158 C1157 1.317 1_655 S
C1159 O1143 1.283 . S
C1159 O1146 1.243 . S
C1160 C1161 1.382 . S
C1160 C1164 1.393 . S
C1160 C1167 1.500 . S
C1161 C1160 1.382 . S
C1161 C1162 1.400 . S
C1161 H1172 0.930 . S
C1162 C1161 1.400 . S
C1162 C1163 1.384 . S
C1163 C1162 1.384 . S
C1163 C1165 1.392 . S
C1163 H1173 0.931 . S
C1164 C1160 1.393 . S
C1164 C1165 1.401 . S
C1164 H1174 0.930 . S
C1165 C1163 1.392 . S
C1165 C1164 1.401 . S
C1165 H1175 0.930 . S
C1166 O1144 1.262 . S
C1166 O1145 1.260 1_545 S
C1167 Tb1103 2.833 . S
C1167 O1142 1.251 . S
C1167 O1147 1.256 . S
C1167 C1160 1.500 . S
H1168 C1151 0.930 . S
H1169 C1152 0.931 . S
H1170 C1153 0.930 . S
H1171 C1154 0.930 . S
H1172 C1161 0.930 . S
H1173 C1163 0.931 . S
H1174 C1164 0.930 . S
H1175 C1165 0.930 . S
Tb1176 N1207 2.660 . S
Tb1176 N1214 2.600 . S
Tb1176 O1220 2.546 . S
Tb1176 O1221 2.610 . S
Tb1176 O1223 2.320 . S
Tb1176 O1224 2.552 . S
Tb1176 O1225 2.413 . S
Tb1176 O1227 2.362 . S
Tb1176 O1228 2.421 1_455 S
Tb1176 C1240 2.833 . S
C1177 C1180 1.432 . S
C1177 C1181 1.414 . S
C1177 N1184 1.359 . S
C1178 C1180 1.417 . S
C1178 C1182 1.432 . S
C1178 C1190 1.410 1_455 S
C1179 C1181 1.444 . S
C1179 C1182 1.317 . S
C1179 H1202 0.929 . S
C1180 C1177 1.432 . S
C1180 C1178 1.417 . S
C1180 N1188 1.360 . S
C1181 C1177 1.414 . S
C1181 C1179 1.444 . S
C1181 C1186 1.385 . S
C1182 C1178 1.432 . S
C1182 C1179 1.317 . S
C1182 H1194 0.930 . S
C1183 C1185 1.392 . S
C1183 C1186 1.370 . S
C1183 H1195 0.931 . S
N1184 C1177 1.359 . S
N1184 C1185 1.327 . S
N1184 Tb1187 2.600 . S
C1185 C1183 1.392 . S
C1185 N1184 1.327 . S
C1185 H1192 0.930 . S
C1186 C1181 1.385 . S
C1186 C1183 1.370 . S
C1186 H1205 0.930 . S
Tb1187 N1184 2.600 . S
Tb1187 N1188 2.660 . S
Tb1187 O1221 2.362 . S
Tb1187 O1222 2.421 . S
Tb1187 O1226 2.546 . S
Tb1187 O1227 2.610 . S
Tb1187 O1229 2.320 . S
Tb1187 O1230 2.552 . S
Tb1187 O1231 2.413 . S
Tb1187 C1251 2.833 . S
N1188 C1180 1.360 . S
N1188 Tb1187 2.660 . S
N1188 C1189 1.305 1_455 S
C1189 N1188 1.305 1_655 S
C1189 C1191 1.407 . S
C1189 H1196 0.930 . S
C1190 C1178 1.410 1_655 S
C1190 C1191 1.345 . S
C1190 H1198 0.930 . S
C1191 C1189 1.407 . S
C1191 C1190 1.345 . S
C1191 H1193 0.930 . S
H1192 C1185 0.930 . S
H1193 C1191 0.930 . S
H1194 C1182 0.930 . S
H1195 C1183 0.931 . S
H1196 C1189 0.930 . S
H1197 C1211 0.930 . S
H1198 C1190 0.930 . S
H1199 C1217 0.930 . S
H1200 C1208 0.930 . S
H1201 C1215 0.931 . S
H1202 C1179 0.929 . S
H1203 C1209 0.930 . S
H1204 C1242 0.930 . S
H1205 C1186 0.930 . S
H1206 C1241 0.929 . S
N1207 Tb1176 2.660 . S
N1207 C1208 1.305 . S
N1207 C1212 1.360 . S
C1208 H1200 0.930 . S
C1208 N1207 1.305 . S
C1208 C1211 1.407 . S
C1209 H1203 0.930 . S
C1209 C1210 1.410 . S
C1209 C1211 1.345 . S
C1210 C1209 1.410 . S
C1210 C1212 1.417 . S
C1210 C1242 1.432 . S
C1211 H1197 0.930 . S
C1211 C1208 1.407 . S
C1211 C1209 1.345 . S
C1212 N1207 1.360 . S
C1212 C1210 1.417 . S
C1212 C1216 1.432 . S
H1213 C1218 0.930 . S
N1214 Tb1176 2.600 . S
N1214 C1216 1.359 . S
N1214 C1217 1.327 1_455 S
C1215 H1201 0.931 . S
C1215 C1217 1.392 . S
C1215 C1218 1.370 . S
C1216 C1212 1.432 . S
C1216 N1214 1.359 . S
C1216 C1219 1.414 . S
C1217 H1199 0.930 . S
C1217 N1214 1.327 1_655 S
C1217 C1215 1.392 . S
C1218 H1213 0.930 . S
C1218 C1215 1.370 . S
C1218 C1219 1.385 1_655 S
C1219 C1216 1.414 . S
C1219 C1218 1.385 1_455 S
C1219 C1241 1.444 . S
O1220 Tb1176 2.546 . S
O1220 C1240 1.251 . S
O1221 Tb1176 2.610 . S
O1221 Tb1187 2.362 . S
O1221 C1232 1.283 . S
O1222 Tb1187 2.421 . S
O1222 C1239 1.262 . S
O1223 Tb1176 2.320 . S
O1223 C1239 1.260 . S
O1224 Tb1176 2.552 . S
O1224 C1232 1.243 . S
O1225 Tb1176 2.413 . S
O1225 C1240 1.256 . S
O1226 Tb1187 2.546 . S
O1226 C1251 1.251 . S
O1227 Tb1176 2.362 . S
O1227 Tb1187 2.610 . S
O1227 C1243 1.283 . S
O1228 Tb1176 2.421 1_655 S
O1228 C1250 1.262 . S
O1229 Tb1187 2.320 . S
O1229 C1250 1.260 1_455 S
O1230 Tb1187 2.552 . S
O1230 C1243 1.243 . S
O1231 Tb1187 2.413 . S
O1231 C1251 1.256 . S
C1232 O1221 1.283 . S
C1232 O1224 1.243 . S
C1233 C1235 1.382 . S
C1233 C1237 1.393 . S
C1233 C1240 1.500 . S
C1234 C1235 1.400 . S
C1234 C1236 1.384 . S
C1235 C1233 1.382 . S
C1235 C1234 1.400 . S
C1235 H1252 0.930 . S
C1236 C1234 1.384 . S
C1236 C1238 1.392 . S
C1236 H1253 0.931 . S
C1237 C1233 1.393 . S
C1237 C1238 1.401 . S
C1237 H1254 0.930 . S
C1238 C1236 1.392 . S
C1238 C1237 1.401 . S
C1238 H1255 0.930 . S
C1239 O1222 1.262 . S
C1239 O1223 1.260 . S
C1240 Tb1176 2.833 . S
C1240 O1220 1.251 . S
C1240 O1225 1.256 . S
C1240 C1233 1.500 . S
C1241 H1206 0.929 . S
C1241 C1219 1.444 . S
C1241 C1242 1.317 . S
C1242 H1204 0.930 . S
C1242 C1210 1.432 . S
C1242 C1241 1.317 . S
C1243 O1227 1.283 . S
C1243 O1230 1.243 . S
C1244 C1245 1.382 . S
C1244 C1248 1.393 . S
C1244 C1251 1.500 . S
C1245 C1244 1.382 . S
C1245 C1246 1.400 . S
C1245 H1256 0.930 . S
C1246 C1245 1.400 . S
C1246 C1247 1.384 . S
C1247 C1246 1.384 . S
C1247 C1249 1.392 . S
C1247 H1257 0.931 . S
C1248 C1244 1.393 . S
C1248 C1249 1.401 . S
C1248 H1258 0.930 . S
C1249 C1247 1.392 . S
C1249 C1248 1.401 . S
C1249 H1259 0.930 . S
C1250 O1228 1.262 . S
C1250 O1229 1.260 1_655 S
C1251 Tb1187 2.833 . S
C1251 O1226 1.251 . S
C1251 O1231 1.256 . S
C1251 C1244 1.500 . S
H1252 C1235 0.930 . S
H1253 C1236 0.931 . S
H1254 C1237 0.930 . S
H1255 C1238 0.930 . S
H1256 C1245 0.930 . S
H1257 C1247 0.931 . S
H1258 C1248 0.930 . S
H1259 C1249 0.930 . S
Tb1260 N1291 2.660 . S
Tb1260 N1298 2.600 . S
Tb1260 O1304 2.546 . S
Tb1260 O1305 2.610 . S
Tb1260 O1307 2.320 . S
Tb1260 O1308 2.552 . S
Tb1260 O1309 2.413 . S
Tb1260 O1311 2.362 . S
Tb1260 O1312 2.421 . S
Tb1260 C1324 2.833 . S
C1261 C1264 1.432 1_455 S
C1261 C1265 1.414 1_455 S
C1261 N1268 1.359 . S
C1262 C1264 1.417 . S
C1262 C1266 1.432 . S
C1262 C1274 1.410 . S
C1263 C1265 1.444 . S
C1263 C1266 1.317 . S
C1263 H1286 0.929 . S
C1264 C1261 1.432 1_655 S
C1264 C1262 1.417 . S
C1264 N1272 1.360 1_655 S
C1265 C1261 1.414 1_655 S
C1265 C1263 1.444 . S
C1265 C1270 1.385 1_655 S
C1266 C1262 1.432 . S
C1266 C1263 1.317 . S
C1266 H1278 0.930 . S
C1267 C1269 1.392 . S
C1267 C1270 1.370 . S
C1267 H1279 0.931 . S
N1268 C1261 1.359 . S
N1268 C1269 1.327 . S
N1268 Tb1271 2.600 . S
C1269 C1267 1.392 . S
C1269 N1268 1.327 . S
C1269 H1276 0.930 . S
C1270 C1265 1.385 1_455 S
C1270 C1267 1.370 . S
C1270 H1289 0.930 1_455 S
Tb1271 N1268 2.600 . S
Tb1271 N1272 2.660 . S
Tb1271 O1305 2.362 . S
Tb1271 O1306 2.421 . S
Tb1271 O1310 2.546 . S
Tb1271 O1311 2.610 . S
Tb1271 O1313 2.320 . S
Tb1271 O1314 2.552 . S
Tb1271 O1315 2.413 . S
Tb1271 C1335 2.833 1_556 S
N1272 C1264 1.360 1_455 S
N1272 Tb1271 2.660 . S
N1272 C1273 1.305 . S
C1273 N1272 1.305 . S
C1273 C1275 1.407 1_455 S
C1273 H1280 0.930 . S
C1274 C1262 1.410 . S
C1274 C1275 1.345 . S
C1274 H1282 0.930 . S
C1275 C1273 1.407 1_655 S
C1275 C1274 1.345 . S
C1275 H1277 0.930 . S
H1276 C1269 0.930 . S
H1277 C1275 0.930 . S
H1278 C1266 0.930 . S
H1279 C1267 0.931 . S
H1280 C1273 0.930 . S
H1281 C1295 0.930 . S
H1282 C1274 0.930 . S
H1283 C1301 0.930 . S
H1284 C1292 0.930 . S
H1285 C1299 0.931 . S
H1286 C1263 0.929 . S
H1287 C1293 0.930 . S
H1288 C1326 0.930 . S
H1289 C1270 0.930 1_655 S
H1290 C1325 0.929 . S
N1291 Tb1260 2.660 . S
N1291 C1292 1.305 . S
N1291 C1296 1.360 . S
C1292 H1284 0.930 . S
C1292 N1291 1.305 . S
C1292 C1295 1.407 . S
C1293 H1287 0.930 . S
C1293 C1294 1.410 . S
C1293 C1295 1.345 . S
C1294 C1293 1.410 . S
C1294 C1296 1.417 . S
C1294 C1326 1.432 . S
C1295 H1281 0.930 . S
C1295 C1292 1.407 . S
C1295 C1293 1.345 . S
C1296 N1291 1.360 . S
C1296 C1294 1.417 . S
C1296 C1300 1.432 . S
H1297 C1302 0.930 . S
N1298 Tb1260 2.600 . S
N1298 C1300 1.359 . S
N1298 C1301 1.327 . S
C1299 H1285 0.931 . S
C1299 C1301 1.392 . S
C1299 C1302 1.370 . S
C1300 C1296 1.432 . S
C1300 N1298 1.359 . S
C1300 C1303 1.414 . S
C1301 H1283 0.930 . S
C1301 N1298 1.327 . S
C1301 C1299 1.392 . S
C1302 H1297 0.930 . S
C1302 C1299 1.370 . S
C1302 C1303 1.385 . S
C1303 C1300 1.414 . S
C1303 C1302 1.385 . S
C1303 C1325 1.444 . S
O1304 Tb1260 2.546 . S
O1304 C1324 1.251 . S
O1305 Tb1260 2.610 . S
O1305 Tb1271 2.362 . S
O1305 C1316 1.283 . S
O1306 Tb1271 2.421 . S
O1306 C1323 1.262 . S
O1307 Tb1260 2.320 . S
O1307 C1323 1.260 . S
O1308 Tb1260 2.552 . S
O1308 C1316 1.243 . S
O1309 Tb1260 2.413 . S
O1309 C1324 1.256 . S
O1310 Tb1271 2.546 . S
O1310 C1335 1.251 1_556 S
O1311 Tb1260 2.362 . S
O1311 Tb1271 2.610 . S
O1311 C1327 1.283 . S
O1312 Tb1260 2.421 . S
O1312 C1334 1.262 . S
O1313 Tb1271 2.320 . S
O1313 C1334 1.260 . S
O1314 Tb1271 2.552 . S
O1314 C1327 1.243 . S
O1315 Tb1271 2.413 . S
O1315 C1335 1.256 1_556 S
C1316 O1305 1.283 . S
C1316 O1308 1.243 . S
C1317 C1319 1.382 . S
C1317 C1321 1.393 . S
C1317 C1324 1.500 . S
C1318 C1319 1.400 . S
C1318 C1320 1.384 . S
C1319 C1317 1.382 . S
C1319 C1318 1.400 . S
C1319 H1336 0.930 . S
C1320 C1318 1.384 . S
C1320 C1322 1.392 . S
C1320 H1337 0.931 . S
C1321 C1317 1.393 . S
C1321 C1322 1.401 . S
C1321 H1338 0.930 . S
C1322 C1320 1.392 . S
C1322 C1321 1.401 . S
C1322 H1339 0.930 . S
C1323 O1306 1.262 . S
C1323 O1307 1.260 . S
C1324 Tb1260 2.833 . S
C1324 O1304 1.251 . S
C1324 O1309 1.256 . S
C1324 C1317 1.500 . S
C1325 H1290 0.929 . S
C1325 C1303 1.444 . S
C1325 C1326 1.317 . S
C1326 H1288 0.930 . S
C1326 C1294 1.432 . S
C1326 C1325 1.317 . S
C1327 O1311 1.283 . S
C1327 O1314 1.243 . S
C1328 C1329 1.382 . S
C1328 C1332 1.393 . S
C1328 C1335 1.500 . S
C1329 C1328 1.382 . S
C1329 C1330 1.400 . S
C1329 H1340 0.930 . S
C1330 C1329 1.400 . S
C1330 C1331 1.384 1_455 S
C1331 C1330 1.384 1_655 S
C1331 C1333 1.392 1_655 S
C1331 H1341 0.931 . S
C1332 C1328 1.393 . S
C1332 C1333 1.401 . S
C1332 H1342 0.930 . S
C1333 C1331 1.392 1_455 S
C1333 C1332 1.401 . S
C1333 H1343 0.930 1_455 S
C1334 O1312 1.262 . S
C1334 O1313 1.260 . S
C1335 Tb1271 2.833 1_554 S
C1335 O1310 1.251 1_554 S
C1335 O1315 1.256 1_554 S
C1335 C1328 1.500 . S
H1336 C1319 0.930 . S
H1337 C1320 0.931 . S
H1338 C1321 0.930 . S
H1339 C1322 0.930 . S
H1340 C1329 0.930 . S
H1341 C1331 0.931 . S
H1342 C1332 0.930 . S
H1343 C1333 0.930 1_655 S
Tb1344 N1375 2.660 . S
Tb1344 N1382 2.600 . S
Tb1344 O1388 2.546 . S
Tb1344 O1389 2.610 . S
Tb1344 O1391 2.320 . S
Tb1344 O1392 2.552 . S
Tb1344 O1393 2.413 . S
Tb1344 O1395 2.362 . S
Tb1344 O1396 2.421 . S
Tb1344 C1408 2.833 . S
C1345 C1348 1.432 . S
C1345 C1349 1.414 . S
C1345 N1352 1.359 . S
C1346 C1348 1.417 . S
C1346 C1350 1.432 . S
C1346 C1358 1.410 . S
C1347 C1349 1.444 . S
C1347 C1350 1.317 . S
C1347 H1370 0.929 . S
C1348 C1345 1.432 . S
C1348 C1346 1.417 . S
C1348 N1356 1.360 . S
C1349 C1345 1.414 . S
C1349 C1347 1.444 . S
C1349 C1354 1.385 . S
C1350 C1346 1.432 . S
C1350 C1347 1.317 . S
C1350 H1362 0.930 . S
C1351 C1353 1.392 . S
C1351 C1354 1.370 . S
C1351 H1363 0.931 . S
N1352 C1345 1.359 . S
N1352 C1353 1.327 . S
N1352 Tb1355 2.600 . S
C1353 C1351 1.392 . S
C1353 N1352 1.327 . S
C1353 H1360 0.930 . S
C1354 C1349 1.385 . S
C1354 C1351 1.370 . S
C1354 H1373 0.930 . S
Tb1355 N1352 2.600 . S
Tb1355 N1356 2.660 . S
Tb1355 O1389 2.362 . S
Tb1355 O1390 2.421 . S
Tb1355 O1394 2.546 . S
Tb1355 O1395 2.610 . S
Tb1355 O1397 2.320 . S
Tb1355 O1398 2.552 . S
Tb1355 O1399 2.413 . S
Tb1355 C1419 2.833 1_556 S
N1356 C1348 1.360 . S
N1356 Tb1355 2.660 . S
N1356 C1357 1.305 . S
C1357 N1356 1.305 . S
C1357 C1359 1.407 . S
C1357 H1364 0.930 . S
C1358 C1346 1.410 . S
C1358 C1359 1.345 . S
C1358 H1366 0.930 . S
C1359 C1357 1.407 . S
C1359 C1358 1.345 . S
C1359 H1361 0.930 . S
H1360 C1353 0.930 . S
H1361 C1359 0.930 . S
H1362 C1350 0.930 . S
H1363 C1351 0.931 . S
H1364 C1357 0.930 . S
H1365 C1379 0.930 . S
H1366 C1358 0.930 . S
H1367 C1385 0.930 . S
H1368 C1376 0.930 . S
H1369 C1383 0.931 . S
H1370 C1347 0.929 . S
H1371 C1377 0.930 . S
H1372 C1410 0.930 . S
H1373 C1354 0.930 . S
H1374 C1409 0.929 . S
N1375 Tb1344 2.660 . S
N1375 C1376 1.305 . S
N1375 C1380 1.360 . S
C1376 H1368 0.930 . S
C1376 N1375 1.305 . S
C1376 C1379 1.407 . S
C1377 H1371 0.930 . S
C1377 C1378 1.410 . S
C1377 C1379 1.345 . S
C1378 C1377 1.410 . S
C1378 C1380 1.417 . S
C1378 C1410 1.432 . S
C1379 H1365 0.930 . S
C1379 C1376 1.407 . S
C1379 C1377 1.345 . S
C1380 N1375 1.360 . S
C1380 C1378 1.417 . S
C1380 C1384 1.432 . S
H1381 C1386 0.930 . S
N1382 Tb1344 2.600 . S
N1382 C1384 1.359 . S
N1382 C1385 1.327 . S
C1383 H1369 0.931 . S
C1383 C1385 1.392 . S
C1383 C1386 1.370 . S
C1384 C1380 1.432 . S
C1384 N1382 1.359 . S
C1384 C1387 1.414 . S
C1385 H1367 0.930 . S
C1385 N1382 1.327 . S
C1385 C1383 1.392 . S
C1386 H1381 0.930 . S
C1386 C1383 1.370 . S
C1386 C1387 1.385 . S
C1387 C1384 1.414 . S
C1387 C1386 1.385 . S
C1387 C1409 1.444 . S
O1388 Tb1344 2.546 . S
O1388 C1408 1.251 . S
O1389 Tb1344 2.610 . S
O1389 Tb1355 2.362 . S
O1389 C1400 1.283 . S
O1390 Tb1355 2.421 . S
O1390 C1407 1.262 . S
O1391 Tb1344 2.320 . S
O1391 C1407 1.260 . S
O1392 Tb1344 2.552 . S
O1392 C1400 1.243 . S
O1393 Tb1344 2.413 . S
O1393 C1408 1.256 . S
O1394 Tb1355 2.546 . S
O1394 C1419 1.251 1_556 S
O1395 Tb1344 2.362 . S
O1395 Tb1355 2.610 . S
O1395 C1411 1.283 . S
O1396 Tb1344 2.421 . S
O1396 C1418 1.262 . S
O1397 Tb1355 2.320 . S
O1397 C1418 1.260 . S
O1398 Tb1355 2.552 . S
O1398 C1411 1.243 . S
O1399 Tb1355 2.413 . S
O1399 C1419 1.256 1_556 S
C1400 O1389 1.283 . S
C1400 O1392 1.243 . S
C1401 C1403 1.382 . S
C1401 C1405 1.393 . S
C1401 C1408 1.500 . S
C1402 C1403 1.400 . S
C1402 C1404 1.384 . S
C1403 C1401 1.382 . S
C1403 C1402 1.400 . S
C1403 H1420 0.930 . S
C1404 C1402 1.384 . S
C1404 C1406 1.392 . S
C1404 H1421 0.931 . S
C1405 C1401 1.393 . S
C1405 C1406 1.401 . S
C1405 H1422 0.930 . S
C1406 C1404 1.392 . S
C1406 C1405 1.401 . S
C1406 H1423 0.930 . S
C1407 O1390 1.262 . S
C1407 O1391 1.260 . S
C1408 Tb1344 2.833 . S
C1408 O1388 1.251 . S
C1408 O1393 1.256 . S
C1408 C1401 1.500 . S
C1409 H1374 0.929 . S
C1409 C1387 1.444 . S
C1409 C1410 1.317 . S
C1410 H1372 0.930 . S
C1410 C1378 1.432 . S
C1410 C1409 1.317 . S
C1411 O1395 1.283 . S
C1411 O1398 1.243 . S
C1412 C1413 1.382 . S
C1412 C1416 1.393 . S
C1412 C1419 1.500 . S
C1413 C1412 1.382 . S
C1413 C1414 1.400 . S
C1413 H1424 0.930 . S
C1414 C1413 1.400 . S
C1414 C1415 1.384 . S
C1415 C1414 1.384 . S
C1415 C1417 1.392 . S
C1415 H1425 0.931 . S
C1416 C1412 1.393 . S
C1416 C1417 1.401 . S
C1416 H1426 0.930 . S
C1417 C1415 1.392 . S
C1417 C1416 1.401 . S
C1417 H1427 0.930 . S
C1418 O1396 1.262 . S
C1418 O1397 1.260 . S
C1419 Tb1355 2.833 1_554 S
C1419 O1394 1.251 1_554 S
C1419 O1399 1.256 1_554 S
C1419 C1412 1.500 . S
H1420 C1403 0.930 . S
H1421 C1404 0.931 . S
H1422 C1405 0.930 . S
H1423 C1406 0.930 . S
H1424 C1413 0.930 . S
H1425 C1415 0.931 . S
H1426 C1416 0.930 . S
H1427 C1417 0.930 . S
Tb1428 N1459 2.660 . S
Tb1428 N1466 2.600 . S
Tb1428 O1472 2.546 . S
Tb1428 O1473 2.610 . S
Tb1428 O1475 2.320 . S
Tb1428 O1476 2.552 . S
Tb1428 O1477 2.413 . S
Tb1428 O1479 2.362 . S
Tb1428 O1480 2.421 . S
Tb1428 C1492 2.833 . S
C1429 C1432 1.432 1_565 S
C1429 C1433 1.414 1_565 S
C1429 N1436 1.359 . S
C1430 C1432 1.417 . S
C1430 C1434 1.432 . S
C1430 C1442 1.410 . S
C1431 C1433 1.444 . S
C1431 C1434 1.317 . S
C1431 H1454 0.929 . S
C1432 C1429 1.432 1_545 S
C1432 C1430 1.417 . S
C1432 N1440 1.360 1_545 S
C1433 C1429 1.414 1_545 S
C1433 C1431 1.444 . S
C1433 C1438 1.385 1_545 S
C1434 C1430 1.432 . S
C1434 C1431 1.317 . S
C1434 H1446 0.930 . S
C1435 C1437 1.392 . S
C1435 C1438 1.370 . S
C1435 H1447 0.931 . S
N1436 C1429 1.359 . S
N1436 C1437 1.327 . S
N1436 Tb1439 2.600 . S
C1437 C1435 1.392 . S
C1437 N1436 1.327 . S
C1437 H1444 0.930 . S
C1438 C1433 1.385 1_565 S
C1438 C1435 1.370 . S
C1438 H1457 0.930 1_565 S
Tb1439 N1436 2.600 . S
Tb1439 N1440 2.660 . S
Tb1439 O1473 2.362 . S
Tb1439 O1474 2.421 . S
Tb1439 O1478 2.546 . S
Tb1439 O1479 2.610 . S
Tb1439 O1481 2.320 . S
Tb1439 O1482 2.552 . S
Tb1439 O1483 2.413 . S
Tb1439 C1503 2.833 1_556 S
N1440 C1432 1.360 1_565 S
N1440 Tb1439 2.660 . S
N1440 C1441 1.305 . S
C1441 N1440 1.305 . S
C1441 C1443 1.407 1_565 S
C1441 H1448 0.930 . S
C1442 C1430 1.410 . S
C1442 C1443 1.345 . S
C1442 H1450 0.930 . S
C1443 C1441 1.407 1_545 S
C1443 C1442 1.345 . S
C1443 H1445 0.930 . S
H1444 C1437 0.930 . S
H1445 C1443 0.930 . S
H1446 C1434 0.930 . S
H1447 C1435 0.931 . S
H1448 C1441 0.930 . S
H1449 C1463 0.930 . S
H1450 C1442 0.930 . S
H1451 C1469 0.930 . S
H1452 C1460 0.930 . S
H1453 C1467 0.931 . S
H1454 C1431 0.929 . S
H1455 C1461 0.930 . S
H1456 C1494 0.930 . S
H1457 C1438 0.930 1_545 S
H1458 C1493 0.929 . S
N1459 Tb1428 2.660 . S
N1459 C1460 1.305 . S
N1459 C1464 1.360 . S
C1460 H1452 0.930 . S
C1460 N1459 1.305 . S
C1460 C1463 1.407 . S
C1461 H1455 0.930 . S
C1461 C1462 1.410 . S
C1461 C1463 1.345 . S
C1462 C1461 1.410 . S
C1462 C1464 1.417 . S
C1462 C1494 1.432 . S
C1463 H1449 0.930 . S
C1463 C1460 1.407 . S
C1463 C1461 1.345 . S
C1464 N1459 1.360 . S
C1464 C1462 1.417 . S
C1464 C1468 1.432 . S
H1465 C1470 0.930 . S
N1466 Tb1428 2.600 . S
N1466 C1468 1.359 . S
N1466 C1469 1.327 . S
C1467 H1453 0.931 . S
C1467 C1469 1.392 . S
C1467 C1470 1.370 . S
C1468 C1464 1.432 . S
C1468 N1466 1.359 . S
C1468 C1471 1.414 . S
C1469 H1451 0.930 . S
C1469 N1466 1.327 . S
C1469 C1467 1.392 . S
C1470 H1465 0.930 . S
C1470 C1467 1.370 . S
C1470 C1471 1.385 . S
C1471 C1468 1.414 . S
C1471 C1470 1.385 . S
C1471 C1493 1.444 . S
O1472 Tb1428 2.546 . S
O1472 C1492 1.251 . S
O1473 Tb1428 2.610 . S
O1473 Tb1439 2.362 . S
O1473 C1484 1.283 . S
O1474 Tb1439 2.421 . S
O1474 C1491 1.262 . S
O1475 Tb1428 2.320 . S
O1475 C1491 1.260 . S
O1476 Tb1428 2.552 . S
O1476 C1484 1.243 . S
O1477 Tb1428 2.413 . S
O1477 C1492 1.256 . S
O1478 Tb1439 2.546 . S
O1478 C1503 1.251 1_556 S
O1479 Tb1428 2.362 . S
O1479 Tb1439 2.610 . S
O1479 C1495 1.283 . S
O1480 Tb1428 2.421 . S
O1480 C1502 1.262 . S
O1481 Tb1439 2.320 . S
O1481 C1502 1.260 . S
O1482 Tb1439 2.552 . S
O1482 C1495 1.243 . S
O1483 Tb1439 2.413 . S
O1483 C1503 1.256 1_556 S
C1484 O1473 1.283 . S
C1484 O1476 1.243 . S
C1485 C1487 1.382 . S
C1485 C1489 1.393 . S
C1485 C1492 1.500 . S
C1486 C1487 1.400 . S
C1486 C1488 1.384 . S
C1487 C1485 1.382 . S
C1487 C1486 1.400 . S
C1487 H1504 0.930 . S
C1488 C1486 1.384 . S
C1488 C1490 1.392 . S
C1488 H1505 0.931 . S
C1489 C1485 1.393 . S
C1489 C1490 1.401 . S
C1489 H1506 0.930 . S
C1490 C1488 1.392 . S
C1490 C1489 1.401 . S
C1490 H1507 0.930 . S
C1491 O1474 1.262 . S
C1491 O1475 1.260 . S
C1492 Tb1428 2.833 . S
C1492 O1472 1.251 . S
C1492 O1477 1.256 . S
C1492 C1485 1.500 . S
C1493 H1458 0.929 . S
C1493 C1471 1.444 . S
C1493 C1494 1.317 . S
C1494 H1456 0.930 . S
C1494 C1462 1.432 . S
C1494 C1493 1.317 . S
C1495 O1479 1.283 . S
C1495 O1482 1.243 . S
C1496 C1497 1.382 . S
C1496 C1500 1.393 . S
C1496 C1503 1.500 . S
C1497 C1496 1.382 . S
C1497 C1498 1.400 . S
C1497 H1508 0.930 . S
C1498 C1497 1.400 . S
C1498 C1499 1.384 1_565 S
C1499 C1498 1.384 1_545 S
C1499 C1501 1.392 1_545 S
C1499 H1509 0.931 . S
C1500 C1496 1.393 . S
C1500 C1501 1.401 . S
C1500 H1510 0.930 . S
C1501 C1499 1.392 1_565 S
C1501 C1500 1.401 . S
C1501 H1511 0.930 1_565 S
C1502 O1480 1.262 . S
C1502 O1481 1.260 . S
C1503 Tb1439 2.833 1_554 S
C1503 O1478 1.251 1_554 S
C1503 O1483 1.256 1_554 S
C1503 C1496 1.500 . S
H1504 C1487 0.930 . S
H1505 C1488 0.931 . S
H1506 C1489 0.930 . S
H1507 C1490 0.930 . S
H1508 C1497 0.930 . S
H1509 C1499 0.931 . S
H1510 C1500 0.930 . S
H1511 C1501 0.930 1_545 S
Tb1512 N1543 2.660 . S
Tb1512 N1550 2.600 . S
Tb1512 O1556 2.546 . S
Tb1512 O1557 2.610 . S
Tb1512 O1559 2.320 . S
Tb1512 O1560 2.552 . S
Tb1512 O1561 2.413 . S
Tb1512 O1563 2.362 . S
Tb1512 O1564 2.421 . S
Tb1512 C1576 2.833 . S
C1513 C1516 1.432 . S
C1513 C1517 1.414 . S
C1513 N1520 1.359 . S
C1514 C1516 1.417 . S
C1514 C1518 1.432 . S
C1514 C1526 1.410 . S
C1515 C1517 1.444 . S
C1515 C1518 1.317 . S
C1515 H1538 0.929 . S
C1516 C1513 1.432 . S
C1516 C1514 1.417 . S
C1516 N1524 1.360 . S
C1517 C1513 1.414 . S
C1517 C1515 1.444 . S
C1517 C1522 1.385 . S
C1518 C1514 1.432 . S
C1518 C1515 1.317 . S
C1518 H1530 0.930 . S
C1519 C1521 1.392 . S
C1519 C1522 1.370 . S
C1519 H1531 0.931 . S
N1520 C1513 1.359 . S
N1520 C1521 1.327 . S
N1520 Tb1523 2.600 . S
C1521 C1519 1.392 . S
C1521 N1520 1.327 . S
C1521 H1528 0.930 . S
C1522 C1517 1.385 . S
C1522 C1519 1.370 . S
C1522 H1541 0.930 . S
Tb1523 N1520 2.600 . S
Tb1523 N1524 2.660 . S
Tb1523 O1557 2.362 . S
Tb1523 O1558 2.421 . S
Tb1523 O1562 2.546 . S
Tb1523 O1563 2.610 . S
Tb1523 O1565 2.320 . S
Tb1523 O1566 2.552 . S
Tb1523 O1567 2.413 . S
Tb1523 C1587 2.833 . S
N1524 C1516 1.360 . S
N1524 Tb1523 2.660 . S
N1524 C1525 1.305 . S
C1525 N1524 1.305 . S
C1525 C1527 1.407 . S
C1525 H1532 0.930 . S
C1526 C1514 1.410 . S
C1526 C1527 1.345 . S
C1526 H1534 0.930 . S
C1527 C1525 1.407 . S
C1527 C1526 1.345 . S
C1527 H1529 0.930 . S
H1528 C1521 0.930 . S
H1529 C1527 0.930 . S
H1530 C1518 0.930 . S
H1531 C1519 0.931 . S
H1532 C1525 0.930 . S
H1533 C1547 0.930 . S
H1534 C1526 0.930 . S
H1535 C1553 0.930 . S
H1536 C1544 0.930 . S
H1537 C1551 0.931 . S
H1538 C1515 0.929 . S
H1539 C1545 0.930 . S
H1540 C1578 0.930 . S
H1541 C1522 0.930 . S
H1542 C1577 0.929 . S
N1543 Tb1512 2.660 . S
N1543 C1544 1.305 . S
N1543 C1548 1.360 1_565 S
C1544 H1536 0.930 . S
C1544 N1543 1.305 . S
C1544 C1547 1.407 1_565 S
C1545 H1539 0.930 . S
C1545 C1546 1.410 . S
C1545 C1547 1.345 . S
C1546 C1545 1.410 . S
C1546 C1548 1.417 . S
C1546 C1578 1.432 . S
C1547 H1533 0.930 . S
C1547 C1544 1.407 1_545 S
C1547 C1545 1.345 . S
C1548 N1543 1.360 1_545 S
C1548 C1546 1.417 . S
C1548 C1552 1.432 1_545 S
H1549 C1554 0.930 1_545 S
N1550 Tb1512 2.600 . S
N1550 C1552 1.359 . S
N1550 C1553 1.327 . S
C1551 H1537 0.931 . S
C1551 C1553 1.392 . S
C1551 C1554 1.370 . S
C1552 C1548 1.432 1_565 S
C1552 N1550 1.359 . S
C1552 C1555 1.414 1_565 S
C1553 H1535 0.930 . S
C1553 N1550 1.327 . S
C1553 C1551 1.392 . S
C1554 H1549 0.930 1_565 S
C1554 C1551 1.370 . S
C1554 C1555 1.385 1_565 S
C1555 C1552 1.414 1_545 S
C1555 C1554 1.385 1_545 S
C1555 C1577 1.444 . S
O1556 Tb1512 2.546 . S
O1556 C1576 1.251 . S
O1557 Tb1512 2.610 . S
O1557 Tb1523 2.362 . S
O1557 C1568 1.283 . S
O1558 Tb1523 2.421 . S
O1558 C1575 1.262 . S
O1559 Tb1512 2.320 . S
O1559 C1575 1.260 . S
O1560 Tb1512 2.552 . S
O1560 C1568 1.243 . S
O1561 Tb1512 2.413 . S
O1561 C1576 1.256 . S
O1562 Tb1523 2.546 . S
O1562 C1587 1.251 . S
O1563 Tb1512 2.362 . S
O1563 Tb1523 2.610 . S
O1563 C1579 1.283 . S
O1564 Tb1512 2.421 . S
O1564 C1586 1.262 . S
O1565 Tb1523 2.320 . S
O1565 C1586 1.260 . S
O1566 Tb1523 2.552 . S
O1566 C1579 1.243 . S
O1567 Tb1523 2.413 . S
O1567 C1587 1.256 . S
C1568 O1557 1.283 . S
C1568 O1560 1.243 . S
C1569 C1571 1.382 . S
C1569 C1573 1.393 . S
C1569 C1576 1.500 . S
C1570 C1571 1.400 . S
C1570 C1572 1.384 1_565 S
C1571 C1569 1.382 . S
C1571 C1570 1.400 . S
C1571 H1588 0.930 . S
C1572 C1570 1.384 1_545 S
C1572 C1574 1.392 1_545 S
C1572 H1589 0.931 . S
C1573 C1569 1.393 . S
C1573 C1574 1.401 . S
C1573 H1590 0.930 . S
C1574 C1572 1.392 1_565 S
C1574 C1573 1.401 . S
C1574 H1591 0.930 1_565 S
C1575 O1558 1.262 . S
C1575 O1559 1.260 . S
C1576 Tb1512 2.833 . S
C1576 O1556 1.251 . S
C1576 O1561 1.256 . S
C1576 C1569 1.500 . S
C1577 H1542 0.929 . S
C1577 C1555 1.444 . S
C1577 C1578 1.317 . S
C1578 H1540 0.930 . S
C1578 C1546 1.432 . S
C1578 C1577 1.317 . S
C1579 O1563 1.283 . S
C1579 O1566 1.243 . S
C1580 C1581 1.382 . S
C1580 C1584 1.393 . S
C1580 C1587 1.500 . S
C1581 C1580 1.382 . S
C1581 C1582 1.400 1_554 S
C1581 H1592 0.930 . S
C1582 C1581 1.400 1_556 S
C1582 C1583 1.384 . S
C1583 C1582 1.384 . S
C1583 C1585 1.392 1_556 S
C1583 H1593 0.931 . S
C1584 C1580 1.393 . S
C1584 C1585 1.401 . S
C1584 H1594 0.930 . S
C1585 C1583 1.392 1_554 S
C1585 C1584 1.401 . S
C1585 H1595 0.930 . S
C1586 O1564 1.262 . S
C1586 O1565 1.260 . S
C1587 Tb1523 2.833 . S
C1587 O1562 1.251 . S
C1587 O1567 1.256 . S
C1587 C1580 1.500 . S
H1588 C1571 0.930 . S
H1589 C1572 0.931 . S
H1590 C1573 0.930 . S
H1591 C1574 0.930 1_545 S
H1592 C1581 0.930 . S
H1593 C1583 0.931 . S
H1594 C1584 0.930 . S
H1595 C1585 0.930 . S
Tb1596 N1627 2.660 . S
Tb1596 N1634 2.600 . S
Tb1596 O1640 2.546 . S
Tb1596 O1641 2.610 . S
Tb1596 O1643 2.320 . S
Tb1596 O1644 2.552 . S
Tb1596 O1645 2.413 . S
Tb1596 O1647 2.362 . S
Tb1596 O1648 2.421 . S
Tb1596 C1660 2.833 . S
C1597 C1600 1.432 . S
C1597 C1601 1.414 . S
C1597 N1604 1.359 . S
C1598 C1600 1.417 . S
C1598 C1602 1.432 . S
C1598 C1610 1.410 . S
C1599 C1601 1.444 . S
C1599 C1602 1.317 . S
C1599 H1622 0.929 . S
C1600 C1597 1.432 . S
C1600 C1598 1.417 . S
C1600 N1608 1.360 . S
C1601 C1597 1.414 . S
C1601 C1599 1.444 . S
C1601 C1606 1.385 . S
C1602 C1598 1.432 . S
C1602 C1599 1.317 . S
C1602 H1614 0.930 . S
C1603 C1605 1.392 . S
C1603 C1606 1.370 . S
C1603 H1615 0.931 . S
N1604 C1597 1.359 . S
N1604 C1605 1.327 . S
N1604 Tb1607 2.600 . S
C1605 C1603 1.392 . S
C1605 N1604 1.327 . S
C1605 H1612 0.930 . S
C1606 C1601 1.385 . S
C1606 C1603 1.370 . S
C1606 H1625 0.930 . S
Tb1607 N1604 2.600 . S
Tb1607 N1608 2.660 . S
Tb1607 O1641 2.362 . S
Tb1607 O1642 2.421 . S
Tb1607 O1646 2.546 . S
Tb1607 O1647 2.610 . S
Tb1607 O1649 2.320 . S
Tb1607 O1650 2.552 . S
Tb1607 O1651 2.413 . S
Tb1607 C1671 2.833 . S
N1608 C1600 1.360 . S
N1608 Tb1607 2.660 . S
N1608 C1609 1.305 . S
C1609 N1608 1.305 . S
C1609 C1611 1.407 . S
C1609 H1616 0.930 . S
C1610 C1598 1.410 . S
C1610 C1611 1.345 . S
C1610 H1618 0.930 . S
C1611 C1609 1.407 . S
C1611 C1610 1.345 . S
C1611 H1613 0.930 . S
H1612 C1605 0.930 . S
H1613 C1611 0.930 . S
H1614 C1602 0.930 . S
H1615 C1603 0.931 . S
H1616 C1609 0.930 . S
H1617 C1631 0.930 . S
H1618 C1610 0.930 . S
H1619 C1637 0.930 . S
H1620 C1628 0.930 . S
H1621 C1635 0.931 . S
H1622 C1599 0.929 . S
H1623 C1629 0.930 . S
H1624 C1662 0.930 . S
H1625 C1606 0.930 . S
H1626 C1661 0.929 . S
N1627 Tb1596 2.660 . S
N1627 C1628 1.305 . S
N1627 C1632 1.360 1_455 S
C1628 H1620 0.930 . S
C1628 N1627 1.305 . S
C1628 C1631 1.407 1_455 S
C1629 H1623 0.930 . S
C1629 C1630 1.410 . S
C1629 C1631 1.345 . S
C1630 C1629 1.410 . S
C1630 C1632 1.417 . S
C1630 C1662 1.432 . S
C1631 H1617 0.930 . S
C1631 C1628 1.407 1_655 S
C1631 C1629 1.345 . S
C1632 N1627 1.360 1_655 S
C1632 C1630 1.417 . S
C1632 C1636 1.432 1_655 S
H1633 C1638 0.930 1_655 S
N1634 Tb1596 2.600 . S
N1634 C1636 1.359 . S
N1634 C1637 1.327 . S
C1635 H1621 0.931 . S
C1635 C1637 1.392 . S
C1635 C1638 1.370 . S
C1636 C1632 1.432 1_455 S
C1636 N1634 1.359 . S
C1636 C1639 1.414 1_455 S
C1637 H1619 0.930 . S
C1637 N1634 1.327 . S
C1637 C1635 1.392 . S
C1638 H1633 0.930 1_455 S
C1638 C1635 1.370 . S
C1638 C1639 1.385 1_455 S
C1639 C1636 1.414 1_655 S
C1639 C1638 1.385 1_655 S
C1639 C1661 1.444 . S
O1640 Tb1596 2.546 . S
O1640 C1660 1.251 . S
O1641 Tb1596 2.610 . S
O1641 Tb1607 2.362 . S
O1641 C1652 1.283 . S
O1642 Tb1607 2.421 . S
O1642 C1659 1.262 . S
O1643 Tb1596 2.320 . S
O1643 C1659 1.260 . S
O1644 Tb1596 2.552 . S
O1644 C1652 1.243 . S
O1645 Tb1596 2.413 . S
O1645 C1660 1.256 . S
O1646 Tb1607 2.546 . S
O1646 C1671 1.251 . S
O1647 Tb1596 2.362 . S
O1647 Tb1607 2.610 . S
O1647 C1663 1.283 . S
O1648 Tb1596 2.421 . S
O1648 C1670 1.262 . S
O1649 Tb1607 2.320 . S
O1649 C1670 1.260 . S
O1650 Tb1607 2.552 . S
O1650 C1663 1.243 . S
O1651 Tb1607 2.413 . S
O1651 C1671 1.256 . S
C1652 O1641 1.283 . S
C1652 O1644 1.243 . S
C1653 C1655 1.382 . S
C1653 C1657 1.393 . S
C1653 C1660 1.500 . S
C1654 C1655 1.400 . S
C1654 C1656 1.384 1_455 S
C1655 C1653 1.382 . S
C1655 C1654 1.400 . S
C1655 H1672 0.930 . S
C1656 C1654 1.384 1_655 S
C1656 C1658 1.392 1_655 S
C1656 H1673 0.931 . S
C1657 C1653 1.393 . S
C1657 C1658 1.401 . S
C1657 H1674 0.930 . S
C1658 C1656 1.392 1_455 S
C1658 C1657 1.401 . S
C1658 H1675 0.930 1_455 S
C1659 O1642 1.262 . S
C1659 O1643 1.260 . S
C1660 Tb1596 2.833 . S
C1660 O1640 1.251 . S
C1660 O1645 1.256 . S
C1660 C1653 1.500 . S
C1661 H1626 0.929 . S
C1661 C1639 1.444 . S
C1661 C1662 1.317 . S
C1662 H1624 0.930 . S
C1662 C1630 1.432 . S
C1662 C1661 1.317 . S
C1663 O1647 1.283 . S
C1663 O1650 1.243 . S
C1664 C1665 1.382 . S
C1664 C1668 1.393 . S
C1664 C1671 1.500 . S
C1665 C1664 1.382 . S
C1665 C1666 1.400 1_554 S
C1665 H1676 0.930 . S
C1666 C1665 1.400 1_556 S
C1666 C1667 1.384 . S
C1667 C1666 1.384 . S
C1667 C1669 1.392 1_556 S
C1667 H1677 0.931 . S
C1668 C1664 1.393 . S
C1668 C1669 1.401 . S
C1668 H1678 0.930 . S
C1669 C1667 1.392 1_554 S
C1669 C1668 1.401 . S
C1669 H1679 0.930 . S
C1670 O1648 1.262 . S
C1670 O1649 1.260 . S
C1671 Tb1607 2.833 . S
C1671 O1646 1.251 . S
C1671 O1651 1.256 . S
C1671 C1664 1.500 . S
H1672 C1655 0.930 . S
H1673 C1656 0.931 . S
H1674 C1657 0.930 . S
H1675 C1658 0.930 1_655 S
H1676 C1665 0.930 . S
H1677 C1667 0.931 . S
H1678 C1668 0.930 . S
H1679 C1669 0.930 . S
Tb1680 N1711 2.660 . S
Tb1680 N1718 2.600 . S
Tb1680 O1724 2.546 . S
Tb1680 O1725 2.610 . S
Tb1680 O1727 2.320 . S
Tb1680 O1728 2.552 . S
Tb1680 O1729 2.413 . S
Tb1680 O1731 2.362 . S
Tb1680 O1732 2.421 . S
Tb1680 C1744 2.833 . S
C1681 C1684 1.432 . S
C1681 C1685 1.414 . S
C1681 N1688 1.359 . S
C1682 C1684 1.417 . S
C1682 C1686 1.432 . S
C1682 C1694 1.410 . S
C1683 C1685 1.444 . S
C1683 C1686 1.317 . S
C1683 H1706 0.929 . S
C1684 C1681 1.432 . S
C1684 C1682 1.417 . S
C1684 N1692 1.360 . S
C1685 C1681 1.414 . S
C1685 C1683 1.444 . S
C1685 C1690 1.385 . S
C1686 C1682 1.432 . S
C1686 C1683 1.317 . S
C1686 H1698 0.930 . S
C1687 C1689 1.392 . S
C1687 C1690 1.370 . S
C1687 H1699 0.931 . S
N1688 C1681 1.359 . S
N1688 C1689 1.327 . S
N1688 Tb1691 2.600 . S
C1689 C1687 1.392 . S
C1689 N1688 1.327 . S
C1689 H1696 0.930 . S
C1690 C1685 1.385 . S
C1690 C1687 1.370 . S
C1690 H1709 0.930 . S
Tb1691 N1688 2.600 . S
Tb1691 N1692 2.660 . S
Tb1691 O1725 2.362 . S
Tb1691 O1726 2.421 . S
Tb1691 O1730 2.546 . S
Tb1691 O1731 2.610 . S
Tb1691 O1733 2.320 . S
Tb1691 O1734 2.552 . S
Tb1691 O1735 2.413 . S
Tb1691 C1755 2.833 . S
N1692 C1684 1.360 . S
N1692 Tb1691 2.660 . S
N1692 C1693 1.305 . S
C1693 N1692 1.305 . S
C1693 C1695 1.407 . S
C1693 H1700 0.930 . S
C1694 C1682 1.410 . S
C1694 C1695 1.345 . S
C1694 H1702 0.930 . S
C1695 C1693 1.407 . S
C1695 C1694 1.345 . S
C1695 H1697 0.930 . S
H1696 C1689 0.930 . S
H1697 C1695 0.930 . S
H1698 C1686 0.930 . S
H1699 C1687 0.931 . S
H1700 C1693 0.930 . S
H1701 C1715 0.930 . S
H1702 C1694 0.930 . S
H1703 C1721 0.930 . S
H1704 C1712 0.930 . S
H1705 C1719 0.931 . S
H1706 C1683 0.929 . S
H1707 C1713 0.930 . S
H1708 C1746 0.930 . S
H1709 C1690 0.930 . S
H1710 C1745 0.929 . S
N1711 Tb1680 2.660 . S
N1711 C1712 1.305 . S
N1711 C1716 1.360 . S
C1712 H1704 0.930 . S
C1712 N1711 1.305 . S
C1712 C1715 1.407 . S
C1713 H1707 0.930 . S
C1713 C1714 1.410 . S
C1713 C1715 1.345 . S
C1714 C1713 1.410 . S
C1714 C1716 1.417 . S
C1714 C1746 1.432 . S
C1715 H1701 0.930 . S
C1715 C1712 1.407 . S
C1715 C1713 1.345 . S
C1716 N1711 1.360 . S
C1716 C1714 1.417 . S
C1716 C1720 1.432 . S
H1717 C1722 0.930 . S
N1718 Tb1680 2.600 . S
N1718 C1720 1.359 . S
N1718 C1721 1.327 . S
C1719 H1705 0.931 . S
C1719 C1721 1.392 . S
C1719 C1722 1.370 . S
C1720 C1716 1.432 . S
C1720 N1718 1.359 . S
C1720 C1723 1.414 . S
C1721 H1703 0.930 . S
C1721 N1718 1.327 . S
C1721 C1719 1.392 . S
C1722 H1717 0.930 . S
C1722 C1719 1.370 . S
C1722 C1723 1.385 . S
C1723 C1720 1.414 . S
C1723 C1722 1.385 . S
C1723 C1745 1.444 . S
O1724 Tb1680 2.546 . S
O1724 C1744 1.251 . S
O1725 Tb1680 2.610 . S
O1725 Tb1691 2.362 . S
O1725 C1736 1.283 . S
O1726 Tb1691 2.421 . S
O1726 C1743 1.262 . S
O1727 Tb1680 2.320 . S
O1727 C1743 1.260 . S
O1728 Tb1680 2.552 . S
O1728 C1736 1.243 . S
O1729 Tb1680 2.413 . S
O1729 C1744 1.256 . S
O1730 Tb1691 2.546 . S
O1730 C1755 1.251 . S
O1731 Tb1680 2.362 . S
O1731 Tb1691 2.610 . S
O1731 C1747 1.283 . S
O1732 Tb1680 2.421 . S
O1732 C1754 1.262 . S
O1733 Tb1691 2.320 . S
O1733 C1754 1.260 . S
O1734 Tb1691 2.552 . S
O1734 C1747 1.243 . S
O1735 Tb1691 2.413 . S
O1735 C1755 1.256 . S
C1736 O1725 1.283 . S
C1736 O1728 1.243 . S
C1737 C1739 1.382 . S
C1737 C1741 1.393 . S
C1737 C1744 1.500 . S
C1738 C1739 1.400 . S
C1738 C1740 1.384 . S
C1739 C1737 1.382 . S
C1739 C1738 1.400 . S
C1739 H1756 0.930 . S
C1740 C1738 1.384 . S
C1740 C1742 1.392 . S
C1740 H1757 0.931 . S
C1741 C1737 1.393 . S
C1741 C1742 1.401 . S
C1741 H1758 0.930 . S
C1742 C1740 1.392 . S
C1742 C1741 1.401 . S
C1742 H1759 0.930 . S
C1743 O1726 1.262 . S
C1743 O1727 1.260 . S
C1744 Tb1680 2.833 . S
C1744 O1724 1.251 . S
C1744 O1729 1.256 . S
C1744 C1737 1.500 . S
C1745 H1710 0.929 . S
C1745 C1723 1.444 . S
C1745 C1746 1.317 . S
C1746 H1708 0.930 . S
C1746 C1714 1.432 . S
C1746 C1745 1.317 . S
C1747 O1731 1.283 . S
C1747 O1734 1.243 . S
C1748 C1749 1.382 . S
C1748 C1752 1.393 . S
C1748 C1755 1.500 . S
C1749 C1748 1.382 . S
C1749 C1750 1.400 1_554 S
C1749 H1760 0.930 . S
C1750 C1749 1.400 1_556 S
C1750 C1751 1.384 . S
C1751 C1750 1.384 . S
C1751 C1753 1.392 1_556 S
C1751 H1761 0.931 . S
C1752 C1748 1.393 . S
C1752 C1753 1.401 . S
C1752 H1762 0.930 . S
C1753 C1751 1.392 1_554 S
C1753 C1752 1.401 . S
C1753 H1763 0.930 . S
C1754 O1732 1.262 . S
C1754 O1733 1.260 . S
C1755 Tb1691 2.833 . S
C1755 O1730 1.251 . S
C1755 O1735 1.256 . S
C1755 C1748 1.500 . S
H1756 C1739 0.930 . S
H1757 C1740 0.931 . S
H1758 C1741 0.930 . S
H1759 C1742 0.930 . S
H1760 C1749 0.930 . S
H1761 C1751 0.931 . S
H1762 C1752 0.930 . S
H1763 C1753 0.930 . S
Tb1764 N1795 2.660 . S
Tb1764 N1802 2.600 . S
Tb1764 O1808 2.546 . S
Tb1764 O1809 2.610 . S
Tb1764 O1811 2.320 . S
Tb1764 O1812 2.552 . S
Tb1764 O1813 2.413 . S
Tb1764 O1815 2.362 1_556 S
Tb1764 O1816 2.421 . S
Tb1764 C1828 2.833 . S
C1765 C1768 1.432 . S
C1765 C1769 1.414 . S
C1765 N1772 1.359 . S
C1766 C1768 1.417 . S
C1766 C1770 1.432 1_455 S
C1766 C1778 1.410 . S
C1767 C1769 1.444 . S
C1767 C1770 1.317 1_455 S
C1767 H1790 0.929 1_455 S
C1768 C1765 1.432 . S
C1768 C1766 1.417 . S
C1768 N1776 1.360 . S
C1769 C1765 1.414 . S
C1769 C1767 1.444 . S
C1769 C1774 1.385 . S
C1770 C1766 1.432 1_655 S
C1770 C1767 1.317 1_655 S
C1770 H1782 0.930 . S
C1771 C1773 1.393 . S
C1771 C1774 1.370 . S
C1771 H1783 0.931 1_556 S
N1772 C1765 1.359 . S
N1772 C1773 1.328 . S
N1772 Tb1775 2.600 1_556 S
C1773 C1771 1.393 . S
C1773 N1772 1.328 . S
C1773 H1780 0.928 1_556 S
C1774 C1769 1.385 . S
C1774 C1771 1.370 . S
C1774 H1793 0.930 . S
Tb1775 N1772 2.600 1_554 S
Tb1775 N1776 2.660 1_554 S
Tb1775 O1809 2.362 1_554 S
Tb1775 O1810 2.421 1_554 S
Tb1775 O1814 2.546 . S
Tb1775 O1815 2.610 . S
Tb1775 O1817 2.320 . S
Tb1775 O1818 2.552 . S
Tb1775 O1819 2.413 . S
Tb1775 C1839 2.833 . S
N1776 C1768 1.360 . S
N1776 Tb1775 2.660 1_556 S
N1776 C1777 1.305 . S
C1777 N1776 1.305 . S
C1777 C1779 1.407 . S
C1777 H1784 0.930 . S
C1778 C1766 1.410 . S
C1778 C1779 1.345 . S
C1778 H1786 0.930 1_455 S
C1779 C1777 1.407 . S
C1779 C1778 1.345 . S
C1779 H1781 0.930 . S
H1780 C1773 0.928 1_554 S
H1781 C1779 0.930 . S
H1782 C1770 0.930 . S
H1783 C1771 0.931 1_554 S
H1784 C1777 0.930 . S
H1785 C1799 0.930 . S
H1786 C1778 0.930 1_655 S
H1787 C1805 0.930 . S
H1788 C1796 0.930 . S
H1789 C1803 0.931 . S
H1790 C1767 0.929 1_655 S
H1791 C1797 0.930 . S
H1792 C1830 0.930 . S
H1793 C1774 0.930 . S
H1794 C1829 0.929 . S
N1795 Tb1764 2.660 . S
N1795 C1796 1.305 . S
N1795 C1800 1.360 . S
C1796 H1788 0.930 . S
C1796 N1795 1.305 . S
C1796 C1799 1.407 1_556 S
C1797 H1791 0.930 . S
C1797 C1798 1.410 . S
C1797 C1799 1.345 . S
C1798 C1797 1.410 . S
C1798 C1800 1.417 1_554 S
C1798 C1830 1.432 . S
C1799 H1785 0.930 . S
C1799 C1796 1.407 1_554 S
C1799 C1797 1.345 . S
C1800 N1795 1.360 . S
C1800 C1798 1.417 1_556 S
C1800 C1804 1.432 . S
H1801 C1806 0.930 . S
N1802 Tb1764 2.600 . S
N1802 C1804 1.359 . S
N1802 C1805 1.327 . S
C1803 H1789 0.931 . S
C1803 C1805 1.392 . S
C1803 C1806 1.370 . S
C1804 C1800 1.432 . S
C1804 N1802 1.359 . S
C1804 C1807 1.414 . S
C1805 H1787 0.930 . S
C1805 N1802 1.327 . S
C1805 C1803 1.392 . S
C1806 H1801 0.930 . S
C1806 C1803 1.370 . S
C1806 C1807 1.385 . S
C1807 C1804 1.414 . S
C1807 C1806 1.385 . S
C1807 C1829 1.444 1_556 S
O1808 Tb1764 2.546 . S
O1808 C1828 1.251 . S
O1809 Tb1764 2.610 . S
O1809 Tb1775 2.362 1_556 S
O1809 C1820 1.283 . S
O1810 Tb1775 2.421 1_556 S
O1810 C1827 1.262 . S
O1811 Tb1764 2.320 . S
O1811 C1827 1.260 . S
O1812 Tb1764 2.552 . S
O1812 C1820 1.243 . S
O1813 Tb1764 2.413 . S
O1813 C1828 1.256 . S
O1814 Tb1775 2.546 . S
O1814 C1839 1.251 . S
O1815 Tb1764 2.362 1_554 S
O1815 Tb1775 2.610 . S
O1815 C1831 1.283 . S
O1816 Tb1764 2.421 . S
O1816 C1838 1.276 . S
O1817 Tb1775 2.320 . S
O1817 C1838 1.256 1_554 S
O1818 Tb1775 2.552 . S
O1818 C1831 1.243 . S
O1819 Tb1775 2.413 . S
O1819 C1839 1.256 . S
C1820 O1809 1.283 . S
C1820 O1812 1.243 . S
C1821 C1823 1.382 . S
C1821 C1825 1.393 . S
C1821 C1828 1.500 . S
C1822 C1823 1.400 . S
C1822 C1824 1.384 . S
C1823 C1821 1.382 . S
C1823 C1822 1.400 . S
C1823 H1840 0.930 . S
C1824 C1822 1.384 . S
C1824 C1826 1.392 . S
C1824 H1841 0.931 . S
C1825 C1821 1.393 . S
C1825 C1826 1.401 . S
C1825 H1842 0.930 . S
C1826 C1824 1.392 . S
C1826 C1825 1.401 . S
C1826 H1843 0.930 . S
C1827 O1810 1.262 . S
C1827 O1811 1.260 . S
C1828 Tb1764 2.833 . S
C1828 O1808 1.251 . S
C1828 O1813 1.256 . S
C1828 C1821 1.500 . S
C1829 H1794 0.929 . S
C1829 C1807 1.444 1_554 S
C1829 C1830 1.317 . S
C1830 H1792 0.930 . S
C1830 C1798 1.432 . S
C1830 C1829 1.317 . S
C1831 O1815 1.283 . S
C1831 O1818 1.243 . S
C1832 C1833 1.382 . S
C1832 C1836 1.393 . S
C1832 C1839 1.500 . S
C1833 C1832 1.382 . S
C1833 C1834 1.400 . S
C1833 H1844 0.930 . S
C1834 C1833 1.400 . S
C1834 C1835 1.384 . S
C1835 C1834 1.384 . S
C1835 C1837 1.392 . S
C1835 H1845 0.931 . S
C1836 C1832 1.393 . S
C1836 C1837 1.401 . S
C1836 H1846 0.930 . S
C1837 C1835 1.392 . S
C1837 C1836 1.401 . S
C1837 H1847 0.930 . S
C1838 O1816 1.276 . S
C1838 O1817 1.256 1_556 S
C1839 Tb1775 2.833 . S
C1839 O1814 1.251 . S
C1839 O1819 1.256 . S
C1839 C1832 1.500 . S
H1840 C1823 0.930 . S
H1841 C1824 0.931 . S
H1842 C1825 0.930 . S
H1843 C1826 0.930 . S
H1844 C1833 0.930 . S
H1845 C1835 0.931 . S
H1846 C1836 0.930 . S
H1847 C1837 0.930 . S
Tb1848 N1879 2.660 . S
Tb1848 N1886 2.600 . S
Tb1848 O1892 2.546 . S
Tb1848 O1893 2.610 . S
Tb1848 O1895 2.320 . S
Tb1848 O1896 2.552 . S
Tb1848 O1897 2.413 . S
Tb1848 O1899 2.362 1_556 S
Tb1848 O1900 2.421 . S
Tb1848 C1912 2.833 . S
C1849 C1852 1.432 . S
C1849 C1853 1.414 . S
C1849 N1856 1.359 . S
C1850 C1852 1.417 . S
C1850 C1854 1.432 . S
C1850 C1862 1.410 . S
C1851 C1853 1.444 . S
C1851 C1854 1.317 . S
C1851 H1874 0.929 . S
C1852 C1849 1.432 . S
C1852 C1850 1.417 . S
C1852 N1860 1.360 . S
C1853 C1849 1.414 . S
C1853 C1851 1.444 . S
C1853 C1858 1.385 1_565 S
C1854 C1850 1.432 . S
C1854 C1851 1.317 . S
C1854 H1866 0.930 . S
C1855 C1857 1.393 . S
C1855 C1858 1.370 . S
C1855 H1867 0.931 1_556 S
N1856 C1849 1.359 . S
N1856 C1857 1.328 1_565 S
N1856 Tb1859 2.600 1_556 S
C1857 C1855 1.393 . S
C1857 N1856 1.328 1_545 S
C1857 H1864 0.928 1_556 S
C1858 C1853 1.385 1_545 S
C1858 C1855 1.370 . S
C1858 H1877 0.930 . S
Tb1859 N1856 2.600 1_554 S
Tb1859 N1860 2.660 1_554 S
Tb1859 O1893 2.362 1_554 S
Tb1859 O1894 2.421 1_564 S
Tb1859 O1898 2.546 . S
Tb1859 O1899 2.610 . S
Tb1859 O1901 2.320 . S
Tb1859 O1902 2.552 . S
Tb1859 O1903 2.413 . S
Tb1859 C1923 2.833 . S
N1860 C1852 1.360 . S
N1860 Tb1859 2.660 1_556 S
N1860 C1861 1.305 . S
C1861 N1860 1.305 . S
C1861 C1863 1.407 . S
C1861 H1868 0.930 . S
C1862 C1850 1.410 . S
C1862 C1863 1.345 . S
C1862 H1870 0.930 . S
C1863 C1861 1.407 . S
C1863 C1862 1.345 . S
C1863 H1865 0.930 . S
H1864 C1857 0.928 1_554 S
H1865 C1863 0.930 . S
H1866 C1854 0.930 . S
H1867 C1855 0.931 1_554 S
H1868 C1861 0.930 . S
H1869 C1883 0.930 . S
H1870 C1862 0.930 . S
H1871 C1889 0.930 . S
H1872 C1880 0.930 . S
H1873 C1887 0.931 . S
H1874 C1851 0.929 . S
H1875 C1881 0.930 . S
H1876 C1914 0.930 . S
H1877 C1858 0.930 . S
H1878 C1913 0.929 . S
N1879 Tb1848 2.660 . S
N1879 C1880 1.305 1_565 S
N1879 C1884 1.360 . S
C1880 H1872 0.930 . S
C1880 N1879 1.305 1_545 S
C1880 C1883 1.407 1_556 S
C1881 H1875 0.930 . S
C1881 C1882 1.410 1_545 S
C1881 C1883 1.345 . S
C1882 C1881 1.410 1_565 S
C1882 C1884 1.417 1_554 S
C1882 C1914 1.432 . S
C1883 H1869 0.930 . S
C1883 C1880 1.407 1_554 S
C1883 C1881 1.345 . S
C1884 N1879 1.360 . S
C1884 C1882 1.417 1_556 S
C1884 C1888 1.432 . S
H1885 C1890 0.930 . S
N1886 Tb1848 2.600 . S
N1886 C1888 1.359 . S
N1886 C1889 1.327 . S
C1887 H1873 0.931 . S
C1887 C1889 1.392 . S
C1887 C1890 1.370 . S
C1888 C1884 1.432 . S
C1888 N1886 1.359 . S
C1888 C1891 1.414 . S
C1889 H1871 0.930 . S
C1889 N1886 1.327 . S
C1889 C1887 1.392 . S
C1890 H1885 0.930 . S
C1890 C1887 1.370 . S
C1890 C1891 1.385 . S
C1891 C1888 1.414 . S
C1891 C1890 1.385 . S
C1891 C1913 1.444 1_556 S
O1892 Tb1848 2.546 . S
O1892 C1912 1.251 . S
O1893 Tb1848 2.610 . S
O1893 Tb1859 2.362 1_556 S
O1893 C1904 1.283 . S
O1894 Tb1859 2.421 1_546 S
O1894 C1911 1.262 . S
O1895 Tb1848 2.320 . S
O1895 C1911 1.260 1_565 S
O1896 Tb1848 2.552 . S
O1896 C1904 1.243 . S
O1897 Tb1848 2.413 . S
O1897 C1912 1.256 . S
O1898 Tb1859 2.546 . S
O1898 C1923 1.251 . S
O1899 Tb1848 2.362 1_554 S
O1899 Tb1859 2.610 . S
O1899 C1915 1.283 . S
O1900 Tb1848 2.421 . S
O1900 C1922 1.276 . S
O1901 Tb1859 2.320 . S
O1901 C1922 1.256 1_554 S
O1902 Tb1859 2.552 . S
O1902 C1915 1.243 . S
O1903 Tb1859 2.413 . S
O1903 C1923 1.256 . S
C1904 O1893 1.283 . S
C1904 O1896 1.243 . S
C1905 C1907 1.382 . S
C1905 C1909 1.393 . S
C1905 C1912 1.500 . S
C1906 C1907 1.400 . S
C1906 C1908 1.384 . S
C1907 C1905 1.382 . S
C1907 C1906 1.400 . S
C1907 H1924 0.930 . S
C1908 C1906 1.384 . S
C1908 C1910 1.392 . S
C1908 H1925 0.931 . S
C1909 C1905 1.393 . S
C1909 C1910 1.401 . S
C1909 H1926 0.930 . S
C1910 C1908 1.392 . S
C1910 C1909 1.401 . S
C1910 H1927 0.930 . S
C1911 O1894 1.262 . S
C1911 O1895 1.260 1_545 S
C1912 Tb1848 2.833 . S
C1912 O1892 1.251 . S
C1912 O1897 1.256 . S
C1912 C1905 1.500 . S
C1913 H1878 0.929 . S
C1913 C1891 1.444 1_554 S
C1913 C1914 1.317 . S
C1914 H1876 0.930 . S
C1914 C1882 1.432 . S
C1914 C1913 1.317 . S
C1915 O1899 1.283 . S
C1915 O1902 1.243 . S
C1916 C1917 1.382 . S
C1916 C1920 1.393 . S
C1916 C1923 1.500 . S
C1917 C1916 1.382 . S
C1917 C1918 1.400 . S
C1917 H1928 0.930 . S
C1918 C1917 1.400 . S
C1918 C1919 1.384 . S
C1919 C1918 1.384 . S
C1919 C1921 1.392 . S
C1919 H1929 0.931 . S
C1920 C1916 1.393 . S
C1920 C1921 1.401 . S
C1920 H1930 0.930 . S
C1921 C1919 1.392 . S
C1921 C1920 1.401 . S
C1921 H1931 0.930 . S
C1922 O1900 1.276 . S
C1922 O1901 1.256 1_556 S
C1923 Tb1859 2.833 . S
C1923 O1898 1.251 . S
C1923 O1903 1.256 . S
C1923 C1916 1.500 . S
H1924 C1907 0.930 . S
H1925 C1908 0.931 . S
H1926 C1909 0.930 . S
H1927 C1910 0.930 . S
H1928 C1917 0.930 . S
H1929 C1919 0.931 . S
H1930 C1920 0.930 . S
H1931 C1921 0.930 . S
Tb1932 N1963 2.660 . S
Tb1932 N1970 2.600 . S
Tb1932 O1976 2.546 . S
Tb1932 O1977 2.610 . S
Tb1932 O1979 2.320 . S
Tb1932 O1980 2.552 . S
Tb1932 O1981 2.413 . S
Tb1932 O1983 2.362 1_556 S
Tb1932 O1984 2.421 . S
Tb1932 C1996 2.833 . S
C1933 C1936 1.432 . S
C1933 C1937 1.414 . S
C1933 N1940 1.359 . S
C1934 C1936 1.417 . S
C1934 C1938 1.432 1_565 S
C1934 C1946 1.410 . S
C1935 C1937 1.444 . S
C1935 C1938 1.317 1_565 S
C1935 H1958 0.929 1_565 S
C1936 C1933 1.432 . S
C1936 C1934 1.417 . S
C1936 N1944 1.360 . S
C1937 C1933 1.414 . S
C1937 C1935 1.444 . S
C1937 C1942 1.385 1_455 S
C1938 C1934 1.432 1_545 S
C1938 C1935 1.317 1_545 S
C1938 H1950 0.930 . S
C1939 C1941 1.393 . S
C1939 C1942 1.370 . S
C1939 H1951 0.931 1_556 S
N1940 C1933 1.359 . S
N1940 C1941 1.328 1_455 S
N1940 Tb1943 2.600 1_556 S
C1941 C1939 1.393 . S
C1941 N1940 1.328 1_655 S
C1941 H1948 0.928 1_556 S
C1942 C1937 1.385 1_655 S
C1942 C1939 1.370 . S
C1942 H1961 0.930 . S
Tb1943 N1940 2.600 1_554 S
Tb1943 N1944 2.660 1_554 S
Tb1943 O1977 2.362 1_554 S
Tb1943 O1978 2.421 1_454 S
Tb1943 O1982 2.546 . S
Tb1943 O1983 2.610 . S
Tb1943 O1985 2.320 . S
Tb1943 O1986 2.552 . S
Tb1943 O1987 2.413 . S
Tb1943 C2007 2.833 . S
N1944 C1936 1.360 . S
N1944 Tb1943 2.660 1_556 S
N1944 C1945 1.305 . S
C1945 N1944 1.305 . S
C1945 C1947 1.407 . S
C1945 H1952 0.930 . S
C1946 C1934 1.410 . S
C1946 C1947 1.345 . S
C1946 H1954 0.930 1_565 S
C1947 C1945 1.407 . S
C1947 C1946 1.345 . S
C1947 H1949 0.930 . S
H1948 C1941 0.928 1_554 S
H1949 C1947 0.930 . S
H1950 C1938 0.930 . S
H1951 C1939 0.931 1_554 S
H1952 C1945 0.930 . S
H1953 C1967 0.930 . S
H1954 C1946 0.930 1_545 S
H1955 C1973 0.930 . S
H1956 C1964 0.930 . S
H1957 C1971 0.931 . S
H1958 C1935 0.929 1_545 S
H1959 C1965 0.930 . S
H1960 C1998 0.930 . S
H1961 C1942 0.930 . S
H1962 C1997 0.929 . S
N1963 Tb1932 2.660 . S
N1963 C1964 1.305 1_455 S
N1963 C1968 1.360 . S
C1964 H1956 0.930 . S
C1964 N1963 1.305 1_655 S
C1964 C1967 1.407 1_556 S
C1965 H1959 0.930 . S
C1965 C1966 1.410 1_655 S
C1965 C1967 1.345 . S
C1966 C1965 1.410 1_455 S
C1966 C1968 1.417 1_554 S
C1966 C1998 1.432 . S
C1967 H1953 0.930 . S
C1967 C1964 1.407 1_554 S
C1967 C1965 1.345 . S
C1968 N1963 1.360 . S
C1968 C1966 1.417 1_556 S
C1968 C1972 1.432 . S
H1969 C1974 0.930 . S
N1970 Tb1932 2.600 . S
N1970 C1972 1.359 . S
N1970 C1973 1.327 . S
C1971 H1957 0.931 . S
C1971 C1973 1.392 . S
C1971 C1974 1.370 . S
C1972 C1968 1.432 . S
C1972 N1970 1.359 . S
C1972 C1975 1.414 . S
C1973 H1955 0.930 . S
C1973 N1970 1.327 . S
C1973 C1971 1.392 . S
C1974 H1969 0.930 . S
C1974 C1971 1.370 . S
C1974 C1975 1.385 . S
C1975 C1972 1.414 . S
C1975 C1974 1.385 . S
C1975 C1997 1.444 1_556 S
O1976 Tb1932 2.546 . S
O1976 C1996 1.251 . S
O1977 Tb1932 2.610 . S
O1977 Tb1943 2.362 1_556 S
O1977 C1988 1.283 . S
O1978 Tb1943 2.421 1_656 S
O1978 C1995 1.262 . S
O1979 Tb1932 2.320 . S
O1979 C1995 1.260 1_455 S
O1980 Tb1932 2.552 . S
O1980 C1988 1.243 . S
O1981 Tb1932 2.413 . S
O1981 C1996 1.256 . S
O1982 Tb1943 2.546 . S
O1982 C2007 1.251 . S
O1983 Tb1932 2.362 1_554 S
O1983 Tb1943 2.610 . S
O1983 C1999 1.283 . S
O1984 Tb1932 2.421 . S
O1984 C2006 1.276 . S
O1985 Tb1943 2.320 . S
O1985 C2006 1.256 1_554 S
O1986 Tb1943 2.552 . S
O1986 C1999 1.243 . S
O1987 Tb1943 2.413 . S
O1987 C2007 1.256 . S
C1988 O1977 1.283 . S
C1988 O1980 1.243 . S
C1989 C1991 1.382 . S
C1989 C1993 1.393 . S
C1989 C1996 1.500 . S
C1990 C1991 1.400 . S
C1990 C1992 1.384 . S
C1991 C1989 1.382 . S
C1991 C1990 1.400 . S
C1991 H2008 0.930 . S
C1992 C1990 1.384 . S
C1992 C1994 1.392 . S
C1992 H2009 0.931 . S
C1993 C1989 1.393 . S
C1993 C1994 1.401 . S
C1993 H2010 0.930 . S
C1994 C1992 1.392 . S
C1994 C1993 1.401 . S
C1994 H2011 0.930 . S
C1995 O1978 1.262 . S
C1995 O1979 1.260 1_655 S
C1996 Tb1932 2.833 . S
C1996 O1976 1.251 . S
C1996 O1981 1.256 . S
C1996 C1989 1.500 . S
C1997 H1962 0.929 . S
C1997 C1975 1.444 1_554 S
C1997 C1998 1.317 . S
C1998 H1960 0.930 . S
C1998 C1966 1.432 . S
C1998 C1997 1.317 . S
C1999 O1983 1.283 . S
C1999 O1986 1.243 . S
C2000 C2001 1.382 . S
C2000 C2004 1.393 . S
C2000 C2007 1.500 . S
C2001 C2000 1.382 . S
C2001 C2002 1.400 . S
C2001 H2012 0.930 . S
C2002 C2001 1.400 . S
C2002 C2003 1.384 . S
C2003 C2002 1.384 . S
C2003 C2005 1.392 . S
C2003 H2013 0.931 . S
C2004 C2000 1.393 . S
C2004 C2005 1.401 . S
C2004 H2014 0.930 . S
C2005 C2003 1.392 . S
C2005 C2004 1.401 . S
C2005 H2015 0.930 . S
C2006 O1984 1.276 . S
C2006 O1985 1.256 1_556 S
C2007 Tb1943 2.833 . S
C2007 O1982 1.251 . S
C2007 O1987 1.256 . S
C2007 C2000 1.500 . S
H2008 C1991 0.930 . S
H2009 C1992 0.931 . S
H2010 C1993 0.930 . S
H2011 C1994 0.930 . S
H2012 C2001 0.930 . S
H2013 C2003 0.931 . S
H2014 C2004 0.930 . S
H2015 C2005 0.930 . S
Tb2016 N2047 2.660 . S
Tb2016 N2054 2.600 . S
Tb2016 O2060 2.546 . S
Tb2016 O2061 2.610 . S
Tb2016 O2063 2.320 . S
Tb2016 O2064 2.552 . S
Tb2016 O2065 2.413 . S
Tb2016 O2067 2.362 . S
Tb2016 O2068 2.421 . S
Tb2016 C2080 2.833 . S
C2017 C2020 1.432 1_545 S
C2017 C2021 1.414 1_545 S
C2017 N2024 1.359 . S
C2018 C2020 1.417 . S
C2018 C2022 1.432 . S
C2018 C2030 1.410 . S
C2019 C2021 1.444 . S
C2019 C2022 1.317 . S
C2019 H2042 0.929 . S
C2020 C2017 1.432 1_565 S
C2020 C2018 1.417 . S
C2020 N2028 1.360 1_565 S
C2021 C2017 1.414 1_565 S
C2021 C2019 1.444 . S
C2021 C2026 1.385 1_565 S
C2022 C2018 1.432 . S
C2022 C2019 1.317 . S
C2022 H2034 0.930 . S
C2023 C2025 1.392 . S
C2023 C2026 1.370 . S
C2023 H2035 0.931 . S
N2024 C2017 1.359 . S
N2024 C2025 1.327 . S
N2024 Tb2027 2.600 . S
C2025 C2023 1.392 . S
C2025 N2024 1.327 . S
C2025 H2032 0.930 . S
C2026 C2021 1.385 1_545 S
C2026 C2023 1.370 . S
C2026 H2045 0.930 1_545 S
Tb2027 N2024 2.600 . S
Tb2027 N2028 2.660 . S
Tb2027 O2061 2.362 . S
Tb2027 O2062 2.421 . S
Tb2027 O2066 2.546 . S
Tb2027 O2067 2.610 . S
Tb2027 O2069 2.320 . S
Tb2027 O2070 2.552 . S
Tb2027 O2071 2.413 . S
Tb2027 C2091 2.833 . S
N2028 C2020 1.360 1_545 S
N2028 Tb2027 2.660 . S
N2028 C2029 1.305 . S
C2029 N2028 1.305 . S
C2029 C2031 1.407 1_545 S
C2029 H2036 0.930 . S
C2030 C2018 1.410 . S
C2030 C2031 1.345 . S
C2030 H2038 0.930 . S
C2031 C2029 1.407 1_565 S
C2031 C2030 1.345 . S
C2031 H2033 0.930 . S
H2032 C2025 0.930 . S
H2033 C2031 0.930 . S
H2034 C2022 0.930 . S
H2035 C2023 0.931 . S
H2036 C2029 0.930 . S
H2037 C2051 0.930 . S
H2038 C2030 0.930 . S
H2039 C2057 0.930 . S
H2040 C2048 0.930 . S
H2041 C2055 0.931 . S
H2042 C2019 0.929 . S
H2043 C2049 0.930 . S
H2044 C2082 0.930 . S
H2045 C2026 0.930 1_565 S
H2046 C2081 0.929 . S
N2047 Tb2016 2.660 . S
N2047 C2048 1.305 . S
N2047 C2052 1.360 . S
C2048 H2040 0.930 . S
C2048 N2047 1.305 . S
C2048 C2051 1.407 . S
C2049 H2043 0.930 . S
C2049 C2050 1.410 . S
C2049 C2051 1.345 . S
C2050 C2049 1.410 . S
C2050 C2052 1.417 . S
C2050 C2082 1.432 . S
C2051 H2037 0.930 . S
C2051 C2048 1.407 . S
C2051 C2049 1.345 . S
C2052 N2047 1.360 . S
C2052 C2050 1.417 . S
C2052 C2056 1.432 . S
H2053 C2058 0.930 . S
N2054 Tb2016 2.600 . S
N2054 C2056 1.359 . S
N2054 C2057 1.327 . S
C2055 H2041 0.931 . S
C2055 C2057 1.392 . S
C2055 C2058 1.370 . S
C2056 C2052 1.432 . S
C2056 N2054 1.359 . S
C2056 C2059 1.414 . S
C2057 H2039 0.930 . S
C2057 N2054 1.327 . S
C2057 C2055 1.392 . S
C2058 H2053 0.930 . S
C2058 C2055 1.370 . S
C2058 C2059 1.385 . S
C2059 C2056 1.414 . S
C2059 C2058 1.385 . S
C2059 C2081 1.444 . S
O2060 Tb2016 2.546 . S
O2060 C2080 1.251 . S
O2061 Tb2016 2.610 . S
O2061 Tb2027 2.362 . S
O2061 C2072 1.283 . S
O2062 Tb2027 2.421 . S
O2062 C2079 1.262 . S
O2063 Tb2016 2.320 . S
O2063 C2079 1.260 . S
O2064 Tb2016 2.552 . S
O2064 C2072 1.243 . S
O2065 Tb2016 2.413 . S
O2065 C2080 1.256 . S
O2066 Tb2027 2.546 . S
O2066 C2091 1.251 . S
O2067 Tb2016 2.362 . S
O2067 Tb2027 2.610 . S
O2067 C2083 1.283 . S
O2068 Tb2016 2.421 . S
O2068 C2090 1.262 . S
O2069 Tb2027 2.320 . S
O2069 C2090 1.260 . S
O2070 Tb2027 2.552 . S
O2070 C2083 1.243 . S
O2071 Tb2027 2.413 . S
O2071 C2091 1.256 . S
C2072 O2061 1.283 . S
C2072 O2064 1.243 . S
C2073 C2075 1.382 . S
C2073 C2077 1.393 . S
C2073 C2080 1.500 1_554 S
C2074 C2075 1.400 . S
C2074 C2076 1.384 . S
C2075 C2073 1.382 . S
C2075 C2074 1.400 . S
C2075 H2092 0.930 . S
C2076 C2074 1.384 . S
C2076 C2078 1.392 . S
C2076 H2093 0.931 . S
C2077 C2073 1.393 . S
C2077 C2078 1.401 . S
C2077 H2094 0.930 . S
C2078 C2076 1.392 . S
C2078 C2077 1.401 . S
C2078 H2095 0.930 . S
C2079 O2062 1.262 . S
C2079 O2063 1.260 . S
C2080 Tb2016 2.833 . S
C2080 O2060 1.251 . S
C2080 O2065 1.256 . S
C2080 C2073 1.500 1_556 S
C2081 H2046 0.929 . S
C2081 C2059 1.444 . S
C2081 C2082 1.317 . S
C2082 H2044 0.930 . S
C2082 C2050 1.432 . S
C2082 C2081 1.317 . S
C2083 O2067 1.283 . S
C2083 O2070 1.243 . S
C2084 C2085 1.382 . S
C2084 C2088 1.393 . S
C2084 C2091 1.500 . S
C2085 C2084 1.382 . S
C2085 C2086 1.400 . S
C2085 H2096 0.930 . S
C2086 C2085 1.400 . S
C2086 C2087 1.384 1_545 S
C2087 C2086 1.384 1_565 S
C2087 C2089 1.392 1_565 S
C2087 H2097 0.931 . S
C2088 C2084 1.393 . S
C2088 C2089 1.401 . S
C2088 H2098 0.930 . S
C2089 C2087 1.392 1_545 S
C2089 C2088 1.401 . S
C2089 H2099 0.930 1_545 S
C2090 O2068 1.262 . S
C2090 O2069 1.260 . S
C2091 Tb2027 2.833 . S
C2091 O2066 1.251 . S
C2091 O2071 1.256 . S
C2091 C2084 1.500 . S
H2092 C2075 0.930 . S
H2093 C2076 0.931 . S
H2094 C2077 0.930 . S
H2095 C2078 0.930 . S
H2096 C2085 0.930 . S
H2097 C2087 0.931 . S
H2098 C2088 0.930 . S
H2099 C2089 0.930 1_565 S
Tb2100 N2131 2.660 . S
Tb2100 N2138 2.600 . S
Tb2100 O2144 2.546 . S
Tb2100 O2145 2.610 . S
Tb2100 O2147 2.320 . S
Tb2100 O2148 2.552 . S
Tb2100 O2149 2.413 . S
Tb2100 O2151 2.362 . S
Tb2100 O2152 2.421 . S
Tb2100 C2164 2.833 . S
C2101 C2104 1.432 1_655 S
C2101 C2105 1.414 1_655 S
C2101 N2108 1.359 . S
C2102 C2104 1.417 . S
C2102 C2106 1.432 . S
C2102 C2114 1.410 . S
C2103 C2105 1.444 . S
C2103 C2106 1.317 . S
C2103 H2126 0.929 . S
C2104 C2101 1.432 1_455 S
C2104 C2102 1.417 . S
C2104 N2112 1.360 1_455 S
C2105 C2101 1.414 1_455 S
C2105 C2103 1.444 . S
C2105 C2110 1.385 1_455 S
C2106 C2102 1.432 . S
C2106 C2103 1.317 . S
C2106 H2118 0.930 . S
C2107 C2109 1.392 . S
C2107 C2110 1.370 . S
C2107 H2119 0.931 . S
N2108 C2101 1.359 . S
N2108 C2109 1.327 . S
N2108 Tb2111 2.600 . S
C2109 C2107 1.392 . S
C2109 N2108 1.327 . S
C2109 H2116 0.930 . S
C2110 C2105 1.385 1_655 S
C2110 C2107 1.370 . S
C2110 H2129 0.930 1_655 S
Tb2111 N2108 2.600 . S
Tb2111 N2112 2.660 . S
Tb2111 O2145 2.362 . S
Tb2111 O2146 2.421 . S
Tb2111 O2150 2.546 . S
Tb2111 O2151 2.610 . S
Tb2111 O2153 2.320 . S
Tb2111 O2154 2.552 . S
Tb2111 O2155 2.413 . S
Tb2111 C2175 2.833 . S
N2112 C2104 1.360 1_655 S
N2112 Tb2111 2.660 . S
N2112 C2113 1.305 . S
C2113 N2112 1.305 . S
C2113 C2115 1.407 1_655 S
C2113 H2120 0.930 . S
C2114 C2102 1.410 . S
C2114 C2115 1.345 . S
C2114 H2122 0.930 . S
C2115 C2113 1.407 1_455 S
C2115 C2114 1.345 . S
C2115 H2117 0.930 . S
H2116 C2109 0.930 . S
H2117 C2115 0.930 . S
H2118 C2106 0.930 . S
H2119 C2107 0.931 . S
H2120 C2113 0.930 . S
H2121 C2135 0.930 . S
H2122 C2114 0.930 . S
H2123 C2141 0.930 . S
H2124 C2132 0.930 . S
H2125 C2139 0.931 . S
H2126 C2103 0.929 . S
H2127 C2133 0.930 . S
H2128 C2166 0.930 . S
H2129 C2110 0.930 1_455 S
H2130 C2165 0.929 . S
N2131 Tb2100 2.660 . S
N2131 C2132 1.305 . S
N2131 C2136 1.360 . S
C2132 H2124 0.930 . S
C2132 N2131 1.305 . S
C2132 C2135 1.407 . S
C2133 H2127 0.930 . S
C2133 C2134 1.410 . S
C2133 C2135 1.345 . S
C2134 C2133 1.410 . S
C2134 C2136 1.417 . S
C2134 C2166 1.432 . S
C2135 H2121 0.930 . S
C2135 C2132 1.407 . S
C2135 C2133 1.345 . S
C2136 N2131 1.360 . S
C2136 C2134 1.417 . S
C2136 C2140 1.432 . S
H2137 C2142 0.930 . S
N2138 Tb2100 2.600 . S
N2138 C2140 1.359 . S
N2138 C2141 1.327 . S
C2139 H2125 0.931 . S
C2139 C2141 1.392 . S
C2139 C2142 1.370 . S
C2140 C2136 1.432 . S
C2140 N2138 1.359 . S
C2140 C2143 1.414 . S
C2141 H2123 0.930 . S
C2141 N2138 1.327 . S
C2141 C2139 1.392 . S
C2142 H2137 0.930 . S
C2142 C2139 1.370 . S
C2142 C2143 1.385 . S
C2143 C2140 1.414 . S
C2143 C2142 1.385 . S
C2143 C2165 1.444 . S
O2144 Tb2100 2.546 . S
O2144 C2164 1.251 . S
O2145 Tb2100 2.610 . S
O2145 Tb2111 2.362 . S
O2145 C2156 1.283 . S
O2146 Tb2111 2.421 . S
O2146 C2163 1.262 . S
O2147 Tb2100 2.320 . S
O2147 C2163 1.260 . S
O2148 Tb2100 2.552 . S
O2148 C2156 1.243 . S
O2149 Tb2100 2.413 . S
O2149 C2164 1.256 . S
O2150 Tb2111 2.546 . S
O2150 C2175 1.251 . S
O2151 Tb2100 2.362 . S
O2151 Tb2111 2.610 . S
O2151 C2167 1.283 . S
O2152 Tb2100 2.421 . S
O2152 C2174 1.262 . S
O2153 Tb2111 2.320 . S
O2153 C2174 1.260 . S
O2154 Tb2111 2.552 . S
O2154 C2167 1.243 . S
O2155 Tb2111 2.413 . S
O2155 C2175 1.256 . S
C2156 O2145 1.283 . S
C2156 O2148 1.243 . S
C2157 C2159 1.382 . S
C2157 C2161 1.393 . S
C2157 C2164 1.500 1_554 S
C2158 C2159 1.400 . S
C2158 C2160 1.384 . S
C2159 C2157 1.382 . S
C2159 C2158 1.400 . S
C2159 H2176 0.930 . S
C2160 C2158 1.384 . S
C2160 C2162 1.392 . S
C2160 H2177 0.931 . S
C2161 C2157 1.393 . S
C2161 C2162 1.401 . S
C2161 H2178 0.930 . S
C2162 C2160 1.392 . S
C2162 C2161 1.401 . S
C2162 H2179 0.930 . S
C2163 O2146 1.262 . S
C2163 O2147 1.260 . S
C2164 Tb2100 2.833 . S
C2164 O2144 1.251 . S
C2164 O2149 1.256 . S
C2164 C2157 1.500 1_556 S
C2165 H2130 0.929 . S
C2165 C2143 1.444 . S
C2165 C2166 1.317 . S
C2166 H2128 0.930 . S
C2166 C2134 1.432 . S
C2166 C2165 1.317 . S
C2167 O2151 1.283 . S
C2167 O2154 1.243 . S
C2168 C2169 1.382 . S
C2168 C2172 1.393 . S
C2168 C2175 1.500 . S
C2169 C2168 1.382 . S
C2169 C2170 1.400 . S
C2169 H2180 0.930 . S
C2170 C2169 1.400 . S
C2170 C2171 1.384 1_655 S
C2171 C2170 1.384 1_455 S
C2171 C2173 1.392 1_455 S
C2171 H2181 0.931 . S
C2172 C2168 1.393 . S
C2172 C2173 1.401 . S
C2172 H2182 0.930 . S
C2173 C2171 1.392 1_655 S
C2173 C2172 1.401 . S
C2173 H2183 0.930 1_655 S
C2174 O2152 1.262 . S
C2174 O2153 1.260 . S
C2175 Tb2111 2.833 . S
C2175 O2150 1.251 . S
C2175 O2155 1.256 . S
C2175 C2168 1.500 . S
H2176 C2159 0.930 . S
H2177 C2160 0.931 . S
H2178 C2161 0.930 . S
H2179 C2162 0.930 . S
H2180 C2169 0.930 . S
H2181 C2171 0.931 . S
H2182 C2172 0.930 . S
H2183 C2173 0.930 1_455 S
Tb2184 N2215 2.660 . S
Tb2184 N2222 2.600 . S
Tb2184 O2228 2.546 . S
Tb2184 O2229 2.610 . S
Tb2184 O2231 2.320 . S
Tb2184 O2232 2.552 . S
Tb2184 O2233 2.413 . S
Tb2184 O2235 2.362 . S
Tb2184 O2236 2.421 . S
Tb2184 C2248 2.833 . S
C2185 C2188 1.432 . S
C2185 C2189 1.414 . S
C2185 N2192 1.359 . S
C2186 C2188 1.417 . S
C2186 C2190 1.432 . S
C2186 C2198 1.410 . S
C2187 C2189 1.444 . S
C2187 C2190 1.317 . S
C2187 H2210 0.929 . S
C2188 C2185 1.432 . S
C2188 C2186 1.417 . S
C2188 N2196 1.360 . S
C2189 C2185 1.414 . S
C2189 C2187 1.444 . S
C2189 C2194 1.385 . S
C2190 C2186 1.432 . S
C2190 C2187 1.317 . S
C2190 H2202 0.930 . S
C2191 C2193 1.392 . S
C2191 C2194 1.370 . S
C2191 H2203 0.931 . S
N2192 C2185 1.359 . S
N2192 C2193 1.327 . S
N2192 Tb2195 2.600 . S
C2193 C2191 1.392 . S
C2193 N2192 1.327 . S
C2193 H2200 0.930 . S
C2194 C2189 1.385 . S
C2194 C2191 1.370 . S
C2194 H2213 0.930 . S
Tb2195 N2192 2.600 . S
Tb2195 N2196 2.660 . S
Tb2195 O2229 2.362 . S
Tb2195 O2230 2.421 . S
Tb2195 O2234 2.546 . S
Tb2195 O2235 2.610 . S
Tb2195 O2237 2.320 . S
Tb2195 O2238 2.552 . S
Tb2195 O2239 2.413 . S
Tb2195 C2259 2.833 . S
N2196 C2188 1.360 . S
N2196 Tb2195 2.660 . S
N2196 C2197 1.305 . S
C2197 N2196 1.305 . S
C2197 C2199 1.407 . S
C2197 H2204 0.930 . S
C2198 C2186 1.410 . S
C2198 C2199 1.345 . S
C2198 H2206 0.930 . S
C2199 C2197 1.407 . S
C2199 C2198 1.345 . S
C2199 H2201 0.930 . S
H2200 C2193 0.930 . S
H2201 C2199 0.930 . S
H2202 C2190 0.930 . S
H2203 C2191 0.931 . S
H2204 C2197 0.930 . S
H2205 C2219 0.930 . S
H2206 C2198 0.930 . S
H2207 C2225 0.930 . S
H2208 C2216 0.930 . S
H2209 C2223 0.931 . S
H2210 C2187 0.929 . S
H2211 C2217 0.930 . S
H2212 C2250 0.930 . S
H2213 C2194 0.930 . S
H2214 C2249 0.929 . S
N2215 Tb2184 2.660 . S
N2215 C2216 1.305 . S
N2215 C2220 1.360 . S
C2216 H2208 0.930 . S
C2216 N2215 1.305 . S
C2216 C2219 1.407 . S
C2217 H2211 0.930 . S
C2217 C2218 1.410 . S
C2217 C2219 1.345 . S
C2218 C2217 1.410 . S
C2218 C2220 1.417 . S
C2218 C2250 1.432 . S
C2219 H2205 0.930 . S
C2219 C2216 1.407 . S
C2219 C2217 1.345 . S
C2220 N2215 1.360 . S
C2220 C2218 1.417 . S
C2220 C2224 1.432 . S
H2221 C2226 0.930 . S
N2222 Tb2184 2.600 . S
N2222 C2224 1.359 . S
N2222 C2225 1.327 . S
C2223 H2209 0.931 . S
C2223 C2225 1.392 . S
C2223 C2226 1.370 . S
C2224 C2220 1.432 . S
C2224 N2222 1.359 . S
C2224 C2227 1.414 . S
C2225 H2207 0.930 . S
C2225 N2222 1.327 . S
C2225 C2223 1.392 . S
C2226 H2221 0.930 . S
C2226 C2223 1.370 . S
C2226 C2227 1.385 . S
C2227 C2224 1.414 . S
C2227 C2226 1.385 . S
C2227 C2249 1.444 . S
O2228 Tb2184 2.546 . S
O2228 C2248 1.251 . S
O2229 Tb2184 2.610 . S
O2229 Tb2195 2.362 . S
O2229 C2240 1.283 . S
O2230 Tb2195 2.421 . S
O2230 C2247 1.262 . S
O2231 Tb2184 2.320 . S
O2231 C2247 1.260 . S
O2232 Tb2184 2.552 . S
O2232 C2240 1.243 . S
O2233 Tb2184 2.413 . S
O2233 C2248 1.256 . S
O2234 Tb2195 2.546 . S
O2234 C2259 1.251 . S
O2235 Tb2184 2.362 . S
O2235 Tb2195 2.610 . S
O2235 C2251 1.283 . S
O2236 Tb2184 2.421 . S
O2236 C2258 1.262 . S
O2237 Tb2195 2.320 . S
O2237 C2258 1.260 . S
O2238 Tb2195 2.552 . S
O2238 C2251 1.243 . S
O2239 Tb2195 2.413 . S
O2239 C2259 1.256 . S
C2240 O2229 1.283 . S
C2240 O2232 1.243 . S
C2241 C2243 1.382 . S
C2241 C2245 1.393 . S
C2241 C2248 1.500 1_554 S
C2242 C2243 1.400 . S
C2242 C2244 1.384 . S
C2243 C2241 1.382 . S
C2243 C2242 1.400 . S
C2243 H2260 0.930 . S
C2244 C2242 1.384 . S
C2244 C2246 1.392 . S
C2244 H2261 0.931 . S
C2245 C2241 1.393 . S
C2245 C2246 1.401 . S
C2245 H2262 0.930 . S
C2246 C2244 1.392 . S
C2246 C2245 1.401 . S
C2246 H2263 0.930 . S
C2247 O2230 1.262 . S
C2247 O2231 1.260 . S
C2248 Tb2184 2.833 . S
C2248 O2228 1.251 . S
C2248 O2233 1.256 . S
C2248 C2241 1.500 1_556 S
C2249 H2214 0.929 . S
C2249 C2227 1.444 . S
C2249 C2250 1.317 . S
C2250 H2212 0.930 . S
C2250 C2218 1.432 . S
C2250 C2249 1.317 . S
C2251 O2235 1.283 . S
C2251 O2238 1.243 . S
C2252 C2253 1.382 . S
C2252 C2256 1.393 . S
C2252 C2259 1.500 . S
C2253 C2252 1.382 . S
C2253 C2254 1.400 . S
C2253 H2264 0.930 . S
C2254 C2253 1.400 . S
C2254 C2255 1.384 . S
C2255 C2254 1.384 . S
C2255 C2257 1.392 . S
C2255 H2265 0.931 . S
C2256 C2252 1.393 . S
C2256 C2257 1.401 . S
C2256 H2266 0.930 . S
C2257 C2255 1.392 . S
C2257 C2256 1.401 . S
C2257 H2267 0.930 . S
C2258 O2236 1.262 . S
C2258 O2237 1.260 . S
C2259 Tb2195 2.833 . S
C2259 O2234 1.251 . S
C2259 O2239 1.256 . S
C2259 C2252 1.500 . S
H2260 C2243 0.930 . S
H2261 C2244 0.931 . S
H2262 C2245 0.930 . S
H2263 C2246 0.930 . S
H2264 C2253 0.930 . S
H2265 C2255 0.931 . S
H2266 C2256 0.930 . S
H2267 C2257 0.930 . S
Tb2268 N2299 2.660 . S
Tb2268 N2306 2.600 . S
Tb2268 O2312 2.546 . S
Tb2268 O2313 2.610 . S
Tb2268 O2315 2.320 . S
Tb2268 O2316 2.552 . S
Tb2268 O2317 2.413 . S
Tb2268 O2319 2.362 . S
Tb2268 O2320 2.421 . S
Tb2268 C2332 2.833 1_554 S
C2269 C2272 1.432 . S
C2269 C2273 1.414 . S
C2269 N2276 1.359 . S
C2270 C2272 1.417 . S
C2270 C2274 1.432 . S
C2270 C2282 1.410 . S
C2271 C2273 1.444 . S
C2271 C2274 1.317 . S
C2271 H2294 0.929 . S
C2272 C2269 1.432 . S
C2272 C2270 1.417 . S
C2272 N2280 1.360 . S
C2273 C2269 1.414 . S
C2273 C2271 1.444 . S
C2273 C2278 1.385 . S
C2274 C2270 1.432 . S
C2274 C2271 1.317 . S
C2274 H2286 0.930 . S
C2275 C2277 1.392 . S
C2275 C2278 1.370 . S
C2275 H2287 0.931 . S
N2276 C2269 1.359 . S
N2276 C2277 1.327 . S
N2276 Tb2279 2.600 . S
C2277 C2275 1.392 . S
C2277 N2276 1.327 . S
C2277 H2284 0.930 . S
C2278 C2273 1.385 . S
C2278 C2275 1.370 . S
C2278 H2297 0.930 . S
Tb2279 N2276 2.600 . S
Tb2279 N2280 2.660 . S
Tb2279 O2313 2.362 . S
Tb2279 O2314 2.421 . S
Tb2279 O2318 2.546 . S
Tb2279 O2319 2.610 . S
Tb2279 O2321 2.320 . S
Tb2279 O2322 2.552 . S
Tb2279 O2323 2.413 . S
Tb2279 C2343 2.833 . S
N2280 C2272 1.360 . S
N2280 Tb2279 2.660 . S
N2280 C2281 1.305 . S
C2281 N2280 1.305 . S
C2281 C2283 1.407 . S
C2281 H2288 0.930 . S
C2282 C2270 1.410 . S
C2282 C2283 1.345 . S
C2282 H2290 0.930 . S
C2283 C2281 1.407 . S
C2283 C2282 1.345 . S
C2283 H2285 0.930 . S
H2284 C2277 0.930 . S
H2285 C2283 0.930 . S
H2286 C2274 0.930 . S
H2287 C2275 0.931 . S
H2288 C2281 0.930 . S
H2289 C2303 0.930 . S
H2290 C2282 0.930 . S
H2291 C2309 0.930 . S
H2292 C2300 0.930 . S
H2293 C2307 0.931 . S
H2294 C2271 0.929 . S
H2295 C2301 0.930 1_455 S
H2296 C2334 0.930 . S
H2297 C2278 0.930 . S
H2298 C2333 0.929 1_455 S
N2299 Tb2268 2.660 . S
N2299 C2300 1.305 . S
N2299 C2304 1.360 . S
C2300 H2292 0.930 . S
C2300 N2299 1.305 . S
C2300 C2303 1.407 . S
C2301 H2295 0.930 1_655 S
C2301 C2302 1.410 . S
C2301 C2303 1.345 . S
C2302 C2301 1.410 . S
C2302 C2304 1.417 . S
C2302 C2334 1.432 1_655 S
C2303 H2289 0.930 . S
C2303 C2300 1.407 . S
C2303 C2301 1.345 . S
C2304 N2299 1.360 . S
C2304 C2302 1.417 . S
C2304 C2308 1.432 . S
H2305 C2310 0.930 . S
N2306 Tb2268 2.600 . S
N2306 C2308 1.359 . S
N2306 C2309 1.327 . S
C2307 H2293 0.931 . S
C2307 C2309 1.392 . S
C2307 C2310 1.370 . S
C2308 C2304 1.432 . S
C2308 N2306 1.359 . S
C2308 C2311 1.414 . S
C2309 H2291 0.930 . S
C2309 N2306 1.327 . S
C2309 C2307 1.392 . S
C2310 H2305 0.930 . S
C2310 C2307 1.370 . S
C2310 C2311 1.385 . S
C2311 C2308 1.414 . S
C2311 C2310 1.385 . S
C2311 C2333 1.444 . S
O2312 Tb2268 2.546 . S
O2312 C2332 1.251 1_554 S
O2313 Tb2268 2.610 . S
O2313 Tb2279 2.362 . S
O2313 C2324 1.283 . S
O2314 Tb2279 2.421 . S
O2314 C2331 1.262 . S
O2315 Tb2268 2.320 . S
O2315 C2331 1.260 . S
O2316 Tb2268 2.552 . S
O2316 C2324 1.243 . S
O2317 Tb2268 2.413 . S
O2317 C2332 1.256 1_554 S
O2318 Tb2279 2.546 . S
O2318 C2343 1.251 . S
O2319 Tb2268 2.362 . S
O2319 Tb2279 2.610 . S
O2319 C2335 1.283 . S
O2320 Tb2268 2.421 . S
O2320 C2342 1.262 . S
O2321 Tb2279 2.320 . S
O2321 C2342 1.260 . S
O2322 Tb2279 2.552 . S
O2322 C2335 1.243 . S
O2323 Tb2279 2.413 . S
O2323 C2343 1.256 . S
C2324 O2313 1.283 . S
C2324 O2316 1.243 . S
C2325 C2327 1.382 . S
C2325 C2329 1.393 . S
C2325 C2332 1.500 . S
C2326 C2327 1.400 . S
C2326 C2328 1.384 . S
C2327 C2325 1.382 . S
C2327 C2326 1.400 . S
C2327 H2344 0.930 . S
C2328 C2326 1.384 . S
C2328 C2330 1.392 . S
C2328 H2345 0.931 . S
C2329 C2325 1.393 . S
C2329 C2330 1.401 . S
C2329 H2346 0.930 . S
C2330 C2328 1.392 . S
C2330 C2329 1.401 . S
C2330 H2347 0.930 . S
C2331 O2314 1.262 . S
C2331 O2315 1.260 . S
C2332 Tb2268 2.833 1_556 S
C2332 O2312 1.251 1_556 S
C2332 O2317 1.256 1_556 S
C2332 C2325 1.500 . S
C2333 H2298 0.929 1_655 S
C2333 C2311 1.444 . S
C2333 C2334 1.317 1_655 S
C2334 H2296 0.930 . S
C2334 C2302 1.432 1_455 S
C2334 C2333 1.317 1_455 S
C2335 O2319 1.283 . S
C2335 O2322 1.243 . S
C2336 C2337 1.382 . S
C2336 C2340 1.393 . S
C2336 C2343 1.500 . S
C2337 C2336 1.382 . S
C2337 C2338 1.400 . S
C2337 H2348 0.930 . S
C2338 C2337 1.400 . S
C2338 C2339 1.384 . S
C2339 C2338 1.384 . S
C2339 C2341 1.392 . S
C2339 H2349 0.931 . S
C2340 C2336 1.393 . S
C2340 C2341 1.401 . S
C2340 H2350 0.930 . S
C2341 C2339 1.392 . S
C2341 C2340 1.401 . S
C2341 H2351 0.930 . S
C2342 O2320 1.262 . S
C2342 O2321 1.260 . S
C2343 Tb2279 2.833 . S
C2343 O2318 1.251 . S
C2343 O2323 1.256 . S
C2343 C2336 1.500 . S
H2344 C2327 0.930 . S
H2345 C2328 0.931 . S
H2346 C2329 0.930 . S
H2347 C2330 0.930 . S
H2348 C2337 0.930 . S
H2349 C2339 0.931 . S
H2350 C2340 0.930 . S
H2351 C2341 0.930 . S
Tb2352 N2383 2.660 . S
Tb2352 N2390 2.600 . S
Tb2352 O2396 2.546 . S
Tb2352 O2397 2.610 . S
Tb2352 O2399 2.320 . S
Tb2352 O2400 2.552 . S
Tb2352 O2401 2.413 . S
Tb2352 O2403 2.362 . S
Tb2352 O2404 2.421 1_545 S
Tb2352 C2416 2.833 1_554 S
C2353 C2356 1.432 . S
C2353 C2357 1.414 . S
C2353 N2360 1.359 . S
C2354 C2356 1.417 . S
C2354 C2358 1.432 . S
C2354 C2366 1.410 1_545 S
C2355 C2357 1.444 . S
C2355 C2358 1.317 . S
C2355 H2378 0.929 . S
C2356 C2353 1.432 . S
C2356 C2354 1.417 . S
C2356 N2364 1.360 . S
C2357 C2353 1.414 . S
C2357 C2355 1.444 . S
C2357 C2362 1.385 . S
C2358 C2354 1.432 . S
C2358 C2355 1.317 . S
C2358 H2370 0.930 . S
C2359 C2361 1.392 . S
C2359 C2362 1.370 . S
C2359 H2371 0.931 . S
N2360 C2353 1.359 . S
N2360 C2361 1.327 . S
N2360 Tb2363 2.600 . S
C2361 C2359 1.392 . S
C2361 N2360 1.327 . S
C2361 H2368 0.930 . S
C2362 C2357 1.385 . S
C2362 C2359 1.370 . S
C2362 H2381 0.930 . S
Tb2363 N2360 2.600 . S
Tb2363 N2364 2.660 . S
Tb2363 O2397 2.362 . S
Tb2363 O2398 2.421 . S
Tb2363 O2402 2.546 . S
Tb2363 O2403 2.610 . S
Tb2363 O2405 2.320 . S
Tb2363 O2406 2.552 . S
Tb2363 O2407 2.413 . S
Tb2363 C2427 2.833 . S
N2364 C2356 1.360 . S
N2364 Tb2363 2.660 . S
N2364 C2365 1.305 1_545 S
C2365 N2364 1.305 1_565 S
C2365 C2367 1.407 . S
C2365 H2372 0.930 . S
C2366 C2354 1.410 1_565 S
C2366 C2367 1.345 . S
C2366 H2374 0.930 . S
C2367 C2365 1.407 . S
C2367 C2366 1.345 . S
C2367 H2369 0.930 . S
H2368 C2361 0.930 . S
H2369 C2367 0.930 . S
H2370 C2358 0.930 . S
H2371 C2359 0.931 . S
H2372 C2365 0.930 . S
H2373 C2387 0.930 . S
H2374 C2366 0.930 . S
H2375 C2393 0.930 . S
H2376 C2384 0.930 . S
H2377 C2391 0.931 . S
H2378 C2355 0.929 . S
H2379 C2385 0.930 . S
H2380 C2418 0.930 . S
H2381 C2362 0.930 . S
H2382 C2417 0.929 . S
N2383 Tb2352 2.660 . S
N2383 C2384 1.305 . S
N2383 C2388 1.360 . S
C2384 H2376 0.930 . S
C2384 N2383 1.305 . S
C2384 C2387 1.407 . S
C2385 H2379 0.930 . S
C2385 C2386 1.410 . S
C2385 C2387 1.345 . S
C2386 C2385 1.410 . S
C2386 C2388 1.417 . S
C2386 C2418 1.432 . S
C2387 H2373 0.930 . S
C2387 C2384 1.407 . S
C2387 C2385 1.345 . S
C2388 N2383 1.360 . S
C2388 C2386 1.417 . S
C2388 C2392 1.432 . S
H2389 C2394 0.930 . S
N2390 Tb2352 2.600 . S
N2390 C2392 1.359 . S
N2390 C2393 1.327 1_545 S
C2391 H2377 0.931 . S
C2391 C2393 1.392 . S
C2391 C2394 1.370 . S
C2392 C2388 1.432 . S
C2392 N2390 1.359 . S
C2392 C2395 1.414 . S
C2393 H2375 0.930 . S
C2393 N2390 1.327 1_565 S
C2393 C2391 1.392 . S
C2394 H2389 0.930 . S
C2394 C2391 1.370 . S
C2394 C2395 1.385 1_565 S
C2395 C2392 1.414 . S
C2395 C2394 1.385 1_545 S
C2395 C2417 1.444 . S
O2396 Tb2352 2.546 . S
O2396 C2416 1.251 1_554 S
O2397 Tb2352 2.610 . S
O2397 Tb2363 2.362 . S
O2397 C2408 1.283 . S
O2398 Tb2363 2.421 . S
O2398 C2415 1.262 . S
O2399 Tb2352 2.320 . S
O2399 C2415 1.260 . S
O2400 Tb2352 2.552 . S
O2400 C2408 1.243 . S
O2401 Tb2352 2.413 . S
O2401 C2416 1.256 1_554 S
O2402 Tb2363 2.546 . S
O2402 C2427 1.251 . S
O2403 Tb2352 2.362 . S
O2403 Tb2363 2.610 . S
O2403 C2419 1.283 . S
O2404 Tb2352 2.421 1_565 S
O2404 C2426 1.262 . S
O2405 Tb2363 2.320 . S
O2405 C2426 1.260 1_545 S
O2406 Tb2363 2.552 . S
O2406 C2419 1.243 . S
O2407 Tb2363 2.413 . S
O2407 C2427 1.256 . S
C2408 O2397 1.283 . S
C2408 O2400 1.243 . S
C2409 C2411 1.382 . S
C2409 C2413 1.393 . S
C2409 C2416 1.500 . S
C2410 C2411 1.400 . S
C2410 C2412 1.384 . S
C2411 C2409 1.382 . S
C2411 C2410 1.400 . S
C2411 H2428 0.930 . S
C2412 C2410 1.384 . S
C2412 C2414 1.392 . S
C2412 H2429 0.931 . S
C2413 C2409 1.393 . S
C2413 C2414 1.401 . S
C2413 H2430 0.930 . S
C2414 C2412 1.392 . S
C2414 C2413 1.401 . S
C2414 H2431 0.930 . S
C2415 O2398 1.262 . S
C2415 O2399 1.260 . S
C2416 Tb2352 2.833 1_556 S
C2416 O2396 1.251 1_556 S
C2416 O2401 1.256 1_556 S
C2416 C2409 1.500 . S
C2417 H2382 0.929 . S
C2417 C2395 1.444 . S
C2417 C2418 1.317 . S
C2418 H2380 0.930 . S
C2418 C2386 1.432 . S
C2418 C2417 1.317 . S
C2419 O2403 1.283 . S
C2419 O2406 1.243 . S
C2420 C2421 1.382 . S
C2420 C2424 1.393 . S
C2420 C2427 1.500 . S
C2421 C2420 1.382 . S
C2421 C2422 1.400 . S
C2421 H2432 0.930 . S
C2422 C2421 1.400 . S
C2422 C2423 1.384 . S
C2423 C2422 1.384 . S
C2423 C2425 1.392 . S
C2423 H2433 0.931 . S
C2424 C2420 1.393 . S
C2424 C2425 1.401 . S
C2424 H2434 0.930 . S
C2425 C2423 1.392 . S
C2425 C2424 1.401 . S
C2425 H2435 0.930 . S
C2426 O2404 1.262 . S
C2426 O2405 1.260 1_565 S
C2427 Tb2363 2.833 . S
C2427 O2402 1.251 . S
C2427 O2407 1.256 . S
C2427 C2420 1.500 . S
H2428 C2411 0.930 . S
H2429 C2412 0.931 . S
H2430 C2413 0.930 . S
H2431 C2414 0.930 . S
H2432 C2421 0.930 . S
H2433 C2423 0.931 . S
H2434 C2424 0.930 . S
H2435 C2425 0.930 . S
Tb2436 N2467 2.660 . S
Tb2436 N2474 2.600 . S
Tb2436 O2480 2.546 . S
Tb2436 O2481 2.610 . S
Tb2436 O2483 2.320 . S
Tb2436 O2484 2.552 . S
Tb2436 O2485 2.413 . S
Tb2436 O2487 2.362 . S
Tb2436 O2488 2.421 1_655 S
Tb2436 C2500 2.833 1_554 S
C2437 C2440 1.432 . S
C2437 C2441 1.414 . S
C2437 N2444 1.359 . S
C2438 C2440 1.417 . S
C2438 C2442 1.432 . S
C2438 C2450 1.410 1_655 S
C2439 C2441 1.444 . S
C2439 C2442 1.317 . S
C2439 H2462 0.929 . S
C2440 C2437 1.432 . S
C2440 C2438 1.417 . S
C2440 N2448 1.360 . S
C2441 C2437 1.414 . S
C2441 C2439 1.444 . S
C2441 C2446 1.385 . S
C2442 C2438 1.432 . S
C2442 C2439 1.317 . S
C2442 H2454 0.930 . S
C2443 C2445 1.392 . S
C2443 C2446 1.370 . S
C2443 H2455 0.931 . S
N2444 C2437 1.359 . S
N2444 C2445 1.327 . S
N2444 Tb2447 2.600 . S
C2445 C2443 1.392 . S
C2445 N2444 1.327 . S
C2445 H2452 0.930 . S
C2446 C2441 1.385 . S
C2446 C2443 1.370 . S
C2446 H2465 0.930 . S
Tb2447 N2444 2.600 . S
Tb2447 N2448 2.660 . S
Tb2447 O2481 2.362 . S
Tb2447 O2482 2.421 . S
Tb2447 O2486 2.546 . S
Tb2447 O2487 2.610 . S
Tb2447 O2489 2.320 . S
Tb2447 O2490 2.552 . S
Tb2447 O2491 2.413 . S
Tb2447 C2511 2.833 . S
N2448 C2440 1.360 . S
N2448 Tb2447 2.660 . S
N2448 C2449 1.305 1_655 S
C2449 N2448 1.305 1_455 S
C2449 C2451 1.407 . S
C2449 H2456 0.930 . S
C2450 C2438 1.410 1_455 S
C2450 C2451 1.345 . S
C2450 H2458 0.930 . S
C2451 C2449 1.407 . S
C2451 C2450 1.345 . S
C2451 H2453 0.930 . S
H2452 C2445 0.930 . S
H2453 C2451 0.930 . S
H2454 C2442 0.930 . S
H2455 C2443 0.931 . S
H2456 C2449 0.930 . S
H2457 C2471 0.930 . S
H2458 C2450 0.930 . S
H2459 C2477 0.930 . S
H2460 C2468 0.930 . S
H2461 C2475 0.931 . S
H2462 C2439 0.929 . S
H2463 C2469 0.930 1_565 S
H2464 C2502 0.930 . S
H2465 C2446 0.930 . S
H2466 C2501 0.929 1_565 S
N2467 Tb2436 2.660 . S
N2467 C2468 1.305 . S
N2467 C2472 1.360 . S
C2468 H2460 0.930 . S
C2468 N2467 1.305 . S
C2468 C2471 1.407 . S
C2469 H2463 0.930 1_545 S
C2469 C2470 1.410 . S
C2469 C2471 1.345 . S
C2470 C2469 1.410 . S
C2470 C2472 1.417 . S
C2470 C2502 1.432 1_545 S
C2471 H2457 0.930 . S
C2471 C2468 1.407 . S
C2471 C2469 1.345 . S
C2472 N2467 1.360 . S
C2472 C2470 1.417 . S
C2472 C2476 1.432 . S
H2473 C2478 0.930 . S
N2474 Tb2436 2.600 . S
N2474 C2476 1.359 . S
N2474 C2477 1.327 1_655 S
C2475 H2461 0.931 . S
C2475 C2477 1.392 . S
C2475 C2478 1.370 . S
C2476 C2472 1.432 . S
C2476 N2474 1.359 . S
C2476 C2479 1.414 . S
C2477 H2459 0.930 . S
C2477 N2474 1.327 1_455 S
C2477 C2475 1.392 . S
C2478 H2473 0.930 . S
C2478 C2475 1.370 . S
C2478 C2479 1.385 1_455 S
C2479 C2476 1.414 . S
C2479 C2478 1.385 1_655 S
C2479 C2501 1.444 . S
O2480 Tb2436 2.546 . S
O2480 C2500 1.251 1_554 S
O2481 Tb2436 2.610 . S
O2481 Tb2447 2.362 . S
O2481 C2492 1.283 . S
O2482 Tb2447 2.421 . S
O2482 C2499 1.262 . S
O2483 Tb2436 2.320 . S
O2483 C2499 1.260 . S
O2484 Tb2436 2.552 . S
O2484 C2492 1.243 . S
O2485 Tb2436 2.413 . S
O2485 C2500 1.256 1_554 S
O2486 Tb2447 2.546 . S
O2486 C2511 1.251 . S
O2487 Tb2436 2.362 . S
O2487 Tb2447 2.610 . S
O2487 C2503 1.283 . S
O2488 Tb2436 2.421 1_455 S
O2488 C2510 1.262 . S
O2489 Tb2447 2.320 . S
O2489 C2510 1.260 1_655 S
O2490 Tb2447 2.552 . S
O2490 C2503 1.243 . S
O2491 Tb2447 2.413 . S
O2491 C2511 1.256 . S
C2492 O2481 1.283 . S
C2492 O2484 1.243 . S
C2493 C2495 1.382 . S
C2493 C2497 1.393 . S
C2493 C2500 1.500 . S
C2494 C2495 1.400 . S
C2494 C2496 1.384 . S
C2495 C2493 1.382 . S
C2495 C2494 1.400 . S
C2495 H2512 0.930 . S
C2496 C2494 1.384 . S
C2496 C2498 1.392 . S
C2496 H2513 0.931 . S
C2497 C2493 1.393 . S
C2497 C2498 1.401 . S
C2497 H2514 0.930 . S
C2498 C2496 1.392 . S
C2498 C2497 1.401 . S
C2498 H2515 0.930 . S
C2499 O2482 1.262 . S
C2499 O2483 1.260 . S
C2500 Tb2436 2.833 1_556 S
C2500 O2480 1.251 1_556 S
C2500 O2485 1.256 1_556 S
C2500 C2493 1.500 . S
C2501 H2466 0.929 1_545 S
C2501 C2479 1.444 . S
C2501 C2502 1.317 1_545 S
C2502 H2464 0.930 . S
C2502 C2470 1.432 1_565 S
C2502 C2501 1.317 1_565 S
C2503 O2487 1.283 . S
C2503 O2490 1.243 . S
C2504 C2505 1.382 . S
C2504 C2508 1.393 . S
C2504 C2511 1.500 . S
C2505 C2504 1.382 . S
C2505 C2506 1.400 . S
C2505 H2516 0.930 . S
C2506 C2505 1.400 . S
C2506 C2507 1.384 . S
C2507 C2506 1.384 . S
C2507 C2509 1.392 . S
C2507 H2517 0.931 . S
C2508 C2504 1.393 . S
C2508 C2509 1.401 . S
C2508 H2518 0.930 . S
C2509 C2507 1.392 . S
C2509 C2508 1.401 . S
C2509 H2519 0.930 . S
C2510 O2488 1.262 . S
C2510 O2489 1.260 1_455 S
C2511 Tb2447 2.833 . S
C2511 O2486 1.251 . S
C2511 O2491 1.256 . S
C2511 C2504 1.500 . S
H2512 C2495 0.930 . S
H2513 C2496 0.931 . S
H2514 C2497 0.930 . S
H2515 C2498 0.930 . S
H2516 C2505 0.930 . S
H2517 C2507 0.931 . S
H2518 C2508 0.930 . S
H2519 C2509 0.930 . S
Tb2520 N2551 2.660 . S
Tb2520 N2558 2.600 . S
Tb2520 O2564 2.546 . S
Tb2520 O2565 2.610 . S
Tb2520 O2567 2.320 . S
Tb2520 O2568 2.552 . S
Tb2520 O2569 2.413 . S
Tb2520 O2571 2.362 . S
Tb2520 O2572 2.421 . S
Tb2520 C2584 2.833 . S
C2521 C2524 1.432 . S
C2521 C2525 1.414 . S
C2521 N2528 1.359 . S
C2522 C2524 1.417 . S
C2522 C2526 1.432 1_545 S
C2522 C2534 1.410 . S
C2523 C2525 1.444 . S
C2523 C2526 1.317 1_545 S
C2523 H2546 0.929 1_545 S
C2524 C2521 1.432 . S
C2524 C2522 1.417 . S
C2524 N2532 1.360 . S
C2525 C2521 1.414 . S
C2525 C2523 1.444 . S
C2525 C2530 1.385 . S
C2526 C2522 1.432 1_565 S
C2526 C2523 1.317 1_565 S
C2526 H2538 0.930 . S
C2527 C2529 1.392 . S
C2527 C2530 1.370 . S
C2527 H2539 0.931 . S
N2528 C2521 1.359 . S
N2528 C2529 1.327 . S
N2528 Tb2531 2.600 . S
C2529 C2527 1.392 . S
C2529 N2528 1.327 . S
C2529 H2536 0.930 . S
C2530 C2525 1.385 . S
C2530 C2527 1.370 . S
C2530 H2549 0.930 . S
Tb2531 N2528 2.600 . S
Tb2531 N2532 2.660 . S
Tb2531 O2565 2.362 . S
Tb2531 O2566 2.421 . S
Tb2531 O2570 2.546 . S
Tb2531 O2571 2.610 . S
Tb2531 O2573 2.320 . S
Tb2531 O2574 2.552 . S
Tb2531 O2575 2.413 . S
Tb2531 C2595 2.833 . S
N2532 C2524 1.360 . S
N2532 Tb2531 2.660 . S
N2532 C2533 1.305 . S
C2533 N2532 1.305 . S
C2533 C2535 1.407 . S
C2533 H2540 0.930 . S
C2534 C2522 1.410 . S
C2534 C2535 1.345 . S
C2534 H2542 0.930 1_545 S
C2535 C2533 1.407 . S
C2535 C2534 1.345 . S
C2535 H2537 0.930 . S
H2536 C2529 0.930 . S
H2537 C2535 0.930 . S
H2538 C2526 0.930 . S
H2539 C2527 0.931 . S
H2540 C2533 0.930 . S
H2541 C2555 0.930 . S
H2542 C2534 0.930 1_565 S
H2543 C2561 0.930 . S
H2544 C2552 0.930 . S
H2545 C2559 0.931 . S
H2546 C2523 0.929 1_565 S
H2547 C2553 0.930 . S
H2548 C2586 0.930 . S
H2549 C2530 0.930 . S
H2550 C2585 0.929 . S
N2551 Tb2520 2.660 . S
N2551 C2552 1.305 . S
N2551 C2556 1.360 . S
C2552 H2544 0.930 . S
C2552 N2551 1.305 . S
C2552 C2555 1.407 . S
C2553 H2547 0.930 . S
C2553 C2554 1.410 . S
C2553 C2555 1.345 . S
C2554 C2553 1.410 . S
C2554 C2556 1.417 . S
C2554 C2586 1.432 . S
C2555 H2541 0.930 . S
C2555 C2552 1.407 . S
C2555 C2553 1.345 . S
C2556 N2551 1.360 . S
C2556 C2554 1.417 . S
C2556 C2560 1.432 . S
H2557 C2562 0.930 . S
N2558 Tb2520 2.600 . S
N2558 C2560 1.359 . S
N2558 C2561 1.327 . S
C2559 H2545 0.931 . S
C2559 C2561 1.392 . S
C2559 C2562 1.370 . S
C2560 C2556 1.432 . S
C2560 N2558 1.359 . S
C2560 C2563 1.414 . S
C2561 H2543 0.930 . S
C2561 N2558 1.327 . S
C2561 C2559 1.392 . S
C2562 H2557 0.930 . S
C2562 C2559 1.370 . S
C2562 C2563 1.385 . S
C2563 C2560 1.414 . S
C2563 C2562 1.385 . S
C2563 C2585 1.444 . S
O2564 Tb2520 2.546 . S
O2564 C2584 1.251 . S
O2565 Tb2520 2.610 . S
O2565 Tb2531 2.362 . S
O2565 C2576 1.283 . S
O2566 Tb2531 2.421 . S
O2566 C2583 1.262 . S
O2567 Tb2520 2.320 . S
O2567 C2583 1.260 . S
O2568 Tb2520 2.552 . S
O2568 C2576 1.243 . S
O2569 Tb2520 2.413 . S
O2569 C2584 1.256 . S
O2570 Tb2531 2.546 . S
O2570 C2595 1.251 . S
O2571 Tb2520 2.362 . S
O2571 Tb2531 2.610 . S
O2571 C2587 1.283 . S
O2572 Tb2520 2.421 . S
O2572 C2594 1.262 . S
O2573 Tb2531 2.320 . S
O2573 C2594 1.260 . S
O2574 Tb2531 2.552 . S
O2574 C2587 1.243 . S
O2575 Tb2531 2.413 . S
O2575 C2595 1.256 . S
C2576 O2565 1.283 . S
C2576 O2568 1.243 . S
C2577 C2579 1.382 . S
C2577 C2581 1.393 . S
C2577 C2584 1.500 . S
C2578 C2579 1.400 1_554 S
C2578 C2580 1.384 . S
C2579 C2577 1.382 . S
C2579 C2578 1.400 1_556 S
C2579 H2596 0.930 . S
C2580 C2578 1.384 . S
C2580 C2582 1.392 1_554 S
C2580 H2597 0.931 . S
C2581 C2577 1.393 . S
C2581 C2582 1.401 . S
C2581 H2598 0.930 . S
C2582 C2580 1.392 1_556 S
C2582 C2581 1.401 . S
C2582 H2599 0.930 1_556 S
C2583 O2566 1.262 . S
C2583 O2567 1.260 . S
C2584 Tb2520 2.833 . S
C2584 O2564 1.251 . S
C2584 O2569 1.256 . S
C2584 C2577 1.500 . S
C2585 H2550 0.929 . S
C2585 C2563 1.444 . S
C2585 C2586 1.317 . S
C2586 H2548 0.930 . S
C2586 C2554 1.432 . S
C2586 C2585 1.317 . S
C2587 O2571 1.283 . S
C2587 O2574 1.243 . S
C2588 C2589 1.382 . S
C2588 C2592 1.393 . S
C2588 C2595 1.500 . S
C2589 C2588 1.382 . S
C2589 C2590 1.400 . S
C2589 H2600 0.930 . S
C2590 C2589 1.400 . S
C2590 C2591 1.384 . S
C2591 C2590 1.384 . S
C2591 C2593 1.392 . S
C2591 H2601 0.931 . S
C2592 C2588 1.393 . S
C2592 C2593 1.401 . S
C2592 H2602 0.930 . S
C2593 C2591 1.392 . S
C2593 C2592 1.401 . S
C2593 H2603 0.930 . S
C2594 O2572 1.262 . S
C2594 O2573 1.260 . S
C2595 Tb2531 2.833 . S
C2595 O2570 1.251 . S
C2595 O2575 1.256 . S
C2595 C2588 1.500 . S
H2596 C2579 0.930 . S
H2597 C2580 0.931 . S
H2598 C2581 0.930 . S
H2599 C2582 0.930 1_554 S
H2600 C2589 0.930 . S
H2601 C2591 0.931 . S
H2602 C2592 0.930 . S
H2603 C2593 0.930 . S
Tb2604 N2635 2.660 . S
Tb2604 N2642 2.600 . S
Tb2604 O2648 2.546 . S
Tb2604 O2649 2.610 . S
Tb2604 O2651 2.320 . S
Tb2604 O2652 2.552 . S
Tb2604 O2653 2.413 . S
Tb2604 O2655 2.362 . S
Tb2604 O2656 2.421 . S
Tb2604 C2668 2.833 . S
C2605 C2608 1.432 . S
C2605 C2609 1.414 . S
C2605 N2612 1.359 . S
C2606 C2608 1.417 . S
C2606 C2610 1.432 1_655 S
C2606 C2618 1.410 . S
C2607 C2609 1.444 . S
C2607 C2610 1.317 1_655 S
C2607 H2630 0.929 1_655 S
C2608 C2605 1.432 . S
C2608 C2606 1.417 . S
C2608 N2616 1.360 . S
C2609 C2605 1.414 . S
C2609 C2607 1.444 . S
C2609 C2614 1.385 1_545 S
C2610 C2606 1.432 1_455 S
C2610 C2607 1.317 1_455 S
C2610 H2622 0.930 . S
C2611 C2613 1.392 . S
C2611 C2614 1.370 . S
C2611 H2623 0.931 . S
N2612 C2605 1.359 . S
N2612 C2613 1.327 1_545 S
N2612 Tb2615 2.600 . S
C2613 C2611 1.392 . S
C2613 N2612 1.327 1_565 S
C2613 H2620 0.930 . S
C2614 C2609 1.385 1_565 S
C2614 C2611 1.370 . S
C2614 H2633 0.930 . S
Tb2615 N2612 2.600 . S
Tb2615 N2616 2.660 . S
Tb2615 O2649 2.362 . S
Tb2615 O2650 2.421 1_545 S
Tb2615 O2654 2.546 . S
Tb2615 O2655 2.610 . S
Tb2615 O2657 2.320 . S
Tb2615 O2658 2.552 . S
Tb2615 O2659 2.413 . S
Tb2615 C2679 2.833 . S
N2616 C2608 1.360 . S
N2616 Tb2615 2.660 . S
N2616 C2617 1.305 . S
C2617 N2616 1.305 . S
C2617 C2619 1.407 . S
C2617 H2624 0.930 . S
C2618 C2606 1.410 . S
C2618 C2619 1.345 . S
C2618 H2626 0.930 1_655 S
C2619 C2617 1.407 . S
C2619 C2618 1.345 . S
C2619 H2621 0.930 . S
H2620 C2613 0.930 . S
H2621 C2619 0.930 . S
H2622 C2610 0.930 . S
H2623 C2611 0.931 . S
H2624 C2617 0.930 . S
H2625 C2639 0.930 . S
H2626 C2618 0.930 1_455 S
H2627 C2645 0.930 . S
H2628 C2636 0.930 . S
H2629 C2643 0.931 . S
H2630 C2607 0.929 1_455 S
H2631 C2637 0.930 . S
H2632 C2670 0.930 . S
H2633 C2614 0.930 . S
H2634 C2669 0.929 . S
N2635 Tb2604 2.660 . S
N2635 C2636 1.305 1_545 S
N2635 C2640 1.360 . S
C2636 H2628 0.930 . S
C2636 N2635 1.305 1_565 S
C2636 C2639 1.407 . S
C2637 H2631 0.930 . S
C2637 C2638 1.410 1_565 S
C2637 C2639 1.345 . S
C2638 C2637 1.410 1_545 S
C2638 C2640 1.417 . S
C2638 C2670 1.432 . S
C2639 H2625 0.930 . S
C2639 C2636 1.407 . S
C2639 C2637 1.345 . S
C2640 N2635 1.360 . S
C2640 C2638 1.417 . S
C2640 C2644 1.432 . S
H2641 C2646 0.930 . S
N2642 Tb2604 2.600 . S
N2642 C2644 1.359 . S
N2642 C2645 1.327 . S
C2643 H2629 0.931 . S
C2643 C2645 1.392 . S
C2643 C2646 1.370 . S
C2644 C2640 1.432 . S
C2644 N2642 1.359 . S
C2644 C2647 1.414 . S
C2645 H2627 0.930 . S
C2645 N2642 1.327 . S
C2645 C2643 1.392 . S
C2646 H2641 0.930 . S
C2646 C2643 1.370 . S
C2646 C2647 1.385 . S
C2647 C2644 1.414 . S
C2647 C2646 1.385 . S
C2647 C2669 1.444 . S
O2648 Tb2604 2.546 . S
O2648 C2668 1.251 . S
O2649 Tb2604 2.610 . S
O2649 Tb2615 2.362 . S
O2649 C2660 1.283 . S
O2650 Tb2615 2.421 1_565 S
O2650 C2667 1.262 . S
O2651 Tb2604 2.320 . S
O2651 C2667 1.260 1_545 S
O2652 Tb2604 2.552 . S
O2652 C2660 1.243 . S
O2653 Tb2604 2.413 . S
O2653 C2668 1.256 . S
O2654 Tb2615 2.546 . S
O2654 C2679 1.251 . S
O2655 Tb2604 2.362 . S
O2655 Tb2615 2.610 . S
O2655 C2671 1.283 . S
O2656 Tb2604 2.421 . S
O2656 C2678 1.262 . S
O2657 Tb2615 2.320 . S
O2657 C2678 1.260 . S
O2658 Tb2615 2.552 . S
O2658 C2671 1.243 . S
O2659 Tb2615 2.413 . S
O2659 C2679 1.256 . S
C2660 O2649 1.283 . S
C2660 O2652 1.243 . S
C2661 C2663 1.382 . S
C2661 C2665 1.393 . S
C2661 C2668 1.500 . S
C2662 C2663 1.400 1_554 S
C2662 C2664 1.384 . S
C2663 C2661 1.382 . S
C2663 C2662 1.400 1_556 S
C2663 H2680 0.930 . S
C2664 C2662 1.384 . S
C2664 C2666 1.392 1_554 S
C2664 H2681 0.931 . S
C2665 C2661 1.393 . S
C2665 C2666 1.401 . S
C2665 H2682 0.930 . S
C2666 C2664 1.392 1_556 S
C2666 C2665 1.401 . S
C2666 H2683 0.930 1_556 S
C2667 O2650 1.262 . S
C2667 O2651 1.260 1_565 S
C2668 Tb2604 2.833 . S
C2668 O2648 1.251 . S
C2668 O2653 1.256 . S
C2668 C2661 1.500 . S
C2669 H2634 0.929 . S
C2669 C2647 1.444 . S
C2669 C2670 1.317 . S
C2670 H2632 0.930 . S
C2670 C2638 1.432 . S
C2670 C2669 1.317 . S
C2671 O2655 1.283 . S
C2671 O2658 1.243 . S
C2672 C2673 1.382 . S
C2672 C2676 1.393 . S
C2672 C2679 1.500 . S
C2673 C2672 1.382 . S
C2673 C2674 1.400 . S
C2673 H2684 0.930 . S
C2674 C2673 1.400 . S
C2674 C2675 1.384 . S
C2675 C2674 1.384 . S
C2675 C2677 1.392 . S
C2675 H2685 0.931 . S
C2676 C2672 1.393 . S
C2676 C2677 1.401 . S
C2676 H2686 0.930 . S
C2677 C2675 1.392 . S
C2677 C2676 1.401 . S
C2677 H2687 0.930 . S
C2678 O2656 1.262 . S
C2678 O2657 1.260 . S
C2679 Tb2615 2.833 . S
C2679 O2654 1.251 . S
C2679 O2659 1.256 . S
C2679 C2672 1.500 . S
H2680 C2663 0.930 . S
H2681 C2664 0.931 . S
H2682 C2665 0.930 . S
H2683 C2666 0.930 1_554 S
H2684 C2673 0.930 . S
H2685 C2675 0.931 . S
H2686 C2676 0.930 . S
H2687 C2677 0.930 . S
Tb2688 N2719 2.660 . S
Tb2688 N2726 2.600 . S
Tb2688 O2732 2.546 . S
Tb2688 O2733 2.610 . S
Tb2688 O2735 2.320 . S
Tb2688 O2736 2.552 . S
Tb2688 O2737 2.413 . S
Tb2688 O2739 2.362 . S
Tb2688 O2740 2.421 . S
Tb2688 C2752 2.833 . S
C2689 C2692 1.432 . S
C2689 C2693 1.414 . S
C2689 N2696 1.359 . S
C2690 C2692 1.417 . S
C2690 C2694 1.432 . S
C2690 C2702 1.410 . S
C2691 C2693 1.444 . S
C2691 C2694 1.317 . S
C2691 H2714 0.929 . S
C2692 C2689 1.432 . S
C2692 C2690 1.417 . S
C2692 N2700 1.360 . S
C2693 C2689 1.414 . S
C2693 C2691 1.444 . S
C2693 C2698 1.385 1_655 S
C2694 C2690 1.432 . S
C2694 C2691 1.317 . S
C2694 H2706 0.930 . S
C2695 C2697 1.392 . S
C2695 C2698 1.370 . S
C2695 H2707 0.931 . S
N2696 C2689 1.359 . S
N2696 C2697 1.327 1_655 S
N2696 Tb2699 2.600 . S
C2697 C2695 1.392 . S
C2697 N2696 1.327 1_455 S
C2697 H2704 0.930 . S
C2698 C2693 1.385 1_455 S
C2698 C2695 1.370 . S
C2698 H2717 0.930 . S
Tb2699 N2696 2.600 . S
Tb2699 N2700 2.660 . S
Tb2699 O2733 2.362 . S
Tb2699 O2734 2.421 1_655 S
Tb2699 O2738 2.546 . S
Tb2699 O2739 2.610 . S
Tb2699 O2741 2.320 . S
Tb2699 O2742 2.552 . S
Tb2699 O2743 2.413 . S
Tb2699 C2763 2.833 . S
N2700 C2692 1.360 . S
N2700 Tb2699 2.660 . S
N2700 C2701 1.305 . S
C2701 N2700 1.305 . S
C2701 C2703 1.407 . S
C2701 H2708 0.930 . S
C2702 C2690 1.410 . S
C2702 C2703 1.345 . S
C2702 H2710 0.930 . S
C2703 C2701 1.407 . S
C2703 C2702 1.345 . S
C2703 H2705 0.930 . S
H2704 C2697 0.930 . S
H2705 C2703 0.930 . S
H2706 C2694 0.930 . S
H2707 C2695 0.931 . S
H2708 C2701 0.930 . S
H2709 C2723 0.930 . S
H2710 C2702 0.930 . S
H2711 C2729 0.930 . S
H2712 C2720 0.930 . S
H2713 C2727 0.931 . S
H2714 C2691 0.929 . S
H2715 C2721 0.930 . S
H2716 C2754 0.930 . S
H2717 C2698 0.930 . S
H2718 C2753 0.929 . S
N2719 Tb2688 2.660 . S
N2719 C2720 1.305 1_655 S
N2719 C2724 1.360 . S
C2720 H2712 0.930 . S
C2720 N2719 1.305 1_455 S
C2720 C2723 1.407 . S
C2721 H2715 0.930 . S
C2721 C2722 1.410 1_455 S
C2721 C2723 1.345 . S
C2722 C2721 1.410 1_655 S
C2722 C2724 1.417 . S
C2722 C2754 1.432 . S
C2723 H2709 0.930 . S
C2723 C2720 1.407 . S
C2723 C2721 1.345 . S
C2724 N2719 1.360 . S
C2724 C2722 1.417 . S
C2724 C2728 1.432 . S
H2725 C2730 0.930 . S
N2726 Tb2688 2.600 . S
N2726 C2728 1.359 . S
N2726 C2729 1.327 . S
C2727 H2713 0.931 . S
C2727 C2729 1.392 . S
C2727 C2730 1.370 . S
C2728 C2724 1.432 . S
C2728 N2726 1.359 . S
C2728 C2731 1.414 . S
C2729 H2711 0.930 . S
C2729 N2726 1.327 . S
C2729 C2727 1.392 . S
C2730 H2725 0.930 . S
C2730 C2727 1.370 . S
C2730 C2731 1.385 . S
C2731 C2728 1.414 . S
C2731 C2730 1.385 . S
C2731 C2753 1.444 . S
O2732 Tb2688 2.546 . S
O2732 C2752 1.251 . S
O2733 Tb2688 2.610 . S
O2733 Tb2699 2.362 . S
O2733 C2744 1.283 . S
O2734 Tb2699 2.421 1_455 S
O2734 C2751 1.262 . S
O2735 Tb2688 2.320 . S
O2735 C2751 1.260 1_655 S
O2736 Tb2688 2.552 . S
O2736 C2744 1.243 . S
O2737 Tb2688 2.413 . S
O2737 C2752 1.256 . S
O2738 Tb2699 2.546 . S
O2738 C2763 1.251 . S
O2739 Tb2688 2.362 . S
O2739 Tb2699 2.610 . S
O2739 C2755 1.283 . S
O2740 Tb2688 2.421 . S
O2740 C2762 1.262 . S
O2741 Tb2699 2.320 . S
O2741 C2762 1.260 . S
O2742 Tb2699 2.552 . S
O2742 C2755 1.243 . S
O2743 Tb2699 2.413 . S
O2743 C2763 1.256 . S
C2744 O2733 1.283 . S
C2744 O2736 1.243 . S
C2745 C2747 1.382 . S
C2745 C2749 1.393 . S
C2745 C2752 1.500 . S
C2746 C2747 1.400 1_554 S
C2746 C2748 1.384 . S
C2747 C2745 1.382 . S
C2747 C2746 1.400 1_556 S
C2747 H2764 0.930 . S
C2748 C2746 1.384 . S
C2748 C2750 1.392 1_554 S
C2748 H2765 0.931 . S
C2749 C2745 1.393 . S
C2749 C2750 1.401 . S
C2749 H2766 0.930 . S
C2750 C2748 1.392 1_556 S
C2750 C2749 1.401 . S
C2750 H2767 0.930 1_556 S
C2751 O2734 1.262 . S
C2751 O2735 1.260 1_455 S
C2752 Tb2688 2.833 . S
C2752 O2732 1.251 . S
C2752 O2737 1.256 . S
C2752 C2745 1.500 . S
C2753 H2718 0.929 . S
C2753 C2731 1.444 . S
C2753 C2754 1.317 . S
C2754 H2716 0.930 . S
C2754 C2722 1.432 . S
C2754 C2753 1.317 . S
C2755 O2739 1.283 . S
C2755 O2742 1.243 . S
C2756 C2757 1.382 . S
C2756 C2760 1.393 . S
C2756 C2763 1.500 . S
C2757 C2756 1.382 . S
C2757 C2758 1.400 . S
C2757 H2768 0.930 . S
C2758 C2757 1.400 . S
C2758 C2759 1.384 . S
C2759 C2758 1.384 . S
C2759 C2761 1.392 . S
C2759 H2769 0.931 . S
C2760 C2756 1.393 . S
C2760 C2761 1.401 . S
C2760 H2770 0.930 . S
C2761 C2759 1.392 . S
C2761 C2760 1.401 . S
C2761 H2771 0.930 . S
C2762 O2740 1.262 . S
C2762 O2741 1.260 . S
C2763 Tb2699 2.833 . S
C2763 O2738 1.251 . S
C2763 O2743 1.256 . S
C2763 C2756 1.500 . S
H2764 C2747 0.930 . S
H2765 C2748 0.931 . S
H2766 C2749 0.930 . S
H2767 C2750 0.930 1_554 S
H2768 C2757 0.930 . S
H2769 C2759 0.931 . S
H2770 C2760 0.930 . S
H2771 C2761 0.930 . S
Tb2772 N2803 2.660 . S
Tb2772 N2810 2.600 . S
Tb2772 O2816 2.546 . S
Tb2772 O2817 2.610 . S
Tb2772 O2819 2.320 . S
Tb2772 O2820 2.552 . S
Tb2772 O2821 2.413 . S
Tb2772 O2823 2.362 . S
Tb2772 O2824 2.421 . S
Tb2772 C2836 2.833 . S
C2773 C2776 1.432 . S
C2773 C2777 1.414 . S
C2773 N2780 1.359 . S
C2774 C2776 1.417 . S
C2774 C2778 1.432 . S
C2774 C2786 1.410 . S
C2775 C2777 1.444 . S
C2775 C2778 1.317 . S
C2775 H2798 0.929 . S
C2776 C2773 1.432 . S
C2776 C2774 1.417 . S
C2776 N2784 1.360 . S
C2777 C2773 1.414 . S
C2777 C2775 1.444 . S
C2777 C2782 1.385 . S
C2778 C2774 1.432 . S
C2778 C2775 1.317 . S
C2778 H2790 0.930 . S
C2779 C2781 1.392 . S
C2779 C2782 1.370 . S
C2779 H2791 0.931 . S
N2780 C2773 1.359 . S
N2780 C2781 1.327 . S
N2780 Tb2783 2.600 . S
C2781 C2779 1.392 . S
C2781 N2780 1.327 . S
C2781 H2788 0.930 . S
C2782 C2777 1.385 . S
C2782 C2779 1.370 . S
C2782 H2801 0.930 . S
Tb2783 N2780 2.600 . S
Tb2783 N2784 2.660 . S
Tb2783 O2817 2.362 . S
Tb2783 O2818 2.421 . S
Tb2783 O2822 2.546 . S
Tb2783 O2823 2.610 . S
Tb2783 O2825 2.320 . S
Tb2783 O2826 2.552 . S
Tb2783 O2827 2.413 . S
Tb2783 C2847 2.833 . S
N2784 C2776 1.360 . S
N2784 Tb2783 2.660 . S
N2784 C2785 1.305 . S
C2785 N2784 1.305 . S
C2785 C2787 1.407 . S
C2785 H2792 0.930 . S
C2786 C2774 1.410 . S
C2786 C2787 1.345 . S
C2786 H2794 0.930 . S
C2787 C2785 1.407 . S
C2787 C2786 1.345 . S
C2787 H2789 0.930 . S
H2788 C2781 0.930 . S
H2789 C2787 0.930 . S
H2790 C2778 0.930 . S
H2791 C2779 0.931 . S
H2792 C2785 0.930 . S
H2793 C2807 0.930 . S
H2794 C2786 0.930 . S
H2795 C2813 0.930 . S
H2796 C2804 0.930 . S
H2797 C2811 0.931 . S
H2798 C2775 0.929 . S
H2799 C2805 0.930 . S
H2800 C2838 0.930 . S
H2801 C2782 0.930 . S
H2802 C2837 0.929 . S
N2803 Tb2772 2.660 . S
N2803 C2804 1.305 . S
N2803 C2808 1.360 1_655 S
C2804 H2796 0.930 . S
C2804 N2803 1.305 . S
C2804 C2807 1.407 1_655 S
C2805 H2799 0.930 . S
C2805 C2806 1.410 . S
C2805 C2807 1.345 . S
C2806 C2805 1.410 . S
C2806 C2808 1.417 . S
C2806 C2838 1.432 . S
C2807 H2793 0.930 . S
C2807 C2804 1.407 1_455 S
C2807 C2805 1.345 . S
C2808 N2803 1.360 1_455 S
C2808 C2806 1.417 . S
C2808 C2812 1.432 1_455 S
H2809 C2814 0.930 1_455 S
N2810 Tb2772 2.600 . S
N2810 C2812 1.359 . S
N2810 C2813 1.327 . S
C2811 H2797 0.931 . S
C2811 C2813 1.392 . S
C2811 C2814 1.370 . S
C2812 C2808 1.432 1_655 S
C2812 N2810 1.359 . S
C2812 C2815 1.414 1_655 S
C2813 H2795 0.930 . S
C2813 N2810 1.327 . S
C2813 C2811 1.392 . S
C2814 H2809 0.930 1_655 S
C2814 C2811 1.370 . S
C2814 C2815 1.385 1_655 S
C2815 C2812 1.414 1_455 S
C2815 C2814 1.385 1_455 S
C2815 C2837 1.444 . S
O2816 Tb2772 2.546 . S
O2816 C2836 1.251 . S
O2817 Tb2772 2.610 . S
O2817 Tb2783 2.362 . S
O2817 C2828 1.283 . S
O2818 Tb2783 2.421 . S
O2818 C2835 1.262 . S
O2819 Tb2772 2.320 . S
O2819 C2835 1.260 . S
O2820 Tb2772 2.552 . S
O2820 C2828 1.243 . S
O2821 Tb2772 2.413 . S
O2821 C2836 1.256 . S
O2822 Tb2783 2.546 . S
O2822 C2847 1.251 . S
O2823 Tb2772 2.362 . S
O2823 Tb2783 2.610 . S
O2823 C2839 1.283 . S
O2824 Tb2772 2.421 . S
O2824 C2846 1.262 . S
O2825 Tb2783 2.320 . S
O2825 C2846 1.260 . S
O2826 Tb2783 2.552 . S
O2826 C2839 1.243 . S
O2827 Tb2783 2.413 . S
O2827 C2847 1.256 . S
C2828 O2817 1.283 . S
C2828 O2820 1.243 . S
C2829 C2831 1.382 . S
C2829 C2833 1.393 . S
C2829 C2836 1.500 . S
C2830 C2831 1.400 1_556 S
C2830 C2832 1.384 1_655 S
C2831 C2829 1.382 . S
C2831 C2830 1.400 1_554 S
C2831 H2848 0.930 . S
C2832 C2830 1.384 1_455 S
C2832 C2834 1.392 1_455 S
C2832 H2849 0.931 . S
C2833 C2829 1.393 . S
C2833 C2834 1.401 1_554 S
C2833 H2850 0.930 . S
C2834 C2832 1.392 1_655 S
C2834 C2833 1.401 1_556 S
C2834 H2851 0.930 1_655 S
C2835 O2818 1.262 . S
C2835 O2819 1.260 . S
C2836 Tb2772 2.833 . S
C2836 O2816 1.251 . S
C2836 O2821 1.256 . S
C2836 C2829 1.500 . S
C2837 H2802 0.929 . S
C2837 C2815 1.444 . S
C2837 C2838 1.317 . S
C2838 H2800 0.930 . S
C2838 C2806 1.432 . S
C2838 C2837 1.317 . S
C2839 O2823 1.283 . S
C2839 O2826 1.243 . S
C2840 C2841 1.382 . S
C2840 C2844 1.393 . S
C2840 C2847 1.500 . S
C2841 C2840 1.382 . S
C2841 C2842 1.400 . S
C2841 H2852 0.930 . S
C2842 C2841 1.400 . S
C2842 C2843 1.384 . S
C2843 C2842 1.384 . S
C2843 C2845 1.392 . S
C2843 H2853 0.931 . S
C2844 C2840 1.393 . S
C2844 C2845 1.401 . S
C2844 H2854 0.930 . S
C2845 C2843 1.392 . S
C2845 C2844 1.401 . S
C2845 H2855 0.930 . S
C2846 O2824 1.262 . S
C2846 O2825 1.260 . S
C2847 Tb2783 2.833 . S
C2847 O2822 1.251 . S
C2847 O2827 1.256 . S
C2847 C2840 1.500 . S
H2848 C2831 0.930 . S
H2849 C2832 0.931 . S
H2850 C2833 0.930 . S
H2851 C2834 0.930 1_455 S
H2852 C2841 0.930 . S
H2853 C2843 0.931 . S
H2854 C2844 0.930 . S
H2855 C2845 0.930 . S
Tb2856 N2887 2.660 . S
Tb2856 N2894 2.600 . S
Tb2856 O2900 2.546 . S
Tb2856 O2901 2.610 . S
Tb2856 O2903 2.320 . S
Tb2856 O2904 2.552 . S
Tb2856 O2905 2.413 . S
Tb2856 O2907 2.362 . S
Tb2856 O2908 2.421 . S
Tb2856 C2920 2.833 . S
C2857 C2860 1.432 . S
C2857 C2861 1.414 . S
C2857 N2864 1.359 . S
C2858 C2860 1.417 . S
C2858 C2862 1.432 . S
C2858 C2870 1.410 . S
C2859 C2861 1.444 . S
C2859 C2862 1.317 . S
C2859 H2882 0.929 . S
C2860 C2857 1.432 . S
C2860 C2858 1.417 . S
C2860 N2868 1.360 . S
C2861 C2857 1.414 . S
C2861 C2859 1.444 . S
C2861 C2866 1.385 . S
C2862 C2858 1.432 . S
C2862 C2859 1.317 . S
C2862 H2874 0.930 . S
C2863 C2865 1.392 . S
C2863 C2866 1.370 . S
C2863 H2875 0.931 . S
N2864 C2857 1.359 . S
N2864 C2865 1.327 . S
N2864 Tb2867 2.600 . S
C2865 C2863 1.392 . S
C2865 N2864 1.327 . S
C2865 H2872 0.930 . S
C2866 C2861 1.385 . S
C2866 C2863 1.370 . S
C2866 H2885 0.930 . S
Tb2867 N2864 2.600 . S
Tb2867 N2868 2.660 . S
Tb2867 O2901 2.362 . S
Tb2867 O2902 2.421 . S
Tb2867 O2906 2.546 . S
Tb2867 O2907 2.610 . S
Tb2867 O2909 2.320 . S
Tb2867 O2910 2.552 . S
Tb2867 O2911 2.413 . S
Tb2867 C2931 2.833 . S
N2868 C2860 1.360 . S
N2868 Tb2867 2.660 . S
N2868 C2869 1.305 . S
C2869 N2868 1.305 . S
C2869 C2871 1.407 . S
C2869 H2876 0.930 . S
C2870 C2858 1.410 . S
C2870 C2871 1.345 . S
C2870 H2878 0.930 . S
C2871 C2869 1.407 . S
C2871 C2870 1.345 . S
C2871 H2873 0.930 . S
H2872 C2865 0.930 . S
H2873 C2871 0.930 . S
H2874 C2862 0.930 . S
H2875 C2863 0.931 . S
H2876 C2869 0.930 . S
H2877 C2891 0.930 . S
H2878 C2870 0.930 . S
H2879 C2897 0.930 . S
H2880 C2888 0.930 . S
H2881 C2895 0.931 . S
H2882 C2859 0.929 . S
H2883 C2889 0.930 . S
H2884 C2922 0.930 . S
H2885 C2866 0.930 . S
H2886 C2921 0.929 . S
N2887 Tb2856 2.660 . S
N2887 C2888 1.305 . S
N2887 C2892 1.360 . S
C2888 H2880 0.930 . S
C2888 N2887 1.305 . S
C2888 C2891 1.407 . S
C2889 H2883 0.930 . S
C2889 C2890 1.410 . S
C2889 C2891 1.345 . S
C2890 C2889 1.410 . S
C2890 C2892 1.417 . S
C2890 C2922 1.432 . S
C2891 H2877 0.930 . S
C2891 C2888 1.407 . S
C2891 C2889 1.345 . S
C2892 N2887 1.360 . S
C2892 C2890 1.417 . S
C2892 C2896 1.432 . S
H2893 C2898 0.930 . S
N2894 Tb2856 2.600 . S
N2894 C2896 1.359 . S
N2894 C2897 1.327 . S
C2895 H2881 0.931 . S
C2895 C2897 1.392 . S
C2895 C2898 1.370 . S
C2896 C2892 1.432 . S
C2896 N2894 1.359 . S
C2896 C2899 1.414 . S
C2897 H2879 0.930 . S
C2897 N2894 1.327 . S
C2897 C2895 1.392 . S
C2898 H2893 0.930 . S
C2898 C2895 1.370 . S
C2898 C2899 1.385 . S
C2899 C2896 1.414 . S
C2899 C2898 1.385 . S
C2899 C2921 1.444 . S
O2900 Tb2856 2.546 . S
O2900 C2920 1.251 . S
O2901 Tb2856 2.610 . S
O2901 Tb2867 2.362 . S
O2901 C2912 1.283 . S
O2902 Tb2867 2.421 . S
O2902 C2919 1.262 . S
O2903 Tb2856 2.320 . S
O2903 C2919 1.260 . S
O2904 Tb2856 2.552 . S
O2904 C2912 1.243 . S
O2905 Tb2856 2.413 . S
O2905 C2920 1.256 . S
O2906 Tb2867 2.546 . S
O2906 C2931 1.251 . S
O2907 Tb2856 2.362 . S
O2907 Tb2867 2.610 . S
O2907 C2923 1.283 . S
O2908 Tb2856 2.421 . S
O2908 C2930 1.262 . S
O2909 Tb2867 2.320 . S
O2909 C2930 1.260 . S
O2910 Tb2867 2.552 . S
O2910 C2923 1.243 . S
O2911 Tb2867 2.413 . S
O2911 C2931 1.256 . S
C2912 O2901 1.283 . S
C2912 O2904 1.243 . S
C2913 C2915 1.382 . S
C2913 C2917 1.393 . S
C2913 C2920 1.500 . S
C2914 C2915 1.400 1_556 S
C2914 C2916 1.384 . S
C2915 C2913 1.382 . S
C2915 C2914 1.400 1_554 S
C2915 H2932 0.930 . S
C2916 C2914 1.384 . S
C2916 C2918 1.392 . S
C2916 H2933 0.931 . S
C2917 C2913 1.393 . S
C2917 C2918 1.401 1_554 S
C2917 H2934 0.930 . S
C2918 C2916 1.392 . S
C2918 C2917 1.401 1_556 S
C2918 H2935 0.930 . S
C2919 O2902 1.262 . S
C2919 O2903 1.260 . S
C2920 Tb2856 2.833 . S
C2920 O2900 1.251 . S
C2920 O2905 1.256 . S
C2920 C2913 1.500 . S
C2921 H2886 0.929 . S
C2921 C2899 1.444 . S
C2921 C2922 1.317 . S
C2922 H2884 0.930 . S
C2922 C2890 1.432 . S
C2922 C2921 1.317 . S
C2923 O2907 1.283 . S
C2923 O2910 1.243 . S
C2924 C2925 1.382 . S
C2924 C2928 1.393 . S
C2924 C2931 1.500 . S
C2925 C2924 1.382 . S
C2925 C2926 1.400 . S
C2925 H2936 0.930 . S
C2926 C2925 1.400 . S
C2926 C2927 1.384 . S
C2927 C2926 1.384 . S
C2927 C2929 1.392 . S
C2927 H2937 0.931 . S
C2928 C2924 1.393 . S
C2928 C2929 1.401 . S
C2928 H2938 0.930 . S
C2929 C2927 1.392 . S
C2929 C2928 1.401 . S
C2929 H2939 0.930 . S
C2930 O2908 1.262 . S
C2930 O2909 1.260 . S
C2931 Tb2867 2.833 . S
C2931 O2906 1.251 . S
C2931 O2911 1.256 . S
C2931 C2924 1.500 . S
H2932 C2915 0.930 . S
H2933 C2916 0.931 . S
H2934 C2917 0.930 . S
H2935 C2918 0.930 . S
H2936 C2925 0.930 . S
H2937 C2927 0.931 . S
H2938 C2928 0.930 . S
H2939 C2929 0.930 . S
Tb2940 N2971 2.660 . S
Tb2940 N2978 2.600 . S
Tb2940 O2984 2.546 . S
Tb2940 O2985 2.610 . S
Tb2940 O2987 2.320 . S
Tb2940 O2988 2.552 . S
Tb2940 O2989 2.413 . S
Tb2940 O2991 2.362 . S
Tb2940 O2992 2.421 . S
Tb2940 C3004 2.833 . S
C2941 C2944 1.432 . S
C2941 C2945 1.414 . S
C2941 N2948 1.359 . S
C2942 C2944 1.417 . S
C2942 C2946 1.432 . S
C2942 C2954 1.410 . S
C2943 C2945 1.444 . S
C2943 C2946 1.317 . S
C2943 H2966 0.929 . S
C2944 C2941 1.432 . S
C2944 C2942 1.417 . S
C2944 N2952 1.360 . S
C2945 C2941 1.414 . S
C2945 C2943 1.444 . S
C2945 C2950 1.385 . S
C2946 C2942 1.432 . S
C2946 C2943 1.317 . S
C2946 H2958 0.930 . S
C2947 C2949 1.392 . S
C2947 C2950 1.370 . S
C2947 H2959 0.931 . S
N2948 C2941 1.359 . S
N2948 C2949 1.327 . S
N2948 Tb2951 2.600 . S
C2949 C2947 1.392 . S
C2949 N2948 1.327 . S
C2949 H2956 0.930 . S
C2950 C2945 1.385 . S
C2950 C2947 1.370 . S
C2950 H2969 0.930 . S
Tb2951 N2948 2.600 . S
Tb2951 N2952 2.660 . S
Tb2951 O2985 2.362 . S
Tb2951 O2986 2.421 . S
Tb2951 O2990 2.546 . S
Tb2951 O2991 2.610 . S
Tb2951 O2993 2.320 . S
Tb2951 O2994 2.552 . S
Tb2951 O2995 2.413 . S
Tb2951 C3015 2.833 . S
N2952 C2944 1.360 . S
N2952 Tb2951 2.660 . S
N2952 C2953 1.305 . S
C2953 N2952 1.305 . S
C2953 C2955 1.407 . S
C2953 H2960 0.930 . S
C2954 C2942 1.410 . S
C2954 C2955 1.345 . S
C2954 H2962 0.930 . S
C2955 C2953 1.407 . S
C2955 C2954 1.345 . S
C2955 H2957 0.930 . S
H2956 C2949 0.930 . S
H2957 C2955 0.930 . S
H2958 C2946 0.930 . S
H2959 C2947 0.931 . S
H2960 C2953 0.930 . S
H2961 C2975 0.930 . S
H2962 C2954 0.930 . S
H2963 C2981 0.930 . S
H2964 C2972 0.930 . S
H2965 C2979 0.931 . S
H2966 C2943 0.929 . S
H2967 C2973 0.930 . S
H2968 C3006 0.930 . S
H2969 C2950 0.930 . S
H2970 C3005 0.929 . S
N2971 Tb2940 2.660 . S
N2971 C2972 1.305 . S
N2971 C2976 1.360 1_545 S
C2972 H2964 0.930 . S
C2972 N2971 1.305 . S
C2972 C2975 1.407 1_545 S
C2973 H2967 0.930 . S
C2973 C2974 1.410 . S
C2973 C2975 1.345 . S
C2974 C2973 1.410 . S
C2974 C2976 1.417 . S
C2974 C3006 1.432 . S
C2975 H2961 0.930 . S
C2975 C2972 1.407 1_565 S
C2975 C2973 1.345 . S
C2976 N2971 1.360 1_565 S
C2976 C2974 1.417 . S
C2976 C2980 1.432 1_565 S
H2977 C2982 0.930 1_565 S
N2978 Tb2940 2.600 . S
N2978 C2980 1.359 . S
N2978 C2981 1.327 . S
C2979 H2965 0.931 . S
C2979 C2981 1.392 . S
C2979 C2982 1.370 . S
C2980 C2976 1.432 1_545 S
C2980 N2978 1.359 . S
C2980 C2983 1.414 1_545 S
C2981 H2963 0.930 . S
C2981 N2978 1.327 . S
C2981 C2979 1.392 . S
C2982 H2977 0.930 1_545 S
C2982 C2979 1.370 . S
C2982 C2983 1.385 1_545 S
C2983 C2980 1.414 1_565 S
C2983 C2982 1.385 1_565 S
C2983 C3005 1.444 . S
O2984 Tb2940 2.546 . S
O2984 C3004 1.251 . S
O2985 Tb2940 2.610 . S
O2985 Tb2951 2.362 . S
O2985 C2996 1.283 . S
O2986 Tb2951 2.421 . S
O2986 C3003 1.262 . S
O2987 Tb2940 2.320 . S
O2987 C3003 1.260 . S
O2988 Tb2940 2.552 . S
O2988 C2996 1.243 . S
O2989 Tb2940 2.413 . S
O2989 C3004 1.256 . S
O2990 Tb2951 2.546 . S
O2990 C3015 1.251 . S
O2991 Tb2940 2.362 . S
O2991 Tb2951 2.610 . S
O2991 C3007 1.283 . S
O2992 Tb2940 2.421 . S
O2992 C3014 1.262 . S
O2993 Tb2951 2.320 . S
O2993 C3014 1.260 . S
O2994 Tb2951 2.552 . S
O2994 C3007 1.243 . S
O2995 Tb2951 2.413 . S
O2995 C3015 1.256 . S
C2996 O2985 1.283 . S
C2996 O2988 1.243 . S
C2997 C2999 1.382 . S
C2997 C3001 1.393 . S
C2997 C3004 1.500 . S
C2998 C2999 1.400 1_556 S
C2998 C3000 1.384 1_545 S
C2999 C2997 1.382 . S
C2999 C2998 1.400 1_554 S
C2999 H3016 0.930 . S
C3000 C2998 1.384 1_565 S
C3000 C3002 1.392 1_565 S
C3000 H3017 0.931 . S
C3001 C2997 1.393 . S
C3001 C3002 1.401 1_554 S
C3001 H3018 0.930 . S
C3002 C3000 1.392 1_545 S
C3002 C3001 1.401 1_556 S
C3002 H3019 0.930 1_545 S
C3003 O2986 1.262 . S
C3003 O2987 1.260 . S
C3004 Tb2940 2.833 . S
C3004 O2984 1.251 . S
C3004 O2989 1.256 . S
C3004 C2997 1.500 . S
C3005 H2970 0.929 . S
C3005 C2983 1.444 . S
C3005 C3006 1.317 . S
C3006 H2968 0.930 . S
C3006 C2974 1.432 . S
C3006 C3005 1.317 . S
C3007 O2991 1.283 . S
C3007 O2994 1.243 . S
C3008 C3009 1.382 . S
C3008 C3012 1.393 . S
C3008 C3015 1.500 . S
C3009 C3008 1.382 . S
C3009 C3010 1.400 . S
C3009 H3020 0.930 . S
C3010 C3009 1.400 . S
C3010 C3011 1.384 . S
C3011 C3010 1.384 . S
C3011 C3013 1.392 . S
C3011 H3021 0.931 . S
C3012 C3008 1.393 . S
C3012 C3013 1.401 . S
C3012 H3022 0.930 . S
C3013 C3011 1.392 . S
C3013 C3012 1.401 . S
C3013 H3023 0.930 . S
C3014 O2992 1.262 . S
C3014 O2993 1.260 . S
C3015 Tb2951 2.833 . S
C3015 O2990 1.251 . S
C3015 O2995 1.256 . S
C3015 C3008 1.500 . S
H3016 C2999 0.930 . S
H3017 C3000 0.931 . S
H3018 C3001 0.930 . S
H3019 C3002 0.930 1_565 S
H3020 C3009 0.930 . S
H3021 C3011 0.931 . S
H3022 C3012 0.930 . S
H3023 C3013 0.930 . S
C1334 C74 4.694 1_556 S
C1418 C158 4.694 1_556 S
C242 C1502 4.694 1_554 S
C326 C2090 4.694 . S
C410 C2174 4.694 . S
C494 C2258 4.694 . S
C2835 C567 4.694 . S
C2919 C651 4.694 . S
C735 C3003 4.694 . S
C1575 C819 4.694 . S
C903 C1659 4.694 . S
C987 C1743 4.694 . S
C2342 C1082 4.694 . S
C1166 C2426 4.694 1_545 S
C2510 C1250 4.694 1_455 S
C2583 C1827 4.694 . S
C2667 C1911 4.694 1_565 S
C1995 C2751 4.694 1_655 S
C70 C406 1.663 1_655 S
C154 C490 1.663 . S
C238 C322 1.663 1_545 S
C562 C898 1.663 1_455 S
C646 C982 1.663 . S
C730 C814 1.663 1_565 S
C1078 C1414 1.663 . S
C1498 C1162 1.663 . S
C1246 C1330 1.664 . S
C1570 C1906 1.663 . S
C1654 C1990 1.663 . S
C1822 C1738 1.663 . S
C2086 C2422 1.663 . S
C2506 C2170 1.663 . S
C2254 C2338 1.663 . S
C2578 C2914 1.664 1_554 S
C2662 C2998 1.663 1_554 S
C2746 C2830 1.663 1_554 S
C910 C67 2.482 1_556 S
C151 C994 2.483 1_554 S
C235 C826 2.483 1_554 S
C319 C742 2.483 . S
C403 C574 2.483 . S
C658 C487 2.483 . S
C560 C394 2.483 . S
C478 C644 2.483 . S
C728 C310 2.483 . S
C812 C226 2.483 . S
C58 C896 2.483 . S
C142 C980 2.483 . S
C1918 C1075 2.483 . S
C2002 C1159 2.483 . S
C1834 C1243 2.482 . S
C1750 C1327 2.484 . S
C1411 C1582 2.483 . S
C1666 C1495 2.483 . S
C1402 C1568 2.483 . S
C1652 C1486 2.483 . S
C1736 C1318 2.483 . S
C1234 C1820 2.483 . S
C1904 C1066 2.483 . S
C1988 C1150 2.483 . S
C2083 C2926 2.483 . S
C2167 C3010 2.483 . S
C2842 C2251 2.483 . S
C2758 C2335 2.483 . S
C2419 C2590 2.483 . S
C2674 C2503 2.483 . S
C2576 C2410 2.483 . S
C2494 C2660 2.483 . S
C2744 C2326 2.483 . S
C2828 C2242 2.482 . S
C2074 C2912 2.483 . S
C2158 C2996 2.483 . S
C56 C392 4.237 1_455 S
C476 C140 4.237 . S
C224 C308 4.237 1_565 S
C571 C907 4.237 1_655 S
C991 C655 4.238 . S
C739 C823 4.237 1_545 S
C1400 C1064 4.237 . S
C1484 C1148 4.237 . S
C1316 C1232 4.237 . S
C1915 C1579 4.237 . S
C1663 C1999 4.237 . S
C1831 C1747 4.237 . S
C2408 C2072 4.237 1_554 S
C2156 C2492 4.237 1_556 S
C2240 C2324 4.237 1_556 S
C2923 C2587 4.237 . S
C2671 C3007 4.237 . S
C2755 C2839 4.238 . S
C63 C578 4.252 1_454 S
C147 C662 4.252 1_554 S
C746 C231 4.252 1_546 S
C830 C315 4.252 1_565 S
C399 C914 4.252 1_655 S
C483 C998 4.252 . S
C1586 C1071 4.252 . S
C1155 C1670 4.252 . S
C1754 C1239 4.252 . S
C1838 C1323 4.268 . S
C1922 C1407 4.269 . S
C2006 C1491 4.269 . S
C2594 C2079 4.252 . S
C2163 C2678 4.252 . S
C2762 C2247 4.252 . S
C2846 C2331 4.252 . S
C2930 C2415 4.252 . S
C2499 C3014 4.252 . S
