# Generated by pormake.
# Topology ukk, (4)-cn, num edge types: 1
# Building blocks:
#     Node 0, Type 0, BuildingBlock: KOZSID_clean_sbu_0, # of connection points: 4
#     Node 1, Type 0, BuildingBlock: KOZSID_clean_sbu_0, # of connection points: 4
#     Node 2, Type 0, BuildingBlock: KOZSID_clean_sbu_0, # of connection points: 4
#     Node 3, Type 0, BuildingBlock: KOZSID_clean_sbu_0, # of connection points: 4
#     Node 4, Type 0, BuildingBlock: KOZSID_clean_sbu_0, # of connection points: 4
#     Node 5, Type 0, BuildingBlock: KOZSID_clean_sbu_0, # of connection points: 4
#     Node 6, Type 0, BuildingBlock: KOZSID_clean_sbu_0, # of connection points: 4
#     Node 7, Type 0, BuildingBlock: KOZSID_clean_sbu_0, # of connection points: 4
#     Node 8, Type 0, BuildingBlock: KOZSID_clean_sbu_0, # of connection points: 4
#     Node 9, Type 0, BuildingBlock: KOZSID_clean_sbu_0, # of connection points: 4
#     Node 10, Type 0, BuildingBlock: KOZSID_clean_sbu_0, # of connection points: 4
#     Node 11, Type 0, BuildingBlock: KOZSID_clean_sbu_0, # of connection points: 4
#     Node 12, Type 0, BuildingBlock: KOZSID_clean_sbu_0, # of connection points: 4
#     Node 13, Type 0, BuildingBlock: KOZSID_clean_sbu_0, # of connection points: 4
#     Node 14, Type 0, BuildingBlock: KOZSID_clean_sbu_0, # of connection points: 4
#     Node 15, Type 0, BuildingBlock: KOZSID_clean_sbu_0, # of connection points: 4
#     Edge 16, Type (0, 0), BuildingBlock: XIVTED_clean_linker_0, # of connection points: 2
#     Edge 17, Type (0, 0), BuildingBlock: XIVTED_clean_linker_0, # of connection points: 2
#     Edge 18, Type (0, 0), BuildingBlock: XIVTED_clean_linker_0, # of connection points: 2
#     Edge 19, Type (0, 0), BuildingBlock: XIVTED_clean_linker_0, # of connection points: 2
#     Edge 20, Type (0, 0), BuildingBlock: XIVTED_clean_linker_0, # of connection points: 2
#     Edge 21, Type (0, 0), BuildingBlock: XIVTED_clean_linker_0, # of connection points: 2
#     Edge 22, Type (0, 0), BuildingBlock: XIVTED_clean_linker_0, # of connection points: 2
#     Edge 23, Type (0, 0), BuildingBlock: XIVTED_clean_linker_0, # of connection points: 2
#     Edge 24, Type (0, 0), BuildingBlock: XIVTED_clean_linker_0, # of connection points: 2
#     Edge 25, Type (0, 0), BuildingBlock: XIVTED_clean_linker_0, # of connection points: 2
#     Edge 26, Type (0, 0), BuildingBlock: XIVTED_clean_linker_0, # of connection points: 2
#     Edge 27, Type (0, 0), BuildingBlock: XIVTED_clean_linker_0, # of connection points: 2
#     Edge 28, Type (0, 0), BuildingBlock: XIVTED_clean_linker_0, # of connection points: 2
#     Edge 29, Type (0, 0), BuildingBlock: XIVTED_clean_linker_0, # of connection points: 2
#     Edge 30, Type (0, 0), BuildingBlock: XIVTED_clean_linker_0, # of connection points: 2
#     Edge 31, Type (0, 0), BuildingBlock: XIVTED_clean_linker_0, # of connection points: 2
#     Edge 32, Type (0, 0), BuildingBlock: XIVTED_clean_linker_0, # of connection points: 2
#     Edge 33, Type (0, 0), BuildingBlock: XIVTED_clean_linker_0, # of connection points: 2
#     Edge 34, Type (0, 0), BuildingBlock: XIVTED_clean_linker_0, # of connection points: 2
#     Edge 35, Type (0, 0), BuildingBlock: XIVTED_clean_linker_0, # of connection points: 2
#     Edge 36, Type (0, 0), BuildingBlock: XIVTED_clean_linker_0, # of connection points: 2
#     Edge 37, Type (0, 0), BuildingBlock: XIVTED_clean_linker_0, # of connection points: 2
#     Edge 38, Type (0, 0), BuildingBlock: XIVTED_clean_linker_0, # of connection points: 2
#     Edge 39, Type (0, 0), BuildingBlock: XIVTED_clean_linker_0, # of connection points: 2
#     Edge 40, Type (0, 0), BuildingBlock: XIVTED_clean_linker_0, # of connection points: 2
#     Edge 41, Type (0, 0), BuildingBlock: XIVTED_clean_linker_0, # of connection points: 2
#     Edge 42, Type (0, 0), BuildingBlock: XIVTED_clean_linker_0, # of connection points: 2
#     Edge 43, Type (0, 0), BuildingBlock: XIVTED_clean_linker_0, # of connection points: 2
#     Edge 44, Type (0, 0), BuildingBlock: XIVTED_clean_linker_0, # of connection points: 2
#     Edge 45, Type (0, 0), BuildingBlock: XIVTED_clean_linker_0, # of connection points: 2
#     Edge 46, Type (0, 0), BuildingBlock: XIVTED_clean_linker_0, # of connection points: 2
#     Edge 47, Type (0, 0), BuildingBlock: XIVTED_clean_linker_0, # of connection points: 2
# Relax obj value: 0.060
# Max RMSD: 0.202
# Mean RMSD: 0.202
data_MOF--net-ukk--node1-KOZSID_clean_sbu_0--edge1-XIVTED_clean_linker_0
_symmetry_space_group_name_H-M    P1
_symmetry_Int_Tables_number       1
_symmetry_cell_setting            triclinic
loop_
_symmetry_equiv_pos_as_xyz
'x, y, z'
_cell_length_a     65.528154
_cell_length_b     65.560515
_cell_length_c     26.390279
_cell_angle_alpha  89.982614
_cell_angle_beta   89.944051
_cell_angle_gamma 89.999037
loop_
_atom_site_label
_atom_site_type_symbol
_atom_site_fract_x
_atom_site_fract_y
_atom_site_fract_z
_atom_type_partial_charge
C0 C 0.36504 0.08973 0.17643 0.0
C1 C 0.35199 0.08206 0.21329 0.0
C2 C 0.33946 0.09781 0.22748 0.0
C3 C 0.34551 0.11415 0.19857 0.0
N4 N 0.3611 0.10968 0.1673 0.0
Co5 Co 0.37413 0.12874 0.11871 0.0
N6 N 0.36341 0.15289 0.15536 0.0
C7 C 0.34744 0.15279 0.18753 0.0
C8 C 0.3425 0.17185 0.20506 0.0
C9 C 0.35612 0.18478 0.18223 0.0
C10 C 0.36879 0.17282 0.15211 0.0
N11 N 0.38711 0.14792 0.07009 0.0
C12 C 0.39119 0.16816 0.07479 0.0
C13 C 0.40149 0.17528 0.03229 0.0
C14 C 0.4032 0.15914 0.99947 0.0
C15 C 0.39417 0.14297 0.02377 0.0
N16 N 0.38463 0.10441 0.08218 0.0
C17 C 0.39151 0.10414 0.03416 0.0
C18 C 0.39791 0.08511 0.0192 0.0
C19 C 0.39474 0.07266 0.06035 0.0
C20 C 0.38651 0.08482 0.09821 0.0
N21 N 0.34937 0.12826 0.07609 0.0
C22 C 0.31594 0.12736 0.00854 0.0
C23 C 0.32345 0.1094 0.0308 0.0
C24 C 0.34 0.11019 0.06451 0.0
C25 C 0.32534 0.14582 0.022 0.0
C26 C 0.34194 0.14594 0.05551 0.0
N27 N 0.39902 0.12917 0.1603 0.0
C28 C 0.43568 0.12657 0.16517 0.0
C29 C 0.43524 0.12891 0.21795 0.0
C30 C 0.41611 0.13166 0.24119 0.0
C31 C 0.39821 0.13167 0.21175 0.0
C32 C 0.41757 0.12677 0.13731 0.0
H33 H 0.3837 0.13358 0.23057 0.0
H34 H 0.41867 0.12492 0.09689 0.0
H35 H 0.34541 0.09606 0.08058 0.0
H36 H 0.349 0.16038 0.06393 0.0
C37 C 0.33932 0.13439 0.20532 0.0
C38 C 0.3797 0.07728 0.14795 0.0
C39 C 0.38428 0.18114 0.11729 0.0
C40 C 0.3952 0.12249 0.00843 0.0
H41 H 0.35144 0.06665 0.22797 0.0
H42 H 0.32782 0.09754 0.25659 0.0
H43 H 0.33069 0.17585 0.23197 0.0
H44 H 0.35632 0.20119 0.18649 0.0
H45 H 0.40727 0.19048 0.02547 0.0
H46 H 0.41092 0.15902 0.9632 0.0
H47 H 0.40491 0.08094 0.98352 0.0
H48 H 0.39816 0.05653 0.06228 0.0
H49 H 0.31656 0.09477 0.02242 0.0
H50 H 0.32032 0.16011 0.00566 0.0
H51 H 0.45 0.12483 0.14511 0.0
H52 H 0.41492 0.13345 0.28187 0.0
C53 C 0.08579 0.63038 0.91499 0.0
C54 C 0.07454 0.62277 0.95533 0.0
C55 C 0.08781 0.62091 0.99537 0.0
C56 C 0.10639 0.62739 0.9773 0.0
N57 N 0.10561 0.63311 0.9284 0.0
Co58 Co 0.12901 0.64321 0.88752 0.0
N59 N 0.14935 0.63186 0.9357 0.0
C60 C 0.14544 0.62633 0.98389 0.0
C61 C 0.16253 0.61967 0.00904 0.0
C62 C 0.17819 0.62134 0.97471 0.0
C63 C 0.16977 0.62891 0.93026 0.0
N64 N 0.15225 0.65338 0.84624 0.0
C65 C 0.1723 0.64822 0.84736 0.0
C66 C 0.18312 0.65876 0.81033 0.0
C67 C 0.16951 0.67137 0.78657 0.0
C68 C 0.15114 0.66772 0.80976 0.0
N69 N 0.10874 0.6547 0.83954 0.0
C70 C 0.11229 0.6694 0.80506 0.0
C71 C 0.09526 0.67446 0.77751 0.0
C72 C 0.08003 0.66219 0.79592 0.0
C73 C 0.08869 0.65026 0.83369 0.0
N74 N 0.12878 0.66892 0.92661 0.0
C75 C 0.12828 0.70268 0.99341 0.0
C76 C 0.14672 0.69387 0.97724 0.0
C77 C 0.14664 0.67715 0.94406 0.0
C78 C 0.11012 0.69463 0.97332 0.0
C79 C 0.11071 0.67792 0.94002 0.0
N80 N 0.12918 0.61735 0.84969 0.0
C81 C 0.12976 0.59832 0.77126 0.0
C82 C 0.12826 0.57976 0.79772 0.0
C83 C 0.12753 0.5806 0.85079 0.0
C84 C 0.12799 0.59937 0.87579 0.0
C85 C 0.13016 0.61691 0.79789 0.0
H86 H 0.1273 0.59926 0.91653 0.0
H87 H 0.13111 0.63093 0.77661 0.0
H88 H 0.16112 0.67059 0.93359 0.0
H89 H 0.09642 0.67191 0.92635 0.0
C90 C 0.12527 0.62507 1.00162 0.0
C91 C 0.07717 0.63593 0.86539 0.0
C92 C 0.18193 0.6351 0.88585 0.0
C93 C 0.13227 0.67518 0.79347 0.0
H94 H 0.05848 0.61897 0.95582 0.0
H95 H 0.08446 0.61476 0.03252 0.0
H96 H 0.16345 0.61389 0.04739 0.0
H97 H 0.19405 0.61776 0.98188 0.0
H98 H 0.19923 0.65768 0.80172 0.0
H99 H 0.17256 0.68152 0.7551 0.0
H100 H 0.09423 0.68514 0.74633 0.0
H101 H 0.06435 0.66209 0.7831 0.0
H102 H 0.16124 0.69972 0.99031 0.0
H103 H 0.09543 0.70069 0.98445 0.0
H104 H 0.13026 0.59856 0.73026 0.0
H105 H 0.12681 0.56679 0.87324 0.0
C106 C 0.65014 0.93021 0.15814 0.0
C107 C 0.66135 0.93882 0.1973 0.0
C108 C 0.67055 0.92311 0.22223 0.0
C109 C 0.66447 0.9059 0.19699 0.0
N110 N 0.6522 0.90961 0.15689 0.0
Co111 Co 0.63924 0.88881 0.11128 0.0
N112 N 0.65062 0.8656 0.15211 0.0
C113 C 0.6629 0.86712 0.1931 0.0
C114 C 0.6676 0.84878 0.21494 0.0
C115 C 0.65776 0.83461 0.18624 0.0
C116 C 0.64774 0.84515 0.1479 0.0
N117 N 0.62599 0.86793 0.06619 0.0
C118 C 0.62554 0.84721 0.06955 0.0
C119 C 0.61449 0.83867 0.03004 0.0
C120 C 0.60751 0.85447 1.00113 0.0
C121 C 0.6147 0.87174 0.02428 0.0
N122 N 0.62787 0.91212 0.07063 0.0
C123 C 0.61685 0.91076 0.02745 0.0
C124 C 0.61044 0.9293 0.00935 0.0
C125 C 0.61756 0.94333 0.04331 0.0
C126 C 0.62793 0.9325 0.08032 0.0
N127 N 0.66429 0.88852 0.06702 0.0
C128 C 0.69924 0.8877 1.00263 0.0
C129 C 0.67948 0.88778 0.98292 0.0
C130 C 0.66253 0.88827 0.0152 0.0
C131 C 0.7012 0.88825 0.05551 0.0
C132 C 0.6837 0.88849 0.08669 0.0
N133 N 0.61425 0.88913 0.15459 0.0
C134 C 0.57744 0.89143 0.16111 0.0
C135 C 0.57814 0.89039 0.21396 0.0
C136 C 0.59741 0.88842 0.23664 0.0
C137 C 0.61516 0.88791 0.20647 0.0
C138 C 0.59538 0.89078 0.13263 0.0
H139 H 0.62948 0.88662 0.22569 0.0
H140 H 0.59355 0.89166 0.09268 0.0
H141 H 0.64818 0.88846 0.99684 0.0
H142 H 0.6863 0.88856 0.12656 0.0
C143 C 0.66883 0.88603 0.21207 0.0
C144 C 0.63705 0.94217 0.12477 0.0
C145 C 0.63558 0.83497 0.10879 0.0
C146 C 0.61103 0.89176 0.00791 0.0
H147 H 0.66236 0.95477 0.20754 0.0
H148 H 0.68001 0.92407 0.25575 0.0
H149 H 0.67671 0.84607 0.24847 0.0
H150 H 0.6578 0.81837 0.19336 0.0
H151 H 0.61178 0.82266 0.02275 0.0
H152 H 0.59825 0.85349 0.96728 0.0
H153 H 0.60104 0.93221 0.97641 0.0
H154 H 0.61505 0.95963 0.04172 0.0
H155 H 0.67698 0.88774 0.94235 0.0
H156 H 0.71616 0.88811 0.07292 0.0
H157 H 0.56301 0.89249 0.14134 0.0
H158 H 0.59885 0.88761 0.27746 0.0
C159 C 0.93109 0.38561 0.91486 0.0
C160 C 0.94189 0.39359 0.95542 0.0
C161 C 0.92822 0.39556 0.9947 0.0
C162 C 0.90988 0.38873 0.97599 0.0
N163 N 0.91119 0.38269 0.92741 0.0
Co164 Co 0.88835 0.37192 0.88582 0.0
N165 N 0.86739 0.38339 0.93217 0.0
C166 C 0.87073 0.38933 0.9803 0.0
C167 C 0.8533 0.39598 1.00405 0.0
C168 C 0.83803 0.39387 0.96884 0.0
C169 C 0.84701 0.38606 0.92531 0.0
N170 N 0.86568 0.36107 0.8438 0.0
C171 C 0.84559 0.36603 0.84336 0.0
C172 C 0.83528 0.35504 0.8063 0.0
C173 C 0.84927 0.34236 0.78414 0.0
C174 C 0.86734 0.34642 0.80824 0.0
N175 N 0.90924 0.36028 0.83966 0.0
C176 C 0.90624 0.34525 0.8058 0.0
C177 C 0.92359 0.34027 0.77936 0.0
C178 C 0.93845 0.35295 0.79784 0.0
C179 C 0.92924 0.36502 0.83457 0.0
N180 N 0.88853 0.34656 0.92643 0.0
C181 C 0.88882 0.3137 0.99591 0.0
C182 C 0.87043 0.32191 0.97776 0.0
C183 C 0.87061 0.33821 0.94329 0.0
C184 C 0.90707 0.32186 0.97663 0.0
C185 C 0.9066 0.33808 0.94183 0.0
N186 N 0.88824 0.39748 0.84665 0.0
C187 C 0.88833 0.41602 0.76742 0.0
C188 C 0.88953 0.43475 0.79324 0.0
C189 C 0.88968 0.43424 0.84633 0.0
C190 C 0.88902 0.41564 0.87204 0.0
C191 C 0.88777 0.39758 0.79479 0.0
H192 H 0.88928 0.41603 0.91279 0.0
H193 H 0.88714 0.38341 0.77406 0.0
H194 H 0.85616 0.34446 0.93157 0.0
H195 H 0.92094 0.34411 0.92844 0.0
C196 C 0.89072 0.39098 0.99914 0.0
C197 C 0.94019 0.37986 0.86593 0.0
C198 C 0.83543 0.37943 0.88039 0.0
C199 C 0.88647 0.33908 0.79344 0.0
H200 H 0.95791 0.39754 0.95651 0.0
H201 H 0.93116 0.402 0.03175 0.0
H202 H 0.85191 0.40206 0.04202 0.0
H203 H 0.82206 0.39733 0.97483 0.0
H204 H 0.81927 0.35587 0.79655 0.0
H205 H 0.84669 0.33191 0.75304 0.0
H206 H 0.92508 0.32938 0.74876 0.0
H207 H 0.95423 0.35327 0.78571 0.0
H208 H 0.85589 0.31628 0.9914 0.0
H209 H 0.92169 0.31583 0.98844 0.0
H210 H 0.88823 0.41555 0.72642 0.0
H211 H 0.89013 0.4482 0.86825 0.0
C212 C 0.36561 0.42588 0.08419 0.0
C213 C 0.35261 0.4338 0.04762 0.0
C214 C 0.34008 0.41814 0.03281 0.0
C215 C 0.34608 0.40162 0.06109 0.0
N216 N 0.36164 0.40588 0.09256 0.0
Co217 Co 0.37462 0.38652 0.14039 0.0
N218 N 0.36398 0.3626 0.10271 0.0
C219 C 0.34808 0.3629 0.07041 0.0
C220 C 0.34318 0.34397 0.05208 0.0
C221 C 0.35673 0.33089 0.07453 0.0
C222 C 0.36934 0.34264 0.10525 0.0
N223 N 0.38755 0.36704 0.1883 0.0
C224 C 0.39159 0.34681 0.18292 0.0
C225 C 0.40184 0.33944 0.22519 0.0
C226 C 0.40352 0.35539 0.2586 0.0
C227 C 0.39454 0.3717 0.23485 0.0
N228 N 0.38506 0.41061 0.17793 0.0
C229 C 0.39188 0.41058 0.22596 0.0
C230 C 0.39834 0.4295 0.2416 0.0
C231 C 0.39526 0.4422 0.20088 0.0
C232 C 0.38702 0.43028 0.16259 0.0
N233 N 0.3498 0.38669 0.18297 0.0
C234 C 0.31651 0.38713 0.25133 0.0
C235 C 0.3259 0.36878 0.23676 0.0
C236 C 0.3424 0.36889 0.20289 0.0
C237 C 0.3239 0.40523 0.22934 0.0
C238 C 0.3404 0.40467 0.19533 0.0
N239 N 0.39957 0.3864 0.09886 0.0
C240 C 0.43622 0.38926 0.09427 0.0
C241 C 0.43585 0.38763 0.04131 0.0
C242 C 0.41677 0.385 0.01784 0.0
C243 C 0.39884 0.38448 0.04725 0.0
C244 C 0.41809 0.38861 0.12206 0.0
H245 H 0.38436 0.38271 0.02827 0.0
H246 H 0.41913 0.39001 0.16259 0.0
H247 H 0.34938 0.35449 0.19355 0.0
H248 H 0.34584 0.41891 0.17993 0.0
C249 C 0.33995 0.38142 0.05341 0.0
C250 C 0.38031 0.43811 0.11307 0.0
C251 C 0.38468 0.33406 0.14003 0.0
C252 C 0.39555 0.39207 0.25098 0.0
H253 H 0.35209 0.44929 0.03353 0.0
H254 H 0.32848 0.4186 1.00365 0.0
H255 H 0.33141 0.34014 0.02495 0.0
H256 H 0.35691 0.31451 0.06965 0.0
H257 H 0.40758 0.32419 0.2315 0.0
H258 H 0.41118 0.35528 0.29491 0.0
H259 H 0.40534 0.43343 0.27741 0.0
H260 H 0.39878 0.45831 0.19953 0.0
H261 H 0.3206 0.35429 0.2514 0.0
H262 H 0.31741 0.41987 0.2393 0.0
H263 H 0.4505 0.39085 0.1145 0.0
H264 H 0.41563 0.38373 0.97704 0.0
C265 C 0.43205 0.63072 0.84793 0.0
C266 C 0.44337 0.6233 0.80751 0.0
C267 C 0.43013 0.62146 0.7674 0.0
C268 C 0.41149 0.62776 0.78551 0.0
N269 N 0.41221 0.63336 0.83449 0.0
Co270 Co 0.38873 0.64316 0.87551 0.0
N271 N 0.36848 0.63174 0.82722 0.0
C272 C 0.37244 0.62637 0.77894 0.0
C273 C 0.35541 0.61964 0.7537 0.0
C274 C 0.33974 0.62109 0.78806 0.0
C275 C 0.34809 0.62861 0.83262 0.0
N276 N 0.36541 0.65303 0.91697 0.0
C277 C 0.34542 0.64767 0.91586 0.0
C278 C 0.33454 0.65796 0.95319 0.0
C279 C 0.34803 0.67065 0.97708 0.0
C280 C 0.36641 0.66727 0.9537 0.0
N281 N 0.40892 0.65473 0.92357 0.0
C282 C 0.40525 0.66932 0.95825 0.0
C283 C 0.42224 0.67443 0.98586 0.0
C284 C 0.43757 0.66232 0.96732 0.0
C285 C 0.42899 0.65041 0.9294 0.0
N286 N 0.3887 0.66895 0.83673 0.0
C287 C 0.38871 0.70261 0.76966 0.0
C288 C 0.3704 0.6937 0.78632 0.0
C289 C 0.37072 0.67703 0.81961 0.0
C290 C 0.407 0.69478 0.78956 0.0
C291 C 0.40666 0.6781 0.82303 0.0
N292 N 0.38879 0.61722 0.91299 0.0
C293 C 0.3881 0.59797 0.99109 0.0
C294 C 0.38967 0.57949 0.96433 0.0
C295 C 0.39054 0.58048 0.9113 0.0
C296 C 0.3901 0.59932 0.88662 0.0
C297 C 0.38773 0.61664 0.96477 0.0
H298 H 0.39086 0.59933 0.84588 0.0
H299 H 0.3867 0.6306 0.98626 0.0
H300 H 0.35632 0.67035 0.83032 0.0
H301 H 0.42103 0.67222 0.83652 0.0
C302 C 0.39262 0.62533 0.76117 0.0
C303 C 0.44059 0.63617 0.89766 0.0
C304 C 0.33589 0.6346 0.87713 0.0
C305 C 0.38523 0.67487 0.97 0.0
H306 H 0.45946 0.61961 0.80702 0.0
H307 H 0.43354 0.61542 0.73018 0.0
H308 H 0.35453 0.61395 0.71527 0.0
H309 H 0.32391 0.6174 0.78083 0.0
H310 H 0.31846 0.65668 0.96196 0.0
H311 H 0.34492 0.68065 0.00878 0.0
H312 H 0.4232 0.68503 0.01721 0.0
H313 H 0.45325 0.66227 0.98018 0.0
H314 H 0.35579 0.69941 0.77347 0.0
H315 H 0.42161 0.70096 0.77809 0.0
H316 H 0.3875 0.59808 0.03209 0.0
H317 H 0.39133 0.56674 0.88863 0.0
C318 C 0.65116 0.58742 0.08853 0.0
C319 C 0.66325 0.57804 0.05211 0.0
C320 C 0.67606 0.59276 0.03339 0.0
C321 C 0.67113 0.61021 0.05941 0.0
N322 N 0.65601 0.6074 0.09322 0.0
Co323 Co 0.64448 0.62845 0.13902 0.0
N324 N 0.65555 0.65094 0.09671 0.0
C325 C 0.67025 0.64911 0.06126 0.0
C326 C 0.67446 0.66709 0.03688 0.0
C327 C 0.66182 0.6812 0.05872 0.0
C328 C 0.65072 0.67106 0.09592 0.0
N329 N 0.63308 0.64957 0.18498 0.0
C330 C 0.63051 0.66994 0.17772 0.0
C331 C 0.62269 0.67906 0.22105 0.0
C332 C 0.62045 0.6639 0.25652 0.0
C333 C 0.62704 0.64639 0.23312 0.0
N334 N 0.63352 0.6058 0.18101 0.0
C335 C 0.62742 0.60727 0.22953 0.0
C336 C 0.62041 0.58904 0.24856 0.0
C337 C 0.62234 0.57528 0.20955 0.0
C338 C 0.63048 0.5859 0.16884 0.0
N339 N 0.66982 0.62817 0.1796 0.0
C340 C 0.70301 0.62768 0.24807 0.0
C341 C 0.69481 0.6095 0.22853 0.0
C342 C 0.67838 0.61008 0.19444 0.0
C343 C 0.69464 0.64611 0.23062 0.0
C344 C 0.67821 0.64603 0.19655 0.0
N345 N 0.61898 0.62866 0.09968 0.0
C346 C 0.58218 0.62756 0.09874 0.0
C347 C 0.58186 0.62771 0.04562 0.0
C348 C 0.60071 0.62866 0.02016 0.0
C349 C 0.61905 0.62907 0.04783 0.0
C350 C 0.60073 0.62804 0.1248 0.0
H351 H 0.63329 0.62955 0.02732 0.0
H352 H 0.60022 0.62782 0.16555 0.0
H353 H 0.67221 0.59578 0.18127 0.0
H354 H 0.67199 0.66051 0.18494 0.0
C355 C 0.67747 0.6299 0.04679 0.0
C356 C 0.63623 0.57664 0.12012 0.0
C357 C 0.63728 0.68136 0.13264 0.0
C358 C 0.62524 0.62648 0.25232 0.0
H359 H 0.66289 0.56223 0.04038 0.0
H360 H 0.68701 0.59112 1.00294 0.0
H361 H 0.68496 0.66954 0.00577 0.0
H362 H 0.66109 0.69718 0.04864 0.0
H363 H 0.6193 0.69505 0.22673 0.0
H364 H 0.61432 0.66542 0.29443 0.0
H365 H 0.61388 0.58625 0.2856 0.0
H366 H 0.61822 0.5593 0.21094 0.0
H367 H 0.70055 0.59481 0.24069 0.0
H368 H 0.70063 0.66062 0.24332 0.0
H369 H 0.56814 0.62728 0.12041 0.0
H370 H 0.60133 0.62872 0.97916 0.0
C371 C 0.58401 0.38904 0.83558 0.0
C372 C 0.57298 0.40036 0.80071 0.0
C373 C 0.58673 0.40767 0.7662 0.0
C374 C 0.60533 0.40048 0.78198 0.0
N375 N 0.60426 0.38871 0.824 0.0
Co376 Co 0.6279 0.37668 0.86233 0.0
N377 N 0.64844 0.38959 0.8157 0.0
C378 C 0.6443 0.40033 0.77313 0.0
C379 C 0.66143 0.40705 0.74833 0.0
C380 C 0.67746 0.40024 0.77673 0.0
C381 C 0.6692 0.38981 0.81767 0.0
N382 N 0.65141 0.36524 0.90195 0.0
C383 C 0.67182 0.36841 0.89728 0.0
C384 C 0.68259 0.35879 0.93587 0.0
C385 C 0.66863 0.34891 0.96519 0.0
C386 C 0.65017 0.35323 0.94352 0.0
N387 N 0.60745 0.36347 0.90848 0.0
C388 C 0.61143 0.35038 0.94676 0.0
C389 C 0.59438 0.34384 0.97205 0.0
C390 C 0.5785 0.35353 0.94898 0.0
C391 C 0.58687 0.36555 0.91094 0.0
N392 N 0.62754 0.35182 0.81749 0.0
C393 C 0.62749 0.31721 0.75183 0.0
C394 C 0.63111 0.31521 0.80403 0.0
C395 C 0.63105 0.33252 0.83582 0.0
C396 C 0.62397 0.33691 0.73359 0.0
C397 C 0.62399 0.35365 0.76645 0.0
N398 N 0.62817 0.40147 0.90608 0.0
C399 C 0.62689 0.41805 0.98836 0.0
C400 C 0.62629 0.4374 0.96564 0.0
C401 C 0.62725 0.43829 0.91282 0.0
C402 C 0.62823 0.42043 0.88424 0.0
C403 C 0.62774 0.40037 0.95802 0.0
H404 H 0.62885 0.42241 0.84429 0.0
H405 H 0.62782 0.38594 0.9771 0.0
H406 H 0.63389 0.32986 0.87506 0.0
H407 H 0.62119 0.36792 0.74907 0.0
C408 C 0.62418 0.4052 0.75969 0.0
C409 C 0.57471 0.37938 0.87993 0.0
C410 C 0.68173 0.38032 0.85722 0.0
C411 C 0.6314 0.34653 0.96192 0.0
H412 H 0.55673 0.40331 0.80078 0.0
H413 H 0.5836 0.4175 0.73417 0.0
H414 H 0.66216 0.41616 0.71416 0.0
H415 H 0.69343 0.40279 0.76841 0.0
H416 H 0.69887 0.35898 0.94262 0.0
H417 H 0.67156 0.3399 0.99877 0.0
H418 H 0.59365 0.33389 0.00476 0.0
H419 H 0.56261 0.35235 0.95985 0.0
H420 H 0.63376 0.30035 0.82064 0.0
H421 H 0.62151 0.33963 0.69359 0.0
H422 H 0.62625 0.41653 0.02918 0.0
H423 H 0.62737 0.45281 0.89325 0.0
C424 C 0.866 0.58744 0.67628 0.0
C425 C 0.85384 0.57874 0.7136 0.0
C426 C 0.84153 0.59397 0.7318 0.0
C427 C 0.84679 0.61103 0.7046 0.0
N428 N 0.86166 0.6075 0.67051 0.0
Co429 Co 0.87348 0.62785 0.62314 0.0
N430 N 0.86314 0.65103 0.6643 0.0
C431 C 0.84859 0.64987 0.70032 0.0
C432 C 0.84485 0.6682 0.72356 0.0
C433 C 0.85763 0.68182 0.70034 0.0
C434 C 0.86835 0.67106 0.66353 0.0
N435 N 0.88519 0.64826 0.57558 0.0
C436 C 0.88817 0.66865 0.58132 0.0
C437 C 0.89604 0.67713 0.53723 0.0
C438 C 0.89787 0.66154 0.50282 0.0
C439 C 0.89101 0.64444 0.52756 0.0
N440 N 0.88374 0.60451 0.58233 0.0
C441 C 0.88973 0.60538 0.53363 0.0
C442 C 0.89625 0.58683 0.51555 0.0
C443 C 0.8941 0.57348 0.55535 0.0
C444 C 0.88631 0.58465 0.59558 0.0
N445 N 0.84798 0.62779 0.58319 0.0
C446 C 0.81448 0.62754 0.51569 0.0
C447 C 0.8224 0.60933 0.53572 0.0
C448 C 0.83897 0.60978 0.56941 0.0
C449 C 0.82332 0.64591 0.53202 0.0
C450 C 0.83991 0.64571 0.56559 0.0
N451 N 0.89913 0.62784 0.66185 0.0
C452 C 0.93589 0.62593 0.66202 0.0
C453 C 0.93642 0.6266 0.7151 0.0
C454 C 0.9177 0.62823 0.74093 0.0
C455 C 0.89927 0.62877 0.71366 0.0
C456 C 0.91726 0.62656 0.63637 0.0
H457 H 0.88512 0.62978 0.73446 0.0
H458 H 0.91761 0.62592 0.59563 0.0
H459 H 0.84481 0.59546 0.58334 0.0
H460 H 0.84657 0.66013 0.57606 0.0
C461 C 0.84101 0.63099 0.71619 0.0
C462 C 0.88045 0.57593 0.64489 0.0
C463 C 0.88171 0.68074 0.62559 0.0
C464 C 0.89229 0.62431 0.50964 0.0
H465 H 0.85382 0.56303 0.72624 0.0
H466 H 0.83068 0.5929 0.76264 0.0
H467 H 0.83454 0.67119 0.75475 0.0
H468 H 0.85869 0.69789 0.70916 0.0
H469 H 0.89971 0.69298 0.53034 0.0
H470 H 0.90389 0.66252 0.46468 0.0
H471 H 0.90261 0.58355 0.47857 0.0
H472 H 0.89785 0.55741 0.55479 0.0
H473 H 0.81591 0.59473 0.52535 0.0
H474 H 0.81796 0.66043 0.51769 0.0
H475 H 0.94983 0.62512 0.64007 0.0
H476 H 0.91724 0.62871 0.78193 0.0
C477 C 0.58468 0.12935 0.41658 0.0
C478 C 0.57381 0.1185 0.45273 0.0
C479 C 0.58778 0.11117 0.48657 0.0
C480 C 0.60634 0.11793 0.46926 0.0
N481 N 0.60503 0.12938 0.42674 0.0
Co482 Co 0.62841 0.14128 0.38713 0.0
N483 N 0.64924 0.12765 0.43161 0.0
C484 C 0.64539 0.11594 0.47278 0.0
C485 C 0.66265 0.10856 0.49564 0.0
C486 C 0.67849 0.11586 0.46727 0.0
C487 C 0.66998 0.12729 0.42838 0.0
N488 N 0.65165 0.15319 0.34729 0.0
C489 C 0.67212 0.15031 0.35145 0.0
C490 C 0.68269 0.16077 0.31387 0.0
C491 C 0.66854 0.1709 0.28572 0.0
C492 C 0.65017 0.16592 0.30711 0.0
N493 N 0.60764 0.15462 0.34209 0.0
C494 C 0.61137 0.16739 0.30296 0.0
C495 C 0.59418 0.17363 0.27784 0.0
C496 C 0.57847 0.16398 0.30178 0.0
C497 C 0.58706 0.15237 0.34025 0.0
N498 N 0.6285 0.16583 0.433 0.0
C499 C 0.62902 0.2001 0.49957 0.0
C500 C 0.62893 0.20258 0.44677 0.0
C501 C 0.62879 0.18543 0.41454 0.0
C502 C 0.62869 0.18014 0.51805 0.0
C503 C 0.62838 0.16354 0.48471 0.0
N504 N 0.6283 0.11678 0.34227 0.0
C505 C 0.62962 0.10083 0.25924 0.0
C506 C 0.62735 0.08137 0.28065 0.0
C507 C 0.62585 0.0801 0.33334 0.0
C508 C 0.62642 0.09771 0.36298 0.0
C509 C 0.62991 0.11824 0.29052 0.0
H510 H 0.62529 0.09545 0.40276 0.0
H511 H 0.63135 0.13276 0.27226 0.0
H512 H 0.629 0.18844 0.37485 0.0
H513 H 0.62802 0.14901 0.50218 0.0
C514 C 0.62534 0.112 0.48868 0.0
C515 C 0.57511 0.13875 0.37234 0.0
C516 C 0.68226 0.13774 0.38982 0.0
C517 C 0.63126 0.17199 0.28835 0.0
H518 H 0.55752 0.11579 0.45375 0.0
H519 H 0.58484 0.10139 0.51881 0.0
H520 H 0.66361 0.09894 0.5289 0.0
H521 H 0.69451 0.11311 0.47449 0.0
H522 H 0.69895 0.16092 0.30686 0.0
H523 H 0.67127 0.18038 0.25282 0.0
H524 H 0.59325 0.18345 0.24495 0.0
H525 H 0.56253 0.16497 0.2913 0.0
H526 H 0.62931 0.21769 0.43021 0.0
H527 H 0.62835 0.17721 0.55844 0.0
H528 H 0.63081 0.10266 0.21856 0.0
H529 H 0.6245 0.06544 0.35204 0.0
C530 C 0.15118 0.42653 0.67475 0.0
C531 C 0.16407 0.43433 0.71171 0.0
C532 C 0.17656 0.41863 0.72649 0.0
C533 C 0.17064 0.4022 0.69778 0.0
N534 N 0.15519 0.40656 0.66608 0.0
Co535 Co 0.1424 0.38734 0.61756 0.0
N536 N 0.15296 0.36331 0.65498 0.0
C537 C 0.16875 0.36352 0.6876 0.0
C538 C 0.17365 0.34453 0.7056 0.0
C539 C 0.1602 0.3315 0.68259 0.0
C540 C 0.14766 0.34334 0.6519 0.0
N541 N 0.1297 0.368 0.56896 0.0
C542 C 0.12568 0.34774 0.57384 0.0
C543 C 0.11561 0.3405 0.53118 0.0
C544 C 0.11401 0.35656 0.49808 0.0
C545 C 0.12286 0.37281 0.52236 0.0
N546 N 0.13206 0.41156 0.58031 0.0
C547 C 0.12538 0.41168 0.53215 0.0
C548 C 0.11895 0.43064 0.51675 0.0
C549 C 0.12188 0.44321 0.55776 0.0
C550 C 0.13003 0.43118 0.59598 0.0
N551 N 0.16738 0.38772 0.57555 0.0
C552 C 0.20103 0.38853 0.50847 0.0
C553 C 0.19342 0.40652 0.53034 0.0
C554 C 0.17675 0.40578 0.5638 0.0
C555 C 0.19164 0.37008 0.52216 0.0
C556 C 0.17494 0.37001 0.55544 0.0
N557 N 0.1173 0.38705 0.65849 0.0
C558 C 0.08062 0.3898 0.66221 0.0
C559 C 0.08078 0.38812 0.71516 0.0
C560 C 0.09979 0.38552 0.73907 0.0
C561 C 0.11784 0.38506 0.7101 0.0
C562 C 0.09887 0.38924 0.63486 0.0
H563 H 0.13224 0.38329 0.72941 0.0
H564 H 0.09798 0.3907 0.59433 0.0
H565 H 0.17125 0.41994 0.57951 0.0
H566 H 0.16788 0.35556 0.56401 0.0
C567 C 0.17679 0.38199 0.70515 0.0
C568 C 0.1366 0.43887 0.64577 0.0
C569 C 0.13244 0.33485 0.61665 0.0
C570 C 0.12185 0.39325 0.50667 0.0
H571 H 0.16455 0.44978 0.72609 0.0
H572 H 0.18807 0.419 0.75585 0.0
H573 H 0.18535 0.34063 0.73285 0.0
H574 H 0.16006 0.3151 0.68708 0.0
H575 H 0.10993 0.32526 0.52443 0.0
H576 H 0.10648 0.35657 0.4616 0.0
H577 H 0.11206 0.43469 0.48087 0.0
H578 H 0.11835 0.45931 0.55934 0.0
H579 H 0.2003 0.42114 0.52181 0.0
H580 H 0.19674 0.35575 0.50615 0.0
H581 H 0.06643 0.39135 0.64161 0.0
H582 H 0.10079 0.38422 0.77989 0.0
C583 C 0.43086 0.88779 0.42201 0.0
C584 C 0.44282 0.89572 0.46061 0.0
C585 C 0.43017 0.89833 0.50169 0.0
C586 C 0.41124 0.8919 0.48594 0.0
N587 N 0.41123 0.88553 0.43753 0.0
Co588 Co 0.38716 0.87518 0.39979 0.0
N589 N 0.36764 0.88753 0.44855 0.0
C590 C 0.37231 0.89412 0.49545 0.0
C591 C 0.35594 0.90281 0.51973 0.0
C592 C 0.33998 0.90137 0.48628 0.0
C593 C 0.34739 0.89155 0.4434 0.0
N594 N 0.36328 0.86462 0.36189 0.0
C595 C 0.34329 0.86985 0.36477 0.0
C596 C 0.33157 0.85735 0.33373 0.0
C597 C 0.34471 0.84402 0.31063 0.0
C598 C 0.36366 0.84894 0.32895 0.0
N599 N 0.40656 0.86276 0.35106 0.0
C600 C 0.40238 0.8474 0.31892 0.0
C601 C 0.4189 0.84182 0.29005 0.0
C602 C 0.43446 0.85441 0.3052 0.0
C603 C 0.42649 0.86702 0.34256 0.0
N604 N 0.38767 0.85006 0.44115 0.0
C605 C 0.38874 0.81658 0.50863 0.0
C606 C 0.37021 0.82578 0.49483 0.0
C607 C 0.37 0.84238 0.46129 0.0
C608 C 0.40667 0.82423 0.48642 0.0
C609 C 0.4058 0.84081 0.4528 0.0
N610 N 0.38676 0.90047 0.35965 0.0
C611 C 0.38527 0.91845 0.27975 0.0
C612 C 0.38771 0.9373 0.30446 0.0
C613 C 0.38926 0.93715 0.35742 0.0
C614 C 0.38877 0.91876 0.38401 0.0
C615 C 0.38488 0.90022 0.308 0.0
H616 H 0.39015 0.91942 0.42458 0.0
H617 H 0.38324 0.88592 0.28814 0.0
H618 H 0.3555 0.84932 0.4527 0.0
H619 H 0.41993 0.8464 0.43701 0.0
C620 C 0.39272 0.89516 0.51142 0.0
C621 C 0.43861 0.88162 0.37196 0.0
C622 C 0.33468 0.88501 0.40001 0.0
C623 C 0.38222 0.84111 0.31129 0.0
H624 H 0.45893 0.8993 0.45921 0.0
H625 H 0.43414 0.90499 0.53788 0.0
H626 H 0.35582 0.91017 0.55644 0.0
H627 H 0.32471 0.90701 0.49293 0.0
H628 H 0.31518 0.85747 0.32898 0.0
H629 H 0.34093 0.83241 0.28304 0.0
H630 H 0.41942 0.83046 0.26031 0.0
H631 H 0.44993 0.8542 0.2908 0.0
H632 H 0.35592 0.82063 0.51102 0.0
H633 H 0.42136 0.81749 0.49493 0.0
H634 H 0.38406 0.9177 0.23888 0.0
H635 H 0.39069 0.95122 0.3786 0.0
C636 C 0.86772 0.92839 0.59052 0.0
C637 C 0.85574 0.93737 0.55333 0.0
C638 C 0.84345 0.92229 0.53432 0.0
C639 C 0.84857 0.90504 0.56092 0.0
N640 N 0.86333 0.90829 0.59538 0.0
Co641 Co 0.87503 0.88759 0.64196 0.0
N642 N 0.86465 0.86471 0.59982 0.0
C643 C 0.85024 0.86617 0.56359 0.0
C644 C 0.84655 0.84803 0.53943 0.0
C645 C 0.8592 0.83421 0.56226 0.0
C646 C 0.86978 0.84466 0.5998 0.0
N647 N 0.88657 0.86682 0.68877 0.0
C648 C 0.88943 0.84645 0.6823 0.0
C649 C 0.89719 0.83767 0.72612 0.0
C650 C 0.89906 0.85303 0.7611 0.0
C651 C 0.89234 0.87032 0.73696 0.0
N652 N 0.88535 0.9106 0.68373 0.0
C653 C 0.89124 0.90941 0.73243 0.0
C654 C 0.89767 0.92784 0.75138 0.0
C655 C 0.89557 0.94147 0.71215 0.0
C656 C 0.88792 0.93055 0.67138 0.0
N657 N 0.84947 0.8875 0.68184 0.0
C658 C 0.81573 0.88738 0.74875 0.0
C659 C 0.82396 0.90573 0.7303 0.0
C660 C 0.84062 0.90545 0.69675 0.0
C661 C 0.82442 0.8691 0.73133 0.0
C662 C 0.84117 0.86949 0.69818 0.0
N663 N 0.90073 0.88772 0.60329 0.0
C664 C 0.93752 0.88928 0.60315 0.0
C665 C 0.9381 0.8889 0.55004 0.0
C666 C 0.91938 0.88764 0.52419 0.0
C667 C 0.90091 0.88712 0.55145 0.0
C668 C 0.91886 0.88869 0.6288 0.0
H669 H 0.88679 0.88637 0.53059 0.0
H670 H 0.91917 0.88908 0.66956 0.0
H671 H 0.84662 0.91986 0.68378 0.0
H672 H 0.84772 0.85511 0.68691 0.0
C673 C 0.84278 0.88518 0.5484 0.0
C674 C 0.88213 0.93963 0.62252 0.0
C675 C 0.88298 0.83466 0.63757 0.0
C676 C 0.89368 0.89032 0.75568 0.0
H677 H 0.85585 0.95314 0.54125 0.0
H678 H 0.83272 0.92359 0.50332 0.0
H679 H 0.83637 0.8453 0.50788 0.0
H680 H 0.86029 0.81821 0.55262 0.0
H681 H 0.90073 0.82175 0.73248 0.0
H682 H 0.905 0.85179 0.79923 0.0
H683 H 0.90388 0.93089 0.7886 0.0
H684 H 0.89918 0.95757 0.71344 0.0
H685 H 0.81759 0.92026 0.74168 0.0
H686 H 0.81877 0.85451 0.74446 0.0
H687 H 0.95146 0.8898 0.62514 0.0
H688 H 0.91893 0.88743 0.48318 0.0
C689 C 0.93355 0.12905 0.33668 0.0
C690 C 0.94446 0.11861 0.29989 0.0
C691 C 0.93048 0.11138 0.26591 0.0
C692 C 0.91188 0.1178 0.28377 0.0
N693 N 0.91317 0.12893 0.32681 0.0
Co694 Co 0.88977 0.14031 0.36719 0.0
N695 N 0.86896 0.12664 0.32267 0.0
C696 C 0.87285 0.11504 0.28132 0.0
C697 C 0.85562 0.10756 0.25856 0.0
C698 C 0.83976 0.11467 0.28717 0.0
C699 C 0.84823 0.1261 0.32611 0.0
N700 N 0.86649 0.15183 0.4076 0.0
C701 C 0.84604 0.14886 0.40347 0.0
C702 C 0.83545 0.15913 0.44135 0.0
C703 C 0.84957 0.16924 0.46958 0.0
C704 C 0.86794 0.16446 0.44796 0.0
N705 N 0.91049 0.15359 0.41244 0.0
C706 C 0.90672 0.1661 0.45203 0.0
C707 C 0.9239 0.17233 0.47719 0.0
C708 C 0.93964 0.16294 0.4528 0.0
C709 C 0.93108 0.15144 0.4141 0.0
N710 N 0.88933 0.1651 0.32201 0.0
C711 C 0.88814 0.19952 0.25595 0.0
C712 C 0.88919 0.20192 0.30869 0.0
C713 C 0.8896 0.18467 0.34075 0.0
C714 C 0.88797 0.17961 0.23726 0.0
C715 C 0.88865 0.16295 0.27031 0.0
N716 N 0.89024 0.11557 0.41127 0.0
C717 C 0.88924 0.09898 0.49363 0.0
C718 C 0.89197 0.07973 0.47136 0.0
C719 C 0.89344 0.07889 0.41862 0.0
C720 C 0.89251 0.09668 0.38979 0.0
C721 C 0.88855 0.11663 0.46307 0.0
H722 H 0.89371 0.09471 0.34996 0.0
H723 H 0.88678 0.131 0.48189 0.0
H724 H 0.89003 0.18757 0.3805 0.0
H725 H 0.8886 0.14849 0.25257 0.0
C726 C 0.89291 0.11158 0.26473 0.0
C727 C 0.94308 0.13809 0.38145 0.0
C728 C 0.83592 0.13643 0.36482 0.0
C729 C 0.88682 0.17054 0.46676 0.0
H730 H 0.96076 0.11603 0.29858 0.0
H731 H 0.93345 0.10182 0.23329 0.0
H732 H 0.85469 0.09807 0.22508 0.0
H733 H 0.82376 0.11183 0.28002 0.0
H734 H 0.81919 0.15916 0.44849 0.0
H735 H 0.84682 0.17859 0.50269 0.0
H736 H 0.9248 0.18202 0.51032 0.0
H737 H 0.95559 0.16402 0.46309 0.0
H738 H 0.88929 0.21702 0.32531 0.0
H739 H 0.88757 0.17676 0.19684 0.0
H740 H 0.88802 0.10047 0.53438 0.0
H741 H 0.8951 0.06442 0.39923 0.0
C742 C 0.15248 0.09027 0.58201 0.0
C743 C 0.1655 0.08249 0.54524 0.0
C744 C 0.178 0.09823 0.53066 0.0
C745 C 0.17195 0.11465 0.55925 0.0
N746 N 0.1564 0.11025 0.5907 0.0
Co747 Co 0.1433 0.12945 0.6388 0.0
N748 N 0.1539 0.1535 0.60149 0.0
C749 C 0.16984 0.15333 0.56921 0.0
C750 C 0.17469 0.17234 0.55118 0.0
C751 C 0.16107 0.18531 0.57379 0.0
C752 C 0.14847 0.17343 0.6043 0.0
N753 N 0.13026 0.14876 0.68697 0.0
C754 C 0.12614 0.16898 0.68186 0.0
C755 C 0.11583 0.17621 0.72423 0.0
C756 C 0.11418 0.16017 0.75741 0.0
C757 C 0.12324 0.14395 0.73344 0.0
N758 N 0.13292 0.10522 0.67597 0.0
C759 C 0.12608 0.10509 0.72402 0.0
C760 C 0.11975 0.08608 0.73941 0.0
C761 C 0.12291 0.07351 0.6985 0.0
C762 C 0.13106 0.08558 0.66034 0.0
N763 N 0.16807 0.12925 0.68141 0.0
C764 C 0.2012 0.12875 0.75006 0.0
C765 C 0.1918 0.14711 0.73561 0.0
C766 C 0.17538 0.14703 0.7016 0.0
C767 C 0.19393 0.11069 0.72774 0.0
C768 C 0.17751 0.11127 0.69358 0.0
N769 N 0.1184 0.1296 0.59725 0.0
C770 C 0.08177 0.12665 0.59263 0.0
C771 C 0.08217 0.12857 0.53974 0.0
C772 C 0.10125 0.13136 0.51631 0.0
C773 C 0.11916 0.13176 0.5457 0.0
C774 C 0.09988 0.12722 0.62042 0.0
H775 H 0.13365 0.13366 0.52676 0.0
H776 H 0.09881 0.12563 0.66091 0.0
H777 H 0.16837 0.16143 0.6924 0.0
H778 H 0.17215 0.09705 0.67794 0.0
C779 C 0.17803 0.13488 0.5519 0.0
C780 C 0.13779 0.07793 0.61068 0.0
C781 C 0.13304 0.18187 0.63913 0.0
C782 C 0.12232 0.12352 0.74929 0.0
H783 H 0.16603 0.06705 0.53085 0.0
H784 H 0.1896 0.09788 0.50144 0.0
H785 H 0.18648 0.17627 0.52412 0.0
H786 H 0.16084 0.2017 0.56915 0.0
H787 H 0.11002 0.19141 0.73075 0.0
H788 H 0.10649 0.16015 0.79372 0.0
H789 H 0.11278 0.08201 0.77522 0.0
H790 H 0.11954 0.05737 0.69691 0.0
H791 H 0.19702 0.16158 0.75049 0.0
H792 H 0.20045 0.09604 0.73758 0.0
H793 H 0.06748 0.12492 0.61282 0.0
H794 H 0.1024 0.13285 0.47555 0.0
C795 C 0.0859 0.88708 0.34283 0.0
C796 C 0.07388 0.89508 0.30442 0.0
C797 C 0.08647 0.89785 0.26329 0.0
C798 C 0.10544 0.89147 0.2788 0.0
N799 N 0.10554 0.88498 0.32713 0.0
Co800 Co 0.12976 0.87479 0.3646 0.0
N801 N 0.14913 0.88736 0.31579 0.0
C802 C 0.14435 0.89398 0.26898 0.0
C803 C 0.16062 0.90281 0.24461 0.0
C804 C 0.17665 0.90143 0.2779 0.0
C805 C 0.16937 0.89151 0.32079 0.0
N806 N 0.15377 0.86439 0.4023 0.0
C807 C 0.17372 0.86977 0.3993 0.0
C808 C 0.18557 0.85731 0.43016 0.0
C809 C 0.17256 0.84385 0.45324 0.0
C810 C 0.15356 0.84865 0.4351 0.0
N811 N 0.11052 0.86214 0.41338 0.0
C812 C 0.11487 0.84674 0.44528 0.0
C813 C 0.09842 0.8409 0.47411 0.0
C814 C 0.08273 0.85336 0.45919 0.0
C815 C 0.09055 0.86618 0.42202 0.0
N816 N 0.12945 0.8497 0.32307 0.0
C817 C 0.12883 0.81615 0.25577 0.0
C818 C 0.14724 0.82556 0.26968 0.0
C819 C 0.14722 0.8422 0.30308 0.0
C820 C 0.11078 0.82368 0.27763 0.0
C821 C 0.11142 0.84029 0.31121 0.0
N822 N 0.13002 0.90004 0.40487 0.0
C823 C 0.13191 0.918 0.48472 0.0
C824 C 0.12947 0.93688 0.46009 0.0
C825 C 0.12761 0.93674 0.4072 0.0
C826 C 0.12789 0.91835 0.38059 0.0
C827 C 0.1321 0.89977 0.45646 0.0
H828 H 0.12634 0.91903 0.34006 0.0
H829 H 0.13381 0.88547 0.47626 0.0
H830 H 0.16165 0.84927 0.31174 0.0
H831 H 0.09723 0.84576 0.32685 0.0
C832 C 0.12391 0.89491 0.25322 0.0
C833 C 0.07822 0.88071 0.39286 0.0
C834 C 0.18218 0.88502 0.36403 0.0
C835 C 0.13509 0.84062 0.45274 0.0
H836 H 0.05777 0.89864 0.30595 0.0
H837 H 0.08243 0.90461 0.22724 0.0
H838 H 0.16065 0.91022 0.20794 0.0
H839 H 0.19187 0.90716 0.27115 0.0
H840 H 0.20197 0.85753 0.43475 0.0
H841 H 0.17647 0.83221 0.48067 0.0
H842 H 0.09804 0.82945 0.50365 0.0
H843 H 0.06727 0.85292 0.47359 0.0
H844 H 0.16161 0.82055 0.25371 0.0
H845 H 0.09618 0.81678 0.26896 0.0
H846 H 0.13334 0.91723 0.52554 0.0
H847 H 0.12616 0.95081 0.38603 0.0
H848 H 0.41211 0.97049 0.32378 0.0
H849 H 0.3631 0.0422 0.10905 0.0
H850 H 0.36565 0.94959 0.22029 0.0
H851 H 0.40353 0.06383 0.2257 0.0
H852 H 0.36638 1.00738 0.14297 0.0
H853 H 0.41164 1.00374 0.28245 0.0
C854 C 0.40174 0.97286 0.2924 0.0
C855 C 0.38867 0.95714 0.27616 0.0
C856 C 0.37473 0.01968 0.16084 0.0
C857 C 0.38827 0.99549 0.22783 0.0
C858 C 0.37297 0.03949 0.14125 0.0
C859 C 0.38335 0.05577 0.16419 0.0
C860 C 0.38689 0.01614 0.20386 0.0
C861 C 0.39552 0.05161 0.20659 0.0
C862 C 0.40157 0.99191 0.26859 0.0
C863 C 0.37604 0.96113 0.23421 0.0
N864 N 0.39695 0.03225 0.22504 0.0
N865 N 0.37606 0.97991 0.21176 0.0
H866 H 0.04209 0.65162 0.90693 0.0
H867 H 0.97003 0.60326 0.69215 0.0
H868 H 0.06343 0.61112 0.79 0.0
H869 H 0.94872 0.64758 0.80084 0.0
H870 H 1.00343 0.60358 0.73283 0.0
H871 H 1.00708 0.64778 0.87471 0.0
C872 C 0.03927 0.64153 0.8752 0.0
C873 C 0.05554 0.63134 0.85162 0.0
C874 C 0.99146 0.61321 0.74799 0.0
C875 C 0.01568 0.62726 0.81363 0.0
C876 C 0.97233 0.61312 0.72455 0.0
C877 C 0.95645 0.62562 0.74251 0.0
C878 C 0.99496 0.62587 0.79003 0.0
C879 C 0.96039 0.63764 0.7856 0.0
C880 C 0.01935 0.63948 0.85651 0.0
C881 C 0.05123 0.61896 0.80967 0.0
N882 N 0.97924 0.63757 0.80761 0.0
N883 N 0.03177 0.6173 0.79198 0.0
H884 H 0.60673 0.95652 0.18553 0.0
H885 H 0.65115 0.07075 0.19822 0.0
H886 H 0.658 0.9766 0.09657 0.0
H887 H 0.60204 0.04838 0.29188 0.0
H888 H 0.65169 0.03787 0.15355 0.0
H889 H 0.60249 0.99136 0.21776 0.0
C890 C 0.61683 0.96844 0.17211 0.0
C891 C 0.63258 0.96384 0.13809 0.0
C892 C 0.64071 0.04022 0.18366 0.0
C893 C 0.62822 1.0037 0.1755 0.0
C894 C 0.64031 0.05905 0.20899 0.0
C895 C 0.62668 0.06233 0.24934 0.0
C896 C 0.62729 0.02454 0.19851 0.0
C897 C 0.61309 0.04648 0.26172 0.0
C898 C 0.61454 0.9883 0.1907 0.0
C899 C 0.64554 0.97968 0.12241 0.0
N900 N 0.61381 0.02835 0.2367 0.0
N901 N 0.64316 0.99889 0.14144 0.0
H902 H 0.06914 0.36595 0.7997 0.0
H903 H 0.95347 0.40608 0.79317 0.0
H904 H 0.04736 0.41248 0.6975 0.0
H905 H 0.97549 0.36385 0.90537 0.0
H906 H 0.98838 0.41001 0.76101 0.0
H907 H 0.03584 0.36622 0.84232 0.0
C908 C 0.05749 0.37637 0.78647 0.0
C909 C 0.06113 0.38903 0.74436 0.0
C910 C 0.98573 0.40011 0.79319 0.0
C911 C 0.02276 0.38927 0.79289 0.0
C912 C 0.96581 0.39801 0.81172 0.0
C913 C 0.96173 0.38495 0.85249 0.0
C914 C 1.00171 0.38877 0.81504 0.0
C915 C 0.97813 0.37438 0.87446 0.0
C916 C 0.03841 0.37645 0.81073 0.0
C917 C 0.04525 0.40209 0.72893 0.0
N918 N 0.99737 0.37641 0.85526 0.0
N919 N 0.02684 0.40177 0.75287 0.0
H920 H 0.36449 0.47315 0.15422 0.0
H921 H 0.41255 0.54573 0.93969 0.0
H922 H 0.40365 0.45175 0.03449 0.0
H923 H 0.36843 0.56676 0.04938 0.0
H924 H 0.41171 0.51203 0.97876 0.0
H925 H 0.36807 0.50815 0.12173 0.0
C926 C 0.37416 0.47595 0.12163 0.0
C927 C 0.38411 0.45968 0.09745 0.0
C928 C 0.40223 0.524 0.99446 0.0
C929 C 0.38796 0.49953 0.05934 0.0
C930 C 0.40261 0.5433 0.97195 0.0
C931 C 0.39034 0.55922 0.9907 0.0
C932 C 0.38952 0.52035 0.03637 0.0
C933 C 0.37823 0.55509 0.03358 0.0
C934 C 0.37608 0.49586 0.10285 0.0
C935 C 0.39599 0.46396 0.05455 0.0
N936 N 0.37804 0.53609 0.05471 0.0
N937 N 0.39758 0.48342 0.03688 0.0
H938 H 0.45371 0.611 0.97283 0.0
H939 H 0.57044 0.64812 0.95831 0.0
H940 H 0.47605 0.65175 0.85756 0.0
H941 H 0.54753 0.60548 0.06921 0.0
H942 H 0.53687 0.64807 0.91725 0.0
H943 H 0.4886 0.60715 0.00505 0.0
C944 C 0.46611 0.61878 0.9537 0.0
C945 C 0.46212 0.63137 0.91195 0.0
C946 C 0.53923 0.63866 0.95044 0.0
C947 C 0.5021 0.62758 0.94934 0.0
C948 C 0.55847 0.63859 0.97381 0.0
C949 C 0.56191 0.62695 0.01778 0.0
C950 C 0.52322 0.62697 0.97099 0.0
C951 C 0.54561 0.61506 0.03615 0.0
C952 C 0.48601 0.61672 0.97224 0.0
C953 C 0.47861 0.64155 0.88921 0.0
N954 N 0.52707 0.61546 0.01292 0.0
N955 N 0.49784 0.63953 0.90832 0.0
H956 H 0.60259 0.47078 0.94528 0.0
H957 H 0.65096 0.54137 0.1627 0.0
H958 H 0.64616 0.44829 0.05418 0.0
H959 H 0.61099 0.5633 0.0454 0.0
H960 H 0.64645 0.50638 0.13073 0.0
H961 H 0.60257 0.50369 0.98821 0.0
C962 C 0.61216 0.47274 0.97837 0.0
C963 C 0.62464 0.45673 0.99557 0.0
C964 C 0.63839 0.51878 0.11247 0.0
C965 C 0.6246 0.49469 0.0455 0.0
C966 C 0.64082 0.53868 0.131 0.0
C967 C 0.63101 0.55511 0.10712 0.0
C968 C 0.62617 0.51531 0.0695 0.0
C969 C 0.61854 0.55098 0.06527 0.0
C970 C 0.61208 0.49158 1.00304 0.0
C971 C 0.6363 0.46014 0.03948 0.0
N972 N 0.61653 0.53155 0.04773 0.0
N973 N 0.63616 0.47878 0.06261 0.0
H974 H 0.46891 0.41252 0.05778 0.0
H975 H 0.53962 0.36224 0.84248 0.0
H976 H 0.44753 0.36538 0.9569 0.0
H977 H 0.56118 0.40511 0.95366 0.0
H978 H 0.50486 0.36571 0.87708 0.0
H979 H 0.50169 0.41239 0.01403 0.0
C980 C 0.47107 0.40208 0.02644 0.0
C981 C 0.45537 0.38872 0.01166 0.0
C982 C 0.51712 0.37457 0.89352 0.0
C983 C 0.49317 0.38868 0.96056 0.0
C984 C 0.53689 0.3727 0.87352 0.0
C985 C 0.55313 0.38361 0.89497 0.0
C986 C 0.51363 0.3874 0.93541 0.0
C987 C 0.54897 0.39664 0.93578 0.0
C988 C 0.48984 0.4021 1.00122 0.0
C989 C 0.45907 0.37598 0.96972 0.0
N990 N 0.52969 0.39812 0.95474 0.0
N991 N 0.4776 0.37616 0.94595 0.0
H992 H 0.9126 0.46836 0.81727 0.0
H993 H 0.86495 0.54095 0.60245 0.0
H994 H 0.86907 0.44711 0.70669 0.0
H995 H 0.90484 0.56197 0.7209 0.0
H996 H 0.86876 0.50584 0.6341 0.0
H997 H 0.9123 0.50187 0.77717 0.0
C998 C 0.90292 0.4707 0.78455 0.0
C999 C 0.89062 0.4548 0.76593 0.0
C1000 C 0.87693 0.51806 0.65278 0.0
C1001 C 0.89038 0.49347 0.71908 0.0
C1002 C 0.8749 0.53805 0.63442 0.0
C1003 C 0.88493 0.55426 0.65858 0.0
C1004 C 0.88897 0.51428 0.69589 0.0
C1005 C 0.89712 0.54982 0.70079 0.0
C1006 C 0.90284 0.4899 0.76145 0.0
C1007 C 0.87884 0.4588 0.72246 0.0
N1008 N 0.89877 0.53032 0.71813 0.0
N1009 N 0.8789 0.47772 0.7008 0.0
H1010 H 0.56138 0.10992 0.30653 0.0
H1011 H 0.44649 0.15279 0.29969 0.0
H1012 H 0.54024 0.1582 0.40372 0.0
H1013 H 0.46867 0.10419 0.20417 0.0
H1014 H 0.47957 0.15335 0.34317 0.0
H1015 H 0.52661 0.10585 0.27362 0.0
C1016 C 0.54924 0.11938 0.32157 0.0
C1017 C 0.55352 0.13423 0.35819 0.0
C1018 C 0.47715 0.1425 0.31285 0.0
C1019 C 0.51374 0.13009 0.32002 0.0
C1020 C 0.45819 0.14209 0.28815 0.0
C1021 C 0.45473 0.12857 0.24768 0.0
C1022 C 0.49284 0.12925 0.29722 0.0
C1023 C 0.47065 0.11519 0.23434 0.0
C1024 C 0.52942 0.11718 0.30261 0.0
C1025 C 0.53741 0.14641 0.37588 0.0
N1026 N 0.48893 0.11595 0.25876 0.0
N1027 N 0.51825 0.14417 0.35644 0.0
H1028 H 0.10542 0.54595 0.82225 0.0
H1029 H 0.15245 0.47401 0.60505 0.0
H1030 H 0.14914 0.56726 0.71189 0.0
H1031 H 0.11335 0.45236 0.72468 0.0
H1032 H 0.14911 0.50889 0.63837 0.0
H1033 H 0.10596 0.5124 0.78236 0.0
C1034 C 0.11521 0.54361 0.78969 0.0
C1035 C 0.12746 0.55957 0.77099 0.0
C1036 C 0.14105 0.49658 0.65704 0.0
C1037 C 0.12793 0.52088 0.72433 0.0
C1038 C 0.14283 0.47673 0.63777 0.0
C1039 C 0.13283 0.46042 0.66168 0.0
C1040 C 0.12928 0.50015 0.70078 0.0
C1041 C 0.12104 0.4646 0.70479 0.0
C1042 C 0.11542 0.5244 0.76669 0.0
C1043 C 0.13937 0.55557 0.72769 0.0
N1044 N 0.1196 0.48401 0.72295 0.0
N1045 N 0.13939 0.53665 0.70609 0.0
H1046 H 0.45109 0.90689 0.29625 0.0
H1047 H 0.56746 0.86848 0.29968 0.0
H1048 H 0.4743 0.8653 0.40845 0.0
H1049 H 0.54433 0.91422 0.19715 0.0
H1050 H 0.53432 0.86822 0.34315 0.0
H1051 H 0.48571 0.91084 0.26213 0.0
C1052 C 0.46362 0.89889 0.3142 0.0
C1053 C 0.45998 0.88606 0.35566 0.0
C1054 C 0.53655 0.87839 0.3113 0.0
C1055 C 0.49963 0.89 0.31619 0.0
C1056 C 0.55555 0.87863 0.28659 0.0
C1057 C 0.55874 0.89121 0.24413 0.0
C1058 C 0.52057 0.89082 0.29354 0.0
C1059 C 0.54255 0.90391 0.22888 0.0
C1060 C 0.48337 0.90104 0.29464 0.0
C1061 C 0.47661 0.87564 0.37697 0.0
N1062 N 0.52425 0.90329 0.25325 0.0
N1063 N 0.49569 0.87774 0.35686 0.0
H1064 H 0.86435 0.97414 0.66144 0.0
H1065 H 0.9182 0.04766 0.45779 0.0
H1066 H 0.90904 0.95418 0.55265 0.0
H1067 H 0.86874 0.06754 0.55376 0.0
H1068 H 0.91779 0.01458 0.49998 0.0
H1069 H 0.86842 0.00937 0.6306 0.0
C1070 C 0.87536 0.97732 0.63183 0.0
C1071 C 0.88665 0.96138 0.61002 0.0
C1072 C 0.90706 0.02615 0.51213 0.0
C1073 C 0.89112 1.00146 0.57381 0.0
C1074 C 0.90725 0.0451 0.4879 0.0
C1075 C 0.89327 0.06042 0.5016 0.0
C1076 C 0.89279 0.02225 0.55066 0.0
C1077 C 0.8798 0.05625 0.54184 0.0
C1078 C 0.87757 0.99736 0.61396 0.0
C1079 C 0.9003 0.96612 0.57088 0.0
N1080 N 0.87977 0.03752 0.56461 0.0
N1081 N 0.90212 0.98568 0.554 0.0
H1082 H 0.97797 0.15594 0.34472 0.0
H1083 H 0.04926 0.10337 0.55506 0.0
H1084 H 0.95694 0.11121 0.45212 0.0
H1085 H 0.07039 0.15151 0.45663 0.0
H1086 H 0.01645 0.10377 0.51162 0.0
H1087 H 0.01284 0.15214 0.37827 0.0
C1088 C 0.98085 0.145 0.37465 0.0
C1089 C 0.96472 0.13367 0.39537 0.0
C1090 C 0.02825 0.11422 0.49926 0.0
C1091 C 1.00434 0.12949 0.43467 0.0
C1092 C 0.04703 0.11408 0.5243 0.0
C1093 C 0.06267 0.12763 0.51012 0.0
C1094 C 0.02483 0.12802 0.45943 0.0
C1095 C 0.05889 0.14075 0.46895 0.0
C1096 C 1.00067 0.14294 0.39407 0.0
C1097 C 0.96906 0.12002 0.4348 0.0
N1098 N 0.04035 0.14073 0.44537 0.0
N1099 N 0.98839 0.11837 0.45326 0.0
H1100 H 0.15206 0.94875 0.54369 0.0
H1101 H 0.11323 0.06489 0.53413 0.0
H1102 H 0.10563 0.97058 0.44128 0.0
H1103 H 0.15442 0.04259 0.64833 0.0
H1104 H 0.10967 0.03006 0.5012 0.0
H1105 H 0.15247 0.98234 0.58467 0.0
C1106 C 0.1418 0.96047 0.53006 0.0
C1107 C 0.12896 0.95674 0.4884 0.0
C1108 C 0.11931 0.03266 0.53385 0.0
C1109 C 0.12954 0.99546 0.53497 0.0
C1110 C 0.12125 0.05253 0.55269 0.0
C1111 C 0.13383 0.05647 0.59441 0.0
C1112 C 0.1303 0.01659 0.55641 0.0
C1113 C 0.14428 0.04004 0.61659 0.0
C1114 C 0.14213 0.97973 0.55336 0.0
C1115 C 0.11615 0.97274 0.4724 0.0
N1116 N 0.14236 0.02084 0.59721 0.0
N1117 N 0.11686 0.99131 0.49539 0.0
H1118 H 0.9722 0.91137 0.57416 0.0
H1119 H 0.04276 0.86528 0.35277 0.0
H1120 H 0.95002 0.86857 0.46291 0.0
H1121 H 0.06517 0.90392 0.47222 0.0
H1122 H 1.00804 0.86864 0.38735 0.0
H1123 H 1.00551 0.91099 0.53284 0.0
C1124 C 0.97429 0.90181 0.5411 0.0
C1125 C 0.95816 0.88978 0.52256 0.0
C1126 C 0.02048 0.87661 0.40568 0.0
C1127 C 0.99659 0.8895 0.47426 0.0
C1128 C 0.04024 0.87484 0.38567 0.0
C1129 C 0.05673 0.88469 0.40917 0.0
C1130 C 0.01718 0.88822 0.44979 0.0
C1131 C 0.05279 0.89636 0.4526 0.0
C1132 C 0.99337 0.9017 0.51728 0.0
C1133 C 0.96185 0.87817 0.47862 0.0
N1134 N 0.03348 0.89779 0.4715 0.0
N1135 N 0.98065 0.87823 0.45623 0.0
H1136 H 0.40064 0.31186 0.06165 0.0
H1137 H 0.40021 0.20333 0.19557 0.0
H1138 H 0.37641 0.30484 0.21252 0.0
H1139 H 0.3765 0.21031 0.04429 0.0
H1140 H 0.4027 0.24073 0.2025 0.0
H1141 H 0.40296 0.27444 0.05452 0.0
C1142 C 0.39631 0.30247 0.09369 0.0
C1143 C 0.38877 0.31153 0.13817 0.0
C1144 C 0.39736 0.23397 0.16749 0.0
C1145 C 0.39164 0.26888 0.13046 0.0
C1146 C 0.39605 0.2127 0.16338 0.0
C1147 C 0.3886 0.20363 0.11886 0.0
C1148 C 0.39163 0.24627 0.12637 0.0
C1149 C 0.38299 0.21655 0.07865 0.0
C1150 C 0.39754 0.2812 0.08947 0.0
C1151 C 0.38296 0.2986 0.1782 0.0
N1152 N 0.38476 0.23718 0.08319 0.0
N1153 N 0.38466 0.27796 0.17357 0.0
H1154 H 0.20854 0.6661 0.90474 0.0
H1155 H 0.31146 0.60072 0.88891 0.0
H1156 H 0.207 0.60176 0.87222 0.0
H1157 H 0.30864 0.66535 0.86065 0.0
H1158 H 0.27378 0.59976 0.89212 0.0
H1159 H 0.24588 0.66525 0.90087 0.0
C1160 C 0.21615 0.65176 0.89698 0.0
C1161 C 0.20473 0.63404 0.88795 0.0
C1162 C 0.28144 0.61412 0.88508 0.0
C1163 C 0.24754 0.63285 0.88399 0.0
C1164 C 0.30287 0.61465 0.88317 0.0
C1165 C 0.31309 0.63319 0.87524 0.0
C1166 C 0.27026 0.63231 0.87957 0.0
C1167 C 0.30132 0.65081 0.86759 0.0
C1168 C 0.23744 0.65128 0.89456 0.0
C1169 C 0.21531 0.61577 0.8789 0.0
N1170 N 0.28061 0.64998 0.87055 0.0
N1171 N 0.23615 0.61562 0.87708 0.0
H1172 H 0.60207 0.81033 0.12318 0.0
H1173 H 0.66812 0.70845 0.14935 0.0
H1174 H 0.66666 0.80782 0.09365 0.0
H1175 H 0.6039 0.70597 0.11558 0.0
H1176 H 0.66711 0.74568 0.14118 0.0
H1177 H 0.6015 0.7728 0.12975 0.0
C1178 C 0.61606 0.80183 0.1176 0.0
C1179 C 0.63445 0.81213 0.10802 0.0
C1180 C 0.65321 0.73704 0.13551 0.0
C1181 C 0.63405 0.76942 0.11669 0.0
C1182 C 0.65378 0.71583 0.14039 0.0
C1183 C 0.63615 0.70417 0.13222 0.0
C1184 C 0.63476 0.74682 0.12344 0.0
C1185 C 0.61785 0.71446 0.12162 0.0
C1186 C 0.61576 0.78048 0.12152 0.0
C1187 C 0.6522 0.80045 0.10131 0.0
N1188 N 0.61761 0.73523 0.11748 0.0
N1189 N 0.6516 0.7798 0.10634 0.0
H1190 H 0.70621 0.41411 0.86887 0.0
H1191 H 0.80841 0.3487 0.89883 0.0
H1192 H 0.70906 0.34931 0.84324 0.0
H1193 H 0.81072 0.41265 0.86218 0.0
H1194 H 0.77117 0.34953 0.89054 0.0
H1195 H 0.74377 0.41492 0.87533 0.0
C1196 C 0.71479 0.40012 0.86407 0.0
C1197 C 0.70457 0.3816 0.85572 0.0
C1198 C 0.77976 0.36342 0.88431 0.0
C1199 C 0.74732 0.3823 0.8643 0.0
C1200 C 0.80098 0.36296 0.88931 0.0
C1201 C 0.8126 0.38056 0.88041 0.0
C1202 C 0.76993 0.38173 0.8713 0.0
C1203 C 0.80225 0.39873 0.86891 0.0
C1204 C 0.73616 0.40057 0.86796 0.0
C1205 C 0.71636 0.36388 0.84997 0.0
N1206 N 0.78148 0.39887 0.86463 0.0
N1207 N 0.73702 0.36462 0.85496 0.0
H1208 H 0.85088 0.70754 0.60644 0.0
H1209 H 0.91672 0.81008 0.62511 0.0
H1210 H 0.91513 0.70563 0.64008 0.0
H1211 H 0.85199 0.80748 0.65248 0.0
H1212 H 0.9175 0.77243 0.62093 0.0
H1213 H 0.85188 0.74485 0.61076 0.0
C1214 C 0.86523 0.71507 0.61455 0.0
C1215 C 0.88288 0.70354 0.62379 0.0
C1216 C 0.90315 0.78014 0.62793 0.0
C1217 C 0.88425 0.74632 0.62822 0.0
C1218 C 0.90273 0.80155 0.63037 0.0
C1219 C 0.88422 0.81184 0.63835 0.0
C1220 C 0.88488 0.76902 0.63297 0.0
C1221 C 0.86651 0.80012 0.64544 0.0
C1222 C 0.8658 0.73634 0.61721 0.0
C1223 C 0.90117 0.71402 0.63326 0.0
N1224 N 0.86724 0.77943 0.64199 0.0
N1225 N 0.90141 0.73485 0.6353 0.0
H1226 H 0.81139 0.10296 0.38068 0.0
H1227 H 0.70927 0.16868 0.40741 0.0
H1228 H 0.80863 0.16732 0.34867 0.0
H1229 H 0.70706 0.1045 0.37317 0.0
H1230 H 0.74656 0.1678 0.39905 0.0
H1231 H 0.77387 0.10237 0.38815 0.0
C1232 C 0.80284 0.11689 0.3747 0.0
C1233 C 0.81307 0.13523 0.36417 0.0
C1234 C 0.73795 0.15388 0.39353 0.0
C1235 C 0.77037 0.13481 0.37399 0.0
C1236 C 0.71672 0.15436 0.39863 0.0
C1237 C 0.70511 0.13668 0.39062 0.0
C1238 C 0.74779 0.13548 0.38123 0.0
C1239 C 0.7155 0.11846 0.37959 0.0
C1240 C 0.78149 0.11658 0.37918 0.0
C1241 C 0.80131 0.15289 0.35704 0.0
N1242 N 0.73626 0.1183 0.37525 0.0
N1243 N 0.78067 0.1523 0.36267 0.0
H1244 H 0.11629 0.31252 0.69457 0.0
H1245 H 0.11711 0.20404 0.56071 0.0
H1246 H 0.14085 0.30573 0.54397 0.0
H1247 H 0.14092 0.2111 0.71186 0.0
H1248 H 0.11458 0.24145 0.55366 0.0
H1249 H 0.11407 0.27509 0.70149 0.0
C1250 C 0.1207 0.30318 0.66252 0.0
C1251 C 0.12832 0.31232 0.61819 0.0
C1252 C 0.11995 0.2347 0.58866 0.0
C1253 C 0.12557 0.26964 0.62566 0.0
C1254 C 0.12129 0.21343 0.59284 0.0
C1255 C 0.12878 0.20437 0.63736 0.0
C1256 C 0.12568 0.24702 0.62974 0.0
C1257 C 0.13441 0.21732 0.67749 0.0
C1258 C 0.11954 0.2819 0.66662 0.0
C1259 C 0.13424 0.29944 0.57816 0.0
N1260 N 0.13259 0.23795 0.6729 0.0
N1261 N 0.1326 0.27879 0.58267 0.0
H1262 H 0.2117 0.87672 0.29223 0.0
H1263 H 0.30508 0.87656 0.47148 0.0
H1264 H 0.20406 0.90136 0.44243 0.0
H1265 H 0.31285 0.9013 0.32139 0.0
H1266 H 0.26797 0.88031 0.4625 0.0
H1267 H 0.24882 0.88042 0.30107 0.0
C1268 C 0.21777 0.88348 0.32648 0.0
C1269 C 0.20467 0.88937 0.36606 0.0
C1270 C 0.27786 0.88526 0.43195 0.0
C1271 C 0.24721 0.89233 0.37757 0.0
C1272 C 0.29904 0.88334 0.43723 0.0
C1273 C 0.31217 0.88928 0.39775 0.0
C1274 C 0.26965 0.89229 0.38606 0.0
C1275 C 0.3033 0.8969 0.35307 0.0
C1276 C 0.23896 0.88536 0.33167 0.0
C1277 C 0.21358 0.89697 0.41069 0.0
N1278 N 0.28261 0.89788 0.34808 0.0
N1279 N 0.23427 0.89792 0.4156 0.0
H1280 H 0.20612 0.15346 0.83393 0.0
H1281 H 0.30857 0.09926 0.93285 0.0
H1282 H 0.23497 0.10332 0.75568 0.0
H1283 H 0.28395 0.15441 0.99785 0.0
H1284 H 0.2808 0.09924 0.87077 0.0
H1285 H 0.23364 0.15303 0.89612 0.0
C1286 C 0.21828 0.14244 0.82934 0.0
C1287 C 0.21808 0.12849 0.78877 0.0
C1288 C 0.28146 0.11135 0.89862 0.0
C1289 C 0.24975 0.12768 0.86136 0.0
C1290 C 0.29727 0.1113 0.93443 0.0
C1291 C 0.29874 0.12687 0.97095 0.0
C1292 C 0.26679 0.127 0.89922 0.0
C1293 C 0.2837 0.1422 0.97025 0.0
C1294 C 0.23398 0.14212 0.86532 0.0
C1295 C 0.23418 0.11426 0.78629 0.0
N1296 N 0.26842 0.14185 0.9352 0.0
N1297 N 0.24927 0.11424 0.82191 0.0
H1298 H 0.15622 0.78443 0.24508 0.0
H1299 H 0.10184 0.73558 1.00055 0.0
H1300 H 0.10082 0.80841 0.17992 0.0
H1301 H 0.15405 0.70882 0.07486 0.0
H1302 H 0.1015 0.7626 0.06451 0.0
H1303 H 0.15607 0.75722 0.18173 0.0
C1304 C 0.14403 0.78407 0.21742 0.0
C1305 C 0.12853 0.79892 0.21814 0.0
C1306 C 0.11304 0.75082 0.06679 0.0
C1307 C 0.12822 0.76745 0.14501 0.0
C1308 C 0.1132 0.73525 0.03029 0.0
C1309 C 0.12802 0.7197 0.03177 0.0
C1310 C 0.12782 0.75103 0.1054 0.0
C1311 C 0.14251 0.72053 0.07118 0.0
C1312 C 0.14391 0.7684 0.18128 0.0
C1313 C 0.11299 0.79727 0.18149 0.0
N1314 N 0.14203 0.73583 0.10614 0.0
N1315 N 0.11329 0.78195 0.14649 0.0
H1316 H 0.73556 0.90908 0.00905 0.0
H1317 H 0.78255 0.86156 0.75317 0.0
H1318 H 0.70435 0.86493 0.91605 0.0
H1319 H 0.80948 0.9128 0.83081 0.0
H1320 H 0.75505 0.8611 0.81591 0.0
H1321 H 0.76402 0.90899 0.94833 0.0
C1322 C 0.73473 0.89924 0.97617 0.0
C1323 C 0.71737 0.88708 0.96774 0.0
C1324 C 0.76695 0.87247 0.81928 0.0
C1325 C 0.74999 0.88696 0.89769 0.0
C1326 C 0.78277 0.87269 0.78348 0.0
C1327 C 0.79849 0.88725 0.78637 0.0
C1328 C 0.76676 0.88681 0.85892 0.0
C1329 C 0.79764 0.90143 0.82645 0.0
C1330 C 0.75094 0.8993 0.94127 0.0
C1331 C 0.7172 0.87479 0.92398 0.0
N1332 N 0.78216 0.9008 0.86109 0.0
N1333 N 0.73317 0.87504 0.89086 0.0
H1334 H 0.86415 0.2038 0.17138 0.0
H1335 H 0.91464 0.30892 0.07776 0.0
H1336 H 0.90991 0.23575 0.25778 0.0
H1337 H 0.86312 0.28049 0.00464 0.0
H1338 H 0.91411 0.282 0.14226 0.0
H1339 H 0.86427 0.23145 0.10934 0.0
C1340 C 0.87427 0.21664 0.17739 0.0
C1341 C 0.88715 0.21727 0.21999 0.0
C1342 C 0.90291 0.28166 0.11215 0.0
C1343 C 0.88736 0.24929 0.14836 0.0
C1344 C 0.90329 0.29697 0.07493 0.0
C1345 C 0.88892 0.2971 0.03528 0.0
C1346 C 0.88814 0.26613 0.10982 0.0
C1347 C 0.87439 0.28128 0.03452 0.0
C1348 C 0.87427 0.23251 0.14189 0.0
C1349 C 0.89964 0.23458 0.22583 0.0
N1350 N 0.87444 0.2665 0.07091 0.0
N1351 N 0.89954 0.24977 0.19033 0.0
H1352 H 0.20859 0.41654 0.43262 0.0
H1353 H 0.31125 0.36225 0.33486 0.0
H1354 H 0.23307 0.36147 0.49826 0.0
H1355 H 0.28279 0.41264 0.25676 0.0
H1356 H 0.28355 0.36266 0.39669 0.0
H1357 H 0.23651 0.41653 0.37087 0.0
C1358 C 0.21989 0.40451 0.43442 0.0
C1359 C 0.21833 0.38897 0.47103 0.0
C1360 C 0.28333 0.37363 0.36601 0.0
C1361 C 0.25047 0.38881 0.39964 0.0
C1362 C 0.29914 0.37333 0.33023 0.0
C1363 C 0.29951 0.38736 0.28982 0.0
C1364 C 0.26762 0.38813 0.36199 0.0
C1365 C 0.28347 0.40164 0.28726 0.0
C1366 C 0.23579 0.40445 0.39879 0.0
C1367 C 0.23338 0.37365 0.47059 0.0
N1368 N 0.26826 0.40164 0.32267 0.0
N1369 N 0.24875 0.37399 0.4357 0.0
H1370 H 0.41713 0.80947 0.58385 0.0
H1371 H 0.36266 0.70804 0.68859 0.0
H1372 H 0.36172 0.78459 0.52088 0.0
H1373 H 0.41478 0.73579 0.76096 0.0
H1374 H 0.36274 0.73537 0.62582 0.0
H1375 H 0.41743 0.78194 0.64656 0.0
C1376 C 0.40509 0.79816 0.58282 0.0
C1377 C 0.38937 0.7995 0.54664 0.0
C1378 C 0.37416 0.73552 0.65546 0.0
C1379 C 0.38954 0.76783 0.61926 0.0
C1380 C 0.37405 0.71993 0.69178 0.0
C1381 C 0.38866 0.71947 0.73086 0.0
C1382 C 0.38904 0.75093 0.65759 0.0
C1383 C 0.40331 0.73521 0.73156 0.0
C1384 C 0.40521 0.78249 0.61902 0.0
C1385 C 0.37404 0.78446 0.54817 0.0
N1386 N 0.4031 0.75022 0.69567 0.0
N1387 N 0.37454 0.76933 0.58364 0.0
H1388 H 0.73562 0.60103 0.25702 0.0
H1389 H 0.78231 0.65451 0.50547 0.0
H1390 H 0.7088 0.65368 0.32922 0.0
H1391 H 0.80782 0.60037 0.43739 0.0
H1392 H 0.7556 0.65463 0.44078 0.0
H1393 H 0.76216 0.60061 0.32216 0.0
C1394 C 0.73518 0.61247 0.28655 0.0
C1395 C 0.71976 0.62743 0.28713 0.0
C1396 C 0.76701 0.64269 0.43999 0.0
C1397 C 0.75052 0.62712 0.36219 0.0
C1398 C 0.7824 0.64266 0.47691 0.0
C1399 C 0.79752 0.62742 0.47725 0.0
C1400 C 0.76662 0.6274 0.40261 0.0
C1401 C 0.79644 0.61231 0.43939 0.0
C1402 C 0.75048 0.61227 0.32374 0.0
C1403 C 0.72043 0.64201 0.32632 0.0
N1404 N 0.78138 0.61273 0.40373 0.0
N1405 N 0.73545 0.64147 0.36204 0.0
H1406 H 0.60855 0.23685 0.49205 0.0
H1407 H 0.6513 0.28226 0.75469 0.0
H1408 H 0.64997 0.20413 0.58962 0.0
H1409 H 0.60367 0.31084 0.66688 0.0
H1410 H 0.6519 0.25407 0.69376 0.0
H1411 H 0.60808 0.26494 0.55333 0.0
C1412 C 0.61769 0.23559 0.52609 0.0
C1413 C 0.62925 0.21792 0.53547 0.0
C1414 C 0.64131 0.26653 0.68786 0.0
C1415 C 0.62865 0.25018 0.60646 0.0
C1416 C 0.64085 0.28262 0.72297 0.0
C1417 C 0.62751 0.29923 0.71622 0.0
C1418 C 0.62839 0.2669 0.6453 0.0
C1419 C 0.61456 0.29874 0.67355 0.0
C1420 C 0.61728 0.25162 0.56135 0.0
C1421 C 0.64057 0.21723 0.58083 0.0
N1422 N 0.61538 0.28298 0.6399 0.0
N1423 N 0.64 0.23304 0.6144 0.0
loop_
_geom_bond_atom_site_label_1
_geom_bond_atom_site_label_2
_geom_bond_distance
_geom_bond_site_symmetry_2
_ccdc_geom_bond_type
C0 C1 1.443 . S
C0 N4 1.376 . S
C0 C38 1.389 . S
C1 C0 1.443 . S
C1 C2 1.340 . S
C1 H41 0.951 . S
C2 C1 1.340 . S
C2 C3 1.439 . S
C2 H42 0.950 . S
C3 C2 1.439 . S
C3 N4 1.374 . S
C3 C37 1.395 . S
N4 C0 1.376 . S
N4 C3 1.374 . S
N4 Co5 2.008 . S
Co5 N4 2.008 . S
Co5 N6 1.995 . S
Co5 N11 2.008 . S
Co5 N16 1.995 . S
Co5 N21 2.282 . S
Co5 N27 2.282 . S
N6 Co5 1.995 . S
N6 C7 1.376 . S
N6 C10 1.383 . S
C7 N6 1.376 . S
C7 C8 1.446 . S
C7 C37 1.391 . S
C8 C7 1.446 . S
C8 C9 1.339 . S
C8 H43 0.949 . S
C9 C8 1.339 . S
C9 C10 1.439 . S
C9 H44 0.950 . S
C10 N6 1.383 . S
C10 C9 1.439 . S
C10 C39 1.392 . S
N11 Co5 2.008 . S
N11 C12 1.376 . S
N11 C15 1.374 . S
C12 N11 1.376 . S
C12 C13 1.443 . S
C12 C39 1.389 . S
C13 C12 1.443 . S
C13 C14 1.340 . S
C13 H45 0.951 . S
C14 C13 1.340 . S
C14 C15 1.439 . S
C14 H46 0.950 1_554 S
C15 N11 1.374 . S
C15 C14 1.439 . S
C15 C40 1.395 . S
N16 Co5 1.995 . S
N16 C17 1.376 . S
N16 C20 1.383 . S
C17 N16 1.376 . S
C17 C18 1.446 . S
C17 C40 1.391 . S
C18 C17 1.446 . S
C18 C19 1.339 . S
C18 H47 0.949 . S
C19 C18 1.339 . S
C19 C20 1.439 . S
C19 H48 0.950 . S
C20 N16 1.383 . S
C20 C19 1.439 . S
C20 C38 1.392 . S
N21 Co5 2.282 . S
N21 C24 1.332 . S
N21 C26 1.332 . S
C22 C23 1.386 . S
C22 C25 1.388 . S
C23 C22 1.386 . S
C23 C24 1.382 . S
C23 H49 0.950 1_554 S
C24 N21 1.332 . S
C24 C23 1.382 . S
C24 H35 0.952 . S
C25 C22 1.388 . S
C25 C26 1.382 . S
C25 H50 0.950 . S
C26 N21 1.332 . S
C26 C25 1.382 . S
C26 H36 0.948 . S
N27 Co5 2.282 . S
N27 C31 1.332 . S
N27 C32 1.332 . S
C28 C29 1.388 . S
C28 C32 1.382 . S
C28 H51 0.950 . S
C29 C28 1.388 . S
C29 C30 1.386 . S
C30 C29 1.386 . S
C30 C31 1.382 . S
C30 H52 0.950 . S
C31 N27 1.332 . S
C31 C30 1.382 . S
C31 H33 0.952 . S
C32 N27 1.332 . S
C32 C28 1.382 . S
C32 H34 0.948 . S
H33 C31 0.952 . S
H34 C32 0.948 . S
H35 C24 0.952 . S
H36 C26 0.948 . S
C37 C3 1.395 . S
C37 C7 1.391 . S
C38 C0 1.389 . S
C38 C20 1.392 . S
C39 C10 1.392 . S
C39 C12 1.389 . S
C40 C15 1.395 . S
C40 C17 1.391 . S
H41 C1 0.951 . S
H42 C2 0.950 . S
H43 C8 0.949 . S
H44 C9 0.950 . S
H45 C13 0.951 . S
H46 C14 0.950 1_556 S
H47 C18 0.949 . S
H48 C19 0.950 . S
H49 C23 0.950 1_556 S
H50 C25 0.950 . S
H51 C28 0.950 . S
H52 C30 0.950 . S
C53 C54 1.443 . S
C53 N57 1.376 . S
C53 C91 1.389 . S
C54 C53 1.443 . S
C54 C55 1.340 . S
C54 H94 0.951 . S
C55 C54 1.340 . S
C55 C56 1.439 . S
C55 H95 0.950 . S
C56 C55 1.439 . S
C56 N57 1.374 . S
C56 C90 1.395 . S
N57 C53 1.376 . S
N57 C56 1.374 . S
N57 Co58 2.008 . S
Co58 N57 2.008 . S
Co58 N59 1.995 . S
Co58 N64 2.008 . S
Co58 N69 1.995 . S
Co58 N74 2.282 . S
Co58 N80 2.282 . S
N59 Co58 1.995 . S
N59 C60 1.376 . S
N59 C63 1.383 . S
C60 N59 1.376 . S
C60 C61 1.446 . S
C60 C90 1.391 . S
C61 C60 1.446 . S
C61 C62 1.339 . S
C61 H96 0.949 1_556 S
C62 C61 1.339 . S
C62 C63 1.439 . S
C62 H97 0.950 . S
C63 N59 1.383 . S
C63 C62 1.439 . S
C63 C92 1.392 . S
N64 Co58 2.008 . S
N64 C65 1.376 . S
N64 C68 1.374 . S
C65 N64 1.376 . S
C65 C66 1.443 . S
C65 C92 1.389 . S
C66 C65 1.443 . S
C66 C67 1.340 . S
C66 H98 0.951 . S
C67 C66 1.340 . S
C67 C68 1.439 . S
C67 H99 0.950 . S
C68 N64 1.374 . S
C68 C67 1.439 . S
C68 C93 1.395 . S
N69 Co58 1.995 . S
N69 C70 1.376 . S
N69 C73 1.383 . S
C70 N69 1.376 . S
C70 C71 1.446 . S
C70 C93 1.391 . S
C71 C70 1.446 . S
C71 C72 1.339 . S
C71 H100 0.949 . S
C72 C71 1.339 . S
C72 C73 1.439 . S
C72 H101 0.950 . S
C73 N69 1.383 . S
C73 C72 1.439 . S
C73 C91 1.392 . S
N74 Co58 2.282 . S
N74 C77 1.332 . S
N74 C79 1.332 . S
C75 C76 1.386 . S
C75 C78 1.388 . S
C76 C75 1.386 . S
C76 C77 1.382 . S
C76 H102 0.950 . S
C77 N74 1.332 . S
C77 C76 1.382 . S
C77 H88 0.952 . S
C78 C75 1.388 . S
C78 C79 1.382 . S
C78 H103 0.950 1_556 S
C79 N74 1.332 . S
C79 C78 1.382 . S
C79 H89 0.948 . S
N80 Co58 2.282 . S
N80 C84 1.332 . S
N80 C85 1.332 . S
C81 C82 1.388 . S
C81 C85 1.382 . S
C81 H104 0.950 . S
C82 C81 1.388 . S
C82 C83 1.386 . S
C83 C82 1.386 . S
C83 C84 1.382 . S
C83 H105 0.950 . S
C84 N80 1.332 . S
C84 C83 1.382 . S
C84 H86 0.952 . S
C85 N80 1.332 . S
C85 C81 1.382 . S
C85 H87 0.948 . S
H86 C84 0.952 . S
H87 C85 0.948 . S
H88 C77 0.952 . S
H89 C79 0.948 . S
C90 C56 1.395 . S
C90 C60 1.391 . S
C91 C53 1.389 . S
C91 C73 1.392 . S
C92 C63 1.392 . S
C92 C65 1.389 . S
C93 C68 1.395 . S
C93 C70 1.391 . S
H94 C54 0.951 . S
H95 C55 0.950 . S
H96 C61 0.949 1_554 S
H97 C62 0.950 . S
H98 C66 0.951 . S
H99 C67 0.950 . S
H100 C71 0.949 . S
H101 C72 0.950 . S
H102 C76 0.950 . S
H103 C78 0.950 1_554 S
H104 C81 0.950 . S
H105 C83 0.950 . S
C106 C107 1.443 . S
C106 N110 1.376 . S
C106 C144 1.389 . S
C107 C106 1.443 . S
C107 C108 1.340 . S
C107 H147 0.951 . S
C108 C107 1.340 . S
C108 C109 1.439 . S
C108 H148 0.950 . S
C109 C108 1.439 . S
C109 N110 1.374 . S
C109 C143 1.395 . S
N110 C106 1.376 . S
N110 C109 1.374 . S
N110 Co111 2.008 . S
Co111 N110 2.008 . S
Co111 N112 1.995 . S
Co111 N117 2.008 . S
Co111 N122 1.995 . S
Co111 N127 2.282 . S
Co111 N133 2.282 . S
N112 Co111 1.995 . S
N112 C113 1.376 . S
N112 C116 1.383 . S
C113 N112 1.376 . S
C113 C114 1.446 . S
C113 C143 1.391 . S
C114 C113 1.446 . S
C114 C115 1.339 . S
C114 H149 0.949 . S
C115 C114 1.339 . S
C115 C116 1.439 . S
C115 H150 0.950 . S
C116 N112 1.383 . S
C116 C115 1.439 . S
C116 C145 1.392 . S
N117 Co111 2.008 . S
N117 C118 1.376 . S
N117 C121 1.374 . S
C118 N117 1.376 . S
C118 C119 1.443 . S
C118 C145 1.389 . S
C119 C118 1.443 . S
C119 C120 1.340 . S
C119 H151 0.951 . S
C120 C119 1.340 . S
C120 C121 1.439 . S
C120 H152 0.950 1_554 S
C121 N117 1.374 . S
C121 C120 1.439 . S
C121 C146 1.395 . S
N122 Co111 1.995 . S
N122 C123 1.376 . S
N122 C126 1.383 . S
C123 N122 1.376 . S
C123 C124 1.446 . S
C123 C146 1.391 . S
C124 C123 1.446 . S
C124 C125 1.339 . S
C124 H153 0.949 . S
C125 C124 1.339 . S
C125 C126 1.439 . S
C125 H154 0.950 . S
C126 N122 1.383 . S
C126 C125 1.439 . S
C126 C144 1.392 . S
N127 Co111 2.282 . S
N127 C130 1.332 . S
N127 C132 1.332 . S
C128 C129 1.386 . S
C128 C131 1.388 . S
C129 C128 1.386 . S
C129 C130 1.382 . S
C129 H155 0.950 1_554 S
C130 N127 1.332 . S
C130 C129 1.382 . S
C130 H141 0.952 . S
C131 C128 1.388 . S
C131 C132 1.382 . S
C131 H156 0.950 . S
C132 N127 1.332 . S
C132 C131 1.382 . S
C132 H142 0.948 . S
N133 Co111 2.282 . S
N133 C137 1.332 . S
N133 C138 1.332 . S
C134 C135 1.388 . S
C134 C138 1.382 . S
C134 H157 0.950 . S
C135 C134 1.388 . S
C135 C136 1.386 . S
C136 C135 1.386 . S
C136 C137 1.382 . S
C136 H158 0.950 . S
C137 N133 1.332 . S
C137 C136 1.382 . S
C137 H139 0.952 . S
C138 N133 1.332 . S
C138 C134 1.382 . S
C138 H140 0.948 . S
H139 C137 0.952 . S
H140 C138 0.948 . S
H141 C130 0.952 . S
H142 C132 0.948 . S
C143 C109 1.395 . S
C143 C113 1.391 . S
C144 C106 1.389 . S
C144 C126 1.392 . S
C145 C116 1.392 . S
C145 C118 1.389 . S
C146 C121 1.395 . S
C146 C123 1.391 . S
H147 C107 0.951 . S
H148 C108 0.950 . S
H149 C114 0.949 . S
H150 C115 0.950 . S
H151 C119 0.951 . S
H152 C120 0.950 1_556 S
H153 C124 0.949 . S
H154 C125 0.950 . S
H155 C129 0.950 1_556 S
H156 C131 0.950 . S
H157 C134 0.950 . S
H158 C136 0.950 . S
C159 C160 1.443 . S
C159 N163 1.376 . S
C159 C197 1.389 . S
C160 C159 1.443 . S
C160 C161 1.340 . S
C160 H200 0.951 . S
C161 C160 1.340 . S
C161 C162 1.439 . S
C161 H201 0.950 . S
C162 C161 1.439 . S
C162 N163 1.374 . S
C162 C196 1.395 . S
N163 C159 1.376 . S
N163 C162 1.374 . S
N163 Co164 2.008 . S
Co164 N163 2.008 . S
Co164 N165 1.995 . S
Co164 N170 2.008 . S
Co164 N175 1.995 . S
Co164 N180 2.282 . S
Co164 N186 2.282 . S
N165 Co164 1.995 . S
N165 C166 1.376 . S
N165 C169 1.383 . S
C166 N165 1.376 . S
C166 C167 1.446 . S
C166 C196 1.391 . S
C167 C166 1.446 . S
C167 C168 1.339 . S
C167 H202 0.949 1_556 S
C168 C167 1.339 . S
C168 C169 1.439 . S
C168 H203 0.950 . S
C169 N165 1.383 . S
C169 C168 1.439 . S
C169 C198 1.392 . S
N170 Co164 2.008 . S
N170 C171 1.376 . S
N170 C174 1.374 . S
C171 N170 1.376 . S
C171 C172 1.443 . S
C171 C198 1.389 . S
C172 C171 1.443 . S
C172 C173 1.340 . S
C172 H204 0.951 . S
C173 C172 1.340 . S
C173 C174 1.439 . S
C173 H205 0.950 . S
C174 N170 1.374 . S
C174 C173 1.439 . S
C174 C199 1.395 . S
N175 Co164 1.995 . S
N175 C176 1.376 . S
N175 C179 1.383 . S
C176 N175 1.376 . S
C176 C177 1.446 . S
C176 C199 1.391 . S
C177 C176 1.446 . S
C177 C178 1.339 . S
C177 H206 0.949 . S
C178 C177 1.339 . S
C178 C179 1.439 . S
C178 H207 0.950 . S
C179 N175 1.383 . S
C179 C178 1.439 . S
C179 C197 1.392 . S
N180 Co164 2.282 . S
N180 C183 1.332 . S
N180 C185 1.332 . S
C181 C182 1.386 . S
C181 C184 1.388 . S
C182 C181 1.386 . S
C182 C183 1.382 . S
C182 H208 0.950 . S
C183 N180 1.332 . S
C183 C182 1.382 . S
C183 H194 0.952 . S
C184 C181 1.388 . S
C184 C185 1.382 . S
C184 H209 0.950 1_556 S
C185 N180 1.332 . S
C185 C184 1.382 . S
C185 H195 0.948 . S
N186 Co164 2.282 . S
N186 C190 1.332 . S
N186 C191 1.332 . S
C187 C188 1.388 . S
C187 C191 1.382 . S
C187 H210 0.950 . S
C188 C187 1.388 . S
C188 C189 1.386 . S
C189 C188 1.386 . S
C189 C190 1.382 . S
C189 H211 0.950 . S
C190 N186 1.332 . S
C190 C189 1.382 . S
C190 H192 0.952 . S
C191 N186 1.332 . S
C191 C187 1.382 . S
C191 H193 0.948 . S
H192 C190 0.952 . S
H193 C191 0.948 . S
H194 C183 0.952 . S
H195 C185 0.948 . S
C196 C162 1.395 . S
C196 C166 1.391 . S
C197 C159 1.389 . S
C197 C179 1.392 . S
C198 C169 1.392 . S
C198 C171 1.389 . S
C199 C174 1.395 . S
C199 C176 1.391 . S
H200 C160 0.951 . S
H201 C161 0.950 . S
H202 C167 0.949 1_554 S
H203 C168 0.950 . S
H204 C172 0.951 . S
H205 C173 0.950 . S
H206 C177 0.949 . S
H207 C178 0.950 . S
H208 C182 0.950 . S
H209 C184 0.950 1_554 S
H210 C187 0.950 . S
H211 C189 0.950 . S
C212 C213 1.443 1_554 S
C212 N216 1.376 . S
C212 C250 1.389 . S
C213 C212 1.443 1_556 S
C213 C214 1.340 . S
C213 H253 0.951 . S
C214 C213 1.340 . S
C214 C215 1.439 1_556 S
C214 H254 0.950 . S
C215 C214 1.439 1_554 S
C215 N216 1.374 . S
C215 C249 1.395 1_554 S
N216 C212 1.376 . S
N216 C215 1.374 . S
N216 Co217 2.008 . S
Co217 N216 2.008 . S
Co217 N218 1.995 . S
Co217 N223 2.008 . S
Co217 N228 1.995 . S
Co217 N233 2.282 . S
Co217 N239 2.282 . S
N218 Co217 1.995 . S
N218 C219 1.376 . S
N218 C222 1.383 . S
C219 N218 1.376 . S
C219 C220 1.446 . S
C219 C249 1.391 1_554 S
C220 C219 1.446 . S
C220 C221 1.339 . S
C220 H255 0.949 1_554 S
C221 C220 1.339 . S
C221 C222 1.439 . S
C221 H256 0.950 . S
C222 N218 1.383 . S
C222 C221 1.439 . S
C222 C251 1.392 . S
N223 Co217 2.008 . S
N223 C224 1.376 . S
N223 C227 1.374 . S
C224 N223 1.376 . S
C224 C225 1.443 . S
C224 C251 1.389 . S
C225 C224 1.443 . S
C225 C226 1.340 . S
C225 H257 0.951 . S
C226 C225 1.340 . S
C226 C227 1.439 . S
C226 H258 0.950 . S
C227 N223 1.374 . S
C227 C226 1.439 . S
C227 C252 1.395 . S
N228 Co217 1.995 . S
N228 C229 1.376 . S
N228 C232 1.383 . S
C229 N228 1.376 . S
C229 C230 1.446 . S
C229 C252 1.391 . S
C230 C229 1.446 . S
C230 C231 1.339 . S
C230 H259 0.949 . S
C231 C230 1.339 . S
C231 C232 1.439 . S
C231 H260 0.950 . S
C232 N228 1.383 . S
C232 C231 1.439 . S
C232 C250 1.392 . S
N233 Co217 2.282 . S
N233 C236 1.332 . S
N233 C238 1.332 . S
C234 C235 1.386 . S
C234 C237 1.388 . S
C235 C234 1.386 . S
C235 C236 1.382 . S
C235 H261 0.950 . S
C236 N233 1.332 . S
C236 C235 1.382 . S
C236 H247 0.952 . S
C237 C234 1.388 . S
C237 C238 1.382 . S
C237 H262 0.950 . S
C238 N233 1.332 . S
C238 C237 1.382 . S
C238 H248 0.948 . S
N239 Co217 2.282 . S
N239 C243 1.332 . S
N239 C244 1.332 . S
C240 C241 1.388 . S
C240 C244 1.382 . S
C240 H263 0.950 . S
C241 C240 1.388 . S
C241 C242 1.386 1_554 S
C242 C241 1.386 1_556 S
C242 C243 1.382 1_556 S
C242 H264 0.950 . S
C243 N239 1.332 . S
C243 C242 1.382 1_554 S
C243 H245 0.952 . S
C244 N239 1.332 . S
C244 C240 1.382 . S
C244 H246 0.948 . S
H245 C243 0.952 . S
H246 C244 0.948 . S
H247 C236 0.952 . S
H248 C238 0.948 . S
C249 C215 1.395 1_556 S
C249 C219 1.391 1_556 S
C250 C212 1.389 . S
C250 C232 1.392 . S
C251 C222 1.392 . S
C251 C224 1.389 . S
C252 C227 1.395 . S
C252 C229 1.391 . S
H253 C213 0.951 . S
H254 C214 0.950 . S
H255 C220 0.949 1_556 S
H256 C221 0.950 . S
H257 C225 0.951 . S
H258 C226 0.950 . S
H259 C230 0.949 . S
H260 C231 0.950 . S
H261 C235 0.950 . S
H262 C237 0.950 . S
H263 C240 0.950 . S
H264 C242 0.950 . S
C265 C266 1.443 . S
C265 N269 1.376 . S
C265 C303 1.389 . S
C266 C265 1.443 . S
C266 C267 1.340 . S
C266 H306 0.951 . S
C267 C266 1.340 . S
C267 C268 1.439 . S
C267 H307 0.950 . S
C268 C267 1.439 . S
C268 N269 1.374 . S
C268 C302 1.395 . S
N269 C265 1.376 . S
N269 C268 1.374 . S
N269 Co270 2.008 . S
Co270 N269 2.008 . S
Co270 N271 1.995 . S
Co270 N276 2.008 . S
Co270 N281 1.995 . S
Co270 N286 2.282 . S
Co270 N292 2.282 . S
N271 Co270 1.995 . S
N271 C272 1.376 . S
N271 C275 1.383 . S
C272 N271 1.376 . S
C272 C273 1.446 . S
C272 C302 1.391 . S
C273 C272 1.446 . S
C273 C274 1.339 . S
C273 H308 0.949 . S
C274 C273 1.339 . S
C274 C275 1.439 . S
C274 H309 0.950 . S
C275 N271 1.383 . S
C275 C274 1.439 . S
C275 C304 1.392 . S
N276 Co270 2.008 . S
N276 C277 1.376 . S
N276 C280 1.374 . S
C277 N276 1.376 . S
C277 C278 1.443 . S
C277 C304 1.389 . S
C278 C277 1.443 . S
C278 C279 1.340 . S
C278 H310 0.951 . S
C279 C278 1.340 . S
C279 C280 1.439 . S
C279 H311 0.936 1_556 S
C280 N276 1.374 . S
C280 C279 1.439 . S
C280 C305 1.395 . S
N281 Co270 1.995 . S
N281 C282 1.376 . S
N281 C285 1.383 . S
C282 N281 1.376 . S
C282 C283 1.446 1_556 S
C282 C305 1.391 . S
C283 C282 1.446 1_554 S
C283 C284 1.339 1_554 S
C283 H312 0.949 . S
C284 C283 1.339 1_556 S
C284 C285 1.439 . S
C284 H313 0.950 1_556 S
C285 N281 1.383 . S
C285 C284 1.439 . S
C285 C303 1.392 . S
N286 Co270 2.282 . S
N286 C289 1.332 . S
N286 C291 1.332 . S
C287 C288 1.386 . S
C287 C290 1.388 . S
C288 C287 1.386 . S
C288 C289 1.382 . S
C288 H314 0.950 . S
C289 N286 1.332 . S
C289 C288 1.382 . S
C289 H300 0.952 . S
C290 C287 1.388 . S
C290 C291 1.382 . S
C290 H315 0.950 . S
C291 N286 1.332 . S
C291 C290 1.382 . S
C291 H301 0.948 . S
N292 Co270 2.282 . S
N292 C296 1.332 . S
N292 C297 1.332 . S
C293 C294 1.388 1_554 S
C293 C297 1.382 1_554 S
C293 H316 0.950 . S
C294 C293 1.388 1_556 S
C294 C295 1.386 . S
C295 C294 1.386 . S
C295 C296 1.382 . S
C295 H317 0.950 . S
C296 N292 1.332 . S
C296 C295 1.382 . S
C296 H298 0.952 . S
C297 N292 1.332 . S
C297 C293 1.382 1_556 S
C297 H299 0.948 1_556 S
H298 C296 0.952 . S
H299 C297 0.948 1_554 S
H300 C289 0.952 . S
H301 C291 0.948 . S
C302 C268 1.395 . S
C302 C272 1.391 . S
C303 C265 1.389 . S
C303 C285 1.392 . S
C304 C275 1.392 . S
C304 C277 1.389 . S
C305 C280 1.395 . S
C305 C282 1.391 . S
H306 C266 0.951 . S
H307 C267 0.950 . S
H308 C273 0.949 . S
H309 C274 0.950 . S
H310 C278 0.951 . S
H311 C279 0.936 1_554 S
H312 C283 0.949 . S
H313 C284 0.950 1_554 S
H314 C288 0.950 . S
H315 C290 0.950 . S
H316 C293 0.950 . S
H317 C295 0.950 . S
C318 C319 1.443 1_554 S
C318 N322 1.376 . S
C318 C356 1.389 . S
C319 C318 1.443 1_556 S
C319 C320 1.340 . S
C319 H359 0.951 . S
C320 C319 1.340 . S
C320 C321 1.439 1_556 S
C320 H360 0.950 . S
C321 C320 1.439 1_554 S
C321 N322 1.374 . S
C321 C355 1.395 1_554 S
N322 C318 1.376 . S
N322 C321 1.374 . S
N322 Co323 2.008 . S
Co323 N322 2.008 . S
Co323 N324 1.995 . S
Co323 N329 2.008 . S
Co323 N334 1.995 . S
Co323 N339 2.282 . S
Co323 N345 2.282 . S
N324 Co323 1.995 . S
N324 C325 1.376 . S
N324 C328 1.383 . S
C325 N324 1.376 . S
C325 C326 1.446 . S
C325 C355 1.391 1_554 S
C326 C325 1.446 . S
C326 C327 1.339 . S
C326 H361 0.949 1_554 S
C327 C326 1.339 . S
C327 C328 1.439 . S
C327 H362 0.950 . S
C328 N324 1.383 . S
C328 C327 1.439 . S
C328 C357 1.392 . S
N329 Co323 2.008 . S
N329 C330 1.376 . S
N329 C333 1.374 . S
C330 N329 1.376 . S
C330 C331 1.443 . S
C330 C357 1.389 . S
C331 C330 1.443 . S
C331 C332 1.340 . S
C331 H363 0.951 . S
C332 C331 1.340 . S
C332 C333 1.439 . S
C332 H364 0.950 . S
C333 N329 1.374 . S
C333 C332 1.439 . S
C333 C358 1.395 . S
N334 Co323 1.995 . S
N334 C335 1.376 . S
N334 C338 1.383 . S
C335 N334 1.376 . S
C335 C336 1.446 . S
C335 C358 1.391 . S
C336 C335 1.446 . S
C336 C337 1.339 . S
C336 H365 0.949 . S
C337 C336 1.339 . S
C337 C338 1.439 . S
C337 H366 0.950 . S
C338 N334 1.383 . S
C338 C337 1.439 . S
C338 C356 1.392 . S
N339 Co323 2.282 . S
N339 C342 1.332 . S
N339 C344 1.332 . S
C340 C341 1.386 . S
C340 C343 1.388 . S
C341 C340 1.386 . S
C341 C342 1.382 . S
C341 H367 0.950 . S
C342 N339 1.332 . S
C342 C341 1.382 . S
C342 H353 0.952 . S
C343 C340 1.388 . S
C343 C344 1.382 . S
C343 H368 0.950 . S
C344 N339 1.332 . S
C344 C343 1.382 . S
C344 H354 0.948 . S
N345 Co323 2.282 . S
N345 C349 1.332 . S
N345 C350 1.332 . S
C346 C347 1.388 . S
C346 C350 1.382 . S
C346 H369 0.950 . S
C347 C346 1.388 . S
C347 C348 1.386 1_554 S
C348 C347 1.386 1_556 S
C348 C349 1.382 1_556 S
C348 H370 0.950 . S
C349 N345 1.332 . S
C349 C348 1.382 1_554 S
C349 H351 0.952 . S
C350 N345 1.332 . S
C350 C346 1.382 . S
C350 H352 0.948 . S
H351 C349 0.952 . S
H352 C350 0.948 . S
H353 C342 0.952 . S
H354 C344 0.948 . S
C355 C321 1.395 1_556 S
C355 C325 1.391 1_556 S
C356 C318 1.389 . S
C356 C338 1.392 . S
C357 C328 1.392 . S
C357 C330 1.389 . S
C358 C333 1.395 . S
C358 C335 1.391 . S
H359 C319 0.951 . S
H360 C320 0.950 . S
H361 C326 0.949 1_556 S
H362 C327 0.950 . S
H363 C331 0.951 . S
H364 C332 0.950 . S
H365 C336 0.949 . S
H366 C337 0.950 . S
H367 C341 0.950 . S
H368 C343 0.950 . S
H369 C346 0.950 . S
H370 C348 0.950 . S
C371 C372 1.443 . S
C371 N375 1.376 . S
C371 C409 1.389 . S
C372 C371 1.443 . S
C372 C373 1.340 . S
C372 H412 0.951 . S
C373 C372 1.340 . S
C373 C374 1.439 . S
C373 H413 0.950 . S
C374 C373 1.439 . S
C374 N375 1.374 . S
C374 C408 1.395 . S
N375 C371 1.376 . S
N375 C374 1.374 . S
N375 Co376 2.008 . S
Co376 N375 2.008 . S
Co376 N377 1.995 . S
Co376 N382 2.008 . S
Co376 N387 1.995 . S
Co376 N392 2.282 . S
Co376 N398 2.282 . S
N377 Co376 1.995 . S
N377 C378 1.376 . S
N377 C381 1.383 . S
C378 N377 1.376 . S
C378 C379 1.446 . S
C378 C408 1.391 . S
C379 C378 1.446 . S
C379 C380 1.339 . S
C379 H414 0.949 . S
C380 C379 1.339 . S
C380 C381 1.439 . S
C380 H415 0.950 . S
C381 N377 1.383 . S
C381 C380 1.439 . S
C381 C410 1.392 . S
N382 Co376 2.008 . S
N382 C383 1.376 . S
N382 C386 1.374 . S
C383 N382 1.376 . S
C383 C384 1.443 . S
C383 C410 1.389 . S
C384 C383 1.443 . S
C384 C385 1.340 . S
C384 H416 0.951 . S
C385 C384 1.340 . S
C385 C386 1.439 . S
C385 H417 0.936 1_556 S
C386 N382 1.374 . S
C386 C385 1.439 . S
C386 C411 1.395 . S
N387 Co376 1.995 . S
N387 C388 1.376 . S
N387 C391 1.383 . S
C388 N387 1.376 . S
C388 C389 1.446 1_556 S
C388 C411 1.391 . S
C389 C388 1.446 1_554 S
C389 C390 1.339 1_554 S
C389 H418 0.949 . S
C390 C389 1.339 1_556 S
C390 C391 1.439 . S
C390 H419 0.950 1_556 S
C391 N387 1.383 . S
C391 C390 1.439 . S
C391 C409 1.392 . S
N392 Co376 2.282 . S
N392 C395 1.332 . S
N392 C397 1.332 . S
C393 C394 1.386 . S
C393 C396 1.388 . S
C394 C393 1.386 . S
C394 C395 1.382 . S
C394 H420 0.950 . S
C395 N392 1.332 . S
C395 C394 1.382 . S
C395 H406 0.952 . S
C396 C393 1.388 . S
C396 C397 1.382 . S
C396 H421 0.950 . S
C397 N392 1.332 . S
C397 C396 1.382 . S
C397 H407 0.948 . S
N398 Co376 2.282 . S
N398 C402 1.332 . S
N398 C403 1.332 . S
C399 C400 1.388 1_554 S
C399 C403 1.382 1_554 S
C399 H422 0.950 . S
C400 C399 1.388 1_556 S
C400 C401 1.386 . S
C401 C400 1.386 . S
C401 C402 1.382 . S
C401 H423 0.950 . S
C402 N398 1.332 . S
C402 C401 1.382 . S
C402 H404 0.952 . S
C403 N398 1.332 . S
C403 C399 1.382 1_556 S
C403 H405 0.948 1_556 S
H404 C402 0.952 . S
H405 C403 0.948 1_554 S
H406 C395 0.952 . S
H407 C397 0.948 . S
C408 C374 1.395 . S
C408 C378 1.391 . S
C409 C371 1.389 . S
C409 C391 1.392 . S
C410 C381 1.392 . S
C410 C383 1.389 . S
C411 C386 1.395 . S
C411 C388 1.391 . S
H412 C372 0.951 . S
H413 C373 0.950 . S
H414 C379 0.949 . S
H415 C380 0.950 . S
H416 C384 0.951 . S
H417 C385 0.936 1_554 S
H418 C389 0.949 . S
H419 C390 0.950 1_554 S
H420 C394 0.950 . S
H421 C396 0.950 . S
H422 C399 0.950 . S
H423 C401 0.950 . S
C424 C425 1.443 . S
C424 N428 1.376 . S
C424 C462 1.389 . S
C425 C424 1.443 . S
C425 C426 1.340 . S
C425 H465 0.951 . S
C426 C425 1.340 . S
C426 C427 1.439 . S
C426 H466 0.950 . S
C427 C426 1.439 . S
C427 N428 1.374 . S
C427 C461 1.395 . S
N428 C424 1.376 . S
N428 C427 1.374 . S
N428 Co429 2.008 . S
Co429 N428 2.008 . S
Co429 N430 1.995 . S
Co429 N435 2.008 . S
Co429 N440 1.995 . S
Co429 N445 2.282 . S
Co429 N451 2.282 . S
N430 Co429 1.995 . S
N430 C431 1.376 . S
N430 C434 1.383 . S
C431 N430 1.376 . S
C431 C432 1.446 . S
C431 C461 1.391 . S
C432 C431 1.446 . S
C432 C433 1.339 . S
C432 H467 0.949 . S
C433 C432 1.339 . S
C433 C434 1.439 . S
C433 H468 0.950 . S
C434 N430 1.383 . S
C434 C433 1.439 . S
C434 C463 1.392 . S
N435 Co429 2.008 . S
N435 C436 1.376 . S
N435 C439 1.374 . S
C436 N435 1.376 . S
C436 C437 1.443 . S
C436 C463 1.389 . S
C437 C436 1.443 . S
C437 C438 1.340 . S
C437 H469 0.951 . S
C438 C437 1.340 . S
C438 C439 1.439 . S
C438 H470 0.950 . S
C439 N435 1.374 . S
C439 C438 1.439 . S
C439 C464 1.395 . S
N440 Co429 1.995 . S
N440 C441 1.376 . S
N440 C444 1.383 . S
C441 N440 1.376 . S
C441 C442 1.446 . S
C441 C464 1.391 . S
C442 C441 1.446 . S
C442 C443 1.339 . S
C442 H471 0.949 . S
C443 C442 1.339 . S
C443 C444 1.439 . S
C443 H472 0.950 . S
C444 N440 1.383 . S
C444 C443 1.439 . S
C444 C462 1.392 . S
N445 Co429 2.282 . S
N445 C448 1.332 . S
N445 C450 1.332 . S
C446 C447 1.386 . S
C446 C449 1.388 . S
C447 C446 1.386 . S
C447 C448 1.382 . S
C447 H473 0.950 . S
C448 N445 1.332 . S
C448 C447 1.382 . S
C448 H459 0.952 . S
C449 C446 1.388 . S
C449 C450 1.382 . S
C449 H474 0.950 . S
C450 N445 1.332 . S
C450 C449 1.382 . S
C450 H460 0.948 . S
N451 Co429 2.282 . S
N451 C455 1.332 . S
N451 C456 1.332 . S
C452 C453 1.388 . S
C452 C456 1.382 . S
C452 H475 0.950 . S
C453 C452 1.388 . S
C453 C454 1.386 . S
C454 C453 1.386 . S
C454 C455 1.382 . S
C454 H476 0.950 . S
C455 N451 1.332 . S
C455 C454 1.382 . S
C455 H457 0.952 . S
C456 N451 1.332 . S
C456 C452 1.382 . S
C456 H458 0.948 . S
H457 C455 0.952 . S
H458 C456 0.948 . S
H459 C448 0.952 . S
H460 C450 0.948 . S
C461 C427 1.395 . S
C461 C431 1.391 . S
C462 C424 1.389 . S
C462 C444 1.392 . S
C463 C434 1.392 . S
C463 C436 1.389 . S
C464 C439 1.395 . S
C464 C441 1.391 . S
H465 C425 0.951 . S
H466 C426 0.950 . S
H467 C432 0.949 . S
H468 C433 0.950 . S
H469 C437 0.951 . S
H470 C438 0.950 . S
H471 C442 0.949 . S
H472 C443 0.950 . S
H473 C447 0.950 . S
H474 C449 0.950 . S
H475 C452 0.950 . S
H476 C454 0.950 . S
C477 C478 1.443 . S
C477 N481 1.376 . S
C477 C515 1.389 . S
C478 C477 1.443 . S
C478 C479 1.340 . S
C478 H518 0.951 . S
C479 C478 1.340 . S
C479 C480 1.439 . S
C479 H519 0.950 . S
C480 C479 1.439 . S
C480 N481 1.374 . S
C480 C514 1.395 . S
N481 C477 1.376 . S
N481 C480 1.374 . S
N481 Co482 2.008 . S
Co482 N481 2.008 . S
Co482 N483 1.995 . S
Co482 N488 2.008 . S
Co482 N493 1.995 . S
Co482 N498 2.282 . S
Co482 N504 2.282 . S
N483 Co482 1.995 . S
N483 C484 1.376 . S
N483 C487 1.383 . S
C484 N483 1.376 . S
C484 C485 1.446 . S
C484 C514 1.391 . S
C485 C484 1.446 . S
C485 C486 1.339 . S
C485 H520 0.949 . S
C486 C485 1.339 . S
C486 C487 1.439 . S
C486 H521 0.950 . S
C487 N483 1.383 . S
C487 C486 1.439 . S
C487 C516 1.392 . S
N488 Co482 2.008 . S
N488 C489 1.376 . S
N488 C492 1.374 . S
C489 N488 1.376 . S
C489 C490 1.443 . S
C489 C516 1.389 . S
C490 C489 1.443 . S
C490 C491 1.340 . S
C490 H522 0.951 . S
C491 C490 1.340 . S
C491 C492 1.439 . S
C491 H523 0.950 . S
C492 N488 1.374 . S
C492 C491 1.439 . S
C492 C517 1.395 . S
N493 Co482 1.995 . S
N493 C494 1.376 . S
N493 C497 1.383 . S
C494 N493 1.376 . S
C494 C495 1.446 . S
C494 C517 1.391 . S
C495 C494 1.446 . S
C495 C496 1.339 . S
C495 H524 0.949 . S
C496 C495 1.339 . S
C496 C497 1.439 . S
C496 H525 0.950 . S
C497 N493 1.383 . S
C497 C496 1.439 . S
C497 C515 1.392 . S
N498 Co482 2.282 . S
N498 C501 1.332 . S
N498 C503 1.332 . S
C499 C500 1.386 . S
C499 C502 1.388 . S
C500 C499 1.386 . S
C500 C501 1.382 . S
C500 H526 0.950 . S
C501 N498 1.332 . S
C501 C500 1.382 . S
C501 H512 0.952 . S
C502 C499 1.388 . S
C502 C503 1.382 . S
C502 H527 0.950 . S
C503 N498 1.332 . S
C503 C502 1.382 . S
C503 H513 0.948 . S
N504 Co482 2.282 . S
N504 C508 1.332 . S
N504 C509 1.332 . S
C505 C506 1.388 . S
C505 C509 1.382 . S
C505 H528 0.950 . S
C506 C505 1.388 . S
C506 C507 1.386 . S
C507 C506 1.386 . S
C507 C508 1.382 . S
C507 H529 0.950 . S
C508 N504 1.332 . S
C508 C507 1.382 . S
C508 H510 0.952 . S
C509 N504 1.332 . S
C509 C505 1.382 . S
C509 H511 0.948 . S
H510 C508 0.952 . S
H511 C509 0.948 . S
H512 C501 0.952 . S
H513 C503 0.948 . S
C514 C480 1.395 . S
C514 C484 1.391 . S
C515 C477 1.389 . S
C515 C497 1.392 . S
C516 C487 1.392 . S
C516 C489 1.389 . S
C517 C492 1.395 . S
C517 C494 1.391 . S
H518 C478 0.951 . S
H519 C479 0.950 . S
H520 C485 0.949 . S
H521 C486 0.950 . S
H522 C490 0.951 . S
H523 C491 0.950 . S
H524 C495 0.949 . S
H525 C496 0.950 . S
H526 C500 0.950 . S
H527 C502 0.950 . S
H528 C505 0.950 . S
H529 C507 0.950 . S
C530 C531 1.443 . S
C530 N534 1.376 . S
C530 C568 1.389 . S
C531 C530 1.443 . S
C531 C532 1.340 . S
C531 H571 0.951 . S
C532 C531 1.340 . S
C532 C533 1.439 . S
C532 H572 0.950 . S
C533 C532 1.439 . S
C533 N534 1.374 . S
C533 C567 1.395 . S
N534 C530 1.376 . S
N534 C533 1.374 . S
N534 Co535 2.008 . S
Co535 N534 2.008 . S
Co535 N536 1.995 . S
Co535 N541 2.008 . S
Co535 N546 1.995 . S
Co535 N551 2.282 . S
Co535 N557 2.282 . S
N536 Co535 1.995 . S
N536 C537 1.376 . S
N536 C540 1.383 . S
C537 N536 1.376 . S
C537 C538 1.446 . S
C537 C567 1.391 . S
C538 C537 1.446 . S
C538 C539 1.339 . S
C538 H573 0.949 . S
C539 C538 1.339 . S
C539 C540 1.439 . S
C539 H574 0.950 . S
C540 N536 1.383 . S
C540 C539 1.439 . S
C540 C569 1.392 . S
N541 Co535 2.008 . S
N541 C542 1.376 . S
N541 C545 1.374 . S
C542 N541 1.376 . S
C542 C543 1.443 . S
C542 C569 1.389 . S
C543 C542 1.443 . S
C543 C544 1.340 . S
C543 H575 0.951 . S
C544 C543 1.340 . S
C544 C545 1.439 . S
C544 H576 0.950 . S
C545 N541 1.374 . S
C545 C544 1.439 . S
C545 C570 1.395 . S
N546 Co535 1.995 . S
N546 C547 1.376 . S
N546 C550 1.383 . S
C547 N546 1.376 . S
C547 C548 1.446 . S
C547 C570 1.391 . S
C548 C547 1.446 . S
C548 C549 1.339 . S
C548 H577 0.949 . S
C549 C548 1.339 . S
C549 C550 1.439 . S
C549 H578 0.950 . S
C550 N546 1.383 . S
C550 C549 1.439 . S
C550 C568 1.392 . S
N551 Co535 2.282 . S
N551 C554 1.332 . S
N551 C556 1.332 . S
C552 C553 1.386 . S
C552 C555 1.388 . S
C553 C552 1.386 . S
C553 C554 1.382 . S
C553 H579 0.950 . S
C554 N551 1.332 . S
C554 C553 1.382 . S
C554 H565 0.952 . S
C555 C552 1.388 . S
C555 C556 1.382 . S
C555 H580 0.950 . S
C556 N551 1.332 . S
C556 C555 1.382 . S
C556 H566 0.948 . S
N557 Co535 2.282 . S
N557 C561 1.332 . S
N557 C562 1.332 . S
C558 C559 1.388 . S
C558 C562 1.382 . S
C558 H581 0.950 . S
C559 C558 1.388 . S
C559 C560 1.386 . S
C560 C559 1.386 . S
C560 C561 1.382 . S
C560 H582 0.950 . S
C561 N557 1.332 . S
C561 C560 1.382 . S
C561 H563 0.952 . S
C562 N557 1.332 . S
C562 C558 1.382 . S
C562 H564 0.948 . S
H563 C561 0.952 . S
H564 C562 0.948 . S
H565 C554 0.952 . S
H566 C556 0.948 . S
C567 C533 1.395 . S
C567 C537 1.391 . S
C568 C530 1.389 . S
C568 C550 1.392 . S
C569 C540 1.392 . S
C569 C542 1.389 . S
C570 C545 1.395 . S
C570 C547 1.391 . S
H571 C531 0.951 . S
H572 C532 0.950 . S
H573 C538 0.949 . S
H574 C539 0.950 . S
H575 C543 0.951 . S
H576 C544 0.950 . S
H577 C548 0.949 . S
H578 C549 0.950 . S
H579 C553 0.950 . S
H580 C555 0.950 . S
H581 C558 0.950 . S
H582 C560 0.950 . S
C583 C584 1.443 . S
C583 N587 1.376 . S
C583 C621 1.389 . S
C584 C583 1.443 . S
C584 C585 1.340 . S
C584 H624 0.951 . S
C585 C584 1.340 . S
C585 C586 1.439 . S
C585 H625 0.950 . S
C586 C585 1.439 . S
C586 N587 1.374 . S
C586 C620 1.395 . S
N587 C583 1.376 . S
N587 C586 1.374 . S
N587 Co588 2.008 . S
Co588 N587 2.008 . S
Co588 N589 1.995 . S
Co588 N594 2.008 . S
Co588 N599 1.995 . S
Co588 N604 2.282 . S
Co588 N610 2.282 . S
N589 Co588 1.995 . S
N589 C590 1.376 . S
N589 C593 1.383 . S
C590 N589 1.376 . S
C590 C591 1.446 . S
C590 C620 1.391 . S
C591 C590 1.446 . S
C591 C592 1.339 . S
C591 H626 0.949 . S
C592 C591 1.339 . S
C592 C593 1.439 . S
C592 H627 0.950 . S
C593 N589 1.383 . S
C593 C592 1.439 . S
C593 C622 1.392 . S
N594 Co588 2.008 . S
N594 C595 1.376 . S
N594 C598 1.374 . S
C595 N594 1.376 . S
C595 C596 1.443 . S
C595 C622 1.389 . S
C596 C595 1.443 . S
C596 C597 1.340 . S
C596 H628 0.951 . S
C597 C596 1.340 . S
C597 C598 1.439 . S
C597 H629 0.950 . S
C598 N594 1.374 . S
C598 C597 1.439 . S
C598 C623 1.395 . S
N599 Co588 1.995 . S
N599 C600 1.376 . S
N599 C603 1.383 . S
C600 N599 1.376 . S
C600 C601 1.446 . S
C600 C623 1.391 . S
C601 C600 1.446 . S
C601 C602 1.339 . S
C601 H630 0.949 . S
C602 C601 1.339 . S
C602 C603 1.439 . S
C602 H631 0.950 . S
C603 N599 1.383 . S
C603 C602 1.439 . S
C603 C621 1.392 . S
N604 Co588 2.282 . S
N604 C607 1.332 . S
N604 C609 1.332 . S
C605 C606 1.386 . S
C605 C608 1.388 . S
C606 C605 1.386 . S
C606 C607 1.382 . S
C606 H632 0.950 . S
C607 N604 1.332 . S
C607 C606 1.382 . S
C607 H618 0.952 . S
C608 C605 1.388 . S
C608 C609 1.382 . S
C608 H633 0.950 . S
C609 N604 1.332 . S
C609 C608 1.382 . S
C609 H619 0.948 . S
N610 Co588 2.282 . S
N610 C614 1.332 . S
N610 C615 1.332 . S
C611 C612 1.388 . S
C611 C615 1.382 . S
C611 H634 0.950 . S
C612 C611 1.388 . S
C612 C613 1.386 . S
C613 C612 1.386 . S
C613 C614 1.382 . S
C613 H635 0.950 . S
C614 N610 1.332 . S
C614 C613 1.382 . S
C614 H616 0.952 . S
C615 N610 1.332 . S
C615 C611 1.382 . S
C615 H617 0.948 . S
H616 C614 0.952 . S
H617 C615 0.948 . S
H618 C607 0.952 . S
H619 C609 0.948 . S
C620 C586 1.395 . S
C620 C590 1.391 . S
C621 C583 1.389 . S
C621 C603 1.392 . S
C622 C593 1.392 . S
C622 C595 1.389 . S
C623 C598 1.395 . S
C623 C600 1.391 . S
H624 C584 0.951 . S
H625 C585 0.950 . S
H626 C591 0.949 . S
H627 C592 0.950 . S
H628 C596 0.951 . S
H629 C597 0.950 . S
H630 C601 0.949 . S
H631 C602 0.950 . S
H632 C606 0.950 . S
H633 C608 0.950 . S
H634 C611 0.950 . S
H635 C613 0.950 . S
C636 C637 1.443 . S
C636 N640 1.376 . S
C636 C674 1.389 . S
C637 C636 1.443 . S
C637 C638 1.340 . S
C637 H677 0.951 . S
C638 C637 1.340 . S
C638 C639 1.439 . S
C638 H678 0.950 . S
C639 C638 1.439 . S
C639 N640 1.374 . S
C639 C673 1.395 . S
N640 C636 1.376 . S
N640 C639 1.374 . S
N640 Co641 2.008 . S
Co641 N640 2.008 . S
Co641 N642 1.995 . S
Co641 N647 2.008 . S
Co641 N652 1.995 . S
Co641 N657 2.282 . S
Co641 N663 2.282 . S
N642 Co641 1.995 . S
N642 C643 1.376 . S
N642 C646 1.383 . S
C643 N642 1.376 . S
C643 C644 1.446 . S
C643 C673 1.391 . S
C644 C643 1.446 . S
C644 C645 1.339 . S
C644 H679 0.949 . S
C645 C644 1.339 . S
C645 C646 1.439 . S
C645 H680 0.950 . S
C646 N642 1.383 . S
C646 C645 1.439 . S
C646 C675 1.392 . S
N647 Co641 2.008 . S
N647 C648 1.376 . S
N647 C651 1.374 . S
C648 N647 1.376 . S
C648 C649 1.443 . S
C648 C675 1.389 . S
C649 C648 1.443 . S
C649 C650 1.340 . S
C649 H681 0.951 . S
C650 C649 1.340 . S
C650 C651 1.439 . S
C650 H682 0.950 . S
C651 N647 1.374 . S
C651 C650 1.439 . S
C651 C676 1.395 . S
N652 Co641 1.995 . S
N652 C653 1.376 . S
N652 C656 1.383 . S
C653 N652 1.376 . S
C653 C654 1.446 . S
C653 C676 1.391 . S
C654 C653 1.446 . S
C654 C655 1.339 . S
C654 H683 0.949 . S
C655 C654 1.339 . S
C655 C656 1.439 . S
C655 H684 0.950 . S
C656 N652 1.383 . S
C656 C655 1.439 . S
C656 C674 1.392 . S
N657 Co641 2.282 . S
N657 C660 1.332 . S
N657 C662 1.332 . S
C658 C659 1.386 . S
C658 C661 1.388 . S
C659 C658 1.386 . S
C659 C660 1.382 . S
C659 H685 0.950 . S
C660 N657 1.332 . S
C660 C659 1.382 . S
C660 H671 0.952 . S
C661 C658 1.388 . S
C661 C662 1.382 . S
C661 H686 0.950 . S
C662 N657 1.332 . S
C662 C661 1.382 . S
C662 H672 0.948 . S
N663 Co641 2.282 . S
N663 C667 1.332 . S
N663 C668 1.332 . S
C664 C665 1.388 . S
C664 C668 1.382 . S
C664 H687 0.950 . S
C665 C664 1.388 . S
C665 C666 1.386 . S
C666 C665 1.386 . S
C666 C667 1.382 . S
C666 H688 0.950 . S
C667 N663 1.332 . S
C667 C666 1.382 . S
C667 H669 0.952 . S
C668 N663 1.332 . S
C668 C664 1.382 . S
C668 H670 0.948 . S
H669 C667 0.952 . S
H670 C668 0.948 . S
H671 C660 0.952 . S
H672 C662 0.948 . S
C673 C639 1.395 . S
C673 C643 1.391 . S
C674 C636 1.389 . S
C674 C656 1.392 . S
C675 C646 1.392 . S
C675 C648 1.389 . S
C676 C651 1.395 . S
C676 C653 1.391 . S
H677 C637 0.951 . S
H678 C638 0.950 . S
H679 C644 0.949 . S
H680 C645 0.950 . S
H681 C649 0.951 . S
H682 C650 0.950 . S
H683 C654 0.949 . S
H684 C655 0.950 . S
H685 C659 0.950 . S
H686 C661 0.950 . S
H687 C664 0.950 . S
H688 C666 0.950 . S
C689 C690 1.443 . S
C689 N693 1.376 . S
C689 C727 1.389 . S
C690 C689 1.443 . S
C690 C691 1.340 . S
C690 H730 0.951 . S
C691 C690 1.340 . S
C691 C692 1.439 . S
C691 H731 0.950 . S
C692 C691 1.439 . S
C692 N693 1.374 . S
C692 C726 1.395 . S
N693 C689 1.376 . S
N693 C692 1.374 . S
N693 Co694 2.008 . S
Co694 N693 2.008 . S
Co694 N695 1.995 . S
Co694 N700 2.008 . S
Co694 N705 1.995 . S
Co694 N710 2.282 . S
Co694 N716 2.282 . S
N695 Co694 1.995 . S
N695 C696 1.376 . S
N695 C699 1.383 . S
C696 N695 1.376 . S
C696 C697 1.446 . S
C696 C726 1.391 . S
C697 C696 1.446 . S
C697 C698 1.339 . S
C697 H732 0.949 . S
C698 C697 1.339 . S
C698 C699 1.439 . S
C698 H733 0.950 . S
C699 N695 1.383 . S
C699 C698 1.439 . S
C699 C728 1.392 . S
N700 Co694 2.008 . S
N700 C701 1.376 . S
N700 C704 1.374 . S
C701 N700 1.376 . S
C701 C702 1.443 . S
C701 C728 1.389 . S
C702 C701 1.443 . S
C702 C703 1.340 . S
C702 H734 0.951 . S
C703 C702 1.340 . S
C703 C704 1.439 . S
C703 H735 0.950 . S
C704 N700 1.374 . S
C704 C703 1.439 . S
C704 C729 1.395 . S
N705 Co694 1.995 . S
N705 C706 1.376 . S
N705 C709 1.383 . S
C706 N705 1.376 . S
C706 C707 1.446 . S
C706 C729 1.391 . S
C707 C706 1.446 . S
C707 C708 1.339 . S
C707 H736 0.949 . S
C708 C707 1.339 . S
C708 C709 1.439 . S
C708 H737 0.950 . S
C709 N705 1.383 . S
C709 C708 1.439 . S
C709 C727 1.392 . S
N710 Co694 2.282 . S
N710 C713 1.332 . S
N710 C715 1.332 . S
C711 C712 1.386 . S
C711 C714 1.388 . S
C712 C711 1.386 . S
C712 C713 1.382 . S
C712 H738 0.950 . S
C713 N710 1.332 . S
C713 C712 1.382 . S
C713 H724 0.952 . S
C714 C711 1.388 . S
C714 C715 1.382 . S
C714 H739 0.950 . S
C715 N710 1.332 . S
C715 C714 1.382 . S
C715 H725 0.948 . S
N716 Co694 2.282 . S
N716 C720 1.332 . S
N716 C721 1.332 . S
C717 C718 1.388 . S
C717 C721 1.382 . S
C717 H740 0.950 . S
C718 C717 1.388 . S
C718 C719 1.386 . S
C719 C718 1.386 . S
C719 C720 1.382 . S
C719 H741 0.950 . S
C720 N716 1.332 . S
C720 C719 1.382 . S
C720 H722 0.952 . S
C721 N716 1.332 . S
C721 C717 1.382 . S
C721 H723 0.948 . S
H722 C720 0.952 . S
H723 C721 0.948 . S
H724 C713 0.952 . S
H725 C715 0.948 . S
C726 C692 1.395 . S
C726 C696 1.391 . S
C727 C689 1.389 . S
C727 C709 1.392 . S
C728 C699 1.392 . S
C728 C701 1.389 . S
C729 C704 1.395 . S
C729 C706 1.391 . S
H730 C690 0.951 . S
H731 C691 0.950 . S
H732 C697 0.949 . S
H733 C698 0.950 . S
H734 C702 0.951 . S
H735 C703 0.950 . S
H736 C707 0.949 . S
H737 C708 0.950 . S
H738 C712 0.950 . S
H739 C714 0.950 . S
H740 C717 0.950 . S
H741 C719 0.950 . S
C742 C743 1.443 . S
C742 N746 1.376 . S
C742 C780 1.389 . S
C743 C742 1.443 . S
C743 C744 1.340 . S
C743 H783 0.951 . S
C744 C743 1.340 . S
C744 C745 1.439 . S
C744 H784 0.950 . S
C745 C744 1.439 . S
C745 N746 1.374 . S
C745 C779 1.395 . S
N746 C742 1.376 . S
N746 C745 1.374 . S
N746 Co747 2.008 . S
Co747 N746 2.008 . S
Co747 N748 1.995 . S
Co747 N753 2.008 . S
Co747 N758 1.995 . S
Co747 N763 2.282 . S
Co747 N769 2.282 . S
N748 Co747 1.995 . S
N748 C749 1.376 . S
N748 C752 1.383 . S
C749 N748 1.376 . S
C749 C750 1.446 . S
C749 C779 1.391 . S
C750 C749 1.446 . S
C750 C751 1.339 . S
C750 H785 0.949 . S
C751 C750 1.339 . S
C751 C752 1.439 . S
C751 H786 0.950 . S
C752 N748 1.383 . S
C752 C751 1.439 . S
C752 C781 1.392 . S
N753 Co747 2.008 . S
N753 C754 1.376 . S
N753 C757 1.374 . S
C754 N753 1.376 . S
C754 C755 1.443 . S
C754 C781 1.389 . S
C755 C754 1.443 . S
C755 C756 1.340 . S
C755 H787 0.951 . S
C756 C755 1.340 . S
C756 C757 1.439 . S
C756 H788 0.950 . S
C757 N753 1.374 . S
C757 C756 1.439 . S
C757 C782 1.395 . S
N758 Co747 1.995 . S
N758 C759 1.376 . S
N758 C762 1.383 . S
C759 N758 1.376 . S
C759 C760 1.446 . S
C759 C782 1.391 . S
C760 C759 1.446 . S
C760 C761 1.339 . S
C760 H789 0.949 . S
C761 C760 1.339 . S
C761 C762 1.439 . S
C761 H790 0.950 . S
C762 N758 1.383 . S
C762 C761 1.439 . S
C762 C780 1.392 . S
N763 Co747 2.282 . S
N763 C766 1.332 . S
N763 C768 1.332 . S
C764 C765 1.386 . S
C764 C767 1.388 . S
C765 C764 1.386 . S
C765 C766 1.382 . S
C765 H791 0.950 . S
C766 N763 1.332 . S
C766 C765 1.382 . S
C766 H777 0.952 . S
C767 C764 1.388 . S
C767 C768 1.382 . S
C767 H792 0.950 . S
C768 N763 1.332 . S
C768 C767 1.382 . S
C768 H778 0.948 . S
N769 Co747 2.282 . S
N769 C773 1.332 . S
N769 C774 1.332 . S
C770 C771 1.388 . S
C770 C774 1.382 . S
C770 H793 0.950 . S
C771 C770 1.388 . S
C771 C772 1.386 . S
C772 C771 1.386 . S
C772 C773 1.382 . S
C772 H794 0.950 . S
C773 N769 1.332 . S
C773 C772 1.382 . S
C773 H775 0.952 . S
C774 N769 1.332 . S
C774 C770 1.382 . S
C774 H776 0.948 . S
H775 C773 0.952 . S
H776 C774 0.948 . S
H777 C766 0.952 . S
H778 C768 0.948 . S
C779 C745 1.395 . S
C779 C749 1.391 . S
C780 C742 1.389 . S
C780 C762 1.392 . S
C781 C752 1.392 . S
C781 C754 1.389 . S
C782 C757 1.395 . S
C782 C759 1.391 . S
H783 C743 0.951 . S
H784 C744 0.950 . S
H785 C750 0.949 . S
H786 C751 0.950 . S
H787 C755 0.951 . S
H788 C756 0.950 . S
H789 C760 0.949 . S
H790 C761 0.950 . S
H791 C765 0.950 . S
H792 C767 0.950 . S
H793 C770 0.950 . S
H794 C772 0.950 . S
C795 C796 1.443 . S
C795 N799 1.376 . S
C795 C833 1.389 . S
C796 C795 1.443 . S
C796 C797 1.340 . S
C796 H836 0.951 . S
C797 C796 1.340 . S
C797 C798 1.439 . S
C797 H837 0.950 . S
C798 C797 1.439 . S
C798 N799 1.374 . S
C798 C832 1.395 . S
N799 C795 1.376 . S
N799 C798 1.374 . S
N799 Co800 2.008 . S
Co800 N799 2.008 . S
Co800 N801 1.995 . S
Co800 N806 2.008 . S
Co800 N811 1.995 . S
Co800 N816 2.282 . S
Co800 N822 2.282 . S
N801 Co800 1.995 . S
N801 C802 1.376 . S
N801 C805 1.383 . S
C802 N801 1.376 . S
C802 C803 1.446 . S
C802 C832 1.391 . S
C803 C802 1.446 . S
C803 C804 1.339 . S
C803 H838 0.949 . S
C804 C803 1.339 . S
C804 C805 1.439 . S
C804 H839 0.950 . S
C805 N801 1.383 . S
C805 C804 1.439 . S
C805 C834 1.392 . S
N806 Co800 2.008 . S
N806 C807 1.376 . S
N806 C810 1.374 . S
C807 N806 1.376 . S
C807 C808 1.443 . S
C807 C834 1.389 . S
C808 C807 1.443 . S
C808 C809 1.340 . S
C808 H840 0.951 . S
C809 C808 1.340 . S
C809 C810 1.439 . S
C809 H841 0.950 . S
C810 N806 1.374 . S
C810 C809 1.439 . S
C810 C835 1.395 . S
N811 Co800 1.995 . S
N811 C812 1.376 . S
N811 C815 1.383 . S
C812 N811 1.376 . S
C812 C813 1.446 . S
C812 C835 1.391 . S
C813 C812 1.446 . S
C813 C814 1.339 . S
C813 H842 0.949 . S
C814 C813 1.339 . S
C814 C815 1.439 . S
C814 H843 0.950 . S
C815 N811 1.383 . S
C815 C814 1.439 . S
C815 C833 1.392 . S
N816 Co800 2.282 . S
N816 C819 1.332 . S
N816 C821 1.332 . S
C817 C818 1.386 . S
C817 C820 1.388 . S
C818 C817 1.386 . S
C818 C819 1.382 . S
C818 H844 0.950 . S
C819 N816 1.332 . S
C819 C818 1.382 . S
C819 H830 0.952 . S
C820 C817 1.388 . S
C820 C821 1.382 . S
C820 H845 0.950 . S
C821 N816 1.332 . S
C821 C820 1.382 . S
C821 H831 0.948 . S
N822 Co800 2.282 . S
N822 C826 1.332 . S
N822 C827 1.332 . S
C823 C824 1.388 . S
C823 C827 1.382 . S
C823 H846 0.950 . S
C824 C823 1.388 . S
C824 C825 1.386 . S
C825 C824 1.386 . S
C825 C826 1.382 . S
C825 H847 0.950 . S
C826 N822 1.332 . S
C826 C825 1.382 . S
C826 H828 0.952 . S
C827 N822 1.332 . S
C827 C823 1.382 . S
C827 H829 0.948 . S
H828 C826 0.952 . S
H829 C827 0.948 . S
H830 C819 0.952 . S
H831 C821 0.948 . S
C832 C798 1.395 . S
C832 C802 1.391 . S
C833 C795 1.389 . S
C833 C815 1.392 . S
C834 C805 1.392 . S
C834 C807 1.389 . S
C835 C810 1.395 . S
C835 C812 1.391 . S
H836 C796 0.951 . S
H837 C797 0.950 . S
H838 C803 0.949 . S
H839 C804 0.950 . S
H840 C808 0.951 . S
H841 C809 0.950 . S
H842 C813 0.949 . S
H843 C814 0.950 . S
H844 C818 0.950 . S
H845 C820 0.950 . S
H846 C823 0.950 . S
H847 C825 0.950 . S
H848 C854 0.930 . S
H849 C858 0.930 . S
H850 C863 0.929 . S
H851 C861 0.929 . S
H852 C856 0.929 . S
H853 C862 0.929 . S
C854 H848 0.930 . S
C854 C855 1.367 . S
C854 C862 1.378 . S
C855 C854 1.367 . S
C855 C863 1.433 . S
C856 H852 0.929 . S
C856 C858 1.378 . S
C856 C860 1.350 . S
C857 C860 1.463 1_565 S
C857 C862 1.350 . S
C857 N865 1.427 . S
C858 H849 0.930 . S
C858 C856 1.378 . S
C858 C859 1.367 . S
C859 C858 1.367 . S
C859 C861 1.433 . S
C860 C856 1.350 . S
C860 C857 1.463 1_545 S
C860 N864 1.427 . S
C861 H851 0.929 . S
C861 C859 1.433 . S
C861 N864 1.384 . S
C862 H853 0.929 . S
C862 C854 1.378 . S
C862 C857 1.350 . S
C863 H850 0.929 . S
C863 C855 1.433 . S
C863 N865 1.384 . S
N864 C860 1.427 . S
N864 C861 1.384 . S
N865 C857 1.427 . S
N865 C863 1.384 . S
H866 C872 0.930 . S
H867 C876 0.930 . S
H868 C881 0.929 . S
H869 C879 0.929 . S
H870 C874 0.929 . S
H871 C880 0.929 . S
C872 H866 0.930 . S
C872 C873 1.367 . S
C872 C880 1.378 . S
C873 C872 1.367 . S
C873 C881 1.433 . S
C874 H870 0.929 . S
C874 C876 1.378 . S
C874 C878 1.350 . S
C875 C878 1.463 1_455 S
C875 C880 1.350 . S
C875 N883 1.427 . S
C876 H867 0.930 . S
C876 C874 1.378 . S
C876 C877 1.367 . S
C877 C876 1.367 . S
C877 C879 1.433 . S
C878 C874 1.350 . S
C878 C875 1.463 1_655 S
C878 N882 1.427 . S
C879 H869 0.929 . S
C879 C877 1.433 . S
C879 N882 1.384 . S
C880 H871 0.929 . S
C880 C872 1.378 . S
C880 C875 1.350 . S
C881 H868 0.929 . S
C881 C873 1.433 . S
C881 N883 1.384 . S
N882 C878 1.427 . S
N882 C879 1.384 . S
N883 C875 1.427 . S
N883 C881 1.384 . S
H884 C890 0.930 . S
H885 C894 0.930 . S
H886 C899 0.929 . S
H887 C897 0.929 . S
H888 C892 0.929 . S
H889 C898 0.929 . S
C890 H884 0.930 . S
C890 C891 1.367 . S
C890 C898 1.378 . S
C891 C890 1.367 . S
C891 C899 1.433 . S
C892 H888 0.929 . S
C892 C894 1.378 . S
C892 C896 1.350 . S
C893 C896 1.463 1_565 S
C893 C898 1.350 . S
C893 N901 1.427 . S
C894 H885 0.930 . S
C894 C892 1.378 . S
C894 C895 1.367 . S
C895 C894 1.367 . S
C895 C897 1.433 . S
C896 C892 1.350 . S
C896 C893 1.463 1_545 S
C896 N900 1.427 . S
C897 H887 0.929 . S
C897 C895 1.433 . S
C897 N900 1.384 . S
C898 H889 0.929 . S
C898 C890 1.378 . S
C898 C893 1.350 . S
C899 H886 0.929 . S
C899 C891 1.433 . S
C899 N901 1.384 . S
N900 C896 1.427 . S
N900 C897 1.384 . S
N901 C893 1.427 . S
N901 C899 1.384 . S
H902 C908 0.930 . S
H903 C912 0.930 . S
H904 C917 0.929 . S
H905 C915 0.929 . S
H906 C910 0.929 . S
H907 C916 0.929 . S
C908 H902 0.930 . S
C908 C909 1.367 . S
C908 C916 1.378 . S
C909 C908 1.367 . S
C909 C917 1.433 . S
C910 H906 0.929 . S
C910 C912 1.378 . S
C910 C914 1.350 . S
C911 C914 1.463 1_455 S
C911 C916 1.350 . S
C911 N919 1.427 . S
C912 H903 0.930 . S
C912 C910 1.378 . S
C912 C913 1.367 . S
C913 C912 1.367 . S
C913 C915 1.433 . S
C914 C910 1.350 . S
C914 C911 1.463 1_655 S
C914 N918 1.427 . S
C915 H905 0.929 . S
C915 C913 1.433 . S
C915 N918 1.384 . S
C916 H907 0.929 . S
C916 C908 1.378 . S
C916 C911 1.350 . S
C917 H904 0.929 . S
C917 C909 1.433 . S
C917 N919 1.384 . S
N918 C914 1.427 . S
N918 C915 1.384 . S
N919 C911 1.427 . S
N919 C917 1.384 . S
H920 C926 0.930 . S
H921 C930 0.930 . S
H922 C935 0.929 . S
H923 C933 0.929 . S
H924 C928 0.929 . S
H925 C934 0.943 . S
C926 H920 0.930 . S
C926 C927 1.367 . S
C926 C934 1.378 . S
C927 C926 1.367 . S
C927 C935 1.433 . S
C928 H924 0.929 . S
C928 C930 1.378 . S
C928 C932 1.350 . S
C929 C932 1.463 . S
C929 C934 1.350 . S
C929 N937 1.427 . S
C930 H921 0.930 . S
C930 C928 1.378 . S
C930 C931 1.367 . S
C931 C930 1.367 . S
C931 C933 1.433 1_554 S
C932 C928 1.350 . S
C932 C929 1.463 . S
C932 N936 1.427 . S
C933 H923 0.929 . S
C933 C931 1.433 1_556 S
C933 N936 1.384 1_556 S
C934 H925 0.943 . S
C934 C926 1.378 . S
C934 C929 1.350 . S
C935 H922 0.929 . S
C935 C927 1.433 . S
C935 N937 1.384 . S
N936 C932 1.427 . S
N936 C933 1.384 1_554 S
N937 C929 1.427 . S
N937 C935 1.384 . S
H938 C944 0.930 1_554 S
H939 C948 0.930 . S
H940 C953 0.929 . S
H941 C951 0.929 . S
H942 C946 0.929 . S
H943 C952 0.929 1_554 S
C944 H938 0.930 1_556 S
C944 C945 1.367 . S
C944 C952 1.378 . S
C945 C944 1.367 . S
C945 C953 1.433 . S
C946 H942 0.929 . S
C946 C948 1.378 . S
C946 C950 1.350 . S
C947 C950 1.463 . S
C947 C952 1.350 . S
C947 N955 1.427 . S
C948 H939 0.930 . S
C948 C946 1.378 . S
C948 C949 1.367 . S
C949 C948 1.367 . S
C949 C951 1.433 1_556 S
C950 C946 1.350 . S
C950 C947 1.463 . S
C950 N954 1.427 1_556 S
C951 H941 0.929 . S
C951 C949 1.433 1_554 S
C951 N954 1.384 . S
C952 H943 0.929 1_556 S
C952 C944 1.378 . S
C952 C947 1.350 . S
C953 H940 0.929 . S
C953 C945 1.433 . S
C953 N955 1.384 . S
N954 C950 1.427 1_554 S
N954 C951 1.384 . S
N955 C947 1.427 . S
N955 C953 1.384 . S
H956 C962 0.930 . S
H957 C966 0.930 . S
H958 C971 0.929 . S
H959 C969 0.929 1_556 S
H960 C964 0.929 . S
H961 C970 0.929 . S
C962 H956 0.930 . S
C962 C963 1.367 1_556 S
C962 C970 1.378 . S
C963 C962 1.367 1_554 S
C963 C971 1.433 . S
C964 H960 0.929 . S
C964 C966 1.378 . S
C964 C968 1.350 . S
C965 C968 1.463 . S
C965 C970 1.350 1_554 S
C965 N973 1.427 . S
C966 H957 0.930 . S
C966 C964 1.378 . S
C966 C967 1.367 . S
C967 C966 1.367 . S
C967 C969 1.433 . S
C968 C964 1.350 . S
C968 C965 1.463 . S
C968 N972 1.427 . S
C969 H959 0.929 1_554 S
C969 C967 1.433 . S
C969 N972 1.384 . S
C970 H961 0.929 . S
C970 C962 1.378 . S
C970 C965 1.350 1_556 S
C971 H958 0.929 . S
C971 C963 1.433 . S
C971 N973 1.384 . S
N972 C968 1.427 . S
N972 C969 1.384 . S
N973 C965 1.427 . S
N973 C971 1.384 . S
H974 C980 0.930 . S
H975 C984 0.930 . S
H976 C989 0.928 1_554 S
H977 C987 0.929 . S
H978 C982 0.929 . S
H979 C988 0.929 . S
C980 H974 0.930 . S
C980 C981 1.367 . S
C980 C988 1.378 . S
C981 C980 1.367 . S
C981 C989 1.433 . S
C982 H978 0.929 . S
C982 C984 1.378 . S
C982 C986 1.350 . S
C983 C986 1.463 . S
C983 C988 1.350 . S
C983 N991 1.427 . S
C984 H975 0.930 . S
C984 C982 1.378 . S
C984 C985 1.367 . S
C985 C984 1.367 . S
C985 C987 1.433 . S
C986 C982 1.350 . S
C986 C983 1.463 . S
C986 N990 1.427 . S
C987 H977 0.929 . S
C987 C985 1.433 . S
C987 N990 1.384 . S
C988 H979 0.929 . S
C988 C980 1.378 . S
C988 C983 1.350 . S
C989 H976 0.928 1_556 S
C989 C981 1.433 . S
C989 N991 1.384 . S
N990 C986 1.427 . S
N990 C987 1.384 . S
N991 C983 1.427 . S
N991 C989 1.384 . S
H992 C998 0.930 . S
H993 C1002 0.930 . S
H994 C1007 0.929 . S
H995 C1005 0.929 . S
H996 C1000 0.929 . S
H997 C1006 0.929 . S
C998 H992 0.930 . S
C998 C999 1.367 . S
C998 C1006 1.378 . S
C999 C998 1.367 . S
C999 C1007 1.433 . S
C1000 H996 0.929 . S
C1000 C1002 1.378 . S
C1000 C1004 1.350 . S
C1001 C1004 1.463 . S
C1001 C1006 1.350 . S
C1001 N1009 1.427 . S
C1002 H993 0.930 . S
C1002 C1000 1.378 . S
C1002 C1003 1.367 . S
C1003 C1002 1.367 . S
C1003 C1005 1.433 . S
C1004 C1000 1.350 . S
C1004 C1001 1.463 . S
C1004 N1008 1.427 . S
C1005 H995 0.929 . S
C1005 C1003 1.433 . S
C1005 N1008 1.384 . S
C1006 H997 0.929 . S
C1006 C998 1.378 . S
C1006 C1001 1.350 . S
C1007 H994 0.929 . S
C1007 C999 1.433 . S
C1007 N1009 1.384 . S
N1008 C1004 1.427 . S
N1008 C1005 1.384 . S
N1009 C1001 1.427 . S
N1009 C1007 1.384 . S
H1010 C1016 0.930 . S
H1011 C1020 0.930 . S
H1012 C1025 0.929 . S
H1013 C1023 0.929 . S
H1014 C1018 0.929 . S
H1015 C1024 0.929 . S
C1016 H1010 0.930 . S
C1016 C1017 1.367 . S
C1016 C1024 1.378 . S
C1017 C1016 1.367 . S
C1017 C1025 1.433 . S
C1018 H1014 0.929 . S
C1018 C1020 1.378 . S
C1018 C1022 1.350 . S
C1019 C1022 1.463 . S
C1019 C1024 1.350 . S
C1019 N1027 1.427 . S
C1020 H1011 0.930 . S
C1020 C1018 1.378 . S
C1020 C1021 1.367 . S
C1021 C1020 1.367 . S
C1021 C1023 1.433 . S
C1022 C1018 1.350 . S
C1022 C1019 1.463 . S
C1022 N1026 1.427 . S
C1023 H1013 0.929 . S
C1023 C1021 1.433 . S
C1023 N1026 1.384 . S
C1024 H1015 0.929 . S
C1024 C1016 1.378 . S
C1024 C1019 1.350 . S
C1025 H1012 0.929 . S
C1025 C1017 1.433 . S
C1025 N1027 1.384 . S
N1026 C1022 1.427 . S
N1026 C1023 1.384 . S
N1027 C1019 1.427 . S
N1027 C1025 1.384 . S
H1028 C1034 0.930 . S
H1029 C1038 0.930 . S
H1030 C1043 0.929 . S
H1031 C1041 0.929 . S
H1032 C1036 0.929 . S
H1033 C1042 0.929 . S
C1034 H1028 0.930 . S
C1034 C1035 1.367 . S
C1034 C1042 1.378 . S
C1035 C1034 1.367 . S
C1035 C1043 1.433 . S
C1036 H1032 0.929 . S
C1036 C1038 1.378 . S
C1036 C1040 1.350 . S
C1037 C1040 1.463 . S
C1037 C1042 1.350 . S
C1037 N1045 1.427 . S
C1038 H1029 0.930 . S
C1038 C1036 1.378 . S
C1038 C1039 1.367 . S
C1039 C1038 1.367 . S
C1039 C1041 1.433 . S
C1040 C1036 1.350 . S
C1040 C1037 1.463 . S
C1040 N1044 1.427 . S
C1041 H1031 0.929 . S
C1041 C1039 1.433 . S
C1041 N1044 1.384 . S
C1042 H1033 0.929 . S
C1042 C1034 1.378 . S
C1042 C1037 1.350 . S
C1043 H1030 0.929 . S
C1043 C1035 1.433 . S
C1043 N1045 1.384 . S
N1044 C1040 1.427 . S
N1044 C1041 1.384 . S
N1045 C1037 1.427 . S
N1045 C1043 1.384 . S
H1046 C1052 0.930 . S
H1047 C1056 0.930 . S
H1048 C1061 0.929 . S
H1049 C1059 0.929 . S
H1050 C1054 0.929 . S
H1051 C1060 0.929 . S
C1052 H1046 0.930 . S
C1052 C1053 1.367 . S
C1052 C1060 1.378 . S
C1053 C1052 1.367 . S
C1053 C1061 1.433 . S
C1054 H1050 0.929 . S
C1054 C1056 1.378 . S
C1054 C1058 1.350 . S
C1055 C1058 1.463 . S
C1055 C1060 1.350 . S
C1055 N1063 1.427 . S
C1056 H1047 0.930 . S
C1056 C1054 1.378 . S
C1056 C1057 1.367 . S
C1057 C1056 1.367 . S
C1057 C1059 1.433 . S
C1058 C1054 1.350 . S
C1058 C1055 1.463 . S
C1058 N1062 1.427 . S
C1059 H1049 0.929 . S
C1059 C1057 1.433 . S
C1059 N1062 1.384 . S
C1060 H1051 0.929 . S
C1060 C1052 1.378 . S
C1060 C1055 1.350 . S
C1061 H1048 0.929 . S
C1061 C1053 1.433 . S
C1061 N1063 1.384 . S
N1062 C1058 1.427 . S
N1062 C1059 1.384 . S
N1063 C1055 1.427 . S
N1063 C1061 1.384 . S
H1064 C1070 0.930 . S
H1065 C1074 0.930 . S
H1066 C1079 0.929 . S
H1067 C1077 0.929 . S
H1068 C1072 0.929 . S
H1069 C1078 0.929 . S
C1070 H1064 0.930 . S
C1070 C1071 1.367 . S
C1070 C1078 1.378 . S
C1071 C1070 1.367 . S
C1071 C1079 1.433 . S
C1072 H1068 0.929 . S
C1072 C1074 1.378 . S
C1072 C1076 1.350 . S
C1073 C1076 1.463 1_565 S
C1073 C1078 1.350 . S
C1073 N1081 1.427 . S
C1074 H1065 0.930 . S
C1074 C1072 1.378 . S
C1074 C1075 1.367 . S
C1075 C1074 1.367 . S
C1075 C1077 1.433 . S
C1076 C1072 1.350 . S
C1076 C1073 1.463 1_545 S
C1076 N1080 1.427 . S
C1077 H1067 0.929 . S
C1077 C1075 1.433 . S
C1077 N1080 1.384 . S
C1078 H1069 0.929 . S
C1078 C1070 1.378 . S
C1078 C1073 1.350 . S
C1079 H1066 0.929 . S
C1079 C1071 1.433 . S
C1079 N1081 1.384 . S
N1080 C1076 1.427 . S
N1080 C1077 1.384 . S
N1081 C1073 1.427 . S
N1081 C1079 1.384 . S
H1082 C1088 0.930 . S
H1083 C1092 0.930 . S
H1084 C1097 0.929 . S
H1085 C1095 0.929 . S
H1086 C1090 0.929 . S
H1087 C1096 0.929 . S
C1088 H1082 0.930 . S
C1088 C1089 1.367 . S
C1088 C1096 1.378 . S
C1089 C1088 1.367 . S
C1089 C1097 1.433 . S
C1090 H1086 0.929 . S
C1090 C1092 1.378 . S
C1090 C1094 1.350 . S
C1091 C1094 1.463 1_655 S
C1091 C1096 1.350 . S
C1091 N1099 1.427 . S
C1092 H1083 0.930 . S
C1092 C1090 1.378 . S
C1092 C1093 1.367 . S
C1093 C1092 1.367 . S
C1093 C1095 1.433 . S
C1094 C1090 1.350 . S
C1094 C1091 1.463 1_455 S
C1094 N1098 1.427 . S
C1095 H1085 0.929 . S
C1095 C1093 1.433 . S
C1095 N1098 1.384 . S
C1096 H1087 0.929 . S
C1096 C1088 1.378 . S
C1096 C1091 1.350 . S
C1097 H1084 0.929 . S
C1097 C1089 1.433 . S
C1097 N1099 1.384 . S
N1098 C1094 1.427 . S
N1098 C1095 1.384 . S
N1099 C1091 1.427 . S
N1099 C1097 1.384 . S
H1100 C1106 0.930 . S
H1101 C1110 0.930 . S
H1102 C1115 0.929 . S
H1103 C1113 0.929 . S
H1104 C1108 0.929 . S
H1105 C1114 0.929 . S
C1106 H1100 0.930 . S
C1106 C1107 1.367 . S
C1106 C1114 1.378 . S
C1107 C1106 1.367 . S
C1107 C1115 1.433 . S
C1108 H1104 0.929 . S
C1108 C1110 1.378 . S
C1108 C1112 1.350 . S
C1109 C1112 1.463 1_565 S
C1109 C1114 1.350 . S
C1109 N1117 1.427 . S
C1110 H1101 0.930 . S
C1110 C1108 1.378 . S
C1110 C1111 1.367 . S
C1111 C1110 1.367 . S
C1111 C1113 1.433 . S
C1112 C1108 1.350 . S
C1112 C1109 1.463 1_545 S
C1112 N1116 1.427 . S
C1113 H1103 0.929 . S
C1113 C1111 1.433 . S
C1113 N1116 1.384 . S
C1114 H1105 0.929 . S
C1114 C1106 1.378 . S
C1114 C1109 1.350 . S
C1115 H1102 0.929 . S
C1115 C1107 1.433 . S
C1115 N1117 1.384 . S
N1116 C1112 1.427 . S
N1116 C1113 1.384 . S
N1117 C1109 1.427 . S
N1117 C1115 1.384 . S
H1118 C1124 0.930 . S
H1119 C1128 0.930 . S
H1120 C1133 0.929 . S
H1121 C1131 0.929 . S
H1122 C1126 0.929 . S
H1123 C1132 0.929 . S
C1124 H1118 0.930 . S
C1124 C1125 1.367 . S
C1124 C1132 1.378 . S
C1125 C1124 1.367 . S
C1125 C1133 1.433 . S
C1126 H1122 0.929 . S
C1126 C1128 1.378 . S
C1126 C1130 1.350 . S
C1127 C1130 1.463 1_655 S
C1127 C1132 1.350 . S
C1127 N1135 1.427 . S
C1128 H1119 0.930 . S
C1128 C1126 1.378 . S
C1128 C1129 1.367 . S
C1129 C1128 1.367 . S
C1129 C1131 1.433 . S
C1130 C1126 1.350 . S
C1130 C1127 1.463 1_455 S
C1130 N1134 1.427 . S
C1131 H1121 0.929 . S
C1131 C1129 1.433 . S
C1131 N1134 1.384 . S
C1132 H1123 0.929 . S
C1132 C1124 1.378 . S
C1132 C1127 1.350 . S
C1133 H1120 0.929 . S
C1133 C1125 1.433 . S
C1133 N1135 1.384 . S
N1134 C1130 1.427 . S
N1134 C1131 1.384 . S
N1135 C1127 1.427 . S
N1135 C1133 1.384 . S
H1136 C1142 0.930 . S
H1137 C1146 0.930 . S
H1138 C1151 0.929 . S
H1139 C1149 0.929 . S
H1140 C1144 0.929 . S
H1141 C1150 0.929 . S
C1142 H1136 0.930 . S
C1142 C1143 1.367 . S
C1142 C1150 1.378 . S
C1143 C1142 1.367 . S
C1143 C1151 1.433 . S
C1144 H1140 0.929 . S
C1144 C1146 1.378 . S
C1144 C1148 1.350 . S
C1145 C1148 1.463 . S
C1145 C1150 1.350 . S
C1145 N1153 1.427 . S
C1146 H1137 0.930 . S
C1146 C1144 1.378 . S
C1146 C1147 1.367 . S
C1147 C1146 1.367 . S
C1147 C1149 1.433 . S
C1148 C1144 1.350 . S
C1148 C1145 1.463 . S
C1148 N1152 1.427 . S
C1149 H1139 0.929 . S
C1149 C1147 1.433 . S
C1149 N1152 1.384 . S
C1150 H1141 0.929 . S
C1150 C1142 1.378 . S
C1150 C1145 1.350 . S
C1151 H1138 0.929 . S
C1151 C1143 1.433 . S
C1151 N1153 1.384 . S
N1152 C1148 1.427 . S
N1152 C1149 1.384 . S
N1153 C1145 1.427 . S
N1153 C1151 1.384 . S
H1154 C1160 0.930 . S
H1155 C1164 0.930 . S
H1156 C1169 0.929 . S
H1157 C1167 0.929 . S
H1158 C1162 0.929 . S
H1159 C1168 0.929 . S
C1160 H1154 0.930 . S
C1160 C1161 1.367 . S
C1160 C1168 1.378 . S
C1161 C1160 1.367 . S
C1161 C1169 1.433 . S
C1162 H1158 0.929 . S
C1162 C1164 1.378 . S
C1162 C1166 1.350 . S
C1163 C1166 1.463 . S
C1163 C1168 1.350 . S
C1163 N1171 1.427 . S
C1164 H1155 0.930 . S
C1164 C1162 1.378 . S
C1164 C1165 1.367 . S
C1165 C1164 1.367 . S
C1165 C1167 1.433 . S
C1166 C1162 1.350 . S
C1166 C1163 1.463 . S
C1166 N1170 1.427 . S
C1167 H1157 0.929 . S
C1167 C1165 1.433 . S
C1167 N1170 1.384 . S
C1168 H1159 0.929 . S
C1168 C1160 1.378 . S
C1168 C1163 1.350 . S
C1169 H1156 0.929 . S
C1169 C1161 1.433 . S
C1169 N1171 1.384 . S
N1170 C1166 1.427 . S
N1170 C1167 1.384 . S
N1171 C1163 1.427 . S
N1171 C1169 1.384 . S
H1172 C1178 0.930 . S
H1173 C1182 0.930 . S
H1174 C1187 0.929 . S
H1175 C1185 0.929 . S
H1176 C1180 0.929 . S
H1177 C1186 0.929 . S
C1178 H1172 0.930 . S
C1178 C1179 1.367 . S
C1178 C1186 1.378 . S
C1179 C1178 1.367 . S
C1179 C1187 1.433 . S
C1180 H1176 0.929 . S
C1180 C1182 1.378 . S
C1180 C1184 1.350 . S
C1181 C1184 1.463 . S
C1181 C1186 1.350 . S
C1181 N1189 1.427 . S
C1182 H1173 0.930 . S
C1182 C1180 1.378 . S
C1182 C1183 1.367 . S
C1183 C1182 1.367 . S
C1183 C1185 1.433 . S
C1184 C1180 1.350 . S
C1184 C1181 1.463 . S
C1184 N1188 1.427 . S
C1185 H1175 0.929 . S
C1185 C1183 1.433 . S
C1185 N1188 1.384 . S
C1186 H1177 0.929 . S
C1186 C1178 1.378 . S
C1186 C1181 1.350 . S
C1187 H1174 0.929 . S
C1187 C1179 1.433 . S
C1187 N1189 1.384 . S
N1188 C1184 1.427 . S
N1188 C1185 1.384 . S
N1189 C1181 1.427 . S
N1189 C1187 1.384 . S
H1190 C1196 0.930 . S
H1191 C1200 0.930 . S
H1192 C1205 0.929 . S
H1193 C1203 0.929 . S
H1194 C1198 0.929 . S
H1195 C1204 0.929 . S
C1196 H1190 0.930 . S
C1196 C1197 1.367 . S
C1196 C1204 1.378 . S
C1197 C1196 1.367 . S
C1197 C1205 1.433 . S
C1198 H1194 0.929 . S
C1198 C1200 1.378 . S
C1198 C1202 1.350 . S
C1199 C1202 1.463 . S
C1199 C1204 1.350 . S
C1199 N1207 1.427 . S
C1200 H1191 0.930 . S
C1200 C1198 1.378 . S
C1200 C1201 1.367 . S
C1201 C1200 1.367 . S
C1201 C1203 1.433 . S
C1202 C1198 1.350 . S
C1202 C1199 1.463 . S
C1202 N1206 1.427 . S
C1203 H1193 0.929 . S
C1203 C1201 1.433 . S
C1203 N1206 1.384 . S
C1204 H1195 0.929 . S
C1204 C1196 1.378 . S
C1204 C1199 1.350 . S
C1205 H1192 0.929 . S
C1205 C1197 1.433 . S
C1205 N1207 1.384 . S
N1206 C1202 1.427 . S
N1206 C1203 1.384 . S
N1207 C1199 1.427 . S
N1207 C1205 1.384 . S
H1208 C1214 0.930 . S
H1209 C1218 0.930 . S
H1210 C1223 0.929 . S
H1211 C1221 0.929 . S
H1212 C1216 0.929 . S
H1213 C1222 0.929 . S
C1214 H1208 0.930 . S
C1214 C1215 1.367 . S
C1214 C1222 1.378 . S
C1215 C1214 1.367 . S
C1215 C1223 1.433 . S
C1216 H1212 0.929 . S
C1216 C1218 1.378 . S
C1216 C1220 1.350 . S
C1217 C1220 1.463 . S
C1217 C1222 1.350 . S
C1217 N1225 1.427 . S
C1218 H1209 0.930 . S
C1218 C1216 1.378 . S
C1218 C1219 1.367 . S
C1219 C1218 1.367 . S
C1219 C1221 1.433 . S
C1220 C1216 1.350 . S
C1220 C1217 1.463 . S
C1220 N1224 1.427 . S
C1221 H1211 0.929 . S
C1221 C1219 1.433 . S
C1221 N1224 1.384 . S
C1222 H1213 0.929 . S
C1222 C1214 1.378 . S
C1222 C1217 1.350 . S
C1223 H1210 0.929 . S
C1223 C1215 1.433 . S
C1223 N1225 1.384 . S
N1224 C1220 1.427 . S
N1224 C1221 1.384 . S
N1225 C1217 1.427 . S
N1225 C1223 1.384 . S
H1226 C1232 0.930 . S
H1227 C1236 0.930 . S
H1228 C1241 0.929 . S
H1229 C1239 0.929 . S
H1230 C1234 0.929 . S
H1231 C1240 0.929 . S
C1232 H1226 0.930 . S
C1232 C1233 1.367 . S
C1232 C1240 1.378 . S
C1233 C1232 1.367 . S
C1233 C1241 1.433 . S
C1234 H1230 0.929 . S
C1234 C1236 1.378 . S
C1234 C1238 1.350 . S
C1235 C1238 1.463 . S
C1235 C1240 1.350 . S
C1235 N1243 1.427 . S
C1236 H1227 0.930 . S
C1236 C1234 1.378 . S
C1236 C1237 1.367 . S
C1237 C1236 1.367 . S
C1237 C1239 1.433 . S
C1238 C1234 1.350 . S
C1238 C1235 1.463 . S
C1238 N1242 1.427 . S
C1239 H1229 0.929 . S
C1239 C1237 1.433 . S
C1239 N1242 1.384 . S
C1240 H1231 0.929 . S
C1240 C1232 1.378 . S
C1240 C1235 1.350 . S
C1241 H1228 0.929 . S
C1241 C1233 1.433 . S
C1241 N1243 1.384 . S
N1242 C1238 1.427 . S
N1242 C1239 1.384 . S
N1243 C1235 1.427 . S
N1243 C1241 1.384 . S
H1244 C1250 0.930 . S
H1245 C1254 0.930 . S
H1246 C1259 0.929 . S
H1247 C1257 0.929 . S
H1248 C1252 0.929 . S
H1249 C1258 0.929 . S
C1250 H1244 0.930 . S
C1250 C1251 1.367 . S
C1250 C1258 1.378 . S
C1251 C1250 1.367 . S
C1251 C1259 1.433 . S
C1252 H1248 0.929 . S
C1252 C1254 1.378 . S
C1252 C1256 1.350 . S
C1253 C1256 1.463 . S
C1253 C1258 1.350 . S
C1253 N1261 1.427 . S
C1254 H1245 0.930 . S
C1254 C1252 1.378 . S
C1254 C1255 1.367 . S
C1255 C1254 1.367 . S
C1255 C1257 1.433 . S
C1256 C1252 1.350 . S
C1256 C1253 1.463 . S
C1256 N1260 1.427 . S
C1257 H1247 0.929 . S
C1257 C1255 1.433 . S
C1257 N1260 1.384 . S
C1258 H1249 0.929 . S
C1258 C1250 1.378 . S
C1258 C1253 1.350 . S
C1259 H1246 0.929 . S
C1259 C1251 1.433 . S
C1259 N1261 1.384 . S
N1260 C1256 1.427 . S
N1260 C1257 1.384 . S
N1261 C1253 1.427 . S
N1261 C1259 1.384 . S
H1262 C1268 0.930 . S
H1263 C1272 0.930 . S
H1264 C1277 0.929 . S
H1265 C1275 0.929 . S
H1266 C1270 0.929 . S
H1267 C1276 0.929 . S
C1268 H1262 0.930 . S
C1268 C1269 1.367 . S
C1268 C1276 1.378 . S
C1269 C1268 1.367 . S
C1269 C1277 1.433 . S
C1270 H1266 0.929 . S
C1270 C1272 1.378 . S
C1270 C1274 1.350 . S
C1271 C1274 1.463 . S
C1271 C1276 1.350 . S
C1271 N1279 1.427 . S
C1272 H1263 0.930 . S
C1272 C1270 1.378 . S
C1272 C1273 1.367 . S
C1273 C1272 1.367 . S
C1273 C1275 1.433 . S
C1274 C1270 1.350 . S
C1274 C1271 1.463 . S
C1274 N1278 1.427 . S
C1275 H1265 0.929 . S
C1275 C1273 1.433 . S
C1275 N1278 1.384 . S
C1276 H1267 0.929 . S
C1276 C1268 1.378 . S
C1276 C1271 1.350 . S
C1277 H1264 0.929 . S
C1277 C1269 1.433 . S
C1277 N1279 1.384 . S
N1278 C1274 1.427 . S
N1278 C1275 1.384 . S
N1279 C1271 1.427 . S
N1279 C1277 1.384 . S
H1280 C1286 0.930 . S
H1281 C1290 0.930 . S
H1282 C1295 0.929 . S
H1283 C1293 0.929 1_554 S
H1284 C1288 0.929 . S
H1285 C1294 0.929 . S
C1286 H1280 0.930 . S
C1286 C1287 1.367 . S
C1286 C1294 1.378 . S
C1287 C1286 1.367 . S
C1287 C1295 1.433 . S
C1288 H1284 0.929 . S
C1288 C1290 1.378 . S
C1288 C1292 1.350 . S
C1289 C1292 1.463 . S
C1289 C1294 1.350 . S
C1289 N1297 1.427 . S
C1290 H1281 0.930 . S
C1290 C1288 1.378 . S
C1290 C1291 1.367 . S
C1291 C1290 1.367 . S
C1291 C1293 1.433 . S
C1292 C1288 1.350 . S
C1292 C1289 1.463 . S
C1292 N1296 1.427 . S
C1293 H1283 0.929 1_556 S
C1293 C1291 1.433 . S
C1293 N1296 1.384 . S
C1294 H1285 0.929 . S
C1294 C1286 1.378 . S
C1294 C1289 1.350 . S
C1295 H1282 0.929 . S
C1295 C1287 1.433 . S
C1295 N1297 1.384 . S
N1296 C1292 1.427 . S
N1296 C1293 1.384 . S
N1297 C1289 1.427 . S
N1297 C1295 1.384 . S
H1298 C1304 0.930 . S
H1299 C1308 0.930 1_556 S
H1300 C1313 0.929 . S
H1301 C1311 0.929 . S
H1302 C1306 0.929 . S
H1303 C1312 0.929 . S
C1304 H1298 0.930 . S
C1304 C1305 1.367 . S
C1304 C1312 1.378 . S
C1305 C1304 1.367 . S
C1305 C1313 1.433 . S
C1306 H1302 0.929 . S
C1306 C1308 1.378 . S
C1306 C1310 1.350 . S
C1307 C1310 1.463 . S
C1307 C1312 1.350 . S
C1307 N1315 1.427 . S
C1308 H1299 0.930 1_554 S
C1308 C1306 1.378 . S
C1308 C1309 1.367 . S
C1309 C1308 1.367 . S
C1309 C1311 1.433 . S
C1310 C1306 1.350 . S
C1310 C1307 1.463 . S
C1310 N1314 1.427 . S
C1311 H1301 0.929 . S
C1311 C1309 1.433 . S
C1311 N1314 1.384 . S
C1312 H1303 0.929 . S
C1312 C1304 1.378 . S
C1312 C1307 1.350 . S
C1313 H1300 0.929 . S
C1313 C1305 1.433 . S
C1313 N1315 1.384 . S
N1314 C1310 1.427 . S
N1314 C1311 1.384 . S
N1315 C1307 1.427 . S
N1315 C1313 1.384 . S
H1316 C1322 0.930 1_554 S
H1317 C1326 0.930 . S
H1318 C1331 0.929 . S
H1319 C1329 0.929 . S
H1320 C1324 0.929 . S
H1321 C1330 0.929 . S
C1322 H1316 0.930 1_556 S
C1322 C1323 1.367 . S
C1322 C1330 1.378 . S
C1323 C1322 1.367 . S
C1323 C1331 1.433 . S
C1324 H1320 0.929 . S
C1324 C1326 1.378 . S
C1324 C1328 1.350 . S
C1325 C1328 1.463 . S
C1325 C1330 1.350 . S
C1325 N1333 1.427 . S
C1326 H1317 0.930 . S
C1326 C1324 1.378 . S
C1326 C1327 1.367 . S
C1327 C1326 1.367 . S
C1327 C1329 1.433 . S
C1328 C1324 1.350 . S
C1328 C1325 1.463 . S
C1328 N1332 1.427 . S
C1329 H1319 0.929 . S
C1329 C1327 1.433 . S
C1329 N1332 1.384 . S
C1330 H1321 0.929 . S
C1330 C1322 1.378 . S
C1330 C1325 1.350 . S
C1331 H1318 0.929 . S
C1331 C1323 1.433 . S
C1331 N1333 1.384 . S
N1332 C1328 1.427 . S
N1332 C1329 1.384 . S
N1333 C1325 1.427 . S
N1333 C1331 1.384 . S
H1334 C1340 0.930 . S
H1335 C1344 0.930 . S
H1336 C1349 0.929 . S
H1337 C1347 0.933 . S
H1338 C1342 0.929 . S
H1339 C1348 0.929 . S
C1340 H1334 0.930 . S
C1340 C1341 1.367 . S
C1340 C1348 1.378 . S
C1341 C1340 1.367 . S
C1341 C1349 1.433 . S
C1342 H1338 0.929 . S
C1342 C1344 1.378 . S
C1342 C1346 1.350 . S
C1343 C1346 1.463 . S
C1343 C1348 1.350 . S
C1343 N1351 1.427 . S
C1344 H1335 0.930 . S
C1344 C1342 1.378 . S
C1344 C1345 1.367 . S
C1345 C1344 1.367 . S
C1345 C1347 1.433 . S
C1346 C1342 1.350 . S
C1346 C1343 1.463 . S
C1346 N1350 1.427 . S
C1347 H1337 0.933 . S
C1347 C1345 1.433 . S
C1347 N1350 1.384 . S
C1348 H1339 0.929 . S
C1348 C1340 1.378 . S
C1348 C1343 1.350 . S
C1349 H1336 0.929 . S
C1349 C1341 1.433 . S
C1349 N1351 1.384 . S
N1350 C1346 1.427 . S
N1350 C1347 1.384 . S
N1351 C1343 1.427 . S
N1351 C1349 1.384 . S
H1352 C1358 0.930 . S
H1353 C1362 0.930 . S
H1354 C1367 0.929 . S
H1355 C1365 0.929 . S
H1356 C1360 0.929 . S
H1357 C1366 0.929 . S
C1358 H1352 0.930 . S
C1358 C1359 1.367 . S
C1358 C1366 1.378 . S
C1359 C1358 1.367 . S
C1359 C1367 1.433 . S
C1360 H1356 0.929 . S
C1360 C1362 1.378 . S
C1360 C1364 1.350 . S
C1361 C1364 1.463 . S
C1361 C1366 1.350 . S
C1361 N1369 1.427 . S
C1362 H1353 0.930 . S
C1362 C1360 1.378 . S
C1362 C1363 1.367 . S
C1363 C1362 1.367 . S
C1363 C1365 1.433 . S
C1364 C1360 1.350 . S
C1364 C1361 1.463 . S
C1364 N1368 1.427 . S
C1365 H1355 0.929 . S
C1365 C1363 1.433 . S
C1365 N1368 1.384 . S
C1366 H1357 0.929 . S
C1366 C1358 1.378 . S
C1366 C1361 1.350 . S
C1367 H1354 0.929 . S
C1367 C1359 1.433 . S
C1367 N1369 1.384 . S
N1368 C1364 1.427 . S
N1368 C1365 1.384 . S
N1369 C1361 1.427 . S
N1369 C1367 1.384 . S
H1370 C1376 0.930 . S
H1371 C1380 0.930 . S
H1372 C1385 0.929 . S
H1373 C1383 0.929 . S
H1374 C1378 0.929 . S
H1375 C1384 0.929 . S
C1376 H1370 0.930 . S
C1376 C1377 1.367 . S
C1376 C1384 1.378 . S
C1377 C1376 1.367 . S
C1377 C1385 1.433 . S
C1378 H1374 0.929 . S
C1378 C1380 1.378 . S
C1378 C1382 1.350 . S
C1379 C1382 1.463 . S
C1379 C1384 1.350 . S
C1379 N1387 1.427 . S
C1380 H1371 0.930 . S
C1380 C1378 1.378 . S
C1380 C1381 1.367 . S
C1381 C1380 1.367 . S
C1381 C1383 1.433 . S
C1382 C1378 1.350 . S
C1382 C1379 1.463 . S
C1382 N1386 1.427 . S
C1383 H1373 0.929 . S
C1383 C1381 1.433 . S
C1383 N1386 1.384 . S
C1384 H1375 0.929 . S
C1384 C1376 1.378 . S
C1384 C1379 1.350 . S
C1385 H1372 0.929 . S
C1385 C1377 1.433 . S
C1385 N1387 1.384 . S
N1386 C1382 1.427 . S
N1386 C1383 1.384 . S
N1387 C1379 1.427 . S
N1387 C1385 1.384 . S
H1388 C1394 0.930 . S
H1389 C1398 0.930 . S
H1390 C1403 0.929 . S
H1391 C1401 0.929 . S
H1392 C1396 0.929 . S
H1393 C1402 0.929 . S
C1394 H1388 0.930 . S
C1394 C1395 1.367 . S
C1394 C1402 1.378 . S
C1395 C1394 1.367 . S
C1395 C1403 1.433 . S
C1396 H1392 0.929 . S
C1396 C1398 1.378 . S
C1396 C1400 1.350 . S
C1397 C1400 1.463 . S
C1397 C1402 1.350 . S
C1397 N1405 1.427 . S
C1398 H1389 0.930 . S
C1398 C1396 1.378 . S
C1398 C1399 1.367 . S
C1399 C1398 1.367 . S
C1399 C1401 1.433 . S
C1400 C1396 1.350 . S
C1400 C1397 1.463 . S
C1400 N1404 1.427 . S
C1401 H1391 0.929 . S
C1401 C1399 1.433 . S
C1401 N1404 1.384 . S
C1402 H1393 0.929 . S
C1402 C1394 1.378 . S
C1402 C1397 1.350 . S
C1403 H1390 0.929 . S
C1403 C1395 1.433 . S
C1403 N1405 1.384 . S
N1404 C1400 1.427 . S
N1404 C1401 1.384 . S
N1405 C1397 1.427 . S
N1405 C1403 1.384 . S
H1406 C1412 0.930 . S
H1407 C1416 0.930 . S
H1408 C1421 0.929 . S
H1409 C1419 0.929 . S
H1410 C1414 0.929 . S
H1411 C1420 0.929 . S
C1412 H1406 0.930 . S
C1412 C1413 1.367 . S
C1412 C1420 1.378 . S
C1413 C1412 1.367 . S
C1413 C1421 1.433 . S
C1414 H1410 0.929 . S
C1414 C1416 1.378 . S
C1414 C1418 1.350 . S
C1415 C1418 1.463 . S
C1415 C1420 1.350 . S
C1415 N1423 1.427 . S
C1416 H1407 0.930 . S
C1416 C1414 1.378 . S
C1416 C1417 1.367 . S
C1417 C1416 1.367 . S
C1417 C1419 1.433 . S
C1418 C1414 1.350 . S
C1418 C1415 1.463 . S
C1418 N1422 1.427 . S
C1419 H1409 0.929 . S
C1419 C1417 1.433 . S
C1419 N1422 1.384 . S
C1420 H1411 0.929 . S
C1420 C1412 1.378 . S
C1420 C1415 1.350 . S
C1421 H1408 0.929 . S
C1421 C1413 1.433 . S
C1421 N1423 1.384 . S
N1422 C1418 1.427 . S
N1422 C1419 1.384 . S
N1423 C1415 1.427 . S
N1423 C1421 1.384 . S
C855 C612 1.710 . S
C859 C38 1.743 . S
C873 C91 1.744 . S
C877 C453 1.713 . S
C891 C144 1.744 . S
C895 C506 1.708 . S
C909 C559 1.706 . S
C913 C197 1.745 . S
C927 C250 1.744 . S
C931 C294 1.717 1_554 S
C945 C303 1.745 . S
C949 C347 1.711 1_556 S
C963 C400 1.709 1_554 S
C967 C356 1.744 . S
C981 C241 1.711 1_556 S
C985 C409 1.743 . S
C999 C188 1.711 . S
C1003 C462 1.743 . S
C1017 C515 1.745 . S
C1021 C29 1.706 . S
C1035 C82 1.712 . S
C1039 C568 1.743 . S
C1053 C621 1.744 . S
C1057 C135 1.703 . S
C1071 C674 1.744 . S
C1075 C718 1.718 . S
C1089 C727 1.743 . S
C1093 C771 1.708 . S
C1107 C824 1.717 . S
C1111 C780 1.745 . S
C1125 C665 1.708 . S
C1129 C833 1.743 . S
C1143 C251 1.416 . S
C1147 C39 1.417 . S
C1161 C92 1.418 . S
C1165 C304 1.414 . S
C1179 C145 1.417 . S
C1183 C357 1.422 . S
C1197 C410 1.413 . S
C1201 C198 1.417 . S
C1215 C463 1.427 . S
C1219 C675 1.424 . S
C1233 C728 1.412 . S
C1237 C516 1.415 . S
C1251 C569 1.417 . S
C1255 C781 1.416 . S
C1269 C834 1.423 . S
C1273 C622 1.421 . S
C1287 C764 2.128 . S
C1291 C22 2.126 1_556 S
C1305 C817 2.126 . S
C1309 C75 2.126 1_554 S
C1323 C128 2.132 1_556 S
C1327 C658 2.134 . S
C1341 C711 2.120 . S
C1345 C181 2.118 1_554 S
C1359 C552 2.126 . S
C1363 C234 2.128 . S
C1377 C605 2.120 . S
C1381 C287 2.123 . S
C1395 C340 2.133 . S
C1399 C446 2.134 . S
C1413 C499 2.125 . S
C1417 C393 2.126 . S
