# Generated by pormake.
# Topology ukc, (4)-cn, num edge types: 1
# Building blocks:
#     Node 0, Type 0, BuildingBlock: QUQFOY_clean_sbu_1, # of connection points: 4
#     Node 1, Type 0, BuildingBlock: QUQFOY_clean_sbu_1, # of connection points: 4
#     Node 2, Type 0, BuildingBlock: QUQFOY_clean_sbu_1, # of connection points: 4
#     Node 3, Type 0, BuildingBlock: QUQFOY_clean_sbu_1, # of connection points: 4
#     Node 4, Type 0, BuildingBlock: QUQFOY_clean_sbu_1, # of connection points: 4
#     Node 5, Type 0, BuildingBlock: QUQFOY_clean_sbu_1, # of connection points: 4
#     Node 6, Type 0, BuildingBlock: QUQFOY_clean_sbu_1, # of connection points: 4
#     Node 7, Type 0, BuildingBlock: QUQFOY_clean_sbu_1, # of connection points: 4
#     Node 8, Type 0, BuildingBlock: QUQFOY_clean_sbu_1, # of connection points: 4
#     Node 9, Type 0, BuildingBlock: QUQFOY_clean_sbu_1, # of connection points: 4
#     Node 10, Type 0, BuildingBlock: QUQFOY_clean_sbu_1, # of connection points: 4
#     Node 11, Type 0, BuildingBlock: QUQFOY_clean_sbu_1, # of connection points: 4
#     Node 12, Type 0, BuildingBlock: QUQFOY_clean_sbu_1, # of connection points: 4
#     Node 13, Type 0, BuildingBlock: QUQFOY_clean_sbu_1, # of connection points: 4
#     Node 14, Type 0, BuildingBlock: QUQFOY_clean_sbu_1, # of connection points: 4
#     Node 15, Type 0, BuildingBlock: QUQFOY_clean_sbu_1, # of connection points: 4
#     Node 16, Type 0, BuildingBlock: QUQFOY_clean_sbu_1, # of connection points: 4
#     Node 17, Type 0, BuildingBlock: QUQFOY_clean_sbu_1, # of connection points: 4
#     Node 18, Type 0, BuildingBlock: QUQFOY_clean_sbu_1, # of connection points: 4
#     Node 19, Type 0, BuildingBlock: QUQFOY_clean_sbu_1, # of connection points: 4
#     Node 20, Type 0, BuildingBlock: QUQFOY_clean_sbu_1, # of connection points: 4
#     Node 21, Type 0, BuildingBlock: QUQFOY_clean_sbu_1, # of connection points: 4
#     Node 22, Type 0, BuildingBlock: QUQFOY_clean_sbu_1, # of connection points: 4
#     Node 23, Type 0, BuildingBlock: QUQFOY_clean_sbu_1, # of connection points: 4
#     Node 24, Type 0, BuildingBlock: QUQFOY_clean_sbu_1, # of connection points: 4
#     Node 25, Type 0, BuildingBlock: QUQFOY_clean_sbu_1, # of connection points: 4
#     Node 26, Type 0, BuildingBlock: QUQFOY_clean_sbu_1, # of connection points: 4
#     Node 27, Type 0, BuildingBlock: QUQFOY_clean_sbu_1, # of connection points: 4
#     Node 28, Type 0, BuildingBlock: QUQFOY_clean_sbu_1, # of connection points: 4
#     Node 29, Type 0, BuildingBlock: QUQFOY_clean_sbu_1, # of connection points: 4
#     Node 30, Type 0, BuildingBlock: QUQFOY_clean_sbu_1, # of connection points: 4
#     Node 31, Type 0, BuildingBlock: QUQFOY_clean_sbu_1, # of connection points: 4
#     Edge 32, Type (0, 0), BuildingBlock: AJUNOK_clean_linker_0, # of connection points: 2
#     Edge 33, Type (0, 0), BuildingBlock: AJUNOK_clean_linker_0, # of connection points: 2
#     Edge 34, Type (0, 0), BuildingBlock: AJUNOK_clean_linker_0, # of connection points: 2
#     Edge 35, Type (0, 0), BuildingBlock: AJUNOK_clean_linker_0, # of connection points: 2
#     Edge 36, Type (0, 0), BuildingBlock: AJUNOK_clean_linker_0, # of connection points: 2
#     Edge 37, Type (0, 0), BuildingBlock: AJUNOK_clean_linker_0, # of connection points: 2
#     Edge 38, Type (0, 0), BuildingBlock: AJUNOK_clean_linker_0, # of connection points: 2
#     Edge 39, Type (0, 0), BuildingBlock: AJUNOK_clean_linker_0, # of connection points: 2
#     Edge 40, Type (0, 0), BuildingBlock: AJUNOK_clean_linker_0, # of connection points: 2
#     Edge 41, Type (0, 0), BuildingBlock: AJUNOK_clean_linker_0, # of connection points: 2
#     Edge 42, Type (0, 0), BuildingBlock: AJUNOK_clean_linker_0, # of connection points: 2
#     Edge 43, Type (0, 0), BuildingBlock: AJUNOK_clean_linker_0, # of connection points: 2
#     Edge 44, Type (0, 0), BuildingBlock: AJUNOK_clean_linker_0, # of connection points: 2
#     Edge 45, Type (0, 0), BuildingBlock: AJUNOK_clean_linker_0, # of connection points: 2
#     Edge 46, Type (0, 0), BuildingBlock: AJUNOK_clean_linker_0, # of connection points: 2
#     Edge 47, Type (0, 0), BuildingBlock: AJUNOK_clean_linker_0, # of connection points: 2
#     Edge 48, Type (0, 0), BuildingBlock: AJUNOK_clean_linker_0, # of connection points: 2
#     Edge 49, Type (0, 0), BuildingBlock: AJUNOK_clean_linker_0, # of connection points: 2
#     Edge 50, Type (0, 0), BuildingBlock: AJUNOK_clean_linker_0, # of connection points: 2
#     Edge 51, Type (0, 0), BuildingBlock: AJUNOK_clean_linker_0, # of connection points: 2
#     Edge 52, Type (0, 0), BuildingBlock: AJUNOK_clean_linker_0, # of connection points: 2
#     Edge 53, Type (0, 0), BuildingBlock: AJUNOK_clean_linker_0, # of connection points: 2
#     Edge 54, Type (0, 0), BuildingBlock: AJUNOK_clean_linker_0, # of connection points: 2
#     Edge 55, Type (0, 0), BuildingBlock: AJUNOK_clean_linker_0, # of connection points: 2
#     Edge 56, Type (0, 0), BuildingBlock: AJUNOK_clean_linker_0, # of connection points: 2
#     Edge 57, Type (0, 0), BuildingBlock: AJUNOK_clean_linker_0, # of connection points: 2
#     Edge 58, Type (0, 0), BuildingBlock: AJUNOK_clean_linker_0, # of connection points: 2
#     Edge 59, Type (0, 0), BuildingBlock: AJUNOK_clean_linker_0, # of connection points: 2
#     Edge 60, Type (0, 0), BuildingBlock: AJUNOK_clean_linker_0, # of connection points: 2
#     Edge 61, Type (0, 0), BuildingBlock: AJUNOK_clean_linker_0, # of connection points: 2
#     Edge 62, Type (0, 0), BuildingBlock: AJUNOK_clean_linker_0, # of connection points: 2
#     Edge 63, Type (0, 0), BuildingBlock: AJUNOK_clean_linker_0, # of connection points: 2
#     Edge 64, Type (0, 0), BuildingBlock: AJUNOK_clean_linker_0, # of connection points: 2
#     Edge 65, Type (0, 0), BuildingBlock: AJUNOK_clean_linker_0, # of connection points: 2
#     Edge 66, Type (0, 0), BuildingBlock: AJUNOK_clean_linker_0, # of connection points: 2
#     Edge 67, Type (0, 0), BuildingBlock: AJUNOK_clean_linker_0, # of connection points: 2
#     Edge 68, Type (0, 0), BuildingBlock: AJUNOK_clean_linker_0, # of connection points: 2
#     Edge 69, Type (0, 0), BuildingBlock: AJUNOK_clean_linker_0, # of connection points: 2
#     Edge 70, Type (0, 0), BuildingBlock: AJUNOK_clean_linker_0, # of connection points: 2
#     Edge 71, Type (0, 0), BuildingBlock: AJUNOK_clean_linker_0, # of connection points: 2
#     Edge 72, Type (0, 0), BuildingBlock: AJUNOK_clean_linker_0, # of connection points: 2
#     Edge 73, Type (0, 0), BuildingBlock: AJUNOK_clean_linker_0, # of connection points: 2
#     Edge 74, Type (0, 0), BuildingBlock: AJUNOK_clean_linker_0, # of connection points: 2
#     Edge 75, Type (0, 0), BuildingBlock: AJUNOK_clean_linker_0, # of connection points: 2
#     Edge 76, Type (0, 0), BuildingBlock: AJUNOK_clean_linker_0, # of connection points: 2
#     Edge 77, Type (0, 0), BuildingBlock: AJUNOK_clean_linker_0, # of connection points: 2
#     Edge 78, Type (0, 0), BuildingBlock: AJUNOK_clean_linker_0, # of connection points: 2
#     Edge 79, Type (0, 0), BuildingBlock: AJUNOK_clean_linker_0, # of connection points: 2
#     Edge 80, Type (0, 0), BuildingBlock: AJUNOK_clean_linker_0, # of connection points: 2
#     Edge 81, Type (0, 0), BuildingBlock: AJUNOK_clean_linker_0, # of connection points: 2
#     Edge 82, Type (0, 0), BuildingBlock: AJUNOK_clean_linker_0, # of connection points: 2
#     Edge 83, Type (0, 0), BuildingBlock: AJUNOK_clean_linker_0, # of connection points: 2
#     Edge 84, Type (0, 0), BuildingBlock: AJUNOK_clean_linker_0, # of connection points: 2
#     Edge 85, Type (0, 0), BuildingBlock: AJUNOK_clean_linker_0, # of connection points: 2
#     Edge 86, Type (0, 0), BuildingBlock: AJUNOK_clean_linker_0, # of connection points: 2
#     Edge 87, Type (0, 0), BuildingBlock: AJUNOK_clean_linker_0, # of connection points: 2
#     Edge 88, Type (0, 0), BuildingBlock: AJUNOK_clean_linker_0, # of connection points: 2
#     Edge 89, Type (0, 0), BuildingBlock: AJUNOK_clean_linker_0, # of connection points: 2
#     Edge 90, Type (0, 0), BuildingBlock: AJUNOK_clean_linker_0, # of connection points: 2
#     Edge 91, Type (0, 0), BuildingBlock: AJUNOK_clean_linker_0, # of connection points: 2
#     Edge 92, Type (0, 0), BuildingBlock: AJUNOK_clean_linker_0, # of connection points: 2
#     Edge 93, Type (0, 0), BuildingBlock: AJUNOK_clean_linker_0, # of connection points: 2
#     Edge 94, Type (0, 0), BuildingBlock: AJUNOK_clean_linker_0, # of connection points: 2
#     Edge 95, Type (0, 0), BuildingBlock: AJUNOK_clean_linker_0, # of connection points: 2
# Relax obj value: 0.077
# Max RMSD: 0.149
# Mean RMSD: 0.149
data_MOF--net-ukc--node1-QUQFOY_clean_sbu_1--edge1-AJUNOK_clean_linker_0
_symmetry_space_group_name_H-M    P1
_symmetry_Int_Tables_number       1
_symmetry_cell_setting            triclinic
loop_
_symmetry_equiv_pos_as_xyz
'x, y, z'
_cell_length_a     36.936656
_cell_length_b     36.93738
_cell_length_c     62.099817
_cell_angle_alpha  89.986665
_cell_angle_beta   89.972888
_cell_angle_gamma 90.009487
loop_
_atom_site_label
_atom_site_type_symbol
_atom_site_fract_x
_atom_site_fract_y
_atom_site_fract_z
_atom_type_partial_charge
O0 O 0.13014 0.36092 0.0687 0.0
Cd1 Cd 0.12824 0.35412 0.03592 0.0
Cd2 Cd 0.06456 0.39669 0.04309 0.0
O3 O 0.08529 0.39923 0.07409 0.0
O4 O 0.17412 0.32689 0.0314 0.0
O5 O 0.16482 0.38087 0.01743 0.0
C6 C 0.18622 0.35367 0.02032 0.0
C7 C 0.03888 0.4479 0.02667 0.0
C8 C 0.11171 0.38069 0.0813 0.0
C9 C 0.05604 0.32013 0.02606 0.0
O10 O 0.0414 0.34842 0.0338 0.0
O11 O 0.09025 0.31809 0.02423 0.0
O12 O 0.02292 0.43126 0.04224 0.0
O13 O 0.07044 0.43624 0.02093 0.0
O14 O 0.90558 0.8787 0.31834 0.0
Cd15 Cd 0.91165 0.87669 0.2855 0.0
Cd16 Cd 0.86781 0.81556 0.29148 0.0
O17 O 0.86493 0.8356 0.32265 0.0
O18 O 0.93662 0.92332 0.2794 0.0
O19 O 0.88186 0.9109 0.26725 0.0
C20 C 0.9083 0.93359 0.26901 0.0
C21 C 0.81628 0.79334 0.27381 0.0
C22 C 0.88449 0.86075 0.33046 0.0
C23 C 0.94421 0.8045 0.2751 0.0
O24 O 0.91535 0.79059 0.28255 0.0
O25 O 0.94745 0.83867 0.27366 0.0
O26 O 0.83117 0.77585 0.28943 0.0
O27 O 0.82987 0.82446 0.26878 0.0
O28 O 0.38563 0.65505 0.56837 0.0
Cd29 Cd 0.38785 0.66124 0.53552 0.0
Cd30 Cd 0.44966 0.61852 0.54175 0.0
O31 O 0.42933 0.61512 0.57283 0.0
O32 O 0.34137 0.68658 0.5296 0.0
O33 O 0.35338 0.63196 0.51713 0.0
C34 C 0.33091 0.65853 0.51902 0.0
C35 C 0.47197 0.56728 0.52382 0.0
C36 C 0.40377 0.63425 0.58055 0.0
C37 C 0.45982 0.69508 0.52559 0.0
O38 O 0.47419 0.6665 0.53313 0.0
O39 O 0.42563 0.69736 0.52378 0.0
O40 O 0.48945 0.58202 0.53949 0.0
O41 O 0.44085 0.58092 0.51885 0.0
O42 O 0.61 0.13489 0.8187 0.0
Cd43 Cd 0.60386 0.13695 0.78584 0.0
Cd44 Cd 0.64676 0.19881 0.79202 0.0
O45 O 0.65 0.17857 0.8231 0.0
O46 O 0.5785 0.09045 0.77996 0.0
O47 O 0.63318 0.10239 0.76752 0.0
C48 C 0.60659 0.07993 0.76942 0.0
C49 C 0.69816 0.22125 0.77428 0.0
C50 C 0.63082 0.15306 0.83085 0.0
C51 C 0.57023 0.20897 0.77578 0.0
O52 O 0.59884 0.22331 0.78329 0.0
O53 O 0.56786 0.17477 0.77403 0.0
O54 O 0.68319 0.2387 0.7899 0.0
O55 O 0.68464 0.19011 0.76924 0.0
O56 O 0.13018 0.65796 0.43513 0.0
Cd57 Cd 0.12776 0.66352 0.46799 0.0
Cd58 Cd 0.06741 0.61908 0.46175 0.0
O59 O 0.0879 0.61651 0.43067 0.0
O60 O 0.17423 0.68842 0.47451 0.0
O61 O 0.16167 0.63337 0.48619 0.0
C62 C 0.18436 0.65987 0.48474 0.0
C63 C 0.04537 0.56732 0.47928 0.0
C64 C 0.11276 0.63657 0.42295 0.0
C65 C 0.05523 0.69522 0.47825 0.0
O66 O 0.04177 0.66629 0.47064 0.0
O67 O 0.08934 0.69884 0.47986 0.0
O68 O 0.02802 0.58208 0.46356 0.0
O69 O 0.0763 0.58115 0.48447 0.0
O70 O 0.60724 0.87912 0.68562 0.0
Cd71 Cd 0.60159 0.87662 0.71849 0.0
Cd72 Cd 0.64454 0.81531 0.71202 0.0
O73 O 0.6477 0.83594 0.68101 0.0
O74 O 0.57681 0.92322 0.7249 0.0
O75 O 0.63168 0.91054 0.73677 0.0
C76 C 0.60527 0.9333 0.73522 0.0
C77 C 0.69598 0.793 0.72972 0.0
C78 C 0.62823 0.86131 0.67338 0.0
C79 C 0.56816 0.80453 0.72835 0.0
O80 O 0.59675 0.79042 0.72066 0.0
O81 O 0.56568 0.83868 0.73031 0.0
O82 O 0.6812 0.77564 0.71401 0.0
O83 O 0.68225 0.824 0.73486 0.0
O84 O 0.3853 0.35754 0.93598 0.0
Cd85 Cd 0.38929 0.35233 0.96884 0.0
Cd86 Cd 0.45149 0.39474 0.96047 0.0
O87 O 0.42923 0.39661 0.92983 0.0
O88 O 0.34395 0.32562 0.97573 0.0
O89 O 0.35455 0.38097 0.98752 0.0
C90 C 0.33312 0.35343 0.98638 0.0
C91 C 0.47638 0.44652 0.97659 0.0
C92 C 0.40292 0.37748 0.92304 0.0
C93 C 0.46207 0.319 0.97782 0.0
O94 O 0.47614 0.34709 0.96949 0.0
O95 O 0.42799 0.31693 0.98034 0.0
O96 O 0.49217 0.43041 0.96076 0.0
O97 O 0.44536 0.43401 0.98273 0.0
O98 O 0.90583 0.13418 0.18543 0.0
Cd99 Cd 0.91067 0.13718 0.21832 0.0
Cd100 Cd 0.86826 0.19869 0.21065 0.0
O101 O 0.86617 0.1777 0.1797 0.0
O102 O 0.93609 0.09095 0.22482 0.0
O103 O 0.88092 0.10274 0.2365 0.0
C104 C 0.90769 0.0804 0.23503 0.0
C105 C 0.81649 0.22094 0.22803 0.0
C106 C 0.88568 0.15186 0.17265 0.0
C107 C 0.94403 0.20945 0.22788 0.0
O108 O 0.91583 0.2235 0.21968 0.0
O109 O 0.94626 0.17535 0.23022 0.0
O110 O 0.83146 0.23827 0.21235 0.0
O111 O 0.83015 0.18995 0.23326 0.0
O112 O 0.88423 0.65412 0.93457 0.0
Cd113 Cd 0.88601 0.66014 0.96743 0.0
Cd114 Cd 0.94792 0.61747 0.96133 0.0
O115 O 0.92813 0.61438 0.93014 0.0
O116 O 0.83941 0.68535 0.97324 0.0
O117 O 0.85143 0.63071 0.9857 0.0
C118 C 0.82892 0.65726 0.98378 0.0
C119 C 0.97026 0.56614 0.97917 0.0
C120 C 0.90263 0.63354 0.92238 0.0
C121 C 0.95782 0.69397 0.97764 0.0
O122 O 0.97227 0.66538 0.97018 0.0
O123 O 0.92362 0.6963 0.97931 0.0
O124 O 0.98784 0.58112 0.9636 0.0
O125 O 0.93901 0.57957 0.98407 0.0
O126 O 0.10583 0.13497 0.68605 0.0
Cd127 Cd 0.1012 0.13865 0.71892 0.0
Cd128 Cd 0.1455 0.19848 0.71105 0.0
O129 O 0.14735 0.17668 0.68026 0.0
O130 O 0.07573 0.0927 0.72605 0.0
O131 O 0.13127 0.10457 0.73709 0.0
C132 C 0.10443 0.08225 0.73601 0.0
C133 C 0.19757 0.21999 0.72841 0.0
C134 C 0.12689 0.15154 0.67326 0.0
C135 C 0.07007 0.21183 0.72826 0.0
O136 O 0.09863 0.2248 0.71986 0.0
O137 O 0.06657 0.17783 0.7307 0.0
O138 O 0.1832 0.23723 0.71252 0.0
O139 O 0.18318 0.18941 0.73384 0.0
O140 O 0.63123 0.36065 0.43489 0.0
Cd141 Cd 0.62856 0.35421 0.46768 0.0
Cd142 Cd 0.5655 0.3971 0.46019 0.0
O143 O 0.5868 0.39938 0.4293 0.0
O144 O 0.674 0.32663 0.47294 0.0
O145 O 0.66474 0.3811 0.48632 0.0
C146 C 0.68586 0.35355 0.48398 0.0
C147 C 0.54017 0.44859 0.47648 0.0
C148 C 0.61311 0.38056 0.4222 0.0
C149 C 0.55601 0.3207 0.47713 0.0
O150 O 0.54166 0.34906 0.46929 0.0
O151 O 0.59016 0.31851 0.47919 0.0
O152 O 0.52428 0.43217 0.46082 0.0
O153 O 0.57149 0.43653 0.48239 0.0
O154 O 0.40569 0.88058 0.18547 0.0
Cd155 Cd 0.41161 0.87743 0.2183 0.0
Cd156 Cd 0.36873 0.81573 0.21076 0.0
O157 O 0.36623 0.83685 0.17984 0.0
O158 O 0.43884 0.92288 0.22409 0.0
O159 O 0.38408 0.91309 0.23694 0.0
C160 C 0.41158 0.93441 0.23497 0.0
C161 C 0.31707 0.79408 0.22852 0.0
C162 C 0.38547 0.86287 0.17276 0.0
C163 C 0.44468 0.80466 0.22754 0.0
O164 O 0.41631 0.79064 0.21952 0.0
O165 O 0.44701 0.83877 0.22983 0.0
O166 O 0.33156 0.77653 0.21278 0.0
O167 O 0.33117 0.82494 0.23362 0.0
O168 O 0.88649 0.35817 0.56704 0.0
Cd169 Cd 0.8899 0.35237 0.53424 0.0
Cd170 Cd 0.95161 0.39655 0.5422 0.0
O171 O 0.92955 0.3983 0.57293 0.0
O172 O 0.84459 0.32507 0.52819 0.0
O173 O 0.85435 0.38003 0.51561 0.0
C174 C 0.83307 0.35246 0.51742 0.0
C175 C 0.9768 0.44836 0.52621 0.0
C176 C 0.90371 0.37864 0.57985 0.0
C177 C 0.96307 0.32061 0.52494 0.0
O178 O 0.97654 0.34911 0.5331 0.0
O179 O 0.92901 0.31744 0.52274 0.0
O180 O 0.99242 0.43211 0.54203 0.0
O181 O 0.94575 0.43604 0.52002 0.0
O182 O 0.40435 0.13563 0.31798 0.0
Cd183 Cd 0.41051 0.13863 0.28516 0.0
Cd184 Cd 0.3678 0.20166 0.29301 0.0
O185 O 0.36573 0.18006 0.32383 0.0
O186 O 0.43799 0.09323 0.27962 0.0
O187 O 0.38336 0.10265 0.26652 0.0
C188 C 0.41093 0.08148 0.26865 0.0
C189 C 0.31616 0.22696 0.27691 0.0
C190 C 0.38454 0.15363 0.33078 0.0
C191 C 0.44395 0.21129 0.27575 0.0
O192 O 0.41574 0.22562 0.28379 0.0
O193 O 0.44606 0.17715 0.27359 0.0
O194 O 0.33263 0.2428 0.29257 0.0
O195 O 0.32825 0.19572 0.27089 0.0
O196 O 0.62827 0.65638 0.06786 0.0
Cd197 Cd 0.62581 0.66201 0.03499 0.0
Cd198 Cd 0.56553 0.61765 0.04124 0.0
O199 O 0.58591 0.615 0.07232 0.0
O200 O 0.67226 0.68693 0.02842 0.0
O201 O 0.65969 0.6319 0.01673 0.0
C202 C 0.68237 0.6584 0.01816 0.0
C203 C 0.54387 0.56586 0.02363 0.0
C204 C 0.61079 0.635 0.08004 0.0
C205 C 0.55325 0.69378 0.02483 0.0
O206 O 0.53978 0.66483 0.03243 0.0
O207 O 0.58737 0.69736 0.02318 0.0
O208 O 0.52634 0.58048 0.03933 0.0
O209 O 0.57475 0.57989 0.01849 0.0
O210 O 0.10846 0.87901 0.81826 0.0
Cd211 Cd 0.10222 0.87763 0.7854 0.0
Cd212 Cd 0.14504 0.81539 0.7912 0.0
O213 O 0.14824 0.83506 0.82242 0.0
O214 O 0.07701 0.92436 0.77989 0.0
O215 O 0.13159 0.9125 0.76729 0.0
C216 C 0.1051 0.93503 0.76941 0.0
C217 C 0.19636 0.79266 0.77348 0.0
C218 C 0.12916 0.86051 0.83031 0.0
C219 C 0.06841 0.80585 0.77491 0.0
O220 O 0.09701 0.79131 0.78228 0.0
O221 O 0.06607 0.84009 0.7734 0.0
O222 O 0.18113 0.77519 0.789 0.0
O223 O 0.18317 0.82399 0.76854 0.0
O224 O 0.62895 0.85889 0.56812 0.0
Cd225 Cd 0.62614 0.85256 0.53533 0.0
Cd226 Cd 0.56404 0.89683 0.54282 0.0
O227 O 0.58544 0.89866 0.5737 0.0
O228 O 0.67149 0.82502 0.52979 0.0
O229 O 0.66215 0.8797 0.51672 0.0
C230 C 0.68331 0.85213 0.51887 0.0
C231 C 0.53907 0.94863 0.5267 0.0
C232 C 0.61133 0.87927 0.58079 0.0
C233 C 0.55308 0.82069 0.52567 0.0
O234 O 0.53939 0.84931 0.53356 0.0
O235 O 0.5872 0.81746 0.52381 0.0
O236 O 0.52317 0.93231 0.5424 0.0
O237 O 0.57025 0.93637 0.52068 0.0
O238 O 0.4058 0.37755 0.81829 0.0
Cd239 Cd 0.41288 0.37537 0.7855 0.0
Cd240 Cd 0.36804 0.31329 0.79189 0.0
O241 O 0.36546 0.33418 0.82288 0.0
O242 O 0.44012 0.42099 0.78008 0.0
O243 O 0.38564 0.41114 0.76681 0.0
C244 C 0.41305 0.43251 0.76902 0.0
C245 C 0.31653 0.28802 0.77555 0.0
C246 C 0.38482 0.35965 0.8305 0.0
C247 C 0.44473 0.30243 0.7755 0.0
O248 O 0.41575 0.2887 0.78289 0.0
O249 O 0.44821 0.33658 0.77403 0.0
O250 O 0.33281 0.27218 0.79127 0.0
O251 O 0.32869 0.31928 0.76961 0.0
O252 O 0.88747 0.15699 0.0679 0.0
Cd253 Cd 0.88984 0.16291 0.03506 0.0
Cd254 Cd 0.951 0.11815 0.04154 0.0
O255 O 0.92976 0.11555 0.07244 0.0
O256 O 0.84346 0.18827 0.02881 0.0
O257 O 0.85541 0.13326 0.0169 0.0
C258 C 0.83292 0.15988 0.01857 0.0
C259 C 0.97595 0.06644 0.02525 0.0
C260 C 0.90478 0.13551 0.08009 0.0
C261 C 0.96258 0.19463 0.02502 0.0
O262 O 0.97605 0.16573 0.03269 0.0
O263 O 0.92847 0.19814 0.02326 0.0
O264 O 0.99179 0.08259 0.04102 0.0
O265 O 0.94488 0.07889 0.01921 0.0
O266 O 0.10995 0.63611 0.31765 0.0
Cd267 Cd 0.1034 0.63889 0.28487 0.0
Cd268 Cd 0.14635 0.70187 0.29242 0.0
O269 O 0.14879 0.68044 0.32327 0.0
O270 O 0.07547 0.59364 0.27969 0.0
O271 O 0.12996 0.60249 0.26621 0.0
C272 C 0.10226 0.58156 0.26862 0.0
C273 C 0.19787 0.72687 0.27596 0.0
C274 C 0.12997 0.6541 0.33034 0.0
C275 C 0.07004 0.71157 0.2755 0.0
O276 O 0.09834 0.72589 0.28342 0.0
O277 O 0.06788 0.67743 0.27337 0.0
O278 O 0.18167 0.74288 0.29167 0.0
O279 O 0.18556 0.69564 0.27009 0.0
O280 O 0.63146 0.15628 0.93616 0.0
Cd281 Cd 0.62856 0.16179 0.96898 0.0
Cd282 Cd 0.56682 0.11767 0.96147 0.0
O283 O 0.58845 0.11595 0.93062 0.0
O284 O 0.67472 0.18752 0.97532 0.0
O285 O 0.66318 0.13242 0.98722 0.0
C286 C 0.68546 0.15923 0.98558 0.0
C287 C 0.54122 0.06583 0.97728 0.0
C288 C 0.61407 0.13568 0.9235 0.0
C289 C 0.5558 0.19383 0.97869 0.0
O290 O 0.54221 0.16522 0.97072 0.0
O291 O 0.5899 0.19706 0.98067 0.0
O292 O 0.52568 0.08247 0.96158 0.0
O293 O 0.5724 0.07781 0.98348 0.0
O294 O 0.10612 0.37985 0.18607 0.0
Cd295 Cd 0.09963 0.37727 0.21886 0.0
Cd296 Cd 0.14495 0.31687 0.2126 0.0
O297 O 0.14777 0.33775 0.18162 0.0
O298 O 0.07263 0.42281 0.22469 0.0
O299 O 0.12745 0.41269 0.23743 0.0
C300 C 0.10006 0.43417 0.2355 0.0
C301 C 0.19674 0.29498 0.23016 0.0
C302 C 0.12775 0.36264 0.17392 0.0
C303 C 0.06863 0.30408 0.22872 0.0
O304 O 0.09776 0.29086 0.22121 0.0
O305 O 0.06476 0.33815 0.2304 0.0
O306 O 0.18218 0.27769 0.21436 0.0
O307 O 0.18264 0.32574 0.23545 0.0
O308 O 0.8843 0.85784 0.43588 0.0
Cd309 Cd 0.88753 0.85219 0.46872 0.0
Cd310 Cd 0.94898 0.89546 0.46095 0.0
O311 O 0.92767 0.89764 0.43008 0.0
O312 O 0.84227 0.82472 0.47465 0.0
O313 O 0.85173 0.87967 0.4873 0.0
C314 C 0.83058 0.85202 0.48544 0.0
C315 C 0.97082 0.94733 0.47838 0.0
C316 C 0.90179 0.87814 0.42309 0.0
C317 C 0.96049 0.81966 0.47793 0.0
O318 O 0.97429 0.84805 0.46979 0.0
O319 O 0.92642 0.81712 0.48032 0.0
O320 O 0.98821 0.93264 0.46264 0.0
O321 O 0.94 0.9333 0.48366 0.0
O322 O 0.40619 0.63371 0.6859 0.0
Cd323 Cd 0.41225 0.6367 0.71871 0.0
Cd324 Cd 0.36742 0.69852 0.71101 0.0
O325 O 0.36602 0.67681 0.68019 0.0
O326 O 0.43995 0.59149 0.72448 0.0
O327 O 0.38508 0.6007 0.73732 0.0
C328 C 0.41277 0.57964 0.73533 0.0
C329 C 0.31541 0.72375 0.7268 0.0
C330 C 0.38572 0.65109 0.67316 0.0
C331 C 0.44344 0.71008 0.72831 0.0
O332 O 0.41474 0.72346 0.72034 0.0
O333 O 0.44696 0.676 0.73024 0.0
O334 O 0.33194 0.73941 0.71109 0.0
O335 O 0.32756 0.69264 0.73299 0.0
O336 O 0.38583 0.15762 0.43556 0.0
Cd337 Cd 0.38886 0.16414 0.46835 0.0
Cd338 Cd 0.44934 0.11925 0.46177 0.0
O339 O 0.42827 0.1164 0.43085 0.0
O340 O 0.34334 0.19101 0.47448 0.0
O341 O 0.35386 0.13625 0.4872 0.0
C342 C 0.3323 0.1636 0.48543 0.0
C343 C 0.47115 0.0676 0.47948 0.0
C344 C 0.40311 0.13623 0.42329 0.0
C345 C 0.46207 0.19552 0.47782 0.0
O346 O 0.47535 0.16647 0.47025 0.0
O347 O 0.428 0.1992 0.47965 0.0
O348 O 0.48844 0.08197 0.4636 0.0
O349 O 0.44041 0.08178 0.48475 0.0
O350 O 0.60738 0.63508 0.18531 0.0
Cd351 Cd 0.6019 0.63809 0.21813 0.0
Cd352 Cd 0.64584 0.69965 0.2106 0.0
O353 O 0.64773 0.67807 0.17975 0.0
O354 O 0.57638 0.59188 0.22459 0.0
O355 O 0.63148 0.60369 0.23638 0.0
C356 C 0.60475 0.58131 0.23482 0.0
C357 C 0.69758 0.72484 0.22667 0.0
C358 C 0.62803 0.65242 0.17264 0.0
C359 C 0.56974 0.71075 0.22783 0.0
O360 O 0.59831 0.72435 0.21981 0.0
O361 O 0.56654 0.67665 0.22984 0.0
O362 O 0.68125 0.74059 0.21093 0.0
O363 O 0.68538 0.69366 0.23274 0.0
O364 O 0.1288 0.85593 0.9357 0.0
Cd365 Cd 0.12533 0.85006 0.96851 0.0
Cd366 Cd 0.06483 0.89473 0.96098 0.0
O367 O 0.08629 0.89673 0.93012 0.0
O368 O 0.17052 0.82267 0.97468 0.0
O369 O 0.1608 0.8777 0.98718 0.0
C370 C 0.18202 0.85008 0.98545 0.0
C371 C 0.04336 0.94679 0.97839 0.0
C372 C 0.11176 0.87678 0.92302 0.0
C373 C 0.05186 0.819 0.97785 0.0
O374 O 0.03871 0.84777 0.96982 0.0
O375 O 0.0859 0.81542 0.97997 0.0
O376 O 0.026 0.93234 0.96257 0.0
O377 O 0.07398 0.93246 0.98374 0.0
O378 O 0.9058 0.37975 0.68465 0.0
Cd379 Cd 0.91166 0.37805 0.71751 0.0
Cd380 Cd 0.86873 0.31532 0.71115 0.0
O381 O 0.86616 0.33577 0.68008 0.0
O382 O 0.9368 0.42475 0.72326 0.0
O383 O 0.88209 0.41274 0.73561 0.0
C384 C 0.90859 0.43531 0.73365 0.0
C385 C 0.81729 0.2897 0.72742 0.0
C386 C 0.8853 0.36139 0.67242 0.0
C387 C 0.94536 0.30621 0.7279 0.0
O388 O 0.91685 0.29172 0.72037 0.0
O389 O 0.9477 0.34043 0.72953 0.0
O390 O 0.83404 0.27377 0.71189 0.0
O391 O 0.82902 0.32118 0.73324 0.0
O392 O 0.38461 0.85883 0.06799 0.0
Cd393 Cd 0.38652 0.85168 0.0352 0.0
Cd394 Cd 0.44883 0.8954 0.04127 0.0
O395 O 0.4285 0.89864 0.07235 0.0
O396 O 0.34091 0.82423 0.03021 0.0
O397 O 0.35034 0.87853 0.01658 0.0
C398 C 0.32912 0.85107 0.01907 0.0
C399 C 0.47172 0.94678 0.02367 0.0
C400 C 0.40286 0.87964 0.0801 0.0
C401 C 0.45908 0.81872 0.0252 0.0
O402 O 0.47334 0.84749 0.03254 0.0
O403 O 0.4249 0.81606 0.0236 0.0
O404 O 0.48892 0.93166 0.03933 0.0
O405 O 0.44055 0.93344 0.01852 0.0
O406 O 0.90682 0.63539 0.81697 0.0
Cd407 Cd 0.91167 0.63898 0.78412 0.0
Cd408 Cd 0.86751 0.69995 0.79217 0.0
O409 O 0.86598 0.67775 0.82287 0.0
O410 O 0.93724 0.593 0.77718 0.0
O411 O 0.88182 0.60475 0.76591 0.0
C412 C 0.90868 0.58246 0.76713 0.0
C413 C 0.81543 0.72484 0.77635 0.0
C414 C 0.88607 0.65226 0.8298 0.0
C415 C 0.94325 0.71201 0.77468 0.0
O416 O 0.91476 0.72525 0.783 0.0
O417 O 0.94655 0.67797 0.77237 0.0
O418 O 0.83168 0.7405 0.79215 0.0
O419 O 0.82793 0.69391 0.77007 0.0
O420 O 0.12946 0.15358 0.5685 0.0
Cd421 Cd 0.12805 0.16096 0.53572 0.0
Cd422 Cd 0.06438 0.1179 0.54171 0.0
O423 O 0.08439 0.11507 0.57286 0.0
O424 O 0.17382 0.18832 0.53105 0.0
O425 O 0.16438 0.1343 0.51707 0.0
C426 C 0.18563 0.16168 0.51974 0.0
C427 C 0.03878 0.06662 0.52528 0.0
C428 C 0.11045 0.13344 0.58063 0.0
C429 C 0.05593 0.19479 0.52534 0.0
O430 O 0.04111 0.16616 0.53249 0.0
O431 O 0.09019 0.19707 0.52409 0.0
O432 O 0.0227 0.08337 0.54075 0.0
O433 O 0.07036 0.07827 0.51959 0.0
O434 O 0.60791 0.37947 0.31745 0.0
Cd435 Cd 0.60175 0.37713 0.28464 0.0
Cd436 Cd 0.64619 0.31553 0.29109 0.0
O437 O 0.64899 0.33682 0.32197 0.0
O438 O 0.5764 0.42355 0.27853 0.0
O439 O 0.63123 0.41154 0.26634 0.0
C440 C 0.60466 0.43405 0.26814 0.0
C441 C 0.69761 0.28988 0.27483 0.0
C442 C 0.62927 0.362 0.32962 0.0
C443 C 0.56951 0.30464 0.27468 0.0
O444 O 0.59837 0.29095 0.28225 0.0
O445 O 0.56619 0.33877 0.27297 0.0
O446 O 0.68126 0.2743 0.29063 0.0
O447 O 0.68557 0.3211 0.26876 0.0
C448 C 0.02129 0.52284 0.98591 0.0
C449 C 0.98651 0.53553 0.99142 0.0
C450 C 0.03808 0.49492 0.99751 0.0
C451 C 0.02088 0.47838 0.01518 0.0
H452 H 0.03591 0.53464 0.97251 0.0
H453 H 0.06477 0.48619 0.99248 0.0
S454 S 0.92956 0.50144 0.03636 0.0
N455 N 0.9354 0.52925 0.01585 0.0
N456 N 0.96681 0.47686 0.03764 0.0
C457 C 0.98605 0.49077 0.02091 0.0
C458 C 0.96892 0.51925 0.00905 0.0
C459 C 0.74469 0.72567 0.25576 0.0
C460 C 0.72826 0.74274 0.23803 0.0
C461 C 0.77271 0.74245 0.26729 0.0
C462 C 0.78559 0.7771 0.26163 0.0
H463 H 0.73578 0.6991 0.26091 0.0
H464 H 0.78441 0.72793 0.28075 0.0
S465 S 0.75185 0.83368 0.21646 0.0
N466 N 0.72706 0.79655 0.21534 0.0
N467 N 0.77962 0.82794 0.23699 0.0
C468 C 0.76943 0.79455 0.24392 0.0
C469 C 0.74087 0.77743 0.23214 0.0
C470 C 0.53936 0.49544 0.50573 0.0
C471 C 0.52234 0.47926 0.4879 0.0
C472 C 0.52265 0.52348 0.51729 0.0
C473 C 0.48816 0.53663 0.51156 0.0
H474 H 0.56581 0.48631 0.51094 0.0
H475 H 0.53711 0.53496 0.53084 0.0
S476 S 0.43184 0.50371 0.46607 0.0
N477 N 0.4688 0.47866 0.46501 0.0
N478 N 0.43755 0.53125 0.48672 0.0
C479 C 0.47078 0.52075 0.49375 0.0
C480 C 0.48781 0.49216 0.48193 0.0
C481 C 0.76994 0.28889 0.7564 0.0
C482 C 0.78657 0.27177 0.73874 0.0
C483 C 0.74179 0.27214 0.76784 0.0
C484 C 0.72895 0.2375 0.76216 0.0
H485 H 0.7788 0.31547 0.76155 0.0
H486 H 0.72994 0.28668 0.78125 0.0
S487 S 0.76316 0.18084 0.71715 0.0
N488 N 0.78798 0.21795 0.71609 0.0
N489 N 0.73517 0.18662 0.73758 0.0
C490 C 0.7453 0.22 0.74453 0.0
C491 C 0.77402 0.23708 0.73284 0.0
C492 C 0.97785 0.49537 0.49705 0.0
C493 C 0.99473 0.47909 0.5149 0.0
C494 C 0.99466 0.52344 0.48557 0.0
C495 C 0.02914 0.53652 0.49139 0.0
H496 H 0.9514 0.48631 0.49178 0.0
H497 H 0.98028 0.53503 0.47202 0.0
S498 S 0.0852 0.50321 0.53689 0.0
N499 N 0.04818 0.47824 0.53786 0.0
N500 N 0.07963 0.5309 0.51629 0.0
C501 C 0.04641 0.52051 0.5092 0.0
C502 C 0.02926 0.49189 0.52094 0.0
C503 C 0.74006 0.74244 0.73589 0.0
C504 C 0.72678 0.77679 0.74182 0.0
C505 C 0.76828 0.72573 0.74729 0.0
C506 C 0.7845 0.7426 0.76516 0.0
H507 H 0.72855 0.72811 0.7223 0.0
H508 H 0.77751 0.69941 0.74192 0.0
S509 S 0.75976 0.83268 0.78748 0.0
N510 N 0.73209 0.82709 0.76689 0.0
N511 N 0.78501 0.79585 0.7883 0.0
C512 C 0.77146 0.77697 0.77133 0.0
C513 C 0.7427 0.79401 0.75968 0.0
C514 C 0.47694 0.4935 0.00574 0.0
C515 C 0.49405 0.47733 0.98793 0.0
C516 C 0.49349 0.52167 0.01725 0.0
C517 C 0.52792 0.53499 0.01148 0.0
H518 H 0.45052 0.48427 0.01097 0.0
H519 H 0.47895 0.53317 0.03077 0.0
S520 S 0.5845 0.50206 0.96609 0.0
N521 N 0.54766 0.47684 0.96506 0.0
N522 N 0.57861 0.5297 0.98667 0.0
C523 C 0.54541 0.51909 0.99371 0.0
C524 C 0.52853 0.49036 0.98195 0.0
C525 C 0.77266 0.27174 0.2342 0.0
C526 C 0.78565 0.23724 0.24007 0.0
C527 C 0.7446 0.28863 0.24564 0.0
C528 C 0.72822 0.27181 0.26349 0.0
H529 H 0.78435 0.28607 0.22066 0.0
H530 H 0.73564 0.3151 0.24035 0.0
S531 S 0.75201 0.18129 0.28557 0.0
N532 N 0.77978 0.18678 0.26499 0.0
N533 N 0.72713 0.21837 0.28648 0.0
C534 C 0.74089 0.23724 0.26956 0.0
C535 C 0.7695 0.22002 0.25786 0.0
C536 C 0.26992 0.28706 0.74618 0.0
C537 C 0.2859 0.27017 0.76412 0.0
C538 C 0.24186 0.27036 0.73464 0.0
C539 C 0.22846 0.23601 0.74052 0.0
H540 H 0.2792 0.31342 0.74088 0.0
H541 H 0.23048 0.28474 0.72103 0.0
S542 S 0.26096 0.17999 0.78625 0.0
N543 N 0.28618 0.21684 0.78721 0.0
N544 N 0.23353 0.18562 0.76555 0.0
C545 C 0.24421 0.21873 0.75841 0.0
C546 C 0.27283 0.23575 0.77019 0.0
C547 C 0.24455 0.72737 0.2466 0.0
C548 C 0.22861 0.74449 0.26448 0.0
C549 C 0.2727 0.74384 0.235 0.0
C550 C 0.28622 0.77819 0.24075 0.0
H551 H 0.23515 0.70102 0.24138 0.0
H552 H 0.28401 0.72931 0.22143 0.0
S553 S 0.25398 0.8347 0.28635 0.0
N554 N 0.22858 0.79798 0.28742 0.0
N555 N 0.28139 0.82879 0.26565 0.0
C556 C 0.27055 0.79568 0.25861 0.0
C557 C 0.24184 0.77888 0.27045 0.0
C558 C 0.26916 0.22787 0.24775 0.0
C559 C 0.28535 0.24478 0.26562 0.0
C560 C 0.24096 0.24454 0.23632 0.0
C561 C 0.22763 0.27889 0.24223 0.0
H562 H 0.2784 0.20152 0.24242 0.0
H563 H 0.22946 0.23016 0.22276 0.0
S564 S 0.26056 0.3349 0.28785 0.0
N565 N 0.28582 0.29808 0.28871 0.0
N566 N 0.23291 0.32926 0.26725 0.0
C567 C 0.24355 0.29617 0.26007 0.0
C568 C 0.27231 0.27917 0.27175 0.0
C569 C 0.23974 0.74157 0.76708 0.0
C570 C 0.22706 0.77625 0.76136 0.0
C571 C 0.26786 0.7247 0.75567 0.0
C572 C 0.28458 0.74172 0.738 0.0
H573 H 0.22784 0.72711 0.7805 0.0
H574 H 0.27663 0.69812 0.76087 0.0
S575 S 0.26153 0.83268 0.7163 0.0
N576 N 0.23348 0.82704 0.73672 0.0
N577 N 0.28622 0.79548 0.71529 0.0
C578 C 0.27214 0.77642 0.73204 0.0
C579 C 0.24348 0.79363 0.74371 0.0
C580 C 0.53826 0.9954 0.49739 0.0
C581 C 0.52133 0.97939 0.51532 0.0
C582 C 0.5216 0.02347 0.48584 0.0
C583 C 0.48723 0.03684 0.49169 0.0
H584 H 0.56461 0.9861 0.4921 0.0
H585 H 0.536 0.03483 0.47223 0.0
S586 S 0.43115 1.00438 0.53743 0.0
N587 N 0.46798 0.97915 0.53841 0.0
N588 N 0.43682 0.03181 0.51672 0.0
C589 C 0.46993 0.02112 0.50959 0.0
C590 C 0.48692 0.99249 0.52139 0.0
C591 C 0.99335 0.99157 0.98441 0.0
C592 C 0.02745 0.9778 0.99045 0.0
C593 C 0.97681 0.01982 0.99587 0.0
C594 C 0.9936 0.0356 0.0139 0.0
H595 H 0.97906 0.98038 0.97072 0.0
H596 H 0.95065 0.02942 0.99044 0.0
S597 S 0.08308 0.00954 0.03654 0.0
N598 N 0.07747 0.98221 0.01578 0.0
N599 N 0.04653 0.0352 0.0373 0.0
C600 C 0.02776 0.02212 0.02016 0.0
C601 C 0.04462 0.99331 0.00845 0.0
C602 C 0.53986 0.01838 0.00619 0.0
C603 C 0.52309 0.03505 0.98843 0.0
C604 C 0.52284 0.99026 0.01753 0.0
C605 C 0.48827 0.9775 0.01164 0.0
H606 H 0.56635 0.02719 0.01151 0.0
H607 H 0.53711 0.97839 0.03103 0.0
S608 S 0.43249 0.01182 0.96628 0.0
N609 N 0.46967 0.03657 0.96545 0.0
N610 N 0.43785 0.98381 0.98674 0.0
C611 C 0.47114 0.99388 0.9939 0.0
C612 C 0.48849 0.02255 0.98231 0.0
C613 C 0.03809 0.01947 0.4962 0.0
C614 C 0.02091 0.03595 0.51389 0.0
C615 C 0.02144 0.99129 0.48474 0.0
C616 C 0.98686 0.97828 0.49044 0.0
H617 H 0.06464 0.02844 0.49105 0.0
H618 H 0.03604 0.97953 0.47132 0.0
S619 S 0.93006 0.01213 0.53549 0.0
N620 N 0.96707 0.0371 0.53655 0.0
N621 N 0.93595 0.98423 0.51503 0.0
C622 C 0.9693 0.99452 0.50808 0.0
C623 C 0.98626 0.02326 0.51978 0.0
C624 C 0.97228 0.26132 0.02138 0.0
C625 C 0.98661 0.22605 0.02084 0.0
C626 C 0.99498 0.29169 0.02178 0.0
C627 C 0.03295 0.28809 0.02145 0.0
H628 H 0.94336 0.26558 0.02278 0.0
H629 H 0.98258 0.31814 0.02329 0.0
S630 S 0.08386 0.20178 0.01622 0.0
N631 N 0.04096 0.18935 0.01721 0.0
N632 N 0.08367 0.24639 0.01781 0.0
C633 C 0.04755 0.25308 0.01909 0.0
C634 C 0.02438 0.22209 0.01885 0.0
C635 C 0.04148 0.77275 0.27222 0.0
C636 C 0.03806 0.73482 0.27106 0.0
C637 C 0.01102 0.79533 0.27199 0.0
C638 C 0.97585 0.78088 0.27078 0.0
H639 H 0.06782 0.78518 0.27428 0.0
H640 H 0.01509 0.82417 0.27405 0.0
S641 S 0.95212 0.68393 0.26379 0.0
N642 N 0.99667 0.68419 0.26586 0.0
N643 N 0.93948 0.72668 0.2656 0.0
C644 C 0.9721 0.74326 0.26795 0.0
C645 C 1.00317 0.72023 0.26802 0.0
C646 C 0.52101 0.72358 0.52211 0.0
C647 C 0.48306 0.72713 0.52127 0.0
C648 C 0.54366 0.75399 0.522 0.0
C649 C 0.52929 0.78923 0.52124 0.0
H650 H 0.53339 0.69715 0.52381 0.0
H651 H 0.57253 0.7498 0.52379 0.0
S652 S 0.43226 0.81337 0.51526 0.0
N653 N 0.43244 0.76877 0.51689 0.0
N654 N 0.47508 0.82586 0.51686 0.0
C655 C 0.49162 0.79314 0.51876 0.0
C656 C 0.46851 0.76213 0.51869 0.0
C657 C 0.54185 0.27021 0.77235 0.0
C658 C 0.53826 0.23227 0.7714 0.0
C659 C 0.51148 0.29291 0.77216 0.0
C660 C 0.47622 0.2786 0.7712 0.0
H661 H 0.56827 0.28256 0.7742 0.0
H662 H 0.51571 0.32176 0.77403 0.0
S663 S 0.45202 0.18163 0.76486 0.0
N664 N 0.4966 0.18174 0.7667 0.0
N665 N 0.43958 0.22445 0.76651 0.0
C666 C 0.47229 0.24095 0.7686 0.0
C667 C 0.50327 0.21779 0.76863 0.0
C668 C 0.02209 0.79201 0.48115 0.0
C669 C 0.98421 0.78802 0.48236 0.0
C670 C 0.04511 0.76188 0.48137 0.0
C671 C 0.03117 0.7265 0.48259 0.0
H672 H 0.03412 0.81854 0.47909 0.0
H673 H 0.07389 0.76637 0.47929 0.0
S674 S 0.93459 0.70135 0.48963 0.0
N675 N 0.93419 0.7459 0.48757 0.0
N676 N 0.97752 0.68934 0.48779 0.0
C677 C 0.99362 0.7222 0.48544 0.0
C678 C 0.97014 0.75293 0.4854 0.0
C679 C 0.54023 0.74309 0.73192 0.0
C680 C 0.53632 0.78101 0.73269 0.0
C681 C 0.51003 0.72014 0.73205 0.0
C682 C 0.47466 0.73419 0.73274 0.0
H683 H 0.56678 0.73095 0.73027 0.0
H684 H 0.51451 0.69131 0.73031 0.0
S685 S 0.44957 0.83102 0.73849 0.0
N686 N 0.49418 0.83126 0.73691 0.0
N687 N 0.4375 0.78807 0.73697 0.0
C688 C 0.47038 0.77183 0.73515 0.0
C689 C 0.50117 0.79524 0.7352 0.0
C690 C 0.54617 0.26056 0.98187 0.0
C691 C 0.53193 0.22529 0.98295 0.0
C692 C 0.52338 0.29087 0.98148 0.0
C693 C 0.48545 0.28717 0.98238 0.0
H694 H 0.57502 0.26482 0.98002 0.0
H695 H 0.53564 0.31731 0.97954 0.0
S696 S 0.43498 0.20086 0.9891 0.0
N697 N 0.47786 0.18853 0.98763 0.0
N698 N 0.43498 0.24542 0.9871 0.0
C699 C 0.47103 0.25218 0.98527 0.0
C700 C 0.49428 0.22128 0.98547 0.0
C701 C 1.002 0.29382 0.23205 0.0
C702 C 0.03739 0.27982 0.23288 0.0
C703 C 0.97184 0.27085 0.23173 0.0
C704 C 0.97579 0.23294 0.23242 0.0
H705 H 0.9975 0.32267 0.23039 0.0
H706 H 0.9453 0.28297 0.22999 0.0
S707 S 0.06249 0.18295 0.23843 0.0
N708 N 0.07455 0.22593 0.23711 0.0
N709 N 0.0179 0.18269 0.23666 0.0
C710 C 0.0109 0.21872 0.23504 0.0
C711 C 0.04167 0.24216 0.2352 0.0
C712 C 0.019 0.72218 0.98173 0.0
C713 C 0.98106 0.72597 0.98204 0.0
C714 C 0.04184 0.75245 0.98188 0.0
C715 C 0.02766 0.78779 0.98216 0.0
H716 H 0.03129 0.69564 0.98041 0.0
H717 H 0.07074 0.74803 0.98052 0.0
S718 S 0.93056 0.81263 0.98662 0.0
N719 N 0.93053 0.76799 0.98537 0.0
N720 N 0.97351 0.82484 0.9855 0.0
C721 C 0.98993 0.79198 0.98411 0.0
C722 C 0.96662 0.7611 0.98412 0.0
C723 C 0.97339 0.24501 0.73234 0.0
C724 C 0.9773 0.28295 0.73241 0.0
C725 C 1.00359 0.22208 0.73254 0.0
C726 C 0.03897 0.23615 0.7326 0.0
H727 H 0.94679 0.23279 0.73117 0.0
H728 H 0.99907 0.19317 0.73135 0.0
S729 S 0.06417 0.33324 0.73641 0.0
N730 N 0.01952 0.33339 0.73531 0.0
N731 N 0.07622 0.29024 0.73551 0.0
C732 C 0.0433 0.2739 0.73433 0.0
C733 C 0.0125 0.2973 0.7343 0.0
C734 C 0.4948 0.29247 0.48107 0.0
C735 C 0.53274 0.28873 0.48157 0.0
C736 C 0.47201 0.26217 0.48135 0.0
C737 C 0.48622 0.22685 0.48194 0.0
H738 H 0.48251 0.31897 0.47953 0.0
H739 H 0.44312 0.26653 0.47985 0.0
S740 S 0.5833 0.20223 0.4869 0.0
N741 N 0.58328 0.24684 0.48536 0.0
N742 N 0.54038 0.18994 0.48571 0.0
C743 C 0.52394 0.22275 0.48405 0.0
C744 C 0.5472 0.25365 0.48394 0.0
C745 C 0.47274 0.74326 0.23093 0.0
C746 C 0.4765 0.78118 0.23194 0.0
C747 C 0.50303 0.72043 0.23116 0.0
C748 C 0.53832 0.73461 0.2322 0.0
H749 H 0.44628 0.73105 0.229 0.0
H750 H 0.49872 0.6916 0.22921 0.0
S751 S 0.56292 0.83144 0.23867 0.0
N752 N 0.51835 0.83152 0.23677 0.0
N753 N 0.57519 0.78856 0.237 0.0
C754 C 0.5424 0.77222 0.23485 0.0
C755 C 0.51153 0.79551 0.2348 0.0
C756 C 0.97244 0.25397 0.52089 0.0
C757 C 0.98695 0.28918 0.5206 0.0
C758 C 0.995 0.2235 0.52111 0.0
C759 C 0.03298 0.22696 0.52085 0.0
H760 H 0.94349 0.24982 0.52224 0.0
H761 H 0.98247 0.19708 0.52245 0.0
S762 S 0.08427 0.31318 0.51615 0.0
N763 N 0.04143 0.32575 0.51722 0.0
N764 N 0.08389 0.26855 0.51747 0.0
C765 C 0.04774 0.26197 0.51871 0.0
C766 C 0.02472 0.29304 0.51866 0.0
C767 C 0.47234 0.27249 0.27201 0.0
C768 C 0.47589 0.23454 0.27115 0.0
C769 C 0.50273 0.29517 0.2716 0.0
C770 C 0.53795 0.28082 0.27052 0.0
H771 H 0.44595 0.28486 0.27395 0.0
H772 H 0.49856 0.32404 0.27342 0.0
S773 S 0.562 0.18378 0.2644 0.0
N774 N 0.51744 0.18394 0.26644 0.0
N775 N 0.5745 0.22662 0.26584 0.0
C776 C 0.54182 0.24315 0.26802 0.0
C777 C 0.51082 0.22001 0.26826 0.0
C778 C 0.52047 0.79069 0.02164 0.0
C779 C 0.48255 0.78687 0.0208 0.0
C780 C 0.54334 0.76045 0.02142 0.0
C781 C 0.52922 0.72511 0.02053 0.0
H782 H 0.53268 0.81718 0.02343 0.0
H783 H 0.57218 0.76484 0.02322 0.0
S784 S 0.43236 0.70032 0.01444 0.0
N785 N 0.43223 0.7449 0.01625 0.0
N786 N 0.47527 0.68813 0.016 0.0
C787 C 0.49158 0.72095 0.01803 0.0
C788 C 0.46825 0.75179 0.01809 0.0
C789 C 0.00981 0.7219 0.7705 0.0
C790 C 0.9745 0.73612 0.77028 0.0
C791 C 0.04012 0.7447 0.77069 0.0
C792 C 0.03638 0.78266 0.77046 0.0
H793 H 0.01418 0.69298 0.77183 0.0
H794 H 0.06665 0.73238 0.77198 0.0
S795 S 0.94977 0.83327 0.76599 0.0
N796 N 0.93752 0.79033 0.76703 0.0
N797 N 0.99441 0.83324 0.76721 0.0
C798 C 1.00126 0.79714 0.7684 0.0
C799 C 0.97036 0.77387 0.76838 0.0
C800 C 0.27621 0.38572 0.99711 0.0
C801 C 0.29665 0.35364 0.9962 0.0
C802 C 0.2403 0.3855 0.00462 0.0
C803 C 0.22383 0.3533 0.01185 0.0
H804 H 0.28768 0.41098 0.99144 0.0
H805 H 0.22545 0.41079 0.00487 0.0
S806 S 0.26693 0.26243 0.01389 0.0
N807 N 0.29846 0.28916 0.0038 0.0
N808 N 0.23151 0.28866 0.0182 0.0
C809 C 0.24444 0.32121 0.01144 0.0
C810 C 0.2807 0.32141 0.00355 0.0
C811 C 0.93893 0.02502 0.24831 0.0
C812 C 0.90631 0.04341 0.24422 0.0
C813 C 0.93908 0.98953 0.25615 0.0
C814 C 0.90663 0.97062 0.2599 0.0
H815 H 0.96472 0.0382 0.24553 0.0
H816 H 0.96499 0.97674 0.25917 0.0
S817 S 0.81377 1.00631 0.25161 0.0
N818 N 0.84054 0.04009 0.24451 0.0
N819 N 0.84084 0.97294 0.25898 0.0
C820 C 0.87373 0.98851 0.25576 0.0
C821 C 0.87356 0.02503 0.24805 0.0
C822 C 0.24 0.69038 0.49823 0.0
C823 C 0.22127 0.65801 0.49399 0.0
C824 C 0.27542 0.69006 0.50616 0.0
C825 C 0.29392 0.65736 0.50984 0.0
H826 H 0.22713 0.71634 0.49551 0.0
H827 H 0.28849 0.71579 0.50929 0.0
S828 S 0.25725 0.56499 0.50115 0.0
N829 N 0.22382 0.59221 0.49406 0.0
N830 N 0.29087 0.59161 0.50868 0.0
C831 C 0.2757 0.6247 0.50555 0.0
C832 C 0.23924 0.62502 0.49776 0.0
C833 C 0.57506 0.02443 0.75654 0.0
C834 C 0.60776 0.0429 0.76028 0.0
C835 C 0.57475 0.98899 0.74863 0.0
C836 C 0.60712 0.97022 0.74447 0.0
H837 H 0.54933 0.03754 0.75961 0.0
H838 H 0.54879 0.97615 0.74586 0.0
S839 S 0.70014 1.00609 0.75181 0.0
N840 N 0.67351 0.03976 0.75927 0.0
N841 N 0.67292 0.97269 0.74468 0.0
C842 C 0.64011 0.98815 0.7483 0.0
C843 C 0.64043 0.02463 0.75607 0.0
C844 C 0.73792 0.68898 0.00456 0.0
C845 C 0.71925 0.65659 0.00884 0.0
C846 C 0.77334 0.6887 0.9966 0.0
C847 C 0.79189 0.65603 0.99293 0.0
H848 H 0.72502 0.71492 0.00728 0.0
H849 H 0.78637 0.71445 0.99345 0.0
S850 S 0.75535 0.56361 0.00171 0.0
N851 N 0.7219 0.59079 0.0088 0.0
N852 N 0.78893 0.59028 0.99413 0.0
C853 C 0.77371 0.62335 0.99725 0.0
C854 C 0.73726 0.62362 0.00508 0.0
C855 C 0.07383 0.99119 0.75733 0.0
C856 C 0.10642 0.97228 0.76059 0.0
C857 C 0.07368 0.02678 0.74963 0.0
C858 C 0.10613 0.04527 0.74521 0.0
H859 H 0.04805 0.97831 0.76057 0.0
H860 H 0.04779 0.03994 0.7472 0.0
S861 S 0.19895 0.00827 0.75137 0.0
N862 N 0.17217 0.97476 0.75891 0.0
N863 N 0.1719 0.04209 0.74473 0.0
C864 C 0.13902 0.02692 0.74861 0.0
C865 C 0.13916 0.99031 0.75616 0.0
C866 C 0.77759 0.38516 0.50457 0.0
C867 C 0.79603 0.3524 0.50828 0.0
C868 C 0.7416 0.38541 0.49722 0.0
C869 C 0.72304 0.35291 0.49294 0.0
H870 H 0.7908 0.4108 0.50773 0.0
H871 H 0.72846 0.41124 0.49455 0.0
S872 S 0.7594 0.25988 0.49975 0.0
N873 N 0.79302 0.28664 0.50701 0.0
N874 N 0.72587 0.2871 0.49297 0.0
C875 C 0.74131 0.32001 0.49644 0.0
C876 C 0.77767 0.31976 0.50415 0.0
C877 C 0.37888 0.0258 0.25549 0.0
C878 C 0.41143 0.04439 0.25957 0.0
C879 C 0.37904 0.98985 0.24807 0.0
C880 C 0.41175 0.97147 0.2441 0.0
H881 H 0.35309 0.03889 0.25837 0.0
H882 H 0.35336 0.9766 0.24508 0.0
S883 S 0.50438 0.00822 0.25202 0.0
N884 N 0.47724 0.04168 0.25905 0.0
N885 N 0.47753 0.97459 0.24489 0.0
C886 C 0.44445 0.98987 0.24802 0.0
C887 C 0.44429 0.02619 0.2558 0.0
C888 C 0.77484 0.88435 0.49824 0.0
C889 C 0.79352 0.85172 0.49457 0.0
C890 C 0.73884 0.88435 0.5056 0.0
C891 C 0.7205 0.85172 0.5099 0.0
H892 H 0.78787 0.91008 0.49506 0.0
H893 H 0.72551 0.91009 0.50824 0.0
S894 S 0.7576 0.75895 0.50323 0.0
N895 N 0.79102 0.78595 0.49592 0.0
N896 N 0.72384 0.78594 0.50996 0.0
C897 C 0.73903 0.81895 0.50645 0.0
C898 C 0.7754 0.81895 0.49873 0.0
C899 C 0.38062 0.52405 0.74859 0.0
C900 C 0.41322 0.54252 0.74441 0.0
C901 C 0.38067 0.4881 0.75602 0.0
C902 C 0.41333 0.46959 0.75991 0.0
H903 H 0.35486 0.53724 0.74578 0.0
H904 H 0.35496 0.47495 0.75908 0.0
S905 S 0.50605 0.5059 0.75166 0.0
N906 N 0.47902 0.53949 0.74471 0.0
N907 N 0.4791 0.47241 0.75891 0.0
C908 C 0.44607 0.48785 0.75589 0.0
C909 C 0.44602 0.52417 0.74809 0.0
C910 C 0.77688 0.1907 0.00587 0.0
C911 C 0.79574 0.15825 0.00966 0.0
C912 C 0.74122 0.19054 0.99828 0.0
C913 C 0.72263 0.15793 0.99452 0.0
H914 H 0.78982 0.21661 0.00866 0.0
H915 H 0.72808 0.21633 0.99546 0.0
S916 S 0.75955 0.06538 0.00216 0.0
N917 N 0.79315 0.09246 0.00913 0.0
N918 N 0.72573 0.09216 0.99515 0.0
C919 C 0.74098 0.12518 0.9984 0.0
C920 C 0.77765 0.12535 0.00584 0.0
C921 C 0.13369 0.52554 0.25546 0.0
C922 C 0.10134 0.54435 0.25972 0.0
C923 C 0.13317 0.48951 0.24818 0.0
C924 C 0.10027 0.47128 0.24455 0.0
H925 H 0.15962 0.53852 0.25808 0.0
H926 H 0.15871 0.4761 0.24504 0.0
S927 S 0.00804 0.50859 0.25308 0.0
N928 N 0.03551 0.54198 0.25975 0.0
N929 N 0.03454 0.47475 0.24586 0.0
C930 C 0.06777 0.48989 0.24865 0.0
C931 C 0.0683 0.52629 0.25629 0.0
C932 C 0.24127 0.13013 0.50607 0.0
C933 C 0.22277 0.16251 0.51072 0.0
C934 C 0.27712 0.13056 0.49847 0.0
C935 C 0.29546 0.16342 0.49487 0.0
H936 H 0.22815 0.10424 0.5086 0.0
H937 H 0.29028 0.10501 0.49501 0.0
S938 S 0.25902 0.25571 0.50441 0.0
N939 N 0.22561 0.22832 0.51121 0.0
N940 N 0.2925 0.22913 0.49669 0.0
C941 C 0.27719 0.19595 0.4994 0.0
C942 C 0.24099 0.1955 0.50738 0.0
C943 C 0.57364 0.48998 0.25547 0.0
C944 C 0.60616 0.47119 0.25916 0.0
C945 C 0.57366 0.52559 0.2478 0.0
C946 C 0.60621 0.54421 0.24386 0.0
H947 H 0.54778 0.47702 0.25839 0.0
H948 H 0.54783 0.53869 0.24506 0.0
S949 S 0.69889 0.50745 0.25115 0.0
N950 N 0.67194 0.47384 0.25832 0.0
N951 N 0.67199 0.5412 0.24419 0.0
C952 C 0.63903 0.52593 0.24763 0.0
C953 C 0.639 0.4893 0.25514 0.0
C954 C 0.23751 0.88274 0.99834 0.0
C955 C 0.21902 0.84999 0.99467 0.0
C956 C 0.27346 0.88296 0.00575 0.0
C957 C 0.29194 0.85046 0.01012 0.0
H958 H 0.22436 0.90838 0.99511 0.0
H959 H 0.28665 0.90878 0.00837 0.0
S960 S 0.25542 0.75746 0.00344 0.0
N961 N 0.22188 0.78424 0.99607 0.0
N962 N 0.28898 0.78465 0.01021 0.0
C963 C 0.27361 0.81757 0.00667 0.0
C964 C 0.23728 0.81734 0.99889 0.0
C965 C 0.93964 0.49152 0.74587 0.0
C966 C 0.90712 0.47252 0.74254 0.0
C967 C 0.93966 0.5271 0.75358 0.0
C968 C 0.90713 0.54548 0.75795 0.0
H969 H 0.96548 0.47874 0.74265 0.0
H970 H 0.9655 0.54033 0.75606 0.0
S971 S 0.81445 0.50818 0.75165 0.0
N972 N 0.84136 0.47478 0.74412 0.0
N973 N 0.84137 0.54207 0.75834 0.0
C974 C 0.87431 0.52702 0.7545 0.0
C975 C 0.87431 0.49043 0.74693 0.0
C976 C 0.09533 0.3961 0.11938 0.0
C977 C 0.11928 0.37945 0.10482 0.0
C978 C 0.09922 0.39157 0.14166 0.0
C979 C 0.12715 0.3701 0.15039 0.0
H980 H 0.07259 0.41181 0.11357 0.0
H981 H 0.07926 0.4041 0.15204 0.0
S982 S 0.19991 0.32431 0.11944 0.0
N983 N 0.17417 0.34336 0.10091 0.0
N984 N 0.18117 0.33473 0.14275 0.0
C985 C 0.15241 0.35479 0.1361 0.0
C986 C 0.14857 0.35951 0.11337 0.0
C987 C 0.91601 0.89526 0.38496 0.0
C988 C 0.89376 0.87662 0.39962 0.0
C989 C 0.9118 0.89096 0.36269 0.0
C990 C 0.88522 0.86772 0.35405 0.0
H991 H 0.93769 0.91252 0.39066 0.0
H992 H 0.93046 0.90518 0.35221 0.0
S993 S 0.81708 0.81584 0.38537 0.0
N994 N 0.84188 0.83638 0.40378 0.0
N995 N 0.83425 0.82821 0.36196 0.0
C996 C 0.86159 0.85027 0.36847 0.0
C997 C 0.86578 0.85474 0.3912 0.0
C998 C 0.36894 0.66563 0.63502 0.0
C999 C 0.3873 0.64316 0.64968 0.0
C1000 C 0.37342 0.66154 0.61275 0.0
C1001 C 0.39654 0.63486 0.60411 0.0
H1002 H 0.35181 0.6874 0.64073 0.0
H1003 H 0.35946 0.68038 0.60228 0.0
S1004 S 0.44754 0.56607 0.6354 0.0
N1005 N 0.42705 0.5909 0.65382 0.0
N1006 N 0.43555 0.58351 0.612 0.0
C1007 C 0.41368 0.611 0.61852 0.0
C1008 C 0.40902 0.61506 0.64125 0.0
C1009 C 0.60318 0.12328 0.86313 0.0
C1010 C 0.63017 0.14598 0.85442 0.0
C1011 C 0.59911 0.11897 0.88542 0.0
C1012 C 0.62191 0.13708 0.9 0.0
H1013 H 0.5841 0.10955 0.85272 0.0
H1014 H 0.5771 0.10219 0.89119 0.0
S1015 S 0.69988 0.19605 0.8855 0.0
N1016 N 0.68216 0.18423 0.86215 0.0
N1017 N 0.67479 0.17604 0.904 0.0
C1018 C 0.65029 0.15835 0.8915 0.0
C1019 C 0.65434 0.16283 0.86876 0.0
C1020 C 0.14614 0.6694 0.36846 0.0
C1021 C 0.1288 0.64611 0.35382 0.0
C1022 C 0.14184 0.66515 0.39073 0.0
C1023 C 0.11992 0.63749 0.39938 0.0
H1024 H 0.16228 0.69192 0.36272 0.0
H1025 H 0.15495 0.68462 0.40118 0.0
S1026 S 0.0721 0.56638 0.36816 0.0
N1027 N 0.09146 0.5921 0.34972 0.0
N1028 N 0.08327 0.5844 0.39155 0.0
C1029 C 0.10387 0.61285 0.385 0.0
C1030 C 0.10835 0.61707 0.36227 0.0
C1031 C 0.60014 0.89095 0.64119 0.0
C1032 C 0.6275 0.86864 0.64983 0.0
C1033 C 0.59605 0.89543 0.61893 0.0
C1034 C 0.6192 0.87789 0.60428 0.0
H1035 H 0.58079 0.90421 0.65166 0.0
H1036 H 0.57375 0.91185 0.6132 0.0
S1037 S 0.69819 0.82021 0.61859 0.0
N1038 N 0.68019 0.83144 0.64198 0.0
N1039 N 0.67279 0.83996 0.60016 0.0
C1040 C 0.64794 0.85706 0.61271 0.0
C1041 C 0.652 0.8524 0.63544 0.0
C1042 C 0.41256 0.38987 0.86259 0.0
C1043 C 0.38563 0.36692 0.85406 0.0
C1044 C 0.41697 0.39424 0.88483 0.0
C1045 C 0.39459 0.37598 0.8996 0.0
H1046 H 0.43137 0.40374 0.85204 0.0
H1047 H 0.43893 0.41123 0.89044 0.0
S1048 S 0.3169 0.3163 0.88566 0.0
N1049 N 0.3341 0.32825 0.86218 0.0
N1050 N 0.34213 0.33657 0.90398 0.0
C1051 C 0.36622 0.35448 0.8913 0.0
C1052 C 0.36183 0.34992 0.86858 0.0
C1053 C 0.87006 0.16738 0.13449 0.0
C1054 C 0.88745 0.14416 0.14915 0.0
C1055 C 0.87482 0.16343 0.11223 0.0
C1056 C 0.89726 0.13614 0.10362 0.0
H1057 H 0.85352 0.18961 0.14019 0.0
H1058 H 0.86164 0.18282 0.10176 0.0
S1059 S 0.94545 0.06538 0.13492 0.0
N1060 N 0.92543 0.09063 0.15333 0.0
N1061 N 0.93447 0.08348 0.11153 0.0
C1062 C 0.91337 0.11158 0.11803 0.0
C1063 C 0.90844 0.11551 0.14075 0.0
C1064 C 0.86842 0.66565 0.86794 0.0
C1065 C 0.88751 0.64389 0.85323 0.0
C1066 C 0.87247 0.66106 0.8902 0.0
C1067 C 0.89587 0.63457 0.89878 0.0
H1068 H 0.851 0.68724 0.8623 0.0
H1069 H 0.85793 0.67937 0.90073 0.0
S1070 S 0.94884 0.56757 0.86727 0.0
N1071 N 0.92832 0.59251 0.84892 0.0
N1072 N 0.936 0.58415 0.89073 0.0
C1073 C 0.91377 0.61141 0.88429 0.0
C1074 C 0.90956 0.61599 0.86156 0.0
C1075 C 0.14116 0.16009 0.61289 0.0
C1076 C 0.11717 0.1342 0.60424 0.0
C1077 C 0.14515 0.16456 0.63516 0.0
C1078 C 0.12543 0.14326 0.64982 0.0
H1079 H 0.15622 0.17806 0.6024 0.0
H1080 H 0.16307 0.1857 0.64086 0.0
S1081 S 0.0623 0.06849 0.6356 0.0
N1082 N 0.07574 0.08478 0.61218 0.0
N1083 N 0.08332 0.09289 0.65401 0.0
C1084 C 0.10275 0.11591 0.64142 0.0
C1085 C 0.0986 0.11146 0.61868 0.0
C1086 C 0.5973 0.39624 0.38409 0.0
C1087 C 0.62083 0.37914 0.39869 0.0
C1088 C 0.60119 0.39158 0.36182 0.0
C1089 C 0.62872 0.36953 0.35315 0.0
H1090 H 0.57485 0.41243 0.38985 0.0
H1091 H 0.58154 0.40449 0.3514 0.0
S1092 S 0.70039 0.32235 0.38424 0.0
N1093 N 0.67496 0.34196 0.40272 0.0
N1094 N 0.68198 0.3331 0.3609 0.0
C1095 C 0.65361 0.35376 0.36748 0.0
C1096 C 0.64975 0.35861 0.39021 0.0
C1097 C 0.37282 0.85227 0.11239 0.0
C1098 C 0.39573 0.87908 0.10368 0.0
C1099 C 0.36852 0.84818 0.13467 0.0
C1100 C 0.38683 0.8708 0.14927 0.0
H1101 H 0.35892 0.83331 0.10197 0.0
H1102 H 0.35157 0.8263 0.14044 0.0
S1103 S 0.44646 0.94828 0.13478 0.0
N1104 N 0.43443 0.93072 0.11142 0.0
N1105 N 0.42625 0.92334 0.15327 0.0
C1106 C 0.40831 0.89904 0.14077 0.0
C1107 C 0.41279 0.90309 0.11802 0.0
C1108 C 0.91299 0.3916 0.64028 0.0
C1109 C 0.8863 0.36838 0.64883 0.0
C1110 C 0.91747 0.39585 0.61802 0.0
C1111 C 0.8954 0.37718 0.60329 0.0
H1112 H 0.93153 0.4058 0.65081 0.0
H1113 H 0.93923 0.41309 0.61238 0.0
S1114 S 0.81847 0.31653 0.61731 0.0
N1115 N 0.83537 0.32891 0.64077 0.0
N1116 N 0.84351 0.337 0.59897 0.0
C1117 C 0.86729 0.35535 0.61162 0.0
C1118 C 0.86283 0.35091 0.63434 0.0
C1119 C 0.36882 0.16888 0.36898 0.0
C1120 C 0.38598 0.14559 0.35426 0.0
C1121 C 0.37343 0.16465 0.39123 0.0
C1122 C 0.3955 0.13701 0.39978 0.0
H1123 H 0.35262 0.19139 0.36334 0.0
H1124 H 0.36049 0.18414 0.40175 0.0
S1125 S 0.44281 0.06586 0.36831 0.0
N1126 N 0.42321 0.09156 0.34996 0.0
N1127 N 0.43199 0.0839 0.39175 0.0
C1128 C 0.41131 0.11235 0.38531 0.0
C1129 C 0.40651 0.11655 0.3626 0.0
C1130 C 0.6444 0.66754 0.13452 0.0
C1131 C 0.62673 0.64448 0.14916 0.0
C1132 C 0.64012 0.66331 0.11225 0.0
C1133 C 0.6179 0.63588 0.10361 0.0
H1134 H 0.66078 0.68988 0.14024 0.0
H1135 H 0.65348 0.68261 0.10178 0.0
S1136 S 0.56919 0.56538 0.13488 0.0
N1137 N 0.58877 0.59091 0.15331 0.0
N1138 N 0.58063 0.58323 0.11148 0.0
C1139 C 0.60153 0.61146 0.11801 0.0
C1140 C 0.60597 0.61568 0.14074 0.0
C1141 C 0.1021 0.89059 0.86268 0.0
C1142 C 0.12844 0.86719 0.85393 0.0
C1143 C 0.09786 0.89461 0.88496 0.0
C1144 C 0.11983 0.8755 0.89954 0.0
H1145 H 0.08364 0.90516 0.85226 0.0
H1146 H 0.07636 0.91203 0.89075 0.0
S1147 S 0.19589 0.81412 0.88503 0.0
N1148 N 0.17895 0.82701 0.86167 0.0
N1149 N 0.17126 0.83465 0.90353 0.0
C1150 C 0.1476 0.85344 0.89103 0.0
C1151 C 0.15182 0.84926 0.86828 0.0
loop_
_geom_bond_atom_site_label_1
_geom_bond_atom_site_label_2
_geom_bond_distance
_geom_bond_site_symmetry_2
_ccdc_geom_bond_type
O0 Cd1 2.223 . S
O0 C8 1.315 . S
Cd1 O0 2.223 . S
Cd1 O4 2.297 . S
Cd1 O5 2.439 . S
Cd1 O11 2.240 . S
Cd2 O3 2.240 . S
Cd2 O10 2.223 . S
Cd2 O12 2.297 . S
Cd2 O13 2.439 . S
O3 Cd2 2.240 . S
O3 C8 1.279 . S
O4 Cd1 2.297 . S
O4 C6 1.247 . S
O5 Cd1 2.439 . S
O5 C6 1.208 . S
C6 O4 1.247 . S
C6 O5 1.208 . S
C7 O12 1.247 . S
C7 O13 1.208 . S
C8 O0 1.315 . S
C8 O3 1.279 . S
C9 O10 1.315 . S
C9 O11 1.279 . S
O10 Cd2 2.223 . S
O10 C9 1.315 . S
O11 Cd1 2.240 . S
O11 C9 1.279 . S
O12 Cd2 2.297 . S
O12 C7 1.247 . S
O13 Cd2 2.439 . S
O13 C7 1.208 . S
O14 Cd15 2.223 . S
O14 C22 1.315 . S
Cd15 O14 2.223 . S
Cd15 O18 2.297 . S
Cd15 O19 2.439 . S
Cd15 O25 2.240 . S
Cd16 O17 2.240 . S
Cd16 O24 2.223 . S
Cd16 O26 2.297 . S
Cd16 O27 2.439 . S
O17 Cd16 2.240 . S
O17 C22 1.279 . S
O18 Cd15 2.297 . S
O18 C20 1.247 . S
O19 Cd15 2.439 . S
O19 C20 1.208 . S
C20 O18 1.247 . S
C20 O19 1.208 . S
C21 O26 1.247 . S
C21 O27 1.208 . S
C22 O14 1.315 . S
C22 O17 1.279 . S
C23 O24 1.315 . S
C23 O25 1.279 . S
O24 Cd16 2.223 . S
O24 C23 1.315 . S
O25 Cd15 2.240 . S
O25 C23 1.279 . S
O26 Cd16 2.297 . S
O26 C21 1.247 . S
O27 Cd16 2.439 . S
O27 C21 1.208 . S
O28 Cd29 2.223 . S
O28 C36 1.315 . S
Cd29 O28 2.223 . S
Cd29 O32 2.297 . S
Cd29 O33 2.439 . S
Cd29 O39 2.240 . S
Cd30 O31 2.240 . S
Cd30 O38 2.223 . S
Cd30 O40 2.297 . S
Cd30 O41 2.439 . S
O31 Cd30 2.240 . S
O31 C36 1.279 . S
O32 Cd29 2.297 . S
O32 C34 1.247 . S
O33 Cd29 2.439 . S
O33 C34 1.208 . S
C34 O32 1.247 . S
C34 O33 1.208 . S
C35 O40 1.247 . S
C35 O41 1.208 . S
C36 O28 1.315 . S
C36 O31 1.279 . S
C37 O38 1.315 . S
C37 O39 1.279 . S
O38 Cd30 2.223 . S
O38 C37 1.315 . S
O39 Cd29 2.240 . S
O39 C37 1.279 . S
O40 Cd30 2.297 . S
O40 C35 1.247 . S
O41 Cd30 2.439 . S
O41 C35 1.208 . S
O42 Cd43 2.223 . S
O42 C50 1.315 . S
Cd43 O42 2.223 . S
Cd43 O46 2.297 . S
Cd43 O47 2.439 . S
Cd43 O53 2.240 . S
Cd44 O45 2.240 . S
Cd44 O52 2.223 . S
Cd44 O54 2.297 . S
Cd44 O55 2.439 . S
O45 Cd44 2.240 . S
O45 C50 1.279 . S
O46 Cd43 2.297 . S
O46 C48 1.247 . S
O47 Cd43 2.439 . S
O47 C48 1.208 . S
C48 O46 1.247 . S
C48 O47 1.208 . S
C49 O54 1.247 . S
C49 O55 1.208 . S
C50 O42 1.315 . S
C50 O45 1.279 . S
C51 O52 1.315 . S
C51 O53 1.279 . S
O52 Cd44 2.223 . S
O52 C51 1.315 . S
O53 Cd43 2.240 . S
O53 C51 1.279 . S
O54 Cd44 2.297 . S
O54 C49 1.247 . S
O55 Cd44 2.439 . S
O55 C49 1.208 . S
O56 Cd57 2.223 . S
O56 C64 1.315 . S
Cd57 O56 2.223 . S
Cd57 O60 2.297 . S
Cd57 O61 2.439 . S
Cd57 O67 2.240 . S
Cd58 O59 2.240 . S
Cd58 O66 2.223 . S
Cd58 O68 2.297 . S
Cd58 O69 2.439 . S
O59 Cd58 2.240 . S
O59 C64 1.279 . S
O60 Cd57 2.297 . S
O60 C62 1.247 . S
O61 Cd57 2.439 . S
O61 C62 1.208 . S
C62 O60 1.247 . S
C62 O61 1.208 . S
C63 O68 1.247 . S
C63 O69 1.208 . S
C64 O56 1.315 . S
C64 O59 1.279 . S
C65 O66 1.315 . S
C65 O67 1.279 . S
O66 Cd58 2.223 . S
O66 C65 1.315 . S
O67 Cd57 2.240 . S
O67 C65 1.279 . S
O68 Cd58 2.297 . S
O68 C63 1.247 . S
O69 Cd58 2.439 . S
O69 C63 1.208 . S
O70 Cd71 2.223 . S
O70 C78 1.315 . S
Cd71 O70 2.223 . S
Cd71 O74 2.297 . S
Cd71 O75 2.439 . S
Cd71 O81 2.240 . S
Cd72 O73 2.240 . S
Cd72 O80 2.223 . S
Cd72 O82 2.297 . S
Cd72 O83 2.439 . S
O73 Cd72 2.240 . S
O73 C78 1.279 . S
O74 Cd71 2.297 . S
O74 C76 1.247 . S
O75 Cd71 2.439 . S
O75 C76 1.208 . S
C76 O74 1.247 . S
C76 O75 1.208 . S
C77 O82 1.247 . S
C77 O83 1.208 . S
C78 O70 1.315 . S
C78 O73 1.279 . S
C79 O80 1.315 . S
C79 O81 1.279 . S
O80 Cd72 2.223 . S
O80 C79 1.315 . S
O81 Cd71 2.240 . S
O81 C79 1.279 . S
O82 Cd72 2.297 . S
O82 C77 1.247 . S
O83 Cd72 2.439 . S
O83 C77 1.208 . S
O84 Cd85 2.223 . S
O84 C92 1.315 . S
Cd85 O84 2.223 . S
Cd85 O88 2.297 . S
Cd85 O89 2.439 . S
Cd85 O95 2.240 . S
Cd86 O87 2.240 . S
Cd86 O94 2.223 . S
Cd86 O96 2.297 . S
Cd86 O97 2.439 . S
O87 Cd86 2.240 . S
O87 C92 1.279 . S
O88 Cd85 2.297 . S
O88 C90 1.247 . S
O89 Cd85 2.439 . S
O89 C90 1.208 . S
C90 O88 1.247 . S
C90 O89 1.208 . S
C91 O96 1.247 . S
C91 O97 1.208 . S
C92 O84 1.315 . S
C92 O87 1.279 . S
C93 O94 1.315 . S
C93 O95 1.279 . S
O94 Cd86 2.223 . S
O94 C93 1.315 . S
O95 Cd85 2.240 . S
O95 C93 1.279 . S
O96 Cd86 2.297 . S
O96 C91 1.247 . S
O97 Cd86 2.439 . S
O97 C91 1.208 . S
O98 Cd99 2.223 . S
O98 C106 1.315 . S
Cd99 O98 2.223 . S
Cd99 O102 2.297 . S
Cd99 O103 2.439 . S
Cd99 O109 2.240 . S
Cd100 O101 2.240 . S
Cd100 O108 2.223 . S
Cd100 O110 2.297 . S
Cd100 O111 2.439 . S
O101 Cd100 2.240 . S
O101 C106 1.279 . S
O102 Cd99 2.297 . S
O102 C104 1.247 . S
O103 Cd99 2.439 . S
O103 C104 1.208 . S
C104 O102 1.247 . S
C104 O103 1.208 . S
C105 O110 1.247 . S
C105 O111 1.208 . S
C106 O98 1.315 . S
C106 O101 1.279 . S
C107 O108 1.315 . S
C107 O109 1.279 . S
O108 Cd100 2.223 . S
O108 C107 1.315 . S
O109 Cd99 2.240 . S
O109 C107 1.279 . S
O110 Cd100 2.297 . S
O110 C105 1.247 . S
O111 Cd100 2.439 . S
O111 C105 1.208 . S
O112 Cd113 2.223 . S
O112 C120 1.315 . S
Cd113 O112 2.223 . S
Cd113 O116 2.297 . S
Cd113 O117 2.439 . S
Cd113 O123 2.240 . S
Cd114 O115 2.240 . S
Cd114 O122 2.223 . S
Cd114 O124 2.297 . S
Cd114 O125 2.439 . S
O115 Cd114 2.240 . S
O115 C120 1.279 . S
O116 Cd113 2.297 . S
O116 C118 1.247 . S
O117 Cd113 2.439 . S
O117 C118 1.208 . S
C118 O116 1.247 . S
C118 O117 1.208 . S
C119 O124 1.247 . S
C119 O125 1.208 . S
C120 O112 1.315 . S
C120 O115 1.279 . S
C121 O122 1.315 . S
C121 O123 1.279 . S
O122 Cd114 2.223 . S
O122 C121 1.315 . S
O123 Cd113 2.240 . S
O123 C121 1.279 . S
O124 Cd114 2.297 . S
O124 C119 1.247 . S
O125 Cd114 2.439 . S
O125 C119 1.208 . S
O126 Cd127 2.223 . S
O126 C134 1.315 . S
Cd127 O126 2.223 . S
Cd127 O130 2.297 . S
Cd127 O131 2.439 . S
Cd127 O137 2.240 . S
Cd128 O129 2.240 . S
Cd128 O136 2.223 . S
Cd128 O138 2.297 . S
Cd128 O139 2.439 . S
O129 Cd128 2.240 . S
O129 C134 1.279 . S
O130 Cd127 2.297 . S
O130 C132 1.247 . S
O131 Cd127 2.439 . S
O131 C132 1.208 . S
C132 O130 1.247 . S
C132 O131 1.208 . S
C133 O138 1.247 . S
C133 O139 1.208 . S
C134 O126 1.315 . S
C134 O129 1.279 . S
C135 O136 1.315 . S
C135 O137 1.279 . S
O136 Cd128 2.223 . S
O136 C135 1.315 . S
O137 Cd127 2.240 . S
O137 C135 1.279 . S
O138 Cd128 2.297 . S
O138 C133 1.247 . S
O139 Cd128 2.439 . S
O139 C133 1.208 . S
O140 Cd141 2.223 . S
O140 C148 1.315 . S
Cd141 O140 2.223 . S
Cd141 O144 2.297 . S
Cd141 O145 2.439 . S
Cd141 O151 2.240 . S
Cd142 O143 2.240 . S
Cd142 O150 2.223 . S
Cd142 O152 2.297 . S
Cd142 O153 2.439 . S
O143 Cd142 2.240 . S
O143 C148 1.279 . S
O144 Cd141 2.297 . S
O144 C146 1.247 . S
O145 Cd141 2.439 . S
O145 C146 1.208 . S
C146 O144 1.247 . S
C146 O145 1.208 . S
C147 O152 1.247 . S
C147 O153 1.208 . S
C148 O140 1.315 . S
C148 O143 1.279 . S
C149 O150 1.315 . S
C149 O151 1.279 . S
O150 Cd142 2.223 . S
O150 C149 1.315 . S
O151 Cd141 2.240 . S
O151 C149 1.279 . S
O152 Cd142 2.297 . S
O152 C147 1.247 . S
O153 Cd142 2.439 . S
O153 C147 1.208 . S
O154 Cd155 2.223 . S
O154 C162 1.315 . S
Cd155 O154 2.223 . S
Cd155 O158 2.297 . S
Cd155 O159 2.439 . S
Cd155 O165 2.240 . S
Cd156 O157 2.240 . S
Cd156 O164 2.223 . S
Cd156 O166 2.297 . S
Cd156 O167 2.439 . S
O157 Cd156 2.240 . S
O157 C162 1.279 . S
O158 Cd155 2.297 . S
O158 C160 1.247 . S
O159 Cd155 2.439 . S
O159 C160 1.208 . S
C160 O158 1.247 . S
C160 O159 1.208 . S
C161 O166 1.247 . S
C161 O167 1.208 . S
C162 O154 1.315 . S
C162 O157 1.279 . S
C163 O164 1.315 . S
C163 O165 1.279 . S
O164 Cd156 2.223 . S
O164 C163 1.315 . S
O165 Cd155 2.240 . S
O165 C163 1.279 . S
O166 Cd156 2.297 . S
O166 C161 1.247 . S
O167 Cd156 2.439 . S
O167 C161 1.208 . S
O168 Cd169 2.223 . S
O168 C176 1.315 . S
Cd169 O168 2.223 . S
Cd169 O172 2.297 . S
Cd169 O173 2.439 . S
Cd169 O179 2.240 . S
Cd170 O171 2.240 . S
Cd170 O178 2.223 . S
Cd170 O180 2.297 . S
Cd170 O181 2.439 . S
O171 Cd170 2.240 . S
O171 C176 1.279 . S
O172 Cd169 2.297 . S
O172 C174 1.247 . S
O173 Cd169 2.439 . S
O173 C174 1.208 . S
C174 O172 1.247 . S
C174 O173 1.208 . S
C175 O180 1.247 . S
C175 O181 1.208 . S
C176 O168 1.315 . S
C176 O171 1.279 . S
C177 O178 1.315 . S
C177 O179 1.279 . S
O178 Cd170 2.223 . S
O178 C177 1.315 . S
O179 Cd169 2.240 . S
O179 C177 1.279 . S
O180 Cd170 2.297 . S
O180 C175 1.247 . S
O181 Cd170 2.439 . S
O181 C175 1.208 . S
O182 Cd183 2.223 . S
O182 C190 1.315 . S
Cd183 O182 2.223 . S
Cd183 O186 2.297 . S
Cd183 O187 2.439 . S
Cd183 O193 2.240 . S
Cd184 O185 2.240 . S
Cd184 O192 2.223 . S
Cd184 O194 2.297 . S
Cd184 O195 2.439 . S
O185 Cd184 2.240 . S
O185 C190 1.279 . S
O186 Cd183 2.297 . S
O186 C188 1.247 . S
O187 Cd183 2.439 . S
O187 C188 1.208 . S
C188 O186 1.247 . S
C188 O187 1.208 . S
C189 O194 1.247 . S
C189 O195 1.208 . S
C190 O182 1.315 . S
C190 O185 1.279 . S
C191 O192 1.315 . S
C191 O193 1.279 . S
O192 Cd184 2.223 . S
O192 C191 1.315 . S
O193 Cd183 2.240 . S
O193 C191 1.279 . S
O194 Cd184 2.297 . S
O194 C189 1.247 . S
O195 Cd184 2.439 . S
O195 C189 1.208 . S
O196 Cd197 2.223 . S
O196 C204 1.315 . S
Cd197 O196 2.223 . S
Cd197 O200 2.297 . S
Cd197 O201 2.439 . S
Cd197 O207 2.240 . S
Cd198 O199 2.240 . S
Cd198 O206 2.223 . S
Cd198 O208 2.297 . S
Cd198 O209 2.439 . S
O199 Cd198 2.240 . S
O199 C204 1.279 . S
O200 Cd197 2.297 . S
O200 C202 1.247 . S
O201 Cd197 2.439 . S
O201 C202 1.208 . S
C202 O200 1.247 . S
C202 O201 1.208 . S
C203 O208 1.247 . S
C203 O209 1.208 . S
C204 O196 1.315 . S
C204 O199 1.279 . S
C205 O206 1.315 . S
C205 O207 1.279 . S
O206 Cd198 2.223 . S
O206 C205 1.315 . S
O207 Cd197 2.240 . S
O207 C205 1.279 . S
O208 Cd198 2.297 . S
O208 C203 1.247 . S
O209 Cd198 2.439 . S
O209 C203 1.208 . S
O210 Cd211 2.223 . S
O210 C218 1.315 . S
Cd211 O210 2.223 . S
Cd211 O214 2.297 . S
Cd211 O215 2.439 . S
Cd211 O221 2.240 . S
Cd212 O213 2.240 . S
Cd212 O220 2.223 . S
Cd212 O222 2.297 . S
Cd212 O223 2.439 . S
O213 Cd212 2.240 . S
O213 C218 1.279 . S
O214 Cd211 2.297 . S
O214 C216 1.247 . S
O215 Cd211 2.439 . S
O215 C216 1.208 . S
C216 O214 1.247 . S
C216 O215 1.208 . S
C217 O222 1.247 . S
C217 O223 1.208 . S
C218 O210 1.315 . S
C218 O213 1.279 . S
C219 O220 1.315 . S
C219 O221 1.279 . S
O220 Cd212 2.223 . S
O220 C219 1.315 . S
O221 Cd211 2.240 . S
O221 C219 1.279 . S
O222 Cd212 2.297 . S
O222 C217 1.247 . S
O223 Cd212 2.439 . S
O223 C217 1.208 . S
O224 Cd225 2.223 . S
O224 C232 1.315 . S
Cd225 O224 2.223 . S
Cd225 O228 2.297 . S
Cd225 O229 2.439 . S
Cd225 O235 2.240 . S
Cd226 O227 2.240 . S
Cd226 O234 2.223 . S
Cd226 O236 2.297 . S
Cd226 O237 2.439 . S
O227 Cd226 2.240 . S
O227 C232 1.279 . S
O228 Cd225 2.297 . S
O228 C230 1.247 . S
O229 Cd225 2.439 . S
O229 C230 1.208 . S
C230 O228 1.247 . S
C230 O229 1.208 . S
C231 O236 1.247 . S
C231 O237 1.208 . S
C232 O224 1.315 . S
C232 O227 1.279 . S
C233 O234 1.315 . S
C233 O235 1.279 . S
O234 Cd226 2.223 . S
O234 C233 1.315 . S
O235 Cd225 2.240 . S
O235 C233 1.279 . S
O236 Cd226 2.297 . S
O236 C231 1.247 . S
O237 Cd226 2.439 . S
O237 C231 1.208 . S
O238 Cd239 2.223 . S
O238 C246 1.315 . S
Cd239 O238 2.223 . S
Cd239 O242 2.297 . S
Cd239 O243 2.439 . S
Cd239 O249 2.240 . S
Cd240 O241 2.240 . S
Cd240 O248 2.223 . S
Cd240 O250 2.297 . S
Cd240 O251 2.439 . S
O241 Cd240 2.240 . S
O241 C246 1.279 . S
O242 Cd239 2.297 . S
O242 C244 1.247 . S
O243 Cd239 2.439 . S
O243 C244 1.208 . S
C244 O242 1.247 . S
C244 O243 1.208 . S
C245 O250 1.247 . S
C245 O251 1.208 . S
C246 O238 1.315 . S
C246 O241 1.279 . S
C247 O248 1.315 . S
C247 O249 1.279 . S
O248 Cd240 2.223 . S
O248 C247 1.315 . S
O249 Cd239 2.240 . S
O249 C247 1.279 . S
O250 Cd240 2.297 . S
O250 C245 1.247 . S
O251 Cd240 2.439 . S
O251 C245 1.208 . S
O252 Cd253 2.223 . S
O252 C260 1.315 . S
Cd253 O252 2.223 . S
Cd253 O256 2.297 . S
Cd253 O257 2.439 . S
Cd253 O263 2.240 . S
Cd254 O255 2.240 . S
Cd254 O262 2.223 . S
Cd254 O264 2.297 . S
Cd254 O265 2.439 . S
O255 Cd254 2.240 . S
O255 C260 1.279 . S
O256 Cd253 2.297 . S
O256 C258 1.247 . S
O257 Cd253 2.439 . S
O257 C258 1.208 . S
C258 O256 1.247 . S
C258 O257 1.208 . S
C259 O264 1.247 . S
C259 O265 1.208 . S
C260 O252 1.315 . S
C260 O255 1.279 . S
C261 O262 1.315 . S
C261 O263 1.279 . S
O262 Cd254 2.223 . S
O262 C261 1.315 . S
O263 Cd253 2.240 . S
O263 C261 1.279 . S
O264 Cd254 2.297 . S
O264 C259 1.247 . S
O265 Cd254 2.439 . S
O265 C259 1.208 . S
O266 Cd267 2.223 . S
O266 C274 1.315 . S
Cd267 O266 2.223 . S
Cd267 O270 2.297 . S
Cd267 O271 2.439 . S
Cd267 O277 2.240 . S
Cd268 O269 2.240 . S
Cd268 O276 2.223 . S
Cd268 O278 2.297 . S
Cd268 O279 2.439 . S
O269 Cd268 2.240 . S
O269 C274 1.279 . S
O270 Cd267 2.297 . S
O270 C272 1.247 . S
O271 Cd267 2.439 . S
O271 C272 1.208 . S
C272 O270 1.247 . S
C272 O271 1.208 . S
C273 O278 1.247 . S
C273 O279 1.208 . S
C274 O266 1.315 . S
C274 O269 1.279 . S
C275 O276 1.315 . S
C275 O277 1.279 . S
O276 Cd268 2.223 . S
O276 C275 1.315 . S
O277 Cd267 2.240 . S
O277 C275 1.279 . S
O278 Cd268 2.297 . S
O278 C273 1.247 . S
O279 Cd268 2.439 . S
O279 C273 1.208 . S
O280 Cd281 2.223 . S
O280 C288 1.315 . S
Cd281 O280 2.223 . S
Cd281 O284 2.297 . S
Cd281 O285 2.439 . S
Cd281 O291 2.240 . S
Cd282 O283 2.240 . S
Cd282 O290 2.223 . S
Cd282 O292 2.297 . S
Cd282 O293 2.439 . S
O283 Cd282 2.240 . S
O283 C288 1.279 . S
O284 Cd281 2.297 . S
O284 C286 1.247 . S
O285 Cd281 2.439 . S
O285 C286 1.208 . S
C286 O284 1.247 . S
C286 O285 1.208 . S
C287 O292 1.247 . S
C287 O293 1.208 . S
C288 O280 1.315 . S
C288 O283 1.279 . S
C289 O290 1.315 . S
C289 O291 1.279 . S
O290 Cd282 2.223 . S
O290 C289 1.315 . S
O291 Cd281 2.240 . S
O291 C289 1.279 . S
O292 Cd282 2.297 . S
O292 C287 1.247 . S
O293 Cd282 2.439 . S
O293 C287 1.208 . S
O294 Cd295 2.223 . S
O294 C302 1.315 . S
Cd295 O294 2.223 . S
Cd295 O298 2.297 . S
Cd295 O299 2.439 . S
Cd295 O305 2.240 . S
Cd296 O297 2.240 . S
Cd296 O304 2.223 . S
Cd296 O306 2.297 . S
Cd296 O307 2.439 . S
O297 Cd296 2.240 . S
O297 C302 1.279 . S
O298 Cd295 2.297 . S
O298 C300 1.247 . S
O299 Cd295 2.439 . S
O299 C300 1.208 . S
C300 O298 1.247 . S
C300 O299 1.208 . S
C301 O306 1.247 . S
C301 O307 1.208 . S
C302 O294 1.315 . S
C302 O297 1.279 . S
C303 O304 1.315 . S
C303 O305 1.279 . S
O304 Cd296 2.223 . S
O304 C303 1.315 . S
O305 Cd295 2.240 . S
O305 C303 1.279 . S
O306 Cd296 2.297 . S
O306 C301 1.247 . S
O307 Cd296 2.439 . S
O307 C301 1.208 . S
O308 Cd309 2.223 . S
O308 C316 1.315 . S
Cd309 O308 2.223 . S
Cd309 O312 2.297 . S
Cd309 O313 2.439 . S
Cd309 O319 2.240 . S
Cd310 O311 2.240 . S
Cd310 O318 2.223 . S
Cd310 O320 2.297 . S
Cd310 O321 2.439 . S
O311 Cd310 2.240 . S
O311 C316 1.279 . S
O312 Cd309 2.297 . S
O312 C314 1.247 . S
O313 Cd309 2.439 . S
O313 C314 1.208 . S
C314 O312 1.247 . S
C314 O313 1.208 . S
C315 O320 1.247 . S
C315 O321 1.208 . S
C316 O308 1.315 . S
C316 O311 1.279 . S
C317 O318 1.315 . S
C317 O319 1.279 . S
O318 Cd310 2.223 . S
O318 C317 1.315 . S
O319 Cd309 2.240 . S
O319 C317 1.279 . S
O320 Cd310 2.297 . S
O320 C315 1.247 . S
O321 Cd310 2.439 . S
O321 C315 1.208 . S
O322 Cd323 2.223 . S
O322 C330 1.315 . S
Cd323 O322 2.223 . S
Cd323 O326 2.297 . S
Cd323 O327 2.439 . S
Cd323 O333 2.240 . S
Cd324 O325 2.240 . S
Cd324 O332 2.223 . S
Cd324 O334 2.297 . S
Cd324 O335 2.439 . S
O325 Cd324 2.240 . S
O325 C330 1.279 . S
O326 Cd323 2.297 . S
O326 C328 1.247 . S
O327 Cd323 2.439 . S
O327 C328 1.208 . S
C328 O326 1.247 . S
C328 O327 1.208 . S
C329 O334 1.247 . S
C329 O335 1.208 . S
C330 O322 1.315 . S
C330 O325 1.279 . S
C331 O332 1.315 . S
C331 O333 1.279 . S
O332 Cd324 2.223 . S
O332 C331 1.315 . S
O333 Cd323 2.240 . S
O333 C331 1.279 . S
O334 Cd324 2.297 . S
O334 C329 1.247 . S
O335 Cd324 2.439 . S
O335 C329 1.208 . S
O336 Cd337 2.223 . S
O336 C344 1.315 . S
Cd337 O336 2.223 . S
Cd337 O340 2.297 . S
Cd337 O341 2.439 . S
Cd337 O347 2.240 . S
Cd338 O339 2.240 . S
Cd338 O346 2.223 . S
Cd338 O348 2.297 . S
Cd338 O349 2.439 . S
O339 Cd338 2.240 . S
O339 C344 1.279 . S
O340 Cd337 2.297 . S
O340 C342 1.247 . S
O341 Cd337 2.439 . S
O341 C342 1.208 . S
C342 O340 1.247 . S
C342 O341 1.208 . S
C343 O348 1.247 . S
C343 O349 1.208 . S
C344 O336 1.315 . S
C344 O339 1.279 . S
C345 O346 1.315 . S
C345 O347 1.279 . S
O346 Cd338 2.223 . S
O346 C345 1.315 . S
O347 Cd337 2.240 . S
O347 C345 1.279 . S
O348 Cd338 2.297 . S
O348 C343 1.247 . S
O349 Cd338 2.439 . S
O349 C343 1.208 . S
O350 Cd351 2.223 . S
O350 C358 1.315 . S
Cd351 O350 2.223 . S
Cd351 O354 2.297 . S
Cd351 O355 2.439 . S
Cd351 O361 2.240 . S
Cd352 O353 2.240 . S
Cd352 O360 2.223 . S
Cd352 O362 2.297 . S
Cd352 O363 2.439 . S
O353 Cd352 2.240 . S
O353 C358 1.279 . S
O354 Cd351 2.297 . S
O354 C356 1.247 . S
O355 Cd351 2.439 . S
O355 C356 1.208 . S
C356 O354 1.247 . S
C356 O355 1.208 . S
C357 O362 1.247 . S
C357 O363 1.208 . S
C358 O350 1.315 . S
C358 O353 1.279 . S
C359 O360 1.315 . S
C359 O361 1.279 . S
O360 Cd352 2.223 . S
O360 C359 1.315 . S
O361 Cd351 2.240 . S
O361 C359 1.279 . S
O362 Cd352 2.297 . S
O362 C357 1.247 . S
O363 Cd352 2.439 . S
O363 C357 1.208 . S
O364 Cd365 2.223 . S
O364 C372 1.315 . S
Cd365 O364 2.223 . S
Cd365 O368 2.297 . S
Cd365 O369 2.439 . S
Cd365 O375 2.240 . S
Cd366 O367 2.240 . S
Cd366 O374 2.223 . S
Cd366 O376 2.297 . S
Cd366 O377 2.439 . S
O367 Cd366 2.240 . S
O367 C372 1.279 . S
O368 Cd365 2.297 . S
O368 C370 1.247 . S
O369 Cd365 2.439 . S
O369 C370 1.208 . S
C370 O368 1.247 . S
C370 O369 1.208 . S
C371 O376 1.247 . S
C371 O377 1.208 . S
C372 O364 1.315 . S
C372 O367 1.279 . S
C373 O374 1.315 . S
C373 O375 1.279 . S
O374 Cd366 2.223 . S
O374 C373 1.315 . S
O375 Cd365 2.240 . S
O375 C373 1.279 . S
O376 Cd366 2.297 . S
O376 C371 1.247 . S
O377 Cd366 2.439 . S
O377 C371 1.208 . S
O378 Cd379 2.223 . S
O378 C386 1.315 . S
Cd379 O378 2.223 . S
Cd379 O382 2.297 . S
Cd379 O383 2.439 . S
Cd379 O389 2.240 . S
Cd380 O381 2.240 . S
Cd380 O388 2.223 . S
Cd380 O390 2.297 . S
Cd380 O391 2.439 . S
O381 Cd380 2.240 . S
O381 C386 1.279 . S
O382 Cd379 2.297 . S
O382 C384 1.247 . S
O383 Cd379 2.439 . S
O383 C384 1.208 . S
C384 O382 1.247 . S
C384 O383 1.208 . S
C385 O390 1.247 . S
C385 O391 1.208 . S
C386 O378 1.315 . S
C386 O381 1.279 . S
C387 O388 1.315 . S
C387 O389 1.279 . S
O388 Cd380 2.223 . S
O388 C387 1.315 . S
O389 Cd379 2.240 . S
O389 C387 1.279 . S
O390 Cd380 2.297 . S
O390 C385 1.247 . S
O391 Cd380 2.439 . S
O391 C385 1.208 . S
O392 Cd393 2.223 . S
O392 C400 1.315 . S
Cd393 O392 2.223 . S
Cd393 O396 2.297 . S
Cd393 O397 2.439 . S
Cd393 O403 2.240 . S
Cd394 O395 2.240 . S
Cd394 O402 2.223 . S
Cd394 O404 2.297 . S
Cd394 O405 2.439 . S
O395 Cd394 2.240 . S
O395 C400 1.279 . S
O396 Cd393 2.297 . S
O396 C398 1.247 . S
O397 Cd393 2.439 . S
O397 C398 1.208 . S
C398 O396 1.247 . S
C398 O397 1.208 . S
C399 O404 1.247 . S
C399 O405 1.208 . S
C400 O392 1.315 . S
C400 O395 1.279 . S
C401 O402 1.315 . S
C401 O403 1.279 . S
O402 Cd394 2.223 . S
O402 C401 1.315 . S
O403 Cd393 2.240 . S
O403 C401 1.279 . S
O404 Cd394 2.297 . S
O404 C399 1.247 . S
O405 Cd394 2.439 . S
O405 C399 1.208 . S
O406 Cd407 2.223 . S
O406 C414 1.315 . S
Cd407 O406 2.223 . S
Cd407 O410 2.297 . S
Cd407 O411 2.439 . S
Cd407 O417 2.240 . S
Cd408 O409 2.240 . S
Cd408 O416 2.223 . S
Cd408 O418 2.297 . S
Cd408 O419 2.439 . S
O409 Cd408 2.240 . S
O409 C414 1.279 . S
O410 Cd407 2.297 . S
O410 C412 1.247 . S
O411 Cd407 2.439 . S
O411 C412 1.208 . S
C412 O410 1.247 . S
C412 O411 1.208 . S
C413 O418 1.247 . S
C413 O419 1.208 . S
C414 O406 1.315 . S
C414 O409 1.279 . S
C415 O416 1.315 . S
C415 O417 1.279 . S
O416 Cd408 2.223 . S
O416 C415 1.315 . S
O417 Cd407 2.240 . S
O417 C415 1.279 . S
O418 Cd408 2.297 . S
O418 C413 1.247 . S
O419 Cd408 2.439 . S
O419 C413 1.208 . S
O420 Cd421 2.223 . S
O420 C428 1.315 . S
Cd421 O420 2.223 . S
Cd421 O424 2.297 . S
Cd421 O425 2.439 . S
Cd421 O431 2.240 . S
Cd422 O423 2.240 . S
Cd422 O430 2.223 . S
Cd422 O432 2.297 . S
Cd422 O433 2.439 . S
O423 Cd422 2.240 . S
O423 C428 1.279 . S
O424 Cd421 2.297 . S
O424 C426 1.247 . S
O425 Cd421 2.439 . S
O425 C426 1.208 . S
C426 O424 1.247 . S
C426 O425 1.208 . S
C427 O432 1.247 . S
C427 O433 1.208 . S
C428 O420 1.315 . S
C428 O423 1.279 . S
C429 O430 1.315 . S
C429 O431 1.279 . S
O430 Cd422 2.223 . S
O430 C429 1.315 . S
O431 Cd421 2.240 . S
O431 C429 1.279 . S
O432 Cd422 2.297 . S
O432 C427 1.247 . S
O433 Cd422 2.439 . S
O433 C427 1.208 . S
O434 Cd435 2.223 . S
O434 C442 1.315 . S
Cd435 O434 2.223 . S
Cd435 O438 2.297 . S
Cd435 O439 2.439 . S
Cd435 O445 2.240 . S
Cd436 O437 2.240 . S
Cd436 O444 2.223 . S
Cd436 O446 2.297 . S
Cd436 O447 2.439 . S
O437 Cd436 2.240 . S
O437 C442 1.279 . S
O438 Cd435 2.297 . S
O438 C440 1.247 . S
O439 Cd435 2.439 . S
O439 C440 1.208 . S
C440 O438 1.247 . S
C440 O439 1.208 . S
C441 O446 1.247 . S
C441 O447 1.208 . S
C442 O434 1.315 . S
C442 O437 1.279 . S
C443 O444 1.315 . S
C443 O445 1.279 . S
O444 Cd436 2.223 . S
O444 C443 1.315 . S
O445 Cd435 2.240 . S
O445 C443 1.279 . S
O446 Cd436 2.297 . S
O446 C441 1.247 . S
O447 Cd436 2.439 . S
O447 C441 1.208 . S
C448 C449 1.357 1_455 S
C448 C450 1.430 . S
C448 H452 0.932 . S
C449 C448 1.357 1_655 S
C449 C458 1.429 1_556 S
C450 C448 1.430 . S
C450 C451 1.363 1_556 S
C450 H453 0.929 . S
C451 C450 1.363 1_554 S
C451 C457 1.414 1_455 S
H452 C448 0.932 . S
H453 C450 0.929 . S
S454 N455 1.613 . S
S454 N456 1.610 . S
N455 S454 1.613 . S
N455 C458 1.350 . S
N456 S454 1.610 . S
N456 C457 1.353 . S
C457 C451 1.414 1_655 S
C457 N456 1.353 . S
C457 C458 1.448 . S
C458 C449 1.429 1_554 S
C458 N455 1.350 . S
C458 C457 1.448 . S
C459 C460 1.369 . S
C459 C461 1.419 . S
C459 H463 0.930 . S
C460 C459 1.369 . S
C460 C469 1.429 . S
C461 C459 1.419 . S
C461 C462 1.363 . S
C461 H464 0.929 . S
C462 C461 1.363 . S
C462 C468 1.428 . S
H463 C459 0.930 . S
H464 C461 0.929 . S
S465 N466 1.613 . S
S465 N467 1.610 . S
N466 S465 1.613 . S
N466 C469 1.350 . S
N467 S465 1.610 . S
N467 C468 1.351 . S
C468 C462 1.428 . S
C468 N467 1.351 . S
C468 C469 1.434 . S
C469 C460 1.429 . S
C469 N466 1.350 . S
C469 C468 1.434 . S
C470 C471 1.369 . S
C470 C472 1.419 . S
C470 H474 0.930 . S
C471 C470 1.369 . S
C471 C480 1.429 . S
C472 C470 1.419 . S
C472 C473 1.363 . S
C472 H475 0.929 . S
C473 C472 1.363 . S
C473 C479 1.428 . S
H474 C470 0.930 . S
H475 C472 0.929 . S
S476 N477 1.613 . S
S476 N478 1.610 . S
N477 S476 1.613 . S
N477 C480 1.350 . S
N478 S476 1.610 . S
N478 C479 1.351 . S
C479 C473 1.428 . S
C479 N478 1.351 . S
C479 C480 1.434 . S
C480 C471 1.429 . S
C480 N477 1.350 . S
C480 C479 1.434 . S
C481 C482 1.369 . S
C481 C483 1.419 . S
C481 H485 0.930 . S
C482 C481 1.369 . S
C482 C491 1.429 . S
C483 C481 1.419 . S
C483 C484 1.363 . S
C483 H486 0.929 . S
C484 C483 1.363 . S
C484 C490 1.428 . S
H485 C481 0.930 . S
H486 C483 0.929 . S
S487 N488 1.613 . S
S487 N489 1.610 . S
N488 S487 1.613 . S
N488 C491 1.350 . S
N489 S487 1.610 . S
N489 C490 1.351 . S
C490 C484 1.428 . S
C490 N489 1.351 . S
C490 C491 1.434 . S
C491 C482 1.429 . S
C491 N488 1.350 . S
C491 C490 1.434 . S
C492 C493 1.369 . S
C492 C494 1.419 . S
C492 H496 0.930 . S
C493 C492 1.369 . S
C493 C502 1.429 1_655 S
C494 C492 1.419 . S
C494 C495 1.363 1_655 S
C494 H497 0.929 . S
C495 C494 1.363 1_455 S
C495 C501 1.428 . S
H496 C492 0.930 . S
H497 C494 0.929 . S
S498 N499 1.613 . S
S498 N500 1.610 . S
N499 S498 1.613 . S
N499 C502 1.350 . S
N500 S498 1.610 . S
N500 C501 1.351 . S
C501 C495 1.428 . S
C501 N500 1.351 . S
C501 C502 1.434 . S
C502 C493 1.429 1_455 S
C502 N499 1.350 . S
C502 C501 1.434 . S
C503 C504 1.369 . S
C503 C505 1.419 . S
C503 H507 0.930 . S
C504 C503 1.369 . S
C504 C513 1.429 . S
C505 C503 1.419 . S
C505 C506 1.363 . S
C505 H508 0.929 . S
C506 C505 1.363 . S
C506 C512 1.428 . S
H507 C503 0.930 . S
H508 C505 0.929 . S
S509 N510 1.613 . S
S509 N511 1.610 . S
N510 S509 1.613 . S
N510 C513 1.350 . S
N511 S509 1.610 . S
N511 C512 1.351 . S
C512 C506 1.428 . S
C512 N511 1.351 . S
C512 C513 1.434 . S
C513 C504 1.429 . S
C513 N510 1.350 . S
C513 C512 1.434 . S
C514 C515 1.369 . S
C514 C516 1.419 . S
C514 H518 0.930 . S
C515 C514 1.369 . S
C515 C524 1.429 1_556 S
C516 C514 1.419 . S
C516 C517 1.363 1_556 S
C516 H519 0.929 . S
C517 C516 1.363 1_554 S
C517 C523 1.428 . S
H518 C514 0.930 . S
H519 C516 0.929 . S
S520 N521 1.613 . S
S520 N522 1.610 . S
N521 S520 1.613 . S
N521 C524 1.350 . S
N522 S520 1.610 . S
N522 C523 1.351 . S
C523 C517 1.428 . S
C523 N522 1.351 . S
C523 C524 1.434 . S
C524 C515 1.429 1_554 S
C524 N521 1.350 . S
C524 C523 1.434 . S
C525 C526 1.369 . S
C525 C527 1.419 . S
C525 H529 0.930 . S
C526 C525 1.369 . S
C526 C535 1.429 . S
C527 C525 1.419 . S
C527 C528 1.363 . S
C527 H530 0.929 . S
C528 C527 1.363 . S
C528 C534 1.428 . S
H529 C525 0.930 . S
H530 C527 0.929 . S
S531 N532 1.613 . S
S531 N533 1.610 . S
N532 S531 1.613 . S
N532 C535 1.350 . S
N533 S531 1.610 . S
N533 C534 1.351 . S
C534 C528 1.428 . S
C534 N533 1.351 . S
C534 C535 1.434 . S
C535 C526 1.429 . S
C535 N532 1.350 . S
C535 C534 1.434 . S
C536 C537 1.369 . S
C536 C538 1.419 . S
C536 H540 0.930 . S
C537 C536 1.369 . S
C537 C546 1.429 . S
C538 C536 1.419 . S
C538 C539 1.363 . S
C538 H541 0.929 . S
C539 C538 1.363 . S
C539 C545 1.428 . S
H540 C536 0.930 . S
H541 C538 0.929 . S
S542 N543 1.613 . S
S542 N544 1.610 . S
N543 S542 1.613 . S
N543 C546 1.350 . S
N544 S542 1.610 . S
N544 C545 1.351 . S
C545 C539 1.428 . S
C545 N544 1.351 . S
C545 C546 1.434 . S
C546 C537 1.429 . S
C546 N543 1.350 . S
C546 C545 1.434 . S
C547 C548 1.369 . S
C547 C549 1.419 . S
C547 H551 0.930 . S
C548 C547 1.369 . S
C548 C557 1.429 . S
C549 C547 1.419 . S
C549 C550 1.363 . S
C549 H552 0.929 . S
C550 C549 1.363 . S
C550 C556 1.428 . S
H551 C547 0.930 . S
H552 C549 0.929 . S
S553 N554 1.613 . S
S553 N555 1.610 . S
N554 S553 1.613 . S
N554 C557 1.350 . S
N555 S553 1.610 . S
N555 C556 1.351 . S
C556 C550 1.428 . S
C556 N555 1.351 . S
C556 C557 1.434 . S
C557 C548 1.429 . S
C557 N554 1.350 . S
C557 C556 1.434 . S
C558 C559 1.369 . S
C558 C560 1.419 . S
C558 H562 0.930 . S
C559 C558 1.369 . S
C559 C568 1.429 . S
C560 C558 1.419 . S
C560 C561 1.363 . S
C560 H563 0.929 . S
C561 C560 1.363 . S
C561 C567 1.428 . S
H562 C558 0.930 . S
H563 C560 0.929 . S
S564 N565 1.613 . S
S564 N566 1.610 . S
N565 S564 1.613 . S
N565 C568 1.350 . S
N566 S564 1.610 . S
N566 C567 1.351 . S
C567 C561 1.428 . S
C567 N566 1.351 . S
C567 C568 1.434 . S
C568 C559 1.429 . S
C568 N565 1.350 . S
C568 C567 1.434 . S
C569 C570 1.369 . S
C569 C571 1.419 . S
C569 H573 0.930 . S
C570 C569 1.369 . S
C570 C579 1.429 . S
C571 C569 1.419 . S
C571 C572 1.363 . S
C571 H574 0.929 . S
C572 C571 1.363 . S
C572 C578 1.428 . S
H573 C569 0.930 . S
H574 C571 0.929 . S
S575 N576 1.613 . S
S575 N577 1.610 . S
N576 S575 1.613 . S
N576 C579 1.350 . S
N577 S575 1.610 . S
N577 C578 1.351 . S
C578 C572 1.428 . S
C578 N577 1.351 . S
C578 C579 1.434 . S
C579 C570 1.429 . S
C579 N576 1.350 . S
C579 C578 1.434 . S
C580 C581 1.369 . S
C580 C582 1.419 1_565 S
C580 H584 0.930 . S
C581 C580 1.369 . S
C581 C590 1.429 . S
C582 C580 1.419 1_545 S
C582 C583 1.363 . S
C582 H585 0.929 . S
C583 C582 1.363 . S
C583 C589 1.428 . S
H584 C580 0.930 . S
H585 C582 0.929 . S
S586 N587 1.613 . S
S586 N588 1.610 . S
N587 S586 1.613 . S
N587 C590 1.350 . S
N588 S586 1.610 . S
N588 C589 1.351 1_565 S
C589 C583 1.428 . S
C589 N588 1.351 1_545 S
C589 C590 1.434 1_545 S
C590 C581 1.429 . S
C590 N587 1.350 . S
C590 C589 1.434 1_565 S
C591 C592 1.369 . S
C591 C593 1.419 1_465 S
C591 H595 0.930 . S
C592 C591 1.369 . S
C592 C601 1.429 1_556 S
C593 C591 1.419 1_645 S
C593 C594 1.363 1_556 S
C593 H596 0.929 . S
C594 C593 1.363 1_554 S
C594 C600 1.428 . S
H595 C591 0.930 . S
H596 C593 0.929 . S
S597 N598 1.613 . S
S597 N599 1.610 1_465 S
N598 S597 1.613 . S
N598 C601 1.350 . S
N599 S597 1.610 1_645 S
N599 C600 1.351 . S
C600 C594 1.428 . S
C600 N599 1.351 . S
C600 C601 1.434 1_645 S
C601 C592 1.429 1_554 S
C601 N598 1.350 . S
C601 C600 1.434 1_465 S
C602 C603 1.369 . S
C602 C604 1.419 1_545 S
C602 H606 0.930 . S
C603 C602 1.369 . S
C603 C612 1.429 1_556 S
C604 C602 1.419 1_565 S
C604 C605 1.363 1_556 S
C604 H607 0.929 . S
C605 C604 1.363 1_554 S
C605 C611 1.428 . S
H606 C602 0.930 . S
H607 C604 0.929 . S
S608 N609 1.613 . S
S608 N610 1.610 . S
N609 S608 1.613 . S
N609 C612 1.350 . S
N610 S608 1.610 . S
N610 C611 1.351 1_545 S
C611 C605 1.428 . S
C611 N610 1.351 1_565 S
C611 C612 1.434 1_565 S
C612 C603 1.429 1_554 S
C612 N609 1.350 . S
C612 C611 1.434 1_545 S
C613 C614 1.369 . S
C613 C615 1.419 1_545 S
C613 H617 0.930 . S
C614 C613 1.369 . S
C614 C623 1.429 1_455 S
C615 C613 1.419 1_565 S
C615 C616 1.363 1_455 S
C615 H618 0.929 . S
C616 C615 1.363 1_655 S
C616 C622 1.428 . S
H617 C613 0.930 . S
H618 C615 0.929 . S
S619 N620 1.613 . S
S619 N621 1.603 1_545 S
N620 S619 1.613 . S
N620 C623 1.350 . S
N621 S619 1.603 1_565 S
N621 C622 1.352 . S
C622 C616 1.428 . S
C622 N621 1.352 . S
C622 C623 1.434 1_565 S
C623 C614 1.429 1_655 S
C623 N620 1.350 . S
C623 C622 1.434 1_545 S
C624 C625 1.369 . S
C624 C626 1.419 . S
C624 H628 0.930 . S
C625 C624 1.369 . S
C625 C634 1.429 1_655 S
C626 C624 1.419 . S
C626 C627 1.363 1_655 S
C626 H629 0.929 . S
C627 C626 1.363 1_455 S
C627 C633 1.428 . S
H628 C624 0.930 . S
H629 C626 0.929 . S
S630 N631 1.613 . S
S630 N632 1.610 . S
N631 S630 1.613 . S
N631 C634 1.350 . S
N632 S630 1.610 . S
N632 C633 1.351 . S
C633 C627 1.428 . S
C633 N632 1.351 . S
C633 C634 1.434 . S
C634 C625 1.429 1_455 S
C634 N631 1.350 . S
C634 C633 1.434 . S
C635 C636 1.369 . S
C635 C637 1.419 1_455 S
C635 H639 0.930 . S
C636 C635 1.369 . S
C636 C645 1.429 . S
C637 C635 1.419 1_655 S
C637 C638 1.363 . S
C637 H640 0.929 . S
C638 C637 1.363 . S
C638 C644 1.428 . S
H639 C635 0.930 . S
H640 C637 0.929 . S
S641 N642 1.613 1_655 S
S641 N643 1.610 . S
N642 S641 1.613 1_455 S
N642 C645 1.350 . S
N643 S641 1.610 . S
N643 C644 1.351 . S
C644 C638 1.428 . S
C644 N643 1.351 . S
C644 C645 1.434 1_655 S
C645 C636 1.429 . S
C645 N642 1.350 . S
C645 C644 1.434 1_455 S
C646 C647 1.369 . S
C646 C648 1.419 . S
C646 H650 0.930 . S
C647 C646 1.369 . S
C647 C656 1.429 . S
C648 C646 1.419 . S
C648 C649 1.363 . S
C648 H651 0.929 . S
C649 C648 1.363 . S
C649 C655 1.428 . S
H650 C646 0.930 . S
H651 C648 0.929 . S
S652 N653 1.613 . S
S652 N654 1.610 . S
N653 S652 1.613 . S
N653 C656 1.350 . S
N654 S652 1.610 . S
N654 C655 1.351 . S
C655 C649 1.428 . S
C655 N654 1.351 . S
C655 C656 1.434 . S
C656 C647 1.429 . S
C656 N653 1.350 . S
C656 C655 1.434 . S
C657 C658 1.369 . S
C657 C659 1.419 . S
C657 H661 0.930 . S
C658 C657 1.369 . S
C658 C667 1.429 . S
C659 C657 1.419 . S
C659 C660 1.363 . S
C659 H662 0.929 . S
C660 C659 1.363 . S
C660 C666 1.428 . S
H661 C657 0.930 . S
H662 C659 0.929 . S
S663 N664 1.613 . S
S663 N665 1.610 . S
N664 S663 1.613 . S
N664 C667 1.350 . S
N665 S663 1.610 . S
N665 C666 1.351 . S
C666 C660 1.428 . S
C666 N665 1.351 . S
C666 C667 1.434 . S
C667 C658 1.429 . S
C667 N664 1.350 . S
C667 C666 1.434 . S
C668 C669 1.369 1_455 S
C668 C670 1.419 . S
C668 H672 0.930 . S
C669 C668 1.369 1_655 S
C669 C678 1.429 . S
C670 C668 1.419 . S
C670 C671 1.363 . S
C670 H673 0.929 . S
C671 C670 1.363 . S
C671 C677 1.428 1_455 S
H672 C668 0.930 . S
H673 C670 0.929 . S
S674 N675 1.613 . S
S674 N676 1.610 . S
N675 S674 1.613 . S
N675 C678 1.350 . S
N676 S674 1.610 . S
N676 C677 1.351 . S
C677 C671 1.428 1_655 S
C677 N676 1.351 . S
C677 C678 1.434 . S
C678 C669 1.429 . S
C678 N675 1.350 . S
C678 C677 1.434 . S
C679 C680 1.369 . S
C679 C681 1.419 . S
C679 H683 0.930 . S
C680 C679 1.369 . S
C680 C689 1.429 . S
C681 C679 1.419 . S
C681 C682 1.363 . S
C681 H684 0.929 . S
C682 C681 1.363 . S
C682 C688 1.428 . S
H683 C679 0.930 . S
H684 C681 0.929 . S
S685 N686 1.613 . S
S685 N687 1.610 . S
N686 S685 1.613 . S
N686 C689 1.350 . S
N687 S685 1.610 . S
N687 C688 1.351 . S
C688 C682 1.428 . S
C688 N687 1.351 . S
C688 C689 1.434 . S
C689 C680 1.429 . S
C689 N686 1.350 . S
C689 C688 1.434 . S
C690 C691 1.369 . S
C690 C692 1.419 . S
C690 H694 0.930 . S
C691 C690 1.369 . S
C691 C700 1.429 . S
C692 C690 1.419 . S
C692 C693 1.363 . S
C692 H695 0.929 . S
C693 C692 1.363 . S
C693 C699 1.428 . S
H694 C690 0.930 . S
H695 C692 0.929 . S
S696 N697 1.613 1_554 S
S696 N698 1.610 1_554 S
N697 S696 1.613 1_556 S
N697 C700 1.350 . S
N698 S696 1.610 1_556 S
N698 C699 1.351 . S
C699 C693 1.428 . S
C699 N698 1.351 . S
C699 C700 1.434 . S
C700 C691 1.429 . S
C700 N697 1.350 . S
C700 C699 1.434 . S
C701 C702 1.369 . S
C701 C703 1.419 1_455 S
C701 H705 0.930 . S
C702 C701 1.369 . S
C702 C711 1.429 . S
C703 C701 1.419 1_655 S
C703 C704 1.363 . S
C703 H706 0.929 . S
C704 C703 1.363 . S
C704 C710 1.428 . S
H705 C701 0.930 . S
H706 C703 0.929 . S
S707 N708 1.613 . S
S707 N709 1.610 1_455 S
N708 S707 1.613 . S
N708 C711 1.350 . S
N709 S707 1.610 1_655 S
N709 C710 1.351 . S
C710 C704 1.428 . S
C710 N709 1.351 . S
C710 C711 1.434 1_655 S
C711 C702 1.429 . S
C711 N708 1.350 . S
C711 C710 1.434 1_455 S
C712 C713 1.369 1_455 S
C712 C714 1.419 . S
C712 H716 0.930 . S
C713 C712 1.369 1_655 S
C713 C722 1.429 . S
C714 C712 1.419 . S
C714 C715 1.363 . S
C714 H717 0.929 . S
C715 C714 1.363 . S
C715 C721 1.428 1_455 S
H716 C712 0.930 . S
H717 C714 0.929 . S
S718 N719 1.613 . S
S718 N720 1.610 . S
N719 S718 1.613 . S
N719 C722 1.350 . S
N720 S718 1.610 . S
N720 C721 1.351 . S
C721 C715 1.428 1_655 S
C721 N720 1.351 . S
C721 C722 1.434 . S
C722 C713 1.429 . S
C722 N719 1.350 . S
C722 C721 1.434 . S
C723 C724 1.369 . S
C723 C725 1.419 1_655 S
C723 H727 0.930 . S
C724 C723 1.369 . S
C724 C733 1.429 . S
C725 C723 1.419 1_455 S
C725 C726 1.363 . S
C725 H728 0.929 . S
C726 C725 1.363 . S
C726 C732 1.428 . S
H727 C723 0.930 . S
H728 C725 0.929 . S
S729 N730 1.611 1_455 S
S729 N731 1.610 . S
N730 S729 1.611 1_655 S
N730 C733 1.350 . S
N731 S729 1.610 . S
N731 C732 1.351 . S
C732 C726 1.428 . S
C732 N731 1.351 . S
C732 C733 1.434 1_455 S
C733 C724 1.429 . S
C733 N730 1.350 . S
C733 C732 1.434 1_655 S
C734 C735 1.369 . S
C734 C736 1.419 . S
C734 H738 0.930 . S
C735 C734 1.369 . S
C735 C744 1.429 . S
C736 C734 1.419 . S
C736 C737 1.363 . S
C736 H739 0.929 . S
C737 C736 1.363 . S
C737 C743 1.428 . S
H738 C734 0.930 . S
H739 C736 0.929 . S
S740 N741 1.613 . S
S740 N742 1.610 . S
N741 S740 1.613 . S
N741 C744 1.350 . S
N742 S740 1.610 . S
N742 C743 1.351 . S
C743 C737 1.428 . S
C743 N742 1.351 . S
C743 C744 1.434 . S
C744 C735 1.429 . S
C744 N741 1.350 . S
C744 C743 1.434 . S
C745 C746 1.369 . S
C745 C747 1.419 . S
C745 H749 0.930 . S
C746 C745 1.369 . S
C746 C755 1.429 . S
C747 C745 1.419 . S
C747 C748 1.363 . S
C747 H750 0.929 . S
C748 C747 1.363 . S
C748 C754 1.428 . S
H749 C745 0.930 . S
H750 C747 0.929 . S
S751 N752 1.613 . S
S751 N753 1.610 . S
N752 S751 1.613 . S
N752 C755 1.350 . S
N753 S751 1.610 . S
N753 C754 1.351 . S
C754 C748 1.428 . S
C754 N753 1.351 . S
C754 C755 1.434 . S
C755 C746 1.429 . S
C755 N752 1.350 . S
C755 C754 1.434 . S
C756 C757 1.369 . S
C756 C758 1.419 . S
C756 H760 0.930 . S
C757 C756 1.369 . S
C757 C766 1.429 1_655 S
C758 C756 1.419 . S
C758 C759 1.363 1_655 S
C758 H761 0.929 . S
C759 C758 1.363 1_455 S
C759 C765 1.428 . S
H760 C756 0.930 . S
H761 C758 0.929 . S
S762 N763 1.613 . S
S762 N764 1.610 . S
N763 S762 1.613 . S
N763 C766 1.350 . S
N764 S762 1.610 . S
N764 C765 1.351 . S
C765 C759 1.428 . S
C765 N764 1.351 . S
C765 C766 1.434 . S
C766 C757 1.429 1_455 S
C766 N763 1.350 . S
C766 C765 1.434 . S
C767 C768 1.369 . S
C767 C769 1.419 . S
C767 H771 0.930 . S
C768 C767 1.369 . S
C768 C777 1.429 . S
C769 C767 1.419 . S
C769 C770 1.363 . S
C769 H772 0.929 . S
C770 C769 1.363 . S
C770 C776 1.428 . S
H771 C767 0.930 . S
H772 C769 0.929 . S
S773 N774 1.613 . S
S773 N775 1.610 . S
N774 S773 1.613 . S
N774 C777 1.350 . S
N775 S773 1.610 . S
N775 C776 1.351 . S
C776 C770 1.428 . S
C776 N775 1.351 . S
C776 C777 1.434 . S
C777 C768 1.429 . S
C777 N774 1.350 . S
C777 C776 1.434 . S
C778 C779 1.369 . S
C778 C780 1.419 . S
C778 H782 0.930 . S
C779 C778 1.369 . S
C779 C788 1.429 . S
C780 C778 1.419 . S
C780 C781 1.363 . S
C780 H783 0.929 . S
C781 C780 1.363 . S
C781 C787 1.428 . S
H782 C778 0.930 . S
H783 C780 0.929 . S
S784 N785 1.613 . S
S784 N786 1.610 . S
N785 S784 1.613 . S
N785 C788 1.350 . S
N786 S784 1.610 . S
N786 C787 1.351 . S
C787 C781 1.428 . S
C787 N786 1.351 . S
C787 C788 1.434 . S
C788 C779 1.429 . S
C788 N785 1.350 . S
C788 C787 1.434 . S
C789 C790 1.369 . S
C789 C791 1.419 1_655 S
C789 H793 0.930 . S
C790 C789 1.369 . S
C790 C799 1.429 . S
C791 C789 1.419 1_455 S
C791 C792 1.363 . S
C791 H794 0.929 . S
C792 C791 1.363 . S
C792 C798 1.428 . S
H793 C789 0.930 . S
H794 C791 0.929 . S
S795 N796 1.613 . S
S795 N797 1.610 1_655 S
N796 S795 1.613 . S
N796 C799 1.350 . S
N797 S795 1.610 1_455 S
N797 C798 1.351 . S
C798 C792 1.428 . S
C798 N797 1.351 . S
C798 C799 1.434 1_455 S
C799 C790 1.429 . S
C799 N796 1.350 . S
C799 C798 1.434 1_655 S
C800 C801 1.369 . S
C800 C802 1.419 . S
C800 H804 0.930 . S
C801 C800 1.369 . S
C801 C810 1.429 1_556 S
C802 C800 1.419 . S
C802 C803 1.363 1_556 S
C802 H805 0.929 . S
C803 C802 1.363 1_554 S
C803 C809 1.428 . S
H804 C800 0.930 . S
H805 C802 0.929 . S
S806 N807 1.613 . S
S806 N808 1.610 . S
N807 S806 1.613 . S
N807 C810 1.350 . S
N808 S806 1.610 . S
N808 C809 1.351 . S
C809 C803 1.428 . S
C809 N808 1.351 . S
C809 C810 1.434 . S
C810 C801 1.429 1_554 S
C810 N807 1.350 . S
C810 C809 1.434 . S
C811 C812 1.369 . S
C811 C813 1.419 1_545 S
C811 H815 0.930 . S
C812 C811 1.369 . S
C812 C821 1.429 . S
C813 C811 1.419 1_565 S
C813 C814 1.363 . S
C813 H816 0.929 . S
C814 C813 1.363 . S
C814 C820 1.428 . S
H815 C811 0.930 . S
H816 C813 0.929 . S
S817 N818 1.613 . S
S817 N819 1.610 1_545 S
N818 S817 1.613 . S
N818 C821 1.350 . S
N819 S817 1.610 1_565 S
N819 C820 1.351 . S
C820 C814 1.428 . S
C820 N819 1.351 . S
C820 C821 1.434 1_565 S
C821 C812 1.429 . S
C821 N818 1.350 . S
C821 C820 1.434 1_545 S
C822 C823 1.369 . S
C822 C824 1.419 . S
C822 H826 0.930 . S
C823 C822 1.369 . S
C823 C832 1.429 . S
C824 C822 1.419 . S
C824 C825 1.363 . S
C824 H827 0.929 . S
C825 C824 1.363 . S
C825 C831 1.428 . S
H826 C822 0.930 . S
H827 C824 0.929 . S
S828 N829 1.613 . S
S828 N830 1.610 . S
N829 S828 1.613 . S
N829 C832 1.350 . S
N830 S828 1.610 . S
N830 C831 1.351 . S
C831 C825 1.428 . S
C831 N830 1.351 . S
C831 C832 1.434 . S
C832 C823 1.429 . S
C832 N829 1.350 . S
C832 C831 1.434 . S
C833 C834 1.397 . S
C833 C835 1.392 1_545 S
C833 H837 0.929 . S
C834 C833 1.397 . S
C834 C843 1.429 . S
C835 C833 1.392 1_565 S
C835 C836 1.363 . S
C835 H838 0.929 . S
C836 C835 1.363 . S
C836 C842 1.420 1_565 S
H837 C833 0.929 . S
H838 C835 0.929 . S
S839 N840 1.613 . S
S839 N841 1.610 . S
N840 S839 1.613 . S
N840 C843 1.350 . S
N841 S839 1.610 . S
N841 C842 1.352 . S
C842 C836 1.420 1_545 S
C842 N841 1.352 . S
C842 C843 1.442 . S
C843 C834 1.429 . S
C843 N840 1.350 . S
C843 C842 1.442 . S
C844 C845 1.369 1_556 S
C844 C846 1.419 . S
C844 H848 0.930 . S
C845 C844 1.369 1_554 S
C845 C854 1.429 . S
C846 C844 1.419 . S
C846 C847 1.363 . S
C846 H849 0.929 . S
C847 C846 1.363 . S
C847 C853 1.428 1_556 S
H848 C844 0.930 . S
H849 C846 0.929 . S
S850 N851 1.613 . S
S850 N852 1.610 . S
N851 S850 1.613 . S
N851 C854 1.350 . S
N852 S850 1.610 . S
N852 C853 1.351 . S
C853 C847 1.428 1_554 S
C853 N852 1.351 . S
C853 C854 1.434 . S
C854 C845 1.429 . S
C854 N851 1.350 . S
C854 C853 1.434 . S
C855 C856 1.369 . S
C855 C857 1.409 1_565 S
C855 H859 0.930 . S
C856 C855 1.369 . S
C856 C865 1.429 1_565 S
C857 C855 1.409 1_545 S
C857 C858 1.373 . S
C857 H860 0.928 1_545 S
C858 C857 1.373 . S
C858 C864 1.428 . S
H859 C855 0.930 . S
H860 C857 0.928 1_565 S
S861 N862 1.613 . S
S861 N863 1.610 . S
N862 S861 1.613 . S
N862 C865 1.350 . S
N863 S861 1.610 . S
N863 C864 1.351 . S
C864 C858 1.428 . S
C864 N863 1.351 . S
C864 C865 1.434 . S
C865 C856 1.429 1_545 S
C865 N862 1.350 . S
C865 C864 1.434 . S
C866 C867 1.369 . S
C866 C868 1.419 . S
C866 H870 0.930 . S
C867 C866 1.369 . S
C867 C876 1.429 . S
C868 C866 1.419 . S
C868 C869 1.363 . S
C868 H871 0.929 . S
C869 C868 1.363 . S
C869 C875 1.428 . S
H870 C866 0.930 . S
H871 C868 0.929 . S
S872 N873 1.613 . S
S872 N874 1.610 . S
N873 S872 1.613 . S
N873 C876 1.350 . S
N874 S872 1.610 . S
N874 C875 1.351 . S
C875 C869 1.428 . S
C875 N874 1.351 . S
C875 C876 1.434 . S
C876 C867 1.429 . S
C876 N873 1.350 . S
C876 C875 1.434 . S
C877 C878 1.369 . S
C877 C879 1.419 1_545 S
C877 H881 0.930 . S
C878 C877 1.369 . S
C878 C887 1.429 . S
C879 C877 1.419 1_565 S
C879 C880 1.363 . S
C879 H882 0.929 . S
C880 C879 1.363 . S
C880 C886 1.428 . S
H881 C877 0.930 . S
H882 C879 0.929 . S
S883 N884 1.613 . S
S883 N885 1.610 1_545 S
N884 S883 1.613 . S
N884 C887 1.350 . S
N885 S883 1.610 1_565 S
N885 C886 1.351 . S
C886 C880 1.428 . S
C886 N885 1.351 . S
C886 C887 1.434 1_565 S
C887 C878 1.429 . S
C887 N884 1.350 . S
C887 C886 1.434 1_545 S
C888 C889 1.369 . S
C888 C890 1.419 . S
C888 H892 0.930 . S
C889 C888 1.369 . S
C889 C898 1.429 . S
C890 C888 1.419 . S
C890 C891 1.363 . S
C890 H893 0.929 . S
C891 C890 1.363 . S
C891 C897 1.428 . S
H892 C888 0.930 . S
H893 C890 0.929 . S
S894 N895 1.613 . S
S894 N896 1.610 . S
N895 S894 1.613 . S
N895 C898 1.350 . S
N896 S894 1.610 . S
N896 C897 1.351 . S
C897 C891 1.428 . S
C897 N896 1.351 . S
C897 C898 1.434 . S
C898 C889 1.429 . S
C898 N895 1.350 . S
C898 C897 1.434 . S
C899 C900 1.369 . S
C899 C901 1.419 . S
C899 H903 0.930 . S
C900 C899 1.369 . S
C900 C909 1.429 . S
C901 C899 1.419 . S
C901 C902 1.363 . S
C901 H904 0.929 . S
C902 C901 1.363 . S
C902 C908 1.428 . S
H903 C899 0.930 . S
H904 C901 0.929 . S
S905 N906 1.613 . S
S905 N907 1.610 . S
N906 S905 1.613 . S
N906 C909 1.350 . S
N907 S905 1.610 . S
N907 C908 1.351 . S
C908 C902 1.428 . S
C908 N907 1.351 . S
C908 C909 1.434 . S
C909 C900 1.429 . S
C909 N906 1.350 . S
C909 C908 1.434 . S
C910 C911 1.369 1_556 S
C910 C912 1.419 . S
C910 H914 0.930 . S
C911 C910 1.369 1_554 S
C911 C920 1.429 . S
C912 C910 1.419 . S
C912 C913 1.363 . S
C912 H915 0.929 . S
C913 C912 1.363 . S
C913 C919 1.428 1_556 S
H914 C910 0.930 . S
H915 C912 0.929 . S
S916 N917 1.613 . S
S916 N918 1.610 . S
N917 S916 1.613 . S
N917 C920 1.350 . S
N918 S916 1.610 . S
N918 C919 1.351 . S
C919 C913 1.428 1_554 S
C919 N918 1.351 . S
C919 C920 1.434 . S
C920 C911 1.429 . S
C920 N917 1.350 . S
C920 C919 1.434 . S
C921 C922 1.369 . S
C921 C923 1.419 . S
C921 H925 0.930 . S
C922 C921 1.369 . S
C922 C931 1.429 . S
C923 C921 1.419 . S
C923 C924 1.363 . S
C923 H926 0.929 . S
C924 C923 1.363 . S
C924 C930 1.428 . S
H925 C921 0.930 . S
H926 C923 0.929 . S
S927 N928 1.613 . S
S927 N929 1.610 . S
N928 S927 1.613 . S
N928 C931 1.350 . S
N929 S927 1.610 . S
N929 C930 1.351 . S
C930 C924 1.428 . S
C930 N929 1.351 . S
C930 C931 1.434 . S
C931 C922 1.429 . S
C931 N928 1.350 . S
C931 C930 1.434 . S
C932 C933 1.369 . S
C932 C934 1.419 . S
C932 H936 0.930 . S
C933 C932 1.369 . S
C933 C942 1.429 . S
C934 C932 1.419 . S
C934 C935 1.363 . S
C934 H937 0.929 . S
C935 C934 1.363 . S
C935 C941 1.428 . S
H936 C932 0.930 . S
H937 C934 0.929 . S
S938 N939 1.613 . S
S938 N940 1.610 . S
N939 S938 1.613 . S
N939 C942 1.350 . S
N940 S938 1.610 . S
N940 C941 1.351 . S
C941 C935 1.428 . S
C941 N940 1.351 . S
C941 C942 1.434 . S
C942 C933 1.429 . S
C942 N939 1.350 . S
C942 C941 1.434 . S
C943 C944 1.369 . S
C943 C945 1.419 . S
C943 H947 0.930 . S
C944 C943 1.369 . S
C944 C953 1.429 . S
C945 C943 1.419 . S
C945 C946 1.363 . S
C945 H948 0.929 . S
C946 C945 1.363 . S
C946 C952 1.428 . S
H947 C943 0.930 . S
H948 C945 0.929 . S
S949 N950 1.613 . S
S949 N951 1.610 . S
N950 S949 1.613 . S
N950 C953 1.350 . S
N951 S949 1.610 . S
N951 C952 1.351 . S
C952 C946 1.428 . S
C952 N951 1.351 . S
C952 C953 1.434 . S
C953 C944 1.429 . S
C953 N950 1.350 . S
C953 C952 1.434 . S
C954 C955 1.369 1_554 S
C954 C956 1.419 . S
C954 H958 0.930 . S
C955 C954 1.369 1_556 S
C955 C964 1.429 . S
C956 C954 1.419 . S
C956 C957 1.363 . S
C956 H959 0.929 . S
C957 C956 1.363 . S
C957 C963 1.428 1_554 S
H958 C954 0.930 . S
H959 C956 0.929 . S
S960 N961 1.613 . S
S960 N962 1.610 . S
N961 S960 1.613 . S
N961 C964 1.350 . S
N962 S960 1.610 . S
N962 C963 1.351 . S
C963 C957 1.428 1_556 S
C963 N962 1.351 . S
C963 C964 1.434 . S
C964 C955 1.429 . S
C964 N961 1.350 . S
C964 C963 1.434 . S
C965 C966 1.369 . S
C965 C967 1.419 . S
C965 H969 0.930 . S
C966 C965 1.369 . S
C966 C975 1.429 . S
C967 C965 1.419 . S
C967 C968 1.363 . S
C967 H970 0.929 . S
C968 C967 1.363 . S
C968 C974 1.428 . S
H969 C965 0.930 . S
H970 C967 0.929 . S
S971 N972 1.613 . S
S971 N973 1.610 . S
N972 S971 1.613 . S
N972 C975 1.350 . S
N973 S971 1.610 . S
N973 C974 1.351 . S
C974 C968 1.428 . S
C974 N973 1.351 . S
C974 C975 1.434 . S
C975 C966 1.429 . S
C975 N972 1.350 . S
C975 C974 1.434 . S
C976 C977 1.369 . S
C976 C978 1.419 . S
C976 H980 0.930 . S
C977 C976 1.369 . S
C977 C986 1.429 . S
C978 C976 1.419 . S
C978 C979 1.363 . S
C978 H981 0.929 . S
C979 C978 1.363 . S
C979 C985 1.428 . S
H980 C976 0.930 . S
H981 C978 0.929 . S
S982 N983 1.613 . S
S982 N984 1.610 . S
N983 S982 1.613 . S
N983 C986 1.350 . S
N984 S982 1.610 . S
N984 C985 1.351 . S
C985 C979 1.428 . S
C985 N984 1.351 . S
C985 C986 1.434 . S
C986 C977 1.429 . S
C986 N983 1.350 . S
C986 C985 1.434 . S
C987 C988 1.369 . S
C987 C989 1.419 . S
C987 H991 0.930 . S
C988 C987 1.369 . S
C988 C997 1.429 . S
C989 C987 1.419 . S
C989 C990 1.363 . S
C989 H992 0.929 . S
C990 C989 1.363 . S
C990 C996 1.428 . S
H991 C987 0.930 . S
H992 C989 0.929 . S
S993 N994 1.613 . S
S993 N995 1.610 . S
N994 S993 1.613 . S
N994 C997 1.350 . S
N995 S993 1.610 . S
N995 C996 1.351 . S
C996 C990 1.428 . S
C996 N995 1.351 . S
C996 C997 1.434 . S
C997 C988 1.429 . S
C997 N994 1.350 . S
C997 C996 1.434 . S
C998 C999 1.369 . S
C998 C1000 1.419 . S
C998 H1002 0.930 . S
C999 C998 1.369 . S
C999 C1008 1.429 . S
C1000 C998 1.419 . S
C1000 C1001 1.363 . S
C1000 H1003 0.929 . S
C1001 C1000 1.363 . S
C1001 C1007 1.428 . S
H1002 C998 0.930 . S
H1003 C1000 0.929 . S
S1004 N1005 1.613 . S
S1004 N1006 1.610 . S
N1005 S1004 1.613 . S
N1005 C1008 1.350 . S
N1006 S1004 1.610 . S
N1006 C1007 1.351 . S
C1007 C1001 1.428 . S
C1007 N1006 1.351 . S
C1007 C1008 1.434 . S
C1008 C999 1.429 . S
C1008 N1005 1.350 . S
C1008 C1007 1.434 . S
C1009 C1010 1.369 . S
C1009 C1011 1.419 . S
C1009 H1013 0.930 . S
C1010 C1009 1.369 . S
C1010 C1019 1.429 . S
C1011 C1009 1.419 . S
C1011 C1012 1.363 . S
C1011 H1014 0.929 . S
C1012 C1011 1.363 . S
C1012 C1018 1.428 . S
H1013 C1009 0.930 . S
H1014 C1011 0.929 . S
S1015 N1016 1.613 . S
S1015 N1017 1.610 . S
N1016 S1015 1.613 . S
N1016 C1019 1.350 . S
N1017 S1015 1.610 . S
N1017 C1018 1.351 . S
C1018 C1012 1.428 . S
C1018 N1017 1.351 . S
C1018 C1019 1.434 . S
C1019 C1010 1.429 . S
C1019 N1016 1.350 . S
C1019 C1018 1.434 . S
C1020 C1021 1.369 . S
C1020 C1022 1.419 . S
C1020 H1024 0.930 . S
C1021 C1020 1.369 . S
C1021 C1030 1.429 . S
C1022 C1020 1.419 . S
C1022 C1023 1.363 . S
C1022 H1025 0.929 . S
C1023 C1022 1.363 . S
C1023 C1029 1.428 . S
H1024 C1020 0.930 . S
H1025 C1022 0.929 . S
S1026 N1027 1.613 . S
S1026 N1028 1.610 . S
N1027 S1026 1.613 . S
N1027 C1030 1.350 . S
N1028 S1026 1.610 . S
N1028 C1029 1.351 . S
C1029 C1023 1.428 . S
C1029 N1028 1.351 . S
C1029 C1030 1.434 . S
C1030 C1021 1.429 . S
C1030 N1027 1.350 . S
C1030 C1029 1.434 . S
C1031 C1032 1.369 . S
C1031 C1033 1.419 . S
C1031 H1035 0.930 . S
C1032 C1031 1.369 . S
C1032 C1041 1.429 . S
C1033 C1031 1.419 . S
C1033 C1034 1.363 . S
C1033 H1036 0.929 . S
C1034 C1033 1.363 . S
C1034 C1040 1.428 . S
H1035 C1031 0.930 . S
H1036 C1033 0.929 . S
S1037 N1038 1.613 . S
S1037 N1039 1.610 . S
N1038 S1037 1.613 . S
N1038 C1041 1.350 . S
N1039 S1037 1.610 . S
N1039 C1040 1.351 . S
C1040 C1034 1.428 . S
C1040 N1039 1.351 . S
C1040 C1041 1.434 . S
C1041 C1032 1.429 . S
C1041 N1038 1.350 . S
C1041 C1040 1.434 . S
C1042 C1043 1.369 . S
C1042 C1044 1.419 . S
C1042 H1046 0.930 . S
C1043 C1042 1.369 . S
C1043 C1052 1.429 . S
C1044 C1042 1.419 . S
C1044 C1045 1.363 . S
C1044 H1047 0.929 . S
C1045 C1044 1.363 . S
C1045 C1051 1.428 . S
H1046 C1042 0.930 . S
H1047 C1044 0.929 . S
S1048 N1049 1.613 . S
S1048 N1050 1.610 . S
N1049 S1048 1.613 . S
N1049 C1052 1.350 . S
N1050 S1048 1.610 . S
N1050 C1051 1.351 . S
C1051 C1045 1.428 . S
C1051 N1050 1.351 . S
C1051 C1052 1.434 . S
C1052 C1043 1.429 . S
C1052 N1049 1.350 . S
C1052 C1051 1.434 . S
C1053 C1054 1.369 . S
C1053 C1055 1.419 . S
C1053 H1057 0.930 . S
C1054 C1053 1.369 . S
C1054 C1063 1.429 . S
C1055 C1053 1.419 . S
C1055 C1056 1.363 . S
C1055 H1058 0.929 . S
C1056 C1055 1.363 . S
C1056 C1062 1.428 . S
H1057 C1053 0.930 . S
H1058 C1055 0.929 . S
S1059 N1060 1.613 . S
S1059 N1061 1.610 . S
N1060 S1059 1.613 . S
N1060 C1063 1.350 . S
N1061 S1059 1.610 . S
N1061 C1062 1.351 . S
C1062 C1056 1.428 . S
C1062 N1061 1.351 . S
C1062 C1063 1.434 . S
C1063 C1054 1.429 . S
C1063 N1060 1.350 . S
C1063 C1062 1.434 . S
C1064 C1065 1.369 . S
C1064 C1066 1.419 . S
C1064 H1068 0.930 . S
C1065 C1064 1.369 . S
C1065 C1074 1.429 . S
C1066 C1064 1.419 . S
C1066 C1067 1.363 . S
C1066 H1069 0.929 . S
C1067 C1066 1.363 . S
C1067 C1073 1.428 . S
H1068 C1064 0.930 . S
H1069 C1066 0.929 . S
S1070 N1071 1.613 . S
S1070 N1072 1.610 . S
N1071 S1070 1.613 . S
N1071 C1074 1.350 . S
N1072 S1070 1.610 . S
N1072 C1073 1.351 . S
C1073 C1067 1.428 . S
C1073 N1072 1.351 . S
C1073 C1074 1.434 . S
C1074 C1065 1.429 . S
C1074 N1071 1.350 . S
C1074 C1073 1.434 . S
C1075 C1076 1.369 . S
C1075 C1077 1.419 . S
C1075 H1079 0.930 . S
C1076 C1075 1.369 . S
C1076 C1085 1.429 . S
C1077 C1075 1.419 . S
C1077 C1078 1.363 . S
C1077 H1080 0.929 . S
C1078 C1077 1.363 . S
C1078 C1084 1.428 . S
H1079 C1075 0.930 . S
H1080 C1077 0.929 . S
S1081 N1082 1.613 . S
S1081 N1083 1.610 . S
N1082 S1081 1.613 . S
N1082 C1085 1.350 . S
N1083 S1081 1.610 . S
N1083 C1084 1.351 . S
C1084 C1078 1.428 . S
C1084 N1083 1.351 . S
C1084 C1085 1.434 . S
C1085 C1076 1.429 . S
C1085 N1082 1.350 . S
C1085 C1084 1.434 . S
C1086 C1087 1.369 . S
C1086 C1088 1.419 . S
C1086 H1090 0.930 . S
C1087 C1086 1.369 . S
C1087 C1096 1.429 . S
C1088 C1086 1.419 . S
C1088 C1089 1.363 . S
C1088 H1091 0.929 . S
C1089 C1088 1.363 . S
C1089 C1095 1.428 . S
H1090 C1086 0.930 . S
H1091 C1088 0.929 . S
S1092 N1093 1.613 . S
S1092 N1094 1.610 . S
N1093 S1092 1.613 . S
N1093 C1096 1.350 . S
N1094 S1092 1.610 . S
N1094 C1095 1.351 . S
C1095 C1089 1.428 . S
C1095 N1094 1.351 . S
C1095 C1096 1.434 . S
C1096 C1087 1.429 . S
C1096 N1093 1.350 . S
C1096 C1095 1.434 . S
C1097 C1098 1.369 . S
C1097 C1099 1.419 . S
C1097 H1101 0.930 . S
C1098 C1097 1.369 . S
C1098 C1107 1.429 . S
C1099 C1097 1.419 . S
C1099 C1100 1.363 . S
C1099 H1102 0.929 . S
C1100 C1099 1.363 . S
C1100 C1106 1.428 . S
H1101 C1097 0.930 . S
H1102 C1099 0.929 . S
S1103 N1104 1.613 . S
S1103 N1105 1.610 . S
N1104 S1103 1.613 . S
N1104 C1107 1.350 . S
N1105 S1103 1.610 . S
N1105 C1106 1.351 . S
C1106 C1100 1.428 . S
C1106 N1105 1.351 . S
C1106 C1107 1.434 . S
C1107 C1098 1.429 . S
C1107 N1104 1.350 . S
C1107 C1106 1.434 . S
C1108 C1109 1.369 . S
C1108 C1110 1.419 . S
C1108 H1112 0.930 . S
C1109 C1108 1.369 . S
C1109 C1118 1.429 . S
C1110 C1108 1.419 . S
C1110 C1111 1.363 . S
C1110 H1113 0.929 . S
C1111 C1110 1.363 . S
C1111 C1117 1.428 . S
H1112 C1108 0.930 . S
H1113 C1110 0.929 . S
S1114 N1115 1.613 . S
S1114 N1116 1.610 . S
N1115 S1114 1.613 . S
N1115 C1118 1.350 . S
N1116 S1114 1.610 . S
N1116 C1117 1.351 . S
C1117 C1111 1.428 . S
C1117 N1116 1.351 . S
C1117 C1118 1.434 . S
C1118 C1109 1.429 . S
C1118 N1115 1.350 . S
C1118 C1117 1.434 . S
C1119 C1120 1.369 . S
C1119 C1121 1.419 . S
C1119 H1123 0.930 . S
C1120 C1119 1.369 . S
C1120 C1129 1.429 . S
C1121 C1119 1.419 . S
C1121 C1122 1.363 . S
C1121 H1124 0.929 . S
C1122 C1121 1.363 . S
C1122 C1128 1.428 . S
H1123 C1119 0.930 . S
H1124 C1121 0.929 . S
S1125 N1126 1.613 . S
S1125 N1127 1.610 . S
N1126 S1125 1.613 . S
N1126 C1129 1.350 . S
N1127 S1125 1.610 . S
N1127 C1128 1.351 . S
C1128 C1122 1.428 . S
C1128 N1127 1.351 . S
C1128 C1129 1.434 . S
C1129 C1120 1.429 . S
C1129 N1126 1.350 . S
C1129 C1128 1.434 . S
C1130 C1131 1.369 . S
C1130 C1132 1.419 . S
C1130 H1134 0.930 . S
C1131 C1130 1.369 . S
C1131 C1140 1.429 . S
C1132 C1130 1.419 . S
C1132 C1133 1.363 . S
C1132 H1135 0.929 . S
C1133 C1132 1.363 . S
C1133 C1139 1.428 . S
H1134 C1130 0.930 . S
H1135 C1132 0.929 . S
S1136 N1137 1.613 . S
S1136 N1138 1.610 . S
N1137 S1136 1.613 . S
N1137 C1140 1.350 . S
N1138 S1136 1.610 . S
N1138 C1139 1.351 . S
C1139 C1133 1.428 . S
C1139 N1138 1.351 . S
C1139 C1140 1.434 . S
C1140 C1131 1.429 . S
C1140 N1137 1.350 . S
C1140 C1139 1.434 . S
C1141 C1142 1.369 . S
C1141 C1143 1.419 . S
C1141 H1145 0.930 . S
C1142 C1141 1.369 . S
C1142 C1151 1.429 . S
C1143 C1141 1.419 . S
C1143 C1144 1.363 . S
C1143 H1146 0.929 . S
C1144 C1143 1.363 . S
C1144 C1150 1.428 . S
H1145 C1141 0.930 . S
H1146 C1143 0.929 . S
S1147 N1148 1.613 . S
S1147 N1149 1.610 . S
N1148 S1147 1.613 . S
N1148 C1151 1.350 . S
N1149 S1147 1.610 . S
N1149 C1150 1.351 . S
C1150 C1144 1.428 . S
C1150 N1149 1.351 . S
C1150 C1151 1.434 . S
C1151 C1142 1.429 . S
C1151 N1148 1.350 . S
C1151 C1150 1.434 . S
C449 C119 1.466 . S
C451 C7 1.456 . S
C460 C357 1.459 . S
C462 C21 1.461 . S
C471 C147 1.455 . S
C473 C35 1.465 . S
C482 C385 1.459 . S
C484 C49 1.461 . S
C493 C175 1.462 . S
C495 C63 1.459 . S
C504 C77 1.457 . S
C506 C413 1.462 . S
C515 C91 1.466 . S
C517 C203 1.456 . S
C526 C105 1.458 . S
C528 C441 1.462 . S
C537 C245 1.462 . S
C539 C133 1.460 . S
C548 C273 1.463 . S
C550 C161 1.459 . S
C559 C189 1.459 . S
C561 C301 1.461 . S
C570 C217 1.461 . S
C572 C329 1.460 . S
C581 C231 1.465 . S
C583 C343 1.457 . S
C592 C371 1.466 . S
C594 C259 1.456 . S
C603 C287 1.465 . S
C605 C399 1.457 . S
C614 C427 1.463 . S
C616 C315 1.458 . S
C625 C261 1.925 . S
C627 C9 1.926 . S
C636 C275 1.926 . S
C638 C23 1.926 . S
C647 C37 1.926 . S
C649 C233 1.925 . S
C658 C51 1.926 . S
C660 C247 1.926 . S
C669 C317 1.926 . S
C671 C65 1.926 . S
C680 C79 1.926 . S
C682 C331 1.925 . S
C691 C289 1.926 . S
C693 C93 1.926 . S
C702 C303 1.925 . S
C704 C107 1.926 . S
C713 C121 1.926 . S
C715 C373 1.925 . S
C724 C387 1.926 . S
C726 C135 1.925 . S
C735 C149 1.925 . S
C737 C345 1.925 . S
C746 C163 1.925 . S
C748 C359 1.926 . S
C757 C177 1.925 . S
C759 C429 1.926 . S
C768 C191 1.925 . S
C770 C443 1.925 . S
C779 C401 1.926 . S
C781 C205 1.925 . S
C790 C415 1.925 . S
C792 C219 1.926 . S
C801 C90 1.543 . S
C803 C6 1.547 . S
C812 C104 1.547 . S
C814 C20 1.550 . S
C823 C62 1.551 . S
C825 C34 1.549 . S
C834 C48 1.545 . S
C836 C76 1.549 . S
C845 C202 1.549 . S
C847 C118 1.546 . S
C856 C216 1.548 . S
C858 C132 1.545 . S
C867 C174 1.544 . S
C869 C146 1.544 . S
C878 C188 1.543 . S
C880 C160 1.546 . S
C889 C314 1.543 . S
C891 C230 1.546 . S
C900 C328 1.549 . S
C902 C244 1.545 . S
C911 C258 1.551 . S
C913 C286 1.549 . S
C922 C272 1.548 . S
C924 C300 1.545 . S
C933 C426 1.544 . S
C935 C342 1.544 . S
C944 C440 1.550 . S
C946 C356 1.546 . S
C955 C370 1.544 . S
C957 C398 1.544 . S
C966 C384 1.547 . S
C968 C412 1.549 . S
C977 C8 1.607 . S
C979 C302 1.607 . S
C988 C316 1.607 . S
C990 C22 1.607 . S
C999 C330 1.607 . S
C1001 C36 1.607 . S
C1010 C50 1.607 . S
C1012 C288 1.607 . S
C1021 C274 1.607 . S
C1023 C64 1.607 . S
C1032 C78 1.607 . S
C1034 C232 1.607 . S
C1043 C246 1.607 . S
C1045 C92 1.607 . S
C1054 C106 1.607 . S
C1056 C260 1.607 . S
C1065 C414 1.607 . S
C1067 C120 1.607 . S
C1076 C428 1.607 . S
C1078 C134 1.607 . S
C1087 C148 1.607 . S
C1089 C442 1.607 . S
C1098 C400 1.607 . S
C1100 C162 1.607 . S
C1109 C386 1.607 . S
C1111 C176 1.607 . S
C1120 C190 1.607 . S
C1122 C344 1.607 . S
C1131 C358 1.607 . S
C1133 C204 1.607 . S
C1142 C218 1.607 . S
C1144 C372 1.607 . S
