# Generated by pormake.
# Topology wkj, (6)-cn, num edge types: 1
# Building blocks:
#     Node 0, Type 0, BuildingBlock: MIFKUJ_clean_sbu_0, # of connection points: 6
#     Node 1, Type 0, BuildingBlock: MIFKUJ_clean_sbu_0, # of connection points: 6
#     Node 2, Type 0, BuildingBlock: MIFKUJ_clean_sbu_0, # of connection points: 6
#     Node 3, Type 0, BuildingBlock: MIFKUJ_clean_sbu_0, # of connection points: 6
#     Node 4, Type 0, BuildingBlock: MIFKUJ_clean_sbu_0, # of connection points: 6
#     Node 5, Type 0, BuildingBlock: MIFKUJ_clean_sbu_0, # of connection points: 6
#     Node 6, Type 0, BuildingBlock: MIFKUJ_clean_sbu_0, # of connection points: 6
#     Node 7, Type 0, BuildingBlock: MIFKUJ_clean_sbu_0, # of connection points: 6
#     Node 8, Type 0, BuildingBlock: MIFKUJ_clean_sbu_0, # of connection points: 6
#     Node 9, Type 0, BuildingBlock: MIFKUJ_clean_sbu_0, # of connection points: 6
#     Node 10, Type 0, BuildingBlock: MIFKUJ_clean_sbu_0, # of connection points: 6
#     Node 11, Type 0, BuildingBlock: MIFKUJ_clean_sbu_0, # of connection points: 6
#     Edge 12, Type (0, 0), BuildingBlock: XUDNAN_clean_linker_2, # of connection points: 2
#     Edge 13, Type (0, 0), BuildingBlock: XUDNAN_clean_linker_2, # of connection points: 2
#     Edge 14, Type (0, 0), BuildingBlock: XUDNAN_clean_linker_2, # of connection points: 2
#     Edge 15, Type (0, 0), BuildingBlock: XUDNAN_clean_linker_2, # of connection points: 2
#     Edge 16, Type (0, 0), BuildingBlock: XUDNAN_clean_linker_2, # of connection points: 2
#     Edge 17, Type (0, 0), BuildingBlock: XUDNAN_clean_linker_2, # of connection points: 2
#     Edge 18, Type (0, 0), BuildingBlock: XUDNAN_clean_linker_2, # of connection points: 2
#     Edge 19, Type (0, 0), BuildingBlock: XUDNAN_clean_linker_2, # of connection points: 2
#     Edge 20, Type (0, 0), BuildingBlock: XUDNAN_clean_linker_2, # of connection points: 2
#     Edge 21, Type (0, 0), BuildingBlock: XUDNAN_clean_linker_2, # of connection points: 2
#     Edge 22, Type (0, 0), BuildingBlock: XUDNAN_clean_linker_2, # of connection points: 2
#     Edge 23, Type (0, 0), BuildingBlock: XUDNAN_clean_linker_2, # of connection points: 2
#     Edge 24, Type (0, 0), BuildingBlock: XUDNAN_clean_linker_2, # of connection points: 2
#     Edge 25, Type (0, 0), BuildingBlock: XUDNAN_clean_linker_2, # of connection points: 2
#     Edge 26, Type (0, 0), BuildingBlock: XUDNAN_clean_linker_2, # of connection points: 2
#     Edge 27, Type (0, 0), BuildingBlock: XUDNAN_clean_linker_2, # of connection points: 2
#     Edge 28, Type (0, 0), BuildingBlock: XUDNAN_clean_linker_2, # of connection points: 2
#     Edge 29, Type (0, 0), BuildingBlock: XUDNAN_clean_linker_2, # of connection points: 2
#     Edge 30, Type (0, 0), BuildingBlock: XUDNAN_clean_linker_2, # of connection points: 2
#     Edge 31, Type (0, 0), BuildingBlock: XUDNAN_clean_linker_2, # of connection points: 2
#     Edge 32, Type (0, 0), BuildingBlock: XUDNAN_clean_linker_2, # of connection points: 2
#     Edge 33, Type (0, 0), BuildingBlock: XUDNAN_clean_linker_2, # of connection points: 2
#     Edge 34, Type (0, 0), BuildingBlock: XUDNAN_clean_linker_2, # of connection points: 2
#     Edge 35, Type (0, 0), BuildingBlock: XUDNAN_clean_linker_2, # of connection points: 2
#     Edge 36, Type (0, 0), BuildingBlock: XUDNAN_clean_linker_2, # of connection points: 2
#     Edge 37, Type (0, 0), BuildingBlock: XUDNAN_clean_linker_2, # of connection points: 2
#     Edge 38, Type (0, 0), BuildingBlock: XUDNAN_clean_linker_2, # of connection points: 2
#     Edge 39, Type (0, 0), BuildingBlock: XUDNAN_clean_linker_2, # of connection points: 2
#     Edge 40, Type (0, 0), BuildingBlock: XUDNAN_clean_linker_2, # of connection points: 2
#     Edge 41, Type (0, 0), BuildingBlock: XUDNAN_clean_linker_2, # of connection points: 2
#     Edge 42, Type (0, 0), BuildingBlock: XUDNAN_clean_linker_2, # of connection points: 2
#     Edge 43, Type (0, 0), BuildingBlock: XUDNAN_clean_linker_2, # of connection points: 2
#     Edge 44, Type (0, 0), BuildingBlock: XUDNAN_clean_linker_2, # of connection points: 2
#     Edge 45, Type (0, 0), BuildingBlock: XUDNAN_clean_linker_2, # of connection points: 2
#     Edge 46, Type (0, 0), BuildingBlock: XUDNAN_clean_linker_2, # of connection points: 2
#     Edge 47, Type (0, 0), BuildingBlock: XUDNAN_clean_linker_2, # of connection points: 2
# Relax obj value: 0.308
# Max RMSD: 0.210
# Mean RMSD: 0.210
data_MOF--net-wkj--node1-MIFKUJ_clean_sbu_0--edge1-XUDNAN_clean_linker_2
_symmetry_space_group_name_H-M    P1
_symmetry_Int_Tables_number       1
_symmetry_cell_setting            triclinic
loop_
_symmetry_equiv_pos_as_xyz
'x, y, z'
_cell_length_a     46.901867
_cell_length_b     46.82663
_cell_length_c     30.39585
_cell_angle_alpha  89.974685
_cell_angle_beta   89.827298
_cell_angle_gamma 120.25349
loop_
_atom_site_label
_atom_site_type_symbol
_atom_site_fract_x
_atom_site_fract_y
_atom_site_fract_z
_atom_type_partial_charge
Zn0 Zn 0.42494 0.08384 0.19609 0.0
Zn1 Zn 0.42331 0.08408 0.3397 0.0
C2 C 0.36212 0.0422 0.15359 0.0
O3 O 0.35702 0.02204 0.18661 0.0
C4 C 0.46104 0.11177 0.41507 0.0
O5 O 0.44031 0.12289 0.41569 0.0
O6 O 0.46604 0.10714 0.15763 0.0
O7 O 0.42552 0.10816 0.25124 0.0
O8 O 0.42546 0.12608 0.31742 0.0
C9 C 0.46508 0.08957 0.12499 0.0
O10 O 0.43929 0.05976 0.12083 0.0
O11 O 0.38694 0.0713 0.15477 0.0
C12 C 0.35887 0.02867 0.36667 0.0
O13 O 0.35843 0.01567 0.32822 0.0
O14 O 0.38242 0.05743 0.37575 0.0
O15 O 0.42301 0.05838 0.28628 0.0
O16 O 0.42308 0.04252 0.21867 0.0
O17 O 0.46047 0.09451 0.38238 0.0
C18 C 0.42597 0.13018 0.27593 0.0
C19 C 0.42353 0.03773 0.25984 0.0
Zn20 Zn 0.31113 0.41368 0.51723 0.0
Zn21 Zn 0.29973 0.40617 0.65654 0.0
C22 C 0.27424 0.35052 0.47162 0.0
O23 O 0.2856 0.33904 0.50217 0.0
C24 C 0.33896 0.44918 0.72624 0.0
O25 O 0.31259 0.42917 0.7493 0.0
O26 O 0.33887 0.45563 0.48148 0.0
O27 O 0.28916 0.42099 0.56961 0.0
O28 O 0.2708 0.4242 0.63423 0.0
C29 C 0.34901 0.45196 0.44411 0.0
O30 O 0.34096 0.422 0.43142 0.0
O31 O 0.27948 0.37979 0.47503 0.0
C32 C 0.28467 0.34738 0.7035 0.0
O33 O 0.30426 0.34667 0.67312 0.0
O34 O 0.27688 0.36972 0.70161 0.0
O35 O 0.31253 0.38921 0.6031 0.0
O36 O 0.34264 0.401 0.54406 0.0
O37 O 0.33945 0.4442 0.6852 0.0
C38 C 0.27189 0.42902 0.59285 0.0
C39 C 0.34085 0.40028 0.58586 0.0
Zn40 Zn 0.92327 0.35566 0.8516 0.0
Zn41 Zn 0.90832 0.33804 0.99071 0.0
C42 C 0.9653 0.33949 0.80146 0.0
O43 O -0.01139 0.36551 0.82183 0.0
C44 C 0.87563 0.36014 0.05462 0.0
O45 O 0.84823 0.33198 0.04796 0.0
O46 O 0.90397 0.37613 0.81049 0.0
O47 O 0.89213 0.32938 0.90103 0.0
O48 O 0.86486 0.30549 0.96084 0.0
C49 C 0.88829 0.35964 0.77672 0.0
O50 O 0.88378 0.32981 0.77131 0.0
O51 O 0.93549 0.32842 0.81298 0.0
C52 C 0.91285 0.29986 0.05948 0.0
O53 O 0.88269 0.294 0.06622 0.0
O54 O 0.9283 0.31598 0.02534 0.0
O55 O 0.94036 0.36845 0.94419 0.0
O56 O 0.96366 0.39236 0.88223 0.0
O57 O 0.9016 0.36657 0.03356 0.0
C58 C 0.86513 0.30891 0.91929 0.0
C59 C 0.96392 0.39269 0.92416 0.0
Zn60 Zn 0.55993 0.88966 0.19063 0.0
Zn61 Zn 0.5607 0.88651 0.3323 0.0
C62 C 0.62013 0.9473 0.15774 0.0
O63 O 0.61603 0.96352 0.19006 0.0
C64 C 0.50168 0.84434 0.38393 0.0
O65 O 0.49748 0.82202 0.35449 0.0
O66 O 0.52616 0.86031 0.14515 0.0
O67 O 0.56445 0.86937 0.24616 0.0
O68 O 0.56147 0.84599 0.30874 0.0
C69 C 0.49758 0.8572 0.14501 0.0
O70 O 0.4872 0.86504 0.18067 0.0
O71 O 0.60156 0.91612 0.15567 0.0
C72 C 0.61203 0.91855 0.39554 0.0
O73 O 0.59324 0.89086 0.41697 0.0
O74 O 0.60421 0.92152 0.35653 0.0
O75 O 0.54812 0.90653 0.28213 0.0
O76 O 0.54345 0.91898 0.21377 0.0
O77 O 0.52661 0.87327 0.38075 0.0
C78 C 0.56069 0.84434 0.26695 0.0
C79 C 0.53822 0.9201 0.25475 0.0
Zn80 Zn 0.59838 0.53912 0.52623 0.0
Zn81 Zn 0.61429 0.52847 0.66399 0.0
C82 C 0.61507 0.5984 0.48053 0.0
O83 O 0.58478 0.58938 0.49273 0.0
C84 C 0.59091 0.46713 0.7126 0.0
O85 O 0.6118 0.46385 0.68724 0.0
O86 O 0.57635 0.50445 0.47792 0.0
O87 O 0.62232 0.52739 0.57136 0.0
O88 O 0.64407 0.51722 0.62808 0.0
C89 C 0.5929 0.50728 0.44322 0.0
O90 O 0.62384 0.53119 0.44089 0.0
O91 O 0.62809 0.58215 0.49498 0.0
C92 C 0.64508 0.59764 0.69186 0.0
O93 O 0.63471 0.60274 0.65418 0.0
O94 O 0.64054 0.56908 0.70046 0.0
O95 O 0.58482 0.5352 0.62171 0.0
O96 O 0.5632 0.54179 0.56165 0.0
O97 O 0.58718 0.49197 0.70737 0.0
C98 C 0.64106 0.5176 0.58656 0.0
C99 C 0.56194 0.53772 0.60325 0.0
Zn100 Zn 0.05494 0.65269 0.84464 0.0
Zn101 Zn 0.06316 0.65539 0.98311 0.0
C102 C 0.0317 0.68777 0.7935 0.0
O103 O 0.06321 0.70805 0.7857 0.0
C104 C 0.09709 0.63431 0.04112 0.0
O105 O 0.10706 0.66343 0.0588 0.0
O106 O 0.07687 0.64619 0.79118 0.0
O107 O 0.0873 0.68241 0.89166 0.0
O108 O 0.10301 0.69637 0.96047 0.0
C109 C 0.09834 0.63746 0.7955 0.0
O110 O 0.10901 0.63658 0.83512 0.0
O111 O 0.02346 0.66641 0.82391 0.0
C112 C 0.02828 0.64833 0.06314 0.0
O113 O 0.03181 0.62236 0.06685 0.0
O114 O 0.03883 0.6663 0.0289 0.0
O115 O 0.0361 0.63526 0.93032 0.0
O116 O 0.0289 0.6074 0.87065 0.0
O117 O 0.07854 0.6257 0.00761 0.0
C118 C 0.10854 0.70184 0.91935 0.0
C119 C 0.02904 0.60815 0.91225 0.0
Zn120 Zn 0.87194 0.53042 0.47729 0.0
Zn121 Zn 0.86296 0.54758 0.34333 0.0
C122 C 0.91759 0.57776 0.53147 0.0
O123 O 0.92687 0.55563 0.52837 0.0
C124 C 0.84724 0.49013 0.28597 0.0
O125 O 0.8179 0.474 0.30441 0.0
O126 O 0.85492 0.49226 0.52095 0.0
O127 O 0.83674 0.52522 0.43343 0.0
O128 O 0.8169 0.5279 0.3689 0.0
C129 C 0.85296 0.49513 0.56237 0.0
O130 O 0.85863 0.52346 0.57871 0.0
O131 O 0.89268 0.57349 0.50977 0.0
C132 C 0.90797 0.6158 0.32528 0.0
O133 O 0.92213 0.61329 0.36111 0.0
O134 O 0.87968 0.59202 0.3149 0.0
O135 O 0.89083 0.55087 0.39383 0.0
O136 O 0.90692 0.52804 0.44172 0.0
O137 O 0.86747 0.51951 0.29773 0.0
C138 C 0.81249 0.52081 0.40987 0.0
C139 C 0.90601 0.53556 0.40198 0.0
Zn140 Zn 0.3669 0.91244 0.81606 0.0
Zn141 Zn 0.34429 0.87675 0.68183 0.0
C142 C 0.35613 0.95729 0.86758 0.0
O143 O 0.38568 0.97796 0.852 0.0
C144 C 0.35875 0.83592 0.62624 0.0
O145 O 0.3268 0.8157 0.6303 0.0
O146 O 0.3927 0.89834 0.85635 0.0
O147 O 0.33782 0.87534 0.77502 0.0
O148 O 0.31052 0.84082 0.72248 0.0
C149 C 0.38569 0.89305 0.89722 0.0
O150 O 0.36147 0.89642 0.91303 0.0
O151 O 0.3415 0.92746 0.85438 0.0
C152 C 0.3214 0.91647 0.63732 0.0
O153 O 0.33602 0.93724 0.66983 0.0
O154 O 0.32097 0.88913 0.63698 0.0
O155 O 0.37314 0.91585 0.72009 0.0
O156 O 0.39807 0.94966 0.77453 0.0
O157 O 0.37218 0.8629 0.64754 0.0
C158 C 0.31335 0.84812 0.76323 0.0
C159 C 0.39543 0.94393 0.73323 0.0
Zn160 Zn 0.39777 0.35056 0.14668 0.0
Zn161 Zn 0.40154 0.31973 0.01638 0.0
C162 C 0.33835 0.34377 0.18535 0.0
O163 O 0.35069 0.37434 0.17143 0.0
C164 C 0.45531 0.33281 0.96055 0.0
O165 O 0.44339 0.30113 0.96794 0.0
O166 O 0.43211 0.37078 0.19513 0.0
O167 O 0.40346 0.31774 0.1102 0.0
O168 O 0.40782 0.28865 0.05746 0.0
C169 C 0.46111 0.3752 0.19214 0.0
O170 O 0.46972 0.36583 0.15621 0.0
O171 O 0.35329 0.32828 0.17587 0.0
C172 C 0.3356 0.29096 0.98021 0.0
O173 O 0.32822 0.29777 0.01907 0.0
O174 O 0.3645 0.29588 0.97343 0.0
O175 O 0.39092 0.3479 0.05503 0.0
O176 O 0.40527 0.38678 0.10325 0.0
O177 O 0.44214 0.34735 0.97987 0.0
C178 C 0.40782 0.29428 0.09851 0.0
C179 C 0.40698 0.37843 0.06394 0.0
Zn180 Zn 0.06476 0.46112 0.47331 0.0
Zn181 Zn 0.08601 0.45227 0.33771 0.0
C182 C 0.02571 0.3924 0.50689 0.0
O183 O 0.00661 0.38584 0.47238 0.0
C184 C 0.10154 0.47834 0.2507 0.0
O185 O 0.10349 0.45158 0.24488 0.0
O186 O 0.08027 0.50043 0.5152 0.0
O187 O 0.09943 0.46529 0.42952 0.0
O188 O 0.12771 0.4648 0.37271 0.0
C189 C 0.09371 0.49964 0.55122 0.0
O190 O 0.09836 0.47468 0.55893 0.0
O191 O 0.05066 0.42114 0.51139 0.0
C192 C 0.03713 0.3845 0.31496 0.0
O193 O 0.01867 0.38873 0.34377 0.0
O194 O 0.06703 0.40715 0.30991 0.0
O195 O 0.05327 0.45266 0.38 0.0
O196 O 0.0259 0.45523 0.43651 0.0
O197 O 0.09528 0.48488 0.28891 0.0
C198 C 0.12629 0.46934 0.4138 0.0
C199 C 0.02803 0.45244 0.39512 0.0
Zn200 Zn 0.6318 0.08172 0.81924 0.0
Zn201 Zn 0.65063 0.09545 0.68071 0.0
C202 C 0.64538 0.0384 0.87072 0.0
O203 O 0.61866 0.0156 0.85101 0.0
C204 C 0.60519 0.11779 0.654 0.0
O205 O 0.61744 0.13761 0.68799 0.0
O206 O 0.60682 0.09576 0.8602 0.0
O207 O 0.66134 0.1174 0.77472 0.0
O208 O 0.68172 0.13936 0.70968 0.0
C209 C 0.62009 0.12048 0.88596 0.0
O210 O 0.6521 0.14077 0.88385 0.0
O211 O 0.65725 0.06843 0.85942 0.0
C212 C 0.68483 0.09238 0.60327 0.0
O213 O 0.68669 0.12064 0.59371 0.0
O214 O 0.67269 0.07876 0.64009 0.0
O215 O 0.63272 0.06462 0.73127 0.0
O216 O 0.59671 0.04376 0.78379 0.0
O217 O 0.61523 0.09774 0.6456 0.0
C218 C 0.68151 0.14207 0.75153 0.0
C219 C 0.60297 0.04697 0.74285 0.0
Zn220 Zn 0.54032 0.61731 0.1446 0.0
Zn221 Zn 0.53847 0.63475 0.00565 0.0
C222 C 0.60572 0.64666 0.1855 0.0
O223 O 0.61195 0.62967 0.15656 0.0
C224 C 0.50665 0.61591 0.92214 0.0
O225 O 0.53116 0.64561 0.91272 0.0
O226 O 0.50154 0.59287 0.18735 0.0
O227 O 0.53179 0.64171 0.09642 0.0
O228 O 0.5261 0.66545 0.03829 0.0
C229 C 0.50112 0.60756 0.22248 0.0
O230 O 0.52418 0.63853 0.22826 0.0
O231 O 0.57904 0.64729 0.1825 0.0
C232 C 0.60149 0.65166 0.96771 0.0
O233 O 0.59783 0.62716 0.99273 0.0
O234 O 0.58061 0.66127 0.97088 0.0
O235 O 0.54485 0.60676 0.05135 0.0
O236 O 0.54882 0.58417 0.1122 0.0
O237 O 0.50317 0.60545 0.96158 0.0
C238 C 0.52491 0.6623 0.07997 0.0
C239 C 0.54822 0.5845 0.07026 0.0
H240 H 0.42718 0.14546 0.18887 0.0
H241 H 0.42467 0.1801 0.32063 0.0
H242 H 0.4221 0.22728 0.28904 0.0
H243 H 0.47749 0.227 0.13908 0.0
H244 H 0.45526 0.21473 0.08785 0.0
H245 H 0.45881 0.18471 0.12086 0.0
H246 H 0.39514 0.14755 0.12201 0.0
H247 H 0.39132 0.17745 0.0892 0.0
H248 H 0.37023 0.16433 0.14138 0.0
H249 H 0.41643 0.26829 0.24385 0.0
H250 H 0.40924 0.30186 0.18751 0.0
H251 H 0.41632 0.24111 0.08492 0.0
C252 C 0.42641 0.16314 0.2111 0.0
C253 C 0.42611 0.15919 0.25717 0.0
C254 C 0.42496 0.18273 0.2852 0.0
C255 C 0.42353 0.20959 0.26761 0.0
C256 C 0.42347 0.21253 0.22205 0.0
C257 C 0.42506 0.1901 0.19414 0.0
C258 C 0.42362 0.19842 0.14641 0.0
C259 C 0.45571 0.20672 0.12213 0.0
C260 C 0.39327 0.17026 0.12342 0.0
C261 C 0.42034 0.22874 0.15192 0.0
C262 C 0.42047 0.2365 0.19582 0.0
C263 C 0.41665 0.26274 0.20934 0.0
C264 C 0.41258 0.28164 0.17706 0.0
C265 C 0.41248 0.27423 0.13185 0.0
C266 C 0.41652 0.24748 0.11921 0.0
H267 H 0.25821 0.42821 0.5059 0.0
H268 H 0.24393 0.46132 0.63312 0.0
H269 H 0.21177 0.48357 0.59766 0.0
H270 H 0.26228 0.49632 0.43881 0.0
H271 H 0.23947 0.46873 0.39445 0.0
H272 H 0.2656 0.46016 0.42871 0.0
H273 H 0.21608 0.40212 0.44664 0.0
H274 H 0.18987 0.41038 0.41246 0.0
H275 H 0.17879 0.39854 0.46915 0.0
H276 H 0.17782 0.49802 0.54972 0.0
H277 H 0.13972 0.49842 0.49401 0.0
H278 H 0.17381 0.45298 0.39955 0.0
C279 C 0.24887 0.44072 0.5262 0.0
C280 C 0.25363 0.44329 0.57214 0.0
C281 C 0.2405 0.45918 0.5978 0.0
C282 C 0.22251 0.47213 0.57793 0.0
C283 C 0.21799 0.4689 0.53251 0.0
C284 C 0.23061 0.45339 0.50702 0.0
C285 C 0.21912 0.44967 0.45986 0.0
C286 C 0.24837 0.46994 0.42862 0.0
C287 C 0.19981 0.41301 0.44628 0.0
C288 C 0.19693 0.46433 0.46317 0.0
C289 C 0.19732 0.47607 0.50507 0.0
C290 C 0.17737 0.48898 0.51682 0.0
C291 C 0.15556 0.48874 0.48534 0.0
C292 C 0.1534 0.47502 0.44325 0.0
C293 C 0.17518 0.4638 0.43151 0.0
H294 H 0.81413 0.24599 0.93319 0.0
H295 H 0.84821 0.33096 0.84758 0.0
H296 H 0.80153 0.29864 0.79731 0.0
H297 H 0.79036 0.18683 0.85214 0.0
H298 H 0.75394 0.15534 0.87977 0.0
H299 H 0.7878 0.18621 0.91137 0.0
H300 H 0.74877 0.2032 0.94939 0.0
H301 H 0.71492 0.17138 0.91862 0.0
H302 H 0.72349 0.21345 0.91591 0.0
H303 H 0.75617 0.25538 0.75228 0.0
H304 H 0.71251 0.20447 0.71704 0.0
H305 H 0.70594 0.14836 0.83408 0.0
C306 C 0.81122 0.25786 0.90434 0.0
C307 C 0.83507 0.29054 0.8931 0.0
C308 C 0.83077 0.30545 0.85526 0.0
C309 C 0.80408 0.28749 0.82712 0.0
C310 C 0.78158 0.25482 0.83805 0.0
C311 C 0.78452 0.24024 0.87607 0.0
C312 C 0.75814 0.20414 0.87864 0.0
C313 C 0.77349 0.18184 0.88057 0.0
C314 C 0.73494 0.19769 0.91796 0.0
C315 C 0.74075 0.2005 0.83541 0.0
C316 C 0.75449 0.23007 0.81263 0.0
C317 C 0.74461 0.23221 0.77014 0.0
C318 C 0.72004 0.20323 0.75032 0.0
C319 C 0.70569 0.17279 0.7732 0.0
C320 C 0.71592 0.17155 0.8164 0.0
H321 H 0.54412 0.7274 0.06771 0.0
H322 H 0.49232 0.64497 0.15743 0.0
H323 H 0.49226 0.6826 0.21426 0.0
H324 H 0.59699 0.78281 0.14171 0.0
H325 H 0.59676 0.81884 0.1213 0.0
H326 H 0.58782 0.78521 0.08471 0.0
H327 H 0.53156 0.77969 0.06425 0.0
H328 H 0.54108 0.81413 0.09981 0.0
H329 H 0.5032 0.77542 0.1074 0.0
H330 H 0.50644 0.72939 0.26433 0.0
H331 H 0.52764 0.7826 0.30294 0.0
H332 H 0.56831 0.83504 0.18006 0.0
C333 C 0.53169 0.71725 0.09876 0.0
C334 C 0.51865 0.68356 0.10893 0.0
C335 C 0.5031 0.67097 0.14992 0.0
C336 C 0.50267 0.69206 0.18206 0.0
C337 C 0.51743 0.72555 0.17211 0.0
C338 C 0.53096 0.73808 0.13116 0.0
C339 C 0.54753 0.77543 0.13033 0.0
C340 C 0.58446 0.79149 0.11885 0.0
C341 C 0.52976 0.78682 0.09857 0.0
C342 C 0.54248 0.78188 0.17767 0.0
C343 C 0.5249 0.75276 0.20109 0.0
C344 C 0.51953 0.75239 0.24621 0.0
C345 C 0.53198 0.78268 0.26791 0.0
C346 C 0.54942 0.81277 0.24433 0.0
C347 C 0.55466 0.81231 0.19868 0.0
H348 H 0.69993 0.5208 0.60149 0.0
H349 H 0.62168 0.49002 0.50607 0.0
H350 H 0.65474 0.47999 0.4514 0.0
H351 H 0.76452 0.56466 0.53293 0.0
H352 H 0.79208 0.55249 0.55634 0.0
H353 H 0.76019 0.55198 0.58975 0.0
H354 H 0.7377 0.49018 0.60832 0.0
H355 H 0.76975 0.49059 0.57492 0.0
H356 H 0.72707 0.46072 0.56435 0.0
H357 H 0.69975 0.48325 0.40447 0.0
H358 H 0.75256 0.49626 0.36932 0.0
H359 H 0.80007 0.52095 0.49708 0.0
C360 C 0.6895 0.51109 0.56946 0.0
C361 C 0.65885 0.50718 0.55698 0.0
C362 C 0.64583 0.49454 0.51501 0.0
C363 C 0.66413 0.48816 0.48427 0.0
C364 C 0.69504 0.49372 0.49675 0.0
C365 C 0.70739 0.50427 0.53863 0.0
C366 C 0.7424 0.51112 0.54248 0.0
C367 C 0.76617 0.5472 0.55615 0.0
C368 C 0.74433 0.48669 0.57441 0.0
C369 C 0.74841 0.50475 0.49558 0.0
C370 C 0.72066 0.49424 0.46984 0.0
C371 C 0.72142 0.49053 0.42442 0.0
C372 C 0.7515 0.49818 0.40473 0.0
C373 C 0.78019 0.50934 0.4306 0.0
C374 C 0.77833 0.51182 0.47663 0.0
H375 H 0.25332 0.79403 0.7455 0.0
H376 H 0.31409 0.85654 0.85213 0.0
H377 H 0.2679 0.8261 0.90406 0.0
H378 H 0.1796 0.7901 0.77879 0.0
H379 H 0.15306 0.74753 0.76326 0.0
H380 H 0.19159 0.77247 0.7348 0.0
H381 H 0.20967 0.72979 0.75318 0.0
H382 H 0.17091 0.70449 0.78101 0.0
H383 H 0.20915 0.71763 0.8096 0.0
H384 H 0.21453 0.79057 0.94346 0.0
H385 H 0.15818 0.75014 0.96862 0.0
H386 H 0.13242 0.7122 0.83542 0.0
C387 C 0.25711 0.80096 0.77989 0.0
C388 C 0.28722 0.82758 0.7949 0.0
C389 C 0.29116 0.83617 0.84004 0.0
C390 C 0.26509 0.81908 0.86974 0.0
C391 C 0.2354 0.79353 0.85363 0.0
C392 C 0.23135 0.78427 0.80988 0.0
C393 C 0.19665 0.75658 0.80074 0.0
C394 C 0.17921 0.76734 0.76743 0.0
C395 C 0.19661 0.72527 0.78524 0.0
C396 C 0.18178 0.75199 0.84612 0.0
C397 C 0.20451 0.77342 0.87619 0.0
C398 C 0.19648 0.77358 0.92028 0.0
C399 C 0.16444 0.75066 0.93419 0.0
C400 C 0.14097 0.72815 0.90393 0.0
C401 C 0.14973 0.72925 0.85927 0.0
H402 H 0.5579 0.07436 0.91375 0.0
H403 H 0.63783 0.17397 0.9396 0.0
H404 H 0.60634 0.17796 0.00243 0.0
H405 H 0.48901 0.08635 0.94373 0.0
H406 H 0.46662 0.04567 0.96802 0.0
H407 H 0.49496 0.05352 0.92347 0.0
H408 H 0.52435 0.03102 0.97349 0.0
H409 H 0.49666 0.02511 0.01824 0.0
H410 H 0.5406 0.05044 0.02585 0.0
H411 H 0.56649 0.16993 0.0648 0.0
H412 H 0.52192 0.15057 0.12065 0.0
H413 H 0.46918 0.05599 0.0539 0.0
C414 C 0.5686 0.09726 0.9321 0.0
C415 C 0.60024 0.124 0.92143 0.0
C416 C 0.61357 0.15323 0.94697 0.0
C417 C 0.59586 0.15572 0.98275 0.0
C418 C 0.56493 0.12869 0.99276 0.0
C419 C 0.55145 0.10002 0.96811 0.0
C420 C 0.51859 0.07387 0.98689 0.0
C421 C 0.49065 0.06435 0.95353 0.0
C422 C 0.52017 0.04332 1.00202 0.0
C423 C 0.51546 0.09238 0.02573 0.0
C424 C 0.54241 0.12394 0.02871 0.0
C425 C 0.54522 0.1453 0.06264 0.0
C426 C 0.51982 0.13409 0.09427 0.0
C427 C 0.49202 0.10179 0.09177 0.0
C428 C 0.49 0.08086 0.05685 0.0
H429 H 0.45647 0.54077 0.2297 0.0
H430 H 0.49094 0.63443 0.29642 0.0
H431 H 0.45364 0.6053 0.35871 0.0
H432 H 0.36997 0.50105 0.26765 0.0
H433 H 0.36704 0.46135 0.27351 0.0
H434 H 0.39426 0.49023 0.23278 0.0
H435 H 0.44286 0.48612 0.26655 0.0
H436 H 0.41558 0.45779 0.30768 0.0
H437 H 0.45227 0.4953 0.32407 0.0
H438 H 0.41462 0.56553 0.416 0.0
H439 H 0.37737 0.51815 0.46341 0.0
H440 H 0.36919 0.45065 0.35984 0.0
C441 C 0.45574 0.55521 0.25704 0.0
C442 C 0.47655 0.58993 0.25795 0.0
C443 C 0.4752 0.60782 0.29478 0.0
C444 C 0.45403 0.5915 0.33039 0.0
C445 C 0.43422 0.55723 0.32878 0.0
C446 C 0.4348 0.53929 0.29298 0.0
C447 C 0.4123 0.50254 0.30044 0.0
C448 C 0.38422 0.48795 0.26658 0.0
C449 C 0.43194 0.48437 0.29963 0.0
C450 C 0.39942 0.50259 0.34624 0.0
C451 C 0.4121 0.53437 0.36191 0.0
C452 C 0.40435 0.54053 0.40392 0.0
C453 C 0.38318 0.51347 0.43064 0.0
C454 C 0.37022 0.48066 0.41539 0.0
C455 C 0.37847 0.47537 0.3725 0.0
H456 H 0.89738 0.42273 0.77217 0.0
H457 H 0.85119 0.3282 0.70469 0.0
H458 H 0.83331 0.35153 0.64559 0.0
H459 H 0.83487 0.44518 0.74187 0.0
H460 H 0.86519 0.4883 0.73472 0.0
H461 H 0.87228 0.46359 0.7738 0.0
H462 H 0.92793 0.4799 0.73548 0.0
H463 H 0.92079 0.50461 0.69668 0.0
H464 H 0.92848 0.47274 0.67727 0.0
H465 H 0.82483 0.38598 0.59036 0.0
H466 H 0.82512 0.42936 0.54368 0.0
H467 H 0.87484 0.50124 0.64729 0.0
C468 C 0.88308 0.40682 0.7453 0.0
C469 C 0.87573 0.37359 0.74317 0.0
C470 C 0.8572 0.35371 0.70717 0.0
C471 C 0.84682 0.36671 0.67339 0.0
C472 C 0.85487 0.39961 0.67609 0.0
C473 C 0.87237 0.4194 0.71122 0.0
C474 C 0.87896 0.45438 0.70496 0.0
C475 C 0.86179 0.46338 0.74098 0.0
C476 C 0.91626 0.47936 0.70349 0.0
C477 C 0.86309 0.45125 0.66044 0.0
C478 C 0.84924 0.4194 0.64448 0.0
C479 C 0.83509 0.41089 0.60278 0.0
C480 C 0.83539 0.43567 0.57648 0.0
C481 C 0.84954 0.46851 0.59206 0.0
C482 C 0.86312 0.47618 0.63488 0.0
H483 H 0.38083 0.88756 0.98692 0.0
H484 H 0.43362 0.87774 0.87587 0.0
H485 H 0.46504 0.86266 0.92691 0.0
H486 H 0.4496 0.92497 0.05911 0.0
H487 H 0.42568 0.90455 0.10752 0.0
H488 H 0.40653 0.91277 0.06189 0.0
H489 H 0.36218 0.85053 0.05828 0.0
H490 H 0.38144 0.84214 0.10375 0.0
H491 H 0.37492 0.82025 0.0526 0.0
H492 H 0.49227 0.85071 0.99131 0.0
H493 H 0.51468 0.84597 0.06273 0.0
H494 H 0.44336 0.86346 0.13069 0.0
C495 C 0.39877 0.88196 0.97313 0.0
C496 C 0.40459 0.88365 0.92724 0.0
C497 C 0.42864 0.87653 0.91083 0.0
C498 C 0.44653 0.86784 0.93959 0.0
C499 C 0.44009 0.86637 0.98467 0.0
C500 C 0.41686 0.87342 1.00128 0.0
C501 C 0.41558 0.87168 0.05107 0.0
C502 C 0.42491 0.9055 0.07105 0.0
C503 C 0.3815 0.84452 0.06737 0.0
C504 C 0.4418 0.86264 0.06004 0.0
C505 C 0.4556 0.85953 0.0214 0.0
C506 C 0.48139 0.85279 0.02171 0.0
C507 C 0.49387 0.84998 0.0625 0.0
C508 C 0.48063 0.85399 0.1025 0.0
C509 C 0.45376 0.85968 0.10091 0.0
H510 H 0.45028 0.39311 0.2742 0.0
H511 H 0.52699 0.39567 0.19105 0.0
H512 H 0.56819 0.42634 0.2486 0.0
H513 H 0.49684 0.47317 0.31712 0.0
H514 H 0.47987 0.46273 0.37197 0.0
H515 H 0.45583 0.43857 0.32591 0.0
H516 H 0.44813 0.3854 0.36239 0.0
H517 H 0.47206 0.40916 0.4089 0.0
H518 H 0.48389 0.38337 0.37926 0.0
H519 H 0.60177 0.46052 0.3122 0.0
H520 H 0.62534 0.4948 0.37846 0.0
H521 H 0.527 0.46898 0.42207 0.0
C522 C 0.47568 0.39979 0.26827 0.0
C523 C 0.48537 0.39197 0.22797 0.0
C524 C 0.51889 0.40127 0.22158 0.0
C525 C 0.54251 0.41869 0.25414 0.0
C526 C 0.53222 0.42633 0.29321 0.0
C527 C 0.49957 0.41694 0.30063 0.0
C528 C 0.49528 0.42919 0.34502 0.0
C529 C 0.48116 0.45232 0.33967 0.0
C530 C 0.47355 0.40004 0.37571 0.0
C531 C 0.53075 0.4478 0.36076 0.0
C532 C 0.5516 0.44561 0.33043 0.0
C533 C 0.58565 0.4621 0.33641 0.0
C534 C 0.59881 0.4816 0.37411 0.0
C535 C 0.57801 0.48444 0.40554 0.0
C536 C 0.54347 0.46689 0.39897 0.0
H537 H 0.06679 0.61689 0.71571 0.0
H538 H 0.14933 0.6252 0.79051 0.0
H539 H 0.16019 0.59541 0.73194 0.0
H540 H 0.03726 0.53594 0.68026 0.0
H541 H 0.02484 0.54147 0.62635 0.0
H542 H 0.026 0.56703 0.67126 0.0
H543 H 0.06509 0.61949 0.62642 0.0
H544 H 0.06409 0.59408 0.58124 0.0
H545 H 0.10307 0.62434 0.60453 0.0
H546 H 0.15816 0.55932 0.67047 0.0
H547 H 0.1445 0.52055 0.60855 0.0
H548 H 0.06402 0.53603 0.57165 0.0
C549 C 0.08772 0.61325 0.71921 0.0
C550 C 0.1074 0.62363 0.75763 0.0
C551 C 0.13401 0.61762 0.76138 0.0
C552 C 0.14041 0.60075 0.72822 0.0
C553 C 0.12004 0.5901 0.69136 0.0
C554 C 0.09436 0.59628 0.68643 0.0
C555 C 0.07472 0.57998 0.6451 0.0
C556 C 0.03858 0.5546 0.65644 0.0
C557 C 0.07689 0.60603 0.61238 0.0
C558 C 0.09303 0.56315 0.62802 0.0
C559 C 0.11914 0.56946 0.65524 0.0
C560 C 0.13818 0.55469 0.64847 0.0
C561 C 0.13018 0.53263 0.61329 0.0
C562 C 0.10353 0.52567 0.58501 0.0
C563 C 0.08505 0.54157 0.5921 0.0
H564 H 0.38195 0.0188 0.90382 0.0
H565 H 0.3022 0.91748 0.91906 0.0
H566 H 0.28754 0.93186 0.99041 0.0
H567 H 0.40981 0.02976 0.00712 0.0
H568 H 0.4201 0.07215 0.01353 0.0
H569 H 0.41944 0.05627 0.95964 0.0
H570 H 0.37764 0.07314 0.93347 0.0
H571 H 0.3782 0.08952 0.98736 0.0
H572 H 0.3396 0.05901 0.96343 0.0
H573 H 0.28915 0.9541 0.0659 0.0
H574 H 0.30655 0.98238 0.13766 0.0
H575 H 0.3837 0.06979 0.07237 0.0
C576 C 0.36064 -0.00011 0.92138 0.0
C577 C 0.34316 0.96704 0.90572 0.0
C578 C 0.3158 0.94289 0.93013 0.0
C579 C 0.30724 0.95086 0.97073 0.0
C580 C 0.32586 0.98321 0.98611 0.0
C581 C 0.3517 0.0075 0.96179 0.0
C582 C 0.3703 0.03931 0.98769 0.0
C583 C 0.40705 0.04994 0.99229 0.0
C584 C 0.36617 0.06687 0.96673 0.0
C585 C 0.35232 0.02848 0.03135 0.0
C586 C 0.32632 -0.00373 0.0296 0.0
C587 C 0.30882 0.97962 0.06736 0.0
C588 C 0.31889 -0.00412 0.10804 0.0
C589 C 0.34626 0.02841 0.11066 0.0
C590 C 0.36216 0.04524 0.07146 0.0
H591 H 0.30802 0.37436 0.22349 0.0
H592 H 0.31179 0.28374 0.22692 0.0
H593 H 0.28054 0.2681 0.29645 0.0
H594 H 0.3273 0.39498 0.32515 0.0
H595 H 0.30086 0.41163 0.33722 0.0
H596 H 0.31299 0.41077 0.28159 0.0
H597 H 0.25212 0.3775 0.25724 0.0
H598 H 0.23928 0.37854 0.31293 0.0
H599 H 0.22399 0.33953 0.28514 0.0
H600 H 0.26434 0.27009 0.37334 0.0
H601 H 0.26329 0.28905 0.4487 0.0
H602 H 0.26708 0.37685 0.39545 0.0
C603 C 0.30088 0.35049 0.23778 0.0
C604 C 0.31243 0.33037 0.21982 0.0
C605 C 0.30317 0.2996 0.23997 0.0
C606 C 0.28523 0.29038 0.27947 0.0
C607 C 0.27609 0.31184 0.29798 0.0
C608 C 0.28295 0.34097 0.27723 0.0
C609 C 0.27539 0.36224 0.30703 0.0
C610 C 0.30596 0.3969 0.31315 0.0
C611 C 0.24593 0.36457 0.28954 0.0
C612 C 0.26632 0.34207 0.34899 0.0
C613 C 0.26587 0.31259 0.34285 0.0
C614 C 0.26344 0.29251 0.37831 0.0
C615 C 0.26293 0.30351 0.4211 0.0
C616 C 0.26502 0.33439 0.428 0.0
C617 C 0.26484 0.35284 0.39131 0.0
H618 H 0.06011 0.39971 0.58202 0.0
H619 H 0.9673 0.33377 0.51782 0.0
H620 H 0.94592 0.30269 0.58727 0.0
H621 H 0.05839 0.33707 0.66522 0.0
H622 H 0.07584 0.36881 0.70667 0.0
H623 H 0.08715 0.37921 0.64968 0.0
H624 H 0.06936 0.42333 0.65394 0.0
H625 H 0.05795 0.41307 0.7105 0.0
H626 H 0.02803 0.41112 0.6717 0.0
H627 H 0.93029 0.28789 0.66587 0.0
H628 H 0.92156 0.29177 0.74508 0.0
H629 H 0.0245 0.36745 0.75862 0.0
C630 C 0.03574 0.37792 0.58204 0.0
C631 C 0.01538 0.36917 0.54452 0.0
C632 C -0.01654 0.34081 0.54607 0.0
C633 C 0.97115 0.32292 0.58541 0.0
C634 C -0.00875 0.33341 0.62262 0.0
C635 C 0.02312 0.36006 0.62102 0.0
C636 C 0.03782 0.37002 0.66654 0.0
C637 C 0.0665 0.36336 0.67236 0.0
C638 C 0.04889 0.4065 0.6762 0.0
C639 C 0.0084 0.34659 0.69433 0.0
C640 C -0.0179 0.32492 0.66845 0.0
C641 C 0.95096 0.30406 0.6865 0.0
C642 C 0.94622 0.30648 0.73164 0.0
C643 C 0.97238 0.32996 0.7581 0.0
C644 C 0.00416 0.34892 0.73946 0.0
H645 H 0.61182 0.92326 0.0744 0.0
H646 H 0.66884 0.01248 0.15092 0.0
H647 H 0.69106 0.04449 0.08209 0.0
H648 H 0.6697 0.94587 0.97676 0.0
H649 H 0.63525 0.92761 0.93943 0.0
H650 H 0.63116 0.9106 0.99386 0.0
H651 H 0.58034 0.91728 0.00822 0.0
H652 H 0.58437 0.93449 0.95427 0.0
H653 H 0.58436 0.95744 1.00186 0.0
H654 H 0.69921 0.06799 0.00587 0.0
H655 H 0.68999 0.0814 0.93069 0.0
H656 H 0.62501 0.97697 0.90462 0.0
C657 C 0.63013 0.94927 0.07684 0.0
C658 C 0.63903 0.96531 0.11807 0.0
C659 C 0.66204 -0.00037 0.1197 0.0
C660 C 0.67484 0.01797 0.08075 0.0
C661 C 0.66432 0.0016 0.04051 0.0
C662 C 0.6425 0.96793 0.03838 0.0
C663 C 0.63057 0.95702 0.99184 0.0
C664 C 0.64239 0.93391 0.97445 0.0
C665 C 0.5927 0.94063 0.98892 0.0
C666 C 0.64781 -0.00999 0.96835 0.0
C667 C 0.66792 0.01532 0.99665 0.0
C668 C 0.68405 0.04831 0.98325 0.0
C669 C 0.67865 0.05568 0.94039 0.0
C670 C 0.65677 0.0302 0.9117 0.0
C671 C 0.64214 -0.00305 0.92556 0.0
H672 H 0.59097 0.63301 0.43794 0.0
H673 H 0.6712 0.61223 0.43483 0.0
H674 H 0.68663 0.63667 0.36066 0.0
H675 H 0.5635 0.6067 0.33827 0.0
H676 H 0.5522 0.637 0.32365 0.0
H677 H 0.55364 0.6275 0.38039 0.0
H678 H 0.59486 0.68932 0.3964 0.0
H679 H 0.59337 0.69905 0.33933 0.0
H680 H 0.63247 0.71101 0.36479 0.0
H681 H 0.68361 0.64843 0.28155 0.0
H682 H 0.66338 0.6481 0.20657 0.0
H683 H 0.58694 0.66396 0.26113 0.0
C684 C 0.61272 0.63497 0.4225 0.0
C685 C 0.62986 0.62073 0.44222 0.0
C686 C 0.6578 0.62319 0.42057 0.0
C687 C 0.66681 0.63712 0.37836 0.0
C688 C 0.64805 0.64905 0.35859 0.0
C689 C 0.62193 0.64874 0.38038 0.0
C690 C 0.6025 0.65813 0.34988 0.0
C691 C 0.56584 0.63069 0.34793 0.0
C692 C 0.60603 0.69137 0.36341 0.0
C693 C 0.62015 0.66124 0.30683 0.0
C694 C 0.64682 0.65667 0.31258 0.0
C695 C 0.66351 0.65317 0.27675 0.0
C696 C 0.65181 0.65295 0.2342 0.0
C697 C 0.62364 0.6561 0.22789 0.0
C698 C 0.60888 0.66207 0.26466 0.0
H699 H -0.01849 0.62745 0.77219 0.0
H700 H 0.03103 0.73008 0.73104 0.0
H701 H -0.00072 0.71339 0.66136 0.0
H702 H -0.00565 0.60207 0.67567 0.0
H703 H 0.95724 0.56225 0.67445 0.0
H704 H 0.97451 0.58145 0.72629 0.0
H705 H 0.92024 0.57872 0.75014 0.0
H706 H 0.90159 0.55768 0.6995 0.0
H707 H 0.90108 0.59473 0.71415 0.0
H708 H 0.96688 0.6838 0.59202 0.0
H709 H 0.94162 0.6448 0.52933 0.0
H710 H 0.92157 0.563 0.61537 0.0
C711 C -0.01548 0.64672 0.74967 0.0
C712 C 0.008 0.68018 0.75747 0.0
C713 C 0.01254 0.70438 0.72597 0.0
C714 C -0.00536 0.69509 0.68639 0.0
C715 C 0.97287 0.66151 0.67879 0.0
C716 C 0.96801 0.63775 0.70971 0.0
C717 C 0.94913 0.60326 0.69108 0.0
C718 C 0.97005 0.58629 0.69195 0.0
C719 C 0.91603 0.58238 0.71514 0.0
C720 C 0.9441 0.61113 0.64475 0.0
C721 C 0.95715 0.64469 0.63821 0.0
C722 C 0.95635 0.65749 0.59698 0.0
C723 C 0.94211 0.63534 0.56166 0.0
C724 C 0.93003 0.60123 0.56798 0.0
C725 C 0.93077 0.58909 0.60996 0.0
H726 H 0.41857 0.987 0.21169 0.0
H727 H 0.44219 0.02972 0.34233 0.0
H728 H 0.46623 -0.00512 0.36061 0.0
H729 H 0.40695 0.90195 0.24282 0.0
H730 H 0.42636 0.90099 0.19204 0.0
H731 H 0.40142 0.92029 0.1938 0.0
H732 H 0.45014 0.97419 0.16252 0.0
H733 H 0.4755 0.95569 0.16086 0.0
H734 H 0.4892 -0.00638 0.19082 0.0
H735 H 0.49895 0.96582 0.35832 0.0
H736 H 0.535 0.94359 0.33636 0.0
H737 H 0.49262 0.92416 0.20559 0.0
C738 C 0.42749 -0.01204 0.24479 0.0
C739 C 0.42883 0.01109 0.27548 0.0
C740 C 0.44088 0.01198 0.31838 0.0
C741 C 0.45453 -0.00776 0.32906 0.0
C742 C 0.45531 0.97154 0.29666 0.0
C743 C 0.4414 0.96877 0.2556 0.0
C744 C 0.45009 0.94941 0.22405 0.0
C745 C 0.41937 0.91619 0.21252 0.0
C746 C 0.46727 0.96946 0.18217 0.0
C747 C 0.47346 0.94436 0.25243 0.0
C748 C 0.47526 0.95603 0.2947 0.0
C749 C 0.49722 0.95601 0.32559 0.0
C750 C 0.5178 0.94372 0.31278 0.0
C751 C 0.5168 0.93274 0.26916 0.0
C752 C 0.49408 0.93272 0.23904 0.0
H753 H 0.38033 0.46384 0.56331 0.0
H754 H 0.36731 0.39104 0.66107 0.0
H755 H 0.42127 0.4308 0.69372 0.0
H756 H 0.45518 0.48663 0.53619 0.0
H757 H 0.47056 0.53013 0.52781 0.0
H758 H 0.42736 0.50144 0.52308 0.0
H759 H 0.41496 0.53371 0.58247 0.0
H760 H 0.45863 0.56278 0.58641 0.0
H761 H 0.4353 0.54215 0.63504 0.0
H762 H 0.48071 0.47087 0.70192 0.0
H763 H 0.53921 0.50309 0.68036 0.0
H764 H 0.51461 0.55077 0.57736 0.0
C765 C 0.38854 0.45683 0.59252 0.0
C766 C 0.3701 0.42466 0.60984 0.0
C767 C 0.38119 0.4158 0.64772 0.0
C768 C 0.41165 0.43835 0.6666 0.0
C769 C 0.43023 0.46963 0.64741 0.0
C770 C 0.41878 0.47898 0.6114 0.0
C771 C 0.44541 0.51093 0.59137 0.0
C772 C 0.4499 0.50698 0.54177 0.0
C773 C 0.43812 0.53904 0.59933 0.0
C774 C 0.47467 0.516 0.6182 0.0
C775 C 0.46519 0.49305 0.65199 0.0
C776 C 0.48836 0.48952 0.67648 0.0
C777 C 0.52165 0.50797 0.66401 0.0
C778 C 0.53113 0.52902 0.62684 0.0
C779 C 0.5078 0.53488 0.60602 0.0
H780 H 0.02151 0.44347 0.89361 0.0
H781 H 0.95534 0.4126 0.00529 0.0
H782 H 0.97947 0.47041 0.02868 0.0
H783 H 0.09273 0.52615 0.95104 0.0
H784 H 0.10117 0.5463 0.89817 0.0
H785 H 0.08993 0.50342 0.90182 0.0
H786 H 0.04265 0.48857 0.84646 0.0
H787 H 0.05314 0.53081 0.84334 0.0
H788 H 0.01183 0.49966 0.85897 0.0
H789 H -0.00625 0.52868 0.0228 0.0
H790 H 0.00065 0.58073 0.99172 0.0
H791 H 0.0592 0.57532 0.88536 0.0
C792 C 0.01357 0.4489 0.92438 0.0
C793 C -0.01377 0.42382 0.94724 0.0
C794 C 0.97614 0.43147 0.98721 0.0
C795 C -0.0101 0.46439 1.00084 0.0
C796 C 0.01447 0.48917 0.97483 0.0
C797 C 0.02725 0.48168 0.93825 0.0
C798 C 0.04874 0.51226 0.91105 0.0
C799 C 0.08531 0.52264 0.91583 0.0
C800 C 0.03839 0.50751 0.86216 0.0
C801 C 0.04165 0.53669 0.93382 0.0
C802 C 0.02329 0.52361 0.97187 0.0
C803 C 0.00922 0.53969 0.99412 0.0
C804 C 0.01301 0.56908 0.9762 0.0
C805 C 0.03036 0.58164 0.9363 0.0
C806 C 0.04598 0.56607 0.91614 0.0
H807 H 0.03664 0.50228 0.34305 0.0
H808 H 0.96427 0.40413 0.38598 0.0
H809 H 0.91978 0.41163 0.35615 0.0
H810 H 0.00802 0.54074 0.38303 0.0
H811 H 0.01329 0.57062 0.34147 0.0
H812 H 0.0388 0.5525 0.34027 0.0
H813 H 0.02018 0.53204 0.26084 0.0
H814 H -0.00508 0.55102 0.2618 0.0
H815 H 0.9769 0.50795 0.24809 0.0
H816 H 0.88523 0.43501 0.35296 0.0
H817 H 0.86667 0.47105 0.38469 0.0
H818 H 0.95889 0.55726 0.34817 0.0
C819 C 0.01143 0.48189 0.34327 0.0
C820 C 0.00347 0.45258 0.36584 0.0
C821 C 0.97054 0.42653 0.36798 0.0
C822 C 0.94521 0.43061 0.35071 0.0
C823 C 0.95324 0.46114 0.33221 0.0
C824 C -0.01415 0.48631 0.32755 0.0
C825 C -0.01217 0.51911 0.31831 0.0
C826 C 0.01342 0.5473 0.34763 0.0
C827 C -0.00462 0.52806 0.26935 0.0
C828 C 0.95261 0.50993 0.32883 0.0
C829 C 0.93242 0.47584 0.33213 0.0
C830 C 0.90047 0.46152 0.34919 0.0
C831 C 0.89009 0.48214 0.36738 0.0
C832 C 0.91152 0.51664 0.3682 0.0
C833 C 0.94209 0.53085 0.34631 0.0
H834 H 0.43267 0.00993 0.74275 0.0
H835 H 0.41583 0.92978 0.65643 0.0
H836 H 0.47086 0.9638 0.62409 0.0
H837 H 0.50428 0.08152 0.65938 0.0
H838 H 0.52506 0.10429 0.70815 0.0
H839 H 0.48066 0.08386 0.70465 0.0
H840 H 0.47585 0.05323 0.77736 0.0
H841 H 0.51959 0.07316 0.78095 0.0
H842 H 0.49545 0.02857 0.78187 0.0
H843 H 0.53014 -0.00914 0.62988 0.0
H844 H 0.58281 0.00911 0.6686 0.0
H845 H 0.56435 0.07325 0.75073 0.0
C846 C 0.44016 0.00068 0.71506 0.0
C847 C 0.42083 0.96738 0.70271 0.0
C848 C 0.43055 0.95534 0.66652 0.0
C849 C 0.46183 0.97471 0.64769 0.0
C850 C 0.48257 0.00626 0.6647 0.0
C851 C 0.4714 0.02 0.6961 0.0
C852 C 0.4999 0.05057 0.71633 0.0
C853 C 0.50263 0.0819 0.69588 0.0
C854 C 0.49754 0.05128 0.76707 0.0
C855 C 0.52813 0.04629 0.70078 0.0
C856 C 0.51828 0.0227 0.66784 0.0
C857 C 0.53843 0.01018 0.65436 0.0
C858 C 0.56808 0.02024 0.67681 0.0
C859 C 0.57666 0.04197 0.71274 0.0
C860 C 0.55761 0.05647 0.72315 0.0
H861 H 0.50716 0.55455 0.00285 0.0
H862 H 0.57887 0.54917 0.08575 0.0
H863 H 0.5583 0.49185 0.06216 0.0
H864 H 0.44733 0.49413 0.03855 0.0
H865 H 0.42195 0.47526 0.99089 0.0
H866 H 0.45206 0.51821 0.98981 0.0
H867 H 0.47763 0.5098 0.92069 0.0
H868 H 0.44982 0.46552 0.92066 0.0
H869 H 0.49366 0.48204 0.92068 0.0
H870 H 0.51957 0.43387 0.05539 0.0
H871 H 0.46663 0.38425 0.07352 0.0
H872 H 0.4143 0.42344 0.00266 0.0
C873 C 0.51978 0.54176 0.01344 0.0
C874 C 0.54464 0.55598 0.0455 0.0
C875 C 0.55997 0.53858 0.06067 0.0
C876 C 0.5485 0.50602 0.0471 0.0
C877 C 0.52125 0.49107 0.01907 0.0
C878 C 0.50725 0.50865 1.00185 0.0
C879 C 0.47302 0.48551 0.98404 0.0
C880 C 0.44713 0.49377 1.00198 0.0
C881 C 0.47358 0.48579 0.93351 0.0
C882 C 0.46764 0.45283 1.00124 0.0
C883 C 0.49673 0.45613 0.01761 0.0
C884 C 0.49698 0.4308 0.0415 0.0
C885 C 0.46681 0.40274 0.05195 0.0
C886 C 0.43689 0.40054 0.03915 0.0
C887 C 0.43726 0.42474 0.01153 0.0
H888 H 0.33897 0.97942 0.6137 0.0
H889 H 0.2825 0.87761 0.57018 0.0
H890 H 0.27507 0.89647 0.49759 0.0
H891 H 0.2952 0.01353 0.54345 0.0
H892 H 0.33383 0.05101 0.53331 0.0
H893 H 0.32684 0.0295 0.585 0.0
H894 H 0.38018 0.02679 0.57295 0.0
H895 H 0.38722 0.04803 0.52145 0.0
H896 H 0.38471 0.00835 0.52331 0.0
H897 H 0.28419 0.92598 0.42638 0.0
H898 H 0.31001 0.96341 0.36305 0.0
H899 H 0.36046 0.04618 0.45256 0.0
C900 C 0.32379 0.96105 0.58955 0.0
C901 C 0.3111 0.92708 0.59763 0.0
C902 C 0.29229 0.90379 0.56472 0.0
C903 C 0.28778 0.91427 0.52346 0.0
C904 C 0.30203 0.9481 0.51573 0.0
C905 C 0.31941 0.97117 0.54808 0.0
C906 C 0.33685 0.00595 0.52962 0.0
C907 C 0.32229 0.02619 0.549 0.0
C908 C 0.37443 0.02325 0.53727 0.0
C909 C 0.32835 -0.00131 0.48141 0.0
C910 C 0.30752 0.9653 0.47414 0.0
C911 C 0.29976 0.95228 0.43171 0.0
C912 C 0.31461 0.97374 0.39588 0.0
C913 C 0.33722 0.00773 0.40281 0.0
C914 C 0.3429 0.02041 0.44609 0.0
H915 H 0.34629 0.28121 0.89457 0.0
H916 H 0.27681 0.29038 0.97945 0.0
H917 H 0.24831 0.29498 0.91413 0.0
H918 H 0.35893 0.34121 0.82507 0.0
H919 H 0.36244 0.32231 0.77527 0.0
H920 H 0.37186 0.31092 0.82724 0.0
H921 H 0.32899 0.24934 0.81269 0.0
H922 H 0.31961 0.26052 0.76016 0.0
H923 H 0.28703 0.23756 0.79946 0.0
H924 H 0.23615 0.31189 0.84186 0.0
H925 H 0.23966 0.33655 0.76871 0.0
H926 H 0.31594 0.31488 0.73061 0.0
C927 C 0.32426 0.28281 0.89947 0.0
C928 C 0.31381 0.28544 0.94214 0.0
C929 C 0.28521 0.28812 0.94711 0.0
C930 C 0.2688 0.2907 0.91013 0.0
C931 C 0.28095 0.28999 0.86846 0.0
C932 C 0.3077 0.28546 0.86295 0.0
C933 C 0.3188 0.29006 0.81538 0.0
C934 C 0.35513 0.31777 0.8105 0.0
C935 C 0.31326 0.25742 0.79577 0.0
C936 C 0.29548 0.29992 0.79545 0.0
C937 C 0.27343 0.29919 0.82636 0.0
C938 C 0.25255 0.31155 0.81702 0.0
C939 C 0.25479 0.32564 0.77545 0.0
C940 C 0.27778 0.32726 0.74382 0.0
C941 C 0.29751 0.31322 0.75365 0.0
H942 H 0.89659 0.29269 0.14633 0.0
H943 H 0.97253 0.30254 0.05562 0.0
H944 H 0.0097 0.31202 0.1181 0.0
H945 H 0.9449 0.35776 0.20534 0.0
H946 H 0.92648 0.34228 0.25857 0.0
H947 H 0.90234 0.32536 0.20987 0.0
H948 H 0.88878 0.26653 0.23291 0.0
H949 H 0.91276 0.28329 0.28227 0.0
H950 H 0.92185 0.25878 0.24535 0.0
H951 H 0.04248 0.33409 0.18601 0.0
H952 H 0.06795 0.36726 0.2525 0.0
H953 H 0.97129 0.34423 0.29975 0.0
C954 C 0.92042 0.29511 0.13977 0.0
C955 C 0.93159 0.29656 0.0962 0.0
C956 C 0.96338 0.30103 0.08881 0.0
C957 C -0.01538 0.30631 0.12416 0.0
C958 C 0.97363 0.30688 0.16669 0.0
C959 C 0.94204 0.30099 0.17468 0.0
C960 C 0.93817 0.30902 0.22182 0.0
C961 C 0.92738 0.33515 0.22397 0.0
C962 C 0.91396 0.27752 0.24708 0.0
C963 C 0.9731 0.32265 0.23818 0.0
C964 C -0.00705 0.32025 0.20636 0.0
C965 C 0.02703 0.33523 0.21164 0.0
C966 C 0.04132 0.35414 0.24951 0.0
C967 C 0.02158 0.3582 0.28142 0.0
C968 C -0.01305 0.34101 0.27644 0.0
H969 H 0.66826 0.02758 0.60688 0.0
H970 H 0.70995 0.11287 0.52014 0.0
H971 H 0.70626 0.07729 0.45795 0.0
H972 H 0.70299 0.97973 0.54813 0.0
H973 H 0.66523 0.94132 0.55806 0.0
H974 H 0.67934 0.97449 0.59741 0.0
H975 H 0.62312 0.97231 0.59206 0.0
H976 H 0.60898 0.93948 0.55267 0.0
H977 H 0.60866 0.97678 0.53903 0.0
H978 H 0.68742 0.03152 0.4034 0.0
H979 H 0.65469 0.97997 0.36154 0.0
H980 H 0.62469 0.92434 0.48371 0.0
C981 C 0.67793 0.03908 0.57522 0.0
C982 C 0.68958 0.07306 0.56844 0.0
C983 C 0.70114 0.08694 0.5262 0.0
C984 C 0.69925 0.06691 0.49069 0.0
C985 C 0.68601 0.03313 0.49805 0.0
C986 C 0.67587 0.01938 0.53947 0.0
C987 C 0.65791 0.98199 0.53773 0.0
C988 C 0.67755 0.9686 0.56175 0.0
C989 C 0.6226 0.96679 0.55644 0.0
C990 C 0.65772 0.97676 0.48861 0.0
C991 C 0.67478 0.00652 0.46632 0.0
C992 C 0.67473 0.00806 0.42051 0.0
C993 C 0.65596 0.97861 0.39699 0.0
C994 C 0.63721 0.94808 0.41935 0.0
C995 C 0.63921 0.94717 0.46561 0.0
H996 H 0.63846 0.62505 0.94058 0.0
H997 H 0.61196 0.69838 0.90528 0.0
H998 H 0.63531 0.70273 0.83123 0.0
H999 H 0.71445 0.65654 0.8636 0.0
H1000 H 0.70335 0.61444 0.85197 0.0
H1001 H 0.69525 0.62527 0.90564 0.0
H1002 H 0.63367 0.58005 0.89843 0.0
H1003 H 0.6414 0.56934 0.84497 0.0
H1004 H 0.61041 0.58098 0.85186 0.0
H1005 H 0.64686 0.68826 0.75741 0.0
H1006 H 0.64532 0.65645 0.69191 0.0
H1007 H 0.66434 0.59233 0.77443 0.0
C1008 C 0.63904 0.64323 0.91801 0.0
C1009 C 0.62343 0.66138 0.92874 0.0
C1010 C 0.62396 0.68433 0.89791 0.0
C1011 C 0.63731 0.68705 0.85573 0.0
C1012 C 0.65043 0.66701 0.84507 0.0
C1013 C 0.65191 0.64589 0.87569 0.0
C1014 C 0.66141 0.62266 0.85432 0.0
C1015 C 0.69566 0.6302 0.8698 0.0
C1016 C 0.63515 0.58615 0.86288 0.0
C1017 C 0.66227 0.63205 0.80651 0.0
C1018 C 0.65698 0.6584 0.80186 0.0
C1019 C 0.65203 0.6683 0.76063 0.0
C1020 C 0.65112 0.65001 0.72353 0.0
C1021 C 0.65466 0.62186 0.72807 0.0
C1022 C 0.66193 0.61395 0.76983 0.0
H1023 H 0.03809 0.64419 0.14968 0.0
H1024 H -0.01543 0.67072 0.05823 0.0
H1025 H 0.95383 0.67694 0.12052 0.0
H1026 H 0.97513 0.59533 0.21671 0.0
H1027 H -0.00216 0.60788 0.26755 0.0
H1028 H 0.01911 0.61156 0.21688 0.0
H1029 H 0.05839 0.67397 0.23191 0.0
H1030 H 0.03692 0.67042 0.28276 0.0
H1031 H 0.04143 0.70041 0.242 0.0
H1032 H 0.92058 0.66663 0.18978 0.0
H1033 H 0.89065 0.6446 0.26017 0.0
H1034 H 0.97052 0.63188 0.30759 0.0
C1035 C 0.02052 0.65221 0.14303 0.0
C1036 C 0.01341 0.65689 0.09957 0.0
C1037 C -0.00966 0.66727 0.0916 0.0
C1038 C 0.97292 0.67093 0.12672 0.0
C1039 C -0.02017 0.6652 0.16941 0.0
C1040 C 0.0037 0.65682 0.17766 0.0
C1041 C 0.00465 0.64917 0.22573 0.0
C1042 C -0.0012 0.61391 0.23202 0.0
C1043 C 0.03729 0.67505 0.24684 0.0
C1044 C 0.97602 0.65222 0.24285 0.0
C1045 C 0.96212 0.66179 0.21006 0.0
C1046 C 0.93198 0.6605 0.21623 0.0
C1047 C 0.91515 0.64802 0.25623 0.0
C1048 C 0.92882 0.63755 0.28957 0.0
C1049 C 0.96025 0.64115 0.2834 0.0
H1050 H 0.49179 0.07716 0.44009 0.0
H1051 H 0.47848 0.15916 0.47759 0.0
H1052 H 0.51173 0.16786 0.54416 0.0
H1053 H 0.48649 0.04622 0.55194 0.0
H1054 H 0.51703 0.03432 0.54267 0.0
H1055 H 0.49189 0.03401 0.49772 0.0
H1056 H 0.54456 0.07295 0.45282 0.0
H1057 H 0.56978 0.07313 0.49749 0.0
H1058 H 0.57523 0.11161 0.47657 0.0
H1059 H 0.54674 0.16837 0.60615 0.0
H1060 H 0.58318 0.16182 0.65841 0.0
H1061 H 0.57337 0.0789 0.58225 0.0
C1062 C 0.49613 0.09709 0.46216 0.0
C1063 C 0.48271 0.11765 0.45347 0.0
C1064 C 0.48852 0.14314 0.4835 0.0
C1065 C 0.5073 0.14823 0.52151 0.0
C1066 C 0.51987 0.1274 0.52941 0.0
C1067 C 0.51455 0.10229 0.50071 0.0
C1068 C 0.53093 0.08346 0.51728 0.0
C1069 C 0.50504 0.04737 0.52802 0.0
C1070 C 0.55666 0.08543 0.48406 0.0
C1071 C 0.54712 0.10264 0.55889 0.0
C1072 C 0.54004 0.12759 0.56551 0.0
C1073 C 0.55244 0.14889 0.60137 0.0
C1074 C 0.57313 0.14496 0.63091 0.0
C1075 C 0.58135 0.12002 0.62435 0.0
C1076 C 0.56769 0.09831 0.58812 0.0
H1077 H 0.34861 0.46195 0.81452 0.0
H1078 H 0.39358 0.50008 0.68694 0.0
H1079 H 0.44126 0.54696 0.72327 0.0
H1080 H 0.37448 0.54102 0.86596 0.0
H1081 H 0.38174 0.52805 0.91854 0.0
H1082 H 0.351 0.49815 0.88207 0.0
H1083 H 0.3795 0.46348 0.88586 0.0
H1084 H 0.41133 0.49351 0.92091 0.0
H1085 H 0.42214 0.48175 0.86967 0.0
H1086 H 0.48306 0.59029 0.77356 0.0
H1087 H 0.51793 0.62554 0.83395 0.0
H1088 H 0.44659 0.55808 0.92931 0.0
C1089 C 0.36838 0.48024 0.79415 0.0
C1090 C 0.36747 0.47733 0.74784 0.0
C1091 C 0.39395 0.50168 0.72245 0.0
C1092 C 0.421 0.52849 0.74279 0.0
C1093 C 0.42108 0.5306 0.78855 0.0
C1094 C 0.39548 0.50714 0.81389 0.0
C1095 C 0.40199 0.51462 0.86248 0.0
C1096 C 0.37574 0.52084 0.88348 0.0
C1097 C 0.40387 0.48667 0.88617 0.0
C1098 C 0.43536 0.54602 0.86066 0.0
C1099 C 0.44571 0.55496 0.81763 0.0
C1100 C 0.47529 0.58348 0.80738 0.0
C1101 C 0.49486 0.60339 0.84198 0.0
C1102 C 0.485 0.59459 0.8864 0.0
C1103 C 0.45486 0.5654 0.89574 0.0
H1104 H 0.82591 0.35438 0.10911 0.0
H1105 H 0.92934 0.41942 0.0762 0.0
H1106 H 0.93326 0.45856 0.13301 0.0
H1107 H 0.80672 0.41846 0.12892 0.0
H1108 H 0.77929 0.39737 0.1744 0.0
H1109 H 0.78452 0.37392 0.13143 0.0
H1110 H 0.8011 0.34438 0.18948 0.0
H1111 H 0.79603 0.36784 0.23263 0.0
H1112 H 0.83471 0.36872 0.22648 0.0
H1113 H 0.92644 0.49071 0.19258 0.0
H1114 H 0.9087 0.5152 0.2503 0.0
H1115 H 0.80956 0.42986 0.24546 0.0
C1116 C 0.84935 0.37687 0.11381 0.0
C1117 C 0.87728 0.3838 0.08811 0.0
C1118 C 0.90754 0.41352 0.09535 0.0
C1119 C 0.91009 0.43592 0.12766 0.0
C1120 C 0.88219 0.42828 0.15253 0.0
C1121 C 0.85237 0.39959 0.14602 0.0
C1122 C 0.82613 0.39772 0.17708 0.0
C1123 C 0.79748 0.39682 0.15142 0.0
C1124 C 0.81377 0.36789 0.20826 0.0
C1125 C 0.84585 0.43 0.20166 0.0
C1126 C 0.87818 0.44708 0.18707 0.0
C1127 C 0.90118 0.47762 0.2043 0.0
C1128 C 0.89079 0.49133 0.23703 0.0
C1129 C 0.85764 0.47451 0.25224 0.0
C1130 C 0.83501 0.44329 0.23452 0.0
H1131 H 0.50238 0.88512 0.44962 0.0
H1132 H 0.44634 0.78456 0.40054 0.0
H1133 H 0.40564 0.77061 0.46026 0.0
H1134 H 0.48796 0.86448 0.56632 0.0
H1135 H 0.48439 0.90007 0.57961 0.0
H1136 H 0.51003 0.90183 0.53421 0.0
H1137 H 0.47763 0.91894 0.48191 0.0
H1138 H 0.45206 0.91734 0.52721 0.0
H1139 H 0.43339 0.89332 0.47839 0.0
H1140 H 0.36954 0.76821 0.52286 0.0
H1141 H 0.34021 0.7778 0.5835 0.0
H1142 H 0.42011 0.8796 0.59275 0.0
C1143 C 0.48169 0.86008 0.45158 0.0
C1144 C 0.47761 0.83591 0.42035 0.0
C1145 C 0.45005 0.80351 0.42402 0.0
C1146 C 0.42682 0.79531 0.45792 0.0
C1147 C 0.43153 0.81972 0.48803 0.0
C1148 C 0.45828 0.85145 0.48525 0.0
C1149 C 0.45694 0.87336 0.52095 0.0
C1150 C 0.48659 0.88565 0.55212 0.0
C1151 C 0.45487 0.90245 0.50091 0.0
C1152 C 0.42502 0.84907 0.54387 0.0
C1153 C 0.41083 0.81824 0.52446 0.0
C1154 C 0.38054 0.79216 0.53859 0.0
C1155 C 0.36407 0.79784 0.57306 0.0
C1156 C 0.37793 0.82934 0.59309 0.0
C1157 C 0.40907 0.85509 0.57859 0.0
H1158 H 0.55519 0.47257 0.78069 0.0
H1159 H 0.5872 0.40763 0.72588 0.0
H1160 H 0.55897 0.36797 0.78636 0.0
H1161 H 0.565 0.45682 0.89494 0.0
H1162 H 0.52914 0.45762 0.91441 0.0
H1163 H 0.55171 0.48217 0.86733 0.0
H1164 H 0.49944 0.45483 0.81926 0.0
H1165 H 0.4758 0.43087 0.86597 0.0
H1166 H 0.47546 0.41038 0.81562 0.0
H1167 H 0.52582 0.33452 0.8508 0.0
H1168 H 0.4884 0.30856 0.91401 0.0
H1169 H 0.47881 0.39566 0.92822 0.0
C1170 C 0.55624 0.44999 0.78137 0.0
C1171 C 0.57334 0.44314 0.74845 0.0
C1172 C 0.57429 0.41342 0.75071 0.0
C1173 C 0.55841 0.39078 0.785 0.0
C1174 C 0.54195 0.39836 0.81701 0.0
C1175 C 0.54077 0.42724 0.81561 0.0
C1176 C 0.521 0.42915 0.85392 0.0
C1177 C 0.54302 0.45817 0.88443 0.0
C1178 C 0.49116 0.43143 0.83771 0.0
C1179 C 0.51035 0.3963 0.87615 0.0
C1180 C 0.52305 0.37914 0.85461 0.0
C1181 C 0.51587 0.34778 0.86812 0.0
C1182 C 0.49459 0.33325 0.9041 0.0
C1183 C 0.48065 0.35003 0.92607 0.0
C1184 C 0.4892 0.38225 0.9123 0.0
H1185 H 0.10781 0.53984 0.25169 0.0
H1186 H 0.10064 0.46349 0.16365 0.0
H1187 H 0.10169 0.49655 0.09979 0.0
H1188 H 0.05638 0.56062 0.19119 0.0
H1189 H 0.08059 0.60431 0.20206 0.0
H1190 H 0.08052 0.57521 0.2408 0.0
H1191 H 0.1443 0.60434 0.23574 0.0
H1192 H 0.1446 0.63359 0.19691 0.0
H1193 H 0.16377 0.60975 0.18275 0.0
H1194 H 0.09861 0.53558 0.04593 0.0
H1195 H 0.09542 0.57985 0.00583 0.0
H1196 H 0.10809 0.63206 0.12868 0.0
C1197 C 0.10677 0.53021 0.21897 0.0
C1198 C 0.10417 0.49912 0.21262 0.0
C1199 C 0.10282 0.48735 0.16929 0.0
C1200 C 0.10334 0.5059 0.1328 0.0
C1201 C 0.10567 0.53633 0.14021 0.0
C1202 C 0.10769 0.54858 0.18218 0.0
C1203 C 0.10965 0.58183 0.18113 0.0
C1204 C 0.08002 0.58038 0.20521 0.0
C1205 C 0.14254 0.60898 0.20026 0.0
C1206 C 0.10796 0.58613 0.13206 0.0
C1207 C 0.10546 0.55953 0.10901 0.0
C1208 C 0.10122 0.55685 0.06352 0.0
C1209 C 0.09941 0.58204 0.04106 0.0
C1210 C 0.10216 0.60958 0.06414 0.0
C1211 C 0.10684 0.61173 0.11009 0.0
loop_
_geom_bond_atom_site_label_1
_geom_bond_atom_site_label_2
_geom_bond_distance
_geom_bond_site_symmetry_2
_ccdc_geom_bond_type
Zn0 O6 1.969 . S
Zn0 O7 1.965 . S
Zn0 O11 2.024 . S
Zn0 O16 1.969 . S
Zn1 O8 1.969 . S
Zn1 O14 1.969 . S
Zn1 O15 1.965 . S
Zn1 O17 2.024 . S
C2 O3 1.229 . S
C2 O11 1.058 . S
O3 C2 1.229 . S
C4 O5 1.229 . S
C4 O17 1.058 . S
O5 C4 1.229 . S
O6 Zn0 1.969 . S
O6 C9 1.267 . S
O7 Zn0 1.965 . S
O7 C18 1.260 . S
O8 Zn1 1.969 . S
O8 C18 1.258 . S
C9 O6 1.267 . S
C9 O10 1.228 . S
O10 C9 1.228 . S
O11 Zn0 2.024 . S
O11 C2 1.058 . S
C12 O13 1.228 . S
C12 O14 1.267 . S
O13 C12 1.228 . S
O14 Zn1 1.969 . S
O14 C12 1.267 . S
O15 Zn1 1.965 . S
O15 C19 1.260 . S
O16 Zn0 1.969 . S
O16 C19 1.258 . S
O17 Zn1 2.024 . S
O17 C4 1.058 . S
C18 O7 1.260 . S
C18 O8 1.258 . S
C19 O15 1.260 . S
C19 O16 1.258 . S
Zn20 O26 1.969 . S
Zn20 O27 1.965 . S
Zn20 O31 2.024 . S
Zn20 O36 1.969 . S
Zn21 O28 1.969 . S
Zn21 O34 1.969 . S
Zn21 O35 1.965 . S
Zn21 O37 2.024 . S
C22 O23 1.229 . S
C22 O31 1.058 . S
O23 C22 1.229 . S
C24 O25 1.229 . S
C24 O37 1.058 . S
O25 C24 1.229 . S
O26 Zn20 1.969 . S
O26 C29 1.267 . S
O27 Zn20 1.965 . S
O27 C38 1.260 . S
O28 Zn21 1.969 . S
O28 C38 1.258 . S
C29 O26 1.267 . S
C29 O30 1.228 . S
O30 C29 1.228 . S
O31 Zn20 2.024 . S
O31 C22 1.058 . S
C32 O33 1.228 . S
C32 O34 1.267 . S
O33 C32 1.228 . S
O34 Zn21 1.969 . S
O34 C32 1.267 . S
O35 Zn21 1.965 . S
O35 C39 1.260 . S
O36 Zn20 1.969 . S
O36 C39 1.258 . S
O37 Zn21 2.024 . S
O37 C24 1.058 . S
C38 O27 1.260 . S
C38 O28 1.258 . S
C39 O35 1.260 . S
C39 O36 1.258 . S
Zn40 O46 1.969 . S
Zn40 O47 1.965 . S
Zn40 O51 2.024 . S
Zn40 O56 1.969 . S
Zn41 O48 1.969 . S
Zn41 O54 1.969 1_556 S
Zn41 O55 1.965 . S
Zn41 O57 2.024 1_556 S
C42 O43 1.229 . S
C42 O51 1.058 . S
O43 C42 1.229 . S
C44 O45 1.229 . S
C44 O57 1.058 . S
O45 C44 1.229 . S
O46 Zn40 1.969 . S
O46 C49 1.267 . S
O47 Zn40 1.965 . S
O47 C58 1.260 . S
O48 Zn41 1.969 . S
O48 C58 1.258 . S
C49 O46 1.267 . S
C49 O50 1.228 . S
O50 C49 1.228 . S
O51 Zn40 2.024 . S
O51 C42 1.058 . S
C52 O53 1.228 . S
C52 O54 1.267 . S
O53 C52 1.228 . S
O54 Zn41 1.969 1_554 S
O54 C52 1.267 . S
O55 Zn41 1.965 . S
O55 C59 1.260 . S
O56 Zn40 1.969 . S
O56 C59 1.258 . S
O57 Zn41 2.024 1_554 S
O57 C44 1.058 . S
C58 O47 1.260 . S
C58 O48 1.258 . S
C59 O55 1.260 . S
C59 O56 1.258 . S
Zn60 O66 1.969 . S
Zn60 O67 1.965 . S
Zn60 O71 2.024 . S
Zn60 O76 1.969 . S
Zn61 O68 1.969 . S
Zn61 O74 1.969 . S
Zn61 O75 1.965 . S
Zn61 O77 2.024 . S
C62 O63 1.229 . S
C62 O71 1.058 . S
O63 C62 1.229 . S
C64 O65 1.229 . S
C64 O77 1.058 . S
O65 C64 1.229 . S
O66 Zn60 1.969 . S
O66 C69 1.267 . S
O67 Zn60 1.965 . S
O67 C78 1.260 . S
O68 Zn61 1.969 . S
O68 C78 1.258 . S
C69 O66 1.267 . S
C69 O70 1.228 . S
O70 C69 1.228 . S
O71 Zn60 2.024 . S
O71 C62 1.058 . S
C72 O73 1.228 . S
C72 O74 1.267 . S
O73 C72 1.228 . S
O74 Zn61 1.969 . S
O74 C72 1.267 . S
O75 Zn61 1.965 . S
O75 C79 1.260 . S
O76 Zn60 1.969 . S
O76 C79 1.258 . S
O77 Zn61 2.024 . S
O77 C64 1.058 . S
C78 O67 1.260 . S
C78 O68 1.258 . S
C79 O75 1.260 . S
C79 O76 1.258 . S
Zn80 O86 1.969 . S
Zn80 O87 1.965 . S
Zn80 O91 2.024 . S
Zn80 O96 1.969 . S
Zn81 O88 1.969 . S
Zn81 O94 1.969 . S
Zn81 O95 1.965 . S
Zn81 O97 2.024 . S
C82 O83 1.229 . S
C82 O91 1.058 . S
O83 C82 1.229 . S
C84 O85 1.229 . S
C84 O97 1.058 . S
O85 C84 1.229 . S
O86 Zn80 1.969 . S
O86 C89 1.267 . S
O87 Zn80 1.965 . S
O87 C98 1.260 . S
O88 Zn81 1.969 . S
O88 C98 1.258 . S
C89 O86 1.267 . S
C89 O90 1.228 . S
O90 C89 1.228 . S
O91 Zn80 2.024 . S
O91 C82 1.058 . S
C92 O93 1.228 . S
C92 O94 1.267 . S
O93 C92 1.228 . S
O94 Zn81 1.969 . S
O94 C92 1.267 . S
O95 Zn81 1.965 . S
O95 C99 1.260 . S
O96 Zn80 1.969 . S
O96 C99 1.258 . S
O97 Zn81 2.024 . S
O97 C84 1.058 . S
C98 O87 1.260 . S
C98 O88 1.258 . S
C99 O95 1.260 . S
C99 O96 1.258 . S
Zn100 O106 1.969 . S
Zn100 O107 1.965 . S
Zn100 O111 2.024 . S
Zn100 O116 1.969 . S
Zn101 O108 1.969 . S
Zn101 O114 1.969 1_556 S
Zn101 O115 1.965 . S
Zn101 O117 2.024 1_556 S
C102 O103 1.229 . S
C102 O111 1.058 . S
O103 C102 1.229 . S
C104 O105 1.229 . S
C104 O117 1.058 . S
O105 C104 1.229 . S
O106 Zn100 1.969 . S
O106 C109 1.267 . S
O107 Zn100 1.965 . S
O107 C118 1.260 . S
O108 Zn101 1.969 . S
O108 C118 1.258 . S
C109 O106 1.267 . S
C109 O110 1.228 . S
O110 C109 1.228 . S
O111 Zn100 2.024 . S
O111 C102 1.058 . S
C112 O113 1.228 . S
C112 O114 1.267 . S
O113 C112 1.228 . S
O114 Zn101 1.969 1_554 S
O114 C112 1.267 . S
O115 Zn101 1.965 . S
O115 C119 1.260 . S
O116 Zn100 1.969 . S
O116 C119 1.258 . S
O117 Zn101 2.024 1_554 S
O117 C104 1.058 . S
C118 O107 1.260 . S
C118 O108 1.258 . S
C119 O115 1.260 . S
C119 O116 1.258 . S
Zn120 O126 1.969 . S
Zn120 O127 1.965 . S
Zn120 O131 2.024 . S
Zn120 O136 1.969 . S
Zn121 O128 1.969 . S
Zn121 O134 1.969 . S
Zn121 O135 1.965 . S
Zn121 O137 2.024 . S
C122 O123 1.229 . S
C122 O131 1.058 . S
O123 C122 1.229 . S
C124 O125 1.229 . S
C124 O137 1.058 . S
O125 C124 1.229 . S
O126 Zn120 1.969 . S
O126 C129 1.267 . S
O127 Zn120 1.965 . S
O127 C138 1.260 . S
O128 Zn121 1.969 . S
O128 C138 1.258 . S
C129 O126 1.267 . S
C129 O130 1.228 . S
O130 C129 1.228 . S
O131 Zn120 2.024 . S
O131 C122 1.058 . S
C132 O133 1.228 . S
C132 O134 1.267 . S
O133 C132 1.228 . S
O134 Zn121 1.969 . S
O134 C132 1.267 . S
O135 Zn121 1.965 . S
O135 C139 1.260 . S
O136 Zn120 1.969 . S
O136 C139 1.258 . S
O137 Zn121 2.024 . S
O137 C124 1.058 . S
C138 O127 1.260 . S
C138 O128 1.258 . S
C139 O135 1.260 . S
C139 O136 1.258 . S
Zn140 O146 1.969 . S
Zn140 O147 1.965 . S
Zn140 O151 2.024 . S
Zn140 O156 1.969 . S
Zn141 O148 1.969 . S
Zn141 O154 1.969 . S
Zn141 O155 1.965 . S
Zn141 O157 2.024 . S
C142 O143 1.229 . S
C142 O151 1.058 . S
O143 C142 1.229 . S
C144 O145 1.229 . S
C144 O157 1.058 . S
O145 C144 1.229 . S
O146 Zn140 1.969 . S
O146 C149 1.267 . S
O147 Zn140 1.965 . S
O147 C158 1.260 . S
O148 Zn141 1.969 . S
O148 C158 1.258 . S
C149 O146 1.267 . S
C149 O150 1.228 . S
O150 C149 1.228 . S
O151 Zn140 2.024 . S
O151 C142 1.058 . S
C152 O153 1.228 . S
C152 O154 1.267 . S
O153 C152 1.228 . S
O154 Zn141 1.969 . S
O154 C152 1.267 . S
O155 Zn141 1.965 . S
O155 C159 1.260 . S
O156 Zn140 1.969 . S
O156 C159 1.258 . S
O157 Zn141 2.024 . S
O157 C144 1.058 . S
C158 O147 1.260 . S
C158 O148 1.258 . S
C159 O155 1.260 . S
C159 O156 1.258 . S
Zn160 O166 1.969 . S
Zn160 O167 1.965 . S
Zn160 O171 2.024 . S
Zn160 O176 1.969 . S
Zn161 O168 1.969 . S
Zn161 O174 1.969 1_554 S
Zn161 O175 1.965 . S
Zn161 O177 2.024 1_554 S
C162 O163 1.229 . S
C162 O171 1.058 . S
O163 C162 1.229 . S
C164 O165 1.229 . S
C164 O177 1.058 . S
O165 C164 1.229 . S
O166 Zn160 1.969 . S
O166 C169 1.267 . S
O167 Zn160 1.965 . S
O167 C178 1.260 . S
O168 Zn161 1.969 . S
O168 C178 1.258 . S
C169 O166 1.267 . S
C169 O170 1.228 . S
O170 C169 1.228 . S
O171 Zn160 2.024 . S
O171 C162 1.058 . S
C172 O173 1.228 . S
C172 O174 1.267 . S
O173 C172 1.228 . S
O174 Zn161 1.969 1_556 S
O174 C172 1.267 . S
O175 Zn161 1.965 . S
O175 C179 1.260 . S
O176 Zn160 1.969 . S
O176 C179 1.258 . S
O177 Zn161 2.024 1_556 S
O177 C164 1.058 . S
C178 O167 1.260 . S
C178 O168 1.258 . S
C179 O175 1.260 . S
C179 O176 1.258 . S
Zn180 O186 1.969 . S
Zn180 O187 1.965 . S
Zn180 O191 2.024 . S
Zn180 O196 1.969 . S
Zn181 O188 1.969 . S
Zn181 O194 1.969 . S
Zn181 O195 1.965 . S
Zn181 O197 2.024 . S
C182 O183 1.229 . S
C182 O191 1.058 . S
O183 C182 1.229 . S
C184 O185 1.229 . S
C184 O197 1.058 . S
O185 C184 1.229 . S
O186 Zn180 1.969 . S
O186 C189 1.267 . S
O187 Zn180 1.965 . S
O187 C198 1.260 . S
O188 Zn181 1.969 . S
O188 C198 1.258 . S
C189 O186 1.267 . S
C189 O190 1.228 . S
O190 C189 1.228 . S
O191 Zn180 2.024 . S
O191 C182 1.058 . S
C192 O193 1.228 . S
C192 O194 1.267 . S
O193 C192 1.228 . S
O194 Zn181 1.969 . S
O194 C192 1.267 . S
O195 Zn181 1.965 . S
O195 C199 1.260 . S
O196 Zn180 1.969 . S
O196 C199 1.258 . S
O197 Zn181 2.024 . S
O197 C184 1.058 . S
C198 O187 1.260 . S
C198 O188 1.258 . S
C199 O195 1.260 . S
C199 O196 1.258 . S
Zn200 O206 1.969 . S
Zn200 O207 1.965 . S
Zn200 O211 2.024 . S
Zn200 O216 1.969 . S
Zn201 O208 1.969 . S
Zn201 O214 1.969 . S
Zn201 O215 1.965 . S
Zn201 O217 2.024 . S
C202 O203 1.229 . S
C202 O211 1.058 . S
O203 C202 1.229 . S
C204 O205 1.229 . S
C204 O217 1.058 . S
O205 C204 1.229 . S
O206 Zn200 1.969 . S
O206 C209 1.267 . S
O207 Zn200 1.965 . S
O207 C218 1.260 . S
O208 Zn201 1.969 . S
O208 C218 1.258 . S
C209 O206 1.267 . S
C209 O210 1.228 . S
O210 C209 1.228 . S
O211 Zn200 2.024 . S
O211 C202 1.058 . S
C212 O213 1.228 . S
C212 O214 1.267 . S
O213 C212 1.228 . S
O214 Zn201 1.969 . S
O214 C212 1.267 . S
O215 Zn201 1.965 . S
O215 C219 1.260 . S
O216 Zn200 1.969 . S
O216 C219 1.258 . S
O217 Zn201 2.024 . S
O217 C204 1.058 . S
C218 O207 1.260 . S
C218 O208 1.258 . S
C219 O215 1.260 . S
C219 O216 1.258 . S
Zn220 O226 1.969 . S
Zn220 O227 1.965 . S
Zn220 O231 2.024 . S
Zn220 O236 1.969 . S
Zn221 O228 1.969 . S
Zn221 O234 1.969 1_554 S
Zn221 O235 1.965 . S
Zn221 O237 2.024 1_554 S
C222 O223 1.229 . S
C222 O231 1.058 . S
O223 C222 1.229 . S
C224 O225 1.229 . S
C224 O237 1.058 . S
O225 C224 1.229 . S
O226 Zn220 1.969 . S
O226 C229 1.267 . S
O227 Zn220 1.965 . S
O227 C238 1.260 . S
O228 Zn221 1.969 . S
O228 C238 1.258 . S
C229 O226 1.267 . S
C229 O230 1.228 . S
O230 C229 1.228 . S
O231 Zn220 2.024 . S
O231 C222 1.058 . S
C232 O233 1.228 . S
C232 O234 1.267 . S
O233 C232 1.228 . S
O234 Zn221 1.969 1_556 S
O234 C232 1.267 . S
O235 Zn221 1.965 . S
O235 C239 1.260 . S
O236 Zn220 1.969 . S
O236 C239 1.258 . S
O237 Zn221 2.024 1_556 S
O237 C224 1.058 . S
C238 O227 1.260 . S
C238 O228 1.258 . S
C239 O235 1.260 . S
C239 O236 1.258 . S
H240 C252 0.930 . S
H241 C254 0.930 . S
H242 C255 0.930 . S
H243 C259 0.959 . S
H244 C259 0.959 . S
H245 C259 0.961 . S
H246 C260 0.960 . S
H247 C260 0.961 . S
H248 C260 0.959 . S
H249 C263 0.929 . S
H250 C264 0.931 . S
H251 C266 0.930 . S
C252 H240 0.930 . S
C252 C253 1.399 . S
C252 C257 1.399 . S
C253 C252 1.399 . S
C253 C254 1.376 . S
C254 H241 0.930 . S
C254 C253 1.376 . S
C254 C255 1.388 . S
C255 H242 0.930 . S
C255 C254 1.388 . S
C255 C256 1.390 . S
C256 C255 1.390 . S
C256 C257 1.394 . S
C256 C262 1.465 . S
C257 C252 1.399 . S
C257 C256 1.394 . S
C257 C258 1.516 . S
C258 C257 1.516 . S
C258 C259 1.502 . S
C258 C260 1.561 . S
C258 C261 1.526 . S
C259 H243 0.959 . S
C259 H244 0.959 . S
C259 H245 0.961 . S
C259 C258 1.502 . S
C260 H246 0.960 . S
C260 H247 0.961 . S
C260 H248 0.959 . S
C260 C258 1.561 . S
C261 C258 1.526 . S
C261 C262 1.396 . S
C261 C266 1.390 . S
C262 C256 1.465 . S
C262 C261 1.396 . S
C262 C263 1.399 . S
C263 H249 0.929 . S
C263 C262 1.399 . S
C263 C264 1.385 . S
C264 H250 0.931 . S
C264 C263 1.385 . S
C264 C265 1.389 . S
C265 C264 1.389 . S
C265 C266 1.387 . S
C266 H251 0.930 . S
C266 C261 1.390 . S
C266 C265 1.387 . S
H267 C279 0.930 . S
H268 C281 0.930 . S
H269 C282 0.930 . S
H270 C286 0.959 . S
H271 C286 0.959 . S
H272 C286 0.961 . S
H273 C287 0.960 . S
H274 C287 0.961 . S
H275 C287 0.959 . S
H276 C290 0.929 . S
H277 C291 0.931 . S
H278 C293 0.930 . S
C279 H267 0.930 . S
C279 C280 1.399 . S
C279 C284 1.399 . S
C280 C279 1.399 . S
C280 C281 1.376 . S
C281 H268 0.930 . S
C281 C280 1.376 . S
C281 C282 1.388 . S
C282 H269 0.930 . S
C282 C281 1.388 . S
C282 C283 1.390 . S
C283 C282 1.390 . S
C283 C284 1.394 . S
C283 C289 1.465 . S
C284 C279 1.399 . S
C284 C283 1.394 . S
C284 C285 1.516 . S
C285 C284 1.516 . S
C285 C286 1.502 . S
C285 C287 1.561 . S
C285 C288 1.526 . S
C286 H270 0.959 . S
C286 H271 0.959 . S
C286 H272 0.961 . S
C286 C285 1.502 . S
C287 H273 0.960 . S
C287 H274 0.961 . S
C287 H275 0.959 . S
C287 C285 1.561 . S
C288 C285 1.526 . S
C288 C289 1.396 . S
C288 C293 1.390 . S
C289 C283 1.465 . S
C289 C288 1.396 . S
C289 C290 1.399 . S
C290 H276 0.929 . S
C290 C289 1.399 . S
C290 C291 1.385 . S
C291 H277 0.931 . S
C291 C290 1.385 . S
C291 C292 1.389 . S
C292 C291 1.389 . S
C292 C293 1.387 . S
C293 H278 0.930 . S
C293 C288 1.390 . S
C293 C292 1.387 . S
H294 C306 0.930 . S
H295 C308 0.930 . S
H296 C309 0.930 . S
H297 C313 0.959 . S
H298 C313 0.959 . S
H299 C313 0.961 . S
H300 C314 0.960 . S
H301 C314 0.961 . S
H302 C314 0.959 . S
H303 C317 0.929 . S
H304 C318 0.931 . S
H305 C320 0.930 . S
C306 H294 0.930 . S
C306 C307 1.399 . S
C306 C311 1.399 . S
C307 C306 1.399 . S
C307 C308 1.376 . S
C308 H295 0.930 . S
C308 C307 1.376 . S
C308 C309 1.388 . S
C309 H296 0.930 . S
C309 C308 1.388 . S
C309 C310 1.390 . S
C310 C309 1.390 . S
C310 C311 1.394 . S
C310 C316 1.465 . S
C311 C306 1.399 . S
C311 C310 1.394 . S
C311 C312 1.516 . S
C312 C311 1.516 . S
C312 C313 1.502 . S
C312 C314 1.561 . S
C312 C315 1.526 . S
C313 H297 0.959 . S
C313 H298 0.959 . S
C313 H299 0.961 . S
C313 C312 1.502 . S
C314 H300 0.960 . S
C314 H301 0.961 . S
C314 H302 0.959 . S
C314 C312 1.561 . S
C315 C312 1.526 . S
C315 C316 1.396 . S
C315 C320 1.390 . S
C316 C310 1.465 . S
C316 C315 1.396 . S
C316 C317 1.399 . S
C317 H303 0.929 . S
C317 C316 1.399 . S
C317 C318 1.385 . S
C318 H304 0.931 . S
C318 C317 1.385 . S
C318 C319 1.389 . S
C319 C318 1.389 . S
C319 C320 1.387 . S
C320 H305 0.930 . S
C320 C315 1.390 . S
C320 C319 1.387 . S
H321 C333 0.930 . S
H322 C335 0.930 . S
H323 C336 0.930 . S
H324 C340 0.959 . S
H325 C340 0.959 . S
H326 C340 0.961 . S
H327 C341 0.960 . S
H328 C341 0.961 . S
H329 C341 0.959 . S
H330 C344 0.929 . S
H331 C345 0.931 . S
H332 C347 0.930 . S
C333 H321 0.930 . S
C333 C334 1.399 . S
C333 C338 1.399 . S
C334 C333 1.399 . S
C334 C335 1.376 . S
C335 H322 0.930 . S
C335 C334 1.376 . S
C335 C336 1.388 . S
C336 H323 0.930 . S
C336 C335 1.388 . S
C336 C337 1.390 . S
C337 C336 1.390 . S
C337 C338 1.394 . S
C337 C343 1.465 . S
C338 C333 1.399 . S
C338 C337 1.394 . S
C338 C339 1.516 . S
C339 C338 1.516 . S
C339 C340 1.502 . S
C339 C341 1.561 . S
C339 C342 1.526 . S
C340 H324 0.959 . S
C340 H325 0.959 . S
C340 H326 0.961 . S
C340 C339 1.502 . S
C341 H327 0.960 . S
C341 H328 0.961 . S
C341 H329 0.959 . S
C341 C339 1.561 . S
C342 C339 1.526 . S
C342 C343 1.396 . S
C342 C347 1.390 . S
C343 C337 1.465 . S
C343 C342 1.396 . S
C343 C344 1.399 . S
C344 H330 0.929 . S
C344 C343 1.399 . S
C344 C345 1.385 . S
C345 H331 0.931 . S
C345 C344 1.385 . S
C345 C346 1.389 . S
C346 C345 1.389 . S
C346 C347 1.387 . S
C347 H332 0.930 . S
C347 C342 1.390 . S
C347 C346 1.387 . S
H348 C360 0.930 . S
H349 C362 0.930 . S
H350 C363 0.930 . S
H351 C367 0.959 . S
H352 C367 0.959 . S
H353 C367 0.961 . S
H354 C368 0.960 . S
H355 C368 0.961 . S
H356 C368 0.959 . S
H357 C371 0.929 . S
H358 C372 0.931 . S
H359 C374 0.930 . S
C360 H348 0.930 . S
C360 C361 1.399 . S
C360 C365 1.399 . S
C361 C360 1.399 . S
C361 C362 1.376 . S
C362 H349 0.930 . S
C362 C361 1.376 . S
C362 C363 1.388 . S
C363 H350 0.930 . S
C363 C362 1.388 . S
C363 C364 1.390 . S
C364 C363 1.390 . S
C364 C365 1.394 . S
C364 C370 1.465 . S
C365 C360 1.399 . S
C365 C364 1.394 . S
C365 C366 1.516 . S
C366 C365 1.516 . S
C366 C367 1.502 . S
C366 C368 1.561 . S
C366 C369 1.526 . S
C367 H351 0.959 . S
C367 H352 0.959 . S
C367 H353 0.961 . S
C367 C366 1.502 . S
C368 H354 0.960 . S
C368 H355 0.961 . S
C368 H356 0.959 . S
C368 C366 1.561 . S
C369 C366 1.526 . S
C369 C370 1.396 . S
C369 C374 1.390 . S
C370 C364 1.465 . S
C370 C369 1.396 . S
C370 C371 1.399 . S
C371 H357 0.929 . S
C371 C370 1.399 . S
C371 C372 1.385 . S
C372 H358 0.931 . S
C372 C371 1.385 . S
C372 C373 1.389 . S
C373 C372 1.389 . S
C373 C374 1.387 . S
C374 H359 0.930 . S
C374 C369 1.390 . S
C374 C373 1.387 . S
H375 C387 0.930 . S
H376 C389 0.930 . S
H377 C390 0.930 . S
H378 C394 0.959 . S
H379 C394 0.959 . S
H380 C394 0.961 . S
H381 C395 0.960 . S
H382 C395 0.961 . S
H383 C395 0.959 . S
H384 C398 0.929 . S
H385 C399 0.931 . S
H386 C401 0.930 . S
C387 H375 0.930 . S
C387 C388 1.399 . S
C387 C392 1.399 . S
C388 C387 1.399 . S
C388 C389 1.376 . S
C389 H376 0.930 . S
C389 C388 1.376 . S
C389 C390 1.388 . S
C390 H377 0.930 . S
C390 C389 1.388 . S
C390 C391 1.390 . S
C391 C390 1.390 . S
C391 C392 1.394 . S
C391 C397 1.465 . S
C392 C387 1.399 . S
C392 C391 1.394 . S
C392 C393 1.516 . S
C393 C392 1.516 . S
C393 C394 1.502 . S
C393 C395 1.561 . S
C393 C396 1.526 . S
C394 H378 0.959 . S
C394 H379 0.959 . S
C394 H380 0.961 . S
C394 C393 1.502 . S
C395 H381 0.960 . S
C395 H382 0.961 . S
C395 H383 0.959 . S
C395 C393 1.561 . S
C396 C393 1.526 . S
C396 C397 1.396 . S
C396 C401 1.390 . S
C397 C391 1.465 . S
C397 C396 1.396 . S
C397 C398 1.399 . S
C398 H384 0.929 . S
C398 C397 1.399 . S
C398 C399 1.385 . S
C399 H385 0.931 . S
C399 C398 1.385 . S
C399 C400 1.389 . S
C400 C399 1.389 . S
C400 C401 1.387 . S
C401 H386 0.930 . S
C401 C396 1.390 . S
C401 C400 1.387 . S
H402 C414 0.930 . S
H403 C416 0.930 . S
H404 C417 0.930 . S
H405 C421 0.959 . S
H406 C421 0.959 . S
H407 C421 0.961 . S
H408 C422 0.960 1_556 S
H409 C422 0.961 . S
H410 C422 0.959 . S
H411 C425 0.929 . S
H412 C426 0.931 . S
H413 C428 0.930 . S
C414 H402 0.930 . S
C414 C415 1.399 . S
C414 C419 1.399 . S
C415 C414 1.399 . S
C415 C416 1.376 . S
C416 H403 0.930 . S
C416 C415 1.376 . S
C416 C417 1.388 . S
C417 H404 0.930 . S
C417 C416 1.388 . S
C417 C418 1.390 . S
C418 C417 1.390 . S
C418 C419 1.394 . S
C418 C424 1.465 1_556 S
C419 C414 1.399 . S
C419 C418 1.394 . S
C419 C420 1.516 . S
C420 C419 1.516 . S
C420 C421 1.502 . S
C420 C422 1.561 1_556 S
C420 C423 1.526 1_556 S
C421 H405 0.959 . S
C421 H406 0.959 . S
C421 H407 0.961 . S
C421 C420 1.502 . S
C422 H408 0.960 1_554 S
C422 H409 0.961 . S
C422 H410 0.959 . S
C422 C420 1.561 1_554 S
C423 C420 1.526 1_554 S
C423 C424 1.396 . S
C423 C428 1.390 . S
C424 C418 1.465 1_554 S
C424 C423 1.396 . S
C424 C425 1.399 . S
C425 H411 0.929 . S
C425 C424 1.399 . S
C425 C426 1.385 . S
C426 H412 0.931 . S
C426 C425 1.385 . S
C426 C427 1.389 . S
C427 C426 1.389 . S
C427 C428 1.387 . S
C428 H413 0.930 . S
C428 C423 1.390 . S
C428 C427 1.387 . S
H429 C441 0.930 . S
H430 C443 0.930 . S
H431 C444 0.930 . S
H432 C448 0.959 . S
H433 C448 0.959 . S
H434 C448 0.961 . S
H435 C449 0.960 . S
H436 C449 0.961 . S
H437 C449 0.959 . S
H438 C452 0.929 . S
H439 C453 0.931 . S
H440 C455 0.930 . S
C441 H429 0.930 . S
C441 C442 1.399 . S
C441 C446 1.399 . S
C442 C441 1.399 . S
C442 C443 1.376 . S
C443 H430 0.930 . S
C443 C442 1.376 . S
C443 C444 1.388 . S
C444 H431 0.930 . S
C444 C443 1.388 . S
C444 C445 1.390 . S
C445 C444 1.390 . S
C445 C446 1.394 . S
C445 C451 1.465 . S
C446 C441 1.399 . S
C446 C445 1.394 . S
C446 C447 1.516 . S
C447 C446 1.516 . S
C447 C448 1.502 . S
C447 C449 1.561 . S
C447 C450 1.526 . S
C448 H432 0.959 . S
C448 H433 0.959 . S
C448 H434 0.961 . S
C448 C447 1.502 . S
C449 H435 0.960 . S
C449 H436 0.961 . S
C449 H437 0.959 . S
C449 C447 1.561 . S
C450 C447 1.526 . S
C450 C451 1.396 . S
C450 C455 1.390 . S
C451 C445 1.465 . S
C451 C450 1.396 . S
C451 C452 1.399 . S
C452 H438 0.929 . S
C452 C451 1.399 . S
C452 C453 1.385 . S
C453 H439 0.931 . S
C453 C452 1.385 . S
C453 C454 1.389 . S
C454 C453 1.389 . S
C454 C455 1.387 . S
C455 H440 0.930 . S
C455 C450 1.390 . S
C455 C454 1.387 . S
H456 C468 0.930 . S
H457 C470 0.930 . S
H458 C471 0.930 . S
H459 C475 0.959 . S
H460 C475 0.959 . S
H461 C475 0.961 . S
H462 C476 0.960 . S
H463 C476 0.961 . S
H464 C476 0.959 . S
H465 C479 0.929 . S
H466 C480 0.931 . S
H467 C482 0.930 . S
C468 H456 0.930 . S
C468 C469 1.399 . S
C468 C473 1.399 . S
C469 C468 1.399 . S
C469 C470 1.376 . S
C470 H457 0.930 . S
C470 C469 1.376 . S
C470 C471 1.388 . S
C471 H458 0.930 . S
C471 C470 1.388 . S
C471 C472 1.390 . S
C472 C471 1.390 . S
C472 C473 1.394 . S
C472 C478 1.465 . S
C473 C468 1.399 . S
C473 C472 1.394 . S
C473 C474 1.516 . S
C474 C473 1.516 . S
C474 C475 1.502 . S
C474 C476 1.561 . S
C474 C477 1.526 . S
C475 H459 0.959 . S
C475 H460 0.959 . S
C475 H461 0.961 . S
C475 C474 1.502 . S
C476 H462 0.960 . S
C476 H463 0.961 . S
C476 H464 0.959 . S
C476 C474 1.561 . S
C477 C474 1.526 . S
C477 C478 1.396 . S
C477 C482 1.390 . S
C478 C472 1.465 . S
C478 C477 1.396 . S
C478 C479 1.399 . S
C479 H465 0.929 . S
C479 C478 1.399 . S
C479 C480 1.385 . S
C480 H466 0.931 . S
C480 C479 1.385 . S
C480 C481 1.389 . S
C481 C480 1.389 . S
C481 C482 1.387 . S
C482 H467 0.930 . S
C482 C477 1.390 . S
C482 C481 1.387 . S
H483 C495 0.930 . S
H484 C497 0.930 . S
H485 C498 0.930 . S
H486 C502 0.959 . S
H487 C502 0.959 . S
H488 C502 0.961 . S
H489 C503 0.960 . S
H490 C503 0.961 1_554 S
H491 C503 0.959 . S
H492 C506 0.929 . S
H493 C507 0.931 . S
H494 C509 0.930 . S
C495 H483 0.930 . S
C495 C496 1.399 . S
C495 C500 1.399 . S
C496 C495 1.399 . S
C496 C497 1.376 . S
C497 H484 0.930 . S
C497 C496 1.376 . S
C497 C498 1.388 . S
C498 H485 0.930 . S
C498 C497 1.388 . S
C498 C499 1.390 . S
C499 C498 1.390 . S
C499 C500 1.394 . S
C499 C505 1.465 1_556 S
C500 C495 1.399 . S
C500 C499 1.394 . S
C500 C501 1.516 1_556 S
C501 C500 1.516 1_554 S
C501 C502 1.502 . S
C501 C503 1.561 1_554 S
C501 C504 1.526 . S
C502 H486 0.959 . S
C502 H487 0.959 . S
C502 H488 0.961 . S
C502 C501 1.502 . S
C503 H489 0.960 . S
C503 H490 0.961 1_556 S
C503 H491 0.959 . S
C503 C501 1.561 1_556 S
C504 C501 1.526 . S
C504 C505 1.396 . S
C504 C509 1.390 . S
C505 C499 1.465 1_554 S
C505 C504 1.396 . S
C505 C506 1.399 . S
C506 H492 0.929 . S
C506 C505 1.399 . S
C506 C507 1.385 . S
C507 H493 0.931 . S
C507 C506 1.385 . S
C507 C508 1.389 . S
C508 C507 1.389 . S
C508 C509 1.387 . S
C509 H494 0.930 . S
C509 C504 1.390 . S
C509 C508 1.387 . S
H510 C522 0.930 . S
H511 C524 0.930 . S
H512 C525 0.930 . S
H513 C529 0.959 . S
H514 C529 0.959 . S
H515 C529 0.961 . S
H516 C530 0.960 . S
H517 C530 0.961 . S
H518 C530 0.959 . S
H519 C533 0.929 . S
H520 C534 0.931 . S
H521 C536 0.930 . S
C522 H510 0.930 . S
C522 C523 1.399 . S
C522 C527 1.399 . S
C523 C522 1.399 . S
C523 C524 1.376 . S
C524 H511 0.930 . S
C524 C523 1.376 . S
C524 C525 1.388 . S
C525 H512 0.930 . S
C525 C524 1.388 . S
C525 C526 1.390 . S
C526 C525 1.390 . S
C526 C527 1.394 . S
C526 C532 1.465 . S
C527 C522 1.399 . S
C527 C526 1.394 . S
C527 C528 1.516 . S
C528 C527 1.516 . S
C528 C529 1.502 . S
C528 C530 1.561 . S
C528 C531 1.526 . S
C529 H513 0.959 . S
C529 H514 0.959 . S
C529 H515 0.961 . S
C529 C528 1.502 . S
C530 H516 0.960 . S
C530 H517 0.961 . S
C530 H518 0.959 . S
C530 C528 1.561 . S
C531 C528 1.526 . S
C531 C532 1.396 . S
C531 C536 1.390 . S
C532 C526 1.465 . S
C532 C531 1.396 . S
C532 C533 1.399 . S
C533 H519 0.929 . S
C533 C532 1.399 . S
C533 C534 1.385 . S
C534 H520 0.931 . S
C534 C533 1.385 . S
C534 C535 1.389 . S
C535 C534 1.389 . S
C535 C536 1.387 . S
C536 H521 0.930 . S
C536 C531 1.390 . S
C536 C535 1.387 . S
H537 C549 0.930 . S
H538 C551 0.930 . S
H539 C552 0.930 . S
H540 C556 0.959 . S
H541 C556 0.959 . S
H542 C556 0.961 . S
H543 C557 0.960 . S
H544 C557 0.961 . S
H545 C557 0.959 . S
H546 C560 0.929 . S
H547 C561 0.931 . S
H548 C563 0.930 . S
C549 H537 0.930 . S
C549 C550 1.399 . S
C549 C554 1.399 . S
C550 C549 1.399 . S
C550 C551 1.376 . S
C551 H538 0.930 . S
C551 C550 1.376 . S
C551 C552 1.388 . S
C552 H539 0.930 . S
C552 C551 1.388 . S
C552 C553 1.390 . S
C553 C552 1.390 . S
C553 C554 1.394 . S
C553 C559 1.465 . S
C554 C549 1.399 . S
C554 C553 1.394 . S
C554 C555 1.516 . S
C555 C554 1.516 . S
C555 C556 1.502 . S
C555 C557 1.561 . S
C555 C558 1.526 . S
C556 H540 0.959 . S
C556 H541 0.959 . S
C556 H542 0.961 . S
C556 C555 1.502 . S
C557 H543 0.960 . S
C557 H544 0.961 . S
C557 H545 0.959 . S
C557 C555 1.561 . S
C558 C555 1.526 . S
C558 C559 1.396 . S
C558 C563 1.390 . S
C559 C553 1.465 . S
C559 C558 1.396 . S
C559 C560 1.399 . S
C560 H546 0.929 . S
C560 C559 1.399 . S
C560 C561 1.385 . S
C561 H547 0.931 . S
C561 C560 1.385 . S
C561 C562 1.389 . S
C562 C561 1.389 . S
C562 C563 1.387 . S
C563 H548 0.930 . S
C563 C558 1.390 . S
C563 C562 1.387 . S
H564 C576 0.930 . S
H565 C578 0.930 . S
H566 C579 0.930 1_554 S
H567 C583 0.959 . S
H568 C583 0.959 . S
H569 C583 0.961 . S
H570 C584 0.960 . S
H571 C584 0.961 . S
H572 C584 0.959 . S
H573 C587 0.929 . S
H574 C588 0.931 . S
H575 C590 0.930 . S
C576 H564 0.930 . S
C576 C577 1.399 . S
C576 C581 1.399 . S
C577 C576 1.399 . S
C577 C578 1.376 . S
C578 H565 0.930 . S
C578 C577 1.376 . S
C578 C579 1.388 . S
C579 H566 0.930 1_556 S
C579 C578 1.388 . S
C579 C580 1.390 . S
C580 C579 1.390 . S
C580 C581 1.394 . S
C580 C586 1.465 1_556 S
C581 C576 1.399 . S
C581 C580 1.394 . S
C581 C582 1.516 1_565 S
C582 C581 1.516 1_545 S
C582 C583 1.502 . S
C582 C584 1.561 . S
C582 C585 1.526 1_556 S
C583 H567 0.959 . S
C583 H568 0.959 . S
C583 H569 0.961 . S
C583 C582 1.502 . S
C584 H570 0.960 . S
C584 H571 0.961 . S
C584 H572 0.959 . S
C584 C582 1.561 . S
C585 C582 1.526 1_554 S
C585 C586 1.396 1_545 S
C585 C590 1.390 . S
C586 C580 1.465 1_554 S
C586 C585 1.396 1_565 S
C586 C587 1.399 . S
C587 H573 0.929 . S
C587 C586 1.399 . S
C587 C588 1.385 1_565 S
C588 H574 0.931 . S
C588 C587 1.385 1_545 S
C588 C589 1.389 . S
C589 C588 1.389 . S
C589 C590 1.387 . S
C590 H575 0.930 . S
C590 C585 1.390 . S
C590 C589 1.387 . S
H591 C603 0.930 . S
H592 C605 0.930 . S
H593 C606 0.930 . S
H594 C610 0.959 . S
H595 C610 0.959 . S
H596 C610 0.961 . S
H597 C611 0.960 . S
H598 C611 0.961 . S
H599 C611 0.959 . S
H600 C614 0.929 . S
H601 C615 0.931 . S
H602 C617 0.930 . S
C603 H591 0.930 . S
C603 C604 1.399 . S
C603 C608 1.399 . S
C604 C603 1.399 . S
C604 C605 1.376 . S
C605 H592 0.930 . S
C605 C604 1.376 . S
C605 C606 1.388 . S
C606 H593 0.930 . S
C606 C605 1.388 . S
C606 C607 1.390 . S
C607 C606 1.390 . S
C607 C608 1.394 . S
C607 C613 1.465 . S
C608 C603 1.399 . S
C608 C607 1.394 . S
C608 C609 1.516 . S
C609 C608 1.516 . S
C609 C610 1.502 . S
C609 C611 1.561 . S
C609 C612 1.526 . S
C610 H594 0.959 . S
C610 H595 0.959 . S
C610 H596 0.961 . S
C610 C609 1.502 . S
C611 H597 0.960 . S
C611 H598 0.961 . S
C611 H599 0.959 . S
C611 C609 1.561 . S
C612 C609 1.526 . S
C612 C613 1.396 . S
C612 C617 1.390 . S
C613 C607 1.465 . S
C613 C612 1.396 . S
C613 C614 1.399 . S
C614 H600 0.929 . S
C614 C613 1.399 . S
C614 C615 1.385 . S
C615 H601 0.931 . S
C615 C614 1.385 . S
C615 C616 1.389 . S
C616 C615 1.389 . S
C616 C617 1.387 . S
C617 H602 0.930 . S
C617 C612 1.390 . S
C617 C616 1.387 . S
H618 C630 0.930 . S
H619 C632 0.930 . S
H620 C633 0.930 . S
H621 C637 0.959 . S
H622 C637 0.959 . S
H623 C637 0.961 . S
H624 C638 0.960 . S
H625 C638 0.961 . S
H626 C638 0.959 . S
H627 C641 0.929 . S
H628 C642 0.931 . S
H629 C644 0.930 . S
C630 H618 0.930 . S
C630 C631 1.399 . S
C630 C635 1.399 . S
C631 C630 1.399 . S
C631 C632 1.376 . S
C632 H619 0.930 . S
C632 C631 1.376 . S
C632 C633 1.388 1_455 S
C633 H620 0.930 . S
C633 C632 1.388 1_655 S
C633 C634 1.378 1_655 S
C634 C633 1.378 1_455 S
C634 C635 1.428 . S
C634 C640 1.449 1_455 S
C635 C630 1.399 . S
C635 C634 1.428 . S
C635 C636 1.516 . S
C636 C635 1.516 . S
C636 C637 1.502 . S
C636 C638 1.561 . S
C636 C639 1.526 1_455 S
C637 H621 0.959 . S
C637 H622 0.959 . S
C637 H623 0.961 . S
C637 C636 1.502 . S
C638 H624 0.960 . S
C638 H625 0.961 . S
C638 H626 0.959 . S
C638 C636 1.561 . S
C639 C636 1.526 1_655 S
C639 C640 1.396 . S
C639 C644 1.390 . S
C640 C634 1.449 1_655 S
C640 C639 1.396 . S
C640 C641 1.399 . S
C641 H627 0.929 . S
C641 C640 1.399 . S
C641 C642 1.385 . S
C642 H628 0.931 . S
C642 C641 1.385 . S
C642 C643 1.389 . S
C643 C642 1.389 . S
C643 C644 1.387 . S
C644 H629 0.930 . S
C644 C639 1.390 . S
C644 C643 1.387 . S
H645 C657 0.930 . S
H646 C659 0.930 . S
H647 C660 0.930 . S
H648 C664 0.959 . S
H649 C664 0.959 . S
H650 C664 0.961 . S
H651 C665 0.960 . S
H652 C665 0.961 . S
H653 C665 0.959 . S
H654 C668 0.929 1_554 S
H655 C669 0.931 . S
H656 C671 0.930 . S
C657 H645 0.930 . S
C657 C658 1.399 . S
C657 C662 1.399 . S
C658 C657 1.399 . S
C658 C659 1.376 . S
C659 H646 0.930 . S
C659 C658 1.376 . S
C659 C660 1.388 1_565 S
C660 H647 0.930 . S
C660 C659 1.388 1_545 S
C660 C661 1.390 . S
C661 C660 1.390 . S
C661 C662 1.394 1_545 S
C661 C667 1.465 1_554 S
C662 C657 1.399 . S
C662 C661 1.394 1_565 S
C662 C663 1.516 1_554 S
C663 C662 1.516 1_556 S
C663 C664 1.502 . S
C663 C665 1.561 . S
C663 C666 1.526 1_565 S
C664 H648 0.959 . S
C664 H649 0.959 . S
C664 H650 0.961 . S
C664 C663 1.502 . S
C665 H651 0.960 . S
C665 H652 0.961 . S
C665 H653 0.959 . S
C665 C663 1.561 . S
C666 C663 1.526 1_545 S
C666 C667 1.396 . S
C666 C671 1.390 . S
C667 C661 1.465 1_556 S
C667 C666 1.396 . S
C667 C668 1.399 . S
C668 H654 0.929 1_556 S
C668 C667 1.399 . S
C668 C669 1.385 . S
C669 H655 0.931 . S
C669 C668 1.385 . S
C669 C670 1.389 . S
C670 C669 1.389 . S
C670 C671 1.387 . S
C671 H656 0.930 . S
C671 C666 1.390 . S
C671 C670 1.387 . S
H672 C684 0.930 . S
H673 C686 0.930 . S
H674 C687 0.930 . S
H675 C691 0.959 . S
H676 C691 0.959 . S
H677 C691 0.961 . S
H678 C692 0.960 . S
H679 C692 0.961 . S
H680 C692 0.959 . S
H681 C695 0.929 . S
H682 C696 0.931 . S
H683 C698 0.930 . S
C684 H672 0.930 . S
C684 C685 1.399 . S
C684 C689 1.399 . S
C685 C684 1.399 . S
C685 C686 1.376 . S
C686 H673 0.930 . S
C686 C685 1.376 . S
C686 C687 1.388 . S
C687 H674 0.930 . S
C687 C686 1.388 . S
C687 C688 1.390 . S
C688 C687 1.390 . S
C688 C689 1.394 . S
C688 C694 1.465 . S
C689 C684 1.399 . S
C689 C688 1.394 . S
C689 C690 1.516 . S
C690 C689 1.516 . S
C690 C691 1.502 . S
C690 C692 1.561 . S
C690 C693 1.526 . S
C691 H675 0.959 . S
C691 H676 0.959 . S
C691 H677 0.961 . S
C691 C690 1.502 . S
C692 H678 0.960 . S
C692 H679 0.961 . S
C692 H680 0.959 . S
C692 C690 1.561 . S
C693 C690 1.526 . S
C693 C694 1.396 . S
C693 C698 1.390 . S
C694 C688 1.465 . S
C694 C693 1.396 . S
C694 C695 1.399 . S
C695 H681 0.929 . S
C695 C694 1.399 . S
C695 C696 1.385 . S
C696 H682 0.931 . S
C696 C695 1.385 . S
C696 C697 1.389 . S
C697 C696 1.389 . S
C697 C698 1.387 . S
C698 H683 0.930 . S
C698 C693 1.390 . S
C698 C697 1.387 . S
H699 C711 0.930 . S
H700 C713 0.930 . S
H701 C714 0.930 . S
H702 C718 0.959 . S
H703 C718 0.959 1_655 S
H704 C718 0.961 . S
H705 C719 0.960 . S
H706 C719 0.961 . S
H707 C719 0.959 . S
H708 C722 0.929 . S
H709 C723 0.931 . S
H710 C725 0.930 . S
C711 H699 0.930 . S
C711 C712 1.399 . S
C711 C716 1.399 . S
C712 C711 1.399 . S
C712 C713 1.376 . S
C713 H700 0.930 . S
C713 C712 1.376 . S
C713 C714 1.388 . S
C714 H701 0.930 . S
C714 C713 1.388 . S
C714 C715 1.390 . S
C715 C714 1.390 . S
C715 C716 1.394 . S
C715 C721 1.465 1_455 S
C716 C711 1.399 . S
C716 C715 1.394 . S
C716 C717 1.516 1_455 S
C717 C716 1.516 1_655 S
C717 C718 1.502 1_655 S
C717 C719 1.561 . S
C717 C720 1.526 . S
C718 H702 0.959 . S
C718 H703 0.959 1_455 S
C718 H704 0.961 . S
C718 C717 1.502 1_455 S
C719 H705 0.960 . S
C719 H706 0.961 . S
C719 H707 0.959 . S
C719 C717 1.561 . S
C720 C717 1.526 . S
C720 C721 1.396 . S
C720 C725 1.390 . S
C721 C715 1.465 1_655 S
C721 C720 1.396 . S
C721 C722 1.399 . S
C722 H708 0.929 . S
C722 C721 1.399 . S
C722 C723 1.385 . S
C723 H709 0.931 . S
C723 C722 1.385 . S
C723 C724 1.389 . S
C724 C723 1.389 . S
C724 C725 1.387 . S
C725 H710 0.930 . S
C725 C720 1.390 . S
C725 C724 1.387 . S
H726 C738 0.930 . S
H727 C740 0.930 . S
H728 C741 0.930 . S
H729 C745 0.959 . S
H730 C745 0.959 . S
H731 C745 0.961 . S
H732 C746 0.960 . S
H733 C746 0.961 1_565 S
H734 C746 0.959 . S
H735 C749 0.929 . S
H736 C750 0.931 . S
H737 C752 0.930 . S
C738 H726 0.930 . S
C738 C739 1.399 . S
C738 C743 1.399 . S
C739 C738 1.399 . S
C739 C740 1.376 . S
C740 H727 0.930 . S
C740 C739 1.376 . S
C740 C741 1.388 . S
C741 H728 0.930 . S
C741 C740 1.388 . S
C741 C742 1.390 . S
C742 C741 1.390 . S
C742 C743 1.394 . S
C742 C748 1.465 1_545 S
C743 C738 1.399 . S
C743 C742 1.394 . S
C743 C744 1.516 1_545 S
C744 C743 1.516 1_565 S
C744 C745 1.502 . S
C744 C746 1.561 1_565 S
C744 C747 1.526 . S
C745 H729 0.959 . S
C745 H730 0.959 . S
C745 H731 0.961 . S
C745 C744 1.502 . S
C746 H732 0.960 . S
C746 H733 0.961 1_545 S
C746 H734 0.959 . S
C746 C744 1.561 1_545 S
C747 C744 1.526 . S
C747 C748 1.396 . S
C747 C752 1.390 . S
C748 C742 1.465 1_565 S
C748 C747 1.396 . S
C748 C749 1.399 . S
C749 H735 0.929 . S
C749 C748 1.399 . S
C749 C750 1.385 . S
C750 H736 0.931 . S
C750 C749 1.385 . S
C750 C751 1.389 . S
C751 C750 1.389 . S
C751 C752 1.387 . S
C752 H737 0.930 . S
C752 C747 1.390 . S
C752 C751 1.387 . S
H753 C765 0.930 . S
H754 C767 0.930 . S
H755 C768 0.930 . S
H756 C772 0.959 . S
H757 C772 0.959 . S
H758 C772 0.961 . S
H759 C773 0.960 . S
H760 C773 0.961 . S
H761 C773 0.959 . S
H762 C776 0.929 . S
H763 C777 0.931 . S
H764 C779 0.930 . S
C765 H753 0.930 . S
C765 C766 1.399 . S
C765 C770 1.399 . S
C766 C765 1.399 . S
C766 C767 1.376 . S
C767 H754 0.930 . S
C767 C766 1.376 . S
C767 C768 1.388 . S
C768 H755 0.930 . S
C768 C767 1.388 . S
C768 C769 1.390 . S
C769 C768 1.390 . S
C769 C770 1.394 . S
C769 C775 1.465 . S
C770 C765 1.399 . S
C770 C769 1.394 . S
C770 C771 1.516 . S
C771 C770 1.516 . S
C771 C772 1.502 . S
C771 C773 1.561 . S
C771 C774 1.526 . S
C772 H756 0.959 . S
C772 H757 0.959 . S
C772 H758 0.961 . S
C772 C771 1.502 . S
C773 H759 0.960 . S
C773 H760 0.961 . S
C773 H761 0.959 . S
C773 C771 1.561 . S
C774 C771 1.526 . S
C774 C775 1.396 . S
C774 C779 1.390 . S
C775 C769 1.465 . S
C775 C774 1.396 . S
C775 C776 1.399 . S
C776 H762 0.929 . S
C776 C775 1.399 . S
C776 C777 1.385 . S
C777 H763 0.931 . S
C777 C776 1.385 . S
C777 C778 1.389 . S
C778 C777 1.389 . S
C778 C779 1.387 . S
C779 H764 0.930 . S
C779 C774 1.390 . S
C779 C778 1.387 . S
H780 C792 0.930 . S
H781 C794 0.930 . S
H782 C795 0.930 1_554 S
H783 C799 0.959 . S
H784 C799 0.959 . S
H785 C799 0.961 . S
H786 C800 0.960 . S
H787 C800 0.961 1_455 S
H788 C800 0.959 . S
H789 C803 0.929 1_554 S
H790 C804 0.931 . S
H791 C806 0.930 . S
C792 H780 0.930 . S
C792 C793 1.399 . S
C792 C797 1.399 . S
C793 C792 1.399 . S
C793 C794 1.376 . S
C794 H781 0.930 . S
C794 C793 1.376 . S
C794 C795 1.388 . S
C795 H782 0.930 1_556 S
C795 C794 1.388 . S
C795 C796 1.390 . S
C796 C795 1.390 . S
C796 C797 1.394 . S
C796 C802 1.465 1_655 S
C797 C792 1.399 . S
C797 C796 1.394 . S
C797 C798 1.516 1_655 S
C798 C797 1.516 1_455 S
C798 C799 1.502 . S
C798 C800 1.561 1_455 S
C798 C801 1.526 . S
C799 H783 0.959 . S
C799 H784 0.959 . S
C799 H785 0.961 . S
C799 C798 1.502 . S
C800 H786 0.960 . S
C800 H787 0.961 1_655 S
C800 H788 0.959 . S
C800 C798 1.561 1_655 S
C801 C798 1.526 . S
C801 C802 1.396 . S
C801 C806 1.390 . S
C802 C796 1.465 1_455 S
C802 C801 1.396 . S
C802 C803 1.399 . S
C803 H789 0.929 1_556 S
C803 C802 1.399 . S
C803 C804 1.385 . S
C804 H790 0.931 . S
C804 C803 1.385 . S
C804 C805 1.389 . S
C805 C804 1.389 . S
C805 C806 1.387 . S
C806 H791 0.930 . S
C806 C801 1.390 . S
C806 C805 1.387 . S
H807 C819 0.930 . S
H808 C821 0.930 . S
H809 C822 0.930 1_655 S
H810 C826 0.959 . S
H811 C826 0.959 . S
H812 C826 0.961 . S
H813 C827 0.960 . S
H814 C827 0.961 . S
H815 C827 0.959 1_655 S
H816 C830 0.929 . S
H817 C831 0.931 . S
H818 C833 0.930 . S
C819 H807 0.930 . S
C819 C820 1.399 . S
C819 C824 1.399 . S
C820 C819 1.399 . S
C820 C821 1.376 . S
C821 H808 0.930 . S
C821 C820 1.376 . S
C821 C822 1.388 . S
C822 H809 0.930 1_455 S
C822 C821 1.388 . S
C822 C823 1.390 . S
C823 C822 1.390 . S
C823 C824 1.394 . S
C823 C829 1.465 1_455 S
C824 C819 1.399 . S
C824 C823 1.394 . S
C824 C825 1.516 . S
C825 C824 1.516 . S
C825 C826 1.502 . S
C825 C827 1.561 . S
C825 C828 1.526 1_455 S
C826 H810 0.959 . S
C826 H811 0.959 . S
C826 H812 0.961 . S
C826 C825 1.502 . S
C827 H813 0.960 . S
C827 H814 0.961 . S
C827 H815 0.959 1_455 S
C827 C825 1.561 . S
C828 C825 1.526 1_655 S
C828 C829 1.396 . S
C828 C833 1.390 . S
C829 C823 1.465 1_655 S
C829 C828 1.396 . S
C829 C830 1.399 . S
C830 H816 0.929 . S
C830 C829 1.399 . S
C830 C831 1.385 . S
C831 H817 0.931 . S
C831 C830 1.385 . S
C831 C832 1.389 . S
C832 C831 1.389 . S
C832 C833 1.387 . S
C833 H818 0.930 . S
C833 C828 1.390 . S
C833 C832 1.387 . S
H834 C846 0.930 . S
H835 C848 0.930 . S
H836 C849 0.930 . S
H837 C853 0.959 . S
H838 C853 0.959 . S
H839 C853 0.961 . S
H840 C854 0.960 . S
H841 C854 0.961 1_545 S
H842 C854 0.959 . S
H843 C857 0.929 . S
H844 C858 0.931 . S
H845 C860 0.930 . S
C846 H834 0.930 . S
C846 C847 1.399 . S
C846 C851 1.399 . S
C847 C846 1.399 . S
C847 C848 1.376 . S
C848 H835 0.930 . S
C848 C847 1.376 . S
C848 C849 1.388 . S
C849 H836 0.930 . S
C849 C848 1.388 . S
C849 C850 1.390 . S
C850 C849 1.390 . S
C850 C851 1.394 . S
C850 C856 1.465 1_565 S
C851 C846 1.399 . S
C851 C850 1.394 . S
C851 C852 1.516 1_565 S
C852 C851 1.516 1_545 S
C852 C853 1.502 . S
C852 C854 1.561 1_545 S
C852 C855 1.526 . S
C853 H837 0.959 . S
C853 H838 0.959 . S
C853 H839 0.961 . S
C853 C852 1.502 . S
C854 H840 0.960 . S
C854 H841 0.961 1_565 S
C854 H842 0.959 . S
C854 C852 1.561 1_565 S
C855 C852 1.526 . S
C855 C856 1.396 . S
C855 C860 1.390 . S
C856 C850 1.465 1_545 S
C856 C855 1.396 . S
C856 C857 1.399 . S
C857 H843 0.929 . S
C857 C856 1.399 . S
C857 C858 1.385 . S
C858 H844 0.931 . S
C858 C857 1.385 . S
C858 C859 1.389 . S
C859 C858 1.389 . S
C859 C860 1.387 . S
C860 H845 0.930 . S
C860 C855 1.390 . S
C860 C859 1.387 . S
H861 C873 0.930 . S
H862 C875 0.930 . S
H863 C876 0.930 . S
H864 C880 0.959 . S
H865 C880 0.959 1_556 S
H866 C880 0.961 1_556 S
H867 C881 0.960 . S
H868 C881 0.961 . S
H869 C881 0.959 . S
H870 C884 0.929 . S
H871 C885 0.931 . S
H872 C887 0.930 . S
C873 H861 0.930 . S
C873 C874 1.399 . S
C873 C878 1.399 . S
C874 C873 1.399 . S
C874 C875 1.376 . S
C875 H862 0.930 . S
C875 C874 1.376 . S
C875 C876 1.388 . S
C876 H863 0.930 . S
C876 C875 1.388 . S
C876 C877 1.390 . S
C877 C876 1.390 . S
C877 C878 1.394 . S
C877 C883 1.465 . S
C878 C873 1.399 . S
C878 C877 1.394 . S
C878 C879 1.516 . S
C879 C878 1.516 . S
C879 C880 1.502 . S
C879 C881 1.561 1_554 S
C879 C882 1.526 . S
C880 H864 0.959 . S
C880 H865 0.959 1_554 S
C880 H866 0.961 1_554 S
C880 C879 1.502 . S
C881 H867 0.960 . S
C881 H868 0.961 . S
C881 H869 0.959 . S
C881 C879 1.561 1_556 S
C882 C879 1.526 . S
C882 C883 1.396 . S
C882 C887 1.390 . S
C883 C877 1.465 . S
C883 C882 1.396 . S
C883 C884 1.399 . S
C884 H870 0.929 . S
C884 C883 1.399 . S
C884 C885 1.385 . S
C885 H871 0.931 . S
C885 C884 1.385 . S
C885 C886 1.389 . S
C886 C885 1.389 . S
C886 C887 1.387 . S
C887 H872 0.930 . S
C887 C882 1.390 . S
C887 C886 1.387 . S
H888 C900 0.930 . S
H889 C902 0.930 . S
H890 C903 0.930 . S
H891 C907 0.959 . S
H892 C907 0.959 . S
H893 C907 0.961 . S
H894 C908 0.960 . S
H895 C908 0.961 . S
H896 C908 0.959 . S
H897 C911 0.929 . S
H898 C912 0.931 . S
H899 C914 0.930 . S
C900 H888 0.930 . S
C900 C901 1.399 . S
C900 C905 1.399 . S
C901 C900 1.399 . S
C901 C902 1.376 . S
C902 H889 0.930 . S
C902 C901 1.376 . S
C902 C903 1.388 . S
C903 H890 0.930 . S
C903 C902 1.388 . S
C903 C904 1.390 . S
C904 C903 1.390 . S
C904 C905 1.394 . S
C904 C910 1.465 . S
C905 C900 1.399 . S
C905 C904 1.394 . S
C905 C906 1.516 1_565 S
C906 C905 1.516 1_545 S
C906 C907 1.502 . S
C906 C908 1.561 . S
C906 C909 1.526 . S
C907 H891 0.959 . S
C907 H892 0.959 . S
C907 H893 0.961 . S
C907 C906 1.502 . S
C908 H894 0.960 . S
C908 H895 0.961 . S
C908 H896 0.959 . S
C908 C906 1.561 . S
C909 C906 1.526 . S
C909 C910 1.396 1_545 S
C909 C914 1.390 . S
C910 C904 1.465 . S
C910 C909 1.396 1_565 S
C910 C911 1.399 . S
C911 H897 0.929 . S
C911 C910 1.399 . S
C911 C912 1.385 1_565 S
C912 H898 0.931 . S
C912 C911 1.385 1_545 S
C912 C913 1.389 . S
C913 C912 1.389 . S
C913 C914 1.387 . S
C914 H899 0.930 . S
C914 C909 1.390 . S
C914 C913 1.387 . S
H915 C927 0.930 . S
H916 C929 0.930 . S
H917 C930 0.930 . S
H918 C934 0.959 . S
H919 C934 0.959 . S
H920 C934 0.961 . S
H921 C935 0.960 . S
H922 C935 0.961 . S
H923 C935 0.959 . S
H924 C938 0.929 . S
H925 C939 0.931 . S
H926 C941 0.930 . S
C927 H915 0.930 . S
C927 C928 1.399 . S
C927 C932 1.399 . S
C928 C927 1.399 . S
C928 C929 1.376 . S
C929 H916 0.930 . S
C929 C928 1.376 . S
C929 C930 1.388 . S
C930 H917 0.930 . S
C930 C929 1.388 . S
C930 C931 1.390 . S
C931 C930 1.390 . S
C931 C932 1.394 . S
C931 C937 1.465 . S
C932 C927 1.399 . S
C932 C931 1.394 . S
C932 C933 1.516 . S
C933 C932 1.516 . S
C933 C934 1.502 . S
C933 C935 1.561 . S
C933 C936 1.526 . S
C934 H918 0.959 . S
C934 H919 0.959 . S
C934 H920 0.961 . S
C934 C933 1.502 . S
C935 H921 0.960 . S
C935 H922 0.961 . S
C935 H923 0.959 . S
C935 C933 1.561 . S
C936 C933 1.526 . S
C936 C937 1.396 . S
C936 C941 1.390 . S
C937 C931 1.465 . S
C937 C936 1.396 . S
C937 C938 1.399 . S
C938 H924 0.929 . S
C938 C937 1.399 . S
C938 C939 1.385 . S
C939 H925 0.931 . S
C939 C938 1.385 . S
C939 C940 1.389 . S
C940 C939 1.389 . S
C940 C941 1.387 . S
C941 H926 0.930 . S
C941 C936 1.390 . S
C941 C940 1.387 . S
H942 C954 0.930 . S
H943 C956 0.930 . S
H944 C957 0.930 . S
H945 C961 0.959 . S
H946 C961 0.959 . S
H947 C961 0.961 . S
H948 C962 0.960 . S
H949 C962 0.961 . S
H950 C962 0.959 . S
H951 C965 0.929 . S
H952 C966 0.931 . S
H953 C968 0.930 . S
C954 H942 0.930 . S
C954 C955 1.399 . S
C954 C959 1.399 . S
C955 C954 1.399 . S
C955 C956 1.376 . S
C956 H943 0.930 . S
C956 C955 1.376 . S
C956 C957 1.388 . S
C957 H944 0.930 . S
C957 C956 1.388 . S
C957 C958 1.390 . S
C958 C957 1.390 . S
C958 C959 1.394 . S
C958 C964 1.465 1_655 S
C959 C954 1.399 . S
C959 C958 1.394 . S
C959 C960 1.533 . S
C960 C959 1.533 . S
C960 C961 1.509 . S
C960 C962 1.540 1_655 S
C960 C963 1.524 1_655 S
C961 H945 0.959 . S
C961 H946 0.959 . S
C961 H947 0.961 . S
C961 C960 1.509 . S
C962 H948 0.960 . S
C962 H949 0.961 . S
C962 H950 0.959 . S
C962 C960 1.540 1_455 S
C963 C960 1.524 1_455 S
C963 C964 1.396 . S
C963 C968 1.390 . S
C964 C958 1.465 1_455 S
C964 C963 1.396 . S
C964 C965 1.399 . S
C965 H951 0.929 . S
C965 C964 1.399 . S
C965 C966 1.385 . S
C966 H952 0.931 . S
C966 C965 1.385 . S
C966 C967 1.389 . S
C967 C966 1.389 . S
C967 C968 1.387 . S
C968 H953 0.930 . S
C968 C963 1.390 . S
C968 C967 1.387 . S
H969 C981 0.930 . S
H970 C983 0.930 . S
H971 C984 0.930 . S
H972 C988 0.959 . S
H973 C988 0.959 . S
H974 C988 0.961 . S
H975 C989 0.960 . S
H976 C989 0.961 . S
H977 C989 0.959 . S
H978 C992 0.929 . S
H979 C993 0.931 . S
H980 C995 0.930 . S
C981 H969 0.930 . S
C981 C982 1.399 . S
C981 C986 1.399 . S
C982 C981 1.399 . S
C982 C983 1.376 . S
C983 H970 0.930 . S
C983 C982 1.376 . S
C983 C984 1.388 . S
C984 H971 0.930 . S
C984 C983 1.388 . S
C984 C985 1.390 . S
C985 C984 1.390 . S
C985 C986 1.394 . S
C985 C991 1.465 1_545 S
C986 C981 1.399 . S
C986 C985 1.394 . S
C986 C987 1.516 1_545 S
C987 C986 1.516 1_565 S
C987 C988 1.502 . S
C987 C989 1.561 . S
C987 C990 1.526 . S
C988 H972 0.959 . S
C988 H973 0.959 . S
C988 H974 0.961 . S
C988 C987 1.502 . S
C989 H975 0.960 . S
C989 H976 0.961 . S
C989 H977 0.959 . S
C989 C987 1.561 . S
C990 C987 1.526 . S
C990 C991 1.396 . S
C990 C995 1.390 . S
C991 C985 1.465 1_565 S
C991 C990 1.396 . S
C991 C992 1.399 1_565 S
C992 H978 0.929 . S
C992 C991 1.399 1_545 S
C992 C993 1.385 1_545 S
C993 H979 0.931 . S
C993 C992 1.385 1_565 S
C993 C994 1.389 . S
C994 C993 1.389 . S
C994 C995 1.387 . S
C995 H980 0.930 . S
C995 C990 1.390 . S
C995 C994 1.387 . S
H996 C1008 0.930 . S
H997 C1010 0.930 . S
H998 C1011 0.930 . S
H999 C1015 0.959 . S
H1000 C1015 0.959 . S
H1001 C1015 0.961 . S
H1002 C1016 0.960 . S
H1003 C1016 0.961 . S
H1004 C1016 0.959 . S
H1005 C1019 0.929 . S
H1006 C1020 0.931 . S
H1007 C1022 0.930 . S
C1008 H996 0.930 . S
C1008 C1009 1.399 . S
C1008 C1013 1.399 . S
C1009 C1008 1.399 . S
C1009 C1010 1.376 . S
C1010 H997 0.930 . S
C1010 C1009 1.376 . S
C1010 C1011 1.388 . S
C1011 H998 0.930 . S
C1011 C1010 1.388 . S
C1011 C1012 1.390 . S
C1012 C1011 1.390 . S
C1012 C1013 1.394 . S
C1012 C1018 1.465 . S
C1013 C1008 1.399 . S
C1013 C1012 1.394 . S
C1013 C1014 1.516 . S
C1014 C1013 1.516 . S
C1014 C1015 1.502 . S
C1014 C1016 1.561 . S
C1014 C1017 1.526 . S
C1015 H999 0.959 . S
C1015 H1000 0.959 . S
C1015 H1001 0.961 . S
C1015 C1014 1.502 . S
C1016 H1002 0.960 . S
C1016 H1003 0.961 . S
C1016 H1004 0.959 . S
C1016 C1014 1.561 . S
C1017 C1014 1.526 . S
C1017 C1018 1.396 . S
C1017 C1022 1.390 . S
C1018 C1012 1.465 . S
C1018 C1017 1.396 . S
C1018 C1019 1.399 . S
C1019 H1005 0.929 . S
C1019 C1018 1.399 . S
C1019 C1020 1.385 . S
C1020 H1006 0.931 . S
C1020 C1019 1.385 . S
C1020 C1021 1.389 . S
C1021 C1020 1.389 . S
C1021 C1022 1.387 . S
C1022 H1007 0.930 . S
C1022 C1017 1.390 . S
C1022 C1021 1.387 . S
H1023 C1035 0.930 . S
H1024 C1037 0.930 . S
H1025 C1038 0.930 . S
H1026 C1042 0.959 . S
H1027 C1042 0.959 . S
H1028 C1042 0.961 . S
H1029 C1043 0.960 . S
H1030 C1043 0.961 . S
H1031 C1043 0.959 . S
H1032 C1046 0.929 . S
H1033 C1047 0.931 . S
H1034 C1049 0.930 . S
C1035 H1023 0.930 . S
C1035 C1036 1.399 . S
C1035 C1040 1.399 . S
C1036 C1035 1.399 . S
C1036 C1037 1.376 . S
C1037 H1024 0.930 . S
C1037 C1036 1.376 . S
C1037 C1038 1.388 1_455 S
C1038 H1025 0.930 . S
C1038 C1037 1.388 1_655 S
C1038 C1039 1.390 . S
C1039 C1038 1.390 . S
C1039 C1040 1.394 1_655 S
C1039 C1045 1.465 . S
C1040 C1035 1.399 . S
C1040 C1039 1.394 1_455 S
C1040 C1041 1.516 . S
C1041 C1040 1.516 . S
C1041 C1042 1.502 . S
C1041 C1043 1.561 . S
C1041 C1044 1.526 1_455 S
C1042 H1026 0.959 . S
C1042 H1027 0.959 . S
C1042 H1028 0.961 . S
C1042 C1041 1.502 . S
C1043 H1029 0.960 . S
C1043 H1030 0.961 . S
C1043 H1031 0.959 . S
C1043 C1041 1.561 . S
C1044 C1041 1.526 1_655 S
C1044 C1045 1.396 . S
C1044 C1049 1.390 . S
C1045 C1039 1.465 . S
C1045 C1044 1.396 . S
C1045 C1046 1.399 . S
C1046 H1032 0.929 . S
C1046 C1045 1.399 . S
C1046 C1047 1.385 . S
C1047 H1033 0.931 . S
C1047 C1046 1.385 . S
C1047 C1048 1.389 . S
C1048 C1047 1.389 . S
C1048 C1049 1.387 . S
C1049 H1034 0.930 . S
C1049 C1044 1.390 . S
C1049 C1048 1.387 . S
H1050 C1062 0.930 . S
H1051 C1064 0.930 . S
H1052 C1065 0.930 . S
H1053 C1069 0.959 . S
H1054 C1069 0.959 . S
H1055 C1069 0.961 . S
H1056 C1070 0.960 . S
H1057 C1070 0.961 . S
H1058 C1070 0.959 . S
H1059 C1073 0.929 . S
H1060 C1074 0.931 . S
H1061 C1076 0.930 . S
C1062 H1050 0.930 . S
C1062 C1063 1.399 . S
C1062 C1067 1.399 . S
C1063 C1062 1.399 . S
C1063 C1064 1.376 . S
C1064 H1051 0.930 . S
C1064 C1063 1.376 . S
C1064 C1065 1.388 . S
C1065 H1052 0.930 . S
C1065 C1064 1.388 . S
C1065 C1066 1.390 . S
C1066 C1065 1.390 . S
C1066 C1067 1.394 . S
C1066 C1072 1.465 . S
C1067 C1062 1.399 . S
C1067 C1066 1.394 . S
C1067 C1068 1.516 . S
C1068 C1067 1.516 . S
C1068 C1069 1.502 . S
C1068 C1070 1.561 . S
C1068 C1071 1.526 . S
C1069 H1053 0.959 . S
C1069 H1054 0.959 . S
C1069 H1055 0.961 . S
C1069 C1068 1.502 . S
C1070 H1056 0.960 . S
C1070 H1057 0.961 . S
C1070 H1058 0.959 . S
C1070 C1068 1.561 . S
C1071 C1068 1.526 . S
C1071 C1072 1.396 . S
C1071 C1076 1.390 . S
C1072 C1066 1.465 . S
C1072 C1071 1.396 . S
C1072 C1073 1.399 . S
C1073 H1059 0.929 . S
C1073 C1072 1.399 . S
C1073 C1074 1.385 . S
C1074 H1060 0.931 . S
C1074 C1073 1.385 . S
C1074 C1075 1.389 . S
C1075 C1074 1.389 . S
C1075 C1076 1.387 . S
C1076 H1061 0.930 . S
C1076 C1071 1.390 . S
C1076 C1075 1.387 . S
H1077 C1089 0.930 . S
H1078 C1091 0.930 . S
H1079 C1092 0.930 . S
H1080 C1096 0.959 . S
H1081 C1096 0.959 . S
H1082 C1096 0.961 . S
H1083 C1097 0.960 . S
H1084 C1097 0.961 . S
H1085 C1097 0.959 . S
H1086 C1100 0.929 . S
H1087 C1101 0.931 . S
H1088 C1103 0.930 . S
C1089 H1077 0.930 . S
C1089 C1090 1.399 . S
C1089 C1094 1.399 . S
C1090 C1089 1.399 . S
C1090 C1091 1.376 . S
C1091 H1078 0.930 . S
C1091 C1090 1.376 . S
C1091 C1092 1.388 . S
C1092 H1079 0.930 . S
C1092 C1091 1.388 . S
C1092 C1093 1.390 . S
C1093 C1092 1.390 . S
C1093 C1094 1.394 . S
C1093 C1099 1.465 . S
C1094 C1089 1.399 . S
C1094 C1093 1.394 . S
C1094 C1095 1.516 . S
C1095 C1094 1.516 . S
C1095 C1096 1.502 . S
C1095 C1097 1.561 . S
C1095 C1098 1.526 . S
C1096 H1080 0.959 . S
C1096 H1081 0.959 . S
C1096 H1082 0.961 . S
C1096 C1095 1.502 . S
C1097 H1083 0.960 . S
C1097 H1084 0.961 . S
C1097 H1085 0.959 . S
C1097 C1095 1.561 . S
C1098 C1095 1.526 . S
C1098 C1099 1.396 . S
C1098 C1103 1.390 . S
C1099 C1093 1.465 . S
C1099 C1098 1.396 . S
C1099 C1100 1.399 . S
C1100 H1086 0.929 . S
C1100 C1099 1.399 . S
C1100 C1101 1.385 . S
C1101 H1087 0.931 . S
C1101 C1100 1.385 . S
C1101 C1102 1.389 . S
C1102 C1101 1.389 . S
C1102 C1103 1.387 . S
C1103 H1088 0.930 . S
C1103 C1098 1.390 . S
C1103 C1102 1.387 . S
H1104 C1116 0.930 . S
H1105 C1118 0.930 . S
H1106 C1119 0.930 . S
H1107 C1123 0.959 . S
H1108 C1123 0.959 . S
H1109 C1123 0.961 . S
H1110 C1124 0.960 . S
H1111 C1124 0.961 . S
H1112 C1124 0.959 . S
H1113 C1127 0.929 . S
H1114 C1128 0.931 . S
H1115 C1130 0.930 . S
C1116 H1104 0.930 . S
C1116 C1117 1.399 . S
C1116 C1121 1.399 . S
C1117 C1116 1.399 . S
C1117 C1118 1.376 . S
C1118 H1105 0.930 . S
C1118 C1117 1.376 . S
C1118 C1119 1.388 . S
C1119 H1106 0.930 . S
C1119 C1118 1.388 . S
C1119 C1120 1.390 . S
C1120 C1119 1.390 . S
C1120 C1121 1.394 . S
C1120 C1126 1.465 . S
C1121 C1116 1.399 . S
C1121 C1120 1.394 . S
C1121 C1122 1.516 . S
C1122 C1121 1.516 . S
C1122 C1123 1.502 . S
C1122 C1124 1.561 . S
C1122 C1125 1.526 . S
C1123 H1107 0.959 . S
C1123 H1108 0.959 . S
C1123 H1109 0.961 . S
C1123 C1122 1.502 . S
C1124 H1110 0.960 . S
C1124 H1111 0.961 . S
C1124 H1112 0.959 . S
C1124 C1122 1.561 . S
C1125 C1122 1.526 . S
C1125 C1126 1.396 . S
C1125 C1130 1.390 . S
C1126 C1120 1.465 . S
C1126 C1125 1.396 . S
C1126 C1127 1.399 . S
C1127 H1113 0.929 . S
C1127 C1126 1.399 . S
C1127 C1128 1.385 . S
C1128 H1114 0.931 . S
C1128 C1127 1.385 . S
C1128 C1129 1.389 . S
C1129 C1128 1.389 . S
C1129 C1130 1.387 . S
C1130 H1115 0.930 . S
C1130 C1125 1.390 . S
C1130 C1129 1.387 . S
H1131 C1143 0.930 . S
H1132 C1145 0.930 . S
H1133 C1146 0.930 . S
H1134 C1150 0.959 . S
H1135 C1150 0.959 . S
H1136 C1150 0.961 . S
H1137 C1151 0.960 . S
H1138 C1151 0.961 . S
H1139 C1151 0.959 . S
H1140 C1154 0.929 . S
H1141 C1155 0.931 . S
H1142 C1157 0.930 . S
C1143 H1131 0.930 . S
C1143 C1144 1.399 . S
C1143 C1148 1.399 . S
C1144 C1143 1.399 . S
C1144 C1145 1.376 . S
C1145 H1132 0.930 . S
C1145 C1144 1.376 . S
C1145 C1146 1.388 . S
C1146 H1133 0.930 . S
C1146 C1145 1.388 . S
C1146 C1147 1.390 . S
C1147 C1146 1.390 . S
C1147 C1148 1.394 . S
C1147 C1153 1.465 . S
C1148 C1143 1.399 . S
C1148 C1147 1.394 . S
C1148 C1149 1.516 . S
C1149 C1148 1.516 . S
C1149 C1150 1.502 . S
C1149 C1151 1.561 . S
C1149 C1152 1.526 . S
C1150 H1134 0.959 . S
C1150 H1135 0.959 . S
C1150 H1136 0.961 . S
C1150 C1149 1.502 . S
C1151 H1137 0.960 . S
C1151 H1138 0.961 . S
C1151 H1139 0.959 . S
C1151 C1149 1.561 . S
C1152 C1149 1.526 . S
C1152 C1153 1.396 . S
C1152 C1157 1.390 . S
C1153 C1147 1.465 . S
C1153 C1152 1.396 . S
C1153 C1154 1.399 . S
C1154 H1140 0.929 . S
C1154 C1153 1.399 . S
C1154 C1155 1.385 . S
C1155 H1141 0.931 . S
C1155 C1154 1.385 . S
C1155 C1156 1.389 . S
C1156 C1155 1.389 . S
C1156 C1157 1.387 . S
C1157 H1142 0.930 . S
C1157 C1152 1.390 . S
C1157 C1156 1.387 . S
H1158 C1170 0.930 . S
H1159 C1172 0.930 . S
H1160 C1173 0.930 . S
H1161 C1177 0.959 . S
H1162 C1177 0.959 . S
H1163 C1177 0.961 . S
H1164 C1178 0.960 . S
H1165 C1178 0.961 . S
H1166 C1178 0.959 . S
H1167 C1181 0.929 . S
H1168 C1182 0.931 . S
H1169 C1184 0.930 . S
C1170 H1158 0.930 . S
C1170 C1171 1.399 . S
C1170 C1175 1.399 . S
C1171 C1170 1.399 . S
C1171 C1172 1.376 . S
C1172 H1159 0.930 . S
C1172 C1171 1.376 . S
C1172 C1173 1.388 . S
C1173 H1160 0.930 . S
C1173 C1172 1.388 . S
C1173 C1174 1.390 . S
C1174 C1173 1.390 . S
C1174 C1175 1.394 . S
C1174 C1180 1.465 . S
C1175 C1170 1.399 . S
C1175 C1174 1.394 . S
C1175 C1176 1.516 . S
C1176 C1175 1.516 . S
C1176 C1177 1.502 . S
C1176 C1178 1.561 . S
C1176 C1179 1.526 . S
C1177 H1161 0.959 . S
C1177 H1162 0.959 . S
C1177 H1163 0.961 . S
C1177 C1176 1.502 . S
C1178 H1164 0.960 . S
C1178 H1165 0.961 . S
C1178 H1166 0.959 . S
C1178 C1176 1.561 . S
C1179 C1176 1.526 . S
C1179 C1180 1.396 . S
C1179 C1184 1.390 . S
C1180 C1174 1.465 . S
C1180 C1179 1.396 . S
C1180 C1181 1.399 . S
C1181 H1167 0.929 . S
C1181 C1180 1.399 . S
C1181 C1182 1.385 . S
C1182 H1168 0.931 . S
C1182 C1181 1.385 . S
C1182 C1183 1.389 . S
C1183 C1182 1.389 . S
C1183 C1184 1.387 . S
C1184 H1169 0.930 . S
C1184 C1179 1.390 . S
C1184 C1183 1.387 . S
H1185 C1197 0.930 . S
H1186 C1199 0.930 . S
H1187 C1200 0.930 . S
H1188 C1204 0.959 . S
H1189 C1204 0.959 . S
H1190 C1204 0.961 . S
H1191 C1205 0.960 . S
H1192 C1205 0.961 . S
H1193 C1205 0.959 . S
H1194 C1208 0.929 . S
H1195 C1209 0.931 . S
H1196 C1211 0.930 . S
C1197 H1185 0.930 . S
C1197 C1198 1.399 . S
C1197 C1202 1.399 . S
C1198 C1197 1.399 . S
C1198 C1199 1.376 . S
C1199 H1186 0.930 . S
C1199 C1198 1.376 . S
C1199 C1200 1.388 . S
C1200 H1187 0.930 . S
C1200 C1199 1.388 . S
C1200 C1201 1.390 . S
C1201 C1200 1.390 . S
C1201 C1202 1.394 . S
C1201 C1207 1.465 . S
C1202 C1197 1.399 . S
C1202 C1201 1.394 . S
C1202 C1203 1.516 . S
C1203 C1202 1.516 . S
C1203 C1204 1.502 . S
C1203 C1205 1.561 . S
C1203 C1206 1.526 . S
C1204 H1188 0.959 . S
C1204 H1189 0.959 . S
C1204 H1190 0.961 . S
C1204 C1203 1.502 . S
C1205 H1191 0.960 . S
C1205 H1192 0.961 . S
C1205 H1193 0.959 . S
C1205 C1203 1.561 . S
C1206 C1203 1.526 . S
C1206 C1207 1.396 . S
C1206 C1211 1.390 . S
C1207 C1201 1.465 . S
C1207 C1206 1.396 . S
C1207 C1208 1.399 . S
C1208 H1194 0.929 . S
C1208 C1207 1.399 . S
C1208 C1209 1.385 . S
C1209 H1195 0.931 . S
C1209 C1208 1.385 . S
C1209 C1210 1.389 . S
C1210 C1209 1.389 . S
C1210 C1211 1.387 . S
C1211 H1196 0.930 . S
C1211 C1206 1.390 . S
C1211 C1210 1.387 . S
C253 C18 1.089 . S
C265 C178 1.074 . S
C280 C38 1.044 . S
C292 C198 1.023 . S
C307 C58 1.024 . S
C319 C218 1.055 . S
C334 C238 1.022 . S
C346 C78 1.051 . S
C361 C98 1.022 . S
C373 C138 1.040 . S
C388 C158 1.023 . S
C400 C118 1.051 . S
C415 C209 0.905 . S
C427 C9 0.959 . S
C442 C229 0.853 . S
C454 C29 0.955 . S
C469 C49 0.831 . S
C481 C129 0.939 . S
C496 C149 0.890 . S
C508 C69 0.818 . S
C523 C169 0.943 . S
C535 C89 0.936 . S
C550 C109 0.955 . S
C562 C189 0.852 . S
C577 C142 1.466 . S
C589 C2 1.487 . S
C604 C162 1.471 . S
C616 C22 1.491 . S
C631 C182 1.405 . S
C643 C42 1.392 . S
C658 C62 1.416 . S
C670 C202 1.399 . S
C685 C82 1.408 . S
C697 C222 1.432 . S
C712 C102 1.508 . S
C724 C122 1.507 . S
C739 C19 0.443 . S
C751 C79 0.444 . S
C766 C39 0.297 . S
C778 C99 0.292 . S
C793 C59 0.449 . S
C805 C119 0.449 . S
C820 C199 0.310 . S
C832 C139 0.304 . S
C847 C159 0.444 . S
C859 C219 0.445 . S
C874 C239 0.258 . S
C886 C179 0.254 . S
C901 C152 1.289 . S
C913 C12 1.316 . S
C928 C172 1.388 . S
C940 C32 1.365 . S
C955 C52 1.292 . S
C967 C192 1.280 . S
C982 C212 1.280 . S
C994 C72 1.298 . S
C1009 C232 1.365 . S
C1021 C92 1.387 . S
C1036 C112 1.359 . S
C1048 C132 1.328 . S
C1063 C4 1.631 . S
C1075 C204 1.596 . S
C1090 C24 1.606 . S
C1102 C224 1.549 . S
C1117 C44 1.543 . S
C1129 C124 1.531 . S
C1144 C64 1.622 . S
C1156 C144 1.622 . S
C1171 C84 1.629 . S
C1183 C164 1.584 . S
C1198 C184 1.588 . S
C1210 C104 1.629 . S
