# Generated by pormake.
# Topology uke, (4)-cn, num edge types: 1
# Building blocks:
#     Node 0, Type 0, BuildingBlock: GALJAG_clean_sbu_0, # of connection points: 4
#     Node 1, Type 0, BuildingBlock: GALJAG_clean_sbu_0, # of connection points: 4
#     Node 2, Type 0, BuildingBlock: GALJAG_clean_sbu_0, # of connection points: 4
#     Node 3, Type 0, BuildingBlock: GALJAG_clean_sbu_0, # of connection points: 4
#     Node 4, Type 0, BuildingBlock: GALJAG_clean_sbu_0, # of connection points: 4
#     Node 5, Type 0, BuildingBlock: GALJAG_clean_sbu_0, # of connection points: 4
#     Node 6, Type 0, BuildingBlock: GALJAG_clean_sbu_0, # of connection points: 4
#     Node 7, Type 0, BuildingBlock: GALJAG_clean_sbu_0, # of connection points: 4
#     Node 8, Type 0, BuildingBlock: GALJAG_clean_sbu_0, # of connection points: 4
#     Node 9, Type 0, BuildingBlock: GALJAG_clean_sbu_0, # of connection points: 4
#     Node 10, Type 0, BuildingBlock: GALJAG_clean_sbu_0, # of connection points: 4
#     Node 11, Type 0, BuildingBlock: GALJAG_clean_sbu_0, # of connection points: 4
#     Node 12, Type 0, BuildingBlock: GALJAG_clean_sbu_0, # of connection points: 4
#     Node 13, Type 0, BuildingBlock: GALJAG_clean_sbu_0, # of connection points: 4
#     Node 14, Type 0, BuildingBlock: GALJAG_clean_sbu_0, # of connection points: 4
#     Node 15, Type 0, BuildingBlock: GALJAG_clean_sbu_0, # of connection points: 4
#     Node 16, Type 0, BuildingBlock: GALJAG_clean_sbu_0, # of connection points: 4
#     Node 17, Type 0, BuildingBlock: GALJAG_clean_sbu_0, # of connection points: 4
#     Node 18, Type 0, BuildingBlock: GALJAG_clean_sbu_0, # of connection points: 4
#     Node 19, Type 0, BuildingBlock: GALJAG_clean_sbu_0, # of connection points: 4
#     Node 20, Type 0, BuildingBlock: GALJAG_clean_sbu_0, # of connection points: 4
#     Node 21, Type 0, BuildingBlock: GALJAG_clean_sbu_0, # of connection points: 4
#     Node 22, Type 0, BuildingBlock: GALJAG_clean_sbu_0, # of connection points: 4
#     Node 23, Type 0, BuildingBlock: GALJAG_clean_sbu_0, # of connection points: 4
#     Node 24, Type 0, BuildingBlock: GALJAG_clean_sbu_0, # of connection points: 4
#     Node 25, Type 0, BuildingBlock: GALJAG_clean_sbu_0, # of connection points: 4
#     Node 26, Type 0, BuildingBlock: GALJAG_clean_sbu_0, # of connection points: 4
#     Node 27, Type 0, BuildingBlock: GALJAG_clean_sbu_0, # of connection points: 4
#     Node 28, Type 0, BuildingBlock: GALJAG_clean_sbu_0, # of connection points: 4
#     Node 29, Type 0, BuildingBlock: GALJAG_clean_sbu_0, # of connection points: 4
#     Node 30, Type 0, BuildingBlock: GALJAG_clean_sbu_0, # of connection points: 4
#     Node 31, Type 0, BuildingBlock: GALJAG_clean_sbu_0, # of connection points: 4
#     Edge 32, Type (0, 0), BuildingBlock: UVAHIK_clean_linker_0, # of connection points: 2
#     Edge 33, Type (0, 0), BuildingBlock: UVAHIK_clean_linker_0, # of connection points: 2
#     Edge 34, Type (0, 0), BuildingBlock: UVAHIK_clean_linker_0, # of connection points: 2
#     Edge 35, Type (0, 0), BuildingBlock: UVAHIK_clean_linker_0, # of connection points: 2
#     Edge 36, Type (0, 0), BuildingBlock: UVAHIK_clean_linker_0, # of connection points: 2
#     Edge 37, Type (0, 0), BuildingBlock: UVAHIK_clean_linker_0, # of connection points: 2
#     Edge 38, Type (0, 0), BuildingBlock: UVAHIK_clean_linker_0, # of connection points: 2
#     Edge 39, Type (0, 0), BuildingBlock: UVAHIK_clean_linker_0, # of connection points: 2
#     Edge 40, Type (0, 0), BuildingBlock: UVAHIK_clean_linker_0, # of connection points: 2
#     Edge 41, Type (0, 0), BuildingBlock: UVAHIK_clean_linker_0, # of connection points: 2
#     Edge 42, Type (0, 0), BuildingBlock: UVAHIK_clean_linker_0, # of connection points: 2
#     Edge 43, Type (0, 0), BuildingBlock: UVAHIK_clean_linker_0, # of connection points: 2
#     Edge 44, Type (0, 0), BuildingBlock: UVAHIK_clean_linker_0, # of connection points: 2
#     Edge 45, Type (0, 0), BuildingBlock: UVAHIK_clean_linker_0, # of connection points: 2
#     Edge 46, Type (0, 0), BuildingBlock: UVAHIK_clean_linker_0, # of connection points: 2
#     Edge 47, Type (0, 0), BuildingBlock: UVAHIK_clean_linker_0, # of connection points: 2
#     Edge 48, Type (0, 0), BuildingBlock: UVAHIK_clean_linker_0, # of connection points: 2
#     Edge 49, Type (0, 0), BuildingBlock: UVAHIK_clean_linker_0, # of connection points: 2
#     Edge 50, Type (0, 0), BuildingBlock: UVAHIK_clean_linker_0, # of connection points: 2
#     Edge 51, Type (0, 0), BuildingBlock: UVAHIK_clean_linker_0, # of connection points: 2
#     Edge 52, Type (0, 0), BuildingBlock: UVAHIK_clean_linker_0, # of connection points: 2
#     Edge 53, Type (0, 0), BuildingBlock: UVAHIK_clean_linker_0, # of connection points: 2
#     Edge 54, Type (0, 0), BuildingBlock: UVAHIK_clean_linker_0, # of connection points: 2
#     Edge 55, Type (0, 0), BuildingBlock: UVAHIK_clean_linker_0, # of connection points: 2
#     Edge 56, Type (0, 0), BuildingBlock: UVAHIK_clean_linker_0, # of connection points: 2
#     Edge 57, Type (0, 0), BuildingBlock: UVAHIK_clean_linker_0, # of connection points: 2
#     Edge 58, Type (0, 0), BuildingBlock: UVAHIK_clean_linker_0, # of connection points: 2
#     Edge 59, Type (0, 0), BuildingBlock: UVAHIK_clean_linker_0, # of connection points: 2
#     Edge 60, Type (0, 0), BuildingBlock: UVAHIK_clean_linker_0, # of connection points: 2
#     Edge 61, Type (0, 0), BuildingBlock: UVAHIK_clean_linker_0, # of connection points: 2
#     Edge 62, Type (0, 0), BuildingBlock: UVAHIK_clean_linker_0, # of connection points: 2
#     Edge 63, Type (0, 0), BuildingBlock: UVAHIK_clean_linker_0, # of connection points: 2
#     Edge 64, Type (0, 0), BuildingBlock: UVAHIK_clean_linker_0, # of connection points: 2
#     Edge 65, Type (0, 0), BuildingBlock: UVAHIK_clean_linker_0, # of connection points: 2
#     Edge 66, Type (0, 0), BuildingBlock: UVAHIK_clean_linker_0, # of connection points: 2
#     Edge 67, Type (0, 0), BuildingBlock: UVAHIK_clean_linker_0, # of connection points: 2
#     Edge 68, Type (0, 0), BuildingBlock: UVAHIK_clean_linker_0, # of connection points: 2
#     Edge 69, Type (0, 0), BuildingBlock: UVAHIK_clean_linker_0, # of connection points: 2
#     Edge 70, Type (0, 0), BuildingBlock: UVAHIK_clean_linker_0, # of connection points: 2
#     Edge 71, Type (0, 0), BuildingBlock: UVAHIK_clean_linker_0, # of connection points: 2
#     Edge 72, Type (0, 0), BuildingBlock: UVAHIK_clean_linker_0, # of connection points: 2
#     Edge 73, Type (0, 0), BuildingBlock: UVAHIK_clean_linker_0, # of connection points: 2
#     Edge 74, Type (0, 0), BuildingBlock: UVAHIK_clean_linker_0, # of connection points: 2
#     Edge 75, Type (0, 0), BuildingBlock: UVAHIK_clean_linker_0, # of connection points: 2
#     Edge 76, Type (0, 0), BuildingBlock: UVAHIK_clean_linker_0, # of connection points: 2
#     Edge 77, Type (0, 0), BuildingBlock: UVAHIK_clean_linker_0, # of connection points: 2
#     Edge 78, Type (0, 0), BuildingBlock: UVAHIK_clean_linker_0, # of connection points: 2
#     Edge 79, Type (0, 0), BuildingBlock: UVAHIK_clean_linker_0, # of connection points: 2
#     Edge 80, Type (0, 0), BuildingBlock: UVAHIK_clean_linker_0, # of connection points: 2
#     Edge 81, Type (0, 0), BuildingBlock: UVAHIK_clean_linker_0, # of connection points: 2
#     Edge 82, Type (0, 0), BuildingBlock: UVAHIK_clean_linker_0, # of connection points: 2
#     Edge 83, Type (0, 0), BuildingBlock: UVAHIK_clean_linker_0, # of connection points: 2
#     Edge 84, Type (0, 0), BuildingBlock: UVAHIK_clean_linker_0, # of connection points: 2
#     Edge 85, Type (0, 0), BuildingBlock: UVAHIK_clean_linker_0, # of connection points: 2
#     Edge 86, Type (0, 0), BuildingBlock: UVAHIK_clean_linker_0, # of connection points: 2
#     Edge 87, Type (0, 0), BuildingBlock: UVAHIK_clean_linker_0, # of connection points: 2
#     Edge 88, Type (0, 0), BuildingBlock: UVAHIK_clean_linker_0, # of connection points: 2
#     Edge 89, Type (0, 0), BuildingBlock: UVAHIK_clean_linker_0, # of connection points: 2
#     Edge 90, Type (0, 0), BuildingBlock: UVAHIK_clean_linker_0, # of connection points: 2
#     Edge 91, Type (0, 0), BuildingBlock: UVAHIK_clean_linker_0, # of connection points: 2
#     Edge 92, Type (0, 0), BuildingBlock: UVAHIK_clean_linker_0, # of connection points: 2
#     Edge 93, Type (0, 0), BuildingBlock: UVAHIK_clean_linker_0, # of connection points: 2
#     Edge 94, Type (0, 0), BuildingBlock: UVAHIK_clean_linker_0, # of connection points: 2
#     Edge 95, Type (0, 0), BuildingBlock: UVAHIK_clean_linker_0, # of connection points: 2
# Relax obj value: 0.063
# Max RMSD: 0.130
# Mean RMSD: 0.130
data_MOF--net-uke--node1-GALJAG_clean_sbu_0--edge1-UVAHIK_clean_linker_0
_symmetry_space_group_name_H-M    P1
_symmetry_Int_Tables_number       1
_symmetry_cell_setting            triclinic
loop_
_symmetry_equiv_pos_as_xyz
'x, y, z'
_cell_length_a     27.678198
_cell_length_b     146.53605
_cell_length_c     68.073469
_cell_angle_alpha  89.9699
_cell_angle_beta   89.965891
_cell_angle_gamma 89.994585
loop_
_atom_site_label
_atom_site_type_symbol
_atom_site_fract_x
_atom_site_fract_y
_atom_site_fract_z
_atom_type_partial_charge
In0 In 0.08313 0.0542 0.25513 0.0
O1 O 0.00554 0.04949 0.26025 0.0
O2 O 0.05712 0.04813 0.28344 0.0
C3 C 0.09294 0.05967 0.2179 0.0
C4 C 0.08732 0.07056 0.27254 0.0
C5 C 0.13456 0.03885 0.25166 0.0
O6 O 0.05293 0.05682 0.22457 0.0
O7 O 0.12727 0.05984 0.23013 0.0
O8 O 0.14947 0.04545 0.26211 0.0
O9 O 0.09472 0.04016 0.24309 0.0
C10 C 0.0142 0.04695 0.2777 0.0
O11 O 0.12183 0.0649 0.274 0.0
O12 O 0.05187 0.06788 0.26242 0.0
In13 In 0.12881 0.18286 0.26711 0.0
O14 O 0.20748 0.18534 0.2752 0.0
O15 O 0.15419 0.18529 0.29798 0.0
C16 C 0.12212 0.18092 0.22819 0.0
C17 C 0.11426 0.16545 0.27732 0.0
C18 C 0.08722 0.1993 0.26852 0.0
O19 O 0.16237 0.18219 0.23663 0.0
O20 O 0.08584 0.18059 0.23946 0.0
O21 O 0.06457 0.1922 0.27403 0.0
O22 O 0.12988 0.19796 0.26263 0.0
C23 C 0.19817 0.18613 0.29336 0.0
O24 O 0.08465 0.17163 0.28241 0.0
O25 O 0.14962 0.16814 0.26716 0.0
In26 In 0.09224 0.18523 0.97982 0.0
O27 O 0.13617 0.17396 0.96472 0.0
O28 O 0.06572 0.17092 0.97589 0.0
C29 C 0.13969 0.20096 0.98379 0.0
C30 C 0.03402 0.19083 0.95106 0.0
C31 C 0.08872 0.18178 0.01828 0.0
O32 O 0.16084 0.19388 0.97729 0.0
O33 O 0.0956 0.19995 0.98802 0.0
O34 O 0.05123 0.18402 0.00871 0.0
O35 O 0.12713 0.18119 0.0083 0.0
C36 C 0.10301 0.16808 0.96713 0.0
O37 O 0.01801 0.18921 0.96817 0.0
O38 O 0.07879 0.18955 0.94873 0.0
In39 In 0.1504 0.05565 0.97228 0.0
O40 O 0.22647 0.05189 0.96265 0.0
O41 O 0.16969 0.05184 0.94131 0.0
C42 C 0.14981 0.05952 0.01061 0.0
C43 C 0.13908 0.07276 0.95941 0.0
C44 C 0.10428 0.03969 0.9753 0.0
O45 O 0.18844 0.05737 0.00172 0.0
O46 O 0.11222 0.05968 9e-05 0.0
O47 O 0.0832 0.0467 0.96845 0.0
O48 O 0.14778 0.04085 0.98028 0.0
C49 C 0.21401 0.05063 0.94494 0.0
O50 O 0.1061 0.06684 0.95697 0.0
O51 O 0.17639 0.06994 0.96815 0.0
In52 In 0.88605 0.9335 0.73302 0.0
O53 O 0.84654 0.92166 0.71797 0.0
O54 O 0.91379 0.91918 0.7325 0.0
C55 C 0.84086 0.94954 0.73085 0.0
C56 C 0.95363 0.93801 0.70691 0.0
C57 C 0.87695 0.93173 0.77188 0.0
O58 O 0.81974 0.94223 0.72559 0.0
O59 O 0.88353 0.94857 0.73704 0.0
O60 O 0.91758 0.93317 0.76385 0.0
O61 O 0.84159 0.93106 0.76023 0.0
C62 C 0.8792 0.91597 0.7226 0.0
O63 O 0.96331 0.93733 0.72506 0.0
O64 O 0.91039 0.93629 0.70222 0.0
In65 In 0.85474 0.80179 0.7258 0.0
O66 O 0.77875 0.79931 0.71443 0.0
O67 O 0.83709 0.80019 0.69382 0.0
C68 C 0.85338 0.80252 0.76497 0.0
C69 C 0.86812 0.81955 0.71856 0.0
C70 C 0.8986 0.78559 0.72423 0.0
O71 O 0.8151 0.80126 0.75511 0.0
O72 O 0.89153 0.80348 0.75497 0.0
O73 O 0.92203 0.79292 0.72128 0.0
O74 O 0.85401 0.78658 0.72747 0.0
C75 C 0.79232 0.79908 0.69664 0.0
O76 O 0.89946 0.81369 0.71339 0.0
O77 O 0.83166 0.81637 0.72734 0.0
In78 In 0.86997 0.80608 0.01497 0.0
O79 O 0.94877 0.80457 0.02377 0.0
O80 O 0.89522 0.80555 0.04634 0.0
C81 C 0.87018 0.8055 0.97573 0.0
C82 C 0.84938 0.82374 0.021 0.0
C83 C 0.82834 0.78974 0.01967 0.0
O84 O 0.90895 0.80514 0.98558 0.0
O85 O 0.83194 0.80623 0.98574 0.0
O86 O 0.80366 0.79703 0.0205 0.0
O87 O 0.87305 0.79085 0.01704 0.0
C88 C 0.93937 0.80469 0.04199 0.0
O89 O 0.82414 0.81749 0.02881 0.0
O90 O 0.88334 0.82099 0.01017 0.0
In91 In 0.82865 0.93797 0.02003 0.0
O92 O 0.75773 0.94245 0.03389 0.0
O93 O 0.82148 0.94169 0.05174 0.0
C94 C 0.82579 0.93493 0.98148 0.0
C95 C 0.83421 0.92048 0.03076 0.0
C96 C 0.87648 0.95363 0.01608 0.0
O97 O 0.78817 0.93734 0.99085 0.0
O98 O 0.86355 0.93397 0.99173 0.0
O99 O 0.89757 0.9465 0.0224 0.0
O100 O 0.83215 0.95272 0.01209 0.0
C101 C 0.77686 0.94349 0.0507 0.0
O102 O 0.8705 0.92575 0.03222 0.0
O103 O 0.79622 0.92412 0.02407 0.0
In104 In 0.08683 0.55154 0.7677 0.0
O105 O 0.12826 0.56276 0.78402 0.0
O106 O 0.0578 0.56558 0.77259 0.0
C107 C 0.13256 0.53558 0.76468 0.0
C108 C 0.0226 0.54565 0.79394 0.0
C109 C 0.09337 0.55573 0.72962 0.0
O110 O 0.153 0.54243 0.77258 0.0
O111 O 0.09009 0.53694 0.75857 0.0
O112 O 0.05324 0.55369 0.73751 0.0
O113 O 0.12935 0.55572 0.74105 0.0
C114 C 0.09424 0.56849 0.78181 0.0
O115 O 0.01073 0.54718 0.77624 0.0
O116 O 0.06638 0.54715 0.7981 0.0
In117 In 0.14043 0.68123 0.76648 0.0
O118 O 0.21877 0.68356 0.77509 0.0
O119 O 0.16469 0.68357 0.79757 0.0
C120 C 0.13851 0.67956 0.72741 0.0
C121 C 0.12388 0.66386 0.77669 0.0
C122 C 0.09765 0.69759 0.76733 0.0
O123 O 0.17763 0.68083 0.73668 0.0
O124 O 0.10101 0.67906 0.73795 0.0
O125 O 0.07402 0.69036 0.77102 0.0
O126 O 0.14193 0.69643 0.76371 0.0
C127 C 0.20887 0.68435 0.79319 0.0
O128 O 0.0956 0.67019 0.78214 0.0
O129 O 0.15886 0.66638 0.76612 0.0
In130 In 0.09918 0.68232 0.4781 0.0
O131 O 0.14409 0.67122 0.46273 0.0
O132 O 0.08019 0.66749 0.47843 0.0
C133 C 0.14174 0.69867 0.4767 0.0
C134 C 0.03035 0.68547 0.45157 0.0
C135 C 0.10284 0.68064 0.51715 0.0
O136 O 0.16508 0.69145 0.47265 0.0
O137 O 0.09786 0.6975 0.48104 0.0
O138 O 0.06326 0.68186 0.50818 0.0
O139 O 0.13989 0.68022 0.50634 0.0
C140 C 0.11551 0.66493 0.46811 0.0
O141 O 0.02074 0.68476 0.46971 0.0
O142 O 0.07438 0.68457 0.44707 0.0
In143 In 0.15856 0.55289 0.48365 0.0
O144 O 0.23278 0.54834 0.47279 0.0
O145 O 0.17185 0.54741 0.45349 0.0
C146 C 0.1567 0.55759 0.52149 0.0
C147 C 0.15194 0.56965 0.46846 0.0
C148 C 0.10876 0.53753 0.4891 0.0
O149 O 0.19506 0.55463 0.51347 0.0
O150 O 0.12055 0.55828 0.51025 0.0
O151 O 0.08972 0.5444 0.48075 0.0
O152 O 0.15214 0.53854 0.49445 0.0
C153 C 0.2166 0.54616 0.45598 0.0
O154 O 0.11701 0.56405 0.46734 0.0
O155 O 0.18914 0.56671 0.47715 0.0
In156 In 0.90414 0.43508 0.22102 0.0
O157 O 0.86057 0.42338 0.20745 0.0
O158 O 0.93225 0.42085 0.21798 0.0
C159 C 0.85775 0.45094 0.22434 0.0
C160 C 0.96062 0.44016 0.19127 0.0
C161 C 0.90577 0.43203 0.25965 0.0
O162 O 0.83622 0.44387 0.21803 0.0
O163 O 0.9018 0.44988 0.22862 0.0
O164 O 0.94385 0.43418 0.25031 0.0
O165 O 0.86793 0.43135 0.24935 0.0
C166 C 0.89461 0.41768 0.21001 0.0
O167 O 0.9775 0.43902 0.20843 0.0
O168 O 0.91584 0.4387 0.18943 0.0
In169 In 0.85204 0.30521 0.23252 0.0
O170 O 0.89522 0.31617 0.21617 0.0
O171 O 0.82522 0.31938 0.22781 0.0
C172 C 0.89208 0.28886 0.23755 0.0
C173 C 0.79165 0.29978 0.2045 0.0
C174 C 0.85938 0.30973 0.27027 0.0
O175 O 0.91563 0.29536 0.22967 0.0
O176 O 0.84923 0.29074 0.24259 0.0
O177 O 0.81886 0.3077 0.26266 0.0
O178 O 0.89518 0.30953 0.25871 0.0
C179 C 0.86211 0.32209 0.21853 0.0
O180 O 0.77657 0.30164 0.22169 0.0
O181 O 0.83663 0.30069 0.20183 0.0
In182 In 0.89072 0.30401 0.51512 0.0
O183 O 0.96221 0.29872 0.52727 0.0
O184 O 0.8984 0.29765 0.54489 0.0
C185 C 0.89865 0.30988 0.47818 0.0
C186 C 0.88211 0.32055 0.53127 0.0
C187 C 0.84059 0.28913 0.50556 0.0
O188 O 0.93458 0.30657 0.48733 0.0
O189 O 0.85975 0.31032 0.48789 0.0
O190 O 0.82231 0.29525 0.51648 0.0
O191 O 0.88325 0.29061 0.49979 0.0
C192 C 0.94325 0.29622 0.54337 0.0
O193 O 0.84595 0.31526 0.52979 0.0
O194 O 0.9215 0.31737 0.52488 0.0
In195 In 0.84478 0.43315 0.50788 0.0
O196 O 0.76592 0.43594 0.51577 0.0
O197 O 0.81907 0.43576 0.53856 0.0
C198 C 0.85454 0.43107 0.4691 0.0
C199 C 0.85869 0.4158 0.51866 0.0
C200 C 0.8873 0.44948 0.50929 0.0
O201 O 0.81354 0.43232 0.477 0.0
O202 O 0.88987 0.4308 0.48085 0.0
O203 O 0.90896 0.44237 0.5153 0.0
O204 O 0.84507 0.44822 0.50284 0.0
C205 C 0.77525 0.43679 0.53391 0.0
O206 O 0.8874 0.42205 0.52415 0.0
O207 O 0.8244 0.41838 0.50777 0.0
In208 In 0.60521 0.05588 0.75565 0.0
O209 O 0.52851 0.05333 0.76653 0.0
O210 O 0.58715 0.05304 0.78707 0.0
C211 C 0.60983 0.05802 0.71682 0.0
C212 C 0.62006 0.0732 0.76617 0.0
C213 C 0.64444 0.03929 0.75501 0.0
O214 O 0.56982 0.0568 0.72557 0.0
O215 O 0.64667 0.05828 0.72778 0.0
O216 O 0.6691 0.04621 0.76014 0.0
O217 O 0.60098 0.04088 0.75052 0.0
C218 C 0.54226 0.05224 0.78416 0.0
O219 O 0.65035 0.06701 0.77057 0.0
O220 O 0.58385 0.07057 0.75642 0.0
In221 In 0.65071 0.18574 0.76386 0.0
O222 O 0.72629 0.19023 0.77269 0.0
O223 O 0.67058 0.19004 0.79448 0.0
C224 C 0.65048 0.18231 0.72531 0.0
C225 C 0.64362 0.16857 0.77701 0.0
C226 C 0.59951 0.20115 0.76161 0.0
O227 O 0.68852 0.18472 0.73425 0.0
O228 O 0.61329 0.18151 0.73594 0.0
O229 O 0.58138 0.19396 0.76897 0.0
O230 O 0.64256 0.20042 0.75572 0.0
C231 C 0.71431 0.19164 0.7904 0.0
O232 O 0.60906 0.17418 0.77908 0.0
O233 O 0.68046 0.17169 0.7684 0.0
In234 In 0.61288 0.18285 0.47593 0.0
O235 O 0.65787 0.17135 0.46211 0.0
O236 O 0.59394 0.16805 0.47827 0.0
C237 C 0.65483 0.19918 0.47265 0.0
C238 C 0.54713 0.18522 0.44782 0.0
C239 C 0.61518 0.18217 0.51512 0.0
O240 O 0.67914 0.19189 0.47068 0.0
O241 O 0.61037 0.1981 0.47606 0.0
O242 O 0.57571 0.18302 0.50584 0.0
O243 O 0.65263 0.18168 0.50456 0.0
C244 C 0.62927 0.16521 0.46828 0.0
O245 O 0.53538 0.1851 0.46584 0.0
O246 O 0.59157 0.1841 0.4443 0.0
In247 In 0.64941 0.05124 0.46841 0.0
O248 O 0.72003 0.04675 0.45437 0.0
O249 O 0.65601 0.04758 0.43666 0.0
C250 C 0.65138 0.05445 0.50688 0.0
C251 C 0.64404 0.0687 0.45764 0.0
C252 C 0.60337 0.03543 0.47265 0.0
O253 O 0.68934 0.05211 0.49764 0.0
O254 O 0.61365 0.05524 0.49654 0.0
O255 O 0.58142 0.04246 0.46621 0.0
O256 O 0.6476 0.03654 0.47663 0.0
C257 C 0.70061 0.04574 0.4376 0.0
O258 O 0.60778 0.06342 0.456 0.0
O259 O 0.68188 0.06507 0.46451 0.0
In260 In 0.40514 0.9349 0.23832 0.0
O261 O 0.48147 0.93986 0.23147 0.0
O262 O 0.42734 0.94063 0.20913 0.0
C263 C 0.40029 0.92979 0.27595 0.0
C264 C 0.40012 0.91832 0.22189 0.0
C265 C 0.35293 0.95012 0.24212 0.0
O266 O 0.43948 0.93248 0.26823 0.0
O267 O 0.36426 0.9296 0.26456 0.0
O268 O 0.33745 0.9434 0.23219 0.0
O269 O 0.39381 0.94901 0.24998 0.0
C270 C 0.47068 0.94207 0.21401 0.0
O271 O 0.36499 0.92387 0.22086 0.0
O272 O 0.43655 0.92121 0.23112 0.0
In273 In 0.35849 0.80527 0.22368 0.0
O274 O 0.4047 0.81668 0.21004 0.0
O275 O 0.34116 0.8201 0.2263 0.0
C276 C 0.40024 0.78887 0.22118 0.0
C277 C 0.29221 0.80322 0.19564 0.0
C278 C 0.35794 0.80577 0.26291 0.0
O279 O 0.42466 0.79613 0.21888 0.0
O280 O 0.3557 0.79003 0.22423 0.0
O281 O 0.31934 0.80485 0.2531 0.0
O282 O 0.39612 0.80648 0.25284 0.0
C283 C 0.37668 0.82288 0.21635 0.0
O284 O 0.28075 0.8035 0.21366 0.0
O285 O 0.33683 0.80395 0.19202 0.0
In286 In 0.38185 0.80359 0.51281 0.0
O287 O 0.46056 0.80152 0.5214 0.0
O288 O 0.40664 0.80154 0.5439 0.0
C289 C 0.38024 0.80484 0.47366 0.0
C290 C 0.36357 0.82097 0.52249 0.0
C291 C 0.33922 0.78724 0.51445 0.0
O292 O 0.41934 0.80379 0.48306 0.0
O293 O 0.34256 0.80534 0.4841 0.0
O294 O 0.31551 0.7945 0.5177 0.0
O295 O 0.38351 0.78836 0.51083 0.0
C296 C 0.45082 0.80083 0.53952 0.0
O297 O 0.33707 0.81453 0.52876 0.0
O298 O 0.39758 0.81856 0.5113 0.0
In299 In 0.33952 0.93301 0.52154 0.0
O300 O 0.26524 0.93737 0.53223 0.0
O301 O 0.32562 0.93822 0.5519 0.0
C302 C 0.34239 0.92815 0.48382 0.0
C303 C 0.3461 0.91621 0.53647 0.0
C304 C 0.38531 0.94878 0.51594 0.0
O305 O 0.30348 0.93089 0.49177 0.0
O306 O 0.37872 0.9278 0.49504 0.0
O307 O 0.40642 0.94208 0.52416 0.0
O308 O 0.34207 0.94737 0.51081 0.0
C309 C 0.28087 0.93943 0.54919 0.0
O310 O 0.38163 0.9217 0.53723 0.0
O311 O 0.30848 0.91931 0.52834 0.0
In312 In 0.58641 0.55346 0.26528 0.0
O313 O 0.51139 0.54883 0.27466 0.0
O314 O 0.5688 0.54892 0.29582 0.0
C315 C 0.59386 0.55793 0.22743 0.0
C316 C 0.59081 0.57042 0.27939 0.0
C317 C 0.63307 0.53767 0.26138 0.0
O318 O 0.55377 0.55549 0.23485 0.0
O319 O 0.62912 0.55818 0.23922 0.0
O320 O 0.65328 0.54449 0.26946 0.0
O321 O 0.59023 0.53895 0.25559 0.0
C322 C 0.5248 0.54731 0.2922 0.0
O323 O 0.62587 0.56491 0.28158 0.0
O324 O 0.55479 0.56728 0.27021 0.0
In325 In 0.62423 0.68367 0.26656 0.0
O326 O 0.70063 0.68598 0.2777 0.0
O327 O 0.64233 0.68571 0.29839 0.0
C328 C 0.62703 0.68244 0.22746 0.0
C329 C 0.60785 0.66614 0.27522 0.0
C330 C 0.58184 0.70004 0.267 0.0
O331 O 0.66501 0.68366 0.23752 0.0
O332 O 0.58835 0.68177 0.23723 0.0
O333 O 0.55747 0.69282 0.26988 0.0
O334 O 0.62654 0.69886 0.26436 0.0
C335 C 0.68719 0.68658 0.29547 0.0
O336 O 0.57824 0.6723 0.28042 0.0
O337 O 0.64405 0.66891 0.26566 0.0
In338 In 0.6197 0.68344 0.97739 0.0
O339 O 0.54257 0.68528 0.96664 0.0
O340 O 0.59992 0.68475 0.94555 0.0
C341 C 0.6177 0.68282 0.01656 0.0
C342 C 0.63836 0.66586 0.97008 0.0
C343 C 0.66046 0.69994 0.97558 0.0
O344 O 0.57935 0.68363 0.00653 0.0
O345 O 0.65634 0.68228 0.00673 0.0
O346 O 0.68565 0.69276 0.97358 0.0
O347 O 0.61577 0.69866 0.97798 0.0
C348 C 0.55513 0.68555 0.94873 0.0
O349 O 0.66601 0.67209 0.96361 0.0
O350 O 0.60302 0.66859 0.98019 0.0
In351 In 0.65 0.5533 0.98174 0.0
O352 O 0.72323 0.54814 0.97115 0.0
O353 O 0.66249 0.54756 0.9517 0.0
C354 C 0.65076 0.55825 0.01943 0.0
C355 C 0.64587 0.57006 0.96635 0.0
C356 C 0.59911 0.5381 0.98759 0.0
O357 O 0.68853 0.5553 0.01097 0.0
O358 O 0.61358 0.5588 0.0087 0.0
O359 O 0.5814 0.54477 0.97806 0.0
O360 O 0.64147 0.53927 0.99402 0.0
C361 C 0.70688 0.54598 0.95436 0.0
O362 O 0.60913 0.56487 0.96633 0.0
O363 O 0.68346 0.56671 0.97401 0.0
In364 In 0.3834 0.43139 0.72165 0.0
O365 O 0.45865 0.43465 0.71008 0.0
O366 O 0.39814 0.43559 0.69056 0.0
C367 C 0.38275 0.42711 0.75976 0.0
C368 C 0.36834 0.41449 0.7084 0.0
C369 C 0.34175 0.44765 0.72653 0.0
O370 O 0.42162 0.42927 0.751 0.0
O371 O 0.34525 0.42708 0.74917 0.0
O372 O 0.31865 0.44101 0.71907 0.0
O373 O 0.38505 0.44599 0.73116 0.0
C374 C 0.44326 0.43636 0.6929 0.0
O375 O 0.33589 0.42058 0.70689 0.0
O376 O 0.40721 0.41705 0.71641 0.0
In377 In 0.31018 0.3028 0.73291 0.0
O378 O 0.35014 0.31375 0.71529 0.0
O379 O 0.28274 0.31707 0.72897 0.0
C380 C 0.35811 0.28706 0.73542 0.0
C381 C 0.24509 0.29685 0.70708 0.0
C382 C 0.31969 0.3069 0.77092 0.0
O383 O 0.37716 0.29404 0.7275 0.0
O384 O 0.31567 0.28815 0.74182 0.0
O385 O 0.27912 0.30463 0.76372 0.0
O386 O 0.35437 0.30718 0.75884 0.0
C387 C 0.31784 0.31971 0.71854 0.0
O388 O 0.23345 0.29848 0.72478 0.0
O389 O 0.28882 0.29831 0.7028 0.0
In390 In 0.40303 0.30475 0.01693 0.0
O391 O 0.48002 0.3012 0.02592 0.0
O392 O 0.4238 0.30074 0.04754 0.0
C393 C 0.39733 0.30853 0.97857 0.0
C394 C 0.39047 0.32165 0.03083 0.0
C395 C 0.35906 0.28857 0.01494 0.0
O396 O 0.43732 0.3066 0.98666 0.0
O397 O 0.36127 0.30867 0.98994 0.0
O398 O 0.33798 0.29546 0.02235 0.0
O399 O 0.40146 0.28998 0.00879 0.0
C400 C 0.4681 0.29969 0.04363 0.0
O401 O 0.35724 0.3157 0.03206 0.0
O402 O 0.42885 0.319 0.02257 0.0
In403 In 0.34666 0.43264 0.00611 0.0
O404 O 0.39348 0.42186 0.02152 0.0
O405 O 0.31808 0.41936 0.01767 0.0
C406 C 0.39521 0.44828 0.00158 0.0
C407 C 0.28069 0.43955 0.03057 0.0
C408 C 0.34689 0.42706 0.96865 0.0
O409 O 0.41204 0.44182 0.01194 0.0
O410 O 0.355 0.44669 0.99356 0.0
O411 O 0.30858 0.42966 0.97714 0.0
O412 O 0.38438 0.42714 0.97921 0.0
C413 C 0.35798 0.41654 0.02421 0.0
O414 O 0.26967 0.43698 0.01336 0.0
O415 O 0.32468 0.43865 0.03512 0.0
C416 C 0.19024 0.06202 0.04307 0.0
C417 C 0.14787 0.06148 0.03182 0.0
C418 C 0.1876 0.06357 0.06332 0.0
C419 C 0.10313 0.07095 0.10294 0.0
H420 H 0.18599 0.05614 0.13599 0.0
C421 C 0.06153 0.06201 0.18382 0.0
C422 C 0.10031 0.06208 0.1971 0.0
C423 C 0.06964 0.06353 0.16382 0.0
C424 C 0.16309 0.06043 0.12695 0.0
H425 H 0.06963 0.06224 0.03277 0.0
H426 H 0.06491 0.06465 0.06797 0.0
H427 H 0.19687 0.05585 0.10052 0.0
H428 H 0.17763 0.06413 0.20006 0.0
H429 H 0.19171 0.0667 0.16513 0.0
H430 H 0.06806 0.07519 0.12949 0.0
C431 C 0.10027 0.06412 0.06125 0.0
C432 C 0.16941 0.06029 0.10662 0.0
C433 C 0.10295 0.06265 0.04106 0.0
C434 C 0.14704 0.06399 0.19014 0.0
C435 C 0.15518 0.06544 0.17017 0.0
C436 C 0.09651 0.07101 0.12327 0.0
C437 C 0.1425 0.06453 0.07267 0.0
C438 C 0.13899 0.06543 0.09434 0.0
C439 C 0.11669 0.06507 0.15678 0.0
C440 C 0.12601 0.06565 0.13543 0.0
H441 H 0.22537 0.0612 0.03628 0.0
H442 H 0.22085 0.06397 0.07164 0.0
H443 H 0.07968 0.07513 0.09393 0.0
H444 H 0.02514 0.06057 0.18879 0.0
H445 H 0.03938 0.06314 0.15377 0.0
C446 C 0.04579 0.18084 0.05063 0.0
C447 C 0.08874 0.18036 0.03972 0.0
C448 C 0.04686 0.17996 0.07109 0.0
C449 C 0.12501 0.17229 0.11233 0.0
H450 H 0.04691 0.18906 0.14288 0.0
C451 C 0.15823 0.17967 0.19458 0.0
C452 C 0.11724 0.18004 0.20671 0.0
C453 C 0.15312 0.17901 0.17421 0.0
C454 C 0.06853 0.18427 0.13454 0.0
H455 H 0.16635 0.17844 0.04152 0.0
H456 H 0.16837 0.17712 0.07706 0.0
H457 H 0.03999 0.18899 0.10719 0.0
H458 H 0.03885 0.17995 0.20714 0.0
H459 H 0.03001 0.17885 0.17159 0.0
H460 H 0.15443 0.16776 0.13975 0.0
C461 C 0.13371 0.17799 0.06993 0.0
C462 C 0.06444 0.1842 0.1141 0.0
C463 C 0.13259 0.17882 0.04954 0.0
C464 C 0.07112 0.17969 0.19815 0.0
C465 C 0.06601 0.1791 0.17781 0.0
C466 C 0.12934 0.17241 0.13276 0.0
C467 C 0.09095 0.17862 0.08097 0.0
C468 C 0.09293 0.17826 0.10275 0.0
C469 C 0.10693 0.17879 0.16564 0.0
C470 C 0.10138 0.17844 0.14404 0.0
H471 H 0.01146 0.18199 0.04341 0.0
H472 H 0.01319 0.18036 0.07915 0.0
H473 H 0.14688 0.16752 0.10405 0.0
H474 H 0.19421 0.17993 0.20081 0.0
H475 H 0.18527 0.17886 0.16514 0.0
C476 C 0.78545 0.9347 0.94843 0.0
C477 C 0.8272 0.93376 0.95998 0.0
C478 C 0.78845 0.93408 0.92793 0.0
C479 C 0.87459 0.93752 0.88793 0.0
H480 H 0.78913 0.92239 0.85676 0.0
C481 C 0.91053 0.93127 0.80595 0.0
C482 C 0.87047 0.93126 0.79335 0.0
C483 C 0.90395 0.93124 0.8263 0.0
C484 C 0.81291 0.92673 0.86523 0.0
H485 H 0.90449 0.93123 0.95923 0.0
H486 H 0.90959 0.93021 0.92368 0.0
H487 H 0.77826 0.92316 0.89237 0.0
H488 H 0.79216 0.9311 0.79203 0.0
H489 H 0.78067 0.93126 0.82747 0.0
H490 H 0.90887 0.94124 0.86099 0.0
C491 C 0.8747 0.93148 0.93038 0.0
C492 C 0.80665 0.92716 0.88559 0.0
C493 C 0.87166 0.93202 0.95075 0.0
C494 C 0.82376 0.93108 0.80142 0.0
C495 C 0.81716 0.93112 0.82174 0.0
C496 C 0.88059 0.93716 0.86762 0.0
C497 C 0.83332 0.93261 0.91876 0.0
C498 C 0.83781 0.93248 0.89712 0.0
C499 C 0.85717 0.93127 0.83443 0.0
C500 C 0.85016 0.93169 0.85603 0.0
H501 H 0.75073 0.93604 0.95518 0.0
H502 H 0.75604 0.93499 0.91924 0.0
H503 H 0.89864 0.94179 0.89648 0.0
H504 H 0.94694 0.93136 0.80011 0.0
H505 H 0.93558 0.93118 0.83565 0.0
C506 C 0.82459 0.80478 0.94424 0.0
C507 C 0.86911 0.80504 0.95412 0.0
C508 C 0.82303 0.80434 0.92379 0.0
C509 C 0.89389 0.80959 0.87982 0.0
H510 H 0.80474 0.79305 0.85405 0.0
C511 C 0.89855 0.8035 0.7965 0.0
C512 C 0.85421 0.80278 0.7866 0.0
C513 C 0.90006 0.8037 0.81695 0.0
C514 C 0.82938 0.79778 0.86103 0.0
H515 H 0.94691 0.80503 0.95044 0.0
H516 H 0.94419 0.80428 0.91456 0.0
H517 H 0.80868 0.79343 0.88985 0.0
H518 H 0.77663 0.80172 0.79028 0.0
H519 H 0.77913 0.80223 0.82616 0.0
H520 H 0.91431 0.81402 0.85108 0.0
C521 C 0.91054 0.80447 0.92268 0.0
C522 C 0.83173 0.79798 0.88151 0.0
C523 C 0.9121 0.80486 0.94318 0.0
C524 C 0.81131 0.80226 0.79755 0.0
C525 C 0.8128 0.8025 0.81807 0.0
C526 C 0.89141 0.80942 0.85936 0.0
C527 C 0.86596 0.8042 0.91281 0.0
C528 C 0.86403 0.80388 0.89109 0.0
C529 C 0.85724 0.80323 0.82798 0.0
C530 C 0.85919 0.8035 0.84973 0.0
H531 H 0.79084 0.80492 0.95229 0.0
H532 H 0.78818 0.80426 0.91656 0.0
H533 H 0.91858 0.81431 0.88683 0.0
H534 H 0.93227 0.80385 0.78844 0.0
H535 H 0.93491 0.80411 0.82412 0.0
C536 C 0.05829 0.55859 0.69628 0.0
C537 C 0.09882 0.55759 0.70846 0.0
C538 C 0.06412 0.55994 0.67608 0.0
C539 C 0.15591 0.56588 0.63797 0.0
H540 H 0.06828 0.55283 0.60361 0.0
C541 C 0.19193 0.55828 0.55542 0.0
C542 C 0.15252 0.55949 0.5427 0.0
C543 C 0.18583 0.55924 0.57573 0.0
C544 C 0.09273 0.55659 0.61303 0.0
H545 H 0.17717 0.55735 0.7092 0.0
H546 H 0.18732 0.55939 0.67405 0.0
H547 H 0.05574 0.5523 0.63895 0.0
H548 H 0.07643 0.56303 0.54112 0.0
H549 H 0.06592 0.56462 0.57643 0.0
H550 H 0.1938 0.56987 0.61184 0.0
C551 C 0.15104 0.55937 0.68 0.0
C552 C 0.08543 0.55633 0.63329 0.0
C553 C 0.14521 0.55813 0.70017 0.0
C554 C 0.10747 0.56199 0.55055 0.0
C555 C 0.10132 0.56288 0.57077 0.0
C556 C 0.16352 0.56605 0.61768 0.0
C557 C 0.11059 0.56021 0.66766 0.0
C558 C 0.11702 0.56094 0.64604 0.0
C559 C 0.14015 0.56134 0.58357 0.0
C560 C 0.13201 0.56139 0.60504 0.0
H561 H 0.02212 0.55827 0.70233 0.0
H562 H 0.03217 0.56072 0.66707 0.0
H563 H 0.18052 0.56963 0.64733 0.0
H564 H 0.22705 0.55635 0.54975 0.0
H565 H 0.2163 0.55798 0.58534 0.0
C566 C 0.09109 0.67829 0.69646 0.0
C567 C 0.13614 0.67892 0.70584 0.0
C568 C 0.08822 0.67798 0.67603 0.0
C569 C 0.15689 0.68395 0.63152 0.0
H570 H 0.06229 0.66855 0.6057 0.0
C571 C 0.15176 0.67931 0.5477 0.0
C572 C 0.10623 0.67991 0.53869 0.0
C573 C 0.15561 0.67885 0.56809 0.0
C574 C 0.08858 0.67293 0.61274 0.0
H575 H 0.21358 0.67956 0.7013 0.0
H576 H 0.20867 0.67887 0.6655 0.0
H577 H 0.06978 0.66812 0.64141 0.0
H578 H 0.02898 0.6804 0.54385 0.0
H579 H 0.03574 0.67958 0.57966 0.0
H580 H 0.17579 0.68873 0.60283 0.0
C581 C 0.17551 0.67877 0.67395 0.0
C582 C 0.09289 0.6727 0.63317 0.0
C583 C 0.17836 0.67911 0.69443 0.0
C584 C 0.06452 0.67994 0.55044 0.0
C585 C 0.06838 0.67943 0.57088 0.0
C586 C 0.15274 0.68415 0.61111 0.0
C587 C 0.13035 0.67826 0.66453 0.0
C588 C 0.12695 0.67824 0.64279 0.0
C589 C 0.11401 0.67894 0.57988 0.0
C590 C 0.11844 0.67867 0.60153 0.0
H591 H 0.05789 0.67816 0.70488 0.0
H592 H 0.05286 0.67773 0.66924 0.0
H593 H 0.18287 0.68843 0.6385 0.0
H594 H 0.18456 0.67925 0.53901 0.0
H595 H 0.1912 0.67837 0.57463 0.0
C596 C 0.82159 0.42978 0.43496 0.0
C597 C 0.86139 0.4302 0.4477 0.0
C598 C 0.82867 0.42916 0.41467 0.0
C599 C 0.91672 0.43461 0.37628 0.0
H600 H 0.84205 0.41777 0.34459 0.0
C601 C 0.94645 0.43133 0.29255 0.0
C602 C 0.90437 0.43073 0.28112 0.0
C603 C 0.94389 0.43047 0.313 0.0
C604 C 0.86292 0.42257 0.35321 0.0
H605 H 0.9397 0.43024 0.44929 0.0
H606 H 0.95193 0.42922 0.4139 0.0
H607 H 0.83123 0.41795 0.38015 0.0
H608 H 0.82674 0.42868 0.28206 0.0
H609 H 0.82215 0.42739 0.31753 0.0
H610 H 0.94749 0.43942 0.34939 0.0
C611 C 0.91536 0.4294 0.41957 0.0
C612 C 0.85671 0.42265 0.37356 0.0
C613 C 0.9083 0.42994 0.43982 0.0
C614 C 0.85989 0.42913 0.29046 0.0
C615 C 0.85729 0.42833 0.31082 0.0
C616 C 0.92267 0.43458 0.35591 0.0
C617 C 0.87564 0.42904 0.40679 0.0
C618 C 0.88327 0.42873 0.38527 0.0
C619 C 0.89916 0.42904 0.32237 0.0
C620 C 0.89548 0.42861 0.34412 0.0
H621 H 0.78505 0.42997 0.44065 0.0
H622 H 0.79741 0.42897 0.40511 0.0
H623 H 0.93733 0.43943 0.38496 0.0
H624 H 0.98123 0.43253 0.28571 0.0
H625 H 0.97691 0.43095 0.32146 0.0
C626 C 0.91236 0.31279 0.29905 0.0
C627 C 0.86559 0.31181 0.29131 0.0
C628 C 0.91919 0.31416 0.31911 0.0
C629 C 0.86043 0.32164 0.36454 0.0
H630 H 0.94944 0.3049 0.38984 0.0
C631 C 0.85731 0.31478 0.4475 0.0
C632 C 0.90024 0.31239 0.45721 0.0
C633 C 0.85699 0.31621 0.42727 0.0
C634 C 0.92529 0.30978 0.38302 0.0
H635 H 0.78921 0.31182 0.29833 0.0
H636 H 0.80121 0.3143 0.33358 0.0
H637 H 0.94065 0.30463 0.3543 0.0
H638 H 0.97705 0.31009 0.45357 0.0
H639 H 0.97687 0.31283 0.41815 0.0
H640 H 0.84501 0.32681 0.39324 0.0
C641 C 0.83249 0.314 0.32404 0.0
C642 C 0.92007 0.30958 0.36265 0.0
C643 C 0.82564 0.31253 0.30392 0.0
C644 C 0.94337 0.31187 0.44643 0.0
C645 C 0.94316 0.31338 0.42613 0.0
C646 C 0.86606 0.32192 0.38493 0.0
C647 C 0.87939 0.31467 0.33182 0.0
C648 C 0.88702 0.31539 0.35326 0.0
C649 C 0.89971 0.31536 0.41625 0.0
C650 C 0.89787 0.31587 0.39446 0.0
H651 H 0.9439 0.3123 0.28968 0.0
H652 H 0.95568 0.31475 0.32473 0.0
H653 H 0.83518 0.32627 0.3576 0.0
H654 H 0.82342 0.31523 0.45541 0.0
H655 H 0.82273 0.31758 0.42019 0.0
C656 C 0.57289 0.05889 0.68331 0.0
C657 C 0.61411 0.05867 0.69528 0.0
C658 C 0.57757 0.05906 0.66287 0.0
C659 C 0.66581 0.06348 0.62277 0.0
H660 H 0.57751 0.04859 0.59236 0.0
C661 C 0.69148 0.05498 0.53994 0.0
C662 C 0.64975 0.05577 0.52834 0.0
C663 C 0.68842 0.05579 0.5604 0.0
C664 C 0.60221 0.05283 0.60066 0.0
H665 H 0.69251 0.05855 0.69534 0.0
H666 H 0.70065 0.05864 0.6598 0.0
H667 H 0.56885 0.04928 0.62791 0.0
H668 H 0.57239 0.05823 0.52894 0.0
H669 H 0.5672 0.0596 0.56445 0.0
H670 H 0.69963 0.06686 0.59536 0.0
C671 C 0.66472 0.05887 0.66609 0.0
C672 C 0.59711 0.05327 0.62102 0.0
C673 C 0.66004 0.05876 0.68648 0.0
C674 C 0.6052 0.05755 0.53748 0.0
C675 C 0.60212 0.05829 0.55783 0.0
C676 C 0.67113 0.06298 0.60238 0.0
C677 C 0.62357 0.05895 0.65402 0.0
C678 C 0.62871 0.05863 0.63232 0.0
C679 C 0.64353 0.05732 0.56951 0.0
C680 C 0.63918 0.05769 0.59115 0.0
H681 H 0.53706 0.05887 0.68971 0.0
H682 H 0.54513 0.05928 0.65399 0.0
H683 H 0.69042 0.06776 0.63101 0.0
H684 H 0.72626 0.05361 0.53326 0.0
H685 H 0.72087 0.05499 0.56912 0.0
C686 C 0.69038 0.1818 0.69235 0.0
C687 C 0.6485 0.18103 0.70385 0.0
C688 C 0.68751 0.18122 0.67189 0.0
C689 C 0.60699 0.17405 0.63107 0.0
H690 H 0.68262 0.19147 0.60116 0.0
C691 C 0.57619 0.18131 0.54832 0.0
C692 C 0.61809 0.18175 0.53672 0.0
C693 C 0.57978 0.18085 0.56879 0.0
C694 C 0.66159 0.18652 0.60932 0.0
H695 H 0.57099 0.17885 0.70311 0.0
H696 H 0.56584 0.17804 0.66751 0.0
H697 H 0.69025 0.19102 0.63677 0.0
H698 H 0.69648 0.18205 0.53735 0.0
H699 H 0.70262 0.18131 0.57296 0.0
H700 H 0.57774 0.16968 0.60349 0.0
C701 C 0.60102 0.17893 0.67419 0.0
C702 C 0.66612 0.18622 0.62971 0.0
C703 C 0.60394 0.17945 0.69461 0.0
C704 C 0.66351 0.18174 0.54591 0.0
C705 C 0.66707 0.18135 0.5663 0.0
C706 C 0.60224 0.17439 0.61066 0.0
C707 C 0.64266 0.17992 0.66258 0.0
C708 C 0.6389 0.17998 0.64083 0.0
C709 C 0.6253 0.18092 0.57795 0.0
C710 C 0.62955 0.18062 0.5996 0.0
H711 H 0.72525 0.18297 0.69911 0.0
H712 H 0.7204 0.18186 0.66337 0.0
H713 H 0.58596 0.16908 0.63919 0.0
H714 H 0.54073 0.1813 0.54159 0.0
H715 H 0.54699 0.18059 0.57747 0.0
C716 C 0.30683 0.92681 0.45005 0.0
C717 C 0.34672 0.92608 0.4627 0.0
C718 C 0.31277 0.92565 0.42979 0.0
C719 C 0.40438 0.9287 0.39213 0.0
H720 H 0.31906 0.91465 0.35864 0.0
C721 C 0.43691 0.92684 0.30893 0.0
C722 C 0.39583 0.92754 0.29696 0.0
C723 C 0.43202 0.92532 0.32909 0.0
C724 C 0.34297 0.91867 0.36777 0.0
H725 H 0.42357 0.92319 0.46423 0.0
H726 H 0.43381 0.92124 0.42898 0.0
H727 H 0.30673 0.91455 0.3942 0.0
H728 H 0.31752 0.92701 0.29653 0.0
H729 H 0.30889 0.92468 0.33169 0.0
H730 H 0.43955 0.93314 0.36593 0.0
C731 C 0.39813 0.92276 0.43467 0.0
C732 C 0.33591 0.91859 0.38811 0.0
C733 C 0.39216 0.92385 0.45484 0.0
C734 C 0.34988 0.92647 0.30541 0.0
C735 C 0.34495 0.92506 0.32557 0.0
C736 C 0.4111 0.92888 0.37185 0.0
C737 C 0.35874 0.92382 0.42192 0.0
C738 C 0.36651 0.92362 0.40044 0.0
C739 C 0.38592 0.92459 0.33772 0.0
C740 C 0.38036 0.9239 0.35938 0.0
H741 H 0.27139 0.92851 0.45574 0.0
H742 H 0.28187 0.92653 0.42022 0.0
H743 H 0.42806 0.93275 0.40131 0.0
H744 H 0.47278 0.92756 0.30275 0.0
H745 H 0.46439 0.92482 0.33795 0.0
C746 C 0.33317 0.80575 0.44254 0.0
C747 C 0.37813 0.8053 0.45206 0.0
C748 C 0.33063 0.80599 0.4221 0.0
C749 C 0.40078 0.81162 0.37805 0.0
H750 H 0.3078 0.79612 0.35154 0.0
C751 C 0.40347 0.80633 0.29442 0.0
C752 C 0.35898 0.80594 0.28455 0.0
C753 C 0.4051 0.80642 0.31487 0.0
C754 C 0.33348 0.80058 0.35873 0.0
H755 H 0.45568 0.8048 0.44773 0.0
H756 H 0.45123 0.80523 0.41186 0.0
H757 H 0.3125 0.79596 0.38731 0.0
H758 H 0.28126 0.80542 0.28827 0.0
H759 H 0.284 0.80573 0.32415 0.0
H760 H 0.42162 0.8163 0.34953 0.0
C761 C 0.41801 0.80545 0.42027 0.0
C762 C 0.33625 0.80047 0.3792 0.0
C763 C 0.42056 0.80517 0.44076 0.0
C764 C 0.31606 0.80569 0.29552 0.0
C765 C 0.31767 0.80582 0.31604 0.0
C766 C 0.39787 0.81177 0.35759 0.0
C767 C 0.37298 0.80582 0.41075 0.0
C768 C 0.37003 0.80597 0.38905 0.0
C769 C 0.36225 0.80618 0.32593 0.0
C770 C 0.36433 0.80622 0.34769 0.0
H771 H 0.29984 0.80588 0.45088 0.0
H772 H 0.29547 0.80639 0.41516 0.0
H773 H 0.42667 0.81603 0.38529 0.0
H774 H 0.4372 0.80648 0.28634 0.0
H775 H 0.44004 0.80655 0.32203 0.0
C776 C 0.6905 0.56018 0.05223 0.0
C777 C 0.6487 0.56035 0.04059 0.0
C778 C 0.68729 0.56149 0.07253 0.0
C779 C 0.60309 0.56906 0.11224 0.0
H780 H 0.68076 0.55288 0.14437 0.0
C781 C 0.5609 0.55999 0.19341 0.0
C782 C 0.60037 0.5599 0.20635 0.0
C783 C 0.56827 0.56131 0.17327 0.0
C784 C 0.65923 0.55751 0.13559 0.0
H785 H 0.57096 0.56226 0.04091 0.0
H786 H 0.56513 0.56424 0.07619 0.0
H787 H 0.69223 0.55303 0.10894 0.0
H788 H 0.67826 0.56135 0.20852 0.0
H789 H 0.69097 0.56353 0.17343 0.0
H790 H 0.5688 0.57323 0.13904 0.0
C791 C 0.60059 0.56332 0.06976 0.0
C792 C 0.66596 0.55765 0.11529 0.0
C793 C 0.60389 0.56211 0.0495 0.0
C794 C 0.6471 0.56135 0.19889 0.0
C795 C 0.65447 0.56257 0.17882 0.0
C796 C 0.59597 0.56884 0.13256 0.0
C797 C 0.64213 0.5629 0.08159 0.0
C798 C 0.63766 0.56336 0.10332 0.0
C799 C 0.61524 0.56245 0.16579 0.0
C800 C 0.62376 0.56302 0.14438 0.0
H801 H 0.72556 0.5589 0.0457 0.0
H802 H 0.72013 0.56128 0.08116 0.0
H803 H 0.58124 0.57366 0.10352 0.0
H804 H 0.52451 0.5589 0.19878 0.0
H805 H 0.53745 0.56113 0.16348 0.0
C806 C 0.67049 0.68245 0.1952 0.0
C807 C 0.6271 0.68202 0.20584 0.0
C808 C 0.66988 0.68226 0.17468 0.0
C809 C 0.59257 0.67602 0.13239 0.0
H810 H 0.67714 0.69238 0.10369 0.0
C811 C 0.57467 0.68255 0.04892 0.0
C812 C 0.618 0.68257 0.0382 0.0
C813 C 0.57562 0.68234 0.06945 0.0
C814 C 0.65361 0.68772 0.11152 0.0
H815 H 0.54911 0.68103 0.20344 0.0
H816 H 0.54798 0.68085 0.16773 0.0
H817 H 0.67991 0.69212 0.13948 0.0
H818 H 0.69621 0.68237 0.04043 0.0
H819 H 0.69778 0.68201 0.07617 0.0
H820 H 0.56594 0.67171 0.10437 0.0
C821 C 0.58254 0.68118 0.17516 0.0
C822 C 0.6553 0.68755 0.132 0.0
C823 C 0.58318 0.68133 0.19563 0.0
C824 C 0.66221 0.68238 0.04831 0.0
C825 C 0.66315 0.68222 0.06877 0.0
C826 C 0.59072 0.67623 0.11191 0.0
C827 C 0.62584 0.68166 0.16444 0.0
C828 C 0.62479 0.6817 0.14266 0.0
C829 C 0.61991 0.68221 0.07955 0.0
C830 C 0.62126 0.68207 0.10128 0.0
H831 H 0.70487 0.68296 0.20272 0.0
H832 H 0.7039 0.68253 0.16683 0.0
H833 H 0.56908 0.67134 0.14017 0.0
H834 H 0.5401 0.6827 0.04148 0.0
H835 H 0.54174 0.68241 0.07742 0.0
C836 C 0.42148 0.42539 0.79288 0.0
C837 C 0.38006 0.42515 0.78099 0.0
C838 C 0.41752 0.42413 0.81321 0.0
C839 C 0.33066 0.42735 0.85289 0.0
H840 H 0.41725 0.41229 0.88375 0.0
C841 C 0.30648 0.42427 0.93634 0.0
C842 C 0.34887 0.42477 0.94758 0.0
C843 C 0.30907 0.42295 0.91604 0.0
C844 C 0.393 0.41658 0.87535 0.0
H845 H 0.30237 0.4231 0.78086 0.0
H846 H 0.2956 0.42096 0.81619 0.0
H847 H 0.42567 0.41272 0.848 0.0
H848 H 0.42709 0.42396 0.94659 0.0
H849 H 0.43171 0.42192 0.91122 0.0
H850 H 0.29894 0.4315 0.88002 0.0
C851 C 0.33098 0.42218 0.80989 0.0
C852 C 0.39785 0.41681 0.85491 0.0
C853 C 0.33495 0.42338 0.78966 0.0
C854 C 0.39376 0.42359 0.93829 0.0
C855 C 0.39639 0.42236 0.918 0.0
C856 C 0.32609 0.4272 0.87328 0.0
C857 C 0.37205 0.42269 0.82191 0.0
C858 C 0.36676 0.42221 0.84351 0.0
C859 C 0.35413 0.42219 0.90657 0.0
C860 C 0.35731 0.42184 0.88479 0.0
H861 H 0.4567 0.42672 0.78657 0.0
H862 H 0.44972 0.42459 0.82218 0.0
H863 H 0.30666 0.43169 0.84447 0.0
H864 H 0.27138 0.42508 0.94316 0.0
H865 H 0.27576 0.42267 0.90773 0.0
C866 C 0.37443 0.31019 0.79903 0.0
C867 C 0.32738 0.30866 0.79202 0.0
C868 C 0.38297 0.31126 0.81906 0.0
C869 C 0.32631 0.317 0.86609 0.0
H870 H 0.42875 0.30216 0.88828 0.0
C871 C 0.34552 0.31103 0.94919 0.0
C872 C 0.39192 0.31005 0.95727 0.0
C873 C 0.33932 0.31184 0.92895 0.0
C874 C 0.40065 0.30649 0.88231 0.0
H875 H 0.25215 0.30732 0.80039 0.0
H876 H 0.26714 0.30926 0.83562 0.0
H877 H 0.41388 0.30179 0.85306 0.0
H878 H 0.4684 0.30948 0.9506 0.0
H879 H 0.45776 0.31112 0.91512 0.0
H880 H 0.31315 0.32175 0.89531 0.0
C881 C 0.29732 0.30963 0.82551 0.0
C882 C 0.39199 0.30624 0.86213 0.0
C883 C 0.28876 0.30848 0.8054 0.0
C884 C 0.43221 0.31017 0.94475 0.0
C885 C 0.42603 0.31105 0.92444 0.0
C886 C 0.33526 0.31733 0.88628 0.0
C887 C 0.34464 0.31088 0.83252 0.0
C888 C 0.35448 0.31143 0.85386 0.0
C889 C 0.37942 0.31177 0.91629 0.0
C890 C 0.3722 0.31199 0.89466 0.0
H891 H 0.40495 0.3104 0.78907 0.0
H892 H 0.4197 0.31233 0.82405 0.0
H893 H 0.29757 0.32116 0.86003 0.0
H894 H 0.31371 0.31093 0.95846 0.0
H895 H 0.30289 0.31222 0.92322 0.0
C896 C 0.28555 0.96073 0.23277 0.0
C897 C 0.32686 0.95885 0.24402 0.0
C898 C 0.26355 0.96932 0.23382 0.0
C899 C 0.25544 0.99003 0.26468 0.0
H900 H 0.2206 0.00198 0.21588 0.0
C901 C 0.20068 0.02806 0.2615 0.0
C902 C 0.15997 0.03004 0.24998 0.0
C903 C 0.22212 0.01942 0.26058 0.0
C904 C 0.22979 -0.0013 0.22964 0.0
H905 H 0.3768 0.96436 0.26555 0.0
H906 H 0.33868 0.97925 0.26731 0.0
H907 H 0.25261 0.98648 0.21517 0.0
H908 H 0.11042 0.02466 0.22817 0.0
H909 H 0.14747 0.00966 0.22668 0.0
H910 H 0.23262 0.00225 0.27916 0.0
C911 C 0.32298 0.97413 0.25779 0.0
C912 C 0.24791 0.98982 0.22923 0.0
C913 C 0.34499 0.9656 0.25668 0.0
C914 C 0.14181 0.02333 0.23724 0.0
C915 C 0.16321 0.01475 0.23628 0.0
C916 C 0.23729 -0.00108 0.26509 0.0
C917 C 0.28236 0.97612 0.24623 0.0
C918 C 0.26101 0.98539 0.24674 0.0
C919 C 0.2033 0.01266 0.24806 0.0
C920 C 0.22427 0.00335 0.24758 0.0
H921 H 0.27085 0.95564 0.2229 0.0
H922 H 0.23194 0.97064 0.22489 0.0
H923 H 0.26474 0.98676 0.27843 0.0
H924 H 0.2154 0.03311 0.27145 0.0
H925 H 0.25336 0.01803 0.26968 0.0
C926 C 0.88233 0.27277 0.24847 0.0
C927 C 0.91236 0.2797 0.24103 0.0
C928 C 0.90071 0.26411 0.25231 0.0
C929 C 0.01319 0.25191 0.26298 0.0
H930 H 0.94007 0.23052 0.24735 0.0
C931 C 0.09492 0.21596 0.26259 0.0
C932 C 0.06591 0.20852 0.26813 0.0
C933 C 0.07527 0.22466 0.26088 0.0
C934 C 0.96052 0.23642 0.25211 0.0
H935 H 0.98516 0.28298 0.2317 0.0
H936 H 0.01756 0.26773 0.23843 0.0
H937 H 0.90841 0.2457 0.24029 0.0
H938 H -0.00625 0.20439 0.27668 0.0
H939 H 0.95911 0.21973 0.27384 0.0
H940 H 0.06535 0.24265 0.27478 0.0
C941 C 0.97977 0.26907 0.24139 0.0
C942 C 0.94251 0.24512 0.24798 0.0
C943 C 0.96124 0.27777 0.23743 0.0
C944 C 0.01689 0.21 0.27236 0.0
C945 C -0.00291 0.21876 0.27062 0.0
C946 C 0.03112 0.24322 0.26718 0.0
C947 C 0.94961 0.26216 0.24888 0.0
C948 C 0.96883 0.25295 0.25325 0.0
C949 C 0.02608 0.22617 0.26469 0.0
C950 C 0.0052 0.23538 0.26162 0.0
H951 H 0.84446 0.27404 0.25143 0.0
H952 H 0.87673 0.25896 0.2583 0.0
H953 H 0.03382 0.25782 0.26754 0.0
H954 H 0.13287 0.21504 0.25921 0.0
H955 H 0.09844 0.23017 0.25599 0.0
C956 C 0.21317 0.21102 0.98259 0.0
C957 C 0.1638 0.20984 0.98657 0.0
C958 C 0.23509 0.21951 0.98567 0.0
C959 C 0.20612 0.24402 0.99103 0.0
H960 H 0.33101 0.2454 0.0166 0.0
C961 C 0.28751 0.27814 0.0177 0.0
C962 C 0.3364 0.27951 0.0131 0.0
C963 C 0.26641 0.26955 0.015 0.0
C964 C 0.29626 0.24511 0.00932 0.0
H965 H 0.09866 0.21658 -0.00313 0.0
H966 H 0.13679 0.23125 0.00236 0.0
H967 H 0.29522 0.23051 0.00982 0.0
H968 H 0.40178 0.27299 0.00242 0.0
H969 H 0.36504 0.25811 -0.00232 0.0
H970 H 0.2071 0.25862 0.99055 0.0
C971 C 0.15855 0.22571 -0.00337 0.0
C972 C 0.27589 0.23659 0.00537 0.0
C973 C 0.13679 0.21728 0.99358 0.0
C974 C 0.36396 0.27214 0.0061 0.0
C975 C 0.34302 0.26359 0.0035 0.0
C976 C 0.22644 0.25254 0.995 0.0
C977 C 0.20789 0.22694 0.99271 0.0
C978 C 0.23055 0.23596 -0.00377 0.0
C979 C 0.29398 0.26221 0.00778 0.0
C980 C 0.2717 0.25317 0.00419 0.0
H981 H 0.23479 0.2054 0.97717 0.0
H982 H 0.27316 0.22028 0.98238 0.0
H983 H 0.17142 0.24375 0.9837 0.0
H984 H 0.26549 0.2837 0.02313 0.0
H985 H 0.22858 0.26865 0.01859 0.0
C986 C 0.03058 0.0297 0.97496 0.0
C987 C 0.08038 0.03078 0.97805 0.0
C988 C 0.00843 0.02128 0.97873 0.0
C989 C 0.03489 -0.00329 0.98508 0.0
H990 H 0.91429 -0.00354 0.01406 0.0
C991 C 0.95106 0.96341 0.01574 0.0
C992 C 0.90108 0.96245 0.01295 0.0
C993 C 0.97363 0.97178 0.01187 0.0
C994 C 0.94778 -0.00358 0.00582 0.0
H995 H 0.14621 0.02392 0.98713 0.0
H996 H 0.10769 0.00935 0.99373 0.0
H997 H 0.95122 0.01101 0.00527 0.0
H998 H 0.83546 0.96947 0.00416 0.0
H999 H 0.87467 0.98392 -0.00267 0.0
H1000 H 0.0314 0.98212 0.98561 0.0
C1001 C 0.08572 0.01492 0.98826 0.0
C1002 C 0.9688 0.00475 0.00072 0.0
C1003 C 0.10772 0.02329 0.98458 0.0
C1004 C 0.87407 0.97 0.0065 0.0
C1005 C 0.89648 0.97831 0.00269 0.0
C1006 C 0.01383 0.98837 0.99016 0.0
C1007 C 0.03582 0.01383 0.98553 0.0
C1008 C 0.01258 0.00498 0.99031 0.0
C1009 C 0.9465 0.97931 0.00524 0.0
C1010 C 0.97 0.98814 0.00055 0.0
H1011 H 0.00869 0.03536 0.96992 0.0
H1012 H 0.96993 0.02061 0.9763 0.0
H1013 H 0.0684 -0.00332 0.97686 0.0
H1014 H 0.97272 0.95771 0.0207 0.0
H1015 H 0.01223 0.97237 0.01414 0.0
C1016 C 0.63299 0.02266 0.74971 0.0
C1017 C 0.66436 0.02999 0.75349 0.0
C1018 C 0.65104 0.01389 0.74686 0.0
C1019 C 0.76031 0.00179 0.73147 0.0
H1020 H 0.69684 0.9807 0.75434 0.0
C1021 C 0.84728 0.96636 0.73344 0.0
C1022 C 0.81821 0.95863 0.73045 0.0
C1023 C 0.82681 0.97501 0.73463 0.0
C1024 C 0.71442 0.98651 0.74758 0.0
H1025 H 0.73914 0.03389 0.75767 0.0
H1026 H 0.77101 0.01845 0.75274 0.0
H1027 H 0.66579 -0.00403 0.76111 0.0
H1028 H 0.74499 0.95388 0.72581 0.0
H1029 H 0.70872 0.96915 0.7279 0.0
H1030 H 0.80911 0.99235 0.71804 0.0
C1031 C 0.73238 0.01955 0.75182 0.0
C1032 C 0.69685 -0.00475 0.75154 0.0
C1033 C 0.7142 0.02835 0.75478 0.0
C1034 C 0.76816 0.95974 0.72813 0.0
C1035 C 0.74748 0.96845 0.72945 0.0
C1036 C 0.77784 0.99306 0.72749 0.0
C1037 C 0.70092 0.01225 0.74766 0.0
C1038 C 0.71985 0.00298 0.74364 0.0
C1039 C 0.77668 0.97615 0.73289 0.0
C1040 C 0.75537 0.98533 0.73566 0.0
H1041 H 0.59433 0.02371 0.74865 0.0
H1042 H 0.62596 0.00844 0.74349 0.0
H1043 H 0.77816 0.00761 0.72485 0.0
H1044 H 0.88604 0.96573 0.73522 0.0
H1045 H 0.85021 0.98078 0.73755 0.0
C1046 C 0.10571 0.7144 0.76437 0.0
C1047 C 0.07561 0.70671 0.76568 0.0
C1048 C 0.08643 0.72297 0.76026 0.0
C1049 C 0.97363 0.73632 0.75921 0.0
H1050 H 0.04337 0.75086 0.72084 0.0
C1051 C 0.89139 0.76874 0.72637 0.0
C1052 C 0.92113 0.7765 0.72555 0.0
C1053 C 0.91094 0.76018 0.73033 0.0
C1054 C 0.02377 0.74692 0.7317 0.0
H1055 H 0.00155 0.70197 0.76449 0.0
H1056 H 0.96755 0.71702 0.75709 0.0
H1057 H 0.07502 0.73602 0.7307 0.0
H1058 H -0.00511 0.78136 0.72737 0.0
H1059 H 0.02939 0.7663 0.73443 0.0
H1060 H 0.92232 0.74722 0.76016 0.0
C1061 C 0.00612 0.71641 0.7594 0.0
C1062 C 0.04187 0.73843 0.73738 0.0
C1063 C 0.0255 0.7078 0.76363 0.0
C1064 C 0.97122 0.77548 0.72786 0.0
C1065 C 0.99088 0.76687 0.7319 0.0
C1066 C 0.9555 0.74481 0.75351 0.0
C1067 C 0.0366 0.72404 0.75724 0.0
C1068 C 0.01705 0.73304 0.75123 0.0
C1069 C 0.96068 0.75918 0.73365 0.0
C1070 C 0.98033 0.75019 0.73966 0.0
H1071 H 0.14449 0.71378 0.76608 0.0
H1072 H 0.11073 0.72874 0.75917 0.0
H1073 H 0.95403 0.7324 0.77009 0.0
H1074 H 0.85265 0.7693 0.72444 0.0
H1075 H 0.88691 0.75436 0.73112 0.0
C1076 C 0.64986 0.71675 0.97563 0.0
C1077 C 0.68094 0.7092 0.97694 0.0
C1078 C 0.66654 0.7255 0.97986 0.0
C1079 C 0.75836 0.73707 0.00919 0.0
H1080 H 0.71723 0.75848 0.98014 0.0
C1081 C 0.83773 0.77292 0.02139 0.0
C1082 C 0.80717 0.78052 0.01944 0.0
C1083 C 0.82051 0.76415 0.01776 0.0
C1084 C 0.72834 0.75258 0.98859 0.0
H1085 H 0.75435 0.70488 0.98284 0.0
H1086 H 0.78391 0.72028 0.99019 0.0
H1087 H 0.69447 0.74335 0.96854 0.0
H1088 H 0.734 0.7849 0.01327 0.0
H1089 H 0.70349 0.76947 0.00704 0.0
H1090 H 0.79226 0.74631 0.02925 0.0
C1091 C 0.74643 0.71938 0.98606 0.0
C1092 C 0.71561 0.74391 0.98187 0.0
C1093 C 0.72972 0.7106 0.98167 0.0
C1094 C 0.75827 0.77915 0.0149 0.0
C1095 C 0.74101 0.77034 0.01115 0.0
C1096 C 0.77107 0.74575 0.01593 0.0
C1097 C 0.71468 0.72689 0.98559 0.0
C1098 C 0.73049 0.73607 0.99209 0.0
C1099 C 0.77234 0.76278 0.01205 0.0
C1100 C 0.75623 0.7536 0.00569 0.0
H1101 H 0.61205 0.71587 0.97198 0.0
H1102 H 0.64109 0.73111 0.97951 0.0
H1103 H 0.76955 0.73116 0.0176 0.0
H1104 H 0.87562 0.77377 0.02493 0.0
H1105 H 0.84566 0.7585 0.01846 0.0
C1106 C 0.12871 0.51933 0.75452 0.0
C1107 C 0.15571 0.52658 0.76236 0.0
C1108 C 0.14974 0.51081 0.75164 0.0
C1109 C 0.26634 0.49961 0.74406 0.0
H1110 H 0.19354 0.47764 0.75584 0.0
C1111 C 0.34902 0.46367 0.73825 0.0
C1112 C 0.3203 0.45671 0.73017 0.0
C1113 C 0.32935 0.4722 0.74239 0.0
C1114 C 0.21406 0.48371 0.75226 0.0
H1115 H 0.22585 0.5306 0.7735 0.0
H1116 H 0.26298 0.51557 0.76848 0.0
H1117 H 0.15948 0.49253 0.76386 0.0
H1118 H 0.24855 0.45324 0.71989 0.0
H1119 H 0.21397 0.46827 0.72699 0.0
H1120 H 0.3208 0.49079 0.73235 0.0
C1121 C 0.22548 0.51655 0.76446 0.0
C1122 C 0.19467 0.49223 0.75692 0.0
C1123 C 0.20425 0.52512 0.76743 0.0
C1124 C 0.27148 0.45848 0.72613 0.0
C1125 C 0.25169 0.46705 0.73031 0.0
C1126 C 0.28574 0.49108 0.73939 0.0
C1127 C 0.19834 0.50932 0.75651 0.0
C1128 C 0.22044 0.50027 0.75274 0.0
C1129 C 0.28046 0.47399 0.73853 0.0
C1130 C 0.25969 0.48305 0.74335 0.0
H1131 H 0.09119 0.52023 0.75043 0.0
H1132 H 0.12809 0.50543 0.74519 0.0
H1133 H 0.28672 0.50569 0.7404 0.0
H1134 H 0.38679 0.46251 0.74159 0.0
H1135 H 0.35229 0.47735 0.74896 0.0
C1136 C 0.34736 0.77041 0.51186 0.0
C1137 C 0.31724 0.77809 0.51338 0.0
C1138 C 0.32786 0.76179 0.50849 0.0
C1139 C 0.22189 0.75084 0.48678 0.0
H1140 H 0.27372 0.72903 0.5113 0.0
C1141 C 0.13363 0.71549 0.4795 0.0
C1142 C 0.16373 0.70781 0.47772 0.0
C1143 C 0.15322 0.7241 0.48279 0.0
C1144 C 0.2594 0.73505 0.50412 0.0
H1145 H 0.243 0.78277 0.51332 0.0
H1146 H 0.20854 0.7676 0.50754 0.0
H1147 H 0.30387 0.74398 0.52115 0.0
H1148 H 0.23798 0.70314 0.47727 0.0
H1149 H 0.27259 0.71832 0.48299 0.0
H1150 H 0.17733 0.7419 0.46978 0.0
C1151 C 0.24738 0.7683 0.50874 0.0
C1152 C 0.27644 0.74361 0.50984 0.0
C1153 C 0.26699 0.77695 0.51222 0.0
C1154 C 0.21402 0.70896 0.47857 0.0
C1155 C 0.23371 0.71761 0.482 0.0
C1156 C 0.20482 0.74228 0.48107 0.0
C1157 C 0.27776 0.76066 0.50653 0.0
C1158 C 0.25789 0.7516 0.50122 0.0
C1159 C 0.20338 0.72524 0.48444 0.0
C1160 C 0.22337 0.73429 0.48969 0.0
H1161 H 0.38628 0.77107 0.51273 0.0
H1162 H 0.35226 0.75608 0.50667 0.0
H1163 H 0.20756 0.75685 0.47959 0.0
H1164 H 0.09468 0.71481 0.47887 0.0
H1165 H 0.12888 0.72982 0.48479 0.0
C1166 C 0.88209 0.46609 0.50221 0.0
C1167 C 0.90923 0.45865 0.50914 0.0
C1168 C 0.90247 0.47476 0.5011 0.0
C1169 C 0.00072 0.48907 0.51997 0.0
H1170 H 0.9787 0.50294 0.47222 0.0
C1171 C 0.10772 0.52153 0.5013 0.0
C1172 C 0.08321 0.52883 0.49234 0.0
C1173 C 0.08477 0.51319 0.5042 0.0
C1174 C 0.98456 0.49922 0.48577 0.0
H1175 H 0.97869 0.45447 0.52073 0.0
H1176 H 0.01469 0.46973 0.51872 0.0
H1177 H 0.94304 0.48783 0.47578 0.0
H1178 H 0.01525 0.53316 0.47961 0.0
H1179 H 0.97465 0.51851 0.48486 0.0
H1180 H 0.04231 0.50047 0.52995 0.0
C1181 C 0.97746 0.46881 0.51425 0.0
C1182 C 0.96429 0.49056 0.48778 0.0
C1183 C 0.957 0.46009 0.51533 0.0
C1184 C 0.03501 0.52764 0.48649 0.0
C1185 C 0.01192 0.51925 0.48942 0.0
C1186 C 0.0209 0.49776 0.51798 0.0
C1187 C 0.95048 0.4762 0.50691 0.0
C1188 C 0.97226 0.48539 0.50488 0.0
C1189 C 0.03668 0.51193 0.49825 0.0
C1190 C 0.01324 0.50291 0.50081 0.0
H1191 H 0.84504 0.46522 0.49744 0.0
H1192 H 0.88055 0.48035 0.4957 0.0
H1193 H 0.00688 0.48529 0.53341 0.0
H1194 H 0.14497 0.52223 0.50593 0.0
H1195 H 0.10512 0.50765 0.51073 0.0
C1196 C 0.70614 0.52751 0.26274 0.0
C1197 C 0.65704 0.52879 0.25839 0.0
C1198 C 0.72825 0.51909 0.25905 0.0
C1199 C 0.71314 0.49814 0.22932 0.0
H1200 H 0.80283 0.48762 0.2667 0.0
C1201 C 0.78441 0.46104 0.22343 0.0
C1202 C 0.83385 0.45984 0.22721 0.0
C1203 C 0.76241 0.46948 0.227 0.0
C1204 C 0.77815 0.49051 0.25604 0.0
H1205 H 0.59233 0.52223 0.24718 0.0
H1206 H 0.63052 0.5076 0.24109 0.0
H1207 H 0.7664 0.50243 0.27355 0.0
H1208 H 0.89923 0.46655 0.23732 0.0
H1209 H 0.86107 0.4812 0.24334 0.0
H1210 H 0.72477 0.48619 0.21186 0.0
C1211 C 0.65232 0.51311 0.24694 0.0
C1212 C 0.75741 0.499 0.25995 0.0
C1213 C 0.63037 0.52148 0.25057 0.0
C1214 C 0.86095 0.46724 0.23435 0.0
C1215 C 0.83906 0.47563 0.23794 0.0
C1216 C 0.73379 0.48964 0.22544 0.0
C1217 C 0.70157 0.51182 0.25096 0.0
C1218 C 0.72462 0.50291 0.24664 0.0
C1219 C 0.78952 0.47683 0.23446 0.0
C1220 C 0.76657 0.48575 0.23874 0.0
H1221 H 0.72753 0.53303 0.26874 0.0
H1222 H 0.7664 0.51832 0.26217 0.0
H1223 H 0.68855 0.50104 0.21863 0.0
H1224 H 0.76269 0.45545 0.21795 0.0
H1225 H 0.72404 0.47021 0.22429 0.0
C1226 C 0.78023 0.27681 0.51241 0.0
C1227 C 0.81562 0.28063 0.50019 0.0
C1228 C 0.76153 0.26814 0.50826 0.0
C1229 C 0.7921 0.24721 0.47998 0.0
H1230 H 0.66003 0.24057 0.49217 0.0
C1231 C 0.64631 0.2159 0.46822 0.0
C1232 C 0.6761 0.20838 0.47224 0.0
C1233 C 0.66389 0.22476 0.47016 0.0
C1234 C 0.69688 0.24233 0.4884 0.0
H1235 H 0.85713 0.27877 0.47348 0.0
H1236 H 0.82307 0.26393 0.46574 0.0
H1237 H 0.68697 0.25611 0.49781 0.0
H1238 H 0.7479 0.20414 0.4809 0.0
H1239 H 0.77857 0.21968 0.48496 0.0
H1240 H 0.80148 0.23352 0.46985 0.0
C1241 C 0.81105 0.26736 0.47896 0.0
C1242 C 0.71255 0.25123 0.49195 0.0
C1243 C 0.83025 0.27591 0.48329 0.0
C1244 C 0.72438 0.20985 0.47758 0.0
C1245 C 0.74185 0.21875 0.47987 0.0
C1246 C 0.77626 0.23834 0.47619 0.0
C1247 C 0.77742 0.26325 0.49165 0.0
C1248 C 0.76037 0.25379 0.48779 0.0
C1249 C 0.71145 0.22631 0.47655 0.0
C1250 C 0.72844 0.23578 0.48036 0.0
H1251 H 0.76864 0.28032 0.5256 0.0
H1252 H 0.73597 0.26517 0.51846 0.0
H1253 H 0.82948 0.24887 0.47694 0.0
H1254 H 0.609 0.21494 0.46387 0.0
H1255 H 0.63986 0.23039 0.4669 0.0
C1256 C 0.43109 0.27707 0.73138 0.0
C1257 C 0.38298 0.27821 0.73742 0.0
C1258 C 0.45419 0.26866 0.73389 0.0
C1259 C 0.42954 0.24415 0.74168 0.0
H1260 H 0.56013 0.24368 0.7622 0.0
C1261 C 0.52489 0.21074 0.76567 0.0
C1262 C 0.57317 0.20985 0.75965 0.0
C1263 C 0.50075 0.21907 0.76335 0.0
C1264 C 0.52378 0.2437 0.75631 0.0
H1265 H 0.32116 0.27146 0.75066 0.0
H1266 H 0.36145 0.25688 0.75513 0.0
H1267 H 0.52047 0.25829 0.75641 0.0
H1268 H 0.63403 0.21693 0.74647 0.0
H1269 H 0.59204 0.23131 0.7423 0.0
H1270 H 0.43294 0.22955 0.74154 0.0
C1271 C 0.38124 0.26241 0.74827 0.0
C1272 C 0.50117 0.25207 0.75294 0.0
C1273 C 0.35829 0.27079 0.74582 0.0
C1274 C 0.59685 0.2174 0.75134 0.0
C1275 C 0.57289 0.22568 0.74906 0.0
C1276 C 0.45219 0.23578 0.74504 0.0
C1277 C 0.42946 0.26126 0.74241 0.0
C1278 C 0.45385 0.25238 0.74556 0.0
C1279 C 0.52465 0.22662 0.75504 0.0
C1280 C 0.49962 0.23547 0.75231 0.0
H1281 H 0.4509 0.28268 0.72484 0.0
H1282 H 0.49128 0.26793 0.72907 0.0
H1283 H 0.3932 0.24418 0.73579 0.0
H1284 H 0.50582 0.20501 0.77211 0.0
H1285 H 0.46361 0.21962 0.76822 0.0
C1286 C 0.53018 0.02529 0.4727 0.0
C1287 C 0.57985 0.02653 0.47588 0.0
C1288 C 0.50866 0.01683 0.47658 0.0
C1289 C 0.53791 0.99237 0.48369 0.0
H1290 H 0.41555 0.99169 0.51138 0.0
C1291 C 0.45793 0.95906 0.51584 0.0
C1292 C 0.40856 0.95767 0.51223 0.0
C1293 C 0.47923 0.9675 0.51159 0.0
C1294 C 0.44958 0.99177 0.50351 0.0
H1295 H 0.646 0.0199 0.48541 0.0
H1296 H 0.60856 0.0053 0.49232 0.0
H1297 H 0.45086 0.00637 0.50246 0.0
H1298 H 0.34265 0.96401 0.50158 0.0
H1299 H 0.37969 0.97862 0.49419 0.0
H1300 H 0.5367 0.97777 0.48484 0.0
C1301 C 0.58623 0.01076 0.48661 0.0
C1302 C 0.46966 0.00018 0.49833 0.0
C1303 C 0.60761 0.01916 0.48276 0.0
C1304 C 0.38083 0.96486 0.50455 0.0
C1305 C 0.40195 0.97327 0.50042 0.0
C1306 C 0.51788 0.98397 0.48891 0.0
C1307 C 0.53652 0.00949 0.48364 0.0
C1308 C 0.51409 0.00057 0.48839 0.0
C1309 C 0.45135 0.97468 0.50381 0.0
C1310 C 0.47351 0.98359 0.49887 0.0
H1311 H 0.50798 0.03085 0.46738 0.0
H1312 H 0.47029 0.01602 0.47398 0.0
H1313 H 0.5719 0.99245 0.4758 0.0
H1314 H 0.4801 0.95362 0.52176 0.0
H1315 H 0.51738 0.96843 0.5145 0.0
C1316 C 0.51086 0.7104 0.26172 0.0
C1317 C 0.56043 0.7092 0.26519 0.0
C1318 C 0.49265 0.71907 0.25727 0.0
C1319 C 0.52205 0.74372 0.25936 0.0
H1320 H 0.43634 0.74545 0.21448 0.0
C1321 C 0.47129 0.77844 0.2254 0.0
C1322 C 0.42165 0.77968 0.22218 0.0
C1323 C 0.48954 0.76973 0.22943 0.0
C1324 C 0.46006 0.74507 0.2271 0.0
H1325 H 0.62941 0.71614 0.26772 0.0
H1326 H 0.59782 0.73117 0.26003 0.0
H1327 H 0.46244 0.73048 0.22606 0.0
H1328 H 0.35263 0.77277 0.21947 0.0
H1329 H 0.38433 0.75766 0.22643 0.0
H1330 H 0.51966 0.75831 0.26042 0.0
C1331 C 0.57287 0.72549 0.26075 0.0
C1332 C 0.47473 0.7365 0.23381 0.0
C1333 C 0.591 0.71686 0.26506 0.0
C1334 C 0.39109 0.77202 0.22197 0.0
C1335 C 0.40928 0.76335 0.22586 0.0
C1336 C 0.5074 0.75229 0.25265 0.0
C1337 C 0.52372 0.72667 0.25641 0.0
C1338 C 0.50592 0.73574 0.25 0.0
C1339 C 0.45846 0.76213 0.23012 0.0
C1340 C 0.47624 0.75306 0.23646 0.0
H1341 H 0.48657 0.7046 0.26169 0.0
H1342 H 0.45446 0.71982 0.25421 0.0
H1343 H 0.54573 0.74335 0.272 0.0
H1344 H 0.49558 0.78424 0.22567 0.0
H1345 H 0.52777 0.76897 0.23241 0.0
C1346 C 0.39817 0.46385 0.98712 0.0
C1347 C 0.41871 0.45726 -0.00043 0.0
C1348 C 0.41762 0.4726 0.98601 0.0
C1349 C 0.52722 0.48598 0.99574 0.0
H1350 H 0.43826 0.50646 0.99568 0.0
C1351 C 0.59429 0.52278 0.00306 0.0
C1352 C 0.57404 0.52933 0.99043 0.0
C1353 C 0.57389 0.51413 0.00471 0.0
C1354 C 0.46349 0.50081 0.99547 0.0
H1355 H 0.47632 0.45458 0.02032 0.0
H1356 H 0.51047 0.46997 0.01844 0.0
H1357 H 0.40685 0.49092 -0.0026 0.0
H1358 H 0.51571 0.53208 0.97007 0.0
H1359 H 0.47998 0.51683 0.97281 0.0
H1360 H 0.58385 0.49585 0.99374 0.0
C1361 C 0.47941 0.46832 0.00945 0.0
C1362 C 0.44556 0.49192 -0.00353 0.0
C1363 C 0.45988 0.45952 0.01057 0.0
C1364 C 0.53196 0.52716 0.97994 0.0
C1365 C 0.51152 0.51845 0.98155 0.0
C1366 C 0.54514 0.49486 0.99473 0.0
C1367 C 0.45804 0.47497 -0.00266 0.0
C1368 C 0.47724 0.48441 -0.00341 0.0
C1369 C 0.53286 0.5118 0.99371 0.0
C1370 C 0.51348 0.50238 0.99461 0.0
H1371 H 0.36658 0.46229 0.97835 0.0
H1372 H 0.40093 0.47752 0.97625 0.0
H1373 H 0.55246 0.48033 0.99551 0.0
H1374 H 0.62648 0.52428 0.01151 0.0
H1375 H 0.59053 0.50923 0.01454 0.0
C1376 C 0.1393 0.14931 0.2735 0.0
C1377 C 0.10955 0.15575 0.2828 0.0
C1378 C 0.13715 0.14014 0.27868 0.0
C1379 C 0.05806 0.12295 0.30118 0.0
H1380 H 0.17411 0.10838 0.29523 0.0
C1381 C 0.05081 0.08593 0.27658 0.0
C1382 C 0.08825 0.07982 0.28108 0.0
C1383 C 0.05255 0.09493 0.28306 0.0
C1384 C 0.1414 0.11229 0.29746 0.0
H1385 H 0.05418 0.15766 0.30492 0.0
H1386 H 0.05072 0.14149 0.31429 0.0
H1387 H 0.18005 0.12487 0.2956 0.0
H1388 H 0.15564 0.07817 0.29684 0.0
H1389 H 0.15831 0.09393 0.30868 0.0
H1390 H 0.01947 0.11035 0.30328 0.0
C1391 C 0.07543 0.14357 0.3028 0.0
C1392 C 0.14473 0.12179 0.29734 0.0
C1393 C 0.07733 0.15281 0.29745 0.0
C1394 C 0.12652 0.08277 0.293 0.0
C1395 C 0.12805 0.09181 0.29971 0.0
C1396 C 0.05481 0.11343 0.30164 0.0
C1397 C 0.10557 0.13714 0.29349 0.0
C1398 C 0.10286 0.12723 0.29812 0.0
C1399 C 0.09156 0.09806 0.29444 0.0
C1400 C 0.09615 0.10799 0.29875 0.0
H1401 H 0.16424 0.15133 0.26203 0.0
H1402 H 0.15979 0.13538 0.27072 0.0
H1403 H 0.02508 0.12691 0.30197 0.0
H1404 H 0.02073 0.08387 0.26743 0.0
H1405 H 0.02427 0.09953 0.2783 0.0
C1406 C 0.14056 0.15579 0.94639 0.0
C1407 C 0.10658 0.15853 0.96051 0.0
C1408 C 0.14225 0.14668 0.94013 0.0
C1409 C 0.07247 0.12472 0.9429 0.0
H1410 H 0.19881 0.11378 0.9365 0.0
C1411 C 0.09593 0.08555 0.94199 0.0
C1412 C 0.13496 0.08239 0.95325 0.0
C1413 C 0.09245 0.09482 0.93706 0.0
C1414 C 0.16318 0.11672 0.9383 0.0
H1415 H 0.04816 0.15394 0.97932 0.0
H1416 H 0.05255 0.13815 0.96929 0.0
H1417 H 0.19194 0.13022 0.93952 0.0
H1418 H 0.20123 0.08639 0.96794 0.0
H1419 H 0.1943 0.10239 0.96018 0.0
H1420 H 0.04417 0.11117 0.94349 0.0
C1421 C 0.07669 0.14297 0.96231 0.0
C1422 C 0.15916 0.12619 0.93972 0.0
C1423 C 0.07455 0.15204 0.96829 0.0
C1424 C 0.17073 0.08859 0.95917 0.0
C1425 C 0.16704 0.0978 0.95448 0.0
C1426 C 0.07659 0.11524 0.94189 0.0
C1427 C 0.11041 0.14014 0.9481 0.0
C1428 C 0.11392 0.1303 0.94285 0.0
C1429 C 0.12775 0.10109 0.94348 0.0
C1430 C 0.12223 0.1111 0.94041 0.0
H1431 H 0.16539 0.16069 0.94005 0.0
H1432 H 0.16843 0.14479 0.92904 0.0
H1433 H 0.0368 0.12765 0.9446 0.0
H1434 H 0.06802 0.08089 0.93712 0.0
H1435 H 0.06191 0.09709 0.9284 0.0
C1436 C 0.84369 0.90277 0.7039 0.0
C1437 C 0.87833 0.90624 0.71696 0.0
C1438 C 0.84407 0.89351 0.6988 0.0
C1439 C 0.9209 0.8725 0.70177 0.0
H1440 H 0.79769 0.85998 0.70219 0.0
C1441 C 0.9066 0.83295 0.70145 0.0
C1442 C 0.87201 0.82941 0.71449 0.0
C1443 C 0.90767 0.84232 0.69729 0.0
C1444 C 0.83246 0.86337 0.70204 0.0
H1445 H 0.94058 0.90279 0.73486 0.0
H1446 H 0.94029 0.88674 0.72658 0.0
H1447 H 0.79955 0.87655 0.70313 0.0
H1448 H 0.81216 0.8329 0.73369 0.0
H1449 H 0.81497 0.84909 0.727 0.0
H1450 H 0.95379 0.8593 0.70216 0.0
C1451 C 0.91363 0.89112 0.71974 0.0
C1452 C 0.83349 0.8729 0.70228 0.0
C1453 C 0.91344 0.90033 0.72469 0.0
C1454 C 0.83905 0.83539 0.72344 0.0
C1455 C 0.8403 0.84469 0.71942 0.0
C1456 C 0.91986 0.86297 0.70176 0.0
C1457 C 0.87898 0.88756 0.70676 0.0
C1458 C 0.87775 0.87758 0.70288 0.0
C1459 C 0.87426 0.84829 0.70618 0.0
C1460 C 0.87561 0.8583 0.70264 0.0
H1461 H 0.81644 0.9072 0.69762 0.0
H1462 H 0.81704 0.891 0.68865 0.0
H1463 H 0.95565 0.8759 0.70169 0.0
H1464 H 0.93227 0.82847 0.69428 0.0
H1465 H 0.93427 0.84487 0.68699 0.0
C1466 C 0.87738 0.90652 0.04316 0.0
C1467 C 0.83563 0.91065 0.03555 0.0
C1468 C 0.87871 0.89708 0.04631 0.0
C1469 C 0.80024 0.87623 0.04781 0.0
H1470 H 0.91651 0.86417 0.02965 0.0
C1471 C 0.81764 0.83669 0.04148 0.0
C1472 C 0.84267 0.83356 0.02485 0.0
C1473 C 0.81681 0.84603 0.04596 0.0
C1474 C 0.88365 0.86743 0.0347 0.0
H1475 H 0.7621 0.90819 0.02583 0.0
H1476 H 0.76488 0.89184 0.03069 0.0
H1477 H 0.91527 0.88067 0.0325 0.0
H1478 H 0.8843 0.8377 -0.00063 0.0
H1479 H 0.88148 0.85387 0.00671 0.0
H1480 H 0.76777 0.86297 0.04878 0.0
C1481 C 0.7963 0.89582 0.03471 0.0
C1482 C 0.88321 0.87691 0.03666 0.0
C1483 C 0.79489 0.90522 0.03172 0.0
C1484 C 0.86515 0.83991 0.01242 0.0
C1485 C 0.86397 0.84918 0.01675 0.0
C1486 C 0.80055 0.86674 0.04566 0.0
C1487 C 0.83841 0.89159 0.04178 0.0
C1488 C 0.84108 0.88146 0.04271 0.0
C1489 C 0.84078 0.85236 0.03379 0.0
C1490 C 0.84184 0.86226 0.03851 0.0
H1491 H 0.9092 0.91056 0.04637 0.0
H1492 H 0.91154 0.89406 0.05203 0.0
H1493 H 0.76746 0.87949 0.05292 0.0
H1494 H 0.80024 0.83191 0.05136 0.0
H1495 H 0.79862 0.84825 0.0592 0.0
C1496 C 0.05888 0.58405 0.78376 0.0
C1497 C 0.09646 0.57803 0.78871 0.0
C1498 C 0.06133 0.59323 0.78885 0.0
C1499 C 0.15105 0.61096 0.7996 0.0
H1500 H 0.03511 0.62566 0.80471 0.0
C1501 C 0.14652 0.6476 0.7728 0.0
C1502 C 0.11849 0.65421 0.78243 0.0
C1503 C 0.1444 0.63849 0.77846 0.0
C1504 C 0.06801 0.62168 0.8037 0.0
H1505 H 0.16507 0.57682 0.80377 0.0
H1506 H 0.1691 0.59294 0.81311 0.0
H1507 H 0.02988 0.60914 0.80777 0.0
H1508 H 0.06599 0.65648 0.80553 0.0
H1509 H 0.06257 0.64041 0.8157 0.0
H1510 H 0.18925 0.6235 0.79574 0.0
C1511 C 0.13809 0.59056 0.80489 0.0
C1512 C 0.06495 0.61219 0.80519 0.0
C1513 C 0.1358 0.58133 0.79961 0.0
C1514 C 0.08779 0.6515 0.7978 0.0
C1515 C 0.08592 0.64232 0.80361 0.0
C1516 C 0.1542 0.62045 0.79841 0.0
C1517 C 0.10124 0.59666 0.79924 0.0
C1518 C 0.10606 0.60669 0.8022 0.0
C1519 C 0.11459 0.63572 0.79407 0.0
C1520 C 0.11239 0.62589 0.79946 0.0
H1521 H 0.02799 0.58173 0.77537 0.0
H1522 H 0.03273 0.5977 0.78382 0.0
H1523 H 0.18354 0.607 0.79724 0.0
H1524 H 0.17023 0.64945 0.76078 0.0
H1525 H 0.1658 0.63359 0.77033 0.0
C1526 C 0.1532 0.65244 0.44785 0.0
C1527 C 0.12131 0.65524 0.46273 0.0
C1528 C 0.15601 0.64321 0.44253 0.0
C1529 C 0.08918 0.62121 0.44833 0.0
H1530 H 0.21502 0.61018 0.44092 0.0
C1531 C 0.11045 0.58219 0.44979 0.0
C1532 C 0.14967 0.5791 0.46102 0.0
C1533 C 0.10786 0.59135 0.44394 0.0
C1534 C 0.17954 0.61315 0.44298 0.0
H1535 H 0.06828 0.65061 0.48399 0.0
H1536 H 0.07433 0.63466 0.47534 0.0
H1537 H 0.20815 0.62671 0.44292 0.0
H1538 H 0.21761 0.58304 0.47443 0.0
H1539 H 0.21225 0.59892 0.46509 0.0
H1540 H 0.06095 0.6077 0.4501 0.0
C1541 C 0.09597 0.63952 0.46719 0.0
C1542 C 0.17555 0.62265 0.44384 0.0
C1543 C 0.0929 0.64868 0.47233 0.0
C1544 C 0.18686 0.58522 0.46577 0.0
C1545 C 0.18404 0.59434 0.46017 0.0
C1546 C 0.09325 0.61172 0.44779 0.0
C1547 C 0.12714 0.63665 0.4521 0.0
C1548 C 0.13054 0.62677 0.44735 0.0
C1549 C 0.1442 0.59758 0.44943 0.0
C1550 C 0.13875 0.60756 0.44591 0.0
H1551 H 0.17533 0.65738 0.44015 0.0
H1552 H 0.18036 0.64123 0.43083 0.0
H1553 H 0.0537 0.62417 0.45044 0.0
H1554 H 0.0815 0.57759 0.44576 0.0
H1555 H 0.07698 0.59356 0.43543 0.0
C1556 C 0.90172 0.33442 0.19842 0.0
C1557 C 0.86549 0.3316 0.21152 0.0
C1558 C 0.90398 0.34354 0.19221 0.0
C1559 C 0.83286 0.36537 0.19293 0.0
H1560 H 0.95948 0.37657 0.1915 0.0
C1561 C 0.85446 0.40461 0.19251 0.0
C1562 C 0.89132 0.40794 0.20471 0.0
C1563 C 0.85219 0.39529 0.18794 0.0
C1564 C 0.92376 0.37357 0.19194 0.0
H1565 H 0.80327 0.33606 0.22837 0.0
H1566 H 0.80833 0.35184 0.21839 0.0
H1567 H 0.95287 0.3601 0.19389 0.0
H1568 H 0.95462 0.40419 0.22166 0.0
H1569 H 0.94952 0.38808 0.21455 0.0
H1570 H 0.80375 0.37886 0.19276 0.0
C1571 C 0.83408 0.34707 0.21221 0.0
C1572 C 0.91997 0.36408 0.19297 0.0
C1573 C 0.83151 0.338 0.21816 0.0
C1574 C 0.92591 0.40184 0.21211 0.0
C1575 C 0.92329 0.39257 0.2078 0.0
C1576 C 0.83665 0.37487 0.1923 0.0
C1577 C 0.87032 0.35 0.19918 0.0
C1578 C 0.87445 0.35987 0.19427 0.0
C1579 C 0.88641 0.38914 0.19569 0.0
C1580 C 0.88219 0.37911 0.19258 0.0
H1581 H 0.92817 0.3296 0.19296 0.0
H1582 H 0.93215 0.34552 0.18203 0.0
H1583 H 0.79713 0.36237 0.19325 0.0
H1584 H 0.82755 0.40919 0.1865 0.0
H1585 H 0.82355 0.39292 0.17839 0.0
C1586 C 0.91921 0.3358 0.53641 0.0
C1587 C 0.87889 0.33005 0.53835 0.0
C1588 C 0.91571 0.34506 0.54069 0.0
C1589 C 0.82379 0.36318 0.54252 0.0
H1590 H 0.93683 0.37789 0.5539 0.0
C1591 C 0.83837 0.39948 0.51395 0.0
C1592 C 0.86292 0.40618 0.52474 0.0
C1593 C 0.8388 0.39042 0.52002 0.0
C1594 C 0.90457 0.37393 0.55106 0.0
H1595 H 0.80413 0.32935 0.54762 0.0
H1596 H 0.79821 0.34557 0.5558 0.0
H1597 H 0.93958 0.36149 0.5592 0.0
H1598 H 0.90751 0.4087 0.5503 0.0
H1599 H 0.90747 0.39276 0.56132 0.0
H1600 H 0.7884 0.37561 0.53484 0.0
C1601 C 0.83227 0.34296 0.55037 0.0
C1602 C 0.90633 0.36448 0.55384 0.0
C1603 C 0.83564 0.33366 0.5458 0.0
C1604 C 0.88856 0.40363 0.54166 0.0
C1605 C 0.88846 0.39451 0.54794 0.0
C1606 C 0.82175 0.37262 0.54011 0.0
C1607 C 0.87191 0.34883 0.5473 0.0
C1608 C 0.86671 0.35893 0.5487 0.0
C1609 C 0.86311 0.38781 0.53727 0.0
C1610 C 0.86282 0.37807 0.54342 0.0
H1611 H 0.95315 0.33323 0.53072 0.0
H1612 H 0.94684 0.34932 0.53774 0.0
H1613 H 0.79247 0.3592 0.53836 0.0
H1614 H 0.8187 0.40124 0.50073 0.0
H1615 H 0.82028 0.38544 0.51101 0.0
C1616 C 0.59637 0.08943 0.7628 0.0
C1617 C 0.62472 0.08281 0.77222 0.0
C1618 C 0.59759 0.09848 0.76887 0.0
C1619 C 0.67156 0.11517 0.7958 0.0
H1620 H 0.55564 0.12969 0.78886 0.0
C1621 C 0.67999 0.1531 0.77859 0.0
C1622 C 0.64155 0.15894 0.78334 0.0
C1623 C 0.6777 0.14384 0.78306 0.0
C1624 C 0.58819 0.12577 0.79137 0.0
H1625 H 0.67677 0.08044 0.79541 0.0
H1626 H 0.6784 0.09638 0.80642 0.0
H1627 H 0.55111 0.11322 0.78623 0.0
H1628 H 0.57153 0.15979 0.79745 0.0
H1629 H 0.56778 0.14354 0.80573 0.0
H1630 H 0.70849 0.12773 0.80126 0.0
C1631 C 0.65565 0.09455 0.79411 0.0
C1632 C 0.58576 0.1163 0.78951 0.0
C1633 C 0.65481 0.08544 0.78782 0.0
C1634 C 0.60148 0.15541 0.79345 0.0
C1635 C 0.59935 0.1461 0.79813 0.0
C1636 C 0.67386 0.12465 0.798 0.0
C1637 C 0.62669 0.10117 0.78477 0.0
C1638 C 0.62782 0.11093 0.79072 0.0
C1639 C 0.6371 0.14017 0.79262 0.0
C1640 C 0.63266 0.1301 0.79484 0.0
H1641 H 0.57314 0.08761 0.7506 0.0
H1642 H 0.57603 0.1034 0.76087 0.0
H1643 H 0.70466 0.11127 0.79697 0.0
H1644 H 0.71145 0.1556 0.7708 0.0
H1645 H 0.70704 0.13951 0.77817 0.0
C1646 C 0.60789 0.14906 0.47473 0.0
C1647 C 0.63447 0.15543 0.46375 0.0
C1648 C 0.60887 0.13984 0.4699 0.0
C1649 C 0.67841 0.12239 0.44309 0.0
H1650 H 0.56142 0.10844 0.45219 0.0
C1651 C 0.68249 0.08402 0.45767 0.0
C1652 C 0.64278 0.07851 0.45278 0.0
C1653 C 0.68119 0.0934 0.45446 0.0
C1654 C 0.59421 0.11221 0.44914 0.0
H1655 H 0.68354 0.15716 0.43924 0.0
H1656 H 0.68475 0.14092 0.43046 0.0
H1657 H 0.55938 0.12493 0.45481 0.0
H1658 H 0.57129 0.07843 0.43986 0.0
H1659 H 0.5693 0.09489 0.43373 0.0
H1660 H 0.71304 0.10965 0.43707 0.0
C1661 C 0.66354 0.14309 0.44299 0.0
C1662 C 0.59325 0.12169 0.45098 0.0
C1663 C 0.66293 0.15237 0.448 0.0
C1664 C 0.60226 0.08254 0.44392 0.0
C1665 C 0.60113 0.09196 0.44049 0.0
C1666 C 0.67924 0.1129 0.44098 0.0
C1667 C 0.63596 0.13674 0.45377 0.0
C1668 C 0.63573 0.12686 0.44875 0.0
C1669 C 0.64033 0.09753 0.44603 0.0
C1670 C 0.63757 0.10766 0.44471 0.0
H1671 H 0.58599 0.15121 0.48709 0.0
H1672 H 0.58844 0.13514 0.47894 0.0
H1673 H 0.71177 0.12615 0.44119 0.0
H1674 H 0.71427 0.08114 0.46457 0.0
H1675 H 0.71166 0.09744 0.45933 0.0
C1676 C 0.35931 0.90576 0.203 0.0
C1677 C 0.39898 0.90898 0.2138 0.0
C1678 C 0.35781 0.89666 0.19673 0.0
C1679 C 0.43303 0.87534 0.1935 0.0
H1680 H 0.31048 0.86345 0.20344 0.0
C1681 C 0.41225 0.8358 0.19673 0.0
C1682 C 0.38273 0.83268 0.21211 0.0
C1683 C 0.41383 0.84513 0.19211 0.0
C1684 C 0.34504 0.86666 0.20061 0.0
H1685 H 0.46895 0.90534 0.22584 0.0
H1686 H 0.46563 0.88956 0.21569 0.0
H1687 H 0.31467 0.87997 0.20343 0.0
H1688 H 0.33326 0.83683 0.23516 0.0
H1689 H 0.33724 0.85294 0.22766 0.0
H1690 H 0.46398 0.86196 0.19231 0.0
C1691 C 0.43611 0.894 0.21151 0.0
C1692 C 0.34731 0.87617 0.20027 0.0
C1693 C 0.43777 0.90306 0.21757 0.0
C1694 C 0.35597 0.83902 0.22307 0.0
C1695 C 0.35782 0.84827 0.21861 0.0
C1696 C 0.43088 0.86581 0.19413 0.0
C1697 C 0.39579 0.89061 0.2013 0.0
C1698 C 0.3917 0.88064 0.1975 0.0
C1699 C 0.38607 0.85145 0.20288 0.0
C1700 C 0.38719 0.86138 0.19851 0.0
H1701 H 0.32911 0.91021 0.19973 0.0
H1702 H 0.32648 0.89433 0.18866 0.0
H1703 H 0.46762 0.87856 0.19078 0.0
H1704 H 0.43306 0.83104 0.18799 0.0
H1705 H 0.43603 0.84737 0.17992 0.0
C1706 C 0.30757 0.90103 0.54075 0.0
C1707 C 0.34815 0.90666 0.54331 0.0
C1708 C 0.30999 0.89175 0.54492 0.0
C1709 C 0.39966 0.87337 0.54676 0.0
H1710 H 0.28537 0.85896 0.55804 0.0
C1711 C 0.38103 0.83736 0.51718 0.0
C1712 C 0.35801 0.83059 0.52835 0.0
C1713 C 0.38072 0.84641 0.52332 0.0
C1714 C 0.31792 0.86285 0.55521 0.0
H1715 H 0.42222 0.9071 0.55351 0.0
H1716 H 0.42634 0.8908 0.56128 0.0
H1717 H 0.28414 0.87537 0.56365 0.0
H1718 H 0.31573 0.82795 0.55452 0.0
H1719 H 0.31564 0.8439 0.56555 0.0
H1720 H 0.43362 0.86086 0.53854 0.0
C1721 C 0.39287 0.89356 0.55558 0.0
C1722 C 0.31707 0.87229 0.55821 0.0
C1723 C 0.39053 0.9029 0.55123 0.0
C1724 C 0.3335 0.83307 0.5456 0.0
C1725 C 0.33359 0.84218 0.5519 0.0
C1726 C 0.40071 0.86394 0.54405 0.0
C1727 C 0.35297 0.88783 0.55196 0.0
C1728 C 0.35722 0.87771 0.55315 0.0
C1729 C 0.35793 0.84893 0.54095 0.0
C1730 C 0.35916 0.85862 0.54735 0.0
H1731 H 0.27424 0.90372 0.53475 0.0
H1732 H 0.27875 0.88758 0.54159 0.0
H1733 H 0.4313 0.87728 0.54266 0.0
H1734 H 0.39981 0.83565 0.5037 0.0
H1735 H 0.39839 0.85144 0.51415 0.0
C1736 C 0.63112 0.64998 0.27027 0.0
C1737 C 0.60269 0.6564 0.28027 0.0
C1738 C 0.62989 0.64081 0.27553 0.0
C1739 C 0.5564 0.6235 0.30075 0.0
H1740 H 0.67397 0.60946 0.29381 0.0
C1741 C 0.55276 0.58575 0.28135 0.0
C1742 C 0.59148 0.57998 0.28621 0.0
C1743 C 0.55383 0.59496 0.28628 0.0
C1744 C 0.64094 0.61324 0.29631 0.0
H1745 H 0.55023 0.65829 0.30353 0.0
H1746 H 0.54843 0.64213 0.31304 0.0
H1747 H 0.67709 0.62597 0.29224 0.0
H1748 H 0.66067 0.57923 0.30096 0.0
H1749 H 0.66226 0.5954 0.31004 0.0
H1750 H 0.52035 0.61075 0.30507 0.0
C1751 C 0.57137 0.64422 0.30096 0.0
C1752 C 0.64259 0.62274 0.29506 0.0
C1753 C 0.57229 0.65345 0.29552 0.0
C1754 C 0.63054 0.58354 0.29688 0.0
C1755 C 0.63144 0.5928 0.302 0.0
C1756 C 0.55485 0.61399 0.30229 0.0
C1757 C 0.60065 0.63781 0.29112 0.0
C1758 C 0.6 0.62795 0.29632 0.0
C1759 C 0.59345 0.59866 0.29641 0.0
C1760 C 0.59673 0.60872 0.29917 0.0
H1761 H 0.65458 0.65204 0.25832 0.0
H1762 H 0.65169 0.63606 0.26717 0.0
H1763 H 0.52293 0.62729 0.30192 0.0
H1764 H 0.52206 0.58321 0.27313 0.0
H1765 H 0.52437 0.59924 0.28131 0.0
C1766 C 0.66934 0.65305 0.94897 0.0
C1767 C 0.64419 0.65608 0.96566 0.0
C1768 C 0.66897 0.64377 0.94391 0.0
C1769 C 0.59914 0.62254 0.95394 0.0
H1770 H 0.715 0.61008 0.93671 0.0
C1771 C 0.60379 0.58341 0.95068 0.0
C1772 C 0.64532 0.57956 0.9591 0.0
C1773 C 0.60304 0.59268 0.94559 0.0
C1774 C 0.68227 0.61345 0.94152 0.0
H1775 H 0.60121 0.65182 0.99067 0.0
H1776 H 0.60209 0.63576 0.98238 0.0
H1777 H 0.71577 0.62662 0.94037 0.0
H1778 H 0.71928 0.58224 0.96796 0.0
H1779 H 0.71746 0.59829 0.95989 0.0
H1780 H 0.56662 0.60942 0.9566 0.0
C1781 C 0.62047 0.64048 0.97268 0.0
C1782 C 0.68259 0.62296 0.94339 0.0
C1783 C 0.62045 0.64969 0.97758 0.0
C1784 C 0.6866 0.58501 0.96155 0.0
C1785 C 0.68573 0.59423 0.95667 0.0
C1786 C 0.599 0.61306 0.95234 0.0
C1787 C 0.64368 0.63741 0.95556 0.0
C1788 C 0.64155 0.62757 0.95037 0.0
C1789 C 0.64367 0.59826 0.94901 0.0
C1790 C 0.6411 0.60836 0.94681 0.0
H1791 H 0.68768 0.65787 0.93949 0.0
H1792 H 0.68731 0.64162 0.93064 0.0
H1793 H 0.56641 0.62591 0.95879 0.0
H1794 H 0.57161 0.57934 0.94845 0.0
H1795 H 0.57025 0.59551 0.93942 0.0
C1796 C 0.32057 0.40206 0.69186 0.0
C1797 C 0.36178 0.40493 0.70217 0.0
C1798 C 0.31452 0.39284 0.68702 0.0
C1799 C 0.38063 0.37043 0.68665 0.0
H1800 H 0.25322 0.36046 0.69615 0.0
C1801 C 0.35243 0.33164 0.69607 0.0
C1802 C 0.32045 0.32916 0.71116 0.0
C1803 C 0.35426 0.34068 0.68942 0.0
C1804 C 0.28915 0.36312 0.69354 0.0
H1805 H 0.4293 0.40044 0.71517 0.0
H1806 H 0.41805 0.38451 0.70758 0.0
H1807 H 0.26388 0.37687 0.69473 0.0
H1808 H 0.26534 0.33412 0.73112 0.0
H1809 H 0.27009 0.34982 0.72039 0.0
H1810 H 0.40669 0.35674 0.68729 0.0
C1811 C 0.39093 0.3893 0.70256 0.0
C1812 C 0.29512 0.37256 0.69236 0.0
C1813 C 0.39716 0.39847 0.70715 0.0
C1814 C 0.2902 0.33582 0.71937 0.0
C1815 C 0.29254 0.34484 0.713 0.0
C1816 C 0.37484 0.361 0.68825 0.0
C1817 C 0.34939 0.38631 0.69258 0.0
C1818 C 0.3413 0.37636 0.68972 0.0
C1819 C 0.32463 0.34742 0.69797 0.0
C1820 C 0.32932 0.35723 0.69252 0.0
H1821 H 0.29289 0.40692 0.68772 0.0
H1822 H 0.2823 0.39081 0.67914 0.0
H1823 H 0.41652 0.37309 0.68395 0.0
H1824 H 0.37583 0.32659 0.68937 0.0
H1825 H 0.37902 0.34238 0.67766 0.0
C1826 C 0.40632 0.40279 0.03396 0.0
C1827 C 0.36204 0.40744 0.03329 0.0
C1828 C 0.40789 0.39364 0.03983 0.0
C1829 C 0.32801 0.37367 0.0401 0.0
H1830 H 0.43604 0.36187 0.06589 0.0
C1831 C 0.34051 0.33456 0.04408 0.0
C1832 C 0.38527 0.33113 0.0378 0.0
C1833 C 0.33561 0.34381 0.04883 0.0
C1834 C 0.40554 0.36508 0.05871 0.0
H1835 H 0.28551 0.4065 0.03983 0.0
H1836 H 0.28842 0.39067 0.05051 0.0
H1837 H 0.43218 0.37852 0.06472 0.0
H1838 H 0.46051 0.33453 0.03257 0.0
H1839 H 0.45187 0.35057 0.04056 0.0
H1840 H 0.30223 0.3603 0.03342 0.0
C1841 C 0.32168 0.39394 0.04594 0.0
C1842 C 0.40341 0.37461 0.05801 0.0
C1843 C 0.32005 0.40302 0.03989 0.0
C1844 C 0.42542 0.33699 0.03725 0.0
C1845 C 0.4206 0.34618 0.04203 0.0
C1846 C 0.33014 0.36417 0.04081 0.0
C1847 C 0.36524 0.38904 0.0453 0.0
C1848 C 0.36514 0.379 0.0483 0.0
C1849 C 0.37546 0.34975 0.04747 0.0
C1850 C 0.36952 0.35976 0.04968 0.0
H1851 H 0.43919 0.40606 0.02894 0.0
H1852 H 0.44202 0.39004 0.03905 0.0
H1853 H 0.29839 0.37682 0.03222 0.0
H1854 H 0.30904 0.33018 0.04474 0.0
H1855 H 0.30044 0.34635 0.05316 0.0
C1856 C 0.92807 0.04314 0.28554 0.0
C1857 C 0.97691 0.04335 0.29104 0.0
C1858 C 0.89267 0.0407 0.29924 0.0
C1859 C 0.87519 0.03103 0.34951 0.0
H1860 H 0.77059 0.04858 0.35207 0.0
C1861 C 0.77754 0.04116 0.42094 0.0
C1862 C 0.72772 0.04288 0.42003 0.0
C1863 C 0.80324 0.03905 0.40386 0.0
C1864 C 0.79901 0.0435 0.35138 0.0
H1865 H 0.02745 0.04065 0.3147 0.0
H1866 H 0.96613 0.0366 0.33855 0.0
H1867 H 0.82353 0.04842 0.32361 0.0
H1868 H 0.66525 0.04335 0.40077 0.0
H1869 H 0.71016 0.03971 0.37103 0.0
H1870 H 0.85189 0.02646 0.3779 0.0
C1871 C 0.95481 0.03818 0.3237 0.0
C1872 C 0.82927 0.04339 0.33501 0.0
C1873 C 0.99001 0.0406 0.31006 0.0
C1874 C 0.70376 0.04213 0.40191 0.0
C1875 C 0.7294 0.04006 0.38487 0.0
C1876 C 0.84508 0.03119 0.36597 0.0
C1877 C 0.90566 0.03842 0.31862 0.0
C1878 C 0.86856 0.03733 0.33415 0.0
C1879 C 0.77949 0.03866 0.38562 0.0
C1880 C 0.8075 0.03759 0.36726 0.0
H1881 H 0.91707 0.04517 0.2709 0.0
H1882 H 0.85509 0.04084 0.29482 0.0
H1883 H 0.90467 0.02617 0.34912 0.0
H1884 H 0.79684 0.04166 0.43474 0.0
H1885 H 0.84197 0.0381 0.40481 0.0
C1886 C 0.22243 0.1885 0.32816 0.0
C1887 C 0.23567 0.18765 0.30833 0.0
C1888 C 0.25761 0.18941 0.34265 0.0
C1889 C 0.38409 0.18389 0.35223 0.0
H1890 H 0.36636 0.19954 0.39762 0.0
C1891 C 0.52836 0.18693 0.4123 0.0
C1892 C 0.51206 0.18655 0.43183 0.0
C1893 C 0.49565 0.18794 0.39692 0.0
C1894 C 0.37157 0.1951 0.38509 0.0
H1895 H 0.29589 0.18737 0.28796 0.0
H1896 H 0.3577 0.18902 0.31338 0.0
H1897 H 0.30794 0.20005 0.37076 0.0
H1898 H 0.44896 0.18708 0.45066 0.0
H1899 H 0.3914 0.18874 0.42363 0.0
H1900 H 0.44723 0.17884 0.36662 0.0
C1901 C 0.32004 0.18887 0.3177 0.0
C1902 C 0.33825 0.1954 0.36972 0.0
C1903 C 0.28473 0.18797 0.30317 0.0
C1904 C 0.46245 0.18735 0.43573 0.0
C1905 C 0.42961 0.18835 0.42029 0.0
C1906 C 0.41737 0.1836 0.36757 0.0
C1907 C 0.30679 0.1895 0.3376 0.0
C1908 C 0.34395 0.18973 0.35322 0.0
C1909 C 0.44593 0.18856 0.40072 0.0
C1910 C 0.41126 0.18914 0.38423 0.0
H1911 H 0.18484 0.18828 0.33258 0.0
H1912 H 0.24629 0.18976 0.35786 0.0
H1913 H 0.38899 0.17933 0.33988 0.0
H1914 H 0.56646 0.1864 0.40885 0.0
H1915 H 0.50935 0.18822 0.38202 0.0
C1916 C 0.79779 0.19594 0.80097 0.0
C1917 C 0.74895 0.19451 0.80558 0.0
C1918 C 0.831 0.19789 0.81583 0.0
C1919 C 0.84117 0.20443 0.86852 0.0
H1920 H 0.95709 0.18961 0.8665 0.0
C1921 C 0.95268 0.19416 0.93668 0.0
C1922 C 0.00307 0.19371 0.93461 0.0
C1923 C 0.92365 0.19619 0.92046 0.0
C1924 C 0.92536 0.19392 0.86715 0.0
H1925 H 0.69602 0.19441 0.8291 0.0
H1926 H 0.75387 0.19761 0.85498 0.0
H1927 H 0.9031 0.18993 0.83841 0.0
H1928 H 0.06286 0.19548 0.91431 0.0
H1929 H 0.01227 0.19905 0.88613 0.0
H1930 H 0.86282 0.20811 0.89768 0.0
C1931 C 0.76664 0.19737 0.83995 0.0
C1932 C 0.89445 0.19413 0.85102 0.0
C1933 C 0.73352 0.19545 0.82512 0.0
C1934 C 0.02404 0.19569 0.9163 0.0
C1935 C -0.00487 0.19771 0.90015 0.0
C1936 C 0.87205 0.20419 0.88473 0.0
C1937 C 0.81589 0.19843 0.83553 0.0
C1938 C 0.85155 0.19924 0.85165 0.0
C1939 C 0.94463 0.19779 0.90196 0.0
C1940 C 0.91401 0.19881 0.8843 0.0
H1941 H 0.81055 0.19533 0.78598 0.0
H1942 H 0.86865 0.1988 0.81195 0.0
H1943 H 0.80869 0.20853 0.86933 0.0
H1944 H 0.93564 0.19269 0.95066 0.0
H1945 H 0.88476 0.19613 0.92223 0.0
C1946 C 0.29821 0.04758 0.93336 0.0
C1947 C 0.24874 0.04843 0.92926 0.0
C1948 C 0.33129 0.04634 0.91809 0.0
C1949 C 0.34157 0.04054 0.86512 0.0
H1950 H 0.45417 0.05624 0.86754 0.0
C1951 C 0.45875 0.04995 0.79755 0.0
C1952 C 0.5089 0.0503 0.80049 0.0
C1953 C 0.42768 0.04852 0.81347 0.0
C1954 C 0.42327 0.05171 0.86675 0.0
H1955 H 0.19473 0.04828 0.90617 0.0
H1956 H 0.25235 0.04629 0.87957 0.0
H1957 H 0.39941 0.05553 0.89541 0.0
H1958 H 0.56607 0.0491 0.82217 0.0
H1959 H 0.51203 0.04657 0.84978 0.0
H1960 H 0.3651 0.03693 0.83614 0.0
C1961 C 0.26571 0.04645 0.89452 0.0
C1962 C 0.39198 0.05128 0.88276 0.0
C1963 C 0.23271 0.04766 0.90976 0.0
C1964 C 0.52751 0.04895 0.81947 0.0
C1965 C 0.4966 0.04753 0.8353 0.0
C1966 C 0.37287 0.041 0.84904 0.0
C1967 C 0.31543 0.04596 0.89847 0.0
C1968 C 0.35057 0.04576 0.88207 0.0
C1969 C 0.44638 0.04743 0.83253 0.0
C1970 C 0.41383 0.04664 0.84968 0.0
H1971 H 0.31148 0.04808 0.94828 0.0
H1972 H 0.36936 0.04585 0.9216 0.0
H1973 H 0.3102 0.03614 0.86425 0.0
H1974 H 0.44351 0.05096 0.78305 0.0
H1975 H 0.38904 0.04855 0.81095 0.0
C1976 C 0.26955 0.94498 0.58341 0.0
C1977 C 0.24926 0.94254 0.56525 0.0
C1978 C 0.23999 0.94695 0.59942 0.0
C1979 C 0.11462 0.95203 0.61453 0.0
H1980 H 0.14893 0.9381 0.66095 0.0
C1981 C 0.97601 0.94114 0.6722 0.0
C1982 C 0.98963 0.94065 0.69203 0.0
C1983 C 0.00979 0.94335 0.65782 0.0
C1984 C 0.1393 0.9422 0.64832 0.0
H1985 H 0.18231 0.94073 0.54922 0.0
H1986 H 0.1304 0.94407 0.57736 0.0
H1987 H 0.20434 0.93864 0.63328 0.0
H1988 H 0.04883 0.94237 0.71252 0.0
H1989 H 0.10827 0.9463 0.68726 0.0
H1990 H 0.04888 0.95537 0.62943 0.0
C1991 C 0.1692 0.94453 0.57915 0.0
C1992 C 0.17103 0.94251 0.63243 0.0
C1993 C 0.19885 0.94256 0.56308 0.0
C1994 C 0.0375 0.94263 0.6973 0.0
C1995 C 0.07144 0.94487 0.68287 0.0
C1996 C 0.08292 0.95176 0.63047 0.0
C1997 C 0.18956 0.94651 0.59759 0.0
C1998 C 0.15849 0.94724 0.6152 0.0
C1999 C 0.05798 0.94516 0.66295 0.0
C2000 C 0.09439 0.94663 0.64732 0.0
H2001 H 0.30836 0.94511 0.58544 0.0
H2002 H 0.25662 0.94858 0.61339 0.0
H2003 H 0.10441 0.95583 0.60153 0.0
H2004 H 0.93931 0.93966 0.66769 0.0
H2005 H -0.00158 0.94335 0.6426 0.0
C2006 C 0.70865 0.79721 0.68342 0.0
C2007 C 0.75859 0.79785 0.68015 0.0
C2008 C 0.67688 0.79648 0.66756 0.0
C2009 C 0.66866 0.80191 0.61508 0.0
H2010 H 0.55646 0.78608 0.61656 0.0
C2011 C 0.5371 0.79896 0.54973 0.0
C2012 C 0.48792 0.79938 0.55468 0.0
C2013 C 0.57194 0.79786 0.56438 0.0
C2014 C 0.58755 0.79057 0.61599 0.0
H2015 H 0.81471 0.79798 0.65787 0.0
H2016 H 0.75935 0.79663 0.63026 0.0
H2017 H 0.6139 0.78584 0.64375 0.0
H2018 H 0.43643 0.79885 0.57871 0.0
H2019 H 0.49707 0.79703 0.60422 0.0
H2020 H 0.64196 0.80676 0.58752 0.0
C2021 C 0.74464 0.79683 0.64501 0.0
C2022 C 0.62034 0.79043 0.63155 0.0
C2023 C 0.77632 0.79756 0.66083 0.0
C2024 C 0.4741 0.79854 0.57445 0.0
C2025 C 0.50881 0.79743 0.58906 0.0
C2026 C 0.63589 0.80205 0.59954 0.0
C2027 C 0.6946 0.79639 0.6482 0.0
C2028 C 0.66095 0.79617 0.63133 0.0
C2029 C 0.55808 0.79713 0.5842 0.0
C2030 C 0.59472 0.79645 0.59995 0.0
H2031 H 0.69405 0.79743 0.69818 0.0
H2032 H 0.63841 0.79625 0.67044 0.0
H2033 H 0.6993 0.80651 0.61464 0.0
H2034 H 0.54868 0.79956 0.53457 0.0
H2035 H 0.60968 0.79757 0.56022 0.0
C2036 C 0.27191 0.80172 0.16019 0.0
C2037 C 0.25641 0.80231 0.1798 0.0
C2038 C 0.23838 0.80123 0.14498 0.0
C2039 C 0.11112 0.79596 0.13402 0.0
H2040 H 0.13348 0.81126 0.08838 0.0
C2041 C 0.96354 0.80376 0.07713 0.0
C2042 C 0.97679 0.8038 0.05721 0.0
C2043 C -0.0014 0.80296 0.0917 0.0
C2044 C 0.1271 0.80685 0.1009 0.0
H2045 H 0.19386 0.80267 0.19897 0.0
H2046 H 0.135 0.80192 0.17227 0.0
H2047 H 0.19276 0.81096 0.11481 0.0
H2048 H 0.03687 0.80296 0.03684 0.0
H2049 H 0.09841 0.80153 0.06243 0.0
H2050 H 0.04508 0.79195 0.12017 0.0
C2051 C 0.17313 0.80174 0.16871 0.0
C2052 C 0.161 0.80668 0.11603 0.0
C2053 C 0.20675 0.80222 0.18396 0.0
C2054 C 0.02573 0.80298 0.05211 0.0
C2055 C 0.06089 0.8022 0.06672 0.0
C2056 C 0.07718 0.79613 0.11888 0.0
C2057 C 0.18866 0.80133 0.14906 0.0
C2058 C 0.15322 0.80127 0.1328 0.0
C2059 C 0.04761 0.80219 0.08666 0.0
C2060 C 0.08469 0.80163 0.10224 0.0
H2061 H 0.31001 0.80172 0.15656 0.0
H2062 H 0.25142 0.80077 0.13001 0.0
H2063 H 0.10453 0.79162 0.14664 0.0
H2064 H 0.92606 0.8044 0.0815 0.0
H2065 H 0.98736 0.80312 0.10695 0.0
C2066 C 0.69925 0.94766 0.06736 0.0
C2067 C 0.74941 0.94632 0.06821 0.0
C2068 C 0.67332 0.94966 0.08445 0.0
C2069 C 0.67978 0.94565 0.13715 0.0
H2070 H 0.57018 0.9621 0.13931 0.0
C2071 C 0.55537 0.9462 0.20451 0.0
C2072 C 0.50615 0.94558 0.19975 0.0
C2073 C 0.58911 0.94858 0.19009 0.0
C2074 C 0.60075 0.95748 0.13893 0.0
H2075 H 0.81218 0.94648 0.08732 0.0
H2076 H 0.76694 0.94997 0.11704 0.0
H2077 H 0.6217 0.9619 0.11014 0.0
H2078 H 0.45319 0.94745 0.17661 0.0
H2079 H 0.51173 0.95139 0.15152 0.0
H2080 H 0.6578 0.94089 0.16541 0.0
C2081 C 0.74758 0.94936 0.10328 0.0
C2082 C 0.63014 0.95737 0.12225 0.0
C2083 C 0.77343 0.94738 0.08624 0.0
C2084 C 0.49097 0.94783 0.18068 0.0
C2085 C 0.52454 0.95018 0.16632 0.0
C2086 C 0.65029 0.94572 0.15375 0.0
C2087 C 0.69719 0.95035 0.10263 0.0
C2088 C 0.66927 0.95131 0.12104 0.0
C2089 C 0.5741 0.95037 0.17072 0.0
C2090 C 0.60972 0.95147 0.15462 0.0
H2091 H 0.67989 0.94691 0.05363 0.0
H2092 H 0.6344 0.9503 0.08356 0.0
H2093 H 0.70939 0.94082 0.13654 0.0
H2094 H 0.56796 0.94456 0.21916 0.0
H2095 H 0.62703 0.94878 0.19398 0.0
C2096 C 0.93953 0.54088 0.80436 0.0
C2097 C 0.98805 0.5426 0.80904 0.0
C2098 C 0.90663 0.53858 0.81914 0.0
C2099 C 0.89819 0.53168 0.87183 0.0
H2100 H 0.77856 0.5454 0.87011 0.0
C2101 C 0.7878 0.54216 0.9401 0.0
C2102 C 0.73729 0.5424 0.93838 0.0
C2103 C 0.8163 0.53982 0.9239 0.0
C2104 C 0.81135 0.54137 0.87068 0.0
H2105 H 0.04068 0.54295 0.83264 0.0
H2106 H 0.98341 0.5392 0.85836 0.0
H2107 H 0.83193 0.54553 0.84182 0.0
H2108 H 0.67679 0.53974 0.91893 0.0
H2109 H 0.72649 0.53564 0.89079 0.0
H2110 H 0.87831 0.52792 0.90118 0.0
C2111 C 0.97065 0.53943 0.84333 0.0
C2112 C 0.84193 0.54143 0.85441 0.0
C2113 C 0.00345 0.54168 0.82858 0.0
C2114 C 0.71571 0.53974 0.92061 0.0
C2115 C 0.7441 0.5374 0.90448 0.0
C2116 C 0.86769 0.53169 0.88818 0.0
C2117 C 0.92171 0.538 0.83885 0.0
C2118 C 0.88624 0.53676 0.85496 0.0
C2119 C 0.79465 0.53768 0.90579 0.0
C2120 C 0.82446 0.53669 0.88788 0.0
H2121 H 0.92683 0.54147 0.78936 0.0
H2122 H 0.86925 0.5374 0.81519 0.0
H2123 H 0.93173 0.52789 0.87257 0.0
H2124 H 0.80531 0.54416 0.95366 0.0
H2125 H 0.85525 0.54016 0.92528 0.0
C2126 C 0.23229 0.68666 0.82811 0.0
C2127 C 0.24596 0.68587 0.80831 0.0
C2128 C 0.26716 0.6877 0.84268 0.0
C2129 C 0.39425 0.68282 0.85268 0.0
H2130 H 0.3739 0.69868 0.89754 0.0
C2131 C 0.53716 0.687 0.91306 0.0
C2132 C 0.52042 0.68663 0.93253 0.0
C2133 C 0.50467 0.68773 0.89753 0.0
C2134 C 0.37985 0.69418 0.88516 0.0
H2135 H 0.30655 0.68576 0.78812 0.0
H2136 H 0.36775 0.68764 0.81369 0.0
H2137 H 0.31568 0.69871 0.8706 0.0
H2138 H 0.45678 0.6869 0.9511 0.0
H2139 H 0.3997 0.68809 0.92382 0.0
H2140 H 0.45798 0.67819 0.86731 0.0
C2141 C 0.33005 0.68735 0.81791 0.0
C2142 C 0.34664 0.69421 0.86975 0.0
C2143 C 0.29508 0.68632 0.80329 0.0
C2144 C 0.47062 0.68717 0.93622 0.0
C2145 C 0.43803 0.68791 0.92063 0.0
C2146 C 0.42744 0.6828 0.86807 0.0
C2147 C 0.3164 0.68797 0.83776 0.0
C2148 C 0.35328 0.68846 0.85345 0.0
C2149 C 0.45478 0.68811 0.90113 0.0
C2150 C 0.42036 0.68842 0.88453 0.0
H2151 H 0.19466 0.68634 0.83241 0.0
H2152 H 0.25556 0.68803 0.85787 0.0
H2153 H 0.3999 0.6782 0.84047 0.0
H2154 H 0.57541 0.68665 0.90979 0.0
H2155 H 0.51864 0.68801 0.88267 0.0
C2156 C 0.94422 0.68782 0.44168 0.0
C2157 C 0.99318 0.68712 0.43654 0.0
C2158 C 0.90919 0.68904 0.42715 0.0
C2159 C 0.8931 0.69591 0.37524 0.0
H2160 H 0.77991 0.68037 0.37782 0.0
C2161 C 0.77105 0.68849 0.30847 0.0
C2162 C 0.72109 0.68803 0.31182 0.0
C2163 C 0.80293 0.68945 0.32423 0.0
C2164 C 0.81095 0.68486 0.37703 0.0
H2165 H 0.04415 0.6873 0.41231 0.0
H2166 H 0.98316 0.6893 0.387 0.0
H2167 H 0.83761 0.68028 0.40479 0.0
H2168 H 0.66504 0.68848 0.33411 0.0
H2169 H 0.7206 0.69022 0.36155 0.0
H2170 H 0.86682 0.70034 0.34723 0.0
C2171 C 0.97174 0.68904 0.40222 0.0
C2172 C 0.84394 0.68482 0.39249 0.0
C2173 C 0.00665 0.68782 0.41671 0.0
C2174 C 0.70344 0.68875 0.3311 0.0
C2175 C 0.73523 0.68971 0.34682 0.0
C2176 C 0.86011 0.69595 0.35974 0.0
C2177 C 0.92263 0.68959 0.40726 0.0
C2178 C 0.88565 0.69025 0.39164 0.0
C2179 C 0.78529 0.68996 0.34358 0.0
C2180 C 0.819 0.69034 0.3604 0.0
H2181 H 0.93292 0.68734 0.45689 0.0
H2182 H 0.87161 0.68952 0.43146 0.0
H2183 H 0.92463 0.70027 0.37432 0.0
H2184 H 0.78558 0.68795 0.29373 0.0
H2185 H 0.8414 0.68953 0.32133 0.0
C2186 C 0.50866 0.54339 0.32712 0.0
C2187 C 0.49165 0.54422 0.30777 0.0
C2188 C 0.47717 0.54116 0.34234 0.0
C2189 C 0.3491 0.5429 0.35506 0.0
H2190 H 0.38968 0.52958 0.4015 0.0
C2191 C 0.22587 0.54019 0.42203 0.0
C2192 C 0.24739 0.54292 0.43977 0.0
C2193 C 0.25422 0.53818 0.4057 0.0
C2194 C 0.37793 0.5333 0.3886 0.0
H2195 H 0.42892 0.54292 0.28895 0.0
H2196 H 0.37367 0.53885 0.31561 0.0
H2197 H 0.44137 0.52972 0.37236 0.0
H2198 H 0.31543 0.54514 0.45475 0.0
H2199 H 0.36534 0.54168 0.426 0.0
H2200 H 0.28618 0.54662 0.37135 0.0
C2201 C 0.41128 0.54011 0.31904 0.0
C2202 C 0.40744 0.53339 0.37194 0.0
C2203 C 0.44287 0.5424 0.30378 0.0
C2204 C 0.29796 0.54309 0.44122 0.0
C2205 C 0.32645 0.54106 0.42482 0.0
C2206 C 0.31951 0.54274 0.37162 0.0
C2207 C 0.42796 0.53964 0.33855 0.0
C2208 C 0.39386 0.53838 0.35515 0.0
C2209 C 0.3047 0.53884 0.40677 0.0
C2210 C 0.33407 0.5381 0.38868 0.0
H2211 H 0.54614 0.54474 0.33066 0.0
H2212 H 0.49116 0.54101 0.35719 0.0
H2213 H 0.33787 0.54694 0.34254 0.0
H2214 H 0.18693 0.53989 0.42054 0.0
H2215 H 0.23658 0.53634 0.39206 0.0
C2216 C 0.04077 0.44384 0.1761 0.0
C2217 C 0.99062 0.44272 0.17426 0.0
C2218 C 0.06902 0.44565 0.15952 0.0
C2219 C 0.0687 0.44158 0.10673 0.0
H2220 H 0.17786 0.45816 0.10619 0.0
C2221 C 0.19545 0.44311 0.04019 0.0
C2222 C 0.24472 0.44273 0.04497 0.0
C2223 C 0.16125 0.44514 0.05466 0.0
C2224 C 0.14752 0.45349 0.10614 0.0
H2225 H 0.93037 0.44299 0.15385 0.0
H2226 H 0.97964 0.44613 0.12502 0.0
H2227 H 0.12422 0.45778 0.13472 0.0
H2228 H 0.29719 0.44463 0.06828 0.0
H2229 H 0.2378 0.44794 0.0935 0.0
H2230 H 0.09282 0.43698 0.07866 0.0
C2231 C -0.00281 0.44552 0.13919 0.0
C2232 C 0.11691 0.45328 0.12245 0.0
C2233 C 0.96903 0.44374 0.15571 0.0
C2234 C 0.2594 0.44484 0.06418 0.0
C2235 C 0.22533 0.44683 0.07862 0.0
C2236 C 0.09942 0.44175 0.09051 0.0
C2237 C 0.04752 0.44633 0.14086 0.0
C2238 C 0.07769 0.44721 0.12302 0.0
C2239 C 0.17579 0.44679 0.07415 0.0
C2240 C 0.13972 0.44757 0.09018 0.0
H2241 H 0.05829 0.44311 0.19024 0.0
H2242 H 0.10784 0.44617 0.16119 0.0
H2243 H 0.03909 0.43675 0.10687 0.0
H2244 H 0.18321 0.44157 0.02545 0.0
H2245 H 0.12337 0.4452 0.0507 0.0
C2246 C 0.77939 0.29506 0.16979 0.0
C2247 C 0.75947 0.29715 0.18824 0.0
C2248 C 0.74955 0.29337 0.15374 0.0
C2249 C 0.62531 0.28782 0.13867 0.0
H2250 H 0.6577 0.30208 0.09247 0.0
C2251 C 0.48749 0.29638 0.07857 0.0
C2252 C 0.50312 0.29722 0.05903 0.0
C2253 C 0.52052 0.29468 0.09356 0.0
C2254 C 0.64861 0.29789 0.10505 0.0
H2255 H 0.69281 0.29868 0.20463 0.0
H2256 H 0.64031 0.29577 0.17638 0.0
H2257 H 0.71187 0.3021 0.12054 0.0
H2258 H 0.56518 0.29658 0.03966 0.0
H2259 H 0.62316 0.29346 0.06591 0.0
H2260 H 0.56162 0.2837 0.12323 0.0
C2261 C 0.67911 0.2954 0.17443 0.0
C2262 C 0.6796 0.29792 0.12117 0.0
C2263 C 0.70907 0.29711 0.19055 0.0
C2264 C 0.55224 0.29602 0.05463 0.0
C2265 C 0.58538 0.29427 0.06966 0.0
C2266 C 0.59439 0.28773 0.12246 0.0
C2267 C 0.69916 0.29372 0.15579 0.0
C2268 C 0.66788 0.29301 0.13825 0.0
C2269 C 0.56994 0.29374 0.08934 0.0
C2270 C 0.60527 0.29291 0.10561 0.0
H2271 H 0.81815 0.29494 0.1676 0.0
H2272 H 0.76594 0.29196 0.13961 0.0
H2273 H 0.61576 0.28388 0.15157 0.0
H2274 H 0.4498 0.29727 0.08242 0.0
H2275 H 0.50744 0.29447 0.10855 0.0
C2276 C 0.02194 0.29219 0.55928 0.0
C2277 C 0.97131 0.29253 0.55995 0.0
C2278 C 0.04822 0.28981 0.57605 0.0
C2279 C 0.03734 0.29168 0.62897 0.0
H2280 H 0.15685 0.2779 0.62956 0.0
C2281 C 0.16185 0.29213 0.6966 0.0
C2282 C 0.21065 0.29367 0.69208 0.0
C2283 C 0.1294 0.28962 0.68179 0.0
C2284 C 0.12352 0.28177 0.62962 0.0
H2285 H 0.90827 0.29005 0.57819 0.0
H2286 H 0.95416 0.28593 0.60738 0.0
H2287 H 0.10605 0.27772 0.60022 0.0
H2288 H 0.26418 0.29351 0.66876 0.0
H2289 H 0.20786 0.28942 0.64307 0.0
H2290 H 0.05576 0.29617 0.65784 0.0
C2291 C 0.97354 0.2876 0.59402 0.0
C2292 C 0.09449 0.28165 0.61285 0.0
C2293 C 0.94734 0.28995 0.57729 0.0
C2294 C 0.22672 0.29239 0.67271 0.0
C2295 C 0.19446 0.28993 0.65798 0.0
C2296 C 0.0665 0.29187 0.64565 0.0
C2297 C 0.0242 0.28776 0.59372 0.0
C2298 C 0.05174 0.28679 0.61222 0.0
C2299 C 0.14529 0.28864 0.66225 0.0
C2300 C 0.11061 0.28713 0.64596 0.0
H2301 H 0.04129 0.29413 0.54608 0.0
H2302 H 0.08731 0.29006 0.57546 0.0
H2303 H 0.00481 0.29579 0.62881 0.0
H2304 H 0.14861 0.29301 0.71145 0.0
H2305 H 0.09179 0.28859 0.68558 0.0
C2306 C 0.52565 0.43895 0.67875 0.0
C2307 C 0.47532 0.43868 0.67635 0.0
C2308 C 0.55569 0.44048 0.66257 0.0
C2309 C 0.55736 0.4373 0.60937 0.0
H2310 H 0.67327 0.45211 0.61166 0.0
C2311 C 0.68931 0.43965 0.54388 0.0
C2312 C 0.73822 0.4387 0.54891 0.0
C2313 C 0.65464 0.44112 0.5585 0.0
C2314 C 0.64108 0.44793 0.61083 0.0
H2315 H 0.41678 0.44015 0.65537 0.0
H2316 H 0.46919 0.44281 0.62722 0.0
H2317 H 0.61767 0.45198 0.63952 0.0
H2318 H 0.78944 0.43872 0.57305 0.0
H2319 H 0.72925 0.4411 0.59842 0.0
H2320 H 0.5814 0.43299 0.58101 0.0
C2321 C 0.48546 0.44175 0.64151 0.0
C2322 C 0.60933 0.44786 0.62676 0.0
C2323 C 0.4555 0.44025 0.65765 0.0
C2324 C 0.75198 0.43943 0.5687 0.0
C2325 C 0.7175 0.44088 0.58325 0.0
C2326 C 0.5892 0.43734 0.59348 0.0
C2327 C 0.53585 0.44172 0.64374 0.0
C2328 C 0.56758 0.44243 0.62631 0.0
C2329 C 0.6684 0.44167 0.57837 0.0
C2330 C 0.63186 0.44251 0.59419 0.0
H2331 H 0.54185 0.43777 0.69301 0.0
H2332 H 0.59447 0.44035 0.66468 0.0
H2333 H 0.52571 0.43297 0.6087 0.0
H2334 H 0.67779 0.43916 0.52871 0.0
H2335 H 0.61708 0.44178 0.55428 0.0
loop_
_geom_bond_atom_site_label_1
_geom_bond_atom_site_label_2
_geom_bond_distance
_geom_bond_site_symmetry_2
_ccdc_geom_bond_type
In0 O1 2.294 . S
In0 O2 2.326 . S
In0 O6 2.266 . S
In0 O7 2.326 . S
In0 O8 2.266 . S
In0 O9 2.326 . S
In0 O11 2.294 . S
In0 O12 2.326 . S
O1 In0 2.294 . S
O1 C10 1.240 . S
O2 In0 2.326 . S
O2 C10 1.252 . S
C3 O6 1.252 . S
C3 O7 1.260 . S
C4 O11 1.240 . S
C4 O12 1.252 . S
C5 O8 1.252 . S
C5 O9 1.260 . S
O6 In0 2.266 . S
O6 C3 1.252 . S
O7 In0 2.326 . S
O7 C3 1.260 . S
O8 In0 2.266 . S
O8 C5 1.252 . S
O9 In0 2.326 . S
O9 C5 1.260 . S
C10 O1 1.240 . S
C10 O2 1.252 . S
O11 In0 2.294 . S
O11 C4 1.240 . S
O12 In0 2.326 . S
O12 C4 1.252 . S
In13 O14 2.294 . S
In13 O15 2.326 . S
In13 O19 2.266 . S
In13 O20 2.326 . S
In13 O21 2.266 . S
In13 O22 2.326 . S
In13 O24 2.294 . S
In13 O25 2.326 . S
O14 In13 2.294 . S
O14 C23 1.240 . S
O15 In13 2.326 . S
O15 C23 1.252 . S
C16 O19 1.252 . S
C16 O20 1.260 . S
C17 O24 1.240 . S
C17 O25 1.252 . S
C18 O21 1.252 . S
C18 O22 1.260 . S
O19 In13 2.266 . S
O19 C16 1.252 . S
O20 In13 2.326 . S
O20 C16 1.260 . S
O21 In13 2.266 . S
O21 C18 1.252 . S
O22 In13 2.326 . S
O22 C18 1.260 . S
C23 O14 1.240 . S
C23 O15 1.252 . S
O24 In13 2.294 . S
O24 C17 1.240 . S
O25 In13 2.326 . S
O25 C17 1.252 . S
In26 O27 2.294 . S
In26 O28 2.326 . S
In26 O32 2.266 . S
In26 O33 2.326 . S
In26 O34 2.266 1_556 S
In26 O35 2.326 1_556 S
In26 O37 2.294 . S
In26 O38 2.326 . S
O27 In26 2.294 . S
O27 C36 1.240 . S
O28 In26 2.326 . S
O28 C36 1.252 . S
C29 O32 1.252 . S
C29 O33 1.260 . S
C30 O37 1.240 . S
C30 O38 1.252 . S
C31 O34 1.252 . S
C31 O35 1.260 . S
O32 In26 2.266 . S
O32 C29 1.252 . S
O33 In26 2.326 . S
O33 C29 1.260 . S
O34 In26 2.266 1_554 S
O34 C31 1.252 . S
O35 In26 2.326 1_554 S
O35 C31 1.260 . S
C36 O27 1.240 . S
C36 O28 1.252 . S
O37 In26 2.294 . S
O37 C30 1.240 . S
O38 In26 2.326 . S
O38 C30 1.252 . S
In39 O40 2.294 . S
In39 O41 2.326 . S
In39 O45 2.266 1_556 S
In39 O46 2.326 1_556 S
In39 O47 2.266 . S
In39 O48 2.326 . S
In39 O50 2.294 . S
In39 O51 2.326 . S
O40 In39 2.294 . S
O40 C49 1.240 . S
O41 In39 2.326 . S
O41 C49 1.252 . S
C42 O45 1.252 . S
C42 O46 1.260 . S
C43 O50 1.240 . S
C43 O51 1.252 . S
C44 O47 1.252 . S
C44 O48 1.260 . S
O45 In39 2.266 1_554 S
O45 C42 1.252 . S
O46 In39 2.326 1_554 S
O46 C42 1.260 . S
O47 In39 2.266 . S
O47 C44 1.252 . S
O48 In39 2.326 . S
O48 C44 1.260 . S
C49 O40 1.240 . S
C49 O41 1.252 . S
O50 In39 2.294 . S
O50 C43 1.240 . S
O51 In39 2.326 . S
O51 C43 1.252 . S
In52 O53 2.294 . S
In52 O54 2.326 . S
In52 O58 2.266 . S
In52 O59 2.326 . S
In52 O60 2.266 . S
In52 O61 2.326 . S
In52 O63 2.294 . S
In52 O64 2.326 . S
O53 In52 2.294 . S
O53 C62 1.240 . S
O54 In52 2.326 . S
O54 C62 1.252 . S
C55 O58 1.252 . S
C55 O59 1.260 . S
C56 O63 1.240 . S
C56 O64 1.252 . S
C57 O60 1.252 . S
C57 O61 1.260 . S
O58 In52 2.266 . S
O58 C55 1.252 . S
O59 In52 2.326 . S
O59 C55 1.260 . S
O60 In52 2.266 . S
O60 C57 1.252 . S
O61 In52 2.326 . S
O61 C57 1.260 . S
C62 O53 1.240 . S
C62 O54 1.252 . S
O63 In52 2.294 . S
O63 C56 1.240 . S
O64 In52 2.326 . S
O64 C56 1.252 . S
In65 O66 2.294 . S
In65 O67 2.326 . S
In65 O71 2.266 . S
In65 O72 2.326 . S
In65 O73 2.266 . S
In65 O74 2.326 . S
In65 O76 2.294 . S
In65 O77 2.326 . S
O66 In65 2.294 . S
O66 C75 1.240 . S
O67 In65 2.326 . S
O67 C75 1.252 . S
C68 O71 1.252 . S
C68 O72 1.260 . S
C69 O76 1.240 . S
C69 O77 1.252 . S
C70 O73 1.252 . S
C70 O74 1.260 . S
O71 In65 2.266 . S
O71 C68 1.252 . S
O72 In65 2.326 . S
O72 C68 1.260 . S
O73 In65 2.266 . S
O73 C70 1.252 . S
O74 In65 2.326 . S
O74 C70 1.260 . S
C75 O66 1.240 . S
C75 O67 1.252 . S
O76 In65 2.294 . S
O76 C69 1.240 . S
O77 In65 2.326 . S
O77 C69 1.252 . S
In78 O79 2.294 . S
In78 O80 2.326 . S
In78 O84 2.266 1_554 S
In78 O85 2.326 1_554 S
In78 O86 2.266 . S
In78 O87 2.326 . S
In78 O89 2.294 . S
In78 O90 2.326 . S
O79 In78 2.294 . S
O79 C88 1.240 . S
O80 In78 2.326 . S
O80 C88 1.252 . S
C81 O84 1.252 . S
C81 O85 1.260 . S
C82 O89 1.240 . S
C82 O90 1.252 . S
C83 O86 1.252 . S
C83 O87 1.260 . S
O84 In78 2.266 1_556 S
O84 C81 1.252 . S
O85 In78 2.326 1_556 S
O85 C81 1.260 . S
O86 In78 2.266 . S
O86 C83 1.252 . S
O87 In78 2.326 . S
O87 C83 1.260 . S
C88 O79 1.240 . S
C88 O80 1.252 . S
O89 In78 2.294 . S
O89 C82 1.240 . S
O90 In78 2.326 . S
O90 C82 1.252 . S
In91 O92 2.294 . S
In91 O93 2.326 . S
In91 O97 2.266 1_554 S
In91 O98 2.326 1_554 S
In91 O99 2.266 . S
In91 O100 2.326 . S
In91 O102 2.294 . S
In91 O103 2.326 . S
O92 In91 2.294 . S
O92 C101 1.240 . S
O93 In91 2.326 . S
O93 C101 1.252 . S
C94 O97 1.252 . S
C94 O98 1.260 . S
C95 O102 1.240 . S
C95 O103 1.252 . S
C96 O99 1.252 . S
C96 O100 1.260 . S
O97 In91 2.266 1_556 S
O97 C94 1.252 . S
O98 In91 2.326 1_556 S
O98 C94 1.260 . S
O99 In91 2.266 . S
O99 C96 1.252 . S
O100 In91 2.326 . S
O100 C96 1.260 . S
C101 O92 1.240 . S
C101 O93 1.252 . S
O102 In91 2.294 . S
O102 C95 1.240 . S
O103 In91 2.326 . S
O103 C95 1.252 . S
In104 O105 2.294 . S
In104 O106 2.326 . S
In104 O110 2.266 . S
In104 O111 2.326 . S
In104 O112 2.266 . S
In104 O113 2.326 . S
In104 O115 2.294 . S
In104 O116 2.326 . S
O105 In104 2.294 . S
O105 C114 1.240 . S
O106 In104 2.326 . S
O106 C114 1.252 . S
C107 O110 1.252 . S
C107 O111 1.260 . S
C108 O115 1.240 . S
C108 O116 1.252 . S
C109 O112 1.252 . S
C109 O113 1.260 . S
O110 In104 2.266 . S
O110 C107 1.252 . S
O111 In104 2.326 . S
O111 C107 1.260 . S
O112 In104 2.266 . S
O112 C109 1.252 . S
O113 In104 2.326 . S
O113 C109 1.260 . S
C114 O105 1.240 . S
C114 O106 1.252 . S
O115 In104 2.294 . S
O115 C108 1.240 . S
O116 In104 2.326 . S
O116 C108 1.252 . S
In117 O118 2.294 . S
In117 O119 2.326 . S
In117 O123 2.266 . S
In117 O124 2.326 . S
In117 O125 2.266 . S
In117 O126 2.326 . S
In117 O128 2.294 . S
In117 O129 2.326 . S
O118 In117 2.294 . S
O118 C127 1.240 . S
O119 In117 2.326 . S
O119 C127 1.252 . S
C120 O123 1.252 . S
C120 O124 1.260 . S
C121 O128 1.240 . S
C121 O129 1.252 . S
C122 O125 1.252 . S
C122 O126 1.260 . S
O123 In117 2.266 . S
O123 C120 1.252 . S
O124 In117 2.326 . S
O124 C120 1.260 . S
O125 In117 2.266 . S
O125 C122 1.252 . S
O126 In117 2.326 . S
O126 C122 1.260 . S
C127 O118 1.240 . S
C127 O119 1.252 . S
O128 In117 2.294 . S
O128 C121 1.240 . S
O129 In117 2.326 . S
O129 C121 1.252 . S
In130 O131 2.294 . S
In130 O132 2.326 . S
In130 O136 2.266 . S
In130 O137 2.326 . S
In130 O138 2.266 . S
In130 O139 2.326 . S
In130 O141 2.294 . S
In130 O142 2.326 . S
O131 In130 2.294 . S
O131 C140 1.240 . S
O132 In130 2.326 . S
O132 C140 1.252 . S
C133 O136 1.252 . S
C133 O137 1.260 . S
C134 O141 1.240 . S
C134 O142 1.252 . S
C135 O138 1.252 . S
C135 O139 1.260 . S
O136 In130 2.266 . S
O136 C133 1.252 . S
O137 In130 2.326 . S
O137 C133 1.260 . S
O138 In130 2.266 . S
O138 C135 1.252 . S
O139 In130 2.326 . S
O139 C135 1.260 . S
C140 O131 1.240 . S
C140 O132 1.252 . S
O141 In130 2.294 . S
O141 C134 1.240 . S
O142 In130 2.326 . S
O142 C134 1.252 . S
In143 O144 2.294 . S
In143 O145 2.326 . S
In143 O149 2.266 . S
In143 O150 2.326 . S
In143 O151 2.266 . S
In143 O152 2.326 . S
In143 O154 2.294 . S
In143 O155 2.326 . S
O144 In143 2.294 . S
O144 C153 1.240 . S
O145 In143 2.326 . S
O145 C153 1.252 . S
C146 O149 1.252 . S
C146 O150 1.260 . S
C147 O154 1.240 . S
C147 O155 1.252 . S
C148 O151 1.252 . S
C148 O152 1.260 . S
O149 In143 2.266 . S
O149 C146 1.252 . S
O150 In143 2.326 . S
O150 C146 1.260 . S
O151 In143 2.266 . S
O151 C148 1.252 . S
O152 In143 2.326 . S
O152 C148 1.260 . S
C153 O144 1.240 . S
C153 O145 1.252 . S
O154 In143 2.294 . S
O154 C147 1.240 . S
O155 In143 2.326 . S
O155 C147 1.252 . S
In156 O157 2.294 . S
In156 O158 2.326 . S
In156 O162 2.266 . S
In156 O163 2.326 . S
In156 O164 2.266 . S
In156 O165 2.326 . S
In156 O167 2.294 . S
In156 O168 2.326 . S
O157 In156 2.294 . S
O157 C166 1.240 . S
O158 In156 2.326 . S
O158 C166 1.252 . S
C159 O162 1.252 . S
C159 O163 1.260 . S
C160 O167 1.240 . S
C160 O168 1.252 . S
C161 O164 1.252 . S
C161 O165 1.260 . S
O162 In156 2.266 . S
O162 C159 1.252 . S
O163 In156 2.326 . S
O163 C159 1.260 . S
O164 In156 2.266 . S
O164 C161 1.252 . S
O165 In156 2.326 . S
O165 C161 1.260 . S
C166 O157 1.240 . S
C166 O158 1.252 . S
O167 In156 2.294 . S
O167 C160 1.240 . S
O168 In156 2.326 . S
O168 C160 1.252 . S
In169 O170 2.294 . S
In169 O171 2.326 . S
In169 O175 2.266 . S
In169 O176 2.326 . S
In169 O177 2.266 . S
In169 O178 2.326 . S
In169 O180 2.294 . S
In169 O181 2.326 . S
O170 In169 2.294 . S
O170 C179 1.240 . S
O171 In169 2.326 . S
O171 C179 1.252 . S
C172 O175 1.252 . S
C172 O176 1.260 . S
C173 O180 1.240 . S
C173 O181 1.252 . S
C174 O177 1.252 . S
C174 O178 1.260 . S
O175 In169 2.266 . S
O175 C172 1.252 . S
O176 In169 2.326 . S
O176 C172 1.260 . S
O177 In169 2.266 . S
O177 C174 1.252 . S
O178 In169 2.326 . S
O178 C174 1.260 . S
C179 O170 1.240 . S
C179 O171 1.252 . S
O180 In169 2.294 . S
O180 C173 1.240 . S
O181 In169 2.326 . S
O181 C173 1.252 . S
In182 O183 2.294 . S
In182 O184 2.326 . S
In182 O188 2.266 . S
In182 O189 2.326 . S
In182 O190 2.266 . S
In182 O191 2.326 . S
In182 O193 2.294 . S
In182 O194 2.326 . S
O183 In182 2.294 . S
O183 C192 1.240 . S
O184 In182 2.326 . S
O184 C192 1.252 . S
C185 O188 1.252 . S
C185 O189 1.260 . S
C186 O193 1.240 . S
C186 O194 1.252 . S
C187 O190 1.252 . S
C187 O191 1.260 . S
O188 In182 2.266 . S
O188 C185 1.252 . S
O189 In182 2.326 . S
O189 C185 1.260 . S
O190 In182 2.266 . S
O190 C187 1.252 . S
O191 In182 2.326 . S
O191 C187 1.260 . S
C192 O183 1.240 . S
C192 O184 1.252 . S
O193 In182 2.294 . S
O193 C186 1.240 . S
O194 In182 2.326 . S
O194 C186 1.252 . S
In195 O196 2.294 . S
In195 O197 2.326 . S
In195 O201 2.266 . S
In195 O202 2.326 . S
In195 O203 2.266 . S
In195 O204 2.326 . S
In195 O206 2.294 . S
In195 O207 2.326 . S
O196 In195 2.294 . S
O196 C205 1.240 . S
O197 In195 2.326 . S
O197 C205 1.252 . S
C198 O201 1.252 . S
C198 O202 1.260 . S
C199 O206 1.240 . S
C199 O207 1.252 . S
C200 O203 1.252 . S
C200 O204 1.260 . S
O201 In195 2.266 . S
O201 C198 1.252 . S
O202 In195 2.326 . S
O202 C198 1.260 . S
O203 In195 2.266 . S
O203 C200 1.252 . S
O204 In195 2.326 . S
O204 C200 1.260 . S
C205 O196 1.240 . S
C205 O197 1.252 . S
O206 In195 2.294 . S
O206 C199 1.240 . S
O207 In195 2.326 . S
O207 C199 1.252 . S
In208 O209 2.294 . S
In208 O210 2.326 . S
In208 O214 2.266 . S
In208 O215 2.326 . S
In208 O216 2.266 . S
In208 O217 2.326 . S
In208 O219 2.294 . S
In208 O220 2.326 . S
O209 In208 2.294 . S
O209 C218 1.240 . S
O210 In208 2.326 . S
O210 C218 1.252 . S
C211 O214 1.252 . S
C211 O215 1.260 . S
C212 O219 1.240 . S
C212 O220 1.252 . S
C213 O216 1.252 . S
C213 O217 1.260 . S
O214 In208 2.266 . S
O214 C211 1.252 . S
O215 In208 2.326 . S
O215 C211 1.260 . S
O216 In208 2.266 . S
O216 C213 1.252 . S
O217 In208 2.326 . S
O217 C213 1.260 . S
C218 O209 1.240 . S
C218 O210 1.252 . S
O219 In208 2.294 . S
O219 C212 1.240 . S
O220 In208 2.326 . S
O220 C212 1.252 . S
In221 O222 2.294 . S
In221 O223 2.326 . S
In221 O227 2.266 . S
In221 O228 2.326 . S
In221 O229 2.266 . S
In221 O230 2.326 . S
In221 O232 2.294 . S
In221 O233 2.326 . S
O222 In221 2.294 . S
O222 C231 1.240 . S
O223 In221 2.326 . S
O223 C231 1.252 . S
C224 O227 1.252 . S
C224 O228 1.260 . S
C225 O232 1.240 . S
C225 O233 1.252 . S
C226 O229 1.252 . S
C226 O230 1.260 . S
O227 In221 2.266 . S
O227 C224 1.252 . S
O228 In221 2.326 . S
O228 C224 1.260 . S
O229 In221 2.266 . S
O229 C226 1.252 . S
O230 In221 2.326 . S
O230 C226 1.260 . S
C231 O222 1.240 . S
C231 O223 1.252 . S
O232 In221 2.294 . S
O232 C225 1.240 . S
O233 In221 2.326 . S
O233 C225 1.252 . S
In234 O235 2.294 . S
In234 O236 2.326 . S
In234 O240 2.266 . S
In234 O241 2.326 . S
In234 O242 2.266 . S
In234 O243 2.326 . S
In234 O245 2.294 . S
In234 O246 2.326 . S
O235 In234 2.294 . S
O235 C244 1.240 . S
O236 In234 2.326 . S
O236 C244 1.252 . S
C237 O240 1.252 . S
C237 O241 1.260 . S
C238 O245 1.240 . S
C238 O246 1.252 . S
C239 O242 1.252 . S
C239 O243 1.260 . S
O240 In234 2.266 . S
O240 C237 1.252 . S
O241 In234 2.326 . S
O241 C237 1.260 . S
O242 In234 2.266 . S
O242 C239 1.252 . S
O243 In234 2.326 . S
O243 C239 1.260 . S
C244 O235 1.240 . S
C244 O236 1.252 . S
O245 In234 2.294 . S
O245 C238 1.240 . S
O246 In234 2.326 . S
O246 C238 1.252 . S
In247 O248 2.294 . S
In247 O249 2.326 . S
In247 O253 2.266 . S
In247 O254 2.326 . S
In247 O255 2.266 . S
In247 O256 2.326 . S
In247 O258 2.294 . S
In247 O259 2.326 . S
O248 In247 2.294 . S
O248 C257 1.240 . S
O249 In247 2.326 . S
O249 C257 1.252 . S
C250 O253 1.252 . S
C250 O254 1.260 . S
C251 O258 1.240 . S
C251 O259 1.252 . S
C252 O255 1.252 . S
C252 O256 1.260 . S
O253 In247 2.266 . S
O253 C250 1.252 . S
O254 In247 2.326 . S
O254 C250 1.260 . S
O255 In247 2.266 . S
O255 C252 1.252 . S
O256 In247 2.326 . S
O256 C252 1.260 . S
C257 O248 1.240 . S
C257 O249 1.252 . S
O258 In247 2.294 . S
O258 C251 1.240 . S
O259 In247 2.326 . S
O259 C251 1.252 . S
In260 O261 2.294 . S
In260 O262 2.326 . S
In260 O266 2.266 . S
In260 O267 2.326 . S
In260 O268 2.266 . S
In260 O269 2.326 . S
In260 O271 2.294 . S
In260 O272 2.326 . S
O261 In260 2.294 . S
O261 C270 1.240 . S
O262 In260 2.326 . S
O262 C270 1.252 . S
C263 O266 1.252 . S
C263 O267 1.260 . S
C264 O271 1.240 . S
C264 O272 1.252 . S
C265 O268 1.252 . S
C265 O269 1.260 . S
O266 In260 2.266 . S
O266 C263 1.252 . S
O267 In260 2.326 . S
O267 C263 1.260 . S
O268 In260 2.266 . S
O268 C265 1.252 . S
O269 In260 2.326 . S
O269 C265 1.260 . S
C270 O261 1.240 . S
C270 O262 1.252 . S
O271 In260 2.294 . S
O271 C264 1.240 . S
O272 In260 2.326 . S
O272 C264 1.252 . S
In273 O274 2.294 . S
In273 O275 2.326 . S
In273 O279 2.266 . S
In273 O280 2.326 . S
In273 O281 2.266 . S
In273 O282 2.326 . S
In273 O284 2.294 . S
In273 O285 2.326 . S
O274 In273 2.294 . S
O274 C283 1.240 . S
O275 In273 2.326 . S
O275 C283 1.252 . S
C276 O279 1.252 . S
C276 O280 1.260 . S
C277 O284 1.240 . S
C277 O285 1.252 . S
C278 O281 1.252 . S
C278 O282 1.260 . S
O279 In273 2.266 . S
O279 C276 1.252 . S
O280 In273 2.326 . S
O280 C276 1.260 . S
O281 In273 2.266 . S
O281 C278 1.252 . S
O282 In273 2.326 . S
O282 C278 1.260 . S
C283 O274 1.240 . S
C283 O275 1.252 . S
O284 In273 2.294 . S
O284 C277 1.240 . S
O285 In273 2.326 . S
O285 C277 1.252 . S
In286 O287 2.294 . S
In286 O288 2.326 . S
In286 O292 2.266 . S
In286 O293 2.326 . S
In286 O294 2.266 . S
In286 O295 2.326 . S
In286 O297 2.294 . S
In286 O298 2.326 . S
O287 In286 2.294 . S
O287 C296 1.240 . S
O288 In286 2.326 . S
O288 C296 1.252 . S
C289 O292 1.252 . S
C289 O293 1.260 . S
C290 O297 1.240 . S
C290 O298 1.252 . S
C291 O294 1.252 . S
C291 O295 1.260 . S
O292 In286 2.266 . S
O292 C289 1.252 . S
O293 In286 2.326 . S
O293 C289 1.260 . S
O294 In286 2.266 . S
O294 C291 1.252 . S
O295 In286 2.326 . S
O295 C291 1.260 . S
C296 O287 1.240 . S
C296 O288 1.252 . S
O297 In286 2.294 . S
O297 C290 1.240 . S
O298 In286 2.326 . S
O298 C290 1.252 . S
In299 O300 2.294 . S
In299 O301 2.326 . S
In299 O305 2.266 . S
In299 O306 2.326 . S
In299 O307 2.266 . S
In299 O308 2.326 . S
In299 O310 2.294 . S
In299 O311 2.326 . S
O300 In299 2.294 . S
O300 C309 1.240 . S
O301 In299 2.326 . S
O301 C309 1.252 . S
C302 O305 1.252 . S
C302 O306 1.260 . S
C303 O310 1.240 . S
C303 O311 1.252 . S
C304 O307 1.252 . S
C304 O308 1.260 . S
O305 In299 2.266 . S
O305 C302 1.252 . S
O306 In299 2.326 . S
O306 C302 1.260 . S
O307 In299 2.266 . S
O307 C304 1.252 . S
O308 In299 2.326 . S
O308 C304 1.260 . S
C309 O300 1.240 . S
C309 O301 1.252 . S
O310 In299 2.294 . S
O310 C303 1.240 . S
O311 In299 2.326 . S
O311 C303 1.252 . S
In312 O313 2.294 . S
In312 O314 2.326 . S
In312 O318 2.266 . S
In312 O319 2.326 . S
In312 O320 2.266 . S
In312 O321 2.326 . S
In312 O323 2.294 . S
In312 O324 2.326 . S
O313 In312 2.294 . S
O313 C322 1.240 . S
O314 In312 2.326 . S
O314 C322 1.252 . S
C315 O318 1.252 . S
C315 O319 1.260 . S
C316 O323 1.240 . S
C316 O324 1.252 . S
C317 O320 1.252 . S
C317 O321 1.260 . S
O318 In312 2.266 . S
O318 C315 1.252 . S
O319 In312 2.326 . S
O319 C315 1.260 . S
O320 In312 2.266 . S
O320 C317 1.252 . S
O321 In312 2.326 . S
O321 C317 1.260 . S
C322 O313 1.240 . S
C322 O314 1.252 . S
O323 In312 2.294 . S
O323 C316 1.240 . S
O324 In312 2.326 . S
O324 C316 1.252 . S
In325 O326 2.294 . S
In325 O327 2.326 . S
In325 O331 2.266 . S
In325 O332 2.326 . S
In325 O333 2.266 . S
In325 O334 2.326 . S
In325 O336 2.294 . S
In325 O337 2.326 . S
O326 In325 2.294 . S
O326 C335 1.240 . S
O327 In325 2.326 . S
O327 C335 1.252 . S
C328 O331 1.252 . S
C328 O332 1.260 . S
C329 O336 1.240 . S
C329 O337 1.252 . S
C330 O333 1.252 . S
C330 O334 1.260 . S
O331 In325 2.266 . S
O331 C328 1.252 . S
O332 In325 2.326 . S
O332 C328 1.260 . S
O333 In325 2.266 . S
O333 C330 1.252 . S
O334 In325 2.326 . S
O334 C330 1.260 . S
C335 O326 1.240 . S
C335 O327 1.252 . S
O336 In325 2.294 . S
O336 C329 1.240 . S
O337 In325 2.326 . S
O337 C329 1.252 . S
In338 O339 2.294 . S
In338 O340 2.326 . S
In338 O344 2.266 1_556 S
In338 O345 2.326 1_556 S
In338 O346 2.266 . S
In338 O347 2.326 . S
In338 O349 2.294 . S
In338 O350 2.326 . S
O339 In338 2.294 . S
O339 C348 1.240 . S
O340 In338 2.326 . S
O340 C348 1.252 . S
C341 O344 1.252 . S
C341 O345 1.260 . S
C342 O349 1.240 . S
C342 O350 1.252 . S
C343 O346 1.252 . S
C343 O347 1.260 . S
O344 In338 2.266 1_554 S
O344 C341 1.252 . S
O345 In338 2.326 1_554 S
O345 C341 1.260 . S
O346 In338 2.266 . S
O346 C343 1.252 . S
O347 In338 2.326 . S
O347 C343 1.260 . S
C348 O339 1.240 . S
C348 O340 1.252 . S
O349 In338 2.294 . S
O349 C342 1.240 . S
O350 In338 2.326 . S
O350 C342 1.252 . S
In351 O352 2.294 . S
In351 O353 2.326 . S
In351 O357 2.266 1_556 S
In351 O358 2.326 1_556 S
In351 O359 2.266 . S
In351 O360 2.326 . S
In351 O362 2.294 . S
In351 O363 2.326 . S
O352 In351 2.294 . S
O352 C361 1.240 . S
O353 In351 2.326 . S
O353 C361 1.252 . S
C354 O357 1.252 . S
C354 O358 1.260 . S
C355 O362 1.240 . S
C355 O363 1.252 . S
C356 O359 1.252 . S
C356 O360 1.260 . S
O357 In351 2.266 1_554 S
O357 C354 1.252 . S
O358 In351 2.326 1_554 S
O358 C354 1.260 . S
O359 In351 2.266 . S
O359 C356 1.252 . S
O360 In351 2.326 . S
O360 C356 1.260 . S
C361 O352 1.240 . S
C361 O353 1.252 . S
O362 In351 2.294 . S
O362 C355 1.240 . S
O363 In351 2.326 . S
O363 C355 1.252 . S
In364 O365 2.294 . S
In364 O366 2.326 . S
In364 O370 2.266 . S
In364 O371 2.326 . S
In364 O372 2.266 . S
In364 O373 2.326 . S
In364 O375 2.294 . S
In364 O376 2.326 . S
O365 In364 2.294 . S
O365 C374 1.240 . S
O366 In364 2.326 . S
O366 C374 1.252 . S
C367 O370 1.252 . S
C367 O371 1.260 . S
C368 O375 1.240 . S
C368 O376 1.252 . S
C369 O372 1.252 . S
C369 O373 1.260 . S
O370 In364 2.266 . S
O370 C367 1.252 . S
O371 In364 2.326 . S
O371 C367 1.260 . S
O372 In364 2.266 . S
O372 C369 1.252 . S
O373 In364 2.326 . S
O373 C369 1.260 . S
C374 O365 1.240 . S
C374 O366 1.252 . S
O375 In364 2.294 . S
O375 C368 1.240 . S
O376 In364 2.326 . S
O376 C368 1.252 . S
In377 O378 2.294 . S
In377 O379 2.326 . S
In377 O383 2.266 . S
In377 O384 2.326 . S
In377 O385 2.266 . S
In377 O386 2.326 . S
In377 O388 2.294 . S
In377 O389 2.326 . S
O378 In377 2.294 . S
O378 C387 1.240 . S
O379 In377 2.326 . S
O379 C387 1.252 . S
C380 O383 1.252 . S
C380 O384 1.260 . S
C381 O388 1.240 . S
C381 O389 1.252 . S
C382 O385 1.252 . S
C382 O386 1.260 . S
O383 In377 2.266 . S
O383 C380 1.252 . S
O384 In377 2.326 . S
O384 C380 1.260 . S
O385 In377 2.266 . S
O385 C382 1.252 . S
O386 In377 2.326 . S
O386 C382 1.260 . S
C387 O378 1.240 . S
C387 O379 1.252 . S
O388 In377 2.294 . S
O388 C381 1.240 . S
O389 In377 2.326 . S
O389 C381 1.252 . S
In390 O391 2.294 . S
In390 O392 2.326 . S
In390 O396 2.266 1_554 S
In390 O397 2.326 1_554 S
In390 O398 2.266 . S
In390 O399 2.326 . S
In390 O401 2.294 . S
In390 O402 2.326 . S
O391 In390 2.294 . S
O391 C400 1.240 . S
O392 In390 2.326 . S
O392 C400 1.252 . S
C393 O396 1.252 . S
C393 O397 1.260 . S
C394 O401 1.240 . S
C394 O402 1.252 . S
C395 O398 1.252 . S
C395 O399 1.260 . S
O396 In390 2.266 1_556 S
O396 C393 1.252 . S
O397 In390 2.326 1_556 S
O397 C393 1.260 . S
O398 In390 2.266 . S
O398 C395 1.252 . S
O399 In390 2.326 . S
O399 C395 1.260 . S
C400 O391 1.240 . S
C400 O392 1.252 . S
O401 In390 2.294 . S
O401 C394 1.240 . S
O402 In390 2.326 . S
O402 C394 1.252 . S
In403 O404 2.294 . S
In403 O405 2.326 . S
In403 O409 2.266 . S
In403 O410 2.326 . S
In403 O411 2.266 1_554 S
In403 O412 2.326 1_554 S
In403 O414 2.294 . S
In403 O415 2.326 . S
O404 In403 2.294 . S
O404 C413 1.240 . S
O405 In403 2.326 . S
O405 C413 1.252 . S
C406 O409 1.252 . S
C406 O410 1.260 . S
C407 O414 1.240 . S
C407 O415 1.252 . S
C408 O411 1.252 . S
C408 O412 1.260 . S
O409 In403 2.266 . S
O409 C406 1.252 . S
O410 In403 2.326 . S
O410 C406 1.260 . S
O411 In403 2.266 1_556 S
O411 C408 1.252 . S
O412 In403 2.326 1_556 S
O412 C408 1.260 . S
C413 O404 1.240 . S
C413 O405 1.252 . S
O414 In403 2.294 . S
O414 C407 1.240 . S
O415 In403 2.326 . S
O415 C407 1.252 . S
C416 C417 1.349 . S
C416 C418 1.327 . S
C416 H441 0.950 . S
C417 C416 1.349 . S
C417 C433 1.349 . S
C418 C416 1.327 . S
C418 C437 1.429 . S
C418 H442 0.950 . S
C419 C436 1.574 . S
C419 C438 1.368 . S
C419 H443 0.949 . S
H420 C424 0.949 . S
C421 C422 1.349 . S
C421 C423 1.327 . S
C421 H444 0.950 . S
C422 C421 1.349 . S
C422 C434 1.349 . S
C423 C421 1.327 . S
C423 C439 1.429 . S
C423 H445 0.950 . S
C424 H420 0.949 . S
C424 C432 1.574 . S
C424 C440 1.368 . S
H425 C433 0.950 . S
H426 C431 0.950 . S
H427 C432 0.949 . S
H428 C434 0.950 . S
H429 C435 0.950 . S
H430 C436 0.949 . S
C431 H426 0.950 . S
C431 C433 1.327 . S
C431 C437 1.429 . S
C432 C424 1.574 . S
C432 H427 0.949 . S
C432 C438 1.368 . S
C433 C417 1.349 . S
C433 H425 0.950 . S
C433 C431 1.327 . S
C434 C422 1.349 . S
C434 H428 0.950 . S
C434 C435 1.327 . S
C435 H429 0.950 . S
C435 C434 1.327 . S
C435 C439 1.429 . S
C436 C419 1.574 . S
C436 H430 0.949 . S
C436 C440 1.368 . S
C437 C418 1.429 . S
C437 C431 1.429 . S
C437 C438 1.523 . S
C438 C419 1.368 . S
C438 C432 1.368 . S
C438 C437 1.523 . S
C439 C423 1.429 . S
C439 C435 1.429 . S
C439 C440 1.523 . S
C440 C424 1.368 . S
C440 C436 1.368 . S
C440 C439 1.523 . S
H441 C416 0.950 . S
H442 C418 0.950 . S
H443 C419 0.949 . S
H444 C421 0.950 . S
H445 C423 0.950 . S
C446 C447 1.349 . S
C446 C448 1.327 . S
C446 H471 0.950 . S
C447 C446 1.349 . S
C447 C463 1.349 . S
C448 C446 1.327 . S
C448 C467 1.429 . S
C448 H472 0.950 . S
C449 C466 1.574 . S
C449 C468 1.368 . S
C449 H473 0.949 . S
H450 C454 0.949 . S
C451 C452 1.349 . S
C451 C453 1.327 . S
C451 H474 0.950 . S
C452 C451 1.349 . S
C452 C464 1.349 . S
C453 C451 1.327 . S
C453 C469 1.429 . S
C453 H475 0.950 . S
C454 H450 0.949 . S
C454 C462 1.574 . S
C454 C470 1.368 . S
H455 C463 0.950 . S
H456 C461 0.950 . S
H457 C462 0.949 . S
H458 C464 0.950 . S
H459 C465 0.950 . S
H460 C466 0.949 . S
C461 H456 0.950 . S
C461 C463 1.327 . S
C461 C467 1.429 . S
C462 C454 1.574 . S
C462 H457 0.949 . S
C462 C468 1.368 . S
C463 C447 1.349 . S
C463 H455 0.950 . S
C463 C461 1.327 . S
C464 C452 1.349 . S
C464 H458 0.950 . S
C464 C465 1.327 . S
C465 H459 0.950 . S
C465 C464 1.327 . S
C465 C469 1.429 . S
C466 C449 1.574 . S
C466 H460 0.949 . S
C466 C470 1.368 . S
C467 C448 1.429 . S
C467 C461 1.429 . S
C467 C468 1.523 . S
C468 C449 1.368 . S
C468 C462 1.368 . S
C468 C467 1.523 . S
C469 C453 1.429 . S
C469 C465 1.429 . S
C469 C470 1.523 . S
C470 C454 1.368 . S
C470 C466 1.368 . S
C470 C469 1.523 . S
H471 C446 0.950 . S
H472 C448 0.950 . S
H473 C449 0.949 . S
H474 C451 0.950 . S
H475 C453 0.950 . S
C476 C477 1.349 . S
C476 C478 1.327 . S
C476 H501 0.950 . S
C477 C476 1.349 . S
C477 C493 1.349 . S
C478 C476 1.327 . S
C478 C497 1.429 . S
C478 H502 0.950 . S
C479 C496 1.574 . S
C479 C498 1.368 . S
C479 H503 0.949 . S
H480 C484 0.949 . S
C481 C482 1.349 . S
C481 C483 1.327 . S
C481 H504 0.950 . S
C482 C481 1.349 . S
C482 C494 1.349 . S
C483 C481 1.327 . S
C483 C499 1.429 . S
C483 H505 0.950 . S
C484 H480 0.949 . S
C484 C492 1.574 . S
C484 C500 1.368 . S
H485 C493 0.950 . S
H486 C491 0.950 . S
H487 C492 0.949 . S
H488 C494 0.950 . S
H489 C495 0.950 . S
H490 C496 0.949 . S
C491 H486 0.950 . S
C491 C493 1.327 . S
C491 C497 1.429 . S
C492 C484 1.574 . S
C492 H487 0.949 . S
C492 C498 1.368 . S
C493 C477 1.349 . S
C493 H485 0.950 . S
C493 C491 1.327 . S
C494 C482 1.349 . S
C494 H488 0.950 . S
C494 C495 1.327 . S
C495 H489 0.950 . S
C495 C494 1.327 . S
C495 C499 1.429 . S
C496 C479 1.574 . S
C496 H490 0.949 . S
C496 C500 1.368 . S
C497 C478 1.429 . S
C497 C491 1.429 . S
C497 C498 1.523 . S
C498 C479 1.368 . S
C498 C492 1.368 . S
C498 C497 1.523 . S
C499 C483 1.429 . S
C499 C495 1.429 . S
C499 C500 1.523 . S
C500 C484 1.368 . S
C500 C496 1.368 . S
C500 C499 1.523 . S
H501 C476 0.950 . S
H502 C478 0.950 . S
H503 C479 0.949 . S
H504 C481 0.950 . S
H505 C483 0.950 . S
C506 C507 1.349 . S
C506 C508 1.327 . S
C506 H531 0.950 . S
C507 C506 1.349 . S
C507 C523 1.349 . S
C508 C506 1.327 . S
C508 C527 1.429 . S
C508 H532 0.950 . S
C509 C526 1.574 . S
C509 C528 1.368 . S
C509 H533 0.949 . S
H510 C514 0.949 . S
C511 C512 1.349 . S
C511 C513 1.327 . S
C511 H534 0.950 . S
C512 C511 1.349 . S
C512 C524 1.349 . S
C513 C511 1.327 . S
C513 C529 1.429 . S
C513 H535 0.950 . S
C514 H510 0.949 . S
C514 C522 1.574 . S
C514 C530 1.368 . S
H515 C523 0.950 . S
H516 C521 0.950 . S
H517 C522 0.949 . S
H518 C524 0.950 . S
H519 C525 0.950 . S
H520 C526 0.949 . S
C521 H516 0.950 . S
C521 C523 1.327 . S
C521 C527 1.429 . S
C522 C514 1.574 . S
C522 H517 0.949 . S
C522 C528 1.368 . S
C523 C507 1.349 . S
C523 H515 0.950 . S
C523 C521 1.327 . S
C524 C512 1.349 . S
C524 H518 0.950 . S
C524 C525 1.327 . S
C525 H519 0.950 . S
C525 C524 1.327 . S
C525 C529 1.429 . S
C526 C509 1.574 . S
C526 H520 0.949 . S
C526 C530 1.368 . S
C527 C508 1.429 . S
C527 C521 1.429 . S
C527 C528 1.523 . S
C528 C509 1.368 . S
C528 C522 1.368 . S
C528 C527 1.523 . S
C529 C513 1.429 . S
C529 C525 1.429 . S
C529 C530 1.523 . S
C530 C514 1.368 . S
C530 C526 1.368 . S
C530 C529 1.523 . S
H531 C506 0.950 . S
H532 C508 0.950 . S
H533 C509 0.949 . S
H534 C511 0.950 . S
H535 C513 0.950 . S
C536 C537 1.349 . S
C536 C538 1.327 . S
C536 H561 0.950 . S
C537 C536 1.349 . S
C537 C553 1.349 . S
C538 C536 1.327 . S
C538 C557 1.429 . S
C538 H562 0.950 . S
C539 C556 1.574 . S
C539 C558 1.368 . S
C539 H563 0.949 . S
H540 C544 0.949 . S
C541 C542 1.349 . S
C541 C543 1.327 . S
C541 H564 0.950 . S
C542 C541 1.349 . S
C542 C554 1.349 . S
C543 C541 1.327 . S
C543 C559 1.429 . S
C543 H565 0.950 . S
C544 H540 0.949 . S
C544 C552 1.574 . S
C544 C560 1.368 . S
H545 C553 0.950 . S
H546 C551 0.950 . S
H547 C552 0.949 . S
H548 C554 0.950 . S
H549 C555 0.950 . S
H550 C556 0.949 . S
C551 H546 0.950 . S
C551 C553 1.327 . S
C551 C557 1.429 . S
C552 C544 1.574 . S
C552 H547 0.949 . S
C552 C558 1.368 . S
C553 C537 1.349 . S
C553 H545 0.950 . S
C553 C551 1.327 . S
C554 C542 1.349 . S
C554 H548 0.950 . S
C554 C555 1.327 . S
C555 H549 0.950 . S
C555 C554 1.327 . S
C555 C559 1.429 . S
C556 C539 1.574 . S
C556 H550 0.949 . S
C556 C560 1.368 . S
C557 C538 1.429 . S
C557 C551 1.429 . S
C557 C558 1.523 . S
C558 C539 1.368 . S
C558 C552 1.368 . S
C558 C557 1.523 . S
C559 C543 1.429 . S
C559 C555 1.429 . S
C559 C560 1.523 . S
C560 C544 1.368 . S
C560 C556 1.368 . S
C560 C559 1.523 . S
H561 C536 0.950 . S
H562 C538 0.950 . S
H563 C539 0.949 . S
H564 C541 0.950 . S
H565 C543 0.950 . S
C566 C567 1.349 . S
C566 C568 1.327 . S
C566 H591 0.950 . S
C567 C566 1.349 . S
C567 C583 1.349 . S
C568 C566 1.327 . S
C568 C587 1.429 . S
C568 H592 0.950 . S
C569 C586 1.574 . S
C569 C588 1.368 . S
C569 H593 0.949 . S
H570 C574 0.949 . S
C571 C572 1.349 . S
C571 C573 1.327 . S
C571 H594 0.950 . S
C572 C571 1.349 . S
C572 C584 1.349 . S
C573 C571 1.327 . S
C573 C589 1.429 . S
C573 H595 0.950 . S
C574 H570 0.949 . S
C574 C582 1.574 . S
C574 C590 1.368 . S
H575 C583 0.950 . S
H576 C581 0.950 . S
H577 C582 0.949 . S
H578 C584 0.950 . S
H579 C585 0.950 . S
H580 C586 0.949 . S
C581 H576 0.950 . S
C581 C583 1.327 . S
C581 C587 1.429 . S
C582 C574 1.574 . S
C582 H577 0.949 . S
C582 C588 1.368 . S
C583 C567 1.349 . S
C583 H575 0.950 . S
C583 C581 1.327 . S
C584 C572 1.349 . S
C584 H578 0.950 . S
C584 C585 1.327 . S
C585 H579 0.950 . S
C585 C584 1.327 . S
C585 C589 1.429 . S
C586 C569 1.574 . S
C586 H580 0.949 . S
C586 C590 1.368 . S
C587 C568 1.429 . S
C587 C581 1.429 . S
C587 C588 1.523 . S
C588 C569 1.368 . S
C588 C582 1.368 . S
C588 C587 1.523 . S
C589 C573 1.429 . S
C589 C585 1.429 . S
C589 C590 1.523 . S
C590 C574 1.368 . S
C590 C586 1.368 . S
C590 C589 1.523 . S
H591 C566 0.950 . S
H592 C568 0.950 . S
H593 C569 0.949 . S
H594 C571 0.950 . S
H595 C573 0.950 . S
C596 C597 1.349 . S
C596 C598 1.327 . S
C596 H621 0.950 . S
C597 C596 1.349 . S
C597 C613 1.349 . S
C598 C596 1.327 . S
C598 C617 1.429 . S
C598 H622 0.950 . S
C599 C616 1.574 . S
C599 C618 1.368 . S
C599 H623 0.949 . S
H600 C604 0.949 . S
C601 C602 1.349 . S
C601 C603 1.327 . S
C601 H624 0.950 . S
C602 C601 1.349 . S
C602 C614 1.349 . S
C603 C601 1.327 . S
C603 C619 1.429 . S
C603 H625 0.950 . S
C604 H600 0.949 . S
C604 C612 1.574 . S
C604 C620 1.368 . S
H605 C613 0.950 . S
H606 C611 0.950 . S
H607 C612 0.949 . S
H608 C614 0.950 . S
H609 C615 0.950 . S
H610 C616 0.949 . S
C611 H606 0.950 . S
C611 C613 1.327 . S
C611 C617 1.429 . S
C612 C604 1.574 . S
C612 H607 0.949 . S
C612 C618 1.368 . S
C613 C597 1.349 . S
C613 H605 0.950 . S
C613 C611 1.327 . S
C614 C602 1.349 . S
C614 H608 0.950 . S
C614 C615 1.327 . S
C615 H609 0.950 . S
C615 C614 1.327 . S
C615 C619 1.429 . S
C616 C599 1.574 . S
C616 H610 0.949 . S
C616 C620 1.368 . S
C617 C598 1.429 . S
C617 C611 1.429 . S
C617 C618 1.523 . S
C618 C599 1.368 . S
C618 C612 1.368 . S
C618 C617 1.523 . S
C619 C603 1.429 . S
C619 C615 1.429 . S
C619 C620 1.523 . S
C620 C604 1.368 . S
C620 C616 1.368 . S
C620 C619 1.523 . S
H621 C596 0.950 . S
H622 C598 0.950 . S
H623 C599 0.949 . S
H624 C601 0.950 . S
H625 C603 0.950 . S
C626 C627 1.349 . S
C626 C628 1.327 . S
C626 H651 0.950 . S
C627 C626 1.349 . S
C627 C643 1.349 . S
C628 C626 1.327 . S
C628 C647 1.429 . S
C628 H652 0.950 . S
C629 C646 1.574 . S
C629 C648 1.368 . S
C629 H653 0.949 . S
H630 C634 0.949 . S
C631 C632 1.349 . S
C631 C633 1.327 . S
C631 H654 0.950 . S
C632 C631 1.349 . S
C632 C644 1.349 . S
C633 C631 1.327 . S
C633 C649 1.429 . S
C633 H655 0.950 . S
C634 H630 0.949 . S
C634 C642 1.574 . S
C634 C650 1.368 . S
H635 C643 0.950 . S
H636 C641 0.950 . S
H637 C642 0.949 . S
H638 C644 0.950 . S
H639 C645 0.950 . S
H640 C646 0.949 . S
C641 H636 0.950 . S
C641 C643 1.327 . S
C641 C647 1.429 . S
C642 C634 1.574 . S
C642 H637 0.949 . S
C642 C648 1.368 . S
C643 C627 1.349 . S
C643 H635 0.950 . S
C643 C641 1.327 . S
C644 C632 1.349 . S
C644 H638 0.950 . S
C644 C645 1.327 . S
C645 H639 0.950 . S
C645 C644 1.327 . S
C645 C649 1.429 . S
C646 C629 1.574 . S
C646 H640 0.949 . S
C646 C650 1.368 . S
C647 C628 1.429 . S
C647 C641 1.429 . S
C647 C648 1.523 . S
C648 C629 1.368 . S
C648 C642 1.368 . S
C648 C647 1.523 . S
C649 C633 1.429 . S
C649 C645 1.429 . S
C649 C650 1.523 . S
C650 C634 1.368 . S
C650 C646 1.368 . S
C650 C649 1.523 . S
H651 C626 0.950 . S
H652 C628 0.950 . S
H653 C629 0.949 . S
H654 C631 0.950 . S
H655 C633 0.950 . S
C656 C657 1.349 . S
C656 C658 1.327 . S
C656 H681 0.950 . S
C657 C656 1.349 . S
C657 C673 1.349 . S
C658 C656 1.327 . S
C658 C677 1.429 . S
C658 H682 0.950 . S
C659 C676 1.574 . S
C659 C678 1.368 . S
C659 H683 0.949 . S
H660 C664 0.949 . S
C661 C662 1.349 . S
C661 C663 1.327 . S
C661 H684 0.950 . S
C662 C661 1.349 . S
C662 C674 1.349 . S
C663 C661 1.327 . S
C663 C679 1.429 . S
C663 H685 0.950 . S
C664 H660 0.949 . S
C664 C672 1.574 . S
C664 C680 1.368 . S
H665 C673 0.950 . S
H666 C671 0.950 . S
H667 C672 0.949 . S
H668 C674 0.950 . S
H669 C675 0.950 . S
H670 C676 0.949 . S
C671 H666 0.950 . S
C671 C673 1.327 . S
C671 C677 1.429 . S
C672 C664 1.574 . S
C672 H667 0.949 . S
C672 C678 1.368 . S
C673 C657 1.349 . S
C673 H665 0.950 . S
C673 C671 1.327 . S
C674 C662 1.349 . S
C674 H668 0.950 . S
C674 C675 1.327 . S
C675 H669 0.950 . S
C675 C674 1.327 . S
C675 C679 1.429 . S
C676 C659 1.574 . S
C676 H670 0.949 . S
C676 C680 1.368 . S
C677 C658 1.429 . S
C677 C671 1.429 . S
C677 C678 1.523 . S
C678 C659 1.368 . S
C678 C672 1.368 . S
C678 C677 1.523 . S
C679 C663 1.429 . S
C679 C675 1.429 . S
C679 C680 1.523 . S
C680 C664 1.368 . S
C680 C676 1.368 . S
C680 C679 1.523 . S
H681 C656 0.950 . S
H682 C658 0.950 . S
H683 C659 0.949 . S
H684 C661 0.950 . S
H685 C663 0.950 . S
C686 C687 1.349 . S
C686 C688 1.327 . S
C686 H711 0.950 . S
C687 C686 1.349 . S
C687 C703 1.349 . S
C688 C686 1.327 . S
C688 C707 1.429 . S
C688 H712 0.950 . S
C689 C706 1.574 . S
C689 C708 1.368 . S
C689 H713 0.949 . S
H690 C694 0.949 . S
C691 C692 1.349 . S
C691 C693 1.327 . S
C691 H714 0.950 . S
C692 C691 1.349 . S
C692 C704 1.349 . S
C693 C691 1.327 . S
C693 C709 1.429 . S
C693 H715 0.950 . S
C694 H690 0.949 . S
C694 C702 1.574 . S
C694 C710 1.368 . S
H695 C703 0.950 . S
H696 C701 0.950 . S
H697 C702 0.949 . S
H698 C704 0.950 . S
H699 C705 0.950 . S
H700 C706 0.949 . S
C701 H696 0.950 . S
C701 C703 1.327 . S
C701 C707 1.429 . S
C702 C694 1.574 . S
C702 H697 0.949 . S
C702 C708 1.368 . S
C703 C687 1.349 . S
C703 H695 0.950 . S
C703 C701 1.327 . S
C704 C692 1.349 . S
C704 H698 0.950 . S
C704 C705 1.327 . S
C705 H699 0.950 . S
C705 C704 1.327 . S
C705 C709 1.429 . S
C706 C689 1.574 . S
C706 H700 0.949 . S
C706 C710 1.368 . S
C707 C688 1.429 . S
C707 C701 1.429 . S
C707 C708 1.523 . S
C708 C689 1.368 . S
C708 C702 1.368 . S
C708 C707 1.523 . S
C709 C693 1.429 . S
C709 C705 1.429 . S
C709 C710 1.523 . S
C710 C694 1.368 . S
C710 C706 1.368 . S
C710 C709 1.523 . S
H711 C686 0.950 . S
H712 C688 0.950 . S
H713 C689 0.949 . S
H714 C691 0.950 . S
H715 C693 0.950 . S
C716 C717 1.349 . S
C716 C718 1.327 . S
C716 H741 0.950 . S
C717 C716 1.349 . S
C717 C733 1.349 . S
C718 C716 1.327 . S
C718 C737 1.429 . S
C718 H742 0.950 . S
C719 C736 1.574 . S
C719 C738 1.368 . S
C719 H743 0.949 . S
H720 C724 0.949 . S
C721 C722 1.349 . S
C721 C723 1.327 . S
C721 H744 0.950 . S
C722 C721 1.349 . S
C722 C734 1.349 . S
C723 C721 1.327 . S
C723 C739 1.429 . S
C723 H745 0.950 . S
C724 H720 0.949 . S
C724 C732 1.574 . S
C724 C740 1.368 . S
H725 C733 0.950 . S
H726 C731 0.950 . S
H727 C732 0.949 . S
H728 C734 0.950 . S
H729 C735 0.950 . S
H730 C736 0.949 . S
C731 H726 0.950 . S
C731 C733 1.327 . S
C731 C737 1.429 . S
C732 C724 1.574 . S
C732 H727 0.949 . S
C732 C738 1.368 . S
C733 C717 1.349 . S
C733 H725 0.950 . S
C733 C731 1.327 . S
C734 C722 1.349 . S
C734 H728 0.950 . S
C734 C735 1.327 . S
C735 H729 0.950 . S
C735 C734 1.327 . S
C735 C739 1.429 . S
C736 C719 1.574 . S
C736 H730 0.949 . S
C736 C740 1.368 . S
C737 C718 1.429 . S
C737 C731 1.429 . S
C737 C738 1.523 . S
C738 C719 1.368 . S
C738 C732 1.368 . S
C738 C737 1.523 . S
C739 C723 1.429 . S
C739 C735 1.429 . S
C739 C740 1.523 . S
C740 C724 1.368 . S
C740 C736 1.368 . S
C740 C739 1.523 . S
H741 C716 0.950 . S
H742 C718 0.950 . S
H743 C719 0.949 . S
H744 C721 0.950 . S
H745 C723 0.950 . S
C746 C747 1.349 . S
C746 C748 1.327 . S
C746 H771 0.950 . S
C747 C746 1.349 . S
C747 C763 1.349 . S
C748 C746 1.327 . S
C748 C767 1.429 . S
C748 H772 0.950 . S
C749 C766 1.574 . S
C749 C768 1.368 . S
C749 H773 0.949 . S
H750 C754 0.949 . S
C751 C752 1.349 . S
C751 C753 1.327 . S
C751 H774 0.950 . S
C752 C751 1.349 . S
C752 C764 1.349 . S
C753 C751 1.327 . S
C753 C769 1.429 . S
C753 H775 0.950 . S
C754 H750 0.949 . S
C754 C762 1.574 . S
C754 C770 1.368 . S
H755 C763 0.950 . S
H756 C761 0.950 . S
H757 C762 0.949 . S
H758 C764 0.950 . S
H759 C765 0.950 . S
H760 C766 0.949 . S
C761 H756 0.950 . S
C761 C763 1.327 . S
C761 C767 1.429 . S
C762 C754 1.574 . S
C762 H757 0.949 . S
C762 C768 1.368 . S
C763 C747 1.349 . S
C763 H755 0.950 . S
C763 C761 1.327 . S
C764 C752 1.349 . S
C764 H758 0.950 . S
C764 C765 1.327 . S
C765 H759 0.950 . S
C765 C764 1.327 . S
C765 C769 1.429 . S
C766 C749 1.574 . S
C766 H760 0.949 . S
C766 C770 1.368 . S
C767 C748 1.429 . S
C767 C761 1.429 . S
C767 C768 1.523 . S
C768 C749 1.368 . S
C768 C762 1.368 . S
C768 C767 1.523 . S
C769 C753 1.429 . S
C769 C765 1.429 . S
C769 C770 1.523 . S
C770 C754 1.368 . S
C770 C766 1.368 . S
C770 C769 1.523 . S
H771 C746 0.950 . S
H772 C748 0.950 . S
H773 C749 0.949 . S
H774 C751 0.950 . S
H775 C753 0.950 . S
C776 C777 1.349 . S
C776 C778 1.327 . S
C776 H801 0.950 . S
C777 C776 1.349 . S
C777 C793 1.349 . S
C778 C776 1.327 . S
C778 C797 1.429 . S
C778 H802 0.950 . S
C779 C796 1.574 . S
C779 C798 1.368 . S
C779 H803 0.949 . S
H780 C784 0.949 . S
C781 C782 1.349 . S
C781 C783 1.327 . S
C781 H804 0.950 . S
C782 C781 1.349 . S
C782 C794 1.349 . S
C783 C781 1.327 . S
C783 C799 1.429 . S
C783 H805 0.950 . S
C784 H780 0.949 . S
C784 C792 1.574 . S
C784 C800 1.368 . S
H785 C793 0.950 . S
H786 C791 0.950 . S
H787 C792 0.949 . S
H788 C794 0.950 . S
H789 C795 0.950 . S
H790 C796 0.949 . S
C791 H786 0.950 . S
C791 C793 1.327 . S
C791 C797 1.429 . S
C792 C784 1.574 . S
C792 H787 0.949 . S
C792 C798 1.368 . S
C793 C777 1.349 . S
C793 H785 0.950 . S
C793 C791 1.327 . S
C794 C782 1.349 . S
C794 H788 0.950 . S
C794 C795 1.327 . S
C795 H789 0.950 . S
C795 C794 1.327 . S
C795 C799 1.429 . S
C796 C779 1.574 . S
C796 H790 0.949 . S
C796 C800 1.368 . S
C797 C778 1.429 . S
C797 C791 1.429 . S
C797 C798 1.523 . S
C798 C779 1.368 . S
C798 C792 1.368 . S
C798 C797 1.523 . S
C799 C783 1.429 . S
C799 C795 1.429 . S
C799 C800 1.523 . S
C800 C784 1.368 . S
C800 C796 1.368 . S
C800 C799 1.523 . S
H801 C776 0.950 . S
H802 C778 0.950 . S
H803 C779 0.949 . S
H804 C781 0.950 . S
H805 C783 0.950 . S
C806 C807 1.349 . S
C806 C808 1.327 . S
C806 H831 0.950 . S
C807 C806 1.349 . S
C807 C823 1.349 . S
C808 C806 1.327 . S
C808 C827 1.429 . S
C808 H832 0.950 . S
C809 C826 1.574 . S
C809 C828 1.368 . S
C809 H833 0.949 . S
H810 C814 0.949 . S
C811 C812 1.349 . S
C811 C813 1.327 . S
C811 H834 0.950 . S
C812 C811 1.349 . S
C812 C824 1.349 . S
C813 C811 1.327 . S
C813 C829 1.429 . S
C813 H835 0.950 . S
C814 H810 0.949 . S
C814 C822 1.574 . S
C814 C830 1.368 . S
H815 C823 0.950 . S
H816 C821 0.950 . S
H817 C822 0.949 . S
H818 C824 0.950 . S
H819 C825 0.950 . S
H820 C826 0.949 . S
C821 H816 0.950 . S
C821 C823 1.327 . S
C821 C827 1.429 . S
C822 C814 1.574 . S
C822 H817 0.949 . S
C822 C828 1.368 . S
C823 C807 1.349 . S
C823 H815 0.950 . S
C823 C821 1.327 . S
C824 C812 1.349 . S
C824 H818 0.950 . S
C824 C825 1.327 . S
C825 H819 0.950 . S
C825 C824 1.327 . S
C825 C829 1.429 . S
C826 C809 1.574 . S
C826 H820 0.949 . S
C826 C830 1.368 . S
C827 C808 1.429 . S
C827 C821 1.429 . S
C827 C828 1.523 . S
C828 C809 1.368 . S
C828 C822 1.368 . S
C828 C827 1.523 . S
C829 C813 1.429 . S
C829 C825 1.429 . S
C829 C830 1.523 . S
C830 C814 1.368 . S
C830 C826 1.368 . S
C830 C829 1.523 . S
H831 C806 0.950 . S
H832 C808 0.950 . S
H833 C809 0.949 . S
H834 C811 0.950 . S
H835 C813 0.950 . S
C836 C837 1.349 . S
C836 C838 1.327 . S
C836 H861 0.950 . S
C837 C836 1.349 . S
C837 C853 1.349 . S
C838 C836 1.327 . S
C838 C857 1.429 . S
C838 H862 0.950 . S
C839 C856 1.574 . S
C839 C858 1.368 . S
C839 H863 0.949 . S
H840 C844 0.949 . S
C841 C842 1.349 . S
C841 C843 1.327 . S
C841 H864 0.950 . S
C842 C841 1.349 . S
C842 C854 1.349 . S
C843 C841 1.327 . S
C843 C859 1.429 . S
C843 H865 0.950 . S
C844 H840 0.949 . S
C844 C852 1.574 . S
C844 C860 1.368 . S
H845 C853 0.950 . S
H846 C851 0.950 . S
H847 C852 0.949 . S
H848 C854 0.950 . S
H849 C855 0.950 . S
H850 C856 0.949 . S
C851 H846 0.950 . S
C851 C853 1.327 . S
C851 C857 1.429 . S
C852 C844 1.574 . S
C852 H847 0.949 . S
C852 C858 1.368 . S
C853 C837 1.349 . S
C853 H845 0.950 . S
C853 C851 1.327 . S
C854 C842 1.349 . S
C854 H848 0.950 . S
C854 C855 1.327 . S
C855 H849 0.950 . S
C855 C854 1.327 . S
C855 C859 1.429 . S
C856 C839 1.574 . S
C856 H850 0.949 . S
C856 C860 1.368 . S
C857 C838 1.429 . S
C857 C851 1.429 . S
C857 C858 1.523 . S
C858 C839 1.368 . S
C858 C852 1.368 . S
C858 C857 1.523 . S
C859 C843 1.429 . S
C859 C855 1.429 . S
C859 C860 1.523 . S
C860 C844 1.368 . S
C860 C856 1.368 . S
C860 C859 1.523 . S
H861 C836 0.950 . S
H862 C838 0.950 . S
H863 C839 0.949 . S
H864 C841 0.950 . S
H865 C843 0.950 . S
C866 C867 1.349 . S
C866 C868 1.327 . S
C866 H891 0.950 . S
C867 C866 1.349 . S
C867 C883 1.349 . S
C868 C866 1.327 . S
C868 C887 1.429 . S
C868 H892 0.950 . S
C869 C886 1.574 . S
C869 C888 1.368 . S
C869 H893 0.949 . S
H870 C874 0.949 . S
C871 C872 1.349 . S
C871 C873 1.327 . S
C871 H894 0.950 . S
C872 C871 1.349 . S
C872 C884 1.349 . S
C873 C871 1.327 . S
C873 C889 1.429 . S
C873 H895 0.950 . S
C874 H870 0.949 . S
C874 C882 1.574 . S
C874 C890 1.368 . S
H875 C883 0.950 . S
H876 C881 0.950 . S
H877 C882 0.949 . S
H878 C884 0.950 . S
H879 C885 0.950 . S
H880 C886 0.949 . S
C881 H876 0.950 . S
C881 C883 1.327 . S
C881 C887 1.429 . S
C882 C874 1.574 . S
C882 H877 0.949 . S
C882 C888 1.368 . S
C883 C867 1.349 . S
C883 H875 0.950 . S
C883 C881 1.327 . S
C884 C872 1.349 . S
C884 H878 0.950 . S
C884 C885 1.327 . S
C885 H879 0.950 . S
C885 C884 1.327 . S
C885 C889 1.429 . S
C886 C869 1.574 . S
C886 H880 0.949 . S
C886 C890 1.368 . S
C887 C868 1.429 . S
C887 C881 1.429 . S
C887 C888 1.523 . S
C888 C869 1.368 . S
C888 C882 1.368 . S
C888 C887 1.523 . S
C889 C873 1.429 . S
C889 C885 1.429 . S
C889 C890 1.523 . S
C890 C874 1.368 . S
C890 C886 1.368 . S
C890 C889 1.523 . S
H891 C866 0.950 . S
H892 C868 0.950 . S
H893 C869 0.949 . S
H894 C871 0.950 . S
H895 C873 0.950 . S
C896 C897 1.349 . S
C896 C898 1.327 . S
C896 H921 0.950 . S
C897 C896 1.349 . S
C897 C913 1.349 . S
C898 C896 1.327 . S
C898 C917 1.429 . S
C898 H922 0.950 . S
C899 C916 1.574 1_565 S
C899 C918 1.368 . S
C899 H923 0.949 . S
H900 C904 0.949 . S
C901 C902 1.349 . S
C901 C903 1.327 . S
C901 H924 0.950 . S
C902 C901 1.349 . S
C902 C914 1.349 . S
C903 C901 1.327 . S
C903 C919 1.429 . S
C903 H925 0.950 . S
C904 H900 0.949 . S
C904 C912 1.574 1_545 S
C904 C920 1.368 . S
H905 C913 0.950 . S
H906 C911 0.950 . S
H907 C912 0.949 . S
H908 C914 0.950 . S
H909 C915 0.950 . S
H910 C916 0.949 . S
C911 H906 0.950 . S
C911 C913 1.327 . S
C911 C917 1.429 . S
C912 C904 1.574 1_565 S
C912 H907 0.949 . S
C912 C918 1.368 . S
C913 C897 1.349 . S
C913 H905 0.950 . S
C913 C911 1.327 . S
C914 C902 1.349 . S
C914 H908 0.950 . S
C914 C915 1.327 . S
C915 H909 0.950 . S
C915 C914 1.327 . S
C915 C919 1.429 . S
C916 C899 1.574 1_545 S
C916 H910 0.949 . S
C916 C920 1.368 . S
C917 C898 1.429 . S
C917 C911 1.429 . S
C917 C918 1.523 . S
C918 C899 1.368 . S
C918 C912 1.368 . S
C918 C917 1.523 . S
C919 C903 1.429 . S
C919 C915 1.429 . S
C919 C920 1.523 . S
C920 C904 1.368 . S
C920 C916 1.368 . S
C920 C919 1.523 . S
H921 C896 0.950 . S
H922 C898 0.950 . S
H923 C899 0.949 . S
H924 C901 0.950 . S
H925 C903 0.950 . S
C926 C927 1.349 . S
C926 C928 1.327 . S
C926 H951 0.950 . S
C927 C926 1.349 . S
C927 C943 1.349 . S
C928 C926 1.327 . S
C928 C947 1.429 . S
C928 H952 0.950 1_655 S
C929 C946 1.574 . S
C929 C948 1.368 . S
C929 H953 0.949 . S
H930 C934 0.949 . S
C931 C932 1.349 . S
C931 C933 1.327 . S
C931 H954 0.950 . S
C932 C931 1.349 . S
C932 C944 1.349 . S
C933 C931 1.327 . S
C933 C949 1.429 . S
C933 H955 0.950 1_455 S
C934 H930 0.949 . S
C934 C942 1.574 . S
C934 C950 1.368 . S
H935 C943 0.950 . S
H936 C941 0.950 . S
H937 C942 0.949 . S
H938 C944 0.950 . S
H939 C945 0.950 . S
H940 C946 0.949 . S
C941 H936 0.950 . S
C941 C943 1.327 . S
C941 C947 1.429 . S
C942 C934 1.574 . S
C942 H937 0.949 . S
C942 C948 1.368 1_455 S
C943 C927 1.349 . S
C943 H935 0.950 . S
C943 C941 1.327 . S
C944 C932 1.349 . S
C944 H938 0.950 . S
C944 C945 1.327 . S
C945 H939 0.950 . S
C945 C944 1.327 . S
C945 C949 1.429 . S
C946 C929 1.574 . S
C946 H940 0.949 . S
C946 C950 1.368 1_655 S
C947 C928 1.429 . S
C947 C941 1.429 . S
C947 C948 1.523 . S
C948 C929 1.368 . S
C948 C942 1.368 1_655 S
C948 C947 1.523 . S
C949 C933 1.429 . S
C949 C945 1.429 . S
C949 C950 1.523 . S
C950 C934 1.368 . S
C950 C946 1.368 1_455 S
C950 C949 1.523 . S
H951 C926 0.950 . S
H952 C928 0.950 1_455 S
H953 C929 0.949 . S
H954 C931 0.950 . S
H955 C933 0.950 1_655 S
C956 C957 1.349 . S
C956 C958 1.327 1_556 S
C956 H981 0.950 1_556 S
C957 C956 1.349 . S
C957 C973 1.349 . S
C958 C956 1.327 1_554 S
C958 C977 1.429 1_554 S
C958 H982 0.950 . S
C959 C976 1.574 . S
C959 C978 1.368 . S
C959 H983 0.949 . S
H960 C964 0.949 . S
C961 C962 1.349 . S
C961 C963 1.327 1_554 S
C961 H984 0.950 1_554 S
C962 C961 1.349 . S
C962 C974 1.349 . S
C963 C961 1.327 1_556 S
C963 C979 1.429 1_556 S
C963 H985 0.950 . S
C964 H960 0.949 . S
C964 C972 1.574 . S
C964 C980 1.368 . S
H965 C973 0.950 . S
H966 C971 0.950 . S
H967 C972 0.949 . S
H968 C974 0.950 . S
H969 C975 0.950 . S
H970 C976 0.949 . S
C971 H966 0.950 . S
C971 C973 1.327 . S
C971 C977 1.429 . S
C972 C964 1.574 . S
C972 H967 0.949 . S
C972 C978 1.368 1_554 S
C973 C957 1.349 . S
C973 H965 0.950 . S
C973 C971 1.327 . S
C974 C962 1.349 . S
C974 H968 0.950 . S
C974 C975 1.327 . S
C975 H969 0.950 . S
C975 C974 1.327 . S
C975 C979 1.429 . S
C976 C959 1.574 . S
C976 H970 0.949 . S
C976 C980 1.368 1_556 S
C977 C958 1.429 1_556 S
C977 C971 1.429 . S
C977 C978 1.523 . S
C978 C959 1.368 . S
C978 C972 1.368 1_556 S
C978 C977 1.523 . S
C979 C963 1.429 1_554 S
C979 C975 1.429 . S
C979 C980 1.523 . S
C980 C964 1.368 . S
C980 C976 1.368 1_554 S
C980 C979 1.523 . S
H981 C956 0.950 1_554 S
H982 C958 0.950 . S
H983 C959 0.949 . S
H984 C961 0.950 1_556 S
H985 C963 0.950 . S
C986 C987 1.349 . S
C986 C988 1.327 1_556 S
C986 H1011 0.950 1_556 S
C987 C986 1.349 . S
C987 C1003 1.349 . S
C988 C986 1.327 1_554 S
C988 C1007 1.429 1_554 S
C988 H1012 0.950 1_455 S
C989 C1006 1.574 1_545 S
C989 C1008 1.368 . S
C989 H1013 0.949 . S
H990 C994 0.949 . S
C991 C992 1.349 . S
C991 C993 1.327 1_554 S
C991 H1014 0.950 1_554 S
C992 C991 1.349 . S
C992 C1004 1.349 . S
C993 C991 1.327 1_556 S
C993 C1009 1.429 1_556 S
C993 H1015 0.950 1_655 S
C994 H990 0.949 . S
C994 C1002 1.574 1_565 S
C994 C1010 1.368 . S
H995 C1003 0.950 . S
H996 C1001 0.950 . S
H997 C1002 0.949 . S
H998 C1004 0.950 . S
H999 C1005 0.950 . S
H1000 C1006 0.949 . S
C1001 H996 0.950 . S
C1001 C1003 1.327 . S
C1001 C1007 1.429 . S
C1002 C994 1.574 1_545 S
C1002 H997 0.949 . S
C1002 C1008 1.368 1_654 S
C1003 C987 1.349 . S
C1003 H995 0.950 . S
C1003 C1001 1.327 . S
C1004 C992 1.349 . S
C1004 H998 0.950 . S
C1004 C1005 1.327 . S
C1005 H999 0.950 . S
C1005 C1004 1.327 . S
C1005 C1009 1.429 . S
C1006 C989 1.574 1_565 S
C1006 H1000 0.949 . S
C1006 C1010 1.368 1_456 S
C1007 C988 1.429 1_556 S
C1007 C1001 1.429 . S
C1007 C1008 1.523 . S
C1008 C989 1.368 . S
C1008 C1002 1.368 1_456 S
C1008 C1007 1.523 . S
C1009 C993 1.429 1_554 S
C1009 C1005 1.429 . S
C1009 C1010 1.523 . S
C1010 C994 1.368 . S
C1010 C1006 1.368 1_654 S
C1010 C1009 1.523 . S
H1011 C986 0.950 1_554 S
H1012 C988 0.950 1_655 S
H1013 C989 0.949 . S
H1014 C991 0.950 1_556 S
H1015 C993 0.950 1_455 S
C1016 C1017 1.349 . S
C1016 C1018 1.327 . S
C1016 H1041 0.950 . S
C1017 C1016 1.349 . S
C1017 C1033 1.349 . S
C1018 C1016 1.327 . S
C1018 C1037 1.429 . S
C1018 H1042 0.950 . S
C1019 C1036 1.574 1_545 S
C1019 C1038 1.368 . S
C1019 H1043 0.949 . S
H1020 C1024 0.949 . S
C1021 C1022 1.349 . S
C1021 C1023 1.327 . S
C1021 H1044 0.950 . S
C1022 C1021 1.349 . S
C1022 C1034 1.349 . S
C1023 C1021 1.327 . S
C1023 C1039 1.429 . S
C1023 H1045 0.950 . S
C1024 H1020 0.949 . S
C1024 C1032 1.574 1_565 S
C1024 C1040 1.368 . S
H1025 C1033 0.950 . S
H1026 C1031 0.950 . S
H1027 C1032 0.949 . S
H1028 C1034 0.950 . S
H1029 C1035 0.950 . S
H1030 C1036 0.949 . S
C1031 H1026 0.950 . S
C1031 C1033 1.327 . S
C1031 C1037 1.429 . S
C1032 C1024 1.574 1_545 S
C1032 H1027 0.949 . S
C1032 C1038 1.368 . S
C1033 C1017 1.349 . S
C1033 H1025 0.950 . S
C1033 C1031 1.327 . S
C1034 C1022 1.349 . S
C1034 H1028 0.950 . S
C1034 C1035 1.327 . S
C1035 H1029 0.950 . S
C1035 C1034 1.327 . S
C1035 C1039 1.429 . S
C1036 C1019 1.574 1_565 S
C1036 H1030 0.949 . S
C1036 C1040 1.368 . S
C1037 C1018 1.429 . S
C1037 C1031 1.429 . S
C1037 C1038 1.523 . S
C1038 C1019 1.368 . S
C1038 C1032 1.368 . S
C1038 C1037 1.523 . S
C1039 C1023 1.429 . S
C1039 C1035 1.429 . S
C1039 C1040 1.523 . S
C1040 C1024 1.368 . S
C1040 C1036 1.368 . S
C1040 C1039 1.523 . S
H1041 C1016 0.950 . S
H1042 C1018 0.950 . S
H1043 C1019 0.949 . S
H1044 C1021 0.950 . S
H1045 C1023 0.950 . S
C1046 C1047 1.349 . S
C1046 C1048 1.327 . S
C1046 H1071 0.950 . S
C1047 C1046 1.349 . S
C1047 C1063 1.349 . S
C1048 C1046 1.327 . S
C1048 C1067 1.429 . S
C1048 H1072 0.950 . S
C1049 C1066 1.574 . S
C1049 C1068 1.368 1_655 S
C1049 H1073 0.949 . S
H1050 C1054 0.949 . S
C1051 C1052 1.349 . S
C1051 C1053 1.327 . S
C1051 H1074 0.950 . S
C1052 C1051 1.349 . S
C1052 C1064 1.349 . S
C1053 C1051 1.327 . S
C1053 C1069 1.429 . S
C1053 H1075 0.950 . S
C1054 H1050 0.949 . S
C1054 C1062 1.574 . S
C1054 C1070 1.368 1_455 S
H1055 C1063 0.950 . S
H1056 C1061 0.950 1_655 S
H1057 C1062 0.949 . S
H1058 C1064 0.950 . S
H1059 C1065 0.950 1_455 S
H1060 C1066 0.949 . S
C1061 H1056 0.950 1_455 S
C1061 C1063 1.327 . S
C1061 C1067 1.429 . S
C1062 C1054 1.574 . S
C1062 H1057 0.949 . S
C1062 C1068 1.368 . S
C1063 C1047 1.349 . S
C1063 H1055 0.950 . S
C1063 C1061 1.327 . S
C1064 C1052 1.349 . S
C1064 H1058 0.950 . S
C1064 C1065 1.327 . S
C1065 H1059 0.950 1_655 S
C1065 C1064 1.327 . S
C1065 C1069 1.429 . S
C1066 C1049 1.574 . S
C1066 H1060 0.949 . S
C1066 C1070 1.368 . S
C1067 C1048 1.429 . S
C1067 C1061 1.429 . S
C1067 C1068 1.523 . S
C1068 C1049 1.368 1_455 S
C1068 C1062 1.368 . S
C1068 C1067 1.523 . S
C1069 C1053 1.429 . S
C1069 C1065 1.429 . S
C1069 C1070 1.523 . S
C1070 C1054 1.368 1_655 S
C1070 C1066 1.368 . S
C1070 C1069 1.523 . S
H1071 C1046 0.950 . S
H1072 C1048 0.950 . S
H1073 C1049 0.949 . S
H1074 C1051 0.950 . S
H1075 C1053 0.950 . S
C1076 C1077 1.349 . S
C1076 C1078 1.327 . S
C1076 H1101 0.950 . S
C1077 C1076 1.349 . S
C1077 C1093 1.381 . S
C1078 C1076 1.327 . S
C1078 C1097 1.429 . S
C1078 H1102 0.950 . S
C1079 C1096 1.574 . S
C1079 C1098 1.368 1_554 S
C1079 H1103 0.949 . S
H1080 C1084 0.949 . S
C1081 C1082 1.349 . S
C1081 C1083 1.327 . S
C1081 H1104 0.950 . S
C1082 C1081 1.349 . S
C1082 C1094 1.381 . S
C1083 C1081 1.327 . S
C1083 C1099 1.429 . S
C1083 H1105 0.950 . S
C1084 H1080 0.949 . S
C1084 C1092 1.574 . S
C1084 C1100 1.368 1_556 S
H1085 C1093 0.927 1_554 S
H1086 C1091 0.950 . S
H1087 C1092 0.949 . S
H1088 C1094 0.927 1_556 S
H1089 C1095 0.950 . S
H1090 C1096 0.949 . S
C1091 H1086 0.950 . S
C1091 C1093 1.319 1_554 S
C1091 C1097 1.429 1_554 S
C1092 C1084 1.574 . S
C1092 H1087 0.949 . S
C1092 C1098 1.368 . S
C1093 C1077 1.381 . S
C1093 H1085 0.927 1_556 S
C1093 C1091 1.319 1_556 S
C1094 C1082 1.381 . S
C1094 H1088 0.927 1_554 S
C1094 C1095 1.319 1_554 S
C1095 H1089 0.950 . S
C1095 C1094 1.319 1_556 S
C1095 C1099 1.429 1_556 S
C1096 C1079 1.574 . S
C1096 H1090 0.949 . S
C1096 C1100 1.368 . S
C1097 C1078 1.429 . S
C1097 C1091 1.429 1_556 S
C1097 C1098 1.523 . S
C1098 C1079 1.368 1_556 S
C1098 C1092 1.368 . S
C1098 C1097 1.523 . S
C1099 C1083 1.429 . S
C1099 C1095 1.429 1_554 S
C1099 C1100 1.523 . S
C1100 C1084 1.368 1_554 S
C1100 C1096 1.368 . S
C1100 C1099 1.523 . S
H1101 C1076 0.950 . S
H1102 C1078 0.950 . S
H1103 C1079 0.949 . S
H1104 C1081 0.950 . S
H1105 C1083 0.950 . S
C1106 C1107 1.349 . S
C1106 C1108 1.327 . S
C1106 H1131 0.950 . S
C1107 C1106 1.349 . S
C1107 C1123 1.349 . S
C1108 C1106 1.327 . S
C1108 C1127 1.429 . S
C1108 H1132 0.950 . S
C1109 C1126 1.574 . S
C1109 C1128 1.368 . S
C1109 H1133 0.949 . S
H1110 C1114 0.949 . S
C1111 C1112 1.349 . S
C1111 C1113 1.327 . S
C1111 H1134 0.950 . S
C1112 C1111 1.349 . S
C1112 C1124 1.349 . S
C1113 C1111 1.327 . S
C1113 C1129 1.429 . S
C1113 H1135 0.950 . S
C1114 H1110 0.949 . S
C1114 C1122 1.574 . S
C1114 C1130 1.368 . S
H1115 C1123 0.950 . S
H1116 C1121 0.950 . S
H1117 C1122 0.949 . S
H1118 C1124 0.950 . S
H1119 C1125 0.950 . S
H1120 C1126 0.949 . S
C1121 H1116 0.950 . S
C1121 C1123 1.327 . S
C1121 C1127 1.429 . S
C1122 C1114 1.574 . S
C1122 H1117 0.949 . S
C1122 C1128 1.368 . S
C1123 C1107 1.349 . S
C1123 H1115 0.950 . S
C1123 C1121 1.327 . S
C1124 C1112 1.349 . S
C1124 H1118 0.950 . S
C1124 C1125 1.327 . S
C1125 H1119 0.950 . S
C1125 C1124 1.327 . S
C1125 C1129 1.429 . S
C1126 C1109 1.574 . S
C1126 H1120 0.949 . S
C1126 C1130 1.368 . S
C1127 C1108 1.429 . S
C1127 C1121 1.429 . S
C1127 C1128 1.523 . S
C1128 C1109 1.368 . S
C1128 C1122 1.368 . S
C1128 C1127 1.523 . S
C1129 C1113 1.429 . S
C1129 C1125 1.429 . S
C1129 C1130 1.523 . S
C1130 C1114 1.368 . S
C1130 C1126 1.368 . S
C1130 C1129 1.523 . S
H1131 C1106 0.950 . S
H1132 C1108 0.950 . S
H1133 C1109 0.949 . S
H1134 C1111 0.950 . S
H1135 C1113 0.950 . S
C1136 C1137 1.349 . S
C1136 C1138 1.327 . S
C1136 H1161 0.950 . S
C1137 C1136 1.349 . S
C1137 C1153 1.349 . S
C1138 C1136 1.327 . S
C1138 C1157 1.429 . S
C1138 H1162 0.950 . S
C1139 C1156 1.574 . S
C1139 C1158 1.368 . S
C1139 H1163 0.949 . S
H1140 C1144 0.949 . S
C1141 C1142 1.349 . S
C1141 C1143 1.327 . S
C1141 H1164 0.950 . S
C1142 C1141 1.349 . S
C1142 C1154 1.349 . S
C1143 C1141 1.327 . S
C1143 C1159 1.429 . S
C1143 H1165 0.950 . S
C1144 H1140 0.949 . S
C1144 C1152 1.574 . S
C1144 C1160 1.368 . S
H1145 C1153 0.950 . S
H1146 C1151 0.950 . S
H1147 C1152 0.949 . S
H1148 C1154 0.950 . S
H1149 C1155 0.950 . S
H1150 C1156 0.949 . S
C1151 H1146 0.950 . S
C1151 C1153 1.327 . S
C1151 C1157 1.429 . S
C1152 C1144 1.574 . S
C1152 H1147 0.949 . S
C1152 C1158 1.368 . S
C1153 C1137 1.349 . S
C1153 H1145 0.950 . S
C1153 C1151 1.327 . S
C1154 C1142 1.349 . S
C1154 H1148 0.950 . S
C1154 C1155 1.327 . S
C1155 H1149 0.950 . S
C1155 C1154 1.327 . S
C1155 C1159 1.429 . S
C1156 C1139 1.574 . S
C1156 H1150 0.949 . S
C1156 C1160 1.368 . S
C1157 C1138 1.429 . S
C1157 C1151 1.429 . S
C1157 C1158 1.523 . S
C1158 C1139 1.368 . S
C1158 C1152 1.368 . S
C1158 C1157 1.523 . S
C1159 C1143 1.429 . S
C1159 C1155 1.429 . S
C1159 C1160 1.523 . S
C1160 C1144 1.368 . S
C1160 C1156 1.368 . S
C1160 C1159 1.523 . S
H1161 C1136 0.950 . S
H1162 C1138 0.950 . S
H1163 C1139 0.949 . S
H1164 C1141 0.950 . S
H1165 C1143 0.950 . S
C1166 C1167 1.349 . S
C1166 C1168 1.327 . S
C1166 H1191 0.950 . S
C1167 C1166 1.349 . S
C1167 C1183 1.349 . S
C1168 C1166 1.327 . S
C1168 C1187 1.429 . S
C1168 H1192 0.950 . S
C1169 C1186 1.574 . S
C1169 C1188 1.368 1_455 S
C1169 H1193 0.949 . S
H1170 C1174 0.949 . S
C1171 C1172 1.349 . S
C1171 C1173 1.327 . S
C1171 H1194 0.950 . S
C1172 C1171 1.349 . S
C1172 C1184 1.349 . S
C1173 C1171 1.327 . S
C1173 C1189 1.429 . S
C1173 H1195 0.950 . S
C1174 H1170 0.949 . S
C1174 C1182 1.574 . S
C1174 C1190 1.368 1_655 S
H1175 C1183 0.950 . S
H1176 C1181 0.950 . S
H1177 C1182 0.949 . S
H1178 C1184 0.950 . S
H1179 C1185 0.950 . S
H1180 C1186 0.949 . S
C1181 H1176 0.950 . S
C1181 C1183 1.327 . S
C1181 C1187 1.429 . S
C1182 C1174 1.574 . S
C1182 H1177 0.949 . S
C1182 C1188 1.368 . S
C1183 C1167 1.349 . S
C1183 H1175 0.950 . S
C1183 C1181 1.327 . S
C1184 C1172 1.349 . S
C1184 H1178 0.950 . S
C1184 C1185 1.327 . S
C1185 H1179 0.950 . S
C1185 C1184 1.327 . S
C1185 C1189 1.429 . S
C1186 C1169 1.574 . S
C1186 H1180 0.949 . S
C1186 C1190 1.368 . S
C1187 C1168 1.429 . S
C1187 C1181 1.429 . S
C1187 C1188 1.523 . S
C1188 C1169 1.368 1_655 S
C1188 C1182 1.368 . S
C1188 C1187 1.523 . S
C1189 C1173 1.429 . S
C1189 C1185 1.429 . S
C1189 C1190 1.523 . S
C1190 C1174 1.368 1_455 S
C1190 C1186 1.368 . S
C1190 C1189 1.523 . S
H1191 C1166 0.950 . S
H1192 C1168 0.950 . S
H1193 C1169 0.949 . S
H1194 C1171 0.950 . S
H1195 C1173 0.950 . S
C1196 C1197 1.349 . S
C1196 C1198 1.327 . S
C1196 H1221 0.950 . S
C1197 C1196 1.349 . S
C1197 C1213 1.349 . S
C1198 C1196 1.327 . S
C1198 C1217 1.429 . S
C1198 H1222 0.950 . S
C1199 C1216 1.574 . S
C1199 C1218 1.368 . S
C1199 H1223 0.949 . S
H1200 C1204 0.949 . S
C1201 C1202 1.349 . S
C1201 C1203 1.327 . S
C1201 H1224 0.950 . S
C1202 C1201 1.349 . S
C1202 C1214 1.349 . S
C1203 C1201 1.327 . S
C1203 C1219 1.429 . S
C1203 H1225 0.950 . S
C1204 H1200 0.949 . S
C1204 C1212 1.574 . S
C1204 C1220 1.368 . S
H1205 C1213 0.950 . S
H1206 C1211 0.950 . S
H1207 C1212 0.949 . S
H1208 C1214 0.950 . S
H1209 C1215 0.950 . S
H1210 C1216 0.949 . S
C1211 H1206 0.950 . S
C1211 C1213 1.327 . S
C1211 C1217 1.429 . S
C1212 C1204 1.574 . S
C1212 H1207 0.949 . S
C1212 C1218 1.368 . S
C1213 C1197 1.349 . S
C1213 H1205 0.950 . S
C1213 C1211 1.327 . S
C1214 C1202 1.349 . S
C1214 H1208 0.950 . S
C1214 C1215 1.327 . S
C1215 H1209 0.950 . S
C1215 C1214 1.327 . S
C1215 C1219 1.429 . S
C1216 C1199 1.574 . S
C1216 H1210 0.949 . S
C1216 C1220 1.368 . S
C1217 C1198 1.429 . S
C1217 C1211 1.429 . S
C1217 C1218 1.523 . S
C1218 C1199 1.368 . S
C1218 C1212 1.368 . S
C1218 C1217 1.523 . S
C1219 C1203 1.429 . S
C1219 C1215 1.429 . S
C1219 C1220 1.523 . S
C1220 C1204 1.368 . S
C1220 C1216 1.368 . S
C1220 C1219 1.523 . S
H1221 C1196 0.950 . S
H1222 C1198 0.950 . S
H1223 C1199 0.949 . S
H1224 C1201 0.950 . S
H1225 C1203 0.950 . S
C1226 C1227 1.349 . S
C1226 C1228 1.327 . S
C1226 H1251 0.950 . S
C1227 C1226 1.349 . S
C1227 C1243 1.349 . S
C1228 C1226 1.327 . S
C1228 C1247 1.429 . S
C1228 H1252 0.950 . S
C1229 C1246 1.574 . S
C1229 C1248 1.368 . S
C1229 H1253 0.949 . S
H1230 C1234 0.949 . S
C1231 C1232 1.349 . S
C1231 C1233 1.327 . S
C1231 H1254 0.950 . S
C1232 C1231 1.349 . S
C1232 C1244 1.349 . S
C1233 C1231 1.327 . S
C1233 C1249 1.429 . S
C1233 H1255 0.950 . S
C1234 H1230 0.949 . S
C1234 C1242 1.574 . S
C1234 C1250 1.368 . S
H1235 C1243 0.950 . S
H1236 C1241 0.950 . S
H1237 C1242 0.949 . S
H1238 C1244 0.950 . S
H1239 C1245 0.950 . S
H1240 C1246 0.949 . S
C1241 H1236 0.950 . S
C1241 C1243 1.327 . S
C1241 C1247 1.429 . S
C1242 C1234 1.574 . S
C1242 H1237 0.949 . S
C1242 C1248 1.368 . S
C1243 C1227 1.349 . S
C1243 H1235 0.950 . S
C1243 C1241 1.327 . S
C1244 C1232 1.349 . S
C1244 H1238 0.950 . S
C1244 C1245 1.327 . S
C1245 H1239 0.950 . S
C1245 C1244 1.327 . S
C1245 C1249 1.429 . S
C1246 C1229 1.574 . S
C1246 H1240 0.949 . S
C1246 C1250 1.368 . S
C1247 C1228 1.429 . S
C1247 C1241 1.429 . S
C1247 C1248 1.523 . S
C1248 C1229 1.368 . S
C1248 C1242 1.368 . S
C1248 C1247 1.523 . S
C1249 C1233 1.429 . S
C1249 C1245 1.429 . S
C1249 C1250 1.523 . S
C1250 C1234 1.368 . S
C1250 C1246 1.368 . S
C1250 C1249 1.523 . S
H1251 C1226 0.950 . S
H1252 C1228 0.950 . S
H1253 C1229 0.949 . S
H1254 C1231 0.950 . S
H1255 C1233 0.950 . S
C1256 C1257 1.349 . S
C1256 C1258 1.327 . S
C1256 H1281 0.950 . S
C1257 C1256 1.349 . S
C1257 C1273 1.349 . S
C1258 C1256 1.327 . S
C1258 C1277 1.429 . S
C1258 H1282 0.950 . S
C1259 C1276 1.574 . S
C1259 C1278 1.368 . S
C1259 H1283 0.949 . S
H1260 C1264 0.949 . S
C1261 C1262 1.349 . S
C1261 C1263 1.327 . S
C1261 H1284 0.950 . S
C1262 C1261 1.349 . S
C1262 C1274 1.349 . S
C1263 C1261 1.327 . S
C1263 C1279 1.429 . S
C1263 H1285 0.950 . S
C1264 H1260 0.949 . S
C1264 C1272 1.574 . S
C1264 C1280 1.368 . S
H1265 C1273 0.950 . S
H1266 C1271 0.950 . S
H1267 C1272 0.949 . S
H1268 C1274 0.950 . S
H1269 C1275 0.950 . S
H1270 C1276 0.949 . S
C1271 H1266 0.950 . S
C1271 C1273 1.327 . S
C1271 C1277 1.429 . S
C1272 C1264 1.574 . S
C1272 H1267 0.949 . S
C1272 C1278 1.368 . S
C1273 C1257 1.349 . S
C1273 H1265 0.950 . S
C1273 C1271 1.327 . S
C1274 C1262 1.349 . S
C1274 H1268 0.950 . S
C1274 C1275 1.327 . S
C1275 H1269 0.950 . S
C1275 C1274 1.327 . S
C1275 C1279 1.429 . S
C1276 C1259 1.574 . S
C1276 H1270 0.949 . S
C1276 C1280 1.368 . S
C1277 C1258 1.429 . S
C1277 C1271 1.429 . S
C1277 C1278 1.523 . S
C1278 C1259 1.368 . S
C1278 C1272 1.368 . S
C1278 C1277 1.523 . S
C1279 C1263 1.429 . S
C1279 C1275 1.429 . S
C1279 C1280 1.523 . S
C1280 C1264 1.368 . S
C1280 C1276 1.368 . S
C1280 C1279 1.523 . S
H1281 C1256 0.950 . S
H1282 C1258 0.950 . S
H1283 C1259 0.949 . S
H1284 C1261 0.950 . S
H1285 C1263 0.950 . S
C1286 C1287 1.349 . S
C1286 C1288 1.327 . S
C1286 H1311 0.950 . S
C1287 C1286 1.349 . S
C1287 C1303 1.349 . S
C1288 C1286 1.327 . S
C1288 C1307 1.429 . S
C1288 H1312 0.950 . S
C1289 C1306 1.574 1_545 S
C1289 C1308 1.368 . S
C1289 H1313 0.949 . S
H1290 C1294 0.949 . S
C1291 C1292 1.349 . S
C1291 C1293 1.327 . S
C1291 H1314 0.950 . S
C1292 C1291 1.349 . S
C1292 C1304 1.349 . S
C1293 C1291 1.327 . S
C1293 C1309 1.429 . S
C1293 H1315 0.950 . S
C1294 H1290 0.949 . S
C1294 C1302 1.574 1_565 S
C1294 C1310 1.368 . S
H1295 C1303 0.950 . S
H1296 C1301 0.950 . S
H1297 C1302 0.949 . S
H1298 C1304 0.950 . S
H1299 C1305 0.950 . S
H1300 C1306 0.949 . S
C1301 H1296 0.950 . S
C1301 C1303 1.327 . S
C1301 C1307 1.429 . S
C1302 C1294 1.574 1_545 S
C1302 H1297 0.949 . S
C1302 C1308 1.368 . S
C1303 C1287 1.349 . S
C1303 H1295 0.950 . S
C1303 C1301 1.327 . S
C1304 C1292 1.349 . S
C1304 H1298 0.950 . S
C1304 C1305 1.327 . S
C1305 H1299 0.950 . S
C1305 C1304 1.327 . S
C1305 C1309 1.429 . S
C1306 C1289 1.574 1_565 S
C1306 H1300 0.949 . S
C1306 C1310 1.368 . S
C1307 C1288 1.429 . S
C1307 C1301 1.429 . S
C1307 C1308 1.523 . S
C1308 C1289 1.368 . S
C1308 C1302 1.368 . S
C1308 C1307 1.523 . S
C1309 C1293 1.429 . S
C1309 C1305 1.429 . S
C1309 C1310 1.523 . S
C1310 C1294 1.368 . S
C1310 C1306 1.368 . S
C1310 C1309 1.523 . S
H1311 C1286 0.950 . S
H1312 C1288 0.950 . S
H1313 C1289 0.949 . S
H1314 C1291 0.950 . S
H1315 C1293 0.950 . S
C1316 C1317 1.349 . S
C1316 C1318 1.327 . S
C1316 H1341 0.950 . S
C1317 C1316 1.349 . S
C1317 C1333 1.349 . S
C1318 C1316 1.327 . S
C1318 C1337 1.429 . S
C1318 H1342 0.950 . S
C1319 C1336 1.574 . S
C1319 C1338 1.368 . S
C1319 H1343 0.949 . S
H1320 C1324 0.949 . S
C1321 C1322 1.349 . S
C1321 C1323 1.327 . S
C1321 H1344 0.950 . S
C1322 C1321 1.349 . S
C1322 C1334 1.349 . S
C1323 C1321 1.327 . S
C1323 C1339 1.429 . S
C1323 H1345 0.950 . S
C1324 H1320 0.949 . S
C1324 C1332 1.574 . S
C1324 C1340 1.368 . S
H1325 C1333 0.950 . S
H1326 C1331 0.950 . S
H1327 C1332 0.949 . S
H1328 C1334 0.950 . S
H1329 C1335 0.950 . S
H1330 C1336 0.949 . S
C1331 H1326 0.950 . S
C1331 C1333 1.327 . S
C1331 C1337 1.429 . S
C1332 C1324 1.574 . S
C1332 H1327 0.949 . S
C1332 C1338 1.368 . S
C1333 C1317 1.349 . S
C1333 H1325 0.950 . S
C1333 C1331 1.327 . S
C1334 C1322 1.349 . S
C1334 H1328 0.950 . S
C1334 C1335 1.327 . S
C1335 H1329 0.950 . S
C1335 C1334 1.327 . S
C1335 C1339 1.429 . S
C1336 C1319 1.574 . S
C1336 H1330 0.949 . S
C1336 C1340 1.368 . S
C1337 C1318 1.429 . S
C1337 C1331 1.429 . S
C1337 C1338 1.523 . S
C1338 C1319 1.368 . S
C1338 C1332 1.368 . S
C1338 C1337 1.523 . S
C1339 C1323 1.429 . S
C1339 C1335 1.429 . S
C1339 C1340 1.523 . S
C1340 C1324 1.368 . S
C1340 C1336 1.368 . S
C1340 C1339 1.523 . S
H1341 C1316 0.950 . S
H1342 C1318 0.950 . S
H1343 C1319 0.949 . S
H1344 C1321 0.950 . S
H1345 C1323 0.950 . S
C1346 C1347 1.372 . S
C1346 C1348 1.321 1_554 S
C1346 H1371 0.933 1_554 S
C1347 C1346 1.372 . S
C1347 C1363 1.349 . S
C1348 C1346 1.321 1_556 S
C1348 C1367 1.429 1_556 S
C1348 H1372 0.950 . S
C1349 C1366 1.574 . S
C1349 C1368 1.368 . S
C1349 H1373 0.949 . S
H1350 C1354 0.949 . S
C1351 C1352 1.372 . S
C1351 C1353 1.321 1_556 S
C1351 H1374 0.933 1_556 S
C1352 C1351 1.372 . S
C1352 C1364 1.349 . S
C1353 C1351 1.321 1_554 S
C1353 C1369 1.429 1_554 S
C1353 H1375 0.950 . S
C1354 H1350 0.949 . S
C1354 C1362 1.574 . S
C1354 C1370 1.368 . S
H1355 C1363 0.950 . S
H1356 C1361 0.950 . S
H1357 C1362 0.949 . S
H1358 C1364 0.950 . S
H1359 C1365 0.950 . S
H1360 C1366 0.949 . S
C1361 H1356 0.950 . S
C1361 C1363 1.327 . S
C1361 C1367 1.429 . S
C1362 C1354 1.574 . S
C1362 H1357 0.949 . S
C1362 C1368 1.368 1_556 S
C1363 C1347 1.349 . S
C1363 H1355 0.950 . S
C1363 C1361 1.327 . S
C1364 C1352 1.349 . S
C1364 H1358 0.950 . S
C1364 C1365 1.327 . S
C1365 H1359 0.950 . S
C1365 C1364 1.327 . S
C1365 C1369 1.429 . S
C1366 C1349 1.574 . S
C1366 H1360 0.949 . S
C1366 C1370 1.368 1_554 S
C1367 C1348 1.429 1_554 S
C1367 C1361 1.429 . S
C1367 C1368 1.523 . S
C1368 C1349 1.368 . S
C1368 C1362 1.368 1_554 S
C1368 C1367 1.523 . S
C1369 C1353 1.429 1_556 S
C1369 C1365 1.429 . S
C1369 C1370 1.523 . S
C1370 C1354 1.368 . S
C1370 C1366 1.368 1_556 S
C1370 C1369 1.523 . S
H1371 C1346 0.933 1_556 S
H1372 C1348 0.950 . S
H1373 C1349 0.949 . S
H1374 C1351 0.933 1_554 S
H1375 C1353 0.950 . S
C1376 C1377 1.349 . S
C1376 C1378 1.327 . S
C1376 H1401 0.950 . S
C1377 C1376 1.349 . S
C1377 C1393 1.349 . S
C1378 C1376 1.327 . S
C1378 C1397 1.429 . S
C1378 H1402 0.950 . S
C1379 C1396 1.574 . S
C1379 C1398 1.368 . S
C1379 H1403 0.949 . S
H1380 C1384 0.949 . S
C1381 C1382 1.349 . S
C1381 C1383 1.327 . S
C1381 H1404 0.950 . S
C1382 C1381 1.349 . S
C1382 C1394 1.349 . S
C1383 C1381 1.327 . S
C1383 C1399 1.429 . S
C1383 H1405 0.950 . S
C1384 H1380 0.949 . S
C1384 C1392 1.574 . S
C1384 C1400 1.368 . S
H1385 C1393 0.950 . S
H1386 C1391 0.950 . S
H1387 C1392 0.949 . S
H1388 C1394 0.950 . S
H1389 C1395 0.950 . S
H1390 C1396 0.949 . S
C1391 H1386 0.950 . S
C1391 C1393 1.327 . S
C1391 C1397 1.429 . S
C1392 C1384 1.574 . S
C1392 H1387 0.949 . S
C1392 C1398 1.368 . S
C1393 C1377 1.349 . S
C1393 H1385 0.950 . S
C1393 C1391 1.327 . S
C1394 C1382 1.349 . S
C1394 H1388 0.950 . S
C1394 C1395 1.327 . S
C1395 H1389 0.950 . S
C1395 C1394 1.327 . S
C1395 C1399 1.429 . S
C1396 C1379 1.574 . S
C1396 H1390 0.949 . S
C1396 C1400 1.368 . S
C1397 C1378 1.429 . S
C1397 C1391 1.429 . S
C1397 C1398 1.523 . S
C1398 C1379 1.368 . S
C1398 C1392 1.368 . S
C1398 C1397 1.523 . S
C1399 C1383 1.429 . S
C1399 C1395 1.429 . S
C1399 C1400 1.523 . S
C1400 C1384 1.368 . S
C1400 C1396 1.368 . S
C1400 C1399 1.523 . S
H1401 C1376 0.950 . S
H1402 C1378 0.950 . S
H1403 C1379 0.949 . S
H1404 C1381 0.950 . S
H1405 C1383 0.950 . S
C1406 C1407 1.349 . S
C1406 C1408 1.327 . S
C1406 H1431 0.950 . S
C1407 C1406 1.349 . S
C1407 C1423 1.349 . S
C1408 C1406 1.327 . S
C1408 C1427 1.429 . S
C1408 H1432 0.950 . S
C1409 C1426 1.574 . S
C1409 C1428 1.368 . S
C1409 H1433 0.949 . S
H1410 C1414 0.949 . S
C1411 C1412 1.349 . S
C1411 C1413 1.327 . S
C1411 H1434 0.950 . S
C1412 C1411 1.349 . S
C1412 C1424 1.349 . S
C1413 C1411 1.327 . S
C1413 C1429 1.429 . S
C1413 H1435 0.950 . S
C1414 H1410 0.949 . S
C1414 C1422 1.574 . S
C1414 C1430 1.368 . S
H1415 C1423 0.950 . S
H1416 C1421 0.950 . S
H1417 C1422 0.949 . S
H1418 C1424 0.950 . S
H1419 C1425 0.950 . S
H1420 C1426 0.949 . S
C1421 H1416 0.950 . S
C1421 C1423 1.327 . S
C1421 C1427 1.429 . S
C1422 C1414 1.574 . S
C1422 H1417 0.949 . S
C1422 C1428 1.368 . S
C1423 C1407 1.349 . S
C1423 H1415 0.950 . S
C1423 C1421 1.327 . S
C1424 C1412 1.349 . S
C1424 H1418 0.950 . S
C1424 C1425 1.327 . S
C1425 H1419 0.950 . S
C1425 C1424 1.327 . S
C1425 C1429 1.429 . S
C1426 C1409 1.574 . S
C1426 H1420 0.949 . S
C1426 C1430 1.368 . S
C1427 C1408 1.429 . S
C1427 C1421 1.429 . S
C1427 C1428 1.523 . S
C1428 C1409 1.368 . S
C1428 C1422 1.368 . S
C1428 C1427 1.523 . S
C1429 C1413 1.429 . S
C1429 C1425 1.429 . S
C1429 C1430 1.523 . S
C1430 C1414 1.368 . S
C1430 C1426 1.368 . S
C1430 C1429 1.523 . S
H1431 C1406 0.950 . S
H1432 C1408 0.950 . S
H1433 C1409 0.949 . S
H1434 C1411 0.950 . S
H1435 C1413 0.950 . S
C1436 C1437 1.349 . S
C1436 C1438 1.327 . S
C1436 H1461 0.950 . S
C1437 C1436 1.349 . S
C1437 C1453 1.349 . S
C1438 C1436 1.327 . S
C1438 C1457 1.429 . S
C1438 H1462 0.950 . S
C1439 C1456 1.574 . S
C1439 C1458 1.368 . S
C1439 H1463 0.949 . S
H1440 C1444 0.949 . S
C1441 C1442 1.349 . S
C1441 C1443 1.327 . S
C1441 H1464 0.950 . S
C1442 C1441 1.349 . S
C1442 C1454 1.349 . S
C1443 C1441 1.327 . S
C1443 C1459 1.429 . S
C1443 H1465 0.950 . S
C1444 H1440 0.949 . S
C1444 C1452 1.574 . S
C1444 C1460 1.368 . S
H1445 C1453 0.950 . S
H1446 C1451 0.950 . S
H1447 C1452 0.949 . S
H1448 C1454 0.950 . S
H1449 C1455 0.950 . S
H1450 C1456 0.949 . S
C1451 H1446 0.950 . S
C1451 C1453 1.327 . S
C1451 C1457 1.429 . S
C1452 C1444 1.574 . S
C1452 H1447 0.949 . S
C1452 C1458 1.368 . S
C1453 C1437 1.349 . S
C1453 H1445 0.950 . S
C1453 C1451 1.327 . S
C1454 C1442 1.349 . S
C1454 H1448 0.950 . S
C1454 C1455 1.327 . S
C1455 H1449 0.950 . S
C1455 C1454 1.327 . S
C1455 C1459 1.429 . S
C1456 C1439 1.574 . S
C1456 H1450 0.949 . S
C1456 C1460 1.368 . S
C1457 C1438 1.429 . S
C1457 C1451 1.429 . S
C1457 C1458 1.523 . S
C1458 C1439 1.368 . S
C1458 C1452 1.368 . S
C1458 C1457 1.523 . S
C1459 C1443 1.429 . S
C1459 C1455 1.429 . S
C1459 C1460 1.523 . S
C1460 C1444 1.368 . S
C1460 C1456 1.368 . S
C1460 C1459 1.523 . S
H1461 C1436 0.950 . S
H1462 C1438 0.950 . S
H1463 C1439 0.949 . S
H1464 C1441 0.950 . S
H1465 C1443 0.950 . S
C1466 C1467 1.349 . S
C1466 C1468 1.327 . S
C1466 H1491 0.950 . S
C1467 C1466 1.349 . S
C1467 C1483 1.349 . S
C1468 C1466 1.327 . S
C1468 C1487 1.429 . S
C1468 H1492 0.950 . S
C1469 C1486 1.574 . S
C1469 C1488 1.368 . S
C1469 H1493 0.949 . S
H1470 C1474 0.949 . S
C1471 C1472 1.349 . S
C1471 C1473 1.327 . S
C1471 H1494 0.950 . S
C1472 C1471 1.349 . S
C1472 C1484 1.349 . S
C1473 C1471 1.327 . S
C1473 C1489 1.429 . S
C1473 H1495 0.950 . S
C1474 H1470 0.949 . S
C1474 C1482 1.574 . S
C1474 C1490 1.368 . S
H1475 C1483 0.950 . S
H1476 C1481 0.950 . S
H1477 C1482 0.949 . S
H1478 C1484 0.950 . S
H1479 C1485 0.950 . S
H1480 C1486 0.949 . S
C1481 H1476 0.950 . S
C1481 C1483 1.327 . S
C1481 C1487 1.429 . S
C1482 C1474 1.574 . S
C1482 H1477 0.949 . S
C1482 C1488 1.368 . S
C1483 C1467 1.349 . S
C1483 H1475 0.950 . S
C1483 C1481 1.327 . S
C1484 C1472 1.349 . S
C1484 H1478 0.950 . S
C1484 C1485 1.327 . S
C1485 H1479 0.950 . S
C1485 C1484 1.327 . S
C1485 C1489 1.429 . S
C1486 C1469 1.574 . S
C1486 H1480 0.949 . S
C1486 C1490 1.368 . S
C1487 C1468 1.429 . S
C1487 C1481 1.429 . S
C1487 C1488 1.523 . S
C1488 C1469 1.368 . S
C1488 C1482 1.368 . S
C1488 C1487 1.523 . S
C1489 C1473 1.429 . S
C1489 C1485 1.429 . S
C1489 C1490 1.523 . S
C1490 C1474 1.368 . S
C1490 C1486 1.368 . S
C1490 C1489 1.523 . S
H1491 C1466 0.950 . S
H1492 C1468 0.950 . S
H1493 C1469 0.949 . S
H1494 C1471 0.950 . S
H1495 C1473 0.950 . S
C1496 C1497 1.349 . S
C1496 C1498 1.327 . S
C1496 H1521 0.950 . S
C1497 C1496 1.349 . S
C1497 C1513 1.349 . S
C1498 C1496 1.327 . S
C1498 C1517 1.429 . S
C1498 H1522 0.950 . S
C1499 C1516 1.574 . S
C1499 C1518 1.368 . S
C1499 H1523 0.949 . S
H1500 C1504 0.949 . S
C1501 C1502 1.349 . S
C1501 C1503 1.327 . S
C1501 H1524 0.950 . S
C1502 C1501 1.349 . S
C1502 C1514 1.349 . S
C1503 C1501 1.327 . S
C1503 C1519 1.429 . S
C1503 H1525 0.950 . S
C1504 H1500 0.949 . S
C1504 C1512 1.574 . S
C1504 C1520 1.368 . S
H1505 C1513 0.950 . S
H1506 C1511 0.950 . S
H1507 C1512 0.949 . S
H1508 C1514 0.950 . S
H1509 C1515 0.950 . S
H1510 C1516 0.949 . S
C1511 H1506 0.950 . S
C1511 C1513 1.327 . S
C1511 C1517 1.429 . S
C1512 C1504 1.574 . S
C1512 H1507 0.949 . S
C1512 C1518 1.368 . S
C1513 C1497 1.349 . S
C1513 H1505 0.950 . S
C1513 C1511 1.327 . S
C1514 C1502 1.349 . S
C1514 H1508 0.950 . S
C1514 C1515 1.327 . S
C1515 H1509 0.950 . S
C1515 C1514 1.327 . S
C1515 C1519 1.429 . S
C1516 C1499 1.574 . S
C1516 H1510 0.949 . S
C1516 C1520 1.368 . S
C1517 C1498 1.429 . S
C1517 C1511 1.429 . S
C1517 C1518 1.523 . S
C1518 C1499 1.368 . S
C1518 C1512 1.368 . S
C1518 C1517 1.523 . S
C1519 C1503 1.429 . S
C1519 C1515 1.429 . S
C1519 C1520 1.523 . S
C1520 C1504 1.368 . S
C1520 C1516 1.368 . S
C1520 C1519 1.523 . S
H1521 C1496 0.950 . S
H1522 C1498 0.950 . S
H1523 C1499 0.949 . S
H1524 C1501 0.950 . S
H1525 C1503 0.950 . S
C1526 C1527 1.349 . S
C1526 C1528 1.327 . S
C1526 H1551 0.950 . S
C1527 C1526 1.349 . S
C1527 C1543 1.349 . S
C1528 C1526 1.327 . S
C1528 C1547 1.429 . S
C1528 H1552 0.950 . S
C1529 C1546 1.574 . S
C1529 C1548 1.368 . S
C1529 H1553 0.949 . S
H1530 C1534 0.949 . S
C1531 C1532 1.349 . S
C1531 C1533 1.327 . S
C1531 H1554 0.950 . S
C1532 C1531 1.349 . S
C1532 C1544 1.349 . S
C1533 C1531 1.327 . S
C1533 C1549 1.429 . S
C1533 H1555 0.950 . S
C1534 H1530 0.949 . S
C1534 C1542 1.574 . S
C1534 C1550 1.368 . S
H1535 C1543 0.950 . S
H1536 C1541 0.950 . S
H1537 C1542 0.949 . S
H1538 C1544 0.950 . S
H1539 C1545 0.950 . S
H1540 C1546 0.949 . S
C1541 H1536 0.950 . S
C1541 C1543 1.327 . S
C1541 C1547 1.429 . S
C1542 C1534 1.574 . S
C1542 H1537 0.949 . S
C1542 C1548 1.368 . S
C1543 C1527 1.349 . S
C1543 H1535 0.950 . S
C1543 C1541 1.327 . S
C1544 C1532 1.349 . S
C1544 H1538 0.950 . S
C1544 C1545 1.327 . S
C1545 H1539 0.950 . S
C1545 C1544 1.327 . S
C1545 C1549 1.429 . S
C1546 C1529 1.574 . S
C1546 H1540 0.949 . S
C1546 C1550 1.368 . S
C1547 C1528 1.429 . S
C1547 C1541 1.429 . S
C1547 C1548 1.523 . S
C1548 C1529 1.368 . S
C1548 C1542 1.368 . S
C1548 C1547 1.523 . S
C1549 C1533 1.429 . S
C1549 C1545 1.429 . S
C1549 C1550 1.523 . S
C1550 C1534 1.368 . S
C1550 C1546 1.368 . S
C1550 C1549 1.523 . S
H1551 C1526 0.950 . S
H1552 C1528 0.950 . S
H1553 C1529 0.949 . S
H1554 C1531 0.950 . S
H1555 C1533 0.950 . S
C1556 C1557 1.349 . S
C1556 C1558 1.327 . S
C1556 H1581 0.950 . S
C1557 C1556 1.349 . S
C1557 C1573 1.349 . S
C1558 C1556 1.327 . S
C1558 C1577 1.429 . S
C1558 H1582 0.950 . S
C1559 C1576 1.574 . S
C1559 C1578 1.368 . S
C1559 H1583 0.949 . S
H1560 C1564 0.949 . S
C1561 C1562 1.349 . S
C1561 C1563 1.327 . S
C1561 H1584 0.950 . S
C1562 C1561 1.349 . S
C1562 C1574 1.349 . S
C1563 C1561 1.327 . S
C1563 C1579 1.429 . S
C1563 H1585 0.950 . S
C1564 H1560 0.949 . S
C1564 C1572 1.574 . S
C1564 C1580 1.368 . S
H1565 C1573 0.950 . S
H1566 C1571 0.950 . S
H1567 C1572 0.949 . S
H1568 C1574 0.950 . S
H1569 C1575 0.950 . S
H1570 C1576 0.949 . S
C1571 H1566 0.950 . S
C1571 C1573 1.327 . S
C1571 C1577 1.429 . S
C1572 C1564 1.574 . S
C1572 H1567 0.949 . S
C1572 C1578 1.368 . S
C1573 C1557 1.349 . S
C1573 H1565 0.950 . S
C1573 C1571 1.327 . S
C1574 C1562 1.349 . S
C1574 H1568 0.950 . S
C1574 C1575 1.327 . S
C1575 H1569 0.950 . S
C1575 C1574 1.327 . S
C1575 C1579 1.429 . S
C1576 C1559 1.574 . S
C1576 H1570 0.949 . S
C1576 C1580 1.368 . S
C1577 C1558 1.429 . S
C1577 C1571 1.429 . S
C1577 C1578 1.523 . S
C1578 C1559 1.368 . S
C1578 C1572 1.368 . S
C1578 C1577 1.523 . S
C1579 C1563 1.429 . S
C1579 C1575 1.429 . S
C1579 C1580 1.523 . S
C1580 C1564 1.368 . S
C1580 C1576 1.368 . S
C1580 C1579 1.523 . S
H1581 C1556 0.950 . S
H1582 C1558 0.950 . S
H1583 C1559 0.949 . S
H1584 C1561 0.950 . S
H1585 C1563 0.950 . S
C1586 C1587 1.349 . S
C1586 C1588 1.327 . S
C1586 H1611 0.950 . S
C1587 C1586 1.349 . S
C1587 C1603 1.349 . S
C1588 C1586 1.327 . S
C1588 C1607 1.429 . S
C1588 H1612 0.950 . S
C1589 C1606 1.574 . S
C1589 C1608 1.368 . S
C1589 H1613 0.949 . S
H1590 C1594 0.949 . S
C1591 C1592 1.349 . S
C1591 C1593 1.327 . S
C1591 H1614 0.950 . S
C1592 C1591 1.349 . S
C1592 C1604 1.349 . S
C1593 C1591 1.327 . S
C1593 C1609 1.429 . S
C1593 H1615 0.950 . S
C1594 H1590 0.949 . S
C1594 C1602 1.574 . S
C1594 C1610 1.368 . S
H1595 C1603 0.950 . S
H1596 C1601 0.950 . S
H1597 C1602 0.949 . S
H1598 C1604 0.950 . S
H1599 C1605 0.950 . S
H1600 C1606 0.949 . S
C1601 H1596 0.950 . S
C1601 C1603 1.327 . S
C1601 C1607 1.429 . S
C1602 C1594 1.574 . S
C1602 H1597 0.949 . S
C1602 C1608 1.368 . S
C1603 C1587 1.349 . S
C1603 H1595 0.950 . S
C1603 C1601 1.327 . S
C1604 C1592 1.349 . S
C1604 H1598 0.950 . S
C1604 C1605 1.327 . S
C1605 H1599 0.950 . S
C1605 C1604 1.327 . S
C1605 C1609 1.429 . S
C1606 C1589 1.574 . S
C1606 H1600 0.949 . S
C1606 C1610 1.368 . S
C1607 C1588 1.429 . S
C1607 C1601 1.429 . S
C1607 C1608 1.523 . S
C1608 C1589 1.368 . S
C1608 C1602 1.368 . S
C1608 C1607 1.523 . S
C1609 C1593 1.429 . S
C1609 C1605 1.429 . S
C1609 C1610 1.523 . S
C1610 C1594 1.368 . S
C1610 C1606 1.368 . S
C1610 C1609 1.523 . S
H1611 C1586 0.950 . S
H1612 C1588 0.950 . S
H1613 C1589 0.949 . S
H1614 C1591 0.950 . S
H1615 C1593 0.950 . S
C1616 C1617 1.349 . S
C1616 C1618 1.327 . S
C1616 H1641 0.950 . S
C1617 C1616 1.349 . S
C1617 C1633 1.349 . S
C1618 C1616 1.327 . S
C1618 C1637 1.429 . S
C1618 H1642 0.950 . S
C1619 C1636 1.574 . S
C1619 C1638 1.368 . S
C1619 H1643 0.949 . S
H1620 C1624 0.949 . S
C1621 C1622 1.349 . S
C1621 C1623 1.327 . S
C1621 H1644 0.950 . S
C1622 C1621 1.349 . S
C1622 C1634 1.349 . S
C1623 C1621 1.327 . S
C1623 C1639 1.429 . S
C1623 H1645 0.950 . S
C1624 H1620 0.949 . S
C1624 C1632 1.574 . S
C1624 C1640 1.368 . S
H1625 C1633 0.950 . S
H1626 C1631 0.950 . S
H1627 C1632 0.949 . S
H1628 C1634 0.950 . S
H1629 C1635 0.950 . S
H1630 C1636 0.949 . S
C1631 H1626 0.950 . S
C1631 C1633 1.327 . S
C1631 C1637 1.429 . S
C1632 C1624 1.574 . S
C1632 H1627 0.949 . S
C1632 C1638 1.368 . S
C1633 C1617 1.349 . S
C1633 H1625 0.950 . S
C1633 C1631 1.327 . S
C1634 C1622 1.349 . S
C1634 H1628 0.950 . S
C1634 C1635 1.327 . S
C1635 H1629 0.950 . S
C1635 C1634 1.327 . S
C1635 C1639 1.429 . S
C1636 C1619 1.574 . S
C1636 H1630 0.949 . S
C1636 C1640 1.368 . S
C1637 C1618 1.429 . S
C1637 C1631 1.429 . S
C1637 C1638 1.523 . S
C1638 C1619 1.368 . S
C1638 C1632 1.368 . S
C1638 C1637 1.523 . S
C1639 C1623 1.429 . S
C1639 C1635 1.429 . S
C1639 C1640 1.523 . S
C1640 C1624 1.368 . S
C1640 C1636 1.368 . S
C1640 C1639 1.523 . S
H1641 C1616 0.950 . S
H1642 C1618 0.950 . S
H1643 C1619 0.949 . S
H1644 C1621 0.950 . S
H1645 C1623 0.950 . S
C1646 C1647 1.349 . S
C1646 C1648 1.327 . S
C1646 H1671 0.950 . S
C1647 C1646 1.349 . S
C1647 C1663 1.349 . S
C1648 C1646 1.327 . S
C1648 C1667 1.429 . S
C1648 H1672 0.950 . S
C1649 C1666 1.574 . S
C1649 C1668 1.368 . S
C1649 H1673 0.949 . S
H1650 C1654 0.949 . S
C1651 C1652 1.349 . S
C1651 C1653 1.327 . S
C1651 H1674 0.950 . S
C1652 C1651 1.349 . S
C1652 C1664 1.349 . S
C1653 C1651 1.327 . S
C1653 C1669 1.429 . S
C1653 H1675 0.950 . S
C1654 H1650 0.949 . S
C1654 C1662 1.574 . S
C1654 C1670 1.368 . S
H1655 C1663 0.950 . S
H1656 C1661 0.950 . S
H1657 C1662 0.949 . S
H1658 C1664 0.950 . S
H1659 C1665 0.950 . S
H1660 C1666 0.949 . S
C1661 H1656 0.950 . S
C1661 C1663 1.327 . S
C1661 C1667 1.429 . S
C1662 C1654 1.574 . S
C1662 H1657 0.949 . S
C1662 C1668 1.368 . S
C1663 C1647 1.349 . S
C1663 H1655 0.950 . S
C1663 C1661 1.327 . S
C1664 C1652 1.349 . S
C1664 H1658 0.950 . S
C1664 C1665 1.327 . S
C1665 H1659 0.950 . S
C1665 C1664 1.327 . S
C1665 C1669 1.429 . S
C1666 C1649 1.574 . S
C1666 H1660 0.949 . S
C1666 C1670 1.368 . S
C1667 C1648 1.429 . S
C1667 C1661 1.429 . S
C1667 C1668 1.523 . S
C1668 C1649 1.368 . S
C1668 C1662 1.368 . S
C1668 C1667 1.523 . S
C1669 C1653 1.429 . S
C1669 C1665 1.429 . S
C1669 C1670 1.523 . S
C1670 C1654 1.368 . S
C1670 C1666 1.368 . S
C1670 C1669 1.523 . S
H1671 C1646 0.950 . S
H1672 C1648 0.950 . S
H1673 C1649 0.949 . S
H1674 C1651 0.950 . S
H1675 C1653 0.950 . S
C1676 C1677 1.349 . S
C1676 C1678 1.327 . S
C1676 H1701 0.950 . S
C1677 C1676 1.349 . S
C1677 C1693 1.349 . S
C1678 C1676 1.327 . S
C1678 C1697 1.429 . S
C1678 H1702 0.950 . S
C1679 C1696 1.574 . S
C1679 C1698 1.368 . S
C1679 H1703 0.949 . S
H1680 C1684 0.949 . S
C1681 C1682 1.349 . S
C1681 C1683 1.327 . S
C1681 H1704 0.950 . S
C1682 C1681 1.349 . S
C1682 C1694 1.349 . S
C1683 C1681 1.327 . S
C1683 C1699 1.429 . S
C1683 H1705 0.950 . S
C1684 H1680 0.949 . S
C1684 C1692 1.574 . S
C1684 C1700 1.368 . S
H1685 C1693 0.950 . S
H1686 C1691 0.950 . S
H1687 C1692 0.949 . S
H1688 C1694 0.950 . S
H1689 C1695 0.950 . S
H1690 C1696 0.949 . S
C1691 H1686 0.950 . S
C1691 C1693 1.327 . S
C1691 C1697 1.429 . S
C1692 C1684 1.574 . S
C1692 H1687 0.949 . S
C1692 C1698 1.368 . S
C1693 C1677 1.349 . S
C1693 H1685 0.950 . S
C1693 C1691 1.327 . S
C1694 C1682 1.349 . S
C1694 H1688 0.950 . S
C1694 C1695 1.327 . S
C1695 H1689 0.950 . S
C1695 C1694 1.327 . S
C1695 C1699 1.429 . S
C1696 C1679 1.574 . S
C1696 H1690 0.949 . S
C1696 C1700 1.368 . S
C1697 C1678 1.429 . S
C1697 C1691 1.429 . S
C1697 C1698 1.523 . S
C1698 C1679 1.368 . S
C1698 C1692 1.368 . S
C1698 C1697 1.523 . S
C1699 C1683 1.429 . S
C1699 C1695 1.429 . S
C1699 C1700 1.523 . S
C1700 C1684 1.368 . S
C1700 C1696 1.368 . S
C1700 C1699 1.523 . S
H1701 C1676 0.950 . S
H1702 C1678 0.950 . S
H1703 C1679 0.949 . S
H1704 C1681 0.950 . S
H1705 C1683 0.950 . S
C1706 C1707 1.349 . S
C1706 C1708 1.327 . S
C1706 H1731 0.950 . S
C1707 C1706 1.349 . S
C1707 C1723 1.349 . S
C1708 C1706 1.327 . S
C1708 C1727 1.429 . S
C1708 H1732 0.950 . S
C1709 C1726 1.574 . S
C1709 C1728 1.368 . S
C1709 H1733 0.949 . S
H1710 C1714 0.949 . S
C1711 C1712 1.349 . S
C1711 C1713 1.327 . S
C1711 H1734 0.950 . S
C1712 C1711 1.349 . S
C1712 C1724 1.349 . S
C1713 C1711 1.327 . S
C1713 C1729 1.429 . S
C1713 H1735 0.950 . S
C1714 H1710 0.949 . S
C1714 C1722 1.574 . S
C1714 C1730 1.368 . S
H1715 C1723 0.950 . S
H1716 C1721 0.950 . S
H1717 C1722 0.949 . S
H1718 C1724 0.950 . S
H1719 C1725 0.950 . S
H1720 C1726 0.949 . S
C1721 H1716 0.950 . S
C1721 C1723 1.327 . S
C1721 C1727 1.429 . S
C1722 C1714 1.574 . S
C1722 H1717 0.949 . S
C1722 C1728 1.368 . S
C1723 C1707 1.349 . S
C1723 H1715 0.950 . S
C1723 C1721 1.327 . S
C1724 C1712 1.349 . S
C1724 H1718 0.950 . S
C1724 C1725 1.327 . S
C1725 H1719 0.950 . S
C1725 C1724 1.327 . S
C1725 C1729 1.429 . S
C1726 C1709 1.574 . S
C1726 H1720 0.949 . S
C1726 C1730 1.368 . S
C1727 C1708 1.429 . S
C1727 C1721 1.429 . S
C1727 C1728 1.523 . S
C1728 C1709 1.368 . S
C1728 C1722 1.368 . S
C1728 C1727 1.523 . S
C1729 C1713 1.429 . S
C1729 C1725 1.429 . S
C1729 C1730 1.523 . S
C1730 C1714 1.368 . S
C1730 C1726 1.368 . S
C1730 C1729 1.523 . S
H1731 C1706 0.950 . S
H1732 C1708 0.950 . S
H1733 C1709 0.949 . S
H1734 C1711 0.950 . S
H1735 C1713 0.950 . S
C1736 C1737 1.349 . S
C1736 C1738 1.327 . S
C1736 H1761 0.950 . S
C1737 C1736 1.349 . S
C1737 C1753 1.349 . S
C1738 C1736 1.327 . S
C1738 C1757 1.429 . S
C1738 H1762 0.950 . S
C1739 C1756 1.574 . S
C1739 C1758 1.368 . S
C1739 H1763 0.949 . S
H1740 C1744 0.949 . S
C1741 C1742 1.349 . S
C1741 C1743 1.327 . S
C1741 H1764 0.950 . S
C1742 C1741 1.349 . S
C1742 C1754 1.349 . S
C1743 C1741 1.327 . S
C1743 C1759 1.429 . S
C1743 H1765 0.950 . S
C1744 H1740 0.949 . S
C1744 C1752 1.574 . S
C1744 C1760 1.368 . S
H1745 C1753 0.950 . S
H1746 C1751 0.950 . S
H1747 C1752 0.949 . S
H1748 C1754 0.950 . S
H1749 C1755 0.950 . S
H1750 C1756 0.949 . S
C1751 H1746 0.950 . S
C1751 C1753 1.327 . S
C1751 C1757 1.429 . S
C1752 C1744 1.574 . S
C1752 H1747 0.949 . S
C1752 C1758 1.368 . S
C1753 C1737 1.349 . S
C1753 H1745 0.950 . S
C1753 C1751 1.327 . S
C1754 C1742 1.349 . S
C1754 H1748 0.950 . S
C1754 C1755 1.327 . S
C1755 H1749 0.950 . S
C1755 C1754 1.327 . S
C1755 C1759 1.429 . S
C1756 C1739 1.574 . S
C1756 H1750 0.949 . S
C1756 C1760 1.368 . S
C1757 C1738 1.429 . S
C1757 C1751 1.429 . S
C1757 C1758 1.523 . S
C1758 C1739 1.368 . S
C1758 C1752 1.368 . S
C1758 C1757 1.523 . S
C1759 C1743 1.429 . S
C1759 C1755 1.429 . S
C1759 C1760 1.523 . S
C1760 C1744 1.368 . S
C1760 C1756 1.368 . S
C1760 C1759 1.523 . S
H1761 C1736 0.950 . S
H1762 C1738 0.950 . S
H1763 C1739 0.949 . S
H1764 C1741 0.950 . S
H1765 C1743 0.950 . S
C1766 C1767 1.349 . S
C1766 C1768 1.327 . S
C1766 H1791 0.950 . S
C1767 C1766 1.349 . S
C1767 C1783 1.349 . S
C1768 C1766 1.327 . S
C1768 C1787 1.429 . S
C1768 H1792 0.950 . S
C1769 C1786 1.574 . S
C1769 C1788 1.368 . S
C1769 H1793 0.949 . S
H1770 C1774 0.949 . S
C1771 C1772 1.349 . S
C1771 C1773 1.327 . S
C1771 H1794 0.950 . S
C1772 C1771 1.349 . S
C1772 C1784 1.349 . S
C1773 C1771 1.327 . S
C1773 C1789 1.429 . S
C1773 H1795 0.950 . S
C1774 H1770 0.949 . S
C1774 C1782 1.574 . S
C1774 C1790 1.368 . S
H1775 C1783 0.950 . S
H1776 C1781 0.950 . S
H1777 C1782 0.949 . S
H1778 C1784 0.950 . S
H1779 C1785 0.950 . S
H1780 C1786 0.949 . S
C1781 H1776 0.950 . S
C1781 C1783 1.327 . S
C1781 C1787 1.429 . S
C1782 C1774 1.574 . S
C1782 H1777 0.949 . S
C1782 C1788 1.368 . S
C1783 C1767 1.349 . S
C1783 H1775 0.950 . S
C1783 C1781 1.327 . S
C1784 C1772 1.349 . S
C1784 H1778 0.950 . S
C1784 C1785 1.327 . S
C1785 H1779 0.950 . S
C1785 C1784 1.327 . S
C1785 C1789 1.429 . S
C1786 C1769 1.574 . S
C1786 H1780 0.949 . S
C1786 C1790 1.368 . S
C1787 C1768 1.429 . S
C1787 C1781 1.429 . S
C1787 C1788 1.523 . S
C1788 C1769 1.368 . S
C1788 C1782 1.368 . S
C1788 C1787 1.523 . S
C1789 C1773 1.429 . S
C1789 C1785 1.429 . S
C1789 C1790 1.523 . S
C1790 C1774 1.368 . S
C1790 C1786 1.368 . S
C1790 C1789 1.523 . S
H1791 C1766 0.950 . S
H1792 C1768 0.950 . S
H1793 C1769 0.949 . S
H1794 C1771 0.950 . S
H1795 C1773 0.950 . S
C1796 C1797 1.349 . S
C1796 C1798 1.327 . S
C1796 H1821 0.950 . S
C1797 C1796 1.349 . S
C1797 C1813 1.349 . S
C1798 C1796 1.327 . S
C1798 C1817 1.429 . S
C1798 H1822 0.950 . S
C1799 C1816 1.574 . S
C1799 C1818 1.368 . S
C1799 H1823 0.949 . S
H1800 C1804 0.949 . S
C1801 C1802 1.349 . S
C1801 C1803 1.327 . S
C1801 H1824 0.950 . S
C1802 C1801 1.349 . S
C1802 C1814 1.349 . S
C1803 C1801 1.327 . S
C1803 C1819 1.429 . S
C1803 H1825 0.950 . S
C1804 H1800 0.949 . S
C1804 C1812 1.574 . S
C1804 C1820 1.368 . S
H1805 C1813 0.950 . S
H1806 C1811 0.950 . S
H1807 C1812 0.949 . S
H1808 C1814 0.950 . S
H1809 C1815 0.950 . S
H1810 C1816 0.949 . S
C1811 H1806 0.950 . S
C1811 C1813 1.327 . S
C1811 C1817 1.429 . S
C1812 C1804 1.574 . S
C1812 H1807 0.949 . S
C1812 C1818 1.368 . S
C1813 C1797 1.349 . S
C1813 H1805 0.950 . S
C1813 C1811 1.327 . S
C1814 C1802 1.349 . S
C1814 H1808 0.950 . S
C1814 C1815 1.327 . S
C1815 H1809 0.950 . S
C1815 C1814 1.327 . S
C1815 C1819 1.429 . S
C1816 C1799 1.574 . S
C1816 H1810 0.949 . S
C1816 C1820 1.368 . S
C1817 C1798 1.429 . S
C1817 C1811 1.429 . S
C1817 C1818 1.523 . S
C1818 C1799 1.368 . S
C1818 C1812 1.368 . S
C1818 C1817 1.523 . S
C1819 C1803 1.429 . S
C1819 C1815 1.429 . S
C1819 C1820 1.523 . S
C1820 C1804 1.368 . S
C1820 C1816 1.368 . S
C1820 C1819 1.523 . S
H1821 C1796 0.950 . S
H1822 C1798 0.950 . S
H1823 C1799 0.949 . S
H1824 C1801 0.950 . S
H1825 C1803 0.950 . S
C1826 C1827 1.349 . S
C1826 C1828 1.327 . S
C1826 H1851 0.950 . S
C1827 C1826 1.349 . S
C1827 C1843 1.349 . S
C1828 C1826 1.327 . S
C1828 C1847 1.429 . S
C1828 H1852 0.950 . S
C1829 C1846 1.574 . S
C1829 C1848 1.368 . S
C1829 H1853 0.949 . S
H1830 C1834 0.949 . S
C1831 C1832 1.349 . S
C1831 C1833 1.327 . S
C1831 H1854 0.950 . S
C1832 C1831 1.349 . S
C1832 C1844 1.349 . S
C1833 C1831 1.327 . S
C1833 C1849 1.429 . S
C1833 H1855 0.950 . S
C1834 H1830 0.949 . S
C1834 C1842 1.574 . S
C1834 C1850 1.368 . S
H1835 C1843 0.950 . S
H1836 C1841 0.950 . S
H1837 C1842 0.949 . S
H1838 C1844 0.950 . S
H1839 C1845 0.950 . S
H1840 C1846 0.949 . S
C1841 H1836 0.950 . S
C1841 C1843 1.327 . S
C1841 C1847 1.429 . S
C1842 C1834 1.574 . S
C1842 H1837 0.949 . S
C1842 C1848 1.368 . S
C1843 C1827 1.349 . S
C1843 H1835 0.950 . S
C1843 C1841 1.327 . S
C1844 C1832 1.349 . S
C1844 H1838 0.950 . S
C1844 C1845 1.327 . S
C1845 H1839 0.950 . S
C1845 C1844 1.327 . S
C1845 C1849 1.429 . S
C1846 C1829 1.574 . S
C1846 H1840 0.949 . S
C1846 C1850 1.368 . S
C1847 C1828 1.429 . S
C1847 C1841 1.429 . S
C1847 C1848 1.523 . S
C1848 C1829 1.368 . S
C1848 C1842 1.368 . S
C1848 C1847 1.523 . S
C1849 C1833 1.429 . S
C1849 C1845 1.429 . S
C1849 C1850 1.523 . S
C1850 C1834 1.368 . S
C1850 C1846 1.368 . S
C1850 C1849 1.523 . S
H1851 C1826 0.950 . S
H1852 C1828 0.950 . S
H1853 C1829 0.949 . S
H1854 C1831 0.950 . S
H1855 C1833 0.950 . S
C1856 C1857 1.349 1_655 S
C1856 C1858 1.327 . S
C1856 H1881 0.950 . S
C1857 C1856 1.349 1_455 S
C1857 C1873 1.349 . S
C1858 C1856 1.327 . S
C1858 C1877 1.429 . S
C1858 H1882 0.950 . S
C1859 C1876 1.574 . S
C1859 C1878 1.368 . S
C1859 H1883 0.949 . S
H1860 C1864 0.949 . S
C1861 C1862 1.349 . S
C1861 C1863 1.327 . S
C1861 H1884 0.950 . S
C1862 C1861 1.349 . S
C1862 C1874 1.349 . S
C1863 C1861 1.327 . S
C1863 C1879 1.429 . S
C1863 H1885 0.950 . S
C1864 H1860 0.949 . S
C1864 C1872 1.574 . S
C1864 C1880 1.368 . S
H1865 C1873 0.950 . S
H1866 C1871 0.950 . S
H1867 C1872 0.949 . S
H1868 C1874 0.950 . S
H1869 C1875 0.950 . S
H1870 C1876 0.949 . S
C1871 H1866 0.950 . S
C1871 C1873 1.327 1_655 S
C1871 C1877 1.429 . S
C1872 C1864 1.574 . S
C1872 H1867 0.949 . S
C1872 C1878 1.368 . S
C1873 C1857 1.349 . S
C1873 H1865 0.950 . S
C1873 C1871 1.327 1_455 S
C1874 C1862 1.349 . S
C1874 H1868 0.950 . S
C1874 C1875 1.327 . S
C1875 H1869 0.950 . S
C1875 C1874 1.327 . S
C1875 C1879 1.429 . S
C1876 C1859 1.574 . S
C1876 H1870 0.949 . S
C1876 C1880 1.368 . S
C1877 C1858 1.429 . S
C1877 C1871 1.429 . S
C1877 C1878 1.523 . S
C1878 C1859 1.368 . S
C1878 C1872 1.368 . S
C1878 C1877 1.523 . S
C1879 C1863 1.429 . S
C1879 C1875 1.429 . S
C1879 C1880 1.523 . S
C1880 C1864 1.368 . S
C1880 C1876 1.368 . S
C1880 C1879 1.523 . S
H1881 C1856 0.950 . S
H1882 C1858 0.950 . S
H1883 C1859 0.949 . S
H1884 C1861 0.950 . S
H1885 C1863 0.950 . S
C1886 C1887 1.349 . S
C1886 C1888 1.327 . S
C1886 H1911 0.950 . S
C1887 C1886 1.349 . S
C1887 C1903 1.349 . S
C1888 C1886 1.327 . S
C1888 C1907 1.429 . S
C1888 H1912 0.950 . S
C1889 C1906 1.574 . S
C1889 C1908 1.368 . S
C1889 H1913 0.949 . S
H1890 C1894 0.949 . S
C1891 C1892 1.349 . S
C1891 C1893 1.327 . S
C1891 H1914 0.950 . S
C1892 C1891 1.349 . S
C1892 C1904 1.349 . S
C1893 C1891 1.327 . S
C1893 C1909 1.429 . S
C1893 H1915 0.950 . S
C1894 H1890 0.949 . S
C1894 C1902 1.574 . S
C1894 C1910 1.368 . S
H1895 C1903 0.950 . S
H1896 C1901 0.950 . S
H1897 C1902 0.949 . S
H1898 C1904 0.950 . S
H1899 C1905 0.950 . S
H1900 C1906 0.949 . S
C1901 H1896 0.950 . S
C1901 C1903 1.327 . S
C1901 C1907 1.429 . S
C1902 C1894 1.574 . S
C1902 H1897 0.949 . S
C1902 C1908 1.368 . S
C1903 C1887 1.349 . S
C1903 H1895 0.950 . S
C1903 C1901 1.327 . S
C1904 C1892 1.349 . S
C1904 H1898 0.950 . S
C1904 C1905 1.327 . S
C1905 H1899 0.950 . S
C1905 C1904 1.327 . S
C1905 C1909 1.429 . S
C1906 C1889 1.574 . S
C1906 H1900 0.949 . S
C1906 C1910 1.368 . S
C1907 C1888 1.429 . S
C1907 C1901 1.429 . S
C1907 C1908 1.523 . S
C1908 C1889 1.368 . S
C1908 C1902 1.368 . S
C1908 C1907 1.523 . S
C1909 C1893 1.429 . S
C1909 C1905 1.429 . S
C1909 C1910 1.523 . S
C1910 C1894 1.368 . S
C1910 C1906 1.368 . S
C1910 C1909 1.523 . S
H1911 C1886 0.950 . S
H1912 C1888 0.950 . S
H1913 C1889 0.949 . S
H1914 C1891 0.950 . S
H1915 C1893 0.950 . S
C1916 C1917 1.349 . S
C1916 C1918 1.327 . S
C1916 H1941 0.950 . S
C1917 C1916 1.349 . S
C1917 C1933 1.349 . S
C1918 C1916 1.327 . S
C1918 C1937 1.429 . S
C1918 H1942 0.950 . S
C1919 C1936 1.574 . S
C1919 C1938 1.368 . S
C1919 H1943 0.949 . S
H1920 C1924 0.949 . S
C1921 C1922 1.349 1_655 S
C1921 C1923 1.327 . S
C1921 H1944 0.950 . S
C1922 C1921 1.349 1_455 S
C1922 C1934 1.349 . S
C1923 C1921 1.327 . S
C1923 C1939 1.429 . S
C1923 H1945 0.950 . S
C1924 H1920 0.949 . S
C1924 C1932 1.574 . S
C1924 C1940 1.368 . S
H1925 C1933 0.950 . S
H1926 C1931 0.950 . S
H1927 C1932 0.949 . S
H1928 C1934 0.950 . S
H1929 C1935 0.950 . S
H1930 C1936 0.949 . S
C1931 H1926 0.950 . S
C1931 C1933 1.327 . S
C1931 C1937 1.429 . S
C1932 C1924 1.574 . S
C1932 H1927 0.949 . S
C1932 C1938 1.368 . S
C1933 C1917 1.349 . S
C1933 H1925 0.950 . S
C1933 C1931 1.327 . S
C1934 C1922 1.349 . S
C1934 H1928 0.950 . S
C1934 C1935 1.327 1_455 S
C1935 H1929 0.950 . S
C1935 C1934 1.327 1_655 S
C1935 C1939 1.429 . S
C1936 C1919 1.574 . S
C1936 H1930 0.949 . S
C1936 C1940 1.368 . S
C1937 C1918 1.429 . S
C1937 C1931 1.429 . S
C1937 C1938 1.523 . S
C1938 C1919 1.368 . S
C1938 C1932 1.368 . S
C1938 C1937 1.523 . S
C1939 C1923 1.429 . S
C1939 C1935 1.429 . S
C1939 C1940 1.523 . S
C1940 C1924 1.368 . S
C1940 C1936 1.368 . S
C1940 C1939 1.523 . S
H1941 C1916 0.950 . S
H1942 C1918 0.950 . S
H1943 C1919 0.949 . S
H1944 C1921 0.950 . S
H1945 C1923 0.950 . S
C1946 C1947 1.349 . S
C1946 C1948 1.327 . S
C1946 H1971 0.950 . S
C1947 C1946 1.349 . S
C1947 C1963 1.349 . S
C1948 C1946 1.327 . S
C1948 C1967 1.429 . S
C1948 H1972 0.950 . S
C1949 C1966 1.574 . S
C1949 C1968 1.368 . S
C1949 H1973 0.949 . S
H1950 C1954 0.949 . S
C1951 C1952 1.349 . S
C1951 C1953 1.327 . S
C1951 H1974 0.950 . S
C1952 C1951 1.349 . S
C1952 C1964 1.349 . S
C1953 C1951 1.327 . S
C1953 C1969 1.429 . S
C1953 H1975 0.950 . S
C1954 H1950 0.949 . S
C1954 C1962 1.574 . S
C1954 C1970 1.368 . S
H1955 C1963 0.950 . S
H1956 C1961 0.950 . S
H1957 C1962 0.949 . S
H1958 C1964 0.950 . S
H1959 C1965 0.950 . S
H1960 C1966 0.949 . S
C1961 H1956 0.950 . S
C1961 C1963 1.327 . S
C1961 C1967 1.429 . S
C1962 C1954 1.574 . S
C1962 H1957 0.949 . S
C1962 C1968 1.368 . S
C1963 C1947 1.349 . S
C1963 H1955 0.950 . S
C1963 C1961 1.327 . S
C1964 C1952 1.349 . S
C1964 H1958 0.950 . S
C1964 C1965 1.327 . S
C1965 H1959 0.950 . S
C1965 C1964 1.327 . S
C1965 C1969 1.429 . S
C1966 C1949 1.574 . S
C1966 H1960 0.949 . S
C1966 C1970 1.368 . S
C1967 C1948 1.429 . S
C1967 C1961 1.429 . S
C1967 C1968 1.523 . S
C1968 C1949 1.368 . S
C1968 C1962 1.368 . S
C1968 C1967 1.523 . S
C1969 C1953 1.429 . S
C1969 C1965 1.429 . S
C1969 C1970 1.523 . S
C1970 C1954 1.368 . S
C1970 C1966 1.368 . S
C1970 C1969 1.523 . S
H1971 C1946 0.950 . S
H1972 C1948 0.950 . S
H1973 C1949 0.949 . S
H1974 C1951 0.950 . S
H1975 C1953 0.950 . S
C1976 C1977 1.349 . S
C1976 C1978 1.327 . S
C1976 H2001 0.950 . S
C1977 C1976 1.349 . S
C1977 C1993 1.349 . S
C1978 C1976 1.327 . S
C1978 C1997 1.429 . S
C1978 H2002 0.950 . S
C1979 C1996 1.574 . S
C1979 C1998 1.368 . S
C1979 H2003 0.949 . S
H1980 C1984 0.949 . S
C1981 C1982 1.349 . S
C1981 C1983 1.327 1_655 S
C1981 H2004 0.950 . S
C1982 C1981 1.349 . S
C1982 C1994 1.349 1_655 S
C1983 C1981 1.327 1_455 S
C1983 C1999 1.429 . S
C1983 H2005 0.950 . S
C1984 H1980 0.949 . S
C1984 C1992 1.574 . S
C1984 C2000 1.368 . S
H1985 C1993 0.950 . S
H1986 C1991 0.950 . S
H1987 C1992 0.949 . S
H1988 C1994 0.950 . S
H1989 C1995 0.950 . S
H1990 C1996 0.949 . S
C1991 H1986 0.950 . S
C1991 C1993 1.327 . S
C1991 C1997 1.429 . S
C1992 C1984 1.574 . S
C1992 H1987 0.949 . S
C1992 C1998 1.368 . S
C1993 C1977 1.349 . S
C1993 H1985 0.950 . S
C1993 C1991 1.327 . S
C1994 C1982 1.349 1_455 S
C1994 H1988 0.950 . S
C1994 C1995 1.327 . S
C1995 H1989 0.950 . S
C1995 C1994 1.327 . S
C1995 C1999 1.429 . S
C1996 C1979 1.574 . S
C1996 H1990 0.949 . S
C1996 C2000 1.368 . S
C1997 C1978 1.429 . S
C1997 C1991 1.429 . S
C1997 C1998 1.523 . S
C1998 C1979 1.368 . S
C1998 C1992 1.368 . S
C1998 C1997 1.523 . S
C1999 C1983 1.429 . S
C1999 C1995 1.429 . S
C1999 C2000 1.523 . S
C2000 C1984 1.368 . S
C2000 C1996 1.368 . S
C2000 C1999 1.523 . S
H2001 C1976 0.950 . S
H2002 C1978 0.950 . S
H2003 C1979 0.949 . S
H2004 C1981 0.950 . S
H2005 C1983 0.950 . S
C2006 C2007 1.349 . S
C2006 C2008 1.327 . S
C2006 H2031 0.950 . S
C2007 C2006 1.349 . S
C2007 C2023 1.349 . S
C2008 C2006 1.327 . S
C2008 C2027 1.429 . S
C2008 H2032 0.950 . S
C2009 C2026 1.574 . S
C2009 C2028 1.368 . S
C2009 H2033 0.949 . S
H2010 C2014 0.949 . S
C2011 C2012 1.349 . S
C2011 C2013 1.327 . S
C2011 H2034 0.950 . S
C2012 C2011 1.349 . S
C2012 C2024 1.349 . S
C2013 C2011 1.327 . S
C2013 C2029 1.429 . S
C2013 H2035 0.950 . S
C2014 H2010 0.949 . S
C2014 C2022 1.574 . S
C2014 C2030 1.368 . S
H2015 C2023 0.950 . S
H2016 C2021 0.950 . S
H2017 C2022 0.949 . S
H2018 C2024 0.950 . S
H2019 C2025 0.950 . S
H2020 C2026 0.949 . S
C2021 H2016 0.950 . S
C2021 C2023 1.327 . S
C2021 C2027 1.429 . S
C2022 C2014 1.574 . S
C2022 H2017 0.949 . S
C2022 C2028 1.368 . S
C2023 C2007 1.349 . S
C2023 H2015 0.950 . S
C2023 C2021 1.327 . S
C2024 C2012 1.349 . S
C2024 H2018 0.950 . S
C2024 C2025 1.327 . S
C2025 H2019 0.950 . S
C2025 C2024 1.327 . S
C2025 C2029 1.429 . S
C2026 C2009 1.574 . S
C2026 H2020 0.949 . S
C2026 C2030 1.368 . S
C2027 C2008 1.429 . S
C2027 C2021 1.429 . S
C2027 C2028 1.523 . S
C2028 C2009 1.368 . S
C2028 C2022 1.368 . S
C2028 C2027 1.523 . S
C2029 C2013 1.429 . S
C2029 C2025 1.429 . S
C2029 C2030 1.523 . S
C2030 C2014 1.368 . S
C2030 C2026 1.368 . S
C2030 C2029 1.523 . S
H2031 C2006 0.950 . S
H2032 C2008 0.950 . S
H2033 C2009 0.949 . S
H2034 C2011 0.950 . S
H2035 C2013 0.950 . S
C2036 C2037 1.349 . S
C2036 C2038 1.327 . S
C2036 H2061 0.950 . S
C2037 C2036 1.349 . S
C2037 C2053 1.349 . S
C2038 C2036 1.327 . S
C2038 C2057 1.429 . S
C2038 H2062 0.950 . S
C2039 C2056 1.574 . S
C2039 C2058 1.368 . S
C2039 H2063 0.949 . S
H2040 C2044 0.949 . S
C2041 C2042 1.349 . S
C2041 C2043 1.327 1_655 S
C2041 H2064 0.950 . S
C2042 C2041 1.349 . S
C2042 C2054 1.349 1_655 S
C2043 C2041 1.327 1_455 S
C2043 C2059 1.429 . S
C2043 H2065 0.950 . S
C2044 H2040 0.949 . S
C2044 C2052 1.574 . S
C2044 C2060 1.368 . S
H2045 C2053 0.950 . S
H2046 C2051 0.950 . S
H2047 C2052 0.949 . S
H2048 C2054 0.950 . S
H2049 C2055 0.950 . S
H2050 C2056 0.949 . S
C2051 H2046 0.950 . S
C2051 C2053 1.327 . S
C2051 C2057 1.429 . S
C2052 C2044 1.574 . S
C2052 H2047 0.949 . S
C2052 C2058 1.368 . S
C2053 C2037 1.349 . S
C2053 H2045 0.950 . S
C2053 C2051 1.327 . S
C2054 C2042 1.349 1_455 S
C2054 H2048 0.950 . S
C2054 C2055 1.327 . S
C2055 H2049 0.950 . S
C2055 C2054 1.327 . S
C2055 C2059 1.429 . S
C2056 C2039 1.574 . S
C2056 H2050 0.949 . S
C2056 C2060 1.368 . S
C2057 C2038 1.429 . S
C2057 C2051 1.429 . S
C2057 C2058 1.523 . S
C2058 C2039 1.368 . S
C2058 C2052 1.368 . S
C2058 C2057 1.523 . S
C2059 C2043 1.429 . S
C2059 C2055 1.429 . S
C2059 C2060 1.523 . S
C2060 C2044 1.368 . S
C2060 C2056 1.368 . S
C2060 C2059 1.523 . S
H2061 C2036 0.950 . S
H2062 C2038 0.950 . S
H2063 C2039 0.949 . S
H2064 C2041 0.950 . S
H2065 C2043 0.950 . S
C2066 C2067 1.349 . S
C2066 C2068 1.327 . S
C2066 H2091 0.950 . S
C2067 C2066 1.349 . S
C2067 C2083 1.349 . S
C2068 C2066 1.327 . S
C2068 C2087 1.429 . S
C2068 H2092 0.950 . S
C2069 C2086 1.574 . S
C2069 C2088 1.368 . S
C2069 H2093 0.949 . S
H2070 C2074 0.949 . S
C2071 C2072 1.349 . S
C2071 C2073 1.327 . S
C2071 H2094 0.950 . S
C2072 C2071 1.349 . S
C2072 C2084 1.349 . S
C2073 C2071 1.327 . S
C2073 C2089 1.429 . S
C2073 H2095 0.950 . S
C2074 H2070 0.949 . S
C2074 C2082 1.574 . S
C2074 C2090 1.368 . S
H2075 C2083 0.950 . S
H2076 C2081 0.950 . S
H2077 C2082 0.949 . S
H2078 C2084 0.950 . S
H2079 C2085 0.950 . S
H2080 C2086 0.949 . S
C2081 H2076 0.950 . S
C2081 C2083 1.327 . S
C2081 C2087 1.429 . S
C2082 C2074 1.574 . S
C2082 H2077 0.949 . S
C2082 C2088 1.368 . S
C2083 C2067 1.349 . S
C2083 H2075 0.950 . S
C2083 C2081 1.327 . S
C2084 C2072 1.349 . S
C2084 H2078 0.950 . S
C2084 C2085 1.327 . S
C2085 H2079 0.950 . S
C2085 C2084 1.327 . S
C2085 C2089 1.429 . S
C2086 C2069 1.574 . S
C2086 H2080 0.949 . S
C2086 C2090 1.368 . S
C2087 C2068 1.429 . S
C2087 C2081 1.429 . S
C2087 C2088 1.523 . S
C2088 C2069 1.368 . S
C2088 C2082 1.368 . S
C2088 C2087 1.523 . S
C2089 C2073 1.429 . S
C2089 C2085 1.429 . S
C2089 C2090 1.523 . S
C2090 C2074 1.368 . S
C2090 C2086 1.368 . S
C2090 C2089 1.523 . S
H2091 C2066 0.950 . S
H2092 C2068 0.950 . S
H2093 C2069 0.949 . S
H2094 C2071 0.950 . S
H2095 C2073 0.950 . S
C2096 C2097 1.349 1_655 S
C2096 C2098 1.327 . S
C2096 H2121 0.950 . S
C2097 C2096 1.349 1_455 S
C2097 C2113 1.349 . S
C2098 C2096 1.327 . S
C2098 C2117 1.429 . S
C2098 H2122 0.950 . S
C2099 C2116 1.574 . S
C2099 C2118 1.368 . S
C2099 H2123 0.949 . S
H2100 C2104 0.949 . S
C2101 C2102 1.349 . S
C2101 C2103 1.327 . S
C2101 H2124 0.950 . S
C2102 C2101 1.349 . S
C2102 C2114 1.349 . S
C2103 C2101 1.327 . S
C2103 C2119 1.429 . S
C2103 H2125 0.950 . S
C2104 H2100 0.949 . S
C2104 C2112 1.574 . S
C2104 C2120 1.368 . S
H2105 C2113 0.950 . S
H2106 C2111 0.950 . S
H2107 C2112 0.949 . S
H2108 C2114 0.950 . S
H2109 C2115 0.950 . S
H2110 C2116 0.949 . S
C2111 H2106 0.950 . S
C2111 C2113 1.327 1_655 S
C2111 C2117 1.429 . S
C2112 C2104 1.574 . S
C2112 H2107 0.949 . S
C2112 C2118 1.368 . S
C2113 C2097 1.349 . S
C2113 H2105 0.950 . S
C2113 C2111 1.327 1_455 S
C2114 C2102 1.349 . S
C2114 H2108 0.950 . S
C2114 C2115 1.327 . S
C2115 H2109 0.950 . S
C2115 C2114 1.327 . S
C2115 C2119 1.429 . S
C2116 C2099 1.574 . S
C2116 H2110 0.949 . S
C2116 C2120 1.368 . S
C2117 C2098 1.429 . S
C2117 C2111 1.429 . S
C2117 C2118 1.523 . S
C2118 C2099 1.368 . S
C2118 C2112 1.368 . S
C2118 C2117 1.523 . S
C2119 C2103 1.429 . S
C2119 C2115 1.429 . S
C2119 C2120 1.523 . S
C2120 C2104 1.368 . S
C2120 C2116 1.368 . S
C2120 C2119 1.523 . S
H2121 C2096 0.950 . S
H2122 C2098 0.950 . S
H2123 C2099 0.949 . S
H2124 C2101 0.950 . S
H2125 C2103 0.950 . S
C2126 C2127 1.349 . S
C2126 C2128 1.327 . S
C2126 H2151 0.950 . S
C2127 C2126 1.349 . S
C2127 C2143 1.349 . S
C2128 C2126 1.327 . S
C2128 C2147 1.429 . S
C2128 H2152 0.950 . S
C2129 C2146 1.574 . S
C2129 C2148 1.368 . S
C2129 H2153 0.949 . S
H2130 C2134 0.949 . S
C2131 C2132 1.349 . S
C2131 C2133 1.327 . S
C2131 H2154 0.950 . S
C2132 C2131 1.349 . S
C2132 C2144 1.349 . S
C2133 C2131 1.327 . S
C2133 C2149 1.429 . S
C2133 H2155 0.950 . S
C2134 H2130 0.949 . S
C2134 C2142 1.574 . S
C2134 C2150 1.368 . S
H2135 C2143 0.950 . S
H2136 C2141 0.950 . S
H2137 C2142 0.949 . S
H2138 C2144 0.950 . S
H2139 C2145 0.950 . S
H2140 C2146 0.949 . S
C2141 H2136 0.950 . S
C2141 C2143 1.327 . S
C2141 C2147 1.429 . S
C2142 C2134 1.574 . S
C2142 H2137 0.949 . S
C2142 C2148 1.368 . S
C2143 C2127 1.349 . S
C2143 H2135 0.950 . S
C2143 C2141 1.327 . S
C2144 C2132 1.349 . S
C2144 H2138 0.950 . S
C2144 C2145 1.327 . S
C2145 H2139 0.950 . S
C2145 C2144 1.327 . S
C2145 C2149 1.429 . S
C2146 C2129 1.574 . S
C2146 H2140 0.949 . S
C2146 C2150 1.368 . S
C2147 C2128 1.429 . S
C2147 C2141 1.429 . S
C2147 C2148 1.523 . S
C2148 C2129 1.368 . S
C2148 C2142 1.368 . S
C2148 C2147 1.523 . S
C2149 C2133 1.429 . S
C2149 C2145 1.429 . S
C2149 C2150 1.523 . S
C2150 C2134 1.368 . S
C2150 C2146 1.368 . S
C2150 C2149 1.523 . S
H2151 C2126 0.950 . S
H2152 C2128 0.950 . S
H2153 C2129 0.949 . S
H2154 C2131 0.950 . S
H2155 C2133 0.950 . S
C2156 C2157 1.349 1_655 S
C2156 C2158 1.327 . S
C2156 H2181 0.950 . S
C2157 C2156 1.349 1_455 S
C2157 C2173 1.349 . S
C2158 C2156 1.327 . S
C2158 C2177 1.429 . S
C2158 H2182 0.950 . S
C2159 C2176 1.574 . S
C2159 C2178 1.368 . S
C2159 H2183 0.949 . S
H2160 C2164 0.949 . S
C2161 C2162 1.349 . S
C2161 C2163 1.327 . S
C2161 H2184 0.950 . S
C2162 C2161 1.349 . S
C2162 C2174 1.349 . S
C2163 C2161 1.327 . S
C2163 C2179 1.429 . S
C2163 H2185 0.950 . S
C2164 H2160 0.949 . S
C2164 C2172 1.574 . S
C2164 C2180 1.368 . S
H2165 C2173 0.950 . S
H2166 C2171 0.950 . S
H2167 C2172 0.949 . S
H2168 C2174 0.950 . S
H2169 C2175 0.950 . S
H2170 C2176 0.949 . S
C2171 H2166 0.950 . S
C2171 C2173 1.327 1_655 S
C2171 C2177 1.429 . S
C2172 C2164 1.574 . S
C2172 H2167 0.949 . S
C2172 C2178 1.368 . S
C2173 C2157 1.349 . S
C2173 H2165 0.950 . S
C2173 C2171 1.327 1_455 S
C2174 C2162 1.349 . S
C2174 H2168 0.950 . S
C2174 C2175 1.327 . S
C2175 H2169 0.950 . S
C2175 C2174 1.327 . S
C2175 C2179 1.429 . S
C2176 C2159 1.574 . S
C2176 H2170 0.949 . S
C2176 C2180 1.368 . S
C2177 C2158 1.429 . S
C2177 C2171 1.429 . S
C2177 C2178 1.523 . S
C2178 C2159 1.368 . S
C2178 C2172 1.368 . S
C2178 C2177 1.523 . S
C2179 C2163 1.429 . S
C2179 C2175 1.429 . S
C2179 C2180 1.523 . S
C2180 C2164 1.368 . S
C2180 C2176 1.368 . S
C2180 C2179 1.523 . S
H2181 C2156 0.950 . S
H2182 C2158 0.950 . S
H2183 C2159 0.949 . S
H2184 C2161 0.950 . S
H2185 C2163 0.950 . S
C2186 C2187 1.349 . S
C2186 C2188 1.327 . S
C2186 H2211 0.950 . S
C2187 C2186 1.349 . S
C2187 C2203 1.349 . S
C2188 C2186 1.327 . S
C2188 C2207 1.429 . S
C2188 H2212 0.950 . S
C2189 C2206 1.574 . S
C2189 C2208 1.368 . S
C2189 H2213 0.949 . S
H2190 C2194 0.949 . S
C2191 C2192 1.349 . S
C2191 C2193 1.327 . S
C2191 H2214 0.950 . S
C2192 C2191 1.349 . S
C2192 C2204 1.349 . S
C2193 C2191 1.327 . S
C2193 C2209 1.429 . S
C2193 H2215 0.950 . S
C2194 H2190 0.949 . S
C2194 C2202 1.574 . S
C2194 C2210 1.368 . S
H2195 C2203 0.950 . S
H2196 C2201 0.950 . S
H2197 C2202 0.949 . S
H2198 C2204 0.950 . S
H2199 C2205 0.950 . S
H2200 C2206 0.949 . S
C2201 H2196 0.950 . S
C2201 C2203 1.327 . S
C2201 C2207 1.429 . S
C2202 C2194 1.574 . S
C2202 H2197 0.949 . S
C2202 C2208 1.368 . S
C2203 C2187 1.349 . S
C2203 H2195 0.950 . S
C2203 C2201 1.327 . S
C2204 C2192 1.349 . S
C2204 H2198 0.950 . S
C2204 C2205 1.327 . S
C2205 H2199 0.950 . S
C2205 C2204 1.327 . S
C2205 C2209 1.429 . S
C2206 C2189 1.574 . S
C2206 H2200 0.949 . S
C2206 C2210 1.368 . S
C2207 C2188 1.429 . S
C2207 C2201 1.429 . S
C2207 C2208 1.523 . S
C2208 C2189 1.368 . S
C2208 C2202 1.368 . S
C2208 C2207 1.523 . S
C2209 C2193 1.429 . S
C2209 C2205 1.429 . S
C2209 C2210 1.523 . S
C2210 C2194 1.368 . S
C2210 C2206 1.368 . S
C2210 C2209 1.523 . S
H2211 C2186 0.950 . S
H2212 C2188 0.950 . S
H2213 C2189 0.949 . S
H2214 C2191 0.950 . S
H2215 C2193 0.950 . S
C2216 C2217 1.349 1_455 S
C2216 C2218 1.327 . S
C2216 H2241 0.950 . S
C2217 C2216 1.349 1_655 S
C2217 C2233 1.349 . S
C2218 C2216 1.327 . S
C2218 C2237 1.429 . S
C2218 H2242 0.950 . S
C2219 C2236 1.574 . S
C2219 C2238 1.368 . S
C2219 H2243 0.949 . S
H2220 C2224 0.949 . S
C2221 C2222 1.349 . S
C2221 C2223 1.327 . S
C2221 H2244 0.950 . S
C2222 C2221 1.349 . S
C2222 C2234 1.349 . S
C2223 C2221 1.327 . S
C2223 C2239 1.429 . S
C2223 H2245 0.950 . S
C2224 H2220 0.949 . S
C2224 C2232 1.574 . S
C2224 C2240 1.368 . S
H2225 C2233 0.950 . S
H2226 C2231 0.950 . S
H2227 C2232 0.949 . S
H2228 C2234 0.950 . S
H2229 C2235 0.950 . S
H2230 C2236 0.949 . S
C2231 H2226 0.950 . S
C2231 C2233 1.327 1_455 S
C2231 C2237 1.429 . S
C2232 C2224 1.574 . S
C2232 H2227 0.949 . S
C2232 C2238 1.368 . S
C2233 C2217 1.349 . S
C2233 H2225 0.950 . S
C2233 C2231 1.327 1_655 S
C2234 C2222 1.349 . S
C2234 H2228 0.950 . S
C2234 C2235 1.327 . S
C2235 H2229 0.950 . S
C2235 C2234 1.327 . S
C2235 C2239 1.429 . S
C2236 C2219 1.574 . S
C2236 H2230 0.949 . S
C2236 C2240 1.368 . S
C2237 C2218 1.429 . S
C2237 C2231 1.429 . S
C2237 C2238 1.523 . S
C2238 C2219 1.368 . S
C2238 C2232 1.368 . S
C2238 C2237 1.523 . S
C2239 C2223 1.429 . S
C2239 C2235 1.429 . S
C2239 C2240 1.523 . S
C2240 C2224 1.368 . S
C2240 C2236 1.368 . S
C2240 C2239 1.523 . S
H2241 C2216 0.950 . S
H2242 C2218 0.950 . S
H2243 C2219 0.949 . S
H2244 C2221 0.950 . S
H2245 C2223 0.950 . S
C2246 C2247 1.349 . S
C2246 C2248 1.327 . S
C2246 H2271 0.950 . S
C2247 C2246 1.349 . S
C2247 C2263 1.349 . S
C2248 C2246 1.327 . S
C2248 C2267 1.429 . S
C2248 H2272 0.950 . S
C2249 C2266 1.574 . S
C2249 C2268 1.368 . S
C2249 H2273 0.949 . S
H2250 C2254 0.949 . S
C2251 C2252 1.349 . S
C2251 C2253 1.327 . S
C2251 H2274 0.950 . S
C2252 C2251 1.349 . S
C2252 C2264 1.349 . S
C2253 C2251 1.327 . S
C2253 C2269 1.429 . S
C2253 H2275 0.950 . S
C2254 H2250 0.949 . S
C2254 C2262 1.574 . S
C2254 C2270 1.368 . S
H2255 C2263 0.950 . S
H2256 C2261 0.950 . S
H2257 C2262 0.949 . S
H2258 C2264 0.950 . S
H2259 C2265 0.950 . S
H2260 C2266 0.949 . S
C2261 H2256 0.950 . S
C2261 C2263 1.327 . S
C2261 C2267 1.429 . S
C2262 C2254 1.574 . S
C2262 H2257 0.949 . S
C2262 C2268 1.368 . S
C2263 C2247 1.349 . S
C2263 H2255 0.950 . S
C2263 C2261 1.327 . S
C2264 C2252 1.349 . S
C2264 H2258 0.950 . S
C2264 C2265 1.327 . S
C2265 H2259 0.950 . S
C2265 C2264 1.327 . S
C2265 C2269 1.429 . S
C2266 C2249 1.574 . S
C2266 H2260 0.949 . S
C2266 C2270 1.368 . S
C2267 C2248 1.429 . S
C2267 C2261 1.429 . S
C2267 C2268 1.523 . S
C2268 C2249 1.368 . S
C2268 C2262 1.368 . S
C2268 C2267 1.523 . S
C2269 C2253 1.429 . S
C2269 C2265 1.429 . S
C2269 C2270 1.523 . S
C2270 C2254 1.368 . S
C2270 C2266 1.368 . S
C2270 C2269 1.523 . S
H2271 C2246 0.950 . S
H2272 C2248 0.950 . S
H2273 C2249 0.949 . S
H2274 C2251 0.950 . S
H2275 C2253 0.950 . S
C2276 C2277 1.349 1_455 S
C2276 C2278 1.327 . S
C2276 H2301 0.950 . S
C2277 C2276 1.349 1_655 S
C2277 C2293 1.349 . S
C2278 C2276 1.327 . S
C2278 C2297 1.429 . S
C2278 H2302 0.950 . S
C2279 C2296 1.574 . S
C2279 C2298 1.368 . S
C2279 H2303 0.949 . S
H2280 C2284 0.949 . S
C2281 C2282 1.349 . S
C2281 C2283 1.327 . S
C2281 H2304 0.950 . S
C2282 C2281 1.349 . S
C2282 C2294 1.349 . S
C2283 C2281 1.327 . S
C2283 C2299 1.429 . S
C2283 H2305 0.950 . S
C2284 H2280 0.949 . S
C2284 C2292 1.574 . S
C2284 C2300 1.368 . S
H2285 C2293 0.950 . S
H2286 C2291 0.950 . S
H2287 C2292 0.949 . S
H2288 C2294 0.950 . S
H2289 C2295 0.950 . S
H2290 C2296 0.949 . S
C2291 H2286 0.950 . S
C2291 C2293 1.327 1_455 S
C2291 C2297 1.429 . S
C2292 C2284 1.574 . S
C2292 H2287 0.949 . S
C2292 C2298 1.368 . S
C2293 C2277 1.349 . S
C2293 H2285 0.950 . S
C2293 C2291 1.327 1_655 S
C2294 C2282 1.349 . S
C2294 H2288 0.950 . S
C2294 C2295 1.327 . S
C2295 H2289 0.950 . S
C2295 C2294 1.327 . S
C2295 C2299 1.429 . S
C2296 C2279 1.574 . S
C2296 H2290 0.949 . S
C2296 C2300 1.368 . S
C2297 C2278 1.429 . S
C2297 C2291 1.429 . S
C2297 C2298 1.523 . S
C2298 C2279 1.368 . S
C2298 C2292 1.368 . S
C2298 C2297 1.523 . S
C2299 C2283 1.429 . S
C2299 C2295 1.429 . S
C2299 C2300 1.523 . S
C2300 C2284 1.368 . S
C2300 C2296 1.368 . S
C2300 C2299 1.523 . S
H2301 C2276 0.950 . S
H2302 C2278 0.950 . S
H2303 C2279 0.949 . S
H2304 C2281 0.950 . S
H2305 C2283 0.950 . S
C2306 C2307 1.349 . S
C2306 C2308 1.327 . S
C2306 H2331 0.950 . S
C2307 C2306 1.349 . S
C2307 C2323 1.349 . S
C2308 C2306 1.327 . S
C2308 C2327 1.429 . S
C2308 H2332 0.950 . S
C2309 C2326 1.574 . S
C2309 C2328 1.368 . S
C2309 H2333 0.949 . S
H2310 C2314 0.949 . S
C2311 C2312 1.349 . S
C2311 C2313 1.327 . S
C2311 H2334 0.950 . S
C2312 C2311 1.349 . S
C2312 C2324 1.349 . S
C2313 C2311 1.327 . S
C2313 C2329 1.429 . S
C2313 H2335 0.950 . S
C2314 H2310 0.949 . S
C2314 C2322 1.574 . S
C2314 C2330 1.368 . S
H2315 C2323 0.950 . S
H2316 C2321 0.950 . S
H2317 C2322 0.949 . S
H2318 C2324 0.950 . S
H2319 C2325 0.950 . S
H2320 C2326 0.949 . S
C2321 H2316 0.950 . S
C2321 C2323 1.327 . S
C2321 C2327 1.429 . S
C2322 C2314 1.574 . S
C2322 H2317 0.949 . S
C2322 C2328 1.368 . S
C2323 C2307 1.349 . S
C2323 H2315 0.950 . S
C2323 C2321 1.327 . S
C2324 C2312 1.349 . S
C2324 H2318 0.950 . S
C2324 C2325 1.327 . S
C2325 H2319 0.950 . S
C2325 C2324 1.327 . S
C2325 C2329 1.429 . S
C2326 C2309 1.574 . S
C2326 H2320 0.949 . S
C2326 C2330 1.368 . S
C2327 C2308 1.429 . S
C2327 C2321 1.429 . S
C2327 C2328 1.523 . S
C2328 C2309 1.368 . S
C2328 C2322 1.368 . S
C2328 C2327 1.523 . S
C2329 C2313 1.429 . S
C2329 C2325 1.429 . S
C2329 C2330 1.523 . S
C2330 C2314 1.368 . S
C2330 C2326 1.368 . S
C2330 C2329 1.523 . S
H2331 C2306 0.950 . S
H2332 C2308 0.950 . S
H2333 C2309 0.949 . S
H2334 C2311 0.950 . S
H2335 C2313 0.950 . S
C417 C42 1.332 . S
C422 C3 1.332 . S
C447 C31 1.332 . S
C452 C16 1.332 . S
C477 C94 1.332 . S
C482 C57 1.332 . S
C507 C81 1.332 . S
C512 C68 1.332 . S
C537 C109 1.332 . S
C542 C146 1.332 . S
C567 C120 1.332 . S
C572 C135 1.332 . S
C597 C198 1.332 . S
C602 C161 1.332 . S
C627 C174 1.332 . S
C632 C185 1.332 . S
C657 C211 1.332 . S
C662 C250 1.332 . S
C687 C224 1.332 . S
C692 C239 1.332 . S
C717 C302 1.332 . S
C722 C263 1.332 . S
C747 C289 1.332 . S
C752 C278 1.332 . S
C777 C354 1.332 . S
C782 C315 1.332 . S
C807 C328 1.332 . S
C812 C341 1.332 . S
C837 C367 1.332 . S
C842 C408 1.332 . S
C867 C382 1.332 . S
C872 C393 1.332 . S
C897 C265 1.254 . S
C902 C5 1.254 . S
C927 C172 1.254 . S
C932 C18 1.254 . S
C957 C29 1.254 . S
C962 C395 1.254 . S
C987 C44 1.255 . S
C992 C96 1.255 . S
C1017 C213 1.254 . S
C1022 C55 1.254 . S
C1047 C122 1.254 . S
C1052 C70 1.254 . S
C1077 C343 1.254 . S
C1082 C83 1.254 . S
C1107 C107 1.254 . S
C1112 C369 1.254 . S
C1137 C291 1.254 . S
C1142 C133 1.254 . S
C1167 C200 1.254 . S
C1172 C148 1.254 . S
C1197 C317 1.254 . S
C1202 C159 1.254 . S
C1227 C187 1.254 . S
C1232 C237 1.254 . S
C1257 C380 1.254 . S
C1262 C226 1.254 . S
C1287 C252 1.254 . S
C1292 C304 1.254 . S
C1317 C330 1.254 . S
C1322 C276 1.254 . S
C1347 C406 1.254 . S
C1352 C356 1.254 . S
C1377 C17 1.347 . S
C1382 C4 1.347 . S
C1407 C36 1.346 . S
C1412 C43 1.346 . S
C1437 C62 1.347 . S
C1442 C69 1.347 . S
C1467 C95 1.346 . S
C1472 C82 1.346 . S
C1497 C114 1.347 . S
C1502 C121 1.347 . S
C1527 C140 1.347 . S
C1532 C147 1.347 . S
C1557 C179 1.346 . S
C1562 C166 1.346 . S
C1587 C186 1.347 . S
C1592 C199 1.347 . S
C1617 C212 1.347 . S
C1622 C225 1.347 . S
C1647 C244 1.347 . S
C1652 C251 1.347 . S
C1677 C264 1.347 . S
C1682 C283 1.347 . S
C1707 C303 1.347 . S
C1712 C290 1.347 . S
C1737 C329 1.346 . S
C1742 C316 1.346 . S
C1767 C342 1.346 . S
C1772 C355 1.346 . S
C1797 C368 1.347 . S
C1802 C387 1.347 . S
C1827 C413 1.346 . S
C1832 C394 1.346 . S
C1857 C10 1.522 . S
C1862 C257 1.522 . S
C1887 C23 1.522 . S
C1892 C238 1.522 . S
C1917 C231 1.522 . S
C1922 C30 1.522 . S
C1947 C49 1.522 . S
C1952 C218 1.522 . S
C1977 C309 1.522 . S
C1982 C56 1.522 . S
C2007 C75 1.522 . S
C2012 C296 1.522 . S
C2037 C277 1.522 . S
C2042 C88 1.522 . S
C2067 C101 1.522 . S
C2072 C270 1.522 . S
C2097 C108 1.522 . S
C2102 C361 1.522 . S
C2127 C127 1.522 . S
C2132 C348 1.522 . S
C2157 C134 1.522 . S
C2162 C335 1.522 . S
C2187 C322 1.522 . S
C2192 C153 1.522 . S
C2217 C160 1.522 . S
C2222 C407 1.522 . S
C2247 C173 1.522 . S
C2252 C400 1.522 . S
C2277 C192 1.522 . S
C2282 C381 1.522 . S
C2307 C374 1.522 . S
C2312 C205 1.522 . S
