# Generated by pormake.
# Topology wjv, (5)-cn, num edge types: 1
# Building blocks:
#     Node 0, Type 0, BuildingBlock: BEQFEK_clean_sbu_0, # of connection points: 5
#     Node 1, Type 0, BuildingBlock: BEQFEK_clean_sbu_0, # of connection points: 5
#     Node 2, Type 0, BuildingBlock: BEQFEK_clean_sbu_0, # of connection points: 5
#     Node 3, Type 0, BuildingBlock: BEQFEK_clean_sbu_0, # of connection points: 5
#     Node 4, Type 0, BuildingBlock: BEQFEK_clean_sbu_0, # of connection points: 5
#     Node 5, Type 0, BuildingBlock: BEQFEK_clean_sbu_0, # of connection points: 5
#     Node 6, Type 0, BuildingBlock: BEQFEK_clean_sbu_0, # of connection points: 5
#     Node 7, Type 0, BuildingBlock: BEQFEK_clean_sbu_0, # of connection points: 5
#     Node 8, Type 0, BuildingBlock: BEQFEK_clean_sbu_0, # of connection points: 5
#     Node 9, Type 0, BuildingBlock: BEQFEK_clean_sbu_0, # of connection points: 5
#     Node 10, Type 0, BuildingBlock: BEQFEK_clean_sbu_0, # of connection points: 5
#     Node 11, Type 0, BuildingBlock: BEQFEK_clean_sbu_0, # of connection points: 5
#     Edge 12, Type (0, 0), BuildingBlock: AJUNOK_clean_linker_0, # of connection points: 2
#     Edge 13, Type (0, 0), BuildingBlock: AJUNOK_clean_linker_0, # of connection points: 2
#     Edge 14, Type (0, 0), BuildingBlock: AJUNOK_clean_linker_0, # of connection points: 2
#     Edge 15, Type (0, 0), BuildingBlock: AJUNOK_clean_linker_0, # of connection points: 2
#     Edge 16, Type (0, 0), BuildingBlock: AJUNOK_clean_linker_0, # of connection points: 2
#     Edge 17, Type (0, 0), BuildingBlock: AJUNOK_clean_linker_0, # of connection points: 2
#     Edge 18, Type (0, 0), BuildingBlock: AJUNOK_clean_linker_0, # of connection points: 2
#     Edge 19, Type (0, 0), BuildingBlock: AJUNOK_clean_linker_0, # of connection points: 2
#     Edge 20, Type (0, 0), BuildingBlock: AJUNOK_clean_linker_0, # of connection points: 2
#     Edge 21, Type (0, 0), BuildingBlock: AJUNOK_clean_linker_0, # of connection points: 2
#     Edge 22, Type (0, 0), BuildingBlock: AJUNOK_clean_linker_0, # of connection points: 2
#     Edge 23, Type (0, 0), BuildingBlock: AJUNOK_clean_linker_0, # of connection points: 2
#     Edge 24, Type (0, 0), BuildingBlock: AJUNOK_clean_linker_0, # of connection points: 2
#     Edge 25, Type (0, 0), BuildingBlock: AJUNOK_clean_linker_0, # of connection points: 2
#     Edge 26, Type (0, 0), BuildingBlock: AJUNOK_clean_linker_0, # of connection points: 2
#     Edge 27, Type (0, 0), BuildingBlock: AJUNOK_clean_linker_0, # of connection points: 2
#     Edge 28, Type (0, 0), BuildingBlock: AJUNOK_clean_linker_0, # of connection points: 2
#     Edge 29, Type (0, 0), BuildingBlock: AJUNOK_clean_linker_0, # of connection points: 2
#     Edge 30, Type (0, 0), BuildingBlock: AJUNOK_clean_linker_0, # of connection points: 2
#     Edge 31, Type (0, 0), BuildingBlock: AJUNOK_clean_linker_0, # of connection points: 2
#     Edge 32, Type (0, 0), BuildingBlock: AJUNOK_clean_linker_0, # of connection points: 2
#     Edge 33, Type (0, 0), BuildingBlock: AJUNOK_clean_linker_0, # of connection points: 2
#     Edge 34, Type (0, 0), BuildingBlock: AJUNOK_clean_linker_0, # of connection points: 2
#     Edge 35, Type (0, 0), BuildingBlock: AJUNOK_clean_linker_0, # of connection points: 2
#     Edge 36, Type (0, 0), BuildingBlock: AJUNOK_clean_linker_0, # of connection points: 2
#     Edge 37, Type (0, 0), BuildingBlock: AJUNOK_clean_linker_0, # of connection points: 2
#     Edge 38, Type (0, 0), BuildingBlock: AJUNOK_clean_linker_0, # of connection points: 2
#     Edge 39, Type (0, 0), BuildingBlock: AJUNOK_clean_linker_0, # of connection points: 2
#     Edge 40, Type (0, 0), BuildingBlock: AJUNOK_clean_linker_0, # of connection points: 2
#     Edge 41, Type (0, 0), BuildingBlock: AJUNOK_clean_linker_0, # of connection points: 2
# Relax obj value: 0.138
# Max RMSD: 0.111
# Mean RMSD: 0.111
data_MOF--net-wjv--node1-BEQFEK_clean_sbu_0--edge1-AJUNOK_clean_linker_0
_symmetry_space_group_name_H-M    P1
_symmetry_Int_Tables_number       1
_symmetry_cell_setting            triclinic
loop_
_symmetry_equiv_pos_as_xyz
'x, y, z'
_cell_length_a     26.846007
_cell_length_b     26.809208
_cell_length_c     44.549151
_cell_angle_alpha  90.110635
_cell_angle_beta   89.844018
_cell_angle_gamma 120.06209
loop_
_atom_site_label
_atom_site_type_symbol
_atom_site_fract_x
_atom_site_fract_y
_atom_site_fract_z
_atom_type_partial_charge
Co0 Co 0.2151 0.29309 0.22169 0.0
Co1 Co 0.23331 0.32131 0.1522 0.0
C2 C 0.11843 0.28075 0.18323 0.0
O3 O 0.13725 0.28049 0.20955 0.0
O4 O 0.15182 0.29591 0.16061 0.0
C5 C 0.21702 0.29714 0.29003 0.0
O6 O 0.20959 0.34199 0.29036 0.0
C7 C 0.22283 0.36943 0.09495 0.0
C8 C 0.2758 0.34938 0.06481 0.0
C9 C 0.23889 0.37138 0.0652 0.0
N10 N 0.24875 0.34704 0.11144 0.0
N11 N 0.28097 0.33582 0.09329 0.0
C12 C 0.18363 0.38895 0.10738 0.0
H13 H 0.18909 0.39514 0.13204 0.0
H14 H 0.19275 0.42988 0.09647 0.0
H15 H 0.13841 0.35651 0.10232 0.0
C16 C 0.33009 0.39893 0.22255 0.0
N17 N 0.27946 0.36455 0.20873 0.0
N18 N 0.28555 0.377 0.17984 0.0
C19 C 0.33952 0.42035 0.17462 0.0
C20 C 0.36986 0.43531 0.20142 0.0
C21 C 0.34292 0.39082 0.25424 0.0
H22 H 0.3153 0.39906 0.26957 0.0
H23 H 0.38855 0.42079 0.26018 0.0
H24 H 0.33294 0.34572 0.2575 0.0
O25 O 0.22325 0.23199 0.20263 0.0
O26 O 0.24143 0.25236 0.15432 0.0
H27 H 0.36872 0.40243 0.13357 0.0
H28 H 0.40816 0.47714 0.14439 0.0
C29 C 0.36489 0.43806 0.14385 0.0
H30 H 0.33616 0.44668 0.12968 0.0
H31 H 0.30422 0.31619 0.10009 0.0
O32 O 0.21942 0.27535 0.26508 0.0
C33 C 0.2346 0.22033 0.17676 0.0
Co34 Co 0.92335 0.2357 0.55759 0.0
Co35 Co 0.91308 0.24565 0.48733 0.0
C36 C 0.8394 0.13375 0.52171 0.0
O37 O 0.86044 0.15608 0.54726 0.0
O38 O 0.85561 0.16406 0.49786 0.0
C39 C 0.96051 0.22006 0.61581 0.0
O40 O 0.95816 0.17438 0.6035 0.0
C41 C 0.86247 0.22627 0.42657 0.0
C42 C 0.93275 0.29677 0.40076 0.0
C43 C 0.87781 0.24977 0.39794 0.0
N44 N 0.90563 0.25904 0.44555 0.0
N45 N 0.9476 0.30091 0.42988 0.0
C46 C 0.81346 0.16826 0.43486 0.0
H47 H 0.83135 0.1408 0.44197 0.0
H48 H 0.78951 0.17265 0.45406 0.0
H49 H 0.78375 0.14617 0.41597 0.0
C50 C 0.92186 0.3444 0.55573 0.0
N51 N 0.91171 0.29522 0.54217 0.0
N52 N 0.90822 0.30053 0.51296 0.0
C53 C 0.91601 0.35349 0.50728 0.0
C54 C 0.92622 0.38351 0.53413 0.0
C55 C 0.93619 0.35733 0.58824 0.0
H56 H 0.90594 0.31988 0.60205 0.0
H57 H 0.93394 0.39592 0.59526 0.0
H58 H 0.98049 0.36579 0.59202 0.0
O59 O 0.99475 0.24493 0.54073 0.0
O60 O 0.99038 0.25462 0.49164 0.0
H61 H 0.96827 0.3923 0.46863 0.0
H62 H 0.91916 0.41758 0.47676 0.0
C63 C 0.9242 0.37898 0.47659 0.0
H64 H 0.89233 0.34675 0.46091 0.0
H65 H 0.98743 0.33091 0.43881 0.0
O66 O 0.94251 0.24862 0.60119 0.0
C67 C 0.01703 0.25268 0.51478 0.0
Co68 Co 0.69523 0.90973 0.891 0.0
Co69 Co 0.6755 0.90967 0.82102 0.0
C70 C 0.70923 0.82836 0.85113 0.0
O71 O 0.70658 0.84387 0.87802 0.0
O72 O 0.69831 0.85106 0.82889 0.0
C73 C 0.69516 0.91027 0.96044 0.0
O74 O 0.65895 0.85484 0.96361 0.0
C75 C 0.63484 0.86316 0.75962 0.0
C76 C 0.66149 0.94411 0.73506 0.0
C77 C 0.63916 0.88546 0.73089 0.0
N78 N 0.65505 0.90693 0.77953 0.0
N79 N 0.66978 0.95494 0.76464 0.0
C80 C 0.61539 0.80197 0.76776 0.0
H81 H 0.63826 0.7854 0.7538 0.0
H82 H 0.62202 0.79768 0.79188 0.0
H83 H 0.56867 0.77504 0.76319 0.0
C84 C 0.59053 0.92022 0.89074 0.0
N85 N 0.62643 0.90621 0.87667 0.0
N86 N 0.61759 0.90471 0.84751 0.0
C87 C 0.57528 0.91675 0.84226 0.0
C88 C 0.55722 0.92782 0.86942 0.0
C89 C 0.594 0.93446 0.92341 0.0
H90 H 0.63622 0.97324 0.92823 0.0
H91 H 0.59087 0.89809 0.93672 0.0
H92 H 0.55898 0.94267 0.9303 0.0
O93 O 0.76021 0.97937 0.87485 0.0
O94 O 0.74534 0.98545 0.82657 0.0
H95 H 0.59659 0.97032 0.80348 0.0
H96 H 0.52084 0.93164 0.81212 0.0
C97 C 0.56064 0.92878 0.81173 0.0
H98 H 0.55467 0.89416 0.79599 0.0
H99 H 0.68846 0.99569 0.77451 0.0
O100 O 0.70927 0.93163 0.93429 0.0
C101 C 0.77553 0.00609 0.85011 0.0
Co102 Co 0.76935 0.68588 0.22434 0.0
Co103 Co 0.75687 0.66691 0.15398 0.0
C104 C 0.8693 0.70345 0.1867 0.0
O105 O 0.84865 0.70118 0.21292 0.0
O106 O 0.83772 0.69113 0.1635 0.0
C107 C 0.78577 0.73839 0.28294 0.0
O108 O 0.82998 0.78225 0.26998 0.0
C109 C 0.77507 0.63045 0.09481 0.0
C110 C 0.7201 0.64914 0.06568 0.0
C111 C 0.76056 0.63155 0.06509 0.0
N112 N 0.7449 0.64691 0.11225 0.0
N113 N 0.71151 0.6573 0.09467 0.0
C114 C 0.81847 0.61582 0.1063 0.0
H115 H 0.86093 0.65565 0.10791 0.0
H116 H 0.80594 0.59642 0.12901 0.0
H117 H 0.82261 0.58566 0.09076 0.0
C118 C 0.65764 0.5783 0.22172 0.0
N119 N 0.70816 0.61551 0.2086 0.0
N120 N 0.70309 0.60734 0.17933 0.0
C121 C 0.64935 0.56463 0.17309 0.0
C122 C 0.61848 0.54522 0.19968 0.0
C123 C 0.64334 0.5827 0.25374 0.0
H124 H 0.64198 0.62309 0.25679 0.0
H125 H 0.67721 0.58433 0.26859 0.0
H126 H 0.60101 0.54555 0.26023 0.0
O127 O 0.7607 0.74905 0.20824 0.0
O128 O 0.74752 0.73459 0.15922 0.0
H129 H 0.61902 0.587 0.13401 0.0
H130 H 0.58174 0.51079 0.14205 0.0
C131 C 0.62436 0.55091 0.14218 0.0
H132 H 0.65395 0.54573 0.12677 0.0
H133 H 0.68517 0.673 0.10231 0.0
O134 O 0.75735 0.69147 0.26841 0.0
C135 C 0.75113 0.76335 0.18267 0.0
Co136 Co 0.08201 0.78904 0.55708 0.0
Co137 Co 0.08991 0.76751 0.48773 0.0
C138 C 0.16451 0.88405 0.51676 0.0
O139 O 0.14711 0.86659 0.5435 0.0
O140 O 0.14536 0.84954 0.49464 0.0
C141 C 0.08686 0.78447 0.62484 0.0
O142 O 0.13609 0.78519 0.62336 0.0
C143 C 0.14151 0.77714 0.42788 0.0
C144 C 0.06552 0.71532 0.4018 0.0
C145 C 0.12321 0.7564 0.39899 0.0
N146 N 0.09669 0.74921 0.4468 0.0
N147 N 0.05167 0.71174 0.43107 0.0
C148 C 0.19748 0.82857 0.43671 0.0
H149 H 0.19346 0.86762 0.43505 0.0
H150 H 0.20818 0.82404 0.46021 0.0
H151 H 0.23302 0.83464 0.42172 0.0
C152 C 0.06868 0.67217 0.55841 0.0
N153 N 0.08761 0.72341 0.54458 0.0
N154 N 0.09563 0.71729 0.51587 0.0
C155 C 0.08478 0.66311 0.51105 0.0
C156 C 0.06647 0.63242 0.53763 0.0
C157 C 0.04125 0.65795 0.58885 0.0
H158 H 0.01255 0.67633 0.59143 0.0
H159 H 0.07535 0.67706 0.60615 0.0
H160 H 0.01606 0.61073 0.59271 0.0
O161 O 0.01162 0.7796 0.5393 0.0
O162 O 0.01252 0.75814 0.49136 0.0
H163 H 0.03849 0.6268 0.47046 0.0
H164 H 0.08219 0.59705 0.48229 0.0
C165 C 0.08029 0.63739 0.48066 0.0
H166 H 0.11582 0.66841 0.46606 0.0
H167 H 0.01051 0.68624 0.44003 0.0
O168 O 0.06302 0.78734 0.60081 0.0
C169 C 0.98769 0.7659 0.51375 0.0
Co170 Co 0.29775 0.07238 0.88978 0.0
Co171 Co 0.32821 0.08331 0.82013 0.0
C172 C 0.2865 0.15687 0.85131 0.0
O173 O 0.28609 0.13866 0.87787 0.0
O174 O 0.3018 0.13804 0.82904 0.0
C175 C 0.29969 0.06939 0.9584 0.0
O176 O 0.34791 0.11907 0.95962 0.0
C177 C 0.37119 0.14414 0.7626 0.0
C178 C 0.35938 0.07387 0.73233 0.0
C179 C 0.37428 0.13135 0.7327 0.0
N180 N 0.35474 0.09639 0.77917 0.0
N181 N 0.34839 0.05468 0.76088 0.0
C182 C 0.38352 0.201 0.7751 0.0
H183 H 0.39775 0.20529 0.7988 0.0
H184 H 0.41714 0.23678 0.76152 0.0
H185 H 0.34403 0.20422 0.77421 0.0
C186 C 0.40352 0.06272 0.89112 0.0
N187 N 0.36956 0.07932 0.87715 0.0
N188 N 0.38305 0.08656 0.84833 0.0
C189 C 0.4268 0.07649 0.84346 0.0
C190 C 0.44104 0.06069 0.87028 0.0
C191 C 0.39278 0.03809 0.92214 0.0
H192 H 0.3463 0.0068 0.92514 0.0
H193 H 0.40572 0.07345 0.9386 0.0
H194 H 0.41789 0.01636 0.92676 0.0
O195 O 0.23748 0.0038 0.86983 0.0
O196 O 0.25963 0.00563 0.82175 0.0
H197 H 0.41399 0.03022 0.80251 0.0
H198 H 0.4881 0.07054 0.81433 0.0
C199 C 0.44706 0.07104 0.81297 0.0
H200 H 0.45332 0.10752 0.79864 0.0
H201 H 0.33342 0.01224 0.76762 0.0
O202 O 0.2771 0.04846 0.93304 0.0
C203 C 0.22675 0.98057 0.84402 0.0
Co204 Co 0.69964 0.78826 0.46105 0.0
Co205 Co 0.67503 0.76931 0.53094 0.0
C206 C 0.71707 0.88527 0.5006 0.0
O207 O 0.71414 0.86715 0.47373 0.0
O208 O 0.70317 0.85108 0.52274 0.0
C209 C 0.69295 0.78097 0.39241 0.0
O210 O 0.64392 0.78071 0.39166 0.0
C211 C 0.63687 0.78758 0.58962 0.0
C212 C 0.64758 0.72702 0.61864 0.0
C213 C 0.63389 0.77038 0.61921 0.0
N214 N 0.65175 0.75599 0.57227 0.0
N215 N 0.65755 0.71944 0.58978 0.0
C216 C 0.62773 0.83482 0.57819 0.0
H217 H 0.66988 0.87501 0.57602 0.0
H218 H 0.60743 0.82335 0.55567 0.0
H219 H 0.6004 0.84294 0.59391 0.0
C220 C 0.59452 0.67201 0.46161 0.0
N221 N 0.62865 0.72354 0.47485 0.0
N222 N 0.61686 0.71842 0.50385 0.0
C223 C 0.57342 0.66467 0.50954 0.0
C224 C 0.5584 0.63309 0.48313 0.0
C225 C 0.60334 0.65725 0.43037 0.0
H226 H 0.64959 0.67226 0.42662 0.0
H227 H 0.58969 0.67942 0.41425 0.0
H228 H 0.57761 0.61027 0.42595 0.0
O229 O 0.76058 0.7787 0.47864 0.0
O230 O 0.74168 0.75772 0.52691 0.0
H231 H 0.58823 0.63133 0.54988 0.0
H232 H 0.51347 0.59946 0.54012 0.0
C233 C 0.55536 0.64031 0.54044 0.0
H234 H 0.55155 0.67172 0.55507 0.0
H235 H 0.6713 0.69141 0.58227 0.0
O236 O 0.71701 0.78435 0.41747 0.0
C237 C 0.77233 0.76483 0.50372 0.0
Co238 Co 0.91525 0.68493 0.79346 0.0
Co239 Co 0.91005 0.6695 0.8642 0.0
C240 C 0.83339 0.70423 0.83034 0.0
O241 O 0.85135 0.70053 0.80424 0.0
O242 O 0.85331 0.69346 0.8538 0.0
C243 C 0.95397 0.73801 0.73554 0.0
O244 O 0.95216 0.78122 0.74837 0.0
C245 C 0.86003 0.63417 0.92561 0.0
C246 C 0.93885 0.65863 0.95163 0.0
C247 C 0.88046 0.63859 0.95481 0.0
N248 N 0.90461 0.65183 0.90636 0.0
N249 N 0.95131 0.66549 0.92216 0.0
C250 C 0.8002 0.61792 0.91639 0.0
H251 H 0.78564 0.64411 0.92899 0.0
H252 H 0.79745 0.62324 0.89199 0.0
H253 H 0.77054 0.5719 0.92168 0.0
C254 C 0.91812 0.57675 0.79748 0.0
N255 N 0.90622 0.61529 0.81017 0.0
N256 N 0.90445 0.60889 0.83956 0.0
C257 C 0.91538 0.56627 0.84632 0.0
C258 C 0.92535 0.54506 0.81988 0.0
C259 C 0.93155 0.57637 0.76493 0.0
H260 H 0.97552 0.61252 0.76044 0.0
H261 H 0.90061 0.58218 0.75105 0.0
H262 H 0.92975 0.5354 0.75865 0.0
O263 O 0.98683 0.74874 0.80904 0.0
O264 O 0.98695 0.73726 0.85822 0.0
H265 H 0.96967 0.59172 0.88488 0.0
H266 H 0.93136 0.51512 0.87834 0.0
C267 C 0.92817 0.55475 0.87739 0.0
H268 H 0.89383 0.55013 0.89296 0.0
H269 H 0.99238 0.68225 0.91291 0.0
O270 O 0.93442 0.69049 0.74962 0.0
C271 C 0.0114 0.76459 0.83433 0.0
Co272 Co 0.21807 0.90622 0.1288 0.0
Co273 Co 0.22955 0.90529 0.19959 0.0
C274 C 0.11792 0.82528 0.16744 0.0
O275 O 0.1385 0.84251 0.14105 0.0
O276 O 0.14942 0.84635 0.19055 0.0
C277 C 0.20301 0.93763 0.06861 0.0
O278 O 0.15799 0.93741 0.08038 0.0
C279 C 0.22249 0.85669 0.25989 0.0
C280 C 0.26257 0.93533 0.28768 0.0
C281 C 0.23459 0.87583 0.28927 0.0
N282 N 0.24284 0.9027 0.24161 0.0
N283 N 0.26772 0.94965 0.25842 0.0
C284 C 0.18994 0.79536 0.24975 0.0
H285 H 0.18577 0.79244 0.22496 0.0
H286 H 0.21297 0.77293 0.25732 0.0
H287 H 0.14688 0.77324 0.26054 0.0
C288 C 0.33094 0.91313 0.13385 0.0
N289 N 0.27973 0.89977 0.14611 0.0
N290 N 0.28393 0.89874 0.17554 0.0
C291 C 0.33761 0.91123 0.18279 0.0
C292 C 0.36942 0.92138 0.15668 0.0
C293 C 0.34617 0.9295 0.10165 0.0
H294 H 0.3469 0.97059 0.09729 0.0
H295 H 0.31306 0.89572 0.08701 0.0
H296 H 0.38899 0.93504 0.09606 0.0
O297 O 0.22561 0.97897 0.14269 0.0
O298 O 0.23719 0.98093 0.19197 0.0
H299 H 0.36199 0.96395 0.22212 0.0
H300 H 0.40542 0.93103 0.21492 0.0
C301 C 0.36118 0.92439 0.21402 0.0
H302 H 0.33288 0.88829 0.22911 0.0
H303 H 0.28552 0.99147 0.25002 0.0
O304 O 0.23115 0.92064 0.08442 0.0
C305 C 0.23407 0.00437 0.1678 0.0
Co306 Co 0.3094 0.23508 0.46254 0.0
Co307 Co 0.32793 0.24347 0.53339 0.0
C308 C 0.29177 0.13278 0.49781 0.0
O309 O 0.29377 0.15582 0.47243 0.0
O310 O 0.3045 0.16227 0.52197 0.0
C311 C 0.26231 0.21378 0.40189 0.0
O312 O 0.22402 0.16287 0.41221 0.0
C313 C 0.35879 0.22218 0.5943 0.0
C314 C 0.35958 0.29223 0.62077 0.0
C315 C 0.36725 0.24501 0.62316 0.0
N316 N 0.34846 0.25546 0.57561 0.0
N317 N 0.34864 0.29701 0.59174 0.0
C318 C 0.34932 0.16423 0.5856 0.0
H319 H 0.30395 0.13745 0.57836 0.0
H320 H 0.3777 0.16877 0.5664 0.0
H321 H 0.35644 0.14152 0.60435 0.0
C322 C 0.41668 0.34539 0.46554 0.0
N323 N 0.37932 0.29497 0.47866 0.0
N324 N 0.38782 0.29947 0.50793 0.0
C325 C 0.43166 0.35302 0.51399 0.0
C326 C 0.45069 0.38415 0.48746 0.0
C327 C 0.41212 0.35999 0.43364 0.0
H328 H 0.37158 0.36097 0.43072 0.0
H329 H 0.41089 0.3264 0.41858 0.0
H330 H 0.44902 0.40257 0.42724 0.0
O331 O 0.24715 0.24352 0.47942 0.0
O332 O 0.25922 0.2524 0.52876 0.0
H333 H 0.41772 0.39065 0.55299 0.0
H334 H 0.49225 0.41696 0.54449 0.0
C335 C 0.44879 0.37793 0.54479 0.0
H336 H 0.449 0.34569 0.56023 0.0
H337 H 0.33904 0.32741 0.58318 0.0
O338 O 0.30353 0.24817 0.41875 0.0
C339 C 0.23184 0.25117 0.50518 0.0
Co340 Co 0.07783 0.29527 0.79572 0.0
Co341 Co 0.09418 0.32452 0.86527 0.0
C342 C 0.16755 0.28616 0.83213 0.0
O343 O 0.14332 0.28362 0.8071 0.0
O344 O 0.15325 0.30246 0.85589 0.0
C345 C 0.084 0.30593 0.72862 0.0
O346 O 0.13388 0.35374 0.7307 0.0
C347 C 0.14381 0.36046 0.92618 0.0
C348 C 0.07401 0.36481 0.95019 0.0
C349 C 0.12824 0.37167 0.95412 0.0
N350 N 0.10155 0.34947 0.90649 0.0
N351 N 0.05983 0.35179 0.92112 0.0
C352 C 0.19152 0.3486 0.91954 0.0
H353 H 0.17206 0.30263 0.91312 0.0
H354 H 0.21731 0.37546 0.90032 0.0
H355 H 0.21981 0.35607 0.93907 0.0
C356 C 0.06559 0.3985 0.7959 0.0
N357 N 0.08449 0.36578 0.80908 0.0
N358 N 0.09495 0.38019 0.83768 0.0
C359 C 0.08595 0.42471 0.84286 0.0
C360 C 0.06593 0.43695 0.81686 0.0
C361 C 0.03655 0.38531 0.76593 0.0
H362 H 0.00698 0.33822 0.76369 0.0
H363 H 0.06965 0.3994 0.74806 0.0
H364 H 0.01203 0.40809 0.76265 0.0
O365 O 0.00908 0.23417 0.81414 0.0
O366 O 0.0179 0.25308 0.86298 0.0
H367 H 0.04533 0.42564 0.88394 0.0
H368 H 0.0977 0.49548 0.87054 0.0
C369 C 0.08803 0.45028 0.873 0.0
H370 H 0.12152 0.44961 0.88717 0.0
H371 H 0.0205 0.34192 0.91157 0.0
O372 O 0.05832 0.27893 0.75231 0.0
C373 C 0.98974 0.22202 0.8407 0.0
Co374 Co 0.7669 0.07181 0.13157 0.0
Co375 Co 0.75822 0.08216 0.20172 0.0
C376 C 0.86914 0.15583 0.16626 0.0
O377 O 0.84662 0.13602 0.14059 0.0
O378 O 0.83906 0.13804 0.19016 0.0
C379 C 0.78354 0.05841 0.06629 0.0
O380 O 0.8383 0.09735 0.06864 0.0
C381 C 0.77747 0.14293 0.25922 0.0
C382 C 0.72212 0.07216 0.29005 0.0
C383 C 0.76207 0.13045 0.28912 0.0
N384 N 0.74814 0.0943 0.2431 0.0
N385 N 0.71473 0.0522 0.26168 0.0
C386 C 0.81993 0.20023 0.24636 0.0
H387 H 0.81048 0.20262 0.22234 0.0
H388 H 0.81902 0.23537 0.25913 0.0
H389 H 0.86375 0.20633 0.24832 0.0
C390 C 0.65689 0.06929 0.13455 0.0
N391 N 0.70746 0.08276 0.14742 0.0
N392 N 0.70285 0.08597 0.17671 0.0
C393 C 0.64908 0.07457 0.18329 0.0
C394 C 0.61782 0.06255 0.15684 0.0
C395 C 0.64323 0.0534 0.10218 0.0
H396 H 0.67845 0.08596 0.08793 0.0
H397 H 0.60198 0.05068 0.09583 0.0
H398 H 0.63984 0.01097 0.09807 0.0
O399 O 0.75881 0.00189 0.1494 0.0
O400 O 0.74793 0.00413 0.19858 0.0
H401 H 0.62062 0.02236 0.22268 0.0
H402 H 0.58154 0.05938 0.21493 0.0
C403 C 0.62463 0.06319 0.21437 0.0
H404 H 0.65395 0.09869 0.22949 0.0
H405 H 0.68861 0.00933 0.25519 0.0
O406 O 0.75059 0.04679 0.08886 0.0
C407 C 0.75014 0.97843 0.17501 0.0
C408 C 0.26408 0.29153 0.37002 0.0
C409 C 0.25256 0.23439 0.37279 0.0
C410 C 0.25135 0.31112 0.34346 0.0
C411 C 0.22782 0.27471 0.31837 0.0
H412 H 0.28185 0.32106 0.38878 0.0
H413 H 0.26077 0.35538 0.34247 0.0
S414 S 0.19137 0.12166 0.31387 0.0
N415 N 0.2166 0.14176 0.34823 0.0
N416 N 0.19442 0.17876 0.29801 0.0
C417 C 0.21697 0.21767 0.32075 0.0
C418 C 0.2288 0.19745 0.34802 0.0
C419 C 0.98334 0.20536 0.66837 0.0
C420 C 0.99167 0.24284 0.64446 0.0
C421 C 0.0136 0.2262 0.69543 0.0
C422 C 0.05455 0.28506 0.69928 0.0
H423 H 0.95269 0.15973 0.66628 0.0
H424 H 0.00508 0.19581 0.71343 0.0
S425 S 0.09468 0.40025 0.64256 0.0
N426 N 0.04522 0.34108 0.62582 0.0
N427 N 0.10253 0.38017 0.67642 0.0
C428 C 0.06412 0.32272 0.67524 0.0
C429 C 0.03254 0.30164 0.64792 0.0
C430 C 0.69705 0.92814 0.01602 0.0
C431 C 0.71823 0.94916 0.98707 0.0
C432 C 0.71765 0.96412 0.04134 0.0
C433 C 0.76103 0.0224 0.03888 0.0
H434 H 0.66408 0.88355 0.01924 0.0
H435 H 0.70012 0.94575 0.06314 0.0
S436 S 0.82908 0.10021 0.96845 0.0
N437 N 0.78374 0.03364 0.95755 0.0
N438 N 0.82293 0.10018 1.00531 0.0
C439 C 0.78241 0.04422 1.01022 0.0
C440 C 0.76089 0.00795 0.98431 0.0
C441 C 0.7035 0.72385 0.3157 0.0
C442 C 0.76317 0.7471 0.31174 0.0
C443 C 0.68122 0.73611 0.34149 0.0
C444 C 0.71764 0.77096 0.36466 0.0
H445 H 0.67381 0.69727 0.29836 0.0
H446 H 0.63503 0.71746 0.34346 0.0
S447 S 0.87701 0.84072 0.36567 0.0
N448 N 0.85819 0.80634 0.33321 0.0
N449 N 0.81643 0.82758 0.38215 0.0
C450 C 0.77733 0.7935 0.36122 0.0
C451 C 0.80005 0.78212 0.33465 0.0
C452 C 0.01318 0.79047 0.6571 0.0
C453 C 0.05505 0.77375 0.65374 0.0
C454 C 0.98046 0.7786 0.68356 0.0
C455 C 0.98706 0.74801 0.70731 0.0
H456 H 0.00581 0.81329 0.6392 0.0
H457 H 0.94933 0.79294 0.6853 0.0
S458 S 0.09164 0.69607 0.71051 0.0
N459 N 0.1021 0.72631 0.67708 0.0
N460 N 0.04008 0.70343 0.72642 0.0
C461 C 0.02881 0.73127 0.70437 0.0
C462 C 0.06295 0.74431 0.67771 0.0
C463 C 0.30935 0.03974 0.01058 0.0
C464 C 0.274 0.03486 0.98615 0.0
C465 C 0.28631 0.00627 0.03665 0.0
C466 C 0.22682 0.96759 0.03961 0.0
H467 H 0.35533 0.06923 1.00948 0.0
H468 H 0.31515 0.01208 0.05498 0.0
S469 S 0.11554 0.93825 0.9823 0.0
N470 N 0.17636 0.98703 0.96651 0.0
N471 N 0.13312 0.92605 0.01589 0.0
C472 C 0.19099 0.96235 0.01545 0.0
C473 C 0.21455 0.99538 0.98863 0.0
C474 C 0.12453 0.34332 1.00769 0.0
C475 C 0.15681 0.37793 0.98339 0.0
C476 C 0.15119 0.34358 0.03473 0.0
C477 C 0.21098 0.37861 0.0384 0.0
H478 H 0.07871 0.31393 1.00537 0.0
H479 H 0.12518 0.31401 0.05229 0.0
S480 S 0.31336 0.48335 0.98338 0.0
N481 N 0.25049 0.45359 0.96614 0.0
N482 N 0.30097 0.45213 0.01665 0.0
C483 C 0.24332 0.41536 0.01487 0.0
C484 C 0.21607 0.41574 0.98747 0.0
C485 C 0.85098 0.18989 0.31891 0.0
C486 C 0.79136 0.16658 0.31548 0.0
C487 C 0.87888 0.2185 0.34535 0.0
C488 C 0.84804 0.22469 0.36923 0.0
H489 H 0.87586 0.18381 0.3016 0.0
H490 H 0.92449 0.23385 0.34755 0.0
S491 S 0.69279 0.17886 0.36935 0.0
N492 N 0.7032 0.1556 0.33686 0.0
N493 N 0.75613 0.21187 0.38614 0.0
C494 C 0.78904 0.20464 0.3653 0.0
C495 C 0.76049 0.17466 0.33856 0.0
C496 C 0.59164 0.80022 0.69569 0.0
C497 C 0.63533 0.85727 0.70152 0.0
C498 C 0.59073 0.77238 0.66874 0.0
C499 C 0.63266 0.80112 0.64648 0.0
H500 H 0.55783 0.77679 0.71191 0.0
H501 H 0.55708 0.72812 0.66529 0.0
S502 S 0.75677 0.94984 0.65067 0.0
N503 N 0.72206 0.94093 0.6826 0.0
N504 N 0.71955 0.88882 0.63206 0.0
C505 C 0.67589 0.85824 0.65173 0.0
C506 C 0.67724 0.88635 0.67915 0.0
C507 C 0.79293 0.59201 0.98855 0.0
C508 C 0.85077 0.63476 0.98373 0.0
C509 C 0.76394 0.5906 0.01513 0.0
C510 C 0.79224 0.63091 0.0381 0.0
H511 H 0.7698 0.55907 0.9719 0.0
H512 H 0.71917 0.55771 0.01779 0.0
S513 S 0.94301 0.75153 0.03708 0.0
N514 N 0.9349 0.71863 1.00459 0.0
N515 N 0.88058 0.71493 0.05453 0.0
C516 C 0.85014 0.67304 0.03397 0.0
C517 C 0.87946 0.67502 1.00686 0.0
C518 C 0.1249 0.80391 0.35087 0.0
C519 C 0.15184 0.78352 0.37037 0.0
C520 C 0.15182 0.83284 0.32434 0.0
C521 C 0.20641 0.84209 0.31636 0.0
H522 H 0.08327 0.7987 0.35654 0.0
H523 H 0.13021 0.84891 0.31015 0.0
S524 S 0.29253 0.79218 0.35788 0.0
N525 N 0.234 0.7703 0.37857 0.0
N526 N 0.28523 0.8261 0.32876 0.0
C527 C 0.23314 0.8205 0.33504 0.0
C528 C 0.20563 0.79077 0.36208 0.0
C529 C 0.3409 0.18821 0.70308 0.0
C530 C 0.37797 0.1656 0.70588 0.0
C531 C 0.33888 0.21512 0.67649 0.0
C532 C 0.37372 0.22024 0.6517 0.0
H533 H 0.31149 0.183 0.72108 0.0
H534 H 0.30835 0.23024 0.67498 0.0
S535 S 0.48379 0.17528 0.64929 0.0
N536 N 0.45333 0.15392 0.68263 0.0
N537 N 0.45144 0.2068 0.63308 0.0
C538 C 0.41315 0.20055 0.65483 0.0
C539 C 0.41458 0.17239 0.68176 0.0
C540 C 0.52117 0.45947 0.20873 0.0
C541 C 0.55536 0.51835 0.20225 0.0
C542 C 0.46091 0.43317 0.20951 0.0
C543 C 0.43331 0.46516 0.20395 0.0
H544 H 0.54105 0.43348 0.21258 0.0
H545 H 0.43565 0.38724 0.21366 0.0
S546 S 0.50425 0.62112 0.1871 0.0
N547 N 0.55798 0.60827 0.19108 0.0
N548 N 0.4447 0.55879 0.19262 0.0
C549 C 0.46725 0.52428 0.19813 0.0
C550 C 0.52839 0.55095 0.19729 0.0
C551 C 0.01829 0.47395 0.54533 0.0
C552 C 0.95973 0.447 0.5373 0.0
C553 C 0.05251 0.53421 0.54629 0.0
C554 C 0.02908 0.5692 0.53934 0.0
H555 H 0.03812 0.44821 0.55011 0.0
H556 H 0.09772 0.55354 0.55183 0.0
S557 S 0.87815 0.52008 0.51795 0.0
N558 N 0.87968 0.45982 0.52311 0.0
N559 N 0.94406 0.57327 0.52481 0.0
C560 C 0.97047 0.54288 0.53186 0.0
C561 C 0.93572 0.48163 0.53085 0.0
C562 C 0.44021 0.9675 0.86619 0.0
C563 C 0.47039 0.02672 0.87292 0.0
C564 C 0.46812 0.93506 0.86619 0.0
C565 C 0.52695 0.96089 0.87301 0.0
H566 H 0.39506 0.94651 0.86024 0.0
H567 H 0.44397 0.88987 0.86012 0.0
S568 S 0.62479 0.1146 0.89197 0.0
N569 N 0.56162 0.1098 0.88669 0.0
N570 N 0.61445 0.04909 0.88652 0.0
C571 C 0.55726 0.01989 0.88023 0.0
C572 C 0.52883 0.05281 0.88021 0.0
C573 C 0.53706 0.48208 0.48036 0.0
C574 C 0.47761 0.44743 0.48507 0.0
C575 C 0.56275 0.54233 0.47872 0.0
C576 C 0.52962 0.56946 0.48162 0.0
H577 H 0.5638 0.46256 0.47833 0.0
H578 H 0.60898 0.56801 0.47583 0.0
S579 S 0.37218 0.49731 0.49368 0.0
N580 N 0.3862 0.44396 0.49215 0.0
N581 N 0.43459 0.55719 0.48907 0.0
C582 C 0.47013 0.5351 0.48595 0.0
C583 C 0.44404 0.47397 0.48764 0.0
C584 C 0.01701 0.54646 0.80772 0.0
C585 C 0.9592 0.51545 0.81725 0.0
C586 C 0.05144 0.52068 0.80716 0.0
C587 C 0.02898 0.46324 0.81613 0.0
H588 H 0.03608 0.59132 0.80132 0.0
H589 H 0.09597 0.54596 0.80015 0.0
S590 S 0.88014 0.36325 0.84195 0.0
N591 N 0.88088 0.42417 0.83507 0.0
N592 N 0.94555 0.37562 0.83406 0.0
C593 C 0.97113 0.43159 0.82522 0.0
C594 C 0.93619 0.45777 0.82579 0.0
C595 C 0.51972 0.05079 0.16112 0.0
C596 C 0.55453 0.02686 0.15461 0.0
C597 C 0.45955 0.01637 0.16112 0.0
C598 C 0.43262 0.95708 0.15468 0.0
H599 H 0.53916 0.09612 0.16665 0.0
H600 H 0.43383 0.03596 0.16661 0.0
S601 S 0.5046 0.87367 0.13698 0.0
N602 N 0.55796 0.94025 0.14217 0.0
N603 N 0.44469 0.8759 0.14179 0.0
C604 C 0.46683 0.93281 0.14789 0.0
C605 C 0.52798 0.96768 0.14797 0.0
C606 C 0.01729 0.24123 0.20241 0.0
C607 C 0.05542 0.25644 0.17799 0.0
C608 C 0.95743 0.21127 0.19818 0.0
C609 C 0.93265 0.19519 0.16933 0.0
H610 H 0.03363 0.25073 0.22516 0.0
H611 H 0.93051 0.19859 0.21799 0.0
S612 S 0.01325 0.22737 0.09745 0.0
N613 N 0.06358 0.2546 0.12348 0.0
N614 N 0.95156 0.19984 0.11572 0.0
C615 C 0.97024 0.2124 0.14457 0.0
C616 C 0.03132 0.24257 0.14885 0.0
C617 C 0.73985 0.98606 0.487 0.0
C618 C 0.7437 0.94801 0.50725 0.0
C619 C 0.76797 0.04574 0.49274 0.0
C620 C 0.80183 0.06996 0.5187 0.0
H621 H 0.71533 0.9697 0.46649 0.0
H622 H 0.76388 0.07316 0.47639 0.0
S623 S 0.82766 0.98898 0.57826 0.0
N624 N 0.78469 0.93906 0.55426 0.0
N625 N 0.83748 0.05046 0.5647 0.0
C626 C 0.80495 0.03208 0.53939 0.0
C627 C 0.77614 0.97146 0.53369 0.0
C628 C 0.7486 0.76565 0.86884 0.0
C629 C 0.73226 0.78867 0.84499 0.0
C630 C 0.77838 0.73576 0.86368 0.0
C631 C 0.7935 0.72755 0.83442 0.0
H632 H 0.74032 0.77257 0.89184 0.0
H633 H 0.7916 0.721 0.88308 0.0
S634 S 0.75552 0.77364 0.76373 0.0
N635 N 0.72958 0.79677 0.79054 0.0
N636 N 0.7852 0.74075 0.78109 0.0
C637 C 0.77452 0.74734 0.81025 0.0
C638 C 0.7441 0.77779 0.81546 0.0
C639 C 0.95641 0.74485 0.15314 0.0
C640 C 0.93233 0.72687 0.18208 0.0
C641 C 0.01611 0.77346 0.14826 0.0
C642 C 0.05476 0.78579 0.17212 0.0
H643 H 0.9292 0.73934 0.13409 0.0
H644 H 0.03202 0.78837 0.12578 0.0
S645 S 0.01404 0.74255 0.25185 0.0
N646 N 0.95201 0.71938 0.23454 0.0
N647 N 0.06389 0.77316 0.22564 0.0
C648 C 0.03113 0.76539 0.20097 0.0
C649 C 0.9702 0.73614 0.2059 0.0
C650 C 0.24054 0.98434 0.53197 0.0
C651 C 0.20217 0.94665 0.5103 0.0
C652 C 0.2724 0.04412 0.52686 0.0
C653 C 0.26646 0.06897 0.50017 0.0
H654 H 0.24546 0.96765 0.5532 0.0
H655 H 0.301 0.07107 0.54434 0.0
S656 S 0.17233 0.9887 0.43584 0.0
N657 N 0.1611 0.93843 0.46059 0.0
N658 N 0.22048 0.05012 0.45124 0.0
C659 C 0.22983 0.03139 0.47783 0.0
C660 C 0.1977 0.97055 0.48291 0.0
C661 C 0.23303 0.26345 0.86246 0.0
C662 C 0.20618 0.26111 0.83484 0.0
C663 C 0.2602 0.23098 0.86756 0.0
C664 C 0.26254 0.19541 0.84508 0.0
H665 H 0.23172 0.28925 0.88073 0.0
H666 H 0.27861 0.23304 0.88945 0.0
S667 S 0.20236 0.17622 0.76795 0.0
N668 N 0.18702 0.22233 0.78407 0.0
N669 N 0.23705 0.16116 0.79359 0.0
C670 C 0.23823 0.19466 0.81686 0.0
C671 C 0.21059 0.22765 0.81171 0.0
C672 C 0.23708 0.13674 0.19915 0.0
C673 C 0.23856 0.16761 0.1733 0.0
C674 C 0.23701 0.08483 0.19708 0.0
C675 C 0.23824 0.06139 0.16907 0.0
H676 H 0.23517 0.15223 0.22137 0.0
H677 H 0.23473 0.06244 0.21771 0.0
S678 S 0.24675 0.12713 0.09444 0.0
N679 N 0.24441 0.17249 0.11873 0.0
N680 N 0.24446 0.07462 0.11476 0.0
C681 C 0.24162 0.0926 0.14295 0.0
C682 C 0.24181 0.14578 0.14508 0.0
C683 C 0.1516 0.24797 0.53512 0.0
C684 C 0.17986 0.25668 0.50744 0.0
C685 C 0.09971 0.24808 0.53728 0.0
C686 C 0.07402 0.25704 0.51184 0.0
H687 H 0.16873 0.23936 0.55519 0.0
H688 H 0.07906 0.23978 0.55907 0.0
S689 S 0.13429 0.28844 0.43457 0.0
N690 N 0.18097 0.27931 0.45435 0.0
N691 N 0.08329 0.2793 0.45845 0.0
C692 C 0.10308 0.2682 0.48419 0.0
C693 C 0.156 0.26807 0.48199 0.0
C694 C 0.84114 0.0985 0.82413 0.0
C695 C 0.82947 0.06219 0.84903 0.0
C696 C 0.89248 0.15111 0.82218 0.0
C697 C 0.93388 0.1695 0.84513 0.0
H698 H 0.81063 0.08613 0.80585 0.0
H699 H 0.90007 0.17738 0.80237 0.0
S700 S 0.92566 0.08999 0.91454 0.0
N701 N 0.86451 0.04807 0.89698 0.0
N702 N 0.9608 0.14762 0.89318 0.0
C703 C 0.92265 0.13435 0.87036 0.0
C704 C 0.87052 0.08045 0.87232 0.0
C705 C 0.75639 0.90262 0.20427 0.0
C706 C 0.74475 0.92105 0.17707 0.0
C707 C 0.75712 0.85095 0.20592 0.0
C708 C 0.74604 0.81563 0.18045 0.0
H709 H 0.76686 0.92912 0.22423 0.0
H710 H 0.7678 0.83945 0.22727 0.0
S711 S 0.70604 0.84133 0.10467 0.0
N712 N 0.71672 0.89769 0.12466 0.0
N713 N 0.71819 0.80057 0.12777 0.0
C714 C 0.73173 0.83234 0.1534 0.0
C715 C 0.73105 0.88503 0.15171 0.0
C716 C 0.84955 0.76351 0.53387 0.0
C717 C 0.82414 0.7593 0.50582 0.0
C718 C 0.90173 0.7642 0.53613 0.0
C719 C 0.93043 0.76041 0.51044 0.0
H720 H 0.83003 0.76818 0.55421 0.0
H721 H 0.9201 0.76884 0.55829 0.0
S722 S 0.87835 0.74214 0.43185 0.0
N723 N 0.82883 0.74642 0.45188 0.0
N724 N 0.9272 0.74791 0.45618 0.0
C725 C 0.90412 0.75348 0.48231 0.0
C726 C 0.85094 0.75293 0.47999 0.0
C727 C 0.14172 0.89515 0.86621 0.0
C728 C 0.17423 0.92364 0.8405 0.0
C729 C 0.09004 0.84306 0.86401 0.0
C730 C 0.06848 0.81726 0.83601 0.0
H731 H 0.15569 0.91348 0.88838 0.0
H732 H 0.06623 0.82371 0.88446 0.0
S733 S 0.13917 0.87136 0.7619 0.0
N734 N 0.18276 0.92029 0.78619 0.0
N735 N 0.08541 0.82191 0.782 0.0
C736 C 0.1014 0.84406 0.8101 0.0
C737 C 0.15432 0.89731 0.81237 0.0
loop_
_geom_bond_atom_site_label_1
_geom_bond_atom_site_label_2
_geom_bond_distance
_geom_bond_site_symmetry_2
_ccdc_geom_bond_type
Co0 O3 1.970 . S
Co0 N17 1.989 . S
Co0 O25 1.967 . S
Co0 O32 1.920 . S
Co1 O4 1.966 . S
Co1 N10 2.022 . S
Co1 N18 1.993 . S
Co1 O26 1.941 . S
C2 O3 1.258 . S
C2 O4 1.263 . S
O3 Co0 1.970 . S
O3 C2 1.258 . S
O4 Co1 1.966 . S
O4 C2 1.263 . S
C5 O6 1.235 . S
C5 O32 1.289 . S
O6 C5 1.235 . S
C7 C9 1.400 . S
C7 N10 1.351 . S
C7 C12 1.501 . S
C8 C9 1.387 . S
C8 N11 1.341 . S
C9 C7 1.400 . S
C9 C8 1.387 . S
N10 Co1 2.022 . S
N10 C7 1.351 . S
N10 N11 1.365 . S
N11 C8 1.341 . S
N11 N10 1.365 . S
N11 H31 0.862 . S
C12 C7 1.501 . S
C12 H13 0.961 . S
C12 H14 0.961 . S
C12 H15 0.960 . S
H13 C12 0.961 . S
H14 C12 0.961 . S
H15 C12 0.960 . S
C16 N17 1.342 . S
C16 C20 1.401 . S
C16 C21 1.499 . S
N17 Co0 1.989 . S
N17 C16 1.342 . S
N17 N18 1.388 . S
N18 Co1 1.993 . S
N18 N17 1.388 . S
N18 C19 1.346 . S
C19 N18 1.346 . S
C19 C20 1.396 . S
C19 C29 1.510 . S
C20 C16 1.401 . S
C20 C19 1.396 . S
C21 C16 1.499 . S
C21 H22 0.959 . S
C21 H23 0.960 . S
C21 H24 0.961 . S
H22 C21 0.959 . S
H23 C21 0.960 . S
H24 C21 0.961 . S
O25 Co0 1.967 . S
O25 C33 1.258 . S
O26 Co1 1.941 . S
O26 C33 1.266 . S
H27 C29 0.959 . S
H28 C29 0.961 . S
C29 C19 1.510 . S
C29 H27 0.959 . S
C29 H28 0.961 . S
C29 H30 0.960 . S
H30 C29 0.960 . S
H31 N11 0.862 . S
O32 Co0 1.920 . S
O32 C5 1.289 . S
C33 O25 1.258 . S
C33 O26 1.266 . S
Co34 O37 1.970 . S
Co34 N51 1.989 . S
Co34 O59 1.967 1_655 S
Co34 O66 1.920 . S
Co35 O38 1.966 . S
Co35 N44 2.022 . S
Co35 N52 1.993 . S
Co35 O60 1.941 1_655 S
C36 O37 1.258 . S
C36 O38 1.263 . S
O37 Co34 1.970 . S
O37 C36 1.258 . S
O38 Co35 1.966 . S
O38 C36 1.263 . S
C39 O40 1.235 . S
C39 O66 1.289 . S
O40 C39 1.235 . S
C41 C43 1.400 . S
C41 N44 1.351 . S
C41 C46 1.501 . S
C42 C43 1.387 . S
C42 N45 1.341 . S
C43 C41 1.400 . S
C43 C42 1.387 . S
N44 Co35 2.022 . S
N44 C41 1.351 . S
N44 N45 1.365 . S
N45 C42 1.341 . S
N45 N44 1.365 . S
N45 H65 0.862 . S
C46 C41 1.501 . S
C46 H47 0.961 . S
C46 H48 0.961 . S
C46 H49 0.960 . S
H47 C46 0.961 . S
H48 C46 0.961 . S
H49 C46 0.960 . S
C50 N51 1.342 . S
C50 C54 1.401 . S
C50 C55 1.499 . S
N51 Co34 1.989 . S
N51 C50 1.342 . S
N51 N52 1.388 . S
N52 Co35 1.993 . S
N52 N51 1.388 . S
N52 C53 1.346 . S
C53 N52 1.346 . S
C53 C54 1.396 . S
C53 C63 1.510 . S
C54 C50 1.401 . S
C54 C53 1.396 . S
C55 C50 1.499 . S
C55 H56 0.959 . S
C55 H57 0.960 . S
C55 H58 0.961 . S
H56 C55 0.959 . S
H57 C55 0.960 . S
H58 C55 0.961 . S
O59 Co34 1.967 1_455 S
O59 C67 1.258 . S
O60 Co35 1.941 1_455 S
O60 C67 1.266 . S
H61 C63 0.959 . S
H62 C63 0.961 . S
C63 C53 1.510 . S
C63 H61 0.959 . S
C63 H62 0.961 . S
C63 H64 0.960 . S
H64 C63 0.960 . S
H65 N45 0.862 . S
O66 Co34 1.920 . S
O66 C39 1.289 . S
C67 O59 1.258 . S
C67 O60 1.266 . S
Co68 O71 1.970 . S
Co68 N85 1.989 . S
Co68 O93 1.967 1_565 S
Co68 O100 1.920 . S
Co69 O72 1.966 . S
Co69 N78 2.022 . S
Co69 N86 1.993 . S
Co69 O94 1.941 1_565 S
C70 O71 1.258 . S
C70 O72 1.263 . S
O71 Co68 1.970 . S
O71 C70 1.258 . S
O72 Co69 1.966 . S
O72 C70 1.263 . S
C73 O74 1.235 . S
C73 O100 1.289 . S
O74 C73 1.235 . S
C75 C77 1.400 . S
C75 N78 1.351 . S
C75 C80 1.501 . S
C76 C77 1.387 . S
C76 N79 1.341 . S
C77 C75 1.400 . S
C77 C76 1.387 . S
N78 Co69 2.022 . S
N78 C75 1.351 . S
N78 N79 1.365 . S
N79 C76 1.341 . S
N79 N78 1.365 . S
N79 H99 0.862 . S
C80 C75 1.501 . S
C80 H81 0.961 . S
C80 H82 0.961 . S
C80 H83 0.960 . S
H81 C80 0.961 . S
H82 C80 0.961 . S
H83 C80 0.960 . S
C84 N85 1.342 . S
C84 C88 1.401 . S
C84 C89 1.499 . S
N85 Co68 1.989 . S
N85 C84 1.342 . S
N85 N86 1.388 . S
N86 Co69 1.993 . S
N86 N85 1.388 . S
N86 C87 1.346 . S
C87 N86 1.346 . S
C87 C88 1.396 . S
C87 C97 1.510 . S
C88 C84 1.401 . S
C88 C87 1.396 . S
C89 C84 1.499 . S
C89 H90 0.959 . S
C89 H91 0.960 . S
C89 H92 0.961 . S
H90 C89 0.959 . S
H91 C89 0.960 . S
H92 C89 0.961 . S
O93 Co68 1.967 1_545 S
O93 C101 1.258 . S
O94 Co69 1.941 1_545 S
O94 C101 1.266 . S
H95 C97 0.959 . S
H96 C97 0.961 . S
C97 C87 1.510 . S
C97 H95 0.959 . S
C97 H96 0.961 . S
C97 H98 0.960 . S
H98 C97 0.960 . S
H99 N79 0.862 . S
O100 Co68 1.920 . S
O100 C73 1.289 . S
C101 O93 1.258 . S
C101 O94 1.266 . S
Co102 O105 1.970 . S
Co102 N119 1.989 . S
Co102 O127 1.967 . S
Co102 O134 1.920 . S
Co103 O106 1.966 . S
Co103 N112 2.022 . S
Co103 N120 1.993 . S
Co103 O128 1.941 . S
C104 O105 1.258 . S
C104 O106 1.263 . S
O105 Co102 1.970 . S
O105 C104 1.258 . S
O106 Co103 1.966 . S
O106 C104 1.263 . S
C107 O108 1.235 . S
C107 O134 1.289 . S
O108 C107 1.235 . S
C109 C111 1.400 . S
C109 N112 1.351 . S
C109 C114 1.501 . S
C110 C111 1.387 . S
C110 N113 1.341 . S
C111 C109 1.400 . S
C111 C110 1.387 . S
N112 Co103 2.022 . S
N112 C109 1.351 . S
N112 N113 1.365 . S
N113 C110 1.341 . S
N113 N112 1.365 . S
N113 H133 0.862 . S
C114 C109 1.501 . S
C114 H115 0.961 . S
C114 H116 0.961 . S
C114 H117 0.960 . S
H115 C114 0.961 . S
H116 C114 0.961 . S
H117 C114 0.960 . S
C118 N119 1.342 . S
C118 C122 1.401 . S
C118 C123 1.499 . S
N119 Co102 1.989 . S
N119 C118 1.342 . S
N119 N120 1.388 . S
N120 Co103 1.993 . S
N120 N119 1.388 . S
N120 C121 1.346 . S
C121 N120 1.346 . S
C121 C122 1.396 . S
C121 C131 1.510 . S
C122 C118 1.401 . S
C122 C121 1.396 . S
C123 C118 1.499 . S
C123 H124 0.959 . S
C123 H125 0.960 . S
C123 H126 0.961 . S
H124 C123 0.959 . S
H125 C123 0.960 . S
H126 C123 0.961 . S
O127 Co102 1.967 . S
O127 C135 1.258 . S
O128 Co103 1.941 . S
O128 C135 1.266 . S
H129 C131 0.959 . S
H130 C131 0.961 . S
C131 C121 1.510 . S
C131 H129 0.959 . S
C131 H130 0.961 . S
C131 H132 0.960 . S
H132 C131 0.960 . S
H133 N113 0.862 . S
O134 Co102 1.920 . S
O134 C107 1.289 . S
C135 O127 1.258 . S
C135 O128 1.266 . S
Co136 O139 1.970 . S
Co136 N153 1.989 . S
Co136 O161 1.967 1_455 S
Co136 O168 1.920 . S
Co137 O140 1.966 . S
Co137 N146 2.022 . S
Co137 N154 1.993 . S
Co137 O162 1.941 1_455 S
C138 O139 1.258 . S
C138 O140 1.263 . S
O139 Co136 1.970 . S
O139 C138 1.258 . S
O140 Co137 1.966 . S
O140 C138 1.263 . S
C141 O142 1.235 . S
C141 O168 1.289 . S
O142 C141 1.235 . S
C143 C145 1.400 . S
C143 N146 1.351 . S
C143 C148 1.501 . S
C144 C145 1.387 . S
C144 N147 1.341 . S
C145 C143 1.400 . S
C145 C144 1.387 . S
N146 Co137 2.022 . S
N146 C143 1.351 . S
N146 N147 1.365 . S
N147 C144 1.341 . S
N147 N146 1.365 . S
N147 H167 0.862 . S
C148 C143 1.501 . S
C148 H149 0.961 . S
C148 H150 0.961 . S
C148 H151 0.960 . S
H149 C148 0.961 . S
H150 C148 0.961 . S
H151 C148 0.960 . S
C152 N153 1.342 . S
C152 C156 1.401 . S
C152 C157 1.499 . S
N153 Co136 1.989 . S
N153 C152 1.342 . S
N153 N154 1.388 . S
N154 Co137 1.993 . S
N154 N153 1.388 . S
N154 C155 1.346 . S
C155 N154 1.346 . S
C155 C156 1.396 . S
C155 C165 1.510 . S
C156 C152 1.401 . S
C156 C155 1.396 . S
C157 C152 1.499 . S
C157 H158 0.959 . S
C157 H159 0.960 . S
C157 H160 0.961 . S
H158 C157 0.959 . S
H159 C157 0.960 . S
H160 C157 0.961 . S
O161 Co136 1.967 1_655 S
O161 C169 1.258 . S
O162 Co137 1.941 1_655 S
O162 C169 1.266 . S
H163 C165 0.959 . S
H164 C165 0.961 . S
C165 C155 1.510 . S
C165 H163 0.959 . S
C165 H164 0.961 . S
C165 H166 0.960 . S
H166 C165 0.960 . S
H167 N147 0.862 . S
O168 Co136 1.920 . S
O168 C141 1.289 . S
C169 O161 1.258 . S
C169 O162 1.266 . S
Co170 O173 1.970 . S
Co170 N187 1.989 . S
Co170 O195 1.967 1_545 S
Co170 O202 1.920 . S
Co171 O174 1.966 . S
Co171 N180 2.022 . S
Co171 N188 1.993 . S
Co171 O196 1.941 1_545 S
C172 O173 1.258 . S
C172 O174 1.263 . S
O173 Co170 1.970 . S
O173 C172 1.258 . S
O174 Co171 1.966 . S
O174 C172 1.263 . S
C175 O176 1.235 . S
C175 O202 1.289 . S
O176 C175 1.235 . S
C177 C179 1.400 . S
C177 N180 1.351 . S
C177 C182 1.501 . S
C178 C179 1.387 . S
C178 N181 1.341 . S
C179 C177 1.400 . S
C179 C178 1.387 . S
N180 Co171 2.022 . S
N180 C177 1.351 . S
N180 N181 1.365 . S
N181 C178 1.341 . S
N181 N180 1.365 . S
N181 H201 0.862 . S
C182 C177 1.501 . S
C182 H183 0.961 . S
C182 H184 0.961 . S
C182 H185 0.960 . S
H183 C182 0.961 . S
H184 C182 0.961 . S
H185 C182 0.960 . S
C186 N187 1.342 . S
C186 C190 1.401 . S
C186 C191 1.499 . S
N187 Co170 1.989 . S
N187 C186 1.342 . S
N187 N188 1.388 . S
N188 Co171 1.993 . S
N188 N187 1.388 . S
N188 C189 1.346 . S
C189 N188 1.346 . S
C189 C190 1.396 . S
C189 C199 1.510 . S
C190 C186 1.401 . S
C190 C189 1.396 . S
C191 C186 1.499 . S
C191 H192 0.959 . S
C191 H193 0.960 . S
C191 H194 0.961 . S
H192 C191 0.959 . S
H193 C191 0.960 . S
H194 C191 0.961 . S
O195 Co170 1.967 1_565 S
O195 C203 1.258 . S
O196 Co171 1.941 1_565 S
O196 C203 1.266 . S
H197 C199 0.959 . S
H198 C199 0.961 . S
C199 C189 1.510 . S
C199 H197 0.959 . S
C199 H198 0.961 . S
C199 H200 0.960 . S
H200 C199 0.960 . S
H201 N181 0.862 . S
O202 Co170 1.920 . S
O202 C175 1.289 . S
C203 O195 1.258 . S
C203 O196 1.266 . S
Co204 O207 1.970 . S
Co204 N221 1.989 . S
Co204 O229 1.967 . S
Co204 O236 1.920 . S
Co205 O208 1.966 . S
Co205 N214 2.022 . S
Co205 N222 1.993 . S
Co205 O230 1.941 . S
C206 O207 1.258 . S
C206 O208 1.263 . S
O207 Co204 1.970 . S
O207 C206 1.258 . S
O208 Co205 1.966 . S
O208 C206 1.263 . S
C209 O210 1.235 . S
C209 O236 1.289 . S
O210 C209 1.235 . S
C211 C213 1.400 . S
C211 N214 1.351 . S
C211 C216 1.501 . S
C212 C213 1.387 . S
C212 N215 1.341 . S
C213 C211 1.400 . S
C213 C212 1.387 . S
N214 Co205 2.022 . S
N214 C211 1.351 . S
N214 N215 1.365 . S
N215 C212 1.341 . S
N215 N214 1.365 . S
N215 H235 0.862 . S
C216 C211 1.501 . S
C216 H217 0.961 . S
C216 H218 0.961 . S
C216 H219 0.960 . S
H217 C216 0.961 . S
H218 C216 0.961 . S
H219 C216 0.960 . S
C220 N221 1.342 . S
C220 C224 1.401 . S
C220 C225 1.499 . S
N221 Co204 1.989 . S
N221 C220 1.342 . S
N221 N222 1.388 . S
N222 Co205 1.993 . S
N222 N221 1.388 . S
N222 C223 1.346 . S
C223 N222 1.346 . S
C223 C224 1.396 . S
C223 C233 1.510 . S
C224 C220 1.401 . S
C224 C223 1.396 . S
C225 C220 1.499 . S
C225 H226 0.959 . S
C225 H227 0.960 . S
C225 H228 0.961 . S
H226 C225 0.959 . S
H227 C225 0.960 . S
H228 C225 0.961 . S
O229 Co204 1.967 . S
O229 C237 1.258 . S
O230 Co205 1.941 . S
O230 C237 1.266 . S
H231 C233 0.959 . S
H232 C233 0.961 . S
C233 C223 1.510 . S
C233 H231 0.959 . S
C233 H232 0.961 . S
C233 H234 0.960 . S
H234 C233 0.960 . S
H235 N215 0.862 . S
O236 Co204 1.920 . S
O236 C209 1.289 . S
C237 O229 1.258 . S
C237 O230 1.266 . S
Co238 O241 1.970 . S
Co238 N255 1.989 . S
Co238 O263 1.967 1_655 S
Co238 O270 1.920 . S
Co239 O242 1.966 . S
Co239 N248 2.022 . S
Co239 N256 1.993 . S
Co239 O264 1.941 1_655 S
C240 O241 1.258 . S
C240 O242 1.263 . S
O241 Co238 1.970 . S
O241 C240 1.258 . S
O242 Co239 1.966 . S
O242 C240 1.263 . S
C243 O244 1.235 . S
C243 O270 1.289 . S
O244 C243 1.235 . S
C245 C247 1.400 . S
C245 N248 1.351 . S
C245 C250 1.501 . S
C246 C247 1.387 . S
C246 N249 1.341 . S
C247 C245 1.400 . S
C247 C246 1.387 . S
N248 Co239 2.022 . S
N248 C245 1.351 . S
N248 N249 1.365 . S
N249 C246 1.341 . S
N249 N248 1.365 . S
N249 H269 0.862 . S
C250 C245 1.501 . S
C250 H251 0.961 . S
C250 H252 0.961 . S
C250 H253 0.960 . S
H251 C250 0.961 . S
H252 C250 0.961 . S
H253 C250 0.960 . S
C254 N255 1.342 . S
C254 C258 1.401 . S
C254 C259 1.499 . S
N255 Co238 1.989 . S
N255 C254 1.342 . S
N255 N256 1.388 . S
N256 Co239 1.993 . S
N256 N255 1.388 . S
N256 C257 1.346 . S
C257 N256 1.346 . S
C257 C258 1.396 . S
C257 C267 1.510 . S
C258 C254 1.401 . S
C258 C257 1.396 . S
C259 C254 1.499 . S
C259 H260 0.959 . S
C259 H261 0.960 . S
C259 H262 0.961 . S
H260 C259 0.959 . S
H261 C259 0.960 . S
H262 C259 0.961 . S
O263 Co238 1.967 1_455 S
O263 C271 1.258 . S
O264 Co239 1.941 1_455 S
O264 C271 1.266 . S
H265 C267 0.959 . S
H266 C267 0.961 . S
C267 C257 1.510 . S
C267 H265 0.959 . S
C267 H266 0.961 . S
C267 H268 0.960 . S
H268 C267 0.960 . S
H269 N249 0.862 . S
O270 Co238 1.920 . S
O270 C243 1.289 . S
C271 O263 1.258 . S
C271 O264 1.266 . S
Co272 O275 1.970 . S
Co272 N289 1.989 . S
Co272 O297 1.967 1_565 S
Co272 O304 1.920 . S
Co273 O276 1.966 . S
Co273 N282 2.022 . S
Co273 N290 1.993 . S
Co273 O298 1.941 1_565 S
C274 O275 1.258 . S
C274 O276 1.263 . S
O275 Co272 1.970 . S
O275 C274 1.258 . S
O276 Co273 1.966 . S
O276 C274 1.263 . S
C277 O278 1.235 . S
C277 O304 1.289 . S
O278 C277 1.235 . S
C279 C281 1.400 . S
C279 N282 1.351 . S
C279 C284 1.501 . S
C280 C281 1.387 . S
C280 N283 1.341 . S
C281 C279 1.400 . S
C281 C280 1.387 . S
N282 Co273 2.022 . S
N282 C279 1.351 . S
N282 N283 1.365 . S
N283 C280 1.341 . S
N283 N282 1.365 . S
N283 H303 0.862 . S
C284 C279 1.501 . S
C284 H285 0.961 . S
C284 H286 0.961 . S
C284 H287 0.960 . S
H285 C284 0.961 . S
H286 C284 0.961 . S
H287 C284 0.960 . S
C288 N289 1.342 . S
C288 C292 1.401 . S
C288 C293 1.499 . S
N289 Co272 1.989 . S
N289 C288 1.342 . S
N289 N290 1.388 . S
N290 Co273 1.993 . S
N290 N289 1.388 . S
N290 C291 1.346 . S
C291 N290 1.346 . S
C291 C292 1.396 . S
C291 C301 1.510 . S
C292 C288 1.401 . S
C292 C291 1.396 . S
C293 C288 1.499 . S
C293 H294 0.959 . S
C293 H295 0.960 . S
C293 H296 0.961 . S
H294 C293 0.959 . S
H295 C293 0.960 . S
H296 C293 0.961 . S
O297 Co272 1.967 1_545 S
O297 C305 1.258 . S
O298 Co273 1.941 1_545 S
O298 C305 1.266 . S
H299 C301 0.959 . S
H300 C301 0.961 . S
C301 C291 1.510 . S
C301 H299 0.959 . S
C301 H300 0.961 . S
C301 H302 0.960 . S
H302 C301 0.960 . S
H303 N283 0.862 . S
O304 Co272 1.920 . S
O304 C277 1.289 . S
C305 O297 1.258 . S
C305 O298 1.266 . S
Co306 O309 1.970 . S
Co306 N323 1.989 . S
Co306 O331 1.967 . S
Co306 O338 1.920 . S
Co307 O310 1.966 . S
Co307 N316 2.022 . S
Co307 N324 1.993 . S
Co307 O332 1.941 . S
C308 O309 1.258 . S
C308 O310 1.263 . S
O309 Co306 1.970 . S
O309 C308 1.258 . S
O310 Co307 1.966 . S
O310 C308 1.263 . S
C311 O312 1.235 . S
C311 O338 1.289 . S
O312 C311 1.235 . S
C313 C315 1.400 . S
C313 N316 1.351 . S
C313 C318 1.501 . S
C314 C315 1.387 . S
C314 N317 1.341 . S
C315 C313 1.400 . S
C315 C314 1.387 . S
N316 Co307 2.022 . S
N316 C313 1.351 . S
N316 N317 1.365 . S
N317 C314 1.341 . S
N317 N316 1.365 . S
N317 H337 0.862 . S
C318 C313 1.501 . S
C318 H319 0.961 . S
C318 H320 0.961 . S
C318 H321 0.960 . S
H319 C318 0.961 . S
H320 C318 0.961 . S
H321 C318 0.960 . S
C322 N323 1.342 . S
C322 C326 1.401 . S
C322 C327 1.499 . S
N323 Co306 1.989 . S
N323 C322 1.342 . S
N323 N324 1.388 . S
N324 Co307 1.993 . S
N324 N323 1.388 . S
N324 C325 1.346 . S
C325 N324 1.346 . S
C325 C326 1.396 . S
C325 C335 1.510 . S
C326 C322 1.401 . S
C326 C325 1.396 . S
C327 C322 1.499 . S
C327 H328 0.959 . S
C327 H329 0.960 . S
C327 H330 0.961 . S
H328 C327 0.959 . S
H329 C327 0.960 . S
H330 C327 0.961 . S
O331 Co306 1.967 . S
O331 C339 1.258 . S
O332 Co307 1.941 . S
O332 C339 1.266 . S
H333 C335 0.959 . S
H334 C335 0.961 . S
C335 C325 1.510 . S
C335 H333 0.959 . S
C335 H334 0.961 . S
C335 H336 0.960 . S
H336 C335 0.960 . S
H337 N317 0.862 . S
O338 Co306 1.920 . S
O338 C311 1.289 . S
C339 O331 1.258 . S
C339 O332 1.266 . S
Co340 O343 1.970 . S
Co340 N357 1.989 . S
Co340 O365 1.967 1_455 S
Co340 O372 1.920 . S
Co341 O344 1.966 . S
Co341 N350 2.022 . S
Co341 N358 1.993 . S
Co341 O366 1.941 1_455 S
C342 O343 1.258 . S
C342 O344 1.263 . S
O343 Co340 1.970 . S
O343 C342 1.258 . S
O344 Co341 1.966 . S
O344 C342 1.263 . S
C345 O346 1.235 . S
C345 O372 1.289 . S
O346 C345 1.235 . S
C347 C349 1.400 . S
C347 N350 1.351 . S
C347 C352 1.501 . S
C348 C349 1.387 . S
C348 N351 1.341 . S
C349 C347 1.400 . S
C349 C348 1.387 . S
N350 Co341 2.022 . S
N350 C347 1.351 . S
N350 N351 1.365 . S
N351 C348 1.341 . S
N351 N350 1.365 . S
N351 H371 0.862 . S
C352 C347 1.501 . S
C352 H353 0.961 . S
C352 H354 0.961 . S
C352 H355 0.960 . S
H353 C352 0.961 . S
H354 C352 0.961 . S
H355 C352 0.960 . S
C356 N357 1.342 . S
C356 C360 1.401 . S
C356 C361 1.499 . S
N357 Co340 1.989 . S
N357 C356 1.342 . S
N357 N358 1.388 . S
N358 Co341 1.993 . S
N358 N357 1.388 . S
N358 C359 1.346 . S
C359 N358 1.346 . S
C359 C360 1.396 . S
C359 C369 1.510 . S
C360 C356 1.401 . S
C360 C359 1.396 . S
C361 C356 1.499 . S
C361 H362 0.959 . S
C361 H363 0.960 . S
C361 H364 0.961 . S
H362 C361 0.959 . S
H363 C361 0.960 . S
H364 C361 0.961 . S
O365 Co340 1.967 1_655 S
O365 C373 1.258 . S
O366 Co341 1.941 1_655 S
O366 C373 1.266 . S
H367 C369 0.959 . S
H368 C369 0.961 . S
C369 C359 1.510 . S
C369 H367 0.959 . S
C369 H368 0.961 . S
C369 H370 0.960 . S
H370 C369 0.960 . S
H371 N351 0.862 . S
O372 Co340 1.920 . S
O372 C345 1.289 . S
C373 O365 1.258 . S
C373 O366 1.266 . S
Co374 O377 1.970 . S
Co374 N391 1.989 . S
Co374 O399 1.967 1_545 S
Co374 O406 1.920 . S
Co375 O378 1.966 . S
Co375 N384 2.022 . S
Co375 N392 1.993 . S
Co375 O400 1.941 1_545 S
C376 O377 1.258 . S
C376 O378 1.263 . S
O377 Co374 1.970 . S
O377 C376 1.258 . S
O378 Co375 1.966 . S
O378 C376 1.263 . S
C379 O380 1.235 . S
C379 O406 1.289 . S
O380 C379 1.235 . S
C381 C383 1.400 . S
C381 N384 1.351 . S
C381 C386 1.501 . S
C382 C383 1.387 . S
C382 N385 1.341 . S
C383 C381 1.400 . S
C383 C382 1.387 . S
N384 Co375 2.022 . S
N384 C381 1.351 . S
N384 N385 1.365 . S
N385 C382 1.341 . S
N385 N384 1.365 . S
N385 H405 0.862 . S
C386 C381 1.501 . S
C386 H387 0.961 . S
C386 H388 0.961 . S
C386 H389 0.960 . S
H387 C386 0.961 . S
H388 C386 0.961 . S
H389 C386 0.960 . S
C390 N391 1.342 . S
C390 C394 1.401 . S
C390 C395 1.499 . S
N391 Co374 1.989 . S
N391 C390 1.342 . S
N391 N392 1.388 . S
N392 Co375 1.993 . S
N392 N391 1.388 . S
N392 C393 1.346 . S
C393 N392 1.346 . S
C393 C394 1.396 . S
C393 C403 1.510 . S
C394 C390 1.401 . S
C394 C393 1.396 . S
C395 C390 1.499 . S
C395 H396 0.959 . S
C395 H397 0.960 . S
C395 H398 0.961 . S
H396 C395 0.959 . S
H397 C395 0.960 . S
H398 C395 0.961 . S
O399 Co374 1.967 1_565 S
O399 C407 1.258 . S
O400 Co375 1.941 1_565 S
O400 C407 1.266 . S
H401 C403 0.959 . S
H402 C403 0.961 . S
C403 C393 1.510 . S
C403 H401 0.959 . S
C403 H402 0.961 . S
C403 H404 0.960 . S
H404 C403 0.960 . S
H405 N385 0.862 . S
O406 Co374 1.920 . S
O406 C379 1.289 . S
C407 O399 1.258 . S
C407 O400 1.266 . S
C408 C409 1.369 . S
C408 C410 1.419 . S
C408 H412 0.930 . S
C409 C408 1.369 . S
C409 C418 1.429 . S
C410 C408 1.419 . S
C410 C411 1.363 . S
C410 H413 0.929 . S
C411 C410 1.363 . S
C411 C417 1.428 . S
H412 C408 0.930 . S
H413 C410 0.929 . S
S414 N415 1.613 . S
S414 N416 1.610 . S
N415 S414 1.613 . S
N415 C418 1.350 . S
N416 S414 1.610 . S
N416 C417 1.351 . S
C417 C411 1.428 . S
C417 N416 1.351 . S
C417 C418 1.434 . S
C418 C409 1.429 . S
C418 N415 1.350 . S
C418 C417 1.434 . S
C419 C420 1.369 . S
C419 C421 1.419 . S
C419 H423 0.930 . S
C420 C419 1.369 . S
C420 C429 1.429 1_655 S
C421 C419 1.419 . S
C421 C422 1.363 1_655 S
C421 H424 0.929 . S
C422 C421 1.363 1_455 S
C422 C428 1.428 . S
H423 C419 0.930 . S
H424 C421 0.929 . S
S425 N426 1.613 . S
S425 N427 1.610 . S
N426 S425 1.613 . S
N426 C429 1.350 . S
N427 S425 1.610 . S
N427 C428 1.351 . S
C428 C422 1.428 . S
C428 N427 1.351 . S
C428 C429 1.434 . S
C429 C420 1.429 1_455 S
C429 N426 1.350 . S
C429 C428 1.434 . S
C430 C431 1.368 . S
C430 C432 1.420 1_556 S
C430 H434 0.930 1_556 S
C431 C430 1.368 . S
C431 C440 1.429 1_565 S
C432 C430 1.420 1_554 S
C432 C433 1.363 1_565 S
C432 H435 0.929 . S
C433 C432 1.363 1_545 S
C433 C439 1.396 1_554 S
H434 C430 0.930 1_554 S
H435 C432 0.929 . S
S436 N437 1.613 . S
S436 N438 1.610 . S
N437 S436 1.613 . S
N437 C440 1.350 . S
N438 S436 1.610 . S
N438 C439 1.357 . S
C439 C433 1.396 1_556 S
C439 N438 1.357 . S
C439 C440 1.465 . S
C440 C431 1.429 1_545 S
C440 N437 1.350 . S
C440 C439 1.465 . S
C441 C442 1.369 . S
C441 C443 1.419 . S
C441 H445 0.930 . S
C442 C441 1.369 . S
C442 C451 1.429 . S
C443 C441 1.419 . S
C443 C444 1.363 . S
C443 H446 0.929 . S
C444 C443 1.363 . S
C444 C450 1.428 . S
H445 C441 0.930 . S
H446 C443 0.929 . S
S447 N448 1.613 . S
S447 N449 1.610 . S
N448 S447 1.613 . S
N448 C451 1.350 . S
N449 S447 1.610 . S
N449 C450 1.351 . S
C450 C444 1.428 . S
C450 N449 1.351 . S
C450 C451 1.434 . S
C451 C442 1.429 . S
C451 N448 1.350 . S
C451 C450 1.434 . S
C452 C453 1.369 . S
C452 C454 1.419 1_455 S
C452 H456 0.930 . S
C453 C452 1.369 . S
C453 C462 1.429 . S
C454 C452 1.419 1_655 S
C454 C455 1.363 . S
C454 H457 0.929 . S
C455 C454 1.363 . S
C455 C461 1.428 . S
H456 C452 0.930 . S
H457 C454 0.929 . S
S458 N459 1.613 . S
S458 N460 1.610 1_455 S
N459 S458 1.613 . S
N459 C462 1.350 . S
N460 S458 1.610 1_655 S
N460 C461 1.351 . S
C461 C455 1.428 . S
C461 N460 1.351 . S
C461 C462 1.434 1_655 S
C462 C453 1.429 . S
C462 N459 1.350 . S
C462 C461 1.434 1_455 S
C463 C464 1.368 1_554 S
C463 C465 1.420 . S
C463 H467 0.930 . S
C464 C463 1.368 1_556 S
C464 C473 1.429 1_545 S
C465 C463 1.420 . S
C465 C466 1.363 1_545 S
C465 H468 0.929 . S
C466 C465 1.363 1_565 S
C466 C472 1.428 1_554 S
H467 C463 0.930 . S
H468 C465 0.929 . S
S469 N470 1.613 . S
S469 N471 1.610 . S
N470 S469 1.613 . S
N470 C473 1.350 . S
N471 S469 1.610 . S
N471 C472 1.351 . S
C472 C466 1.428 1_556 S
C472 N471 1.351 . S
C472 C473 1.434 . S
C473 C464 1.429 1_565 S
C473 N470 1.350 . S
C473 C472 1.434 . S
C474 C475 1.369 . S
C474 C476 1.419 1_556 S
C474 H478 0.930 . S
C475 C474 1.369 . S
C475 C484 1.429 . S
C476 C474 1.419 1_554 S
C476 C477 1.363 . S
C476 H479 0.929 . S
C477 C476 1.363 . S
C477 C483 1.428 . S
H478 C474 0.930 . S
H479 C476 0.929 . S
S480 N481 1.613 . S
S480 N482 1.610 1_556 S
N481 S480 1.613 . S
N481 C484 1.350 . S
N482 S480 1.610 1_554 S
N482 C483 1.351 . S
C483 C477 1.428 . S
C483 N482 1.351 . S
C483 C484 1.434 1_554 S
C484 C475 1.429 . S
C484 N481 1.350 . S
C484 C483 1.434 1_556 S
C485 C486 1.369 . S
C485 C487 1.419 . S
C485 H489 0.930 . S
C486 C485 1.369 . S
C486 C495 1.429 . S
C487 C485 1.419 . S
C487 C488 1.363 . S
C487 H490 0.929 . S
C488 C487 1.363 . S
C488 C494 1.428 . S
H489 C485 0.930 . S
H490 C487 0.929 . S
S491 N492 1.613 . S
S491 N493 1.610 . S
N492 S491 1.613 . S
N492 C495 1.350 . S
N493 S491 1.610 . S
N493 C494 1.351 . S
C494 C488 1.428 . S
C494 N493 1.351 . S
C494 C495 1.434 . S
C495 C486 1.429 . S
C495 N492 1.350 . S
C495 C494 1.434 . S
C496 C497 1.369 . S
C496 C498 1.419 . S
C496 H500 0.930 . S
C497 C496 1.369 . S
C497 C506 1.429 . S
C498 C496 1.419 . S
C498 C499 1.363 . S
C498 H501 0.929 . S
C499 C498 1.363 . S
C499 C505 1.428 . S
H500 C496 0.930 . S
H501 C498 0.929 . S
S502 N503 1.613 . S
S502 N504 1.610 . S
N503 S502 1.613 . S
N503 C506 1.350 . S
N504 S502 1.610 . S
N504 C505 1.351 . S
C505 C499 1.428 . S
C505 N504 1.351 . S
C505 C506 1.434 . S
C506 C497 1.429 . S
C506 N503 1.350 . S
C506 C505 1.434 . S
C507 C508 1.369 . S
C507 C509 1.419 1_556 S
C507 H511 0.930 . S
C508 C507 1.369 . S
C508 C517 1.429 . S
C509 C507 1.419 1_554 S
C509 C510 1.363 . S
C509 H512 0.929 . S
C510 C509 1.363 . S
C510 C516 1.428 . S
H511 C507 0.930 . S
H512 C509 0.929 . S
S513 N514 1.613 1_554 S
S513 N515 1.610 . S
N514 S513 1.613 1_556 S
N514 C517 1.350 . S
N515 S513 1.610 . S
N515 C516 1.351 . S
C516 C510 1.428 . S
C516 N515 1.351 . S
C516 C517 1.434 1_554 S
C517 C508 1.429 . S
C517 N514 1.350 . S
C517 C516 1.434 1_556 S
C518 C519 1.369 . S
C518 C520 1.419 . S
C518 H522 0.930 . S
C519 C518 1.369 . S
C519 C528 1.429 . S
C520 C518 1.419 . S
C520 C521 1.363 . S
C520 H523 0.929 . S
C521 C520 1.363 . S
C521 C527 1.428 . S
H522 C518 0.930 . S
H523 C520 0.929 . S
S524 N525 1.613 . S
S524 N526 1.610 . S
N525 S524 1.613 . S
N525 C528 1.350 . S
N526 S524 1.610 . S
N526 C527 1.351 . S
C527 C521 1.428 . S
C527 N526 1.351 . S
C527 C528 1.434 . S
C528 C519 1.429 . S
C528 N525 1.350 . S
C528 C527 1.434 . S
C529 C530 1.369 . S
C529 C531 1.419 . S
C529 H533 0.930 . S
C530 C529 1.369 . S
C530 C539 1.429 . S
C531 C529 1.419 . S
C531 C532 1.363 . S
C531 H534 0.929 . S
C532 C531 1.363 . S
C532 C538 1.428 . S
H533 C529 0.930 . S
H534 C531 0.929 . S
S535 N536 1.613 . S
S535 N537 1.610 . S
N536 S535 1.613 . S
N536 C539 1.350 . S
N537 S535 1.610 . S
N537 C538 1.351 . S
C538 C532 1.428 . S
C538 N537 1.351 . S
C538 C539 1.434 . S
C539 C530 1.429 . S
C539 N536 1.350 . S
C539 C538 1.434 . S
C540 C541 1.369 . S
C540 C542 1.419 . S
C540 H544 0.930 . S
C541 C540 1.369 . S
C541 C550 1.429 . S
C542 C540 1.419 . S
C542 C543 1.363 . S
C542 H545 0.929 . S
C543 C542 1.363 . S
C543 C549 1.428 . S
H544 C540 0.930 . S
H545 C542 0.929 . S
S546 N547 1.613 . S
S546 N548 1.610 . S
N547 S546 1.613 . S
N547 C550 1.350 . S
N548 S546 1.610 . S
N548 C549 1.351 . S
C549 C543 1.428 . S
C549 N548 1.351 . S
C549 C550 1.434 . S
C550 C541 1.429 . S
C550 N547 1.350 . S
C550 C549 1.434 . S
C551 C552 1.369 1_455 S
C551 C553 1.419 . S
C551 H555 0.930 . S
C552 C551 1.369 1_655 S
C552 C561 1.429 . S
C553 C551 1.419 . S
C553 C554 1.363 . S
C553 H556 0.929 . S
C554 C553 1.363 . S
C554 C560 1.428 1_455 S
H555 C551 0.930 . S
H556 C553 0.929 . S
S557 N558 1.613 . S
S557 N559 1.610 . S
N558 S557 1.613 . S
N558 C561 1.350 . S
N559 S557 1.610 . S
N559 C560 1.351 . S
C560 C554 1.428 1_655 S
C560 N559 1.351 . S
C560 C561 1.434 . S
C561 C552 1.429 . S
C561 N558 1.350 . S
C561 C560 1.434 . S
C562 C563 1.369 1_565 S
C562 C564 1.419 . S
C562 H566 0.930 . S
C563 C562 1.369 1_545 S
C563 C572 1.429 . S
C564 C562 1.419 . S
C564 C565 1.363 . S
C564 H567 0.929 . S
C565 C564 1.363 . S
C565 C571 1.428 1_565 S
H566 C562 0.930 . S
H567 C564 0.929 . S
S568 N569 1.613 . S
S568 N570 1.610 . S
N569 S568 1.613 . S
N569 C572 1.350 . S
N570 S568 1.610 . S
N570 C571 1.351 . S
C571 C565 1.428 1_545 S
C571 N570 1.351 . S
C571 C572 1.434 . S
C572 C563 1.429 . S
C572 N569 1.350 . S
C572 C571 1.434 . S
C573 C574 1.369 . S
C573 C575 1.419 . S
C573 H577 0.930 . S
C574 C573 1.369 . S
C574 C583 1.429 . S
C575 C573 1.419 . S
C575 C576 1.363 . S
C575 H578 0.929 . S
C576 C575 1.363 . S
C576 C582 1.428 . S
H577 C573 0.930 . S
H578 C575 0.929 . S
S579 N580 1.613 . S
S579 N581 1.610 . S
N580 S579 1.613 . S
N580 C583 1.350 . S
N581 S579 1.610 . S
N581 C582 1.351 . S
C582 C576 1.428 . S
C582 N581 1.351 . S
C582 C583 1.434 . S
C583 C574 1.429 . S
C583 N580 1.350 . S
C583 C582 1.434 . S
C584 C585 1.369 1_455 S
C584 C586 1.419 . S
C584 H588 0.930 . S
C585 C584 1.369 1_655 S
C585 C594 1.429 . S
C586 C584 1.419 . S
C586 C587 1.363 . S
C586 H589 0.929 . S
C587 C586 1.363 . S
C587 C593 1.428 1_455 S
H588 C584 0.930 . S
H589 C586 0.929 . S
S590 N591 1.613 . S
S590 N592 1.610 . S
N591 S590 1.613 . S
N591 C594 1.350 . S
N592 S590 1.610 . S
N592 C593 1.351 . S
C593 C587 1.428 1_655 S
C593 N592 1.351 . S
C593 C594 1.434 . S
C594 C585 1.429 . S
C594 N591 1.350 . S
C594 C593 1.434 . S
C595 C596 1.369 . S
C595 C597 1.419 . S
C595 H599 0.930 . S
C596 C595 1.369 . S
C596 C605 1.429 1_545 S
C597 C595 1.419 . S
C597 C598 1.363 1_545 S
C597 H600 0.929 . S
C598 C597 1.363 1_565 S
C598 C604 1.428 . S
H599 C595 0.930 . S
H600 C597 0.929 . S
S601 N602 1.613 . S
S601 N603 1.610 . S
N602 S601 1.613 . S
N602 C605 1.350 . S
N603 S601 1.610 . S
N603 C604 1.351 . S
C604 C598 1.428 . S
C604 N603 1.351 . S
C604 C605 1.434 . S
C605 C596 1.429 1_565 S
C605 N602 1.350 . S
C605 C604 1.434 . S
C606 C607 1.369 . S
C606 C608 1.419 1_455 S
C606 H610 0.930 . S
C607 C606 1.369 . S
C607 C616 1.429 . S
C608 C606 1.419 1_655 S
C608 C609 1.363 . S
C608 H611 0.929 . S
C609 C608 1.363 . S
C609 C615 1.428 . S
H610 C606 0.930 . S
H611 C608 0.929 . S
S612 N613 1.613 . S
S612 N614 1.610 1_455 S
N613 S612 1.613 . S
N613 C616 1.350 . S
N614 S612 1.610 1_655 S
N614 C615 1.351 . S
C615 C609 1.428 . S
C615 N614 1.351 . S
C615 C616 1.434 1_655 S
C616 C607 1.429 . S
C616 N613 1.350 . S
C616 C615 1.434 1_455 S
C617 C618 1.369 . S
C617 C619 1.419 1_565 S
C617 H621 0.930 . S
C618 C617 1.369 . S
C618 C627 1.429 . S
C619 C617 1.419 1_545 S
C619 C620 1.363 . S
C619 H622 0.929 . S
C620 C619 1.363 . S
C620 C626 1.428 . S
H621 C617 0.930 . S
H622 C619 0.929 . S
S623 N624 1.613 . S
S623 N625 1.610 1_565 S
N624 S623 1.613 . S
N624 C627 1.350 . S
N625 S623 1.610 1_545 S
N625 C626 1.351 . S
C626 C620 1.428 . S
C626 N625 1.351 . S
C626 C627 1.434 1_545 S
C627 C618 1.429 . S
C627 N624 1.350 . S
C627 C626 1.434 1_565 S
C628 C629 1.369 . S
C628 C630 1.419 . S
C628 H632 0.930 . S
C629 C628 1.369 . S
C629 C638 1.429 . S
C630 C628 1.419 . S
C630 C631 1.363 . S
C630 H633 0.929 . S
C631 C630 1.363 . S
C631 C637 1.428 . S
H632 C628 0.930 . S
H633 C630 0.929 . S
S634 N635 1.613 . S
S634 N636 1.610 . S
N635 S634 1.613 . S
N635 C638 1.350 . S
N636 S634 1.610 . S
N636 C637 1.351 . S
C637 C631 1.428 . S
C637 N636 1.351 . S
C637 C638 1.434 . S
C638 C629 1.429 . S
C638 N635 1.350 . S
C638 C637 1.434 . S
C639 C640 1.369 . S
C639 C641 1.419 1_655 S
C639 H643 0.930 . S
C640 C639 1.369 . S
C640 C649 1.429 . S
C641 C639 1.419 1_455 S
C641 C642 1.363 . S
C641 H644 0.929 . S
C642 C641 1.363 . S
C642 C648 1.428 . S
H643 C639 0.930 . S
H644 C641 0.929 . S
S645 N646 1.613 1_455 S
S645 N647 1.610 . S
N646 S645 1.613 1_655 S
N646 C649 1.350 . S
N647 S645 1.610 . S
N647 C648 1.351 . S
C648 C642 1.428 . S
C648 N647 1.351 . S
C648 C649 1.434 1_455 S
C649 C640 1.429 . S
C649 N646 1.350 . S
C649 C648 1.434 1_655 S
C650 C651 1.369 . S
C650 C652 1.419 1_565 S
C650 H654 0.930 . S
C651 C650 1.369 . S
C651 C660 1.429 . S
C652 C650 1.419 1_545 S
C652 C653 1.363 . S
C652 H655 0.929 . S
C653 C652 1.363 . S
C653 C659 1.428 . S
H654 C650 0.930 . S
H655 C652 0.929 . S
S656 N657 1.613 . S
S656 N658 1.610 1_565 S
N657 S656 1.613 . S
N657 C660 1.350 . S
N658 S656 1.610 1_545 S
N658 C659 1.351 . S
C659 C653 1.428 . S
C659 N658 1.351 . S
C659 C660 1.434 1_545 S
C660 C651 1.429 . S
C660 N657 1.350 . S
C660 C659 1.434 1_565 S
C661 C662 1.369 . S
C661 C663 1.419 . S
C661 H665 0.930 . S
C662 C661 1.369 . S
C662 C671 1.429 . S
C663 C661 1.419 . S
C663 C664 1.363 . S
C663 H666 0.929 . S
C664 C663 1.363 . S
C664 C670 1.428 . S
H665 C661 0.930 . S
H666 C663 0.929 . S
S667 N668 1.613 . S
S667 N669 1.610 . S
N668 S667 1.613 . S
N668 C671 1.350 . S
N669 S667 1.610 . S
N669 C670 1.351 . S
C670 C664 1.428 . S
C670 N669 1.351 . S
C670 C671 1.434 . S
C671 C662 1.429 . S
C671 N668 1.350 . S
C671 C670 1.434 . S
C672 C673 1.369 . S
C672 C674 1.419 . S
C672 H676 0.930 . S
C673 C672 1.369 . S
C673 C682 1.429 . S
C674 C672 1.419 . S
C674 C675 1.363 . S
C674 H677 0.929 . S
C675 C674 1.363 . S
C675 C681 1.428 . S
H676 C672 0.930 . S
H677 C674 0.929 . S
S678 N679 1.613 . S
S678 N680 1.610 . S
N679 S678 1.613 . S
N679 C682 1.350 . S
N680 S678 1.610 . S
N680 C681 1.351 . S
C681 C675 1.428 . S
C681 N680 1.351 . S
C681 C682 1.434 . S
C682 C673 1.429 . S
C682 N679 1.350 . S
C682 C681 1.434 . S
C683 C684 1.369 . S
C683 C685 1.419 . S
C683 H687 0.930 . S
C684 C683 1.369 . S
C684 C693 1.429 . S
C685 C683 1.419 . S
C685 C686 1.363 . S
C685 H688 0.929 . S
C686 C685 1.363 . S
C686 C692 1.428 . S
H687 C683 0.930 . S
H688 C685 0.929 . S
S689 N690 1.613 . S
S689 N691 1.610 . S
N690 S689 1.613 . S
N690 C693 1.350 . S
N691 S689 1.610 . S
N691 C692 1.351 . S
C692 C686 1.428 . S
C692 N691 1.351 . S
C692 C693 1.434 . S
C693 C684 1.429 . S
C693 N690 1.350 . S
C693 C692 1.434 . S
C694 C695 1.369 . S
C694 C696 1.419 . S
C694 H698 0.930 . S
C695 C694 1.369 . S
C695 C704 1.429 . S
C696 C694 1.419 . S
C696 C697 1.363 . S
C696 H699 0.929 . S
C697 C696 1.363 . S
C697 C703 1.428 . S
H698 C694 0.930 . S
H699 C696 0.929 . S
S700 N701 1.613 . S
S700 N702 1.610 . S
N701 S700 1.613 . S
N701 C704 1.350 . S
N702 S700 1.610 . S
N702 C703 1.351 . S
C703 C697 1.428 . S
C703 N702 1.351 . S
C703 C704 1.434 . S
C704 C695 1.429 . S
C704 N701 1.350 . S
C704 C703 1.434 . S
C705 C706 1.369 . S
C705 C707 1.419 . S
C705 H709 0.930 . S
C706 C705 1.369 . S
C706 C715 1.429 . S
C707 C705 1.419 . S
C707 C708 1.363 . S
C707 H710 0.929 . S
C708 C707 1.363 . S
C708 C714 1.428 . S
H709 C705 0.930 . S
H710 C707 0.929 . S
S711 N712 1.613 . S
S711 N713 1.610 . S
N712 S711 1.613 . S
N712 C715 1.350 . S
N713 S711 1.610 . S
N713 C714 1.351 . S
C714 C708 1.428 . S
C714 N713 1.351 . S
C714 C715 1.434 . S
C715 C706 1.429 . S
C715 N712 1.350 . S
C715 C714 1.434 . S
C716 C717 1.369 . S
C716 C718 1.419 . S
C716 H720 0.930 . S
C717 C716 1.369 . S
C717 C726 1.429 . S
C718 C716 1.419 . S
C718 C719 1.363 . S
C718 H721 0.929 . S
C719 C718 1.363 . S
C719 C725 1.428 . S
H720 C716 0.930 . S
H721 C718 0.929 . S
S722 N723 1.613 . S
S722 N724 1.610 . S
N723 S722 1.613 . S
N723 C726 1.350 . S
N724 S722 1.610 . S
N724 C725 1.351 . S
C725 C719 1.428 . S
C725 N724 1.351 . S
C725 C726 1.434 . S
C726 C717 1.429 . S
C726 N723 1.350 . S
C726 C725 1.434 . S
C727 C728 1.369 . S
C727 C729 1.419 . S
C727 H731 0.930 . S
C728 C727 1.369 . S
C728 C737 1.429 . S
C729 C727 1.419 . S
C729 C730 1.363 . S
C729 H732 0.929 . S
C730 C729 1.363 . S
C730 C736 1.428 . S
H731 C727 0.930 . S
H732 C729 0.929 . S
S733 N734 1.613 . S
S733 N735 1.610 . S
N734 S733 1.613 . S
N734 C737 1.350 . S
N735 S733 1.610 . S
N735 C736 1.351 . S
C736 C730 1.428 . S
C736 N735 1.351 . S
C736 C737 1.434 . S
C737 C728 1.429 . S
C737 N734 1.350 . S
C737 C736 1.434 . S
C409 C311 2.025 . S
C411 C5 2.023 . S
C420 C39 2.022 . S
C422 C345 2.025 . S
C431 C73 2.022 . S
C433 C379 2.025 . S
C442 C107 2.025 . S
C444 C209 2.023 . S
C453 C141 2.024 . S
C455 C243 2.024 . S
C464 C175 2.022 . S
C466 C277 2.025 . S
C475 C349 1.213 . S
C477 C9 1.208 . S
C486 C383 1.213 . S
C488 C43 1.211 . S
C497 C77 1.201 . S
C499 C213 1.205 . S
C508 C247 1.202 . S
C510 C111 1.205 . S
C519 C145 1.211 . S
C521 C281 1.205 . S
C530 C179 1.208 . S
C532 C315 1.212 . S
C541 C122 1.654 . S
C543 C20 1.660 . S
C552 C54 1.660 . S
C554 C156 1.656 . S
C563 C190 1.661 . S
C565 C88 1.655 . S
C574 C326 1.654 . S
C576 C224 1.659 . S
C585 C258 1.661 . S
C587 C360 1.655 . S
C596 C394 1.655 . S
C598 C292 1.658 . S
C607 C2 1.420 . S
C609 C376 1.425 . S
C618 C206 1.419 . S
C620 C36 1.423 . S
C629 C70 1.419 . S
C631 C240 1.423 . S
C640 C104 1.425 . S
C642 C274 1.421 . S
C651 C138 1.419 . S
C653 C308 1.422 . S
C662 C342 1.420 . S
C664 C172 1.422 . S
C673 C33 0.737 . S
C675 C305 0.738 . S
C684 C339 0.738 . S
C686 C67 0.737 . S
C695 C101 0.738 . S
C697 C373 0.737 . S
C706 C407 0.738 . S
C708 C135 0.737 . S
C717 C237 0.738 . S
C719 C169 0.737 . S
C728 C203 0.737 . S
C730 C271 0.737 . S
