# Generated by pormake.
# Topology unu, (4)-cn, num edge types: 1
# Building blocks:
#     Node 0, Type 0, BuildingBlock: AZAVOO_clean_sbu_0, # of connection points: 4
#     Node 1, Type 0, BuildingBlock: AZAVOO_clean_sbu_0, # of connection points: 4
#     Node 2, Type 0, BuildingBlock: AZAVOO_clean_sbu_0, # of connection points: 4
#     Node 3, Type 0, BuildingBlock: AZAVOO_clean_sbu_0, # of connection points: 4
#     Node 4, Type 0, BuildingBlock: AZAVOO_clean_sbu_0, # of connection points: 4
#     Node 5, Type 0, BuildingBlock: AZAVOO_clean_sbu_0, # of connection points: 4
#     Node 6, Type 0, BuildingBlock: AZAVOO_clean_sbu_0, # of connection points: 4
#     Node 7, Type 0, BuildingBlock: AZAVOO_clean_sbu_0, # of connection points: 4
#     Node 8, Type 0, BuildingBlock: AZAVOO_clean_sbu_0, # of connection points: 4
#     Node 9, Type 0, BuildingBlock: AZAVOO_clean_sbu_0, # of connection points: 4
#     Node 10, Type 0, BuildingBlock: AZAVOO_clean_sbu_0, # of connection points: 4
#     Node 11, Type 0, BuildingBlock: AZAVOO_clean_sbu_0, # of connection points: 4
#     Node 12, Type 0, BuildingBlock: AZAVOO_clean_sbu_0, # of connection points: 4
#     Node 13, Type 0, BuildingBlock: AZAVOO_clean_sbu_0, # of connection points: 4
#     Node 14, Type 0, BuildingBlock: AZAVOO_clean_sbu_0, # of connection points: 4
#     Node 15, Type 0, BuildingBlock: AZAVOO_clean_sbu_0, # of connection points: 4
#     Node 16, Type 0, BuildingBlock: AZAVOO_clean_sbu_0, # of connection points: 4
#     Node 17, Type 0, BuildingBlock: AZAVOO_clean_sbu_0, # of connection points: 4
#     Node 18, Type 0, BuildingBlock: AZAVOO_clean_sbu_0, # of connection points: 4
#     Node 19, Type 0, BuildingBlock: AZAVOO_clean_sbu_0, # of connection points: 4
#     Node 20, Type 0, BuildingBlock: AZAVOO_clean_sbu_0, # of connection points: 4
#     Node 21, Type 0, BuildingBlock: AZAVOO_clean_sbu_0, # of connection points: 4
#     Node 22, Type 0, BuildingBlock: AZAVOO_clean_sbu_0, # of connection points: 4
#     Node 23, Type 0, BuildingBlock: AZAVOO_clean_sbu_0, # of connection points: 4
#     Node 24, Type 0, BuildingBlock: AZAVOO_clean_sbu_0, # of connection points: 4
#     Node 25, Type 0, BuildingBlock: AZAVOO_clean_sbu_0, # of connection points: 4
#     Node 26, Type 0, BuildingBlock: AZAVOO_clean_sbu_0, # of connection points: 4
#     Node 27, Type 0, BuildingBlock: AZAVOO_clean_sbu_0, # of connection points: 4
#     Node 28, Type 0, BuildingBlock: AZAVOO_clean_sbu_0, # of connection points: 4
#     Node 29, Type 0, BuildingBlock: AZAVOO_clean_sbu_0, # of connection points: 4
#     Node 30, Type 0, BuildingBlock: AZAVOO_clean_sbu_0, # of connection points: 4
#     Node 31, Type 0, BuildingBlock: AZAVOO_clean_sbu_0, # of connection points: 4
#     Node 32, Type 0, BuildingBlock: AZAVOO_clean_sbu_0, # of connection points: 4
#     Node 33, Type 0, BuildingBlock: AZAVOO_clean_sbu_0, # of connection points: 4
#     Node 34, Type 0, BuildingBlock: AZAVOO_clean_sbu_0, # of connection points: 4
#     Node 35, Type 0, BuildingBlock: AZAVOO_clean_sbu_0, # of connection points: 4
#     Edge 36, Type (0, 0), BuildingBlock: OJICUG_clean_linker_0, # of connection points: 2
#     Edge 37, Type (0, 0), BuildingBlock: OJICUG_clean_linker_0, # of connection points: 2
#     Edge 38, Type (0, 0), BuildingBlock: OJICUG_clean_linker_0, # of connection points: 2
#     Edge 39, Type (0, 0), BuildingBlock: OJICUG_clean_linker_0, # of connection points: 2
#     Edge 40, Type (0, 0), BuildingBlock: OJICUG_clean_linker_0, # of connection points: 2
#     Edge 41, Type (0, 0), BuildingBlock: OJICUG_clean_linker_0, # of connection points: 2
#     Edge 42, Type (0, 0), BuildingBlock: OJICUG_clean_linker_0, # of connection points: 2
#     Edge 43, Type (0, 0), BuildingBlock: OJICUG_clean_linker_0, # of connection points: 2
#     Edge 44, Type (0, 0), BuildingBlock: OJICUG_clean_linker_0, # of connection points: 2
#     Edge 45, Type (0, 0), BuildingBlock: OJICUG_clean_linker_0, # of connection points: 2
#     Edge 46, Type (0, 0), BuildingBlock: OJICUG_clean_linker_0, # of connection points: 2
#     Edge 47, Type (0, 0), BuildingBlock: OJICUG_clean_linker_0, # of connection points: 2
#     Edge 48, Type (0, 0), BuildingBlock: OJICUG_clean_linker_0, # of connection points: 2
#     Edge 49, Type (0, 0), BuildingBlock: OJICUG_clean_linker_0, # of connection points: 2
#     Edge 50, Type (0, 0), BuildingBlock: OJICUG_clean_linker_0, # of connection points: 2
#     Edge 51, Type (0, 0), BuildingBlock: OJICUG_clean_linker_0, # of connection points: 2
#     Edge 52, Type (0, 0), BuildingBlock: OJICUG_clean_linker_0, # of connection points: 2
#     Edge 53, Type (0, 0), BuildingBlock: OJICUG_clean_linker_0, # of connection points: 2
#     Edge 54, Type (0, 0), BuildingBlock: OJICUG_clean_linker_0, # of connection points: 2
#     Edge 55, Type (0, 0), BuildingBlock: OJICUG_clean_linker_0, # of connection points: 2
#     Edge 56, Type (0, 0), BuildingBlock: OJICUG_clean_linker_0, # of connection points: 2
#     Edge 57, Type (0, 0), BuildingBlock: OJICUG_clean_linker_0, # of connection points: 2
#     Edge 58, Type (0, 0), BuildingBlock: OJICUG_clean_linker_0, # of connection points: 2
#     Edge 59, Type (0, 0), BuildingBlock: OJICUG_clean_linker_0, # of connection points: 2
#     Edge 60, Type (0, 0), BuildingBlock: OJICUG_clean_linker_0, # of connection points: 2
#     Edge 61, Type (0, 0), BuildingBlock: OJICUG_clean_linker_0, # of connection points: 2
#     Edge 62, Type (0, 0), BuildingBlock: OJICUG_clean_linker_0, # of connection points: 2
#     Edge 63, Type (0, 0), BuildingBlock: OJICUG_clean_linker_0, # of connection points: 2
#     Edge 64, Type (0, 0), BuildingBlock: OJICUG_clean_linker_0, # of connection points: 2
#     Edge 65, Type (0, 0), BuildingBlock: OJICUG_clean_linker_0, # of connection points: 2
#     Edge 66, Type (0, 0), BuildingBlock: OJICUG_clean_linker_0, # of connection points: 2
#     Edge 67, Type (0, 0), BuildingBlock: OJICUG_clean_linker_0, # of connection points: 2
#     Edge 68, Type (0, 0), BuildingBlock: OJICUG_clean_linker_0, # of connection points: 2
#     Edge 69, Type (0, 0), BuildingBlock: OJICUG_clean_linker_0, # of connection points: 2
#     Edge 70, Type (0, 0), BuildingBlock: OJICUG_clean_linker_0, # of connection points: 2
#     Edge 71, Type (0, 0), BuildingBlock: OJICUG_clean_linker_0, # of connection points: 2
#     Edge 72, Type (0, 0), BuildingBlock: OJICUG_clean_linker_0, # of connection points: 2
#     Edge 73, Type (0, 0), BuildingBlock: OJICUG_clean_linker_0, # of connection points: 2
#     Edge 74, Type (0, 0), BuildingBlock: OJICUG_clean_linker_0, # of connection points: 2
#     Edge 75, Type (0, 0), BuildingBlock: OJICUG_clean_linker_0, # of connection points: 2
#     Edge 76, Type (0, 0), BuildingBlock: OJICUG_clean_linker_0, # of connection points: 2
#     Edge 77, Type (0, 0), BuildingBlock: OJICUG_clean_linker_0, # of connection points: 2
#     Edge 78, Type (0, 0), BuildingBlock: OJICUG_clean_linker_0, # of connection points: 2
#     Edge 79, Type (0, 0), BuildingBlock: OJICUG_clean_linker_0, # of connection points: 2
#     Edge 80, Type (0, 0), BuildingBlock: OJICUG_clean_linker_0, # of connection points: 2
#     Edge 81, Type (0, 0), BuildingBlock: OJICUG_clean_linker_0, # of connection points: 2
#     Edge 82, Type (0, 0), BuildingBlock: OJICUG_clean_linker_0, # of connection points: 2
#     Edge 83, Type (0, 0), BuildingBlock: OJICUG_clean_linker_0, # of connection points: 2
#     Edge 84, Type (0, 0), BuildingBlock: OJICUG_clean_linker_0, # of connection points: 2
#     Edge 85, Type (0, 0), BuildingBlock: OJICUG_clean_linker_0, # of connection points: 2
#     Edge 86, Type (0, 0), BuildingBlock: OJICUG_clean_linker_0, # of connection points: 2
#     Edge 87, Type (0, 0), BuildingBlock: OJICUG_clean_linker_0, # of connection points: 2
#     Edge 88, Type (0, 0), BuildingBlock: OJICUG_clean_linker_0, # of connection points: 2
#     Edge 89, Type (0, 0), BuildingBlock: OJICUG_clean_linker_0, # of connection points: 2
#     Edge 90, Type (0, 0), BuildingBlock: OJICUG_clean_linker_0, # of connection points: 2
#     Edge 91, Type (0, 0), BuildingBlock: OJICUG_clean_linker_0, # of connection points: 2
#     Edge 92, Type (0, 0), BuildingBlock: OJICUG_clean_linker_0, # of connection points: 2
#     Edge 93, Type (0, 0), BuildingBlock: OJICUG_clean_linker_0, # of connection points: 2
#     Edge 94, Type (0, 0), BuildingBlock: OJICUG_clean_linker_0, # of connection points: 2
#     Edge 95, Type (0, 0), BuildingBlock: OJICUG_clean_linker_0, # of connection points: 2
#     Edge 96, Type (0, 0), BuildingBlock: OJICUG_clean_linker_0, # of connection points: 2
#     Edge 97, Type (0, 0), BuildingBlock: OJICUG_clean_linker_0, # of connection points: 2
#     Edge 98, Type (0, 0), BuildingBlock: OJICUG_clean_linker_0, # of connection points: 2
#     Edge 99, Type (0, 0), BuildingBlock: OJICUG_clean_linker_0, # of connection points: 2
#     Edge 100, Type (0, 0), BuildingBlock: OJICUG_clean_linker_0, # of connection points: 2
#     Edge 101, Type (0, 0), BuildingBlock: OJICUG_clean_linker_0, # of connection points: 2
#     Edge 102, Type (0, 0), BuildingBlock: OJICUG_clean_linker_0, # of connection points: 2
#     Edge 103, Type (0, 0), BuildingBlock: OJICUG_clean_linker_0, # of connection points: 2
#     Edge 104, Type (0, 0), BuildingBlock: OJICUG_clean_linker_0, # of connection points: 2
#     Edge 105, Type (0, 0), BuildingBlock: OJICUG_clean_linker_0, # of connection points: 2
#     Edge 106, Type (0, 0), BuildingBlock: OJICUG_clean_linker_0, # of connection points: 2
#     Edge 107, Type (0, 0), BuildingBlock: OJICUG_clean_linker_0, # of connection points: 2
# Relax obj value: 0.285
# Max RMSD: 0.279
# Mean RMSD: 0.279
data_MOF--net-unu--node1-AZAVOO_clean_sbu_0--edge1-OJICUG_clean_linker_0
_symmetry_space_group_name_H-M    P1
_symmetry_Int_Tables_number       1
_symmetry_cell_setting            triclinic
loop_
_symmetry_equiv_pos_as_xyz
'x, y, z'
_cell_length_a     27.823853
_cell_length_b     27.89911
_cell_length_c     104.97897
_cell_angle_alpha  90.218766
_cell_angle_beta   89.537903
_cell_angle_gamma 120.7107
loop_
_atom_site_label
_atom_site_type_symbol
_atom_site_fract_x
_atom_site_fract_y
_atom_site_fract_z
_atom_type_partial_charge
Mg0 Mg 0.23103 0.99359 0.11812 0.0
O1 O 0.20127 0.05548 0.11646 0.0
O2 O 0.15659 0.04424 0.09816 0.0
Mg3 Mg 0.15535 0.97104 0.08818 0.0
C4 C 0.17534 0.06913 0.10874 0.0
C5 C 0.26425 0.06487 0.14226 0.0
O6 O 0.20947 0.04016 0.14256 0.0
O7 O 0.30033 0.04107 0.10342 0.0
O8 O 0.25031 0.02234 0.08566 0.0
O9 O 0.14963 0.93381 0.12733 0.0
O10 O 0.16453 0.93725 0.10656 0.0
C11 C 0.2972 0.04531 0.0914 0.0
C12 C 0.12992 0.91713 0.116 0.0
O13 O 0.28729 0.05006 0.13386 0.0
Mg14 Mg 0.02375 0.24387 0.12295 0.0
O15 O 0.96165 0.15299 0.11784 0.0
O16 O 0.9863 0.13018 0.09956 0.0
Mg17 Mg 0.06507 0.2087 0.09268 0.0
C18 C 0.95392 0.11753 0.10921 0.0
C19 C 0.93668 0.19697 0.14502 0.0
O20 O 0.95594 0.16273 0.14544 0.0
O21 O 0.98938 0.27628 0.10786 0.0
O22 O 0.0174 0.25445 0.08987 0.0
O23 O 0.07422 0.21398 0.13279 0.0
O24 O 0.08569 0.23961 0.11256 0.0
C25 C 0.99277 0.27614 0.09573 0.0
C26 C 0.0974 0.21726 0.12182 0.0
O27 O 0.95892 0.23783 0.1373 0.0
Mg28 Mg 0.77145 0.78006 0.12139 0.0
O29 O 0.85977 0.79957 0.11644 0.0
O30 O 0.8837 0.837 0.09704 0.0
Mg31 Mg 0.80969 0.84243 0.08964 0.0
C32 C 0.89496 0.82067 0.10732 0.0
C33 C 0.81249 0.74413 0.14469 0.0
O34 O 0.85019 0.7975 0.14408 0.0
O35 O 0.73025 0.70566 0.10801 0.0
O36 O 0.75173 0.7472 0.089 0.0
O37 O 0.80864 0.86452 0.12978 0.0
O38 O 0.7838 0.84628 0.10957 0.0
C39 C 0.72684 0.70338 0.0959 0.0
C40 C 0.80794 0.88272 0.11849 0.0
O41 O 0.77124 0.72426 0.13713 0.0
Mg42 Mg 0.9862 0.23256 0.36306 0.0
O43 O 0.03886 0.19391 0.36832 0.0
O44 O 0.01094 0.15243 0.38732 0.0
Mg45 Mg 0.9423 0.16666 0.39448 0.0
C46 C 0.04195 0.16551 0.37743 0.0
C47 C 0.06765 0.25872 0.34004 0.0
O48 O 0.04632 0.20454 0.34071 0.0
O49 O 0.03385 0.30527 0.37685 0.0
O50 O 0.00413 0.26008 0.39535 0.0
O51 O 0.9247 0.15008 0.35459 0.0
O52 O 0.92144 0.17368 0.37456 0.0
C53 C 0.03406 0.30473 0.389 0.0
C54 C 0.90316 0.13567 0.36591 0.0
O55 O 0.04955 0.28188 0.34755 0.0
Mg56 Mg 0.70906 0.77041 0.37637 0.0
O57 O 0.75606 0.86705 0.37625 0.0
O58 O 0.80429 0.90256 0.39432 0.0
Mg59 Mg 0.77148 0.82854 0.40769 0.0
C60 C 0.79027 0.90835 0.38311 0.0
C61 C 0.70006 0.80115 0.34903 0.0
O62 O 0.7544 0.82804 0.35074 0.0
O63 O 0.63446 0.76297 0.38756 0.0
O64 O 0.68986 0.8207 0.40144 0.0
O65 O 0.78722 0.77499 0.37038 0.0
O66 O 0.76662 0.77645 0.39073 0.0
C67 C 0.64789 0.77315 0.39917 0.0
C68 C 0.80268 0.78151 0.38215 0.0
O69 O 0.66803 0.77027 0.35791 0.0
Mg70 Mg 0.16279 0.95355 0.37288 0.0
O71 O 0.07153 0.89696 0.37974 0.0
O72 O 0.05971 0.93252 0.39777 0.0
Mg73 Mg 0.14212 0.01105 0.40248 0.0
C74 C 0.04065 0.89593 0.38896 0.0
C75 C 0.16525 0.9014 0.34717 0.0
O76 O 0.18375 0.95358 0.34405 0.0
O77 O 0.19883 0.92264 0.38806 0.0
O78 O 0.18889 0.96413 0.40526 0.0
O79 O 0.13621 0.0043 0.36211 0.0
O80 O 0.16522 0.02163 0.38204 0.0
C81 C 0.20635 0.93465 0.39989 0.0
C82 C 0.14459 0.03321 0.37239 0.0
O83 O 0.15287 0.88683 0.35875 0.0
Mg84 Mg 0.76571 0.98665 0.86384 0.0
O85 O 0.79871 0.92794 0.86743 0.0
O86 O 0.84262 0.94755 0.88606 0.0
Mg87 Mg 0.83916 0.02133 0.89434 0.0
C88 C 0.82599 0.91911 0.87583 0.0
C89 C 0.73506 0.90981 0.8405 0.0
O90 O 0.78983 0.93429 0.84048 0.0
O91 O 0.69526 0.94389 0.87856 0.0
O92 O 0.74414 0.97076 0.89658 0.0
O93 O 0.84733 0.04492 0.85451 0.0
O94 O 0.83017 0.04776 0.875 0.0
C95 C 0.69762 0.9454 0.8907 0.0
C96 C 0.86561 0.06548 0.86571 0.0
O97 O 0.71136 0.92536 0.84855 0.0
Mg98 Mg 0.0143 0.77501 0.86387 0.0
O99 O 0.07545 0.86755 0.86761 0.0
O100 O 0.0542 0.89195 0.88613 0.0
Mg101 Mg 0.9777 0.81497 0.89415 0.0
C102 C 0.08426 0.90382 0.8761 0.0
C103 C 0.09648 0.81892 0.84082 0.0
O104 O 0.07747 0.8534 0.84057 0.0
O105 O 0.05383 0.74678 0.87886 0.0
O106 O 0.02619 0.77003 0.89666 0.0
O107 O 0.95823 0.79913 0.85427 0.0
O108 O 0.9531 0.77931 0.87476 0.0
C109 C 0.05131 0.74839 0.89099 0.0
C110 C 0.93662 0.79684 0.86539 0.0
O111 O 0.07599 0.77923 0.84885 0.0
Mg112 Mg 0.23159 0.23804 0.86612 0.0
O113 O 0.13766 0.20176 0.86878 0.0
O114 O 0.10914 0.1534 0.88691 0.0
Mg115 Mg 0.18525 0.15714 0.89577 0.0
C116 C 0.09939 0.17199 0.8768 0.0
C117 C 0.19141 0.27368 0.84257 0.0
O118 O 0.15843 0.21926 0.84219 0.0
O119 O 0.25287 0.30413 0.88149 0.0
O120 O 0.22593 0.25087 0.89893 0.0
O121 O 0.21257 0.1596 0.8561 0.0
O122 O 0.22639 0.17236 0.87684 0.0
C123 C 0.24748 0.29854 0.89358 0.0
C124 C 0.21216 0.13926 0.86721 0.0
O125 O 0.2292 0.29504 0.85101 0.0
Mg126 Mg -0.00443 0.75632 0.61403 0.0
O127 O 0.93915 0.79279 0.61094 0.0
O128 O 0.96102 0.83773 0.5923 0.0
Mg129 Mg 0.03125 0.82994 0.58344 0.0
C130 C 0.93231 0.8217 0.60256 0.0
C131 C 0.92129 0.72516 0.63813 0.0
O132 O 0.94423 0.77963 0.63805 0.0
O133 O 0.94771 0.68683 0.59955 0.0
O134 O 0.97374 0.73581 0.58149 0.0
O135 O 0.05654 0.83658 0.62326 0.0
O136 O 0.05715 0.81994 0.60267 0.0
C137 C 0.94639 0.68957 0.58744 0.0
C138 C 0.07605 0.85508 0.61196 0.0
O139 O 0.93597 0.70226 0.62971 0.0
Mg140 Mg 0.26118 0.22185 0.61228 0.0
O141 O 0.22118 0.12686 0.60855 0.0
O142 O 0.17131 0.10143 0.59049 0.0
Mg143 Mg 0.20408 0.18366 0.58019 0.0
C144 C 0.18724 0.08956 0.60079 0.0
C145 C 0.27331 0.17556 0.63763 0.0
O146 O 0.21899 0.14652 0.63591 0.0
O147 O 0.34024 0.24943 0.60015 0.0
O148 O 0.28473 0.19009 0.58644 0.0
O149 O 0.17891 0.20372 0.61938 0.0
O150 O 0.20271 0.22183 0.59902 0.0
C151 C 0.32913 0.2359 0.58854 0.0
C152 C 0.16467 0.20615 0.6078 0.0
O153 O 0.30386 0.21271 0.62954 0.0
Mg154 Mg 0.80224 0.02263 0.61391 0.0
O155 O 0.89439 0.08224 0.60833 0.0
O156 O 0.91146 0.05539 0.58963 0.0
Mg157 Mg 0.83075 0.97869 0.58321 0.0
C158 C 0.9277 0.08791 0.59923 0.0
C159 C 0.80448 0.07145 0.64088 0.0
O160 O 0.79312 0.02124 0.64409 0.0
O161 O 0.7692 0.05943 0.59938 0.0
O162 O 0.78462 0.02662 0.58134 0.0
O163 O 0.82779 0.96801 0.62343 0.0
O164 O 0.80233 0.95901 0.60327 0.0
C165 C 0.76535 0.05327 0.58731 0.0
C166 C 0.82168 0.94378 0.61253 0.0
O167 O 0.80985 0.08453 0.62914 0.0
Mg168 Mg 0.89899 0.32435 0.44985 0.0
O169 O 0.86849 0.38569 0.44855 0.0
O170 O 0.82381 0.37555 0.43031 0.0
Mg171 Mg 0.82347 0.30356 0.41996 0.0
C172 C 0.84238 0.39965 0.44098 0.0
C173 C 0.93151 0.39426 0.4742 0.0
O174 O 0.87668 0.36905 0.47452 0.0
O175 O 0.9683 0.37362 0.43528 0.0
O176 O 0.91838 0.35605 0.41754 0.0
O177 O 0.81761 0.26336 0.4589 0.0
O178 O 0.83292 0.26859 0.43813 0.0
C179 C 0.96522 0.37897 0.42329 0.0
C180 C 0.79816 0.24756 0.44751 0.0
O181 O 0.9548 0.38002 0.46574 0.0
Mg182 Mg 0.69258 0.5752 0.45613 0.0
O183 O 0.63033 0.48515 0.45042 0.0
O184 O 0.65598 0.46441 0.43201 0.0
Mg185 Mg 0.73555 0.54349 0.42566 0.0
C186 C 0.62297 0.45071 0.44157 0.0
C187 C 0.60354 0.52662 0.47786 0.0
O188 O 0.62186 0.49159 0.47816 0.0
O189 O 0.6599 0.60991 0.44124 0.0
O190 O 0.68895 0.59051 0.42308 0.0
O191 O 0.74169 0.54344 0.46582 0.0
O192 O 0.75487 0.57162 0.44576 0.0
C193 C 0.66426 0.61168 0.42912 0.0
C194 C 0.76554 0.54782 0.45488 0.0
O195 O 0.627 0.56825 0.47038 0.0
Mg196 Mg 0.43995 0.11222 0.45239 0.0
O197 O 0.52826 0.13155 0.44756 0.0
O198 O 0.55296 0.16967 0.42824 0.0
Mg199 Mg 0.47959 0.17619 0.4208 0.0
C200 C 0.56374 0.15279 0.4385 0.0
C201 C 0.47992 0.07567 0.47574 0.0
O202 O 0.51745 0.12911 0.4752 0.0
O203 O 0.39908 0.03853 0.4388 0.0
O204 O 0.42097 0.08107 0.41991 0.0
O205 O 0.47694 0.19624 0.461 0.0
O206 O 0.45306 0.17918 0.44072 0.0
C207 C 0.39577 0.0369 0.42668 0.0
C208 C 0.47679 0.2151 0.44975 0.0
O209 O 0.43904 0.05574 0.46807 0.0
Mg210 Mg 0.65809 0.56449 0.69589 0.0
O211 O 0.7099 0.52454 0.70081 0.0
O212 O 0.6813 0.48146 0.71963 0.0
Mg213 Mg 0.61298 0.4957 0.727 0.0
C214 C 0.71255 0.49527 0.70977 0.0
C215 C 0.7387 0.59105 0.67271 0.0
O216 O 0.71665 0.53673 0.67321 0.0
O217 O 0.70655 0.63575 0.71001 0.0
O218 O 0.67603 0.58864 0.72827 0.0
O219 O 0.5959 0.483 0.68709 0.0
O220 O 0.59287 0.50517 0.7072 0.0
C221 C 0.70668 0.63381 0.72215 0.0
C222 C 0.57422 0.46788 0.69838 0.0
O223 O 0.72155 0.61435 0.68043 0.0
Mg224 Mg 0.3829 0.10206 0.7083 0.0
O225 O 0.42821 0.19867 0.70825 0.0
O226 O 0.47705 0.23461 0.72623 0.0
Mg227 Mg 0.44579 0.16068 0.73956 0.0
C228 C 0.46226 0.24015 0.71509 0.0
C229 C 0.37143 0.1328 0.68106 0.0
O230 O 0.4259 0.16085 0.68257 0.0
O231 O 0.30796 0.09242 0.71975 0.0
O232 O 0.3634 0.15136 0.73345 0.0
O233 O 0.46186 0.10865 0.70213 0.0
O234 O 0.44127 0.10898 0.72253 0.0
C235 C 0.32213 0.10322 0.73132 0.0
C236 C 0.47744 0.11492 0.7139 0.0
O237 O 0.34046 0.10125 0.68998 0.0
Mg238 Mg 0.83807 0.28751 0.7053 0.0
O239 O 0.74666 0.23066 0.712 0.0
O240 O 0.73375 0.26604 0.72992 0.0
Mg241 Mg 0.81575 0.3448 0.73476 0.0
C242 C 0.71526 0.22948 0.72111 0.0
C243 C 0.83621 0.23351 0.67952 0.0
O244 O 0.85048 0.28444 0.67617 0.0
O245 O 0.87401 0.25713 0.72066 0.0
O246 O 0.86288 0.29842 0.73776 0.0
O247 O 0.8112 0.33775 0.69441 0.0
O248 O 0.83979 0.35547 0.71436 0.0
C249 C 0.88093 0.26922 0.7325 0.0
C250 C 0.81905 0.36663 0.70467 0.0
O251 O 0.82848 0.22057 0.69127 0.0
Mg252 Mg 0.42569 0.33499 0.19633 0.0
O253 O 0.45598 0.2736 0.19836 0.0
O254 O 0.49674 0.28359 0.21716 0.0
Mg255 Mg 0.49494 0.35531 0.2271 0.0
C256 C 0.48059 0.25967 0.20638 0.0
C257 C 0.39633 0.26463 0.17191 0.0
O258 O 0.45103 0.28837 0.172 0.0
O259 O 0.3534 0.28598 0.21026 0.0
O260 O 0.39968 0.30354 0.22856 0.0
O261 O 0.50894 0.39624 0.18805 0.0
O262 O 0.48909 0.3905 0.20861 0.0
C263 C 0.35405 0.2809 0.22233 0.0
C264 C 0.52581 0.41193 0.19961 0.0
O265 O 0.37271 0.2798 0.18007 0.0
Mg266 Mg 0.64373 0.09436 0.1939 0.0
O267 O 0.70348 0.18509 0.19966 0.0
O268 O 0.67419 0.20492 0.21768 0.0
Mg269 Mg 0.595 0.12506 0.22372 0.0
C270 C 0.70864 0.21923 0.2084 0.0
C271 C 0.73488 0.14477 0.1727 0.0
O272 O 0.71548 0.17889 0.17224 0.0
O273 O 0.6761 0.0612 0.20933 0.0
O274 O 0.64384 0.08087 0.22696 0.0
O275 O 0.59387 0.12376 0.18356 0.0
O276 O 0.57895 0.09611 0.20365 0.0
C277 C 0.67038 0.06047 0.22141 0.0
C278 C 0.56823 0.11869 0.19428 0.0
O279 O 0.71164 0.10303 0.18015 0.0
Mg280 Mg 0.88667 0.55854 0.1997 0.0
O281 O 0.79609 0.53497 0.2032 0.0
O282 O 0.76677 0.49287 0.22203 0.0
Mg283 Mg 0.83944 0.48793 0.23047 0.0
C284 C 0.75818 0.51098 0.21168 0.0
C285 C 0.85058 0.59723 0.17613 0.0
O286 O 0.8144 0.54338 0.17612 0.0
O287 O 0.92085 0.62946 0.21407 0.0
O288 O 0.89468 0.58302 0.23247 0.0
O289 O 0.85497 0.47642 0.19038 0.0
O290 O 0.8729 0.49038 0.21099 0.0
C291 C 0.92047 0.62865 0.22622 0.0
C292 C 0.85271 0.45592 0.20157 0.0
O293 O 0.88976 0.61697 0.18425 0.0
Mg294 Mg 0.65972 0.09966 0.94934 0.0
O295 O 0.59558 0.12698 0.94656 0.0
O296 O 0.61124 0.1707 0.9279 0.0
Mg297 Mg 0.68677 0.17257 0.91884 0.0
C298 C 0.58382 0.15271 0.9383 0.0
C299 C 0.58817 0.0644 0.97368 0.0
O300 O 0.6095 0.11865 0.9736 0.0
O301 O 0.6179 0.02929 0.93481 0.0
O302 O 0.63991 0.07753 0.91667 0.0
O303 O 0.71516 0.18128 0.95864 0.0
O304 O 0.71696 0.16678 0.93797 0.0
C305 C 0.61731 0.03126 0.92268 0.0
C306 C 0.7336 0.20135 0.94737 0.0
O307 O 0.60332 0.04248 0.9651 0.0
Mg308 Mg 0.8897 0.56495 0.95102 0.0
O309 O 0.85666 0.47238 0.94713 0.0
O310 O 0.81162 0.44791 0.92859 0.0
Mg311 Mg 0.81497 0.52535 0.9207 0.0
C312 C 0.82913 0.43613 0.9386 0.0
C313 C 0.91706 0.52139 0.97459 0.0
O314 O 0.86237 0.49071 0.97384 0.0
O315 O 0.9594 0.59158 0.93626 0.0
O316 O 0.91009 0.56835 0.9183 0.0
O317 O 0.80977 0.54162 0.96082 0.0
O318 O 0.82405 0.55977 0.94021 0.0
C319 C 0.95665 0.58912 0.92413 0.0
C320 C 0.78982 0.54215 0.94977 0.0
O321 O 0.94348 0.56006 0.96649 0.0
Mg322 Mg 0.42496 0.32501 0.95351 0.0
O323 O 0.51762 0.39114 0.95037 0.0
O324 O 0.54353 0.37644 0.93123 0.0
Mg325 Mg 0.46938 0.30123 0.9223 0.0
C326 C 0.5543 0.40377 0.94161 0.0
C327 C 0.45563 0.39091 0.97919 0.0
O328 O 0.49272 0.37507 0.97916 0.0
O329 O 0.39661 0.36853 0.93963 0.0
O330 O 0.42325 0.34921 0.92114 0.0
O331 O 0.45118 0.2686 0.96194 0.0
O332 O 0.43424 0.27011 0.94148 0.0
C333 C 0.40032 0.37143 0.9275 0.0
C334 C 0.45176 0.25167 0.95046 0.0
O335 O 0.42133 0.37631 0.97003 0.0
Mg336 Mg 0.57237 0.65088 0.78368 0.0
O337 O 0.54422 0.71418 0.78217 0.0
O338 O 0.50047 0.7044 0.76379 0.0
Mg339 Mg 0.49859 0.63155 0.75356 0.0
C340 C 0.51914 0.72876 0.77443 0.0
C341 C 0.60407 0.71799 0.80845 0.0
O342 O 0.54936 0.69423 0.80843 0.0
O343 O 0.64289 0.69953 0.76929 0.0
O344 O 0.5936 0.68309 0.75147 0.0
O345 O 0.49012 0.59109 0.79255 0.0
O346 O 0.50624 0.59623 0.77182 0.0
C347 C 0.64024 0.70542 0.75731 0.0
C348 C 0.47099 0.57574 0.78113 0.0
O349 O 0.62763 0.70464 0.79986 0.0
Mg350 Mg 0.37614 0.91128 0.78834 0.0
O351 O 0.31286 0.82123 0.78282 0.0
O352 O 0.33739 0.79929 0.76441 0.0
Mg353 Mg 0.41735 0.87757 0.75789 0.0
C354 C 0.3047 0.78635 0.77401 0.0
C355 C 0.28979 0.86458 0.81044 0.0
O356 O 0.30837 0.82974 0.81057 0.0
O357 O 0.34308 0.94546 0.77343 0.0
O358 O 0.37102 0.92493 0.75525 0.0
O359 O 0.42468 0.87943 0.79815 0.0
O360 O 0.43754 0.90609 0.77796 0.0
C361 C 0.34675 0.94654 0.7613 0.0
C362 C 0.44793 0.8825 0.78719 0.0
O363 O 0.31189 0.90565 0.80278 0.0
Mg364 Mg 0.11402 0.44871 0.78526 0.0
O365 O 0.20187 0.46609 0.78067 0.0
O366 O 0.22779 0.50339 0.76129 0.0
Mg367 Mg 0.15569 0.51138 0.75357 0.0
C368 C 0.23769 0.4864 0.77165 0.0
C369 C 0.15208 0.41404 0.80911 0.0
O370 O 0.18906 0.46758 0.80838 0.0
O371 O 0.07253 0.37448 0.77179 0.0
O372 O 0.09585 0.41641 0.75283 0.0
O373 O 0.1521 0.53308 0.79369 0.0
O374 O 0.12896 0.51576 0.77337 0.0
C375 C 0.06976 0.37251 0.75967 0.0
C376 C 0.15295 0.55183 0.78237 0.0
O377 O 0.11186 0.39287 0.80125 0.0
Mg378 Mg 0.32307 0.89966 0.03092 0.0
O379 O 0.37547 0.86073 0.03621 0.0
O380 O 0.34634 0.81821 0.05507 0.0
Mg381 Mg 0.27675 0.83137 0.06205 0.0
C382 C 0.37804 0.83189 0.04529 0.0
C383 C 0.40593 0.92735 0.00809 0.0
O384 O 0.38483 0.87317 0.0086 0.0
O385 O 0.36931 0.97138 0.04504 0.0
O386 O 0.33776 0.92488 0.06334 0.0
O387 O 0.26224 0.81804 0.02205 0.0
O388 O 0.2574 0.83985 0.0421 0.0
C389 C 0.3681 0.97001 0.05718 0.0
C390 C 0.23969 0.80266 0.03326 0.0
O391 O 0.38742 0.94997 0.01564 0.0
Mg392 Mg 0.04486 0.4367 0.04053 0.0
O393 O 0.08949 0.53307 0.04168 0.0
O394 O 0.13831 0.5654 0.05979 0.0
Mg395 Mg 0.10464 0.48844 0.07223 0.0
C396 C 0.12374 0.57314 0.04882 0.0
C397 C 0.03126 0.47478 0.01386 0.0
O398 O 0.08578 0.50547 0.01506 0.0
O399 O 0.96788 0.42174 0.05208 0.0
O400 O 0.02391 0.48103 0.06565 0.0
O401 O 0.12522 0.44644 0.03429 0.0
O402 O 0.10197 0.44028 0.05469 0.0
C403 C 0.98097 0.43387 0.06366 0.0
C404 C 0.13934 0.44925 0.04611 0.0
O405 O 0.00268 0.43977 0.02251 0.0
Mg406 Mg 0.50171 0.62222 0.04113 0.0
O407 O 0.40897 0.56445 0.04665 0.0
O408 O 0.39211 0.59634 0.06464 0.0
Mg409 Mg 0.47276 0.67453 0.07053 0.0
C410 C 0.37563 0.56152 0.05547 0.0
C411 C 0.45918 0.53921 0.01835 0.0
O412 O 0.42434 0.55781 0.01786 0.0
O413 O 0.53385 0.58929 0.05672 0.0
O414 O 0.51999 0.62838 0.07387 0.0
O415 O 0.47774 0.6746 0.0301 0.0
O416 O 0.5013 0.68855 0.05042 0.0
C417 C 0.53898 0.59994 0.06863 0.0
C418 C 0.48311 0.70163 0.04056 0.0
O419 O 0.49605 0.5573 0.02701 0.0
Mg420 Mg 0.0912 0.66674 0.5277 0.0
O421 O 0.12167 0.60556 0.52993 0.0
O422 O 0.16251 0.6163 0.54875 0.0
Mg423 Mg 0.16048 0.68825 0.55851 0.0
C424 C 0.14637 0.59199 0.53802 0.0
C425 C 0.06224 0.59557 0.50344 0.0
O426 O 0.11698 0.61972 0.50355 0.0
O427 O 0.01888 0.61812 0.54166 0.0
O428 O 0.06525 0.63633 0.55997 0.0
O429 O 0.17448 0.72787 0.51941 0.0
O430 O 0.15447 0.72277 0.53994 0.0
C431 C 0.01959 0.61342 0.55374 0.0
C432 C 0.19124 0.74398 0.53095 0.0
O433 O 0.03838 0.61083 0.51152 0.0
Mg434 Mg 0.3095 0.42624 0.52619 0.0
O435 O 0.36916 0.51728 0.53176 0.0
O436 O 0.33976 0.53773 0.54968 0.0
Mg437 Mg 0.26067 0.45809 0.55584 0.0
C438 C 0.37422 0.55173 0.5404 0.0
C439 C 0.4011 0.47587 0.50505 0.0
O440 O 0.38212 0.51032 0.5045 0.0
O441 O 0.342 0.39387 0.54178 0.0
O442 O 0.30975 0.4143 0.55929 0.0
O443 O 0.25956 0.45513 0.51568 0.0
O444 O 0.24469 0.42834 0.53584 0.0
C445 C 0.33637 0.39376 0.55385 0.0
C446 C 0.23394 0.45052 0.52638 0.0
O447 O 0.37742 0.43424 0.51254 0.0
Mg448 Mg 0.55217 0.89097 0.53149 0.0
O449 O 0.46152 0.86745 0.53484 0.0
O450 O 0.43159 0.82512 0.55363 0.0
Mg451 Mg 0.50389 0.8199 0.56219 0.0
C452 C 0.42335 0.84338 0.54326 0.0
C453 C 0.51675 0.92951 0.50778 0.0
O454 O 0.4807 0.87563 0.50776 0.0
O455 O 0.58615 0.96178 0.54593 0.0
O456 O 0.55925 0.91488 0.56426 0.0
O457 O 0.52061 0.80882 0.52217 0.0
O458 O 0.53811 0.82274 0.54278 0.0
C459 C 0.58537 0.96066 0.55808 0.0
C460 C 0.51813 0.7883 0.53337 0.0
O461 O 0.5556 0.94941 0.51598 0.0
Mg462 Mg 0.32939 0.42436 0.2824 0.0
O463 O 0.2736 0.46131 0.27904 0.0
O464 O 0.29627 0.50595 0.26036 0.0
Mg465 Mg 0.36616 0.49708 0.25169 0.0
C466 C 0.26731 0.49031 0.27059 0.0
C467 C 0.25345 0.39356 0.30627 0.0
O468 O 0.27612 0.44799 0.30614 0.0
O469 O 0.28162 0.35451 0.268 0.0
O470 O 0.3081 0.403 0.24987 0.0
O471 O 0.39045 0.50495 0.29154 0.0
O472 O 0.39144 0.48737 0.27102 0.0
C473 C 0.28046 0.35694 0.25588 0.0
C474 C 0.41023 0.5229 0.28022 0.0
O475 O 0.26904 0.37076 0.29803 0.0
Mg476 Mg 0.59783 0.88991 0.27905 0.0
O477 O 0.55614 0.79442 0.27584 0.0
O478 O 0.50654 0.7679 0.25774 0.0
Mg479 Mg 0.54005 0.84929 0.24701 0.0
C480 C 0.52201 0.75666 0.2682 0.0
C481 C 0.60771 0.84509 0.30471 0.0
O482 O 0.55349 0.81714 0.30284 0.0
O483 O 0.67657 0.91416 0.26707 0.0
O484 O 0.62033 0.8553 0.25341 0.0
O485 O 0.51636 0.87449 0.28601 0.0
O486 O 0.53982 0.88972 0.26559 0.0
C487 C 0.66485 0.90106 0.25547 0.0
C488 C 0.50206 0.87582 0.27438 0.0
O489 O 0.63938 0.88128 0.29657 0.0
Mg490 Mg 0.1403 0.69433 0.28149 0.0
O491 O 0.23219 0.75358 0.27558 0.0
O492 O 0.24783 0.72541 0.25689 0.0
Mg493 Mg 0.16666 0.64846 0.2508 0.0
C494 C 0.26482 0.75857 0.26638 0.0
C495 C 0.13754 0.74179 0.30824 0.0
O496 O 0.1208 0.6899 0.31128 0.0
O497 O 0.1065 0.73045 0.267 0.0
O498 O 0.12054 0.69642 0.24899 0.0
O499 O 0.16614 0.6401 0.29107 0.0
O500 O 0.13968 0.6301 0.27097 0.0
C501 C 0.10179 0.72354 0.25495 0.0
C502 C 0.15936 0.61523 0.28022 0.0
O503 O 0.14839 0.75671 0.29664 0.0
C504 C 0.27214 0.13599 0.158 0.0
C505 C 0.29829 0.11494 0.15014 0.0
H506 H 0.28242 0.20023 0.17083 0.0
C507 C 0.35691 0.14444 0.14923 0.0
H508 H 0.22702 0.11459 0.15882 0.0
C509 C 0.38869 0.19387 0.15605 0.0
C510 C 0.36251 0.21487 0.16391 0.0
H511 H 0.37833 0.12957 0.14319 0.0
H512 H 0.43382 0.21529 0.15523 0.0
C513 C 0.30389 0.18543 0.16479 0.0
C514 C 0.80883 0.12294 0.16642 0.0
C515 C 0.78605 0.15762 0.16547 0.0
H516 H 0.87443 0.10842 0.16082 0.0
C517 C 0.81394 0.20605 0.15796 0.0
H518 H 0.78856 0.08547 0.17218 0.0
C519 C 0.86338 0.2194 0.1515 0.0
C520 C 0.88607 0.18463 0.15242 0.0
H521 H 0.79773 0.23387 0.15708 0.0
H522 H 0.88359 0.25681 0.14573 0.0
C523 C 0.85828 0.1363 0.15997 0.0
C524 C 0.79412 0.6133 0.16014 0.0
C525 C 0.84179 0.6348 0.16785 0.0
H526 H 0.74702 0.6309 0.14692 0.0
C527 C 0.87918 0.69268 0.16807 0.0
H528 H 0.76423 0.56894 0.15982 0.0
C529 C 0.86913 0.72827 0.16072 0.0
C530 C 0.82142 0.70674 0.15301 0.0
H531 H 0.91615 0.7106 0.17396 0.0
H532 H 0.89898 0.77264 0.16103 0.0
C533 C 0.78401 0.64887 0.15281 0.0
C534 C 0.13614 0.26798 0.32319 0.0
C535 C 0.11484 0.29301 0.3313 0.0
H536 H 0.19691 0.28009 0.30897 0.0
C537 C 0.14022 0.35138 0.33129 0.0
H538 H 0.11768 0.22314 0.32301 0.0
C539 C 0.18582 0.38402 0.32331 0.0
C540 C 0.20697 0.35902 0.31515 0.0
H541 H 0.125 0.37202 0.33747 0.0
H542 H 0.20414 0.42885 0.32348 0.0
C543 C 0.18171 0.30065 0.31518 0.0
C544 C 0.7119 0.84991 0.32833 0.0
C545 C 0.67653 0.81057 0.33743 0.0
H546 H 0.71788 0.89198 0.31089 0.0
C547 C 0.61845 0.78221 0.3356 0.0
H548 H 0.75686 0.87258 0.3295 0.0
C549 C 0.59613 0.79341 0.32495 0.0
C550 C 0.63145 0.83329 0.31594 0.0
H551 H 0.59012 0.75167 0.34245 0.0
H552 H 0.55116 0.771 0.32383 0.0
C553 C 0.68957 0.86122 0.3177 0.0
C554 C 0.17116 0.87697 0.32446 0.0
C555 C 0.15828 0.8604 0.33727 0.0
H556 H 0.17467 0.85269 0.30528 0.0
C557 C 0.13838 0.80442 0.34045 0.0
H558 H 0.18656 0.91976 0.32167 0.0
C559 C 0.13155 0.76588 0.33102 0.0
C560 C 0.14441 0.78248 0.31822 0.0
H561 H 0.12801 0.79028 0.35022 0.0
H562 H 0.11616 0.72306 0.33379 0.0
C563 C 0.16428 0.83846 0.31505 0.0
C564 C 0.61131 0.78465 0.82537 0.0
C565 C 0.63773 0.76533 0.81709 0.0
H566 H 0.62118 0.84577 0.83912 0.0
C567 C 0.69641 0.79412 0.81653 0.0
H568 H 0.56615 0.76365 0.82597 0.0
C569 C 0.72797 0.84147 0.82401 0.0
C570 C 0.70152 0.86105 0.83221 0.0
H571 H 0.71804 0.78049 0.8102 0.0
H572 H 0.77313 0.86264 0.82338 0.0
C573 C 0.64285 0.83201 0.83284 0.0
C574 C 0.16702 0.79429 0.83336 0.0
C575 C 0.14487 0.82959 0.83275 0.0
H576 H 0.2303 0.77786 0.82687 0.0
C577 C 0.17108 0.87681 0.82483 0.0
H578 H 0.14797 0.75769 0.8394 0.0
C579 C 0.21854 0.88859 0.8177 0.0
C580 C 0.2408 0.85339 0.81833 0.0
H581 H 0.15527 0.90504 0.82419 0.0
H582 H 0.23765 0.92524 0.81167 0.0
C583 C 0.21444 0.80605 0.82622 0.0
C584 C 0.21694 0.36783 0.8342 0.0
C585 C 0.18164 0.30962 0.83395 0.0
H586 H 0.23503 0.44643 0.82663 0.0
C587 C 0.1356 0.28609 0.8257 0.0
H588 H 0.25261 0.38729 0.84049 0.0
C589 C 0.12523 0.32003 0.81782 0.0
C590 C 0.16079 0.37821 0.818 0.0
H591 H 0.10734 0.2414 0.82533 0.0
H592 H 0.08967 0.30056 0.8115 0.0
C593 C 0.20667 0.40175 0.82629 0.0
C594 C 0.81105 0.68358 0.66387 0.0
C595 C 0.78522 0.62518 0.66381 0.0
H596 H 0.87451 0.7609 0.6559 0.0
C597 C 0.80527 0.59991 0.65541 0.0
H598 H 0.79678 0.70439 0.67026 0.0
C599 C 0.85002 0.63239 0.64718 0.0
C600 C 0.87568 0.69079 0.64722 0.0
H601 H 0.78643 0.55502 0.65516 0.0
H602 H 0.86425 0.61166 0.64076 0.0
C603 C 0.85582 0.71602 0.65567 0.0
C604 C 0.38053 0.182 0.66056 0.0
C605 C 0.34645 0.14183 0.66965 0.0
H606 H 0.38414 0.22446 0.64335 0.0
C607 C 0.28821 0.1123 0.66803 0.0
H608 H 0.42556 0.20558 0.66156 0.0
C609 C 0.26448 0.12321 0.6576 0.0
C610 C 0.29851 0.16395 0.64861 0.0
H611 H 0.26084 0.0811 0.67488 0.0
H612 H 0.21942 0.09991 0.65665 0.0
C613 C 0.35678 0.19301 0.65015 0.0
C614 C 0.8352 0.20642 0.65672 0.0
C615 C 0.82824 0.19187 0.6697 0.0
H616 H 0.83304 0.17996 0.63748 0.0
C617 C 0.81312 0.13725 0.67312 0.0
H618 H 0.84677 0.24811 0.65375 0.0
C619 C 0.80524 0.09808 0.66376 0.0
C620 C 0.81219 0.11267 0.65079 0.0
H621 H 0.80736 0.12468 0.68303 0.0
H622 H 0.79369 0.05636 0.66672 0.0
C623 C 0.82723 0.16728 0.64738 0.0
C624 C 0.05525 0.52441 0.48779 0.0
C625 C 0.02873 0.54531 0.49557 0.0
H626 H 0.04549 0.45986 0.47509 0.0
C627 C 0.97012 0.51533 0.4965 0.0
H628 H 0.10039 0.54624 0.48695 0.0
C629 C 0.93872 0.4655 0.48982 0.0
C630 C 0.96521 0.44459 0.48203 0.0
H631 H 0.94839 0.53003 0.50248 0.0
H632 H 0.89358 0.44371 0.49066 0.0
C633 C 0.02382 0.4746 0.48108 0.0
C634 C 0.47436 0.4529 0.49888 0.0
C635 C 0.45237 0.48827 0.49794 0.0
H636 H 0.53949 0.43749 0.49339 0.0
C637 C 0.48118 0.53698 0.49054 0.0
H638 H 0.45336 0.41519 0.50454 0.0
C639 C 0.53078 0.54997 0.48421 0.0
C640 C 0.5527 0.51453 0.48512 0.0
H641 H 0.46561 0.56533 0.48968 0.0
H642 H 0.55172 0.58764 0.47853 0.0
C643 C 0.52395 0.46588 0.49254 0.0
C644 C 0.53575 0.06018 0.49206 0.0
C645 C 0.48855 0.03842 0.48418 0.0
H646 H 0.58207 0.04289 0.50559 0.0
C647 C 0.45133 0.98052 0.48396 0.0
H648 H 0.56545 0.10458 0.49239 0.0
C649 C 0.46112 0.94514 0.49146 0.0
C650 C 0.50829 0.96688 0.49934 0.0
H651 H 0.41473 0.96238 0.47795 0.0
H652 H 0.4314 0.90074 0.49112 0.0
C653 C 0.5455 0.02479 0.49957 0.0
C654 C 0.47382 0.93772 0.99093 0.0
C655 C 0.45274 0.96216 -0.0007 0.0
H656 H 0.53348 0.95084 0.97632 0.0
C657 C 0.47767 0.02046 -0.00059 0.0
H658 H 0.4557 0.89293 0.99066 0.0
C659 C 0.52239 0.05359 0.99127 0.0
C660 C 0.54313 0.02919 0.98281 0.0
H661 H 0.46265 0.04067 0.00578 0.0
H662 H 0.54022 0.09835 0.99153 0.0
C663 C 0.51854 0.97091 0.98275 0.0
C664 C 0.00545 0.54084 0.98531 0.0
C665 C 0.94691 0.50917 0.98442 0.0
H666 H 0.07822 0.55448 -0.00473 0.0
C667 C 0.91673 0.46478 -0.00706 0.0
H668 H 0.02986 0.57512 0.97882 0.0
C669 C 0.94434 0.45282 0.00229 0.0
C670 C 0.00276 0.48497 0.00333 0.0
H671 H 0.87161 0.4393 -0.00754 0.0
H672 H 0.9197 0.41874 0.00881 0.0
C673 C 0.03314 0.52883 -0.00532 0.0
C674 C 0.41623 0.445 0.9894 0.0
C675 C 0.45515 0.42706 0.9895 0.0
H676 H 0.38686 0.49422 -0.00157 0.0
C677 C 0.49439 0.44504 -0.00062 0.0
H678 H 0.38536 0.43186 0.98194 0.0
C679 C 0.49526 0.48085 0.00885 0.0
C680 C 0.4569 0.49948 0.00864 0.0
H681 H 0.5249 0.43194 -0.00025 0.0
H682 H 0.52641 0.49437 0.01626 0.0
C683 C 0.41709 0.48078 -0.00113 0.0
C684 C 0.38276 0.04256 0.08673 0.0
C685 C 0.34708 0.06217 0.08335 0.0
H686 H 0.42097 -0.00278 0.08013 0.0
C687 C 0.34554 0.07565 0.07052 0.0
H688 H 0.38622 0.03325 0.09658 0.0
C689 C 0.36656 0.05581 0.06105 0.0
C690 C 0.38791 0.02176 0.06451 0.0
H691 H 0.31976 0.09254 0.06768 0.0
H692 H 0.35582 0.05766 0.05124 0.0
C693 C 0.403 0.02198 0.07726 0.0
C694 C 0.96225 0.33703 0.06723 0.0
C695 C 0.97248 0.38826 0.07218 0.0
H696 H 0.96028 0.26073 0.07096 0.0
C697 C 0.97996 0.39779 0.08535 0.0
H698 H 0.95606 0.32829 0.05712 0.0
C699 C 0.98128 0.35853 0.09332 0.0
C700 C 0.97619 0.30962 0.08817 0.0
H701 H 0.98739 0.43678 0.0894 0.0
H702 H 0.9905 0.36845 0.10332 0.0
C703 C 0.96461 0.29828 0.07515 0.0
C704 C 0.58037 0.5954 0.08913 0.0
C705 C 0.5827 0.59655 0.07575 0.0
H706 H 0.62646 0.62759 0.10634 0.0
C707 C 0.63463 0.61568 0.06969 0.0
H708 H 0.5408 0.58031 0.09404 0.0
C709 C 0.68395 0.64435 0.0767 0.0
C710 C 0.68156 0.65248 0.08985 0.0
H711 H 0.6378 0.61668 0.05939 0.0
H712 H 0.72349 0.66606 0.07162 0.0
C713 C 0.62969 0.62274 0.09617 0.0
C714 C 0.05155 0.37805 0.41844 0.0
C715 C 0.0153 0.39718 0.41522 0.0
H716 H 0.08969 0.33298 0.41161 0.0
C717 C 0.01328 0.41092 0.40244 0.0
H718 H 0.05557 0.36874 0.42825 0.0
C719 C 0.03385 0.39115 0.39286 0.0
C720 C 0.05528 0.35702 0.39618 0.0
H721 H 0.9872 0.42764 0.39973 0.0
H722 H 0.02248 0.39289 0.38309 0.0
C723 C 0.07144 0.35763 0.40886 0.0
C724 C 0.63904 0.63843 0.40871 0.0
C725 C 0.6483 0.64648 0.42188 0.0
H726 H 0.63079 0.67178 0.39112 0.0
C727 C 0.65069 0.69312 0.42767 0.0
H728 H 0.63686 0.6027 0.40403 0.0
C729 C 0.64835 0.73325 0.42024 0.0
C730 C 0.64252 0.72687 0.40698 0.0
H731 H 0.6581 0.70055 0.43779 0.0
H732 H 0.65318 0.77035 0.42481 0.0
C733 C 0.63562 0.67802 0.40132 0.0
C734 C 0.35197 0.97947 0.4073 0.0
C735 C 0.35026 0.98645 0.42053 0.0
H736 H 0.30486 0.95305 0.3901 0.0
C737 C 0.29874 0.95592 0.42696 0.0
H738 H 0.39122 0.00181 0.40213 0.0
C739 C 0.24906 0.92888 0.42004 0.0
C740 C 0.25065 0.93107 0.40667 0.0
H741 H 0.29602 0.95984 0.43718 0.0
H742 H 0.20972 0.91317 0.4251 0.0
C743 C 0.30229 0.95112 0.40041 0.0
C744 C 0.64697 0.92439 0.91134 0.0
C745 C 0.64785 0.93436 0.89819 0.0
H746 H 0.63327 0.94675 0.92991 0.0
C747 C 0.61554 0.95608 0.8936 0.0
H748 H 0.67061 0.90662 0.91511 0.0
C749 C 0.59512 0.9803 0.9021 0.0
C750 C 0.60581 0.98156 0.9152 0.0
H751 H 0.61449 0.96337 0.8835 0.0
H752 H 0.5787 0.00508 0.89829 0.0
C753 C 0.62552 0.94759 0.91984 0.0
C754 C 0.0076 0.61114 0.90349 0.0
C755 C 0.00754 0.62377 0.91646 0.0
H756 H 0.02675 0.64398 0.8846 0.0
C757 C 0.04517 0.67816 0.92066 0.0
H758 H 0.97988 0.5692 0.90004 0.0
C759 C 0.07146 0.7213 0.91177 0.0
C760 C 0.06055 0.70984 0.89871 0.0
H761 H 0.04686 0.689 0.93064 0.0
H762 H 0.0922 0.76395 0.91516 0.0
C763 C 0.03488 0.65419 0.89462 0.0
C764 C 0.30865 0.36275 0.92406 0.0
C765 C 0.36469 0.38629 0.92021 0.0
H766 H 0.22379 0.31599 0.91787 0.0
C767 C 0.37893 0.40288 0.90744 0.0
H768 H 0.29648 0.35059 0.93388 0.0
C769 C 0.33706 0.38372 0.89825 0.0
C770 C 0.28124 0.34708 0.90185 0.0
H771 H 0.42208 0.42244 0.90429 0.0
H772 H 0.34944 0.389 0.8883 0.0
C773 C 0.2668 0.34284 0.91484 0.0
C774 C 0.91504 0.64027 0.56686 0.0
C775 C 0.92777 0.63886 0.57974 0.0
H776 H 0.93362 0.62912 0.54769 0.0
C777 C 0.94639 0.60268 0.58336 0.0
H778 H 0.89894 0.66649 0.56385 0.0
C779 C 0.96713 0.58183 0.57407 0.0
C780 C 0.96833 0.5967 0.56124 0.0
H781 H 0.95509 0.59937 0.59326 0.0
H782 H 0.991 0.56313 0.57712 0.0
C783 C 0.93501 0.61868 0.55756 0.0
C784 C 0.33728 0.26856 0.56615 0.0
C785 C 0.34567 0.28116 0.5792 0.0
H786 H 0.32983 0.29592 0.54763 0.0
C787 C 0.36282 0.33562 0.58327 0.0
H788 H 0.32462 0.22705 0.56276 0.0
C789 C 0.3651 0.37467 0.57466 0.0
C790 C 0.35153 0.36031 0.56182 0.0
H791 H 0.37008 0.34685 0.59325 0.0
H792 H 0.37372 0.41482 0.5782 0.0
C793 C 0.34074 0.3081 0.55748 0.0
C794 C 0.72863 0.06792 0.56717 0.0
C795 C 0.72333 0.06042 0.58045 0.0
H796 H 0.68666 0.04304 0.54931 0.0
C797 C 0.67011 0.03834 0.58605 0.0
H798 H 0.76929 0.08555 0.56263 0.0
C799 C 0.62248 0.01256 0.57841 0.0
C800 C 0.62795 0.01003 0.56513 0.0
H801 H 0.6647 0.03258 0.59627 0.0
H802 H 0.58195 0.98823 0.58297 0.0
C803 C 0.68101 0.04329 0.55953 0.0
C804 C 0.70904 0.72095 0.72679 0.0
C805 C 0.7292 0.68534 0.72968 0.0
H806 H 0.66383 0.75803 0.73421 0.0
C807 C 0.74506 0.68377 0.74228 0.0
H808 H 0.69801 0.72439 0.71709 0.0
C809 C 0.7257 0.70342 0.75215 0.0
C810 C 0.69047 0.72413 0.74927 0.0
H811 H 0.76242 0.65796 0.7447 0.0
H812 H 0.72913 0.69229 0.76184 0.0
C813 C 0.68912 0.7401 0.73665 0.0
C814 C 0.3142 0.00992 0.73348 0.0
C815 C 0.319 0.05793 0.73912 0.0
H816 H 0.31916 0.93661 0.73618 0.0
C817 C 0.32529 0.06477 0.75237 0.0
H818 H 0.30916 0.0034 0.72328 0.0
C819 C 0.32999 0.02599 0.75979 0.0
C820 C 0.32952 0.98026 0.75402 0.0
H821 H 0.32862 0.10126 0.75693 0.0
H822 H 0.3375 0.03378 0.7699 0.0
C823 C 0.31996 0.97169 0.74086 0.0
C824 C 0.97703 0.28616 0.73331 0.0
C825 C 0.92515 0.26611 0.73945 0.0
H826 H 0.06588 0.33697 0.73517 0.0
C827 C 0.92311 0.26435 0.75283 0.0
H828 H 0.97994 0.28777 0.723 0.0
C829 C 0.97254 0.29171 0.75984 0.0
C830 C 0.02428 0.32208 0.75349 0.0
H831 H 0.88358 0.24865 0.7578 0.0
H832 H 0.96944 0.29589 0.77003 0.0
C833 C 0.02646 0.31477 0.74029 0.0
C834 C 0.26913 0.28565 0.22611 0.0
C835 C 0.30275 0.26405 0.22982 0.0
H836 H 0.23259 0.3331 0.23232 0.0
C837 C 0.3016 0.24938 0.24267 0.0
H838 H 0.26766 0.29585 0.21623 0.0
C839 C 0.28059 0.27011 0.25193 0.0
C840 C 0.26171 0.30601 0.24826 0.0
H841 H 0.32566 0.23092 0.24575 0.0
H842 H 0.28938 0.26702 0.26184 0.0
C843 C 0.24888 0.30709 0.23537 0.0
C844 C 0.69689 0.00077 0.25057 0.0
C845 C 0.68031 0.9467 0.24629 0.0
H846 H 0.70713 0.08 0.24582 0.0
C847 C 0.6719 0.93485 0.23321 0.0
H848 H 0.70412 0.01142 0.26058 0.0
C849 C 0.675 0.97475 0.22471 0.0
C850 C 0.68545 0.02659 0.22924 0.0
H851 H 0.65967 0.89365 0.22967 0.0
H852 H 0.66423 0.96316 0.21483 0.0
C853 C 0.69881 0.04017 0.24212 0.0
C854 C 0.01578 0.71192 0.22742 0.0
C855 C 0.9631 0.67835 0.23317 0.0
H856 H 0.10425 0.75514 0.23027 0.0
C857 C 0.95826 0.68123 0.24645 0.0
H858 H 0.02091 0.71143 0.21718 0.0
C859 C 0.00626 0.70777 0.25395 0.0
C860 C 0.05925 0.7302 0.24821 0.0
H861 H 0.91801 0.65668 0.25113 0.0
H862 H 0.00142 0.7023 0.26419 0.0
C863 C 0.06379 0.73729 0.23493 0.0
C864 C 0.12789 0.15075 0.12844 0.0
C865 C 0.12653 0.18639 0.11922 0.0
H866 H 0.14534 0.08578 0.1323 0.0
C867 C 0.14799 0.18774 0.10696 0.0
H868 H 0.11218 0.1491 0.138 0.0
C869 C 0.16505 0.1503 0.1036 0.0
C870 C 0.16329 0.11256 0.1126 0.0
H871 H 0.14985 0.21634 0.09979 0.0
H872 H 0.17887 0.15029 0.09392 0.0
C873 C 0.14673 0.11447 0.12518 0.0
C874 C 0.89171 0.03856 0.12367 0.0
C875 C 0.91033 0.05853 0.11126 0.0
H876 H 0.84526 0.96733 0.13566 0.0
C877 C 0.89085 0.02059 0.10107 0.0
H878 H 0.90597 0.06661 0.13174 0.0
C879 C 0.85518 0.96361 0.10332 0.0
C880 C 0.83948 0.9433 0.11581 0.0
H881 H 0.90415 0.03479 0.09139 0.0
H882 H 0.84181 0.93561 0.09528 0.0
C883 C 0.85712 0.98154 0.12593 0.0
C884 C 0.99041 0.84761 0.09923 0.0
C885 C 0.95321 0.83479 0.10951 0.0
H886 H 0.07514 0.88125 0.09323 0.0
C887 C 0.97395 0.84264 0.12199 0.0
H888 H 0.97559 0.84134 0.08951 0.0
C889 C 0.03127 0.86713 0.12413 0.0
C890 C 0.06891 0.88349 0.11382 0.0
H891 H 0.94643 0.83314 0.13014 0.0
H892 H 0.04619 0.87535 0.13384 0.0
C893 C 0.0476 0.87103 0.10138 0.0
C894 C 0.08175 0.12095 0.36379 0.0
C895 C 0.07686 0.14034 0.37581 0.0
H896 H 0.10635 0.07092 0.35332 0.0
C897 C 0.09943 0.12901 0.38648 0.0
H898 H 0.06431 0.12883 0.35542 0.0
C899 C 0.1243 0.09668 0.38525 0.0
C900 C 0.12541 0.07361 0.37341 0.0
H901 H 0.09648 0.14392 0.39583 0.0
H902 H 0.14077 0.08835 0.39368 0.0
C903 C 0.10537 0.0874 0.36261 0.0
C904 C 0.85849 0.03333 0.36112 0.0
C905 C 0.8672 0.07641 0.36952 0.0
H906 H 0.82644 0.94553 0.35886 0.0
C907 C 0.84555 0.06263 0.38198 0.0
H908 H 0.87435 0.04254 0.35144 0.0
C909 C 0.82003 0.00782 0.38629 0.0
C910 C 0.81369 0.96522 0.37811 0.0
H911 H 0.84959 0.09437 0.38857 0.0
H912 H 0.80551 -0.00125 0.39608 0.0
C913 C 0.83133 0.97795 0.36536 0.0
C914 C 0.95472 0.82669 0.37723 0.0
C915 C 0.97924 0.85695 0.38841 0.0
H916 H 0.87978 0.77908 0.36656 0.0
C917 C 0.94398 0.8555 0.39831 0.0
H918 H 0.98032 0.82652 0.36942 0.0
C919 C 0.88593 0.82793 0.39668 0.0
C920 C 0.86208 0.80176 0.38507 0.0
H921 H 0.96136 0.87796 0.40711 0.0
H922 H 0.86032 0.82975 0.40424 0.0
C923 C 0.89691 0.79967 0.37556 0.0
C924 C 0.86014 0.87498 0.86031 0.0
C925 C 0.84555 0.88015 0.87288 0.0
H926 H 0.9012 0.84514 0.84807 0.0
C927 C 0.85565 0.85265 0.88271 0.0
H928 H 0.85302 0.89599 0.85254 0.0
C929 C 0.88211 0.82256 0.88011 0.0
C930 C 0.9008 0.82104 0.8677 0.0
H931 H 0.8442 0.85546 0.89246 0.0
H932 H 0.88936 0.80203 0.88793 0.0
C933 C 0.88798 0.84609 0.85776 0.0
C934 C 0.1336 0.98386 0.86105 0.0
C935 C 0.12556 0.96283 0.87353 0.0
H936 H 0.16694 0.05655 0.84925 0.0
C937 C 0.15208 -0.00015 0.88364 0.0
H938 H 0.11344 0.95617 0.85308 0.0
C939 C 0.1836 0.05714 0.88142 0.0
C940 C 0.18763 0.07864 0.86911 0.0
H941 H 0.14711 0.98459 0.89332 0.0
H942 H 0.20298 0.08451 0.88947 0.0
C943 C 0.16402 0.04136 0.85887 0.0
C944 C 0.00216 0.14311 0.88342 0.0
C945 C 0.04097 0.15338 0.87368 0.0
H946 H 0.9166 0.11041 0.88842 0.0
C947 C 0.02243 0.14047 0.86104 0.0
H948 H 0.0156 0.15346 0.89322 0.0
C949 C 0.96539 0.11388 0.85832 0.0
C950 C 0.92615 0.10074 0.86819 0.0
H951 H 0.05162 0.14791 0.85335 0.0
H952 H 0.95199 0.10176 0.84858 0.0
C953 C 0.94539 0.11795 0.88067 0.0
C954 C 0.86621 0.89103 0.62037 0.0
C955 C 0.84273 0.90535 0.61035 0.0
H956 H 0.91207 0.85183 0.62576 0.0
C957 C 0.84242 0.88508 0.59805 0.0
H958 H 0.86645 0.90536 0.62999 0.0
C959 C 0.86935 0.85536 0.5956 0.0
C960 C 0.89549 0.84379 0.60549 0.0
H961 H 0.82311 0.89363 0.59019 0.0
H962 H 0.87106 0.84275 0.58592 0.0
C963 C 0.89197 0.86004 0.61798 0.0
C964 C 0.15124 0.01161 0.61657 0.0
C965 C 0.16448 0.0304 0.60393 0.0
H966 H 0.11217 0.94099 0.62905 0.0
C967 C 0.15353 0.99177 0.59417 0.0
H968 H 0.15948 0.04072 0.62427 0.0
C969 C 0.12799 0.93506 0.59693 0.0
C970 C 0.11105 0.91559 0.60944 0.0
H971 H 0.16439 0.00541 0.58437 0.0
H972 H 0.12043 0.90654 0.58917 0.0
C973 C 0.12422 0.95457 0.61929 0.0
C974 C 0.08376 0.16645 0.59262 0.0
C975 C 0.10508 0.18463 0.6049 0.0
H976 H 0.01061 0.12165 0.58114 0.0
C977 C 0.06786 0.17763 0.61484 0.0
H978 H 0.11127 0.17169 0.58474 0.0
C979 C 0.0103 0.1498 0.61277 0.0
C980 C 0.9885 0.12761 0.60072 0.0
H981 H 0.08304 0.19187 0.62439 0.0
H982 H 0.98284 0.14293 0.6208 0.0
C983 C 0.02597 0.13782 0.59057 0.0
C984 C 0.79454 0.47973 0.46111 0.0
C985 C 0.79423 0.51668 0.45211 0.0
H986 H 0.81095 0.41377 0.46459 0.0
C987 C 0.81632 0.51918 0.43986 0.0
H988 H 0.77834 0.47718 0.47066 0.0
C989 C 0.833 0.48168 0.43628 0.0
C990 C 0.83026 0.44274 0.44506 0.0
H991 H 0.81901 0.54878 0.43286 0.0
H992 H 0.84738 0.48264 0.42661 0.0
C993 C 0.81304 0.4434 0.45764 0.0
C994 C 0.52587 0.29706 0.43492 0.0
C995 C 0.50831 0.27583 0.44729 0.0
H996 H 0.57629 0.36917 0.42337 0.0
C997 C 0.52407 0.31333 0.45752 0.0
H998 H 0.51408 0.26961 0.4268 0.0
C999 C 0.55865 0.37054 0.45552 0.0
C1000 C 0.57916 0.39149 0.44326 0.0
H1001 H 0.51073 0.29838 0.46716 0.0
H1002 H 0.57142 0.39797 0.4637 0.0
C1003 C 0.5615 0.35427 0.43294 0.0
C1004 C 0.71628 0.20225 0.43276 0.0
C1005 C 0.73721 0.2141 0.44525 0.0
H1006 H 0.64473 0.17353 0.42079 0.0
C1007 C 0.69927 0.19753 0.4555 0.0
H1008 H 0.74406 0.21261 0.42466 0.0
C1009 C 0.64207 0.17351 0.45327 0.0
C1010 C 0.62176 0.16636 0.44076 0.0
H1011 H 0.71389 0.2053 0.46524 0.0
H1012 H 0.61433 0.16386 0.46138 0.0
C1013 C 0.65922 0.1793 0.43053 0.0
C1014 C 0.7718 0.46078 0.71871 0.0
C1015 C 0.74799 0.47078 0.70809 0.0
H1016 H 0.81539 0.42233 0.72586 0.0
C1017 C 0.75267 0.45117 0.69608 0.0
H1018 H 0.76908 0.47599 0.72804 0.0
C1019 C 0.77742 0.41863 0.69489 0.0
C1020 C 0.79879 0.40617 0.70565 0.0
H1021 H 0.7343 0.45814 0.68775 0.0
H1022 H 0.77823 0.40187 0.68562 0.0
C1023 C 0.79783 0.42955 0.71746 0.0
C1024 C 0.49027 0.33907 0.71838 0.0
C1025 C 0.48475 0.29697 0.71014 0.0
H1026 H 0.51924 0.42544 0.72082 0.0
C1027 C 0.50279 0.31026 0.69743 0.0
H1028 H 0.47544 0.32954 0.72815 0.0
C1029 C 0.52976 0.36581 0.69331 0.0
C1030 C 0.53789 0.40843 0.70179 0.0
H1031 H 0.49853 0.27822 0.69089 0.0
H1032 H 0.54612 0.37553 0.68367 0.0
C1033 C 0.51562 0.39403 0.71418 0.0
C1034 C 0.61824 0.18791 0.7303 0.0
C1035 C 0.65392 0.19048 0.72037 0.0
H1036 H 0.5343 0.16122 0.73617 0.0
C1037 C 0.6299 0.1615 0.70902 0.0
H1038 H 0.63524 0.20939 0.73922 0.0
C1039 C 0.57217 0.1346 0.70725 0.0
C1040 C 0.5369 0.13547 0.71681 0.0
H1041 H 0.65587 0.16229 0.70119 0.0
H1042 H 0.55542 0.11498 0.69814 0.0
C1043 C 0.56026 0.16039 0.72856 0.0
C1044 C 0.53581 0.18323 0.18727 0.0
C1045 C 0.53687 0.14759 0.19654 0.0
H1046 H 0.51617 0.24647 0.18316 0.0
C1047 C 0.51257 0.14424 0.20855 0.0
H1048 H 0.55368 0.18638 0.17789 0.0
C1049 C 0.49288 0.17981 0.21168 0.0
C1050 C 0.4949 0.21764 0.20267 0.0
H1051 H 0.51049 0.11557 0.21573 0.0
H1052 H 0.47693 0.17839 0.22121 0.0
C1053 C 0.51442 0.21763 0.19029 0.0
C1054 C 0.77046 0.31445 0.21749 0.0
C1055 C 0.75182 0.27868 0.20691 0.0
H1056 H 0.81872 0.39814 0.22419 0.0
C1057 C 0.77085 0.30121 0.1947 0.0
H1058 H 0.75685 0.29816 0.22703 0.0
C1059 C 0.80502 0.35872 0.19303 0.0
C1060 C 0.82176 0.39483 0.20356 0.0
H1061 H 0.75711 0.27478 0.18635 0.0
H1062 H 0.81714 0.37495 0.18345 0.0
C1063 C 0.80574 0.37188 0.21584 0.0
C1064 C 0.66045 0.48197 0.21828 0.0
C1065 C 0.70041 0.49592 0.20857 0.0
H1066 H 0.57421 0.44704 0.22303 0.0
C1067 C 0.68309 0.48851 0.1958 0.0
H1068 H 0.67265 0.48789 0.2282 0.0
C1069 C 0.62641 0.46342 0.19284 0.0
C1070 C 0.58606 0.44605 0.20258 0.0
H1071 H 0.71284 0.49884 0.18809 0.0
H1072 H 0.61413 0.45555 0.18293 0.0
C1073 C 0.60393 0.45801 0.2153 0.0
C1074 C 0.53366 0.17823 0.95431 0.0
C1075 C 0.54228 0.16887 0.94155 0.0
H1076 H 0.49878 0.21247 0.96715 0.0
C1077 C 0.51583 0.18134 0.93188 0.0
H1078 H 0.55363 0.16915 0.96197 0.0
C1079 C 0.48366 0.20527 0.93487 0.0
C1080 C 0.4786 0.21873 0.94754 0.0
H1081 H 0.52121 0.17394 0.92198 0.0
H1082 H 0.46432 0.21475 0.92716 0.0
C1083 C 0.50247 0.20334 0.95727 0.0
C1084 C 0.80072 0.3409 0.93062 0.0
C1085 C 0.81246 0.37749 0.94089 0.0
H1086 H 0.7694 0.25702 0.92463 0.0
C1087 C 0.80357 0.35652 0.95338 0.0
H1088 H 0.80797 0.35613 0.92091 0.0
C1089 C 0.77978 0.29937 0.95551 0.0
C1090 C 0.76536 0.2623 0.9452 0.0
H1091 H 0.81228 0.38381 0.96149 0.0
H1092 H 0.77106 0.28412 0.96522 0.0
C1093 C 0.7782 0.28399 0.93277 0.0
C1094 C 0.69191 0.49068 0.95833 0.0
C1095 C 0.72875 0.51488 0.94793 0.0
H1096 H 0.60723 0.43714 0.96449 0.0
C1097 C 0.70652 0.50861 0.93567 0.0
H1098 H 0.70765 0.49531 0.96794 0.0
C1099 C 0.64917 0.47465 0.93369 0.0
C1100 C 0.61279 0.44745 0.94398 0.0
H1101 H 0.73342 0.52806 0.9275 0.0
H1102 H 0.63349 0.46822 0.92404 0.0
C1103 C 0.63434 0.45756 0.95638 0.0
C1104 C 0.4759 0.81426 0.79394 0.0
C1105 C 0.47543 0.85006 0.78463 0.0
H1106 H 0.49103 0.74785 0.79797 0.0
C1107 C 0.49608 0.85006 0.77236 0.0
H1108 H 0.46083 0.81365 0.80352 0.0
C1109 C 0.51145 0.81125 0.76909 0.0
C1110 C 0.50874 0.77338 0.77819 0.0
H1111 H 0.49861 0.87869 0.76511 0.0
H1112 H 0.52472 0.8103 0.75941 0.0
C1113 C 0.49304 0.77655 0.79077 0.0
C1114 C 0.23847 0.70722 0.78798 0.0
C1115 C 0.25985 0.72755 0.77574 0.0
H1116 H 0.18836 0.63574 0.79964 0.0
C1117 C 0.24163 0.69008 0.76545 0.0
H1118 H 0.25158 0.73487 0.79612 0.0
C1119 C 0.20455 0.63316 0.76746 0.0
C1120 C 0.18601 0.61245 0.77983 0.0
H1121 H 0.25703 0.70453 0.75589 0.0
H1122 H 0.19235 0.60546 0.75938 0.0
C1123 C 0.20239 0.65027 0.79001 0.0
C1124 C 0.38957 0.53215 0.76623 0.0
C1125 C 0.41009 0.54358 0.77875 0.0
H1126 H 0.3187 0.50509 0.75412 0.0
C1127 C 0.37188 0.52792 0.78893 0.0
H1128 H 0.41751 0.5418 0.75818 0.0
C1129 C 0.31493 0.50527 0.7866 0.0
C1130 C 0.29518 0.49858 0.77404 0.0
H1131 H 0.38616 0.53539 0.7987 0.0
H1132 H 0.28703 0.49629 0.79465 0.0
C1133 C 0.3328 0.51056 0.76389 0.0
C1134 C 0.41955 0.78858 0.03175 0.0
C1135 C 0.41341 0.80716 0.04377 0.0
H1136 H 0.44576 0.73969 0.02133 0.0
C1137 C 0.4353 0.79552 0.05451 0.0
H1138 H 0.40265 0.79673 0.02332 0.0
C1139 C 0.46076 0.76372 0.05336 0.0
C1140 C 0.46318 0.74147 0.0415 0.0
H1141 H 0.43141 0.80982 0.06387 0.0
H1142 H 0.47675 0.75519 0.06185 0.0
C1143 C 0.4438 0.75556 0.03064 0.0
C1144 C 0.15449 0.67243 0.05283 0.0
C1145 C 0.14764 0.63075 0.04429 0.0
H1146 H 0.18531 0.75892 0.05576 0.0
C1147 C 0.16576 0.64505 0.03161 0.0
H1148 H 0.13973 0.66215 0.06258 0.0
C1149 C 0.19379 0.70097 0.02778 0.0
C1150 C 0.20299 0.7431 0.03652 0.0
H1151 H 0.16065 0.6134 0.02484 0.0
H1152 H 0.20992 0.71127 0.01813 0.0
C1153 C 0.18093 0.72789 0.04892 0.0
C1154 C 0.27701 0.51641 0.0638 0.0
C1155 C 0.31459 0.52286 0.05396 0.0
H1156 H 0.192 0.48713 0.06916 0.0
C1157 C 0.29289 0.49847 0.04206 0.0
H1158 H 0.29223 0.53432 0.07312 0.0
C1159 C 0.23556 0.47232 0.03975 0.0
C1160 C 0.19841 0.46926 0.04932 0.0
H1161 H 0.32041 0.50242 0.03426 0.0
H1162 H 0.22062 0.45634 0.03028 0.0
C1163 C 0.21945 0.48952 0.06153 0.0
C1164 C 0.18028 0.54944 0.52207 0.0
C1165 C 0.16071 0.54986 0.53442 0.0
H1166 H 0.21955 0.51776 0.5098 0.0
C1167 C 0.1586 0.51229 0.54352 0.0
H1168 H 0.18208 0.57807 0.51488 0.0
C1169 C 0.17825 0.47658 0.5405 0.0
C1170 C 0.2026 0.47953 0.52852 0.0
H1171 H 0.14259 0.51118 0.55303 0.0
H1172 H 0.17609 0.44811 0.54775 0.0
C1173 C 0.20164 0.51491 0.51917 0.0
C1174 C 0.43666 0.64699 0.54938 0.0
C1175 C 0.41731 0.61112 0.53883 0.0
H1176 H 0.48556 0.73072 0.55601 0.0
C1177 C 0.43553 0.63351 0.52657 0.0
H1178 H 0.42367 0.63079 0.55895 0.0
C1179 C 0.46966 0.69099 0.52485 0.0
C1180 C 0.48715 0.72721 0.53537 0.0
H1181 H 0.42118 0.60697 0.51824 0.0
H1182 H 0.48116 0.70712 0.51525 0.0
C1183 C 0.47191 0.70439 0.54768 0.0
C1184 C 0.34857 0.82043 0.52727 0.0
C1185 C 0.36569 0.82835 0.54006 0.0
H1186 H 0.27981 0.78694 0.51434 0.0
C1187 C 0.3256 0.81484 0.54971 0.0
H1188 H 0.37845 0.8304 0.5196 0.0
C1189 C 0.26913 0.7908 0.54667 0.0
C1190 C 0.25145 0.77829 0.53395 0.0
H1191 H 0.33765 0.82115 0.55964 0.0
H1192 H 0.2393 0.78018 0.55436 0.0
C1193 C 0.29194 0.79525 0.52424 0.0
C1194 C 0.20548 0.52514 0.26349 0.0
C1195 C 0.2311 0.5132 0.27342 0.0
H1196 H 0.16033 0.56439 0.25795 0.0
C1197 C 0.2278 0.52992 0.28588 0.0
H1198 H 0.20707 0.51221 0.25382 0.0
C1199 C 0.20278 0.56164 0.28819 0.0
C1200 C 0.17979 0.57625 0.27811 0.0
H1201 H 0.24754 0.52148 0.29371 0.0
H1202 H 0.20316 0.57626 0.29778 0.0
C1203 C 0.17926 0.55559 0.26585 0.0
C1204 C 0.48855 0.65845 0.26204 0.0
C1205 C 0.49887 0.6977 0.2716 0.0
H1206 H 0.45597 0.57294 0.25741 0.0
C1207 C 0.48491 0.67975 0.28428 0.0
H1208 H 0.50001 0.67144 0.25222 0.0
C1209 C 0.45782 0.62288 0.28722 0.0
C1210 C 0.44532 0.58328 0.27755 0.0
H1211 H 0.49269 0.70937 0.29183 0.0
H1212 H 0.44519 0.60992 0.29699 0.0
C1213 C 0.46298 0.60195 0.26502 0.0
C1214 C 0.40598 0.84989 0.28142 0.0
C1215 C 0.44255 0.85486 0.27151 0.0
H1216 H 0.32138 0.8169 0.28753 0.0
C1217 C 0.42055 0.83496 0.25936 0.0
H1218 H 0.42171 0.86551 0.29087 0.0
C1219 C 0.36266 0.80655 0.25745 0.0
C1220 C 0.32578 0.79822 0.26761 0.0
H1221 H 0.44755 0.83859 0.2515 0.0
H1222 H 0.34673 0.78898 0.24814 0.0
C1223 C 0.34834 0.82223 0.27949 0.0
loop_
_geom_bond_atom_site_label_1
_geom_bond_atom_site_label_2
_geom_bond_distance
_geom_bond_site_symmetry_2
_ccdc_geom_bond_type
Mg0 O1 2.028 . S
Mg0 O7 1.986 . S
Mg0 O9 2.114 1_545 S
Mg0 O10 2.251 1_545 S
Mg0 O13 2.010 . S
O1 Mg0 2.028 . S
O1 C4 1.250 . S
O2 Mg3 2.028 . S
O2 C4 1.248 . S
Mg3 O2 2.028 . S
Mg3 O8 2.032 . S
Mg3 O10 2.079 1_545 S
C4 O1 1.250 . S
C4 O2 1.248 . S
C5 O6 1.264 . S
C5 O13 1.249 . S
O6 C5 1.264 . S
O7 Mg0 1.986 . S
O7 C11 1.246 . S
O8 Mg3 2.032 . S
O8 C11 1.259 . S
O9 Mg0 2.114 1_565 S
O9 C12 1.252 . S
O10 Mg0 2.251 1_565 S
O10 Mg3 2.079 1_565 S
O10 C12 1.273 . S
C11 O7 1.246 . S
C11 O8 1.259 . S
C12 O9 1.252 . S
C12 O10 1.273 . S
O13 Mg0 2.010 . S
O13 C5 1.249 . S
Mg14 O15 2.028 . S
Mg14 O21 1.986 . S
Mg14 O23 2.114 1_655 S
Mg14 O24 2.251 1_655 S
Mg14 O27 2.010 . S
O15 Mg14 2.028 . S
O15 C18 1.250 . S
O16 Mg17 2.028 . S
O16 C18 1.248 . S
Mg17 O16 2.028 . S
Mg17 O22 2.032 . S
Mg17 O24 2.079 1_655 S
C18 O15 1.250 . S
C18 O16 1.248 . S
C19 O20 1.264 . S
C19 O27 1.249 . S
O20 C19 1.264 . S
O21 Mg14 1.986 . S
O21 C25 1.246 . S
O22 Mg17 2.032 . S
O22 C25 1.259 . S
O23 Mg14 2.114 1_455 S
O23 C26 1.252 . S
O24 Mg14 2.251 1_455 S
O24 Mg17 2.079 1_455 S
O24 C26 1.273 . S
C25 O21 1.246 . S
C25 O22 1.259 . S
C26 O23 1.252 . S
C26 O24 1.273 . S
O27 Mg14 2.010 . S
O27 C19 1.249 . S
Mg28 O29 2.028 . S
Mg28 O35 1.986 . S
Mg28 O37 2.114 . S
Mg28 O38 2.251 . S
Mg28 O41 2.010 . S
O29 Mg28 2.028 . S
O29 C32 1.250 . S
O30 Mg31 2.028 . S
O30 C32 1.248 . S
Mg31 O30 2.028 . S
Mg31 O36 2.032 . S
Mg31 O38 2.079 . S
C32 O29 1.250 . S
C32 O30 1.248 . S
C33 O34 1.264 . S
C33 O41 1.249 . S
O34 C33 1.264 . S
O35 Mg28 1.986 . S
O35 C39 1.246 . S
O36 Mg31 2.032 . S
O36 C39 1.259 . S
O37 Mg28 2.114 . S
O37 C40 1.252 . S
O38 Mg28 2.251 . S
O38 Mg31 2.079 . S
O38 C40 1.273 . S
C39 O35 1.246 . S
C39 O36 1.259 . S
C40 O37 1.252 . S
C40 O38 1.273 . S
O41 Mg28 2.010 . S
O41 C33 1.249 . S
Mg42 O43 2.028 . S
Mg42 O49 1.986 . S
Mg42 O51 2.114 1_455 S
Mg42 O52 2.251 1_455 S
Mg42 O55 2.010 . S
O43 Mg42 2.028 . S
O43 C46 1.250 . S
O44 Mg45 2.028 . S
O44 C46 1.248 . S
Mg45 O44 2.028 . S
Mg45 O50 2.032 . S
Mg45 O52 2.079 1_455 S
C46 O43 1.250 . S
C46 O44 1.248 . S
C47 O48 1.264 . S
C47 O55 1.249 . S
O48 C47 1.264 . S
O49 Mg42 1.986 . S
O49 C53 1.246 . S
O50 Mg45 2.032 . S
O50 C53 1.259 . S
O51 Mg42 2.114 1_655 S
O51 C54 1.252 . S
O52 Mg42 2.251 1_655 S
O52 Mg45 2.079 1_655 S
O52 C54 1.273 . S
C53 O49 1.246 . S
C53 O50 1.259 . S
C54 O51 1.252 . S
C54 O52 1.273 . S
O55 Mg42 2.010 . S
O55 C47 1.249 . S
Mg56 O57 2.028 . S
Mg56 O63 1.986 . S
Mg56 O65 2.114 . S
Mg56 O66 2.251 . S
Mg56 O69 2.010 . S
O57 Mg56 2.028 . S
O57 C60 1.250 . S
O58 Mg59 2.028 . S
O58 C60 1.248 . S
Mg59 O58 2.028 . S
Mg59 O64 2.032 . S
Mg59 O66 2.079 . S
C60 O57 1.250 . S
C60 O58 1.248 . S
C61 O62 1.264 . S
C61 O69 1.249 . S
O62 C61 1.264 . S
O63 Mg56 1.986 . S
O63 C67 1.246 . S
O64 Mg59 2.032 . S
O64 C67 1.259 . S
O65 Mg56 2.114 . S
O65 C68 1.252 . S
O66 Mg56 2.251 . S
O66 Mg59 2.079 . S
O66 C68 1.273 . S
C67 O63 1.246 . S
C67 O64 1.259 . S
C68 O65 1.252 . S
C68 O66 1.273 . S
O69 Mg56 2.010 . S
O69 C61 1.249 . S
Mg70 O71 2.028 . S
Mg70 O77 1.986 . S
Mg70 O79 2.114 1_565 S
Mg70 O80 2.251 1_565 S
Mg70 O83 2.010 . S
O71 Mg70 2.028 . S
O71 C74 1.250 . S
O72 Mg73 2.028 . S
O72 C74 1.248 . S
Mg73 O72 2.028 . S
Mg73 O78 2.032 . S
Mg73 O80 2.079 1_565 S
C74 O71 1.250 . S
C74 O72 1.248 . S
C75 O76 1.264 . S
C75 O83 1.249 . S
O76 C75 1.264 . S
O77 Mg70 1.986 . S
O77 C81 1.246 . S
O78 Mg73 2.032 . S
O78 C81 1.259 . S
O79 Mg70 2.114 1_545 S
O79 C82 1.252 . S
O80 Mg70 2.251 1_545 S
O80 Mg73 2.079 1_545 S
O80 C82 1.273 . S
C81 O77 1.246 . S
C81 O78 1.259 . S
C82 O79 1.252 . S
C82 O80 1.273 . S
O83 Mg70 2.010 . S
O83 C75 1.249 . S
Mg84 O85 2.028 . S
Mg84 O91 1.986 . S
Mg84 O93 2.114 1_565 S
Mg84 O94 2.251 1_565 S
Mg84 O97 2.010 . S
O85 Mg84 2.028 . S
O85 C88 1.250 . S
O86 Mg87 2.028 . S
O86 C88 1.248 . S
Mg87 O86 2.028 . S
Mg87 O92 2.032 . S
Mg87 O94 2.079 1_565 S
C88 O85 1.250 . S
C88 O86 1.248 . S
C89 O90 1.264 . S
C89 O97 1.249 . S
O90 C89 1.264 . S
O91 Mg84 1.986 . S
O91 C95 1.246 . S
O92 Mg87 2.032 . S
O92 C95 1.259 . S
O93 Mg84 2.114 1_545 S
O93 C96 1.252 . S
O94 Mg84 2.251 1_545 S
O94 Mg87 2.079 1_545 S
O94 C96 1.273 . S
C95 O91 1.246 . S
C95 O92 1.259 . S
C96 O93 1.252 . S
C96 O94 1.273 . S
O97 Mg84 2.010 . S
O97 C89 1.249 . S
Mg98 O99 2.028 . S
Mg98 O105 1.986 . S
Mg98 O107 2.114 1_455 S
Mg98 O108 2.251 1_455 S
Mg98 O111 2.010 . S
O99 Mg98 2.028 . S
O99 C102 1.250 . S
O100 Mg101 2.028 . S
O100 C102 1.248 . S
Mg101 O100 2.028 . S
Mg101 O106 2.032 . S
Mg101 O108 2.079 1_455 S
C102 O99 1.250 . S
C102 O100 1.248 . S
C103 O104 1.264 . S
C103 O111 1.249 . S
O104 C103 1.264 . S
O105 Mg98 1.986 . S
O105 C109 1.246 . S
O106 Mg101 2.032 . S
O106 C109 1.259 . S
O107 Mg98 2.114 1_655 S
O107 C110 1.252 . S
O108 Mg98 2.251 1_655 S
O108 Mg101 2.079 1_655 S
O108 C110 1.273 . S
C109 O105 1.246 . S
C109 O106 1.259 . S
C110 O107 1.252 . S
C110 O108 1.273 . S
O111 Mg98 2.010 . S
O111 C103 1.249 . S
Mg112 O113 2.028 . S
Mg112 O119 1.986 . S
Mg112 O121 2.114 . S
Mg112 O122 2.251 . S
Mg112 O125 2.010 . S
O113 Mg112 2.028 . S
O113 C116 1.250 . S
O114 Mg115 2.028 . S
O114 C116 1.248 . S
Mg115 O114 2.028 . S
Mg115 O120 2.032 . S
Mg115 O122 2.079 . S
C116 O113 1.250 . S
C116 O114 1.248 . S
C117 O118 1.264 . S
C117 O125 1.249 . S
O118 C117 1.264 . S
O119 Mg112 1.986 . S
O119 C123 1.246 . S
O120 Mg115 2.032 . S
O120 C123 1.259 . S
O121 Mg112 2.114 . S
O121 C124 1.252 . S
O122 Mg112 2.251 . S
O122 Mg115 2.079 . S
O122 C124 1.273 . S
C123 O119 1.246 . S
C123 O120 1.259 . S
C124 O121 1.252 . S
C124 O122 1.273 . S
O125 Mg112 2.010 . S
O125 C117 1.249 . S
Mg126 O127 2.028 . S
Mg126 O133 1.986 . S
Mg126 O135 2.114 1_655 S
Mg126 O136 2.251 1_655 S
Mg126 O139 2.010 . S
O127 Mg126 2.028 . S
O127 C130 1.250 . S
O128 Mg129 2.028 . S
O128 C130 1.248 . S
Mg129 O128 2.028 . S
Mg129 O134 2.032 . S
Mg129 O136 2.079 1_655 S
C130 O127 1.250 . S
C130 O128 1.248 . S
C131 O132 1.264 . S
C131 O139 1.249 . S
O132 C131 1.264 . S
O133 Mg126 1.986 . S
O133 C137 1.246 . S
O134 Mg129 2.032 . S
O134 C137 1.259 . S
O135 Mg126 2.114 1_455 S
O135 C138 1.252 . S
O136 Mg126 2.251 1_455 S
O136 Mg129 2.079 1_455 S
O136 C138 1.273 . S
C137 O133 1.246 . S
C137 O134 1.259 . S
C138 O135 1.252 . S
C138 O136 1.273 . S
O139 Mg126 2.010 . S
O139 C131 1.249 . S
Mg140 O141 2.028 . S
Mg140 O147 1.986 . S
Mg140 O149 2.114 . S
Mg140 O150 2.251 . S
Mg140 O153 2.010 . S
O141 Mg140 2.028 . S
O141 C144 1.250 . S
O142 Mg143 2.028 . S
O142 C144 1.248 . S
Mg143 O142 2.028 . S
Mg143 O148 2.032 . S
Mg143 O150 2.079 . S
C144 O141 1.250 . S
C144 O142 1.248 . S
C145 O146 1.264 . S
C145 O153 1.249 . S
O146 C145 1.264 . S
O147 Mg140 1.986 . S
O147 C151 1.246 . S
O148 Mg143 2.032 . S
O148 C151 1.259 . S
O149 Mg140 2.114 . S
O149 C152 1.252 . S
O150 Mg140 2.251 . S
O150 Mg143 2.079 . S
O150 C152 1.273 . S
C151 O147 1.246 . S
C151 O148 1.259 . S
C152 O149 1.252 . S
C152 O150 1.273 . S
O153 Mg140 2.010 . S
O153 C145 1.249 . S
Mg154 O155 2.028 . S
Mg154 O161 1.986 . S
Mg154 O163 2.114 1_545 S
Mg154 O164 2.251 1_545 S
Mg154 O167 2.010 . S
O155 Mg154 2.028 . S
O155 C158 1.250 . S
O156 Mg157 2.028 . S
O156 C158 1.248 . S
Mg157 O156 2.028 . S
Mg157 O162 2.032 . S
Mg157 O164 2.079 1_545 S
C158 O155 1.250 . S
C158 O156 1.248 . S
C159 O160 1.264 . S
C159 O167 1.249 . S
O160 C159 1.264 . S
O161 Mg154 1.986 . S
O161 C165 1.246 . S
O162 Mg157 2.032 . S
O162 C165 1.259 . S
O163 Mg154 2.114 1_565 S
O163 C166 1.252 . S
O164 Mg154 2.251 1_565 S
O164 Mg157 2.079 1_565 S
O164 C166 1.273 . S
C165 O161 1.246 . S
C165 O162 1.259 . S
C166 O163 1.252 . S
C166 O164 1.273 . S
O167 Mg154 2.010 . S
O167 C159 1.249 . S
Mg168 O169 2.028 . S
Mg168 O175 1.986 . S
Mg168 O177 2.114 . S
Mg168 O178 2.251 . S
Mg168 O181 2.010 . S
O169 Mg168 2.028 . S
O169 C172 1.250 . S
O170 Mg171 2.028 . S
O170 C172 1.248 . S
Mg171 O170 2.028 . S
Mg171 O176 2.032 . S
Mg171 O178 2.079 . S
C172 O169 1.250 . S
C172 O170 1.248 . S
C173 O174 1.264 . S
C173 O181 1.249 . S
O174 C173 1.264 . S
O175 Mg168 1.986 . S
O175 C179 1.246 . S
O176 Mg171 2.032 . S
O176 C179 1.259 . S
O177 Mg168 2.114 . S
O177 C180 1.252 . S
O178 Mg168 2.251 . S
O178 Mg171 2.079 . S
O178 C180 1.273 . S
C179 O175 1.246 . S
C179 O176 1.259 . S
C180 O177 1.252 . S
C180 O178 1.273 . S
O181 Mg168 2.010 . S
O181 C173 1.249 . S
Mg182 O183 2.028 . S
Mg182 O189 1.986 . S
Mg182 O191 2.114 . S
Mg182 O192 2.251 . S
Mg182 O195 2.010 . S
O183 Mg182 2.028 . S
O183 C186 1.250 . S
O184 Mg185 2.028 . S
O184 C186 1.248 . S
Mg185 O184 2.028 . S
Mg185 O190 2.032 . S
Mg185 O192 2.079 . S
C186 O183 1.250 . S
C186 O184 1.248 . S
C187 O188 1.264 . S
C187 O195 1.249 . S
O188 C187 1.264 . S
O189 Mg182 1.986 . S
O189 C193 1.246 . S
O190 Mg185 2.032 . S
O190 C193 1.259 . S
O191 Mg182 2.114 . S
O191 C194 1.252 . S
O192 Mg182 2.251 . S
O192 Mg185 2.079 . S
O192 C194 1.273 . S
C193 O189 1.246 . S
C193 O190 1.259 . S
C194 O191 1.252 . S
C194 O192 1.273 . S
O195 Mg182 2.010 . S
O195 C187 1.249 . S
Mg196 O197 2.028 . S
Mg196 O203 1.986 . S
Mg196 O205 2.114 . S
Mg196 O206 2.251 . S
Mg196 O209 2.010 . S
O197 Mg196 2.028 . S
O197 C200 1.250 . S
O198 Mg199 2.028 . S
O198 C200 1.248 . S
Mg199 O198 2.028 . S
Mg199 O204 2.032 . S
Mg199 O206 2.079 . S
C200 O197 1.250 . S
C200 O198 1.248 . S
C201 O202 1.264 . S
C201 O209 1.249 . S
O202 C201 1.264 . S
O203 Mg196 1.986 . S
O203 C207 1.246 . S
O204 Mg199 2.032 . S
O204 C207 1.259 . S
O205 Mg196 2.114 . S
O205 C208 1.252 . S
O206 Mg196 2.251 . S
O206 Mg199 2.079 . S
O206 C208 1.273 . S
C207 O203 1.246 . S
C207 O204 1.259 . S
C208 O205 1.252 . S
C208 O206 1.273 . S
O209 Mg196 2.010 . S
O209 C201 1.249 . S
Mg210 O211 2.028 . S
Mg210 O217 1.986 . S
Mg210 O219 2.114 . S
Mg210 O220 2.251 . S
Mg210 O223 2.010 . S
O211 Mg210 2.028 . S
O211 C214 1.250 . S
O212 Mg213 2.028 . S
O212 C214 1.248 . S
Mg213 O212 2.028 . S
Mg213 O218 2.032 . S
Mg213 O220 2.079 . S
C214 O211 1.250 . S
C214 O212 1.248 . S
C215 O216 1.264 . S
C215 O223 1.249 . S
O216 C215 1.264 . S
O217 Mg210 1.986 . S
O217 C221 1.246 . S
O218 Mg213 2.032 . S
O218 C221 1.259 . S
O219 Mg210 2.114 . S
O219 C222 1.252 . S
O220 Mg210 2.251 . S
O220 Mg213 2.079 . S
O220 C222 1.273 . S
C221 O217 1.246 . S
C221 O218 1.259 . S
C222 O219 1.252 . S
C222 O220 1.273 . S
O223 Mg210 2.010 . S
O223 C215 1.249 . S
Mg224 O225 2.028 . S
Mg224 O231 1.986 . S
Mg224 O233 2.114 . S
Mg224 O234 2.251 . S
Mg224 O237 2.010 . S
O225 Mg224 2.028 . S
O225 C228 1.250 . S
O226 Mg227 2.028 . S
O226 C228 1.248 . S
Mg227 O226 2.028 . S
Mg227 O232 2.032 . S
Mg227 O234 2.079 . S
C228 O225 1.250 . S
C228 O226 1.248 . S
C229 O230 1.264 . S
C229 O237 1.249 . S
O230 C229 1.264 . S
O231 Mg224 1.986 . S
O231 C235 1.246 . S
O232 Mg227 2.032 . S
O232 C235 1.259 . S
O233 Mg224 2.114 . S
O233 C236 1.252 . S
O234 Mg224 2.251 . S
O234 Mg227 2.079 . S
O234 C236 1.273 . S
C235 O231 1.246 . S
C235 O232 1.259 . S
C236 O233 1.252 . S
C236 O234 1.273 . S
O237 Mg224 2.010 . S
O237 C229 1.249 . S
Mg238 O239 2.028 . S
Mg238 O245 1.986 . S
Mg238 O247 2.114 . S
Mg238 O248 2.251 . S
Mg238 O251 2.010 . S
O239 Mg238 2.028 . S
O239 C242 1.250 . S
O240 Mg241 2.028 . S
O240 C242 1.248 . S
Mg241 O240 2.028 . S
Mg241 O246 2.032 . S
Mg241 O248 2.079 . S
C242 O239 1.250 . S
C242 O240 1.248 . S
C243 O244 1.264 . S
C243 O251 1.249 . S
O244 C243 1.264 . S
O245 Mg238 1.986 . S
O245 C249 1.246 . S
O246 Mg241 2.032 . S
O246 C249 1.259 . S
O247 Mg238 2.114 . S
O247 C250 1.252 . S
O248 Mg238 2.251 . S
O248 Mg241 2.079 . S
O248 C250 1.273 . S
C249 O245 1.246 . S
C249 O246 1.259 . S
C250 O247 1.252 . S
C250 O248 1.273 . S
O251 Mg238 2.010 . S
O251 C243 1.249 . S
Mg252 O253 2.028 . S
Mg252 O259 1.986 . S
Mg252 O261 2.114 . S
Mg252 O262 2.251 . S
Mg252 O265 2.010 . S
O253 Mg252 2.028 . S
O253 C256 1.250 . S
O254 Mg255 2.028 . S
O254 C256 1.248 . S
Mg255 O254 2.028 . S
Mg255 O260 2.032 . S
Mg255 O262 2.079 . S
C256 O253 1.250 . S
C256 O254 1.248 . S
C257 O258 1.264 . S
C257 O265 1.249 . S
O258 C257 1.264 . S
O259 Mg252 1.986 . S
O259 C263 1.246 . S
O260 Mg255 2.032 . S
O260 C263 1.259 . S
O261 Mg252 2.114 . S
O261 C264 1.252 . S
O262 Mg252 2.251 . S
O262 Mg255 2.079 . S
O262 C264 1.273 . S
C263 O259 1.246 . S
C263 O260 1.259 . S
C264 O261 1.252 . S
C264 O262 1.273 . S
O265 Mg252 2.010 . S
O265 C257 1.249 . S
Mg266 O267 2.028 . S
Mg266 O273 1.986 . S
Mg266 O275 2.114 . S
Mg266 O276 2.251 . S
Mg266 O279 2.010 . S
O267 Mg266 2.028 . S
O267 C270 1.250 . S
O268 Mg269 2.028 . S
O268 C270 1.248 . S
Mg269 O268 2.028 . S
Mg269 O274 2.032 . S
Mg269 O276 2.079 . S
C270 O267 1.250 . S
C270 O268 1.248 . S
C271 O272 1.264 . S
C271 O279 1.249 . S
O272 C271 1.264 . S
O273 Mg266 1.986 . S
O273 C277 1.246 . S
O274 Mg269 2.032 . S
O274 C277 1.259 . S
O275 Mg266 2.114 . S
O275 C278 1.252 . S
O276 Mg266 2.251 . S
O276 Mg269 2.079 . S
O276 C278 1.273 . S
C277 O273 1.246 . S
C277 O274 1.259 . S
C278 O275 1.252 . S
C278 O276 1.273 . S
O279 Mg266 2.010 . S
O279 C271 1.249 . S
Mg280 O281 2.028 . S
Mg280 O287 1.986 . S
Mg280 O289 2.114 . S
Mg280 O290 2.251 . S
Mg280 O293 2.010 . S
O281 Mg280 2.028 . S
O281 C284 1.250 . S
O282 Mg283 2.028 . S
O282 C284 1.248 . S
Mg283 O282 2.028 . S
Mg283 O288 2.032 . S
Mg283 O290 2.079 . S
C284 O281 1.250 . S
C284 O282 1.248 . S
C285 O286 1.264 . S
C285 O293 1.249 . S
O286 C285 1.264 . S
O287 Mg280 1.986 . S
O287 C291 1.246 . S
O288 Mg283 2.032 . S
O288 C291 1.259 . S
O289 Mg280 2.114 . S
O289 C292 1.252 . S
O290 Mg280 2.251 . S
O290 Mg283 2.079 . S
O290 C292 1.273 . S
C291 O287 1.246 . S
C291 O288 1.259 . S
C292 O289 1.252 . S
C292 O290 1.273 . S
O293 Mg280 2.010 . S
O293 C285 1.249 . S
Mg294 O295 2.028 . S
Mg294 O301 1.986 . S
Mg294 O303 2.114 . S
Mg294 O304 2.251 . S
Mg294 O307 2.010 . S
O295 Mg294 2.028 . S
O295 C298 1.250 . S
O296 Mg297 2.028 . S
O296 C298 1.248 . S
Mg297 O296 2.028 . S
Mg297 O302 2.032 . S
Mg297 O304 2.079 . S
C298 O295 1.250 . S
C298 O296 1.248 . S
C299 O300 1.264 . S
C299 O307 1.249 . S
O300 C299 1.264 . S
O301 Mg294 1.986 . S
O301 C305 1.246 . S
O302 Mg297 2.032 . S
O302 C305 1.259 . S
O303 Mg294 2.114 . S
O303 C306 1.252 . S
O304 Mg294 2.251 . S
O304 Mg297 2.079 . S
O304 C306 1.273 . S
C305 O301 1.246 . S
C305 O302 1.259 . S
C306 O303 1.252 . S
C306 O304 1.273 . S
O307 Mg294 2.010 . S
O307 C299 1.249 . S
Mg308 O309 2.028 . S
Mg308 O315 1.986 . S
Mg308 O317 2.114 . S
Mg308 O318 2.251 . S
Mg308 O321 2.010 . S
O309 Mg308 2.028 . S
O309 C312 1.250 . S
O310 Mg311 2.028 . S
O310 C312 1.248 . S
Mg311 O310 2.028 . S
Mg311 O316 2.032 . S
Mg311 O318 2.079 . S
C312 O309 1.250 . S
C312 O310 1.248 . S
C313 O314 1.264 . S
C313 O321 1.249 . S
O314 C313 1.264 . S
O315 Mg308 1.986 . S
O315 C319 1.246 . S
O316 Mg311 2.032 . S
O316 C319 1.259 . S
O317 Mg308 2.114 . S
O317 C320 1.252 . S
O318 Mg308 2.251 . S
O318 Mg311 2.079 . S
O318 C320 1.273 . S
C319 O315 1.246 . S
C319 O316 1.259 . S
C320 O317 1.252 . S
C320 O318 1.273 . S
O321 Mg308 2.010 . S
O321 C313 1.249 . S
Mg322 O323 2.028 . S
Mg322 O329 1.986 . S
Mg322 O331 2.114 . S
Mg322 O332 2.251 . S
Mg322 O335 2.010 . S
O323 Mg322 2.028 . S
O323 C326 1.250 . S
O324 Mg325 2.028 . S
O324 C326 1.248 . S
Mg325 O324 2.028 . S
Mg325 O330 2.032 . S
Mg325 O332 2.079 . S
C326 O323 1.250 . S
C326 O324 1.248 . S
C327 O328 1.264 . S
C327 O335 1.249 . S
O328 C327 1.264 . S
O329 Mg322 1.986 . S
O329 C333 1.246 . S
O330 Mg325 2.032 . S
O330 C333 1.259 . S
O331 Mg322 2.114 . S
O331 C334 1.252 . S
O332 Mg322 2.251 . S
O332 Mg325 2.079 . S
O332 C334 1.273 . S
C333 O329 1.246 . S
C333 O330 1.259 . S
C334 O331 1.252 . S
C334 O332 1.273 . S
O335 Mg322 2.010 . S
O335 C327 1.249 . S
Mg336 O337 2.028 . S
Mg336 O343 1.986 . S
Mg336 O345 2.114 . S
Mg336 O346 2.251 . S
Mg336 O349 2.010 . S
O337 Mg336 2.028 . S
O337 C340 1.250 . S
O338 Mg339 2.028 . S
O338 C340 1.248 . S
Mg339 O338 2.028 . S
Mg339 O344 2.032 . S
Mg339 O346 2.079 . S
C340 O337 1.250 . S
C340 O338 1.248 . S
C341 O342 1.264 . S
C341 O349 1.249 . S
O342 C341 1.264 . S
O343 Mg336 1.986 . S
O343 C347 1.246 . S
O344 Mg339 2.032 . S
O344 C347 1.259 . S
O345 Mg336 2.114 . S
O345 C348 1.252 . S
O346 Mg336 2.251 . S
O346 Mg339 2.079 . S
O346 C348 1.273 . S
C347 O343 1.246 . S
C347 O344 1.259 . S
C348 O345 1.252 . S
C348 O346 1.273 . S
O349 Mg336 2.010 . S
O349 C341 1.249 . S
Mg350 O351 2.028 . S
Mg350 O357 1.986 . S
Mg350 O359 2.114 . S
Mg350 O360 2.251 . S
Mg350 O363 2.010 . S
O351 Mg350 2.028 . S
O351 C354 1.250 . S
O352 Mg353 2.028 . S
O352 C354 1.248 . S
Mg353 O352 2.028 . S
Mg353 O358 2.032 . S
Mg353 O360 2.079 . S
C354 O351 1.250 . S
C354 O352 1.248 . S
C355 O356 1.264 . S
C355 O363 1.249 . S
O356 C355 1.264 . S
O357 Mg350 1.986 . S
O357 C361 1.246 . S
O358 Mg353 2.032 . S
O358 C361 1.259 . S
O359 Mg350 2.114 . S
O359 C362 1.252 . S
O360 Mg350 2.251 . S
O360 Mg353 2.079 . S
O360 C362 1.273 . S
C361 O357 1.246 . S
C361 O358 1.259 . S
C362 O359 1.252 . S
C362 O360 1.273 . S
O363 Mg350 2.010 . S
O363 C355 1.249 . S
Mg364 O365 2.028 . S
Mg364 O371 1.986 . S
Mg364 O373 2.114 . S
Mg364 O374 2.251 . S
Mg364 O377 2.010 . S
O365 Mg364 2.028 . S
O365 C368 1.250 . S
O366 Mg367 2.028 . S
O366 C368 1.248 . S
Mg367 O366 2.028 . S
Mg367 O372 2.032 . S
Mg367 O374 2.079 . S
C368 O365 1.250 . S
C368 O366 1.248 . S
C369 O370 1.264 . S
C369 O377 1.249 . S
O370 C369 1.264 . S
O371 Mg364 1.986 . S
O371 C375 1.246 . S
O372 Mg367 2.032 . S
O372 C375 1.259 . S
O373 Mg364 2.114 . S
O373 C376 1.252 . S
O374 Mg364 2.251 . S
O374 Mg367 2.079 . S
O374 C376 1.273 . S
C375 O371 1.246 . S
C375 O372 1.259 . S
C376 O373 1.252 . S
C376 O374 1.273 . S
O377 Mg364 2.010 . S
O377 C369 1.249 . S
Mg378 O379 2.028 . S
Mg378 O385 1.986 . S
Mg378 O387 2.114 . S
Mg378 O388 2.251 . S
Mg378 O391 2.010 . S
O379 Mg378 2.028 . S
O379 C382 1.250 . S
O380 Mg381 2.028 . S
O380 C382 1.248 . S
Mg381 O380 2.028 . S
Mg381 O386 2.032 . S
Mg381 O388 2.079 . S
C382 O379 1.250 . S
C382 O380 1.248 . S
C383 O384 1.264 . S
C383 O391 1.249 . S
O384 C383 1.264 . S
O385 Mg378 1.986 . S
O385 C389 1.246 . S
O386 Mg381 2.032 . S
O386 C389 1.259 . S
O387 Mg378 2.114 . S
O387 C390 1.252 . S
O388 Mg378 2.251 . S
O388 Mg381 2.079 . S
O388 C390 1.273 . S
C389 O385 1.246 . S
C389 O386 1.259 . S
C390 O387 1.252 . S
C390 O388 1.273 . S
O391 Mg378 2.010 . S
O391 C383 1.249 . S
Mg392 O393 2.028 . S
Mg392 O399 1.986 . S
Mg392 O401 2.114 . S
Mg392 O402 2.251 . S
Mg392 O405 2.010 . S
O393 Mg392 2.028 . S
O393 C396 1.250 . S
O394 Mg395 2.028 . S
O394 C396 1.248 . S
Mg395 O394 2.028 . S
Mg395 O400 2.032 . S
Mg395 O402 2.079 . S
C396 O393 1.250 . S
C396 O394 1.248 . S
C397 O398 1.264 . S
C397 O405 1.249 . S
O398 C397 1.264 . S
O399 Mg392 1.986 . S
O399 C403 1.246 . S
O400 Mg395 2.032 . S
O400 C403 1.259 . S
O401 Mg392 2.114 . S
O401 C404 1.252 . S
O402 Mg392 2.251 . S
O402 Mg395 2.079 . S
O402 C404 1.273 . S
C403 O399 1.246 . S
C403 O400 1.259 . S
C404 O401 1.252 . S
C404 O402 1.273 . S
O405 Mg392 2.010 . S
O405 C397 1.249 . S
Mg406 O407 2.028 . S
Mg406 O413 1.986 . S
Mg406 O415 2.114 . S
Mg406 O416 2.251 . S
Mg406 O419 2.010 . S
O407 Mg406 2.028 . S
O407 C410 1.250 . S
O408 Mg409 2.028 . S
O408 C410 1.248 . S
Mg409 O408 2.028 . S
Mg409 O414 2.032 . S
Mg409 O416 2.079 . S
C410 O407 1.250 . S
C410 O408 1.248 . S
C411 O412 1.264 . S
C411 O419 1.249 . S
O412 C411 1.264 . S
O413 Mg406 1.986 . S
O413 C417 1.246 . S
O414 Mg409 2.032 . S
O414 C417 1.259 . S
O415 Mg406 2.114 . S
O415 C418 1.252 . S
O416 Mg406 2.251 . S
O416 Mg409 2.079 . S
O416 C418 1.273 . S
C417 O413 1.246 . S
C417 O414 1.259 . S
C418 O415 1.252 . S
C418 O416 1.273 . S
O419 Mg406 2.010 . S
O419 C411 1.249 . S
Mg420 O421 2.028 . S
Mg420 O427 1.986 . S
Mg420 O429 2.114 . S
Mg420 O430 2.251 . S
Mg420 O433 2.010 . S
O421 Mg420 2.028 . S
O421 C424 1.250 . S
O422 Mg423 2.028 . S
O422 C424 1.248 . S
Mg423 O422 2.028 . S
Mg423 O428 2.032 . S
Mg423 O430 2.079 . S
C424 O421 1.250 . S
C424 O422 1.248 . S
C425 O426 1.264 . S
C425 O433 1.249 . S
O426 C425 1.264 . S
O427 Mg420 1.986 . S
O427 C431 1.246 . S
O428 Mg423 2.032 . S
O428 C431 1.259 . S
O429 Mg420 2.114 . S
O429 C432 1.252 . S
O430 Mg420 2.251 . S
O430 Mg423 2.079 . S
O430 C432 1.273 . S
C431 O427 1.246 . S
C431 O428 1.259 . S
C432 O429 1.252 . S
C432 O430 1.273 . S
O433 Mg420 2.010 . S
O433 C425 1.249 . S
Mg434 O435 2.028 . S
Mg434 O441 1.986 . S
Mg434 O443 2.114 . S
Mg434 O444 2.251 . S
Mg434 O447 2.010 . S
O435 Mg434 2.028 . S
O435 C438 1.250 . S
O436 Mg437 2.028 . S
O436 C438 1.248 . S
Mg437 O436 2.028 . S
Mg437 O442 2.032 . S
Mg437 O444 2.079 . S
C438 O435 1.250 . S
C438 O436 1.248 . S
C439 O440 1.264 . S
C439 O447 1.249 . S
O440 C439 1.264 . S
O441 Mg434 1.986 . S
O441 C445 1.246 . S
O442 Mg437 2.032 . S
O442 C445 1.259 . S
O443 Mg434 2.114 . S
O443 C446 1.252 . S
O444 Mg434 2.251 . S
O444 Mg437 2.079 . S
O444 C446 1.273 . S
C445 O441 1.246 . S
C445 O442 1.259 . S
C446 O443 1.252 . S
C446 O444 1.273 . S
O447 Mg434 2.010 . S
O447 C439 1.249 . S
Mg448 O449 2.028 . S
Mg448 O455 1.986 . S
Mg448 O457 2.114 . S
Mg448 O458 2.251 . S
Mg448 O461 2.010 . S
O449 Mg448 2.028 . S
O449 C452 1.250 . S
O450 Mg451 2.028 . S
O450 C452 1.248 . S
Mg451 O450 2.028 . S
Mg451 O456 2.032 . S
Mg451 O458 2.079 . S
C452 O449 1.250 . S
C452 O450 1.248 . S
C453 O454 1.264 . S
C453 O461 1.249 . S
O454 C453 1.264 . S
O455 Mg448 1.986 . S
O455 C459 1.246 . S
O456 Mg451 2.032 . S
O456 C459 1.259 . S
O457 Mg448 2.114 . S
O457 C460 1.252 . S
O458 Mg448 2.251 . S
O458 Mg451 2.079 . S
O458 C460 1.273 . S
C459 O455 1.246 . S
C459 O456 1.259 . S
C460 O457 1.252 . S
C460 O458 1.273 . S
O461 Mg448 2.010 . S
O461 C453 1.249 . S
Mg462 O463 2.028 . S
Mg462 O469 1.986 . S
Mg462 O471 2.114 . S
Mg462 O472 2.251 . S
Mg462 O475 2.010 . S
O463 Mg462 2.028 . S
O463 C466 1.250 . S
O464 Mg465 2.028 . S
O464 C466 1.248 . S
Mg465 O464 2.028 . S
Mg465 O470 2.032 . S
Mg465 O472 2.079 . S
C466 O463 1.250 . S
C466 O464 1.248 . S
C467 O468 1.264 . S
C467 O475 1.249 . S
O468 C467 1.264 . S
O469 Mg462 1.986 . S
O469 C473 1.246 . S
O470 Mg465 2.032 . S
O470 C473 1.259 . S
O471 Mg462 2.114 . S
O471 C474 1.252 . S
O472 Mg462 2.251 . S
O472 Mg465 2.079 . S
O472 C474 1.273 . S
C473 O469 1.246 . S
C473 O470 1.259 . S
C474 O471 1.252 . S
C474 O472 1.273 . S
O475 Mg462 2.010 . S
O475 C467 1.249 . S
Mg476 O477 2.028 . S
Mg476 O483 1.986 . S
Mg476 O485 2.114 . S
Mg476 O486 2.251 . S
Mg476 O489 2.010 . S
O477 Mg476 2.028 . S
O477 C480 1.250 . S
O478 Mg479 2.028 . S
O478 C480 1.248 . S
Mg479 O478 2.028 . S
Mg479 O484 2.032 . S
Mg479 O486 2.079 . S
C480 O477 1.250 . S
C480 O478 1.248 . S
C481 O482 1.264 . S
C481 O489 1.249 . S
O482 C481 1.264 . S
O483 Mg476 1.986 . S
O483 C487 1.246 . S
O484 Mg479 2.032 . S
O484 C487 1.259 . S
O485 Mg476 2.114 . S
O485 C488 1.252 . S
O486 Mg476 2.251 . S
O486 Mg479 2.079 . S
O486 C488 1.273 . S
C487 O483 1.246 . S
C487 O484 1.259 . S
C488 O485 1.252 . S
C488 O486 1.273 . S
O489 Mg476 2.010 . S
O489 C481 1.249 . S
Mg490 O491 2.028 . S
Mg490 O497 1.986 . S
Mg490 O499 2.114 . S
Mg490 O500 2.251 . S
Mg490 O503 2.010 . S
O491 Mg490 2.028 . S
O491 C494 1.250 . S
O492 Mg493 2.028 . S
O492 C494 1.248 . S
Mg493 O492 2.028 . S
Mg493 O498 2.032 . S
Mg493 O500 2.079 . S
C494 O491 1.250 . S
C494 O492 1.248 . S
C495 O496 1.264 . S
C495 O503 1.249 . S
O496 C495 1.264 . S
O497 Mg490 1.986 . S
O497 C501 1.246 . S
O498 Mg493 2.032 . S
O498 C501 1.259 . S
O499 Mg490 2.114 . S
O499 C502 1.252 . S
O500 Mg490 2.251 . S
O500 Mg493 2.079 . S
O500 C502 1.273 . S
C501 O497 1.246 . S
C501 O498 1.259 . S
C502 O499 1.252 . S
C502 O500 1.273 . S
O503 Mg490 2.010 . S
O503 C495 1.249 . S
C504 C505 1.387 . S
C504 H508 0.950 . S
C504 C513 1.390 . S
C505 C504 1.387 . S
C505 C507 1.387 . S
H506 C513 0.950 . S
C507 C505 1.387 . S
C507 C509 1.390 . S
C507 H511 0.950 . S
H508 C504 0.950 . S
C509 C507 1.390 . S
C509 C510 1.387 . S
C509 H512 0.950 . S
C510 C509 1.387 . S
C510 C513 1.387 . S
H511 C507 0.950 . S
H512 C509 0.950 . S
C513 C504 1.390 . S
C513 H506 0.950 . S
C513 C510 1.387 . S
C514 C515 1.387 . S
C514 H518 0.950 . S
C514 C523 1.390 . S
C515 C514 1.387 . S
C515 C517 1.387 . S
H516 C523 0.950 . S
C517 C515 1.387 . S
C517 C519 1.390 . S
C517 H521 0.950 . S
H518 C514 0.950 . S
C519 C517 1.390 . S
C519 C520 1.387 . S
C519 H522 0.950 . S
C520 C519 1.387 . S
C520 C523 1.387 . S
H521 C517 0.950 . S
H522 C519 0.950 . S
C523 C514 1.390 . S
C523 H516 0.950 . S
C523 C520 1.387 . S
C524 C525 1.387 . S
C524 H528 0.950 . S
C524 C533 1.390 . S
C525 C524 1.387 . S
C525 C527 1.387 . S
H526 C533 0.950 . S
C527 C525 1.387 . S
C527 C529 1.390 . S
C527 H531 0.950 . S
H528 C524 0.950 . S
C529 C527 1.390 . S
C529 C530 1.387 . S
C529 H532 0.950 . S
C530 C529 1.387 . S
C530 C533 1.387 . S
H531 C527 0.950 . S
H532 C529 0.950 . S
C533 C524 1.390 . S
C533 H526 0.950 . S
C533 C530 1.387 . S
C534 C535 1.387 . S
C534 H538 0.950 . S
C534 C543 1.390 . S
C535 C534 1.387 . S
C535 C537 1.387 . S
H536 C543 0.950 . S
C537 C535 1.387 . S
C537 C539 1.390 . S
C537 H541 0.950 . S
H538 C534 0.950 . S
C539 C537 1.390 . S
C539 C540 1.387 . S
C539 H542 0.950 . S
C540 C539 1.387 . S
C540 C543 1.387 . S
H541 C537 0.950 . S
H542 C539 0.950 . S
C543 C534 1.390 . S
C543 H536 0.950 . S
C543 C540 1.387 . S
C544 C545 1.387 . S
C544 H548 0.950 . S
C544 C553 1.390 . S
C545 C544 1.387 . S
C545 C547 1.387 . S
H546 C553 0.950 . S
C547 C545 1.387 . S
C547 C549 1.390 . S
C547 H551 0.950 . S
H548 C544 0.950 . S
C549 C547 1.390 . S
C549 C550 1.387 . S
C549 H552 0.950 . S
C550 C549 1.387 . S
C550 C553 1.387 . S
H551 C547 0.950 . S
H552 C549 0.950 . S
C553 C544 1.390 . S
C553 H546 0.950 . S
C553 C550 1.387 . S
C554 C555 1.387 . S
C554 H558 0.950 . S
C554 C563 1.390 . S
C555 C554 1.387 . S
C555 C557 1.387 . S
H556 C563 0.950 . S
C557 C555 1.387 . S
C557 C559 1.390 . S
C557 H561 0.950 . S
H558 C554 0.950 . S
C559 C557 1.390 . S
C559 C560 1.387 . S
C559 H562 0.950 . S
C560 C559 1.387 . S
C560 C563 1.387 . S
H561 C557 0.950 . S
H562 C559 0.950 . S
C563 C554 1.390 . S
C563 H556 0.950 . S
C563 C560 1.387 . S
C564 C565 1.387 . S
C564 H568 0.950 . S
C564 C573 1.390 . S
C565 C564 1.387 . S
C565 C567 1.387 . S
H566 C573 0.950 . S
C567 C565 1.387 . S
C567 C569 1.390 . S
C567 H571 0.950 . S
H568 C564 0.950 . S
C569 C567 1.390 . S
C569 C570 1.387 . S
C569 H572 0.950 . S
C570 C569 1.387 . S
C570 C573 1.387 . S
H571 C567 0.950 . S
H572 C569 0.950 . S
C573 C564 1.390 . S
C573 H566 0.950 . S
C573 C570 1.387 . S
C574 C575 1.387 . S
C574 H578 0.950 . S
C574 C583 1.390 . S
C575 C574 1.387 . S
C575 C577 1.387 . S
H576 C583 0.950 . S
C577 C575 1.387 . S
C577 C579 1.390 . S
C577 H581 0.950 . S
H578 C574 0.950 . S
C579 C577 1.390 . S
C579 C580 1.387 . S
C579 H582 0.950 . S
C580 C579 1.387 . S
C580 C583 1.387 . S
H581 C577 0.950 . S
H582 C579 0.950 . S
C583 C574 1.390 . S
C583 H576 0.950 . S
C583 C580 1.387 . S
C584 C585 1.387 . S
C584 H588 0.950 . S
C584 C593 1.390 . S
C585 C584 1.387 . S
C585 C587 1.387 . S
H586 C593 0.950 . S
C587 C585 1.387 . S
C587 C589 1.390 . S
C587 H591 0.950 . S
H588 C584 0.950 . S
C589 C587 1.390 . S
C589 C590 1.387 . S
C589 H592 0.950 . S
C590 C589 1.387 . S
C590 C593 1.387 . S
H591 C587 0.950 . S
H592 C589 0.950 . S
C593 C584 1.390 . S
C593 H586 0.950 . S
C593 C590 1.387 . S
C594 C595 1.387 . S
C594 H598 0.950 . S
C594 C603 1.390 . S
C595 C594 1.387 . S
C595 C597 1.387 . S
H596 C603 0.950 . S
C597 C595 1.387 . S
C597 C599 1.390 . S
C597 H601 0.950 . S
H598 C594 0.950 . S
C599 C597 1.390 . S
C599 C600 1.387 . S
C599 H602 0.950 . S
C600 C599 1.387 . S
C600 C603 1.387 . S
H601 C597 0.950 . S
H602 C599 0.950 . S
C603 C594 1.390 . S
C603 H596 0.950 . S
C603 C600 1.387 . S
C604 C605 1.387 . S
C604 H608 0.950 . S
C604 C613 1.390 . S
C605 C604 1.387 . S
C605 C607 1.387 . S
H606 C613 0.950 . S
C607 C605 1.387 . S
C607 C609 1.390 . S
C607 H611 0.950 . S
H608 C604 0.950 . S
C609 C607 1.390 . S
C609 C610 1.387 . S
C609 H612 0.950 . S
C610 C609 1.387 . S
C610 C613 1.387 . S
H611 C607 0.950 . S
H612 C609 0.950 . S
C613 C604 1.390 . S
C613 H606 0.950 . S
C613 C610 1.387 . S
C614 C615 1.387 . S
C614 H618 0.950 . S
C614 C623 1.390 . S
C615 C614 1.387 . S
C615 C617 1.387 . S
H616 C623 0.950 . S
C617 C615 1.387 . S
C617 C619 1.390 . S
C617 H621 0.950 . S
H618 C614 0.950 . S
C619 C617 1.390 . S
C619 C620 1.387 . S
C619 H622 0.950 . S
C620 C619 1.387 . S
C620 C623 1.387 . S
H621 C617 0.950 . S
H622 C619 0.950 . S
C623 C614 1.390 . S
C623 H616 0.950 . S
C623 C620 1.387 . S
C624 C625 1.387 . S
C624 H628 0.950 . S
C624 C633 1.390 . S
C625 C624 1.387 . S
C625 C627 1.387 1_455 S
H626 C633 0.950 . S
C627 C625 1.387 1_655 S
C627 C629 1.390 . S
C627 H631 0.950 . S
H628 C624 0.950 . S
C629 C627 1.390 . S
C629 C630 1.387 . S
C629 H632 0.950 . S
C630 C629 1.387 . S
C630 C633 1.387 1_655 S
H631 C627 0.950 . S
H632 C629 0.950 . S
C633 C624 1.390 . S
C633 H626 0.950 . S
C633 C630 1.387 1_455 S
C634 C635 1.387 . S
C634 H638 0.950 . S
C634 C643 1.390 . S
C635 C634 1.387 . S
C635 C637 1.387 . S
H636 C643 0.950 . S
C637 C635 1.387 . S
C637 C639 1.390 . S
C637 H641 0.950 . S
H638 C634 0.950 . S
C639 C637 1.390 . S
C639 C640 1.387 . S
C639 H642 0.950 . S
C640 C639 1.387 . S
C640 C643 1.387 . S
H641 C637 0.950 . S
H642 C639 0.950 . S
C643 C634 1.390 . S
C643 H636 0.950 . S
C643 C640 1.387 . S
C644 C645 1.387 . S
C644 H648 0.950 . S
C644 C653 1.390 . S
C645 C644 1.387 . S
C645 C647 1.387 1_545 S
H646 C653 0.950 . S
C647 C645 1.387 1_565 S
C647 C649 1.390 . S
C647 H651 0.950 . S
H648 C644 0.950 . S
C649 C647 1.390 . S
C649 C650 1.387 . S
C649 H652 0.950 . S
C650 C649 1.387 . S
C650 C653 1.387 1_565 S
H651 C647 0.950 . S
H652 C649 0.950 . S
C653 C644 1.390 . S
C653 H646 0.950 . S
C653 C650 1.387 1_545 S
C654 C655 1.387 . S
C654 H658 0.950 . S
C654 C663 1.390 1_554 S
C655 C654 1.387 . S
C655 C657 1.387 1_565 S
H656 C663 0.950 . S
C657 C655 1.387 1_545 S
C657 C659 1.390 1_554 S
C657 H661 0.950 . S
H658 C654 0.950 . S
C659 C657 1.390 1_556 S
C659 C660 1.387 . S
C659 H662 0.950 . S
C660 C659 1.387 . S
C660 C663 1.387 1_545 S
H661 C657 0.950 . S
H662 C659 0.950 . S
C663 C654 1.390 1_556 S
C663 H656 0.950 . S
C663 C660 1.387 1_565 S
C664 C665 1.387 1_455 S
C664 H668 0.950 . S
C664 C673 1.390 1_556 S
C665 C664 1.387 1_655 S
C665 C667 1.387 . S
H666 C673 0.950 . S
C667 C665 1.387 . S
C667 C669 1.390 1_556 S
C667 H671 0.950 . S
H668 C664 0.950 . S
C669 C667 1.390 1_554 S
C669 C670 1.387 1_655 S
C669 H672 0.950 . S
C670 C669 1.387 1_455 S
C670 C673 1.387 . S
H671 C667 0.950 . S
H672 C669 0.950 . S
C673 C664 1.390 1_554 S
C673 H666 0.950 . S
C673 C670 1.387 . S
C674 C675 1.387 . S
C674 H678 0.950 . S
C674 C683 1.390 1_556 S
C675 C674 1.387 . S
C675 C677 1.387 . S
H676 C683 0.950 . S
C677 C675 1.387 . S
C677 C679 1.390 1_556 S
C677 H681 0.950 . S
H678 C674 0.950 . S
C679 C677 1.390 1_554 S
C679 C680 1.387 . S
C679 H682 0.950 . S
C680 C679 1.387 . S
C680 C683 1.387 . S
H681 C677 0.950 . S
H682 C679 0.950 . S
C683 C674 1.390 1_554 S
C683 H676 0.950 . S
C683 C680 1.387 . S
C684 C685 1.387 1_565 S
C684 H688 0.950 . S
C684 C693 1.390 . S
C685 C684 1.387 1_545 S
C685 C687 1.387 . S
H686 C693 0.950 . S
C687 C685 1.387 . S
C687 C689 1.390 . S
C687 H691 0.950 . S
H688 C684 0.950 . S
C689 C687 1.390 . S
C689 C690 1.387 1_545 S
C689 H692 0.950 . S
C690 C689 1.387 1_565 S
C690 C693 1.387 . S
H691 C687 0.950 . S
H692 C689 0.950 . S
C693 C684 1.390 . S
C693 H686 0.950 . S
C693 C690 1.387 . S
C694 C695 1.387 1_655 S
C694 H698 0.950 . S
C694 C703 1.390 . S
C695 C694 1.387 1_455 S
C695 C697 1.387 . S
H696 C703 0.950 . S
C697 C695 1.387 . S
C697 C699 1.390 . S
C697 H701 0.950 . S
H698 C694 0.950 . S
C699 C697 1.390 . S
C699 C700 1.387 1_455 S
C699 H702 0.950 . S
C700 C699 1.387 1_655 S
C700 C703 1.387 . S
H701 C697 0.950 . S
H702 C699 0.950 . S
C703 C694 1.390 . S
C703 H696 0.950 . S
C703 C700 1.387 . S
C704 C705 1.387 . S
C704 H708 0.950 . S
C704 C713 1.390 . S
C705 C704 1.387 . S
C705 C707 1.387 . S
H706 C713 0.950 . S
C707 C705 1.387 . S
C707 C709 1.390 . S
C707 H711 0.950 . S
H708 C704 0.950 . S
C709 C707 1.390 . S
C709 C710 1.387 . S
C709 H712 0.950 . S
C710 C709 1.387 . S
C710 C713 1.387 . S
H711 C707 0.950 . S
H712 C709 0.950 . S
C713 C704 1.390 . S
C713 H706 0.950 . S
C713 C710 1.387 . S
C714 C715 1.387 . S
C714 H718 0.950 . S
C714 C723 1.408 . S
C715 C714 1.387 . S
C715 C717 1.387 1_655 S
H716 C723 0.941 . S
C717 C715 1.387 1_455 S
C717 C719 1.390 . S
C717 H721 0.950 . S
H718 C714 0.950 . S
C719 C717 1.390 . S
C719 C720 1.387 . S
C719 H722 0.950 . S
C720 C719 1.387 . S
C720 C723 1.378 1_455 S
H721 C717 0.950 . S
H722 C719 0.950 . S
C723 C714 1.408 . S
C723 H716 0.941 . S
C723 C720 1.378 1_655 S
C724 C725 1.387 . S
C724 H728 0.950 . S
C724 C733 1.390 . S
C725 C724 1.387 . S
C725 C727 1.387 . S
H726 C733 0.950 . S
C727 C725 1.387 . S
C727 C729 1.390 . S
C727 H731 0.950 . S
H728 C724 0.950 . S
C729 C727 1.390 . S
C729 C730 1.387 . S
C729 H732 0.950 . S
C730 C729 1.387 . S
C730 C733 1.387 . S
H731 C727 0.950 . S
H732 C729 0.950 . S
C733 C724 1.390 . S
C733 H726 0.950 . S
C733 C730 1.387 . S
C734 C735 1.387 . S
C734 H738 0.950 . S
C734 C743 1.390 . S
C735 C734 1.387 . S
C735 C737 1.387 1_545 S
H736 C743 0.950 . S
C737 C735 1.387 1_565 S
C737 C739 1.390 . S
C737 H741 0.950 . S
H738 C734 0.950 . S
C739 C737 1.390 . S
C739 C740 1.387 . S
C739 H742 0.950 . S
C740 C739 1.387 . S
C740 C743 1.387 1_565 S
H741 C737 0.950 . S
H742 C739 0.950 . S
C743 C734 1.390 . S
C743 H736 0.950 . S
C743 C740 1.387 1_545 S
C744 C745 1.387 . S
C744 H748 0.950 . S
C744 C753 1.390 . S
C745 C744 1.387 . S
C745 C747 1.387 1_565 S
H746 C753 0.950 . S
C747 C745 1.387 1_545 S
C747 C749 1.390 . S
C747 H751 0.950 . S
H748 C744 0.950 . S
C749 C747 1.390 . S
C749 C750 1.387 . S
C749 H752 0.950 . S
C750 C749 1.387 . S
C750 C753 1.387 1_545 S
H751 C747 0.950 . S
H752 C749 0.950 . S
C753 C744 1.390 . S
C753 H746 0.950 . S
C753 C750 1.387 1_565 S
C754 C755 1.387 1_455 S
C754 H758 0.950 . S
C754 C763 1.390 . S
C755 C754 1.387 1_655 S
C755 C757 1.387 . S
H756 C763 0.950 . S
C757 C755 1.387 . S
C757 C759 1.390 . S
C757 H761 0.950 . S
H758 C754 0.950 . S
C759 C757 1.390 . S
C759 C760 1.387 1_655 S
C759 H762 0.950 . S
C760 C759 1.387 1_455 S
C760 C763 1.387 . S
H761 C757 0.950 . S
H762 C759 0.950 . S
C763 C754 1.390 . S
C763 H756 0.950 . S
C763 C760 1.387 . S
C764 C765 1.387 . S
C764 H768 0.950 . S
C764 C773 1.390 . S
C765 C764 1.387 . S
C765 C767 1.387 . S
H766 C773 0.950 . S
C767 C765 1.387 . S
C767 C769 1.390 . S
C767 H771 0.950 . S
H768 C764 0.950 . S
C769 C767 1.390 . S
C769 C770 1.387 . S
C769 H772 0.950 . S
C770 C769 1.387 . S
C770 C773 1.387 . S
H771 C767 0.950 . S
H772 C769 0.950 . S
C773 C764 1.390 . S
C773 H766 0.950 . S
C773 C770 1.387 . S
C774 C775 1.387 1_455 S
C774 H778 0.950 . S
C774 C783 1.390 . S
C775 C774 1.387 1_655 S
C775 C777 1.387 . S
H776 C783 0.950 . S
C777 C775 1.387 . S
C777 C779 1.390 . S
C777 H781 0.950 . S
H778 C774 0.950 . S
C779 C777 1.390 . S
C779 C780 1.387 1_655 S
C779 H782 0.950 . S
C780 C779 1.387 1_455 S
C780 C783 1.387 . S
H781 C777 0.950 . S
H782 C779 0.950 . S
C783 C774 1.390 . S
C783 H776 0.950 . S
C783 C780 1.387 . S
C784 C785 1.387 . S
C784 H788 0.950 . S
C784 C793 1.390 . S
C785 C784 1.387 . S
C785 C787 1.387 . S
H786 C793 0.950 . S
C787 C785 1.387 . S
C787 C789 1.390 . S
C787 H791 0.950 . S
H788 C784 0.950 . S
C789 C787 1.390 . S
C789 C790 1.387 . S
C789 H792 0.950 . S
C790 C789 1.387 . S
C790 C793 1.387 . S
H791 C787 0.950 . S
H792 C789 0.950 . S
C793 C784 1.390 . S
C793 H786 0.950 . S
C793 C790 1.387 . S
C794 C795 1.387 . S
C794 H798 0.950 . S
C794 C803 1.390 . S
C795 C794 1.387 . S
C795 C797 1.387 1_545 S
H796 C803 0.950 . S
C797 C795 1.387 1_565 S
C797 C799 1.390 . S
C797 H801 0.950 . S
H798 C794 0.950 . S
C799 C797 1.390 . S
C799 C800 1.387 . S
C799 H802 0.950 . S
C800 C799 1.387 . S
C800 C803 1.387 1_565 S
H801 C797 0.950 . S
H802 C799 0.950 . S
C803 C794 1.390 . S
C803 H796 0.950 . S
C803 C800 1.387 1_545 S
C804 C805 1.387 . S
C804 H808 0.950 . S
C804 C813 1.390 . S
C805 C804 1.387 . S
C805 C807 1.387 . S
H806 C813 0.950 . S
C807 C805 1.387 . S
C807 C809 1.390 . S
C807 H811 0.950 . S
H808 C804 0.950 . S
C809 C807 1.390 . S
C809 C810 1.387 . S
C809 H812 0.950 . S
C810 C809 1.387 . S
C810 C813 1.387 . S
H811 C807 0.950 . S
H812 C809 0.950 . S
C813 C804 1.390 . S
C813 H806 0.950 . S
C813 C810 1.387 . S
C814 C815 1.387 . S
C814 H818 0.950 . S
C814 C823 1.390 1_545 S
C815 C814 1.387 . S
C815 C817 1.387 . S
H816 C823 0.950 . S
C817 C815 1.387 . S
C817 C819 1.390 1_545 S
C817 H821 0.950 . S
H818 C814 0.950 . S
C819 C817 1.390 1_565 S
C819 C820 1.387 . S
C819 H822 0.950 . S
C820 C819 1.387 . S
C820 C823 1.387 . S
H821 C817 0.950 . S
H822 C819 0.950 . S
C823 C814 1.390 1_565 S
C823 H816 0.950 . S
C823 C820 1.387 . S
C824 C825 1.387 . S
C824 H828 0.950 . S
C824 C833 1.390 1_655 S
C825 C824 1.387 . S
C825 C827 1.387 . S
H826 C833 0.950 . S
C827 C825 1.387 . S
C827 C829 1.390 1_655 S
C827 H831 0.950 . S
H828 C824 0.950 . S
C829 C827 1.390 1_455 S
C829 C830 1.387 . S
C829 H832 0.950 . S
C830 C829 1.387 . S
C830 C833 1.387 . S
H831 C827 0.950 . S
H832 C829 0.950 . S
C833 C824 1.390 1_455 S
C833 H826 0.950 . S
C833 C830 1.387 . S
C834 C835 1.387 . S
C834 H838 0.950 . S
C834 C843 1.390 . S
C835 C834 1.387 . S
C835 C837 1.387 . S
H836 C843 0.950 . S
C837 C835 1.387 . S
C837 C839 1.390 . S
C837 H841 0.950 . S
H838 C834 0.950 . S
C839 C837 1.390 . S
C839 C840 1.387 . S
C839 H842 0.950 . S
C840 C839 1.387 . S
C840 C843 1.387 . S
H841 C837 0.950 . S
H842 C839 0.950 . S
C843 C834 1.390 . S
C843 H836 0.950 . S
C843 C840 1.387 . S
C844 C845 1.387 . S
C844 H848 0.950 . S
C844 C853 1.390 1_565 S
C845 C844 1.387 . S
C845 C847 1.387 . S
H846 C853 0.950 . S
C847 C845 1.387 . S
C847 C849 1.390 1_565 S
C847 H851 0.950 . S
H848 C844 0.950 . S
C849 C847 1.390 1_545 S
C849 C850 1.387 . S
C849 H852 0.950 . S
C850 C849 1.387 . S
C850 C853 1.387 . S
H851 C847 0.950 . S
H852 C849 0.950 . S
C853 C844 1.390 1_545 S
C853 H846 0.950 . S
C853 C850 1.387 . S
C854 C855 1.387 . S
C854 H858 0.950 . S
C854 C863 1.390 1_655 S
C855 C854 1.387 . S
C855 C857 1.387 . S
H856 C863 0.950 . S
C857 C855 1.387 . S
C857 C859 1.390 1_655 S
C857 H861 0.950 . S
H858 C854 0.950 . S
C859 C857 1.390 1_455 S
C859 C860 1.387 . S
C859 H862 0.950 . S
C860 C859 1.387 . S
C860 C863 1.387 . S
H861 C857 0.950 . S
H862 C859 0.950 . S
C863 C854 1.390 1_455 S
C863 H856 0.950 . S
C863 C860 1.387 . S
C864 C865 1.387 . S
C864 H868 0.950 . S
C864 C873 1.390 . S
C865 C864 1.387 . S
C865 C867 1.387 . S
H866 C873 0.950 . S
C867 C865 1.387 . S
C867 C869 1.390 . S
C867 H871 0.950 . S
H868 C864 0.950 . S
C869 C867 1.390 . S
C869 C870 1.387 . S
C869 H872 0.950 . S
C870 C869 1.387 . S
C870 C873 1.387 . S
H871 C867 0.950 . S
H872 C869 0.950 . S
C873 C864 1.390 . S
C873 H866 0.950 . S
C873 C870 1.387 . S
C874 C875 1.387 . S
C874 H878 0.950 . S
C874 C883 1.390 1_545 S
C875 C874 1.387 . S
C875 C877 1.387 1_545 S
H876 C883 0.950 . S
C877 C875 1.387 1_565 S
C877 C879 1.390 . S
C877 H881 0.950 . S
H878 C874 0.950 . S
C879 C877 1.390 . S
C879 C880 1.387 . S
C879 H882 0.950 . S
C880 C879 1.387 . S
C880 C883 1.387 . S
H881 C877 0.950 . S
H882 C879 0.950 . S
C883 C874 1.390 1_565 S
C883 H876 0.950 . S
C883 C880 1.387 . S
C884 C885 1.387 1_455 S
C884 H888 0.950 . S
C884 C893 1.390 . S
C885 C884 1.387 1_655 S
C885 C887 1.387 . S
H886 C893 0.950 . S
C887 C885 1.387 . S
C887 C889 1.390 1_655 S
C887 H891 0.950 . S
H888 C884 0.950 . S
C889 C887 1.390 1_455 S
C889 C890 1.387 . S
C889 H892 0.950 . S
C890 C889 1.387 . S
C890 C893 1.387 . S
H891 C887 0.950 . S
H892 C889 0.950 . S
C893 C884 1.390 . S
C893 H886 0.950 . S
C893 C890 1.387 . S
C894 C895 1.387 . S
C894 H898 0.950 . S
C894 C903 1.390 . S
C895 C894 1.387 . S
C895 C897 1.387 . S
H896 C903 0.950 . S
C897 C895 1.387 . S
C897 C899 1.390 . S
C897 H901 0.950 . S
H898 C894 0.950 . S
C899 C897 1.390 . S
C899 C900 1.387 . S
C899 H902 0.950 . S
C900 C899 1.387 . S
C900 C903 1.387 . S
H901 C897 0.950 . S
H902 C899 0.950 . S
C903 C894 1.390 . S
C903 H896 0.950 . S
C903 C900 1.387 . S
C904 C905 1.387 . S
C904 H908 0.950 . S
C904 C913 1.390 1_545 S
C905 C904 1.387 . S
C905 C907 1.387 . S
H906 C913 0.950 . S
C907 C905 1.387 . S
C907 C909 1.390 . S
C907 H911 0.950 . S
H908 C904 0.950 . S
C909 C907 1.390 . S
C909 C910 1.387 1_545 S
C909 H912 0.950 . S
C910 C909 1.387 1_565 S
C910 C913 1.387 . S
H911 C907 0.950 . S
H912 C909 0.950 . S
C913 C904 1.390 1_565 S
C913 H906 0.950 . S
C913 C910 1.387 . S
C914 C915 1.387 . S
C914 H918 0.950 . S
C914 C923 1.390 1_455 S
C915 C914 1.387 . S
C915 C917 1.387 1_455 S
H916 C923 0.950 . S
C917 C915 1.387 1_655 S
C917 C919 1.390 . S
C917 H921 0.950 . S
H918 C914 0.950 . S
C919 C917 1.390 . S
C919 C920 1.387 . S
C919 H922 0.950 . S
C920 C919 1.387 . S
C920 C923 1.387 . S
H921 C917 0.950 . S
H922 C919 0.950 . S
C923 C914 1.390 1_655 S
C923 H916 0.950 . S
C923 C920 1.387 . S
C924 C925 1.387 . S
C924 H928 0.950 . S
C924 C933 1.390 . S
C925 C924 1.387 . S
C925 C927 1.387 . S
H926 C933 0.950 . S
C927 C925 1.387 . S
C927 C929 1.390 . S
C927 H931 0.950 . S
H928 C924 0.950 . S
C929 C927 1.390 . S
C929 C930 1.387 . S
C929 H932 0.950 . S
C930 C929 1.387 . S
C930 C933 1.387 . S
H931 C927 0.950 . S
H932 C929 0.950 . S
C933 C924 1.390 . S
C933 H926 0.950 . S
C933 C930 1.387 . S
C934 C935 1.387 . S
C934 H938 0.950 . S
C934 C943 1.390 1_565 S
C935 C934 1.387 . S
C935 C937 1.387 1_565 S
H936 C943 0.950 . S
C937 C935 1.387 1_545 S
C937 C939 1.390 . S
C937 H941 0.950 . S
H938 C934 0.950 . S
C939 C937 1.390 . S
C939 C940 1.387 . S
C939 H942 0.950 . S
C940 C939 1.387 . S
C940 C943 1.387 . S
H941 C937 0.950 . S
H942 C939 0.950 . S
C943 C934 1.390 1_545 S
C943 H936 0.950 . S
C943 C940 1.387 . S
C944 C945 1.387 1_655 S
C944 H948 0.954 . S
C944 C953 1.390 . S
C945 C944 1.387 1_455 S
C945 C947 1.387 . S
H946 C953 0.950 . S
C947 C945 1.387 . S
C947 C949 1.390 1_455 S
C947 H951 0.950 . S
H948 C944 0.954 . S
C949 C947 1.390 1_655 S
C949 C950 1.387 . S
C949 H952 0.950 . S
C950 C949 1.387 . S
C950 C953 1.387 . S
H951 C947 0.950 . S
H952 C949 0.950 . S
C953 C944 1.390 . S
C953 H946 0.950 . S
C953 C950 1.387 . S
C954 C955 1.387 . S
C954 H958 0.950 . S
C954 C963 1.390 . S
C955 C954 1.387 . S
C955 C957 1.387 . S
H956 C963 0.950 . S
C957 C955 1.387 . S
C957 C959 1.390 . S
C957 H961 0.950 . S
H958 C954 0.950 . S
C959 C957 1.390 . S
C959 C960 1.387 . S
C959 H962 0.950 . S
C960 C959 1.387 . S
C960 C963 1.387 . S
H961 C957 0.950 . S
H962 C959 0.950 . S
C963 C954 1.390 . S
C963 H956 0.950 . S
C963 C960 1.387 . S
C964 C965 1.387 . S
C964 H968 0.950 . S
C964 C973 1.390 1_545 S
C965 C964 1.387 . S
C965 C967 1.387 1_545 S
H966 C973 0.950 . S
C967 C965 1.387 1_565 S
C967 C969 1.390 . S
C967 H971 0.950 1_565 S
H968 C964 0.950 . S
C969 C967 1.390 . S
C969 C970 1.387 . S
C969 H972 0.950 . S
C970 C969 1.387 . S
C970 C973 1.387 . S
H971 C967 0.950 1_545 S
H972 C969 0.950 . S
C973 C964 1.390 1_565 S
C973 H966 0.950 . S
C973 C970 1.387 . S
C974 C975 1.387 . S
C974 H978 0.950 . S
C974 C983 1.390 . S
C975 C974 1.387 . S
C975 C977 1.387 . S
H976 C983 0.950 . S
C977 C975 1.387 . S
C977 C979 1.390 1_455 S
C977 H981 0.950 . S
H978 C974 0.950 . S
C979 C977 1.390 1_655 S
C979 C980 1.387 . S
C979 H982 0.950 . S
C980 C979 1.387 . S
C980 C983 1.387 1_655 S
H981 C977 0.950 . S
H982 C979 0.950 . S
C983 C974 1.390 . S
C983 H976 0.950 . S
C983 C980 1.387 1_455 S
C984 C985 1.387 . S
C984 H988 0.950 . S
C984 C993 1.390 . S
C985 C984 1.387 . S
C985 C987 1.387 . S
H986 C993 0.950 . S
C987 C985 1.387 . S
C987 C989 1.390 . S
C987 H991 0.950 . S
H988 C984 0.950 . S
C989 C987 1.390 . S
C989 C990 1.387 . S
C989 H992 0.950 . S
C990 C989 1.387 . S
C990 C993 1.387 . S
H991 C987 0.950 . S
H992 C989 0.950 . S
C993 C984 1.390 . S
C993 H986 0.950 . S
C993 C990 1.387 . S
C994 C995 1.387 . S
C994 H998 0.950 . S
C994 C1003 1.390 . S
C995 C994 1.387 . S
C995 C997 1.387 . S
H996 C1003 0.950 . S
C997 C995 1.387 . S
C997 C999 1.390 . S
C997 H1001 0.950 . S
H998 C994 0.950 . S
C999 C997 1.390 . S
C999 C1000 1.387 . S
C999 H1002 0.950 . S
C1000 C999 1.387 . S
C1000 C1003 1.387 . S
H1001 C997 0.950 . S
H1002 C999 0.950 . S
C1003 C994 1.390 . S
C1003 H996 0.950 . S
C1003 C1000 1.387 . S
C1004 C1005 1.387 . S
C1004 H1008 0.950 . S
C1004 C1013 1.390 . S
C1005 C1004 1.387 . S
C1005 C1007 1.387 . S
H1006 C1013 0.950 . S
C1007 C1005 1.387 . S
C1007 C1009 1.390 . S
C1007 H1011 0.950 . S
H1008 C1004 0.950 . S
C1009 C1007 1.390 . S
C1009 C1010 1.387 . S
C1009 H1012 0.950 . S
C1010 C1009 1.387 . S
C1010 C1013 1.387 . S
H1011 C1007 0.950 . S
H1012 C1009 0.950 . S
C1013 C1004 1.390 . S
C1013 H1006 0.950 . S
C1013 C1010 1.387 . S
C1014 C1015 1.387 . S
C1014 H1018 0.950 . S
C1014 C1023 1.390 . S
C1015 C1014 1.387 . S
C1015 C1017 1.387 . S
H1016 C1023 0.950 . S
C1017 C1015 1.387 . S
C1017 C1019 1.390 . S
C1017 H1021 0.950 . S
H1018 C1014 0.950 . S
C1019 C1017 1.390 . S
C1019 C1020 1.387 . S
C1019 H1022 0.950 . S
C1020 C1019 1.387 . S
C1020 C1023 1.387 . S
H1021 C1017 0.950 . S
H1022 C1019 0.950 . S
C1023 C1014 1.390 . S
C1023 H1016 0.950 . S
C1023 C1020 1.387 . S
C1024 C1025 1.387 . S
C1024 H1028 0.950 . S
C1024 C1033 1.390 . S
C1025 C1024 1.387 . S
C1025 C1027 1.387 . S
H1026 C1033 0.950 . S
C1027 C1025 1.387 . S
C1027 C1029 1.390 . S
C1027 H1031 0.950 . S
H1028 C1024 0.950 . S
C1029 C1027 1.390 . S
C1029 C1030 1.387 . S
C1029 H1032 0.950 . S
C1030 C1029 1.387 . S
C1030 C1033 1.387 . S
H1031 C1027 0.950 . S
H1032 C1029 0.950 . S
C1033 C1024 1.390 . S
C1033 H1026 0.950 . S
C1033 C1030 1.387 . S
C1034 C1035 1.387 . S
C1034 H1038 0.950 . S
C1034 C1043 1.390 . S
C1035 C1034 1.387 . S
C1035 C1037 1.387 . S
H1036 C1043 0.950 . S
C1037 C1035 1.387 . S
C1037 C1039 1.390 . S
C1037 H1041 0.950 . S
H1038 C1034 0.950 . S
C1039 C1037 1.390 . S
C1039 C1040 1.387 . S
C1039 H1042 0.950 . S
C1040 C1039 1.387 . S
C1040 C1043 1.387 . S
H1041 C1037 0.950 . S
H1042 C1039 0.950 . S
C1043 C1034 1.390 . S
C1043 H1036 0.950 . S
C1043 C1040 1.387 . S
C1044 C1045 1.387 . S
C1044 H1048 0.950 . S
C1044 C1053 1.390 . S
C1045 C1044 1.387 . S
C1045 C1047 1.387 . S
H1046 C1053 0.950 . S
C1047 C1045 1.387 . S
C1047 C1049 1.390 . S
C1047 H1051 0.950 . S
H1048 C1044 0.950 . S
C1049 C1047 1.390 . S
C1049 C1050 1.387 . S
C1049 H1052 0.950 . S
C1050 C1049 1.387 . S
C1050 C1053 1.387 . S
H1051 C1047 0.950 . S
H1052 C1049 0.950 . S
C1053 C1044 1.390 . S
C1053 H1046 0.950 . S
C1053 C1050 1.387 . S
C1054 C1055 1.387 . S
C1054 H1058 0.950 . S
C1054 C1063 1.390 . S
C1055 C1054 1.387 . S
C1055 C1057 1.387 . S
H1056 C1063 0.950 . S
C1057 C1055 1.387 . S
C1057 C1059 1.390 . S
C1057 H1061 0.950 . S
H1058 C1054 0.950 . S
C1059 C1057 1.390 . S
C1059 C1060 1.387 . S
C1059 H1062 0.950 . S
C1060 C1059 1.387 . S
C1060 C1063 1.387 . S
H1061 C1057 0.950 . S
H1062 C1059 0.950 . S
C1063 C1054 1.390 . S
C1063 H1056 0.950 . S
C1063 C1060 1.387 . S
C1064 C1065 1.387 . S
C1064 H1068 0.950 . S
C1064 C1073 1.390 . S
C1065 C1064 1.387 . S
C1065 C1067 1.387 . S
H1066 C1073 0.950 . S
C1067 C1065 1.387 . S
C1067 C1069 1.390 . S
C1067 H1071 0.950 . S
H1068 C1064 0.950 . S
C1069 C1067 1.390 . S
C1069 C1070 1.387 . S
C1069 H1072 0.950 . S
C1070 C1069 1.387 . S
C1070 C1073 1.387 . S
H1071 C1067 0.950 . S
H1072 C1069 0.950 . S
C1073 C1064 1.390 . S
C1073 H1066 0.950 . S
C1073 C1070 1.387 . S
C1074 C1075 1.387 . S
C1074 H1078 0.950 . S
C1074 C1083 1.390 . S
C1075 C1074 1.387 . S
C1075 C1077 1.387 . S
H1076 C1083 0.950 . S
C1077 C1075 1.387 . S
C1077 C1079 1.390 . S
C1077 H1081 0.950 . S
H1078 C1074 0.950 . S
C1079 C1077 1.390 . S
C1079 C1080 1.387 . S
C1079 H1082 0.950 . S
C1080 C1079 1.387 . S
C1080 C1083 1.387 . S
H1081 C1077 0.950 . S
H1082 C1079 0.950 . S
C1083 C1074 1.390 . S
C1083 H1076 0.950 . S
C1083 C1080 1.387 . S
C1084 C1085 1.387 . S
C1084 H1088 0.950 . S
C1084 C1093 1.390 . S
C1085 C1084 1.387 . S
C1085 C1087 1.387 . S
H1086 C1093 0.950 . S
C1087 C1085 1.387 . S
C1087 C1089 1.390 . S
C1087 H1091 0.950 . S
H1088 C1084 0.950 . S
C1089 C1087 1.390 . S
C1089 C1090 1.387 . S
C1089 H1092 0.950 . S
C1090 C1089 1.387 . S
C1090 C1093 1.387 . S
H1091 C1087 0.950 . S
H1092 C1089 0.950 . S
C1093 C1084 1.390 . S
C1093 H1086 0.950 . S
C1093 C1090 1.387 . S
C1094 C1095 1.387 . S
C1094 H1098 0.950 . S
C1094 C1103 1.390 . S
C1095 C1094 1.387 . S
C1095 C1097 1.387 . S
H1096 C1103 0.950 . S
C1097 C1095 1.387 . S
C1097 C1099 1.390 . S
C1097 H1101 0.950 . S
H1098 C1094 0.950 . S
C1099 C1097 1.390 . S
C1099 C1100 1.387 . S
C1099 H1102 0.950 . S
C1100 C1099 1.387 . S
C1100 C1103 1.387 . S
H1101 C1097 0.950 . S
H1102 C1099 0.950 . S
C1103 C1094 1.390 . S
C1103 H1096 0.950 . S
C1103 C1100 1.387 . S
C1104 C1105 1.387 . S
C1104 H1108 0.950 . S
C1104 C1113 1.390 . S
C1105 C1104 1.387 . S
C1105 C1107 1.387 . S
H1106 C1113 0.950 . S
C1107 C1105 1.387 . S
C1107 C1109 1.390 . S
C1107 H1111 0.950 . S
H1108 C1104 0.950 . S
C1109 C1107 1.390 . S
C1109 C1110 1.387 . S
C1109 H1112 0.950 . S
C1110 C1109 1.387 . S
C1110 C1113 1.387 . S
H1111 C1107 0.950 . S
H1112 C1109 0.950 . S
C1113 C1104 1.390 . S
C1113 H1106 0.950 . S
C1113 C1110 1.387 . S
C1114 C1115 1.387 . S
C1114 H1118 0.950 . S
C1114 C1123 1.390 . S
C1115 C1114 1.387 . S
C1115 C1117 1.387 . S
H1116 C1123 0.950 . S
C1117 C1115 1.387 . S
C1117 C1119 1.390 . S
C1117 H1121 0.950 . S
H1118 C1114 0.950 . S
C1119 C1117 1.390 . S
C1119 C1120 1.387 . S
C1119 H1122 0.950 . S
C1120 C1119 1.387 . S
C1120 C1123 1.387 . S
H1121 C1117 0.950 . S
H1122 C1119 0.950 . S
C1123 C1114 1.390 . S
C1123 H1116 0.950 . S
C1123 C1120 1.387 . S
C1124 C1125 1.387 . S
C1124 H1128 0.950 . S
C1124 C1133 1.390 . S
C1125 C1124 1.387 . S
C1125 C1127 1.387 . S
H1126 C1133 0.950 . S
C1127 C1125 1.387 . S
C1127 C1129 1.390 . S
C1127 H1131 0.950 . S
H1128 C1124 0.950 . S
C1129 C1127 1.390 . S
C1129 C1130 1.387 . S
C1129 H1132 0.950 . S
C1130 C1129 1.387 . S
C1130 C1133 1.387 . S
H1131 C1127 0.950 . S
H1132 C1129 0.950 . S
C1133 C1124 1.390 . S
C1133 H1126 0.950 . S
C1133 C1130 1.387 . S
C1134 C1135 1.387 . S
C1134 H1138 0.950 . S
C1134 C1143 1.390 . S
C1135 C1134 1.387 . S
C1135 C1137 1.387 . S
H1136 C1143 0.950 . S
C1137 C1135 1.387 . S
C1137 C1139 1.390 . S
C1137 H1141 0.950 . S
H1138 C1134 0.950 . S
C1139 C1137 1.390 . S
C1139 C1140 1.387 . S
C1139 H1142 0.950 . S
C1140 C1139 1.387 . S
C1140 C1143 1.387 . S
H1141 C1137 0.950 . S
H1142 C1139 0.950 . S
C1143 C1134 1.390 . S
C1143 H1136 0.950 . S
C1143 C1140 1.387 . S
C1144 C1145 1.387 . S
C1144 H1148 0.950 . S
C1144 C1153 1.390 . S
C1145 C1144 1.387 . S
C1145 C1147 1.387 . S
H1146 C1153 0.950 . S
C1147 C1145 1.387 . S
C1147 C1149 1.390 . S
C1147 H1151 0.950 . S
H1148 C1144 0.950 . S
C1149 C1147 1.390 . S
C1149 C1150 1.387 . S
C1149 H1152 0.950 . S
C1150 C1149 1.387 . S
C1150 C1153 1.387 . S
H1151 C1147 0.950 . S
H1152 C1149 0.950 . S
C1153 C1144 1.390 . S
C1153 H1146 0.950 . S
C1153 C1150 1.387 . S
C1154 C1155 1.387 . S
C1154 H1158 0.950 . S
C1154 C1163 1.390 . S
C1155 C1154 1.387 . S
C1155 C1157 1.387 . S
H1156 C1163 0.950 . S
C1157 C1155 1.387 . S
C1157 C1159 1.390 . S
C1157 H1161 0.950 . S
H1158 C1154 0.950 . S
C1159 C1157 1.390 . S
C1159 C1160 1.387 . S
C1159 H1162 0.950 . S
C1160 C1159 1.387 . S
C1160 C1163 1.387 . S
H1161 C1157 0.950 . S
H1162 C1159 0.950 . S
C1163 C1154 1.390 . S
C1163 H1156 0.950 . S
C1163 C1160 1.387 . S
C1164 C1165 1.387 . S
C1164 H1168 0.950 . S
C1164 C1173 1.390 . S
C1165 C1164 1.387 . S
C1165 C1167 1.387 . S
H1166 C1173 0.950 . S
C1167 C1165 1.387 . S
C1167 C1169 1.390 . S
C1167 H1171 0.950 . S
H1168 C1164 0.950 . S
C1169 C1167 1.390 . S
C1169 C1170 1.387 . S
C1169 H1172 0.950 . S
C1170 C1169 1.387 . S
C1170 C1173 1.387 . S
H1171 C1167 0.950 . S
H1172 C1169 0.950 . S
C1173 C1164 1.390 . S
C1173 H1166 0.950 . S
C1173 C1170 1.387 . S
C1174 C1175 1.387 . S
C1174 H1178 0.950 . S
C1174 C1183 1.390 . S
C1175 C1174 1.387 . S
C1175 C1177 1.387 . S
H1176 C1183 0.950 . S
C1177 C1175 1.387 . S
C1177 C1179 1.390 . S
C1177 H1181 0.950 . S
H1178 C1174 0.950 . S
C1179 C1177 1.390 . S
C1179 C1180 1.387 . S
C1179 H1182 0.950 . S
C1180 C1179 1.387 . S
C1180 C1183 1.387 . S
H1181 C1177 0.950 . S
H1182 C1179 0.950 . S
C1183 C1174 1.390 . S
C1183 H1176 0.950 . S
C1183 C1180 1.387 . S
C1184 C1185 1.387 . S
C1184 H1188 0.950 . S
C1184 C1193 1.390 . S
C1185 C1184 1.387 . S
C1185 C1187 1.387 . S
H1186 C1193 0.950 . S
C1187 C1185 1.387 . S
C1187 C1189 1.390 . S
C1187 H1191 0.950 . S
H1188 C1184 0.950 . S
C1189 C1187 1.390 . S
C1189 C1190 1.387 . S
C1189 H1192 0.950 . S
C1190 C1189 1.387 . S
C1190 C1193 1.387 . S
H1191 C1187 0.950 . S
H1192 C1189 0.950 . S
C1193 C1184 1.390 . S
C1193 H1186 0.950 . S
C1193 C1190 1.387 . S
C1194 C1195 1.387 . S
C1194 H1198 0.950 . S
C1194 C1203 1.390 . S
C1195 C1194 1.387 . S
C1195 C1197 1.387 . S
H1196 C1203 0.950 . S
C1197 C1195 1.387 . S
C1197 C1199 1.390 . S
C1197 H1201 0.950 . S
H1198 C1194 0.950 . S
C1199 C1197 1.390 . S
C1199 C1200 1.387 . S
C1199 H1202 0.950 . S
C1200 C1199 1.387 . S
C1200 C1203 1.387 . S
H1201 C1197 0.950 . S
H1202 C1199 0.950 . S
C1203 C1194 1.390 . S
C1203 H1196 0.950 . S
C1203 C1200 1.387 . S
C1204 C1205 1.387 . S
C1204 H1208 0.950 . S
C1204 C1213 1.390 . S
C1205 C1204 1.387 . S
C1205 C1207 1.387 . S
H1206 C1213 0.950 . S
C1207 C1205 1.387 . S
C1207 C1209 1.390 . S
C1207 H1211 0.950 . S
H1208 C1204 0.950 . S
C1209 C1207 1.390 . S
C1209 C1210 1.387 . S
C1209 H1212 0.950 . S
C1210 C1209 1.387 . S
C1210 C1213 1.387 . S
H1211 C1207 0.950 . S
H1212 C1209 0.950 . S
C1213 C1204 1.390 . S
C1213 H1206 0.950 . S
C1213 C1210 1.387 . S
C1214 C1215 1.387 . S
C1214 H1218 0.950 . S
C1214 C1223 1.390 . S
C1215 C1214 1.387 . S
C1215 C1217 1.387 . S
H1216 C1223 0.950 . S
C1217 C1215 1.387 . S
C1217 C1219 1.390 . S
C1217 H1221 0.950 . S
H1218 C1214 0.950 . S
C1219 C1217 1.390 . S
C1219 C1220 1.387 . S
C1219 H1222 0.950 . S
C1220 C1219 1.387 . S
C1220 C1223 1.387 . S
H1221 C1217 0.950 . S
H1222 C1219 0.950 . S
C1223 C1214 1.390 . S
C1223 H1216 0.950 . S
C1223 C1220 1.387 . S
C505 C5 1.298 . S
C510 C257 1.298 . S
C515 C271 1.298 . S
C520 C19 1.298 . S
C525 C285 1.297 . S
C530 C33 1.297 . S
C535 C47 1.302 . S
C540 C467 1.302 . S
C545 C61 1.298 . S
C550 C481 1.298 . S
C555 C75 1.300 . S
C560 C495 1.300 . S
C565 C341 1.299 . S
C570 C89 1.299 . S
C575 C103 1.299 . S
C580 C355 1.299 . S
C585 C117 1.302 . S
C590 C369 1.302 . S
C595 C215 1.297 . S
C600 C131 1.297 . S
C605 C229 1.299 . S
C610 C145 1.299 . S
C615 C243 1.302 . S
C620 C159 1.302 . S
C625 C425 1.297 . S
C630 C173 1.297 . S
C635 C439 1.298 . S
C640 C187 1.298 . S
C645 C201 1.302 . S
C650 C453 1.302 . S
C655 C383 1.302 . S
C660 C299 1.302 . S
C665 C313 1.302 . S
C670 C397 1.302 . S
C675 C327 1.298 . S
C680 C411 1.298 . S
C685 C11 1.528 . S
C690 C389 1.526 . S
C695 C403 1.528 . S
C700 C25 1.528 . S
C705 C417 1.527 . S
C710 C39 1.528 . S
C715 C179 1.528 . S
C720 C53 1.526 . S
C725 C193 1.528 . S
C730 C67 1.528 . S
C735 C207 1.526 . S
C740 C81 1.529 . S
C745 C95 1.528 . S
C750 C305 1.526 . S
C755 C319 1.527 . S
C760 C109 1.527 . S
C765 C333 1.527 . S
C770 C123 1.528 . S
C775 C137 1.529 . S
C780 C431 1.527 . S
C785 C151 1.527 . S
C790 C445 1.527 . S
C795 C165 1.529 . S
C800 C459 1.526 . S
C805 C221 1.528 . S
C810 C347 1.527 . S
C815 C235 1.528 . S
C820 C361 1.528 . S
C825 C249 1.529 . S
C830 C375 1.527 . S
C835 C263 1.527 . S
C840 C473 1.529 . S
C845 C487 1.528 . S
C850 C277 1.528 . S
C855 C291 1.526 . S
C860 C501 1.529 . S
C865 C26 1.212 . S
C870 C4 1.138 . S
C875 C18 1.135 . S
C880 C40 1.212 . S
C885 C32 1.140 . S
C890 C12 1.210 . S
C895 C46 1.134 . S
C900 C82 1.210 . S
C905 C54 1.212 . S
C910 C60 1.139 . S
C915 C74 1.136 . S
C920 C68 1.212 . S
C925 C88 1.139 . S
C930 C110 1.209 . S
C935 C102 1.139 . S
C940 C124 1.209 . S
C945 C116 1.134 . S
C950 C96 1.210 . S
C955 C166 1.209 . S
C960 C130 1.139 . S
C965 C144 1.140 . S
C970 C138 1.210 . S
C975 C152 1.212 . S
C980 C158 1.139 . S
C985 C194 1.212 . S
C990 C172 1.137 . S
C995 C208 1.212 . S
C1000 C186 1.138 . S
C1005 C180 1.211 . S
C1010 C200 1.140 . S
C1015 C214 1.140 . S
C1020 C250 1.211 . S
C1025 C228 1.139 . S
C1030 C222 1.209 . S
C1035 C242 1.138 . S
C1040 C236 1.209 . S
C1045 C278 1.209 . S
C1050 C256 1.137 . S
C1055 C270 1.135 . S
C1060 C292 1.210 . S
C1065 C284 1.135 . S
C1070 C264 1.212 . S
C1075 C298 1.140 . S
C1080 C334 1.211 . S
C1085 C312 1.134 . S
C1090 C306 1.211 . S
C1095 C320 1.210 . S
C1100 C326 1.140 . S
C1105 C362 1.212 . S
C1110 C340 1.137 . S
C1115 C354 1.136 . S
C1120 C376 1.209 . S
C1125 C348 1.210 . S
C1130 C368 1.140 . S
C1135 C382 1.135 . S
C1140 C418 1.210 . S
C1145 C396 1.140 . S
C1150 C390 1.209 . S
C1155 C410 1.138 . S
C1160 C404 1.209 . S
C1165 C424 1.137 . S
C1170 C446 1.208 . S
C1175 C438 1.136 . S
C1180 C460 1.209 . S
C1185 C452 1.139 . S
C1190 C432 1.209 . S
C1195 C466 1.134 . S
C1200 C502 1.211 . S
C1205 C480 1.135 . S
C1210 C474 1.212 . S
C1215 C488 1.209 . S
C1220 C494 1.140 . S
