# Generated by pormake.
# Topology und, (4)-cn, num edge types: 1
# Building blocks:
#     Node 0, Type 0, BuildingBlock: ICAMEG_clean_sbu_1, # of connection points: 4
#     Node 1, Type 0, BuildingBlock: ICAMEG_clean_sbu_1, # of connection points: 4
#     Node 2, Type 0, BuildingBlock: ICAMEG_clean_sbu_1, # of connection points: 4
#     Node 3, Type 0, BuildingBlock: ICAMEG_clean_sbu_1, # of connection points: 4
#     Node 4, Type 0, BuildingBlock: ICAMEG_clean_sbu_1, # of connection points: 4
#     Node 5, Type 0, BuildingBlock: ICAMEG_clean_sbu_1, # of connection points: 4
#     Node 6, Type 0, BuildingBlock: ICAMEG_clean_sbu_1, # of connection points: 4
#     Node 7, Type 0, BuildingBlock: ICAMEG_clean_sbu_1, # of connection points: 4
#     Node 8, Type 0, BuildingBlock: ICAMEG_clean_sbu_1, # of connection points: 4
#     Node 9, Type 0, BuildingBlock: ICAMEG_clean_sbu_1, # of connection points: 4
#     Node 10, Type 0, BuildingBlock: ICAMEG_clean_sbu_1, # of connection points: 4
#     Node 11, Type 0, BuildingBlock: ICAMEG_clean_sbu_1, # of connection points: 4
#     Node 12, Type 0, BuildingBlock: ICAMEG_clean_sbu_1, # of connection points: 4
#     Node 13, Type 0, BuildingBlock: ICAMEG_clean_sbu_1, # of connection points: 4
#     Node 14, Type 0, BuildingBlock: ICAMEG_clean_sbu_1, # of connection points: 4
#     Node 15, Type 0, BuildingBlock: ICAMEG_clean_sbu_1, # of connection points: 4
#     Edge 16, Type (0, 0), BuildingBlock: TEMPAE_clean_linker_10, # of connection points: 2
#     Edge 17, Type (0, 0), BuildingBlock: TEMPAE_clean_linker_10, # of connection points: 2
#     Edge 18, Type (0, 0), BuildingBlock: TEMPAE_clean_linker_10, # of connection points: 2
#     Edge 19, Type (0, 0), BuildingBlock: TEMPAE_clean_linker_10, # of connection points: 2
#     Edge 20, Type (0, 0), BuildingBlock: TEMPAE_clean_linker_10, # of connection points: 2
#     Edge 21, Type (0, 0), BuildingBlock: TEMPAE_clean_linker_10, # of connection points: 2
#     Edge 22, Type (0, 0), BuildingBlock: TEMPAE_clean_linker_10, # of connection points: 2
#     Edge 23, Type (0, 0), BuildingBlock: TEMPAE_clean_linker_10, # of connection points: 2
#     Edge 24, Type (0, 0), BuildingBlock: TEMPAE_clean_linker_10, # of connection points: 2
#     Edge 25, Type (0, 0), BuildingBlock: TEMPAE_clean_linker_10, # of connection points: 2
#     Edge 26, Type (0, 0), BuildingBlock: TEMPAE_clean_linker_10, # of connection points: 2
#     Edge 27, Type (0, 0), BuildingBlock: TEMPAE_clean_linker_10, # of connection points: 2
#     Edge 28, Type (0, 0), BuildingBlock: TEMPAE_clean_linker_10, # of connection points: 2
#     Edge 29, Type (0, 0), BuildingBlock: TEMPAE_clean_linker_10, # of connection points: 2
#     Edge 30, Type (0, 0), BuildingBlock: TEMPAE_clean_linker_10, # of connection points: 2
#     Edge 31, Type (0, 0), BuildingBlock: TEMPAE_clean_linker_10, # of connection points: 2
#     Edge 32, Type (0, 0), BuildingBlock: TEMPAE_clean_linker_10, # of connection points: 2
#     Edge 33, Type (0, 0), BuildingBlock: TEMPAE_clean_linker_10, # of connection points: 2
#     Edge 34, Type (0, 0), BuildingBlock: TEMPAE_clean_linker_10, # of connection points: 2
#     Edge 35, Type (0, 0), BuildingBlock: TEMPAE_clean_linker_10, # of connection points: 2
#     Edge 36, Type (0, 0), BuildingBlock: TEMPAE_clean_linker_10, # of connection points: 2
#     Edge 37, Type (0, 0), BuildingBlock: TEMPAE_clean_linker_10, # of connection points: 2
#     Edge 38, Type (0, 0), BuildingBlock: TEMPAE_clean_linker_10, # of connection points: 2
#     Edge 39, Type (0, 0), BuildingBlock: TEMPAE_clean_linker_10, # of connection points: 2
#     Edge 40, Type (0, 0), BuildingBlock: TEMPAE_clean_linker_10, # of connection points: 2
#     Edge 41, Type (0, 0), BuildingBlock: TEMPAE_clean_linker_10, # of connection points: 2
#     Edge 42, Type (0, 0), BuildingBlock: TEMPAE_clean_linker_10, # of connection points: 2
#     Edge 43, Type (0, 0), BuildingBlock: TEMPAE_clean_linker_10, # of connection points: 2
#     Edge 44, Type (0, 0), BuildingBlock: TEMPAE_clean_linker_10, # of connection points: 2
#     Edge 45, Type (0, 0), BuildingBlock: TEMPAE_clean_linker_10, # of connection points: 2
#     Edge 46, Type (0, 0), BuildingBlock: TEMPAE_clean_linker_10, # of connection points: 2
#     Edge 47, Type (0, 0), BuildingBlock: TEMPAE_clean_linker_10, # of connection points: 2
# Relax obj value: 0.023
# Max RMSD: 0.081
# Mean RMSD: 0.081
data_MOF--net-und--node1-ICAMEG_clean_sbu_1--edge1-TEMPAE_clean_linker_10
_symmetry_space_group_name_H-M    P1
_symmetry_Int_Tables_number       1
_symmetry_cell_setting            triclinic
loop_
_symmetry_equiv_pos_as_xyz
'x, y, z'
_cell_length_a     66.258528
_cell_length_b     66.237796
_cell_length_c     22.509023
_cell_angle_alpha  90.027823
_cell_angle_beta   90.075603
_cell_angle_gamma 90.131239
loop_
_atom_site_label
_atom_site_type_symbol
_atom_site_fract_x
_atom_site_fract_y
_atom_site_fract_z
_atom_type_partial_charge
Co0 Co 0.28554 0.33156 0.0165 0.0
Co1 Co 0.23379 0.337 1.00256 0.0
O2 O 0.26111 0.34819 0.01075 0.0
C3 C 0.29551 0.36357 0.92675 0.0
O4 O 0.27719 0.36247 0.90483 0.0
C5 C 0.21178 0.35826 0.09956 0.0
O6 O 0.20785 0.34069 0.124 0.0
O7 O 0.23832 0.31918 0.07317 0.0
O8 O 0.27134 0.31154 0.0677 0.0
H9 H 0.18254 0.28104 0.99851 0.0
H10 H 0.28603 0.37493 0.04975 0.0
O11 O 0.30101 0.35162 0.96788 0.0
H12 H 0.31074 0.33872 0.22676 0.0
H13 H 0.36031 0.3196 0.03788 0.0
H14 H 0.29366 0.28765 0.01037 0.0
H15 H 0.30142 0.32005 0.13596 0.0
H16 H 0.3295 0.34033 0.0333 0.0
O17 O 0.22337 0.35933 0.0545 0.0
H18 H 0.21665 0.29577 0.00629 0.0
H19 H 0.19258 0.35462 0.98327 0.0
H20 H 0.32408 0.26632 0.01523 0.0
H21 H 0.29537 0.39422 0.13941 0.0
H22 H 0.35772 0.28231 0.02904 0.0
H23 H 0.30779 0.3761 0.22882 0.0
O24 O 0.27761 0.31614 0.9436 0.0
H25 H 0.23702 0.40273 0.89132 0.0
H26 H 0.21565 0.33152 0.88195 0.0
H27 H 0.2109 0.35332 0.79432 0.0
H28 H 0.22154 0.38928 0.79882 0.0
H29 H 0.24198 0.38019 0.97719 0.0
H30 H 0.15821 0.34056 0.97578 0.0
H31 H 0.15301 0.3035 0.98324 0.0
O32 O 0.24366 0.31517 0.94813 0.0
C33 C 0.25382 0.30929 0.08993 0.0
C34 C 0.1846 0.29721 0.99519 0.0
C35 C 0.17095 0.33061 0.98248 0.0
N36 N 0.20664 0.32604 0.99539 0.0
C37 C 0.20389 0.30564 0.99952 0.0
C38 C 0.19045 0.3385 0.98696 0.0
C39 C 0.16804 0.30982 0.98665 0.0
C40 C 0.2915 0.36693 0.08837 0.0
N41 N 0.29317 0.34637 0.08756 0.0
C42 C 0.29674 0.37794 0.13905 0.0
C43 C 0.3037 0.36776 0.18921 0.0
C44 C 0.30535 0.3468 0.18809 0.0
C45 C 0.3 0.3363 0.13658 0.0
C46 C 0.34575 0.31246 0.03177 0.0
C47 C 0.30823 0.29471 0.01652 0.0
C48 C 0.32824 0.32413 0.02884 0.0
N49 N 0.30978 0.31521 0.02145 0.0
C50 C 0.32541 0.28256 0.01917 0.0
C51 C 0.34428 0.29154 0.02687 0.0
C52 C 0.26047 0.30957 0.92579 0.0
C53 C 0.23241 0.38706 0.88868 0.0
C54 C 0.22083 0.34694 0.88358 0.0
C55 C 0.21785 0.35932 0.83415 0.0
C56 C 0.22376 0.3795 0.83677 0.0
N57 N 0.22953 0.35438 0.93412 0.0
C58 C 0.23515 0.37422 0.93722 0.0
Co59 Co 0.92981 0.98285 0.23953 0.0
Co60 Co 0.93164 0.034 0.24928 0.0
O61 O 0.91585 0.00889 0.24389 0.0
C62 C 0.89542 0.97384 0.32316 0.0
O63 O 0.89874 0.99056 0.35301 0.0
C64 C 0.89366 0.04443 0.18001 0.0
O65 O 0.88815 0.02542 0.17811 0.0
O66 O 0.94536 0.02695 0.17325 0.0
O67 O 0.9534 0.9952 0.19672 0.0
H68 H 0.99548 0.0749 0.23747 0.0
H69 H 0.88789 0.98543 0.19426 0.0
O70 O 0.90662 0.96911 0.27953 0.0
H71 H 0.92825 0.96175 0.02419 0.0
H72 H 0.93498 0.90755 0.21085 0.0
H73 H 0.97194 0.96993 0.26154 0.0
H74 H 0.94425 0.96798 0.12131 0.0
H75 H 0.91743 0.94032 0.21297 0.0
O76 O 0.91037 0.04957 0.20396 0.0
H77 H 0.97503 0.04377 0.23419 0.0
H78 H 0.92202 0.07741 0.27156 0.0
H79 H 0.99012 0.93751 0.2593 0.0
H80 H 0.87117 0.9791 0.09811 0.0
H81 H 0.97162 0.90601 0.23383 0.0
H82 H 0.8914 0.96727 0.0121 0.0
O83 O 0.94266 0.98883 0.31774 0.0
H84 H 0.8723 0.0399 0.38805 0.0
H85 H 0.94584 0.04874 0.36733 0.0
H86 H 0.92964 0.05615 0.46325 0.0
H87 H 0.89258 0.05186 0.47405 0.0
H88 H 0.88912 0.03231 0.2934 0.0
H89 H 0.94189 0.10891 0.2747 0.0
H90 H 0.97891 0.10777 0.25784 0.0
O91 O 0.95353 0.02001 0.29586 0.0
C92 C 0.95554 0.01089 0.1644 0.0
C93 C 0.97937 0.07558 0.24505 0.0
C94 C 0.94929 0.09468 0.26586 0.0
N95 N 0.94737 0.05873 0.25299 0.0
C96 C 0.96771 0.058 0.24338 0.0
C97 C 0.93811 0.07679 0.26384 0.0
C98 C 0.97006 0.09403 0.25642 0.0
C99 C 0.89681 0.9803 0.15707 0.0
N100 N 0.91711 0.97742 0.16325 0.0
C101 C 0.88725 0.97673 0.10272 0.0
C102 C 0.89861 0.9701 0.05448 0.0
C103 C 0.91928 0.96704 0.0612 0.0
C104 C 0.92831 0.97075 0.11624 0.0
C105 C 0.94321 0.92117 0.222 0.0
C106 C 0.96379 0.95631 0.25022 0.0
C107 C 0.93333 0.93977 0.22351 0.0
N108 N 0.94365 0.95706 0.23721 0.0
C109 C 0.97416 0.93798 0.24911 0.0
C110 C 0.96377 0.92032 0.23486 0.0
C111 C 0.95375 1.00419 0.32825 0.0
C112 C 0.88844 0.04202 0.38374 0.0
C113 C 0.92969 0.04687 0.37145 0.0
C114 C 0.92061 0.05109 0.42599 0.0
C115 C 0.89982 0.04868 0.43202 0.0
N116 N 0.91841 0.04049 0.32403 0.0
C117 C 0.89805 0.03791 0.3299 0.0
Co118 Co 0.23104 0.6814 0.5003 0.0
Co119 Co 0.28214 0.68399 0.48817 0.0
O120 O 0.25722 0.66784 0.493 0.0
C121 C 0.22284 0.64309 0.42979 0.0
O122 O 0.24198 0.63811 0.42999 0.0
C123 C 0.29328 0.64941 0.56776 0.0
O124 O 0.27611 0.65138 0.59614 0.0
O125 O 0.2759 0.69565 0.56747 0.0
O126 O 0.24354 0.70366 0.54945 0.0
H127 H 0.32351 0.74724 0.51025 0.0
H128 H 0.23652 0.63879 0.54187 0.0
O129 O 0.21698 0.65963 0.45308 0.0
H130 H 0.20805 0.67535 0.71276 0.0
H131 H 0.15558 0.68577 0.52561 0.0
H132 H 0.2183 0.72409 0.48984 0.0
H133 H 0.21469 0.69307 0.6187 0.0
H134 H 0.18835 0.6683 0.52082 0.0
O135 O 0.29775 0.6614 0.5256 0.0
H136 H 0.29238 0.72681 0.51252 0.0
H137 H 0.32508 0.67494 0.45817 0.0
H138 H 0.18586 0.74218 0.49497 0.0
H139 H 0.22983 0.62047 0.63462 0.0
H140 H 0.1542 0.72299 0.51294 0.0
H141 H 0.21552 0.63874 0.72117 0.0
O142 O 0.23686 0.69615 0.42509 0.0
H143 H 0.28865 0.62757 0.34008 0.0
H144 H 0.29413 0.7011 0.37038 0.0
H145 H 0.30023 0.68687 0.27091 0.0
H146 H 0.29756 0.64983 0.25524 0.0
H147 H 0.28239 0.64249 0.43872 0.0
H148 H 0.35661 0.69476 0.45575 0.0
H149 H 0.35594 0.73121 0.48171 0.0
O150 O 0.26776 0.70714 0.44878 0.0
C151 C 0.25966 0.70497 0.58043 0.0
C152 C 0.324 0.73138 0.49878 0.0
C153 C 0.34257 0.70192 0.46827 0.0
N154 N 0.30687 0.69972 0.48542 0.0
C155 C 0.3064 0.71974 0.49993 0.0
C156 C 0.32468 0.69076 0.46993 0.0
C157 C 0.34219 0.72237 0.4828 0.0
C158 C 0.2299 0.64684 0.5785 0.0
N159 N 0.22557 0.66693 0.57389 0.0
C160 C 0.22631 0.63638 0.63133 0.0
C161 C 0.21832 0.64664 0.67992 0.0
C162 C 0.21411 0.66716 0.67521 0.0
C163 C 0.2179 0.67712 0.62168 0.0
C164 C 0.16928 0.6943 0.51784 0.0
C165 C 0.2046 0.71565 0.49804 0.0
C166 C 0.18788 0.68449 0.51487 0.0
N167 N 0.20526 0.69518 0.5054 0.0
C168 C 0.18627 0.72597 0.50073 0.0
C169 C 0.16851 0.71519 0.51076 0.0
C170 C 0.25195 0.70774 0.41657 0.0
C171 C 0.28984 0.64373 0.34632 0.0
C172 C 0.29275 0.68499 0.36391 0.0
C173 C 0.29632 0.67701 0.30748 0.0
C174 C 0.29483 0.65623 0.29873 0.0
N175 N 0.28772 0.67265 0.41032 0.0
C176 C 0.28633 0.65226 0.4021 0.0
Co177 Co 0.57405 0.032 0.75183 0.0
Co178 Co 0.57812 0.98095 0.75863 0.0
O179 O 0.59096 0.00759 0.75357 0.0
C180 C 0.60873 0.04342 0.83121 0.0
O181 O 0.60722 0.02605 0.85897 0.0
C182 C 0.61657 0.97416 0.68734 0.0
O183 O 0.6216 0.99332 0.68959 0.0
O184 O 0.56306 0.9872 0.68411 0.0
O185 O 0.55122 0.01736 0.71147 0.0
H186 H 0.51845 0.93409 0.75047 0.0
H187 H 0.61532 0.0338 0.70122 0.0
O188 O 0.59635 0.04788 0.79002 0.0
H189 H 0.56994 0.05283 0.53681 0.0
H190 H 0.56102 0.10645 0.72748 0.0
H191 H 0.53108 0.04051 0.77884 0.0
H192 H 0.55625 0.04514 0.63597 0.0
H193 H 0.58172 0.07557 0.7259 0.0
O194 O 0.60004 0.96798 0.70987 0.0
H195 H 0.53575 0.96708 0.74764 0.0
H196 H 0.59231 0.93843 0.77509 0.0
H197 H 0.50981 0.07099 0.7806 0.0
H198 H 0.6297 0.04166 0.60289 0.0
H199 H 0.52477 0.10426 0.75478 0.0
H200 H 0.60694 0.05117 0.51976 0.0
O201 O 0.5627 0.02445 0.83072 0.0
H202 H 0.6394 0.98071 0.89184 0.0
H203 H 0.5675 0.96249 0.87544 0.0
H204 H 0.58567 0.95562 0.96859 0.0
H205 H 0.62197 0.96461 0.97721 0.0
H206 H 0.62057 0.98768 0.80017 0.0
H207 H 0.57564 0.90513 0.7774 0.0
H208 H 0.53843 0.90281 0.7654 0.0
O209 O 0.55568 0.99219 0.80908 0.0
C210 C 0.55115 1.00208 0.6771 0.0
C211 C 0.53467 0.93491 0.75593 0.0
C212 C 0.56676 0.91865 0.77095 0.0
N213 N 0.56499 0.95472 0.76159 0.0
C214 C 0.54454 0.95355 0.75453 0.0
C215 C 0.57612 0.93755 0.76936 0.0
C216 C 0.54589 0.91736 0.76424 0.0
C217 C 0.60533 0.03802 0.66536 0.0
N218 N 0.58497 0.03888 0.67435 0.0
C219 C 0.61355 0.04243 0.60975 0.0
C220 C 0.60078 0.04775 0.56312 0.0
C221 C 0.58002 0.04868 0.57264 0.0
C222 C 0.57235 0.04423 0.62888 0.0
C223 C 0.55432 0.09203 0.73878 0.0
C224 C 0.5377 0.05491 0.76733 0.0
C225 C 0.56599 0.0745 0.73814 0.0
N226 N 0.55761 0.05622 0.75206 0.0
C227 C 0.52558 0.07213 0.76851 0.0
C228 C 0.53398 0.0908 0.75407 0.0
C229 C 0.55349 0.00789 0.84155 0.0
C230 C 0.62364 0.97654 0.88848 0.0
C231 C 0.58325 0.96651 0.87865 0.0
C232 C 0.59349 0.96254 0.93161 0.0
C233 C 0.61384 0.96757 0.93641 0.0
N234 N 0.59297 0.97516 0.83146 0.0
C235 C 0.61289 0.98029 0.83621 0.0
Co236 Co 0.72937 0.68656 0.00579 0.0
Co237 Co 0.78049 0.68152 0.02326 0.0
O238 O 0.75361 0.66956 0.01207 0.0
C239 C 0.7171 0.65351 0.08915 0.0
O240 O 0.73391 0.65605 0.1192 0.0
C241 C 0.78731 0.64483 0.94436 0.0
O242 O 0.76792 0.64247 0.93495 0.0
O243 O 0.77653 0.69768 0.94938 0.0
O244 O 0.74475 0.70842 0.96357 0.0
H245 H 0.82952 0.73944 0.02942 0.0
H246 H 0.72744 0.64439 0.96123 0.0
O247 O 0.71301 0.66497 0.04545 0.0
H248 H 0.71044 0.68706 0.78893 0.0
H249 H 0.65531 0.69948 0.97252 0.0
H250 H 0.72094 0.73004 0.02449 0.0
H251 H 0.71781 0.70241 0.88632 0.0
H252 H 0.68601 0.67859 0.97738 0.0
O253 O 0.79379 0.65955 0.97554 0.0
H254 H 0.79612 0.7234 0.01799 0.0
H255 H 0.82188 0.66566 0.0487 0.0
H256 H 0.69062 0.7515 0.01976 0.0
H257 H 0.7199 0.62838 0.8648 0.0
H258 H 0.65751 0.73623 0.9936 0.0
H259 H 0.71141 0.64976 0.77769 0.0
O260 O 0.73572 0.69932 0.08396 0.0
H261 H 0.77606 0.61823 0.1462 0.0
H262 H 0.79605 0.6899 0.14563 0.0
H263 H 0.79975 0.67006 0.23742 0.0
H264 H 0.78981 0.63387 0.23806 0.0
H265 H 0.77224 0.63877 0.05585 0.0
H266 H 0.85559 0.68105 0.05967 0.0
H267 H 0.85956 0.71822 0.05037 0.0
O268 O 0.769 0.70391 0.07299 0.0
C269 C 0.76168 0.70913 0.93675 0.0
C270 C 0.82798 0.72324 0.03372 0.0
C271 C 0.84261 0.69047 0.05061 0.0
N272 N 0.80701 0.69363 0.03298 0.0
C273 C 0.80909 0.71407 0.02744 0.0
C274 C 0.82349 0.68183 0.04411 0.0
C275 C 0.84483 0.71132 0.04542 0.0
C276 C 0.72368 0.6538 0.92363 0.0
N277 N 0.72326 0.67432 0.92938 0.0
C278 C 0.71945 0.64464 0.86909 0.0
C279 C 0.7147 0.65665 0.82024 0.0
C280 C 0.71416 0.67757 0.8265 0.0
C281 C 0.71845 0.68619 0.88174 0.0
C282 C 0.66965 0.70631 0.98391 0.0
C283 C 0.7066 0.72329 0.01282 0.0
C284 C 0.68709 0.69455 0.98691 0.0
N285 N 0.70528 0.70309 1.00095 0.0
C286 C 0.68948 0.73552 0.01033 0.0
C287 C 0.6709 0.72694 0.99571 0.0
C288 C 0.75234 0.70763 0.09923 0.0
C289 C 0.78052 0.63396 0.14644 0.0
C290 C 0.7915 0.67428 0.1456 0.0
C291 C 0.79373 0.66305 0.19769 0.0
C292 C 0.78819 0.64275 0.198 0.0
N293 N 0.784 0.66557 0.09509 0.0
C294 C 0.77851 0.64567 0.09518 0.0
Co295 Co 0.07529 0.03704 0.75453 0.0
Co296 Co 0.08338 0.98647 0.74015 0.0
O297 O 0.09358 0.01392 0.74973 0.0
C298 C 0.10808 0.04982 0.67217 0.0
O299 O 0.1062 0.03252 0.64424 0.0
C300 C 0.10718 0.96478 0.83235 0.0
O301 O 0.09018 0.96016 0.85906 0.0
O302 O 0.06721 0.99002 0.8142 0.0
O303 O 0.0542 0.02073 0.79686 0.0
H304 H 0.0295 0.93301 0.74099 0.0
H305 H 0.11713 0.04007 0.80102 0.0
O306 O 0.09616 0.05422 0.7145 0.0
H307 H 0.07316 0.05699 0.97041 0.0
H308 H 0.05839 0.1105 0.78315 0.0
H309 H 0.03144 0.04301 0.73475 0.0
H310 H 0.05851 0.04892 0.87253 0.0
H311 H 0.08088 0.08091 0.78043 0.0
O312 O 0.1071 0.97637 0.78714 0.0
H313 H 0.04301 0.96761 0.75007 0.0
H314 H 0.10215 0.94635 0.71373 0.0
H315 H 0.00839 0.07217 0.73734 0.0
H316 H 0.13243 0.04833 0.89801 0.0
H317 H 0.02184 0.10622 0.7617 0.0
H318 H 0.11039 0.05681 0.98361 0.0
O319 O 0.06309 0.02937 0.67669 0.0
H320 H 0.14648 0.99279 0.61789 0.0
H321 H 0.07538 0.97083 0.61747 0.0
H322 H 0.0954 0.9679 0.52573 0.0
H323 H 0.13128 0.97885 0.52561 0.0
H324 H 0.12575 0.99582 0.70829 0.0
H325 H 0.08932 0.91152 0.70471 0.0
H326 H 0.05273 0.90467 0.71821 0.0
O327 O 0.05988 0.99597 0.69065 0.0
C328 C 0.05476 1.00416 0.82555 0.0
C329 C 0.04547 0.9358 0.73496 0.0
C330 C 0.07904 0.92374 0.71463 0.0
N331 N 0.07333 0.95902 0.73236 0.0
C332 C 0.0532 0.95536 0.74 0.0
C333 C 0.08622 0.94349 0.7199 0.0
C334 C 0.05851 0.91991 0.7222 0.0
C335 C 0.10744 0.04391 0.83791 0.0
N336 N 0.08696 0.0441 0.83097 0.0
C337 C 0.11619 0.04852 0.89278 0.0
C338 C 0.10381 0.05326 0.9408 0.0
C339 C 0.08293 0.05338 0.93343 0.0
C340 C 0.07473 0.04875 0.87788 0.0
C341 C 0.05234 0.09574 0.77252 0.0
C342 C 0.0374 0.05776 0.74563 0.0
C343 C 0.06502 0.07893 0.77074 0.0
N344 N 0.05747 0.06022 0.75767 0.0
C345 C 0.02428 0.07422 0.74691 0.0
C346 C 0.03184 0.09332 0.76052 0.0
C347 C 0.0554 0.01226 0.66311 0.0
C348 C 0.13087 0.98796 0.61736 0.0
C349 C 0.09085 0.97591 0.61757 0.0
C350 C 0.10218 0.97407 0.56559 0.0
C351 C 0.12232 0.98017 0.56558 0.0
N352 N 0.09929 0.98362 0.66816 0.0
C353 C 0.11906 0.98956 0.6685 0.0
Co354 Co 0.7851 0.32759 0.50191 0.0
Co355 Co 0.73469 0.3375 0.51494 0.0
O356 O 0.76258 0.34665 0.5063 0.0
C357 C 0.79887 0.35913 0.58774 0.0
O358 O 0.78135 0.35782 0.61466 0.0
C359 C 0.71412 0.36166 0.42128 0.0
O360 O 0.70907 0.34465 0.39515 0.0
O361 O 0.73781 0.32088 0.44141 0.0
O362 O 0.76835 0.30729 0.45765 0.0
H363 H 0.67925 0.28567 0.51364 0.0
H364 H 0.78998 0.36955 0.45811 0.0
O365 O 0.80282 0.34758 0.54408 0.0
H366 H 0.80592 0.326 0.2868 0.0
H367 H 0.85805 0.30831 0.47573 0.0
H368 H 0.78948 0.28346 0.51993 0.0
H369 H 0.79685 0.31107 0.38344 0.0
H370 H 0.82924 0.33179 0.47815 0.0
O371 O 0.72557 0.36145 0.46689 0.0
H372 H 0.71435 0.29782 0.50538 0.0
H373 H 0.69525 0.35788 0.53956 0.0
H374 H 0.81784 0.25943 0.5176 0.0
H375 H 0.79925 0.38513 0.36241 0.0
H376 H 0.85243 0.27182 0.49535 0.0
H377 H 0.80724 0.36329 0.27586 0.0
O378 O 0.77668 0.31523 0.57878 0.0
H379 H 0.74327 0.40071 0.63597 0.0
H380 H 0.71832 0.33058 0.6372 0.0
H381 H 0.71597 0.35101 0.72842 0.0
H382 H 0.72842 0.38641 0.72811 0.0
H383 H 0.74567 0.37957 0.5461 0.0
H384 H 0.65994 0.3464 0.54774 0.0
H385 H 0.65176 0.31004 0.53491 0.0
O386 O 0.74313 0.31383 0.56533 0.0
C387 C 0.75164 0.30813 0.42968 0.0
C388 C 0.68263 0.30154 0.51937 0.0
C389 C 0.67179 0.33563 0.53849 0.0
N390 N 0.70686 0.32852 0.52207 0.0
C391 C 0.70248 0.30851 0.51481 0.0
C392 C 0.69181 0.34204 0.5337 0.0
C393 C 0.66721 0.31523 0.53129 0.0
C394 C 0.7936 0.35995 0.4208 0.0
N395 N 0.79296 0.33943 0.4265 0.0
C396 C 0.79878 0.36886 0.36666 0.0
C397 C 0.80325 0.3566 0.31811 0.0
C398 C 0.80252 0.33568 0.32421 0.0
C399 C 0.79733 0.32731 0.37905 0.0
C400 C 0.84305 0.30272 0.48543 0.0
C401 C 0.80447 0.28896 0.50997 0.0
C402 C 0.82668 0.31596 0.48704 0.0
N403 N 0.80767 0.30899 0.49894 0.0
C404 C 0.82048 0.27529 0.50883 0.0
C405 C 0.83988 0.28225 0.49641 0.0
C406 C 0.75922 0.30845 0.59248 0.0
C407 C 0.73778 0.38531 0.63667 0.0
C408 C 0.72404 0.34583 0.63694 0.0
C409 C 0.72253 0.3574 0.68861 0.0
C410 C 0.72948 0.37727 0.68838 0.0
N411 N 0.73225 0.35378 0.58642 0.0
C412 C 0.73903 0.37328 0.58584 0.0
Co413 Co 0.42501 0.98191 0.26321 0.0
Co414 Co 0.43016 0.03285 0.24528 0.0
O415 O 0.41294 0.00865 0.25133 0.0
C416 C 0.38953 0.97411 0.18037 0.0
O417 O 0.38871 0.99304 0.16353 0.0
C418 C 0.39667 0.04552 0.32628 0.0
O419 O 0.39851 0.02844 0.35532 0.0
O420 O 0.44237 0.0268 0.32442 0.0
O421 O 0.44751 0.99371 0.31189 0.0
H422 H 0.49525 0.07156 0.26186 0.0
H423 H 0.38223 0.98923 0.29461 0.0
O424 O 0.40298 0.96826 0.21689 0.0
H425 H 0.41381 0.96425 0.47873 0.0
H426 H 0.42492 0.90709 0.3044 0.0
H427 H 0.46686 0.96648 0.25646 0.0
H428 H 0.43367 0.96754 0.38685 0.0
H429 H 0.40942 0.94063 0.29226 0.0
O430 O 0.4085 0.04955 0.28334 0.0
H431 H 0.47355 0.04131 0.2666 0.0
H432 H 0.42274 0.07603 0.21417 0.0
H433 H 0.48302 0.93325 0.26903 0.0
H434 H 0.36165 0.98579 0.38513 0.0
H435 H 0.46201 0.90326 0.29312 0.0
H436 H 0.37745 0.97332 0.47822 0.0
O437 O 0.4409 0.98572 0.18881 0.0
H438 H 0.37303 0.04143 0.10032 0.0
H439 H 0.44691 0.04345 0.12605 0.0
H440 H 0.43227 0.04991 0.02725 0.0
H441 H 0.39505 0.04901 0.0139 0.0
H442 H 0.38834 0.03465 0.19819 0.0
H443 H 0.44387 0.10667 0.20925 0.0
H444 H 0.48042 0.10454 0.23299 0.0
O445 O 0.45224 0.01721 0.20509 0.0
C446 C 0.45089 0.01027 0.33916 0.0
C447 C 0.47935 0.07267 0.25128 0.0
C448 C 0.45051 0.09239 0.22184 0.0
N449 N 0.44691 0.05687 0.24047 0.0
C450 C 0.46699 0.05559 0.25379 0.0
C451 C 0.43861 0.07499 0.22488 0.0
C452 C 0.47102 0.09118 0.23514 0.0
C453 C 0.38919 0.98358 0.33467 0.0
N454 N 0.4092 0.97864 0.33531 0.0
C455 C 0.37747 0.98176 0.38592 0.0
C456 C 0.38635 0.9748 0.43815 0.0
C457 C 0.40675 0.96974 0.4385 0.0
C458 C 0.41799 0.97178 0.38639 0.0
C459 C 0.43424 0.92005 0.2939 0.0
C460 C 0.45761 0.95352 0.26717 0.0
C461 C 0.42553 0.93907 0.28669 0.0
N462 N 0.43722 0.95553 0.27373 0.0
C463 C 0.46685 0.93473 0.27413 0.0
C464 C 0.45505 0.91791 0.28761 0.0
C465 C 0.45265 1.00047 0.17711 0.0
C466 C 0.38926 0.04188 0.10558 0.0
C467 C 0.43071 0.04283 0.12059 0.0
C468 C 0.4225 0.04662 0.06454 0.0
C469 C 0.40163 0.04611 0.05709 0.0
N470 N 0.4185 0.03856 0.1679 0.0
C471 C 0.39802 0.03813 0.16095 0.0
Co472 Co 0.78481 0.8327 0.51835 0.0
Co473 Co 0.73374 0.83405 0.5143 0.0
O474 O 0.75974 0.84811 0.51623 0.0
C475 C 0.79332 0.86687 0.43417 0.0
O476 O 0.77517 0.86516 0.4113 0.0
C477 C 0.71126 0.85834 0.60462 0.0
O478 O 0.70865 0.84194 0.6365 0.0
O479 O 0.74084 0.82045 0.59075 0.0
O480 O 0.77179 0.81035 0.56506 0.0
H481 H 0.68772 0.77424 0.53846 0.0
H482 H 0.78358 0.87488 0.56174 0.0
O483 O 0.79918 0.85473 0.47438 0.0
H484 H 0.81004 0.83515 0.72974 0.0
H485 H 0.86004 0.82336 0.53655 0.0
H486 H 0.79484 0.78965 0.4988 0.0
H487 H 0.80162 0.81866 0.63476 0.0
H488 H 0.82836 0.8428 0.53751 0.0
O489 O 0.72176 0.85773 0.55728 0.0
H490 H 0.72045 0.79202 0.53694 0.0
H491 H 0.69116 0.84693 0.4922 0.0
H492 H 0.82614 0.76959 0.4981 0.0
H493 H 0.79207 0.89208 0.65573 0.0
H494 H 0.85905 0.78645 0.51706 0.0
H495 H 0.80536 0.87217 0.74064 0.0
O496 O 0.77674 0.81949 0.44225 0.0
H497 H 0.72841 0.8933 0.37556 0.0
H498 H 0.71782 0.81996 0.39696 0.0
H499 H 0.71038 0.83635 0.30119 0.0
H500 H 0.71556 0.8733 0.29008 0.0
H501 H 0.7361 0.87625 0.47018 0.0
H502 H 0.6581 0.82976 0.49342 0.0
H503 H 0.65623 0.79314 0.51659 0.0
O504 O 0.74532 0.81054 0.4687 0.0
C505 C 0.7564 0.80944 0.59905 0.0
C506 C 0.68833 0.7902 0.52824 0.0
C507 C 0.67171 0.82136 0.50299 0.0
N508 N 0.70773 0.82048 0.51441 0.0
C509 C 0.70683 0.80034 0.52727 0.0
C510 C 0.69047 0.831 0.50242 0.0
C511 C 0.67067 0.80081 0.51599 0.0
C512 C 0.78945 0.86613 0.59836 0.0
N513 N 0.79208 0.84577 0.59268 0.0
C514 C 0.79419 0.87594 0.65153 0.0
C515 C 0.80163 0.86476 0.69916 0.0
C516 C 0.80425 0.844 0.6931 0.0
C517 C 0.79936 0.83471 0.63925 0.0
C518 C 0.8458 0.81583 0.52824 0.0
C519 C 0.80909 0.79709 0.50731 0.0
C520 C 0.82781 0.82678 0.52847 0.0
N521 N 0.80974 0.81736 0.51839 0.0
C522 C 0.82677 0.78565 0.50676 0.0
C523 C 0.84523 0.79513 0.51734 0.0
C524 C 0.76064 0.80918 0.43448 0.0
C525 C 0.72603 0.8772 0.37989 0.0
C526 C 0.7203 0.83602 0.39243 0.0
C527 C 0.71596 0.84523 0.33811 0.0
C528 C 0.71886 0.86597 0.33192 0.0
N529 N 0.72739 0.84713 0.4393 0.0
C530 C 0.73026 0.86747 0.4335 0.0
Co531 Co 0.43146 0.4842 0.75159 0.0
Co532 Co 0.43088 0.53526 0.76898 0.0
O533 O 0.41646 0.50959 0.75885 0.0
C534 C 0.39738 0.47285 0.83401 0.0
O535 O 0.40002 0.48925 0.86592 0.0
C536 C 0.39854 0.54552 0.67967 0.0
O537 O 0.40161 0.52849 0.65126 0.0
O538 O 0.44602 0.53024 0.69347 0.0
O539 O 0.4543 0.498 0.71002 0.0
H540 H 0.49241 0.57974 0.76947 0.0
H541 H 0.38938 0.48697 0.70777 0.0
O542 O 0.40892 0.46908 0.79035 0.0
H543 H 0.42944 0.46596 0.53406 0.0
H544 H 0.4391 0.4096 0.71364 0.0
H545 H 0.47415 0.47248 0.77039 0.0
H546 H 0.4457 0.47114 0.63135 0.0
H547 H 0.42045 0.44167 0.72033 0.0
O548 O 0.40918 0.55003 0.72488 0.0
H549 H 0.47374 0.5477 0.75899 0.0
H550 H 0.41866 0.57758 0.79785 0.0
H551 H 0.49341 0.44077 0.76369 0.0
H552 H 0.3724 0.48158 0.61153 0.0
H553 H 0.47587 0.40902 0.73513 0.0
H554 H 0.39248 0.4711 0.5237 0.0
O555 O 0.44478 0.48939 0.83001 0.0
H556 H 0.36862 0.53657 0.89598 0.0
H557 H 0.442 0.54872 0.89185 0.0
H558 H 0.42335 0.55359 0.98535 0.0
H559 H 0.38634 0.54757 0.9878 0.0
H560 H 0.38795 0.53158 0.80364 0.0
H561 H 0.4367 0.60998 0.8081 0.0
H562 H 0.47387 0.61119 0.79418 0.0
O563 O 0.45286 0.52187 0.8158 0.0
C564 C 0.45647 0.51454 0.68171 0.0
C565 C 0.47622 0.57941 0.77573 0.0
C566 C 0.44495 0.59639 0.79732 0.0
N567 N 0.44513 0.56073 0.77792 0.0
C568 C 0.46556 0.5613 0.76994 0.0
C569 C 0.4348 0.578 0.79119 0.0
C570 C 0.4658 0.59705 0.78954 0.0
C571 C 0.39821 0.48226 0.6699 0.0
N572 N 0.41857 0.4795 0.6752 0.0
C573 C 0.38851 0.47929 0.61545 0.0
C574 C 0.39979 0.47344 0.56618 0.0
C575 C 0.42053 0.47059 0.57194 0.0
C576 C 0.4297 0.47368 0.6271 0.0
C577 C 0.44691 0.42333 0.72611 0.0
C578 C 0.46641 0.45875 0.75774 0.0
C579 C 0.43641 0.44154 0.7302 0.0
N580 N 0.4462 0.45898 0.74556 0.0
C581 C 0.4774 0.44083 0.75411 0.0
C582 C 0.46755 0.42302 0.73813 0.0
C583 C 0.45484 0.50522 0.84373 0.0
C584 C 0.38473 0.53925 0.8955 0.0
C585 C 0.42598 0.54584 0.89266 0.0
C586 C 0.41546 0.54874 0.94569 0.0
C587 C 0.39469 0.54539 0.94701 0.0
N588 N 0.41613 0.53977 0.84232 0.0
C589 C 0.39576 0.5365 0.84328 0.0
Co590 Co 0.72313 0.18426 0.01451 0.0
Co591 Co 0.77414 0.18285 0.00559 0.0
O592 O 0.74818 0.16879 0.01067 0.0
C593 C 0.71309 0.15005 0.93125 0.0
O594 O 0.73061 0.152 0.9047 0.0
C595 C 0.79773 0.15952 0.09551 0.0
O596 O 0.8001 0.17618 0.12641 0.0
O597 O 0.76794 0.19693 0.08193 0.0
O598 O 0.73671 0.20688 0.05878 0.0
H599 H 0.82025 0.24292 0.02221 0.0
H600 H 0.72474 0.14232 0.0596 0.0
O601 O 0.70819 0.16198 0.97312 0.0
H602 H 0.70068 0.1831 0.22849 0.0
H603 H 0.64818 0.19378 0.0401 0.0
H604 H 0.71285 0.2272 0.99382 0.0
H605 H 0.70795 0.19904 0.13197 0.0
H606 H 0.67986 0.17433 0.03874 0.0
O607 O 0.78685 0.15953 0.04873 0.0
H608 H 0.78757 0.22505 0.02477 0.0
H609 H 0.81647 0.16996 0.97986 0.0
H610 H 0.68157 0.24727 0.99538 0.0
H611 H 0.71739 0.12568 0.15518 0.0
H612 H 0.64893 0.23055 0.01862 0.0
H613 H 0.70532 0.14612 0.24053 0.0
O614 O 0.73023 0.19705 0.93699 0.0
H615 H 0.77755 0.12275 0.86948 0.0
H616 H 0.78865 0.19617 0.88607 0.0
H617 H 0.79484 0.17917 0.79046 0.0
H618 H 0.78939 0.14217 0.78176 0.0
H619 H 0.77116 0.14042 0.964 0.0
H620 H 0.84947 0.18721 0.97704 0.0
H621 H 0.85151 0.22397 0.99824 0.0
O622 O 0.76196 0.20604 0.96001 0.0
C623 C 0.7525 0.20799 0.0912 0.0
C624 C 0.81956 0.2269 0.01284 0.0
C625 C 0.83596 0.19564 0.98752 0.0
N626 N 0.80009 0.1965 1.00241 0.0
C627 C 0.80109 0.21671 0.01418 0.0
C628 C 0.81723 0.18595 0.98925 0.0
C629 C 0.83709 0.21626 0.99941 0.0
C630 C 0.71939 0.1513 0.09643 0.0
N631 N 0.71679 0.17164 0.09013 0.0
C632 C 0.7153 0.1418 0.15049 0.0
C633 C 0.70854 0.15328 0.19837 0.0
C634 C 0.70595 0.17402 0.19166 0.0
C635 C 0.71018 0.18299 0.13693 0.0
C636 C 0.66231 0.20124 0.02991 0.0
C637 C 0.69873 0.21982 0.00417 0.0
C638 C 0.68029 0.19028 0.02881 0.0
N639 N 0.69821 0.19962 0.01634 0.0
C640 C 0.68105 0.23126 0.0049 0.0
C641 C 0.66274 0.22187 0.0179 0.0
C642 C 0.74622 0.20734 0.92738 0.0
C643 C 0.78004 0.13887 0.87276 0.0
C644 C 0.78609 0.18009 0.88261 0.0
C645 C 0.7897 0.17053 0.82837 0.0
C646 C 0.78665 0.14977 0.82353 0.0
N647 N 0.77958 0.1693 0.93073 0.0
C648 C 0.77654 0.14895 0.92627 0.0
Co649 Co 0.08135 0.52926 0.25458 0.0
Co650 Co 0.07383 0.47847 0.25247 0.0
O651 O 0.09212 0.50182 0.25405 0.0
C652 C 0.1066 0.54845 0.34879 0.0
O653 O 0.09008 0.5522 0.37904 0.0
C654 C 0.10949 0.46777 0.1762 0.0
O655 O 0.1128 0.48693 0.16574 0.0
O656 O 0.06171 0.48882 0.17752 0.0
O657 O 0.05715 0.52098 0.20553 0.0
H658 H 0.0066 0.44438 0.22572 0.0
H659 H 0.12365 0.52373 0.21431 0.0
O660 O 0.10571 0.53815 0.30103 0.0
H661 H 0.08868 0.55587 0.04577 0.0
H662 H 0.08531 0.60521 0.2422 0.0
H663 H 0.04091 0.54653 0.27648 0.0
H664 H 0.07043 0.5483 0.13832 0.0
H665 H 0.09892 0.57062 0.23831 0.0
O666 O 0.09425 0.4622 0.20658 0.0
H667 H 0.02993 0.47336 0.2312 0.0
H668 H 0.079 0.43391 0.266 0.0
H669 H 0.02664 0.58086 0.28044 0.0
H670 H 0.14265 0.53154 0.12312 0.0
H671 H 0.04891 0.6105 0.26326 0.0
H672 H 0.12512 0.54759 0.03779 0.0
O673 O 0.06666 0.52256 0.32934 0.0
H674 H 0.13111 0.4628 0.39169 0.0
H675 H 0.05718 0.46265 0.36664 0.0
H676 H 0.07192 0.45137 0.46151 0.0
H677 H 0.10915 0.4513 0.47443 0.0
H678 H 0.11574 0.47425 0.29786 0.0
H679 H 0.05621 0.40449 0.26048 0.0
H680 H 0.01971 0.40963 0.24043 0.0
O681 O 0.05286 0.49333 0.29992 0.0
C682 C 0.05336 0.50606 0.17102 0.0
C683 C 0.02246 0.44194 0.23464 0.0
C684 C 0.05031 0.41956 0.25407 0.0
N685 N 0.05579 0.45537 0.24923 0.0
C686 C 0.03575 0.45831 0.23792 0.0
C687 C 0.06315 0.43628 0.25698 0.0
C688 C 0.02983 0.42245 0.24284 0.0
C689 C 0.11593 0.53086 0.17763 0.0
N690 N 0.09584 0.53531 0.18159 0.0
C691 C 0.12676 0.53518 0.12597 0.0
C692 C 0.11692 0.54416 0.0781 0.0
C693 C 0.09647 0.54876 0.08249 0.0
C694 C 0.08614 0.54425 0.13488 0.0
C695 C 0.07545 0.59242 0.24975 0.0
C696 C 0.05069 0.55935 0.26888 0.0
C697 C 0.08307 0.5728 0.24769 0.0
N698 N 0.07071 0.55655 0.25716 0.0
C699 C 0.04253 0.57875 0.2712 0.0
C700 C 0.05503 0.59538 0.26156 0.0
C701 C 0.05402 0.50819 0.33583 0.0
C702 C 0.11487 0.46266 0.38649 0.0
C703 C 0.0734 0.4627 0.37185 0.0
C704 C 0.08165 0.45627 0.4257 0.0
C705 C 0.10254 0.45624 0.43293 0.0
N706 N 0.08559 0.4689 0.32636 0.0
C707 C 0.10608 0.46904 0.3333 0.0
Co708 Co 0.23042 0.18485 0.50127 0.0
Co709 Co 0.28124 0.1846 0.51346 0.0
O710 O 0.25572 0.16956 0.50681 0.0
C711 C 0.21905 0.15039 0.58252 0.0
O712 O 0.23603 0.15208 0.61229 0.0
C713 C 0.29161 0.15074 0.42928 0.0
O714 O 0.27443 0.15304 0.40097 0.0
O715 O 0.27529 0.19792 0.43566 0.0
O716 O 0.24421 0.20784 0.4598 0.0
H717 H 0.32458 0.24678 0.50015 0.0
H718 H 0.23218 0.1431 0.45462 0.0
O719 O 0.21517 0.16233 0.53982 0.0
H720 H 0.21093 0.18493 0.28461 0.0
H721 H 0.15578 0.19395 0.46707 0.0
H722 H 0.21944 0.22753 0.52381 0.0
H723 H 0.21704 0.20037 0.38264 0.0
H724 H 0.18759 0.17478 0.47087 0.0
O725 O 0.29612 0.16225 0.47262 0.0
H726 H 0.29282 0.22739 0.49491 0.0
H727 H 0.32392 0.17373 0.5422 0.0
H728 H 0.18802 0.24733 0.51988 0.0
H729 H 0.22592 0.12698 0.3575 0.0
H730 H 0.15587 0.23053 0.49138 0.0
H731 H 0.21529 0.14795 0.27158 0.0
O732 O 0.23652 0.1973 0.58018 0.0
H733 H 0.28494 0.12537 0.65231 0.0
H734 H 0.29466 0.19892 0.63339 0.0
H735 H 0.30055 0.18252 0.7301 0.0
H736 H 0.29575 0.14546 0.74 0.0
H737 H 0.27896 0.14243 0.55653 0.0
H738 H 0.35605 0.19249 0.5473 0.0
H739 H 0.3565 0.22932 0.52645 0.0
O740 O 0.26776 0.20736 0.55717 0.0
C741 C 0.25967 0.20873 0.42621 0.0
C742 C 0.32458 0.23074 0.50939 0.0
C743 C 0.34224 0.20027 0.53577 0.0
N744 N 0.30648 0.19945 0.51833 0.0
C745 C 0.30663 0.21968 0.50658 0.0
C746 C 0.32401 0.18971 0.53255 0.0
C747 C 0.34248 0.22093 0.52411 0.0
C748 C 0.22739 0.1523 0.41757 0.0
N749 N 0.225 0.17265 0.42437 0.0
C750 C 0.22394 0.1431 0.36263 0.0
C751 C 0.218 0.15488 0.31443 0.0
C752 C 0.21556 0.17563 0.32169 0.0
C753 C 0.21913 0.1843 0.37729 0.0
C754 C 0.16969 0.20144 0.4796 0.0
C755 C 0.20554 0.22011 0.51125 0.0
C756 C 0.18774 0.19063 0.48212 0.0
N757 N 0.20539 0.20001 0.49756 0.0
C758 C 0.18778 0.2314 0.50916 0.0
C759 C 0.16975 0.22197 0.4932 0.0
C760 C 0.25216 0.20807 0.5903 0.0
C761 C 0.28714 0.14152 0.64852 0.0
C762 C 0.29244 0.1828 0.63733 0.0
C763 C 0.29586 0.17359 0.69221 0.0
C764 C 0.29318 0.1528 0.69773 0.0
N765 N 0.28651 0.17163 0.58924 0.0
C766 C 0.28384 0.15125 0.59435 0.0
Co767 Co 0.57854 0.53533 0.26437 0.0
Co768 Co 0.58094 0.48419 0.26029 0.0
O769 O 0.59478 0.51048 0.26253 0.0
C770 C 0.61362 0.54572 0.18476 0.0
O771 O 0.6133 0.52758 0.16127 0.0
C772 C 0.62014 0.47697 0.32767 0.0
O773 O 0.62522 0.4961 0.32445 0.0
O774 O 0.5674 0.49132 0.33635 0.0
O775 O 0.55583 0.52143 0.30755 0.0
H776 H 0.52014 0.43921 0.27976 0.0
H777 H 0.62022 0.53636 0.31209 0.0
O778 O 0.60064 0.55069 0.22368 0.0
H779 H 0.57694 0.55837 0.47783 0.0
H780 H 0.56685 0.61014 0.2859 0.0
H781 H 0.53555 0.54438 0.23948 0.0
H782 H 0.56213 0.55006 0.38037 0.0
H783 H 0.58708 0.57896 0.2879 0.0
O784 O 0.60335 0.47078 0.30653 0.0
H785 H 0.53842 0.47168 0.2785 0.0
H786 H 0.59347 0.44125 0.24284 0.0
H787 H 0.51473 0.57516 0.23749 0.0
H788 H 0.63572 0.54473 0.40871 0.0
H789 H 0.53037 0.60836 0.2608 0.0
H790 H 0.61401 0.55577 0.49251 0.0
O791 O 0.56661 0.52741 0.18655 0.0
H792 H 0.63978 0.48025 0.11887 0.0
H793 H 0.56716 0.46675 0.14502 0.0
H794 H 0.58326 0.45899 0.04926 0.0
H795 H 0.61988 0.46561 0.03572 0.0
H796 H 0.62302 0.48817 0.21329 0.0
H797 H 0.57581 0.40845 0.2443 0.0
H798 H 0.53886 0.40729 0.26259 0.0
O799 O 0.5579 0.49595 0.2128 0.0
C800 C 0.55594 0.50654 0.34334 0.0
C801 C 0.53624 0.43952 0.27158 0.0
C802 C 0.56748 0.42225 0.25177 0.0
N803 N 0.56697 0.45839 0.26025 0.0
C804 C 0.54666 0.45787 0.27067 0.0
C805 C 0.57741 0.44088 0.25118 0.0
C806 C 0.54675 0.42162 0.262 0.0
C807 C 0.61069 0.54119 0.34828 0.0
N808 N 0.59029 0.54255 0.34062 0.0
C809 C 0.61954 0.54591 0.40291 0.0
C810 C 0.60736 0.55209 0.4499 0.0
C811 C 0.58657 0.55357 0.4417 0.0
C812 C 0.57826 0.54875 0.38643 0.0
C813 C 0.55986 0.59577 0.27565 0.0
C814 C 0.54247 0.55874 0.24984 0.0
C815 C 0.57126 0.57806 0.27647 0.0
N816 N 0.56251 0.55983 0.26388 0.0
C817 C 0.5306 0.57614 0.24857 0.0
C818 C 0.53939 0.59475 0.2616 0.0
C819 C 0.55677 0.5111 0.1779 0.0
C820 C 0.62385 0.47711 0.12439 0.0
C821 C 0.58311 0.46967 0.13973 0.0
C822 C 0.59215 0.46523 0.08528 0.0
C823 C 0.61268 0.46895 0.0777 0.0
N824 N 0.59418 0.47756 0.1856 0.0
C825 C 0.61429 0.4814 0.17819 0.0
Co826 Co 0.28004 0.83071 0.99018 0.0
Co827 Co 0.2285 0.83252 0.99746 0.0
O828 O 0.25475 0.84605 0.99096 0.0
C829 C 0.28909 0.86499 0.07328 0.0
O830 O 0.27245 0.86126 0.10299 0.0
C831 C 0.22151 0.86916 0.91905 0.0
O832 O 0.24071 0.87395 0.92007 0.0
O833 O 0.23514 0.81573 0.92633 0.0
O834 O 0.26699 0.80741 0.94832 0.0
H835 H 0.18313 0.77166 1.00001 0.0
H836 H 0.28039 0.87246 0.94217 0.0
O837 O 0.29419 0.85375 0.03002 0.0
H838 H 0.30247 0.82921 0.77632 0.0
H839 H 0.35527 0.82245 0.9694 0.0
H840 H 0.291 0.78812 0.01457 0.0
H841 H 0.29454 0.81443 0.87393 0.0
H842 H 0.32323 0.84129 0.96781 0.0
O843 O 0.21519 0.85312 0.94434 0.0
H844 H 0.21569 0.78967 0.9948 0.0
H845 H 0.18559 0.84601 0.00963 0.0
H846 H 0.32268 0.76869 0.01627 0.0
H847 H 0.28849 0.88794 0.84553 0.0
H848 H 0.35513 0.78586 0.99353 0.0
H849 H 0.29952 0.86625 0.76162 0.0
O850 O 0.27298 0.81839 0.06824 0.0
H851 H 0.22725 0.89659 0.11876 0.0
H852 H 0.20927 0.82443 0.11493 0.0
H853 H 0.20191 0.8445 0.20422 0.0
H854 H 0.21078 0.88094 0.20649 0.0
H855 H 0.23472 0.87589 0.03113 0.0
H856 H 0.1527 0.82862 0.01421 0.0
H857 H 0.15133 0.79117 0.00976 0.0
O858 O 0.24023 0.81157 0.05217 0.0
C859 C 0.25087 0.80498 0.91812 0.0
C860 C 0.18353 0.78798 1.0022 0.0
C861 C 0.16646 0.81995 0.01006 0.0
N862 N 0.20259 0.81885 1.00238 0.0
C863 C 0.20194 0.79826 0.99947 0.0
C864 C 0.18513 0.82972 0.0072 0.0
C865 C 0.1657 0.79894 0.0076 0.0
C866 C 0.28521 0.86291 0.90597 0.0
N867 N 0.2867 0.84251 0.91361 0.0
C868 C 0.28976 0.87177 0.8513 0.0
C869 C 0.29594 0.8596 0.80424 0.0
C870 C 0.29757 0.83881 0.81243 0.0
C871 C 0.2929 0.8305 0.86774 0.0
C872 C 0.34123 0.81479 0.97933 0.0
C873 C 0.30504 0.79569 0.00442 0.0
C874 C 0.32303 0.82539 0.97866 0.0
N875 N 0.30522 0.8158 0.99083 0.0
C876 C 0.32294 0.78461 0.00555 0.0
C877 C 0.34114 0.79426 0.99284 0.0
C878 C 0.2566 0.80925 0.08154 0.0
C879 C 0.22316 0.88076 0.11819 0.0
C880 C 0.21331 0.84019 0.11548 0.0
C881 C 0.20903 0.85153 0.16621 0.0
C882 C 0.21398 0.87197 0.16744 0.0
N883 N 0.22219 0.8489 0.06701 0.0
C884 C 0.22721 0.86893 0.06823 0.0
Co885 Co 0.93332 0.48308 0.77119 0.0
Co886 Co 0.92623 0.53304 0.74284 0.0
O887 O 0.91528 0.50611 0.75823 0.0
C888 C 0.90218 0.46701 0.68741 0.0
O889 O 0.90448 0.4832 0.65449 0.0
C890 C 0.89425 0.54291 0.83339 0.0
O891 O 0.90154 0.52945 0.87046 0.0
O892 O 0.9413 0.53177 0.81973 0.0
O893 O 0.95413 0.50058 0.81074 0.0
H894 H 0.98144 0.58504 0.73396 0.0
H895 H 0.891 0.48163 0.81372 0.0
O896 O 0.91286 0.46465 0.73392 0.0
H897 H 0.93294 0.47102 0.99214 0.0
H898 H 0.94936 0.41091 0.82313 0.0
H899 H 0.97727 0.4762 0.75699 0.0
H900 H 0.94872 0.47534 0.89388 0.0
H901 H 0.92714 0.44038 0.80958 0.0
O902 O 0.90247 0.54565 0.78301 0.0
H903 H 0.96706 0.55115 0.75066 0.0
H904 H 0.90861 0.57269 0.7064 0.0
H905 H 1.00005 0.44717 0.7704 0.0
H906 H 0.87457 0.47709 0.9111 0.0
H907 H 0.98611 0.41423 0.80371 0.0
H908 H 0.89558 0.47182 1.00121 0.0
O909 O 0.94637 0.48803 0.69267 0.0
H910 H 0.86498 0.52314 0.61432 0.0
H911 H 0.93604 0.54517 0.61794 0.0
H912 H 0.9174 0.54533 0.52318 0.0
H913 H 0.88154 0.53431 0.52098 0.0
H914 H 0.88435 0.52291 0.70794 0.0
H915 H 0.92232 0.60686 0.68991 0.0
H916 H 0.95901 0.61319 0.70338 0.0
O917 O 0.95008 0.52157 0.69937 0.0
C918 C 0.95353 0.51789 0.83543 0.0
C919 C 0.96544 0.58246 0.7278 0.0
C920 C 0.93225 0.59471 0.70316 0.0
N921 N 0.93704 0.5599 0.72918 0.0
C922 C 0.95721 0.56329 0.73706 0.0
C923 C 0.92456 0.57534 0.71278 0.0
C924 C 0.95284 0.59825 0.7107 0.0
C925 C 0.90024 0.47914 0.85264 0.0
N926 N 0.92079 0.47867 0.84803 0.0
C927 C 0.89085 0.47665 0.90769 0.0
C928 C 0.90265 0.47371 0.95824 0.0
C929 C 0.92361 0.47325 0.95319 0.0
C930 C 0.93246 0.47575 0.89741 0.0
C931 C 0.95561 0.42519 0.80865 0.0
C932 C 0.9711 0.46195 0.77174 0.0
C933 C 0.9431 0.44192 0.80072 0.0
N934 N 0.95091 0.46003 0.78275 0.0
C935 C 0.98407 0.44555 0.77914 0.0
C936 C 0.97623 0.42707 0.79778 0.0
C937 C 0.95441 0.5046 0.67568 0.0
C938 C 0.88059 0.52796 0.61467 0.0
C939 C 0.92058 0.54009 0.61723 0.0
C940 C 0.91003 0.54035 0.5635 0.0
C941 C 0.8899 0.5342 0.56231 0.0
N942 N 0.9114 0.53385 0.66837 0.0
C943 C 0.89163 0.52791 0.66758 0.0
C944 C 0.24216 0.27676 0.13463 0.0
C945 C 0.25227 0.29522 0.14033 0.0
C946 C 0.24333 0.26213 0.17994 0.0
C947 C 0.25483 0.26621 0.23185 0.0
C948 C 0.26463 0.28511 0.23801 0.0
C949 C 0.26321 0.29935 0.19217 0.0
C950 C 0.23262 0.24219 0.17183 0.0
C951 C 0.27679 0.29025 0.2928 0.0
C952 C 0.24341 0.23779 0.37423 0.0
C953 C 0.25916 0.22361 0.37678 0.0
C954 C 0.24172 0.25147 0.32706 0.0
C955 C 0.25612 0.2511 0.28083 0.0
C956 C 0.27212 0.23692 0.28293 0.0
C957 C 0.2735 0.22336 0.331 0.0
C958 C 0.22453 0.26643 0.327 0.0
C959 C 0.28777 0.23609 0.23435 0.0
H960 H 0.23393 0.27353 0.09406 0.0
H961 H 0.27082 0.31374 0.19665 0.0
H962 H 0.24374 0.2297 0.17296 0.0
H963 H 0.2219 0.23964 0.2089 0.0
H964 H 0.22417 0.24143 0.12921 0.0
H965 H 0.28364 0.30555 0.29032 0.0
H966 H 0.26703 0.2895 0.33274 0.0
H967 H 0.28904 0.27905 0.29895 0.0
H968 H 0.23224 0.23825 0.40931 0.0
H969 H 0.28563 0.21241 0.33232 0.0
H970 H 0.21554 0.26484 0.28565 0.0
H971 H 0.2306 0.28205 0.32791 0.0
H972 H 0.21431 0.26442 0.36564 0.0
H973 H 0.28032 0.23363 0.19076 0.0
H974 H 0.29897 0.22387 0.24166 0.0
H975 H 0.29591 0.25072 0.23176 0.0
C976 C 0.98874 0.00821 0.36641 0.0
C977 C 0.96845 1.00362 0.37742 0.0
C978 C 1.0028 0.00933 0.41303 0.0
C979 C 0.99624 0.00657 0.47238 0.0
C980 C 0.97565 1.0021 0.48367 0.0
C981 C 0.96204 1.00035 0.43585 0.0
C982 C 0.02468 0.01346 0.39874 0.0
C983 C 0.9679 0.9997 0.5463 0.0
C984 C 0.0348 0.99218 0.59031 0.0
C985 C 0.04013 0.01101 0.61457 0.0
C986 C 0.02075 0.99057 0.5438 0.0
C987 C 0.01103 0.00812 0.52238 0.0
C988 C 0.01581 0.02713 0.54783 0.0
C989 C 0.03053 0.0284 0.5929 0.0
C990 C 0.01655 0.97008 0.51697 0.0
C991 C 0.00532 0.04614 0.5276 0.0
H992 H 0.9936 0.01084 0.32107 0.0
H993 H 0.94622 0.99721 0.44424 0.0
H994 H 0.02948 0.02794 0.41912 0.0
H995 H 0.03434 1.00142 0.41788 0.0
H996 H 0.02747 0.01426 0.35014 0.0
H997 H 0.95139 0.99677 0.54763 0.0
H998 H 0.97576 0.98704 0.56867 0.0
H999 H 0.97119 0.01357 0.57227 0.0
H1000 H 0.04175 0.97858 0.60718 0.0
H1001 H 0.03428 0.04299 0.61178 0.0
H1002 H 0.01969 0.97042 0.46856 0.0
H1003 H 1.00039 0.96612 0.52248 0.0
H1004 H 0.02583 0.95799 0.5375 0.0
H1005 H 0.00905 0.04923 0.48046 0.0
H1006 H 0.00971 0.05949 0.55461 0.0
H1007 H 0.98871 0.04415 0.53032 0.0
C1008 C 0.25301 0.71203 0.68694 0.0
C1009 C 0.25945 0.71888 0.63132 0.0
C1010 C 0.25055 0.72551 0.73459 0.0
C1011 C 0.25495 0.74628 0.72644 0.0
C1012 C 0.26171 0.75317 0.67022 0.0
C1013 C 0.26367 0.73938 0.62308 0.0
C1014 C 0.2431 0.71756 0.79348 0.0
C1015 C 0.26686 0.7751 0.65986 0.0
C1016 C 0.23438 0.78582 0.83391 0.0
C1017 C 0.25108 0.78914 0.87109 0.0
C1018 C 0.23524 0.77162 0.78731 0.0
C1019 C 0.25329 0.76067 0.77726 0.0
C1020 C 0.27003 0.76372 0.81523 0.0
C1021 C 0.26866 0.7777 0.8618 0.0
C1022 C 0.21694 0.76853 0.74832 0.0
C1023 C 0.28961 0.75251 0.80593 0.0
H1024 H 0.24961 0.69615 0.69286 0.0
H1025 H 0.2683 0.74465 0.57958 0.0
H1026 H 0.25474 0.72005 0.8282 0.0
H1027 H 0.22939 0.7259 0.80738 0.0
H1028 H 0.23947 0.70119 0.79168 0.0
H1029 H 0.27207 0.77798 0.61374 0.0
H1030 H 0.25346 0.78464 0.6687 0.0
H1031 H 0.27889 0.77994 0.69114 0.0
H1032 H 0.22069 0.79444 0.84075 0.0
H1033 H 0.28164 0.77986 0.89042 0.0
H1034 H 0.21271 0.75232 0.7474 0.0
H1035 H 0.22051 0.77303 0.70204 0.0
H1036 H 0.20375 0.77743 0.76374 0.0
H1037 H 0.28694 0.73599 0.80785 0.0
H1038 H 0.30121 0.75654 0.83964 0.0
H1039 H 0.29573 0.75597 0.76119 0.0
C1040 C 0.48792 0.99794 0.14032 0.0
C1041 C 0.46723 0.9988 0.12816 0.0
C1042 C 0.50218 0.99915 0.09422 0.0
C1043 C 0.49553 1.00199 0.0349 0.0
C1044 C 0.47454 1.0029 0.02268 0.0
C1045 C 0.46064 1.00105 0.06949 0.0
C1046 C 0.52434 0.99763 0.10904 0.0
C1047 C 0.4668 0.00638 0.96043 0.0
C1048 C 0.53301 0.02397 0.92337 0.0
C1049 C 0.53877 0.00671 0.89145 0.0
C1050 C 0.51883 0.02272 0.96984 0.0
C1051 C 0.51049 1.00371 0.98555 0.0
C1052 C 0.51636 0.98627 0.95382 0.0
C1053 C 0.53015 0.98801 0.90686 0.0
C1054 C 0.51263 0.04175 1.00181 0.0
C1055 C 0.5081 0.96567 0.96955 0.0
H1056 H 0.49293 0.99655 0.18602 0.0
H1057 H 0.44459 1.0022 0.06058 0.0
H1058 H 0.53139 0.98539 0.08261 0.0
H1059 H 0.53212 0.01191 0.09709 0.0
H1060 H 0.52698 0.99457 0.15695 0.0
H1061 H 0.45006 0.00715 0.95862 0.0
H1062 H 0.47307 0.02069 0.94264 0.0
H1063 H 0.47192 0.99405 0.93073 0.0
H1064 H 0.53938 0.03851 0.9116 0.0
H1065 H 0.53417 0.97456 0.88227 0.0
H1066 H 0.5165 0.04058 0.04964 0.0
H1067 H 0.49603 0.04371 0.99876 0.0
H1068 H 0.52008 0.0554 0.9833 0.0
H1069 H 0.5112 0.9623 0.01697 0.0
H1070 H 0.51474 0.95349 0.94189 0.0
H1071 H 0.49148 0.96545 0.96356 0.0
C1072 C 0.27424 0.78633 0.15436 0.0
C1073 C 0.25634 0.7947 0.13197 0.0
C1074 C 0.27379 0.77188 0.20029 0.0
C1075 C 0.25507 0.7662 0.22585 0.0
C1076 C 0.23703 0.7749 0.2042 0.0
C1077 C 0.23786 0.78864 0.15688 0.0
C1078 C 0.29331 0.76246 0.2208 0.0
C1079 C 0.21679 0.76975 0.23113 0.0
C1080 C 0.24879 0.71656 0.30947 0.0
C1081 C 0.25137 0.72277 0.36841 0.0
C1082 C 0.25051 0.73045 0.26248 0.0
C1083 C 0.25419 0.75112 0.27507 0.0
C1084 C 0.25636 0.75745 0.3349 0.0
C1085 C 0.25535 0.74311 0.38078 0.0
C1086 C 0.24876 0.72294 0.19934 0.0
C1087 C 0.2596 0.77939 0.35048 0.0
H1088 H 0.28858 0.79068 0.13505 0.0
H1089 H 0.2239 0.79468 0.13962 0.0
H1090 H 0.29595 0.76596 0.26836 0.0
H1091 H 0.29236 0.74578 0.21674 0.0
H1092 H 0.3065 0.76787 0.19478 0.0
H1093 H 0.20432 0.77876 0.21156 0.0
H1094 H 0.2134 0.75352 0.22428 0.0
H1095 H 0.21714 0.77246 0.27978 0.0
H1096 H 0.24619 0.70071 0.30007 0.0
H1097 H 0.25751 0.74779 0.42653 0.0
H1098 H 0.26239 0.72734 0.1738 0.0
H1099 H 0.23559 0.73003 0.17724 0.0
H1100 H 0.24699 0.70627 0.197 0.0
H1101 H 0.27382 0.78494 0.33025 0.0
H1102 H 0.26037 0.78191 0.39924 0.0
H1103 H 0.24712 0.78863 0.33203 0.0
C1104 C 0.47229 0.99115 0.41141 0.0
C1105 C 0.46582 0.00982 0.38871 0.0
C1106 C 0.486 0.98997 0.45871 0.0
C1107 C 0.49432 0.00789 0.4826 0.0
C1108 C 0.48842 0.02683 0.45889 0.0
C1109 C 0.47398 0.0276 0.41285 0.0
C1110 C 0.49142 0.96948 0.48347 0.0
C1111 C 0.4975 0.04625 0.4818 0.0
C1112 C 0.51611 0.00579 0.63904 0.0
C1113 C 0.53653 1.00207 0.62775 0.0
C1114 C 0.50219 0.00764 0.59225 0.0
C1115 C 0.50905 0.0066 0.53271 0.0
C1116 C 0.52982 1.00325 0.52124 0.0
C1117 C 0.54327 1.00067 0.56901 0.0
C1118 C 0.48012 0.01049 0.60653 0.0
C1119 C 0.53787 1.00271 0.45856 0.0
H1120 H 0.46659 0.97725 0.39249 0.0
H1121 H 0.46937 0.04208 0.39513 0.0
H1122 H 0.50776 0.9666 0.47733 0.0
H1123 H 0.48836 0.96906 0.53192 0.0
H1124 H 0.48282 0.95707 0.46183 0.0
H1125 H 0.49221 0.05962 0.45643 0.0
H1126 H 0.49351 0.04836 0.52923 0.0
H1127 H 0.51421 0.04555 0.47915 0.0
H1128 H 0.51102 0.0071 0.68466 0.0
H1129 H 0.5592 0.99834 0.56051 0.0
H1130 H 0.47111 0.99816 0.58606 0.0
H1131 H 0.47465 0.02491 0.58744 0.0
H1132 H 0.47721 0.01061 0.65513 0.0
H1133 H 0.53121 0.98976 0.43413 0.0
H1134 H 0.55457 1.00133 0.45732 0.0
H1135 H 0.53344 0.01665 0.43456 0.0
C1136 C 0.26432 0.24035 0.63486 0.0
C1137 C 0.25233 0.22293 0.63959 0.0
C1138 C 0.26586 0.25419 0.68184 0.0
C1139 C 0.25554 0.25035 0.73566 0.0
C1140 C 0.24346 0.23272 0.74091 0.0
C1141 C 0.2418 0.21932 0.69249 0.0
C1142 C 0.27844 0.27304 0.67358 0.0
C1143 C 0.23252 0.2279 0.79794 0.0
C1144 C 0.27432 0.27938 0.87169 0.0
C1145 C 0.25972 0.29458 0.87672 0.0
C1146 C 0.27287 0.2645 0.82707 0.0
C1147 C 0.25681 0.26525 0.78537 0.0
C1148 C 0.2423 0.28082 0.78967 0.0
C1149 C 0.24379 0.29503 0.83567 0.0
C1150 C 0.2884 0.24789 0.82483 0.0
C1151 C 0.22533 0.28266 0.74511 0.0
H1152 H 0.27246 0.24327 0.59398 0.0
H1153 H 0.23274 0.20574 0.69661 0.0
H1154 H 0.26894 0.28662 0.68041 0.0
H1155 H 0.29069 0.27355 0.70716 0.0
H1156 H 0.28533 0.27389 0.62867 0.0
H1157 H 0.22437 0.21324 0.79569 0.0
H1158 H 0.24343 0.22738 0.83537 0.0
H1159 H 0.22147 0.23997 0.80814 0.0
H1160 H 0.28659 0.2788 0.90349 0.0
H1161 H 0.23258 0.30676 0.83869 0.0
H1162 H 0.29687 0.24867 0.78243 0.0
H1163 H 0.2808 0.23295 0.82625 0.0
H1164 H 0.29933 0.24883 0.86221 0.0
H1165 H 0.23162 0.28427 0.69968 0.0
H1166 H 0.21544 0.29581 0.75426 0.0
H1167 H 0.21595 0.26878 0.74545 0.0
C1168 C 0.04794 0.00647 0.93341 0.0
C1169 C 0.04092 1.00225 0.87611 0.0
C1170 C 0.03446 0.00838 0.98117 0.0
C1171 C 0.01351 0.00548 0.97142 0.0
C1172 C 0.00647 1.00057 0.91365 0.0
C1173 C 0.02026 0.99937 0.86639 0.0
C1174 C 0.04256 0.01409 0.04162 0.0
C1175 C 0.98435 0.99687 0.90164 0.0
C1176 C 0.98113 0.99193 0.10468 0.0
C1177 C 0.97086 0.01008 0.11611 0.0
C1178 C 0.99485 0.99022 0.0576 0.0
C1179 C 0.999 0.00725 0.02179 0.0
C1180 C 0.98923 0.02582 0.034 0.0
C1181 C 0.97513 0.02698 0.08066 0.0
C1182 C 0.00468 0.97006 0.04568 0.0
C1183 C 0.99365 0.04446 0.99765 0.0
H1184 H 0.06394 0.00912 0.94033 0.0
H1185 H 0.01491 0.99646 0.82164 0.0
H1186 H 0.03538 0.02829 0.05692 0.0
H1187 H 0.03874 1.00222 0.07447 0.0
H1188 H 0.05919 0.01626 0.04143 0.0
H1189 H 0.98147 0.9923 0.85489 0.0
H1190 H 0.97857 0.98486 0.93153 0.0
H1191 H 0.97561 0.01076 0.91114 0.0
H1192 H 0.97831 0.9788 0.13214 0.0
H1193 H 0.96747 0.04112 0.08935 0.0
H1194 H 0.02131 0.97147 0.04946 0.0
H1195 H 1.00126 0.9651 0.99965 0.0
H1196 H 0.99948 0.95816 0.07693 0.0
H1197 H 0.0101 0.04766 0.99797 0.0
H1198 H 0.98554 0.05795 0.0145 0.0
H1199 H 0.98918 0.04188 0.95075 0.0
C1200 C 0.76746 0.7438 0.89746 0.0
C1201 C 0.76332 0.7234 0.88695 0.0
C1202 C 0.76634 0.75802 0.85112 0.0
C1203 C 0.76037 0.75167 0.79349 0.0
C1204 C 0.75619 0.73098 0.78298 0.0
C1205 C 0.75796 0.71706 0.82977 0.0
C1206 C 0.77137 0.77983 0.8639 0.0
C1207 C 0.74947 0.72359 0.72265 0.0
C1208 C 0.74014 0.79129 0.68546 0.0
C1209 C 0.7569 0.7945 0.64855 0.0
C1210 C 0.74097 0.7773 0.7326 0.0
C1211 C 0.75907 0.76653 0.74373 0.0
C1212 C 0.776 0.76975 0.70672 0.0
C1213 C 0.77462 0.78342 0.65935 0.0
C1214 C 0.72245 0.77396 0.77033 0.0
C1215 C 0.79567 0.75883 0.7173 0.0
H1216 H 0.7713 0.74865 0.94209 0.0
H1217 H 0.75455 0.70126 0.82209 0.0
H1218 H 0.78352 0.78506 0.8337 0.0
H1219 H 0.75797 0.78941 0.85536 0.0
H1220 H 0.77634 0.78219 0.91055 0.0
H1221 H 0.74608 0.70715 0.72245 0.0
H1222 H 0.73575 0.73186 0.70838 0.0
H1223 H 0.76138 0.72665 0.68925 0.0
H1224 H 0.72634 0.7996 0.67737 0.0
H1225 H 0.78764 0.78546 0.63092 0.0
H1226 H 0.72581 0.77783 0.81726 0.0
H1227 H 0.71807 0.75778 0.7692 0.0
H1228 H 0.70943 0.78316 0.75519 0.0
H1229 H 0.80105 0.76169 0.76325 0.0
H1230 H 0.80765 0.76357 0.68574 0.0
H1231 H 0.79336 0.74231 0.71279 0.0
C1232 C 0.75423 0.30063 0.32215 0.0
C1233 C 0.74916 0.29418 0.37939 0.0
C1234 C 0.75529 0.28685 0.27477 0.0
C1235 C 0.75079 0.2662 0.28486 0.0
C1236 C 0.74516 0.25977 0.34262 0.0
C1237 C 0.74471 0.27382 0.38947 0.0
C1238 C 0.76169 0.29431 0.21428 0.0
C1239 C 0.73986 0.238 0.35506 0.0
C1240 C 0.73514 0.23455 0.15163 0.0
C1241 C 0.75261 0.22318 0.14008 0.0
C1242 C 0.73433 0.24839 0.19874 0.0
C1243 C 0.75157 0.25143 0.23476 0.0
C1244 C 0.76943 0.2404 0.22275 0.0
C1245 C 0.76971 0.22629 0.17584 0.0
C1246 C 0.71491 0.25962 0.21027 0.0
C1247 C 0.78826 0.2435 0.2595 0.0
H1248 H 0.75807 0.31636 0.31494 0.0
H1249 H 0.74115 0.26888 0.43418 0.0
H1250 H 0.7753 0.28601 0.19937 0.0
H1251 H 0.74959 0.29131 0.18131 0.0
H1252 H 0.76512 0.31073 0.21418 0.0
H1253 H 0.73513 0.23559 0.40185 0.0
H1254 H 0.72745 0.23303 0.32526 0.0
H1255 H 0.75306 0.22824 0.34572 0.0
H1256 H 0.72186 0.23256 0.12411 0.0
H1257 H 0.78332 0.21775 0.16717 0.0
H1258 H 0.71749 0.27612 0.20631 0.0
H1259 H 0.70968 0.25666 0.25626 0.0
H1260 H 0.70271 0.25521 0.17891 0.0
H1261 H 0.79277 0.25964 0.25858 0.0
H1262 H 0.80109 0.23423 0.2434 0.0
H1263 H 0.78521 0.23952 0.30651 0.0
C1264 C 0.75265 0.24202 0.88934 0.0
C1265 C 0.74664 0.22209 0.8783 0.0
C1266 C 0.75447 0.25604 0.84281 0.0
C1267 C 0.75099 0.24974 0.78348 0.0
C1268 C 0.74514 0.22947 0.77215 0.0
C1269 C 0.7427 0.21596 0.81989 0.0
C1270 C 0.76006 0.2776 0.8572 0.0
C1271 C 0.74195 0.22195 0.70953 0.0
C1272 C 0.73833 0.28913 0.66622 0.0
C1273 C 0.7573 0.29329 0.6411 0.0
C1274 C 0.73614 0.27524 0.71287 0.0
C1275 C 0.75317 0.26446 0.73356 0.0
C1276 C 0.77228 0.26807 0.70725 0.0
C1277 C 0.77418 0.28267 0.66208 0.0
C1278 C 0.71559 0.27231 0.74062 0.0
C1279 C 0.79071 0.25643 0.72662 0.0
H1280 H 0.75578 0.24667 0.93464 0.0
H1281 H 0.73844 0.20041 0.81142 0.0
H1282 H 0.77467 0.28151 0.83614 0.0
H1283 H 0.74853 0.28802 0.83882 0.0
H1284 H 0.76135 0.28027 0.90579 0.0
H1285 H 0.73811 0.20562 0.70811 0.0
H1286 H 0.72961 0.23052 0.6879 0.0
H1287 H 0.75581 0.22451 0.68293 0.0
H1288 H 0.72509 0.2969 0.64993 0.0
H1289 H 0.78886 0.28551 0.64256 0.0
H1290 H 0.71643 0.27534 0.78906 0.0
H1291 H 0.71058 0.25645 0.73503 0.0
H1292 H 0.70401 0.28238 0.72081 0.0
H1293 H 0.79428 0.25993 0.77366 0.0
H1294 H 0.80416 0.26002 0.6991 0.0
H1295 H 0.7877 0.23997 0.72382 0.0
C1296 C 0.77123 0.72859 0.17365 0.0
C1297 C 0.7527 0.72266 0.14858 0.0
C1298 C 0.7722 0.74248 0.22061 0.0
C1299 C 0.75426 0.75149 0.24177 0.0
C1300 C 0.7355 0.74606 0.21577 0.0
C1301 C 0.7349 0.73147 0.17014 0.0
C1302 C 0.79248 0.74738 0.24788 0.0
C1303 C 0.71611 0.75584 0.23569 0.0
C1304 C 0.75493 0.77423 0.39731 0.0
C1305 C 0.75964 0.79444 0.38546 0.0
C1306 C 0.75315 0.76008 0.35101 0.0
C1307 C 0.75533 0.76651 0.29129 0.0
C1308 C 0.75957 0.78711 0.27921 0.0
C1309 C 0.76204 0.80077 0.32659 0.0
C1310 C 0.74933 0.7382 0.36608 0.0
C1311 C 0.76136 0.79474 0.21626 0.0
H1312 H 0.78515 0.7223 0.15688 0.0
H1313 H 0.72053 0.72726 0.15064 0.0
H1314 H 0.79607 0.76358 0.24129 0.0
H1315 H 0.79206 0.74461 0.29649 0.0
H1316 H 0.80487 0.73825 0.22839 0.0
H1317 H 0.70291 0.75071 0.20912 0.0
H1318 H 0.71325 0.75231 0.2831 0.0
H1319 H 0.71739 0.7725 0.23193 0.0
H1320 H 0.75298 0.76944 0.44302 0.0
H1321 H 0.76527 0.81653 0.3176 0.0
H1322 H 0.76174 0.72874 0.3483 0.0
H1323 H 0.73514 0.73296 0.34486 0.0
H1324 H 0.74821 0.73564 0.41475 0.0
H1325 H 0.77454 0.78768 0.19424 0.0
H1326 H 0.76316 0.8114 0.21431 0.0
H1327 H 0.74775 0.7904 0.19038 0.0
C1328 C 0.54866 0.50815 0.07026 0.0
C1329 C 0.54205 0.51004 0.12899 0.0
C1330 C 0.53475 0.50565 0.02355 0.0
C1331 C 0.51376 0.50557 0.03593 0.0
C1332 C 0.50711 0.50752 0.09551 0.0
C1333 C 0.52138 0.50941 0.14145 0.0
C1334 C 0.54251 0.50317 0.96096 0.0
C1335 C 0.48493 0.50805 0.1106 0.0
C1336 C 0.47898 0.52287 0.91196 0.0
C1337 C 0.46996 0.50474 0.89287 0.0
C1338 C 0.49295 0.52329 0.95872 0.0
C1339 C 0.49876 0.50504 0.9863 0.0
C1340 C 0.49018 0.48656 0.96656 0.0
C1341 C 0.47569 0.48664 0.92052 0.0
C1342 C 0.50137 0.54339 0.97886 0.0
C1343 C 0.4964 0.46673 0.99385 0.0
H1344 H 0.56472 0.50824 0.0611 0.0
H1345 H 0.5164 0.51065 0.18718 0.0
H1346 H 0.53572 0.48956 0.94017 0.0
H1347 H 0.53799 0.51636 0.93369 0.0
H1348 H 0.55921 0.5018 0.95946 0.0
H1349 H 0.48226 0.50928 0.15919 0.0
H1350 H 0.47771 0.52112 0.0883 0.0
H1351 H 0.47733 0.49422 0.09395 0.0
H1352 H 0.47508 0.53697 0.89057 0.0
H1353 H 0.46906 0.47253 0.90578 0.0
H1354 H 0.51797 0.5437 0.97256 0.0
H1355 H 0.49844 0.54556 0.02697 0.0
H1356 H 0.49471 0.55629 0.95421 0.0
H1357 H 0.513 0.46487 0.99039 0.0
H1358 H 0.48893 0.45363 0.97208 0.0
H1359 H 0.49256 0.46658 0.04179 0.0
C1360 C 0.01934 0.50402 0.37646 0.0
C1361 C 0.03975 0.50856 0.38604 0.0
C1362 C 0.00569 0.50305 0.42405 0.0
C1363 C 0.01279 0.50586 0.4829 0.0
C1364 C 0.03352 0.51007 0.49278 0.0
C1365 C 0.0467 0.51175 0.44405 0.0
C1366 C 0.98363 0.49927 0.41126 0.0
C1367 C 0.04184 0.5125 0.55485 0.0
C1368 C 0.97574 0.5229 0.60125 0.0
C1369 C 0.96972 0.50456 0.62725 0.0
C1370 C 0.9895 0.52346 0.55403 0.0
C1371 C 0.99833 0.50532 0.53369 0.0
C1372 C 0.99297 0.48678 0.56107 0.0
C1373 C 0.97848 0.48658 0.60688 0.0
C1374 C 0.99431 0.5435 0.52522 0.0
C1375 C 1.00259 0.46719 0.54206 0.0
H1376 H 0.01403 0.50146 0.33148 0.0
H1377 H 0.06259 0.51483 0.4514 0.0
H1378 H 0.97859 0.48521 0.43352 0.0
H1379 H 0.97443 0.51182 0.42945 0.0
H1380 H 0.98049 0.4979 0.36293 0.0
H1381 H 0.05848 0.51453 0.55514 0.0
H1382 H 0.03485 0.52576 0.57672 0.0
H1383 H 0.03799 0.49904 0.58195 0.0
H1384 H 0.96955 0.53698 0.61725 0.0
H1385 H 0.97422 0.47236 0.62717 0.0
H1386 H 0.99095 0.54277 0.47695 0.0
H1387 H 0.01062 0.54695 0.52994 0.0
H1388 H 0.98557 0.55614 0.54488 0.0
H1389 H 0.99838 0.46372 0.49545 0.0
H1390 H 0.99791 0.45431 0.57056 0.0
H1391 H 0.01928 0.46858 0.54365 0.0
C1392 C 0.0304 0.52828 0.11094 0.0
C1393 C 0.03812 0.50894 0.12303 0.0
C1394 C 0.01648 0.53149 0.06479 0.0
C1395 C 0.00957 0.51491 0.03066 0.0
C1396 C 0.01684 0.49527 0.04353 0.0
C1397 C 0.03115 0.49255 0.08911 0.0
C1398 C 0.00937 0.55269 0.05205 0.0
C1399 C 0.00953 0.47711 0.00904 0.0
C1400 C 0.96038 0.51931 0.94366 0.0
C1401 C 0.96747 0.52115 0.8854 0.0
C1402 C 0.97389 0.51758 0.99161 0.0
C1403 C 0.99497 0.51812 0.98092 0.0
C1404 C 1.00212 0.52096 0.92216 0.0
C1405 C 0.98826 0.52208 0.87495 0.0
C1406 C 0.96561 0.51408 0.0532 0.0
C1407 C 0.02442 0.52204 0.90886 0.0
H1408 H 0.03536 0.54106 0.13721 0.0
H1409 H 0.03678 0.47752 0.09835 0.0
H1410 H 0.01307 0.55682 0.00554 0.0
H1411 H 0.99273 0.55356 0.05667 0.0
H1412 H 0.01635 0.564 0.08226 0.0
H1413 H 0.01586 0.46276 0.02641 0.0
H1414 H 0.99281 0.47621 0.01076 0.0
H1415 H 0.01384 0.47863 0.96165 0.0
H1416 H 0.94426 0.51806 0.95129 0.0
H1417 H 0.99367 0.52309 0.82958 0.0
H1418 H 0.97188 0.52536 0.08468 0.0
H1419 H 0.97028 0.49895 0.06918 0.0
H1420 H 0.94887 0.51494 0.05444 0.0
H1421 H 0.03183 0.53337 0.93801 0.0
H1422 H 0.02744 0.52608 0.86179 0.0
H1423 H 0.03152 0.50723 0.91822 0.0
C1424 C 0.48181 0.49677 0.6184 0.0
C1425 C 0.4719 0.51481 0.63361 0.0
C1426 C 0.49543 0.49585 0.57103 0.0
C1427 C 0.50008 0.5136 0.53904 0.0
C1428 C 0.49083 0.5321 0.55534 0.0
C1429 C 0.47663 0.53245 0.60198 0.0
C1430 C 0.50456 0.47572 0.55457 0.0
C1431 C 0.49593 0.55147 0.52343 0.0
C1432 C 0.54897 0.51041 0.45106 0.0
C1433 C 0.54176 0.50712 0.39344 0.0
C1434 C 0.53556 0.51349 0.49849 0.0
C1435 C 0.51446 0.51248 0.4882 0.0
C1436 C 0.50718 0.50885 0.42989 0.0
C1437 C 0.52096 0.50662 0.38293 0.0
C1438 C 0.54396 0.51792 0.55951 0.0
C1439 C 0.48487 0.50698 0.41727 0.0
H1440 H 0.47875 0.48306 0.643 0.0
H1441 H 0.46929 0.5465 0.61369 0.0
H1442 H 0.5012 0.47217 0.50739 0.0
H1443 H 0.52121 0.47636 0.55928 0.0
H1444 H 0.49878 0.46318 0.58263 0.0
H1445 H 0.48847 0.56478 0.54385 0.0
H1446 H 0.5125 0.55395 0.52379 0.0
H1447 H 0.49117 0.55042 0.47628 0.0
H1448 H 0.56512 0.5112 0.45862 0.0
H1449 H 0.5155 0.50433 0.33798 0.0
H1450 H 0.54042 0.50525 0.59 0.0
H1451 H 0.5368 0.53167 0.57808 0.0
H1452 H 0.56058 0.52016 0.55887 0.0
H1453 H 0.4784 0.49439 0.44366 0.0
H1454 H 0.4817 0.50416 0.3695 0.0
H1455 H 0.47697 0.52097 0.43094 0.0
C1456 C 0.14563 0.45753 0.16953 0.0
C1457 C 0.12518 0.4527 0.16197 0.0
C1458 C 0.16067 0.4428 0.16238 0.0
C1459 C 0.15517 0.42296 0.14511 0.0
C1460 C 0.13453 0.41819 0.1359 0.0
C1461 C 0.11975 0.43301 0.14569 0.0
C1462 C 0.1824 0.44833 0.17468 0.0
C1463 C 0.12806 0.39744 0.11549 0.0
C1464 C 0.19476 0.39031 0.07002 0.0
C1465 C 0.19909 0.376 0.11424 0.0
C1466 C 0.18057 0.40566 0.07957 0.0
C1467 C 0.17099 0.40729 0.13552 0.0
C1468 C 0.17605 0.39351 0.18138 0.0
C1469 C 0.18976 0.37778 0.16982 0.0
C1470 C 0.17519 0.41957 0.02883 0.0
C1471 C 0.16673 0.39518 0.24232 0.0
H1472 H 0.14981 0.47266 0.18335 0.0
H1473 H 0.10392 0.42926 0.14016 0.0
H1474 H 0.18865 0.43822 0.20941 0.0
H1475 H 0.19162 0.44617 0.13412 0.0
H1476 H 0.1841 0.46423 0.18973 0.0
H1477 H 0.11153 0.39647 0.10754 0.0
H1478 H 0.13603 0.39341 0.07381 0.0
H1479 H 0.13224 0.38602 0.14932 0.0
H1480 H 0.20173 0.38896 0.02668 0.0
H1481 H 0.19309 0.3668 0.20415 0.0
H1482 H 0.17778 0.43552 0.04179 0.0
H1483 H 0.15891 0.41797 0.01807 0.0
H1484 H 0.18409 0.41635 0.98812 0.0
H1485 H 0.16841 0.41081 0.2595 0.0
H1486 H 0.17368 0.38457 0.27458 0.0
H1487 H 0.15034 0.39189 0.23966 0.0
C1488 C 0.80033 0.89952 0.38036 0.0
C1489 C 0.80701 0.88366 0.41667 0.0
C1490 C 0.81325 0.9157 0.36574 0.0
C1491 C 0.83332 0.91594 0.38767 0.0
C1492 C 0.84006 0.90003 0.42455 0.0
C1493 C 0.82686 0.88417 0.4386 0.0
C1494 C 0.80551 0.93242 0.32638 0.0
C1495 C 0.86138 0.89953 0.44841 0.0
C1496 C 0.87494 0.94283 0.30339 0.0
C1497 C 0.87859 0.95993 0.33887 0.0
C1498 C 0.85985 0.92883 0.31778 0.0
C1499 C 0.84787 0.93194 0.36889 0.0
C1500 C 0.85096 0.94946 0.40402 0.0
C1501 C 0.86632 0.96327 0.38865 0.0
C1502 C 0.85719 0.91033 0.2792 0.0
C1503 C 0.8384 0.95334 0.45869 0.0
H1504 H 0.78499 0.89937 0.36361 0.0
H1505 H 0.83224 0.87204 0.46671 0.0
H1506 H 0.80781 0.94725 0.34829 0.0
H1507 H 0.81415 0.93268 0.28421 0.0
H1508 H 0.78923 0.93062 0.31571 0.0
H1509 H 0.86402 0.88649 0.47845 0.0
H1510 H 0.87223 0.89862 0.411 0.0
H1511 H 0.86473 0.91364 0.47312 0.0
H1512 H 0.88411 0.94013 0.26437 0.0
H1513 H 0.8689 0.97647 0.4161 0.0
H1514 H 0.84126 0.90892 0.26461 0.0
H1515 H 0.86088 0.89659 0.30519 0.0
H1516 H 0.86699 0.9107 0.23919 0.0
H1517 H 0.8221 0.95231 0.44768 0.0
H1518 H 0.84151 0.96841 0.47845 0.0
H1519 H 0.8416 0.94162 0.49259 0.0
C1520 C 0.30276 0.61811 0.62504 0.0
C1521 C 0.30768 0.63299 0.58309 0.0
C1522 C 0.31649 0.60263 0.63932 0.0
C1523 C 0.33563 0.60208 0.61127 0.0
C1524 C 0.34054 0.6169 0.56834 0.0
C1525 C 0.32654 0.63208 0.55473 0.0
C1526 C 0.31066 0.58707 0.68517 0.0
C1527 C 0.36081 0.61703 0.53772 0.0
C1528 C 0.37999 0.57813 0.69147 0.0
C1529 C 0.38224 0.55967 0.66142 0.0
C1530 C 0.36472 0.59181 0.6762 0.0
C1531 C 0.35117 0.587 0.62967 0.0
C1532 C 0.35315 0.56833 0.59936 0.0
C1533 C 0.36869 0.55489 0.6155 0.0
C1534 C 0.3633 0.61157 0.70948 0.0
C1535 C 0.33895 0.56265 0.54958 0.0
H1536 H 0.28819 0.61857 0.64688 0.0
H1537 H 0.33054 0.64341 0.52211 0.0
H1538 H 0.31267 0.57165 0.66688 0.0
H1539 H 0.3207 0.58843 0.72445 0.0
H1540 H 0.29478 0.58877 0.70006 0.0
H1541 H 0.36193 0.62902 0.50338 0.0
H1542 H 0.37296 0.61947 0.57096 0.0
H1543 H 0.36364 0.60222 0.51633 0.0
H1544 H 0.39028 0.58205 0.7271 0.0
H1545 H 0.37019 0.54064 0.59223 0.0
H1546 H 0.34805 0.61324 0.72917 0.0
H1547 H 0.36553 0.62435 0.67832 0.0
H1548 H 0.37468 0.61279 0.74559 0.0
H1549 H 0.3231 0.56334 0.56529 0.0
H1550 H 0.34195 0.54727 0.53207 0.0
H1551 H 0.34044 0.57363 0.51263 0.0
C1552 C 0.68015 0.13205 0.94417 0.0
C1553 C 0.69888 0.13347 0.91521 0.0
C1554 C 0.66643 0.11653 0.93098 0.0
C1555 C 0.67145 0.10189 0.88769 0.0
C1556 C 0.69039 0.10304 0.85858 0.0
C1557 C 0.70388 0.11884 0.87262 0.0
C1558 C 0.64638 0.11599 0.96289 0.0
C1559 C 0.69629 0.08771 0.8122 0.0
C1560 C 0.63969 0.05372 0.88925 0.0
C1561 C 0.62522 0.05794 0.84543 0.0
C1562 C 0.65523 0.0676 0.90236 0.0
C1563 C 0.6563 0.08614 0.871 0.0
C1564 C 0.64193 0.09029 0.8261 0.0
C1565 C 0.62665 0.0762 0.8139 0.0
C1566 C 0.67027 0.06261 0.95052 0.0
C1567 C 0.64241 0.10987 0.79173 0.0
H1568 H 0.67606 0.14316 0.97731 0.0
H1569 H 0.71834 0.1197 0.85026 0.0
H1570 H 0.63391 0.11772 0.93037 0.0
H1571 H 0.64429 0.10119 0.98512 0.0
H1572 H 0.64505 0.12811 0.99678 0.0
H1573 H 0.71188 0.09015 0.79553 0.0
H1574 H 0.6952 0.07224 0.83086 0.0
H1575 H 0.6857 0.08849 0.77407 0.0
H1576 H 0.63884 0.03963 0.91357 0.0
H1577 H 0.61569 0.07963 0.77963 0.0
H1578 H 0.66873 0.0735 0.98771 0.0
H1579 H 0.68588 0.06407 0.93321 0.0
H1580 H 0.66817 0.0471 0.96822 0.0
H1581 H 0.63988 0.12274 0.8224 0.0
H1582 H 0.63076 0.11038 0.75624 0.0
H1583 H 0.65746 0.11208 0.77113 0.0
C1584 C 0.13953 0.56341 0.31701 0.0
C1585 C 0.12547 0.55967 0.36239 0.0
C1586 C 0.1562 0.57615 0.3263 0.0
C1587 C 0.15923 0.58502 0.38282 0.0
C1588 C 0.14562 0.58058 0.42962 0.0
C1589 C 0.12874 0.56818 0.41863 0.0
C1590 C 0.17003 0.58083 0.2748 0.0
C1591 C 0.1486 0.58935 0.49092 0.0
C1592 C 0.21097 0.60738 0.41797 0.0
C1593 C 0.20729 0.62813 0.41216 0.0
C1594 C 0.19548 0.59315 0.40878 0.0
C1595 C 0.17599 0.59981 0.39196 0.0
C1596 C 0.17241 0.62072 0.38401 0.0
C1597 C 0.18802 0.63462 0.39497 0.0
C1598 C 0.19979 0.57105 0.41891 0.0
C1599 C 0.15201 0.62845 0.36464 0.0
H1600 H 0.13704 0.55712 0.27315 0.0
H1601 H 0.11798 0.56532 0.45389 0.0
H1602 H 0.16917 0.59715 0.26408 0.0
H1603 H 0.18591 0.57751 0.28686 0.0
H1604 H 0.16606 0.57206 0.23431 0.0
H1605 H 0.13778 0.58301 0.52367 0.0
H1606 H 0.1642 0.58641 0.50671 0.0
H1607 H 0.1466 0.60597 0.48939 0.0
H1608 H 0.22575 0.60229 0.43216 0.0
H1609 H 0.18509 0.65065 0.39048 0.0
H1610 H 0.19624 0.56223 0.3783 0.0
H1611 H 0.18997 0.56521 0.45494 0.0
H1612 H 0.21579 0.56829 0.43126 0.0
H1613 H 0.14729 0.62091 0.32281 0.0
H1614 H 0.15201 0.64504 0.35743 0.0
H1615 H 0.14054 0.62477 0.39881 0.0
C1616 C 0.62481 0.93962 0.65016 0.0
C1617 C 0.63145 0.95878 0.66829 0.0
C1618 C 0.63856 0.92399 0.63869 0.0
C1619 C 0.65949 0.92743 0.64684 0.0
C1620 C 0.66633 0.94685 0.66421 0.0
C1621 C 0.65224 0.96236 0.67411 0.0
C1622 C 0.63062 0.90369 0.61883 0.0
C1623 C 0.68847 0.95103 0.67436 0.0
C1624 C 0.69085 0.88007 0.67364 0.0
C1625 C 0.69942 0.87685 0.61753 0.0
C1626 C 0.67844 0.89691 0.68444 0.0
C1627 C 0.6741 0.91057 0.63765 0.0
C1628 C 0.68294 0.90751 0.58117 0.0
C1629 C 0.69562 0.89085 0.572 0.0
C1630 C 0.66963 0.89986 0.74564 0.0
C1631 C 0.6784 0.92141 0.5297 0.0
H1632 H 0.60876 0.93676 0.64561 0.0
H1633 H 0.65746 0.97705 0.68896 0.0
H1634 H 0.63813 0.89902 0.57699 0.0
H1635 H 0.63415 0.8921 0.65283 0.0
H1636 H 0.61404 0.90381 0.61145 0.0
H1637 H 0.69139 0.96703 0.68657 0.0
H1638 H 0.6942 0.94119 0.7105 0.0
H1639 H 0.69723 0.94739 0.63381 0.0
H1640 H 0.69375 0.86937 0.70904 0.0
H1641 H 0.70198 0.8884 0.52825 0.0
H1642 H 0.65299 0.89815 0.74378 0.0
H1643 H 0.67289 0.91536 0.7618 0.0
H1644 H 0.67569 0.88884 0.77829 0.0
H1645 H 0.66205 0.92072 0.51905 0.0
H1646 H 0.68706 0.91738 0.48917 0.0
H1647 H 0.68196 0.93725 0.5418 0.0
C1648 C 0.36879 0.45997 0.89784 0.0
C1649 C 0.38075 0.45837 0.84668 0.0
C1650 C 0.35363 0.4456 0.9101 0.0
C1651 C 0.35036 0.42931 0.87024 0.0
C1652 C 0.36198 0.42801 0.81777 0.0
C1653 C 0.37694 0.4425 0.80667 0.0
C1654 C 0.34148 0.44752 0.96646 0.0
C1655 C 0.35907 0.41092 0.77406 0.0
C1656 C 0.32966 0.37965 0.92863 0.0
C1657 C 0.3095 0.3801 0.90929 0.0
C1658 C 0.34292 0.39568 0.91698 0.0
C1659 C 0.33595 0.41272 0.88513 0.0
C1660 C 0.31566 0.41328 0.8651 0.0
C1661 C 0.30267 0.39693 0.87729 0.0
C1662 C 0.36448 0.39432 0.93859 0.0
C1663 C 0.30769 0.43117 0.83095 0.0
H1664 H 0.37151 0.47222 0.9288 0.0
H1665 H 0.38583 0.4412 0.76649 0.0
H1666 H 0.32511 0.44689 0.95624 0.0
H1667 H 0.34489 0.43465 0.99634 0.0
H1668 H 0.34477 0.46179 0.99056 0.0
H1669 H 0.36853 0.41273 0.73368 0.0
H1670 H 0.36301 0.39637 0.79553 0.0
H1671 H 0.34302 0.40993 0.76027 0.0
H1672 H 0.33514 0.36673 0.95328 0.0
H1673 H 0.28709 0.39751 0.86267 0.0
H1674 H 0.3681 0.40744 0.96735 0.0
H1675 H 0.37495 0.3948 0.9002 0.0
H1676 H 0.36738 0.38025 0.96406 0.0
H1677 H 0.30981 0.44518 0.8573 0.0
H1678 H 0.29142 0.42955 0.81984 0.0
H1679 H 0.31631 0.43305 0.7891 0.0
C1680 C 0.81819 0.13831 0.16575 0.0
C1681 C 0.81027 0.14153 0.10876 0.0
C1682 C 0.8311 0.12191 0.17734 0.0
C1683 C 0.83668 0.10876 0.13043 0.0
C1684 C 0.82865 0.11193 0.07288 0.0
C1685 C 0.81537 0.12807 0.06295 0.0
C1686 C 0.83891 0.11876 0.23966 0.0
C1687 C 0.83456 0.09861 0.02129 0.0
C1688 C 0.88599 0.0799 0.14879 0.0
C1689 C 0.87913 0.06045 0.16306 0.0
C1690 C 0.87236 0.09563 0.13697 0.0
C1691 C 0.85131 0.092 0.14112 0.0
C1692 C 0.8443 0.07238 0.15544 0.0
C1693 C 0.85828 0.05679 0.16547 0.0
C1694 C 0.88048 0.11617 0.12032 0.0
C1695 C 0.82204 0.06797 0.16164 0.0
H1696 H 0.81428 0.14862 0.20132 0.0
H1697 H 0.80952 0.13058 0.01856 0.0
H1698 H 0.83559 0.10314 0.25455 0.0
H1699 H 0.85554 0.12068 0.24048 0.0
H1700 H 0.83216 0.12952 0.27186 0.0
H1701 H 0.82688 0.103 0.97936 0.0
H1702 H 0.85112 0.09948 0.01433 0.0
H1703 H 0.83083 0.08264 0.03115 0.0
H1704 H 0.90209 0.08282 0.14689 0.0
H1705 H 0.85286 0.04187 0.17732 0.0
H1706 H 0.87605 0.12744 0.15431 0.0
H1707 H 0.87388 0.1211 0.07739 0.0
H1708 H 0.89719 0.11628 0.11634 0.0
H1709 H 0.81546 0.07778 0.19654 0.0
H1710 H 0.81903 0.05196 0.17343 0.0
H1711 H 0.81408 0.07145 0.11951 0.0
C1712 C 0.82276 0.63263 0.93139 0.0
C1713 C 0.80195 0.62913 0.92522 0.0
C1714 C 0.83694 0.61765 0.91752 0.0
C1715 C 0.83024 0.59858 0.89691 0.0
C1716 C 0.80927 0.59493 0.89018 0.0
C1717 C 0.79537 0.61027 0.90426 0.0
C1718 C 0.85914 0.62229 0.92475 0.0
C1719 C 0.80153 0.57481 0.86831 0.0
C1720 C 0.86859 0.56904 0.80699 0.0
C1721 C 0.87678 0.55586 0.84958 0.0
C1722 C 0.85307 0.58253 0.82142 0.0
C1723 C 0.84534 0.5829 0.87994 0.0
C1724 C 0.85301 0.56919 0.92277 0.0
C1725 C 0.86865 0.55583 0.9071 0.0
C1726 C 0.8454 0.59686 0.77435 0.0
C1727 C 0.84509 0.56907 0.98559 0.0
H1728 H 0.82806 0.64715 0.94731 0.0
H1729 H 0.77934 0.60734 0.89972 0.0
H1730 H 0.86619 0.61121 0.95529 0.0
H1731 H 0.86688 0.62092 0.88125 0.0
H1732 H 0.86186 0.63772 0.94249 0.0
H1733 H 0.78478 0.5742 0.86664 0.0
H1734 H 0.8075 0.57172 0.82319 0.0
H1735 H 0.807 0.56256 0.89779 0.0
H1736 H 0.87454 0.56911 0.76217 0.0
H1737 H 0.87479 0.54568 0.94024 0.0
H1738 H 0.84895 0.61263 0.78734 0.0
H1739 H 0.82876 0.59565 0.77034 0.0
H1740 H 0.8522 0.59389 0.73012 0.0
H1741 H 0.84886 0.58359 0.00761 0.0
H1742 H 0.85153 0.55656 0.01237 0.0
H1743 H 0.8284 0.56765 0.98544 0.0
C1744 C 0.20696 0.1206 0.64305 0.0
C1745 C 0.20396 0.13443 0.59671 0.0
C1746 C 0.19235 0.10573 0.65606 0.0
C1747 C 0.17433 0.10476 0.62205 0.0
C1748 C 0.17138 0.11851 0.57486 0.0
C1749 C 0.18618 0.13307 0.56276 0.0
C1750 C 0.19605 0.09125 0.7066 0.0
C1751 C 0.15238 0.11812 0.53761 0.0
C1752 C 0.14053 0.05809 0.61948 0.0
C1753 C 0.12506 0.06376 0.65855 0.0
C1754 C 0.15701 0.07101 0.60851 0.0
C1755 C 0.158 0.09007 0.63704 0.0
C1756 C 0.14249 0.09578 0.67679 0.0
C1757 C 0.12628 0.08258 0.6871 0.0
C1758 C 0.17326 0.06437 0.56587 0.0
C1759 C 0.14282 0.11603 0.70771 0.0
H1760 H 0.22066 0.12143 0.66934 0.0
H1761 H 0.18365 0.14351 0.52655 0.0
H1762 H 0.18443 0.09342 0.74146 0.0
H1763 H 0.19468 0.07545 0.69064 0.0
H1764 H 0.21119 0.09334 0.72695 0.0
H1765 H 0.15266 0.12953 0.50146 0.0
H1766 H 0.15029 0.10297 0.51747 0.0
H1767 H 0.13906 0.12107 0.56613 0.0
H1768 H 0.13985 0.04351 0.59768 0.0
H1769 H 0.11447 0.08711 0.71758 0.0
H1770 H 0.18828 0.06541 0.58748 0.0
H1771 H 0.17352 0.07456 0.52678 0.0
H1772 H 0.17093 0.04864 0.55004 0.0
H1773 H 0.15721 0.118 0.73232 0.0
H1774 H 0.1301 0.11781 0.73938 0.0
H1775 H 0.14195 0.1283 0.67429 0.0
C1776 C 0.69415 0.38285 0.34999 0.0
C1777 C 0.70321 0.38051 0.40587 0.0
C1778 C 0.6819 0.39964 0.3374 0.0
C1779 C 0.67813 0.41416 0.38234 0.0
C1780 C 0.6876 0.41208 0.43844 0.0
C1781 C 0.70022 0.39546 0.44924 0.0
C1782 C 0.67254 0.40155 0.27649 0.0
C1783 C 0.68363 0.4269 0.48806 0.0
C1784 C 0.65587 0.46521 0.33949 0.0
C1785 C 0.63513 0.46172 0.34701 0.0
C1786 C 0.67006 0.44991 0.35087 0.0
C1787 C 0.66341 0.43084 0.37172 0.0
C1788 C 0.64254 0.42753 0.38145 0.0
C1789 C 0.62865 0.44289 0.36819 0.0
C1790 C 0.6921 0.45391 0.33858 0.0
C1791 C 0.63481 0.40763 0.40506 0.0
H1792 H 0.69644 0.37139 0.31626 0.0
H1793 H 0.70697 0.39369 0.49281 0.0
H1794 H 0.65594 0.39966 0.27972 0.0
H1795 H 0.67545 0.41682 0.25808 0.0
H1796 H 0.67846 0.39011 0.24492 0.0
H1797 H 0.69286 0.42368 0.5282 0.0
H1798 H 0.68688 0.44252 0.47314 0.0
H1799 H 0.66744 0.42629 0.50055 0.0
H1800 H 0.66095 0.47963 0.32229 0.0
H1801 H 0.61265 0.44012 0.37408 0.0
H1802 H 0.69753 0.44341 0.30367 0.0
H1803 H 0.70123 0.45104 0.37902 0.0
H1804 H 0.69489 0.46965 0.32364 0.0
H1805 H 0.63796 0.39544 0.37259 0.0
H1806 H 0.61831 0.40792 0.41382 0.0
H1807 H 0.64276 0.4037 0.44689 0.0
C1808 C 0.3565 0.96531 0.1306 0.0
C1809 C 0.37387 0.95929 0.16158 0.0
C1810 C 0.3413 0.95123 0.1158 0.0
C1811 C 0.34355 0.93071 0.1324 0.0
C1812 C 0.36107 0.9246 0.16345 0.0
C1813 C 0.37597 0.93889 0.17739 0.0
C1814 C 0.32288 0.95829 0.08233 0.0
C1815 C 0.36419 0.90287 0.18174 0.0
C1816 C 0.2993 0.89386 0.14 0.0
C1817 C 0.30207 0.88265 0.08777 0.0
C1818 C 0.31224 0.91007 0.15423 0.0
C1819 C 0.3282 0.91525 0.11511 0.0
C1820 C 0.33058 0.90442 0.06143 0.0
C1821 C 0.31757 0.88828 0.04855 0.0
C1822 C 0.30927 0.92122 0.21203 0.0
C1823 C 0.34731 0.90944 0.01831 0.0
H1824 H 0.35467 0.98102 0.11839 0.0
H1825 H 0.38934 0.93396 0.20093 0.0
H1826 H 0.32179 0.95025 0.03918 0.0
H1827 H 0.30905 0.95459 0.10787 0.0
H1828 H 0.32318 0.9748 0.0737 0.0
H1829 H 0.37835 0.90072 0.20746 0.0
H1830 H 0.35132 0.89764 0.20922 0.0
H1831 H 0.36476 0.8931 0.14175 0.0
H1832 H 0.28731 0.88971 0.17037 0.0
H1833 H 0.31972 0.87993 0.00761 0.0
H1834 H 0.30858 0.93772 0.20396 0.0
H1835 H 0.32234 0.91843 0.24177 0.0
H1836 H 0.29528 0.91643 0.23533 0.0
H1837 H 0.34707 0.92576 0.00723 0.0
H1838 H 0.34615 0.90063 0.97643 0.0
H1839 H 0.36215 0.90621 0.03912 0.0
C1840 C 0.83295 0.37521 0.57813 0.0
C1841 C 0.81376 0.37495 0.60465 0.0
C1842 C 0.84702 0.39046 0.59113 0.0
C1843 C 0.84184 0.40598 0.63155 0.0
C1844 C 0.82254 0.40583 0.65863 0.0
C1845 C 0.80874 0.39029 0.64498 0.0
C1846 C 0.86747 0.38994 0.56159 0.0
C1847 C 0.81644 0.42213 0.70187 0.0
C1848 C 0.88521 0.43381 0.70651 0.0
C1849 C 0.88668 0.45153 0.67246 0.0
C1850 C 0.87057 0.41905 0.69409 0.0
C1851 C 0.85692 0.422 0.64651 0.0
C1852 C 0.85818 0.43989 0.61215 0.0
C1853 C 0.87307 0.45443 0.62544 0.0
C1854 C 0.86986 0.40016 0.73164 0.0
C1855 C 0.84386 0.44363 0.56113 0.0
H1856 H 0.83702 0.36346 0.54688 0.0
H1857 H 0.79393 0.39032 0.66538 0.0
H1858 H 0.86998 0.40406 0.53617 0.0
H1859 H 0.8795 0.38903 0.5958 0.0
H1860 H 0.86909 0.37691 0.53086 0.0
H1861 H 0.80077 0.42006 0.71838 0.0
H1862 H 0.82687 0.42222 0.74045 0.0
H1863 H 0.81759 0.43715 0.6803 0.0
H1864 H 0.8956 0.43138 0.74304 0.0
H1865 H 0.87398 0.46809 0.5991 0.0
H1866 H 0.87252 0.38671 0.70336 0.0
H1867 H 0.85469 0.39841 0.75178 0.0
H1868 H 0.88129 0.40034 0.76779 0.0
H1869 H 0.8457 0.43168 0.52702 0.0
H1870 H 0.8464 0.45855 0.53987 0.0
H1871 H 0.82803 0.44287 0.57698 0.0
C1872 C 0.32441 0.1327 0.4436 0.0
C1873 C 0.30601 0.13443 0.41288 0.0
C1874 C 0.33837 0.11754 0.42976 0.0
C1875 C 0.33394 0.10356 0.38403 0.0
C1876 C 0.31533 0.105 0.35311 0.0
C1877 C 0.30159 0.12045 0.36782 0.0
C1878 C 0.35805 0.11667 0.4637 0.0
C1879 C 0.31003 0.09035 0.30415 0.0
C1880 C 0.37943 0.07878 0.31173 0.0
C1881 C 0.38037 0.06009 0.34111 0.0
C1882 C 0.36415 0.09279 0.32429 0.0
C1883 C 0.34928 0.08807 0.36721 0.0
C1884 C 0.34992 0.06913 0.39649 0.0
C1885 C 0.36548 0.05539 0.38322 0.0
C1886 C 0.36418 0.11284 0.29235 0.0
C1887 C 0.33432 0.06351 0.44242 0.0
H1888 H 0.32806 0.14332 0.47864 0.0
H1889 H 0.28741 0.12155 0.34401 0.0
H1890 H 0.35988 0.10161 0.48451 0.0
H1891 H 0.37089 0.11885 0.43275 0.0
H1892 H 0.35899 0.12836 0.49901 0.0
H1893 H 0.29466 0.09297 0.28596 0.0
H1894 H 0.3211 0.09172 0.26744 0.0
H1895 H 0.31089 0.07463 0.32095 0.0
H1896 H 0.39078 0.08261 0.27897 0.0
H1897 H 0.36595 0.04095 0.40583 0.0
H1898 H 0.36631 0.12526 0.32487 0.0
H1899 H 0.34943 0.11531 0.27017 0.0
H1900 H 0.37631 0.11387 0.25844 0.0
H1901 H 0.33538 0.07397 0.48082 0.0
H1902 H 0.33623 0.04781 0.45878 0.0
H1903 H 0.31893 0.06508 0.42349 0.0
C1904 C 0.62891 0.58016 0.193 0.0
C1905 C 0.62964 0.56057 0.16913 0.0
C1906 C 0.64397 0.59446 0.1807 0.0
C1907 C 0.6603 0.58916 0.14348 0.0
C1908 C 0.66126 0.5694 0.11933 0.0
C1909 C 0.6459 0.55534 0.13236 0.0
C1910 C 0.64223 0.61536 0.20712 0.0
C1911 C 0.67845 0.56319 0.07944 0.0
C1912 C 0.68605 0.6333 0.06684 0.0
C1913 C 0.703 0.63667 0.10316 0.0
C1914 C 0.67244 0.61754 0.07849 0.0
C1915 C 0.67573 0.60474 0.12784 0.0
C1916 C 0.69296 0.60779 0.1642 0.0
C1917 C 0.70642 0.6237 0.1514 0.0
C1918 C 0.65428 0.61488 0.03857 0.0
C1919 C 0.69697 0.59448 0.2173 0.0
H1920 H 0.61647 0.58446 0.22146 0.0
H1921 H 0.64669 0.54023 0.11398 0.0
H1922 H 0.656 0.61903 0.23311 0.0
H1923 H 0.64102 0.62671 0.17107 0.0
H1924 H 0.6289 0.61689 0.23663 0.0
H1925 H 0.6774 0.5471 0.06587 0.0
H1926 H 0.67855 0.57271 0.03889 0.0
H1927 H 0.69308 0.56565 0.10243 0.0
H1928 H 0.6833 0.64305 0.02906 0.0
H1929 H 0.71952 0.62607 0.17947 0.0
H1930 H 0.64026 0.61749 0.06435 0.0
H1931 H 0.65363 0.59919 0.02142 0.0
H1932 H 0.65446 0.62543 1.00021 0.0
H1933 H 0.68473 0.59637 0.2504 0.0
H1934 H 0.71162 0.59803 0.23905 0.0
H1935 H 0.69699 0.57837 0.2037 0.0
C1936 C 0.18732 0.87777 0.87975 0.0
C1937 C 0.20639 0.88415 0.89932 0.0
C1938 C 0.17199 0.89178 0.8674 0.0
C1939 C 0.17561 0.91264 0.87663 0.0
C1940 C 0.19492 0.91918 0.89577 0.0
C1941 C 0.21017 0.90487 0.9061 0.0
C1942 C 0.1518 0.8842 0.84546 0.0
C1943 C 0.19924 0.94121 0.90756 0.0
C1944 C 0.14022 0.94996 0.8018 0.0
C1945 C 0.12577 0.95329 0.84631 0.0
C1946 C 0.15663 0.93697 0.81126 0.0
C1947 C 0.15902 0.92751 0.86717 0.0
C1948 C 0.145 0.93155 0.9132 0.0
C1949 C 0.12837 0.94416 0.90193 0.0
C1950 C 0.17089 0.93269 0.76052 0.0
C1951 C 0.14733 0.92221 0.97398 0.0
H1952 H 0.18434 0.86176 0.87463 0.0
H1953 H 0.22478 0.90985 0.92225 0.0
H1954 H 0.13999 0.88744 0.87898 0.0
H1955 H 0.1475 0.89218 0.80402 0.0
H1956 H 0.15189 0.86769 0.83662 0.0
H1957 H 0.21515 0.94388 0.92114 0.0
H1958 H 0.19603 0.95032 0.86733 0.0
H1959 H 0.18917 0.94678 0.94332 0.0
H1960 H 0.13822 0.95677 0.75842 0.0
H1961 H 0.11729 0.94672 0.9365 0.0
H1962 H 0.17004 0.91645 0.74855 0.0
H1963 H 0.18667 0.93587 0.77405 0.0
H1964 H 0.16734 0.94179 0.7204 0.0
H1965 H 0.14525 0.90562 0.97091 0.0
H1966 H 0.13623 0.92827 0.00632 0.0
H1967 H 0.16278 0.92498 0.99132 0.0
loop_
_geom_bond_atom_site_label_1
_geom_bond_atom_site_label_2
_geom_bond_distance
_geom_bond_site_symmetry_2
_ccdc_geom_bond_type
Co0 O2 2.143 . S
Co0 O8 2.074 . S
Co0 O11 2.093 1_554 S
Co0 O24 2.097 1_554 S
Co0 N41 2.151 . S
Co0 N49 2.214 . S
Co1 O2 2.160 1_556 S
Co1 O7 2.058 1_556 S
Co1 O17 2.057 1_556 S
Co1 O32 2.037 . S
Co1 N36 2.145 . S
Co1 N57 2.257 . S
O2 Co0 2.143 . S
O2 Co1 2.160 1_554 S
C3 O4 1.278 . S
C3 O11 1.224 . S
O4 C3 1.278 . S
C5 O6 1.245 . S
C5 O17 1.232 . S
O6 C5 1.245 . S
O7 Co1 2.058 1_554 S
O7 C33 1.269 . S
O8 Co0 2.074 . S
O8 C33 1.257 . S
H9 C34 0.930 . S
H10 C40 0.930 . S
O11 Co0 2.093 1_556 S
O11 C3 1.224 . S
H12 C44 0.929 . S
H13 C46 0.930 . S
H14 C47 0.930 . S
H15 C45 0.929 . S
H16 C48 0.928 . S
O17 Co1 2.057 1_554 S
O17 C5 1.232 . S
H18 C37 0.929 . S
H19 C38 0.929 1_554 S
H20 C50 0.930 1_556 S
H21 C42 0.929 . S
H22 C51 0.930 . S
H23 C43 0.931 . S
O24 Co0 2.097 1_556 S
O24 C52 1.214 . S
H25 C53 0.929 . S
H26 C54 0.929 . S
H27 C55 0.930 . S
H28 C56 0.929 . S
H29 C58 0.930 . S
H30 C35 0.930 1_554 S
H31 C39 0.930 . S
O32 Co1 2.037 . S
O32 C52 1.234 . S
C33 O7 1.269 . S
C33 O8 1.257 . S
C34 H9 0.930 . S
C34 C37 1.388 . S
C34 C39 1.418 . S
C35 H30 0.930 1_556 S
C35 C38 1.404 . S
C35 C39 1.353 . S
N36 Co1 2.145 . S
N36 C37 1.397 . S
N36 C38 1.334 . S
C37 H18 0.929 . S
C37 C34 1.388 . S
C37 N36 1.397 . S
C38 H19 0.929 1_556 S
C38 C35 1.404 . S
C38 N36 1.334 . S
C39 H31 0.930 . S
C39 C34 1.418 . S
C39 C35 1.353 . S
C40 H10 0.930 . S
C40 N41 1.330 . S
C40 C42 1.446 . S
N41 Co0 2.151 . S
N41 C40 1.330 . S
N41 C45 1.418 . S
C42 H21 0.929 . S
C42 C40 1.446 . S
C42 C43 1.332 . S
C43 H23 0.931 . S
C43 C42 1.332 . S
C43 C44 1.267 . S
C44 H12 0.929 . S
C44 C43 1.267 . S
C44 C45 1.251 . S
C45 H15 0.929 . S
C45 N41 1.418 . S
C45 C44 1.251 . S
C46 H13 0.930 . S
C46 C48 1.406 . S
C46 C51 1.261 . S
C47 H14 0.930 . S
C47 N49 1.325 1_556 S
C47 C50 1.357 1_556 S
C48 H16 0.928 . S
C48 C46 1.406 . S
C48 N49 1.261 . S
N49 Co0 2.214 . S
N49 C47 1.325 1_554 S
N49 C48 1.261 . S
C50 H20 0.930 1_554 S
C50 C47 1.357 1_554 S
C50 C51 1.313 . S
C51 H22 0.930 . S
C51 C46 1.261 . S
C51 C50 1.313 . S
C52 O24 1.214 . S
C52 O32 1.234 . S
C53 H25 0.929 . S
C53 C56 1.391 . S
C53 C58 1.391 . S
C54 H26 0.929 . S
C54 C55 1.390 . S
C54 N57 1.391 . S
C55 H27 0.930 . S
C55 C54 1.390 . S
C55 C56 1.392 . S
C56 H28 0.929 . S
C56 C53 1.391 . S
C56 C55 1.392 . S
N57 Co1 2.257 . S
N57 C54 1.391 . S
N57 C58 1.388 . S
C58 H29 0.930 . S
C58 C53 1.391 . S
C58 N57 1.388 . S
Co59 O61 2.143 1_565 S
Co59 O67 2.074 . S
Co59 O70 2.093 . S
Co59 O83 2.097 . S
Co59 N100 2.151 . S
Co59 N108 2.214 . S
Co60 O61 2.160 . S
Co60 O66 2.058 . S
Co60 O76 2.057 . S
Co60 O91 2.037 . S
Co60 N95 2.145 . S
Co60 N116 2.257 . S
O61 Co59 2.143 1_545 S
O61 Co60 2.160 . S
C62 O63 1.278 . S
C62 O70 1.224 . S
O63 C62 1.278 . S
C64 O65 1.245 . S
C64 O76 1.232 . S
O65 C64 1.245 . S
O66 Co60 2.058 . S
O66 C92 1.269 . S
O67 Co59 2.074 . S
O67 C92 1.257 1_565 S
H68 C93 0.930 . S
H69 C99 0.930 . S
O70 Co59 2.093 . S
O70 C62 1.224 . S
H71 C103 0.929 . S
H72 C105 0.930 . S
H73 C106 0.930 . S
H74 C104 0.929 . S
H75 C107 0.928 . S
O76 Co60 2.057 . S
O76 C64 1.232 . S
H77 C96 0.929 . S
H78 C97 0.929 . S
H79 C109 0.931 . S
H80 C101 0.929 . S
H81 C110 0.930 . S
H82 C102 0.931 . S
O83 Co59 2.097 . S
O83 C111 1.187 1_565 S
H84 C112 0.929 . S
H85 C113 0.929 . S
H86 C114 0.930 . S
H87 C115 0.929 . S
H88 C117 0.930 . S
H89 C94 0.930 . S
H90 C98 0.930 . S
O91 Co60 2.037 . S
O91 C111 1.262 . S
C92 O66 1.269 . S
C92 O67 1.257 1_545 S
C93 H68 0.930 . S
C93 C96 1.388 . S
C93 C98 1.418 . S
C94 H89 0.930 . S
C94 C97 1.404 . S
C94 C98 1.353 . S
N95 Co60 2.145 . S
N95 C96 1.397 . S
N95 C97 1.334 . S
C96 H77 0.929 . S
C96 C93 1.388 . S
C96 N95 1.397 . S
C97 H78 0.929 . S
C97 C94 1.404 . S
C97 N95 1.334 . S
C98 H90 0.930 . S
C98 C93 1.418 . S
C98 C94 1.353 . S
C99 H69 0.930 . S
C99 N100 1.330 . S
C99 C101 1.446 . S
N100 Co59 2.151 . S
N100 C99 1.330 . S
N100 C104 1.418 . S
C101 H80 0.929 . S
C101 C99 1.446 . S
C101 C102 1.332 . S
C102 H82 0.931 . S
C102 C101 1.332 . S
C102 C103 1.267 . S
C103 H71 0.929 . S
C103 C102 1.267 . S
C103 C104 1.251 . S
C104 H74 0.929 . S
C104 N100 1.418 . S
C104 C103 1.251 . S
C105 H72 0.930 . S
C105 C107 1.406 . S
C105 C110 1.261 . S
C106 H73 0.930 . S
C106 N108 1.325 . S
C106 C109 1.357 . S
C107 H75 0.928 . S
C107 C105 1.406 . S
C107 N108 1.261 . S
N108 Co59 2.214 . S
N108 C106 1.325 . S
N108 C107 1.261 . S
C109 H79 0.931 . S
C109 C106 1.357 . S
C109 C110 1.312 . S
C110 H81 0.930 . S
C110 C105 1.261 . S
C110 C109 1.312 . S
C111 O83 1.187 1_545 S
C111 O91 1.262 . S
C112 H84 0.929 . S
C112 C115 1.391 . S
C112 C117 1.391 . S
C113 H85 0.929 . S
C113 C114 1.390 . S
C113 N116 1.391 . S
C114 H86 0.930 . S
C114 C113 1.390 . S
C114 C115 1.392 . S
C115 H87 0.929 . S
C115 C112 1.391 . S
C115 C114 1.392 . S
N116 Co60 2.257 . S
N116 C113 1.391 . S
N116 C117 1.388 . S
C117 H88 0.930 . S
C117 C112 1.391 . S
C117 N116 1.388 . S
Co118 O120 2.143 . S
Co118 O126 2.074 . S
Co118 O129 2.093 . S
Co118 O142 2.097 . S
Co118 N159 2.151 . S
Co118 N167 2.214 . S
Co119 O120 2.160 . S
Co119 O125 2.058 . S
Co119 O135 2.057 . S
Co119 O150 2.037 . S
Co119 N154 2.145 . S
Co119 N175 2.257 . S
O120 Co118 2.143 . S
O120 Co119 2.160 . S
C121 O122 1.278 . S
C121 O129 1.224 . S
O122 C121 1.278 . S
C123 O124 1.245 . S
C123 O135 1.232 . S
O124 C123 1.245 . S
O125 Co119 2.058 . S
O125 C151 1.269 . S
O126 Co118 2.074 . S
O126 C151 1.257 . S
H127 C152 0.930 . S
H128 C158 0.930 . S
O129 Co118 2.093 . S
O129 C121 1.224 . S
H130 C162 0.929 . S
H131 C164 0.930 . S
H132 C165 0.930 . S
H133 C163 0.929 . S
H134 C166 0.928 . S
O135 Co119 2.057 . S
O135 C123 1.232 . S
H136 C155 0.929 . S
H137 C156 0.929 . S
H138 C168 0.931 . S
H139 C160 0.929 . S
H140 C169 0.930 . S
H141 C161 0.931 . S
O142 Co118 2.097 . S
O142 C170 1.214 . S
H143 C171 0.929 . S
H144 C172 0.929 . S
H145 C173 0.930 . S
H146 C174 0.929 . S
H147 C176 0.930 . S
H148 C153 0.930 . S
H149 C157 0.930 . S
O150 Co119 2.037 . S
O150 C170 1.234 . S
C151 O125 1.269 . S
C151 O126 1.257 . S
C152 H127 0.930 . S
C152 C155 1.388 . S
C152 C157 1.418 . S
C153 H148 0.930 . S
C153 C156 1.404 . S
C153 C157 1.353 . S
N154 Co119 2.145 . S
N154 C155 1.397 . S
N154 C156 1.334 . S
C155 H136 0.929 . S
C155 C152 1.388 . S
C155 N154 1.397 . S
C156 H137 0.929 . S
C156 C153 1.404 . S
C156 N154 1.334 . S
C157 H149 0.930 . S
C157 C152 1.418 . S
C157 C153 1.353 . S
C158 H128 0.930 . S
C158 N159 1.330 . S
C158 C160 1.446 . S
N159 Co118 2.151 . S
N159 C158 1.330 . S
N159 C163 1.418 . S
C160 H139 0.929 . S
C160 C158 1.446 . S
C160 C161 1.332 . S
C161 H141 0.931 . S
C161 C160 1.332 . S
C161 C162 1.267 . S
C162 H130 0.929 . S
C162 C161 1.267 . S
C162 C163 1.251 . S
C163 H133 0.929 . S
C163 N159 1.418 . S
C163 C162 1.251 . S
C164 H131 0.930 . S
C164 C166 1.406 . S
C164 C169 1.261 . S
C165 H132 0.930 . S
C165 N167 1.325 . S
C165 C168 1.357 . S
C166 H134 0.928 . S
C166 C164 1.406 . S
C166 N167 1.261 . S
N167 Co118 2.214 . S
N167 C165 1.325 . S
N167 C166 1.261 . S
C168 H138 0.931 . S
C168 C165 1.357 . S
C168 C169 1.312 . S
C169 H140 0.930 . S
C169 C164 1.261 . S
C169 C168 1.312 . S
C170 O142 1.214 . S
C170 O150 1.234 . S
C171 H143 0.929 . S
C171 C174 1.391 . S
C171 C176 1.391 . S
C172 H144 0.929 . S
C172 C173 1.390 . S
C172 N175 1.391 . S
C173 H145 0.930 . S
C173 C172 1.390 . S
C173 C174 1.392 . S
C174 H146 0.929 . S
C174 C171 1.391 . S
C174 C173 1.392 . S
N175 Co119 2.257 . S
N175 C172 1.391 . S
N175 C176 1.388 . S
C176 H147 0.930 . S
C176 C171 1.391 . S
C176 N175 1.388 . S
Co177 O179 2.143 . S
Co177 O185 2.074 . S
Co177 O188 2.093 . S
Co177 O201 2.097 . S
Co177 N218 2.151 . S
Co177 N226 2.214 . S
Co178 O179 2.160 1_565 S
Co178 O184 2.058 . S
Co178 O194 2.057 . S
Co178 O209 2.037 . S
Co178 N213 2.145 . S
Co178 N234 2.257 . S
O179 Co177 2.143 . S
O179 Co178 2.160 1_545 S
C180 O181 1.278 . S
C180 O188 1.224 . S
O181 C180 1.278 . S
C182 O183 1.245 . S
C182 O194 1.232 . S
O183 C182 1.245 . S
O184 Co178 2.058 . S
O184 C210 1.258 1_565 S
O185 Co177 2.074 . S
O185 C210 1.270 . S
H186 C211 0.930 . S
H187 C217 0.930 . S
O188 Co177 2.093 . S
O188 C180 1.224 . S
H189 C221 0.929 . S
H190 C223 0.930 . S
H191 C224 0.930 . S
H192 C222 0.929 . S
H193 C225 0.928 . S
O194 Co178 2.057 . S
O194 C182 1.232 . S
H195 C214 0.929 . S
H196 C215 0.929 . S
H197 C227 0.931 . S
H198 C219 0.929 . S
H199 C228 0.930 . S
H200 C220 0.931 . S
O201 Co177 2.097 . S
O201 C229 1.214 . S
H202 C230 0.929 . S
H203 C231 0.929 . S
H204 C232 0.930 . S
H205 C233 0.929 . S
H206 C235 0.930 . S
H207 C212 0.930 . S
H208 C216 0.930 . S
O209 Co178 2.037 . S
O209 C229 1.234 1_565 S
C210 O184 1.258 1_545 S
C210 O185 1.270 . S
C211 H186 0.930 . S
C211 C214 1.388 . S
C211 C216 1.418 . S
C212 H207 0.930 . S
C212 C215 1.404 . S
C212 C216 1.353 . S
N213 Co178 2.145 . S
N213 C214 1.397 . S
N213 C215 1.334 . S
C214 H195 0.929 . S
C214 C211 1.388 . S
C214 N213 1.397 . S
C215 H196 0.929 . S
C215 C212 1.404 . S
C215 N213 1.334 . S
C216 H208 0.930 . S
C216 C211 1.418 . S
C216 C212 1.353 . S
C217 H187 0.930 . S
C217 N218 1.330 . S
C217 C219 1.446 . S
N218 Co177 2.151 . S
N218 C217 1.330 . S
N218 C222 1.418 . S
C219 H198 0.929 . S
C219 C217 1.446 . S
C219 C220 1.332 . S
C220 H200 0.931 . S
C220 C219 1.332 . S
C220 C221 1.267 . S
C221 H189 0.929 . S
C221 C220 1.267 . S
C221 C222 1.251 . S
C222 H192 0.929 . S
C222 N218 1.418 . S
C222 C221 1.251 . S
C223 H190 0.930 . S
C223 C225 1.406 . S
C223 C228 1.261 . S
C224 H191 0.930 . S
C224 N226 1.325 . S
C224 C227 1.357 . S
C225 H193 0.928 . S
C225 C223 1.406 . S
C225 N226 1.261 . S
N226 Co177 2.214 . S
N226 C224 1.325 . S
N226 C225 1.261 . S
C227 H197 0.931 . S
C227 C224 1.357 . S
C227 C228 1.312 . S
C228 H199 0.930 . S
C228 C223 1.261 . S
C228 C227 1.312 . S
C229 O201 1.214 . S
C229 O209 1.234 1_545 S
C230 H202 0.929 . S
C230 C233 1.391 . S
C230 C235 1.391 . S
C231 H203 0.929 . S
C231 C232 1.390 . S
C231 N234 1.391 . S
C232 H204 0.930 . S
C232 C231 1.390 . S
C232 C233 1.392 . S
C233 H205 0.929 . S
C233 C230 1.391 . S
C233 C232 1.392 . S
N234 Co178 2.257 . S
N234 C231 1.391 . S
N234 C235 1.388 . S
C235 H206 0.930 . S
C235 C230 1.391 . S
C235 N234 1.388 . S
Co236 O238 2.143 . S
Co236 O244 2.070 1_554 S
Co236 O247 2.096 . S
Co236 O260 2.103 . S
Co236 N277 2.145 1_554 S
Co236 N285 2.214 . S
Co237 O238 2.160 . S
Co237 O243 2.058 1_554 S
Co237 O253 2.057 1_554 S
Co237 O268 2.037 . S
Co237 N272 2.145 . S
Co237 N293 2.257 . S
O238 Co236 2.143 . S
O238 Co237 2.160 . S
C239 O240 1.278 . S
C239 O247 1.224 . S
O240 C239 1.278 . S
C241 O242 1.245 . S
C241 O253 1.232 . S
O242 C241 1.245 . S
O243 Co237 2.058 1_556 S
O243 C269 1.269 . S
O244 Co236 2.070 1_556 S
O244 C269 1.257 . S
H245 C270 0.930 . S
H246 C276 0.930 . S
O247 Co236 2.096 . S
O247 C239 1.224 . S
H248 C280 0.929 . S
H249 C282 0.930 . S
H250 C283 0.930 . S
H251 C281 0.929 . S
H252 C284 0.928 . S
O253 Co237 2.057 1_556 S
O253 C241 1.232 . S
H254 C273 0.929 . S
H255 C274 0.929 . S
H256 C286 0.931 . S
H257 C278 0.929 . S
H258 C287 0.930 . S
H259 C279 0.931 . S
O260 Co236 2.103 . S
O260 C288 1.214 . S
H261 C289 0.929 . S
H262 C290 0.929 . S
H263 C291 0.930 . S
H264 C292 0.929 . S
H265 C294 0.930 . S
H266 C271 0.930 . S
H267 C275 0.930 . S
O268 Co237 2.037 . S
O268 C288 1.234 . S
C269 O243 1.269 . S
C269 O244 1.257 . S
C270 H245 0.930 . S
C270 C273 1.388 . S
C270 C275 1.418 . S
C271 H266 0.930 . S
C271 C274 1.404 . S
C271 C275 1.353 . S
N272 Co237 2.145 . S
N272 C273 1.397 . S
N272 C274 1.334 . S
C273 H254 0.929 . S
C273 C270 1.388 . S
C273 N272 1.397 . S
C274 H255 0.929 . S
C274 C271 1.404 . S
C274 N272 1.334 . S
C275 H267 0.930 . S
C275 C270 1.418 . S
C275 C271 1.353 . S
C276 H246 0.930 . S
C276 N277 1.330 . S
C276 C278 1.446 . S
N277 Co236 2.145 1_556 S
N277 C276 1.330 . S
N277 C281 1.418 . S
C278 H257 0.929 . S
C278 C276 1.446 . S
C278 C279 1.332 . S
C279 H259 0.931 . S
C279 C278 1.332 . S
C279 C280 1.267 . S
C280 H248 0.929 . S
C280 C279 1.267 . S
C280 C281 1.251 . S
C281 H251 0.929 . S
C281 N277 1.418 . S
C281 C280 1.251 . S
C282 H249 0.930 . S
C282 C284 1.406 . S
C282 C287 1.259 1_556 S
C283 H250 0.930 . S
C283 N285 1.325 . S
C283 C286 1.357 . S
C284 H252 0.928 . S
C284 C282 1.406 . S
C284 N285 1.261 1_556 S
N285 Co236 2.214 . S
N285 C283 1.325 . S
N285 C284 1.261 1_554 S
C286 H256 0.931 . S
C286 C283 1.357 . S
C286 C287 1.314 . S
C287 H258 0.930 . S
C287 C282 1.259 1_554 S
C287 C286 1.314 . S
C288 O260 1.214 . S
C288 O268 1.234 . S
C289 H261 0.929 . S
C289 C292 1.391 . S
C289 C294 1.391 . S
C290 H262 0.929 . S
C290 C291 1.390 . S
C290 N293 1.391 . S
C291 H263 0.930 . S
C291 C290 1.390 . S
C291 C292 1.392 . S
C292 H264 0.929 . S
C292 C289 1.391 . S
C292 C291 1.392 . S
N293 Co237 2.257 . S
N293 C290 1.391 . S
N293 C294 1.388 . S
C294 H265 0.930 . S
C294 C289 1.391 . S
C294 N293 1.388 . S
Co295 O297 2.143 . S
Co295 O303 2.074 . S
Co295 O306 2.093 . S
Co295 O319 2.097 . S
Co295 N336 2.151 . S
Co295 N344 2.214 . S
Co296 O297 2.160 1_565 S
Co296 O302 2.058 . S
Co296 O312 2.057 . S
Co296 O327 2.037 . S
Co296 N331 2.145 . S
Co296 N352 2.257 . S
O297 Co295 2.143 . S
O297 Co296 2.160 1_545 S
C298 O299 1.278 . S
C298 O306 1.224 . S
O299 C298 1.278 . S
C300 O301 1.245 . S
C300 O312 1.232 . S
O301 C300 1.245 . S
O302 Co296 2.058 . S
O302 C328 1.258 1_565 S
O303 Co295 2.074 . S
O303 C328 1.270 . S
H304 C329 0.930 . S
H305 C335 0.930 . S
O306 Co295 2.093 . S
O306 C298 1.224 . S
H307 C339 0.929 . S
H308 C341 0.930 . S
H309 C342 0.930 . S
H310 C340 0.929 . S
H311 C343 0.928 . S
O312 Co296 2.057 . S
O312 C300 1.232 . S
H313 C332 0.929 . S
H314 C333 0.929 . S
H315 C345 0.931 . S
H316 C337 0.929 . S
H317 C346 0.930 . S
H318 C338 0.931 . S
O319 Co295 2.097 . S
O319 C347 1.214 . S
H320 C348 0.929 . S
H321 C349 0.929 . S
H322 C350 0.930 . S
H323 C351 0.929 . S
H324 C353 0.930 . S
H325 C330 0.930 . S
H326 C334 0.930 . S
O327 Co296 2.037 . S
O327 C347 1.234 1_565 S
C328 O302 1.258 1_545 S
C328 O303 1.270 . S
C329 H304 0.930 . S
C329 C332 1.388 . S
C329 C334 1.418 . S
C330 H325 0.930 . S
C330 C333 1.404 . S
C330 C334 1.353 . S
N331 Co296 2.145 . S
N331 C332 1.397 . S
N331 C333 1.334 . S
C332 H313 0.929 . S
C332 C329 1.388 . S
C332 N331 1.397 . S
C333 H314 0.929 . S
C333 C330 1.404 . S
C333 N331 1.334 . S
C334 H326 0.930 . S
C334 C329 1.418 . S
C334 C330 1.353 . S
C335 H305 0.930 . S
C335 N336 1.330 . S
C335 C337 1.446 . S
N336 Co295 2.151 . S
N336 C335 1.330 . S
N336 C340 1.418 . S
C337 H316 0.929 . S
C337 C335 1.446 . S
C337 C338 1.332 . S
C338 H318 0.931 . S
C338 C337 1.332 . S
C338 C339 1.267 . S
C339 H307 0.929 . S
C339 C338 1.267 . S
C339 C340 1.251 . S
C340 H310 0.929 . S
C340 N336 1.418 . S
C340 C339 1.251 . S
C341 H308 0.930 . S
C341 C343 1.406 . S
C341 C346 1.261 . S
C342 H309 0.930 . S
C342 N344 1.325 . S
C342 C345 1.357 . S
C343 H311 0.928 . S
C343 C341 1.406 . S
C343 N344 1.261 . S
N344 Co295 2.214 . S
N344 C342 1.325 . S
N344 C343 1.261 . S
C345 H315 0.931 . S
C345 C342 1.357 . S
C345 C346 1.312 . S
C346 H317 0.930 . S
C346 C341 1.261 . S
C346 C345 1.312 . S
C347 O319 1.214 . S
C347 O327 1.234 1_545 S
C348 H320 0.929 . S
C348 C351 1.391 . S
C348 C353 1.391 . S
C349 H321 0.929 . S
C349 C350 1.390 . S
C349 N352 1.391 . S
C350 H322 0.930 . S
C350 C349 1.390 . S
C350 C351 1.392 . S
C351 H323 0.929 . S
C351 C348 1.391 . S
C351 C350 1.392 . S
N352 Co296 2.257 . S
N352 C349 1.391 . S
N352 C353 1.388 . S
C353 H324 0.930 . S
C353 C348 1.391 . S
C353 N352 1.388 . S
Co354 O356 2.143 . S
Co354 O362 2.074 . S
Co354 O365 2.093 . S
Co354 O378 2.097 . S
Co354 N395 2.151 . S
Co354 N403 2.214 . S
Co355 O356 2.160 . S
Co355 O361 2.058 . S
Co355 O371 2.057 . S
Co355 O386 2.037 . S
Co355 N390 2.145 . S
Co355 N411 2.257 . S
O356 Co354 2.143 . S
O356 Co355 2.160 . S
C357 O358 1.278 . S
C357 O365 1.224 . S
O358 C357 1.278 . S
C359 O360 1.245 . S
C359 O371 1.232 . S
O360 C359 1.245 . S
O361 Co355 2.058 . S
O361 C387 1.269 . S
O362 Co354 2.074 . S
O362 C387 1.257 . S
H363 C388 0.930 . S
H364 C394 0.930 . S
O365 Co354 2.093 . S
O365 C357 1.224 . S
H366 C398 0.929 . S
H367 C400 0.930 . S
H368 C401 0.930 . S
H369 C399 0.929 . S
H370 C402 0.928 . S
O371 Co355 2.057 . S
O371 C359 1.232 . S
H372 C391 0.929 . S
H373 C392 0.929 . S
H374 C404 0.931 . S
H375 C396 0.929 . S
H376 C405 0.930 . S
H377 C397 0.931 . S
O378 Co354 2.097 . S
O378 C406 1.214 . S
H379 C407 0.929 . S
H380 C408 0.929 . S
H381 C409 0.930 . S
H382 C410 0.929 . S
H383 C412 0.930 . S
H384 C389 0.930 . S
H385 C393 0.930 . S
O386 Co355 2.037 . S
O386 C406 1.234 . S
C387 O361 1.269 . S
C387 O362 1.257 . S
C388 H363 0.930 . S
C388 C391 1.388 . S
C388 C393 1.418 . S
C389 H384 0.930 . S
C389 C392 1.404 . S
C389 C393 1.353 . S
N390 Co355 2.145 . S
N390 C391 1.397 . S
N390 C392 1.334 . S
C391 H372 0.929 . S
C391 C388 1.388 . S
C391 N390 1.397 . S
C392 H373 0.929 . S
C392 C389 1.404 . S
C392 N390 1.334 . S
C393 H385 0.930 . S
C393 C388 1.418 . S
C393 C389 1.353 . S
C394 H364 0.930 . S
C394 N395 1.330 . S
C394 C396 1.446 . S
N395 Co354 2.151 . S
N395 C394 1.330 . S
N395 C399 1.418 . S
C396 H375 0.929 . S
C396 C394 1.446 . S
C396 C397 1.332 . S
C397 H377 0.931 . S
C397 C396 1.332 . S
C397 C398 1.267 . S
C398 H366 0.929 . S
C398 C397 1.267 . S
C398 C399 1.251 . S
C399 H369 0.929 . S
C399 N395 1.418 . S
C399 C398 1.251 . S
C400 H367 0.930 . S
C400 C402 1.406 . S
C400 C405 1.261 . S
C401 H368 0.930 . S
C401 N403 1.325 . S
C401 C404 1.357 . S
C402 H370 0.928 . S
C402 C400 1.406 . S
C402 N403 1.261 . S
N403 Co354 2.214 . S
N403 C401 1.325 . S
N403 C402 1.261 . S
C404 H374 0.931 . S
C404 C401 1.357 . S
C404 C405 1.312 . S
C405 H376 0.930 . S
C405 C400 1.261 . S
C405 C404 1.312 . S
C406 O378 1.214 . S
C406 O386 1.234 . S
C407 H379 0.929 . S
C407 C410 1.391 . S
C407 C412 1.391 . S
C408 H380 0.929 . S
C408 C409 1.390 . S
C408 N411 1.391 . S
C409 H381 0.930 . S
C409 C408 1.390 . S
C409 C410 1.392 . S
C410 H382 0.929 . S
C410 C407 1.391 . S
C410 C409 1.392 . S
N411 Co355 2.257 . S
N411 C408 1.391 . S
N411 C412 1.388 . S
C412 H383 0.930 . S
C412 C407 1.391 . S
C412 N411 1.388 . S
Co413 O415 2.143 1_565 S
Co413 O421 2.074 . S
Co413 O424 2.093 . S
Co413 O437 2.097 . S
Co413 N454 2.151 . S
Co413 N462 2.214 . S
Co414 O415 2.160 . S
Co414 O420 2.058 . S
Co414 O430 2.057 . S
Co414 O445 2.037 . S
Co414 N449 2.145 . S
Co414 N470 2.257 . S
O415 Co413 2.143 1_545 S
O415 Co414 2.160 . S
C416 O417 1.278 . S
C416 O424 1.224 . S
O417 C416 1.278 . S
C418 O419 1.245 . S
C418 O430 1.232 . S
O419 C418 1.245 . S
O420 Co414 2.058 . S
O420 C446 1.269 . S
O421 Co413 2.074 . S
O421 C446 1.257 1_565 S
H422 C447 0.930 . S
H423 C453 0.930 . S
O424 Co413 2.093 . S
O424 C416 1.224 . S
H425 C457 0.929 . S
H426 C459 0.930 . S
H427 C460 0.930 . S
H428 C458 0.929 . S
H429 C461 0.928 . S
O430 Co414 2.057 . S
O430 C418 1.232 . S
H431 C450 0.929 . S
H432 C451 0.929 . S
H433 C463 0.931 . S
H434 C455 0.929 . S
H435 C464 0.930 . S
H436 C456 0.931 . S
O437 Co413 2.097 . S
O437 C465 1.187 1_565 S
H438 C466 0.929 . S
H439 C467 0.929 . S
H440 C468 0.930 . S
H441 C469 0.929 . S
H442 C471 0.930 . S
H443 C448 0.930 . S
H444 C452 0.930 . S
O445 Co414 2.037 . S
O445 C465 1.262 . S
C446 O420 1.269 . S
C446 O421 1.257 1_545 S
C447 H422 0.930 . S
C447 C450 1.388 . S
C447 C452 1.418 . S
C448 H443 0.930 . S
C448 C451 1.404 . S
C448 C452 1.353 . S
N449 Co414 2.145 . S
N449 C450 1.397 . S
N449 C451 1.334 . S
C450 H431 0.929 . S
C450 C447 1.388 . S
C450 N449 1.397 . S
C451 H432 0.929 . S
C451 C448 1.404 . S
C451 N449 1.334 . S
C452 H444 0.930 . S
C452 C447 1.418 . S
C452 C448 1.353 . S
C453 H423 0.930 . S
C453 N454 1.330 . S
C453 C455 1.446 . S
N454 Co413 2.151 . S
N454 C453 1.330 . S
N454 C458 1.418 . S
C455 H434 0.929 . S
C455 C453 1.446 . S
C455 C456 1.332 . S
C456 H436 0.931 . S
C456 C455 1.332 . S
C456 C457 1.267 . S
C457 H425 0.929 . S
C457 C456 1.267 . S
C457 C458 1.251 . S
C458 H428 0.929 . S
C458 N454 1.418 . S
C458 C457 1.251 . S
C459 H426 0.930 . S
C459 C461 1.406 . S
C459 C464 1.261 . S
C460 H427 0.930 . S
C460 N462 1.325 . S
C460 C463 1.357 . S
C461 H429 0.928 . S
C461 C459 1.406 . S
C461 N462 1.261 . S
N462 Co413 2.214 . S
N462 C460 1.325 . S
N462 C461 1.261 . S
C463 H433 0.931 . S
C463 C460 1.357 . S
C463 C464 1.312 . S
C464 H435 0.930 . S
C464 C459 1.261 . S
C464 C463 1.312 . S
C465 O437 1.187 1_545 S
C465 O445 1.262 . S
C466 H438 0.929 . S
C466 C469 1.391 . S
C466 C471 1.391 . S
C467 H439 0.929 . S
C467 C468 1.390 . S
C467 N470 1.391 . S
C468 H440 0.930 . S
C468 C467 1.390 . S
C468 C469 1.392 . S
C469 H441 0.929 . S
C469 C466 1.391 . S
C469 C468 1.392 . S
N470 Co414 2.257 . S
N470 C467 1.391 . S
N470 C471 1.388 . S
C471 H442 0.930 . S
C471 C466 1.391 . S
C471 N470 1.388 . S
Co472 O474 2.143 . S
Co472 O480 2.074 . S
Co472 O483 2.093 . S
Co472 O496 2.097 . S
Co472 N513 2.151 . S
Co472 N521 2.214 . S
Co473 O474 2.160 . S
Co473 O479 2.058 . S
Co473 O489 2.057 . S
Co473 O504 2.037 . S
Co473 N508 2.145 . S
Co473 N529 2.257 . S
O474 Co472 2.143 . S
O474 Co473 2.160 . S
C475 O476 1.278 . S
C475 O483 1.224 . S
O476 C475 1.278 . S
C477 O478 1.245 . S
C477 O489 1.232 . S
O478 C477 1.245 . S
O479 Co473 2.058 . S
O479 C505 1.269 . S
O480 Co472 2.074 . S
O480 C505 1.257 . S
H481 C506 0.930 . S
H482 C512 0.930 . S
O483 Co472 2.093 . S
O483 C475 1.224 . S
H484 C516 0.929 . S
H485 C518 0.930 . S
H486 C519 0.930 . S
H487 C517 0.929 . S
H488 C520 0.928 . S
O489 Co473 2.057 . S
O489 C477 1.232 . S
H490 C509 0.929 . S
H491 C510 0.929 . S
H492 C522 0.931 . S
H493 C514 0.929 . S
H494 C523 0.930 . S
H495 C515 0.931 . S
O496 Co472 2.097 . S
O496 C524 1.214 . S
H497 C525 0.929 . S
H498 C526 0.929 . S
H499 C527 0.930 . S
H500 C528 0.929 . S
H501 C530 0.930 . S
H502 C507 0.930 . S
H503 C511 0.930 . S
O504 Co473 2.037 . S
O504 C524 1.234 . S
C505 O479 1.269 . S
C505 O480 1.257 . S
C506 H481 0.930 . S
C506 C509 1.388 . S
C506 C511 1.418 . S
C507 H502 0.930 . S
C507 C510 1.404 . S
C507 C511 1.353 . S
N508 Co473 2.145 . S
N508 C509 1.397 . S
N508 C510 1.334 . S
C509 H490 0.929 . S
C509 C506 1.388 . S
C509 N508 1.397 . S
C510 H491 0.929 . S
C510 C507 1.404 . S
C510 N508 1.334 . S
C511 H503 0.930 . S
C511 C506 1.418 . S
C511 C507 1.353 . S
C512 H482 0.930 . S
C512 N513 1.330 . S
C512 C514 1.446 . S
N513 Co472 2.151 . S
N513 C512 1.330 . S
N513 C517 1.418 . S
C514 H493 0.929 . S
C514 C512 1.446 . S
C514 C515 1.332 . S
C515 H495 0.931 . S
C515 C514 1.332 . S
C515 C516 1.267 . S
C516 H484 0.929 . S
C516 C515 1.267 . S
C516 C517 1.251 . S
C517 H487 0.929 . S
C517 N513 1.418 . S
C517 C516 1.251 . S
C518 H485 0.930 . S
C518 C520 1.406 . S
C518 C523 1.261 . S
C519 H486 0.930 . S
C519 N521 1.325 . S
C519 C522 1.357 . S
C520 H488 0.928 . S
C520 C518 1.406 . S
C520 N521 1.261 . S
N521 Co472 2.214 . S
N521 C519 1.325 . S
N521 C520 1.261 . S
C522 H492 0.931 . S
C522 C519 1.357 . S
C522 C523 1.312 . S
C523 H494 0.930 . S
C523 C518 1.261 . S
C523 C522 1.312 . S
C524 O496 1.214 . S
C524 O504 1.234 . S
C525 H497 0.929 . S
C525 C528 1.391 . S
C525 C530 1.391 . S
C526 H498 0.929 . S
C526 C527 1.390 . S
C526 N529 1.391 . S
C527 H499 0.930 . S
C527 C526 1.390 . S
C527 C528 1.392 . S
C528 H500 0.929 . S
C528 C525 1.391 . S
C528 C527 1.392 . S
N529 Co473 2.257 . S
N529 C526 1.391 . S
N529 C530 1.388 . S
C530 H501 0.930 . S
C530 C525 1.391 . S
C530 N529 1.388 . S
Co531 O533 2.143 . S
Co531 O539 2.074 . S
Co531 O542 2.093 . S
Co531 O555 2.097 . S
Co531 N572 2.151 . S
Co531 N580 2.214 . S
Co532 O533 2.160 . S
Co532 O538 2.058 . S
Co532 O548 2.057 . S
Co532 O563 2.037 . S
Co532 N567 2.145 . S
Co532 N588 2.257 . S
O533 Co531 2.143 . S
O533 Co532 2.160 . S
C534 O535 1.278 . S
C534 O542 1.224 . S
O535 C534 1.278 . S
C536 O537 1.245 . S
C536 O548 1.232 . S
O537 C536 1.245 . S
O538 Co532 2.058 . S
O538 C564 1.269 . S
O539 Co531 2.074 . S
O539 C564 1.257 . S
H540 C565 0.930 . S
H541 C571 0.930 . S
O542 Co531 2.093 . S
O542 C534 1.224 . S
H543 C575 0.929 . S
H544 C577 0.930 . S
H545 C578 0.930 . S
H546 C576 0.929 . S
H547 C579 0.928 . S
O548 Co532 2.057 . S
O548 C536 1.232 . S
H549 C568 0.929 . S
H550 C569 0.929 . S
H551 C581 0.931 . S
H552 C573 0.929 . S
H553 C582 0.930 . S
H554 C574 0.931 . S
O555 Co531 2.097 . S
O555 C583 1.214 . S
H556 C584 0.929 . S
H557 C585 0.929 . S
H558 C586 0.930 . S
H559 C587 0.929 . S
H560 C589 0.930 . S
H561 C566 0.930 . S
H562 C570 0.930 . S
O563 Co532 2.037 . S
O563 C583 1.234 . S
C564 O538 1.269 . S
C564 O539 1.257 . S
C565 H540 0.930 . S
C565 C568 1.388 . S
C565 C570 1.418 . S
C566 H561 0.930 . S
C566 C569 1.404 . S
C566 C570 1.353 . S
N567 Co532 2.145 . S
N567 C568 1.397 . S
N567 C569 1.334 . S
C568 H549 0.929 . S
C568 C565 1.388 . S
C568 N567 1.397 . S
C569 H550 0.929 . S
C569 C566 1.404 . S
C569 N567 1.334 . S
C570 H562 0.930 . S
C570 C565 1.418 . S
C570 C566 1.353 . S
C571 H541 0.930 . S
C571 N572 1.330 . S
C571 C573 1.446 . S
N572 Co531 2.151 . S
N572 C571 1.330 . S
N572 C576 1.418 . S
C573 H552 0.929 . S
C573 C571 1.446 . S
C573 C574 1.332 . S
C574 H554 0.931 . S
C574 C573 1.332 . S
C574 C575 1.267 . S
C575 H543 0.929 . S
C575 C574 1.267 . S
C575 C576 1.251 . S
C576 H546 0.929 . S
C576 N572 1.418 . S
C576 C575 1.251 . S
C577 H544 0.930 . S
C577 C579 1.406 . S
C577 C582 1.261 . S
C578 H545 0.930 . S
C578 N580 1.325 . S
C578 C581 1.357 . S
C579 H547 0.928 . S
C579 C577 1.406 . S
C579 N580 1.261 . S
N580 Co531 2.214 . S
N580 C578 1.325 . S
N580 C579 1.261 . S
C581 H551 0.931 . S
C581 C578 1.357 . S
C581 C582 1.312 . S
C582 H553 0.930 . S
C582 C577 1.261 . S
C582 C581 1.312 . S
C583 O555 1.214 . S
C583 O563 1.234 . S
C584 H556 0.929 . S
C584 C587 1.391 . S
C584 C589 1.391 . S
C585 H557 0.929 . S
C585 C586 1.390 . S
C585 N588 1.391 . S
C586 H558 0.930 . S
C586 C585 1.390 . S
C586 C587 1.392 . S
C587 H559 0.929 . S
C587 C584 1.391 . S
C587 C586 1.392 . S
N588 Co532 2.257 . S
N588 C585 1.391 . S
N588 C589 1.388 . S
C589 H560 0.930 . S
C589 C584 1.391 . S
C589 N588 1.388 . S
Co590 O592 2.143 . S
Co590 O598 2.074 . S
Co590 O601 2.093 1_554 S
Co590 O614 2.097 1_554 S
Co590 N631 2.151 . S
Co590 N639 2.214 . S
Co591 O592 2.160 1_556 S
Co591 O597 2.058 1_556 S
Co591 O607 2.057 1_556 S
Co591 O622 2.037 . S
Co591 N626 2.145 . S
Co591 N647 2.257 . S
O592 Co590 2.143 . S
O592 Co591 2.160 1_554 S
C593 O594 1.278 . S
C593 O601 1.224 . S
O594 C593 1.278 . S
C595 O596 1.245 . S
C595 O607 1.232 . S
O596 C595 1.245 . S
O597 Co591 2.058 1_554 S
O597 C623 1.269 . S
O598 Co590 2.074 . S
O598 C623 1.257 . S
H599 C624 0.930 . S
H600 C630 0.930 . S
O601 Co590 2.093 1_556 S
O601 C593 1.224 . S
H602 C634 0.929 . S
H603 C636 0.930 . S
H604 C637 0.930 . S
H605 C635 0.929 . S
H606 C638 0.928 . S
O607 Co591 2.057 1_554 S
O607 C595 1.232 . S
H608 C627 0.929 . S
H609 C628 0.929 1_554 S
H610 C640 0.930 1_556 S
H611 C632 0.929 . S
H612 C641 0.930 . S
H613 C633 0.931 . S
O614 Co590 2.097 1_556 S
O614 C642 1.214 . S
H615 C643 0.929 . S
H616 C644 0.929 . S
H617 C645 0.930 . S
H618 C646 0.929 . S
H619 C648 0.930 . S
H620 C625 0.930 1_554 S
H621 C629 0.930 . S
O622 Co591 2.037 . S
O622 C642 1.234 . S
C623 O597 1.269 . S
C623 O598 1.257 . S
C624 H599 0.930 . S
C624 C627 1.388 . S
C624 C629 1.418 . S
C625 H620 0.930 1_556 S
C625 C628 1.404 . S
C625 C629 1.353 . S
N626 Co591 2.145 . S
N626 C627 1.397 . S
N626 C628 1.334 . S
C627 H608 0.929 . S
C627 C624 1.388 . S
C627 N626 1.397 . S
C628 H609 0.929 1_556 S
C628 C625 1.404 . S
C628 N626 1.334 . S
C629 H621 0.930 . S
C629 C624 1.418 . S
C629 C625 1.353 . S
C630 H600 0.930 . S
C630 N631 1.330 . S
C630 C632 1.446 . S
N631 Co590 2.151 . S
N631 C630 1.330 . S
N631 C635 1.418 . S
C632 H611 0.929 . S
C632 C630 1.446 . S
C632 C633 1.332 . S
C633 H613 0.931 . S
C633 C632 1.332 . S
C633 C634 1.267 . S
C634 H602 0.929 . S
C634 C633 1.267 . S
C634 C635 1.251 . S
C635 H605 0.929 . S
C635 N631 1.418 . S
C635 C634 1.251 . S
C636 H603 0.930 . S
C636 C638 1.406 . S
C636 C641 1.261 . S
C637 H604 0.930 . S
C637 N639 1.325 1_556 S
C637 C640 1.357 1_556 S
C638 H606 0.928 . S
C638 C636 1.406 . S
C638 N639 1.261 . S
N639 Co590 2.214 . S
N639 C637 1.325 1_554 S
N639 C638 1.261 . S
C640 H610 0.930 1_554 S
C640 C637 1.357 1_554 S
C640 C641 1.313 . S
C641 H612 0.930 . S
C641 C636 1.261 . S
C641 C640 1.313 . S
C642 O614 1.214 . S
C642 O622 1.234 . S
C643 H615 0.929 . S
C643 C646 1.391 . S
C643 C648 1.391 . S
C644 H616 0.929 . S
C644 C645 1.390 . S
C644 N647 1.391 . S
C645 H617 0.930 . S
C645 C644 1.390 . S
C645 C646 1.392 . S
C646 H618 0.929 . S
C646 C643 1.391 . S
C646 C645 1.392 . S
N647 Co591 2.257 . S
N647 C644 1.391 . S
N647 C648 1.388 . S
C648 H619 0.930 . S
C648 C643 1.391 . S
C648 N647 1.388 . S
Co649 O651 2.143 . S
Co649 O657 2.074 . S
Co649 O660 2.093 . S
Co649 O673 2.097 . S
Co649 N690 2.151 . S
Co649 N698 2.214 . S
Co650 O651 2.160 . S
Co650 O656 2.058 . S
Co650 O666 2.057 . S
Co650 O681 2.037 . S
Co650 N685 2.145 . S
Co650 N706 2.257 . S
O651 Co649 2.143 . S
O651 Co650 2.160 . S
C652 O653 1.278 . S
C652 O660 1.224 . S
O653 C652 1.278 . S
C654 O655 1.245 . S
C654 O666 1.232 . S
O655 C654 1.245 . S
O656 Co650 2.058 . S
O656 C682 1.269 . S
O657 Co649 2.074 . S
O657 C682 1.257 . S
H658 C683 0.930 . S
H659 C689 0.930 . S
O660 Co649 2.093 . S
O660 C652 1.224 . S
H661 C693 0.929 . S
H662 C695 0.930 . S
H663 C696 0.930 . S
H664 C694 0.929 . S
H665 C697 0.928 . S
O666 Co650 2.057 . S
O666 C654 1.232 . S
H667 C686 0.929 . S
H668 C687 0.929 . S
H669 C699 0.931 . S
H670 C691 0.929 . S
H671 C700 0.930 . S
H672 C692 0.931 . S
O673 Co649 2.097 . S
O673 C701 1.214 . S
H674 C702 0.929 . S
H675 C703 0.929 . S
H676 C704 0.930 . S
H677 C705 0.929 . S
H678 C707 0.930 . S
H679 C684 0.930 . S
H680 C688 0.930 . S
O681 Co650 2.037 . S
O681 C701 1.234 . S
C682 O656 1.269 . S
C682 O657 1.257 . S
C683 H658 0.930 . S
C683 C686 1.388 . S
C683 C688 1.418 . S
C684 H679 0.930 . S
C684 C687 1.404 . S
C684 C688 1.353 . S
N685 Co650 2.145 . S
N685 C686 1.397 . S
N685 C687 1.334 . S
C686 H667 0.929 . S
C686 C683 1.388 . S
C686 N685 1.397 . S
C687 H668 0.929 . S
C687 C684 1.404 . S
C687 N685 1.334 . S
C688 H680 0.930 . S
C688 C683 1.418 . S
C688 C684 1.353 . S
C689 H659 0.930 . S
C689 N690 1.330 . S
C689 C691 1.446 . S
N690 Co649 2.151 . S
N690 C689 1.330 . S
N690 C694 1.418 . S
C691 H670 0.929 . S
C691 C689 1.446 . S
C691 C692 1.332 . S
C692 H672 0.931 . S
C692 C691 1.332 . S
C692 C693 1.267 . S
C693 H661 0.929 . S
C693 C692 1.267 . S
C693 C694 1.251 . S
C694 H664 0.929 . S
C694 N690 1.418 . S
C694 C693 1.251 . S
C695 H662 0.930 . S
C695 C697 1.406 . S
C695 C700 1.261 . S
C696 H663 0.930 . S
C696 N698 1.325 . S
C696 C699 1.357 . S
C697 H665 0.928 . S
C697 C695 1.406 . S
C697 N698 1.261 . S
N698 Co649 2.214 . S
N698 C696 1.325 . S
N698 C697 1.261 . S
C699 H669 0.931 . S
C699 C696 1.357 . S
C699 C700 1.312 . S
C700 H671 0.930 . S
C700 C695 1.261 . S
C700 C699 1.312 . S
C701 O673 1.214 . S
C701 O681 1.234 . S
C702 H674 0.929 . S
C702 C705 1.391 . S
C702 C707 1.391 . S
C703 H675 0.929 . S
C703 C704 1.390 . S
C703 N706 1.391 . S
C704 H676 0.930 . S
C704 C703 1.390 . S
C704 C705 1.392 . S
C705 H677 0.929 . S
C705 C702 1.391 . S
C705 C704 1.392 . S
N706 Co650 2.257 . S
N706 C703 1.391 . S
N706 C707 1.388 . S
C707 H678 0.930 . S
C707 C702 1.391 . S
C707 N706 1.388 . S
Co708 O710 2.143 . S
Co708 O716 2.074 . S
Co708 O719 2.093 . S
Co708 O732 2.097 . S
Co708 N749 2.151 . S
Co708 N757 2.214 . S
Co709 O710 2.160 . S
Co709 O715 2.058 . S
Co709 O725 2.057 . S
Co709 O740 2.037 . S
Co709 N744 2.145 . S
Co709 N765 2.257 . S
O710 Co708 2.143 . S
O710 Co709 2.160 . S
C711 O712 1.278 . S
C711 O719 1.224 . S
O712 C711 1.278 . S
C713 O714 1.245 . S
C713 O725 1.232 . S
O714 C713 1.245 . S
O715 Co709 2.058 . S
O715 C741 1.269 . S
O716 Co708 2.074 . S
O716 C741 1.257 . S
H717 C742 0.930 . S
H718 C748 0.930 . S
O719 Co708 2.093 . S
O719 C711 1.224 . S
H720 C752 0.929 . S
H721 C754 0.930 . S
H722 C755 0.930 . S
H723 C753 0.929 . S
H724 C756 0.928 . S
O725 Co709 2.057 . S
O725 C713 1.232 . S
H726 C745 0.929 . S
H727 C746 0.929 . S
H728 C758 0.931 . S
H729 C750 0.929 . S
H730 C759 0.930 . S
H731 C751 0.931 . S
O732 Co708 2.097 . S
O732 C760 1.214 . S
H733 C761 0.929 . S
H734 C762 0.929 . S
H735 C763 0.930 . S
H736 C764 0.929 . S
H737 C766 0.930 . S
H738 C743 0.930 . S
H739 C747 0.930 . S
O740 Co709 2.037 . S
O740 C760 1.234 . S
C741 O715 1.269 . S
C741 O716 1.257 . S
C742 H717 0.930 . S
C742 C745 1.388 . S
C742 C747 1.418 . S
C743 H738 0.930 . S
C743 C746 1.404 . S
C743 C747 1.353 . S
N744 Co709 2.145 . S
N744 C745 1.397 . S
N744 C746 1.334 . S
C745 H726 0.929 . S
C745 C742 1.388 . S
C745 N744 1.397 . S
C746 H727 0.929 . S
C746 C743 1.404 . S
C746 N744 1.334 . S
C747 H739 0.930 . S
C747 C742 1.418 . S
C747 C743 1.353 . S
C748 H718 0.930 . S
C748 N749 1.330 . S
C748 C750 1.446 . S
N749 Co708 2.151 . S
N749 C748 1.330 . S
N749 C753 1.418 . S
C750 H729 0.929 . S
C750 C748 1.446 . S
C750 C751 1.332 . S
C751 H731 0.931 . S
C751 C750 1.332 . S
C751 C752 1.267 . S
C752 H720 0.929 . S
C752 C751 1.267 . S
C752 C753 1.251 . S
C753 H723 0.929 . S
C753 N749 1.418 . S
C753 C752 1.251 . S
C754 H721 0.930 . S
C754 C756 1.406 . S
C754 C759 1.261 . S
C755 H722 0.930 . S
C755 N757 1.325 . S
C755 C758 1.357 . S
C756 H724 0.928 . S
C756 C754 1.406 . S
C756 N757 1.261 . S
N757 Co708 2.214 . S
N757 C755 1.325 . S
N757 C756 1.261 . S
C758 H728 0.931 . S
C758 C755 1.357 . S
C758 C759 1.312 . S
C759 H730 0.930 . S
C759 C754 1.261 . S
C759 C758 1.312 . S
C760 O732 1.214 . S
C760 O740 1.234 . S
C761 H733 0.929 . S
C761 C764 1.391 . S
C761 C766 1.391 . S
C762 H734 0.929 . S
C762 C763 1.390 . S
C762 N765 1.391 . S
C763 H735 0.930 . S
C763 C762 1.390 . S
C763 C764 1.392 . S
C764 H736 0.929 . S
C764 C761 1.391 . S
C764 C763 1.392 . S
N765 Co709 2.257 . S
N765 C762 1.391 . S
N765 C766 1.388 . S
C766 H737 0.930 . S
C766 C761 1.391 . S
C766 N765 1.388 . S
Co767 O769 2.143 . S
Co767 O775 2.074 . S
Co767 O778 2.093 . S
Co767 O791 2.097 . S
Co767 N808 2.151 . S
Co767 N816 2.214 . S
Co768 O769 2.160 . S
Co768 O774 2.058 . S
Co768 O784 2.057 . S
Co768 O799 2.037 . S
Co768 N803 2.145 . S
Co768 N824 2.257 . S
O769 Co767 2.143 . S
O769 Co768 2.160 . S
C770 O771 1.278 . S
C770 O778 1.224 . S
O771 C770 1.278 . S
C772 O773 1.245 . S
C772 O784 1.232 . S
O773 C772 1.245 . S
O774 Co768 2.058 . S
O774 C800 1.269 . S
O775 Co767 2.074 . S
O775 C800 1.257 . S
H776 C801 0.930 . S
H777 C807 0.930 . S
O778 Co767 2.093 . S
O778 C770 1.224 . S
H779 C811 0.929 . S
H780 C813 0.930 . S
H781 C814 0.930 . S
H782 C812 0.929 . S
H783 C815 0.928 . S
O784 Co768 2.057 . S
O784 C772 1.232 . S
H785 C804 0.929 . S
H786 C805 0.929 . S
H787 C817 0.931 . S
H788 C809 0.929 . S
H789 C818 0.930 . S
H790 C810 0.931 . S
O791 Co767 2.097 . S
O791 C819 1.214 . S
H792 C820 0.929 . S
H793 C821 0.929 . S
H794 C822 0.930 . S
H795 C823 0.929 . S
H796 C825 0.930 . S
H797 C802 0.930 . S
H798 C806 0.930 . S
O799 Co768 2.037 . S
O799 C819 1.234 . S
C800 O774 1.269 . S
C800 O775 1.257 . S
C801 H776 0.930 . S
C801 C804 1.388 . S
C801 C806 1.418 . S
C802 H797 0.930 . S
C802 C805 1.404 . S
C802 C806 1.353 . S
N803 Co768 2.145 . S
N803 C804 1.397 . S
N803 C805 1.334 . S
C804 H785 0.929 . S
C804 C801 1.388 . S
C804 N803 1.397 . S
C805 H786 0.929 . S
C805 C802 1.404 . S
C805 N803 1.334 . S
C806 H798 0.930 . S
C806 C801 1.418 . S
C806 C802 1.353 . S
C807 H777 0.930 . S
C807 N808 1.330 . S
C807 C809 1.446 . S
N808 Co767 2.151 . S
N808 C807 1.330 . S
N808 C812 1.418 . S
C809 H788 0.929 . S
C809 C807 1.446 . S
C809 C810 1.332 . S
C810 H790 0.931 . S
C810 C809 1.332 . S
C810 C811 1.267 . S
C811 H779 0.929 . S
C811 C810 1.267 . S
C811 C812 1.251 . S
C812 H782 0.929 . S
C812 N808 1.418 . S
C812 C811 1.251 . S
C813 H780 0.930 . S
C813 C815 1.406 . S
C813 C818 1.261 . S
C814 H781 0.930 . S
C814 N816 1.325 . S
C814 C817 1.357 . S
C815 H783 0.928 . S
C815 C813 1.406 . S
C815 N816 1.261 . S
N816 Co767 2.214 . S
N816 C814 1.325 . S
N816 C815 1.261 . S
C817 H787 0.931 . S
C817 C814 1.357 . S
C817 C818 1.312 . S
C818 H789 0.930 . S
C818 C813 1.261 . S
C818 C817 1.312 . S
C819 O791 1.214 . S
C819 O799 1.234 . S
C820 H792 0.929 . S
C820 C823 1.391 . S
C820 C825 1.391 . S
C821 H793 0.929 . S
C821 C822 1.390 . S
C821 N824 1.391 . S
C822 H794 0.930 . S
C822 C821 1.390 . S
C822 C823 1.392 . S
C823 H795 0.929 . S
C823 C820 1.391 . S
C823 C822 1.392 . S
N824 Co768 2.257 . S
N824 C821 1.391 . S
N824 C825 1.388 . S
C825 H796 0.930 . S
C825 C820 1.391 . S
C825 N824 1.388 . S
Co826 O828 2.143 . S
Co826 O834 2.068 1_554 S
Co826 O837 2.098 . S
Co826 O850 2.105 . S
Co826 N867 2.143 1_554 S
Co826 N875 2.214 . S
Co827 O828 2.160 . S
Co827 O833 2.058 1_554 S
Co827 O843 2.057 1_554 S
Co827 O858 2.037 . S
Co827 N862 2.145 . S
Co827 N883 2.257 . S
O828 Co826 2.143 . S
O828 Co827 2.160 . S
C829 O830 1.278 . S
C829 O837 1.224 . S
O830 C829 1.278 . S
C831 O832 1.245 . S
C831 O843 1.232 . S
O832 C831 1.245 . S
O833 Co827 2.058 1_556 S
O833 C859 1.269 . S
O834 Co826 2.068 1_556 S
O834 C859 1.257 . S
H835 C860 0.930 . S
H836 C866 0.930 . S
O837 Co826 2.098 . S
O837 C829 1.224 . S
H838 C870 0.929 . S
H839 C872 0.930 . S
H840 C873 0.930 . S
H841 C871 0.929 . S
H842 C874 0.928 . S
O843 Co827 2.057 1_556 S
O843 C831 1.232 . S
H844 C863 0.929 . S
H845 C864 0.929 . S
H846 C876 0.931 . S
H847 C868 0.929 . S
H848 C877 0.930 . S
H849 C869 0.931 . S
O850 Co826 2.105 . S
O850 C878 1.214 . S
H851 C879 0.929 . S
H852 C880 0.929 . S
H853 C881 0.930 . S
H854 C882 0.929 . S
H855 C884 0.930 . S
H856 C861 0.930 . S
H857 C865 0.930 . S
O858 Co827 2.037 . S
O858 C878 1.234 . S
C859 O833 1.269 . S
C859 O834 1.257 . S
C860 H835 0.930 . S
C860 C863 1.388 . S
C860 C865 1.418 . S
C861 H856 0.930 . S
C861 C864 1.404 . S
C861 C865 1.353 . S
N862 Co827 2.145 . S
N862 C863 1.397 . S
N862 C864 1.334 . S
C863 H844 0.929 . S
C863 C860 1.388 . S
C863 N862 1.397 . S
C864 H845 0.929 . S
C864 C861 1.404 . S
C864 N862 1.334 . S
C865 H857 0.930 . S
C865 C860 1.418 . S
C865 C861 1.353 . S
C866 H836 0.930 . S
C866 N867 1.330 . S
C866 C868 1.446 . S
N867 Co826 2.143 1_556 S
N867 C866 1.330 . S
N867 C871 1.418 . S
C868 H847 0.929 . S
C868 C866 1.446 . S
C868 C869 1.332 . S
C869 H849 0.931 . S
C869 C868 1.332 . S
C869 C870 1.267 . S
C870 H838 0.929 . S
C870 C869 1.267 . S
C870 C871 1.251 . S
C871 H841 0.929 . S
C871 N867 1.418 . S
C871 C870 1.251 . S
C872 H839 0.930 . S
C872 C874 1.406 . S
C872 C877 1.259 1_556 S
C873 H840 0.930 . S
C873 N875 1.325 . S
C873 C876 1.357 . S
C874 H842 0.928 . S
C874 C872 1.406 . S
C874 N875 1.261 1_556 S
N875 Co826 2.214 . S
N875 C873 1.325 . S
N875 C874 1.261 1_554 S
C876 H846 0.931 . S
C876 C873 1.357 . S
C876 C877 1.315 . S
C877 H848 0.930 . S
C877 C872 1.259 1_554 S
C877 C876 1.315 . S
C878 O850 1.214 . S
C878 O858 1.234 . S
C879 H851 0.929 . S
C879 C882 1.391 . S
C879 C884 1.391 . S
C880 H852 0.929 . S
C880 C881 1.390 . S
C880 N883 1.391 . S
C881 H853 0.930 . S
C881 C880 1.390 . S
C881 C882 1.392 . S
C882 H854 0.929 . S
C882 C879 1.391 . S
C882 C881 1.392 . S
N883 Co827 2.257 . S
N883 C880 1.391 . S
N883 C884 1.388 . S
C884 H855 0.930 . S
C884 C879 1.391 . S
C884 N883 1.388 . S
Co885 O887 2.143 . S
Co885 O893 2.074 . S
Co885 O896 2.093 . S
Co885 O909 2.097 . S
Co885 N926 2.151 . S
Co885 N934 2.214 . S
Co886 O887 2.160 . S
Co886 O892 2.058 . S
Co886 O902 2.057 . S
Co886 O917 2.037 . S
Co886 N921 2.145 . S
Co886 N942 2.257 . S
O887 Co885 2.143 . S
O887 Co886 2.160 . S
C888 O889 1.278 . S
C888 O896 1.224 . S
O889 C888 1.278 . S
C890 O891 1.245 . S
C890 O902 1.232 . S
O891 C890 1.245 . S
O892 Co886 2.058 . S
O892 C918 1.269 . S
O893 Co885 2.074 . S
O893 C918 1.257 . S
H894 C919 0.930 . S
H895 C925 0.930 . S
O896 Co885 2.093 . S
O896 C888 1.224 . S
H897 C929 0.929 . S
H898 C931 0.930 . S
H899 C932 0.930 . S
H900 C930 0.929 . S
H901 C933 0.928 . S
O902 Co886 2.057 . S
O902 C890 1.232 . S
H903 C922 0.929 . S
H904 C923 0.929 . S
H905 C935 0.931 . S
H906 C927 0.929 . S
H907 C936 0.930 . S
H908 C928 0.931 . S
O909 Co885 2.097 . S
O909 C937 1.214 . S
H910 C938 0.929 . S
H911 C939 0.929 . S
H912 C940 0.930 . S
H913 C941 0.929 . S
H914 C943 0.930 . S
H915 C920 0.930 . S
H916 C924 0.930 . S
O917 Co886 2.037 . S
O917 C937 1.234 . S
C918 O892 1.269 . S
C918 O893 1.257 . S
C919 H894 0.930 . S
C919 C922 1.388 . S
C919 C924 1.418 . S
C920 H915 0.930 . S
C920 C923 1.404 . S
C920 C924 1.353 . S
N921 Co886 2.145 . S
N921 C922 1.397 . S
N921 C923 1.334 . S
C922 H903 0.929 . S
C922 C919 1.388 . S
C922 N921 1.397 . S
C923 H904 0.929 . S
C923 C920 1.404 . S
C923 N921 1.334 . S
C924 H916 0.930 . S
C924 C919 1.418 . S
C924 C920 1.353 . S
C925 H895 0.930 . S
C925 N926 1.330 . S
C925 C927 1.446 . S
N926 Co885 2.151 . S
N926 C925 1.330 . S
N926 C930 1.418 . S
C927 H906 0.929 . S
C927 C925 1.446 . S
C927 C928 1.332 . S
C928 H908 0.931 . S
C928 C927 1.332 . S
C928 C929 1.267 . S
C929 H897 0.929 . S
C929 C928 1.267 . S
C929 C930 1.251 . S
C930 H900 0.929 . S
C930 N926 1.418 . S
C930 C929 1.251 . S
C931 H898 0.930 . S
C931 C933 1.406 . S
C931 C936 1.261 . S
C932 H899 0.930 . S
C932 N934 1.325 . S
C932 C935 1.357 . S
C933 H901 0.928 . S
C933 C931 1.406 . S
C933 N934 1.261 . S
N934 Co885 2.214 . S
N934 C932 1.325 . S
N934 C933 1.261 . S
C935 H905 0.931 . S
C935 C932 1.357 . S
C935 C936 1.312 . S
C936 H907 0.930 . S
C936 C931 1.261 . S
C936 C935 1.312 . S
C937 O909 1.214 . S
C937 O917 1.234 . S
C938 H910 0.929 . S
C938 C941 1.391 . S
C938 C943 1.391 . S
C939 H911 0.929 . S
C939 C940 1.390 . S
C939 N942 1.391 . S
C940 H912 0.930 . S
C940 C939 1.390 . S
C940 C941 1.392 . S
C941 H913 0.929 . S
C941 C938 1.391 . S
C941 C940 1.392 . S
N942 Co886 2.257 . S
N942 C939 1.391 . S
N942 C943 1.388 . S
C943 H914 0.930 . S
C943 C938 1.391 . S
C943 N942 1.388 . S
C944 C945 1.391 . S
C944 C946 1.394 . S
C944 H960 0.931 . S
C945 C944 1.391 . S
C945 C949 1.376 . S
C946 C944 1.394 . S
C946 C947 1.369 . S
C946 C950 1.531 . S
C947 C946 1.369 . S
C947 C948 1.410 . S
C947 C955 1.503 . S
C948 C947 1.410 . S
C948 C949 1.392 . S
C948 C951 1.511 . S
C949 C945 1.376 . S
C949 C948 1.392 . S
C949 H961 0.929 . S
C950 C946 1.531 . S
C950 H962 0.960 . S
C950 H963 0.962 . S
C950 H964 0.960 . S
C951 C948 1.511 . S
C951 H965 0.961 . S
C951 H966 0.961 . S
C951 H967 0.961 . S
C952 C953 1.370 . S
C952 C954 1.363 . S
C952 H968 0.931 . S
C953 C952 1.370 . S
C953 C957 1.408 . S
C954 C952 1.363 . S
C954 C955 1.370 . S
C954 C958 1.524 . S
C955 C947 1.503 . S
C955 C954 1.370 . S
C955 C956 1.403 . S
C956 C955 1.403 . S
C956 C957 1.404 . S
C956 C959 1.539 . S
C957 C953 1.408 . S
C957 C956 1.404 . S
C957 H969 0.930 . S
C958 C954 1.524 . S
C958 H970 0.956 . S
C958 H971 0.961 . S
C958 H972 0.961 . S
C959 C956 1.539 . S
C959 H973 0.958 . S
C959 H974 0.961 . S
C959 H975 0.960 . S
H960 C944 0.931 . S
H961 C949 0.929 . S
H962 C950 0.960 . S
H963 C950 0.962 . S
H964 C950 0.960 . S
H965 C951 0.961 . S
H966 C951 0.961 . S
H967 C951 0.961 . S
H968 C952 0.931 . S
H969 C957 0.930 . S
H970 C958 0.956 . S
H971 C958 0.961 . S
H972 C958 0.961 . S
H973 C959 0.958 . S
H974 C959 0.961 . S
H975 C959 0.960 . S
C976 C977 1.391 . S
C976 C978 1.394 . S
C976 H992 0.931 . S
C977 C976 1.391 . S
C977 C981 1.376 . S
C978 C976 1.394 . S
C978 C979 1.369 . S
C978 C982 1.531 1_655 S
C979 C978 1.369 . S
C979 C980 1.410 . S
C979 C987 1.503 1_655 S
C980 C979 1.410 . S
C980 C981 1.392 . S
C980 C983 1.511 . S
C981 C977 1.376 . S
C981 C980 1.392 . S
C981 H993 0.921 1_545 S
C982 C978 1.531 1_455 S
C982 H994 0.960 . S
C982 H995 1.012 . S
C982 H996 0.960 . S
C983 C980 1.511 . S
C983 H997 0.961 1_545 S
C983 H998 0.961 1_545 S
C983 H999 0.961 . S
C984 C985 1.370 1_565 S
C984 C986 1.363 . S
C984 H1000 0.931 . S
C985 C984 1.370 1_545 S
C985 C989 1.408 . S
C986 C984 1.363 . S
C986 C987 1.370 1_565 S
C986 C990 1.524 . S
C987 C979 1.503 1_455 S
C987 C986 1.370 1_545 S
C987 C988 1.403 . S
C988 C987 1.403 . S
C988 C989 1.404 . S
C988 C991 1.539 . S
C989 C985 1.408 . S
C989 C988 1.404 . S
C989 H1001 0.930 . S
C990 C986 1.524 . S
C990 H1002 0.956 . S
C990 H1003 0.961 1_455 S
C990 H1004 0.961 . S
C991 C988 1.539 . S
C991 H1005 0.958 . S
C991 H1006 0.961 . S
C991 H1007 0.960 1_455 S
H992 C976 0.931 . S
H993 C981 0.921 1_565 S
H994 C982 0.960 . S
H995 C982 1.012 . S
H996 C982 0.960 . S
H997 C983 0.961 1_565 S
H998 C983 0.961 1_565 S
H999 C983 0.961 . S
H1000 C984 0.931 . S
H1001 C989 0.930 . S
H1002 C990 0.956 . S
H1003 C990 0.961 1_655 S
H1004 C990 0.961 . S
H1005 C991 0.958 . S
H1006 C991 0.961 . S
H1007 C991 0.960 1_655 S
C1008 C1009 1.391 . S
C1008 C1010 1.394 . S
C1008 H1024 0.931 . S
C1009 C1008 1.391 . S
C1009 C1013 1.376 . S
C1010 C1008 1.394 . S
C1010 C1011 1.369 . S
C1010 C1014 1.531 . S
C1011 C1010 1.369 . S
C1011 C1012 1.410 . S
C1011 C1019 1.503 . S
C1012 C1011 1.410 . S
C1012 C1013 1.392 . S
C1012 C1015 1.511 . S
C1013 C1009 1.376 . S
C1013 C1012 1.392 . S
C1013 H1025 0.929 . S
C1014 C1010 1.531 . S
C1014 H1026 0.960 . S
C1014 H1027 0.962 . S
C1014 H1028 0.960 . S
C1015 C1012 1.511 . S
C1015 H1029 0.961 . S
C1015 H1030 0.961 . S
C1015 H1031 0.961 . S
C1016 C1017 1.370 . S
C1016 C1018 1.363 . S
C1016 H1032 0.931 . S
C1017 C1016 1.370 . S
C1017 C1021 1.408 . S
C1018 C1016 1.363 . S
C1018 C1019 1.370 . S
C1018 C1022 1.524 . S
C1019 C1011 1.503 . S
C1019 C1018 1.370 . S
C1019 C1020 1.403 . S
C1020 C1019 1.403 . S
C1020 C1021 1.404 . S
C1020 C1023 1.539 . S
C1021 C1017 1.408 . S
C1021 C1020 1.404 . S
C1021 H1033 0.930 . S
C1022 C1018 1.524 . S
C1022 H1034 0.956 . S
C1022 H1035 0.961 . S
C1022 H1036 0.961 . S
C1023 C1020 1.539 . S
C1023 H1037 0.958 . S
C1023 H1038 0.961 . S
C1023 H1039 0.960 . S
H1024 C1008 0.931 . S
H1025 C1013 0.929 . S
H1026 C1014 0.960 . S
H1027 C1014 0.962 . S
H1028 C1014 0.960 . S
H1029 C1015 0.961 . S
H1030 C1015 0.961 . S
H1031 C1015 0.961 . S
H1032 C1016 0.931 . S
H1033 C1021 0.930 . S
H1034 C1022 0.956 . S
H1035 C1022 0.961 . S
H1036 C1022 0.961 . S
H1037 C1023 0.958 . S
H1038 C1023 0.961 . S
H1039 C1023 0.960 . S
C1040 C1041 1.410 . S
C1040 C1042 1.394 . S
C1040 H1056 0.931 . S
C1041 C1040 1.410 . S
C1041 C1045 1.361 1_565 S
C1042 C1040 1.394 . S
C1042 C1043 1.369 . S
C1042 C1046 1.531 . S
C1043 C1042 1.369 . S
C1043 C1044 1.410 1_565 S
C1043 C1051 1.500 1_564 S
C1044 C1043 1.410 1_545 S
C1044 C1045 1.392 . S
C1044 C1047 1.511 1_554 S
C1045 C1041 1.361 1_545 S
C1045 C1044 1.392 . S
C1045 H1057 0.929 . S
C1046 C1042 1.531 . S
C1046 H1058 0.960 . S
C1046 H1059 0.962 . S
C1046 H1060 0.960 . S
C1047 C1044 1.511 1_556 S
C1047 H1061 0.961 . S
C1047 H1062 0.961 . S
C1047 H1063 0.961 . S
C1048 C1049 1.370 . S
C1048 C1050 1.363 . S
C1048 H1064 0.931 . S
C1049 C1048 1.370 . S
C1049 C1053 1.408 1_545 S
C1050 C1048 1.363 . S
C1050 C1051 1.404 . S
C1050 C1054 1.524 1_556 S
C1051 C1043 1.500 1_546 S
C1051 C1050 1.404 . S
C1051 C1052 1.373 1_545 S
C1052 C1051 1.373 1_565 S
C1052 C1053 1.404 . S
C1052 C1055 1.539 . S
C1053 C1049 1.408 1_565 S
C1053 C1052 1.404 . S
C1053 H1065 0.930 . S
C1054 C1050 1.524 1_554 S
C1054 H1066 0.956 . S
C1054 H1067 0.961 . S
C1054 H1068 0.961 . S
C1055 C1052 1.539 . S
C1055 H1069 0.958 . S
C1055 H1070 0.961 . S
C1055 H1071 0.960 . S
H1056 C1040 0.931 . S
H1057 C1045 0.929 . S
H1058 C1046 0.960 . S
H1059 C1046 0.962 . S
H1060 C1046 0.960 . S
H1061 C1047 0.961 . S
H1062 C1047 0.961 . S
H1063 C1047 0.961 . S
H1064 C1048 0.931 . S
H1065 C1053 0.930 . S
H1066 C1054 0.956 . S
H1067 C1054 0.961 . S
H1068 C1054 0.961 . S
H1069 C1055 0.958 . S
H1070 C1055 0.961 . S
H1071 C1055 0.960 . S
C1072 C1073 1.391 . S
C1072 C1074 1.394 . S
C1072 H1088 0.931 . S
C1073 C1072 1.391 . S
C1073 C1077 1.376 . S
C1074 C1072 1.394 . S
C1074 C1075 1.369 . S
C1074 C1078 1.531 . S
C1075 C1074 1.369 . S
C1075 C1076 1.410 . S
C1075 C1083 1.503 . S
C1076 C1075 1.410 . S
C1076 C1077 1.392 . S
C1076 C1079 1.511 . S
C1077 C1073 1.376 . S
C1077 C1076 1.392 . S
C1077 H1089 0.929 . S
C1078 C1074 1.531 . S
C1078 H1090 0.960 . S
C1078 H1091 0.962 . S
C1078 H1092 0.960 . S
C1079 C1076 1.511 . S
C1079 H1093 0.961 . S
C1079 H1094 0.961 . S
C1079 H1095 0.961 . S
C1080 C1081 1.370 . S
C1080 C1082 1.363 . S
C1080 H1096 0.931 . S
C1081 C1080 1.370 . S
C1081 C1085 1.408 . S
C1082 C1080 1.363 . S
C1082 C1083 1.370 . S
C1082 C1086 1.524 . S
C1083 C1075 1.503 . S
C1083 C1082 1.370 . S
C1083 C1084 1.403 . S
C1084 C1083 1.403 . S
C1084 C1085 1.404 . S
C1084 C1087 1.539 . S
C1085 C1081 1.408 . S
C1085 C1084 1.404 . S
C1085 H1097 0.930 . S
C1086 C1082 1.524 . S
C1086 H1098 0.956 . S
C1086 H1099 0.961 . S
C1086 H1100 0.961 . S
C1087 C1084 1.539 . S
C1087 H1101 0.958 . S
C1087 H1102 0.961 . S
C1087 H1103 0.960 . S
H1088 C1072 0.931 . S
H1089 C1077 0.929 . S
H1090 C1078 0.960 . S
H1091 C1078 0.962 . S
H1092 C1078 0.960 . S
H1093 C1079 0.961 . S
H1094 C1079 0.961 . S
H1095 C1079 0.961 . S
H1096 C1080 0.931 . S
H1097 C1085 0.930 . S
H1098 C1086 0.956 . S
H1099 C1086 0.961 . S
H1100 C1086 0.961 . S
H1101 C1087 0.958 . S
H1102 C1087 0.961 . S
H1103 C1087 0.960 . S
C1104 C1105 1.391 1_565 S
C1104 C1106 1.394 . S
C1104 H1120 0.931 . S
C1105 C1104 1.391 1_545 S
C1105 C1109 1.376 . S
C1106 C1104 1.394 . S
C1106 C1107 1.369 1_565 S
C1106 C1110 1.531 . S
C1107 C1106 1.369 1_545 S
C1107 C1108 1.410 . S
C1107 C1115 1.503 . S
C1108 C1107 1.410 . S
C1108 C1109 1.392 . S
C1108 C1111 1.511 . S
C1109 C1105 1.376 . S
C1109 C1108 1.392 . S
C1109 H1121 0.929 . S
C1110 C1106 1.531 . S
C1110 H1122 0.960 . S
C1110 H1123 0.962 . S
C1110 H1124 0.960 . S
C1111 C1108 1.511 . S
C1111 H1125 0.961 . S
C1111 H1126 0.961 . S
C1111 H1127 0.961 . S
C1112 C1113 1.381 . S
C1112 C1114 1.363 . S
C1112 H1128 0.931 . S
C1113 C1112 1.381 . S
C1113 C1117 1.398 1_545 S
C1114 C1112 1.363 . S
C1114 C1115 1.370 . S
C1114 C1118 1.524 . S
C1115 C1107 1.503 . S
C1115 C1114 1.370 . S
C1115 C1116 1.403 1_545 S
C1116 C1115 1.403 1_565 S
C1116 C1117 1.404 . S
C1116 C1119 1.539 . S
C1117 C1113 1.398 1_565 S
C1117 C1116 1.404 . S
C1117 H1129 0.930 . S
C1118 C1114 1.524 . S
C1118 H1130 0.956 . S
C1118 H1131 0.961 . S
C1118 H1132 0.961 . S
C1119 C1116 1.539 . S
C1119 H1133 0.958 . S
C1119 H1134 0.961 . S
C1119 H1135 0.960 . S
H1120 C1104 0.931 . S
H1121 C1109 0.929 . S
H1122 C1110 0.960 . S
H1123 C1110 0.962 . S
H1124 C1110 0.960 . S
H1125 C1111 0.961 . S
H1126 C1111 0.961 . S
H1127 C1111 0.961 . S
H1128 C1112 0.931 . S
H1129 C1117 0.930 . S
H1130 C1118 0.956 . S
H1131 C1118 0.961 . S
H1132 C1118 0.961 . S
H1133 C1119 0.958 . S
H1134 C1119 0.961 . S
H1135 C1119 0.960 . S
C1136 C1137 1.391 . S
C1136 C1138 1.394 . S
C1136 H1152 0.931 . S
C1137 C1136 1.391 . S
C1137 C1141 1.376 . S
C1138 C1136 1.394 . S
C1138 C1139 1.369 . S
C1138 C1142 1.531 . S
C1139 C1138 1.369 . S
C1139 C1140 1.410 . S
C1139 C1147 1.503 . S
C1140 C1139 1.410 . S
C1140 C1141 1.392 . S
C1140 C1143 1.511 . S
C1141 C1137 1.376 . S
C1141 C1140 1.392 . S
C1141 H1153 0.929 . S
C1142 C1138 1.531 . S
C1142 H1154 0.960 . S
C1142 H1155 0.962 . S
C1142 H1156 0.960 . S
C1143 C1140 1.511 . S
C1143 H1157 0.961 . S
C1143 H1158 0.961 . S
C1143 H1159 0.961 . S
C1144 C1145 1.370 . S
C1144 C1146 1.363 . S
C1144 H1160 0.931 . S
C1145 C1144 1.370 . S
C1145 C1149 1.408 . S
C1146 C1144 1.363 . S
C1146 C1147 1.370 . S
C1146 C1150 1.524 . S
C1147 C1139 1.503 . S
C1147 C1146 1.370 . S
C1147 C1148 1.403 . S
C1148 C1147 1.403 . S
C1148 C1149 1.404 . S
C1148 C1151 1.539 . S
C1149 C1145 1.408 . S
C1149 C1148 1.404 . S
C1149 H1161 0.930 . S
C1150 C1146 1.524 . S
C1150 H1162 0.956 . S
C1150 H1163 0.961 . S
C1150 H1164 0.961 . S
C1151 C1148 1.539 . S
C1151 H1165 0.958 . S
C1151 H1166 0.961 . S
C1151 H1167 0.960 . S
H1152 C1136 0.931 . S
H1153 C1141 0.929 . S
H1154 C1142 0.960 . S
H1155 C1142 0.962 . S
H1156 C1142 0.960 . S
H1157 C1143 0.961 . S
H1158 C1143 0.961 . S
H1159 C1143 0.961 . S
H1160 C1144 0.931 . S
H1161 C1149 0.930 . S
H1162 C1150 0.956 . S
H1163 C1150 0.961 . S
H1164 C1150 0.961 . S
H1165 C1151 0.958 . S
H1166 C1151 0.961 . S
H1167 C1151 0.960 . S
C1168 C1169 1.391 . S
C1168 C1170 1.394 . S
C1168 H1184 0.931 . S
C1169 C1168 1.391 . S
C1169 C1173 1.376 1_545 S
C1170 C1168 1.394 . S
C1170 C1171 1.369 . S
C1170 C1174 1.531 1_556 S
C1171 C1170 1.369 . S
C1171 C1172 1.418 1_545 S
C1171 C1179 1.503 1_456 S
C1172 C1171 1.418 1_565 S
C1172 C1173 1.405 . S
C1172 C1175 1.491 1_455 S
C1173 C1169 1.376 1_565 S
C1173 C1172 1.405 . S
C1173 H1185 0.929 . S
C1174 C1170 1.531 1_554 S
C1174 H1186 0.960 . S
C1174 H1187 0.962 . S
C1174 H1188 0.960 . S
C1175 C1172 1.491 1_655 S
C1175 H1189 0.961 . S
C1175 H1190 0.961 . S
C1175 H1191 0.961 1_565 S
C1176 C1177 1.370 1_565 S
C1176 C1178 1.363 . S
C1176 H1192 0.931 . S
C1177 C1176 1.370 1_545 S
C1177 C1181 1.408 . S
C1178 C1176 1.363 . S
C1178 C1179 1.370 1_565 S
C1178 C1182 1.524 1_655 S
C1179 C1171 1.503 1_654 S
C1179 C1178 1.370 1_545 S
C1179 C1180 1.403 . S
C1180 C1179 1.403 . S
C1180 C1181 1.404 . S
C1180 C1183 1.539 1_554 S
C1181 C1177 1.408 . S
C1181 C1180 1.404 . S
C1181 H1193 0.930 . S
C1182 C1178 1.524 1_455 S
C1182 H1194 0.956 . S
C1182 H1195 0.966 . S
C1182 H1196 0.961 1_455 S
C1183 C1180 1.539 1_556 S
C1183 H1197 0.958 1_556 S
C1183 H1198 0.961 . S
C1183 H1199 0.960 . S
H1184 C1168 0.931 . S
H1185 C1173 0.929 . S
H1186 C1174 0.960 . S
H1187 C1174 0.962 . S
H1188 C1174 0.960 . S
H1189 C1175 0.961 . S
H1190 C1175 0.961 . S
H1191 C1175 0.961 1_545 S
H1192 C1176 0.931 . S
H1193 C1181 0.930 . S
H1194 C1182 0.956 . S
H1195 C1182 0.966 . S
H1196 C1182 0.961 1_655 S
H1197 C1183 0.958 1_554 S
H1198 C1183 0.961 . S
H1199 C1183 0.960 . S
C1200 C1201 1.391 . S
C1200 C1202 1.394 . S
C1200 H1216 0.931 . S
C1201 C1200 1.391 . S
C1201 C1205 1.376 . S
C1202 C1200 1.394 . S
C1202 C1203 1.369 . S
C1202 C1206 1.531 . S
C1203 C1202 1.369 . S
C1203 C1204 1.410 . S
C1203 C1211 1.503 . S
C1204 C1203 1.410 . S
C1204 C1205 1.392 . S
C1204 C1207 1.511 . S
C1205 C1201 1.376 . S
C1205 C1204 1.392 . S
C1205 H1217 0.929 . S
C1206 C1202 1.531 . S
C1206 H1218 0.960 . S
C1206 H1219 0.962 . S
C1206 H1220 0.960 . S
C1207 C1204 1.511 . S
C1207 H1221 0.961 . S
C1207 H1222 0.961 . S
C1207 H1223 0.961 . S
C1208 C1209 1.370 . S
C1208 C1210 1.363 . S
C1208 H1224 0.931 . S
C1209 C1208 1.370 . S
C1209 C1213 1.408 . S
C1210 C1208 1.363 . S
C1210 C1211 1.370 . S
C1210 C1214 1.524 . S
C1211 C1203 1.503 . S
C1211 C1210 1.370 . S
C1211 C1212 1.403 . S
C1212 C1211 1.403 . S
C1212 C1213 1.404 . S
C1212 C1215 1.539 . S
C1213 C1209 1.408 . S
C1213 C1212 1.404 . S
C1213 H1225 0.930 . S
C1214 C1210 1.524 . S
C1214 H1226 0.956 . S
C1214 H1227 0.961 . S
C1214 H1228 0.961 . S
C1215 C1212 1.539 . S
C1215 H1229 0.958 . S
C1215 H1230 0.961 . S
C1215 H1231 0.960 . S
H1216 C1200 0.931 . S
H1217 C1205 0.929 . S
H1218 C1206 0.960 . S
H1219 C1206 0.962 . S
H1220 C1206 0.960 . S
H1221 C1207 0.961 . S
H1222 C1207 0.961 . S
H1223 C1207 0.961 . S
H1224 C1208 0.931 . S
H1225 C1213 0.930 . S
H1226 C1214 0.956 . S
H1227 C1214 0.961 . S
H1228 C1214 0.961 . S
H1229 C1215 0.958 . S
H1230 C1215 0.961 . S
H1231 C1215 0.960 . S
C1232 C1233 1.391 . S
C1232 C1234 1.394 . S
C1232 H1248 0.931 . S
C1233 C1232 1.391 . S
C1233 C1237 1.376 . S
C1234 C1232 1.394 . S
C1234 C1235 1.369 . S
C1234 C1238 1.531 . S
C1235 C1234 1.369 . S
C1235 C1236 1.410 . S
C1235 C1243 1.503 . S
C1236 C1235 1.410 . S
C1236 C1237 1.392 . S
C1236 C1239 1.511 . S
C1237 C1233 1.376 . S
C1237 C1236 1.392 . S
C1237 H1249 0.929 . S
C1238 C1234 1.531 . S
C1238 H1250 0.960 . S
C1238 H1251 0.962 . S
C1238 H1252 0.960 . S
C1239 C1236 1.511 . S
C1239 H1253 0.961 . S
C1239 H1254 0.961 . S
C1239 H1255 0.961 . S
C1240 C1241 1.370 . S
C1240 C1242 1.363 . S
C1240 H1256 0.931 . S
C1241 C1240 1.370 . S
C1241 C1245 1.408 . S
C1242 C1240 1.363 . S
C1242 C1243 1.370 . S
C1242 C1246 1.524 . S
C1243 C1235 1.503 . S
C1243 C1242 1.370 . S
C1243 C1244 1.403 . S
C1244 C1243 1.403 . S
C1244 C1245 1.404 . S
C1244 C1247 1.539 . S
C1245 C1241 1.408 . S
C1245 C1244 1.404 . S
C1245 H1257 0.930 . S
C1246 C1242 1.524 . S
C1246 H1258 0.956 . S
C1246 H1259 0.961 . S
C1246 H1260 0.961 . S
C1247 C1244 1.539 . S
C1247 H1261 0.958 . S
C1247 H1262 0.961 . S
C1247 H1263 0.960 . S
H1248 C1232 0.931 . S
H1249 C1237 0.929 . S
H1250 C1238 0.960 . S
H1251 C1238 0.962 . S
H1252 C1238 0.960 . S
H1253 C1239 0.961 . S
H1254 C1239 0.961 . S
H1255 C1239 0.961 . S
H1256 C1240 0.931 . S
H1257 C1245 0.930 . S
H1258 C1246 0.956 . S
H1259 C1246 0.961 . S
H1260 C1246 0.961 . S
H1261 C1247 0.958 . S
H1262 C1247 0.961 . S
H1263 C1247 0.960 . S
C1264 C1265 1.391 . S
C1264 C1266 1.394 . S
C1264 H1280 0.931 . S
C1265 C1264 1.391 . S
C1265 C1269 1.376 . S
C1266 C1264 1.394 . S
C1266 C1267 1.369 . S
C1266 C1270 1.531 . S
C1267 C1266 1.369 . S
C1267 C1268 1.410 . S
C1267 C1275 1.503 . S
C1268 C1267 1.410 . S
C1268 C1269 1.392 . S
C1268 C1271 1.511 . S
C1269 C1265 1.376 . S
C1269 C1268 1.392 . S
C1269 H1281 0.929 . S
C1270 C1266 1.531 . S
C1270 H1282 0.960 . S
C1270 H1283 0.962 . S
C1270 H1284 0.960 . S
C1271 C1268 1.511 . S
C1271 H1285 0.961 . S
C1271 H1286 0.961 . S
C1271 H1287 0.961 . S
C1272 C1273 1.370 . S
C1272 C1274 1.363 . S
C1272 H1288 0.931 . S
C1273 C1272 1.370 . S
C1273 C1277 1.408 . S
C1274 C1272 1.363 . S
C1274 C1275 1.370 . S
C1274 C1278 1.524 . S
C1275 C1267 1.503 . S
C1275 C1274 1.370 . S
C1275 C1276 1.403 . S
C1276 C1275 1.403 . S
C1276 C1277 1.404 . S
C1276 C1279 1.539 . S
C1277 C1273 1.408 . S
C1277 C1276 1.404 . S
C1277 H1289 0.930 . S
C1278 C1274 1.524 . S
C1278 H1290 0.956 . S
C1278 H1291 0.961 . S
C1278 H1292 0.961 . S
C1279 C1276 1.539 . S
C1279 H1293 0.958 . S
C1279 H1294 0.961 . S
C1279 H1295 0.960 . S
H1280 C1264 0.931 . S
H1281 C1269 0.929 . S
H1282 C1270 0.960 . S
H1283 C1270 0.962 . S
H1284 C1270 0.960 . S
H1285 C1271 0.961 . S
H1286 C1271 0.961 . S
H1287 C1271 0.961 . S
H1288 C1272 0.931 . S
H1289 C1277 0.930 . S
H1290 C1278 0.956 . S
H1291 C1278 0.961 . S
H1292 C1278 0.961 . S
H1293 C1279 0.958 . S
H1294 C1279 0.961 . S
H1295 C1279 0.960 . S
C1296 C1297 1.391 . S
C1296 C1298 1.394 . S
C1296 H1312 0.931 . S
C1297 C1296 1.391 . S
C1297 C1301 1.376 . S
C1298 C1296 1.394 . S
C1298 C1299 1.369 . S
C1298 C1302 1.531 . S
C1299 C1298 1.369 . S
C1299 C1300 1.410 . S
C1299 C1307 1.503 . S
C1300 C1299 1.410 . S
C1300 C1301 1.392 . S
C1300 C1303 1.511 . S
C1301 C1297 1.376 . S
C1301 C1300 1.392 . S
C1301 H1313 0.929 . S
C1302 C1298 1.531 . S
C1302 H1314 0.960 . S
C1302 H1315 0.962 . S
C1302 H1316 0.960 . S
C1303 C1300 1.511 . S
C1303 H1317 0.961 . S
C1303 H1318 0.961 . S
C1303 H1319 0.961 . S
C1304 C1305 1.370 . S
C1304 C1306 1.363 . S
C1304 H1320 0.931 . S
C1305 C1304 1.370 . S
C1305 C1309 1.408 . S
C1306 C1304 1.363 . S
C1306 C1307 1.370 . S
C1306 C1310 1.524 . S
C1307 C1299 1.503 . S
C1307 C1306 1.370 . S
C1307 C1308 1.403 . S
C1308 C1307 1.403 . S
C1308 C1309 1.404 . S
C1308 C1311 1.539 . S
C1309 C1305 1.408 . S
C1309 C1308 1.404 . S
C1309 H1321 0.930 . S
C1310 C1306 1.524 . S
C1310 H1322 0.956 . S
C1310 H1323 0.961 . S
C1310 H1324 0.961 . S
C1311 C1308 1.539 . S
C1311 H1325 0.958 . S
C1311 H1326 0.961 . S
C1311 H1327 0.960 . S
H1312 C1296 0.931 . S
H1313 C1301 0.929 . S
H1314 C1302 0.960 . S
H1315 C1302 0.962 . S
H1316 C1302 0.960 . S
H1317 C1303 0.961 . S
H1318 C1303 0.961 . S
H1319 C1303 0.961 . S
H1320 C1304 0.931 . S
H1321 C1309 0.930 . S
H1322 C1310 0.956 . S
H1323 C1310 0.961 . S
H1324 C1310 0.961 . S
H1325 C1311 0.958 . S
H1326 C1311 0.961 . S
H1327 C1311 0.960 . S
C1328 C1329 1.391 . S
C1328 C1330 1.394 . S
C1328 H1344 0.931 . S
C1329 C1328 1.391 . S
C1329 C1333 1.376 . S
C1330 C1328 1.394 . S
C1330 C1331 1.369 . S
C1330 C1334 1.531 1_554 S
C1331 C1330 1.369 . S
C1331 C1332 1.410 . S
C1331 C1339 1.503 1_554 S
C1332 C1331 1.410 . S
C1332 C1333 1.392 . S
C1332 C1335 1.511 . S
C1333 C1329 1.376 . S
C1333 C1332 1.392 . S
C1333 H1345 0.929 . S
C1334 C1330 1.531 1_556 S
C1334 H1346 0.960 . S
C1334 H1347 0.962 . S
C1334 H1348 0.960 . S
C1335 C1332 1.511 . S
C1335 H1349 0.961 . S
C1335 H1350 0.961 . S
C1335 H1351 0.961 . S
C1336 C1337 1.370 . S
C1336 C1338 1.363 . S
C1336 H1352 0.931 . S
C1337 C1336 1.370 . S
C1337 C1341 1.408 . S
C1338 C1336 1.363 . S
C1338 C1339 1.370 . S
C1338 C1342 1.524 1_556 S
C1339 C1331 1.503 1_556 S
C1339 C1338 1.370 . S
C1339 C1340 1.403 . S
C1340 C1339 1.403 . S
C1340 C1341 1.404 . S
C1340 C1343 1.539 . S
C1341 C1337 1.408 . S
C1341 C1340 1.404 . S
C1341 H1353 0.930 . S
C1342 C1338 1.524 1_554 S
C1342 H1354 0.956 1_554 S
C1342 H1355 0.961 . S
C1342 H1356 0.961 1_554 S
C1343 C1340 1.539 . S
C1343 H1357 0.958 . S
C1343 H1358 0.961 . S
C1343 H1359 0.960 . S
H1344 C1328 0.931 . S
H1345 C1333 0.929 . S
H1346 C1334 0.960 . S
H1347 C1334 0.962 . S
H1348 C1334 0.960 . S
H1349 C1335 0.961 . S
H1350 C1335 0.961 . S
H1351 C1335 0.961 . S
H1352 C1336 0.931 . S
H1353 C1341 0.930 . S
H1354 C1342 0.956 1_556 S
H1355 C1342 0.961 . S
H1356 C1342 0.961 1_556 S
H1357 C1343 0.958 . S
H1358 C1343 0.961 . S
H1359 C1343 0.960 . S
C1360 C1361 1.391 . S
C1360 C1362 1.394 . S
C1360 H1376 0.931 . S
C1361 C1360 1.391 . S
C1361 C1365 1.376 . S
C1362 C1360 1.394 . S
C1362 C1363 1.369 . S
C1362 C1366 1.531 1_455 S
C1363 C1362 1.369 . S
C1363 C1364 1.410 . S
C1363 C1371 1.503 1_455 S
C1364 C1363 1.410 . S
C1364 C1365 1.392 . S
C1364 C1367 1.511 . S
C1365 C1361 1.376 . S
C1365 C1364 1.392 . S
C1365 H1377 0.929 . S
C1366 C1362 1.531 1_655 S
C1366 H1378 0.960 . S
C1366 H1379 0.962 . S
C1366 H1380 0.960 . S
C1367 C1364 1.511 . S
C1367 H1381 0.961 . S
C1367 H1382 0.961 . S
C1367 H1383 0.961 . S
C1368 C1369 1.370 . S
C1368 C1370 1.363 . S
C1368 H1384 0.931 . S
C1369 C1368 1.370 . S
C1369 C1373 1.408 . S
C1370 C1368 1.363 . S
C1370 C1371 1.370 . S
C1370 C1374 1.524 . S
C1371 C1363 1.503 1_655 S
C1371 C1370 1.370 . S
C1371 C1372 1.403 . S
C1372 C1371 1.403 . S
C1372 C1373 1.404 . S
C1372 C1375 1.539 . S
C1373 C1369 1.408 . S
C1373 C1372 1.404 . S
C1373 H1385 0.930 . S
C1374 C1370 1.524 . S
C1374 H1386 0.956 . S
C1374 H1387 0.961 1_655 S
C1374 H1388 0.961 . S
C1375 C1372 1.539 . S
C1375 H1389 0.958 . S
C1375 H1390 0.961 . S
C1375 H1391 0.960 1_655 S
H1376 C1360 0.931 . S
H1377 C1365 0.929 . S
H1378 C1366 0.960 . S
H1379 C1366 0.962 . S
H1380 C1366 0.960 . S
H1381 C1367 0.961 . S
H1382 C1367 0.961 . S
H1383 C1367 0.961 . S
H1384 C1368 0.931 . S
H1385 C1373 0.930 . S
H1386 C1374 0.956 . S
H1387 C1374 0.961 1_455 S
H1388 C1374 0.961 . S
H1389 C1375 0.958 . S
H1390 C1375 0.961 . S
H1391 C1375 0.960 1_455 S
C1392 C1393 1.391 . S
C1392 C1394 1.394 . S
C1392 H1408 0.931 . S
C1393 C1392 1.391 . S
C1393 C1397 1.376 . S
C1394 C1392 1.394 . S
C1394 C1395 1.369 . S
C1394 C1398 1.531 1_455 S
C1395 C1394 1.369 . S
C1395 C1396 1.410 . S
C1395 C1403 1.503 1_454 S
C1396 C1395 1.410 . S
C1396 C1397 1.392 . S
C1396 C1399 1.511 1_554 S
C1397 C1393 1.376 . S
C1397 C1396 1.392 . S
C1397 H1409 0.929 . S
C1398 C1394 1.531 1_655 S
C1398 H1410 0.960 . S
C1398 H1411 0.962 . S
C1398 H1412 0.960 . S
C1399 C1396 1.511 1_556 S
C1399 H1413 0.961 . S
C1399 H1414 0.961 . S
C1399 H1415 0.961 . S
C1400 C1401 1.370 . S
C1400 C1402 1.363 . S
C1400 H1416 0.931 . S
C1401 C1400 1.370 . S
C1401 C1405 1.408 . S
C1402 C1400 1.363 . S
C1402 C1403 1.370 . S
C1402 C1406 1.524 1_556 S
C1403 C1395 1.503 1_656 S
C1403 C1402 1.370 . S
C1403 C1404 1.403 . S
C1404 C1403 1.403 . S
C1404 C1405 1.404 . S
C1404 C1407 1.539 1_655 S
C1405 C1401 1.408 . S
C1405 C1404 1.404 . S
C1405 H1417 0.930 . S
C1406 C1402 1.524 1_554 S
C1406 H1418 0.956 . S
C1406 H1419 0.961 . S
C1406 H1420 0.961 . S
C1407 C1404 1.539 1_455 S
C1407 H1421 0.958 . S
C1407 H1422 0.961 . S
C1407 H1423 0.960 . S
H1408 C1392 0.931 . S
H1409 C1397 0.929 . S
H1410 C1398 0.960 . S
H1411 C1398 0.962 . S
H1412 C1398 0.960 . S
H1413 C1399 0.961 . S
H1414 C1399 0.961 . S
H1415 C1399 0.961 . S
H1416 C1400 0.931 . S
H1417 C1405 0.930 . S
H1418 C1406 0.956 . S
H1419 C1406 0.961 . S
H1420 C1406 0.961 . S
H1421 C1407 0.958 . S
H1422 C1407 0.961 . S
H1423 C1407 0.960 . S
C1424 C1425 1.391 . S
C1424 C1426 1.394 . S
C1424 H1440 0.931 . S
C1425 C1424 1.391 . S
C1425 C1429 1.376 . S
C1426 C1424 1.394 . S
C1426 C1427 1.369 . S
C1426 C1430 1.531 . S
C1427 C1426 1.369 . S
C1427 C1428 1.410 . S
C1427 C1435 1.503 . S
C1428 C1427 1.410 . S
C1428 C1429 1.392 . S
C1428 C1431 1.511 . S
C1429 C1425 1.376 . S
C1429 C1428 1.392 . S
C1429 H1441 0.929 . S
C1430 C1426 1.531 . S
C1430 H1442 0.960 . S
C1430 H1443 0.962 . S
C1430 H1444 0.960 . S
C1431 C1428 1.511 . S
C1431 H1445 0.961 . S
C1431 H1446 0.961 . S
C1431 H1447 0.961 . S
C1432 C1433 1.370 . S
C1432 C1434 1.363 . S
C1432 H1448 0.931 . S
C1433 C1432 1.370 . S
C1433 C1437 1.408 . S
C1434 C1432 1.363 . S
C1434 C1435 1.370 . S
C1434 C1438 1.524 . S
C1435 C1427 1.503 . S
C1435 C1434 1.370 . S
C1435 C1436 1.403 . S
C1436 C1435 1.403 . S
C1436 C1437 1.404 . S
C1436 C1439 1.539 . S
C1437 C1433 1.408 . S
C1437 C1436 1.404 . S
C1437 H1449 0.930 . S
C1438 C1434 1.524 . S
C1438 H1450 0.956 . S
C1438 H1451 0.961 . S
C1438 H1452 0.961 . S
C1439 C1436 1.539 . S
C1439 H1453 0.958 . S
C1439 H1454 0.961 . S
C1439 H1455 0.960 . S
H1440 C1424 0.931 . S
H1441 C1429 0.929 . S
H1442 C1430 0.960 . S
H1443 C1430 0.962 . S
H1444 C1430 0.960 . S
H1445 C1431 0.961 . S
H1446 C1431 0.961 . S
H1447 C1431 0.961 . S
H1448 C1432 0.931 . S
H1449 C1437 0.930 . S
H1450 C1438 0.956 . S
H1451 C1438 0.961 . S
H1452 C1438 0.961 . S
H1453 C1439 0.958 . S
H1454 C1439 0.961 . S
H1455 C1439 0.960 . S
C1456 C1457 1.391 . S
C1456 C1458 1.394 . S
C1456 H1472 0.931 . S
C1457 C1456 1.391 . S
C1457 C1461 1.376 . S
C1458 C1456 1.394 . S
C1458 C1459 1.369 . S
C1458 C1462 1.531 . S
C1459 C1458 1.369 . S
C1459 C1460 1.410 . S
C1459 C1467 1.503 . S
C1460 C1459 1.410 . S
C1460 C1461 1.392 . S
C1460 C1463 1.511 . S
C1461 C1457 1.376 . S
C1461 C1460 1.392 . S
C1461 H1473 0.929 . S
C1462 C1458 1.531 . S
C1462 H1474 0.960 . S
C1462 H1475 0.962 . S
C1462 H1476 0.960 . S
C1463 C1460 1.511 . S
C1463 H1477 0.961 . S
C1463 H1478 0.961 . S
C1463 H1479 0.961 . S
C1464 C1465 1.370 . S
C1464 C1466 1.363 . S
C1464 H1480 0.931 . S
C1465 C1464 1.370 . S
C1465 C1469 1.408 . S
C1466 C1464 1.363 . S
C1466 C1467 1.370 . S
C1466 C1470 1.524 . S
C1467 C1459 1.503 . S
C1467 C1466 1.370 . S
C1467 C1468 1.403 . S
C1468 C1467 1.403 . S
C1468 C1469 1.404 . S
C1468 C1471 1.539 . S
C1469 C1465 1.408 . S
C1469 C1468 1.404 . S
C1469 H1481 0.930 . S
C1470 C1466 1.524 . S
C1470 H1482 0.956 . S
C1470 H1483 0.961 . S
C1470 H1484 0.961 1_554 S
C1471 C1468 1.539 . S
C1471 H1485 0.958 . S
C1471 H1486 0.961 . S
C1471 H1487 0.960 . S
H1472 C1456 0.931 . S
H1473 C1461 0.929 . S
H1474 C1462 0.960 . S
H1475 C1462 0.962 . S
H1476 C1462 0.960 . S
H1477 C1463 0.961 . S
H1478 C1463 0.961 . S
H1479 C1463 0.961 . S
H1480 C1464 0.931 . S
H1481 C1469 0.930 . S
H1482 C1470 0.956 . S
H1483 C1470 0.961 . S
H1484 C1470 0.961 1_556 S
H1485 C1471 0.958 . S
H1486 C1471 0.961 . S
H1487 C1471 0.960 . S
C1488 C1489 1.391 . S
C1488 C1490 1.394 . S
C1488 H1504 0.931 . S
C1489 C1488 1.391 . S
C1489 C1493 1.376 . S
C1490 C1488 1.394 . S
C1490 C1491 1.369 . S
C1490 C1494 1.531 . S
C1491 C1490 1.369 . S
C1491 C1492 1.410 . S
C1491 C1499 1.503 . S
C1492 C1491 1.410 . S
C1492 C1493 1.392 . S
C1492 C1495 1.511 . S
C1493 C1489 1.376 . S
C1493 C1492 1.392 . S
C1493 H1505 0.929 . S
C1494 C1490 1.531 . S
C1494 H1506 0.960 . S
C1494 H1507 0.962 . S
C1494 H1508 0.960 . S
C1495 C1492 1.511 . S
C1495 H1509 0.961 . S
C1495 H1510 0.961 . S
C1495 H1511 0.961 . S
C1496 C1497 1.370 . S
C1496 C1498 1.363 . S
C1496 H1512 0.931 . S
C1497 C1496 1.370 . S
C1497 C1501 1.408 . S
C1498 C1496 1.363 . S
C1498 C1499 1.370 . S
C1498 C1502 1.524 . S
C1499 C1491 1.503 . S
C1499 C1498 1.370 . S
C1499 C1500 1.403 . S
C1500 C1499 1.403 . S
C1500 C1501 1.404 . S
C1500 C1503 1.539 . S
C1501 C1497 1.408 . S
C1501 C1500 1.404 . S
C1501 H1513 0.930 . S
C1502 C1498 1.524 . S
C1502 H1514 0.956 . S
C1502 H1515 0.961 . S
C1502 H1516 0.961 . S
C1503 C1500 1.539 . S
C1503 H1517 0.958 . S
C1503 H1518 0.961 . S
C1503 H1519 0.960 . S
H1504 C1488 0.931 . S
H1505 C1493 0.929 . S
H1506 C1494 0.960 . S
H1507 C1494 0.962 . S
H1508 C1494 0.960 . S
H1509 C1495 0.961 . S
H1510 C1495 0.961 . S
H1511 C1495 0.961 . S
H1512 C1496 0.931 . S
H1513 C1501 0.930 . S
H1514 C1502 0.956 . S
H1515 C1502 0.961 . S
H1516 C1502 0.961 . S
H1517 C1503 0.958 . S
H1518 C1503 0.961 . S
H1519 C1503 0.960 . S
C1520 C1521 1.391 . S
C1520 C1522 1.394 . S
C1520 H1536 0.931 . S
C1521 C1520 1.391 . S
C1521 C1525 1.376 . S
C1522 C1520 1.394 . S
C1522 C1523 1.369 . S
C1522 C1526 1.531 . S
C1523 C1522 1.369 . S
C1523 C1524 1.410 . S
C1523 C1531 1.503 . S
C1524 C1523 1.410 . S
C1524 C1525 1.392 . S
C1524 C1527 1.511 . S
C1525 C1521 1.376 . S
C1525 C1524 1.392 . S
C1525 H1537 0.929 . S
C1526 C1522 1.531 . S
C1526 H1538 0.960 . S
C1526 H1539 0.962 . S
C1526 H1540 0.960 . S
C1527 C1524 1.511 . S
C1527 H1541 0.961 . S
C1527 H1542 0.961 . S
C1527 H1543 0.961 . S
C1528 C1529 1.370 . S
C1528 C1530 1.363 . S
C1528 H1544 0.931 . S
C1529 C1528 1.370 . S
C1529 C1533 1.408 . S
C1530 C1528 1.363 . S
C1530 C1531 1.370 . S
C1530 C1534 1.524 . S
C1531 C1523 1.503 . S
C1531 C1530 1.370 . S
C1531 C1532 1.403 . S
C1532 C1531 1.403 . S
C1532 C1533 1.404 . S
C1532 C1535 1.539 . S
C1533 C1529 1.408 . S
C1533 C1532 1.404 . S
C1533 H1545 0.930 . S
C1534 C1530 1.524 . S
C1534 H1546 0.956 . S
C1534 H1547 0.961 . S
C1534 H1548 0.961 . S
C1535 C1532 1.539 . S
C1535 H1549 0.958 . S
C1535 H1550 0.961 . S
C1535 H1551 0.960 . S
H1536 C1520 0.931 . S
H1537 C1525 0.929 . S
H1538 C1526 0.960 . S
H1539 C1526 0.962 . S
H1540 C1526 0.960 . S
H1541 C1527 0.961 . S
H1542 C1527 0.961 . S
H1543 C1527 0.961 . S
H1544 C1528 0.931 . S
H1545 C1533 0.930 . S
H1546 C1534 0.956 . S
H1547 C1534 0.961 . S
H1548 C1534 0.961 . S
H1549 C1535 0.958 . S
H1550 C1535 0.961 . S
H1551 C1535 0.960 . S
C1552 C1553 1.391 . S
C1552 C1554 1.394 . S
C1552 H1568 0.931 . S
C1553 C1552 1.391 . S
C1553 C1557 1.376 . S
C1554 C1552 1.394 . S
C1554 C1555 1.369 . S
C1554 C1558 1.531 . S
C1555 C1554 1.369 . S
C1555 C1556 1.410 . S
C1555 C1563 1.503 . S
C1556 C1555 1.410 . S
C1556 C1557 1.392 . S
C1556 C1559 1.511 . S
C1557 C1553 1.376 . S
C1557 C1556 1.392 . S
C1557 H1569 0.929 . S
C1558 C1554 1.531 . S
C1558 H1570 0.960 . S
C1558 H1571 0.962 . S
C1558 H1572 0.960 . S
C1559 C1556 1.511 . S
C1559 H1573 0.961 . S
C1559 H1574 0.961 . S
C1559 H1575 0.961 . S
C1560 C1561 1.370 . S
C1560 C1562 1.363 . S
C1560 H1576 0.931 . S
C1561 C1560 1.370 . S
C1561 C1565 1.408 . S
C1562 C1560 1.363 . S
C1562 C1563 1.370 . S
C1562 C1566 1.524 . S
C1563 C1555 1.503 . S
C1563 C1562 1.370 . S
C1563 C1564 1.403 . S
C1564 C1563 1.403 . S
C1564 C1565 1.404 . S
C1564 C1567 1.539 . S
C1565 C1561 1.408 . S
C1565 C1564 1.404 . S
C1565 H1577 0.930 . S
C1566 C1562 1.524 . S
C1566 H1578 0.956 . S
C1566 H1579 0.961 . S
C1566 H1580 0.961 . S
C1567 C1564 1.539 . S
C1567 H1581 0.958 . S
C1567 H1582 0.961 . S
C1567 H1583 0.960 . S
H1568 C1552 0.931 . S
H1569 C1557 0.929 . S
H1570 C1558 0.960 . S
H1571 C1558 0.962 . S
H1572 C1558 0.960 . S
H1573 C1559 0.961 . S
H1574 C1559 0.961 . S
H1575 C1559 0.961 . S
H1576 C1560 0.931 . S
H1577 C1565 0.930 . S
H1578 C1566 0.956 . S
H1579 C1566 0.961 . S
H1580 C1566 0.961 . S
H1581 C1567 0.958 . S
H1582 C1567 0.961 . S
H1583 C1567 0.960 . S
C1584 C1585 1.391 . S
C1584 C1586 1.394 . S
C1584 H1600 0.931 . S
C1585 C1584 1.391 . S
C1585 C1589 1.376 . S
C1586 C1584 1.394 . S
C1586 C1587 1.369 . S
C1586 C1590 1.531 . S
C1587 C1586 1.369 . S
C1587 C1588 1.410 . S
C1587 C1595 1.503 . S
C1588 C1587 1.410 . S
C1588 C1589 1.392 . S
C1588 C1591 1.511 . S
C1589 C1585 1.376 . S
C1589 C1588 1.392 . S
C1589 H1601 0.929 . S
C1590 C1586 1.531 . S
C1590 H1602 0.960 . S
C1590 H1603 0.962 . S
C1590 H1604 0.960 . S
C1591 C1588 1.511 . S
C1591 H1605 0.961 . S
C1591 H1606 0.961 . S
C1591 H1607 0.961 . S
C1592 C1593 1.370 . S
C1592 C1594 1.363 . S
C1592 H1608 0.931 . S
C1593 C1592 1.370 . S
C1593 C1597 1.408 . S
C1594 C1592 1.363 . S
C1594 C1595 1.370 . S
C1594 C1598 1.524 . S
C1595 C1587 1.503 . S
C1595 C1594 1.370 . S
C1595 C1596 1.403 . S
C1596 C1595 1.403 . S
C1596 C1597 1.404 . S
C1596 C1599 1.539 . S
C1597 C1593 1.408 . S
C1597 C1596 1.404 . S
C1597 H1609 0.930 . S
C1598 C1594 1.524 . S
C1598 H1610 0.956 . S
C1598 H1611 0.961 . S
C1598 H1612 0.961 . S
C1599 C1596 1.539 . S
C1599 H1613 0.958 . S
C1599 H1614 0.961 . S
C1599 H1615 0.960 . S
H1600 C1584 0.931 . S
H1601 C1589 0.929 . S
H1602 C1590 0.960 . S
H1603 C1590 0.962 . S
H1604 C1590 0.960 . S
H1605 C1591 0.961 . S
H1606 C1591 0.961 . S
H1607 C1591 0.961 . S
H1608 C1592 0.931 . S
H1609 C1597 0.930 . S
H1610 C1598 0.956 . S
H1611 C1598 0.961 . S
H1612 C1598 0.961 . S
H1613 C1599 0.958 . S
H1614 C1599 0.961 . S
H1615 C1599 0.960 . S
C1616 C1617 1.391 . S
C1616 C1618 1.394 . S
C1616 H1632 0.931 . S
C1617 C1616 1.391 . S
C1617 C1621 1.376 . S
C1618 C1616 1.394 . S
C1618 C1619 1.369 . S
C1618 C1622 1.531 . S
C1619 C1618 1.369 . S
C1619 C1620 1.410 . S
C1619 C1627 1.503 . S
C1620 C1619 1.410 . S
C1620 C1621 1.392 . S
C1620 C1623 1.511 . S
C1621 C1617 1.376 . S
C1621 C1620 1.392 . S
C1621 H1633 0.929 . S
C1622 C1618 1.531 . S
C1622 H1634 0.960 . S
C1622 H1635 0.962 . S
C1622 H1636 0.960 . S
C1623 C1620 1.511 . S
C1623 H1637 0.961 . S
C1623 H1638 0.961 . S
C1623 H1639 0.961 . S
C1624 C1625 1.370 . S
C1624 C1626 1.363 . S
C1624 H1640 0.931 . S
C1625 C1624 1.370 . S
C1625 C1629 1.408 . S
C1626 C1624 1.363 . S
C1626 C1627 1.370 . S
C1626 C1630 1.524 . S
C1627 C1619 1.503 . S
C1627 C1626 1.370 . S
C1627 C1628 1.403 . S
C1628 C1627 1.403 . S
C1628 C1629 1.404 . S
C1628 C1631 1.539 . S
C1629 C1625 1.408 . S
C1629 C1628 1.404 . S
C1629 H1641 0.930 . S
C1630 C1626 1.524 . S
C1630 H1642 0.956 . S
C1630 H1643 0.961 . S
C1630 H1644 0.961 . S
C1631 C1628 1.539 . S
C1631 H1645 0.958 . S
C1631 H1646 0.961 . S
C1631 H1647 0.960 . S
H1632 C1616 0.931 . S
H1633 C1621 0.929 . S
H1634 C1622 0.960 . S
H1635 C1622 0.962 . S
H1636 C1622 0.960 . S
H1637 C1623 0.961 . S
H1638 C1623 0.961 . S
H1639 C1623 0.961 . S
H1640 C1624 0.931 . S
H1641 C1629 0.930 . S
H1642 C1630 0.956 . S
H1643 C1630 0.961 . S
H1644 C1630 0.961 . S
H1645 C1631 0.958 . S
H1646 C1631 0.961 . S
H1647 C1631 0.960 . S
C1648 C1649 1.391 . S
C1648 C1650 1.394 . S
C1648 H1664 0.931 . S
C1649 C1648 1.391 . S
C1649 C1653 1.376 . S
C1650 C1648 1.394 . S
C1650 C1651 1.369 . S
C1650 C1654 1.531 . S
C1651 C1650 1.369 . S
C1651 C1652 1.410 . S
C1651 C1659 1.503 . S
C1652 C1651 1.410 . S
C1652 C1653 1.392 . S
C1652 C1655 1.511 . S
C1653 C1649 1.376 . S
C1653 C1652 1.392 . S
C1653 H1665 0.929 . S
C1654 C1650 1.531 . S
C1654 H1666 0.960 . S
C1654 H1667 0.962 . S
C1654 H1668 0.960 . S
C1655 C1652 1.511 . S
C1655 H1669 0.961 . S
C1655 H1670 0.961 . S
C1655 H1671 0.961 . S
C1656 C1657 1.370 . S
C1656 C1658 1.363 . S
C1656 H1672 0.931 . S
C1657 C1656 1.370 . S
C1657 C1661 1.408 . S
C1658 C1656 1.363 . S
C1658 C1659 1.370 . S
C1658 C1662 1.524 . S
C1659 C1651 1.503 . S
C1659 C1658 1.370 . S
C1659 C1660 1.403 . S
C1660 C1659 1.403 . S
C1660 C1661 1.404 . S
C1660 C1663 1.539 . S
C1661 C1657 1.408 . S
C1661 C1660 1.404 . S
C1661 H1673 0.930 . S
C1662 C1658 1.524 . S
C1662 H1674 0.956 . S
C1662 H1675 0.961 . S
C1662 H1676 0.961 . S
C1663 C1660 1.539 . S
C1663 H1677 0.958 . S
C1663 H1678 0.961 . S
C1663 H1679 0.960 . S
H1664 C1648 0.931 . S
H1665 C1653 0.929 . S
H1666 C1654 0.960 . S
H1667 C1654 0.962 . S
H1668 C1654 0.960 . S
H1669 C1655 0.961 . S
H1670 C1655 0.961 . S
H1671 C1655 0.961 . S
H1672 C1656 0.931 . S
H1673 C1661 0.930 . S
H1674 C1662 0.956 . S
H1675 C1662 0.961 . S
H1676 C1662 0.961 . S
H1677 C1663 0.958 . S
H1678 C1663 0.961 . S
H1679 C1663 0.960 . S
C1680 C1681 1.391 . S
C1680 C1682 1.394 . S
C1680 H1696 0.931 . S
C1681 C1680 1.391 . S
C1681 C1685 1.376 . S
C1682 C1680 1.394 . S
C1682 C1683 1.369 . S
C1682 C1686 1.531 . S
C1683 C1682 1.369 . S
C1683 C1684 1.410 . S
C1683 C1691 1.503 . S
C1684 C1683 1.410 . S
C1684 C1685 1.392 . S
C1684 C1687 1.511 . S
C1685 C1681 1.376 . S
C1685 C1684 1.392 . S
C1685 H1697 0.929 . S
C1686 C1682 1.531 . S
C1686 H1698 0.960 . S
C1686 H1699 0.962 . S
C1686 H1700 0.960 . S
C1687 C1684 1.511 . S
C1687 H1701 0.961 . S
C1687 H1702 0.961 . S
C1687 H1703 0.961 . S
C1688 C1689 1.370 . S
C1688 C1690 1.363 . S
C1688 H1704 0.931 . S
C1689 C1688 1.370 . S
C1689 C1693 1.408 . S
C1690 C1688 1.363 . S
C1690 C1691 1.370 . S
C1690 C1694 1.524 . S
C1691 C1683 1.503 . S
C1691 C1690 1.370 . S
C1691 C1692 1.403 . S
C1692 C1691 1.403 . S
C1692 C1693 1.404 . S
C1692 C1695 1.539 . S
C1693 C1689 1.408 . S
C1693 C1692 1.404 . S
C1693 H1705 0.930 . S
C1694 C1690 1.524 . S
C1694 H1706 0.956 . S
C1694 H1707 0.961 . S
C1694 H1708 0.961 . S
C1695 C1692 1.539 . S
C1695 H1709 0.958 . S
C1695 H1710 0.961 . S
C1695 H1711 0.960 . S
H1696 C1680 0.931 . S
H1697 C1685 0.929 . S
H1698 C1686 0.960 . S
H1699 C1686 0.962 . S
H1700 C1686 0.960 . S
H1701 C1687 0.961 . S
H1702 C1687 0.961 . S
H1703 C1687 0.961 . S
H1704 C1688 0.931 . S
H1705 C1693 0.930 . S
H1706 C1694 0.956 . S
H1707 C1694 0.961 . S
H1708 C1694 0.961 . S
H1709 C1695 0.958 . S
H1710 C1695 0.961 . S
H1711 C1695 0.960 . S
C1712 C1713 1.391 . S
C1712 C1714 1.394 . S
C1712 H1728 0.931 . S
C1713 C1712 1.391 . S
C1713 C1717 1.376 . S
C1714 C1712 1.394 . S
C1714 C1715 1.369 . S
C1714 C1718 1.531 . S
C1715 C1714 1.369 . S
C1715 C1716 1.410 . S
C1715 C1723 1.503 . S
C1716 C1715 1.410 . S
C1716 C1717 1.392 . S
C1716 C1719 1.511 . S
C1717 C1713 1.376 . S
C1717 C1716 1.392 . S
C1717 H1729 0.929 . S
C1718 C1714 1.531 . S
C1718 H1730 0.960 . S
C1718 H1731 0.962 . S
C1718 H1732 0.960 . S
C1719 C1716 1.511 . S
C1719 H1733 0.961 . S
C1719 H1734 0.961 . S
C1719 H1735 0.961 . S
C1720 C1721 1.370 . S
C1720 C1722 1.363 . S
C1720 H1736 0.931 . S
C1721 C1720 1.370 . S
C1721 C1725 1.408 . S
C1722 C1720 1.363 . S
C1722 C1723 1.370 . S
C1722 C1726 1.524 . S
C1723 C1715 1.503 . S
C1723 C1722 1.370 . S
C1723 C1724 1.403 . S
C1724 C1723 1.403 . S
C1724 C1725 1.404 . S
C1724 C1727 1.539 . S
C1725 C1721 1.408 . S
C1725 C1724 1.404 . S
C1725 H1737 0.930 . S
C1726 C1722 1.524 . S
C1726 H1738 0.956 . S
C1726 H1739 0.961 . S
C1726 H1740 0.961 . S
C1727 C1724 1.539 . S
C1727 H1741 0.958 1_556 S
C1727 H1742 0.961 1_556 S
C1727 H1743 0.960 . S
H1728 C1712 0.931 . S
H1729 C1717 0.929 . S
H1730 C1718 0.960 . S
H1731 C1718 0.962 . S
H1732 C1718 0.960 . S
H1733 C1719 0.961 . S
H1734 C1719 0.961 . S
H1735 C1719 0.961 . S
H1736 C1720 0.931 . S
H1737 C1725 0.930 . S
H1738 C1726 0.956 . S
H1739 C1726 0.961 . S
H1740 C1726 0.961 . S
H1741 C1727 0.958 1_554 S
H1742 C1727 0.961 1_554 S
H1743 C1727 0.960 . S
C1744 C1745 1.391 . S
C1744 C1746 1.394 . S
C1744 H1760 0.931 . S
C1745 C1744 1.391 . S
C1745 C1749 1.376 . S
C1746 C1744 1.394 . S
C1746 C1747 1.369 . S
C1746 C1750 1.531 . S
C1747 C1746 1.369 . S
C1747 C1748 1.410 . S
C1747 C1755 1.503 . S
C1748 C1747 1.410 . S
C1748 C1749 1.392 . S
C1748 C1751 1.511 . S
C1749 C1745 1.376 . S
C1749 C1748 1.392 . S
C1749 H1761 0.929 . S
C1750 C1746 1.531 . S
C1750 H1762 0.960 . S
C1750 H1763 0.962 . S
C1750 H1764 0.960 . S
C1751 C1748 1.511 . S
C1751 H1765 0.961 . S
C1751 H1766 0.961 . S
C1751 H1767 0.961 . S
C1752 C1753 1.370 . S
C1752 C1754 1.363 . S
C1752 H1768 0.931 . S
C1753 C1752 1.370 . S
C1753 C1757 1.408 . S
C1754 C1752 1.363 . S
C1754 C1755 1.370 . S
C1754 C1758 1.524 . S
C1755 C1747 1.503 . S
C1755 C1754 1.370 . S
C1755 C1756 1.403 . S
C1756 C1755 1.403 . S
C1756 C1757 1.404 . S
C1756 C1759 1.539 . S
C1757 C1753 1.408 . S
C1757 C1756 1.404 . S
C1757 H1769 0.930 . S
C1758 C1754 1.524 . S
C1758 H1770 0.956 . S
C1758 H1771 0.961 . S
C1758 H1772 0.961 . S
C1759 C1756 1.539 . S
C1759 H1773 0.958 . S
C1759 H1774 0.961 . S
C1759 H1775 0.960 . S
H1760 C1744 0.931 . S
H1761 C1749 0.929 . S
H1762 C1750 0.960 . S
H1763 C1750 0.962 . S
H1764 C1750 0.960 . S
H1765 C1751 0.961 . S
H1766 C1751 0.961 . S
H1767 C1751 0.961 . S
H1768 C1752 0.931 . S
H1769 C1757 0.930 . S
H1770 C1758 0.956 . S
H1771 C1758 0.961 . S
H1772 C1758 0.961 . S
H1773 C1759 0.958 . S
H1774 C1759 0.961 . S
H1775 C1759 0.960 . S
C1776 C1777 1.391 . S
C1776 C1778 1.394 . S
C1776 H1792 0.931 . S
C1777 C1776 1.391 . S
C1777 C1781 1.376 . S
C1778 C1776 1.394 . S
C1778 C1779 1.369 . S
C1778 C1782 1.531 . S
C1779 C1778 1.369 . S
C1779 C1780 1.410 . S
C1779 C1787 1.503 . S
C1780 C1779 1.410 . S
C1780 C1781 1.392 . S
C1780 C1783 1.511 . S
C1781 C1777 1.376 . S
C1781 C1780 1.392 . S
C1781 H1793 0.929 . S
C1782 C1778 1.531 . S
C1782 H1794 0.960 . S
C1782 H1795 0.962 . S
C1782 H1796 0.960 . S
C1783 C1780 1.511 . S
C1783 H1797 0.961 . S
C1783 H1798 0.961 . S
C1783 H1799 0.961 . S
C1784 C1785 1.370 . S
C1784 C1786 1.363 . S
C1784 H1800 0.931 . S
C1785 C1784 1.370 . S
C1785 C1789 1.408 . S
C1786 C1784 1.363 . S
C1786 C1787 1.370 . S
C1786 C1790 1.524 . S
C1787 C1779 1.503 . S
C1787 C1786 1.370 . S
C1787 C1788 1.403 . S
C1788 C1787 1.403 . S
C1788 C1789 1.404 . S
C1788 C1791 1.539 . S
C1789 C1785 1.408 . S
C1789 C1788 1.404 . S
C1789 H1801 0.930 . S
C1790 C1786 1.524 . S
C1790 H1802 0.956 . S
C1790 H1803 0.961 . S
C1790 H1804 0.961 . S
C1791 C1788 1.539 . S
C1791 H1805 0.958 . S
C1791 H1806 0.961 . S
C1791 H1807 0.960 . S
H1792 C1776 0.931 . S
H1793 C1781 0.929 . S
H1794 C1782 0.960 . S
H1795 C1782 0.962 . S
H1796 C1782 0.960 . S
H1797 C1783 0.961 . S
H1798 C1783 0.961 . S
H1799 C1783 0.961 . S
H1800 C1784 0.931 . S
H1801 C1789 0.930 . S
H1802 C1790 0.956 . S
H1803 C1790 0.961 . S
H1804 C1790 0.961 . S
H1805 C1791 0.958 . S
H1806 C1791 0.961 . S
H1807 C1791 0.960 . S
C1808 C1809 1.391 . S
C1808 C1810 1.394 . S
C1808 H1824 0.931 . S
C1809 C1808 1.391 . S
C1809 C1813 1.376 . S
C1810 C1808 1.394 . S
C1810 C1811 1.369 . S
C1810 C1814 1.531 . S
C1811 C1810 1.369 . S
C1811 C1812 1.410 . S
C1811 C1819 1.503 . S
C1812 C1811 1.410 . S
C1812 C1813 1.392 . S
C1812 C1815 1.511 . S
C1813 C1809 1.376 . S
C1813 C1812 1.392 . S
C1813 H1825 0.929 . S
C1814 C1810 1.531 . S
C1814 H1826 0.960 . S
C1814 H1827 0.962 . S
C1814 H1828 0.960 . S
C1815 C1812 1.511 . S
C1815 H1829 0.961 . S
C1815 H1830 0.961 . S
C1815 H1831 0.961 . S
C1816 C1817 1.370 . S
C1816 C1818 1.363 . S
C1816 H1832 0.931 . S
C1817 C1816 1.370 . S
C1817 C1821 1.408 . S
C1818 C1816 1.363 . S
C1818 C1819 1.370 . S
C1818 C1822 1.524 . S
C1819 C1811 1.503 . S
C1819 C1818 1.370 . S
C1819 C1820 1.403 . S
C1820 C1819 1.403 . S
C1820 C1821 1.404 . S
C1820 C1823 1.540 1_554 S
C1821 C1817 1.408 . S
C1821 C1820 1.404 . S
C1821 H1833 0.920 1_554 S
C1822 C1818 1.524 . S
C1822 H1834 0.956 . S
C1822 H1835 0.961 . S
C1822 H1836 0.961 . S
C1823 C1820 1.540 1_556 S
C1823 H1837 0.958 . S
C1823 H1838 0.961 . S
C1823 H1839 0.960 1_556 S
H1824 C1808 0.931 . S
H1825 C1813 0.929 . S
H1826 C1814 0.960 . S
H1827 C1814 0.962 . S
H1828 C1814 0.960 . S
H1829 C1815 0.961 . S
H1830 C1815 0.961 . S
H1831 C1815 0.961 . S
H1832 C1816 0.931 . S
H1833 C1821 0.920 1_556 S
H1834 C1822 0.956 . S
H1835 C1822 0.961 . S
H1836 C1822 0.961 . S
H1837 C1823 0.958 . S
H1838 C1823 0.961 . S
H1839 C1823 0.960 1_554 S
C1840 C1841 1.391 . S
C1840 C1842 1.394 . S
C1840 H1856 0.931 . S
C1841 C1840 1.391 . S
C1841 C1845 1.376 . S
C1842 C1840 1.394 . S
C1842 C1843 1.369 . S
C1842 C1846 1.531 . S
C1843 C1842 1.369 . S
C1843 C1844 1.410 . S
C1843 C1851 1.503 . S
C1844 C1843 1.410 . S
C1844 C1845 1.392 . S
C1844 C1847 1.511 . S
C1845 C1841 1.376 . S
C1845 C1844 1.392 . S
C1845 H1857 0.929 . S
C1846 C1842 1.531 . S
C1846 H1858 0.960 . S
C1846 H1859 0.962 . S
C1846 H1860 0.960 . S
C1847 C1844 1.511 . S
C1847 H1861 0.961 . S
C1847 H1862 0.961 . S
C1847 H1863 0.961 . S
C1848 C1849 1.370 . S
C1848 C1850 1.363 . S
C1848 H1864 0.931 . S
C1849 C1848 1.370 . S
C1849 C1853 1.408 . S
C1850 C1848 1.363 . S
C1850 C1851 1.370 . S
C1850 C1854 1.524 . S
C1851 C1843 1.503 . S
C1851 C1850 1.370 . S
C1851 C1852 1.403 . S
C1852 C1851 1.403 . S
C1852 C1853 1.404 . S
C1852 C1855 1.539 . S
C1853 C1849 1.408 . S
C1853 C1852 1.404 . S
C1853 H1865 0.930 . S
C1854 C1850 1.524 . S
C1854 H1866 0.956 . S
C1854 H1867 0.961 . S
C1854 H1868 0.961 . S
C1855 C1852 1.539 . S
C1855 H1869 0.958 . S
C1855 H1870 0.961 . S
C1855 H1871 0.960 . S
H1856 C1840 0.931 . S
H1857 C1845 0.929 . S
H1858 C1846 0.960 . S
H1859 C1846 0.962 . S
H1860 C1846 0.960 . S
H1861 C1847 0.961 . S
H1862 C1847 0.961 . S
H1863 C1847 0.961 . S
H1864 C1848 0.931 . S
H1865 C1853 0.930 . S
H1866 C1854 0.956 . S
H1867 C1854 0.961 . S
H1868 C1854 0.961 . S
H1869 C1855 0.958 . S
H1870 C1855 0.961 . S
H1871 C1855 0.960 . S
C1872 C1873 1.391 . S
C1872 C1874 1.394 . S
C1872 H1888 0.931 . S
C1873 C1872 1.391 . S
C1873 C1877 1.376 . S
C1874 C1872 1.394 . S
C1874 C1875 1.369 . S
C1874 C1878 1.531 . S
C1875 C1874 1.369 . S
C1875 C1876 1.410 . S
C1875 C1883 1.503 . S
C1876 C1875 1.410 . S
C1876 C1877 1.392 . S
C1876 C1879 1.511 . S
C1877 C1873 1.376 . S
C1877 C1876 1.392 . S
C1877 H1889 0.929 . S
C1878 C1874 1.531 . S
C1878 H1890 0.960 . S
C1878 H1891 0.962 . S
C1878 H1892 0.960 . S
C1879 C1876 1.511 . S
C1879 H1893 0.961 . S
C1879 H1894 0.961 . S
C1879 H1895 0.961 . S
C1880 C1881 1.370 . S
C1880 C1882 1.363 . S
C1880 H1896 0.931 . S
C1881 C1880 1.370 . S
C1881 C1885 1.408 . S
C1882 C1880 1.363 . S
C1882 C1883 1.370 . S
C1882 C1886 1.524 . S
C1883 C1875 1.503 . S
C1883 C1882 1.370 . S
C1883 C1884 1.403 . S
C1884 C1883 1.403 . S
C1884 C1885 1.404 . S
C1884 C1887 1.539 . S
C1885 C1881 1.408 . S
C1885 C1884 1.404 . S
C1885 H1897 0.930 . S
C1886 C1882 1.524 . S
C1886 H1898 0.956 . S
C1886 H1899 0.961 . S
C1886 H1900 0.961 . S
C1887 C1884 1.539 . S
C1887 H1901 0.958 . S
C1887 H1902 0.961 . S
C1887 H1903 0.960 . S
H1888 C1872 0.931 . S
H1889 C1877 0.929 . S
H1890 C1878 0.960 . S
H1891 C1878 0.962 . S
H1892 C1878 0.960 . S
H1893 C1879 0.961 . S
H1894 C1879 0.961 . S
H1895 C1879 0.961 . S
H1896 C1880 0.931 . S
H1897 C1885 0.930 . S
H1898 C1886 0.956 . S
H1899 C1886 0.961 . S
H1900 C1886 0.961 . S
H1901 C1887 0.958 . S
H1902 C1887 0.961 . S
H1903 C1887 0.960 . S
C1904 C1905 1.391 . S
C1904 C1906 1.394 . S
C1904 H1920 0.931 . S
C1905 C1904 1.391 . S
C1905 C1909 1.376 . S
C1906 C1904 1.394 . S
C1906 C1907 1.369 . S
C1906 C1910 1.531 . S
C1907 C1906 1.369 . S
C1907 C1908 1.410 . S
C1907 C1915 1.503 . S
C1908 C1907 1.410 . S
C1908 C1909 1.392 . S
C1908 C1911 1.511 . S
C1909 C1905 1.376 . S
C1909 C1908 1.392 . S
C1909 H1921 0.929 . S
C1910 C1906 1.531 . S
C1910 H1922 0.960 . S
C1910 H1923 0.962 . S
C1910 H1924 0.960 . S
C1911 C1908 1.511 . S
C1911 H1925 0.961 . S
C1911 H1926 0.961 . S
C1911 H1927 0.961 . S
C1912 C1913 1.370 . S
C1912 C1914 1.363 . S
C1912 H1928 0.931 . S
C1913 C1912 1.370 . S
C1913 C1917 1.408 . S
C1914 C1912 1.363 . S
C1914 C1915 1.370 . S
C1914 C1918 1.524 . S
C1915 C1907 1.503 . S
C1915 C1914 1.370 . S
C1915 C1916 1.403 . S
C1916 C1915 1.403 . S
C1916 C1917 1.404 . S
C1916 C1919 1.539 . S
C1917 C1913 1.408 . S
C1917 C1916 1.404 . S
C1917 H1929 0.930 . S
C1918 C1914 1.524 . S
C1918 H1930 0.956 . S
C1918 H1931 0.961 . S
C1918 H1932 0.961 1_554 S
C1919 C1916 1.539 . S
C1919 H1933 0.958 . S
C1919 H1934 0.961 . S
C1919 H1935 0.960 . S
H1920 C1904 0.931 . S
H1921 C1909 0.929 . S
H1922 C1910 0.960 . S
H1923 C1910 0.962 . S
H1924 C1910 0.960 . S
H1925 C1911 0.961 . S
H1926 C1911 0.961 . S
H1927 C1911 0.961 . S
H1928 C1912 0.931 . S
H1929 C1917 0.930 . S
H1930 C1918 0.956 . S
H1931 C1918 0.961 . S
H1932 C1918 0.961 1_556 S
H1933 C1919 0.958 . S
H1934 C1919 0.961 . S
H1935 C1919 0.960 . S
C1936 C1937 1.391 . S
C1936 C1938 1.394 . S
C1936 H1952 0.931 . S
C1937 C1936 1.391 . S
C1937 C1941 1.376 . S
C1938 C1936 1.394 . S
C1938 C1939 1.369 . S
C1938 C1942 1.531 . S
C1939 C1938 1.369 . S
C1939 C1940 1.410 . S
C1939 C1947 1.503 . S
C1940 C1939 1.410 . S
C1940 C1941 1.392 . S
C1940 C1943 1.511 . S
C1941 C1937 1.376 . S
C1941 C1940 1.392 . S
C1941 H1953 0.929 . S
C1942 C1938 1.531 . S
C1942 H1954 0.960 . S
C1942 H1955 0.962 . S
C1942 H1956 0.960 . S
C1943 C1940 1.511 . S
C1943 H1957 0.961 . S
C1943 H1958 0.961 . S
C1943 H1959 0.961 . S
C1944 C1945 1.370 . S
C1944 C1946 1.363 . S
C1944 H1960 0.931 . S
C1945 C1944 1.370 . S
C1945 C1949 1.408 . S
C1946 C1944 1.363 . S
C1946 C1947 1.370 . S
C1946 C1950 1.524 . S
C1947 C1939 1.503 . S
C1947 C1946 1.370 . S
C1947 C1948 1.403 . S
C1948 C1947 1.403 . S
C1948 C1949 1.404 . S
C1948 C1951 1.539 . S
C1949 C1945 1.408 . S
C1949 C1948 1.404 . S
C1949 H1961 0.930 . S
C1950 C1946 1.524 . S
C1950 H1962 0.956 . S
C1950 H1963 0.961 . S
C1950 H1964 0.961 . S
C1951 C1948 1.539 . S
C1951 H1965 0.958 . S
C1951 H1966 0.961 1_556 S
C1951 H1967 0.960 . S
H1952 C1936 0.931 . S
H1953 C1941 0.929 . S
H1954 C1942 0.960 . S
H1955 C1942 0.962 . S
H1956 C1942 0.960 . S
H1957 C1943 0.961 . S
H1958 C1943 0.961 . S
H1959 C1943 0.961 . S
H1960 C1944 0.931 . S
H1961 C1949 0.930 . S
H1962 C1950 0.956 . S
H1963 C1950 0.961 . S
H1964 C1950 0.961 . S
H1965 C1951 0.958 . S
H1966 C1951 0.961 1_554 S
H1967 C1951 0.960 . S
C945 C33 1.664 . S
C953 C741 1.669 . S
C977 C111 1.654 . S
C985 C347 1.664 . S
C1009 C151 1.666 . S
C1017 C859 1.667 . S
C1041 C465 1.655 1_565 S
C1049 C229 1.662 . S
C1073 C878 1.650 . S
C1081 C170 1.664 . S
C1105 C446 1.664 . S
C1113 C210 1.667 . S
C1137 C760 1.665 . S
C1145 C52 1.657 . S
C1169 C328 1.662 . S
C1177 C92 1.669 . S
C1201 C269 1.665 . S
C1209 C505 1.668 . S
C1233 C387 1.662 . S
C1241 C623 1.669 . S
C1265 C642 1.651 . S
C1273 C406 1.664 . S
C1297 C288 1.665 . S
C1305 C524 1.657 . S
C1329 C819 1.650 . S
C1337 C583 1.663 . S
C1361 C701 1.652 . S
C1369 C937 1.663 . S
C1393 C682 1.660 . S
C1401 C918 1.670 . S
C1425 C564 1.660 . S
C1433 C800 1.670 . S
C1457 C654 1.486 . S
C1465 C5 1.495 . S
C1489 C475 1.492 . S
C1497 C62 1.491 . S
C1521 C123 1.485 . S
C1529 C536 1.495 . S
C1553 C593 1.481 . S
C1561 C180 1.490 . S
C1585 C652 1.480 . S
C1593 C121 1.487 . S
C1617 C182 1.493 . S
C1625 C477 1.492 . S
C1649 C534 1.493 . S
C1657 C3 1.492 . S
C1681 C595 1.492 . S
C1689 C64 1.492 . S
C1713 C241 1.485 . S
C1721 C890 1.495 . S
C1745 C711 1.479 . S
C1753 C298 1.488 . S
C1777 C359 1.489 . S
C1785 C772 1.493 . S
C1809 C416 1.485 . S
C1817 C829 1.491 . S
C1841 C357 1.486 . S
C1849 C888 1.489 . S
C1873 C713 1.488 . S
C1881 C418 1.493 . S
C1905 C770 1.487 . S
C1913 C239 1.490 . S
C1937 C831 1.486 . S
C1945 C300 1.495 . S
