# Generated by pormake.
# Topology qdl, (4)-cn, num edge types: 1
# Building blocks:
#     Node 0, Type 0, BuildingBlock: NAWXER_clean_sbu_0, # of connection points: 4
#     Node 1, Type 0, BuildingBlock: NAWXER_clean_sbu_0, # of connection points: 4
#     Node 2, Type 0, BuildingBlock: NAWXER_clean_sbu_0, # of connection points: 4
#     Node 3, Type 0, BuildingBlock: NAWXER_clean_sbu_0, # of connection points: 4
#     Node 4, Type 0, BuildingBlock: NAWXER_clean_sbu_0, # of connection points: 4
#     Node 5, Type 0, BuildingBlock: NAWXER_clean_sbu_0, # of connection points: 4
#     Edge 6, Type (0, 0), BuildingBlock: MIFKUJ_clean_linker_0, # of connection points: 2
#     Edge 7, Type (0, 0), BuildingBlock: MIFKUJ_clean_linker_0, # of connection points: 2
#     Edge 8, Type (0, 0), BuildingBlock: MIFKUJ_clean_linker_0, # of connection points: 2
#     Edge 9, Type (0, 0), BuildingBlock: MIFKUJ_clean_linker_0, # of connection points: 2
#     Edge 10, Type (0, 0), BuildingBlock: MIFKUJ_clean_linker_0, # of connection points: 2
#     Edge 11, Type (0, 0), BuildingBlock: MIFKUJ_clean_linker_0, # of connection points: 2
#     Edge 12, Type (0, 0), BuildingBlock: MIFKUJ_clean_linker_0, # of connection points: 2
#     Edge 13, Type (0, 0), BuildingBlock: MIFKUJ_clean_linker_0, # of connection points: 2
#     Edge 14, Type (0, 0), BuildingBlock: MIFKUJ_clean_linker_0, # of connection points: 2
#     Edge 15, Type (0, 0), BuildingBlock: MIFKUJ_clean_linker_0, # of connection points: 2
#     Edge 16, Type (0, 0), BuildingBlock: MIFKUJ_clean_linker_0, # of connection points: 2
#     Edge 17, Type (0, 0), BuildingBlock: MIFKUJ_clean_linker_0, # of connection points: 2
# Relax obj value: 0.000
# Max RMSD: 0.023
# Mean RMSD: 0.019
data_MOF--net-qdl--node1-NAWXER_clean_sbu_0--edge1-MIFKUJ_clean_linker_0
_symmetry_space_group_name_H-M    P1
_symmetry_Int_Tables_number       1
_symmetry_cell_setting            triclinic
loop_
_symmetry_equiv_pos_as_xyz
'x, y, z'
_cell_length_a     19.353956
_cell_length_b     19.355398
_cell_length_c     115.2191
_cell_angle_alpha  95.075162
_cell_angle_beta   95.110528
_cell_angle_gamma 120.0093
loop_
_atom_site_label
_atom_site_type_symbol
_atom_site_fract_x
_atom_site_fract_y
_atom_site_fract_z
_atom_type_partial_charge
C0 C 0.27532 0.05645 0.09282 0.0
C1 C 0.27577 0.31208 0.09426 0.0
O2 O 0.33645 0.12766 0.09435 0.0
Zn3 Zn 0.27779 0.18516 0.09345 0.0
O4 O 0.20425 0.04661 0.09127 0.0
Zn5 Zn 0.14963 0.12015 0.09049 0.0
O6 O 0.09108 0.08706 0.0746 0.0
O7 O 0.22324 0.15165 0.07519 0.0
O8 O 0.20468 0.24927 0.09249 0.0
O9 O 0.33669 0.30312 0.09536 0.0
O10 O 0.22126 0.16066 0.10911 0.0
O11 O 0.08927 0.09345 0.10356 0.0
C12 C 0.15191 0.11507 0.06922 0.0
C13 C 0.14958 0.12526 0.11176 0.0
C14 C 0.09343 0.87498 0.41779 0.0
C15 C 0.83963 0.87795 0.41598 0.0
O16 O 0.02181 0.81466 0.4153 0.0
Zn17 Zn 0.96515 0.8744 0.41643 0.0
O18 O 0.1042 0.94619 0.41981 0.0
Zn19 Zn 0.03246 1.00218 0.42034 0.0
O20 O 0.06415 0.05713 0.43639 0.0
O21 O 0.99486 0.92434 0.43499 0.0
O22 O 0.90312 0.94862 0.41826 0.0
O23 O 0.84739 0.81655 0.41413 0.0
O24 O 0.99165 0.93541 0.40121 0.0
O25 O 0.06335 0.06618 0.40769 0.0
C26 C 0.0323 0.99446 0.44135 0.0
C27 C 0.02983 1.00835 0.39911 0.0
C28 C 0.04513 0.05637 0.77545 0.0
C29 C 0.01722 0.01567 0.73239 0.0
O30 O 1.00707 0.08747 0.77061 0.0
Zn31 Zn 0.96859 0.09877 0.75316 0.0
O32 O 0.07131 0.0207 0.76898 0.0
Zn33 Zn 0.03207 0.0357 0.75389 0.0
O34 O 0.10664 0.1638 0.75389 0.0
O35 O 0.02782 0.21549 0.75338 0.0
O36 O 0.05144 0.99201 0.73963 0.0
O37 O 0.98466 0.05494 0.73632 0.0
O38 O 0.8513 0.03999 0.75228 0.0
O39 O 0.90294 0.96125 0.75282 0.0
C40 C 0.09805 0.22527 0.75365 0.0
C41 C 0.84117 0.96979 0.75231 0.0
C42 C 0.0516 0.03596 0.60948 0.0
C43 C 0.04489 0.05283 0.56732 0.0
O44 O 0.0877 0.10907 0.60741 0.0
Zn45 Zn 0.11289 0.17141 0.5923 0.0
O46 O 0.01903 0.97825 0.60088 0.0
Zn47 Zn 0.04689 0.04362 0.58838 0.0
O48 O 0.17631 0.09852 0.59043 0.0
O49 O 0.23071 0.23039 0.59452 0.0
O50 O 0.01415 0.98995 0.57224 0.0
O51 O 0.0822 0.12269 0.57375 0.0
O52 O 0.05552 0.23003 0.59383 0.0
O53 O 0.9739 0.09819 0.58975 0.0
C54 C 0.23933 0.1695 0.59272 0.0
C55 C 0.9841 0.16916 0.59189 0.0
C56 C 0.07533 0.11493 0.94366 0.0
C57 C 0.05158 0.09092 0.90069 0.0
O58 O 0.03613 0.14638 0.9393 0.0
Zn59 Zn 0.99982 0.16491 0.92215 0.0
O60 O 0.10419 0.084 0.93685 0.0
Zn61 Zn 0.06384 0.10239 0.92219 0.0
O62 O 0.13796 0.23119 0.92321 0.0
O63 O 0.05897 0.28259 0.92332 0.0
O64 O 0.08404 0.06369 0.90756 0.0
O65 O 0.01848 0.12852 0.90502 0.0
O66 O 0.88245 0.10516 0.92104 0.0
O67 O 0.93476 0.02691 0.92126 0.0
C68 C 0.12938 0.29287 0.92354 0.0
C69 C 0.87276 0.03504 0.92094 0.0
C70 C 0.10913 0.12867 0.27839 0.0
C71 C 0.12393 0.12129 0.23614 0.0
O72 O 0.05092 0.0948 0.26985 0.0
Zn73 Zn 0.11522 0.12399 0.25722 0.0
O74 O 0.18201 0.16601 0.27624 0.0
Zn75 Zn 0.24332 0.19089 0.26106 0.0
O76 O 0.30158 0.30847 0.26307 0.0
O77 O 0.1695 0.25355 0.25918 0.0
O78 O 0.19369 0.15923 0.24259 0.0
O79 O 0.0609 0.09029 0.24104 0.0
O80 O 0.17075 0.05197 0.25843 0.0
O81 O 0.30255 0.13387 0.26245 0.0
C82 C 0.24044 0.31676 0.26133 0.0
C83 C 0.24182 0.06236 0.26047 0.0
H84 H 0.15576 0.8985 0.09073 0.0
H85 H 0.16914 0.78049 0.09179 0.0
H86 H 0.42847 0.93184 0.09665 0.0
H87 H 0.41562 0.05118 0.09552 0.0
H88 H 0.37352 0.79154 0.08105 0.0
H89 H 0.33766 0.86194 0.1199 0.0
H90 H 0.27283 0.8981 0.13484 0.0
H91 H 0.05293 0.67035 0.12384 0.0
H92 H 0.11606 0.63329 0.1087 0.0
H93 H 0.41586 0.46045 0.09652 0.0
H94 H 0.42833 0.59337 0.09708 0.0
H95 H 0.16935 0.48065 0.09369 0.0
H96 H 0.15648 0.34865 0.09326 0.0
H97 H 0.24034 0.61134 0.11009 0.0
H98 H 0.27111 0.54635 0.0702 0.0
H99 H 0.33329 0.51005 0.05484 0.0
H100 H 0.56089 0.72682 0.06762 0.0
H101 H 0.50024 0.76388 0.08317 0.0
C102 C 0.21584 0.9071 0.092 0.0
C103 C 0.28466 0.98472 0.0931 0.0
C104 C 0.22335 0.83933 0.09265 0.0
C105 C 0.29983 0.8472 0.09447 0.0
C106 C 0.36881 0.92425 0.09529 0.0
C107 C 0.36136 0.99245 0.09467 0.0
C108 C 0.30679 0.77461 0.09558 0.0
C109 C 0.34575 0.75292 0.08755 0.0
C110 C 0.26949 0.72336 0.10393 0.0
C111 C 0.23147 0.7451 0.1131 0.0
C112 C 0.27531 0.81978 0.12061 0.0
C113 C 0.23888 0.84041 0.12912 0.0
C114 C 0.15877 0.78662 0.13027 0.0
C115 C 0.11498 0.71198 0.12293 0.0
C116 C 0.15108 0.69109 0.11439 0.0
C117 C 0.36162 0.46405 0.09592 0.0
C118 C 0.28517 0.3936 0.09482 0.0
C119 C 0.3688 0.5401 0.09619 0.0
C120 C 0.2997 0.54722 0.09533 0.0
C121 C 0.22361 0.47703 0.09439 0.0
C122 C 0.21638 0.40131 0.0941 0.0
C123 C 0.30558 0.62719 0.0954 0.0
C124 C 0.26901 0.65037 0.10368 0.0
C125 C 0.34489 0.67957 0.08727 0.0
C126 C 0.38141 0.65737 0.07793 0.0
C127 C 0.3346 0.58591 0.0698 0.0
C128 C 0.36952 0.56527 0.06105 0.0
C129 C 0.45106 0.61596 0.06028 0.0
C130 C 0.49778 0.68753 0.06824 0.0
C131 C 0.46316 0.7084 0.07702 0.0
H132 H 0.47798 0.5999 0.05349 0.0
H133 H 0.13066 0.80272 0.13687 0.0
H134 H 0.24951 0.9874 0.42694 0.0
H135 H 0.36915 0.97606 0.42661 0.0
H136 H 0.22101 0.72981 0.40914 0.0
H137 H 0.09979 0.74012 0.4097 0.0
H138 H 0.34358 0.74837 0.42565 0.0
H139 H 0.3186 0.88282 0.39396 0.0
H140 H 0.30016 0.98651 0.38572 0.0
H141 H 0.52564 0.17294 0.40589 0.0
H142 H 0.54365 0.07045 0.41473 0.0
H143 H 0.68941 0.74161 0.40883 0.0
H144 H 0.55729 0.73035 0.40865 0.0
H145 H 0.67516 0.9832 0.423 0.0
H146 H 0.80642 0.99526 0.42287 0.0
H147 H 0.56034 0.95054 0.40639 0.0
H148 H 0.57981 0.82549 0.43984 0.0
H149 H 0.59721 0.72773 0.45019 0.0
H150 H 0.38819 0.53143 0.42791 0.0
H151 H 0.37016 0.62808 0.41732 0.0
C152 C 0.24197 0.93051 0.42308 0.0
C153 C 0.16494 0.86494 0.41821 0.0
C154 C 0.31067 0.92416 0.42289 0.0
C155 C 0.3045 0.85262 0.41763 0.0
C156 C 0.22741 0.78579 0.41319 0.0
C157 C 0.15819 0.79185 0.41348 0.0
C158 C 0.37905 0.84968 0.41631 0.0
C159 C 0.39047 0.79173 0.42127 0.0
C160 C 0.4411 0.90722 0.41079 0.0
C161 C 0.43215 0.96881 0.40508 0.0
C162 C 0.3641 0.94591 0.3967 0.0
C163 C 0.35365 1.00455 0.39193 0.0
C164 C 0.41183 0.0863 0.39523 0.0
C165 C 0.48059 0.10958 0.40334 0.0
C166 C 0.4908 0.05122 0.40827 0.0
C167 C 0.68706 0.79475 0.41194 0.0
C168 C 0.7587 0.86935 0.41584 0.0
C169 C 0.6114 0.78817 0.4119 0.0
C170 C 0.60581 0.85578 0.41592 0.0
C171 C 0.67742 0.93012 0.41981 0.0
C172 C 0.75273 0.93688 0.41975 0.0
C173 C 0.52607 0.85045 0.41598 0.0
C174 C 0.51339 0.90671 0.4107 0.0
C175 C 0.46351 0.7921 0.42135 0.0
C176 C 0.47421 0.73395 0.4277 0.0
C177 C 0.53795 0.76145 0.43708 0.0
C178 C 0.54786 0.70625 0.44301 0.0
C179 C 0.49399 0.62341 0.43969 0.0
C180 C 0.42996 0.59561 0.43046 0.0
C181 C 0.41984 0.65056 0.4245 0.0
H182 H 0.50175 0.58077 0.44428 0.0
H183 H 0.4036 0.13159 0.3915 0.0
H184 H 0.79979 0.81163 0.74958 0.0
H185 H 0.66735 0.69257 0.74922 0.0
H186 H 0.56395 0.84354 0.7538 0.0
H187 H 0.69732 0.96402 0.7542 0.0
H188 H 0.5111 0.72472 0.76828 0.0
H189 H 0.52862 0.7379 0.72744 0.0
H190 H 0.59171 0.75096 0.70946 0.0
H191 H 0.59641 0.53391 0.71259 0.0
H192 H 0.53451 0.52019 0.7307 0.0
H193 H 0.10926 0.37375 0.75579 0.0
H194 H 0.2288 0.50558 0.75511 0.0
H195 H 0.36837 0.39103 0.7501 0.0
H196 H 0.25003 0.25987 0.75079 0.0
H197 H 0.39418 0.4989 0.73487 0.0
H198 H 0.38909 0.49288 0.7765 0.0
H199 H 0.32872 0.47998 0.79474 0.0
H200 H 0.30157 0.68335 0.79014 0.0
H201 H 0.3608 0.69674 0.77177 0.0
C202 C 0.74906 0.81991 0.75049 0.0
C203 C 0.75942 0.89769 0.75188 0.0
C204 C 0.67311 0.7515 0.75024 0.0
C205 C 0.60533 0.75882 0.75137 0.0
C206 C 0.6153 0.83633 0.75288 0.0
C207 C 0.69152 0.90511 0.75305 0.0
C208 C 0.52468 0.68506 0.75102 0.0
C209 C 0.48468 0.67599 0.76087 0.0
C210 C 0.49074 0.62074 0.74145 0.0
C211 C 0.52742 0.62835 0.73049 0.0
C212 C 0.54363 0.69325 0.72435 0.0
C213 C 0.57912 0.70074 0.71412 0.0
C214 C 0.59818 0.64339 0.7099 0.0
C215 C 0.58164 0.57832 0.71588 0.0
C216 C 0.54627 0.57061 0.72612 0.0
C217 C 0.16544 0.37669 0.75456 0.0
C218 C 0.16989 0.30604 0.75338 0.0
C219 C 0.23381 0.45215 0.7542 0.0
C220 C 0.30783 0.4584 0.75259 0.0
C221 C 0.31205 0.38789 0.75132 0.0
C222 C 0.2442 0.31281 0.75178 0.0
C223 C 0.38127 0.53797 0.75221 0.0
C224 C 0.41998 0.54805 0.74221 0.0
C225 C 0.41397 0.60307 0.76164 0.0
C226 C 0.37843 0.59518 0.77268 0.0
C227 C 0.36955 0.53438 0.77932 0.0
C228 C 0.33569 0.52707 0.78969 0.0
C229 C 0.31107 0.58064 0.79357 0.0
C230 C 0.3205 0.64178 0.78711 0.0
C231 C 0.35425 0.64929 0.77672 0.0
H232 H 0.2849 0.5749 0.80161 0.0
H233 H 0.6256 0.64926 0.70198 0.0
H234 H 0.27463 0.05105 0.5879 0.0
H235 H 0.40675 0.06396 0.58874 0.0
H236 H 0.52186 0.32111 0.5995 0.0
H237 H 0.38875 0.30884 0.59848 0.0
H238 H 0.59795 0.28674 0.58332 0.0
H239 H 0.5127 0.19848 0.61951 0.0
H240 H 0.41936 0.11319 0.63228 0.0
H241 H 0.41817 0.90599 0.61527 0.0
H242 H 0.51039 0.98975 0.60224 0.0
H243 H 0.98012 0.30865 0.59742 0.0
H244 H 0.86065 0.32099 0.59856 0.0
H245 H 0.70682 0.06337 0.58833 0.0
H246 H 0.82513 0.05045 0.58735 0.0
H247 H 0.65856 0.11343 0.60633 0.0
H248 H 0.73347 0.20044 0.56895 0.0
H249 H 0.8255 0.28591 0.55603 0.0
H250 H 0.8471 0.49681 0.57565 0.0
H251 H 0.75594 0.41263 0.58878 0.0
C252 C 0.32782 0.11055 0.59047 0.0
C253 C 0.32078 0.17888 0.5932 0.0
C254 C 0.40359 0.11776 0.59099 0.0
C255 C 0.47455 0.19332 0.59438 0.0
C256 C 0.46804 0.26208 0.59691 0.0
C257 C 0.39188 0.25494 0.59636 0.0
C258 C 0.55493 0.1995 0.59524 0.0
C259 C 0.61182 0.24995 0.58853 0.0
C260 C 0.57299 0.15089 0.60192 0.0
C261 C 0.51811 0.10038 0.60984 0.0
C262 C 0.49215 0.13463 0.61844 0.0
C263 C 0.43946 0.08655 0.62573 0.0
C264 C 0.4128 1.00421 0.62459 0.0
C265 C 0.43887 0.9698 0.61615 0.0
C266 C 0.49141 0.01756 0.60881 0.0
C267 C 0.92082 0.25469 0.59537 0.0
C268 C 0.91247 0.17856 0.59229 0.0
C269 C 0.85247 0.26186 0.59599 0.0
C270 C 0.77438 0.19314 0.59346 0.0
C271 C 0.76619 0.11731 0.59036 0.0
C272 C 0.83417 0.11009 0.58977 0.0
C273 C 0.70072 0.19897 0.59416 0.0
C274 C 0.64511 0.15087 0.60121 0.0
C275 C 0.68408 0.24987 0.58782 0.0
C276 C 0.73866 0.30038 0.57992 0.0
C277 C 0.75837 0.26512 0.57056 0.0
C278 C 0.81027 0.31331 0.56319 0.0
C279 C 0.84233 0.39676 0.56504 0.0
C280 C 0.82235 0.43218 0.57424 0.0
C281 C 0.77054 0.38426 0.58164 0.0
H282 H 0.8825 0.43397 0.55933 0.0
H283 H 0.37204 0.96707 0.63024 0.0
H284 H 0.28534 0.33079 0.92346 0.0
H285 H 0.4043 0.46259 0.92363 0.0
H286 H 0.25841 0.57296 0.9246 0.0
H287 H 0.13768 0.43987 0.92423 0.0
H288 H 0.36438 0.63338 0.9092 0.0
H289 H 0.38242 0.59227 0.94934 0.0
H290 H 0.38179 0.51797 0.9657 0.0
H291 H 0.58723 0.51121 0.95579 0.0
H292 H 0.58836 0.58431 0.93926 0.0
H293 H 0.7268 0.0276 0.92125 0.0
H294 H 0.59542 0.9086 0.92223 0.0
H295 H 0.70389 0.76077 0.92166 0.0
H296 H 0.83472 0.87876 0.92081 0.0
H297 H 0.61025 0.7286 0.93835 0.0
H298 H 0.58384 0.75736 0.89725 0.0
H299 H 0.58372 0.829 0.88059 0.0
H300 H 0.39436 0.85864 0.89233 0.0
H301 H 0.3941 0.78804 0.90916 0.0
C302 C 0.27813 0.38289 0.92376 0.0
C303 C 0.20163 0.37446 0.9239 0.0
C304 C 0.3466 0.45856 0.9239 0.0
C305 C 0.34089 0.52823 0.92432 0.0
C306 C 0.26454 0.52022 0.92433 0.0
C307 C 0.19559 0.44411 0.92416 0.0
C308 C 0.41492 0.60871 0.9246 0.0
C309 C 0.41765 0.65497 0.91572 0.0
C310 C 0.48509 0.63662 0.93298 0.0
C311 C 0.48511 0.59336 0.943 0.0
C312 C 0.42716 0.5745 0.9506 0.0
C313 C 0.42674 0.53264 0.95991 0.0
C314 C 0.48435 0.50978 0.96176 0.0
C315 C 0.54263 0.52893 0.95433 0.0
C316 C 0.54324 0.57066 0.945 0.0
C317 C 0.72255 0.96966 0.92126 0.0
C318 C 0.79158 0.963 0.92094 0.0
C319 C 0.64727 0.90155 0.9218 0.0
C320 C 0.63941 0.82535 0.92198 0.0
C321 C 0.70819 0.81873 0.92158 0.0
C322 C 0.78314 0.88648 0.92104 0.0
C323 C 0.56039 0.75233 0.92279 0.0
C324 C 0.55671 0.70753 0.93191 0.0
C325 C 0.48952 0.72589 0.91464 0.0
C326 C 0.48964 0.7683 0.90454 0.0
C327 C 0.54267 0.77978 0.89633 0.0
C328 C 0.54257 0.82006 0.88685 0.0
C329 C 0.48925 0.84859 0.88542 0.0
C330 C 0.43574 0.83667 0.89346 0.0
C331 C 0.43566 0.79649 0.90297 0.0
H332 H 0.48924 0.87974 0.87807 0.0
H333 H 0.48394 0.47734 0.96896 0.0
H334 H 0.38074 0.4656 0.26485 0.0
H335 H 0.39365 0.5981 0.2645 0.0
H336 H 0.13422 0.48421 0.25788 0.0
H337 H 0.12088 0.35232 0.25807 0.0
H338 H 0.20049 0.59247 0.24358 0.0
H339 H 0.24725 0.58702 0.28533 0.0
H340 H 0.31659 0.57557 0.30343 0.0
H341 H 0.5402 0.77946 0.29829 0.0
H342 H 0.47235 0.79141 0.28006 0.0
H343 H 0.12245 0.90394 0.25734 0.0
H344 H 0.13567 0.78534 0.25728 0.0
H345 H 0.39513 0.93742 0.26351 0.0
H346 H 0.38237 0.05762 0.26378 0.0
H347 H 0.34559 0.81817 0.27698 0.0
H348 H 0.29623 0.83125 0.23619 0.0
H349 H 0.22649 0.84383 0.21823 0.0
H350 H 1.00877 0.6262 0.22144 0.0
H351 H 0.07682 0.61292 0.23952 0.0
C352 C 0.32646 0.46883 0.26336 0.0
C353 C 0.24976 0.39806 0.2615 0.0
C354 C 0.33392 0.54473 0.2632 0.0
C355 C 0.26487 0.55146 0.26123 0.0
C356 C 0.18845 0.48085 0.25938 0.0
C357 C 0.18096 0.40526 0.25954 0.0
C358 C 0.27117 0.63137 0.2609 0.0
C359 C 0.2317 0.64152 0.25094 0.0
C360 C 0.31417 0.69668 0.2703 0.0
C361 C 0.35494 0.68949 0.28126 0.0
C362 C 0.31135 0.62896 0.288 0.0
C363 C 0.35036 0.62246 0.2983 0.0
C364 C 0.43281 0.67658 0.30199 0.0
C365 C 0.47638 0.73747 0.29541 0.0
C366 C 0.43768 0.74415 0.2851 0.0
C367 C 0.18255 0.91262 0.25869 0.0
C368 C 0.2514 0.99065 0.2605 0.0
C369 C 0.18998 0.84441 0.2586 0.0
C370 C 0.2664 0.85205 0.26019 0.0
C371 C 0.33548 0.92986 0.2622 0.0
C372 C 0.32809 0.99853 0.26232 0.0
C373 C 0.27312 0.77835 0.25979 0.0
C374 C 0.31514 0.76943 0.26958 0.0
C375 C 0.23257 0.71407 0.25021 0.0
C376 C 0.19155 0.72142 0.23927 0.0
C377 C 0.23333 0.78635 0.23311 0.0
C378 C 0.19411 0.79357 0.2229 0.0
C379 C 0.11321 0.73593 0.21871 0.0
C380 C 0.07143 0.67083 0.2247 0.0
C381 C 0.11033 0.66337 0.23492 0.0
H382 H 0.08295 0.74162 0.21081 0.0
H383 H 0.46288 0.67147 0.30996 0.0
H384 H 0.98721 0.04835 0.21942 0.0
H385 H 0.98008 0.04435 0.19799 0.0
H386 H 0.24027 0.17746 0.20204 0.0
H387 H 0.24796 0.18244 0.22334 0.0
H388 H 0.17773 0.23971 0.18757 0.0
H389 H 0.13033 0.97465 0.192 0.0
H390 H 0.06 0.84103 0.19839 0.0
H391 H 0.83916 0.78496 0.1772 0.0
H392 H 0.90802 0.91883 0.1708 0.0
H393 H 0.26668 0.18535 0.13106 0.0
H394 H 0.24984 0.17988 0.15172 0.0
H395 H 0.99103 0.05144 0.1418 0.0
H396 H 1.00731 0.05573 0.12095 0.0
H397 H 0.03768 0.98611 0.15884 0.0
H398 H 0.08959 0.24872 0.15322 0.0
H399 H 0.16213 0.38192 0.14675 0.0
H400 H 0.37608 0.44271 0.17027 0.0
H401 H 0.30517 0.30938 0.17676 0.0
C402 C 0.04287 0.07648 0.21574 0.0
C403 C 0.11815 0.11578 0.22312 0.0
C404 C 0.03869 0.07393 0.20348 0.0
C405 C 0.10968 0.11035 0.19839 0.0
C406 C 0.18469 0.14918 0.20576 0.0
C407 C 0.18892 0.15172 0.21796 0.0
C408 C 0.10679 0.1099 0.18544 0.0
C409 C 0.14762 0.18418 0.1813 0.0
C410 C 0.06548 0.03762 0.17722 0.0
C411 C 0.02409 0.9571 0.18103 0.0
C412 C 0.06661 0.9341 0.18878 0.0
C413 C 0.02705 0.85826 0.19239 0.0
C414 C 0.9451 0.80462 0.18823 0.0
C415 C 0.90261 0.82664 0.18043 0.0
C416 C 0.94187 0.90246 0.1768 0.0
C417 C 0.20602 0.15596 0.13322 0.0
C418 C 0.13833 0.12144 0.12432 0.0
C419 C 0.19653 0.15309 0.14507 0.0
C420 C 0.1192 0.11626 0.14834 0.0
C421 C 0.05128 0.08044 0.13949 0.0
C422 C 0.06073 0.08322 0.12758 0.0
C423 C 0.11019 0.11587 0.16102 0.0
C424 C 0.06702 0.04161 0.1651 0.0
C425 C 0.1495 0.1882 0.16923 0.0
C426 C 0.19218 0.26878 0.16542 0.0
C427 C 0.15227 0.29027 0.15696 0.0
C428 C 0.19308 0.36584 0.15329 0.0
C429 C 0.2737 0.42068 0.15808 0.0
C430 C 0.31363 0.40015 0.16656 0.0
C431 C 0.27313 0.32463 0.17025 0.0
H432 H 0.3052 0.47914 0.15522 0.0
H433 H 0.91458 0.74593 0.19104 0.0
H434 H 0.98152 0.91561 0.55103 0.0
H435 H 0.97918 0.90631 0.52966 0.0
H436 H 0.09589 0.16549 0.53277 0.0
H437 H 0.09791 0.17536 0.5541 0.0
H438 H 0.97407 0.09175 0.5143 0.0
H439 H 0.20295 0.07315 0.52909 0.0
H440 H 0.27446 0.01852 0.54027 0.0
H441 H 0.12337 0.78578 0.51901 0.0
H442 H 0.05012 0.83878 0.50781 0.0
H443 H 0.09514 0.13219 0.45754 0.0
H444 H 0.09709 0.14222 0.47891 0.0
H445 H 0.97986 0.88309 0.47598 0.0
H446 H 0.97816 0.87249 0.45466 0.0
H447 H 0.10234 0.95733 0.49437 0.0
H448 H 0.87335 0.9759 0.4796 0.0
H449 H 0.80188 0.03055 0.46841 0.0
H450 H 0.9533 0.26341 0.48963 0.0
H451 H 0.02649 0.21039 0.50083 0.0
C452 C 1.00639 0.97064 0.54717 0.0
C453 C 0.04021 0.04626 0.5543 0.0
C454 C 1.00532 0.96524 0.53495 0.0
C455 C 0.03822 0.0353 0.52962 0.0
C456 C 0.0703 0.11065 0.53669 0.0
C457 C 0.07159 0.11614 0.5489 0.0
C458 C 0.04002 0.03025 0.51671 0.0
C459 C 1.00301 0.06327 0.50996 0.0
C460 C 0.0764 0.9917 0.511 0.0
C461 C 0.12051 0.95973 0.51769 0.0
C462 C 0.18453 0.01015 0.52686 0.0
C463 C 0.22546 0.97951 0.53319 0.0
C464 C 0.20333 0.89867 0.53037 0.0
C465 C 0.14036 0.84836 0.5212 0.0
C466 C 0.09915 0.87868 0.51485 0.0
C467 C 0.07002 0.07733 0.46144 0.0
C468 C 0.03623 1.00151 0.45436 0.0
C469 C 0.07087 0.08315 0.47366 0.0
C470 C 0.03783 0.01331 0.47904 0.0
C471 C 1.00559 0.93776 0.47203 0.0
C472 C 1.00448 0.93185 0.45982 0.0
C473 C 0.03632 0.01876 0.49196 0.0
C474 C 0.07341 0.98583 0.49871 0.0
C475 C 1.00003 0.0574 0.49767 0.0
C476 C 0.95595 0.08938 0.49097 0.0
C477 C 0.89185 0.03893 0.48181 0.0
C478 C 0.85095 0.06958 0.47548 0.0
C479 C 0.87318 0.15046 0.47829 0.0
C480 C 0.93623 0.2008 0.48745 0.0
C481 C 0.97741 0.17047 0.4938 0.0
H482 H 0.84144 0.17408 0.47337 0.0
H483 H 0.2351 0.87507 0.53528 0.0
H484 H 1.00017 0.13281 0.79145 0.0
H485 H 0.01296 0.13703 0.81275 0.0
H486 H 0.12695 0.99457 0.81045 0.0
H487 H 0.11346 0.98913 0.78895 0.0
H488 H 0.01245 0.94017 0.82486 0.0
H489 H 0.23889 0.1937 0.82107 0.0
H490 H 0.31058 0.32394 0.81374 0.0
H491 H 0.16633 0.40253 0.8303 0.0
H492 H 0.09285 0.27224 0.83758 0.0
H493 H 0.11344 0.01249 0.88814 0.0
H494 H 0.12241 1.0049 0.86702 0.0
H495 H 1.00608 0.14385 0.86309 0.0
H496 H 0.99727 0.15213 0.8841 0.0
H497 H 0.13777 0.19974 0.85206 0.0
H498 H 0.90336 0.94155 0.85408 0.0
H499 H 0.82936 0.81021 0.86104 0.0
H500 H 0.98967 0.74082 0.84772 0.0
H501 H 0.06533 0.8723 0.84081 0.0
C502 C 0.02837 0.10258 0.79543 0.0
C503 C 0.05603 0.0608 0.78847 0.0
C504 C 0.03593 0.10537 0.80765 0.0
C505 C 0.07183 0.06699 0.81323 0.0
C506 C 0.09931 0.02487 0.80633 0.0
C507 C 0.09182 0.02209 0.79406 0.0
C508 C 0.07859 0.06981 0.82624 0.0
C509 C 0.04131 0.99694 0.83083 0.0
C510 C 0.11513 0.14387 0.83403 0.0
C511 C 0.15993 0.22286 0.82981 0.0
C512 C 0.22207 0.23853 0.82309 0.0
C513 C 0.26308 0.3124 0.81895 0.0
C514 C 0.24291 0.37141 0.82153 0.0
C515 C 0.18186 0.35674 0.8283 0.0
C516 C 0.14057 0.28292 0.83245 0.0
C517 C 0.08943 0.0411 0.88277 0.0
C518 C 0.0545 0.0828 0.88783 0.0
C519 C 0.0945 0.0366 0.87069 0.0
C520 C 0.06468 0.07361 0.86346 0.0
C521 C 0.02972 0.11506 0.86849 0.0
C522 C 0.02439 0.11936 0.88052 0.0
C523 C 0.07014 0.07013 0.85065 0.0
C524 C 0.10987 0.14298 0.8461 0.0
C525 C 0.03599 0.99611 0.84292 0.0
C526 C 0.99058 0.91711 0.84706 0.0
C527 C 0.92327 0.89857 0.85273 0.0
C528 C 0.88094 0.82405 0.85665 0.0
C529 C 0.90496 0.76731 0.85486 0.0
C530 C 0.97124 0.7849 0.84912 0.0
C531 C 0.01384 0.85938 0.8452 0.0
H532 H 0.87209 0.70963 0.85789 0.0
H533 H 0.27466 0.42852 0.81831 0.0
H534 H 0.01968 0.08634 0.0541 0.0
H535 H 1.00674 0.08286 0.03272 0.0
H536 H 0.24713 0.12172 0.03347 0.0
H537 H 0.26158 0.12897 0.05489 0.0
H538 H 0.23257 0.21117 0.01983 0.0
H539 H 0.06646 0.93181 0.02288 0.0
H540 H 0.95813 0.81252 0.02957 0.0
H541 H 0.7812 0.86079 0.01341 0.0
H542 H 0.88862 0.98104 0.00676 0.0
H543 H 0.18638 0.09491 0.95714 0.0
H544 H 0.19979 0.09204 0.97847 0.0
H545 H 0.99656 0.12514 0.98041 0.0
H546 H 0.98377 0.12979 0.95922 0.0
H547 H 0.99337 0.99631 0.99226 0.0
H548 H 0.16654 0.27868 0.9895 0.0
H549 H 0.27798 0.39346 0.98246 0.0
H550 H 0.44606 0.33109 0.99778 0.0
H551 H 0.33532 0.21506 1.00474 0.0
C552 C 0.06951 0.09355 0.04969 0.0
C553 C 0.14159 0.10781 0.05618 0.0
C554 C 0.06196 0.09118 0.03744 0.0
C555 C 0.12553 0.10086 0.03138 0.0
C556 C 0.1972 0.11421 0.03789 0.0
C557 C 0.20531 0.11808 0.05014 0.0
C558 C 0.11856 0.09972 0.01836 0.0
C559 C 0.18073 0.16331 0.01383 0.0
C560 C 0.05049 0.03818 0.01043 0.0
C561 C 0.98571 0.96589 0.01442 0.0
C562 C 1.00452 0.91734 0.02083 0.0
C563 C 0.94326 0.84949 0.0246 0.0
C564 C 0.86286 0.82921 0.02194 0.0
C565 C 0.84352 0.87663 0.01548 0.0
C566 C 0.90456 0.9446 0.01169 0.0
C567 C 0.14465 0.10164 0.96212 0.0
C568 C 0.08424 0.11291 0.95651 0.0
C569 C 0.15244 0.10009 0.97429 0.0
C570 C 0.09916 0.10845 0.98099 0.0
C571 C 0.03817 0.11851 0.97538 0.0
C572 C 0.03127 0.12156 0.96329 0.0
C573 C 0.10717 0.10736 0.99388 0.0
C574 C 0.04521 0.04357 0.99834 0.0
C575 C 0.1759 0.16789 1.00171 0.0
C576 C 0.24248 0.23763 0.99752 0.0
C577 C 0.22711 0.28892 0.99126 0.0
C578 C 0.29017 0.35431 0.98731 0.0
C579 C 0.369 0.36943 0.98965 0.0
C580 C 0.38494 0.31922 0.99596 0.0
C581 C 0.32206 0.25366 0.99991 0.0
H582 H 0.41776 0.42022 0.98662 0.0
H583 H 0.81552 0.77665 0.02487 0.0
H584 H 0.97471 0.01643 0.28655 0.0
H585 H 0.9568 1.00091 0.30711 0.0
H586 H 0.19117 0.21453 0.31869 0.0
H587 H 0.21067 0.22792 0.2982 0.0
H588 H 0.1811 0.10588 0.33035 0.0
H589 H 1.00228 0.20407 0.32131 0.0
H590 H 0.88956 0.20737 0.31011 0.0
H591 H 0.72314 0.96931 0.31683 0.0
H592 H 0.83504 0.96417 0.32796 0.0
H593 H 0.13722 0.14663 0.39121 0.0
H594 H 0.14746 0.17044 0.37071 0.0
H595 H 0.94418 0.93057 0.35861 0.0
H596 H 0.93435 0.90573 0.37904 0.0
H597 H 0.93677 0.05441 0.34756 0.0
H598 H 0.11765 0.95391 0.35496 0.0
H599 H 0.23176 0.94742 0.36498 0.0
H600 H 0.39444 0.19414 0.36133 0.0
H601 H 0.28112 0.20175 0.35118 0.0
C602 C 0.02195 0.06055 0.29349 0.0
C603 C 0.0942 0.12323 0.29076 0.0
C604 C 0.01151 0.05193 0.30527 0.0
C605 C 0.07228 0.10701 0.31453 0.0
C606 C 0.14343 0.17098 0.31176 0.0
C607 C 0.15448 0.1787 0.30002 0.0
C608 C 0.06452 0.0954 0.32709 0.0
C609 C 0.12816 0.09632 0.33413 0.0
C610 C 0.99464 0.08045 0.33203 0.0
C611 C 0.92719 0.08347 0.32538 0.0
C612 C 0.94173 0.1522 0.32033 0.0
C613 C 0.87797 0.15444 0.31401 0.0
C614 C 0.79927 0.08852 0.31273 0.0
C615 C 0.78414 0.0203 0.31781 0.0
C616 C 0.8477 0.01773 0.32414 0.0
C617 C 0.09456 0.09904 0.38419 0.0
C618 C 0.03505 0.02424 0.38676 0.0
C619 C 0.10066 0.11264 0.37248 0.0
C620 C 0.04669 0.05216 0.36314 0.0
C621 C 0.98635 0.97803 0.36569 0.0
C622 C 0.98105 0.9639 0.37737 0.0
C623 C 0.05362 0.06593 0.35071 0.0
C624 C 0.98983 0.06504 0.34373 0.0
C625 C 0.12351 0.08161 0.34582 0.0
C626 C 0.1909 0.07865 0.35244 0.0
C627 C 0.17761 1.00705 0.35643 0.0
C628 C 0.2422 1.00306 0.36208 0.0
C629 C 0.3203 0.07046 0.36383 0.0
C630 C 0.33392 0.14203 0.35997 0.0
C631 C 0.26959 0.14613 0.35424 0.0
H632 H 0.37037 0.06711 0.36813 0.0
H633 H 0.74999 0.09037 0.30783 0.0
H634 H 0.12158 0.14645 0.6296 0.0
H635 H 0.1139 0.12189 0.64995 0.0
H636 H 0.96591 0.86553 0.63794 0.0
H637 H 0.97262 0.88969 0.61742 0.0
H638 H 0.90552 0.91195 0.6551 0.0
H639 H 0.15987 0.94462 0.65011 0.0
H640 H 0.29548 1.00795 0.64432 0.0
H641 H 0.37234 0.22037 0.66931 0.0
H642 H 0.23676 0.15886 0.67513 0.0
H643 H 0.08859 0.94378 0.72076 0.0
H644 H 0.09076 0.92467 0.69949 0.0
H645 H 0.94815 0.03618 0.69373 0.0
H646 H 0.9448 0.05451 0.71482 0.0
H647 H 0.15262 0.03299 0.68496 0.0
H648 H 0.82464 0.95405 0.66783 0.0
H649 H 0.68956 0.88093 0.67373 0.0
H650 H 0.7598 0.73921 0.69274 0.0
H651 H 0.89479 0.81049 0.68681 0.0
C652 C 0.08753 0.08469 0.63124 0.0
C653 C 0.04783 0.02001 0.62185 0.0
C654 C 0.08354 0.07074 0.64291 0.0
C655 C 0.04015 0.99179 0.6455 0.0
C656 C 0.99997 0.92694 0.63616 0.0
C657 C 1.00407 0.94086 0.62444 0.0
C658 C 0.0356 0.97806 0.65798 0.0
C659 C 0.9595 0.93793 0.66161 0.0
C660 C 0.10602 0.0099 0.66645 0.0
C661 C 0.18788 0.04723 0.66301 0.0
C662 C 0.20549 1.00508 0.65432 0.0
C663 C 0.28241 0.04063 0.65103 0.0
C664 C 0.34247 0.11817 0.65643 0.0
C665 C 0.32575 0.1603 0.66513 0.0
C666 C 0.24888 0.12507 0.66844 0.0
C667 C 0.0571 0.96356 0.71494 0.0
C668 C 0.01641 1.00057 0.71951 0.0
C669 C 0.0586 0.9528 0.7028 0.0
C670 C 0.0189 0.97819 0.69499 0.0
C671 C 0.978 0.01474 0.69954 0.0
C672 C 0.97652 0.02557 0.71163 0.0
C673 C 0.02263 0.96998 0.68214 0.0
C674 C 0.09859 1.00604 0.67843 0.0
C675 C 0.95206 0.93277 0.67358 0.0
C676 C 0.87014 0.88813 0.67694 0.0
C677 C 0.81112 0.90691 0.6732 0.0
C678 C 0.73456 0.86584 0.67657 0.0
C679 C 0.71617 0.80561 0.68363 0.0
C680 C 0.77417 0.78604 0.6873 0.0
C681 C 0.85074 0.82682 0.68395 0.0
H682 H 0.65695 0.77403 0.68626 0.0
H683 H 0.40203 0.14556 0.6539 0.0
loop_
_geom_bond_atom_site_label_1
_geom_bond_atom_site_label_2
_geom_bond_distance
_geom_bond_site_symmetry_2
_ccdc_geom_bond_type
C0 O2 1.247 . S
C0 O4 1.258 . S
C1 O8 1.247 . S
C1 O9 1.258 . S
O2 C0 1.247 . S
O2 Zn3 2.028 . S
Zn3 O2 2.028 . S
Zn3 O7 2.035 . S
Zn3 O9 2.035 . S
Zn3 O10 2.028 . S
O4 C0 1.258 . S
O4 Zn5 2.035 . S
Zn5 O4 2.035 . S
Zn5 O6 2.028 . S
Zn5 O8 2.028 . S
Zn5 O11 2.035 . S
O6 Zn5 2.028 . S
O6 C12 1.247 . S
O7 Zn3 2.035 . S
O7 C12 1.258 . S
O8 C1 1.247 . S
O8 Zn5 2.028 . S
O9 C1 1.258 . S
O9 Zn3 2.035 . S
O10 Zn3 2.028 . S
O10 C13 1.247 . S
O11 Zn5 2.035 . S
O11 C13 1.258 . S
C12 O6 1.247 . S
C12 O7 1.258 . S
C13 O10 1.247 . S
C13 O11 1.258 . S
C14 O16 1.247 1_545 S
C14 O18 1.258 . S
C15 O22 1.247 . S
C15 O23 1.258 1_545 S
O16 C14 1.247 1_565 S
O16 Zn17 2.028 . S
Zn17 O16 2.028 . S
Zn17 O21 2.035 . S
Zn17 O23 2.035 1_455 S
Zn17 O24 2.028 . S
O18 C14 1.258 . S
O18 Zn19 2.035 . S
Zn19 O18 2.035 . S
Zn19 O20 2.028 . S
Zn19 O22 2.028 1_455 S
Zn19 O25 2.035 . S
O20 Zn19 2.028 . S
O20 C26 1.247 . S
O21 Zn17 2.035 . S
O21 C26 1.258 1_565 S
O22 C15 1.247 . S
O22 Zn19 2.028 1_655 S
O23 C15 1.258 1_565 S
O23 Zn17 2.035 1_655 S
O24 Zn17 2.028 . S
O24 C27 1.247 1_565 S
O25 Zn19 2.035 . S
O25 C27 1.258 . S
C26 O20 1.247 . S
C26 O21 1.258 1_545 S
C27 O24 1.247 1_545 S
C27 O25 1.258 . S
C28 O30 1.247 1_455 S
C28 O32 1.258 . S
C29 O36 1.247 . S
C29 O37 1.258 1_455 S
O30 C28 1.247 1_655 S
O30 Zn31 2.028 . S
Zn31 O30 2.028 . S
Zn31 O35 2.035 1_655 S
Zn31 O37 2.035 . S
Zn31 O38 2.028 . S
O32 C28 1.258 . S
O32 Zn33 2.035 . S
Zn33 O32 2.035 . S
Zn33 O34 2.028 . S
Zn33 O36 2.028 . S
Zn33 O39 2.035 1_445 S
O34 Zn33 2.028 . S
O34 C40 1.247 . S
O35 Zn31 2.035 1_455 S
O35 C40 1.258 . S
O36 C29 1.247 . S
O36 Zn33 2.028 . S
O37 C29 1.258 1_655 S
O37 Zn31 2.035 . S
O38 Zn31 2.028 . S
O38 C41 1.247 1_545 S
O39 Zn33 2.035 1_665 S
O39 C41 1.258 . S
C40 O34 1.247 . S
C40 O35 1.258 . S
C41 O38 1.247 1_565 S
C41 O39 1.258 . S
C42 O44 1.247 . S
C42 O46 1.258 1_445 S
C43 O50 1.247 1_455 S
C43 O51 1.258 1_565 S
O44 C42 1.247 . S
O44 Zn45 2.028 . S
Zn45 O44 2.028 . S
Zn45 O49 2.035 . S
Zn45 O51 2.035 . S
Zn45 O52 2.028 1_455 S
O46 C42 1.258 1_665 S
O46 Zn47 2.035 . S
Zn47 O46 2.035 . S
Zn47 O48 2.028 1_655 S
Zn47 O50 2.028 . S
Zn47 O53 2.035 . S
O48 Zn47 2.028 1_455 S
O48 C54 1.244 1_565 S
O49 Zn45 2.035 . S
O49 C54 1.263 . S
O50 C43 1.247 1_655 S
O50 Zn47 2.028 . S
O51 C43 1.258 1_545 S
O51 Zn45 2.035 . S
O52 Zn45 2.028 1_655 S
O52 C55 1.253 . S
O53 Zn47 2.035 . S
O53 C55 1.247 1_565 S
C54 O48 1.244 1_545 S
C54 O49 1.263 . S
C55 O52 1.253 . S
C55 O53 1.247 1_545 S
C56 O58 1.247 . S
C56 O60 1.258 . S
C57 O64 1.247 . S
C57 O65 1.258 . S
O58 C56 1.247 . S
O58 Zn59 2.028 . S
Zn59 O58 2.028 . S
Zn59 O63 2.035 . S
Zn59 O65 2.035 . S
Zn59 O66 2.028 1_455 S
O60 C56 1.258 . S
O60 Zn61 2.035 . S
Zn61 O60 2.035 . S
Zn61 O62 2.028 . S
Zn61 O64 2.028 . S
Zn61 O67 2.035 1_455 S
O62 Zn61 2.028 . S
O62 C68 1.247 . S
O63 Zn59 2.035 . S
O63 C68 1.258 . S
O64 C57 1.247 . S
O64 Zn61 2.028 . S
O65 C57 1.258 . S
O65 Zn59 2.035 . S
O66 Zn59 2.028 1_655 S
O66 C69 1.247 . S
O67 Zn61 2.035 1_655 S
O67 C69 1.258 . S
C68 O62 1.247 . S
C68 O63 1.258 . S
C69 O66 1.247 . S
C69 O67 1.258 . S
C70 O72 1.247 . S
C70 O74 1.258 . S
C71 O78 1.247 . S
C71 O79 1.258 . S
O72 C70 1.247 . S
O72 Zn73 2.028 . S
Zn73 O72 2.028 . S
Zn73 O77 2.035 . S
Zn73 O79 2.035 . S
Zn73 O80 2.028 1_545 S
O74 C70 1.258 . S
O74 Zn75 2.035 . S
Zn75 O74 2.035 . S
Zn75 O76 2.028 . S
Zn75 O78 2.028 . S
Zn75 O81 2.035 . S
O76 Zn75 2.028 . S
O76 C82 1.247 . S
O77 Zn73 2.035 . S
O77 C82 1.258 . S
O78 C71 1.247 . S
O78 Zn75 2.028 . S
O79 C71 1.258 . S
O79 Zn73 2.035 . S
O80 Zn73 2.028 1_565 S
O80 C83 1.247 . S
O81 Zn75 2.035 . S
O81 C83 1.258 1_545 S
C82 O76 1.247 . S
C82 O77 1.258 . S
C83 O80 1.247 . S
C83 O81 1.258 1_565 S
H84 C102 0.951 . S
H85 C104 0.951 . S
H86 C106 0.950 . S
H87 C107 0.950 . S
H88 C109 0.950 . S
H89 C112 0.950 . S
H90 C113 0.950 . S
H91 C115 0.950 . S
H92 C116 0.950 . S
H93 C117 0.951 . S
H94 C119 0.951 . S
H95 C121 0.950 . S
H96 C122 0.950 . S
H97 C124 0.950 . S
H98 C127 0.950 . S
H99 C128 0.950 . S
H100 C130 0.950 . S
H101 C131 0.950 . S
C102 H84 0.951 . S
C102 C103 1.366 . S
C102 C104 1.388 . S
C103 C102 1.366 . S
C103 C107 1.385 . S
C104 H85 0.951 . S
C104 C102 1.388 . S
C104 C105 1.366 . S
C105 C104 1.366 . S
C105 C106 1.414 . S
C105 C108 1.499 . S
C106 H86 0.950 . S
C106 C105 1.414 . S
C106 C107 1.374 . S
C107 H87 0.950 . S
C107 C103 1.385 . S
C107 C106 1.374 . S
C108 C105 1.499 . S
C108 C109 1.373 . S
C108 C110 1.389 . S
C109 H88 0.950 . S
C109 C108 1.373 . S
C109 C125 1.377 . S
C110 C108 1.389 . S
C110 C111 1.524 . S
C110 C124 1.377 . S
C111 C110 1.524 . S
C111 C112 1.397 . S
C111 C116 1.363 . S
C112 H89 0.950 . S
C112 C111 1.397 . S
C112 C113 1.334 . S
C113 H90 0.950 . S
C113 C112 1.334 . S
C113 C114 1.287 . S
C114 C113 1.287 . S
C114 C115 1.524 . S
C114 H133 0.913 . S
C115 H91 0.950 . S
C115 C114 1.524 . S
C115 C116 1.415 . S
C116 H92 0.950 . S
C116 C111 1.363 . S
C116 C115 1.415 . S
C117 H93 0.951 . S
C117 C118 1.366 . S
C117 C119 1.388 . S
C118 C117 1.366 . S
C118 C122 1.385 . S
C119 H94 0.951 . S
C119 C117 1.388 . S
C119 C120 1.366 . S
C120 C119 1.366 . S
C120 C121 1.414 . S
C120 C123 1.499 . S
C121 H95 0.950 . S
C121 C120 1.414 . S
C121 C122 1.374 . S
C122 H96 0.950 . S
C122 C118 1.385 . S
C122 C121 1.374 . S
C123 C120 1.499 . S
C123 C124 1.373 . S
C123 C125 1.389 . S
C124 H97 0.950 . S
C124 C110 1.377 . S
C124 C123 1.373 . S
C125 C109 1.377 . S
C125 C123 1.389 . S
C125 C126 1.524 . S
C126 C125 1.524 . S
C126 C127 1.397 . S
C126 C131 1.363 . S
C127 H98 0.950 . S
C127 C126 1.397 . S
C127 C128 1.334 . S
C128 H99 0.950 . S
C128 C127 1.334 . S
C128 C129 1.287 . S
C129 C128 1.287 . S
C129 C130 1.524 . S
C129 H132 0.999 . S
C130 H100 0.950 . S
C130 C129 1.524 . S
C130 C131 1.415 . S
C131 H101 0.950 . S
C131 C126 1.363 . S
C131 C130 1.415 . S
H132 C129 0.999 . S
H133 C114 0.913 . S
H134 C152 0.951 . S
H135 C154 0.951 . S
H136 C156 0.950 . S
H137 C157 0.950 . S
H138 C159 0.950 . S
H139 C162 0.950 . S
H140 C163 0.950 . S
H141 C165 0.950 . S
H142 C166 0.950 . S
H143 C167 0.951 . S
H144 C169 0.951 . S
H145 C171 0.950 . S
H146 C172 0.950 . S
H147 C174 0.950 . S
H148 C177 0.950 . S
H149 C178 0.950 . S
H150 C180 0.950 . S
H151 C181 0.950 . S
C152 H134 0.951 . S
C152 C153 1.366 . S
C152 C154 1.388 . S
C153 C152 1.366 . S
C153 C157 1.385 1_545 S
C154 H135 0.951 . S
C154 C152 1.388 . S
C154 C155 1.366 . S
C155 C154 1.366 . S
C155 C156 1.414 1_545 S
C155 C158 1.499 . S
C156 H136 0.950 . S
C156 C155 1.414 1_565 S
C156 C157 1.374 . S
C157 H137 0.950 . S
C157 C153 1.385 1_565 S
C157 C156 1.374 . S
C158 C155 1.499 . S
C158 C159 1.373 1_545 S
C158 C160 1.389 . S
C159 H138 0.950 . S
C159 C158 1.373 1_565 S
C159 C175 1.377 . S
C160 C158 1.389 . S
C160 C161 1.524 . S
C160 C174 1.377 . S
C161 C160 1.524 . S
C161 C162 1.397 . S
C161 C166 1.363 . S
C162 H139 0.950 . S
C162 C161 1.397 . S
C162 C163 1.334 . S
C163 H140 0.950 . S
C163 C162 1.334 . S
C163 C164 1.287 . S
C164 C163 1.287 . S
C164 C165 1.524 . S
C164 H183 0.913 . S
C165 H141 0.950 . S
C165 C164 1.524 . S
C165 C166 1.415 . S
C166 H142 0.950 . S
C166 C161 1.363 . S
C166 C165 1.415 . S
C167 H143 0.951 . S
C167 C168 1.366 1_565 S
C167 C169 1.388 . S
C168 C167 1.366 1_545 S
C168 C172 1.385 . S
C169 H144 0.951 . S
C169 C167 1.388 . S
C169 C170 1.366 1_565 S
C170 C169 1.366 1_545 S
C170 C171 1.414 . S
C170 C173 1.499 . S
C171 H145 0.950 . S
C171 C170 1.414 . S
C171 C172 1.374 . S
C172 H146 0.950 . S
C172 C168 1.385 . S
C172 C171 1.374 . S
C173 C170 1.499 . S
C173 C174 1.373 . S
C173 C175 1.389 1_545 S
C174 H147 0.950 . S
C174 C160 1.377 . S
C174 C173 1.373 . S
C175 C159 1.377 . S
C175 C173 1.389 1_565 S
C175 C176 1.524 . S
C176 C175 1.524 . S
C176 C177 1.397 . S
C176 C181 1.363 . S
C177 H148 0.950 . S
C177 C176 1.397 . S
C177 C178 1.334 . S
C178 H149 0.950 . S
C178 C177 1.334 . S
C178 C179 1.287 . S
C179 C178 1.287 . S
C179 C180 1.524 . S
C179 H182 0.999 . S
C180 H150 0.950 . S
C180 C179 1.524 . S
C180 C181 1.415 . S
C181 H151 0.950 . S
C181 C176 1.363 . S
C181 C180 1.415 . S
H182 C179 0.999 . S
H183 C164 0.913 . S
H184 C202 0.951 . S
H185 C204 0.951 . S
H186 C206 0.950 . S
H187 C207 0.950 . S
H188 C209 0.950 . S
H189 C212 0.950 . S
H190 C213 0.950 . S
H191 C215 0.950 . S
H192 C216 0.950 . S
H193 C217 0.951 . S
H194 C219 0.951 . S
H195 C221 0.950 . S
H196 C222 0.950 . S
H197 C224 0.950 . S
H198 C227 0.950 . S
H199 C228 0.950 . S
H200 C230 0.950 . S
H201 C231 0.950 . S
C202 H184 0.951 . S
C202 C203 1.366 . S
C202 C204 1.388 . S
C203 C202 1.366 . S
C203 C207 1.385 . S
C204 H185 0.951 . S
C204 C202 1.388 . S
C204 C205 1.366 . S
C205 C204 1.366 . S
C205 C206 1.414 . S
C205 C208 1.499 . S
C206 H186 0.950 . S
C206 C205 1.414 . S
C206 C207 1.374 . S
C207 H187 0.950 . S
C207 C203 1.385 . S
C207 C206 1.374 . S
C208 C205 1.499 . S
C208 C209 1.373 . S
C208 C210 1.389 . S
C209 H188 0.950 . S
C209 C208 1.373 . S
C209 C225 1.377 . S
C210 C208 1.389 . S
C210 C211 1.524 . S
C210 C224 1.377 . S
C211 C210 1.524 . S
C211 C212 1.397 . S
C211 C216 1.363 . S
C212 H189 0.950 . S
C212 C211 1.397 . S
C212 C213 1.334 . S
C213 H190 0.950 . S
C213 C212 1.334 . S
C213 C214 1.287 . S
C214 C213 1.287 . S
C214 C215 1.524 . S
C214 H233 0.913 . S
C215 H191 0.950 . S
C215 C214 1.524 . S
C215 C216 1.415 . S
C216 H192 0.950 . S
C216 C211 1.363 . S
C216 C215 1.415 . S
C217 H193 0.951 . S
C217 C218 1.366 . S
C217 C219 1.388 . S
C218 C217 1.366 . S
C218 C222 1.385 . S
C219 H194 0.951 . S
C219 C217 1.388 . S
C219 C220 1.366 . S
C220 C219 1.366 . S
C220 C221 1.414 . S
C220 C223 1.499 . S
C221 H195 0.950 . S
C221 C220 1.414 . S
C221 C222 1.374 . S
C222 H196 0.950 . S
C222 C218 1.385 . S
C222 C221 1.374 . S
C223 C220 1.499 . S
C223 C224 1.373 . S
C223 C225 1.389 . S
C224 H197 0.950 . S
C224 C210 1.377 . S
C224 C223 1.373 . S
C225 C209 1.377 . S
C225 C223 1.389 . S
C225 C226 1.524 . S
C226 C225 1.524 . S
C226 C227 1.397 . S
C226 C231 1.363 . S
C227 H198 0.950 . S
C227 C226 1.397 . S
C227 C228 1.334 . S
C228 H199 0.950 . S
C228 C227 1.334 . S
C228 C229 1.287 . S
C229 C228 1.287 . S
C229 C230 1.524 . S
C229 H232 0.999 . S
C230 H200 0.950 . S
C230 C229 1.524 . S
C230 C231 1.415 . S
C231 H201 0.950 . S
C231 C226 1.363 . S
C231 C230 1.415 . S
H232 C229 0.999 . S
H233 C214 0.913 . S
H234 C252 0.951 . S
H235 C254 0.951 . S
H236 C256 0.950 . S
H237 C257 0.950 . S
H238 C259 0.950 . S
H239 C262 0.950 . S
H240 C263 0.950 . S
H241 C265 0.950 . S
H242 C266 0.950 . S
H243 C267 0.951 . S
H244 C269 0.951 . S
H245 C271 0.950 . S
H246 C272 0.950 . S
H247 C274 0.950 . S
H248 C277 0.950 . S
H249 C278 0.950 . S
H250 C280 0.950 . S
H251 C281 0.950 . S
C252 H234 0.951 . S
C252 C253 1.363 1_565 S
C252 C254 1.388 . S
C253 C252 1.363 1_545 S
C253 C257 1.381 . S
C254 H235 0.951 . S
C254 C252 1.388 . S
C254 C255 1.366 . S
C255 C254 1.366 . S
C255 C256 1.414 1_565 S
C255 C258 1.499 . S
C256 H236 0.950 . S
C256 C255 1.414 1_545 S
C256 C257 1.374 . S
C257 H237 0.950 . S
C257 C253 1.381 . S
C257 C256 1.374 . S
C258 C255 1.499 . S
C258 C259 1.373 1_565 S
C258 C260 1.389 . S
C259 H238 0.950 . S
C259 C258 1.373 1_545 S
C259 C275 1.377 . S
C260 C258 1.389 . S
C260 C261 1.524 . S
C260 C274 1.377 . S
C261 C260 1.524 . S
C261 C262 1.397 . S
C261 C266 1.363 . S
C262 H239 0.950 . S
C262 C261 1.397 . S
C262 C263 1.334 . S
C263 H240 0.950 . S
C263 C262 1.334 . S
C263 C264 1.287 . S
C264 C263 1.287 . S
C264 C265 1.524 . S
C264 H283 0.913 . S
C265 H241 0.950 . S
C265 C264 1.524 . S
C265 C266 1.415 . S
C266 H242 0.950 . S
C266 C261 1.363 . S
C266 C265 1.415 . S
C267 H243 0.951 . S
C267 C268 1.367 . S
C267 C269 1.388 . S
C268 C267 1.367 . S
C268 C272 1.386 1_545 S
C269 H244 0.951 . S
C269 C267 1.388 . S
C269 C270 1.366 . S
C270 C269 1.366 . S
C270 C271 1.414 1_545 S
C270 C273 1.499 . S
C271 H245 0.950 . S
C271 C270 1.414 1_565 S
C271 C272 1.374 . S
C272 H246 0.950 . S
C272 C268 1.386 1_565 S
C272 C271 1.374 . S
C273 C270 1.499 . S
C273 C274 1.373 1_545 S
C273 C275 1.389 . S
C274 H247 0.950 . S
C274 C260 1.377 . S
C274 C273 1.373 1_565 S
C275 C259 1.377 . S
C275 C273 1.389 . S
C275 C276 1.524 . S
C276 C275 1.524 . S
C276 C277 1.397 . S
C276 C281 1.363 . S
C277 H248 0.950 . S
C277 C276 1.397 . S
C277 C278 1.334 . S
C278 H249 0.950 . S
C278 C277 1.334 . S
C278 C279 1.287 . S
C279 C278 1.287 . S
C279 C280 1.524 . S
C279 H282 0.999 . S
C280 H250 0.950 . S
C280 C279 1.524 . S
C280 C281 1.415 . S
C281 H251 0.950 . S
C281 C276 1.363 . S
C281 C280 1.415 . S
H282 C279 0.999 . S
H283 C264 0.913 . S
H284 C302 0.951 . S
H285 C304 0.951 . S
H286 C306 0.950 . S
H287 C307 0.950 . S
H288 C309 0.950 . S
H289 C312 0.950 . S
H290 C313 0.950 . S
H291 C315 0.950 . S
H292 C316 0.950 . S
H293 C317 0.951 . S
H294 C319 0.951 . S
H295 C321 0.950 . S
H296 C322 0.950 . S
H297 C324 0.950 . S
H298 C327 0.950 . S
H299 C328 0.950 . S
H300 C330 0.950 . S
H301 C331 0.950 . S
C302 H284 0.951 . S
C302 C303 1.366 . S
C302 C304 1.388 . S
C303 C302 1.366 . S
C303 C307 1.385 . S
C304 H285 0.951 . S
C304 C302 1.388 . S
C304 C305 1.366 . S
C305 C304 1.366 . S
C305 C306 1.414 . S
C305 C308 1.499 . S
C306 H286 0.950 . S
C306 C305 1.414 . S
C306 C307 1.374 . S
C307 H287 0.950 . S
C307 C303 1.385 . S
C307 C306 1.374 . S
C308 C305 1.499 . S
C308 C309 1.373 . S
C308 C310 1.389 . S
C309 H288 0.950 . S
C309 C308 1.373 . S
C309 C325 1.377 . S
C310 C308 1.389 . S
C310 C311 1.524 . S
C310 C324 1.377 . S
C311 C310 1.524 . S
C311 C312 1.397 . S
C311 C316 1.363 . S
C312 H289 0.950 . S
C312 C311 1.397 . S
C312 C313 1.334 . S
C313 H290 0.950 . S
C313 C312 1.334 . S
C313 C314 1.287 . S
C314 C313 1.287 . S
C314 C315 1.524 . S
C314 H333 0.913 . S
C315 H291 0.950 . S
C315 C314 1.524 . S
C315 C316 1.415 . S
C316 H292 0.950 . S
C316 C311 1.363 . S
C316 C315 1.415 . S
C317 H293 0.951 . S
C317 C318 1.366 . S
C317 C319 1.388 . S
C318 C317 1.366 . S
C318 C322 1.385 . S
C319 H294 0.951 . S
C319 C317 1.388 . S
C319 C320 1.366 . S
C320 C319 1.366 . S
C320 C321 1.414 . S
C320 C323 1.499 . S
C321 H295 0.950 . S
C321 C320 1.414 . S
C321 C322 1.374 . S
C322 H296 0.950 . S
C322 C318 1.385 . S
C322 C321 1.374 . S
C323 C320 1.499 . S
C323 C324 1.373 . S
C323 C325 1.389 . S
C324 H297 0.950 . S
C324 C310 1.377 . S
C324 C323 1.373 . S
C325 C309 1.377 . S
C325 C323 1.389 . S
C325 C326 1.524 . S
C326 C325 1.524 . S
C326 C327 1.397 . S
C326 C331 1.363 . S
C327 H298 0.950 . S
C327 C326 1.397 . S
C327 C328 1.334 . S
C328 H299 0.950 . S
C328 C327 1.334 . S
C328 C329 1.287 . S
C329 C328 1.287 . S
C329 C330 1.524 . S
C329 H332 0.999 . S
C330 H300 0.950 . S
C330 C329 1.524 . S
C330 C331 1.415 . S
C331 H301 0.950 . S
C331 C326 1.363 . S
C331 C330 1.415 . S
H332 C329 0.999 . S
H333 C314 0.913 . S
H334 C352 0.951 . S
H335 C354 0.951 . S
H336 C356 0.950 . S
H337 C357 0.950 . S
H338 C359 0.950 . S
H339 C362 0.950 . S
H340 C363 0.950 . S
H341 C365 0.950 . S
H342 C366 0.950 . S
H343 C367 0.951 . S
H344 C369 0.951 . S
H345 C371 0.950 . S
H346 C372 0.950 . S
H347 C374 0.950 . S
H348 C377 0.950 . S
H349 C378 0.950 . S
H350 C380 0.950 . S
H351 C381 0.950 . S
C352 H334 0.951 . S
C352 C353 1.366 . S
C352 C354 1.388 . S
C353 C352 1.366 . S
C353 C357 1.385 . S
C354 H335 0.951 . S
C354 C352 1.388 . S
C354 C355 1.366 . S
C355 C354 1.366 . S
C355 C356 1.414 . S
C355 C358 1.499 . S
C356 H336 0.950 . S
C356 C355 1.414 . S
C356 C357 1.374 . S
C357 H337 0.950 . S
C357 C353 1.385 . S
C357 C356 1.374 . S
C358 C355 1.499 . S
C358 C359 1.373 . S
C358 C360 1.389 . S
C359 H338 0.950 . S
C359 C358 1.373 . S
C359 C375 1.377 . S
C360 C358 1.389 . S
C360 C361 1.524 . S
C360 C374 1.377 . S
C361 C360 1.524 . S
C361 C362 1.397 . S
C361 C366 1.363 . S
C362 H339 0.950 . S
C362 C361 1.397 . S
C362 C363 1.334 . S
C363 H340 0.950 . S
C363 C362 1.334 . S
C363 C364 1.287 . S
C364 C363 1.287 . S
C364 C365 1.524 . S
C364 H383 0.913 . S
C365 H341 0.950 . S
C365 C364 1.524 . S
C365 C366 1.415 . S
C366 H342 0.950 . S
C366 C361 1.363 . S
C366 C365 1.415 . S
C367 H343 0.951 . S
C367 C368 1.366 . S
C367 C369 1.388 . S
C368 C367 1.366 . S
C368 C372 1.385 . S
C369 H344 0.951 . S
C369 C367 1.388 . S
C369 C370 1.366 . S
C370 C369 1.366 . S
C370 C371 1.414 . S
C370 C373 1.499 . S
C371 H345 0.950 . S
C371 C370 1.414 . S
C371 C372 1.374 . S
C372 H346 0.950 . S
C372 C368 1.385 . S
C372 C371 1.374 . S
C373 C370 1.499 . S
C373 C374 1.373 . S
C373 C375 1.389 . S
C374 H347 0.950 . S
C374 C360 1.377 . S
C374 C373 1.373 . S
C375 C359 1.377 . S
C375 C373 1.389 . S
C375 C376 1.524 . S
C376 C375 1.524 . S
C376 C377 1.397 . S
C376 C381 1.363 1_455 S
C377 H348 0.950 . S
C377 C376 1.397 . S
C377 C378 1.334 . S
C378 H349 0.950 . S
C378 C377 1.334 . S
C378 C379 1.287 1_455 S
C379 C378 1.287 1_655 S
C379 C380 1.524 . S
C379 H382 0.999 . S
C380 H350 0.950 . S
C380 C379 1.524 . S
C380 C381 1.415 . S
C381 H351 0.950 . S
C381 C376 1.363 1_655 S
C381 C380 1.415 . S
H382 C379 0.999 . S
H383 C364 0.913 . S
H384 C402 0.951 . S
H385 C404 0.951 . S
H386 C406 0.950 . S
H387 C407 0.950 . S
H388 C409 0.950 . S
H389 C412 0.937 1_465 S
H390 C413 0.950 . S
H391 C415 0.950 . S
H392 C416 0.950 . S
H393 C417 0.951 . S
H394 C419 0.951 . S
H395 C421 0.950 . S
H396 C422 0.950 . S
H397 C424 0.950 . S
H398 C427 0.950 . S
H399 C428 0.950 . S
H400 C430 0.950 . S
H401 C431 0.950 . S
C402 H384 0.951 . S
C402 C403 1.366 . S
C402 C404 1.388 . S
C403 C402 1.366 . S
C403 C407 1.385 . S
C404 H385 0.951 . S
C404 C402 1.388 . S
C404 C405 1.366 . S
C405 C404 1.366 . S
C405 C406 1.414 . S
C405 C408 1.499 . S
C406 H386 0.950 . S
C406 C405 1.414 . S
C406 C407 1.374 . S
C407 H387 0.950 . S
C407 C403 1.385 . S
C407 C406 1.374 . S
C408 C405 1.499 . S
C408 C409 1.373 . S
C408 C410 1.389 . S
C409 H388 0.950 . S
C409 C408 1.373 . S
C409 C425 1.377 . S
C410 C408 1.389 . S
C410 C411 1.524 . S
C410 C424 1.377 . S
C411 C410 1.524 . S
C411 C412 1.397 1_455 S
C411 C416 1.363 1_455 S
C412 H389 0.937 1_645 S
C412 C411 1.397 1_655 S
C412 C413 1.334 1_545 S
C413 H390 0.950 . S
C413 C412 1.334 1_565 S
C413 C414 1.287 1_565 S
C414 C413 1.287 1_545 S
C414 C415 1.524 . S
C414 H433 0.913 . S
C415 H391 0.950 . S
C415 C414 1.524 . S
C415 C416 1.415 . S
C416 H392 0.950 . S
C416 C411 1.363 1_655 S
C416 C415 1.415 . S
C417 H393 0.951 . S
C417 C418 1.366 . S
C417 C419 1.388 . S
C418 C417 1.366 . S
C418 C422 1.385 . S
C419 H394 0.951 . S
C419 C417 1.388 . S
C419 C420 1.366 . S
C420 C419 1.366 . S
C420 C421 1.414 . S
C420 C423 1.499 . S
C421 H395 0.950 . S
C421 C420 1.414 . S
C421 C422 1.374 . S
C422 H396 0.950 . S
C422 C418 1.385 . S
C422 C421 1.374 . S
C423 C420 1.499 . S
C423 C424 1.373 . S
C423 C425 1.389 . S
C424 H397 0.950 . S
C424 C410 1.377 . S
C424 C423 1.373 . S
C425 C409 1.377 . S
C425 C423 1.389 . S
C425 C426 1.524 . S
C426 C425 1.524 . S
C426 C427 1.397 . S
C426 C431 1.363 . S
C427 H398 0.950 . S
C427 C426 1.397 . S
C427 C428 1.334 . S
C428 H399 0.950 . S
C428 C427 1.334 . S
C428 C429 1.287 . S
C429 C428 1.287 . S
C429 C430 1.524 . S
C429 H432 0.999 . S
C430 H400 0.950 . S
C430 C429 1.524 . S
C430 C431 1.415 . S
C431 H401 0.950 . S
C431 C426 1.363 . S
C431 C430 1.415 . S
H432 C429 0.999 . S
H433 C414 0.913 . S
H434 C452 0.951 . S
H435 C454 0.951 . S
H436 C456 0.950 . S
H437 C457 0.950 . S
H438 C459 0.950 . S
H439 C462 0.950 . S
H440 C463 0.950 . S
H441 C465 0.950 . S
H442 C466 0.950 . S
H443 C467 0.951 . S
H444 C469 0.951 . S
H445 C471 0.950 . S
H446 C472 0.950 . S
H447 C474 0.950 . S
H448 C477 0.950 . S
H449 C478 0.950 . S
H450 C480 0.950 . S
H451 C481 0.950 . S
C452 H434 0.951 . S
C452 C453 1.366 . S
C452 C454 1.388 . S
C453 C452 1.366 . S
C453 C457 1.385 1_565 S
C454 H435 0.951 . S
C454 C452 1.388 . S
C454 C455 1.366 . S
C455 C454 1.366 . S
C455 C456 1.414 1_565 S
C455 C458 1.499 1_565 S
C456 H436 0.950 . S
C456 C455 1.414 1_545 S
C456 C457 1.374 . S
C457 H437 0.950 . S
C457 C453 1.385 1_545 S
C457 C456 1.374 . S
C458 C455 1.499 1_545 S
C458 C459 1.373 1_455 S
C458 C460 1.389 1_545 S
C459 H438 0.950 . S
C459 C458 1.373 1_655 S
C459 C475 1.376 . S
C460 C458 1.389 1_565 S
C460 C461 1.524 . S
C460 C474 1.377 . S
C461 C460 1.524 . S
C461 C462 1.397 1_565 S
C461 C466 1.363 . S
C462 H439 0.950 . S
C462 C461 1.397 1_545 S
C462 C463 1.334 . S
C463 H440 0.950 . S
C463 C462 1.334 . S
C463 C464 1.287 . S
C464 C463 1.287 . S
C464 C465 1.524 1_545 S
C464 H483 0.913 . S
C465 H441 0.950 . S
C465 C464 1.524 1_565 S
C465 C466 1.415 . S
C466 H442 0.950 . S
C466 C461 1.363 . S
C466 C465 1.415 . S
C467 H443 0.951 . S
C467 C468 1.366 . S
C467 C469 1.388 . S
C468 C467 1.366 . S
C468 C472 1.385 1_545 S
C469 H444 0.951 . S
C469 C467 1.388 . S
C469 C470 1.366 1_545 S
C470 C469 1.366 1_565 S
C470 C471 1.414 . S
C470 C473 1.499 . S
C471 H445 0.950 . S
C471 C470 1.414 . S
C471 C472 1.374 . S
C472 H446 0.950 . S
C472 C468 1.385 1_565 S
C472 C471 1.374 . S
C473 C470 1.499 . S
C473 C474 1.373 . S
C473 C475 1.385 1_465 S
C474 H447 0.950 . S
C474 C460 1.377 . S
C474 C473 1.373 . S
C475 C459 1.376 . S
C475 C473 1.385 1_645 S
C475 C476 1.529 1_545 S
C476 C475 1.529 1_565 S
C476 C477 1.397 . S
C476 C481 1.363 1_565 S
C477 H448 0.950 . S
C477 C476 1.397 . S
C477 C478 1.334 . S
C478 H449 0.950 . S
C478 C477 1.334 . S
C478 C479 1.287 . S
C479 C478 1.287 . S
C479 C480 1.524 1_565 S
C479 H482 0.999 . S
C480 H450 0.950 . S
C480 C479 1.524 1_545 S
C480 C481 1.415 . S
C481 H451 0.950 . S
C481 C476 1.363 1_545 S
C481 C480 1.415 . S
H482 C479 0.999 . S
H483 C464 0.913 . S
H484 C502 0.951 . S
H485 C504 0.951 . S
H486 C506 0.950 1_565 S
H487 C507 0.950 1_565 S
H488 C509 0.950 . S
H489 C512 0.950 . S
H490 C513 0.950 . S
H491 C515 0.950 . S
H492 C516 0.950 . S
H493 C517 0.951 . S
H494 C519 0.951 . S
H495 C521 0.950 . S
H496 C522 0.950 . S
H497 C524 0.950 . S
H498 C527 0.950 . S
H499 C528 0.950 . S
H500 C530 0.950 . S
H501 C531 0.950 . S
C502 H484 0.951 . S
C502 C503 1.366 . S
C502 C504 1.388 . S
C503 C502 1.366 . S
C503 C507 1.385 1_455 S
C504 H485 0.951 . S
C504 C502 1.388 . S
C504 C505 1.366 . S
C505 C504 1.366 . S
C505 C506 1.414 1_455 S
C505 C508 1.499 . S
C506 H486 0.950 1_545 S
C506 C505 1.414 1_655 S
C506 C507 1.374 . S
C507 H487 0.950 1_545 S
C507 C503 1.385 1_655 S
C507 C506 1.374 . S
C508 C505 1.499 . S
C508 C509 1.373 1_455 S
C508 C510 1.389 . S
C509 H488 0.950 . S
C509 C508 1.373 1_655 S
C509 C525 1.377 . S
C510 C508 1.389 . S
C510 C511 1.524 . S
C510 C524 1.377 . S
C511 C510 1.524 . S
C511 C512 1.397 . S
C511 C516 1.363 . S
C512 H489 0.950 . S
C512 C511 1.397 . S
C512 C513 1.334 . S
C513 H490 0.950 . S
C513 C512 1.334 . S
C513 C514 1.287 . S
C514 C513 1.287 . S
C514 C515 1.524 . S
C514 H533 0.913 . S
C515 H491 0.950 . S
C515 C514 1.524 . S
C515 C516 1.415 . S
C516 H492 0.950 . S
C516 C511 1.363 . S
C516 C515 1.415 . S
C517 H493 0.951 . S
C517 C518 1.366 1_655 S
C517 C519 1.388 . S
C518 C517 1.366 1_455 S
C518 C522 1.385 . S
C519 H494 0.951 . S
C519 C517 1.388 . S
C519 C520 1.366 1_655 S
C520 C519 1.366 1_455 S
C520 C521 1.414 . S
C520 C523 1.499 . S
C521 H495 0.950 . S
C521 C520 1.414 . S
C521 C522 1.374 . S
C522 H496 0.950 . S
C522 C518 1.385 . S
C522 C521 1.374 . S
C523 C520 1.499 . S
C523 C524 1.373 . S
C523 C525 1.389 1_455 S
C524 H497 0.950 . S
C524 C510 1.377 . S
C524 C523 1.373 . S
C525 C509 1.377 . S
C525 C523 1.389 1_655 S
C525 C526 1.524 . S
C526 C525 1.524 . S
C526 C527 1.397 . S
C526 C531 1.363 1_545 S
C527 H498 0.950 . S
C527 C526 1.397 . S
C527 C528 1.334 . S
C528 H499 0.950 . S
C528 C527 1.334 . S
C528 C529 1.287 . S
C529 C528 1.287 . S
C529 C530 1.524 1_545 S
C529 H532 0.999 1_545 S
C530 H500 0.950 . S
C530 C529 1.524 1_565 S
C530 C531 1.415 . S
C531 H501 0.950 . S
C531 C526 1.363 1_565 S
C531 C530 1.415 . S
H532 C529 0.999 1_565 S
H533 C514 0.913 . S
H534 C552 0.951 . S
H535 C554 0.951 . S
H536 C556 0.950 . S
H537 C557 0.950 . S
H538 C559 0.950 . S
H539 C562 0.950 . S
H540 C563 0.950 . S
H541 C565 0.950 . S
H542 C566 0.955 . S
H543 C567 0.951 . S
H544 C569 0.951 . S
H545 C571 0.950 1_655 S
H546 C572 0.950 1_655 S
H547 C574 0.950 1_655 S
H548 C577 0.950 . S
H549 C578 0.950 . S
H550 C580 0.950 . S
H551 C581 0.950 1_554 S
C552 H534 0.951 . S
C552 C553 1.366 . S
C552 C554 1.388 . S
C553 C552 1.366 . S
C553 C557 1.385 . S
C554 H535 0.951 . S
C554 C552 1.388 . S
C554 C555 1.366 . S
C555 C554 1.366 . S
C555 C556 1.414 . S
C555 C558 1.499 . S
C556 H536 0.950 . S
C556 C555 1.414 . S
C556 C557 1.374 . S
C557 H537 0.950 . S
C557 C553 1.385 . S
C557 C556 1.374 . S
C558 C555 1.499 . S
C558 C559 1.373 . S
C558 C560 1.389 . S
C559 H538 0.950 . S
C559 C558 1.373 . S
C559 C575 1.377 1_554 S
C560 C558 1.389 . S
C560 C561 1.524 1_455 S
C560 C574 1.377 1_554 S
C561 C560 1.524 1_655 S
C561 C562 1.397 1_645 S
C561 C566 1.363 1_545 S
C562 H539 0.950 . S
C562 C561 1.397 1_465 S
C562 C563 1.334 1_455 S
C563 H540 0.950 . S
C563 C562 1.334 1_655 S
C563 C564 1.287 . S
C564 C563 1.287 . S
C564 C565 1.524 . S
C564 H583 0.913 . S
C565 H541 0.950 . S
C565 C564 1.524 . S
C565 C566 1.415 . S
C566 H542 0.955 . S
C566 C561 1.363 1_565 S
C566 C565 1.415 . S
C567 H543 0.951 . S
C567 C568 1.366 . S
C567 C569 1.388 . S
C568 C567 1.366 . S
C568 C572 1.385 . S
C569 H544 0.951 . S
C569 C567 1.388 . S
C569 C570 1.366 . S
C570 C569 1.366 . S
C570 C571 1.414 . S
C570 C573 1.499 . S
C571 H545 0.950 1_455 S
C571 C570 1.414 . S
C571 C572 1.374 . S
C572 H546 0.950 1_455 S
C572 C568 1.385 . S
C572 C571 1.374 . S
C573 C570 1.499 . S
C573 C574 1.373 . S
C573 C575 1.389 . S
C574 H547 0.950 1_455 S
C574 C560 1.377 1_556 S
C574 C573 1.373 . S
C575 C559 1.377 1_556 S
C575 C573 1.389 . S
C575 C576 1.524 . S
C576 C575 1.524 . S
C576 C577 1.397 . S
C576 C581 1.363 . S
C577 H548 0.950 . S
C577 C576 1.397 . S
C577 C578 1.334 . S
C578 H549 0.950 . S
C578 C577 1.334 . S
C578 C579 1.287 . S
C579 C578 1.287 . S
C579 C580 1.524 . S
C579 H582 0.999 . S
C580 H550 0.950 . S
C580 C579 1.524 . S
C580 C581 1.415 . S
C581 H551 0.950 1_556 S
C581 C576 1.363 . S
C581 C580 1.415 . S
H582 C579 0.999 . S
H583 C564 0.913 . S
H584 C602 0.951 1_565 S
H585 C604 0.951 1_565 S
H586 C606 0.950 . S
H587 C607 0.950 . S
H588 C609 0.950 . S
H589 C612 0.950 . S
H590 C613 0.950 . S
H591 C615 0.950 . S
H592 C616 0.950 . S
H593 C617 0.951 . S
H594 C619 0.951 . S
H595 C621 0.950 . S
H596 C622 0.948 1_655 S
H597 C624 0.950 1_665 S
H598 C627 0.950 . S
H599 C628 0.950 . S
H600 C630 0.950 . S
H601 C631 0.950 . S
C602 H584 0.951 1_545 S
C602 C603 1.366 . S
C602 C604 1.388 . S
C603 C602 1.366 . S
C603 C607 1.385 . S
C604 H585 0.951 1_545 S
C604 C602 1.388 . S
C604 C605 1.366 . S
C605 C604 1.366 . S
C605 C606 1.414 . S
C605 C608 1.499 . S
C606 H586 0.950 . S
C606 C605 1.414 . S
C606 C607 1.374 . S
C607 H587 0.950 . S
C607 C603 1.385 . S
C607 C606 1.374 . S
C608 C605 1.499 . S
C608 C609 1.373 . S
C608 C610 1.389 . S
C609 H588 0.950 . S
C609 C608 1.373 . S
C609 C625 1.377 . S
C610 C608 1.389 . S
C610 C611 1.524 1_445 S
C610 C624 1.377 . S
C611 C610 1.524 1_665 S
C611 C612 1.397 1_565 S
C611 C616 1.363 . S
C612 H589 0.950 . S
C612 C611 1.397 1_545 S
C612 C613 1.334 . S
C613 H590 0.950 . S
C613 C612 1.334 . S
C613 C614 1.287 1_545 S
C614 C613 1.287 1_565 S
C614 C615 1.524 . S
C614 H633 0.913 . S
C615 H591 0.950 . S
C615 C614 1.524 . S
C615 C616 1.415 . S
C616 H592 0.950 . S
C616 C611 1.363 . S
C616 C615 1.415 . S
C617 H593 0.951 . S
C617 C618 1.366 . S
C617 C619 1.388 . S
C618 C617 1.366 . S
C618 C622 1.385 1_545 S
C619 H594 0.951 . S
C619 C617 1.388 . S
C619 C620 1.366 . S
C620 C619 1.366 . S
C620 C621 1.414 1_545 S
C620 C623 1.499 . S
C621 H595 0.950 . S
C621 C620 1.414 1_565 S
C621 C622 1.374 . S
C622 H596 0.948 1_455 S
C622 C618 1.385 1_565 S
C622 C621 1.374 . S
C623 C620 1.499 . S
C623 C624 1.373 . S
C623 C625 1.389 . S
C624 H597 0.950 1_445 S
C624 C610 1.377 . S
C624 C623 1.373 . S
C625 C609 1.377 . S
C625 C623 1.389 . S
C625 C626 1.524 . S
C626 C625 1.524 . S
C626 C627 1.397 . S
C626 C631 1.363 . S
C627 H598 0.950 . S
C627 C626 1.397 . S
C627 C628 1.334 . S
C628 H599 0.950 . S
C628 C627 1.334 . S
C628 C629 1.287 . S
C629 C628 1.287 . S
C629 C630 1.524 . S
C629 H632 0.999 . S
C630 H600 0.950 . S
C630 C629 1.524 . S
C630 C631 1.415 . S
C631 H601 0.950 . S
C631 C626 1.363 . S
C631 C630 1.415 . S
H632 C629 0.999 . S
H633 C614 0.913 . S
H634 C652 0.951 . S
H635 C654 0.951 . S
H636 C656 0.950 . S
H637 C657 0.950 . S
H638 C659 0.950 1_565 S
H639 C662 0.950 1_565 S
H640 C663 0.950 1_565 S
H641 C665 0.950 . S
H642 C666 0.950 . S
H643 C667 0.951 1_565 S
H644 C669 0.951 . S
H645 C671 0.950 . S
H646 C672 0.950 . S
H647 C674 0.950 . S
H648 C677 0.950 . S
H649 C678 0.950 . S
H650 C680 0.950 . S
H651 C681 0.950 . S
C652 H634 0.951 . S
C652 C653 1.366 . S
C652 C654 1.388 . S
C653 C652 1.366 . S
C653 C657 1.385 1_445 S
C654 H635 0.951 . S
C654 C652 1.388 . S
C654 C655 1.366 . S
C655 C654 1.366 . S
C655 C656 1.414 1_445 S
C655 C658 1.499 . S
C656 H636 0.950 . S
C656 C655 1.414 1_665 S
C656 C657 1.374 . S
C657 H637 0.950 . S
C657 C653 1.385 1_665 S
C657 C656 1.374 . S
C658 C655 1.499 . S
C658 C659 1.373 1_455 S
C658 C660 1.389 . S
C659 H638 0.950 1_545 S
C659 C658 1.373 1_655 S
C659 C675 1.377 . S
C660 C658 1.389 . S
C660 C661 1.524 . S
C660 C674 1.377 . S
C661 C660 1.524 . S
C661 C662 1.397 . S
C661 C666 1.363 . S
C662 H639 0.950 1_545 S
C662 C661 1.397 . S
C662 C663 1.334 . S
C663 H640 0.950 1_545 S
C663 C662 1.334 . S
C663 C664 1.287 . S
C664 C663 1.287 . S
C664 C665 1.524 . S
C664 H683 0.913 . S
C665 H641 0.950 . S
C665 C664 1.524 . S
C665 C666 1.415 . S
C666 H642 0.950 . S
C666 C661 1.363 . S
C666 C665 1.415 . S
C667 H643 0.951 1_545 S
C667 C668 1.366 1_655 S
C667 C669 1.388 1_545 S
C668 C667 1.366 1_455 S
C668 C672 1.385 . S
C669 H644 0.951 . S
C669 C667 1.388 1_565 S
C669 C670 1.366 1_665 S
C670 C669 1.366 1_445 S
C670 C671 1.414 . S
C670 C673 1.499 . S
C671 H645 0.950 . S
C671 C670 1.414 . S
C671 C672 1.374 . S
C672 H646 0.950 . S
C672 C668 1.385 . S
C672 C671 1.374 . S
C673 C670 1.499 . S
C673 C674 1.373 . S
C673 C675 1.389 1_455 S
C674 H647 0.950 . S
C674 C660 1.377 . S
C674 C673 1.373 . S
C675 C659 1.377 . S
C675 C673 1.389 1_655 S
C675 C676 1.524 . S
C676 C675 1.524 . S
C676 C677 1.397 . S
C676 C681 1.363 1_545 S
C677 H648 0.950 . S
C677 C676 1.397 . S
C677 C678 1.334 . S
C678 H649 0.950 . S
C678 C677 1.334 . S
C678 C679 1.287 . S
C679 C678 1.287 . S
C679 C680 1.524 1_545 S
C679 H682 0.999 1_545 S
C680 H650 0.950 . S
C680 C679 1.524 1_565 S
C680 C681 1.415 . S
C681 H651 0.950 . S
C681 C676 1.363 1_565 S
C681 C680 1.415 . S
H682 C679 0.999 1_565 S
H683 C664 0.913 . S
C103 C0 1.498 1_565 S
C118 C1 1.498 . S
C153 C14 1.499 . S
C168 C15 1.499 . S
C203 C41 1.499 . S
C218 C40 1.499 . S
C253 C54 1.502 . S
C268 C55 1.502 . S
C303 C68 1.499 . S
C318 C69 1.499 1_565 S
C353 C82 1.498 . S
C368 C83 1.498 . S
C403 C71 1.505 . S
C418 C13 1.505 . S
C453 C43 1.505 . S
C468 C26 1.505 . S
C503 C28 1.506 . S
C518 C57 1.505 . S
C553 C12 1.508 . S
C568 C56 1.508 . S
C603 C70 1.506 . S
C618 C27 1.506 . S
C653 C42 1.505 . S
C668 C29 1.505 . S
