# Generated by pormake.
# Topology uol, (4)-cn, num edge types: 1
# Building blocks:
#     Node 0, Type 0, BuildingBlock: TATPOV_clean_sbu_0, # of connection points: 4
#     Node 1, Type 0, BuildingBlock: TATPOV_clean_sbu_0, # of connection points: 4
#     Node 2, Type 0, BuildingBlock: TATPOV_clean_sbu_0, # of connection points: 4
#     Node 3, Type 0, BuildingBlock: TATPOV_clean_sbu_0, # of connection points: 4
#     Node 4, Type 0, BuildingBlock: TATPOV_clean_sbu_0, # of connection points: 4
#     Node 5, Type 0, BuildingBlock: TATPOV_clean_sbu_0, # of connection points: 4
#     Node 6, Type 0, BuildingBlock: TATPOV_clean_sbu_0, # of connection points: 4
#     Node 7, Type 0, BuildingBlock: TATPOV_clean_sbu_0, # of connection points: 4
#     Node 8, Type 0, BuildingBlock: TATPOV_clean_sbu_0, # of connection points: 4
#     Node 9, Type 0, BuildingBlock: TATPOV_clean_sbu_0, # of connection points: 4
#     Node 10, Type 0, BuildingBlock: TATPOV_clean_sbu_0, # of connection points: 4
#     Node 11, Type 0, BuildingBlock: TATPOV_clean_sbu_0, # of connection points: 4
#     Edge 12, Type (0, 0), BuildingBlock: CIFDUS_clean_linker_0, # of connection points: 2
#     Edge 13, Type (0, 0), BuildingBlock: CIFDUS_clean_linker_0, # of connection points: 2
#     Edge 14, Type (0, 0), BuildingBlock: CIFDUS_clean_linker_0, # of connection points: 2
#     Edge 15, Type (0, 0), BuildingBlock: CIFDUS_clean_linker_0, # of connection points: 2
#     Edge 16, Type (0, 0), BuildingBlock: CIFDUS_clean_linker_0, # of connection points: 2
#     Edge 17, Type (0, 0), BuildingBlock: CIFDUS_clean_linker_0, # of connection points: 2
#     Edge 18, Type (0, 0), BuildingBlock: CIFDUS_clean_linker_0, # of connection points: 2
#     Edge 19, Type (0, 0), BuildingBlock: CIFDUS_clean_linker_0, # of connection points: 2
#     Edge 20, Type (0, 0), BuildingBlock: CIFDUS_clean_linker_0, # of connection points: 2
#     Edge 21, Type (0, 0), BuildingBlock: CIFDUS_clean_linker_0, # of connection points: 2
#     Edge 22, Type (0, 0), BuildingBlock: CIFDUS_clean_linker_0, # of connection points: 2
#     Edge 23, Type (0, 0), BuildingBlock: CIFDUS_clean_linker_0, # of connection points: 2
#     Edge 24, Type (0, 0), BuildingBlock: CIFDUS_clean_linker_0, # of connection points: 2
#     Edge 25, Type (0, 0), BuildingBlock: CIFDUS_clean_linker_0, # of connection points: 2
#     Edge 26, Type (0, 0), BuildingBlock: CIFDUS_clean_linker_0, # of connection points: 2
#     Edge 27, Type (0, 0), BuildingBlock: CIFDUS_clean_linker_0, # of connection points: 2
#     Edge 28, Type (0, 0), BuildingBlock: CIFDUS_clean_linker_0, # of connection points: 2
#     Edge 29, Type (0, 0), BuildingBlock: CIFDUS_clean_linker_0, # of connection points: 2
#     Edge 30, Type (0, 0), BuildingBlock: CIFDUS_clean_linker_0, # of connection points: 2
#     Edge 31, Type (0, 0), BuildingBlock: CIFDUS_clean_linker_0, # of connection points: 2
#     Edge 32, Type (0, 0), BuildingBlock: CIFDUS_clean_linker_0, # of connection points: 2
#     Edge 33, Type (0, 0), BuildingBlock: CIFDUS_clean_linker_0, # of connection points: 2
#     Edge 34, Type (0, 0), BuildingBlock: CIFDUS_clean_linker_0, # of connection points: 2
#     Edge 35, Type (0, 0), BuildingBlock: CIFDUS_clean_linker_0, # of connection points: 2
# Relax obj value: 0.212
# Max RMSD: 0.263
# Mean RMSD: 0.263
data_MOF--net-uol--node1-TATPOV_clean_sbu_0--edge1-CIFDUS_clean_linker_0
_symmetry_space_group_name_H-M    P1
_symmetry_Int_Tables_number       1
_symmetry_cell_setting            triclinic
loop_
_symmetry_equiv_pos_as_xyz
'x, y, z'
_cell_length_a     28.838936
_cell_length_b     28.977119
_cell_length_c     54.3233
_cell_angle_alpha  89.984398
_cell_angle_beta   89.853798
_cell_angle_gamma 120.16787
loop_
_atom_site_label
_atom_site_type_symbol
_atom_site_fract_x
_atom_site_fract_y
_atom_site_fract_z
_atom_type_partial_charge
Zn0 Zn 0.13531 0.25661 0.07237 0.0
Zn1 Zn 0.18879 0.36288 0.07288 0.0
O2 O 0.20837 0.34311 0.03929 0.0
O3 O 0.15466 0.25615 0.03696 0.0
O4 O 0.22259 0.44264 0.07197 0.0
O5 O 0.06593 0.2538 0.08129 0.0
O6 O 0.11067 0.34144 0.08054 0.0
C7 C 0.18978 0.29959 0.02732 0.0
C8 C 0.21748 0.3043 0.11035 0.0
O9 O 0.22232 0.348 0.10265 0.0
O10 O 0.18564 0.26057 0.09984 0.0
C11 C 0.22474 0.46683 0.05211 0.0
O12 O 0.20864 0.43955 0.03152 0.0
C13 C 0.06695 0.29771 0.0839 0.0
Zn14 Zn 0.90671 0.19145 0.23577 0.0
Zn15 Zn 0.81499 0.19156 0.23905 0.0
O16 O 0.83749 0.21209 0.2024 0.0
O17 O 0.91333 0.21092 0.20038 0.0
O18 O 0.74468 0.19002 0.24173 0.0
O19 O 0.86851 0.1139 0.24612 0.0
O20 O 0.79273 0.11451 0.2487 0.0
C21 C 0.8779 0.21778 0.19022 0.0
C22 C 0.91088 0.26371 0.27242 0.0
O23 O 0.862 0.24459 0.26617 0.0
O24 O 0.93999 0.24907 0.26136 0.0
C25 C 0.73942 0.22999 0.24678 0.0
O26 O 0.78239 0.27694 0.2501 0.0
C27 C 0.81874 0.0899 0.25085 0.0
Zn28 Zn 0.74619 0.86415 0.39683 0.0
Zn29 Zn 0.64074 0.80334 0.39739 0.0
O30 O 0.65731 0.84159 0.36332 0.0
O31 O 0.74549 0.88273 0.36157 0.0
O32 O 0.56148 0.7517 0.39723 0.0
O33 O 0.75618 0.80255 0.40591 0.0
O34 O 0.66849 0.75201 0.40544 0.0
C35 C 0.7011 0.87006 0.3516 0.0
C36 C 0.69439 0.89265 0.43468 0.0
O37 O 0.65229 0.8514 0.42706 0.0
O38 O 0.73911 0.90844 0.42411 0.0
C39 C 0.5246 0.76131 0.40334 0.0
O40 O 0.53712 0.81019 0.40926 0.0
C41 C 0.7146 0.7573 0.40885 0.0
Zn42 Zn 0.83803 0.72537 0.56558 0.0
Zn43 Zn 0.80953 0.62258 0.56922 0.0
O44 O 0.79704 0.63051 0.53225 0.0
O45 O 0.82789 0.71705 0.52915 0.0
O46 O 0.78821 0.54569 0.57346 0.0
O47 O 0.91045 0.74554 0.57968 0.0
O48 O 0.8879 0.66091 0.58085 0.0
C49 C 0.80859 0.67156 0.5193 0.0
C50 C 0.7519 0.66829 0.59964 0.0
O51 O 0.7612 0.6309 0.59435 0.0
O52 O 0.77714 0.71281 0.58864 0.0
C53 C 0.75742 0.50747 0.5594 0.0
O54 O 0.73685 0.51708 0.53986 0.0
C55 C 0.92223 0.70989 0.58451 0.0
Zn56 Zn 0.13601 0.88278 0.73326 0.0
Zn57 Zn 0.18004 0.8211 0.73396 0.0
O58 O 0.15397 0.81564 0.69802 0.0
O59 O 0.12919 0.87615 0.69657 0.0
O60 O 0.22378 0.78474 0.73382 0.0
O61 O 0.20073 0.9454 0.74856 0.0
O62 O 0.23617 0.89382 0.74807 0.0
C63 C 0.13676 0.84167 0.6859 0.0
C64 C 0.08036 0.78702 0.76429 0.0
O65 O 0.11914 0.77986 0.7586 0.0
O66 O 0.07739 0.82583 0.75524 0.0
C67 C 0.24506 0.78434 0.75422 0.0
O68 O 0.23198 0.80135 0.77402 0.0
C69 C 0.23962 0.93826 0.75327 0.0
Zn70 Zn 0.29172 0.08682 0.91212 0.0
Zn71 Zn 0.38598 0.17493 0.91558 0.0
O72 O 0.38274 0.14916 0.87942 0.0
O73 O 0.30448 0.07478 0.87749 0.0
O74 O 0.45953 0.24035 0.91737 0.0
O75 O 0.25691 0.13069 0.92033 0.0
O76 O 0.33569 0.20385 0.92322 0.0
C77 C 0.34793 0.10872 0.86744 0.0
C78 C 0.35186 0.08025 0.95152 0.0
O79 O 0.38433 0.12817 0.94489 0.0
O80 O 0.30946 0.05182 0.9394 0.0
C81 C 0.50099 0.2386 0.9238 0.0
O82 O 0.4963 0.19243 0.92962 0.0
C83 C 0.28472 0.18028 0.92467 0.0
Zn84 Zn 0.721 0.83232 0.75307 0.0
Zn85 Zn 0.62051 0.80835 0.75284 0.0
O86 O 0.63269 0.78528 0.78763 0.0
O87 O 0.71976 0.81607 0.78848 0.0
O88 O 0.54349 0.79075 0.7543 0.0
O89 O 0.74488 0.90745 0.74313 0.0
O90 O 0.66096 0.88887 0.74417 0.0
C91 C 0.6747 0.79362 0.79912 0.0
C92 C 0.65912 0.7551 0.71622 0.0
O93 O 0.62289 0.76498 0.72335 0.0
O94 O 0.70394 0.77609 0.72709 0.0
C95 C 0.526 0.80105 0.77382 0.0
O96 O 0.55856 0.82236 0.7926 0.0
C97 C 0.71058 0.92211 0.74058 0.0
Zn98 Zn 0.90127 0.74913 0.92651 0.0
Zn99 Zn 0.82582 0.64812 0.92043 0.0
O100 O 0.84987 0.65055 0.9568 0.0
O101 O 0.90517 0.73672 0.96223 0.0
O102 O 0.7636 0.5736 0.91625 0.0
O103 O 0.85228 0.77513 0.91487 0.0
O104 O 0.78911 0.69112 0.91147 0.0
C105 C 0.88024 0.6897 0.97066 0.0
C106 C 0.92792 0.69486 0.88949 0.0
O107 O 0.88048 0.65668 0.89369 0.0
O108 O 0.94733 0.73748 0.90193 0.0
C109 C 0.76 0.53067 0.92418 0.0
O110 O 0.80071 0.53261 0.93593 0.0
C111 C 0.80448 0.74058 0.90956 0.0
Zn112 Zn 0.14824 0.86818 0.09696 0.0
Zn113 Zn 0.18572 0.80089 0.09879 0.0
O114 O 0.19022 0.82468 0.13513 0.0
O115 O 0.15114 0.87334 0.13363 0.0
O116 O 0.21213 0.74879 0.09966 0.0
O117 O 0.08032 0.81121 0.08118 0.0
O118 O 0.11067 0.75524 0.08355 0.0
C119 C 0.17254 0.85187 0.14587 0.0
C120 C 0.24333 0.90267 0.06763 0.0
O121 O 0.23723 0.85802 0.07461 0.0
O122 O 0.21219 0.91832 0.07557 0.0
C123 C 0.22036 0.73287 0.07919 0.0
O124 O 0.21299 0.75245 0.05871 0.0
C125 C 0.07402 0.76527 0.07743 0.0
Zn126 Zn 0.24447 0.12595 0.26532 0.0
Zn127 Zn 0.34853 0.1636 0.26503 0.0
O128 O 0.33432 0.18628 0.2994 0.0
O129 O 0.24604 0.14342 0.30082 0.0
O130 O 0.42676 0.18637 0.2649 0.0
O131 O 0.22917 0.05296 0.25539 0.0
O132 O 0.3159 0.08369 0.25709 0.0
C133 C 0.29079 0.17252 0.31107 0.0
C134 C 0.30009 0.20625 0.22812 0.0
O135 O 0.34021 0.20292 0.23546 0.0
O136 O 0.25512 0.18006 0.23885 0.0
C137 C 0.46646 0.23355 0.26639 0.0
O138 O 0.45798 0.27377 0.26909 0.0
C139 C 0.26852 0.04538 0.25312 0.0
Zn140 Zn 0.08224 0.27837 0.42852 0.0
Zn141 Zn 0.17236 0.37183 0.4246 0.0
O142 O 0.15069 0.37176 0.46117 0.0
O143 O 0.07738 0.29267 0.46394 0.0
O144 O 0.24207 0.44039 0.42059 0.0
O145 O 0.12131 0.24001 0.41813 0.0
O146 O 0.19564 0.31763 0.41533 0.0
C147 C 0.11158 0.33618 0.47369 0.0
C148 C 0.07522 0.34539 0.39184 0.0
O149 O 0.12404 0.37633 0.39785 0.0
O150 O 0.04741 0.30142 0.40297 0.0
C151 C 0.24851 0.4871 0.42058 0.0
O152 O 0.20695 0.4934 0.42414 0.0
C153 C 0.17099 0.267 0.41333 0.0
Zn154 Zn 0.84638 0.12244 0.59008 0.0
Zn155 Zn 0.79122 0.1733 0.58407 0.0
O156 O 0.76801 0.13992 0.61878 0.0
O157 O 0.82198 0.10796 0.62527 0.0
O158 O 0.75657 0.21809 0.58038 0.0
O159 O 0.916 0.18896 0.58134 0.0
O160 O 0.86989 0.2301 0.57769 0.0
C161 C 0.78593 0.11725 0.63283 0.0
C162 C 0.76908 0.08117 0.55017 0.0
O163 O 0.76211 0.11985 0.55583 0.0
O164 O 0.80055 0.07176 0.56264 0.0
C165 C 0.74189 0.22676 0.55967 0.0
O166 O 0.74493 0.20193 0.54005 0.0
C167 C 0.91443 0.23094 0.57661 0.0
H168 H 0.23342 0.6861 0.03853 0.0
H169 H 0.23338 0.6803 0.11797 0.0
H170 H 0.24147 0.60046 0.11646 0.0
H171 H 0.2389 0.52738 0.09269 0.0
H172 H 0.23511 0.53121 0.01328 0.0
H173 H 0.239 0.61727 0.01473 0.0
C174 C 0.2358 0.66778 0.05554 0.0
C175 C 0.23204 0.68873 0.07832 0.0
C176 C 0.23954 0.62139 0.05455 0.0
C177 C 0.23569 0.66473 0.10017 0.0
C178 C 0.24025 0.61901 0.09933 0.0
C179 C 0.23979 0.54738 0.07567 0.0
C180 C 0.23603 0.52255 0.05292 0.0
C181 C 0.24077 0.59623 0.07663 0.0
C182 C 0.23746 0.54919 0.03105 0.0
C183 C 0.23952 0.59835 0.03186 0.0
H184 H 0.71261 0.30579 0.25762 0.0
H185 H 0.64376 0.13765 0.2422 0.0
H186 H 0.55399 0.12433 0.24729 0.0
H187 H 0.49492 0.1597 0.25605 0.0
H188 H 0.56197 0.32761 0.2711 0.0
H189 H 0.65258 0.34158 0.26629 0.0
C190 C 0.67797 0.26626 0.25534 0.0
C191 C 0.68507 0.22283 0.24953 0.0
C192 C 0.62614 0.25874 0.25828 0.0
C193 C 0.63965 0.17187 0.24665 0.0
C194 C 0.58818 0.16412 0.24959 0.0
C195 C 0.52925 0.19943 0.25836 0.0
C196 C 0.52158 0.24252 0.26398 0.0
C197 C 0.58098 0.20719 0.25543 0.0
C198 C 0.56668 0.2937 0.26678 0.0
C199 C 0.61851 0.30172 0.26402 0.0
H200 H 0.49005 0.65601 0.39844 0.0
H201 H 0.43387 0.76565 0.41434 0.0
H202 H 0.34295 0.69048 0.42072 0.0
H203 H 0.27999 0.5932 0.42281 0.0
H204 H 0.33874 0.48513 0.40779 0.0
H205 H 0.42808 0.56029 0.40012 0.0
C206 C 0.45797 0.66369 0.40315 0.0
C207 C 0.46882 0.71645 0.40588 0.0
C208 C 0.40621 0.62048 0.4071 0.0
C209 C 0.42666 0.72543 0.41211 0.0
C210 C 0.37467 0.68245 0.4158 0.0
C211 C 0.31233 0.58614 0.41782 0.0
C212 C 0.30255 0.53352 0.41595 0.0
C213 C 0.36406 0.62974 0.41354 0.0
C214 C 0.345 0.52512 0.40949 0.0
C215 C 0.39621 0.5681 0.40503 0.0
H216 H 0.71915 0.42322 0.52786 0.0
H217 H 0.77507 0.4705 0.6023 0.0
H218 H 0.76859 0.38455 0.6098 0.0
H219 H 0.75541 0.29993 0.59419 0.0
H220 H 0.70476 0.25395 0.51908 0.0
H221 H 0.69996 0.33504 0.51302 0.0
C222 C 0.72923 0.4144 0.54581 0.0
C223 C 0.74806 0.45336 0.5644 0.0
C224 C 0.72655 0.36523 0.54986 0.0
C225 C 0.76104 0.44141 0.58757 0.0
C226 C 0.7573 0.39224 0.5919 0.0
C227 C 0.7425 0.30713 0.57659 0.0
C228 C 0.73091 0.27116 0.55706 0.0
C229 C 0.74134 0.35442 0.57302 0.0
C230 C 0.71425 0.28119 0.53438 0.0
C231 C 0.71166 0.32764 0.53087 0.0
H232 H 0.45206 0.76754 0.73696 0.0
H233 H 0.47615 0.81542 0.8133 0.0
H234 H 0.38851 0.80877 0.81456 0.0
H235 H 0.30858 0.79652 0.79326 0.0
H236 H 0.28524 0.75177 0.71656 0.0
H237 H 0.36866 0.74921 0.71633 0.0
C238 C 0.43795 0.77604 0.75394 0.0
C239 C 0.47093 0.7925 0.77492 0.0
C240 C 0.38766 0.77276 0.75449 0.0
C241 C 0.45186 0.80313 0.7968 0.0
C242 C 0.40168 0.7993 0.79756 0.0
C243 C 0.32124 0.78544 0.77655 0.0
C244 C 0.29086 0.77476 0.75491 0.0
C245 C 0.36974 0.78518 0.7764 0.0
C246 C 0.30795 0.7604 0.73346 0.0
C247 C 0.35578 0.75914 0.73328 0.0
H248 H 0.52612 0.33714 0.9076 0.0
H249 H 0.59476 0.25157 0.94259 0.0
H250 H 0.68136 0.33403 0.94535 0.0
H251 H 0.73714 0.43102 0.9386 0.0
H252 H 0.66767 0.5155 0.90315 0.0
H253 H 0.5821 0.43284 0.89975 0.0
C254 C 0.55998 0.33644 0.91583 0.0
C255 C 0.55382 0.28827 0.92497 0.0
C256 C 0.60964 0.38386 0.91728 0.0
C257 C 0.59832 0.28809 0.93541 0.0
C258 C 0.64789 0.33526 0.93702 0.0
C259 C 0.70335 0.43132 0.93006 0.0
C260 C 0.70894 0.47955 0.92126 0.0
C261 C 0.65396 0.38347 0.92812 0.0
C262 C 0.66467 0.47908 0.91015 0.0
C263 C 0.61557 0.43179 0.9082 0.0
H264 H 0.26548 0.27602 0.2197 0.0
H265 H 0.3389 0.19535 0.1845 0.0
H266 H 0.32373 0.22244 0.14401 0.0
H267 H 0.27808 0.25865 0.11874 0.0
H268 H 0.21142 0.3456 0.15396 0.0
H269 H 0.23598 0.32731 0.1944 0.0
C270 C 0.27939 0.26573 0.20314 0.0
C271 C 0.30281 0.23354 0.20488 0.0
C272 C 0.27123 0.28211 0.18002 0.0
C273 C 0.32102 0.22044 0.18347 0.0
C274 C 0.31193 0.2355 0.16035 0.0
C275 C 0.27023 0.27458 0.13529 0.0
C276 C 0.24266 0.30288 0.13361 0.0
C277 C 0.28539 0.26475 0.15839 0.0
C278 C 0.23282 0.32382 0.15498 0.0
C279 C 0.24651 0.31307 0.17807 0.0
H280 H 0.01346 0.33914 0.28244 0.0
H281 H 0.85468 0.25577 0.31406 0.0
H282 H 0.89247 0.28304 0.35526 0.0
H283 H 0.97125 0.31362 0.38212 0.0
H284 H 0.13001 0.39736 0.35047 0.0
H285 H 0.09173 0.38808 0.30947 0.0
C286 C 0.98711 0.32852 0.29832 0.0
C287 C 0.93155 0.29465 0.29535 0.0
C288 C 0.00918 0.34374 0.32195 0.0
C289 C 0.89763 0.28169 0.31592 0.0
C290 C 0.91927 0.29681 0.33952 0.0
C291 C 0.99741 0.3313 0.36631 0.0
C292 C 0.05325 0.35509 0.36917 0.0
C293 C 0.97509 0.32527 0.34278 0.0
C294 C 0.08687 0.37863 0.34869 0.0
C295 C 0.06498 0.37289 0.3252 0.0
H296 H 0.72029 0.97424 0.5432 0.0
H297 H 0.7684 0.12275 0.50572 0.0
H298 H 0.74593 0.07684 0.466 0.0
H299 H 0.72197 0.99571 0.4418 0.0
H300 H 0.66628 0.84595 0.47936 0.0
H301 H 0.68154 0.89061 0.51926 0.0
C302 C 0.72479 0.99615 0.52632 0.0
C303 C 0.74639 0.05163 0.52718 0.0
C304 C 0.71069 0.96931 0.50365 0.0
C305 C 0.75168 0.07988 0.50537 0.0
C306 C 0.73916 0.05374 0.48268 0.0
C307 C 0.71209 0.97293 0.45878 0.0
C308 C 0.69338 0.91798 0.4579 0.0
C309 C 0.71999 -0.00129 0.48156 0.0
C310 C 0.68046 0.88839 0.47981 0.0
C311 C 0.68952 0.91392 0.50256 0.0
H312 H 0.68969 0.71304 0.60706 0.0
H313 H 0.74367 0.61453 0.64175 0.0
H314 H 0.71176 0.62634 0.6816 0.0
H315 H 0.68371 0.67812 0.70731 0.0
H316 H 0.62516 0.77266 0.67268 0.0
H317 H 0.64254 0.74819 0.632 0.0
C318 C 0.69299 0.69298 0.62326 0.0
C319 C 0.71974 0.66377 0.62162 0.0
C320 C 0.67421 0.69964 0.64611 0.0
C321 C 0.72328 0.63732 0.64259 0.0
C322 C 0.70543 0.64439 0.66543 0.0
C323 C 0.6731 0.69176 0.6908 0.0
C324 C 0.65376 0.72741 0.69281 0.0
C325 C 0.68304 0.67739 0.66755 0.0
C326 C 0.63986 0.7449 0.67145 0.0
C327 C 0.65033 0.73138 0.64822 0.0
H328 H 0.89588 0.6854 0.84258 0.0
H329 H 0.02798 0.70798 0.88784 0.0
H330 H 0.08535 0.72939 0.85132 0.0
H331 H 0.10139 0.75558 0.80761 0.0
H332 H 0.97267 0.74671 0.76391 0.0
H333 H 0.91021 0.70557 0.79836 0.0
C334 C 0.93672 0.69327 0.84422 0.0
C335 C 0.95773 0.69434 0.86762 0.0
C336 C 0.9702 0.70889 0.82338 0.0
C337 C 0.01108 0.70628 0.86985 0.0
C338 C 0.04388 0.71895 0.84902 0.0
C339 C 0.05932 0.74328 0.80553 0.0
C340 C 0.04135 0.7538 0.78336 0.0
C341 C 0.02446 0.72242 0.82583 0.0
C342 C 0.98715 0.73887 0.78089 0.0
C343 C 0.95157 0.71553 0.80058 0.0
H344 H 0.30084 0.01003 0.06028 0.0
H345 H 0.26664 0.85977 0.02857 0.0
H346 H 0.30704 0.90413 0.98966 0.0
H347 H 0.33594 0.98248 0.9628 0.0
H348 H 0.37436 0.13363 0.99474 0.0
H349 H 0.34992 0.0926 0.03559 0.0
C350 C 0.30371 0.98741 0.04504 0.0
C351 C 0.28003 0.93172 0.04706 0.0
C352 C 0.32743 0.01328 0.02275 0.0
C353 C 0.2845 0.90273 0.02738 0.0
C354 C 0.30727 0.928 0.00507 0.0
C355 C 0.34092 0.00671 0.97889 0.0
C356 C 0.35635 0.06068 0.97588 0.0
C357 C 0.32662 0.9828 0.00224 0.0
C358 C 0.36285 0.092 0.99672 0.0
C359 C 0.34819 0.06839 0.02002 0.0
H360 H 0.13933 0.23064 0.99027 0.0
H361 H 0.29279 0.36317 0.01124 0.0
H362 H 0.33596 0.34346 0.97721 0.0
H363 H 0.33165 0.27786 0.94701 0.0
H364 H 0.17748 0.14409 0.92719 0.0
H365 H 0.13294 0.17576 0.95482 0.0
C366 C 0.18204 0.25599 0.98698 0.0
C367 C 0.2131 0.2975 0.00345 0.0
C368 C 0.20652 0.24382 0.96775 0.0
C369 C 0.26815 0.33077 -0.00117 0.0
C370 C 0.29288 0.31922 0.9795 0.0
C371 C 0.28822 0.25647 0.94819 0.0
C372 C 0.25809 0.20785 0.93556 0.0
C373 C 0.26278 0.27423 0.96462 0.0
C374 C 0.20178 0.18103 0.93707 0.0
C375 C 0.1762 0.19899 0.95295 0.0
H376 H 0.93665 0.31431 0.16935 0.0
H377 H 0.83799 0.14716 0.15297 0.0
H378 H 0.88256 0.16046 0.11312 0.0
H379 H 0.96495 0.21469 0.08925 0.0
H380 H 0.06662 0.38138 0.1069 0.0
H381 H 0.00474 0.37386 0.13934 0.0
C382 C 0.92305 0.28156 0.15639 0.0
C383 C 0.8843 0.22995 0.16385 0.0
C384 C 0.95046 0.28926 0.134 0.0
C385 C 0.86737 0.18734 0.14732 0.0
C386 C 0.89347 0.19483 0.12473 0.0
C387 C 0.9726 0.24981 0.09962 0.0
C388 C 0.02123 0.29799 0.09624 0.0
C389 C 0.93754 0.24487 0.11874 0.0
C390 C 0.02998 0.34349 0.10939 0.0
C391 C 0.99475 0.33916 0.12813 0.0
H392 H 0.72032 0.03476 0.27304 0.0
H393 H 0.86012 0.02388 0.25416 0.0
H394 H 0.82928 0.94631 0.28079 0.0
H395 H 0.77222 0.89303 0.31494 0.0
H396 H 0.63408 0.90483 0.33541 0.0
H397 H 0.65378 0.96953 0.30224 0.0
C398 C 0.74335 0.01462 0.27426 0.0
C399 C 0.79318 0.036 0.26209 0.0
C400 C 0.72591 0.97046 0.29009 0.0
C401 C 0.82217 0.00898 0.26368 0.0
C402 C 0.80462 0.96459 0.27895 0.0
C403 C 0.74559 0.9087 0.31167 0.0
C404 C 0.70237 0.89504 0.32776 0.0
C405 C 0.75801 0.94672 0.2931 0.0
C406 C 0.66765 0.91486 0.32323 0.0
C407 C 0.67929 0.9523 0.30444 0.0
H408 H 0.71223 0.62278 0.49678 0.0
H409 H 0.88222 0.71597 0.48327 0.0
H410 H 0.86606 0.73979 0.44235 0.0
H411 H 0.80519 0.75283 0.41607 0.0
H412 H 0.63535 0.66753 0.43153 0.0
H413 H 0.6493 0.62037 0.46531 0.0
C414 C 0.74541 0.64619 0.48432 0.0
C415 C 0.79823 0.66781 0.49278 0.0
C416 C 0.73575 0.66206 0.46135 0.0
C417 C 0.84126 0.6989 0.4769 0.0
C418 C 0.832 0.7129 0.45364 0.0
C419 C 0.77098 0.72262 0.4263 0.0
C420 C 0.71964 0.71511 0.42185 0.0
C421 C 0.77961 0.69764 0.44643 0.0
C422 C 0.67553 0.67486 0.43483 0.0
C423 C 0.68352 0.64819 0.45436 0.0
H424 H 0.08851 0.74268 0.6657 0.0
H425 H 0.13865 0.90706 0.64979 0.0
H426 H 0.08282 0.88008 0.61299 0.0
H427 H 0.00692 0.80954 0.59075 0.0
H428 H 0.95068 0.64447 0.60844 0.0
H429 H 0.02232 0.67179 0.63869 0.0
C430 C 0.08862 0.7726 0.65365 0.0
C431 C 0.11703 0.82667 0.66051 0.0
C432 C 0.05445 0.75655 0.63311 0.0
C433 C 0.11664 0.86514 0.64492 0.0
C434 C 0.08448 0.84971 0.62398 0.0
C435 C 0.01097 0.77943 0.60083 0.0
C436 C 0.9727 0.72514 0.59779 0.0
C437 C 0.05105 0.79543 0.61872 0.0
C438 C 0.97921 0.68662 0.61062 0.0
C439 C 0.02002 0.70223 0.62806 0.0
H440 H 0.37286 0.0396 0.847 0.0
H441 H 0.3313 0.15928 0.82981 0.0
H442 H 0.30217 0.12136 0.78869 0.0
H443 H 0.26875 0.04174 0.76247 0.0
H444 H 0.30894 0.92087 0.78032 0.0
H445 H 0.35979 0.97233 0.81591 0.0
C446 C 0.36001 0.05884 0.83371 0.0
C447 C 0.35419 0.10199 0.84116 0.0
C448 C 0.3419 0.03579 0.81045 0.0
C449 C 0.33669 0.12639 0.82418 0.0
C450 C 0.31928 0.1042 0.80083 0.0
C451 C 0.29005 0.02751 0.7737 0.0
C452 C 0.28364 0.97682 0.7692 0.0
C453 C 0.3186 0.05694 0.79443 0.0
C454 C 0.31244 0.95938 0.78357 0.0
C455 C 0.34133 0.98865 0.80407 0.0
H456 H 0.72935 0.8545 0.83729 0.0
H457 H 0.61837 0.69205 0.81678 0.0
H458 H 0.64211 0.65981 0.85373 0.0
H459 H 0.70926 0.67847 0.88604 0.0
H460 H 0.82283 0.84204 0.90493 0.0
H461 H 0.78232 0.87331 0.87491 0.0
C462 C 0.70885 0.81215 0.84154 0.0
C463 C 0.67259 0.77552 0.82452 0.0
C464 C 0.72397 0.79419 0.86227 0.0
C465 C 0.64615 0.72078 0.82988 0.0
C466 C 0.66029 0.70244 0.8508 0.0
C467 C 0.72411 0.7209 0.88413 0.0
C468 C 0.77009 0.75789 0.89717 0.0
C469 C 0.70144 0.73878 0.86632 0.0
C470 C 0.78827 0.8127 0.89474 0.0
C471 C 0.76523 0.83071 0.87751 0.0
H472 H 0.93546 0.64351 0.98714 0.0
H473 H 0.85205 0.72417 0.0108 0.0
H474 H 0.89891 0.74563 0.05019 0.0
H475 H 0.9782 0.76 0.07283 0.0
H476 H 0.06698 0.68538 0.04804 0.0
H477 H 0.00306 0.64198 0.01455 0.0
C478 C 0.92582 0.66343 0.00148 0.0
C479 C 0.89045 0.68218 0.99634 0.0
C480 C 0.95502 0.67795 0.02359 0.0
C481 C 0.87887 0.70905 0.01464 0.0
C482 C 0.90617 0.72189 0.03699 0.0
C483 C 0.98264 0.733 0.06051 0.0
C484 C 0.02786 0.72694 0.06249 0.0
C485 C 0.94669 0.7095 0.04095 0.0
C486 C 0.0327 0.69108 0.04675 0.0
C487 C 0.99637 0.66656 0.02746 0.0
H488 H 0.26601 0.89666 0.17094 0.0
H489 H 0.0964 0.83584 0.1791 0.0
H490 H 0.11144 0.88198 0.21841 0.0
H491 H 0.17369 0.95558 0.24438 0.0
H492 H 0.34427 0.02476 0.23384 0.0
H493 H 0.32828 0.95856 0.20222 0.0
C494 C 0.23239 0.89183 0.18194 0.0
C495 C 0.18027 0.8633 0.17232 0.0
C496 C 0.24172 0.92097 0.20386 0.0
C497 C 0.13682 0.85775 0.18633 0.0
C498 C 0.14548 0.88447 0.20866 0.0
C499 C 0.20745 0.95527 0.23569 0.0
C500 C 0.26 0.99604 0.24091 0.0
C501 C 0.19795 0.91878 0.21675 0.0
C502 C 0.30331 0.99433 0.2299 0.0
C503 C 0.2942 0.9567 0.21163 0.0
H504 H 0.22198 0.12176 0.3481 0.0
H505 H 0.35718 0.27391 0.32779 0.0
H506 H 0.33683 0.31687 0.36168 0.0
H507 H 0.26963 0.31298 0.39122 0.0
H508 H 0.13251 0.16005 0.40984 0.0
H509 H 0.16506 0.11549 0.3828 0.0
C510 C 0.24794 0.16407 0.35162 0.0
C511 C 0.29042 0.19489 0.33538 0.0
C512 C 0.23503 0.18845 0.37056 0.0
C513 C 0.32426 0.24946 0.34013 0.0
C514 C 0.31219 0.27407 0.35931 0.0
C515 C 0.2476 0.2698 0.38986 0.0
C516 C 0.19792 0.24006 0.40205 0.0
C517 C 0.26598 0.24434 0.37379 0.0
C518 C 0.17027 0.18407 0.40031 0.0
C519 C 0.1888 0.15847 0.38481 0.0
H520 H 0.05333 0.37648 0.49243 0.0
H521 H 0.14828 0.30586 0.51241 0.0
H522 H 0.10058 0.27602 0.55165 0.0
H523 H 0.01655 0.24923 0.57378 0.0
H524 H 0.91755 0.31488 0.55209 0.0
H525 H 0.98278 0.3688 0.52061 0.0
C526 C 0.06544 0.35722 0.50606 0.0
C527 C 0.10406 0.34332 0.49978 0.0
C528 C 0.03595 0.33795 0.52798 0.0
C529 C 0.11902 0.31744 0.51715 0.0
C530 C 0.09111 0.29963 0.53938 0.0
C531 C 0.0101 0.27669 0.56273 0.0
C532 C 0.96136 0.27652 0.56468 0.0
C533 C 0.047 0.30635 0.5441 0.0
C534 C 0.95422 0.31332 0.55067 0.0
C535 C 0.9914 0.344 0.53249 0.0
H536 H 0.65143 0.95341 0.71357 0.0
H537 H 0.81043 0.00903 0.74209 0.0
H538 H 0.84731 0.08377 0.7134 0.0
H539 H 0.83704 0.11997 0.67447 0.0
H540 H 0.67947 0.0637 0.64453 0.0
H541 H 0.63911 0.00332 0.67972 0.0
C542 C 0.69381 0.98299 0.7141 0.0
C543 C 0.72839 0.97497 0.72946 0.0
C544 C 0.71512 0.02519 0.69697 0.0
C545 C 0.78317 0.01378 0.73007 0.0
C546 C 0.80437 0.05643 0.7136 0.0
C547 C 0.79375 0.09574 0.67614 0.0
C548 C 0.7612 0.09536 0.65692 0.0
C549 C 0.7712 0.06052 0.69603 0.0
C550 C 0.70521 0.06445 0.65921 0.0
C551 C 0.68222 0.02956 0.67919 0.0
loop_
_geom_bond_atom_site_label_1
_geom_bond_atom_site_label_2
_geom_bond_distance
_geom_bond_site_symmetry_2
_ccdc_geom_bond_type
Zn0 O3 2.031 . S
Zn0 O5 2.049 . S
Zn0 O10 2.067 . S
Zn1 O2 1.962 . S
Zn1 O4 1.986 . S
Zn1 O6 1.996 . S
Zn1 O9 1.943 . S
O2 Zn1 1.962 . S
O2 C7 1.254 . S
O3 Zn0 2.031 . S
O3 C7 1.269 . S
O4 Zn1 1.986 . S
O4 C11 1.262 . S
O5 Zn0 2.049 . S
O5 C13 1.260 . S
O6 Zn1 1.996 . S
O6 C13 1.257 . S
C7 O2 1.254 . S
C7 O3 1.269 . S
C8 O9 1.249 . S
C8 O10 1.270 . S
O9 Zn1 1.943 . S
O9 C8 1.249 . S
O10 Zn0 2.067 . S
O10 C8 1.270 . S
C11 O4 1.262 . S
C11 O12 1.232 . S
O12 C11 1.232 . S
C13 O5 1.260 . S
C13 O6 1.257 . S
Zn14 O17 2.031 . S
Zn14 O19 2.049 . S
Zn14 O24 2.067 . S
Zn15 O16 1.962 . S
Zn15 O18 1.986 . S
Zn15 O20 1.996 . S
Zn15 O23 1.943 . S
O16 Zn15 1.962 . S
O16 C21 1.254 . S
O17 Zn14 2.031 . S
O17 C21 1.269 . S
O18 Zn15 1.986 . S
O18 C25 1.262 . S
O19 Zn14 2.049 . S
O19 C27 1.260 . S
O20 Zn15 1.996 . S
O20 C27 1.257 . S
C21 O16 1.254 . S
C21 O17 1.269 . S
C22 O23 1.249 . S
C22 O24 1.270 . S
O23 Zn15 1.943 . S
O23 C22 1.249 . S
O24 Zn14 2.067 . S
O24 C22 1.270 . S
C25 O18 1.262 . S
C25 O26 1.232 . S
O26 C25 1.232 . S
C27 O19 1.260 . S
C27 O20 1.257 . S
Zn28 O31 2.031 . S
Zn28 O33 2.049 . S
Zn28 O38 2.067 . S
Zn29 O30 1.962 . S
Zn29 O32 1.986 . S
Zn29 O34 1.996 . S
Zn29 O37 1.943 . S
O30 Zn29 1.962 . S
O30 C35 1.254 . S
O31 Zn28 2.031 . S
O31 C35 1.269 . S
O32 Zn29 1.986 . S
O32 C39 1.262 . S
O33 Zn28 2.049 . S
O33 C41 1.260 . S
O34 Zn29 1.996 . S
O34 C41 1.257 . S
C35 O30 1.254 . S
C35 O31 1.269 . S
C36 O37 1.249 . S
C36 O38 1.270 . S
O37 Zn29 1.943 . S
O37 C36 1.249 . S
O38 Zn28 2.067 . S
O38 C36 1.270 . S
C39 O32 1.262 . S
C39 O40 1.232 . S
O40 C39 1.232 . S
C41 O33 1.260 . S
C41 O34 1.257 . S
Zn42 O45 2.031 . S
Zn42 O47 2.049 . S
Zn42 O52 2.067 . S
Zn43 O44 1.962 . S
Zn43 O46 1.986 . S
Zn43 O48 1.996 . S
Zn43 O51 1.943 . S
O44 Zn43 1.962 . S
O44 C49 1.254 . S
O45 Zn42 2.031 . S
O45 C49 1.269 . S
O46 Zn43 1.986 . S
O46 C53 1.262 . S
O47 Zn42 2.049 . S
O47 C55 1.260 . S
O48 Zn43 1.996 . S
O48 C55 1.257 . S
C49 O44 1.254 . S
C49 O45 1.269 . S
C50 O51 1.249 . S
C50 O52 1.270 . S
O51 Zn43 1.943 . S
O51 C50 1.249 . S
O52 Zn42 2.067 . S
O52 C50 1.270 . S
C53 O46 1.262 . S
C53 O54 1.232 . S
O54 C53 1.232 . S
C55 O47 1.260 . S
C55 O48 1.257 . S
Zn56 O59 2.031 . S
Zn56 O61 2.049 . S
Zn56 O66 2.067 . S
Zn57 O58 1.962 . S
Zn57 O60 1.986 . S
Zn57 O62 1.996 . S
Zn57 O65 1.943 . S
O58 Zn57 1.962 . S
O58 C63 1.254 . S
O59 Zn56 2.031 . S
O59 C63 1.269 . S
O60 Zn57 1.986 . S
O60 C67 1.262 . S
O61 Zn56 2.049 . S
O61 C69 1.260 . S
O62 Zn57 1.996 . S
O62 C69 1.257 . S
C63 O58 1.254 . S
C63 O59 1.269 . S
C64 O65 1.249 . S
C64 O66 1.270 . S
O65 Zn57 1.943 . S
O65 C64 1.249 . S
O66 Zn56 2.067 . S
O66 C64 1.270 . S
C67 O60 1.262 . S
C67 O68 1.232 . S
O68 C67 1.232 . S
C69 O61 1.260 . S
C69 O62 1.257 . S
Zn70 O73 2.031 . S
Zn70 O75 2.049 . S
Zn70 O80 2.067 . S
Zn71 O72 1.962 . S
Zn71 O74 1.986 . S
Zn71 O76 1.996 . S
Zn71 O79 1.943 . S
O72 Zn71 1.962 . S
O72 C77 1.254 . S
O73 Zn70 2.031 . S
O73 C77 1.269 . S
O74 Zn71 1.986 . S
O74 C81 1.262 . S
O75 Zn70 2.049 . S
O75 C83 1.260 . S
O76 Zn71 1.996 . S
O76 C83 1.257 . S
C77 O72 1.254 . S
C77 O73 1.269 . S
C78 O79 1.249 . S
C78 O80 1.270 . S
O79 Zn71 1.943 . S
O79 C78 1.249 . S
O80 Zn70 2.067 . S
O80 C78 1.270 . S
C81 O74 1.262 . S
C81 O82 1.232 . S
O82 C81 1.232 . S
C83 O75 1.260 . S
C83 O76 1.257 . S
Zn84 O87 2.031 . S
Zn84 O89 2.049 . S
Zn84 O94 2.067 . S
Zn85 O86 1.962 . S
Zn85 O88 1.986 . S
Zn85 O90 1.996 . S
Zn85 O93 1.943 . S
O86 Zn85 1.962 . S
O86 C91 1.254 . S
O87 Zn84 2.031 . S
O87 C91 1.269 . S
O88 Zn85 1.986 . S
O88 C95 1.262 . S
O89 Zn84 2.049 . S
O89 C97 1.260 . S
O90 Zn85 1.996 . S
O90 C97 1.257 . S
C91 O86 1.254 . S
C91 O87 1.269 . S
C92 O93 1.249 . S
C92 O94 1.270 . S
O93 Zn85 1.943 . S
O93 C92 1.249 . S
O94 Zn84 2.067 . S
O94 C92 1.270 . S
C95 O88 1.262 . S
C95 O96 1.232 . S
O96 C95 1.232 . S
C97 O89 1.260 . S
C97 O90 1.257 . S
Zn98 O101 2.031 . S
Zn98 O103 2.049 . S
Zn98 O108 2.067 . S
Zn99 O100 1.962 . S
Zn99 O102 1.986 . S
Zn99 O104 1.996 . S
Zn99 O107 1.943 . S
O100 Zn99 1.962 . S
O100 C105 1.254 . S
O101 Zn98 2.031 . S
O101 C105 1.269 . S
O102 Zn99 1.986 . S
O102 C109 1.262 . S
O103 Zn98 2.049 . S
O103 C111 1.260 . S
O104 Zn99 1.996 . S
O104 C111 1.257 . S
C105 O100 1.254 . S
C105 O101 1.269 . S
C106 O107 1.249 . S
C106 O108 1.270 . S
O107 Zn99 1.943 . S
O107 C106 1.249 . S
O108 Zn98 2.067 . S
O108 C106 1.270 . S
C109 O102 1.262 . S
C109 O110 1.232 . S
O110 C109 1.232 . S
C111 O103 1.260 . S
C111 O104 1.257 . S
Zn112 O115 2.031 . S
Zn112 O117 2.049 . S
Zn112 O122 2.067 . S
Zn113 O114 1.962 . S
Zn113 O116 1.986 . S
Zn113 O118 1.996 . S
Zn113 O121 1.943 . S
O114 Zn113 1.962 . S
O114 C119 1.254 . S
O115 Zn112 2.031 . S
O115 C119 1.269 . S
O116 Zn113 1.986 . S
O116 C123 1.262 . S
O117 Zn112 2.049 . S
O117 C125 1.260 . S
O118 Zn113 1.996 . S
O118 C125 1.257 . S
C119 O114 1.254 . S
C119 O115 1.269 . S
C120 O121 1.249 . S
C120 O122 1.270 . S
O121 Zn113 1.943 . S
O121 C120 1.249 . S
O122 Zn112 2.067 . S
O122 C120 1.270 . S
C123 O116 1.262 . S
C123 O124 1.232 . S
O124 C123 1.232 . S
C125 O117 1.260 . S
C125 O118 1.257 . S
Zn126 O129 2.031 . S
Zn126 O131 2.049 . S
Zn126 O136 2.067 . S
Zn127 O128 1.962 . S
Zn127 O130 1.986 . S
Zn127 O132 1.996 . S
Zn127 O135 1.943 . S
O128 Zn127 1.962 . S
O128 C133 1.254 . S
O129 Zn126 2.031 . S
O129 C133 1.269 . S
O130 Zn127 1.986 . S
O130 C137 1.262 . S
O131 Zn126 2.049 . S
O131 C139 1.260 . S
O132 Zn127 1.996 . S
O132 C139 1.257 . S
C133 O128 1.254 . S
C133 O129 1.269 . S
C134 O135 1.249 . S
C134 O136 1.270 . S
O135 Zn127 1.943 . S
O135 C134 1.249 . S
O136 Zn126 2.067 . S
O136 C134 1.270 . S
C137 O130 1.262 . S
C137 O138 1.232 . S
O138 C137 1.232 . S
C139 O131 1.260 . S
C139 O132 1.257 . S
Zn140 O143 2.031 . S
Zn140 O145 2.049 . S
Zn140 O150 2.067 . S
Zn141 O142 1.962 . S
Zn141 O144 1.986 . S
Zn141 O146 1.996 . S
Zn141 O149 1.943 . S
O142 Zn141 1.962 . S
O142 C147 1.254 . S
O143 Zn140 2.031 . S
O143 C147 1.269 . S
O144 Zn141 1.986 . S
O144 C151 1.262 . S
O145 Zn140 2.049 . S
O145 C153 1.260 . S
O146 Zn141 1.996 . S
O146 C153 1.257 . S
C147 O142 1.254 . S
C147 O143 1.269 . S
C148 O149 1.249 . S
C148 O150 1.270 . S
O149 Zn141 1.943 . S
O149 C148 1.249 . S
O150 Zn140 2.067 . S
O150 C148 1.270 . S
C151 O144 1.262 . S
C151 O152 1.232 . S
O152 C151 1.232 . S
C153 O145 1.260 . S
C153 O146 1.257 . S
Zn154 O157 2.031 . S
Zn154 O159 2.049 . S
Zn154 O164 2.067 . S
Zn155 O156 1.962 . S
Zn155 O158 1.986 . S
Zn155 O160 1.996 . S
Zn155 O163 1.943 . S
O156 Zn155 1.962 . S
O156 C161 1.254 . S
O157 Zn154 2.031 . S
O157 C161 1.269 . S
O158 Zn155 1.986 . S
O158 C165 1.262 . S
O159 Zn154 2.049 . S
O159 C167 1.260 . S
O160 Zn155 1.996 . S
O160 C167 1.257 . S
C161 O156 1.254 . S
C161 O157 1.269 . S
C162 O163 1.249 . S
C162 O164 1.270 . S
O163 Zn155 1.943 . S
O163 C162 1.249 . S
O164 Zn154 2.067 . S
O164 C162 1.270 . S
C165 O158 1.262 . S
C165 O166 1.232 . S
O166 C165 1.232 . S
C167 O159 1.260 . S
C167 O160 1.257 . S
H168 C174 0.930 . S
H169 C177 0.930 . S
H170 C178 0.930 . S
H171 C179 0.930 . S
H172 C182 0.930 . S
H173 C183 0.930 . S
C174 H168 0.930 . S
C174 C175 1.355 . S
C174 C176 1.415 . S
C175 C174 1.355 . S
C175 C177 1.419 . S
C176 C174 1.415 . S
C176 C181 1.425 . S
C176 C183 1.409 . S
C177 H169 0.930 . S
C177 C175 1.419 . S
C177 C178 1.362 . S
C178 H170 0.930 . S
C178 C177 1.362 . S
C178 C181 1.409 . S
C179 H171 0.930 . S
C179 C180 1.355 . S
C179 C181 1.415 . S
C180 C179 1.355 . S
C180 C182 1.419 . S
C181 C176 1.425 . S
C181 C178 1.409 . S
C181 C179 1.415 . S
C182 H172 0.930 . S
C182 C180 1.419 . S
C182 C183 1.362 . S
C183 H173 0.930 . S
C183 C176 1.409 . S
C183 C182 1.362 . S
H184 C190 0.930 . S
H185 C193 0.930 . S
H186 C194 0.930 . S
H187 C195 0.930 . S
H188 C198 0.930 . S
H189 C199 0.930 . S
C190 H184 0.930 . S
C190 C191 1.355 . S
C190 C192 1.415 . S
C191 C190 1.355 . S
C191 C193 1.419 . S
C192 C190 1.415 . S
C192 C197 1.425 . S
C192 C199 1.409 . S
C193 H185 0.930 . S
C193 C191 1.419 . S
C193 C194 1.362 . S
C194 H186 0.930 . S
C194 C193 1.362 . S
C194 C197 1.409 . S
C195 H187 0.930 . S
C195 C196 1.355 . S
C195 C197 1.415 . S
C196 C195 1.355 . S
C196 C198 1.419 . S
C197 C192 1.425 . S
C197 C194 1.409 . S
C197 C195 1.415 . S
C198 H188 0.930 . S
C198 C196 1.419 . S
C198 C199 1.362 . S
C199 H189 0.930 . S
C199 C192 1.409 . S
C199 C198 1.362 . S
H200 C206 0.930 . S
H201 C209 0.930 . S
H202 C210 0.930 . S
H203 C211 0.930 . S
H204 C214 0.930 . S
H205 C215 0.930 . S
C206 H200 0.930 . S
C206 C207 1.355 . S
C206 C208 1.415 . S
C207 C206 1.355 . S
C207 C209 1.419 . S
C208 C206 1.415 . S
C208 C213 1.425 . S
C208 C215 1.409 . S
C209 H201 0.930 . S
C209 C207 1.419 . S
C209 C210 1.362 . S
C210 H202 0.930 . S
C210 C209 1.362 . S
C210 C213 1.409 . S
C211 H203 0.930 . S
C211 C212 1.355 . S
C211 C213 1.415 . S
C212 C211 1.355 . S
C212 C214 1.419 . S
C213 C208 1.425 . S
C213 C210 1.409 . S
C213 C211 1.415 . S
C214 H204 0.930 . S
C214 C212 1.419 . S
C214 C215 1.362 . S
C215 H205 0.930 . S
C215 C208 1.409 . S
C215 C214 1.362 . S
H216 C222 0.930 . S
H217 C225 0.930 . S
H218 C226 0.930 . S
H219 C227 0.930 . S
H220 C230 0.930 . S
H221 C231 0.930 . S
C222 H216 0.930 . S
C222 C223 1.355 . S
C222 C224 1.415 . S
C223 C222 1.355 . S
C223 C225 1.419 . S
C224 C222 1.415 . S
C224 C229 1.425 . S
C224 C231 1.409 . S
C225 H217 0.930 . S
C225 C223 1.419 . S
C225 C226 1.362 . S
C226 H218 0.930 . S
C226 C225 1.362 . S
C226 C229 1.409 . S
C227 H219 0.930 . S
C227 C228 1.355 . S
C227 C229 1.415 . S
C228 C227 1.355 . S
C228 C230 1.419 . S
C229 C224 1.425 . S
C229 C226 1.409 . S
C229 C227 1.415 . S
C230 H220 0.930 . S
C230 C228 1.419 . S
C230 C231 1.362 . S
C231 H221 0.930 . S
C231 C224 1.409 . S
C231 C230 1.362 . S
H232 C238 0.930 . S
H233 C241 0.930 . S
H234 C242 0.930 . S
H235 C243 0.930 . S
H236 C246 0.930 . S
H237 C247 0.930 . S
C238 H232 0.930 . S
C238 C239 1.355 . S
C238 C240 1.415 . S
C239 C238 1.355 . S
C239 C241 1.419 . S
C240 C238 1.415 . S
C240 C245 1.425 . S
C240 C247 1.409 . S
C241 H233 0.930 . S
C241 C239 1.419 . S
C241 C242 1.362 . S
C242 H234 0.930 . S
C242 C241 1.362 . S
C242 C245 1.409 . S
C243 H235 0.930 . S
C243 C244 1.355 . S
C243 C245 1.415 . S
C244 C243 1.355 . S
C244 C246 1.419 . S
C245 C240 1.425 . S
C245 C242 1.409 . S
C245 C243 1.415 . S
C246 H236 0.930 . S
C246 C244 1.419 . S
C246 C247 1.362 . S
C247 H237 0.930 . S
C247 C240 1.409 . S
C247 C246 1.362 . S
H248 C254 0.930 . S
H249 C257 0.930 . S
H250 C258 0.930 . S
H251 C259 0.930 . S
H252 C262 0.930 . S
H253 C263 0.930 . S
C254 H248 0.930 . S
C254 C255 1.355 . S
C254 C256 1.415 . S
C255 C254 1.355 . S
C255 C257 1.419 . S
C256 C254 1.415 . S
C256 C261 1.425 . S
C256 C263 1.409 . S
C257 H249 0.930 . S
C257 C255 1.419 . S
C257 C258 1.362 . S
C258 H250 0.930 . S
C258 C257 1.362 . S
C258 C261 1.409 . S
C259 H251 0.930 . S
C259 C260 1.355 . S
C259 C261 1.415 . S
C260 C259 1.355 . S
C260 C262 1.419 . S
C261 C256 1.425 . S
C261 C258 1.409 . S
C261 C259 1.415 . S
C262 H252 0.930 . S
C262 C260 1.419 . S
C262 C263 1.362 . S
C263 H253 0.930 . S
C263 C256 1.409 . S
C263 C262 1.362 . S
H264 C270 0.930 . S
H265 C273 0.930 . S
H266 C274 0.930 . S
H267 C275 0.930 . S
H268 C278 0.930 . S
H269 C279 0.930 . S
C270 H264 0.930 . S
C270 C271 1.355 . S
C270 C272 1.415 . S
C271 C270 1.355 . S
C271 C273 1.419 . S
C272 C270 1.415 . S
C272 C277 1.425 . S
C272 C279 1.409 . S
C273 H265 0.930 . S
C273 C271 1.419 . S
C273 C274 1.362 . S
C274 H266 0.930 . S
C274 C273 1.362 . S
C274 C277 1.409 . S
C275 H267 0.930 . S
C275 C276 1.355 . S
C275 C277 1.415 . S
C276 C275 1.355 . S
C276 C278 1.419 . S
C277 C272 1.425 . S
C277 C274 1.409 . S
C277 C275 1.415 . S
C278 H268 0.930 . S
C278 C276 1.419 . S
C278 C279 1.362 . S
C279 H269 0.930 . S
C279 C272 1.409 . S
C279 C278 1.362 . S
H280 C286 0.930 . S
H281 C289 0.930 . S
H282 C290 0.930 . S
H283 C291 0.930 . S
H284 C294 0.930 . S
H285 C295 0.930 . S
C286 H280 0.930 . S
C286 C287 1.355 . S
C286 C288 1.415 . S
C287 C286 1.355 . S
C287 C289 1.419 . S
C288 C286 1.415 . S
C288 C293 1.425 1_655 S
C288 C295 1.409 1_655 S
C289 H281 0.930 . S
C289 C287 1.419 . S
C289 C290 1.362 . S
C290 H282 0.930 . S
C290 C289 1.362 . S
C290 C293 1.409 1_655 S
C291 H283 0.930 . S
C291 C292 1.355 . S
C291 C293 1.415 . S
C292 C291 1.355 . S
C292 C294 1.419 . S
C293 C288 1.425 1_455 S
C293 C290 1.409 1_455 S
C293 C291 1.415 . S
C294 H284 0.930 . S
C294 C292 1.419 . S
C294 C295 1.362 . S
C295 H285 0.930 . S
C295 C288 1.409 1_455 S
C295 C294 1.362 . S
H296 C302 0.930 . S
H297 C305 0.930 . S
H298 C306 0.930 . S
H299 C307 0.930 . S
H300 C310 0.930 . S
H301 C311 0.930 . S
C302 H296 0.930 . S
C302 C303 1.355 . S
C302 C304 1.415 1_545 S
C303 C302 1.355 . S
C303 C305 1.419 . S
C304 C302 1.415 1_565 S
C304 C309 1.425 1_565 S
C304 C311 1.409 . S
C305 H297 0.930 . S
C305 C303 1.419 . S
C305 C306 1.362 . S
C306 H298 0.930 . S
C306 C305 1.362 . S
C306 C309 1.409 . S
C307 H299 0.930 . S
C307 C308 1.355 . S
C307 C309 1.415 1_565 S
C308 C307 1.355 . S
C308 C310 1.419 . S
C309 C304 1.425 1_545 S
C309 C306 1.409 . S
C309 C307 1.415 1_545 S
C310 H300 0.930 . S
C310 C308 1.419 . S
C310 C311 1.362 . S
C311 H301 0.930 . S
C311 C304 1.409 . S
C311 C310 1.362 . S
H312 C318 0.930 . S
H313 C321 0.930 . S
H314 C322 0.930 . S
H315 C323 0.930 . S
H316 C326 0.930 . S
H317 C327 0.930 . S
C318 H312 0.930 . S
C318 C319 1.355 . S
C318 C320 1.415 . S
C319 C318 1.355 . S
C319 C321 1.419 . S
C320 C318 1.415 . S
C320 C325 1.425 . S
C320 C327 1.409 . S
C321 H313 0.930 . S
C321 C319 1.419 . S
C321 C322 1.362 . S
C322 H314 0.930 . S
C322 C321 1.362 . S
C322 C325 1.409 . S
C323 H315 0.930 . S
C323 C324 1.355 . S
C323 C325 1.415 . S
C324 C323 1.355 . S
C324 C326 1.419 . S
C325 C320 1.425 . S
C325 C322 1.409 . S
C325 C323 1.415 . S
C326 H316 0.930 . S
C326 C324 1.419 . S
C326 C327 1.362 . S
C327 H317 0.930 . S
C327 C320 1.409 . S
C327 C326 1.362 . S
H328 C334 0.930 . S
H329 C337 0.930 . S
H330 C338 0.930 . S
H331 C339 0.930 . S
H332 C342 0.930 . S
H333 C343 0.930 . S
C334 H328 0.930 . S
C334 C335 1.355 . S
C334 C336 1.415 . S
C335 C334 1.355 . S
C335 C337 1.419 . S
C336 C334 1.415 . S
C336 C341 1.425 1_655 S
C336 C343 1.409 . S
C337 H329 0.930 . S
C337 C335 1.419 . S
C337 C338 1.362 1_655 S
C338 H330 0.930 . S
C338 C337 1.362 1_455 S
C338 C341 1.409 . S
C339 H331 0.930 . S
C339 C340 1.355 . S
C339 C341 1.415 . S
C340 C339 1.355 . S
C340 C342 1.419 . S
C341 C336 1.425 1_455 S
C341 C338 1.409 . S
C341 C339 1.415 . S
C342 H332 0.930 . S
C342 C340 1.419 . S
C342 C343 1.362 1_455 S
C343 H333 0.930 . S
C343 C336 1.409 . S
C343 C342 1.362 1_655 S
H344 C350 0.930 . S
H345 C353 0.930 . S
H346 C354 0.930 . S
H347 C355 0.930 . S
H348 C358 0.930 . S
H349 C359 0.930 . S
C350 H344 0.930 . S
C350 C351 1.355 . S
C350 C352 1.415 1_565 S
C351 C350 1.355 . S
C351 C353 1.419 . S
C352 C350 1.415 1_545 S
C352 C357 1.425 1_544 S
C352 C359 1.409 . S
C353 H345 0.930 . S
C353 C351 1.419 . S
C353 C354 1.362 1_554 S
C354 H346 0.930 . S
C354 C353 1.362 1_556 S
C354 C357 1.409 . S
C355 H347 0.930 . S
C355 C356 1.355 . S
C355 C357 1.415 1_545 S
C356 C355 1.355 . S
C356 C358 1.419 . S
C357 C352 1.425 1_566 S
C357 C354 1.409 . S
C357 C355 1.415 1_565 S
C358 H348 0.930 . S
C358 C356 1.419 . S
C358 C359 1.362 1_556 S
C359 H349 0.930 . S
C359 C352 1.409 . S
C359 C358 1.362 1_554 S
H360 C366 0.930 . S
H361 C369 0.930 . S
H362 C370 0.930 . S
H363 C371 0.931 . S
H364 C374 0.930 . S
H365 C375 0.930 . S
C366 H360 0.930 . S
C366 C367 1.355 . S
C366 C368 1.415 . S
C367 C366 1.355 . S
C367 C369 1.419 . S
C368 C366 1.415 . S
C368 C373 1.425 . S
C368 C375 1.409 1_554 S
C369 H361 0.930 . S
C369 C367 1.419 . S
C369 C370 1.362 . S
C370 H362 0.930 . S
C370 C369 1.362 . S
C370 C373 1.409 . S
C371 H363 0.931 . S
C371 C372 1.349 1_554 S
C371 C373 1.418 . S
C372 C371 1.349 1_556 S
C372 C374 1.419 . S
C373 C368 1.425 . S
C373 C370 1.409 . S
C373 C371 1.418 . S
C374 H364 0.930 . S
C374 C372 1.419 . S
C374 C375 1.362 . S
C375 H365 0.930 . S
C375 C368 1.409 1_556 S
C375 C374 1.362 . S
H376 C382 0.930 . S
H377 C385 0.930 . S
H378 C386 0.930 1_455 S
H379 C387 0.930 . S
H380 C390 0.930 . S
H381 C391 0.930 . S
C382 H376 0.930 . S
C382 C383 1.355 . S
C382 C384 1.415 . S
C383 C382 1.355 . S
C383 C385 1.419 . S
C384 C382 1.415 . S
C384 C389 1.425 . S
C384 C391 1.409 . S
C385 H377 0.930 . S
C385 C383 1.419 . S
C385 C386 1.362 . S
C386 H378 0.930 1_655 S
C386 C385 1.362 . S
C386 C389 1.409 . S
C387 H379 0.930 . S
C387 C388 1.355 . S
C387 C389 1.415 1_455 S
C388 C387 1.355 . S
C388 C390 1.419 1_455 S
C389 C384 1.425 . S
C389 C386 1.409 . S
C389 C387 1.415 1_655 S
C390 H380 0.930 . S
C390 C388 1.419 1_655 S
C390 C391 1.362 . S
C391 H381 0.930 . S
C391 C384 1.409 . S
C391 C390 1.362 . S
H392 C398 0.930 . S
H393 C401 0.930 . S
H394 C402 0.930 . S
H395 C403 0.930 . S
H396 C406 0.930 . S
H397 C407 0.930 . S
C398 H392 0.930 . S
C398 C399 1.355 1_565 S
C398 C400 1.415 . S
C399 C398 1.355 1_545 S
C399 C401 1.419 . S
C400 C398 1.415 . S
C400 C405 1.425 . S
C400 C407 1.409 . S
C401 H393 0.930 . S
C401 C399 1.419 . S
C401 C402 1.362 . S
C402 H394 0.930 . S
C402 C401 1.362 . S
C402 C405 1.409 1_545 S
C403 H395 0.930 . S
C403 C404 1.355 . S
C403 C405 1.415 . S
C404 C403 1.355 . S
C404 C406 1.419 . S
C405 C400 1.425 . S
C405 C402 1.409 1_565 S
C405 C403 1.415 . S
C406 H396 0.930 . S
C406 C404 1.419 . S
C406 C407 1.362 . S
C407 H397 0.930 . S
C407 C400 1.409 . S
C407 C406 1.362 . S
H408 C414 0.930 . S
H409 C417 0.930 . S
H410 C418 0.930 . S
H411 C419 0.930 . S
H412 C422 0.930 . S
H413 C423 0.930 . S
C414 H408 0.930 . S
C414 C415 1.355 . S
C414 C416 1.415 . S
C415 C414 1.355 . S
C415 C417 1.419 . S
C416 C414 1.415 . S
C416 C421 1.425 . S
C416 C423 1.409 . S
C417 H409 0.930 . S
C417 C415 1.419 . S
C417 C418 1.362 . S
C418 H410 0.930 . S
C418 C417 1.362 . S
C418 C421 1.409 . S
C419 H411 0.930 . S
C419 C420 1.355 . S
C419 C421 1.415 . S
C420 C419 1.355 . S
C420 C422 1.419 . S
C421 C416 1.425 . S
C421 C418 1.409 . S
C421 C419 1.415 . S
C422 H412 0.930 . S
C422 C420 1.419 . S
C422 C423 1.362 . S
C423 H413 0.930 . S
C423 C416 1.409 . S
C423 C422 1.362 . S
H424 C430 0.930 . S
H425 C433 0.930 . S
H426 C434 0.930 1_655 S
H427 C435 0.930 . S
H428 C438 0.930 . S
H429 C439 0.930 . S
C430 H424 0.930 . S
C430 C431 1.355 . S
C430 C432 1.415 . S
C431 C430 1.355 . S
C431 C433 1.419 . S
C432 C430 1.415 . S
C432 C437 1.425 . S
C432 C439 1.409 . S
C433 H425 0.930 . S
C433 C431 1.419 . S
C433 C434 1.362 . S
C434 H426 0.930 1_455 S
C434 C433 1.362 . S
C434 C437 1.409 . S
C435 H427 0.930 . S
C435 C436 1.355 . S
C435 C437 1.415 1_655 S
C436 C435 1.355 . S
C436 C438 1.419 1_655 S
C437 C432 1.425 . S
C437 C434 1.409 . S
C437 C435 1.415 1_455 S
C438 H428 0.930 . S
C438 C436 1.419 1_455 S
C438 C439 1.362 . S
C439 H429 0.930 . S
C439 C432 1.409 . S
C439 C438 1.362 . S
H440 C446 0.930 . S
H441 C449 0.930 . S
H442 C450 0.930 . S
H443 C451 0.930 . S
H444 C454 0.930 . S
H445 C455 0.930 . S
C446 H440 0.930 . S
C446 C447 1.355 . S
C446 C448 1.415 . S
C447 C446 1.355 . S
C447 C449 1.419 . S
C448 C446 1.415 . S
C448 C453 1.425 . S
C448 C455 1.409 1_545 S
C449 H441 0.930 . S
C449 C447 1.419 . S
C449 C450 1.362 . S
C450 H442 0.930 . S
C450 C449 1.362 . S
C450 C453 1.409 . S
C451 H443 0.930 . S
C451 C452 1.355 1_545 S
C451 C453 1.415 . S
C452 C451 1.355 1_565 S
C452 C454 1.419 . S
C453 C448 1.425 . S
C453 C450 1.409 . S
C453 C451 1.415 . S
C454 H444 0.930 . S
C454 C452 1.419 . S
C454 C455 1.362 . S
C455 H445 0.930 . S
C455 C448 1.409 1_565 S
C455 C454 1.362 . S
H456 C462 0.930 . S
H457 C465 0.930 . S
H458 C466 0.930 . S
H459 C467 0.930 . S
H460 C470 0.930 . S
H461 C471 0.930 . S
C462 H456 0.930 . S
C462 C463 1.355 . S
C462 C464 1.415 . S
C463 C462 1.355 . S
C463 C465 1.419 . S
C464 C462 1.415 . S
C464 C469 1.425 . S
C464 C471 1.409 . S
C465 H457 0.930 . S
C465 C463 1.419 . S
C465 C466 1.362 . S
C466 H458 0.930 . S
C466 C465 1.362 . S
C466 C469 1.409 . S
C467 H459 0.930 . S
C467 C468 1.355 . S
C467 C469 1.415 . S
C468 C467 1.355 . S
C468 C470 1.419 . S
C469 C464 1.425 . S
C469 C466 1.409 . S
C469 C467 1.415 . S
C470 H460 0.930 . S
C470 C468 1.419 . S
C470 C471 1.362 . S
C471 H461 0.930 . S
C471 C464 1.409 . S
C471 C470 1.362 . S
H472 C478 0.930 . S
H473 C481 0.930 . S
H474 C482 0.930 1_554 S
H475 C483 0.930 . S
H476 C486 0.932 . S
H477 C487 0.930 . S
C478 H472 0.930 . S
C478 C479 1.355 . S
C478 C480 1.415 . S
C479 C478 1.355 . S
C479 C481 1.419 . S
C480 C478 1.415 . S
C480 C485 1.425 . S
C480 C487 1.409 1_655 S
C481 H473 0.930 . S
C481 C479 1.419 . S
C481 C482 1.362 . S
C482 H474 0.930 1_556 S
C482 C481 1.362 . S
C482 C485 1.409 . S
C483 H475 0.930 . S
C483 C484 1.355 1_655 S
C483 C485 1.415 1_554 S
C484 C483 1.355 1_455 S
C484 C486 1.435 . S
C485 C480 1.425 . S
C485 C482 1.409 . S
C485 C483 1.415 1_556 S
C486 H476 0.932 . S
C486 C484 1.435 . S
C486 C487 1.345 1_554 S
C487 H477 0.930 . S
C487 C480 1.409 1_455 S
C487 C486 1.345 1_556 S
H488 C494 0.930 . S
H489 C497 0.930 . S
H490 C498 0.930 . S
H491 C499 0.930 . S
H492 C502 0.930 . S
H493 C503 0.930 . S
C494 H488 0.930 . S
C494 C495 1.355 . S
C494 C496 1.415 . S
C495 C494 1.355 . S
C495 C497 1.419 . S
C496 C494 1.415 . S
C496 C501 1.425 . S
C496 C503 1.409 . S
C497 H489 0.930 . S
C497 C495 1.419 . S
C497 C498 1.362 . S
C498 H490 0.930 . S
C498 C497 1.362 . S
C498 C501 1.409 . S
C499 H491 0.930 . S
C499 C500 1.355 . S
C499 C501 1.415 1_545 S
C500 C499 1.355 . S
C500 C502 1.419 . S
C501 C496 1.425 . S
C501 C498 1.409 . S
C501 C499 1.415 1_565 S
C502 H492 0.930 . S
C502 C500 1.419 . S
C502 C503 1.362 1_545 S
C503 H493 0.930 . S
C503 C496 1.409 . S
C503 C502 1.362 1_565 S
H504 C510 0.930 . S
H505 C513 0.930 . S
H506 C514 0.930 . S
H507 C515 0.930 . S
H508 C518 0.930 . S
H509 C519 0.930 . S
C510 H504 0.930 . S
C510 C511 1.355 . S
C510 C512 1.415 . S
C511 C510 1.355 . S
C511 C513 1.419 . S
C512 C510 1.415 . S
C512 C517 1.425 . S
C512 C519 1.409 . S
C513 H505 0.930 . S
C513 C511 1.419 . S
C513 C514 1.362 . S
C514 H506 0.930 . S
C514 C513 1.362 . S
C514 C517 1.409 . S
C515 H507 0.930 . S
C515 C516 1.355 . S
C515 C517 1.415 . S
C516 C515 1.355 . S
C516 C518 1.419 . S
C517 C512 1.425 . S
C517 C514 1.409 . S
C517 C515 1.415 . S
C518 H508 0.930 . S
C518 C516 1.419 . S
C518 C519 1.362 . S
C519 H509 0.930 . S
C519 C512 1.409 . S
C519 C518 1.362 . S
H520 C526 0.930 . S
H521 C529 0.930 . S
H522 C530 0.930 . S
H523 C531 0.930 . S
H524 C534 0.930 . S
H525 C535 0.930 . S
C526 H520 0.930 . S
C526 C527 1.355 . S
C526 C528 1.415 . S
C527 C526 1.355 . S
C527 C529 1.419 . S
C528 C526 1.415 . S
C528 C533 1.425 . S
C528 C535 1.409 1_455 S
C529 H521 0.930 . S
C529 C527 1.419 . S
C529 C530 1.362 . S
C530 H522 0.930 . S
C530 C529 1.362 . S
C530 C533 1.409 . S
C531 H523 0.930 . S
C531 C532 1.355 1_455 S
C531 C533 1.415 . S
C532 C531 1.355 1_655 S
C532 C534 1.419 . S
C533 C528 1.425 . S
C533 C530 1.409 . S
C533 C531 1.415 . S
C534 H524 0.930 . S
C534 C532 1.419 . S
C534 C535 1.362 . S
C535 H525 0.930 . S
C535 C528 1.409 1_655 S
C535 C534 1.362 . S
H536 C542 0.930 . S
H537 C545 0.930 . S
H538 C546 0.930 . S
H539 C547 0.930 . S
H540 C550 0.930 . S
H541 C551 0.930 . S
C542 H536 0.930 . S
C542 C543 1.355 . S
C542 C544 1.415 1_565 S
C543 C542 1.355 . S
C543 C545 1.419 . S
C544 C542 1.415 1_545 S
C544 C549 1.425 . S
C544 C551 1.409 . S
C545 H537 0.930 . S
C545 C543 1.419 . S
C545 C546 1.362 1_565 S
C546 H538 0.930 . S
C546 C545 1.362 1_545 S
C546 C549 1.409 . S
C547 H539 0.930 . S
C547 C548 1.355 . S
C547 C549 1.415 . S
C548 C547 1.355 . S
C548 C550 1.419 . S
C549 C544 1.425 . S
C549 C546 1.409 . S
C549 C547 1.415 . S
C550 H540 0.930 . S
C550 C548 1.419 . S
C550 C551 1.362 . S
C551 H541 0.930 . S
C551 C544 1.409 . S
C551 C550 1.362 . S
C175 C123 1.263 . S
C180 C11 1.277 . S
C191 C25 1.263 . S
C196 C137 1.282 . S
C207 C39 1.302 . S
C212 C151 1.281 . S
C223 C53 1.300 . S
C228 C165 1.298 . S
C239 C95 1.265 . S
C244 C67 1.269 . S
C255 C81 1.290 . S
C260 C109 1.267 . S
C271 C134 0.946 . S
C276 C8 0.842 . S
C287 C22 0.958 . S
C292 C148 0.831 . S
C303 C162 0.883 . S
C308 C36 0.904 . S
C319 C50 0.844 . S
C324 C92 0.945 . S
C335 C106 0.966 . S
C340 C64 0.837 . S
C351 C120 0.824 . S
C356 C78 0.966 . S
C367 C7 1.307 . S
C372 C83 1.252 . S
C383 C21 1.325 . S
C388 C13 1.296 . S
C399 C27 1.197 . S
C404 C35 1.339 . S
C415 C49 1.346 . S
C420 C41 1.237 . S
C431 C63 1.322 . S
C436 C55 1.295 . S
C447 C77 1.340 . S
C452 C69 1.198 . S
C463 C91 1.324 . S
C468 C111 1.182 . S
C479 C105 1.346 . S
C484 C125 1.244 . S
C495 C119 1.335 . S
C500 C139 1.291 . S
C511 C133 1.340 . S
C516 C153 1.199 . S
C527 C147 1.346 . S
C532 C167 1.235 . S
C543 C97 1.182 . S
C548 C161 1.327 . S
