# Generated by pormake.
# Topology zfa, (5)-cn, num edge types: 1
# Building blocks:
#     Node 0, Type 0, BuildingBlock: XOMCOT_clean_sbu_0, # of connection points: 5
#     Node 1, Type 0, BuildingBlock: XOMCOT_clean_sbu_0, # of connection points: 5
#     Node 2, Type 0, BuildingBlock: XOMCOT_clean_sbu_0, # of connection points: 5
#     Node 3, Type 0, BuildingBlock: XOMCOT_clean_sbu_0, # of connection points: 5
#     Node 4, Type 0, BuildingBlock: XOMCOT_clean_sbu_0, # of connection points: 5
#     Node 5, Type 0, BuildingBlock: XOMCOT_clean_sbu_0, # of connection points: 5
#     Node 6, Type 0, BuildingBlock: XOMCOT_clean_sbu_0, # of connection points: 5
#     Node 7, Type 0, BuildingBlock: XOMCOT_clean_sbu_0, # of connection points: 5
#     Edge 8, Type (0, 0), BuildingBlock: XUDNAN_clean_linker_2, # of connection points: 2
#     Edge 9, Type (0, 0), BuildingBlock: XUDNAN_clean_linker_2, # of connection points: 2
#     Edge 10, Type (0, 0), BuildingBlock: XUDNAN_clean_linker_2, # of connection points: 2
#     Edge 11, Type (0, 0), BuildingBlock: XUDNAN_clean_linker_2, # of connection points: 2
#     Edge 12, Type (0, 0), BuildingBlock: XUDNAN_clean_linker_2, # of connection points: 2
#     Edge 13, Type (0, 0), BuildingBlock: XUDNAN_clean_linker_2, # of connection points: 2
#     Edge 14, Type (0, 0), BuildingBlock: XUDNAN_clean_linker_2, # of connection points: 2
#     Edge 15, Type (0, 0), BuildingBlock: XUDNAN_clean_linker_2, # of connection points: 2
#     Edge 16, Type (0, 0), BuildingBlock: XUDNAN_clean_linker_2, # of connection points: 2
#     Edge 17, Type (0, 0), BuildingBlock: XUDNAN_clean_linker_2, # of connection points: 2
#     Edge 18, Type (0, 0), BuildingBlock: XUDNAN_clean_linker_2, # of connection points: 2
#     Edge 19, Type (0, 0), BuildingBlock: XUDNAN_clean_linker_2, # of connection points: 2
#     Edge 20, Type (0, 0), BuildingBlock: XUDNAN_clean_linker_2, # of connection points: 2
#     Edge 21, Type (0, 0), BuildingBlock: XUDNAN_clean_linker_2, # of connection points: 2
#     Edge 22, Type (0, 0), BuildingBlock: XUDNAN_clean_linker_2, # of connection points: 2
#     Edge 23, Type (0, 0), BuildingBlock: XUDNAN_clean_linker_2, # of connection points: 2
#     Edge 24, Type (0, 0), BuildingBlock: XUDNAN_clean_linker_2, # of connection points: 2
#     Edge 25, Type (0, 0), BuildingBlock: XUDNAN_clean_linker_2, # of connection points: 2
#     Edge 26, Type (0, 0), BuildingBlock: XUDNAN_clean_linker_2, # of connection points: 2
#     Edge 27, Type (0, 0), BuildingBlock: XUDNAN_clean_linker_2, # of connection points: 2
# Relax obj value: 0.204
# Max RMSD: 0.190
# Mean RMSD: 0.190
data_MOF--net-zfa--node1-XOMCOT_clean_sbu_0--edge1-XUDNAN_clean_linker_2
_symmetry_space_group_name_H-M    P1
_symmetry_Int_Tables_number       1
_symmetry_cell_setting            triclinic
loop_
_symmetry_equiv_pos_as_xyz
'x, y, z'
_cell_length_a     31.132416
_cell_length_b     31.143244
_cell_length_c     41.472623
_cell_angle_alpha  90.206126
_cell_angle_beta   90.480271
_cell_angle_gamma 89.982231
loop_
_atom_site_label
_atom_site_type_symbol
_atom_site_fract_x
_atom_site_fract_y
_atom_site_fract_z
_atom_type_partial_charge
Co0 Co 0.13515 0.24141 0.34941 0.0
C1 C 0.11435 0.33381 0.33998 0.0
C2 C 0.16739 0.3251 0.37249 0.0
C3 C 0.15667 0.36799 0.37208 0.0
N4 N 0.14047 0.30346 0.35264 0.0
N5 N 0.12302 0.3733 0.35181 0.0
H6 H 0.08776 0.32718 0.32394 0.0
H7 H 0.19171 0.31063 0.38768 0.0
C8 C 0.1674 0.20638 0.41367 0.0
O9 O 0.17724 0.16929 0.40052 0.0
N10 N 0.12945 0.17956 0.34614 0.0
C11 C 0.14994 0.15251 0.32592 0.0
C12 C 0.13019 0.11307 0.32685 0.0
C13 C 0.09778 0.15592 0.35927 0.0
N14 N 0.09733 0.11546 0.34767 0.0
C15 C 0.20121 0.23902 0.30075 0.0
C16 C 0.2707 0.23304 0.34229 0.0
C17 C 0.27806 0.2296 0.30911 0.0
C18 C 0.2427 0.23397 0.28814 0.0
C19 C 0.22902 0.23796 0.35382 0.0
N20 N 0.19439 0.23883 0.33332 0.0
H21 H 0.17434 0.24119 0.28422 0.0
H22 H 0.22557 0.24146 0.37938 0.0
H23 H 0.17609 0.16072 0.31027 0.0
H24 H 0.07384 0.16873 0.37543 0.0
O25 O 0.10234 0.24596 0.30895 0.0
O26 O 0.07439 0.24613 0.35777 0.0
O27 O 0.15323 0.2373 0.3963 0.0
C28 C 0.06807 0.24715 0.32685 0.0
H29 H 0.17139 0.39295 0.38664 0.0
H30 H 0.13837 0.08525 0.31243 0.0
H31 H 0.2971 0.23194 0.35944 0.0
H32 H 0.24676 0.23206 0.26227 0.0
Co33 Co 0.26196 0.65737 0.85391 0.0
C34 C 0.17121 0.62768 0.84892 0.0
C35 C 0.17734 0.68408 0.87835 0.0
C36 C 0.13497 0.67106 0.87843 0.0
N37 N 0.20011 0.65677 0.85988 0.0
N38 N 0.13128 0.63554 0.85988 0.0
H39 H 0.17912 0.60018 0.83425 0.0
H40 H 0.19075 0.71115 0.89138 0.0
C41 C 0.2799 0.64815 0.92388 0.0
O42 O 0.28518 0.60692 0.91861 0.0
N43 N 0.32372 0.65731 0.84826 0.0
C44 C 0.34629 0.67924 0.82608 0.0
C45 C 0.3866 0.66118 0.8236 0.0
C46 C 0.35057 0.62624 0.85871 0.0
N47 N 0.38893 0.6278 0.84406 0.0
C48 C 0.23379 0.73141 0.81842 0.0
C49 C 0.28373 0.79036 0.85181 0.0
C50 C 0.25715 0.80514 0.82664 0.0
C51 C 0.23197 0.77487 0.80981 0.0
C52 C 0.28426 0.74689 0.85981 0.0
N53 N 0.25951 0.71803 0.84321 0.0
H54 H 0.21438 0.70834 0.80529 0.0
H55 H 0.30563 0.73626 0.87883 0.0
H56 H 0.33313 0.70369 0.8104 0.0
H57 H 0.34084 0.59988 0.87386 0.0
O58 O 0.25586 0.63289 0.81114 0.0
O59 O 0.26329 0.59508 0.85594 0.0
O60 O 0.26953 0.67295 0.90072 0.0
C61 C 0.26015 0.59545 0.82463 0.0
H62 H 0.10906 0.68631 0.8914 0.0
H63 H 0.41042 0.66883 0.80564 0.0
H64 H 0.30471 0.81203 0.86497 0.0
H65 H 0.21067 0.78462 0.79041 0.0
Co66 Co 0.89857 0.74563 0.36193 0.0
C67 C 0.92143 0.65326 0.36185 0.0
C68 C 0.91734 0.67805 0.40983 0.0
C69 C 0.93437 0.63742 0.41124 0.0
N70 N 0.90821 0.68799 0.37884 0.0
N71 N 0.93742 0.62201 0.38097 0.0
H72 H 0.92355 0.65246 0.33586 0.0
H73 H 0.91621 0.69993 0.43001 0.0
C74 C 0.85237 0.75365 0.42504 0.0
O75 O 0.8292 0.71983 0.41729 0.0
N76 N 0.89138 0.80294 0.34571 0.0
C77 C 0.87885 0.81493 0.3159 0.0
C78 C 0.88614 0.85839 0.31277 0.0
C79 C 0.90587 0.83878 0.36029 0.0
N80 N 0.90309 0.87314 0.34075 0.0
C81 C 0.83037 0.69772 0.33143 0.0
C82 C 0.76577 0.75666 0.34307 0.0
C83 C 0.75671 0.72114 0.32324 0.0
C84 C 0.78947 0.69085 0.31838 0.0
C85 C 0.8071 0.76201 0.3561 0.0
N86 N 0.83903 0.73292 0.35 0.0
H87 H 0.85549 0.67561 0.32517 0.0
H88 H 0.81393 0.79069 0.36999 0.0
H89 H 0.8675 0.79322 0.29728 0.0
H90 H 0.92138 0.83897 0.38375 0.0
O91 O 0.92597 0.72997 0.32197 0.0
O92 O 0.9601 0.75554 0.36501 0.0
O93 O 0.88137 0.76718 0.40594 0.0
C94 C 0.96207 0.7418 0.33534 0.0
H95 H 0.94631 0.62179 0.43278 0.0
H96 H 0.88126 0.87726 0.29117 0.0
H97 H 0.74189 0.78132 0.34718 0.0
H98 H 0.78409 0.66258 0.30361 0.0
Co99 Co 0.75188 0.41709 0.85489 0.0
C100 C 0.84432 0.44077 0.856 0.0
C101 C 0.81867 0.43544 0.90347 0.0
C102 C 0.85898 0.453 0.90584 0.0
N103 N 0.8095 0.42665 0.87225 0.0
N104 N 0.87497 0.45691 0.87593 0.0
H105 H 0.84545 0.44364 0.83006 0.0
H106 H 0.79627 0.43352 0.92314 0.0
C107 C 0.75023 0.36336 0.91476 0.0
O108 O 0.78617 0.34519 0.90541 0.0
N109 N 0.6944 0.41011 0.8381 0.0
C110 C 0.68263 0.39507 0.80883 0.0
C111 C 0.63963 0.40366 0.80409 0.0
C112 C 0.65885 0.42807 0.85057 0.0
N113 N 0.62499 0.42481 0.83023 0.0
C114 C 0.79902 0.35462 0.81671 0.0
C115 C 0.74546 0.28603 0.82987 0.0
C116 C 0.77844 0.27999 0.80751 0.0
C117 C 0.80585 0.31494 0.80143 0.0
C118 C 0.73982 0.32605 0.84462 0.0
N119 N 0.76643 0.35992 0.83816 0.0
H120 H 0.81887 0.38145 0.81016 0.0
H121 H 0.71247 0.33032 0.86017 0.0
H122 H 0.70432 0.38128 0.79138 0.0
H123 H 0.65851 0.44549 0.8732 0.0
O124 O 0.76517 0.4527 0.8177 0.0
O125 O 0.73885 0.47639 0.86403 0.0
O126 O 0.73245 0.39221 0.89729 0.0
C127 C 0.75116 0.48485 0.83489 0.0
H128 H 0.87405 0.46456 0.92781 0.0
H129 H 0.62144 0.3978 0.78216 0.0
H130 H 0.72264 0.26071 0.83481 0.0
H131 H 0.83188 0.31206 0.78441 0.0
Co132 Co 0.6316 0.24388 0.19318 0.0
C133 C 0.62941 0.14848 0.18957 0.0
C134 C 0.63542 0.17634 0.14281 0.0
C135 C 0.6291 0.13301 0.1391 0.0
N136 N 0.63705 0.18633 0.17457 0.0
N137 N 0.62486 0.11563 0.16847 0.0
H138 H 0.62393 0.14533 0.21517 0.0
H139 H 0.63375 0.19895 0.12324 0.0
C140 C 0.68111 0.26489 0.13347 0.0
O141 O 0.7101 0.23658 0.14249 0.0
N142 N 0.62334 0.30063 0.21101 0.0
C143 C 0.63539 0.31574 0.24024 0.0
C144 C 0.61466 0.3543 0.24563 0.0
C145 C 0.59519 0.32957 0.19931 0.0
N146 N 0.58919 0.36247 0.21995 0.0
C147 C 0.70843 0.21057 0.22492 0.0
C148 C 0.75738 0.28377 0.21664 0.0
C149 C 0.77508 0.24951 0.23402 0.0
C150 C 0.75037 0.21223 0.23769 0.0
C151 C 0.71587 0.28057 0.20385 0.0
N152 N 0.69163 0.24438 0.20807 0.0
H153 H 0.6891 0.18259 0.22953 0.0
H154 H 0.70273 0.30784 0.19109 0.0
H155 H 0.65545 0.2986 0.25729 0.0
H156 H 0.57699 0.32501 0.1772 0.0
O157 O 0.60437 0.22025 0.23101 0.0
O158 O 0.57002 0.2401 0.18646 0.0
O159 O 0.64775 0.27116 0.15071 0.0
C160 C 0.568 0.22512 0.21566 0.0
H161 H 0.62325 0.11637 0.11651 0.0
H162 H 0.61539 0.37293 0.26771 0.0
H163 H 0.77528 0.31326 0.21346 0.0
H164 H 0.76261 0.18541 0.25156 0.0
Co165 Co 0.2641 0.15775 0.70368 0.0
C166 C 0.35474 0.12747 0.70517 0.0
C167 C 0.34036 0.16199 0.66182 0.0
C168 C 0.38157 0.14641 0.65992 0.0
N169 N 0.32336 0.15019 0.69024 0.0
N170 N 0.39051 0.12424 0.68706 0.0
H171 H 0.35089 0.11164 0.72807 0.0
H172 H 0.32376 0.17928 0.64295 0.0
C173 C 0.2191 0.20039 0.64854 0.0
O174 O 0.20024 0.22473 0.67009 0.0
N175 N 0.20429 0.16386 0.71676 0.0
C176 C 0.18405 0.19489 0.73388 0.0
C177 C 0.14125 0.18462 0.73637 0.0
C178 C 0.17314 0.13526 0.70933 0.0
N179 N 0.13479 0.14703 0.72112 0.0
C180 C 0.27754 0.22959 0.74638 0.0
C181 C 0.29077 0.29081 0.69962 0.0
C182 C 0.28435 0.30459 0.73152 0.0
C183 C 0.27968 0.27292 0.75527 0.0
C184 C 0.28737 0.24728 0.69176 0.0
N185 N 0.2771 0.21764 0.71465 0.0
H186 H 0.27199 0.20607 0.76494 0.0
H187 H 0.29162 0.23803 0.66696 0.0
H188 H 0.19792 0.22404 0.74315 0.0
H189 H 0.17806 0.10663 0.69497 0.0
O190 O 0.27652 0.13194 0.74504 0.0
O191 O 0.25608 0.09581 0.70154 0.0
O192 O 0.24659 0.17218 0.65757 0.0
C193 C 0.26616 0.09526 0.73206 0.0
H194 H 0.40272 0.15026 0.63958 0.0
H195 H 0.1168 0.20318 0.74854 0.0
H196 H 0.29737 0.31347 0.68057 0.0
H197 H 0.27523 0.28127 0.78037 0.0
Co198 Co 0.39754 0.74359 0.2081 0.0
C199 C 0.43457 0.82809 0.19232 0.0
C200 C 0.3945 0.83107 0.23406 0.0
C201 C 0.41539 0.86971 0.23102 0.0
N202 N 0.40644 0.80502 0.20976 0.0
N203 N 0.44104 0.86781 0.20494 0.0
H204 H 0.45177 0.81492 0.17202 0.0
H205 H 0.37459 0.8216 0.25405 0.0
C206 C 0.38864 0.72497 0.13973 0.0
O207 O 0.42236 0.70057 0.14504 0.0
N208 N 0.38821 0.68183 0.20678 0.0
C209 C 0.35272 0.66234 0.19507 0.0
C210 C 0.35896 0.61866 0.19549 0.0
C211 C 0.4154 0.64954 0.21447 0.0
N212 N 0.39851 0.61048 0.20765 0.0
C213 C 0.32979 0.72988 0.25379 0.0
C214 C 0.26772 0.775 0.21983 0.0
C215 C 0.25538 0.75162 0.24706 0.0
C216 C 0.28727 0.72992 0.26475 0.0
C217 C 0.31043 0.77442 0.20989 0.0
N218 N 0.34049 0.7508 0.22613 0.0
H219 H 0.35387 0.71149 0.26665 0.0
H220 H 0.31914 0.79227 0.18864 0.0
H221 H 0.32464 0.67886 0.18587 0.0
H222 H 0.44708 0.65439 0.22444 0.0
O223 O 0.43283 0.73834 0.24728 0.0
O224 O 0.45688 0.73598 0.19727 0.0
O225 O 0.37345 0.74746 0.16283 0.0
C226 C 0.46551 0.73496 0.22789 0.0
H227 H 0.41413 0.89583 0.24825 0.0
H228 H 0.33637 0.5951 0.18643 0.0
H229 H 0.24429 0.79295 0.20589 0.0
H230 H 0.27908 0.71148 0.28592 0.0
Co231 Co 0.77303 0.91635 0.69925 0.0
C232 C 0.6793 0.93353 0.70056 0.0
C233 C 0.70051 0.9176 0.65312 0.0
C234 C 0.65864 0.93089 0.65115 0.0
N235 N 0.71355 0.91808 0.68424 0.0
N236 N 0.64537 0.94178 0.68092 0.0
H237 H 0.68055 0.94273 0.7257 0.0
H238 H 0.72079 0.91255 0.63252 0.0
C239 C 0.77811 0.85447 0.64288 0.0
O240 O 0.74538 0.8326 0.65408 0.0
N241 N 0.832 0.91668 0.71349 0.0
C242 C 0.84723 0.90798 0.74328 0.0
C243 C 0.88773 0.92557 0.74631 0.0
C244 C 0.86319 0.93894 0.69886 0.0
N245 N 0.8972 0.94551 0.71848 0.0
C246 C 0.73274 0.85562 0.7423 0.0
C247 C 0.7868 0.7876 0.72831 0.0
C248 C 0.75269 0.78052 0.74958 0.0
C249 C 0.72612 0.81576 0.75706 0.0
C250 C 0.79277 0.82809 0.71467 0.0
N251 N 0.76479 0.86103 0.7205 0.0
H252 H 0.71228 0.88221 0.74865 0.0
H253 H 0.81978 0.83275 0.69887 0.0
H254 H 0.82855 0.89408 0.76248 0.0
H255 H 0.8589 0.95464 0.6758 0.0
O256 O 0.75983 0.95655 0.73428 0.0
O257 O 0.7792 0.97478 0.68503 0.0
O258 O 0.79198 0.88761 0.65798 0.0
C259 C 0.76913 0.98703 0.71395 0.0
H260 H 0.64064 0.93508 0.62897 0.0
H261 H 0.90633 0.92812 0.76841 0.0
H262 H 0.80842 0.76198 0.72152 0.0
H263 H 0.70044 0.81287 0.77434 0.0
H264 H 1.00186 0.58105 0.41342 0.0
H265 H 0.9265 0.57772 0.3249 0.0
H266 H 0.96903 0.51559 0.30608 0.0
H267 H 0.10279 0.55294 0.37894 0.0
H268 H 0.11936 0.52023 0.41259 0.0
H269 H 0.0834 0.56476 0.41884 0.0
H270 H 0.02783 0.51396 0.44506 0.0
H271 H 0.06384 0.46941 0.4393 0.0
H272 H 1.00988 0.46698 0.4233 0.0
H273 H 0.01972 0.45317 0.29739 0.0
H274 H 0.07196 0.39361 0.30056 0.0
H275 H 0.11216 0.43769 0.39551 0.0
C276 C 0.99374 0.5671 0.39025 0.0
C277 C 0.96068 0.5844 0.37065 0.0
C278 C 0.95193 0.56536 0.3402 0.0
C279 C 0.97587 0.53002 0.32934 0.0
C280 C 1.00846 0.51413 0.34921 0.0
C281 C 0.01721 0.53194 0.37909 0.0
C282 C 0.05338 0.50852 0.39611 0.0
C283 C 0.09202 0.5384 0.40195 0.0
C284 C 0.03779 0.48853 0.42781 0.0
C285 C 0.06348 0.47446 0.37124 0.0
C286 C 0.03742 0.47833 0.34427 0.0
C287 C 0.04028 0.44984 0.31841 0.0
C288 C 0.06996 0.41604 0.32048 0.0
C289 C 0.09628 0.41085 0.34828 0.0
C290 C 0.09323 0.44102 0.37368 0.0
H291 H 0.91429 0.52122 0.90975 0.0
H292 H 0.92211 0.44627 0.82158 0.0
H293 H 0.98722 0.48671 0.80626 0.0
H294 H 0.94964 0.62162 0.87651 0.0
H295 H 0.97963 0.63674 0.91214 0.0
H296 H 0.93303 0.60283 0.91553 0.0
H297 H 0.97861 0.54525 0.94511 0.0
H298 H 0.02527 0.57906 0.94206 0.0
H299 H 0.02665 0.525 0.92643 0.0
H300 H 0.053 0.53419 0.8017 0.0
H301 H 0.11421 0.58388 0.80835 0.0
H302 H 0.06332 0.62625 0.90021 0.0
C303 C 0.92974 0.51286 0.88734 0.0
C304 C 0.91308 0.48026 0.86694 0.0
C305 C 0.93405 0.47126 0.83748 0.0
C306 C 0.97109 0.494 0.82864 0.0
C307 C 0.98664 0.5258 0.84944 0.0
C308 C 0.96656 0.5352 0.87817 0.0
C309 C 0.98995 0.57029 0.89658 0.0
C310 C 0.96135 0.61023 0.9004 0.0
C311 C 1.00608 0.55391 0.92948 0.0
C312 C 0.02683 0.57883 0.87396 0.0
C313 C 0.02424 0.55303 0.84682 0.0
C314 C 0.05528 0.55454 0.82285 0.0
C315 C 0.09008 0.58273 0.82695 0.0
C316 C 0.09377 0.60899 0.85486 0.0
C317 C 0.06127 0.60718 0.8784 0.0
H318 H 0.44467 0.95249 0.2225 0.0
H319 H 0.51169 0.85463 0.16735 0.0
H320 H 0.56799 0.90695 0.15448 0.0
H321 H 0.46847 0.04118 0.17134 0.0
H322 H 0.4757 0.07865 0.20417 0.0
H323 H 0.44023 0.03347 0.20865 0.0
H324 H 0.48267 1.01011 0.25969 0.0
H325 H 0.51849 0.05506 0.25507 0.0
H326 H 0.53978 1.00129 0.25716 0.0
H327 H 0.61634 0.97043 0.1462 0.0
H328 H 0.65213 0.04131 0.14258 0.0
H329 H 0.55667 0.09624 0.20586 0.0
C330 C 0.47123 0.9417 0.20794 0.0
C331 C 0.47328 0.89902 0.19603 0.0
C332 C 0.50858 0.88698 0.17653 0.0
C333 C 0.54114 0.91647 0.16928 0.0
C334 C 0.5383 0.95789 0.18186 0.0
C335 C 0.50424 0.97055 0.20076 0.0
C336 C 0.50868 0.01713 0.21107 0.0
C337 C 0.47104 0.04419 0.19802 0.0
C338 C 0.51265 0.02111 0.24794 0.0
C339 C 0.55045 0.02875 0.19479 0.0
C340 C 0.56698 0.9941 0.17803 0.0
C341 C 0.60401 0.99761 0.15956 0.0
C342 C 0.62417 0.03777 0.1577 0.0
C343 C 0.6076 0.07368 0.17445 0.0
C344 C 0.57066 0.06888 0.19364 0.0
H345 H 0.59472 0.98781 0.63961 0.0
H346 H 0.60844 0.95096 0.74009 0.0
H347 H 0.54502 0.99529 0.7534 0.0
H348 H 0.56314 0.09516 0.65255 0.0
H349 H 0.52537 0.09581 0.61938 0.0
H350 H 0.57149 0.061 0.61798 0.0
H351 H 0.52193 0.99507 0.60884 0.0
H352 H 0.47567 0.02974 0.60981 0.0
H353 H 0.47922 0.98466 0.63685 0.0
H354 H 0.48007 0.04564 0.75531 0.0
H355 H 0.41868 0.09415 0.74541 0.0
H356 H 0.44768 0.09365 0.64314 0.0
C357 C 0.58436 0.98813 0.6644 0.0
C358 C 0.60692 0.96557 0.68876 0.0
C359 C 0.59214 0.96819 0.72098 0.0
C360 C 0.55602 0.9932 0.72876 0.0
C361 C 0.53493 0.01525 0.70405 0.0
C362 C 0.54851 1.01259 0.67251 0.0
C363 C 0.52057 0.03906 0.65021 0.0
C364 C 0.54671 0.07488 0.63409 0.0
C365 C 0.498 1.01042 0.62495 0.0
C366 C 0.48901 0.05724 0.6741 0.0
C367 C 0.49776 0.04338 0.70507 0.0
C368 C 0.47282 0.05641 0.73108 0.0
C369 C 0.43783 0.08389 0.72516 0.0
C370 C 0.42789 0.09792 0.69342 0.0
C371 C 0.45428 0.08434 0.66776 0.0
H372 H 0.48906 0.25969 0.20099 0.0
H373 H 0.55335 0.17172 0.26634 0.0
H374 H 0.48506 0.16034 0.29508 0.0
H375 H 0.42509 0.31002 0.26004 0.0
H376 H 0.37809 0.31637 0.23481 0.0
H377 H 0.43054 0.31474 0.21696 0.0
H378 H 0.40754 0.25179 0.18008 0.0
H379 H 0.35455 0.2533 0.19723 0.0
H380 H 0.38499 0.20405 0.19764 0.0
H381 H 0.41111 0.16077 0.31807 0.0
H382 H 0.33664 0.17392 0.33495 0.0
H383 H 0.3198 0.26401 0.25618 0.0
C384 C 0.48851 0.23746 0.22101 0.0
C385 C 0.5264 0.21625 0.23134 0.0
C386 C 0.52469 0.18819 0.25804 0.0
C387 C 0.48603 0.18146 0.27444 0.0
C388 C 0.44939 0.20332 0.26399 0.0
C389 C 0.45023 0.23081 0.23794 0.0
C390 C 0.40679 0.25216 0.23288 0.0
C391 C 0.41036 0.30123 0.23641 0.0
C392 C 0.38732 0.23956 0.2 0.0
C393 C 0.38153 0.23269 0.26038 0.0
C394 C 0.40674 0.20435 0.2778 0.0
C395 C 0.39109 0.18291 0.30463 0.0
C396 C 0.34874 0.19087 0.31416 0.0
C397 C 0.32227 0.22033 0.29714 0.0
C398 C 0.33895 0.24108 0.26959 0.0
H399 H 0.25437 1.01184 0.71098 0.0
H400 H 0.27533 0.08877 0.79719 0.0
H401 H 0.27214 0.02348 0.83046 0.0
H402 H 0.18065 0.93545 0.74642 0.0
H403 H 0.20186 0.88999 0.72474 0.0
H404 H 0.20445 0.94287 0.70737 0.0
H405 H 0.28687 0.93535 0.70119 0.0
H406 H 0.28455 0.88236 0.71832 0.0
H407 H 0.3194 0.92239 0.73599 0.0
H408 H 0.26611 0.95062 0.8546 0.0
H409 H 0.26243 0.87389 0.86805 0.0
H410 H 0.24921 0.84256 0.76624 0.0
C411 C 0.25822 0.01489 0.73686 0.0
C412 C 0.26505 0.05547 0.75149 0.0
C413 C 0.27015 0.05809 0.78541 0.0
C414 C 0.26822 0.02118 0.80456 0.0
C415 C 0.26136 0.98174 0.78947 0.0
C416 C 0.25674 0.9782 0.7564 0.0
C417 C 0.25103 0.9316 0.74635 0.0
C418 C 0.20687 0.92457 0.73027 0.0
C419 C 0.28765 0.91708 0.72416 0.0
C420 C 0.25364 0.90958 0.77892 0.0
C421 C 0.2591 0.93926 0.80343 0.0
C422 C 0.26223 0.92701 0.83559 0.0
C423 C 0.26044 0.88318 0.84295 0.0
C424 C 0.25615 0.85177 0.81826 0.0
C425 C 0.2522 0.8655 0.7858 0.0
H426 H 0.50298 0.7508 0.28801 0.0
H427 H 0.52924 0.70111 0.19219 0.0
H428 H 0.60476 0.68998 0.20726 0.0
H429 H 0.60177 0.80851 0.29697 0.0
H430 H 0.60913 0.79678 0.33918 0.0
H431 H 0.5558 0.79875 0.32206 0.0
H432 H 0.54106 0.7217 0.34246 0.0
H433 H 0.59431 0.71954 0.35976 0.0
H434 H 0.57707 0.67881 0.33151 0.0
H435 H 0.67739 0.68755 0.23047 0.0
H436 H 0.74464 0.69288 0.26138 0.0
H437 H 0.67438 0.74282 0.34356 0.0
C438 C 0.52463 0.73715 0.27044 0.0
C439 C 0.51017 0.72692 0.23889 0.0
C440 C 0.53954 0.70952 0.21642 0.0
C441 C 0.58257 0.70289 0.22475 0.0
C442 C 0.59608 0.71388 0.25571 0.0
C443 C 0.56824 0.73054 0.27834 0.0
C444 C 0.59218 0.74087 0.30954 0.0
C445 C 0.58956 0.78909 0.31739 0.0
C446 C 0.57513 0.71359 0.33747 0.0
C447 C 0.63765 0.72775 0.30061 0.0
C448 C 0.63882 0.71213 0.26944 0.0
C449 C 0.6769 0.6991 0.25511 0.0
C450 C 0.715 0.70194 0.27307 0.0
C451 C 0.71507 0.71749 0.30526 0.0
C452 C 0.67562 0.73067 0.3191 0.0
H453 H 0.76422 0.19649 0.82847 0.0
H454 H 0.79881 0.26995 0.74369 0.0
H455 H 0.80046 0.20336 0.71165 0.0
H456 H 0.82887 0.10217 0.81028 0.0
H457 H 0.78947 0.06478 0.82495 0.0
H458 H 0.79273 0.11804 0.84191 0.0
H459 H 0.71226 0.13021 0.82845 0.0
H460 H 0.70884 0.07708 0.81129 0.0
H461 H 0.69344 0.12304 0.78756 0.0
H462 H 0.79604 0.12994 0.68802 0.0
H463 H 0.78839 0.05348 0.67442 0.0
H464 H 0.75543 0.02557 0.77371 0.0
C465 C 0.77218 0.19865 0.80317 0.0
C466 C 0.78176 0.23885 0.78881 0.0
C467 C 0.79228 0.23982 0.75562 0.0
C468 C 0.79292 0.20209 0.73705 0.0
C469 C 0.78292 0.16331 0.75186 0.0
C470 C 0.77293 0.16115 0.78418 0.0
C471 C 0.76299 0.11514 0.7939 0.0
C472 C 0.79546 0.09909 0.81926 0.0
C473 C 0.71663 0.11115 0.80601 0.0
C474 C 0.76865 0.09192 0.7619 0.0
C475 C 0.78016 0.12052 0.73807 0.0
C476 C 0.7871 0.10724 0.70649 0.0
C477 C 0.78253 0.06359 0.699 0.0
C478 C 0.77114 0.03331 0.72292 0.0
C479 C 0.76396 0.04785 0.75484 0.0
H480 H 0.02307 0.20165 0.27995 0.0
H481 H 1.01402 0.30942 0.34602 0.0
H482 H 0.93928 0.3222 0.3284 0.0
H483 H 0.95462 0.24474 0.21547 0.0
H484 H 0.92893 0.19406 0.20691 0.0
H485 H 0.98307 0.19519 0.22261 0.0
H486 H 0.96021 0.14634 0.26985 0.0
H487 H 0.90595 0.14526 0.25442 0.0
H488 H 0.91637 0.16267 0.29523 0.0
H489 H 0.86623 0.32388 0.3042 0.0
H490 H 0.79667 0.31206 0.27661 0.0
H491 H 0.84856 0.19954 0.22887 0.0
C492 C 1.0054 0.22834 0.29014 0.0
C493 C 0.02446 0.25522 0.31383 0.0
C494 C 1.00011 0.28892 0.32753 0.0
C495 C 0.95763 0.29638 0.31771 0.0
C496 C 0.93945 0.2692 0.29463 0.0
C497 C 0.96223 0.23558 0.28117 0.0
C498 C 0.93366 0.20972 0.25832 0.0
C499 C 0.95112 0.21102 0.22378 0.0
C500 C 0.92877 0.16325 0.27017 0.0
C501 C 0.89155 0.23432 0.26095 0.0
C502 C 0.89599 0.26874 0.28184 0.0
C503 C 0.86226 0.29696 0.28788 0.0
C504 C 0.82291 0.29005 0.27207 0.0
C505 C 0.81722 0.2549 0.25074 0.0
C506 C 0.85197 0.22645 0.2453 0.0
H507 H 0.28707 0.51541 0.84366 0.0
H508 H 0.23486 0.58531 0.76193 0.0
H509 H 0.23612 0.51886 0.72924 0.0
H510 H 0.35898 0.44723 0.79693 0.0
H511 H 0.35116 0.40197 0.82311 0.0
H512 H 0.3462 0.45574 0.83886 0.0
H513 H 0.26939 0.43561 0.85871 0.0
H514 H 0.27451 0.38269 0.84149 0.0
H515 H 0.23012 0.41656 0.82983 0.0
H516 H 0.2412 0.44471 0.70596 0.0
H517 H 0.25133 0.36849 0.69289 0.0
H518 H 0.30534 0.34729 0.78861 0.0
C519 C 0.2757 0.51662 0.81893 0.0
C520 C 0.2606 0.55543 0.80534 0.0
C521 C 0.24653 0.55592 0.7728 0.0
C522 C 0.24709 0.51834 0.75406 0.0
C523 C 0.26224 0.48063 0.76813 0.0
C524 C 0.27655 0.47948 0.79974 0.0
C525 C 0.29184 0.43483 0.80878 0.0
C526 C 0.33991 0.43499 0.81748 0.0
C527 C 0.26484 0.41634 0.83634 0.0
C528 C 0.28362 0.41104 0.77738 0.0
C529 C 0.26641 0.43806 0.75433 0.0
C530 C 0.25522 0.42335 0.72368 0.0
C531 C 0.26166 0.37986 0.71639 0.0
C532 C 0.27981 0.35132 0.73943 0.0
C533 C 0.29109 0.36763 0.77033 0.0
H534 H 0.0446 0.75655 0.35795 0.0
H535 H 0.97188 0.72345 0.2716 0.0
H536 H 0.03882 0.72191 0.24035 0.0
H537 H 0.12138 0.82542 0.31961 0.0
H538 H 0.16625 0.80803 0.34402 0.0
H539 H 0.11266 0.80633 0.36002 0.0
H540 H 0.12176 0.72536 0.37237 0.0
H541 H 0.17541 0.72678 0.35643 0.0
H542 H 0.13678 0.68906 0.34043 0.0
H543 H 0.11257 0.72598 0.2179 0.0
H544 H 0.18969 0.73263 0.20584 0.0
H545 H 0.21648 0.76106 0.30653 0.0
C546 C 0.04283 0.7489 0.33248 0.0
C547 C 1.00291 0.74018 0.31721 0.0
C548 C 1.00199 0.73019 0.28387 0.0
C549 C 0.03987 0.72928 0.26587 0.0
C550 C 0.07861 0.73814 0.28154 0.0
C551 C 0.08054 0.7475 0.31411 0.0
C552 C 0.12662 0.75556 0.32491 0.0
C553 C 0.13203 0.80157 0.33791 0.0
C554 C 0.14098 0.72219 0.35002 0.0
C555 C 0.15014 0.74949 0.29327 0.0
C556 C 0.12165 0.73965 0.2686 0.0
C557 C 0.13522 0.73355 0.23702 0.0
C558 C 0.17907 0.73763 0.23038 0.0
C559 C 0.20909 0.74751 0.25519 0.0
C560 C 0.19433 0.7532 0.28712 0.0
H561 H 0.81151 0.7156 0.76385 0.0
H562 H 0.67487 0.74471 0.76576 0.0
H563 H 0.6607 0.67295 0.78758 0.0
H564 H 0.79796 0.60572 0.73655 0.0
H565 H 0.84261 0.58566 0.76001 0.0
H566 H 0.84283 0.64031 0.7459 0.0
H567 H 0.85392 0.66748 0.80448 0.0
H568 H 0.85376 0.61292 0.81875 0.0
H569 H 0.81664 0.65146 0.83521 0.0
H570 H 0.66085 0.59892 0.81034 0.0
H571 H 0.67539 0.52577 0.83068 0.0
H572 H 0.81047 0.54083 0.80927 0.0
C573 C 0.77847 0.70703 0.76844 0.0
C574 C 0.74444 0.73671 0.76321 0.0
C575 C 0.70186 0.7236 0.77022 0.0
C576 C 0.69331 0.68253 0.78236 0.0
C577 C 0.7275 0.65432 0.787 0.0
C578 C 0.76921 0.66578 0.78004 0.0
C579 C 0.79993 0.62878 0.78657 0.0
C580 C 0.82214 0.61426 0.7554 0.0
C581 C 0.83301 0.6409 0.81282 0.0
C582 C 0.76892 0.59485 0.79848 0.0
C583 C 0.72734 0.61055 0.79875 0.0
C584 C 0.69317 0.58615 0.81002 0.0
C585 C 0.70168 0.54475 0.82152 0.0
C586 C 0.7438 0.52781 0.82114 0.0
C587 C 0.77786 0.55297 0.80923 0.0
H588 H 0.20357 0.15116 0.45847 0.0
H589 H 0.14697 0.27804 0.44846 0.0
H590 H 0.1561 0.29017 0.50676 0.0
H591 H 0.15618 0.12565 0.53425 0.0
H592 H 0.2028 0.09836 0.55012 0.0
H593 H 0.19313 0.09957 0.50725 0.0
H594 H 0.26847 0.13263 0.49857 0.0
H595 H 0.2784 0.13148 0.54143 0.0
H596 H 0.2831 0.18124 0.51969 0.0
H597 H 0.16787 0.28794 0.5659 0.0
H598 H 0.18394 0.27255 0.62283 0.0
H599 H 0.23526 0.14791 0.59586 0.0
C600 C 0.1933 0.18158 0.46851 0.0
C601 C 0.17447 0.21362 0.44874 0.0
C602 C 0.16149 0.25296 0.46294 0.0
C603 C 0.16654 0.26021 0.4961 0.0
C604 C 0.1849 0.22798 0.51487 0.0
C605 C 0.19836 0.18953 0.50169 0.0
C606 C 0.2168 0.16024 0.52758 0.0
C607 C 0.19066 0.11848 0.52993 0.0
C608 C 0.26453 0.15086 0.52145 0.0
C609 C 0.21107 0.18811 0.55736 0.0
C610 C 0.19253 0.227 0.54932 0.0
C611 C 0.18265 0.25774 0.57251 0.0
C612 C 0.19181 0.24856 0.60485 0.0
C613 C 0.21093 0.20903 0.61388 0.0
C614 C 0.22098 0.17854 0.58969 0.0
H615 H 0.39493 0.66018 0.09582 0.0
H616 H 0.33112 0.782 0.11249 0.0
H617 H 0.29487 0.77551 0.05912 0.0
H618 H 0.41314 0.67212 1.01169 0.0
H619 H 0.4026 0.61649 1.00246 0.0
H620 H 0.42324 0.6314 0.0416 0.0
H621 H 0.35894 0.59331 0.06864 0.0
H622 H 0.33805 0.57833 0.02957 0.0
H623 H 0.30492 0.60803 0.05725 0.0
H624 H 0.2687 0.75642 1.00206 0.0
H625 H 0.25147 0.72478 0.94862 0.0
H626 H 0.32944 0.61354 0.97201 0.0
C627 C 0.37349 0.6857 0.08827 0.0
C628 C 0.36622 0.72191 0.10814 0.0
C629 C 0.33728 0.7541 0.09757 0.0
C630 C 0.31662 0.75065 0.06731 0.0
C631 C 0.32475 0.71449 0.04826 0.0
C632 C 0.3522 0.68241 0.05858 0.0
C633 C 0.35506 0.64633 0.03413 0.0
C634 C 0.40125 0.64132 1.02174 0.0
C635 C 0.33823 0.60401 0.04825 0.0
C636 C 0.32532 0.66322 1.00809 0.0
C637 C 0.30832 0.7027 1.0165 0.0
C638 C 0.28149 0.72532 0.99547 0.0
C639 C 0.27193 0.70713 0.96516 0.0
C640 C 0.28871 0.66647 0.9563 0.0
C641 C 0.3155 0.6443 0.97826 0.0
H642 H 0.75236 0.79113 0.60022 0.0
H643 H 0.84565 0.89359 0.61326 0.0
H644 H 0.87447 0.87874 0.55924 0.0
H645 H 0.82266 0.71861 0.55652 0.0
H646 H 0.7806 0.69971 0.52992 0.0
H647 H 0.76778 0.71766 0.57005 0.0
H648 H 0.71309 0.772 0.54632 0.0
H649 H 0.72592 0.7544 0.50612 0.0
H650 H 0.73067 0.81037 0.51677 0.0
H651 H 0.89186 0.85471 0.50333 0.0
H652 H 0.89862 0.82099 0.44977 0.0
H653 H 0.79467 0.7335 0.47271 0.0
C654 C 0.77905 0.81024 0.59184 0.0
C655 C 0.79666 0.84358 0.61107 0.0
C656 C 0.83151 0.86791 0.59905 0.0
C657 C 0.84814 0.85975 0.56835 0.0
C658 C 0.82972 0.82708 0.54989 0.0
C659 C 0.79613 0.80251 0.56118 0.0
C660 C 0.78205 0.76954 0.53625 0.0
C661 C 0.78868 0.72366 0.54895 0.0
C662 C 0.73515 0.77705 0.52575 0.0
C663 C 0.81287 0.77959 0.50918 0.0
C664 C 0.84002 0.81295 0.51759 0.0
C665 C 0.87093 0.8284 0.49651 0.0
C666 C 0.87446 0.80904 0.46609 0.0
C667 C 0.8473 0.77445 0.45699 0.0
C668 C 0.81601 0.75976 0.47891 0.0
H669 H 0.74401 0.25323 0.08828 0.0
H670 H 0.62623 0.32378 0.10629 0.0
H671 H 0.63073 0.3562 0.05215 0.0
H672 H 0.7977 0.3368 0.04391 0.0
H673 H 0.82251 0.29981 1.01619 0.0
H674 H 0.81024 0.28287 0.05655 0.0
H675 H 0.76588 0.21922 0.03349 0.0
H676 H 0.77778 0.23611 0.99306 0.0
H677 H 0.72275 0.22967 1.00532 0.0
H678 H 0.64755 0.38003 0.99555 0.0
H679 H 0.67638 0.395 0.94147 0.0
H680 H 0.783 0.30852 0.96057 0.0
C681 C 0.71924 0.27567 0.08098 0.0
C682 C 0.68474 0.28592 0.1016 0.0
C683 C 0.65297 0.31538 0.09096 0.0
C684 C 0.65522 0.33394 0.06022 0.0
C685 C 0.68942 0.32275 0.0404 0.0
C686 C 0.72094 0.29442 0.0504 0.0
C687 C 0.7542 0.28755 1.02443 0.0
C688 C 0.7988 0.30267 0.03596 0.0
C689 C 0.75518 0.24034 1.01343 0.0
C690 C 0.73644 0.31639 0.9982 0.0
C691 C 0.69905 0.3364 1.00787 0.0
C692 C 0.67684 0.36459 0.98774 0.0
C693 C 0.69348 0.37284 0.95703 0.0
C694 C 0.73199 0.35296 0.9467 0.0
C695 C 0.75347 0.32419 0.96763 0.0
H696 H 0.94678 0.92133 0.29796 0.0
H697 H 0.90559 0.91622 0.39738 0.0
H698 H 0.94773 0.9818 0.40956 0.0
H699 H 0.05201 0.94898 0.31428 0.0
H700 H 0.05855 0.98429 0.28033 0.0
H701 H 0.02027 0.94112 0.27818 0.0
H702 H 0.95932 0.99505 0.2645 0.0
H703 H 0.99762 0.0384 0.26608 0.0
H704 H 0.95026 0.0404 0.29072 0.0
H705 H 0.99878 0.0446 0.41156 0.0
H706 H 0.0555 0.09923 0.40324 0.0
H707 H 0.06464 0.06085 0.303 0.0
C708 C 0.94551 0.93487 0.32199 0.0
C709 C 0.92262 0.9142 0.34669 0.0
C710 C 0.9229 0.93188 0.37818 0.0
C711 C 0.94658 0.96907 0.38525 0.0
C712 C 0.96983 0.98803 0.36053 0.0
C713 C 0.96932 0.97163 0.32948 0.0
C714 C 0.99986 0.99572 0.30792 0.0
C715 C 0.03473 0.96573 0.2944 0.0
C716 C 0.97529 0.01876 0.2807 0.0
C717 C 0.0185 0.02745 0.33187 0.0
C718 C 1.00031 0.02306 0.36195 0.0
C719 C 1.01304 0.04853 0.38804 0.0
C720 C 0.04518 0.07935 0.38317 0.0
C721 C 0.06455 0.08381 0.35262 0.0
C722 C 0.05082 0.0576 0.32672 0.0
H723 H 0.47253 0.62511 0.86237 0.0
H724 H 0.36971 0.55081 0.81887 0.0
H725 H 0.4191 0.48897 0.81236 0.0
H726 H 0.55816 0.58486 0.81337 0.0
H727 H 0.59688 0.58349 0.8459 0.0
H728 H 0.55346 0.62163 0.84685 0.0
H729 H 0.53132 0.59239 0.90286 0.0
H730 H 0.57447 0.55387 0.90155 0.0
H731 H 0.52004 0.53596 0.90735 0.0
H732 H 0.4794 0.43672 0.80839 0.0
H733 H 0.54813 0.39668 0.80807 0.0
H734 H 0.61059 0.50299 0.85725 0.0
C735 C 0.46067 0.59559 0.85168 0.0
C736 C 0.41769 0.59219 0.84112 0.0
C737 C 0.40267 0.55343 0.82722 0.0
C738 C 0.43028 0.51833 0.8235 0.0
C739 C 0.47249 0.52237 0.83434 0.0
C740 C 0.48766 0.55986 0.84834 0.0
C741 C 0.53453 0.55553 0.85786 0.0
C742 C 0.56238 0.58833 0.8399 0.0
C743 C 0.54042 0.55967 0.89459 0.0
C744 C 0.54337 0.51011 0.84648 0.0
C745 C 0.50717 0.4916 0.83292 0.0
C746 C 0.50792 0.45067 0.81924 0.0
C747 C 0.54696 0.42822 0.81908 0.0
C748 C 0.58445 0.44661 0.83279 0.0
C749 C 0.58232 0.48783 0.84706 0.0
H750 H 0.48383 0.59417 0.22037 0.0
H751 H 0.36115 0.53132 0.20198 0.0
H752 H 0.39705 0.46129 0.20383 0.0
H753 H 0.54817 0.52471 0.17411 0.0
H754 H 0.59288 0.5248 0.202 0.0
H755 H 0.55763 0.57056 0.19987 0.0
H756 H 0.54285 0.56464 0.26099 0.0
H757 H 0.57825 0.51898 0.26347 0.0
H758 H 0.52366 0.51463 0.27723 0.0
H759 H 0.44647 0.39815 0.20424 0.0
H760 H 0.50613 0.34571 0.20716 0.0
H761 H 0.59551 0.44841 0.22912 0.0
C762 C 0.46401 0.56601 0.21714 0.0
C763 C 0.41929 0.56905 0.21067 0.0
C764 C 0.39538 0.53059 0.20637 0.0
C765 C 0.41548 0.49036 0.20757 0.0
C766 C 0.45949 0.48882 0.21354 0.0
C767 C 0.48341 0.52553 0.21866 0.0
C768 C 0.53035 0.5149 0.22462 0.0
C769 C 0.55893 0.53493 0.19859 0.0
C770 C 0.5446 0.52913 0.25861 0.0
C771 C 0.52908 0.46641 0.22167 0.0
C772 C 0.48787 0.45212 0.21505 0.0
C773 C 0.47878 0.40887 0.20972 0.0
C774 C 0.51273 0.37943 0.21124 0.0
C775 C 0.55503 0.3933 0.21839 0.0
C776 C 0.56325 0.43725 0.22393 0.0
H777 H 0.1241 0.06155 0.72787 0.0
H778 H 0.05668 0.18048 0.70838 0.0
H779 H 0.98817 0.1405 0.70342 0.0
H780 H 0.06197 0.99263 0.67474 0.0
H781 H 0.06212 0.9479 0.70221 0.0
H782 H 0.10611 0.98547 0.70264 0.0
H783 H 0.09448 0.99948 0.76346 0.0
H784 H 0.0505 0.96194 0.76337 0.0
H785 H 0.04231 0.01618 0.77734 0.0
H786 H 0.92806 0.08817 0.70017 0.0
H787 H 0.8779 0.02694 0.70304 0.0
H788 H 0.98329 0.94206 0.72785 0.0
C789 C 0.09486 0.0789 0.72223 0.0
C790 C 0.09527 0.12385 0.71819 0.0
C791 C 0.05659 0.146 0.71156 0.0
C792 C 0.01779 0.12357 0.70856 0.0
C793 C 0.01841 0.0792 0.71271 0.0
C794 C 0.05579 0.05709 0.71976 0.0
C795 C 0.04718 1.00973 0.7248 0.0
C796 C 0.07074 0.98233 0.69958 0.0
C797 C 0.05933 0.99605 0.7593 0.0
C798 C 0.99904 1.00868 0.71943 0.0
C799 C 0.98329 0.04906 0.71208 0.0
C800 C 0.93995 0.0564 0.70584 0.0
C801 C 0.91183 0.02152 0.70734 0.0
C802 C 0.92714 0.98007 0.71534 0.0
C803 C 0.97119 0.97356 0.72157 0.0
loop_
_geom_bond_atom_site_label_1
_geom_bond_atom_site_label_2
_geom_bond_distance
_geom_bond_site_symmetry_2
_ccdc_geom_bond_type
Co0 N4 2.148 . S
Co0 N10 2.128 . S
Co0 N20 2.194 . S
Co0 O25 2.351 . S
Co0 O26 2.155 1_455 S
Co0 O27 2.096 . S
C1 N4 1.301 . S
C1 N5 1.328 . S
C1 H6 0.930 . S
C2 C3 1.333 . S
C2 N4 1.317 . S
C2 H7 0.930 . S
C3 C2 1.333 . S
C3 N5 1.350 . S
C3 H29 0.931 . S
N4 Co0 2.148 . S
N4 C1 1.301 . S
N4 C2 1.317 . S
N5 C1 1.328 . S
N5 C3 1.350 . S
H6 C1 0.930 . S
H7 C2 0.930 . S
C8 O9 1.224 . S
C8 O27 1.247 . S
O9 C8 1.224 . S
N10 Co0 2.128 . S
N10 C11 1.355 . S
N10 C13 1.311 . S
C11 N10 1.355 . S
C11 C12 1.363 . S
C11 H23 0.929 . S
C12 C11 1.363 . S
C12 N14 1.375 . S
C12 H30 0.931 . S
C13 N10 1.311 . S
C13 N14 1.347 . S
C13 H24 0.929 . S
N14 C12 1.375 . S
N14 C13 1.347 . S
C15 C18 1.365 . S
C15 N20 1.328 . S
C15 H21 0.929 . S
C16 C17 1.362 . S
C16 C19 1.378 . S
C16 H31 0.929 . S
C17 C16 1.362 . S
C17 C18 1.366 . S
C18 C15 1.365 . S
C18 C17 1.366 . S
C18 H32 0.930 . S
C19 C16 1.378 . S
C19 N20 1.315 . S
C19 H22 0.930 . S
N20 Co0 2.194 . S
N20 C15 1.328 . S
N20 C19 1.315 . S
H21 C15 0.929 . S
H22 C19 0.930 . S
H23 C11 0.929 . S
H24 C13 0.929 . S
O25 Co0 2.351 . S
O25 C28 1.244 1_455 S
O26 Co0 2.155 1_655 S
O26 C28 1.240 . S
O27 Co0 2.096 . S
O27 C8 1.247 . S
C28 O25 1.244 1_655 S
C28 O26 1.240 . S
H29 C3 0.931 . S
H30 C12 0.931 . S
H31 C16 0.929 . S
H32 C18 0.930 . S
Co33 N37 2.148 . S
Co33 N43 2.128 . S
Co33 N53 2.194 . S
Co33 O58 2.351 . S
Co33 O59 2.155 . S
Co33 O60 2.096 . S
C34 N37 1.301 . S
C34 N38 1.328 . S
C34 H39 0.930 . S
C35 C36 1.333 . S
C35 N37 1.317 . S
C35 H40 0.930 . S
C36 C35 1.333 . S
C36 N38 1.350 . S
C36 H62 0.931 . S
N37 Co33 2.148 . S
N37 C34 1.301 . S
N37 C35 1.317 . S
N38 C34 1.328 . S
N38 C36 1.350 . S
H39 C34 0.930 . S
H40 C35 0.930 . S
C41 O42 1.224 . S
C41 O60 1.247 . S
O42 C41 1.224 . S
N43 Co33 2.128 . S
N43 C44 1.355 . S
N43 C46 1.311 . S
C44 N43 1.355 . S
C44 C45 1.363 . S
C44 H56 0.929 . S
C45 C44 1.363 . S
C45 N47 1.375 . S
C45 H63 0.931 . S
C46 N43 1.311 . S
C46 N47 1.347 . S
C46 H57 0.929 . S
N47 C45 1.375 . S
N47 C46 1.347 . S
C48 C51 1.365 . S
C48 N53 1.328 . S
C48 H54 0.929 . S
C49 C50 1.362 . S
C49 C52 1.378 . S
C49 H64 0.929 . S
C50 C49 1.362 . S
C50 C51 1.366 . S
C51 C48 1.365 . S
C51 C50 1.366 . S
C51 H65 0.930 . S
C52 C49 1.378 . S
C52 N53 1.315 . S
C52 H55 0.930 . S
N53 Co33 2.194 . S
N53 C48 1.328 . S
N53 C52 1.315 . S
H54 C48 0.929 . S
H55 C52 0.930 . S
H56 C44 0.929 . S
H57 C46 0.929 . S
O58 Co33 2.351 . S
O58 C61 1.244 . S
O59 Co33 2.155 . S
O59 C61 1.240 . S
O60 Co33 2.096 . S
O60 C41 1.247 . S
C61 O58 1.244 . S
C61 O59 1.240 . S
H62 C36 0.931 . S
H63 C45 0.931 . S
H64 C49 0.929 . S
H65 C51 0.930 . S
Co66 N70 2.148 . S
Co66 N76 2.128 . S
Co66 N86 2.194 . S
Co66 O91 2.351 . S
Co66 O92 2.155 1_655 S
Co66 O93 2.096 . S
C67 N70 1.301 . S
C67 N71 1.328 . S
C67 H72 0.930 . S
C68 C69 1.333 . S
C68 N70 1.317 . S
C68 H73 0.930 . S
C69 C68 1.333 . S
C69 N71 1.350 . S
C69 H95 0.931 . S
N70 Co66 2.148 . S
N70 C67 1.301 . S
N70 C68 1.317 . S
N71 C67 1.328 . S
N71 C69 1.350 . S
H72 C67 0.930 . S
H73 C68 0.930 . S
C74 O75 1.224 . S
C74 O93 1.247 . S
O75 C74 1.224 . S
N76 Co66 2.128 . S
N76 C77 1.355 . S
N76 C79 1.311 . S
C77 N76 1.355 . S
C77 C78 1.363 . S
C77 H89 0.929 . S
C78 C77 1.363 . S
C78 N80 1.375 . S
C78 H96 0.931 . S
C79 N76 1.311 . S
C79 N80 1.347 . S
C79 H90 0.929 . S
N80 C78 1.375 . S
N80 C79 1.347 . S
C81 C84 1.365 . S
C81 N86 1.328 . S
C81 H87 0.929 . S
C82 C83 1.362 . S
C82 C85 1.378 . S
C82 H97 0.929 . S
C83 C82 1.362 . S
C83 C84 1.366 . S
C84 C81 1.365 . S
C84 C83 1.366 . S
C84 H98 0.930 . S
C85 C82 1.378 . S
C85 N86 1.315 . S
C85 H88 0.930 . S
N86 Co66 2.194 . S
N86 C81 1.328 . S
N86 C85 1.315 . S
H87 C81 0.929 . S
H88 C85 0.930 . S
H89 C77 0.929 . S
H90 C79 0.929 . S
O91 Co66 2.351 . S
O91 C94 1.244 1_655 S
O92 Co66 2.155 1_455 S
O92 C94 1.240 . S
O93 Co66 2.096 . S
O93 C74 1.247 . S
C94 O91 1.244 1_455 S
C94 O92 1.240 . S
H95 C69 0.931 . S
H96 C78 0.931 . S
H97 C82 0.929 . S
H98 C84 0.930 . S
Co99 N103 2.148 . S
Co99 N109 2.128 . S
Co99 N119 2.194 . S
Co99 O124 2.351 . S
Co99 O125 2.155 . S
Co99 O126 2.096 . S
C100 N103 1.301 . S
C100 N104 1.328 . S
C100 H105 0.930 . S
C101 C102 1.333 . S
C101 N103 1.317 . S
C101 H106 0.930 . S
C102 C101 1.333 . S
C102 N104 1.350 . S
C102 H128 0.931 . S
N103 Co99 2.148 . S
N103 C100 1.301 . S
N103 C101 1.317 . S
N104 C100 1.328 . S
N104 C102 1.350 . S
H105 C100 0.930 . S
H106 C101 0.930 . S
C107 O108 1.224 . S
C107 O126 1.247 . S
O108 C107 1.224 . S
N109 Co99 2.128 . S
N109 C110 1.355 . S
N109 C112 1.311 . S
C110 N109 1.355 . S
C110 C111 1.363 . S
C110 H122 0.929 . S
C111 C110 1.363 . S
C111 N113 1.375 . S
C111 H129 0.931 . S
C112 N109 1.311 . S
C112 N113 1.347 . S
C112 H123 0.929 . S
N113 C111 1.375 . S
N113 C112 1.347 . S
C114 C117 1.365 . S
C114 N119 1.328 . S
C114 H120 0.929 . S
C115 C116 1.362 . S
C115 C118 1.378 . S
C115 H130 0.929 . S
C116 C115 1.362 . S
C116 C117 1.366 . S
C117 C114 1.365 . S
C117 C116 1.366 . S
C117 H131 0.930 . S
C118 C115 1.378 . S
C118 N119 1.315 . S
C118 H121 0.930 . S
N119 Co99 2.194 . S
N119 C114 1.328 . S
N119 C118 1.315 . S
H120 C114 0.929 . S
H121 C118 0.930 . S
H122 C110 0.929 . S
H123 C112 0.929 . S
O124 Co99 2.351 . S
O124 C127 1.244 . S
O125 Co99 2.155 . S
O125 C127 1.240 . S
O126 Co99 2.096 . S
O126 C107 1.247 . S
C127 O124 1.244 . S
C127 O125 1.240 . S
H128 C102 0.931 . S
H129 C111 0.931 . S
H130 C115 0.929 . S
H131 C117 0.930 . S
Co132 N136 2.148 . S
Co132 N142 2.128 . S
Co132 N152 2.194 . S
Co132 O157 2.351 . S
Co132 O158 2.155 . S
Co132 O159 2.096 . S
C133 N136 1.301 . S
C133 N137 1.328 . S
C133 H138 0.930 . S
C134 C135 1.333 . S
C134 N136 1.317 . S
C134 H139 0.930 . S
C135 C134 1.333 . S
C135 N137 1.350 . S
C135 H161 0.931 . S
N136 Co132 2.148 . S
N136 C133 1.301 . S
N136 C134 1.317 . S
N137 C133 1.328 . S
N137 C135 1.350 . S
H138 C133 0.930 . S
H139 C134 0.930 . S
C140 O141 1.224 . S
C140 O159 1.247 . S
O141 C140 1.224 . S
N142 Co132 2.128 . S
N142 C143 1.355 . S
N142 C145 1.311 . S
C143 N142 1.355 . S
C143 C144 1.363 . S
C143 H155 0.929 . S
C144 C143 1.363 . S
C144 N146 1.375 . S
C144 H162 0.931 . S
C145 N142 1.311 . S
C145 N146 1.347 . S
C145 H156 0.929 . S
N146 C144 1.375 . S
N146 C145 1.347 . S
C147 C150 1.365 . S
C147 N152 1.328 . S
C147 H153 0.929 . S
C148 C149 1.362 . S
C148 C151 1.378 . S
C148 H163 0.929 . S
C149 C148 1.362 . S
C149 C150 1.366 . S
C150 C147 1.365 . S
C150 C149 1.366 . S
C150 H164 0.930 . S
C151 C148 1.378 . S
C151 N152 1.315 . S
C151 H154 0.930 . S
N152 Co132 2.194 . S
N152 C147 1.328 . S
N152 C151 1.315 . S
H153 C147 0.929 . S
H154 C151 0.930 . S
H155 C143 0.929 . S
H156 C145 0.929 . S
O157 Co132 2.351 . S
O157 C160 1.244 . S
O158 Co132 2.155 . S
O158 C160 1.240 . S
O159 Co132 2.096 . S
O159 C140 1.247 . S
C160 O157 1.244 . S
C160 O158 1.240 . S
H161 C135 0.931 . S
H162 C144 0.931 . S
H163 C148 0.929 . S
H164 C150 0.930 . S
Co165 N169 2.148 . S
Co165 N175 2.128 . S
Co165 N185 2.194 . S
Co165 O190 2.351 . S
Co165 O191 2.155 1_545 S
Co165 O192 2.096 . S
C166 N169 1.301 . S
C166 N170 1.328 . S
C166 H171 0.930 . S
C167 C168 1.333 . S
C167 N169 1.317 . S
C167 H172 0.930 . S
C168 C167 1.333 . S
C168 N170 1.350 . S
C168 H194 0.931 . S
N169 Co165 2.148 . S
N169 C166 1.301 . S
N169 C167 1.317 . S
N170 C166 1.328 . S
N170 C168 1.350 . S
H171 C166 0.930 . S
H172 C167 0.930 . S
C173 O174 1.224 . S
C173 O192 1.247 . S
O174 C173 1.224 . S
N175 Co165 2.128 . S
N175 C176 1.355 . S
N175 C178 1.311 . S
C176 N175 1.355 . S
C176 C177 1.363 . S
C176 H188 0.929 . S
C177 C176 1.363 . S
C177 N179 1.375 . S
C177 H195 0.931 . S
C178 N175 1.311 . S
C178 N179 1.347 . S
C178 H189 0.929 . S
N179 C177 1.375 . S
N179 C178 1.347 . S
C180 C183 1.365 . S
C180 N185 1.328 . S
C180 H186 0.929 . S
C181 C182 1.362 . S
C181 C184 1.378 . S
C181 H196 0.929 . S
C182 C181 1.362 . S
C182 C183 1.366 . S
C183 C180 1.365 . S
C183 C182 1.366 . S
C183 H197 0.930 . S
C184 C181 1.378 . S
C184 N185 1.315 . S
C184 H187 0.930 . S
N185 Co165 2.194 . S
N185 C180 1.328 . S
N185 C184 1.315 . S
H186 C180 0.929 . S
H187 C184 0.930 . S
H188 C176 0.929 . S
H189 C178 0.929 . S
O190 Co165 2.351 . S
O190 C193 1.244 1_545 S
O191 Co165 2.155 1_565 S
O191 C193 1.240 . S
O192 Co165 2.096 . S
O192 C173 1.247 . S
C193 O190 1.244 1_565 S
C193 O191 1.240 . S
H194 C168 0.931 . S
H195 C177 0.931 . S
H196 C181 0.929 . S
H197 C183 0.930 . S
Co198 N202 2.148 . S
Co198 N208 2.128 . S
Co198 N218 2.194 . S
Co198 O223 2.351 . S
Co198 O224 2.155 . S
Co198 O225 2.096 . S
C199 N202 1.301 . S
C199 N203 1.328 . S
C199 H204 0.930 . S
C200 C201 1.333 . S
C200 N202 1.317 . S
C200 H205 0.930 . S
C201 C200 1.333 . S
C201 N203 1.350 . S
C201 H227 0.931 . S
N202 Co198 2.148 . S
N202 C199 1.301 . S
N202 C200 1.317 . S
N203 C199 1.328 . S
N203 C201 1.350 . S
H204 C199 0.930 . S
H205 C200 0.930 . S
C206 O207 1.224 . S
C206 O225 1.247 . S
O207 C206 1.224 . S
N208 Co198 2.128 . S
N208 C209 1.355 . S
N208 C211 1.311 . S
C209 N208 1.355 . S
C209 C210 1.363 . S
C209 H221 0.929 . S
C210 C209 1.363 . S
C210 N212 1.375 . S
C210 H228 0.931 . S
C211 N208 1.311 . S
C211 N212 1.347 . S
C211 H222 0.929 . S
N212 C210 1.375 . S
N212 C211 1.347 . S
C213 C216 1.365 . S
C213 N218 1.328 . S
C213 H219 0.929 . S
C214 C215 1.362 . S
C214 C217 1.378 . S
C214 H229 0.929 . S
C215 C214 1.362 . S
C215 C216 1.366 . S
C216 C213 1.365 . S
C216 C215 1.366 . S
C216 H230 0.930 . S
C217 C214 1.378 . S
C217 N218 1.315 . S
C217 H220 0.930 . S
N218 Co198 2.194 . S
N218 C213 1.328 . S
N218 C217 1.315 . S
H219 C213 0.929 . S
H220 C217 0.930 . S
H221 C209 0.929 . S
H222 C211 0.929 . S
O223 Co198 2.351 . S
O223 C226 1.244 . S
O224 Co198 2.155 . S
O224 C226 1.240 . S
O225 Co198 2.096 . S
O225 C206 1.247 . S
C226 O223 1.244 . S
C226 O224 1.240 . S
H227 C201 0.931 . S
H228 C210 0.931 . S
H229 C214 0.929 . S
H230 C216 0.930 . S
Co231 N235 2.148 . S
Co231 N241 2.128 . S
Co231 N251 2.194 . S
Co231 O256 2.351 . S
Co231 O257 2.155 1_565 S
Co231 O258 2.096 . S
C232 N235 1.301 . S
C232 N236 1.328 . S
C232 H237 0.930 . S
C233 C234 1.333 . S
C233 N235 1.317 . S
C233 H238 0.930 . S
C234 C233 1.333 . S
C234 N236 1.350 . S
C234 H260 0.931 . S
N235 Co231 2.148 . S
N235 C232 1.301 . S
N235 C233 1.317 . S
N236 C232 1.328 . S
N236 C234 1.350 . S
H237 C232 0.930 . S
H238 C233 0.930 . S
C239 O240 1.224 . S
C239 O258 1.247 . S
O240 C239 1.224 . S
N241 Co231 2.128 . S
N241 C242 1.355 . S
N241 C244 1.311 . S
C242 N241 1.355 . S
C242 C243 1.363 . S
C242 H254 0.929 . S
C243 C242 1.363 . S
C243 N245 1.375 . S
C243 H261 0.931 . S
C244 N241 1.311 . S
C244 N245 1.347 . S
C244 H255 0.929 . S
N245 C243 1.375 . S
N245 C244 1.347 . S
C246 C249 1.365 . S
C246 N251 1.328 . S
C246 H252 0.929 . S
C247 C248 1.362 . S
C247 C250 1.378 . S
C247 H262 0.929 . S
C248 C247 1.362 . S
C248 C249 1.366 . S
C249 C246 1.365 . S
C249 C248 1.366 . S
C249 H263 0.930 . S
C250 C247 1.378 . S
C250 N251 1.315 . S
C250 H253 0.930 . S
N251 Co231 2.194 . S
N251 C246 1.328 . S
N251 C250 1.315 . S
H252 C246 0.929 . S
H253 C250 0.930 . S
H254 C242 0.929 . S
H255 C244 0.929 . S
O256 Co231 2.351 . S
O256 C259 1.244 1_565 S
O257 Co231 2.155 1_545 S
O257 C259 1.240 . S
O258 Co231 2.096 . S
O258 C239 1.247 . S
C259 O256 1.244 1_545 S
C259 O257 1.240 . S
H260 C234 0.931 . S
H261 C243 0.931 . S
H262 C247 0.929 . S
H263 C249 0.930 . S
H264 C276 0.930 . S
H265 C278 0.930 . S
H266 C279 0.930 . S
H267 C283 0.959 1_455 S
H268 C283 0.959 . S
H269 C283 0.961 . S
H270 C284 0.960 . S
H271 C284 0.961 . S
H272 C284 0.959 . S
H273 C287 0.929 . S
H274 C288 0.931 . S
H275 C290 0.930 1_655 S
C276 H264 0.930 . S
C276 C277 1.399 . S
C276 C281 1.399 . S
C277 C276 1.399 . S
C277 C278 1.376 . S
C278 H265 0.930 . S
C278 C277 1.376 . S
C278 C279 1.388 1_655 S
C279 H266 0.930 . S
C279 C278 1.388 1_455 S
C279 C280 1.393 . S
C280 C279 1.393 . S
C280 C281 1.384 1_455 S
C280 C286 1.471 . S
C281 C276 1.399 . S
C281 C280 1.384 1_655 S
C281 C282 1.516 . S
C282 C281 1.516 . S
C282 C283 1.502 . S
C282 C284 1.561 . S
C282 C285 1.526 . S
C283 H267 0.959 1_655 S
C283 H268 0.959 . S
C283 H269 0.961 . S
C283 C282 1.502 . S
C284 H270 0.960 . S
C284 H271 0.961 . S
C284 H272 0.959 . S
C284 C282 1.561 . S
C285 C282 1.526 . S
C285 C286 1.396 1_655 S
C285 C290 1.390 1_655 S
C286 C280 1.471 . S
C286 C285 1.396 1_455 S
C286 C287 1.399 . S
C287 H273 0.929 . S
C287 C286 1.399 . S
C287 C288 1.385 . S
C288 H274 0.931 . S
C288 C287 1.385 . S
C288 C289 1.389 . S
C289 C288 1.389 . S
C289 C290 1.387 . S
C290 H275 0.930 1_455 S
C290 C285 1.390 1_455 S
C290 C289 1.387 . S
H291 C303 0.930 . S
H292 C305 0.930 . S
H293 C306 0.930 . S
H294 C310 0.959 1_455 S
H295 C310 0.959 1_455 S
H296 C310 0.961 . S
H297 C311 0.960 . S
H298 C311 0.961 . S
H299 C311 0.959 . S
H300 C314 0.929 . S
H301 C315 0.931 . S
H302 C317 0.930 . S
C303 H291 0.930 . S
C303 C304 1.399 . S
C303 C308 1.399 . S
C304 C303 1.399 . S
C304 C305 1.376 . S
C305 H292 0.930 . S
C305 C304 1.376 . S
C305 C306 1.388 . S
C306 H293 0.930 . S
C306 C305 1.388 . S
C306 C307 1.390 . S
C307 C306 1.390 . S
C307 C308 1.394 . S
C307 C313 1.465 1_655 S
C308 C303 1.399 . S
C308 C307 1.394 . S
C308 C309 1.516 . S
C309 C308 1.516 . S
C309 C310 1.502 . S
C309 C311 1.561 . S
C309 C312 1.526 1_655 S
C310 H294 0.959 1_655 S
C310 H295 0.959 1_655 S
C310 H296 0.961 . S
C310 C309 1.502 . S
C311 H297 0.960 . S
C311 H298 0.961 . S
C311 H299 0.959 . S
C311 C309 1.561 . S
C312 C309 1.526 1_455 S
C312 C313 1.396 . S
C312 C317 1.390 . S
C313 C307 1.465 1_455 S
C313 C312 1.396 . S
C313 C314 1.399 . S
C314 H300 0.929 . S
C314 C313 1.399 . S
C314 C315 1.385 . S
C315 H301 0.931 . S
C315 C314 1.385 . S
C315 C316 1.389 . S
C316 C315 1.389 . S
C316 C317 1.387 . S
C317 H302 0.930 . S
C317 C312 1.390 . S
C317 C316 1.387 . S
H318 C330 0.930 . S
H319 C332 0.930 . S
H320 C333 0.930 . S
H321 C337 0.959 . S
H322 C337 0.959 . S
H323 C337 0.961 1_565 S
H324 C338 0.960 . S
H325 C338 0.961 1_545 S
H326 C338 0.959 . S
H327 C341 0.929 . S
H328 C342 0.931 . S
H329 C344 0.930 . S
C330 H318 0.930 . S
C330 C331 1.399 . S
C330 C335 1.399 . S
C331 C330 1.399 . S
C331 C332 1.376 . S
C332 H319 0.930 . S
C332 C331 1.376 . S
C332 C333 1.388 . S
C333 H320 0.930 . S
C333 C332 1.388 . S
C333 C334 1.390 . S
C334 C333 1.390 . S
C334 C335 1.394 . S
C334 C340 1.465 1_565 S
C335 C330 1.399 . S
C335 C334 1.394 . S
C335 C336 1.516 1_565 S
C336 C335 1.516 1_545 S
C336 C337 1.502 . S
C336 C338 1.561 1_545 S
C336 C339 1.526 . S
C337 H321 0.959 . S
C337 H322 0.959 . S
C337 H323 0.961 1_545 S
C337 C336 1.502 . S
C338 H324 0.960 . S
C338 H325 0.961 1_565 S
C338 H326 0.959 . S
C338 C336 1.561 1_565 S
C339 C336 1.526 . S
C339 C340 1.396 . S
C339 C344 1.390 . S
C340 C334 1.465 1_545 S
C340 C339 1.396 . S
C340 C341 1.399 . S
C341 H327 0.929 . S
C341 C340 1.399 . S
C341 C342 1.385 . S
C342 H328 0.931 . S
C342 C341 1.385 . S
C342 C343 1.389 . S
C343 C342 1.389 . S
C343 C344 1.387 . S
C344 H329 0.930 . S
C344 C339 1.390 . S
C344 C343 1.387 . S
H345 C357 0.930 . S
H346 C359 0.930 . S
H347 C360 0.930 . S
H348 C364 0.959 . S
H349 C364 0.959 . S
H350 C364 0.961 . S
H351 C365 0.960 . S
H352 C365 0.961 . S
H353 C365 0.959 . S
H354 C368 0.929 . S
H355 C369 0.931 . S
H356 C371 0.930 . S
C357 H345 0.930 . S
C357 C358 1.399 . S
C357 C362 1.399 . S
C358 C357 1.399 . S
C358 C359 1.376 . S
C359 H346 0.930 . S
C359 C358 1.376 . S
C359 C360 1.388 . S
C360 H347 0.930 . S
C360 C359 1.388 . S
C360 C361 1.390 . S
C361 C360 1.390 . S
C361 C362 1.394 . S
C361 C367 1.465 1_565 S
C362 C357 1.399 . S
C362 C361 1.394 . S
C362 C363 1.516 . S
C363 C362 1.516 . S
C363 C364 1.502 1_565 S
C363 C365 1.561 . S
C363 C366 1.526 1_565 S
C364 H348 0.959 . S
C364 H349 0.959 . S
C364 H350 0.961 . S
C364 C363 1.502 1_545 S
C365 H351 0.960 . S
C365 H352 0.961 . S
C365 H353 0.959 . S
C365 C363 1.561 . S
C366 C363 1.526 1_545 S
C366 C367 1.396 . S
C366 C371 1.390 . S
C367 C361 1.465 1_545 S
C367 C366 1.396 . S
C367 C368 1.399 . S
C368 H354 0.929 . S
C368 C367 1.399 . S
C368 C369 1.385 . S
C369 H355 0.931 . S
C369 C368 1.385 . S
C369 C370 1.389 . S
C370 C369 1.389 . S
C370 C371 1.387 . S
C371 H356 0.930 . S
C371 C366 1.390 . S
C371 C370 1.387 . S
H372 C384 0.930 . S
H373 C386 0.930 . S
H374 C387 0.930 . S
H375 C391 0.959 . S
H376 C391 0.959 . S
H377 C391 0.961 . S
H378 C392 0.960 . S
H379 C392 0.961 . S
H380 C392 0.959 . S
H381 C395 0.929 . S
H382 C396 0.931 . S
H383 C398 0.930 . S
C384 H372 0.930 . S
C384 C385 1.399 . S
C384 C389 1.399 . S
C385 C384 1.399 . S
C385 C386 1.376 . S
C386 H373 0.930 . S
C386 C385 1.376 . S
C386 C387 1.388 . S
C387 H374 0.930 . S
C387 C386 1.388 . S
C387 C388 1.390 . S
C388 C387 1.390 . S
C388 C389 1.394 . S
C388 C394 1.465 . S
C389 C384 1.399 . S
C389 C388 1.394 . S
C389 C390 1.516 . S
C390 C389 1.516 . S
C390 C391 1.502 . S
C390 C392 1.561 . S
C390 C393 1.526 . S
C391 H375 0.959 . S
C391 H376 0.959 . S
C391 H377 0.961 . S
C391 C390 1.502 . S
C392 H378 0.960 . S
C392 H379 0.961 . S
C392 H380 0.959 . S
C392 C390 1.561 . S
C393 C390 1.526 . S
C393 C394 1.396 . S
C393 C398 1.390 . S
C394 C388 1.465 . S
C394 C393 1.396 . S
C394 C395 1.399 . S
C395 H381 0.929 . S
C395 C394 1.399 . S
C395 C396 1.385 . S
C396 H382 0.931 . S
C396 C395 1.385 . S
C396 C397 1.389 . S
C397 C396 1.389 . S
C397 C398 1.387 . S
C398 H383 0.930 . S
C398 C393 1.390 . S
C398 C397 1.387 . S
H399 C411 0.930 . S
H400 C413 0.930 . S
H401 C414 0.930 . S
H402 C418 0.959 . S
H403 C418 0.959 . S
H404 C418 0.961 . S
H405 C419 0.960 . S
H406 C419 0.961 . S
H407 C419 0.959 . S
H408 C422 0.929 . S
H409 C423 0.931 . S
H410 C425 0.930 . S
C411 H399 0.930 . S
C411 C412 1.399 . S
C411 C416 1.399 . S
C412 C411 1.399 . S
C412 C413 1.376 . S
C413 H400 0.930 . S
C413 C412 1.376 . S
C413 C414 1.388 . S
C414 H401 0.930 . S
C414 C413 1.388 . S
C414 C415 1.390 . S
C415 C414 1.390 . S
C415 C416 1.394 . S
C415 C421 1.465 . S
C416 C411 1.399 . S
C416 C415 1.394 . S
C416 C417 1.516 . S
C417 C416 1.516 . S
C417 C418 1.502 . S
C417 C419 1.561 . S
C417 C420 1.526 . S
C418 H402 0.959 . S
C418 H403 0.959 . S
C418 H404 0.961 . S
C418 C417 1.502 . S
C419 H405 0.960 . S
C419 H406 0.961 . S
C419 H407 0.959 . S
C419 C417 1.561 . S
C420 C417 1.526 . S
C420 C421 1.396 . S
C420 C425 1.390 . S
C421 C415 1.465 . S
C421 C420 1.396 . S
C421 C422 1.399 . S
C422 H408 0.929 . S
C422 C421 1.399 . S
C422 C423 1.385 . S
C423 H409 0.931 . S
C423 C422 1.385 . S
C423 C424 1.389 . S
C424 C423 1.389 . S
C424 C425 1.387 . S
C425 H410 0.930 . S
C425 C420 1.390 . S
C425 C424 1.387 . S
H426 C438 0.930 . S
H427 C440 0.930 . S
H428 C441 0.930 . S
H429 C445 0.959 . S
H430 C445 0.959 . S
H431 C445 0.961 . S
H432 C446 0.960 . S
H433 C446 0.961 . S
H434 C446 0.959 . S
H435 C449 0.929 . S
H436 C450 0.931 . S
H437 C452 0.930 . S
C438 H426 0.930 . S
C438 C439 1.399 . S
C438 C443 1.399 . S
C439 C438 1.399 . S
C439 C440 1.376 . S
C440 H427 0.930 . S
C440 C439 1.376 . S
C440 C441 1.388 . S
C441 H428 0.930 . S
C441 C440 1.388 . S
C441 C442 1.390 . S
C442 C441 1.390 . S
C442 C443 1.394 . S
C442 C448 1.465 . S
C443 C438 1.399 . S
C443 C442 1.394 . S
C443 C444 1.516 . S
C444 C443 1.516 . S
C444 C445 1.502 . S
C444 C446 1.561 . S
C444 C447 1.526 . S
C445 H429 0.959 . S
C445 H430 0.959 . S
C445 H431 0.961 . S
C445 C444 1.502 . S
C446 H432 0.960 . S
C446 H433 0.961 . S
C446 H434 0.959 . S
C446 C444 1.561 . S
C447 C444 1.526 . S
C447 C448 1.396 . S
C447 C452 1.390 . S
C448 C442 1.465 . S
C448 C447 1.396 . S
C448 C449 1.399 . S
C449 H435 0.929 . S
C449 C448 1.399 . S
C449 C450 1.385 . S
C450 H436 0.931 . S
C450 C449 1.385 . S
C450 C451 1.389 . S
C451 C450 1.389 . S
C451 C452 1.387 . S
C452 H437 0.930 . S
C452 C447 1.390 . S
C452 C451 1.387 . S
H453 C465 0.930 . S
H454 C467 0.930 . S
H455 C468 0.930 . S
H456 C472 0.959 . S
H457 C472 0.959 . S
H458 C472 0.961 . S
H459 C473 0.960 . S
H460 C473 0.961 . S
H461 C473 0.959 . S
H462 C476 0.929 . S
H463 C477 0.931 . S
H464 C479 0.930 . S
C465 H453 0.930 . S
C465 C466 1.399 . S
C465 C470 1.399 . S
C466 C465 1.399 . S
C466 C467 1.376 . S
C467 H454 0.930 . S
C467 C466 1.376 . S
C467 C468 1.388 . S
C468 H455 0.930 . S
C468 C467 1.388 . S
C468 C469 1.390 . S
C469 C468 1.390 . S
C469 C470 1.394 . S
C469 C475 1.465 . S
C470 C465 1.399 . S
C470 C469 1.394 . S
C470 C471 1.516 . S
C471 C470 1.516 . S
C471 C472 1.502 . S
C471 C473 1.561 . S
C471 C474 1.526 . S
C472 H456 0.959 . S
C472 H457 0.959 . S
C472 H458 0.961 . S
C472 C471 1.502 . S
C473 H459 0.960 . S
C473 H460 0.961 . S
C473 H461 0.959 . S
C473 C471 1.561 . S
C474 C471 1.526 . S
C474 C475 1.396 . S
C474 C479 1.390 . S
C475 C469 1.465 . S
C475 C474 1.396 . S
C475 C476 1.399 . S
C476 H462 0.929 . S
C476 C475 1.399 . S
C476 C477 1.385 . S
C477 H463 0.931 . S
C477 C476 1.385 . S
C477 C478 1.389 . S
C478 C477 1.389 . S
C478 C479 1.387 . S
C479 H464 0.930 . S
C479 C474 1.390 . S
C479 C478 1.387 . S
H480 C492 0.930 . S
H481 C494 0.930 . S
H482 C495 0.930 . S
H483 C499 0.959 . S
H484 C499 0.959 . S
H485 C499 0.961 . S
H486 C500 0.960 . S
H487 C500 0.961 . S
H488 C500 0.959 . S
H489 C503 0.929 . S
H490 C504 0.931 . S
H491 C506 0.930 . S
C492 H480 0.930 . S
C492 C493 1.399 . S
C492 C497 1.399 . S
C493 C492 1.399 . S
C493 C494 1.376 . S
C494 H481 0.930 . S
C494 C493 1.376 . S
C494 C495 1.388 . S
C495 H482 0.930 . S
C495 C494 1.388 . S
C495 C496 1.390 . S
C496 C495 1.390 . S
C496 C497 1.394 . S
C496 C502 1.465 . S
C497 C492 1.399 . S
C497 C496 1.394 . S
C497 C498 1.516 . S
C498 C497 1.516 . S
C498 C499 1.502 . S
C498 C500 1.561 . S
C498 C501 1.526 . S
C499 H483 0.959 . S
C499 H484 0.959 . S
C499 H485 0.961 . S
C499 C498 1.502 . S
C500 H486 0.960 . S
C500 H487 0.961 . S
C500 H488 0.959 . S
C500 C498 1.561 . S
C501 C498 1.526 . S
C501 C502 1.396 . S
C501 C506 1.390 . S
C502 C496 1.465 . S
C502 C501 1.396 . S
C502 C503 1.399 . S
C503 H489 0.929 . S
C503 C502 1.399 . S
C503 C504 1.385 . S
C504 H490 0.931 . S
C504 C503 1.385 . S
C504 C505 1.389 . S
C505 C504 1.389 . S
C505 C506 1.387 . S
C506 H491 0.930 . S
C506 C501 1.390 . S
C506 C505 1.387 . S
H507 C519 0.930 . S
H508 C521 0.930 . S
H509 C522 0.930 . S
H510 C526 0.959 . S
H511 C526 0.959 . S
H512 C526 0.961 . S
H513 C527 0.960 . S
H514 C527 0.961 . S
H515 C527 0.959 . S
H516 C530 0.929 . S
H517 C531 0.931 . S
H518 C533 0.930 . S
C519 H507 0.930 . S
C519 C520 1.399 . S
C519 C524 1.399 . S
C520 C519 1.399 . S
C520 C521 1.376 . S
C521 H508 0.930 . S
C521 C520 1.376 . S
C521 C522 1.388 . S
C522 H509 0.930 . S
C522 C521 1.388 . S
C522 C523 1.390 . S
C523 C522 1.390 . S
C523 C524 1.394 . S
C523 C529 1.465 . S
C524 C519 1.399 . S
C524 C523 1.394 . S
C524 C525 1.516 . S
C525 C524 1.516 . S
C525 C526 1.502 . S
C525 C527 1.561 . S
C525 C528 1.526 . S
C526 H510 0.959 . S
C526 H511 0.959 . S
C526 H512 0.961 . S
C526 C525 1.502 . S
C527 H513 0.960 . S
C527 H514 0.961 . S
C527 H515 0.959 . S
C527 C525 1.561 . S
C528 C525 1.526 . S
C528 C529 1.396 . S
C528 C533 1.390 . S
C529 C523 1.465 . S
C529 C528 1.396 . S
C529 C530 1.399 . S
C530 H516 0.929 . S
C530 C529 1.399 . S
C530 C531 1.385 . S
C531 H517 0.931 . S
C531 C530 1.385 . S
C531 C532 1.389 . S
C532 C531 1.389 . S
C532 C533 1.387 . S
C533 H518 0.930 . S
C533 C528 1.390 . S
C533 C532 1.387 . S
H534 C546 0.930 . S
H535 C548 0.930 . S
H536 C549 0.930 . S
H537 C553 0.959 . S
H538 C553 0.959 . S
H539 C553 0.961 . S
H540 C554 0.960 . S
H541 C554 0.961 . S
H542 C554 0.959 . S
H543 C557 0.929 . S
H544 C558 0.931 . S
H545 C560 0.930 . S
C546 H534 0.930 . S
C546 C547 1.399 . S
C546 C551 1.399 . S
C547 C546 1.399 . S
C547 C548 1.376 . S
C548 H535 0.930 . S
C548 C547 1.376 . S
C548 C549 1.388 . S
C549 H536 0.930 . S
C549 C548 1.388 . S
C549 C550 1.390 . S
C550 C549 1.390 . S
C550 C551 1.394 . S
C550 C556 1.465 . S
C551 C546 1.399 . S
C551 C550 1.394 . S
C551 C552 1.516 . S
C552 C551 1.516 . S
C552 C553 1.502 . S
C552 C554 1.561 . S
C552 C555 1.526 . S
C553 H537 0.959 . S
C553 H538 0.959 . S
C553 H539 0.961 . S
C553 C552 1.502 . S
C554 H540 0.960 . S
C554 H541 0.961 . S
C554 H542 0.959 . S
C554 C552 1.561 . S
C555 C552 1.526 . S
C555 C556 1.396 . S
C555 C560 1.390 . S
C556 C550 1.465 . S
C556 C555 1.396 . S
C556 C557 1.399 . S
C557 H543 0.929 . S
C557 C556 1.399 . S
C557 C558 1.385 . S
C558 H544 0.931 . S
C558 C557 1.385 . S
C558 C559 1.389 . S
C559 C558 1.389 . S
C559 C560 1.387 . S
C560 H545 0.930 . S
C560 C555 1.390 . S
C560 C559 1.387 . S
H561 C573 0.930 . S
H562 C575 0.930 . S
H563 C576 0.930 . S
H564 C580 0.959 . S
H565 C580 0.959 . S
H566 C580 0.961 . S
H567 C581 0.960 . S
H568 C581 0.961 . S
H569 C581 0.959 . S
H570 C584 0.929 . S
H571 C585 0.931 . S
H572 C587 0.930 . S
C573 H561 0.930 . S
C573 C574 1.399 . S
C573 C578 1.399 . S
C574 C573 1.399 . S
C574 C575 1.376 . S
C575 H562 0.930 . S
C575 C574 1.376 . S
C575 C576 1.388 . S
C576 H563 0.930 . S
C576 C575 1.388 . S
C576 C577 1.390 . S
C577 C576 1.390 . S
C577 C578 1.394 . S
C577 C583 1.465 . S
C578 C573 1.399 . S
C578 C577 1.394 . S
C578 C579 1.516 . S
C579 C578 1.516 . S
C579 C580 1.502 . S
C579 C581 1.561 . S
C579 C582 1.526 . S
C580 H564 0.959 . S
C580 H565 0.959 . S
C580 H566 0.961 . S
C580 C579 1.502 . S
C581 H567 0.960 . S
C581 H568 0.961 . S
C581 H569 0.959 . S
C581 C579 1.561 . S
C582 C579 1.526 . S
C582 C583 1.396 . S
C582 C587 1.390 . S
C583 C577 1.465 . S
C583 C582 1.396 . S
C583 C584 1.399 . S
C584 H570 0.929 . S
C584 C583 1.399 . S
C584 C585 1.385 . S
C585 H571 0.931 . S
C585 C584 1.385 . S
C585 C586 1.389 . S
C586 C585 1.389 . S
C586 C587 1.387 . S
C587 H572 0.930 . S
C587 C582 1.390 . S
C587 C586 1.387 . S
H588 C600 0.930 . S
H589 C602 0.930 . S
H590 C603 0.930 . S
H591 C607 0.959 . S
H592 C607 0.959 . S
H593 C607 0.961 . S
H594 C608 0.960 . S
H595 C608 0.961 . S
H596 C608 0.959 . S
H597 C611 0.929 . S
H598 C612 0.931 . S
H599 C614 0.930 . S
C600 H588 0.930 . S
C600 C601 1.399 . S
C600 C605 1.399 . S
C601 C600 1.399 . S
C601 C602 1.376 . S
C602 H589 0.930 . S
C602 C601 1.376 . S
C602 C603 1.388 . S
C603 H590 0.930 . S
C603 C602 1.388 . S
C603 C604 1.390 . S
C604 C603 1.390 . S
C604 C605 1.394 . S
C604 C610 1.465 . S
C605 C600 1.399 . S
C605 C604 1.394 . S
C605 C606 1.516 . S
C606 C605 1.516 . S
C606 C607 1.502 . S
C606 C608 1.561 . S
C606 C609 1.526 . S
C607 H591 0.959 . S
C607 H592 0.959 . S
C607 H593 0.961 . S
C607 C606 1.502 . S
C608 H594 0.960 . S
C608 H595 0.961 . S
C608 H596 0.959 . S
C608 C606 1.561 . S
C609 C606 1.526 . S
C609 C610 1.396 . S
C609 C614 1.390 . S
C610 C604 1.465 . S
C610 C609 1.396 . S
C610 C611 1.399 . S
C611 H597 0.929 . S
C611 C610 1.399 . S
C611 C612 1.385 . S
C612 H598 0.931 . S
C612 C611 1.385 . S
C612 C613 1.389 . S
C613 C612 1.389 . S
C613 C614 1.387 . S
C614 H599 0.930 . S
C614 C609 1.390 . S
C614 C613 1.387 . S
H615 C627 0.930 . S
H616 C629 0.930 . S
H617 C630 0.930 . S
H618 C634 0.959 . S
H619 C634 0.959 . S
H620 C634 0.961 1_554 S
H621 C635 0.960 . S
H622 C635 0.961 . S
H623 C635 0.959 . S
H624 C638 0.929 . S
H625 C639 0.931 . S
H626 C641 0.930 . S
C627 H615 0.930 . S
C627 C628 1.399 . S
C627 C632 1.399 . S
C628 C627 1.399 . S
C628 C629 1.376 . S
C629 H616 0.930 . S
C629 C628 1.376 . S
C629 C630 1.388 . S
C630 H617 0.930 . S
C630 C629 1.388 . S
C630 C631 1.390 . S
C631 C630 1.390 . S
C631 C632 1.394 . S
C631 C637 1.465 1_554 S
C632 C627 1.399 . S
C632 C631 1.394 . S
C632 C633 1.516 . S
C633 C632 1.516 . S
C633 C634 1.502 1_554 S
C633 C635 1.561 . S
C633 C636 1.526 1_554 S
C634 H618 0.959 . S
C634 H619 0.959 . S
C634 H620 0.961 1_556 S
C634 C633 1.502 1_556 S
C635 H621 0.960 . S
C635 H622 0.961 . S
C635 H623 0.959 . S
C635 C633 1.561 . S
C636 C633 1.526 1_556 S
C636 C637 1.396 . S
C636 C641 1.390 . S
C637 C631 1.465 1_556 S
C637 C636 1.396 . S
C637 C638 1.399 . S
C638 H624 0.929 . S
C638 C637 1.399 . S
C638 C639 1.385 . S
C639 H625 0.931 . S
C639 C638 1.385 . S
C639 C640 1.389 . S
C640 C639 1.389 . S
C640 C641 1.387 . S
C641 H626 0.930 . S
C641 C636 1.390 . S
C641 C640 1.387 . S
H642 C654 0.930 . S
H643 C656 0.930 . S
H644 C657 0.930 . S
H645 C661 0.959 . S
H646 C661 0.959 . S
H647 C661 0.961 . S
H648 C662 0.960 . S
H649 C662 0.961 . S
H650 C662 0.959 . S
H651 C665 0.929 . S
H652 C666 0.931 . S
H653 C668 0.930 . S
C654 H642 0.930 . S
C654 C655 1.399 . S
C654 C659 1.399 . S
C655 C654 1.399 . S
C655 C656 1.376 . S
C656 H643 0.930 . S
C656 C655 1.376 . S
C656 C657 1.388 . S
C657 H644 0.930 . S
C657 C656 1.388 . S
C657 C658 1.390 . S
C658 C657 1.390 . S
C658 C659 1.394 . S
C658 C664 1.465 . S
C659 C654 1.399 . S
C659 C658 1.394 . S
C659 C660 1.516 . S
C660 C659 1.516 . S
C660 C661 1.502 . S
C660 C662 1.561 . S
C660 C663 1.526 . S
C661 H645 0.959 . S
C661 H646 0.959 . S
C661 H647 0.961 . S
C661 C660 1.502 . S
C662 H648 0.960 . S
C662 H649 0.961 . S
C662 H650 0.959 . S
C662 C660 1.561 . S
C663 C660 1.526 . S
C663 C664 1.396 . S
C663 C668 1.390 . S
C664 C658 1.465 . S
C664 C663 1.396 . S
C664 C665 1.399 . S
C665 H651 0.929 . S
C665 C664 1.399 . S
C665 C666 1.385 . S
C666 H652 0.931 . S
C666 C665 1.385 . S
C666 C667 1.389 . S
C667 C666 1.389 . S
C667 C668 1.387 . S
C668 H653 0.930 . S
C668 C663 1.390 . S
C668 C667 1.387 . S
H669 C681 0.930 . S
H670 C683 0.930 . S
H671 C684 0.930 1_556 S
H672 C688 0.959 . S
H673 C688 0.959 . S
H674 C688 0.961 . S
H675 C689 0.960 . S
H676 C689 0.961 . S
H677 C689 0.959 . S
H678 C692 0.929 . S
H679 C693 0.931 . S
H680 C695 0.930 . S
C681 H669 0.930 . S
C681 C682 1.399 . S
C681 C686 1.399 . S
C682 C681 1.399 . S
C682 C683 1.376 . S
C683 H670 0.930 . S
C683 C682 1.376 . S
C683 C684 1.388 . S
C684 H671 0.930 1_554 S
C684 C683 1.388 . S
C684 C685 1.390 . S
C685 C684 1.390 . S
C685 C686 1.394 . S
C685 C691 1.465 1_554 S
C686 C681 1.399 . S
C686 C685 1.394 . S
C686 C687 1.516 . S
C687 C686 1.516 . S
C687 C688 1.502 . S
C687 C689 1.561 . S
C687 C690 1.526 1_554 S
C688 H672 0.959 . S
C688 H673 0.959 . S
C688 H674 0.961 . S
C688 C687 1.502 . S
C689 H675 0.960 . S
C689 H676 0.961 . S
C689 H677 0.959 . S
C689 C687 1.561 . S
C690 C687 1.526 1_556 S
C690 C691 1.396 . S
C690 C695 1.390 . S
C691 C685 1.465 1_556 S
C691 C690 1.396 . S
C691 C692 1.399 . S
C692 H678 0.929 . S
C692 C691 1.399 . S
C692 C693 1.385 . S
C693 H679 0.931 . S
C693 C692 1.385 . S
C693 C694 1.389 . S
C694 C693 1.389 . S
C694 C695 1.387 . S
C695 H680 0.930 . S
C695 C690 1.390 . S
C695 C694 1.387 . S
H696 C708 0.930 . S
H697 C710 0.930 . S
H698 C711 0.930 . S
H699 C715 0.959 . S
H700 C715 0.959 1_545 S
H701 C715 0.961 . S
H702 C716 0.960 . S
H703 C716 0.961 . S
H704 C716 0.959 . S
H705 C719 0.929 . S
H706 C720 0.931 . S
H707 C722 0.930 . S
C708 H696 0.930 . S
C708 C709 1.399 . S
C708 C713 1.399 . S
C709 C708 1.399 . S
C709 C710 1.376 . S
C710 H697 0.930 . S
C710 C709 1.376 . S
C710 C711 1.388 . S
C711 H698 0.930 . S
C711 C710 1.388 . S
C711 C712 1.390 . S
C712 C711 1.390 . S
C712 C713 1.394 . S
C712 C718 1.465 1_665 S
C713 C708 1.399 . S
C713 C712 1.394 . S
C713 C714 1.516 1_565 S
C714 C713 1.516 1_545 S
C714 C715 1.502 1_645 S
C714 C716 1.561 . S
C714 C717 1.526 1_655 S
C715 H699 0.959 . S
C715 H700 0.959 1_565 S
C715 H701 0.961 . S
C715 C714 1.502 1_465 S
C716 H702 0.960 . S
C716 H703 0.961 . S
C716 H704 0.959 . S
C716 C714 1.561 . S
C717 C714 1.526 1_455 S
C717 C718 1.396 . S
C717 C722 1.390 . S
C718 C712 1.465 1_445 S
C718 C717 1.396 . S
C718 C719 1.399 . S
C719 H705 0.929 . S
C719 C718 1.399 . S
C719 C720 1.385 . S
C720 H706 0.931 . S
C720 C719 1.385 . S
C720 C721 1.389 . S
C721 C720 1.389 . S
C721 C722 1.387 . S
C722 H707 0.930 . S
C722 C717 1.390 . S
C722 C721 1.387 . S
H723 C735 0.930 . S
H724 C737 0.930 . S
H725 C738 0.930 . S
H726 C742 0.959 . S
H727 C742 0.959 . S
H728 C742 0.961 . S
H729 C743 0.960 . S
H730 C743 0.961 . S
H731 C743 0.959 . S
H732 C746 0.929 . S
H733 C747 0.931 . S
H734 C749 0.930 . S
C735 H723 0.930 . S
C735 C736 1.399 . S
C735 C740 1.399 . S
C736 C735 1.399 . S
C736 C737 1.376 . S
C737 H724 0.930 . S
C737 C736 1.376 . S
C737 C738 1.388 . S
C738 H725 0.930 . S
C738 C737 1.388 . S
C738 C739 1.390 . S
C739 C738 1.390 . S
C739 C740 1.394 . S
C739 C745 1.465 . S
C740 C735 1.399 . S
C740 C739 1.394 . S
C740 C741 1.516 . S
C741 C740 1.516 . S
C741 C742 1.502 . S
C741 C743 1.561 . S
C741 C744 1.526 . S
C742 H726 0.959 . S
C742 H727 0.959 . S
C742 H728 0.961 . S
C742 C741 1.502 . S
C743 H729 0.960 . S
C743 H730 0.961 . S
C743 H731 0.959 . S
C743 C741 1.561 . S
C744 C741 1.526 . S
C744 C745 1.396 . S
C744 C749 1.390 . S
C745 C739 1.465 . S
C745 C744 1.396 . S
C745 C746 1.399 . S
C746 H732 0.929 . S
C746 C745 1.399 . S
C746 C747 1.385 . S
C747 H733 0.931 . S
C747 C746 1.385 . S
C747 C748 1.389 . S
C748 C747 1.389 . S
C748 C749 1.387 . S
C749 H734 0.930 . S
C749 C744 1.390 . S
C749 C748 1.387 . S
H750 C762 0.930 . S
H751 C764 0.930 . S
H752 C765 0.930 . S
H753 C769 0.959 . S
H754 C769 0.959 . S
H755 C769 0.961 . S
H756 C770 0.960 . S
H757 C770 0.961 . S
H758 C770 0.959 . S
H759 C773 0.929 . S
H760 C774 0.931 . S
H761 C776 0.930 . S
C762 H750 0.930 . S
C762 C763 1.399 . S
C762 C767 1.399 . S
C763 C762 1.399 . S
C763 C764 1.376 . S
C764 H751 0.930 . S
C764 C763 1.376 . S
C764 C765 1.388 . S
C765 H752 0.930 . S
C765 C764 1.388 . S
C765 C766 1.390 . S
C766 C765 1.390 . S
C766 C767 1.394 . S
C766 C772 1.465 . S
C767 C762 1.399 . S
C767 C766 1.394 . S
C767 C768 1.516 . S
C768 C767 1.516 . S
C768 C769 1.502 . S
C768 C770 1.561 . S
C768 C771 1.526 . S
C769 H753 0.959 . S
C769 H754 0.959 . S
C769 H755 0.961 . S
C769 C768 1.502 . S
C770 H756 0.960 . S
C770 H757 0.961 . S
C770 H758 0.959 . S
C770 C768 1.561 . S
C771 C768 1.526 . S
C771 C772 1.396 . S
C771 C776 1.390 . S
C772 C766 1.465 . S
C772 C771 1.396 . S
C772 C773 1.399 . S
C773 H759 0.929 . S
C773 C772 1.399 . S
C773 C774 1.385 . S
C774 H760 0.931 . S
C774 C773 1.385 . S
C774 C775 1.389 . S
C775 C774 1.389 . S
C775 C776 1.387 . S
C776 H761 0.930 . S
C776 C771 1.390 . S
C776 C775 1.387 . S
H777 C789 0.930 . S
H778 C791 0.930 . S
H779 C792 0.930 . S
H780 C796 0.959 . S
H781 C796 0.959 . S
H782 C796 0.961 . S
H783 C797 0.960 . S
H784 C797 0.961 . S
H785 C797 0.959 . S
H786 C800 0.929 . S
H787 C801 0.931 . S
H788 C803 0.930 . S
C789 H777 0.930 . S
C789 C790 1.399 . S
C789 C794 1.399 . S
C790 C789 1.399 . S
C790 C791 1.376 . S
C791 H778 0.930 . S
C791 C790 1.376 . S
C791 C792 1.388 . S
C792 H779 0.930 . S
C792 C791 1.388 . S
C792 C793 1.390 . S
C793 C792 1.390 . S
C793 C794 1.394 . S
C793 C799 1.465 1_445 S
C794 C789 1.399 . S
C794 C793 1.394 . S
C794 C795 1.516 1_545 S
C795 C794 1.516 1_565 S
C795 C796 1.502 . S
C795 C797 1.561 . S
C795 C798 1.526 1_455 S
C796 H780 0.959 . S
C796 H781 0.959 . S
C796 H782 0.961 . S
C796 C795 1.502 . S
C797 H783 0.960 . S
C797 H784 0.961 . S
C797 H785 0.959 . S
C797 C795 1.561 . S
C798 C795 1.526 1_655 S
C798 C799 1.396 . S
C798 C803 1.390 . S
C799 C793 1.465 1_665 S
C799 C798 1.396 . S
C799 C800 1.399 1_565 S
C800 H786 0.929 . S
C800 C799 1.399 1_545 S
C800 C801 1.385 1_545 S
C801 H787 0.931 . S
C801 C800 1.385 1_565 S
C801 C802 1.389 . S
C802 C801 1.389 . S
C802 C803 1.387 . S
C803 H788 0.930 . S
C803 C798 1.390 . S
C803 C802 1.387 . S
C277 N71 1.203 . S
C289 N5 1.210 . S
C304 N104 1.142 . S
C316 N38 1.140 . S
C331 N203 1.139 . S
C343 N137 1.154 . S
C358 N236 1.211 . S
C370 N170 1.201 . S
C385 C160 1.915 . S
C397 C17 1.915 . S
C412 C193 1.918 . S
C424 C50 1.900 . S
C439 C226 1.912 . S
C451 C83 1.917 . S
C466 C116 1.916 . S
C478 C259 1.914 . S
C493 C28 1.914 . S
C505 C149 1.916 . S
C520 C61 1.918 . S
C532 C182 1.900 . S
C547 C94 1.916 . S
C559 C215 1.914 . S
C574 C248 1.913 . S
C586 C127 1.900 . S
C601 C8 1.804 . S
C613 C173 1.802 . S
C628 C206 1.799 . S
C640 C41 1.807 . S
C655 C239 1.827 . S
C667 C74 1.822 . S
C682 C140 1.844 . S
C694 C107 1.788 . S
C709 N80 0.643 . S
C721 N14 0.577 . S
C736 N47 0.384 . S
C748 N113 0.474 . S
C763 N212 0.407 . S
C775 N146 0.442 . S
C790 N179 0.493 . S
C802 N245 0.376 . S
