# Generated by pormake.
# Topology zfi, (5)-cn, num edge types: 1
# Building blocks:
#     Node 0, Type 0, BuildingBlock: BEQFEK_clean_sbu_0, # of connection points: 5
#     Node 1, Type 0, BuildingBlock: BEQFEK_clean_sbu_0, # of connection points: 5
#     Node 2, Type 0, BuildingBlock: BEQFEK_clean_sbu_0, # of connection points: 5
#     Node 3, Type 0, BuildingBlock: BEQFEK_clean_sbu_0, # of connection points: 5
#     Node 4, Type 0, BuildingBlock: BEQFEK_clean_sbu_0, # of connection points: 5
#     Node 5, Type 0, BuildingBlock: BEQFEK_clean_sbu_0, # of connection points: 5
#     Node 6, Type 0, BuildingBlock: BEQFEK_clean_sbu_0, # of connection points: 5
#     Node 7, Type 0, BuildingBlock: BEQFEK_clean_sbu_0, # of connection points: 5
#     Node 8, Type 0, BuildingBlock: BEQFEK_clean_sbu_0, # of connection points: 5
#     Node 9, Type 0, BuildingBlock: BEQFEK_clean_sbu_0, # of connection points: 5
#     Node 10, Type 0, BuildingBlock: BEQFEK_clean_sbu_0, # of connection points: 5
#     Node 11, Type 0, BuildingBlock: BEQFEK_clean_sbu_0, # of connection points: 5
#     Node 12, Type 0, BuildingBlock: BEQFEK_clean_sbu_0, # of connection points: 5
#     Node 13, Type 0, BuildingBlock: BEQFEK_clean_sbu_0, # of connection points: 5
#     Node 14, Type 0, BuildingBlock: BEQFEK_clean_sbu_0, # of connection points: 5
#     Node 15, Type 0, BuildingBlock: BEQFEK_clean_sbu_0, # of connection points: 5
#     Edge 16, Type (0, 0), BuildingBlock: CIFDUS_clean_linker_0, # of connection points: 2
#     Edge 17, Type (0, 0), BuildingBlock: CIFDUS_clean_linker_0, # of connection points: 2
#     Edge 18, Type (0, 0), BuildingBlock: CIFDUS_clean_linker_0, # of connection points: 2
#     Edge 19, Type (0, 0), BuildingBlock: CIFDUS_clean_linker_0, # of connection points: 2
#     Edge 20, Type (0, 0), BuildingBlock: CIFDUS_clean_linker_0, # of connection points: 2
#     Edge 21, Type (0, 0), BuildingBlock: CIFDUS_clean_linker_0, # of connection points: 2
#     Edge 22, Type (0, 0), BuildingBlock: CIFDUS_clean_linker_0, # of connection points: 2
#     Edge 23, Type (0, 0), BuildingBlock: CIFDUS_clean_linker_0, # of connection points: 2
#     Edge 24, Type (0, 0), BuildingBlock: CIFDUS_clean_linker_0, # of connection points: 2
#     Edge 25, Type (0, 0), BuildingBlock: CIFDUS_clean_linker_0, # of connection points: 2
#     Edge 26, Type (0, 0), BuildingBlock: CIFDUS_clean_linker_0, # of connection points: 2
#     Edge 27, Type (0, 0), BuildingBlock: CIFDUS_clean_linker_0, # of connection points: 2
#     Edge 28, Type (0, 0), BuildingBlock: CIFDUS_clean_linker_0, # of connection points: 2
#     Edge 29, Type (0, 0), BuildingBlock: CIFDUS_clean_linker_0, # of connection points: 2
#     Edge 30, Type (0, 0), BuildingBlock: CIFDUS_clean_linker_0, # of connection points: 2
#     Edge 31, Type (0, 0), BuildingBlock: CIFDUS_clean_linker_0, # of connection points: 2
#     Edge 32, Type (0, 0), BuildingBlock: CIFDUS_clean_linker_0, # of connection points: 2
#     Edge 33, Type (0, 0), BuildingBlock: CIFDUS_clean_linker_0, # of connection points: 2
#     Edge 34, Type (0, 0), BuildingBlock: CIFDUS_clean_linker_0, # of connection points: 2
#     Edge 35, Type (0, 0), BuildingBlock: CIFDUS_clean_linker_0, # of connection points: 2
#     Edge 36, Type (0, 0), BuildingBlock: CIFDUS_clean_linker_0, # of connection points: 2
#     Edge 37, Type (0, 0), BuildingBlock: CIFDUS_clean_linker_0, # of connection points: 2
#     Edge 38, Type (0, 0), BuildingBlock: CIFDUS_clean_linker_0, # of connection points: 2
#     Edge 39, Type (0, 0), BuildingBlock: CIFDUS_clean_linker_0, # of connection points: 2
#     Edge 40, Type (0, 0), BuildingBlock: CIFDUS_clean_linker_0, # of connection points: 2
#     Edge 41, Type (0, 0), BuildingBlock: CIFDUS_clean_linker_0, # of connection points: 2
#     Edge 42, Type (0, 0), BuildingBlock: CIFDUS_clean_linker_0, # of connection points: 2
#     Edge 43, Type (0, 0), BuildingBlock: CIFDUS_clean_linker_0, # of connection points: 2
#     Edge 44, Type (0, 0), BuildingBlock: CIFDUS_clean_linker_0, # of connection points: 2
#     Edge 45, Type (0, 0), BuildingBlock: CIFDUS_clean_linker_0, # of connection points: 2
#     Edge 46, Type (0, 0), BuildingBlock: CIFDUS_clean_linker_0, # of connection points: 2
#     Edge 47, Type (0, 0), BuildingBlock: CIFDUS_clean_linker_0, # of connection points: 2
#     Edge 48, Type (0, 0), BuildingBlock: CIFDUS_clean_linker_0, # of connection points: 2
#     Edge 49, Type (0, 0), BuildingBlock: CIFDUS_clean_linker_0, # of connection points: 2
#     Edge 50, Type (0, 0), BuildingBlock: CIFDUS_clean_linker_0, # of connection points: 2
#     Edge 51, Type (0, 0), BuildingBlock: CIFDUS_clean_linker_0, # of connection points: 2
#     Edge 52, Type (0, 0), BuildingBlock: CIFDUS_clean_linker_0, # of connection points: 2
#     Edge 53, Type (0, 0), BuildingBlock: CIFDUS_clean_linker_0, # of connection points: 2
#     Edge 54, Type (0, 0), BuildingBlock: CIFDUS_clean_linker_0, # of connection points: 2
#     Edge 55, Type (0, 0), BuildingBlock: CIFDUS_clean_linker_0, # of connection points: 2
# Relax obj value: 0.232
# Max RMSD: 0.197
# Mean RMSD: 0.197
data_MOF--net-zfi--node1-BEQFEK_clean_sbu_0--edge1-CIFDUS_clean_linker_0
_symmetry_space_group_name_H-M    P1
_symmetry_Int_Tables_number       1
_symmetry_cell_setting            triclinic
loop_
_symmetry_equiv_pos_as_xyz
'x, y, z'
_cell_length_a     33.648
_cell_length_b     33.635919
_cell_length_c     50.523353
_cell_angle_alpha  90.01309
_cell_angle_beta   90.069106
_cell_angle_gamma 90.386461
loop_
_atom_site_label
_atom_site_type_symbol
_atom_site_fract_x
_atom_site_fract_y
_atom_site_fract_z
_atom_type_partial_charge
Co0 Co 0.6175 0.09294 0.13437 0.0
Co1 Co 0.57724 0.01087 0.14595 0.0
C2 C 0.57248 0.06983 0.18649 0.0
O3 O 0.59455 0.09254 0.1722 0.0
O4 O 0.5594 0.03655 0.17798 0.0
C5 C 0.67006 0.15369 0.14236 0.0
O6 O 0.6746 0.12973 0.16267 0.0
C7 C 0.53626 0.93147 0.1508 0.0
C8 C 0.57314 0.90013 0.12123 0.0
C9 C 0.54173 0.89493 0.1385 0.0
N10 N 0.56336 0.95702 0.14092 0.0
N11 N 0.58517 0.93795 0.12336 0.0
C12 C 0.50711 0.94168 0.172 0.0
H13 H 0.51798 0.96742 0.18375 0.0
H14 H 0.47845 0.94991 0.16268 0.0
H15 H 0.50184 0.91573 0.18514 0.0
C16 C 0.56946 0.07949 0.08282 0.0
N17 N 0.58065 0.07153 0.10813 0.0
N18 N 0.562 0.03892 0.11558 0.0
C19 C 0.53737 0.0264 0.09635 0.0
C20 C 0.54203 0.05048 0.07444 0.0
C21 C 0.58666 0.11227 0.06642 0.0
H22 H 0.61437 0.12399 0.07556 0.0
H23 H 0.56473 0.13667 0.06502 0.0
H24 H 0.59267 0.10149 0.04605 0.0
O25 O 0.66512 0.05947 0.13581 0.0
O26 O 0.6346 0.00522 0.14945 0.0
H27 H 0.52148 0.9647 0.09369 0.0
H28 H 0.4814 -0.00188 0.0867 0.0
C29 C 0.50776 0.99326 0.0995 0.0
H30 H 0.49788 0.99136 0.12039 0.0
H31 H 0.60833 0.95101 0.11265 0.0
O32 O 0.64187 0.14636 0.1261 0.0
C33 C 0.66626 0.02425 0.14451 0.0
Co34 Co 0.39486 0.62073 0.1356 0.0
Co35 Co 0.47853 0.58511 0.14822 0.0
C36 C 0.42268 0.59224 0.19134 0.0
O37 O 0.39809 0.60802 0.17509 0.0
O38 O 0.45587 0.5786 0.18347 0.0
C39 C 0.33221 0.67458 0.13412 0.0
O40 O 0.35975 0.69487 0.14677 0.0
C41 C 0.55581 0.54245 0.15581 0.0
C42 C 0.58916 0.57379 0.12425 0.0
C43 C 0.59254 0.54466 0.14337 0.0
N44 N 0.53181 0.56918 0.14422 0.0
N45 N 0.55208 0.58768 0.12548 0.0
C46 C 0.54401 0.51642 0.17849 0.0
H47 H 0.51834 0.52925 0.18918 0.0
H48 H 0.53519 0.48675 0.17079 0.0
H49 H 0.56944 0.51242 0.19223 0.0
C50 C 0.40511 0.56377 0.08901 0.0
N51 N 0.41448 0.57841 0.11328 0.0
N52 N 0.4477 0.5616 0.12109 0.0
C53 C 0.4593 0.53477 0.10299 0.0
C54 C 0.43371 0.53591 0.08161 0.0
C55 C 0.37236 0.57934 0.07202 0.0
H56 H 0.36179 0.60839 0.07955 0.0
H57 H 0.34727 0.55777 0.07224 0.0
H58 H 0.38261 0.58242 0.05123 0.0
O59 O 0.42811 0.66822 0.12997 0.0
O60 O 0.4849 0.64239 0.14293 0.0
H61 H 0.52158 0.52374 0.09875 0.0
H62 H 0.49061 0.48063 0.09408 0.0
C63 C 0.49454 0.50818 0.10594 0.0
H64 H 0.49854 0.49999 0.127 0.0
H65 H 0.54034 0.60963 0.11321 0.0
O66 O 0.33937 0.63881 0.12723 0.0
C67 C 0.46466 0.67189 0.13542 0.0
Co68 Co 0.8648 0.39439 0.13893 0.0
Co69 Co 0.89904 0.4785 0.15247 0.0
C70 C 0.89603 0.42145 0.1946 0.0
O71 O 0.87982 0.39672 0.17844 0.0
O72 O 0.9084 0.45534 0.18684 0.0
C73 C 0.84929 0.31086 0.14553 0.0
O74 O 0.87198 0.31561 0.16648 0.0
C75 C 0.93755 0.55824 0.16025 0.0
C76 C 0.90457 0.58964 0.12865 0.0
C77 C 0.93336 0.59478 0.14787 0.0
N78 N 0.91219 0.53259 0.14857 0.0
N79 N 0.8927 0.55168 0.1298 0.0
C80 C 0.96424 0.54809 0.1829 0.0
H81 H 0.95265 0.52177 0.1937 0.0
H82 H 0.99421 0.54097 0.17519 0.0
H83 H 0.96719 0.57382 0.19656 0.0
C84 C 0.92114 0.40955 0.09161 0.0
N85 N 0.90576 0.417 0.11597 0.0
N86 N 0.92229 0.45 0.12479 0.0
C87 C 0.94941 0.46339 0.10742 0.0
C88 C 0.94891 0.43935 0.0853 0.0
C89 C 0.90718 0.3768 0.07385 0.0
H90 H 0.87892 0.36376 0.08124 0.0
H91 H 0.93014 0.35329 0.07326 0.0
H92 H 0.90321 0.38814 0.05339 0.0
O93 O 0.81518 0.42491 0.13581 0.0
O94 O 0.84186 0.48179 0.1484 0.0
H95 H 0.96213 0.52584 0.10552 0.0
H96 H 0.00481 0.49472 0.10122 0.0
C97 C 0.97656 0.49811 0.11229 0.0
H98 H 0.98334 0.50052 0.13369 0.0
H99 H 0.87152 0.53851 0.11745 0.0
O100 O 0.84594 0.33954 0.1293 0.0
C101 C 0.81186 0.46133 0.14172 0.0
Co102 Co 0.08063 0.8671 0.13554 0.0
Co103 Co -0.00119 0.90374 0.1518 0.0
C104 C 0.05989 0.89906 0.19164 0.0
O105 O 0.08234 0.88212 0.17462 0.0
O106 O 0.02594 0.91252 0.18521 0.0
C107 C 0.14314 0.81384 0.13383 0.0
O108 O 0.11723 0.79564 0.14908 0.0
C109 C 0.92275 0.94677 0.16275 0.0
C110 C 0.88453 0.91133 0.1358 0.0
C111 C 0.8841 0.94255 0.15354 0.0
N112 N 0.945 0.91895 0.15079 0.0
N113 N 0.92185 0.89806 0.13477 0.0
C114 C 0.93796 0.9759 0.18274 0.0
H115 H 0.96629 0.96546 0.19147 0.0
H116 H 0.94341 0.00492 0.17291 0.0
H117 H 0.91549 0.9805 0.1985 0.0
C118 C 0.06387 0.9207 0.08811 0.0
N119 N 0.0579 0.90789 0.11324 0.0
N120 N 0.02574 0.92519 0.12239 0.0
C121 C 0.0115 0.95055 0.10422 0.0
C122 C 0.03409 0.94781 0.08147 0.0
C123 C 0.0944 0.90392 0.06987 0.0
H124 H 0.10591 0.87538 0.07767 0.0
H125 H 0.11944 0.92539 0.06813 0.0
H126 H 0.0816 0.89943 0.04981 0.0
O127 O 0.04703 0.81928 0.13308 0.0
O128 O 0.99229 0.84632 0.14857 0.0
H129 H 0.94885 0.96149 0.10418 0.0
H130 H 0.97881 0.00407 0.09564 0.0
C131 C 0.97693 0.97755 0.10866 0.0
H132 H 0.9765 0.98749 0.12956 0.0
H133 H 0.93171 0.87489 0.12279 0.0
O134 O 0.13504 0.84846 0.12506 0.0
C135 C 0.01138 0.81625 0.1408 0.0
Co136 Co 0.13643 0.90525 0.39527 0.0
Co137 Co 0.1028 0.98849 0.37884 0.0
C138 C 0.08421 0.91693 0.34709 0.0
O139 O 0.10686 0.89472 0.36099 0.0
O140 O 0.07793 0.95305 0.35312 0.0
C141 C 0.15528 0.82008 0.41005 0.0
O142 O 0.11955 0.80787 0.40321 0.0
C143 C 0.04898 0.05741 0.37166 0.0
C144 C 0.0942 0.10532 0.36943 0.0
C145 C 0.05366 0.09826 0.3691 0.0
N146 N 0.08538 0.0413 0.37366 0.0
N147 N 0.11213 0.07013 0.37208 0.0
C148 C 0.01105 0.03396 0.3709 0.0
H149 H 0.01712 0.00208 0.36713 0.0
H150 H 0.99543 0.03655 0.39011 0.0
H151 H 0.99112 0.04595 0.35535 0.0
C152 C 0.09237 0.92829 0.44588 0.0
N153 N 0.10529 0.93491 0.42086 0.0
N154 N 0.09476 0.97111 0.41394 0.0
C155 C 0.07671 0.98911 0.43439 0.0
C156 C 0.07324 0.96241 0.45514 0.0
C157 C 0.09754 0.88988 0.46029 0.0
H158 H 0.09944 0.86491 0.44602 0.0
H159 H 0.07261 0.88471 0.47426 0.0
H160 H 0.12566 0.89116 0.47176 0.0
O161 O 0.18461 0.93578 0.38503 0.0
O162 O 0.15866 0.99141 0.37003 0.0
H163 H 0.09018 0.04974 0.42408 0.0
H164 H 0.06799 0.04381 0.45611 0.0
C165 C 0.06772 0.03268 0.43543 0.0
H166 H 0.0379 0.03805 0.42697 0.0
H167 H 0.14276 0.06594 0.3733 0.0
O168 O 0.16374 0.85695 0.40928 0.0
C169 C 0.18834 0.96928 0.37377 0.0
Co170 Co 0.59681 0.13538 0.39692 0.0
Co171 Co 0.50931 0.11225 0.38264 0.0
C172 C 0.57391 0.10325 0.34296 0.0
O173 O 0.60054 0.11696 0.35863 0.0
O174 O 0.53833 0.09841 0.3507 0.0
C175 C 0.66148 0.18241 0.39498 0.0
O176 O 0.64061 0.1903 0.37365 0.0
C177 C 0.44058 0.06045 0.37208 0.0
C178 C 0.39192 0.10412 0.37494 0.0
C179 C 0.39976 0.06438 0.37033 0.0
N180 N 0.45609 0.09639 0.37768 0.0
N181 N 0.4269 0.12235 0.37919 0.0
C182 C 0.46465 0.02398 0.36704 0.0
H183 H 0.4966 0.03173 0.36494 0.0
H184 H 0.46125 0.0029 0.38374 0.0
H185 H 0.45376 0.00881 0.34888 0.0
C186 C 0.57735 0.07963 0.44295 0.0
N187 N 0.56896 0.09796 0.41975 0.0
N188 N 0.53144 0.09073 0.41387 0.0
C189 C 0.51454 0.06909 0.4333 0.0
C190 C 0.54311 0.06019 0.45215 0.0
C191 C 0.61696 0.08171 0.45628 0.0
H192 H 0.64087 0.08561 0.44137 0.0
H193 H 0.62226 0.05449 0.46817 0.0
H194 H 0.6176 0.10778 0.46975 0.0
O195 O 0.56804 0.18719 0.39687 0.0
O196 O 0.50763 0.16964 0.38413 0.0
H197 H 0.4543 0.08856 0.42784 0.0
H198 H 0.46193 0.05989 0.45726 0.0
C199 C 0.47056 0.06295 0.43617 0.0
H200 H 0.46146 0.03549 0.42564 0.0
H201 H 0.43081 0.15254 0.38329 0.0
O202 O 0.6505 0.15341 0.40956 0.0
C203 C 0.53287 0.19617 0.39019 0.0
Co204 Co 0.3661 0.60051 0.39842 0.0
Co205 Co 0.38909 0.51364 0.38266 0.0
C206 C 0.41262 0.57987 0.34829 0.0
O207 O 0.39317 0.60476 0.36237 0.0
O208 O 0.4167 0.54379 0.35529 0.0
C209 C 0.34727 0.68427 0.3991 0.0
O210 O 0.36592 0.6851 0.37629 0.0
C211 C 0.42989 0.437 0.37337 0.0
C212 C 0.37797 0.39638 0.37542 0.0
C213 C 0.41858 0.39741 0.37143 0.0
N214 N 0.39715 0.45842 0.37837 0.0
N215 N 0.36633 0.4339 0.37955 0.0
C216 C 0.47041 0.45436 0.36909 0.0
H217 H 0.46927 0.4873 0.36868 0.0
H218 H 0.49053 0.44497 0.38528 0.0
H219 H 0.48289 0.44298 0.35024 0.0
C220 C 0.41103 0.57506 0.44801 0.0
N221 N 0.39571 0.56855 0.42357 0.0
N222 N 0.40266 0.53135 0.417 0.0
C223 C 0.42137 0.51286 0.43706 0.0
C224 C 0.42827 0.53995 0.4573 0.0
C225 C 0.41012 0.61439 0.46176 0.0
H226 H 0.40956 0.63887 0.44705 0.0
H227 H 0.43622 0.61794 0.47503 0.0
H228 H 0.38272 0.61608 0.47389 0.0
O229 O 0.31333 0.57668 0.39103 0.0
O230 O 0.33291 0.51908 0.375 0.0
H231 H 0.4328 0.45824 0.45844 0.0
H232 H 0.4567 0.46265 0.42667 0.0
C233 C 0.42919 0.46907 0.43785 0.0
H234 H 0.40408 0.45257 0.42877 0.0
H235 H 0.3372 0.44276 0.38322 0.0
O236 O 0.34815 0.65274 0.41297 0.0
C237 C 0.30584 0.54408 0.37946 0.0
Co238 Co 0.90471 0.36692 0.40179 0.0
Co239 Co 0.98761 0.3995 0.38479 0.0
C240 C 0.91833 0.41358 0.35099 0.0
O241 O 0.89627 0.39174 0.36562 0.0
O242 O 0.95383 0.42207 0.35748 0.0
C243 C 0.82031 0.35771 0.40573 0.0
O244 O 0.82043 0.38871 0.38992 0.0
C245 C 0.0538 0.45518 0.37652 0.0
C246 C 0.10366 0.41308 0.37264 0.0
C247 C 0.09442 0.45311 0.37268 0.0
N248 N 0.03976 0.41786 0.37885 0.0
N249 N 0.06963 0.39287 0.37633 0.0
C250 C 0.02839 0.49152 0.37645 0.0
H251 H 0.03216 0.50741 0.35736 0.0
H252 H -0.00335 0.48344 0.37929 0.0
H253 H 0.03779 0.51215 0.3924 0.0
C254 C 0.92717 0.41479 0.45111 0.0
N255 N 0.93381 0.40083 0.42636 0.0
N256 N 0.96999 0.41147 0.41927 0.0
C257 C 0.98796 0.43082 0.43936 0.0
C258 C 0.96127 0.4348 0.46006 0.0
C259 C 0.88897 0.40911 0.46573 0.0
H260 H 0.86381 0.40686 0.45158 0.0
H261 H 0.88397 0.434 0.47974 0.0
H262 H 0.89039 0.38099 0.47716 0.0
O263 O 0.93405 0.31693 0.39471 0.0
O264 O 0.98964 0.34253 0.37858 0.0
H265 H 0.04852 0.41763 0.42914 0.0
H266 H 0.04273 0.44031 0.46101 0.0
C267 C 0.03157 0.44014 0.44034 0.0
H268 H 0.03709 0.46991 0.43169 0.0
H269 H 0.06685 0.36199 0.37739 0.0
O270 O 0.85305 0.34624 0.41556 0.0
C271 C 0.96755 0.31279 0.38352 0.0
Co272 Co 0.36069 0.9027 0.89088 0.0
Co273 Co 0.39368 0.98545 0.87251 0.0
C274 C 0.39981 0.91975 0.83618 0.0
O275 O 0.38104 0.8976 0.8527 0.0
O276 O 0.41048 0.95489 0.8423 0.0
C277 C 0.3485 0.81803 0.89109 0.0
O278 O 0.37416 0.81976 0.87154 0.0
C279 C 0.43503 0.06038 0.85746 0.0
C280 C 0.39226 0.10316 0.87434 0.0
C281 C 0.42724 0.10042 0.86027 0.0
N282 N 0.40545 0.04008 0.86929 0.0
N283 N 0.38006 0.06588 0.87926 0.0
C284 C 0.46935 0.04198 0.84339 0.0
H285 H 0.46964 0.00931 0.8464 0.0
H286 H 0.49761 0.05527 0.85066 0.0
H287 H 0.46708 0.04857 0.82192 0.0
C288 C 0.41107 0.92701 0.93929 0.0
N289 N 0.39726 0.93156 0.91423 0.0
N290 N 0.41189 0.96513 0.90489 0.0
C291 C 0.43589 0.98223 0.92295 0.0
C292 C 0.43573 0.95943 0.94577 0.0
C293 C 0.39903 0.89362 0.95713 0.0
H294 H 0.36988 0.88113 0.9509 0.0
H295 H 0.42156 0.86976 0.95583 0.0
H296 H 0.39752 0.90388 0.97799 0.0
O297 O 0.31009 0.93168 0.8876 0.0
O298 O 0.3362 0.98645 0.87103 0.0
H299 H 0.44189 0.04542 0.91964 0.0
H300 H 0.48618 0.02091 0.93139 0.0
C301 C 0.46059 0.01856 0.91762 0.0
H302 H 0.47232 0.01729 0.8972 0.0
H303 H 0.35436 0.05801 0.88959 0.0
O304 O 0.34167 0.84949 0.90424 0.0
C305 C 0.30615 0.96583 0.87734 0.0
Co306 Co 0.58596 0.36869 0.8955 0.0
Co307 Co 0.49953 0.38641 0.87838 0.0
C308 C 0.56251 0.4073 0.8423 0.0
O309 O 0.58766 0.3906 0.85768 0.0
O310 O 0.52633 0.41131 0.84881 0.0
C311 C 0.65574 0.32998 0.89372 0.0
O312 O 0.63583 0.31734 0.87296 0.0
C313 C 0.42128 0.41783 0.86378 0.0
C314 C 0.38265 0.37085 0.8808 0.0
C315 C 0.38206 0.40626 0.86696 0.0
N316 N 0.44412 0.39031 0.87535 0.0
N317 N 0.42093 0.36216 0.88524 0.0
C318 C 0.43705 0.45305 0.84892 0.0
H319 H 0.44392 0.44373 0.82837 0.0
H320 H 0.4651 0.46392 0.85805 0.0
H321 H 0.41499 0.47734 0.84801 0.0
C322 C 0.55819 0.4157 0.94378 0.0
N323 N 0.55364 0.39993 0.91929 0.0
N324 N 0.51723 0.40722 0.91118 0.0
C325 C 0.49795 0.42863 0.92961 0.0
C326 C 0.52277 0.43429 0.95129 0.0
C327 C 0.59495 0.41114 0.96011 0.0
H328 H 0.61095 0.38375 0.95435 0.0
H329 H 0.61487 0.437 0.95652 0.0
H330 H 0.58755 0.41016 0.98151 0.0
O331 O 0.56395 0.31431 0.89388 0.0
O332 O 0.50701 0.3291 0.87497 0.0
H333 H 0.43463 0.42268 0.92784 0.0
H334 H 0.45159 0.47087 0.93932 0.0
C335 C 0.45763 0.44617 0.9254 0.0
H336 H 0.45558 0.45816 0.90509 0.0
H337 H 0.43128 0.33722 0.89533 0.0
O338 O 0.64136 0.35796 0.9077 0.0
C339 C 0.53222 0.30368 0.88241 0.0
Co340 Co 0.12949 0.58875 0.9015 0.0
Co341 Co 0.1004 0.50294 0.88664 0.0
C342 C 0.08736 0.56512 0.84884 0.0
O343 O 0.10702 0.58935 0.86355 0.0
O344 O 0.07872 0.53011 0.85643 0.0
C345 C 0.17566 0.65425 0.89518 0.0
O346 O 0.18095 0.63218 0.87403 0.0
C347 C 0.06046 0.42474 0.87772 0.0
C348 C 0.10472 0.38667 0.89763 0.0
C349 C 0.06793 0.38563 0.88531 0.0
N350 N 0.09103 0.44748 0.8861 0.0
N351 N 0.11762 0.42437 0.89744 0.0
C352 C 0.02411 0.44107 0.86465 0.0
H353 H 0.02369 0.47398 0.86602 0.0
H354 H -0.00308 0.42856 0.87398 0.0
H355 H 0.02417 0.43269 0.84341 0.0
C356 C 0.08204 0.56661 0.95165 0.0
N357 N 0.09549 0.56056 0.92665 0.0
N358 N 0.08296 0.52522 0.9189 0.0
C359 C 0.06042 0.50856 0.93791 0.0
C360 C 0.05975 0.53336 0.95974 0.0
C361 C 0.09196 0.60246 0.96788 0.0
H362 H 0.11959 0.61683 0.96051 0.0
H363 H 0.06731 0.62407 0.96624 0.0
H364 H 0.09532 0.59425 0.98905 0.0
O365 O 0.18059 0.56095 0.89955 0.0
O366 O 0.15798 0.50471 0.8829 0.0
H367 H 0.05642 0.44504 0.93608 0.0
H368 H 0.01217 0.46848 0.94873 0.0
C369 C 0.03668 0.47116 0.93419 0.0
H370 H 0.02313 0.47136 0.91431 0.0
H371 H 0.14403 0.43461 0.90596 0.0
O372 O 0.1488 0.64372 0.91165 0.0
C373 C 0.18666 0.52733 0.88917 0.0
Co374 Co 0.89343 0.12438 0.89802 0.0
Co375 Co 0.97716 0.09063 0.88422 0.0
C376 C 0.91872 0.09862 0.84186 0.0
O377 O 0.89361 0.11249 0.85844 0.0
O378 O 0.9529 0.08718 0.84934 0.0
C379 C 0.83254 0.17822 0.89894 0.0
O380 O 0.85962 0.19553 0.88413 0.0
C381 C 0.04929 0.04358 0.87189 0.0
C382 C 0.09113 0.0739 0.89923 0.0
C383 C 0.08818 0.04385 0.88071 0.0
N384 N 0.02988 0.07239 0.88491 0.0
N385 N 0.05509 0.09025 0.90117 0.0
C386 C 0.03133 0.01738 0.85114 0.0
H387 H -0.00148 0.02046 0.85078 0.0
H388 H 0.03939 0.98595 0.85492 0.0
H389 H 0.0436 0.02579 0.83153 0.0
C390 C 0.90709 0.06738 0.94418 0.0
N391 N 0.91442 0.08166 0.91954 0.0
N392 N 0.94719 0.06502 0.9108 0.0
C393 C 0.9602 0.03832 0.92852 0.0
C394 C 0.93646 0.0398 0.95081 0.0
C395 C 0.87612 0.08366 0.96228 0.0
H396 H 0.86408 0.11192 0.95441 0.0
H397 H 0.85154 0.06168 0.96409 0.0
H398 H 0.88877 0.08854 0.98234 0.0
O399 O 0.92692 0.17151 0.90382 0.0
O400 O 0.98529 0.14699 0.89268 0.0
H401 H 0.02287 0.02724 0.92926 0.0
H402 H 0.99257 0.9845 0.93685 0.0
C403 C 0.99489 0.01141 0.92421 0.0
H404 H 0.99589 0.00201 0.90321 0.0
H405 H 0.04761 0.11357 0.9138 0.0
O406 O 0.83889 0.1432 0.90763 0.0
C407 C 0.9639 0.17554 0.90032 0.0
Co408 Co 0.86751 0.0892 0.63264 0.0
Co409 Co 0.89548 0.00511 0.64942 0.0
C410 C 0.90584 0.07352 0.68563 0.0
O411 O 0.88763 0.09717 0.67011 0.0
O412 O 0.91254 0.03775 0.67918 0.0
C413 C 0.81701 0.15218 0.63018 0.0
O414 O 0.80293 0.1304 0.64964 0.0
C415 C 0.95192 0.94121 0.65883 0.0
C416 C 0.91109 0.88953 0.6613 0.0
C417 C 0.95079 0.9005 0.66227 0.0
N418 N 0.91439 0.9537 0.65573 0.0
N419 N 0.89013 0.92279 0.65745 0.0
C420 C 0.98749 0.9681 0.65987 0.0
H421 H 0.97904 -0.00081 0.6553 0.0
H422 H 0.01043 0.95803 0.6457 0.0
H423 H 0.00075 0.96681 0.67997 0.0
C424 C 0.92141 0.06963 0.58606 0.0
N425 N 0.9049 0.06193 0.60995 0.0
N426 N 0.91375 0.0252 0.61666 0.0
C427 C 0.93476 0.00805 0.59713 0.0
C428 C 0.94143 0.03575 0.57731 0.0
C429 C 0.91692 0.10814 0.57165 0.0
H430 H 0.91412 0.13297 0.58597 0.0
H431 H 0.94261 0.11352 0.55833 0.0
H432 H 0.88942 0.1069 0.55952 0.0
O433 O 0.81736 0.05745 0.63413 0.0
O434 O 0.83781 -4e-05 0.64995 0.0
H435 H 0.91868 0.94722 0.60543 0.0
H436 H 0.9431 0.95438 0.57424 0.0
C437 C 0.94235 0.96426 0.59519 0.0
H438 H 0.97151 0.95741 0.60423 0.0
H439 H 0.85925 0.92431 0.65565 0.0
O440 O 0.84916 0.14167 0.61891 0.0
C441 C 0.81001 0.02276 0.64275 0.0
Co442 Co 0.40273 0.85886 0.62866 0.0
Co443 Co 0.49182 0.87536 0.64367 0.0
C444 C 0.4282 0.89829 0.68036 0.0
O445 O 0.40137 0.88231 0.66577 0.0
O446 O 0.46432 0.90035 0.67312 0.0
C447 C 0.3138 0.84752 0.60534 0.0
O448 O 0.30349 0.88039 0.59318 0.0
C449 C 0.57041 0.9127 0.65411 0.0
C450 C 0.6089 0.86018 0.64897 0.0
C451 C 0.60962 0.90026 0.655 0.0
N452 N 0.54759 0.88116 0.64768 0.0
N453 N 0.57083 0.84995 0.64471 0.0
C454 C 0.55471 0.953 0.66076 0.0
H455 H 0.56116 0.97388 0.64434 0.0
H456 H 0.56971 0.96464 0.67878 0.0
H457 H 0.5221 0.95184 0.66381 0.0
C458 C 0.42957 0.90756 0.58064 0.0
N459 N 0.43567 0.88969 0.60431 0.0
N460 N 0.47349 0.89405 0.61059 0.0
C461 C 0.49265 0.91352 0.59107 0.0
C462 C 0.46555 0.92364 0.57156 0.0
C463 C 0.38975 0.91048 0.56772 0.0
H464 H 0.36802 0.92169 0.58236 0.0
H465 H 0.39036 0.93066 0.55036 0.0
H466 H 0.37984 0.88039 0.56143 0.0
O467 O 0.42358 0.80428 0.63243 0.0
O468 O 0.48357 0.81868 0.6475 0.0
H469 H 0.55179 0.89199 0.59755 0.0
H470 H 0.54722 0.92377 0.56926 0.0
C471 C 0.53686 0.91882 0.58983 0.0
H472 H 0.54569 0.9448 0.602 0.0
H473 H 0.56072 0.82153 0.63972 0.0
O474 O 0.34786 0.84516 0.61618 0.0
C475 C 0.45655 0.79362 0.64214 0.0
Co476 Co 0.63329 0.40425 0.63238 0.0
Co477 Co 0.61461 0.49068 0.64986 0.0
C478 C 0.60235 0.42445 0.68725 0.0
O479 O 0.61602 0.3993 0.6707 0.0
O480 O 0.59779 0.4606 0.68081 0.0
C481 C 0.6752 0.33573 0.63018 0.0
O482 O 0.69288 0.3566 0.64877 0.0
C483 C 0.56832 0.56089 0.66309 0.0
C484 C 0.61522 0.6073 0.66321 0.0
C485 C 0.57505 0.60094 0.66734 0.0
N486 N 0.60312 0.54425 0.65667 0.0
N487 N 0.63105 0.57205 0.6569 0.0
C488 C 0.53031 0.53825 0.66681 0.0
H489 H 0.53454 0.50622 0.66242 0.0
H490 H 0.50688 0.55028 0.6537 0.0
H491 H 0.52 0.54187 0.68753 0.0
C492 C 0.57877 0.42863 0.58734 0.0
N493 N 0.59711 0.43493 0.61082 0.0
N494 N 0.59135 0.47215 0.61788 0.0
C495 C 0.57018 0.49085 0.59899 0.0
C496 C 0.5607 0.46389 0.5791 0.0
C497 C 0.57956 0.38989 0.57286 0.0
H498 H 0.58049 0.36487 0.58715 0.0
H499 H 0.55322 0.38671 0.55976 0.0
H500 H 0.60681 0.38871 0.56054 0.0
O501 O 0.68692 0.43006 0.63193 0.0
O502 O 0.67225 0.48863 0.64894 0.0
H503 H 0.59012 0.55059 0.60687 0.0
H504 H 0.56084 0.54558 0.57734 0.0
C505 C 0.5643 0.53496 0.59799 0.0
H506 H 0.53712 0.54274 0.60915 0.0
H507 H 0.66101 0.56695 0.65276 0.0
O508 O 0.64412 0.34944 0.61912 0.0
C509 C 0.69755 0.46359 0.64107 0.0
Co510 Co 0.10031 0.63126 0.63958 0.0
Co511 Co 0.01372 0.60735 0.65682 0.0
C512 C 0.08106 0.59111 0.69231 0.0
O513 O 0.10587 0.60794 0.67661 0.0
O514 O 0.04502 0.58549 0.68557 0.0
C515 C 0.18184 0.65597 0.63933 0.0
O516 O 0.1802 0.64386 0.66402 0.0
C517 C 0.93962 0.56216 0.66695 0.0
C518 C 0.89669 0.61166 0.6681 0.0
C519 C 0.89979 0.57086 0.67035 0.0
N520 N 0.95921 0.59653 0.66274 0.0
N521 N 0.93337 0.62593 0.66358 0.0
C522 C 0.95905 0.52246 0.66919 0.0
H523 H 0.99115 0.52474 0.66431 0.0
H524 H 0.94435 0.50077 0.65579 0.0
H525 H 0.95553 0.51122 0.68971 0.0
C526 C 0.0739 0.58315 0.59151 0.0
N527 N 0.06805 0.59877 0.61589 0.0
N528 N 0.0312 0.5909 0.62308 0.0
C529 C 0.01229 0.57125 0.60347 0.0
C530 C 0.03876 0.56473 0.58294 0.0
C531 C 0.11235 0.58588 0.57683 0.0
H532 H 0.13762 0.58636 0.59096 0.0
H533 H 0.1155 0.56059 0.56288 0.0
H534 H 0.11301 0.61399 0.56535 0.0
O535 O 0.07574 0.68388 0.64549 0.0
O536 O 0.01768 0.66423 0.66131 0.0
H537 H 0.9572 0.56087 0.58226 0.0
H538 H 0.96194 0.53501 0.61322 0.0
C539 C 0.96841 0.56334 0.60286 0.0
H540 H 0.95228 0.58778 0.6127 0.0
H541 H 0.94069 0.65585 0.66091 0.0
O542 O 0.15237 0.64903 0.62414 0.0
C543 C 0.04262 0.69145 0.65624 0.0
H544 H 0.57427 0.82304 0.13704 0.0
H545 H 0.46154 0.88184 0.14566 0.0
H546 H 0.42716 0.81737 0.14476 0.0
H547 H 0.4296 0.74431 0.13966 0.0
H548 H 0.54335 0.68714 0.13048 0.0
H549 H 0.57695 0.75133 0.13273 0.0
C550 C 0.54215 0.82174 0.1389 0.0
C551 C 0.52045 0.85692 0.14166 0.0
C552 C 0.52282 0.78501 0.13774 0.0
C553 C 0.47894 0.85501 0.14416 0.0
C554 C 0.45928 0.81823 0.14324 0.0
C555 C 0.46168 0.74605 0.1379 0.0
C556 C 0.48399 0.71117 0.13473 0.0
C557 C 0.48095 0.78308 0.13965 0.0
C558 C 0.52557 0.71364 0.13289 0.0
C559 C 0.54482 0.75025 0.13427 0.0
H560 H 0.73798 0.4279 0.14756 0.0
H561 H 0.79933 0.53985 0.136 0.0
H562 H 0.73693 0.57524 0.13834 0.0
H563 H 0.66549 0.57489 0.14261 0.0
H564 H 0.60159 0.46459 0.15314 0.0
H565 H 0.66454 0.42803 0.15317 0.0
C566 C 0.73745 0.45997 0.14534 0.0
C567 C 0.77311 0.4812 0.14145 0.0
C568 C 0.70126 0.48045 0.14703 0.0
C569 C 0.77227 0.52281 0.13899 0.0
C570 C 0.73665 0.54316 0.14042 0.0
C571 C 0.66537 0.54284 0.14516 0.0
C572 C 0.62928 0.5224 0.148 0.0
C573 C 0.70113 0.52231 0.14442 0.0
C574 C 0.62926 0.48099 0.15145 0.0
C575 C 0.66514 0.46009 0.15106 0.0
H576 H 0.04609 0.74399 0.1465 0.0
H577 H 0.93235 0.80175 0.13901 0.0
H578 H 0.89834 0.73811 0.14363 0.0
H579 H 0.90073 0.66641 0.14823 0.0
H580 H 0.01332 0.607 0.15529 0.0
H581 H 0.04819 0.67122 0.15335 0.0
C582 C 0.0139 0.74245 0.14569 0.0
C583 C 0.9917 0.77728 0.14212 0.0
C584 C 0.99443 0.70578 0.14881 0.0
C585 C 0.95001 0.77522 0.1416 0.0
C586 C 0.93053 0.73895 0.14436 0.0
C587 C 0.93291 0.66765 0.14972 0.0
C588 C 0.95455 0.63243 0.15205 0.0
C589 C 0.95244 0.70417 0.1479 0.0
C590 C -0.00388 0.63401 0.15404 0.0
C591 C 0.016 0.67059 0.15251 0.0
H592 H 0.8122 0.9131 0.16295 0.0
H593 H 0.87627 0.02368 0.15466 0.0
H594 H 0.8133 0.05994 0.15227 0.0
H595 H 0.74006 0.0584 0.14729 0.0
H596 H 0.6779 0.94588 0.15369 0.0
H597 H 0.74022 0.91204 0.16166 0.0
C598 C 0.81228 0.94527 0.16119 0.0
C599 C 0.84841 0.96584 0.15903 0.0
C600 C 0.77638 0.96536 0.15883 0.0
C601 C 0.84859 0.00742 0.15681 0.0
C602 C 0.81265 0.02799 0.15501 0.0
C603 C 0.74027 0.0265 0.15043 0.0
C604 C 0.7045 0.00463 0.14952 0.0
C605 C 0.77638 0.00701 0.15505 0.0
C606 C 0.70503 0.96341 0.15409 0.0
C607 C 0.74062 0.94397 0.15875 0.0
H608 H 0.94441 0.23948 0.40177 0.0
H609 H 0.02064 0.29792 0.34483 0.0
H610 H 0.04815 0.23443 0.33173 0.0
H611 H 0.05684 0.16413 0.34008 0.0
H612 H 0.98618 0.10505 0.39946 0.0
H613 H 0.94912 0.16633 0.40723 0.0
C614 C 0.9667 0.23811 0.38632 0.0
C615 C 0.98104 0.27338 0.3747 0.0
C616 C 0.98317 0.20133 0.37915 0.0
C617 C 0.00972 0.27128 0.35453 0.0
C618 C 0.02534 0.23497 0.34686 0.0
C619 C 0.03266 0.16448 0.35429 0.0
C620 C 0.02411 0.13029 0.36908 0.0
C621 C 0.01317 0.20008 0.35957 0.0
C622 C 0.99276 0.13082 0.38741 0.0
C623 C 0.97206 0.16609 0.39219 0.0
H624 H 0.26126 0.94468 0.39057 0.0
H625 H 0.20322 0.02671 0.33756 0.0
H626 H 0.26649 0.05867 0.32786 0.0
H627 H 0.3357 0.06999 0.33962 0.0
H628 H 0.39371 0.9921 0.395 0.0
H629 H 0.33362 0.95102 0.39795 0.0
C630 C 0.26269 0.96906 0.37655 0.0
C631 C 0.2276 0.98392 0.36528 0.0
C632 C 0.29918 0.98801 0.37146 0.0
C633 C 0.22976 0.01531 0.34696 0.0
C634 C 0.26592 0.03356 0.34131 0.0
C635 C 0.3354 0.04338 0.35178 0.0
C636 C 0.36879 0.0339 0.36699 0.0
C637 C 0.30043 0.02116 0.35423 0.0
C638 C 0.36847 -0.00053 0.3827 0.0
C639 C 0.3339 0.97638 0.38472 0.0
H640 H 0.47842 0.2245 0.35673 0.0
H641 H 0.56193 0.26147 0.41685 0.0
H642 H 0.53715 0.32988 0.41387 0.0
H643 H 0.48627 0.37676 0.39741 0.0
H644 H 0.40317 0.33776 0.33757 0.0
H645 H 0.43363 0.2722 0.33696 0.0
C646 C 0.49132 0.24755 0.36916 0.0
C647 C 0.52117 0.23801 0.38744 0.0
C648 C 0.47712 0.28629 0.36725 0.0
C649 C 0.53849 0.26822 0.40287 0.0
C650 C 0.52435 0.30721 0.40115 0.0
C651 C 0.4759 0.35432 0.38359 0.0
C652 C 0.44285 0.36188 0.36738 0.0
C653 C 0.49304 0.31636 0.3838 0.0
C654 C 0.4287 0.33233 0.35014 0.0
C655 C 0.44592 0.2949 0.34988 0.0
H656 H 0.15344 0.45942 0.33796 0.0
H657 H 0.10362 0.51564 0.40683 0.0
H658 H 0.16405 0.55557 0.4124 0.0
H659 H 0.23561 0.56425 0.40254 0.0
H660 H 0.28616 0.50174 0.33614 0.0
H661 H 0.22118 0.47469 0.32461 0.0
C662 C 0.15549 0.48137 0.35367 0.0
C663 C 0.12434 0.48497 0.37179 0.0
C664 C 0.1909 0.50242 0.35752 0.0
C665 C 0.12696 0.51317 0.39222 0.0
C666 C 0.16182 0.53545 0.39569 0.0
C667 C 0.23202 0.54544 0.38525 0.0
C668 C 0.26547 0.53424 0.37052 0.0
C669 C 0.19467 0.52886 0.37921 0.0
C670 C 0.26076 0.50999 0.34807 0.0
C671 C 0.22368 0.4946 0.34142 0.0
H672 H 0.49673 0.12035 0.88293 0.0
H673 H 0.4107 0.15779 0.82504 0.0
H674 H 0.43974 0.2246 0.82461 0.0
H675 H 0.48168 0.27404 0.84614 0.0
H676 H 0.56538 0.23865 0.90634 0.0
H677 H 0.54542 0.16901 0.90045 0.0
C678 C 0.4856 0.14289 0.8695 0.0
C679 C 0.45216 0.13467 0.8538 0.0
C680 C 0.50124 0.18158 0.87039 0.0
C681 C 0.43687 0.16384 0.83694 0.0
C682 C 0.45312 0.20198 0.83697 0.0
C683 C 0.4958 0.25107 0.85786 0.0
C684 C 0.52409 0.26139 0.87716 0.0
C685 C 0.48397 0.21155 0.85455 0.0
C686 C 0.543 0.23133 0.89166 0.0
C687 C 0.53165 0.1916 0.88828 0.0
H688 H 0.3668 0.47979 0.88494 0.0
H689 H 0.31644 0.38198 0.84083 0.0
H690 H 0.25108 0.4133 0.84202 0.0
H691 H 0.20779 0.46403 0.85993 0.0
H692 H 0.25682 0.56077 0.90607 0.0
H693 H 0.32376 0.5345 0.89953 0.0
C694 C 0.34171 0.46625 0.87477 0.0
C695 C 0.34605 0.42922 0.86238 0.0
C696 C 0.30417 0.48373 0.87639 0.0
C697 C 0.31341 0.41084 0.85012 0.0
C698 C 0.27618 0.42853 0.851 0.0
C699 C 0.23308 0.47958 0.8685 0.0
C700 C 0.22738 0.51381 0.88392 0.0
C701 C 0.27107 0.46424 0.86485 0.0
C702 C 0.26049 0.53403 0.89441 0.0
C703 C 0.2987 0.51908 0.89064 0.0
H704 H 0.94992 0.24014 0.87074 0.0
H705 H 0.0202 0.19637 0.93571 0.0
H706 H 0.05675 0.25952 0.93773 0.0
H707 H 0.07081 0.3247 0.91945 0.0
H708 H 0.00691 0.3656 0.85051 0.0
H709 H 0.96518 0.30617 0.85176 0.0
C710 C 0.97284 0.24499 0.88555 0.0
C711 C 0.98233 0.21452 0.90335 0.0
C712 C 0.99476 0.28054 0.88576 0.0
C713 C 0.01249 0.22002 0.92211 0.0
C714 C 0.03336 0.25586 0.92314 0.0
C715 C 0.04784 0.32081 0.90458 0.0
C716 C 0.04165 0.35019 0.88523 0.0
C717 C 0.02517 0.28595 0.90475 0.0
C718 C 0.01163 0.34442 0.86622 0.0
C719 C 0.98799 0.31009 0.86671 0.0
H720 H 0.23319 0.93065 0.88437 0.0
H721 H 0.29038 0.03942 0.85844 0.0
H722 H 0.22637 0.07037 0.8523 0.0
H723 H 0.15512 0.06983 0.85932 0.0
H724 H 0.09621 0.96376 0.88686 0.0
H725 H 0.15964 0.92793 0.88652 0.0
C726 C 0.23154 0.961 0.87723 0.0
C727 C 0.26658 0.98283 0.87241 0.0
C728 C 0.19435 0.97898 0.87375 0.0
C729 C 0.26399 0.02197 0.86272 0.0
C730 C 0.22735 0.0398 0.85905 0.0
C731 C 0.15617 0.03849 0.86442 0.0
C732 C 0.12166 0.01913 0.87292 0.0
C733 C 0.19253 0.01896 0.86512 0.0
C734 C 0.12274 0.97878 0.87981 0.0
C735 C 0.15899 0.95862 0.88001 0.0
H736 H 0.06163 0.76155 0.63202 0.0
H737 H 0.002 0.71127 0.69993 0.0
H738 H 0.97548 0.77601 0.71147 0.0
H739 H 0.95933 0.84312 0.69779 0.0
H740 H 0.01249 0.89283 0.62764 0.0
H741 H 0.05253 0.83298 0.62185 0.0
C742 C 0.04353 0.76519 0.6496 0.0
C743 C 0.03289 0.73185 0.66476 0.0
C744 C 0.02727 0.80242 0.65571 0.0
C745 C 0.00968 0.73657 0.68763 0.0
C746 C 0.99464 0.77353 0.69432 0.0
C747 C 0.98076 0.84122 0.68179 0.0
C748 C 0.98337 0.87199 0.66331 0.0
C749 C 0.00177 0.80614 0.67785 0.0
C750 C 0.0108 0.86964 0.64246 0.0
C751 C 0.03312 0.83514 0.63888 0.0
H752 H 0.78391 0.95997 0.67105 0.0
H753 H 0.74318 0.05383 0.61968 0.0
H754 H 0.67554 0.02657 0.62138 0.0
H755 H 0.62983 0.97221 0.63418 0.0
H756 H 0.67196 0.87842 0.68498 0.0
H757 H 0.73752 0.90973 0.6869 0.0
C758 C 0.76027 0.97461 0.66025 0.0
C759 C 0.76863 0.00841 0.64488 0.0
C760 C 0.72179 0.95884 0.6613 0.0
C761 C 0.73751 0.0275 0.63146 0.0
C762 C 0.69888 0.01195 0.63243 0.0
C763 C 0.65298 0.95945 0.64637 0.0
C764 C 0.64617 0.92337 0.65966 0.0
C765 C 0.69085 0.9772 0.64692 0.0
C766 C 0.67673 0.90629 0.67465 0.0
C767 C 0.71416 0.92405 0.67567 0.0
H768 H 0.50945 0.61663 0.63839 0.0
H769 H 0.57882 0.65733 0.70501 0.0
H770 H 0.54221 0.71976 0.70561 0.0
H771 H 0.49925 0.76606 0.68253 0.0
H772 H 0.43199 0.72784 0.61434 0.0
H773 H 0.45808 0.66024 0.61937 0.0
C774 C 0.51519 0.63847 0.65373 0.0
C775 C 0.54632 0.63265 0.67182 0.0
C776 C 0.49494 0.67474 0.65333 0.0
C777 C 0.55474 0.66152 0.69104 0.0
C778 C 0.53403 0.69715 0.69128 0.0
C779 C 0.4898 0.7427 0.66904 0.0
C780 C 0.46467 0.75171 0.64775 0.0
C781 C 0.50546 0.70466 0.67176 0.0
C782 C 0.4517 0.72135 0.63073 0.0
C783 C 0.46676 0.6829 0.63353 0.0
H784 H 0.87857 0.51052 0.63755 0.0
H785 H 0.84328 0.57408 0.70772 0.0
H786 H 0.77764 0.54288 0.70594 0.0
H787 H 0.72822 0.50533 0.68115 0.0
H788 H 0.76133 0.44204 0.61042 0.0
H789 H 0.83044 0.46492 0.61574 0.0
C790 C 0.85696 0.51615 0.65299 0.0
C791 C 0.8655 0.5441 0.67292 0.0
C792 C 0.81888 0.49898 0.65134 0.0
C793 C 0.8371 0.55237 0.69238 0.0
C794 C 0.7996 0.53484 0.69122 0.0
C795 C 0.75065 0.49635 0.66696 0.0
C796 C 0.73983 0.47305 0.64505 0.0
C797 C 0.78976 0.50946 0.67021 0.0
C798 C 0.76914 0.46051 0.62724 0.0
C799 C 0.8085 0.47357 0.63029 0.0
H800 H 0.74232 0.15981 0.16516 0.0
H801 H 0.66616 0.2186 0.10892 0.0
H802 H 0.7166 0.27105 0.10303 0.0
H803 H 0.78122 0.30179 0.11592 0.0
H804 H 0.85597 0.24131 0.17237 0.0
H805 H 0.80735 0.1876 0.17575 0.0
C806 C 0.73652 0.1841 0.15161 0.0
C807 C 0.70015 0.18556 0.13781 0.0
C808 C 0.76562 0.21373 0.14823 0.0
C809 C 0.69371 0.2169 0.11995 0.0
C810 C 0.7226 0.24684 0.11657 0.0
C811 C 0.78717 0.27651 0.1286 0.0
C812 C 0.8223 0.27574 0.14395 0.0
C813 C 0.75858 0.24576 0.13081 0.0
C814 C 0.82927 0.24285 0.16041 0.0
C815 C 0.80137 0.21214 0.16245 0.0
H816 H 0.31902 0.75277 0.1264 0.0
H817 H 0.25876 0.63939 0.13084 0.0
H818 H 0.19434 0.67298 0.12916 0.0
H819 H 0.15576 0.73488 0.13073 0.0
H820 H 0.2159 0.84814 0.12471 0.0
H821 H 0.28011 0.81425 0.12237 0.0
C822 C 0.29174 0.73539 0.12671 0.0
C823 C 0.29349 0.69371 0.12914 0.0
C824 C 0.25502 0.7549 0.12557 0.0
C825 C 0.25808 0.67147 0.12903 0.0
C826 C 0.22133 0.6907 0.12821 0.0
C827 C 0.18293 0.75212 0.12861 0.0
C828 C 0.18128 0.79396 0.12828 0.0
C829 C 0.21951 0.73242 0.12714 0.0
C830 C 0.21651 0.81595 0.12505 0.0
C831 C 0.25316 0.79657 0.12386 0.0
H832 H 0.2731 0.67486 0.41944 0.0
H833 H 0.35521 0.76383 0.39079 0.0
H834 H 0.30377 0.81467 0.39458 0.0
H835 H 0.23415 0.83248 0.40211 0.0
H836 H 0.14978 0.74222 0.42586 0.0
H837 H 0.2033 0.69322 0.42805 0.0
C838 C 0.27992 0.70558 0.41462 0.0
C839 C 0.31809 0.71577 0.4052 0.0
C840 C 0.24961 0.73425 0.41567 0.0
C841 C 0.3262 0.75541 0.39829 0.0
C842 C 0.29673 0.78439 0.40034 0.0
C843 C 0.22748 0.80223 0.40819 0.0
C844 C 0.18794 0.79109 0.41395 0.0
C845 C 0.25811 0.77398 0.40843 0.0
C846 C 0.17988 0.75158 0.42133 0.0
C847 C 0.21049 0.72356 0.42255 0.0
H848 H 0.81384 0.28275 0.42693 0.0
H849 H 0.7464 0.37366 0.38692 0.0
H850 H 0.69102 0.32751 0.38138 0.0
H851 H 0.66406 0.26031 0.38408 0.0
H852 H 0.72933 0.16839 0.42422 0.0
H853 H 0.78334 0.21606 0.43364 0.0
C854 C 0.78676 0.29269 0.41743 0.0
C855 C 0.78457 0.33164 0.40708 0.0
C856 C 0.75493 0.26569 0.41399 0.0
C857 C 0.74915 0.34392 0.3949 0.0
C858 C 0.71745 0.31746 0.3916 0.0
C859 C 0.69009 0.25062 0.39494 0.0
C860 C 0.69317 0.21072 0.40298 0.0
C861 C 0.7205 0.27807 0.40037 0.0
C862 C 0.72651 0.19889 0.41765 0.0
C863 C 0.75733 0.22614 0.42298 0.0
H864 H 0.2503 0.65992 0.87684 0.0
H865 H 0.16595 0.72213 0.92553 0.0
H866 H 0.21359 0.77751 0.93068 0.0
H867 H 0.27793 0.8099 0.91839 0.0
H868 H 0.36097 0.74514 0.86985 0.0
H869 H 0.31524 0.68892 0.86792 0.0
C870 C 0.24216 0.68558 0.88862 0.0
C871 C 0.20429 0.68722 0.90038 0.0
C872 C 0.26963 0.71681 0.89158 0.0
C873 C 0.19477 0.72026 0.91611 0.0
C874 C 0.22203 0.7519 0.91901 0.0
C875 C 0.28629 0.78321 0.9078 0.0
C876 C 0.32291 0.78202 0.8941 0.0
C877 C 0.25942 0.75076 0.90648 0.0
C878 C 0.33306 0.74715 0.88043 0.0
C879 C 0.30682 0.71494 0.87922 0.0
H880 H 0.66154 0.25105 0.89906 0.0
H881 H 0.72944 0.35969 0.90552 0.0
H882 H 0.79086 0.3212 0.9102 0.0
H883 H 0.82523 0.25686 0.90709 0.0
H884 H 0.75701 0.14812 0.90229 0.0
H885 H 0.69518 0.18638 0.90276 0.0
C886 C 0.6898 0.26617 0.90201 0.0
C887 C 0.6914 0.30797 0.90171 0.0
C888 C 0.72462 0.24386 0.90481 0.0
C889 C 0.72778 0.32751 0.90578 0.0
C890 C 0.76277 0.30551 0.90826 0.0
C891 C 0.79674 0.24157 0.90659 0.0
C892 C 0.79544 0.19985 0.90428 0.0
C893 C 0.76158 0.26374 0.907 0.0
C894 C 0.75858 0.18019 0.90406 0.0
C895 C 0.72335 0.20208 0.90416 0.0
H896 H 0.7378 0.16203 0.63149 0.0
H897 H 0.84706 0.22253 0.6114 0.0
H898 H 0.81076 0.28504 0.60601 0.0
H899 H 0.74953 0.32355 0.61328 0.0
H900 H 0.64022 0.2627 0.63232 0.0
H901 H 0.67481 0.1987 0.63159 0.0
C902 C 0.75354 0.18884 0.62555 0.0
C903 C 0.79508 0.1881 0.62234 0.0
C904 C 0.73248 0.22435 0.62242 0.0
C905 C 0.81513 0.22261 0.61411 0.0
C906 C 0.79441 0.25828 0.61116 0.0
C907 C 0.73319 0.29604 0.61646 0.0
C908 C 0.69257 0.29741 0.62282 0.0
C909 C 0.75334 0.25968 0.61611 0.0
C910 C 0.67142 0.26199 0.62707 0.0
C911 C 0.69129 0.2256 0.62693 0.0
H912 H 0.32409 0.77812 0.63227 0.0
H913 H 0.24089 0.83875 0.58153 0.0
H914 H 0.19461 0.78262 0.58502 0.0
H915 H 0.17596 0.71793 0.60476 0.0
H916 H 0.25778 0.65971 0.65759 0.0
H917 H 0.30661 0.71283 0.65061 0.0
C918 C 0.29594 0.77909 0.62183 0.0
C919 C 0.28602 0.81289 0.60675 0.0
C920 C 0.26924 0.7469 0.62419 0.0
C921 C 0.24932 0.81336 0.5934 0.0
C922 C 0.22282 0.78117 0.59534 0.0
C923 C 0.20482 0.71647 0.61428 0.0
C924 C 0.21338 0.68468 0.63151 0.0
C925 C 0.23226 0.74794 0.61091 0.0
C926 C 0.25057 0.6837 0.64415 0.0
C927 C 0.2784 0.7142 0.64028 0.0
H928 H 0.54248 0.98034 0.04822 0.0
H929 H 0.50144 0.10098 0.04144 0.0
H930 H 0.46319 0.08275 1.00171 0.0
H931 H 0.43845 0.03137 0.97064 0.0
H932 H 0.47984 0.91079 0.97769 0.0
H933 H 0.51898 0.92947 0.01675 0.0
C934 C 0.52517 0.0027 0.03801 0.0
C935 C 0.52452 0.04197 0.04789 0.0
C936 C 0.50246 0.99164 0.01578 0.0
C937 C 0.5027 0.07074 0.03415 0.0
C938 C 0.48042 0.06012 1.01167 0.0
C939 C 0.45628 0.0092 0.98061 0.0
C940 C 0.45637 0.96966 0.97111 0.0
C941 C 0.47954 0.0205 1.00261 0.0
C942 C 0.47887 0.9412 0.98467 0.0
C943 C 0.50166 0.95205 1.0068 0.0
H944 H 0.50074 0.54311 0.05254 0.0
H945 H 0.38536 0.48687 0.05237 0.0
H946 H 0.40367 0.44867 1.01276 0.0
H947 H 0.45404 0.42889 0.97979 0.0
H948 H 0.56839 0.48757 0.97912 0.0
H949 H 0.54987 0.52564 0.01845 0.0
C950 C 0.47953 0.52261 0.04371 0.0
C951 C 0.44179 0.51756 0.05539 0.0
C952 C 0.49056 0.5005 0.0213 0.0
C953 C 0.4144 0.4914 0.04361 0.0
C954 C 0.42509 0.46929 0.02118 0.0
C955 C 0.47478 0.45035 0.98806 0.0
C956 C 0.5126 0.45543 0.97638 0.0
C957 C 0.46332 0.47318 1.01011 0.0
C958 C 0.53939 0.48262 0.98782 0.0
C959 C 0.52858 0.50479 1.01012 0.0
H960 H 0.94755 0.50936 0.05886 0.0
H961 H -0.003 0.39164 0.05534 0.0
H962 H 0.03881 0.41194 0.01778 0.0
H963 H 0.06276 0.46395 0.98714 0.0
H964 H 0.01152 0.58101 0.98974 0.0
H965 H 0.97088 0.56112 0.02786 0.0
C966 C 0.96749 0.48812 0.04983 0.0
C967 C 0.96938 0.44902 0.05994 0.0
C968 C 0.99191 0.50034 0.02872 0.0
C969 C 0.99474 0.42167 0.04778 0.0
C970 C 0.019 0.4335 0.02657 0.0
C971 C 0.04265 0.48515 0.99605 0.0
C972 C 0.03995 0.52392 0.98544 0.0
C973 C 0.01818 0.47289 0.01714 0.0
C974 C 0.01444 0.55122 0.99758 0.0
C975 C 0.99077 0.5396 0.01911 0.0
H976 H 0.00828 0.04284 0.97512 0.0
H977 H 0.88877 -0.0014 0.98541 0.0
H978 H 0.90923 0.96441 0.02614 0.0
H979 H 0.96184 0.94516 0.05758 0.0
H980 H 0.08151 0.98869 0.04675 0.0
H981 H 0.06089 0.02313 1.0062 0.0
C982 C 0.98675 0.02535 0.9861 0.0
C983 C 0.94711 0.02271 0.97704 0.0
C984 C -0.00095 0.005 1.00893 0.0
C985 C 0.91932 0.00114 0.992 0.0
C986 C 0.93117 0.98129 1.01509 0.0
C987 C 0.98338 0.96241 0.04642 0.0
C988 C 0.02313 0.96482 0.05529 0.0
C989 C 0.97105 0.98265 0.02353 0.0
C990 C 0.05089 0.98628 0.04026 0.0
C991 C 0.03896 0.00628 0.01728 0.0
H992 H 0.01252 -0.00052 0.57106 0.0
H993 H 0.91733 0.05327 0.52683 0.0
H994 H 0.94877 0.03298 0.48531 0.0
H995 H 0.00192 -0.00215 0.46176 0.0
H996 H 0.09791 0.94496 0.50569 0.0
H997 H 0.06632 0.96484 0.54734 0.0
C998 C -0.00125 0.00685 0.55229 0.0
C999 C 0.96268 0.02801 0.55201 0.0
C1000 C 0.01657 0.99427 0.52857 0.0
C1001 C 0.94535 0.03766 0.5276 0.0
C1002 C 0.96306 0.02556 0.50388 0.0
C1003 C 0.01609 0.99085 0.48046 0.0
C1004 C 0.0524 0.97013 0.48062 0.0
C1005 C -0.00159 0.00352 0.50417 0.0
C1006 C 0.06983 0.96047 0.505 0.0
C1007 C 0.05201 0.97231 0.52879 0.0
H1008 H 0.50307 0.99044 0.45712 0.0
H1009 H 0.5658 0.07897 0.50293 0.0
H1010 H 0.54594 0.04527 0.54389 0.0
H1011 H 0.50809 0.99221 0.56669 0.0
H1012 H 0.44492 0.90412 0.52077 0.0
H1013 H 0.46576 0.93723 0.47981 0.0
C1014 C 0.51247 0.00231 0.47609 0.0
C1015 C 0.53593 0.03722 0.47695 0.0
C1016 C 0.4999 0.98344 0.49951 0.0
C1017 C 0.54829 0.05192 0.50165 0.0
C1018 C 0.53644 0.03293 0.52509 0.0
C1019 C 0.49887 0.98031 0.54768 0.0
C1020 C 0.47476 0.94585 0.54676 0.0
C1021 C 0.51178 -0.00099 0.52425 0.0
C1022 C 0.46284 0.93093 0.52204 0.0
C1023 C 0.4752 0.94958 0.49863 0.0
H1024 H 0.49778 0.50046 0.46355 0.0
H1025 H 0.40686 0.56079 0.50781 0.0
H1026 H 0.43916 0.54153 0.54936 0.0
H1027 H 0.49204 0.50523 0.57309 0.0
H1028 H 0.58225 0.44424 0.52855 0.0
H1029 H 0.55034 0.46421 0.48714 0.0
C1030 C 0.48491 0.50926 0.48231 0.0
C1031 C 0.44977 0.53188 0.48256 0.0
C1032 C 0.50305 0.4971 0.50605 0.0
C1033 C 0.43401 0.54375 0.50701 0.0
C1034 C 0.45225 0.53232 0.53078 0.0
C1035 C 0.50467 0.49631 0.55429 0.0
C1036 C 0.5394 0.47303 0.55394 0.0
C1037 C 0.48652 0.5086 0.53054 0.0
C1038 C 0.55522 0.46146 0.52944 0.0
C1039 C 0.53723 0.47333 0.50574 0.0
H1040 H 0.00021 0.49418 0.57632 0.0
H1041 H 0.05548 0.5896 0.53255 0.0
H1042 H 0.03401 0.55896 0.49088 0.0
H1043 H -0.0021 0.5061 0.46703 0.0
H1044 H 0.94387 0.4097 0.51055 0.0
H1045 H 0.96442 0.44081 0.55231 0.0
C1046 C 0.00757 0.50822 0.55762 0.0
C1047 C 0.0295 0.54413 0.55752 0.0
C1048 C 0.99444 0.49077 0.5338 0.0
C1049 C 0.03919 0.56175 0.53318 0.0
C1050 C 0.02646 0.54446 0.50938 0.0
C1051 C 0.99074 0.49178 0.48567 0.0
C1052 C 0.96945 0.45549 0.48564 0.0
C1053 C 0.0038 0.50918 0.50948 0.0
C1054 C 0.95972 0.43781 0.50996 0.0
C1055 C 0.97196 0.45535 0.53383 0.0
H1056 H 0.52319 0.07392 0.30609 0.0
H1057 H 0.64219 0.12095 0.31487 0.0
H1058 H 0.65108 0.11843 0.2667 0.0
H1059 H 0.62449 0.10278 0.22189 0.0
H1060 H 0.5057 0.05495 0.21458 0.0
H1061 H 0.49686 0.05917 0.26242 0.0
C1062 C 0.5513 0.0835 0.29764 0.0
C1063 C 0.58204 0.0975 0.31426 0.0
C1064 C 0.55588 0.08265 0.27008 0.0
C1065 C 0.61812 0.10968 0.30269 0.0
C1066 C 0.62307 0.10861 0.2751 0.0
C1067 C 0.59641 0.09416 0.2308 0.0
C1068 C 0.5655 0.07915 0.2147 0.0
C1069 C 0.59197 0.09549 0.25855 0.0
C1070 C 0.52969 0.067 0.22653 0.0
C1071 C 0.52477 0.06906 0.25389 0.0
H1072 H 0.36694 0.61342 0.31041 0.0
H1073 H 0.48278 0.56382 0.32448 0.0
H1074 H 0.49602 0.56311 0.27688 0.0
H1075 H 0.47263 0.57138 0.23136 0.0
H1076 H 0.35534 0.61789 0.21672 0.0
H1077 H 0.34436 0.62422 0.26437 0.0
C1078 C 0.39555 0.60375 0.30302 0.0
C1079 C 0.42428 0.58957 0.32089 0.0
C1080 C 0.40216 0.60166 0.27551 0.0
C1081 C 0.46065 0.57565 0.31108 0.0
C1082 C 0.46796 0.57473 0.28387 0.0
C1083 C 0.44452 0.58276 0.23849 0.0
C1084 C 0.4147 0.59371 0.22032 0.0
C1085 C 0.43851 0.58659 0.26589 0.0
C1086 C 0.37871 0.60881 0.23014 0.0
C1087 C 0.3725 0.61273 0.25743 0.0
H1088 H 0.91537 0.47278 0.234 0.0
H1089 H 0.87627 0.35193 0.22048 0.0
H1090 H 0.8738 0.34058 0.26836 0.0
H1091 H 0.88612 0.36436 0.31415 0.0
H1092 H 0.92757 0.48447 0.32653 0.0
H1093 H 0.92443 0.4972 0.27896 0.0
C1094 C 0.90645 0.44379 0.24137 0.0
C1095 C 0.89653 0.41308 0.22351 0.0
C1096 C 0.9047 0.43766 0.2688 0.0
C1097 C 0.88451 0.37599 0.23368 0.0
C1098 C 0.88282 0.36957 0.26109 0.0
C1099 C 0.89317 0.39365 0.30641 0.0
C1100 C 0.9063 0.42376 0.32377 0.0
C1101 C 0.89295 0.40019 0.27885 0.0
C1102 C 0.91671 0.46117 0.31353 0.0
C1103 C 0.91542 0.46825 0.28633 0.0
H1104 H 0.12897 0.88567 0.30801 0.0
H1105 H 0.01045 0.92451 0.32655 0.0
H1106 H 0.99259 0.92255 0.27964 0.0
H1107 H 0.01238 0.91589 0.23344 0.0
H1108 H 0.13171 0.87963 0.21403 0.0
H1109 H 0.14787 0.87531 0.2612 0.0
C1110 C 0.09887 0.89227 0.30177 0.0
C1111 C 0.07072 0.90436 0.32064 0.0
C1112 C 0.08942 0.8929 0.27461 0.0
C1113 C 0.03224 0.91432 0.31234 0.0
C1114 C 0.02225 0.91379 0.28553 0.0
C1115 C 0.04207 0.90724 0.23941 0.0
C1116 C 0.07096 0.89869 0.22011 0.0
C1117 C 0.05097 0.90436 0.26647 0.0
C1118 C 0.10901 0.88686 0.2284 0.0
C1119 C 0.11818 0.88408 0.25539 0.0
H1120 H 0.43357 0.96239 0.79655 0.0
H1121 H 0.37373 0.8508 0.81196 0.0
H1122 H 0.37299 0.83626 0.76442 0.0
H1123 H 0.3897 0.85556 0.71823 0.0
H1124 H 0.4508 0.96658 0.70414 0.0
H1125 H 0.44935 0.98173 0.75142 0.0
C1126 C 0.42056 0.93464 0.78969 0.0
C1127 C 0.4039 0.90765 0.80799 0.0
C1128 C 0.41953 0.9269 0.76244 0.0
C1129 C 0.38713 0.87199 0.79845 0.0
C1130 C 0.38632 0.86385 0.77122 0.0
C1131 C 0.40166 0.8835 0.72556 0.0
C1132 C 0.4195 0.91045 0.70777 0.0
C1133 C 0.40208 0.8913 0.75298 0.0
C1134 C 0.43625 0.94588 0.71747 0.0
C1135 C 0.43586 0.95428 0.7445 0.0
H1136 H 0.57014 0.47023 0.7257 0.0
H1137 H 0.62168 0.35468 0.71262 0.0
H1138 H 0.61811 0.34083 0.76017 0.0
H1139 H 0.59987 0.36178 0.80569 0.0
H1140 H 0.54593 0.47627 0.81749 0.0
H1141 H 0.55214 0.49088 0.77027 0.0
C1142 C 0.58048 0.44184 0.73311 0.0
C1143 C 0.59609 0.41351 0.71547 0.0
C1144 C 0.57874 0.43431 0.76038 0.0
C1145 C 0.60919 0.37693 0.72562 0.0
C1146 C 0.60752 0.36915 0.75288 0.0
C1147 C 0.59047 0.39027 0.7979 0.0
C1148 C 0.57337 0.4184 0.81501 0.0
C1149 C 0.59266 0.39777 0.77049 0.0
C1150 C 0.55988 0.45461 0.80469 0.0
C1151 C 0.56303 0.46274 0.7777 0.0
H1152 H 0.03219 0.56338 0.73073 0.0
H1153 H 0.15162 0.60731 0.71832 0.0
H1154 H 0.16281 0.60764 0.7663 0.0
H1155 H 0.13795 0.5958 0.81203 0.0
H1156 H 0.01844 0.55184 0.82299 0.0
H1157 H 0.00744 0.55282 0.77523 0.0
C1158 C 0.06094 0.57274 0.73831 0.0
C1159 C 0.09109 0.5851 0.72073 0.0
C1160 C 0.0667 0.574 0.76577 0.0
C1161 C 0.12798 0.5972 0.73125 0.0
C1162 C 0.13421 0.59787 0.75873 0.0
C1163 C 0.10921 0.58756 0.80389 0.0
C1164 C 0.07866 0.57462 0.82096 0.0
C1165 C 0.10356 0.58686 0.77622 0.0
C1166 C 0.04202 0.56262 0.81022 0.0
C1167 C 0.03593 0.56268 0.78293 0.0
H1168 H 0.96859 0.07873 0.80195 0.0
H1169 H 0.84914 0.11923 0.81665 0.0
H1170 H 0.83619 0.12053 0.76892 0.0
H1171 H 0.85802 0.10649 0.7229 0.0
H1172 H 0.97664 0.06341 0.70951 0.0
H1173 H 0.99111 0.06792 0.7568 0.0
C1174 C 0.9396 0.08783 0.79486 0.0
C1175 C 0.90975 0.09844 0.81302 0.0
C1176 C 0.93247 0.08869 0.76751 0.0
C1177 C 0.87258 0.11051 0.80322 0.0
C1178 C 0.86523 0.11148 0.77589 0.0
C1179 C 0.88733 0.09929 0.73037 0.0
C1180 C 0.91654 0.08533 0.71282 0.0
C1181 C 0.8949 0.10042 0.75783 0.0
C1182 C 0.95402 0.07481 0.72269 0.0
C1183 C 0.96212 0.07696 0.74973 0.0
loop_
_geom_bond_atom_site_label_1
_geom_bond_atom_site_label_2
_geom_bond_distance
_geom_bond_site_symmetry_2
_ccdc_geom_bond_type
Co0 O3 1.970 . S
Co0 N17 1.989 . S
Co0 O25 1.967 . S
Co0 O32 1.920 . S
Co1 O4 1.966 1_565 S
Co1 N10 2.022 . S
Co1 N18 1.993 1_565 S
Co1 O26 1.941 . S
C2 O3 1.258 . S
C2 O4 1.263 . S
O3 Co0 1.970 . S
O3 C2 1.258 . S
O4 Co1 1.966 1_545 S
O4 C2 1.263 . S
C5 O6 1.235 . S
C5 O32 1.289 . S
O6 C5 1.235 . S
C7 C9 1.400 . S
C7 N10 1.351 . S
C7 C12 1.501 . S
C8 C9 1.387 . S
C8 N11 1.341 . S
C9 C7 1.400 . S
C9 C8 1.387 . S
N10 Co1 2.022 . S
N10 C7 1.351 . S
N10 N11 1.365 . S
N11 C8 1.341 . S
N11 N10 1.365 . S
N11 H31 0.862 . S
C12 C7 1.501 . S
C12 H13 0.961 . S
C12 H14 0.961 . S
C12 H15 0.960 . S
H13 C12 0.961 . S
H14 C12 0.961 . S
H15 C12 0.960 . S
C16 N17 1.342 . S
C16 C20 1.401 . S
C16 C21 1.499 . S
N17 Co0 1.989 . S
N17 C16 1.342 . S
N17 N18 1.388 . S
N18 Co1 1.993 1_545 S
N18 N17 1.388 . S
N18 C19 1.346 . S
C19 N18 1.346 . S
C19 C20 1.396 . S
C19 C29 1.510 1_545 S
C20 C16 1.401 . S
C20 C19 1.396 . S
C21 C16 1.499 . S
C21 H22 0.959 . S
C21 H23 0.960 . S
C21 H24 0.961 . S
H22 C21 0.959 . S
H23 C21 0.960 . S
H24 C21 0.961 . S
O25 Co0 1.967 . S
O25 C33 1.258 . S
O26 Co1 1.941 . S
O26 C33 1.266 1_565 S
H27 C29 0.959 . S
H28 C29 0.961 . S
C29 C19 1.510 1_565 S
C29 H27 0.959 . S
C29 H28 0.961 . S
C29 H30 0.960 . S
H30 C29 0.960 . S
H31 N11 0.862 . S
O32 Co0 1.920 . S
O32 C5 1.289 . S
C33 O25 1.258 . S
C33 O26 1.266 1_545 S
Co34 O37 1.970 . S
Co34 N51 1.989 . S
Co34 O59 1.967 . S
Co34 O66 1.920 . S
Co35 O38 1.966 . S
Co35 N44 2.022 . S
Co35 N52 1.993 . S
Co35 O60 1.941 . S
C36 O37 1.258 . S
C36 O38 1.263 . S
O37 Co34 1.970 . S
O37 C36 1.258 . S
O38 Co35 1.966 . S
O38 C36 1.263 . S
C39 O40 1.235 . S
C39 O66 1.289 . S
O40 C39 1.235 . S
C41 C43 1.400 . S
C41 N44 1.351 . S
C41 C46 1.501 . S
C42 C43 1.387 . S
C42 N45 1.341 . S
C43 C41 1.400 . S
C43 C42 1.387 . S
N44 Co35 2.022 . S
N44 C41 1.351 . S
N44 N45 1.365 . S
N45 C42 1.341 . S
N45 N44 1.365 . S
N45 H65 0.862 . S
C46 C41 1.501 . S
C46 H47 0.961 . S
C46 H48 0.961 . S
C46 H49 0.960 . S
H47 C46 0.961 . S
H48 C46 0.961 . S
H49 C46 0.960 . S
C50 N51 1.342 . S
C50 C54 1.401 . S
C50 C55 1.499 . S
N51 Co34 1.989 . S
N51 C50 1.342 . S
N51 N52 1.388 . S
N52 Co35 1.993 . S
N52 N51 1.388 . S
N52 C53 1.346 . S
C53 N52 1.346 . S
C53 C54 1.396 . S
C53 C63 1.510 . S
C54 C50 1.401 . S
C54 C53 1.396 . S
C55 C50 1.499 . S
C55 H56 0.959 . S
C55 H57 0.960 . S
C55 H58 0.961 . S
H56 C55 0.959 . S
H57 C55 0.960 . S
H58 C55 0.961 . S
O59 Co34 1.967 . S
O59 C67 1.258 . S
O60 Co35 1.941 . S
O60 C67 1.266 . S
H61 C63 0.959 . S
H62 C63 0.961 . S
C63 C53 1.510 . S
C63 H61 0.959 . S
C63 H62 0.961 . S
C63 H64 0.960 . S
H64 C63 0.960 . S
H65 N45 0.862 . S
O66 Co34 1.920 . S
O66 C39 1.289 . S
C67 O59 1.258 . S
C67 O60 1.266 . S
Co68 O71 1.970 . S
Co68 N85 1.989 . S
Co68 O93 1.967 . S
Co68 O100 1.920 . S
Co69 O72 1.966 . S
Co69 N78 2.022 . S
Co69 N86 1.993 . S
Co69 O94 1.941 . S
C70 O71 1.258 . S
C70 O72 1.263 . S
O71 Co68 1.970 . S
O71 C70 1.258 . S
O72 Co69 1.966 . S
O72 C70 1.263 . S
C73 O74 1.235 . S
C73 O100 1.289 . S
O74 C73 1.235 . S
C75 C77 1.400 . S
C75 N78 1.351 . S
C75 C80 1.501 . S
C76 C77 1.387 . S
C76 N79 1.341 . S
C77 C75 1.400 . S
C77 C76 1.387 . S
N78 Co69 2.022 . S
N78 C75 1.351 . S
N78 N79 1.365 . S
N79 C76 1.341 . S
N79 N78 1.365 . S
N79 H99 0.862 . S
C80 C75 1.501 . S
C80 H81 0.961 . S
C80 H82 0.961 . S
C80 H83 0.960 . S
H81 C80 0.961 . S
H82 C80 0.961 . S
H83 C80 0.960 . S
C84 N85 1.342 . S
C84 C88 1.401 . S
C84 C89 1.499 . S
N85 Co68 1.989 . S
N85 C84 1.342 . S
N85 N86 1.388 . S
N86 Co69 1.993 . S
N86 N85 1.388 . S
N86 C87 1.346 . S
C87 N86 1.346 . S
C87 C88 1.396 . S
C87 C97 1.510 . S
C88 C84 1.401 . S
C88 C87 1.396 . S
C89 C84 1.499 . S
C89 H90 0.959 . S
C89 H91 0.960 . S
C89 H92 0.961 . S
H90 C89 0.959 . S
H91 C89 0.960 . S
H92 C89 0.961 . S
O93 Co68 1.967 . S
O93 C101 1.258 . S
O94 Co69 1.941 . S
O94 C101 1.266 . S
H95 C97 0.959 . S
H96 C97 0.961 . S
C97 C87 1.510 . S
C97 H95 0.959 . S
C97 H96 0.961 . S
C97 H98 0.960 . S
H98 C97 0.960 . S
H99 N79 0.862 . S
O100 Co68 1.920 . S
O100 C73 1.289 . S
C101 O93 1.258 . S
C101 O94 1.266 . S
Co102 O105 1.970 . S
Co102 N119 1.989 . S
Co102 O127 1.967 . S
Co102 O134 1.920 . S
Co103 O106 1.966 1_655 S
Co103 N112 2.022 . S
Co103 N120 1.993 1_655 S
Co103 O128 1.941 . S
C104 O105 1.258 . S
C104 O106 1.263 . S
O105 Co102 1.970 . S
O105 C104 1.258 . S
O106 Co103 1.966 1_455 S
O106 C104 1.263 . S
C107 O108 1.235 . S
C107 O134 1.289 . S
O108 C107 1.235 . S
C109 C111 1.400 . S
C109 N112 1.351 . S
C109 C114 1.501 . S
C110 C111 1.387 . S
C110 N113 1.341 . S
C111 C109 1.400 . S
C111 C110 1.387 . S
N112 Co103 2.022 . S
N112 C109 1.351 . S
N112 N113 1.365 . S
N113 C110 1.341 . S
N113 N112 1.365 . S
N113 H133 0.862 . S
C114 C109 1.501 . S
C114 H115 0.961 . S
C114 H116 0.961 . S
C114 H117 0.960 . S
H115 C114 0.961 . S
H116 C114 0.961 . S
H117 C114 0.960 . S
C118 N119 1.342 . S
C118 C122 1.401 . S
C118 C123 1.499 . S
N119 Co102 1.989 . S
N119 C118 1.342 . S
N119 N120 1.388 . S
N120 Co103 1.993 1_455 S
N120 N119 1.388 . S
N120 C121 1.346 . S
C121 N120 1.346 . S
C121 C122 1.396 . S
C121 C131 1.510 1_455 S
C122 C118 1.401 . S
C122 C121 1.396 . S
C123 C118 1.499 . S
C123 H124 0.959 . S
C123 H125 0.960 . S
C123 H126 0.961 . S
H124 C123 0.959 . S
H125 C123 0.960 . S
H126 C123 0.961 . S
O127 Co102 1.967 . S
O127 C135 1.258 . S
O128 Co103 1.941 . S
O128 C135 1.266 1_655 S
H129 C131 0.959 . S
H130 C131 0.961 . S
C131 C121 1.510 1_655 S
C131 H129 0.959 . S
C131 H130 0.961 . S
C131 H132 0.960 . S
H132 C131 0.960 . S
H133 N113 0.862 . S
O134 Co102 1.920 . S
O134 C107 1.289 . S
C135 O127 1.258 . S
C135 O128 1.266 1_455 S
Co136 O139 1.970 . S
Co136 N153 1.989 . S
Co136 O161 1.967 . S
Co136 O168 1.920 . S
Co137 O140 1.966 1_545 S
Co137 N146 2.022 . S
Co137 N154 1.993 1_545 S
Co137 O162 1.941 . S
C138 O139 1.258 . S
C138 O140 1.263 . S
O139 Co136 1.970 . S
O139 C138 1.258 . S
O140 Co137 1.966 1_565 S
O140 C138 1.263 . S
C141 O142 1.235 . S
C141 O168 1.289 . S
O142 C141 1.235 . S
C143 C145 1.400 . S
C143 N146 1.351 . S
C143 C148 1.501 . S
C144 C145 1.387 . S
C144 N147 1.341 . S
C145 C143 1.400 . S
C145 C144 1.387 . S
N146 Co137 2.022 . S
N146 C143 1.351 . S
N146 N147 1.365 . S
N147 C144 1.341 . S
N147 N146 1.365 . S
N147 H167 0.862 . S
C148 C143 1.501 . S
C148 H149 0.961 . S
C148 H150 0.961 . S
C148 H151 0.960 . S
H149 C148 0.961 . S
H150 C148 0.961 . S
H151 C148 0.960 . S
C152 N153 1.342 . S
C152 C156 1.401 . S
C152 C157 1.499 . S
N153 Co136 1.989 . S
N153 C152 1.342 . S
N153 N154 1.388 . S
N154 Co137 1.993 1_565 S
N154 N153 1.388 . S
N154 C155 1.346 . S
C155 N154 1.346 . S
C155 C156 1.396 . S
C155 C165 1.510 1_565 S
C156 C152 1.401 . S
C156 C155 1.396 . S
C157 C152 1.499 . S
C157 H158 0.959 . S
C157 H159 0.960 . S
C157 H160 0.961 . S
H158 C157 0.959 . S
H159 C157 0.960 . S
H160 C157 0.961 . S
O161 Co136 1.967 . S
O161 C169 1.258 . S
O162 Co137 1.941 . S
O162 C169 1.266 1_545 S
H163 C165 0.959 . S
H164 C165 0.961 . S
C165 C155 1.510 1_545 S
C165 H163 0.959 . S
C165 H164 0.961 . S
C165 H166 0.960 . S
H166 C165 0.960 . S
H167 N147 0.862 . S
O168 Co136 1.920 . S
O168 C141 1.289 . S
C169 O161 1.258 . S
C169 O162 1.266 1_565 S
Co170 O173 1.970 . S
Co170 N187 1.989 . S
Co170 O195 1.967 . S
Co170 O202 1.920 . S
Co171 O174 1.966 . S
Co171 N180 2.022 . S
Co171 N188 1.993 . S
Co171 O196 1.941 . S
C172 O173 1.258 . S
C172 O174 1.263 . S
O173 Co170 1.970 . S
O173 C172 1.258 . S
O174 Co171 1.966 . S
O174 C172 1.263 . S
C175 O176 1.235 . S
C175 O202 1.289 . S
O176 C175 1.235 . S
C177 C179 1.400 . S
C177 N180 1.351 . S
C177 C182 1.501 . S
C178 C179 1.387 . S
C178 N181 1.341 . S
C179 C177 1.400 . S
C179 C178 1.387 . S
N180 Co171 2.022 . S
N180 C177 1.351 . S
N180 N181 1.365 . S
N181 C178 1.341 . S
N181 N180 1.365 . S
N181 H201 0.862 . S
C182 C177 1.501 . S
C182 H183 0.961 . S
C182 H184 0.961 . S
C182 H185 0.960 . S
H183 C182 0.961 . S
H184 C182 0.961 . S
H185 C182 0.960 . S
C186 N187 1.342 . S
C186 C190 1.401 . S
C186 C191 1.499 . S
N187 Co170 1.989 . S
N187 C186 1.342 . S
N187 N188 1.388 . S
N188 Co171 1.993 . S
N188 N187 1.388 . S
N188 C189 1.346 . S
C189 N188 1.346 . S
C189 C190 1.396 . S
C189 C199 1.510 . S
C190 C186 1.401 . S
C190 C189 1.396 . S
C191 C186 1.499 . S
C191 H192 0.959 . S
C191 H193 0.960 . S
C191 H194 0.961 . S
H192 C191 0.959 . S
H193 C191 0.960 . S
H194 C191 0.961 . S
O195 Co170 1.967 . S
O195 C203 1.258 . S
O196 Co171 1.941 . S
O196 C203 1.266 . S
H197 C199 0.959 . S
H198 C199 0.961 . S
C199 C189 1.510 . S
C199 H197 0.959 . S
C199 H198 0.961 . S
C199 H200 0.960 . S
H200 C199 0.960 . S
H201 N181 0.862 . S
O202 Co170 1.920 . S
O202 C175 1.289 . S
C203 O195 1.258 . S
C203 O196 1.266 . S
Co204 O207 1.970 . S
Co204 N221 1.989 . S
Co204 O229 1.967 . S
Co204 O236 1.920 . S
Co205 O208 1.966 . S
Co205 N214 2.022 . S
Co205 N222 1.993 . S
Co205 O230 1.941 . S
C206 O207 1.258 . S
C206 O208 1.263 . S
O207 Co204 1.970 . S
O207 C206 1.258 . S
O208 Co205 1.966 . S
O208 C206 1.263 . S
C209 O210 1.235 . S
C209 O236 1.289 . S
O210 C209 1.235 . S
C211 C213 1.400 . S
C211 N214 1.351 . S
C211 C216 1.501 . S
C212 C213 1.387 . S
C212 N215 1.341 . S
C213 C211 1.400 . S
C213 C212 1.387 . S
N214 Co205 2.022 . S
N214 C211 1.351 . S
N214 N215 1.365 . S
N215 C212 1.341 . S
N215 N214 1.365 . S
N215 H235 0.862 . S
C216 C211 1.501 . S
C216 H217 0.961 . S
C216 H218 0.961 . S
C216 H219 0.960 . S
H217 C216 0.961 . S
H218 C216 0.961 . S
H219 C216 0.960 . S
C220 N221 1.342 . S
C220 C224 1.401 . S
C220 C225 1.499 . S
N221 Co204 1.989 . S
N221 C220 1.342 . S
N221 N222 1.388 . S
N222 Co205 1.993 . S
N222 N221 1.388 . S
N222 C223 1.346 . S
C223 N222 1.346 . S
C223 C224 1.396 . S
C223 C233 1.510 . S
C224 C220 1.401 . S
C224 C223 1.396 . S
C225 C220 1.499 . S
C225 H226 0.959 . S
C225 H227 0.960 . S
C225 H228 0.961 . S
H226 C225 0.959 . S
H227 C225 0.960 . S
H228 C225 0.961 . S
O229 Co204 1.967 . S
O229 C237 1.258 . S
O230 Co205 1.941 . S
O230 C237 1.266 . S
H231 C233 0.959 . S
H232 C233 0.961 . S
C233 C223 1.510 . S
C233 H231 0.959 . S
C233 H232 0.961 . S
C233 H234 0.960 . S
H234 C233 0.960 . S
H235 N215 0.862 . S
O236 Co204 1.920 . S
O236 C209 1.289 . S
C237 O229 1.258 . S
C237 O230 1.266 . S
Co238 O241 1.970 . S
Co238 N255 1.989 . S
Co238 O263 1.967 . S
Co238 O270 1.920 . S
Co239 O242 1.966 1_455 S
Co239 N248 2.022 . S
Co239 N256 1.993 1_455 S
Co239 O264 1.941 . S
C240 O241 1.258 . S
C240 O242 1.263 . S
O241 Co238 1.970 . S
O241 C240 1.258 . S
O242 Co239 1.966 1_655 S
O242 C240 1.263 . S
C243 O244 1.235 . S
C243 O270 1.289 . S
O244 C243 1.235 . S
C245 C247 1.400 . S
C245 N248 1.351 . S
C245 C250 1.501 . S
C246 C247 1.387 . S
C246 N249 1.341 . S
C247 C245 1.400 . S
C247 C246 1.387 . S
N248 Co239 2.022 . S
N248 C245 1.351 . S
N248 N249 1.365 . S
N249 C246 1.341 . S
N249 N248 1.365 . S
N249 H269 0.862 . S
C250 C245 1.501 . S
C250 H251 0.961 . S
C250 H252 0.961 . S
C250 H253 0.960 . S
H251 C250 0.961 . S
H252 C250 0.961 . S
H253 C250 0.960 . S
C254 N255 1.342 . S
C254 C258 1.401 . S
C254 C259 1.499 . S
N255 Co238 1.989 . S
N255 C254 1.342 . S
N255 N256 1.388 . S
N256 Co239 1.993 1_655 S
N256 N255 1.388 . S
N256 C257 1.346 . S
C257 N256 1.346 . S
C257 C258 1.396 . S
C257 C267 1.510 1_655 S
C258 C254 1.401 . S
C258 C257 1.396 . S
C259 C254 1.499 . S
C259 H260 0.959 . S
C259 H261 0.960 . S
C259 H262 0.961 . S
H260 C259 0.959 . S
H261 C259 0.960 . S
H262 C259 0.961 . S
O263 Co238 1.967 . S
O263 C271 1.258 . S
O264 Co239 1.941 . S
O264 C271 1.266 1_455 S
H265 C267 0.959 . S
H266 C267 0.961 . S
C267 C257 1.510 1_455 S
C267 H265 0.959 . S
C267 H266 0.961 . S
C267 H268 0.960 . S
H268 C267 0.960 . S
H269 N249 0.862 . S
O270 Co238 1.920 . S
O270 C243 1.289 . S
C271 O263 1.258 . S
C271 O264 1.266 1_655 S
Co272 O275 1.970 . S
Co272 N289 1.989 . S
Co272 O297 1.967 . S
Co272 O304 1.920 . S
Co273 O276 1.966 1_545 S
Co273 N282 2.022 . S
Co273 N290 1.993 1_545 S
Co273 O298 1.941 . S
C274 O275 1.258 . S
C274 O276 1.263 . S
O275 Co272 1.970 . S
O275 C274 1.258 . S
O276 Co273 1.966 1_565 S
O276 C274 1.263 . S
C277 O278 1.235 . S
C277 O304 1.289 . S
O278 C277 1.235 . S
C279 C281 1.400 . S
C279 N282 1.351 . S
C279 C284 1.501 . S
C280 C281 1.387 . S
C280 N283 1.341 . S
C281 C279 1.400 . S
C281 C280 1.387 . S
N282 Co273 2.022 . S
N282 C279 1.351 . S
N282 N283 1.365 . S
N283 C280 1.341 . S
N283 N282 1.365 . S
N283 H303 0.862 . S
C284 C279 1.501 . S
C284 H285 0.961 . S
C284 H286 0.961 . S
C284 H287 0.960 . S
H285 C284 0.961 . S
H286 C284 0.961 . S
H287 C284 0.960 . S
C288 N289 1.342 . S
C288 C292 1.401 . S
C288 C293 1.499 . S
N289 Co272 1.989 . S
N289 C288 1.342 . S
N289 N290 1.388 . S
N290 Co273 1.993 1_565 S
N290 N289 1.388 . S
N290 C291 1.346 . S
C291 N290 1.346 . S
C291 C292 1.396 . S
C291 C301 1.510 1_565 S
C292 C288 1.401 . S
C292 C291 1.396 . S
C293 C288 1.499 . S
C293 H294 0.959 . S
C293 H295 0.960 . S
C293 H296 0.961 . S
H294 C293 0.959 . S
H295 C293 0.960 . S
H296 C293 0.961 . S
O297 Co272 1.967 . S
O297 C305 1.258 . S
O298 Co273 1.941 . S
O298 C305 1.266 1_545 S
H299 C301 0.959 . S
H300 C301 0.961 . S
C301 C291 1.510 1_545 S
C301 H299 0.959 . S
C301 H300 0.961 . S
C301 H302 0.960 . S
H302 C301 0.960 . S
H303 N283 0.862 . S
O304 Co272 1.920 . S
O304 C277 1.289 . S
C305 O297 1.258 . S
C305 O298 1.266 1_565 S
Co306 O309 1.970 . S
Co306 N323 1.989 . S
Co306 O331 1.967 . S
Co306 O338 1.920 . S
Co307 O310 1.966 . S
Co307 N316 2.022 . S
Co307 N324 1.993 . S
Co307 O332 1.941 . S
C308 O309 1.258 . S
C308 O310 1.263 . S
O309 Co306 1.970 . S
O309 C308 1.258 . S
O310 Co307 1.966 . S
O310 C308 1.263 . S
C311 O312 1.235 . S
C311 O338 1.289 . S
O312 C311 1.235 . S
C313 C315 1.400 . S
C313 N316 1.351 . S
C313 C318 1.501 . S
C314 C315 1.387 . S
C314 N317 1.341 . S
C315 C313 1.400 . S
C315 C314 1.387 . S
N316 Co307 2.022 . S
N316 C313 1.351 . S
N316 N317 1.365 . S
N317 C314 1.341 . S
N317 N316 1.365 . S
N317 H337 0.862 . S
C318 C313 1.501 . S
C318 H319 0.961 . S
C318 H320 0.961 . S
C318 H321 0.960 . S
H319 C318 0.961 . S
H320 C318 0.961 . S
H321 C318 0.960 . S
C322 N323 1.342 . S
C322 C326 1.401 . S
C322 C327 1.499 . S
N323 Co306 1.989 . S
N323 C322 1.342 . S
N323 N324 1.388 . S
N324 Co307 1.993 . S
N324 N323 1.388 . S
N324 C325 1.346 . S
C325 N324 1.346 . S
C325 C326 1.396 . S
C325 C335 1.510 . S
C326 C322 1.401 . S
C326 C325 1.396 . S
C327 C322 1.499 . S
C327 H328 0.959 . S
C327 H329 0.960 . S
C327 H330 0.961 . S
H328 C327 0.959 . S
H329 C327 0.960 . S
H330 C327 0.961 . S
O331 Co306 1.967 . S
O331 C339 1.258 . S
O332 Co307 1.941 . S
O332 C339 1.266 . S
H333 C335 0.959 . S
H334 C335 0.961 . S
C335 C325 1.510 . S
C335 H333 0.959 . S
C335 H334 0.961 . S
C335 H336 0.960 . S
H336 C335 0.960 . S
H337 N317 0.862 . S
O338 Co306 1.920 . S
O338 C311 1.289 . S
C339 O331 1.258 . S
C339 O332 1.266 . S
Co340 O343 1.970 . S
Co340 N357 1.989 . S
Co340 O365 1.967 . S
Co340 O372 1.920 . S
Co341 O344 1.966 . S
Co341 N350 2.022 . S
Co341 N358 1.993 . S
Co341 O366 1.941 . S
C342 O343 1.258 . S
C342 O344 1.263 . S
O343 Co340 1.970 . S
O343 C342 1.258 . S
O344 Co341 1.966 . S
O344 C342 1.263 . S
C345 O346 1.235 . S
C345 O372 1.289 . S
O346 C345 1.235 . S
C347 C349 1.400 . S
C347 N350 1.351 . S
C347 C352 1.501 . S
C348 C349 1.387 . S
C348 N351 1.341 . S
C349 C347 1.400 . S
C349 C348 1.387 . S
N350 Co341 2.022 . S
N350 C347 1.351 . S
N350 N351 1.365 . S
N351 C348 1.341 . S
N351 N350 1.365 . S
N351 H371 0.862 . S
C352 C347 1.501 . S
C352 H353 0.961 . S
C352 H354 0.961 . S
C352 H355 0.960 . S
H353 C352 0.961 . S
H354 C352 0.961 . S
H355 C352 0.960 . S
C356 N357 1.342 . S
C356 C360 1.401 . S
C356 C361 1.499 . S
N357 Co340 1.989 . S
N357 C356 1.342 . S
N357 N358 1.388 . S
N358 Co341 1.993 . S
N358 N357 1.388 . S
N358 C359 1.346 . S
C359 N358 1.346 . S
C359 C360 1.396 . S
C359 C369 1.510 . S
C360 C356 1.401 . S
C360 C359 1.396 . S
C361 C356 1.499 . S
C361 H362 0.959 . S
C361 H363 0.960 . S
C361 H364 0.961 . S
H362 C361 0.959 . S
H363 C361 0.960 . S
H364 C361 0.961 . S
O365 Co340 1.967 . S
O365 C373 1.258 . S
O366 Co341 1.941 . S
O366 C373 1.266 . S
H367 C369 0.959 . S
H368 C369 0.961 . S
C369 C359 1.510 . S
C369 H367 0.959 . S
C369 H368 0.961 . S
C369 H370 0.960 . S
H370 C369 0.960 . S
H371 N351 0.862 . S
O372 Co340 1.920 . S
O372 C345 1.289 . S
C373 O365 1.258 . S
C373 O366 1.266 . S
Co374 O377 1.970 . S
Co374 N391 1.989 . S
Co374 O399 1.967 . S
Co374 O406 1.920 . S
Co375 O378 1.966 1_455 S
Co375 N384 2.022 . S
Co375 N392 1.993 1_455 S
Co375 O400 1.941 . S
C376 O377 1.258 . S
C376 O378 1.263 . S
O377 Co374 1.970 . S
O377 C376 1.258 . S
O378 Co375 1.966 1_655 S
O378 C376 1.263 . S
C379 O380 1.235 . S
C379 O406 1.289 . S
O380 C379 1.235 . S
C381 C383 1.400 . S
C381 N384 1.351 . S
C381 C386 1.501 . S
C382 C383 1.387 . S
C382 N385 1.341 . S
C383 C381 1.400 . S
C383 C382 1.387 . S
N384 Co375 2.022 . S
N384 C381 1.351 . S
N384 N385 1.365 . S
N385 C382 1.341 . S
N385 N384 1.365 . S
N385 H405 0.862 . S
C386 C381 1.501 . S
C386 H387 0.961 . S
C386 H388 0.961 . S
C386 H389 0.960 . S
H387 C386 0.961 . S
H388 C386 0.961 . S
H389 C386 0.960 . S
C390 N391 1.342 . S
C390 C394 1.401 . S
C390 C395 1.499 . S
N391 Co374 1.989 . S
N391 C390 1.342 . S
N391 N392 1.388 . S
N392 Co375 1.993 1_655 S
N392 N391 1.388 . S
N392 C393 1.346 . S
C393 N392 1.346 . S
C393 C394 1.396 . S
C393 C403 1.510 1_655 S
C394 C390 1.401 . S
C394 C393 1.396 . S
C395 C390 1.499 . S
C395 H396 0.959 . S
C395 H397 0.960 . S
C395 H398 0.961 . S
H396 C395 0.959 . S
H397 C395 0.960 . S
H398 C395 0.961 . S
O399 Co374 1.967 . S
O399 C407 1.258 . S
O400 Co375 1.941 . S
O400 C407 1.266 1_455 S
H401 C403 0.959 . S
H402 C403 0.961 . S
C403 C393 1.510 1_455 S
C403 H401 0.959 . S
C403 H402 0.961 . S
C403 H404 0.960 . S
H404 C403 0.960 . S
H405 N385 0.862 . S
O406 Co374 1.920 . S
O406 C379 1.289 . S
C407 O399 1.258 . S
C407 O400 1.266 1_655 S
Co408 O411 1.970 . S
Co408 N425 1.989 . S
Co408 O433 1.967 . S
Co408 O440 1.920 . S
Co409 O412 1.966 1_565 S
Co409 N418 2.022 . S
Co409 N426 1.993 1_565 S
Co409 O434 1.941 . S
C410 O411 1.258 . S
C410 O412 1.263 . S
O411 Co408 1.970 . S
O411 C410 1.258 . S
O412 Co409 1.966 1_545 S
O412 C410 1.263 . S
C413 O414 1.235 . S
C413 O440 1.289 . S
O414 C413 1.235 . S
C415 C417 1.400 . S
C415 N418 1.351 . S
C415 C420 1.501 . S
C416 C417 1.387 . S
C416 N419 1.341 . S
C417 C415 1.400 . S
C417 C416 1.387 . S
N418 Co409 2.022 . S
N418 C415 1.351 . S
N418 N419 1.365 . S
N419 C416 1.341 . S
N419 N418 1.365 . S
N419 H439 0.862 . S
C420 C415 1.501 . S
C420 H421 0.961 . S
C420 H422 0.961 . S
C420 H423 0.960 . S
H421 C420 0.961 . S
H422 C420 0.961 . S
H423 C420 0.960 . S
C424 N425 1.342 . S
C424 C428 1.401 . S
C424 C429 1.499 . S
N425 Co408 1.989 . S
N425 C424 1.342 . S
N425 N426 1.388 . S
N426 Co409 1.993 1_545 S
N426 N425 1.388 . S
N426 C427 1.346 . S
C427 N426 1.346 . S
C427 C428 1.396 . S
C427 C437 1.510 1_545 S
C428 C424 1.401 . S
C428 C427 1.396 . S
C429 C424 1.499 . S
C429 H430 0.959 . S
C429 H431 0.960 . S
C429 H432 0.961 . S
H430 C429 0.959 . S
H431 C429 0.960 . S
H432 C429 0.961 . S
O433 Co408 1.967 . S
O433 C441 1.258 . S
O434 Co409 1.941 . S
O434 C441 1.266 1_565 S
H435 C437 0.959 . S
H436 C437 0.961 . S
C437 C427 1.510 1_565 S
C437 H435 0.959 . S
C437 H436 0.961 . S
C437 H438 0.960 . S
H438 C437 0.960 . S
H439 N419 0.862 . S
O440 Co408 1.920 . S
O440 C413 1.289 . S
C441 O433 1.258 . S
C441 O434 1.266 1_545 S
Co442 O445 1.970 . S
Co442 N459 1.989 . S
Co442 O467 1.967 . S
Co442 O474 1.920 . S
Co443 O446 1.966 . S
Co443 N452 2.022 . S
Co443 N460 1.993 . S
Co443 O468 1.941 . S
C444 O445 1.258 . S
C444 O446 1.263 . S
O445 Co442 1.970 . S
O445 C444 1.258 . S
O446 Co443 1.966 . S
O446 C444 1.263 . S
C447 O448 1.235 . S
C447 O474 1.289 . S
O448 C447 1.235 . S
C449 C451 1.400 . S
C449 N452 1.351 . S
C449 C454 1.501 . S
C450 C451 1.387 . S
C450 N453 1.341 . S
C451 C449 1.400 . S
C451 C450 1.387 . S
N452 Co443 2.022 . S
N452 C449 1.351 . S
N452 N453 1.365 . S
N453 C450 1.341 . S
N453 N452 1.365 . S
N453 H473 0.862 . S
C454 C449 1.501 . S
C454 H455 0.961 . S
C454 H456 0.961 . S
C454 H457 0.960 . S
H455 C454 0.961 . S
H456 C454 0.961 . S
H457 C454 0.960 . S
C458 N459 1.342 . S
C458 C462 1.401 . S
C458 C463 1.499 . S
N459 Co442 1.989 . S
N459 C458 1.342 . S
N459 N460 1.388 . S
N460 Co443 1.993 . S
N460 N459 1.388 . S
N460 C461 1.346 . S
C461 N460 1.346 . S
C461 C462 1.396 . S
C461 C471 1.510 . S
C462 C458 1.401 . S
C462 C461 1.396 . S
C463 C458 1.499 . S
C463 H464 0.959 . S
C463 H465 0.960 . S
C463 H466 0.961 . S
H464 C463 0.959 . S
H465 C463 0.960 . S
H466 C463 0.961 . S
O467 Co442 1.967 . S
O467 C475 1.258 . S
O468 Co443 1.941 . S
O468 C475 1.266 . S
H469 C471 0.959 . S
H470 C471 0.961 . S
C471 C461 1.510 . S
C471 H469 0.959 . S
C471 H470 0.961 . S
C471 H472 0.960 . S
H472 C471 0.960 . S
H473 N453 0.862 . S
O474 Co442 1.920 . S
O474 C447 1.289 . S
C475 O467 1.258 . S
C475 O468 1.266 . S
Co476 O479 1.970 . S
Co476 N493 1.989 . S
Co476 O501 1.967 . S
Co476 O508 1.920 . S
Co477 O480 1.966 . S
Co477 N486 2.022 . S
Co477 N494 1.993 . S
Co477 O502 1.941 . S
C478 O479 1.258 . S
C478 O480 1.263 . S
O479 Co476 1.970 . S
O479 C478 1.258 . S
O480 Co477 1.966 . S
O480 C478 1.263 . S
C481 O482 1.235 . S
C481 O508 1.289 . S
O482 C481 1.235 . S
C483 C485 1.400 . S
C483 N486 1.351 . S
C483 C488 1.501 . S
C484 C485 1.387 . S
C484 N487 1.341 . S
C485 C483 1.400 . S
C485 C484 1.387 . S
N486 Co477 2.022 . S
N486 C483 1.351 . S
N486 N487 1.365 . S
N487 C484 1.341 . S
N487 N486 1.365 . S
N487 H507 0.862 . S
C488 C483 1.501 . S
C488 H489 0.961 . S
C488 H490 0.961 . S
C488 H491 0.960 . S
H489 C488 0.961 . S
H490 C488 0.961 . S
H491 C488 0.960 . S
C492 N493 1.342 . S
C492 C496 1.401 . S
C492 C497 1.499 . S
N493 Co476 1.989 . S
N493 C492 1.342 . S
N493 N494 1.388 . S
N494 Co477 1.993 . S
N494 N493 1.388 . S
N494 C495 1.346 . S
C495 N494 1.346 . S
C495 C496 1.396 . S
C495 C505 1.510 . S
C496 C492 1.401 . S
C496 C495 1.396 . S
C497 C492 1.499 . S
C497 H498 0.959 . S
C497 H499 0.960 . S
C497 H500 0.961 . S
H498 C497 0.959 . S
H499 C497 0.960 . S
H500 C497 0.961 . S
O501 Co476 1.967 . S
O501 C509 1.258 . S
O502 Co477 1.941 . S
O502 C509 1.266 . S
H503 C505 0.959 . S
H504 C505 0.961 . S
C505 C495 1.510 . S
C505 H503 0.959 . S
C505 H504 0.961 . S
C505 H506 0.960 . S
H506 C505 0.960 . S
H507 N487 0.862 . S
O508 Co476 1.920 . S
O508 C481 1.289 . S
C509 O501 1.258 . S
C509 O502 1.266 . S
Co510 O513 1.970 . S
Co510 N527 1.989 . S
Co510 O535 1.967 . S
Co510 O542 1.920 . S
Co511 O514 1.966 1_655 S
Co511 N520 2.022 . S
Co511 N528 1.993 1_655 S
Co511 O536 1.941 . S
C512 O513 1.258 . S
C512 O514 1.263 . S
O513 Co510 1.970 . S
O513 C512 1.258 . S
O514 Co511 1.966 1_455 S
O514 C512 1.263 . S
C515 O516 1.235 . S
C515 O542 1.289 . S
O516 C515 1.235 . S
C517 C519 1.400 . S
C517 N520 1.351 . S
C517 C522 1.501 . S
C518 C519 1.387 . S
C518 N521 1.341 . S
C519 C517 1.400 . S
C519 C518 1.387 . S
N520 Co511 2.022 . S
N520 C517 1.351 . S
N520 N521 1.365 . S
N521 C518 1.341 . S
N521 N520 1.365 . S
N521 H541 0.862 . S
C522 C517 1.501 . S
C522 H523 0.961 . S
C522 H524 0.961 . S
C522 H525 0.960 . S
H523 C522 0.961 . S
H524 C522 0.961 . S
H525 C522 0.960 . S
C526 N527 1.342 . S
C526 C530 1.401 . S
C526 C531 1.499 . S
N527 Co510 1.989 . S
N527 C526 1.342 . S
N527 N528 1.388 . S
N528 Co511 1.993 1_455 S
N528 N527 1.388 . S
N528 C529 1.346 . S
C529 N528 1.346 . S
C529 C530 1.396 . S
C529 C539 1.510 1_455 S
C530 C526 1.401 . S
C530 C529 1.396 . S
C531 C526 1.499 . S
C531 H532 0.959 . S
C531 H533 0.960 . S
C531 H534 0.961 . S
H532 C531 0.959 . S
H533 C531 0.960 . S
H534 C531 0.961 . S
O535 Co510 1.967 . S
O535 C543 1.258 . S
O536 Co511 1.941 . S
O536 C543 1.266 1_655 S
H537 C539 0.959 . S
H538 C539 0.961 . S
C539 C529 1.510 1_655 S
C539 H537 0.959 . S
C539 H538 0.961 . S
C539 H540 0.960 . S
H540 C539 0.960 . S
H541 N521 0.862 . S
O542 Co510 1.920 . S
O542 C515 1.289 . S
C543 O535 1.258 . S
C543 O536 1.266 1_455 S
H544 C550 0.930 . S
H545 C553 0.930 . S
H546 C554 0.930 . S
H547 C555 0.930 . S
H548 C558 0.930 . S
H549 C559 0.930 . S
C550 H544 0.930 . S
C550 C551 1.355 . S
C550 C552 1.415 . S
C551 C550 1.355 . S
C551 C553 1.419 . S
C552 C550 1.415 . S
C552 C557 1.425 . S
C552 C559 1.409 . S
C553 H545 0.930 . S
C553 C551 1.419 . S
C553 C554 1.362 . S
C554 H546 0.930 . S
C554 C553 1.362 . S
C554 C557 1.409 . S
C555 H547 0.930 . S
C555 C556 1.355 . S
C555 C557 1.415 . S
C556 C555 1.355 . S
C556 C558 1.419 . S
C557 C552 1.425 . S
C557 C554 1.409 . S
C557 C555 1.415 . S
C558 H548 0.930 . S
C558 C556 1.419 . S
C558 C559 1.362 . S
C559 H549 0.930 . S
C559 C552 1.409 . S
C559 C558 1.362 . S
H560 C566 0.930 . S
H561 C569 0.930 . S
H562 C570 0.930 . S
H563 C571 0.930 . S
H564 C574 0.930 . S
H565 C575 0.930 . S
C566 H560 0.930 . S
C566 C567 1.355 . S
C566 C568 1.415 . S
C567 C566 1.355 . S
C567 C569 1.419 . S
C568 C566 1.415 . S
C568 C573 1.425 . S
C568 C575 1.409 . S
C569 H561 0.930 . S
C569 C567 1.419 . S
C569 C570 1.362 . S
C570 H562 0.930 . S
C570 C569 1.362 . S
C570 C573 1.409 . S
C571 H563 0.930 . S
C571 C572 1.355 . S
C571 C573 1.415 . S
C572 C571 1.355 . S
C572 C574 1.419 . S
C573 C568 1.425 . S
C573 C570 1.409 . S
C573 C571 1.415 . S
C574 H564 0.930 . S
C574 C572 1.419 . S
C574 C575 1.362 . S
C575 H565 0.930 . S
C575 C568 1.409 . S
C575 C574 1.362 . S
H576 C582 0.930 . S
H577 C585 0.930 . S
H578 C586 0.930 . S
H579 C587 0.930 . S
H580 C590 0.930 . S
H581 C591 0.930 . S
C582 H576 0.930 . S
C582 C583 1.355 1_455 S
C582 C584 1.415 . S
C583 C582 1.355 1_655 S
C583 C585 1.419 . S
C584 C582 1.415 . S
C584 C589 1.425 1_455 S
C584 C591 1.409 . S
C585 H577 0.930 . S
C585 C583 1.419 . S
C585 C586 1.362 . S
C586 H578 0.930 . S
C586 C585 1.362 . S
C586 C589 1.409 . S
C587 H579 0.930 . S
C587 C588 1.355 . S
C587 C589 1.415 . S
C588 C587 1.355 . S
C588 C590 1.419 1_655 S
C589 C584 1.425 1_655 S
C589 C586 1.409 . S
C589 C587 1.415 . S
C590 H580 0.930 . S
C590 C588 1.419 1_455 S
C590 C591 1.362 . S
C591 H581 0.930 . S
C591 C584 1.409 . S
C591 C590 1.362 . S
H592 C598 0.930 . S
H593 C601 0.930 . S
H594 C602 0.930 . S
H595 C603 0.930 . S
H596 C606 0.930 . S
H597 C607 0.930 . S
C598 H592 0.930 . S
C598 C599 1.355 . S
C598 C600 1.415 . S
C599 C598 1.355 . S
C599 C601 1.419 1_565 S
C600 C598 1.415 . S
C600 C605 1.425 1_565 S
C600 C607 1.409 . S
C601 H593 0.930 . S
C601 C599 1.419 1_545 S
C601 C602 1.362 . S
C602 H594 0.930 . S
C602 C601 1.362 . S
C602 C605 1.409 . S
C603 H595 0.930 . S
C603 C604 1.355 1_545 S
C603 C605 1.415 . S
C604 C603 1.355 1_565 S
C604 C606 1.419 . S
C605 C600 1.425 1_545 S
C605 C602 1.409 . S
C605 C603 1.415 . S
C606 H596 0.930 . S
C606 C604 1.419 . S
C606 C607 1.362 . S
C607 H597 0.930 . S
C607 C600 1.409 . S
C607 C606 1.362 . S
H608 C614 0.930 . S
H609 C617 0.930 . S
H610 C618 0.930 . S
H611 C619 0.930 . S
H612 C622 0.930 . S
H613 C623 0.930 . S
C614 H608 0.930 . S
C614 C615 1.355 1_655 S
C614 C616 1.415 . S
C615 C614 1.355 1_455 S
C615 C617 1.419 . S
C616 C614 1.415 . S
C616 C621 1.425 1_655 S
C616 C623 1.409 . S
C617 H609 0.930 . S
C617 C615 1.419 . S
C617 C618 1.362 . S
C618 H610 0.930 . S
C618 C617 1.362 . S
C618 C621 1.409 . S
C619 H611 0.930 . S
C619 C620 1.355 . S
C619 C621 1.415 . S
C620 C619 1.355 . S
C620 C622 1.419 1_455 S
C621 C616 1.425 1_455 S
C621 C618 1.409 . S
C621 C619 1.415 . S
C622 H612 0.930 . S
C622 C620 1.419 1_655 S
C622 C623 1.362 . S
C623 H613 0.930 . S
C623 C616 1.409 . S
C623 C622 1.362 . S
H624 C630 0.930 . S
H625 C633 0.930 . S
H626 C634 0.930 . S
H627 C635 0.930 . S
H628 C638 0.930 . S
H629 C639 0.930 . S
C630 H624 0.930 . S
C630 C631 1.355 1_565 S
C630 C632 1.415 . S
C631 C630 1.355 1_545 S
C631 C633 1.419 . S
C632 C630 1.415 . S
C632 C637 1.425 1_565 S
C632 C639 1.409 . S
C633 H625 0.930 . S
C633 C631 1.419 . S
C633 C634 1.362 . S
C634 H626 0.930 . S
C634 C633 1.362 . S
C634 C637 1.409 . S
C635 H627 0.930 . S
C635 C636 1.355 . S
C635 C637 1.415 . S
C636 C635 1.355 . S
C636 C638 1.419 1_545 S
C637 C632 1.425 1_545 S
C637 C634 1.409 . S
C637 C635 1.415 . S
C638 H628 0.930 . S
C638 C636 1.419 1_565 S
C638 C639 1.362 . S
C639 H629 0.930 . S
C639 C632 1.409 . S
C639 C638 1.362 . S
H640 C646 0.930 . S
H641 C649 0.930 . S
H642 C650 0.930 . S
H643 C651 0.930 . S
H644 C654 0.930 . S
H645 C655 0.930 . S
C646 H640 0.930 . S
C646 C647 1.355 . S
C646 C648 1.415 . S
C647 C646 1.355 . S
C647 C649 1.419 . S
C648 C646 1.415 . S
C648 C653 1.425 . S
C648 C655 1.409 . S
C649 H641 0.930 . S
C649 C647 1.419 . S
C649 C650 1.362 . S
C650 H642 0.930 . S
C650 C649 1.362 . S
C650 C653 1.409 . S
C651 H643 0.930 . S
C651 C652 1.355 . S
C651 C653 1.415 . S
C652 C651 1.355 . S
C652 C654 1.419 . S
C653 C648 1.425 . S
C653 C650 1.409 . S
C653 C651 1.415 . S
C654 H644 0.930 . S
C654 C652 1.419 . S
C654 C655 1.362 . S
C655 H645 0.930 . S
C655 C648 1.409 . S
C655 C654 1.362 . S
H656 C662 0.930 . S
H657 C665 0.930 . S
H658 C666 0.930 . S
H659 C667 0.930 . S
H660 C670 0.930 . S
H661 C671 0.930 . S
C662 H656 0.930 . S
C662 C663 1.355 . S
C662 C664 1.415 . S
C663 C662 1.355 . S
C663 C665 1.419 . S
C664 C662 1.415 . S
C664 C669 1.425 . S
C664 C671 1.409 . S
C665 H657 0.930 . S
C665 C663 1.419 . S
C665 C666 1.362 . S
C666 H658 0.930 . S
C666 C665 1.362 . S
C666 C669 1.409 . S
C667 H659 0.930 . S
C667 C668 1.355 . S
C667 C669 1.415 . S
C668 C667 1.355 . S
C668 C670 1.419 . S
C669 C664 1.425 . S
C669 C666 1.409 . S
C669 C667 1.415 . S
C670 H660 0.930 . S
C670 C668 1.419 . S
C670 C671 1.362 . S
C671 H661 0.930 . S
C671 C664 1.409 . S
C671 C670 1.362 . S
H672 C678 0.930 . S
H673 C681 0.930 . S
H674 C682 0.930 . S
H675 C683 0.930 . S
H676 C686 0.930 . S
H677 C687 0.930 . S
C678 H672 0.930 . S
C678 C679 1.355 . S
C678 C680 1.415 . S
C679 C678 1.355 . S
C679 C681 1.419 . S
C680 C678 1.415 . S
C680 C685 1.425 . S
C680 C687 1.409 . S
C681 H673 0.930 . S
C681 C679 1.419 . S
C681 C682 1.362 . S
C682 H674 0.930 . S
C682 C681 1.362 . S
C682 C685 1.409 . S
C683 H675 0.930 . S
C683 C684 1.355 . S
C683 C685 1.415 . S
C684 C683 1.355 . S
C684 C686 1.419 . S
C685 C680 1.425 . S
C685 C682 1.409 . S
C685 C683 1.415 . S
C686 H676 0.930 . S
C686 C684 1.419 . S
C686 C687 1.362 . S
C687 H677 0.930 . S
C687 C680 1.409 . S
C687 C686 1.362 . S
H688 C694 0.930 . S
H689 C697 0.930 . S
H690 C698 0.930 . S
H691 C699 0.930 . S
H692 C702 0.930 . S
H693 C703 0.930 . S
C694 H688 0.930 . S
C694 C695 1.355 . S
C694 C696 1.415 . S
C695 C694 1.355 . S
C695 C697 1.419 . S
C696 C694 1.415 . S
C696 C701 1.425 . S
C696 C703 1.409 . S
C697 H689 0.930 . S
C697 C695 1.419 . S
C697 C698 1.362 . S
C698 H690 0.930 . S
C698 C697 1.362 . S
C698 C701 1.409 . S
C699 H691 0.930 . S
C699 C700 1.355 . S
C699 C701 1.415 . S
C700 C699 1.355 . S
C700 C702 1.419 . S
C701 C696 1.425 . S
C701 C698 1.409 . S
C701 C699 1.415 . S
C702 H692 0.930 . S
C702 C700 1.419 . S
C702 C703 1.362 . S
C703 H693 0.930 . S
C703 C696 1.409 . S
C703 C702 1.362 . S
H704 C710 0.930 . S
H705 C713 0.930 . S
H706 C714 0.930 . S
H707 C715 0.930 . S
H708 C718 0.930 . S
H709 C719 0.930 . S
C710 H704 0.930 . S
C710 C711 1.355 1_655 S
C710 C712 1.415 . S
C711 C710 1.355 1_455 S
C711 C713 1.419 . S
C712 C710 1.415 . S
C712 C717 1.425 1_655 S
C712 C719 1.409 . S
C713 H705 0.930 . S
C713 C711 1.419 . S
C713 C714 1.362 . S
C714 H706 0.930 . S
C714 C713 1.362 . S
C714 C717 1.409 . S
C715 H707 0.930 . S
C715 C716 1.355 . S
C715 C717 1.415 . S
C716 C715 1.355 . S
C716 C718 1.419 1_455 S
C717 C712 1.425 1_455 S
C717 C714 1.409 . S
C717 C715 1.415 . S
C718 H708 0.930 . S
C718 C716 1.419 1_655 S
C718 C719 1.362 . S
C719 H709 0.930 . S
C719 C712 1.409 . S
C719 C718 1.362 . S
H720 C726 0.930 . S
H721 C729 0.930 . S
H722 C730 0.930 . S
H723 C731 0.930 . S
H724 C734 0.930 . S
H725 C735 0.930 . S
C726 H720 0.930 . S
C726 C727 1.352 1_565 S
C726 C728 1.415 . S
C727 C726 1.352 1_545 S
C727 C729 1.424 . S
C728 C726 1.415 . S
C728 C733 1.425 1_565 S
C728 C735 1.409 . S
C729 H721 0.930 . S
C729 C727 1.424 . S
C729 C730 1.362 . S
C730 H722 0.930 . S
C730 C729 1.362 . S
C730 C733 1.409 . S
C731 H723 0.930 . S
C731 C732 1.355 . S
C731 C733 1.415 . S
C732 C731 1.355 . S
C732 C734 1.419 1_545 S
C733 C728 1.425 1_545 S
C733 C730 1.409 . S
C733 C731 1.415 . S
C734 H724 0.930 . S
C734 C732 1.419 1_565 S
C734 C735 1.362 . S
C735 H725 0.930 . S
C735 C728 1.409 . S
C735 C734 1.362 . S
H736 C742 0.930 . S
H737 C745 0.930 . S
H738 C746 0.930 . S
H739 C747 0.930 1_455 S
H740 C750 0.930 . S
H741 C751 0.930 . S
C742 H736 0.930 . S
C742 C743 1.355 1_655 S
C742 C744 1.415 . S
C743 C742 1.355 1_455 S
C743 C745 1.419 . S
C744 C742 1.415 . S
C744 C749 1.420 1_655 S
C744 C751 1.409 . S
C745 H737 0.930 . S
C745 C743 1.419 . S
C745 C746 1.362 . S
C746 H738 0.930 . S
C746 C745 1.362 . S
C746 C749 1.415 . S
C747 H739 0.930 1_655 S
C747 C748 1.355 . S
C747 C749 1.414 1_655 S
C748 C747 1.355 . S
C748 C750 1.419 . S
C749 C744 1.420 1_455 S
C749 C746 1.415 . S
C749 C747 1.414 1_455 S
C750 H740 0.930 . S
C750 C748 1.419 . S
C750 C751 1.362 . S
C751 H741 0.930 . S
C751 C744 1.409 . S
C751 C750 1.362 . S
H752 C758 0.930 . S
H753 C761 0.930 . S
H754 C762 0.930 . S
H755 C763 0.930 . S
H756 C766 0.930 . S
H757 C767 0.930 . S
C758 H752 0.930 . S
C758 C759 1.355 1_565 S
C758 C760 1.415 . S
C759 C758 1.355 1_545 S
C759 C761 1.419 . S
C760 C758 1.415 . S
C760 C765 1.425 1_565 S
C760 C767 1.409 . S
C761 H753 0.930 . S
C761 C759 1.419 . S
C761 C762 1.362 . S
C762 H754 0.930 . S
C762 C761 1.362 . S
C762 C765 1.409 . S
C763 H755 0.930 . S
C763 C764 1.355 1_545 S
C763 C765 1.415 . S
C764 C763 1.355 1_565 S
C764 C766 1.419 . S
C765 C760 1.425 1_545 S
C765 C762 1.409 . S
C765 C763 1.415 . S
C766 H756 0.930 . S
C766 C764 1.419 . S
C766 C767 1.362 . S
C767 H757 0.930 . S
C767 C760 1.409 . S
C767 C766 1.362 . S
H768 C774 0.930 . S
H769 C777 0.930 . S
H770 C778 0.930 . S
H771 C779 0.930 . S
H772 C782 0.930 . S
H773 C783 0.930 . S
C774 H768 0.930 . S
C774 C775 1.355 . S
C774 C776 1.415 . S
C775 C774 1.355 . S
C775 C777 1.419 . S
C776 C774 1.415 . S
C776 C781 1.425 . S
C776 C783 1.409 . S
C777 H769 0.930 . S
C777 C775 1.419 . S
C777 C778 1.362 . S
C778 H770 0.930 . S
C778 C777 1.362 . S
C778 C781 1.409 . S
C779 H771 0.930 . S
C779 C780 1.355 . S
C779 C781 1.415 . S
C780 C779 1.355 . S
C780 C782 1.419 . S
C781 C776 1.425 . S
C781 C778 1.409 . S
C781 C779 1.415 . S
C782 H772 0.930 . S
C782 C780 1.419 . S
C782 C783 1.362 . S
C783 H773 0.930 . S
C783 C776 1.409 . S
C783 C782 1.362 . S
H784 C790 0.930 . S
H785 C793 0.930 . S
H786 C794 0.930 . S
H787 C795 0.930 . S
H788 C798 0.930 . S
H789 C799 0.930 . S
C790 H784 0.930 . S
C790 C791 1.355 . S
C790 C792 1.415 . S
C791 C790 1.355 . S
C791 C793 1.419 . S
C792 C790 1.415 . S
C792 C797 1.425 . S
C792 C799 1.409 . S
C793 H785 0.930 . S
C793 C791 1.419 . S
C793 C794 1.362 . S
C794 H786 0.930 . S
C794 C793 1.362 . S
C794 C797 1.409 . S
C795 H787 0.930 . S
C795 C796 1.355 . S
C795 C797 1.415 . S
C796 C795 1.355 . S
C796 C798 1.419 . S
C797 C792 1.425 . S
C797 C794 1.409 . S
C797 C795 1.415 . S
C798 H788 0.930 . S
C798 C796 1.419 . S
C798 C799 1.362 . S
C799 H789 0.930 . S
C799 C792 1.409 . S
C799 C798 1.362 . S
H800 C806 0.930 . S
H801 C809 0.930 . S
H802 C810 0.930 . S
H803 C811 0.930 . S
H804 C814 0.930 . S
H805 C815 0.930 . S
C806 H800 0.930 . S
C806 C807 1.355 . S
C806 C808 1.415 . S
C807 C806 1.355 . S
C807 C809 1.419 . S
C808 C806 1.415 . S
C808 C813 1.425 . S
C808 C815 1.409 . S
C809 H801 0.930 . S
C809 C807 1.419 . S
C809 C810 1.362 . S
C810 H802 0.930 . S
C810 C809 1.362 . S
C810 C813 1.409 . S
C811 H803 0.930 . S
C811 C812 1.355 . S
C811 C813 1.415 . S
C812 C811 1.355 . S
C812 C814 1.419 . S
C813 C808 1.425 . S
C813 C810 1.409 . S
C813 C811 1.415 . S
C814 H804 0.930 . S
C814 C812 1.419 . S
C814 C815 1.362 . S
C815 H805 0.930 . S
C815 C808 1.409 . S
C815 C814 1.362 . S
H816 C822 0.930 . S
H817 C825 0.930 . S
H818 C826 0.930 . S
H819 C827 0.930 . S
H820 C830 0.930 . S
H821 C831 0.930 . S
C822 H816 0.930 . S
C822 C823 1.355 . S
C822 C824 1.415 . S
C823 C822 1.355 . S
C823 C825 1.419 . S
C824 C822 1.415 . S
C824 C829 1.425 . S
C824 C831 1.409 . S
C825 H817 0.930 . S
C825 C823 1.419 . S
C825 C826 1.362 . S
C826 H818 0.930 . S
C826 C825 1.362 . S
C826 C829 1.409 . S
C827 H819 0.930 . S
C827 C828 1.355 . S
C827 C829 1.415 . S
C828 C827 1.355 . S
C828 C830 1.419 . S
C829 C824 1.425 . S
C829 C826 1.409 . S
C829 C827 1.415 . S
C830 H820 0.930 . S
C830 C828 1.419 . S
C830 C831 1.362 . S
C831 H821 0.930 . S
C831 C824 1.409 . S
C831 C830 1.362 . S
H832 C838 0.930 . S
H833 C841 0.930 . S
H834 C842 0.930 . S
H835 C843 0.930 . S
H836 C846 0.930 . S
H837 C847 0.930 . S
C838 H832 0.930 . S
C838 C839 1.355 . S
C838 C840 1.415 . S
C839 C838 1.355 . S
C839 C841 1.419 . S
C840 C838 1.415 . S
C840 C845 1.425 . S
C840 C847 1.409 . S
C841 H833 0.930 . S
C841 C839 1.419 . S
C841 C842 1.362 . S
C842 H834 0.930 . S
C842 C841 1.362 . S
C842 C845 1.409 . S
C843 H835 0.930 . S
C843 C844 1.355 . S
C843 C845 1.415 . S
C844 C843 1.355 . S
C844 C846 1.419 . S
C845 C840 1.425 . S
C845 C842 1.409 . S
C845 C843 1.415 . S
C846 H836 0.930 . S
C846 C844 1.419 . S
C846 C847 1.362 . S
C847 H837 0.930 . S
C847 C840 1.409 . S
C847 C846 1.362 . S
H848 C854 0.930 . S
H849 C857 0.930 . S
H850 C858 0.930 . S
H851 C859 0.930 . S
H852 C862 0.930 . S
H853 C863 0.930 . S
C854 H848 0.930 . S
C854 C855 1.355 . S
C854 C856 1.415 . S
C855 C854 1.355 . S
C855 C857 1.419 . S
C856 C854 1.415 . S
C856 C861 1.425 . S
C856 C863 1.409 . S
C857 H849 0.930 . S
C857 C855 1.419 . S
C857 C858 1.362 . S
C858 H850 0.930 . S
C858 C857 1.362 . S
C858 C861 1.409 . S
C859 H851 0.930 . S
C859 C860 1.355 . S
C859 C861 1.415 . S
C860 C859 1.355 . S
C860 C862 1.419 . S
C861 C856 1.425 . S
C861 C858 1.409 . S
C861 C859 1.415 . S
C862 H852 0.930 . S
C862 C860 1.419 . S
C862 C863 1.362 . S
C863 H853 0.930 . S
C863 C856 1.409 . S
C863 C862 1.362 . S
H864 C870 0.930 . S
H865 C873 0.930 . S
H866 C874 0.930 . S
H867 C875 0.930 . S
H868 C878 0.930 . S
H869 C879 0.930 . S
C870 H864 0.930 . S
C870 C871 1.355 . S
C870 C872 1.415 . S
C871 C870 1.355 . S
C871 C873 1.419 . S
C872 C870 1.415 . S
C872 C877 1.425 . S
C872 C879 1.409 . S
C873 H865 0.930 . S
C873 C871 1.419 . S
C873 C874 1.362 . S
C874 H866 0.930 . S
C874 C873 1.362 . S
C874 C877 1.409 . S
C875 H867 0.930 . S
C875 C876 1.355 . S
C875 C877 1.415 . S
C876 C875 1.355 . S
C876 C878 1.419 . S
C877 C872 1.425 . S
C877 C874 1.409 . S
C877 C875 1.415 . S
C878 H868 0.930 . S
C878 C876 1.419 . S
C878 C879 1.362 . S
C879 H869 0.930 . S
C879 C872 1.409 . S
C879 C878 1.362 . S
H880 C886 0.930 . S
H881 C889 0.930 . S
H882 C890 0.930 . S
H883 C891 0.930 . S
H884 C894 0.930 . S
H885 C895 0.930 . S
C886 H880 0.930 . S
C886 C887 1.355 . S
C886 C888 1.415 . S
C887 C886 1.355 . S
C887 C889 1.419 . S
C888 C886 1.415 . S
C888 C893 1.425 . S
C888 C895 1.409 . S
C889 H881 0.930 . S
C889 C887 1.419 . S
C889 C890 1.362 . S
C890 H882 0.930 . S
C890 C889 1.362 . S
C890 C893 1.409 . S
C891 H883 0.930 . S
C891 C892 1.355 . S
C891 C893 1.415 . S
C892 C891 1.355 . S
C892 C894 1.419 . S
C893 C888 1.425 . S
C893 C890 1.409 . S
C893 C891 1.415 . S
C894 H884 0.930 . S
C894 C892 1.419 . S
C894 C895 1.362 . S
C895 H885 0.930 . S
C895 C888 1.409 . S
C895 C894 1.362 . S
H896 C902 0.930 . S
H897 C905 0.930 . S
H898 C906 0.930 . S
H899 C907 0.930 . S
H900 C910 0.930 . S
H901 C911 0.930 . S
C902 H896 0.930 . S
C902 C903 1.355 . S
C902 C904 1.415 . S
C903 C902 1.355 . S
C903 C905 1.419 . S
C904 C902 1.415 . S
C904 C909 1.425 . S
C904 C911 1.409 . S
C905 H897 0.930 . S
C905 C903 1.419 . S
C905 C906 1.362 . S
C906 H898 0.930 . S
C906 C905 1.362 . S
C906 C909 1.409 . S
C907 H899 0.930 . S
C907 C908 1.355 . S
C907 C909 1.415 . S
C908 C907 1.355 . S
C908 C910 1.419 . S
C909 C904 1.425 . S
C909 C906 1.409 . S
C909 C907 1.415 . S
C910 H900 0.930 . S
C910 C908 1.419 . S
C910 C911 1.362 . S
C911 H901 0.930 . S
C911 C904 1.409 . S
C911 C910 1.362 . S
H912 C918 0.930 . S
H913 C921 0.930 . S
H914 C922 0.930 . S
H915 C923 0.930 . S
H916 C926 0.930 . S
H917 C927 0.930 . S
C918 H912 0.930 . S
C918 C919 1.355 . S
C918 C920 1.415 . S
C919 C918 1.355 . S
C919 C921 1.419 . S
C920 C918 1.415 . S
C920 C925 1.425 . S
C920 C927 1.409 . S
C921 H913 0.930 . S
C921 C919 1.419 . S
C921 C922 1.362 . S
C922 H914 0.930 . S
C922 C921 1.362 . S
C922 C925 1.409 . S
C923 H915 0.930 . S
C923 C924 1.355 . S
C923 C925 1.415 . S
C924 C923 1.355 . S
C924 C926 1.419 . S
C925 C920 1.425 . S
C925 C922 1.409 . S
C925 C923 1.415 . S
C926 H916 0.930 . S
C926 C924 1.419 . S
C926 C927 1.362 . S
C927 H917 0.930 . S
C927 C920 1.409 . S
C927 C926 1.362 . S
H928 C934 0.930 . S
H929 C937 0.930 . S
H930 C938 0.930 . S
H931 C939 0.930 . S
H932 C942 0.930 . S
H933 C943 0.930 . S
C934 H928 0.930 . S
C934 C935 1.355 . S
C934 C936 1.415 1_554 S
C935 C934 1.355 . S
C935 C937 1.419 1_545 S
C936 C934 1.415 1_556 S
C936 C941 1.425 1_546 S
C936 C943 1.409 . S
C937 H929 0.930 . S
C937 C935 1.419 1_565 S
C937 C938 1.362 . S
C938 H930 0.930 . S
C938 C937 1.362 . S
C938 C941 1.409 . S
C939 H931 0.930 . S
C939 C940 1.355 . S
C939 C941 1.415 1_556 S
C940 C939 1.355 . S
C940 C942 1.419 1_565 S
C941 C936 1.425 1_564 S
C941 C938 1.409 . S
C941 C939 1.415 1_554 S
C942 H932 0.930 . S
C942 C940 1.419 1_545 S
C942 C943 1.362 . S
C943 H933 0.930 . S
C943 C936 1.409 . S
C943 C942 1.362 . S
H944 C950 0.930 . S
H945 C953 0.930 . S
H946 C954 0.930 1_556 S
H947 C955 0.930 . S
H948 C958 0.930 . S
H949 C959 0.930 1_554 S
C950 H944 0.930 . S
C950 C951 1.355 . S
C950 C952 1.415 . S
C951 C950 1.355 . S
C951 C953 1.419 . S
C952 C950 1.415 . S
C952 C957 1.425 1_554 S
C952 C959 1.409 1_554 S
C953 H945 0.930 . S
C953 C951 1.419 . S
C953 C954 1.362 . S
C954 H946 0.930 1_554 S
C954 C953 1.362 . S
C954 C957 1.409 1_554 S
C955 H947 0.930 . S
C955 C956 1.355 . S
C955 C957 1.415 . S
C956 C955 1.355 . S
C956 C958 1.419 . S
C957 C952 1.425 1_556 S
C957 C954 1.409 1_556 S
C957 C955 1.415 . S
C958 H948 0.930 . S
C958 C956 1.419 . S
C958 C959 1.362 . S
C959 H949 0.930 1_556 S
C959 C952 1.409 1_556 S
C959 C958 1.362 . S
H960 C966 0.930 . S
H961 C969 0.930 . S
H962 C970 0.930 . S
H963 C971 0.930 . S
H964 C974 0.930 . S
H965 C975 0.930 . S
C966 H960 0.930 . S
C966 C967 1.355 . S
C966 C968 1.415 1_554 S
C967 C966 1.355 . S
C967 C969 1.419 1_655 S
C968 C966 1.415 1_556 S
C968 C973 1.425 1_656 S
C968 C975 1.409 . S
C969 H961 0.930 . S
C969 C967 1.419 1_455 S
C969 C970 1.362 . S
C970 H962 0.930 . S
C970 C969 1.362 . S
C970 C973 1.409 . S
C971 H963 0.930 . S
C971 C972 1.355 . S
C971 C973 1.415 1_556 S
C972 C971 1.355 . S
C972 C974 1.419 1_455 S
C973 C968 1.425 1_454 S
C973 C970 1.409 . S
C973 C971 1.415 1_554 S
C974 H964 0.930 . S
C974 C972 1.419 1_655 S
C974 C975 1.362 . S
C975 H965 0.930 . S
C975 C968 1.409 . S
C975 C974 1.362 . S
H976 C982 0.930 . S
H977 C985 0.930 . S
H978 C986 0.930 . S
H979 C987 0.930 . S
H980 C990 0.930 . S
H981 C991 0.930 . S
C982 H976 0.930 . S
C982 C983 1.355 1_455 S
C982 C984 1.414 1_545 S
C983 C982 1.355 1_655 S
C983 C985 1.419 . S
C984 C982 1.414 1_565 S
C984 C989 1.425 1_466 S
C984 C991 1.410 . S
C985 H977 0.930 . S
C985 C983 1.419 . S
C985 C986 1.362 1_556 S
C986 H978 0.930 . S
C986 C985 1.362 1_554 S
C986 C989 1.410 . S
C987 H979 0.930 . S
C987 C988 1.355 1_655 S
C987 C989 1.414 1_565 S
C988 C987 1.355 1_455 S
C988 C990 1.419 . S
C989 C984 1.425 1_644 S
C989 C986 1.410 . S
C989 C987 1.414 1_545 S
C990 H980 0.930 . S
C990 C988 1.419 . S
C990 C991 1.362 1_554 S
C991 H981 0.930 . S
C991 C984 1.410 . S
C991 C990 1.362 1_556 S
H992 C998 0.930 . S
H993 C1001 0.930 . S
H994 C1002 0.930 . S
H995 C1003 0.930 . S
H996 C1006 0.930 . S
H997 C1007 0.930 . S
C998 H992 0.930 . S
C998 C999 1.355 . S
C998 C1000 1.415 1_655 S
C999 C998 1.355 . S
C999 C1001 1.419 1_545 S
C1000 C998 1.415 1_455 S
C1000 C1005 1.425 1_445 S
C1000 C1007 1.409 . S
C1001 H993 0.930 . S
C1001 C999 1.419 1_565 S
C1001 C1002 1.362 . S
C1002 H994 0.930 . S
C1002 C1001 1.362 . S
C1002 C1005 1.409 . S
C1003 H995 0.930 . S
C1003 C1004 1.355 . S
C1003 C1005 1.415 1_455 S
C1004 C1003 1.355 . S
C1004 C1006 1.419 1_565 S
C1005 C1000 1.425 1_665 S
C1005 C1002 1.409 . S
C1005 C1003 1.415 1_655 S
C1006 H996 0.930 . S
C1006 C1004 1.419 1_545 S
C1006 C1007 1.362 . S
C1007 H997 0.930 . S
C1007 C1000 1.409 . S
C1007 C1006 1.362 . S
H1008 C1014 0.930 . S
H1009 C1017 0.930 . S
H1010 C1018 0.930 . S
H1011 C1019 0.930 . S
H1012 C1022 0.930 . S
H1013 C1023 0.930 . S
C1014 H1008 0.930 . S
C1014 C1015 1.355 . S
C1014 C1016 1.415 1_545 S
C1015 C1014 1.355 . S
C1015 C1017 1.419 . S
C1016 C1014 1.415 1_565 S
C1016 C1021 1.425 1_565 S
C1016 C1023 1.409 . S
C1017 H1009 0.930 . S
C1017 C1015 1.419 . S
C1017 C1018 1.362 . S
C1018 H1010 0.930 . S
C1018 C1017 1.362 . S
C1018 C1021 1.409 . S
C1019 H1011 0.930 . S
C1019 C1020 1.355 . S
C1019 C1021 1.415 1_565 S
C1020 C1019 1.355 . S
C1020 C1022 1.419 . S
C1021 C1016 1.425 1_545 S
C1021 C1018 1.409 . S
C1021 C1019 1.415 1_545 S
C1022 H1012 0.930 . S
C1022 C1020 1.419 . S
C1022 C1023 1.362 . S
C1023 H1013 0.930 . S
C1023 C1016 1.409 . S
C1023 C1022 1.362 . S
H1024 C1030 0.930 . S
H1025 C1033 0.930 . S
H1026 C1034 0.930 . S
H1027 C1035 0.930 . S
H1028 C1038 0.930 . S
H1029 C1039 0.930 . S
C1030 H1024 0.930 . S
C1030 C1031 1.355 . S
C1030 C1032 1.415 . S
C1031 C1030 1.355 . S
C1031 C1033 1.419 . S
C1032 C1030 1.415 . S
C1032 C1037 1.425 . S
C1032 C1039 1.409 . S
C1033 H1025 0.930 . S
C1033 C1031 1.419 . S
C1033 C1034 1.362 . S
C1034 H1026 0.930 . S
C1034 C1033 1.362 . S
C1034 C1037 1.409 . S
C1035 H1027 0.930 . S
C1035 C1036 1.355 . S
C1035 C1037 1.415 . S
C1036 C1035 1.355 . S
C1036 C1038 1.419 . S
C1037 C1032 1.425 . S
C1037 C1034 1.409 . S
C1037 C1035 1.415 . S
C1038 H1028 0.930 . S
C1038 C1036 1.419 . S
C1038 C1039 1.362 . S
C1039 H1029 0.930 . S
C1039 C1032 1.409 . S
C1039 C1038 1.362 . S
H1040 C1046 0.921 1_655 S
H1041 C1049 0.930 . S
H1042 C1050 0.930 . S
H1043 C1051 0.921 1_455 S
H1044 C1054 0.930 . S
H1045 C1055 0.930 . S
C1046 H1040 0.921 1_455 S
C1046 C1047 1.367 . S
C1046 C1048 1.410 1_455 S
C1047 C1046 1.367 . S
C1047 C1049 1.419 . S
C1048 C1046 1.410 1_655 S
C1048 C1053 1.425 1_655 S
C1048 C1055 1.409 . S
C1049 H1041 0.930 . S
C1049 C1047 1.419 . S
C1049 C1050 1.362 . S
C1050 H1042 0.930 . S
C1050 C1049 1.362 . S
C1050 C1053 1.409 . S
C1051 H1043 0.921 1_655 S
C1051 C1052 1.367 . S
C1051 C1053 1.410 1_655 S
C1052 C1051 1.367 . S
C1052 C1054 1.419 . S
C1053 C1048 1.425 1_455 S
C1053 C1050 1.409 . S
C1053 C1051 1.410 1_455 S
C1054 H1044 0.930 . S
C1054 C1052 1.419 . S
C1054 C1055 1.362 . S
C1055 H1045 0.930 . S
C1055 C1048 1.409 . S
C1055 C1054 1.362 . S
H1056 C1062 0.930 . S
H1057 C1065 0.930 . S
H1058 C1066 0.930 . S
H1059 C1067 0.930 . S
H1060 C1070 0.930 . S
H1061 C1071 0.930 . S
C1062 H1056 0.930 . S
C1062 C1063 1.355 . S
C1062 C1064 1.415 . S
C1063 C1062 1.355 . S
C1063 C1065 1.419 . S
C1064 C1062 1.415 . S
C1064 C1069 1.425 . S
C1064 C1071 1.409 . S
C1065 H1057 0.930 . S
C1065 C1063 1.419 . S
C1065 C1066 1.362 . S
C1066 H1058 0.930 . S
C1066 C1065 1.362 . S
C1066 C1069 1.409 . S
C1067 H1059 0.930 . S
C1067 C1068 1.355 . S
C1067 C1069 1.415 . S
C1068 C1067 1.355 . S
C1068 C1070 1.419 . S
C1069 C1064 1.425 . S
C1069 C1066 1.409 . S
C1069 C1067 1.415 . S
C1070 H1060 0.930 . S
C1070 C1068 1.419 . S
C1070 C1071 1.362 . S
C1071 H1061 0.930 . S
C1071 C1064 1.409 . S
C1071 C1070 1.362 . S
H1072 C1078 0.930 . S
H1073 C1081 0.930 . S
H1074 C1082 0.930 . S
H1075 C1083 0.930 . S
H1076 C1086 0.930 . S
H1077 C1087 0.930 . S
C1078 H1072 0.930 . S
C1078 C1079 1.355 . S
C1078 C1080 1.415 . S
C1079 C1078 1.355 . S
C1079 C1081 1.419 . S
C1080 C1078 1.415 . S
C1080 C1085 1.425 . S
C1080 C1087 1.409 . S
C1081 H1073 0.930 . S
C1081 C1079 1.419 . S
C1081 C1082 1.362 . S
C1082 H1074 0.930 . S
C1082 C1081 1.362 . S
C1082 C1085 1.409 . S
C1083 H1075 0.930 . S
C1083 C1084 1.355 . S
C1083 C1085 1.415 . S
C1084 C1083 1.355 . S
C1084 C1086 1.419 . S
C1085 C1080 1.425 . S
C1085 C1082 1.409 . S
C1085 C1083 1.415 . S
C1086 H1076 0.930 . S
C1086 C1084 1.419 . S
C1086 C1087 1.362 . S
C1087 H1077 0.930 . S
C1087 C1080 1.409 . S
C1087 C1086 1.362 . S
H1088 C1094 0.930 . S
H1089 C1097 0.930 . S
H1090 C1098 0.930 . S
H1091 C1099 0.930 . S
H1092 C1102 0.930 . S
H1093 C1103 0.930 . S
C1094 H1088 0.930 . S
C1094 C1095 1.355 . S
C1094 C1096 1.415 . S
C1095 C1094 1.355 . S
C1095 C1097 1.419 . S
C1096 C1094 1.415 . S
C1096 C1101 1.425 . S
C1096 C1103 1.409 . S
C1097 H1089 0.930 . S
C1097 C1095 1.419 . S
C1097 C1098 1.362 . S
C1098 H1090 0.930 . S
C1098 C1097 1.362 . S
C1098 C1101 1.409 . S
C1099 H1091 0.930 . S
C1099 C1100 1.355 . S
C1099 C1101 1.415 . S
C1100 C1099 1.355 . S
C1100 C1102 1.419 . S
C1101 C1096 1.425 . S
C1101 C1098 1.409 . S
C1101 C1099 1.415 . S
C1102 H1092 0.930 . S
C1102 C1100 1.419 . S
C1102 C1103 1.362 . S
C1103 H1093 0.930 . S
C1103 C1096 1.409 . S
C1103 C1102 1.362 . S
H1104 C1110 0.930 . S
H1105 C1113 0.930 . S
H1106 C1114 0.930 . S
H1107 C1115 0.930 . S
H1108 C1118 0.930 . S
H1109 C1119 0.930 . S
C1110 H1104 0.930 . S
C1110 C1111 1.355 . S
C1110 C1112 1.415 . S
C1111 C1110 1.355 . S
C1111 C1113 1.419 . S
C1112 C1110 1.415 . S
C1112 C1117 1.425 . S
C1112 C1119 1.409 . S
C1113 H1105 0.930 . S
C1113 C1111 1.419 . S
C1113 C1114 1.362 . S
C1114 H1106 0.930 . S
C1114 C1113 1.362 . S
C1114 C1117 1.409 . S
C1115 H1107 0.930 . S
C1115 C1116 1.355 . S
C1115 C1117 1.415 . S
C1116 C1115 1.355 . S
C1116 C1118 1.419 . S
C1117 C1112 1.425 . S
C1117 C1114 1.409 . S
C1117 C1115 1.415 . S
C1118 H1108 0.930 . S
C1118 C1116 1.419 . S
C1118 C1119 1.362 . S
C1119 H1109 0.930 . S
C1119 C1112 1.409 . S
C1119 C1118 1.362 . S
H1120 C1126 0.930 . S
H1121 C1129 0.930 . S
H1122 C1130 0.930 . S
H1123 C1131 0.930 . S
H1124 C1134 0.930 . S
H1125 C1135 0.930 . S
C1126 H1120 0.930 . S
C1126 C1127 1.355 . S
C1126 C1128 1.415 . S
C1127 C1126 1.355 . S
C1127 C1129 1.419 . S
C1128 C1126 1.415 . S
C1128 C1133 1.425 . S
C1128 C1135 1.409 . S
C1129 H1121 0.930 . S
C1129 C1127 1.419 . S
C1129 C1130 1.362 . S
C1130 H1122 0.930 . S
C1130 C1129 1.362 . S
C1130 C1133 1.409 . S
C1131 H1123 0.930 . S
C1131 C1132 1.355 . S
C1131 C1133 1.415 . S
C1132 C1131 1.355 . S
C1132 C1134 1.419 . S
C1133 C1128 1.425 . S
C1133 C1130 1.409 . S
C1133 C1131 1.415 . S
C1134 H1124 0.930 . S
C1134 C1132 1.419 . S
C1134 C1135 1.362 . S
C1135 H1125 0.930 . S
C1135 C1128 1.409 . S
C1135 C1134 1.362 . S
H1136 C1142 0.930 . S
H1137 C1145 0.930 . S
H1138 C1146 0.930 . S
H1139 C1147 0.930 . S
H1140 C1150 0.930 . S
H1141 C1151 0.930 . S
C1142 H1136 0.930 . S
C1142 C1143 1.355 . S
C1142 C1144 1.415 . S
C1143 C1142 1.355 . S
C1143 C1145 1.419 . S
C1144 C1142 1.415 . S
C1144 C1149 1.425 . S
C1144 C1151 1.409 . S
C1145 H1137 0.930 . S
C1145 C1143 1.419 . S
C1145 C1146 1.362 . S
C1146 H1138 0.930 . S
C1146 C1145 1.362 . S
C1146 C1149 1.409 . S
C1147 H1139 0.930 . S
C1147 C1148 1.355 . S
C1147 C1149 1.415 . S
C1148 C1147 1.355 . S
C1148 C1150 1.419 . S
C1149 C1144 1.425 . S
C1149 C1146 1.409 . S
C1149 C1147 1.415 . S
C1150 H1140 0.930 . S
C1150 C1148 1.419 . S
C1150 C1151 1.362 . S
C1151 H1141 0.930 . S
C1151 C1144 1.409 . S
C1151 C1150 1.362 . S
H1152 C1158 0.930 . S
H1153 C1161 0.930 . S
H1154 C1162 0.930 . S
H1155 C1163 0.930 . S
H1156 C1166 0.930 . S
H1157 C1167 0.930 . S
C1158 H1152 0.930 . S
C1158 C1159 1.355 . S
C1158 C1160 1.415 . S
C1159 C1158 1.355 . S
C1159 C1161 1.419 . S
C1160 C1158 1.415 . S
C1160 C1165 1.425 . S
C1160 C1167 1.409 . S
C1161 H1153 0.930 . S
C1161 C1159 1.419 . S
C1161 C1162 1.362 . S
C1162 H1154 0.930 . S
C1162 C1161 1.362 . S
C1162 C1165 1.409 . S
C1163 H1155 0.930 . S
C1163 C1164 1.355 . S
C1163 C1165 1.415 . S
C1164 C1163 1.355 . S
C1164 C1166 1.419 . S
C1165 C1160 1.425 . S
C1165 C1162 1.409 . S
C1165 C1163 1.415 . S
C1166 H1156 0.930 . S
C1166 C1164 1.419 . S
C1166 C1167 1.362 . S
C1167 H1157 0.930 . S
C1167 C1160 1.409 . S
C1167 C1166 1.362 . S
H1168 C1174 0.930 . S
H1169 C1177 0.930 . S
H1170 C1178 0.930 . S
H1171 C1179 0.930 . S
H1172 C1182 0.930 . S
H1173 C1183 0.930 . S
C1174 H1168 0.930 . S
C1174 C1175 1.355 . S
C1174 C1176 1.415 . S
C1175 C1174 1.355 . S
C1175 C1177 1.419 . S
C1176 C1174 1.415 . S
C1176 C1181 1.425 . S
C1176 C1183 1.409 . S
C1177 H1169 0.930 . S
C1177 C1175 1.419 . S
C1177 C1178 1.362 . S
C1178 H1170 0.930 . S
C1178 C1177 1.362 . S
C1178 C1181 1.409 . S
C1179 H1171 0.930 . S
C1179 C1180 1.355 . S
C1179 C1181 1.415 . S
C1180 C1179 1.355 . S
C1180 C1182 1.419 . S
C1181 C1176 1.425 . S
C1181 C1178 1.409 . S
C1181 C1179 1.415 . S
C1182 H1172 0.930 . S
C1182 C1180 1.419 . S
C1182 C1183 1.362 . S
C1183 H1173 0.930 . S
C1183 C1176 1.409 . S
C1183 C1182 1.362 . S
C551 C9 0.954 . S
C556 C67 0.960 . S
C567 C101 0.950 . S
C572 C43 0.881 . S
C583 C135 0.957 1_655 S
C588 C77 0.928 . S
C599 C111 0.900 . S
C604 C33 0.953 1_565 S
C615 C271 0.957 1_455 S
C620 C145 0.961 . S
C631 C169 0.959 1_545 S
C636 C179 0.967 . S
C647 C203 0.932 . S
C652 C213 0.807 . S
C663 C247 0.963 . S
C668 C237 0.960 . S
C679 C281 0.781 . S
C684 C339 0.934 . S
C695 C315 0.769 . S
C700 C373 0.931 . S
C711 C407 0.960 1_455 S
C716 C349 0.967 . S
C727 C305 0.943 1_545 S
C732 C383 0.847 . S
C743 C543 0.933 . S
C748 C417 0.777 . S
C759 C441 0.930 . S
C764 C451 0.775 . S
C775 C485 0.767 . S
C780 C475 0.930 . S
C791 C519 0.789 . S
C796 C509 0.930 . S
C807 C5 2.204 . S
C812 C73 2.190 . S
C823 C39 2.184 . S
C828 C107 2.184 . S
C839 C209 2.216 . S
C844 C141 2.221 . S
C855 C243 2.215 . S
C860 C175 2.221 . S
C871 C345 2.188 . S
C876 C277 2.183 . S
C887 C311 2.183 . S
C892 C379 2.189 . S
C903 C413 2.183 . S
C908 C481 2.186 . S
C919 C447 2.217 . S
C924 C515 2.205 . S
C935 C20 1.781 . S
C940 C292 1.781 . S
C951 C54 1.828 . S
C956 C326 1.828 . S
C967 C88 1.798 . S
C972 C360 1.798 . S
C983 C394 1.827 . S
C988 C122 1.827 . S
C999 C428 1.793 . S
C1004 C156 1.793 . S
C1015 C190 1.824 . S
C1020 C462 1.824 . S
C1031 C224 1.824 . S
C1036 C496 1.824 . S
C1047 C530 1.829 . S
C1052 C258 1.829 . S
C1063 C172 1.613 . S
C1068 C2 1.614 . S
C1079 C206 1.618 . S
C1084 C36 1.613 . S
C1095 C70 1.615 . S
C1100 C240 1.620 . S
C1111 C138 1.623 . S
C1116 C104 1.616 . S
C1127 C274 1.624 . S
C1132 C444 1.629 . S
C1143 C478 1.619 . S
C1148 C308 1.625 . S
C1159 C512 1.617 . S
C1164 C342 1.623 . S
C1175 C376 1.613 . S
C1180 C410 1.618 . S
