# Generated by pormake.
# Topology unm, (4)-cn, num edge types: 1
# Building blocks:
#     Node 0, Type 0, BuildingBlock: NAHDIM_clean_sbu_0, # of connection points: 4
#     Node 1, Type 0, BuildingBlock: NAHDIM_clean_sbu_0, # of connection points: 4
#     Node 2, Type 0, BuildingBlock: NAHDIM_clean_sbu_0, # of connection points: 4
#     Node 3, Type 0, BuildingBlock: NAHDIM_clean_sbu_0, # of connection points: 4
#     Node 4, Type 0, BuildingBlock: NAHDIM_clean_sbu_0, # of connection points: 4
#     Node 5, Type 0, BuildingBlock: NAHDIM_clean_sbu_0, # of connection points: 4
#     Node 6, Type 0, BuildingBlock: NAHDIM_clean_sbu_0, # of connection points: 4
#     Node 7, Type 0, BuildingBlock: NAHDIM_clean_sbu_0, # of connection points: 4
#     Edge 8, Type (0, 0), BuildingBlock: KIFKEQ_clean_linker_1, # of connection points: 2
#     Edge 9, Type (0, 0), BuildingBlock: KIFKEQ_clean_linker_1, # of connection points: 2
#     Edge 10, Type (0, 0), BuildingBlock: KIFKEQ_clean_linker_1, # of connection points: 2
#     Edge 11, Type (0, 0), BuildingBlock: KIFKEQ_clean_linker_1, # of connection points: 2
#     Edge 12, Type (0, 0), BuildingBlock: KIFKEQ_clean_linker_1, # of connection points: 2
#     Edge 13, Type (0, 0), BuildingBlock: KIFKEQ_clean_linker_1, # of connection points: 2
#     Edge 14, Type (0, 0), BuildingBlock: KIFKEQ_clean_linker_1, # of connection points: 2
#     Edge 15, Type (0, 0), BuildingBlock: KIFKEQ_clean_linker_1, # of connection points: 2
#     Edge 16, Type (0, 0), BuildingBlock: KIFKEQ_clean_linker_1, # of connection points: 2
#     Edge 17, Type (0, 0), BuildingBlock: KIFKEQ_clean_linker_1, # of connection points: 2
#     Edge 18, Type (0, 0), BuildingBlock: KIFKEQ_clean_linker_1, # of connection points: 2
#     Edge 19, Type (0, 0), BuildingBlock: KIFKEQ_clean_linker_1, # of connection points: 2
#     Edge 20, Type (0, 0), BuildingBlock: KIFKEQ_clean_linker_1, # of connection points: 2
#     Edge 21, Type (0, 0), BuildingBlock: KIFKEQ_clean_linker_1, # of connection points: 2
#     Edge 22, Type (0, 0), BuildingBlock: KIFKEQ_clean_linker_1, # of connection points: 2
#     Edge 23, Type (0, 0), BuildingBlock: KIFKEQ_clean_linker_1, # of connection points: 2
# Relax obj value: 0.220
# Max RMSD: 0.179
# Mean RMSD: 0.179
data_MOF--net-unm--node1-NAHDIM_clean_sbu_0--edge1-KIFKEQ_clean_linker_1
_symmetry_space_group_name_H-M    P1
_symmetry_Int_Tables_number       1
_symmetry_cell_setting            triclinic
loop_
_symmetry_equiv_pos_as_xyz
'x, y, z'
_cell_length_a     26.833252
_cell_length_b     26.832018
_cell_length_c     42.521894
_cell_angle_alpha  90.016003
_cell_angle_beta   90.014607
_cell_angle_gamma 90.055559
loop_
_atom_site_label
_atom_site_type_symbol
_atom_site_fract_x
_atom_site_fract_y
_atom_site_fract_z
_atom_type_partial_charge
C0 C 0.22709 0.22764 0.18081 0.0
O1 O 0.22171 0.18467 0.16638 0.0
O2 O 0.0758 0.21843 0.19672 0.0
Zn3 Zn 0.12269 0.24552 0.16387 0.0
O4 O 0.12772 0.20327 0.12471 0.0
C5 C 0.05146 0.3246 0.15308 0.0
O6 O 0.01858 0.28975 0.15941 0.0
O7 O 0.19028 0.25717 0.18268 0.0
C8 C 0.09582 0.20696 0.1027 0.0
O9 O 0.05755 0.23684 0.10632 0.0
C10 C 0.03943 0.18954 0.19081 0.0
O11 O 0.03486 0.17076 0.16243 0.0
O12 O 0.09752 0.31368 0.15265 0.0
C13 C 0.26175 0.726 0.68089 0.0
O14 O 0.30598 0.7203 0.66815 0.0
O15 O 0.27016 0.57591 0.69778 0.0
Zn16 Zn 0.24592 0.62173 0.66349 0.0
O17 O 0.29198 0.6261 0.62613 0.0
C18 C 0.16854 0.54918 0.65162 0.0
O19 O 0.20103 0.51824 0.66391 0.0
O20 O 0.23174 0.68941 0.68149 0.0
C21 C 0.29161 0.5916 0.6056 0.0
O22 O 0.26351 0.5522 0.61024 0.0
C23 C 0.30242 0.54178 0.69406 0.0
O24 O 0.32676 0.53897 0.66734 0.0
O25 O 0.17994 0.59493 0.64865 0.0
C26 C 0.76949 0.7715 0.18825 0.0
O27 O 0.76833 0.80955 0.16883 0.0
O28 O 0.92587 0.79608 0.19816 0.0
Zn29 Zn 0.87458 0.76351 0.1704 0.0
O30 O 0.86372 0.80077 0.13 0.0
C31 C 0.93179 0.67446 0.17777 0.0
O32 O 0.94209 0.69492 0.20507 0.0
O33 O 0.81038 0.74889 0.19298 0.0
C34 C 0.84391 0.77546 0.10804 0.0
O35 O 0.82941 0.72963 0.11399 0.0
C36 C 0.9652 0.81295 0.18534 0.0
O37 O 0.96693 0.81638 0.15454 0.0
O38 O 0.90313 0.69701 0.15876 0.0
C39 C 0.72909 0.26399 0.67724 0.0
O40 O 0.69264 0.26272 0.65661 0.0
O41 O 0.7128 0.42153 0.69245 0.0
Zn42 Zn 0.73654 0.37022 0.66131 0.0
O43 O 0.69127 0.36151 0.62385 0.0
C44 C 0.81381 0.44095 0.64619 0.0
O45 O 0.78045 0.47323 0.65592 0.0
O46 O 0.75076 0.30509 0.68303 0.0
C47 C 0.68942 0.39541 0.60298 0.0
O48 O 0.71425 0.43699 0.60748 0.0
C49 C 0.67671 0.45167 0.689 0.0
O50 O 0.64642 0.44621 0.66497 0.0
O51 O 0.80288 0.39484 0.64567 0.0
C52 C 0.72756 0.2548 0.31309 0.0
O53 O 0.72294 0.29763 0.32778 0.0
O54 O 0.57673 0.26533 0.29503 0.0
Zn55 Zn 0.62244 0.23996 0.32905 0.0
O56 O 0.62683 0.28493 0.36701 0.0
C57 C 0.54954 0.16249 0.33982 0.0
O58 O 0.51867 0.1956 0.32815 0.0
O59 O 0.69011 0.22607 0.31088 0.0
C60 C 0.59284 0.28319 0.38784 0.0
O61 O 0.55394 0.25441 0.38319 0.0
C62 C 0.54211 0.29688 0.29932 0.0
O63 O 0.53887 0.31981 0.32652 0.0
O64 O 0.59535 0.17357 0.34292 0.0
C65 C 0.23041 0.2271 0.81198 0.0
O66 O 0.18744 0.22217 0.82647 0.0
O67 O 0.22131 0.07535 0.79578 0.0
Zn68 Zn 0.24666 0.12263 0.82892 0.0
O69 O 0.2026 0.1286 0.86729 0.0
C70 C 0.32446 0.05109 0.84269 0.0
O71 O 0.28965 0.018 0.8367 0.0
O72 O 0.25947 0.18993 0.81001 0.0
C73 C 0.20386 0.0964 0.88922 0.0
O74 O 0.23224 0.05693 0.88602 0.0
C75 C 0.19184 0.0392 0.80099 0.0
O76 O 0.171 0.035 0.8288 0.0
O77 O 0.31405 0.09725 0.84161 0.0
C78 C 0.29986 0.75267 0.28318 0.0
O79 O 0.34009 0.75921 0.26606 0.0
O80 O 0.42081 0.70156 0.29684 0.0
Zn81 Zn 0.37251 0.72655 0.32972 0.0
O82 O 0.36833 0.68317 0.3684 0.0
C83 C 0.44214 0.80675 0.34095 0.0
O84 O 0.47475 0.77372 0.33125 0.0
O85 O 0.30427 0.73684 0.31121 0.0
C86 C 0.40084 0.68702 0.39004 0.0
O87 O 0.43893 0.71707 0.38595 0.0
C88 C 0.45768 0.67339 0.30278 0.0
O89 O 0.46126 0.6529 0.33073 0.0
O90 O 0.39641 0.79467 0.34277 0.0
C91 C 0.72469 0.79326 0.78117 0.0
O92 O 0.70355 0.83201 0.76781 0.0
O93 O 0.78684 0.91721 0.79203 0.0
Zn94 Zn 0.75977 0.8682 0.82377 0.0
O95 O 0.79901 0.8626 0.86425 0.0
C96 C 0.67898 0.93664 0.83608 0.0
O97 O 0.71347 0.97065 0.83164 0.0
O98 O 0.75252 0.7999 0.80499 0.0
C99 C 0.79404 0.89349 0.88674 0.0
O100 O 0.76617 0.9331 0.88265 0.0
C101 C 0.81273 0.95519 0.7993 0.0
O102 O 0.82917 0.95975 0.82825 0.0
O103 O 0.69026 0.89076 0.83411 0.0
H104 H 0.03689 0.2105 0.05037 0.0
H105 H 0.17404 0.14747 0.08584 0.0
H106 H 0.05536 0.17722 -0.00169 0.0
H107 H 0.19282 0.11501 0.03371 0.0
H108 H 0.20128 0.03624 0.94097 0.0
H109 H 0.16797 0.05609 0.99278 0.0
H110 H 0.11662 0.19827 0.95787 0.0
H111 H 0.1491 0.17815 0.90593 0.0
C112 C 0.07074 0.18915 0.04715 0.0
C113 C 0.10426 0.18203 0.07217 0.0
C114 C 0.08139 0.1703 0.01729 0.0
C115 C 0.1257 0.14384 0.01184 0.0
C116 C 0.15811 0.13482 0.0372 0.0
C117 C 0.14749 0.15369 0.06705 0.0
C118 C 0.18227 0.07146 0.94422 0.0
C119 C 0.1783 0.10587 0.91942 0.0
C120 C 0.16341 0.08289 0.97395 0.0
C121 C 0.14011 0.12891 0.9795 0.0
C122 C 0.13399 0.16229 0.9543 0.0
C123 C 0.15287 0.15088 0.92456 0.0
H124 H 0.34797 0.67102 0.58659 0.0
H125 H 0.29398 0.52714 0.55592 0.0
H126 H 0.38132 0.68643 0.53424 0.0
H127 H 0.32809 0.54233 0.50367 0.0
H128 H 0.32263 0.62827 0.40817 0.0
H129 H 0.304 0.59866 0.461 0.0
H130 H 0.44253 0.66129 0.49459 0.0
H131 H 0.46088 0.69167 0.44183 0.0
C132 C 0.344 0.64231 0.56885 0.0
C133 C 0.3178 0.59814 0.57531 0.0
C134 C 0.36339 0.65101 0.53888 0.0
C135 C 0.35699 0.61572 0.51475 0.0
C136 C 0.33295 0.57051 0.52165 0.0
C137 C 0.31361 0.56177 0.55164 0.0
C138 C 0.34948 0.63509 0.4267 0.0
C139 C 0.39291 0.66288 0.42088 0.0
C140 C 0.33895 0.61786 0.45697 0.0
C141 C 0.37163 0.62802 0.48202 0.0
C142 C 0.41628 0.65357 0.47585 0.0
C143 C 0.42685 0.67076 0.44558 0.0
H144 H 0.80883 0.72783 0.05604 0.0
H145 H 0.87118 0.86818 0.08694 0.0
H146 H 0.80468 0.75913 0.0025 0.0
H147 H 0.86745 0.89939 0.03293 0.0
H148 H 0.78585 0.9492 0.94026 0.0
H149 H 0.80286 0.92259 0.99396 0.0
H150 H 0.86055 0.78287 0.95912 0.0
H151 H 0.84287 0.80904 0.90537 0.0
C152 C 0.82174 0.76538 0.05141 0.0
C153 C 0.84024 0.79556 0.07577 0.0
C154 C 0.81982 0.78313 0.02063 0.0
C155 C 0.83624 0.83153 0.01345 0.0
C156 C 0.85442 0.86197 0.03781 0.0
C157 C 0.85655 0.84409 0.06869 0.0
C158 C 0.8029 0.9131 0.94398 0.0
C159 C 0.81234 0.88093 0.91856 0.0
C160 C 0.81283 0.89798 0.97478 0.0
C161 C 0.83233 0.85036 0.98076 0.0
C162 C 0.84459 0.81942 0.95523 0.0
C163 C 0.83477 0.83456 0.92443 0.0
H164 H 0.5308 0.28042 0.43868 0.0
H165 H 0.66995 0.34331 0.40618 0.0
H166 H 0.54633 0.31412 0.49102 0.0
H167 H 0.68561 0.37649 0.45862 0.0
H168 H 0.68729 0.45627 0.55154 0.0
H169 H 0.65677 0.43611 0.49904 0.0
H170 H 0.60707 0.29242 0.53248 0.0
H171 H 0.63706 0.31265 0.58505 0.0
C172 C 0.56442 0.30191 0.44258 0.0
C173 C 0.59941 0.30877 0.41835 0.0
C174 C 0.57336 0.32101 0.47261 0.0
C175 C 0.61732 0.34759 0.47898 0.0
C176 C 0.65116 0.35652 0.45437 0.0
C177 C 0.64232 0.33726 0.42436 0.0
C178 C 0.66918 0.42066 0.54783 0.0
C179 C 0.66505 0.38582 0.57239 0.0
C180 C 0.65193 0.40908 0.51771 0.0
C181 C 0.62993 0.36256 0.51159 0.0
C182 C 0.6235 0.32875 0.53652 0.0
C183 C 0.64093 0.34024 0.56661 0.0
H184 H 0.25361 0.31851 0.20437 0.0
H185 H 0.3101 0.16979 0.18872 0.0
H186 H 0.33233 0.34228 0.22854 0.0
H187 H 0.38837 0.19311 0.21383 0.0
H188 H 0.53689 0.2546 0.2409 0.0
H189 H 0.46257 0.24259 0.20887 0.0
H190 H 0.37634 0.32664 0.27634 0.0
H191 H 0.45081 0.33987 0.30783 0.0
C192 C 0.28281 0.29081 0.20616 0.0
C193 C 0.27549 0.24211 0.1948 0.0
C194 C 0.32792 0.30444 0.22011 0.0
C195 C 0.3667 0.26964 0.22323 0.0
C196 C 0.35962 0.22114 0.21137 0.0
C197 C 0.31458 0.20759 0.19721 0.0
C198 C 0.50226 0.2714 0.24857 0.0
C199 C 0.49969 0.29782 0.27708 0.0
C200 C 0.45955 0.26409 0.23034 0.0
C201 C 0.41327 0.28288 0.24028 0.0
C202 C 0.41137 0.31187 0.26784 0.0
C203 C 0.45415 0.31941 0.28597 0.0
H204 H 0.1706 0.75169 0.70445 0.0
H205 H 0.31907 0.80938 0.68914 0.0
H206 H 0.14661 0.82987 0.72926 0.0
H207 H 0.29541 0.88712 0.71469 0.0
H208 H 0.23253 0.03492 0.74211 0.0
H209 H 0.24454 0.96102 0.70973 0.0
H210 H 0.16355 0.87303 0.7778 0.0
H211 H 0.1505 0.94707 0.8098 0.0
C212 C 0.19816 0.78106 0.70637 0.0
C213 C 0.24688 0.7742 0.69497 0.0
C214 C 0.1844 0.82583 0.72069 0.0
C215 C 0.21905 0.86475 0.72404 0.0
C216 C 0.26752 0.85821 0.71208 0.0
C217 C 0.28125 0.81347 0.69765 0.0
C218 C 0.21642 0.0 0.74988 0.0
C219 C 0.19097 -0.00319 0.77872 0.0
C220 C 0.22371 0.95755 0.73143 0.0
C221 C 0.20575 0.91095 0.74141 0.0
C222 C 0.17767 0.90837 0.7693 0.0
C223 C 0.17025 0.95087 0.78771 0.0
H224 H 0.46253 0.7087 0.24255 0.0
H225 H 0.55301 0.64498 0.31634 0.0
H226 H 0.53746 0.72758 0.21246 0.0
H227 H 0.62784 0.6655 0.28693 0.0
H228 H 0.75552 0.68323 0.21894 0.0
H229 H 0.67928 0.65178 0.24272 0.0
H230 H 0.60288 0.78709 0.21596 0.0
H231 H 0.67874 0.8176 0.19107 0.0
C232 C 0.49838 0.69808 0.25215 0.0
C233 C 0.5018 0.67565 0.28194 0.0
C234 C 0.5414 0.70943 0.23506 0.0
C235 C 0.58885 0.69898 0.24748 0.0
C236 C 0.59202 0.67385 0.27646 0.0
C237 C 0.54899 0.66207 0.2934 0.0
C238 C 0.72242 0.70627 0.21811 0.0
C239 C 0.72324 0.75306 0.20323 0.0
C240 C 0.67868 0.68825 0.23183 0.0
C241 C 0.63477 0.71679 0.23131 0.0
C242 C 0.63565 0.76359 0.21632 0.0
C243 C 0.6793 0.78138 0.20229 0.0
H244 H 0.81363 0.2507 0.71199 0.0
H245 H 0.6834 0.1728 0.67788 0.0
H246 H 0.84197 0.17504 0.73794 0.0
H247 H 0.71072 0.09754 0.70484 0.0
H248 H 0.78526 0.95818 0.73738 0.0
H249 H 0.77048 0.0321 0.70545 0.0
H250 H 0.82193 0.12503 0.78194 0.0
H251 H 0.83838 0.0512 0.81329 0.0
C252 C 0.79086 0.21746 0.71019 0.0
C253 C 0.74608 0.21784 0.693 0.0
C254 C 0.80708 0.17406 0.72516 0.0
C255 C 0.77869 0.13005 0.72358 0.0
C256 C 0.73407 0.13041 0.70613 0.0
C257 C 0.7181 0.17372 0.69089 0.0
C258 C 0.79441 0.99437 0.7471 0.0
C259 C 0.81267 -0.0012 0.77797 0.0
C260 C 0.78542 0.03681 0.72892 0.0
C261 C 0.79413 0.08469 0.74126 0.0
C262 C 0.81508 0.08886 0.7715 0.0
C263 C 0.82448 0.0464 0.78957 0.0
H264 H 0.81237 0.31075 0.30737 0.0
H265 H 0.75141 0.16539 0.2863 0.0
H266 H 0.88974 0.28776 0.28118 0.0
H267 H 0.82924 0.14191 0.26089 0.0
H268 H 0.94666 0.15042 0.18081 0.0
H269 H 0.87299 0.16193 0.2133 0.0
H270 H 0.96254 0.23543 0.28396 0.0
H271 H 0.03611 0.22509 0.25105 0.0
C272 C 0.81567 0.27371 0.29747 0.0
C273 C 0.77557 0.2401 0.29869 0.0
C274 C 0.8602 0.26033 0.28267 0.0
C275 C 0.86574 0.21293 0.2689 0.0
C276 C 0.826 0.17893 0.27084 0.0
C277 C 0.78142 0.19238 0.28551 0.0
C278 C 0.95088 0.16817 0.20354 0.0
C279 C -0.00282 0.18736 0.21314 0.0
C280 C 0.90857 0.17469 0.22225 0.0
C281 C 0.91169 0.20029 0.25106 0.0
C282 C 0.95864 0.21657 0.26157 0.0
C283 C 0.0009 0.21024 0.24281 0.0
H284 H 0.25945 0.53676 0.75223 0.0
H285 H 0.34539 0.45044 0.6858 0.0
H286 H 0.24697 0.46253 0.78425 0.0
H287 H 0.33162 0.37602 0.71721 0.0
H288 H 0.32167 0.25296 0.78876 0.0
H289 H 0.34625 0.33163 0.76485 0.0
H290 H 0.19737 0.38871 0.77917 0.0
H291 H 0.1733 0.31056 0.80405 0.0
C292 C 0.27627 0.50208 0.74468 0.0
C293 C 0.30303 0.49941 0.71631 0.0
C294 C 0.2687 0.45942 0.76289 0.0
C295 C 0.2875 0.41308 0.75305 0.0
C296 C 0.31683 0.41109 0.72565 0.0
C297 C 0.32469 0.45384 0.70755 0.0
C298 C 0.29422 0.28239 0.78694 0.0
C299 C 0.24539 0.27541 0.79813 0.0
C300 C 0.30831 0.32747 0.77314 0.0
C301 C 0.27382 0.36653 0.76998 0.0
C302 C 0.22519 0.35977 0.78166 0.0
C303 C 0.2112 0.31478 0.79569 0.0
H304 H 0.27383 0.765 0.22173 0.0
H305 H 0.21429 0.77109 0.31598 0.0
H306 H 0.19251 0.78666 0.20059 0.0
H307 H 0.13336 0.7954 0.29507 0.0
H308 H 0.98389 0.77425 0.24356 0.0
H309 H 0.06461 0.76357 0.26832 0.0
H310 H 0.13326 0.84949 0.19394 0.0
H311 H 0.05253 0.85762 0.16824 0.0
C312 C 0.2434 0.77149 0.23795 0.0
C313 C 0.25035 0.76597 0.27047 0.0
C314 C 0.19677 0.78449 0.22587 0.0
C315 C 0.15609 0.79317 0.24607 0.0
C316 C 0.16343 0.78829 0.27871 0.0
C317 C 0.2099 0.77445 0.29074 0.0
C318 C 0.01606 0.79162 0.23275 0.0
C319 C 0.01191 0.81625 0.20371 0.0
C320 C 0.06255 0.78562 0.24705 0.0
C321 C 0.10591 0.8049 0.23293 0.0
C322 C 0.10102 0.83278 0.20504 0.0
C323 C 0.05462 0.83801 0.19047 0.0
H324 H 0.60853 0.52776 0.68705 0.0
H325 H 0.74481 0.48165 0.7327 0.0
H326 H 0.61554 0.60941 0.712 0.0
H327 H 0.75295 0.56328 0.75638 0.0
H328 H 0.74238 0.70532 0.81139 0.0
H329 H 0.72363 0.62145 0.79311 0.0
H330 H 0.66542 0.68204 0.70634 0.0
H331 H 0.68221 0.76605 0.72533 0.0
C332 C 0.63965 0.53482 0.70265 0.0
C333 C 0.6762 0.49823 0.70772 0.0
C334 C 0.64399 0.58181 0.71671 0.0
C335 C 0.68516 0.59332 0.73593 0.0
C336 C 0.72041 0.55582 0.74206 0.0
C337 C 0.71583 0.50885 0.72831 0.0
C338 C 0.72554 0.70071 0.78841 0.0
C339 C 0.71409 0.7423 0.76971 0.0
C340 C 0.71486 0.65256 0.77788 0.0
C341 C 0.6931 0.64475 0.74817 0.0
C342 C 0.68135 0.68652 0.72957 0.0
C343 C 0.69145 0.73474 0.74031 0.0
H344 H 0.90237 0.61238 0.13031 0.0
H345 H 0.00727 0.62527 0.20709 0.0
H346 H 0.93352 0.52863 0.11902 0.0
H347 H 0.03826 0.54185 0.19571 0.0
H348 H 0.11042 0.40752 0.15119 0.0
H349 H 0.08349 0.49431 0.15266 0.0
H350 H 0.92977 0.4468 0.14958 0.0
H351 H 0.95647 0.35994 0.1481 0.0
C352 C 0.93233 0.59752 0.14457 0.0
C353 C 0.9522 0.62515 0.16972 0.0
C354 C 0.94998 0.54964 0.13815 0.0
C355 C 0.98826 0.52898 0.15648 0.0
C356 C 0.00907 0.55718 0.18101 0.0
C357 C 0.99105 0.60473 0.18767 0.0
C358 C 0.07089 0.41557 0.15035 0.0
C359 C 0.0355 0.37692 0.14987 0.0
C360 C 0.05555 0.4652 0.15132 0.0
C361 C 0.00463 0.47706 0.15147 0.0
C362 C 0.96929 0.43859 0.1493 0.0
C363 C 0.98459 0.38891 0.14864 0.0
H364 H 0.89118 0.38507 0.62368 0.0
H365 H 0.85216 0.5344 0.6528 0.0
H366 H 0.97788 0.41079 0.61783 0.0
H367 H 0.93872 0.55962 0.64788 0.0
H368 H 0.09431 0.60138 0.62243 0.0
H369 H 0.00852 0.5747 0.61372 0.0
H370 H 0.04278 0.43135 0.65472 0.0
H371 H 0.1286 0.4574 0.66253 0.0
C372 C 0.90102 0.42346 0.62857 0.0
C373 C 0.86497 0.45758 0.63905 0.0
C374 C 0.95069 0.43813 0.62535 0.0
C375 C 0.96528 0.4871 0.63268 0.0
C376 C 0.92872 0.52175 0.64169 0.0
C377 C 0.87907 0.50718 0.64474 0.0
C378 C 0.08363 0.56395 0.62919 0.0
C379 C 0.11804 0.53167 0.64348 0.0
C380 C 0.03446 0.54874 0.6243 0.0
C381 C 0.01872 0.50106 0.63375 0.0
C382 C 0.05377 0.4681 0.64679 0.0
C383 C 0.10295 0.4832 0.65151 0.0
H384 H 0.4577 0.12326 0.32805 0.0
H385 H 0.60146 0.08693 0.36778 0.0
H386 H 0.4315 0.03711 0.3342 0.0
H387 H 0.57464 0.00082 0.37481 0.0
H388 H 0.5349 0.84623 0.33349 0.0
H389 H 0.55965 0.93281 0.33912 0.0
H390 H 0.41086 0.97047 0.36995 0.0
H391 H 0.38559 0.88371 0.36343 0.0
C392 C 0.48341 0.09706 0.33863 0.0
C393 C 0.53188 0.11171 0.34703 0.0
C394 C 0.46824 0.0477 0.34238 0.0
C395 C 0.50112 0.01203 0.3548 0.0
C396 C 0.54876 0.02727 0.36466 0.0
C397 C 0.56405 0.07661 0.36074 0.0
C398 C 0.50755 0.87282 0.34179 0.0
C399 C 0.45814 0.85826 0.34766 0.0
C400 C 0.52187 0.92246 0.34527 0.0
C401 C 0.48716 0.95858 0.35486 0.0
C402 C 0.43825 0.94361 0.36205 0.0
C403 C 0.42385 0.89392 0.35843 0.0
H404 H 0.40866 0.10644 0.83559 0.0
H405 H 0.35703 0.95929 0.86088 0.0
H406 H 0.49426 0.07774 0.83793 0.0
H407 H 0.44304 0.93092 0.86502 0.0
H408 H 0.5946 0.88284 0.82552 0.0
H409 H 0.50888 0.91056 0.83146 0.0
H410 H 0.56125 0.05147 0.86846 0.0
H411 H 0.64698 0.0245 0.8607 0.0
C412 C 0.41574 0.06817 0.84236 0.0
C413 C 0.37626 0.03495 0.84778 0.0
C414 C 0.46493 0.05171 0.84392 0.0
C415 C 0.47577 0.00185 0.85152 0.0
C416 C 0.43612 0.96925 0.85839 0.0
C417 C 0.38684 0.98554 0.85624 0.0
C418 C 0.58765 0.91959 0.83512 0.0
C419 C 0.62726 0.95176 0.84234 0.0
C420 C 0.53849 0.93542 0.83878 0.0
C421 C 0.52795 0.98345 0.85032 0.0
C422 C 0.56787 0.01472 0.85882 0.0
C423 C 0.61701 -0.00078 0.85454 0.0
loop_
_geom_bond_atom_site_label_1
_geom_bond_atom_site_label_2
_geom_bond_distance
_geom_bond_site_symmetry_2
_ccdc_geom_bond_type
C0 O1 1.160 . S
C0 O7 1.185 . S
O1 C0 1.160 . S
O2 Zn3 1.899 . S
O2 C10 1.284 . S
Zn3 O2 1.899 . S
Zn3 O4 2.032 . S
Zn3 O7 2.086 . S
Zn3 O12 1.977 . S
O4 Zn3 2.032 . S
O4 C8 1.278 . S
C5 O6 1.203 . S
C5 O12 1.267 . S
O6 C5 1.203 . S
O7 C0 1.185 . S
O7 Zn3 2.086 . S
C8 O4 1.278 . S
C8 O9 1.211 . S
O9 C8 1.211 . S
C10 O2 1.284 . S
C10 O11 1.273 . S
O11 C10 1.273 . S
O12 Zn3 1.977 . S
O12 C5 1.267 . S
C13 O14 1.160 . S
C13 O20 1.185 . S
O14 C13 1.160 . S
O15 Zn16 1.899 . S
O15 C23 1.284 . S
Zn16 O15 1.899 . S
Zn16 O17 2.032 . S
Zn16 O20 2.086 . S
Zn16 O25 1.977 . S
O17 Zn16 2.032 . S
O17 C21 1.278 . S
C18 O19 1.203 . S
C18 O25 1.267 . S
O19 C18 1.203 . S
O20 C13 1.185 . S
O20 Zn16 2.086 . S
C21 O17 1.278 . S
C21 O22 1.211 . S
O22 C21 1.211 . S
C23 O15 1.284 . S
C23 O24 1.273 . S
O24 C23 1.273 . S
O25 Zn16 1.977 . S
O25 C18 1.267 . S
C26 O27 1.160 . S
C26 O33 1.185 . S
O27 C26 1.160 . S
O28 Zn29 1.899 . S
O28 C36 1.284 . S
Zn29 O28 1.899 . S
Zn29 O30 2.032 . S
Zn29 O33 2.086 . S
Zn29 O38 1.977 . S
O30 Zn29 2.032 . S
O30 C34 1.278 . S
C31 O32 1.203 . S
C31 O38 1.267 . S
O32 C31 1.203 . S
O33 C26 1.185 . S
O33 Zn29 2.086 . S
C34 O30 1.278 . S
C34 O35 1.211 . S
O35 C34 1.211 . S
C36 O28 1.284 . S
C36 O37 1.273 . S
O37 C36 1.273 . S
O38 Zn29 1.977 . S
O38 C31 1.267 . S
C39 O40 1.160 . S
C39 O46 1.185 . S
O40 C39 1.160 . S
O41 Zn42 1.899 . S
O41 C49 1.284 . S
Zn42 O41 1.899 . S
Zn42 O43 2.032 . S
Zn42 O46 2.086 . S
Zn42 O51 1.977 . S
O43 Zn42 2.032 . S
O43 C47 1.278 . S
C44 O45 1.203 . S
C44 O51 1.267 . S
O45 C44 1.203 . S
O46 C39 1.185 . S
O46 Zn42 2.086 . S
C47 O43 1.278 . S
C47 O48 1.211 . S
O48 C47 1.211 . S
C49 O41 1.284 . S
C49 O50 1.273 . S
O50 C49 1.273 . S
O51 Zn42 1.977 . S
O51 C44 1.267 . S
C52 O53 1.160 . S
C52 O59 1.185 . S
O53 C52 1.160 . S
O54 Zn55 1.899 . S
O54 C62 1.284 . S
Zn55 O54 1.899 . S
Zn55 O56 2.032 . S
Zn55 O59 2.086 . S
Zn55 O64 1.977 . S
O56 Zn55 2.032 . S
O56 C60 1.278 . S
C57 O58 1.203 . S
C57 O64 1.267 . S
O58 C57 1.203 . S
O59 C52 1.185 . S
O59 Zn55 2.086 . S
C60 O56 1.278 . S
C60 O61 1.211 . S
O61 C60 1.211 . S
C62 O54 1.284 . S
C62 O63 1.273 . S
O63 C62 1.273 . S
O64 Zn55 1.977 . S
O64 C57 1.267 . S
C65 O66 1.160 . S
C65 O72 1.185 . S
O66 C65 1.160 . S
O67 Zn68 1.899 . S
O67 C75 1.284 . S
Zn68 O67 1.899 . S
Zn68 O69 2.032 . S
Zn68 O72 2.086 . S
Zn68 O77 1.977 . S
O69 Zn68 2.032 . S
O69 C73 1.278 . S
C70 O71 1.203 . S
C70 O77 1.267 . S
O71 C70 1.203 . S
O72 C65 1.185 . S
O72 Zn68 2.086 . S
C73 O69 1.278 . S
C73 O74 1.211 . S
O74 C73 1.211 . S
C75 O67 1.284 . S
C75 O76 1.273 . S
O76 C75 1.273 . S
O77 Zn68 1.977 . S
O77 C70 1.267 . S
C78 O79 1.160 . S
C78 O85 1.185 . S
O79 C78 1.160 . S
O80 Zn81 1.899 . S
O80 C88 1.284 . S
Zn81 O80 1.899 . S
Zn81 O82 2.032 . S
Zn81 O85 2.086 . S
Zn81 O90 1.977 . S
O82 Zn81 2.032 . S
O82 C86 1.278 . S
C83 O84 1.203 . S
C83 O90 1.267 . S
O84 C83 1.203 . S
O85 C78 1.185 . S
O85 Zn81 2.086 . S
C86 O82 1.278 . S
C86 O87 1.211 . S
O87 C86 1.211 . S
C88 O80 1.284 . S
C88 O89 1.273 . S
O89 C88 1.273 . S
O90 Zn81 1.977 . S
O90 C83 1.267 . S
C91 O92 1.160 . S
C91 O98 1.185 . S
O92 C91 1.160 . S
O93 Zn94 1.899 . S
O93 C101 1.284 . S
Zn94 O93 1.899 . S
Zn94 O95 2.032 . S
Zn94 O98 2.086 . S
Zn94 O103 1.977 . S
O95 Zn94 2.032 . S
O95 C99 1.278 . S
C96 O97 1.203 . S
C96 O103 1.267 . S
O97 C96 1.203 . S
O98 C91 1.185 . S
O98 Zn94 2.086 . S
C99 O95 1.278 . S
C99 O100 1.211 . S
O100 C99 1.211 . S
C101 O93 1.284 . S
C101 O102 1.273 . S
O102 C101 1.273 . S
O103 Zn94 1.977 . S
O103 C96 1.267 . S
H104 C112 0.950 . S
H105 C117 0.950 . S
H106 C114 0.950 . S
H107 C116 0.950 . S
H108 C118 0.950 . S
H109 C120 0.950 . S
H110 C122 0.950 . S
H111 C123 0.950 . S
C112 H104 0.950 . S
C112 C113 1.386 . S
C112 C114 1.391 . S
C113 C112 1.386 . S
C113 C117 1.393 . S
C114 H106 0.950 . S
C114 C112 1.391 . S
C114 C115 1.400 . S
C115 C114 1.400 . S
C115 C116 1.398 . S
C115 C121 1.491 1_554 S
C116 H107 0.950 . S
C116 C115 1.398 . S
C116 C117 1.391 . S
C117 H105 0.950 . S
C117 C113 1.393 . S
C117 C116 1.391 . S
C118 H108 0.950 . S
C118 C119 1.386 . S
C118 C120 1.391 . S
C119 C118 1.386 . S
C119 C123 1.393 . S
C120 H109 0.950 . S
C120 C118 1.391 . S
C120 C121 1.400 . S
C121 C115 1.491 1_556 S
C121 C120 1.400 . S
C121 C122 1.398 . S
C122 H110 0.950 . S
C122 C121 1.398 . S
C122 C123 1.391 . S
C123 H111 0.950 . S
C123 C119 1.393 . S
C123 C122 1.391 . S
H124 C132 0.950 . S
H125 C137 0.950 . S
H126 C134 0.950 . S
H127 C136 0.950 . S
H128 C138 0.950 . S
H129 C140 0.950 . S
H130 C142 0.950 . S
H131 C143 0.950 . S
C132 H124 0.950 . S
C132 C133 1.386 . S
C132 C134 1.391 . S
C133 C132 1.386 . S
C133 C137 1.393 . S
C134 H126 0.950 . S
C134 C132 1.391 . S
C134 C135 1.400 . S
C135 C134 1.400 . S
C135 C136 1.398 . S
C135 C141 1.491 . S
C136 H127 0.950 . S
C136 C135 1.398 . S
C136 C137 1.391 . S
C137 H125 0.950 . S
C137 C133 1.393 . S
C137 C136 1.391 . S
C138 H128 0.950 . S
C138 C139 1.386 . S
C138 C140 1.391 . S
C139 C138 1.386 . S
C139 C143 1.393 . S
C140 H129 0.950 . S
C140 C138 1.391 . S
C140 C141 1.400 . S
C141 C135 1.491 . S
C141 C140 1.400 . S
C141 C142 1.398 . S
C142 H130 0.950 . S
C142 C141 1.398 . S
C142 C143 1.391 . S
C143 H131 0.950 . S
C143 C139 1.393 . S
C143 C142 1.391 . S
H144 C152 0.950 . S
H145 C157 0.950 . S
H146 C154 0.950 . S
H147 C156 0.950 . S
H148 C158 0.950 . S
H149 C160 0.950 . S
H150 C162 0.950 . S
H151 C163 0.950 . S
C152 H144 0.950 . S
C152 C153 1.386 . S
C152 C154 1.391 . S
C153 C152 1.386 . S
C153 C157 1.393 . S
C154 H146 0.950 . S
C154 C152 1.391 . S
C154 C155 1.400 . S
C155 C154 1.400 . S
C155 C156 1.398 . S
C155 C161 1.491 1_554 S
C156 H147 0.950 . S
C156 C155 1.398 . S
C156 C157 1.391 . S
C157 H145 0.950 . S
C157 C153 1.393 . S
C157 C156 1.391 . S
C158 H148 0.950 . S
C158 C159 1.386 . S
C158 C160 1.391 . S
C159 C158 1.386 . S
C159 C163 1.393 . S
C160 H149 0.950 . S
C160 C158 1.391 . S
C160 C161 1.400 . S
C161 C155 1.491 1_556 S
C161 C160 1.400 . S
C161 C162 1.398 . S
C162 H150 0.950 . S
C162 C161 1.398 . S
C162 C163 1.391 . S
C163 H151 0.950 . S
C163 C159 1.393 . S
C163 C162 1.391 . S
H164 C172 0.950 . S
H165 C177 0.950 . S
H166 C174 0.950 . S
H167 C176 0.950 . S
H168 C178 0.950 . S
H169 C180 0.950 . S
H170 C182 0.950 . S
H171 C183 0.950 . S
C172 H164 0.950 . S
C172 C173 1.386 . S
C172 C174 1.391 . S
C173 C172 1.386 . S
C173 C177 1.393 . S
C174 H166 0.950 . S
C174 C172 1.391 . S
C174 C175 1.400 . S
C175 C174 1.400 . S
C175 C176 1.398 . S
C175 C181 1.491 . S
C176 H167 0.950 . S
C176 C175 1.398 . S
C176 C177 1.391 . S
C177 H165 0.950 . S
C177 C173 1.393 . S
C177 C176 1.391 . S
C178 H168 0.950 . S
C178 C179 1.386 . S
C178 C180 1.391 . S
C179 C178 1.386 . S
C179 C183 1.393 . S
C180 H169 0.950 . S
C180 C178 1.391 . S
C180 C181 1.400 . S
C181 C175 1.491 . S
C181 C180 1.400 . S
C181 C182 1.398 . S
C182 H170 0.950 . S
C182 C181 1.398 . S
C182 C183 1.391 . S
C183 H171 0.950 . S
C183 C179 1.393 . S
C183 C182 1.391 . S
H184 C192 0.950 . S
H185 C197 0.950 . S
H186 C194 0.950 . S
H187 C196 0.950 . S
H188 C198 0.950 . S
H189 C200 0.950 . S
H190 C202 0.950 . S
H191 C203 0.950 . S
C192 H184 0.950 . S
C192 C193 1.386 . S
C192 C194 1.391 . S
C193 C192 1.386 . S
C193 C197 1.393 . S
C194 H186 0.950 . S
C194 C192 1.391 . S
C194 C195 1.400 . S
C195 C194 1.400 . S
C195 C196 1.398 . S
C195 C201 1.491 . S
C196 H187 0.950 . S
C196 C195 1.398 . S
C196 C197 1.391 . S
C197 H185 0.950 . S
C197 C193 1.393 . S
C197 C196 1.391 . S
C198 H188 0.950 . S
C198 C199 1.386 . S
C198 C200 1.391 . S
C199 C198 1.386 . S
C199 C203 1.393 . S
C200 H189 0.950 . S
C200 C198 1.391 . S
C200 C201 1.400 . S
C201 C195 1.491 . S
C201 C200 1.400 . S
C201 C202 1.398 . S
C202 H190 0.950 . S
C202 C201 1.398 . S
C202 C203 1.391 . S
C203 H191 0.950 . S
C203 C199 1.393 . S
C203 C202 1.391 . S
H204 C212 0.950 . S
H205 C217 0.950 . S
H206 C214 0.950 . S
H207 C216 0.950 . S
H208 C218 0.950 . S
H209 C220 0.950 . S
H210 C222 0.950 . S
H211 C223 0.950 . S
C212 H204 0.950 . S
C212 C213 1.386 . S
C212 C214 1.391 . S
C213 C212 1.386 . S
C213 C217 1.393 . S
C214 H206 0.950 . S
C214 C212 1.391 . S
C214 C215 1.400 . S
C215 C214 1.400 . S
C215 C216 1.398 . S
C215 C221 1.491 . S
C216 H207 0.950 . S
C216 C215 1.398 . S
C216 C217 1.391 . S
C217 H205 0.950 . S
C217 C213 1.393 . S
C217 C216 1.391 . S
C218 H208 0.950 . S
C218 C219 1.386 . S
C218 C220 1.391 . S
C219 C218 1.386 . S
C219 C223 1.393 . S
C220 H209 0.950 . S
C220 C218 1.391 . S
C220 C221 1.400 . S
C221 C215 1.491 . S
C221 C220 1.400 . S
C221 C222 1.398 . S
C222 H210 0.950 . S
C222 C221 1.398 . S
C222 C223 1.391 . S
C223 H211 0.950 . S
C223 C219 1.393 . S
C223 C222 1.391 . S
H224 C232 0.950 . S
H225 C237 0.950 . S
H226 C234 0.950 . S
H227 C236 0.950 . S
H228 C238 0.950 . S
H229 C240 0.950 . S
H230 C242 0.950 . S
H231 C243 0.950 . S
C232 H224 0.950 . S
C232 C233 1.386 . S
C232 C234 1.391 . S
C233 C232 1.386 . S
C233 C237 1.393 . S
C234 H226 0.950 . S
C234 C232 1.391 . S
C234 C235 1.400 . S
C235 C234 1.400 . S
C235 C236 1.398 . S
C235 C241 1.491 . S
C236 H227 0.950 . S
C236 C235 1.398 . S
C236 C237 1.391 . S
C237 H225 0.950 . S
C237 C233 1.393 . S
C237 C236 1.391 . S
C238 H228 0.950 . S
C238 C239 1.386 . S
C238 C240 1.391 . S
C239 C238 1.386 . S
C239 C243 1.393 . S
C240 H229 0.950 . S
C240 C238 1.391 . S
C240 C241 1.400 . S
C241 C235 1.491 . S
C241 C240 1.400 . S
C241 C242 1.398 . S
C242 H230 0.950 . S
C242 C241 1.398 . S
C242 C243 1.391 . S
C243 H231 0.950 . S
C243 C239 1.393 . S
C243 C242 1.391 . S
H244 C252 0.950 . S
H245 C257 0.950 . S
H246 C254 0.950 . S
H247 C256 0.950 . S
H248 C258 0.950 1_565 S
H249 C260 0.950 . S
H250 C262 0.950 . S
H251 C263 0.950 . S
C252 H244 0.950 . S
C252 C253 1.386 . S
C252 C254 1.391 . S
C253 C252 1.386 . S
C253 C257 1.393 . S
C254 H246 0.950 . S
C254 C252 1.391 . S
C254 C255 1.400 . S
C255 C254 1.400 . S
C255 C256 1.398 . S
C255 C261 1.491 . S
C256 H247 0.950 . S
C256 C255 1.398 . S
C256 C257 1.391 . S
C257 H245 0.950 . S
C257 C253 1.393 . S
C257 C256 1.391 . S
C258 H248 0.950 1_545 S
C258 C259 1.386 . S
C258 C260 1.391 . S
C259 C258 1.386 . S
C259 C263 1.393 . S
C260 H249 0.950 . S
C260 C258 1.391 . S
C260 C261 1.400 . S
C261 C255 1.491 . S
C261 C260 1.400 . S
C261 C262 1.398 . S
C262 H250 0.950 . S
C262 C261 1.398 . S
C262 C263 1.391 . S
C263 H251 0.950 . S
C263 C259 1.393 . S
C263 C262 1.391 . S
H264 C272 0.950 . S
H265 C277 0.950 . S
H266 C274 0.950 . S
H267 C276 0.950 . S
H268 C278 0.950 . S
H269 C280 0.950 . S
H270 C282 0.950 . S
H271 C283 0.950 1_455 S
C272 H264 0.950 . S
C272 C273 1.386 . S
C272 C274 1.391 . S
C273 C272 1.386 . S
C273 C277 1.393 . S
C274 H266 0.950 . S
C274 C272 1.391 . S
C274 C275 1.400 . S
C275 C274 1.400 . S
C275 C276 1.398 . S
C275 C281 1.491 . S
C276 H267 0.950 . S
C276 C275 1.398 . S
C276 C277 1.391 . S
C277 H265 0.950 . S
C277 C273 1.393 . S
C277 C276 1.391 . S
C278 H268 0.950 . S
C278 C279 1.386 . S
C278 C280 1.391 . S
C279 C278 1.386 . S
C279 C283 1.393 . S
C280 H269 0.950 . S
C280 C278 1.391 . S
C280 C281 1.400 . S
C281 C275 1.491 . S
C281 C280 1.400 . S
C281 C282 1.398 . S
C282 H270 0.950 . S
C282 C281 1.398 . S
C282 C283 1.391 . S
C283 H271 0.950 1_655 S
C283 C279 1.393 . S
C283 C282 1.391 . S
H284 C292 0.950 . S
H285 C297 0.950 . S
H286 C294 0.950 . S
H287 C296 0.950 . S
H288 C298 0.950 . S
H289 C300 0.950 . S
H290 C302 0.950 . S
H291 C303 0.950 . S
C292 H284 0.950 . S
C292 C293 1.386 . S
C292 C294 1.391 . S
C293 C292 1.386 . S
C293 C297 1.393 . S
C294 H286 0.950 . S
C294 C292 1.391 . S
C294 C295 1.400 . S
C295 C294 1.400 . S
C295 C296 1.398 . S
C295 C301 1.491 . S
C296 H287 0.950 . S
C296 C295 1.398 . S
C296 C297 1.391 . S
C297 H285 0.950 . S
C297 C293 1.393 . S
C297 C296 1.391 . S
C298 H288 0.950 . S
C298 C299 1.386 . S
C298 C300 1.391 . S
C299 C298 1.386 . S
C299 C303 1.393 . S
C300 H289 0.950 . S
C300 C298 1.391 . S
C300 C301 1.400 . S
C301 C295 1.491 . S
C301 C300 1.400 . S
C301 C302 1.398 . S
C302 H290 0.950 . S
C302 C301 1.398 . S
C302 C303 1.391 . S
C303 H291 0.950 . S
C303 C299 1.393 . S
C303 C302 1.391 . S
H304 C312 0.950 . S
H305 C317 0.950 . S
H306 C314 0.950 . S
H307 C316 0.950 . S
H308 C318 0.950 . S
H309 C320 0.950 . S
H310 C322 0.950 . S
H311 C323 0.950 . S
C312 H304 0.950 . S
C312 C313 1.386 . S
C312 C314 1.391 . S
C313 C312 1.386 . S
C313 C317 1.393 . S
C314 H306 0.950 . S
C314 C312 1.391 . S
C314 C315 1.400 . S
C315 C314 1.400 . S
C315 C316 1.398 . S
C315 C321 1.491 . S
C316 H307 0.950 . S
C316 C315 1.398 . S
C316 C317 1.391 . S
C317 H305 0.950 . S
C317 C313 1.393 . S
C317 C316 1.391 . S
C318 H308 0.950 . S
C318 C319 1.386 . S
C318 C320 1.391 . S
C319 C318 1.386 . S
C319 C323 1.393 . S
C320 H309 0.950 . S
C320 C318 1.391 . S
C320 C321 1.400 . S
C321 C315 1.491 . S
C321 C320 1.400 . S
C321 C322 1.398 . S
C322 H310 0.950 . S
C322 C321 1.398 . S
C322 C323 1.391 . S
C323 H311 0.950 . S
C323 C319 1.393 . S
C323 C322 1.391 . S
H324 C332 0.950 . S
H325 C337 0.950 . S
H326 C334 0.950 . S
H327 C336 0.950 . S
H328 C338 0.950 . S
H329 C340 0.950 . S
H330 C342 0.950 . S
H331 C343 0.950 . S
C332 H324 0.950 . S
C332 C333 1.386 . S
C332 C334 1.391 . S
C333 C332 1.386 . S
C333 C337 1.393 . S
C334 H326 0.950 . S
C334 C332 1.391 . S
C334 C335 1.400 . S
C335 C334 1.400 . S
C335 C336 1.398 . S
C335 C341 1.491 . S
C336 H327 0.950 . S
C336 C335 1.398 . S
C336 C337 1.391 . S
C337 H325 0.950 . S
C337 C333 1.393 . S
C337 C336 1.391 . S
C338 H328 0.950 . S
C338 C339 1.386 . S
C338 C340 1.391 . S
C339 C338 1.386 . S
C339 C343 1.393 . S
C340 H329 0.950 . S
C340 C338 1.391 . S
C340 C341 1.400 . S
C341 C335 1.491 . S
C341 C340 1.400 . S
C341 C342 1.398 . S
C342 H330 0.950 . S
C342 C341 1.398 . S
C342 C343 1.391 . S
C343 H331 0.950 . S
C343 C339 1.393 . S
C343 C342 1.391 . S
H344 C352 0.950 . S
H345 C357 0.950 . S
H346 C354 0.950 . S
H347 C356 0.950 . S
H348 C358 0.950 . S
H349 C360 0.950 . S
H350 C362 0.950 . S
H351 C363 0.950 . S
C352 H344 0.950 . S
C352 C353 1.386 . S
C352 C354 1.391 . S
C353 C352 1.386 . S
C353 C357 1.393 . S
C354 H346 0.950 . S
C354 C352 1.391 . S
C354 C355 1.400 . S
C355 C354 1.400 . S
C355 C356 1.398 1_655 S
C355 C361 1.491 1_655 S
C356 H347 0.950 . S
C356 C355 1.398 1_455 S
C356 C357 1.391 1_455 S
C357 H345 0.950 . S
C357 C353 1.393 . S
C357 C356 1.391 1_655 S
C358 H348 0.950 . S
C358 C359 1.386 . S
C358 C360 1.391 . S
C359 C358 1.386 . S
C359 C363 1.393 . S
C360 H349 0.950 . S
C360 C358 1.391 . S
C360 C361 1.400 . S
C361 C355 1.491 1_455 S
C361 C360 1.400 . S
C361 C362 1.398 1_455 S
C362 H350 0.950 . S
C362 C361 1.398 1_655 S
C362 C363 1.391 1_655 S
C363 H351 0.950 . S
C363 C359 1.393 . S
C363 C362 1.391 1_455 S
H364 C372 0.950 . S
H365 C377 0.950 . S
H366 C374 0.943 1_455 S
H367 C376 0.950 . S
H368 C378 0.950 . S
H369 C380 0.943 1_655 S
H370 C382 0.950 . S
H371 C383 0.950 . S
C372 H364 0.950 . S
C372 C373 1.386 . S
C372 C374 1.391 . S
C373 C372 1.386 . S
C373 C377 1.393 . S
C374 H366 0.943 1_655 S
C374 C372 1.391 . S
C374 C375 1.400 . S
C375 C374 1.400 . S
C375 C376 1.398 . S
C375 C381 1.491 1_655 S
C376 H367 0.950 . S
C376 C375 1.398 . S
C376 C377 1.391 . S
C377 H365 0.950 . S
C377 C373 1.393 . S
C377 C376 1.391 . S
C378 H368 0.950 . S
C378 C379 1.386 . S
C378 C380 1.391 . S
C379 C378 1.386 . S
C379 C383 1.393 . S
C380 H369 0.943 1_455 S
C380 C378 1.391 . S
C380 C381 1.400 . S
C381 C375 1.491 1_455 S
C381 C380 1.400 . S
C381 C382 1.398 . S
C382 H370 0.950 . S
C382 C381 1.398 . S
C382 C383 1.391 . S
C383 H371 0.950 . S
C383 C379 1.393 . S
C383 C382 1.391 . S
H384 C392 0.950 . S
H385 C397 0.950 . S
H386 C394 0.950 . S
H387 C396 0.950 1_565 S
H388 C398 0.950 . S
H389 C400 0.950 . S
H390 C402 0.950 1_545 S
H391 C403 0.950 . S
C392 H384 0.950 . S
C392 C393 1.386 . S
C392 C394 1.391 . S
C393 C392 1.386 . S
C393 C397 1.393 . S
C394 H386 0.950 . S
C394 C392 1.391 . S
C394 C395 1.400 . S
C395 C394 1.400 . S
C395 C396 1.398 . S
C395 C401 1.491 1_545 S
C396 H387 0.950 1_545 S
C396 C395 1.398 . S
C396 C397 1.391 . S
C397 H385 0.950 . S
C397 C393 1.393 . S
C397 C396 1.391 . S
C398 H388 0.950 . S
C398 C399 1.386 . S
C398 C400 1.391 . S
C399 C398 1.386 . S
C399 C403 1.393 . S
C400 H389 0.950 . S
C400 C398 1.391 . S
C400 C401 1.400 . S
C401 C395 1.491 1_565 S
C401 C400 1.400 . S
C401 C402 1.398 . S
C402 H390 0.950 1_565 S
C402 C401 1.398 . S
C402 C403 1.391 . S
C403 H391 0.950 . S
C403 C399 1.393 . S
C403 C402 1.391 . S
H404 C412 0.950 . S
H405 C417 0.950 . S
H406 C414 0.950 . S
H407 C416 0.950 . S
H408 C418 0.950 . S
H409 C420 0.950 . S
H410 C422 0.950 . S
H411 C423 0.950 . S
C412 H404 0.950 . S
C412 C413 1.386 . S
C412 C414 1.391 . S
C413 C412 1.386 . S
C413 C417 1.393 . S
C414 H406 0.950 . S
C414 C412 1.391 . S
C414 C415 1.400 . S
C415 C414 1.400 . S
C415 C416 1.398 1_545 S
C415 C421 1.491 1_545 S
C416 H407 0.950 . S
C416 C415 1.398 1_565 S
C416 C417 1.391 1_565 S
C417 H405 0.950 . S
C417 C413 1.393 . S
C417 C416 1.391 1_545 S
C418 H408 0.950 . S
C418 C419 1.386 . S
C418 C420 1.391 . S
C419 C418 1.386 . S
C419 C423 1.393 . S
C420 H409 0.950 . S
C420 C418 1.391 . S
C420 C421 1.400 . S
C421 C415 1.491 1_565 S
C421 C420 1.400 . S
C421 C422 1.398 1_565 S
C422 H410 0.950 . S
C422 C421 1.398 1_545 S
C422 C423 1.391 1_545 S
C423 H411 0.950 . S
C423 C419 1.393 . S
C423 C422 1.391 1_565 S
C113 C8 1.258 . S
C119 C73 1.273 . S
C133 C21 1.274 . S
C139 C86 1.259 . S
C153 C34 1.271 . S
C159 C99 1.278 . S
C173 C60 1.253 . S
C179 C47 1.267 . S
C193 C0 1.536 . S
C199 C62 1.530 . S
C213 C13 1.535 . S
C219 C75 1.527 1_565 S
C233 C88 1.520 . S
C239 C26 1.549 . S
C253 C39 1.540 . S
C259 C101 1.534 1_545 S
C273 C52 1.542 . S
C279 C10 1.514 1_655 S
C293 C23 1.514 . S
C299 C65 1.546 . S
C313 C78 1.550 . S
C319 C36 1.522 1_455 S
C333 C49 1.529 . S
C339 C91 1.547 . S
C353 C31 0.581 . S
C359 C5 0.569 . S
C373 C44 0.572 . S
C379 C18 0.562 . S
C393 C57 0.609 . S
C399 C83 0.620 . S
C413 C70 0.585 . S
C419 C96 0.573 . S
