# Generated by pormake.
# Topology neb, (4)-cn, num edge types: 1
# Building blocks:
#     Node 0, Type 0, BuildingBlock: AZAVOO_clean_sbu_0, # of connection points: 4
#     Node 1, Type 0, BuildingBlock: AZAVOO_clean_sbu_0, # of connection points: 4
#     Node 2, Type 0, BuildingBlock: AZAVOO_clean_sbu_0, # of connection points: 4
#     Node 3, Type 0, BuildingBlock: AZAVOO_clean_sbu_0, # of connection points: 4
#     Node 4, Type 0, BuildingBlock: AZAVOO_clean_sbu_0, # of connection points: 4
#     Node 5, Type 0, BuildingBlock: AZAVOO_clean_sbu_0, # of connection points: 4
#     Node 6, Type 0, BuildingBlock: AZAVOO_clean_sbu_0, # of connection points: 4
#     Node 7, Type 0, BuildingBlock: AZAVOO_clean_sbu_0, # of connection points: 4
#     Node 8, Type 0, BuildingBlock: AZAVOO_clean_sbu_0, # of connection points: 4
#     Node 9, Type 0, BuildingBlock: AZAVOO_clean_sbu_0, # of connection points: 4
#     Node 10, Type 0, BuildingBlock: AZAVOO_clean_sbu_0, # of connection points: 4
#     Node 11, Type 0, BuildingBlock: AZAVOO_clean_sbu_0, # of connection points: 4
#     Node 12, Type 0, BuildingBlock: AZAVOO_clean_sbu_0, # of connection points: 4
#     Node 13, Type 0, BuildingBlock: AZAVOO_clean_sbu_0, # of connection points: 4
#     Node 14, Type 0, BuildingBlock: AZAVOO_clean_sbu_0, # of connection points: 4
#     Node 15, Type 0, BuildingBlock: AZAVOO_clean_sbu_0, # of connection points: 4
#     Edge 16, Type (0, 0), BuildingBlock: KIFKEQ_clean_linker_1, # of connection points: 2
#     Edge 17, Type (0, 0), BuildingBlock: KIFKEQ_clean_linker_1, # of connection points: 2
#     Edge 18, Type (0, 0), BuildingBlock: KIFKEQ_clean_linker_1, # of connection points: 2
#     Edge 19, Type (0, 0), BuildingBlock: KIFKEQ_clean_linker_1, # of connection points: 2
#     Edge 20, Type (0, 0), BuildingBlock: KIFKEQ_clean_linker_1, # of connection points: 2
#     Edge 21, Type (0, 0), BuildingBlock: KIFKEQ_clean_linker_1, # of connection points: 2
#     Edge 22, Type (0, 0), BuildingBlock: KIFKEQ_clean_linker_1, # of connection points: 2
#     Edge 23, Type (0, 0), BuildingBlock: KIFKEQ_clean_linker_1, # of connection points: 2
#     Edge 24, Type (0, 0), BuildingBlock: KIFKEQ_clean_linker_1, # of connection points: 2
#     Edge 25, Type (0, 0), BuildingBlock: KIFKEQ_clean_linker_1, # of connection points: 2
#     Edge 26, Type (0, 0), BuildingBlock: KIFKEQ_clean_linker_1, # of connection points: 2
#     Edge 27, Type (0, 0), BuildingBlock: KIFKEQ_clean_linker_1, # of connection points: 2
#     Edge 28, Type (0, 0), BuildingBlock: KIFKEQ_clean_linker_1, # of connection points: 2
#     Edge 29, Type (0, 0), BuildingBlock: KIFKEQ_clean_linker_1, # of connection points: 2
#     Edge 30, Type (0, 0), BuildingBlock: KIFKEQ_clean_linker_1, # of connection points: 2
#     Edge 31, Type (0, 0), BuildingBlock: KIFKEQ_clean_linker_1, # of connection points: 2
#     Edge 32, Type (0, 0), BuildingBlock: KIFKEQ_clean_linker_1, # of connection points: 2
#     Edge 33, Type (0, 0), BuildingBlock: KIFKEQ_clean_linker_1, # of connection points: 2
#     Edge 34, Type (0, 0), BuildingBlock: KIFKEQ_clean_linker_1, # of connection points: 2
#     Edge 35, Type (0, 0), BuildingBlock: KIFKEQ_clean_linker_1, # of connection points: 2
#     Edge 36, Type (0, 0), BuildingBlock: KIFKEQ_clean_linker_1, # of connection points: 2
#     Edge 37, Type (0, 0), BuildingBlock: KIFKEQ_clean_linker_1, # of connection points: 2
#     Edge 38, Type (0, 0), BuildingBlock: KIFKEQ_clean_linker_1, # of connection points: 2
#     Edge 39, Type (0, 0), BuildingBlock: KIFKEQ_clean_linker_1, # of connection points: 2
#     Edge 40, Type (0, 0), BuildingBlock: KIFKEQ_clean_linker_1, # of connection points: 2
#     Edge 41, Type (0, 0), BuildingBlock: KIFKEQ_clean_linker_1, # of connection points: 2
#     Edge 42, Type (0, 0), BuildingBlock: KIFKEQ_clean_linker_1, # of connection points: 2
#     Edge 43, Type (0, 0), BuildingBlock: KIFKEQ_clean_linker_1, # of connection points: 2
#     Edge 44, Type (0, 0), BuildingBlock: KIFKEQ_clean_linker_1, # of connection points: 2
#     Edge 45, Type (0, 0), BuildingBlock: KIFKEQ_clean_linker_1, # of connection points: 2
#     Edge 46, Type (0, 0), BuildingBlock: KIFKEQ_clean_linker_1, # of connection points: 2
#     Edge 47, Type (0, 0), BuildingBlock: KIFKEQ_clean_linker_1, # of connection points: 2
# Relax obj value: 0.097
# Max RMSD: 0.145
# Mean RMSD: 0.145
data_MOF--net-neb--node1-AZAVOO_clean_sbu_0--edge1-KIFKEQ_clean_linker_1
_symmetry_space_group_name_H-M    P1
_symmetry_Int_Tables_number       1
_symmetry_cell_setting            triclinic
loop_
_symmetry_equiv_pos_as_xyz
'x, y, z'
_cell_length_a     49.882658
_cell_length_b     20.739991
_cell_length_c     73.814289
_cell_angle_alpha  98.205523
_cell_angle_beta   89.967652
_cell_angle_gamma 89.982352
loop_
_atom_site_label
_atom_site_type_symbol
_atom_site_fract_x
_atom_site_fract_y
_atom_site_fract_z
_atom_type_partial_charge
Mg0 Mg 0.10954 0.18355 0.44435 0.0
O1 O 0.12017 0.09687 0.42237 0.0
O2 O 0.14587 0.13422 0.40132 0.0
Mg3 Mg 0.15443 0.24219 0.41118 0.0
C4 C 0.13326 0.08814 0.40735 0.0
C5 C 0.06752 0.13988 0.46804 0.0
O6 O 0.06172 0.19997 0.46572 0.0
O7 O 0.15057 0.17892 0.45758 0.0
O8 O 0.17642 0.21846 0.43692 0.0
O9 O 0.07562 0.21033 0.42729 0.0
O10 O 0.11668 0.25037 0.42658 0.0
C11 C 0.1734 0.19685 0.45218 0.0
C12 C 0.09251 0.24762 0.42046 0.0
O13 O 0.08939 0.11518 0.46146 0.0
Mg14 Mg 0.10594 0.05474 0.79513 0.0
O15 O 0.11842 0.13761 0.81754 0.0
O16 O 0.14264 0.09539 0.83837 0.0
Mg17 Mg 0.14616 0.98519 0.82883 0.0
C18 C 0.13169 0.14403 0.83247 0.0
C19 C 0.07335 0.10589 0.76604 0.0
O20 O 0.06903 0.04275 0.76331 0.0
O21 O 0.14803 0.0506 0.78277 0.0
O22 O 0.1703 0.00168 0.80335 0.0
O23 O 0.06995 0.0358 0.81156 0.0
O24 O 0.10921 0.98643 0.81278 0.0
C25 C 0.16936 0.02509 0.78824 0.0
C26 C 0.08502 0.99508 0.81859 0.0
O27 O 0.09042 0.12867 0.77802 0.0
Mg28 Mg 0.89625 0.8032 0.54428 0.0
O29 O 0.88495 0.88556 0.56719 0.0
O30 O 0.86207 0.84293 0.58858 0.0
Mg31 Mg 0.85822 0.73292 0.57893 0.0
C32 C 0.87258 0.8917 0.58248 0.0
C33 C 0.92752 0.85517 0.51477 0.0
O34 O 0.9318 0.792 0.51187 0.0
O35 O 0.85345 0.79945 0.53314 0.0
O36 O 0.8325 0.75023 0.55425 0.0
O37 O 0.93322 0.78362 0.5596 0.0
O38 O 0.89412 0.7344 0.56181 0.0
C39 C 0.83249 0.77398 0.53918 0.0
C40 C 0.91863 0.74274 0.56694 0.0
O41 O 0.91074 0.87772 0.527 0.0
Mg42 Mg 0.89238 0.94573 0.19209 0.0
O43 O 0.88193 0.86055 0.16973 0.0
O44 O 0.85768 0.89993 0.14841 0.0
Mg45 Mg 0.85247 0.01006 0.15729 0.0
C46 C 0.86912 0.8525 0.1546 0.0
C47 C 0.93039 0.8993 0.21774 0.0
O48 O 0.93689 0.95948 0.21596 0.0
O49 O 0.84982 0.94673 0.20372 0.0
O50 O 0.8279 0.9933 0.1825 0.0
O51 O 0.92863 0.96813 0.17632 0.0
O52 O 0.8887 0.01305 0.17417 0.0
C53 C 0.82847 0.97075 0.19774 0.0
C54 C 0.9133 0.00758 0.16901 0.0
O55 O 0.90916 0.87538 0.20998 0.0
Mg56 Mg 0.11261 0.6849 0.94558 0.0
O57 O 0.123 0.60019 0.92306 0.0
O58 O 0.15011 0.63706 0.90281 0.0
Mg59 Mg 0.15757 0.74553 0.91284 0.0
C60 C 0.13685 0.59101 0.90837 0.0
C61 C 0.07499 0.63703 0.97284 0.0
O62 O 0.07124 0.70039 0.97541 0.0
O63 O 0.15377 0.67929 0.95865 0.0
O64 O 0.17963 0.72124 0.93844 0.0
O65 O 0.07852 0.71321 0.929 0.0
O66 O 0.11964 0.75302 0.92823 0.0
C67 C 0.17657 0.69822 0.95349 0.0
C68 C 0.09538 0.75082 0.92224 0.0
O69 O 0.09328 0.61331 0.96188 0.0
Mg70 Mg 0.10208 0.55507 0.293 0.0
O71 O 0.11536 0.63721 0.31549 0.0
O72 O 0.13955 0.59375 0.33618 0.0
Mg73 Mg 0.14503 0.48529 0.32518 0.0
C74 C 0.12842 0.64249 0.33048 0.0
C75 C 0.06744 0.60805 0.26507 0.0
O76 O 0.06355 0.54481 0.26174 0.0
O77 O 0.14318 0.55364 0.27955 0.0
O78 O 0.16796 0.5087 0.29975 0.0
O79 O 0.0675 0.53312 0.31022 0.0
O80 O 0.10724 0.48494 0.30992 0.0
C81 C 0.16552 0.53208 0.28471 0.0
C82 C 0.08335 0.492 0.31643 0.0
O83 O 0.08479 0.63012 0.27694 0.0
Mg84 Mg 0.89315 0.30985 0.0423 0.0
O85 O 0.8824 0.39526 0.06454 0.0
O86 O 0.85759 0.35616 0.08565 0.0
Mg87 Mg 0.85229 0.24609 0.07673 0.0
C88 C 0.86928 0.40346 0.07955 0.0
C89 C 0.93178 0.35438 0.01694 0.0
O90 O 0.93747 0.29372 0.01872 0.0
O91 O 0.8509 0.3094 0.03022 0.0
O92 O 0.82841 0.26307 0.05124 0.0
O93 O 0.92898 0.28733 0.05842 0.0
O94 O 0.88894 0.24267 0.06026 0.0
C95 C 0.82938 0.28557 0.036 0.0
C96 C 0.91343 0.2481 0.06564 0.0
O97 O 0.91065 0.37967 0.02454 0.0
Mg98 Mg 0.89275 0.43636 0.69464 0.0
O99 O 0.88228 0.34925 0.67279 0.0
O100 O 0.85497 0.38476 0.65241 0.0
Mg101 Mg 0.84731 0.49356 0.66157 0.0
C102 C 0.86828 0.33917 0.65818 0.0
C103 C 0.93511 0.39248 0.71814 0.0
O104 O 0.94133 0.45198 0.71548 0.0
O105 O 0.85173 0.43204 0.7081 0.0
O106 O 0.82571 0.47176 0.68757 0.0
O107 O 0.92654 0.46297 0.67746 0.0
O108 O 0.88536 0.5022 0.67666 0.0
C109 C 0.82888 0.45038 0.70285 0.0
C110 C 0.90954 0.49967 0.67052 0.0
O111 O 0.91297 0.36852 0.71186 0.0
Mg112 Mg 0.60682 0.19211 0.94339 0.0
O113 O 0.61763 0.10574 0.92138 0.0
O114 O 0.64282 0.14354 0.90016 0.0
Mg115 Mg 0.65078 0.2519 0.9099 0.0
C116 C 0.63056 0.09717 0.9063 0.0
C117 C 0.56551 0.14681 0.96731 0.0
O118 O 0.55912 0.20654 0.96497 0.0
O119 O 0.64812 0.18894 0.95633 0.0
O120 O 0.67343 0.22916 0.93549 0.0
O121 O 0.57244 0.21789 0.92656 0.0
O122 O 0.61328 0.25906 0.92561 0.0
C123 C 0.67075 0.20756 0.95079 0.0
C124 C 0.58901 0.2558 0.91968 0.0
O125 O 0.58748 0.1231 0.96064 0.0
Mg126 Mg 0.60681 0.06133 0.29186 0.0
O127 O 0.61705 0.14382 0.31513 0.0
O128 O 0.64477 0.10483 0.33465 0.0
Mg129 Mg 0.65315 -0.0021 0.32339 0.0
C130 C 0.63104 0.15134 0.32976 0.0
C131 C 0.5685 0.11123 0.2653 0.0
O132 O 0.56537 0.04773 0.26198 0.0
O133 O 0.64775 0.07033 0.27851 0.0
O134 O 0.6742 0.02691 0.29812 0.0
O135 O 0.57353 0.0277 0.30859 0.0
O136 O 0.61528 0.9915 0.30812 0.0
C137 C 0.67077 0.05165 0.28339 0.0
C138 C 0.59138 0.99054 0.31454 0.0
O139 O 0.58642 0.13449 0.27659 0.0
Mg140 Mg 0.39801 0.80397 0.04508 0.0
O141 O 0.38523 0.88615 0.06762 0.0
O142 O 0.3633 0.84237 0.08929 0.0
Mg143 Mg 0.35965 0.73241 0.0793 0.0
C144 C 0.37307 0.89151 0.08297 0.0
C145 C 0.429 0.85678 0.01554 0.0
O146 O 0.43342 0.79369 0.01249 0.0
O147 O 0.35567 0.79844 0.03336 0.0
O148 O 0.33428 0.7494 0.05431 0.0
O149 O 0.43467 0.78602 0.06102 0.0
O150 O 0.39589 0.7349 0.06259 0.0
C151 C 0.3346 0.77286 0.03919 0.0
C152 C 0.42022 0.74411 0.06806 0.0
O153 O 0.41238 0.87887 0.02792 0.0
Mg154 Mg 0.39128 0.93883 0.69433 0.0
O155 O 0.38065 0.85443 0.6718 0.0
O156 O 0.35383 0.89195 0.65152 0.0
Mg157 Mg 0.34686 0.0007 0.66153 0.0
C158 C 0.36683 0.84556 0.65711 0.0
C159 C 0.42825 0.8899 0.7218 0.0
O160 O 0.43208 0.95322 0.72456 0.0
O161 O 0.34997 0.9343 0.70729 0.0
O162 O 0.32442 0.97696 0.68705 0.0
O163 O 0.42562 0.96626 0.67782 0.0
O164 O 0.38468 0.00723 0.67703 0.0
C165 C 0.32728 0.95381 0.7021 0.0
C166 C 0.40897 0.00445 0.6711 0.0
O167 O 0.41015 0.86666 0.71065 0.0
Mg168 Mg 0.60987 0.68842 0.44597 0.0
O169 O 0.61938 0.60192 0.42355 0.0
O170 O 0.64764 0.63722 0.40366 0.0
Mg171 Mg 0.65709 0.74436 0.41363 0.0
C172 C 0.63348 0.59216 0.40895 0.0
C173 C 0.56592 0.64488 0.46848 0.0
O174 O 0.56004 0.7047 0.46593 0.0
O175 O 0.65056 0.6789 0.45957 0.0
O176 O 0.67751 0.71797 0.43942 0.0
O177 O 0.57697 0.7208 0.42877 0.0
O178 O 0.61898 0.75459 0.42856 0.0
C179 C 0.67377 0.69557 0.45449 0.0
C180 C 0.59506 0.75552 0.42213 0.0
O181 O 0.58818 0.62071 0.4625 0.0
Mg182 Mg 0.60624 0.55773 0.79292 0.0
O183 O 0.6174 0.64225 0.81533 0.0
O184 O 0.63936 0.60038 0.83734 0.0
Mg185 Mg 0.64492 0.49076 0.82785 0.0
C186 C 0.6291 0.64863 0.83086 0.0
C187 C 0.56932 0.60385 0.7669 0.0
O188 O 0.56336 0.54311 0.7684 0.0
O189 O 0.64881 0.55517 0.78151 0.0
O190 O 0.67025 0.50866 0.80295 0.0
O191 O 0.56963 0.53768 0.80865 0.0
O192 O 0.60902 0.48992 0.81081 0.0
C193 C 0.67002 0.53129 0.78771 0.0
C194 C 0.58449 0.49741 0.816 0.0
O195 O 0.59014 0.62871 0.77501 0.0
Mg196 Mg 0.39453 0.30724 0.5443 0.0
O197 O 0.3825 0.39043 0.56674 0.0
O198 O 0.35874 0.34887 0.58791 0.0
Mg199 Mg 0.35519 0.23851 0.57856 0.0
C200 C 0.36955 0.39728 0.58181 0.0
C201 C 0.42642 0.35834 0.51486 0.0
O202 O 0.43082 0.29522 0.51211 0.0
O203 O 0.3522 0.3027 0.53238 0.0
O204 O 0.33046 0.25411 0.55327 0.0
O205 O 0.43093 0.28852 0.56034 0.0
O206 O 0.39176 0.23915 0.56204 0.0
C207 C 0.33104 0.27714 0.5381 0.0
C208 C 0.4161 0.24773 0.56754 0.0
O209 O 0.4095 0.38101 0.52698 0.0
Mg210 Mg 0.38836 0.43856 0.19404 0.0
O211 O 0.37878 0.35192 0.17194 0.0
O212 O 0.35524 0.38943 0.14989 0.0
Mg213 Mg 0.34786 0.49881 0.15883 0.0
C214 C 0.36673 0.34303 0.15653 0.0
C215 C 0.42694 0.39528 0.21991 0.0
O216 O 0.43286 0.45574 0.21805 0.0
O217 O 0.34592 0.43627 0.20548 0.0
O218 O 0.32334 0.48 0.184 0.0
O219 O 0.42437 0.46348 0.17839 0.0
O220 O 0.38395 0.50509 0.17585 0.0
C221 C 0.32423 0.45794 0.19932 0.0
C222 C 0.40866 0.50154 0.17085 0.0
O223 O 0.40594 0.37003 0.21215 0.0
H224 H 0.28719 0.20208 0.54223 0.0
H225 H 0.32074 0.33001 0.50674 0.0
H226 H 0.24982 0.17785 0.52143 0.0
H227 H 0.28253 0.30784 0.48619 0.0
H228 H 0.2264 0.20509 0.44355 0.0
H229 H 0.26412 0.22428 0.46452 0.0
H230 H 0.21038 0.21996 0.51031 0.0
H231 H 0.17289 0.19811 0.48927 0.0
C232 C 0.28639 0.22601 0.53013 0.0
C233 C 0.30705 0.26803 0.52616 0.0
C234 C 0.26482 0.21218 0.51819 0.0
C235 C 0.26312 0.24056 0.50205 0.0
C236 C 0.28344 0.28396 0.4983 0.0
C237 C 0.30524 0.29726 0.51017 0.0
C238 C 0.22271 0.20736 0.45809 0.0
C239 C 0.19664 0.20008 0.46474 0.0
C240 C 0.24431 0.21913 0.47014 0.0
C241 C 0.24032 0.22467 0.48916 0.0
C242 C 0.21432 0.2154 0.49576 0.0
C243 C 0.19276 0.20282 0.48368 0.0
H244 H 0.93346 0.98654 0.52445 0.0
H245 H 0.9628 0.82325 0.48669 0.0
H246 H 0.96767 0.05592 0.51383 0.0
H247 H 0.99647 0.89317 0.47561 0.0
H248 H 0.07234 0.0142 0.47513 0.0
H249 H 0.03743 0.94678 0.48603 0.0
H250 H 0.98167 0.10748 0.48867 0.0
H251 H 0.01667 0.1752 0.47847 0.0
C252 C 0.94686 0.96577 0.51361 0.0
C253 C 0.9455 0.89935 0.50646 0.0
C254 C 0.9665 0.00557 0.50751 0.0
C255 C 0.98504 0.97995 0.49401 0.0
C256 C 0.98293 0.9141 0.48634 0.0
C257 C 0.96343 0.87419 0.49255 0.0
C258 C 0.0527 0.03521 0.47823 0.0
C259 C 0.04729 0.09999 0.47595 0.0
C260 C 0.03261 0.99644 0.4843 0.0
C261 C 0.00666 0.02155 0.48808 0.0
C262 C 0.00147 0.08673 0.48609 0.0
C263 C 0.02157 0.12554 0.48017 0.0
H264 H 0.27436 0.96371 0.6935 0.0
H265 H 0.3276 0.95168 0.73904 0.0
H266 H 0.23651 0.98061 0.71445 0.0
H267 H 0.28998 0.97132 0.7601 0.0
H268 H 0.21318 0.94911 0.79159 0.0
H269 H 0.25061 0.92737 0.77068 0.0
H270 H 0.2177 0.06144 0.73673 0.0
H271 H 0.17943 0.08109 0.75737 0.0
C272 C 0.27796 0.96446 0.708 0.0
C273 C 0.30399 0.95633 0.7146 0.0
C274 C 0.25629 0.97489 0.72005 0.0
C275 C 0.26015 0.97825 0.73903 0.0
C276 C 0.28613 0.96836 0.74557 0.0
C277 C 0.30776 0.95708 0.73349 0.0
C278 C 0.21395 0.97443 0.77974 0.0
C279 C 0.19323 0.01692 0.77617 0.0
C280 C 0.23555 0.96204 0.76774 0.0
C281 C 0.23724 0.9924 0.75194 0.0
C282 C 0.21682 0.03611 0.74857 0.0
C283 C 0.19498 0.04793 0.76049 0.0
H284 H 0.06818 0.23771 0.77507 0.0
H285 H 0.03744 0.07326 0.73841 0.0
H286 H 0.03438 0.30751 0.76416 0.0
H287 H 0.00418 0.14354 0.72704 0.0
H288 H 0.9293 0.26808 0.72606 0.0
H289 H 0.96369 0.2 0.73729 0.0
H290 H 0.02081 0.35729 0.73855 0.0
H291 H 0.98635 0.42574 0.72802 0.0
C292 C 0.05453 0.21672 0.76442 0.0
C293 C 0.0554 0.14992 0.75765 0.0
C294 C 0.03514 0.25676 0.75815 0.0
C295 C 0.01636 0.231 0.74485 0.0
C296 C 0.01793 0.16464 0.73759 0.0
C297 C 0.03718 0.12451 0.74397 0.0
C298 C 0.94913 0.28822 0.72892 0.0
C299 C 0.95508 0.35227 0.72617 0.0
C300 C 0.96892 0.24905 0.73518 0.0
C301 C 0.99509 0.27302 0.73868 0.0
C302 C 0.00083 0.33747 0.7362 0.0
C303 C 0.98104 0.37669 0.73009 0.0
H304 H 0.78783 0.70319 0.54468 0.0
H305 H 0.8218 0.82458 0.50753 0.0
H306 H 0.74979 0.67905 0.5244 0.0
H307 H 0.78305 0.80232 0.48752 0.0
H308 H 0.72685 0.69618 0.44587 0.0
H309 H 0.76456 0.71537 0.46679 0.0
H310 H 0.71038 0.72184 0.51276 0.0
H311 H 0.67273 0.70027 0.49173 0.0
C312 C 0.787 0.7257 0.53232 0.0
C313 C 0.80801 0.76568 0.52771 0.0
C314 C 0.76506 0.71191 0.5207 0.0
C315 C 0.76339 0.73819 0.50422 0.0
C316 C 0.78396 0.77997 0.4999 0.0
C317 C 0.80608 0.79332 0.51146 0.0
C318 C 0.72304 0.70073 0.46045 0.0
C319 C 0.69679 0.69684 0.46715 0.0
C320 C 0.74463 0.71253 0.47246 0.0
C321 C 0.74051 0.72143 0.49149 0.0
C322 C 0.71436 0.71489 0.49819 0.0
C323 C 0.69274 0.70236 0.48614 0.0
H324 H 0.66964 0.04819 0.24624 0.0
H325 H 0.72385 0.04925 0.29189 0.0
H326 H 0.70707 0.02567 0.22508 0.0
H327 H 0.76144 0.02943 0.27083 0.0
H328 H 0.8184 0.92074 0.22961 0.0
H329 H 0.77997 0.94359 0.24996 0.0
H330 H 0.74623 0.06674 0.21322 0.0
H331 H 0.7838 0.04176 0.19262 0.0
C332 C 0.68966 0.04535 0.25176 0.0
C333 C 0.69378 0.05029 0.27072 0.0
C334 C 0.71116 0.03227 0.23963 0.0
C335 C 0.73731 0.02472 0.24622 0.0
C336 C 0.74152 0.03304 0.26524 0.0
C337 C 0.72001 0.04527 0.27733 0.0
C338 C 0.80261 0.95205 0.2258 0.0
C339 C 0.80424 0.97931 0.20947 0.0
C340 C 0.78069 0.96577 0.23755 0.0
C341 C 0.76006 0.00767 0.23336 0.0
C342 C 0.7615 0.03371 0.21684 0.0
C343 C 0.78319 0.01943 0.20501 0.0
H344 H 0.98048 0.93265 0.23019 0.0
H345 H 0.92397 0.77309 0.22411 0.0
H346 H 0.01418 0.86305 0.24098 0.0
H347 H 0.95756 0.70368 0.2357 0.0
H348 H 0.03198 0.57805 0.23703 0.0
H349 H 0.99854 0.64926 0.22623 0.0
H350 H 0.0267 0.80898 0.26573 0.0
H351 H 0.06074 0.73845 0.27599 0.0
C352 C 0.97508 0.88291 0.23145 0.0
C353 C 0.94955 0.85831 0.22623 0.0
C354 C 0.99444 0.84299 0.23773 0.0
C355 C 0.98868 0.7776 0.23913 0.0
C356 C 0.96284 0.75348 0.23444 0.0
C357 C 0.9435 0.79338 0.22798 0.0
C358 C 0.0312 0.62859 0.24325 0.0
C359 C 0.04902 0.65267 0.25733 0.0
C360 C 0.01183 0.66923 0.23721 0.0
C361 C 0.0097 0.73472 0.24524 0.0
C362 C 0.02792 0.75903 0.25909 0.0
C363 C 0.04746 0.71856 0.26499 0.0
H364 H 0.2908 0.69732 0.04323 0.0
H365 H 0.32382 0.82803 0.00834 0.0
H366 H 0.25316 0.6744 0.02252 0.0
H367 H 0.28544 0.80713 0.98794 0.0
H368 H 0.22956 0.70673 0.94496 0.0
H369 H 0.26726 0.72432 0.96597 0.0
H370 H 0.21351 0.71709 0.01161 0.0
H371 H 0.17599 0.69686 0.99049 0.0
C372 C 0.28982 0.72211 0.03129 0.0
C373 C 0.31042 0.76447 0.02744 0.0
C374 C 0.26811 0.70902 0.01941 0.0
C375 C 0.26626 0.73849 0.00345 0.0
C376 C 0.28648 0.78235 -0.00013 0.0
C377 C 0.30839 0.79491 0.01167 0.0
C378 C 0.22585 0.70805 0.95947 0.0
C379 C 0.19977 0.70049 0.96605 0.0
C380 C 0.24744 0.71888 0.97155 0.0
C381 C 0.24344 0.72322 0.99054 0.0
C382 C 0.21744 0.71353 -0.00292 0.0
C383 C 0.19587 0.70189 0.98495 0.0
H384 H 0.06757 0.50692 0.96206 0.0
H385 H 0.03777 0.67009 -0.00036 0.0
H386 H 0.03198 0.43873 0.97141 0.0
H387 H 0.00276 0.60112 0.00961 0.0
H388 H 0.92701 0.48072 0.01028 0.0
H389 H 0.96197 0.54825 -0.00057 0.0
H390 H 0.01718 0.38609 -0.00429 0.0
H391 H 0.98215 0.3184 0.00569 0.0
C392 C 0.05372 0.52789 0.97259 0.0
C393 C 0.05546 0.59386 0.98013 0.0
C394 C 0.03328 0.48876 0.97797 0.0
C395 C 0.01435 0.51446 0.9912 0.0
C396 C 0.01661 0.58007 -0.0009 0.0
C397 C 0.03687 0.61943 0.99355 0.0
C398 C 0.94653 0.45943 0.00689 0.0
C399 C 0.95179 0.39427 0.00883 0.0
C400 C 0.96666 0.49825 0.00086 0.0
C401 C 0.9925 0.4728 -0.00318 0.0
C402 C 0.99747 0.40719 -0.00157 0.0
C403 C 0.97734 0.36834 0.00424 0.0
H404 H 0.27955 0.52985 0.19503 0.0
H405 H 0.31405 0.40224 0.23023 0.0
H406 H 0.24179 0.55103 0.21564 0.0
H407 H 0.27539 0.42101 0.25054 0.0
H408 H 0.21835 0.52075 0.29334 0.0
H409 H 0.25615 0.50167 0.2724 0.0
H410 H 0.20268 0.50861 0.22661 0.0
H411 H 0.16518 0.53075 0.24766 0.0
C412 C 0.27884 0.50519 0.20701 0.0
C413 C 0.29992 0.46436 0.21098 0.0
C414 C 0.25704 0.51725 0.21885 0.0
C415 C 0.25547 0.48807 0.23486 0.0
C416 C 0.27616 0.44554 0.23855 0.0
C417 C 0.29823 0.43417 0.22681 0.0
C418 C 0.21476 0.51899 0.2788 0.0
C419 C 0.18879 0.52745 0.27216 0.0
C420 C 0.2364 0.50726 0.26676 0.0
C421 C 0.23253 0.50274 0.24774 0.0
C422 C 0.20657 0.51254 0.24115 0.0
C423 C 0.185 0.52526 0.25323 0.0
H424 H 0.67068 0.21047 0.9879 0.0
H425 H 0.72365 0.21591 0.94182 0.0
H426 H 0.70838 0.2327 0.00871 0.0
H427 H 0.76164 0.23526 0.96257 0.0
H428 H 0.81951 0.33828 0.00451 0.0
H429 H 0.78103 0.31754 0.98409 0.0
H430 H 0.74748 0.18982 0.01966 0.0
H431 H 0.785 0.21279 0.04032 0.0
C432 C 0.69049 0.21492 0.98219 0.0
C433 C 0.69415 0.21151 0.96321 0.0
C434 C 0.71218 0.22771 -0.00587 0.0
C435 C 0.73813 0.2364 0.98737 0.0
C436 C 0.74189 0.2305 0.96832 0.0
C437 C 0.72014 0.21862 0.95639 0.0
C438 C 0.80374 0.30639 0.00804 0.0
C439 C 0.80535 0.27747 0.02409 0.0
C440 C 0.78179 0.2939 -0.00376 0.0
C441 C 0.76113 0.25159 0.00013 0.0
C442 C 0.76269 0.22344 0.01631 0.0
C443 C 0.78437 0.23654 0.02818 0.0
H444 H 0.71462 0.46 0.79295 0.0
H445 H 0.68067 0.5828 0.7562 0.0
H446 H 0.75258 0.43614 0.77259 0.0
H447 H 0.71941 0.56103 0.7361 0.0
H448 H 0.77588 0.45579 0.69419 0.0
H449 H 0.73813 0.47587 0.7151 0.0
H450 H 0.79195 0.47802 0.76108 0.0
H451 H 0.82956 0.45527 0.74008 0.0
C452 C 0.71546 0.48295 0.78067 0.0
C453 C 0.69448 0.52323 0.77619 0.0
C454 C 0.73737 0.46932 0.76899 0.0
C455 C 0.73906 0.49617 0.75259 0.0
C456 C 0.7185 0.53823 0.7484 0.0
C457 C 0.6964 0.55132 0.76002 0.0
C458 C 0.77959 0.4597 0.70877 0.0
C459 C 0.80572 0.45399 0.71548 0.0
C460 C 0.75797 0.472 0.72078 0.0
C461 C 0.76197 0.4797 0.73982 0.0
C462 C 0.78803 0.47189 0.74651 0.0
C463 C 0.80964 0.45876 0.73447 0.0
H464 H 0.57163 0.02166 0.97456 0.0
H465 H 0.51452 0.17974 0.97802 0.0
H466 H 0.53758 0.9528 0.98584 0.0
H467 H 0.48038 0.11055 0.9886 0.0
H468 H 0.43415 0.98838 0.02505 0.0
H469 H 0.46752 0.05902 0.01405 0.0
H470 H 0.49687 0.897 0.9758 0.0
H471 H 0.46403 0.82584 0.98726 0.0
C472 C 0.55186 0.04172 0.97777 0.0
C473 C 0.54579 0.10611 0.97541 0.0
C474 C 0.53226 0.00212 0.98405 0.0
C475 C 0.50616 0.02599 0.98798 0.0
C476 C 0.50032 0.09078 0.98591 0.0
C477 C 0.51992 0.13042 0.97977 0.0
C478 C 0.4475 0.96801 0.01414 0.0
C479 C 0.44654 0.90147 0.00708 0.0
C480 C 0.46665 0.00854 0.00781 0.0
C481 C 0.48509 0.98353 -0.00583 0.0
C482 C 0.48339 0.91749 0.98661 0.0
C483 C 0.46437 0.87686 0.99304 0.0
H484 H 0.42167 0.2691 0.22654 0.0
H485 H 0.47695 0.43115 0.23202 0.0
H486 H 0.45609 0.20133 0.23789 0.0
H487 H 0.51148 0.36319 0.24256 0.0
H488 H 0.56056 0.24091 0.27662 0.0
H489 H 0.52528 0.30964 0.26707 0.0
H490 H 0.49718 0.14868 0.22796 0.0
H491 H 0.53186 0.07922 0.23809 0.0
C492 C 0.4411 0.29029 0.23024 0.0
C493 C 0.44658 0.35542 0.22837 0.0
C494 C 0.46092 0.25134 0.23656 0.0
C495 C 0.48666 0.27661 0.24099 0.0
C496 C 0.49183 0.34224 0.23951 0.0
C497 C 0.47199 0.38123 0.23338 0.0
C498 C 0.54699 0.22035 0.26588 0.0
C499 C 0.54898 0.15466 0.2581 0.0
C500 C 0.52675 0.25979 0.26038 0.0
C501 C 0.50824 0.23464 0.24682 0.0
C502 C 0.5107 0.16928 0.23872 0.0
C503 C 0.53077 0.12964 0.24437 0.0
H504 H 0.43586 0.76011 0.7106 0.0
H505 H 0.46477 0.92161 0.74911 0.0
H506 H 0.47107 0.6912 0.72009 0.0
H507 H 0.49936 0.85186 0.75924 0.0
H508 H 0.57471 0.73063 0.76074 0.0
H509 H 0.54036 0.79904 0.74955 0.0
H510 H 0.48494 0.63715 0.74428 0.0
H511 H 0.5194 0.56862 0.75458 0.0
C512 C 0.44943 0.78055 0.72136 0.0
C513 C 0.44754 0.84626 0.72913 0.0
C514 C 0.46964 0.741 0.72683 0.0
C515 C 0.48821 0.76599 0.74038 0.0
C516 C 0.48581 0.83135 0.74849 0.0
C517 C 0.46578 0.87115 0.74285 0.0
C518 C 0.55529 0.7096 0.75693 0.0
C519 C 0.54979 0.64428 0.75854 0.0
C520 C 0.5355 0.74892 0.75071 0.0
C521 C 0.50976 0.7238 0.74615 0.0
C522 C 0.50458 0.65802 0.74741 0.0
C523 C 0.52439 0.61869 0.75341 0.0
H524 H 0.46233 0.32604 0.48719 0.0
H525 H 0.43143 0.49015 0.52395 0.0
H526 H 0.49574 0.3964 0.47601 0.0
H527 H 0.46536 0.56001 0.51322 0.0
H528 H 0.51446 0.67859 0.47775 0.0
H529 H 0.4795 0.61023 0.48775 0.0
H530 H 0.53619 0.45207 0.4868 0.0
H531 H 0.57108 0.52005 0.47613 0.0
C532 C 0.46256 0.37723 0.4928 0.0
C533 C 0.44429 0.40251 0.50648 0.0
C534 C 0.48189 0.41741 0.48653 0.0
C535 C 0.48348 0.48365 0.4939 0.0
C536 C 0.46458 0.50935 0.50714 0.0
C537 C 0.44512 0.46926 0.51331 0.0
C538 C 0.51955 0.62935 0.47977 0.0
C539 C 0.54554 0.60466 0.47611 0.0
C540 C 0.49948 0.59019 0.48557 0.0
C541 C 0.50498 0.52555 0.48798 0.0
C542 C 0.53116 0.50128 0.48472 0.0
C543 C 0.55122 0.54039 0.47879 0.0
H544 H 0.14122 0.75808 0.31937 0.0
H545 H 0.11937 0.6719 0.36703 0.0
H546 H 0.14439 0.86447 0.33794 0.0
H547 H 0.11976 0.77874 0.38553 0.0
H548 H 0.14084 0.97072 0.41908 0.0
H549 H 0.14177 0.86354 0.40071 0.0
H550 H 0.12358 0.95217 0.35241 0.0
H551 H 0.12543 0.05905 0.37072 0.0
C552 C 0.13674 0.76239 0.33386 0.0
C553 C 0.13018 0.70703 0.34182 0.0
C554 C 0.13823 0.82366 0.34458 0.0
C555 C 0.13215 0.83162 0.36346 0.0
C556 C 0.12529 0.77551 0.37126 0.0
C557 C 0.12478 0.71395 0.36063 0.0
C558 C 0.13726 0.96681 0.40449 0.0
C559 C 0.13322 0.02293 0.39627 0.0
C560 C 0.13748 0.90516 0.39388 0.0
C561 C 0.13267 0.89784 0.37483 0.0
C562 C 0.12816 0.95474 0.36681 0.0
C563 C 0.12892 0.01641 0.37734 0.0
H564 H 0.11384 0.36181 0.41408 0.0
H565 H 0.05365 0.21904 0.39445 0.0
H566 H 0.10285 0.42378 0.38935 0.0
H567 H 0.04332 0.28047 0.36916 0.0
H568 H 0.08848 0.36334 0.31671 0.0
H569 H 0.08273 0.30459 0.34291 0.0
H570 H 0.05668 0.48222 0.37593 0.0
H571 H 0.06143 0.54074 0.34934 0.0
C572 C 0.09815 0.34398 0.40451 0.0
C573 C 0.08472 0.28554 0.40599 0.0
C574 C 0.09168 0.37977 0.39055 0.0
C575 C 0.07209 0.35695 0.37762 0.0
C576 C 0.05827 0.29908 0.3792 0.0
C577 C 0.06426 0.26401 0.39352 0.0
C578 C 0.0807 0.38918 0.32943 0.0
C579 C 0.07535 0.45612 0.3312 0.0
C580 C 0.07727 0.35565 0.34431 0.0
C581 C 0.06916 0.38912 0.36126 0.0
C582 C 0.06267 0.45561 0.36285 0.0
C583 C 0.06537 0.48887 0.34775 0.0
H584 H 0.14893 0.17506 0.86792 0.0
H585 H 0.11912 0.26197 0.82203 0.0
H586 H 0.15107 0.28273 0.88624 0.0
H587 H 0.1213 0.36943 0.84039 0.0
H588 H 0.1558 0.55639 0.87345 0.0
H589 H 0.15556 0.44857 0.85516 0.0
H590 H 0.11849 0.36856 0.89989 0.0
H591 H 0.11869 0.47622 0.91824 0.0
C592 C 0.14295 0.21706 0.8617 0.0
C593 C 0.13383 0.2097 0.84348 0.0
C594 C 0.14403 0.27872 0.87224 0.0
C595 C 0.13632 0.33459 0.86477 0.0
C596 C 0.12759 0.32741 0.84649 0.0
C597 C 0.12622 0.26571 0.836 0.0
C598 C 0.14767 0.51584 0.87943 0.0
C599 C 0.13724 0.52515 0.89734 0.0
C600 C 0.14741 0.45411 0.8689 0.0
C601 C 0.137 0.40005 0.87607 0.0
C602 C 0.12688 0.40912 0.89403 0.0
C603 C 0.12686 0.47096 0.9045 0.0
H604 H 0.05418 0.72779 0.89773 0.0
H605 H 0.11863 0.86183 0.91486 0.0
H606 H 0.04308 0.79097 0.87299 0.0
H607 H 0.1071 0.92534 0.89062 0.0
H608 H 0.06956 0.04985 0.8526 0.0
H609 H 0.06503 0.99262 0.87942 0.0
H610 H 0.07641 0.80856 0.84478 0.0
H611 H 0.08175 0.86582 0.81825 0.0
C612 C 0.06565 0.77117 0.89636 0.0
C613 C 0.08743 0.78969 0.90799 0.0
C614 C 0.05924 0.80726 0.88234 0.0
C615 C 0.07406 0.86318 0.88016 0.0
C616 C 0.09512 0.88297 0.89226 0.0
C617 C 0.10191 0.84621 0.90594 0.0
C618 C 0.07015 -0.00291 0.85075 0.0
C619 C 0.07589 0.96174 0.83358 0.0
C620 C 0.06764 0.96453 0.86599 0.0
C621 C 0.0703 0.89641 0.86402 0.0
C622 C 0.07393 0.861 0.84655 0.0
C623 C 0.07708 0.89359 0.83145 0.0
H624 H 0.84849 0.30314 0.6236 0.0
H625 H 0.88723 0.22501 0.66812 0.0
H626 H 0.84873 0.19514 0.60552 0.0
H627 H 0.88745 0.11694 0.64994 0.0
H628 H 0.85686 0.92232 0.61831 0.0
H629 H 0.85511 0.0299 0.63672 0.0
H630 H 0.88287 0.11705 0.59039 0.0
H631 H 0.88461 0.00975 0.57195 0.0
C632 C 0.85698 0.26298 0.62958 0.0
C633 C 0.86787 0.27296 0.64735 0.0
C634 C 0.85725 0.20112 0.61915 0.0
C635 C 0.86815 0.14751 0.62627 0.0
C636 C 0.8787 0.15717 0.64412 0.0
C637 C 0.8787 0.21922 0.6545 0.0
C638 C 0.8625 0.96439 0.61201 0.0
C639 C 0.87087 0.95723 0.59362 0.0
C640 C 0.86165 0.026 0.62261 0.0
C641 C 0.86886 0.08198 0.61502 0.0
C642 C 0.87695 0.07494 0.59659 0.0
C643 C 0.87808 0.01333 0.58605 0.0
H644 H 0.9507 0.47581 0.64596 0.0
H645 H 0.88603 0.60984 0.66275 0.0
H646 H 0.96189 0.53846 0.62112 0.0
H647 H 0.89767 0.67282 0.63842 0.0
H648 H 0.9349 0.79742 0.60071 0.0
H649 H 0.93998 0.74 0.62744 0.0
H650 H 0.92863 0.55605 0.59276 0.0
H651 H 0.92278 0.6135 0.56632 0.0
C652 C 0.93918 0.51904 0.64448 0.0
C653 C 0.91734 0.53776 0.65606 0.0
C654 C 0.94566 0.55484 0.63041 0.0
C655 C 0.93084 0.61068 0.62814 0.0
C656 C 0.90966 0.63054 0.64015 0.0
C657 C 0.9028 0.59406 0.65388 0.0
C658 C 0.93452 0.74464 0.59882 0.0
C659 C 0.92859 0.70936 0.58168 0.0
C660 C 0.93733 0.71198 0.61401 0.0
C661 C 0.93474 0.64385 0.61201 0.0
C662 C 0.93106 0.60849 0.59454 0.0
C663 C 0.92763 0.6412 0.57949 0.0
H664 H 0.85127 0.43734 0.11474 0.0
H665 H 0.88475 0.5196 0.0691 0.0
H666 H 0.8504 0.54544 0.13282 0.0
H667 H 0.88388 0.62757 0.08726 0.0
H668 H 0.85163 0.81877 0.11931 0.0
H669 H 0.85083 0.71066 0.10123 0.0
H670 H 0.88338 0.62823 0.14701 0.0
H671 H 0.88417 0.73621 0.16516 0.0
C672 C 0.85836 0.4784 0.10852 0.0
C673 C 0.86809 0.46957 0.09043 0.0
C674 C 0.858 0.54033 0.11895 0.0
C675 C 0.8671 0.5951 0.11149 0.0
C676 C 0.87651 0.58647 0.09335 0.0
C677 C 0.87713 0.52446 0.08297 0.0
C678 C 0.85854 0.77764 0.12557 0.0
C679 C 0.86799 0.78639 0.14372 0.0
C680 C 0.85822 0.7157 0.11515 0.0
C681 C 0.86707 0.66086 0.12266 0.0
C682 C 0.8762 0.6694 0.14087 0.0
C683 C 0.87678 0.73142 0.15124 0.0
H684 H 0.90193 0.13244 0.16642 0.0
H685 H 0.94602 0.96591 0.14001 0.0
H686 H 0.91238 0.19182 0.14104 0.0
H687 H 0.95562 0.02489 0.11405 0.0
H688 H 0.90133 0.12382 0.06856 0.0
H689 H 0.91182 0.06448 0.09394 0.0
H690 H 0.95594 0.2305 0.12052 0.0
H691 H 0.94631 0.2894 0.09456 0.0
C692 C 0.91429 0.10916 0.15528 0.0
C693 C 0.92303 0.04476 0.15493 0.0
C694 C 0.9205 0.14328 0.14093 0.0
C695 C 0.93494 0.11283 0.1258 0.0
C696 C 0.94475 0.04932 0.12577 0.0
C697 C 0.93918 0.01571 0.14048 0.0
C698 C 0.91385 0.14693 0.07961 0.0
C699 C 0.92286 0.21105 0.07984 0.0
C700 C 0.92009 0.11282 0.09397 0.0
C701 C 0.93483 0.14299 0.10897 0.0
C702 C 0.94483 0.20626 0.10889 0.0
C703 C 0.93924 0.23984 0.09419 0.0
H704 H 0.61846 0.67993 0.86714 0.0
H705 H 0.64191 0.76385 0.81941 0.0
H706 H 0.61794 0.78747 0.88521 0.0
H707 H 0.64412 0.87109 0.83763 0.0
H708 H 0.62383 0.0666 0.86956 0.0
H709 H 0.62269 0.9591 0.85152 0.0
H710 H 0.63958 0.87284 0.90042 0.0
H711 H 0.63799 0.9805 0.91846 0.0
C712 C 0.62402 0.72164 0.86064 0.0
C713 C 0.63016 0.71381 0.84192 0.0
C714 C 0.624 0.78362 0.87103 0.0
C715 C 0.63106 0.83933 0.86311 0.0
C716 C 0.63781 0.83056 0.84433 0.0
C717 C 0.63687 0.7688 0.83382 0.0
C718 C 0.62718 0.02434 0.87636 0.0
C719 C 0.63092 0.03167 0.89537 0.0
C720 C 0.62683 0.96234 0.866 0.0
C721 C 0.63117 0.90592 0.87428 0.0
C722 C 0.63543 0.91405 0.89339 0.0
C723 C 0.63481 0.976 0.90382 0.0
H724 H 0.6091 0.37175 0.9139 0.0
H725 H 0.55045 0.22613 0.89349 0.0
H726 H 0.59807 0.43362 0.88919 0.0
H727 H 0.54003 0.28756 0.86821 0.0
H728 H 0.58643 0.36838 0.8163 0.0
H729 H 0.57835 0.31085 0.84246 0.0
H730 H 0.55435 0.49159 0.87485 0.0
H731 H 0.56152 0.54897 0.84828 0.0
C732 C 0.59369 0.35335 0.90418 0.0
C733 C 0.58079 0.29403 0.90539 0.0
C734 C 0.58715 0.38912 0.89023 0.0
C735 C 0.56804 0.36543 0.87704 0.0
C736 C 0.5546 0.30687 0.87844 0.0
C737 C 0.56065 0.27178 0.89275 0.0
C738 C 0.57851 0.39519 0.82885 0.0
C739 C 0.57455 0.46264 0.83048 0.0
C740 C 0.57373 0.36236 0.8437 0.0
C741 C 0.56567 0.39701 0.86052 0.0
C742 C 0.56031 0.46407 0.86189 0.0
C743 C 0.56441 0.4967 0.8468 0.0
H744 H 0.64817 0.1802 0.36526 0.0
H745 H 0.6142 0.26866 0.32089 0.0
H746 H 0.6484 0.28625 0.38453 0.0
H747 H 0.61461 0.37462 0.3402 0.0
H748 H 0.65068 0.56027 0.37362 0.0
H749 H 0.64976 0.45384 0.35469 0.0
H750 H 0.61458 0.36971 0.39935 0.0
H751 H 0.61533 0.47644 0.41838 0.0
C752 C 0.64079 0.2222 0.35959 0.0
C753 C 0.63121 0.21583 0.34149 0.0
C754 C 0.64078 0.28286 0.37069 0.0
C755 C 0.63154 0.33874 0.36387 0.0
C756 C 0.62205 0.3325 0.34578 0.0
C757 C 0.62171 0.27171 0.33476 0.0
C758 C 0.64277 0.51916 0.37946 0.0
C759 C 0.63309 0.52701 0.39756 0.0
C760 C 0.6421 0.45825 0.36855 0.0
C761 C 0.63207 0.40346 0.37552 0.0
C762 C 0.6226 0.41101 0.39365 0.0
C763 C 0.62292 0.4722 0.40451 0.0
H764 H 0.62685 0.84592 0.41013 0.0
H765 H 0.55022 0.74978 0.40025 0.0
H766 H 0.62021 0.90096 0.3836 0.0
H767 H 0.54359 0.80628 0.37342 0.0
H768 H 0.61996 0.88772 0.32214 0.0
H769 H 0.61538 0.8302 0.3484 0.0
H770 H 0.54556 0.94495 0.3662 0.0
H771 H 0.55004 0.00359 0.33956 0.0
C772 C 0.60852 0.83668 0.40233 0.0
C773 C 0.58933 0.7924 0.40698 0.0
C774 C 0.60468 0.86858 0.38726 0.0
C775 C 0.58154 0.85712 0.37656 0.0
C776 C 0.56154 0.81565 0.38162 0.0
C777 C 0.56543 0.78329 0.39682 0.0
C778 C 0.60341 0.90041 0.3315 0.0
C779 C 0.58569 0.95103 0.32909 0.0
C780 C 0.60074 0.86719 0.34641 0.0
C781 C 0.58031 0.88389 0.35923 0.0
C782 C 0.56139 0.93145 0.35633 0.0
C783 C 0.56404 0.96495 0.34122 0.0
H784 H 0.37454 0.31027 0.11993 0.0
H785 H 0.35877 0.22735 0.16916 0.0
H786 H 0.37645 0.20192 0.10244 0.0
H787 H 0.358 0.11878 0.15161 0.0
H788 H 0.38161 0.92483 0.11952 0.0
H789 H 0.38056 0.03314 0.13719 0.0
H790 H 0.35573 0.11273 0.08866 0.0
H791 H 0.35947 0.00499 0.07091 0.0
C792 C 0.37096 0.26854 0.12691 0.0
C793 C 0.36657 0.27704 0.14587 0.0
C794 C 0.37178 0.20602 0.11686 0.0
C795 C 0.36727 0.15022 0.12539 0.0
C796 C 0.3623 0.15951 0.14442 0.0
C797 C 0.36243 0.22198 0.15455 0.0
C798 C 0.37597 0.96582 0.11273 0.0
C799 C 0.37071 0.95677 0.09388 0.0
C800 C 0.3751 0.02823 0.12288 0.0
C801 C 0.36804 0.08307 0.11456 0.0
C802 C 0.36204 0.07296 0.09567 0.0
C803 C 0.36386 0.01088 0.08543 0.0
H804 H 0.44927 0.47204 0.14607 0.0
H805 H 0.38969 0.6179 0.16454 0.0
H806 H 0.46202 0.53396 0.12133 0.0
H807 H 0.40295 0.68016 0.14041 0.0
H808 H 0.44058 0.79674 0.10106 0.0
H809 H 0.44642 0.73925 0.12772 0.0
H810 H 0.4274 0.55714 0.09415 0.0
H811 H 0.42073 0.61471 0.06785 0.0
C812 C 0.43934 0.51783 0.14504 0.0
C813 C 0.41829 0.53999 0.15695 0.0
C814 C 0.44671 0.55321 0.13103 0.0
C815 C 0.43365 0.61199 0.12922 0.0
C816 C 0.4136 0.63555 0.14176 0.0
C817 C 0.4058 0.59953 0.15538 0.0
C818 C 0.43862 0.74419 0.09935 0.0
C819 C 0.4302 0.70971 0.08262 0.0
C820 C 0.44193 0.71147 0.1145 0.0
C821 C 0.43745 0.64395 0.11285 0.0
C822 C 0.43133 0.60902 0.09567 0.0
C823 C 0.42736 0.64187 0.0807 0.0
H824 H 0.38457 0.73048 0.66703 0.0
H825 H 0.34754 0.81094 0.62229 0.0
H826 H 0.38411 0.62257 0.64884 0.0
H827 H 0.34711 0.70286 0.60415 0.0
H828 H 0.38228 0.51464 0.57106 0.0
H829 H 0.3807 0.62241 0.58927 0.0
H830 H 0.35119 0.53747 0.63552 0.0
H831 H 0.35276 0.42945 0.61735 0.0
C832 C 0.37628 0.72524 0.65334 0.0
C833 C 0.36612 0.77959 0.64614 0.0
C834 C 0.37588 0.66325 0.64296 0.0
C835 C 0.36558 0.65415 0.62505 0.0
C836 C 0.35539 0.70838 0.61785 0.0
C837 C 0.35552 0.77028 0.6283 0.0
C838 C 0.37536 0.51882 0.58509 0.0
C839 C 0.36767 0.46319 0.59272 0.0
C840 C 0.37432 0.58071 0.5955 0.0
C841 C 0.36585 0.58849 0.61385 0.0
C842 C 0.35804 0.533 0.62147 0.0
C843 C 0.3588 0.47114 0.61101 0.0
H844 H 0.41656 0.11844 0.56751 0.0
H845 H 0.43589 0.301 0.60063 0.0
H846 H 0.42348 0.06117 0.59386 0.0
H847 H 0.44194 0.2438 0.62735 0.0
H848 H 0.38757 0.11873 0.6648 0.0
H849 H 0.39892 0.18163 0.64037 0.0
H850 H 0.45963 0.04047 0.62068 0.0
H851 H 0.44882 0.97797 0.64564 0.0
C852 C 0.42306 0.1458 0.58037 0.0
C853 C 0.42579 0.21365 0.58224 0.0
C854 C 0.42715 0.11315 0.59535 0.0
C855 C 0.43327 0.14829 0.6125 0.0
C856 C 0.43744 0.21591 0.61415 0.0
C857 C 0.43403 0.24844 0.59898 0.0
C858 C 0.4036 0.10158 0.65541 0.0
C859 C 0.41716 0.04331 0.6569 0.0
C860 C 0.4103 0.13796 0.64162 0.0
C861 C 0.43029 0.11599 0.62887 0.0
C862 C 0.44433 0.05846 0.63055 0.0
C863 C 0.43807 0.02276 0.64469 0.0
loop_
_geom_bond_atom_site_label_1
_geom_bond_atom_site_label_2
_geom_bond_distance
_geom_bond_site_symmetry_2
_ccdc_geom_bond_type
Mg0 O1 2.028 . S
Mg0 O7 1.986 . S
Mg0 O9 2.114 . S
Mg0 O10 2.251 . S
Mg0 O13 2.010 . S
O1 Mg0 2.028 . S
O1 C4 1.250 . S
O2 Mg3 2.028 . S
O2 C4 1.248 . S
Mg3 O2 2.028 . S
Mg3 O8 2.032 . S
Mg3 O10 2.079 . S
C4 O1 1.250 . S
C4 O2 1.248 . S
C5 O6 1.264 . S
C5 O13 1.249 . S
O6 C5 1.264 . S
O7 Mg0 1.986 . S
O7 C11 1.246 . S
O8 Mg3 2.032 . S
O8 C11 1.259 . S
O9 Mg0 2.114 . S
O9 C12 1.252 . S
O10 Mg0 2.251 . S
O10 Mg3 2.079 . S
O10 C12 1.273 . S
C11 O7 1.246 . S
C11 O8 1.259 . S
C12 O9 1.252 . S
C12 O10 1.273 . S
O13 Mg0 2.010 . S
O13 C5 1.249 . S
Mg14 O15 2.028 . S
Mg14 O21 1.986 . S
Mg14 O23 2.114 . S
Mg14 O24 2.251 . S
Mg14 O27 2.010 . S
O15 Mg14 2.028 . S
O15 C18 1.250 . S
O16 Mg17 2.028 . S
O16 C18 1.248 . S
Mg17 O16 2.028 . S
Mg17 O22 2.032 . S
Mg17 O24 2.079 . S
C18 O15 1.250 . S
C18 O16 1.248 . S
C19 O20 1.264 . S
C19 O27 1.249 . S
O20 C19 1.264 . S
O21 Mg14 1.986 . S
O21 C25 1.246 . S
O22 Mg17 2.032 . S
O22 C25 1.259 . S
O23 Mg14 2.114 . S
O23 C26 1.252 . S
O24 Mg14 2.251 . S
O24 Mg17 2.079 . S
O24 C26 1.273 . S
C25 O21 1.246 . S
C25 O22 1.259 . S
C26 O23 1.252 . S
C26 O24 1.273 . S
O27 Mg14 2.010 . S
O27 C19 1.249 . S
Mg28 O29 2.028 . S
Mg28 O35 1.986 . S
Mg28 O37 2.114 . S
Mg28 O38 2.251 . S
Mg28 O41 2.010 . S
O29 Mg28 2.028 . S
O29 C32 1.250 . S
O30 Mg31 2.028 . S
O30 C32 1.248 . S
Mg31 O30 2.028 . S
Mg31 O36 2.032 . S
Mg31 O38 2.079 . S
C32 O29 1.250 . S
C32 O30 1.248 . S
C33 O34 1.264 . S
C33 O41 1.249 . S
O34 C33 1.264 . S
O35 Mg28 1.986 . S
O35 C39 1.246 . S
O36 Mg31 2.032 . S
O36 C39 1.259 . S
O37 Mg28 2.114 . S
O37 C40 1.252 . S
O38 Mg28 2.251 . S
O38 Mg31 2.079 . S
O38 C40 1.273 . S
C39 O35 1.246 . S
C39 O36 1.259 . S
C40 O37 1.252 . S
C40 O38 1.273 . S
O41 Mg28 2.010 . S
O41 C33 1.249 . S
Mg42 O43 2.028 . S
Mg42 O49 1.986 . S
Mg42 O51 2.114 . S
Mg42 O52 2.251 . S
Mg42 O55 2.010 . S
O43 Mg42 2.028 . S
O43 C46 1.250 . S
O44 Mg45 2.028 . S
O44 C46 1.248 . S
Mg45 O44 2.028 . S
Mg45 O50 2.032 . S
Mg45 O52 2.079 . S
C46 O43 1.250 . S
C46 O44 1.248 . S
C47 O48 1.264 . S
C47 O55 1.249 . S
O48 C47 1.264 . S
O49 Mg42 1.986 . S
O49 C53 1.246 . S
O50 Mg45 2.032 . S
O50 C53 1.259 . S
O51 Mg42 2.114 . S
O51 C54 1.252 . S
O52 Mg42 2.251 . S
O52 Mg45 2.079 . S
O52 C54 1.273 . S
C53 O49 1.246 . S
C53 O50 1.259 . S
C54 O51 1.252 . S
C54 O52 1.273 . S
O55 Mg42 2.010 . S
O55 C47 1.249 . S
Mg56 O57 2.028 . S
Mg56 O63 1.986 . S
Mg56 O65 2.114 . S
Mg56 O66 2.251 . S
Mg56 O69 2.010 . S
O57 Mg56 2.028 . S
O57 C60 1.250 . S
O58 Mg59 2.028 . S
O58 C60 1.248 . S
Mg59 O58 2.028 . S
Mg59 O64 2.032 . S
Mg59 O66 2.079 . S
C60 O57 1.250 . S
C60 O58 1.248 . S
C61 O62 1.264 . S
C61 O69 1.249 . S
O62 C61 1.264 . S
O63 Mg56 1.986 . S
O63 C67 1.246 . S
O64 Mg59 2.032 . S
O64 C67 1.259 . S
O65 Mg56 2.114 . S
O65 C68 1.252 . S
O66 Mg56 2.251 . S
O66 Mg59 2.079 . S
O66 C68 1.273 . S
C67 O63 1.246 . S
C67 O64 1.259 . S
C68 O65 1.252 . S
C68 O66 1.273 . S
O69 Mg56 2.010 . S
O69 C61 1.249 . S
Mg70 O71 2.028 . S
Mg70 O77 1.986 . S
Mg70 O79 2.114 . S
Mg70 O80 2.251 . S
Mg70 O83 2.010 . S
O71 Mg70 2.028 . S
O71 C74 1.250 . S
O72 Mg73 2.028 . S
O72 C74 1.248 . S
Mg73 O72 2.028 . S
Mg73 O78 2.032 . S
Mg73 O80 2.079 . S
C74 O71 1.250 . S
C74 O72 1.248 . S
C75 O76 1.264 . S
C75 O83 1.249 . S
O76 C75 1.264 . S
O77 Mg70 1.986 . S
O77 C81 1.246 . S
O78 Mg73 2.032 . S
O78 C81 1.259 . S
O79 Mg70 2.114 . S
O79 C82 1.252 . S
O80 Mg70 2.251 . S
O80 Mg73 2.079 . S
O80 C82 1.273 . S
C81 O77 1.246 . S
C81 O78 1.259 . S
C82 O79 1.252 . S
C82 O80 1.273 . S
O83 Mg70 2.010 . S
O83 C75 1.249 . S
Mg84 O85 2.028 . S
Mg84 O91 1.986 . S
Mg84 O93 2.114 . S
Mg84 O94 2.251 . S
Mg84 O97 2.010 . S
O85 Mg84 2.028 . S
O85 C88 1.250 . S
O86 Mg87 2.028 . S
O86 C88 1.248 . S
Mg87 O86 2.028 . S
Mg87 O92 2.032 . S
Mg87 O94 2.079 . S
C88 O85 1.250 . S
C88 O86 1.248 . S
C89 O90 1.264 . S
C89 O97 1.249 . S
O90 C89 1.264 . S
O91 Mg84 1.986 . S
O91 C95 1.246 . S
O92 Mg87 2.032 . S
O92 C95 1.259 . S
O93 Mg84 2.114 . S
O93 C96 1.252 . S
O94 Mg84 2.251 . S
O94 Mg87 2.079 . S
O94 C96 1.273 . S
C95 O91 1.246 . S
C95 O92 1.259 . S
C96 O93 1.252 . S
C96 O94 1.273 . S
O97 Mg84 2.010 . S
O97 C89 1.249 . S
Mg98 O99 2.028 . S
Mg98 O105 1.986 . S
Mg98 O107 2.114 . S
Mg98 O108 2.251 . S
Mg98 O111 2.010 . S
O99 Mg98 2.028 . S
O99 C102 1.250 . S
O100 Mg101 2.028 . S
O100 C102 1.248 . S
Mg101 O100 2.028 . S
Mg101 O106 2.032 . S
Mg101 O108 2.079 . S
C102 O99 1.250 . S
C102 O100 1.248 . S
C103 O104 1.264 . S
C103 O111 1.249 . S
O104 C103 1.264 . S
O105 Mg98 1.986 . S
O105 C109 1.246 . S
O106 Mg101 2.032 . S
O106 C109 1.259 . S
O107 Mg98 2.114 . S
O107 C110 1.252 . S
O108 Mg98 2.251 . S
O108 Mg101 2.079 . S
O108 C110 1.273 . S
C109 O105 1.246 . S
C109 O106 1.259 . S
C110 O107 1.252 . S
C110 O108 1.273 . S
O111 Mg98 2.010 . S
O111 C103 1.249 . S
Mg112 O113 2.028 . S
Mg112 O119 1.986 . S
Mg112 O121 2.114 . S
Mg112 O122 2.251 . S
Mg112 O125 2.010 . S
O113 Mg112 2.028 . S
O113 C116 1.250 . S
O114 Mg115 2.028 . S
O114 C116 1.248 . S
Mg115 O114 2.028 . S
Mg115 O120 2.032 . S
Mg115 O122 2.079 . S
C116 O113 1.250 . S
C116 O114 1.248 . S
C117 O118 1.264 . S
C117 O125 1.249 . S
O118 C117 1.264 . S
O119 Mg112 1.986 . S
O119 C123 1.246 . S
O120 Mg115 2.032 . S
O120 C123 1.259 . S
O121 Mg112 2.114 . S
O121 C124 1.252 . S
O122 Mg112 2.251 . S
O122 Mg115 2.079 . S
O122 C124 1.273 . S
C123 O119 1.246 . S
C123 O120 1.259 . S
C124 O121 1.252 . S
C124 O122 1.273 . S
O125 Mg112 2.010 . S
O125 C117 1.249 . S
Mg126 O127 2.028 . S
Mg126 O133 1.986 . S
Mg126 O135 2.114 . S
Mg126 O136 2.251 . S
Mg126 O139 2.010 . S
O127 Mg126 2.028 . S
O127 C130 1.250 . S
O128 Mg129 2.028 . S
O128 C130 1.248 . S
Mg129 O128 2.028 . S
Mg129 O134 2.032 . S
Mg129 O136 2.079 . S
C130 O127 1.250 . S
C130 O128 1.248 . S
C131 O132 1.264 . S
C131 O139 1.249 . S
O132 C131 1.264 . S
O133 Mg126 1.986 . S
O133 C137 1.246 . S
O134 Mg129 2.032 . S
O134 C137 1.259 . S
O135 Mg126 2.114 . S
O135 C138 1.252 . S
O136 Mg126 2.251 . S
O136 Mg129 2.079 . S
O136 C138 1.273 . S
C137 O133 1.246 . S
C137 O134 1.259 . S
C138 O135 1.252 . S
C138 O136 1.273 . S
O139 Mg126 2.010 . S
O139 C131 1.249 . S
Mg140 O141 2.028 . S
Mg140 O147 1.986 . S
Mg140 O149 2.114 . S
Mg140 O150 2.251 . S
Mg140 O153 2.010 . S
O141 Mg140 2.028 . S
O141 C144 1.250 . S
O142 Mg143 2.028 . S
O142 C144 1.248 . S
Mg143 O142 2.028 . S
Mg143 O148 2.032 . S
Mg143 O150 2.079 . S
C144 O141 1.250 . S
C144 O142 1.248 . S
C145 O146 1.264 . S
C145 O153 1.249 . S
O146 C145 1.264 . S
O147 Mg140 1.986 . S
O147 C151 1.246 . S
O148 Mg143 2.032 . S
O148 C151 1.259 . S
O149 Mg140 2.114 . S
O149 C152 1.252 . S
O150 Mg140 2.251 . S
O150 Mg143 2.079 . S
O150 C152 1.273 . S
C151 O147 1.246 . S
C151 O148 1.259 . S
C152 O149 1.252 . S
C152 O150 1.273 . S
O153 Mg140 2.010 . S
O153 C145 1.249 . S
Mg154 O155 2.028 . S
Mg154 O161 1.986 . S
Mg154 O163 2.114 . S
Mg154 O164 2.251 . S
Mg154 O167 2.010 . S
O155 Mg154 2.028 . S
O155 C158 1.250 . S
O156 Mg157 2.028 . S
O156 C158 1.248 . S
Mg157 O156 2.028 . S
Mg157 O162 2.032 . S
Mg157 O164 2.079 . S
C158 O155 1.250 . S
C158 O156 1.248 . S
C159 O160 1.264 . S
C159 O167 1.249 . S
O160 C159 1.264 . S
O161 Mg154 1.986 . S
O161 C165 1.246 . S
O162 Mg157 2.032 . S
O162 C165 1.259 . S
O163 Mg154 2.114 . S
O163 C166 1.252 . S
O164 Mg154 2.251 . S
O164 Mg157 2.079 . S
O164 C166 1.273 . S
C165 O161 1.246 . S
C165 O162 1.259 . S
C166 O163 1.252 . S
C166 O164 1.273 . S
O167 Mg154 2.010 . S
O167 C159 1.249 . S
Mg168 O169 2.028 . S
Mg168 O175 1.986 . S
Mg168 O177 2.114 . S
Mg168 O178 2.251 . S
Mg168 O181 2.010 . S
O169 Mg168 2.028 . S
O169 C172 1.250 . S
O170 Mg171 2.028 . S
O170 C172 1.248 . S
Mg171 O170 2.028 . S
Mg171 O176 2.032 . S
Mg171 O178 2.079 . S
C172 O169 1.250 . S
C172 O170 1.248 . S
C173 O174 1.264 . S
C173 O181 1.249 . S
O174 C173 1.264 . S
O175 Mg168 1.986 . S
O175 C179 1.246 . S
O176 Mg171 2.032 . S
O176 C179 1.259 . S
O177 Mg168 2.114 . S
O177 C180 1.252 . S
O178 Mg168 2.251 . S
O178 Mg171 2.079 . S
O178 C180 1.273 . S
C179 O175 1.246 . S
C179 O176 1.259 . S
C180 O177 1.252 . S
C180 O178 1.273 . S
O181 Mg168 2.010 . S
O181 C173 1.249 . S
Mg182 O183 2.028 . S
Mg182 O189 1.986 . S
Mg182 O191 2.114 . S
Mg182 O192 2.251 . S
Mg182 O195 2.010 . S
O183 Mg182 2.028 . S
O183 C186 1.250 . S
O184 Mg185 2.028 . S
O184 C186 1.248 . S
Mg185 O184 2.028 . S
Mg185 O190 2.032 . S
Mg185 O192 2.079 . S
C186 O183 1.250 . S
C186 O184 1.248 . S
C187 O188 1.264 . S
C187 O195 1.249 . S
O188 C187 1.264 . S
O189 Mg182 1.986 . S
O189 C193 1.246 . S
O190 Mg185 2.032 . S
O190 C193 1.259 . S
O191 Mg182 2.114 . S
O191 C194 1.252 . S
O192 Mg182 2.251 . S
O192 Mg185 2.079 . S
O192 C194 1.273 . S
C193 O189 1.246 . S
C193 O190 1.259 . S
C194 O191 1.252 . S
C194 O192 1.273 . S
O195 Mg182 2.010 . S
O195 C187 1.249 . S
Mg196 O197 2.028 . S
Mg196 O203 1.986 . S
Mg196 O205 2.114 . S
Mg196 O206 2.251 . S
Mg196 O209 2.010 . S
O197 Mg196 2.028 . S
O197 C200 1.250 . S
O198 Mg199 2.028 . S
O198 C200 1.248 . S
Mg199 O198 2.028 . S
Mg199 O204 2.032 . S
Mg199 O206 2.079 . S
C200 O197 1.250 . S
C200 O198 1.248 . S
C201 O202 1.264 . S
C201 O209 1.249 . S
O202 C201 1.264 . S
O203 Mg196 1.986 . S
O203 C207 1.246 . S
O204 Mg199 2.032 . S
O204 C207 1.259 . S
O205 Mg196 2.114 . S
O205 C208 1.252 . S
O206 Mg196 2.251 . S
O206 Mg199 2.079 . S
O206 C208 1.273 . S
C207 O203 1.246 . S
C207 O204 1.259 . S
C208 O205 1.252 . S
C208 O206 1.273 . S
O209 Mg196 2.010 . S
O209 C201 1.249 . S
Mg210 O211 2.028 . S
Mg210 O217 1.986 . S
Mg210 O219 2.114 . S
Mg210 O220 2.251 . S
Mg210 O223 2.010 . S
O211 Mg210 2.028 . S
O211 C214 1.250 . S
O212 Mg213 2.028 . S
O212 C214 1.248 . S
Mg213 O212 2.028 . S
Mg213 O218 2.032 . S
Mg213 O220 2.079 . S
C214 O211 1.250 . S
C214 O212 1.248 . S
C215 O216 1.264 . S
C215 O223 1.249 . S
O216 C215 1.264 . S
O217 Mg210 1.986 . S
O217 C221 1.246 . S
O218 Mg213 2.032 . S
O218 C221 1.259 . S
O219 Mg210 2.114 . S
O219 C222 1.252 . S
O220 Mg210 2.251 . S
O220 Mg213 2.079 . S
O220 C222 1.273 . S
C221 O217 1.246 . S
C221 O218 1.259 . S
C222 O219 1.252 . S
C222 O220 1.273 . S
O223 Mg210 2.010 . S
O223 C215 1.249 . S
H224 C232 0.950 . S
H225 C237 0.950 . S
H226 C234 0.950 . S
H227 C236 0.950 . S
H228 C238 0.950 . S
H229 C240 0.950 . S
H230 C242 0.950 . S
H231 C243 0.950 . S
C232 H224 0.950 . S
C232 C233 1.386 . S
C232 C234 1.391 . S
C233 C232 1.386 . S
C233 C237 1.393 . S
C234 H226 0.950 . S
C234 C232 1.391 . S
C234 C235 1.400 . S
C235 C234 1.400 . S
C235 C236 1.398 . S
C235 C241 1.491 . S
C236 H227 0.950 . S
C236 C235 1.398 . S
C236 C237 1.391 . S
C237 H225 0.950 . S
C237 C233 1.393 . S
C237 C236 1.391 . S
C238 H228 0.950 . S
C238 C239 1.386 . S
C238 C240 1.391 . S
C239 C238 1.386 . S
C239 C243 1.393 . S
C240 H229 0.950 . S
C240 C238 1.391 . S
C240 C241 1.400 . S
C241 C235 1.491 . S
C241 C240 1.400 . S
C241 C242 1.398 . S
C242 H230 0.950 . S
C242 C241 1.398 . S
C242 C243 1.391 . S
C243 H231 0.950 . S
C243 C239 1.393 . S
C243 C242 1.391 . S
H244 C252 0.950 . S
H245 C257 0.950 . S
H246 C254 0.950 1_545 S
H247 C256 0.950 1_455 S
H248 C258 0.950 . S
H249 C260 0.950 1_565 S
H250 C262 0.950 1_655 S
H251 C263 0.950 . S
C252 H244 0.950 . S
C252 C253 1.386 . S
C252 C254 1.391 . S
C253 C252 1.386 . S
C253 C257 1.393 . S
C254 H246 0.950 1_565 S
C254 C252 1.391 . S
C254 C255 1.400 . S
C255 C254 1.400 . S
C255 C256 1.398 . S
C255 C261 1.491 1_665 S
C256 H247 0.950 1_655 S
C256 C255 1.398 . S
C256 C257 1.391 . S
C257 H245 0.950 . S
C257 C253 1.393 . S
C257 C256 1.391 . S
C258 H248 0.950 . S
C258 C259 1.386 . S
C258 C260 1.391 . S
C259 C258 1.386 . S
C259 C263 1.393 . S
C260 H249 0.950 1_545 S
C260 C258 1.391 . S
C260 C261 1.400 . S
C261 C255 1.491 1_445 S
C261 C260 1.400 . S
C261 C262 1.398 . S
C262 H250 0.950 1_455 S
C262 C261 1.398 . S
C262 C263 1.391 . S
C263 H251 0.950 . S
C263 C259 1.393 . S
C263 C262 1.391 . S
H264 C272 0.950 . S
H265 C277 0.950 1_545 S
H266 C274 0.950 . S
H267 C276 0.950 . S
H268 C278 0.950 . S
H269 C280 0.950 . S
H270 C282 0.950 . S
H271 C283 0.950 1_565 S
C272 H264 0.950 . S
C272 C273 1.386 . S
C272 C274 1.391 . S
C273 C272 1.386 . S
C273 C277 1.393 . S
C274 H266 0.950 . S
C274 C272 1.391 . S
C274 C275 1.400 . S
C275 C274 1.400 . S
C275 C276 1.398 1_565 S
C275 C281 1.491 1_565 S
C276 H267 0.950 . S
C276 C275 1.398 1_545 S
C276 C277 1.391 1_545 S
C277 H265 0.950 1_565 S
C277 C273 1.393 . S
C277 C276 1.391 1_565 S
C278 H268 0.950 . S
C278 C279 1.386 . S
C278 C280 1.391 . S
C279 C278 1.386 . S
C279 C283 1.393 . S
C280 H269 0.950 . S
C280 C278 1.391 . S
C280 C281 1.400 . S
C281 C275 1.491 1_545 S
C281 C280 1.400 . S
C281 C282 1.398 1_545 S
C282 H270 0.950 . S
C282 C281 1.398 1_565 S
C282 C283 1.391 1_565 S
C283 H271 0.950 1_545 S
C283 C279 1.393 . S
C283 C282 1.391 1_545 S
H284 C292 0.950 . S
H285 C297 0.950 . S
H286 C294 0.950 . S
H287 C296 0.950 1_655 S
H288 C298 0.950 . S
H289 C300 0.950 . S
H290 C302 0.950 1_455 S
H291 C303 0.950 . S
C292 H284 0.950 . S
C292 C293 1.386 . S
C292 C294 1.391 . S
C293 C292 1.386 . S
C293 C297 1.393 . S
C294 H286 0.950 . S
C294 C292 1.391 . S
C294 C295 1.400 . S
C295 C294 1.400 . S
C295 C296 1.398 . S
C295 C301 1.491 1_455 S
C296 H287 0.950 1_455 S
C296 C295 1.398 . S
C296 C297 1.391 . S
C297 H285 0.950 . S
C297 C293 1.393 . S
C297 C296 1.391 . S
C298 H288 0.950 . S
C298 C299 1.386 . S
C298 C300 1.391 . S
C299 C298 1.386 . S
C299 C303 1.393 . S
C300 H289 0.950 . S
C300 C298 1.391 . S
C300 C301 1.400 . S
C301 C295 1.491 1_655 S
C301 C300 1.400 . S
C301 C302 1.398 . S
C302 H290 0.950 1_655 S
C302 C301 1.398 . S
C302 C303 1.391 . S
C303 H291 0.950 . S
C303 C299 1.393 . S
C303 C302 1.391 . S
H304 C312 0.950 . S
H305 C317 0.950 . S
H306 C314 0.950 . S
H307 C316 0.950 . S
H308 C318 0.950 . S
H309 C320 0.950 . S
H310 C322 0.950 . S
H311 C323 0.950 . S
C312 H304 0.950 . S
C312 C313 1.386 . S
C312 C314 1.391 . S
C313 C312 1.386 . S
C313 C317 1.393 . S
C314 H306 0.950 . S
C314 C312 1.391 . S
C314 C315 1.400 . S
C315 C314 1.400 . S
C315 C316 1.398 . S
C315 C321 1.491 . S
C316 H307 0.950 . S
C316 C315 1.398 . S
C316 C317 1.391 . S
C317 H305 0.950 . S
C317 C313 1.393 . S
C317 C316 1.391 . S
C318 H308 0.950 . S
C318 C319 1.386 . S
C318 C320 1.391 . S
C319 C318 1.386 . S
C319 C323 1.393 . S
C320 H309 0.950 . S
C320 C318 1.391 . S
C320 C321 1.400 . S
C321 C315 1.491 . S
C321 C320 1.400 . S
C321 C322 1.398 . S
C322 H310 0.950 . S
C322 C321 1.398 . S
C322 C323 1.391 . S
C323 H311 0.950 . S
C323 C319 1.393 . S
C323 C322 1.391 . S
H324 C332 0.950 . S
H325 C337 0.950 . S
H326 C334 0.950 . S
H327 C336 0.950 . S
H328 C338 0.950 . S
H329 C340 0.950 . S
H330 C342 0.950 . S
H331 C343 0.950 . S
C332 H324 0.950 . S
C332 C333 1.386 . S
C332 C334 1.391 . S
C333 C332 1.386 . S
C333 C337 1.393 . S
C334 H326 0.950 . S
C334 C332 1.391 . S
C334 C335 1.400 . S
C335 C334 1.400 . S
C335 C336 1.398 . S
C335 C341 1.491 1_545 S
C336 H327 0.950 . S
C336 C335 1.398 . S
C336 C337 1.391 . S
C337 H325 0.950 . S
C337 C333 1.393 . S
C337 C336 1.391 . S
C338 H328 0.950 . S
C338 C339 1.386 . S
C338 C340 1.391 . S
C339 C338 1.386 . S
C339 C343 1.393 . S
C340 H329 0.950 . S
C340 C338 1.391 . S
C340 C341 1.400 . S
C341 C335 1.491 1_565 S
C341 C340 1.400 . S
C341 C342 1.398 . S
C342 H330 0.950 . S
C342 C341 1.398 . S
C342 C343 1.391 . S
C343 H331 0.950 . S
C343 C339 1.393 . S
C343 C342 1.391 . S
H344 C352 0.950 . S
H345 C357 0.950 . S
H346 C354 0.950 . S
H347 C356 0.950 . S
H348 C358 0.950 . S
H349 C360 0.950 . S
H350 C362 0.950 . S
H351 C363 0.950 . S
C352 H344 0.950 . S
C352 C353 1.386 . S
C352 C354 1.391 . S
C353 C352 1.386 . S
C353 C357 1.393 . S
C354 H346 0.950 . S
C354 C352 1.391 . S
C354 C355 1.400 . S
C355 C354 1.400 . S
C355 C356 1.398 . S
C355 C361 1.491 1_655 S
C356 H347 0.950 . S
C356 C355 1.398 . S
C356 C357 1.391 . S
C357 H345 0.950 . S
C357 C353 1.393 . S
C357 C356 1.391 . S
C358 H348 0.950 . S
C358 C359 1.386 . S
C358 C360 1.391 . S
C359 C358 1.386 . S
C359 C363 1.393 . S
C360 H349 0.950 . S
C360 C358 1.391 . S
C360 C361 1.400 . S
C361 C355 1.491 1_455 S
C361 C360 1.400 . S
C361 C362 1.398 . S
C362 H350 0.950 . S
C362 C361 1.398 . S
C362 C363 1.391 . S
C363 H351 0.950 . S
C363 C359 1.393 . S
C363 C362 1.391 . S
H364 C372 0.950 . S
H365 C377 0.950 . S
H366 C374 0.950 . S
H367 C376 0.950 . S
H368 C378 0.950 . S
H369 C380 0.950 . S
H370 C382 0.950 . S
H371 C383 0.950 . S
C372 H364 0.950 . S
C372 C373 1.386 . S
C372 C374 1.391 . S
C373 C372 1.386 . S
C373 C377 1.393 . S
C374 H366 0.950 . S
C374 C372 1.391 . S
C374 C375 1.400 . S
C375 C374 1.400 . S
C375 C376 1.398 . S
C375 C381 1.491 1_554 S
C376 H367 0.950 . S
C376 C375 1.398 . S
C376 C377 1.391 . S
C377 H365 0.950 . S
C377 C373 1.393 . S
C377 C376 1.391 . S
C378 H368 0.950 . S
C378 C379 1.386 . S
C378 C380 1.391 . S
C379 C378 1.386 . S
C379 C383 1.393 . S
C380 H369 0.950 . S
C380 C378 1.391 . S
C380 C381 1.400 . S
C381 C375 1.491 1_556 S
C381 C380 1.400 . S
C381 C382 1.398 . S
C382 H370 0.950 . S
C382 C381 1.398 . S
C382 C383 1.391 . S
C383 H371 0.950 . S
C383 C379 1.393 . S
C383 C382 1.391 . S
H384 C392 0.950 . S
H385 C397 0.950 1_554 S
H386 C394 0.950 . S
H387 C396 0.950 . S
H388 C398 0.950 . S
H389 C400 0.950 . S
H390 C402 0.950 . S
H391 C403 0.950 1_556 S
C392 H384 0.950 . S
C392 C393 1.386 . S
C392 C394 1.391 . S
C393 C392 1.386 . S
C393 C397 1.393 . S
C394 H386 0.950 . S
C394 C392 1.391 . S
C394 C395 1.400 . S
C395 C394 1.400 . S
C395 C396 1.398 1_556 S
C395 C401 1.491 1_456 S
C396 H387 0.950 . S
C396 C395 1.398 1_554 S
C396 C397 1.391 1_554 S
C397 H385 0.950 1_556 S
C397 C393 1.393 . S
C397 C396 1.391 1_556 S
C398 H388 0.950 . S
C398 C399 1.386 . S
C398 C400 1.391 . S
C399 C398 1.386 . S
C399 C403 1.393 . S
C400 H389 0.950 . S
C400 C398 1.391 . S
C400 C401 1.400 . S
C401 C395 1.491 1_654 S
C401 C400 1.400 . S
C401 C402 1.398 1_554 S
C402 H390 0.950 . S
C402 C401 1.398 1_556 S
C402 C403 1.391 1_556 S
C403 H391 0.950 1_554 S
C403 C399 1.393 . S
C403 C402 1.391 1_554 S
H404 C412 0.950 . S
H405 C417 0.950 . S
H406 C414 0.950 . S
H407 C416 0.950 . S
H408 C418 0.950 . S
H409 C420 0.950 . S
H410 C422 0.950 . S
H411 C423 0.950 . S
C412 H404 0.950 . S
C412 C413 1.386 . S
C412 C414 1.391 . S
C413 C412 1.386 . S
C413 C417 1.393 . S
C414 H406 0.950 . S
C414 C412 1.391 . S
C414 C415 1.400 . S
C415 C414 1.400 . S
C415 C416 1.398 . S
C415 C421 1.491 . S
C416 H407 0.950 . S
C416 C415 1.398 . S
C416 C417 1.391 . S
C417 H405 0.950 . S
C417 C413 1.393 . S
C417 C416 1.391 . S
C418 H408 0.950 . S
C418 C419 1.386 . S
C418 C420 1.391 . S
C419 C418 1.386 . S
C419 C423 1.393 . S
C420 H409 0.950 . S
C420 C418 1.391 . S
C420 C421 1.400 . S
C421 C415 1.491 . S
C421 C420 1.400 . S
C421 C422 1.398 . S
C422 H410 0.950 . S
C422 C421 1.398 . S
C422 C423 1.391 . S
C423 H411 0.950 . S
C423 C419 1.393 . S
C423 C422 1.391 . S
H424 C432 0.950 . S
H425 C437 0.950 . S
H426 C434 0.917 1_554 S
H427 C436 0.950 . S
H428 C438 0.950 . S
H429 C440 0.917 1_556 S
H430 C442 0.950 . S
H431 C443 0.950 . S
C432 H424 0.950 . S
C432 C433 1.386 . S
C432 C434 1.415 . S
C433 C432 1.386 . S
C433 C437 1.393 . S
C434 H426 0.917 1_556 S
C434 C432 1.415 . S
C434 C435 1.411 . S
C435 C434 1.411 . S
C435 C436 1.398 . S
C435 C441 1.491 1_556 S
C436 H427 0.950 . S
C436 C435 1.398 . S
C436 C437 1.391 . S
C437 H425 0.950 . S
C437 C433 1.393 . S
C437 C436 1.391 . S
C438 H428 0.950 . S
C438 C439 1.386 . S
C438 C440 1.415 . S
C439 C438 1.386 . S
C439 C443 1.393 . S
C440 H429 0.917 1_554 S
C440 C438 1.415 . S
C440 C441 1.411 . S
C441 C435 1.491 1_554 S
C441 C440 1.411 . S
C441 C442 1.398 . S
C442 H430 0.950 . S
C442 C441 1.398 . S
C442 C443 1.391 . S
C443 H431 0.950 . S
C443 C439 1.393 . S
C443 C442 1.391 . S
H444 C452 0.950 . S
H445 C457 0.950 . S
H446 C454 0.950 . S
H447 C456 0.950 . S
H448 C458 0.950 . S
H449 C460 0.950 . S
H450 C462 0.950 . S
H451 C463 0.950 . S
C452 H444 0.950 . S
C452 C453 1.386 . S
C452 C454 1.391 . S
C453 C452 1.386 . S
C453 C457 1.393 . S
C454 H446 0.950 . S
C454 C452 1.391 . S
C454 C455 1.400 . S
C455 C454 1.400 . S
C455 C456 1.398 . S
C455 C461 1.491 . S
C456 H447 0.950 . S
C456 C455 1.398 . S
C456 C457 1.391 . S
C457 H445 0.950 . S
C457 C453 1.393 . S
C457 C456 1.391 . S
C458 H448 0.950 . S
C458 C459 1.386 . S
C458 C460 1.391 . S
C459 C458 1.386 . S
C459 C463 1.393 . S
C460 H449 0.950 . S
C460 C458 1.391 . S
C460 C461 1.400 . S
C461 C455 1.491 . S
C461 C460 1.400 . S
C461 C462 1.398 . S
C462 H450 0.950 . S
C462 C461 1.398 . S
C462 C463 1.391 . S
C463 H451 0.950 . S
C463 C459 1.393 . S
C463 C462 1.391 . S
H464 C472 0.950 1_565 S
H465 C477 0.950 . S
H466 C474 0.950 . S
H467 C476 0.950 . S
H468 C478 0.950 1_545 S
H469 C480 0.950 . S
H470 C482 0.950 . S
H471 C483 0.950 . S
C472 H464 0.950 1_545 S
C472 C473 1.386 . S
C472 C474 1.391 1_545 S
C473 C472 1.386 . S
C473 C477 1.393 . S
C474 H466 0.950 . S
C474 C472 1.391 1_565 S
C474 C475 1.400 1_565 S
C475 C474 1.400 1_545 S
C475 C476 1.398 1_556 S
C475 C481 1.491 1_546 S
C476 H467 0.950 . S
C476 C475 1.398 1_554 S
C476 C477 1.391 1_554 S
C477 H465 0.950 . S
C477 C473 1.393 . S
C477 C476 1.391 1_556 S
C478 H468 0.950 1_565 S
C478 C479 1.386 . S
C478 C480 1.391 1_565 S
C479 C478 1.386 . S
C479 C483 1.393 . S
C480 H469 0.950 . S
C480 C478 1.391 1_545 S
C480 C481 1.400 1_545 S
C481 C475 1.491 1_564 S
C481 C480 1.400 1_565 S
C481 C482 1.398 1_554 S
C482 H470 0.950 . S
C482 C481 1.398 1_556 S
C482 C483 1.391 1_556 S
C483 H471 0.950 . S
C483 C479 1.393 . S
C483 C482 1.391 1_554 S
H484 C492 0.950 . S
H485 C497 0.950 . S
H486 C494 0.950 . S
H487 C496 0.950 . S
H488 C498 0.950 . S
H489 C500 0.950 . S
H490 C502 0.950 . S
H491 C503 0.950 . S
C492 H484 0.950 . S
C492 C493 1.386 . S
C492 C494 1.391 . S
C493 C492 1.386 . S
C493 C497 1.393 . S
C494 H486 0.950 . S
C494 C492 1.391 . S
C494 C495 1.400 . S
C495 C494 1.400 . S
C495 C496 1.398 . S
C495 C501 1.491 . S
C496 H487 0.950 . S
C496 C495 1.398 . S
C496 C497 1.391 . S
C497 H485 0.950 . S
C497 C493 1.393 . S
C497 C496 1.391 . S
C498 H488 0.950 . S
C498 C499 1.386 . S
C498 C500 1.391 . S
C499 C498 1.386 . S
C499 C503 1.393 . S
C500 H489 0.950 . S
C500 C498 1.391 . S
C500 C501 1.400 . S
C501 C495 1.491 . S
C501 C500 1.400 . S
C501 C502 1.398 . S
C502 H490 0.950 . S
C502 C501 1.398 . S
C502 C503 1.391 . S
C503 H491 0.950 . S
C503 C499 1.393 . S
C503 C502 1.391 . S
H504 C512 0.950 . S
H505 C517 0.950 . S
H506 C514 0.950 . S
H507 C516 0.950 . S
H508 C518 0.950 . S
H509 C520 0.950 . S
H510 C522 0.950 . S
H511 C523 0.950 . S
C512 H504 0.950 . S
C512 C513 1.386 . S
C512 C514 1.391 . S
C513 C512 1.386 . S
C513 C517 1.393 . S
C514 H506 0.950 . S
C514 C512 1.391 . S
C514 C515 1.400 . S
C515 C514 1.400 . S
C515 C516 1.398 . S
C515 C521 1.491 . S
C516 H507 0.950 . S
C516 C515 1.398 . S
C516 C517 1.391 . S
C517 H505 0.950 . S
C517 C513 1.393 . S
C517 C516 1.391 . S
C518 H508 0.950 . S
C518 C519 1.386 . S
C518 C520 1.391 . S
C519 C518 1.386 . S
C519 C523 1.393 . S
C520 H509 0.950 . S
C520 C518 1.391 . S
C520 C521 1.400 . S
C521 C515 1.491 . S
C521 C520 1.400 . S
C521 C522 1.398 . S
C522 H510 0.950 . S
C522 C521 1.398 . S
C522 C523 1.391 . S
C523 H511 0.950 . S
C523 C519 1.393 . S
C523 C522 1.391 . S
H524 C532 0.950 . S
H525 C537 0.950 . S
H526 C534 0.950 . S
H527 C536 0.950 . S
H528 C538 0.950 . S
H529 C540 0.950 . S
H530 C542 0.950 . S
H531 C543 0.950 . S
C532 H524 0.950 . S
C532 C533 1.386 . S
C532 C534 1.391 . S
C533 C532 1.386 . S
C533 C537 1.393 . S
C534 H526 0.950 . S
C534 C532 1.391 . S
C534 C535 1.400 . S
C535 C534 1.400 . S
C535 C536 1.398 . S
C535 C541 1.491 . S
C536 H527 0.950 . S
C536 C535 1.398 . S
C536 C537 1.391 . S
C537 H525 0.950 . S
C537 C533 1.393 . S
C537 C536 1.391 . S
C538 H528 0.950 . S
C538 C539 1.386 . S
C538 C540 1.391 . S
C539 C538 1.386 . S
C539 C543 1.393 . S
C540 H529 0.950 . S
C540 C538 1.391 . S
C540 C541 1.400 . S
C541 C535 1.491 . S
C541 C540 1.400 . S
C541 C542 1.398 . S
C542 H530 0.950 . S
C542 C541 1.398 . S
C542 C543 1.391 . S
C543 H531 0.950 . S
C543 C539 1.393 . S
C543 C542 1.391 . S
H544 C552 0.950 . S
H545 C557 0.950 . S
H546 C554 0.950 . S
H547 C556 0.950 . S
H548 C558 0.950 . S
H549 C560 0.950 . S
H550 C562 0.950 . S
H551 C563 0.950 . S
C552 H544 0.950 . S
C552 C553 1.386 . S
C552 C554 1.391 . S
C553 C552 1.386 . S
C553 C557 1.393 . S
C554 H546 0.950 . S
C554 C552 1.391 . S
C554 C555 1.400 . S
C555 C554 1.400 . S
C555 C556 1.398 . S
C555 C561 1.491 . S
C556 H547 0.950 . S
C556 C555 1.398 . S
C556 C557 1.391 . S
C557 H545 0.950 . S
C557 C553 1.393 . S
C557 C556 1.391 . S
C558 H548 0.950 . S
C558 C559 1.386 1_565 S
C558 C560 1.391 . S
C559 C558 1.386 1_545 S
C559 C563 1.393 . S
C560 H549 0.950 . S
C560 C558 1.391 . S
C560 C561 1.400 . S
C561 C555 1.491 . S
C561 C560 1.400 . S
C561 C562 1.398 . S
C562 H550 0.950 . S
C562 C561 1.398 . S
C562 C563 1.391 1_565 S
C563 H551 0.950 . S
C563 C559 1.393 . S
C563 C562 1.391 1_545 S
H564 C572 0.950 . S
H565 C577 0.950 . S
H566 C574 0.950 . S
H567 C576 0.950 . S
H568 C578 0.950 . S
H569 C580 0.950 . S
H570 C582 0.950 . S
H571 C583 0.950 . S
C572 H564 0.950 . S
C572 C573 1.386 . S
C572 C574 1.391 . S
C573 C572 1.386 . S
C573 C577 1.393 . S
C574 H566 0.950 . S
C574 C572 1.391 . S
C574 C575 1.400 . S
C575 C574 1.400 . S
C575 C576 1.398 . S
C575 C581 1.491 . S
C576 H567 0.950 . S
C576 C575 1.398 . S
C576 C577 1.391 . S
C577 H565 0.950 . S
C577 C573 1.393 . S
C577 C576 1.391 . S
C578 H568 0.950 . S
C578 C579 1.386 . S
C578 C580 1.391 . S
C579 C578 1.386 . S
C579 C583 1.393 . S
C580 H569 0.950 . S
C580 C578 1.391 . S
C580 C581 1.400 . S
C581 C575 1.491 . S
C581 C580 1.400 . S
C581 C582 1.398 . S
C582 H570 0.950 . S
C582 C581 1.398 . S
C582 C583 1.391 . S
C583 H571 0.950 . S
C583 C579 1.393 . S
C583 C582 1.391 . S
H584 C592 0.950 . S
H585 C597 0.950 . S
H586 C594 0.950 . S
H587 C596 0.950 . S
H588 C598 0.950 . S
H589 C600 0.950 . S
H590 C602 0.950 . S
H591 C603 0.950 . S
C592 H584 0.950 . S
C592 C593 1.386 . S
C592 C594 1.391 . S
C593 C592 1.386 . S
C593 C597 1.393 . S
C594 H586 0.950 . S
C594 C592 1.391 . S
C594 C595 1.400 . S
C595 C594 1.400 . S
C595 C596 1.398 . S
C595 C601 1.491 . S
C596 H587 0.950 . S
C596 C595 1.398 . S
C596 C597 1.391 . S
C597 H585 0.950 . S
C597 C593 1.393 . S
C597 C596 1.391 . S
C598 H588 0.950 . S
C598 C599 1.386 . S
C598 C600 1.391 . S
C599 C598 1.386 . S
C599 C603 1.393 . S
C600 H589 0.950 . S
C600 C598 1.391 . S
C600 C601 1.400 . S
C601 C595 1.491 . S
C601 C600 1.400 . S
C601 C602 1.398 . S
C602 H590 0.950 . S
C602 C601 1.398 . S
C602 C603 1.391 . S
C603 H591 0.950 . S
C603 C599 1.393 . S
C603 C602 1.391 . S
H604 C612 0.950 . S
H605 C617 0.950 . S
H606 C614 0.950 . S
H607 C616 0.950 . S
H608 C618 0.950 . S
H609 C620 0.950 . S
H610 C622 0.950 . S
H611 C623 0.950 . S
C612 H604 0.950 . S
C612 C613 1.386 . S
C612 C614 1.391 . S
C613 C612 1.386 . S
C613 C617 1.393 . S
C614 H606 0.950 . S
C614 C612 1.391 . S
C614 C615 1.400 . S
C615 C614 1.400 . S
C615 C616 1.398 . S
C615 C621 1.491 . S
C616 H607 0.950 . S
C616 C615 1.398 . S
C616 C617 1.391 . S
C617 H605 0.950 . S
C617 C613 1.393 . S
C617 C616 1.391 . S
C618 H608 0.950 . S
C618 C619 1.386 . S
C618 C620 1.391 . S
C619 C618 1.386 . S
C619 C623 1.393 . S
C620 H609 0.950 . S
C620 C618 1.391 . S
C620 C621 1.400 . S
C621 C615 1.491 . S
C621 C620 1.400 . S
C621 C622 1.398 . S
C622 H610 0.950 . S
C622 C621 1.398 . S
C622 C623 1.391 . S
C623 H611 0.950 . S
C623 C619 1.393 . S
C623 C622 1.391 . S
H624 C632 0.950 . S
H625 C637 0.950 . S
H626 C634 0.950 . S
H627 C636 0.950 . S
H628 C638 0.950 1_565 S
H629 C640 0.950 . S
H630 C642 0.950 . S
H631 C643 0.950 . S
C632 H624 0.950 . S
C632 C633 1.386 . S
C632 C634 1.391 . S
C633 C632 1.386 . S
C633 C637 1.393 . S
C634 H626 0.950 . S
C634 C632 1.391 . S
C634 C635 1.400 . S
C635 C634 1.400 . S
C635 C636 1.398 . S
C635 C641 1.491 . S
C636 H627 0.950 . S
C636 C635 1.398 . S
C636 C637 1.391 . S
C637 H625 0.950 . S
C637 C633 1.393 . S
C637 C636 1.391 . S
C638 H628 0.950 1_545 S
C638 C639 1.386 1_545 S
C638 C640 1.391 . S
C639 C638 1.386 1_565 S
C639 C643 1.393 1_565 S
C640 H629 0.950 . S
C640 C638 1.391 . S
C640 C641 1.400 . S
C641 C635 1.491 . S
C641 C640 1.400 . S
C641 C642 1.398 . S
C642 H630 0.950 . S
C642 C641 1.398 . S
C642 C643 1.391 . S
C643 H631 0.950 . S
C643 C639 1.393 1_545 S
C643 C642 1.391 . S
H644 C652 0.950 . S
H645 C657 0.950 . S
H646 C654 0.950 . S
H647 C656 0.950 . S
H648 C658 0.950 . S
H649 C660 0.950 . S
H650 C662 0.950 . S
H651 C663 0.950 . S
C652 H644 0.950 . S
C652 C653 1.386 . S
C652 C654 1.391 . S
C653 C652 1.386 . S
C653 C657 1.393 . S
C654 H646 0.950 . S
C654 C652 1.391 . S
C654 C655 1.400 . S
C655 C654 1.400 . S
C655 C656 1.398 . S
C655 C661 1.491 . S
C656 H647 0.950 . S
C656 C655 1.398 . S
C656 C657 1.391 . S
C657 H645 0.950 . S
C657 C653 1.393 . S
C657 C656 1.391 . S
C658 H648 0.950 . S
C658 C659 1.386 . S
C658 C660 1.391 . S
C659 C658 1.386 . S
C659 C663 1.393 . S
C660 H649 0.950 . S
C660 C658 1.391 . S
C660 C661 1.400 . S
C661 C655 1.491 . S
C661 C660 1.400 . S
C661 C662 1.398 . S
C662 H650 0.950 . S
C662 C661 1.398 . S
C662 C663 1.391 . S
C663 H651 0.950 . S
C663 C659 1.393 . S
C663 C662 1.391 . S
H664 C672 0.950 . S
H665 C677 0.950 . S
H666 C674 0.950 . S
H667 C676 0.950 . S
H668 C678 0.950 . S
H669 C680 0.950 . S
H670 C682 0.950 . S
H671 C683 0.950 . S
C672 H664 0.950 . S
C672 C673 1.386 . S
C672 C674 1.391 . S
C673 C672 1.386 . S
C673 C677 1.393 . S
C674 H666 0.950 . S
C674 C672 1.391 . S
C674 C675 1.400 . S
C675 C674 1.400 . S
C675 C676 1.398 . S
C675 C681 1.491 . S
C676 H667 0.950 . S
C676 C675 1.398 . S
C676 C677 1.391 . S
C677 H665 0.950 . S
C677 C673 1.393 . S
C677 C676 1.391 . S
C678 H668 0.950 . S
C678 C679 1.386 . S
C678 C680 1.391 . S
C679 C678 1.386 . S
C679 C683 1.393 . S
C680 H669 0.950 . S
C680 C678 1.391 . S
C680 C681 1.400 . S
C681 C675 1.491 . S
C681 C680 1.400 . S
C681 C682 1.398 . S
C682 H670 0.950 . S
C682 C681 1.398 . S
C682 C683 1.391 . S
C683 H671 0.950 . S
C683 C679 1.393 . S
C683 C682 1.391 . S
H684 C692 0.950 . S
H685 C697 0.950 . S
H686 C694 0.950 . S
H687 C696 0.950 . S
H688 C698 0.950 . S
H689 C700 0.950 . S
H690 C702 0.950 . S
H691 C703 0.950 . S
C692 H684 0.950 . S
C692 C693 1.386 . S
C692 C694 1.391 . S
C693 C692 1.386 . S
C693 C697 1.393 1_545 S
C694 H686 0.950 . S
C694 C692 1.391 . S
C694 C695 1.400 . S
C695 C694 1.400 . S
C695 C696 1.398 . S
C695 C701 1.491 . S
C696 H687 0.950 . S
C696 C695 1.398 . S
C696 C697 1.391 1_545 S
C697 H685 0.950 . S
C697 C693 1.393 1_565 S
C697 C696 1.391 1_565 S
C698 H688 0.950 . S
C698 C699 1.386 . S
C698 C700 1.391 . S
C699 C698 1.386 . S
C699 C703 1.393 . S
C700 H689 0.950 . S
C700 C698 1.391 . S
C700 C701 1.400 . S
C701 C695 1.491 . S
C701 C700 1.400 . S
C701 C702 1.398 . S
C702 H690 0.950 . S
C702 C701 1.398 . S
C702 C703 1.391 . S
C703 H691 0.950 . S
C703 C699 1.393 . S
C703 C702 1.391 . S
H704 C712 0.950 . S
H705 C717 0.950 . S
H706 C714 0.950 . S
H707 C716 0.950 . S
H708 C718 0.950 . S
H709 C720 0.950 . S
H710 C722 0.950 . S
H711 C723 0.950 . S
C712 H704 0.950 . S
C712 C713 1.386 . S
C712 C714 1.391 . S
C713 C712 1.386 . S
C713 C717 1.393 . S
C714 H706 0.950 . S
C714 C712 1.391 . S
C714 C715 1.400 . S
C715 C714 1.400 . S
C715 C716 1.398 . S
C715 C721 1.491 . S
C716 H707 0.950 . S
C716 C715 1.398 . S
C716 C717 1.391 . S
C717 H705 0.950 . S
C717 C713 1.393 . S
C717 C716 1.391 . S
C718 H708 0.950 . S
C718 C719 1.386 . S
C718 C720 1.391 1_545 S
C719 C718 1.386 . S
C719 C723 1.393 1_545 S
C720 H709 0.950 . S
C720 C718 1.391 1_565 S
C720 C721 1.400 . S
C721 C715 1.491 . S
C721 C720 1.400 . S
C721 C722 1.398 . S
C722 H710 0.950 . S
C722 C721 1.398 . S
C722 C723 1.391 . S
C723 H711 0.950 . S
C723 C719 1.393 1_565 S
C723 C722 1.391 . S
H724 C732 0.950 . S
H725 C737 0.950 . S
H726 C734 0.950 . S
H727 C736 0.950 . S
H728 C738 0.950 . S
H729 C740 0.950 . S
H730 C742 0.950 . S
H731 C743 0.950 . S
C732 H724 0.950 . S
C732 C733 1.386 . S
C732 C734 1.391 . S
C733 C732 1.386 . S
C733 C737 1.393 . S
C734 H726 0.950 . S
C734 C732 1.391 . S
C734 C735 1.400 . S
C735 C734 1.400 . S
C735 C736 1.398 . S
C735 C741 1.491 . S
C736 H727 0.950 . S
C736 C735 1.398 . S
C736 C737 1.391 . S
C737 H725 0.950 . S
C737 C733 1.393 . S
C737 C736 1.391 . S
C738 H728 0.950 . S
C738 C739 1.386 . S
C738 C740 1.391 . S
C739 C738 1.386 . S
C739 C743 1.393 . S
C740 H729 0.950 . S
C740 C738 1.391 . S
C740 C741 1.400 . S
C741 C735 1.491 . S
C741 C740 1.400 . S
C741 C742 1.398 . S
C742 H730 0.950 . S
C742 C741 1.398 . S
C742 C743 1.391 . S
C743 H731 0.950 . S
C743 C739 1.393 . S
C743 C742 1.391 . S
H744 C752 0.950 . S
H745 C757 0.950 . S
H746 C754 0.950 . S
H747 C756 0.950 . S
H748 C758 0.950 . S
H749 C760 0.950 . S
H750 C762 0.950 . S
H751 C763 0.950 . S
C752 H744 0.950 . S
C752 C753 1.386 . S
C752 C754 1.391 . S
C753 C752 1.386 . S
C753 C757 1.393 . S
C754 H746 0.950 . S
C754 C752 1.391 . S
C754 C755 1.400 . S
C755 C754 1.400 . S
C755 C756 1.398 . S
C755 C761 1.491 . S
C756 H747 0.950 . S
C756 C755 1.398 . S
C756 C757 1.391 . S
C757 H745 0.950 . S
C757 C753 1.393 . S
C757 C756 1.391 . S
C758 H748 0.950 . S
C758 C759 1.386 . S
C758 C760 1.391 . S
C759 C758 1.386 . S
C759 C763 1.393 . S
C760 H749 0.950 . S
C760 C758 1.391 . S
C760 C761 1.400 . S
C761 C755 1.491 . S
C761 C760 1.400 . S
C761 C762 1.398 . S
C762 H750 0.950 . S
C762 C761 1.398 . S
C762 C763 1.391 . S
C763 H751 0.950 . S
C763 C759 1.393 . S
C763 C762 1.391 . S
H764 C772 0.950 . S
H765 C777 0.950 . S
H766 C774 0.950 . S
H767 C776 0.950 . S
H768 C778 0.950 . S
H769 C780 0.950 . S
H770 C782 0.950 . S
H771 C783 0.950 . S
C772 H764 0.950 . S
C772 C773 1.386 . S
C772 C774 1.391 . S
C773 C772 1.386 . S
C773 C777 1.393 . S
C774 H766 0.950 . S
C774 C772 1.391 . S
C774 C775 1.400 . S
C775 C774 1.400 . S
C775 C776 1.398 . S
C775 C781 1.491 . S
C776 H767 0.950 . S
C776 C775 1.398 . S
C776 C777 1.391 . S
C777 H765 0.950 . S
C777 C773 1.393 . S
C777 C776 1.391 . S
C778 H768 0.950 . S
C778 C779 1.386 . S
C778 C780 1.391 . S
C779 C778 1.386 . S
C779 C783 1.393 1_565 S
C780 H769 0.950 . S
C780 C778 1.391 . S
C780 C781 1.400 . S
C781 C775 1.491 . S
C781 C780 1.400 . S
C781 C782 1.398 . S
C782 H770 0.950 . S
C782 C781 1.398 . S
C782 C783 1.391 1_565 S
C783 H771 0.950 . S
C783 C779 1.393 1_545 S
C783 C782 1.391 1_545 S
H784 C792 0.950 . S
H785 C797 0.950 . S
H786 C794 0.950 . S
H787 C796 0.950 . S
H788 C798 0.950 . S
H789 C800 0.950 . S
H790 C802 0.950 . S
H791 C803 0.950 . S
C792 H784 0.950 . S
C792 C793 1.386 . S
C792 C794 1.391 . S
C793 C792 1.386 . S
C793 C797 1.393 . S
C794 H786 0.950 . S
C794 C792 1.391 . S
C794 C795 1.400 . S
C795 C794 1.400 . S
C795 C796 1.398 . S
C795 C801 1.491 . S
C796 H787 0.950 . S
C796 C795 1.398 . S
C796 C797 1.391 . S
C797 H785 0.950 . S
C797 C793 1.393 . S
C797 C796 1.391 . S
C798 H788 0.950 . S
C798 C799 1.386 . S
C798 C800 1.391 1_565 S
C799 C798 1.386 . S
C799 C803 1.393 1_565 S
C800 H789 0.950 . S
C800 C798 1.391 1_545 S
C800 C801 1.400 . S
C801 C795 1.491 . S
C801 C800 1.400 . S
C801 C802 1.398 . S
C802 H790 0.950 . S
C802 C801 1.398 . S
C802 C803 1.391 . S
C803 H791 0.950 . S
C803 C799 1.393 1_545 S
C803 C802 1.391 . S
H804 C812 0.950 . S
H805 C817 0.950 . S
H806 C814 0.950 . S
H807 C816 0.950 . S
H808 C818 0.950 . S
H809 C820 0.950 . S
H810 C822 0.950 . S
H811 C823 0.950 . S
C812 H804 0.950 . S
C812 C813 1.386 . S
C812 C814 1.391 . S
C813 C812 1.386 . S
C813 C817 1.393 . S
C814 H806 0.950 . S
C814 C812 1.391 . S
C814 C815 1.400 . S
C815 C814 1.400 . S
C815 C816 1.398 . S
C815 C821 1.491 . S
C816 H807 0.950 . S
C816 C815 1.398 . S
C816 C817 1.391 . S
C817 H805 0.950 . S
C817 C813 1.393 . S
C817 C816 1.391 . S
C818 H808 0.950 . S
C818 C819 1.386 . S
C818 C820 1.391 . S
C819 C818 1.386 . S
C819 C823 1.393 . S
C820 H809 0.950 . S
C820 C818 1.391 . S
C820 C821 1.400 . S
C821 C815 1.491 . S
C821 C820 1.400 . S
C821 C822 1.398 . S
C822 H810 0.950 . S
C822 C821 1.398 . S
C822 C823 1.391 . S
C823 H811 0.950 . S
C823 C819 1.393 . S
C823 C822 1.391 . S
H824 C832 0.950 . S
H825 C837 0.950 . S
H826 C834 0.950 . S
H827 C836 0.950 . S
H828 C838 0.950 . S
H829 C840 0.950 . S
H830 C842 0.950 . S
H831 C843 0.950 . S
C832 H824 0.950 . S
C832 C833 1.386 . S
C832 C834 1.391 . S
C833 C832 1.386 . S
C833 C837 1.393 . S
C834 H826 0.950 . S
C834 C832 1.391 . S
C834 C835 1.400 . S
C835 C834 1.400 . S
C835 C836 1.398 . S
C835 C841 1.491 . S
C836 H827 0.950 . S
C836 C835 1.398 . S
C836 C837 1.391 . S
C837 H825 0.950 . S
C837 C833 1.393 . S
C837 C836 1.391 . S
C838 H828 0.950 . S
C838 C839 1.386 . S
C838 C840 1.391 . S
C839 C838 1.386 . S
C839 C843 1.393 . S
C840 H829 0.950 . S
C840 C838 1.391 . S
C840 C841 1.400 . S
C841 C835 1.491 . S
C841 C840 1.400 . S
C841 C842 1.398 . S
C842 H830 0.950 . S
C842 C841 1.398 . S
C842 C843 1.391 . S
C843 H831 0.950 . S
C843 C839 1.393 . S
C843 C842 1.391 . S
H844 C852 0.950 . S
H845 C857 0.950 . S
H846 C854 0.950 . S
H847 C856 0.950 . S
H848 C858 0.950 . S
H849 C860 0.950 . S
H850 C862 0.950 . S
H851 C863 0.950 . S
C852 H844 0.950 . S
C852 C853 1.386 . S
C852 C854 1.391 . S
C853 C852 1.386 . S
C853 C857 1.393 . S
C854 H846 0.950 . S
C854 C852 1.391 . S
C854 C855 1.400 . S
C855 C854 1.400 . S
C855 C856 1.398 . S
C855 C861 1.491 . S
C856 H847 0.950 . S
C856 C855 1.398 . S
C856 C857 1.391 . S
C857 H845 0.950 . S
C857 C853 1.393 . S
C857 C856 1.391 . S
C858 H848 0.950 . S
C858 C859 1.386 . S
C858 C860 1.391 . S
C859 C858 1.386 . S
C859 C863 1.393 1_545 S
C860 H849 0.950 . S
C860 C858 1.391 . S
C860 C861 1.400 . S
C861 C855 1.491 . S
C861 C860 1.400 . S
C861 C862 1.398 . S
C862 H850 0.950 . S
C862 C861 1.398 . S
C862 C863 1.391 1_545 S
C863 H851 0.950 . S
C863 C859 1.393 1_565 S
C863 C862 1.391 1_565 S
C233 C207 1.502 . S
C239 C11 1.502 . S
C253 C33 1.403 . S
C259 C5 1.403 . S
C273 C165 1.498 . S
C279 C25 1.498 . S
C293 C19 1.366 . S
C299 C103 1.366 . S
C313 C39 1.490 . S
C319 C179 1.490 . S
C333 C137 1.498 . S
C339 C53 1.498 . S
C353 C47 1.381 . S
C359 C75 1.381 . S
C373 C151 1.503 . S
C379 C67 1.503 . S
C393 C61 1.391 . S
C399 C89 1.391 . S
C413 C221 1.503 . S
C419 C81 1.503 . S
C433 C123 1.503 . S
C439 C95 1.503 . S
C453 C193 1.499 . S
C459 C109 1.499 . S
C473 C117 1.383 . S
C479 C145 1.383 . S
C493 C215 1.402 . S
C499 C131 1.402 . S
C513 C159 1.379 . S
C519 C187 1.379 . S
C533 C201 1.385 . S
C539 C173 1.385 . S
C553 C74 1.096 . S
C559 C4 1.083 . S
C573 C12 1.160 . S
C579 C82 1.163 . S
C593 C18 1.101 . S
C599 C60 1.109 . S
C613 C68 1.172 . S
C619 C26 1.170 1_565 S
C633 C102 1.109 . S
C639 C32 1.104 . S
C653 C110 1.161 . S
C659 C40 1.169 . S
C673 C88 1.109 . S
C679 C46 1.101 . S
C693 C54 1.168 1_545 S
C699 C96 1.161 . S
C713 C186 1.083 . S
C719 C116 1.096 . S
C733 C124 1.160 . S
C739 C194 1.167 . S
C753 C130 1.107 . S
C759 C172 1.108 . S
C773 C180 1.162 . S
C779 C138 1.170 1_565 S
C793 C214 1.104 . S
C799 C144 1.091 . S
C813 C222 1.160 . S
C819 C152 1.165 . S
C833 C158 1.102 . S
C839 C200 1.109 . S
C853 C208 1.167 . S
C859 C166 1.160 1_545 S
