# Generated by pormake.
# Topology rob, (6)-cn, num edge types: 1
# Building blocks:
#     Node 0, Type 0, BuildingBlock: KUMBOL_clean_sbu_1, # of connection points: 6
#     Node 1, Type 0, BuildingBlock: KUMBOL_clean_sbu_1, # of connection points: 6
#     Node 2, Type 0, BuildingBlock: KUMBOL_clean_sbu_1, # of connection points: 6
#     Node 3, Type 0, BuildingBlock: KUMBOL_clean_sbu_1, # of connection points: 6
#     Edge 4, Type (0, 0), None
#     Edge 5, Type (0, 0), None
#     Edge 6, Type (0, 0), None
#     Edge 7, Type (0, 0), None
#     Edge 8, Type (0, 0), None
#     Edge 9, Type (0, 0), None
#     Edge 10, Type (0, 0), None
#     Edge 11, Type (0, 0), None
#     Edge 12, Type (0, 0), None
#     Edge 13, Type (0, 0), None
#     Edge 14, Type (0, 0), None
#     Edge 15, Type (0, 0), None
# Relax obj value: 0.040
# Max RMSD: 0.201
# Mean RMSD: 0.201
data_MOF--net-rob--node1-KUMBOL_clean_sbu_1--edge1-none
_symmetry_space_group_name_H-M    P1
_symmetry_Int_Tables_number       1
_symmetry_cell_setting            triclinic
loop_
_symmetry_equiv_pos_as_xyz
'x, y, z'
_cell_length_a     12.656671
_cell_length_b     9.7214919
_cell_length_c     23.195074
_cell_angle_alpha  100.32103
_cell_angle_beta   89.990341
_cell_angle_gamma 89.995204
loop_
_atom_site_label
_atom_site_type_symbol
_atom_site_fract_x
_atom_site_fract_y
_atom_site_fract_z
_atom_type_partial_charge
C0 C 0.03737 0.56907 0.00019 0.0
C1 C 0.82478 0.61213 -0.02529 0.0
C2 C -0.05366 0.49964 -0.02154 0.0
C3 C 0.82669 0.72029 0.027 0.0
C4 C 0.02032 0.6938 0.04124 0.0
C5 C 0.91933 0.74961 0.05777 0.0
N6 N 0.12727 0.48931 0.00409 0.0
C7 C 0.19794 0.53148 0.04704 0.0
C8 C 0.09973 0.737 0.08086 0.0
C9 C 0.17303 0.64081 0.09119 0.0
Gd10 Gd 0.2429 -0.02088 0.8219 0.0
Gd11 Gd 0.10758 0.24605 -0.00725 0.0
N12 N -0.06086 0.31895 -0.03902 0.0
C13 C 0.68968 0.51279 -0.05601 0.0
C14 C 0.82441 0.21681 -0.0609 0.0
C15 C 0.69182 0.30649 -0.06857 0.0
H16 H 0.82281 0.10734 -0.06434 0.0
H17 H 0.62252 0.2467 -0.06746 0.0
H18 H 0.52767 0.11787 0.87901 0.0
H19 H 0.25464 0.45871 0.05751 0.0
H20 H 0.72795 -0.02152 0.88214 0.0
H21 H 0.63488 0.57578 -0.0608 0.0
H22 H 0.81577 0.65138 -0.00995 0.0
H23 H 0.09588 0.76667 0.75711 0.0
H24 H 0.09153 0.82999 0.11236 0.0
H25 H 0.20949 0.64874 0.13383 0.0
H26 H 0.53461 0.57398 0.82453 0.0
H27 H 0.90996 0.82088 0.09903 0.0
H28 H 0.25883 0.39538 0.70227 0.0
H29 H 0.14092 0.57662 0.68079 0.0
N30 N 0.22311 0.7358 0.81059 0.0
C31 C 0.3131 0.65621 0.81447 0.0
C32 C 0.15249 0.69382 0.76759 0.0
C33 C 0.25068 0.48837 0.73377 0.0
C34 C 0.17738 0.58453 0.72342 0.0
C35 C 0.3301 0.53147 0.77341 0.0
H36 H 0.44043 0.40435 0.71561 0.0
N37 N 0.41133 -0.0937 0.85371 0.0
C38 C 0.40409 0.72563 0.83622 0.0
C39 C 0.66077 0.71239 0.87067 0.0
C40 C 0.52565 0.61307 0.83994 0.0
C41 C 0.52607 0.0084 0.87558 0.0
C42 C 0.65864 -0.08131 0.88323 0.0
O43 O 0.02128 0.30849 0.89608 0.0
O44 O 0.14182 0.20865 0.77556 0.0
O45 O 0.34183 0.83647 0.75833 0.0
O46 O 0.23646 -0.09416 0.7172 0.0
O47 O -0.01517 0.03066 -0.05387 0.0
O48 O 0.06338 -0.12187 0.86444 0.0
O49 O 0.32918 -0.0833 -0.08141 0.0
O50 O 0.20863 0.01654 0.0391 0.0
O51 O 0.00866 0.38872 0.05631 0.0
O52 O 0.11404 0.31941 0.09745 0.0
O53 O 0.36563 0.19452 0.86855 0.0
O54 O 0.28709 0.34707 -0.04977 0.0
C55 C 0.06129 0.31343 0.8055 0.0
C56 C -0.02072 -0.08888 0.90591 0.0
C57 C 0.39697 0.72519 0.65013 0.0
C58 C 0.51403 0.78025 0.55108 0.0
C59 C 0.40115 0.55469 0.56453 0.0
C60 C 0.36628 0.59706 0.62111 0.0
C61 C 0.45425 0.65207 0.53509 0.0
C62 C 0.49106 0.78143 0.61112 0.0
C63 C 0.3101 0.8054 0.70784 0.0
C64 C 0.5237 0.50481 0.78768 0.0
C65 C 0.43108 0.47565 0.75686 0.0
H66 H 0.71558 0.64939 0.87544 0.0
C67 C 0.28916 -0.08822 0.00917 0.0
C68 C 0.37119 0.31406 -0.09124 0.0
C69 C -0.04648 0.50013 0.1645 0.0
C70 C 0.83645 0.44514 0.26355 0.0
C71 C -0.05065 0.67067 0.25009 0.0
C72 C -0.01577 0.62825 0.19351 0.0
C73 C 0.89623 0.57333 0.27953 0.0
C74 C 0.85942 0.44396 0.20351 0.0
C75 C 0.04039 0.41984 0.10679 0.0
H76 H 0.35684 0.46978 0.53926 0.0
H77 H 0.30226 0.54312 0.6358 0.0
H78 H 0.37749 0.6721 0.52341 0.0
H79 H 0.544 -0.13016 0.61199 0.0
H80 H -0.00632 0.75558 0.27535 0.0
H81 H 0.04828 0.68213 0.17883 0.0
H82 H -0.02702 0.55333 0.29124 0.0
H83 H 0.80647 0.35558 0.20267 0.0
C84 C 0.53737 0.06907 0.00019 0.0
C85 C 0.32478 0.11213 -0.02529 0.0
C86 C 0.44634 -0.00036 -0.02154 0.0
C87 C 0.32669 0.22029 0.027 0.0
C88 C 0.52031 0.1938 0.04124 0.0
C89 C 0.41933 0.24961 0.05777 0.0
N90 N 0.62727 -0.01069 0.00409 0.0
C91 C 0.69794 0.03148 0.04704 0.0
C92 C 0.59973 0.237 0.08086 0.0
C93 C 0.67303 0.14081 0.09119 0.0
Gd94 Gd 0.7429 0.47912 0.8219 0.0
Gd95 Gd 0.60758 0.74605 -0.00725 0.0
N96 N 0.43914 0.81895 -0.03902 0.0
C97 C 0.18968 0.01279 -0.05601 0.0
C98 C 0.32441 0.71681 -0.0609 0.0
C99 C 0.19182 0.80649 -0.06857 0.0
H100 H 0.32281 0.60734 -0.06434 0.0
H101 H 0.12252 0.7467 -0.06746 0.0
H102 H 0.02767 0.61787 0.87901 0.0
H103 H 0.75464 -0.04128 0.05751 0.0
H104 H 0.22795 0.47848 0.88214 0.0
H105 H 0.13488 0.07578 -0.0608 0.0
H106 H 0.31577 0.15138 -0.00995 0.0
H107 H 0.59588 0.26667 0.75711 0.0
H108 H 0.59153 0.32999 0.11236 0.0
H109 H 0.70949 0.14874 0.13383 0.0
H110 H 0.03461 0.07398 0.82453 0.0
H111 H 0.40996 0.32088 0.09903 0.0
H112 H 0.75883 -0.10462 0.70227 0.0
H113 H 0.64092 0.07662 0.68079 0.0
N114 N 0.72311 0.2358 0.81059 0.0
C115 C 0.8131 0.15621 0.81447 0.0
C116 C 0.65249 0.19382 0.76759 0.0
C117 C 0.75068 -0.01163 0.73377 0.0
C118 C 0.67738 0.08453 0.72342 0.0
C119 C 0.8301 0.03147 0.77341 0.0
H120 H -0.05957 -0.09565 0.71561 0.0
N121 N 0.91133 0.4063 0.85371 0.0
C122 C 0.90409 0.22563 0.83622 0.0
C123 C 0.16077 0.21239 0.87067 0.0
C124 C 0.02565 0.11307 0.83994 0.0
C125 C 0.02607 0.5084 0.87558 0.0
C126 C 0.15864 0.41869 0.88323 0.0
O127 O 0.52128 0.80849 0.89608 0.0
O128 O 0.64182 0.70865 0.77556 0.0
O129 O 0.84183 0.33647 0.75833 0.0
O130 O 0.73647 0.40584 0.7172 0.0
O131 O 0.48483 0.53066 -0.05387 0.0
O132 O 0.56338 0.37813 0.86444 0.0
O133 O 0.82919 0.4167 -0.08141 0.0
O134 O 0.70863 0.51654 0.0391 0.0
O135 O 0.50866 -0.11128 0.05631 0.0
O136 O 0.61403 0.81941 0.09745 0.0
O137 O 0.86563 0.69452 0.86855 0.0
O138 O 0.78709 0.84707 -0.04977 0.0
C139 C 0.56129 0.81343 0.8055 0.0
C140 C 0.47928 0.41112 0.90591 0.0
C141 C 0.89697 0.22519 0.65013 0.0
C142 C 0.01403 0.28025 0.55108 0.0
C143 C 0.90115 0.05469 0.56453 0.0
C144 C 0.86628 0.09706 0.62111 0.0
C145 C -0.04575 0.15207 0.53509 0.0
C146 C -0.00894 0.28143 0.61112 0.0
C147 C 0.8101 0.3054 0.70784 0.0
C148 C 0.0237 0.00481 0.78768 0.0
C149 C -0.06892 -0.02435 0.75686 0.0
H150 H 0.21558 0.14939 0.87544 0.0
C151 C 0.78916 0.41178 0.00917 0.0
C152 C 0.87119 0.81406 -0.09124 0.0
C153 C 0.45352 0.00013 0.1645 0.0
C154 C 0.33645 -0.05486 0.26355 0.0
C155 C 0.44935 0.17067 0.25009 0.0
C156 C 0.48423 0.12825 0.19351 0.0
C157 C 0.39623 0.07333 0.27953 0.0
C158 C 0.35942 -0.05604 0.20351 0.0
C159 C 0.54039 -0.08016 0.10679 0.0
H160 H 0.85684 -0.03022 0.53926 0.0
H161 H 0.80226 0.04312 0.6358 0.0
H162 H 0.87749 0.1721 0.52341 0.0
H163 H 0.044 0.36984 0.61199 0.0
H164 H 0.49368 0.25558 0.27535 0.0
H165 H 0.54828 0.18213 0.17883 0.0
H166 H 0.47298 0.05333 0.29124 0.0
H167 H 0.30647 0.85558 0.20267 0.0
C168 C 0.03746 0.15626 0.31442 0.0
C169 C 0.82488 0.11318 0.33994 0.0
C170 C -0.05359 0.22567 0.33618 0.0
C171 C 0.82681 0.00504 0.28764 0.0
C172 C 0.02043 0.03157 0.27335 0.0
C173 C 0.91945 -0.02423 0.25684 0.0
N174 N 0.12734 0.23603 0.31052 0.0
C175 C 0.19801 0.19394 0.26753 0.0
C176 C 0.09985 -0.01158 0.2337 0.0
C177 C 0.17312 0.08464 0.22337 0.0
Gd178 Gd 0.24288 0.74619 0.49276 0.0
Gd179 Gd 0.1076 0.47927 0.3219 0.0
N180 N -0.06082 0.40636 0.35367 0.0
C181 C 0.68976 0.21252 0.3707 0.0
C182 C 0.82445 0.5085 0.37558 0.0
C183 C 0.69187 0.41882 0.38327 0.0
H184 H 0.82286 0.61797 0.37902 0.0
H185 H 0.62257 0.4786 0.38214 0.0
H186 H 0.52763 0.60745 0.43561 0.0
H187 H 0.25468 0.26673 0.25707 0.0
H188 H 0.72791 0.74685 0.4325 0.0
H189 H 0.63493 0.14953 0.37542 0.0
H190 H 0.81587 0.07394 0.3246 0.0
H191 H 0.09584 -0.04149 0.55761 0.0
H192 H 0.09169 -0.10458 0.20221 0.0
H193 H 0.20965 0.0767 0.18075 0.0
H194 H 0.53451 0.15134 0.49013 0.0
H195 H 0.91009 -0.09545 0.21557 0.0
H196 H 0.25867 0.32984 0.61248 0.0
H197 H 0.14076 0.14857 0.63395 0.0
N198 N 0.22303 -0.01051 0.50412 0.0
C199 C 0.31301 0.06909 0.50023 0.0
C200 C 0.15242 0.0314 0.54715 0.0
C201 C 0.25056 0.23685 0.58097 0.0
C202 C 0.17729 0.14065 0.59133 0.0
C203 C 0.32999 0.19379 0.54131 0.0
H204 H 0.4403 0.32086 0.5991 0.0
N205 N 0.41129 0.81903 0.46096 0.0
C206 C 0.40402 -0.00031 0.47845 0.0
C207 C 0.6607 0.01294 0.44395 0.0
C208 C 0.52556 0.11225 0.47472 0.0
C209 C 0.52603 0.71692 0.43905 0.0
C210 C 0.6586 0.80663 0.43138 0.0
O211 O 0.02122 0.41685 0.41857 0.0
O212 O 0.14176 0.51663 0.53907 0.0
O213 O 0.34186 -0.11124 0.55633 0.0
O214 O 0.23647 0.81942 0.59747 0.0
O215 O -0.01513 0.69469 0.36853 0.0
O216 O 0.06336 0.84718 0.45023 0.0
O217 O 0.32924 0.80859 0.39608 0.0
O218 O 0.20869 0.70881 0.27558 0.0
O219 O 0.00863 0.33668 0.25834 0.0
O220 O 0.11403 0.40597 0.21719 0.0
O221 O 0.36559 0.53076 0.44611 0.0
O222 O 0.28712 0.37825 0.36441 0.0
C223 C 0.06123 0.41187 0.50914 0.0
C224 C -0.02071 0.8142 0.40875 0.0
C225 C 0.39696 6e-05 0.66453 0.0
C226 C 0.51392 -0.05509 0.76354 0.0
C227 C 0.4011 0.17053 0.75014 0.0
C228 C 0.36618 0.12814 0.69358 0.0
C229 C 0.45429 0.07319 0.77955 0.0
C230 C 0.49113 -0.05616 0.70349 0.0
C231 C 0.3101 -0.08015 0.60682 0.0
C232 C 0.52358 0.22049 0.52699 0.0
C233 C 0.43096 0.2496 0.55784 0.0
H234 H 0.71553 0.07593 0.43926 0.0
C235 C 0.28922 0.81355 0.3055 0.0
C236 C 0.37118 0.41124 0.40589 0.0
C237 C -0.04646 0.22526 0.15016 0.0
C238 C 0.83657 0.28033 0.05114 0.0
C239 C -0.05059 0.05475 0.06456 0.0
C240 C -0.01566 0.09719 0.12112 0.0
C241 C 0.8962 0.15204 0.03513 0.0
C242 C 0.85934 0.2814 0.11119 0.0
C243 C 0.04039 0.30555 0.20786 0.0
H244 H 0.35684 0.25551 0.77541 0.0
H245 H 0.30207 0.18199 0.67893 0.0
H246 H 0.37749 0.0532 0.79122 0.0
H247 H 0.54419 0.8555 0.70254 0.0
H248 H -0.00631 -0.03023 0.03929 0.0
H249 H 0.04848 0.04339 0.13575 0.0
H250 H -0.02702 0.17201 0.02344 0.0
H251 H 0.80627 0.3697 0.11211 0.0
C252 C 0.53746 0.65626 0.31442 0.0
C253 C 0.32488 0.61318 0.33994 0.0
C254 C 0.44641 0.72567 0.33618 0.0
C255 C 0.32681 0.50504 0.28764 0.0
C256 C 0.52043 0.53157 0.27335 0.0
C257 C 0.41945 0.47577 0.25684 0.0
N258 N 0.62734 0.73603 0.31052 0.0
C259 C 0.69801 0.69394 0.26753 0.0
C260 C 0.59985 0.48842 0.2337 0.0
C261 C 0.67312 0.58464 0.22337 0.0
Gd262 Gd 0.74288 0.24619 0.49276 0.0
Gd263 Gd 0.6076 -0.02073 0.3219 0.0
N264 N 0.43918 -0.09364 0.35367 0.0
C265 C 0.18976 0.71252 0.3707 0.0
C266 C 0.32445 0.0085 0.37558 0.0
C267 C 0.19187 -0.08118 0.38327 0.0
H268 H 0.32286 0.11797 0.37902 0.0
H269 H 0.12257 -0.0214 0.38214 0.0
H270 H 0.02763 0.10745 0.43561 0.0
H271 H 0.75468 0.76673 0.25707 0.0
H272 H 0.22791 0.24685 0.4325 0.0
H273 H 0.13493 0.64953 0.37542 0.0
H274 H 0.31587 0.57394 0.3246 0.0
H275 H 0.59584 0.45851 0.55761 0.0
H276 H 0.59169 0.39542 0.20221 0.0
H277 H 0.70965 0.5767 0.18075 0.0
H278 H 0.03451 0.65134 0.49013 0.0
H279 H 0.41009 0.40455 0.21557 0.0
H280 H 0.75867 0.82984 0.61248 0.0
H281 H 0.64076 0.64857 0.63395 0.0
N282 N 0.72303 0.48949 0.50412 0.0
C283 C 0.81301 0.56909 0.50023 0.0
C284 C 0.65242 0.5314 0.54715 0.0
C285 C 0.75056 0.73685 0.58097 0.0
C286 C 0.67729 0.64065 0.59133 0.0
C287 C 0.82999 0.69379 0.54131 0.0
H288 H -0.0597 0.82086 0.5991 0.0
N289 N 0.91129 0.31903 0.46096 0.0
C290 C 0.90402 0.49969 0.47845 0.0
C291 C 0.1607 0.51294 0.44395 0.0
C292 C 0.02556 0.61225 0.47472 0.0
C293 C 0.02603 0.21692 0.43905 0.0
C294 C 0.1586 0.30662 0.43138 0.0
O295 O 0.52122 -0.08315 0.41857 0.0
O296 O 0.64176 0.01663 0.53907 0.0
O297 O 0.84186 0.38876 0.55633 0.0
O298 O 0.73647 0.31942 0.59747 0.0
O299 O 0.48487 0.19469 0.36853 0.0
O300 O 0.56336 0.34718 0.45023 0.0
O301 O 0.82924 0.30859 0.39608 0.0
O302 O 0.70869 0.20881 0.27558 0.0
O303 O 0.50863 0.83668 0.25834 0.0
O304 O 0.61403 -0.09403 0.21719 0.0
O305 O 0.86559 0.03076 0.44611 0.0
O306 O 0.78712 -0.12175 0.36441 0.0
C307 C 0.56123 -0.08813 0.50914 0.0
C308 C 0.47929 0.3142 0.40875 0.0
C309 C 0.89696 0.50006 0.66453 0.0
C310 C 0.01392 0.44491 0.76354 0.0
C311 C 0.9011 0.67053 0.75014 0.0
C312 C 0.86618 0.62814 0.69358 0.0
C313 C -0.04571 0.57319 0.77955 0.0
C314 C -0.00887 0.44384 0.70349 0.0
C315 C 0.8101 0.41985 0.60682 0.0
C316 C 0.02358 0.72049 0.52699 0.0
C317 C -0.06904 0.7496 0.55784 0.0
H318 H 0.21553 0.57593 0.43926 0.0
C319 C 0.78922 0.31355 0.3055 0.0
C320 C 0.87118 -0.08876 0.40589 0.0
C321 C 0.45354 0.72526 0.15016 0.0
C322 C 0.33657 0.78033 0.05114 0.0
C323 C 0.44941 0.55475 0.06456 0.0
C324 C 0.48434 0.59719 0.12112 0.0
C325 C 0.3962 0.65204 0.03513 0.0
C326 C 0.35934 0.7814 0.11119 0.0
C327 C 0.54039 0.80555 0.20786 0.0
H328 H 0.85684 0.75551 0.77541 0.0
H329 H 0.80207 0.68199 0.67893 0.0
H330 H 0.87749 0.5532 0.79122 0.0
H331 H 0.04419 0.35551 0.70254 0.0
H332 H 0.49369 0.46977 0.03929 0.0
H333 H 0.54848 0.54339 0.13575 0.0
H334 H 0.47298 0.67201 0.02344 0.0
H335 H 0.30627 -0.1303 0.11211 0.0
loop_
_geom_bond_atom_site_label_1
_geom_bond_atom_site_label_2
_geom_bond_distance
_geom_bond_site_symmetry_2
_ccdc_geom_bond_type
C0 C2 1.422 . S
C0 C4 1.415 1_565 S
C0 N6 1.369 1_655 S
C1 C2 1.421 . S
C1 C3 1.417 . S
C1 C13 1.422 . S
C2 C0 1.422 . S
C2 C1 1.421 . S
C2 N12 1.359 . S
C3 C1 1.417 . S
C3 C5 1.329 1_565 S
C3 H22 0.930 . S
C4 C0 1.415 1_545 S
C4 C5 1.437 . S
C4 C8 1.413 1_655 S
C5 C3 1.329 1_545 S
C5 C4 1.437 . S
C5 H27 0.929 . S
N6 C0 1.369 1_455 S
N6 C7 1.338 . S
N6 Gd11 2.622 . S
C7 N6 1.338 . S
C7 C9 1.378 1_565 S
C7 H19 0.929 . S
C8 C4 1.413 1_455 S
C8 C9 1.348 . S
C8 H24 0.931 . S
C9 C7 1.378 1_545 S
C9 C8 1.348 . S
C9 H25 0.930 . S
Gd10 N30 2.622 1_545 S
Gd10 N37 2.570 1_545 S
Gd10 O44 2.353 . S
Gd10 O45 2.468 . S
Gd10 O46 2.427 1_545 S
Gd10 O48 2.388 1_545 S
Gd10 O49 2.386 1_556 S
Gd10 O53 2.307 . S
Gd10 C63 2.805 1_545 S
Gd11 N6 2.622 . S
Gd11 N12 2.570 1_455 S
Gd11 O43 2.386 1_554 S
Gd11 O47 2.307 . S
Gd11 O50 2.353 . S
Gd11 O51 2.468 . S
Gd11 O52 2.427 . S
Gd11 O54 2.388 . S
Gd11 C75 2.805 . S
N12 C2 1.359 . S
N12 Gd11 2.570 1_655 S
N12 C14 1.343 . S
C13 C1 1.422 . S
C13 C15 1.321 . S
C13 H21 0.931 . S
C14 N12 1.343 . S
C14 C15 1.390 . S
C14 H16 0.931 . S
C15 C13 1.321 . S
C15 C14 1.390 . S
C15 H17 0.930 . S
H16 C14 0.931 . S
H17 C15 0.930 . S
H18 C41 0.931 . S
H19 C7 0.929 . S
H20 C42 0.930 . S
H21 C13 0.931 . S
H22 C3 0.930 . S
H23 C32 0.929 . S
H24 C8 0.931 . S
H25 C9 0.930 . S
H26 C64 0.930 . S
H27 C5 0.929 . S
H28 C33 0.931 . S
H29 C34 0.930 . S
N30 Gd10 2.622 1_565 S
N30 C31 1.369 . S
N30 C32 1.338 . S
C31 N30 1.369 . S
C31 C35 1.415 . S
C31 C38 1.422 . S
C32 H23 0.929 . S
C32 N30 1.338 . S
C32 C34 1.378 . S
C33 H28 0.931 . S
C33 C34 1.348 . S
C33 C35 1.413 . S
C34 H29 0.930 . S
C34 C32 1.378 . S
C34 C33 1.348 . S
C35 C31 1.415 . S
C35 C33 1.413 . S
C35 C65 1.437 . S
H36 C65 0.929 . S
N37 Gd10 2.570 1_565 S
N37 C38 1.359 . S
N37 C41 1.343 1_565 S
C38 C31 1.422 . S
C38 N37 1.359 . S
C38 C40 1.421 . S
C39 C40 1.422 . S
C39 C42 1.321 1_565 S
C39 H66 0.931 . S
C40 C38 1.421 . S
C40 C39 1.422 . S
C40 C64 1.417 . S
C41 H18 0.931 . S
C41 N37 1.343 1_545 S
C41 C42 1.390 . S
C42 H20 0.930 . S
C42 C39 1.321 1_545 S
C42 C41 1.390 . S
O43 Gd11 2.386 1_556 S
O43 C55 1.265 . S
O44 Gd10 2.353 . S
O44 C55 1.242 . S
O45 Gd10 2.468 . S
O45 C63 1.263 1_545 S
O46 Gd10 2.427 1_565 S
O46 C63 1.252 . S
O47 Gd11 2.307 . S
O47 C56 1.261 1_544 S
O48 Gd10 2.388 1_565 S
O48 C56 1.252 . S
O49 Gd10 2.386 1_554 S
O49 C67 1.265 . S
O50 Gd11 2.353 . S
O50 C67 1.242 . S
O51 Gd11 2.468 . S
O51 C75 1.263 . S
O52 Gd11 2.427 . S
O52 C75 1.252 . S
O53 Gd10 2.307 . S
O53 C68 1.261 1_556 S
O54 Gd11 2.388 . S
O54 C68 1.252 . S
C55 O43 1.265 . S
C55 O44 1.242 . S
C56 O47 1.261 1_566 S
C56 O48 1.252 . S
C57 C60 1.394 . S
C57 C62 1.370 . S
C57 C63 1.500 . S
C58 C61 1.383 . S
C58 C62 1.395 . S
C59 C60 1.396 . S
C59 C61 1.365 . S
C59 H76 0.929 . S
C60 C57 1.394 . S
C60 C59 1.396 . S
C60 H77 0.930 . S
C61 C58 1.383 . S
C61 C59 1.365 . S
C61 H78 0.931 . S
C62 C57 1.370 . S
C62 C58 1.395 . S
C62 H79 0.930 1_565 S
C63 Gd10 2.805 1_565 S
C63 O45 1.263 1_565 S
C63 O46 1.252 . S
C63 C57 1.500 . S
C64 H26 0.930 . S
C64 C40 1.417 . S
C64 C65 1.329 . S
C65 C35 1.437 . S
C65 H36 0.929 . S
C65 C64 1.329 . S
H66 C39 0.931 . S
C67 O49 1.265 . S
C67 O50 1.242 . S
C68 O53 1.261 1_554 S
C68 O54 1.252 . S
C69 C72 1.394 . S
C69 C74 1.370 1_455 S
C69 C75 1.500 . S
C70 C73 1.383 . S
C70 C74 1.395 . S
C71 C72 1.396 . S
C71 C73 1.365 1_455 S
C71 H80 0.929 . S
C72 C69 1.394 . S
C72 C71 1.396 . S
C72 H81 0.930 . S
C73 C70 1.383 . S
C73 C71 1.365 1_655 S
C73 H82 0.931 . S
C74 C69 1.370 1_655 S
C74 C70 1.395 . S
C74 H83 0.930 . S
C75 Gd11 2.805 . S
C75 O51 1.263 . S
C75 O52 1.252 . S
C75 C69 1.500 . S
H76 C59 0.929 . S
H77 C60 0.930 . S
H78 C61 0.931 . S
H79 C62 0.930 1_545 S
H80 C71 0.929 . S
H81 C72 0.930 . S
H82 C73 0.931 . S
H83 C74 0.930 . S
C84 C86 1.422 . S
C84 C88 1.415 . S
C84 N90 1.369 . S
C85 C86 1.421 . S
C85 C87 1.417 . S
C85 C97 1.422 . S
C86 C84 1.422 . S
C86 C85 1.421 . S
C86 N96 1.359 . S
C87 C85 1.417 . S
C87 C89 1.329 . S
C87 H106 0.930 . S
C88 C84 1.415 . S
C88 C89 1.437 . S
C88 C92 1.413 . S
C89 C87 1.329 . S
C89 C88 1.437 . S
C89 H111 0.929 . S
N90 C84 1.369 . S
N90 C91 1.338 . S
N90 Gd95 2.622 1_545 S
C91 N90 1.338 . S
C91 C93 1.378 . S
C91 H103 0.929 . S
C92 C88 1.413 . S
C92 C93 1.348 . S
C92 H108 0.931 . S
C93 C91 1.378 . S
C93 C92 1.348 . S
C93 H109 0.930 . S
Gd94 N114 2.622 . S
Gd94 N121 2.570 1_655 S
Gd94 O128 2.353 . S
Gd94 O129 2.468 . S
Gd94 O130 2.427 . S
Gd94 O132 2.388 . S
Gd94 O133 2.386 1_556 S
Gd94 O137 2.307 . S
Gd94 C147 2.805 . S
Gd95 N90 2.622 1_565 S
Gd95 N96 2.570 1_565 S
Gd95 O127 2.386 1_554 S
Gd95 O131 2.307 . S
Gd95 O134 2.353 . S
Gd95 O135 2.468 . S
Gd95 O136 2.427 1_565 S
Gd95 O138 2.388 1_565 S
Gd95 C159 2.805 1_565 S
N96 C86 1.359 . S
N96 Gd95 2.570 1_545 S
N96 C98 1.343 1_545 S
C97 C85 1.422 . S
C97 C99 1.321 1_545 S
C97 H105 0.931 . S
C98 N96 1.343 1_565 S
C98 C99 1.390 . S
C98 H100 0.931 . S
C99 C97 1.321 1_565 S
C99 C98 1.390 . S
C99 H101 0.930 . S
H100 C98 0.931 . S
H101 C99 0.930 . S
H102 C125 0.931 . S
H103 C91 0.929 . S
H104 C126 0.930 . S
H105 C97 0.931 . S
H106 C87 0.930 . S
H107 C116 0.929 . S
H108 C92 0.931 . S
H109 C93 0.930 . S
H110 C148 0.930 . S
H111 C89 0.929 . S
H112 C117 0.931 . S
H113 C118 0.930 . S
N114 Gd94 2.622 . S
N114 C115 1.369 1_655 S
N114 C116 1.338 . S
C115 N114 1.369 1_455 S
C115 C119 1.415 1_545 S
C115 C122 1.422 . S
C116 H107 0.929 . S
C116 N114 1.338 . S
C116 C118 1.378 1_545 S
C117 H112 0.931 . S
C117 C118 1.348 . S
C117 C119 1.413 1_655 S
C118 H113 0.930 . S
C118 C116 1.378 1_565 S
C118 C117 1.348 . S
C119 C115 1.415 1_565 S
C119 C117 1.413 1_455 S
C119 C149 1.437 . S
H120 C149 0.929 . S
N121 Gd94 2.570 1_455 S
N121 C122 1.359 . S
N121 C125 1.343 . S
C122 C115 1.422 . S
C122 N121 1.359 . S
C122 C124 1.421 . S
C123 C124 1.422 . S
C123 C126 1.321 . S
C123 H150 0.931 . S
C124 C122 1.421 . S
C124 C123 1.422 . S
C124 C148 1.417 . S
C125 H102 0.931 . S
C125 N121 1.343 . S
C125 C126 1.390 . S
C126 H104 0.930 . S
C126 C123 1.321 . S
C126 C125 1.390 . S
O127 Gd95 2.386 1_556 S
O127 C139 1.265 . S
O128 Gd94 2.353 . S
O128 C139 1.242 . S
O129 Gd94 2.468 . S
O129 C147 1.263 . S
O130 Gd94 2.427 . S
O130 C147 1.252 . S
O131 Gd95 2.307 . S
O131 C140 1.261 1_554 S
O132 Gd94 2.388 . S
O132 C140 1.252 . S
O133 Gd94 2.386 1_554 S
O133 C151 1.265 . S
O134 Gd95 2.353 . S
O134 C151 1.242 . S
O135 Gd95 2.468 . S
O135 C159 1.263 1_565 S
O136 Gd95 2.427 1_545 S
O136 C159 1.252 . S
O137 Gd94 2.307 . S
O137 C152 1.261 1_566 S
O138 Gd95 2.388 1_545 S
O138 C152 1.252 . S
C139 O127 1.265 . S
C139 O128 1.242 . S
C140 O131 1.261 1_556 S
C140 O132 1.252 . S
C141 C144 1.394 . S
C141 C146 1.370 1_655 S
C141 C147 1.500 . S
C142 C145 1.383 . S
C142 C146 1.395 . S
C143 C144 1.396 . S
C143 C145 1.365 1_655 S
C143 H160 0.929 . S
C144 C141 1.394 . S
C144 C143 1.396 . S
C144 H161 0.930 . S
C145 C142 1.383 . S
C145 C143 1.365 1_455 S
C145 H162 0.931 . S
C146 C141 1.370 1_455 S
C146 C142 1.395 . S
C146 H163 0.930 . S
C147 Gd94 2.805 . S
C147 O129 1.263 . S
C147 O130 1.252 . S
C147 C141 1.500 . S
C148 H110 0.930 . S
C148 C124 1.417 . S
C148 C149 1.329 1_545 S
C149 C119 1.437 . S
C149 H120 0.929 . S
C149 C148 1.329 1_565 S
H150 C123 0.931 . S
C151 O133 1.265 . S
C151 O134 1.242 . S
C152 O137 1.261 1_544 S
C152 O138 1.252 . S
C153 C156 1.394 . S
C153 C158 1.370 . S
C153 C159 1.500 . S
C154 C157 1.383 . S
C154 C158 1.395 . S
C155 C156 1.396 . S
C155 C157 1.365 . S
C155 H164 0.929 . S
C156 C153 1.394 . S
C156 C155 1.396 . S
C156 H165 0.930 . S
C157 C154 1.383 . S
C157 C155 1.365 . S
C157 H166 0.931 . S
C158 C153 1.370 . S
C158 C154 1.395 . S
C158 H167 0.930 1_545 S
C159 Gd95 2.805 1_545 S
C159 O135 1.263 1_545 S
C159 O136 1.252 . S
C159 C153 1.500 . S
H160 C143 0.929 . S
H161 C144 0.930 . S
H162 C145 0.931 . S
H163 C146 0.930 . S
H164 C155 0.929 . S
H165 C156 0.930 . S
H166 C157 0.931 . S
H167 C158 0.930 1_565 S
C168 C170 1.422 . S
C168 C172 1.415 1_545 S
C168 N174 1.369 1_655 S
C169 C170 1.421 . S
C169 C171 1.417 . S
C169 C181 1.422 . S
C170 C168 1.422 . S
C170 C169 1.421 . S
C170 N180 1.359 . S
C171 C169 1.417 . S
C171 C173 1.329 1_545 S
C171 H190 0.930 . S
C172 C168 1.415 1_565 S
C172 C173 1.437 . S
C172 C176 1.413 1_655 S
C173 C171 1.329 1_565 S
C173 C172 1.437 . S
C173 H195 0.929 . S
N174 C168 1.369 1_455 S
N174 C175 1.338 . S
N174 Gd179 2.622 . S
C175 N174 1.338 . S
C175 C177 1.378 1_545 S
C175 H187 0.929 . S
C176 C172 1.413 1_455 S
C176 C177 1.348 . S
C176 H192 0.931 . S
C177 C175 1.378 1_565 S
C177 C176 1.348 . S
C177 H193 0.930 . S
Gd178 N198 2.622 1_565 S
Gd178 N205 2.570 1_565 S
Gd178 O212 2.353 . S
Gd178 O213 2.468 . S
Gd178 O214 2.427 1_565 S
Gd178 O216 2.388 1_565 S
Gd178 O217 2.386 . S
Gd178 O221 2.307 . S
Gd178 C231 2.805 1_565 S
Gd179 N174 2.622 . S
Gd179 N180 2.570 1_455 S
Gd179 O211 2.386 . S
Gd179 O215 2.307 . S
Gd179 O218 2.353 . S
Gd179 O219 2.468 . S
Gd179 O220 2.427 . S
Gd179 O222 2.388 . S
Gd179 C243 2.805 . S
N180 C170 1.359 . S
N180 Gd179 2.570 1_655 S
N180 C182 1.343 . S
C181 C169 1.422 . S
C181 C183 1.321 . S
C181 H189 0.931 . S
C182 N180 1.343 . S
C182 C183 1.390 . S
C182 H184 0.931 . S
C183 C181 1.321 . S
C183 C182 1.390 . S
C183 H185 0.930 . S
H184 C182 0.931 . S
H185 C183 0.930 . S
H186 C209 0.931 . S
H187 C175 0.929 . S
H188 C210 0.930 . S
H189 C181 0.931 . S
H190 C171 0.930 . S
H191 C200 0.929 . S
H192 C176 0.931 . S
H193 C177 0.930 . S
H194 C232 0.930 . S
H195 C173 0.929 . S
H196 C201 0.931 . S
H197 C202 0.930 . S
N198 Gd178 2.622 1_545 S
N198 C199 1.369 . S
N198 C200 1.338 . S
C199 N198 1.369 . S
C199 C203 1.415 . S
C199 C206 1.422 . S
C200 H191 0.929 . S
C200 N198 1.338 . S
C200 C202 1.378 . S
C201 H196 0.931 . S
C201 C202 1.348 . S
C201 C203 1.413 . S
C202 H197 0.930 . S
C202 C200 1.378 . S
C202 C201 1.348 . S
C203 C199 1.415 . S
C203 C201 1.413 . S
C203 C233 1.437 . S
H204 C233 0.929 . S
N205 Gd178 2.570 1_545 S
N205 C206 1.359 . S
N205 C209 1.343 1_545 S
C206 C199 1.422 . S
C206 N205 1.359 . S
C206 C208 1.421 . S
C207 C208 1.422 . S
C207 C210 1.321 1_545 S
C207 H234 0.931 . S
C208 C206 1.421 . S
C208 C207 1.422 . S
C208 C232 1.417 . S
C209 H186 0.931 . S
C209 N205 1.343 1_565 S
C209 C210 1.390 . S
C210 H188 0.930 . S
C210 C207 1.321 1_565 S
C210 C209 1.390 . S
O211 Gd179 2.386 . S
O211 C223 1.265 . S
O212 Gd178 2.353 . S
O212 C223 1.242 . S
O213 Gd178 2.468 . S
O213 C231 1.263 1_565 S
O214 Gd178 2.427 1_545 S
O214 C231 1.252 . S
O215 Gd179 2.307 . S
O215 C224 1.261 1_565 S
O216 Gd178 2.388 1_545 S
O216 C224 1.252 . S
O217 Gd178 2.386 . S
O217 C235 1.265 . S
O218 Gd179 2.353 . S
O218 C235 1.242 . S
O219 Gd179 2.468 . S
O219 C243 1.263 . S
O220 Gd179 2.427 . S
O220 C243 1.252 . S
O221 Gd178 2.307 . S
O221 C236 1.261 . S
O222 Gd179 2.388 . S
O222 C236 1.252 . S
C223 O211 1.265 . S
C223 O212 1.242 . S
C224 O215 1.261 1_545 S
C224 O216 1.252 . S
C225 C228 1.394 . S
C225 C230 1.370 . S
C225 C231 1.500 . S
C226 C229 1.383 . S
C226 C230 1.395 . S
C227 C228 1.396 . S
C227 C229 1.365 . S
C227 H244 0.929 . S
C228 C225 1.394 . S
C228 C227 1.396 . S
C228 H245 0.930 . S
C229 C226 1.383 . S
C229 C227 1.365 . S
C229 H246 0.931 . S
C230 C225 1.370 . S
C230 C226 1.395 . S
C230 H247 0.930 1_545 S
C231 Gd178 2.805 1_545 S
C231 O213 1.263 1_545 S
C231 O214 1.252 . S
C231 C225 1.500 . S
C232 H194 0.930 . S
C232 C208 1.417 . S
C232 C233 1.329 . S
C233 C203 1.437 . S
C233 H204 0.929 . S
C233 C232 1.329 . S
H234 C207 0.931 . S
C235 O217 1.265 . S
C235 O218 1.242 . S
C236 O221 1.261 . S
C236 O222 1.252 . S
C237 C240 1.394 . S
C237 C242 1.370 1_455 S
C237 C243 1.500 . S
C238 C241 1.383 . S
C238 C242 1.395 . S
C239 C240 1.396 . S
C239 C241 1.365 1_455 S
C239 H248 0.929 . S
C240 C237 1.394 . S
C240 C239 1.396 . S
C240 H249 0.930 . S
C241 C238 1.383 . S
C241 C239 1.365 1_655 S
C241 H250 0.931 . S
C242 C237 1.370 1_655 S
C242 C238 1.395 . S
C242 H251 0.930 . S
C243 Gd179 2.805 . S
C243 O219 1.263 . S
C243 O220 1.252 . S
C243 C237 1.500 . S
H244 C227 0.929 . S
H245 C228 0.930 . S
H246 C229 0.931 . S
H247 C230 0.930 1_565 S
H248 C239 0.929 . S
H249 C240 0.930 . S
H250 C241 0.931 . S
H251 C242 0.930 . S
C252 C254 1.422 . S
C252 C256 1.415 . S
C252 N258 1.369 . S
C253 C254 1.421 . S
C253 C255 1.417 . S
C253 C265 1.422 . S
C254 C252 1.422 . S
C254 C253 1.421 . S
C254 N264 1.359 . S
C255 C253 1.417 . S
C255 C257 1.329 . S
C255 H274 0.930 . S
C256 C252 1.415 . S
C256 C257 1.437 . S
C256 C260 1.413 . S
C257 C255 1.329 . S
C257 C256 1.437 . S
C257 H279 0.929 . S
N258 C252 1.369 . S
N258 C259 1.338 . S
N258 Gd263 2.622 1_565 S
C259 N258 1.338 . S
C259 C261 1.378 . S
C259 H271 0.929 . S
C260 C256 1.413 . S
C260 C261 1.348 . S
C260 H276 0.931 . S
C261 C259 1.378 . S
C261 C260 1.348 . S
C261 H277 0.930 . S
Gd262 N282 2.622 . S
Gd262 N289 2.570 1_655 S
Gd262 O296 2.353 . S
Gd262 O297 2.468 . S
Gd262 O298 2.427 . S
Gd262 O300 2.388 . S
Gd262 O301 2.386 . S
Gd262 O305 2.307 . S
Gd262 C315 2.805 . S
Gd263 N258 2.622 1_545 S
Gd263 N264 2.570 1_545 S
Gd263 O295 2.386 . S
Gd263 O299 2.307 . S
Gd263 O302 2.353 . S
Gd263 O303 2.468 . S
Gd263 O304 2.427 1_545 S
Gd263 O306 2.388 1_545 S
Gd263 C327 2.805 1_545 S
N264 C254 1.359 . S
N264 Gd263 2.570 1_565 S
N264 C266 1.343 1_565 S
C265 C253 1.422 . S
C265 C267 1.321 1_565 S
C265 H273 0.931 . S
C266 N264 1.343 1_545 S
C266 C267 1.390 . S
C266 H268 0.931 . S
C267 C265 1.321 1_545 S
C267 C266 1.390 . S
C267 H269 0.930 . S
H268 C266 0.931 . S
H269 C267 0.930 . S
H270 C293 0.931 . S
H271 C259 0.929 . S
H272 C294 0.930 . S
H273 C265 0.931 . S
H274 C255 0.930 . S
H275 C284 0.929 . S
H276 C260 0.931 . S
H277 C261 0.930 . S
H278 C316 0.930 . S
H279 C257 0.929 . S
H280 C285 0.931 . S
H281 C286 0.930 . S
N282 Gd262 2.622 . S
N282 C283 1.369 1_655 S
N282 C284 1.338 . S
C283 N282 1.369 1_455 S
C283 C287 1.415 1_565 S
C283 C290 1.422 . S
C284 H275 0.929 . S
C284 N282 1.338 . S
C284 C286 1.378 1_565 S
C285 H280 0.931 . S
C285 C286 1.348 . S
C285 C287 1.413 1_655 S
C286 H281 0.930 . S
C286 C284 1.378 1_545 S
C286 C285 1.348 . S
C287 C283 1.415 1_545 S
C287 C285 1.413 1_455 S
C287 C317 1.437 . S
H288 C317 0.929 . S
N289 Gd262 2.570 1_455 S
N289 C290 1.359 . S
N289 C293 1.343 . S
C290 C283 1.422 . S
C290 N289 1.359 . S
C290 C292 1.421 . S
C291 C292 1.422 . S
C291 C294 1.321 . S
C291 H318 0.931 . S
C292 C290 1.421 . S
C292 C291 1.422 . S
C292 C316 1.417 . S
C293 H270 0.931 . S
C293 N289 1.343 . S
C293 C294 1.390 . S
C294 H272 0.930 . S
C294 C291 1.321 . S
C294 C293 1.390 . S
O295 Gd263 2.386 . S
O295 C307 1.265 . S
O296 Gd262 2.353 . S
O296 C307 1.242 . S
O297 Gd262 2.468 . S
O297 C315 1.263 . S
O298 Gd262 2.427 . S
O298 C315 1.252 . S
O299 Gd263 2.307 . S
O299 C308 1.261 . S
O300 Gd262 2.388 . S
O300 C308 1.252 . S
O301 Gd262 2.386 . S
O301 C319 1.265 . S
O302 Gd263 2.353 . S
O302 C319 1.242 . S
O303 Gd263 2.468 . S
O303 C327 1.263 1_545 S
O304 Gd263 2.427 1_565 S
O304 C327 1.252 . S
O305 Gd262 2.307 . S
O305 C320 1.261 1_545 S
O306 Gd263 2.388 1_565 S
O306 C320 1.252 . S
C307 O295 1.265 . S
C307 O296 1.242 . S
C308 O299 1.261 . S
C308 O300 1.252 . S
C309 C312 1.394 . S
C309 C314 1.370 1_655 S
C309 C315 1.500 . S
C310 C313 1.383 . S
C310 C314 1.395 . S
C311 C312 1.396 . S
C311 C313 1.365 1_655 S
C311 H328 0.929 . S
C312 C309 1.394 . S
C312 C311 1.396 . S
C312 H329 0.930 . S
C313 C310 1.383 . S
C313 C311 1.365 1_455 S
C313 H330 0.931 . S
C314 C309 1.370 1_455 S
C314 C310 1.395 . S
C314 H331 0.930 . S
C315 Gd262 2.805 . S
C315 O297 1.263 . S
C315 O298 1.252 . S
C315 C309 1.500 . S
C316 H278 0.930 . S
C316 C292 1.417 . S
C316 C317 1.329 1_565 S
C317 C287 1.437 . S
C317 H288 0.929 . S
C317 C316 1.329 1_545 S
H318 C291 0.931 . S
C319 O301 1.265 . S
C319 O302 1.242 . S
C320 O305 1.261 1_565 S
C320 O306 1.252 . S
C321 C324 1.394 . S
C321 C326 1.370 . S
C321 C327 1.500 . S
C322 C325 1.383 . S
C322 C326 1.395 . S
C323 C324 1.396 . S
C323 C325 1.365 . S
C323 H332 0.929 . S
C324 C321 1.394 . S
C324 C323 1.396 . S
C324 H333 0.930 . S
C325 C322 1.383 . S
C325 C323 1.365 . S
C325 H334 0.931 . S
C326 C321 1.370 . S
C326 C322 1.395 . S
C326 H335 0.930 1_565 S
C327 Gd263 2.805 1_565 S
C327 O303 1.263 1_565 S
C327 O304 1.252 . S
C327 C321 1.500 . S
H328 C311 0.929 . S
H329 C312 0.930 . S
H330 C313 0.931 . S
H331 C314 0.930 . S
H332 C323 0.929 . S
H333 C324 0.930 . S
H334 C325 0.931 . S
H335 C326 0.930 1_545 S
C140 C68 1.959 1_556 S
C236 C308 1.959 . S
C56 C152 1.959 1_466 S
C320 C224 1.959 1_665 S
C322 C67 2.142 1_565 S
C154 C235 2.141 1_545 S
C139 C226 2.142 1_565 S
C307 C58 2.142 1_545 S
C151 C238 2.141 . S
C319 C70 2.142 . S
C310 C55 2.142 . S
C223 C142 2.142 . S
