# Generated by pormake.
# Topology rkf, (6)-cn, num edge types: 1
# Building blocks:
#     Node 0, Type 0, BuildingBlock: HISSIN_clean_sbu_0, # of connection points: 6
#     Node 1, Type 0, BuildingBlock: HISSIN_clean_sbu_0, # of connection points: 6
#     Node 2, Type 0, BuildingBlock: HISSIN_clean_sbu_0, # of connection points: 6
#     Node 3, Type 0, BuildingBlock: HISSIN_clean_sbu_0, # of connection points: 6
#     Node 4, Type 0, BuildingBlock: HISSIN_clean_sbu_0, # of connection points: 6
#     Node 5, Type 0, BuildingBlock: HISSIN_clean_sbu_0, # of connection points: 6
#     Edge 6, Type (0, 0), BuildingBlock: ZUJKAS_clean_linker_0, # of connection points: 2
#     Edge 7, Type (0, 0), BuildingBlock: ZUJKAS_clean_linker_0, # of connection points: 2
#     Edge 8, Type (0, 0), BuildingBlock: ZUJKAS_clean_linker_0, # of connection points: 2
#     Edge 9, Type (0, 0), BuildingBlock: ZUJKAS_clean_linker_0, # of connection points: 2
#     Edge 10, Type (0, 0), BuildingBlock: ZUJKAS_clean_linker_0, # of connection points: 2
#     Edge 11, Type (0, 0), BuildingBlock: ZUJKAS_clean_linker_0, # of connection points: 2
#     Edge 12, Type (0, 0), BuildingBlock: ZUJKAS_clean_linker_0, # of connection points: 2
#     Edge 13, Type (0, 0), BuildingBlock: ZUJKAS_clean_linker_0, # of connection points: 2
#     Edge 14, Type (0, 0), BuildingBlock: ZUJKAS_clean_linker_0, # of connection points: 2
#     Edge 15, Type (0, 0), BuildingBlock: ZUJKAS_clean_linker_0, # of connection points: 2
#     Edge 16, Type (0, 0), BuildingBlock: ZUJKAS_clean_linker_0, # of connection points: 2
#     Edge 17, Type (0, 0), BuildingBlock: ZUJKAS_clean_linker_0, # of connection points: 2
#     Edge 18, Type (0, 0), BuildingBlock: ZUJKAS_clean_linker_0, # of connection points: 2
#     Edge 19, Type (0, 0), BuildingBlock: ZUJKAS_clean_linker_0, # of connection points: 2
#     Edge 20, Type (0, 0), BuildingBlock: ZUJKAS_clean_linker_0, # of connection points: 2
#     Edge 21, Type (0, 0), BuildingBlock: ZUJKAS_clean_linker_0, # of connection points: 2
#     Edge 22, Type (0, 0), BuildingBlock: ZUJKAS_clean_linker_0, # of connection points: 2
#     Edge 23, Type (0, 0), BuildingBlock: ZUJKAS_clean_linker_0, # of connection points: 2
# Relax obj value: 0.536
# Max RMSD: 0.256
# Mean RMSD: 0.256
data_MOF--net-rkf--node1-HISSIN_clean_sbu_0--edge1-ZUJKAS_clean_linker_0
_symmetry_space_group_name_H-M    P1
_symmetry_Int_Tables_number       1
_symmetry_cell_setting            triclinic
loop_
_symmetry_equiv_pos_as_xyz
'x, y, z'
_cell_length_a     31.802315
_cell_length_b     31.502062
_cell_length_c     57.617624
_cell_angle_alpha  89.369895
_cell_angle_beta   90.544525
_cell_angle_gamma 120.55511
loop_
_atom_site_label
_atom_site_type_symbol
_atom_site_fract_x
_atom_site_fract_y
_atom_site_fract_z
_atom_type_partial_charge
Eu0 Eu 0.29536 0.14803 0.12143 0.0
Eu1 Eu 0.38497 0.25917 0.1096 0.0
C2 C 0.40389 0.17343 0.12416 0.0
C3 C 0.2077 0.01428 0.14325 0.0
C4 C 0.21964 0.01958 0.16692 0.0
C5 C 0.16399 0.92533 0.14783 0.0
C6 C 0.20345 0.97779 0.18103 0.0
C7 C 0.17997 0.96706 0.1338 0.0
C8 C 0.17544 0.93017 0.17162 0.0
C9 C 0.22504 0.05695 0.1277 0.0
O10 O 0.35664 0.22588 1.07362 0.0
O11 O 0.31653 0.1443 1.08425 0.0
C12 C 0.3338 0.17876 1.06807 0.0
O13 O 0.26393 0.18645 1.10051 0.0
O14 O 0.46343 0.30985 0.11357 0.0
O15 O 0.41956 0.33284 1.09434 0.0
O16 O 0.31981 0.26809 0.10696 0.0
C17 C 0.27738 0.23339 1.09932 0.0
O18 O 0.29902 0.18929 0.1541 0.0
O19 O 0.3726 0.26111 0.14866 0.0
O20 O 0.41014 0.20436 0.1074 0.0
O21 O 0.22307 0.09505 0.13493 0.0
O22 O 0.26515 0.06942 0.11654 0.0
O23 O 0.36408 0.15438 0.13662 0.0
C24 C 0.49553 0.35522 1.07901 0.0
C25 C 0.52076 0.40384 1.0707 0.0
C26 C 0.51354 0.32755 1.04333 0.0
C27 C 0.54062 0.41401 1.04838 0.0
C28 C 0.49387 0.31748 1.0656 0.0
C29 C 0.53494 0.37551 1.03402 0.0
C30 C 0.46358 0.34232 1.09925 0.0
C31 C 0.33454 0.23194 0.16179 0.0
H32 H 0.24135 0.05586 0.17444 0.0
H33 H 0.14304 0.8893 0.13999 0.0
H34 H 0.21226 0.98281 0.19937 0.0
H35 H 0.17091 0.96244 0.11547 0.0
H36 H 0.52219 0.43335 1.08081 0.0
H37 H 0.50788 0.29687 1.03273 0.0
H38 H 0.55741 0.45143 1.04177 0.0
H39 H 0.47405 0.27955 1.07163 0.0
Eu40 Eu 0.2807 0.32335 0.45279 0.0
Eu41 Eu 0.26199 0.41468 0.44203 0.0
C42 C 0.36499 0.43409 0.46045 0.0
C43 C 0.32655 0.23789 0.47538 0.0
C44 C 0.35731 0.26975 0.49269 0.0
C45 C 0.34935 0.17788 0.48664 0.0
C46 C 0.38402 0.25569 0.50694 0.0
C47 C 0.32274 0.19201 0.47242 0.0
C48 C 0.38031 0.20957 0.50406 0.0
C49 C 0.30026 0.2528 0.4594 0.0
O50 O 0.26546 0.38717 0.40575 0.0
O51 O 0.3078 0.34886 0.41605 0.0
C52 C 0.29028 0.36568 0.39995 0.0
O53 O 0.21136 0.28999 0.43156 0.0
O54 O 0.28454 0.48588 0.42553 0.0
O55 O 0.22595 0.45552 0.45063 0.0
O56 O 0.18995 0.34989 0.43194 0.0
C57 C 0.18081 0.30555 0.42689 0.0
O58 O 0.23544 0.32106 0.48337 0.0
O59 O 0.25373 0.40122 0.48146 0.0
O60 O 0.34272 0.44589 0.44472 0.0
O61 O 0.26095 0.25094 0.46714 0.0
O62 O 0.32729 0.29251 0.44723 0.0
O63 O 0.3426 0.39036 0.47033 0.0
C64 C 0.21949 0.50004 0.41885 0.0
C65 C 0.16996 0.46515 0.41518 0.0
C66 C 0.21478 0.5519 0.38865 0.0
C67 C 0.14328 0.47329 0.39819 0.0
C68 C 0.24139 0.54396 0.40585 0.0
C69 C 0.16572 0.51617 0.38437 0.0
C70 C 0.24938 0.48954 0.43492 0.0
C71 C 0.23573 0.35895 0.49285 0.0
H72 H 0.36076 0.30547 0.49509 0.0
H73 H 0.34603 0.14235 0.48388 0.0
H74 H 0.40696 0.28056 0.52045 0.0
H75 H 0.29947 0.16725 0.45894 0.0
H76 H 0.15221 0.43071 0.42481 0.0
H77 H 0.23291 0.58522 0.37821 0.0
H78 H 0.10583 0.44465 0.39498 0.0
H79 H 0.27956 0.57131 0.40844 0.0
Eu80 Eu 0.09339 0.30383 0.78634 0.0
Eu81 Eu 0.98045 0.27884 0.77464 0.0
C82 C 0.06517 0.38866 0.78552 0.0
C83 C 0.21359 0.31443 0.80987 0.0
C84 C 0.25059 0.30822 0.80045 0.0
C85 C 0.24476 0.31476 0.84851 0.0
C86 C 0.28533 0.30669 0.81489 0.0
C87 C 0.20999 0.31622 0.83405 0.0
C88 C 0.2837 0.31159 0.83901 0.0
C89 C 0.18258 0.32371 0.79404 0.0
O90 O 0.01801 0.29652 0.73897 0.0
O91 O 0.08758 0.29431 0.74754 0.0
C92 C 0.05827 0.29759 0.73238 0.0
O93 O 0.04242 0.22347 0.79388 0.0
O94 O 0.93209 0.30096 0.75856 0.0
O95 O 0.90141 0.23251 0.77793 0.0
O96 O 0.97696 0.20648 0.7705 0.0
C97 C 0.00071 0.19214 0.78403 0.0
O98 O 0.05976 0.28895 0.82232 0.0
O99 O 0.97935 0.26424 0.81374 0.0
O100 O 0.01958 0.35505 0.78932 0.0
O101 O 0.15157 0.28729 0.78105 0.0
O102 O 0.16502 0.35042 0.80176 0.0
O103 O 0.09782 0.37689 0.77992 0.0
C104 C 0.85934 0.23361 0.74471 0.0
C105 C 0.87718 0.22152 0.7253 0.0
C106 C 0.77789 0.19114 0.72784 0.0
C107 C 0.8457 0.19435 0.70733 0.0
C108 C 0.80966 0.21858 0.74591 0.0
C109 C 0.79559 0.17825 0.70851 0.0
C110 C 0.89245 0.25988 0.76401 0.0
C111 C 0.01394 0.27087 0.82874 0.0
H112 H 0.25392 0.30676 0.78182 0.0
H113 H 0.24204 0.31759 0.86709 0.0
H114 H 0.31496 0.30445 0.80705 0.0
H115 H 0.18133 0.32039 0.84173 0.0
H116 H 0.91547 0.23278 0.72413 0.0
H117 H 0.73949 0.1792 0.72921 0.0
H118 H 0.86073 0.18605 0.69243 0.0
H119 H 0.79539 0.2275 0.7609 0.0
Eu120 Eu 0.90509 0.11037 0.12064 0.0
Eu121 Eu 0.8254 -0.00433 0.10768 0.0
C122 C 0.79106 0.06848 0.12541 0.0
C123 C 0.9687 0.23958 0.1473 0.0
C124 C 0.94232 0.22417 0.16807 0.0
C125 C 0.00473 0.32475 0.15912 0.0
C126 C 0.94752 0.25897 0.18443 0.0
C127 C -0.00041 0.28993 0.14283 0.0
C128 C 0.97899 0.30967 0.18018 0.0
C129 C 0.96297 0.20385 0.1297 0.0
O130 O 0.85094 0.03124 1.07177 0.0
O131 O 0.88677 0.11242 1.08251 0.0
C132 C 0.87181 0.07852 1.06629 0.0
O133 O 0.94912 0.08517 1.10092 0.0
O134 O 0.7555 0.94092 1.09267 0.0
O135 O 0.79718 0.91731 0.1134 0.0
O136 O 0.89522 0.00185 1.09575 0.0
C137 C 0.93845 0.04146 1.09346 0.0
O138 O 0.91035 0.06849 0.15161 0.0
O139 O 0.83637 -0.00229 0.1472 0.0
O140 O 0.78459 0.03629 0.10958 0.0
O141 O 0.97209 0.16947 0.13614 0.0
O142 O 0.92373 0.1868 0.11694 0.0
O143 O 0.83305 0.09318 0.13627 0.0
C144 C 0.75303 0.86831 1.08171 0.0
C145 C 0.79192 0.87812 1.06708 0.0
C146 C 0.70044 0.79353 1.06027 0.0
C147 C 0.78511 0.84604 1.0491 0.0
C148 C 0.7074 0.82568 1.07842 0.0
C149 C 0.73919 0.80365 1.04533 0.0
C150 C 0.75966 0.90371 1.09968 0.0
C151 C 0.87545 0.02616 0.15986 0.0
H152 H 0.91796 0.18531 0.17165 0.0
H153 H 0.0288 0.36349 0.15522 0.0
H154 H 0.92774 0.24609 0.20061 0.0
H155 H 0.0197 0.30234 0.12671 0.0
H156 H 0.82727 0.91122 1.06925 0.0
H157 H 0.6647 0.76122 1.05773 0.0
H158 H 0.81539 0.85556 1.03756 0.0
H159 H 0.67701 0.81778 1.08959 0.0
Eu160 Eu 0.93155 0.93413 0.45258 0.0
Eu161 Eu 0.9633 0.85194 0.44211 0.0
C162 C 0.85776 0.82018 0.46125 0.0
C163 C 0.86947 0.00335 0.47565 0.0
C164 C 0.82895 0.96462 0.48697 0.0
C165 C 0.85399 0.06221 0.49475 0.0
C166 C 0.801 0.97472 0.50205 0.0
C167 C 0.88164 0.05209 0.47957 0.0
C168 C 0.81349 0.02365 0.50618 0.0
C169 C 0.89838 -0.00617 0.45904 0.0
O170 O 0.95039 0.87185 0.4054 0.0
O171 O 0.90911 0.91145 0.41506 0.0
C172 C 0.92529 0.89321 0.39934 0.0
O173 O 0.00182 0.97663 0.43268 0.0
O174 O 0.94112 0.77674 0.43219 0.0
O175 O 0.01383 0.82476 0.4459 0.0
O176 O 0.02472 0.91913 0.42532 0.0
C177 C 0.03128 0.96362 0.42345 0.0
O178 O 0.97739 0.94205 0.48424 0.0
O179 O 0.97954 0.87064 0.48084 0.0
O180 O 0.88182 0.81213 0.44534 0.0
O181 O 0.94181 0.00383 0.46566 0.0
O182 O 0.87513 0.95279 0.44748 0.0
O183 O 0.8765 0.86373 0.47075 0.0
C184 C 0.00442 0.76836 0.41687 0.0
C185 C 0.03697 0.80397 0.40116 0.0
C186 C 0.00312 0.70406 0.39344 0.0
C187 C 0.05224 0.78976 0.38168 0.0
C188 C -0.01188 0.71841 0.41311 0.0
C189 C 0.03489 0.73962 0.3774 0.0
C190 C -0.01574 0.78269 0.436 0.0
C191 C -0.01206 0.90975 0.49286 0.0
H192 H 0.81894 0.92664 0.48419 0.0
H193 H 0.86423 0.10024 0.49755 0.0
H194 H 0.77037 0.94439 0.51089 0.0
H195 H 0.91254 0.08237 0.47083 0.0
H196 H 0.04935 0.84267 0.40354 0.0
H197 H -0.01089 0.66521 0.39051 0.0
H198 H 0.07578 0.81797 0.36937 0.0
H199 H 0.96266 0.69046 0.42502 0.0
Eu200 Eu 0.13248 0.96337 0.78567 0.0
Eu201 Eu 0.24833 0.00646 0.77511 0.0
C202 C 0.17443 0.89193 0.78485 0.0
C203 C 0.00099 0.9018 0.80791 0.0
C204 C 0.95342 0.87131 0.79957 0.0
C205 C 0.97329 0.87148 0.84692 0.0
C206 C 0.91588 0.84098 0.81478 0.0
C207 C 0.01088 0.90153 0.83165 0.0
C208 C 0.9253 0.84083 0.83867 0.0
C209 C 0.03988 0.93206 0.7914 0.0
O210 O 0.21436 0.00766 0.73979 0.0
O211 O 0.13595 0.94744 0.74778 0.0
C212 C 0.16968 0.97539 0.73266 0.0
O213 O 0.17174 0.04216 0.7732 0.0
O214 O 0.31135 -0.00365 0.77655 0.0
O215 O 0.31852 0.06349 0.76184 0.0
O216 O 0.24266 0.06755 0.79154 0.0
C217 C 0.20713 0.07515 0.78611 0.0
O218 O 0.16541 0.98574 0.82168 0.0
O219 O 0.24395 0.00243 0.81499 0.0
O220 O 0.20757 0.92377 0.77052 0.0
O221 O 0.07482 0.97501 0.79852 0.0
O222 O 0.05616 0.90859 0.77941 0.0
O223 O 0.1476 0.90391 0.79715 0.0
C224 C 0.36509 0.03355 0.74518 0.0
C225 C 0.34039 0.01642 0.72402 0.0
C226 C 0.44098 0.05306 0.72651 0.0
C227 C 0.36608 0.01928 0.70404 0.0
C228 C 0.41517 0.05054 0.74651 0.0
C229 C 0.417 0.039 0.70487 0.0
C230 C 0.33938 0.03733 0.76528 0.0
C231 C 0.20939 -0.00209 0.82929 0.0
H232 H 0.94536 0.87075 0.78122 0.0
H233 H 0.98173 0.87312 0.86525 0.0
H234 H 0.87958 0.81742 0.80779 0.0
H235 H 0.04751 0.92471 0.83841 0.0
H236 H 0.30161 0.00308 0.72274 0.0
H237 H 0.47997 0.06778 0.72784 0.0
H238 H 0.34628 0.0089 0.68774 0.0
H239 H 0.43463 0.06357 0.76283 0.0
H240 H 0.03547 0.07664 1.09888 0.0
H241 H 0.09398 0.10534 1.06717 0.0
H242 H 0.97571 0.04118 1.01749 0.0
H243 H 0.91713 0.008 1.04953 0.0
H244 H 0.03544 0.15236 1.02197 0.0
H245 H 0.15021 0.07302 1.0061 0.0
H246 H 0.08608 0.0354 1.01339 0.0
H247 H 0.13189 0.06178 1.03596 0.0
C248 C 0.02219 0.06577 1.0813 0.0
C249 C 0.97211 0.0406 1.07653 0.0
C250 C 0.0555 0.08215 1.06312 0.0
C251 C 0.03909 0.07553 1.03993 0.0
C252 C -0.01089 0.04608 1.03519 0.0
H253 H 0.3102 0.27903 1.05812 0.0
H254 H 0.25749 0.26443 1.02428 0.0
C255 C 0.95578 0.02747 1.05351 0.0
C256 C 0.07283 0.11125 1.02266 0.0
H257 H 0.19542 0.16166 1.02067 0.0
C258 C 0.07038 0.15439 1.02026 0.0
C259 C 0.11778 0.11397 1.01873 0.0
C260 C 0.12141 0.06821 1.0184 0.0
C261 C 0.11325 0.20058 1.02175 0.0
C262 C 0.15803 0.2022 1.02509 0.0
C263 C 0.16063 0.16023 1.01955 0.0
C264 C 0.1908 0.2322 1.04416 0.0
C265 C 0.10955 0.246 1.02453 0.0
C266 C 0.1711 0.22155 1.06672 0.0
C267 C 0.20078 0.22768 1.08584 0.0
C268 C 0.25075 0.24665 1.08275 0.0
C269 C 0.27159 0.26467 1.06082 0.0
C270 C 0.24161 0.25665 1.04147 0.0
H271 H 0.0812 0.2447 1.01265 0.0
H272 H 0.09839 0.24742 1.04257 0.0
H273 H 0.14509 0.27999 1.02102 0.0
H274 H 0.13193 0.20194 1.06928 0.0
H275 H 0.18403 0.213 1.10255 0.0
H276 H 0.09624 0.06172 0.42653 0.0
H277 H 0.12067 0.11872 0.39376 0.0
H278 H 0.05731 -0.00356 0.3463 0.0
H279 H 0.037 0.93939 0.3792 0.0
H280 H 0.16019 0.13813 0.34305 0.0
H281 H 0.95932 0.05076 0.35102 0.0
H282 H -0.0113 0.03524 0.37367 0.0
H283 H -0.01092 0.01644 0.34438 0.0
C284 C 0.09049 0.04725 0.40908 0.0
C285 C 0.0641 -0.00359 0.4053 0.0
C286 C 0.10411 0.07971 0.3903 0.0
C287 C 0.08941 0.06164 0.36765 0.0
C288 C 0.06879 0.01111 0.36361 0.0
H289 H 0.161 0.33654 0.38637 0.0
H290 H 0.1187 0.28318 0.35317 0.0
C291 C 0.05712 0.97863 0.38244 0.0
C292 C 0.08364 0.09416 0.35089 0.0
H293 H 0.00704 0.13863 0.3567 0.0
C294 C 0.12603 0.13781 0.34443 0.0
C295 C 0.03877 0.09348 0.35099 0.0
C296 C -0.00889 0.04638 0.35515 0.0
C297 C 0.12662 0.18263 0.34456 0.0
C298 C 0.0849 0.1828 0.35277 0.0
C299 C 0.03989 0.13855 0.3519 0.0
C300 C 0.09245 0.21532 0.37269 0.0
C301 C 0.17435 0.22975 0.3408 0.0
C302 C 0.08807 0.195 0.39505 0.0
C303 C 0.11302 0.22515 0.41377 0.0
C304 C 0.14103 0.27615 0.41059 0.0
C305 C 0.13934 0.29705 0.38914 0.0
C306 C 0.1154 0.26666 0.37014 0.0
H307 H 0.19807 0.22382 0.32889 0.0
H308 H 0.1682 0.25865 0.33319 0.0
H309 H 0.19372 0.24301 0.35766 0.0
H310 H 0.07004 0.15546 0.39759 0.0
H311 H 0.11385 0.2084 0.43016 0.0
H312 H 0.14779 0.11235 0.77831 0.0
H313 H 0.10223 0.12553 0.80829 0.0
H314 H 0.18862 0.10767 0.86136 0.0
H315 H 0.238 0.09972 0.83122 0.0
H316 H 0.0717 0.0257 0.85038 0.0
H317 H 0.11987 0.21426 0.87272 0.0
H318 H 0.13607 0.21182 0.84319 0.0
H319 H 0.16536 0.19753 0.86642 0.0
C320 C 0.15894 0.11405 0.79627 0.0
C321 C 0.19492 0.1029 0.80248 0.0
C322 C 0.13279 0.12132 0.81343 0.0
C323 C 0.14129 0.11602 0.83697 0.0
C324 C 0.18128 0.11129 0.84327 0.0
H325 H 0.93538 0.16246 0.81858 0.0
H326 H 0.93745 0.11183 0.85031 0.0
C327 C 0.20912 0.10641 0.82599 0.0
C328 C 0.10134 0.10413 0.85327 0.0
H329 H 0.03433 0.15906 0.8584 0.0
C330 C 0.0634 0.05458 0.85348 0.0
C331 C 0.09059 0.14097 0.85879 0.0
C332 C 0.13041 0.19415 0.86056 0.0
C333 C 0.01468 0.04316 0.85196 0.0
C334 C 0.00532 0.0823 0.85034 0.0
C335 C 0.04176 0.12912 0.85808 0.0
C336 C 0.97547 0.08356 0.83071 0.0
C337 C 0.97514 0.99092 0.84724 0.0
C338 C -0.0092 0.07992 0.80829 0.0
C339 C -0.00825 0.11072 0.79047 0.0
C340 C 0.97473 0.14299 0.79459 0.0
C341 C 0.94894 0.13782 0.81512 0.0
C342 C 0.94972 0.10849 0.83331 0.0
H343 H 0.97873 0.96546 0.85947 0.0
H344 H 0.93823 0.98617 0.84899 0.0
H345 H 0.97924 0.98069 0.82938 0.0
H346 H 0.01049 0.06068 0.8056 0.0
H347 H 0.01194 0.11428 0.77481 0.0
H348 H 0.50985 0.42972 1.00642 0.0
H349 H 0.49704 0.42239 0.9648 0.0
H350 H 0.55944 0.32892 0.96156 0.0
H351 H 0.5722 0.33578 1.00374 0.0
H352 H 0.54743 0.43456 0.9236 0.0
H353 H 0.41837 0.2354 0.94296 0.0
H354 H 0.44509 0.27964 0.96606 0.0
H355 H 0.48165 0.26126 0.95028 0.0
C356 C 0.52277 0.40916 0.99689 0.0
C357 C 0.54132 0.38265 1.00851 0.0
C358 C 0.51517 0.40482 0.97299 0.0
C359 C 0.52602 0.37399 0.96019 0.0
C360 C 0.54961 0.35184 0.97124 0.0
H361 H 0.33222 0.26006 0.83829 0.0
H362 H 0.40262 0.27466 0.86227 0.0
C363 C 0.55701 0.35593 0.9953 0.0
C364 C 0.50538 0.36003 0.93648 0.0
H365 H 0.40589 0.26774 0.90897 0.0
C366 C 0.5173 0.39772 0.92009 0.0
C367 C 0.46647 0.31174 0.93174 0.0
C368 C 0.45178 0.26955 0.94864 0.0
C369 C 0.48837 0.38953 0.90024 0.0
C370 C 0.4462 0.34273 0.89696 0.0
C371 C 0.4377 0.30373 0.91184 0.0
C372 C 0.40635 0.33564 0.88103 0.0
C373 C 0.50177 0.4318 0.88362 0.0
C374 C 0.38439 0.36415 0.88408 0.0
C375 C 0.34429 0.35574 0.87062 0.0
C376 C 0.32491 0.31831 0.85391 0.0
C377 C 0.34663 0.2894 0.85094 0.0
C378 C 0.38685 0.29777 0.86454 0.0
H379 H 0.54199 0.45695 0.88307 0.0
H380 H 0.48823 0.41853 0.8658 0.0
H381 H 0.48538 0.4535 0.88968 0.0
H382 H 0.39777 0.39249 0.89721 0.0
H383 H 0.32882 0.37905 0.87315 0.0
H384 H 0.07198 0.49819 0.38139 0.0
H385 H 0.02397 0.48313 0.34568 0.0
H386 H 0.15248 0.52419 0.30501 0.0
H387 H 0.20056 0.54017 0.34042 0.0
H388 H 0.08762 0.54805 0.28305 0.0
H389 H -0.00592 0.35395 0.31579 0.0
H390 H -0.0104 0.39812 0.33341 0.0
H391 H 0.04771 0.40243 0.32977 0.0
C392 C 0.09015 0.50535 0.36479 0.0
C393 C 0.13976 0.51956 0.36363 0.0
C394 C 0.06275 0.49673 0.34445 0.0
C395 C 0.08448 0.50135 0.32277 0.0
C396 C 0.13499 0.52029 0.32158 0.0
H397 H 0.06542 0.3899 0.19317 0.0
H398 H 0.08052 0.44387 0.22598 0.0
C399 C 0.16247 0.52944 0.34186 0.0
C400 C 0.05447 0.479 0.30175 0.0
H401 H 0.98163 0.36651 0.27721 0.0
C402 C 0.0635 0.50846 0.28184 0.0
C403 C 0.02297 0.42729 0.30024 0.0
C404 C 0.01308 0.39339 0.32083 0.0
C405 C 0.04416 0.48723 0.26016 0.0
C406 C 0.01565 0.43534 0.25843 0.0
C407 C 0.00349 0.40631 0.27862 0.0
C408 C 0.00457 0.40962 0.23591 0.0
C409 C 0.05593 0.5204 0.23921 0.0
C410 C 0.95678 0.37235 0.2305 0.0
C411 C 0.94803 0.34109 0.21175 0.0
C412 C -0.013 0.34639 0.19819 0.0
C413 C 0.03449 0.38524 0.20302 0.0
C414 C 0.04318 0.41641 0.22173 0.0
H415 H 0.06137 0.55687 0.24413 0.0
H416 H 0.09045 0.52676 0.2314 0.0
H417 H 0.02657 0.50366 0.22589 0.0
H418 H 0.92655 0.36619 0.24138 0.0
H419 H 0.91095 0.31193 0.20826 0.0
H420 H 0.79481 0.10206 0.68659 0.0
H421 H 0.75525 0.06525 0.65008 0.0
H422 H 0.67929 0.14634 0.65112 0.0
H423 H 0.72188 0.18623 0.6873 0.0
H424 H 0.66661 0.01217 0.63118 0.0
H425 H 0.75821 0.2025 0.59362 0.0
H426 H 0.77042 0.19211 0.62306 0.0
H427 H 0.71263 0.18613 0.61555 0.0
C428 C 0.76954 0.11199 0.67914 0.0
C429 C 0.76284 0.14837 0.68933 0.0
C430 C 0.74631 0.09036 0.65838 0.0
C431 C 0.71527 0.10403 0.64745 0.0
C432 C 0.70423 0.13634 0.65887 0.0
H433 H 0.7142 0.98127 0.51083 0.0
H434 H 0.6706 -0.00157 0.54094 0.0
C435 C 0.72821 0.15873 0.67964 0.0
C436 C 0.70157 0.08947 0.6229 0.0
H437 H 0.74272 0.13841 0.56908 0.0
C438 C 0.68173 0.03951 0.61738 0.0
C439 C 0.72043 0.12522 0.60486 0.0
C440 C 0.74175 0.17952 0.60941 0.0
C441 C 0.68762 0.02524 0.59522 0.0
C442 C 0.71229 0.06195 0.57803 0.0
C443 C 0.72467 0.11064 0.58252 0.0
C444 C 0.7364 0.05365 0.55816 0.0
C445 C 0.6726 0.97208 0.59126 0.0
C446 C 0.78765 0.08 0.55746 0.0
C447 C 0.81236 0.07082 0.54027 0.0
C448 C 0.78639 0.03478 0.52345 0.0
C449 C 0.73501 0.00891 0.5238 0.0
C450 C 0.71012 0.0186 0.54096 0.0
H451 H 0.65752 0.94908 0.60716 0.0
H452 H 0.6442 0.95645 0.57749 0.0
H453 H 0.70434 0.96944 0.58539 0.0
H454 H 0.80875 0.1069 0.57068 0.0
H455 H 0.85192 0.09089 0.54059 0.0
H456 H 0.79871 0.77235 1.02852 0.0
H457 H 0.79845 0.74526 0.98899 0.0
H458 H 0.66167 0.73864 0.97537 0.0
H459 H 0.66262 0.76766 1.0147 0.0
H460 H 0.7364 0.67083 0.95592 0.0
H461 H 0.76292 0.85707 0.93681 0.0
H462 H 0.76496 0.83726 0.96603 0.0
H463 H 0.7075 0.81302 0.95111 0.0
C464 C 0.76799 0.76401 1.01728 0.0
C465 C 0.73146 0.77351 1.02443 0.0
C466 C 0.76761 0.74802 0.99478 0.0
C467 C 0.73061 0.7411 0.97916 0.0
C468 C 0.69089 0.74453 0.98713 0.0
H469 H 0.83136 0.8227 0.83752 0.0
H470 H 0.76873 0.78163 0.86711 0.0
C471 C 0.6914 0.76089 1.00965 0.0
C472 C 0.73951 0.74069 0.95408 0.0
H473 H 0.78228 0.81961 0.90789 0.0
C474 C 0.74526 0.70271 0.94513 0.0
C475 C 0.75091 0.78233 0.94005 0.0
C476 C 0.74661 0.82496 0.9489 0.0
C477 C 0.76497 0.7067 0.92295 0.0
C478 C 0.78018 0.75024 0.90976 0.0
C479 C 0.77067 0.78625 0.918 0.0
C480 C 0.8126 0.76338 0.88935 0.0
C481 C 0.77074 0.66499 0.91424 0.0
C482 C 0.85766 0.76561 0.89167 0.0
C483 C 0.89334 0.78846 0.87461 0.0
C484 C 0.88505 0.81043 0.85509 0.0
C485 C 0.83894 0.80586 0.85221 0.0
C486 C 0.80304 0.78245 0.86916 0.0
H487 H 0.74091 0.62898 0.92084 0.0
H488 H 0.7708 0.66404 0.89499 0.0
H489 H 0.80573 0.66963 0.92082 0.0
H490 H 0.86653 0.7524 0.90732 0.0
H491 H 0.92808 0.79046 0.87716 0.0
H492 H 0.12297 0.78043 0.35568 0.0
H493 H 0.13556 0.77502 0.31439 0.0
H494 H -0.01519 0.66046 0.30686 0.0
H495 H 0.97144 0.66702 0.3481 0.0
H496 H 0.11912 0.70592 0.27843 0.0
H497 H -0.00708 0.78037 0.27365 0.0
H498 H 0.0174 0.77406 0.30093 0.0
H499 H 0.97029 0.72043 0.28646 0.0
C500 C 0.09282 0.75317 0.34535 0.0
C501 C 0.04593 0.72522 0.35491 0.0
C502 C 0.10015 0.74975 0.32181 0.0
C503 C 0.06077 0.71822 0.30752 0.0
C504 C 0.01543 0.68559 0.31759 0.0
H505 H 0.08534 0.84625 0.17053 0.0
H506 H 0.05224 0.77738 0.19805 0.0
C507 C 0.00794 0.68922 0.34119 0.0
C508 C 0.06542 0.72773 0.28224 0.0
H509 H 0.04092 0.79171 0.24162 0.0
C510 C 0.10109 0.72346 0.27007 0.0
C511 C 0.0416 0.75037 0.27135 0.0
C512 C 0.00357 0.75695 0.28369 0.0
C513 C 0.11618 0.74458 0.24791 0.0
C514 C 0.09565 0.77129 0.23803 0.0
C515 C 0.05679 0.7714 0.24927 0.0
C516 C 0.11861 0.80616 0.2184 0.0
C517 C 0.15534 0.73983 0.23576 0.0
C518 C 0.1672 0.84482 0.22045 0.0
C519 C 0.18632 0.8841 0.20469 0.0
C520 C 0.15702 0.88581 0.18672 0.0
C521 C 0.10905 0.84591 0.18405 0.0
C522 C 0.09004 0.80648 0.19976 0.0
H523 H 0.15268 0.70413 0.24019 0.0
H524 H 0.15293 0.74259 0.21662 0.0
H525 H 0.19171 0.7697 0.24166 0.0
H526 H 0.1896 0.84617 0.23502 0.0
H527 H 0.22362 0.91386 0.207 0.0
H528 H 0.3916 0.98615 0.66439 0.0
H529 H 0.4214 0.0202 0.62603 0.0
H530 H 0.53757 0.15314 0.6567 0.0
H531 H 0.5056 0.12093 0.69511 0.0
H532 H 0.48213 0.17337 0.63279 0.0
H533 H 0.52034 0.05709 0.57696 0.0
H534 H 0.46329 0.01842 0.59114 0.0
H535 H 0.51855 0.05083 0.60821 0.0
C536 C 0.4242 0.02219 0.66303 0.0
C537 C 0.44501 0.05144 0.68284 0.0
C538 C 0.44193 0.04132 0.64098 0.0
C539 C 0.48168 0.08951 0.63836 0.0
C540 C 0.50671 0.11595 0.65827 0.0
H541 H 0.47495 0.26403 0.51944 0.0
H542 H 0.51518 0.24009 0.54899 0.0
C543 C 0.48839 0.09725 0.68032 0.0
C544 C 0.48817 0.11586 0.61597 0.0
H545 H 0.47976 0.09787 0.5574 0.0
C546 C 0.48353 0.1579 0.61629 0.0
C547 C 0.48986 0.09582 0.59439 0.0
C548 C 0.49882 0.05334 0.59273 0.0
C549 C 0.47558 0.17733 0.59588 0.0
C550 C 0.47283 0.15447 0.57451 0.0
C551 C 0.4815 0.11503 0.57388 0.0
C552 C 0.45349 0.16634 0.55357 0.0
C553 C 0.46592 0.21945 0.59762 0.0
C554 C 0.4063 0.13215 0.54584 0.0
C555 C 0.38323 0.1457 0.52912 0.0
C556 C 0.40701 0.19374 0.51982 0.0
C557 C 0.4554 0.22706 0.52664 0.0
C558 C 0.47855 0.21338 0.54335 0.0
H559 H 0.46349 0.22887 0.61589 0.0
H560 H 0.49596 0.2527 0.5891 0.0
H561 H 0.43131 0.21015 0.58857 0.0
H562 H 0.38626 0.09579 0.55369 0.0
H563 H 0.34586 0.11928 0.52436 0.0
H564 H 0.41313 0.12243 0.16112 0.0
H565 H 0.47927 0.10498 0.16812 0.0
H566 H 0.54547 0.17581 1.10318 0.0
H567 H 0.48091 0.19439 1.09642 0.0
H568 H 0.50911 0.05199 0.14437 0.0
H569 H 0.65998 0.24543 0.14644 0.0
H570 H 0.59674 0.22886 0.1477 0.0
H571 H 0.6252 0.23323 0.12017 0.0
C572 C 0.44189 0.13434 0.1484 0.0
C573 C 0.44196 0.16022 0.12834 0.0
C574 C 0.4797 0.12444 0.15243 0.0
C575 C 0.51813 0.14027 0.13648 0.0
C576 C 0.51724 0.1647 0.11614 0.0
H577 H 0.70379 0.03013 1.10273 0.0
H578 H 0.63807 0.04663 0.10931 0.0
C579 C 0.47993 0.17493 0.11221 0.0
C580 C 0.55852 0.1301 0.14042 0.0
H581 H 0.68271 0.18468 0.13827 0.0
C582 C 0.54709 0.08109 0.14342 0.0
C583 C 0.60821 0.16809 0.13977 0.0
C584 C 0.62325 0.22186 0.13862 0.0
C585 C 0.58384 0.06881 0.14431 0.0
C586 C 0.63329 0.1064 0.14152 0.0
C587 C 0.64485 0.15568 0.14001 0.0
C588 C 0.67309 0.0952 0.13843 0.0
C589 C 0.56913 0.01555 0.14805 0.0
C590 C 0.71575 0.11829 0.1521 0.0
C591 C 0.75412 0.10951 0.14811 0.0
C592 C 0.75053 0.07753 0.13034 0.0
C593 C 0.70776 0.05459 0.11673 0.0
C594 C 0.66976 0.06363 0.12061 0.0
H595 H 0.53467 -0.00448 0.15809 0.0
H596 H 0.56259 -0.00276 0.13097 0.0
H597 H 0.59797 0.01212 0.15739 0.0
H598 H 0.71942 0.14326 0.16579 0.0
H599 H 0.7866 0.12792 0.15886 0.0
H600 H 0.42095 0.43504 0.49769 0.0
H601 H 0.50488 0.50009 0.50735 0.0
H602 H 0.50851 0.58044 0.44558 0.0
H603 H 0.42548 0.51723 0.43624 0.0
H604 H 0.59031 0.53552 0.48466 0.0
H605 H 0.55213 0.68661 0.49329 0.0
H606 H 0.50405 0.62277 0.49245 0.0
H607 H 0.52968 0.65687 0.46591 0.0
C608 C 0.43971 0.46674 0.48627 0.0
C609 C 0.41623 0.47123 0.46638 0.0
C610 C 0.48756 0.50389 0.49183 0.0
C611 C 0.51248 0.54597 0.47757 0.0
C612 C 0.48951 0.54939 0.45734 0.0
H613 H 0.80451 0.73145 0.44001 0.0
H614 H 0.72271 0.66513 0.4492 0.0
C615 C 0.44197 0.51282 0.45192 0.0
C616 C 0.56325 0.58579 0.48283 0.0
H617 H 0.6354 0.71121 0.48256 0.0
C618 C 0.60011 0.57391 0.48471 0.0
C619 C 0.57619 0.63594 0.48362 0.0
C620 C 0.53826 0.6512 0.48399 0.0
C621 C 0.64967 0.61091 0.48539 0.0
C622 C 0.66271 0.66105 0.48344 0.0
C623 C 0.6257 0.67287 0.48355 0.0
C624 C 0.71379 0.70118 0.47895 0.0
C625 C 0.68747 0.59569 0.48779 0.0
C626 C 0.73575 0.7448 0.49202 0.0
C627 C 0.78264 0.78368 0.48645 0.0
C628 C 0.80835 0.77954 0.46772 0.0
C629 C 0.78615 0.73583 0.45472 0.0
C630 C 0.73937 0.69743 0.46013 0.0
H631 H 0.67303 0.56102 0.49806 0.0
H632 H 0.69681 0.58855 0.47031 0.0
H633 H 0.72131 0.62469 0.49629 0.0
H634 H 0.71652 0.74888 0.50644 0.0
H635 H 0.79864 0.81689 0.49677 0.0
H636 H 0.15196 0.46682 0.80029 0.0
H637 H 0.17312 0.55311 0.80348 0.0
H638 H 0.03245 0.51494 0.77472 0.0
H639 H 0.01015 0.42862 0.77314 0.0
H640 H 0.18626 0.61986 0.7749 0.0
H641 H 0.03022 0.58927 0.8282 0.0
H642 H 0.04272 0.54061 0.8226 0.0
H643 H 0.00821 0.55457 0.802 0.0
C644 C 0.12551 0.47699 0.79489 0.0
C645 C 0.07919 0.44106 0.78681 0.0
C646 C 0.13758 0.52627 0.79668 0.0
C647 C 0.10389 0.54064 0.78999 0.0
C648 C 0.05835 0.5048 0.78101 0.0
H649 H 0.18461 0.83915 0.75055 0.0
H650 H 0.16881 0.7548 0.75271 0.0
C651 C 0.04578 0.45545 0.77988 0.0
C652 C 0.11678 0.59317 0.79158 0.0
H653 H 0.07181 0.66655 0.8075 0.0
C654 C 0.16145 0.63006 0.78233 0.0
C655 C 0.08523 0.60712 0.80178 0.0
C656 C 0.03926 0.57078 0.81444 0.0
C657 C 0.17468 0.67997 0.78233 0.0
C658 C 0.14121 0.6933 0.79072 0.0
C659 C 0.09725 0.6566 0.80063 0.0
C660 C 0.15067 0.74479 0.7893 0.0
C661 C 0.2249 0.71771 0.77378 0.0
C662 C 0.14332 0.76681 0.80877 0.0
C663 C 0.15044 0.81441 0.80727 0.0
C664 C 0.16603 0.84135 0.78642 0.0
C665 C 0.17338 0.81948 0.76696 0.0
C666 C 0.16485 0.77137 0.76827 0.0
H667 H 0.25115 0.70465 0.77641 0.0
H668 H 0.22313 0.72372 0.75487 0.0
H669 H 0.23933 0.75346 0.78281 0.0
H670 H 0.13214 0.74721 0.82519 0.0
H671 H 0.14455 0.83046 0.82254 0.0
H672 H 0.26233 0.18124 0.19429 0.0
H673 H 0.25547 0.20633 0.23341 0.0
H674 H 0.3919 0.34245 0.22446 0.0
H675 H 0.39869 0.31788 0.18506 0.0
H676 H 0.31051 0.22563 0.27175 0.0
H677 H 0.3083 0.39513 0.24794 0.0
H678 H 0.30168 0.35051 0.22665 0.0
H679 H 0.3612 0.39491 0.23754 0.0
C680 C 0.29096 0.21669 0.20048 0.0
C681 C 0.33103 0.24746 0.18612 0.0
C682 C 0.28695 0.23106 0.22306 0.0
C683 C 0.32261 0.27689 0.23214 0.0
C684 C 0.36302 0.30747 0.21796 0.0
H685 H 0.24165 0.3706 0.36057 0.0
H686 H 0.24897 0.34908 0.32051 0.0
C687 C 0.3671 0.2931 0.19533 0.0
C688 C 0.31788 0.29169 0.25651 0.0
H689 H 0.31556 0.38229 0.28816 0.0
C690 C 0.3115 0.25989 0.27524 0.0
C691 C 0.31839 0.33604 0.26145 0.0
C692 C 0.32227 0.37093 0.24234 0.0
C693 C 0.30657 0.27125 0.29841 0.0
C694 C 0.30873 0.31646 0.30349 0.0
C695 C 0.31419 0.34785 0.28468 0.0
C696 C 0.30552 0.3318 0.32802 0.0
C697 C 0.29843 0.23378 0.31703 0.0
C698 C 0.33568 0.33116 0.34591 0.0
C699 C 0.33122 0.34307 0.36888 0.0
C700 C 0.29719 0.35727 0.37486 0.0
C701 C 0.26841 0.36009 0.35681 0.0
C702 C 0.27258 0.34763 0.33377 0.0
H703 H 0.27883 0.19575 0.30998 0.0
H704 H 0.33439 0.241 0.3236 0.0
H705 H 0.27728 0.23527 0.33185 0.0
H706 H 0.36273 0.32104 0.34219 0.0
H707 H 0.35453 0.34084 0.38207 0.0
H708 H 0.18063 0.27376 0.51812 0.0
H709 H 0.14706 0.26377 0.55707 0.0
H710 H 0.21301 0.42138 0.56247 0.0
H711 H 0.24495 0.43137 0.52298 0.0
H712 H 0.18312 0.28661 0.59746 0.0
H713 H 0.08283 0.38588 0.58555 0.0
H714 H 0.1094 0.37178 0.5615 0.0
H715 H 0.14646 0.4249 0.5793 0.0
C716 C 0.18782 0.30647 0.52745 0.0
C717 C 0.21552 0.35346 0.51705 0.0
C718 C 0.16848 0.30066 0.54994 0.0
C719 C 0.17623 0.34158 0.56305 0.0
C720 C 0.20463 0.38872 0.55282 0.0
H721 H 0.00312 0.28597 0.69239 0.0
H722 H 0.02947 0.29481 0.65164 0.0
C723 C 0.22348 0.39452 0.53013 0.0
C724 C 0.15616 0.33459 0.58753 0.0
H725 H 0.09314 0.36684 0.6247 0.0
C726 C 0.16324 0.30411 0.60322 0.0
C727 C 0.12907 0.35621 0.59548 0.0
C728 C 0.11599 0.38605 0.57951 0.0
C729 C 0.14528 0.29549 0.62622 0.0
C730 C 0.12062 0.31932 0.63456 0.0
C731 C 0.11249 0.34892 0.61877 0.0
C732 C 0.10396 0.31457 0.65957 0.0
C733 C 0.15198 0.25958 0.64108 0.0
C734 C 0.1367 0.32365 0.67803 0.0
C735 C 0.12151 0.31791 0.70127 0.0
C736 C 0.07312 0.30393 0.70714 0.0
C737 C 0.04055 0.29649 0.68873 0.0
C738 C 0.05573 0.30165 0.66531 0.0
H739 H 0.15499 0.23225 0.63027 0.0
H740 H 0.18635 0.28003 0.6512 0.0
H741 H 0.12118 0.23929 0.65332 0.0
H742 H 0.1745 0.33551 0.67454 0.0
H743 H 0.14825 0.325 0.71473 0.0
H744 H 0.92734 0.24292 0.85153 0.0
H745 H 0.90402 0.21091 0.89116 0.0
H746 H 0.04381 0.22214 0.90123 0.0
H747 H 0.06817 0.25667 0.86222 0.0
H748 H 0.88815 0.13319 0.91273 0.0
H749 H 0.04342 0.28452 0.95957 0.0
H750 H 0.03313 0.28891 0.92907 0.0
H751 H 0.06391 0.25709 0.93886 0.0
C752 C 0.95355 0.23947 0.8623 0.0
C753 C 0.00012 0.25345 0.85352 0.0
C754 C 0.93999 0.22071 0.88508 0.0
C755 C 0.97227 0.21477 0.8999 0.0
C756 C 0.01847 0.22785 0.89092 0.0
H757 H 0.90569 0.17184 1.04873 0.0
H758 H 0.92763 0.20169 1.00895 0.0
C759 C 0.03238 0.24748 0.86832 0.0
C760 C 0.95703 0.1938 0.92428 0.0
H761 H -0.00629 0.21145 0.98138 0.0
C762 C 0.9113 0.15069 0.9277 0.0
C763 C -0.0136 0.21624 0.94427 0.0
C764 C 0.03416 0.2645 0.94282 0.0
C765 C 0.89443 0.12972 0.95001 0.0
C766 C 0.92459 0.15113 0.96988 0.0
C767 C 0.9703 0.19426 0.96645 0.0
C768 C 0.90901 0.13116 0.99438 0.0
C769 C 0.8435 0.0857 0.95199 0.0
C770 C 0.89069 0.08108 1.00015 0.0
C771 C 0.87684 0.06345 1.02312 0.0
C772 C 0.88213 0.09554 1.04126 0.0
C773 C 0.90075 0.1456 1.03545 0.0
C774 C 0.91374 0.16297 1.01251 0.0
H775 H 0.82024 0.08368 0.93704 0.0
H776 H 0.84543 0.0515 0.95205 0.0
H777 H 0.82553 0.08677 0.96822 0.0
H778 H 0.8878 0.05549 0.98699 0.0
H779 H 0.86297 0.02478 1.0267 0.0
H780 H 0.80817 0.9452 0.18543 0.0
H781 H 0.81619 0.9212 0.22515 0.0
H782 H 0.96218 0.04656 0.22922 0.0
H783 H 0.95391 0.07143 0.18991 0.0
H784 H 0.87382 0.89383 0.24583 0.0
H785 H 0.90976 0.06594 0.28807 0.0
H786 H 0.89016 0.05259 0.25823 0.0
H787 H 0.95339 0.07708 0.26588 0.0
C788 C 0.84195 0.96793 0.19478 0.0
C789 C 0.88014 0.01071 0.18424 0.0
C790 C 0.84658 0.95402 0.21762 0.0
C791 C 0.8895 0.98238 0.23077 0.0
C792 C 0.92802 0.02451 0.22005 0.0
H793 H 0.86983 0.92985 0.38109 0.0
H794 H 0.86066 0.94797 0.34075 0.0
C795 C 0.92332 0.0386 0.1973 0.0
C796 C 0.8941 0.96768 0.25543 0.0
H797 H 0.92256 0.01071 0.31122 0.0
C798 C 0.88437 0.91949 0.26009 0.0
C799 C 0.90727 0.00047 0.27446 0.0
C800 C 0.91525 0.05171 0.2715 0.0
C801 C 0.88787 0.90358 0.28279 0.0
C802 C 0.90254 0.93688 0.30168 0.0
C803 C 0.91183 0.98491 0.29701 0.0
C804 C 0.90664 0.92256 0.32649 0.0
C805 C 0.87432 0.85061 0.2863 0.0
C806 C 0.9354 0.90164 0.33258 0.0
C807 C 0.94011 0.8903 0.35593 0.0
C808 C 0.91707 0.90046 0.37406 0.0
C809 C 0.88819 0.92116 0.36786 0.0
C810 C 0.88301 0.93185 0.34459 0.0
H811 H 0.85041 0.82678 0.27208 0.0
H812 H 0.90802 0.84835 0.28638 0.0
H813 H 0.85524 0.83573 0.30306 0.0
H814 H 0.95527 0.89505 0.31934 0.0
H815 H 0.96287 0.87468 0.3598 0.0
H816 H 0.01277 0.98733 0.5225 0.0
H817 H 0.04746 0.00057 0.56162 0.0
H818 H 0.04561 0.86308 0.55816 0.0
H819 H 0.0118 0.85008 0.51873 0.0
H820 H 0.01445 0.95286 0.60118 0.0
H821 H 0.18245 0.94964 0.58115 0.0
H822 H 0.14389 0.95247 0.55876 0.0
H823 H 0.12823 0.89442 0.57221 0.0
C824 C 0.01993 0.95986 0.5299 0.0
C825 C 0.00942 0.91761 0.51707 0.0
C826 C 0.03988 0.96754 0.55247 0.0
C827 C 0.05036 0.93344 0.56311 0.0
C828 C 0.03944 0.89093 0.55043 0.0
H829 H 0.2245 0.02872 0.69415 0.0
H830 H 0.1974 0.02064 0.65338 0.0
C831 C 0.01955 0.88325 0.52778 0.0
C832 C 0.07093 0.94176 0.58761 0.0
H833 H 0.16297 0.94629 0.62129 0.0
C834 C 0.04705 0.95153 0.60543 0.0
C835 C 0.11414 0.94116 0.59356 0.0
C836 C 0.14399 0.93438 0.57539 0.0
C837 C 0.06406 0.95936 0.62868 0.0
C838 C 0.10592 0.95645 0.63484 0.0
C839 C 0.13063 0.94801 0.61694 0.0
C840 C 0.12363 0.96097 0.65972 0.0
C841 C 0.03723 0.97163 0.64636 0.0
C842 C 0.09211 0.92963 0.67714 0.0
C843 C 0.10748 0.93426 0.70042 0.0
C844 C 0.15526 0.97017 0.70729 0.0
C845 C 0.18744 0.00077 0.68976 0.0
C846 C 0.17188 -0.00389 0.66632 0.0
H847 H 0.01694 0.9879 0.63802 0.0
H848 H 0.01024 0.93733 0.65544 0.0
H849 H 0.06269 -0.00209 0.65948 0.0
H850 H 0.05523 0.90123 0.67276 0.0
H851 H 0.08141 0.90948 0.71311 0.0
H852 H 0.14812 -0.00711 0.86415 0.0
H853 H 0.16909 0.02424 0.90375 0.0
H854 H 0.3194 0.06837 0.89159 0.0
H855 H 0.29878 0.03752 0.85177 0.0
H856 H 0.20449 0.0028 0.94111 0.0
H857 H 0.33208 0.19452 0.91584 0.0
H858 H 0.2981 0.14781 0.89459 0.0
H859 H 0.35505 0.15639 0.90583 0.0
C860 C 0.18566 0.00875 0.86986 0.0
C861 C 0.22161 0.0123 0.85445 0.0
C862 C 0.19768 0.02692 0.89268 0.0
C863 C 0.24613 0.04967 0.90091 0.0
C864 C 0.28189 0.05203 0.88578 0.0
H865 H 0.32458 0.22701 1.02959 0.0
H866 H 0.30115 0.19576 0.98989 0.0
C867 C 0.26988 0.03378 0.86294 0.0
C868 C 0.259 0.07056 0.92521 0.0
H869 H 0.33623 0.17456 0.95603 0.0
C870 C 0.23333 0.04043 0.94429 0.0
C871 C 0.29548 0.12018 0.92975 0.0
C872 C 0.32134 0.15665 0.91035 0.0
C873 C 0.24385 0.05772 0.96742 0.0
C874 C 0.28271 0.10644 0.9721 0.0
C875 C 0.30732 0.13698 0.95292 0.0
C876 C 0.29813 0.12638 0.99654 0.0
C877 C 0.21179 0.02354 0.98642 0.0
C878 C 0.30584 0.09913 1.0139 0.0
C879 C 0.31808 0.11656 1.0368 0.0
C880 C 0.32494 0.16279 1.04308 0.0
C881 C 0.31975 0.19134 1.02553 0.0
C882 C 0.30622 0.17329 1.00268 0.0
H883 H 0.17443 -0.00241 0.97983 0.0
H884 H 0.22744 0.00113 0.99284 0.0
H885 H 0.20871 0.04407 1.00119 0.0
H886 H 0.30221 0.06397 1.00984 0.0
H887 H 0.32225 0.09362 1.04966 0.0
loop_
_geom_bond_atom_site_label_1
_geom_bond_atom_site_label_2
_geom_bond_distance
_geom_bond_site_symmetry_2
_ccdc_geom_bond_type
Eu0 C9 2.828 . S
Eu0 O11 2.392 1_554 S
Eu0 O13 2.418 . S
Eu0 O18 2.373 . S
Eu0 O21 2.488 . S
Eu0 O22 2.471 . S
Eu0 O23 2.349 . S
Eu1 O10 2.373 . S
Eu1 O14 2.488 . S
Eu1 O15 2.471 . S
Eu1 O16 2.349 . S
Eu1 O19 2.392 1_556 S
Eu1 O20 2.418 . S
Eu1 C30 2.828 . S
C2 O20 1.244 1_554 S
C2 O23 1.265 . S
C3 C4 1.379 . S
C3 C7 1.373 . S
C3 C9 1.505 . S
C4 C3 1.379 . S
C4 C6 1.369 . S
C4 H32 0.930 . S
C5 C7 1.383 . S
C5 C8 1.382 . S
C5 H33 0.930 . S
C6 C4 1.369 . S
C6 C8 1.392 . S
C6 H34 0.930 . S
C7 C3 1.373 . S
C7 C5 1.383 . S
C7 H35 0.931 . S
C8 C5 1.382 . S
C8 C6 1.392 . S
C9 Eu0 2.828 . S
C9 C3 1.505 . S
C9 O21 1.249 . S
C9 O22 1.244 . S
O10 Eu1 2.373 . S
O10 C12 1.258 . S
O11 Eu0 2.392 1_556 S
O11 C12 1.242 . S
C12 O10 1.258 . S
C12 O11 1.242 . S
O13 Eu0 2.418 . S
O13 C17 1.244 . S
O14 Eu1 2.488 . S
O14 C30 1.249 . S
O15 Eu1 2.471 . S
O15 C30 1.244 . S
O16 Eu1 2.349 . S
O16 C17 1.265 1_556 S
C17 O13 1.244 . S
C17 O16 1.265 1_554 S
O18 Eu0 2.373 . S
O18 C31 1.258 . S
O19 Eu1 2.392 1_554 S
O19 C31 1.242 . S
O20 Eu1 2.418 . S
O20 C2 1.244 1_556 S
O21 Eu0 2.488 . S
O21 C9 1.249 . S
O22 Eu0 2.471 . S
O22 C9 1.244 . S
O23 Eu0 2.349 . S
O23 C2 1.265 . S
C24 C25 1.379 . S
C24 C28 1.373 . S
C24 C30 1.505 . S
C25 C24 1.379 . S
C25 C27 1.369 . S
C25 H36 0.930 . S
C26 C28 1.383 . S
C26 C29 1.382 . S
C26 H37 0.930 . S
C27 C25 1.369 . S
C27 C29 1.392 . S
C27 H38 0.930 . S
C28 C24 1.373 . S
C28 C26 1.383 . S
C28 H39 0.931 . S
C29 C26 1.382 . S
C29 C27 1.392 . S
C30 Eu1 2.828 . S
C30 O14 1.249 . S
C30 O15 1.244 . S
C30 C24 1.505 . S
C31 O18 1.258 . S
C31 O19 1.242 . S
H32 C4 0.930 . S
H33 C5 0.930 . S
H34 C6 0.930 . S
H35 C7 0.931 . S
H36 C25 0.930 . S
H37 C26 0.930 . S
H38 C27 0.930 . S
H39 C28 0.931 . S
Eu40 C49 2.828 . S
Eu40 O51 2.392 . S
Eu40 O53 2.418 . S
Eu40 O58 2.373 . S
Eu40 O61 2.488 . S
Eu40 O62 2.471 . S
Eu40 O63 2.349 . S
Eu41 O50 2.373 . S
Eu41 O54 2.488 . S
Eu41 O55 2.471 . S
Eu41 O56 2.349 . S
Eu41 O59 2.392 . S
Eu41 O60 2.418 . S
Eu41 C70 2.828 . S
C42 O60 1.244 . S
C42 O63 1.265 . S
C43 C44 1.379 . S
C43 C47 1.373 . S
C43 C49 1.505 . S
C44 C43 1.379 . S
C44 C46 1.369 . S
C44 H72 0.930 . S
C45 C47 1.383 . S
C45 C48 1.382 . S
C45 H73 0.930 . S
C46 C44 1.369 . S
C46 C48 1.392 . S
C46 H74 0.930 . S
C47 C43 1.373 . S
C47 C45 1.383 . S
C47 H75 0.931 . S
C48 C45 1.382 . S
C48 C46 1.392 . S
C49 Eu40 2.828 . S
C49 C43 1.505 . S
C49 O61 1.249 . S
C49 O62 1.244 . S
O50 Eu41 2.373 . S
O50 C52 1.258 . S
O51 Eu40 2.392 . S
O51 C52 1.242 . S
C52 O50 1.258 . S
C52 O51 1.242 . S
O53 Eu40 2.418 . S
O53 C57 1.244 . S
O54 Eu41 2.488 . S
O54 C70 1.249 . S
O55 Eu41 2.471 . S
O55 C70 1.244 . S
O56 Eu41 2.349 . S
O56 C57 1.265 . S
C57 O53 1.244 . S
C57 O56 1.265 . S
O58 Eu40 2.373 . S
O58 C71 1.258 . S
O59 Eu41 2.392 . S
O59 C71 1.242 . S
O60 Eu41 2.418 . S
O60 C42 1.244 . S
O61 Eu40 2.488 . S
O61 C49 1.249 . S
O62 Eu40 2.471 . S
O62 C49 1.244 . S
O63 Eu40 2.349 . S
O63 C42 1.265 . S
C64 C65 1.379 . S
C64 C68 1.373 . S
C64 C70 1.505 . S
C65 C64 1.379 . S
C65 C67 1.369 . S
C65 H76 0.930 . S
C66 C68 1.383 . S
C66 C69 1.382 . S
C66 H77 0.930 . S
C67 C65 1.369 . S
C67 C69 1.392 . S
C67 H78 0.930 . S
C68 C64 1.373 . S
C68 C66 1.383 . S
C68 H79 0.931 . S
C69 C66 1.382 . S
C69 C67 1.392 . S
C70 Eu41 2.828 . S
C70 O54 1.249 . S
C70 O55 1.244 . S
C70 C64 1.505 . S
C71 O58 1.258 . S
C71 O59 1.242 . S
H72 C44 0.930 . S
H73 C45 0.930 . S
H74 C46 0.930 . S
H75 C47 0.931 . S
H76 C65 0.930 . S
H77 C66 0.930 . S
H78 C67 0.930 . S
H79 C68 0.931 . S
Eu80 C89 2.828 . S
Eu80 O91 2.392 . S
Eu80 O93 2.418 . S
Eu80 O98 2.373 . S
Eu80 O101 2.488 . S
Eu80 O102 2.471 . S
Eu80 O103 2.349 . S
Eu81 O90 2.373 1_655 S
Eu81 O94 2.488 . S
Eu81 O95 2.471 . S
Eu81 O96 2.349 . S
Eu81 O99 2.392 . S
Eu81 O100 2.418 . S
Eu81 C110 2.828 . S
C82 O100 1.244 . S
C82 O103 1.265 1_655 S
C83 C84 1.379 . S
C83 C87 1.373 . S
C83 C89 1.505 . S
C84 C83 1.379 . S
C84 C86 1.369 . S
C84 H112 0.930 . S
C85 C87 1.383 . S
C85 C88 1.382 . S
C85 H113 0.930 . S
C86 C84 1.369 . S
C86 C88 1.392 . S
C86 H114 0.930 . S
C87 C83 1.373 . S
C87 C85 1.383 . S
C87 H115 0.931 . S
C88 C85 1.382 . S
C88 C86 1.392 . S
C89 Eu80 2.828 . S
C89 C83 1.505 . S
C89 O101 1.249 . S
C89 O102 1.244 . S
O90 Eu81 2.373 1_455 S
O90 C92 1.258 . S
O91 Eu80 2.392 . S
O91 C92 1.242 . S
C92 O90 1.258 . S
C92 O91 1.242 . S
O93 Eu80 2.418 . S
O93 C97 1.244 . S
O94 Eu81 2.488 . S
O94 C110 1.249 . S
O95 Eu81 2.471 . S
O95 C110 1.244 . S
O96 Eu81 2.349 . S
O96 C97 1.265 1_655 S
C97 O93 1.244 . S
C97 O96 1.265 1_455 S
O98 Eu80 2.373 . S
O98 C111 1.258 1_455 S
O99 Eu81 2.392 . S
O99 C111 1.242 . S
O100 Eu81 2.418 . S
O100 C82 1.244 . S
O101 Eu80 2.488 . S
O101 C89 1.249 . S
O102 Eu80 2.471 . S
O102 C89 1.244 . S
O103 Eu80 2.349 . S
O103 C82 1.265 1_455 S
C104 C105 1.379 . S
C104 C108 1.373 . S
C104 C110 1.505 . S
C105 C104 1.379 . S
C105 C107 1.369 . S
C105 H116 0.930 . S
C106 C108 1.383 . S
C106 C109 1.382 . S
C106 H117 0.930 . S
C107 C105 1.369 . S
C107 C109 1.392 . S
C107 H118 0.930 . S
C108 C104 1.373 . S
C108 C106 1.383 . S
C108 H119 0.931 . S
C109 C106 1.382 . S
C109 C107 1.392 . S
C110 Eu81 2.828 . S
C110 O94 1.249 . S
C110 O95 1.244 . S
C110 C104 1.505 . S
C111 O98 1.258 1_655 S
C111 O99 1.242 . S
H112 C84 0.930 . S
H113 C85 0.930 . S
H114 C86 0.930 . S
H115 C87 0.931 . S
H116 C105 0.930 . S
H117 C106 0.930 . S
H118 C107 0.930 . S
H119 C108 0.931 . S
Eu120 C129 2.828 . S
Eu120 O131 2.392 1_554 S
Eu120 O133 2.418 . S
Eu120 O138 2.373 . S
Eu120 O141 2.488 . S
Eu120 O142 2.471 . S
Eu120 O143 2.349 . S
Eu121 O130 2.373 1_565 S
Eu121 O134 2.488 . S
Eu121 O135 2.471 . S
Eu121 O136 2.349 1_565 S
Eu121 O139 2.392 1_556 S
Eu121 O140 2.418 . S
Eu121 C150 2.828 . S
C122 O140 1.244 1_554 S
C122 O143 1.265 1_565 S
C123 C124 1.379 . S
C123 C127 1.373 . S
C123 C129 1.505 . S
C124 C123 1.379 . S
C124 C126 1.369 . S
C124 H152 0.930 . S
C125 C127 1.383 . S
C125 C128 1.382 . S
C125 H153 0.930 . S
C126 C124 1.369 . S
C126 C128 1.392 . S
C126 H154 0.930 . S
C127 C123 1.373 . S
C127 C125 1.383 . S
C127 H155 0.931 . S
C128 C125 1.382 . S
C128 C126 1.392 . S
C129 Eu120 2.828 . S
C129 C123 1.505 . S
C129 O141 1.249 . S
C129 O142 1.244 . S
O130 Eu121 2.373 1_545 S
O130 C132 1.258 . S
O131 Eu120 2.392 1_556 S
O131 C132 1.242 . S
C132 O130 1.258 . S
C132 O131 1.242 . S
O133 Eu120 2.418 . S
O133 C137 1.244 . S
O134 Eu121 2.488 . S
O134 C150 1.249 . S
O135 Eu121 2.471 . S
O135 C150 1.244 . S
O136 Eu121 2.349 1_545 S
O136 C137 1.265 1_556 S
C137 O133 1.244 . S
C137 O136 1.265 1_554 S
O138 Eu120 2.373 . S
O138 C151 1.258 1_545 S
O139 Eu121 2.392 1_554 S
O139 C151 1.242 . S
O140 Eu121 2.418 . S
O140 C122 1.244 1_556 S
O141 Eu120 2.488 . S
O141 C129 1.249 . S
O142 Eu120 2.471 . S
O142 C129 1.244 . S
O143 Eu120 2.349 . S
O143 C122 1.265 1_545 S
C144 C145 1.379 . S
C144 C148 1.373 . S
C144 C150 1.505 . S
C145 C144 1.379 . S
C145 C147 1.369 . S
C145 H156 0.930 . S
C146 C148 1.383 . S
C146 C149 1.382 . S
C146 H157 0.930 . S
C147 C145 1.369 . S
C147 C149 1.392 . S
C147 H158 0.930 . S
C148 C144 1.373 . S
C148 C146 1.383 . S
C148 H159 0.931 . S
C149 C146 1.382 . S
C149 C147 1.392 . S
C150 Eu121 2.828 . S
C150 O134 1.249 . S
C150 O135 1.244 . S
C150 C144 1.505 . S
C151 O138 1.258 1_565 S
C151 O139 1.242 . S
H152 C124 0.930 . S
H153 C125 0.930 . S
H154 C126 0.930 . S
H155 C127 0.931 . S
H156 C145 0.930 . S
H157 C146 0.930 . S
H158 C147 0.930 . S
H159 C148 0.931 . S
Eu160 C169 2.828 . S
Eu160 O171 2.392 . S
Eu160 O173 2.418 1_655 S
Eu160 O178 2.373 . S
Eu160 O181 2.488 . S
Eu160 O182 2.471 . S
Eu160 O183 2.349 . S
Eu161 O170 2.373 . S
Eu161 O174 2.488 . S
Eu161 O175 2.471 1_655 S
Eu161 O176 2.349 1_655 S
Eu161 O179 2.392 . S
Eu161 O180 2.418 . S
Eu161 C190 2.828 1_655 S
C162 O180 1.244 . S
C162 O183 1.265 . S
C163 C164 1.379 . S
C163 C167 1.373 . S
C163 C169 1.505 . S
C164 C163 1.379 . S
C164 C166 1.369 . S
C164 H192 0.930 . S
C165 C167 1.383 . S
C165 C168 1.382 . S
C165 H193 0.930 . S
C166 C164 1.369 . S
C166 C168 1.392 . S
C166 H194 0.930 . S
C167 C163 1.373 . S
C167 C165 1.383 . S
C167 H195 0.931 . S
C168 C165 1.382 . S
C168 C166 1.392 . S
C169 Eu160 2.828 . S
C169 C163 1.505 . S
C169 O181 1.249 . S
C169 O182 1.244 . S
O170 Eu161 2.373 . S
O170 C172 1.258 . S
O171 Eu160 2.392 . S
O171 C172 1.242 . S
C172 O170 1.258 . S
C172 O171 1.242 . S
O173 Eu160 2.418 1_455 S
O173 C177 1.244 . S
O174 Eu161 2.488 . S
O174 C190 1.249 1_655 S
O175 Eu161 2.471 1_455 S
O175 C190 1.244 . S
O176 Eu161 2.349 1_455 S
O176 C177 1.265 . S
C177 O173 1.244 . S
C177 O176 1.265 . S
O178 Eu160 2.373 . S
O178 C191 1.258 . S
O179 Eu161 2.392 . S
O179 C191 1.242 . S
O180 Eu161 2.418 . S
O180 C162 1.244 . S
O181 Eu160 2.488 . S
O181 C169 1.249 . S
O182 Eu160 2.471 . S
O182 C169 1.244 . S
O183 Eu160 2.349 . S
O183 C162 1.265 . S
C184 C185 1.379 . S
C184 C188 1.373 . S
C184 C190 1.505 . S
C185 C184 1.379 . S
C185 C187 1.369 . S
C185 H196 0.930 . S
C186 C188 1.383 . S
C186 C189 1.382 . S
C186 H197 0.930 . S
C187 C185 1.369 . S
C187 C189 1.392 . S
C187 H198 0.930 . S
C188 C184 1.373 . S
C188 C186 1.383 . S
C188 H199 0.931 . S
C189 C186 1.382 . S
C189 C187 1.392 . S
C190 Eu161 2.828 1_455 S
C190 O174 1.249 1_455 S
C190 O175 1.244 . S
C190 C184 1.505 . S
C191 O178 1.258 . S
C191 O179 1.242 . S
H192 C164 0.930 . S
H193 C165 0.930 . S
H194 C166 0.930 . S
H195 C167 0.931 . S
H196 C185 0.930 . S
H197 C186 0.930 . S
H198 C187 0.930 . S
H199 C188 0.931 . S
Eu200 C209 2.828 . S
Eu200 O211 2.392 . S
Eu200 O213 2.418 1_565 S
Eu200 O218 2.373 . S
Eu200 O221 2.488 . S
Eu200 O222 2.471 . S
Eu200 O223 2.349 . S
Eu201 O210 2.373 . S
Eu201 O214 2.491 1_565 S
Eu201 O215 2.473 1_565 S
Eu201 O216 2.350 1_565 S
Eu201 O219 2.393 1_565 S
Eu201 O220 2.416 . S
Eu201 C230 2.828 1_565 S
C202 O220 1.244 . S
C202 O223 1.265 . S
C203 C204 1.379 . S
C203 C207 1.373 . S
C203 C209 1.505 . S
C204 C203 1.379 . S
C204 C206 1.369 . S
C204 H232 0.930 . S
C205 C207 1.383 . S
C205 C208 1.382 . S
C205 H233 0.930 . S
C206 C204 1.369 . S
C206 C208 1.392 . S
C206 H234 0.930 . S
C207 C203 1.373 . S
C207 C205 1.383 . S
C207 H235 0.931 . S
C208 C205 1.382 . S
C208 C206 1.392 . S
C209 Eu200 2.828 . S
C209 C203 1.505 . S
C209 O221 1.249 . S
C209 O222 1.244 . S
O210 Eu201 2.373 . S
O210 C212 1.258 . S
O211 Eu200 2.392 . S
O211 C212 1.242 . S
C212 O210 1.258 . S
C212 O211 1.242 . S
O213 Eu200 2.418 1_545 S
O213 C217 1.244 . S
O214 Eu201 2.491 1_545 S
O214 C230 1.260 . S
O215 Eu201 2.473 1_545 S
O215 C230 1.244 . S
O216 Eu201 2.350 1_545 S
O216 C217 1.265 . S
C217 O213 1.244 . S
C217 O216 1.265 . S
O218 Eu200 2.373 . S
O218 C231 1.257 . S
O219 Eu201 2.393 1_545 S
O219 C231 1.244 1_545 S
O220 Eu201 2.416 . S
O220 C202 1.244 . S
O221 Eu200 2.488 . S
O221 C209 1.249 . S
O222 Eu200 2.471 . S
O222 C209 1.244 . S
O223 Eu200 2.349 . S
O223 C202 1.265 . S
C224 C225 1.379 . S
C224 C228 1.373 . S
C224 C230 1.505 . S
C225 C224 1.379 . S
C225 C227 1.369 . S
C225 H236 0.930 . S
C226 C228 1.383 . S
C226 C229 1.382 . S
C226 H237 0.930 . S
C227 C225 1.369 . S
C227 C229 1.392 . S
C227 H238 0.930 . S
C228 C224 1.373 . S
C228 C226 1.383 . S
C228 H239 0.931 . S
C229 C226 1.382 . S
C229 C227 1.392 . S
C230 Eu201 2.828 1_545 S
C230 O214 1.260 . S
C230 O215 1.244 . S
C230 C224 1.505 . S
C231 O218 1.257 . S
C231 O219 1.244 1_565 S
H232 C204 0.930 . S
H233 C205 0.930 . S
H234 C206 0.930 . S
H235 C207 0.931 . S
H236 C225 0.930 . S
H237 C226 0.930 . S
H238 C227 0.930 . S
H239 C228 0.931 . S
H240 C248 0.929 . S
H241 C250 0.930 1_455 S
H242 C252 0.930 . S
H243 C255 0.929 . S
H244 C258 0.930 . S
H245 C260 0.960 . S
H246 C260 0.960 . S
H247 C260 0.960 1_556 S
C248 H240 0.929 . S
C248 C249 1.377 . S
C248 C250 1.384 1_565 S
C249 C248 1.377 . S
C249 C255 1.390 1_564 S
C250 H241 0.930 1_655 S
C250 C248 1.384 1_545 S
C250 C251 1.372 1_655 S
C251 C250 1.372 1_455 S
C251 C252 1.400 1_454 S
C251 C256 1.490 . S
C252 H242 0.930 . S
C252 C251 1.400 1_656 S
C252 C255 1.386 . S
H253 C269 0.930 . S
H254 C270 0.931 . S
C255 H243 0.929 . S
C255 C249 1.390 1_546 S
C255 C252 1.386 . S
C256 C251 1.490 . S
C256 C258 1.395 . S
C256 C259 1.403 . S
H257 C263 0.930 . S
C258 H244 0.930 . S
C258 C256 1.395 . S
C258 C261 1.403 . S
C259 C256 1.403 . S
C259 C260 1.524 . S
C259 C263 1.400 . S
C260 H245 0.960 . S
C260 H246 0.960 . S
C260 H247 0.960 1_554 S
C260 C259 1.524 . S
C261 C258 1.403 . S
C261 C262 1.392 . S
C261 C265 1.495 . S
C262 C261 1.392 . S
C262 C263 1.385 . S
C262 C264 1.478 . S
C263 H257 0.930 . S
C263 C259 1.400 . S
C263 C262 1.385 . S
C264 C262 1.478 . S
C264 C266 1.381 . S
C264 C270 1.383 1_554 S
C265 C261 1.495 . S
C265 H271 0.959 . S
C265 H272 0.961 1_554 S
C265 H273 0.960 . S
C266 C264 1.381 . S
C266 C267 1.394 . S
C266 H274 0.930 . S
C267 C266 1.394 . S
C267 C268 1.383 . S
C267 H275 0.929 . S
C268 C267 1.383 . S
C268 C269 1.377 1_554 S
C269 H253 0.930 . S
C269 C268 1.377 1_556 S
C269 C270 1.379 . S
C270 H254 0.931 . S
C270 C264 1.383 1_556 S
C270 C269 1.379 . S
H271 C265 0.959 . S
H272 C265 0.961 1_556 S
H273 C265 0.960 . S
H274 C266 0.930 . S
H275 C267 0.929 . S
H276 C284 0.929 . S
H277 C286 0.925 1_545 S
H278 C288 0.930 1_545 S
H279 C291 0.929 . S
H280 C294 0.930 . S
H281 C296 0.960 . S
H282 C296 0.960 . S
H283 C296 0.960 . S
C284 H276 0.929 . S
C284 C285 1.377 . S
C284 C286 1.403 . S
C285 C284 1.377 . S
C285 C291 1.390 . S
C286 H277 0.925 1_565 S
C286 C284 1.403 . S
C286 C287 1.358 1_565 S
C287 C286 1.358 1_545 S
C287 C288 1.400 1_545 S
C287 C292 1.490 . S
C288 H278 0.930 1_565 S
C288 C287 1.400 1_565 S
C288 C291 1.386 . S
H289 C305 0.930 . S
H290 C306 0.931 . S
C291 H279 0.929 . S
C291 C285 1.390 . S
C291 C288 1.386 . S
C292 C287 1.490 . S
C292 C294 1.395 . S
C292 C295 1.403 . S
H293 C299 0.930 . S
C294 H280 0.930 . S
C294 C292 1.395 . S
C294 C297 1.403 . S
C295 C292 1.403 . S
C295 C296 1.524 . S
C295 C299 1.400 . S
C296 H281 0.960 . S
C296 H282 0.960 . S
C296 H283 0.960 . S
C296 C295 1.524 . S
C297 C294 1.403 . S
C297 C298 1.392 . S
C297 C301 1.495 . S
C298 C297 1.392 . S
C298 C299 1.385 . S
C298 C300 1.478 . S
C299 H293 0.930 . S
C299 C295 1.400 . S
C299 C298 1.385 . S
C300 C298 1.478 . S
C300 C302 1.381 . S
C300 C306 1.383 . S
C301 C297 1.495 . S
C301 H307 0.959 . S
C301 H308 0.961 . S
C301 H309 0.960 . S
C302 C300 1.381 . S
C302 C303 1.394 . S
C302 H310 0.930 . S
C303 C302 1.394 . S
C303 C304 1.383 . S
C303 H311 0.929 . S
C304 C303 1.383 . S
C304 C305 1.377 . S
C305 H289 0.930 . S
C305 C304 1.377 . S
C305 C306 1.379 . S
C306 H290 0.931 . S
C306 C300 1.383 . S
C306 C305 1.379 . S
H307 C301 0.959 . S
H308 C301 0.961 . S
H309 C301 0.960 . S
H310 C302 0.930 . S
H311 C303 0.929 . S
H312 C320 0.929 . S
H313 C322 0.930 . S
H314 C324 0.930 . S
H315 C327 0.929 . S
H316 C330 0.930 . S
H317 C332 0.960 . S
H318 C332 0.960 . S
H319 C332 0.960 . S
C320 H312 0.929 . S
C320 C321 1.377 . S
C320 C322 1.384 . S
C321 C320 1.377 . S
C321 C327 1.390 . S
C322 H313 0.930 . S
C322 C320 1.384 . S
C322 C323 1.372 . S
C323 C322 1.372 . S
C323 C324 1.400 . S
C323 C328 1.490 . S
C324 H314 0.930 . S
C324 C323 1.400 . S
C324 C327 1.386 . S
H325 C341 0.930 1_655 S
H326 C342 0.931 . S
C327 H315 0.929 . S
C327 C321 1.390 . S
C327 C324 1.386 . S
C328 C323 1.490 . S
C328 C330 1.395 . S
C328 C331 1.403 . S
H329 C335 0.930 . S
C330 H316 0.930 . S
C330 C328 1.395 . S
C330 C333 1.403 . S
C331 C328 1.403 . S
C331 C332 1.524 . S
C331 C335 1.400 . S
C332 H317 0.960 . S
C332 H318 0.960 . S
C332 H319 0.960 . S
C332 C331 1.524 . S
C333 C330 1.403 . S
C333 C334 1.392 . S
C333 C337 1.495 . S
C334 C333 1.392 . S
C334 C335 1.385 . S
C334 C336 1.478 . S
C335 H329 0.930 . S
C335 C331 1.400 . S
C335 C334 1.385 . S
C336 C334 1.478 . S
C336 C338 1.381 . S
C336 C342 1.383 . S
C337 C333 1.495 . S
C337 H343 0.959 . S
C337 H344 0.961 1_455 S
C337 H345 0.960 . S
C338 C336 1.381 . S
C338 C339 1.394 1_455 S
C338 H346 0.930 . S
C339 C338 1.394 1_655 S
C339 C340 1.383 . S
C339 H347 0.929 . S
C340 C339 1.383 . S
C340 C341 1.377 1_655 S
C341 H325 0.930 1_455 S
C341 C340 1.377 1_455 S
C341 C342 1.379 . S
C342 H326 0.931 . S
C342 C336 1.383 . S
C342 C341 1.379 . S
H343 C337 0.959 . S
H344 C337 0.961 1_655 S
H345 C337 0.960 . S
H346 C338 0.930 . S
H347 C339 0.929 . S
H348 C356 0.929 . S
H349 C358 0.930 . S
H350 C360 0.930 . S
H351 C363 0.929 . S
H352 C366 0.930 . S
H353 C368 0.960 . S
H354 C368 0.960 . S
H355 C368 0.960 . S
C356 H348 0.929 . S
C356 C357 1.377 . S
C356 C358 1.384 . S
C357 C356 1.377 . S
C357 C363 1.390 . S
C358 H349 0.930 . S
C358 C356 1.384 . S
C358 C359 1.372 . S
C359 C358 1.372 . S
C359 C360 1.400 . S
C359 C364 1.490 . S
C360 H350 0.930 . S
C360 C359 1.400 . S
C360 C363 1.386 . S
H361 C377 0.930 . S
H362 C378 0.931 . S
C363 H351 0.929 . S
C363 C357 1.390 . S
C363 C360 1.386 . S
C364 C359 1.490 . S
C364 C366 1.395 . S
C364 C367 1.403 . S
H365 C371 0.930 . S
C366 H352 0.930 . S
C366 C364 1.395 . S
C366 C369 1.403 . S
C367 C364 1.403 . S
C367 C368 1.524 . S
C367 C371 1.400 . S
C368 H353 0.960 . S
C368 H354 0.960 . S
C368 H355 0.960 . S
C368 C367 1.524 . S
C369 C366 1.403 . S
C369 C370 1.392 . S
C369 C373 1.495 . S
C370 C369 1.392 . S
C370 C371 1.385 . S
C370 C372 1.478 . S
C371 H365 0.930 . S
C371 C367 1.400 . S
C371 C370 1.385 . S
C372 C370 1.478 . S
C372 C374 1.381 . S
C372 C378 1.383 . S
C373 C369 1.495 . S
C373 H379 0.959 . S
C373 H380 0.961 . S
C373 H381 0.960 . S
C374 C372 1.381 . S
C374 C375 1.394 . S
C374 H382 0.930 . S
C375 C374 1.394 . S
C375 C376 1.383 . S
C375 H383 0.929 . S
C376 C375 1.383 . S
C376 C377 1.377 . S
C377 H361 0.930 . S
C377 C376 1.377 . S
C377 C378 1.379 . S
C378 H362 0.931 . S
C378 C372 1.383 . S
C378 C377 1.379 . S
H379 C373 0.959 . S
H380 C373 0.961 . S
H381 C373 0.960 . S
H382 C374 0.930 . S
H383 C375 0.929 . S
H384 C392 0.929 . S
H385 C394 0.930 . S
H386 C396 0.930 . S
H387 C399 0.929 . S
H388 C402 0.930 . S
H389 C404 0.960 . S
H390 C404 0.960 . S
H391 C404 0.960 . S
C392 H384 0.929 . S
C392 C393 1.377 . S
C392 C394 1.384 . S
C393 C392 1.377 . S
C393 C399 1.390 . S
C394 H385 0.930 . S
C394 C392 1.384 . S
C394 C395 1.372 . S
C395 C394 1.372 . S
C395 C396 1.400 . S
C395 C400 1.490 . S
C396 H386 0.930 . S
C396 C395 1.400 . S
C396 C399 1.386 . S
H397 C413 0.930 . S
H398 C414 0.931 . S
C399 H387 0.929 . S
C399 C393 1.390 . S
C399 C396 1.386 . S
C400 C395 1.490 . S
C400 C402 1.395 . S
C400 C403 1.403 . S
H401 C407 0.930 . S
C402 H388 0.930 . S
C402 C400 1.395 . S
C402 C405 1.403 . S
C403 C400 1.403 . S
C403 C404 1.524 . S
C403 C407 1.400 1_455 S
C404 H389 0.960 . S
C404 H390 0.960 . S
C404 H391 0.960 . S
C404 C403 1.524 . S
C405 C402 1.403 . S
C405 C406 1.392 1_455 S
C405 C409 1.495 1_455 S
C406 C405 1.392 1_655 S
C406 C407 1.385 . S
C406 C408 1.478 . S
C407 H401 0.930 . S
C407 C403 1.400 1_655 S
C407 C406 1.385 . S
C408 C406 1.478 . S
C408 C410 1.381 . S
C408 C414 1.383 . S
C409 C405 1.495 1_655 S
C409 H415 0.959 1_655 S
C409 H416 0.961 . S
C409 H417 0.960 . S
C410 C408 1.381 . S
C410 C411 1.394 . S
C410 H418 0.930 . S
C411 C410 1.394 . S
C411 C412 1.383 . S
C411 H419 0.929 . S
C412 C411 1.383 . S
C412 C413 1.377 . S
C413 H397 0.930 . S
C413 C412 1.377 . S
C413 C414 1.379 . S
C414 H398 0.931 . S
C414 C408 1.383 . S
C414 C413 1.379 . S
H415 C409 0.959 1_455 S
H416 C409 0.961 . S
H417 C409 0.960 . S
H418 C410 0.930 . S
H419 C411 0.929 . S
H420 C428 0.929 . S
H421 C430 0.930 . S
H422 C432 0.930 . S
H423 C435 0.929 . S
H424 C438 0.930 . S
H425 C440 0.960 . S
H426 C440 0.960 . S
H427 C440 0.960 . S
C428 H420 0.929 . S
C428 C429 1.377 . S
C428 C430 1.384 . S
C429 C428 1.377 . S
C429 C435 1.390 . S
C430 H421 0.930 . S
C430 C428 1.384 . S
C430 C431 1.372 . S
C431 C430 1.372 . S
C431 C432 1.400 . S
C431 C436 1.490 . S
C432 H422 0.930 . S
C432 C431 1.400 . S
C432 C435 1.386 . S
H433 C449 0.930 . S
H434 C450 0.931 . S
C435 H423 0.929 . S
C435 C429 1.390 . S
C435 C432 1.386 . S
C436 C431 1.490 . S
C436 C438 1.395 . S
C436 C439 1.403 . S
H437 C443 0.930 . S
C438 H424 0.930 . S
C438 C436 1.395 . S
C438 C441 1.403 1_545 S
C439 C436 1.403 . S
C439 C440 1.524 . S
C439 C443 1.400 . S
C440 H425 0.960 . S
C440 H426 0.960 . S
C440 H427 0.960 . S
C440 C439 1.524 . S
C441 C438 1.403 1_565 S
C441 C442 1.392 . S
C441 C445 1.495 . S
C442 C441 1.392 . S
C442 C443 1.385 1_565 S
C442 C444 1.478 . S
C443 H437 0.930 . S
C443 C439 1.400 . S
C443 C442 1.385 1_545 S
C444 C442 1.478 . S
C444 C446 1.381 . S
C444 C450 1.383 . S
C445 C441 1.495 . S
C445 H451 0.959 . S
C445 H452 0.961 . S
C445 H453 0.960 . S
C446 C444 1.381 . S
C446 C447 1.394 . S
C446 H454 0.930 . S
C447 C446 1.394 . S
C447 C448 1.383 . S
C447 H455 0.929 . S
C448 C447 1.383 . S
C448 C449 1.377 . S
C449 H433 0.930 . S
C449 C448 1.377 . S
C449 C450 1.379 . S
C450 H434 0.931 . S
C450 C444 1.383 . S
C450 C449 1.379 . S
H451 C445 0.959 . S
H452 C445 0.961 . S
H453 C445 0.960 . S
H454 C446 0.930 . S
H455 C447 0.929 . S
H456 C464 0.929 . S
H457 C466 0.930 . S
H458 C468 0.930 . S
H459 C471 0.929 . S
H460 C474 0.930 . S
H461 C476 0.960 . S
H462 C476 0.960 . S
H463 C476 0.960 . S
C464 H456 0.929 . S
C464 C465 1.377 . S
C464 C466 1.384 . S
C465 C464 1.377 . S
C465 C471 1.390 . S
C466 H457 0.930 . S
C466 C464 1.384 . S
C466 C467 1.372 . S
C467 C466 1.372 . S
C467 C468 1.400 . S
C467 C472 1.490 . S
C468 H458 0.930 . S
C468 C467 1.400 . S
C468 C471 1.386 . S
H469 C485 0.930 . S
H470 C486 0.909 1_655 S
C471 H459 0.929 . S
C471 C465 1.390 . S
C471 C468 1.386 . S
C472 C467 1.490 . S
C472 C474 1.395 . S
C472 C475 1.403 . S
H473 C479 0.930 . S
C474 H460 0.930 . S
C474 C472 1.395 . S
C474 C477 1.403 . S
C475 C472 1.403 . S
C475 C476 1.524 . S
C475 C479 1.400 . S
C476 H461 0.960 . S
C476 H462 0.960 . S
C476 H463 0.960 . S
C476 C475 1.524 . S
C477 C474 1.403 . S
C477 C478 1.392 . S
C477 C481 1.495 . S
C478 C477 1.392 . S
C478 C479 1.385 . S
C478 C480 1.478 1_655 S
C479 H473 0.930 . S
C479 C475 1.400 . S
C479 C478 1.385 . S
C480 C478 1.478 1_455 S
C480 C482 1.381 . S
C480 C486 1.386 . S
C481 C477 1.495 . S
C481 H487 0.959 . S
C481 H488 0.961 . S
C481 H489 0.960 1_655 S
C482 C480 1.381 . S
C482 C483 1.394 . S
C482 H490 0.930 . S
C483 C482 1.394 . S
C483 C484 1.383 . S
C483 H491 0.929 . S
C484 C483 1.383 . S
C484 C485 1.377 . S
C485 H469 0.930 . S
C485 C484 1.377 . S
C485 C486 1.399 . S
C486 H470 0.909 1_455 S
C486 C480 1.386 . S
C486 C485 1.399 . S
H487 C481 0.959 . S
H488 C481 0.961 . S
H489 C481 0.960 1_455 S
H490 C482 0.930 . S
H491 C483 0.929 . S
H492 C500 0.929 . S
H493 C502 0.930 . S
H494 C504 0.930 . S
H495 C507 0.929 . S
H496 C510 0.930 . S
H497 C512 0.960 1_545 S
H498 C512 0.960 . S
H499 C512 0.960 . S
C500 H492 0.929 . S
C500 C501 1.377 . S
C500 C502 1.384 . S
C501 C500 1.377 . S
C501 C507 1.390 . S
C502 H493 0.930 . S
C502 C500 1.384 . S
C502 C503 1.372 . S
C503 C502 1.372 . S
C503 C504 1.400 . S
C503 C508 1.490 . S
C504 H494 0.930 . S
C504 C503 1.400 . S
C504 C507 1.386 . S
H505 C521 0.930 . S
H506 C522 0.931 . S
C507 H495 0.929 . S
C507 C501 1.390 . S
C507 C504 1.386 . S
C508 C503 1.490 . S
C508 C510 1.395 . S
C508 C511 1.403 . S
H509 C515 0.930 1_545 S
C510 H496 0.930 . S
C510 C508 1.395 . S
C510 C513 1.403 . S
C511 C508 1.403 . S
C511 C512 1.524 . S
C511 C515 1.400 . S
C512 H497 0.960 1_565 S
C512 H498 0.960 . S
C512 H499 0.960 . S
C512 C511 1.524 . S
C513 C510 1.403 . S
C513 C514 1.392 . S
C513 C517 1.495 . S
C514 C513 1.392 . S
C514 C515 1.385 . S
C514 C516 1.478 1_565 S
C515 H509 0.930 1_565 S
C515 C511 1.400 . S
C515 C514 1.385 . S
C516 C514 1.478 1_545 S
C516 C518 1.381 . S
C516 C522 1.383 . S
C517 C513 1.495 . S
C517 H523 0.959 . S
C517 H524 0.961 . S
C517 H525 0.960 . S
C518 C516 1.381 . S
C518 C519 1.394 . S
C518 H526 0.930 . S
C519 C518 1.394 . S
C519 C520 1.383 . S
C519 H527 0.929 . S
C520 C519 1.383 . S
C520 C521 1.377 . S
C521 H505 0.930 . S
C521 C520 1.377 . S
C521 C522 1.379 . S
C522 H506 0.931 . S
C522 C516 1.383 . S
C522 C521 1.379 . S
H523 C517 0.959 . S
H524 C517 0.961 . S
H525 C517 0.960 . S
H526 C518 0.930 . S
H527 C519 0.929 . S
H528 C536 0.929 . S
H529 C538 0.930 . S
H530 C540 0.930 . S
H531 C543 0.929 . S
H532 C546 0.930 . S
H533 C548 0.960 . S
H534 C548 0.960 . S
H535 C548 0.960 . S
C536 H528 0.929 . S
C536 C537 1.377 . S
C536 C538 1.384 . S
C537 C536 1.377 . S
C537 C543 1.390 . S
C538 H529 0.930 . S
C538 C536 1.384 . S
C538 C539 1.372 . S
C539 C538 1.372 . S
C539 C540 1.400 . S
C539 C544 1.490 . S
C540 H530 0.930 . S
C540 C539 1.400 . S
C540 C543 1.386 . S
H541 C557 0.930 . S
H542 C558 0.931 . S
C543 H531 0.929 . S
C543 C537 1.390 . S
C543 C540 1.386 . S
C544 C539 1.490 . S
C544 C546 1.395 . S
C544 C547 1.403 . S
H545 C551 0.930 . S
C546 H532 0.930 . S
C546 C544 1.395 . S
C546 C549 1.403 . S
C547 C544 1.403 . S
C547 C548 1.524 . S
C547 C551 1.400 . S
C548 H533 0.960 . S
C548 H534 0.960 . S
C548 H535 0.960 . S
C548 C547 1.524 . S
C549 C546 1.403 . S
C549 C550 1.392 . S
C549 C553 1.495 . S
C550 C549 1.392 . S
C550 C551 1.385 . S
C550 C552 1.478 . S
C551 H545 0.930 . S
C551 C547 1.400 . S
C551 C550 1.385 . S
C552 C550 1.478 . S
C552 C554 1.381 . S
C552 C558 1.383 . S
C553 C549 1.495 . S
C553 H559 0.959 . S
C553 H560 0.961 . S
C553 H561 0.960 . S
C554 C552 1.381 . S
C554 C555 1.394 . S
C554 H562 0.930 . S
C555 C554 1.394 . S
C555 C556 1.383 . S
C555 H563 0.929 . S
C556 C555 1.383 . S
C556 C557 1.377 . S
C557 H541 0.930 . S
C557 C556 1.377 . S
C557 C558 1.379 . S
C558 H542 0.931 . S
C558 C552 1.383 . S
C558 C557 1.379 . S
H559 C553 0.959 . S
H560 C553 0.961 . S
H561 C553 0.960 . S
H562 C554 0.930 . S
H563 C555 0.929 . S
H564 C572 0.929 . S
H565 C574 0.930 . S
H566 C576 0.930 . S
H567 C579 0.929 . S
H568 C582 0.930 . S
H569 C584 0.960 . S
H570 C584 0.960 . S
H571 C584 0.960 1_556 S
C572 H564 0.929 . S
C572 C573 1.377 . S
C572 C574 1.384 . S
C573 C572 1.377 . S
C573 C579 1.390 1_554 S
C574 H565 0.930 . S
C574 C572 1.384 . S
C574 C575 1.372 . S
C575 C574 1.372 . S
C575 C576 1.400 1_554 S
C575 C580 1.490 . S
C576 H566 0.930 . S
C576 C575 1.400 1_556 S
C576 C579 1.386 . S
H577 C593 0.930 . S
H578 C594 0.931 . S
C579 H567 0.929 . S
C579 C573 1.390 1_556 S
C579 C576 1.386 . S
C580 C575 1.490 . S
C580 C582 1.395 . S
C580 C583 1.403 . S
H581 C587 0.930 . S
C582 H568 0.930 . S
C582 C580 1.395 . S
C582 C585 1.403 . S
C583 C580 1.403 . S
C583 C584 1.524 . S
C583 C587 1.400 . S
C584 H569 0.960 . S
C584 H570 0.960 . S
C584 H571 0.960 1_554 S
C584 C583 1.524 . S
C585 C582 1.403 . S
C585 C586 1.392 . S
C585 C589 1.495 . S
C586 C585 1.392 . S
C586 C587 1.385 . S
C586 C588 1.478 . S
C587 H581 0.930 . S
C587 C583 1.400 . S
C587 C586 1.385 . S
C588 C586 1.478 . S
C588 C590 1.381 . S
C588 C594 1.383 1_554 S
C589 C585 1.495 . S
C589 H595 0.959 . S
C589 H596 0.991 1_545 S
C589 H597 0.960 . S
C590 C588 1.381 . S
C590 C591 1.394 . S
C590 H598 0.930 . S
C591 C590 1.394 . S
C591 C592 1.383 . S
C591 H599 0.929 1_545 S
C592 C591 1.383 . S
C592 C593 1.377 1_554 S
C593 H577 0.930 . S
C593 C592 1.377 1_556 S
C593 C594 1.379 . S
C594 H578 0.931 . S
C594 C588 1.383 1_556 S
C594 C593 1.379 . S
H595 C589 0.959 . S
H596 C589 0.991 1_565 S
H597 C589 0.960 . S
H598 C590 0.930 . S
H599 C591 0.929 1_565 S
H600 C608 0.929 . S
H601 C610 0.930 . S
H602 C612 0.930 . S
H603 C615 0.929 . S
H604 C618 0.930 . S
H605 C620 0.960 . S
H606 C620 0.960 . S
H607 C620 0.960 . S
C608 H600 0.929 . S
C608 C609 1.377 . S
C608 C610 1.384 . S
C609 C608 1.377 . S
C609 C615 1.390 . S
C610 H601 0.930 . S
C610 C608 1.384 . S
C610 C611 1.372 . S
C611 C610 1.372 . S
C611 C612 1.400 . S
C611 C616 1.490 . S
C612 H602 0.930 . S
C612 C611 1.400 . S
C612 C615 1.386 . S
H613 C629 0.930 . S
H614 C630 0.931 . S
C615 H603 0.929 . S
C615 C609 1.390 . S
C615 C612 1.386 . S
C616 C611 1.490 . S
C616 C618 1.395 . S
C616 C619 1.403 . S
H617 C623 0.930 . S
C618 H604 0.930 . S
C618 C616 1.395 . S
C618 C621 1.403 . S
C619 C616 1.403 . S
C619 C620 1.524 . S
C619 C623 1.400 . S
C620 H605 0.960 . S
C620 H606 0.960 . S
C620 H607 0.960 . S
C620 C619 1.524 . S
C621 C618 1.403 . S
C621 C622 1.392 . S
C621 C625 1.495 . S
C622 C621 1.392 . S
C622 C623 1.385 . S
C622 C624 1.478 . S
C623 H617 0.930 . S
C623 C619 1.400 . S
C623 C622 1.385 . S
C624 C622 1.478 . S
C624 C626 1.381 . S
C624 C630 1.383 . S
C625 C621 1.495 . S
C625 H631 0.959 . S
C625 H632 0.961 . S
C625 H633 0.960 . S
C626 C624 1.381 . S
C626 C627 1.394 . S
C626 H634 0.930 . S
C627 C626 1.394 . S
C627 C628 1.383 . S
C627 H635 0.929 . S
C628 C627 1.383 . S
C628 C629 1.377 . S
C629 H613 0.930 . S
C629 C628 1.377 . S
C629 C630 1.379 . S
C630 H614 0.931 . S
C630 C624 1.383 . S
C630 C629 1.379 . S
H631 C625 0.959 . S
H632 C625 0.961 . S
H633 C625 0.960 . S
H634 C626 0.930 . S
H635 C627 0.929 . S
H636 C644 0.929 . S
H637 C646 0.930 . S
H638 C648 0.930 . S
H639 C651 0.929 . S
H640 C654 0.930 . S
H641 C656 0.960 . S
H642 C656 0.960 . S
H643 C656 0.960 1_655 S
C644 H636 0.929 . S
C644 C645 1.377 . S
C644 C646 1.384 . S
C645 C644 1.377 . S
C645 C651 1.390 1_455 S
C646 H637 0.930 . S
C646 C644 1.384 . S
C646 C647 1.372 . S
C647 C646 1.372 . S
C647 C648 1.400 . S
C647 C652 1.490 . S
C648 H638 0.930 . S
C648 C647 1.400 . S
C648 C651 1.386 1_455 S
H649 C665 0.930 . S
H650 C666 0.931 . S
C651 H639 0.929 . S
C651 C645 1.390 1_655 S
C651 C648 1.386 1_655 S
C652 C647 1.490 . S
C652 C654 1.395 . S
C652 C655 1.403 . S
H653 C659 0.930 . S
C654 H640 0.930 . S
C654 C652 1.395 . S
C654 C657 1.403 . S
C655 C652 1.403 . S
C655 C656 1.524 . S
C655 C659 1.400 . S
C656 H641 0.960 . S
C656 H642 0.960 . S
C656 H643 0.960 1_455 S
C656 C655 1.524 . S
C657 C654 1.403 . S
C657 C658 1.392 . S
C657 C661 1.495 . S
C658 C657 1.392 . S
C658 C659 1.385 . S
C658 C660 1.478 . S
C659 H653 0.930 . S
C659 C655 1.400 . S
C659 C658 1.385 . S
C660 C658 1.478 . S
C660 C662 1.381 . S
C660 C666 1.383 . S
C661 C657 1.495 . S
C661 H667 0.959 . S
C661 H668 0.961 . S
C661 H669 0.960 . S
C662 C660 1.381 . S
C662 C663 1.394 . S
C662 H670 0.930 . S
C663 C662 1.394 . S
C663 C664 1.383 . S
C663 H671 0.929 . S
C664 C663 1.383 . S
C664 C665 1.377 . S
C665 H649 0.930 . S
C665 C664 1.377 . S
C665 C666 1.379 . S
C666 H650 0.931 . S
C666 C660 1.383 . S
C666 C665 1.379 . S
H667 C661 0.959 . S
H668 C661 0.961 . S
H669 C661 0.960 . S
H670 C662 0.930 . S
H671 C663 0.929 . S
H672 C680 0.929 . S
H673 C682 0.930 . S
H674 C684 0.930 . S
H675 C687 0.929 . S
H676 C690 0.930 . S
H677 C692 0.960 . S
H678 C692 0.960 . S
H679 C692 0.960 . S
C680 H672 0.929 . S
C680 C681 1.377 . S
C680 C682 1.384 . S
C681 C680 1.377 . S
C681 C687 1.390 . S
C682 H673 0.930 . S
C682 C680 1.384 . S
C682 C683 1.372 . S
C683 C682 1.372 . S
C683 C684 1.400 . S
C683 C688 1.490 . S
C684 H674 0.930 . S
C684 C683 1.400 . S
C684 C687 1.386 . S
H685 C701 0.930 . S
H686 C702 0.931 . S
C687 H675 0.929 . S
C687 C681 1.390 . S
C687 C684 1.386 . S
C688 C683 1.490 . S
C688 C690 1.395 . S
C688 C691 1.403 . S
H689 C695 0.930 . S
C690 H676 0.930 . S
C690 C688 1.395 . S
C690 C693 1.403 . S
C691 C688 1.403 . S
C691 C692 1.524 . S
C691 C695 1.400 . S
C692 H677 0.960 . S
C692 H678 0.960 . S
C692 H679 0.960 . S
C692 C691 1.524 . S
C693 C690 1.403 . S
C693 C694 1.392 . S
C693 C697 1.495 . S
C694 C693 1.392 . S
C694 C695 1.385 . S
C694 C696 1.478 . S
C695 H689 0.930 . S
C695 C691 1.400 . S
C695 C694 1.385 . S
C696 C694 1.478 . S
C696 C698 1.381 . S
C696 C702 1.383 . S
C697 C693 1.495 . S
C697 H703 0.959 . S
C697 H704 0.961 . S
C697 H705 0.960 . S
C698 C696 1.381 . S
C698 C699 1.394 . S
C698 H706 0.930 . S
C699 C698 1.394 . S
C699 C700 1.383 . S
C699 H707 0.929 . S
C700 C699 1.383 . S
C700 C701 1.377 . S
C701 H685 0.930 . S
C701 C700 1.377 . S
C701 C702 1.379 . S
C702 H686 0.931 . S
C702 C696 1.383 . S
C702 C701 1.379 . S
H703 C697 0.959 . S
H704 C697 0.961 . S
H705 C697 0.960 . S
H706 C698 0.930 . S
H707 C699 0.929 . S
H708 C716 0.929 . S
H709 C718 0.930 . S
H710 C720 0.930 . S
H711 C723 0.929 . S
H712 C726 0.930 . S
H713 C728 0.960 . S
H714 C728 0.960 . S
H715 C728 0.960 . S
C716 H708 0.929 . S
C716 C717 1.377 . S
C716 C718 1.384 . S
C717 C716 1.377 . S
C717 C723 1.390 . S
C718 H709 0.930 . S
C718 C716 1.384 . S
C718 C719 1.372 . S
C719 C718 1.372 . S
C719 C720 1.400 . S
C719 C724 1.490 . S
C720 H710 0.930 . S
C720 C719 1.400 . S
C720 C723 1.386 . S
H721 C737 0.930 . S
H722 C738 0.931 . S
C723 H711 0.929 . S
C723 C717 1.390 . S
C723 C720 1.386 . S
C724 C719 1.490 . S
C724 C726 1.395 . S
C724 C727 1.403 . S
H725 C731 0.930 . S
C726 H712 0.930 . S
C726 C724 1.395 . S
C726 C729 1.403 . S
C727 C724 1.403 . S
C727 C728 1.524 . S
C727 C731 1.400 . S
C728 H713 0.960 . S
C728 H714 0.960 . S
C728 H715 0.960 . S
C728 C727 1.524 . S
C729 C726 1.403 . S
C729 C730 1.392 . S
C729 C733 1.495 . S
C730 C729 1.392 . S
C730 C731 1.385 . S
C730 C732 1.478 . S
C731 H725 0.930 . S
C731 C727 1.400 . S
C731 C730 1.385 . S
C732 C730 1.478 . S
C732 C734 1.381 . S
C732 C738 1.383 . S
C733 C729 1.495 . S
C733 H739 0.959 . S
C733 H740 0.961 . S
C733 H741 0.960 . S
C734 C732 1.381 . S
C734 C735 1.394 . S
C734 H742 0.930 . S
C735 C734 1.394 . S
C735 C736 1.383 . S
C735 H743 0.929 . S
C736 C735 1.383 . S
C736 C737 1.377 . S
C737 H721 0.930 . S
C737 C736 1.377 . S
C737 C738 1.379 . S
C738 H722 0.931 . S
C738 C732 1.383 . S
C738 C737 1.379 . S
H739 C733 0.959 . S
H740 C733 0.961 . S
H741 C733 0.960 . S
H742 C734 0.930 . S
H743 C735 0.929 . S
H744 C752 0.929 . S
H745 C754 0.930 . S
H746 C756 0.930 . S
H747 C759 0.929 1_455 S
H748 C762 0.930 . S
H749 C764 0.960 . S
H750 C764 0.960 . S
H751 C764 0.960 . S
C752 H744 0.929 . S
C752 C753 1.377 . S
C752 C754 1.384 . S
C753 C752 1.377 . S
C753 C759 1.390 . S
C754 H745 0.930 . S
C754 C752 1.384 . S
C754 C755 1.372 . S
C755 C754 1.372 . S
C755 C756 1.400 . S
C755 C760 1.490 . S
C756 H746 0.930 . S
C756 C755 1.400 . S
C756 C759 1.386 . S
H757 C773 0.930 . S
H758 C774 0.931 . S
C759 H747 0.929 1_655 S
C759 C753 1.390 . S
C759 C756 1.386 . S
C760 C755 1.490 . S
C760 C762 1.395 . S
C760 C763 1.403 . S
H761 C767 0.930 . S
C762 H748 0.930 . S
C762 C760 1.395 . S
C762 C765 1.403 . S
C763 C760 1.403 . S
C763 C764 1.524 . S
C763 C767 1.400 . S
C764 H749 0.960 . S
C764 H750 0.960 . S
C764 H751 0.960 . S
C764 C763 1.524 . S
C765 C762 1.403 . S
C765 C766 1.392 . S
C765 C769 1.495 . S
C766 C765 1.392 . S
C766 C767 1.385 . S
C766 C768 1.478 . S
C767 H761 0.930 . S
C767 C763 1.400 . S
C767 C766 1.385 . S
C768 C766 1.478 . S
C768 C770 1.381 . S
C768 C774 1.383 . S
C769 C765 1.495 . S
C769 H775 0.959 . S
C769 H776 0.961 . S
C769 H777 0.960 . S
C770 C768 1.381 . S
C770 C771 1.394 . S
C770 H778 0.930 . S
C771 C770 1.394 . S
C771 C772 1.383 . S
C771 H779 0.929 . S
C772 C771 1.383 . S
C772 C773 1.377 . S
C773 H757 0.930 . S
C773 C772 1.377 . S
C773 C774 1.379 . S
C774 H758 0.931 . S
C774 C768 1.383 . S
C774 C773 1.379 . S
H775 C769 0.959 . S
H776 C769 0.961 . S
H777 C769 0.960 . S
H778 C770 0.930 . S
H779 C771 0.929 . S
H780 C788 0.929 . S
H781 C790 0.930 . S
H782 C792 0.930 . S
H783 C795 0.929 1_545 S
H784 C798 0.930 . S
H785 C800 0.960 . S
H786 C800 0.960 . S
H787 C800 0.960 . S
C788 H780 0.929 . S
C788 C789 1.377 . S
C788 C790 1.384 . S
C789 C788 1.377 . S
C789 C795 1.390 . S
C790 H781 0.930 . S
C790 C788 1.384 . S
C790 C791 1.372 . S
C791 C790 1.372 . S
C791 C792 1.400 . S
C791 C796 1.490 . S
C792 H782 0.930 . S
C792 C791 1.400 . S
C792 C795 1.386 . S
H793 C809 0.930 . S
H794 C810 0.931 . S
C795 H783 0.929 1_565 S
C795 C789 1.390 . S
C795 C792 1.386 . S
C796 C791 1.490 . S
C796 C798 1.395 . S
C796 C799 1.403 . S
H797 C803 0.930 . S
C798 H784 0.930 . S
C798 C796 1.395 . S
C798 C801 1.403 . S
C799 C796 1.403 . S
C799 C800 1.524 . S
C799 C803 1.400 . S
C800 H785 0.960 . S
C800 H786 0.960 . S
C800 H787 0.960 . S
C800 C799 1.524 . S
C801 C798 1.403 . S
C801 C802 1.392 . S
C801 C805 1.495 . S
C802 C801 1.392 . S
C802 C803 1.385 . S
C802 C804 1.478 . S
C803 H797 0.930 . S
C803 C799 1.400 . S
C803 C802 1.385 . S
C804 C802 1.478 . S
C804 C806 1.381 . S
C804 C810 1.383 . S
C805 C801 1.495 . S
C805 H811 0.959 . S
C805 H812 0.961 . S
C805 H813 0.960 . S
C806 C804 1.381 . S
C806 C807 1.394 . S
C806 H814 0.930 . S
C807 C806 1.394 . S
C807 C808 1.383 . S
C807 H815 0.929 . S
C808 C807 1.383 . S
C808 C809 1.377 . S
C809 H793 0.930 . S
C809 C808 1.377 . S
C809 C810 1.379 . S
C810 H794 0.931 . S
C810 C804 1.383 . S
C810 C809 1.379 . S
H811 C805 0.959 . S
H812 C805 0.961 . S
H813 C805 0.960 . S
H814 C806 0.930 . S
H815 C807 0.929 . S
H816 C824 0.929 . S
H817 C826 0.930 . S
H818 C828 0.930 . S
H819 C831 0.929 . S
H820 C834 0.930 . S
H821 C836 0.960 . S
H822 C836 0.960 . S
H823 C836 0.960 . S
C824 H816 0.929 . S
C824 C825 1.377 . S
C824 C826 1.384 . S
C825 C824 1.377 . S
C825 C831 1.390 . S
C826 H817 0.930 . S
C826 C824 1.384 . S
C826 C827 1.372 . S
C827 C826 1.372 . S
C827 C828 1.400 . S
C827 C832 1.490 . S
C828 H818 0.930 . S
C828 C827 1.400 . S
C828 C831 1.386 . S
H829 C845 0.930 . S
H830 C846 0.931 . S
C831 H819 0.929 . S
C831 C825 1.390 . S
C831 C828 1.386 . S
C832 C827 1.490 . S
C832 C834 1.395 . S
C832 C835 1.403 . S
H833 C839 0.930 . S
C834 H820 0.930 . S
C834 C832 1.395 . S
C834 C837 1.403 . S
C835 C832 1.403 . S
C835 C836 1.524 . S
C835 C839 1.400 . S
C836 H821 0.960 . S
C836 H822 0.960 . S
C836 H823 0.960 . S
C836 C835 1.524 . S
C837 C834 1.403 . S
C837 C838 1.392 . S
C837 C841 1.495 . S
C838 C837 1.392 . S
C838 C839 1.385 . S
C838 C840 1.478 . S
C839 H833 0.930 . S
C839 C835 1.400 . S
C839 C838 1.385 . S
C840 C838 1.478 . S
C840 C842 1.381 . S
C840 C846 1.383 . S
C841 C837 1.495 . S
C841 H847 0.959 1_455 S
C841 H848 0.960 . S
C841 H849 0.960 . S
C842 C840 1.381 . S
C842 C843 1.394 . S
C842 H850 0.930 . S
C843 C842 1.394 . S
C843 C844 1.383 . S
C843 H851 0.929 . S
C844 C843 1.383 . S
C844 C845 1.377 . S
C845 H829 0.930 . S
C845 C844 1.377 . S
C845 C846 1.379 . S
C846 H830 0.931 . S
C846 C840 1.383 . S
C846 C845 1.379 . S
H847 C841 0.959 1_655 S
H848 C841 0.960 . S
H849 C841 0.960 . S
H850 C842 0.930 . S
H851 C843 0.929 . S
H852 C860 0.929 . S
H853 C862 0.930 . S
H854 C864 0.930 . S
H855 C867 0.929 . S
H856 C870 0.930 . S
H857 C872 0.960 . S
H858 C872 0.960 . S
H859 C872 0.960 . S
C860 H852 0.929 . S
C860 C861 1.377 . S
C860 C862 1.384 . S
C861 C860 1.377 . S
C861 C867 1.390 . S
C862 H853 0.930 . S
C862 C860 1.384 . S
C862 C863 1.372 . S
C863 C862 1.372 . S
C863 C864 1.400 . S
C863 C868 1.490 . S
C864 H854 0.930 . S
C864 C863 1.400 . S
C864 C867 1.386 . S
H865 C881 0.930 . S
H866 C882 0.931 . S
C867 H855 0.929 . S
C867 C861 1.390 . S
C867 C864 1.386 . S
C868 C863 1.490 . S
C868 C870 1.395 . S
C868 C871 1.403 . S
H869 C875 0.930 . S
C870 H856 0.930 . S
C870 C868 1.395 . S
C870 C873 1.403 . S
C871 C868 1.403 . S
C871 C872 1.524 . S
C871 C875 1.400 . S
C872 H857 0.960 . S
C872 H858 0.960 . S
C872 H859 0.960 . S
C872 C871 1.524 . S
C873 C870 1.403 . S
C873 C874 1.392 . S
C873 C877 1.495 . S
C874 C873 1.392 . S
C874 C875 1.385 . S
C874 C876 1.478 . S
C875 H869 0.930 . S
C875 C871 1.400 . S
C875 C874 1.385 . S
C876 C874 1.478 . S
C876 C878 1.381 . S
C876 C882 1.383 . S
C877 C873 1.495 . S
C877 H883 0.959 1_545 S
C877 H884 0.961 . S
C877 H885 0.960 . S
C878 C876 1.381 . S
C878 C879 1.394 . S
C878 H886 0.930 . S
C879 C878 1.394 . S
C879 C880 1.383 . S
C879 H887 0.929 . S
C880 C879 1.383 . S
C880 C881 1.377 . S
C881 H865 0.930 . S
C881 C880 1.377 . S
C881 C882 1.379 . S
C882 H866 0.931 . S
C882 C876 1.383 . S
C882 C881 1.379 . S
H883 C877 0.959 1_565 S
H884 C877 0.961 . S
H885 C877 0.960 . S
H886 C878 0.930 . S
H887 C879 0.929 . S
C249 C137 0.958 1_565 S
C268 C17 0.916 . S
C285 C177 0.960 . S
C304 C57 0.919 . S
C321 C217 0.979 . S
C340 C97 1.039 1_655 S
C357 C29 0.608 . S
C376 C88 0.691 . S
C393 C69 0.591 . S
C412 C128 0.578 . S
C429 C109 0.590 . S
C448 C168 0.690 . S
C465 C149 0.593 . S
C484 C208 0.697 . S
C501 C189 0.590 . S
C520 C8 0.589 . S
C537 C229 0.613 . S
C556 C48 0.678 . S
C573 C2 1.450 . S
C592 C122 1.458 1_545 S
C609 C42 1.451 . S
C628 C162 1.463 . S
C645 C82 1.450 1_455 S
C664 C202 1.451 . S
C681 C31 3.861 . S
C700 C52 3.883 . S
C717 C71 3.861 . S
C736 C92 3.883 . S
C753 C111 3.863 . S
C772 C132 3.876 . S
C789 C151 3.863 . S
C808 C172 3.876 . S
C825 C191 3.861 1_455 S
C844 C212 3.881 . S
C861 C231 3.859 1_545 S
C880 C12 3.882 . S
