# Generated by pormake.
# Topology smu, (6)-cn, num edge types: 1
# Building blocks:
#     Node 0, Type 0, BuildingBlock: PAMTOO_clean_sbu_0, # of connection points: 6
#     Node 1, Type 0, BuildingBlock: PAMTOO_clean_sbu_0, # of connection points: 6
#     Node 2, Type 0, BuildingBlock: PAMTOO_clean_sbu_0, # of connection points: 6
#     Node 3, Type 0, BuildingBlock: PAMTOO_clean_sbu_0, # of connection points: 6
#     Node 4, Type 0, BuildingBlock: PAMTOO_clean_sbu_0, # of connection points: 6
#     Node 5, Type 0, BuildingBlock: PAMTOO_clean_sbu_0, # of connection points: 6
#     Edge 6, Type (0, 0), BuildingBlock: AJUNOK_clean_linker_0, # of connection points: 2
#     Edge 7, Type (0, 0), BuildingBlock: AJUNOK_clean_linker_0, # of connection points: 2
#     Edge 8, Type (0, 0), BuildingBlock: AJUNOK_clean_linker_0, # of connection points: 2
#     Edge 9, Type (0, 0), BuildingBlock: AJUNOK_clean_linker_0, # of connection points: 2
#     Edge 10, Type (0, 0), BuildingBlock: AJUNOK_clean_linker_0, # of connection points: 2
#     Edge 11, Type (0, 0), BuildingBlock: AJUNOK_clean_linker_0, # of connection points: 2
#     Edge 12, Type (0, 0), BuildingBlock: AJUNOK_clean_linker_0, # of connection points: 2
#     Edge 13, Type (0, 0), BuildingBlock: AJUNOK_clean_linker_0, # of connection points: 2
#     Edge 14, Type (0, 0), BuildingBlock: AJUNOK_clean_linker_0, # of connection points: 2
#     Edge 15, Type (0, 0), BuildingBlock: AJUNOK_clean_linker_0, # of connection points: 2
#     Edge 16, Type (0, 0), BuildingBlock: AJUNOK_clean_linker_0, # of connection points: 2
#     Edge 17, Type (0, 0), BuildingBlock: AJUNOK_clean_linker_0, # of connection points: 2
#     Edge 18, Type (0, 0), BuildingBlock: AJUNOK_clean_linker_0, # of connection points: 2
#     Edge 19, Type (0, 0), BuildingBlock: AJUNOK_clean_linker_0, # of connection points: 2
#     Edge 20, Type (0, 0), BuildingBlock: AJUNOK_clean_linker_0, # of connection points: 2
#     Edge 21, Type (0, 0), BuildingBlock: AJUNOK_clean_linker_0, # of connection points: 2
#     Edge 22, Type (0, 0), BuildingBlock: AJUNOK_clean_linker_0, # of connection points: 2
#     Edge 23, Type (0, 0), BuildingBlock: AJUNOK_clean_linker_0, # of connection points: 2
# Relax obj value: 0.228
# Max RMSD: 0.334
# Mean RMSD: 0.334
data_MOF--net-smu--node1-PAMTOO_clean_sbu_0--edge1-AJUNOK_clean_linker_0
_symmetry_space_group_name_H-M    P1
_symmetry_Int_Tables_number       1
_symmetry_cell_setting            triclinic
loop_
_symmetry_equiv_pos_as_xyz
'x, y, z'
_cell_length_a     31.48069
_cell_length_b     31.480581
_cell_length_c     19.996945
_cell_angle_alpha  90.167773
_cell_angle_beta   89.05782
_cell_angle_gamma 119.99209
loop_
_atom_site_label
_atom_site_type_symbol
_atom_site_fract_x
_atom_site_fract_y
_atom_site_fract_z
_atom_type_partial_charge
Dy0 Dy 0.39986 0.08811 0.28336 0.0
Dy1 Dy 0.32295 0.12632 0.27557 0.0
C2 C 0.3364 0.08321 0.41247 0.0
O3 O 0.32657 0.01771 0.29486 0.0
O4 O 0.272 0.04726 0.28639 0.0
O5 O 0.45265 0.07955 0.34104 0.0
O6 O 0.44898 0.0684 0.23384 0.0
O7 O 0.34001 0.11039 0.17015 0.0
O8 O 0.35709 0.05001 0.19527 0.0
O9 O 0.39411 0.18289 0.31566 0.0
O10 O 0.43626 0.16493 0.24217 0.0
O11 O 0.2631 0.13201 0.23135 0.0
O12 O 0.31637 0.18996 0.29451 0.0
C13 C 0.28162 1.01139 0.29255 0.0
O14 O 0.38084 0.09736 0.38885 0.0
O15 O 0.30524 0.09027 0.37742 0.0
C16 C 0.52753 0.10327 0.28105 0.0
C17 C 0.63104 0.15553 0.26938 0.0
C18 C 0.60675 0.17167 0.31337 0.0
C19 C 0.55536 0.14587 0.319 0.0
C20 C 0.55176 0.08826 0.23568 0.0
C21 C 0.60285 0.11406 0.22983 0.0
C22 C 0.47352 0.0733 0.2879 0.0
C23 C 0.34052 0.06983 0.15385 0.0
C24 C 0.43299 0.19771 0.27827 0.0
C25 C 0.24363 0.19225 0.27263 0.0
C26 C 0.18635 0.23643 0.2977 0.0
C27 C 0.19525 0.22699 0.23188 0.0
C28 C 0.22361 0.20502 0.21953 0.0
C29 C 0.23493 0.20165 0.3386 0.0
C30 C 0.2064 0.22359 0.35102 0.0
C31 C 0.27844 0.17544 0.25652 0.0
H32 H 0.62747 0.2031 0.34516 0.0
H33 H 0.53759 0.15867 0.3539 0.0
H34 H 0.53111 0.05591 0.20538 0.0
H35 H 0.62046 0.10097 0.1951 0.0
H36 H 0.17953 0.23579 0.19003 0.0
H37 H 0.23063 0.19873 0.16825 0.0
H38 H 0.2507 0.19273 0.38026 0.0
H39 H 0.19994 0.23051 0.40223 0.0
Dy40 Dy 0.72341 0.63922 0.24994 0.0
Dy41 Dy 0.83707 0.71875 0.2576 0.0
C42 C 0.76468 0.69377 0.388 0.0
O43 O 0.72544 0.71226 0.24226 0.0
O44 O 0.80396 0.76456 0.28066 0.0
O45 O 0.64985 0.59134 0.28816 0.0
O46 O 0.66884 0.58451 0.18582 0.0
O47 O 0.81659 0.73873 0.16115 0.0
O48 O 0.75103 0.66268 0.14499 0.0
O49 O 0.82458 0.64865 0.21283 0.0
O50 O 0.76482 0.60292 0.28536 0.0
O51 O 0.90622 0.77879 0.22371 0.0
O52 O 0.9036 0.72881 0.30204 0.0
C53 C 0.76011 0.75563 0.2637 0.0
O54 O 0.7263 0.66786 0.35102 0.0
O55 O 0.80997 0.71067 0.365 0.0
C56 C 0.61161 0.51162 0.24063 0.0
C57 C 0.56167 0.40849 0.25245 0.0
C58 C 0.59665 0.43792 0.2999 0.0
C59 C 0.62152 0.48911 0.29402 0.0
C60 C 0.57803 0.48226 0.19211 0.0
C61 C 0.55332 0.43117 0.19786 0.0
C62 C 0.63604 0.5654 0.23365 0.0
C63 C 0.78066 0.70762 0.12372 0.0
C64 C 0.80206 0.60893 0.2489 0.0
C65 C 0.98124 0.80218 0.28103 0.0
C66 C 0.08308 0.8623 0.2916 0.0
C67 C 0.05562 0.8787 0.25648 0.0
C68 C 1.0051 0.8488 0.251 0.0
C69 C 1.00839 0.78672 0.31863 0.0
C70 C 0.059 0.81653 0.32378 0.0
C71 C 0.93092 0.7662 0.26291 0.0
H72 H 0.60448 0.42131 0.34178 0.0
H73 H 0.64807 0.51099 0.3314 0.0
H74 H 0.57043 0.49894 0.15008 0.0
H75 H 0.52658 0.40941 0.16062 0.0
H76 H 0.07342 0.9142 0.2318 0.0
H77 H 0.9852 0.86136 0.22084 0.0
H78 H 0.99093 0.75046 0.34107 0.0
H79 H 0.0795 0.80287 0.35032 0.0
Dy80 Dy 0.95424 0.31845 0.27667 0.0
Dy81 Dy 0.91763 0.20234 0.26023 0.0
C82 C 0.94723 0.25533 0.4037 0.0
O83 O 1.02237 0.3142 0.30216 0.0
O84 O 0.99721 0.23423 0.26935 0.0
O85 O 0.96637 0.38176 0.3343 0.0
O86 O 0.97168 0.38587 0.22605 0.0
O87 O 0.93614 0.23852 0.15788 0.0
O88 O 0.99571 0.31431 0.18934 0.0
O89 O 0.85739 0.21059 0.3042 0.0
O90 O 0.87591 0.27715 0.242 0.0
O91 O 0.92575 0.13877 0.24232 0.0
O92 O 0.85371 0.1324 0.23912 0.0
C93 C 0.03029 0.27692 0.29265 0.0
O94 O 0.9351 0.28653 0.37943 0.0
O95 O 0.94273 0.21811 0.36746 0.0
C96 C 0.94356 0.43433 0.27919 0.0
C97 C 0.89198 0.48618 0.26782 0.0
C98 C 0.86928 0.43914 0.29738 0.0
C99 C 0.89483 0.41333 0.30285 0.0
C100 C 0.96632 0.48137 0.25078 0.0
C101 C 0.94107 0.50715 0.24566 0.0
C102 C 0.97129 0.40792 0.28112 0.0
C103 C 0.97737 0.27961 0.14496 0.0
C104 C 0.84303 0.23739 0.27332 0.0
C105 C 0.85613 0.05755 0.24457 0.0
C106 C 0.80731 0.95442 0.25332 0.0
C107 C 0.84815 0.97994 0.21038 0.0
C108 C 0.87221 0.03089 0.2061 0.0
C109 C 0.81578 0.03252 0.28849 0.0
C110 C 0.79153 0.98119 0.29286 0.0
C111 C 0.87922 0.11044 0.23113 0.0
H112 H 0.83161 0.42206 0.31525 0.0
H113 H 0.87652 0.37699 0.32501 0.0
H114 H 1.00386 0.49824 0.23229 0.0
H115 H 0.96025 0.54382 0.22459 0.0
H116 H 0.86165 0.96045 0.18008 0.0
H117 H 0.90293 0.04954 0.17135 0.0
H118 H 0.80244 0.05241 0.31819 0.0
H119 H 0.75992 0.96244 0.32606 0.0
Dy120 Dy 0.09563 0.39382 0.75912 0.0
Dy121 Dy 0.13579 0.31837 0.75868 0.0
C122 C 0.08029 0.32724 0.63077 0.0
O123 O 1.02569 0.31893 0.75769 0.0
O124 O 0.05819 0.26853 0.77934 0.0
O125 O 0.08415 0.44581 0.70352 0.0
O126 O 0.0764 0.44227 0.81134 0.0
O127 O 0.11751 0.32511 0.8679 0.0
O128 O 0.06667 0.35744 0.85604 0.0
O129 O 0.19359 0.38876 0.71587 0.0
O130 O 0.17547 0.43285 0.78628 0.0
O131 O 0.18615 0.30085 0.80652 0.0
O132 O 0.14774 0.26218 0.71529 0.0
C133 C 1.02084 0.27542 0.77175 0.0
O134 O 0.09161 0.37114 0.65221 0.0
O135 O 0.09198 0.29913 0.66501 0.0
C136 C 0.11246 0.52121 0.76163 0.0
C137 C 0.16945 0.62452 0.76869 0.0
C138 C 0.17228 0.59959 0.71192 0.0
C139 C 0.14426 0.54848 0.70847 0.0
C140 C 0.11062 0.54611 0.81909 0.0
C141 C 0.13885 0.59724 0.82262 0.0
C142 C 0.08045 0.46725 0.75744 0.0
C143 C 0.08369 0.33477 0.89159 0.0
C144 C 0.20807 0.42834 0.75061 0.0
C145 C 0.20382 0.23919 0.76296 0.0
C146 C 0.24863 0.18166 0.76791 0.0
C147 C 0.25059 0.21018 0.82309 0.0
C148 C 0.22816 0.23862 0.82074 0.0
C149 C 0.20327 0.21201 0.70691 0.0
C150 C 0.22559 0.1834 0.70937 0.0
C151 C 0.17904 0.26801 0.76135 0.0
H152 H 0.19567 0.61979 0.66969 0.0
H153 H 0.14698 0.53053 0.66365 0.0
H154 H 0.08655 0.52608 0.86084 0.0
H155 H 0.13529 0.61555 0.86651 0.0
H156 H 0.26838 0.20943 0.86865 0.0
H157 H 0.2291 0.25939 0.86454 0.0
H158 H 0.185 0.21227 0.6616 0.0
H159 H 0.22318 0.16118 0.66653 0.0
Dy160 Dy 0.32819 0.94645 0.76869 0.0
Dy161 Dy 0.21257 0.90588 0.78406 0.0
C162 C 0.26803 0.95 0.64405 0.0
O163 O 0.32255 1.01584 0.76426 0.0
O164 O 0.23783 0.98337 0.76966 0.0
O165 O 0.3914 0.96064 0.70731 0.0
O166 O 0.39636 0.96481 0.81532 0.0
O167 O 0.24691 0.92372 0.88766 0.0
O168 O 0.32411 0.98394 0.85865 0.0
O169 O 0.2274 0.85111 0.73642 0.0
O170 O 0.28863 0.86815 0.80516 0.0
O171 O 0.14708 0.90235 0.82793 0.0
O172 O 0.14272 0.83989 0.77499 0.0
C173 C 0.28279 0.02045 0.76702 0.0
O174 O 0.29994 0.93787 0.66509 0.0
O175 O 0.23001 0.94227 0.68205 0.0
C176 C 0.44405 0.93627 0.75968 0.0
C177 C 0.50116 0.8898 0.76068 0.0
C178 C 0.47255 0.88543 0.705 0.0
C179 C 0.44429 0.90856 0.70441 0.0
C180 C 0.47117 0.93883 0.81616 0.0
C181 C 0.49903 0.9156 0.81685 0.0
C182 C 0.41774 0.96437 0.75919 0.0
C183 C 0.28806 0.96454 0.90188 0.0
C184 C 0.25232 0.83596 0.76966 0.0
C185 C 0.06693 0.83827 0.79585 0.0
C186 C 0.96404 0.79024 0.78236 0.0
C187 C 0.98634 0.81702 0.84035 0.0
C188 C 0.03716 0.8404 0.84714 0.0
C189 C 0.04509 0.81263 0.73709 0.0
C190 C 0.99411 0.78881 0.73048 0.0
C191 C 0.11916 0.85703 0.80945 0.0
H192 H 0.47336 0.86557 0.66113 0.0
H193 H 0.42354 0.90557 0.66023 0.0
H194 H 0.47155 0.95963 0.85964 0.0
H195 H 0.5197 0.91856 0.86113 0.0
H196 H 0.96469 0.82055 0.88029 0.0
H197 H 0.05321 0.85949 0.89325 0.0
H198 H 0.06719 0.81002 0.69696 0.0
H199 H 0.97818 0.76878 0.68497 0.0
Dy200 Dy 0.65318 0.72134 0.77129 0.0
Dy201 Dy 0.74163 0.8356 0.75414 0.0
C202 C 0.71096 0.7572 0.63186 0.0
O203 O 0.72363 0.71806 0.78171 0.0
O204 O 0.7798 0.79423 0.73725 0.0
O205 O 0.60121 0.64991 0.73322 0.0
O206 O 0.59741 0.66666 0.83724 0.0
O207 O 0.75627 0.8131 0.85359 0.0
O208 O 0.67682 0.75343 0.87292 0.0
O209 O 0.67454 0.83325 0.79466 0.0
O210 O 0.62095 0.76698 0.73685 0.0
O211 O 0.80678 0.9027 0.78065 0.0
O212 O 0.76548 0.90007 0.69272 0.0
C213 C 0.7681 0.75028 0.75851 0.0
O214 O 0.6827 0.72035 0.67124 0.0
O215 O 0.73006 0.8033 0.65056 0.0
C216 C 0.5225 0.61071 0.78612 0.0
C217 C 0.41904 0.55732 0.77777 0.0
C218 C 0.44727 0.59598 0.73267 0.0
C219 C 0.49862 0.62255 0.73686 0.0
C220 C 0.49428 0.57309 0.83202 0.0
C221 C 0.44318 0.54664 0.82788 0.0
C222 C 0.57654 0.63515 0.7894 0.0
C223 C 0.72258 0.7785 0.89208 0.0
C224 C 0.63268 0.80908 0.76463 0.0
C225 C 0.8164 0.97811 0.73986 0.0
C226 C 0.86015 0.07968 0.75911 0.0
C227 C 0.83409 0.04686 0.81186 0.0
C228 C 0.81271 0.99627 0.80249 0.0
C229 C 0.83829 1.01054 0.68585 0.0
C230 C 0.86015 0.06095 0.69534 0.0
C231 C 0.80314 0.92683 0.73009 0.0
H232 H 0.42981 0.6046 0.6929 0.0
H233 H 0.51963 0.65157 0.70088 0.0
H234 H 0.51191 0.56349 0.87048 0.0
H235 H 0.42246 0.51731 0.86356 0.0
H236 H 0.83277 0.06043 0.86125 0.0
H237 H 0.79545 0.9717 0.84467 0.0
H238 H 0.84118 0.99699 0.63707 0.0
H239 H 0.88013 0.08525 0.65388 0.0
C240 C 0.28377 0.96632 0.02733 0.0
C241 C 0.29575 0.99122 0.96595 0.0
C242 C 0.29845 0.99246 0.08759 0.0
C243 C 0.32218 0.04428 0.08925 0.0
H244 H 0.26596 0.92667 0.02868 0.0
H245 H 0.29237 0.97174 0.13329 0.0
S246 S 0.36347 0.12683 0.94203 0.0
N247 N 0.33705 0.07108 0.91037 0.0
N248 N 0.35759 0.11926 0.02399 0.0
C249 C 0.33283 0.0695 0.0284 0.0
C250 C 0.32124 0.04316 0.96681 0.0
C251 C 0.69287 0.70052 0.5367 0.0
C252 C 0.72591 0.74467 0.56773 0.0
C253 C 0.7069 0.68341 0.48095 0.0
C254 C 0.75489 0.70931 0.45388 0.0
H255 H 0.6556 0.67877 0.55578 0.0
H256 H 0.67938 0.64964 0.45837 0.0
S257 S 0.85648 0.82618 0.51864 0.0
N258 N 0.80933 0.81378 0.56868 0.0
N259 N 0.83621 0.78101 0.46399 0.0
C260 C 0.78894 0.75302 0.48547 0.0
C261 C 0.77424 0.771 0.54201 0.0
C262 C 0.98022 0.27435 0.01988 0.0
C263 C 1.00485 0.28817 0.08076 0.0
C264 C 1.00651 0.28847 0.9589 0.0
C265 C 0.05832 0.31476 0.95644 0.0
H266 H 0.9405 0.25508 0.01927 0.0
H267 H 0.98598 0.27988 0.91315 0.0
S268 S 0.14003 0.36029 0.10151 0.0
N269 N 0.08414 0.33087 0.13468 0.0
N270 N 0.133 0.35454 0.01976 0.0
C271 C 0.08334 0.32736 1.01669 0.0
C272 C 0.05669 0.31467 0.07886 0.0
C273 C 0.28202 0.04708 0.5161 0.0
C274 C 0.31874 0.04976 0.47208 0.0
C275 C 0.264 1.0134 0.57025 0.0
C276 C 0.28102 0.98014 0.58132 0.0
H277 H 0.26766 0.07164 0.50926 0.0
H278 H 0.23742 1.01425 0.60448 0.0
S279 S 0.37171 0.96733 0.47469 0.0
N280 N 0.36828 1.01308 0.44047 0.0
N281 N 0.33369 0.94963 0.53965 0.0
C282 C 0.31623 0.98129 0.53587 0.0
C283 C 0.33524 1.01604 0.48207 0.0
C284 C 0.77829 0.79256 0.98926 0.0
C285 C 0.73744 0.76065 0.95118 0.0
C286 C 0.7934 0.77504 0.04346 0.0
C287 C 0.76875 0.72477 0.06093 0.0
H288 H 0.79826 0.83143 0.97777 0.0
H289 H 0.82394 0.80136 0.07274 0.0
S290 S 0.66492 0.62494 0.96924 0.0
N291 N 0.67615 0.67564 0.93012 0.0
N292 N 0.70464 0.64286 0.03039 0.0
C293 C 0.72936 0.6923 0.02092 0.0
C294 C 0.71365 0.71017 0.96662 0.0
C295 C 1.00811 0.32164 0.47698 0.0
C296 C 0.97859 0.27101 0.46431 0.0
C297 C 0.04182 0.33923 0.52914 0.0
C298 C 0.048 0.30717 0.57138 0.0
H299 H 1.00601 0.34842 0.44543 0.0
H300 H 0.0631 0.37852 0.53645 0.0
S301 S 0.9772 0.17093 0.56336 0.0
N302 N 0.95633 0.18884 0.50051 0.0
N303 N 1.01955 0.22163 0.59894 0.0
C304 C 1.01846 0.25628 0.55985 0.0
C305 C 0.98389 0.23833 0.50639 0.0
C306 C 0.70627 0.14824 0.27353 0.0
C307 C 0.68545 0.17853 0.26849 0.0
C308 C 0.75709 0.16792 0.27419 0.0
C309 C 0.78957 0.21881 0.26916 0.0
H310 H 0.68302 0.10883 0.27823 0.0
H311 H 0.77097 0.14276 0.27871 0.0
S312 S 0.75412 0.31427 0.25338 0.0
N313 N 0.70129 0.26217 0.25751 0.0
N314 N 0.79733 0.29922 0.25789 0.0
C315 C 0.76948 0.24966 0.26295 0.0
C316 C 0.71735 0.22955 0.26317 0.0
C317 C 0.52653 0.32277 0.2081 0.0
C318 C 0.53193 0.35444 0.26133 0.0
C319 C 0.49607 0.2717 0.21457 0.0
C320 C 0.46936 0.25072 0.27412 0.0
H321 H 0.54568 0.33765 0.16094 0.0
H322 H 0.4921 0.24874 0.17197 0.0
S323 S 0.47097 0.31754 0.42825 0.0
N324 N 0.50829 0.36098 0.37551 0.0
N325 N 0.45121 0.26542 0.38774 0.0
C326 C 0.47501 0.28198 0.32789 0.0
C327 C 0.50627 0.33371 0.32152 0.0
C328 C 0.83784 0.51766 0.31422 0.0
C329 C 0.86522 0.51391 0.26035 0.0
C330 C 0.81593 0.54709 0.30959 0.0
C331 C 0.82096 0.57416 0.25112 0.0
H332 H 0.83463 0.49901 0.36106 0.0
H333 H 0.79647 0.55004 0.35291 0.0
S334 S 0.88319 0.57199 0.09305 0.0
N335 N 0.89132 0.53574 0.14427 0.0
N336 N 0.85185 0.59211 0.13654 0.0
C337 C 0.84666 0.56931 0.19623 0.0
C338 C 0.8683 0.53893 0.20058 0.0
C339 C 0.18811 0.70345 0.71496 0.0
C340 C 0.19474 0.67892 0.76881 0.0
C341 C 0.20821 0.75436 0.71531 0.0
C342 C 0.23628 0.78301 0.76917 0.0
H343 H 0.16586 0.68296 0.67302 0.0
H344 H 0.20102 0.77131 0.67322 0.0
S345 S 0.26631 0.7367 0.92111 0.0
N346 N 0.23263 0.68701 0.87656 0.0
N347 N 0.2708 0.78316 0.87709 0.0
C348 C 0.24444 0.75919 0.82258 0.0
C349 C 0.22344 0.70703 0.82253 0.0
C350 C 0.51883 0.82089 0.74107 0.0
C351 C 0.53518 0.8698 0.75954 0.0
C352 C 0.55048 0.8014 0.74236 0.0
C353 C 0.59963 0.83016 0.76207 0.0
H354 H 0.48109 0.79728 0.72675 0.0
H355 H 0.53612 0.76338 0.72865 0.0
S356 S 0.66157 0.9621 0.80828 0.0
N357 N 0.60452 0.94755 0.79307 0.0
N358 N 0.66371 0.91134 0.79619 0.0
C359 C 0.6166 0.87958 0.77891 0.0
C360 C 0.58449 0.89927 0.77745 0.0
C361 C 0.29315 0.44345 0.76369 0.0
C362 C 0.26133 0.46249 0.75789 0.0
C363 C 0.34381 0.47445 0.77055 0.0
C364 C 0.36492 0.52583 0.77064 0.0
H365 H 0.27871 0.40416 0.76373 0.0
H366 H 0.36676 0.458 0.77497 0.0
S367 S 0.29739 0.59392 0.75563 0.0
N368 N 0.25416 0.53561 0.7526 0.0
N369 N 0.34971 0.59425 0.76398 0.0
C370 C 0.33348 0.54535 0.7643 0.0
C371 C 0.28162 0.51359 0.75857 0.0
C372 C 0.15741 0.29649 0.27626 0.0
C373 C 0.15195 0.25482 0.31029 0.0
C374 C 0.12011 0.30872 0.27863 0.0
C375 C 0.0758 0.27855 0.31286 0.0
H376 H 0.18971 0.31841 0.2453 0.0
H377 H 0.12449 0.33956 0.2496 0.0
S378 S 0.04506 0.16771 0.41369 0.0
N379 N 0.1007 0.18611 0.38363 0.0
N380 N 0.03033 0.20792 0.38605 0.0
C381 C 0.07166 0.23907 0.35093 0.0
C382 C 0.1097 0.22725 0.34972 0.0
C383 C 0.16226 0.91391 0.23187 0.0
C384 C 0.13695 0.8925 0.29193 0.0
C385 C 0.21184 0.94912 0.23191 0.0
C386 C 0.23843 0.96266 0.29134 0.0
H387 H 0.14291 0.90582 0.18504 0.0
H388 H 0.22792 0.96934 0.18615 0.0
S389 S 0.18963 0.91609 0.4613 0.0
N390 N 0.14198 0.8864 0.41235 0.0
N391 N 0.23647 0.95127 0.41128 0.0
C392 C 0.21444 0.93926 0.35104 0.0
C393 C 0.16336 0.90419 0.35154 0.0
C394 C 0.77277 0.87212 0.19868 0.0
C395 C 0.78293 0.90012 0.25755 0.0
C396 C 0.75834 0.82215 0.20127 0.0
C397 C 0.7538 0.79871 0.26269 0.0
H398 H 0.77853 0.88954 0.15014 0.0
H399 H 0.75482 0.80294 0.15489 0.0
S400 S 0.77102 0.85381 0.43084 0.0
N401 N 0.78352 0.89939 0.37898 0.0
N402 N 0.75609 0.80547 0.38341 0.0
C403 C 0.76025 0.82524 0.32175 0.0
C404 C 0.77487 0.87598 0.31932 0.0
C405 C 0.29549 0.14217 0.72409 0.0
C406 C 0.26527 0.14573 0.77398 0.0
C407 C 0.30586 0.10369 0.72492 0.0
C408 C 0.28569 0.06783 0.77527 0.0
H409 H 0.30955 0.16818 0.68294 0.0
H410 H 0.32658 0.10003 0.68374 0.0
S411 S 0.20409 0.06033 0.91656 0.0
N412 N 0.21591 0.11038 0.87505 0.0
N413 N 0.23466 0.03805 0.87615 0.0
C414 C 0.25672 0.07198 0.82638 0.0
C415 C 0.24666 0.11099 0.82592 0.0
C416 C 0.89267 0.77412 0.71242 0.0
C417 C 0.91014 0.76764 0.77351 0.0
C418 C 0.84354 0.76078 0.70541 0.0
C419 C 0.80991 0.74157 0.75939 0.0
H420 H 0.91765 0.7928 0.67088 0.0
H421 H 0.83279 0.76983 0.65899 0.0
S422 S 0.83448 0.70834 0.92589 0.0
N423 N 0.88788 0.73262 0.88578 0.0
N424 N 0.79564 0.71023 0.87305 0.0
C425 C 0.82553 0.73063 0.81881 0.0
C426 C 0.87572 0.74343 0.82589 0.0
C427 C 0.93677 0.2174 0.73141 0.0
C428 C 0.97286 0.23074 0.77993 0.0
C429 C 0.89802 0.16874 0.7274 0.0
C430 C 0.89418 0.13233 0.77215 0.0
H431 H 0.94067 0.24349 0.69318 0.0
H432 H 0.8724 0.15895 0.6869 0.0
S433 S 0.97963 0.14966 0.90897 0.0
N434 N 1.00173 0.20443 0.87483 0.0
N435 N 0.92972 0.11365 0.86691 0.0
C436 C 0.92887 0.14612 0.82291 0.0
C437 C 0.96799 0.19522 0.82692 0.0
loop_
_geom_bond_atom_site_label_1
_geom_bond_atom_site_label_2
_geom_bond_distance
_geom_bond_site_symmetry_2
_ccdc_geom_bond_type
Dy0 O3 2.307 . S
Dy0 O5 2.395 . S
Dy0 O6 2.379 . S
Dy0 O8 2.339 . S
Dy0 O10 2.298 . S
Dy0 O14 2.275 . S
Dy0 C22 2.738 . S
Dy1 O4 2.298 . S
Dy1 O7 2.275 . S
Dy1 O9 2.307 . S
Dy1 O11 2.395 . S
Dy1 O12 2.379 . S
Dy1 O15 2.339 . S
Dy1 C31 2.738 . S
C2 O14 1.254 . S
C2 O15 1.257 . S
O3 Dy0 2.307 . S
O3 C13 1.266 . S
O4 Dy1 2.298 . S
O4 C13 1.236 . S
O5 Dy0 2.395 . S
O5 C22 1.255 . S
O6 Dy0 2.379 . S
O6 C22 1.249 . S
O7 Dy1 2.275 . S
O7 C23 1.254 . S
O8 Dy0 2.339 . S
O8 C23 1.257 . S
O9 Dy1 2.307 . S
O9 C24 1.266 . S
O10 Dy0 2.298 . S
O10 C24 1.236 . S
O11 Dy1 2.395 . S
O11 C31 1.255 . S
O12 Dy1 2.379 . S
O12 C31 1.249 . S
C13 O3 1.266 . S
C13 O4 1.236 . S
O14 Dy0 2.275 . S
O14 C2 1.254 . S
O15 Dy1 2.339 . S
O15 C2 1.257 . S
C16 C19 1.344 . S
C16 C20 1.328 . S
C16 C22 1.516 . S
C17 C18 1.304 . S
C17 C21 1.323 . S
C18 C17 1.304 . S
C18 C19 1.371 . S
C18 H32 0.930 . S
C19 C16 1.344 . S
C19 C18 1.371 . S
C19 H33 0.931 . S
C20 C16 1.328 . S
C20 C21 1.433 . S
C20 H34 0.931 . S
C21 C17 1.323 . S
C21 C20 1.433 . S
C21 H35 0.933 . S
C22 Dy0 2.738 . S
C22 O5 1.255 . S
C22 O6 1.249 . S
C22 C16 1.516 . S
C23 O7 1.254 . S
C23 O8 1.257 . S
C24 O9 1.266 . S
C24 O10 1.236 . S
C25 C28 1.344 . S
C25 C29 1.328 . S
C25 C31 1.516 . S
C26 C27 1.304 . S
C26 C30 1.323 . S
C27 C26 1.304 . S
C27 C28 1.371 . S
C27 H36 0.930 . S
C28 C25 1.344 . S
C28 C27 1.371 . S
C28 H37 0.931 . S
C29 C25 1.328 . S
C29 C30 1.433 . S
C29 H38 0.931 . S
C30 C26 1.323 . S
C30 C29 1.433 . S
C30 H39 0.933 . S
C31 Dy1 2.738 . S
C31 O11 1.255 . S
C31 O12 1.249 . S
C31 C25 1.516 . S
H32 C18 0.930 . S
H33 C19 0.931 . S
H34 C20 0.931 . S
H35 C21 0.933 . S
H36 C27 0.930 . S
H37 C28 0.931 . S
H38 C29 0.931 . S
H39 C30 0.933 . S
Dy40 O43 2.307 . S
Dy40 O45 2.395 . S
Dy40 O46 2.379 . S
Dy40 O48 2.339 . S
Dy40 O50 2.298 . S
Dy40 O54 2.275 . S
Dy40 C62 2.738 . S
Dy41 O44 2.298 . S
Dy41 O47 2.275 . S
Dy41 O49 2.307 . S
Dy41 O51 2.395 . S
Dy41 O52 2.379 . S
Dy41 O55 2.339 . S
Dy41 C71 2.738 . S
C42 O54 1.254 . S
C42 O55 1.257 . S
O43 Dy40 2.307 . S
O43 C53 1.266 . S
O44 Dy41 2.298 . S
O44 C53 1.236 . S
O45 Dy40 2.395 . S
O45 C62 1.255 . S
O46 Dy40 2.379 . S
O46 C62 1.249 . S
O47 Dy41 2.275 . S
O47 C63 1.254 . S
O48 Dy40 2.339 . S
O48 C63 1.257 . S
O49 Dy41 2.307 . S
O49 C64 1.266 . S
O50 Dy40 2.298 . S
O50 C64 1.236 . S
O51 Dy41 2.395 . S
O51 C71 1.255 . S
O52 Dy41 2.379 . S
O52 C71 1.249 . S
C53 O43 1.266 . S
C53 O44 1.236 . S
O54 Dy40 2.275 . S
O54 C42 1.254 . S
O55 Dy41 2.339 . S
O55 C42 1.257 . S
C56 C59 1.344 . S
C56 C60 1.328 . S
C56 C62 1.516 . S
C57 C58 1.304 . S
C57 C61 1.323 . S
C58 C57 1.304 . S
C58 C59 1.371 . S
C58 H72 0.930 . S
C59 C56 1.344 . S
C59 C58 1.371 . S
C59 H73 0.931 . S
C60 C56 1.328 . S
C60 C61 1.433 . S
C60 H74 0.931 . S
C61 C57 1.323 . S
C61 C60 1.433 . S
C61 H75 0.933 . S
C62 Dy40 2.738 . S
C62 O45 1.255 . S
C62 O46 1.249 . S
C62 C56 1.516 . S
C63 O47 1.254 . S
C63 O48 1.257 . S
C64 O49 1.266 . S
C64 O50 1.236 . S
C65 C68 1.344 . S
C65 C69 1.328 1_655 S
C65 C71 1.516 . S
C66 C67 1.304 . S
C66 C70 1.323 . S
C67 C66 1.304 . S
C67 C68 1.371 1_455 S
C67 H76 0.930 . S
C68 C65 1.344 . S
C68 C67 1.371 1_655 S
C68 H77 0.931 . S
C69 C65 1.328 1_455 S
C69 C70 1.433 . S
C69 H78 0.931 1_455 S
C70 C66 1.323 . S
C70 C69 1.433 . S
C70 H79 0.933 . S
C71 Dy41 2.738 . S
C71 O51 1.255 . S
C71 O52 1.249 . S
C71 C65 1.516 . S
H72 C58 0.930 . S
H73 C59 0.931 . S
H74 C60 0.931 . S
H75 C61 0.933 . S
H76 C67 0.930 . S
H77 C68 0.931 . S
H78 C69 0.931 1_655 S
H79 C70 0.933 . S
Dy80 O83 2.307 . S
Dy80 O85 2.395 . S
Dy80 O86 2.379 . S
Dy80 O88 2.339 . S
Dy80 O90 2.298 . S
Dy80 O94 2.275 . S
Dy80 C102 2.738 . S
Dy81 O84 2.298 . S
Dy81 O87 2.275 . S
Dy81 O89 2.307 . S
Dy81 O91 2.395 . S
Dy81 O92 2.379 . S
Dy81 O95 2.339 . S
Dy81 C111 2.738 . S
C82 O94 1.254 . S
C82 O95 1.257 . S
O83 Dy80 2.307 . S
O83 C93 1.266 . S
O84 Dy81 2.298 . S
O84 C93 1.236 . S
O85 Dy80 2.395 . S
O85 C102 1.255 . S
O86 Dy80 2.379 . S
O86 C102 1.249 . S
O87 Dy81 2.275 . S
O87 C103 1.254 . S
O88 Dy80 2.339 . S
O88 C103 1.257 . S
O89 Dy81 2.307 . S
O89 C104 1.266 . S
O90 Dy80 2.298 . S
O90 C104 1.236 . S
O91 Dy81 2.395 . S
O91 C111 1.255 . S
O92 Dy81 2.379 . S
O92 C111 1.249 . S
C93 O83 1.266 . S
C93 O84 1.236 . S
O94 Dy80 2.275 . S
O94 C82 1.254 . S
O95 Dy81 2.339 . S
O95 C82 1.257 . S
C96 C99 1.344 . S
C96 C100 1.328 . S
C96 C102 1.516 . S
C97 C98 1.304 . S
C97 C101 1.323 . S
C98 C97 1.304 . S
C98 C99 1.371 . S
C98 H112 0.930 . S
C99 C96 1.344 . S
C99 C98 1.371 . S
C99 H113 0.931 . S
C100 C96 1.328 . S
C100 C101 1.433 . S
C100 H114 0.931 . S
C101 C97 1.323 . S
C101 C100 1.433 . S
C101 H115 0.933 . S
C102 Dy80 2.738 . S
C102 O85 1.255 . S
C102 O86 1.249 . S
C102 C96 1.516 . S
C103 O87 1.254 . S
C103 O88 1.257 . S
C104 O89 1.266 . S
C104 O90 1.236 . S
C105 C108 1.344 . S
C105 C109 1.328 1_545 S
C105 C111 1.516 . S
C106 C107 1.304 . S
C106 C110 1.323 . S
C107 C106 1.304 . S
C107 C108 1.371 1_565 S
C107 H116 0.930 . S
C108 C105 1.344 . S
C108 C107 1.371 1_545 S
C108 H117 0.931 . S
C109 C105 1.328 1_565 S
C109 C110 1.433 . S
C109 H118 0.931 1_565 S
C110 C106 1.323 . S
C110 C109 1.433 . S
C110 H119 0.933 . S
C111 Dy81 2.738 . S
C111 O91 1.255 . S
C111 O92 1.249 . S
C111 C105 1.516 . S
H112 C98 0.930 . S
H113 C99 0.931 . S
H114 C100 0.931 . S
H115 C101 0.933 . S
H116 C107 0.930 . S
H117 C108 0.931 . S
H118 C109 0.931 1_545 S
H119 C110 0.933 . S
Dy120 O123 2.307 . S
Dy120 O125 2.395 . S
Dy120 O126 2.379 . S
Dy120 O128 2.339 . S
Dy120 O130 2.298 . S
Dy120 O134 2.275 . S
Dy120 C142 2.738 . S
Dy121 O124 2.298 . S
Dy121 O127 2.275 . S
Dy121 O129 2.307 . S
Dy121 O131 2.395 . S
Dy121 O132 2.379 . S
Dy121 O135 2.339 . S
Dy121 C151 2.738 . S
C122 O134 1.254 . S
C122 O135 1.257 . S
O123 Dy120 2.307 . S
O123 C133 1.266 . S
O124 Dy121 2.298 . S
O124 C133 1.236 . S
O125 Dy120 2.395 . S
O125 C142 1.255 . S
O126 Dy120 2.379 . S
O126 C142 1.249 . S
O127 Dy121 2.275 . S
O127 C143 1.254 . S
O128 Dy120 2.339 . S
O128 C143 1.257 . S
O129 Dy121 2.307 . S
O129 C144 1.266 . S
O130 Dy120 2.298 . S
O130 C144 1.236 . S
O131 Dy121 2.395 . S
O131 C151 1.255 . S
O132 Dy121 2.379 . S
O132 C151 1.249 . S
C133 O123 1.266 . S
C133 O124 1.236 . S
O134 Dy120 2.275 . S
O134 C122 1.254 . S
O135 Dy121 2.339 . S
O135 C122 1.257 . S
C136 C139 1.344 . S
C136 C140 1.328 . S
C136 C142 1.516 . S
C137 C138 1.304 . S
C137 C141 1.323 . S
C138 C137 1.304 . S
C138 C139 1.371 . S
C138 H152 0.930 . S
C139 C136 1.344 . S
C139 C138 1.371 . S
C139 H153 0.931 . S
C140 C136 1.328 . S
C140 C141 1.433 . S
C140 H154 0.931 . S
C141 C137 1.323 . S
C141 C140 1.433 . S
C141 H155 0.933 . S
C142 Dy120 2.738 . S
C142 O125 1.255 . S
C142 O126 1.249 . S
C142 C136 1.516 . S
C143 O127 1.254 . S
C143 O128 1.257 . S
C144 O129 1.266 . S
C144 O130 1.236 . S
C145 C148 1.344 . S
C145 C149 1.328 . S
C145 C151 1.516 . S
C146 C147 1.304 . S
C146 C150 1.323 . S
C147 C146 1.304 . S
C147 C148 1.371 . S
C147 H156 0.930 . S
C148 C145 1.344 . S
C148 C147 1.371 . S
C148 H157 0.931 . S
C149 C145 1.328 . S
C149 C150 1.433 . S
C149 H158 0.931 . S
C150 C146 1.323 . S
C150 C149 1.433 . S
C150 H159 0.933 . S
C151 Dy121 2.738 . S
C151 O131 1.255 . S
C151 O132 1.249 . S
C151 C145 1.516 . S
H152 C138 0.930 . S
H153 C139 0.931 . S
H154 C140 0.931 . S
H155 C141 0.933 . S
H156 C147 0.930 . S
H157 C148 0.931 . S
H158 C149 0.931 . S
H159 C150 0.933 . S
Dy160 O163 2.307 . S
Dy160 O165 2.395 . S
Dy160 O166 2.379 . S
Dy160 O168 2.339 . S
Dy160 O170 2.298 . S
Dy160 O174 2.275 . S
Dy160 C182 2.738 . S
Dy161 O164 2.298 . S
Dy161 O167 2.275 . S
Dy161 O169 2.307 . S
Dy161 O171 2.395 . S
Dy161 O172 2.379 . S
Dy161 O175 2.339 . S
Dy161 C191 2.738 . S
C162 O174 1.254 . S
C162 O175 1.257 . S
O163 Dy160 2.307 . S
O163 C173 1.266 . S
O164 Dy161 2.298 . S
O164 C173 1.236 . S
O165 Dy160 2.395 . S
O165 C182 1.255 . S
O166 Dy160 2.379 . S
O166 C182 1.249 . S
O167 Dy161 2.275 . S
O167 C183 1.254 . S
O168 Dy160 2.339 . S
O168 C183 1.257 . S
O169 Dy161 2.307 . S
O169 C184 1.266 . S
O170 Dy160 2.298 . S
O170 C184 1.236 . S
O171 Dy161 2.395 . S
O171 C191 1.255 . S
O172 Dy161 2.379 . S
O172 C191 1.249 . S
C173 O163 1.266 . S
C173 O164 1.236 . S
O174 Dy160 2.275 . S
O174 C162 1.254 . S
O175 Dy161 2.339 . S
O175 C162 1.257 . S
C176 C179 1.344 . S
C176 C180 1.328 . S
C176 C182 1.516 . S
C177 C178 1.304 . S
C177 C181 1.323 . S
C178 C177 1.304 . S
C178 C179 1.371 . S
C178 H192 0.930 . S
C179 C176 1.344 . S
C179 C178 1.371 . S
C179 H193 0.931 . S
C180 C176 1.328 . S
C180 C181 1.433 . S
C180 H194 0.931 . S
C181 C177 1.323 . S
C181 C180 1.433 . S
C181 H195 0.933 . S
C182 Dy160 2.738 . S
C182 O165 1.255 . S
C182 O166 1.249 . S
C182 C176 1.516 . S
C183 O167 1.254 . S
C183 O168 1.257 . S
C184 O169 1.266 . S
C184 O170 1.236 . S
C185 C188 1.344 . S
C185 C189 1.328 1_455 S
C185 C191 1.516 . S
C186 C187 1.304 . S
C186 C190 1.323 . S
C187 C186 1.304 . S
C187 C188 1.371 1_655 S
C187 H196 0.930 . S
C188 C185 1.344 . S
C188 C187 1.371 1_455 S
C188 H197 0.931 . S
C189 C185 1.328 1_655 S
C189 C190 1.433 . S
C189 H198 0.931 1_655 S
C190 C186 1.323 . S
C190 C189 1.433 . S
C190 H199 0.933 . S
C191 Dy161 2.738 . S
C191 O171 1.255 . S
C191 O172 1.249 . S
C191 C185 1.516 . S
H192 C178 0.930 . S
H193 C179 0.931 . S
H194 C180 0.931 . S
H195 C181 0.933 . S
H196 C187 0.930 . S
H197 C188 0.931 . S
H198 C189 0.931 1_455 S
H199 C190 0.933 . S
Dy200 O203 2.307 . S
Dy200 O205 2.395 . S
Dy200 O206 2.379 . S
Dy200 O208 2.339 . S
Dy200 O210 2.298 . S
Dy200 O214 2.275 . S
Dy200 C222 2.738 . S
Dy201 O204 2.298 . S
Dy201 O207 2.275 . S
Dy201 O209 2.307 . S
Dy201 O211 2.395 . S
Dy201 O212 2.379 . S
Dy201 O215 2.339 . S
Dy201 C231 2.738 . S
C202 O214 1.254 . S
C202 O215 1.257 . S
O203 Dy200 2.307 . S
O203 C213 1.266 . S
O204 Dy201 2.298 . S
O204 C213 1.236 . S
O205 Dy200 2.395 . S
O205 C222 1.255 . S
O206 Dy200 2.379 . S
O206 C222 1.249 . S
O207 Dy201 2.275 . S
O207 C223 1.254 . S
O208 Dy200 2.339 . S
O208 C223 1.257 . S
O209 Dy201 2.307 . S
O209 C224 1.266 . S
O210 Dy200 2.298 . S
O210 C224 1.236 . S
O211 Dy201 2.395 . S
O211 C231 1.255 . S
O212 Dy201 2.379 . S
O212 C231 1.249 . S
C213 O203 1.266 . S
C213 O204 1.236 . S
O214 Dy200 2.275 . S
O214 C202 1.254 . S
O215 Dy201 2.339 . S
O215 C202 1.257 . S
C216 C219 1.344 . S
C216 C220 1.328 . S
C216 C222 1.516 . S
C217 C218 1.304 . S
C217 C221 1.323 . S
C218 C217 1.304 . S
C218 C219 1.371 . S
C218 H232 0.930 . S
C219 C216 1.344 . S
C219 C218 1.371 . S
C219 H233 0.931 . S
C220 C216 1.328 . S
C220 C221 1.433 . S
C220 H234 0.931 . S
C221 C217 1.323 . S
C221 C220 1.433 . S
C221 H235 0.933 . S
C222 Dy200 2.738 . S
C222 O205 1.255 . S
C222 O206 1.249 . S
C222 C216 1.516 . S
C223 O207 1.254 . S
C223 O208 1.257 . S
C224 O209 1.266 . S
C224 O210 1.236 . S
C225 C228 1.344 . S
C225 C229 1.328 1_565 S
C225 C231 1.516 . S
C226 C227 1.304 . S
C226 C230 1.323 . S
C227 C226 1.304 . S
C227 C228 1.371 1_545 S
C227 H236 0.930 . S
C228 C225 1.344 . S
C228 C227 1.371 1_565 S
C228 H237 0.931 . S
C229 C225 1.328 1_545 S
C229 C230 1.433 . S
C229 H238 0.931 1_545 S
C230 C226 1.323 . S
C230 C229 1.433 . S
C230 H239 0.933 . S
C231 Dy201 2.738 . S
C231 O211 1.255 . S
C231 O212 1.249 . S
C231 C225 1.516 . S
H232 C218 0.930 . S
H233 C219 0.931 . S
H234 C220 0.931 . S
H235 C221 0.933 . S
H236 C227 0.930 . S
H237 C228 0.931 . S
H238 C229 0.931 1_565 S
H239 C230 0.933 . S
C240 C241 1.369 1_554 S
C240 C242 1.424 . S
C240 H244 0.930 . S
C241 C240 1.369 1_556 S
C241 C250 1.429 1_565 S
C242 C240 1.424 . S
C242 C243 1.356 1_565 S
C242 H245 0.931 . S
C243 C242 1.356 1_545 S
C243 C249 1.428 1_554 S
H244 C240 0.930 . S
H245 C242 0.931 . S
S246 N247 1.613 . S
S246 N248 1.610 . S
N247 S246 1.613 . S
N247 C250 1.350 . S
N248 S246 1.610 . S
N248 C249 1.351 . S
C249 C243 1.428 1_556 S
C249 N248 1.351 . S
C249 C250 1.434 . S
C250 C241 1.429 1_545 S
C250 N247 1.350 . S
C250 C249 1.434 . S
C251 C252 1.369 . S
C251 C253 1.419 . S
C251 H255 0.930 . S
C252 C251 1.369 . S
C252 C261 1.429 . S
C253 C251 1.419 . S
C253 C254 1.363 . S
C253 H256 0.929 . S
C254 C253 1.363 . S
C254 C260 1.428 . S
H255 C251 0.930 . S
H256 C253 0.929 . S
S257 N258 1.613 . S
S257 N259 1.610 . S
N258 S257 1.613 . S
N258 C261 1.350 . S
N259 S257 1.610 . S
N259 C260 1.351 . S
C260 C254 1.428 . S
C260 N259 1.351 . S
C260 C261 1.434 . S
C261 C252 1.429 . S
C261 N258 1.350 . S
C261 C260 1.434 . S
C262 C263 1.369 1_556 S
C262 C264 1.404 1_655 S
C262 H266 0.930 . S
C263 C262 1.369 1_554 S
C263 C272 1.422 1_655 S
C264 C262 1.404 1_455 S
C264 C265 1.374 . S
C264 H267 0.939 1_455 S
C265 C264 1.374 . S
C265 C271 1.428 1_556 S
H266 C262 0.930 . S
H267 C264 0.939 1_655 S
S268 N269 1.613 . S
S268 N270 1.610 . S
N269 S268 1.613 . S
N269 C272 1.347 . S
N270 S268 1.610 . S
N270 C271 1.351 . S
C271 C265 1.428 1_554 S
C271 N270 1.351 . S
C271 C272 1.444 . S
C272 C263 1.422 1_455 S
C272 N269 1.347 . S
C272 C271 1.444 . S
C273 C274 1.369 . S
C273 C275 1.419 1_545 S
C273 H277 0.930 . S
C274 C273 1.369 . S
C274 C283 1.429 . S
C275 C273 1.419 1_565 S
C275 C276 1.363 . S
C275 H278 0.929 . S
C276 C275 1.363 . S
C276 C282 1.428 . S
H277 C273 0.930 . S
H278 C275 0.929 . S
S279 N280 1.613 1_565 S
S279 N281 1.610 . S
N280 S279 1.613 1_545 S
N280 C283 1.350 . S
N281 S279 1.610 . S
N281 C282 1.351 . S
C282 C276 1.428 . S
C282 N281 1.351 . S
C282 C283 1.434 1_565 S
C283 C274 1.429 . S
C283 N280 1.350 . S
C283 C282 1.434 1_545 S
C284 C285 1.369 1_554 S
C284 C286 1.419 . S
C284 H288 0.930 . S
C285 C284 1.369 1_556 S
C285 C294 1.429 . S
C286 C284 1.419 . S
C286 C287 1.363 . S
C286 H289 0.929 . S
C287 C286 1.363 . S
C287 C293 1.428 1_554 S
H288 C284 0.930 . S
H289 C286 0.929 . S
S290 N291 1.613 . S
S290 N292 1.610 . S
N291 S290 1.613 . S
N291 C294 1.350 . S
N292 S290 1.610 . S
N292 C293 1.351 . S
C293 C287 1.428 1_556 S
C293 N292 1.351 . S
C293 C294 1.434 . S
C294 C285 1.429 . S
C294 N291 1.350 . S
C294 C293 1.434 . S
C295 C296 1.369 . S
C295 C297 1.419 1_655 S
C295 H299 0.930 . S
C296 C295 1.369 . S
C296 C305 1.429 . S
C297 C295 1.419 1_455 S
C297 C298 1.363 . S
C297 H300 0.929 . S
C298 C297 1.363 . S
C298 C304 1.428 . S
H299 C295 0.930 . S
H300 C297 0.929 . S
S301 N302 1.613 . S
S301 N303 1.610 1_655 S
N302 S301 1.613 . S
N302 C305 1.350 . S
N303 S301 1.610 1_455 S
N303 C304 1.351 . S
C304 C298 1.428 . S
C304 N303 1.351 . S
C304 C305 1.434 1_455 S
C305 C296 1.429 . S
C305 N302 1.350 . S
C305 C304 1.434 1_655 S
C306 C307 1.369 . S
C306 C308 1.419 . S
C306 H310 0.930 . S
C307 C306 1.369 . S
C307 C316 1.429 . S
C308 C306 1.419 . S
C308 C309 1.363 . S
C308 H311 0.929 . S
C309 C308 1.363 . S
C309 C315 1.428 . S
H310 C306 0.930 . S
H311 C308 0.929 . S
S312 N313 1.613 . S
S312 N314 1.610 . S
N313 S312 1.613 . S
N313 C316 1.350 . S
N314 S312 1.610 . S
N314 C315 1.351 . S
C315 C309 1.428 . S
C315 N314 1.351 . S
C315 C316 1.434 . S
C316 C307 1.429 . S
C316 N313 1.350 . S
C316 C315 1.434 . S
C317 C318 1.369 . S
C317 C319 1.419 . S
C317 H321 0.930 . S
C318 C317 1.369 . S
C318 C327 1.429 . S
C319 C317 1.419 . S
C319 C320 1.363 . S
C319 H322 0.929 . S
C320 C319 1.363 . S
C320 C326 1.428 . S
H321 C317 0.930 . S
H322 C319 0.929 . S
S323 N324 1.613 . S
S323 N325 1.610 . S
N324 S323 1.613 . S
N324 C327 1.350 . S
N325 S323 1.610 . S
N325 C326 1.351 . S
C326 C320 1.428 . S
C326 N325 1.351 . S
C326 C327 1.434 . S
C327 C318 1.429 . S
C327 N324 1.350 . S
C327 C326 1.434 . S
C328 C329 1.369 . S
C328 C330 1.419 . S
C328 H332 0.930 . S
C329 C328 1.369 . S
C329 C338 1.429 . S
C330 C328 1.419 . S
C330 C331 1.363 . S
C330 H333 0.929 . S
C331 C330 1.363 . S
C331 C337 1.428 . S
H332 C328 0.930 . S
H333 C330 0.929 . S
S334 N335 1.613 . S
S334 N336 1.610 . S
N335 S334 1.613 . S
N335 C338 1.350 . S
N336 S334 1.610 . S
N336 C337 1.351 . S
C337 C331 1.428 . S
C337 N336 1.351 . S
C337 C338 1.434 . S
C338 C329 1.429 . S
C338 N335 1.350 . S
C338 C337 1.434 . S
C339 C340 1.369 . S
C339 C341 1.419 . S
C339 H343 0.930 . S
C340 C339 1.369 . S
C340 C349 1.429 . S
C341 C339 1.419 . S
C341 C342 1.363 . S
C341 H344 0.929 . S
C342 C341 1.363 . S
C342 C348 1.428 . S
H343 C339 0.930 . S
H344 C341 0.929 . S
S345 N346 1.613 . S
S345 N347 1.610 . S
N346 S345 1.613 . S
N346 C349 1.350 . S
N347 S345 1.610 . S
N347 C348 1.351 . S
C348 C342 1.428 . S
C348 N347 1.351 . S
C348 C349 1.434 . S
C349 C340 1.429 . S
C349 N346 1.350 . S
C349 C348 1.434 . S
C350 C351 1.369 . S
C350 C352 1.419 . S
C350 H354 0.930 . S
C351 C350 1.369 . S
C351 C360 1.429 . S
C352 C350 1.419 . S
C352 C353 1.363 . S
C352 H355 0.929 . S
C353 C352 1.363 . S
C353 C359 1.428 . S
H354 C350 0.930 . S
H355 C352 0.929 . S
S356 N357 1.613 . S
S356 N358 1.610 . S
N357 S356 1.613 . S
N357 C360 1.350 . S
N358 S356 1.610 . S
N358 C359 1.351 . S
C359 C353 1.428 . S
C359 N358 1.351 . S
C359 C360 1.434 . S
C360 C351 1.429 . S
C360 N357 1.350 . S
C360 C359 1.434 . S
C361 C362 1.369 . S
C361 C363 1.419 . S
C361 H365 0.930 . S
C362 C361 1.369 . S
C362 C371 1.429 . S
C363 C361 1.419 . S
C363 C364 1.363 . S
C363 H366 0.929 . S
C364 C363 1.363 . S
C364 C370 1.428 . S
H365 C361 0.930 . S
H366 C363 0.929 . S
S367 N368 1.613 . S
S367 N369 1.610 . S
N368 S367 1.613 . S
N368 C371 1.350 . S
N369 S367 1.610 . S
N369 C370 1.351 . S
C370 C364 1.428 . S
C370 N369 1.351 . S
C370 C371 1.434 . S
C371 C362 1.429 . S
C371 N368 1.350 . S
C371 C370 1.434 . S
C372 C373 1.369 . S
C372 C374 1.419 . S
C372 H376 0.930 . S
C373 C372 1.369 . S
C373 C382 1.429 1_455 S
C374 C372 1.419 . S
C374 C375 1.363 . S
C374 H377 0.929 . S
C375 C374 1.363 . S
C375 C381 1.428 1_455 S
H376 C372 0.930 . S
H377 C374 0.929 . S
S378 N379 1.613 . S
S378 N380 1.610 . S
N379 S378 1.613 . S
N379 C382 1.350 . S
N380 S378 1.610 . S
N380 C381 1.351 . S
C381 C375 1.428 1_655 S
C381 N380 1.351 . S
C381 C382 1.434 . S
C382 C373 1.429 1_655 S
C382 N379 1.350 . S
C382 C381 1.434 . S
C383 C384 1.369 . S
C383 C385 1.418 . S
C383 H387 0.930 . S
C384 C383 1.369 . S
C384 C393 1.429 . S
C385 C383 1.418 . S
C385 C386 1.364 . S
C385 H388 0.929 1_565 S
C386 C385 1.364 . S
C386 C392 1.428 . S
H387 C383 0.930 . S
H388 C385 0.929 1_545 S
S389 N390 1.613 . S
S389 N391 1.610 . S
N390 S389 1.613 . S
N390 C393 1.350 . S
N391 S389 1.610 . S
N391 C392 1.351 . S
C392 C386 1.428 . S
C392 N391 1.351 . S
C392 C393 1.434 . S
C393 C384 1.429 . S
C393 N390 1.350 . S
C393 C392 1.434 . S
C394 C395 1.369 . S
C394 C396 1.419 . S
C394 H398 0.930 . S
C395 C394 1.369 . S
C395 C404 1.429 . S
C396 C394 1.419 . S
C396 C397 1.363 . S
C396 H399 0.929 . S
C397 C396 1.363 . S
C397 C403 1.428 . S
H398 C394 0.930 . S
H399 C396 0.929 . S
S400 N401 1.613 . S
S400 N402 1.610 . S
N401 S400 1.613 . S
N401 C404 1.350 . S
N402 S400 1.610 . S
N402 C403 1.351 . S
C403 C397 1.428 . S
C403 N402 1.351 . S
C403 C404 1.434 . S
C404 C395 1.429 . S
C404 N401 1.350 . S
C404 C403 1.434 . S
C405 C406 1.369 . S
C405 C407 1.419 . S
C405 H409 0.930 . S
C406 C405 1.369 . S
C406 C415 1.429 . S
C407 C405 1.419 . S
C407 C408 1.363 . S
C407 H410 0.929 . S
C408 C407 1.363 . S
C408 C414 1.428 . S
H409 C405 0.930 . S
H410 C407 0.929 . S
S411 N412 1.613 . S
S411 N413 1.610 . S
N412 S411 1.613 . S
N412 C415 1.350 . S
N413 S411 1.610 . S
N413 C414 1.351 . S
C414 C408 1.428 . S
C414 N413 1.351 . S
C414 C415 1.434 . S
C415 C406 1.429 . S
C415 N412 1.350 . S
C415 C414 1.434 . S
C416 C417 1.369 . S
C416 C418 1.419 . S
C416 H420 0.930 . S
C417 C416 1.369 . S
C417 C426 1.429 . S
C418 C416 1.419 . S
C418 C419 1.363 . S
C418 H421 0.929 . S
C419 C418 1.363 . S
C419 C425 1.428 . S
H420 C416 0.930 . S
H421 C418 0.929 . S
S422 N423 1.613 . S
S422 N424 1.610 . S
N423 S422 1.613 . S
N423 C426 1.350 . S
N424 S422 1.610 . S
N424 C425 1.351 . S
C425 C419 1.428 . S
C425 N424 1.351 . S
C425 C426 1.434 . S
C426 C417 1.429 . S
C426 N423 1.350 . S
C426 C425 1.434 . S
C427 C428 1.369 . S
C427 C429 1.419 . S
C427 H431 0.930 . S
C428 C427 1.369 . S
C428 C437 1.429 . S
C429 C427 1.419 . S
C429 C430 1.363 . S
C429 H432 0.929 . S
C430 C429 1.363 . S
C430 C436 1.428 . S
H431 C427 0.930 . S
H432 C429 0.929 . S
S433 N434 1.613 . S
S433 N435 1.610 . S
N434 S433 1.613 . S
N434 C437 1.350 . S
N435 S433 1.610 . S
N435 C436 1.351 . S
C436 C430 1.428 . S
C436 N435 1.351 . S
C436 C437 1.434 . S
C437 C428 1.429 . S
C437 N434 1.350 . S
C437 C436 1.434 . S
C241 C183 2.344 . S
C243 C23 2.352 . S
C252 C202 2.610 . S
C254 C42 2.615 . S
C263 C103 2.344 . S
C265 C143 2.349 . S
C274 C2 2.614 . S
C276 C162 2.617 . S
C285 C223 2.344 . S
C287 C63 2.348 . S
C296 C82 2.614 . S
C298 C122 2.611 . S
C307 C17 1.881 . S
C309 C104 1.905 . S
C318 C57 1.883 . S
C320 C24 1.904 . S
C329 C97 1.887 . S
C331 C64 1.901 . S
C340 C137 1.885 . S
C342 C184 1.902 . S
C351 C177 1.890 . S
C353 C224 1.899 . S
C362 C144 1.906 . S
C364 C217 1.883 . S
C373 C26 1.307 . S
C375 C93 1.285 1_455 S
C384 C66 1.301 . S
C386 C13 1.290 1_565 S
C395 C106 1.301 . S
C397 C53 1.289 . S
C406 C146 1.298 . S
C408 C173 1.293 1_545 S
C417 C186 1.295 . S
C419 C213 1.295 . S
C428 C133 1.289 1_655 S
C430 C226 1.302 . S
