# Generated by pormake.
# Topology fnk, (5)-cn, num edge types: 1
# Building blocks:
#     Node 0, Type 0, BuildingBlock: BEQFEK_clean_sbu_0, # of connection points: 5
#     Node 1, Type 0, BuildingBlock: BEQFEK_clean_sbu_0, # of connection points: 5
#     Node 2, Type 0, BuildingBlock: BEQFEK_clean_sbu_0, # of connection points: 5
#     Node 3, Type 0, BuildingBlock: BEQFEK_clean_sbu_0, # of connection points: 5
#     Node 4, Type 0, BuildingBlock: BEQFEK_clean_sbu_0, # of connection points: 5
#     Node 5, Type 0, BuildingBlock: BEQFEK_clean_sbu_0, # of connection points: 5
#     Node 6, Type 0, BuildingBlock: BEQFEK_clean_sbu_0, # of connection points: 5
#     Node 7, Type 0, BuildingBlock: BEQFEK_clean_sbu_0, # of connection points: 5
#     Node 8, Type 0, BuildingBlock: BEQFEK_clean_sbu_0, # of connection points: 5
#     Node 9, Type 0, BuildingBlock: BEQFEK_clean_sbu_0, # of connection points: 5
#     Node 10, Type 0, BuildingBlock: BEQFEK_clean_sbu_0, # of connection points: 5
#     Node 11, Type 0, BuildingBlock: BEQFEK_clean_sbu_0, # of connection points: 5
#     Node 12, Type 0, BuildingBlock: BEQFEK_clean_sbu_0, # of connection points: 5
#     Node 13, Type 0, BuildingBlock: BEQFEK_clean_sbu_0, # of connection points: 5
#     Node 14, Type 0, BuildingBlock: BEQFEK_clean_sbu_0, # of connection points: 5
#     Node 15, Type 0, BuildingBlock: BEQFEK_clean_sbu_0, # of connection points: 5
#     Edge 16, Type (0, 0), BuildingBlock: XUDNAN_clean_linker_2, # of connection points: 2
#     Edge 17, Type (0, 0), BuildingBlock: XUDNAN_clean_linker_2, # of connection points: 2
#     Edge 18, Type (0, 0), BuildingBlock: XUDNAN_clean_linker_2, # of connection points: 2
#     Edge 19, Type (0, 0), BuildingBlock: XUDNAN_clean_linker_2, # of connection points: 2
#     Edge 20, Type (0, 0), BuildingBlock: XUDNAN_clean_linker_2, # of connection points: 2
#     Edge 21, Type (0, 0), BuildingBlock: XUDNAN_clean_linker_2, # of connection points: 2
#     Edge 22, Type (0, 0), BuildingBlock: XUDNAN_clean_linker_2, # of connection points: 2
#     Edge 23, Type (0, 0), BuildingBlock: XUDNAN_clean_linker_2, # of connection points: 2
#     Edge 24, Type (0, 0), BuildingBlock: XUDNAN_clean_linker_2, # of connection points: 2
#     Edge 25, Type (0, 0), BuildingBlock: XUDNAN_clean_linker_2, # of connection points: 2
#     Edge 26, Type (0, 0), BuildingBlock: XUDNAN_clean_linker_2, # of connection points: 2
#     Edge 27, Type (0, 0), BuildingBlock: XUDNAN_clean_linker_2, # of connection points: 2
#     Edge 28, Type (0, 0), BuildingBlock: XUDNAN_clean_linker_2, # of connection points: 2
#     Edge 29, Type (0, 0), BuildingBlock: XUDNAN_clean_linker_2, # of connection points: 2
#     Edge 30, Type (0, 0), BuildingBlock: XUDNAN_clean_linker_2, # of connection points: 2
#     Edge 31, Type (0, 0), BuildingBlock: XUDNAN_clean_linker_2, # of connection points: 2
#     Edge 32, Type (0, 0), BuildingBlock: XUDNAN_clean_linker_2, # of connection points: 2
#     Edge 33, Type (0, 0), BuildingBlock: XUDNAN_clean_linker_2, # of connection points: 2
#     Edge 34, Type (0, 0), BuildingBlock: XUDNAN_clean_linker_2, # of connection points: 2
#     Edge 35, Type (0, 0), BuildingBlock: XUDNAN_clean_linker_2, # of connection points: 2
#     Edge 36, Type (0, 0), BuildingBlock: XUDNAN_clean_linker_2, # of connection points: 2
#     Edge 37, Type (0, 0), BuildingBlock: XUDNAN_clean_linker_2, # of connection points: 2
#     Edge 38, Type (0, 0), BuildingBlock: XUDNAN_clean_linker_2, # of connection points: 2
#     Edge 39, Type (0, 0), BuildingBlock: XUDNAN_clean_linker_2, # of connection points: 2
#     Edge 40, Type (0, 0), BuildingBlock: XUDNAN_clean_linker_2, # of connection points: 2
#     Edge 41, Type (0, 0), BuildingBlock: XUDNAN_clean_linker_2, # of connection points: 2
#     Edge 42, Type (0, 0), BuildingBlock: XUDNAN_clean_linker_2, # of connection points: 2
#     Edge 43, Type (0, 0), BuildingBlock: XUDNAN_clean_linker_2, # of connection points: 2
#     Edge 44, Type (0, 0), BuildingBlock: XUDNAN_clean_linker_2, # of connection points: 2
#     Edge 45, Type (0, 0), BuildingBlock: XUDNAN_clean_linker_2, # of connection points: 2
#     Edge 46, Type (0, 0), BuildingBlock: XUDNAN_clean_linker_2, # of connection points: 2
#     Edge 47, Type (0, 0), BuildingBlock: XUDNAN_clean_linker_2, # of connection points: 2
#     Edge 48, Type (0, 0), BuildingBlock: XUDNAN_clean_linker_2, # of connection points: 2
#     Edge 49, Type (0, 0), BuildingBlock: XUDNAN_clean_linker_2, # of connection points: 2
#     Edge 50, Type (0, 0), BuildingBlock: XUDNAN_clean_linker_2, # of connection points: 2
#     Edge 51, Type (0, 0), BuildingBlock: XUDNAN_clean_linker_2, # of connection points: 2
#     Edge 52, Type (0, 0), BuildingBlock: XUDNAN_clean_linker_2, # of connection points: 2
#     Edge 53, Type (0, 0), BuildingBlock: XUDNAN_clean_linker_2, # of connection points: 2
#     Edge 54, Type (0, 0), BuildingBlock: XUDNAN_clean_linker_2, # of connection points: 2
#     Edge 55, Type (0, 0), BuildingBlock: XUDNAN_clean_linker_2, # of connection points: 2
# Relax obj value: 0.375
# Max RMSD: 0.201
# Mean RMSD: 0.201
data_MOF--net-fnk--node1-BEQFEK_clean_sbu_0--edge1-XUDNAN_clean_linker_2
_symmetry_space_group_name_H-M    P1
_symmetry_Int_Tables_number       1
_symmetry_cell_setting            triclinic
loop_
_symmetry_equiv_pos_as_xyz
'x, y, z'
_cell_length_a     50.946615
_cell_length_b     50.493997
_cell_length_c     49.56696
_cell_angle_alpha  89.974178
_cell_angle_beta   89.99498
_cell_angle_gamma 90.051944
loop_
_atom_site_label
_atom_site_type_symbol
_atom_site_fract_x
_atom_site_fract_y
_atom_site_fract_z
_atom_type_partial_charge
Co0 Co 0.08033 0.39443 0.14587 0.0
Co1 Co 0.12405 0.35867 0.17036 0.0
C2 C 0.12302 0.41585 0.18304 0.0
O3 O 0.10204 0.41757 0.16916 0.0
O4 O 0.13568 0.39409 0.1847 0.0
C5 C 0.06245 0.43927 0.11598 0.0
O6 O 0.08699 0.44713 0.11779 0.0
C7 C 0.17221 0.33179 0.1909 0.0
C8 C 0.15841 0.29026 0.19062 0.0
C9 C 0.17948 0.30609 0.19774 0.0
N10 N 0.14787 0.33102 0.18027 0.0
N11 N 0.13994 0.3061 0.17996 0.0
C12 C 0.18669 0.35689 0.19684 0.0
H13 H 0.18702 0.36951 0.17849 0.0
H14 H 0.207 0.35306 0.20382 0.0
H15 H 0.17601 0.36797 0.21275 0.0
C16 C 0.10045 0.37226 0.0948 0.0
N17 N 0.10076 0.37414 0.12189 0.0
N18 N 0.11974 0.35936 0.13168 0.0
C19 C 0.13251 0.34784 0.11083 0.0
C20 C 0.12055 0.35546 0.08669 0.0
C21 C 0.0826 0.38821 0.0771 0.0
H22 H 0.06215 0.38669 0.0846 0.0
H23 H 0.08872 0.40924 0.07795 0.0
H24 H 0.08319 0.38202 0.05571 0.0
O25 O 0.05889 0.37201 0.16935 0.0
O26 O 0.09032 0.34932 0.18978 0.0
H27 H 0.14883 0.31126 0.12429 0.0
H28 H 0.16431 0.32432 0.09441 0.0
C29 C 0.15545 0.32965 0.1141 0.0
H30 H 0.1704 0.33915 0.1272 0.0
H31 H 0.1215 0.3 0.17321 0.0
O32 O 0.05577 0.41722 0.12619 0.0
C33 C 0.06616 0.35547 0.18714 0.0
Co34 Co 0.58462 0.09759 0.14951 0.0
Co35 Co 0.62448 0.136 0.17686 0.0
C36 C 0.56703 0.13932 0.18932 0.0
O37 O 0.56267 0.12023 0.17314 0.0
O38 O 0.59024 0.14835 0.1927 0.0
C39 C 0.53934 0.0841 0.11827 0.0
O40 O 0.53271 0.10898 0.12193 0.0
C41 C 0.65568 0.18273 0.19612 0.0
C42 C 0.69361 0.16273 0.20331 0.0
C43 C 0.68105 0.1869 0.20564 0.0
N44 N 0.65348 0.15713 0.18868 0.0
N45 N 0.67634 0.14549 0.19282 0.0
C46 C 0.63364 0.20225 0.19556 0.0
H47 H 0.61445 0.19207 0.19402 0.0
H48 H 0.63596 0.21525 0.17766 0.0
H49 H 0.63412 0.21489 0.21387 0.0
C50 C 0.60997 0.11808 0.10008 0.0
N51 N 0.60705 0.11764 0.12707 0.0
N52 N 0.62368 0.13434 0.13815 0.0
C53 C 0.63765 0.14621 0.11831 0.0
C54 C 0.62954 0.13612 0.0935 0.0
C55 C 0.5933 0.10234 0.08102 0.0
H56 H 0.57273 0.10927 0.08262 0.0
H57 H 0.59947 0.10454 0.05972 0.0
H58 H 0.59388 0.08111 0.08676 0.0
O59 O 0.60457 0.07271 0.17235 0.0
O60 O 0.63176 0.10033 0.19287 0.0
H61 H 0.66771 0.17318 0.10404 0.0
H62 H 0.65115 0.18282 0.1349 0.0
C63 C 0.65908 0.16589 0.1232 0.0
H64 H 0.6747 0.15651 0.1355 0.0
H65 H 0.68 0.1255 0.18902 0.0
O66 O 0.56088 0.07568 0.12784 0.0
C67 C 0.62275 0.07705 0.18935 0.0
Co68 Co 0.89576 0.59467 0.14553 0.0
Co69 Co 0.85752 0.63276 0.1757 0.0
C70 C 0.85655 0.57409 0.18579 0.0
O71 O 0.8745 0.57044 0.1683 0.0
O72 O 0.84781 0.59718 0.19121 0.0
C73 C 0.91366 0.55018 0.11398 0.0
O74 O 0.8918 0.53844 0.12143 0.0
C75 C 0.81 0.66107 0.19674 0.0
C76 C 0.82778 0.7003 0.20435 0.0
C77 C 0.80456 0.68623 0.20669 0.0
N78 N 0.83538 0.66043 0.18898 0.0
N79 N 0.8457 0.68404 0.19344 0.0
C80 C 0.79186 0.63779 0.19589 0.0
H81 H 0.80297 0.61906 0.19399 0.0
H82 H 0.77876 0.63967 0.17811 0.0
H83 H 0.77941 0.63729 0.21427 0.0
C84 C 0.87178 0.61968 0.09782 0.0
N85 N 0.87416 0.61699 0.12471 0.0
N86 N 0.85738 0.63274 0.13687 0.0
C87 C 0.84355 0.64595 0.11782 0.0
C88 C 0.85208 0.63789 0.09237 0.0
C89 C 0.88919 0.60608 0.07779 0.0
H90 H 0.90984 0.60693 0.08477 0.0
H91 H 0.88331 0.58498 0.07618 0.0
H92 H 0.88805 0.61538 0.05755 0.0
O93 O 0.92011 0.61489 0.16873 0.0
O94 O 0.89309 0.64178 0.19033 0.0
H95 H 0.8303 0.68255 0.13452 0.0
H96 H 0.81174 0.67165 0.10539 0.0
C97 C 0.82198 0.66508 0.12396 0.0
H98 H 0.80763 0.65558 0.13773 0.0
H99 H 0.86521 0.68895 0.18942 0.0
O100 O 0.91841 0.57359 0.12186 0.0
C101 C 0.91616 0.63307 0.18597 0.0
Co102 Co 0.38694 0.91392 0.15377 0.0
Co103 Co 0.35436 0.86803 0.17867 0.0
C104 C 0.41157 0.87012 0.18781 0.0
O105 O 0.41288 0.89103 0.17338 0.0
O106 O 0.38986 0.85827 0.19219 0.0
C107 C 0.42763 0.93615 0.12052 0.0
O108 O 0.4391 0.91296 0.12274 0.0
C109 C 0.32954 0.81914 0.20065 0.0
C110 C 0.28785 0.82852 0.19269 0.0
C111 C 0.30414 0.80975 0.20419 0.0
N112 N 0.32819 0.84252 0.18764 0.0
N113 N 0.30325 0.8478 0.18273 0.0
C114 C 0.35444 0.80743 0.21124 0.0
H115 H 0.36383 0.82169 0.22527 0.0
H116 H 0.36822 0.8042 0.19422 0.0
H117 H 0.35088 0.78846 0.22192 0.0
C118 C 0.36222 0.89561 0.10418 0.0
N119 N 0.3654 0.89404 0.13097 0.0
N120 N 0.35478 0.87218 0.14009 0.0
C121 C 0.3463 0.85778 0.11876 0.0
C122 C 0.35088 0.87211 0.09492 0.0
C123 C 0.36759 0.92052 0.08862 0.0
H124 H 0.36415 0.93804 0.10165 0.0
H125 H 0.3884 0.9209 0.08211 0.0
H126 H 0.3547 0.92199 0.07063 0.0
O127 O 0.3661 0.93374 0.17943 0.0
O128 O 0.34326 0.90146 0.19856 0.0
H129 H 0.31469 0.83007 0.121 0.0
H130 H 0.34355 0.81771 0.10412 0.0
C131 C 0.33647 0.82996 0.12121 0.0
H132 H 0.3432 0.82097 0.14042 0.0
H133 H 0.29671 0.86498 0.17316 0.0
O134 O 0.40592 0.94027 0.1323 0.0
C135 C 0.34938 0.92593 0.19662 0.0
Co136 Co 0.08745 0.59521 0.33849 0.0
Co137 Co 0.12916 0.63112 0.31111 0.0
C138 C 0.12709 0.57437 0.2975 0.0
O139 O 0.10705 0.57239 0.31279 0.0
O140 O 0.13977 0.5961 0.29535 0.0
C141 C 0.07011 0.55186 0.37247 0.0
O142 O 0.09465 0.54391 0.37273 0.0
C143 C 0.1773 0.65979 0.29284 0.0
C144 C 0.16131 0.70042 0.29118 0.0
C145 C 0.18404 0.68595 0.28686 0.0
N146 N 0.15186 0.65919 0.30024 0.0
N147 N 0.14252 0.68354 0.29916 0.0
C148 C 0.19477 0.63602 0.29328 0.0
H149 H 0.18662 0.62065 0.30695 0.0
H150 H 0.21483 0.64154 0.29995 0.0
H151 H 0.19593 0.62755 0.27266 0.0
C152 C 0.11116 0.61698 0.38809 0.0
N153 N 0.10977 0.61489 0.36106 0.0
N154 N 0.12796 0.62982 0.34997 0.0
C155 C 0.14198 0.64155 0.36988 0.0
C156 C 0.13188 0.63357 0.39474 0.0
C157 C 0.09165 0.60505 0.40718 0.0
H158 H 0.07186 0.60488 0.39793 0.0
H159 H 0.09753 0.58441 0.41184 0.0
H160 H 0.09074 0.61633 0.42637 0.0
O161 O 0.0644 0.61849 0.31794 0.0
O162 O 0.0941 0.64095 0.29455 0.0
H163 H 0.15828 0.67809 0.35611 0.0
H164 H 0.17578 0.66347 0.38417 0.0
C165 C 0.1651 0.65921 0.36515 0.0
H166 H 0.17867 0.64966 0.35065 0.0
H167 H 0.12324 0.68865 0.30401 0.0
O168 O 0.06391 0.57265 0.35958 0.0
C169 C 0.07028 0.63521 0.29986 0.0
Co170 Co 0.39732 0.10029 0.34747 0.0
Co171 Co 0.35657 0.13773 0.31985 0.0
C172 C 0.41381 0.13994 0.30539 0.0
O173 O 0.41892 0.12166 0.32229 0.0
O174 O 0.39049 0.1486 0.30192 0.0
C175 C 0.44329 0.08159 0.37691 0.0
O176 O 0.45361 0.10518 0.37324 0.0
C177 C 0.32738 0.18451 0.29842 0.0
C178 C 0.28699 0.16861 0.29951 0.0
C179 C 0.30139 0.19077 0.29213 0.0
N180 N 0.32801 0.15981 0.30873 0.0
N181 N 0.30377 0.15055 0.30935 0.0
C182 C 0.35108 0.20183 0.29607 0.0
H183 H 0.35972 0.19944 0.27566 0.0
H184 H 0.36605 0.1959 0.31117 0.0
H185 H 0.34578 0.22293 0.29908 0.0
C186 C 0.37565 0.12397 0.39681 0.0
N187 N 0.37679 0.12196 0.3698 0.0
N188 N 0.35954 0.13805 0.35878 0.0
C189 C 0.34692 0.15111 0.37881 0.0
C190 C 0.35658 0.14237 0.40359 0.0
C191 C 0.39339 0.10916 0.41561 0.0
H192 H 0.39069 0.08756 0.41261 0.0
H193 H 0.41403 0.11414 0.41075 0.0
H194 H 0.38986 0.11418 0.43706 0.0
O195 O 0.37482 0.07544 0.32766 0.0
O196 O 0.34687 0.10153 0.30609 0.0
H197 H 0.30825 0.16032 0.36526 0.0
H198 H 0.31914 0.1802 0.3934 0.0
C199 C 0.32534 0.17065 0.37428 0.0
H200 H 0.33199 0.18598 0.35976 0.0
H201 H 0.29872 0.13172 0.31632 0.0
O202 O 0.42027 0.07683 0.36845 0.0
C203 C 0.35568 0.07858 0.31163 0.0
Co204 Co 0.89641 0.40163 0.34541 0.0
Co205 Co 0.85935 0.36131 0.31703 0.0
C206 C 0.85829 0.4192 0.30256 0.0
O207 O 0.87634 0.42412 0.31968 0.0
O208 O 0.84926 0.39575 0.29955 0.0
C209 C 0.91655 0.44809 0.37276 0.0
O210 O 0.89674 0.46099 0.36205 0.0
C211 C 0.81229 0.33314 0.2962 0.0
C212 C 0.82746 0.29217 0.2953 0.0
C213 C 0.80543 0.30723 0.28956 0.0
N214 N 0.83721 0.33315 0.30526 0.0
N215 N 0.84609 0.3086 0.30463 0.0
C216 C 0.79533 0.35728 0.29549 0.0
H217 H 0.79698 0.36671 0.27533 0.0
H218 H 0.802 0.37177 0.31087 0.0
H219 H 0.77448 0.352 0.29916 0.0
C220 C 0.87093 0.3805 0.39408 0.0
N221 N 0.87404 0.38113 0.36715 0.0
N222 N 0.85839 0.36367 0.35583 0.0
C223 C 0.8447 0.3512 0.37554 0.0
C224 C 0.85243 0.36133 0.40051 0.0
C225 C 0.88435 0.39922 0.41306 0.0
H226 H 0.90568 0.39482 0.41345 0.0
H227 H 0.88174 0.41977 0.4057 0.0
H228 H 0.87636 0.39802 0.43382 0.0
O229 O 0.92129 0.37912 0.32534 0.0
O230 O 0.89509 0.35179 0.30302 0.0
H231 H 0.83526 0.31299 0.35985 0.0
H232 H 0.81678 0.32188 0.3896 0.0
C233 C 0.82535 0.32948 0.37053 0.0
H234 H 0.80945 0.33694 0.35726 0.0
H235 H 0.86495 0.30307 0.31061 0.0
O236 O 0.9191 0.42351 0.36829 0.0
C237 C 0.91794 0.36038 0.30863 0.0
Co238 Co 0.58645 0.8997 0.34249 0.0
Co239 Co 0.62572 0.86237 0.31269 0.0
C240 C 0.56802 0.86147 0.29985 0.0
O241 O 0.5636 0.87936 0.31746 0.0
O242 O 0.59115 0.85238 0.296 0.0
C243 C 0.54106 0.922 0.36989 0.0
O244 O 0.5271 0.90336 0.3582 0.0
C245 C 0.65423 0.81502 0.29202 0.0
C246 C 0.69442 0.83144 0.29016 0.0
C247 C 0.68004 0.80862 0.28542 0.0
N248 N 0.65365 0.84043 0.30025 0.0
N249 N 0.67772 0.85007 0.29896 0.0
C250 C 0.63083 0.79715 0.29222 0.0
H251 H 0.61621 0.8042 0.30718 0.0
H252 H 0.63669 0.7765 0.29696 0.0
H253 H 0.62153 0.79747 0.27198 0.0
C254 C 0.60959 0.87456 0.39037 0.0
N255 N 0.60768 0.87734 0.36346 0.0
N256 N 0.6245 0.86148 0.35151 0.0
C257 C 0.63778 0.84795 0.37075 0.0
C258 C 0.62889 0.85601 0.39606 0.0
C259 C 0.59231 0.88868 0.41012 0.0
H260 H 0.59728 0.91008 0.4101 0.0
H261 H 0.57154 0.88659 0.4038 0.0
H262 H 0.59438 0.88072 0.43086 0.0
O263 O 0.60776 0.92473 0.32124 0.0
O264 O 0.63458 0.89839 0.29847 0.0
H265 H 0.67525 0.83879 0.35389 0.0
H266 H 0.6674 0.81995 0.38379 0.0
C267 C 0.65927 0.82861 0.365 0.0
H268 H 0.6516 0.81255 0.35192 0.0
H269 H 0.68278 0.86938 0.30435 0.0
O270 O 0.56566 0.92288 0.36605 0.0
C271 C 0.62593 0.92135 0.30408 0.0
Co272 Co 0.91247 0.60848 0.85502 0.0
Co273 Co 0.86811 0.63431 0.81893 0.0
C274 C 0.92482 0.64665 0.80967 0.0
O275 O 0.93132 0.63159 0.82915 0.0
O276 O 0.90086 0.65 0.80306 0.0
C277 C 0.95393 0.5842 0.89557 0.0
O278 O 0.96793 0.59277 0.91605 0.0
C279 C 0.83398 0.67537 0.79462 0.0
C280 C 0.79845 0.65213 0.78506 0.0
C281 C 0.80893 0.67746 0.78347 0.0
N282 N 0.83794 0.65006 0.80221 0.0
N283 N 0.81662 0.63631 0.79636 0.0
C284 C 0.8533 0.69709 0.79982 0.0
H285 H 0.8666 0.69157 0.81664 0.0
H286 H 0.84301 0.71585 0.80472 0.0
H287 H 0.86539 0.70021 0.78147 0.0
C288 C 0.87983 0.6304 0.89827 0.0
N289 N 0.88484 0.62704 0.87184 0.0
N290 N 0.8662 0.63833 0.85751 0.0
C291 C 0.84861 0.6493 0.87471 0.0
C292 C 0.85669 0.64444 0.90111 0.0
C293 C 0.89731 0.62071 0.92051 0.0
H294 H 0.89959 0.59892 0.91888 0.0
H295 H 0.91692 0.63002 0.91838 0.0
H296 H 0.88968 0.62569 0.94081 0.0
O297 O 0.89831 0.57703 0.83529 0.0
O298 O 0.86816 0.59585 0.80895 0.0
H299 H 0.81232 0.64945 0.85309 0.0
H300 H 0.81195 0.66896 0.88377 0.0
C301 C 0.82395 0.66291 0.86613 0.0
H302 H 0.82904 0.68069 0.85406 0.0
H303 H 0.81442 0.61612 0.80026 0.0
O304 O 0.93854 0.60048 0.88403 0.0
C305 C 0.88077 0.57547 0.81696 0.0
Co306 Co 0.40572 0.89341 0.83794 0.0
Co307 Co 0.36041 0.85989 0.81365 0.0
C308 C 0.36155 0.91775 0.80474 0.0
O309 O 0.38226 0.91926 0.81913 0.0
O310 O 0.35026 0.89566 0.80004 0.0
C311 C 0.42775 0.93261 0.87377 0.0
O312 O 0.40344 0.94024 0.87796 0.0
C313 C 0.31387 0.83359 0.789 0.0
C314 C 0.32032 0.7926 0.80325 0.0
C315 C 0.30401 0.80797 0.78737 0.0
N316 N 0.33509 0.83325 0.8052 0.0
N317 N 0.33864 0.80873 0.81377 0.0
C318 C 0.30492 0.85744 0.77367 0.0
H319 H 0.32199 0.86679 0.76351 0.0
H320 H 0.29677 0.87212 0.78806 0.0
H321 H 0.28979 0.85233 0.75845 0.0
C322 C 0.38864 0.86811 0.8879 0.0
N323 N 0.38671 0.87142 0.86114 0.0
N324 N 0.36496 0.86064 0.8523 0.0
C325 C 0.35096 0.85206 0.87383 0.0
C326 C 0.36548 0.85662 0.89748 0.0
C327 C 0.41367 0.87306 0.90302 0.0
H328 H 0.43076 0.87038 0.8894 0.0
H329 H 0.41408 0.89371 0.91056 0.0
H330 H 0.41559 0.8593 0.92038 0.0
O331 O 0.42508 0.87254 0.81203 0.0
O332 O 0.39346 0.8485 0.79362 0.0
H333 H 0.32328 0.82031 0.87249 0.0
H334 H 0.31135 0.84983 0.88883 0.0
C335 C 0.32331 0.84227 0.87179 0.0
H336 H 0.3143 0.84873 0.85251 0.0
H337 H 0.35409 0.80288 0.82624 0.0
O338 O 0.43227 0.91335 0.85802 0.0
C339 C 0.41759 0.85518 0.79527 0.0
Co340 Co 0.07275 0.39002 0.82998 0.0
Co341 Co 0.12102 0.35887 0.80746 0.0
C342 C 0.06538 0.34744 0.78939 0.0
O343 O 0.05622 0.36388 0.80635 0.0
O344 O 0.09008 0.34376 0.78697 0.0
C345 C 0.02158 0.41217 0.83994 0.0
O346 O 0.01396 0.39718 0.81975 0.0
C347 C 0.15494 0.31449 0.78988 0.0
C348 C 0.19406 0.33326 0.79217 0.0
C349 C 0.1815 0.30989 0.7851 0.0
N350 N 0.15213 0.33943 0.79903 0.0
N351 N 0.1756 0.35046 0.80041 0.0
C352 C 0.13265 0.29536 0.78739 0.0
H353 H 0.12415 0.29686 0.76684 0.0
H354 H 0.11705 0.3003 0.80219 0.0
H355 H 0.13944 0.27475 0.7908 0.0
C356 C 0.09532 0.37285 0.88211 0.0
N357 N 0.09541 0.37343 0.85496 0.0
N358 N 0.11542 0.35963 0.84585 0.0
C359 C 0.12876 0.34971 0.86716 0.0
C360 C 0.11643 0.35769 0.89092 0.0
C361 C 0.07634 0.38818 0.89907 0.0
H362 H 0.05673 0.37869 0.89784 0.0
H363 H 0.0826 0.38923 0.92047 0.0
H364 H 0.07452 0.40861 0.89105 0.0
O365 O 0.09142 0.41602 0.80707 0.0
O366 O 0.12748 0.39544 0.79341 0.0
H367 H 0.16944 0.34482 0.85816 0.0
H368 H 0.15741 0.32284 0.8842 0.0
C369 C 0.15255 0.33253 0.86474 0.0
H370 H 0.14913 0.31711 0.84922 0.0
H371 H 0.17899 0.36987 0.80676 0.0
O372 O 0.04517 0.41076 0.84822 0.0
C373 C 0.113 0.41595 0.79417 0.0
Co374 Co 0.60125 0.08187 0.84409 0.0
Co375 Co 0.63627 0.12481 0.81644 0.0
C376 C 0.64074 0.06636 0.80257 0.0
O377 O 0.62372 0.06032 0.82037 0.0
O378 O 0.64764 0.09046 0.79874 0.0
C379 C 0.58325 0.03438 0.87135 0.0
O380 O 0.60358 0.02237 0.86062 0.0
C381 C 0.68089 0.15566 0.79297 0.0
C382 C 0.66465 0.19611 0.79659 0.0
C383 C 0.68621 0.18214 0.78732 0.0
N384 N 0.65724 0.15424 0.80508 0.0
N385 N 0.64779 0.17851 0.80723 0.0
C386 C 0.69669 0.13193 0.78513 0.0
H387 H 0.70332 0.12154 0.80364 0.0
H388 H 0.7139 0.13734 0.77259 0.0
H389 H 0.68413 0.11801 0.77361 0.0
C390 C 0.62219 0.10671 0.89325 0.0
N391 N 0.62095 0.10475 0.86621 0.0
N392 N 0.63643 0.12255 0.85517 0.0
C393 C 0.64834 0.13635 0.87514 0.0
C394 C 0.6398 0.12663 0.89999 0.0
C395 C 0.60492 0.09128 0.91206 0.0
H396 H 0.5844 0.09186 0.90464 0.0
H397 H 0.61143 0.07032 0.9124 0.0
H398 H 0.60523 0.0993 0.93286 0.0
O399 O 0.57637 0.10111 0.8209 0.0
O400 O 0.60019 0.13321 0.80264 0.0
H401 H 0.65716 0.17624 0.86422 0.0
H402 H 0.6791 0.16246 0.88914 0.0
C403 C 0.66777 0.1581 0.87054 0.0
H404 H 0.68146 0.15247 0.85413 0.0
H405 H 0.62954 0.18301 0.81562 0.0
O406 O 0.57944 0.05877 0.86669 0.0
C407 C 0.57838 0.12125 0.80565 0.0
Co408 Co 0.89326 0.40636 0.64771 0.0
Co409 Co 0.85665 0.3658 0.67686 0.0
C410 C 0.91493 0.35903 0.67747 0.0
O411 O 0.91792 0.37968 0.66293 0.0
O412 O 0.89223 0.35097 0.68479 0.0
C413 C 0.93525 0.43017 0.61598 0.0
O414 O 0.94937 0.40912 0.62158 0.0
C415 C 0.82839 0.31752 0.69606 0.0
C416 C 0.78911 0.33469 0.70316 0.0
C417 C 0.80313 0.31124 0.70485 0.0
N418 N 0.82903 0.34346 0.68969 0.0
N419 N 0.80548 0.35351 0.694 0.0
C420 C 0.85109 0.29918 0.69213 0.0
H421 H 0.86422 0.30677 0.67602 0.0
H422 H 0.84416 0.27901 0.68679 0.0
H423 H 0.86252 0.29806 0.71115 0.0
C424 C 0.86335 0.38918 0.60038 0.0
N425 N 0.86725 0.38943 0.62721 0.0
N426 N 0.85224 0.37149 0.63869 0.0
C427 C 0.83841 0.35892 0.61917 0.0
C428 C 0.84517 0.36966 0.59418 0.0
C429 C 0.87763 0.40672 0.5809 0.0
H430 H 0.89838 0.40022 0.57945 0.0
H431 H 0.86862 0.4062 0.56053 0.0
H432 H 0.87732 0.42742 0.58835 0.0
O433 O 0.87868 0.42791 0.67731 0.0
O434 O 0.85377 0.39904 0.69908 0.0
H435 H 0.80436 0.34128 0.63673 0.0
H436 H 0.81405 0.32664 0.60495 0.0
C437 C 0.82132 0.33532 0.6241 0.0
H438 H 0.83256 0.32015 0.63544 0.0
H439 H 0.8006 0.3733 0.69065 0.0
O440 O 0.91201 0.43196 0.62496 0.0
C441 C 0.86362 0.42214 0.69686 0.0
Co442 Co 0.59187 0.89537 0.64387 0.0
Co443 Co 0.62924 0.85509 0.67317 0.0
C444 C 0.63161 0.91369 0.68475 0.0
O445 O 0.61362 0.91824 0.66751 0.0
O446 O 0.63977 0.89022 0.68955 0.0
C447 C 0.57024 0.942 0.61747 0.0
O448 O 0.58967 0.95532 0.6284 0.0
C449 C 0.67556 0.82488 0.69552 0.0
C450 C 0.65881 0.78452 0.69441 0.0
C451 C 0.68109 0.7985 0.70172 0.0
N452 N 0.65114 0.82619 0.685 0.0
N453 N 0.64143 0.80193 0.68437 0.0
C454 C 0.69254 0.84849 0.70081 0.0
H455 H 0.68043 0.86638 0.70403 0.0
H456 H 0.70531 0.85196 0.68301 0.0
H457 H 0.70518 0.84517 0.71873 0.0
C458 C 0.61534 0.87202 0.59564 0.0
N459 N 0.61318 0.87366 0.62259 0.0
N460 N 0.62937 0.85681 0.63411 0.0
C461 C 0.64269 0.84395 0.61441 0.0
C462 C 0.63434 0.85338 0.58936 0.0
C463 C 0.59806 0.88687 0.5764 0.0
H464 H 0.57733 0.88511 0.58297 0.0
H465 H 0.60351 0.90815 0.57669 0.0
H466 H 0.59956 0.87924 0.55549 0.0
O467 O 0.56744 0.87375 0.66508 0.0
O468 O 0.59324 0.84598 0.68737 0.0
H469 H 0.65415 0.80532 0.62722 0.0
H470 H 0.67461 0.81905 0.60087 0.0
C471 C 0.66348 0.82369 0.61953 0.0
H472 H 0.67717 0.83104 0.63525 0.0
H473 H 0.6227 0.79727 0.6773 0.0
O474 O 0.56868 0.91719 0.62119 0.0
C475 C 0.57052 0.85494 0.68174 0.0
Co476 Co 0.08147 0.60371 0.64527 0.0
Co477 Co 0.12698 0.63513 0.67239 0.0
C478 C 0.0695 0.6453 0.68563 0.0
O479 O 0.06179 0.62854 0.66815 0.0
O480 O 0.09395 0.64977 0.68939 0.0
C481 C 0.03447 0.58845 0.61556 0.0
O482 O 0.02541 0.61238 0.62016 0.0
C483 C 0.15909 0.68121 0.68901 0.0
C484 C 0.1965 0.66142 0.69896 0.0
C485 C 0.18441 0.68603 0.69864 0.0
N486 N 0.15663 0.65509 0.6842 0.0
N487 N 0.17908 0.64344 0.69013 0.0
C488 C 0.13786 0.70078 0.68307 0.0
H489 H 0.12395 0.69252 0.66801 0.0
H490 H 0.14633 0.71957 0.67536 0.0
H491 H 0.12677 0.70494 0.70187 0.0
C492 C 0.10758 0.62251 0.59575 0.0
N493 N 0.10578 0.62125 0.62279 0.0
N494 N 0.12516 0.63472 0.6337 0.0
C495 C 0.14008 0.64501 0.61367 0.0
C496 C 0.12949 0.63743 0.58891 0.0
C497 C 0.08773 0.61074 0.57696 0.0
H498 H 0.06791 0.61772 0.58278 0.0
H499 H 0.09123 0.61639 0.55565 0.0
H500 H 0.08808 0.58885 0.57884 0.0
O501 O 0.09854 0.57765 0.66911 0.0
O502 O 0.13246 0.59857 0.68711 0.0
H503 H 0.17516 0.66455 0.59904 0.0
H504 H 0.15934 0.67994 0.62771 0.0
C505 C 0.16455 0.66076 0.61821 0.0
H506 H 0.17762 0.64996 0.63231 0.0
H507 H 0.18246 0.62314 0.6883 0.0
O508 O 0.05718 0.58216 0.62383 0.0
C509 C 0.11854 0.5778 0.68441 0.0
Co510 Co 0.39689 0.0895 0.65254 0.0
Co511 Co 0.36371 0.13346 0.68087 0.0
C512 C 0.35718 0.07471 0.69354 0.0
O513 O 0.37334 0.068 0.67518 0.0
O514 O 0.35196 0.09907 0.6981 0.0
C515 C 0.41357 0.04464 0.61923 0.0
O516 O 0.3892 0.0361 0.61967 0.0
C517 C 0.31702 0.1644 0.69946 0.0
C518 C 0.33611 0.20276 0.70819 0.0
C519 C 0.31215 0.18983 0.70909 0.0
N520 N 0.34271 0.16256 0.69318 0.0
N521 N 0.35386 0.18565 0.69834 0.0
C522 C 0.29796 0.14193 0.6975 0.0
H523 H 0.30834 0.12271 0.69657 0.0
H524 H 0.28625 0.14413 0.67877 0.0
H525 H 0.28429 0.14215 0.71493 0.0
C526 C 0.37638 0.11579 0.60359 0.0
N527 N 0.37818 0.11353 0.63059 0.0
N528 N 0.36358 0.13181 0.64208 0.0
C529 C 0.35179 0.14624 0.62252 0.0
C530 C 0.35937 0.13638 0.59742 0.0
C531 C 0.39212 0.09961 0.58411 0.0
H532 H 0.41247 0.09739 0.59165 0.0
H533 H 0.38319 0.07964 0.58232 0.0
H534 H 0.39285 0.10888 0.56383 0.0
O535 O 0.42168 0.10751 0.67678 0.0
O536 O 0.39987 0.14093 0.69499 0.0
H537 H 0.34343 0.1845 0.63874 0.0
H538 H 0.32443 0.1763 0.60897 0.0
C539 C 0.33305 0.16839 0.62788 0.0
H540 H 0.31702 0.16116 0.64109 0.0
H541 H 0.37377 0.18963 0.69548 0.0
O542 O 0.41946 0.0661 0.63109 0.0
C543 C 0.42088 0.1276 0.69215 0.0
H544 H 0.92046 0.49667 0.1135 0.0
H545 H 0.95529 0.57033 0.08626 0.0
H546 H -0.00413 0.54663 0.07424 0.0
H547 H 0.97155 0.47557 0.14747 0.0
H548 H 0.96912 0.44072 0.13995 0.0
H549 H 0.94036 0.4611 0.13853 0.0
H550 H 0.93204 0.44684 0.08906 0.0
H551 H 0.96073 0.42597 0.09041 0.0
H552 H 0.95772 0.45067 0.06433 0.0
H553 H 0.03521 0.51823 0.07615 0.0
H554 H 0.06967 0.48673 0.09006 0.0
H555 H 0.0096 0.43123 0.11585 0.0
C556 C 0.93616 0.50751 0.10374 0.0
C557 C 0.93481 0.53522 0.10071 0.0
C558 C 0.956 0.54902 0.08869 0.0
C559 C 0.97907 0.5357 0.08166 0.0
C560 C 0.9805 0.50857 0.08652 0.0
C561 C 0.95943 0.4945 0.09686 0.0
C562 C 0.96731 0.46655 0.10432 0.0
C563 C 0.96177 0.46068 0.13433 0.0
C564 C 0.95364 0.44631 0.08592 0.0
C565 C -0.00357 0.46782 0.09856 0.0
C566 C 0.00357 0.49195 0.08763 0.0
C567 C 0.02982 0.49895 0.08392 0.0
C568 C 0.04926 0.48102 0.09206 0.0
C569 C 0.04228 0.45654 0.10396 0.0
C570 C 0.01554 0.44963 0.10642 0.0
H571 H 0.54666 0.03119 0.11118 0.0
H572 H 0.48994 0.09406 0.09879 0.0
H573 H 0.45648 0.06082 0.08668 0.0
H574 H 0.51845 0.98254 0.05901 0.0
H575 H 0.52554 0.95511 0.08111 0.0
H576 H 0.54682 0.98367 0.08071 0.0
H577 H 0.54067 0.98884 0.13234 0.0
H578 H 0.51936 0.96061 0.13289 0.0
H579 H 0.50797 0.99189 0.14591 0.0
H580 H 0.42737 0.02191 0.08708 0.0
H581 H 0.4049 0.98064 0.10018 0.0
H582 H 0.48017 0.94251 0.11242 0.0
C583 C 0.52749 0.03805 0.1049 0.0
C584 C 0.52086 0.06517 0.10593 0.0
C585 C 0.49546 0.07336 0.09803 0.0
C586 C 0.47638 0.05461 0.09095 0.0
C587 C 0.48315 0.02786 0.09155 0.0
C588 C 0.50825 0.01959 0.098 0.0
C589 C 0.50951 0.98985 0.10166 0.0
C590 C 0.52606 0.97704 0.07928 0.0
C591 C 0.51996 0.98239 0.12987 0.0
C592 C 0.4808 0.98292 0.09852 0.0
C593 C 0.46606 0.00499 0.09182 0.0
C594 C 0.43873 0.00434 0.09153 0.0
C595 C 0.42614 0.98088 0.09918 0.0
C596 C 0.44091 0.95848 0.10719 0.0
C597 C 0.4685 0.9592 0.10576 0.0
H598 H 0.92602 0.50126 0.37251 0.0
H599 H 0.95646 0.42657 0.40221 0.0
H600 H -0.00228 0.44856 0.41508 0.0
H601 H 0.97885 0.51973 0.34003 0.0
H602 H 0.97774 0.55472 0.34714 0.0
H603 H 0.94809 0.53562 0.3479 0.0
H604 H 0.93908 0.55077 0.39698 0.0
H605 H 0.96871 0.57033 0.39629 0.0
H606 H 0.96385 0.54606 0.4225 0.0
H607 H 0.03857 0.47508 0.41363 0.0
H608 H 0.07478 0.50471 0.39982 0.0
H609 H 0.01783 0.56248 0.37207 0.0
C610 C 0.9409 0.48984 0.38289 0.0
C611 C 0.93812 0.46229 0.3863 0.0
C612 C 0.95824 0.44776 0.39934 0.0
C613 C 0.9817 0.46011 0.4069 0.0
C614 C 0.98457 0.48705 0.40167 0.0
C615 C 0.96449 0.5019 0.39044 0.0
C616 C 0.97382 0.52936 0.38295 0.0
C617 C 0.96938 0.53516 0.35273 0.0
C618 C 0.96058 0.55037 0.40075 0.0
C619 C 0.00267 0.52686 0.3896 0.0
C620 C 0.00842 0.5026 0.40106 0.0
C621 C 0.03426 0.49448 0.40548 0.0
C622 C 0.05471 0.51135 0.39743 0.0
C623 C 0.04911 0.53586 0.38489 0.0
C624 C 0.02276 0.54398 0.38189 0.0
H625 H 0.48878 0.9342 0.37059 0.0
H626 H 0.56479 0.96133 0.39879 0.0
H627 H 0.54522 0.00382 0.41236 0.0
H628 H 0.47152 0.98944 0.3395 0.0
H629 H 0.43708 0.98924 0.34786 0.0
H630 H 0.45501 0.95871 0.34707 0.0
H631 H 0.44129 0.9487 0.39637 0.0
H632 H 0.42296 0.97923 0.39726 0.0
H633 H 0.4477 0.97278 0.42241 0.0
H634 H 0.52052 0.04617 0.41234 0.0
H635 H 0.49164 0.08399 0.40138 0.0
H636 H 0.43128 0.02915 0.37494 0.0
C637 C 0.50104 0.94864 0.3807 0.0
C638 C 0.52826 0.94451 0.38355 0.0
C639 C 0.54384 0.96409 0.39634 0.0
C640 C 0.53288 0.98828 0.40426 0.0
C641 C 0.50623 0.99239 0.39972 0.0
C642 C 0.49037 0.97289 0.38874 0.0
C643 C 0.46325 0.98343 0.38257 0.0
C644 C 0.45635 0.98002 0.35248 0.0
C645 C 0.44258 0.97025 0.40075 0.0
C646 C 0.46697 0.01226 0.38993 0.0
C647 C 0.4917 0.01699 0.40029 0.0
C648 C 0.5008 0.04265 0.40508 0.0
C649 C 0.48435 0.06402 0.39865 0.0
C650 C 0.45918 0.0595 0.38751 0.0
C651 C 0.45021 0.03326 0.38396 0.0
H652 H -0.0023 0.55451 0.90091 0.0
H653 H 0.91784 0.5513 0.87142 0.0
H654 H 0.92527 0.50542 0.85517 0.0
H655 H 0.02812 0.51799 0.84925 0.0
H656 H 0.05048 0.50115 0.87159 0.0
H657 H 0.03827 0.53343 0.88034 0.0
H658 H 0.02108 0.51485 0.92585 0.0
H659 H 0.03306 0.48241 0.91711 0.0
H660 H -0.00099 0.48692 0.92583 0.0
H661 H 0.94323 0.46041 0.84026 0.0
H662 H 0.96938 0.42068 0.82865 0.0
H663 H 0.03584 0.45332 0.87225 0.0
C664 C 0.98172 0.54417 0.89107 0.0
C665 C 0.95749 0.55675 0.88622 0.0
C666 C 0.93698 0.54248 0.87368 0.0
C667 C 0.9409 0.51626 0.86502 0.0
C668 C 0.96528 0.50456 0.86977 0.0
C669 C 0.9852 0.51806 0.88278 0.0
C670 C 0.00962 0.50137 0.88552 0.0
C671 C 0.03299 0.51425 0.87079 0.0
C672 C 0.01606 0.49607 0.91535 0.0
C673 C 0.00062 0.47646 0.87149 0.0
C674 C 0.97499 0.47853 0.86255 0.0
C675 C 0.96318 0.45845 0.84751 0.0
C676 C 0.97816 0.43597 0.84104 0.0
C677 C 0.00458 0.43381 0.84972 0.0
C678 C 0.01559 0.45413 0.86563 0.0
H679 H 0.47963 0.92188 0.86701 0.0
H680 H 0.42632 0.97683 0.90601 0.0
H681 H 0.46403 0.00476 0.91914 0.0
H682 H 0.53803 0.93264 0.91383 0.0
H683 H 0.56039 0.93022 0.88575 0.0
H684 H 0.5304 0.91121 0.88582 0.0
H685 H 0.51768 0.93159 0.83965 0.0
H686 H 0.54739 0.95062 0.83946 0.0
H687 H 0.51618 0.96711 0.83622 0.0
H688 H 0.50517 0.03085 0.91927 0.0
H689 H 0.54586 0.05351 0.90544 0.0
H690 H 0.57265 0.9817 0.86626 0.0
C691 C 0.47591 0.93932 0.87911 0.0
C692 C 0.45007 0.94722 0.8855 0.0
C693 C 0.44599 0.97037 0.90098 0.0
C694 C 0.46731 0.98625 0.90868 0.0
C695 C 0.49251 0.97847 0.90101 0.0
C696 C 0.4969 0.95537 0.88677 0.0
C697 C 0.52507 0.95339 0.87729 0.0
C698 C 0.53932 0.93051 0.89153 0.0
C699 C 0.52664 0.95054 0.84634 0.0
C700 C 0.5354 0.97989 0.88668 0.0
C701 C 0.51655 0.99373 0.90103 0.0
C702 C 0.52031 0.01998 0.90872 0.0
C703 C 0.54343 0.03272 0.90066 0.0
C704 C 0.56236 0.01923 0.8849 0.0
C705 C 0.55877 0.99222 0.87885 0.0
H706 H 0.9874 0.44164 0.61083 0.0
H707 H 0.90965 0.47221 0.59369 0.0
H708 H 0.92876 0.51553 0.58202 0.0
H709 H 0.00843 0.49337 0.64532 0.0
H710 H 0.04197 0.49372 0.63373 0.0
H711 H 0.02363 0.46341 0.63317 0.0
H712 H 0.0327 0.45821 0.582 0.0
H713 H 0.05142 0.48854 0.58243 0.0
H714 H 0.02443 0.48477 0.55923 0.0
H715 H 0.95421 0.55731 0.58319 0.0
H716 H 0.98449 0.59364 0.59535 0.0
H717 H 0.0459 0.53606 0.61068 0.0
C718 C 0.97456 0.4571 0.60341 0.0
C719 C 0.94712 0.45363 0.60314 0.0
C720 C 0.93079 0.4745 0.59405 0.0
C721 C 0.94148 0.49915 0.58722 0.0
C722 C 0.96853 0.50249 0.58923 0.0
C723 C 0.98495 0.48188 0.59667 0.0
C724 C 0.0127 0.49156 0.60125 0.0
C725 C 0.0222 0.48515 0.63007 0.0
C726 C 0.03142 0.48009 0.57994 0.0
C727 C 0.00885 0.52099 0.5972 0.0
C728 C 0.98342 0.52689 0.58965 0.0
C729 C 0.97441 0.55296 0.58827 0.0
C730 C 0.99168 0.57347 0.59535 0.0
C731 C 0.01754 0.56769 0.60386 0.0
C732 C 0.02636 0.54117 0.60384 0.0
H733 H 0.46595 0.05499 0.62121 0.0
H734 H 0.40953 -0.00299 0.59258 0.0
H735 H 0.44603 0.96728 0.5799 0.0
H736 H 0.52039 0.03933 0.57194 0.0
H737 H 0.54482 0.04412 0.59778 0.0
H738 H 0.51492 0.06319 0.59838 0.0
H739 H 0.50572 0.047 0.64712 0.0
H740 H 0.53539 0.02792 0.64665 0.0
H741 H 0.50453 0.01193 0.65389 0.0
H742 H 0.48749 0.94117 0.57804 0.0
H743 H 0.52972 0.92005 0.58908 0.0
H744 H 0.55895 0.99487 0.61993 0.0
C745 C 0.4612 0.03641 0.61145 0.0
C746 C 0.43489 0.02834 0.60778 0.0
C747 C 0.42955 0.00365 0.59545 0.0
C748 C 0.45017 0.98671 0.58805 0.0
C749 C 0.47592 0.99491 0.59292 0.0
C750 C 0.48146 0.01928 0.60423 0.0
C751 C 0.51027 0.02195 0.61116 0.0
C752 C 0.52337 0.04342 0.59377 0.0
C753 C 0.51418 0.0275 0.64149 0.0
C754 C 0.51988 0.99467 0.60347 0.0
C755 C 0.49994 0.97962 0.59228 0.0
C756 C 0.50337 0.95292 0.58623 0.0
C757 C 0.52743 0.94108 0.59268 0.0
C758 C 0.54761 0.95586 0.60538 0.0
C759 C 0.54407 0.9832 0.60982 0.0
H760 H 0.18017 0.27511 0.24222 0.0
H761 H 0.23135 0.31403 0.1848 0.0
H762 H 0.26993 0.29232 0.20598 0.0
H763 H 0.22616 0.27743 0.30052 0.0
H764 H 0.21554 0.24542 0.31239 0.0
H765 H 0.1929 0.26664 0.29471 0.0
H766 H 0.18384 0.22911 0.26025 0.0
H767 H 0.20648 0.20788 0.27769 0.0
H768 H 0.21095 0.21448 0.24224 0.0
H769 H 0.30185 0.26104 0.22989 0.0
H770 H 0.32396 0.22515 0.25485 0.0
H771 H 0.25162 0.20893 0.29802 0.0
C772 C 0.1996 0.27954 0.23455 0.0
C773 C 0.20297 0.29648 0.21221 0.0
C774 C 0.22854 0.30155 0.20234 0.0
C775 C 0.25048 0.28921 0.21418 0.0
C776 C 0.24642 0.27219 0.23602 0.0
C777 C 0.22157 0.2677 0.24631 0.0
C778 C 0.22203 0.24745 0.26878 0.0
C779 C 0.21367 0.25999 0.29569 0.0
C780 C 0.20482 0.22331 0.2618 0.0
C781 C 0.25085 0.2404 0.26893 0.0
C782 C 0.26474 0.25495 0.25011 0.0
C783 C 0.2913 0.25011 0.24524 0.0
C784 C 0.30382 0.22977 0.25978 0.0
C785 C 0.28981 0.21458 0.27907 0.0
C786 C 0.26307 0.22039 0.28377 0.0
H787 H 0.78547 0.25825 0.29807 0.0
H788 H 0.77101 0.33064 0.25339 0.0
H789 H 0.73347 0.30925 0.23053 0.0
H790 H 0.77591 0.21599 0.24455 0.0
H791 H 0.76077 0.18991 0.26393 0.0
H792 H 0.78337 0.2123 0.27991 0.0
H793 H 0.74809 0.22454 0.31548 0.0
H794 H 0.72535 0.20201 0.29967 0.0
H795 H 0.71642 0.23622 0.30447 0.0
H796 H 0.70044 0.27766 0.20869 0.0
H797 H 0.67624 0.23923 0.18998 0.0
H798 H 0.71385 0.18795 0.24848 0.0
C799 C 0.77405 0.26986 0.28394 0.0
C800 C 0.78083 0.29634 0.27805 0.0
C801 C 0.76567 0.31066 0.25904 0.0
C802 C 0.7444 0.29857 0.24575 0.0
C803 C 0.73859 0.27219 0.25173 0.0
C804 C 0.75298 0.25811 0.27052 0.0
C805 C 0.74459 0.22943 0.27172 0.0
C806 C 0.76752 0.21083 0.26459 0.0
C807 C 0.73291 0.22266 0.29948 0.0
C808 C 0.72375 0.22925 0.25006 0.0
C809 C 0.72016 0.25411 0.23898 0.0
C810 C 0.70278 0.25823 0.2176 0.0
C811 C 0.68898 0.23634 0.20718 0.0
C812 C 0.69292 0.21071 0.21804 0.0
C813 C 0.71032 0.20735 0.2399 0.0
H814 H 0.72861 0.78984 0.29606 0.0
H815 H 0.65829 0.77205 0.25026 0.0
H816 H 0.68099 0.73414 0.22896 0.0
H817 H 0.77187 0.78028 0.24426 0.0
H818 H 0.79767 0.76614 0.26454 0.0
H819 H 0.77448 0.78849 0.27956 0.0
H820 H 0.76249 0.7531 0.31544 0.0
H821 H 0.78585 0.73062 0.3006 0.0
H822 H 0.75211 0.72062 0.30473 0.0
H823 H 0.71386 0.70169 0.20828 0.0
H824 H 0.75318 0.6788 0.19042 0.0
H825 H 0.80144 0.71909 0.24958 0.0
C826 C 0.71773 0.77757 0.28205 0.0
C827 C 0.69152 0.7836 0.27524 0.0
C828 C 0.6781 0.76734 0.25648 0.0
C829 C 0.69092 0.74585 0.24412 0.0
C830 C 0.71707 0.74087 0.25088 0.0
C831 C 0.73019 0.75625 0.26961 0.0
C832 C 0.75881 0.74871 0.27165 0.0
C833 C 0.77674 0.7723 0.26456 0.0
C834 C 0.76518 0.7376 0.29978 0.0
C835 C 0.76012 0.72734 0.2504 0.0
C836 C 0.73584 0.72266 0.23888 0.0
C837 C 0.73282 0.70483 0.21757 0.0
C838 C 0.75524 0.69178 0.20764 0.0
C839 C 0.78027 0.69688 0.21891 0.0
C840 C 0.7825 0.71462 0.24074 0.0
H841 H 0.19987 0.73661 0.29411 0.0
H842 H 0.22387 0.66309 0.2562 0.0
H843 H 0.26215 0.68586 0.23641 0.0
H844 H 0.2111 0.77522 0.23862 0.0
H845 H 0.2219 0.80402 0.25701 0.0
H846 H 0.1999 0.78083 0.27265 0.0
H847 H 0.23248 0.77482 0.31238 0.0
H848 H 0.25463 0.79814 0.29685 0.0
H849 H 0.26595 0.76542 0.30554 0.0
H850 H 0.2951 0.71847 0.21617 0.0
H851 H 0.31707 0.75767 0.19585 0.0
H852 H 0.26895 0.8094 0.24479 0.0
C853 C 0.21349 0.72503 0.28221 0.0
C854 C 0.2091 0.69782 0.2774 0.0
C855 C 0.22719 0.68363 0.2612 0.0
C856 C 0.24898 0.69652 0.24963 0.0
C857 C 0.25231 0.72356 0.25437 0.0
C858 C 0.23495 0.73759 0.27031 0.0
C859 C 0.24065 0.76696 0.26975 0.0
C860 C 0.21699 0.78266 0.25885 0.0
C861 C 0.24893 0.77691 0.2978 0.0
C862 C 0.26341 0.7675 0.25027 0.0
C863 C 0.27037 0.7423 0.24201 0.0
C864 C 0.29005 0.73823 0.22283 0.0
C865 C 0.30248 0.7605 0.21148 0.0
C866 C 0.29478 0.78633 0.21909 0.0
C867 C 0.27534 0.78976 0.23896 0.0
H868 H 0.68217 0.75665 0.73618 0.0
H869 H 0.73336 0.81183 0.69454 0.0
H870 H 0.77208 0.78893 0.71359 0.0
H871 H 0.72212 0.74887 0.79697 0.0
H872 H 0.71452 0.71412 0.79995 0.0
H873 H 0.69112 0.73639 0.78486 0.0
H874 H 0.68996 0.70719 0.74188 0.0
H875 H 0.71337 0.6849 0.75678 0.0
H876 H 0.72018 0.69986 0.7245 0.0
H877 H 0.80537 0.75724 0.73473 0.0
H878 H 0.82971 0.72039 0.75583 0.0
H879 H 0.75627 0.68651 0.78369 0.0
C880 C 0.70152 0.76417 0.73132 0.0
C881 C 0.70468 0.78642 0.71432 0.0
C882 C 0.73036 0.7954 0.70821 0.0
C883 C 0.75249 0.78234 0.71877 0.0
C884 C 0.74861 0.76036 0.73541 0.0
C885 C 0.7237 0.75145 0.7417 0.0
C886 C 0.72463 0.72675 0.75897 0.0
C887 C 0.71238 0.73185 0.78684 0.0
C888 C 0.71125 0.7033 0.74467 0.0
C889 C 0.75398 0.72274 0.76104 0.0
C890 C 0.76756 0.74238 0.74751 0.0
C891 C 0.7949 0.74207 0.7458 0.0
C892 C 0.80863 0.72114 0.75813 0.0
C893 C 0.79502 0.70081 0.77208 0.0
C894 C 0.76733 0.70185 0.77346 0.0
H895 H 0.23667 0.69612 0.70048 0.0
H896 H 0.16148 0.7314 0.72041 0.0
H897 H 0.18428 0.76993 0.73986 0.0
H898 H 0.26605 0.71157 0.76112 0.0
H899 H 0.29822 0.71751 0.74723 0.0
H900 H 0.27603 0.69529 0.73042 0.0
H901 H 0.28028 0.72274 0.6864 0.0
H902 H 0.30261 0.74507 0.7031 0.0
H903 H 0.27348 0.75776 0.68705 0.0
H904 H 0.21596 0.80303 0.7613 0.0
H905 H 0.25301 0.82527 0.78478 0.0
H906 H 0.30645 0.76612 0.75352 0.0
C907 C 0.22487 0.71218 0.70836 0.0
C908 C 0.19716 0.71089 0.70802 0.0
C909 C 0.18262 0.73218 0.71918 0.0
C910 C 0.19547 0.75416 0.73058 0.0
C911 C 0.22285 0.7545 0.73088 0.0
C912 C 0.23732 0.73394 0.72009 0.0
C913 C 0.26633 0.73736 0.72544 0.0
C914 C 0.27728 0.71406 0.74204 0.0
C915 C 0.28157 0.74095 0.69892 0.0
C916 C 0.26597 0.76268 0.74166 0.0
C917 C 0.24083 0.77269 0.74414 0.0
C918 C 0.23573 0.7955 0.75919 0.0
C919 C 0.25682 0.80805 0.77236 0.0
C920 C 0.28244 0.79743 0.77067 0.0
C921 C 0.28701 0.77469 0.7549 0.0
H922 H 0.30752 0.22444 0.75066 0.0
H923 H 0.26153 0.18327 0.69017 0.0
H924 H 0.22164 0.20642 0.70596 0.0
H925 H 0.25682 0.22591 0.80357 0.0
H926 H 0.26634 0.25854 0.8146 0.0
H927 H 0.29046 0.23655 0.80032 0.0
H928 H 0.30254 0.2722 0.76476 0.0
H929 H 0.27847 0.29424 0.77886 0.0
H930 H 0.27714 0.2858 0.74356 0.0
H931 H 0.18769 0.23799 0.7255 0.0
H932 H 0.16301 0.27422 0.74713 0.0
H933 H 0.23133 0.29369 0.79545 0.0
C934 C 0.28897 0.21995 0.741 0.0
C935 C 0.28755 0.20165 0.71953 0.0
C936 C 0.26299 0.19656 0.7072 0.0
C937 C 0.24024 0.20979 0.71592 0.0
C938 C 0.24241 0.22791 0.73706 0.0
C939 C 0.26618 0.23283 0.74953 0.0
C940 C 0.26376 0.25421 0.77074 0.0
C941 C 0.26969 0.24313 0.79898 0.0
C942 C 0.28152 0.27801 0.76406 0.0
C943 C 0.23504 0.26116 0.7678 0.0
C944 C 0.22294 0.24568 0.74845 0.0
C945 C 0.19682 0.24976 0.74114 0.0
C946 C 0.18281 0.27027 0.7538 0.0
C947 C 0.19494 0.28637 0.77364 0.0
C948 C 0.22135 0.28149 0.7807 0.0
H949 H 0.75256 0.29508 0.70058 0.0
H950 H 0.82775 0.27108 0.73349 0.0
H951 H 0.8068 0.23178 0.75396 0.0
H952 H 0.71645 0.28057 0.75768 0.0
H953 H 0.68763 0.26939 0.73992 0.0
H954 H 0.70931 0.29299 0.72437 0.0
H955 H 0.71489 0.26194 0.68311 0.0
H956 H 0.69308 0.23823 0.69852 0.0
H957 H 0.72553 0.22827 0.68822 0.0
H958 H 0.77611 0.19748 0.7751 0.0
H959 H 0.73889 0.17264 0.7952 0.0
H960 H 0.6843 0.22045 0.74921 0.0
C961 C 0.7648 0.28126 0.71159 0.0
C962 C 0.79196 0.28588 0.71478 0.0
C963 C 0.80713 0.26755 0.72981 0.0
C964 C 0.79531 0.24524 0.74175 0.0
C965 C 0.76833 0.24156 0.7385 0.0
C966 C 0.75334 0.25912 0.72368 0.0
C967 C 0.72447 0.25231 0.72506 0.0
C968 C 0.70855 0.27517 0.73751 0.0
C969 C 0.71388 0.24473 0.69706 0.0
C970 C 0.72536 0.22859 0.74361 0.0
C971 C 0.75081 0.22234 0.7509 0.0
C972 C 0.75617 0.20192 0.7691 0.0
C973 C 0.73496 0.1878 0.78028 0.0
C974 C 0.70882 0.19433 0.77331 0.0
C975 C 0.70413 0.21483 0.75461 0.0
H976 H 0.08964 0.33472 0.0471 0.0
H977 H 0.16798 0.36438 0.06236 0.0
H978 H 0.17768 0.36252 0.01337 0.0
H979 H 0.10484 0.29242 0.98726 0.0
H980 H 0.07482 0.30186 0.9706 0.0
H981 H 0.07613 0.3004 0.00692 0.0
H982 H 0.06017 0.34905 0.00943 0.0
H983 H 0.05907 0.35079 0.97321 0.0
H984 H 0.07833 0.37445 0.99192 0.0
H985 H 0.1765 0.36317 0.96208 0.0
H986 H 0.16454 0.36664 0.91373 0.0
H987 H 0.08619 0.33866 0.93216 0.0
C988 C 0.10909 0.34007 0.04012 0.0
C989 C 0.12818 0.34946 0.05842 0.0
C990 C 0.15327 0.35669 0.04866 0.0
C991 C 0.15886 0.35582 0.02086 0.0
C992 C 0.13912 0.34766 0.00315 0.0
C993 C 0.11474 0.33978 0.01247 0.0
C994 C 0.09589 0.33485 0.98935 0.0
C995 C 0.08743 0.30564 0.98849 0.0
C996 C 0.07197 0.35339 0.99109 0.0
C997 C 0.11319 0.34178 0.96553 0.0
C998 C 0.13819 0.34874 0.97381 0.0
C999 C 0.15712 0.35736 0.9554 0.0
C1000 C 0.1502 0.35922 0.92799 0.0
C1001 C 0.12452 0.35279 0.91929 0.0
C1002 C 0.106 0.34357 0.9383 0.0
H1003 H 0.65549 0.09631 0.94234 0.0
H1004 H 0.63719 0.17713 0.92018 0.0
H1005 H 0.63986 0.19038 0.96829 0.0
H1006 H 0.61531 0.09406 -0.00266 0.0
H1007 H 0.63612 0.07337 0.01784 0.0
H1008 H 0.63823 0.07163 0.9817 0.0
H1009 H 0.68805 0.08198 0.98397 0.0
H1010 H 0.68612 0.08364 0.02025 0.0
H1011 H 0.6992 0.11121 0.00143 0.0
H1012 H 0.63712 0.19288 0.01952 0.0
H1013 H 0.62935 0.18433 0.06819 0.0
H1014 H 0.64948 0.10189 0.05653 0.0
C1015 C 0.65288 0.11695 0.9476 0.0
C1016 C 0.64632 0.13577 0.92766 0.0
C1017 C 0.64263 0.16253 0.93518 0.0
C1018 C 0.64403 0.17016 0.96246 0.0
C1019 C 0.6494 0.15083 0.98186 0.0
C1020 C 0.65404 0.12478 0.97465 0.0
C1021 C 0.65639 0.10714 -0.00076 0.0
C1022 C 0.63526 0.08528 -0.001 0.0
C1023 C 0.68409 0.0953 0.00134 0.0
C1024 C 0.65146 0.12706 0.02147 0.0
C1025 C 0.64781 0.15225 0.01117 0.0
C1026 C 0.64053 0.17335 0.0278 0.0
C1027 C 0.63624 0.16839 0.05541 0.0
C1028 C 0.63905 0.14253 0.06597 0.0
C1029 C 0.64756 0.12191 0.04892 0.0
H1030 H 0.83765 0.60968 0.93763 0.0
H1031 H 0.85006 0.69329 0.92388 0.0
H1032 H 0.8417 0.70219 0.97236 0.0
H1033 H 0.78813 0.61529 -0.00496 0.0
H1034 H 0.80291 0.58747 0.01203 0.0
H1035 H 0.80273 0.58891 0.97568 0.0
H1036 H 0.8533 0.58328 0.97542 0.0
H1037 H 0.85373 0.58222 0.01161 0.0
H1038 H 0.87335 0.60639 0.99399 0.0
H1039 H 0.84149 0.70038 0.02363 0.0
H1040 H 0.84856 0.68818 0.07159 0.0
H1041 H 0.83655 0.60565 0.05157 0.0
C1042 C 0.83715 0.62998 0.94467 0.0
C1043 C 0.8439 0.6509 0.92712 0.0
C1044 C 0.84426 0.67714 0.93699 0.0
C1045 C 0.83969 0.68229 0.96452 0.0
C1046 C 0.8346 0.66096 0.98175 0.0
C1047 C 0.83293 0.63531 0.97203 0.0
C1048 C 0.83118 0.61541 -0.00517 0.0
C1049 C 0.80465 0.60092 0.99436 0.0
C1050 C 0.85426 0.59569 0.99389 0.0
C1051 C 0.83322 0.63363 0.01895 0.0
C1052 C 0.83476 0.65989 0.01115 0.0
C1053 C 0.83959 0.67995 0.02995 0.0
C1054 C 0.8435 0.67291 0.05716 0.0
C1055 C 0.84282 0.64604 0.0652 0.0
C1056 C 0.8368 0.62638 0.04595 0.0
H1057 H 0.38079 0.88766 0.93996 0.0
H1058 H 0.33144 0.81994 0.92171 0.0
H1059 H 0.31947 0.817 0.9701 0.0
H1060 H 0.40959 0.85431 -0.00264 0.0
H1061 H 0.41518 0.88517 0.01472 0.0
H1062 H 0.41555 0.88421 0.97843 0.0
H1063 H 0.37995 0.9209 0.97736 0.0
H1064 H 0.37904 0.92156 0.01364 0.0
H1065 H 0.34933 0.91569 -0.00517 0.0
H1066 H 0.31123 0.82556 0.02268 0.0
H1067 H 0.31425 0.83793 0.07101 0.0
H1068 H 0.38216 0.88656 0.05249 0.0
C1069 C 0.36831 0.87139 0.94571 0.0
C1070 C 0.35746 0.85392 0.92648 0.0
C1071 C 0.33971 0.83413 0.93563 0.0
C1072 C 0.33299 0.83211 0.96325 0.0
C1073 C 0.34506 0.84925 0.98161 0.0
C1074 C 0.36312 0.8678 0.973 0.0
C1075 C 0.37622 0.88177 -0.00376 0.0
C1076 C 0.40589 0.876 -0.00328 0.0
C1077 C 0.37079 0.91175 -0.00455 0.0
C1078 C 0.3623 0.86874 0.01954 0.0
C1079 C 0.34363 0.85077 0.01103 0.0
C1080 C 0.32642 0.83898 0.02946 0.0
C1081 C 0.32848 0.84593 0.05702 0.0
C1082 C 0.34832 0.86362 0.06605 0.0
C1083 C 0.36589 0.8741 0.04679 0.0
H1084 H 0.14206 0.59934 0.43558 0.0
H1085 H 0.13956 0.68298 0.41664 0.0
H1086 H 0.14598 0.69364 0.46509 0.0
H1087 H 0.10366 0.6031 0.49193 0.0
H1088 H 0.12056 0.57785 0.51087 0.0
H1089 H 0.12117 0.57716 0.47463 0.0
H1090 H 0.17207 0.57718 0.47528 0.0
H1091 H 0.17162 0.57778 0.51165 0.0
H1092 H 0.18933 0.60289 0.49326 0.0
H1093 H 0.14558 0.69463 0.51665 0.0
H1094 H 0.13808 0.68581 0.56534 0.0
H1095 H 0.14058 0.60151 0.54987 0.0
C1096 C 0.14363 0.6199 0.44158 0.0
C1097 C 0.14056 0.64037 0.42247 0.0
C1098 C 0.14235 0.66705 0.43098 0.0
C1099 C 0.1459 0.67323 0.45846 0.0
C1100 C 0.14783 0.65247 0.47703 0.0
C1101 C 0.14699 0.62631 0.4688 0.0
C1102 C 0.14654 0.60758 0.49264 0.0
C1103 C 0.1215 0.59043 0.4925 0.0
C1104 C 0.17138 0.59034 0.49324 0.0
C1105 C 0.14635 0.6272 0.51568 0.0
C1106 C 0.14748 0.65303 0.50642 0.0
C1107 C 0.14524 0.67448 0.52409 0.0
C1108 C 0.14109 0.66934 0.55169 0.0
C1109 C 0.13897 0.64302 0.56121 0.0
C1110 C 0.14246 0.62182 0.54306 0.0
H1111 H 0.33815 0.10945 0.44239 0.0
H1112 H 0.35911 0.19119 0.42753 0.0
H1113 H 0.35523 0.20072 0.47651 0.0
H1114 H 0.29294 0.12075 0.50142 0.0
H1115 H 0.30484 0.09141 0.51813 0.0
H1116 H 0.30378 0.09276 0.4818 0.0
H1117 H 0.35333 0.08126 0.47996 0.0
H1118 H 0.35464 0.08013 0.51616 0.0
H1119 H 0.37644 0.1018 0.49788 0.0
H1120 H 0.35658 0.19901 0.5279 0.0
H1121 H 0.36244 0.18642 0.57592 0.0
H1122 H 0.34059 0.10574 0.55671 0.0
C1123 C 0.34089 0.12957 0.44942 0.0
C1124 C 0.34857 0.14971 0.43134 0.0
C1125 C 0.35272 0.17567 0.44112 0.0
C1126 C 0.35066 0.18117 0.4689 0.0
C1127 C 0.34422 0.1605 0.48647 0.0
C1128 C 0.33909 0.13525 0.47698 0.0
C1129 C 0.33568 0.11575 0.49992 0.0
C1130 C 0.30764 0.10451 0.50034 0.0
C1131 C 0.35625 0.09344 0.49838 0.0
C1132 C 0.34055 0.13366 0.52386 0.0
C1133 C 0.34511 0.1595 0.51584 0.0
C1134 C 0.35242 0.17898 0.5344 0.0
C1135 C 0.35561 0.17172 0.56164 0.0
C1136 C 0.35168 0.14521 0.56995 0.0
C1137 C 0.3434 0.12622 0.55088 0.0
H1138 H 0.88362 0.34677 0.44225 0.0
H1139 H 0.80242 0.36101 0.42124 0.0
H1140 H 0.79003 0.35736 0.46955 0.0
H1141 H 0.87228 0.30187 0.50143 0.0
H1142 H 0.89907 0.31667 0.51981 0.0
H1143 H 0.90028 0.31484 0.48351 0.0
H1144 H 0.90755 0.36563 0.48114 0.0
H1145 H 0.90621 0.36764 0.5173 0.0
H1146 H 0.88423 0.38738 0.49714 0.0
H1147 H 0.78805 0.3593 0.52113 0.0
H1148 H 0.79686 0.36706 0.56982 0.0
H1149 H 0.87947 0.3523 0.55632 0.0
C1150 C 0.8631 0.3482 0.44779 0.0
C1151 C 0.8439 0.35386 0.42813 0.0
C1152 C 0.81732 0.35618 0.43602 0.0
C1153 C 0.81017 0.35424 0.46342 0.0
C1154 C 0.82985 0.34979 0.48255 0.0
C1155 C 0.85578 0.34657 0.47494 0.0
C1156 C 0.87374 0.34523 0.49922 0.0
C1157 C 0.88713 0.31803 0.5011 0.0
C1158 C 0.89412 0.36781 0.49866 0.0
C1159 C 0.85409 0.349 0.52175 0.0
C1160 C 0.82878 0.35122 0.51192 0.0
C1161 C 0.80773 0.35706 0.52902 0.0
C1162 C 0.81283 0.36135 0.55663 0.0
C1163 C 0.83876 0.36006 0.56668 0.0
C1164 C 0.85941 0.35306 0.54911 0.0
H1165 H 0.64662 0.88828 0.43578 0.0
H1166 H 0.62984 0.80612 0.41798 0.0
H1167 H 0.63723 0.79457 0.46609 0.0
H1168 H 0.69621 0.87704 0.49066 0.0
H1169 H 0.68385 0.90471 0.50979 0.0
H1170 H 0.68236 0.90522 0.47346 0.0
H1171 H 0.63217 0.91354 0.47575 0.0
H1172 H 0.6335 0.913 0.51196 0.0
H1173 H 0.61171 0.89082 0.49436 0.0
H1174 H 0.63902 0.79377 0.51756 0.0
H1175 H 0.63473 0.80392 0.56637 0.0
H1176 H 0.65106 0.88647 0.5499 0.0
C1177 C 0.64539 0.86773 0.44192 0.0
C1178 C 0.63797 0.848 0.42329 0.0
C1179 C 0.63596 0.82139 0.43197 0.0
C1180 C 0.64006 0.81472 0.45924 0.0
C1181 C 0.64643 0.83489 0.47742 0.0
C1182 C 0.64934 0.86085 0.46896 0.0
C1183 C 0.65326 0.87939 0.49259 0.0
C1184 C 0.68055 0.89235 0.49156 0.0
C1185 C 0.63136 0.9004 0.49372 0.0
C1186 C 0.6512 0.86007 0.51582 0.0
C1187 C 0.64759 0.8344 0.5068 0.0
C1188 C 0.64247 0.81369 0.5248 0.0
C1189 C 0.64019 0.81955 0.55249 0.0
C1190 C 0.64283 0.8459 0.56177 0.0
C1191 C 0.64937 0.86609 0.54328 0.0
H1192 H 0.09251 0.54291 0.27159 0.0
H1193 H 0.17593 0.55465 0.28358 0.0
H1194 H 0.18503 0.51479 0.25549 0.0
H1195 H 0.0912 0.4728 0.27293 0.0
H1196 H 0.06691 0.47009 0.24663 0.0
H1197 H 0.06765 0.49896 0.26789 0.0
H1198 H 0.07146 0.52907 0.22566 0.0
H1199 H 0.07068 0.50028 0.20425 0.0
H1200 H 0.09755 0.52339 0.20178 0.0
H1201 H 0.18374 0.47065 0.22798 0.0
H1202 H 0.1726 0.43113 0.20019 0.0
H1203 H 0.09035 0.45271 0.20396 0.0
C1204 C 0.11273 0.53707 0.26838 0.0
C1205 C 0.13353 0.55152 0.28003 0.0
C1206 C 0.15973 0.54367 0.27488 0.0
C1207 C 0.16502 0.52106 0.25904 0.0
C1208 C 0.14389 0.50703 0.24804 0.0
C1209 C 0.11829 0.51518 0.25218 0.0
C1210 C 0.09891 0.49772 0.2375 0.0
C1211 C 0.08007 0.48409 0.25743 0.0
C1212 C 0.08377 0.51356 0.21603 0.0
C1213 C 0.11742 0.47807 0.2247 0.0
C1214 C 0.1433 0.48336 0.23113 0.0
C1215 C 0.16355 0.46667 0.22252 0.0
C1216 C 0.15709 0.44425 0.20683 0.0
C1217 C 0.1307 0.43912 0.19951 0.0
C1218 C 0.1108 0.45637 0.20867 0.0
H1219 H 0.51499 0.12574 0.18568 0.0
H1220 H 0.56914 0.17378 0.23236 0.0
H1221 H 0.53354 0.18402 0.2646 0.0
H1222 H 0.45533 0.16679 0.1979 0.0
H1223 H 0.43458 0.13792 0.19997 0.0
H1224 H 0.46326 0.13757 0.17866 0.0
H1225 H 0.48006 0.09566 0.20333 0.0
H1226 H 0.45158 0.09591 0.22472 0.0
H1227 H 0.48391 0.0963 0.23948 0.0
H1228 H 0.4939 0.18323 0.29541 0.0
H1229 H 0.45319 0.17297 0.32082 0.0
H1230 H 0.42455 0.12688 0.25338 0.0
C1231 C 0.51929 0.13898 0.20228 0.0
C1232 C 0.54497 0.149 0.20637 0.0
C1233 C 0.54967 0.166 0.22861 0.0
C1234 C 0.52953 0.17191 0.24707 0.0
C1235 C 0.50467 0.161 0.24286 0.0
C1236 C 0.49943 0.14515 0.22079 0.0
C1237 C 0.47171 0.13422 0.22184 0.0
C1238 C 0.45525 0.14476 0.19819 0.0
C1239 C 0.47184 0.10372 0.22239 0.0
C1240 C 0.4624 0.1456 0.24845 0.0
C1241 C 0.48162 0.16118 0.26021 0.0
C1242 C 0.47847 0.1717 0.28605 0.0
C1243 C 0.45533 0.16586 0.30032 0.0
C1244 C 0.43556 0.14991 0.28862 0.0
C1245 C 0.43901 0.13999 0.26226 0.0
H1246 H 0.86872 0.47249 0.3067 0.0
H1247 H 0.82879 0.41481 0.25635 0.0
H1248 H 0.81953 0.44978 0.22282 0.0
H1249 H 0.82494 0.52932 0.29038 0.0
H1250 H 0.85185 0.55253 0.29085 0.0
H1251 H 0.85268 0.52363 0.3122 0.0
H1252 H 0.89739 0.51018 0.29148 0.0
H1253 H 0.89668 0.53891 0.27004 0.0
H1254 H 0.90017 0.50643 0.25541 0.0
H1255 H 0.82073 0.4894 0.19172 0.0
H1256 H 0.82955 0.53132 0.16723 0.0
H1257 H 0.86595 0.56394 0.23878 0.0
C1258 C 0.85751 0.46727 0.28891 0.0
C1259 C 0.84949 0.44081 0.28423 0.0
C1260 C 0.83504 0.4349 0.26054 0.0
C1261 C 0.8297 0.45466 0.24133 0.0
C1262 C 0.83851 0.48038 0.24626 0.0
C1263 C 0.85176 0.4868 0.26969 0.0
C1264 C 0.86036 0.51557 0.26952 0.0
C1265 C 0.84663 0.53118 0.29208 0.0
C1266 C 0.89043 0.51789 0.27173 0.0
C1267 C 0.85069 0.52413 0.24194 0.0
C1268 C 0.83808 0.50355 0.22883 0.0
C1269 C 0.82986 0.50588 0.20207 0.0
C1270 C 0.83489 0.5297 0.18832 0.0
C1271 C 0.84759 0.55098 0.20147 0.0
C1272 C 0.85525 0.54826 0.22869 0.0
H1273 H 0.51519 0.86968 0.30687 0.0
H1274 H 0.57174 0.83683 0.25063 0.0
H1275 H 0.53653 0.83126 0.21682 0.0
H1276 H 0.4588 0.82703 0.28567 0.0
H1277 H 0.43567 0.85363 0.29033 0.0
H1278 H 0.46466 0.85186 0.3111 0.0
H1279 H 0.47725 0.8995 0.29666 0.0
H1280 H 0.44851 0.90137 0.2757 0.0
H1281 H 0.48049 0.90717 0.26128 0.0
H1282 H 0.49671 0.83632 0.18673 0.0
H1283 H 0.45444 0.84742 0.16455 0.0
H1284 H 0.42327 0.87409 0.24109 0.0
C1285 C 0.52009 0.86067 0.2877 0.0
C1286 C 0.54629 0.85367 0.28146 0.0
C1287 C 0.55183 0.84214 0.25602 0.0
C1288 C 0.53194 0.83898 0.23663 0.0
C1289 C 0.5065 0.84694 0.24313 0.0
C1290 C 0.50043 0.85705 0.26827 0.0
C1291 C 0.47188 0.86539 0.26979 0.0
C1292 C 0.45687 0.84846 0.29045 0.0
C1293 C 0.46941 0.89511 0.27623 0.0
C1294 C 0.46304 0.85934 0.24126 0.0
C1295 C 0.48328 0.84868 0.22616 0.0
C1296 C 0.48053 0.84392 0.19855 0.0
C1297 C 0.45655 0.85028 0.1861 0.0
C1298 C 0.4356 0.86087 0.20135 0.0
C1299 C 0.43881 0.86518 0.22926 0.0
H1300 H 0.87284 0.56584 0.76337 0.0
H1301 H 0.87787 0.52681 0.84108 0.0
H1302 H 0.8695 0.48353 0.81907 0.0
H1303 H 0.82319 0.52376 0.73241 0.0
H1304 H 0.83905 0.52371 0.69991 0.0
H1305 H 0.84272 0.55177 0.72206 0.0
H1306 H 0.89333 0.54722 0.71963 0.0
H1307 H 0.88982 0.51932 0.69734 0.0
H1308 H 0.90838 0.51601 0.72811 0.0
H1309 H 0.86008 0.44446 0.78816 0.0
H1310 H 0.85781 0.41213 0.75073 0.0
H1311 H 0.86351 0.47635 0.69291 0.0
C1312 C 0.87176 0.54819 0.77576 0.0
C1313 C 0.8755 0.54962 0.80397 0.0
C1314 C 0.87483 0.52608 0.81946 0.0
C1315 C 0.86994 0.50148 0.80714 0.0
C1316 C 0.86627 0.50072 0.77924 0.0
C1317 C 0.86766 0.52343 0.76369 0.0
C1318 C 0.86568 0.51699 0.73388 0.0
C1319 C 0.8412 0.52982 0.72133 0.0
C1320 C 0.8908 0.52538 0.71887 0.0
C1321 C 0.86301 0.48711 0.73502 0.0
C1322 C 0.86276 0.47815 0.76138 0.0
C1323 C 0.86032 0.45128 0.76746 0.0
C1324 C 0.85885 0.43306 0.74607 0.0
C1325 C 0.86044 0.44172 0.71893 0.0
C1326 C 0.86219 0.46916 0.71346 0.0
H1327 H 0.56136 0.85264 0.73584 0.0
H1328 H 0.52607 0.83656 0.65814 0.0
H1329 H 0.48364 0.82687 0.68039 0.0
H1330 H 0.52085 0.80522 0.77762 0.0
H1331 H 0.51853 0.82868 0.80492 0.0
H1332 H 0.54729 0.82821 0.78372 0.0
H1333 H 0.54072 0.87804 0.77312 0.0
H1334 H 0.512 0.87862 0.79414 0.0
H1335 H 0.50981 0.88905 0.75943 0.0
H1336 H 0.44378 0.82479 0.71039 0.0
H1337 H 0.40968 0.83395 0.74476 0.0
H1338 H 0.47059 0.85394 0.80242 0.0
C1339 C 0.54494 0.84592 0.72376 0.0
C1340 C 0.547 0.84453 0.69544 0.0
C1341 C 0.52486 0.83712 0.67995 0.0
C1342 C 0.50075 0.83155 0.69243 0.0
C1343 C 0.49902 0.83383 0.72041 0.0
C1344 C 0.52055 0.84093 0.73589 0.0
C1345 C 0.51266 0.84599 0.76489 0.0
C1346 C 0.5256 0.82582 0.78391 0.0
C1347 C 0.51917 0.87462 0.77337 0.0
C1348 C 0.4833 0.84153 0.7631 0.0
C1349 C 0.47583 0.83388 0.73748 0.0
C1350 C 0.44944 0.83038 0.73065 0.0
C1351 C 0.43018 0.83554 0.7503 0.0
C1352 C 0.43745 0.84461 0.77626 0.0
C1353 C 0.4644 0.84688 0.78279 0.0
H1354 H 0.08003 0.4477 0.76589 0.0
H1355 H 0.16208 0.43732 0.7863 0.0
H1356 H 0.17317 0.4779 0.76026 0.0
H1357 H 0.09198 0.46905 0.69725 0.0
H1358 H 0.06468 0.49173 0.69712 0.0
H1359 H 0.06358 0.46248 0.71791 0.0
H1360 H 0.05487 0.49154 0.76008 0.0
H1361 H 0.05594 0.52086 0.73944 0.0
H1362 H 0.07733 0.51796 0.76825 0.0
H1363 H 0.17421 0.52179 0.73382 0.0
H1364 H 0.16586 0.56183 0.706 0.0
H1365 H 0.0837 0.53999 0.70021 0.0
C1366 C 0.10033 0.45405 0.76497 0.0
C1367 C 0.1202 0.4397 0.77836 0.0
C1368 C 0.1466 0.44819 0.77623 0.0
C1369 C 0.15302 0.47119 0.76155 0.0
C1370 C 0.13286 0.485 0.74864 0.0
C1371 C 0.10711 0.47641 0.74987 0.0
C1372 C 0.08914 0.49393 0.73343 0.0
C1373 C 0.07662 0.47837 0.71004 0.0
C1374 C 0.06809 0.50684 0.75138 0.0
C1375 C 0.10863 0.51415 0.72316 0.0
C1376 C 0.13374 0.50892 0.73226 0.0
C1377 C 0.15468 0.52582 0.72629 0.0
C1378 C 0.14978 0.54852 0.71055 0.0
C1379 C 0.12424 0.55381 0.70063 0.0
C1380 C 0.10356 0.53625 0.70704 0.0
H1381 H 0.45455 0.09189 0.71342 0.0
H1382 H 0.43929 0.17622 0.70935 0.0
H1383 H 0.4789 0.18464 0.73746 0.0
H1384 H 0.47402 0.09156 0.78266 0.0
H1385 H 0.4982 0.06595 0.77794 0.0
H1386 H 0.46978 0.06723 0.75641 0.0
H1387 H 0.49988 0.0687 0.71424 0.0
H1388 H 0.52841 0.06741 0.73563 0.0
H1389 H 0.52472 0.09403 0.7117 0.0
H1390 H 0.52231 0.18301 0.76464 0.0
H1391 H 0.56148 0.1714 0.7922 0.0
H1392 H 0.54409 0.08808 0.78132 0.0
C1393 C 0.45966 0.11218 0.71821 0.0
C1394 C 0.4442 0.13347 0.70888 0.0
C1395 C 0.45107 0.15968 0.71619 0.0
C1396 C 0.47352 0.1646 0.73205 0.0
C1397 C 0.48842 0.14303 0.74086 0.0
C1398 C 0.48142 0.11732 0.73447 0.0
C1399 C 0.49953 0.09737 0.74746 0.0
C1400 C 0.48448 0.07948 0.7673 0.0
C1401 C 0.51399 0.08092 0.72598 0.0
C1402 C 0.51808 0.11576 0.7621 0.0
C1403 C 0.51176 0.14206 0.7578 0.0
C1404 C 0.52715 0.16248 0.76841 0.0
C1405 C 0.54933 0.15576 0.78396 0.0
C1406 C 0.55543 0.1289 0.78921 0.0
C1407 C 0.53954 0.1088 0.77809 0.0
H1408 H 0.63439 0.01267 0.80829 0.0
H1409 H 0.66574 0.07201 0.7537 0.0
H1410 H 0.6722 0.0375 0.71902 0.0
H1411 H 0.6772 0.95657 0.78513 0.0
H1412 H 0.65089 0.93299 0.78905 0.0
H1413 H 0.65268 0.96151 0.81086 0.0
H1414 H 0.6054 0.97454 0.79711 0.0
H1415 H 0.6035 0.94631 0.77513 0.0
H1416 H 0.59767 0.97904 0.7619 0.0
H1417 H 0.66742 -0.00155 0.68777 0.0
H1418 H 0.6554 0.95716 0.66381 0.0
H1419 H 0.62959 0.9224 0.73913 0.0
C1420 C 0.64337 0.01834 0.78935 0.0
C1421 C 0.64964 0.04515 0.78382 0.0
C1422 C 0.66103 0.05166 0.7586 0.0
C1423 C 0.6647 0.03215 0.73871 0.0
C1424 C 0.65732 0.00611 0.74448 0.0
C1425 C 0.64735 -0.00091 0.7694 0.0
C1426 C 0.63913 0.97019 0.76989 0.0
C1427 C 0.65599 0.95438 0.78992 0.0
C1428 C 0.60968 0.96738 0.77638 0.0
C1429 C 0.64503 0.96226 0.74102 0.0
C1430 C 0.65561 0.98326 0.72671 0.0
C1431 C 0.65993 0.98166 0.69896 0.0
C1432 C 0.65306 0.95818 0.68551 0.0
C1433 C 0.64237 0.93646 0.69982 0.0
C1434 C 0.6387 0.9384 0.72797 0.0
H1435 H 0.92988 0.64369 0.75508 0.0
H1436 H 0.96864 0.67226 0.82713 0.0
H1437 H 0.00823 0.68299 0.80035 0.0
H1438 H 0.98269 0.60939 0.73198 0.0
H1439 H 0.97734 0.61516 0.69651 0.0
H1440 H 0.9501 0.61599 0.7195 0.0
H1441 H 0.93837 0.66335 0.7034 0.0
H1442 H 0.9656 0.6626 0.68017 0.0
H1443 H 0.96295 0.68903 0.70445 0.0
H1444 H 0.04555 0.68446 0.76736 0.0
H1445 H 0.07812 0.67364 0.73218 0.0
H1446 H 0.01587 0.64167 0.68201 0.0
C1447 C 0.9463 0.65337 0.76486 0.0
C1448 C 0.94605 0.65793 0.79295 0.0
C1449 C 0.96835 0.66921 0.8055 0.0
C1450 C 0.99087 0.67538 0.79042 0.0
C1451 C 0.99091 0.66984 0.76285 0.0
C1452 C 0.96919 0.65903 0.75018 0.0
C1453 C 0.97562 0.65102 0.72145 0.0
C1454 C 0.97119 0.62113 0.71713 0.0
C1455 C 0.95969 0.66749 0.70117 0.0
C1456 C 0.00453 0.65809 0.72027 0.0
C1457 C 0.01284 0.66953 0.7441 0.0
C1458 C 0.03917 0.6759 0.74845 0.0
C1459 C 0.05757 0.6697 0.7283 0.0
C1460 C 0.04965 0.65683 0.70424 0.0
C1461 C 0.02262 0.65174 0.70001 0.0
H1462 H 0.35686 0.02099 0.68536 0.0
H1463 H 0.3371 0.08106 0.74452 0.0
H1464 H 0.33027 0.04613 0.77871 0.0
H1465 H 0.31029 0.96875 0.71159 0.0
H1466 H 0.33338 0.94272 0.70415 0.0
H1467 H 0.33242 0.97205 0.6834 0.0
H1468 H 0.382 0.97955 0.69211 0.0
H1469 H 0.38309 0.95051 0.71305 0.0
H1470 H 0.39372 0.98196 0.72634 0.0
H1471 H 0.33466 0.00582 0.80834 0.0
H1472 H 0.34505 0.9627 0.82974 0.0
H1473 H 0.35859 0.92828 0.75101 0.0
C1474 C 0.35026 0.02678 0.70527 0.0
C1475 C 0.34748 0.05383 0.71221 0.0
C1476 C 0.3391 0.06052 0.73859 0.0
C1477 C 0.33525 0.04078 0.75821 0.0
C1478 C 0.33927 0.01438 0.75099 0.0
C1479 C 0.34598 0.00731 0.72495 0.0
C1480 C 0.35097 0.97777 0.7228 0.0
C1481 C 0.33054 0.96454 0.70439 0.0
C1482 C 0.37911 0.97214 0.71301 0.0
C1483 C 0.34724 0.96948 0.75194 0.0
C1484 C 0.34042 0.99088 0.7679 0.0
C1485 C 0.33909 0.98877 0.79594 0.0
C1486 C 0.34504 0.96428 0.80794 0.0
C1487 C 0.35178 0.94216 0.7919 0.0
C1488 C 0.35246 0.94471 0.76356 0.0
H1489 H 0.92347 0.34512 0.7296 0.0
H1490 H 0.96037 0.34717 0.65098 0.0
H1491 H 0.00262 0.33379 0.67151 0.0
H1492 H 0.97282 0.37761 0.76104 0.0
H1493 H 0.97053 0.36049 0.79287 0.0
H1494 H 0.94222 0.36283 0.77147 0.0
H1495 H 0.93777 0.31165 0.7717 0.0
H1496 H 0.96627 0.30921 0.79314 0.0
H1497 H 0.96526 0.29149 0.7616 0.0
H1498 H 0.04199 0.32701 0.7012 0.0
H1499 H 0.07522 0.33298 0.73704 0.0
H1500 H 0.01312 0.33856 0.79654 0.0
C1501 C 0.9402 0.34149 0.71663 0.0
C1502 C 0.93862 0.34634 0.68866 0.0
C1503 C 0.96117 0.34294 0.67239 0.0
C1504 C 0.98518 0.33525 0.68389 0.0
C1505 C 0.98639 0.33142 0.71175 0.0
C1506 C 0.96446 0.3346 0.72794 0.0
C1507 C 0.97178 0.33425 0.75756 0.0
C1508 C 0.96388 0.36034 0.77152 0.0
C1509 C 0.95954 0.31021 0.77184 0.0
C1510 C 0.00131 0.3315 0.75552 0.0
C1511 C 0.00934 0.32901 0.72901 0.0
C1512 C 0.0359 0.32847 0.72206 0.0
C1513 C 0.05469 0.33173 0.74258 0.0
C1514 C 0.04674 0.33612 0.76957 0.0
C1515 C 0.01976 0.33491 0.77612 0.0
H1516 H 0.34665 0.97943 0.18989 0.0
H1517 H 0.33121 0.91717 0.24807 0.0
H1518 H 0.32415 0.95103 0.2834 0.0
H1519 H 0.38384 0.01816 0.23012 0.0
H1520 H 0.37204 0.04968 0.21811 0.0
H1521 H 0.3707 0.02118 0.19648 0.0
H1522 H 0.32066 0.02771 0.19007 0.0
H1523 H 0.32185 0.0565 0.21155 0.0
H1524 H 0.29962 0.02975 0.21924 0.0
H1525 H 0.32849 0.99066 0.31375 0.0
H1526 H 0.33974 0.03311 0.33588 0.0
H1527 H 0.34949 0.07007 0.25771 0.0
C1528 C 0.34089 0.97293 0.20986 0.0
C1529 C 0.3394 0.94565 0.21624 0.0
C1530 C 0.33214 0.93793 0.24265 0.0
C1531 C 0.32817 0.95706 0.26285 0.0
C1532 C 0.33096 0.98378 0.25614 0.0
C1533 C 0.33659 0.99173 0.23009 0.0
C1534 C 0.34089 0.02141 0.2285 0.0
C1535 C 0.3685 0.02797 0.21768 0.0
C1536 C 0.31947 0.03462 0.21132 0.0
C1537 C 0.33816 0.02883 0.25795 0.0
C1538 C 0.33225 0.00687 0.27357 0.0
C1539 C 0.33219 0.00813 0.30167 0.0
C1540 C 0.33864 0.03226 0.31407 0.0
C1541 C 0.3447 0.05488 0.29841 0.0
C1542 C 0.34388 0.05327 0.27003 0.0
H1543 H 0.01253 0.35689 0.1827 0.0
H1544 H 0.07521 0.33433 0.23731 0.0
H1545 H 0.04265 0.32728 0.27355 0.0
H1546 H 0.97711 0.39377 0.22726 0.0
H1547 H 0.94502 0.38394 0.21565 0.0
H1548 H 0.97247 0.383 0.19291 0.0
H1549 H 0.9636 0.33339 0.18321 0.0
H1550 H 0.93588 0.3342 0.20582 0.0
H1551 H 0.96166 0.31029 0.21089 0.0
H1552 H 0.00468 0.33145 0.30577 0.0
H1553 H 0.96357 0.34204 0.33018 0.0
H1554 H 0.92493 0.3585 0.25423 0.0
C1555 C 0.01936 0.34968 0.20204 0.0
C1556 C 0.04647 0.34612 0.20711 0.0
C1557 C 0.05457 0.33695 0.23281 0.0
C1558 C 0.03619 0.33296 0.25357 0.0
C1559 C 0.00972 0.33766 0.24817 0.0
C1560 C 0.00125 0.34526 0.22284 0.0
C1561 C 0.972 0.35082 0.22272 0.0
C1562 C 0.96634 0.37958 0.21414 0.0
C1563 C 0.95743 0.33099 0.20458 0.0
C1564 C 0.9655 0.34633 0.2522 0.0
C1565 C 0.98753 0.33868 0.26656 0.0
C1566 C 0.98713 0.33655 0.29463 0.0
C1567 C 0.96377 0.34263 0.30833 0.0
C1568 C 0.94103 0.35027 0.29395 0.0
C1569 C 0.94181 0.35166 0.26553 0.0
H1570 H 0.61483 0.93208 0.25181 0.0
H1571 H 0.65457 0.96329 0.32211 0.0
H1572 H 0.66347 0.00518 0.29757 0.0
H1573 H 0.65472 0.96625 0.19883 0.0
H1574 H 0.62622 0.97245 0.17824 0.0
H1575 H 0.62748 0.94345 0.19941 0.0
H1576 H 0.58381 0.95744 0.22206 0.0
H1577 H 0.58248 0.98648 0.2011 0.0
H1578 H 0.5813 0.98976 0.23729 0.0
H1579 H 0.66416 0.04495 0.26691 0.0
H1580 H 0.65406 0.08044 0.23428 0.0
H1581 H 0.61124 0.02401 0.18494 0.0
C1582 C 0.62626 0.94744 0.26156 0.0
C1583 C 0.63481 0.94441 0.28843 0.0
C1584 C 0.64852 0.96522 0.30125 0.0
C1585 C 0.65363 0.98899 0.28746 0.0
C1586 C 0.6445 0.99166 0.26104 0.0
C1587 C 0.631 0.97146 0.24825 0.0
C1588 C 0.62037 0.98046 0.22121 0.0
C1589 C 0.63296 0.96472 0.19805 0.0
C1590 C 0.59021 0.97842 0.22039 0.0
C1591 C 0.62941 0.00904 0.22104 0.0
C1592 C 0.64376 0.01497 0.24391 0.0
C1593 C 0.65317 0.04046 0.2488 0.0
C1594 C 0.64732 0.06051 0.2301 0.0
C1595 C 0.63183 0.05509 0.20699 0.0
C1596 C 0.62323 0.02884 0.20229 0.0
H1597 H 0.96826 0.61952 0.18166 0.0
H1598 H 0.91447 0.66724 0.22905 0.0
H1599 H 0.95045 0.67826 0.26045 0.0
H1600 H 0.00111 0.59124 0.23516 0.0
H1601 H 0.03311 0.59136 0.21967 0.0
H1602 H 0.00419 0.59031 0.19894 0.0
H1603 H 0.01979 0.63231 0.17349 0.0
H1604 H 0.04884 0.6335 0.19422 0.0
H1605 H 0.0275 0.66189 0.19226 0.0
H1606 H 0.99019 0.67813 0.29051 0.0
H1607 H 0.0311 0.66824 0.3156 0.0
H1608 H 0.05983 0.62285 0.24774 0.0
C1609 C 0.96413 0.63282 0.19826 0.0
C1610 C 0.93845 0.64254 0.20279 0.0
C1611 C 0.93393 0.65963 0.22499 0.0
C1612 C 0.95429 0.66604 0.24296 0.0
C1613 C 0.9792 0.65556 0.23827 0.0
C1614 C 0.98426 0.63956 0.21627 0.0
C1615 C 0.0122 0.62923 0.21686 0.0
C1616 C 0.01266 0.59874 0.21772 0.0
C1617 C 0.02801 0.63988 0.19277 0.0
C1618 C 0.02178 0.6411 0.24316 0.0
C1619 C 0.0025 0.65638 0.25514 0.0
C1620 C 0.00571 0.66692 0.28095 0.0
C1621 C 0.02897 0.6613 0.29504 0.0
C1622 C 0.04881 0.64566 0.28311 0.0
C1623 C 0.04536 0.63586 0.25671 0.0
loop_
_geom_bond_atom_site_label_1
_geom_bond_atom_site_label_2
_geom_bond_distance
_geom_bond_site_symmetry_2
_ccdc_geom_bond_type
Co0 O3 1.970 . S
Co0 N17 1.989 . S
Co0 O25 1.967 . S
Co0 O32 1.920 . S
Co1 O4 1.966 . S
Co1 N10 2.022 . S
Co1 N18 1.993 . S
Co1 O26 1.941 . S
C2 O3 1.258 . S
C2 O4 1.263 . S
O3 Co0 1.970 . S
O3 C2 1.258 . S
O4 Co1 1.966 . S
O4 C2 1.263 . S
C5 O6 1.235 . S
C5 O32 1.289 . S
O6 C5 1.235 . S
C7 C9 1.400 . S
C7 N10 1.351 . S
C7 C12 1.501 . S
C8 C9 1.387 . S
C8 N11 1.341 . S
C9 C7 1.400 . S
C9 C8 1.387 . S
N10 Co1 2.022 . S
N10 C7 1.351 . S
N10 N11 1.365 . S
N11 C8 1.341 . S
N11 N10 1.365 . S
N11 H31 0.862 . S
C12 C7 1.501 . S
C12 H13 0.961 . S
C12 H14 0.961 . S
C12 H15 0.960 . S
H13 C12 0.961 . S
H14 C12 0.961 . S
H15 C12 0.960 . S
C16 N17 1.342 . S
C16 C20 1.401 . S
C16 C21 1.499 . S
N17 Co0 1.989 . S
N17 C16 1.342 . S
N17 N18 1.388 . S
N18 Co1 1.993 . S
N18 N17 1.388 . S
N18 C19 1.346 . S
C19 N18 1.346 . S
C19 C20 1.396 . S
C19 C29 1.510 . S
C20 C16 1.401 . S
C20 C19 1.396 . S
C21 C16 1.499 . S
C21 H22 0.959 . S
C21 H23 0.960 . S
C21 H24 0.961 . S
H22 C21 0.959 . S
H23 C21 0.960 . S
H24 C21 0.961 . S
O25 Co0 1.967 . S
O25 C33 1.258 . S
O26 Co1 1.941 . S
O26 C33 1.266 . S
H27 C29 0.959 . S
H28 C29 0.961 . S
C29 C19 1.510 . S
C29 H27 0.959 . S
C29 H28 0.961 . S
C29 H30 0.960 . S
H30 C29 0.960 . S
H31 N11 0.862 . S
O32 Co0 1.920 . S
O32 C5 1.289 . S
C33 O25 1.258 . S
C33 O26 1.266 . S
Co34 O37 1.970 . S
Co34 N51 1.989 . S
Co34 O59 1.967 . S
Co34 O66 1.920 . S
Co35 O38 1.966 . S
Co35 N44 2.022 . S
Co35 N52 1.993 . S
Co35 O60 1.941 . S
C36 O37 1.258 . S
C36 O38 1.263 . S
O37 Co34 1.970 . S
O37 C36 1.258 . S
O38 Co35 1.966 . S
O38 C36 1.263 . S
C39 O40 1.235 . S
C39 O66 1.289 . S
O40 C39 1.235 . S
C41 C43 1.400 . S
C41 N44 1.351 . S
C41 C46 1.501 . S
C42 C43 1.387 . S
C42 N45 1.341 . S
C43 C41 1.400 . S
C43 C42 1.387 . S
N44 Co35 2.022 . S
N44 C41 1.351 . S
N44 N45 1.365 . S
N45 C42 1.341 . S
N45 N44 1.365 . S
N45 H65 0.862 . S
C46 C41 1.501 . S
C46 H47 0.961 . S
C46 H48 0.961 . S
C46 H49 0.960 . S
H47 C46 0.961 . S
H48 C46 0.961 . S
H49 C46 0.960 . S
C50 N51 1.342 . S
C50 C54 1.401 . S
C50 C55 1.499 . S
N51 Co34 1.989 . S
N51 C50 1.342 . S
N51 N52 1.388 . S
N52 Co35 1.993 . S
N52 N51 1.388 . S
N52 C53 1.346 . S
C53 N52 1.346 . S
C53 C54 1.396 . S
C53 C63 1.510 . S
C54 C50 1.401 . S
C54 C53 1.396 . S
C55 C50 1.499 . S
C55 H56 0.959 . S
C55 H57 0.960 . S
C55 H58 0.961 . S
H56 C55 0.959 . S
H57 C55 0.960 . S
H58 C55 0.961 . S
O59 Co34 1.967 . S
O59 C67 1.258 . S
O60 Co35 1.941 . S
O60 C67 1.266 . S
H61 C63 0.959 . S
H62 C63 0.961 . S
C63 C53 1.510 . S
C63 H61 0.959 . S
C63 H62 0.961 . S
C63 H64 0.960 . S
H64 C63 0.960 . S
H65 N45 0.862 . S
O66 Co34 1.920 . S
O66 C39 1.289 . S
C67 O59 1.258 . S
C67 O60 1.266 . S
Co68 O71 1.970 . S
Co68 N85 1.989 . S
Co68 O93 1.967 . S
Co68 O100 1.920 . S
Co69 O72 1.966 . S
Co69 N78 2.022 . S
Co69 N86 1.993 . S
Co69 O94 1.941 . S
C70 O71 1.258 . S
C70 O72 1.263 . S
O71 Co68 1.970 . S
O71 C70 1.258 . S
O72 Co69 1.966 . S
O72 C70 1.263 . S
C73 O74 1.235 . S
C73 O100 1.289 . S
O74 C73 1.235 . S
C75 C77 1.400 . S
C75 N78 1.351 . S
C75 C80 1.501 . S
C76 C77 1.387 . S
C76 N79 1.341 . S
C77 C75 1.400 . S
C77 C76 1.387 . S
N78 Co69 2.022 . S
N78 C75 1.351 . S
N78 N79 1.365 . S
N79 C76 1.341 . S
N79 N78 1.365 . S
N79 H99 0.862 . S
C80 C75 1.501 . S
C80 H81 0.961 . S
C80 H82 0.961 . S
C80 H83 0.960 . S
H81 C80 0.961 . S
H82 C80 0.961 . S
H83 C80 0.960 . S
C84 N85 1.342 . S
C84 C88 1.401 . S
C84 C89 1.499 . S
N85 Co68 1.989 . S
N85 C84 1.342 . S
N85 N86 1.388 . S
N86 Co69 1.993 . S
N86 N85 1.388 . S
N86 C87 1.346 . S
C87 N86 1.346 . S
C87 C88 1.396 . S
C87 C97 1.510 . S
C88 C84 1.401 . S
C88 C87 1.396 . S
C89 C84 1.499 . S
C89 H90 0.959 . S
C89 H91 0.960 . S
C89 H92 0.961 . S
H90 C89 0.959 . S
H91 C89 0.960 . S
H92 C89 0.961 . S
O93 Co68 1.967 . S
O93 C101 1.258 . S
O94 Co69 1.941 . S
O94 C101 1.266 . S
H95 C97 0.959 . S
H96 C97 0.961 . S
C97 C87 1.510 . S
C97 H95 0.959 . S
C97 H96 0.961 . S
C97 H98 0.960 . S
H98 C97 0.960 . S
H99 N79 0.862 . S
O100 Co68 1.920 . S
O100 C73 1.289 . S
C101 O93 1.258 . S
C101 O94 1.266 . S
Co102 O105 1.970 . S
Co102 N119 1.989 . S
Co102 O127 1.967 . S
Co102 O134 1.920 . S
Co103 O106 1.966 . S
Co103 N112 2.022 . S
Co103 N120 1.993 . S
Co103 O128 1.941 . S
C104 O105 1.258 . S
C104 O106 1.263 . S
O105 Co102 1.970 . S
O105 C104 1.258 . S
O106 Co103 1.966 . S
O106 C104 1.263 . S
C107 O108 1.235 . S
C107 O134 1.289 . S
O108 C107 1.235 . S
C109 C111 1.400 . S
C109 N112 1.351 . S
C109 C114 1.501 . S
C110 C111 1.387 . S
C110 N113 1.341 . S
C111 C109 1.400 . S
C111 C110 1.387 . S
N112 Co103 2.022 . S
N112 C109 1.351 . S
N112 N113 1.365 . S
N113 C110 1.341 . S
N113 N112 1.365 . S
N113 H133 0.862 . S
C114 C109 1.501 . S
C114 H115 0.961 . S
C114 H116 0.961 . S
C114 H117 0.960 . S
H115 C114 0.961 . S
H116 C114 0.961 . S
H117 C114 0.960 . S
C118 N119 1.342 . S
C118 C122 1.401 . S
C118 C123 1.499 . S
N119 Co102 1.989 . S
N119 C118 1.342 . S
N119 N120 1.388 . S
N120 Co103 1.993 . S
N120 N119 1.388 . S
N120 C121 1.346 . S
C121 N120 1.346 . S
C121 C122 1.396 . S
C121 C131 1.510 . S
C122 C118 1.401 . S
C122 C121 1.396 . S
C123 C118 1.499 . S
C123 H124 0.959 . S
C123 H125 0.960 . S
C123 H126 0.961 . S
H124 C123 0.959 . S
H125 C123 0.960 . S
H126 C123 0.961 . S
O127 Co102 1.967 . S
O127 C135 1.258 . S
O128 Co103 1.941 . S
O128 C135 1.266 . S
H129 C131 0.959 . S
H130 C131 0.961 . S
C131 C121 1.510 . S
C131 H129 0.959 . S
C131 H130 0.961 . S
C131 H132 0.960 . S
H132 C131 0.960 . S
H133 N113 0.862 . S
O134 Co102 1.920 . S
O134 C107 1.289 . S
C135 O127 1.258 . S
C135 O128 1.266 . S
Co136 O139 1.970 . S
Co136 N153 1.989 . S
Co136 O161 1.967 . S
Co136 O168 1.920 . S
Co137 O140 1.966 . S
Co137 N146 2.022 . S
Co137 N154 1.993 . S
Co137 O162 1.941 . S
C138 O139 1.258 . S
C138 O140 1.263 . S
O139 Co136 1.970 . S
O139 C138 1.258 . S
O140 Co137 1.966 . S
O140 C138 1.263 . S
C141 O142 1.235 . S
C141 O168 1.289 . S
O142 C141 1.235 . S
C143 C145 1.400 . S
C143 N146 1.351 . S
C143 C148 1.501 . S
C144 C145 1.387 . S
C144 N147 1.341 . S
C145 C143 1.400 . S
C145 C144 1.387 . S
N146 Co137 2.022 . S
N146 C143 1.351 . S
N146 N147 1.365 . S
N147 C144 1.341 . S
N147 N146 1.365 . S
N147 H167 0.862 . S
C148 C143 1.501 . S
C148 H149 0.961 . S
C148 H150 0.961 . S
C148 H151 0.960 . S
H149 C148 0.961 . S
H150 C148 0.961 . S
H151 C148 0.960 . S
C152 N153 1.342 . S
C152 C156 1.401 . S
C152 C157 1.499 . S
N153 Co136 1.989 . S
N153 C152 1.342 . S
N153 N154 1.388 . S
N154 Co137 1.993 . S
N154 N153 1.388 . S
N154 C155 1.346 . S
C155 N154 1.346 . S
C155 C156 1.396 . S
C155 C165 1.510 . S
C156 C152 1.401 . S
C156 C155 1.396 . S
C157 C152 1.499 . S
C157 H158 0.959 . S
C157 H159 0.960 . S
C157 H160 0.961 . S
H158 C157 0.959 . S
H159 C157 0.960 . S
H160 C157 0.961 . S
O161 Co136 1.967 . S
O161 C169 1.258 . S
O162 Co137 1.941 . S
O162 C169 1.266 . S
H163 C165 0.959 . S
H164 C165 0.961 . S
C165 C155 1.510 . S
C165 H163 0.959 . S
C165 H164 0.961 . S
C165 H166 0.960 . S
H166 C165 0.960 . S
H167 N147 0.862 . S
O168 Co136 1.920 . S
O168 C141 1.289 . S
C169 O161 1.258 . S
C169 O162 1.266 . S
Co170 O173 1.970 . S
Co170 N187 1.989 . S
Co170 O195 1.967 . S
Co170 O202 1.920 . S
Co171 O174 1.966 . S
Co171 N180 2.022 . S
Co171 N188 1.993 . S
Co171 O196 1.941 . S
C172 O173 1.258 . S
C172 O174 1.263 . S
O173 Co170 1.970 . S
O173 C172 1.258 . S
O174 Co171 1.966 . S
O174 C172 1.263 . S
C175 O176 1.235 . S
C175 O202 1.289 . S
O176 C175 1.235 . S
C177 C179 1.400 . S
C177 N180 1.351 . S
C177 C182 1.501 . S
C178 C179 1.387 . S
C178 N181 1.341 . S
C179 C177 1.400 . S
C179 C178 1.387 . S
N180 Co171 2.022 . S
N180 C177 1.351 . S
N180 N181 1.365 . S
N181 C178 1.341 . S
N181 N180 1.365 . S
N181 H201 0.862 . S
C182 C177 1.501 . S
C182 H183 0.961 . S
C182 H184 0.961 . S
C182 H185 0.960 . S
H183 C182 0.961 . S
H184 C182 0.961 . S
H185 C182 0.960 . S
C186 N187 1.342 . S
C186 C190 1.401 . S
C186 C191 1.499 . S
N187 Co170 1.989 . S
N187 C186 1.342 . S
N187 N188 1.388 . S
N188 Co171 1.993 . S
N188 N187 1.388 . S
N188 C189 1.346 . S
C189 N188 1.346 . S
C189 C190 1.396 . S
C189 C199 1.510 . S
C190 C186 1.401 . S
C190 C189 1.396 . S
C191 C186 1.499 . S
C191 H192 0.959 . S
C191 H193 0.960 . S
C191 H194 0.961 . S
H192 C191 0.959 . S
H193 C191 0.960 . S
H194 C191 0.961 . S
O195 Co170 1.967 . S
O195 C203 1.258 . S
O196 Co171 1.941 . S
O196 C203 1.266 . S
H197 C199 0.959 . S
H198 C199 0.961 . S
C199 C189 1.510 . S
C199 H197 0.959 . S
C199 H198 0.961 . S
C199 H200 0.960 . S
H200 C199 0.960 . S
H201 N181 0.862 . S
O202 Co170 1.920 . S
O202 C175 1.289 . S
C203 O195 1.258 . S
C203 O196 1.266 . S
Co204 O207 1.970 . S
Co204 N221 1.989 . S
Co204 O229 1.967 . S
Co204 O236 1.920 . S
Co205 O208 1.966 . S
Co205 N214 2.022 . S
Co205 N222 1.993 . S
Co205 O230 1.941 . S
C206 O207 1.258 . S
C206 O208 1.263 . S
O207 Co204 1.970 . S
O207 C206 1.258 . S
O208 Co205 1.966 . S
O208 C206 1.263 . S
C209 O210 1.235 . S
C209 O236 1.289 . S
O210 C209 1.235 . S
C211 C213 1.400 . S
C211 N214 1.351 . S
C211 C216 1.501 . S
C212 C213 1.387 . S
C212 N215 1.341 . S
C213 C211 1.400 . S
C213 C212 1.387 . S
N214 Co205 2.022 . S
N214 C211 1.351 . S
N214 N215 1.365 . S
N215 C212 1.341 . S
N215 N214 1.365 . S
N215 H235 0.862 . S
C216 C211 1.501 . S
C216 H217 0.961 . S
C216 H218 0.961 . S
C216 H219 0.960 . S
H217 C216 0.961 . S
H218 C216 0.961 . S
H219 C216 0.960 . S
C220 N221 1.342 . S
C220 C224 1.401 . S
C220 C225 1.499 . S
N221 Co204 1.989 . S
N221 C220 1.342 . S
N221 N222 1.388 . S
N222 Co205 1.993 . S
N222 N221 1.388 . S
N222 C223 1.346 . S
C223 N222 1.346 . S
C223 C224 1.396 . S
C223 C233 1.510 . S
C224 C220 1.401 . S
C224 C223 1.396 . S
C225 C220 1.499 . S
C225 H226 0.959 . S
C225 H227 0.960 . S
C225 H228 0.961 . S
H226 C225 0.959 . S
H227 C225 0.960 . S
H228 C225 0.961 . S
O229 Co204 1.967 . S
O229 C237 1.258 . S
O230 Co205 1.941 . S
O230 C237 1.266 . S
H231 C233 0.959 . S
H232 C233 0.961 . S
C233 C223 1.510 . S
C233 H231 0.959 . S
C233 H232 0.961 . S
C233 H234 0.960 . S
H234 C233 0.960 . S
H235 N215 0.862 . S
O236 Co204 1.920 . S
O236 C209 1.289 . S
C237 O229 1.258 . S
C237 O230 1.266 . S
Co238 O241 1.970 . S
Co238 N255 1.989 . S
Co238 O263 1.967 . S
Co238 O270 1.920 . S
Co239 O242 1.966 . S
Co239 N248 2.022 . S
Co239 N256 1.993 . S
Co239 O264 1.941 . S
C240 O241 1.258 . S
C240 O242 1.263 . S
O241 Co238 1.970 . S
O241 C240 1.258 . S
O242 Co239 1.966 . S
O242 C240 1.263 . S
C243 O244 1.235 . S
C243 O270 1.289 . S
O244 C243 1.235 . S
C245 C247 1.400 . S
C245 N248 1.351 . S
C245 C250 1.501 . S
C246 C247 1.387 . S
C246 N249 1.341 . S
C247 C245 1.400 . S
C247 C246 1.387 . S
N248 Co239 2.022 . S
N248 C245 1.351 . S
N248 N249 1.365 . S
N249 C246 1.341 . S
N249 N248 1.365 . S
N249 H269 0.862 . S
C250 C245 1.501 . S
C250 H251 0.961 . S
C250 H252 0.961 . S
C250 H253 0.960 . S
H251 C250 0.961 . S
H252 C250 0.961 . S
H253 C250 0.960 . S
C254 N255 1.342 . S
C254 C258 1.401 . S
C254 C259 1.499 . S
N255 Co238 1.989 . S
N255 C254 1.342 . S
N255 N256 1.388 . S
N256 Co239 1.993 . S
N256 N255 1.388 . S
N256 C257 1.346 . S
C257 N256 1.346 . S
C257 C258 1.396 . S
C257 C267 1.510 . S
C258 C254 1.401 . S
C258 C257 1.396 . S
C259 C254 1.499 . S
C259 H260 0.959 . S
C259 H261 0.960 . S
C259 H262 0.961 . S
H260 C259 0.959 . S
H261 C259 0.960 . S
H262 C259 0.961 . S
O263 Co238 1.967 . S
O263 C271 1.258 . S
O264 Co239 1.941 . S
O264 C271 1.266 . S
H265 C267 0.959 . S
H266 C267 0.961 . S
C267 C257 1.510 . S
C267 H265 0.959 . S
C267 H266 0.961 . S
C267 H268 0.960 . S
H268 C267 0.960 . S
H269 N249 0.862 . S
O270 Co238 1.920 . S
O270 C243 1.289 . S
C271 O263 1.258 . S
C271 O264 1.266 . S
Co272 O275 1.970 . S
Co272 N289 1.989 . S
Co272 O297 1.967 . S
Co272 O304 1.920 . S
Co273 O276 1.966 . S
Co273 N282 2.022 . S
Co273 N290 1.993 . S
Co273 O298 1.941 . S
C274 O275 1.258 . S
C274 O276 1.263 . S
O275 Co272 1.970 . S
O275 C274 1.258 . S
O276 Co273 1.966 . S
O276 C274 1.263 . S
C277 O278 1.235 . S
C277 O304 1.289 . S
O278 C277 1.235 . S
C279 C281 1.400 . S
C279 N282 1.351 . S
C279 C284 1.501 . S
C280 C281 1.387 . S
C280 N283 1.341 . S
C281 C279 1.400 . S
C281 C280 1.387 . S
N282 Co273 2.022 . S
N282 C279 1.351 . S
N282 N283 1.365 . S
N283 C280 1.341 . S
N283 N282 1.365 . S
N283 H303 0.862 . S
C284 C279 1.501 . S
C284 H285 0.961 . S
C284 H286 0.961 . S
C284 H287 0.960 . S
H285 C284 0.961 . S
H286 C284 0.961 . S
H287 C284 0.960 . S
C288 N289 1.342 . S
C288 C292 1.401 . S
C288 C293 1.499 . S
N289 Co272 1.989 . S
N289 C288 1.342 . S
N289 N290 1.388 . S
N290 Co273 1.993 . S
N290 N289 1.388 . S
N290 C291 1.346 . S
C291 N290 1.346 . S
C291 C292 1.396 . S
C291 C301 1.510 . S
C292 C288 1.401 . S
C292 C291 1.396 . S
C293 C288 1.499 . S
C293 H294 0.959 . S
C293 H295 0.960 . S
C293 H296 0.961 . S
H294 C293 0.959 . S
H295 C293 0.960 . S
H296 C293 0.961 . S
O297 Co272 1.967 . S
O297 C305 1.258 . S
O298 Co273 1.941 . S
O298 C305 1.266 . S
H299 C301 0.959 . S
H300 C301 0.961 . S
C301 C291 1.510 . S
C301 H299 0.959 . S
C301 H300 0.961 . S
C301 H302 0.960 . S
H302 C301 0.960 . S
H303 N283 0.862 . S
O304 Co272 1.920 . S
O304 C277 1.289 . S
C305 O297 1.258 . S
C305 O298 1.266 . S
Co306 O309 1.970 . S
Co306 N323 1.989 . S
Co306 O331 1.967 . S
Co306 O338 1.920 . S
Co307 O310 1.966 . S
Co307 N316 2.022 . S
Co307 N324 1.993 . S
Co307 O332 1.941 . S
C308 O309 1.258 . S
C308 O310 1.263 . S
O309 Co306 1.970 . S
O309 C308 1.258 . S
O310 Co307 1.966 . S
O310 C308 1.263 . S
C311 O312 1.235 . S
C311 O338 1.289 . S
O312 C311 1.235 . S
C313 C315 1.400 . S
C313 N316 1.351 . S
C313 C318 1.501 . S
C314 C315 1.387 . S
C314 N317 1.341 . S
C315 C313 1.400 . S
C315 C314 1.387 . S
N316 Co307 2.022 . S
N316 C313 1.351 . S
N316 N317 1.365 . S
N317 C314 1.341 . S
N317 N316 1.365 . S
N317 H337 0.862 . S
C318 C313 1.501 . S
C318 H319 0.961 . S
C318 H320 0.961 . S
C318 H321 0.960 . S
H319 C318 0.961 . S
H320 C318 0.961 . S
H321 C318 0.960 . S
C322 N323 1.342 . S
C322 C326 1.401 . S
C322 C327 1.499 . S
N323 Co306 1.989 . S
N323 C322 1.342 . S
N323 N324 1.388 . S
N324 Co307 1.993 . S
N324 N323 1.388 . S
N324 C325 1.346 . S
C325 N324 1.346 . S
C325 C326 1.396 . S
C325 C335 1.510 . S
C326 C322 1.401 . S
C326 C325 1.396 . S
C327 C322 1.499 . S
C327 H328 0.959 . S
C327 H329 0.960 . S
C327 H330 0.961 . S
H328 C327 0.959 . S
H329 C327 0.960 . S
H330 C327 0.961 . S
O331 Co306 1.967 . S
O331 C339 1.258 . S
O332 Co307 1.941 . S
O332 C339 1.266 . S
H333 C335 0.959 . S
H334 C335 0.961 . S
C335 C325 1.510 . S
C335 H333 0.959 . S
C335 H334 0.961 . S
C335 H336 0.960 . S
H336 C335 0.960 . S
H337 N317 0.862 . S
O338 Co306 1.920 . S
O338 C311 1.289 . S
C339 O331 1.258 . S
C339 O332 1.266 . S
Co340 O343 1.970 . S
Co340 N357 1.989 . S
Co340 O365 1.967 . S
Co340 O372 1.920 . S
Co341 O344 1.966 . S
Co341 N350 2.022 . S
Co341 N358 1.993 . S
Co341 O366 1.941 . S
C342 O343 1.258 . S
C342 O344 1.263 . S
O343 Co340 1.970 . S
O343 C342 1.258 . S
O344 Co341 1.966 . S
O344 C342 1.263 . S
C345 O346 1.235 . S
C345 O372 1.289 . S
O346 C345 1.235 . S
C347 C349 1.400 . S
C347 N350 1.351 . S
C347 C352 1.501 . S
C348 C349 1.387 . S
C348 N351 1.341 . S
C349 C347 1.400 . S
C349 C348 1.387 . S
N350 Co341 2.022 . S
N350 C347 1.351 . S
N350 N351 1.365 . S
N351 C348 1.341 . S
N351 N350 1.365 . S
N351 H371 0.862 . S
C352 C347 1.501 . S
C352 H353 0.961 . S
C352 H354 0.961 . S
C352 H355 0.960 . S
H353 C352 0.961 . S
H354 C352 0.961 . S
H355 C352 0.960 . S
C356 N357 1.342 . S
C356 C360 1.401 . S
C356 C361 1.499 . S
N357 Co340 1.989 . S
N357 C356 1.342 . S
N357 N358 1.388 . S
N358 Co341 1.993 . S
N358 N357 1.388 . S
N358 C359 1.346 . S
C359 N358 1.346 . S
C359 C360 1.396 . S
C359 C369 1.510 . S
C360 C356 1.401 . S
C360 C359 1.396 . S
C361 C356 1.499 . S
C361 H362 0.959 . S
C361 H363 0.960 . S
C361 H364 0.961 . S
H362 C361 0.959 . S
H363 C361 0.960 . S
H364 C361 0.961 . S
O365 Co340 1.967 . S
O365 C373 1.258 . S
O366 Co341 1.941 . S
O366 C373 1.266 . S
H367 C369 0.959 . S
H368 C369 0.961 . S
C369 C359 1.510 . S
C369 H367 0.959 . S
C369 H368 0.961 . S
C369 H370 0.960 . S
H370 C369 0.960 . S
H371 N351 0.862 . S
O372 Co340 1.920 . S
O372 C345 1.289 . S
C373 O365 1.258 . S
C373 O366 1.266 . S
Co374 O377 1.970 . S
Co374 N391 1.989 . S
Co374 O399 1.967 . S
Co374 O406 1.920 . S
Co375 O378 1.966 . S
Co375 N384 2.022 . S
Co375 N392 1.993 . S
Co375 O400 1.941 . S
C376 O377 1.258 . S
C376 O378 1.263 . S
O377 Co374 1.970 . S
O377 C376 1.258 . S
O378 Co375 1.966 . S
O378 C376 1.263 . S
C379 O380 1.235 . S
C379 O406 1.289 . S
O380 C379 1.235 . S
C381 C383 1.400 . S
C381 N384 1.351 . S
C381 C386 1.501 . S
C382 C383 1.387 . S
C382 N385 1.341 . S
C383 C381 1.400 . S
C383 C382 1.387 . S
N384 Co375 2.022 . S
N384 C381 1.351 . S
N384 N385 1.365 . S
N385 C382 1.341 . S
N385 N384 1.365 . S
N385 H405 0.862 . S
C386 C381 1.501 . S
C386 H387 0.961 . S
C386 H388 0.961 . S
C386 H389 0.960 . S
H387 C386 0.961 . S
H388 C386 0.961 . S
H389 C386 0.960 . S
C390 N391 1.342 . S
C390 C394 1.401 . S
C390 C395 1.499 . S
N391 Co374 1.989 . S
N391 C390 1.342 . S
N391 N392 1.388 . S
N392 Co375 1.993 . S
N392 N391 1.388 . S
N392 C393 1.346 . S
C393 N392 1.346 . S
C393 C394 1.396 . S
C393 C403 1.510 . S
C394 C390 1.401 . S
C394 C393 1.396 . S
C395 C390 1.499 . S
C395 H396 0.959 . S
C395 H397 0.960 . S
C395 H398 0.961 . S
H396 C395 0.959 . S
H397 C395 0.960 . S
H398 C395 0.961 . S
O399 Co374 1.967 . S
O399 C407 1.258 . S
O400 Co375 1.941 . S
O400 C407 1.266 . S
H401 C403 0.959 . S
H402 C403 0.961 . S
C403 C393 1.510 . S
C403 H401 0.959 . S
C403 H402 0.961 . S
C403 H404 0.960 . S
H404 C403 0.960 . S
H405 N385 0.862 . S
O406 Co374 1.920 . S
O406 C379 1.289 . S
C407 O399 1.258 . S
C407 O400 1.266 . S
Co408 O411 1.970 . S
Co408 N425 1.989 . S
Co408 O433 1.967 . S
Co408 O440 1.920 . S
Co409 O412 1.966 . S
Co409 N418 2.022 . S
Co409 N426 1.993 . S
Co409 O434 1.941 . S
C410 O411 1.258 . S
C410 O412 1.263 . S
O411 Co408 1.970 . S
O411 C410 1.258 . S
O412 Co409 1.966 . S
O412 C410 1.263 . S
C413 O414 1.235 . S
C413 O440 1.289 . S
O414 C413 1.235 . S
C415 C417 1.400 . S
C415 N418 1.351 . S
C415 C420 1.501 . S
C416 C417 1.387 . S
C416 N419 1.341 . S
C417 C415 1.400 . S
C417 C416 1.387 . S
N418 Co409 2.022 . S
N418 C415 1.351 . S
N418 N419 1.365 . S
N419 C416 1.341 . S
N419 N418 1.365 . S
N419 H439 0.862 . S
C420 C415 1.501 . S
C420 H421 0.961 . S
C420 H422 0.961 . S
C420 H423 0.960 . S
H421 C420 0.961 . S
H422 C420 0.961 . S
H423 C420 0.960 . S
C424 N425 1.342 . S
C424 C428 1.401 . S
C424 C429 1.499 . S
N425 Co408 1.989 . S
N425 C424 1.342 . S
N425 N426 1.388 . S
N426 Co409 1.993 . S
N426 N425 1.388 . S
N426 C427 1.346 . S
C427 N426 1.346 . S
C427 C428 1.396 . S
C427 C437 1.510 . S
C428 C424 1.401 . S
C428 C427 1.396 . S
C429 C424 1.499 . S
C429 H430 0.959 . S
C429 H431 0.960 . S
C429 H432 0.961 . S
H430 C429 0.959 . S
H431 C429 0.960 . S
H432 C429 0.961 . S
O433 Co408 1.967 . S
O433 C441 1.258 . S
O434 Co409 1.941 . S
O434 C441 1.266 . S
H435 C437 0.959 . S
H436 C437 0.961 . S
C437 C427 1.510 . S
C437 H435 0.959 . S
C437 H436 0.961 . S
C437 H438 0.960 . S
H438 C437 0.960 . S
H439 N419 0.862 . S
O440 Co408 1.920 . S
O440 C413 1.289 . S
C441 O433 1.258 . S
C441 O434 1.266 . S
Co442 O445 1.970 . S
Co442 N459 1.989 . S
Co442 O467 1.967 . S
Co442 O474 1.920 . S
Co443 O446 1.966 . S
Co443 N452 2.022 . S
Co443 N460 1.993 . S
Co443 O468 1.941 . S
C444 O445 1.258 . S
C444 O446 1.263 . S
O445 Co442 1.970 . S
O445 C444 1.258 . S
O446 Co443 1.966 . S
O446 C444 1.263 . S
C447 O448 1.235 . S
C447 O474 1.289 . S
O448 C447 1.235 . S
C449 C451 1.400 . S
C449 N452 1.351 . S
C449 C454 1.501 . S
C450 C451 1.387 . S
C450 N453 1.341 . S
C451 C449 1.400 . S
C451 C450 1.387 . S
N452 Co443 2.022 . S
N452 C449 1.351 . S
N452 N453 1.365 . S
N453 C450 1.341 . S
N453 N452 1.365 . S
N453 H473 0.862 . S
C454 C449 1.501 . S
C454 H455 0.961 . S
C454 H456 0.961 . S
C454 H457 0.960 . S
H455 C454 0.961 . S
H456 C454 0.961 . S
H457 C454 0.960 . S
C458 N459 1.342 . S
C458 C462 1.401 . S
C458 C463 1.499 . S
N459 Co442 1.989 . S
N459 C458 1.342 . S
N459 N460 1.388 . S
N460 Co443 1.993 . S
N460 N459 1.388 . S
N460 C461 1.346 . S
C461 N460 1.346 . S
C461 C462 1.396 . S
C461 C471 1.510 . S
C462 C458 1.401 . S
C462 C461 1.396 . S
C463 C458 1.499 . S
C463 H464 0.959 . S
C463 H465 0.960 . S
C463 H466 0.961 . S
H464 C463 0.959 . S
H465 C463 0.960 . S
H466 C463 0.961 . S
O467 Co442 1.967 . S
O467 C475 1.258 . S
O468 Co443 1.941 . S
O468 C475 1.266 . S
H469 C471 0.959 . S
H470 C471 0.961 . S
C471 C461 1.510 . S
C471 H469 0.959 . S
C471 H470 0.961 . S
C471 H472 0.960 . S
H472 C471 0.960 . S
H473 N453 0.862 . S
O474 Co442 1.920 . S
O474 C447 1.289 . S
C475 O467 1.258 . S
C475 O468 1.266 . S
Co476 O479 1.970 . S
Co476 N493 1.989 . S
Co476 O501 1.967 . S
Co476 O508 1.920 . S
Co477 O480 1.966 . S
Co477 N486 2.022 . S
Co477 N494 1.993 . S
Co477 O502 1.941 . S
C478 O479 1.258 . S
C478 O480 1.263 . S
O479 Co476 1.970 . S
O479 C478 1.258 . S
O480 Co477 1.966 . S
O480 C478 1.263 . S
C481 O482 1.235 . S
C481 O508 1.289 . S
O482 C481 1.235 . S
C483 C485 1.400 . S
C483 N486 1.351 . S
C483 C488 1.501 . S
C484 C485 1.387 . S
C484 N487 1.341 . S
C485 C483 1.400 . S
C485 C484 1.387 . S
N486 Co477 2.022 . S
N486 C483 1.351 . S
N486 N487 1.365 . S
N487 C484 1.341 . S
N487 N486 1.365 . S
N487 H507 0.862 . S
C488 C483 1.501 . S
C488 H489 0.961 . S
C488 H490 0.961 . S
C488 H491 0.960 . S
H489 C488 0.961 . S
H490 C488 0.961 . S
H491 C488 0.960 . S
C492 N493 1.342 . S
C492 C496 1.401 . S
C492 C497 1.499 . S
N493 Co476 1.989 . S
N493 C492 1.342 . S
N493 N494 1.388 . S
N494 Co477 1.993 . S
N494 N493 1.388 . S
N494 C495 1.346 . S
C495 N494 1.346 . S
C495 C496 1.396 . S
C495 C505 1.510 . S
C496 C492 1.401 . S
C496 C495 1.396 . S
C497 C492 1.499 . S
C497 H498 0.959 . S
C497 H499 0.960 . S
C497 H500 0.961 . S
H498 C497 0.959 . S
H499 C497 0.960 . S
H500 C497 0.961 . S
O501 Co476 1.967 . S
O501 C509 1.258 . S
O502 Co477 1.941 . S
O502 C509 1.266 . S
H503 C505 0.959 . S
H504 C505 0.961 . S
C505 C495 1.510 . S
C505 H503 0.959 . S
C505 H504 0.961 . S
C505 H506 0.960 . S
H506 C505 0.960 . S
H507 N487 0.862 . S
O508 Co476 1.920 . S
O508 C481 1.289 . S
C509 O501 1.258 . S
C509 O502 1.266 . S
Co510 O513 1.970 . S
Co510 N527 1.989 . S
Co510 O535 1.967 . S
Co510 O542 1.920 . S
Co511 O514 1.966 . S
Co511 N520 2.022 . S
Co511 N528 1.993 . S
Co511 O536 1.941 . S
C512 O513 1.258 . S
C512 O514 1.263 . S
O513 Co510 1.970 . S
O513 C512 1.258 . S
O514 Co511 1.966 . S
O514 C512 1.263 . S
C515 O516 1.235 . S
C515 O542 1.289 . S
O516 C515 1.235 . S
C517 C519 1.400 . S
C517 N520 1.351 . S
C517 C522 1.501 . S
C518 C519 1.387 . S
C518 N521 1.341 . S
C519 C517 1.400 . S
C519 C518 1.387 . S
N520 Co511 2.022 . S
N520 C517 1.351 . S
N520 N521 1.365 . S
N521 C518 1.341 . S
N521 N520 1.365 . S
N521 H541 0.862 . S
C522 C517 1.501 . S
C522 H523 0.961 . S
C522 H524 0.961 . S
C522 H525 0.960 . S
H523 C522 0.961 . S
H524 C522 0.961 . S
H525 C522 0.960 . S
C526 N527 1.342 . S
C526 C530 1.401 . S
C526 C531 1.499 . S
N527 Co510 1.989 . S
N527 C526 1.342 . S
N527 N528 1.388 . S
N528 Co511 1.993 . S
N528 N527 1.388 . S
N528 C529 1.346 . S
C529 N528 1.346 . S
C529 C530 1.396 . S
C529 C539 1.510 . S
C530 C526 1.401 . S
C530 C529 1.396 . S
C531 C526 1.499 . S
C531 H532 0.959 . S
C531 H533 0.960 . S
C531 H534 0.961 . S
H532 C531 0.959 . S
H533 C531 0.960 . S
H534 C531 0.961 . S
O535 Co510 1.967 . S
O535 C543 1.258 . S
O536 Co511 1.941 . S
O536 C543 1.266 . S
H537 C539 0.959 . S
H538 C539 0.961 . S
C539 C529 1.510 . S
C539 H537 0.959 . S
C539 H538 0.961 . S
C539 H540 0.960 . S
H540 C539 0.960 . S
H541 N521 0.862 . S
O542 Co510 1.920 . S
O542 C515 1.289 . S
C543 O535 1.258 . S
C543 O536 1.266 . S
H544 C556 0.930 . S
H545 C558 0.930 . S
H546 C559 0.930 . S
H547 C563 0.959 . S
H548 C563 0.959 . S
H549 C563 0.961 . S
H550 C564 0.960 . S
H551 C564 0.961 . S
H552 C564 0.959 . S
H553 C567 0.929 . S
H554 C568 0.931 . S
H555 C570 0.930 . S
C556 H544 0.930 . S
C556 C557 1.399 . S
C556 C561 1.399 . S
C557 C556 1.399 . S
C557 C558 1.376 . S
C558 H545 0.930 . S
C558 C557 1.376 . S
C558 C559 1.388 . S
C559 H546 0.930 . S
C559 C558 1.388 . S
C559 C560 1.390 . S
C560 C559 1.390 . S
C560 C561 1.394 . S
C560 C566 1.465 1_655 S
C561 C556 1.399 . S
C561 C560 1.394 . S
C561 C562 1.516 . S
C562 C561 1.516 . S
C562 C563 1.502 . S
C562 C564 1.561 . S
C562 C565 1.526 1_655 S
C563 H547 0.959 . S
C563 H548 0.959 . S
C563 H549 0.961 . S
C563 C562 1.502 . S
C564 H550 0.960 . S
C564 H551 0.961 . S
C564 H552 0.959 . S
C564 C562 1.561 . S
C565 C562 1.526 1_455 S
C565 C566 1.396 . S
C565 C570 1.390 . S
C566 C560 1.465 1_455 S
C566 C565 1.396 . S
C566 C567 1.399 . S
C567 H553 0.929 . S
C567 C566 1.399 . S
C567 C568 1.385 . S
C568 H554 0.931 . S
C568 C567 1.385 . S
C568 C569 1.389 . S
C569 C568 1.389 . S
C569 C570 1.387 . S
C570 H555 0.930 . S
C570 C565 1.390 . S
C570 C569 1.387 . S
H571 C583 0.930 . S
H572 C585 0.930 . S
H573 C586 0.930 . S
H574 C590 0.959 . S
H575 C590 0.959 . S
H576 C590 0.961 . S
H577 C591 0.960 . S
H578 C591 0.961 1_565 S
H579 C591 0.959 . S
H580 C594 0.929 . S
H581 C595 0.931 . S
H582 C597 0.930 . S
C583 H571 0.930 . S
C583 C584 1.399 . S
C583 C588 1.399 . S
C584 C583 1.399 . S
C584 C585 1.376 . S
C585 H572 0.930 . S
C585 C584 1.376 . S
C585 C586 1.388 . S
C586 H573 0.930 . S
C586 C585 1.388 . S
C586 C587 1.390 . S
C587 C586 1.390 . S
C587 C588 1.394 . S
C587 C593 1.465 1_545 S
C588 C583 1.399 . S
C588 C587 1.394 . S
C588 C589 1.516 1_545 S
C589 C588 1.516 1_565 S
C589 C590 1.502 . S
C589 C591 1.561 1_565 S
C589 C592 1.526 . S
C590 H574 0.959 . S
C590 H575 0.959 . S
C590 H576 0.961 . S
C590 C589 1.502 . S
C591 H577 0.960 . S
C591 H578 0.961 1_545 S
C591 H579 0.959 . S
C591 C589 1.561 1_545 S
C592 C589 1.526 . S
C592 C593 1.396 . S
C592 C597 1.390 . S
C593 C587 1.465 1_565 S
C593 C592 1.396 . S
C593 C594 1.399 . S
C594 H580 0.929 . S
C594 C593 1.399 . S
C594 C595 1.385 . S
C595 H581 0.931 . S
C595 C594 1.385 . S
C595 C596 1.389 . S
C596 C595 1.389 . S
C596 C597 1.387 . S
C597 H582 0.930 . S
C597 C592 1.390 . S
C597 C596 1.387 . S
H598 C610 0.930 . S
H599 C612 0.930 . S
H600 C613 0.930 . S
H601 C617 0.959 . S
H602 C617 0.959 . S
H603 C617 0.961 . S
H604 C618 0.960 1_655 S
H605 C618 0.961 . S
H606 C618 0.959 . S
H607 C621 0.929 . S
H608 C622 0.931 . S
H609 C624 0.930 . S
C610 H598 0.930 . S
C610 C611 1.399 . S
C610 C615 1.399 . S
C611 C610 1.399 . S
C611 C612 1.376 . S
C612 H599 0.930 . S
C612 C611 1.376 . S
C612 C613 1.388 . S
C613 H600 0.930 . S
C613 C612 1.388 . S
C613 C614 1.390 . S
C614 C613 1.390 . S
C614 C615 1.394 . S
C614 C620 1.465 1_655 S
C615 C610 1.399 . S
C615 C614 1.394 . S
C615 C616 1.516 . S
C616 C615 1.516 . S
C616 C617 1.502 . S
C616 C618 1.561 1_655 S
C616 C619 1.526 1_655 S
C617 H601 0.959 . S
C617 H602 0.959 . S
C617 H603 0.961 . S
C617 C616 1.502 . S
C618 H604 0.960 1_455 S
C618 H605 0.961 . S
C618 H606 0.959 . S
C618 C616 1.561 1_455 S
C619 C616 1.526 1_455 S
C619 C620 1.396 . S
C619 C624 1.390 . S
C620 C614 1.465 1_455 S
C620 C619 1.396 . S
C620 C621 1.399 . S
C621 H607 0.929 . S
C621 C620 1.399 . S
C621 C622 1.385 . S
C622 H608 0.931 . S
C622 C621 1.385 . S
C622 C623 1.389 . S
C623 C622 1.389 . S
C623 C624 1.387 . S
C624 H609 0.930 . S
C624 C619 1.390 . S
C624 C623 1.387 . S
H625 C637 0.930 . S
H626 C639 0.930 . S
H627 C640 0.930 . S
H628 C644 0.959 . S
H629 C644 0.959 . S
H630 C644 0.961 . S
H631 C645 0.960 . S
H632 C645 0.961 . S
H633 C645 0.982 . S
H634 C648 0.929 . S
H635 C649 0.931 . S
H636 C651 0.930 . S
C637 H625 0.930 . S
C637 C638 1.399 . S
C637 C642 1.399 . S
C638 C637 1.399 . S
C638 C639 1.376 . S
C639 H626 0.930 . S
C639 C638 1.376 . S
C639 C640 1.388 . S
C640 H627 0.930 . S
C640 C639 1.388 . S
C640 C641 1.390 . S
C641 C640 1.390 . S
C641 C642 1.394 . S
C641 C647 1.465 1_565 S
C642 C637 1.399 . S
C642 C641 1.394 . S
C642 C643 1.516 . S
C643 C642 1.516 . S
C643 C644 1.502 . S
C643 C645 1.561 . S
C643 C646 1.526 1_565 S
C644 H628 0.959 . S
C644 H629 0.959 . S
C644 H630 0.961 . S
C644 C643 1.502 . S
C645 H631 0.960 . S
C645 H632 0.961 . S
C645 H633 0.982 . S
C645 C643 1.561 . S
C646 C643 1.526 1_545 S
C646 C647 1.396 . S
C646 C651 1.390 . S
C647 C641 1.465 1_545 S
C647 C646 1.396 . S
C647 C648 1.399 . S
C648 H634 0.929 . S
C648 C647 1.399 . S
C648 C649 1.385 . S
C649 H635 0.931 . S
C649 C648 1.385 . S
C649 C650 1.389 . S
C650 C649 1.389 . S
C650 C651 1.387 . S
C651 H636 0.930 . S
C651 C646 1.390 . S
C651 C650 1.387 . S
H652 C664 0.951 . S
H653 C666 0.930 . S
H654 C667 0.930 . S
H655 C671 0.959 . S
H656 C671 0.959 . S
H657 C671 0.961 . S
H658 C672 0.960 . S
H659 C672 0.961 . S
H660 C672 0.959 1_655 S
H661 C675 0.929 . S
H662 C676 0.931 . S
H663 C678 0.930 . S
C664 H652 0.951 . S
C664 C665 1.399 . S
C664 C669 1.399 . S
C665 C664 1.399 . S
C665 C666 1.376 . S
C666 H653 0.930 . S
C666 C665 1.376 . S
C666 C667 1.388 . S
C667 H654 0.930 . S
C667 C666 1.388 . S
C667 C668 1.390 . S
C668 C667 1.390 . S
C668 C669 1.394 . S
C668 C674 1.465 . S
C669 C664 1.399 . S
C669 C668 1.394 . S
C669 C670 1.516 1_655 S
C670 C669 1.516 1_455 S
C670 C671 1.502 . S
C670 C672 1.561 . S
C670 C673 1.526 . S
C671 H655 0.959 . S
C671 H656 0.959 . S
C671 H657 0.961 . S
C671 C670 1.502 . S
C672 H658 0.960 . S
C672 H659 0.961 . S
C672 H660 0.959 1_455 S
C672 C670 1.561 . S
C673 C670 1.526 . S
C673 C674 1.396 1_455 S
C673 C678 1.390 . S
C674 C668 1.465 . S
C674 C673 1.396 1_655 S
C674 C675 1.399 . S
C675 H661 0.929 . S
C675 C674 1.399 . S
C675 C676 1.385 1_655 S
C676 H662 0.931 . S
C676 C675 1.385 1_455 S
C676 C677 1.389 . S
C677 C676 1.389 . S
C677 C678 1.387 . S
C678 H663 0.930 . S
C678 C673 1.390 . S
C678 C677 1.387 . S
H679 C691 0.930 . S
H680 C693 0.930 . S
H681 C694 0.930 . S
H682 C698 0.959 . S
H683 C698 0.959 . S
H684 C698 0.961 . S
H685 C699 0.960 . S
H686 C699 0.961 . S
H687 C699 0.959 1_545 S
H688 C702 0.929 . S
H689 C703 0.931 . S
H690 C705 0.930 . S
C691 H679 0.930 . S
C691 C692 1.399 . S
C691 C696 1.399 . S
C692 C691 1.399 . S
C692 C693 1.376 . S
C693 H680 0.930 . S
C693 C692 1.376 . S
C693 C694 1.388 1_565 S
C694 H681 0.930 . S
C694 C693 1.388 1_545 S
C694 C695 1.390 . S
C695 C694 1.390 . S
C695 C696 1.394 1_545 S
C695 C701 1.465 . S
C696 C691 1.399 . S
C696 C695 1.394 1_565 S
C696 C697 1.516 . S
C697 C696 1.516 . S
C697 C698 1.502 . S
C697 C699 1.561 . S
C697 C700 1.526 1_565 S
C698 H682 0.959 . S
C698 H683 0.959 . S
C698 H684 0.961 . S
C698 C697 1.502 . S
C699 H685 0.960 . S
C699 H686 0.961 . S
C699 H687 0.959 1_565 S
C699 C697 1.561 . S
C700 C697 1.526 1_545 S
C700 C701 1.396 . S
C700 C705 1.390 . S
C701 C695 1.465 . S
C701 C700 1.396 . S
C701 C702 1.399 . S
C702 H688 0.929 . S
C702 C701 1.399 . S
C702 C703 1.385 . S
C703 H689 0.931 . S
C703 C702 1.385 . S
C703 C704 1.389 . S
C704 C703 1.389 . S
C704 C705 1.387 . S
C705 H690 0.930 . S
C705 C700 1.390 . S
C705 C704 1.387 . S
H706 C718 0.930 . S
H707 C720 0.930 . S
H708 C721 0.930 . S
H709 C725 0.959 . S
H710 C725 0.959 . S
H711 C725 0.961 . S
H712 C726 0.960 . S
H713 C726 0.961 . S
H714 C726 0.959 . S
H715 C729 0.929 . S
H716 C730 0.931 . S
H717 C732 0.930 . S
C718 H706 0.930 . S
C718 C719 1.399 . S
C718 C723 1.399 . S
C719 C718 1.399 . S
C719 C720 1.376 . S
C720 H707 0.930 . S
C720 C719 1.376 . S
C720 C721 1.388 . S
C721 H708 0.930 . S
C721 C720 1.388 . S
C721 C722 1.390 . S
C722 C721 1.390 . S
C722 C723 1.394 . S
C722 C728 1.465 1_655 S
C723 C718 1.399 . S
C723 C722 1.394 . S
C723 C724 1.508 1_655 S
C724 C723 1.508 1_455 S
C724 C725 1.517 . S
C724 C726 1.546 1_455 S
C724 C727 1.533 . S
C725 H709 0.959 . S
C725 H710 0.959 . S
C725 H711 0.961 . S
C725 C724 1.517 . S
C726 H712 0.960 . S
C726 H713 0.961 . S
C726 H714 0.959 . S
C726 C724 1.546 1_655 S
C727 C724 1.533 . S
C727 C728 1.396 . S
C727 C732 1.390 . S
C728 C722 1.465 1_455 S
C728 C727 1.396 . S
C728 C729 1.399 . S
C729 H715 0.929 . S
C729 C728 1.399 . S
C729 C730 1.385 . S
C730 H716 0.931 . S
C730 C729 1.385 . S
C730 C731 1.389 . S
C731 C730 1.389 . S
C731 C732 1.387 . S
C732 H717 0.930 . S
C732 C727 1.390 . S
C732 C731 1.387 . S
H733 C745 0.930 . S
H734 C747 0.930 . S
H735 C748 0.930 1_565 S
H736 C752 0.959 . S
H737 C752 0.959 . S
H738 C752 0.961 . S
H739 C753 0.960 . S
H740 C753 0.961 . S
H741 C753 0.959 . S
H742 C756 0.929 . S
H743 C757 0.931 . S
H744 C759 0.930 . S
C745 H733 0.930 . S
C745 C746 1.399 . S
C745 C750 1.399 . S
C746 C745 1.399 . S
C746 C747 1.376 . S
C747 H734 0.930 . S
C747 C746 1.376 . S
C747 C748 1.388 . S
C748 H735 0.930 1_545 S
C748 C747 1.388 . S
C748 C749 1.390 . S
C749 C748 1.390 . S
C749 C750 1.394 . S
C749 C755 1.465 1_545 S
C750 C745 1.399 . S
C750 C749 1.394 . S
C750 C751 1.516 . S
C751 C750 1.516 . S
C751 C752 1.502 . S
C751 C753 1.561 1_545 S
C751 C754 1.526 1_545 S
C752 H736 0.959 . S
C752 H737 0.959 . S
C752 H738 0.961 . S
C752 C751 1.502 . S
C753 H739 0.960 . S
C753 H740 0.961 . S
C753 H741 0.959 . S
C753 C751 1.561 1_565 S
C754 C751 1.526 1_565 S
C754 C755 1.396 . S
C754 C759 1.390 . S
C755 C749 1.465 1_565 S
C755 C754 1.396 . S
C755 C756 1.399 . S
C756 H742 0.929 . S
C756 C755 1.399 . S
C756 C757 1.385 . S
C757 H743 0.931 . S
C757 C756 1.385 . S
C757 C758 1.389 . S
C758 C757 1.389 . S
C758 C759 1.387 . S
C759 H744 0.930 . S
C759 C754 1.390 . S
C759 C758 1.387 . S
H760 C772 0.930 . S
H761 C774 0.930 . S
H762 C775 0.930 . S
H763 C779 0.959 . S
H764 C779 0.959 . S
H765 C779 0.961 . S
H766 C780 0.960 . S
H767 C780 0.961 . S
H768 C780 0.959 . S
H769 C783 0.929 . S
H770 C784 0.931 . S
H771 C786 0.930 . S
C772 H760 0.930 . S
C772 C773 1.399 . S
C772 C777 1.399 . S
C773 C772 1.399 . S
C773 C774 1.376 . S
C774 H761 0.930 . S
C774 C773 1.376 . S
C774 C775 1.388 . S
C775 H762 0.930 . S
C775 C774 1.388 . S
C775 C776 1.390 . S
C776 C775 1.390 . S
C776 C777 1.394 . S
C776 C782 1.465 . S
C777 C772 1.399 . S
C777 C776 1.394 . S
C777 C778 1.516 . S
C778 C777 1.516 . S
C778 C779 1.502 . S
C778 C780 1.561 . S
C778 C781 1.526 . S
C779 H763 0.959 . S
C779 H764 0.959 . S
C779 H765 0.961 . S
C779 C778 1.502 . S
C780 H766 0.960 . S
C780 H767 0.961 . S
C780 H768 0.959 . S
C780 C778 1.561 . S
C781 C778 1.526 . S
C781 C782 1.396 . S
C781 C786 1.390 . S
C782 C776 1.465 . S
C782 C781 1.396 . S
C782 C783 1.399 . S
C783 H769 0.929 . S
C783 C782 1.399 . S
C783 C784 1.385 . S
C784 H770 0.931 . S
C784 C783 1.385 . S
C784 C785 1.389 . S
C785 C784 1.389 . S
C785 C786 1.387 . S
C786 H771 0.930 . S
C786 C781 1.390 . S
C786 C785 1.387 . S
H787 C799 0.930 . S
H788 C801 0.930 . S
H789 C802 0.930 . S
H790 C806 0.959 . S
H791 C806 0.959 . S
H792 C806 0.961 . S
H793 C807 0.960 . S
H794 C807 0.961 . S
H795 C807 0.959 . S
H796 C810 0.929 . S
H797 C811 0.931 . S
H798 C813 0.930 . S
C799 H787 0.930 . S
C799 C800 1.399 . S
C799 C804 1.399 . S
C800 C799 1.399 . S
C800 C801 1.376 . S
C801 H788 0.930 . S
C801 C800 1.376 . S
C801 C802 1.388 . S
C802 H789 0.930 . S
C802 C801 1.388 . S
C802 C803 1.390 . S
C803 C802 1.390 . S
C803 C804 1.394 . S
C803 C809 1.465 . S
C804 C799 1.399 . S
C804 C803 1.394 . S
C804 C805 1.516 . S
C805 C804 1.516 . S
C805 C806 1.502 . S
C805 C807 1.561 . S
C805 C808 1.526 . S
C806 H790 0.959 . S
C806 H791 0.959 . S
C806 H792 0.961 . S
C806 C805 1.502 . S
C807 H793 0.960 . S
C807 H794 0.961 . S
C807 H795 0.959 . S
C807 C805 1.561 . S
C808 C805 1.526 . S
C808 C809 1.396 . S
C808 C813 1.390 . S
C809 C803 1.465 . S
C809 C808 1.396 . S
C809 C810 1.399 . S
C810 H796 0.929 . S
C810 C809 1.399 . S
C810 C811 1.385 . S
C811 H797 0.931 . S
C811 C810 1.385 . S
C811 C812 1.389 . S
C812 C811 1.389 . S
C812 C813 1.387 . S
C813 H798 0.930 . S
C813 C808 1.390 . S
C813 C812 1.387 . S
H814 C826 0.930 . S
H815 C828 0.930 . S
H816 C829 0.930 . S
H817 C833 0.959 . S
H818 C833 0.959 . S
H819 C833 0.961 . S
H820 C834 0.960 . S
H821 C834 0.961 . S
H822 C834 0.959 . S
H823 C837 0.929 . S
H824 C838 0.931 . S
H825 C840 0.930 . S
C826 H814 0.930 . S
C826 C827 1.399 . S
C826 C831 1.399 . S
C827 C826 1.399 . S
C827 C828 1.376 . S
C828 H815 0.930 . S
C828 C827 1.376 . S
C828 C829 1.388 . S
C829 H816 0.930 . S
C829 C828 1.388 . S
C829 C830 1.390 . S
C830 C829 1.390 . S
C830 C831 1.394 . S
C830 C836 1.465 . S
C831 C826 1.399 . S
C831 C830 1.394 . S
C831 C832 1.516 . S
C832 C831 1.516 . S
C832 C833 1.502 . S
C832 C834 1.561 . S
C832 C835 1.526 . S
C833 H817 0.959 . S
C833 H818 0.959 . S
C833 H819 0.961 . S
C833 C832 1.502 . S
C834 H820 0.960 . S
C834 H821 0.961 . S
C834 H822 0.959 . S
C834 C832 1.561 . S
C835 C832 1.526 . S
C835 C836 1.396 . S
C835 C840 1.390 . S
C836 C830 1.465 . S
C836 C835 1.396 . S
C836 C837 1.399 . S
C837 H823 0.929 . S
C837 C836 1.399 . S
C837 C838 1.385 . S
C838 H824 0.931 . S
C838 C837 1.385 . S
C838 C839 1.389 . S
C839 C838 1.389 . S
C839 C840 1.387 . S
C840 H825 0.930 . S
C840 C835 1.390 . S
C840 C839 1.387 . S
H841 C853 0.930 . S
H842 C855 0.930 . S
H843 C856 0.930 . S
H844 C860 0.959 . S
H845 C860 0.959 . S
H846 C860 0.961 . S
H847 C861 0.960 . S
H848 C861 0.961 . S
H849 C861 0.959 . S
H850 C864 0.929 . S
H851 C865 0.931 . S
H852 C867 0.930 . S
C853 H841 0.930 . S
C853 C854 1.399 . S
C853 C858 1.399 . S
C854 C853 1.399 . S
C854 C855 1.376 . S
C855 H842 0.930 . S
C855 C854 1.376 . S
C855 C856 1.388 . S
C856 H843 0.930 . S
C856 C855 1.388 . S
C856 C857 1.390 . S
C857 C856 1.390 . S
C857 C858 1.394 . S
C857 C863 1.465 . S
C858 C853 1.399 . S
C858 C857 1.394 . S
C858 C859 1.516 . S
C859 C858 1.516 . S
C859 C860 1.502 . S
C859 C861 1.561 . S
C859 C862 1.526 . S
C860 H844 0.959 . S
C860 H845 0.959 . S
C860 H846 0.961 . S
C860 C859 1.502 . S
C861 H847 0.960 . S
C861 H848 0.961 . S
C861 H849 0.959 . S
C861 C859 1.561 . S
C862 C859 1.526 . S
C862 C863 1.396 . S
C862 C867 1.390 . S
C863 C857 1.465 . S
C863 C862 1.396 . S
C863 C864 1.399 . S
C864 H850 0.929 . S
C864 C863 1.399 . S
C864 C865 1.385 . S
C865 H851 0.931 . S
C865 C864 1.385 . S
C865 C866 1.389 . S
C866 C865 1.389 . S
C866 C867 1.387 . S
C867 H852 0.930 . S
C867 C862 1.390 . S
C867 C866 1.387 . S
H868 C880 0.930 . S
H869 C882 0.930 . S
H870 C883 0.930 . S
H871 C887 0.959 . S
H872 C887 0.959 . S
H873 C887 0.961 . S
H874 C888 0.960 . S
H875 C888 0.961 . S
H876 C888 0.959 . S
H877 C891 0.929 . S
H878 C892 0.931 . S
H879 C894 0.930 . S
C880 H868 0.930 . S
C880 C881 1.399 . S
C880 C885 1.399 . S
C881 C880 1.399 . S
C881 C882 1.376 . S
C882 H869 0.930 . S
C882 C881 1.376 . S
C882 C883 1.388 . S
C883 H870 0.930 . S
C883 C882 1.388 . S
C883 C884 1.390 . S
C884 C883 1.390 . S
C884 C885 1.394 . S
C884 C890 1.465 . S
C885 C880 1.399 . S
C885 C884 1.394 . S
C885 C886 1.516 . S
C886 C885 1.516 . S
C886 C887 1.502 . S
C886 C888 1.561 . S
C886 C889 1.526 . S
C887 H871 0.959 . S
C887 H872 0.959 . S
C887 H873 0.961 . S
C887 C886 1.502 . S
C888 H874 0.960 . S
C888 H875 0.961 . S
C888 H876 0.959 . S
C888 C886 1.561 . S
C889 C886 1.526 . S
C889 C890 1.396 . S
C889 C894 1.390 . S
C890 C884 1.465 . S
C890 C889 1.396 . S
C890 C891 1.399 . S
C891 H877 0.929 . S
C891 C890 1.399 . S
C891 C892 1.385 . S
C892 H878 0.931 . S
C892 C891 1.385 . S
C892 C893 1.389 . S
C893 C892 1.389 . S
C893 C894 1.387 . S
C894 H879 0.930 . S
C894 C889 1.390 . S
C894 C893 1.387 . S
H895 C907 0.930 . S
H896 C909 0.930 . S
H897 C910 0.930 . S
H898 C914 0.959 . S
H899 C914 0.959 . S
H900 C914 0.961 . S
H901 C915 0.960 . S
H902 C915 0.961 . S
H903 C915 0.959 . S
H904 C918 0.929 . S
H905 C919 0.931 . S
H906 C921 0.930 . S
C907 H895 0.930 . S
C907 C908 1.399 . S
C907 C912 1.399 . S
C908 C907 1.399 . S
C908 C909 1.376 . S
C909 H896 0.930 . S
C909 C908 1.376 . S
C909 C910 1.388 . S
C910 H897 0.930 . S
C910 C909 1.388 . S
C910 C911 1.390 . S
C911 C910 1.390 . S
C911 C912 1.394 . S
C911 C917 1.465 . S
C912 C907 1.399 . S
C912 C911 1.394 . S
C912 C913 1.516 . S
C913 C912 1.516 . S
C913 C914 1.502 . S
C913 C915 1.561 . S
C913 C916 1.526 . S
C914 H898 0.959 . S
C914 H899 0.959 . S
C914 H900 0.961 . S
C914 C913 1.502 . S
C915 H901 0.960 . S
C915 H902 0.961 . S
C915 H903 0.959 . S
C915 C913 1.561 . S
C916 C913 1.526 . S
C916 C917 1.396 . S
C916 C921 1.390 . S
C917 C911 1.465 . S
C917 C916 1.396 . S
C917 C918 1.399 . S
C918 H904 0.929 . S
C918 C917 1.399 . S
C918 C919 1.385 . S
C919 H905 0.931 . S
C919 C918 1.385 . S
C919 C920 1.389 . S
C920 C919 1.389 . S
C920 C921 1.387 . S
C921 H906 0.930 . S
C921 C916 1.390 . S
C921 C920 1.387 . S
H922 C934 0.930 . S
H923 C936 0.930 . S
H924 C937 0.930 . S
H925 C941 0.959 . S
H926 C941 0.959 . S
H927 C941 0.961 . S
H928 C942 0.960 . S
H929 C942 0.961 . S
H930 C942 0.959 . S
H931 C945 0.929 . S
H932 C946 0.931 . S
H933 C948 0.930 . S
C934 H922 0.930 . S
C934 C935 1.399 . S
C934 C939 1.399 . S
C935 C934 1.399 . S
C935 C936 1.376 . S
C936 H923 0.930 . S
C936 C935 1.376 . S
C936 C937 1.388 . S
C937 H924 0.930 . S
C937 C936 1.388 . S
C937 C938 1.390 . S
C938 C937 1.390 . S
C938 C939 1.394 . S
C938 C944 1.465 . S
C939 C934 1.399 . S
C939 C938 1.394 . S
C939 C940 1.516 . S
C940 C939 1.516 . S
C940 C941 1.502 . S
C940 C942 1.561 . S
C940 C943 1.526 . S
C941 H925 0.959 . S
C941 H926 0.959 . S
C941 H927 0.961 . S
C941 C940 1.502 . S
C942 H928 0.960 . S
C942 H929 0.961 . S
C942 H930 0.959 . S
C942 C940 1.561 . S
C943 C940 1.526 . S
C943 C944 1.396 . S
C943 C948 1.390 . S
C944 C938 1.465 . S
C944 C943 1.396 . S
C944 C945 1.399 . S
C945 H931 0.929 . S
C945 C944 1.399 . S
C945 C946 1.385 . S
C946 H932 0.931 . S
C946 C945 1.385 . S
C946 C947 1.389 . S
C947 C946 1.389 . S
C947 C948 1.387 . S
C948 H933 0.930 . S
C948 C943 1.390 . S
C948 C947 1.387 . S
H949 C961 0.930 . S
H950 C963 0.930 . S
H951 C964 0.930 . S
H952 C968 0.959 . S
H953 C968 0.959 . S
H954 C968 0.961 . S
H955 C969 0.960 . S
H956 C969 0.961 . S
H957 C969 0.959 . S
H958 C972 0.929 . S
H959 C973 0.931 . S
H960 C975 0.930 . S
C961 H949 0.930 . S
C961 C962 1.399 . S
C961 C966 1.399 . S
C962 C961 1.399 . S
C962 C963 1.376 . S
C963 H950 0.930 . S
C963 C962 1.376 . S
C963 C964 1.388 . S
C964 H951 0.930 . S
C964 C963 1.388 . S
C964 C965 1.390 . S
C965 C964 1.390 . S
C965 C966 1.394 . S
C965 C971 1.465 . S
C966 C961 1.399 . S
C966 C965 1.394 . S
C966 C967 1.516 . S
C967 C966 1.516 . S
C967 C968 1.502 . S
C967 C969 1.561 . S
C967 C970 1.526 . S
C968 H952 0.959 . S
C968 H953 0.959 . S
C968 H954 0.961 . S
C968 C967 1.502 . S
C969 H955 0.960 . S
C969 H956 0.961 . S
C969 H957 0.959 . S
C969 C967 1.561 . S
C970 C967 1.526 . S
C970 C971 1.396 . S
C970 C975 1.390 . S
C971 C965 1.465 . S
C971 C970 1.396 . S
C971 C972 1.399 . S
C972 H958 0.929 . S
C972 C971 1.399 . S
C972 C973 1.385 . S
C973 H959 0.931 . S
C973 C972 1.385 . S
C973 C974 1.389 . S
C974 C973 1.389 . S
C974 C975 1.387 . S
C975 H960 0.930 . S
C975 C970 1.390 . S
C975 C974 1.387 . S
H976 C988 0.930 . S
H977 C990 0.930 . S
H978 C991 0.930 . S
H979 C995 0.960 . S
H980 C995 0.974 . S
H981 C995 0.945 1_554 S
H982 C996 0.960 1_554 S
H983 C996 0.961 . S
H984 C996 0.959 . S
H985 C999 0.929 . S
H986 C1000 0.931 . S
H987 C1002 0.930 . S
C988 H976 0.930 . S
C988 C989 1.399 . S
C988 C993 1.399 . S
C989 C988 1.399 . S
C989 C990 1.376 . S
C990 H977 0.930 . S
C990 C989 1.376 . S
C990 C991 1.388 . S
C991 H978 0.930 . S
C991 C990 1.388 . S
C991 C992 1.390 . S
C992 C991 1.390 . S
C992 C993 1.394 . S
C992 C998 1.465 1_554 S
C993 C988 1.399 . S
C993 C992 1.394 . S
C993 C994 1.490 1_554 S
C994 C993 1.490 1_556 S
C994 C995 1.502 . S
C994 C996 1.564 . S
C994 C997 1.552 . S
C995 H979 0.960 . S
C995 H980 0.974 . S
C995 H981 0.945 1_556 S
C995 C994 1.502 . S
C996 H982 0.960 1_556 S
C996 H983 0.961 . S
C996 H984 0.959 . S
C996 C994 1.564 . S
C997 C994 1.552 . S
C997 C998 1.396 . S
C997 C1002 1.390 . S
C998 C992 1.465 1_556 S
C998 C997 1.396 . S
C998 C999 1.399 . S
C999 H985 0.929 . S
C999 C998 1.399 . S
C999 C1000 1.385 . S
C1000 H986 0.931 . S
C1000 C999 1.385 . S
C1000 C1001 1.389 . S
C1001 C1000 1.389 . S
C1001 C1002 1.387 . S
C1002 H987 0.930 . S
C1002 C997 1.390 . S
C1002 C1001 1.387 . S
H1003 C1015 0.930 . S
H1004 C1017 0.930 . S
H1005 C1018 0.930 . S
H1006 C1022 0.962 . S
H1007 C1022 0.974 . S
H1008 C1022 0.945 1_556 S
H1009 C1023 0.960 . S
H1010 C1023 0.961 1_554 S
H1011 C1023 0.959 . S
H1012 C1026 0.929 . S
H1013 C1027 0.931 . S
H1014 C1029 0.930 . S
C1015 H1003 0.930 . S
C1015 C1016 1.399 . S
C1015 C1020 1.399 . S
C1016 C1015 1.399 . S
C1016 C1017 1.376 . S
C1017 H1004 0.930 . S
C1017 C1016 1.376 . S
C1017 C1018 1.388 . S
C1018 H1005 0.930 . S
C1018 C1017 1.388 . S
C1018 C1019 1.390 . S
C1019 C1018 1.390 . S
C1019 C1020 1.394 . S
C1019 C1025 1.465 1_556 S
C1020 C1015 1.399 . S
C1020 C1019 1.394 . S
C1020 C1021 1.541 . S
C1021 C1020 1.541 . S
C1021 C1022 1.501 1_556 S
C1021 C1023 1.563 . S
C1021 C1024 1.501 1_556 S
C1022 H1006 0.962 . S
C1022 H1007 0.974 . S
C1022 H1008 0.945 1_554 S
C1022 C1021 1.501 1_554 S
C1023 H1009 0.960 . S
C1023 H1010 0.961 1_556 S
C1023 H1011 0.959 . S
C1023 C1021 1.563 . S
C1024 C1021 1.501 1_554 S
C1024 C1025 1.396 . S
C1024 C1029 1.390 . S
C1025 C1019 1.465 1_554 S
C1025 C1024 1.396 . S
C1025 C1026 1.399 . S
C1026 H1012 0.929 . S
C1026 C1025 1.399 . S
C1026 C1027 1.385 . S
C1027 H1013 0.931 . S
C1027 C1026 1.385 . S
C1027 C1028 1.389 . S
C1028 C1027 1.389 . S
C1028 C1029 1.387 . S
C1029 H1014 0.930 . S
C1029 C1024 1.390 . S
C1029 C1028 1.387 . S
H1030 C1042 0.930 . S
H1031 C1044 0.930 . S
H1032 C1045 0.930 . S
H1033 C1049 0.959 . S
H1034 C1049 0.959 . S
H1035 C1049 0.961 1_556 S
H1036 C1050 0.960 1_556 S
H1037 C1050 0.961 . S
H1038 C1050 0.959 . S
H1039 C1053 0.929 . S
H1040 C1054 0.931 . S
H1041 C1056 0.930 . S
C1042 H1030 0.930 . S
C1042 C1043 1.399 . S
C1042 C1047 1.399 . S
C1043 C1042 1.399 . S
C1043 C1044 1.376 . S
C1044 H1031 0.930 . S
C1044 C1043 1.376 . S
C1044 C1045 1.388 . S
C1045 H1032 0.930 . S
C1045 C1044 1.388 . S
C1045 C1046 1.390 . S
C1046 C1045 1.390 . S
C1046 C1047 1.394 . S
C1046 C1052 1.465 1_556 S
C1047 C1042 1.399 . S
C1047 C1046 1.394 . S
C1047 C1048 1.516 1_556 S
C1048 C1047 1.516 1_554 S
C1048 C1049 1.502 . S
C1048 C1050 1.561 . S
C1048 C1051 1.526 . S
C1049 H1033 0.959 . S
C1049 H1034 0.959 . S
C1049 H1035 0.961 1_554 S
C1049 C1048 1.502 . S
C1050 H1036 0.960 1_554 S
C1050 H1037 0.961 . S
C1050 H1038 0.959 . S
C1050 C1048 1.561 . S
C1051 C1048 1.526 . S
C1051 C1052 1.396 . S
C1051 C1056 1.390 . S
C1052 C1046 1.465 1_554 S
C1052 C1051 1.396 . S
C1052 C1053 1.399 . S
C1053 H1039 0.929 . S
C1053 C1052 1.399 . S
C1053 C1054 1.385 . S
C1054 H1040 0.931 . S
C1054 C1053 1.385 . S
C1054 C1055 1.389 . S
C1055 C1054 1.389 . S
C1055 C1056 1.387 . S
C1056 H1041 0.930 . S
C1056 C1051 1.390 . S
C1056 C1055 1.387 . S
H1057 C1069 0.930 . S
H1058 C1071 0.930 . S
H1059 C1072 0.930 . S
H1060 C1076 0.959 . S
H1061 C1076 0.959 . S
H1062 C1076 0.961 1_556 S
H1063 C1077 0.960 . S
H1064 C1077 0.961 1_554 S
H1065 C1077 0.961 . S
H1066 C1080 0.929 . S
H1067 C1081 0.931 . S
H1068 C1083 0.930 . S
C1069 H1057 0.930 . S
C1069 C1070 1.399 . S
C1069 C1074 1.399 . S
C1070 C1069 1.399 . S
C1070 C1071 1.376 . S
C1071 H1058 0.930 . S
C1071 C1070 1.376 . S
C1071 C1072 1.388 . S
C1072 H1059 0.930 . S
C1072 C1071 1.388 . S
C1072 C1073 1.390 . S
C1073 C1072 1.390 . S
C1073 C1074 1.394 . S
C1073 C1079 1.465 1_556 S
C1074 C1069 1.399 . S
C1074 C1073 1.394 . S
C1074 C1075 1.516 . S
C1075 C1074 1.516 . S
C1075 C1076 1.502 1_556 S
C1075 C1077 1.561 . S
C1075 C1078 1.526 1_556 S
C1076 H1060 0.959 . S
C1076 H1061 0.959 . S
C1076 H1062 0.961 1_554 S
C1076 C1075 1.502 1_554 S
C1077 H1063 0.960 . S
C1077 H1064 0.961 1_556 S
C1077 H1065 0.961 . S
C1077 C1075 1.561 . S
C1078 C1075 1.526 1_554 S
C1078 C1079 1.396 . S
C1078 C1083 1.390 . S
C1079 C1073 1.465 1_554 S
C1079 C1078 1.396 . S
C1079 C1080 1.399 . S
C1080 H1066 0.929 . S
C1080 C1079 1.399 . S
C1080 C1081 1.385 . S
C1081 H1067 0.931 . S
C1081 C1080 1.385 . S
C1081 C1082 1.389 . S
C1082 C1081 1.389 . S
C1082 C1083 1.387 . S
C1083 H1068 0.930 . S
C1083 C1078 1.390 . S
C1083 C1082 1.387 . S
H1084 C1096 0.930 . S
H1085 C1098 0.930 . S
H1086 C1099 0.930 . S
H1087 C1103 0.959 . S
H1088 C1103 0.959 . S
H1089 C1103 0.961 . S
H1090 C1104 0.960 . S
H1091 C1104 0.961 . S
H1092 C1104 0.959 . S
H1093 C1107 0.929 . S
H1094 C1108 0.931 . S
H1095 C1110 0.930 . S
C1096 H1084 0.930 . S
C1096 C1097 1.399 . S
C1096 C1101 1.399 . S
C1097 C1096 1.399 . S
C1097 C1098 1.376 . S
C1098 H1085 0.930 . S
C1098 C1097 1.376 . S
C1098 C1099 1.388 . S
C1099 H1086 0.930 . S
C1099 C1098 1.388 . S
C1099 C1100 1.390 . S
C1100 C1099 1.390 . S
C1100 C1101 1.394 . S
C1100 C1106 1.465 . S
C1101 C1096 1.399 . S
C1101 C1100 1.394 . S
C1101 C1102 1.516 . S
C1102 C1101 1.516 . S
C1102 C1103 1.502 . S
C1102 C1104 1.561 . S
C1102 C1105 1.526 . S
C1103 H1087 0.959 . S
C1103 H1088 0.959 . S
C1103 H1089 0.961 . S
C1103 C1102 1.502 . S
C1104 H1090 0.960 . S
C1104 H1091 0.961 . S
C1104 H1092 0.959 . S
C1104 C1102 1.561 . S
C1105 C1102 1.526 . S
C1105 C1106 1.396 . S
C1105 C1110 1.390 . S
C1106 C1100 1.465 . S
C1106 C1105 1.396 . S
C1106 C1107 1.399 . S
C1107 H1093 0.929 . S
C1107 C1106 1.399 . S
C1107 C1108 1.385 . S
C1108 H1094 0.931 . S
C1108 C1107 1.385 . S
C1108 C1109 1.389 . S
C1109 C1108 1.389 . S
C1109 C1110 1.387 . S
C1110 H1095 0.930 . S
C1110 C1105 1.390 . S
C1110 C1109 1.387 . S
H1111 C1123 0.930 . S
H1112 C1125 0.930 . S
H1113 C1126 0.930 . S
H1114 C1130 0.959 . S
H1115 C1130 0.959 . S
H1116 C1130 0.961 . S
H1117 C1131 0.960 . S
H1118 C1131 0.961 . S
H1119 C1131 0.959 . S
H1120 C1134 0.929 . S
H1121 C1135 0.931 . S
H1122 C1137 0.930 . S
C1123 H1111 0.930 . S
C1123 C1124 1.399 . S
C1123 C1128 1.399 . S
C1124 C1123 1.399 . S
C1124 C1125 1.376 . S
C1125 H1112 0.930 . S
C1125 C1124 1.376 . S
C1125 C1126 1.388 . S
C1126 H1113 0.930 . S
C1126 C1125 1.388 . S
C1126 C1127 1.390 . S
C1127 C1126 1.390 . S
C1127 C1128 1.394 . S
C1127 C1133 1.465 . S
C1128 C1123 1.399 . S
C1128 C1127 1.394 . S
C1128 C1129 1.516 . S
C1129 C1128 1.516 . S
C1129 C1130 1.502 . S
C1129 C1131 1.561 . S
C1129 C1132 1.526 . S
C1130 H1114 0.959 . S
C1130 H1115 0.959 . S
C1130 H1116 0.961 . S
C1130 C1129 1.502 . S
C1131 H1117 0.960 . S
C1131 H1118 0.961 . S
C1131 H1119 0.959 . S
C1131 C1129 1.561 . S
C1132 C1129 1.526 . S
C1132 C1133 1.396 . S
C1132 C1137 1.390 . S
C1133 C1127 1.465 . S
C1133 C1132 1.396 . S
C1133 C1134 1.399 . S
C1134 H1120 0.929 . S
C1134 C1133 1.399 . S
C1134 C1135 1.385 . S
C1135 H1121 0.931 . S
C1135 C1134 1.385 . S
C1135 C1136 1.389 . S
C1136 C1135 1.389 . S
C1136 C1137 1.387 . S
C1137 H1122 0.930 . S
C1137 C1132 1.390 . S
C1137 C1136 1.387 . S
H1138 C1150 0.930 . S
H1139 C1152 0.930 . S
H1140 C1153 0.930 . S
H1141 C1157 0.959 . S
H1142 C1157 0.959 . S
H1143 C1157 0.961 . S
H1144 C1158 0.960 . S
H1145 C1158 0.961 . S
H1146 C1158 0.959 . S
H1147 C1161 0.929 . S
H1148 C1162 0.931 . S
H1149 C1164 0.930 . S
C1150 H1138 0.930 . S
C1150 C1151 1.399 . S
C1150 C1155 1.399 . S
C1151 C1150 1.399 . S
C1151 C1152 1.376 . S
C1152 H1139 0.930 . S
C1152 C1151 1.376 . S
C1152 C1153 1.388 . S
C1153 H1140 0.930 . S
C1153 C1152 1.388 . S
C1153 C1154 1.390 . S
C1154 C1153 1.390 . S
C1154 C1155 1.394 . S
C1154 C1160 1.465 . S
C1155 C1150 1.399 . S
C1155 C1154 1.394 . S
C1155 C1156 1.516 . S
C1156 C1155 1.516 . S
C1156 C1157 1.502 . S
C1156 C1158 1.561 . S
C1156 C1159 1.526 . S
C1157 H1141 0.959 . S
C1157 H1142 0.959 . S
C1157 H1143 0.961 . S
C1157 C1156 1.502 . S
C1158 H1144 0.960 . S
C1158 H1145 0.961 . S
C1158 H1146 0.959 . S
C1158 C1156 1.561 . S
C1159 C1156 1.526 . S
C1159 C1160 1.396 . S
C1159 C1164 1.390 . S
C1160 C1154 1.465 . S
C1160 C1159 1.396 . S
C1160 C1161 1.399 . S
C1161 H1147 0.929 . S
C1161 C1160 1.399 . S
C1161 C1162 1.385 . S
C1162 H1148 0.931 . S
C1162 C1161 1.385 . S
C1162 C1163 1.389 . S
C1163 C1162 1.389 . S
C1163 C1164 1.387 . S
C1164 H1149 0.930 . S
C1164 C1159 1.390 . S
C1164 C1163 1.387 . S
H1165 C1177 0.930 . S
H1166 C1179 0.930 . S
H1167 C1180 0.930 . S
H1168 C1184 0.959 . S
H1169 C1184 0.959 . S
H1170 C1184 0.961 . S
H1171 C1185 0.960 . S
H1172 C1185 0.961 . S
H1173 C1185 0.959 . S
H1174 C1188 0.929 . S
H1175 C1189 0.931 . S
H1176 C1191 0.930 . S
C1177 H1165 0.930 . S
C1177 C1178 1.399 . S
C1177 C1182 1.399 . S
C1178 C1177 1.399 . S
C1178 C1179 1.376 . S
C1179 H1166 0.930 . S
C1179 C1178 1.376 . S
C1179 C1180 1.388 . S
C1180 H1167 0.930 . S
C1180 C1179 1.388 . S
C1180 C1181 1.390 . S
C1181 C1180 1.390 . S
C1181 C1182 1.394 . S
C1181 C1187 1.465 . S
C1182 C1177 1.399 . S
C1182 C1181 1.394 . S
C1182 C1183 1.516 . S
C1183 C1182 1.516 . S
C1183 C1184 1.502 . S
C1183 C1185 1.561 . S
C1183 C1186 1.526 . S
C1184 H1168 0.959 . S
C1184 H1169 0.959 . S
C1184 H1170 0.961 . S
C1184 C1183 1.502 . S
C1185 H1171 0.960 . S
C1185 H1172 0.961 . S
C1185 H1173 0.959 . S
C1185 C1183 1.561 . S
C1186 C1183 1.526 . S
C1186 C1187 1.396 . S
C1186 C1191 1.390 . S
C1187 C1181 1.465 . S
C1187 C1186 1.396 . S
C1187 C1188 1.399 . S
C1188 H1174 0.929 . S
C1188 C1187 1.399 . S
C1188 C1189 1.385 . S
C1189 H1175 0.931 . S
C1189 C1188 1.385 . S
C1189 C1190 1.389 . S
C1190 C1189 1.389 . S
C1190 C1191 1.387 . S
C1191 H1176 0.930 . S
C1191 C1186 1.390 . S
C1191 C1190 1.387 . S
H1192 C1204 0.930 . S
H1193 C1206 0.930 . S
H1194 C1207 0.930 . S
H1195 C1211 0.959 . S
H1196 C1211 0.959 . S
H1197 C1211 0.961 . S
H1198 C1212 0.960 . S
H1199 C1212 0.961 . S
H1200 C1212 0.959 . S
H1201 C1215 0.929 . S
H1202 C1216 0.931 . S
H1203 C1218 0.930 . S
C1204 H1192 0.930 . S
C1204 C1205 1.399 . S
C1204 C1209 1.399 . S
C1205 C1204 1.399 . S
C1205 C1206 1.376 . S
C1206 H1193 0.930 . S
C1206 C1205 1.376 . S
C1206 C1207 1.388 . S
C1207 H1194 0.930 . S
C1207 C1206 1.388 . S
C1207 C1208 1.390 . S
C1208 C1207 1.390 . S
C1208 C1209 1.394 . S
C1208 C1214 1.465 . S
C1209 C1204 1.399 . S
C1209 C1208 1.394 . S
C1209 C1210 1.516 . S
C1210 C1209 1.516 . S
C1210 C1211 1.502 . S
C1210 C1212 1.561 . S
C1210 C1213 1.526 . S
C1211 H1195 0.959 . S
C1211 H1196 0.959 . S
C1211 H1197 0.961 . S
C1211 C1210 1.502 . S
C1212 H1198 0.960 . S
C1212 H1199 0.961 . S
C1212 H1200 0.959 . S
C1212 C1210 1.561 . S
C1213 C1210 1.526 . S
C1213 C1214 1.396 . S
C1213 C1218 1.390 . S
C1214 C1208 1.465 . S
C1214 C1213 1.396 . S
C1214 C1215 1.399 . S
C1215 H1201 0.929 . S
C1215 C1214 1.399 . S
C1215 C1216 1.385 . S
C1216 H1202 0.931 . S
C1216 C1215 1.385 . S
C1216 C1217 1.389 . S
C1217 C1216 1.389 . S
C1217 C1218 1.387 . S
C1218 H1203 0.930 . S
C1218 C1213 1.390 . S
C1218 C1217 1.387 . S
H1219 C1231 0.930 . S
H1220 C1233 0.930 . S
H1221 C1234 0.930 . S
H1222 C1238 0.959 . S
H1223 C1238 0.959 . S
H1224 C1238 0.961 . S
H1225 C1239 0.960 . S
H1226 C1239 0.961 . S
H1227 C1239 0.959 . S
H1228 C1242 0.929 . S
H1229 C1243 0.931 . S
H1230 C1245 0.930 . S
C1231 H1219 0.930 . S
C1231 C1232 1.399 . S
C1231 C1236 1.399 . S
C1232 C1231 1.399 . S
C1232 C1233 1.376 . S
C1233 H1220 0.930 . S
C1233 C1232 1.376 . S
C1233 C1234 1.388 . S
C1234 H1221 0.930 . S
C1234 C1233 1.388 . S
C1234 C1235 1.390 . S
C1235 C1234 1.390 . S
C1235 C1236 1.394 . S
C1235 C1241 1.465 . S
C1236 C1231 1.399 . S
C1236 C1235 1.394 . S
C1236 C1237 1.516 . S
C1237 C1236 1.516 . S
C1237 C1238 1.502 . S
C1237 C1239 1.561 . S
C1237 C1240 1.526 . S
C1238 H1222 0.959 . S
C1238 H1223 0.959 . S
C1238 H1224 0.961 . S
C1238 C1237 1.502 . S
C1239 H1225 0.960 . S
C1239 H1226 0.961 . S
C1239 H1227 0.959 . S
C1239 C1237 1.561 . S
C1240 C1237 1.526 . S
C1240 C1241 1.396 . S
C1240 C1245 1.390 . S
C1241 C1235 1.465 . S
C1241 C1240 1.396 . S
C1241 C1242 1.399 . S
C1242 H1228 0.929 . S
C1242 C1241 1.399 . S
C1242 C1243 1.385 . S
C1243 H1229 0.931 . S
C1243 C1242 1.385 . S
C1243 C1244 1.389 . S
C1244 C1243 1.389 . S
C1244 C1245 1.387 . S
C1245 H1230 0.930 . S
C1245 C1240 1.390 . S
C1245 C1244 1.387 . S
H1246 C1258 0.930 . S
H1247 C1260 0.930 . S
H1248 C1261 0.930 . S
H1249 C1265 0.959 . S
H1250 C1265 0.959 . S
H1251 C1265 0.961 . S
H1252 C1266 0.960 . S
H1253 C1266 0.961 . S
H1254 C1266 0.959 . S
H1255 C1269 0.929 . S
H1256 C1270 0.931 . S
H1257 C1272 0.930 . S
C1258 H1246 0.930 . S
C1258 C1259 1.399 . S
C1258 C1263 1.399 . S
C1259 C1258 1.399 . S
C1259 C1260 1.376 . S
C1260 H1247 0.930 . S
C1260 C1259 1.376 . S
C1260 C1261 1.388 . S
C1261 H1248 0.930 . S
C1261 C1260 1.388 . S
C1261 C1262 1.390 . S
C1262 C1261 1.390 . S
C1262 C1263 1.394 . S
C1262 C1268 1.465 . S
C1263 C1258 1.399 . S
C1263 C1262 1.394 . S
C1263 C1264 1.516 . S
C1264 C1263 1.516 . S
C1264 C1265 1.502 . S
C1264 C1266 1.561 . S
C1264 C1267 1.526 . S
C1265 H1249 0.959 . S
C1265 H1250 0.959 . S
C1265 H1251 0.961 . S
C1265 C1264 1.502 . S
C1266 H1252 0.960 . S
C1266 H1253 0.961 . S
C1266 H1254 0.959 . S
C1266 C1264 1.561 . S
C1267 C1264 1.526 . S
C1267 C1268 1.396 . S
C1267 C1272 1.390 . S
C1268 C1262 1.465 . S
C1268 C1267 1.396 . S
C1268 C1269 1.399 . S
C1269 H1255 0.929 . S
C1269 C1268 1.399 . S
C1269 C1270 1.385 . S
C1270 H1256 0.931 . S
C1270 C1269 1.385 . S
C1270 C1271 1.389 . S
C1271 C1270 1.389 . S
C1271 C1272 1.387 . S
C1272 H1257 0.930 . S
C1272 C1267 1.390 . S
C1272 C1271 1.387 . S
H1273 C1285 0.930 . S
H1274 C1287 0.930 . S
H1275 C1288 0.930 . S
H1276 C1292 0.959 . S
H1277 C1292 0.959 . S
H1278 C1292 0.961 . S
H1279 C1293 0.960 . S
H1280 C1293 0.961 . S
H1281 C1293 0.959 . S
H1282 C1296 0.929 . S
H1283 C1297 0.931 . S
H1284 C1299 0.930 . S
C1285 H1273 0.930 . S
C1285 C1286 1.399 . S
C1285 C1290 1.399 . S
C1286 C1285 1.399 . S
C1286 C1287 1.376 . S
C1287 H1274 0.930 . S
C1287 C1286 1.376 . S
C1287 C1288 1.388 . S
C1288 H1275 0.930 . S
C1288 C1287 1.388 . S
C1288 C1289 1.390 . S
C1289 C1288 1.390 . S
C1289 C1290 1.394 . S
C1289 C1295 1.465 . S
C1290 C1285 1.399 . S
C1290 C1289 1.394 . S
C1290 C1291 1.516 . S
C1291 C1290 1.516 . S
C1291 C1292 1.502 . S
C1291 C1293 1.561 . S
C1291 C1294 1.526 . S
C1292 H1276 0.959 . S
C1292 H1277 0.959 . S
C1292 H1278 0.961 . S
C1292 C1291 1.502 . S
C1293 H1279 0.960 . S
C1293 H1280 0.961 . S
C1293 H1281 0.959 . S
C1293 C1291 1.561 . S
C1294 C1291 1.526 . S
C1294 C1295 1.396 . S
C1294 C1299 1.390 . S
C1295 C1289 1.465 . S
C1295 C1294 1.396 . S
C1295 C1296 1.399 . S
C1296 H1282 0.929 . S
C1296 C1295 1.399 . S
C1296 C1297 1.385 . S
C1297 H1283 0.931 . S
C1297 C1296 1.385 . S
C1297 C1298 1.389 . S
C1298 C1297 1.389 . S
C1298 C1299 1.387 . S
C1299 H1284 0.930 . S
C1299 C1294 1.390 . S
C1299 C1298 1.387 . S
H1300 C1312 0.930 . S
H1301 C1314 0.930 . S
H1302 C1315 0.930 . S
H1303 C1319 0.959 . S
H1304 C1319 0.959 . S
H1305 C1319 0.961 . S
H1306 C1320 0.960 . S
H1307 C1320 0.961 . S
H1308 C1320 0.959 . S
H1309 C1323 0.929 . S
H1310 C1324 0.931 . S
H1311 C1326 0.930 . S
C1312 H1300 0.930 . S
C1312 C1313 1.399 . S
C1312 C1317 1.399 . S
C1313 C1312 1.399 . S
C1313 C1314 1.376 . S
C1314 H1301 0.930 . S
C1314 C1313 1.376 . S
C1314 C1315 1.388 . S
C1315 H1302 0.930 . S
C1315 C1314 1.388 . S
C1315 C1316 1.390 . S
C1316 C1315 1.390 . S
C1316 C1317 1.394 . S
C1316 C1322 1.465 . S
C1317 C1312 1.399 . S
C1317 C1316 1.394 . S
C1317 C1318 1.516 . S
C1318 C1317 1.516 . S
C1318 C1319 1.502 . S
C1318 C1320 1.561 . S
C1318 C1321 1.526 . S
C1319 H1303 0.959 . S
C1319 H1304 0.959 . S
C1319 H1305 0.961 . S
C1319 C1318 1.502 . S
C1320 H1306 0.960 . S
C1320 H1307 0.961 . S
C1320 H1308 0.959 . S
C1320 C1318 1.561 . S
C1321 C1318 1.526 . S
C1321 C1322 1.396 . S
C1321 C1326 1.390 . S
C1322 C1316 1.465 . S
C1322 C1321 1.396 . S
C1322 C1323 1.399 . S
C1323 H1309 0.929 . S
C1323 C1322 1.399 . S
C1323 C1324 1.385 . S
C1324 H1310 0.931 . S
C1324 C1323 1.385 . S
C1324 C1325 1.389 . S
C1325 C1324 1.389 . S
C1325 C1326 1.387 . S
C1326 H1311 0.930 . S
C1326 C1321 1.390 . S
C1326 C1325 1.387 . S
H1327 C1339 0.930 . S
H1328 C1341 0.930 . S
H1329 C1342 0.930 . S
H1330 C1346 0.959 . S
H1331 C1346 0.959 . S
H1332 C1346 0.961 . S
H1333 C1347 0.960 . S
H1334 C1347 0.961 . S
H1335 C1347 0.959 . S
H1336 C1350 0.929 . S
H1337 C1351 0.931 . S
H1338 C1353 0.930 . S
C1339 H1327 0.930 . S
C1339 C1340 1.399 . S
C1339 C1344 1.399 . S
C1340 C1339 1.399 . S
C1340 C1341 1.376 . S
C1341 H1328 0.930 . S
C1341 C1340 1.376 . S
C1341 C1342 1.388 . S
C1342 H1329 0.930 . S
C1342 C1341 1.388 . S
C1342 C1343 1.390 . S
C1343 C1342 1.390 . S
C1343 C1344 1.394 . S
C1343 C1349 1.465 . S
C1344 C1339 1.399 . S
C1344 C1343 1.394 . S
C1344 C1345 1.516 . S
C1345 C1344 1.516 . S
C1345 C1346 1.502 . S
C1345 C1347 1.561 . S
C1345 C1348 1.526 . S
C1346 H1330 0.959 . S
C1346 H1331 0.959 . S
C1346 H1332 0.961 . S
C1346 C1345 1.502 . S
C1347 H1333 0.960 . S
C1347 H1334 0.961 . S
C1347 H1335 0.959 . S
C1347 C1345 1.561 . S
C1348 C1345 1.526 . S
C1348 C1349 1.396 . S
C1348 C1353 1.390 . S
C1349 C1343 1.465 . S
C1349 C1348 1.396 . S
C1349 C1350 1.399 . S
C1350 H1336 0.929 . S
C1350 C1349 1.399 . S
C1350 C1351 1.385 . S
C1351 H1337 0.931 . S
C1351 C1350 1.385 . S
C1351 C1352 1.389 . S
C1352 C1351 1.389 . S
C1352 C1353 1.387 . S
C1353 H1338 0.930 . S
C1353 C1348 1.390 . S
C1353 C1352 1.387 . S
H1354 C1366 0.930 . S
H1355 C1368 0.930 . S
H1356 C1369 0.930 . S
H1357 C1373 0.959 . S
H1358 C1373 0.959 . S
H1359 C1373 0.961 . S
H1360 C1374 0.960 . S
H1361 C1374 0.961 . S
H1362 C1374 0.959 . S
H1363 C1377 0.929 . S
H1364 C1378 0.931 . S
H1365 C1380 0.930 . S
C1366 H1354 0.930 . S
C1366 C1367 1.399 . S
C1366 C1371 1.399 . S
C1367 C1366 1.399 . S
C1367 C1368 1.376 . S
C1368 H1355 0.930 . S
C1368 C1367 1.376 . S
C1368 C1369 1.388 . S
C1369 H1356 0.930 . S
C1369 C1368 1.388 . S
C1369 C1370 1.390 . S
C1370 C1369 1.390 . S
C1370 C1371 1.394 . S
C1370 C1376 1.465 . S
C1371 C1366 1.399 . S
C1371 C1370 1.394 . S
C1371 C1372 1.516 . S
C1372 C1371 1.516 . S
C1372 C1373 1.502 . S
C1372 C1374 1.561 . S
C1372 C1375 1.526 . S
C1373 H1357 0.959 . S
C1373 H1358 0.959 . S
C1373 H1359 0.961 . S
C1373 C1372 1.502 . S
C1374 H1360 0.960 . S
C1374 H1361 0.961 . S
C1374 H1362 0.959 . S
C1374 C1372 1.561 . S
C1375 C1372 1.526 . S
C1375 C1376 1.396 . S
C1375 C1380 1.390 . S
C1376 C1370 1.465 . S
C1376 C1375 1.396 . S
C1376 C1377 1.399 . S
C1377 H1363 0.929 . S
C1377 C1376 1.399 . S
C1377 C1378 1.385 . S
C1378 H1364 0.931 . S
C1378 C1377 1.385 . S
C1378 C1379 1.389 . S
C1379 C1378 1.389 . S
C1379 C1380 1.387 . S
C1380 H1365 0.930 . S
C1380 C1375 1.390 . S
C1380 C1379 1.387 . S
H1381 C1393 0.930 . S
H1382 C1395 0.930 . S
H1383 C1396 0.930 . S
H1384 C1400 0.959 . S
H1385 C1400 0.959 . S
H1386 C1400 0.961 . S
H1387 C1401 0.960 . S
H1388 C1401 0.961 . S
H1389 C1401 0.959 . S
H1390 C1404 0.929 . S
H1391 C1405 0.931 . S
H1392 C1407 0.930 . S
C1393 H1381 0.930 . S
C1393 C1394 1.399 . S
C1393 C1398 1.399 . S
C1394 C1393 1.399 . S
C1394 C1395 1.376 . S
C1395 H1382 0.930 . S
C1395 C1394 1.376 . S
C1395 C1396 1.388 . S
C1396 H1383 0.930 . S
C1396 C1395 1.388 . S
C1396 C1397 1.390 . S
C1397 C1396 1.390 . S
C1397 C1398 1.394 . S
C1397 C1403 1.465 . S
C1398 C1393 1.399 . S
C1398 C1397 1.394 . S
C1398 C1399 1.516 . S
C1399 C1398 1.516 . S
C1399 C1400 1.502 . S
C1399 C1401 1.561 . S
C1399 C1402 1.526 . S
C1400 H1384 0.959 . S
C1400 H1385 0.959 . S
C1400 H1386 0.961 . S
C1400 C1399 1.502 . S
C1401 H1387 0.960 . S
C1401 H1388 0.961 . S
C1401 H1389 0.959 . S
C1401 C1399 1.561 . S
C1402 C1399 1.526 . S
C1402 C1403 1.396 . S
C1402 C1407 1.390 . S
C1403 C1397 1.465 . S
C1403 C1402 1.396 . S
C1403 C1404 1.399 . S
C1404 H1390 0.929 . S
C1404 C1403 1.399 . S
C1404 C1405 1.385 . S
C1405 H1391 0.931 . S
C1405 C1404 1.385 . S
C1405 C1406 1.389 . S
C1406 C1405 1.389 . S
C1406 C1407 1.387 . S
C1407 H1392 0.930 . S
C1407 C1402 1.390 . S
C1407 C1406 1.387 . S
H1408 C1420 0.930 . S
H1409 C1422 0.930 . S
H1410 C1423 0.930 . S
H1411 C1427 0.959 . S
H1412 C1427 0.959 1_565 S
H1413 C1427 0.961 . S
H1414 C1428 0.960 . S
H1415 C1428 0.961 . S
H1416 C1428 0.959 . S
H1417 C1431 0.929 . S
H1418 C1432 0.931 . S
H1419 C1434 0.930 . S
C1420 H1408 0.930 . S
C1420 C1421 1.399 . S
C1420 C1425 1.399 . S
C1421 C1420 1.399 . S
C1421 C1422 1.376 . S
C1422 H1409 0.930 . S
C1422 C1421 1.376 . S
C1422 C1423 1.388 . S
C1423 H1410 0.930 . S
C1423 C1422 1.388 . S
C1423 C1424 1.390 . S
C1424 C1423 1.390 . S
C1424 C1425 1.394 . S
C1424 C1430 1.465 1_545 S
C1425 C1420 1.399 . S
C1425 C1424 1.394 . S
C1425 C1426 1.516 1_545 S
C1426 C1425 1.516 1_565 S
C1426 C1427 1.502 1_565 S
C1426 C1428 1.561 . S
C1426 C1429 1.526 . S
C1427 H1411 0.959 . S
C1427 H1412 0.959 1_545 S
C1427 H1413 0.961 . S
C1427 C1426 1.502 1_545 S
C1428 H1414 0.960 . S
C1428 H1415 0.961 . S
C1428 H1416 0.959 . S
C1428 C1426 1.561 . S
C1429 C1426 1.526 . S
C1429 C1430 1.396 . S
C1429 C1434 1.390 . S
C1430 C1424 1.465 1_565 S
C1430 C1429 1.396 . S
C1430 C1431 1.399 . S
C1431 H1417 0.929 . S
C1431 C1430 1.399 . S
C1431 C1432 1.385 . S
C1432 H1418 0.931 . S
C1432 C1431 1.385 . S
C1432 C1433 1.389 . S
C1433 C1432 1.389 . S
C1433 C1434 1.387 . S
C1434 H1419 0.930 . S
C1434 C1429 1.390 . S
C1434 C1433 1.387 . S
H1435 C1447 0.930 . S
H1436 C1449 0.930 . S
H1437 C1450 0.930 . S
H1438 C1454 0.959 . S
H1439 C1454 0.959 . S
H1440 C1454 0.961 . S
H1441 C1455 0.960 1_655 S
H1442 C1455 0.961 . S
H1443 C1455 0.959 . S
H1444 C1458 0.929 . S
H1445 C1459 0.931 . S
H1446 C1461 0.930 . S
C1447 H1435 0.930 . S
C1447 C1448 1.399 . S
C1447 C1452 1.399 . S
C1448 C1447 1.399 . S
C1448 C1449 1.376 . S
C1449 H1436 0.930 . S
C1449 C1448 1.376 . S
C1449 C1450 1.388 . S
C1450 H1437 0.930 . S
C1450 C1449 1.388 . S
C1450 C1451 1.390 . S
C1451 C1450 1.390 . S
C1451 C1452 1.394 . S
C1451 C1457 1.465 1_655 S
C1452 C1447 1.399 . S
C1452 C1451 1.394 . S
C1452 C1453 1.516 . S
C1453 C1452 1.516 . S
C1453 C1454 1.502 . S
C1453 C1455 1.561 1_655 S
C1453 C1456 1.526 1_655 S
C1454 H1438 0.959 . S
C1454 H1439 0.959 . S
C1454 H1440 0.961 . S
C1454 C1453 1.502 . S
C1455 H1441 0.960 1_455 S
C1455 H1442 0.961 . S
C1455 H1443 0.959 . S
C1455 C1453 1.561 1_455 S
C1456 C1453 1.526 1_455 S
C1456 C1457 1.396 . S
C1456 C1461 1.390 . S
C1457 C1451 1.465 1_455 S
C1457 C1456 1.396 . S
C1457 C1458 1.399 . S
C1458 H1444 0.929 . S
C1458 C1457 1.399 . S
C1458 C1459 1.385 . S
C1459 H1445 0.931 . S
C1459 C1458 1.385 . S
C1459 C1460 1.389 . S
C1460 C1459 1.389 . S
C1460 C1461 1.387 . S
C1461 H1446 0.930 . S
C1461 C1456 1.390 . S
C1461 C1460 1.387 . S
H1462 C1474 0.930 . S
H1463 C1476 0.930 . S
H1464 C1477 0.930 . S
H1465 C1481 0.959 . S
H1466 C1481 0.959 . S
H1467 C1481 0.961 . S
H1468 C1482 0.960 . S
H1469 C1482 0.961 . S
H1470 C1482 0.959 . S
H1471 C1485 0.958 . S
H1472 C1486 0.931 . S
H1473 C1488 0.930 . S
C1474 H1462 0.930 . S
C1474 C1475 1.399 . S
C1474 C1479 1.399 . S
C1475 C1474 1.399 . S
C1475 C1476 1.376 . S
C1476 H1463 0.930 . S
C1476 C1475 1.376 . S
C1476 C1477 1.388 . S
C1477 H1464 0.930 . S
C1477 C1476 1.388 . S
C1477 C1478 1.390 . S
C1478 C1477 1.390 . S
C1478 C1479 1.394 . S
C1478 C1484 1.465 1_545 S
C1479 C1474 1.399 . S
C1479 C1478 1.394 . S
C1479 C1480 1.516 1_545 S
C1480 C1479 1.516 1_565 S
C1480 C1481 1.502 . S
C1480 C1482 1.561 . S
C1480 C1483 1.526 . S
C1481 H1465 0.959 . S
C1481 H1466 0.959 . S
C1481 H1467 0.961 . S
C1481 C1480 1.502 . S
C1482 H1468 0.960 . S
C1482 H1469 0.961 . S
C1482 H1470 0.959 . S
C1482 C1480 1.561 . S
C1483 C1480 1.526 . S
C1483 C1484 1.396 . S
C1483 C1488 1.390 . S
C1484 C1478 1.465 1_565 S
C1484 C1483 1.396 . S
C1484 C1485 1.399 . S
C1485 H1471 0.958 . S
C1485 C1484 1.399 . S
C1485 C1486 1.385 . S
C1486 H1472 0.931 . S
C1486 C1485 1.385 . S
C1486 C1487 1.389 . S
C1487 C1486 1.389 . S
C1487 C1488 1.387 . S
C1488 H1473 0.930 . S
C1488 C1483 1.390 . S
C1488 C1487 1.387 . S
H1489 C1501 0.930 . S
H1490 C1503 0.930 . S
H1491 C1504 0.930 . S
H1492 C1508 0.959 . S
H1493 C1508 0.959 . S
H1494 C1508 0.961 . S
H1495 C1509 0.960 1_655 S
H1496 C1509 0.961 . S
H1497 C1509 0.959 . S
H1498 C1512 0.929 . S
H1499 C1513 0.931 . S
H1500 C1515 0.930 . S
C1501 H1489 0.930 . S
C1501 C1502 1.399 . S
C1501 C1506 1.399 . S
C1502 C1501 1.399 . S
C1502 C1503 1.376 . S
C1503 H1490 0.930 . S
C1503 C1502 1.376 . S
C1503 C1504 1.388 . S
C1504 H1491 0.930 . S
C1504 C1503 1.388 . S
C1504 C1505 1.390 . S
C1505 C1504 1.390 . S
C1505 C1506 1.394 . S
C1505 C1511 1.465 1_655 S
C1506 C1501 1.399 . S
C1506 C1505 1.394 . S
C1506 C1507 1.516 . S
C1507 C1506 1.516 . S
C1507 C1508 1.502 . S
C1507 C1509 1.561 1_655 S
C1507 C1510 1.526 1_655 S
C1508 H1492 0.959 . S
C1508 H1493 0.959 . S
C1508 H1494 0.961 . S
C1508 C1507 1.502 . S
C1509 H1495 0.960 1_455 S
C1509 H1496 0.961 . S
C1509 H1497 0.959 . S
C1509 C1507 1.561 1_455 S
C1510 C1507 1.526 1_455 S
C1510 C1511 1.396 . S
C1510 C1515 1.390 . S
C1511 C1505 1.465 1_455 S
C1511 C1510 1.396 . S
C1511 C1512 1.399 . S
C1512 H1498 0.929 . S
C1512 C1511 1.399 . S
C1512 C1513 1.385 . S
C1513 H1499 0.931 . S
C1513 C1512 1.385 . S
C1513 C1514 1.389 . S
C1514 C1513 1.389 . S
C1514 C1515 1.387 . S
C1515 H1500 0.930 . S
C1515 C1510 1.390 . S
C1515 C1514 1.387 . S
H1516 C1528 0.930 . S
H1517 C1530 0.930 . S
H1518 C1531 0.930 . S
H1519 C1535 0.959 . S
H1520 C1535 0.959 . S
H1521 C1535 0.961 . S
H1522 C1536 0.960 1_565 S
H1523 C1536 0.961 . S
H1524 C1536 0.959 1_565 S
H1525 C1539 0.929 . S
H1526 C1540 0.931 . S
H1527 C1542 0.930 . S
C1528 H1516 0.930 . S
C1528 C1529 1.399 . S
C1528 C1533 1.399 . S
C1529 C1528 1.399 . S
C1529 C1530 1.376 . S
C1530 H1517 0.930 . S
C1530 C1529 1.376 . S
C1530 C1531 1.388 . S
C1531 H1518 0.930 . S
C1531 C1530 1.388 . S
C1531 C1532 1.390 . S
C1532 C1531 1.390 . S
C1532 C1533 1.394 . S
C1532 C1538 1.465 1_565 S
C1533 C1528 1.399 . S
C1533 C1532 1.394 . S
C1533 C1534 1.516 1_565 S
C1534 C1533 1.516 1_545 S
C1534 C1535 1.502 . S
C1534 C1536 1.561 . S
C1534 C1537 1.526 . S
C1535 H1519 0.959 . S
C1535 H1520 0.959 . S
C1535 H1521 0.961 . S
C1535 C1534 1.502 . S
C1536 H1522 0.960 1_545 S
C1536 H1523 0.961 . S
C1536 H1524 0.959 1_545 S
C1536 C1534 1.561 . S
C1537 C1534 1.526 . S
C1537 C1538 1.396 . S
C1537 C1542 1.390 . S
C1538 C1532 1.465 1_545 S
C1538 C1537 1.396 . S
C1538 C1539 1.399 . S
C1539 H1525 0.929 . S
C1539 C1538 1.399 . S
C1539 C1540 1.385 . S
C1540 H1526 0.931 . S
C1540 C1539 1.385 . S
C1540 C1541 1.389 . S
C1541 C1540 1.389 . S
C1541 C1542 1.387 . S
C1542 H1527 0.930 . S
C1542 C1537 1.390 . S
C1542 C1541 1.387 . S
H1543 C1555 0.930 . S
H1544 C1557 0.930 . S
H1545 C1558 0.930 . S
H1546 C1562 0.959 . S
H1547 C1562 0.959 . S
H1548 C1562 0.988 . S
H1549 C1563 0.960 . S
H1550 C1563 0.961 1_655 S
H1551 C1563 0.959 . S
H1552 C1566 0.929 . S
H1553 C1567 0.931 . S
H1554 C1569 0.930 . S
C1555 H1543 0.930 . S
C1555 C1556 1.399 . S
C1555 C1560 1.399 . S
C1556 C1555 1.399 . S
C1556 C1557 1.376 . S
C1557 H1544 0.930 . S
C1557 C1556 1.376 . S
C1557 C1558 1.388 . S
C1558 H1545 0.930 . S
C1558 C1557 1.388 . S
C1558 C1559 1.390 . S
C1559 C1558 1.390 . S
C1559 C1560 1.394 . S
C1559 C1565 1.465 1_455 S
C1560 C1555 1.399 . S
C1560 C1559 1.394 . S
C1560 C1561 1.516 1_455 S
C1561 C1560 1.516 1_655 S
C1561 C1562 1.502 . S
C1561 C1563 1.561 1_655 S
C1561 C1564 1.526 . S
C1562 H1546 0.959 . S
C1562 H1547 0.959 . S
C1562 H1548 0.988 . S
C1562 C1561 1.502 . S
C1563 H1549 0.960 . S
C1563 H1550 0.961 1_455 S
C1563 H1551 0.959 . S
C1563 C1561 1.561 1_455 S
C1564 C1561 1.526 . S
C1564 C1565 1.396 . S
C1564 C1569 1.390 . S
C1565 C1559 1.465 1_655 S
C1565 C1564 1.396 . S
C1565 C1566 1.399 . S
C1566 H1552 0.929 . S
C1566 C1565 1.399 . S
C1566 C1567 1.385 . S
C1567 H1553 0.931 . S
C1567 C1566 1.385 . S
C1567 C1568 1.389 . S
C1568 C1567 1.389 . S
C1568 C1569 1.387 . S
C1569 H1554 0.930 . S
C1569 C1564 1.390 . S
C1569 C1568 1.387 . S
H1570 C1582 0.930 . S
H1571 C1584 0.930 . S
H1572 C1585 0.930 1_545 S
H1573 C1589 0.959 . S
H1574 C1589 0.959 . S
H1575 C1589 0.961 . S
H1576 C1590 0.960 . S
H1577 C1590 0.961 . S
H1578 C1590 0.959 . S
H1579 C1593 0.929 . S
H1580 C1594 0.931 . S
H1581 C1596 0.930 . S
C1582 H1570 0.930 . S
C1582 C1583 1.399 . S
C1582 C1587 1.399 . S
C1583 C1582 1.399 . S
C1583 C1584 1.376 . S
C1584 H1571 0.930 . S
C1584 C1583 1.376 . S
C1584 C1585 1.388 . S
C1585 H1572 0.930 1_565 S
C1585 C1584 1.388 . S
C1585 C1586 1.390 . S
C1586 C1585 1.390 . S
C1586 C1587 1.394 . S
C1586 C1592 1.465 1_565 S
C1587 C1582 1.399 . S
C1587 C1586 1.394 . S
C1587 C1588 1.516 . S
C1588 C1587 1.516 . S
C1588 C1589 1.502 . S
C1588 C1590 1.561 . S
C1588 C1591 1.526 1_565 S
C1589 H1573 0.959 . S
C1589 H1574 0.959 . S
C1589 H1575 0.961 . S
C1589 C1588 1.502 . S
C1590 H1576 0.960 . S
C1590 H1577 0.961 . S
C1590 H1578 0.959 . S
C1590 C1588 1.561 . S
C1591 C1588 1.526 1_545 S
C1591 C1592 1.396 . S
C1591 C1596 1.390 . S
C1592 C1586 1.465 1_545 S
C1592 C1591 1.396 . S
C1592 C1593 1.399 . S
C1593 H1579 0.929 . S
C1593 C1592 1.399 . S
C1593 C1594 1.385 . S
C1594 H1580 0.931 . S
C1594 C1593 1.385 . S
C1594 C1595 1.389 . S
C1595 C1594 1.389 . S
C1595 C1596 1.387 . S
C1596 H1581 0.930 . S
C1596 C1591 1.390 . S
C1596 C1595 1.387 . S
H1597 C1609 0.930 . S
H1598 C1611 0.930 . S
H1599 C1612 0.930 . S
H1600 C1616 0.959 . S
H1601 C1616 0.959 . S
H1602 C1616 0.961 . S
H1603 C1617 0.960 . S
H1604 C1617 0.961 1_455 S
H1605 C1617 0.959 . S
H1606 C1620 0.929 . S
H1607 C1621 0.931 . S
H1608 C1623 0.930 . S
C1609 H1597 0.930 . S
C1609 C1610 1.399 . S
C1609 C1614 1.399 . S
C1610 C1609 1.399 . S
C1610 C1611 1.376 . S
C1611 H1598 0.930 . S
C1611 C1610 1.376 . S
C1611 C1612 1.388 . S
C1612 H1599 0.930 . S
C1612 C1611 1.388 . S
C1612 C1613 1.390 . S
C1613 C1612 1.390 . S
C1613 C1614 1.394 . S
C1613 C1619 1.465 1_655 S
C1614 C1609 1.399 . S
C1614 C1613 1.394 . S
C1614 C1615 1.516 1_655 S
C1615 C1614 1.516 1_455 S
C1615 C1616 1.502 . S
C1615 C1617 1.561 1_455 S
C1615 C1618 1.526 . S
C1616 H1600 0.959 . S
C1616 H1601 0.959 . S
C1616 H1602 0.961 . S
C1616 C1615 1.502 . S
C1617 H1603 0.960 . S
C1617 H1604 0.961 1_655 S
C1617 H1605 0.959 . S
C1617 C1615 1.561 1_655 S
C1618 C1615 1.526 . S
C1618 C1619 1.396 . S
C1618 C1623 1.390 . S
C1619 C1613 1.465 1_455 S
C1619 C1618 1.396 . S
C1619 C1620 1.399 . S
C1620 H1606 0.929 . S
C1620 C1619 1.399 . S
C1620 C1621 1.385 . S
C1621 H1607 0.931 . S
C1621 C1620 1.385 . S
C1621 C1622 1.389 . S
C1622 C1621 1.389 . S
C1622 C1623 1.387 . S
C1623 H1608 0.930 . S
C1623 C1618 1.390 . S
C1623 C1622 1.387 . S
C557 C73 0.861 . S
C569 C5 0.876 . S
C584 C39 0.875 . S
C596 C107 0.855 . S
C611 C209 0.800 . S
C623 C141 0.822 . S
C638 C243 0.813 . S
C650 C175 0.843 . S
C665 C277 0.808 . S
C677 C345 0.837 . S
C692 C311 0.867 . S
C704 C379 0.841 . S
C719 C413 0.796 . S
C731 C481 0.810 . S
C746 C515 0.876 . S
C758 C447 0.858 . S
C773 C9 1.677 . S
C785 C179 1.669 . S
C800 C213 1.680 . S
C812 C43 1.717 . S
C827 C247 1.688 . S
C839 C77 1.726 . S
C854 C145 1.733 . S
C866 C111 1.758 . S
C881 C451 1.699 . S
C893 C281 1.671 . S
C908 C485 1.718 . S
C920 C315 1.752 . S
C935 C519 1.672 . S
C947 C349 1.671 . S
C962 C417 1.749 . S
C974 C383 1.760 . S
C989 C20 1.389 . S
C1001 C360 1.390 . S
C1016 C394 1.436 . S
C1028 C54 1.431 . S
C1043 C292 1.393 . S
C1055 C88 1.441 . S
C1070 C326 1.426 . S
C1082 C122 1.439 . S
C1097 C156 1.438 . S
C1109 C496 1.428 . S
C1124 C190 1.385 . S
C1136 C530 1.435 . S
C1151 C224 1.386 . S
C1163 C428 1.393 . S
C1178 C258 1.397 . S
C1190 C462 1.443 . S
C1205 C138 1.085 . S
C1217 C2 1.080 . S
C1232 C36 0.990 . S
C1244 C172 0.987 . S
C1259 C206 1.032 . S
C1271 C70 0.987 . S
C1286 C240 0.981 . S
C1298 C104 1.016 . S
C1313 C305 1.229 . S
C1325 C441 1.239 . S
C1340 C475 1.261 . S
C1352 C339 1.273 . S
C1367 C373 1.229 . S
C1379 C509 1.240 . S
C1394 C543 1.276 . S
C1406 C407 1.283 . S
C1421 C376 0.986 . S
C1433 C444 0.991 . S
C1448 C274 0.982 . S
C1460 C478 1.022 . S
C1475 C512 1.029 . S
C1487 C308 0.986 . S
C1502 C410 0.980 . S
C1514 C342 1.014 . S
C1529 C135 1.247 . S
C1541 C203 1.235 . S
C1556 C33 1.231 . S
C1568 C237 1.226 . S
C1583 C271 1.236 . S
C1595 C67 1.249 . S
C1610 C101 1.233 . S
C1622 C169 1.227 . S
