# Generated by pormake.
# Topology vbe, (5)-cn, num edge types: 1
# Building blocks:
#     Node 0, Type 0, BuildingBlock: XOMCOT_clean_sbu_0, # of connection points: 5
#     Node 1, Type 0, BuildingBlock: XOMCOT_clean_sbu_0, # of connection points: 5
#     Node 2, Type 0, BuildingBlock: XOMCOT_clean_sbu_0, # of connection points: 5
#     Node 3, Type 0, BuildingBlock: XOMCOT_clean_sbu_0, # of connection points: 5
#     Node 4, Type 0, BuildingBlock: XOMCOT_clean_sbu_0, # of connection points: 5
#     Node 5, Type 0, BuildingBlock: XOMCOT_clean_sbu_0, # of connection points: 5
#     Node 6, Type 0, BuildingBlock: XOMCOT_clean_sbu_0, # of connection points: 5
#     Node 7, Type 0, BuildingBlock: XOMCOT_clean_sbu_0, # of connection points: 5
#     Node 8, Type 0, BuildingBlock: XOMCOT_clean_sbu_0, # of connection points: 5
#     Node 9, Type 0, BuildingBlock: XOMCOT_clean_sbu_0, # of connection points: 5
#     Node 10, Type 0, BuildingBlock: XOMCOT_clean_sbu_0, # of connection points: 5
#     Node 11, Type 0, BuildingBlock: XOMCOT_clean_sbu_0, # of connection points: 5
#     Node 12, Type 0, BuildingBlock: XOMCOT_clean_sbu_0, # of connection points: 5
#     Node 13, Type 0, BuildingBlock: XOMCOT_clean_sbu_0, # of connection points: 5
#     Node 14, Type 0, BuildingBlock: XOMCOT_clean_sbu_0, # of connection points: 5
#     Node 15, Type 0, BuildingBlock: XOMCOT_clean_sbu_0, # of connection points: 5
#     Edge 16, Type (0, 0), BuildingBlock: XUDNAN_clean_linker_2, # of connection points: 2
#     Edge 17, Type (0, 0), BuildingBlock: XUDNAN_clean_linker_2, # of connection points: 2
#     Edge 18, Type (0, 0), BuildingBlock: XUDNAN_clean_linker_2, # of connection points: 2
#     Edge 19, Type (0, 0), BuildingBlock: XUDNAN_clean_linker_2, # of connection points: 2
#     Edge 20, Type (0, 0), BuildingBlock: XUDNAN_clean_linker_2, # of connection points: 2
#     Edge 21, Type (0, 0), BuildingBlock: XUDNAN_clean_linker_2, # of connection points: 2
#     Edge 22, Type (0, 0), BuildingBlock: XUDNAN_clean_linker_2, # of connection points: 2
#     Edge 23, Type (0, 0), BuildingBlock: XUDNAN_clean_linker_2, # of connection points: 2
#     Edge 24, Type (0, 0), BuildingBlock: XUDNAN_clean_linker_2, # of connection points: 2
#     Edge 25, Type (0, 0), BuildingBlock: XUDNAN_clean_linker_2, # of connection points: 2
#     Edge 26, Type (0, 0), BuildingBlock: XUDNAN_clean_linker_2, # of connection points: 2
#     Edge 27, Type (0, 0), BuildingBlock: XUDNAN_clean_linker_2, # of connection points: 2
#     Edge 28, Type (0, 0), BuildingBlock: XUDNAN_clean_linker_2, # of connection points: 2
#     Edge 29, Type (0, 0), BuildingBlock: XUDNAN_clean_linker_2, # of connection points: 2
#     Edge 30, Type (0, 0), BuildingBlock: XUDNAN_clean_linker_2, # of connection points: 2
#     Edge 31, Type (0, 0), BuildingBlock: XUDNAN_clean_linker_2, # of connection points: 2
#     Edge 32, Type (0, 0), BuildingBlock: XUDNAN_clean_linker_2, # of connection points: 2
#     Edge 33, Type (0, 0), BuildingBlock: XUDNAN_clean_linker_2, # of connection points: 2
#     Edge 34, Type (0, 0), BuildingBlock: XUDNAN_clean_linker_2, # of connection points: 2
#     Edge 35, Type (0, 0), BuildingBlock: XUDNAN_clean_linker_2, # of connection points: 2
#     Edge 36, Type (0, 0), BuildingBlock: XUDNAN_clean_linker_2, # of connection points: 2
#     Edge 37, Type (0, 0), BuildingBlock: XUDNAN_clean_linker_2, # of connection points: 2
#     Edge 38, Type (0, 0), BuildingBlock: XUDNAN_clean_linker_2, # of connection points: 2
#     Edge 39, Type (0, 0), BuildingBlock: XUDNAN_clean_linker_2, # of connection points: 2
#     Edge 40, Type (0, 0), BuildingBlock: XUDNAN_clean_linker_2, # of connection points: 2
#     Edge 41, Type (0, 0), BuildingBlock: XUDNAN_clean_linker_2, # of connection points: 2
#     Edge 42, Type (0, 0), BuildingBlock: XUDNAN_clean_linker_2, # of connection points: 2
#     Edge 43, Type (0, 0), BuildingBlock: XUDNAN_clean_linker_2, # of connection points: 2
#     Edge 44, Type (0, 0), BuildingBlock: XUDNAN_clean_linker_2, # of connection points: 2
#     Edge 45, Type (0, 0), BuildingBlock: XUDNAN_clean_linker_2, # of connection points: 2
#     Edge 46, Type (0, 0), BuildingBlock: XUDNAN_clean_linker_2, # of connection points: 2
#     Edge 47, Type (0, 0), BuildingBlock: XUDNAN_clean_linker_2, # of connection points: 2
#     Edge 48, Type (0, 0), BuildingBlock: XUDNAN_clean_linker_2, # of connection points: 2
#     Edge 49, Type (0, 0), BuildingBlock: XUDNAN_clean_linker_2, # of connection points: 2
#     Edge 50, Type (0, 0), BuildingBlock: XUDNAN_clean_linker_2, # of connection points: 2
#     Edge 51, Type (0, 0), BuildingBlock: XUDNAN_clean_linker_2, # of connection points: 2
#     Edge 52, Type (0, 0), BuildingBlock: XUDNAN_clean_linker_2, # of connection points: 2
#     Edge 53, Type (0, 0), BuildingBlock: XUDNAN_clean_linker_2, # of connection points: 2
#     Edge 54, Type (0, 0), BuildingBlock: XUDNAN_clean_linker_2, # of connection points: 2
#     Edge 55, Type (0, 0), BuildingBlock: XUDNAN_clean_linker_2, # of connection points: 2
# Relax obj value: 0.347
# Max RMSD: 0.243
# Mean RMSD: 0.243
data_MOF--net-vbe--node1-XOMCOT_clean_sbu_0--edge1-XUDNAN_clean_linker_2
_symmetry_space_group_name_H-M    P1
_symmetry_Int_Tables_number       1
_symmetry_cell_setting            triclinic
loop_
_symmetry_equiv_pos_as_xyz
'x, y, z'
_cell_length_a     48.961221
_cell_length_b     36.229858
_cell_length_c     54.220263
_cell_angle_alpha  90.028223
_cell_angle_beta   90.016343
_cell_angle_gamma 90.093824
loop_
_atom_site_label
_atom_site_type_symbol
_atom_site_fract_x
_atom_site_fract_y
_atom_site_fract_z
_atom_type_partial_charge
Co0 Co 0.06848 0.09767 0.37392 0.0
C1 C 0.04899 0.05554 0.41746 0.0
C2 C 0.02891 0.0376 0.38443 0.0
C3 C 0.01856 0.01783 0.40399 0.0
N4 N 0.04809 0.06126 0.39283 0.0
N5 N 0.03116 0.02913 0.42477 0.0
H6 H 0.06214 0.07078 0.42985 0.0
H7 H 0.02208 0.03537 0.36556 0.0
C8 C 0.05176 0.05471 0.32306 0.0
O9 O 0.06891 0.02712 0.32165 0.0
N10 N 0.08904 0.13354 0.35532 0.0
C11 C 0.11073 0.15279 0.3637 0.0
C12 C 0.12173 0.17229 0.3445 0.0
C13 C 0.08683 0.1421 0.33121 0.0
N14 N 0.10694 0.16513 0.32406 0.0
C15 C 0.11655 0.07707 0.39899 0.0
C16 C 0.1415 0.03624 0.36311 0.0
C17 C 0.15688 0.04725 0.38384 0.0
C18 C 0.14412 0.06977 0.40114 0.0
C19 C 0.11491 0.04971 0.35977 0.0
N20 N 0.10219 0.06921 0.37786 0.0
H21 H 0.10765 0.09065 0.41457 0.0
H22 H 0.1057 0.04612 0.34225 0.0
H23 H 0.11826 0.15247 0.38244 0.0
H24 H 0.07125 0.13146 0.31903 0.0
O25 O 0.07426 0.12714 0.40311 0.0
O26 O 0.03932 0.13246 0.37756 0.0
O27 O 0.05239 0.07725 0.34138 0.0
C28 C 0.05239 0.14401 0.39693 0.0
H29 H 0.0021 -0.0021 0.40309 0.0
H30 H 0.13902 0.19088 0.34564 0.0
H31 H 0.14995 0.01841 0.34908 0.0
H32 H 0.1548 0.08089 0.41694 0.0
Co33 Co 0.41769 0.88473 0.37611 0.0
C34 C 0.44175 0.92744 0.41831 0.0
C35 C 0.45077 0.95182 0.3833 0.0
C36 C 0.46186 0.9735 0.40111 0.0
N37 N 0.43782 0.92291 0.39372 0.0
N38 N 0.45705 0.95779 0.42313 0.0
H39 H 0.43511 0.90792 0.43217 0.0
H40 H 0.45425 0.95628 0.36417 0.0
C41 C 0.43576 0.92836 0.3253 0.0
O42 O 0.42685 0.96221 0.32858 0.0
N43 N 0.39664 0.84807 0.35891 0.0
C44 C 0.37141 0.83478 0.36389 0.0
C45 C 0.36119 0.81854 0.34281 0.0
C46 C 0.40178 0.83808 0.33582 0.0
N47 N 0.38033 0.82185 0.32516 0.0
C48 C 0.3692 0.90487 0.39974 0.0
C49 C 0.34659 0.94734 0.36307 0.0
C50 C 0.3308 0.9382 0.3839 0.0
C51 C 0.34209 0.91491 0.40158 0.0
C52 C 0.37305 0.93306 0.36064 0.0
N53 N 0.38429 0.91281 0.3792 0.0
H54 H 0.37731 0.889 0.41474 0.0
H55 H 0.38399 0.93765 0.34378 0.0
H56 H 0.36077 0.83761 0.38122 0.0
H57 H 0.42143 0.8406 0.32767 0.0
O58 O 0.41365 0.85367 0.40554 0.0
O59 O 0.44753 0.85158 0.37891 0.0
O60 O 0.43166 0.90359 0.342 0.0
C61 C 0.43459 0.83608 0.39705 0.0
H62 H 0.47468 0.99743 0.39791 0.0
H63 H 0.3414 0.80561 0.34056 0.0
H64 H 0.33876 0.9654 0.34884 0.0
H65 H 0.33048 0.90562 0.41741 0.0
Co66 Co 0.57254 0.88859 0.12581 0.0
C67 C 0.54913 0.92825 0.08238 0.0
C68 C 0.53557 0.95079 0.11684 0.0
C69 C 0.52468 0.97139 0.09833 0.0
N70 N 0.55113 0.92373 0.10709 0.0
N71 N 0.53298 0.95722 0.07672 0.0
H72 H 0.55805 0.90985 0.06889 0.0
H73 H 0.53107 0.95509 0.13598 0.0
C74 C 0.55333 0.93243 0.17583 0.0
O75 O 0.56681 0.96376 0.17625 0.0
N76 N 0.59427 0.85506 0.14499 0.0
C77 C 0.61684 0.83575 0.1388 0.0
C78 C 0.62541 0.81628 0.1593 0.0
C79 C 0.58957 0.84725 0.16871 0.0
N80 N 0.60812 0.82399 0.17789 0.0
C81 C 0.61884 0.914 0.10013 0.0
C82 C 0.64264 0.95115 0.13867 0.0
C83 C 0.65832 0.94235 0.11782 0.0
C84 C 0.64618 0.92379 0.09828 0.0
C85 C 0.61611 0.93771 0.14068 0.0
N86 N 0.60452 0.9191 0.12165 0.0
H87 H 0.60995 0.90041 0.08442 0.0
H88 H 0.6061 0.93946 0.15815 0.0
H89 H 0.62585 0.83494 0.1206 0.0
H90 H 0.57179 0.85604 0.17885 0.0
O91 O 0.57887 0.85812 0.0971 0.0
O92 O 0.54429 0.85257 0.1234 0.0
O93 O 0.55688 0.9095 0.15806 0.0
C94 C 0.55733 0.84062 0.10418 0.0
H95 H 0.50987 0.99335 0.10046 0.0
H96 H 0.64159 0.79596 0.15998 0.0
H97 H 0.65153 0.96592 0.1541 0.0
H98 H 0.65777 0.9163 0.08201 0.0
Co99 Co 0.92362 0.09849 0.12502 0.0
C100 C 0.94562 0.0544 0.08228 0.0
C101 C 0.96561 0.04362 0.11682 0.0
C102 C 0.97709 0.02179 0.09944 0.0
N103 N 0.94584 0.06432 0.1064 0.0
N104 N 0.96457 0.02799 0.07777 0.0
H105 H 0.93181 0.06564 0.06863 0.0
H106 H 0.97221 0.04427 0.13576 0.0
C107 C 0.933 0.06501 0.17907 0.0
O108 O 0.90724 0.06122 0.18518 0.0
N109 N 0.90147 0.13161 0.14432 0.0
C110 C 0.87662 0.1442 0.13784 0.0
C111 C 0.86491 0.16056 0.15772 0.0
C112 C 0.90544 0.14335 0.16765 0.0
N113 N 0.8832 0.16099 0.17625 0.0
C114 C 0.87289 0.07931 0.10172 0.0
C115 C 0.85735 0.02602 0.13452 0.0
C116 C 0.83716 0.04153 0.119 0.0
C117 C 0.8456 0.06764 0.10172 0.0
C118 C 0.88402 0.03979 0.13467 0.0
N119 N 0.89102 0.06808 0.11963 0.0
H120 H 0.87841 0.09993 0.08835 0.0
H121 H 0.89891 0.02783 0.14687 0.0
H122 H 0.86764 0.14294 0.11975 0.0
H123 H 0.92449 0.1408 0.17761 0.0
O124 O 0.91817 0.13157 0.09681 0.0
O125 O 0.95193 0.13385 0.12374 0.0
O126 O 0.93945 0.07585 0.15727 0.0
C127 C 0.93851 0.14978 0.10602 0.0
H128 H 0.99393 0.003 0.10252 0.0
H129 H 0.84515 0.17397 0.15791 0.0
H130 H 0.85268 0.00338 0.14684 0.0
H131 H 0.83131 0.07967 0.08878 0.0
Co132 Co 0.91828 0.8815 0.62567 0.0
C133 C 0.94314 0.92377 0.58268 0.0
C134 C 0.96358 0.93319 0.61717 0.0
C135 C 0.97536 0.9551 0.59968 0.0
N136 N 0.94301 0.9137 0.60694 0.0
N137 N 0.96269 0.9496 0.57796 0.0
H138 H 0.92879 0.91352 0.56911 0.0
H139 H 0.97004 0.932 0.63614 0.0
C140 C 0.93574 0.92414 0.67781 0.0
O141 O 0.91726 0.9493 0.68247 0.0
N142 N 0.89429 0.8506 0.6445 0.0
C143 C 0.87131 0.83234 0.63787 0.0
C144 C 0.86145 0.81384 0.65827 0.0
C145 C 0.89823 0.8427 0.66836 0.0
N146 N 0.87846 0.82109 0.6771 0.0
C147 C 0.86985 0.90317 0.60045 0.0
C148 C 0.85515 0.95723 0.63313 0.0
C149 C 0.835 0.9425 0.61733 0.0
C150 C 0.84312 0.91656 0.59978 0.0
C151 C 0.88135 0.94255 0.6334 0.0
N152 N 0.88778 0.91387 0.61862 0.0
H153 H 0.87503 0.88206 0.58732 0.0
H154 H 0.89635 0.95415 0.6453 0.0
H155 H 0.86272 0.83171 0.61951 0.0
H156 H 0.91586 0.85085 0.67904 0.0
O157 O 0.91427 0.85052 0.59653 0.0
O158 O 0.94413 0.84376 0.62684 0.0
O159 O 0.93379 0.90396 0.65824 0.0
C160 C 0.93592 0.83446 0.60491 0.0
H161 H 0.99216 0.97401 0.60279 0.0
H162 H 0.84386 0.79574 0.65913 0.0
H163 H 0.85075 0.97978 0.64561 0.0
H164 H 0.82881 0.90542 0.58647 0.0
Co165 Co 0.57238 0.0985 0.62524 0.0
C166 C 0.55148 0.05627 0.5828 0.0
C167 C 0.53357 0.03765 0.61665 0.0
C168 C 0.52287 0.01712 0.59777 0.0
N169 N 0.55151 0.06225 0.60728 0.0
N170 N 0.5339 0.0291 0.57648 0.0
H171 H 0.56351 0.07218 0.5699 0.0
H172 H 0.52795 0.03478 0.63575 0.0
C173 C 0.55471 0.05585 0.67648 0.0
O174 O 0.56983 0.02617 0.67861 0.0
N175 N 0.59316 0.13392 0.64373 0.0
C176 C 0.61659 0.15081 0.637 0.0
C177 C 0.62732 0.16827 0.65735 0.0
C178 C 0.58943 0.14233 0.66762 0.0
N179 N 0.61033 0.16222 0.67644 0.0
C180 C 0.62072 0.07571 0.60017 0.0
C181 C 0.64312 0.03398 0.63718 0.0
C182 C 0.65936 0.0436 0.61685 0.0
C183 C 0.64783 0.0644 0.59805 0.0
C184 C 0.61672 0.04819 0.63937 0.0
N185 N 0.60566 0.06912 0.62114 0.0
H186 H 0.61273 0.09151 0.58506 0.0
H187 H 0.60644 0.04476 0.65644 0.0
H188 H 0.62566 0.14956 0.61884 0.0
H189 H 0.57228 0.13341 0.67867 0.0
O190 O 0.57765 0.12862 0.59593 0.0
O191 O 0.54335 0.13371 0.62214 0.0
O192 O 0.5575 0.07762 0.65792 0.0
C193 C 0.55608 0.14612 0.60281 0.0
H194 H 0.50802 -0.00482 0.5997 0.0
H195 H 0.64607 0.18412 0.65815 0.0
H196 H 0.65144 0.01764 0.65213 0.0
H197 H 0.65982 0.07272 0.58219 0.0
Co198 Co 0.41921 0.09612 0.8744 0.0
C199 C 0.4385 0.05384 0.91739 0.0
C200 C 0.45914 0.037 0.88435 0.0
C201 C 0.47005 0.0178 0.90378 0.0
N202 N 0.43942 0.05973 0.89287 0.0
N203 N 0.45725 0.02881 0.92442 0.0
H204 H 0.42538 0.06874 0.92997 0.0
H205 H 0.46631 0.03548 0.86561 0.0
C206 C 0.43802 0.05023 0.82528 0.0
O207 O 0.43057 0.01584 0.82891 0.0
N208 N 0.39871 0.13122 0.85585 0.0
C209 C 0.37522 0.14852 0.86179 0.0
C210 C 0.36597 0.16685 0.84118 0.0
C211 C 0.40355 0.13948 0.83229 0.0
N212 N 0.38371 0.16024 0.82276 0.0
C213 C 0.37066 0.07558 0.89804 0.0
C214 C 0.34733 0.0374 0.85951 0.0
C215 C 0.3319 0.04523 0.88061 0.0
C216 C 0.34337 0.06588 0.89952 0.0
C217 C 0.37424 0.05014 0.85795 0.0
N218 N 0.38582 0.06818 0.87739 0.0
H219 H 0.37918 0.08975 0.91366 0.0
H220 H 0.38536 0.04611 0.84108 0.0
H221 H 0.36575 0.14834 0.8798 0.0
H222 H 0.4223 0.13307 0.82269 0.0
O223 O 0.41426 0.12775 0.90336 0.0
O224 O 0.44873 0.12992 0.87716 0.0
O225 O 0.43305 0.07509 0.8415 0.0
C226 C 0.43566 0.14493 0.89547 0.0
H227 H 0.48663 -0.00192 0.90298 0.0
H228 H 0.34882 0.18562 0.8402 0.0
H229 H 0.33887 0.02084 0.84471 0.0
H230 H 0.33191 0.07205 0.91612 0.0
Co231 Co 0.06891 0.88478 0.87266 0.0
C232 C 0.04816 0.92642 0.91556 0.0
C233 C 0.02804 0.94347 0.88246 0.0
C234 C 0.01785 0.96385 0.90174 0.0
N235 N 0.04722 0.92007 0.89109 0.0
N236 N 0.03054 0.95309 0.92254 0.0
H237 H 0.06118 0.91146 0.92809 0.0
H238 H 0.02101 0.9452 0.86368 0.0
C239 C 0.05151 0.93048 0.82498 0.0
O240 O 0.0659 0.95993 0.83059 0.0
N241 N 0.0907 0.85099 0.8542 0.0
C242 C 0.11495 0.8362 0.86052 0.0
C243 C 0.1251 0.81765 0.84041 0.0
C244 C 0.08645 0.8414 0.83066 0.0
N245 N 0.10715 0.82143 0.82176 0.0
C246 C 0.11435 0.9132 0.89828 0.0
C247 C 0.14276 0.94002 0.85856 0.0
C248 C 0.15649 0.93531 0.88113 0.0
C249 C 0.14206 0.92071 0.90095 0.0
C250 C 0.11562 0.92834 0.85599 0.0
N251 N 0.10137 0.9157 0.87584 0.0
H252 H 0.10405 0.90316 0.91441 0.0
H253 H 0.10712 0.92655 0.83774 0.0
H254 H 0.12436 0.83832 0.87851 0.0
H255 H 0.06768 0.84633 0.82066 0.0
O256 O 0.07612 0.85601 0.90239 0.0
O257 O 0.04133 0.84802 0.87687 0.0
O258 O 0.05202 0.90271 0.83957 0.0
C259 C 0.05461 0.83763 0.89643 0.0
H260 H 0.00148 0.98381 0.90062 0.0
H261 H 0.14308 0.8003 0.84001 0.0
H262 H 0.15341 0.95059 0.84255 0.0
H263 H 0.1517 0.91657 0.91873 0.0
Co264 Co 0.57038 0.61014 0.37585 0.0
C265 C 0.54952 0.56388 0.41811 0.0
C266 C 0.52802 0.55438 0.38418 0.0
C267 C 0.5168 0.53239 0.40191 0.0
N268 N 0.54894 0.57376 0.39392 0.0
N269 N 0.53015 0.53815 0.42322 0.0
H270 H 0.56366 0.57501 0.43153 0.0
H271 H 0.52018 0.55695 0.36573 0.0
C272 C 0.55183 0.56298 0.32783 0.0
O273 O 0.56063 0.53007 0.33413 0.0
N274 N 0.59115 0.646 0.35776 0.0
C275 C 0.61578 0.66138 0.3621 0.0
C276 C 0.62414 0.67905 0.3408 0.0
C277 C 0.58442 0.65588 0.33493 0.0
N278 N 0.60452 0.67432 0.32353 0.0
C279 C 0.6183 0.58694 0.39946 0.0
C280 C 0.64259 0.55033 0.36086 0.0
C281 C 0.65765 0.55757 0.38238 0.0
C282 C 0.64565 0.57799 0.40111 0.0
C283 C 0.61573 0.56367 0.35882 0.0
N284 N 0.60354 0.58083 0.37836 0.0
H285 H 0.60951 0.59963 0.41547 0.0
H286 H 0.6053 0.561 0.34146 0.0
H287 H 0.62721 0.65892 0.37908 0.0
H288 H 0.56487 0.64946 0.32702 0.0
O289 O 0.57646 0.63931 0.40538 0.0
O290 O 0.54181 0.6454 0.37946 0.0
O291 O 0.55581 0.59067 0.34221 0.0
C292 C 0.55541 0.65774 0.39837 0.0
H293 H 0.49951 0.51405 0.39948 0.0
H294 H 0.64321 0.69367 0.33828 0.0
H295 H 0.65135 0.53432 0.34597 0.0
H296 H 0.65675 0.58446 0.41787 0.0
Co297 Co 0.91849 0.37576 0.37257 0.0
C298 C 0.94265 0.41382 0.41668 0.0
C299 C 0.96325 0.43057 0.38373 0.0
C300 C 0.97361 0.45078 0.40306 0.0
N301 N 0.94372 0.40695 0.39207 0.0
N302 N 0.96081 0.44003 0.42368 0.0
H303 H 0.92831 0.40083 0.42913 0.0
H304 H 0.96984 0.43388 0.36498 0.0
C305 C 0.94341 0.41275 0.32764 0.0
O306 O 0.9288 0.44119 0.33405 0.0
N307 N 0.89397 0.34745 0.35292 0.0
C308 C 0.87254 0.32707 0.36055 0.0
C309 C 0.86399 0.30543 0.34117 0.0
C310 C 0.89772 0.33892 0.32905 0.0
N311 N 0.88016 0.31304 0.32188 0.0
C312 C 0.87283 0.39547 0.40291 0.0
C313 C 0.84823 0.43684 0.36705 0.0
C314 C 0.83201 0.42516 0.38707 0.0
C315 C 0.84504 0.40376 0.40525 0.0
C316 C 0.87544 0.42703 0.36512 0.0
N317 N 0.88757 0.40597 0.3824 0.0
H318 H 0.88164 0.37871 0.41721 0.0
H319 H 0.88553 0.43288 0.34812 0.0
H320 H 0.86477 0.32631 0.37919 0.0
H321 H 0.9137 0.34925 0.31725 0.0
O322 O 0.91498 0.34221 0.4012 0.0
O323 O 0.94212 0.33473 0.37056 0.0
O324 O 0.94245 0.38478 0.34163 0.0
C325 C 0.93465 0.32393 0.39197 0.0
H326 H 0.989 0.47225 0.40205 0.0
H327 H 0.84792 0.28488 0.34138 0.0
H328 H 0.84053 0.45216 0.35161 0.0
H329 H 0.83449 0.39335 0.42128 0.0
Co330 Co 0.06838 0.37563 0.12609 0.0
C331 C 0.0463 0.41754 0.08287 0.0
C332 C 0.03468 0.44175 0.11742 0.0
C333 C 0.02313 0.46185 0.09885 0.0
N334 N 0.0492 0.4137 0.10761 0.0
N335 N 0.03016 0.44656 0.07716 0.0
H336 H 0.05414 0.39818 0.06944 0.0
H337 H 0.03119 0.44675 0.1367 0.0
C338 C 0.05207 0.41918 0.17687 0.0
O339 O 0.06851 0.44779 0.17688 0.0
N340 N 0.08786 0.33886 0.14446 0.0
C341 C 0.11143 0.32197 0.13811 0.0
C342 C 0.12178 0.30465 0.15864 0.0
C343 C 0.08365 0.33046 0.16823 0.0
N344 N 0.10432 0.31068 0.17737 0.0
C345 C 0.11677 0.39638 0.10182 0.0
C346 C 0.14115 0.43604 0.13887 0.0
C347 C 0.15592 0.42801 0.11735 0.0
C348 C 0.14395 0.40585 0.09948 0.0
C349 C 0.115 0.42116 0.14197 0.0
N350 N 0.10243 0.40306 0.12312 0.0
H351 H 0.10794 0.38291 0.08612 0.0
H352 H 0.10598 0.42234 0.15979 0.0
H353 H 0.12104 0.32353 0.1202 0.0
H354 H 0.06654 0.3398 0.17908 0.0
O355 O 0.07398 0.34598 0.09675 0.0
O356 O 0.03869 0.34173 0.12194 0.0
O357 O 0.05249 0.39579 0.15899 0.0
C358 C 0.05213 0.32894 0.10313 0.0
H359 H 0.00869 0.48424 0.10114 0.0
H360 H 0.14073 0.2894 0.1599 0.0
H361 H 0.14982 0.45298 0.15335 0.0
H362 H 0.15489 0.39787 0.08294 0.0
Co363 Co 0.41579 0.60984 0.12824 0.0
C364 C 0.43925 0.57376 0.08336 0.0
C365 C 0.45646 0.55218 0.11669 0.0
C366 C 0.46665 0.53233 0.09723 0.0
N367 N 0.43906 0.57812 0.10819 0.0
N368 N 0.45571 0.54565 0.07638 0.0
H369 H 0.42787 0.5908 0.07062 0.0
H370 H 0.46172 0.54746 0.13569 0.0
C371 C 0.43304 0.56796 0.17971 0.0
O372 O 0.41064 0.55308 0.1884 0.0
N373 N 0.39233 0.63978 0.14809 0.0
C374 C 0.36959 0.65853 0.14166 0.0
C375 C 0.36126 0.679 0.16173 0.0
C376 C 0.39733 0.64868 0.17157 0.0
N377 N 0.37876 0.67223 0.18032 0.0
C378 C 0.37105 0.58694 0.10069 0.0
C379 C 0.34653 0.5436 0.13563 0.0
C380 C 0.33053 0.55741 0.11602 0.0
C381 C 0.34346 0.57992 0.09864 0.0
C382 C 0.37362 0.55505 0.13837 0.0
N383 N 0.38519 0.57782 0.12152 0.0
H384 H 0.3802 0.6022 0.08588 0.0
H385 H 0.38499 0.54561 0.15382 0.0
H386 H 0.36083 0.65922 0.12336 0.0
H387 H 0.41583 0.64153 0.18134 0.0
O388 O 0.41048 0.64307 0.10019 0.0
O389 O 0.44228 0.64774 0.12875 0.0
O390 O 0.43258 0.58632 0.15943 0.0
C391 C 0.43234 0.65915 0.10792 0.0
H392 H 0.48192 0.51079 0.09819 0.0
H393 H 0.34535 0.69973 0.16198 0.0
H394 H 0.33858 0.52424 0.14897 0.0
H395 H 0.33287 0.59234 0.0833 0.0
Co396 Co 0.416 0.38935 0.63067 0.0
C397 C 0.43565 0.42851 0.58684 0.0
C398 C 0.45719 0.44738 0.6189 0.0
C399 C 0.46937 0.46235 0.59837 0.0
N400 N 0.43598 0.42598 0.61172 0.0
N401 N 0.45579 0.45047 0.57831 0.0
H402 H 0.42178 0.41318 0.57513 0.0
H403 H 0.46457 0.45072 0.63749 0.0
C404 C 0.44517 0.40569 0.66983 0.0
O405 O 0.42365 0.4268 0.66724 0.0
N406 N 0.39579 0.35177 0.64856 0.0
C407 C 0.3726 0.33343 0.64235 0.0
C408 C 0.36501 0.31082 0.66147 0.0
C409 C 0.40229 0.3388 0.67086 0.0
N410 N 0.38367 0.31479 0.67944 0.0
C411 C 0.36858 0.38782 0.59573 0.0
C412 C 0.34382 0.43583 0.62903 0.0
C413 C 0.32819 0.42112 0.61001 0.0
C414 C 0.34072 0.3968 0.59298 0.0
C415 C 0.37099 0.42721 0.63057 0.0
N416 N 0.38285 0.40296 0.61481 0.0
H417 H 0.37797 0.36777 0.58367 0.0
H418 H 0.38257 0.43869 0.64557 0.0
H419 H 0.36188 0.33513 0.6251 0.0
H420 H 0.42084 0.34554 0.68041 0.0
O421 O 0.42715 0.35187 0.60551 0.0
O422 O 0.42716 0.35186 0.60549 0.0
O423 O 0.44911 0.38157 0.6527 0.0
C424 C 0.4193 0.31839 0.60538 0.0
H425 H 0.48768 0.47917 0.59812 0.0
H426 H 0.34734 0.29288 0.66199 0.0
H427 H 0.33561 0.45551 0.64212 0.0
H428 H 0.32916 0.38505 0.57786 0.0
Co429 Co 0.06825 0.60693 0.62495 0.0
C430 C 0.04694 0.56657 0.58137 0.0
C431 C 0.03026 0.54531 0.61509 0.0
C432 C 0.01939 0.52561 0.5958 0.0
N433 N 0.04769 0.57093 0.6061 0.0
N434 N 0.03003 0.53885 0.57475 0.0
H435 H 0.05764 0.58405 0.56839 0.0
H436 H 0.02473 0.54174 0.63418 0.0
C437 C 0.05063 0.56561 0.67645 0.0
O438 O 0.06917 0.54042 0.68065 0.0
N439 N 0.08896 0.64192 0.64388 0.0
C440 C 0.11251 0.65916 0.63778 0.0
C441 C 0.12221 0.67746 0.65828 0.0
C442 C 0.08437 0.65044 0.66753 0.0
N443 N 0.10453 0.67119 0.67677 0.0
C444 C 0.11652 0.58705 0.60043 0.0
C445 C 0.14068 0.54481 0.63607 0.0
C446 C 0.1566 0.55728 0.61612 0.0
C447 C 0.14419 0.58045 0.59897 0.0
C448 C 0.11374 0.55722 0.63875 0.0
N449 N 0.10166 0.57809 0.621 0.0
H450 H 0.10792 0.60106 0.58488 0.0
H451 H 0.10342 0.55068 0.65521 0.0
H452 H 0.12214 0.6582 0.61986 0.0
H453 H 0.06641 0.64246 0.67782 0.0
O454 O 0.07427 0.63716 0.59614 0.0
O455 O 0.03932 0.64203 0.62177 0.0
O456 O 0.0521 0.5863 0.65725 0.0
C457 C 0.05259 0.6542 0.6027 0.0
H458 H 0.00351 0.50484 0.59696 0.0
H459 H 0.14056 0.69407 0.65956 0.0
H460 H 0.14881 0.52615 0.64977 0.0
H461 H 0.15525 0.59257 0.58373 0.0
Co462 Co 0.92166 0.60653 0.87413 0.0
C463 C 0.94193 0.56351 0.91665 0.0
C464 C 0.96302 0.54862 0.88347 0.0
C465 C 0.97332 0.52791 0.90244 0.0
N466 N 0.94316 0.57081 0.89225 0.0
N467 N 0.96045 0.5378 0.92332 0.0
H468 H 0.92854 0.57765 0.92939 0.0
H469 H 0.97093 0.54866 0.86498 0.0
C470 C 0.94099 0.55999 0.82619 0.0
O471 O 0.93778 0.52569 0.83349 0.0
N472 N 0.9 0.6413 0.85588 0.0
C473 C 0.87445 0.65206 0.86148 0.0
C474 C 0.86349 0.66926 0.8414 0.0
C475 C 0.90481 0.65403 0.83292 0.0
N476 N 0.88262 0.67085 0.82358 0.0
C477 C 0.87308 0.58362 0.89855 0.0
C478 C 0.8535 0.53971 0.86137 0.0
C479 C 0.83556 0.55071 0.8803 0.0
C480 C 0.84582 0.57243 0.89938 0.0
C481 C 0.87977 0.55413 0.86017 0.0
N482 N 0.8892 0.57647 0.87834 0.0
H483 H 0.88019 0.60061 0.9135 0.0
H484 H 0.89172 0.54868 0.84404 0.0
H485 H 0.86432 0.64792 0.87892 0.0
H486 H 0.92432 0.65224 0.82363 0.0
O487 O 0.91682 0.63707 0.90359 0.0
O488 O 0.95024 0.64152 0.87626 0.0
O489 O 0.93464 0.58705 0.84038 0.0
C490 C 0.93759 0.6552 0.89527 0.0
H491 H 0.98966 0.5079 0.9011 0.0
H492 H 0.84351 0.68196 0.8405 0.0
H493 H 0.84694 0.52134 0.84676 0.0
H494 H 0.83288 0.58143 0.91442 0.0
Co495 Co 0.57084 0.37517 0.87433 0.0
C496 C 0.55046 0.41609 0.91824 0.0
C497 C 0.5309 0.43394 0.88484 0.0
C498 C 0.52061 0.45423 0.90405 0.0
N499 N 0.54968 0.40998 0.89363 0.0
N500 N 0.53276 0.44281 0.92489 0.0
H501 H 0.56402 0.40203 0.93087 0.0
H502 H 0.52489 0.43702 0.86582 0.0
C503 C 0.55461 0.41641 0.82195 0.0
O504 O 0.57679 0.43262 0.8139 0.0
N505 N 0.59194 0.34065 0.85481 0.0
C506 C 0.61347 0.3208 0.86281 0.0
C507 C 0.62414 0.30159 0.8433 0.0
C508 C 0.58941 0.33247 0.83059 0.0
N509 N 0.60931 0.30941 0.82301 0.0
C510 C 0.62065 0.39501 0.89861 0.0
C511 C 0.64061 0.44217 0.86351 0.0
C512 C 0.65846 0.42894 0.88182 0.0
C513 C 0.6479 0.40615 0.90007 0.0
C514 C 0.61352 0.42991 0.86263 0.0
N515 N 0.60413 0.40473 0.87909 0.0
H516 H 0.61374 0.3771 0.91308 0.0
H517 H 0.60032 0.44093 0.849 0.0
H518 H 0.62111 0.32046 0.88151 0.0
H519 H 0.57382 0.34351 0.81864 0.0
O520 O 0.57671 0.3439 0.90302 0.0
O521 O 0.54232 0.33916 0.87693 0.0
O522 O 0.55459 0.39785 0.84228 0.0
C523 C 0.55563 0.3258 0.89568 0.0
H524 H 0.50562 0.47611 0.90285 0.0
H525 H 0.64147 0.2831 0.84404 0.0
H526 H 0.64767 0.46148 0.84965 0.0
H527 H 0.66076 0.39586 0.9148 0.0
H528 H 0.97256 0.11251 0.2002 0.0
H529 H 0.94198 0.0001 0.20236 0.0
H530 H 0.96831 -0.0112 0.24035 0.0
H531 H 0.03424 0.08888 0.22342 0.0
H532 H 0.04044 0.12559 0.24486 0.0
H533 H 0.02067 0.13422 0.21735 0.0
H534 H 0.98317 0.15476 0.23861 0.0
H535 H -0.00243 0.15648 0.26581 0.0
H536 H 0.97265 0.13108 0.26634 0.0
H537 H 0.99171 -0.00951 0.28037 0.0
H538 H 0.01644 -0.00077 0.31532 0.0
H539 H 0.03492 0.10986 0.28975 0.0
C540 C 0.97193 0.08533 0.20846 0.0
C541 C 0.95456 0.05719 0.19836 0.0
C542 C 0.95457 0.02209 0.20975 0.0
C543 C 0.96937 0.01553 0.23151 0.0
C544 C 0.98441 0.04427 0.24201 0.0
C545 C 0.98684 0.07826 0.2306 0.0
C546 C -0.00119 0.10355 0.24617 0.0
C547 C 0.02504 0.11374 0.23207 0.0
C548 C 0.99049 0.13858 0.25472 0.0
C549 C 0.00554 0.07841 0.2681 0.0
C550 C -0.00726 0.04465 0.26521 0.0
C551 C -0.00445 0.01654 0.28259 0.0
C552 C 0.01337 0.02181 0.30252 0.0
C553 C 0.02846 0.05487 0.30519 0.0
C554 C 0.02364 0.08424 0.28825 0.0
H555 H 0.53651 0.97835 0.21316 0.0
H556 H 0.52144 0.86943 0.18274 0.0
H557 H 0.49054 0.85562 0.21784 0.0
H558 H 0.53814 0.9571 0.275 0.0
H559 H 0.51996 0.9976 0.28512 0.0
H560 H 0.53902 0.99866 0.25676 0.0
H561 H 0.49611 -0.00194 0.23303 0.0
H562 H 0.47795 -0.0026 0.26192 0.0
H563 H 0.46428 0.99141 0.23624 0.0
H564 H 0.46747 0.85123 0.26099 0.0
H565 H 0.44517 0.86138 0.30046 0.0
H566 H 0.46964 0.97603 0.29984 0.0
C567 C 0.52665 0.9516 0.21369 0.0
C568 C 0.53241 0.9246 0.19551 0.0
C569 C 0.51824 0.89031 0.19674 0.0
C570 C 0.50053 0.88223 0.21663 0.0
C571 C 0.49661 0.90902 0.23492 0.0
C572 C 0.50836 0.94358 0.23294 0.0
C573 C 0.50037 0.96813 0.25452 0.0
C574 C 0.52589 0.98112 0.26869 0.0
C575 C 0.48302 1.00109 0.24589 0.0
C576 C 0.48316 0.94164 0.26964 0.0
C577 C 0.4814 0.90761 0.25815 0.0
C578 C 0.46784 0.87833 0.26941 0.0
C579 C 0.45469 0.88456 0.29213 0.0
C580 C 0.45343 0.9202 0.30302 0.0
C581 C 0.46889 0.94872 0.29175 0.0
H582 H 0.95806 0.86783 0.70864 0.0
H583 H 0.96952 0.98128 0.68508 0.0
H584 H -0.00659 0.99208 0.72012 0.0
H585 H 0.95731 0.87931 0.77226 0.0
H586 H 0.97858 0.84076 0.78074 0.0
H587 H 0.96006 0.83996 0.75206 0.0
H588 H -0.00165 0.82796 0.72884 0.0
H589 H 0.01627 0.82868 0.75788 0.0
H590 H 0.02691 0.85871 0.73322 0.0
H591 H 0.01399 0.99647 0.75975 0.0
H592 H 0.03878 0.99072 0.79835 0.0
H593 H 0.02119 0.8729 0.79974 0.0
C594 C 0.9679 0.89446 0.71046 0.0
C595 C 0.96078 0.92413 0.69412 0.0
C596 C 0.97416 0.95842 0.69726 0.0
C597 C 0.99151 0.96488 0.71733 0.0
C598 C 0.99626 0.93651 0.73413 0.0
C599 C 0.9863 0.90124 0.73052 0.0
C600 C 0.99603 0.87619 0.75195 0.0
C601 C 0.97153 0.85802 0.76505 0.0
C602 C 0.00887 0.84611 0.74239 0.0
C603 C 0.00471 0.90425 0.76864 0.0
C604 C 0.00406 0.93854 0.75747 0.0
C605 C 0.01558 0.96964 0.76838 0.0
C606 C 0.02981 0.96599 0.79056 0.0
C607 C 0.03317 0.93135 0.80222 0.0
C608 C 0.01961 0.89988 0.7913 0.0
H609 H 0.55745 0.03645 0.72487 0.0
H610 H 0.50522 0.09352 0.67299 0.0
H611 H 0.47087 0.10312 0.70626 0.0
H612 H 0.50933 -0.01174 0.75959 0.0
H613 H 0.52687 -0.00361 0.78834 0.0
H614 H 0.54569 -0.00384 0.7599 0.0
H615 H 0.56406 0.06206 0.76994 0.0
H616 H 0.545 0.06186 0.79837 0.0
H617 H 0.54021 0.09859 0.77637 0.0
H618 H 0.4409 0.10257 0.74619 0.0
H619 H 0.41844 0.09002 0.78632 0.0
H620 H 0.49135 0.03441 0.8119 0.0
C621 C 0.53876 0.05092 0.72041 0.0
C622 C 0.53406 0.06389 0.69622 0.0
C623 C 0.50945 0.08337 0.69139 0.0
C624 C 0.48979 0.08891 0.71022 0.0
C625 C 0.4952 0.07544 0.73396 0.0
C626 C 0.51928 0.05707 0.73895 0.0
C627 C 0.52106 0.046 0.76584 0.0
C628 C 0.52601 0.00423 0.76855 0.0
C629 C 0.54392 0.06845 0.77838 0.0
C630 C 0.49286 0.05743 0.775 0.0
C631 C 0.47859 0.07563 0.75656 0.0
C632 C 0.45196 0.0883 0.76059 0.0
C633 C 0.43929 0.08102 0.78348 0.0
C634 C 0.45288 0.06067 0.80209 0.0
C635 C 0.4803 0.04958 0.7979 0.0
H636 H 0.49996 0.59137 0.31456 0.0
H637 H 0.57476 0.54697 0.28384 0.0
H638 H 0.55473 0.54985 0.2421 0.0
H639 H 0.4522 0.54417 0.27651 0.0
H640 H 0.42916 0.58213 0.27139 0.0
H641 H 0.44947 0.58071 0.29901 0.0
H642 H 0.4682 0.64615 0.28795 0.0
H643 H 0.44811 0.646 0.26009 0.0
H644 H 0.48446 0.65322 0.25849 0.0
H645 H 0.52522 0.55122 0.20342 0.0
H646 H 0.48818 0.55102 0.1721 0.0
H647 H 0.43202 0.59384 0.22668 0.0
C648 C 0.51218 0.58282 0.29894 0.0
C649 C 0.53914 0.56851 0.30265 0.0
C650 C 0.55421 0.5575 0.28166 0.0
C651 C 0.54297 0.55924 0.25778 0.0
C652 C 0.5163 0.57212 0.25469 0.0
C653 C 0.50101 0.5843 0.27464 0.0
C654 C 0.47238 0.59581 0.26577 0.0
C655 C 0.44947 0.57441 0.27896 0.0
C656 C 0.46805 0.63778 0.26823 0.0
C657 C 0.47363 0.58516 0.23864 0.0
C658 C 0.49933 0.57277 0.23235 0.0
C659 C 0.50505 0.56099 0.20827 0.0
C660 C 0.48383 0.56095 0.19049 0.0
C661 C 0.45691 0.5718 0.19699 0.0
C662 C 0.45222 0.58481 0.22125 0.0
H663 H 0.97446 0.35817 0.30025 0.0
H664 H 0.95208 0.47447 0.30216 0.0
H665 H 0.97344 0.48393 0.26252 0.0
H666 H 0.03386 0.37069 0.27215 0.0
H667 H 0.0331 0.33352 0.25018 0.0
H668 H 0.01434 0.32957 0.27867 0.0
H669 H 0.97552 0.31838 0.25702 0.0
H670 H 0.99399 0.31768 0.22828 0.0
H671 H 0.96516 0.34806 0.23207 0.0
H672 H 0.99627 0.48444 0.22366 0.0
H673 H 0.02057 0.47707 0.18854 0.0
H674 H 0.03192 0.36166 0.20744 0.0
C675 C 0.97432 0.38558 0.29233 0.0
C676 C 0.9607 0.41549 0.30462 0.0
C677 C 0.96153 0.4508 0.29348 0.0
C678 C 0.97367 0.45665 0.27064 0.0
C679 C 0.98578 0.42712 0.25862 0.0
C680 C 0.98689 0.39223 0.26895 0.0
C681 C -0.0044 0.36622 0.25131 0.0
C682 C 0.0207 0.34897 0.26386 0.0
C683 C 0.9831 0.33579 0.24158 0.0
C684 C 0.00407 0.39304 0.2306 0.0
C685 C -0.00669 0.42757 0.23521 0.0
C686 C -0.00171 0.45763 0.21983 0.0
C687 C 0.01606 0.45321 0.19988 0.0
C688 C 0.02917 0.41914 0.19531 0.0
C689 C 0.02222 0.3881 0.21036 0.0
H690 H 0.53586 0.36139 0.7912 0.0
H691 H 0.5197 0.4739 0.8136 0.0
H692 H 0.48783 0.48105 0.77843 0.0
H693 H 0.53885 0.37734 0.72765 0.0
H694 H 0.52381 0.33305 0.72059 0.0
H695 H 0.54093 0.3404 0.74973 0.0
H696 H 0.4959 0.31479 0.76916 0.0
H697 H 0.47859 0.31427 0.73983 0.0
H698 H 0.46485 0.34076 0.76506 0.0
H699 H 0.46524 0.47989 0.73708 0.0
H700 H 0.44795 0.46887 0.69545 0.0
H701 H 0.47736 0.35585 0.698 0.0
C702 C 0.52468 0.38695 0.78925 0.0
C703 C 0.53012 0.41699 0.80535 0.0
C704 C 0.51571 0.45044 0.80173 0.0
C705 C 0.49761 0.45473 0.7817 0.0
C706 C 0.494 0.42527 0.76532 0.0
C707 C 0.50647 0.39161 0.76921 0.0
C708 C 0.50091 0.36551 0.74758 0.0
C709 C 0.52773 0.35334 0.73557 0.0
C710 C 0.48405 0.33184 0.75591 0.0
C711 C 0.48463 0.39029 0.73032 0.0
C712 C 0.48072 0.42451 0.74121 0.0
C713 C 0.46786 0.45303 0.72866 0.0
C714 C 0.45832 0.44641 0.70473 0.0
C715 C 0.46121 0.41138 0.69309 0.0
C716 C 0.47497 0.38298 0.70608 0.0
H717 H 0.98884 0.53027 0.80831 0.0
H718 H 0.92451 0.60699 0.78944 0.0
H719 H 0.94647 0.61823 0.74886 0.0
H720 H 0.04027 0.57582 0.77731 0.0
H721 H 0.05408 0.53252 0.76684 0.0
H722 H 0.03466 0.5343 0.79497 0.0
H723 H 0.00267 0.48305 0.77694 0.0
H724 H 0.02219 0.48293 0.7488 0.0
H725 H 0.99262 0.49096 0.74782 0.0
H726 H 0.97692 0.62041 0.70879 0.0
H727 H 0.00452 0.61158 0.67534 0.0
H728 H 0.04676 0.53185 0.7211 0.0
C729 C 0.97958 0.54981 0.79574 0.0
C730 C 0.95491 0.56787 0.80212 0.0
C731 C 0.94353 0.59328 0.78513 0.0
C732 C 0.95593 0.59985 0.76201 0.0
C733 C 0.98015 0.58137 0.75614 0.0
C734 C 0.9919 0.5569 0.7727 0.0
C735 C 0.0099 0.53806 0.76135 0.0
C736 C 0.03627 0.54567 0.776 0.0
C737 C 0.00486 0.49629 0.75856 0.0
C738 C 0.01089 0.55666 0.73639 0.0
C739 C 0.99644 0.58138 0.73335 0.0
C740 C 0.99362 0.60123 0.71127 0.0
C741 C 0.00652 0.59606 0.69231 0.0
C742 C 0.02868 0.57113 0.69548 0.0
C743 C 0.03034 0.55121 0.71784 0.0
H744 H 0.06829 0.18129 0.28907 0.0
H745 H 0.15521 0.18563 0.30477 0.0
H746 H 0.16125 0.23261 0.27266 0.0
H747 H 0.07662 0.18789 0.2238 0.0
H748 H 0.04888 0.21859 0.21627 0.0
H749 H 0.04564 0.18777 0.24187 0.0
H750 H 0.03774 0.23533 0.2751 0.0
H751 H 0.03424 0.26679 0.24967 0.0
H752 H 0.05729 0.27752 0.2747 0.0
H753 H 0.15794 0.28347 0.244 0.0
H754 H 0.14947 0.31697 0.20508 0.0
H755 H 0.06553 0.27921 0.20527 0.0
C756 C 0.08862 0.19162 0.28536 0.0
C757 C 0.1111 0.18189 0.30043 0.0
C758 C 0.13757 0.19453 0.29431 0.0
C759 C 0.14117 0.22135 0.2763 0.0
C760 C 0.1182 0.234 0.26397 0.0
C761 C 0.09269 0.21816 0.26696 0.0
C762 C 0.07213 0.2349 0.24921 0.0
C763 C 0.06024 0.20551 0.2317 0.0
C764 C 0.04902 0.25488 0.26302 0.0
C765 C 0.09058 0.26195 0.23577 0.0
C766 C 0.11668 0.26198 0.24548 0.0
C767 C 0.13779 0.28332 0.23581 0.0
C768 C 0.13292 0.3021 0.21386 0.0
C769 C 0.10726 0.29915 0.20225 0.0
C770 C 0.08533 0.28118 0.21406 0.0
H771 H 0.3602 0.66624 0.22645 0.0
H772 H 0.41182 0.73037 0.17804 0.0
H773 H 0.42077 0.77528 0.21162 0.0
H774 H 0.32723 0.73535 0.25525 0.0
H775 H 0.32737 0.7159 0.28584 0.0
H776 H 0.32904 0.68604 0.25943 0.0
H777 H 0.37383 0.65688 0.27599 0.0
H778 H 0.37206 0.68631 0.30274 0.0
H779 H 0.4023 0.68621 0.28379 0.0
H780 H 0.41376 0.81979 0.24607 0.0
H781 H 0.40188 0.85327 0.28445 0.0
H782 H 0.35885 0.75707 0.31148 0.0
C783 C 0.37348 0.68971 0.2233 0.0
C784 C 0.38455 0.6965 0.20001 0.0
C785 C 0.40262 0.72626 0.19599 0.0
C786 C 0.40797 0.75138 0.21485 0.0
C787 C 0.39531 0.74546 0.23743 0.0
C788 C 0.37925 0.71467 0.24203 0.0
C789 C 0.3673 0.71537 0.26755 0.0
C790 C 0.33588 0.71304 0.26695 0.0
C791 C 0.37962 0.68438 0.28347 0.0
C792 C 0.377 0.75296 0.27564 0.0
C793 C 0.39333 0.76983 0.25813 0.0
C794 C 0.40214 0.80626 0.26045 0.0
C795 C 0.39528 0.82501 0.28206 0.0
C796 C 0.38065 0.80675 0.301 0.0
C797 C 0.37042 0.77111 0.29729 0.0
H798 H 0.64474 0.71042 0.29783 0.0
H799 H 0.56308 0.66353 0.2899 0.0
H800 H 0.55594 0.6993 0.25311 0.0
H801 H 0.63418 0.7987 0.27884 0.0
H802 H 0.66384 0.80301 0.25937 0.0
H803 H 0.66408 0.77104 0.28474 0.0
H804 H 0.67619 0.71758 0.25429 0.0
H805 H 0.67619 0.75043 0.22932 0.0
H806 H 0.65485 0.70995 0.22767 0.0
H807 H 0.55308 0.74775 0.22319 0.0
H808 H 0.56072 0.79252 0.19006 0.0
H809 H 0.64503 0.80612 0.21314 0.0
C810 C 0.62547 0.7074 0.28832 0.0
C811 C 0.60366 0.68679 0.29842 0.0
C812 C 0.57955 0.68133 0.2842 0.0
C813 C 0.57519 0.70134 0.26285 0.0
C814 C 0.59574 0.72485 0.25516 0.0
C815 C 0.62102 0.72643 0.26636 0.0
C816 C 0.63989 0.75281 0.25291 0.0
C817 C 0.65114 0.78318 0.27001 0.0
C818 C 0.66316 0.73142 0.2403 0.0
C819 C 0.62015 0.76809 0.23404 0.0
C820 C 0.59487 0.75131 0.23587 0.0
C821 C 0.5729 0.76063 0.22104 0.0
C822 C 0.57734 0.78632 0.20256 0.0
C823 C 0.60352 0.80205 0.19917 0.0
C824 C 0.62503 0.7938 0.21545 0.0
H825 H 0.90191 0.24676 0.31119 0.0
H826 H 0.85897 0.34113 0.28131 0.0
H827 H 0.85538 0.30994 0.24104 0.0
H828 H 0.9405 0.22082 0.25589 0.0
H829 H 0.93559 0.17194 0.25995 0.0
H830 H 0.93667 0.20187 0.28648 0.0
H831 H 0.88951 0.1767 0.30029 0.0
H832 H 0.88965 0.14643 0.27392 0.0
H833 H 0.86133 0.17728 0.27889 0.0
H834 H 0.85782 0.2734 0.20598 0.0
H835 H 0.86356 0.22898 0.1731 0.0
H836 H 0.90165 0.15168 0.22386 0.0
C837 C 0.89195 0.26036 0.29586 0.0
C838 C 0.88016 0.29564 0.29866 0.0
C839 C 0.86766 0.31389 0.27887 0.0
C840 C 0.86559 0.29641 0.25623 0.0
C841 C 0.87652 0.26109 0.25407 0.0
C842 C 0.88962 0.24295 0.27304 0.0
C843 C 0.89857 0.20433 0.26525 0.0
C844 C 0.92972 0.19955 0.26702 0.0
C845 C 0.88386 0.17442 0.28049 0.0
C846 C 0.88896 0.20466 0.23858 0.0
C847 C 0.87635 0.23785 0.23311 0.0
C848 C 0.86695 0.24689 0.20994 0.0
C849 C 0.87019 0.22131 0.19143 0.0
C850 C 0.882 0.18652 0.19621 0.0
C851 C 0.89204 0.17795 0.22002 0.0
H852 H 0.89824 0.66052 0.77525 0.0
H853 H 0.86623 0.73998 0.8278 0.0
H854 H 0.86266 0.78628 0.79542 0.0
H855 H 0.93948 0.72685 0.74037 0.0
H856 H 0.93215 0.70713 0.71055 0.0
H857 H 0.93224 0.67829 0.73756 0.0
H858 H 0.88319 0.65656 0.72743 0.0
H859 H 0.88344 0.68536 0.70037 0.0
H860 H 0.85667 0.69039 0.72291 0.0
H861 H 0.86182 0.8243 0.76011 0.0
H862 H 0.86248 0.8533 0.71879 0.0
H863 H 0.8966 0.75346 0.68768 0.0
C864 C 0.89075 0.6878 0.77969 0.0
C865 C 0.8821 0.69686 0.80387 0.0
C866 C 0.87231 0.73255 0.80925 0.0
C867 C 0.87039 0.75908 0.79108 0.0
C868 C 0.87882 0.74978 0.7676 0.0
C869 C 0.88885 0.71522 0.76148 0.0
C870 C 0.8962 0.71364 0.73424 0.0
C871 C 0.92685 0.70606 0.73047 0.0
C872 C 0.87882 0.68477 0.72044 0.0
C873 C 0.88855 0.75276 0.72673 0.0
C874 C 0.87864 0.77284 0.74642 0.0
C875 C 0.86941 0.8091 0.74436 0.0
C876 C 0.86968 0.82526 0.72111 0.0
C877 C 0.87869 0.8047 0.70068 0.0
C878 C 0.88901 0.7687 0.70342 0.0
H879 H 0.57196 0.29458 0.78638 0.0
H880 H 0.6585 0.29395 0.80364 0.0
H881 H 0.66681 0.25063 0.76963 0.0
H882 H 0.5564 0.21051 0.76816 0.0
H883 H 0.53931 0.21958 0.73936 0.0
H884 H 0.5404 0.25469 0.7628 0.0
H885 H 0.56845 0.30268 0.73129 0.0
H886 H 0.55698 0.26718 0.71039 0.0
H887 H 0.59232 0.28087 0.71155 0.0
H888 H 0.6647 0.19858 0.74071 0.0
H889 H 0.65592 0.15994 0.70392 0.0
H890 H 0.57165 0.19586 0.70322 0.0
C891 C 0.59269 0.28601 0.78253 0.0
C892 C 0.6144 0.29514 0.79871 0.0
C893 C 0.64143 0.28516 0.79238 0.0
C894 C 0.64637 0.26066 0.77312 0.0
C895 C 0.62415 0.24799 0.7597 0.0
C896 C 0.59826 0.26253 0.76253 0.0
C897 C 0.57907 0.2469 0.7431 0.0
C898 C 0.55221 0.23203 0.75406 0.0
C899 C 0.57374 0.27599 0.72292 0.0
C900 C 0.59692 0.21675 0.73251 0.0
C901 C 0.62318 0.21891 0.74176 0.0
C902 C 0.64439 0.19707 0.73289 0.0
C903 C 0.63929 0.17524 0.7122 0.0
C904 C 0.61333 0.17576 0.70092 0.0
C905 C 0.59149 0.19475 0.71201 0.0
H906 H 0.35747 0.25117 0.69289 0.0
H907 H 0.41261 0.33703 0.71935 0.0
H908 H 0.42304 0.3001 0.75544 0.0
H909 H 0.32822 0.23108 0.75158 0.0
H910 H 0.32556 0.1821 0.74625 0.0
H911 H 0.32435 0.21359 0.72063 0.0
H912 H 0.36505 0.17799 0.70034 0.0
H913 H 0.36536 0.14717 0.72643 0.0
H914 H 0.39602 0.17147 0.71777 0.0
H915 H 0.42812 0.25727 0.7877 0.0
H916 H 0.41964 0.21433 0.82175 0.0
H917 H 0.35887 0.15658 0.7783 0.0
C918 C 0.37159 0.26225 0.70632 0.0
C919 C 0.3854 0.29606 0.70253 0.0
C920 C 0.40305 0.31022 0.72096 0.0
C921 C 0.40914 0.2895 0.74163 0.0
C922 C 0.39661 0.25539 0.74402 0.0
C923 C 0.37753 0.2421 0.7275 0.0
C924 C 0.36526 0.20586 0.73623 0.0
C925 C 0.33399 0.20835 0.73884 0.0
C926 C 0.37342 0.17373 0.71917 0.0
C927 C 0.37929 0.20277 0.76099 0.0
C928 C 0.39817 0.23083 0.76426 0.0
C929 C 0.41341 0.23517 0.78557 0.0
C930 C 0.40839 0.21105 0.80474 0.0
C931 C 0.3883 0.18346 0.80237 0.0
C932 C 0.37396 0.17827 0.7802 0.0
H933 H 0.1118 0.74265 0.68682 0.0
H934 H 0.09499 0.63583 0.71936 0.0
H935 H 0.08838 0.66538 0.76011 0.0
H936 H 0.14912 0.78354 0.73379 0.0
H937 H 0.13354 0.82843 0.7312 0.0
H938 H 0.13493 0.79854 0.70478 0.0
H939 H 0.08187 0.80407 0.7004 0.0
H940 H 0.08174 0.83416 0.72689 0.0
H941 H 0.06058 0.79346 0.72657 0.0
H942 H 0.08644 0.7047 0.7962 0.0
H943 H 0.09343 0.7518 0.82844 0.0
H944 H 0.11048 0.83426 0.7728 0.0
C945 C 0.10707 0.72577 0.70273 0.0
C946 C 0.10424 0.68733 0.70056 0.0
C947 C 0.0974 0.66544 0.72121 0.0
C948 C 0.09325 0.68197 0.7441 0.0
C949 C 0.09555 0.72026 0.74552 0.0
C950 C 0.10222 0.74204 0.72547 0.0
C951 C 0.1043 0.78253 0.73231 0.0
C952 C 0.13214 0.79919 0.72511 0.0
C953 C 0.08071 0.80485 0.72086 0.0
C954 C 0.10089 0.77928 0.75989 0.0
C955 C 0.09458 0.7434 0.76678 0.0
C956 C 0.09139 0.73282 0.79117 0.0
C957 C 0.09574 0.75932 0.80922 0.0
C958 C 0.1034 0.79546 0.80265 0.0
C959 C 0.10521 0.80622 0.77782 0.0
H960 H 0.00848 0.98403 0.43989 0.0
H961 H 0.03665 0.07055 0.46625 0.0
H962 H 0.01893 0.05569 0.50754 0.0
H963 H 0.95313 0.97749 0.47269 0.0
H964 H 0.95632 0.92914 0.47993 0.0
H965 H 0.97256 0.94754 0.45278 0.0
H966 H 0.01253 0.92193 0.4681 0.0
H967 H -0.0046 0.90337 0.49476 0.0
H968 H 0.02428 0.93374 0.49861 0.0
H969 H 0.99825 0.03458 0.5429 0.0
H970 H 0.97483 0.00124 0.57613 0.0
H971 H 0.96733 0.92469 0.52983 0.0
C972 C 0.01202 -0.0165 0.45441 0.0
C973 C 0.02416 0.01842 0.44964 0.0
C974 C 0.02744 0.04378 0.4693 0.0
C975 C 0.01719 0.03567 0.4928 0.0
C976 C 0.00403 0.00189 0.49644 0.0
C977 C 0.00098 0.99632 0.47815 0.0
C978 C 0.99317 0.96165 0.48746 0.0
C979 C 0.96726 0.9535 0.47231 0.0
C980 C 0.00583 0.9282 0.48723 0.0
C981 C 0.98613 0.97341 0.51368 0.0
C982 C 0.99675 -0.01184 0.51803 0.0
C983 C 0.99161 0.0064 0.54003 0.0
C984 C 0.97811 -0.01276 0.55874 0.0
C985 C 0.96923 0.97044 0.55593 0.0
C986 C 0.973 0.95327 0.53264 0.0
H987 H 0.44053 0.957 0.4718 0.0
H988 H 0.50997 0.97587 0.42354 0.0
H989 H 0.53691 -0.01773 0.45756 0.0
H990 H 0.44537 0.01123 0.5121 0.0
H991 H 0.44146 -0.01382 0.5406 0.0
H992 H 0.42606 0.98855 0.51253 0.0
H993 H 0.45321 0.92796 0.51952 0.0
H994 H 0.46758 0.94669 0.54748 0.0
H995 H 0.48972 0.93 0.52343 0.0
H996 H 0.55311 0.01468 0.49359 0.0
H997 H 0.56452 0.03713 0.53506 0.0
H998 H 0.48756 -0.00697 0.5624 0.0
C999 C 0.46121 0.9665 0.46867 0.0
C1000 C 0.47277 0.96633 0.44475 0.0
C1001 C 0.50024 0.97766 0.44142 0.0
C1002 C 0.51509 0.993 0.46061 0.0
C1003 C 0.50274 0.99523 0.48346 0.0
C1004 C 0.47704 0.98078 0.48814 0.0
C1005 C 0.47055 0.98349 0.51547 0.0
C1006 C 0.4449 -0.01678 0.52044 0.0
C1007 C 0.47024 0.94474 0.52717 0.0
C1008 C 0.49651 -0.01544 0.52426 0.0
C1009 C 0.5149 -0.00959 0.50547 0.0
C1010 C 0.53917 0.0099 0.50874 0.0
C1011 C 0.54534 0.02288 0.53231 0.0
C1012 C 0.52713 0.01658 0.55213 0.0
C1013 C 0.50225 -0.0024 0.54785 0.0
H1014 H 0.50801 0.02221 0.94321 0.0
H1015 H 0.42197 0.01219 0.96077 0.0
H1016 H 0.43313 -0.01237 0.00309 0.0
H1017 H 0.53181 0.96209 0.96997 0.0
H1018 H 0.56223 0.98281 0.98262 0.0
H1019 H 0.54778 -0.0184 0.95564 0.0
H1020 H 0.54448 0.04513 0.97835 0.0
H1021 H 0.5599 0.02656 0.00652 0.0
H1022 H 0.52737 0.04927 0.00975 0.0
H1023 H 0.45205 0.97362 0.03681 0.0
H1024 H 0.47998 0.94706 0.07004 0.0
H1025 H 0.55382 0.98442 0.03369 0.0
C1026 C 0.49181 0.01454 0.95581 0.0
C1027 C 0.4641 0.01814 0.94898 0.0
C1028 C 0.44323 0.00915 0.96587 0.0
C1029 C 0.44982 -0.00603 0.98878 0.0
C1030 C 0.47733 -0.01109 0.99442 0.0
C1031 C 0.4981 0.00013 0.97894 0.0
C1032 C 0.52601 -0.00711 0.99019 0.0
C1033 C 0.54233 0.98876 0.9736 0.0
C1034 C 0.54067 0.02963 0.99571 0.0
C1035 C 0.51547 0.99596 0.01532 0.0
C1036 C 0.48728 0.99402 0.01708 0.0
C1037 C 0.47409 0.97558 0.03605 0.0
C1038 C 0.49004 0.96018 0.05455 0.0
C1039 C 0.51874 0.964 0.05425 0.0
C1040 C 0.53185 0.98112 0.03408 0.0
H1041 H 0.96555 0.05415 0.02991 0.0
H1042 H 0.97816 0.97804 0.07538 0.0
H1043 H -0.00308 0.94898 0.04207 0.0
H1044 H 0.95354 -0.00355 0.97207 0.0
H1045 H 0.96926 0.02914 0.95142 0.0
H1046 H 0.95317 0.04501 0.97933 0.0
H1047 H 0.99766 0.07767 0.99201 0.0
H1048 H 0.00732 0.06167 0.96426 0.0
H1049 H 0.02229 0.0518 0.9939 0.0
H1050 H 0.02331 0.93141 0.00744 0.0
H1051 H 0.03987 0.91419 0.96439 0.0
H1052 H 0.00747 -0.00325 0.93703 0.0
C1053 C 0.97341 0.02651 0.03246 0.0
C1054 C 0.97162 0.00854 0.05561 0.0
C1055 C 0.98034 0.99287 0.05816 0.0
C1056 C 0.99496 0.97614 0.03942 0.0
C1057 C -0.00859 0.99526 0.01756 0.0
C1058 C 0.98733 0.00838 0.01325 0.0
C1059 C 0.99286 0.01836 0.98502 0.0
C1060 C 0.96558 0.02245 0.97114 0.0
C1061 C 0.00267 0.05452 0.98375 0.0
C1062 C 0.00267 -0.01455 0.97567 0.0
C1063 C 0.0059 0.98101 0.99423 0.0
C1064 C 0.02051 0.94854 0.99079 0.0
C1065 C 0.02967 0.94029 0.96717 0.0
C1066 C 0.02406 0.96438 0.94727 0.0
C1067 C 0.01036 0.99827 0.95178 0.0
H1068 H 0.52303 0.56715 0.46961 0.0
H1069 H 0.52142 0.46575 0.42716 0.0
H1070 H 0.49859 0.43363 0.46139 0.0
H1071 H 0.53711 0.52247 0.52936 0.0
H1072 H 0.51574 0.55359 0.54666 0.0
H1073 H 0.53226 0.56925 0.51891 0.0
H1074 H 0.48552 0.5891 0.50151 0.0
H1075 H 0.46887 0.5729 0.52907 0.0
H1076 H 0.45818 0.55585 0.49937 0.0
H1077 H 0.47241 0.41327 0.49797 0.0
H1078 H 0.4539 0.40232 0.53988 0.0
H1079 H 0.47473 0.51465 0.56019 0.0
C1080 C 0.51856 0.53798 0.46795 0.0
C1081 C 0.52371 0.51886 0.44568 0.0
C1082 C 0.51737 0.48078 0.44403 0.0
C1083 C 0.50419 0.46241 0.46324 0.0
C1084 C 0.49794 0.48226 0.48436 0.0
C1085 C 0.50558 0.51889 0.48731 0.0
C1086 C 0.49707 0.53299 0.51256 0.0
C1087 C 0.52204 0.54527 0.52777 0.0
C1088 C 0.47616 0.56457 0.51048 0.0
C1089 C 0.48404 0.49826 0.52307 0.0
C1090 C 0.48403 0.4697 0.50623 0.0
C1091 C 0.47259 0.43521 0.51152 0.0
C1092 C 0.46197 0.42927 0.53522 0.0
C1093 C 0.46329 0.45758 0.55318 0.0
C1094 C 0.47392 0.49254 0.54678 0.0
H1095 H 0.03614 0.47687 0.54773 0.0
H1096 H -0.00282 0.58391 0.54963 0.0
H1097 H 0.97687 0.5676 0.51252 0.0
H1098 H 0.0416 0.46666 0.48121 0.0
H1099 H 0.03349 0.41811 0.48162 0.0
H1100 H 0.04985 0.43905 0.50785 0.0
H1101 H 0.01096 0.41453 0.5357 0.0
H1102 H -0.00527 0.39417 0.50915 0.0
H1103 H 0.98274 0.42577 0.52844 0.0
H1104 H 0.95319 0.53899 0.47659 0.0
H1105 H 0.93886 0.50345 0.43967 0.0
H1106 H 0.99341 0.41484 0.46016 0.0
C1107 C 0.02238 0.49696 0.53976 0.0
C1108 C 0.01885 0.53184 0.55089 0.0
C1109 C 0.00039 0.55751 0.54071 0.0
C1110 C 0.99153 0.54823 0.51995 0.0
C1111 C 0.99491 0.51321 0.50963 0.0
C1112 C 0.00683 0.48807 0.51889 0.0
C1113 C 0.00632 0.45218 0.50429 0.0
C1114 C 0.03449 0.44354 0.49306 0.0
C1115 C -0.00359 0.41977 0.52036 0.0
C1116 C 0.99201 0.46187 0.48472 0.0
C1117 C 0.98127 0.49671 0.48868 0.0
C1118 C 0.96144 0.51175 0.47324 0.0
C1119 C 0.95324 0.49139 0.45251 0.0
C1120 C 0.96477 0.45644 0.44751 0.0
C1121 C 0.98399 0.44123 0.46404 0.0
H1122 H 0.05019 0.46212 0.03099 0.0
H1123 H 0.98281 0.44428 0.0731 0.0
H1124 H 0.95524 0.46823 0.0388 0.0
H1125 H 0.03536 0.54069 0.9971 0.0
H1126 H 0.04731 0.52619 0.9672 0.0
H1127 H 0.0619 0.5064 0.99463 0.0
H1128 H 0.04967 0.44085 0.97848 0.0
H1129 H 0.03505 0.46098 0.9511 0.0
H1130 H 0.01488 0.43054 0.97004 0.0
H1131 H 0.9362 0.50262 0.00378 0.0
H1132 H 0.92562 0.52811 0.96158 0.0
H1133 H 0.00401 0.51972 0.94006 0.0
C1134 C 0.02816 0.46269 0.03259 0.0
C1135 C 0.0151 0.45255 0.05484 0.0
C1136 C 0.99299 0.45288 0.05633 0.0
C1137 C 0.97722 0.46654 0.03705 0.0
C1138 C 0.99054 0.47877 0.01604 0.0
C1139 C 0.01183 0.47552 0.01303 0.0
C1140 C 0.0209 0.48591 0.98567 0.0
C1141 C 0.04266 0.51664 0.98622 0.0
C1142 C 0.0307 0.4526 0.97042 0.0
C1143 C -0.00636 0.49993 0.97614 0.0
C1144 C 0.97968 0.49403 0.99293 0.0
C1145 C 0.95278 0.50483 0.98848 0.0
C1146 C 0.94656 0.52071 0.96562 0.0
C1147 C 0.96719 0.52531 0.94766 0.0
C1148 C 0.99447 0.51565 0.95331 0.0
H1149 H 0.50704 0.41377 0.9647 0.0
H1150 H 0.5487 0.51066 0.93703 0.0
H1151 H 0.53268 0.54668 0.9729 0.0
H1152 H 0.44805 0.45394 0.98755 0.0
H1153 H 0.44536 0.42938 0.01727 0.0
H1154 H 0.46318 0.40865 0.98904 0.0
H1155 H 0.50584 0.40046 0.01664 0.0
H1156 H 0.48847 0.41882 0.04323 0.0
H1157 H 0.52059 0.4384 0.03354 0.0
H1158 H 0.50615 0.57651 0.00824 0.0
H1159 H 0.4796 0.59283 0.04541 0.0
H1160 H 0.45603 0.47828 0.05425 0.0
C1161 C 0.51339 0.44222 0.96686 0.0
C1162 C 0.52913 0.4598 0.94845 0.0
C1163 C 0.53683 0.4971 0.95125 0.0
C1164 C 0.52764 0.51768 0.97136 0.0
C1165 C 0.51086 0.50036 0.98852 0.0
C1166 C 0.50445 0.46318 0.98708 0.0
C1167 C 0.48565 0.45359 0.01023 0.0
C1168 C 0.45859 0.43642 0.00129 0.0
C1169 C 0.50106 0.42623 0.02691 0.0
C1170 C 0.48144 0.49101 0.02276 0.0
C1171 C 0.49587 0.51848 0.01075 0.0
C1172 C 0.4949 0.55539 0.01806 0.0
C1173 C 0.47948 0.56459 0.03884 0.0
C1174 C 0.46563 0.53698 0.05222 0.0
C1175 C 0.46629 0.4998 0.04394 0.0
H1176 H 0.19522 0.02324 0.34993 0.0
H1177 H 0.18326 0.03914 0.4289 0.0
H1178 H 0.2271 0.01008 0.4369 0.0
H1179 H 0.21881 0.95344 0.35408 0.0
H1180 H 0.24325 0.95902 0.32951 0.0
H1181 H 0.2126 0.98638 0.32981 0.0
H1182 H 0.24379 0.02585 0.32814 0.0
H1183 H 0.27413 -0.00226 0.32771 0.0
H1184 H 0.26993 0.03259 0.35112 0.0
H1185 H 0.26867 0.99431 0.4371 0.0
H1186 H 0.3104 0.9594 0.42881 0.0
H1187 H 0.29107 0.95836 0.35048 0.0
C1188 C 0.20143 0.02043 0.36897 0.0
C1189 C 0.18505 0.03343 0.38857 0.0
C1190 C 0.19509 0.03035 0.41315 0.0
C1191 C 0.22002 0.01322 0.4181 0.0
C1192 C 0.2345 -0.00147 0.39843 0.0
C1193 C 0.22577 0.00222 0.37437 0.0
C1194 C 0.24485 -0.01697 0.35666 0.0
C1195 C 0.22865 0.9739 0.34164 0.0
C1196 C 0.25901 0.01148 0.33991 0.0
C1197 C 0.26358 0.98712 0.37464 0.0
C1198 C 0.25751 0.99703 0.39861 0.0
C1199 C 0.27361 0.98623 0.4184 0.0
C1200 C 0.29713 0.96583 0.41344 0.0
C1201 C 0.30412 0.95586 0.38888 0.0
C1202 C 0.28658 0.96585 0.36937 0.0
H1203 H 0.79518 0.03506 0.08252 0.0
H1204 H 0.81105 0.02259 0.16103 0.0
H1205 H 0.77181 1.00033 0.16435 0.0
H1206 H 0.71916 0.03931 0.09425 0.0
H1207 H 0.71022 0.01686 0.0657 0.0
H1208 H 0.74069 0.04461 0.0675 0.0
H1209 H 0.76884 -0.01166 0.05195 0.0
H1210 H 0.73676 0.98179 0.05081 0.0
H1211 H 0.76563 0.96609 0.06853 0.0
H1212 H 0.73978 0.95131 0.15911 0.0
H1213 H 0.69421 0.92455 0.15323 0.0
H1214 H 0.68828 0.97784 0.08168 0.0
C1215 C 0.79038 0.02371 0.10046 0.0
C1216 C 0.8082 0.02869 0.1211 0.0
C1217 C 0.79962 0.01602 0.14449 0.0
C1218 C 0.77806 -0.00854 0.14662 0.0
C1219 C 0.76336 -0.01725 0.12562 0.0
C1220 C 0.76714 0.0009 0.10348 0.0
C1221 C 0.7441 -0.00932 0.08557 0.0
C1222 C 0.72755 0.02491 0.07782 0.0
C1223 C 0.75387 0.99091 0.06286 0.0
C1224 C 0.72602 0.98549 0.10179 0.0
C1225 C 0.73895 0.9797 0.12404 0.0
C1226 C 0.72875 0.95635 0.14215 0.0
C1227 C 0.70296 0.94134 0.13869 0.0
C1228 C 0.68761 0.95061 0.11759 0.0
C1229 C 0.69971 0.97106 0.09816 0.0
H1230 H 0.68981 0.0084 0.58052 0.0
H1231 H 0.69515 0.05948 0.65284 0.0
H1232 H 0.74039 0.03182 0.65896 0.0
H1233 H 0.71863 0.94566 0.59174 0.0
H1234 H 0.73982 0.94276 0.56464 0.0
H1235 H 0.70915 0.9701 0.56407 0.0
H1236 H 0.73906 0.00677 0.55071 0.0
H1237 H 0.76797 0.99912 0.55099 0.0
H1238 H 0.76823 0.02019 0.56893 0.0
H1239 H 0.77218 -0.01838 0.66387 0.0
H1240 H 0.80894 0.95956 0.65978 0.0
H1241 H 0.79383 0.95134 0.58091 0.0
C1242 C 0.70101 0.01443 0.59727 0.0
C1243 C 0.6887 0.03449 0.61683 0.0
C1244 C 0.70392 0.0429 0.63821 0.0
C1245 C 0.72954 0.02739 0.64182 0.0
C1246 C 0.73984 0.00444 0.62354 0.0
C1247 C 0.72728 -0.00025 0.60097 0.0
C1248 C 0.74312 0.99528 0.5845 0.0
C1249 C 0.72668 0.96144 0.57573 0.0
C1250 C 0.75593 -0.00377 0.56247 0.0
C1251 C 0.76573 0.98431 0.60246 0.0
C1252 C 0.76165 1.00129 0.62496 0.0
C1253 C 0.77607 0.99144 0.64591 0.0
C1254 C 0.79763 0.967 0.64335 0.0
C1255 C 0.80632 0.95552 0.61969 0.0
C1256 C 0.78885 0.96168 0.59908 0.0
H1257 H 0.28008 0.05639 0.86278 0.0
H1258 H 0.32922 -0.0136 0.90991 0.0
H1259 H 0.28877 0.96507 0.91582 0.0
H1260 H 0.21451 0.04739 0.89401 0.0
H1261 H 0.19579 0.04451 0.86544 0.0
H1262 H 0.22738 0.06985 0.86669 0.0
H1263 H 0.24554 0.02997 0.83046 0.0
H1264 H 0.21415 0.00399 0.82993 0.0
H1265 H 0.245 1.00124 0.83351 0.0
H1266 H 0.24556 0.92735 0.91313 0.0
H1267 H 0.1991 0.90169 0.90639 0.0
H1268 H 0.17798 0.99877 0.86355 0.0
C1269 C 0.28218 0.03256 0.87469 0.0
C1270 C 0.30727 0.02404 0.88587 0.0
C1271 C 0.30983 -0.00716 0.90127 0.0
C1272 C 0.28656 0.98964 0.90466 0.0
C1273 C 0.26214 0.99781 0.89279 0.0
C1274 C 0.26026 0.00849 0.87848 0.0
C1275 C 0.23235 0.0097 0.86668 0.0
C1276 C 0.21658 0.04495 0.87366 0.0
C1277 C 0.23474 0.0058 0.83849 0.0
C1278 C 0.21862 0.99612 0.87782 0.0
C1279 C 0.23709 0.9768 0.89205 0.0
C1280 C 0.2307 0.94257 0.90243 0.0
C1281 C 0.20434 0.92825 0.89854 0.0
C1282 C 0.18493 0.94841 0.88449 0.0
C1283 C 0.19239 0.9826 0.87415 0.0
H1284 H 0.80249 0.47293 0.35605 0.0
H1285 H 0.79188 0.40543 0.42227 0.0
H1286 H 0.74786 0.43538 0.42893 0.0
H1287 H 0.77563 0.55565 0.37538 0.0
H1288 H 0.75823 0.56469 0.34672 0.0
H1289 H 0.78886 0.53736 0.34686 0.0
H1290 H 0.76285 0.48366 0.32501 0.0
H1291 H 0.73253 0.51175 0.3246 0.0
H1292 H 0.7316 0.4665 0.33836 0.0
H1293 H 0.70731 0.47667 0.43071 0.0
H1294 H 0.6676 0.5162 0.42257 0.0
H1295 H 0.70482 0.55454 0.35458 0.0
C1296 C 0.79199 0.46365 0.37227 0.0
C1297 C 0.80277 0.43763 0.38932 0.0
C1298 C 0.78574 0.42638 0.40929 0.0
C1299 C 0.76036 0.44326 0.41333 0.0
C1300 C 0.75198 0.47075 0.39708 0.0
C1301 C 0.76688 0.47996 0.37654 0.0
C1302 C 0.75252 0.50844 0.36071 0.0
C1303 C 0.76986 0.54361 0.35724 0.0
C1304 C 0.7444 0.49158 0.3357 0.0
C1305 C 0.72768 0.51545 0.37646 0.0
C1306 C 0.72783 0.49329 0.39729 0.0
C1307 C 0.70684 0.49393 0.41443 0.0
C1308 C 0.68452 0.51664 0.40969 0.0
C1309 C 0.68324 0.53807 0.38787 0.0
C1310 C 0.70536 0.53819 0.37129 0.0
H1311 H 0.29448 0.52854 0.15048 0.0
H1312 H 0.29941 0.5593 0.07271 0.0
H1313 H 0.25528 0.53116 0.06562 0.0
H1314 H 0.27014 0.43798 0.13996 0.0
H1315 H 0.24811 0.43819 0.16657 0.0
H1316 H 0.27862 0.46598 0.16639 0.0
H1317 H 0.24872 0.52454 0.17583 0.0
H1318 H 0.2186 0.49588 0.17583 0.0
H1319 H 0.22057 0.53529 0.15566 0.0
H1320 H 0.21334 0.49348 0.0651 0.0
H1321 H 0.17246 0.45624 0.07323 0.0
H1322 H 0.19813 0.44149 0.14936 0.0
C1323 C 0.28691 0.52901 0.13176 0.0
C1324 C 0.30165 0.5456 0.11226 0.0
C1325 C 0.28931 0.54733 0.08847 0.0
C1326 C 0.26409 0.53074 0.08393 0.0
C1327 C 0.25168 0.51179 0.10309 0.0
C1328 C 0.26245 0.51108 0.12657 0.0
C1329 C 0.24521 0.48799 0.14378 0.0
C1330 C 0.26151 0.45563 0.15481 0.0
C1331 C 0.23253 0.51237 0.16397 0.0
C1332 C 0.22376 0.47456 0.12595 0.0
C1333 C 0.22768 0.48908 0.10267 0.0
C1334 C 0.21001 0.48184 0.08324 0.0
C1335 C 0.18705 0.46022 0.08801 0.0
C1336 C 0.18219 0.44598 0.11199 0.0
C1337 C 0.20124 0.45234 0.13096 0.0
H1338 H 0.28884 0.4377 0.64491 0.0
H1339 H 0.30781 0.44565 0.56679 0.0
H1340 H 0.2689 0.48754 0.56112 0.0
H1341 H 0.21817 0.44113 0.64357 0.0
H1342 H 0.21353 0.47263 0.66896 0.0
H1343 H 0.24336 0.44377 0.66778 0.0
H1344 H 0.27475 0.50191 0.67066 0.0
H1345 H 0.24459 0.53032 0.67236 0.0
H1346 H 0.26992 0.53906 0.64899 0.0
H1347 H 0.22693 0.52318 0.56279 0.0
H1348 H 0.18289 0.55054 0.57124 0.0
H1349 H 0.19451 0.53082 0.6499 0.0
C1350 C 0.28451 0.44791 0.62655 0.0
C1351 C 0.30103 0.43775 0.60607 0.0
C1352 C 0.29491 0.45188 0.58247 0.0
C1353 C 0.27331 0.47646 0.57922 0.0
C1354 C 0.25827 0.48705 0.5998 0.0
C1355 C 0.26366 0.47373 0.62312 0.0
C1356 C 0.24427 0.49036 0.64201 0.0
C1357 C 0.22891 0.46017 0.65642 0.0
C1358 C 0.2593 0.51697 0.65954 0.0
C1359 C 0.22555 0.51181 0.62508 0.0
C1360 C 0.23462 0.51036 0.60099 0.0
C1361 C 0.21996 0.52556 0.58167 0.0
C1362 C 0.19485 0.54168 0.58689 0.0
C1363 C 0.18479 0.54364 0.61149 0.0
C1364 C 0.20104 0.52951 0.63088 0.0
H1365 H 0.69378 0.45241 0.91966 0.0
H1366 H 0.69036 0.42425 0.84178 0.0
H1367 H 0.73372 0.45638 0.83501 0.0
H1368 H 0.72315 0.53831 0.91887 0.0
H1369 H 0.74853 0.5323 0.94261 0.0
H1370 H 0.71802 0.50445 0.9428 0.0
H1371 H 0.74803 0.44492 0.94289 0.0
H1372 H 0.77809 0.47374 0.94316 0.0
H1373 H 0.77381 0.43935 0.91946 0.0
H1374 H 0.76425 0.50831 0.83367 0.0
H1375 H 0.80427 0.54755 0.8394 0.0
H1376 H 0.79965 0.53068 0.91873 0.0
C1377 C 0.70267 0.45226 0.90138 0.0
C1378 C 0.68791 0.43821 0.88074 0.0
C1379 C 0.70059 0.43683 0.8574 0.0
C1380 C 0.72515 0.45495 0.85337 0.0
C1381 C 0.73741 0.47263 0.87318 0.0
C1382 C 0.72828 0.46902 0.89711 0.0
C1383 C 0.74807 0.48841 0.91481 0.0
C1384 C 0.73355 0.5176 0.93071 0.0
C1385 C 0.76288 0.45991 0.93105 0.0
C1386 C 0.76775 0.50616 0.89639 0.0
C1387 C 0.76013 0.49728 0.87263 0.0
C1388 C 0.77199 0.51335 0.85207 0.0
C1389 C 0.79466 0.53565 0.85555 0.0
C1390 C 0.80653 0.53926 0.87918 0.0
C1391 C 0.79179 0.52681 0.90025 0.0
H1392 H 0.01912 0.15984 0.43495 0.0
H1393 H 0.072 0.2067 0.37902 0.0
H1394 H 0.04325 0.26174 0.37691 0.0
H1395 H 0.96493 0.18103 0.41311 0.0
H1396 H 0.949 0.19577 0.44147 0.0
H1397 H 0.97742 0.16452 0.44237 0.0
H1398 H -0.00315 0.20983 0.47137 0.0
H1399 H 0.97454 0.24044 0.47043 0.0
H1400 H 0.00121 0.25719 0.4621 0.0
H1401 H 0.0133 0.31075 0.3834 0.0
H1402 H 0.98332 0.35281 0.39165 0.0
H1403 H 0.93718 0.26591 0.42823 0.0
C1404 C 0.02519 0.18288 0.42346 0.0
C1405 C 0.04685 0.17969 0.40675 0.0
C1406 C 0.05521 0.2095 0.39188 0.0
C1407 C 0.0388 0.24037 0.39027 0.0
C1408 C 0.01553 0.24101 0.40481 0.0
C1409 C 0.00887 0.21396 0.42162 0.0
C1410 C 0.98857 0.22188 0.43414 0.0
C1411 C 0.9688 0.18883 0.43262 0.0
C1412 C 0.99396 0.23297 0.4611 0.0
C1413 C 0.97978 0.25539 0.41928 0.0
C1414 C -0.00567 0.26687 0.40421 0.0
C1415 C -0.00412 0.30152 0.39402 0.0
C1416 C 0.98181 0.32528 0.39941 0.0
C1417 C 0.95657 0.31046 0.40723 0.0
C1418 C 0.95571 0.27635 0.41985 0.0
H1419 H 0.44104 0.78815 0.43886 0.0
H1420 H 0.43205 0.7871 0.35959 0.0
H1421 H 0.4766 0.75725 0.35515 0.0
H1422 H 0.50591 0.78012 0.45528 0.0
H1423 H 0.50611 0.73707 0.47192 0.0
H1424 H 0.47495 0.76318 0.46939 0.0
H1425 H 0.45166 0.70388 0.45082 0.0
H1426 H 0.48351 0.67922 0.45288 0.0
H1427 H 0.46622 0.68302 0.42368 0.0
H1428 H 0.5293 0.75691 0.36294 0.0
H1429 H 0.56879 0.71711 0.3715 0.0
H1430 H 0.53283 0.68454 0.4411 0.0
C1431 C 0.44769 0.77977 0.42068 0.0
C1432 C 0.4368 0.79582 0.39908 0.0
C1433 C 0.4428 0.77905 0.37613 0.0
C1434 C 0.46834 0.76308 0.37326 0.0
C1435 C 0.48287 0.75603 0.39463 0.0
C1436 C 0.47062 0.75711 0.41752 0.0
C1437 C 0.48675 0.73401 0.43571 0.0
C1438 C 0.49383 0.7549 0.45948 0.0
C1439 C 0.47113 0.69789 0.44109 0.0
C1440 C 0.512 0.72655 0.42037 0.0
C1441 C 0.50959 0.7418 0.39718 0.0
C1442 C 0.53087 0.74234 0.38031 0.0
C1443 C 0.55346 0.72065 0.38571 0.0
C1444 C 0.55184 0.69576 0.40572 0.0
C1445 C 0.53346 0.70238 0.42509 0.0
H1446 H 0.5175 0.83145 0.07142 0.0
H1447 H 0.57776 0.77444 0.11572 0.0
H1448 H 0.54948 0.71805 0.11493 0.0
H1449 H 0.46045 0.80285 0.10019 0.0
H1450 H 0.43987 0.79643 0.07289 0.0
H1451 H 0.46798 0.8283 0.07245 0.0
H1452 H 0.48849 0.79389 0.03473 0.0
H1453 H 0.45983 0.76254 0.03542 0.0
H1454 H 0.49417 0.74486 0.0365 0.0
H1455 H 0.51907 0.66829 0.10345 0.0
H1456 H 0.47945 0.62904 0.09782 0.0
H1457 H 0.43014 0.724 0.07791 0.0
C1458 C 0.52515 0.8063 0.07973 0.0
C1459 C 0.54948 0.80627 0.09329 0.0
C1460 C 0.55932 0.77389 0.10466 0.0
C1461 C 0.54324 0.74226 0.1047 0.0
C1462 C 0.51816 0.74405 0.09278 0.0
C1463 C 0.50893 0.77499 0.0806 0.0
C1464 C 0.48009 0.77 0.07108 0.0
C1465 C 0.46097 0.80122 0.07974 0.0
C1466 C 0.48068 0.7677 0.04277 0.0
C1467 C 0.47381 0.73233 0.08206 0.0
C1468 C 0.49726 0.71723 0.09223 0.0
C1469 C 0.50001 0.68007 0.09715 0.0
C1470 C 0.47756 0.658 0.09313 0.0
C1471 C 0.45173 0.67476 0.0907 0.0
C1472 C 0.44965 0.71151 0.08217 0.0
H1473 H 0.94033 0.20189 0.06498 0.0
H1474 H 0.93918 0.19696 0.14443 0.0
H1475 H 0.98571 0.22211 0.14625 0.0
H1476 H -0.00186 0.21235 0.04251 0.0
H1477 H -0.00356 0.25804 0.02945 0.0
H1478 H 0.97246 0.23093 0.03262 0.0
H1479 H 0.9512 0.28605 0.05754 0.0
H1480 H 0.9826 0.31159 0.05462 0.0
H1481 H 0.9686 0.30248 0.0847 0.0
H1482 H 0.03046 0.22312 0.13502 0.0
H1483 H 0.06702 0.26822 0.12755 0.0
H1484 H 0.02529 0.30632 0.06192 0.0
C1485 C 0.94959 0.20736 0.08274 0.0
C1486 C 0.94026 0.1902 0.10459 0.0
C1487 C 0.94889 0.20529 0.12736 0.0
C1488 C 0.97561 0.21809 0.12868 0.0
C1489 C 0.98852 0.22541 0.10645 0.0
C1490 C 0.97384 0.22781 0.08478 0.0
C1491 C 0.98782 0.25425 0.06714 0.0
C1492 C 0.99232 0.23785 0.0414 0.0
C1493 C 0.97162 0.29075 0.06593 0.0
C1494 C 0.00789 0.25964 0.08069 0.0
C1495 C 0.00811 0.24042 0.10266 0.0
C1496 C 0.03034 0.23986 0.11848 0.0
C1497 C 0.05118 0.26485 0.11376 0.0
C1498 C 0.0474 0.29157 0.09512 0.0
C1499 C 0.02788 0.28623 0.07652 0.0
H1500 H 0.93781 0.77682 0.56801 0.0
H1501 H 0.98481 0.86467 0.60156 0.0
H1502 H 0.01278 0.82142 0.61451 0.0
H1503 H 0.96477 0.6889 0.58577 0.0
H1504 H 0.97737 0.67427 0.55612 0.0
H1505 H 0.94886 0.7054 0.55782 0.0
H1506 H 0.97552 0.75155 0.52978 0.0
H1507 H -0.00267 0.72009 0.52876 0.0
H1508 H 0.00228 0.76688 0.53906 0.0
H1509 H 0.04026 0.76996 0.62585 0.0
H1510 H 0.07079 0.71647 0.62257 0.0
H1511 H 0.02059 0.67119 0.56401 0.0
C1512 C 0.95593 0.78666 0.57739 0.0
C1513 C 0.95717 0.8219 0.58836 0.0
C1514 C 0.98273 0.83625 0.59567 0.0
C1515 C -0.00472 0.81177 0.60413 0.0
C1516 C -0.0075 0.77551 0.59681 0.0
C1517 C 0.97881 0.76405 0.58075 0.0
C1518 C 0.98844 0.73101 0.56595 0.0
C1519 C 0.96865 0.69795 0.56651 0.0
C1520 C 0.9946 0.74307 0.53931 0.0
C1521 C 0.00811 0.7231 0.5794 0.0
C1522 C 0.01355 0.74932 0.59714 0.0
C1523 C 0.03664 0.74905 0.61196 0.0
C1524 C 0.05412 0.71932 0.60954 0.0
C1525 C 0.04705 0.69023 0.59349 0.0
C1526 C 0.02566 0.6935 0.57652 0.0
H1527 H 0.4351 0.26784 0.56777 0.0
H1528 H 0.45138 0.30512 0.64251 0.0
H1529 H 0.49795 0.28204 0.63981 0.0
H1530 H 0.46695 0.18057 0.57729 0.0
H1531 H 0.4824 0.17562 0.54728 0.0
H1532 H 0.45188 0.2025 0.5507 0.0
H1533 H 0.47652 0.25919 0.53092 0.0
H1534 H 0.50681 0.23131 0.52751 0.0
H1535 H 0.50854 0.27464 0.54372 0.0
H1536 H 0.54218 0.25989 0.63019 0.0
H1537 H 0.57227 0.20642 0.6265 0.0
H1538 H 0.52736 0.16902 0.56245 0.0
C1539 C 0.4485 0.2703 0.58358 0.0
C1540 C 0.44046 0.29004 0.60499 0.0
C1541 C 0.45773 0.29125 0.62574 0.0
C1542 C 0.48444 0.27917 0.62414 0.0
C1543 C 0.49305 0.26326 0.60222 0.0
C1544 C 0.47525 0.2558 0.58297 0.0
C1545 C 0.48883 0.22989 0.56446 0.0
C1546 C 0.4715 0.19506 0.55969 0.0
C1547 C 0.49555 0.24997 0.54022 0.0
C1548 C 0.51519 0.22134 0.57811 0.0
C1549 C 0.51828 0.24437 0.59824 0.0
C1550 C 0.54008 0.24152 0.61456 0.0
C1551 C 0.55722 0.21125 0.6122 0.0
C1552 C 0.5511 0.18364 0.59472 0.0
C1553 C 0.53191 0.1902 0.57593 0.0
H1554 H 0.44702 0.18624 0.93933 0.0
H1555 H 0.43256 0.19771 0.86121 0.0
H1556 H 0.47794 0.22546 0.85572 0.0
H1557 H 0.47344 0.2866 0.93623 0.0
H1558 H 0.49575 0.28105 0.96243 0.0
H1559 H 0.46411 0.25582 0.96097 0.0
H1560 H 0.49057 0.19358 0.96607 0.0
H1561 H 0.52201 0.21946 0.96792 0.0
H1562 H 0.51826 0.18342 0.94526 0.0
H1563 H 0.53008 0.22554 0.85915 0.0
H1564 H 0.56665 0.27065 0.86508 0.0
H1565 H 0.53728 0.29314 0.93897 0.0
C1566 C 0.45293 0.19624 0.92129 0.0
C1567 C 0.43947 0.18443 0.89965 0.0
C1568 C 0.44485 0.20318 0.87737 0.0
C1569 C 0.47092 0.21738 0.87386 0.0
C1570 C 0.48758 0.21977 0.89451 0.0
C1571 C 0.47719 0.21621 0.91802 0.0
C1572 C 0.49608 0.23434 0.93664 0.0
C1573 C 0.48149 0.26639 0.94983 0.0
C1574 C 0.50738 0.206 0.95507 0.0
C1575 C 0.51853 0.24769 0.9194 0.0
C1576 C 0.51444 0.23393 0.89596 0.0
C1577 C 0.53301 0.23847 0.87697 0.0
C1578 C 0.55384 0.26371 0.88069 0.0
C1579 C 0.55266 0.28696 0.90154 0.0
C1580 C 0.53752 0.27625 0.9225 0.0
H1581 H 0.95601 0.70637 0.86582 0.0
H1582 H 0.93352 0.68906 0.94204 0.0
H1583 H 0.96522 0.73991 0.95445 0.0
H1584 H 0.0155 0.68779 0.88387 0.0
H1585 H 0.02832 0.71232 0.85737 0.0
H1586 H -0.00479 0.6911 0.85625 0.0
H1587 H 0.98381 0.75701 0.8432 0.0
H1588 H 0.01012 0.77784 0.84738 0.0
H1589 H 0.98785 0.79526 0.86417 0.0
H1590 H -0.0005 0.79075 0.95545 0.0
H1591 H 0.03938 0.83049 0.94512 0.0
H1592 H 0.0487 0.77328 0.87581 0.0
C1593 C 0.95729 0.7137 0.88519 0.0
C1594 C 0.94412 0.69275 0.90313 0.0
C1595 C 0.94457 0.70432 0.92807 0.0
C1596 C 0.96276 0.73271 0.9352 0.0
C1597 C 0.98076 0.74629 0.91727 0.0
C1598 C 0.97828 0.73594 0.89279 0.0
C1599 C -0.00304 0.74245 0.87811 0.0
C1600 C 0.00968 0.70626 0.86836 0.0
C1601 C 0.99771 0.76978 0.857 0.0
C1602 C 0.01441 0.75895 0.89786 0.0
C1603 C 0.00065 0.76323 0.92002 0.0
C1604 C 0.01081 0.78626 0.93857 0.0
C1605 C 0.03383 0.80799 0.93292 0.0
C1606 C 0.04624 0.80466 0.9095 0.0
C1607 C 0.03921 0.77575 0.89383 0.0
loop_
_geom_bond_atom_site_label_1
_geom_bond_atom_site_label_2
_geom_bond_distance
_geom_bond_site_symmetry_2
_ccdc_geom_bond_type
Co0 N4 2.148 . S
Co0 N10 2.128 . S
Co0 N20 2.194 . S
Co0 O25 2.351 . S
Co0 O26 2.155 . S
Co0 O27 2.096 . S
C1 N4 1.301 . S
C1 N5 1.328 . S
C1 H6 0.930 . S
C2 C3 1.333 . S
C2 N4 1.317 . S
C2 H7 0.930 . S
C3 C2 1.333 . S
C3 N5 1.350 . S
C3 H29 0.931 . S
N4 Co0 2.148 . S
N4 C1 1.301 . S
N4 C2 1.317 . S
N5 C1 1.328 . S
N5 C3 1.350 . S
H6 C1 0.930 . S
H7 C2 0.930 . S
C8 O9 1.224 . S
C8 O27 1.247 . S
O9 C8 1.224 . S
N10 Co0 2.128 . S
N10 C11 1.355 . S
N10 C13 1.311 . S
C11 N10 1.355 . S
C11 C12 1.363 . S
C11 H23 0.929 . S
C12 C11 1.363 . S
C12 N14 1.375 . S
C12 H30 0.931 . S
C13 N10 1.311 . S
C13 N14 1.347 . S
C13 H24 0.929 . S
N14 C12 1.375 . S
N14 C13 1.347 . S
C15 C18 1.365 . S
C15 N20 1.328 . S
C15 H21 0.929 . S
C16 C17 1.362 . S
C16 C19 1.378 . S
C16 H31 0.929 . S
C17 C16 1.362 . S
C17 C18 1.366 . S
C18 C15 1.365 . S
C18 C17 1.366 . S
C18 H32 0.930 . S
C19 C16 1.378 . S
C19 N20 1.315 . S
C19 H22 0.930 . S
N20 Co0 2.194 . S
N20 C15 1.328 . S
N20 C19 1.315 . S
H21 C15 0.929 . S
H22 C19 0.930 . S
H23 C11 0.929 . S
H24 C13 0.929 . S
O25 Co0 2.351 . S
O25 C28 1.244 . S
O26 Co0 2.155 . S
O26 C28 1.240 . S
O27 Co0 2.096 . S
O27 C8 1.247 . S
C28 O25 1.244 . S
C28 O26 1.240 . S
H29 C3 0.931 . S
H30 C12 0.931 . S
H31 C16 0.929 . S
H32 C18 0.930 . S
Co33 N37 2.148 . S
Co33 N43 2.128 . S
Co33 N53 2.194 . S
Co33 O58 2.351 . S
Co33 O59 2.155 . S
Co33 O60 2.096 . S
C34 N37 1.301 . S
C34 N38 1.328 . S
C34 H39 0.930 . S
C35 C36 1.333 . S
C35 N37 1.317 . S
C35 H40 0.930 . S
C36 C35 1.333 . S
C36 N38 1.350 . S
C36 H62 0.931 . S
N37 Co33 2.148 . S
N37 C34 1.301 . S
N37 C35 1.317 . S
N38 C34 1.328 . S
N38 C36 1.350 . S
H39 C34 0.930 . S
H40 C35 0.930 . S
C41 O42 1.224 . S
C41 O60 1.247 . S
O42 C41 1.224 . S
N43 Co33 2.128 . S
N43 C44 1.355 . S
N43 C46 1.311 . S
C44 N43 1.355 . S
C44 C45 1.363 . S
C44 H56 0.929 . S
C45 C44 1.363 . S
C45 N47 1.375 . S
C45 H63 0.931 . S
C46 N43 1.311 . S
C46 N47 1.347 . S
C46 H57 0.929 . S
N47 C45 1.375 . S
N47 C46 1.347 . S
C48 C51 1.365 . S
C48 N53 1.328 . S
C48 H54 0.929 . S
C49 C50 1.362 . S
C49 C52 1.378 . S
C49 H64 0.929 . S
C50 C49 1.362 . S
C50 C51 1.366 . S
C51 C48 1.365 . S
C51 C50 1.366 . S
C51 H65 0.930 . S
C52 C49 1.378 . S
C52 N53 1.315 . S
C52 H55 0.930 . S
N53 Co33 2.194 . S
N53 C48 1.328 . S
N53 C52 1.315 . S
H54 C48 0.929 . S
H55 C52 0.930 . S
H56 C44 0.929 . S
H57 C46 0.929 . S
O58 Co33 2.351 . S
O58 C61 1.244 . S
O59 Co33 2.155 . S
O59 C61 1.240 . S
O60 Co33 2.096 . S
O60 C41 1.247 . S
C61 O58 1.244 . S
C61 O59 1.240 . S
H62 C36 0.931 . S
H63 C45 0.931 . S
H64 C49 0.929 . S
H65 C51 0.930 . S
Co66 N70 2.148 . S
Co66 N76 2.128 . S
Co66 N86 2.194 . S
Co66 O91 2.351 . S
Co66 O92 2.155 . S
Co66 O93 2.096 . S
C67 N70 1.301 . S
C67 N71 1.328 . S
C67 H72 0.930 . S
C68 C69 1.333 . S
C68 N70 1.317 . S
C68 H73 0.930 . S
C69 C68 1.333 . S
C69 N71 1.350 . S
C69 H95 0.931 . S
N70 Co66 2.148 . S
N70 C67 1.301 . S
N70 C68 1.317 . S
N71 C67 1.328 . S
N71 C69 1.350 . S
H72 C67 0.930 . S
H73 C68 0.930 . S
C74 O75 1.224 . S
C74 O93 1.247 . S
O75 C74 1.224 . S
N76 Co66 2.128 . S
N76 C77 1.355 . S
N76 C79 1.311 . S
C77 N76 1.355 . S
C77 C78 1.363 . S
C77 H89 0.929 . S
C78 C77 1.363 . S
C78 N80 1.375 . S
C78 H96 0.931 . S
C79 N76 1.311 . S
C79 N80 1.347 . S
C79 H90 0.929 . S
N80 C78 1.375 . S
N80 C79 1.347 . S
C81 C84 1.365 . S
C81 N86 1.328 . S
C81 H87 0.929 . S
C82 C83 1.362 . S
C82 C85 1.378 . S
C82 H97 0.929 . S
C83 C82 1.362 . S
C83 C84 1.366 . S
C84 C81 1.365 . S
C84 C83 1.366 . S
C84 H98 0.930 . S
C85 C82 1.378 . S
C85 N86 1.315 . S
C85 H88 0.930 . S
N86 Co66 2.194 . S
N86 C81 1.328 . S
N86 C85 1.315 . S
H87 C81 0.929 . S
H88 C85 0.930 . S
H89 C77 0.929 . S
H90 C79 0.929 . S
O91 Co66 2.351 . S
O91 C94 1.244 . S
O92 Co66 2.155 . S
O92 C94 1.240 . S
O93 Co66 2.096 . S
O93 C74 1.247 . S
C94 O91 1.244 . S
C94 O92 1.240 . S
H95 C69 0.931 . S
H96 C78 0.931 . S
H97 C82 0.929 . S
H98 C84 0.930 . S
Co99 N103 2.148 . S
Co99 N109 2.128 . S
Co99 N119 2.194 . S
Co99 O124 2.351 . S
Co99 O125 2.155 . S
Co99 O126 2.096 . S
C100 N103 1.301 . S
C100 N104 1.328 . S
C100 H105 0.930 . S
C101 C102 1.333 . S
C101 N103 1.317 . S
C101 H106 0.930 . S
C102 C101 1.333 . S
C102 N104 1.350 . S
C102 H128 0.931 . S
N103 Co99 2.148 . S
N103 C100 1.301 . S
N103 C101 1.317 . S
N104 C100 1.328 . S
N104 C102 1.350 . S
H105 C100 0.930 . S
H106 C101 0.930 . S
C107 O108 1.224 . S
C107 O126 1.247 . S
O108 C107 1.224 . S
N109 Co99 2.128 . S
N109 C110 1.355 . S
N109 C112 1.311 . S
C110 N109 1.355 . S
C110 C111 1.363 . S
C110 H122 0.929 . S
C111 C110 1.363 . S
C111 N113 1.375 . S
C111 H129 0.931 . S
C112 N109 1.311 . S
C112 N113 1.347 . S
C112 H123 0.929 . S
N113 C111 1.375 . S
N113 C112 1.347 . S
C114 C117 1.365 . S
C114 N119 1.328 . S
C114 H120 0.929 . S
C115 C116 1.362 . S
C115 C118 1.378 . S
C115 H130 0.929 . S
C116 C115 1.362 . S
C116 C117 1.366 . S
C117 C114 1.365 . S
C117 C116 1.366 . S
C117 H131 0.930 . S
C118 C115 1.378 . S
C118 N119 1.315 . S
C118 H121 0.930 . S
N119 Co99 2.194 . S
N119 C114 1.328 . S
N119 C118 1.315 . S
H120 C114 0.929 . S
H121 C118 0.930 . S
H122 C110 0.929 . S
H123 C112 0.929 . S
O124 Co99 2.351 . S
O124 C127 1.244 . S
O125 Co99 2.155 . S
O125 C127 1.240 . S
O126 Co99 2.096 . S
O126 C107 1.247 . S
C127 O124 1.244 . S
C127 O125 1.240 . S
H128 C102 0.931 . S
H129 C111 0.931 . S
H130 C115 0.929 . S
H131 C117 0.930 . S
Co132 N136 2.148 . S
Co132 N142 2.128 . S
Co132 N152 2.194 . S
Co132 O157 2.351 . S
Co132 O158 2.155 . S
Co132 O159 2.096 . S
C133 N136 1.301 . S
C133 N137 1.328 . S
C133 H138 0.930 . S
C134 C135 1.333 . S
C134 N136 1.317 . S
C134 H139 0.930 . S
C135 C134 1.333 . S
C135 N137 1.350 . S
C135 H161 0.931 . S
N136 Co132 2.148 . S
N136 C133 1.301 . S
N136 C134 1.317 . S
N137 C133 1.328 . S
N137 C135 1.350 . S
H138 C133 0.930 . S
H139 C134 0.930 . S
C140 O141 1.224 . S
C140 O159 1.247 . S
O141 C140 1.224 . S
N142 Co132 2.128 . S
N142 C143 1.355 . S
N142 C145 1.311 . S
C143 N142 1.355 . S
C143 C144 1.363 . S
C143 H155 0.929 . S
C144 C143 1.363 . S
C144 N146 1.375 . S
C144 H162 0.931 . S
C145 N142 1.311 . S
C145 N146 1.347 . S
C145 H156 0.929 . S
N146 C144 1.375 . S
N146 C145 1.347 . S
C147 C150 1.365 . S
C147 N152 1.328 . S
C147 H153 0.929 . S
C148 C149 1.362 . S
C148 C151 1.378 . S
C148 H163 0.929 . S
C149 C148 1.362 . S
C149 C150 1.366 . S
C150 C147 1.365 . S
C150 C149 1.366 . S
C150 H164 0.930 . S
C151 C148 1.378 . S
C151 N152 1.315 . S
C151 H154 0.930 . S
N152 Co132 2.194 . S
N152 C147 1.328 . S
N152 C151 1.315 . S
H153 C147 0.929 . S
H154 C151 0.930 . S
H155 C143 0.929 . S
H156 C145 0.929 . S
O157 Co132 2.351 . S
O157 C160 1.244 . S
O158 Co132 2.155 . S
O158 C160 1.240 . S
O159 Co132 2.096 . S
O159 C140 1.247 . S
C160 O157 1.244 . S
C160 O158 1.240 . S
H161 C135 0.931 . S
H162 C144 0.931 . S
H163 C148 0.929 . S
H164 C150 0.930 . S
Co165 N169 2.148 . S
Co165 N175 2.128 . S
Co165 N185 2.194 . S
Co165 O190 2.351 . S
Co165 O191 2.155 . S
Co165 O192 2.096 . S
C166 N169 1.301 . S
C166 N170 1.328 . S
C166 H171 0.930 . S
C167 C168 1.333 . S
C167 N169 1.317 . S
C167 H172 0.930 . S
C168 C167 1.333 . S
C168 N170 1.350 . S
C168 H194 0.931 . S
N169 Co165 2.148 . S
N169 C166 1.301 . S
N169 C167 1.317 . S
N170 C166 1.328 . S
N170 C168 1.350 . S
H171 C166 0.930 . S
H172 C167 0.930 . S
C173 O174 1.224 . S
C173 O192 1.247 . S
O174 C173 1.224 . S
N175 Co165 2.128 . S
N175 C176 1.355 . S
N175 C178 1.311 . S
C176 N175 1.355 . S
C176 C177 1.363 . S
C176 H188 0.929 . S
C177 C176 1.363 . S
C177 N179 1.375 . S
C177 H195 0.931 . S
C178 N175 1.311 . S
C178 N179 1.347 . S
C178 H189 0.929 . S
N179 C177 1.375 . S
N179 C178 1.347 . S
C180 C183 1.365 . S
C180 N185 1.328 . S
C180 H186 0.929 . S
C181 C182 1.362 . S
C181 C184 1.378 . S
C181 H196 0.929 . S
C182 C181 1.362 . S
C182 C183 1.366 . S
C183 C180 1.365 . S
C183 C182 1.366 . S
C183 H197 0.930 . S
C184 C181 1.378 . S
C184 N185 1.315 . S
C184 H187 0.930 . S
N185 Co165 2.194 . S
N185 C180 1.328 . S
N185 C184 1.315 . S
H186 C180 0.929 . S
H187 C184 0.930 . S
H188 C176 0.929 . S
H189 C178 0.929 . S
O190 Co165 2.351 . S
O190 C193 1.244 . S
O191 Co165 2.155 . S
O191 C193 1.240 . S
O192 Co165 2.096 . S
O192 C173 1.247 . S
C193 O190 1.244 . S
C193 O191 1.240 . S
H194 C168 0.931 . S
H195 C177 0.931 . S
H196 C181 0.929 . S
H197 C183 0.930 . S
Co198 N202 2.148 . S
Co198 N208 2.128 . S
Co198 N218 2.194 . S
Co198 O223 2.351 . S
Co198 O224 2.155 . S
Co198 O225 2.096 . S
C199 N202 1.301 . S
C199 N203 1.328 . S
C199 H204 0.930 . S
C200 C201 1.333 . S
C200 N202 1.317 . S
C200 H205 0.930 . S
C201 C200 1.333 . S
C201 N203 1.350 . S
C201 H227 0.931 . S
N202 Co198 2.148 . S
N202 C199 1.301 . S
N202 C200 1.317 . S
N203 C199 1.328 . S
N203 C201 1.350 . S
H204 C199 0.930 . S
H205 C200 0.930 . S
C206 O207 1.224 . S
C206 O225 1.247 . S
O207 C206 1.224 . S
N208 Co198 2.128 . S
N208 C209 1.355 . S
N208 C211 1.311 . S
C209 N208 1.355 . S
C209 C210 1.363 . S
C209 H221 0.929 . S
C210 C209 1.363 . S
C210 N212 1.375 . S
C210 H228 0.931 . S
C211 N208 1.311 . S
C211 N212 1.347 . S
C211 H222 0.929 . S
N212 C210 1.375 . S
N212 C211 1.347 . S
C213 C216 1.365 . S
C213 N218 1.328 . S
C213 H219 0.929 . S
C214 C215 1.362 . S
C214 C217 1.378 . S
C214 H229 0.929 . S
C215 C214 1.362 . S
C215 C216 1.366 . S
C216 C213 1.365 . S
C216 C215 1.366 . S
C216 H230 0.930 . S
C217 C214 1.378 . S
C217 N218 1.315 . S
C217 H220 0.930 . S
N218 Co198 2.194 . S
N218 C213 1.328 . S
N218 C217 1.315 . S
H219 C213 0.929 . S
H220 C217 0.930 . S
H221 C209 0.929 . S
H222 C211 0.929 . S
O223 Co198 2.351 . S
O223 C226 1.244 . S
O224 Co198 2.155 . S
O224 C226 1.240 . S
O225 Co198 2.096 . S
O225 C206 1.247 . S
C226 O223 1.244 . S
C226 O224 1.240 . S
H227 C201 0.931 . S
H228 C210 0.931 . S
H229 C214 0.929 . S
H230 C216 0.930 . S
Co231 N235 2.148 . S
Co231 N241 2.128 . S
Co231 N251 2.194 . S
Co231 O256 2.351 . S
Co231 O257 2.155 . S
Co231 O258 2.096 . S
C232 N235 1.301 . S
C232 N236 1.328 . S
C232 H237 0.930 . S
C233 C234 1.333 . S
C233 N235 1.317 . S
C233 H238 0.930 . S
C234 C233 1.333 . S
C234 N236 1.350 . S
C234 H260 0.931 . S
N235 Co231 2.148 . S
N235 C232 1.301 . S
N235 C233 1.317 . S
N236 C232 1.328 . S
N236 C234 1.350 . S
H237 C232 0.930 . S
H238 C233 0.930 . S
C239 O240 1.224 . S
C239 O258 1.247 . S
O240 C239 1.224 . S
N241 Co231 2.128 . S
N241 C242 1.355 . S
N241 C244 1.311 . S
C242 N241 1.355 . S
C242 C243 1.363 . S
C242 H254 0.929 . S
C243 C242 1.363 . S
C243 N245 1.375 . S
C243 H261 0.931 . S
C244 N241 1.311 . S
C244 N245 1.347 . S
C244 H255 0.929 . S
N245 C243 1.375 . S
N245 C244 1.347 . S
C246 C249 1.365 . S
C246 N251 1.328 . S
C246 H252 0.929 . S
C247 C248 1.362 . S
C247 C250 1.378 . S
C247 H262 0.929 . S
C248 C247 1.362 . S
C248 C249 1.366 . S
C249 C246 1.365 . S
C249 C248 1.366 . S
C249 H263 0.930 . S
C250 C247 1.378 . S
C250 N251 1.315 . S
C250 H253 0.930 . S
N251 Co231 2.194 . S
N251 C246 1.328 . S
N251 C250 1.315 . S
H252 C246 0.929 . S
H253 C250 0.930 . S
H254 C242 0.929 . S
H255 C244 0.929 . S
O256 Co231 2.351 . S
O256 C259 1.244 . S
O257 Co231 2.155 . S
O257 C259 1.240 . S
O258 Co231 2.096 . S
O258 C239 1.247 . S
C259 O256 1.244 . S
C259 O257 1.240 . S
H260 C234 0.931 . S
H261 C243 0.931 . S
H262 C247 0.929 . S
H263 C249 0.930 . S
Co264 N268 2.148 . S
Co264 N274 2.128 . S
Co264 N284 2.194 . S
Co264 O289 2.351 . S
Co264 O290 2.155 . S
Co264 O291 2.096 . S
C265 N268 1.301 . S
C265 N269 1.328 . S
C265 H270 0.930 . S
C266 C267 1.333 . S
C266 N268 1.317 . S
C266 H271 0.930 . S
C267 C266 1.333 . S
C267 N269 1.350 . S
C267 H293 0.931 . S
N268 Co264 2.148 . S
N268 C265 1.301 . S
N268 C266 1.317 . S
N269 C265 1.328 . S
N269 C267 1.350 . S
H270 C265 0.930 . S
H271 C266 0.930 . S
C272 O273 1.224 . S
C272 O291 1.247 . S
O273 C272 1.224 . S
N274 Co264 2.128 . S
N274 C275 1.355 . S
N274 C277 1.311 . S
C275 N274 1.355 . S
C275 C276 1.363 . S
C275 H287 0.929 . S
C276 C275 1.363 . S
C276 N278 1.375 . S
C276 H294 0.931 . S
C277 N274 1.311 . S
C277 N278 1.347 . S
C277 H288 0.929 . S
N278 C276 1.375 . S
N278 C277 1.347 . S
C279 C282 1.365 . S
C279 N284 1.328 . S
C279 H285 0.929 . S
C280 C281 1.362 . S
C280 C283 1.378 . S
C280 H295 0.929 . S
C281 C280 1.362 . S
C281 C282 1.366 . S
C282 C279 1.365 . S
C282 C281 1.366 . S
C282 H296 0.930 . S
C283 C280 1.378 . S
C283 N284 1.315 . S
C283 H286 0.930 . S
N284 Co264 2.194 . S
N284 C279 1.328 . S
N284 C283 1.315 . S
H285 C279 0.929 . S
H286 C283 0.930 . S
H287 C275 0.929 . S
H288 C277 0.929 . S
O289 Co264 2.351 . S
O289 C292 1.244 . S
O290 Co264 2.155 . S
O290 C292 1.240 . S
O291 Co264 2.096 . S
O291 C272 1.247 . S
C292 O289 1.244 . S
C292 O290 1.240 . S
H293 C267 0.931 . S
H294 C276 0.931 . S
H295 C280 0.929 . S
H296 C282 0.930 . S
Co297 N301 2.148 . S
Co297 N307 2.128 . S
Co297 N317 2.194 . S
Co297 O322 2.351 . S
Co297 O323 2.155 . S
Co297 O324 2.096 . S
C298 N301 1.301 . S
C298 N302 1.328 . S
C298 H303 0.930 . S
C299 C300 1.333 . S
C299 N301 1.317 . S
C299 H304 0.930 . S
C300 C299 1.333 . S
C300 N302 1.350 . S
C300 H326 0.931 . S
N301 Co297 2.148 . S
N301 C298 1.301 . S
N301 C299 1.317 . S
N302 C298 1.328 . S
N302 C300 1.350 . S
H303 C298 0.930 . S
H304 C299 0.930 . S
C305 O306 1.224 . S
C305 O324 1.247 . S
O306 C305 1.224 . S
N307 Co297 2.128 . S
N307 C308 1.355 . S
N307 C310 1.311 . S
C308 N307 1.355 . S
C308 C309 1.363 . S
C308 H320 0.929 . S
C309 C308 1.363 . S
C309 N311 1.375 . S
C309 H327 0.931 . S
C310 N307 1.311 . S
C310 N311 1.347 . S
C310 H321 0.929 . S
N311 C309 1.375 . S
N311 C310 1.347 . S
C312 C315 1.365 . S
C312 N317 1.328 . S
C312 H318 0.929 . S
C313 C314 1.362 . S
C313 C316 1.378 . S
C313 H328 0.929 . S
C314 C313 1.362 . S
C314 C315 1.366 . S
C315 C312 1.365 . S
C315 C314 1.366 . S
C315 H329 0.930 . S
C316 C313 1.378 . S
C316 N317 1.315 . S
C316 H319 0.930 . S
N317 Co297 2.194 . S
N317 C312 1.328 . S
N317 C316 1.315 . S
H318 C312 0.929 . S
H319 C316 0.930 . S
H320 C308 0.929 . S
H321 C310 0.929 . S
O322 Co297 2.351 . S
O322 C325 1.244 . S
O323 Co297 2.155 . S
O323 C325 1.240 . S
O324 Co297 2.096 . S
O324 C305 1.247 . S
C325 O322 1.244 . S
C325 O323 1.240 . S
H326 C300 0.931 . S
H327 C309 0.931 . S
H328 C313 0.929 . S
H329 C315 0.930 . S
Co330 N334 2.148 . S
Co330 N340 2.128 . S
Co330 N350 2.194 . S
Co330 O355 2.351 . S
Co330 O356 2.155 . S
Co330 O357 2.096 . S
C331 N334 1.301 . S
C331 N335 1.328 . S
C331 H336 0.930 . S
C332 C333 1.333 . S
C332 N334 1.317 . S
C332 H337 0.930 . S
C333 C332 1.333 . S
C333 N335 1.350 . S
C333 H359 0.931 . S
N334 Co330 2.148 . S
N334 C331 1.301 . S
N334 C332 1.317 . S
N335 C331 1.328 . S
N335 C333 1.350 . S
H336 C331 0.930 . S
H337 C332 0.930 . S
C338 O339 1.224 . S
C338 O357 1.247 . S
O339 C338 1.224 . S
N340 Co330 2.128 . S
N340 C341 1.355 . S
N340 C343 1.311 . S
C341 N340 1.355 . S
C341 C342 1.363 . S
C341 H353 0.929 . S
C342 C341 1.363 . S
C342 N344 1.375 . S
C342 H360 0.931 . S
C343 N340 1.311 . S
C343 N344 1.347 . S
C343 H354 0.929 . S
N344 C342 1.375 . S
N344 C343 1.347 . S
C345 C348 1.365 . S
C345 N350 1.328 . S
C345 H351 0.929 . S
C346 C347 1.362 . S
C346 C349 1.378 . S
C346 H361 0.929 . S
C347 C346 1.362 . S
C347 C348 1.366 . S
C348 C345 1.365 . S
C348 C347 1.366 . S
C348 H362 0.930 . S
C349 C346 1.378 . S
C349 N350 1.315 . S
C349 H352 0.930 . S
N350 Co330 2.194 . S
N350 C345 1.328 . S
N350 C349 1.315 . S
H351 C345 0.929 . S
H352 C349 0.930 . S
H353 C341 0.929 . S
H354 C343 0.929 . S
O355 Co330 2.351 . S
O355 C358 1.244 . S
O356 Co330 2.155 . S
O356 C358 1.240 . S
O357 Co330 2.096 . S
O357 C338 1.247 . S
C358 O355 1.244 . S
C358 O356 1.240 . S
H359 C333 0.931 . S
H360 C342 0.931 . S
H361 C346 0.929 . S
H362 C348 0.930 . S
Co363 N367 2.148 . S
Co363 N373 2.128 . S
Co363 N383 2.194 . S
Co363 O388 2.351 . S
Co363 O389 2.155 . S
Co363 O390 2.096 . S
C364 N367 1.301 . S
C364 N368 1.328 . S
C364 H369 0.930 . S
C365 C366 1.333 . S
C365 N367 1.317 . S
C365 H370 0.930 . S
C366 C365 1.333 . S
C366 N368 1.350 . S
C366 H392 0.931 . S
N367 Co363 2.148 . S
N367 C364 1.301 . S
N367 C365 1.317 . S
N368 C364 1.328 . S
N368 C366 1.350 . S
H369 C364 0.930 . S
H370 C365 0.930 . S
C371 O372 1.224 . S
C371 O390 1.247 . S
O372 C371 1.224 . S
N373 Co363 2.128 . S
N373 C374 1.355 . S
N373 C376 1.311 . S
C374 N373 1.355 . S
C374 C375 1.363 . S
C374 H386 0.929 . S
C375 C374 1.363 . S
C375 N377 1.375 . S
C375 H393 0.931 . S
C376 N373 1.311 . S
C376 N377 1.347 . S
C376 H387 0.929 . S
N377 C375 1.375 . S
N377 C376 1.347 . S
C378 C381 1.365 . S
C378 N383 1.328 . S
C378 H384 0.929 . S
C379 C380 1.362 . S
C379 C382 1.378 . S
C379 H394 0.929 . S
C380 C379 1.362 . S
C380 C381 1.366 . S
C381 C378 1.365 . S
C381 C380 1.366 . S
C381 H395 0.930 . S
C382 C379 1.378 . S
C382 N383 1.315 . S
C382 H385 0.930 . S
N383 Co363 2.194 . S
N383 C378 1.328 . S
N383 C382 1.315 . S
H384 C378 0.929 . S
H385 C382 0.930 . S
H386 C374 0.929 . S
H387 C376 0.929 . S
O388 Co363 2.351 . S
O388 C391 1.244 . S
O389 Co363 2.155 . S
O389 C391 1.240 . S
O390 Co363 2.096 . S
O390 C371 1.247 . S
C391 O388 1.244 . S
C391 O389 1.240 . S
H392 C366 0.931 . S
H393 C375 0.931 . S
H394 C379 0.929 . S
H395 C381 0.930 . S
Co396 N400 2.148 . S
Co396 N406 2.128 . S
Co396 N416 2.194 . S
Co396 O421 2.351 . S
Co396 O422 2.155 . S
Co396 O423 2.096 . S
C397 N400 1.301 . S
C397 N401 1.328 . S
C397 H402 0.930 . S
C398 C399 1.333 . S
C398 N400 1.317 . S
C398 H403 0.930 . S
C399 C398 1.333 . S
C399 N401 1.350 . S
C399 H425 0.931 . S
N400 Co396 2.148 . S
N400 C397 1.301 . S
N400 C398 1.317 . S
N401 C397 1.328 . S
N401 C399 1.350 . S
H402 C397 0.930 . S
H403 C398 0.930 . S
C404 O405 1.224 . S
C404 O423 1.247 . S
O405 C404 1.224 . S
N406 Co396 2.128 . S
N406 C407 1.355 . S
N406 C409 1.311 . S
C407 N406 1.355 . S
C407 C408 1.363 . S
C407 H419 0.929 . S
C408 C407 1.363 . S
C408 N410 1.375 . S
C408 H426 0.931 . S
C409 N406 1.311 . S
C409 N410 1.347 . S
C409 H420 0.929 . S
N410 C408 1.375 . S
N410 C409 1.347 . S
C411 C414 1.365 . S
C411 N416 1.328 . S
C411 H417 0.929 . S
C412 C413 1.362 . S
C412 C415 1.378 . S
C412 H427 0.929 . S
C413 C412 1.362 . S
C413 C414 1.366 . S
C414 C411 1.365 . S
C414 C413 1.366 . S
C414 H428 0.930 . S
C415 C412 1.378 . S
C415 N416 1.315 . S
C415 H418 0.930 . S
N416 Co396 2.194 . S
N416 C411 1.328 . S
N416 C415 1.315 . S
H417 C411 0.929 . S
H418 C415 0.930 . S
H419 C407 0.929 . S
H420 C409 0.929 . S
O421 Co396 2.351 . S
O421 C424 1.244 . S
O422 Co396 2.155 . S
O422 C424 1.240 . S
O423 Co396 2.096 . S
O423 C404 1.247 . S
C424 O421 1.244 . S
C424 O422 1.240 . S
H425 C399 0.931 . S
H426 C408 0.931 . S
H427 C412 0.929 . S
H428 C414 0.930 . S
Co429 N433 2.148 . S
Co429 N439 2.128 . S
Co429 N449 2.194 . S
Co429 O454 2.351 . S
Co429 O455 2.155 . S
Co429 O456 2.096 . S
C430 N433 1.301 . S
C430 N434 1.328 . S
C430 H435 0.930 . S
C431 C432 1.333 . S
C431 N433 1.317 . S
C431 H436 0.930 . S
C432 C431 1.333 . S
C432 N434 1.350 . S
C432 H458 0.931 . S
N433 Co429 2.148 . S
N433 C430 1.301 . S
N433 C431 1.317 . S
N434 C430 1.328 . S
N434 C432 1.350 . S
H435 C430 0.930 . S
H436 C431 0.930 . S
C437 O438 1.224 . S
C437 O456 1.247 . S
O438 C437 1.224 . S
N439 Co429 2.128 . S
N439 C440 1.355 . S
N439 C442 1.311 . S
C440 N439 1.355 . S
C440 C441 1.363 . S
C440 H452 0.929 . S
C441 C440 1.363 . S
C441 N443 1.375 . S
C441 H459 0.931 . S
C442 N439 1.311 . S
C442 N443 1.347 . S
C442 H453 0.929 . S
N443 C441 1.375 . S
N443 C442 1.347 . S
C444 C447 1.365 . S
C444 N449 1.328 . S
C444 H450 0.929 . S
C445 C446 1.362 . S
C445 C448 1.378 . S
C445 H460 0.929 . S
C446 C445 1.362 . S
C446 C447 1.366 . S
C447 C444 1.365 . S
C447 C446 1.366 . S
C447 H461 0.930 . S
C448 C445 1.378 . S
C448 N449 1.315 . S
C448 H451 0.930 . S
N449 Co429 2.194 . S
N449 C444 1.328 . S
N449 C448 1.315 . S
H450 C444 0.929 . S
H451 C448 0.930 . S
H452 C440 0.929 . S
H453 C442 0.929 . S
O454 Co429 2.351 . S
O454 C457 1.244 . S
O455 Co429 2.155 . S
O455 C457 1.240 . S
O456 Co429 2.096 . S
O456 C437 1.247 . S
C457 O454 1.244 . S
C457 O455 1.240 . S
H458 C432 0.931 . S
H459 C441 0.931 . S
H460 C445 0.929 . S
H461 C447 0.930 . S
Co462 N466 2.148 . S
Co462 N472 2.128 . S
Co462 N482 2.194 . S
Co462 O487 2.351 . S
Co462 O488 2.155 . S
Co462 O489 2.096 . S
C463 N466 1.301 . S
C463 N467 1.328 . S
C463 H468 0.930 . S
C464 C465 1.333 . S
C464 N466 1.317 . S
C464 H469 0.930 . S
C465 C464 1.333 . S
C465 N467 1.350 . S
C465 H491 0.931 . S
N466 Co462 2.148 . S
N466 C463 1.301 . S
N466 C464 1.317 . S
N467 C463 1.328 . S
N467 C465 1.350 . S
H468 C463 0.930 . S
H469 C464 0.930 . S
C470 O471 1.224 . S
C470 O489 1.247 . S
O471 C470 1.224 . S
N472 Co462 2.128 . S
N472 C473 1.355 . S
N472 C475 1.311 . S
C473 N472 1.355 . S
C473 C474 1.363 . S
C473 H485 0.929 . S
C474 C473 1.363 . S
C474 N476 1.375 . S
C474 H492 0.931 . S
C475 N472 1.311 . S
C475 N476 1.347 . S
C475 H486 0.929 . S
N476 C474 1.375 . S
N476 C475 1.347 . S
C477 C480 1.365 . S
C477 N482 1.328 . S
C477 H483 0.929 . S
C478 C479 1.362 . S
C478 C481 1.378 . S
C478 H493 0.929 . S
C479 C478 1.362 . S
C479 C480 1.366 . S
C480 C477 1.365 . S
C480 C479 1.366 . S
C480 H494 0.930 . S
C481 C478 1.378 . S
C481 N482 1.315 . S
C481 H484 0.930 . S
N482 Co462 2.194 . S
N482 C477 1.328 . S
N482 C481 1.315 . S
H483 C477 0.929 . S
H484 C481 0.930 . S
H485 C473 0.929 . S
H486 C475 0.929 . S
O487 Co462 2.351 . S
O487 C490 1.244 . S
O488 Co462 2.155 . S
O488 C490 1.240 . S
O489 Co462 2.096 . S
O489 C470 1.247 . S
C490 O487 1.244 . S
C490 O488 1.240 . S
H491 C465 0.931 . S
H492 C474 0.931 . S
H493 C478 0.929 . S
H494 C480 0.930 . S
Co495 N499 2.148 . S
Co495 N505 2.128 . S
Co495 N515 2.194 . S
Co495 O520 2.351 . S
Co495 O521 2.155 . S
Co495 O522 2.096 . S
C496 N499 1.301 . S
C496 N500 1.328 . S
C496 H501 0.930 . S
C497 C498 1.333 . S
C497 N499 1.317 . S
C497 H502 0.930 . S
C498 C497 1.333 . S
C498 N500 1.350 . S
C498 H524 0.931 . S
N499 Co495 2.148 . S
N499 C496 1.301 . S
N499 C497 1.317 . S
N500 C496 1.328 . S
N500 C498 1.350 . S
H501 C496 0.930 . S
H502 C497 0.930 . S
C503 O504 1.224 . S
C503 O522 1.247 . S
O504 C503 1.224 . S
N505 Co495 2.128 . S
N505 C506 1.355 . S
N505 C508 1.311 . S
C506 N505 1.355 . S
C506 C507 1.363 . S
C506 H518 0.929 . S
C507 C506 1.363 . S
C507 N509 1.375 . S
C507 H525 0.931 . S
C508 N505 1.311 . S
C508 N509 1.347 . S
C508 H519 0.929 . S
N509 C507 1.375 . S
N509 C508 1.347 . S
C510 C513 1.365 . S
C510 N515 1.328 . S
C510 H516 0.929 . S
C511 C512 1.362 . S
C511 C514 1.378 . S
C511 H526 0.929 . S
C512 C511 1.362 . S
C512 C513 1.366 . S
C513 C510 1.365 . S
C513 C512 1.366 . S
C513 H527 0.930 . S
C514 C511 1.378 . S
C514 N515 1.315 . S
C514 H517 0.930 . S
N515 Co495 2.194 . S
N515 C510 1.328 . S
N515 C514 1.315 . S
H516 C510 0.929 . S
H517 C514 0.930 . S
H518 C506 0.929 . S
H519 C508 0.929 . S
O520 Co495 2.351 . S
O520 C523 1.244 . S
O521 Co495 2.155 . S
O521 C523 1.240 . S
O522 Co495 2.096 . S
O522 C503 1.247 . S
C523 O520 1.244 . S
C523 O521 1.240 . S
H524 C498 0.931 . S
H525 C507 0.931 . S
H526 C511 0.929 . S
H527 C513 0.930 . S
H528 C540 0.930 . S
H529 C542 0.930 . S
H530 C543 0.930 . S
H531 C547 0.959 . S
H532 C547 0.959 . S
H533 C547 0.961 . S
H534 C548 0.960 . S
H535 C548 0.957 1_455 S
H536 C548 0.959 . S
H537 C551 0.929 1_655 S
H538 C552 0.931 . S
H539 C554 0.930 . S
C540 H528 0.930 . S
C540 C541 1.399 . S
C540 C545 1.399 . S
C541 C540 1.399 . S
C541 C542 1.376 . S
C542 H529 0.930 . S
C542 C541 1.376 . S
C542 C543 1.388 . S
C543 H530 0.930 . S
C543 C542 1.388 . S
C543 C544 1.390 . S
C544 C543 1.390 . S
C544 C545 1.394 . S
C544 C550 1.465 1_655 S
C545 C540 1.399 . S
C545 C544 1.394 . S
C545 C546 1.516 1_655 S
C546 C545 1.516 1_455 S
C546 C547 1.502 . S
C546 C548 1.561 1_455 S
C546 C549 1.526 . S
C547 H531 0.959 . S
C547 H532 0.959 . S
C547 H533 0.961 . S
C547 C546 1.502 . S
C548 H534 0.960 . S
C548 H535 0.957 1_655 S
C548 H536 0.959 . S
C548 C546 1.561 1_655 S
C549 C546 1.526 . S
C549 C550 1.396 . S
C549 C554 1.390 . S
C550 C544 1.465 1_455 S
C550 C549 1.396 . S
C550 C551 1.399 . S
C551 H537 0.929 1_455 S
C551 C550 1.399 . S
C551 C552 1.385 . S
C552 H538 0.931 . S
C552 C551 1.385 . S
C552 C553 1.389 . S
C553 C552 1.389 . S
C553 C554 1.387 . S
C554 H539 0.930 . S
C554 C549 1.390 . S
C554 C553 1.387 . S
H555 C567 0.930 . S
H556 C569 0.930 . S
H557 C570 0.930 . S
H558 C574 0.959 . S
H559 C574 0.959 . S
H560 C574 0.961 . S
H561 C575 0.960 1_545 S
H562 C575 0.961 1_545 S
H563 C575 0.959 . S
H564 C578 0.929 . S
H565 C579 0.931 . S
H566 C581 0.930 . S
C567 H555 0.930 . S
C567 C568 1.399 . S
C567 C572 1.399 . S
C568 C567 1.399 . S
C568 C569 1.376 . S
C569 H556 0.930 . S
C569 C568 1.376 . S
C569 C570 1.388 . S
C570 H557 0.930 . S
C570 C569 1.388 . S
C570 C571 1.390 . S
C571 C570 1.390 . S
C571 C572 1.394 . S
C571 C577 1.465 . S
C572 C567 1.399 . S
C572 C571 1.394 . S
C572 C573 1.516 . S
C573 C572 1.516 . S
C573 C574 1.502 . S
C573 C575 1.561 . S
C573 C576 1.526 . S
C574 H558 0.959 . S
C574 H559 0.959 . S
C574 H560 0.961 . S
C574 C573 1.502 . S
C575 H561 0.960 1_565 S
C575 H562 0.961 1_565 S
C575 H563 0.959 . S
C575 C573 1.561 . S
C576 C573 1.526 . S
C576 C577 1.396 . S
C576 C581 1.390 . S
C577 C571 1.465 . S
C577 C576 1.396 . S
C577 C578 1.399 . S
C578 H564 0.929 . S
C578 C577 1.399 . S
C578 C579 1.385 . S
C579 H565 0.931 . S
C579 C578 1.385 . S
C579 C580 1.389 . S
C580 C579 1.389 . S
C580 C581 1.387 . S
C581 H566 0.930 . S
C581 C576 1.390 . S
C581 C580 1.387 . S
H582 C594 0.930 . S
H583 C596 0.930 . S
H584 C597 0.916 1_455 S
H585 C601 0.959 . S
H586 C601 0.959 . S
H587 C601 0.961 . S
H588 C602 0.960 . S
H589 C602 0.961 . S
H590 C602 0.959 . S
H591 C605 0.929 . S
H592 C606 0.931 . S
H593 C608 0.930 . S
C594 H582 0.930 . S
C594 C595 1.399 . S
C594 C599 1.399 . S
C595 C594 1.399 . S
C595 C596 1.376 . S
C596 H583 0.930 . S
C596 C595 1.376 . S
C596 C597 1.388 . S
C597 H584 0.916 1_655 S
C597 C596 1.388 . S
C597 C598 1.390 . S
C598 C597 1.390 . S
C598 C599 1.394 . S
C598 C604 1.465 1_655 S
C599 C594 1.399 . S
C599 C598 1.394 . S
C599 C600 1.516 . S
C600 C599 1.516 . S
C600 C601 1.502 . S
C600 C602 1.561 1_655 S
C600 C603 1.526 1_655 S
C601 H585 0.959 . S
C601 H586 0.959 . S
C601 H587 0.961 . S
C601 C600 1.502 . S
C602 H588 0.960 . S
C602 H589 0.961 . S
C602 H590 0.959 . S
C602 C600 1.561 1_455 S
C603 C600 1.526 1_455 S
C603 C604 1.396 . S
C603 C608 1.390 . S
C604 C598 1.465 1_455 S
C604 C603 1.396 . S
C604 C605 1.399 . S
C605 H591 0.929 . S
C605 C604 1.399 . S
C605 C606 1.385 . S
C606 H592 0.931 . S
C606 C605 1.385 . S
C606 C607 1.389 . S
C607 C606 1.389 . S
C607 C608 1.387 . S
C608 H593 0.930 . S
C608 C603 1.390 . S
C608 C607 1.387 . S
H609 C621 0.930 . S
H610 C623 0.930 . S
H611 C624 0.930 . S
H612 C628 0.959 . S
H613 C628 0.959 . S
H614 C628 0.961 . S
H615 C629 0.960 . S
H616 C629 0.961 . S
H617 C629 0.959 . S
H618 C632 0.929 . S
H619 C633 0.931 . S
H620 C635 0.930 . S
C621 H609 0.930 . S
C621 C622 1.399 . S
C621 C626 1.399 . S
C622 C621 1.399 . S
C622 C623 1.376 . S
C623 H610 0.930 . S
C623 C622 1.376 . S
C623 C624 1.388 . S
C624 H611 0.930 . S
C624 C623 1.388 . S
C624 C625 1.390 . S
C625 C624 1.390 . S
C625 C626 1.394 . S
C625 C631 1.465 . S
C626 C621 1.399 . S
C626 C625 1.394 . S
C626 C627 1.516 . S
C627 C626 1.516 . S
C627 C628 1.502 . S
C627 C629 1.561 . S
C627 C630 1.526 . S
C628 H612 0.959 . S
C628 H613 0.959 . S
C628 H614 0.961 . S
C628 C627 1.502 . S
C629 H615 0.960 . S
C629 H616 0.961 . S
C629 H617 0.959 . S
C629 C627 1.561 . S
C630 C627 1.526 . S
C630 C631 1.396 . S
C630 C635 1.390 . S
C631 C625 1.465 . S
C631 C630 1.396 . S
C631 C632 1.399 . S
C632 H618 0.929 . S
C632 C631 1.399 . S
C632 C633 1.385 . S
C633 H619 0.931 . S
C633 C632 1.385 . S
C633 C634 1.389 . S
C634 C633 1.389 . S
C634 C635 1.387 . S
C635 H620 0.930 . S
C635 C630 1.390 . S
C635 C634 1.387 . S
H636 C648 0.930 . S
H637 C650 0.930 . S
H638 C651 0.930 . S
H639 C655 0.959 . S
H640 C655 0.959 . S
H641 C655 0.961 . S
H642 C656 0.960 . S
H643 C656 0.961 . S
H644 C656 0.959 . S
H645 C659 0.929 . S
H646 C660 0.931 . S
H647 C662 0.930 . S
C648 H636 0.930 . S
C648 C649 1.399 . S
C648 C653 1.399 . S
C649 C648 1.399 . S
C649 C650 1.376 . S
C650 H637 0.930 . S
C650 C649 1.376 . S
C650 C651 1.388 . S
C651 H638 0.930 . S
C651 C650 1.388 . S
C651 C652 1.390 . S
C652 C651 1.390 . S
C652 C653 1.394 . S
C652 C658 1.465 . S
C653 C648 1.399 . S
C653 C652 1.394 . S
C653 C654 1.516 . S
C654 C653 1.516 . S
C654 C655 1.502 . S
C654 C656 1.561 . S
C654 C657 1.526 . S
C655 H639 0.959 . S
C655 H640 0.959 . S
C655 H641 0.961 . S
C655 C654 1.502 . S
C656 H642 0.960 . S
C656 H643 0.961 . S
C656 H644 0.959 . S
C656 C654 1.561 . S
C657 C654 1.526 . S
C657 C658 1.396 . S
C657 C662 1.390 . S
C658 C652 1.465 . S
C658 C657 1.396 . S
C658 C659 1.399 . S
C659 H645 0.929 . S
C659 C658 1.399 . S
C659 C660 1.385 . S
C660 H646 0.931 . S
C660 C659 1.385 . S
C660 C661 1.389 . S
C661 C660 1.389 . S
C661 C662 1.387 . S
C662 H647 0.930 . S
C662 C657 1.390 . S
C662 C661 1.387 . S
H663 C675 0.930 . S
H664 C677 0.930 . S
H665 C678 0.930 . S
H666 C682 0.959 . S
H667 C682 0.959 . S
H668 C682 0.961 . S
H669 C683 0.960 . S
H670 C683 0.961 . S
H671 C683 0.959 . S
H672 C686 0.929 . S
H673 C687 0.931 . S
H674 C689 0.930 . S
C675 H663 0.930 . S
C675 C676 1.399 . S
C675 C680 1.399 . S
C676 C675 1.399 . S
C676 C677 1.376 . S
C677 H664 0.930 . S
C677 C676 1.376 . S
C677 C678 1.388 . S
C678 H665 0.930 . S
C678 C677 1.388 . S
C678 C679 1.390 . S
C679 C678 1.390 . S
C679 C680 1.394 . S
C679 C685 1.465 1_655 S
C680 C675 1.399 . S
C680 C679 1.394 . S
C680 C681 1.516 1_655 S
C681 C680 1.516 1_455 S
C681 C682 1.502 . S
C681 C683 1.561 1_455 S
C681 C684 1.526 . S
C682 H666 0.959 . S
C682 H667 0.959 . S
C682 H668 0.961 . S
C682 C681 1.502 . S
C683 H669 0.960 . S
C683 H670 0.961 . S
C683 H671 0.959 . S
C683 C681 1.561 1_655 S
C684 C681 1.526 . S
C684 C685 1.396 . S
C684 C689 1.390 . S
C685 C679 1.465 1_455 S
C685 C684 1.396 . S
C685 C686 1.399 . S
C686 H672 0.929 . S
C686 C685 1.399 . S
C686 C687 1.385 . S
C687 H673 0.931 . S
C687 C686 1.385 . S
C687 C688 1.389 . S
C688 C687 1.389 . S
C688 C689 1.387 . S
C689 H674 0.930 . S
C689 C684 1.390 . S
C689 C688 1.387 . S
H690 C702 0.930 . S
H691 C704 0.930 . S
H692 C705 0.930 . S
H693 C709 0.959 . S
H694 C709 0.959 . S
H695 C709 0.961 . S
H696 C710 0.960 . S
H697 C710 0.961 . S
H698 C710 0.959 . S
H699 C713 0.929 . S
H700 C714 0.931 . S
H701 C716 0.930 . S
C702 H690 0.930 . S
C702 C703 1.399 . S
C702 C707 1.399 . S
C703 C702 1.399 . S
C703 C704 1.376 . S
C704 H691 0.930 . S
C704 C703 1.376 . S
C704 C705 1.388 . S
C705 H692 0.930 . S
C705 C704 1.388 . S
C705 C706 1.390 . S
C706 C705 1.390 . S
C706 C707 1.394 . S
C706 C712 1.465 . S
C707 C702 1.399 . S
C707 C706 1.394 . S
C707 C708 1.516 . S
C708 C707 1.516 . S
C708 C709 1.502 . S
C708 C710 1.561 . S
C708 C711 1.526 . S
C709 H693 0.959 . S
C709 H694 0.959 . S
C709 H695 0.961 . S
C709 C708 1.502 . S
C710 H696 0.960 . S
C710 H697 0.961 . S
C710 H698 0.959 . S
C710 C708 1.561 . S
C711 C708 1.526 . S
C711 C712 1.396 . S
C711 C716 1.390 . S
C712 C706 1.465 . S
C712 C711 1.396 . S
C712 C713 1.399 . S
C713 H699 0.929 . S
C713 C712 1.399 . S
C713 C714 1.385 . S
C714 H700 0.931 . S
C714 C713 1.385 . S
C714 C715 1.389 . S
C715 C714 1.389 . S
C715 C716 1.387 . S
C716 H701 0.930 . S
C716 C711 1.390 . S
C716 C715 1.387 . S
H717 C729 0.930 . S
H718 C731 0.930 . S
H719 C732 0.930 . S
H720 C736 0.959 . S
H721 C736 0.959 . S
H722 C736 0.961 . S
H723 C737 0.960 . S
H724 C737 0.961 . S
H725 C737 0.959 1_655 S
H726 C740 0.929 . S
H727 C741 0.931 . S
H728 C743 0.930 . S
C729 H717 0.930 . S
C729 C730 1.399 . S
C729 C734 1.399 . S
C730 C729 1.399 . S
C730 C731 1.376 . S
C731 H718 0.930 . S
C731 C730 1.376 . S
C731 C732 1.388 . S
C732 H719 0.930 . S
C732 C731 1.388 . S
C732 C733 1.390 . S
C733 C732 1.390 . S
C733 C734 1.394 . S
C733 C739 1.465 . S
C734 C729 1.399 . S
C734 C733 1.394 . S
C734 C735 1.516 1_655 S
C735 C734 1.516 1_455 S
C735 C736 1.502 . S
C735 C737 1.561 . S
C735 C738 1.526 . S
C736 H720 0.959 . S
C736 H721 0.959 . S
C736 H722 0.961 . S
C736 C735 1.502 . S
C737 H723 0.960 . S
C737 H724 0.961 . S
C737 H725 0.959 1_455 S
C737 C735 1.561 . S
C738 C735 1.526 . S
C738 C739 1.396 1_455 S
C738 C743 1.390 . S
C739 C733 1.465 . S
C739 C738 1.396 1_655 S
C739 C740 1.399 . S
C740 H726 0.929 . S
C740 C739 1.399 . S
C740 C741 1.385 1_655 S
C741 H727 0.931 . S
C741 C740 1.385 1_455 S
C741 C742 1.389 . S
C742 C741 1.389 . S
C742 C743 1.387 . S
C743 H728 0.930 . S
C743 C738 1.390 . S
C743 C742 1.387 . S
H744 C756 0.930 . S
H745 C758 0.930 . S
H746 C759 0.930 . S
H747 C763 0.959 . S
H748 C763 0.959 . S
H749 C763 0.961 . S
H750 C764 0.960 . S
H751 C764 0.961 . S
H752 C764 0.959 . S
H753 C767 0.929 . S
H754 C768 0.931 . S
H755 C770 0.930 . S
C756 H744 0.930 . S
C756 C757 1.399 . S
C756 C761 1.399 . S
C757 C756 1.399 . S
C757 C758 1.376 . S
C758 H745 0.930 . S
C758 C757 1.376 . S
C758 C759 1.388 . S
C759 H746 0.930 . S
C759 C758 1.388 . S
C759 C760 1.390 . S
C760 C759 1.390 . S
C760 C761 1.394 . S
C760 C766 1.465 . S
C761 C756 1.399 . S
C761 C760 1.394 . S
C761 C762 1.516 . S
C762 C761 1.516 . S
C762 C763 1.502 . S
C762 C764 1.561 . S
C762 C765 1.526 . S
C763 H747 0.959 . S
C763 H748 0.959 . S
C763 H749 0.961 . S
C763 C762 1.502 . S
C764 H750 0.960 . S
C764 H751 0.961 . S
C764 H752 0.959 . S
C764 C762 1.561 . S
C765 C762 1.526 . S
C765 C766 1.396 . S
C765 C770 1.390 . S
C766 C760 1.465 . S
C766 C765 1.396 . S
C766 C767 1.399 . S
C767 H753 0.929 . S
C767 C766 1.399 . S
C767 C768 1.385 . S
C768 H754 0.931 . S
C768 C767 1.385 . S
C768 C769 1.389 . S
C769 C768 1.389 . S
C769 C770 1.387 . S
C770 H755 0.930 . S
C770 C765 1.390 . S
C770 C769 1.387 . S
H771 C783 0.930 . S
H772 C785 0.930 . S
H773 C786 0.930 . S
H774 C790 0.959 . S
H775 C790 0.959 . S
H776 C790 0.961 . S
H777 C791 0.960 . S
H778 C791 0.961 . S
H779 C791 0.959 . S
H780 C794 0.929 . S
H781 C795 0.931 . S
H782 C797 0.930 . S
C783 H771 0.930 . S
C783 C784 1.399 . S
C783 C788 1.399 . S
C784 C783 1.399 . S
C784 C785 1.376 . S
C785 H772 0.930 . S
C785 C784 1.376 . S
C785 C786 1.388 . S
C786 H773 0.930 . S
C786 C785 1.388 . S
C786 C787 1.390 . S
C787 C786 1.390 . S
C787 C788 1.394 . S
C787 C793 1.465 . S
C788 C783 1.399 . S
C788 C787 1.394 . S
C788 C789 1.516 . S
C789 C788 1.516 . S
C789 C790 1.502 . S
C789 C791 1.561 . S
C789 C792 1.526 . S
C790 H774 0.959 . S
C790 H775 0.959 . S
C790 H776 0.961 . S
C790 C789 1.502 . S
C791 H777 0.960 . S
C791 H778 0.961 . S
C791 H779 0.959 . S
C791 C789 1.561 . S
C792 C789 1.526 . S
C792 C793 1.396 . S
C792 C797 1.390 . S
C793 C787 1.465 . S
C793 C792 1.396 . S
C793 C794 1.399 . S
C794 H780 0.929 . S
C794 C793 1.399 . S
C794 C795 1.385 . S
C795 H781 0.931 . S
C795 C794 1.385 . S
C795 C796 1.389 . S
C796 C795 1.389 . S
C796 C797 1.387 . S
C797 H782 0.930 . S
C797 C792 1.390 . S
C797 C796 1.387 . S
H798 C810 0.930 . S
H799 C812 0.930 . S
H800 C813 0.930 . S
H801 C817 0.959 . S
H802 C817 0.959 . S
H803 C817 0.961 . S
H804 C818 0.960 . S
H805 C818 0.961 . S
H806 C818 0.959 . S
H807 C821 0.929 . S
H808 C822 0.931 . S
H809 C824 0.930 . S
C810 H798 0.930 . S
C810 C811 1.399 . S
C810 C815 1.399 . S
C811 C810 1.399 . S
C811 C812 1.376 . S
C812 H799 0.930 . S
C812 C811 1.376 . S
C812 C813 1.388 . S
C813 H800 0.930 . S
C813 C812 1.388 . S
C813 C814 1.390 . S
C814 C813 1.390 . S
C814 C815 1.394 . S
C814 C820 1.465 . S
C815 C810 1.399 . S
C815 C814 1.394 . S
C815 C816 1.516 . S
C816 C815 1.516 . S
C816 C817 1.502 . S
C816 C818 1.561 . S
C816 C819 1.526 . S
C817 H801 0.959 . S
C817 H802 0.959 . S
C817 H803 0.961 . S
C817 C816 1.502 . S
C818 H804 0.960 . S
C818 H805 0.961 . S
C818 H806 0.959 . S
C818 C816 1.561 . S
C819 C816 1.526 . S
C819 C820 1.396 . S
C819 C824 1.390 . S
C820 C814 1.465 . S
C820 C819 1.396 . S
C820 C821 1.399 . S
C821 H807 0.929 . S
C821 C820 1.399 . S
C821 C822 1.385 . S
C822 H808 0.931 . S
C822 C821 1.385 . S
C822 C823 1.389 . S
C823 C822 1.389 . S
C823 C824 1.387 . S
C824 H809 0.930 . S
C824 C819 1.390 . S
C824 C823 1.387 . S
H825 C837 0.930 . S
H826 C839 0.930 . S
H827 C840 0.930 . S
H828 C844 0.959 . S
H829 C844 0.959 . S
H830 C844 0.961 . S
H831 C845 0.960 . S
H832 C845 0.961 . S
H833 C845 0.959 . S
H834 C848 0.929 . S
H835 C849 0.931 . S
H836 C851 0.930 . S
C837 H825 0.930 . S
C837 C838 1.399 . S
C837 C842 1.399 . S
C838 C837 1.399 . S
C838 C839 1.376 . S
C839 H826 0.930 . S
C839 C838 1.376 . S
C839 C840 1.388 . S
C840 H827 0.930 . S
C840 C839 1.388 . S
C840 C841 1.390 . S
C841 C840 1.390 . S
C841 C842 1.394 . S
C841 C847 1.465 . S
C842 C837 1.399 . S
C842 C841 1.394 . S
C842 C843 1.516 . S
C843 C842 1.516 . S
C843 C844 1.502 . S
C843 C845 1.561 . S
C843 C846 1.526 . S
C844 H828 0.959 . S
C844 H829 0.959 . S
C844 H830 0.961 . S
C844 C843 1.502 . S
C845 H831 0.960 . S
C845 H832 0.961 . S
C845 H833 0.959 . S
C845 C843 1.561 . S
C846 C843 1.526 . S
C846 C847 1.396 . S
C846 C851 1.390 . S
C847 C841 1.465 . S
C847 C846 1.396 . S
C847 C848 1.399 . S
C848 H834 0.929 . S
C848 C847 1.399 . S
C848 C849 1.385 . S
C849 H835 0.931 . S
C849 C848 1.385 . S
C849 C850 1.389 . S
C850 C849 1.389 . S
C850 C851 1.387 . S
C851 H836 0.930 . S
C851 C846 1.390 . S
C851 C850 1.387 . S
H852 C864 0.930 . S
H853 C866 0.930 . S
H854 C867 0.930 . S
H855 C871 0.959 . S
H856 C871 0.959 . S
H857 C871 0.961 . S
H858 C872 0.960 . S
H859 C872 0.961 . S
H860 C872 0.959 . S
H861 C875 0.929 . S
H862 C876 0.931 . S
H863 C878 0.930 . S
C864 H852 0.930 . S
C864 C865 1.399 . S
C864 C869 1.399 . S
C865 C864 1.399 . S
C865 C866 1.376 . S
C866 H853 0.930 . S
C866 C865 1.376 . S
C866 C867 1.388 . S
C867 H854 0.930 . S
C867 C866 1.388 . S
C867 C868 1.390 . S
C868 C867 1.390 . S
C868 C869 1.394 . S
C868 C874 1.465 . S
C869 C864 1.399 . S
C869 C868 1.394 . S
C869 C870 1.516 . S
C870 C869 1.516 . S
C870 C871 1.502 . S
C870 C872 1.561 . S
C870 C873 1.526 . S
C871 H855 0.959 . S
C871 H856 0.959 . S
C871 H857 0.961 . S
C871 C870 1.502 . S
C872 H858 0.960 . S
C872 H859 0.961 . S
C872 H860 0.959 . S
C872 C870 1.561 . S
C873 C870 1.526 . S
C873 C874 1.396 . S
C873 C878 1.390 . S
C874 C868 1.465 . S
C874 C873 1.396 . S
C874 C875 1.399 . S
C875 H861 0.929 . S
C875 C874 1.399 . S
C875 C876 1.385 . S
C876 H862 0.931 . S
C876 C875 1.385 . S
C876 C877 1.389 . S
C877 C876 1.389 . S
C877 C878 1.387 . S
C878 H863 0.930 . S
C878 C873 1.390 . S
C878 C877 1.387 . S
H879 C891 0.930 . S
H880 C893 0.930 . S
H881 C894 0.930 . S
H882 C898 0.959 . S
H883 C898 0.959 . S
H884 C898 0.961 . S
H885 C899 0.960 . S
H886 C899 0.961 . S
H887 C899 0.959 . S
H888 C902 0.929 . S
H889 C903 0.931 . S
H890 C905 0.930 . S
C891 H879 0.930 . S
C891 C892 1.399 . S
C891 C896 1.399 . S
C892 C891 1.399 . S
C892 C893 1.376 . S
C893 H880 0.930 . S
C893 C892 1.376 . S
C893 C894 1.388 . S
C894 H881 0.930 . S
C894 C893 1.388 . S
C894 C895 1.390 . S
C895 C894 1.390 . S
C895 C896 1.394 . S
C895 C901 1.465 . S
C896 C891 1.399 . S
C896 C895 1.394 . S
C896 C897 1.516 . S
C897 C896 1.516 . S
C897 C898 1.502 . S
C897 C899 1.561 . S
C897 C900 1.526 . S
C898 H882 0.959 . S
C898 H883 0.959 . S
C898 H884 0.961 . S
C898 C897 1.502 . S
C899 H885 0.960 . S
C899 H886 0.961 . S
C899 H887 0.959 . S
C899 C897 1.561 . S
C900 C897 1.526 . S
C900 C901 1.396 . S
C900 C905 1.390 . S
C901 C895 1.465 . S
C901 C900 1.396 . S
C901 C902 1.399 . S
C902 H888 0.929 . S
C902 C901 1.399 . S
C902 C903 1.385 . S
C903 H889 0.931 . S
C903 C902 1.385 . S
C903 C904 1.389 . S
C904 C903 1.389 . S
C904 C905 1.387 . S
C905 H890 0.930 . S
C905 C900 1.390 . S
C905 C904 1.387 . S
H906 C918 0.930 . S
H907 C920 0.930 . S
H908 C921 0.930 . S
H909 C925 0.959 . S
H910 C925 0.959 . S
H911 C925 0.961 . S
H912 C926 0.960 . S
H913 C926 0.961 . S
H914 C926 0.959 . S
H915 C929 0.929 . S
H916 C930 0.931 . S
H917 C932 0.930 . S
C918 H906 0.930 . S
C918 C919 1.399 . S
C918 C923 1.399 . S
C919 C918 1.399 . S
C919 C920 1.376 . S
C920 H907 0.930 . S
C920 C919 1.376 . S
C920 C921 1.388 . S
C921 H908 0.930 . S
C921 C920 1.388 . S
C921 C922 1.390 . S
C922 C921 1.390 . S
C922 C923 1.394 . S
C922 C928 1.465 . S
C923 C918 1.399 . S
C923 C922 1.394 . S
C923 C924 1.516 . S
C924 C923 1.516 . S
C924 C925 1.502 . S
C924 C926 1.561 . S
C924 C927 1.526 . S
C925 H909 0.959 . S
C925 H910 0.959 . S
C925 H911 0.961 . S
C925 C924 1.502 . S
C926 H912 0.960 . S
C926 H913 0.961 . S
C926 H914 0.959 . S
C926 C924 1.561 . S
C927 C924 1.526 . S
C927 C928 1.396 . S
C927 C932 1.390 . S
C928 C922 1.465 . S
C928 C927 1.396 . S
C928 C929 1.399 . S
C929 H915 0.929 . S
C929 C928 1.399 . S
C929 C930 1.385 . S
C930 H916 0.931 . S
C930 C929 1.385 . S
C930 C931 1.389 . S
C931 C930 1.389 . S
C931 C932 1.387 . S
C932 H917 0.930 . S
C932 C927 1.390 . S
C932 C931 1.387 . S
H933 C945 0.930 . S
H934 C947 0.930 . S
H935 C948 0.930 . S
H936 C952 0.959 . S
H937 C952 0.959 . S
H938 C952 0.961 . S
H939 C953 0.960 . S
H940 C953 0.961 . S
H941 C953 0.959 . S
H942 C956 0.929 . S
H943 C957 0.931 . S
H944 C959 0.930 . S
C945 H933 0.930 . S
C945 C946 1.399 . S
C945 C950 1.399 . S
C946 C945 1.399 . S
C946 C947 1.376 . S
C947 H934 0.930 . S
C947 C946 1.376 . S
C947 C948 1.388 . S
C948 H935 0.930 . S
C948 C947 1.388 . S
C948 C949 1.390 . S
C949 C948 1.390 . S
C949 C950 1.394 . S
C949 C955 1.465 . S
C950 C945 1.399 . S
C950 C949 1.394 . S
C950 C951 1.516 . S
C951 C950 1.516 . S
C951 C952 1.502 . S
C951 C953 1.561 . S
C951 C954 1.526 . S
C952 H936 0.959 . S
C952 H937 0.959 . S
C952 H938 0.961 . S
C952 C951 1.502 . S
C953 H939 0.960 . S
C953 H940 0.961 . S
C953 H941 0.959 . S
C953 C951 1.561 . S
C954 C951 1.526 . S
C954 C955 1.396 . S
C954 C959 1.390 . S
C955 C949 1.465 . S
C955 C954 1.396 . S
C955 C956 1.399 . S
C956 H942 0.929 . S
C956 C955 1.399 . S
C956 C957 1.385 . S
C957 H943 0.931 . S
C957 C956 1.385 . S
C957 C958 1.389 . S
C958 C957 1.389 . S
C958 C959 1.387 . S
C959 H944 0.930 . S
C959 C954 1.390 . S
C959 C958 1.387 . S
H960 C972 0.930 1_565 S
H961 C974 0.930 . S
H962 C975 0.930 . S
H963 C979 0.959 . S
H964 C979 0.959 . S
H965 C979 0.961 . S
H966 C980 0.960 . S
H967 C980 0.961 . S
H968 C980 0.959 . S
H969 C983 0.929 1_455 S
H970 C984 0.935 . S
H971 C986 0.930 . S
C972 H960 0.930 1_545 S
C972 C973 1.399 . S
C972 C977 1.399 1_545 S
C973 C972 1.399 . S
C973 C974 1.376 . S
C974 H961 0.930 . S
C974 C973 1.376 . S
C974 C975 1.388 . S
C975 H962 0.930 . S
C975 C974 1.388 . S
C975 C976 1.390 . S
C976 C975 1.390 . S
C976 C977 1.394 1_545 S
C976 C982 1.448 1_455 S
C977 C972 1.399 1_565 S
C977 C976 1.394 1_565 S
C977 C978 1.516 1_455 S
C978 C977 1.516 1_655 S
C978 C979 1.502 . S
C978 C980 1.561 1_655 S
C978 C981 1.526 . S
C979 H963 0.959 . S
C979 H964 0.959 . S
C979 H965 0.961 . S
C979 C978 1.502 . S
C980 H966 0.960 . S
C980 H967 0.961 . S
C980 H968 0.959 . S
C980 C978 1.561 1_455 S
C981 C978 1.526 . S
C981 C982 1.412 1_565 S
C981 C986 1.390 . S
C982 C976 1.448 1_655 S
C982 C981 1.412 1_545 S
C982 C983 1.403 . S
C983 H969 0.929 1_655 S
C983 C982 1.403 . S
C983 C984 1.391 . S
C984 H970 0.935 . S
C984 C983 1.391 . S
C984 C985 1.380 1_545 S
C985 C984 1.380 1_565 S
C985 C986 1.387 . S
C986 H971 0.930 . S
C986 C981 1.390 . S
C986 C985 1.387 . S
H987 C999 0.930 . S
H988 C1001 0.930 . S
H989 C1002 0.930 1_545 S
H990 C1006 0.959 . S
H991 C1006 0.959 . S
H992 C1006 0.961 1_565 S
H993 C1007 0.960 . S
H994 C1007 0.961 . S
H995 C1007 0.959 . S
H996 C1010 0.929 . S
H997 C1011 0.931 . S
H998 C1013 0.930 . S
C999 H987 0.930 . S
C999 C1000 1.399 . S
C999 C1004 1.399 . S
C1000 C999 1.399 . S
C1000 C1001 1.376 . S
C1001 H988 0.930 . S
C1001 C1000 1.376 . S
C1001 C1002 1.388 . S
C1002 H989 0.930 1_565 S
C1002 C1001 1.388 . S
C1002 C1003 1.390 . S
C1003 C1002 1.390 . S
C1003 C1004 1.394 . S
C1003 C1009 1.465 1_565 S
C1004 C999 1.399 . S
C1004 C1003 1.394 . S
C1004 C1005 1.516 . S
C1005 C1004 1.516 . S
C1005 C1006 1.502 1_565 S
C1005 C1007 1.561 . S
C1005 C1008 1.526 1_565 S
C1006 H990 0.959 . S
C1006 H991 0.959 . S
C1006 H992 0.961 1_545 S
C1006 C1005 1.502 1_545 S
C1007 H993 0.960 . S
C1007 H994 0.961 . S
C1007 H995 0.959 . S
C1007 C1005 1.561 . S
C1008 C1005 1.526 1_545 S
C1008 C1009 1.396 . S
C1008 C1013 1.390 . S
C1009 C1003 1.465 1_545 S
C1009 C1008 1.396 . S
C1009 C1010 1.399 . S
C1010 H996 0.929 . S
C1010 C1009 1.399 . S
C1010 C1011 1.385 . S
C1011 H997 0.931 . S
C1011 C1010 1.385 . S
C1011 C1012 1.389 . S
C1012 C1011 1.389 . S
C1012 C1013 1.387 . S
C1013 H998 0.930 . S
C1013 C1008 1.390 . S
C1013 C1012 1.387 . S
H1014 C1026 0.930 . S
H1015 C1028 0.930 . S
H1016 C1029 0.930 1_554 S
H1017 C1033 0.959 . S
H1018 C1033 0.959 . S
H1019 C1033 0.949 1_545 S
H1020 C1034 0.960 . S
H1021 C1034 0.961 1_554 S
H1022 C1034 0.959 1_554 S
H1023 C1037 0.929 . S
H1024 C1038 0.931 . S
H1025 C1040 0.930 . S
C1026 H1014 0.930 . S
C1026 C1027 1.399 . S
C1026 C1031 1.399 . S
C1027 C1026 1.399 . S
C1027 C1028 1.376 . S
C1028 H1015 0.930 . S
C1028 C1027 1.376 . S
C1028 C1029 1.388 . S
C1029 H1016 0.930 1_556 S
C1029 C1028 1.388 . S
C1029 C1030 1.390 . S
C1030 C1029 1.390 . S
C1030 C1031 1.394 . S
C1030 C1036 1.465 1_546 S
C1031 C1026 1.399 . S
C1031 C1030 1.394 . S
C1031 C1032 1.516 . S
C1032 C1031 1.516 . S
C1032 C1033 1.502 1_545 S
C1032 C1034 1.561 . S
C1032 C1035 1.526 1_546 S
C1033 H1017 0.959 . S
C1033 H1018 0.959 . S
C1033 H1019 0.949 1_565 S
C1033 C1032 1.502 1_565 S
C1034 H1020 0.960 . S
C1034 H1021 0.961 1_556 S
C1034 H1022 0.959 1_556 S
C1034 C1032 1.561 . S
C1035 C1032 1.526 1_564 S
C1035 C1036 1.396 . S
C1035 C1040 1.390 . S
C1036 C1030 1.465 1_564 S
C1036 C1035 1.396 . S
C1036 C1037 1.399 . S
C1037 H1023 0.929 . S
C1037 C1036 1.399 . S
C1037 C1038 1.385 . S
C1038 H1024 0.931 . S
C1038 C1037 1.385 . S
C1038 C1039 1.389 . S
C1039 C1038 1.389 . S
C1039 C1040 1.387 . S
C1040 H1025 0.930 . S
C1040 C1035 1.390 . S
C1040 C1039 1.387 . S
H1041 C1053 0.930 . S
H1042 C1055 0.930 1_565 S
H1043 C1056 0.928 1_455 S
H1044 C1060 0.959 . S
H1045 C1060 0.959 . S
H1046 C1060 0.961 . S
H1047 C1061 0.960 . S
H1048 C1061 0.961 . S
H1049 C1061 0.959 . S
H1050 C1064 0.929 1_554 S
H1051 C1065 0.931 . S
H1052 C1067 0.930 1_545 S
C1053 H1041 0.930 . S
C1053 C1054 1.399 . S
C1053 C1058 1.399 . S
C1054 C1053 1.399 . S
C1054 C1055 1.376 . S
C1055 H1042 0.930 1_545 S
C1055 C1054 1.376 . S
C1055 C1056 1.391 1_545 S
C1056 H1043 0.928 1_655 S
C1056 C1055 1.391 1_565 S
C1056 C1057 1.389 1_655 S
C1057 C1056 1.389 1_455 S
C1057 C1058 1.382 1_465 S
C1057 C1063 1.476 1_554 S
C1058 C1053 1.399 . S
C1058 C1057 1.382 1_645 S
C1058 C1059 1.516 1_554 S
C1059 C1058 1.516 1_556 S
C1059 C1060 1.502 . S
C1059 C1061 1.561 1_655 S
C1059 C1062 1.526 1_655 S
C1060 H1044 0.959 . S
C1060 H1045 0.959 . S
C1060 H1046 0.961 . S
C1060 C1059 1.502 . S
C1061 H1047 0.960 . S
C1061 H1048 0.961 . S
C1061 H1049 0.959 . S
C1061 C1059 1.561 1_455 S
C1062 C1059 1.526 1_455 S
C1062 C1063 1.396 1_545 S
C1062 C1067 1.390 1_545 S
C1063 C1057 1.476 1_556 S
C1063 C1062 1.396 1_565 S
C1063 C1064 1.399 . S
C1064 H1050 0.929 1_556 S
C1064 C1063 1.399 . S
C1064 C1065 1.385 . S
C1065 H1051 0.931 . S
C1065 C1064 1.385 . S
C1065 C1066 1.389 . S
C1066 C1065 1.389 . S
C1066 C1067 1.387 . S
C1067 H1052 0.930 1_565 S
C1067 C1062 1.390 1_565 S
C1067 C1066 1.387 . S
H1068 C1080 0.930 . S
H1069 C1082 0.930 . S
H1070 C1083 0.930 . S
H1071 C1087 0.959 . S
H1072 C1087 0.959 . S
H1073 C1087 0.961 . S
H1074 C1088 0.960 . S
H1075 C1088 0.961 . S
H1076 C1088 0.959 . S
H1077 C1091 0.929 . S
H1078 C1092 0.931 . S
H1079 C1094 0.930 . S
C1080 H1068 0.930 . S
C1080 C1081 1.399 . S
C1080 C1085 1.399 . S
C1081 C1080 1.399 . S
C1081 C1082 1.376 . S
C1082 H1069 0.930 . S
C1082 C1081 1.376 . S
C1082 C1083 1.388 . S
C1083 H1070 0.930 . S
C1083 C1082 1.388 . S
C1083 C1084 1.390 . S
C1084 C1083 1.390 . S
C1084 C1085 1.394 . S
C1084 C1090 1.465 . S
C1085 C1080 1.399 . S
C1085 C1084 1.394 . S
C1085 C1086 1.516 . S
C1086 C1085 1.516 . S
C1086 C1087 1.502 . S
C1086 C1088 1.561 . S
C1086 C1089 1.526 . S
C1087 H1071 0.959 . S
C1087 H1072 0.959 . S
C1087 H1073 0.961 . S
C1087 C1086 1.502 . S
C1088 H1074 0.960 . S
C1088 H1075 0.961 . S
C1088 H1076 0.959 . S
C1088 C1086 1.561 . S
C1089 C1086 1.526 . S
C1089 C1090 1.396 . S
C1089 C1094 1.390 . S
C1090 C1084 1.465 . S
C1090 C1089 1.396 . S
C1090 C1091 1.399 . S
C1091 H1077 0.929 . S
C1091 C1090 1.399 . S
C1091 C1092 1.385 . S
C1092 H1078 0.931 . S
C1092 C1091 1.385 . S
C1092 C1093 1.389 . S
C1093 C1092 1.389 . S
C1093 C1094 1.387 . S
C1094 H1079 0.930 . S
C1094 C1089 1.390 . S
C1094 C1093 1.387 . S
H1095 C1107 0.930 . S
H1096 C1109 0.930 . S
H1097 C1110 0.930 . S
H1098 C1114 0.959 . S
H1099 C1114 0.959 . S
H1100 C1114 0.961 . S
H1101 C1115 0.960 . S
H1102 C1115 0.961 . S
H1103 C1115 0.959 1_655 S
H1104 C1118 0.929 . S
H1105 C1119 0.931 . S
H1106 C1121 0.930 . S
C1107 H1095 0.930 . S
C1107 C1108 1.399 . S
C1107 C1112 1.399 . S
C1108 C1107 1.399 . S
C1108 C1109 1.376 . S
C1109 H1096 0.930 . S
C1109 C1108 1.376 . S
C1109 C1110 1.388 1_455 S
C1110 H1097 0.930 . S
C1110 C1109 1.388 1_655 S
C1110 C1111 1.390 . S
C1111 C1110 1.390 . S
C1111 C1112 1.394 1_655 S
C1111 C1117 1.465 . S
C1112 C1107 1.399 . S
C1112 C1111 1.394 1_455 S
C1112 C1113 1.516 . S
C1113 C1112 1.516 . S
C1113 C1114 1.502 . S
C1113 C1115 1.561 . S
C1113 C1116 1.526 1_455 S
C1114 H1098 0.959 . S
C1114 H1099 0.959 . S
C1114 H1100 0.961 . S
C1114 C1113 1.502 . S
C1115 H1101 0.960 . S
C1115 H1102 0.961 . S
C1115 H1103 0.959 1_455 S
C1115 C1113 1.561 . S
C1116 C1113 1.526 1_655 S
C1116 C1117 1.396 . S
C1116 C1121 1.390 . S
C1117 C1111 1.465 . S
C1117 C1116 1.396 . S
C1117 C1118 1.399 . S
C1118 H1104 0.929 . S
C1118 C1117 1.399 . S
C1118 C1119 1.385 . S
C1119 H1105 0.931 . S
C1119 C1118 1.385 . S
C1119 C1120 1.389 . S
C1120 C1119 1.389 . S
C1120 C1121 1.387 . S
C1121 H1106 0.930 . S
C1121 C1116 1.390 . S
C1121 C1120 1.387 . S
H1122 C1134 0.930 . S
H1123 C1136 0.930 1_655 S
H1124 C1137 0.930 . S
H1125 C1141 0.959 . S
H1126 C1141 0.959 . S
H1127 C1141 0.961 . S
H1128 C1142 0.960 . S
H1129 C1142 0.961 . S
H1130 C1142 0.959 . S
H1131 C1145 0.929 1_554 S
H1132 C1146 0.931 . S
H1133 C1148 0.930 1_455 S
C1134 H1122 0.930 . S
C1134 C1135 1.399 . S
C1134 C1139 1.399 . S
C1135 C1134 1.399 . S
C1135 C1136 1.376 . S
C1136 H1123 0.930 1_455 S
C1136 C1135 1.376 . S
C1136 C1137 1.388 1_455 S
C1137 H1124 0.930 . S
C1137 C1136 1.388 1_655 S
C1137 C1138 1.390 . S
C1138 C1137 1.390 . S
C1138 C1139 1.394 1_655 S
C1138 C1144 1.465 1_554 S
C1139 C1134 1.399 . S
C1139 C1138 1.394 1_455 S
C1139 C1140 1.516 1_554 S
C1140 C1139 1.516 1_556 S
C1140 C1141 1.502 . S
C1140 C1142 1.561 . S
C1140 C1143 1.534 . S
C1141 H1125 0.959 . S
C1141 H1126 0.959 . S
C1141 H1127 0.961 . S
C1141 C1140 1.502 . S
C1142 H1128 0.960 . S
C1142 H1129 0.961 . S
C1142 H1130 0.959 . S
C1142 C1140 1.561 . S
C1143 C1140 1.534 . S
C1143 C1144 1.390 1_455 S
C1143 C1148 1.387 1_455 S
C1144 C1138 1.465 1_556 S
C1144 C1143 1.390 1_655 S
C1144 C1145 1.399 . S
C1145 H1131 0.929 1_556 S
C1145 C1144 1.399 . S
C1145 C1146 1.385 . S
C1146 H1132 0.931 . S
C1146 C1145 1.385 . S
C1146 C1147 1.389 . S
C1147 C1146 1.389 . S
C1147 C1148 1.387 . S
C1148 H1133 0.930 1_655 S
C1148 C1143 1.387 1_655 S
C1148 C1147 1.387 . S
H1149 C1161 0.930 . S
H1150 C1163 0.930 . S
H1151 C1164 0.930 . S
H1152 C1168 0.959 1_556 S
H1153 C1168 0.959 . S
H1154 C1168 0.961 1_556 S
H1155 C1169 0.960 . S
H1156 C1169 0.961 . S
H1157 C1169 0.959 . S
H1158 C1172 0.929 . S
H1159 C1173 0.931 . S
H1160 C1175 0.930 . S
C1161 H1149 0.930 . S
C1161 C1162 1.399 . S
C1161 C1166 1.399 . S
C1162 C1161 1.399 . S
C1162 C1163 1.376 . S
C1163 H1150 0.930 . S
C1163 C1162 1.376 . S
C1163 C1164 1.388 . S
C1164 H1151 0.930 . S
C1164 C1163 1.388 . S
C1164 C1165 1.390 . S
C1165 C1164 1.390 . S
C1165 C1166 1.394 . S
C1165 C1171 1.465 1_556 S
C1166 C1161 1.399 . S
C1166 C1165 1.394 . S
C1166 C1167 1.516 1_556 S
C1167 C1166 1.516 1_554 S
C1167 C1168 1.502 . S
C1167 C1169 1.561 . S
C1167 C1170 1.526 . S
C1168 H1152 0.959 1_554 S
C1168 H1153 0.959 . S
C1168 H1154 0.961 1_554 S
C1168 C1167 1.502 . S
C1169 H1155 0.960 . S
C1169 H1156 0.961 . S
C1169 H1157 0.959 . S
C1169 C1167 1.561 . S
C1170 C1167 1.526 . S
C1170 C1171 1.396 . S
C1170 C1175 1.390 . S
C1171 C1165 1.465 1_554 S
C1171 C1170 1.396 . S
C1171 C1172 1.399 . S
C1172 H1158 0.929 . S
C1172 C1171 1.399 . S
C1172 C1173 1.385 . S
C1173 H1159 0.931 . S
C1173 C1172 1.385 . S
C1173 C1174 1.389 . S
C1174 C1173 1.389 . S
C1174 C1175 1.387 . S
C1175 H1160 0.930 . S
C1175 C1170 1.390 . S
C1175 C1174 1.387 . S
H1176 C1188 0.930 . S
H1177 C1190 0.930 . S
H1178 C1191 0.930 . S
H1179 C1195 0.959 . S
H1180 C1195 0.959 . S
H1181 C1195 0.961 . S
H1182 C1196 0.960 . S
H1183 C1196 0.961 . S
H1184 C1196 0.959 . S
H1185 C1199 0.929 . S
H1186 C1200 0.931 . S
H1187 C1202 0.930 . S
C1188 H1176 0.930 . S
C1188 C1189 1.399 . S
C1188 C1193 1.399 . S
C1189 C1188 1.399 . S
C1189 C1190 1.376 . S
C1190 H1177 0.930 . S
C1190 C1189 1.376 . S
C1190 C1191 1.388 . S
C1191 H1178 0.930 . S
C1191 C1190 1.388 . S
C1191 C1192 1.390 . S
C1192 C1191 1.390 . S
C1192 C1193 1.394 . S
C1192 C1198 1.465 1_545 S
C1193 C1188 1.399 . S
C1193 C1192 1.394 . S
C1193 C1194 1.510 1_545 S
C1194 C1193 1.510 1_565 S
C1194 C1195 1.511 . S
C1194 C1196 1.552 1_565 S
C1194 C1197 1.531 . S
C1195 H1179 0.959 . S
C1195 H1180 0.959 . S
C1195 H1181 0.961 . S
C1195 C1194 1.511 . S
C1196 H1182 0.960 . S
C1196 H1183 0.961 . S
C1196 H1184 0.959 . S
C1196 C1194 1.552 1_545 S
C1197 C1194 1.531 . S
C1197 C1198 1.396 . S
C1197 C1202 1.390 . S
C1198 C1192 1.465 1_565 S
C1198 C1197 1.396 . S
C1198 C1199 1.399 . S
C1199 H1185 0.929 . S
C1199 C1198 1.399 . S
C1199 C1200 1.385 . S
C1200 H1186 0.931 . S
C1200 C1199 1.385 . S
C1200 C1201 1.389 . S
C1201 C1200 1.389 . S
C1201 C1202 1.387 . S
C1202 H1187 0.930 . S
C1202 C1197 1.390 . S
C1202 C1201 1.387 . S
H1203 C1215 0.930 . S
H1204 C1217 0.930 . S
H1205 C1218 0.930 1_565 S
H1206 C1222 0.959 . S
H1207 C1222 0.959 . S
H1208 C1222 0.961 . S
H1209 C1223 0.960 1_545 S
H1210 C1223 0.961 . S
H1211 C1223 0.959 . S
H1212 C1226 0.929 . S
H1213 C1227 0.931 . S
H1214 C1229 0.930 . S
C1215 H1203 0.930 . S
C1215 C1216 1.399 . S
C1215 C1220 1.399 . S
C1216 C1215 1.399 . S
C1216 C1217 1.376 . S
C1217 H1204 0.930 . S
C1217 C1216 1.376 . S
C1217 C1218 1.388 . S
C1218 H1205 0.930 1_545 S
C1218 C1217 1.388 . S
C1218 C1219 1.390 . S
C1219 C1218 1.390 . S
C1219 C1220 1.394 . S
C1219 C1225 1.465 1_545 S
C1220 C1215 1.399 . S
C1220 C1219 1.394 . S
C1220 C1221 1.516 . S
C1221 C1220 1.516 . S
C1221 C1222 1.502 . S
C1221 C1223 1.561 1_545 S
C1221 C1224 1.526 1_545 S
C1222 H1206 0.959 . S
C1222 H1207 0.959 . S
C1222 H1208 0.961 . S
C1222 C1221 1.502 . S
C1223 H1209 0.960 1_565 S
C1223 H1210 0.961 . S
C1223 H1211 0.959 . S
C1223 C1221 1.561 1_565 S
C1224 C1221 1.526 1_565 S
C1224 C1225 1.396 . S
C1224 C1229 1.390 . S
C1225 C1219 1.465 1_565 S
C1225 C1224 1.396 . S
C1225 C1226 1.399 . S
C1226 H1212 0.929 . S
C1226 C1225 1.399 . S
C1226 C1227 1.385 . S
C1227 H1213 0.931 . S
C1227 C1226 1.385 . S
C1227 C1228 1.389 . S
C1228 C1227 1.389 . S
C1228 C1229 1.387 . S
C1229 H1214 0.930 . S
C1229 C1224 1.390 . S
C1229 C1228 1.387 . S
H1230 C1242 0.930 . S
H1231 C1244 0.930 . S
H1232 C1245 0.930 . S
H1233 C1249 0.959 . S
H1234 C1249 0.959 . S
H1235 C1249 0.961 . S
H1236 C1250 0.960 . S
H1237 C1250 0.945 1_565 S
H1238 C1250 0.959 . S
H1239 C1253 0.929 1_545 S
H1240 C1254 0.931 . S
H1241 C1256 0.930 . S
C1242 H1230 0.930 . S
C1242 C1243 1.399 . S
C1242 C1247 1.399 . S
C1243 C1242 1.399 . S
C1243 C1244 1.376 . S
C1244 H1231 0.930 . S
C1244 C1243 1.376 . S
C1244 C1245 1.388 . S
C1245 H1232 0.930 . S
C1245 C1244 1.388 . S
C1245 C1246 1.390 . S
C1246 C1245 1.390 . S
C1246 C1247 1.394 . S
C1246 C1252 1.465 1_545 S
C1247 C1242 1.399 . S
C1247 C1246 1.394 . S
C1247 C1248 1.516 1_545 S
C1248 C1247 1.516 1_565 S
C1248 C1249 1.502 . S
C1248 C1250 1.561 1_565 S
C1248 C1251 1.526 . S
C1249 H1233 0.959 . S
C1249 H1234 0.959 . S
C1249 H1235 0.961 . S
C1249 C1248 1.502 . S
C1250 H1236 0.960 . S
C1250 H1237 0.945 1_545 S
C1250 H1238 0.959 . S
C1250 C1248 1.561 1_545 S
C1251 C1248 1.526 . S
C1251 C1252 1.396 . S
C1251 C1256 1.390 . S
C1252 C1246 1.465 1_565 S
C1252 C1251 1.396 . S
C1252 C1253 1.399 . S
C1253 H1239 0.929 1_565 S
C1253 C1252 1.399 . S
C1253 C1254 1.385 . S
C1254 H1240 0.931 . S
C1254 C1253 1.385 . S
C1254 C1255 1.389 . S
C1255 C1254 1.389 . S
C1255 C1256 1.387 . S
C1256 H1241 0.930 . S
C1256 C1251 1.390 . S
C1256 C1255 1.387 . S
H1257 C1269 0.930 . S
H1258 C1271 0.930 . S
H1259 C1272 0.930 . S
H1260 C1276 0.959 . S
H1261 C1276 0.959 . S
H1262 C1276 0.961 . S
H1263 C1277 0.960 . S
H1264 C1277 0.961 . S
H1265 C1277 0.945 1_565 S
H1266 C1280 0.929 . S
H1267 C1281 0.931 . S
H1268 C1283 0.930 . S
C1269 H1257 0.930 . S
C1269 C1270 1.399 . S
C1269 C1274 1.399 . S
C1270 C1269 1.399 . S
C1270 C1271 1.376 . S
C1271 H1258 0.930 . S
C1271 C1270 1.376 . S
C1271 C1272 1.388 1_545 S
C1272 H1259 0.930 . S
C1272 C1271 1.388 1_565 S
C1272 C1273 1.390 . S
C1273 C1272 1.390 . S
C1273 C1274 1.394 1_565 S
C1273 C1279 1.465 . S
C1274 C1269 1.399 . S
C1274 C1273 1.394 1_545 S
C1274 C1275 1.516 . S
C1275 C1274 1.516 . S
C1275 C1276 1.502 . S
C1275 C1277 1.561 . S
C1275 C1278 1.526 1_545 S
C1276 H1260 0.959 . S
C1276 H1261 0.959 . S
C1276 H1262 0.961 . S
C1276 C1275 1.502 . S
C1277 H1263 0.960 . S
C1277 H1264 0.961 . S
C1277 H1265 0.945 1_545 S
C1277 C1275 1.561 . S
C1278 C1275 1.526 1_565 S
C1278 C1279 1.396 . S
C1278 C1283 1.390 . S
C1279 C1273 1.465 . S
C1279 C1278 1.396 . S
C1279 C1280 1.399 . S
C1280 H1266 0.929 . S
C1280 C1279 1.399 . S
C1280 C1281 1.385 . S
C1281 H1267 0.931 . S
C1281 C1280 1.385 . S
C1281 C1282 1.389 . S
C1282 C1281 1.389 . S
C1282 C1283 1.387 . S
C1283 H1268 0.930 . S
C1283 C1278 1.390 . S
C1283 C1282 1.387 . S
H1284 C1296 0.930 . S
H1285 C1298 0.930 . S
H1286 C1299 0.930 . S
H1287 C1303 0.959 . S
H1288 C1303 0.959 . S
H1289 C1303 0.961 . S
H1290 C1304 0.960 . S
H1291 C1304 0.961 . S
H1292 C1304 0.959 . S
H1293 C1307 0.929 . S
H1294 C1308 0.931 . S
H1295 C1310 0.930 . S
C1296 H1284 0.930 . S
C1296 C1297 1.399 . S
C1296 C1301 1.399 . S
C1297 C1296 1.399 . S
C1297 C1298 1.376 . S
C1298 H1285 0.930 . S
C1298 C1297 1.376 . S
C1298 C1299 1.388 . S
C1299 H1286 0.930 . S
C1299 C1298 1.388 . S
C1299 C1300 1.390 . S
C1300 C1299 1.390 . S
C1300 C1301 1.394 . S
C1300 C1306 1.465 . S
C1301 C1296 1.399 . S
C1301 C1300 1.394 . S
C1301 C1302 1.516 . S
C1302 C1301 1.516 . S
C1302 C1303 1.502 . S
C1302 C1304 1.561 . S
C1302 C1305 1.526 . S
C1303 H1287 0.959 . S
C1303 H1288 0.959 . S
C1303 H1289 0.961 . S
C1303 C1302 1.502 . S
C1304 H1290 0.960 . S
C1304 H1291 0.961 . S
C1304 H1292 0.959 . S
C1304 C1302 1.561 . S
C1305 C1302 1.526 . S
C1305 C1306 1.396 . S
C1305 C1310 1.390 . S
C1306 C1300 1.465 . S
C1306 C1305 1.396 . S
C1306 C1307 1.399 . S
C1307 H1293 0.929 . S
C1307 C1306 1.399 . S
C1307 C1308 1.385 . S
C1308 H1294 0.931 . S
C1308 C1307 1.385 . S
C1308 C1309 1.389 . S
C1309 C1308 1.389 . S
C1309 C1310 1.387 . S
C1310 H1295 0.930 . S
C1310 C1305 1.390 . S
C1310 C1309 1.387 . S
H1311 C1323 0.930 . S
H1312 C1325 0.930 . S
H1313 C1326 0.930 . S
H1314 C1330 0.959 . S
H1315 C1330 0.959 . S
H1316 C1330 0.961 . S
H1317 C1331 0.960 . S
H1318 C1331 0.961 . S
H1319 C1331 0.959 . S
H1320 C1334 0.929 . S
H1321 C1335 0.931 . S
H1322 C1337 0.930 . S
C1323 H1311 0.930 . S
C1323 C1324 1.399 . S
C1323 C1328 1.399 . S
C1324 C1323 1.399 . S
C1324 C1325 1.376 . S
C1325 H1312 0.930 . S
C1325 C1324 1.376 . S
C1325 C1326 1.388 . S
C1326 H1313 0.930 . S
C1326 C1325 1.388 . S
C1326 C1327 1.390 . S
C1327 C1326 1.390 . S
C1327 C1328 1.394 . S
C1327 C1333 1.465 . S
C1328 C1323 1.399 . S
C1328 C1327 1.394 . S
C1328 C1329 1.516 . S
C1329 C1328 1.516 . S
C1329 C1330 1.502 . S
C1329 C1331 1.561 . S
C1329 C1332 1.526 . S
C1330 H1314 0.959 . S
C1330 H1315 0.959 . S
C1330 H1316 0.961 . S
C1330 C1329 1.502 . S
C1331 H1317 0.960 . S
C1331 H1318 0.961 . S
C1331 H1319 0.959 . S
C1331 C1329 1.561 . S
C1332 C1329 1.526 . S
C1332 C1333 1.396 . S
C1332 C1337 1.390 . S
C1333 C1327 1.465 . S
C1333 C1332 1.396 . S
C1333 C1334 1.399 . S
C1334 H1320 0.929 . S
C1334 C1333 1.399 . S
C1334 C1335 1.385 . S
C1335 H1321 0.931 . S
C1335 C1334 1.385 . S
C1335 C1336 1.389 . S
C1336 C1335 1.389 . S
C1336 C1337 1.387 . S
C1337 H1322 0.930 . S
C1337 C1332 1.390 . S
C1337 C1336 1.387 . S
H1338 C1350 0.930 . S
H1339 C1352 0.930 . S
H1340 C1353 0.930 . S
H1341 C1357 0.959 . S
H1342 C1357 0.959 . S
H1343 C1357 0.961 . S
H1344 C1358 0.960 . S
H1345 C1358 0.961 . S
H1346 C1358 0.959 . S
H1347 C1361 0.929 . S
H1348 C1362 0.931 . S
H1349 C1364 0.930 . S
C1350 H1338 0.930 . S
C1350 C1351 1.399 . S
C1350 C1355 1.399 . S
C1351 C1350 1.399 . S
C1351 C1352 1.376 . S
C1352 H1339 0.930 . S
C1352 C1351 1.376 . S
C1352 C1353 1.388 . S
C1353 H1340 0.930 . S
C1353 C1352 1.388 . S
C1353 C1354 1.390 . S
C1354 C1353 1.390 . S
C1354 C1355 1.394 . S
C1354 C1360 1.465 . S
C1355 C1350 1.399 . S
C1355 C1354 1.394 . S
C1355 C1356 1.516 . S
C1356 C1355 1.516 . S
C1356 C1357 1.502 . S
C1356 C1358 1.561 . S
C1356 C1359 1.526 . S
C1357 H1341 0.959 . S
C1357 H1342 0.959 . S
C1357 H1343 0.961 . S
C1357 C1356 1.502 . S
C1358 H1344 0.960 . S
C1358 H1345 0.961 . S
C1358 H1346 0.959 . S
C1358 C1356 1.561 . S
C1359 C1356 1.526 . S
C1359 C1360 1.396 . S
C1359 C1364 1.390 . S
C1360 C1354 1.465 . S
C1360 C1359 1.396 . S
C1360 C1361 1.399 . S
C1361 H1347 0.929 . S
C1361 C1360 1.399 . S
C1361 C1362 1.385 . S
C1362 H1348 0.931 . S
C1362 C1361 1.385 . S
C1362 C1363 1.389 . S
C1363 C1362 1.389 . S
C1363 C1364 1.387 . S
C1364 H1349 0.930 . S
C1364 C1359 1.390 . S
C1364 C1363 1.387 . S
H1365 C1377 0.930 . S
H1366 C1379 0.930 . S
H1367 C1380 0.930 . S
H1368 C1384 0.959 . S
H1369 C1384 0.959 . S
H1370 C1384 0.961 . S
H1371 C1385 0.960 . S
H1372 C1385 0.961 . S
H1373 C1385 0.959 . S
H1374 C1388 0.929 . S
H1375 C1389 0.931 . S
H1376 C1391 0.930 . S
C1377 H1365 0.930 . S
C1377 C1378 1.399 . S
C1377 C1382 1.399 . S
C1378 C1377 1.399 . S
C1378 C1379 1.376 . S
C1379 H1366 0.930 . S
C1379 C1378 1.376 . S
C1379 C1380 1.388 . S
C1380 H1367 0.930 . S
C1380 C1379 1.388 . S
C1380 C1381 1.390 . S
C1381 C1380 1.390 . S
C1381 C1382 1.394 . S
C1381 C1387 1.465 . S
C1382 C1377 1.399 . S
C1382 C1381 1.394 . S
C1382 C1383 1.516 . S
C1383 C1382 1.516 . S
C1383 C1384 1.502 . S
C1383 C1385 1.561 . S
C1383 C1386 1.526 . S
C1384 H1368 0.959 . S
C1384 H1369 0.959 . S
C1384 H1370 0.961 . S
C1384 C1383 1.502 . S
C1385 H1371 0.960 . S
C1385 H1372 0.961 . S
C1385 H1373 0.959 . S
C1385 C1383 1.561 . S
C1386 C1383 1.526 . S
C1386 C1387 1.396 . S
C1386 C1391 1.390 . S
C1387 C1381 1.465 . S
C1387 C1386 1.396 . S
C1387 C1388 1.399 . S
C1388 H1374 0.929 . S
C1388 C1387 1.399 . S
C1388 C1389 1.385 . S
C1389 H1375 0.931 . S
C1389 C1388 1.385 . S
C1389 C1390 1.389 . S
C1390 C1389 1.389 . S
C1390 C1391 1.387 . S
C1391 H1376 0.930 . S
C1391 C1386 1.390 . S
C1391 C1390 1.387 . S
H1392 C1404 0.930 . S
H1393 C1406 0.930 . S
H1394 C1407 0.930 . S
H1395 C1411 0.959 . S
H1396 C1411 0.959 . S
H1397 C1411 0.961 . S
H1398 C1412 0.960 1_455 S
H1399 C1412 0.961 . S
H1400 C1412 0.959 1_455 S
H1401 C1415 0.911 1_455 S
H1402 C1416 0.931 . S
H1403 C1418 0.930 . S
C1404 H1392 0.930 . S
C1404 C1405 1.399 . S
C1404 C1409 1.399 . S
C1405 C1404 1.399 . S
C1405 C1406 1.376 . S
C1406 H1393 0.930 . S
C1406 C1405 1.376 . S
C1406 C1407 1.388 . S
C1407 H1394 0.930 . S
C1407 C1406 1.388 . S
C1407 C1408 1.390 . S
C1408 C1407 1.390 . S
C1408 C1409 1.394 . S
C1408 C1414 1.465 1_455 S
C1409 C1404 1.399 . S
C1409 C1408 1.394 . S
C1409 C1410 1.516 1_455 S
C1410 C1409 1.516 1_655 S
C1410 C1411 1.502 . S
C1410 C1412 1.561 . S
C1410 C1413 1.526 . S
C1411 H1395 0.959 . S
C1411 H1396 0.959 . S
C1411 H1397 0.961 . S
C1411 C1410 1.502 . S
C1412 H1398 0.960 1_655 S
C1412 H1399 0.961 . S
C1412 H1400 0.959 1_655 S
C1412 C1410 1.561 . S
C1413 C1410 1.526 . S
C1413 C1414 1.396 . S
C1413 C1418 1.390 . S
C1414 C1408 1.465 1_655 S
C1414 C1413 1.396 . S
C1414 C1415 1.399 . S
C1415 H1401 0.911 1_655 S
C1415 C1414 1.399 . S
C1415 C1416 1.385 . S
C1416 H1402 0.931 . S
C1416 C1415 1.385 . S
C1416 C1417 1.389 . S
C1417 C1416 1.389 . S
C1417 C1418 1.387 . S
C1418 H1403 0.930 . S
C1418 C1413 1.390 . S
C1418 C1417 1.387 . S
H1419 C1431 0.930 . S
H1420 C1433 0.930 . S
H1421 C1434 0.930 . S
H1422 C1438 0.959 . S
H1423 C1438 0.959 . S
H1424 C1438 0.961 . S
H1425 C1439 0.960 . S
H1426 C1439 0.961 . S
H1427 C1439 0.959 . S
H1428 C1442 0.929 . S
H1429 C1443 0.931 . S
H1430 C1445 0.930 . S
C1431 H1419 0.930 . S
C1431 C1432 1.399 . S
C1431 C1436 1.399 . S
C1432 C1431 1.399 . S
C1432 C1433 1.376 . S
C1433 H1420 0.930 . S
C1433 C1432 1.376 . S
C1433 C1434 1.388 . S
C1434 H1421 0.930 . S
C1434 C1433 1.388 . S
C1434 C1435 1.390 . S
C1435 C1434 1.390 . S
C1435 C1436 1.394 . S
C1435 C1441 1.465 . S
C1436 C1431 1.399 . S
C1436 C1435 1.394 . S
C1436 C1437 1.516 . S
C1437 C1436 1.516 . S
C1437 C1438 1.502 . S
C1437 C1439 1.561 . S
C1437 C1440 1.526 . S
C1438 H1422 0.959 . S
C1438 H1423 0.959 . S
C1438 H1424 0.961 . S
C1438 C1437 1.502 . S
C1439 H1425 0.960 . S
C1439 H1426 0.961 . S
C1439 H1427 0.959 . S
C1439 C1437 1.561 . S
C1440 C1437 1.526 . S
C1440 C1441 1.396 . S
C1440 C1445 1.390 . S
C1441 C1435 1.465 . S
C1441 C1440 1.396 . S
C1441 C1442 1.399 . S
C1442 H1428 0.929 . S
C1442 C1441 1.399 . S
C1442 C1443 1.385 . S
C1443 H1429 0.931 . S
C1443 C1442 1.385 . S
C1443 C1444 1.389 . S
C1444 C1443 1.389 . S
C1444 C1445 1.387 . S
C1445 H1430 0.930 . S
C1445 C1440 1.390 . S
C1445 C1444 1.387 . S
H1446 C1458 0.930 . S
H1447 C1460 0.930 . S
H1448 C1461 0.930 . S
H1449 C1465 0.959 . S
H1450 C1465 0.959 . S
H1451 C1465 0.961 . S
H1452 C1466 0.960 . S
H1453 C1466 0.961 . S
H1454 C1466 0.959 . S
H1455 C1469 0.929 . S
H1456 C1470 0.931 . S
H1457 C1472 0.930 . S
C1458 H1446 0.930 . S
C1458 C1459 1.399 . S
C1458 C1463 1.399 . S
C1459 C1458 1.399 . S
C1459 C1460 1.376 . S
C1460 H1447 0.930 . S
C1460 C1459 1.376 . S
C1460 C1461 1.388 . S
C1461 H1448 0.930 . S
C1461 C1460 1.388 . S
C1461 C1462 1.390 . S
C1462 C1461 1.390 . S
C1462 C1463 1.394 . S
C1462 C1468 1.465 . S
C1463 C1458 1.399 . S
C1463 C1462 1.394 . S
C1463 C1464 1.516 . S
C1464 C1463 1.516 . S
C1464 C1465 1.502 . S
C1464 C1466 1.561 . S
C1464 C1467 1.526 . S
C1465 H1449 0.959 . S
C1465 H1450 0.959 . S
C1465 H1451 0.961 . S
C1465 C1464 1.502 . S
C1466 H1452 0.960 . S
C1466 H1453 0.961 . S
C1466 H1454 0.959 . S
C1466 C1464 1.561 . S
C1467 C1464 1.526 . S
C1467 C1468 1.396 . S
C1467 C1472 1.390 . S
C1468 C1462 1.465 . S
C1468 C1467 1.396 . S
C1468 C1469 1.399 . S
C1469 H1455 0.929 . S
C1469 C1468 1.399 . S
C1469 C1470 1.385 . S
C1470 H1456 0.931 . S
C1470 C1469 1.385 . S
C1470 C1471 1.389 . S
C1471 C1470 1.389 . S
C1471 C1472 1.387 . S
C1472 H1457 0.930 . S
C1472 C1467 1.390 . S
C1472 C1471 1.387 . S
H1473 C1485 0.930 . S
H1474 C1487 0.930 . S
H1475 C1488 0.930 . S
H1476 C1492 0.959 1_455 S
H1477 C1492 0.959 1_455 S
H1478 C1492 0.961 . S
H1479 C1493 0.960 . S
H1480 C1493 0.961 . S
H1481 C1493 0.959 . S
H1482 C1496 0.929 . S
H1483 C1497 0.931 . S
H1484 C1499 0.930 . S
C1485 H1473 0.930 . S
C1485 C1486 1.399 . S
C1485 C1490 1.399 . S
C1486 C1485 1.399 . S
C1486 C1487 1.376 . S
C1487 H1474 0.930 . S
C1487 C1486 1.376 . S
C1487 C1488 1.388 . S
C1488 H1475 0.930 . S
C1488 C1487 1.388 . S
C1488 C1489 1.390 . S
C1489 C1488 1.390 . S
C1489 C1490 1.394 . S
C1489 C1495 1.465 1_655 S
C1490 C1485 1.399 . S
C1490 C1489 1.394 . S
C1490 C1491 1.516 . S
C1491 C1490 1.516 . S
C1491 C1492 1.502 . S
C1491 C1493 1.561 . S
C1491 C1494 1.526 1_655 S
C1492 H1476 0.959 1_655 S
C1492 H1477 0.959 1_655 S
C1492 H1478 0.961 . S
C1492 C1491 1.502 . S
C1493 H1479 0.960 . S
C1493 H1480 0.961 . S
C1493 H1481 0.959 . S
C1493 C1491 1.561 . S
C1494 C1491 1.526 1_455 S
C1494 C1495 1.396 . S
C1494 C1499 1.390 . S
C1495 C1489 1.465 1_455 S
C1495 C1494 1.396 . S
C1495 C1496 1.399 . S
C1496 H1482 0.929 . S
C1496 C1495 1.399 . S
C1496 C1497 1.385 . S
C1497 H1483 0.931 . S
C1497 C1496 1.385 . S
C1497 C1498 1.389 . S
C1498 C1497 1.389 . S
C1498 C1499 1.387 . S
C1499 H1484 0.930 . S
C1499 C1494 1.390 . S
C1499 C1498 1.387 . S
H1500 C1512 0.930 . S
H1501 C1514 0.930 . S
H1502 C1515 0.925 1_455 S
H1503 C1519 0.959 . S
H1504 C1519 0.959 . S
H1505 C1519 0.961 . S
H1506 C1520 0.960 . S
H1507 C1520 0.961 1_455 S
H1508 C1520 0.959 1_455 S
H1509 C1523 0.929 . S
H1510 C1524 0.931 . S
H1511 C1526 0.930 . S
C1512 H1500 0.930 . S
C1512 C1513 1.399 . S
C1512 C1517 1.399 . S
C1513 C1512 1.399 . S
C1513 C1514 1.376 . S
C1514 H1501 0.930 . S
C1514 C1513 1.376 . S
C1514 C1515 1.388 . S
C1515 H1502 0.925 1_655 S
C1515 C1514 1.388 . S
C1515 C1516 1.390 . S
C1516 C1515 1.390 . S
C1516 C1517 1.394 . S
C1516 C1522 1.465 1_655 S
C1517 C1512 1.399 . S
C1517 C1516 1.394 . S
C1517 C1518 1.516 . S
C1518 C1517 1.516 . S
C1518 C1519 1.502 . S
C1518 C1520 1.561 . S
C1518 C1521 1.526 1_655 S
C1519 H1503 0.959 . S
C1519 H1504 0.959 . S
C1519 H1505 0.961 . S
C1519 C1518 1.502 . S
C1520 H1506 0.960 . S
C1520 H1507 0.961 1_655 S
C1520 H1508 0.959 1_655 S
C1520 C1518 1.561 . S
C1521 C1518 1.526 1_455 S
C1521 C1522 1.396 . S
C1521 C1526 1.390 . S
C1522 C1516 1.465 1_455 S
C1522 C1521 1.396 . S
C1522 C1523 1.399 . S
C1523 H1509 0.929 . S
C1523 C1522 1.399 . S
C1523 C1524 1.385 . S
C1524 H1510 0.931 . S
C1524 C1523 1.385 . S
C1524 C1525 1.389 . S
C1525 C1524 1.389 . S
C1525 C1526 1.387 . S
C1526 H1511 0.930 . S
C1526 C1521 1.390 . S
C1526 C1525 1.387 . S
H1527 C1539 0.930 . S
H1528 C1541 0.930 . S
H1529 C1542 0.930 . S
H1530 C1546 0.959 . S
H1531 C1546 0.959 . S
H1532 C1546 0.961 . S
H1533 C1547 0.960 . S
H1534 C1547 0.961 . S
H1535 C1547 0.959 . S
H1536 C1550 0.929 . S
H1537 C1551 0.931 . S
H1538 C1553 0.930 . S
C1539 H1527 0.930 . S
C1539 C1540 1.399 . S
C1539 C1544 1.399 . S
C1540 C1539 1.399 . S
C1540 C1541 1.376 . S
C1541 H1528 0.930 . S
C1541 C1540 1.376 . S
C1541 C1542 1.388 . S
C1542 H1529 0.930 . S
C1542 C1541 1.388 . S
C1542 C1543 1.390 . S
C1543 C1542 1.390 . S
C1543 C1544 1.394 . S
C1543 C1549 1.465 . S
C1544 C1539 1.399 . S
C1544 C1543 1.394 . S
C1544 C1545 1.516 . S
C1545 C1544 1.516 . S
C1545 C1546 1.502 . S
C1545 C1547 1.561 . S
C1545 C1548 1.526 . S
C1546 H1530 0.959 . S
C1546 H1531 0.959 . S
C1546 H1532 0.961 . S
C1546 C1545 1.502 . S
C1547 H1533 0.960 . S
C1547 H1534 0.961 . S
C1547 H1535 0.959 . S
C1547 C1545 1.561 . S
C1548 C1545 1.526 . S
C1548 C1549 1.396 . S
C1548 C1553 1.390 . S
C1549 C1543 1.465 . S
C1549 C1548 1.396 . S
C1549 C1550 1.399 . S
C1550 H1536 0.929 . S
C1550 C1549 1.399 . S
C1550 C1551 1.385 . S
C1551 H1537 0.931 . S
C1551 C1550 1.385 . S
C1551 C1552 1.389 . S
C1552 C1551 1.389 . S
C1552 C1553 1.387 . S
C1553 H1538 0.930 . S
C1553 C1548 1.390 . S
C1553 C1552 1.387 . S
H1554 C1566 0.930 . S
H1555 C1568 0.930 . S
H1556 C1569 0.930 . S
H1557 C1573 0.959 . S
H1558 C1573 0.959 . S
H1559 C1573 0.961 . S
H1560 C1574 0.960 . S
H1561 C1574 0.961 . S
H1562 C1574 0.959 . S
H1563 C1577 0.929 . S
H1564 C1578 0.931 . S
H1565 C1580 0.930 . S
C1566 H1554 0.930 . S
C1566 C1567 1.399 . S
C1566 C1571 1.399 . S
C1567 C1566 1.399 . S
C1567 C1568 1.376 . S
C1568 H1555 0.930 . S
C1568 C1567 1.376 . S
C1568 C1569 1.388 . S
C1569 H1556 0.930 . S
C1569 C1568 1.388 . S
C1569 C1570 1.390 . S
C1570 C1569 1.390 . S
C1570 C1571 1.394 . S
C1570 C1576 1.465 . S
C1571 C1566 1.399 . S
C1571 C1570 1.394 . S
C1571 C1572 1.516 . S
C1572 C1571 1.516 . S
C1572 C1573 1.502 . S
C1572 C1574 1.561 . S
C1572 C1575 1.526 . S
C1573 H1557 0.959 . S
C1573 H1558 0.959 . S
C1573 H1559 0.961 . S
C1573 C1572 1.502 . S
C1574 H1560 0.960 . S
C1574 H1561 0.961 . S
C1574 H1562 0.959 . S
C1574 C1572 1.561 . S
C1575 C1572 1.526 . S
C1575 C1576 1.396 . S
C1575 C1580 1.390 . S
C1576 C1570 1.465 . S
C1576 C1575 1.396 . S
C1576 C1577 1.399 . S
C1577 H1563 0.929 . S
C1577 C1576 1.399 . S
C1577 C1578 1.385 . S
C1578 H1564 0.931 . S
C1578 C1577 1.385 . S
C1578 C1579 1.389 . S
C1579 C1578 1.389 . S
C1579 C1580 1.387 . S
C1580 H1565 0.930 . S
C1580 C1575 1.390 . S
C1580 C1579 1.387 . S
H1581 C1593 0.930 . S
H1582 C1595 0.930 . S
H1583 C1596 0.930 . S
H1584 C1600 0.959 . S
H1585 C1600 0.959 . S
H1586 C1600 0.961 . S
H1587 C1601 0.960 . S
H1588 C1601 0.961 1_455 S
H1589 C1601 0.959 . S
H1590 C1604 0.929 . S
H1591 C1605 0.931 . S
H1592 C1607 0.930 . S
C1593 H1581 0.930 . S
C1593 C1594 1.399 . S
C1593 C1598 1.399 . S
C1594 C1593 1.399 . S
C1594 C1595 1.376 . S
C1595 H1582 0.930 . S
C1595 C1594 1.376 . S
C1595 C1596 1.388 . S
C1596 H1583 0.930 . S
C1596 C1595 1.388 . S
C1596 C1597 1.390 . S
C1597 C1596 1.390 . S
C1597 C1598 1.394 . S
C1597 C1603 1.465 1_655 S
C1598 C1593 1.399 . S
C1598 C1597 1.394 . S
C1598 C1599 1.516 1_655 S
C1599 C1598 1.516 1_455 S
C1599 C1600 1.502 . S
C1599 C1601 1.561 1_455 S
C1599 C1602 1.526 . S
C1600 H1584 0.959 . S
C1600 H1585 0.959 . S
C1600 H1586 0.961 . S
C1600 C1599 1.502 . S
C1601 H1587 0.960 . S
C1601 H1588 0.961 1_655 S
C1601 H1589 0.959 . S
C1601 C1599 1.561 1_655 S
C1602 C1599 1.526 . S
C1602 C1603 1.396 . S
C1602 C1607 1.390 . S
C1603 C1597 1.465 1_455 S
C1603 C1602 1.396 . S
C1603 C1604 1.399 . S
C1604 H1590 0.929 . S
C1604 C1603 1.399 . S
C1604 C1605 1.385 . S
C1605 H1591 0.931 . S
C1605 C1604 1.385 . S
C1605 C1606 1.389 . S
C1606 C1605 1.389 . S
C1606 C1607 1.387 . S
C1607 H1592 0.930 . S
C1607 C1602 1.390 . S
C1607 C1606 1.387 . S
C541 C107 1.484 . S
C553 C8 1.498 . S
C568 C74 1.460 . S
C580 C41 1.445 . S
C595 C140 1.497 . S
C607 C239 1.493 . S
C622 C173 1.455 . S
C634 C206 1.450 . S
C649 C272 1.462 . S
C661 C371 1.486 . S
C676 C305 1.487 . S
C688 C338 1.499 . S
C703 C503 1.496 . S
C715 C404 1.491 . S
C730 C470 1.457 . S
C742 C437 1.464 . S
C757 N14 0.551 . S
C769 N344 0.625 . S
C784 N377 0.547 . S
C796 N47 0.625 . S
C811 N278 0.624 . S
C823 N80 0.550 . S
C838 N311 0.633 . S
C850 N113 0.544 . S
C865 N476 0.555 . S
C877 N146 0.646 . S
C892 N509 0.612 . S
C904 N179 0.607 . S
C919 N410 0.600 . S
C931 N212 0.538 . S
C946 N443 0.633 . S
C958 N245 0.519 . S
C973 N5 1.493 . S
C985 N137 1.450 . S
C1000 N38 1.443 . S
C1012 N170 1.496 . S
C1027 N203 1.496 . S
C1039 N71 1.443 . S
C1054 N104 1.443 . S
C1066 N236 1.490 . S
C1081 N269 1.446 . S
C1093 N401 1.487 . S
C1108 N434 1.451 . S
C1120 N302 1.480 . S
C1135 N335 1.448 . S
C1147 N467 1.494 . S
C1162 N500 1.482 . S
C1174 N368 1.464 . S
C1189 C17 1.373 . S
C1201 C50 1.359 . S
C1216 C116 1.334 . S
C1228 C83 1.358 . S
C1243 C182 1.364 . S
C1255 C149 1.339 . S
C1270 C215 1.337 . S
C1282 C248 1.376 . S
C1297 C314 1.376 . S
C1309 C281 1.349 . S
C1324 C380 1.375 . S
C1336 C347 1.355 . S
C1351 C413 1.351 . S
C1363 C446 1.369 . S
C1378 C512 1.358 . S
C1390 C479 1.343 . S
C1405 C28 0.692 . S
C1417 C325 0.574 . S
C1432 C61 0.591 . S
C1444 C292 0.595 . S
C1459 C94 0.719 . S
C1471 C391 0.588 . S
C1486 C127 0.581 . S
C1498 C358 0.607 . S
C1513 C160 0.589 . S
C1525 C457 0.654 . S
C1540 C424 0.578 . S
C1552 C193 0.635 . S
C1567 C226 0.567 . S
C1579 C523 0.606 . S
C1594 C490 0.791 . S
C1606 C259 0.750 . S
