# Generated by pormake.
# Topology wne, (6)-cn, num edge types: 1
# Building blocks:
#     Node 0, Type 0, BuildingBlock: BETDEL_clean_sbu_0, # of connection points: 6
#     Node 1, Type 0, BuildingBlock: BETDEL_clean_sbu_0, # of connection points: 6
#     Node 2, Type 0, BuildingBlock: BETDEL_clean_sbu_0, # of connection points: 6
#     Node 3, Type 0, BuildingBlock: BETDEL_clean_sbu_0, # of connection points: 6
#     Node 4, Type 0, BuildingBlock: BETDEL_clean_sbu_0, # of connection points: 6
#     Node 5, Type 0, BuildingBlock: BETDEL_clean_sbu_0, # of connection points: 6
#     Node 6, Type 0, BuildingBlock: BETDEL_clean_sbu_0, # of connection points: 6
#     Node 7, Type 0, BuildingBlock: BETDEL_clean_sbu_0, # of connection points: 6
#     Node 8, Type 0, BuildingBlock: BETDEL_clean_sbu_0, # of connection points: 6
#     Node 9, Type 0, BuildingBlock: BETDEL_clean_sbu_0, # of connection points: 6
#     Node 10, Type 0, BuildingBlock: BETDEL_clean_sbu_0, # of connection points: 6
#     Node 11, Type 0, BuildingBlock: BETDEL_clean_sbu_0, # of connection points: 6
#     Node 12, Type 0, BuildingBlock: BETDEL_clean_sbu_0, # of connection points: 6
#     Node 13, Type 0, BuildingBlock: BETDEL_clean_sbu_0, # of connection points: 6
#     Node 14, Type 0, BuildingBlock: BETDEL_clean_sbu_0, # of connection points: 6
#     Node 15, Type 0, BuildingBlock: BETDEL_clean_sbu_0, # of connection points: 6
#     Node 16, Type 0, BuildingBlock: BETDEL_clean_sbu_0, # of connection points: 6
#     Node 17, Type 0, BuildingBlock: BETDEL_clean_sbu_0, # of connection points: 6
#     Node 18, Type 0, BuildingBlock: BETDEL_clean_sbu_0, # of connection points: 6
#     Node 19, Type 0, BuildingBlock: BETDEL_clean_sbu_0, # of connection points: 6
#     Node 20, Type 0, BuildingBlock: BETDEL_clean_sbu_0, # of connection points: 6
#     Node 21, Type 0, BuildingBlock: BETDEL_clean_sbu_0, # of connection points: 6
#     Node 22, Type 0, BuildingBlock: BETDEL_clean_sbu_0, # of connection points: 6
#     Node 23, Type 0, BuildingBlock: BETDEL_clean_sbu_0, # of connection points: 6
#     Node 24, Type 0, BuildingBlock: BETDEL_clean_sbu_0, # of connection points: 6
#     Node 25, Type 0, BuildingBlock: BETDEL_clean_sbu_0, # of connection points: 6
#     Node 26, Type 0, BuildingBlock: BETDEL_clean_sbu_0, # of connection points: 6
#     Node 27, Type 0, BuildingBlock: BETDEL_clean_sbu_0, # of connection points: 6
#     Node 28, Type 0, BuildingBlock: BETDEL_clean_sbu_0, # of connection points: 6
#     Node 29, Type 0, BuildingBlock: BETDEL_clean_sbu_0, # of connection points: 6
#     Node 30, Type 0, BuildingBlock: BETDEL_clean_sbu_0, # of connection points: 6
#     Node 31, Type 0, BuildingBlock: BETDEL_clean_sbu_0, # of connection points: 6
#     Node 32, Type 0, BuildingBlock: BETDEL_clean_sbu_0, # of connection points: 6
#     Node 33, Type 0, BuildingBlock: BETDEL_clean_sbu_0, # of connection points: 6
#     Node 34, Type 0, BuildingBlock: BETDEL_clean_sbu_0, # of connection points: 6
#     Node 35, Type 0, BuildingBlock: BETDEL_clean_sbu_0, # of connection points: 6
#     Edge 36, Type (0, 0), None
#     Edge 37, Type (0, 0), None
#     Edge 38, Type (0, 0), None
#     Edge 39, Type (0, 0), None
#     Edge 40, Type (0, 0), None
#     Edge 41, Type (0, 0), None
#     Edge 42, Type (0, 0), None
#     Edge 43, Type (0, 0), None
#     Edge 44, Type (0, 0), None
#     Edge 45, Type (0, 0), None
#     Edge 46, Type (0, 0), None
#     Edge 47, Type (0, 0), None
#     Edge 48, Type (0, 0), None
#     Edge 49, Type (0, 0), None
#     Edge 50, Type (0, 0), None
#     Edge 51, Type (0, 0), None
#     Edge 52, Type (0, 0), None
#     Edge 53, Type (0, 0), None
#     Edge 54, Type (0, 0), None
#     Edge 55, Type (0, 0), None
#     Edge 56, Type (0, 0), None
#     Edge 57, Type (0, 0), None
#     Edge 58, Type (0, 0), None
#     Edge 59, Type (0, 0), None
#     Edge 60, Type (0, 0), None
#     Edge 61, Type (0, 0), None
#     Edge 62, Type (0, 0), None
#     Edge 63, Type (0, 0), None
#     Edge 64, Type (0, 0), None
#     Edge 65, Type (0, 0), None
#     Edge 66, Type (0, 0), None
#     Edge 67, Type (0, 0), None
#     Edge 68, Type (0, 0), None
#     Edge 69, Type (0, 0), None
#     Edge 70, Type (0, 0), None
#     Edge 71, Type (0, 0), None
#     Edge 72, Type (0, 0), None
#     Edge 73, Type (0, 0), None
#     Edge 74, Type (0, 0), None
#     Edge 75, Type (0, 0), None
#     Edge 76, Type (0, 0), None
#     Edge 77, Type (0, 0), None
#     Edge 78, Type (0, 0), None
#     Edge 79, Type (0, 0), None
#     Edge 80, Type (0, 0), None
#     Edge 81, Type (0, 0), None
#     Edge 82, Type (0, 0), None
#     Edge 83, Type (0, 0), None
#     Edge 84, Type (0, 0), None
#     Edge 85, Type (0, 0), None
#     Edge 86, Type (0, 0), None
#     Edge 87, Type (0, 0), None
#     Edge 88, Type (0, 0), None
#     Edge 89, Type (0, 0), None
#     Edge 90, Type (0, 0), None
#     Edge 91, Type (0, 0), None
#     Edge 92, Type (0, 0), None
#     Edge 93, Type (0, 0), None
#     Edge 94, Type (0, 0), None
#     Edge 95, Type (0, 0), None
#     Edge 96, Type (0, 0), None
#     Edge 97, Type (0, 0), None
#     Edge 98, Type (0, 0), None
#     Edge 99, Type (0, 0), None
#     Edge 100, Type (0, 0), None
#     Edge 101, Type (0, 0), None
#     Edge 102, Type (0, 0), None
#     Edge 103, Type (0, 0), None
#     Edge 104, Type (0, 0), None
#     Edge 105, Type (0, 0), None
#     Edge 106, Type (0, 0), None
#     Edge 107, Type (0, 0), None
#     Edge 108, Type (0, 0), None
#     Edge 109, Type (0, 0), None
#     Edge 110, Type (0, 0), None
#     Edge 111, Type (0, 0), None
#     Edge 112, Type (0, 0), None
#     Edge 113, Type (0, 0), None
#     Edge 114, Type (0, 0), None
#     Edge 115, Type (0, 0), None
#     Edge 116, Type (0, 0), None
#     Edge 117, Type (0, 0), None
#     Edge 118, Type (0, 0), None
#     Edge 119, Type (0, 0), None
#     Edge 120, Type (0, 0), None
#     Edge 121, Type (0, 0), None
#     Edge 122, Type (0, 0), None
#     Edge 123, Type (0, 0), None
#     Edge 124, Type (0, 0), None
#     Edge 125, Type (0, 0), None
#     Edge 126, Type (0, 0), None
#     Edge 127, Type (0, 0), None
#     Edge 128, Type (0, 0), None
#     Edge 129, Type (0, 0), None
#     Edge 130, Type (0, 0), None
#     Edge 131, Type (0, 0), None
#     Edge 132, Type (0, 0), None
#     Edge 133, Type (0, 0), None
#     Edge 134, Type (0, 0), None
#     Edge 135, Type (0, 0), None
#     Edge 136, Type (0, 0), None
#     Edge 137, Type (0, 0), None
#     Edge 138, Type (0, 0), None
#     Edge 139, Type (0, 0), None
#     Edge 140, Type (0, 0), None
#     Edge 141, Type (0, 0), None
#     Edge 142, Type (0, 0), None
#     Edge 143, Type (0, 0), None
# Relax obj value: 0.298
# Max RMSD: 0.214
# Mean RMSD: 0.214
data_MOF--net-wne--node1-BETDEL_clean_sbu_0--edge1-none
_symmetry_space_group_name_H-M    P1
_symmetry_Int_Tables_number       1
_symmetry_cell_setting            triclinic
loop_
_symmetry_equiv_pos_as_xyz
'x, y, z'
_cell_length_a     34.532103
_cell_length_b     34.532065
_cell_length_c     14.12919
_cell_angle_alpha  90.00155
_cell_angle_beta   89.996646
_cell_angle_gamma 119.99994
loop_
_atom_site_label
_atom_site_type_symbol
_atom_site_fract_x
_atom_site_fract_y
_atom_site_fract_z
_atom_type_partial_charge
Dy0 Dy 0.26723 0.16982 0.09932 0.0
C1 C 0.34741 0.33999 0.11582 0.0
C2 C 0.23227 0.07884 0.0845 0.0
Dy3 Dy 0.31626 0.25272 0.11598 0.0
O4 O 0.25332 0.10291 0.15743 0.0
O5 O 0.2304 0.10472 1.0204 0.0
O6 O 0.2098 0.16933 0.1828 0.0
O7 O 0.2741 0.21167 0.22951 0.0
C8 C 0.23367 0.20081 0.24232 0.0
C9 C 0.36447 0.23703 0.99126 0.0
O10 O 0.35697 0.23434 0.20869 0.0
O11 O 0.32812 0.16748 0.13428 0.0
O12 O 0.33462 0.31568 0.04076 0.0
O13 O 0.34388 0.3172 0.19121 0.0
O14 O 0.38075 0.2647 0.0609 0.0
O15 O 0.32069 0.21654 0.99185 0.0
O16 O 0.22647 0.17971 0.99133 0.0
O17 O 0.25271 0.2472 0.05974 0.0
C18 C 0.35892 0.19822 0.18715 0.0
C19 C 0.22421 0.21603 1.00261 0.0
Dy20 Dy 0.90573 0.11249 0.09931 0.0
C21 C 0.73556 1.02251 0.11583 0.0
C22 C 0.99671 0.16852 0.08447 0.0
Dy23 Dy 0.82283 0.07863 0.11598 0.0
O24 O 0.97264 0.1655 0.15741 0.0
O25 O 0.97083 0.14077 1.02038 0.0
O26 O 0.90623 0.05557 0.18278 0.0
O27 O 0.86388 0.07752 0.22951 0.0
C28 C 0.87474 0.04795 0.2423 0.0
C29 C 0.83852 0.14253 0.99126 0.0
O30 O 0.84122 0.13773 0.2087 0.0
O31 O 0.90807 0.17573 0.13427 0.0
O32 O 0.75987 0.03403 0.04077 0.0
O33 O 0.75835 0.04178 0.19121 0.0
O34 O 0.81086 0.13115 0.06091 0.0
O35 O 0.85901 0.11925 0.99184 0.0
O36 O 0.89584 0.06185 0.99131 0.0
O37 O 0.82835 1.02061 0.05974 0.0
C38 C 0.87734 0.17579 0.18715 0.0
C39 C 0.85952 1.02327 1.0026 0.0
Dy40 Dy 0.96306 0.80833 0.09933 0.0
C41 C 0.05305 0.72815 0.11582 0.0
C42 C 0.90702 0.84328 0.08447 0.0
Dy43 Dy 0.99693 0.7593 0.11598 0.0
O44 O 0.91005 0.82224 0.15742 0.0
O45 O 0.93478 0.84515 1.02038 0.0
O46 O 1.01998 0.86575 0.1828 0.0
O47 O 0.99803 0.80145 0.22951 0.0
C48 C 1.02761 0.84189 0.24232 0.0
C49 C 0.93303 0.71109 0.99127 0.0
O50 O 0.93783 0.71858 0.2087 0.0
O51 O 0.89983 0.74744 0.13429 0.0
O52 O 1.04153 0.74093 0.04076 0.0
O53 O 1.03378 0.73167 0.19121 0.0
O54 O 0.94441 0.69481 0.06091 0.0
O55 O 0.95631 0.75487 0.99185 0.0
O56 O 1.01371 0.84909 0.99134 0.0
O57 O 0.05495 0.82284 0.05974 0.0
C58 C 0.89976 0.71663 0.18716 0.0
C59 C 0.05229 0.85135 1.00262 0.0
Dy60 Dy 0.18495 0.25211 0.46265 0.0
C61 C 0.35509 0.3323 0.44615 0.0
C62 C 0.09397 0.21715 0.47748 0.0
Dy63 Dy 0.26782 0.30113 0.44598 0.0
O64 O 0.11805 0.23821 0.40455 0.0
O65 O 0.11985 0.21527 0.54157 0.0
O66 O 0.18446 0.19469 0.37918 0.0
O67 O 0.22678 0.259 0.33242 0.0
C68 C 0.21591 0.21856 0.31959 0.0
C69 C 0.25215 0.34935 0.57071 0.0
O70 O 0.24945 0.34185 0.35326 0.0
O71 O 0.1826 0.313 0.42772 0.0
O72 O 0.33078 0.31949 0.5212 0.0
O73 O 0.33231 0.32878 0.37076 0.0
O74 O 0.27981 0.36563 0.50105 0.0
O75 O 0.23165 0.30558 0.57014 0.0
O76 O 0.19485 0.21136 0.57065 0.0
O77 O 0.26231 0.23759 0.50216 0.0
C78 C 0.21333 0.3438 0.37482 0.0
C79 C 0.23116 0.20909 0.55932 0.0
Dy80 Dy 0.82345 0.94793 0.46264 0.0
C81 C 0.74326 0.03789 0.44615 0.0
C82 C 0.8584 0.89191 0.47748 0.0
Dy83 Dy 0.77442 0.98179 0.44598 0.0
O84 O 0.83735 0.89493 0.40454 0.0
O85 O 0.86028 0.91967 0.54157 0.0
O86 O 0.88086 1.00486 0.37915 0.0
O87 O 0.81656 0.98288 0.33241 0.0
C88 C 0.857 1.01244 0.31957 0.0
C89 C 0.7262 0.91789 0.5707 0.0
O90 O 0.7337 0.92269 0.35326 0.0
O91 O 0.76256 0.88469 0.4277 0.0
O92 O 0.75606 1.02639 0.5212 0.0
O93 O 0.74677 1.01862 0.37076 0.0
O94 O 0.70992 0.92927 0.50106 0.0
O95 O 0.76998 0.94117 0.57012 0.0
O96 O 0.8642 0.99858 0.57062 0.0
O97 O 0.83797 0.03982 0.50215 0.0
C98 C 0.73176 0.88463 0.37482 0.0
C99 C 0.86647 0.03716 0.5593 0.0
Dy100 Dy 0.12762 0.89061 0.46265 0.0
C101 C 1.03766 0.72046 0.44614 0.0
C102 C 0.18364 0.98159 0.4775 0.0
Dy103 Dy 0.09377 0.80773 0.44598 0.0
O104 O 0.18062 0.95752 0.40456 0.0
O105 O 0.15588 0.9557 0.54158 0.0
O106 O 0.07069 0.89109 0.37917 0.0
O107 O 0.09267 0.84877 0.33241 0.0
C108 C 0.06311 0.85964 0.31958 0.0
C109 C 0.15766 0.82341 0.5707 0.0
O110 O 0.15286 0.82611 0.35326 0.0
O111 O 0.19086 0.89296 0.42771 0.0
O112 O 0.04917 0.74477 0.52119 0.0
O113 O 0.05694 0.74324 0.37075 0.0
O114 O 0.14628 0.79574 0.50105 0.0
O115 O 0.13438 0.8439 0.57013 0.0
O116 O 0.07696 0.88071 0.57064 0.0
O117 O 1.03573 0.81324 0.50216 0.0
C118 C 0.19093 0.86223 0.37482 0.0
C119 C 1.03839 0.8444 0.55932 0.0
Dy120 Dy 0.77455 0.8077 0.94595 0.0
C121 C 0.85828 0.98158 0.97766 0.0
C122 C 0.74367 0.72046 0.94614 0.0
Dy123 Dy 0.82353 0.89066 0.96265 0.0
O124 O 0.75642 0.74479 1.02117 0.0
O125 O 0.74708 0.74322 0.87076 0.0
O126 O 0.71 0.79532 1.00115 0.0
O127 O 0.76999 0.84393 0.07011 0.0
C128 C 0.72619 0.82304 0.07072 0.0
C129 C 0.85697 0.85951 0.81978 0.0
O130 O 0.86429 0.88079 0.07065 0.0
O131 O 0.83809 0.81329 1.00233 0.0
O132 O 0.83743 0.95757 0.90449 0.0
O133 O 0.8602 0.95572 0.04176 0.0
O134 O 0.8809 0.891 0.87924 0.0
O135 O 0.81659 0.84887 0.83252 0.0
O136 O 0.73367 0.82595 0.85351 0.0
O137 O 0.76251 0.89282 0.92794 0.0
C138 C 0.86657 0.84448 0.05943 0.0
C139 C 0.73167 0.86203 0.8752 0.0
Dy140 Dy 0.26786 0.98195 0.94595 0.0
C141 C 0.09398 0.8918 0.97767 0.0
C142 C 0.3551 0.03831 0.94614 0.0
Dy143 Dy 0.1849 0.94797 0.96267 0.0
O144 O 0.33077 1.02673 1.02118 0.0
O145 O 0.33234 1.01896 0.87077 0.0
O146 O 0.28023 0.92977 1.00115 0.0
O147 O 0.23163 0.94116 0.07012 0.0
C148 C 0.25251 0.91824 0.07072 0.0
C149 C 0.21604 1.01255 0.8198 0.0
O150 O 0.19477 0.99859 0.07068 0.0
O151 O 0.26227 0.0399 1.00234 0.0
O152 O 0.11799 0.89496 0.90451 0.0
O153 O 0.11983 0.91957 0.04178 0.0
O154 O 0.18456 1.005 0.87927 0.0
O155 O 0.22669 0.98282 0.83253 0.0
O156 O 0.2496 0.92281 0.85351 0.0
O157 O 0.18274 0.88479 0.92796 0.0
C158 C 0.23107 0.03718 0.05946 0.0
C159 C 0.21352 0.88474 0.8752 0.0
Dy160 Dy 0.0936 0.30099 0.94594 0.0
C161 C 0.18376 0.21727 0.97766 0.0
C162 C 1.03725 0.33188 0.94613 0.0
Dy163 Dy 0.12759 0.25202 0.96264 0.0
O164 O 0.04882 0.31912 1.02117 0.0
O165 O 0.0566 0.32847 0.87076 0.0
O166 O 0.14578 0.36555 1.00114 0.0
O167 O 0.13439 0.30556 0.0701 0.0
C168 C 0.15731 0.34936 0.07071 0.0
C169 C 0.06301 0.21858 0.81977 0.0
O170 O 0.07696 0.21126 0.07065 0.0
O171 O 1.03565 0.23745 1.00233 0.0
O172 O 0.1806 0.23812 0.90449 0.0
O173 O 0.15598 0.21535 0.04176 0.0
O174 O 0.07056 0.19465 0.87924 0.0
O175 O 0.09274 0.25896 0.83251 0.0
O176 O 0.15275 0.34188 0.8535 0.0
O177 O 0.19077 0.31304 0.92793 0.0
C178 C 1.03837 0.20898 0.05943 0.0
C179 C 0.19082 0.34388 0.87519 0.0
Dy180 Dy 0.82281 0.75944 0.61602 0.0
C181 C 0.99669 0.84315 0.58425 0.0
C182 C 0.73557 0.72856 0.61586 0.0
Dy183 Dy 0.90577 0.80841 0.59929 0.0
O184 O 0.7599 0.74131 0.54082 0.0
O185 O 0.75833 0.73197 0.69123 0.0
O186 O 0.81043 0.69488 0.56082 0.0
O187 O 0.85904 0.75487 0.49185 0.0
C188 C 0.83815 0.71107 0.49125 0.0
C189 C 0.87465 0.84184 0.74222 0.0
O190 O 0.89591 0.84916 0.49129 0.0
O191 O 0.82841 0.82298 0.55966 0.0
O192 O 0.97269 0.82232 0.65744 0.0
O193 O 0.97083 0.84505 0.52015 0.0
O194 O 0.90611 0.86578 0.68269 0.0
O195 O 0.864 0.80146 0.72945 0.0
O196 O 0.84106 0.71854 0.70846 0.0
O197 O 0.90793 0.74738 0.63401 0.0
C198 C 0.8596 0.85145 0.50253 0.0
C199 C 0.87714 0.71655 0.68677 0.0
Dy200 Dy 0.31611 0.07847 0.61603 0.0
C201 C 0.2324 0.16864 0.58426 0.0
C202 C 0.34699 1.0221 0.61586 0.0
Dy203 Dy 0.26714 0.11246 0.59932 0.0
O204 O 0.33424 0.03368 0.54082 0.0
O205 O 0.34357 0.04145 0.69123 0.0
O206 O 0.38067 0.13064 0.56082 0.0
O207 O 0.32068 0.11926 0.49187 0.0
C208 C 0.36448 0.14218 0.49126 0.0
C209 C 0.23371 0.04791 0.74224 0.0
O210 O 0.22638 0.06183 0.49132 0.0
O211 O 0.25257 1.02052 0.55967 0.0
O212 O 0.25322 0.16547 0.65746 0.0
O213 O 0.2305 0.14088 0.52016 0.0
O214 O 0.20977 0.05543 0.68273 0.0
O215 O 0.27409 0.07764 0.72946 0.0
O216 O 0.35701 0.13761 0.70846 0.0
O217 O 0.32816 0.17564 0.63403 0.0
C218 C 0.2241 1.02325 0.50255 0.0
C219 C 0.359 0.17569 0.68678 0.0
Dy220 Dy 0.99709 0.25274 0.61603 0.0
C221 C 0.90692 0.07886 0.58424 0.0
C222 C 0.05345 0.33998 0.61586 0.0
Dy223 Dy 0.96309 0.16978 0.5993 0.0
O224 O 1.04188 0.31566 0.54082 0.0
O225 O 1.0341 0.31722 0.69123 0.0
O226 O 0.94491 0.26512 0.56082 0.0
O227 O 0.9563 0.21652 0.49186 0.0
C228 C 0.93338 0.2374 0.49126 0.0
C229 C 1.02765 0.2009 0.74222 0.0
O230 O 1.01372 0.17965 0.4913 0.0
O231 O 0.05504 0.24714 0.55966 0.0
O232 O 0.91009 0.10285 0.65744 0.0
O233 O 0.93468 0.10472 0.52014 0.0
O234 O 1.02013 0.16944 0.6827 0.0
O235 O 0.99792 0.21155 0.72945 0.0
O236 O 0.93794 0.23449 0.70847 0.0
O237 O 0.89992 0.16763 0.63402 0.0
C238 C 0.05231 0.21595 0.50253 0.0
C239 C 0.89987 0.19841 0.68678 0.0
Dy240 Dy 0.93389 0.50316 0.43268 0.0
C241 C 1.01414 0.67332 0.44907 0.0
C242 C 0.89893 0.41217 0.4179 0.0
Dy243 Dy 0.98293 0.58605 0.4493 0.0
O244 O 0.92 0.43626 0.49081 0.0
O245 O 0.89704 0.43804 0.35381 0.0
O246 O 0.87648 0.50267 0.51616 0.0
O247 O 0.94078 0.54502 0.56286 0.0
C248 C 0.90034 0.53416 0.57567 0.0
C249 C 1.03114 0.57035 0.3246 0.0
O250 O 1.02364 0.56768 0.54202 0.0
O251 O 0.99478 0.50081 0.46763 0.0
O252 O 1.00132 0.649 0.37403 0.0
O253 O 1.01057 0.65054 0.5245 0.0
O254 O 0.04742 0.59802 0.39424 0.0
O255 O 0.98736 0.54986 0.32518 0.0
O256 O 0.89314 0.51304 0.32468 0.0
O257 O 0.91939 0.58053 0.39306 0.0
C258 C 1.02559 0.53155 0.52049 0.0
C259 C 0.89088 0.54936 0.33594 0.0
Dy260 Dy 0.57239 0.44582 0.43267 0.0
C261 C 0.40223 0.35591 0.44907 0.0
C262 C 0.66338 0.50185 0.41789 0.0
Dy263 Dy 0.4895 0.41197 0.4493 0.0
O264 O 0.63929 0.49883 0.49079 0.0
O265 O 0.63751 0.47408 0.35379 0.0
O266 O 0.57288 0.38889 0.51614 0.0
O267 O 0.53053 0.41085 0.56286 0.0
C268 C 0.54139 0.38127 0.57565 0.0
C269 C 0.5052 0.47588 0.3246 0.0
O270 O 0.50788 0.47106 0.54203 0.0
O271 O 0.57474 0.50906 0.46762 0.0
O272 O 0.42655 0.3674 0.37403 0.0
O273 O 0.42501 0.37513 0.5245 0.0
O274 O 0.47754 0.4645 0.39424 0.0
O275 O 0.52569 0.4526 0.32518 0.0
O276 O 0.56251 0.39519 0.32466 0.0
O277 O 0.49502 0.35395 0.39305 0.0
C278 C 0.544 0.50913 0.5205 0.0
C279 C 0.52619 0.35661 0.33593 0.0
Dy280 Dy 0.62973 0.14167 0.43269 0.0
C281 C 0.71965 0.06142 0.44907 0.0
C282 C 0.5737 0.17663 0.41789 0.0
Dy283 Dy 0.66359 0.09263 0.44931 0.0
O284 O 0.57672 0.15557 0.49081 0.0
O285 O 0.60147 0.17852 0.3538 0.0
O286 O 0.68666 0.19909 0.51617 0.0
O287 O 0.66471 0.13478 0.56287 0.0
C288 C 0.69428 0.17522 0.57567 0.0
C289 C 0.59968 0.04443 0.32461 0.0
O290 O 0.60449 0.05192 0.54204 0.0
O291 O 0.56649 0.08078 0.46765 0.0
O292 O 0.70815 0.07424 0.37404 0.0
O293 O 0.70043 0.06498 0.52451 0.0
O294 O 0.61106 1.02814 0.39425 0.0
O295 O 0.62297 0.0882 0.3252 0.0
O296 O 0.68038 0.18243 0.3247 0.0
O297 O 0.72161 0.15617 0.39306 0.0
C298 C 0.56643 0.04997 0.52051 0.0
C299 C 0.71895 0.18468 0.33595 0.0
Dy300 Dy 0.85162 0.58544 0.79604 0.0
C301 C 1.02176 0.66559 0.7795 0.0
C302 C 0.76064 0.55049 0.81081 0.0
Dy303 Dy 0.93449 0.63446 0.77939 0.0
O304 O 0.78473 0.57157 0.73792 0.0
O305 O 0.7865 0.54857 0.87489 0.0
O306 O 0.85114 0.52803 0.71254 0.0
O307 O 0.89346 0.59234 0.6658 0.0
C308 C 0.88259 0.55191 0.65295 0.0
C309 C 0.91888 0.68268 0.90408 0.0
O310 O 0.91612 0.6752 0.68672 0.0
O311 O 0.84927 0.64634 0.76119 0.0
O312 O 0.99746 0.65281 0.85456 0.0
O313 O 0.99897 0.66207 0.70412 0.0
O314 O 0.94655 0.69899 0.83444 0.0
O315 O 0.89831 0.6389 0.90355 0.0
O316 O 0.8615 0.54468 0.90403 0.0
O317 O 0.92898 0.57092 0.83559 0.0
C318 C 0.88001 0.67715 0.70831 0.0
C319 C 0.89781 0.54241 0.89273 0.0
Dy320 Dy 0.49012 0.28127 0.79602 0.0
C321 C 0.40997 0.37127 0.7795 0.0
C322 C 0.52507 0.22524 0.8108 0.0
Dy323 Dy 0.4411 0.31513 0.77939 0.0
O324 O 0.50399 0.22824 0.73791 0.0
O325 O 0.52698 0.25302 0.87488 0.0
O326 O 0.54752 0.3382 0.71251 0.0
O327 O 0.48322 0.31621 0.66579 0.0
C328 C 0.52365 0.34578 0.65293 0.0
C329 C 0.39288 0.2513 0.90408 0.0
O330 O 0.40036 0.25602 0.68672 0.0
O331 O 0.42921 0.21802 0.76118 0.0
O332 O 0.42275 0.35975 0.85456 0.0
O333 O 0.41349 0.35199 0.70412 0.0
O334 O 0.37657 0.26266 0.83445 0.0
O335 O 0.43666 0.27451 0.90353 0.0
O336 O 0.53088 0.33192 0.904 0.0
O337 O 0.50464 0.37315 0.83558 0.0
C338 C 0.39841 0.21795 0.70831 0.0
C339 C 0.53315 0.37049 0.89271 0.0
Dy340 Dy 0.79428 0.22394 0.79603 0.0
C341 C 0.70429 0.0538 0.7795 0.0
C342 C 0.85031 0.31492 0.81082 0.0
Dy343 Dy 0.76043 0.14106 0.77939 0.0
O344 O 0.84731 0.29083 0.73793 0.0
O345 O 0.82253 0.28905 0.8749 0.0
O346 O 0.73736 0.22442 0.71254 0.0
O347 O 0.75934 0.1821 0.6658 0.0
C348 C 0.72978 0.19297 0.65296 0.0
C349 C 0.82425 0.15667 0.90408 0.0
O350 O 0.81954 0.15944 0.68672 0.0
O351 O 0.85753 0.22628 0.76119 0.0
O352 O 0.71581 0.0781 0.85457 0.0
O353 O 0.72357 0.07659 0.70412 0.0
O354 O 0.81289 0.129 0.83445 0.0
O355 O 0.80104 0.17724 0.90355 0.0
O356 O 0.74364 0.21406 0.90403 0.0
O357 O 0.7024 0.14658 0.8356 0.0
C358 C 0.8576 0.19555 0.70831 0.0
C359 C 0.70506 0.17775 0.89273 0.0
Dy360 Dy 0.44123 0.14103 0.27936 0.0
C361 C 0.52494 0.31491 0.31098 0.0
C362 C 0.41038 0.0538 0.27949 0.0
Dy363 Dy 0.4902 0.22399 0.29604 0.0
O364 O 0.4231 0.07811 0.35455 0.0
O365 O 0.4138 0.07656 0.20413 0.0
O366 O 0.37665 0.12858 0.33455 0.0
O367 O 0.43667 0.17727 0.40352 0.0
C368 C 0.39287 0.15631 0.4041 0.0
C369 C 0.52362 0.19284 0.15315 0.0
O370 O 0.53097 0.21414 0.40404 0.0
O371 O 0.50477 0.14663 0.33576 0.0
O372 O 0.50406 0.29089 0.23786 0.0
O373 O 0.5269 0.28908 0.37507 0.0
O374 O 0.54756 0.22433 0.21261 0.0
O375 O 0.48324 0.1822 0.16591 0.0
O376 O 0.40032 0.15928 0.18698 0.0
O377 O 0.42917 0.22614 0.26142 0.0
C378 C 0.53325 0.17783 0.39285 0.0
C379 C 0.39833 0.19536 0.20869 0.0
Dy380 Dy 0.93453 0.31529 0.27936 0.0
C381 C 0.76065 0.22513 0.31099 0.0
C382 C 1.02176 0.37168 0.27948 0.0
Dy383 Dy 0.85157 0.28131 0.29605 0.0
O384 O 0.99745 0.36009 0.35454 0.0
O385 O 0.999 0.35233 0.20412 0.0
O386 O 0.94698 0.26316 0.33454 0.0
O387 O 0.89829 0.27449 0.40353 0.0
C388 C 0.91925 0.25166 0.4041 0.0
C389 C 0.88272 0.34588 0.15316 0.0
O390 O 0.86142 0.33192 0.40406 0.0
O391 O 0.92893 0.37324 0.33577 0.0
O392 O 0.78468 0.22827 0.23788 0.0
O393 O 0.78648 0.25293 0.37508 0.0
O394 O 0.85124 0.33834 0.21263 0.0
O395 O 0.89337 0.31615 0.16591 0.0
O396 O 0.91628 0.25613 0.18697 0.0
O397 O 0.84942 0.21812 0.26143 0.0
C398 C 0.89773 0.37051 0.39286 0.0
C399 C 0.8802 0.21806 0.20869 0.0
Dy400 Dy 0.76026 0.63432 0.27935 0.0
C401 C 0.85043 0.55061 0.31099 0.0
C402 C 0.70387 0.66517 0.27948 0.0
Dy403 Dy 0.79425 0.58535 0.29603 0.0
O404 O 0.71546 0.65245 0.35454 0.0
O405 O 0.72323 0.66176 0.20412 0.0
O406 O 0.81239 0.6989 0.33454 0.0
O407 O 0.80106 0.63888 0.40351 0.0
C408 C 0.8239 0.68268 0.40408 0.0
C409 C 0.72967 0.55193 0.15315 0.0
O410 O 0.74363 0.54458 0.40404 0.0
O411 O 0.70231 0.57078 0.33576 0.0
O412 O 0.84729 0.57149 0.23786 0.0
O413 O 0.82263 0.54865 0.37507 0.0
O414 O 0.73722 0.52799 0.2126 0.0
O415 O 0.75941 0.59231 0.1659 0.0
O416 O 0.81942 0.67523 0.18697 0.0
O417 O 0.85743 0.64638 0.26141 0.0
C418 C 0.70504 0.5423 0.39284 0.0
C419 C 0.85749 0.67723 0.20868 0.0
Dy420 Dy 0.48948 0.09277 0.94935 0.0
C421 C 0.66336 0.1765 0.91767 0.0
C422 C 0.40225 0.06184 0.94912 0.0
Dy423 Dy 0.57244 0.14174 0.93266 0.0
O424 O 0.42658 0.07462 0.87409 0.0
O425 O 0.425 0.06529 1.02453 0.0
O426 O 0.47711 1.02821 0.89416 0.0
O427 O 0.52572 0.0882 0.8252 0.0
C428 C 0.50484 0.04441 0.82459 0.0
C429 C 0.5413 0.17517 0.07558 0.0
O430 O 0.56258 0.1825 0.82465 0.0
O431 O 0.49507 0.15631 0.89298 0.0
O432 O 0.63935 0.15565 0.99083 0.0
O433 O 0.63751 0.17842 0.85357 0.0
O434 O 0.57276 0.19911 1.01606 0.0
O435 O 0.53065 0.13479 0.0628 0.0
O436 O 0.50773 0.05188 0.0418 0.0
O437 O 0.5746 0.08073 0.96737 0.0
C438 C 0.52627 0.18478 0.83586 0.0
C439 C 0.54381 0.04989 1.02012 0.0
Dy440 Dy 0.98279 0.41181 0.94935 0.0
C441 C 0.89906 0.50196 0.91767 0.0
C442 C 1.01372 0.3555 0.94911 0.0
Dy443 Dy 0.93381 0.44579 0.93267 0.0
O444 O 1.00094 0.36705 0.87409 0.0
O445 O 1.01026 0.3748 1.02453 0.0
O446 O 0.04734 0.46399 0.89415 0.0
O447 O 0.98735 0.45261 0.82521 0.0
C448 C 1.03115 0.47553 0.82459 0.0
C449 C 0.90039 0.38124 0.07559 0.0
O450 O 0.89305 0.39517 0.82467 0.0
O451 O 0.91924 0.35385 0.89298 0.0
O452 O 0.9199 0.4988 0.99084 0.0
O453 O 0.89715 0.47419 0.85356 0.0
O454 O 0.87645 0.38875 1.01609 0.0
O455 O 0.94077 0.41096 0.06281 0.0
O456 O 1.02368 0.47095 0.04179 0.0
O457 O 0.99483 0.50897 0.96738 0.0
C458 C 0.89077 0.35658 0.83588 0.0
C459 C 1.02567 0.50902 1.02012 0.0
Dy460 Dy 0.66375 0.58607 0.94935 0.0
C461 C 0.5736 0.41219 0.91766 0.0
C462 C 0.72005 0.67331 0.94912 0.0
Dy463 Dy 0.62976 0.50311 0.93266 0.0
O464 O 0.70851 0.64897 0.87409 0.0
O465 O 0.70075 0.65056 1.02453 0.0
O466 O 0.61157 0.59844 0.89416 0.0
O467 O 0.62295 0.54984 0.8252 0.0
C468 C 0.60003 0.57072 0.8246 0.0
C469 C 0.69432 0.53425 0.07558 0.0
O470 O 0.68039 0.51298 0.82465 0.0
O471 O 0.7217 0.58048 0.89298 0.0
O472 O 0.57676 0.4362 0.99082 0.0
O473 O 0.60137 0.43805 0.85355 0.0
O474 O 0.6868 0.50279 1.01606 0.0
O475 O 0.66459 0.5449 0.06281 0.0
O476 O 0.60461 0.56782 0.0418 0.0
O477 O 0.56659 0.50095 0.96737 0.0
C478 C 0.71898 0.54928 0.83587 0.0
C479 C 0.56654 0.53174 1.02012 0.0
Dy480 Dy 0.60055 0.83649 0.76597 0.0
C481 C 0.68076 1.00665 0.78239 0.0
C482 C 0.56559 0.7455 0.75125 0.0
Dy483 Dy 0.64958 0.91939 0.78256 0.0
O484 O 0.5867 0.76961 0.82411 0.0
O485 O 0.56367 0.77136 0.68717 0.0
O486 O 0.54315 0.83602 0.84947 0.0
O487 O 0.60745 0.87836 0.89615 0.0
C488 C 0.56702 0.86751 0.90897 0.0
C489 C 0.69779 0.90375 0.65789 0.0
O490 O 0.69032 0.90101 0.87523 0.0
O491 O 0.66146 0.83415 0.80082 0.0
O492 O 0.66797 0.98235 0.70733 0.0
O493 O 0.67719 0.98387 0.85781 0.0
O494 O 0.71411 0.93143 0.72751 0.0
O495 O 0.65401 0.88318 0.65844 0.0
O496 O 0.55979 0.84636 0.65797 0.0
O497 O 0.58605 0.91386 0.7263 0.0
C498 C 0.69227 0.8649 0.85367 0.0
C499 C 0.55753 0.88268 0.6692 0.0
Dy500 Dy 0.23906 0.77915 0.76595 0.0
C501 C 0.0689 0.6892 0.78239 0.0
C502 C 0.33005 0.83518 0.75123 0.0
Dy503 Dy 0.15617 0.74529 0.78255 0.0
O504 O 0.30594 0.83219 0.82409 0.0
O505 O 0.30419 0.8074 0.68715 0.0
O506 O 0.23954 0.72223 0.84944 0.0
O507 O 0.19719 0.74418 0.89614 0.0
C508 C 0.20805 0.71461 0.90895 0.0
C509 C 0.1718 0.80914 0.65789 0.0
O510 O 0.17454 0.8044 0.87523 0.0
O511 O 0.2414 0.8424 0.8008 0.0
O512 O 0.09321 0.70071 0.70733 0.0
O513 O 0.09169 0.70842 0.85781 0.0
O514 O 0.14413 0.79778 0.72752 0.0
O515 O 0.19237 0.78593 0.65843 0.0
O516 O 0.22919 0.72852 0.65794 0.0
O517 O 0.16169 0.68728 0.72629 0.0
C518 C 0.21066 0.84247 0.85367 0.0
C519 C 0.19287 0.68994 0.66918 0.0
Dy520 Dy 0.2964 0.475 0.76597 0.0
C521 C 0.38636 0.3948 0.78239 0.0
C522 C 0.24037 0.50996 0.75123 0.0
Dy523 Dy 0.33027 0.42597 0.78256 0.0
O524 O 0.24337 0.48886 0.8241 0.0
O525 O 0.26816 0.51189 0.68715 0.0
O526 O 0.35333 0.53241 0.84947 0.0
O527 O 0.33137 0.4681 0.89615 0.0
C528 C 0.36095 0.50853 0.90897 0.0
C529 C 0.26642 0.37777 0.6579 0.0
O530 O 0.27115 0.38523 0.87523 0.0
O531 O 0.23316 0.4141 0.80083 0.0
O532 O 0.37485 0.40759 0.70733 0.0
O533 O 0.36714 0.39837 0.85781 0.0
O534 O 0.27778 0.36145 0.72751 0.0
O535 O 0.28963 0.42155 0.65844 0.0
O536 O 0.34704 0.51577 0.65797 0.0
O537 O 0.38828 0.48951 0.72629 0.0
C538 C 0.23309 0.38329 0.85367 0.0
C539 C 0.38561 0.51803 0.6692 0.0
Dy540 Dy 0.51829 0.91878 0.12935 0.0
C541 C 0.68842 0.99898 0.11292 0.0
C542 C 0.4273 0.88381 0.14407 0.0
Dy543 Dy 0.60116 0.9678 0.11274 0.0
O544 O 0.45141 0.90492 0.07122 0.0
O545 O 0.45316 0.88188 0.20815 0.0
O546 O 0.51782 0.86137 0.04585 0.0
O547 O 0.56014 0.92568 0.99912 0.0
C548 C 0.54927 0.88525 0.98627 0.0
C549 C 0.58554 1.01601 0.23742 0.0
O550 O 0.58279 1.00853 1.02006 0.0
O551 O 0.51594 0.97967 0.09452 0.0
O552 O 0.66411 0.98617 0.18797 0.0
O553 O 0.66564 0.99542 0.0375 0.0
O554 O 0.61321 0.03232 0.16779 0.0
O555 O 0.56497 0.97224 0.23689 0.0
O556 O 0.52816 0.87801 0.23735 0.0
O557 O 0.59564 0.90426 0.16895 0.0
C558 C 0.54667 1.01048 0.04164 0.0
C559 C 0.56448 0.87575 0.22608 0.0
Dy560 Dy 0.15679 0.61461 0.12932 0.0
C561 C 0.07658 0.70454 0.11291 0.0
C562 C 0.19176 0.55858 0.14405 0.0
Dy563 Dy 0.10777 0.64846 0.11273 0.0
O564 O 0.17065 0.56158 0.07119 0.0
O565 O 0.19369 0.58638 0.20813 0.0
O566 O 0.21419 0.67154 0.04581 0.0
O567 O 0.14988 0.64955 0.99911 0.0
C568 C 0.19031 0.67912 0.98625 0.0
C569 C 0.05955 0.58462 0.23741 0.0
O570 O 0.06703 0.58935 1.02006 0.0
O571 O 0.09589 0.55136 0.09449 0.0
O572 O 0.08939 0.69304 0.18796 0.0
O573 O 0.08014 0.68532 0.03749 0.0
O574 O 1.04324 0.59598 0.16778 0.0
O575 O 0.10333 0.60783 0.23686 0.0
O576 O 0.19755 0.66525 0.23732 0.0
O577 O 0.17131 0.70649 0.16894 0.0
C578 C 0.06508 0.55129 0.04163 0.0
C579 C 0.19982 0.70383 0.22605 0.0
Dy580 Dy 0.46094 0.55727 0.12934 0.0
C581 C 0.37102 0.38713 0.11291 0.0
C582 C 0.51697 0.64826 0.14407 0.0
Dy583 Dy 0.4271 0.4744 0.11273 0.0
O584 O 0.51398 0.62416 0.07121 0.0
O585 O 0.48917 0.6224 0.20814 0.0
O586 O 0.40401 0.55774 0.04584 0.0
O587 O 0.426 0.51542 0.99912 0.0
C588 C 0.39643 0.52628 0.98627 0.0
C589 C 0.49093 0.49002 0.23741 0.0
O590 O 0.48621 0.49277 1.02006 0.0
O591 O 0.5242 0.55962 0.0945 0.0
O592 O 0.38251 0.41144 0.18796 0.0
O593 O 0.39024 0.40992 0.03749 0.0
O594 O 0.47957 0.46235 0.16778 0.0
O595 O 0.46772 0.51059 0.23687 0.0
O596 O 0.4103 0.54739 0.23734 0.0
O597 O 0.36907 0.47991 0.16894 0.0
C598 C 0.52427 0.52888 0.04164 0.0
C599 C 0.37173 0.51108 0.22607 0.0
Dy600 Dy 0.1079 0.47437 0.6127 0.0
C601 C 0.19163 0.64825 0.64423 0.0
C602 C 0.07699 0.38713 0.6129 0.0
Dy603 Dy 0.15687 0.55732 0.62934 0.0
O604 O 0.08975 0.41146 0.68794 0.0
O605 O 0.08045 0.40989 0.53749 0.0
O606 O 1.04331 0.46193 0.66788 0.0
O607 O 0.10334 0.51062 0.73685 0.0
C608 C 0.05954 0.48966 0.73742 0.0
C609 C 0.19028 0.52615 0.48646 0.0
O610 O 0.19764 0.54748 0.73735 0.0
O611 O 0.17143 0.47996 0.6691 0.0
O612 O 0.17072 0.62421 0.57114 0.0
O613 O 0.1936 0.62242 0.70832 0.0
O614 O 0.21423 0.55764 0.54591 0.0
O615 O 0.1499 0.51551 0.49922 0.0
O616 O 0.06699 0.49261 0.5203 0.0
O617 O 0.09584 0.55948 0.59474 0.0
C618 C 0.19991 0.51117 0.72618 0.0
C619 C 0.065 0.52869 0.54201 0.0
Dy620 Dy 0.60119 0.64862 0.61271 0.0
C621 C 0.42731 0.55848 0.64425 0.0
C622 C 0.68842 0.70495 0.6129 0.0
Dy623 Dy 0.51824 0.61464 0.62936 0.0
O624 O 0.6641 0.69339 0.68794 0.0
O625 O 0.66567 0.68565 0.5375 0.0
O626 O 0.61363 0.59648 0.66788 0.0
O627 O 0.56494 0.60781 0.73686 0.0
C628 C 0.5859 0.58497 0.73743 0.0
C629 C 0.5494 0.67923 0.48648 0.0
O630 O 0.52808 0.66526 0.73738 0.0
O631 O 0.5956 0.70657 0.66912 0.0
O632 O 0.45135 0.5616 0.57117 0.0
O633 O 0.45314 0.58628 0.70833 0.0
O634 O 0.51792 0.67168 0.54594 0.0
O635 O 0.56004 0.64949 0.49923 0.0
O636 O 0.58294 0.58947 0.52031 0.0
O637 O 0.51608 0.55145 0.59475 0.0
C638 C 0.56439 0.70384 0.7262 0.0
C639 C 0.54686 0.5514 0.54202 0.0
Dy640 Dy 0.42693 0.96766 0.6127 0.0
C641 C 0.51708 0.88393 0.64424 0.0
C642 C 0.3706 0.99857 0.6129 0.0
Dy643 Dy 0.46091 0.91869 0.62934 0.0
O644 O 0.38216 0.9858 0.68794 0.0
O645 O 0.38991 0.99511 0.53749 0.0
O646 O 0.47907 0.03224 0.66788 0.0
O647 O 0.46774 0.97221 0.73685 0.0
C648 C 0.49058 1.01601 0.73742 0.0
C649 C 0.39633 0.88527 0.48646 0.0
O650 O 0.4103 0.87791 0.73735 0.0
O651 O 0.36898 0.90412 0.66911 0.0
O652 O 0.51396 0.90483 0.57115 0.0
O653 O 0.48928 0.88195 0.70833 0.0
O654 O 0.40388 0.86133 0.54591 0.0
O655 O 0.42607 0.92565 0.49922 0.0
O656 O 0.48609 1.00857 0.52031 0.0
O657 O 0.5241 0.97971 0.59474 0.0
C658 C 0.37171 0.87564 0.72618 0.0
C659 C 0.52416 1.01056 0.54202 0.0
Dy660 Dy 0.15615 0.42611 0.2826 0.0
C661 C 0.33003 0.50983 0.25102 0.0
C662 C 0.06892 0.39521 0.28243 0.0
Dy663 Dy 0.2391 0.47508 0.26594 0.0
O664 O 0.09324 0.40797 0.20738 0.0
O665 O 0.09168 0.39867 0.35783 0.0
O666 O 0.1437 0.36153 0.22742 0.0
O667 O 0.1924 0.42155 0.15844 0.0
C668 C 0.17144 0.37775 0.15787 0.0
C669 C 0.20796 0.50849 0.40887 0.0
O670 O 0.22926 0.51585 0.15792 0.0
O671 O 0.16175 0.48965 0.22621 0.0
O672 O 0.306 0.48894 0.32412 0.0
O673 O 0.3042 0.51179 0.18692 0.0
O674 O 0.23942 0.53243 0.34936 0.0
O675 O 0.19731 0.46811 0.39608 0.0
O676 O 0.17439 0.3852 0.37499 0.0
O677 O 0.24126 0.41405 0.30054 0.0
C678 C 0.19295 0.51813 0.16911 0.0
C679 C 0.21047 0.3832 0.35328 0.0
Dy680 Dy 0.64944 0.74513 0.28261 0.0
C681 C 0.56572 0.83529 0.25102 0.0
C682 C 0.68034 0.68879 0.28243 0.0
Dy683 Dy 0.60047 0.77912 0.26596 0.0
O684 O 0.66758 0.70036 0.20739 0.0
O685 O 0.67688 0.70809 0.35783 0.0
O686 O 0.71402 0.79727 0.22742 0.0
O687 O 0.654 0.78594 0.15846 0.0
C688 C 0.6978 0.80878 0.15789 0.0
C689 C 0.56707 0.71457 0.40889 0.0
O690 O 0.5597 0.7285 0.15795 0.0
O691 O 0.5859 0.68719 0.22622 0.0
O692 O 0.5866 0.83215 0.32414 0.0
O693 O 0.56377 0.8075 0.18693 0.0
O694 O 0.54312 0.72208 0.34939 0.0
O695 O 0.60745 0.7443 0.39609 0.0
O696 O 0.69035 0.80429 0.375 0.0
O697 O 0.6615 0.8423 0.30057 0.0
C698 C 0.55742 0.68992 0.16914 0.0
C699 C 0.69235 0.84236 0.35329 0.0
Dy700 Dy 0.33042 0.91941 0.28261 0.0
C701 C 0.24027 0.74553 0.25101 0.0
C702 C 0.38676 1.00664 0.28244 0.0
Dy703 Dy 0.29644 0.83645 0.26595 0.0
O704 O 0.3752 0.98232 0.20739 0.0
O705 O 0.36745 0.98388 0.35784 0.0
O706 O 0.27829 0.93185 0.22743 0.0
O707 O 0.28962 0.88316 0.15846 0.0
C708 C 0.26678 0.90412 0.15789 0.0
C709 C 0.36099 0.86759 0.40888 0.0
O710 O 0.34706 0.8463 0.15794 0.0
O711 O 0.38837 0.91381 0.22622 0.0
O712 O 0.24341 0.76955 0.32412 0.0
O713 O 0.26806 0.77136 0.18691 0.0
O714 O 0.35347 0.83613 0.34937 0.0
O715 O 0.33126 0.87825 0.39609 0.0
O716 O 0.27127 0.90116 0.37501 0.0
O717 O 0.23325 0.8343 0.30056 0.0
C718 C 0.38564 0.88261 0.16913 0.0
C719 C 0.2332 0.86509 0.35329 0.0
loop_
_geom_bond_atom_site_label_1
_geom_bond_atom_site_label_2
_geom_bond_distance
_geom_bond_site_symmetry_2
_ccdc_geom_bond_type
Dy0 O4 2.398 . S
Dy0 O5 2.495 . S
Dy0 O6 2.403 . S
Dy0 O7 2.664 . S
Dy0 O11 2.326 . S
Dy0 O15 2.310 1_554 S
Dy0 O16 2.351 1_554 S
C1 O12 1.185 . S
C1 O13 1.355 . S
C2 O4 1.185 . S
C2 O5 1.362 . S
Dy3 O7 2.310 . S
Dy3 O10 2.351 . S
Dy3 O12 2.398 . S
Dy3 O13 2.491 . S
Dy3 O14 2.403 1_554 S
Dy3 O15 2.664 1_554 S
Dy3 O17 2.326 . S
O4 Dy0 2.398 . S
O4 C2 1.185 . S
O5 Dy0 2.495 . S
O5 C2 1.362 . S
O6 Dy0 2.403 . S
O6 C8 1.254 . S
O7 Dy0 2.664 . S
O7 Dy3 2.310 . S
O7 C8 1.268 . S
C8 O6 1.254 . S
C8 O7 1.268 . S
C9 O14 1.254 . S
C9 O15 1.268 . S
O10 Dy3 2.351 . S
O10 C18 1.249 . S
O11 Dy0 2.326 . S
O11 C18 1.267 . S
O12 C1 1.185 . S
O12 Dy3 2.398 . S
O13 C1 1.355 . S
O13 Dy3 2.491 . S
O14 Dy3 2.403 1_556 S
O14 C9 1.254 . S
O15 Dy0 2.310 1_556 S
O15 Dy3 2.664 1_556 S
O15 C9 1.268 . S
O16 Dy0 2.351 1_556 S
O16 C19 1.249 . S
O17 Dy3 2.326 . S
O17 C19 1.267 1_554 S
C18 O10 1.249 . S
C18 O11 1.267 . S
C19 O16 1.249 . S
C19 O17 1.267 1_556 S
Dy20 O24 2.398 . S
Dy20 O25 2.495 . S
Dy20 O26 2.403 . S
Dy20 O27 2.664 . S
Dy20 O31 2.326 . S
Dy20 O35 2.310 1_554 S
Dy20 O36 2.351 1_554 S
C21 O32 1.185 1_565 S
C21 O33 1.355 . S
C22 O24 1.185 . S
C22 O25 1.362 . S
Dy23 O27 2.310 . S
Dy23 O30 2.351 . S
Dy23 O32 2.398 . S
Dy23 O33 2.491 1_545 S
Dy23 O34 2.403 1_554 S
Dy23 O35 2.664 1_554 S
Dy23 O37 2.326 . S
O24 Dy20 2.398 . S
O24 C22 1.185 . S
O25 Dy20 2.495 . S
O25 C22 1.362 . S
O26 Dy20 2.403 . S
O26 C28 1.254 . S
O27 Dy20 2.664 . S
O27 Dy23 2.310 . S
O27 C28 1.268 . S
C28 O26 1.254 . S
C28 O27 1.268 . S
C29 O34 1.254 . S
C29 O35 1.268 . S
O30 Dy23 2.351 . S
O30 C38 1.249 . S
O31 Dy20 2.326 . S
O31 C38 1.267 . S
O32 C21 1.185 1_545 S
O32 Dy23 2.398 . S
O33 C21 1.355 . S
O33 Dy23 2.491 1_565 S
O34 Dy23 2.403 1_556 S
O34 C29 1.254 . S
O35 Dy20 2.310 1_556 S
O35 Dy23 2.664 1_556 S
O35 C29 1.268 . S
O36 Dy20 2.351 1_556 S
O36 C39 1.249 1_545 S
O37 Dy23 2.326 . S
O37 C39 1.267 1_544 S
C38 O30 1.249 . S
C38 O31 1.267 . S
C39 O36 1.249 1_565 S
C39 O37 1.267 1_566 S
Dy40 O44 2.398 . S
Dy40 O45 2.495 . S
Dy40 O46 2.403 . S
Dy40 O47 2.664 . S
Dy40 O51 2.326 . S
Dy40 O55 2.310 1_554 S
Dy40 O56 2.351 1_554 S
C41 O52 1.185 1_455 S
C41 O53 1.355 . S
C42 O44 1.185 . S
C42 O45 1.362 . S
Dy43 O47 2.310 . S
Dy43 O50 2.351 . S
Dy43 O52 2.398 . S
Dy43 O53 2.491 1_655 S
Dy43 O54 2.403 1_554 S
Dy43 O55 2.664 1_554 S
Dy43 O57 2.326 . S
O44 Dy40 2.398 . S
O44 C42 1.185 . S
O45 Dy40 2.495 . S
O45 C42 1.362 . S
O46 Dy40 2.403 . S
O46 C48 1.254 . S
O47 Dy40 2.664 . S
O47 Dy43 2.310 . S
O47 C48 1.268 . S
C48 O46 1.254 . S
C48 O47 1.268 . S
C49 O54 1.254 . S
C49 O55 1.268 . S
O50 Dy43 2.351 . S
O50 C58 1.249 . S
O51 Dy40 2.326 . S
O51 C58 1.267 . S
O52 C41 1.185 1_655 S
O52 Dy43 2.398 . S
O53 C41 1.355 . S
O53 Dy43 2.491 1_455 S
O54 Dy43 2.403 1_556 S
O54 C49 1.254 . S
O55 Dy40 2.310 1_556 S
O55 Dy43 2.664 1_556 S
O55 C49 1.268 . S
O56 Dy40 2.351 1_556 S
O56 C59 1.249 1_655 S
O57 Dy43 2.326 . S
O57 C59 1.267 1_654 S
C58 O50 1.249 . S
C58 O51 1.267 . S
C59 O56 1.249 1_455 S
C59 O57 1.267 1_456 S
Dy60 O64 2.398 . S
Dy60 O65 2.491 . S
Dy60 O66 2.403 . S
Dy60 O67 2.664 . S
Dy60 O71 2.326 . S
Dy60 O75 2.310 . S
Dy60 O76 2.351 . S
C61 O72 1.185 . S
C61 O73 1.355 . S
C62 O64 1.185 . S
C62 O65 1.355 . S
Dy63 O67 2.310 . S
Dy63 O70 2.351 . S
Dy63 O72 2.398 . S
Dy63 O73 2.491 . S
Dy63 O74 2.403 . S
Dy63 O75 2.664 . S
Dy63 O77 2.326 . S
O64 Dy60 2.398 . S
O64 C62 1.185 . S
O65 Dy60 2.491 . S
O65 C62 1.355 . S
O66 Dy60 2.403 . S
O66 C68 1.254 . S
O67 Dy60 2.664 . S
O67 Dy63 2.310 . S
O67 C68 1.268 . S
C68 O66 1.254 . S
C68 O67 1.268 . S
C69 O74 1.254 . S
C69 O75 1.268 . S
O70 Dy63 2.351 . S
O70 C78 1.249 . S
O71 Dy60 2.326 . S
O71 C78 1.267 . S
O72 C61 1.185 . S
O72 Dy63 2.398 . S
O73 C61 1.355 . S
O73 Dy63 2.491 . S
O74 Dy63 2.403 . S
O74 C69 1.254 . S
O75 Dy60 2.310 . S
O75 Dy63 2.664 . S
O75 C69 1.268 . S
O76 Dy60 2.351 . S
O76 C79 1.249 . S
O77 Dy63 2.326 . S
O77 C79 1.267 . S
C78 O70 1.249 . S
C78 O71 1.267 . S
C79 O76 1.249 . S
C79 O77 1.267 . S
Dy80 O84 2.398 . S
Dy80 O85 2.491 . S
Dy80 O86 2.403 . S
Dy80 O87 2.664 . S
Dy80 O91 2.326 . S
Dy80 O95 2.310 . S
Dy80 O96 2.351 . S
C81 O92 1.185 1_545 S
C81 O93 1.355 . S
C82 O84 1.185 . S
C82 O85 1.355 . S
Dy83 O87 2.310 . S
Dy83 O90 2.351 . S
Dy83 O92 2.398 . S
Dy83 O93 2.491 1_565 S
Dy83 O94 2.403 . S
Dy83 O95 2.664 . S
Dy83 O97 2.326 . S
O84 Dy80 2.398 . S
O84 C82 1.185 . S
O85 Dy80 2.491 . S
O85 C82 1.355 . S
O86 Dy80 2.403 . S
O86 C88 1.254 . S
O87 Dy80 2.664 . S
O87 Dy83 2.310 . S
O87 C88 1.268 . S
C88 O86 1.254 . S
C88 O87 1.268 . S
C89 O94 1.254 . S
C89 O95 1.268 . S
O90 Dy83 2.351 . S
O90 C98 1.249 . S
O91 Dy80 2.326 . S
O91 C98 1.267 . S
O92 C81 1.185 1_565 S
O92 Dy83 2.398 . S
O93 C81 1.355 . S
O93 Dy83 2.491 1_545 S
O94 Dy83 2.403 . S
O94 C89 1.254 . S
O95 Dy80 2.310 . S
O95 Dy83 2.664 . S
O95 C89 1.268 . S
O96 Dy80 2.351 . S
O96 C99 1.249 1_565 S
O97 Dy83 2.326 . S
O97 C99 1.267 1_565 S
C98 O90 1.249 . S
C98 O91 1.267 . S
C99 O96 1.249 1_545 S
C99 O97 1.267 1_545 S
Dy100 O104 2.398 . S
Dy100 O105 2.491 . S
Dy100 O106 2.403 . S
Dy100 O107 2.664 . S
Dy100 O111 2.326 . S
Dy100 O115 2.310 . S
Dy100 O116 2.351 . S
C101 O112 1.185 1_655 S
C101 O113 1.355 . S
C102 O104 1.185 . S
C102 O105 1.355 . S
Dy103 O107 2.310 . S
Dy103 O110 2.351 . S
Dy103 O112 2.398 . S
Dy103 O113 2.491 1_455 S
Dy103 O114 2.403 . S
Dy103 O115 2.664 . S
Dy103 O117 2.326 . S
O104 Dy100 2.398 . S
O104 C102 1.185 . S
O105 Dy100 2.491 . S
O105 C102 1.355 . S
O106 Dy100 2.403 . S
O106 C108 1.254 . S
O107 Dy100 2.664 . S
O107 Dy103 2.310 . S
O107 C108 1.268 . S
C108 O106 1.254 . S
C108 O107 1.268 . S
C109 O114 1.254 . S
C109 O115 1.268 . S
O110 Dy103 2.351 . S
O110 C118 1.249 . S
O111 Dy100 2.326 . S
O111 C118 1.267 . S
O112 C101 1.185 1_455 S
O112 Dy103 2.398 . S
O113 C101 1.355 . S
O113 Dy103 2.491 1_655 S
O114 Dy103 2.403 . S
O114 C109 1.254 . S
O115 Dy100 2.310 . S
O115 Dy103 2.664 . S
O115 C109 1.268 . S
O116 Dy100 2.351 . S
O116 C119 1.249 1_455 S
O117 Dy103 2.326 . S
O117 C119 1.267 1_455 S
C118 O110 1.249 . S
C118 O111 1.267 . S
C119 O116 1.249 1_655 S
C119 O117 1.267 1_655 S
Dy120 O124 2.398 . S
Dy120 O125 2.491 . S
Dy120 O126 2.403 1_556 S
Dy120 O127 2.664 1_556 S
Dy120 O131 2.326 . S
Dy120 O135 2.310 . S
Dy120 O136 2.351 . S
C121 O132 1.185 . S
C121 O133 1.362 . S
C122 O124 1.185 . S
C122 O125 1.355 . S
Dy123 O127 2.310 1_556 S
Dy123 O130 2.351 1_556 S
Dy123 O132 2.398 . S
Dy123 O133 2.495 . S
Dy123 O134 2.403 . S
Dy123 O135 2.664 . S
Dy123 O137 2.326 . S
O124 Dy120 2.398 . S
O124 C122 1.185 . S
O125 Dy120 2.491 . S
O125 C122 1.355 . S
O126 Dy120 2.403 1_554 S
O126 C128 1.254 . S
O127 Dy120 2.664 1_554 S
O127 Dy123 2.310 1_554 S
O127 C128 1.268 . S
C128 O126 1.254 . S
C128 O127 1.268 . S
C129 O134 1.254 . S
C129 O135 1.268 . S
O130 Dy123 2.351 1_554 S
O130 C138 1.249 . S
O131 Dy120 2.326 . S
O131 C138 1.267 1_556 S
O132 C121 1.185 . S
O132 Dy123 2.398 . S
O133 C121 1.362 . S
O133 Dy123 2.495 . S
O134 Dy123 2.403 . S
O134 C129 1.254 . S
O135 Dy120 2.310 . S
O135 Dy123 2.664 . S
O135 C129 1.268 . S
O136 Dy120 2.351 . S
O136 C139 1.249 . S
O137 Dy123 2.326 . S
O137 C139 1.267 . S
C138 O130 1.249 . S
C138 O131 1.267 1_554 S
C139 O136 1.249 . S
C139 O137 1.267 . S
Dy140 O144 2.398 . S
Dy140 O145 2.491 1_565 S
Dy140 O146 2.403 1_556 S
Dy140 O147 2.664 1_556 S
Dy140 O151 2.326 . S
Dy140 O155 2.310 . S
Dy140 O156 2.351 . S
C141 O152 1.185 . S
C141 O153 1.362 . S
C142 O144 1.185 1_545 S
C142 O145 1.355 . S
Dy143 O147 2.310 1_556 S
Dy143 O150 2.351 1_556 S
Dy143 O152 2.398 . S
Dy143 O153 2.495 . S
Dy143 O154 2.403 . S
Dy143 O155 2.664 . S
Dy143 O157 2.326 . S
O144 Dy140 2.398 . S
O144 C142 1.185 1_565 S
O145 Dy140 2.491 1_545 S
O145 C142 1.355 . S
O146 Dy140 2.403 1_554 S
O146 C148 1.254 . S
O147 Dy140 2.664 1_554 S
O147 Dy143 2.310 1_554 S
O147 C148 1.268 . S
C148 O146 1.254 . S
C148 O147 1.268 . S
C149 O154 1.254 . S
C149 O155 1.268 . S
O150 Dy143 2.351 1_554 S
O150 C158 1.249 1_565 S
O151 Dy140 2.326 . S
O151 C158 1.267 1_566 S
O152 C141 1.185 . S
O152 Dy143 2.398 . S
O153 C141 1.362 . S
O153 Dy143 2.495 . S
O154 Dy143 2.403 . S
O154 C149 1.254 . S
O155 Dy140 2.310 . S
O155 Dy143 2.664 . S
O155 C149 1.268 . S
O156 Dy140 2.351 . S
O156 C159 1.249 . S
O157 Dy143 2.326 . S
O157 C159 1.267 . S
C158 O150 1.249 1_545 S
C158 O151 1.267 1_544 S
C159 O156 1.249 . S
C159 O157 1.267 . S
Dy160 O164 2.398 . S
Dy160 O165 2.491 1_455 S
Dy160 O166 2.403 1_556 S
Dy160 O167 2.664 1_556 S
Dy160 O171 2.326 . S
Dy160 O175 2.310 . S
Dy160 O176 2.351 . S
C161 O172 1.185 . S
C161 O173 1.362 . S
C162 O164 1.185 1_655 S
C162 O165 1.355 . S
Dy163 O167 2.310 1_556 S
Dy163 O170 2.351 1_556 S
Dy163 O172 2.398 . S
Dy163 O173 2.495 . S
Dy163 O174 2.403 . S
Dy163 O175 2.664 . S
Dy163 O177 2.326 . S
O164 Dy160 2.398 . S
O164 C162 1.185 1_455 S
O165 Dy160 2.491 1_655 S
O165 C162 1.355 . S
O166 Dy160 2.403 1_554 S
O166 C168 1.254 . S
O167 Dy160 2.664 1_554 S
O167 Dy163 2.310 1_554 S
O167 C168 1.268 . S
C168 O166 1.254 . S
C168 O167 1.268 . S
C169 O174 1.254 . S
C169 O175 1.268 . S
O170 Dy163 2.351 1_554 S
O170 C178 1.249 1_455 S
O171 Dy160 2.326 . S
O171 C178 1.267 1_456 S
O172 C161 1.185 . S
O172 Dy163 2.398 . S
O173 C161 1.362 . S
O173 Dy163 2.495 . S
O174 Dy163 2.403 . S
O174 C169 1.254 . S
O175 Dy160 2.310 . S
O175 Dy163 2.664 . S
O175 C169 1.268 . S
O176 Dy160 2.351 . S
O176 C179 1.249 . S
O177 Dy163 2.326 . S
O177 C179 1.267 . S
C178 O170 1.249 1_655 S
C178 O171 1.267 1_654 S
C179 O176 1.249 . S
C179 O177 1.267 . S
Dy180 O184 2.398 . S
Dy180 O185 2.491 . S
Dy180 O186 2.403 . S
Dy180 O187 2.664 . S
Dy180 O191 2.326 . S
Dy180 O195 2.310 . S
Dy180 O196 2.351 . S
C181 O192 1.185 . S
C181 O193 1.355 . S
C182 O184 1.185 . S
C182 O185 1.355 . S
Dy183 O187 2.310 . S
Dy183 O190 2.351 . S
Dy183 O192 2.398 . S
Dy183 O193 2.491 . S
Dy183 O194 2.403 . S
Dy183 O195 2.664 . S
Dy183 O197 2.326 . S
O184 Dy180 2.398 . S
O184 C182 1.185 . S
O185 Dy180 2.491 . S
O185 C182 1.355 . S
O186 Dy180 2.403 . S
O186 C188 1.254 . S
O187 Dy180 2.664 . S
O187 Dy183 2.310 . S
O187 C188 1.268 . S
C188 O186 1.254 . S
C188 O187 1.268 . S
C189 O194 1.254 . S
C189 O195 1.268 . S
O190 Dy183 2.351 . S
O190 C198 1.249 . S
O191 Dy180 2.326 . S
O191 C198 1.267 . S
O192 C181 1.185 . S
O192 Dy183 2.398 . S
O193 C181 1.355 . S
O193 Dy183 2.491 . S
O194 Dy183 2.403 . S
O194 C189 1.254 . S
O195 Dy180 2.310 . S
O195 Dy183 2.664 . S
O195 C189 1.268 . S
O196 Dy180 2.351 . S
O196 C199 1.249 . S
O197 Dy183 2.326 . S
O197 C199 1.267 . S
C198 O190 1.249 . S
C198 O191 1.267 . S
C199 O196 1.249 . S
C199 O197 1.267 . S
Dy200 O204 2.398 . S
Dy200 O205 2.491 1_545 S
Dy200 O206 2.403 . S
Dy200 O207 2.664 . S
Dy200 O211 2.326 . S
Dy200 O215 2.310 . S
Dy200 O216 2.351 . S
C201 O212 1.185 . S
C201 O213 1.355 . S
C202 O204 1.185 1_565 S
C202 O205 1.355 . S
Dy203 O207 2.310 . S
Dy203 O210 2.351 . S
Dy203 O212 2.398 . S
Dy203 O213 2.491 . S
Dy203 O214 2.403 . S
Dy203 O215 2.664 . S
Dy203 O217 2.326 . S
O204 Dy200 2.398 . S
O204 C202 1.185 1_545 S
O205 Dy200 2.491 1_565 S
O205 C202 1.355 . S
O206 Dy200 2.403 . S
O206 C208 1.254 . S
O207 Dy200 2.664 . S
O207 Dy203 2.310 . S
O207 C208 1.268 . S
C208 O206 1.254 . S
C208 O207 1.268 . S
C209 O214 1.254 . S
C209 O215 1.268 . S
O210 Dy203 2.351 . S
O210 C218 1.249 1_545 S
O211 Dy200 2.326 . S
O211 C218 1.267 1_545 S
O212 C201 1.185 . S
O212 Dy203 2.398 . S
O213 C201 1.355 . S
O213 Dy203 2.491 . S
O214 Dy203 2.403 . S
O214 C209 1.254 . S
O215 Dy200 2.310 . S
O215 Dy203 2.664 . S
O215 C209 1.268 . S
O216 Dy200 2.351 . S
O216 C219 1.249 . S
O217 Dy203 2.326 . S
O217 C219 1.267 . S
C218 O210 1.249 1_565 S
C218 O211 1.267 1_565 S
C219 O216 1.249 . S
C219 O217 1.267 . S
Dy220 O224 2.398 . S
Dy220 O225 2.491 1_655 S
Dy220 O226 2.403 . S
Dy220 O227 2.664 . S
Dy220 O231 2.326 . S
Dy220 O235 2.310 . S
Dy220 O236 2.351 . S
C221 O232 1.185 . S
C221 O233 1.355 . S
C222 O224 1.185 1_455 S
C222 O225 1.355 . S
Dy223 O227 2.310 . S
Dy223 O230 2.351 . S
Dy223 O232 2.398 . S
Dy223 O233 2.491 . S
Dy223 O234 2.403 . S
Dy223 O235 2.664 . S
Dy223 O237 2.326 . S
O224 Dy220 2.398 . S
O224 C222 1.185 1_655 S
O225 Dy220 2.491 1_455 S
O225 C222 1.355 . S
O226 Dy220 2.403 . S
O226 C228 1.254 . S
O227 Dy220 2.664 . S
O227 Dy223 2.310 . S
O227 C228 1.268 . S
C228 O226 1.254 . S
C228 O227 1.268 . S
C229 O234 1.254 . S
C229 O235 1.268 . S
O230 Dy223 2.351 . S
O230 C238 1.249 1_655 S
O231 Dy220 2.326 . S
O231 C238 1.267 1_655 S
O232 C221 1.185 . S
O232 Dy223 2.398 . S
O233 C221 1.355 . S
O233 Dy223 2.491 . S
O234 Dy223 2.403 . S
O234 C229 1.254 . S
O235 Dy220 2.310 . S
O235 Dy223 2.664 . S
O235 C229 1.268 . S
O236 Dy220 2.351 . S
O236 C239 1.249 . S
O237 Dy223 2.326 . S
O237 C239 1.267 . S
C238 O230 1.249 1_455 S
C238 O231 1.267 1_455 S
C239 O236 1.249 . S
C239 O237 1.267 . S
Dy240 O244 2.398 . S
Dy240 O245 2.491 . S
Dy240 O246 2.403 . S
Dy240 O247 2.664 . S
Dy240 O251 2.326 . S
Dy240 O255 2.310 . S
Dy240 O256 2.351 . S
C241 O252 1.185 . S
C241 O253 1.355 . S
C242 O244 1.185 . S
C242 O245 1.355 . S
Dy243 O247 2.310 . S
Dy243 O250 2.351 . S
Dy243 O252 2.398 . S
Dy243 O253 2.491 . S
Dy243 O254 2.403 . S
Dy243 O255 2.664 . S
Dy243 O257 2.326 . S
O244 Dy240 2.398 . S
O244 C242 1.185 . S
O245 Dy240 2.491 . S
O245 C242 1.355 . S
O246 Dy240 2.403 . S
O246 C248 1.254 . S
O247 Dy240 2.664 . S
O247 Dy243 2.310 . S
O247 C248 1.268 . S
C248 O246 1.254 . S
C248 O247 1.268 . S
C249 O254 1.254 . S
C249 O255 1.268 . S
O250 Dy243 2.351 . S
O250 C258 1.249 . S
O251 Dy240 2.326 . S
O251 C258 1.267 . S
O252 C241 1.185 . S
O252 Dy243 2.398 . S
O253 C241 1.355 . S
O253 Dy243 2.491 . S
O254 Dy243 2.403 . S
O254 C249 1.254 . S
O255 Dy240 2.310 . S
O255 Dy243 2.664 . S
O255 C249 1.268 . S
O256 Dy240 2.351 . S
O256 C259 1.249 . S
O257 Dy243 2.326 . S
O257 C259 1.267 . S
C258 O250 1.249 . S
C258 O251 1.267 . S
C259 O256 1.249 . S
C259 O257 1.267 . S
Dy260 O264 2.398 . S
Dy260 O265 2.491 . S
Dy260 O266 2.403 . S
Dy260 O267 2.664 . S
Dy260 O271 2.326 . S
Dy260 O275 2.310 . S
Dy260 O276 2.351 . S
C261 O272 1.185 . S
C261 O273 1.355 . S
C262 O264 1.185 . S
C262 O265 1.355 . S
Dy263 O267 2.310 . S
Dy263 O270 2.351 . S
Dy263 O272 2.398 . S
Dy263 O273 2.491 . S
Dy263 O274 2.403 . S
Dy263 O275 2.664 . S
Dy263 O277 2.326 . S
O264 Dy260 2.398 . S
O264 C262 1.185 . S
O265 Dy260 2.491 . S
O265 C262 1.355 . S
O266 Dy260 2.403 . S
O266 C268 1.254 . S
O267 Dy260 2.664 . S
O267 Dy263 2.310 . S
O267 C268 1.268 . S
C268 O266 1.254 . S
C268 O267 1.268 . S
C269 O274 1.254 . S
C269 O275 1.268 . S
O270 Dy263 2.351 . S
O270 C278 1.249 . S
O271 Dy260 2.326 . S
O271 C278 1.267 . S
O272 C261 1.185 . S
O272 Dy263 2.398 . S
O273 C261 1.355 . S
O273 Dy263 2.491 . S
O274 Dy263 2.403 . S
O274 C269 1.254 . S
O275 Dy260 2.310 . S
O275 Dy263 2.664 . S
O275 C269 1.268 . S
O276 Dy260 2.351 . S
O276 C279 1.249 . S
O277 Dy263 2.326 . S
O277 C279 1.267 . S
C278 O270 1.249 . S
C278 O271 1.267 . S
C279 O276 1.249 . S
C279 O277 1.267 . S
Dy280 O284 2.398 . S
Dy280 O285 2.491 . S
Dy280 O286 2.403 . S
Dy280 O287 2.664 . S
Dy280 O291 2.326 . S
Dy280 O295 2.310 . S
Dy280 O296 2.351 . S
C281 O292 1.185 . S
C281 O293 1.355 . S
C282 O284 1.185 . S
C282 O285 1.355 . S
Dy283 O287 2.310 . S
Dy283 O290 2.351 . S
Dy283 O292 2.398 . S
Dy283 O293 2.491 . S
Dy283 O294 2.403 . S
Dy283 O295 2.664 . S
Dy283 O297 2.326 . S
O284 Dy280 2.398 . S
O284 C282 1.185 . S
O285 Dy280 2.491 . S
O285 C282 1.355 . S
O286 Dy280 2.403 . S
O286 C288 1.254 . S
O287 Dy280 2.664 . S
O287 Dy283 2.310 . S
O287 C288 1.268 . S
C288 O286 1.254 . S
C288 O287 1.268 . S
C289 O294 1.254 . S
C289 O295 1.268 . S
O290 Dy283 2.351 . S
O290 C298 1.249 . S
O291 Dy280 2.326 . S
O291 C298 1.267 . S
O292 C281 1.185 . S
O292 Dy283 2.398 . S
O293 C281 1.355 . S
O293 Dy283 2.491 . S
O294 Dy283 2.403 . S
O294 C289 1.254 . S
O295 Dy280 2.310 . S
O295 Dy283 2.664 . S
O295 C289 1.268 . S
O296 Dy280 2.351 . S
O296 C299 1.249 . S
O297 Dy283 2.326 . S
O297 C299 1.267 . S
C298 O290 1.249 . S
C298 O291 1.267 . S
C299 O296 1.249 . S
C299 O297 1.267 . S
Dy300 O304 2.398 . S
Dy300 O305 2.491 . S
Dy300 O306 2.403 . S
Dy300 O307 2.664 . S
Dy300 O311 2.326 . S
Dy300 O315 2.310 . S
Dy300 O316 2.351 . S
C301 O312 1.185 . S
C301 O313 1.355 . S
C302 O304 1.185 . S
C302 O305 1.355 . S
Dy303 O307 2.310 . S
Dy303 O310 2.351 . S
Dy303 O312 2.398 . S
Dy303 O313 2.491 . S
Dy303 O314 2.403 . S
Dy303 O315 2.664 . S
Dy303 O317 2.326 . S
O304 Dy300 2.398 . S
O304 C302 1.185 . S
O305 Dy300 2.491 . S
O305 C302 1.355 . S
O306 Dy300 2.403 . S
O306 C308 1.254 . S
O307 Dy300 2.664 . S
O307 Dy303 2.310 . S
O307 C308 1.268 . S
C308 O306 1.254 . S
C308 O307 1.268 . S
C309 O314 1.254 . S
C309 O315 1.268 . S
O310 Dy303 2.351 . S
O310 C318 1.249 . S
O311 Dy300 2.326 . S
O311 C318 1.267 . S
O312 C301 1.185 . S
O312 Dy303 2.398 . S
O313 C301 1.355 . S
O313 Dy303 2.491 . S
O314 Dy303 2.403 . S
O314 C309 1.254 . S
O315 Dy300 2.310 . S
O315 Dy303 2.664 . S
O315 C309 1.268 . S
O316 Dy300 2.351 . S
O316 C319 1.249 . S
O317 Dy303 2.326 . S
O317 C319 1.267 . S
C318 O310 1.249 . S
C318 O311 1.267 . S
C319 O316 1.249 . S
C319 O317 1.267 . S
Dy320 O324 2.398 . S
Dy320 O325 2.491 . S
Dy320 O326 2.403 . S
Dy320 O327 2.664 . S
Dy320 O331 2.326 . S
Dy320 O335 2.310 . S
Dy320 O336 2.351 . S
C321 O332 1.185 . S
C321 O333 1.355 . S
C322 O324 1.185 . S
C322 O325 1.355 . S
Dy323 O327 2.310 . S
Dy323 O330 2.351 . S
Dy323 O332 2.398 . S
Dy323 O333 2.491 . S
Dy323 O334 2.403 . S
Dy323 O335 2.664 . S
Dy323 O337 2.326 . S
O324 Dy320 2.398 . S
O324 C322 1.185 . S
O325 Dy320 2.491 . S
O325 C322 1.355 . S
O326 Dy320 2.403 . S
O326 C328 1.254 . S
O327 Dy320 2.664 . S
O327 Dy323 2.310 . S
O327 C328 1.268 . S
C328 O326 1.254 . S
C328 O327 1.268 . S
C329 O334 1.254 . S
C329 O335 1.268 . S
O330 Dy323 2.351 . S
O330 C338 1.249 . S
O331 Dy320 2.326 . S
O331 C338 1.267 . S
O332 C321 1.185 . S
O332 Dy323 2.398 . S
O333 C321 1.355 . S
O333 Dy323 2.491 . S
O334 Dy323 2.403 . S
O334 C329 1.254 . S
O335 Dy320 2.310 . S
O335 Dy323 2.664 . S
O335 C329 1.268 . S
O336 Dy320 2.351 . S
O336 C339 1.249 . S
O337 Dy323 2.326 . S
O337 C339 1.267 . S
C338 O330 1.249 . S
C338 O331 1.267 . S
C339 O336 1.249 . S
C339 O337 1.267 . S
Dy340 O344 2.398 . S
Dy340 O345 2.491 . S
Dy340 O346 2.403 . S
Dy340 O347 2.664 . S
Dy340 O351 2.326 . S
Dy340 O355 2.310 . S
Dy340 O356 2.351 . S
C341 O352 1.185 . S
C341 O353 1.355 . S
C342 O344 1.185 . S
C342 O345 1.355 . S
Dy343 O347 2.310 . S
Dy343 O350 2.351 . S
Dy343 O352 2.398 . S
Dy343 O353 2.491 . S
Dy343 O354 2.403 . S
Dy343 O355 2.664 . S
Dy343 O357 2.326 . S
O344 Dy340 2.398 . S
O344 C342 1.185 . S
O345 Dy340 2.491 . S
O345 C342 1.355 . S
O346 Dy340 2.403 . S
O346 C348 1.254 . S
O347 Dy340 2.664 . S
O347 Dy343 2.310 . S
O347 C348 1.268 . S
C348 O346 1.254 . S
C348 O347 1.268 . S
C349 O354 1.254 . S
C349 O355 1.268 . S
O350 Dy343 2.351 . S
O350 C358 1.249 . S
O351 Dy340 2.326 . S
O351 C358 1.267 . S
O352 C341 1.185 . S
O352 Dy343 2.398 . S
O353 C341 1.355 . S
O353 Dy343 2.491 . S
O354 Dy343 2.403 . S
O354 C349 1.254 . S
O355 Dy340 2.310 . S
O355 Dy343 2.664 . S
O355 C349 1.268 . S
O356 Dy340 2.351 . S
O356 C359 1.249 . S
O357 Dy343 2.326 . S
O357 C359 1.267 . S
C358 O350 1.249 . S
C358 O351 1.267 . S
C359 O356 1.249 . S
C359 O357 1.267 . S
Dy360 O364 2.398 . S
Dy360 O365 2.491 . S
Dy360 O366 2.403 . S
Dy360 O367 2.664 . S
Dy360 O371 2.326 . S
Dy360 O375 2.310 . S
Dy360 O376 2.351 . S
C361 O372 1.185 . S
C361 O373 1.355 . S
C362 O364 1.185 . S
C362 O365 1.355 . S
Dy363 O367 2.310 . S
Dy363 O370 2.351 . S
Dy363 O372 2.398 . S
Dy363 O373 2.491 . S
Dy363 O374 2.403 . S
Dy363 O375 2.664 . S
Dy363 O377 2.326 . S
O364 Dy360 2.398 . S
O364 C362 1.185 . S
O365 Dy360 2.491 . S
O365 C362 1.355 . S
O366 Dy360 2.403 . S
O366 C368 1.254 . S
O367 Dy360 2.664 . S
O367 Dy363 2.310 . S
O367 C368 1.268 . S
C368 O366 1.254 . S
C368 O367 1.268 . S
C369 O374 1.254 . S
C369 O375 1.268 . S
O370 Dy363 2.351 . S
O370 C378 1.249 . S
O371 Dy360 2.326 . S
O371 C378 1.267 . S
O372 C361 1.185 . S
O372 Dy363 2.398 . S
O373 C361 1.355 . S
O373 Dy363 2.491 . S
O374 Dy363 2.403 . S
O374 C369 1.254 . S
O375 Dy360 2.310 . S
O375 Dy363 2.664 . S
O375 C369 1.268 . S
O376 Dy360 2.351 . S
O376 C379 1.249 . S
O377 Dy363 2.326 . S
O377 C379 1.267 . S
C378 O370 1.249 . S
C378 O371 1.267 . S
C379 O376 1.249 . S
C379 O377 1.267 . S
Dy380 O384 2.398 . S
Dy380 O385 2.491 . S
Dy380 O386 2.403 . S
Dy380 O387 2.664 . S
Dy380 O391 2.326 . S
Dy380 O395 2.310 . S
Dy380 O396 2.351 . S
C381 O392 1.185 . S
C381 O393 1.355 . S
C382 O384 1.185 . S
C382 O385 1.355 . S
Dy383 O387 2.310 . S
Dy383 O390 2.351 . S
Dy383 O392 2.398 . S
Dy383 O393 2.491 . S
Dy383 O394 2.403 . S
Dy383 O395 2.664 . S
Dy383 O397 2.326 . S
O384 Dy380 2.398 . S
O384 C382 1.185 . S
O385 Dy380 2.491 . S
O385 C382 1.355 . S
O386 Dy380 2.403 . S
O386 C388 1.254 . S
O387 Dy380 2.664 . S
O387 Dy383 2.310 . S
O387 C388 1.268 . S
C388 O386 1.254 . S
C388 O387 1.268 . S
C389 O394 1.254 . S
C389 O395 1.268 . S
O390 Dy383 2.351 . S
O390 C398 1.249 . S
O391 Dy380 2.326 . S
O391 C398 1.267 . S
O392 C381 1.185 . S
O392 Dy383 2.398 . S
O393 C381 1.355 . S
O393 Dy383 2.491 . S
O394 Dy383 2.403 . S
O394 C389 1.254 . S
O395 Dy380 2.310 . S
O395 Dy383 2.664 . S
O395 C389 1.268 . S
O396 Dy380 2.351 . S
O396 C399 1.249 . S
O397 Dy383 2.326 . S
O397 C399 1.267 . S
C398 O390 1.249 . S
C398 O391 1.267 . S
C399 O396 1.249 . S
C399 O397 1.267 . S
Dy400 O404 2.398 . S
Dy400 O405 2.491 . S
Dy400 O406 2.403 . S
Dy400 O407 2.664 . S
Dy400 O411 2.326 . S
Dy400 O415 2.310 . S
Dy400 O416 2.351 . S
C401 O412 1.185 . S
C401 O413 1.355 . S
C402 O404 1.185 . S
C402 O405 1.355 . S
Dy403 O407 2.310 . S
Dy403 O410 2.351 . S
Dy403 O412 2.398 . S
Dy403 O413 2.491 . S
Dy403 O414 2.403 . S
Dy403 O415 2.664 . S
Dy403 O417 2.326 . S
O404 Dy400 2.398 . S
O404 C402 1.185 . S
O405 Dy400 2.491 . S
O405 C402 1.355 . S
O406 Dy400 2.403 . S
O406 C408 1.254 . S
O407 Dy400 2.664 . S
O407 Dy403 2.310 . S
O407 C408 1.268 . S
C408 O406 1.254 . S
C408 O407 1.268 . S
C409 O414 1.254 . S
C409 O415 1.268 . S
O410 Dy403 2.351 . S
O410 C418 1.249 . S
O411 Dy400 2.326 . S
O411 C418 1.267 . S
O412 C401 1.185 . S
O412 Dy403 2.398 . S
O413 C401 1.355 . S
O413 Dy403 2.491 . S
O414 Dy403 2.403 . S
O414 C409 1.254 . S
O415 Dy400 2.310 . S
O415 Dy403 2.664 . S
O415 C409 1.268 . S
O416 Dy400 2.351 . S
O416 C419 1.249 . S
O417 Dy403 2.326 . S
O417 C419 1.267 . S
C418 O410 1.249 . S
C418 O411 1.267 . S
C419 O416 1.249 . S
C419 O417 1.267 . S
Dy420 O424 2.398 . S
Dy420 O425 2.491 . S
Dy420 O426 2.403 . S
Dy420 O427 2.664 . S
Dy420 O431 2.326 . S
Dy420 O435 2.310 . S
Dy420 O436 2.351 . S
C421 O432 1.185 . S
C421 O433 1.355 . S
C422 O424 1.185 . S
C422 O425 1.355 . S
Dy423 O427 2.310 . S
Dy423 O430 2.351 . S
Dy423 O432 2.398 . S
Dy423 O433 2.491 . S
Dy423 O434 2.403 1_556 S
Dy423 O435 2.664 . S
Dy423 O437 2.326 . S
O424 Dy420 2.398 . S
O424 C422 1.185 . S
O425 Dy420 2.491 . S
O425 C422 1.355 . S
O426 Dy420 2.403 . S
O426 C428 1.254 . S
O427 Dy420 2.664 . S
O427 Dy423 2.310 . S
O427 C428 1.268 . S
C428 O426 1.254 . S
C428 O427 1.268 . S
C429 O434 1.254 . S
C429 O435 1.268 1_554 S
O430 Dy423 2.351 . S
O430 C438 1.249 . S
O431 Dy420 2.326 . S
O431 C438 1.267 . S
O432 C421 1.185 . S
O432 Dy423 2.398 . S
O433 C421 1.355 . S
O433 Dy423 2.491 . S
O434 Dy423 2.403 1_554 S
O434 C429 1.254 . S
O435 Dy420 2.310 . S
O435 Dy423 2.664 . S
O435 C429 1.268 1_556 S
O436 Dy420 2.351 . S
O436 C439 1.249 . S
O437 Dy423 2.326 . S
O437 C439 1.267 . S
C438 O430 1.249 . S
C438 O431 1.267 . S
C439 O436 1.249 . S
C439 O437 1.267 . S
Dy440 O444 2.398 . S
Dy440 O445 2.491 . S
Dy440 O446 2.403 . S
Dy440 O447 2.664 . S
Dy440 O451 2.326 . S
Dy440 O455 2.310 . S
Dy440 O456 2.351 . S
C441 O452 1.185 . S
C441 O453 1.355 . S
C442 O444 1.185 . S
C442 O445 1.355 . S
Dy443 O447 2.310 . S
Dy443 O450 2.351 . S
Dy443 O452 2.398 . S
Dy443 O453 2.491 . S
Dy443 O454 2.403 1_556 S
Dy443 O455 2.664 . S
Dy443 O457 2.326 . S
O444 Dy440 2.398 . S
O444 C442 1.185 . S
O445 Dy440 2.491 . S
O445 C442 1.355 . S
O446 Dy440 2.403 . S
O446 C448 1.254 . S
O447 Dy440 2.664 . S
O447 Dy443 2.310 . S
O447 C448 1.268 . S
C448 O446 1.254 . S
C448 O447 1.268 . S
C449 O454 1.254 . S
C449 O455 1.268 1_554 S
O450 Dy443 2.351 . S
O450 C458 1.249 . S
O451 Dy440 2.326 . S
O451 C458 1.267 . S
O452 C441 1.185 . S
O452 Dy443 2.398 . S
O453 C441 1.355 . S
O453 Dy443 2.491 . S
O454 Dy443 2.403 1_554 S
O454 C449 1.254 . S
O455 Dy440 2.310 . S
O455 Dy443 2.664 . S
O455 C449 1.268 1_556 S
O456 Dy440 2.351 . S
O456 C459 1.249 . S
O457 Dy443 2.326 . S
O457 C459 1.267 . S
C458 O450 1.249 . S
C458 O451 1.267 . S
C459 O456 1.249 . S
C459 O457 1.267 . S
Dy460 O464 2.398 . S
Dy460 O465 2.491 . S
Dy460 O466 2.403 . S
Dy460 O467 2.664 . S
Dy460 O471 2.326 . S
Dy460 O475 2.310 . S
Dy460 O476 2.351 . S
C461 O472 1.185 . S
C461 O473 1.355 . S
C462 O464 1.185 . S
C462 O465 1.355 . S
Dy463 O467 2.310 . S
Dy463 O470 2.351 . S
Dy463 O472 2.398 . S
Dy463 O473 2.491 . S
Dy463 O474 2.403 1_556 S
Dy463 O475 2.664 . S
Dy463 O477 2.326 . S
O464 Dy460 2.398 . S
O464 C462 1.185 . S
O465 Dy460 2.491 . S
O465 C462 1.355 . S
O466 Dy460 2.403 . S
O466 C468 1.254 . S
O467 Dy460 2.664 . S
O467 Dy463 2.310 . S
O467 C468 1.268 . S
C468 O466 1.254 . S
C468 O467 1.268 . S
C469 O474 1.254 . S
C469 O475 1.268 1_554 S
O470 Dy463 2.351 . S
O470 C478 1.249 . S
O471 Dy460 2.326 . S
O471 C478 1.267 . S
O472 C461 1.185 . S
O472 Dy463 2.398 . S
O473 C461 1.355 . S
O473 Dy463 2.491 . S
O474 Dy463 2.403 1_554 S
O474 C469 1.254 . S
O475 Dy460 2.310 . S
O475 Dy463 2.664 . S
O475 C469 1.268 1_556 S
O476 Dy460 2.351 . S
O476 C479 1.249 . S
O477 Dy463 2.326 . S
O477 C479 1.267 . S
C478 O470 1.249 . S
C478 O471 1.267 . S
C479 O476 1.249 . S
C479 O477 1.267 . S
Dy480 O484 2.398 . S
Dy480 O485 2.491 . S
Dy480 O486 2.403 . S
Dy480 O487 2.664 . S
Dy480 O491 2.326 . S
Dy480 O495 2.310 . S
Dy480 O496 2.351 . S
C481 O492 1.185 . S
C481 O493 1.355 . S
C482 O484 1.185 . S
C482 O485 1.355 . S
Dy483 O487 2.310 . S
Dy483 O490 2.351 . S
Dy483 O492 2.398 . S
Dy483 O493 2.491 . S
Dy483 O494 2.403 . S
Dy483 O495 2.664 . S
Dy483 O497 2.326 . S
O484 Dy480 2.398 . S
O484 C482 1.185 . S
O485 Dy480 2.491 . S
O485 C482 1.355 . S
O486 Dy480 2.403 . S
O486 C488 1.254 . S
O487 Dy480 2.664 . S
O487 Dy483 2.310 . S
O487 C488 1.268 . S
C488 O486 1.254 . S
C488 O487 1.268 . S
C489 O494 1.254 . S
C489 O495 1.268 . S
O490 Dy483 2.351 . S
O490 C498 1.249 . S
O491 Dy480 2.326 . S
O491 C498 1.267 . S
O492 C481 1.185 . S
O492 Dy483 2.398 . S
O493 C481 1.355 . S
O493 Dy483 2.491 . S
O494 Dy483 2.403 . S
O494 C489 1.254 . S
O495 Dy480 2.310 . S
O495 Dy483 2.664 . S
O495 C489 1.268 . S
O496 Dy480 2.351 . S
O496 C499 1.249 . S
O497 Dy483 2.326 . S
O497 C499 1.267 . S
C498 O490 1.249 . S
C498 O491 1.267 . S
C499 O496 1.249 . S
C499 O497 1.267 . S
Dy500 O504 2.398 . S
Dy500 O505 2.491 . S
Dy500 O506 2.403 . S
Dy500 O507 2.664 . S
Dy500 O511 2.326 . S
Dy500 O515 2.310 . S
Dy500 O516 2.351 . S
C501 O512 1.185 . S
C501 O513 1.355 . S
C502 O504 1.185 . S
C502 O505 1.355 . S
Dy503 O507 2.310 . S
Dy503 O510 2.351 . S
Dy503 O512 2.398 . S
Dy503 O513 2.491 . S
Dy503 O514 2.403 . S
Dy503 O515 2.664 . S
Dy503 O517 2.326 . S
O504 Dy500 2.398 . S
O504 C502 1.185 . S
O505 Dy500 2.491 . S
O505 C502 1.355 . S
O506 Dy500 2.403 . S
O506 C508 1.254 . S
O507 Dy500 2.664 . S
O507 Dy503 2.310 . S
O507 C508 1.268 . S
C508 O506 1.254 . S
C508 O507 1.268 . S
C509 O514 1.254 . S
C509 O515 1.268 . S
O510 Dy503 2.351 . S
O510 C518 1.249 . S
O511 Dy500 2.326 . S
O511 C518 1.267 . S
O512 C501 1.185 . S
O512 Dy503 2.398 . S
O513 C501 1.355 . S
O513 Dy503 2.491 . S
O514 Dy503 2.403 . S
O514 C509 1.254 . S
O515 Dy500 2.310 . S
O515 Dy503 2.664 . S
O515 C509 1.268 . S
O516 Dy500 2.351 . S
O516 C519 1.249 . S
O517 Dy503 2.326 . S
O517 C519 1.267 . S
C518 O510 1.249 . S
C518 O511 1.267 . S
C519 O516 1.249 . S
C519 O517 1.267 . S
Dy520 O524 2.398 . S
Dy520 O525 2.491 . S
Dy520 O526 2.403 . S
Dy520 O527 2.664 . S
Dy520 O531 2.326 . S
Dy520 O535 2.310 . S
Dy520 O536 2.351 . S
C521 O532 1.185 . S
C521 O533 1.355 . S
C522 O524 1.185 . S
C522 O525 1.355 . S
Dy523 O527 2.310 . S
Dy523 O530 2.351 . S
Dy523 O532 2.398 . S
Dy523 O533 2.491 . S
Dy523 O534 2.403 . S
Dy523 O535 2.664 . S
Dy523 O537 2.326 . S
O524 Dy520 2.398 . S
O524 C522 1.185 . S
O525 Dy520 2.491 . S
O525 C522 1.355 . S
O526 Dy520 2.403 . S
O526 C528 1.254 . S
O527 Dy520 2.664 . S
O527 Dy523 2.310 . S
O527 C528 1.268 . S
C528 O526 1.254 . S
C528 O527 1.268 . S
C529 O534 1.254 . S
C529 O535 1.268 . S
O530 Dy523 2.351 . S
O530 C538 1.249 . S
O531 Dy520 2.326 . S
O531 C538 1.267 . S
O532 C521 1.185 . S
O532 Dy523 2.398 . S
O533 C521 1.355 . S
O533 Dy523 2.491 . S
O534 Dy523 2.403 . S
O534 C529 1.254 . S
O535 Dy520 2.310 . S
O535 Dy523 2.664 . S
O535 C529 1.268 . S
O536 Dy520 2.351 . S
O536 C539 1.249 . S
O537 Dy523 2.326 . S
O537 C539 1.267 . S
C538 O530 1.249 . S
C538 O531 1.267 . S
C539 O536 1.249 . S
C539 O537 1.267 . S
Dy540 O544 2.398 . S
Dy540 O545 2.491 . S
Dy540 O546 2.403 1_554 S
Dy540 O547 2.664 . S
Dy540 O551 2.326 . S
Dy540 O555 2.310 . S
Dy540 O556 2.351 . S
C541 O552 1.185 . S
C541 O553 1.355 . S
C542 O544 1.185 . S
C542 O545 1.355 . S
Dy543 O547 2.310 . S
Dy543 O550 2.351 . S
Dy543 O552 2.398 . S
Dy543 O553 2.491 . S
Dy543 O554 2.403 . S
Dy543 O555 2.664 . S
Dy543 O557 2.326 . S
O544 Dy540 2.398 . S
O544 C542 1.185 . S
O545 Dy540 2.491 . S
O545 C542 1.355 . S
O546 Dy540 2.403 1_556 S
O546 C548 1.254 . S
O547 Dy540 2.664 . S
O547 Dy543 2.310 . S
O547 C548 1.268 1_554 S
C548 O546 1.254 . S
C548 O547 1.268 1_556 S
C549 O554 1.254 . S
C549 O555 1.268 . S
O550 Dy543 2.351 . S
O550 C558 1.249 . S
O551 Dy540 2.326 . S
O551 C558 1.267 . S
O552 C541 1.185 . S
O552 Dy543 2.398 . S
O553 C541 1.355 . S
O553 Dy543 2.491 . S
O554 Dy543 2.403 . S
O554 C549 1.254 . S
O555 Dy540 2.310 . S
O555 Dy543 2.664 . S
O555 C549 1.268 . S
O556 Dy540 2.351 . S
O556 C559 1.249 . S
O557 Dy543 2.326 . S
O557 C559 1.267 . S
C558 O550 1.249 . S
C558 O551 1.267 . S
C559 O556 1.249 . S
C559 O557 1.267 . S
Dy560 O564 2.398 . S
Dy560 O565 2.491 . S
Dy560 O566 2.403 1_554 S
Dy560 O567 2.664 . S
Dy560 O571 2.326 . S
Dy560 O575 2.310 . S
Dy560 O576 2.351 . S
C561 O572 1.185 . S
C561 O573 1.355 . S
C562 O564 1.185 . S
C562 O565 1.355 . S
Dy563 O567 2.310 . S
Dy563 O570 2.351 . S
Dy563 O572 2.398 . S
Dy563 O573 2.491 . S
Dy563 O574 2.403 . S
Dy563 O575 2.664 . S
Dy563 O577 2.326 . S
O564 Dy560 2.398 . S
O564 C562 1.185 . S
O565 Dy560 2.491 . S
O565 C562 1.355 . S
O566 Dy560 2.403 1_556 S
O566 C568 1.254 . S
O567 Dy560 2.664 . S
O567 Dy563 2.310 . S
O567 C568 1.268 1_554 S
C568 O566 1.254 . S
C568 O567 1.268 1_556 S
C569 O574 1.254 . S
C569 O575 1.268 . S
O570 Dy563 2.351 . S
O570 C578 1.249 . S
O571 Dy560 2.326 . S
O571 C578 1.267 . S
O572 C561 1.185 . S
O572 Dy563 2.398 . S
O573 C561 1.355 . S
O573 Dy563 2.491 . S
O574 Dy563 2.403 . S
O574 C569 1.254 . S
O575 Dy560 2.310 . S
O575 Dy563 2.664 . S
O575 C569 1.268 . S
O576 Dy560 2.351 . S
O576 C579 1.249 . S
O577 Dy563 2.326 . S
O577 C579 1.267 . S
C578 O570 1.249 . S
C578 O571 1.267 . S
C579 O576 1.249 . S
C579 O577 1.267 . S
Dy580 O584 2.398 . S
Dy580 O585 2.491 . S
Dy580 O586 2.403 1_554 S
Dy580 O587 2.664 . S
Dy580 O591 2.326 . S
Dy580 O595 2.310 . S
Dy580 O596 2.351 . S
C581 O592 1.185 . S
C581 O593 1.355 . S
C582 O584 1.185 . S
C582 O585 1.355 . S
Dy583 O587 2.310 . S
Dy583 O590 2.351 . S
Dy583 O592 2.398 . S
Dy583 O593 2.491 . S
Dy583 O594 2.403 . S
Dy583 O595 2.664 . S
Dy583 O597 2.326 . S
O584 Dy580 2.398 . S
O584 C582 1.185 . S
O585 Dy580 2.491 . S
O585 C582 1.355 . S
O586 Dy580 2.403 1_556 S
O586 C588 1.254 . S
O587 Dy580 2.664 . S
O587 Dy583 2.310 . S
O587 C588 1.268 1_554 S
C588 O586 1.254 . S
C588 O587 1.268 1_556 S
C589 O594 1.254 . S
C589 O595 1.268 . S
O590 Dy583 2.351 . S
O590 C598 1.249 . S
O591 Dy580 2.326 . S
O591 C598 1.267 . S
O592 C581 1.185 . S
O592 Dy583 2.398 . S
O593 C581 1.355 . S
O593 Dy583 2.491 . S
O594 Dy583 2.403 . S
O594 C589 1.254 . S
O595 Dy580 2.310 . S
O595 Dy583 2.664 . S
O595 C589 1.268 . S
O596 Dy580 2.351 . S
O596 C599 1.249 . S
O597 Dy583 2.326 . S
O597 C599 1.267 . S
C598 O590 1.249 . S
C598 O591 1.267 . S
C599 O596 1.249 . S
C599 O597 1.267 . S
Dy600 O604 2.398 . S
Dy600 O605 2.491 . S
Dy600 O606 2.403 . S
Dy600 O607 2.664 . S
Dy600 O611 2.326 . S
Dy600 O615 2.310 . S
Dy600 O616 2.351 . S
C601 O612 1.185 . S
C601 O613 1.355 . S
C602 O604 1.185 . S
C602 O605 1.355 . S
Dy603 O607 2.310 . S
Dy603 O610 2.351 . S
Dy603 O612 2.398 . S
Dy603 O613 2.491 . S
Dy603 O614 2.403 . S
Dy603 O615 2.664 . S
Dy603 O617 2.326 . S
O604 Dy600 2.398 . S
O604 C602 1.185 . S
O605 Dy600 2.491 . S
O605 C602 1.355 . S
O606 Dy600 2.403 . S
O606 C608 1.254 . S
O607 Dy600 2.664 . S
O607 Dy603 2.310 . S
O607 C608 1.268 . S
C608 O606 1.254 . S
C608 O607 1.268 . S
C609 O614 1.254 . S
C609 O615 1.268 . S
O610 Dy603 2.351 . S
O610 C618 1.249 . S
O611 Dy600 2.326 . S
O611 C618 1.267 . S
O612 C601 1.185 . S
O612 Dy603 2.398 . S
O613 C601 1.355 . S
O613 Dy603 2.491 . S
O614 Dy603 2.403 . S
O614 C609 1.254 . S
O615 Dy600 2.310 . S
O615 Dy603 2.664 . S
O615 C609 1.268 . S
O616 Dy600 2.351 . S
O616 C619 1.249 . S
O617 Dy603 2.326 . S
O617 C619 1.267 . S
C618 O610 1.249 . S
C618 O611 1.267 . S
C619 O616 1.249 . S
C619 O617 1.267 . S
Dy620 O624 2.398 . S
Dy620 O625 2.491 . S
Dy620 O626 2.403 . S
Dy620 O627 2.664 . S
Dy620 O631 2.326 . S
Dy620 O635 2.310 . S
Dy620 O636 2.351 . S
C621 O632 1.185 . S
C621 O633 1.355 . S
C622 O624 1.185 . S
C622 O625 1.355 . S
Dy623 O627 2.310 . S
Dy623 O630 2.351 . S
Dy623 O632 2.398 . S
Dy623 O633 2.491 . S
Dy623 O634 2.403 . S
Dy623 O635 2.664 . S
Dy623 O637 2.326 . S
O624 Dy620 2.398 . S
O624 C622 1.185 . S
O625 Dy620 2.491 . S
O625 C622 1.355 . S
O626 Dy620 2.403 . S
O626 C628 1.254 . S
O627 Dy620 2.664 . S
O627 Dy623 2.310 . S
O627 C628 1.268 . S
C628 O626 1.254 . S
C628 O627 1.268 . S
C629 O634 1.254 . S
C629 O635 1.268 . S
O630 Dy623 2.351 . S
O630 C638 1.249 . S
O631 Dy620 2.326 . S
O631 C638 1.267 . S
O632 C621 1.185 . S
O632 Dy623 2.398 . S
O633 C621 1.355 . S
O633 Dy623 2.491 . S
O634 Dy623 2.403 . S
O634 C629 1.254 . S
O635 Dy620 2.310 . S
O635 Dy623 2.664 . S
O635 C629 1.268 . S
O636 Dy620 2.351 . S
O636 C639 1.249 . S
O637 Dy623 2.326 . S
O637 C639 1.267 . S
C638 O630 1.249 . S
C638 O631 1.267 . S
C639 O636 1.249 . S
C639 O637 1.267 . S
Dy640 O644 2.398 . S
Dy640 O645 2.491 . S
Dy640 O646 2.403 . S
Dy640 O647 2.664 . S
Dy640 O651 2.326 . S
Dy640 O655 2.310 . S
Dy640 O656 2.351 . S
C641 O652 1.185 . S
C641 O653 1.355 . S
C642 O644 1.185 . S
C642 O645 1.355 . S
Dy643 O647 2.310 . S
Dy643 O650 2.351 . S
Dy643 O652 2.398 . S
Dy643 O653 2.491 . S
Dy643 O654 2.403 . S
Dy643 O655 2.664 . S
Dy643 O657 2.326 . S
O644 Dy640 2.398 . S
O644 C642 1.185 . S
O645 Dy640 2.491 . S
O645 C642 1.355 . S
O646 Dy640 2.403 . S
O646 C648 1.254 . S
O647 Dy640 2.664 . S
O647 Dy643 2.310 . S
O647 C648 1.268 . S
C648 O646 1.254 . S
C648 O647 1.268 . S
C649 O654 1.254 . S
C649 O655 1.268 . S
O650 Dy643 2.351 . S
O650 C658 1.249 . S
O651 Dy640 2.326 . S
O651 C658 1.267 . S
O652 C641 1.185 . S
O652 Dy643 2.398 . S
O653 C641 1.355 . S
O653 Dy643 2.491 . S
O654 Dy643 2.403 . S
O654 C649 1.254 . S
O655 Dy640 2.310 . S
O655 Dy643 2.664 . S
O655 C649 1.268 . S
O656 Dy640 2.351 . S
O656 C659 1.249 . S
O657 Dy643 2.326 . S
O657 C659 1.267 . S
C658 O650 1.249 . S
C658 O651 1.267 . S
C659 O656 1.249 . S
C659 O657 1.267 . S
Dy660 O664 2.398 . S
Dy660 O665 2.491 . S
Dy660 O666 2.403 . S
Dy660 O667 2.664 . S
Dy660 O671 2.326 . S
Dy660 O675 2.310 . S
Dy660 O676 2.351 . S
C661 O672 1.185 . S
C661 O673 1.355 . S
C662 O664 1.185 . S
C662 O665 1.355 . S
Dy663 O667 2.310 . S
Dy663 O670 2.351 . S
Dy663 O672 2.398 . S
Dy663 O673 2.491 . S
Dy663 O674 2.403 . S
Dy663 O675 2.664 . S
Dy663 O677 2.326 . S
O664 Dy660 2.398 . S
O664 C662 1.185 . S
O665 Dy660 2.491 . S
O665 C662 1.355 . S
O666 Dy660 2.403 . S
O666 C668 1.254 . S
O667 Dy660 2.664 . S
O667 Dy663 2.310 . S
O667 C668 1.268 . S
C668 O666 1.254 . S
C668 O667 1.268 . S
C669 O674 1.254 . S
C669 O675 1.268 . S
O670 Dy663 2.351 . S
O670 C678 1.249 . S
O671 Dy660 2.326 . S
O671 C678 1.267 . S
O672 C661 1.185 . S
O672 Dy663 2.398 . S
O673 C661 1.355 . S
O673 Dy663 2.491 . S
O674 Dy663 2.403 . S
O674 C669 1.254 . S
O675 Dy660 2.310 . S
O675 Dy663 2.664 . S
O675 C669 1.268 . S
O676 Dy660 2.351 . S
O676 C679 1.249 . S
O677 Dy663 2.326 . S
O677 C679 1.267 . S
C678 O670 1.249 . S
C678 O671 1.267 . S
C679 O676 1.249 . S
C679 O677 1.267 . S
Dy680 O684 2.398 . S
Dy680 O685 2.491 . S
Dy680 O686 2.403 . S
Dy680 O687 2.664 . S
Dy680 O691 2.326 . S
Dy680 O695 2.310 . S
Dy680 O696 2.351 . S
C681 O692 1.185 . S
C681 O693 1.355 . S
C682 O684 1.185 . S
C682 O685 1.355 . S
Dy683 O687 2.310 . S
Dy683 O690 2.351 . S
Dy683 O692 2.398 . S
Dy683 O693 2.491 . S
Dy683 O694 2.403 . S
Dy683 O695 2.664 . S
Dy683 O697 2.326 . S
O684 Dy680 2.398 . S
O684 C682 1.185 . S
O685 Dy680 2.491 . S
O685 C682 1.355 . S
O686 Dy680 2.403 . S
O686 C688 1.254 . S
O687 Dy680 2.664 . S
O687 Dy683 2.310 . S
O687 C688 1.268 . S
C688 O686 1.254 . S
C688 O687 1.268 . S
C689 O694 1.254 . S
C689 O695 1.268 . S
O690 Dy683 2.351 . S
O690 C698 1.249 . S
O691 Dy680 2.326 . S
O691 C698 1.267 . S
O692 C681 1.185 . S
O692 Dy683 2.398 . S
O693 C681 1.355 . S
O693 Dy683 2.491 . S
O694 Dy683 2.403 . S
O694 C689 1.254 . S
O695 Dy680 2.310 . S
O695 Dy683 2.664 . S
O695 C689 1.268 . S
O696 Dy680 2.351 . S
O696 C699 1.249 . S
O697 Dy683 2.326 . S
O697 C699 1.267 . S
C698 O690 1.249 . S
C698 O691 1.267 . S
C699 O696 1.249 . S
C699 O697 1.267 . S
Dy700 O704 2.398 . S
Dy700 O705 2.491 . S
Dy700 O706 2.403 . S
Dy700 O707 2.664 . S
Dy700 O711 2.326 . S
Dy700 O715 2.310 . S
Dy700 O716 2.351 . S
C701 O712 1.185 . S
C701 O713 1.355 . S
C702 O704 1.185 . S
C702 O705 1.355 . S
Dy703 O707 2.310 . S
Dy703 O710 2.351 . S
Dy703 O712 2.398 . S
Dy703 O713 2.491 . S
Dy703 O714 2.403 . S
Dy703 O715 2.664 . S
Dy703 O717 2.326 . S
O704 Dy700 2.398 . S
O704 C702 1.185 . S
O705 Dy700 2.491 . S
O705 C702 1.355 . S
O706 Dy700 2.403 . S
O706 C708 1.254 . S
O707 Dy700 2.664 . S
O707 Dy703 2.310 . S
O707 C708 1.268 . S
C708 O706 1.254 . S
C708 O707 1.268 . S
C709 O714 1.254 . S
C709 O715 1.268 . S
O710 Dy703 2.351 . S
O710 C718 1.249 . S
O711 Dy700 2.326 . S
O711 C718 1.267 . S
O712 C701 1.185 . S
O712 Dy703 2.398 . S
O713 C701 1.355 . S
O713 Dy703 2.491 . S
O714 Dy703 2.403 . S
O714 C709 1.254 . S
O715 Dy700 2.310 . S
O715 Dy703 2.664 . S
O715 C709 1.268 . S
O716 Dy700 2.351 . S
O716 C719 1.249 . S
O717 Dy703 2.326 . S
O717 C719 1.267 . S
C718 O710 1.249 . S
C718 O711 1.267 . S
C719 O716 1.249 . S
C719 O717 1.267 . S
C2 C158 1.972 . S
C178 C22 1.972 . S
C138 C42 1.972 . S
C238 C62 1.972 . S
C82 C198 1.972 . S
C102 C218 1.972 . S
C39 C121 1.972 . S
C141 C59 1.972 . S
C19 C161 1.972 . S
C119 C181 1.972 . S
C201 C79 1.972 . S
C221 C99 1.972 . S
C242 C398 1.972 . S
C418 C262 1.972 . S
C378 C282 1.972 . S
C302 C478 1.972 . S
C438 C322 1.972 . S
C342 C458 1.972 . S
C361 C279 1.972 . S
C299 C381 1.972 . S
C401 C259 1.972 . S
C359 C421 1.972 . S
C319 C441 1.972 . S
C461 C339 1.972 . S
C482 C638 1.972 . S
C502 C658 1.972 . S
C618 C522 1.972 . S
C718 C542 1.972 . S
C562 C678 1.972 . S
C698 C582 1.972 . S
C519 C601 1.972 . S
C621 C539 1.972 . S
C499 C641 1.972 . S
C661 C599 1.972 . S
C681 C559 1.972 . S
C701 C579 1.972 . S
C18 C379 2.095 . S
C38 C399 2.096 . S
C419 C58 2.096 . S
C679 C78 2.096 . S
C699 C98 2.096 . S
C719 C118 2.096 . S
C139 C498 2.095 . S
C518 C159 2.096 . S
C179 C538 2.096 . S
C199 C318 2.096 . S
C219 C338 2.096 . S
C239 C358 2.096 . S
C258 C619 2.095 1_655 S
C639 C278 2.096 . S
C298 C659 2.096 1_545 S
C558 C439 2.096 1_564 S
C459 C578 2.096 1_656 S
C598 C479 2.096 1_554 S
C9 C329 1.956 . S
C29 C349 1.956 . S
C309 C49 1.956 . S
C69 C529 1.956 . S
C489 C89 1.956 . S
C109 C509 1.956 . S
C688 C128 1.956 . S
C148 C708 1.956 . S
C668 C168 1.956 . S
C188 C408 1.956 . S
C208 C368 1.956 . S
C228 C388 1.956 . S
C569 C249 1.956 1_455 S
C269 C589 1.956 . S
C289 C549 1.956 1_545 S
C648 C428 1.956 1_565 S
C608 C448 1.956 1_455 S
C628 C468 1.956 . S
C68 C8 2.640 . S
C28 C88 2.640 1_545 S
C48 C108 2.640 1_655 S
C189 C129 2.640 . S
C149 C209 2.640 1_565 S
C229 C169 2.640 1_655 S
C308 C248 2.640 . S
C268 C328 2.640 . S
C288 C348 2.640 . S
C369 C429 2.640 . S
C389 C449 2.640 . S
C409 C469 2.640 . S
C488 C548 2.640 . S
C568 C508 2.640 . S
C588 C528 2.640 . S
C609 C669 2.640 . S
C689 C629 2.640 . S
C649 C709 2.640 . S
C1 C581 0.602 . S
C541 C21 0.602 . S
C41 C561 0.602 . S
C261 C61 0.602 . S
C81 C281 0.602 . S
C101 C241 0.602 . S
C462 C122 0.602 . S
C142 C422 0.602 . S
C442 C162 0.602 . S
C182 C622 0.602 . S
C642 C202 0.602 . S
C602 C222 0.602 . S
C301 C501 0.602 1_655 S
C321 C521 0.602 . S
C341 C481 0.602 1_545 S
C362 C702 0.602 1_545 S
C382 C662 0.602 1_655 S
C682 C402 0.602 . S
