# Generated by pormake.
# Topology vda, (6)-cn, num edge types: 1
# Building blocks:
#     Node 0, Type 0, BuildingBlock: OJICUG_clean_sbu_0, # of connection points: 6
#     Node 1, Type 0, BuildingBlock: OJICUG_clean_sbu_0, # of connection points: 6
#     Node 2, Type 0, BuildingBlock: OJICUG_clean_sbu_0, # of connection points: 6
#     Node 3, Type 0, BuildingBlock: OJICUG_clean_sbu_0, # of connection points: 6
#     Node 4, Type 0, BuildingBlock: OJICUG_clean_sbu_0, # of connection points: 6
#     Node 5, Type 0, BuildingBlock: OJICUG_clean_sbu_0, # of connection points: 6
#     Node 6, Type 0, BuildingBlock: OJICUG_clean_sbu_0, # of connection points: 6
#     Node 7, Type 0, BuildingBlock: OJICUG_clean_sbu_0, # of connection points: 6
#     Node 8, Type 0, BuildingBlock: OJICUG_clean_sbu_0, # of connection points: 6
#     Node 9, Type 0, BuildingBlock: OJICUG_clean_sbu_0, # of connection points: 6
#     Node 10, Type 0, BuildingBlock: OJICUG_clean_sbu_0, # of connection points: 6
#     Node 11, Type 0, BuildingBlock: OJICUG_clean_sbu_0, # of connection points: 6
#     Node 12, Type 0, BuildingBlock: OJICUG_clean_sbu_0, # of connection points: 6
#     Node 13, Type 0, BuildingBlock: OJICUG_clean_sbu_0, # of connection points: 6
#     Node 14, Type 0, BuildingBlock: OJICUG_clean_sbu_0, # of connection points: 6
#     Node 15, Type 0, BuildingBlock: OJICUG_clean_sbu_0, # of connection points: 6
#     Node 16, Type 0, BuildingBlock: OJICUG_clean_sbu_0, # of connection points: 6
#     Node 17, Type 0, BuildingBlock: OJICUG_clean_sbu_0, # of connection points: 6
#     Node 18, Type 0, BuildingBlock: OJICUG_clean_sbu_0, # of connection points: 6
#     Node 19, Type 0, BuildingBlock: OJICUG_clean_sbu_0, # of connection points: 6
#     Node 20, Type 0, BuildingBlock: OJICUG_clean_sbu_0, # of connection points: 6
#     Node 21, Type 0, BuildingBlock: OJICUG_clean_sbu_0, # of connection points: 6
#     Node 22, Type 0, BuildingBlock: OJICUG_clean_sbu_0, # of connection points: 6
#     Node 23, Type 0, BuildingBlock: OJICUG_clean_sbu_0, # of connection points: 6
#     Node 24, Type 0, BuildingBlock: OJICUG_clean_sbu_0, # of connection points: 6
#     Node 25, Type 0, BuildingBlock: OJICUG_clean_sbu_0, # of connection points: 6
#     Node 26, Type 0, BuildingBlock: OJICUG_clean_sbu_0, # of connection points: 6
#     Node 27, Type 0, BuildingBlock: OJICUG_clean_sbu_0, # of connection points: 6
#     Node 28, Type 0, BuildingBlock: OJICUG_clean_sbu_0, # of connection points: 6
#     Node 29, Type 0, BuildingBlock: OJICUG_clean_sbu_0, # of connection points: 6
#     Node 30, Type 0, BuildingBlock: OJICUG_clean_sbu_0, # of connection points: 6
#     Node 31, Type 0, BuildingBlock: OJICUG_clean_sbu_0, # of connection points: 6
#     Edge 32, Type (0, 0), BuildingBlock: OJICUG_clean_linker_0, # of connection points: 2
#     Edge 33, Type (0, 0), BuildingBlock: OJICUG_clean_linker_0, # of connection points: 2
#     Edge 34, Type (0, 0), BuildingBlock: OJICUG_clean_linker_0, # of connection points: 2
#     Edge 35, Type (0, 0), BuildingBlock: OJICUG_clean_linker_0, # of connection points: 2
#     Edge 36, Type (0, 0), BuildingBlock: OJICUG_clean_linker_0, # of connection points: 2
#     Edge 37, Type (0, 0), BuildingBlock: OJICUG_clean_linker_0, # of connection points: 2
#     Edge 38, Type (0, 0), BuildingBlock: OJICUG_clean_linker_0, # of connection points: 2
#     Edge 39, Type (0, 0), BuildingBlock: OJICUG_clean_linker_0, # of connection points: 2
#     Edge 40, Type (0, 0), BuildingBlock: OJICUG_clean_linker_0, # of connection points: 2
#     Edge 41, Type (0, 0), BuildingBlock: OJICUG_clean_linker_0, # of connection points: 2
#     Edge 42, Type (0, 0), BuildingBlock: OJICUG_clean_linker_0, # of connection points: 2
#     Edge 43, Type (0, 0), BuildingBlock: OJICUG_clean_linker_0, # of connection points: 2
#     Edge 44, Type (0, 0), BuildingBlock: OJICUG_clean_linker_0, # of connection points: 2
#     Edge 45, Type (0, 0), BuildingBlock: OJICUG_clean_linker_0, # of connection points: 2
#     Edge 46, Type (0, 0), BuildingBlock: OJICUG_clean_linker_0, # of connection points: 2
#     Edge 47, Type (0, 0), BuildingBlock: OJICUG_clean_linker_0, # of connection points: 2
#     Edge 48, Type (0, 0), BuildingBlock: OJICUG_clean_linker_0, # of connection points: 2
#     Edge 49, Type (0, 0), BuildingBlock: OJICUG_clean_linker_0, # of connection points: 2
#     Edge 50, Type (0, 0), BuildingBlock: OJICUG_clean_linker_0, # of connection points: 2
#     Edge 51, Type (0, 0), BuildingBlock: OJICUG_clean_linker_0, # of connection points: 2
#     Edge 52, Type (0, 0), BuildingBlock: OJICUG_clean_linker_0, # of connection points: 2
#     Edge 53, Type (0, 0), BuildingBlock: OJICUG_clean_linker_0, # of connection points: 2
#     Edge 54, Type (0, 0), BuildingBlock: OJICUG_clean_linker_0, # of connection points: 2
#     Edge 55, Type (0, 0), BuildingBlock: OJICUG_clean_linker_0, # of connection points: 2
#     Edge 56, Type (0, 0), BuildingBlock: OJICUG_clean_linker_0, # of connection points: 2
#     Edge 57, Type (0, 0), BuildingBlock: OJICUG_clean_linker_0, # of connection points: 2
#     Edge 58, Type (0, 0), BuildingBlock: OJICUG_clean_linker_0, # of connection points: 2
#     Edge 59, Type (0, 0), BuildingBlock: OJICUG_clean_linker_0, # of connection points: 2
#     Edge 60, Type (0, 0), BuildingBlock: OJICUG_clean_linker_0, # of connection points: 2
#     Edge 61, Type (0, 0), BuildingBlock: OJICUG_clean_linker_0, # of connection points: 2
#     Edge 62, Type (0, 0), BuildingBlock: OJICUG_clean_linker_0, # of connection points: 2
#     Edge 63, Type (0, 0), BuildingBlock: OJICUG_clean_linker_0, # of connection points: 2
#     Edge 64, Type (0, 0), BuildingBlock: OJICUG_clean_linker_0, # of connection points: 2
#     Edge 65, Type (0, 0), BuildingBlock: OJICUG_clean_linker_0, # of connection points: 2
#     Edge 66, Type (0, 0), BuildingBlock: OJICUG_clean_linker_0, # of connection points: 2
#     Edge 67, Type (0, 0), BuildingBlock: OJICUG_clean_linker_0, # of connection points: 2
#     Edge 68, Type (0, 0), BuildingBlock: OJICUG_clean_linker_0, # of connection points: 2
#     Edge 69, Type (0, 0), BuildingBlock: OJICUG_clean_linker_0, # of connection points: 2
#     Edge 70, Type (0, 0), BuildingBlock: OJICUG_clean_linker_0, # of connection points: 2
#     Edge 71, Type (0, 0), BuildingBlock: OJICUG_clean_linker_0, # of connection points: 2
#     Edge 72, Type (0, 0), BuildingBlock: OJICUG_clean_linker_0, # of connection points: 2
#     Edge 73, Type (0, 0), BuildingBlock: OJICUG_clean_linker_0, # of connection points: 2
#     Edge 74, Type (0, 0), BuildingBlock: OJICUG_clean_linker_0, # of connection points: 2
#     Edge 75, Type (0, 0), BuildingBlock: OJICUG_clean_linker_0, # of connection points: 2
#     Edge 76, Type (0, 0), BuildingBlock: OJICUG_clean_linker_0, # of connection points: 2
#     Edge 77, Type (0, 0), BuildingBlock: OJICUG_clean_linker_0, # of connection points: 2
#     Edge 78, Type (0, 0), BuildingBlock: OJICUG_clean_linker_0, # of connection points: 2
#     Edge 79, Type (0, 0), BuildingBlock: OJICUG_clean_linker_0, # of connection points: 2
#     Edge 80, Type (0, 0), BuildingBlock: OJICUG_clean_linker_0, # of connection points: 2
#     Edge 81, Type (0, 0), BuildingBlock: OJICUG_clean_linker_0, # of connection points: 2
#     Edge 82, Type (0, 0), BuildingBlock: OJICUG_clean_linker_0, # of connection points: 2
#     Edge 83, Type (0, 0), BuildingBlock: OJICUG_clean_linker_0, # of connection points: 2
#     Edge 84, Type (0, 0), BuildingBlock: OJICUG_clean_linker_0, # of connection points: 2
#     Edge 85, Type (0, 0), BuildingBlock: OJICUG_clean_linker_0, # of connection points: 2
#     Edge 86, Type (0, 0), BuildingBlock: OJICUG_clean_linker_0, # of connection points: 2
#     Edge 87, Type (0, 0), BuildingBlock: OJICUG_clean_linker_0, # of connection points: 2
#     Edge 88, Type (0, 0), BuildingBlock: OJICUG_clean_linker_0, # of connection points: 2
#     Edge 89, Type (0, 0), BuildingBlock: OJICUG_clean_linker_0, # of connection points: 2
#     Edge 90, Type (0, 0), BuildingBlock: OJICUG_clean_linker_0, # of connection points: 2
#     Edge 91, Type (0, 0), BuildingBlock: OJICUG_clean_linker_0, # of connection points: 2
#     Edge 92, Type (0, 0), BuildingBlock: OJICUG_clean_linker_0, # of connection points: 2
#     Edge 93, Type (0, 0), BuildingBlock: OJICUG_clean_linker_0, # of connection points: 2
#     Edge 94, Type (0, 0), BuildingBlock: OJICUG_clean_linker_0, # of connection points: 2
#     Edge 95, Type (0, 0), BuildingBlock: OJICUG_clean_linker_0, # of connection points: 2
#     Edge 96, Type (0, 0), BuildingBlock: OJICUG_clean_linker_0, # of connection points: 2
#     Edge 97, Type (0, 0), BuildingBlock: OJICUG_clean_linker_0, # of connection points: 2
#     Edge 98, Type (0, 0), BuildingBlock: OJICUG_clean_linker_0, # of connection points: 2
#     Edge 99, Type (0, 0), BuildingBlock: OJICUG_clean_linker_0, # of connection points: 2
#     Edge 100, Type (0, 0), BuildingBlock: OJICUG_clean_linker_0, # of connection points: 2
#     Edge 101, Type (0, 0), BuildingBlock: OJICUG_clean_linker_0, # of connection points: 2
#     Edge 102, Type (0, 0), BuildingBlock: OJICUG_clean_linker_0, # of connection points: 2
#     Edge 103, Type (0, 0), BuildingBlock: OJICUG_clean_linker_0, # of connection points: 2
#     Edge 104, Type (0, 0), BuildingBlock: OJICUG_clean_linker_0, # of connection points: 2
#     Edge 105, Type (0, 0), BuildingBlock: OJICUG_clean_linker_0, # of connection points: 2
#     Edge 106, Type (0, 0), BuildingBlock: OJICUG_clean_linker_0, # of connection points: 2
#     Edge 107, Type (0, 0), BuildingBlock: OJICUG_clean_linker_0, # of connection points: 2
#     Edge 108, Type (0, 0), BuildingBlock: OJICUG_clean_linker_0, # of connection points: 2
#     Edge 109, Type (0, 0), BuildingBlock: OJICUG_clean_linker_0, # of connection points: 2
#     Edge 110, Type (0, 0), BuildingBlock: OJICUG_clean_linker_0, # of connection points: 2
#     Edge 111, Type (0, 0), BuildingBlock: OJICUG_clean_linker_0, # of connection points: 2
#     Edge 112, Type (0, 0), BuildingBlock: OJICUG_clean_linker_0, # of connection points: 2
#     Edge 113, Type (0, 0), BuildingBlock: OJICUG_clean_linker_0, # of connection points: 2
#     Edge 114, Type (0, 0), BuildingBlock: OJICUG_clean_linker_0, # of connection points: 2
#     Edge 115, Type (0, 0), BuildingBlock: OJICUG_clean_linker_0, # of connection points: 2
#     Edge 116, Type (0, 0), BuildingBlock: OJICUG_clean_linker_0, # of connection points: 2
#     Edge 117, Type (0, 0), BuildingBlock: OJICUG_clean_linker_0, # of connection points: 2
#     Edge 118, Type (0, 0), BuildingBlock: OJICUG_clean_linker_0, # of connection points: 2
#     Edge 119, Type (0, 0), BuildingBlock: OJICUG_clean_linker_0, # of connection points: 2
#     Edge 120, Type (0, 0), BuildingBlock: OJICUG_clean_linker_0, # of connection points: 2
#     Edge 121, Type (0, 0), BuildingBlock: OJICUG_clean_linker_0, # of connection points: 2
#     Edge 122, Type (0, 0), BuildingBlock: OJICUG_clean_linker_0, # of connection points: 2
#     Edge 123, Type (0, 0), BuildingBlock: OJICUG_clean_linker_0, # of connection points: 2
#     Edge 124, Type (0, 0), BuildingBlock: OJICUG_clean_linker_0, # of connection points: 2
#     Edge 125, Type (0, 0), BuildingBlock: OJICUG_clean_linker_0, # of connection points: 2
#     Edge 126, Type (0, 0), BuildingBlock: OJICUG_clean_linker_0, # of connection points: 2
#     Edge 127, Type (0, 0), BuildingBlock: OJICUG_clean_linker_0, # of connection points: 2
# Relax obj value: 0.394
# Max RMSD: 0.262
# Mean RMSD: 0.262
data_MOF--net-vda--node1-OJICUG_clean_sbu_0--edge1-OJICUG_clean_linker_0
_symmetry_space_group_name_H-M    P1
_symmetry_Int_Tables_number       1
_symmetry_cell_setting            triclinic
loop_
_symmetry_equiv_pos_as_xyz
'x, y, z'
_cell_length_a     38.857134
_cell_length_b     25.328267
_cell_length_c     45.816262
_cell_angle_alpha  90.000079
_cell_angle_beta   89.998724
_cell_angle_gamma 89.99949
loop_
_atom_site_label
_atom_site_type_symbol
_atom_site_fract_x
_atom_site_fract_y
_atom_site_fract_z
_atom_type_partial_charge
Sc0 Sc 0.37687 0.05648 0.98179 0.0
Sc1 Sc 0.41096 0.09939 0.0462 0.0
Sc2 Sc 0.34991 0.17613 0.0113 0.0
O3 O 0.3788 0.11105 0.01294 0.0
C4 C 0.37815 0.16085 0.94535 0.0
C5 C 0.457 0.0588 0.99999 0.0
C6 C 0.41941 0.22173 0.03705 0.0
C7 C 0.38499 0.98287 0.03324 0.0
C8 C 0.2975 0.09052 0.98731 0.0
C9 C 0.34357 0.13141 0.07707 0.0
O10 O 0.38977 0.11466 0.94992 0.0
O11 O 0.45301 0.09807 0.01678 0.0
O12 O 0.3959 0.2255 0.0177 0.0
O13 O 0.36436 -0.00307 0.01322 0.0
O14 O 0.3032 0.12973 1.00414 0.0
O15 O 0.36828 0.09911 0.07439 0.0
O16 O 0.32185 0.06641 0.97416 0.0
O17 O 0.40722 0.01421 0.04388 0.0
O18 O 0.33803 0.16907 0.05877 0.0
O19 O 0.43142 0.03711 0.98717 0.0
O20 O 0.35918 0.18569 0.96378 0.0
O21 O 0.42071 0.18223 0.05407 0.0
Sc22 Sc 0.93541 0.0667 0.01122 0.0
Sc23 Sc 0.87447 0.14341 0.04628 0.0
Sc24 Sc 0.90846 0.18646 0.98186 0.0
O25 O 0.90655 0.1318 0.01297 0.0
C26 C 0.98782 0.15234 0.98727 0.0
C27 C 0.9419 0.11119 0.07702 0.0
C28 C 0.90044 0.25995 0.03337 0.0
C29 C 0.86592 0.02113 0.037 0.0
C30 C 0.9071 0.08222 0.94532 0.0
C31 C 0.82834 0.18413 1.00015 0.0
O32 O 0.98213 0.11308 1.00407 0.0
O33 O 0.91722 0.14356 0.0744 0.0
O34 O 0.92104 0.24591 0.01333 0.0
O35 O 0.88939 0.01739 0.01761 0.0
O36 O 0.89549 0.12839 0.94995 0.0
O37 O 0.83234 0.14487 0.01694 0.0
O38 O 0.92609 0.05731 0.9637 0.0
O39 O 0.86471 0.06055 0.05409 0.0
O40 O 0.85392 0.20582 0.98731 0.0
O41 O 0.94735 0.07356 0.05868 0.0
O42 O 0.96346 0.17651 0.97417 0.0
O43 O 0.87822 0.2286 0.04403 0.0
Sc44 Sc 0.37715 0.18608 0.2895 0.0
Sc45 Sc 0.41116 0.14302 0.22509 0.0
Sc46 Sc 0.35018 0.06633 0.26012 0.0
O47 O 0.37906 0.13142 0.25839 0.0
C48 C 0.37848 0.08183 0.32604 0.0
C49 C 0.45727 0.1837 0.27123 0.0
C50 C 0.41966 0.02072 0.23433 0.0
C51 C 0.38522 0.25957 0.23799 0.0
C52 C 0.29779 0.15199 0.28408 0.0
C53 C 0.34372 0.11091 0.19433 0.0
O54 O 0.39009 0.128 0.32142 0.0
O55 O 0.45327 0.14443 0.25444 0.0
O56 O 0.39618 0.01699 0.25371 0.0
O57 O 0.36461 0.24554 0.25803 0.0
O58 O 0.30348 0.11273 0.26728 0.0
O59 O 0.36842 0.14323 0.19695 0.0
O60 O 0.32215 0.17617 0.29718 0.0
O61 O 0.40744 0.22821 0.22735 0.0
O62 O 0.33824 0.07327 0.21266 0.0
O63 O 0.4317 0.20541 0.28406 0.0
O64 O 0.3595 0.05692 0.30764 0.0
O65 O 0.4209 0.06016 0.21726 0.0
Sc66 Sc 0.93567 0.17568 0.2601 0.0
Sc67 Sc 0.87468 0.09895 0.22512 0.0
Sc68 Sc 0.90869 0.05599 0.28955 0.0
O69 O 0.90679 0.11059 0.25841 0.0
C70 C 0.98805 0.09005 0.28409 0.0
C71 C 0.94207 0.13111 0.19431 0.0
C72 C 0.90065 0.98243 0.23806 0.0
C73 C 0.86617 0.22127 0.23434 0.0
C74 C 0.90738 0.1603 0.32602 0.0
C75 C 0.82858 0.05828 0.27127 0.0
O76 O 0.98237 0.12926 0.26726 0.0
O77 O 0.9174 0.09875 0.19696 0.0
O78 O 0.92125 -0.00352 0.2581 0.0
O79 O 0.88967 0.22502 0.2537 0.0
O80 O 0.89574 0.11413 0.32142 0.0
O81 O 0.83258 0.09755 0.25449 0.0
O82 O 0.92638 0.18514 0.30762 0.0
O83 O 0.86491 0.18181 0.21728 0.0
O84 O 0.85415 0.0366 0.28411 0.0
O85 O 0.94757 0.16874 0.21264 0.0
O86 O 0.9637 0.06594 0.29722 0.0
O87 O 0.87843 0.01377 0.2274 0.0
Sc88 Sc 0.68539 0.8168 1.01 0.0
Sc89 Sc 0.62434 0.89351 0.97506 0.0
Sc90 Sc 0.65838 0.93645 0.03949 0.0
O91 O 0.65648 0.88187 1.00834 0.0
C92 C 0.65713 0.8321 0.07594 0.0
C93 C 0.6159 0.77117 0.98423 0.0
C94 C 0.57826 0.93409 0.02124 0.0
C95 C 0.69176 0.8615 0.94423 0.0
C96 C 0.73776 0.90245 0.03401 0.0
C97 C 0.65028 0.01004 0.98802 0.0
O98 O 0.67611 0.80727 0.05752 0.0
O99 O 0.61461 0.81066 0.96719 0.0
O100 O 0.60383 0.95578 0.03408 0.0
O101 O 0.69729 0.82385 0.96254 0.0
O102 O 0.7134 0.92656 0.04714 0.0
O103 O 0.62806 0.97869 0.97737 0.0
O104 O 0.73208 0.86323 0.01718 0.0
O105 O 0.66705 0.89379 0.94689 0.0
O106 O 0.67089 0.996 1.00805 0.0
O107 O 0.6394 0.76743 1.00359 0.0
O108 O 0.64548 0.87827 0.07137 0.0
O109 O 0.58227 0.89483 1.00446 0.0
Sc110 Sc 0.12687 0.80635 0.03955 0.0
Sc111 Sc 0.16085 0.84943 0.97513 0.0
Sc112 Sc 0.09992 0.92613 1.01021 0.0
O113 O 0.12877 0.86103 1.00845 0.0
C114 C 0.04752 0.8405 0.03418 0.0
C115 C 0.13485 0.73289 0.98802 0.0
C116 C 0.09344 0.8817 0.94439 0.0
C117 C 0.20697 0.80864 0.02123 0.0
C118 C 0.12826 0.91056 0.0761 0.0
C119 C 0.16939 0.97174 0.98441 0.0
O120 O 0.07188 0.81632 0.04727 0.0
O121 O 0.15708 0.76424 0.97736 0.0
O122 O 0.08796 0.9193 0.96275 0.0
O123 O 0.18141 0.78694 0.03407 0.0
O124 O 0.10926 0.93549 0.05773 0.0
O125 O 0.17063 0.93229 0.96734 0.0
O126 O 0.13987 0.86439 0.07146 0.0
O127 O 0.20297 0.84794 1.00447 0.0
O128 O 0.14592 0.97546 1.0038 0.0
O129 O 0.11426 0.74693 1.00807 0.0
O130 O 0.0532 0.87975 0.01737 0.0
O131 O 0.1181 0.84932 0.947 0.0
Sc132 Sc 0.68539 0.92658 0.76122 0.0
Sc133 Sc 0.6244 0.84988 0.79621 0.0
Sc134 Sc 0.65845 0.80684 0.73181 0.0
O135 O 0.65652 0.86149 0.76292 0.0
C136 C 0.65714 0.9111 0.69528 0.0
C137 C 0.6159 0.97219 0.78698 0.0
C138 C 0.57832 0.80918 0.75005 0.0
C139 C 0.6918 0.88201 0.82701 0.0
C140 C 0.7378 0.84093 0.73727 0.0
C141 C 0.65036 0.73334 0.78331 0.0
O142 O 0.6761 0.93601 0.71369 0.0
O143 O 0.61464 0.93273 0.80404 0.0
O144 O 0.6039 0.78749 0.73723 0.0
O145 O 0.6973 0.91965 0.80868 0.0
O146 O 0.71346 0.81677 0.72416 0.0
O147 O 0.62813 0.76469 0.79395 0.0
O148 O 0.7321 0.88019 0.75407 0.0
O149 O 0.66711 0.84967 0.82436 0.0
O150 O 0.67098 0.74737 0.76328 0.0
O151 O 0.63939 0.97592 0.76761 0.0
O152 O 0.64552 0.86493 0.69989 0.0
O153 O 0.58231 0.84847 0.76683 0.0
Sc154 Sc 0.12686 0.93689 0.73189 0.0
Sc155 Sc 0.16089 0.89388 0.7963 0.0
Sc156 Sc 0.09989 0.81717 0.76131 0.0
O157 O 0.12877 0.88226 0.76302 0.0
C158 C 0.0475 0.9028 0.73732 0.0
C159 C 0.1349 0.01041 0.78338 0.0
C160 C 0.09349 0.86171 0.82711 0.0
C161 C 0.20697 0.9346 0.75015 0.0
C162 C 0.12821 0.83259 0.69539 0.0
C163 C 0.1694 0.77156 0.78706 0.0
O164 O 0.07186 0.92694 0.7242 0.0
O165 O 0.15712 0.97906 0.79404 0.0
O166 O 0.08797 0.82411 0.80877 0.0
O167 O 0.1814 0.95629 0.73732 0.0
O168 O 0.10922 0.80771 0.71379 0.0
O169 O 0.17068 0.81103 0.80412 0.0
O170 O 0.13982 0.87877 0.7 0.0
O171 O 0.20298 0.89532 0.76692 0.0
O172 O 0.14589 0.76782 0.76771 0.0
O173 O 0.1143 0.99637 0.76334 0.0
O174 O 0.05319 0.86357 0.75414 0.0
O175 O 0.11818 0.89404 0.82447 0.0
Sc176 Sc 0.37704 0.5564 0.4818 0.0
Sc177 Sc 0.41102 0.59949 0.54621 0.0
Sc178 Sc 0.35009 0.67618 0.51114 0.0
O179 O 0.37895 0.61108 0.51289 0.0
C180 C 0.3784 0.66061 0.44524 0.0
C181 C 0.45716 0.55874 0.50009 0.0
C182 C 0.41957 0.72178 0.53692 0.0
C183 C 0.38506 0.48295 0.53333 0.0
C184 C 0.29769 0.59052 0.4872 0.0
C185 C 0.3436 0.63173 0.57694 0.0
O186 O 0.39002 0.61444 0.44987 0.0
O187 O 0.45315 0.59801 0.51688 0.0
O188 O 0.3961 0.7255 0.51753 0.0
O189 O 0.36446 0.49698 0.51328 0.0
O190 O 0.30338 0.62979 0.504 0.0
O191 O 0.36827 0.59935 0.57433 0.0
O192 O 0.32204 0.56635 0.4741 0.0
O193 O 0.40728 0.5143 0.54398 0.0
O194 O 0.33815 0.66936 0.5586 0.0
O195 O 0.43158 0.53704 0.48726 0.0
O196 O 0.35941 0.68553 0.46362 0.0
O197 O 0.42078 0.68236 0.55401 0.0
Sc198 Sc 0.9356 0.56678 0.5114 0.0
Sc199 Sc 0.87455 0.6435 0.54633 0.0
Sc200 Sc 0.90863 0.68646 0.48192 0.0
O201 O 0.9067 0.63186 0.51307 0.0
C202 C 0.98799 0.6524 0.48742 0.0
C203 C 0.94194 0.61145 0.57719 0.0
C204 C 0.90053 0.76003 0.5334 0.0
C205 C 0.86608 0.52117 0.53714 0.0
C206 C 0.90734 0.58212 0.44546 0.0
C207 C 0.8285 0.68414 0.50014 0.0
O208 O 0.9823 0.61319 0.50424 0.0
O209 O 0.91723 0.64374 0.57452 0.0
O210 O 0.92115 0.74598 0.51337 0.0
O211 O 0.8896 0.51742 0.5178 0.0
O212 O 0.89572 0.6283 0.45004 0.0
O213 O 0.83249 0.64487 0.51693 0.0
O214 O 0.92631 0.55726 0.46388 0.0
O215 O 0.86479 0.56066 0.55418 0.0
O216 O 0.85408 0.70583 0.48732 0.0
O217 O 0.94748 0.5738 0.55887 0.0
O218 O 0.96365 0.67653 0.47428 0.0
O219 O 0.8783 0.72868 0.54404 0.0
Sc220 Sc 0.37688 0.68686 0.78948 0.0
Sc221 Sc 0.4109 0.64392 0.72504 0.0
Sc222 Sc 0.3499 0.56718 0.76001 0.0
O223 O 0.37878 0.63227 0.75833 0.0
C224 C 0.37819 0.58252 0.82593 0.0
C225 C 0.457 0.68457 0.7712 0.0
C226 C 0.41941 0.52161 0.73425 0.0
C227 C 0.38493 0.76044 0.73801 0.0
C228 C 0.29752 0.6528 0.78402 0.0
C229 C 0.3435 0.61179 0.69423 0.0
O230 O 0.38983 0.62869 0.82134 0.0
O231 O 0.453 0.64531 0.75441 0.0
O232 O 0.39591 0.51785 0.75361 0.0
O233 O 0.36433 0.74638 0.75805 0.0
O234 O 0.3032 0.61359 0.76718 0.0
O235 O 0.36818 0.64414 0.69689 0.0
O236 O 0.32188 0.6769 0.79715 0.0
O237 O 0.40715 0.7291 0.72734 0.0
O238 O 0.33801 0.57415 0.71255 0.0
O239 O 0.43142 0.70624 0.78405 0.0
O240 O 0.35919 0.55769 0.80753 0.0
O241 O 0.42067 0.56107 0.7172 0.0
Sc242 Sc 0.93538 0.67656 0.76022 0.0
Sc243 Sc 0.8744 0.59985 0.72522 0.0
Sc244 Sc 0.90841 0.55684 0.78964 0.0
O245 O 0.90651 0.61147 0.75851 0.0
C246 C 0.98778 0.59091 0.7842 0.0
C247 C 0.94183 0.63193 0.69444 0.0
C248 C 0.90035 0.48331 0.73815 0.0
C249 C 0.86591 0.72216 0.73442 0.0
C250 C 0.90709 0.66112 0.82615 0.0
C251 C 0.82829 0.55921 0.77137 0.0
O252 O 0.98209 0.63017 0.76739 0.0
O253 O 0.91714 0.59961 0.69708 0.0
O254 O 0.92096 0.49735 0.75818 0.0
O255 O 0.88939 0.7259 0.75381 0.0
O256 O 0.89548 0.61495 0.82154 0.0
O257 O 0.8323 0.59848 0.75459 0.0
O258 O 0.92606 0.68602 0.80774 0.0
O259 O 0.86467 0.6827 0.71736 0.0
O260 O 0.85386 0.53751 0.78421 0.0
O261 O 0.94732 0.66959 0.71276 0.0
O262 O 0.96342 0.56676 0.79731 0.0
O263 O 0.87812 0.51466 0.7275 0.0
Sc264 Sc 0.6856 0.31676 0.51016 0.0
Sc265 Sc 0.62467 0.39347 0.47509 0.0
Sc266 Sc 0.65864 0.43654 0.53951 0.0
O267 O 0.65674 0.38187 0.5084 0.0
C268 C 0.65726 0.33231 0.57606 0.0
C269 C 0.61612 0.27117 0.48437 0.0
C270 C 0.57854 0.43424 0.5212 0.0
C271 C 0.69208 0.3612 0.44434 0.0
C272 C 0.73799 0.40239 0.53413 0.0
C273 C 0.65065 0.51 0.48799 0.0
O274 O 0.67626 0.3074 0.55768 0.0
O275 O 0.61489 0.31061 0.46729 0.0
O276 O 0.6041 0.45593 0.53404 0.0
O277 O 0.69755 0.3236 0.4627 0.0
O278 O 0.71363 0.42656 0.54723 0.0
O279 O 0.62844 0.47866 0.47733 0.0
O280 O 0.73231 0.36314 0.51732 0.0
O281 O 0.66742 0.39359 0.44696 0.0
O282 O 0.67125 0.49596 0.50804 0.0
O283 O 0.63959 0.26745 0.50376 0.0
O284 O 0.64564 0.37848 0.57142 0.0
O285 O 0.58254 0.39495 0.50442 0.0
Sc286 Sc 0.12711 0.30645 0.53958 0.0
Sc287 Sc 0.16116 0.34938 0.47516 0.0
Sc288 Sc 0.10011 0.42609 0.51008 0.0
O289 O 0.12901 0.36103 0.50842 0.0
C290 C 0.04773 0.34045 0.53408 0.0
C291 C 0.13523 0.23285 0.48813 0.0
C292 C 0.09376 0.38137 0.44431 0.0
C293 C 0.20724 0.30882 0.52134 0.0
C294 C 0.12835 0.41081 0.57603 0.0
C295 C 0.1696 0.47172 0.48431 0.0
O296 O 0.07209 0.31634 0.54722 0.0
O297 O 0.15745 0.2642 0.47747 0.0
O298 O 0.08822 0.41903 0.46262 0.0
O299 O 0.18167 0.28713 0.53418 0.0
O300 O 0.10938 0.43564 0.5576 0.0
O301 O 0.17088 0.43222 0.46727 0.0
O302 O 0.14 0.36464 0.57146 0.0
O303 O 0.20323 0.34809 0.50456 0.0
O304 O 0.1461 0.47547 0.50367 0.0
O305 O 0.11461 0.24689 0.50815 0.0
O306 O 0.05342 0.37967 0.51725 0.0
O307 O 0.11846 0.34907 0.44698 0.0
Sc308 Sc 0.68568 0.42572 0.26125 0.0
Sc309 Sc 0.62468 0.349 0.29623 0.0
Sc310 Sc 0.65872 0.306 0.23182 0.0
O311 O 0.65681 0.36062 0.26295 0.0
C312 C 0.65738 0.4103 0.19533 0.0
C313 C 0.61617 0.47132 0.287 0.0
C314 C 0.57861 0.30829 0.25008 0.0
C315 C 0.69207 0.38117 0.32706 0.0
C316 C 0.73808 0.34009 0.23727 0.0
C317 C 0.65068 0.23247 0.28331 0.0
O318 O 0.67637 0.43518 0.21373 0.0
O319 O 0.61489 0.43185 0.30406 0.0
O320 O 0.60418 0.2866 0.23725 0.0
O321 O 0.69759 0.41877 0.30871 0.0
O322 O 0.71373 0.31595 0.22414 0.0
O323 O 0.62845 0.26381 0.29397 0.0
O324 O 0.73239 0.37931 0.25409 0.0
O325 O 0.66738 0.34883 0.32441 0.0
O326 O 0.67128 0.24651 0.26327 0.0
O327 O 0.63968 0.47506 0.26765 0.0
O328 O 0.64577 0.36412 0.19993 0.0
O329 O 0.5826 0.34757 0.26685 0.0
Sc330 Sc 0.12711 0.43603 0.23188 0.0
Sc331 Sc 0.16116 0.393 0.29628 0.0
Sc332 Sc 0.10016 0.31629 0.26129 0.0
O333 O 0.12904 0.38139 0.26299 0.0
C334 C 0.04775 0.40194 0.23735 0.0
C335 C 0.1352 0.50954 0.28338 0.0
C336 C 0.09375 0.36086 0.32708 0.0
C337 C 0.20724 0.43368 0.25012 0.0
C338 C 0.1284 0.33178 0.19535 0.0
C339 C 0.16966 0.27069 0.28704 0.0
O340 O 0.0721 0.42611 0.22423 0.0
O341 O 0.15743 0.47818 0.29402 0.0
O342 O 0.08826 0.32322 0.30875 0.0
O343 O 0.18166 0.45537 0.23729 0.0
O344 O 0.10944 0.30687 0.21376 0.0
O345 O 0.1709 0.31014 0.30411 0.0
O346 O 0.14003 0.37794 0.19996 0.0
O347 O 0.20325 0.39441 0.2669 0.0
O348 O 0.14617 0.26696 0.26767 0.0
O349 O 0.11458 0.4955 0.26335 0.0
O350 O 0.05345 0.36268 0.25415 0.0
O351 O 0.11844 0.39321 0.32443 0.0
Sc352 Sc 0.87708 0.05636 0.4819 0.0
Sc353 Sc 0.91103 0.09946 0.54633 0.0
Sc354 Sc 0.85011 0.17615 0.51123 0.0
O355 O 0.87897 0.11105 0.513 0.0
C356 C 0.87845 0.16057 0.44534 0.0
C357 C 0.95719 0.0587 0.50022 0.0
C358 C 0.91959 0.22174 0.53702 0.0
C359 C 0.88507 0.98292 0.53343 0.0
C360 C 0.79772 0.0905 0.48727 0.0
C361 C 0.8436 0.13172 0.57704 0.0
O362 O 0.89007 0.11441 0.44998 0.0
O363 O 0.95318 0.09797 0.51701 0.0
O364 O 0.89613 0.22546 0.51763 0.0
O365 O 0.86448 -0.00306 0.51338 0.0
O366 O 0.8034 0.12976 0.50407 0.0
O367 O 0.86826 0.09933 0.57443 0.0
O368 O 0.82209 0.06632 0.47419 0.0
O369 O 0.90728 0.01427 0.5441 0.0
O370 O 0.83815 0.16934 0.55868 0.0
O371 O 0.93162 0.037 0.48738 0.0
O372 O 0.85945 0.18549 0.46371 0.0
O373 O 0.92079 0.18233 0.55412 0.0
Sc374 Sc 0.4356 0.06681 0.51131 0.0
Sc375 Sc 0.37455 0.14353 0.54623 0.0
Sc376 Sc 0.40862 0.18646 0.48181 0.0
O377 O 0.4067 0.13188 0.51297 0.0
C378 C 0.48798 0.15244 0.48731 0.0
C379 C 0.44194 0.11152 0.57708 0.0
C380 C 0.4005 0.26005 0.53327 0.0
C381 C 0.36611 0.02118 0.53707 0.0
C382 C 0.40735 0.08211 0.44536 0.0
C383 C 0.32849 0.18412 0.50004 0.0
O384 O 0.48229 0.11323 0.50414 0.0
O385 O 0.41724 0.14381 0.57441 0.0
O386 O 0.42113 0.24601 0.51325 0.0
O387 O 0.38962 0.01743 0.51772 0.0
O388 O 0.39571 0.12828 0.44994 0.0
O389 O 0.33249 0.14484 0.51682 0.0
O390 O 0.42632 0.05727 0.46379 0.0
O391 O 0.36481 0.06068 0.5541 0.0
O392 O 0.35406 0.20582 0.48721 0.0
O393 O 0.44748 0.07386 0.55877 0.0
O394 O 0.46363 0.17655 0.47417 0.0
O395 O 0.37827 0.22871 0.54392 0.0
Sc396 Sc 0.87684 0.18682 0.78958 0.0
Sc397 Sc 0.91088 0.14389 0.72515 0.0
Sc398 Sc 0.84988 0.06714 0.7601 0.0
O399 O 0.87875 0.13223 0.75843 0.0
C400 C 0.87815 0.08247 0.82603 0.0
C401 C 0.95696 0.18452 0.77132 0.0
C402 C 0.91939 0.02157 0.73435 0.0
C403 C 0.8849 0.26041 0.73812 0.0
C404 C 0.79748 0.15276 0.7841 0.0
C405 C 0.84349 0.11177 0.69432 0.0
O406 O 0.88978 0.12865 0.82145 0.0
O407 O 0.95296 0.14526 0.75453 0.0
O408 O 0.89588 0.01781 0.7537 0.0
O409 O 0.8643 0.24635 0.75815 0.0
O410 O 0.80317 0.11355 0.76726 0.0
O411 O 0.86817 0.14412 0.69698 0.0
O412 O 0.82183 0.17686 0.79724 0.0
O413 O 0.90713 0.22907 0.72745 0.0
O414 O 0.83799 0.07412 0.71264 0.0
O415 O 0.93138 0.2062 0.78416 0.0
O416 O 0.85915 0.05764 0.80762 0.0
O417 O 0.92065 0.06104 0.7173 0.0
Sc418 Sc 0.43538 0.17659 0.76012 0.0
Sc419 Sc 0.37439 0.09987 0.72512 0.0
Sc420 Sc 0.40843 0.05684 0.78953 0.0
O421 O 0.40651 0.11149 0.75841 0.0
C422 C 0.48779 0.09094 0.78408 0.0
C423 C 0.44182 0.13199 0.69434 0.0
C424 C 0.40036 0.98334 0.73803 0.0
C425 C 0.36589 0.22218 0.73436 0.0
C426 C 0.40709 0.16111 0.82605 0.0
C427 C 0.3283 0.05919 0.77128 0.0
O428 O 0.48209 0.1302 0.76728 0.0
O429 O 0.41712 0.09967 0.69697 0.0
O430 O 0.42098 -0.00262 0.75806 0.0
O431 O 0.38937 0.22592 0.75373 0.0
O432 O 0.39549 0.11493 0.82144 0.0
O433 O 0.3323 0.09846 0.75449 0.0
O434 O 0.42606 0.18602 0.80765 0.0
O435 O 0.36464 0.18273 0.71729 0.0
O436 O 0.35388 0.03749 0.7841 0.0
O437 O 0.44731 0.16964 0.71266 0.0
O438 O 0.46344 0.06677 0.79719 0.0
O439 O 0.37813 0.01469 0.72739 0.0
Sc440 Sc 0.18563 0.81671 0.51021 0.0
Sc441 Sc 0.12468 0.89342 0.47516 0.0
Sc442 Sc 0.15869 0.9365 0.53957 0.0
O443 O 0.15677 0.88182 0.50847 0.0
C444 C 0.15732 0.83228 0.57612 0.0
C445 C 0.11613 0.77113 0.48445 0.0
C446 C 0.07858 0.9342 0.52129 0.0
C447 C 0.19208 0.86115 0.44439 0.0
C448 C 0.23804 0.90234 0.53416 0.0
C449 C 0.15068 0.00996 0.48805 0.0
O450 O 0.1763 0.80735 0.55774 0.0
O451 O 0.11489 0.81056 0.46737 0.0
O452 O 0.10416 0.9559 0.53412 0.0
O453 O 0.19756 0.82355 0.46275 0.0
O454 O 0.21369 0.92652 0.54726 0.0
O455 O 0.12845 0.97861 0.4774 0.0
O456 O 0.23234 0.86309 0.51736 0.0
O457 O 0.16741 0.89353 0.44702 0.0
O458 O 0.17128 0.99591 0.50808 0.0
O459 O 0.13961 0.7674 0.50382 0.0
O460 O 0.14571 0.87845 0.57149 0.0
O461 O 0.08257 0.89492 0.50452 0.0
Sc462 Sc 0.62707 0.80648 0.53951 0.0
Sc463 Sc 0.66116 0.84942 0.4751 0.0
Sc464 Sc 0.6001 0.92614 0.51001 0.0
O465 O 0.629 0.86107 0.50836 0.0
C466 C 0.5477 0.84051 0.53399 0.0
C467 C 0.6352 0.73289 0.48805 0.0
C468 C 0.59376 0.88144 0.44424 0.0
C469 C 0.70721 0.80883 0.5213 0.0
C470 C 0.62833 0.91083 0.57596 0.0
C471 C 0.66961 0.97175 0.48427 0.0
O472 O 0.57205 0.81639 0.54713 0.0
O473 O 0.65743 0.76424 0.4774 0.0
O474 O 0.58822 0.9191 0.46255 0.0
O475 O 0.68163 0.78714 0.53413 0.0
O476 O 0.60937 0.93568 0.55753 0.0
O477 O 0.6709 0.93226 0.46723 0.0
O478 O 0.63996 0.86465 0.57139 0.0
O479 O 0.70321 0.84809 0.50451 0.0
O480 O 0.6461 0.9755 0.50362 0.0
O481 O 0.61457 0.74694 0.50807 0.0
O482 O 0.5534 0.87973 0.51717 0.0
O483 O 0.61847 0.84915 0.44691 0.0
Sc484 Sc 0.18565 0.92567 0.2613 0.0
Sc485 Sc 0.12467 0.84895 0.29631 0.0
Sc486 Sc 0.15868 0.80595 0.23188 0.0
O487 O 0.15678 0.86058 0.26301 0.0
C488 C 0.15733 0.91026 0.19539 0.0
C489 C 0.11616 0.97127 0.28708 0.0
C490 C 0.07857 0.80825 0.25017 0.0
C491 C 0.19207 0.88112 0.32711 0.0
C492 C 0.23804 0.84004 0.2373 0.0
C493 C 0.15065 0.73242 0.28337 0.0
O494 O 0.17633 0.93513 0.21379 0.0
O495 O 0.11489 0.9318 0.30413 0.0
O496 O 0.10414 0.78656 0.23733 0.0
O497 O 0.19759 0.91873 0.30876 0.0
O498 O 0.21368 0.81591 0.22418 0.0
O499 O 0.12844 0.76377 0.29404 0.0
O500 O 0.23235 0.87926 0.25413 0.0
O501 O 0.16739 0.84878 0.32446 0.0
O502 O 0.17125 0.74647 0.26333 0.0
O503 O 0.13966 0.97501 0.26771 0.0
O504 O 0.14571 0.86409 0.2 0.0
O505 O 0.08257 0.84753 0.26694 0.0
Sc506 Sc 0.62714 0.93605 0.23181 0.0
Sc507 Sc 0.66115 0.89304 0.29622 0.0
Sc508 Sc 0.60017 0.81633 0.26122 0.0
O509 O 0.62905 0.88142 0.26293 0.0
C510 C 0.54778 0.90198 0.23726 0.0
C511 C 0.63522 0.00958 0.28329 0.0
C512 C 0.59374 0.86094 0.32701 0.0
C513 C 0.70726 0.93367 0.25007 0.0
C514 C 0.62842 0.83179 0.19529 0.0
C515 C 0.66964 0.77073 0.28701 0.0
O516 O 0.57213 0.92614 0.22414 0.0
O517 O 0.65744 0.97823 0.29394 0.0
O518 O 0.58825 0.82328 0.30869 0.0
O519 O 0.6817 0.95538 0.23724 0.0
O520 O 0.60946 0.8069 0.2137 0.0
O521 O 0.67088 0.81018 0.30408 0.0
O522 O 0.64007 0.87795 0.1999 0.0
O523 O 0.70326 0.8944 0.26686 0.0
O524 O 0.64617 0.76699 0.26762 0.0
O525 O 0.6146 0.99554 0.26327 0.0
O526 O 0.55347 0.86274 0.25407 0.0
O527 O 0.61842 0.89328 0.32436 0.0
Sc528 Sc 0.8769 0.55646 0.98188 0.0
Sc529 Sc 0.91098 0.59936 0.0463 0.0
Sc530 Sc 0.84993 0.67611 0.0114 0.0
O531 O 0.87882 0.61103 0.01305 0.0
C532 C 0.87819 0.66084 0.94545 0.0
C533 C 0.95703 0.55877 1.00011 0.0
C534 C 0.91943 0.7217 0.03715 0.0
C535 C 0.88501 0.48284 0.03333 0.0
C536 C 0.79754 0.5905 0.98739 0.0
C537 C 0.84358 0.63138 0.07717 0.0
O538 O 0.88982 0.61466 0.95002 0.0
O539 O 0.95303 0.59804 0.01689 0.0
O540 O 0.89591 0.72547 0.01781 0.0
O541 O 0.86438 0.49691 0.01331 0.0
O542 O 0.80323 0.6297 1.00423 0.0
O543 O 0.86829 0.59909 0.0745 0.0
O544 O 0.82189 0.5664 0.97424 0.0
O545 O 0.90724 0.51418 0.04399 0.0
O546 O 0.83804 0.66904 0.05887 0.0
O547 O 0.93145 0.53709 0.98728 0.0
O548 O 0.85921 0.68567 0.96388 0.0
O549 O 0.92073 0.6822 0.05418 0.0
Sc550 Sc 0.43542 0.56672 0.01114 0.0
Sc551 Sc 0.37448 0.64343 0.04621 0.0
Sc552 Sc 0.40845 0.68647 0.98177 0.0
O553 O 0.40656 0.63182 0.01289 0.0
C554 C 0.48781 0.65237 0.98718 0.0
C555 C 0.44192 0.61123 0.07694 0.0
C556 C 0.40043 0.75997 0.03328 0.0
C557 C 0.36594 0.52114 0.03694 0.0
C558 C 0.4071 0.58223 0.94524 0.0
C559 C 0.32834 0.68412 1.00009 0.0
O560 O 0.48212 0.61311 1.00398 0.0
O561 O 0.41725 0.64361 0.07432 0.0
O562 O 0.42103 0.74593 0.01324 0.0
O563 O 0.3894 0.51741 0.01755 0.0
O564 O 0.39548 0.62839 0.94987 0.0
O565 O 0.33235 0.64486 0.01688 0.0
O566 O 0.42609 0.55733 0.96362 0.0
O567 O 0.36474 0.56056 0.05403 0.0
O568 O 0.3539 0.70582 0.98724 0.0
O569 O 0.44736 0.57359 0.0586 0.0
O570 O 0.46345 0.67653 0.97407 0.0
O571 O 0.37822 0.72862 0.04395 0.0
Sc572 Sc 0.87711 0.68606 0.2896 0.0
Sc573 Sc 0.91114 0.64299 0.2252 0.0
Sc574 Sc 0.85016 0.5663 0.26022 0.0
O575 O 0.87903 0.63139 0.2585 0.0
C576 C 0.87843 0.58181 0.32615 0.0
C577 C 0.95724 0.68367 0.27135 0.0
C578 C 0.91964 0.52068 0.23444 0.0
C579 C 0.8852 0.75954 0.23809 0.0
C580 C 0.79775 0.65197 0.28416 0.0
C581 C 0.84372 0.61088 0.19443 0.0
O582 O 0.89004 0.62799 0.32153 0.0
O583 O 0.95324 0.6444 0.25457 0.0
O584 O 0.89616 0.51696 0.25382 0.0
O585 O 0.86458 0.74551 0.25812 0.0
O586 O 0.80345 0.6127 0.26737 0.0
O587 O 0.86842 0.6432 0.19706 0.0
O588 O 0.8221 0.67615 0.29726 0.0
O589 O 0.90743 0.72818 0.22746 0.0
O590 O 0.83823 0.57323 0.21276 0.0
O591 O 0.93167 0.70538 0.28418 0.0
O592 O 0.85947 0.55689 0.30775 0.0
O593 O 0.92088 0.56013 0.21737 0.0
Sc594 Sc 0.43567 0.67571 0.26002 0.0
Sc595 Sc 0.37468 0.59898 0.22503 0.0
Sc596 Sc 0.40871 0.556 0.28945 0.0
O597 O 0.40679 0.61061 0.25832 0.0
C598 C 0.48806 0.59009 0.284 0.0
C599 C 0.44207 0.63116 0.19422 0.0
C600 C 0.40067 0.48245 0.23796 0.0
C601 C 0.36615 0.72129 0.23427 0.0
C602 C 0.40737 0.66031 0.32593 0.0
C603 C 0.32859 0.55827 0.27119 0.0
O604 O 0.48237 0.6293 0.26717 0.0
O605 O 0.41739 0.59881 0.19687 0.0
O606 O 0.42127 0.4965 0.25801 0.0
O607 O 0.38966 0.72504 0.25363 0.0
O608 O 0.39575 0.61413 0.32134 0.0
O609 O 0.33258 0.59754 0.2544 0.0
O610 O 0.42637 0.68516 0.30754 0.0
O611 O 0.36489 0.68183 0.21721 0.0
O612 O 0.35417 0.5366 0.28402 0.0
O613 O 0.44757 0.66879 0.21255 0.0
O614 O 0.46371 0.56597 0.29713 0.0
O615 O 0.37845 0.5138 0.2273 0.0
Sc616 Sc 0.18541 0.31676 1.01007 0.0
Sc617 Sc 0.12436 0.39347 0.97515 0.0
Sc618 Sc 0.15843 0.43643 0.03956 0.0
O619 O 0.15651 0.38183 1.00841 0.0
C620 C 0.15717 0.33209 0.07602 0.0
C621 C 0.11591 0.27113 0.98432 0.0
C622 C 0.0783 0.43407 0.02134 0.0
C623 C 0.19176 0.36145 0.9443 0.0
C624 C 0.2378 0.40241 0.03405 0.0
C625 C 0.1503 0.51001 0.98809 0.0
O626 O 0.17613 0.30723 0.05759 0.0
O627 O 0.11462 0.31062 0.96728 0.0
O628 O 0.10387 0.45576 0.03417 0.0
O629 O 0.19731 0.3238 0.96261 0.0
O630 O 0.21345 0.42654 0.04719 0.0
O631 O 0.12808 0.47865 0.97744 0.0
O632 O 0.2321 0.36318 0.01723 0.0
O633 O 0.16705 0.39374 0.94697 0.0
O634 O 0.17093 0.49597 1.00811 0.0
O635 O 0.13942 0.26739 1.00367 0.0
O636 O 0.14554 0.37826 0.07144 0.0
O637 O 0.0823 0.3948 1.00455 0.0
Sc638 Sc 0.62684 0.30636 0.03949 0.0
Sc639 Sc 0.66085 0.34947 0.97509 0.0
Sc640 Sc 0.59991 0.42617 1.01016 0.0
O641 O 0.62876 0.36106 1.0084 0.0
C642 C 0.5475 0.34053 0.03411 0.0
C643 C 0.63483 0.23293 0.98796 0.0
C644 C 0.59345 0.38177 0.94434 0.0
C645 C 0.70695 0.30864 0.0212 0.0
C646 C 0.62824 0.41056 0.07606 0.0
C647 C 0.66941 0.47176 0.9844 0.0
O648 O 0.57185 0.31635 0.0472 0.0
O649 O 0.65706 0.26428 0.97731 0.0
O650 O 0.58796 0.41935 0.9627 0.0
O651 O 0.68138 0.28694 0.03403 0.0
O652 O 0.60926 0.43551 0.05769 0.0
O653 O 0.67065 0.43233 0.96732 0.0
O654 O 0.63984 0.36439 0.07142 0.0
O655 O 0.70297 0.34794 1.00443 0.0
O656 O 0.64593 0.47548 1.00377 0.0
O657 O 0.61424 0.24696 1.008 0.0
O658 O 0.55319 0.37979 0.01731 0.0
O659 O 0.61811 0.34939 0.94695 0.0
Sc660 Sc 0.18537 0.42654 0.76129 0.0
Sc661 Sc 0.12439 0.34984 0.79631 0.0
Sc662 Sc 0.1584 0.30681 0.73189 0.0
O663 O 0.15649 0.36145 0.76301 0.0
C664 C 0.15709 0.41107 0.69537 0.0
C665 C 0.11589 0.47215 0.78708 0.0
C666 C 0.07828 0.30915 0.75017 0.0
C667 C 0.19181 0.38197 0.82708 0.0
C668 C 0.23776 0.3409 0.73732 0.0
C669 C 0.15034 0.2333 0.78339 0.0
O670 O 0.17606 0.43596 0.71377 0.0
O671 O 0.11464 0.43269 0.80414 0.0
O672 O 0.10385 0.28746 0.73733 0.0
O673 O 0.1973 0.41961 0.80875 0.0
O674 O 0.2134 0.31674 0.72421 0.0
O675 O 0.12812 0.26465 0.79404 0.0
O676 O 0.23207 0.38014 0.75413 0.0
O677 O 0.16712 0.34963 0.82444 0.0
O678 O 0.17095 0.24734 0.76335 0.0
O679 O 0.13937 0.47588 0.7677 0.0
O680 O 0.14546 0.3649 0.69998 0.0
O681 O 0.08228 0.34843 0.76695 0.0
Sc682 Sc 0.62689 0.43691 0.73183 0.0
Sc683 Sc 0.66089 0.39391 0.79626 0.0
Sc684 Sc 0.5999 0.31721 0.76127 0.0
O685 O 0.62878 0.38229 0.76297 0.0
C686 C 0.54753 0.40284 0.73726 0.0
C687 C 0.63492 0.51045 0.78332 0.0
C688 C 0.59348 0.36178 0.82707 0.0
C689 C 0.707 0.4346 0.75012 0.0
C690 C 0.62823 0.3326 0.69535 0.0
C691 C 0.66939 0.27159 0.78704 0.0
O692 O 0.57189 0.42696 0.72414 0.0
O693 O 0.65714 0.4791 0.79399 0.0
O694 O 0.58797 0.32417 0.80872 0.0
O695 O 0.68143 0.45629 0.73728 0.0
O696 O 0.60923 0.30773 0.71375 0.0
O697 O 0.67066 0.31106 0.8041 0.0
O698 O 0.63986 0.37877 0.69995 0.0
O699 O 0.70299 0.39531 0.76689 0.0
O700 O 0.64589 0.26785 0.76768 0.0
O701 O 0.61432 0.4964 0.76328 0.0
O702 O 0.55321 0.36362 0.75409 0.0
O703 O 0.61818 0.39411 0.82442 0.0
C704 C 0.42577 0.84931 0.03988 0.0
C705 C 0.39678 0.8165 0.03921 0.0
H706 H 0.44446 0.92868 0.03977 0.0
C707 C 0.3637 0.83886 0.0404 0.0
H708 H 0.45146 0.83275 0.03892 0.0
C709 C 0.35964 0.89352 0.03983 0.0
C710 C 0.38863 0.92634 0.03918 0.0
H711 H 0.34095 0.81415 0.03975 0.0
H712 H 0.33395 0.91009 0.03884 0.0
C713 C 0.42171 0.90398 0.04042 0.0
C714 C 0.85965 0.3935 0.03992 0.0
C715 C 0.88864 0.42632 0.03927 0.0
H716 H 0.84096 0.31414 0.03982 0.0
C717 C 0.92172 0.40395 0.04052 0.0
H718 H 0.83396 0.41007 0.03892 0.0
C719 C 0.92578 0.34929 0.03998 0.0
C720 C 0.89679 0.31647 0.03931 0.0
H721 H 0.94447 0.42865 0.03988 0.0
H722 H 0.95147 0.33272 0.03903 0.0
C723 C 0.86371 0.33884 0.04049 0.0
C724 C 0.42601 0.39311 0.23138 0.0
C725 C 0.39702 0.42593 0.23203 0.0
H726 H 0.4447 0.31374 0.23149 0.0
C727 C 0.36394 0.40357 0.23081 0.0
H728 H 0.4517 0.40967 0.23235 0.0
C729 C 0.35988 0.34891 0.23137 0.0
C730 C 0.38887 0.31608 0.23204 0.0
H731 H 0.3412 0.42828 0.23145 0.0
H732 H 0.33419 0.33234 0.23234 0.0
C733 C 0.42195 0.33844 0.23083 0.0
C734 C 0.92194 0.83841 0.23094 0.0
C735 C 0.88885 0.81606 0.23214 0.0
H736 H 0.95169 0.90964 0.23248 0.0
C737 C 0.85986 0.84888 0.23146 0.0
H738 H 0.94468 0.8137 0.23162 0.0
C739 C 0.86393 0.90354 0.23089 0.0
C740 C 0.89701 0.9259 0.23213 0.0
H741 H 0.83417 0.83232 0.23242 0.0
H742 H 0.84118 0.92825 0.23153 0.0
C743 C 0.926 0.89307 0.23149 0.0
C744 C 0.67562 0.09938 0.98141 0.0
C745 C 0.64663 0.06656 0.98206 0.0
H746 H 0.69431 0.17875 0.98149 0.0
C747 C 0.61355 0.08892 0.98082 0.0
H748 H 0.70131 0.08282 0.9824 0.0
C749 C 0.60949 0.14359 0.98135 0.0
C750 C 0.63849 0.17641 0.98201 0.0
H751 H 0.59081 0.06422 0.98146 0.0
H752 H 0.5838 0.16016 0.9823 0.0
C753 C 0.67157 0.15405 0.98082 0.0
C754 C 0.10951 0.64355 0.98143 0.0
C755 C 0.13851 0.67637 0.98208 0.0
H756 H 0.09083 0.56418 0.98156 0.0
C757 C 0.17159 0.65401 0.98088 0.0
H758 H 0.08383 0.66012 0.98239 0.0
C759 C 0.17565 0.59934 0.98146 0.0
C760 C 0.14665 0.56653 0.98213 0.0
H761 H 0.19433 0.67872 0.98153 0.0
H762 H 0.20133 0.58278 0.98244 0.0
C763 C 0.11357 0.58888 0.9809 0.0
C764 C 0.61363 0.65446 0.79046 0.0
C765 C 0.64671 0.67682 0.78926 0.0
H766 H 0.58388 0.58323 0.78892 0.0
C767 C 0.6757 0.644 0.78995 0.0
H768 H 0.59089 0.67916 0.78979 0.0
C769 C 0.67164 0.58933 0.79051 0.0
C770 C 0.63856 0.56697 0.78927 0.0
H771 H 0.70139 0.66056 0.78899 0.0
H772 H 0.69439 0.56463 0.78987 0.0
C773 C 0.60957 0.59979 0.78991 0.0
C774 C 0.11361 0.15442 0.79055 0.0
C775 C 0.14669 0.17678 0.78934 0.0
H776 H 0.08386 0.08319 0.78901 0.0
C777 C 0.17568 0.14395 0.79 0.0
H778 H 0.09087 0.17913 0.78989 0.0
C779 C 0.17162 0.08929 0.79056 0.0
C780 C 0.13854 0.06693 0.78934 0.0
H781 H 0.20137 0.16052 0.78904 0.0
H782 H 0.19437 0.06459 0.7899 0.0
C783 C 0.10955 0.09975 0.78999 0.0
C784 C 0.42585 0.3494 0.53987 0.0
C785 C 0.39686 0.31658 0.53922 0.0
H786 H 0.44454 0.42877 0.53978 0.0
C787 C 0.36378 0.33894 0.54048 0.0
H788 H 0.45154 0.33283 0.53887 0.0
C789 C 0.35972 0.3936 0.53994 0.0
C790 C 0.38871 0.42642 0.53927 0.0
H791 H 0.34104 0.31423 0.53984 0.0
H792 H 0.33403 0.41017 0.53899 0.0
C793 C 0.42179 0.40406 0.54045 0.0
C794 C 0.85974 0.89357 0.54004 0.0
C795 C 0.88873 0.92639 0.53938 0.0
H796 H 0.84105 0.8142 0.53993 0.0
C797 C 0.92181 0.90404 0.54057 0.0
H798 H 0.83405 0.91014 0.53908 0.0
C799 C 0.92587 0.84937 0.54 0.0
C800 C 0.89688 0.81655 0.53935 0.0
H801 H 0.94455 0.92875 0.53991 0.0
H802 H 0.95156 0.83281 0.53902 0.0
C803 C 0.8638 0.83891 0.54058 0.0
C804 C 0.36363 0.90445 0.73088 0.0
C805 C 0.39671 0.92682 0.73208 0.0
H806 H 0.33389 0.83322 0.73242 0.0
C807 C 0.4257 0.894 0.7314 0.0
H808 H 0.34089 0.92916 0.73155 0.0
C809 C 0.42164 0.83933 0.73084 0.0
C810 C 0.38857 0.81697 0.73207 0.0
H811 H 0.45139 0.91057 0.73236 0.0
H812 H 0.44439 0.81463 0.73148 0.0
C813 C 0.35957 0.84979 0.73143 0.0
C814 C 0.92163 0.3393 0.73098 0.0
C815 C 0.88855 0.31694 0.73219 0.0
H816 H 0.95138 0.41053 0.73252 0.0
C817 C 0.85956 0.34976 0.73154 0.0
H818 H 0.94437 0.31459 0.73163 0.0
C819 C 0.86362 0.40443 0.73099 0.0
C820 C 0.8967 0.42679 0.73221 0.0
H821 H 0.83387 0.33319 0.73251 0.0
H822 H 0.84087 0.42913 0.73165 0.0
C823 C 0.92569 0.39397 0.73154 0.0
C824 C 0.61393 0.58889 0.48084 0.0
C825 C 0.64701 0.56653 0.48205 0.0
H826 H 0.58417 0.66011 0.4824 0.0
C827 C 0.676 0.59935 0.4814 0.0
H828 H 0.59118 0.56418 0.48149 0.0
C829 C 0.67193 0.65401 0.48087 0.0
C830 C 0.63885 0.67637 0.48209 0.0
H831 H 0.70169 0.58278 0.48237 0.0
H832 H 0.69468 0.67872 0.48153 0.0
C833 C 0.60986 0.64355 0.48142 0.0
C834 C 0.11395 0.08884 0.48093 0.0
C835 C 0.14703 0.06648 0.48211 0.0
H836 H 0.0842 0.16007 0.48252 0.0
C837 C 0.17602 0.0993 0.48144 0.0
H838 H 0.0912 0.06413 0.4816 0.0
C839 C 0.17195 0.15397 0.48091 0.0
C840 C 0.13888 0.17633 0.48217 0.0
H841 H 0.20171 0.08274 0.48239 0.0
H842 H 0.1947 0.17867 0.48156 0.0
C843 C 0.10988 0.1435 0.48152 0.0
C844 C 0.67602 0.14312 0.28991 0.0
C845 C 0.64703 0.17594 0.28926 0.0
H846 H 0.6947 0.06375 0.2898 0.0
C847 C 0.61395 0.15359 0.29047 0.0
H848 H 0.70171 0.15969 0.28893 0.0
C849 C 0.60988 0.09892 0.28991 0.0
C850 C 0.63887 0.0661 0.28924 0.0
H851 H 0.5912 0.17829 0.28982 0.0
H852 H 0.58419 0.08236 0.28894 0.0
C853 C 0.67196 0.08846 0.29046 0.0
C854 C 0.11393 0.65354 0.29057 0.0
C855 C 0.14701 0.6759 0.28932 0.0
H856 H 0.08418 0.58232 0.28906 0.0
C857 C 0.176 0.64308 0.28996 0.0
H858 H 0.09119 0.67825 0.28993 0.0
C859 C 0.17194 0.58841 0.29051 0.0
C860 C 0.13886 0.56606 0.28933 0.0
H861 H 0.20169 0.65964 0.28896 0.0
H862 H 0.19468 0.5637 0.28984 0.0
C863 C 0.10987 0.59888 0.29001 0.0
C864 C 0.35841 0.18564 0.89544 0.0
C865 C 0.38515 0.18257 0.91594 0.0
H866 H 0.34474 0.18181 0.85009 0.0
C867 C 0.4194 0.18506 0.90597 0.0
H868 H 0.33186 0.1825 0.90246 0.0
C869 C 0.42682 0.18572 0.87599 0.0
C870 C 0.40008 0.18272 0.85549 0.0
H871 H 0.44049 0.18169 0.92133 0.0
H872 H 0.45337 0.18263 0.86897 0.0
C873 C 0.36583 0.18513 0.86546 0.0
C874 C 0.9194 0.05829 0.8654 0.0
C875 C 0.88515 0.06077 0.85544 0.0
H876 H 0.95338 0.06071 0.90238 0.0
C877 C 0.85841 0.05771 0.87594 0.0
H878 H 0.94049 0.06165 0.85003 0.0
C879 C 0.86584 0.05822 0.90592 0.0
C880 C 0.90009 0.06063 0.91589 0.0
H881 H 0.83186 0.06084 0.86894 0.0
H882 H 0.84475 0.06154 0.92129 0.0
C883 C 0.92682 0.05763 0.89538 0.0
C884 C 0.36612 0.05794 0.40596 0.0
C885 C 0.40036 0.06041 0.41594 0.0
H886 H 0.33217 0.06036 0.36896 0.0
C887 C 0.42711 0.05733 0.39545 0.0
H888 H 0.34502 0.06131 0.42132 0.0
C889 C 0.41971 0.05783 0.36547 0.0
C890 C 0.38546 0.06024 0.35548 0.0
H891 H 0.45366 0.06045 0.40247 0.0
H892 H 0.44081 0.06113 0.35011 0.0
C893 C 0.35872 0.05726 0.37598 0.0
C894 C 0.86613 0.18445 0.36541 0.0
C895 C 0.90038 0.18197 0.35544 0.0
H896 H 0.83216 0.18204 0.4024 0.0
C897 C 0.92712 0.18504 0.37594 0.0
H898 H 0.84504 0.18109 0.35004 0.0
C899 C 0.91971 0.18452 0.40592 0.0
C900 C 0.88546 0.18213 0.41589 0.0
H901 H 0.95367 0.18191 0.36892 0.0
H902 H 0.9408 0.18121 0.42129 0.0
C903 C 0.85872 0.18512 0.39539 0.0
C904 C 0.60858 0.80731 0.14537 0.0
C905 C 0.63536 0.8102 0.16584 0.0
H906 H 0.59481 0.81143 0.10005 0.0
C907 C 0.66959 0.80772 0.15581 0.0
H908 H 0.58204 0.81044 0.15243 0.0
C909 C 0.67694 0.80723 0.12582 0.0
C910 C 0.65016 0.8104 0.10536 0.0
H911 H 0.69071 0.81096 0.17115 0.0
H912 H 0.70348 0.8103 0.11877 0.0
C913 C 0.61593 0.80799 0.11538 0.0
C914 C 0.17699 0.93508 0.14547 0.0
C915 C 0.15028 0.93195 0.16598 0.0
H916 H 0.19063 0.93132 0.10011 0.0
C917 C 0.11601 0.93438 0.15604 0.0
H918 H 0.20355 0.93198 0.15246 0.0
C919 C 0.10857 0.93506 0.12606 0.0
C920 C 0.13529 0.93214 0.10554 0.0
H921 H 0.09494 0.93097 0.17142 0.0
H922 H 0.08201 0.93194 0.11907 0.0
C923 C 0.16955 0.93458 0.11549 0.0
C924 C 0.66955 0.93499 0.61537 0.0
C925 C 0.6353 0.93254 0.60538 0.0
H926 H 0.70348 0.93255 0.65238 0.0
C927 C 0.60855 0.93564 0.62586 0.0
H928 H 0.69065 0.9316 0.60002 0.0
C929 C 0.61593 0.93513 0.65585 0.0
C930 C 0.65017 0.9327 0.66584 0.0
H931 H 0.582 0.93253 0.61883 0.0
H932 H 0.59483 0.93184 0.6712 0.0
C933 C 0.67693 0.93566 0.64535 0.0
C934 C 0.177 0.80781 0.62608 0.0
C935 C 0.15028 0.81069 0.60555 0.0
H936 H 0.19061 0.81193 0.67144 0.0
C937 C 0.11602 0.80822 0.61549 0.0
H938 H 0.20356 0.81095 0.61909 0.0
C939 C 0.10857 0.80773 0.64547 0.0
C940 C 0.13528 0.81089 0.66599 0.0
H941 H 0.09495 0.81145 0.6001 0.0
H942 H 0.082 0.8108 0.65245 0.0
C943 C 0.16954 0.80848 0.65605 0.0
C944 C 0.3661 0.68442 0.36531 0.0
C945 C 0.40035 0.68199 0.35535 0.0
H946 H 0.33212 0.68199 0.40229 0.0
C947 C 0.42708 0.68511 0.37585 0.0
H948 H 0.34502 0.68102 0.34994 0.0
C949 C 0.41966 0.68461 0.40583 0.0
C950 C 0.38541 0.68217 0.41579 0.0
H951 H 0.45364 0.68201 0.36885 0.0
H952 H 0.44075 0.68135 0.42121 0.0
C953 C 0.35867 0.68511 0.39528 0.0
C954 C 0.92708 0.55729 0.39555 0.0
C955 C 0.90033 0.56041 0.41605 0.0
H956 H 0.94077 0.56106 0.35021 0.0
C957 C 0.86608 0.55797 0.40607 0.0
H958 H 0.95363 0.56039 0.40257 0.0
C959 C 0.85868 0.55729 0.37609 0.0
C960 C 0.88543 0.56022 0.35559 0.0
H961 H 0.84499 0.56138 0.42143 0.0
H962 H 0.83213 0.56041 0.36907 0.0
C963 C 0.91967 0.55778 0.36557 0.0
C964 C 0.41944 0.55838 0.86532 0.0
C965 C 0.38519 0.56083 0.85535 0.0
H966 H 0.4534 0.56081 0.90231 0.0
C967 C 0.35845 0.55772 0.87584 0.0
H968 H 0.44053 0.56177 0.84995 0.0
C969 C 0.36586 0.55822 0.90582 0.0
C970 C 0.40011 0.56065 0.9158 0.0
H971 H 0.3319 0.56082 0.86883 0.0
H972 H 0.34477 0.5615 0.92119 0.0
C973 C 0.42685 0.5577 0.8953 0.0
C974 C 0.92684 0.68569 0.87608 0.0
C975 C 0.90009 0.68274 0.85559 0.0
H976 H 0.94053 0.68163 0.92142 0.0
C977 C 0.86585 0.68517 0.86557 0.0
H978 H 0.95339 0.68259 0.86906 0.0
C979 C 0.85844 0.68567 0.89555 0.0
C980 C 0.88519 0.68257 0.91604 0.0
H981 H 0.84475 0.68188 0.8502 0.0
H982 H 0.83189 0.68255 0.90257 0.0
C983 C 0.91944 0.68503 0.90606 0.0
C984 C 0.66953 0.30848 0.65599 0.0
C985 C 0.63526 0.31091 0.66594 0.0
H986 H 0.70353 0.31092 0.61902 0.0
C987 C 0.60854 0.30779 0.64543 0.0
H988 H 0.6906 0.31188 0.67137 0.0
C989 C 0.61599 0.30829 0.61545 0.0
C990 C 0.65025 0.31073 0.6055 0.0
H991 H 0.58198 0.31088 0.65242 0.0
H992 H 0.59491 0.31156 0.60007 0.0
C993 C 0.67697 0.3078 0.62602 0.0
C994 C 0.1159 0.43507 0.65591 0.0
C995 C 0.15013 0.43266 0.66592 0.0
H996 H 0.08199 0.43245 0.61888 0.0
C997 C 0.1769 0.43565 0.64545 0.0
H998 H 0.09478 0.43176 0.67126 0.0
C999 C 0.16954 0.43498 0.61546 0.0
C1000 C 0.1353 0.43251 0.60545 0.0
H1001 H 0.20344 0.43256 0.65249 0.0
H1002 H 0.19065 0.43162 0.60012 0.0
C1003 C 0.10853 0.43559 0.62592 0.0
C1004 C 0.61606 0.43445 0.156 0.0
C1005 C 0.65033 0.43199 0.16592 0.0
H1006 H 0.58203 0.43202 0.11906 0.0
C1007 C 0.67703 0.43507 0.14539 0.0
H1008 H 0.595 0.43108 0.1714 0.0
C1009 C 0.66956 0.43456 0.11542 0.0
C1010 C 0.63529 0.43215 0.10549 0.0
H1011 H 0.7036 0.43195 0.15237 0.0
H1012 H 0.69063 0.43126 0.10002 0.0
C1013 C 0.60859 0.43512 0.12603 0.0
C1014 C 0.10858 0.30728 0.14543 0.0
C1015 C 0.13535 0.31019 0.1659 0.0
H1016 H 0.09484 0.3114 0.10011 0.0
C1017 C 0.16959 0.30772 0.15589 0.0
H1018 H 0.08204 0.31042 0.15248 0.0
C1019 C 0.17695 0.30722 0.1259 0.0
C1020 C 0.15019 0.31038 0.10544 0.0
H1021 H 0.1907 0.31096 0.17124 0.0
H1022 H 0.2035 0.3103 0.11887 0.0
C1023 C 0.11595 0.30796 0.11544 0.0
C1024 C 0.5186 0.94376 1.00167 0.0
C1025 C 0.54606 0.96451 0.01805 0.0
H1026 H 0.46961 0.95773 0.98206 0.0
C1027 C 0.54467 0.01751 0.02704 0.0
H1028 H 0.51896 0.90321 0.99414 0.0
C1029 C 0.51666 0.04913 0.01956 0.0
C1030 C 0.4892 0.02838 1.00318 0.0
H1031 H 0.56565 0.03516 0.03917 0.0
H1032 H 0.5163 0.08968 0.02709 0.0
C1033 C 0.49059 0.97538 0.99419 0.0
C1034 C 0.76864 0.1937 0.01964 0.0
C1035 C 0.79612 0.21449 1.00329 0.0
H1036 H 0.71959 0.2076 0.03916 0.0
C1037 C 0.79471 0.26748 0.99428 0.0
H1038 H 0.76901 0.15316 0.02717 0.0
C1039 C 0.76665 0.29905 1.0017 0.0
C1040 C 0.73917 0.27826 0.01805 0.0
H1041 H 0.8157 0.28515 0.98218 0.0
H1042 H 0.76628 0.33959 0.99417 0.0
C1043 C 0.74058 0.22527 0.02706 0.0
C1044 C 0.49089 0.26707 0.27705 0.0
C1045 C 0.48949 0.21408 0.26806 0.0
H1046 H 0.51929 0.33921 0.27713 0.0
C1047 C 0.51696 0.19331 0.25169 0.0
H1048 H 0.46991 0.28474 0.28917 0.0
C1049 C 0.545 0.2249 0.24425 0.0
C1050 C 0.5464 0.27789 0.25324 0.0
H1051 H 0.51659 0.15276 0.24416 0.0
H1052 H 0.56599 0.20723 0.23213 0.0
C1053 C 0.51893 0.29866 0.26961 0.0
C1054 C 0.74088 0.01705 0.24425 0.0
C1055 C 0.73948 0.96406 0.25324 0.0
H1056 H 0.76928 0.08919 0.24418 0.0
C1057 C 0.76694 0.9433 0.26962 0.0
H1058 H 0.7199 0.03471 0.23212 0.0
C1059 C 0.79497 0.97489 0.27708 0.0
C1060 C 0.79637 0.02788 0.26809 0.0
H1061 H 0.76657 0.90275 0.27715 0.0
H1062 H 0.81595 0.95723 0.2892 0.0
C1063 C 0.76891 0.04865 0.2517 0.0
C1064 C 0.2406 0.72527 0.02706 0.0
C1065 C 0.23919 0.77826 0.01806 0.0
H1066 H 0.26903 0.65316 0.02716 0.0
C1067 C 0.26665 0.79904 1.00168 0.0
H1068 H 0.21962 0.70761 0.03919 0.0
C1069 C 0.2947 0.76747 0.99424 0.0
C1070 C 0.29612 0.71448 1.00325 0.0
H1071 H 0.26627 0.83958 0.99415 0.0
H1072 H 0.31568 0.78514 0.98212 0.0
C1073 C 0.26865 0.6937 0.01962 0.0
C1074 C 0.54471 0.7258 0.74422 0.0
C1075 C 0.54611 0.77879 0.75321 0.0
H1076 H 0.51631 0.65366 0.74413 0.0
C1077 C 0.51863 0.79955 0.76958 0.0
H1078 H 0.56569 0.70814 0.73209 0.0
C1079 C 0.4906 0.76795 0.77703 0.0
C1080 C 0.4892 0.71496 0.76803 0.0
H1081 H 0.519 0.8401 0.77711 0.0
H1082 H 0.46961 0.78561 0.78915 0.0
C1083 C 0.51667 0.6942 0.75166 0.0
C1084 C 0.26862 0.04958 0.75176 0.0
C1085 C 0.29609 0.02881 0.76812 0.0
H1086 H 0.21959 0.03566 0.73221 0.0
C1087 C 0.29469 0.97581 0.77712 0.0
H1088 H 0.26898 0.09013 0.74423 0.0
C1089 C 0.26665 0.94423 0.76968 0.0
C1090 C 0.23918 0.965 0.75331 0.0
H1091 H 0.31568 0.95815 0.78923 0.0
H1092 H 0.26629 0.90368 0.7772 0.0
C1093 C 0.24058 0.01799 0.74432 0.0
C1094 C 0.51885 0.44382 0.50168 0.0
C1095 C 0.54632 0.46461 0.51804 0.0
H1096 H 0.46981 0.45771 0.48213 0.0
C1097 C 0.5449 0.5176 0.52704 0.0
H1098 H 0.51923 0.40328 0.49414 0.0
C1099 C 0.51685 0.54917 0.51961 0.0
C1100 C 0.48938 0.52837 0.50325 0.0
H1101 H 0.56589 0.53527 0.53915 0.0
H1102 H 0.51647 0.58971 0.52714 0.0
C1103 C 0.4908 0.47539 0.49424 0.0
C1104 C 0.76883 0.69381 0.51969 0.0
C1105 C 0.7963 0.71456 0.50331 0.0
H1106 H 0.71981 0.70777 0.53925 0.0
C1107 C 0.79492 0.76756 0.49433 0.0
H1108 H 0.76918 0.65326 0.52721 0.0
C1109 C 0.76689 0.79917 0.50178 0.0
C1110 C 0.73941 0.77841 0.51815 0.0
H1111 H 0.8159 0.78521 0.48221 0.0
H1112 H 0.76653 0.83972 0.49425 0.0
C1113 C 0.7408 0.72542 0.52714 0.0
C1114 C 0.79468 0.47583 0.77717 0.0
C1115 C 0.79609 0.52882 0.76819 0.0
H1116 H 0.76629 0.40368 0.77723 0.0
C1117 C 0.76863 0.54959 0.7518 0.0
H1118 H 0.81566 0.45817 0.78931 0.0
C1119 C 0.7406 0.518 0.74433 0.0
C1120 C 0.7392 0.465 0.75332 0.0
H1121 H 0.769 0.59014 0.74428 0.0
H1122 H 0.71963 0.53566 0.7322 0.0
C1123 C 0.76666 0.44423 0.7697 0.0
C1124 C 0.2949 0.26755 0.49428 0.0
C1125 C 0.29629 0.21454 0.50325 0.0
H1126 H 0.26654 0.33972 0.49425 0.0
C1127 C 0.26883 0.19379 0.51964 0.0
H1128 H 0.31588 0.2852 0.48214 0.0
C1129 C 0.24082 0.2254 0.52712 0.0
C1130 C 0.23943 0.2784 0.51815 0.0
H1131 H 0.26919 0.15323 0.52715 0.0
H1132 H 0.21985 0.20775 0.53926 0.0
C1133 C 0.26689 0.29916 0.50176 0.0
C1134 C 0.24086 0.51705 0.24425 0.0
C1135 C 0.23946 0.46406 0.25325 0.0
H1136 H 0.26926 0.58918 0.24413 0.0
C1137 C 0.26694 0.4433 0.26961 0.0
H1138 H 0.21986 0.5347 0.23213 0.0
C1139 C 0.29498 0.47489 0.27704 0.0
C1140 C 0.29638 0.52788 0.26803 0.0
H1141 H 0.26658 0.40276 0.27715 0.0
H1142 H 0.31598 0.45723 0.28915 0.0
C1143 C 0.2689 0.54864 0.25167 0.0
C1144 C 0.01888 0.94379 0.50179 0.0
C1145 C 0.04636 0.96457 0.51815 0.0
H1146 H 0.96984 0.95767 0.48226 0.0
C1147 C 0.04494 0.01756 0.52715 0.0
H1148 H 0.01926 0.90324 0.49426 0.0
C1149 C 1.01688 0.04912 0.51973 0.0
C1150 C 0.98941 0.02833 0.50338 0.0
H1151 H 0.06593 0.03523 0.53926 0.0
H1152 H 1.0165 0.08967 0.52727 0.0
C1153 C 0.99083 0.97535 0.49437 0.0
C1154 C 0.04467 0.22577 0.74433 0.0
C1155 C 0.04607 0.27875 0.75334 0.0
H1156 H 1.01627 0.15362 0.74424 0.0
C1157 C 0.0186 0.2995 0.76972 0.0
H1158 H 0.06565 0.20812 0.7322 0.0
C1159 C 0.99057 0.2679 0.77717 0.0
C1160 C 0.98917 0.21492 0.76816 0.0
H1161 H 0.01897 0.34004 0.77726 0.0
H1162 H 0.96959 0.28555 0.7893 0.0
C1163 C 1.01664 0.19416 0.75178 0.0
C1164 C 0.99086 0.76704 0.27717 0.0
C1165 C 0.98946 0.71405 0.26818 0.0
H1166 H 0.01926 0.83918 0.27724 0.0
C1167 C 1.01693 0.69327 0.25182 0.0
H1168 H 0.96988 0.78471 0.28929 0.0
C1169 C 0.04496 0.72485 0.24436 0.0
C1170 C 0.04636 0.77785 0.25335 0.0
H1171 H 1.01656 0.65272 0.2443 0.0
H1172 H 0.06595 0.70719 0.23225 0.0
C1173 C 0.01889 0.79863 0.26972 0.0
C1174 C 1.01669 0.5491 0.01968 0.0
C1175 C 0.98922 0.52835 1.00329 0.0
H1176 H 0.06569 0.53514 0.03927 0.0
C1177 C 0.99061 0.47535 0.99431 0.0
H1178 H 1.01634 0.58965 0.0272 0.0
C1179 C 0.01863 0.44374 1.00178 0.0
C1180 C 0.0461 0.46449 0.01816 0.0
H1181 H 0.96963 0.45771 0.98218 0.0
H1182 H 0.01899 0.40319 0.99426 0.0
C1183 C 0.04471 0.51749 0.02715 0.0
C1184 C 0.32175 0.16554 0.1535 0.0
C1185 C 0.3253 0.11495 0.16617 0.0
H1186 H 0.32436 0.2111 0.11407 0.0
C1187 C 0.32202 0.07049 0.1483 0.0
H1188 H 0.32367 0.2006 0.16697 0.0
C1189 C 0.32174 0.07672 0.11794 0.0
C1190 C 0.32522 0.12733 0.10526 0.0
H1191 H 0.3245 0.03118 0.15738 0.0
H1192 H 0.32366 0.04166 0.10447 0.0
C1193 C 0.32194 0.17177 0.12314 0.0
C1194 C 0.96366 0.17172 0.14831 0.0
C1195 C 0.96041 0.12717 0.16611 0.0
H1196 H 0.96189 0.20079 0.10454 0.0
C1197 C 0.96391 0.07664 0.15335 0.0
H1198 H 0.96123 0.21098 0.15745 0.0
C1199 C 0.96363 0.07058 0.12298 0.0
C1200 C 0.9603 0.11513 0.10518 0.0
H1201 H 0.96202 0.04151 0.16676 0.0
H1202 H 0.96117 0.0313 0.11385 0.0
C1203 C 0.96384 0.16565 0.11794 0.0
C1204 C 0.71343 0.92244 0.87304 0.0
C1205 C 0.7102 0.87798 0.85517 0.0
H1206 H 0.71168 0.95129 0.91686 0.0
C1207 C 0.71377 0.82739 0.86785 0.0
H1208 H 0.71095 0.96175 0.86396 0.0
C1209 C 0.71352 0.82117 0.89821 0.0
C1210 C 0.71017 0.86562 0.91607 0.0
H1211 H 0.71189 0.79233 0.85438 0.0
H1212 H 0.71109 0.78185 0.90728 0.0
C1213 C 0.71365 0.91622 0.9034 0.0
C1214 C 0.07149 0.82728 0.90346 0.0
C1215 C 0.07505 0.87781 0.91621 0.0
H1216 H 0.07416 0.78189 0.86398 0.0
C1217 C 0.07182 0.92234 0.89839 0.0
H1218 H 0.07336 0.79216 0.91689 0.0
C1219 C 0.07162 0.91625 0.86803 0.0
C1220 C 0.0751 0.8657 0.85528 0.0
H1221 H 0.07431 0.96161 0.90752 0.0
H1222 H 0.07359 0.95137 0.85461 0.0
C1223 C 0.07174 0.82118 0.8731 0.0
C1224 C 0.32185 0.57122 0.64823 0.0
C1225 C 0.32515 0.61576 0.66604 0.0
H1226 H 0.32355 0.54215 0.60446 0.0
C1227 C 0.32167 0.6663 0.65328 0.0
H1228 H 0.32427 0.53195 0.65738 0.0
C1229 C 0.32192 0.67237 0.62291 0.0
C1230 C 0.3252 0.62782 0.60511 0.0
H1231 H 0.3236 0.70142 0.6667 0.0
H1232 H 0.3244 0.71164 0.61378 0.0
C1233 C 0.32164 0.57729 0.61787 0.0
C1234 C 0.9638 0.66611 0.61805 0.0
C1235 C 0.9603 0.61551 0.60537 0.0
H1236 H 0.96107 0.71165 0.65748 0.0
C1237 C 0.96358 0.57106 0.62325 0.0
H1238 H 0.96188 0.70116 0.60458 0.0
C1239 C 0.96378 0.57729 0.6536 0.0
C1240 C 0.96024 0.62788 0.66628 0.0
H1241 H 0.96114 0.53174 0.61416 0.0
H1242 H 0.96185 0.54222 0.66707 0.0
C1243 C 0.96354 0.67233 0.64841 0.0
C1244 C 0.71392 0.32665 0.36799 0.0
C1245 C 0.71044 0.37719 0.35524 0.0
H1246 H 0.71122 0.28128 0.40748 0.0
C1247 C 0.71378 0.42172 0.37305 0.0
H1248 H 0.71196 0.29153 0.35456 0.0
C1249 C 0.71403 0.41563 0.40341 0.0
C1250 C 0.71047 0.3651 0.41616 0.0
H1251 H 0.71137 0.461 0.36391 0.0
H1252 H 0.71214 0.45076 0.41683 0.0
C1253 C 0.71371 0.32056 0.39835 0.0
C1254 C 0.07203 0.4217 0.39828 0.0
C1255 C 0.07537 0.37726 0.41615 0.0
H1256 H 0.07368 0.45056 0.35446 0.0
C1257 C 0.07188 0.32666 0.40347 0.0
H1258 H 0.07445 0.46102 0.40736 0.0
C1259 C 0.0721 0.32044 0.37311 0.0
C1260 C 0.07535 0.3649 0.35524 0.0
H1261 H 0.07384 0.2916 0.41694 0.0
H1262 H 0.07459 0.28112 0.36403 0.0
C1263 C 0.07179 0.41548 0.36792 0.0
C1264 C 0.82162 0.07729 0.61795 0.0
C1265 C 0.82519 0.12782 0.6052 0.0
H1266 H 0.82424 0.03192 0.65744 0.0
C1267 C 0.82193 0.17237 0.62301 0.0
H1268 H 0.82352 0.04217 0.60453 0.0
C1269 C 0.82168 0.16628 0.65337 0.0
C1270 C 0.82514 0.11574 0.66613 0.0
H1271 H 0.82442 0.21163 0.61388 0.0
H1272 H 0.82362 0.20141 0.66679 0.0
C1273 C 0.82182 0.07121 0.64832 0.0
C1274 C 0.46358 0.07114 0.62314 0.0
C1275 C 0.4603 0.1156 0.60527 0.0
H1276 H 0.46185 0.04228 0.66695 0.0
C1277 C 0.46379 0.16619 0.61796 0.0
H1278 H 0.46115 0.03183 0.61405 0.0
C1279 C 0.46352 0.1724 0.64832 0.0
C1280 C 0.46023 0.12794 0.66618 0.0
H1281 H 0.46187 0.20125 0.60449 0.0
H1282 H 0.46105 0.21172 0.65739 0.0
C1283 C 0.46378 0.07735 0.6535 0.0
C1284 C 0.21394 0.82661 0.36804 0.0
C1285 C 0.21045 0.87715 0.35529 0.0
H1286 H 0.21124 0.78124 0.40752 0.0
C1287 C 0.21377 0.92168 0.3731 0.0
H1288 H 0.21199 0.7915 0.35461 0.0
C1289 C 0.21401 0.91559 0.40346 0.0
C1290 C 0.21046 0.86506 0.41621 0.0
H1291 H 0.21135 0.96096 0.36397 0.0
H1292 H 0.21211 0.95072 0.41688 0.0
C1293 C 0.21372 0.82052 0.3984 0.0
C1294 C 0.57203 0.92178 0.39821 0.0
C1295 C 0.57537 0.87733 0.41608 0.0
H1296 H 0.57366 0.95063 0.35439 0.0
C1297 C 0.57189 0.82673 0.4034 0.0
H1298 H 0.57445 0.9611 0.40729 0.0
C1299 C 0.5721 0.82051 0.37304 0.0
C1300 C 0.57534 0.86497 0.35517 0.0
H1301 H 0.57385 0.79167 0.41687 0.0
H1302 H 0.57459 0.78119 0.36396 0.0
C1303 C 0.57177 0.91556 0.36785 0.0
C1304 C 0.82175 0.5767 0.11804 0.0
C1305 C 0.82523 0.6273 0.10536 0.0
H1306 H 0.8245 0.53114 0.15746 0.0
C1307 C 0.82194 0.67174 0.12324 0.0
H1308 H 0.82368 0.54164 0.10456 0.0
C1309 C 0.82175 0.66551 0.1536 0.0
C1310 C 0.8253 0.61492 0.16627 0.0
H1311 H 0.82437 0.71106 0.11416 0.0
H1312 H 0.82367 0.70057 0.16706 0.0
C1313 C 0.82202 0.57046 0.1484 0.0
C1314 C 0.46391 0.5767 0.15327 0.0
C1315 C 0.46041 0.62723 0.16603 0.0
H1316 H 0.46118 0.53134 0.11378 0.0
C1317 C 0.46368 0.67177 0.14821 0.0
H1318 H 0.46202 0.54158 0.16669 0.0
C1319 C 0.46386 0.66569 0.11785 0.0
C1320 C 0.46032 0.61516 0.1051 0.0
H1321 H 0.46124 0.71104 0.15735 0.0
H1322 H 0.46192 0.70082 0.10444 0.0
C1323 C 0.46364 0.57062 0.1229 0.0
C1324 C 0.21365 0.41617 0.90347 0.0
C1325 C 0.21017 0.36556 0.91614 0.0
H1326 H 0.21095 0.46173 0.86405 0.0
C1327 C 0.21353 0.32113 0.89827 0.0
H1328 H 0.21168 0.45122 0.91695 0.0
C1329 C 0.21378 0.32736 0.86791 0.0
C1330 C 0.21022 0.37795 0.85524 0.0
H1331 H 0.21111 0.2818 0.90734 0.0
H1332 H 0.21191 0.2923 0.85444 0.0
C1333 C 0.21345 0.42241 0.87312 0.0
C1334 C 0.57149 0.32735 0.90341 0.0
C1335 C 0.57505 0.37788 0.91616 0.0
H1336 H 0.57415 0.28196 0.86393 0.0
C1337 C 0.57183 0.42242 0.89835 0.0
H1338 H 0.57336 0.29223 0.91684 0.0
C1339 C 0.57162 0.41632 0.86798 0.0
C1340 C 0.57509 0.36577 0.85524 0.0
H1341 H 0.57432 0.46169 0.90748 0.0
H1342 H 0.57359 0.45144 0.85456 0.0
C1343 C 0.57174 0.32125 0.87305 0.0
C1344 C 0.22289 0.00657 0.96011 0.0
C1345 C 0.1986 0.01061 0.98288 0.0
H1346 H 0.27235 0.02844 0.94351 0.0
C1347 C 0.20543 0.04685 1.00552 0.0
H1348 H 0.21872 0.97959 0.94211 0.0
C1349 C 0.23661 0.07557 1.00618 0.0
C1350 C 0.26181 0.06847 0.98434 0.0
H1351 H 0.18757 0.05103 0.02352 0.0
H1352 H 0.24175 0.10105 0.02466 0.0
C1353 C 0.25391 0.03472 0.9609 0.0
C1354 C 0.06242 0.23628 0.96004 0.0
C1355 C 0.08672 0.23223 0.98279 0.0
H1356 H 1.01294 0.21442 0.94346 0.0
C1357 C 0.0799 0.19598 1.00544 0.0
H1358 H 0.06657 0.26327 0.94204 0.0
C1359 C 0.04873 0.16725 1.00611 0.0
C1360 C 0.02352 0.17438 0.98427 0.0
H1361 H 0.09778 0.1918 0.02342 0.0
H1362 H 0.0436 0.14177 0.02458 0.0
C1363 C 0.0314 0.20813 0.96084 0.0
C1364 C 0.25421 0.20778 0.31051 0.0
C1365 C 0.26209 0.17401 0.28708 0.0
H1366 H 0.21903 0.26289 0.32931 0.0
C1367 C 0.23687 0.16687 0.26525 0.0
H1368 H 0.27267 0.21408 0.32788 0.0
C1369 C 0.20569 0.19558 0.26592 0.0
C1370 C 0.19887 0.23183 0.28856 0.0
H1371 H 0.24201 0.14138 0.24678 0.0
H1372 H 0.18781 0.19138 0.24794 0.0
C1373 C 0.22318 0.23591 0.31131 0.0
C1374 C 0.03162 0.03424 0.31053 0.0
C1375 C 0.02375 0.068 0.28709 0.0
H1376 H 0.06678 0.97911 0.32934 0.0
C1377 C 0.04898 0.07512 0.26526 0.0
H1378 H 1.01316 0.02796 0.3279 0.0
C1379 C 0.08015 0.0464 0.26595 0.0
C1380 C 0.08696 0.01015 0.28859 0.0
H1381 H 0.04385 0.1006 0.24679 0.0
H1382 H 0.09803 0.05058 0.24797 0.0
C1383 C 0.06264 0.00609 0.31134 0.0
C1384 C 0.79869 0.91734 0.01518 0.0
C1385 C 0.77346 0.9245 0.037 0.0
H1386 H 0.84776 0.94182 0.99789 0.0
C1387 C 0.78133 0.95828 0.06043 0.0
H1388 H 0.79356 0.89184 0.99672 0.0
C1389 C 0.81236 0.9864 0.06124 0.0
C1390 C 0.83669 0.98229 0.0385 0.0
H1391 H 0.76286 0.96459 0.0778 0.0
H1392 H 0.81651 0.01339 0.07924 0.0
C1393 C 0.82987 0.94604 0.01587 0.0
C1394 C 0.98659 0.8256 0.01536 0.0
C1395 C 1.01182 0.81846 0.03718 0.0
H1396 H 0.93754 0.80106 0.99807 0.0
C1397 C 1.00395 0.7847 0.06062 0.0
H1398 H 0.99172 0.85109 0.99689 0.0
C1399 C 0.97293 0.75654 0.06143 0.0
C1400 C 0.94862 0.76061 0.03868 0.0
H1401 H 0.02242 0.7784 0.07799 0.0
H1402 H 0.96879 0.72955 0.07942 0.0
C1403 C 0.95542 0.79688 0.01605 0.0
C1404 C 0.82987 0.79731 0.7555 0.0
C1405 C 0.83671 0.76104 0.73288 0.0
H1406 H 0.79355 0.85153 0.77462 0.0
C1407 C 0.81243 0.75697 0.71011 0.0
H1408 H 0.84774 0.8015 0.7735 0.0
C1409 C 0.7814 0.78512 0.71088 0.0
C1410 C 0.7735 0.8189 0.7343 0.0
H1411 H 0.81659 0.72998 0.69211 0.0
H1412 H 0.76296 0.77883 0.69349 0.0
C1413 C 0.7987 0.82603 0.75615 0.0
C1414 C 0.9554 0.94643 0.75546 0.0
C1415 C 0.94859 0.9827 0.73283 0.0
H1416 H 0.9917 0.89221 0.77461 0.0
C1417 C 0.97291 0.98677 0.71009 0.0
H1418 H 0.93751 0.94223 0.77344 0.0
C1419 C 1.00393 0.95862 0.71089 0.0
C1420 C 1.0118 0.92484 0.73432 0.0
H1421 H 0.96877 0.01376 0.69209 0.0
H1422 H 0.0224 0.96492 0.69352 0.0
C1423 C 0.98657 0.9177 0.75614 0.0
C1424 C 0.23678 0.57562 0.50606 0.0
C1425 C 0.26199 0.56848 0.48422 0.0
H1426 H 0.18774 0.55108 0.52339 0.0
C1427 C 0.2541 0.53471 0.4608 0.0
H1428 H 0.24192 0.60111 0.52452 0.0
C1429 C 0.22308 0.50655 0.46001 0.0
C1430 C 0.19879 0.51062 0.48277 0.0
H1431 H 0.27256 0.52842 0.44341 0.0
H1432 H 0.21893 0.47956 0.44201 0.0
C1433 C 0.20561 0.54689 0.5054 0.0
C1434 C 0.08008 0.69604 0.50558 0.0
C1435 C 0.08691 0.73227 0.48294 0.0
H1436 H 0.04377 0.64186 0.52474 0.0
C1437 C 0.06261 0.73632 0.46018 0.0
H1438 H 0.09796 0.69185 0.52357 0.0
C1439 C 0.03158 0.70818 0.46099 0.0
C1440 C 0.02369 0.67444 0.48443 0.0
H1441 H 0.06677 0.76329 0.44218 0.0
H1442 H 1.01313 0.71446 0.4436 0.0
C1443 C 0.04891 0.66732 0.50626 0.0
C1444 C 0.25395 0.70859 0.81048 0.0
C1445 C 0.26182 0.67484 0.78703 0.0
H1446 H 0.21879 0.7637 0.82931 0.0
C1447 C 0.23659 0.66773 0.76521 0.0
H1448 H 0.27242 0.71486 0.82785 0.0
C1449 C 0.20541 0.69645 0.76591 0.0
C1450 C 0.19861 0.73269 0.78856 0.0
H1451 H 0.24171 0.64226 0.74673 0.0
H1452 H 0.18752 0.69228 0.74793 0.0
C1453 C 0.22293 0.73673 0.8113 0.0
C1454 C 0.06239 0.50695 0.81138 0.0
C1455 C 0.08669 0.51103 0.78862 0.0
H1456 H 1.01292 0.5288 0.82798 0.0
C1457 C 0.07986 0.54729 0.76599 0.0
H1458 H 0.06655 0.47996 0.82938 0.0
C1459 C 0.04868 0.57601 0.76533 0.0
C1460 C 0.02348 0.56887 0.78717 0.0
H1461 H 0.09773 0.55149 0.748 0.0
H1462 H 0.04354 0.60151 0.74687 0.0
C1463 C 0.03137 0.5351 0.8106 0.0
C1464 C 0.78156 0.45816 0.56059 0.0
C1465 C 0.77369 0.42441 0.53714 0.0
H1466 H 0.81672 0.51329 0.57941 0.0
C1467 C 0.79892 0.4173 0.51532 0.0
H1468 H 0.76309 0.46444 0.57796 0.0
C1469 C 0.83009 0.44602 0.51601 0.0
C1470 C 0.8369 0.48227 0.53866 0.0
H1471 H 0.7938 0.39182 0.49685 0.0
H1472 H 0.84798 0.44185 0.49803 0.0
C1473 C 0.81258 0.48631 0.56141 0.0
C1474 C 1.00415 0.28463 0.56049 0.0
C1475 C 1.01204 0.3184 0.53706 0.0
H1476 H 0.96897 0.2295 0.57928 0.0
C1477 C 0.98682 0.32554 0.51523 0.0
H1478 H 0.02261 0.27833 0.57787 0.0
C1479 C 0.95564 0.29683 0.5159 0.0
C1480 C 0.94882 0.26058 0.53854 0.0
H1481 H 0.99196 0.35103 0.49676 0.0
H1482 H 0.93776 0.30104 0.49792 0.0
C1483 C 0.97312 0.25649 0.56129 0.0
C1484 C 0.78166 0.28427 0.21085 0.0
C1485 C 0.77378 0.31804 0.23428 0.0
H1486 H 0.81682 0.22912 0.19206 0.0
C1487 C 0.79899 0.32515 0.25612 0.0
H1488 H 0.7632 0.27799 0.19347 0.0
C1489 C 0.83016 0.29642 0.25545 0.0
C1490 C 0.83698 0.26016 0.23281 0.0
H1491 H 0.79386 0.35064 0.27459 0.0
H1492 H 0.84804 0.3006 0.27343 0.0
C1493 C 0.81267 0.25611 0.21005 0.0
C1494 C 0.95568 0.44557 0.25556 0.0
C1495 C 0.94884 0.48181 0.23291 0.0
H1496 H 0.992 0.39138 0.27469 0.0
C1497 C 0.97313 0.48585 0.21014 0.0
H1498 H 0.93781 0.4414 0.27355 0.0
C1499 C 1.00415 0.45771 0.21093 0.0
C1500 C 1.01205 0.42396 0.23437 0.0
H1501 H 0.96896 0.51282 0.19214 0.0
H1502 H 0.02259 0.46398 0.19354 0.0
C1503 C 0.98685 0.41685 0.25622 0.0
C1504 C 0.75416 0.0347 0.46083 0.0
C1505 C 0.76202 0.06847 0.48426 0.0
H1506 H 0.719 0.97957 0.44202 0.0
C1507 C 0.73679 0.07561 0.50608 0.0
H1508 H 0.77263 0.02841 0.44346 0.0
C1509 C 0.70562 0.04689 0.50539 0.0
C1510 C 0.69881 0.01063 0.48276 0.0
H1511 H 0.74191 0.1011 0.52455 0.0
H1512 H 0.68772 0.05109 0.52337 0.0
C1513 C 0.72313 0.00657 0.46001 0.0
C1514 C 0.53157 0.20826 0.4609 0.0
C1515 C 0.52368 0.17449 0.48433 0.0
H1516 H 0.56675 0.26338 0.4421 0.0
C1517 C 0.5489 0.16736 0.50616 0.0
H1518 H 0.51311 0.21455 0.44352 0.0
C1519 C 0.58007 0.19607 0.50549 0.0
C1520 C 0.5869 0.23232 0.48285 0.0
H1521 H 0.54376 0.14187 0.52463 0.0
H1522 H 0.59795 0.19187 0.52347 0.0
C1523 C 0.56259 0.2364 0.4601 0.0
C1524 C 0.72288 0.23673 0.81132 0.0
C1525 C 0.69858 0.23269 0.78857 0.0
H1526 H 0.77236 0.21484 0.82791 0.0
C1527 C 0.7054 0.19645 0.76592 0.0
H1528 H 0.71874 0.26371 0.82933 0.0
C1529 C 0.73657 0.16771 0.76525 0.0
C1530 C 0.76178 0.17482 0.78708 0.0
H1531 H 0.68752 0.19228 0.74794 0.0
H1532 H 0.7417 0.14224 0.74677 0.0
C1533 C 0.7539 0.20857 0.81052 0.0
C1534 C 0.56241 0.00702 0.81128 0.0
C1535 C 0.5867 0.01107 0.78852 0.0
H1536 H 0.51294 0.02887 0.82788 0.0
C1537 C 0.57987 0.04732 0.76588 0.0
H1538 H 0.56657 0.98004 0.82928 0.0
C1539 C 0.54869 0.07604 0.76522 0.0
C1540 C 0.52349 0.06891 0.78706 0.0
H1541 H 0.59773 0.0515 0.74788 0.0
H1542 H 0.54355 0.10152 0.74675 0.0
C1543 C 0.53139 0.03516 0.81049 0.0
C1544 C 0.28162 0.95813 0.56058 0.0
C1545 C 0.27374 0.92437 0.53714 0.0
H1546 H 0.31679 0.01327 0.57937 0.0
C1547 C 0.29895 0.91727 0.5153 0.0
H1548 H 0.26317 0.96439 0.57797 0.0
C1549 C 0.33011 0.94601 0.51597 0.0
C1550 C 0.33693 0.98227 0.53861 0.0
H1551 H 0.29381 0.89179 0.49683 0.0
H1552 H 0.34798 0.94185 0.49797 0.0
C1553 C 0.31264 0.98629 0.56137 0.0
C1554 C 0.45563 0.79687 0.51579 0.0
C1555 C 0.44879 0.76063 0.53844 0.0
H1556 H 0.49194 0.85106 0.49665 0.0
C1557 C 0.47309 0.75657 0.5612 0.0
H1558 H 0.43775 0.80105 0.49781 0.0
C1559 C 0.50411 0.78471 0.5604 0.0
C1560 C 0.51201 0.81846 0.53697 0.0
H1561 H 0.46892 0.7296 0.5792 0.0
H1562 H 0.52256 0.77843 0.57779 0.0
C1563 C 0.4868 0.82558 0.51513 0.0
C1564 C 0.31262 0.75609 0.21003 0.0
C1565 C 0.33695 0.76016 0.23277 0.0
H1566 H 0.26313 0.77794 0.19348 0.0
C1567 C 0.33014 0.79641 0.25541 0.0
H1568 H 0.31676 0.72911 0.19203 0.0
C1569 C 0.29897 0.82513 0.2561 0.0
C1570 C 0.27373 0.818 0.23429 0.0
H1571 H 0.34804 0.80061 0.27338 0.0
H1572 H 0.29385 0.85062 0.27458 0.0
C1573 C 0.2816 0.78423 0.21085 0.0
C1574 C 0.48687 0.91688 0.25611 0.0
C1575 C 0.51208 0.92402 0.23427 0.0
H1576 H 0.43782 0.9414 0.27343 0.0
C1577 C 0.50419 0.95778 0.21084 0.0
H1578 H 0.49201 0.8914 0.27458 0.0
C1579 C 0.47316 0.98591 0.21004 0.0
C1580 C 0.44886 0.98185 0.2328 0.0
H1581 H 0.52264 0.96407 0.19346 0.0
H1582 H 0.46901 0.0129 0.19204 0.0
C1583 C 0.45569 0.9456 0.25544 0.0
C1584 C 0.70545 0.54685 1.00554 0.0
C1585 C 0.69862 0.51062 0.98289 0.0
H1586 H 0.74175 0.60102 0.02471 0.0
C1587 C 0.72293 0.50658 0.96014 0.0
H1588 H 0.68757 0.55102 0.02353 0.0
C1589 C 0.75395 0.53472 0.96095 0.0
C1590 C 0.76184 0.56846 0.98439 0.0
H1591 H 0.71878 0.47962 0.94213 0.0
H1592 H 0.77241 0.52845 0.94356 0.0
C1593 C 0.73662 0.57556 1.00623 0.0
C1594 C 0.53138 0.70819 0.96075 0.0
C1595 C 0.5235 0.67441 0.98418 0.0
H1596 H 0.56654 0.76334 0.94196 0.0
C1597 C 0.54873 0.66728 1.00601 0.0
H1598 H 0.51292 0.71448 0.94338 0.0
C1599 C 0.5799 0.69601 1.00534 0.0
C1600 C 0.58671 0.73228 0.9827 0.0
H1601 H 0.5436 0.64178 0.02448 0.0
H1602 H 0.59778 0.69182 0.02332 0.0
C1603 C 0.5624 0.73634 0.95995 0.0
C1604 C 0.70568 0.69558 0.26593 0.0
C1605 C 0.69884 0.73185 0.28856 0.0
H1606 H 0.742 0.64136 0.24682 0.0
C1607 C 0.72313 0.73593 0.31133 0.0
H1608 H 0.68782 0.69138 0.24794 0.0
C1609 C 0.75415 0.70778 0.31055 0.0
C1610 C 0.76205 0.674 0.28713 0.0
H1611 H 0.71896 0.76292 0.32932 0.0
H1612 H 0.7726 0.71408 0.32794 0.0
C1613 C 0.73685 0.66686 0.26528 0.0
C1614 C 0.56266 0.50616 0.31126 0.0
C1615 C 0.58697 0.5102 0.28851 0.0
H1616 H 0.51317 0.52803 0.32782 0.0
C1617 C 0.58016 0.54644 0.26586 0.0
H1618 H 0.5668 0.47919 0.32927 0.0
C1619 C 0.54899 0.57516 0.26518 0.0
C1620 C 0.52376 0.56805 0.287 0.0
H1621 H 0.59804 0.55061 0.24788 0.0
H1622 H 0.54386 0.60063 0.2467 0.0
C1623 C 0.53164 0.53431 0.31045 0.0
C1624 C 0.32988 0.44603 0.01584 0.0
C1625 C 0.33672 0.4823 0.03847 0.0
H1626 H 0.29357 0.39181 0.99673 0.0
C1627 C 0.31241 0.4864 0.06123 0.0
H1628 H 0.34776 0.44181 0.99786 0.0
C1629 C 0.28139 0.45826 0.06044 0.0
C1630 C 0.2735 0.42447 0.03702 0.0
H1631 H 0.31657 0.5134 0.07922 0.0
H1632 H 0.26293 0.46457 0.07782 0.0
C1633 C 0.29871 0.41732 0.01519 0.0
C1634 C 0.50392 0.28475 0.06054 0.0
C1635 C 0.5118 0.31851 0.03711 0.0
H1636 H 0.46875 0.2296 0.07933 0.0
C1637 C 0.48658 0.32563 0.01527 0.0
H1638 H 0.52237 0.27846 0.07792 0.0
C1639 C 0.45541 0.2969 0.01594 0.0
C1640 C 0.4486 0.26064 0.03858 0.0
H1641 H 0.49171 0.35112 0.9968 0.0
H1642 H 0.43753 0.30108 0.99796 0.0
C1643 C 0.4729 0.25659 0.06134 0.0
C1644 C 0.32986 0.2973 0.75547 0.0
C1645 C 0.33668 0.26104 0.73284 0.0
H1646 H 0.29355 0.35149 0.77462 0.0
C1647 C 0.31237 0.25697 0.71009 0.0
H1648 H 0.34774 0.30149 0.77345 0.0
C1649 C 0.28134 0.28511 0.71089 0.0
C1650 C 0.27346 0.31887 0.73432 0.0
H1651 H 0.31652 0.22999 0.69209 0.0
H1652 H 0.26288 0.27881 0.69351 0.0
C1653 C 0.29868 0.32601 0.75615 0.0
C1654 C 0.50397 0.45868 0.71082 0.0
C1655 C 0.51183 0.42489 0.73425 0.0
H1656 H 0.46882 0.51383 0.69201 0.0
C1657 C 0.48659 0.41775 0.75606 0.0
H1658 H 0.52245 0.46499 0.69346 0.0
C1659 C 0.45542 0.44647 0.75537 0.0
C1660 C 0.44862 0.48274 0.73274 0.0
H1661 H 0.49171 0.39224 0.77453 0.0
H1662 H 0.43752 0.44226 0.77334 0.0
C1663 C 0.47295 0.48683 0.71001 0.0
loop_
_geom_bond_atom_site_label_1
_geom_bond_atom_site_label_2
_geom_bond_distance
_geom_bond_site_symmetry_2
_ccdc_geom_bond_type
Sc0 O3 2.025 1_556 S
Sc0 O10 2.105 . S
Sc0 O13 2.105 1_546 S
Sc0 O16 2.105 . S
Sc0 O19 2.105 . S
Sc1 O3 2.025 . S
Sc1 O11 2.105 . S
Sc1 O15 2.105 . S
Sc1 O17 2.105 . S
Sc1 O21 2.105 . S
Sc2 O3 2.025 . S
Sc2 O12 2.105 . S
Sc2 O14 2.105 . S
Sc2 O18 2.105 . S
Sc2 O20 2.105 1_554 S
O3 Sc0 2.025 1_554 S
O3 Sc1 2.025 . S
O3 Sc2 2.025 . S
C4 O10 1.268 . S
C4 O20 1.268 . S
C5 O11 1.268 1_556 S
C5 O19 1.268 . S
C6 O12 1.268 . S
C6 O21 1.268 . S
C7 O13 1.268 . S
C7 O17 1.268 1_565 S
C8 O14 1.268 1_556 S
C8 O16 1.268 . S
C9 O15 1.268 . S
C9 O18 1.268 . S
O10 Sc0 2.105 . S
O10 C4 1.268 . S
O11 Sc1 2.105 . S
O11 C5 1.268 1_554 S
O12 Sc2 2.105 . S
O12 C6 1.268 . S
O13 Sc0 2.105 1_564 S
O13 C7 1.268 . S
O14 Sc2 2.105 . S
O14 C8 1.268 1_554 S
O15 Sc1 2.105 . S
O15 C9 1.268 . S
O16 Sc0 2.105 . S
O16 C8 1.268 . S
O17 Sc1 2.105 . S
O17 C7 1.268 1_545 S
O18 Sc2 2.105 . S
O18 C9 1.268 . S
O19 Sc0 2.105 . S
O19 C5 1.268 . S
O20 Sc2 2.105 1_556 S
O20 C4 1.268 . S
O21 Sc1 2.105 . S
O21 C6 1.268 . S
Sc22 O25 2.025 . S
Sc22 O32 2.105 . S
Sc22 O35 2.105 . S
Sc22 O38 2.105 1_554 S
Sc22 O41 2.105 . S
Sc23 O25 2.025 . S
Sc23 O33 2.105 . S
Sc23 O37 2.105 . S
Sc23 O39 2.105 . S
Sc23 O43 2.105 . S
Sc24 O25 2.025 1_556 S
Sc24 O34 2.105 1_556 S
Sc24 O36 2.105 . S
Sc24 O40 2.105 . S
Sc24 O42 2.105 . S
O25 Sc22 2.025 . S
O25 Sc23 2.025 . S
O25 Sc24 2.025 1_554 S
C26 O32 1.268 1_556 S
C26 O42 1.268 . S
C27 O33 1.268 . S
C27 O41 1.268 . S
C28 O34 1.268 . S
C28 O43 1.268 . S
C29 O35 1.268 . S
C29 O39 1.268 . S
C30 O36 1.268 . S
C30 O38 1.268 . S
C31 O37 1.268 1_556 S
C31 O40 1.268 . S
O32 Sc22 2.105 . S
O32 C26 1.268 1_554 S
O33 Sc23 2.105 . S
O33 C27 1.268 . S
O34 Sc24 2.105 1_554 S
O34 C28 1.268 . S
O35 Sc22 2.105 . S
O35 C29 1.268 . S
O36 Sc24 2.105 . S
O36 C30 1.268 . S
O37 Sc23 2.105 . S
O37 C31 1.268 1_554 S
O38 Sc22 2.105 1_556 S
O38 C30 1.268 . S
O39 Sc23 2.105 . S
O39 C29 1.268 . S
O40 Sc24 2.105 . S
O40 C31 1.268 . S
O41 Sc22 2.105 . S
O41 C27 1.268 . S
O42 Sc24 2.105 . S
O42 C26 1.268 . S
O43 Sc23 2.105 . S
O43 C28 1.268 . S
Sc44 O47 2.025 . S
Sc44 O54 2.105 . S
Sc44 O57 2.105 . S
Sc44 O60 2.105 . S
Sc44 O63 2.105 . S
Sc45 O47 2.025 . S
Sc45 O55 2.105 . S
Sc45 O59 2.105 . S
Sc45 O61 2.105 . S
Sc45 O65 2.105 . S
Sc46 O47 2.025 . S
Sc46 O56 2.105 . S
Sc46 O58 2.105 . S
Sc46 O62 2.105 . S
Sc46 O64 2.105 . S
O47 Sc44 2.025 . S
O47 Sc45 2.025 . S
O47 Sc46 2.025 . S
C48 O54 1.268 . S
C48 O64 1.268 . S
C49 O55 1.268 . S
C49 O63 1.268 . S
C50 O56 1.268 . S
C50 O65 1.268 . S
C51 O57 1.268 . S
C51 O61 1.268 . S
C52 O58 1.268 . S
C52 O60 1.268 . S
C53 O59 1.268 . S
C53 O62 1.268 . S
O54 Sc44 2.105 . S
O54 C48 1.268 . S
O55 Sc45 2.105 . S
O55 C49 1.268 . S
O56 Sc46 2.105 . S
O56 C50 1.268 . S
O57 Sc44 2.105 . S
O57 C51 1.268 . S
O58 Sc46 2.105 . S
O58 C52 1.268 . S
O59 Sc45 2.105 . S
O59 C53 1.268 . S
O60 Sc44 2.105 . S
O60 C52 1.268 . S
O61 Sc45 2.105 . S
O61 C51 1.268 . S
O62 Sc46 2.105 . S
O62 C53 1.268 . S
O63 Sc44 2.105 . S
O63 C49 1.268 . S
O64 Sc46 2.105 . S
O64 C48 1.268 . S
O65 Sc45 2.105 . S
O65 C50 1.268 . S
Sc66 O69 2.025 . S
Sc66 O76 2.105 . S
Sc66 O79 2.105 . S
Sc66 O82 2.105 . S
Sc66 O85 2.105 . S
Sc67 O69 2.025 . S
Sc67 O77 2.105 . S
Sc67 O81 2.105 . S
Sc67 O83 2.105 . S
Sc67 O87 2.105 . S
Sc68 O69 2.025 . S
Sc68 O78 2.105 1_545 S
Sc68 O80 2.105 . S
Sc68 O84 2.105 . S
Sc68 O86 2.105 . S
O69 Sc66 2.025 . S
O69 Sc67 2.025 . S
O69 Sc68 2.025 . S
C70 O76 1.268 . S
C70 O86 1.268 . S
C71 O77 1.268 . S
C71 O85 1.268 . S
C72 O78 1.268 . S
C72 O87 1.268 1_565 S
C73 O79 1.268 . S
C73 O83 1.268 . S
C74 O80 1.268 . S
C74 O82 1.268 . S
C75 O81 1.268 . S
C75 O84 1.268 . S
O76 Sc66 2.105 . S
O76 C70 1.268 . S
O77 Sc67 2.105 . S
O77 C71 1.268 . S
O78 Sc68 2.105 1_565 S
O78 C72 1.268 . S
O79 Sc66 2.105 . S
O79 C73 1.268 . S
O80 Sc68 2.105 . S
O80 C74 1.268 . S
O81 Sc67 2.105 . S
O81 C75 1.268 . S
O82 Sc66 2.105 . S
O82 C74 1.268 . S
O83 Sc67 2.105 . S
O83 C73 1.268 . S
O84 Sc68 2.105 . S
O84 C75 1.268 . S
O85 Sc66 2.105 . S
O85 C71 1.268 . S
O86 Sc68 2.105 . S
O86 C70 1.268 . S
O87 Sc67 2.105 . S
O87 C72 1.268 1_545 S
Sc88 O91 2.025 . S
Sc88 O98 2.105 1_556 S
Sc88 O101 2.105 . S
Sc88 O104 2.105 . S
Sc88 O107 2.105 . S
Sc89 O91 2.025 . S
Sc89 O99 2.105 . S
Sc89 O103 2.105 . S
Sc89 O105 2.105 . S
Sc89 O109 2.105 . S
Sc90 O91 2.025 1_554 S
Sc90 O100 2.105 . S
Sc90 O102 2.105 . S
Sc90 O106 2.105 1_564 S
Sc90 O108 2.105 . S
O91 Sc88 2.025 . S
O91 Sc89 2.025 . S
O91 Sc90 2.025 1_556 S
C92 O98 1.268 . S
C92 O108 1.268 . S
C93 O99 1.268 . S
C93 O107 1.268 . S
C94 O100 1.268 . S
C94 O109 1.268 1_554 S
C95 O101 1.268 . S
C95 O105 1.268 . S
C96 O102 1.268 . S
C96 O104 1.268 1_554 S
C97 O103 1.268 1_545 S
C97 O106 1.268 . S
O98 Sc88 2.105 1_554 S
O98 C92 1.268 . S
O99 Sc89 2.105 . S
O99 C93 1.268 . S
O100 Sc90 2.105 . S
O100 C94 1.268 . S
O101 Sc88 2.105 . S
O101 C95 1.268 . S
O102 Sc90 2.105 . S
O102 C96 1.268 . S
O103 Sc89 2.105 . S
O103 C97 1.268 1_565 S
O104 Sc88 2.105 . S
O104 C96 1.268 1_556 S
O105 Sc89 2.105 . S
O105 C95 1.268 . S
O106 Sc90 2.105 1_546 S
O106 C97 1.268 . S
O107 Sc88 2.105 . S
O107 C93 1.268 . S
O108 Sc90 2.105 . S
O108 C92 1.268 . S
O109 Sc89 2.105 . S
O109 C94 1.268 1_556 S
Sc110 O113 2.025 1_554 S
Sc110 O120 2.105 . S
Sc110 O123 2.105 . S
Sc110 O126 2.105 . S
Sc110 O129 2.105 1_554 S
Sc111 O113 2.025 . S
Sc111 O121 2.105 . S
Sc111 O125 2.105 . S
Sc111 O127 2.105 . S
Sc111 O131 2.105 . S
Sc112 O113 2.025 . S
Sc112 O122 2.105 . S
Sc112 O124 2.105 1_556 S
Sc112 O128 2.105 . S
Sc112 O130 2.105 . S
O113 Sc110 2.025 1_556 S
O113 Sc111 2.025 . S
O113 Sc112 2.025 . S
C114 O120 1.268 . S
C114 O130 1.268 1_554 S
C115 O121 1.268 . S
C115 O129 1.268 . S
C116 O122 1.268 . S
C116 O131 1.268 . S
C117 O123 1.268 . S
C117 O127 1.268 1_554 S
C118 O124 1.268 . S
C118 O126 1.268 . S
C119 O125 1.268 . S
C119 O128 1.268 . S
O120 Sc110 2.105 . S
O120 C114 1.268 . S
O121 Sc111 2.105 . S
O121 C115 1.268 . S
O122 Sc112 2.105 . S
O122 C116 1.268 . S
O123 Sc110 2.105 . S
O123 C117 1.268 . S
O124 Sc112 2.105 1_554 S
O124 C118 1.268 . S
O125 Sc111 2.105 . S
O125 C119 1.268 . S
O126 Sc110 2.105 . S
O126 C118 1.268 . S
O127 Sc111 2.105 . S
O127 C117 1.268 1_556 S
O128 Sc112 2.105 . S
O128 C119 1.268 . S
O129 Sc110 2.105 1_556 S
O129 C115 1.268 . S
O130 Sc112 2.105 . S
O130 C114 1.268 1_556 S
O131 Sc111 2.105 . S
O131 C116 1.268 . S
Sc132 O135 2.025 . S
Sc132 O142 2.105 . S
Sc132 O145 2.105 . S
Sc132 O148 2.105 . S
Sc132 O151 2.105 . S
Sc133 O135 2.025 . S
Sc133 O143 2.105 . S
Sc133 O147 2.105 . S
Sc133 O149 2.105 . S
Sc133 O153 2.105 . S
Sc134 O135 2.025 . S
Sc134 O144 2.105 . S
Sc134 O146 2.105 . S
Sc134 O150 2.105 . S
Sc134 O152 2.105 . S
O135 Sc132 2.025 . S
O135 Sc133 2.025 . S
O135 Sc134 2.025 . S
C136 O142 1.268 . S
C136 O152 1.268 . S
C137 O143 1.268 . S
C137 O151 1.268 . S
C138 O144 1.268 . S
C138 O153 1.268 . S
C139 O145 1.268 . S
C139 O149 1.268 . S
C140 O146 1.268 . S
C140 O148 1.268 . S
C141 O147 1.268 . S
C141 O150 1.268 . S
O142 Sc132 2.105 . S
O142 C136 1.268 . S
O143 Sc133 2.105 . S
O143 C137 1.268 . S
O144 Sc134 2.105 . S
O144 C138 1.268 . S
O145 Sc132 2.105 . S
O145 C139 1.268 . S
O146 Sc134 2.105 . S
O146 C140 1.268 . S
O147 Sc133 2.105 . S
O147 C141 1.268 . S
O148 Sc132 2.105 . S
O148 C140 1.268 . S
O149 Sc133 2.105 . S
O149 C139 1.268 . S
O150 Sc134 2.105 . S
O150 C141 1.268 . S
O151 Sc132 2.105 . S
O151 C137 1.268 . S
O152 Sc134 2.105 . S
O152 C136 1.268 . S
O153 Sc133 2.105 . S
O153 C138 1.268 . S
Sc154 O157 2.025 . S
Sc154 O164 2.105 . S
Sc154 O167 2.105 . S
Sc154 O170 2.105 . S
Sc154 O173 2.105 1_565 S
Sc155 O157 2.025 . S
Sc155 O165 2.105 . S
Sc155 O169 2.105 . S
Sc155 O171 2.105 . S
Sc155 O175 2.105 . S
Sc156 O157 2.025 . S
Sc156 O166 2.105 . S
Sc156 O168 2.105 . S
Sc156 O172 2.105 . S
Sc156 O174 2.105 . S
O157 Sc154 2.025 . S
O157 Sc155 2.025 . S
O157 Sc156 2.025 . S
C158 O164 1.268 . S
C158 O174 1.268 . S
C159 O165 1.268 1_545 S
C159 O173 1.268 . S
C160 O166 1.268 . S
C160 O175 1.268 . S
C161 O167 1.268 . S
C161 O171 1.268 . S
C162 O168 1.268 . S
C162 O170 1.268 . S
C163 O169 1.268 . S
C163 O172 1.268 . S
O164 Sc154 2.105 . S
O164 C158 1.268 . S
O165 Sc155 2.105 . S
O165 C159 1.268 1_565 S
O166 Sc156 2.105 . S
O166 C160 1.268 . S
O167 Sc154 2.105 . S
O167 C161 1.268 . S
O168 Sc156 2.105 . S
O168 C162 1.268 . S
O169 Sc155 2.105 . S
O169 C163 1.268 . S
O170 Sc154 2.105 . S
O170 C162 1.268 . S
O171 Sc155 2.105 . S
O171 C161 1.268 . S
O172 Sc156 2.105 . S
O172 C163 1.268 . S
O173 Sc154 2.105 1_545 S
O173 C159 1.268 . S
O174 Sc156 2.105 . S
O174 C158 1.268 . S
O175 Sc155 2.105 . S
O175 C160 1.268 . S
Sc176 O179 2.025 . S
Sc176 O186 2.105 . S
Sc176 O189 2.105 . S
Sc176 O192 2.105 . S
Sc176 O195 2.105 . S
Sc177 O179 2.025 . S
Sc177 O187 2.105 . S
Sc177 O191 2.105 . S
Sc177 O193 2.105 . S
Sc177 O197 2.105 . S
Sc178 O179 2.025 . S
Sc178 O188 2.105 . S
Sc178 O190 2.105 . S
Sc178 O194 2.105 . S
Sc178 O196 2.105 . S
O179 Sc176 2.025 . S
O179 Sc177 2.025 . S
O179 Sc178 2.025 . S
C180 O186 1.268 . S
C180 O196 1.268 . S
C181 O187 1.268 . S
C181 O195 1.268 . S
C182 O188 1.268 . S
C182 O197 1.268 . S
C183 O189 1.268 . S
C183 O193 1.268 . S
C184 O190 1.268 . S
C184 O192 1.268 . S
C185 O191 1.268 . S
C185 O194 1.268 . S
O186 Sc176 2.105 . S
O186 C180 1.268 . S
O187 Sc177 2.105 . S
O187 C181 1.268 . S
O188 Sc178 2.105 . S
O188 C182 1.268 . S
O189 Sc176 2.105 . S
O189 C183 1.268 . S
O190 Sc178 2.105 . S
O190 C184 1.268 . S
O191 Sc177 2.105 . S
O191 C185 1.268 . S
O192 Sc176 2.105 . S
O192 C184 1.268 . S
O193 Sc177 2.105 . S
O193 C183 1.268 . S
O194 Sc178 2.105 . S
O194 C185 1.268 . S
O195 Sc176 2.105 . S
O195 C181 1.268 . S
O196 Sc178 2.105 . S
O196 C180 1.268 . S
O197 Sc177 2.105 . S
O197 C182 1.268 . S
Sc198 O201 2.025 . S
Sc198 O208 2.105 . S
Sc198 O211 2.105 . S
Sc198 O214 2.105 . S
Sc198 O217 2.105 . S
Sc199 O201 2.025 . S
Sc199 O209 2.105 . S
Sc199 O213 2.105 . S
Sc199 O215 2.105 . S
Sc199 O219 2.105 . S
Sc200 O201 2.025 . S
Sc200 O210 2.105 . S
Sc200 O212 2.105 . S
Sc200 O216 2.105 . S
Sc200 O218 2.105 . S
O201 Sc198 2.025 . S
O201 Sc199 2.025 . S
O201 Sc200 2.025 . S
C202 O208 1.268 . S
C202 O218 1.268 . S
C203 O209 1.268 . S
C203 O217 1.268 . S
C204 O210 1.268 . S
C204 O219 1.268 . S
C205 O211 1.268 . S
C205 O215 1.268 . S
C206 O212 1.268 . S
C206 O214 1.268 . S
C207 O213 1.268 . S
C207 O216 1.268 . S
O208 Sc198 2.105 . S
O208 C202 1.268 . S
O209 Sc199 2.105 . S
O209 C203 1.268 . S
O210 Sc200 2.105 . S
O210 C204 1.268 . S
O211 Sc198 2.105 . S
O211 C205 1.268 . S
O212 Sc200 2.105 . S
O212 C206 1.268 . S
O213 Sc199 2.105 . S
O213 C207 1.268 . S
O214 Sc198 2.105 . S
O214 C206 1.268 . S
O215 Sc199 2.105 . S
O215 C205 1.268 . S
O216 Sc200 2.105 . S
O216 C207 1.268 . S
O217 Sc198 2.105 . S
O217 C203 1.268 . S
O218 Sc200 2.105 . S
O218 C202 1.268 . S
O219 Sc199 2.105 . S
O219 C204 1.268 . S
Sc220 O223 2.025 . S
Sc220 O230 2.105 . S
Sc220 O233 2.105 . S
Sc220 O236 2.105 . S
Sc220 O239 2.105 . S
Sc221 O223 2.025 . S
Sc221 O231 2.105 . S
Sc221 O235 2.105 . S
Sc221 O237 2.105 . S
Sc221 O241 2.105 . S
Sc222 O223 2.025 . S
Sc222 O232 2.105 . S
Sc222 O234 2.105 . S
Sc222 O238 2.105 . S
Sc222 O240 2.105 . S
O223 Sc220 2.025 . S
O223 Sc221 2.025 . S
O223 Sc222 2.025 . S
C224 O230 1.268 . S
C224 O240 1.268 . S
C225 O231 1.268 . S
C225 O239 1.268 . S
C226 O232 1.268 . S
C226 O241 1.268 . S
C227 O233 1.268 . S
C227 O237 1.268 . S
C228 O234 1.268 . S
C228 O236 1.268 . S
C229 O235 1.268 . S
C229 O238 1.268 . S
O230 Sc220 2.105 . S
O230 C224 1.268 . S
O231 Sc221 2.105 . S
O231 C225 1.268 . S
O232 Sc222 2.105 . S
O232 C226 1.268 . S
O233 Sc220 2.105 . S
O233 C227 1.268 . S
O234 Sc222 2.105 . S
O234 C228 1.268 . S
O235 Sc221 2.105 . S
O235 C229 1.268 . S
O236 Sc220 2.105 . S
O236 C228 1.268 . S
O237 Sc221 2.105 . S
O237 C227 1.268 . S
O238 Sc222 2.105 . S
O238 C229 1.268 . S
O239 Sc220 2.105 . S
O239 C225 1.268 . S
O240 Sc222 2.105 . S
O240 C224 1.268 . S
O241 Sc221 2.105 . S
O241 C226 1.268 . S
Sc242 O245 2.025 . S
Sc242 O252 2.105 . S
Sc242 O255 2.105 . S
Sc242 O258 2.105 . S
Sc242 O261 2.105 . S
Sc243 O245 2.025 . S
Sc243 O253 2.105 . S
Sc243 O257 2.105 . S
Sc243 O259 2.105 . S
Sc243 O263 2.105 . S
Sc244 O245 2.025 . S
Sc244 O254 2.105 . S
Sc244 O256 2.105 . S
Sc244 O260 2.105 . S
Sc244 O262 2.105 . S
O245 Sc242 2.025 . S
O245 Sc243 2.025 . S
O245 Sc244 2.025 . S
C246 O252 1.268 . S
C246 O262 1.268 . S
C247 O253 1.268 . S
C247 O261 1.268 . S
C248 O254 1.268 . S
C248 O263 1.268 . S
C249 O255 1.268 . S
C249 O259 1.268 . S
C250 O256 1.268 . S
C250 O258 1.268 . S
C251 O257 1.268 . S
C251 O260 1.268 . S
O252 Sc242 2.105 . S
O252 C246 1.268 . S
O253 Sc243 2.105 . S
O253 C247 1.268 . S
O254 Sc244 2.105 . S
O254 C248 1.268 . S
O255 Sc242 2.105 . S
O255 C249 1.268 . S
O256 Sc244 2.105 . S
O256 C250 1.268 . S
O257 Sc243 2.105 . S
O257 C251 1.268 . S
O258 Sc242 2.105 . S
O258 C250 1.268 . S
O259 Sc243 2.105 . S
O259 C249 1.268 . S
O260 Sc244 2.105 . S
O260 C251 1.268 . S
O261 Sc242 2.105 . S
O261 C247 1.268 . S
O262 Sc244 2.105 . S
O262 C246 1.268 . S
O263 Sc243 2.105 . S
O263 C248 1.268 . S
Sc264 O267 2.025 . S
Sc264 O274 2.105 . S
Sc264 O277 2.105 . S
Sc264 O280 2.105 . S
Sc264 O283 2.105 . S
Sc265 O267 2.025 . S
Sc265 O275 2.105 . S
Sc265 O279 2.105 . S
Sc265 O281 2.105 . S
Sc265 O285 2.105 . S
Sc266 O267 2.025 . S
Sc266 O276 2.105 . S
Sc266 O278 2.105 . S
Sc266 O282 2.105 . S
Sc266 O284 2.105 . S
O267 Sc264 2.025 . S
O267 Sc265 2.025 . S
O267 Sc266 2.025 . S
C268 O274 1.268 . S
C268 O284 1.268 . S
C269 O275 1.268 . S
C269 O283 1.268 . S
C270 O276 1.268 . S
C270 O285 1.268 . S
C271 O277 1.268 . S
C271 O281 1.268 . S
C272 O278 1.268 . S
C272 O280 1.268 . S
C273 O279 1.268 . S
C273 O282 1.268 . S
O274 Sc264 2.105 . S
O274 C268 1.268 . S
O275 Sc265 2.105 . S
O275 C269 1.268 . S
O276 Sc266 2.105 . S
O276 C270 1.268 . S
O277 Sc264 2.105 . S
O277 C271 1.268 . S
O278 Sc266 2.105 . S
O278 C272 1.268 . S
O279 Sc265 2.105 . S
O279 C273 1.268 . S
O280 Sc264 2.105 . S
O280 C272 1.268 . S
O281 Sc265 2.105 . S
O281 C271 1.268 . S
O282 Sc266 2.105 . S
O282 C273 1.268 . S
O283 Sc264 2.105 . S
O283 C269 1.268 . S
O284 Sc266 2.105 . S
O284 C268 1.268 . S
O285 Sc265 2.105 . S
O285 C270 1.268 . S
Sc286 O289 2.025 . S
Sc286 O296 2.105 . S
Sc286 O299 2.105 . S
Sc286 O302 2.105 . S
Sc286 O305 2.105 . S
Sc287 O289 2.025 . S
Sc287 O297 2.105 . S
Sc287 O301 2.105 . S
Sc287 O303 2.105 . S
Sc287 O307 2.105 . S
Sc288 O289 2.025 . S
Sc288 O298 2.105 . S
Sc288 O300 2.105 . S
Sc288 O304 2.105 . S
Sc288 O306 2.105 . S
O289 Sc286 2.025 . S
O289 Sc287 2.025 . S
O289 Sc288 2.025 . S
C290 O296 1.268 . S
C290 O306 1.268 . S
C291 O297 1.268 . S
C291 O305 1.268 . S
C292 O298 1.268 . S
C292 O307 1.268 . S
C293 O299 1.268 . S
C293 O303 1.268 . S
C294 O300 1.268 . S
C294 O302 1.268 . S
C295 O301 1.268 . S
C295 O304 1.268 . S
O296 Sc286 2.105 . S
O296 C290 1.268 . S
O297 Sc287 2.105 . S
O297 C291 1.268 . S
O298 Sc288 2.105 . S
O298 C292 1.268 . S
O299 Sc286 2.105 . S
O299 C293 1.268 . S
O300 Sc288 2.105 . S
O300 C294 1.268 . S
O301 Sc287 2.105 . S
O301 C295 1.268 . S
O302 Sc286 2.105 . S
O302 C294 1.268 . S
O303 Sc287 2.105 . S
O303 C293 1.268 . S
O304 Sc288 2.105 . S
O304 C295 1.268 . S
O305 Sc286 2.105 . S
O305 C291 1.268 . S
O306 Sc288 2.105 . S
O306 C290 1.268 . S
O307 Sc287 2.105 . S
O307 C292 1.268 . S
Sc308 O311 2.025 . S
Sc308 O318 2.105 . S
Sc308 O321 2.105 . S
Sc308 O324 2.105 . S
Sc308 O327 2.105 . S
Sc309 O311 2.025 . S
Sc309 O319 2.105 . S
Sc309 O323 2.105 . S
Sc309 O325 2.105 . S
Sc309 O329 2.105 . S
Sc310 O311 2.025 . S
Sc310 O320 2.105 . S
Sc310 O322 2.105 . S
Sc310 O326 2.105 . S
Sc310 O328 2.105 . S
O311 Sc308 2.025 . S
O311 Sc309 2.025 . S
O311 Sc310 2.025 . S
C312 O318 1.268 . S
C312 O328 1.268 . S
C313 O319 1.268 . S
C313 O327 1.268 . S
C314 O320 1.268 . S
C314 O329 1.268 . S
C315 O321 1.268 . S
C315 O325 1.268 . S
C316 O322 1.268 . S
C316 O324 1.268 . S
C317 O323 1.268 . S
C317 O326 1.268 . S
O318 Sc308 2.105 . S
O318 C312 1.268 . S
O319 Sc309 2.105 . S
O319 C313 1.268 . S
O320 Sc310 2.105 . S
O320 C314 1.268 . S
O321 Sc308 2.105 . S
O321 C315 1.268 . S
O322 Sc310 2.105 . S
O322 C316 1.268 . S
O323 Sc309 2.105 . S
O323 C317 1.268 . S
O324 Sc308 2.105 . S
O324 C316 1.268 . S
O325 Sc309 2.105 . S
O325 C315 1.268 . S
O326 Sc310 2.105 . S
O326 C317 1.268 . S
O327 Sc308 2.105 . S
O327 C313 1.268 . S
O328 Sc310 2.105 . S
O328 C312 1.268 . S
O329 Sc309 2.105 . S
O329 C314 1.268 . S
Sc330 O333 2.025 . S
Sc330 O340 2.105 . S
Sc330 O343 2.105 . S
Sc330 O346 2.105 . S
Sc330 O349 2.105 . S
Sc331 O333 2.025 . S
Sc331 O341 2.105 . S
Sc331 O345 2.105 . S
Sc331 O347 2.105 . S
Sc331 O351 2.105 . S
Sc332 O333 2.025 . S
Sc332 O342 2.105 . S
Sc332 O344 2.105 . S
Sc332 O348 2.105 . S
Sc332 O350 2.105 . S
O333 Sc330 2.025 . S
O333 Sc331 2.025 . S
O333 Sc332 2.025 . S
C334 O340 1.268 . S
C334 O350 1.268 . S
C335 O341 1.268 . S
C335 O349 1.268 . S
C336 O342 1.268 . S
C336 O351 1.268 . S
C337 O343 1.268 . S
C337 O347 1.268 . S
C338 O344 1.268 . S
C338 O346 1.268 . S
C339 O345 1.268 . S
C339 O348 1.268 . S
O340 Sc330 2.105 . S
O340 C334 1.268 . S
O341 Sc331 2.105 . S
O341 C335 1.268 . S
O342 Sc332 2.105 . S
O342 C336 1.268 . S
O343 Sc330 2.105 . S
O343 C337 1.268 . S
O344 Sc332 2.105 . S
O344 C338 1.268 . S
O345 Sc331 2.105 . S
O345 C339 1.268 . S
O346 Sc330 2.105 . S
O346 C338 1.268 . S
O347 Sc331 2.105 . S
O347 C337 1.268 . S
O348 Sc332 2.105 . S
O348 C339 1.268 . S
O349 Sc330 2.105 . S
O349 C335 1.268 . S
O350 Sc332 2.105 . S
O350 C334 1.268 . S
O351 Sc331 2.105 . S
O351 C336 1.268 . S
Sc352 O355 2.025 . S
Sc352 O362 2.105 . S
Sc352 O365 2.105 1_545 S
Sc352 O368 2.105 . S
Sc352 O371 2.105 . S
Sc353 O355 2.025 . S
Sc353 O363 2.105 . S
Sc353 O367 2.105 . S
Sc353 O369 2.105 . S
Sc353 O373 2.105 . S
Sc354 O355 2.025 . S
Sc354 O364 2.105 . S
Sc354 O366 2.105 . S
Sc354 O370 2.105 . S
Sc354 O372 2.105 . S
O355 Sc352 2.025 . S
O355 Sc353 2.025 . S
O355 Sc354 2.025 . S
C356 O362 1.268 . S
C356 O372 1.268 . S
C357 O363 1.268 . S
C357 O371 1.268 . S
C358 O364 1.268 . S
C358 O373 1.268 . S
C359 O365 1.268 . S
C359 O369 1.268 1_565 S
C360 O366 1.268 . S
C360 O368 1.268 . S
C361 O367 1.268 . S
C361 O370 1.268 . S
O362 Sc352 2.105 . S
O362 C356 1.268 . S
O363 Sc353 2.105 . S
O363 C357 1.268 . S
O364 Sc354 2.105 . S
O364 C358 1.268 . S
O365 Sc352 2.105 1_565 S
O365 C359 1.268 . S
O366 Sc354 2.105 . S
O366 C360 1.268 . S
O367 Sc353 2.105 . S
O367 C361 1.268 . S
O368 Sc352 2.105 . S
O368 C360 1.268 . S
O369 Sc353 2.105 . S
O369 C359 1.268 1_545 S
O370 Sc354 2.105 . S
O370 C361 1.268 . S
O371 Sc352 2.105 . S
O371 C357 1.268 . S
O372 Sc354 2.105 . S
O372 C356 1.268 . S
O373 Sc353 2.105 . S
O373 C358 1.268 . S
Sc374 O377 2.025 . S
Sc374 O384 2.105 . S
Sc374 O387 2.105 . S
Sc374 O390 2.105 . S
Sc374 O393 2.105 . S
Sc375 O377 2.025 . S
Sc375 O385 2.105 . S
Sc375 O389 2.105 . S
Sc375 O391 2.105 . S
Sc375 O395 2.105 . S
Sc376 O377 2.025 . S
Sc376 O386 2.105 . S
Sc376 O388 2.105 . S
Sc376 O392 2.105 . S
Sc376 O394 2.105 . S
O377 Sc374 2.025 . S
O377 Sc375 2.025 . S
O377 Sc376 2.025 . S
C378 O384 1.268 . S
C378 O394 1.268 . S
C379 O385 1.268 . S
C379 O393 1.268 . S
C380 O386 1.268 . S
C380 O395 1.268 . S
C381 O387 1.268 . S
C381 O391 1.268 . S
C382 O388 1.268 . S
C382 O390 1.268 . S
C383 O389 1.268 . S
C383 O392 1.268 . S
O384 Sc374 2.105 . S
O384 C378 1.268 . S
O385 Sc375 2.105 . S
O385 C379 1.268 . S
O386 Sc376 2.105 . S
O386 C380 1.268 . S
O387 Sc374 2.105 . S
O387 C381 1.268 . S
O388 Sc376 2.105 . S
O388 C382 1.268 . S
O389 Sc375 2.105 . S
O389 C383 1.268 . S
O390 Sc374 2.105 . S
O390 C382 1.268 . S
O391 Sc375 2.105 . S
O391 C381 1.268 . S
O392 Sc376 2.105 . S
O392 C383 1.268 . S
O393 Sc374 2.105 . S
O393 C379 1.268 . S
O394 Sc376 2.105 . S
O394 C378 1.268 . S
O395 Sc375 2.105 . S
O395 C380 1.268 . S
Sc396 O399 2.025 . S
Sc396 O406 2.105 . S
Sc396 O409 2.105 . S
Sc396 O412 2.105 . S
Sc396 O415 2.105 . S
Sc397 O399 2.025 . S
Sc397 O407 2.105 . S
Sc397 O411 2.105 . S
Sc397 O413 2.105 . S
Sc397 O417 2.105 . S
Sc398 O399 2.025 . S
Sc398 O408 2.105 . S
Sc398 O410 2.105 . S
Sc398 O414 2.105 . S
Sc398 O416 2.105 . S
O399 Sc396 2.025 . S
O399 Sc397 2.025 . S
O399 Sc398 2.025 . S
C400 O406 1.268 . S
C400 O416 1.268 . S
C401 O407 1.268 . S
C401 O415 1.268 . S
C402 O408 1.268 . S
C402 O417 1.268 . S
C403 O409 1.268 . S
C403 O413 1.268 . S
C404 O410 1.268 . S
C404 O412 1.268 . S
C405 O411 1.268 . S
C405 O414 1.268 . S
O406 Sc396 2.105 . S
O406 C400 1.268 . S
O407 Sc397 2.105 . S
O407 C401 1.268 . S
O408 Sc398 2.105 . S
O408 C402 1.268 . S
O409 Sc396 2.105 . S
O409 C403 1.268 . S
O410 Sc398 2.105 . S
O410 C404 1.268 . S
O411 Sc397 2.105 . S
O411 C405 1.268 . S
O412 Sc396 2.105 . S
O412 C404 1.268 . S
O413 Sc397 2.105 . S
O413 C403 1.268 . S
O414 Sc398 2.105 . S
O414 C405 1.268 . S
O415 Sc396 2.105 . S
O415 C401 1.268 . S
O416 Sc398 2.105 . S
O416 C400 1.268 . S
O417 Sc397 2.105 . S
O417 C402 1.268 . S
Sc418 O421 2.025 . S
Sc418 O428 2.105 . S
Sc418 O431 2.105 . S
Sc418 O434 2.105 . S
Sc418 O437 2.105 . S
Sc419 O421 2.025 . S
Sc419 O429 2.105 . S
Sc419 O433 2.105 . S
Sc419 O435 2.105 . S
Sc419 O439 2.105 . S
Sc420 O421 2.025 . S
Sc420 O430 2.105 1_545 S
Sc420 O432 2.105 . S
Sc420 O436 2.105 . S
Sc420 O438 2.105 . S
O421 Sc418 2.025 . S
O421 Sc419 2.025 . S
O421 Sc420 2.025 . S
C422 O428 1.268 . S
C422 O438 1.268 . S
C423 O429 1.268 . S
C423 O437 1.268 . S
C424 O430 1.268 . S
C424 O439 1.268 1_565 S
C425 O431 1.268 . S
C425 O435 1.268 . S
C426 O432 1.268 . S
C426 O434 1.268 . S
C427 O433 1.268 . S
C427 O436 1.268 . S
O428 Sc418 2.105 . S
O428 C422 1.268 . S
O429 Sc419 2.105 . S
O429 C423 1.268 . S
O430 Sc420 2.105 1_565 S
O430 C424 1.268 . S
O431 Sc418 2.105 . S
O431 C425 1.268 . S
O432 Sc420 2.105 . S
O432 C426 1.268 . S
O433 Sc419 2.105 . S
O433 C427 1.268 . S
O434 Sc418 2.105 . S
O434 C426 1.268 . S
O435 Sc419 2.105 . S
O435 C425 1.268 . S
O436 Sc420 2.105 . S
O436 C427 1.268 . S
O437 Sc418 2.105 . S
O437 C423 1.268 . S
O438 Sc420 2.105 . S
O438 C422 1.268 . S
O439 Sc419 2.105 . S
O439 C424 1.268 1_545 S
Sc440 O443 2.025 . S
Sc440 O450 2.105 . S
Sc440 O453 2.105 . S
Sc440 O456 2.105 . S
Sc440 O459 2.105 . S
Sc441 O443 2.025 . S
Sc441 O451 2.105 . S
Sc441 O455 2.105 . S
Sc441 O457 2.105 . S
Sc441 O461 2.105 . S
Sc442 O443 2.025 . S
Sc442 O452 2.105 . S
Sc442 O454 2.105 . S
Sc442 O458 2.105 1_565 S
Sc442 O460 2.105 . S
O443 Sc440 2.025 . S
O443 Sc441 2.025 . S
O443 Sc442 2.025 . S
C444 O450 1.268 . S
C444 O460 1.268 . S
C445 O451 1.268 . S
C445 O459 1.268 . S
C446 O452 1.268 . S
C446 O461 1.268 . S
C447 O453 1.268 . S
C447 O457 1.268 . S
C448 O454 1.268 . S
C448 O456 1.268 . S
C449 O455 1.268 1_545 S
C449 O458 1.268 . S
O450 Sc440 2.105 . S
O450 C444 1.268 . S
O451 Sc441 2.105 . S
O451 C445 1.268 . S
O452 Sc442 2.105 . S
O452 C446 1.268 . S
O453 Sc440 2.105 . S
O453 C447 1.268 . S
O454 Sc442 2.105 . S
O454 C448 1.268 . S
O455 Sc441 2.105 . S
O455 C449 1.268 1_565 S
O456 Sc440 2.105 . S
O456 C448 1.268 . S
O457 Sc441 2.105 . S
O457 C447 1.268 . S
O458 Sc442 2.105 1_545 S
O458 C449 1.268 . S
O459 Sc440 2.105 . S
O459 C445 1.268 . S
O460 Sc442 2.105 . S
O460 C444 1.268 . S
O461 Sc441 2.105 . S
O461 C446 1.268 . S
Sc462 O465 2.025 . S
Sc462 O472 2.105 . S
Sc462 O475 2.105 . S
Sc462 O478 2.105 . S
Sc462 O481 2.105 . S
Sc463 O465 2.025 . S
Sc463 O473 2.105 . S
Sc463 O477 2.105 . S
Sc463 O479 2.105 . S
Sc463 O483 2.105 . S
Sc464 O465 2.025 . S
Sc464 O474 2.105 . S
Sc464 O476 2.105 . S
Sc464 O480 2.105 . S
Sc464 O482 2.105 . S
O465 Sc462 2.025 . S
O465 Sc463 2.025 . S
O465 Sc464 2.025 . S
C466 O472 1.268 . S
C466 O482 1.268 . S
C467 O473 1.268 . S
C467 O481 1.268 . S
C468 O474 1.268 . S
C468 O483 1.268 . S
C469 O475 1.268 . S
C469 O479 1.268 . S
C470 O476 1.268 . S
C470 O478 1.268 . S
C471 O477 1.268 . S
C471 O480 1.268 . S
O472 Sc462 2.105 . S
O472 C466 1.268 . S
O473 Sc463 2.105 . S
O473 C467 1.268 . S
O474 Sc464 2.105 . S
O474 C468 1.268 . S
O475 Sc462 2.105 . S
O475 C469 1.268 . S
O476 Sc464 2.105 . S
O476 C470 1.268 . S
O477 Sc463 2.105 . S
O477 C471 1.268 . S
O478 Sc462 2.105 . S
O478 C470 1.268 . S
O479 Sc463 2.105 . S
O479 C469 1.268 . S
O480 Sc464 2.105 . S
O480 C471 1.268 . S
O481 Sc462 2.105 . S
O481 C467 1.268 . S
O482 Sc464 2.105 . S
O482 C466 1.268 . S
O483 Sc463 2.105 . S
O483 C468 1.268 . S
Sc484 O487 2.025 . S
Sc484 O494 2.105 . S
Sc484 O497 2.105 . S
Sc484 O500 2.105 . S
Sc484 O503 2.105 . S
Sc485 O487 2.025 . S
Sc485 O495 2.105 . S
Sc485 O499 2.105 . S
Sc485 O501 2.105 . S
Sc485 O505 2.105 . S
Sc486 O487 2.025 . S
Sc486 O496 2.105 . S
Sc486 O498 2.105 . S
Sc486 O502 2.105 . S
Sc486 O504 2.105 . S
O487 Sc484 2.025 . S
O487 Sc485 2.025 . S
O487 Sc486 2.025 . S
C488 O494 1.268 . S
C488 O504 1.268 . S
C489 O495 1.268 . S
C489 O503 1.268 . S
C490 O496 1.268 . S
C490 O505 1.268 . S
C491 O497 1.268 . S
C491 O501 1.268 . S
C492 O498 1.268 . S
C492 O500 1.268 . S
C493 O499 1.268 . S
C493 O502 1.268 . S
O494 Sc484 2.105 . S
O494 C488 1.268 . S
O495 Sc485 2.105 . S
O495 C489 1.268 . S
O496 Sc486 2.105 . S
O496 C490 1.268 . S
O497 Sc484 2.105 . S
O497 C491 1.268 . S
O498 Sc486 2.105 . S
O498 C492 1.268 . S
O499 Sc485 2.105 . S
O499 C493 1.268 . S
O500 Sc484 2.105 . S
O500 C492 1.268 . S
O501 Sc485 2.105 . S
O501 C491 1.268 . S
O502 Sc486 2.105 . S
O502 C493 1.268 . S
O503 Sc484 2.105 . S
O503 C489 1.268 . S
O504 Sc486 2.105 . S
O504 C488 1.268 . S
O505 Sc485 2.105 . S
O505 C490 1.268 . S
Sc506 O509 2.025 . S
Sc506 O516 2.105 . S
Sc506 O519 2.105 . S
Sc506 O522 2.105 . S
Sc506 O525 2.105 1_565 S
Sc507 O509 2.025 . S
Sc507 O517 2.105 . S
Sc507 O521 2.105 . S
Sc507 O523 2.105 . S
Sc507 O527 2.105 . S
Sc508 O509 2.025 . S
Sc508 O518 2.105 . S
Sc508 O520 2.105 . S
Sc508 O524 2.105 . S
Sc508 O526 2.105 . S
O509 Sc506 2.025 . S
O509 Sc507 2.025 . S
O509 Sc508 2.025 . S
C510 O516 1.268 . S
C510 O526 1.268 . S
C511 O517 1.268 1_545 S
C511 O525 1.268 . S
C512 O518 1.268 . S
C512 O527 1.268 . S
C513 O519 1.268 . S
C513 O523 1.268 . S
C514 O520 1.268 . S
C514 O522 1.268 . S
C515 O521 1.268 . S
C515 O524 1.268 . S
O516 Sc506 2.105 . S
O516 C510 1.268 . S
O517 Sc507 2.105 . S
O517 C511 1.268 1_565 S
O518 Sc508 2.105 . S
O518 C512 1.268 . S
O519 Sc506 2.105 . S
O519 C513 1.268 . S
O520 Sc508 2.105 . S
O520 C514 1.268 . S
O521 Sc507 2.105 . S
O521 C515 1.268 . S
O522 Sc506 2.105 . S
O522 C514 1.268 . S
O523 Sc507 2.105 . S
O523 C513 1.268 . S
O524 Sc508 2.105 . S
O524 C515 1.268 . S
O525 Sc506 2.105 1_545 S
O525 C511 1.268 . S
O526 Sc508 2.105 . S
O526 C510 1.268 . S
O527 Sc507 2.105 . S
O527 C512 1.268 . S
Sc528 O531 2.025 1_556 S
Sc528 O538 2.105 . S
Sc528 O541 2.105 1_556 S
Sc528 O544 2.105 . S
Sc528 O547 2.105 . S
Sc529 O531 2.025 . S
Sc529 O539 2.105 . S
Sc529 O543 2.105 . S
Sc529 O545 2.105 . S
Sc529 O549 2.105 . S
Sc530 O531 2.025 . S
Sc530 O540 2.105 . S
Sc530 O542 2.105 . S
Sc530 O546 2.105 . S
Sc530 O548 2.105 1_554 S
O531 Sc528 2.025 1_554 S
O531 Sc529 2.025 . S
O531 Sc530 2.025 . S
C532 O538 1.268 . S
C532 O548 1.268 . S
C533 O539 1.268 1_556 S
C533 O547 1.268 . S
C534 O540 1.268 . S
C534 O549 1.268 . S
C535 O541 1.268 . S
C535 O545 1.268 . S
C536 O542 1.268 1_556 S
C536 O544 1.268 . S
C537 O543 1.268 . S
C537 O546 1.268 . S
O538 Sc528 2.105 . S
O538 C532 1.268 . S
O539 Sc529 2.105 . S
O539 C533 1.268 1_554 S
O540 Sc530 2.105 . S
O540 C534 1.268 . S
O541 Sc528 2.105 1_554 S
O541 C535 1.268 . S
O542 Sc530 2.105 . S
O542 C536 1.268 1_554 S
O543 Sc529 2.105 . S
O543 C537 1.268 . S
O544 Sc528 2.105 . S
O544 C536 1.268 . S
O545 Sc529 2.105 . S
O545 C535 1.268 . S
O546 Sc530 2.105 . S
O546 C537 1.268 . S
O547 Sc528 2.105 . S
O547 C533 1.268 . S
O548 Sc530 2.105 1_556 S
O548 C532 1.268 . S
O549 Sc529 2.105 . S
O549 C534 1.268 . S
Sc550 O553 2.025 . S
Sc550 O560 2.105 . S
Sc550 O563 2.105 . S
Sc550 O566 2.105 1_554 S
Sc550 O569 2.105 . S
Sc551 O553 2.025 . S
Sc551 O561 2.105 . S
Sc551 O565 2.105 . S
Sc551 O567 2.105 . S
Sc551 O571 2.105 . S
Sc552 O553 2.025 1_556 S
Sc552 O562 2.105 1_556 S
Sc552 O564 2.105 . S
Sc552 O568 2.105 . S
Sc552 O570 2.105 . S
O553 Sc550 2.025 . S
O553 Sc551 2.025 . S
O553 Sc552 2.025 1_554 S
C554 O560 1.268 1_556 S
C554 O570 1.268 . S
C555 O561 1.268 . S
C555 O569 1.268 . S
C556 O562 1.268 . S
C556 O571 1.268 . S
C557 O563 1.268 . S
C557 O567 1.268 . S
C558 O564 1.268 . S
C558 O566 1.268 . S
C559 O565 1.268 1_556 S
C559 O568 1.268 . S
O560 Sc550 2.105 . S
O560 C554 1.268 1_554 S
O561 Sc551 2.105 . S
O561 C555 1.268 . S
O562 Sc552 2.105 1_554 S
O562 C556 1.268 . S
O563 Sc550 2.105 . S
O563 C557 1.268 . S
O564 Sc552 2.105 . S
O564 C558 1.268 . S
O565 Sc551 2.105 . S
O565 C559 1.268 1_554 S
O566 Sc550 2.105 1_556 S
O566 C558 1.268 . S
O567 Sc551 2.105 . S
O567 C557 1.268 . S
O568 Sc552 2.105 . S
O568 C559 1.268 . S
O569 Sc550 2.105 . S
O569 C555 1.268 . S
O570 Sc552 2.105 . S
O570 C554 1.268 . S
O571 Sc551 2.105 . S
O571 C556 1.268 . S
Sc572 O575 2.025 . S
Sc572 O582 2.105 . S
Sc572 O585 2.105 . S
Sc572 O588 2.105 . S
Sc572 O591 2.105 . S
Sc573 O575 2.025 . S
Sc573 O583 2.105 . S
Sc573 O587 2.105 . S
Sc573 O589 2.105 . S
Sc573 O593 2.105 . S
Sc574 O575 2.025 . S
Sc574 O584 2.105 . S
Sc574 O586 2.105 . S
Sc574 O590 2.105 . S
Sc574 O592 2.105 . S
O575 Sc572 2.025 . S
O575 Sc573 2.025 . S
O575 Sc574 2.025 . S
C576 O582 1.268 . S
C576 O592 1.268 . S
C577 O583 1.268 . S
C577 O591 1.268 . S
C578 O584 1.268 . S
C578 O593 1.268 . S
C579 O585 1.268 . S
C579 O589 1.268 . S
C580 O586 1.268 . S
C580 O588 1.268 . S
C581 O587 1.268 . S
C581 O590 1.268 . S
O582 Sc572 2.105 . S
O582 C576 1.268 . S
O583 Sc573 2.105 . S
O583 C577 1.268 . S
O584 Sc574 2.105 . S
O584 C578 1.268 . S
O585 Sc572 2.105 . S
O585 C579 1.268 . S
O586 Sc574 2.105 . S
O586 C580 1.268 . S
O587 Sc573 2.105 . S
O587 C581 1.268 . S
O588 Sc572 2.105 . S
O588 C580 1.268 . S
O589 Sc573 2.105 . S
O589 C579 1.268 . S
O590 Sc574 2.105 . S
O590 C581 1.268 . S
O591 Sc572 2.105 . S
O591 C577 1.268 . S
O592 Sc574 2.105 . S
O592 C576 1.268 . S
O593 Sc573 2.105 . S
O593 C578 1.268 . S
Sc594 O597 2.025 . S
Sc594 O604 2.105 . S
Sc594 O607 2.105 . S
Sc594 O610 2.105 . S
Sc594 O613 2.105 . S
Sc595 O597 2.025 . S
Sc595 O605 2.105 . S
Sc595 O609 2.105 . S
Sc595 O611 2.105 . S
Sc595 O615 2.105 . S
Sc596 O597 2.025 . S
Sc596 O606 2.105 . S
Sc596 O608 2.105 . S
Sc596 O612 2.105 . S
Sc596 O614 2.105 . S
O597 Sc594 2.025 . S
O597 Sc595 2.025 . S
O597 Sc596 2.025 . S
C598 O604 1.268 . S
C598 O614 1.268 . S
C599 O605 1.268 . S
C599 O613 1.268 . S
C600 O606 1.268 . S
C600 O615 1.268 . S
C601 O607 1.268 . S
C601 O611 1.268 . S
C602 O608 1.268 . S
C602 O610 1.268 . S
C603 O609 1.268 . S
C603 O612 1.268 . S
O604 Sc594 2.105 . S
O604 C598 1.268 . S
O605 Sc595 2.105 . S
O605 C599 1.268 . S
O606 Sc596 2.105 . S
O606 C600 1.268 . S
O607 Sc594 2.105 . S
O607 C601 1.268 . S
O608 Sc596 2.105 . S
O608 C602 1.268 . S
O609 Sc595 2.105 . S
O609 C603 1.268 . S
O610 Sc594 2.105 . S
O610 C602 1.268 . S
O611 Sc595 2.105 . S
O611 C601 1.268 . S
O612 Sc596 2.105 . S
O612 C603 1.268 . S
O613 Sc594 2.105 . S
O613 C599 1.268 . S
O614 Sc596 2.105 . S
O614 C598 1.268 . S
O615 Sc595 2.105 . S
O615 C600 1.268 . S
Sc616 O619 2.025 . S
Sc616 O626 2.105 1_556 S
Sc616 O629 2.105 . S
Sc616 O632 2.105 . S
Sc616 O635 2.105 . S
Sc617 O619 2.025 . S
Sc617 O627 2.105 . S
Sc617 O631 2.105 . S
Sc617 O633 2.105 . S
Sc617 O637 2.105 . S
Sc618 O619 2.025 1_554 S
Sc618 O628 2.105 . S
Sc618 O630 2.105 . S
Sc618 O634 2.105 1_554 S
Sc618 O636 2.105 . S
O619 Sc616 2.025 . S
O619 Sc617 2.025 . S
O619 Sc618 2.025 1_556 S
C620 O626 1.268 . S
C620 O636 1.268 . S
C621 O627 1.268 . S
C621 O635 1.268 . S
C622 O628 1.268 . S
C622 O637 1.268 1_554 S
C623 O629 1.268 . S
C623 O633 1.268 . S
C624 O630 1.268 . S
C624 O632 1.268 1_554 S
C625 O631 1.268 . S
C625 O634 1.268 . S
O626 Sc616 2.105 1_554 S
O626 C620 1.268 . S
O627 Sc617 2.105 . S
O627 C621 1.268 . S
O628 Sc618 2.105 . S
O628 C622 1.268 . S
O629 Sc616 2.105 . S
O629 C623 1.268 . S
O630 Sc618 2.105 . S
O630 C624 1.268 . S
O631 Sc617 2.105 . S
O631 C625 1.268 . S
O632 Sc616 2.105 . S
O632 C624 1.268 1_556 S
O633 Sc617 2.105 . S
O633 C623 1.268 . S
O634 Sc618 2.105 1_556 S
O634 C625 1.268 . S
O635 Sc616 2.105 . S
O635 C621 1.268 . S
O636 Sc618 2.105 . S
O636 C620 1.268 . S
O637 Sc617 2.105 . S
O637 C622 1.268 1_556 S
Sc638 O641 2.025 1_554 S
Sc638 O648 2.105 . S
Sc638 O651 2.105 . S
Sc638 O654 2.105 . S
Sc638 O657 2.105 1_554 S
Sc639 O641 2.025 . S
Sc639 O649 2.105 . S
Sc639 O653 2.105 . S
Sc639 O655 2.105 . S
Sc639 O659 2.105 . S
Sc640 O641 2.025 . S
Sc640 O650 2.105 . S
Sc640 O652 2.105 1_556 S
Sc640 O656 2.105 . S
Sc640 O658 2.105 . S
O641 Sc638 2.025 1_556 S
O641 Sc639 2.025 . S
O641 Sc640 2.025 . S
C642 O648 1.268 . S
C642 O658 1.268 1_554 S
C643 O649 1.268 . S
C643 O657 1.268 . S
C644 O650 1.268 . S
C644 O659 1.268 . S
C645 O651 1.268 . S
C645 O655 1.268 1_554 S
C646 O652 1.268 . S
C646 O654 1.268 . S
C647 O653 1.268 . S
C647 O656 1.268 . S
O648 Sc638 2.105 . S
O648 C642 1.268 . S
O649 Sc639 2.105 . S
O649 C643 1.268 . S
O650 Sc640 2.105 . S
O650 C644 1.268 . S
O651 Sc638 2.105 . S
O651 C645 1.268 . S
O652 Sc640 2.105 1_554 S
O652 C646 1.268 . S
O653 Sc639 2.105 . S
O653 C647 1.268 . S
O654 Sc638 2.105 . S
O654 C646 1.268 . S
O655 Sc639 2.105 . S
O655 C645 1.268 1_556 S
O656 Sc640 2.105 . S
O656 C647 1.268 . S
O657 Sc638 2.105 1_556 S
O657 C643 1.268 . S
O658 Sc640 2.105 . S
O658 C642 1.268 1_556 S
O659 Sc639 2.105 . S
O659 C644 1.268 . S
Sc660 O663 2.025 . S
Sc660 O670 2.105 . S
Sc660 O673 2.105 . S
Sc660 O676 2.105 . S
Sc660 O679 2.105 . S
Sc661 O663 2.025 . S
Sc661 O671 2.105 . S
Sc661 O675 2.105 . S
Sc661 O677 2.105 . S
Sc661 O681 2.105 . S
Sc662 O663 2.025 . S
Sc662 O672 2.105 . S
Sc662 O674 2.105 . S
Sc662 O678 2.105 . S
Sc662 O680 2.105 . S
O663 Sc660 2.025 . S
O663 Sc661 2.025 . S
O663 Sc662 2.025 . S
C664 O670 1.268 . S
C664 O680 1.268 . S
C665 O671 1.268 . S
C665 O679 1.268 . S
C666 O672 1.268 . S
C666 O681 1.268 . S
C667 O673 1.268 . S
C667 O677 1.268 . S
C668 O674 1.268 . S
C668 O676 1.268 . S
C669 O675 1.268 . S
C669 O678 1.268 . S
O670 Sc660 2.105 . S
O670 C664 1.268 . S
O671 Sc661 2.105 . S
O671 C665 1.268 . S
O672 Sc662 2.105 . S
O672 C666 1.268 . S
O673 Sc660 2.105 . S
O673 C667 1.268 . S
O674 Sc662 2.105 . S
O674 C668 1.268 . S
O675 Sc661 2.105 . S
O675 C669 1.268 . S
O676 Sc660 2.105 . S
O676 C668 1.268 . S
O677 Sc661 2.105 . S
O677 C667 1.268 . S
O678 Sc662 2.105 . S
O678 C669 1.268 . S
O679 Sc660 2.105 . S
O679 C665 1.268 . S
O680 Sc662 2.105 . S
O680 C664 1.268 . S
O681 Sc661 2.105 . S
O681 C666 1.268 . S
Sc682 O685 2.025 . S
Sc682 O692 2.105 . S
Sc682 O695 2.105 . S
Sc682 O698 2.105 . S
Sc682 O701 2.105 . S
Sc683 O685 2.025 . S
Sc683 O693 2.105 . S
Sc683 O697 2.105 . S
Sc683 O699 2.105 . S
Sc683 O703 2.105 . S
Sc684 O685 2.025 . S
Sc684 O694 2.105 . S
Sc684 O696 2.105 . S
Sc684 O700 2.105 . S
Sc684 O702 2.105 . S
O685 Sc682 2.025 . S
O685 Sc683 2.025 . S
O685 Sc684 2.025 . S
C686 O692 1.268 . S
C686 O702 1.268 . S
C687 O693 1.268 . S
C687 O701 1.268 . S
C688 O694 1.268 . S
C688 O703 1.268 . S
C689 O695 1.268 . S
C689 O699 1.268 . S
C690 O696 1.268 . S
C690 O698 1.268 . S
C691 O697 1.268 . S
C691 O700 1.268 . S
O692 Sc682 2.105 . S
O692 C686 1.268 . S
O693 Sc683 2.105 . S
O693 C687 1.268 . S
O694 Sc684 2.105 . S
O694 C688 1.268 . S
O695 Sc682 2.105 . S
O695 C689 1.268 . S
O696 Sc684 2.105 . S
O696 C690 1.268 . S
O697 Sc683 2.105 . S
O697 C691 1.268 . S
O698 Sc682 2.105 . S
O698 C690 1.268 . S
O699 Sc683 2.105 . S
O699 C689 1.268 . S
O700 Sc684 2.105 . S
O700 C691 1.268 . S
O701 Sc682 2.105 . S
O701 C687 1.268 . S
O702 Sc684 2.105 . S
O702 C686 1.268 . S
O703 Sc683 2.105 . S
O703 C688 1.268 . S
C704 C705 1.387 . S
C704 H708 0.950 . S
C704 C713 1.390 . S
C705 C704 1.387 . S
C705 C707 1.387 . S
H706 C713 0.950 . S
C707 C705 1.387 . S
C707 C709 1.390 . S
C707 H711 0.950 . S
H708 C704 0.950 . S
C709 C707 1.390 . S
C709 C710 1.387 . S
C709 H712 0.950 . S
C710 C709 1.387 . S
C710 C713 1.387 . S
H711 C707 0.950 . S
H712 C709 0.950 . S
C713 C704 1.390 . S
C713 H706 0.950 . S
C713 C710 1.387 . S
C714 C715 1.387 . S
C714 H718 0.950 . S
C714 C723 1.390 . S
C715 C714 1.387 . S
C715 C717 1.387 . S
H716 C723 0.950 . S
C717 C715 1.387 . S
C717 C719 1.390 . S
C717 H721 0.950 . S
H718 C714 0.950 . S
C719 C717 1.390 . S
C719 C720 1.387 . S
C719 H722 0.950 . S
C720 C719 1.387 . S
C720 C723 1.387 . S
H721 C717 0.950 . S
H722 C719 0.950 . S
C723 C714 1.390 . S
C723 H716 0.950 . S
C723 C720 1.387 . S
C724 C725 1.387 . S
C724 H728 0.950 . S
C724 C733 1.390 . S
C725 C724 1.387 . S
C725 C727 1.387 . S
H726 C733 0.950 . S
C727 C725 1.387 . S
C727 C729 1.390 . S
C727 H731 0.950 . S
H728 C724 0.950 . S
C729 C727 1.390 . S
C729 C730 1.387 . S
C729 H732 0.950 . S
C730 C729 1.387 . S
C730 C733 1.387 . S
H731 C727 0.950 . S
H732 C729 0.950 . S
C733 C724 1.390 . S
C733 H726 0.950 . S
C733 C730 1.387 . S
C734 C735 1.387 . S
C734 H738 0.950 . S
C734 C743 1.390 . S
C735 C734 1.387 . S
C735 C737 1.387 . S
H736 C743 0.950 . S
C737 C735 1.387 . S
C737 C739 1.390 . S
C737 H741 0.950 . S
H738 C734 0.950 . S
C739 C737 1.390 . S
C739 C740 1.387 . S
C739 H742 0.950 . S
C740 C739 1.387 . S
C740 C743 1.387 . S
H741 C737 0.950 . S
H742 C739 0.950 . S
C743 C734 1.390 . S
C743 H736 0.950 . S
C743 C740 1.387 . S
C744 C745 1.387 . S
C744 H748 0.950 . S
C744 C753 1.390 . S
C745 C744 1.387 . S
C745 C747 1.387 . S
H746 C753 0.950 . S
C747 C745 1.387 . S
C747 C749 1.390 . S
C747 H751 0.950 . S
H748 C744 0.950 . S
C749 C747 1.390 . S
C749 C750 1.387 . S
C749 H752 0.950 . S
C750 C749 1.387 . S
C750 C753 1.387 . S
H751 C747 0.950 . S
H752 C749 0.950 . S
C753 C744 1.390 . S
C753 H746 0.950 . S
C753 C750 1.387 . S
C754 C755 1.387 . S
C754 H758 0.950 . S
C754 C763 1.390 . S
C755 C754 1.387 . S
C755 C757 1.387 . S
H756 C763 0.950 . S
C757 C755 1.387 . S
C757 C759 1.390 . S
C757 H761 0.950 . S
H758 C754 0.950 . S
C759 C757 1.390 . S
C759 C760 1.387 . S
C759 H762 0.950 . S
C760 C759 1.387 . S
C760 C763 1.387 . S
H761 C757 0.950 . S
H762 C759 0.950 . S
C763 C754 1.390 . S
C763 H756 0.950 . S
C763 C760 1.387 . S
C764 C765 1.387 . S
C764 H768 0.950 . S
C764 C773 1.390 . S
C765 C764 1.387 . S
C765 C767 1.387 . S
H766 C773 0.950 . S
C767 C765 1.387 . S
C767 C769 1.390 . S
C767 H771 0.950 . S
H768 C764 0.950 . S
C769 C767 1.390 . S
C769 C770 1.387 . S
C769 H772 0.950 . S
C770 C769 1.387 . S
C770 C773 1.387 . S
H771 C767 0.950 . S
H772 C769 0.950 . S
C773 C764 1.390 . S
C773 H766 0.950 . S
C773 C770 1.387 . S
C774 C775 1.387 . S
C774 H778 0.950 . S
C774 C783 1.390 . S
C775 C774 1.387 . S
C775 C777 1.387 . S
H776 C783 0.950 . S
C777 C775 1.387 . S
C777 C779 1.390 . S
C777 H781 0.950 . S
H778 C774 0.950 . S
C779 C777 1.390 . S
C779 C780 1.387 . S
C779 H782 0.950 . S
C780 C779 1.387 . S
C780 C783 1.387 . S
H781 C777 0.950 . S
H782 C779 0.950 . S
C783 C774 1.390 . S
C783 H776 0.950 . S
C783 C780 1.387 . S
C784 C785 1.387 . S
C784 H788 0.950 . S
C784 C793 1.390 . S
C785 C784 1.387 . S
C785 C787 1.387 . S
H786 C793 0.950 . S
C787 C785 1.387 . S
C787 C789 1.390 . S
C787 H791 0.950 . S
H788 C784 0.950 . S
C789 C787 1.390 . S
C789 C790 1.387 . S
C789 H792 0.950 . S
C790 C789 1.387 . S
C790 C793 1.387 . S
H791 C787 0.950 . S
H792 C789 0.950 . S
C793 C784 1.390 . S
C793 H786 0.950 . S
C793 C790 1.387 . S
C794 C795 1.387 . S
C794 H798 0.950 . S
C794 C803 1.390 . S
C795 C794 1.387 . S
C795 C797 1.387 . S
H796 C803 0.950 . S
C797 C795 1.387 . S
C797 C799 1.390 . S
C797 H801 0.950 . S
H798 C794 0.950 . S
C799 C797 1.390 . S
C799 C800 1.387 . S
C799 H802 0.950 . S
C800 C799 1.387 . S
C800 C803 1.387 . S
H801 C797 0.950 . S
H802 C799 0.950 . S
C803 C794 1.390 . S
C803 H796 0.950 . S
C803 C800 1.387 . S
C804 C805 1.387 . S
C804 H808 0.950 . S
C804 C813 1.390 . S
C805 C804 1.387 . S
C805 C807 1.387 . S
H806 C813 0.950 . S
C807 C805 1.387 . S
C807 C809 1.390 . S
C807 H811 0.950 . S
H808 C804 0.950 . S
C809 C807 1.390 . S
C809 C810 1.387 . S
C809 H812 0.950 . S
C810 C809 1.387 . S
C810 C813 1.387 . S
H811 C807 0.950 . S
H812 C809 0.950 . S
C813 C804 1.390 . S
C813 H806 0.950 . S
C813 C810 1.387 . S
C814 C815 1.387 . S
C814 H818 0.950 . S
C814 C823 1.390 . S
C815 C814 1.387 . S
C815 C817 1.387 . S
H816 C823 0.950 . S
C817 C815 1.387 . S
C817 C819 1.390 . S
C817 H821 0.950 . S
H818 C814 0.950 . S
C819 C817 1.390 . S
C819 C820 1.387 . S
C819 H822 0.950 . S
C820 C819 1.387 . S
C820 C823 1.387 . S
H821 C817 0.950 . S
H822 C819 0.950 . S
C823 C814 1.390 . S
C823 H816 0.950 . S
C823 C820 1.387 . S
C824 C825 1.387 . S
C824 H828 0.950 . S
C824 C833 1.390 . S
C825 C824 1.387 . S
C825 C827 1.387 . S
H826 C833 0.950 . S
C827 C825 1.387 . S
C827 C829 1.390 . S
C827 H831 0.950 . S
H828 C824 0.950 . S
C829 C827 1.390 . S
C829 C830 1.387 . S
C829 H832 0.950 . S
C830 C829 1.387 . S
C830 C833 1.387 . S
H831 C827 0.950 . S
H832 C829 0.950 . S
C833 C824 1.390 . S
C833 H826 0.950 . S
C833 C830 1.387 . S
C834 C835 1.387 . S
C834 H838 0.950 . S
C834 C843 1.390 . S
C835 C834 1.387 . S
C835 C837 1.387 . S
H836 C843 0.950 . S
C837 C835 1.387 . S
C837 C839 1.390 . S
C837 H841 0.950 . S
H838 C834 0.950 . S
C839 C837 1.390 . S
C839 C840 1.387 . S
C839 H842 0.950 . S
C840 C839 1.387 . S
C840 C843 1.387 . S
H841 C837 0.950 . S
H842 C839 0.950 . S
C843 C834 1.390 . S
C843 H836 0.950 . S
C843 C840 1.387 . S
C844 C845 1.387 . S
C844 H848 0.950 . S
C844 C853 1.390 . S
C845 C844 1.387 . S
C845 C847 1.387 . S
H846 C853 0.950 . S
C847 C845 1.387 . S
C847 C849 1.390 . S
C847 H851 0.950 . S
H848 C844 0.950 . S
C849 C847 1.390 . S
C849 C850 1.387 . S
C849 H852 0.950 . S
C850 C849 1.387 . S
C850 C853 1.387 . S
H851 C847 0.950 . S
H852 C849 0.950 . S
C853 C844 1.390 . S
C853 H846 0.950 . S
C853 C850 1.387 . S
C854 C855 1.387 . S
C854 H858 0.950 . S
C854 C863 1.390 . S
C855 C854 1.387 . S
C855 C857 1.387 . S
H856 C863 0.950 . S
C857 C855 1.387 . S
C857 C859 1.390 . S
C857 H861 0.950 . S
H858 C854 0.950 . S
C859 C857 1.390 . S
C859 C860 1.387 . S
C859 H862 0.950 . S
C860 C859 1.387 . S
C860 C863 1.387 . S
H861 C857 0.950 . S
H862 C859 0.950 . S
C863 C854 1.390 . S
C863 H856 0.950 . S
C863 C860 1.387 . S
C864 C865 1.387 . S
C864 H868 0.950 . S
C864 C873 1.390 . S
C865 C864 1.387 . S
C865 C867 1.387 . S
H866 C873 0.950 . S
C867 C865 1.387 . S
C867 C869 1.390 . S
C867 H871 0.950 . S
H868 C864 0.950 . S
C869 C867 1.390 . S
C869 C870 1.387 . S
C869 H872 0.950 . S
C870 C869 1.387 . S
C870 C873 1.387 . S
H871 C867 0.950 . S
H872 C869 0.950 . S
C873 C864 1.390 . S
C873 H866 0.950 . S
C873 C870 1.387 . S
C874 C875 1.387 . S
C874 H878 0.950 . S
C874 C883 1.390 . S
C875 C874 1.387 . S
C875 C877 1.387 . S
H876 C883 0.950 . S
C877 C875 1.387 . S
C877 C879 1.390 . S
C877 H881 0.950 . S
H878 C874 0.950 . S
C879 C877 1.390 . S
C879 C880 1.387 . S
C879 H882 0.950 . S
C880 C879 1.387 . S
C880 C883 1.387 . S
H881 C877 0.950 . S
H882 C879 0.950 . S
C883 C874 1.390 . S
C883 H876 0.950 . S
C883 C880 1.387 . S
C884 C885 1.387 . S
C884 H888 0.950 . S
C884 C893 1.390 . S
C885 C884 1.387 . S
C885 C887 1.387 . S
H886 C893 0.950 . S
C887 C885 1.387 . S
C887 C889 1.390 . S
C887 H891 0.950 . S
H888 C884 0.950 . S
C889 C887 1.390 . S
C889 C890 1.387 . S
C889 H892 0.950 . S
C890 C889 1.387 . S
C890 C893 1.387 . S
H891 C887 0.950 . S
H892 C889 0.950 . S
C893 C884 1.390 . S
C893 H886 0.950 . S
C893 C890 1.387 . S
C894 C895 1.387 . S
C894 H898 0.950 . S
C894 C903 1.390 . S
C895 C894 1.387 . S
C895 C897 1.387 . S
H896 C903 0.950 . S
C897 C895 1.387 . S
C897 C899 1.390 . S
C897 H901 0.950 . S
H898 C894 0.950 . S
C899 C897 1.390 . S
C899 C900 1.387 . S
C899 H902 0.950 . S
C900 C899 1.387 . S
C900 C903 1.387 . S
H901 C897 0.950 . S
H902 C899 0.950 . S
C903 C894 1.390 . S
C903 H896 0.950 . S
C903 C900 1.387 . S
C904 C905 1.387 . S
C904 H908 0.950 . S
C904 C913 1.390 . S
C905 C904 1.387 . S
C905 C907 1.387 . S
H906 C913 0.950 . S
C907 C905 1.387 . S
C907 C909 1.390 . S
C907 H911 0.950 . S
H908 C904 0.950 . S
C909 C907 1.390 . S
C909 C910 1.387 . S
C909 H912 0.950 . S
C910 C909 1.387 . S
C910 C913 1.387 . S
H911 C907 0.950 . S
H912 C909 0.950 . S
C913 C904 1.390 . S
C913 H906 0.950 . S
C913 C910 1.387 . S
C914 C915 1.387 . S
C914 H918 0.950 . S
C914 C923 1.390 . S
C915 C914 1.387 . S
C915 C917 1.387 . S
H916 C923 0.950 . S
C917 C915 1.387 . S
C917 C919 1.390 . S
C917 H921 0.950 . S
H918 C914 0.950 . S
C919 C917 1.390 . S
C919 C920 1.387 . S
C919 H922 0.950 . S
C920 C919 1.387 . S
C920 C923 1.387 . S
H921 C917 0.950 . S
H922 C919 0.950 . S
C923 C914 1.390 . S
C923 H916 0.950 . S
C923 C920 1.387 . S
C924 C925 1.387 . S
C924 H928 0.950 . S
C924 C933 1.390 . S
C925 C924 1.387 . S
C925 C927 1.387 . S
H926 C933 0.950 . S
C927 C925 1.387 . S
C927 C929 1.390 . S
C927 H931 0.950 . S
H928 C924 0.950 . S
C929 C927 1.390 . S
C929 C930 1.387 . S
C929 H932 0.950 . S
C930 C929 1.387 . S
C930 C933 1.387 . S
H931 C927 0.950 . S
H932 C929 0.950 . S
C933 C924 1.390 . S
C933 H926 0.950 . S
C933 C930 1.387 . S
C934 C935 1.387 . S
C934 H938 0.950 . S
C934 C943 1.390 . S
C935 C934 1.387 . S
C935 C937 1.387 . S
H936 C943 0.950 . S
C937 C935 1.387 . S
C937 C939 1.390 . S
C937 H941 0.950 . S
H938 C934 0.950 . S
C939 C937 1.390 . S
C939 C940 1.387 . S
C939 H942 0.950 . S
C940 C939 1.387 . S
C940 C943 1.387 . S
H941 C937 0.950 . S
H942 C939 0.950 . S
C943 C934 1.390 . S
C943 H936 0.950 . S
C943 C940 1.387 . S
C944 C945 1.387 . S
C944 H948 0.950 . S
C944 C953 1.390 . S
C945 C944 1.387 . S
C945 C947 1.387 . S
H946 C953 0.950 . S
C947 C945 1.387 . S
C947 C949 1.390 . S
C947 H951 0.950 . S
H948 C944 0.950 . S
C949 C947 1.390 . S
C949 C950 1.387 . S
C949 H952 0.950 . S
C950 C949 1.387 . S
C950 C953 1.387 . S
H951 C947 0.950 . S
H952 C949 0.950 . S
C953 C944 1.390 . S
C953 H946 0.950 . S
C953 C950 1.387 . S
C954 C955 1.387 . S
C954 H958 0.950 . S
C954 C963 1.390 . S
C955 C954 1.387 . S
C955 C957 1.387 . S
H956 C963 0.950 . S
C957 C955 1.387 . S
C957 C959 1.390 . S
C957 H961 0.950 . S
H958 C954 0.950 . S
C959 C957 1.390 . S
C959 C960 1.387 . S
C959 H962 0.950 . S
C960 C959 1.387 . S
C960 C963 1.387 . S
H961 C957 0.950 . S
H962 C959 0.950 . S
C963 C954 1.390 . S
C963 H956 0.950 . S
C963 C960 1.387 . S
C964 C965 1.387 . S
C964 H968 0.950 . S
C964 C973 1.390 . S
C965 C964 1.387 . S
C965 C967 1.387 . S
H966 C973 0.950 . S
C967 C965 1.387 . S
C967 C969 1.390 . S
C967 H971 0.950 . S
H968 C964 0.950 . S
C969 C967 1.390 . S
C969 C970 1.387 . S
C969 H972 0.950 . S
C970 C969 1.387 . S
C970 C973 1.387 . S
H971 C967 0.950 . S
H972 C969 0.950 . S
C973 C964 1.390 . S
C973 H966 0.950 . S
C973 C970 1.387 . S
C974 C975 1.387 . S
C974 H978 0.950 . S
C974 C983 1.390 . S
C975 C974 1.387 . S
C975 C977 1.387 . S
H976 C983 0.950 . S
C977 C975 1.387 . S
C977 C979 1.390 . S
C977 H981 0.950 . S
H978 C974 0.950 . S
C979 C977 1.390 . S
C979 C980 1.387 . S
C979 H982 0.950 . S
C980 C979 1.387 . S
C980 C983 1.387 . S
H981 C977 0.950 . S
H982 C979 0.950 . S
C983 C974 1.390 . S
C983 H976 0.950 . S
C983 C980 1.387 . S
C984 C985 1.387 . S
C984 H988 0.950 . S
C984 C993 1.390 . S
C985 C984 1.387 . S
C985 C987 1.387 . S
H986 C993 0.950 . S
C987 C985 1.387 . S
C987 C989 1.390 . S
C987 H991 0.950 . S
H988 C984 0.950 . S
C989 C987 1.390 . S
C989 C990 1.387 . S
C989 H992 0.950 . S
C990 C989 1.387 . S
C990 C993 1.387 . S
H991 C987 0.950 . S
H992 C989 0.950 . S
C993 C984 1.390 . S
C993 H986 0.950 . S
C993 C990 1.387 . S
C994 C995 1.387 . S
C994 H998 0.950 . S
C994 C1003 1.390 . S
C995 C994 1.387 . S
C995 C997 1.387 . S
H996 C1003 0.950 . S
C997 C995 1.387 . S
C997 C999 1.390 . S
C997 H1001 0.950 . S
H998 C994 0.950 . S
C999 C997 1.390 . S
C999 C1000 1.387 . S
C999 H1002 0.950 . S
C1000 C999 1.387 . S
C1000 C1003 1.387 . S
H1001 C997 0.950 . S
H1002 C999 0.950 . S
C1003 C994 1.390 . S
C1003 H996 0.950 . S
C1003 C1000 1.387 . S
C1004 C1005 1.387 . S
C1004 H1008 0.950 . S
C1004 C1013 1.390 . S
C1005 C1004 1.387 . S
C1005 C1007 1.387 . S
H1006 C1013 0.950 . S
C1007 C1005 1.387 . S
C1007 C1009 1.390 . S
C1007 H1011 0.950 . S
H1008 C1004 0.950 . S
C1009 C1007 1.390 . S
C1009 C1010 1.387 . S
C1009 H1012 0.950 . S
C1010 C1009 1.387 . S
C1010 C1013 1.387 . S
H1011 C1007 0.950 . S
H1012 C1009 0.950 . S
C1013 C1004 1.390 . S
C1013 H1006 0.950 . S
C1013 C1010 1.387 . S
C1014 C1015 1.387 . S
C1014 H1018 0.950 . S
C1014 C1023 1.390 . S
C1015 C1014 1.387 . S
C1015 C1017 1.387 . S
H1016 C1023 0.950 . S
C1017 C1015 1.387 . S
C1017 C1019 1.390 . S
C1017 H1021 0.950 . S
H1018 C1014 0.950 . S
C1019 C1017 1.390 . S
C1019 C1020 1.387 . S
C1019 H1022 0.950 . S
C1020 C1019 1.387 . S
C1020 C1023 1.387 . S
H1021 C1017 0.950 . S
H1022 C1019 0.950 . S
C1023 C1014 1.390 . S
C1023 H1016 0.950 . S
C1023 C1020 1.387 . S
C1024 C1025 1.387 1_556 S
C1024 H1028 0.950 . S
C1024 C1033 1.390 1_565 S
C1025 C1024 1.387 1_554 S
C1025 C1027 1.387 . S
H1026 C1033 0.950 . S
C1027 C1025 1.387 . S
C1027 C1029 1.390 1_565 S
C1027 H1031 0.950 . S
H1028 C1024 0.950 . S
C1029 C1027 1.390 1_545 S
C1029 C1030 1.387 1_554 S
C1029 H1032 0.950 . S
C1030 C1029 1.387 1_556 S
C1030 C1033 1.387 . S
H1031 C1027 0.950 . S
H1032 C1029 0.950 . S
C1033 C1024 1.390 1_545 S
C1033 H1026 0.950 . S
C1033 C1030 1.387 . S
C1034 C1035 1.387 1_554 S
C1034 H1038 0.950 . S
C1034 C1043 1.390 . S
C1035 C1034 1.387 1_556 S
C1035 C1037 1.387 . S
H1036 C1043 0.950 . S
C1037 C1035 1.387 . S
C1037 C1039 1.390 . S
C1037 H1041 0.950 . S
H1038 C1034 0.950 . S
C1039 C1037 1.390 . S
C1039 C1040 1.387 1_556 S
C1039 H1042 0.950 . S
C1040 C1039 1.387 1_554 S
C1040 C1043 1.387 . S
H1041 C1037 0.950 . S
H1042 C1039 0.950 . S
C1043 C1034 1.390 . S
C1043 H1036 0.950 . S
C1043 C1040 1.387 . S
C1044 C1045 1.387 . S
C1044 H1048 0.950 . S
C1044 C1053 1.390 . S
C1045 C1044 1.387 . S
C1045 C1047 1.387 . S
H1046 C1053 0.950 . S
C1047 C1045 1.387 . S
C1047 C1049 1.390 . S
C1047 H1051 0.950 . S
H1048 C1044 0.950 . S
C1049 C1047 1.390 . S
C1049 C1050 1.387 . S
C1049 H1052 0.950 . S
C1050 C1049 1.387 . S
C1050 C1053 1.387 . S
H1051 C1047 0.950 . S
H1052 C1049 0.950 . S
C1053 C1044 1.390 . S
C1053 H1046 0.950 . S
C1053 C1050 1.387 . S
C1054 C1055 1.387 1_545 S
C1054 H1058 0.950 . S
C1054 C1063 1.390 . S
C1055 C1054 1.387 1_565 S
C1055 C1057 1.387 . S
H1056 C1063 0.950 . S
C1057 C1055 1.387 . S
C1057 C1059 1.390 . S
C1057 H1061 0.950 . S
H1058 C1054 0.950 . S
C1059 C1057 1.390 . S
C1059 C1060 1.387 1_565 S
C1059 H1062 0.950 . S
C1060 C1059 1.387 1_545 S
C1060 C1063 1.387 . S
H1061 C1057 0.950 . S
H1062 C1059 0.950 . S
C1063 C1054 1.390 . S
C1063 H1056 0.950 . S
C1063 C1060 1.387 . S
C1064 C1065 1.387 . S
C1064 H1068 0.950 . S
C1064 C1073 1.390 . S
C1065 C1064 1.387 . S
C1065 C1067 1.387 1_554 S
H1066 C1073 0.950 . S
C1067 C1065 1.387 1_556 S
C1067 C1069 1.390 . S
C1067 H1071 0.950 . S
H1068 C1064 0.950 . S
C1069 C1067 1.390 . S
C1069 C1070 1.387 . S
C1069 H1072 0.950 . S
C1070 C1069 1.387 . S
C1070 C1073 1.387 1_556 S
H1071 C1067 0.950 . S
H1072 C1069 0.950 . S
C1073 C1064 1.390 . S
C1073 H1066 0.950 . S
C1073 C1070 1.387 1_554 S
C1074 C1075 1.387 . S
C1074 H1078 0.950 . S
C1074 C1083 1.390 . S
C1075 C1074 1.387 . S
C1075 C1077 1.387 . S
H1076 C1083 0.950 . S
C1077 C1075 1.387 . S
C1077 C1079 1.390 . S
C1077 H1081 0.950 . S
H1078 C1074 0.950 . S
C1079 C1077 1.390 . S
C1079 C1080 1.387 . S
C1079 H1082 0.950 . S
C1080 C1079 1.387 . S
C1080 C1083 1.387 . S
H1081 C1077 0.950 . S
H1082 C1079 0.950 . S
C1083 C1074 1.390 . S
C1083 H1076 0.950 . S
C1083 C1080 1.387 . S
C1084 C1085 1.387 . S
C1084 H1088 0.950 . S
C1084 C1093 1.390 . S
C1085 C1084 1.387 . S
C1085 C1087 1.387 1_545 S
H1086 C1093 0.950 . S
C1087 C1085 1.387 1_565 S
C1087 C1089 1.390 . S
C1087 H1091 0.950 . S
H1088 C1084 0.950 . S
C1089 C1087 1.390 . S
C1089 C1090 1.387 . S
C1089 H1092 0.950 . S
C1090 C1089 1.387 . S
C1090 C1093 1.387 1_565 S
H1091 C1087 0.950 . S
H1092 C1089 0.950 . S
C1093 C1084 1.390 . S
C1093 H1086 0.950 . S
C1093 C1090 1.387 1_545 S
C1094 C1095 1.387 . S
C1094 H1098 0.950 . S
C1094 C1103 1.390 . S
C1095 C1094 1.387 . S
C1095 C1097 1.387 . S
H1096 C1103 0.950 . S
C1097 C1095 1.387 . S
C1097 C1099 1.390 . S
C1097 H1101 0.950 . S
H1098 C1094 0.950 . S
C1099 C1097 1.390 . S
C1099 C1100 1.387 . S
C1099 H1102 0.950 . S
C1100 C1099 1.387 . S
C1100 C1103 1.387 . S
H1101 C1097 0.950 . S
H1102 C1099 0.950 . S
C1103 C1094 1.390 . S
C1103 H1096 0.950 . S
C1103 C1100 1.387 . S
C1104 C1105 1.387 . S
C1104 H1108 0.950 . S
C1104 C1113 1.390 . S
C1105 C1104 1.387 . S
C1105 C1107 1.387 . S
H1106 C1113 0.950 . S
C1107 C1105 1.387 . S
C1107 C1109 1.390 . S
C1107 H1111 0.950 . S
H1108 C1104 0.950 . S
C1109 C1107 1.390 . S
C1109 C1110 1.387 . S
C1109 H1112 0.950 . S
C1110 C1109 1.387 . S
C1110 C1113 1.387 . S
H1111 C1107 0.950 . S
H1112 C1109 0.950 . S
C1113 C1104 1.390 . S
C1113 H1106 0.950 . S
C1113 C1110 1.387 . S
C1114 C1115 1.387 . S
C1114 H1118 0.950 . S
C1114 C1123 1.390 . S
C1115 C1114 1.387 . S
C1115 C1117 1.387 . S
H1116 C1123 0.950 . S
C1117 C1115 1.387 . S
C1117 C1119 1.390 . S
C1117 H1121 0.950 . S
H1118 C1114 0.950 . S
C1119 C1117 1.390 . S
C1119 C1120 1.387 . S
C1119 H1122 0.950 . S
C1120 C1119 1.387 . S
C1120 C1123 1.387 . S
H1121 C1117 0.950 . S
H1122 C1119 0.950 . S
C1123 C1114 1.390 . S
C1123 H1116 0.950 . S
C1123 C1120 1.387 . S
C1124 C1125 1.387 . S
C1124 H1128 0.950 . S
C1124 C1133 1.390 . S
C1125 C1124 1.387 . S
C1125 C1127 1.387 . S
H1126 C1133 0.950 . S
C1127 C1125 1.387 . S
C1127 C1129 1.390 . S
C1127 H1131 0.950 . S
H1128 C1124 0.950 . S
C1129 C1127 1.390 . S
C1129 C1130 1.387 . S
C1129 H1132 0.950 . S
C1130 C1129 1.387 . S
C1130 C1133 1.387 . S
H1131 C1127 0.950 . S
H1132 C1129 0.950 . S
C1133 C1124 1.390 . S
C1133 H1126 0.950 . S
C1133 C1130 1.387 . S
C1134 C1135 1.387 . S
C1134 H1138 0.950 . S
C1134 C1143 1.390 . S
C1135 C1134 1.387 . S
C1135 C1137 1.387 . S
H1136 C1143 0.950 . S
C1137 C1135 1.387 . S
C1137 C1139 1.390 . S
C1137 H1141 0.950 . S
H1138 C1134 0.950 . S
C1139 C1137 1.390 . S
C1139 C1140 1.387 . S
C1139 H1142 0.950 . S
C1140 C1139 1.387 . S
C1140 C1143 1.387 . S
H1141 C1137 0.950 . S
H1142 C1139 0.950 . S
C1143 C1134 1.390 . S
C1143 H1136 0.950 . S
C1143 C1140 1.387 . S
C1144 C1145 1.387 1_655 S
C1144 H1148 0.950 . S
C1144 C1153 1.390 1_565 S
C1145 C1144 1.387 1_455 S
C1145 C1147 1.387 . S
H1146 C1153 0.950 . S
C1147 C1145 1.387 . S
C1147 C1149 1.390 1_565 S
C1147 H1151 0.950 . S
H1148 C1144 0.950 . S
C1149 C1147 1.390 1_545 S
C1149 C1150 1.387 1_455 S
C1149 H1152 0.950 . S
C1150 C1149 1.387 1_655 S
C1150 C1153 1.387 . S
H1151 C1147 0.950 . S
H1152 C1149 0.950 . S
C1153 C1144 1.390 1_545 S
C1153 H1146 0.950 . S
C1153 C1150 1.387 . S
C1154 C1155 1.387 . S
C1154 H1158 0.950 . S
C1154 C1163 1.390 1_455 S
C1155 C1154 1.387 . S
C1155 C1157 1.387 . S
H1156 C1163 0.950 . S
C1157 C1155 1.387 . S
C1157 C1159 1.390 1_455 S
C1157 H1161 0.950 . S
H1158 C1154 0.950 . S
C1159 C1157 1.390 1_655 S
C1159 C1160 1.387 . S
C1159 H1162 0.950 . S
C1160 C1159 1.387 . S
C1160 C1163 1.387 . S
H1161 C1157 0.950 . S
H1162 C1159 0.950 . S
C1163 C1154 1.390 1_655 S
C1163 H1156 0.950 . S
C1163 C1160 1.387 . S
C1164 C1165 1.387 1_455 S
C1164 H1168 0.950 . S
C1164 C1173 1.390 . S
C1165 C1164 1.387 1_655 S
C1165 C1167 1.387 . S
H1166 C1173 0.950 . S
C1167 C1165 1.387 . S
C1167 C1169 1.390 . S
C1167 H1171 0.950 . S
H1168 C1164 0.950 . S
C1169 C1167 1.390 . S
C1169 C1170 1.387 1_655 S
C1169 H1172 0.950 . S
C1170 C1169 1.387 1_455 S
C1170 C1173 1.387 . S
H1171 C1167 0.950 . S
H1172 C1169 0.950 . S
C1173 C1164 1.390 . S
C1173 H1166 0.950 . S
C1173 C1170 1.387 . S
C1174 C1175 1.387 1_554 S
C1174 H1178 0.950 . S
C1174 C1183 1.390 1_655 S
C1175 C1174 1.387 1_556 S
C1175 C1177 1.387 . S
H1176 C1183 0.950 . S
C1177 C1175 1.387 . S
C1177 C1179 1.390 1_655 S
C1177 H1181 0.950 . S
H1178 C1174 0.950 . S
C1179 C1177 1.390 1_455 S
C1179 C1180 1.387 1_556 S
C1179 H1182 0.950 . S
C1180 C1179 1.387 1_554 S
C1180 C1183 1.387 . S
H1181 C1177 0.950 . S
H1182 C1179 0.950 . S
C1183 C1174 1.390 1_455 S
C1183 H1176 0.950 . S
C1183 C1180 1.387 . S
C1184 C1185 1.387 . S
C1184 H1188 0.950 . S
C1184 C1193 1.390 . S
C1185 C1184 1.387 . S
C1185 C1187 1.387 . S
H1186 C1193 0.950 . S
C1187 C1185 1.387 . S
C1187 C1189 1.390 . S
C1187 H1191 0.950 . S
H1188 C1184 0.950 . S
C1189 C1187 1.390 . S
C1189 C1190 1.387 . S
C1189 H1192 0.950 . S
C1190 C1189 1.387 . S
C1190 C1193 1.387 . S
H1191 C1187 0.950 . S
H1192 C1189 0.950 . S
C1193 C1184 1.390 . S
C1193 H1186 0.950 . S
C1193 C1190 1.387 . S
C1194 C1195 1.387 . S
C1194 H1198 0.950 . S
C1194 C1203 1.390 . S
C1195 C1194 1.387 . S
C1195 C1197 1.387 . S
H1196 C1203 0.950 . S
C1197 C1195 1.387 . S
C1197 C1199 1.390 . S
C1197 H1201 0.950 . S
H1198 C1194 0.950 . S
C1199 C1197 1.390 . S
C1199 C1200 1.387 . S
C1199 H1202 0.950 . S
C1200 C1199 1.387 . S
C1200 C1203 1.387 . S
H1201 C1197 0.950 . S
H1202 C1199 0.950 . S
C1203 C1194 1.390 . S
C1203 H1196 0.950 . S
C1203 C1200 1.387 . S
C1204 C1205 1.387 . S
C1204 H1208 0.950 . S
C1204 C1213 1.390 . S
C1205 C1204 1.387 . S
C1205 C1207 1.387 . S
H1206 C1213 0.950 . S
C1207 C1205 1.387 . S
C1207 C1209 1.390 . S
C1207 H1211 0.950 . S
H1208 C1204 0.950 . S
C1209 C1207 1.390 . S
C1209 C1210 1.387 . S
C1209 H1212 0.950 . S
C1210 C1209 1.387 . S
C1210 C1213 1.387 . S
H1211 C1207 0.950 . S
H1212 C1209 0.950 . S
C1213 C1204 1.390 . S
C1213 H1206 0.950 . S
C1213 C1210 1.387 . S
C1214 C1215 1.387 . S
C1214 H1218 0.950 . S
C1214 C1223 1.390 . S
C1215 C1214 1.387 . S
C1215 C1217 1.387 . S
H1216 C1223 0.950 . S
C1217 C1215 1.387 . S
C1217 C1219 1.390 . S
C1217 H1221 0.950 . S
H1218 C1214 0.950 . S
C1219 C1217 1.390 . S
C1219 C1220 1.387 . S
C1219 H1222 0.950 . S
C1220 C1219 1.387 . S
C1220 C1223 1.387 . S
H1221 C1217 0.950 . S
H1222 C1219 0.950 . S
C1223 C1214 1.390 . S
C1223 H1216 0.950 . S
C1223 C1220 1.387 . S
C1224 C1225 1.387 . S
C1224 H1228 0.950 . S
C1224 C1233 1.390 . S
C1225 C1224 1.387 . S
C1225 C1227 1.387 . S
H1226 C1233 0.950 . S
C1227 C1225 1.387 . S
C1227 C1229 1.390 . S
C1227 H1231 0.950 . S
H1228 C1224 0.950 . S
C1229 C1227 1.390 . S
C1229 C1230 1.387 . S
C1229 H1232 0.950 . S
C1230 C1229 1.387 . S
C1230 C1233 1.387 . S
H1231 C1227 0.950 . S
H1232 C1229 0.950 . S
C1233 C1224 1.390 . S
C1233 H1226 0.950 . S
C1233 C1230 1.387 . S
C1234 C1235 1.387 . S
C1234 H1238 0.950 . S
C1234 C1243 1.390 . S
C1235 C1234 1.387 . S
C1235 C1237 1.387 . S
H1236 C1243 0.950 . S
C1237 C1235 1.387 . S
C1237 C1239 1.390 . S
C1237 H1241 0.950 . S
H1238 C1234 0.950 . S
C1239 C1237 1.390 . S
C1239 C1240 1.387 . S
C1239 H1242 0.950 . S
C1240 C1239 1.387 . S
C1240 C1243 1.387 . S
H1241 C1237 0.950 . S
H1242 C1239 0.950 . S
C1243 C1234 1.390 . S
C1243 H1236 0.950 . S
C1243 C1240 1.387 . S
C1244 C1245 1.387 . S
C1244 H1248 0.950 . S
C1244 C1253 1.390 . S
C1245 C1244 1.387 . S
C1245 C1247 1.387 . S
H1246 C1253 0.950 . S
C1247 C1245 1.387 . S
C1247 C1249 1.390 . S
C1247 H1251 0.950 . S
H1248 C1244 0.950 . S
C1249 C1247 1.390 . S
C1249 C1250 1.387 . S
C1249 H1252 0.950 . S
C1250 C1249 1.387 . S
C1250 C1253 1.387 . S
H1251 C1247 0.950 . S
H1252 C1249 0.950 . S
C1253 C1244 1.390 . S
C1253 H1246 0.950 . S
C1253 C1250 1.387 . S
C1254 C1255 1.387 . S
C1254 H1258 0.950 . S
C1254 C1263 1.390 . S
C1255 C1254 1.387 . S
C1255 C1257 1.387 . S
H1256 C1263 0.950 . S
C1257 C1255 1.387 . S
C1257 C1259 1.390 . S
C1257 H1261 0.950 . S
H1258 C1254 0.950 . S
C1259 C1257 1.390 . S
C1259 C1260 1.387 . S
C1259 H1262 0.950 . S
C1260 C1259 1.387 . S
C1260 C1263 1.387 . S
H1261 C1257 0.950 . S
H1262 C1259 0.950 . S
C1263 C1254 1.390 . S
C1263 H1256 0.950 . S
C1263 C1260 1.387 . S
C1264 C1265 1.387 . S
C1264 H1268 0.950 . S
C1264 C1273 1.390 . S
C1265 C1264 1.387 . S
C1265 C1267 1.387 . S
H1266 C1273 0.950 . S
C1267 C1265 1.387 . S
C1267 C1269 1.390 . S
C1267 H1271 0.950 . S
H1268 C1264 0.950 . S
C1269 C1267 1.390 . S
C1269 C1270 1.387 . S
C1269 H1272 0.950 . S
C1270 C1269 1.387 . S
C1270 C1273 1.387 . S
H1271 C1267 0.950 . S
H1272 C1269 0.950 . S
C1273 C1264 1.390 . S
C1273 H1266 0.950 . S
C1273 C1270 1.387 . S
C1274 C1275 1.387 . S
C1274 H1278 0.950 . S
C1274 C1283 1.390 . S
C1275 C1274 1.387 . S
C1275 C1277 1.387 . S
H1276 C1283 0.950 . S
C1277 C1275 1.387 . S
C1277 C1279 1.390 . S
C1277 H1281 0.950 . S
H1278 C1274 0.950 . S
C1279 C1277 1.390 . S
C1279 C1280 1.387 . S
C1279 H1282 0.950 . S
C1280 C1279 1.387 . S
C1280 C1283 1.387 . S
H1281 C1277 0.950 . S
H1282 C1279 0.950 . S
C1283 C1274 1.390 . S
C1283 H1276 0.950 . S
C1283 C1280 1.387 . S
C1284 C1285 1.387 . S
C1284 H1288 0.950 . S
C1284 C1293 1.390 . S
C1285 C1284 1.387 . S
C1285 C1287 1.387 . S
H1286 C1293 0.950 . S
C1287 C1285 1.387 . S
C1287 C1289 1.390 . S
C1287 H1291 0.950 . S
H1288 C1284 0.950 . S
C1289 C1287 1.390 . S
C1289 C1290 1.387 . S
C1289 H1292 0.950 . S
C1290 C1289 1.387 . S
C1290 C1293 1.387 . S
H1291 C1287 0.950 . S
H1292 C1289 0.950 . S
C1293 C1284 1.390 . S
C1293 H1286 0.950 . S
C1293 C1290 1.387 . S
C1294 C1295 1.387 . S
C1294 H1298 0.950 . S
C1294 C1303 1.390 . S
C1295 C1294 1.387 . S
C1295 C1297 1.387 . S
H1296 C1303 0.950 . S
C1297 C1295 1.387 . S
C1297 C1299 1.390 . S
C1297 H1301 0.950 . S
H1298 C1294 0.950 . S
C1299 C1297 1.390 . S
C1299 C1300 1.387 . S
C1299 H1302 0.950 . S
C1300 C1299 1.387 . S
C1300 C1303 1.387 . S
H1301 C1297 0.950 . S
H1302 C1299 0.950 . S
C1303 C1294 1.390 . S
C1303 H1296 0.950 . S
C1303 C1300 1.387 . S
C1304 C1305 1.387 . S
C1304 H1308 0.950 . S
C1304 C1313 1.390 . S
C1305 C1304 1.387 . S
C1305 C1307 1.387 . S
H1306 C1313 0.950 . S
C1307 C1305 1.387 . S
C1307 C1309 1.390 . S
C1307 H1311 0.950 . S
H1308 C1304 0.950 . S
C1309 C1307 1.390 . S
C1309 C1310 1.387 . S
C1309 H1312 0.950 . S
C1310 C1309 1.387 . S
C1310 C1313 1.387 . S
H1311 C1307 0.950 . S
H1312 C1309 0.950 . S
C1313 C1304 1.390 . S
C1313 H1306 0.950 . S
C1313 C1310 1.387 . S
C1314 C1315 1.387 . S
C1314 H1318 0.950 . S
C1314 C1323 1.390 . S
C1315 C1314 1.387 . S
C1315 C1317 1.387 . S
H1316 C1323 0.950 . S
C1317 C1315 1.387 . S
C1317 C1319 1.390 . S
C1317 H1321 0.950 . S
H1318 C1314 0.950 . S
C1319 C1317 1.390 . S
C1319 C1320 1.387 . S
C1319 H1322 0.950 . S
C1320 C1319 1.387 . S
C1320 C1323 1.387 . S
H1321 C1317 0.950 . S
H1322 C1319 0.950 . S
C1323 C1314 1.390 . S
C1323 H1316 0.950 . S
C1323 C1320 1.387 . S
C1324 C1325 1.387 . S
C1324 H1328 0.950 . S
C1324 C1333 1.390 . S
C1325 C1324 1.387 . S
C1325 C1327 1.387 . S
H1326 C1333 0.950 . S
C1327 C1325 1.387 . S
C1327 C1329 1.390 . S
C1327 H1331 0.950 . S
H1328 C1324 0.950 . S
C1329 C1327 1.390 . S
C1329 C1330 1.387 . S
C1329 H1332 0.950 . S
C1330 C1329 1.387 . S
C1330 C1333 1.387 . S
H1331 C1327 0.950 . S
H1332 C1329 0.950 . S
C1333 C1324 1.390 . S
C1333 H1326 0.950 . S
C1333 C1330 1.387 . S
C1334 C1335 1.387 . S
C1334 H1338 0.950 . S
C1334 C1343 1.390 . S
C1335 C1334 1.387 . S
C1335 C1337 1.387 . S
H1336 C1343 0.950 . S
C1337 C1335 1.387 . S
C1337 C1339 1.390 . S
C1337 H1341 0.950 . S
H1338 C1334 0.950 . S
C1339 C1337 1.390 . S
C1339 C1340 1.387 . S
C1339 H1342 0.950 . S
C1340 C1339 1.387 . S
C1340 C1343 1.387 . S
H1341 C1337 0.950 . S
H1342 C1339 0.950 . S
C1343 C1334 1.390 . S
C1343 H1336 0.950 . S
C1343 C1340 1.387 . S
C1344 C1345 1.385 1_545 S
C1344 H1348 0.950 . S
C1344 C1353 1.390 . S
C1345 C1344 1.385 1_565 S
C1345 C1347 1.388 1_556 S
H1346 C1353 0.950 . S
C1347 C1345 1.388 1_554 S
C1347 C1349 1.390 1_565 S
C1347 H1351 0.950 . S
H1348 C1344 0.950 . S
C1349 C1347 1.390 1_545 S
C1349 C1350 1.387 1_554 S
C1349 H1352 0.950 . S
C1350 C1349 1.387 1_556 S
C1350 C1353 1.387 . S
H1351 C1347 0.950 . S
H1352 C1349 0.950 . S
C1353 C1344 1.390 . S
C1353 H1346 0.950 . S
C1353 C1350 1.387 . S
C1354 C1355 1.387 1_554 S
C1354 H1358 0.950 . S
C1354 C1363 1.390 1_455 S
C1355 C1354 1.387 1_556 S
C1355 C1357 1.387 . S
H1356 C1363 0.950 . S
C1357 C1355 1.387 . S
C1357 C1359 1.390 . S
C1357 H1361 0.950 . S
H1358 C1354 0.950 . S
C1359 C1357 1.390 . S
C1359 C1360 1.387 1_455 S
C1359 H1362 0.950 . S
C1360 C1359 1.387 1_655 S
C1360 C1363 1.387 1_556 S
H1361 C1357 0.950 . S
H1362 C1359 0.950 . S
C1363 C1354 1.390 1_655 S
C1363 H1356 0.950 . S
C1363 C1360 1.387 1_554 S
C1364 C1365 1.387 . S
C1364 H1368 0.950 . S
C1364 C1373 1.390 . S
C1365 C1364 1.387 . S
C1365 C1367 1.387 . S
H1366 C1373 0.950 . S
C1367 C1365 1.387 . S
C1367 C1369 1.390 . S
C1367 H1371 0.950 . S
H1368 C1364 0.950 . S
C1369 C1367 1.390 . S
C1369 C1370 1.387 . S
C1369 H1372 0.950 . S
C1370 C1369 1.387 . S
C1370 C1373 1.387 . S
H1371 C1367 0.950 . S
H1372 C1369 0.950 . S
C1373 C1364 1.390 . S
C1373 H1366 0.950 . S
C1373 C1370 1.387 . S
C1374 C1375 1.387 1_455 S
C1374 H1378 0.944 1_455 S
C1374 C1383 1.390 . S
C1375 C1374 1.387 1_655 S
C1375 C1377 1.387 1_655 S
H1376 C1383 0.950 . S
C1377 C1375 1.387 1_455 S
C1377 C1379 1.381 1_545 S
C1377 H1381 0.950 1_455 S
H1378 C1374 0.944 1_655 S
C1379 C1377 1.381 1_565 S
C1379 C1380 1.387 . S
C1379 H1382 0.959 . S
C1380 C1379 1.387 . S
C1380 C1383 1.385 1_565 S
H1381 C1377 0.950 1_655 S
H1382 C1379 0.959 . S
C1383 C1374 1.390 . S
C1383 H1376 0.950 . S
C1383 C1380 1.385 1_545 S
C1384 C1385 1.387 1_556 S
C1384 H1388 0.950 . S
C1384 C1393 1.390 . S
C1385 C1384 1.387 1_554 S
C1385 C1387 1.387 . S
H1386 C1393 0.950 1_545 S
C1387 C1385 1.387 . S
C1387 C1389 1.390 . S
C1387 H1391 0.950 . S
H1388 C1384 0.950 . S
C1389 C1387 1.390 . S
C1389 C1390 1.386 1_565 S
C1389 H1392 0.950 . S
C1390 C1389 1.386 1_545 S
C1390 C1393 1.387 1_544 S
H1391 C1387 0.950 . S
H1392 C1389 0.950 . S
C1393 C1384 1.390 . S
C1393 H1386 0.950 1_565 S
C1393 C1390 1.387 1_566 S
C1394 C1395 1.387 1_656 S
C1394 H1398 0.949 . S
C1394 C1403 1.390 . S
C1395 C1394 1.387 1_454 S
C1395 C1397 1.387 1_455 S
H1396 C1403 0.950 . S
C1397 C1395 1.387 1_655 S
C1397 C1399 1.390 . S
C1397 H1401 0.950 1_655 S
H1398 C1394 0.949 . S
C1399 C1397 1.390 . S
C1399 C1400 1.387 . S
C1399 H1402 0.950 . S
C1400 C1399 1.387 . S
C1400 C1403 1.387 1_554 S
H1401 C1397 0.950 1_455 S
H1402 C1399 0.950 . S
C1403 C1394 1.390 . S
C1403 H1396 0.950 . S
C1403 C1400 1.387 1_556 S
C1404 C1405 1.387 . S
C1404 H1408 0.950 . S
C1404 C1413 1.390 . S
C1405 C1404 1.387 . S
C1405 C1407 1.387 . S
H1406 C1413 0.950 . S
C1407 C1405 1.387 . S
C1407 C1409 1.390 . S
C1407 H1411 0.950 . S
H1408 C1404 0.950 . S
C1409 C1407 1.390 . S
C1409 C1410 1.387 . S
C1409 H1412 0.950 . S
C1410 C1409 1.387 . S
C1410 C1413 1.387 . S
H1411 C1407 0.950 . S
H1412 C1409 0.950 . S
C1413 C1404 1.390 . S
C1413 H1406 0.950 . S
C1413 C1410 1.387 . S
C1414 C1415 1.386 1_565 S
C1414 H1418 0.950 . S
C1414 C1423 1.390 . S
C1415 C1414 1.386 1_545 S
C1415 C1417 1.386 1_545 S
H1416 C1423 0.950 . S
C1417 C1415 1.386 1_565 S
C1417 C1419 1.390 . S
C1417 H1421 0.950 . S
H1418 C1414 0.950 . S
C1419 C1417 1.390 . S
C1419 C1420 1.387 1_655 S
C1419 H1422 0.950 1_655 S
C1420 C1419 1.387 1_455 S
C1420 C1423 1.387 1_455 S
H1421 C1417 0.950 . S
H1422 C1419 0.950 1_455 S
C1423 C1414 1.390 . S
C1423 H1416 0.950 . S
C1423 C1420 1.387 1_655 S
C1424 C1425 1.387 . S
C1424 H1428 0.950 . S
C1424 C1433 1.390 . S
C1425 C1424 1.387 . S
C1425 C1427 1.387 . S
H1426 C1433 0.950 . S
C1427 C1425 1.387 . S
C1427 C1429 1.390 . S
C1427 H1431 0.950 . S
H1428 C1424 0.950 . S
C1429 C1427 1.390 . S
C1429 C1430 1.387 . S
C1429 H1432 0.950 . S
C1430 C1429 1.387 . S
C1430 C1433 1.387 . S
H1431 C1427 0.950 . S
H1432 C1429 0.950 . S
C1433 C1424 1.390 . S
C1433 H1426 0.950 . S
C1433 C1430 1.387 . S
C1434 C1435 1.387 . S
C1434 H1438 0.950 . S
C1434 C1443 1.390 . S
C1435 C1434 1.387 . S
C1435 C1437 1.387 . S
H1436 C1443 0.950 1_655 S
C1437 C1435 1.387 . S
C1437 C1439 1.390 . S
C1437 H1441 0.950 . S
H1438 C1434 0.950 . S
C1439 C1437 1.390 . S
C1439 C1440 1.387 1_455 S
C1439 H1442 0.950 . S
C1440 C1439 1.387 1_655 S
C1440 C1443 1.387 1_655 S
H1441 C1437 0.950 . S
H1442 C1439 0.950 . S
C1443 C1434 1.390 . S
C1443 H1436 0.950 1_455 S
C1443 C1440 1.387 1_455 S
C1444 C1445 1.387 . S
C1444 H1448 0.950 . S
C1444 C1453 1.390 . S
C1445 C1444 1.387 . S
C1445 C1447 1.387 . S
H1446 C1453 0.950 . S
C1447 C1445 1.387 . S
C1447 C1449 1.390 . S
C1447 H1451 0.950 . S
H1448 C1444 0.950 . S
C1449 C1447 1.390 . S
C1449 C1450 1.387 . S
C1449 H1452 0.950 . S
C1450 C1449 1.387 . S
C1450 C1453 1.387 . S
H1451 C1447 0.950 . S
H1452 C1449 0.950 . S
C1453 C1444 1.390 . S
C1453 H1446 0.950 . S
C1453 C1450 1.387 . S
C1454 C1455 1.387 . S
C1454 H1458 0.950 . S
C1454 C1463 1.390 1_455 S
C1455 C1454 1.387 . S
C1455 C1457 1.387 . S
H1456 C1463 0.950 . S
C1457 C1455 1.387 . S
C1457 C1459 1.390 . S
C1457 H1461 0.950 . S
H1458 C1454 0.950 . S
C1459 C1457 1.390 . S
C1459 C1460 1.387 1_455 S
C1459 H1462 0.950 . S
C1460 C1459 1.387 1_655 S
C1460 C1463 1.387 . S
H1461 C1457 0.950 . S
H1462 C1459 0.950 . S
C1463 C1454 1.390 1_655 S
C1463 H1456 0.950 . S
C1463 C1460 1.387 . S
C1464 C1465 1.387 . S
C1464 H1468 0.950 . S
C1464 C1473 1.390 . S
C1465 C1464 1.387 . S
C1465 C1467 1.387 . S
H1466 C1473 0.950 . S
C1467 C1465 1.387 . S
C1467 C1469 1.390 . S
C1467 H1471 0.950 . S
H1468 C1464 0.950 . S
C1469 C1467 1.390 . S
C1469 C1470 1.387 . S
C1469 H1472 0.950 . S
C1470 C1469 1.387 . S
C1470 C1473 1.387 . S
H1471 C1467 0.950 . S
H1472 C1469 0.950 . S
C1473 C1464 1.390 . S
C1473 H1466 0.950 . S
C1473 C1470 1.387 . S
C1474 C1475 1.387 1_655 S
C1474 H1478 0.950 1_655 S
C1474 C1483 1.390 . S
C1475 C1474 1.387 1_455 S
C1475 C1477 1.387 1_455 S
H1476 C1483 0.950 . S
C1477 C1475 1.387 1_655 S
C1477 C1479 1.390 . S
C1477 H1481 0.950 . S
H1478 C1474 0.950 1_455 S
C1479 C1477 1.390 . S
C1479 C1480 1.387 . S
C1479 H1482 0.950 . S
C1480 C1479 1.387 . S
C1480 C1483 1.387 . S
H1481 C1477 0.950 . S
H1482 C1479 0.950 . S
C1483 C1474 1.390 . S
C1483 H1476 0.950 . S
C1483 C1480 1.387 . S
C1484 C1485 1.387 . S
C1484 H1488 0.950 . S
C1484 C1493 1.390 . S
C1485 C1484 1.387 . S
C1485 C1487 1.387 . S
H1486 C1493 0.950 . S
C1487 C1485 1.387 . S
C1487 C1489 1.390 . S
C1487 H1491 0.950 . S
H1488 C1484 0.950 . S
C1489 C1487 1.390 . S
C1489 C1490 1.387 . S
C1489 H1492 0.950 . S
C1490 C1489 1.387 . S
C1490 C1493 1.387 . S
H1491 C1487 0.950 . S
H1492 C1489 0.950 . S
C1493 C1484 1.390 . S
C1493 H1486 0.950 . S
C1493 C1490 1.387 . S
C1494 C1495 1.387 . S
C1494 H1498 0.950 . S
C1494 C1503 1.390 . S
C1495 C1494 1.387 . S
C1495 C1497 1.387 . S
H1496 C1503 0.950 1_455 S
C1497 C1495 1.387 . S
C1497 C1499 1.390 . S
C1497 H1501 0.950 . S
H1498 C1494 0.950 . S
C1499 C1497 1.390 . S
C1499 C1500 1.387 1_655 S
C1499 H1502 0.950 1_655 S
C1500 C1499 1.387 1_455 S
C1500 C1503 1.387 1_455 S
H1501 C1497 0.950 . S
H1502 C1499 0.950 1_455 S
C1503 C1494 1.390 . S
C1503 H1496 0.950 1_655 S
C1503 C1500 1.387 1_655 S
C1504 C1505 1.387 . S
C1504 H1508 0.950 . S
C1504 C1513 1.390 . S
C1505 C1504 1.387 . S
C1505 C1507 1.387 . S
H1506 C1513 0.950 . S
C1507 C1505 1.387 . S
C1507 C1509 1.391 1_545 S
C1507 H1511 0.950 . S
H1508 C1504 0.950 . S
C1509 C1507 1.391 1_565 S
C1509 C1510 1.387 . S
C1509 H1512 0.949 . S
C1510 C1509 1.387 . S
C1510 C1513 1.385 1_565 S
H1511 C1507 0.950 . S
H1512 C1509 0.949 . S
C1513 C1504 1.390 . S
C1513 H1506 0.950 . S
C1513 C1510 1.385 1_545 S
C1514 C1515 1.387 . S
C1514 H1518 0.950 . S
C1514 C1523 1.390 . S
C1515 C1514 1.387 . S
C1515 C1517 1.387 . S
H1516 C1523 0.950 . S
C1517 C1515 1.387 . S
C1517 C1519 1.390 . S
C1517 H1521 0.950 . S
H1518 C1514 0.950 . S
C1519 C1517 1.390 . S
C1519 C1520 1.387 . S
C1519 H1522 0.950 . S
C1520 C1519 1.387 . S
C1520 C1523 1.387 . S
H1521 C1517 0.950 . S
H1522 C1519 0.950 . S
C1523 C1514 1.390 . S
C1523 H1516 0.950 . S
C1523 C1520 1.387 . S
C1524 C1525 1.387 . S
C1524 H1528 0.950 . S
C1524 C1533 1.390 . S
C1525 C1524 1.387 . S
C1525 C1527 1.387 . S
H1526 C1533 0.950 . S
C1527 C1525 1.387 . S
C1527 C1529 1.390 . S
C1527 H1531 0.950 . S
H1528 C1524 0.950 . S
C1529 C1527 1.390 . S
C1529 C1530 1.387 . S
C1529 H1532 0.950 . S
C1530 C1529 1.387 . S
C1530 C1533 1.387 . S
H1531 C1527 0.950 . S
H1532 C1529 0.950 . S
C1533 C1524 1.390 . S
C1533 H1526 0.950 . S
C1533 C1530 1.387 . S
C1534 C1535 1.385 1_545 S
C1534 H1538 0.950 . S
C1534 C1543 1.390 . S
C1535 C1534 1.385 1_565 S
C1535 C1537 1.388 . S
H1536 C1543 0.950 . S
C1537 C1535 1.388 . S
C1537 C1539 1.390 1_565 S
C1537 H1541 0.950 . S
H1538 C1534 0.950 . S
C1539 C1537 1.390 1_545 S
C1539 C1540 1.387 . S
C1539 H1542 0.952 . S
C1540 C1539 1.387 . S
C1540 C1543 1.387 . S
H1541 C1537 0.950 . S
H1542 C1539 0.952 . S
C1543 C1534 1.390 . S
C1543 H1536 0.950 . S
C1543 C1540 1.387 . S
C1544 C1545 1.387 . S
C1544 H1548 0.950 . S
C1544 C1553 1.390 . S
C1545 C1544 1.387 . S
C1545 C1547 1.387 . S
H1546 C1553 0.950 . S
C1547 C1545 1.387 . S
C1547 C1549 1.390 . S
C1547 H1551 0.950 . S
H1548 C1544 0.950 . S
C1549 C1547 1.390 . S
C1549 C1550 1.387 . S
C1549 H1552 0.950 1_565 S
C1550 C1549 1.387 . S
C1550 C1553 1.388 . S
H1551 C1547 0.950 . S
H1552 C1549 0.950 1_545 S
C1553 C1544 1.390 . S
C1553 H1546 0.950 . S
C1553 C1550 1.388 . S
C1554 C1555 1.387 . S
C1554 H1558 0.950 . S
C1554 C1563 1.390 . S
C1555 C1554 1.387 . S
C1555 C1557 1.387 . S
H1556 C1563 0.950 . S
C1557 C1555 1.387 . S
C1557 C1559 1.390 . S
C1557 H1561 0.950 . S
H1558 C1554 0.950 . S
C1559 C1557 1.390 . S
C1559 C1560 1.387 . S
C1559 H1562 0.950 . S
C1560 C1559 1.387 . S
C1560 C1563 1.387 . S
H1561 C1557 0.950 . S
H1562 C1559 0.950 . S
C1563 C1554 1.390 . S
C1563 H1556 0.950 . S
C1563 C1560 1.387 . S
C1564 C1565 1.387 . S
C1564 H1568 0.950 . S
C1564 C1573 1.390 . S
C1565 C1564 1.387 . S
C1565 C1567 1.387 . S
H1566 C1573 0.950 . S
C1567 C1565 1.387 . S
C1567 C1569 1.390 . S
C1567 H1571 0.950 . S
H1568 C1564 0.950 . S
C1569 C1567 1.390 . S
C1569 C1570 1.387 . S
C1569 H1572 0.950 . S
C1570 C1569 1.387 . S
C1570 C1573 1.387 . S
H1571 C1567 0.950 . S
H1572 C1569 0.950 . S
C1573 C1564 1.390 . S
C1573 H1566 0.950 . S
C1573 C1570 1.387 . S
C1574 C1575 1.387 . S
C1574 H1578 0.950 . S
C1574 C1583 1.390 1_565 S
C1575 C1574 1.387 . S
C1575 C1577 1.387 . S
H1576 C1583 0.950 . S
C1577 C1575 1.387 . S
C1577 C1579 1.390 . S
C1577 H1581 0.950 . S
H1578 C1574 0.950 . S
C1579 C1577 1.390 . S
C1579 C1580 1.385 1_565 S
C1579 H1582 0.950 . S
C1580 C1579 1.385 1_545 S
C1580 C1583 1.388 . S
H1581 C1577 0.950 . S
H1582 C1579 0.950 . S
C1583 C1574 1.390 1_545 S
C1583 H1576 0.950 . S
C1583 C1580 1.388 . S
C1584 C1585 1.387 1_554 S
C1584 H1588 0.950 . S
C1584 C1593 1.390 . S
C1585 C1584 1.387 1_556 S
C1585 C1587 1.387 . S
H1586 C1593 0.950 . S
C1587 C1585 1.387 . S
C1587 C1589 1.390 . S
C1587 H1591 0.950 . S
H1588 C1584 0.950 . S
C1589 C1587 1.390 . S
C1589 C1590 1.387 . S
C1589 H1592 0.950 . S
C1590 C1589 1.387 . S
C1590 C1593 1.387 1_556 S
H1591 C1587 0.950 . S
H1592 C1589 0.950 . S
C1593 C1584 1.390 . S
C1593 H1586 0.950 . S
C1593 C1590 1.387 1_554 S
C1594 C1595 1.387 . S
C1594 H1598 0.950 . S
C1594 C1603 1.390 . S
C1595 C1594 1.387 . S
C1595 C1597 1.387 1_556 S
H1596 C1603 0.950 . S
C1597 C1595 1.387 1_554 S
C1597 C1599 1.390 . S
C1597 H1601 0.950 . S
H1598 C1594 0.950 . S
C1599 C1597 1.390 . S
C1599 C1600 1.387 1_554 S
C1599 H1602 0.950 . S
C1600 C1599 1.387 1_556 S
C1600 C1603 1.387 . S
H1601 C1597 0.950 . S
H1602 C1599 0.950 . S
C1603 C1594 1.390 . S
C1603 H1596 0.950 . S
C1603 C1600 1.387 . S
C1604 C1605 1.387 . S
C1604 H1608 0.950 . S
C1604 C1613 1.390 . S
C1605 C1604 1.387 . S
C1605 C1607 1.387 . S
H1606 C1613 0.950 . S
C1607 C1605 1.387 . S
C1607 C1609 1.390 . S
C1607 H1611 0.950 . S
H1608 C1604 0.950 . S
C1609 C1607 1.390 . S
C1609 C1610 1.387 . S
C1609 H1612 0.950 . S
C1610 C1609 1.387 . S
C1610 C1613 1.387 . S
H1611 C1607 0.950 . S
H1612 C1609 0.950 . S
C1613 C1604 1.390 . S
C1613 H1606 0.950 . S
C1613 C1610 1.387 . S
C1614 C1615 1.387 . S
C1614 H1618 0.950 . S
C1614 C1623 1.390 . S
C1615 C1614 1.387 . S
C1615 C1617 1.387 . S
H1616 C1623 0.950 . S
C1617 C1615 1.387 . S
C1617 C1619 1.390 . S
C1617 H1621 0.950 . S
H1618 C1614 0.950 . S
C1619 C1617 1.390 . S
C1619 C1620 1.387 . S
C1619 H1622 0.950 . S
C1620 C1619 1.387 . S
C1620 C1623 1.387 . S
H1621 C1617 0.950 . S
H1622 C1619 0.950 . S
C1623 C1614 1.390 . S
C1623 H1616 0.950 . S
C1623 C1620 1.387 . S
C1624 C1625 1.387 1_556 S
C1624 H1628 0.950 . S
C1624 C1633 1.390 . S
C1625 C1624 1.387 1_554 S
C1625 C1627 1.387 . S
H1626 C1633 0.950 . S
C1627 C1625 1.387 . S
C1627 C1629 1.390 . S
C1627 H1631 0.950 . S
H1628 C1624 0.950 . S
C1629 C1627 1.390 . S
C1629 C1630 1.387 . S
C1629 H1632 0.950 . S
C1630 C1629 1.387 . S
C1630 C1633 1.387 1_554 S
H1631 C1627 0.950 . S
H1632 C1629 0.950 . S
C1633 C1624 1.390 . S
C1633 H1626 0.950 . S
C1633 C1630 1.387 1_556 S
C1634 C1635 1.387 . S
C1634 H1638 0.950 . S
C1634 C1643 1.390 . S
C1635 C1634 1.387 . S
C1635 C1637 1.387 . S
H1636 C1643 0.950 . S
C1637 C1635 1.387 . S
C1637 C1639 1.390 . S
C1637 H1641 0.950 1_554 S
H1638 C1634 0.950 . S
C1639 C1637 1.390 . S
C1639 C1640 1.387 . S
C1639 H1642 0.950 . S
C1640 C1639 1.387 . S
C1640 C1643 1.387 . S
H1641 C1637 0.950 1_556 S
H1642 C1639 0.950 . S
C1643 C1634 1.390 . S
C1643 H1636 0.950 . S
C1643 C1640 1.387 . S
C1644 C1645 1.387 . S
C1644 H1648 0.950 . S
C1644 C1653 1.390 . S
C1645 C1644 1.387 . S
C1645 C1647 1.387 . S
H1646 C1653 0.950 . S
C1647 C1645 1.387 . S
C1647 C1649 1.390 . S
C1647 H1651 0.950 . S
H1648 C1644 0.950 . S
C1649 C1647 1.390 . S
C1649 C1650 1.387 . S
C1649 H1652 0.950 . S
C1650 C1649 1.387 . S
C1650 C1653 1.387 . S
H1651 C1647 0.950 . S
H1652 C1649 0.950 . S
C1653 C1644 1.390 . S
C1653 H1646 0.950 . S
C1653 C1650 1.387 . S
C1654 C1655 1.387 . S
C1654 H1658 0.950 . S
C1654 C1663 1.390 . S
C1655 C1654 1.387 . S
C1655 C1657 1.387 . S
H1656 C1663 0.950 . S
C1657 C1655 1.387 . S
C1657 C1659 1.390 . S
C1657 H1661 0.950 . S
H1658 C1654 0.950 . S
C1659 C1657 1.390 . S
C1659 C1660 1.387 . S
C1659 H1662 0.950 . S
C1660 C1659 1.387 . S
C1660 C1663 1.387 . S
H1661 C1657 0.950 . S
H1662 C1659 0.950 . S
C1663 C1654 1.390 . S
C1663 H1656 0.950 . S
C1663 C1660 1.387 . S
C705 C556 1.394 . S
C710 C7 1.394 . S
C715 C535 1.397 . S
C720 C28 1.397 . S
C725 C600 1.397 . S
C730 C51 1.397 . S
C735 C579 1.394 . S
C740 C72 1.394 . S
C745 C97 1.397 . S
C750 C643 1.397 . S
C755 C115 1.397 . S
C760 C625 1.397 . S
C765 C141 1.394 . S
C770 C687 1.394 . S
C775 C669 1.394 . S
C780 C159 1.394 . S
C785 C380 1.397 . S
C790 C183 1.397 . S
C795 C359 1.397 . S
C800 C204 1.397 . S
C805 C424 1.397 . S
C810 C227 1.397 . S
C815 C403 1.397 . S
C820 C248 1.397 . S
C825 C273 1.397 . S
C830 C467 1.397 . S
C835 C449 1.394 . S
C840 C291 1.394 . S
C845 C317 1.397 . S
C850 C511 1.397 . S
C855 C493 1.397 . S
C860 C335 1.397 . S
C865 C4 1.848 . S
C870 C426 1.848 . S
C875 C400 1.847 . S
C880 C30 1.847 . S
C885 C382 1.847 . S
C890 C48 1.847 . S
C895 C74 1.847 . S
C900 C356 1.847 . S
C905 C514 1.847 . S
C910 C92 1.847 . S
C915 C488 1.848 . S
C920 C118 1.848 . S
C925 C470 1.848 . S
C930 C136 1.848 . S
C935 C444 1.848 . S
C940 C162 1.848 . S
C945 C602 1.847 . S
C950 C180 1.847 . S
C955 C206 1.847 . S
C960 C576 1.847 . S
C965 C224 1.847 . S
C970 C558 1.847 . S
C975 C250 1.848 . S
C980 C532 1.848 . S
C985 C690 1.848 . S
C990 C268 1.848 . S
C995 C664 1.847 . S
C1000 C294 1.847 . S
C1005 C312 1.847 . S
C1010 C646 1.847 . S
C1015 C338 1.848 . S
C1020 C620 1.848 . S
C1025 C94 1.417 . S
C1030 C5 1.417 . S
C1035 C31 1.420 . S
C1040 C645 1.420 . S
C1045 C49 1.415 . S
C1050 C314 1.415 . S
C1055 C513 1.421 . S
C1060 C75 1.421 . S
C1065 C117 1.420 . S
C1070 C559 1.420 . S
C1075 C138 1.421 . S
C1080 C225 1.421 . S
C1085 C427 1.420 . S
C1090 C161 1.420 . S
C1095 C270 1.417 . S
C1100 C181 1.417 . S
C1105 C207 1.421 . S
C1110 C469 1.421 . S
C1115 C251 1.416 . S
C1120 C689 1.416 . S
C1125 C383 1.416 . S
C1130 C293 1.416 . S
C1135 C337 1.421 . S
C1140 C603 1.421 . S
C1145 C446 1.418 . S
C1150 C357 1.418 . S
C1155 C666 1.421 . S
C1160 C401 1.421 . S
C1165 C577 1.418 . S
C1170 C490 1.418 . S
C1175 C533 1.420 . S
C1180 C622 1.420 . S
C1185 C53 1.218 . S
C1190 C9 1.218 . S
C1195 C71 1.218 . S
C1200 C27 1.218 . S
C1205 C139 1.218 . S
C1210 C95 1.217 . S
C1215 C116 1.215 . S
C1220 C160 1.215 . S
C1225 C229 1.218 . S
C1230 C185 1.218 . S
C1235 C203 1.218 . S
C1240 C247 1.218 . S
C1245 C315 1.218 . S
C1250 C271 1.218 . S
C1255 C292 1.215 . S
C1260 C336 1.215 . S
C1265 C361 1.218 . S
C1270 C405 1.218 . S
C1275 C379 1.218 . S
C1280 C423 1.218 . S
C1285 C491 1.215 . S
C1290 C447 1.215 . S
C1295 C468 1.215 . S
C1300 C512 1.215 . S
C1305 C537 1.218 . S
C1310 C581 1.218 . S
C1315 C599 1.215 . S
C1320 C555 1.215 . S
C1325 C623 1.218 . S
C1330 C667 1.218 . S
C1335 C644 1.215 . S
C1340 C688 1.215 . S
C1345 C119 1.606 . S
C1350 C8 1.581 . S
C1355 C621 1.605 . S
C1360 C26 1.579 . S
C1365 C52 1.581 . S
C1370 C339 1.604 . S
C1375 C70 1.581 . S
C1380 C489 1.606 . S
C1385 C96 1.581 . S
C1390 C29 1.606 . S
C1395 C114 1.581 . S
C1400 C534 1.604 . S
C1405 C249 1.604 . S
C1410 C140 1.581 . S
C1415 C402 1.606 . S
C1420 C158 1.581 . S
C1425 C184 1.579 . S
C1430 C295 1.605 . S
C1435 C445 1.605 . S
C1440 C202 1.579 . S
C1445 C228 1.581 . S
C1450 C163 1.604 . S
C1455 C665 1.604 . S
C1460 C246 1.580 . S
C1465 C272 1.579 . S
C1470 C205 1.605 . S
C1475 C290 1.579 . S
C1480 C358 1.605 . S
C1485 C316 1.579 . S
C1490 C73 1.605 . S
C1495 C578 1.604 . S
C1500 C334 1.581 . S
C1505 C360 1.581 . S
C1510 C471 1.606 . S
C1515 C378 1.580 . S
C1520 C269 1.604 . S
C1525 C691 1.604 . S
C1530 C404 1.581 . S
C1535 C137 1.605 . S
C1540 C422 1.581 . S
C1545 C448 1.579 . S
C1550 C381 1.605 1_565 S
C1555 C182 1.604 . S
C1560 C466 1.581 . S
C1565 C601 1.605 . S
C1570 C492 1.579 . S
C1575 C510 1.581 . S
C1580 C50 1.606 . S
C1585 C647 1.605 . S
C1590 C536 1.579 . S
C1595 C554 1.581 . S
C1600 C93 1.604 . S
C1605 C515 1.604 . S
C1610 C580 1.581 . S
C1615 C313 1.604 . S
C1620 C598 1.580 . S
C1625 C557 1.604 . S
C1630 C624 1.581 . S
C1635 C642 1.581 . S
C1640 C6 1.604 . S
C1645 C425 1.604 . S
C1650 C668 1.581 . S
C1655 C686 1.579 . S
C1660 C226 1.605 . S
