# Generated by pormake.
# Topology smc, (6)-cn, num edge types: 1
# Building blocks:
#     Node 0, Type 0, BuildingBlock: CIFDUS_clean_sbu_1, # of connection points: 6
#     Node 1, Type 0, BuildingBlock: CIFDUS_clean_sbu_1, # of connection points: 6
#     Node 2, Type 0, BuildingBlock: CIFDUS_clean_sbu_1, # of connection points: 6
#     Node 3, Type 0, BuildingBlock: CIFDUS_clean_sbu_1, # of connection points: 6
#     Node 4, Type 0, BuildingBlock: CIFDUS_clean_sbu_1, # of connection points: 6
#     Node 5, Type 0, BuildingBlock: CIFDUS_clean_sbu_1, # of connection points: 6
#     Node 6, Type 0, BuildingBlock: CIFDUS_clean_sbu_1, # of connection points: 6
#     Node 7, Type 0, BuildingBlock: CIFDUS_clean_sbu_1, # of connection points: 6
#     Node 8, Type 0, BuildingBlock: CIFDUS_clean_sbu_1, # of connection points: 6
#     Edge 9, Type (0, 0), BuildingBlock: EYOCIG_clean_linker_4, # of connection points: 2
#     Edge 10, Type (0, 0), BuildingBlock: EYOCIG_clean_linker_4, # of connection points: 2
#     Edge 11, Type (0, 0), BuildingBlock: EYOCIG_clean_linker_4, # of connection points: 2
#     Edge 12, Type (0, 0), BuildingBlock: EYOCIG_clean_linker_4, # of connection points: 2
#     Edge 13, Type (0, 0), BuildingBlock: EYOCIG_clean_linker_4, # of connection points: 2
#     Edge 14, Type (0, 0), BuildingBlock: EYOCIG_clean_linker_4, # of connection points: 2
#     Edge 15, Type (0, 0), BuildingBlock: EYOCIG_clean_linker_4, # of connection points: 2
#     Edge 16, Type (0, 0), BuildingBlock: EYOCIG_clean_linker_4, # of connection points: 2
#     Edge 17, Type (0, 0), BuildingBlock: EYOCIG_clean_linker_4, # of connection points: 2
#     Edge 18, Type (0, 0), BuildingBlock: EYOCIG_clean_linker_4, # of connection points: 2
#     Edge 19, Type (0, 0), BuildingBlock: EYOCIG_clean_linker_4, # of connection points: 2
#     Edge 20, Type (0, 0), BuildingBlock: EYOCIG_clean_linker_4, # of connection points: 2
#     Edge 21, Type (0, 0), BuildingBlock: EYOCIG_clean_linker_4, # of connection points: 2
#     Edge 22, Type (0, 0), BuildingBlock: EYOCIG_clean_linker_4, # of connection points: 2
#     Edge 23, Type (0, 0), BuildingBlock: EYOCIG_clean_linker_4, # of connection points: 2
#     Edge 24, Type (0, 0), BuildingBlock: EYOCIG_clean_linker_4, # of connection points: 2
#     Edge 25, Type (0, 0), BuildingBlock: EYOCIG_clean_linker_4, # of connection points: 2
#     Edge 26, Type (0, 0), BuildingBlock: EYOCIG_clean_linker_4, # of connection points: 2
#     Edge 27, Type (0, 0), BuildingBlock: EYOCIG_clean_linker_4, # of connection points: 2
#     Edge 28, Type (0, 0), BuildingBlock: EYOCIG_clean_linker_4, # of connection points: 2
#     Edge 29, Type (0, 0), BuildingBlock: EYOCIG_clean_linker_4, # of connection points: 2
#     Edge 30, Type (0, 0), BuildingBlock: EYOCIG_clean_linker_4, # of connection points: 2
#     Edge 31, Type (0, 0), BuildingBlock: EYOCIG_clean_linker_4, # of connection points: 2
#     Edge 32, Type (0, 0), BuildingBlock: EYOCIG_clean_linker_4, # of connection points: 2
#     Edge 33, Type (0, 0), BuildingBlock: EYOCIG_clean_linker_4, # of connection points: 2
#     Edge 34, Type (0, 0), BuildingBlock: EYOCIG_clean_linker_4, # of connection points: 2
#     Edge 35, Type (0, 0), BuildingBlock: EYOCIG_clean_linker_4, # of connection points: 2
# Relax obj value: 0.151
# Max RMSD: 0.226
# Mean RMSD: 0.226
data_MOF--net-smc--node1-CIFDUS_clean_sbu_1--edge1-EYOCIG_clean_linker_4
_symmetry_space_group_name_H-M    P1
_symmetry_Int_Tables_number       1
_symmetry_cell_setting            triclinic
loop_
_symmetry_equiv_pos_as_xyz
'x, y, z'
_cell_length_a     24.282763
_cell_length_b     24.281801
_cell_length_c     31.168572
_cell_angle_alpha  90.015763
_cell_angle_beta   90.003409
_cell_angle_gamma 119.9987
loop_
_atom_site_label
_atom_site_type_symbol
_atom_site_fract_x
_atom_site_fract_y
_atom_site_fract_z
_atom_type_partial_charge
O0 O 0.92909 0.36482 1.06573 0.0
Mn1 Mn -0.00085 0.45958 0.07508 0.0
O2 O 0.8579 0.34559 0.1188 0.0
Mn3 Mn 0.90082 0.42252 0.14829 0.0
O4 O 0.06604 0.55575 0.08611 0.0
O5 O 0.01648 0.46675 1.01141 0.0
Mn6 Mn 0.09748 0.52079 1.00186 0.0
O7 O 0.06921 0.43488 0.08442 0.0
O8 O 0.11184 0.59806 1.02288 0.0
O9 O 0.93226 0.48886 1.06405 0.0
O10 O 0.88648 0.48543 0.12728 0.0
O11 O 0.06118 0.48844 0.94884 0.0
O12 O 0.1404 0.48679 1.03135 0.0
C13 C -0.01171 0.44348 0.17939 0.0
C14 C 0.87621 0.32905 0.08521 0.0
C15 C 0.10015 0.60371 1.06188 0.0
C16 C 0.01 0.45428 0.97077 0.0
C17 C 0.12208 0.45196 1.06495 0.0
C18 C 0.89817 0.50275 0.08828 0.0
O19 O 0.98182 0.44947 0.13875 0.0
O20 O 0.93711 0.42649 0.20132 0.0
O21 O 0.56727 0.64117 0.08443 0.0
Mn22 Mn 0.54257 0.54641 0.07507 0.0
O23 O 0.51533 0.66045 1.03136 0.0
Mn24 Mn 0.48131 0.58352 1.00186 0.0
O25 O 0.51329 0.45025 1.06402 0.0
O26 O 0.55272 0.53922 0.13874 0.0
Mn27 Mn 0.5797 0.48519 0.14827 0.0
O28 O 0.63732 0.57111 1.06572 0.0
O29 O 0.51681 0.40792 0.12724 0.0
O30 O 0.44641 0.51715 0.08609 0.0
O31 O 0.40406 0.52063 1.02286 0.0
O32 O 0.57574 0.51752 0.2013 0.0
O33 O 0.65662 0.5192 0.11879 0.0
C34 C 0.54781 0.56255 0.97076 0.0
C35 C 0.55019 0.67697 1.06496 0.0
C36 C 0.49944 0.40228 0.08825 0.0
C37 C 0.55871 0.55167 0.17937 0.0
C38 C 0.67312 0.55404 0.0852 0.0
C39 C 0.39843 0.50329 1.06186 0.0
O40 O 0.53536 0.55656 1.01139 0.0
O41 O 0.51364 0.57957 0.94883 0.0
O42 O 0.43102 0.07304 1.06574 0.0
Mn43 Mn 0.45573 0.003 0.07509 0.0
O44 O 0.48297 0.14429 0.1188 0.0
Mn45 Mn 0.51698 0.1014 0.14831 0.0
O46 O 0.48501 0.93612 0.08613 0.0
O47 O 0.44558 0.98561 1.01142 0.0
Mn48 Mn 0.41862 0.9046 1.00188 0.0
O49 O 0.36098 0.93295 0.08443 0.0
O50 O 0.48153 0.89027 1.0229 0.0
O51 O 0.55189 0.06989 1.06407 0.0
O52 O 0.59423 0.11574 0.12731 0.0
O53 O 0.42255 0.94086 0.94885 0.0
O54 O 0.34171 0.8617 1.03136 0.0
C55 C 0.45047 0.01395 0.1794 0.0
C56 C 0.44812 0.12594 0.08521 0.0
C57 C 0.49888 0.902 1.0619 0.0
C58 C 0.43957 -0.00794 0.97079 0.0
C59 C 0.32519 0.88005 1.06496 0.0
C60 C 0.59987 0.10401 0.08831 0.0
O61 O 0.46294 0.02038 0.13877 0.0
O62 O 0.48464 0.06514 0.20133 0.0
O63 O 0.59567 0.69819 0.3991 0.0
Mn64 Mn 0.66573 0.79294 0.40845 0.0
O65 O 0.52448 0.67896 0.45217 0.0
Mn66 Mn 0.56742 0.75588 0.48167 0.0
O67 O 0.73262 0.88911 0.41949 0.0
O68 O 0.68305 0.80013 0.34478 0.0
Mn69 Mn 0.76405 0.85418 0.33523 0.0
O70 O 0.73579 0.76824 0.41778 0.0
O71 O 0.7784 0.93144 0.35626 0.0
O72 O 0.59884 0.82222 0.39744 0.0
O73 O 0.55308 0.8188 0.46067 0.0
O74 O 0.72775 0.82183 0.28221 0.0
O75 O 0.80698 0.82018 0.36471 0.0
C76 C 0.65488 0.7768 0.51276 0.0
C77 C 0.54279 0.66241 0.41858 0.0
C78 C 0.76671 0.93708 0.39526 0.0
C79 C 0.67658 0.78766 0.30414 0.0
C80 C 0.78866 0.78533 0.3983 0.0
C81 C 0.56476 0.83611 0.42168 0.0
O82 O 0.64841 0.78281 0.47213 0.0
O83 O 0.6037 0.75982 0.5347 0.0
O84 O 0.3039 0.90446 0.39905 0.0
Mn85 Mn 0.20914 0.87976 0.40838 0.0
O86 O 0.32316 0.85251 0.45211 0.0
Mn87 Mn 0.24624 0.81849 0.48158 0.0
O88 O 0.11298 0.85049 0.41939 0.0
O89 O 0.20196 0.88993 0.34471 0.0
Mn90 Mn 0.14791 0.91689 0.33517 0.0
O91 O 0.23385 0.97452 0.41776 0.0
O92 O 0.07065 0.85398 0.35616 0.0
O93 O 0.17986 0.7836 0.39732 0.0
O94 O 0.18334 0.74124 0.46054 0.0
O95 O 0.18026 0.91296 0.28214 0.0
O96 O 0.18191 -0.0062 0.36469 0.0
C97 C 0.22525 0.88499 0.51268 0.0
C98 C 0.33969 0.88737 0.41853 0.0
C99 C 0.06501 0.83664 0.39515 0.0
C100 C 0.21443 0.89594 0.30408 0.0
C101 C 0.21676 0.01032 0.39829 0.0
C102 C 0.166 0.73562 0.42154 0.0
O103 O 0.21927 0.87254 0.47205 0.0
O104 O 0.24227 0.85081 0.53462 0.0
O105 O 0.0976 0.40639 0.39906 0.0
Mn106 Mn 0.12231 0.33635 0.40843 0.0
O107 O 0.1495 0.47764 0.45214 0.0
Mn108 Mn 0.18353 0.43477 0.48165 0.0
O109 O 0.15158 0.26947 0.41948 0.0
O110 O 0.11215 0.31895 0.34476 0.0
Mn111 Mn 0.08517 0.23793 0.33523 0.0
O112 O 0.02755 0.2663 0.41778 0.0
O113 O 0.14807 0.22358 0.35626 0.0
O114 O 0.21846 0.40324 0.39742 0.0
O115 O 0.26079 0.44913 0.46064 0.0
O116 O 0.08913 0.27419 0.2822 0.0
O117 O 0.00826 0.19506 0.36471 0.0
C118 C 0.11705 0.3473 0.51273 0.0
C119 C 0.11466 0.45928 0.41853 0.0
C120 C 0.16543 0.23533 0.39525 0.0
C121 C 0.10616 0.3254 0.30413 0.0
C122 C -0.00825 0.21341 0.3983 0.0
C123 C 0.26643 0.43739 0.42165 0.0
O124 O 0.12951 0.35375 0.4721 0.0
O125 O 0.1512 0.3985 0.53467 0.0
O126 O 0.26233 0.03142 0.73242 0.0
Mn127 Mn 0.33239 0.12618 0.74179 0.0
O128 O 0.19113 0.01215 0.78549 0.0
Mn129 Mn 0.23404 0.08907 0.81499 0.0
O130 O 0.39928 0.22234 0.75284 0.0
O131 O 0.34973 0.13338 0.67812 0.0
Mn132 Mn 0.43073 0.18741 0.66858 0.0
O133 O 0.40244 0.10147 0.75113 0.0
O134 O 0.4451 0.26467 0.68961 0.0
O135 O 0.2655 0.15545 0.73076 0.0
O136 O 0.21968 0.15197 0.79399 0.0
O137 O 0.39444 0.15508 0.61555 0.0
O138 O 0.47364 0.15339 0.69806 0.0
C139 C 0.32151 0.11003 0.84609 0.0
C140 C 0.20945 -0.00437 0.75189 0.0
C141 C 0.43339 0.27031 0.72861 0.0
C142 C 0.34326 0.12092 0.63748 0.0
C143 C 0.45531 0.11854 0.73165 0.0
C144 C 0.23139 0.16931 0.755 0.0
O145 O 0.31504 0.11603 0.80546 0.0
O146 O 0.27032 0.09302 0.86802 0.0
O147 O 0.90048 0.30773 0.75108 0.0
Mn148 Mn 0.87578 0.21297 0.74173 0.0
O149 O 0.84851 0.32698 0.69802 0.0
Mn150 Mn 0.81451 0.25006 0.66852 0.0
O151 O 0.8465 0.11681 0.73068 0.0
O152 O 0.88593 0.20578 0.8054 0.0
Mn153 Mn 0.91289 0.15173 0.81493 0.0
O154 O 0.97053 0.23767 0.73239 0.0
O155 O 0.84998 0.07448 0.79391 0.0
O156 O 0.77962 0.18371 0.75275 0.0
O157 O 0.73726 0.18715 0.68952 0.0
O158 O 0.90895 0.18408 0.86796 0.0
O159 O -0.0102 0.18573 0.78545 0.0
C160 C 0.88103 0.22913 0.63742 0.0
C161 C 0.88338 0.34352 0.73162 0.0
C162 C 0.83263 0.06884 0.75491 0.0
C163 C 0.89194 0.21825 0.84603 0.0
C164 C 0.00632 0.22058 0.75186 0.0
C165 C 0.73164 0.16982 0.72852 0.0
O166 O 0.86857 0.22311 0.67805 0.0
O167 O 0.84684 0.24612 0.61549 0.0
O168 O 0.76426 0.73962 0.73238 0.0
Mn169 Mn 0.78897 0.66958 0.74174 0.0
O170 O 0.81621 0.81088 0.78545 0.0
Mn171 Mn 0.85024 0.768 0.81494 0.0
O172 O 0.81825 0.6027 0.75276 0.0
O173 O 0.77879 0.65219 0.67807 0.0
Mn174 Mn 0.7518 0.57117 0.66852 0.0
O175 O 0.69423 0.59954 0.7511 0.0
O176 O 0.81471 0.55682 0.68954 0.0
O177 O 0.88513 0.73647 0.7307 0.0
O178 O 0.92749 0.78235 0.79392 0.0
O179 O 0.75573 0.60743 0.6155 0.0
O180 O 0.67491 0.52829 0.69802 0.0
C181 C 0.78377 0.68054 0.84604 0.0
C182 C 0.78134 0.79252 0.75186 0.0
C183 C 0.83209 0.56856 0.72853 0.0
C184 C 0.77277 0.65863 0.63744 0.0
C185 C 0.65842 0.54664 0.73163 0.0
C186 C 0.93311 0.77061 0.75493 0.0
O187 O 0.79621 0.68698 0.80541 0.0
O188 O 0.81794 0.73174 0.86797 0.0
C189 C 0.27967 0.44999 0.08765 0.0
C190 C 0.33562 0.47321 0.07992 0.0
C191 C 0.21562 0.43541 0.08895 0.0
C192 C 0.1673 0.43685 0.08299 0.0
C193 C 0.55219 0.83655 0.0877 0.0
C194 C 0.52896 0.86927 0.07998 0.0
C195 C 0.56677 0.78708 0.08899 0.0
C196 C 0.56531 0.7373 0.08302 0.0
C197 C 0.2151 0.78654 0.08896 0.0
C198 C 0.26487 0.83486 0.083 0.0
C199 C 0.16562 0.72249 0.08767 0.0
C200 C 0.1329 0.66654 0.07995 0.0
C201 C 0.43155 0.21945 1.06117 0.0
C202 C 0.433 0.17113 1.06715 0.0
C203 C 0.44612 0.2835 1.06245 0.0
C204 C 0.46935 0.33945 1.07017 0.0
C205 C 0.71862 0.16946 1.06252 0.0
C206 C 0.66268 0.13675 1.07024 0.0
C207 C 0.78267 0.21893 1.06121 0.0
C208 C 0.831 0.26871 1.06717 0.0
C209 C 0.8327 0.55604 1.06249 0.0
C210 C 0.86542 0.53281 1.07021 0.0
C211 C 0.78322 0.57061 1.06119 0.0
C212 C 0.73344 0.56915 1.06715 0.0
C213 C 0.88221 0.76877 0.42227 0.0
C214 C 0.83388 0.77022 0.41633 0.0
C215 C 0.94626 0.78334 0.42095 0.0
C216 C 0.0022 0.80657 0.41322 0.0
C217 C 0.21874 0.16988 0.42106 0.0
C218 C 0.19551 0.2026 0.41334 0.0
C219 C 0.23332 0.12041 0.42234 0.0
C220 C 0.23187 0.07063 0.41636 0.0
C221 C 0.88166 0.11991 0.42233 0.0
C222 C 0.93144 0.16822 0.41635 0.0
C223 C 0.83218 0.05586 0.42105 0.0
C224 C 0.79946 -9e-05 0.41333 0.0
C225 C 0.11267 0.61684 0.39574 0.0
C226 C 0.1359 0.67279 0.40345 0.0
C227 C 0.0981 0.55279 0.39447 0.0
C228 C 0.09955 0.50448 0.40046 0.0
C229 C 0.38519 0.50284 0.39587 0.0
C230 C 0.32925 0.47012 0.40359 0.0
C231 C 0.44924 0.55231 0.39457 0.0
C232 C 0.49757 0.60208 0.40053 0.0
C233 C 0.4498 0.90396 0.39456 0.0
C234 C 0.40002 0.9025 0.4005 0.0
C235 C 0.49928 0.8894 0.39587 0.0
C236 C 0.532 0.86617 0.4036 0.0
C237 C 0.61289 0.11653 0.75432 0.0
C238 C 0.66883 0.13976 0.74659 0.0
C239 C 0.54884 0.10196 0.75563 0.0
C240 C 0.50052 0.10342 0.74968 0.0
C241 C 0.89997 0.45363 0.75562 0.0
C242 C 0.89851 0.40385 0.74966 0.0
C243 C 0.8854 0.50311 0.75433 0.0
C244 C 0.86217 0.53583 0.7466 0.0
C245 C 0.54834 0.45314 0.75567 0.0
C246 C 0.59811 0.50145 0.74969 0.0
C247 C 0.49886 0.38909 0.7544 0.0
C248 C 0.46613 0.33314 0.74669 0.0
C249 C 0.76474 0.88601 0.72783 0.0
C250 C 0.76621 0.8377 0.7338 0.0
C251 C 0.77931 0.95006 0.72911 0.0
C252 C 0.80254 0.00601 0.73683 0.0
C253 C 0.05187 0.83606 0.72914 0.0
C254 C -0.00408 0.80334 0.73685 0.0
C255 C 0.11591 0.88553 0.72785 0.0
C256 C 0.16424 0.93531 0.73383 0.0
C257 C 0.16591 0.2226 0.72919 0.0
C258 C 0.19863 0.19938 0.73693 0.0
C259 C 0.11643 0.23716 0.72788 0.0
C260 C 0.06665 0.2357 0.73383 0.0
C261 C 0.09766 0.41153 0.25831 0.0
C262 C 0.10499 0.37849 0.28421 0.0
C263 C 0.07437 0.43487 0.22521 0.0
C264 C 0.04136 0.44225 0.1993 0.0
C265 C 0.59049 0.69297 0.25831 0.0
C266 C 0.6235 0.73336 0.28422 0.0
C267 C 0.56719 0.64632 0.22521 0.0
C268 C 0.55987 0.60595 0.1993 0.0
C269 C 0.35578 0.92786 0.22519 0.0
C270 C 0.39617 0.96087 0.1993 0.0
C271 C 0.30912 0.90453 0.25827 0.0
C272 C 0.26873 0.89716 0.28417 0.0
C273 C 0.43096 0.07814 0.92499 0.0
C274 C 0.43834 0.04513 0.95088 0.0
C275 C 0.40762 0.10146 0.8919 0.0
C276 C 0.37459 0.10882 0.866 0.0
C277 C 0.92386 0.3596 0.92495 0.0
C278 C 0.9569 0.39999 0.95086 0.0
C279 C 0.90052 0.31294 0.89185 0.0
C280 C 0.89315 0.27255 0.86595 0.0
C281 C 0.68912 0.59444 0.89185 0.0
C282 C 0.72949 0.62746 0.86595 0.0
C283 C 0.64248 0.57112 0.92495 0.0
C284 C 0.6021 0.56376 0.95085 0.0
C285 C 0.74095 0.76814 0.55855 0.0
C286 C 0.70794 0.77554 0.53266 0.0
C287 C 0.76425 0.74477 0.59164 0.0
C288 C 0.77159 0.71173 0.61753 0.0
C289 C 0.23379 0.97964 0.55853 0.0
C290 C 0.22644 0.93927 0.53261 0.0
C291 C 0.25712 0.02628 0.59164 0.0
C292 C 0.29015 0.06665 0.61755 0.0
C293 C 0.97575 0.23778 0.59162 0.0
C294 C 0.93535 0.23038 0.61751 0.0
C295 C 0.0224 0.26115 0.55853 0.0
C296 C 0.06278 0.2942 0.53264 0.0
loop_
_geom_bond_atom_site_label_1
_geom_bond_atom_site_label_2
_geom_bond_distance
_geom_bond_site_symmetry_2
_ccdc_geom_bond_type
O0 Mn1 2.163 1_656 S
O0 C14 1.244 1_556 S
Mn1 O0 2.163 1_454 S
Mn1 O4 2.160 . S
Mn1 O5 2.221 1_554 S
Mn1 O7 2.163 . S
Mn1 O9 2.160 1_455 S
Mn1 O19 2.223 . S
O2 Mn3 2.087 . S
O2 C14 1.256 . S
Mn3 O2 2.087 . S
Mn3 O10 2.089 . S
Mn3 O19 2.279 1_655 S
Mn3 O20 2.251 . S
O4 Mn1 2.160 . S
O4 C15 1.239 1_554 S
O5 Mn1 2.221 1_556 S
O5 Mn6 2.290 . S
O5 C16 1.278 . S
Mn6 O5 2.290 . S
Mn6 O8 2.089 . S
Mn6 O11 2.251 . S
Mn6 O12 2.087 . S
O7 Mn1 2.163 . S
O7 C17 1.244 1_554 S
O8 Mn6 2.089 . S
O8 C15 1.256 . S
O9 Mn1 2.160 1_655 S
O9 C18 1.239 . S
O10 Mn3 2.089 . S
O10 C18 1.256 . S
O11 Mn6 2.251 . S
O11 C16 1.241 . S
O12 Mn6 2.087 . S
O12 C17 1.256 . S
C13 O19 1.284 . S
C13 O20 1.241 1_455 S
C14 O0 1.244 1_554 S
C14 O2 1.256 . S
C15 O4 1.239 1_556 S
C15 O8 1.256 . S
C16 O5 1.278 . S
C16 O11 1.241 . S
C17 O7 1.244 1_556 S
C17 O12 1.256 . S
C18 O9 1.239 . S
C18 O10 1.256 . S
O19 Mn1 2.223 . S
O19 Mn3 2.279 1_455 S
O19 C13 1.284 . S
O20 Mn3 2.251 . S
O20 C13 1.241 1_655 S
O21 Mn22 2.163 . S
O21 C35 1.244 1_554 S
Mn22 O21 2.163 . S
Mn22 O25 2.160 . S
Mn22 O26 2.221 . S
Mn22 O28 2.163 1_554 S
Mn22 O30 2.160 . S
Mn22 O40 2.221 1_554 S
O23 Mn24 2.087 . S
O23 C35 1.256 . S
Mn24 O23 2.087 . S
Mn24 O31 2.089 . S
Mn24 O40 2.290 . S
Mn24 O41 2.251 . S
O25 Mn22 2.160 . S
O25 C36 1.239 . S
O26 Mn22 2.221 . S
O26 Mn27 2.290 . S
O26 C37 1.278 . S
Mn27 O26 2.290 . S
Mn27 O29 2.089 . S
Mn27 O32 2.251 . S
Mn27 O33 2.087 . S
O28 Mn22 2.163 1_556 S
O28 C38 1.244 1_556 S
O29 Mn27 2.089 . S
O29 C36 1.256 . S
O30 Mn22 2.160 . S
O30 C39 1.239 1_554 S
O31 Mn24 2.089 . S
O31 C39 1.256 . S
O32 Mn27 2.251 . S
O32 C37 1.241 . S
O33 Mn27 2.087 . S
O33 C38 1.256 . S
C34 O40 1.278 . S
C34 O41 1.241 . S
C35 O21 1.244 1_556 S
C35 O23 1.256 . S
C36 O25 1.239 . S
C36 O29 1.256 . S
C37 O26 1.278 . S
C37 O32 1.241 . S
C38 O28 1.244 1_554 S
C38 O33 1.256 . S
C39 O30 1.239 1_556 S
C39 O31 1.256 . S
O40 Mn22 2.221 1_556 S
O40 Mn24 2.290 . S
O40 C34 1.278 . S
O41 Mn24 2.251 . S
O41 C34 1.241 . S
O42 Mn43 2.163 1_556 S
O42 C56 1.244 1_556 S
Mn43 O42 2.163 1_554 S
Mn43 O46 2.160 1_545 S
Mn43 O47 2.222 1_554 S
Mn43 O49 2.163 1_545 S
Mn43 O51 2.160 . S
Mn43 O61 2.221 . S
O44 Mn45 2.087 . S
O44 C56 1.256 . S
Mn45 O44 2.087 . S
Mn45 O52 2.089 . S
Mn45 O61 2.290 . S
Mn45 O62 2.251 . S
O46 Mn43 2.160 1_565 S
O46 C57 1.239 1_554 S
O47 Mn43 2.222 1_556 S
O47 Mn48 2.282 1_545 S
O47 C58 1.282 . S
Mn48 O47 2.282 1_565 S
Mn48 O50 2.089 . S
Mn48 O53 2.251 . S
Mn48 O54 2.087 . S
O49 Mn43 2.163 1_565 S
O49 C59 1.244 1_554 S
O50 Mn48 2.089 . S
O50 C57 1.256 . S
O51 Mn43 2.160 . S
O51 C60 1.239 . S
O52 Mn45 2.089 . S
O52 C60 1.256 . S
O53 Mn48 2.251 . S
O53 C58 1.241 1_565 S
O54 Mn48 2.087 . S
O54 C59 1.256 . S
C55 O61 1.278 . S
C55 O62 1.241 . S
C56 O42 1.244 1_554 S
C56 O44 1.256 . S
C57 O46 1.239 1_556 S
C57 O50 1.256 . S
C58 O47 1.282 . S
C58 O53 1.241 1_545 S
C59 O49 1.244 1_556 S
C59 O54 1.256 . S
C60 O51 1.239 . S
C60 O52 1.256 . S
O61 Mn43 2.221 . S
O61 Mn45 2.290 . S
O61 C55 1.278 . S
O62 Mn45 2.251 . S
O62 C55 1.241 . S
O63 Mn64 2.163 . S
O63 C77 1.244 . S
Mn64 O63 2.163 . S
Mn64 O67 2.160 . S
Mn64 O68 2.221 . S
Mn64 O70 2.163 . S
Mn64 O72 2.160 . S
Mn64 O82 2.221 . S
O65 Mn66 2.087 . S
O65 C77 1.256 . S
Mn66 O65 2.087 . S
Mn66 O73 2.089 . S
Mn66 O82 2.290 . S
Mn66 O83 2.251 . S
O67 Mn64 2.160 . S
O67 C78 1.239 . S
O68 Mn64 2.221 . S
O68 Mn69 2.290 . S
O68 C79 1.278 . S
Mn69 O68 2.290 . S
Mn69 O71 2.089 . S
Mn69 O74 2.251 . S
Mn69 O75 2.087 . S
O70 Mn64 2.163 . S
O70 C80 1.244 . S
O71 Mn69 2.089 . S
O71 C78 1.256 . S
O72 Mn64 2.160 . S
O72 C81 1.239 . S
O73 Mn66 2.089 . S
O73 C81 1.256 . S
O74 Mn69 2.251 . S
O74 C79 1.241 . S
O75 Mn69 2.087 . S
O75 C80 1.256 . S
C76 O82 1.278 . S
C76 O83 1.241 . S
C77 O63 1.244 . S
C77 O65 1.256 . S
C78 O67 1.239 . S
C78 O71 1.256 . S
C79 O68 1.278 . S
C79 O74 1.241 . S
C80 O70 1.244 . S
C80 O75 1.256 . S
C81 O72 1.239 . S
C81 O73 1.256 . S
O82 Mn64 2.221 . S
O82 Mn66 2.290 . S
O82 C76 1.278 . S
O83 Mn66 2.251 . S
O83 C76 1.241 . S
O84 Mn85 2.163 . S
O84 C98 1.244 . S
Mn85 O84 2.163 . S
Mn85 O88 2.160 . S
Mn85 O89 2.221 . S
Mn85 O91 2.163 . S
Mn85 O93 2.160 . S
Mn85 O103 2.221 . S
O86 Mn87 2.087 . S
O86 C98 1.256 . S
Mn87 O86 2.087 . S
Mn87 O94 2.089 . S
Mn87 O103 2.290 . S
Mn87 O104 2.251 . S
O88 Mn85 2.160 . S
O88 C99 1.239 . S
O89 Mn85 2.221 . S
O89 Mn90 2.290 . S
O89 C100 1.278 . S
Mn90 O89 2.290 . S
Mn90 O92 2.089 . S
Mn90 O95 2.251 . S
Mn90 O96 2.087 1_565 S
O91 Mn85 2.163 . S
O91 C101 1.244 1_565 S
O92 Mn90 2.089 . S
O92 C99 1.256 . S
O93 Mn85 2.160 . S
O93 C102 1.239 . S
O94 Mn87 2.089 . S
O94 C102 1.256 . S
O95 Mn90 2.251 . S
O95 C100 1.241 . S
O96 Mn90 2.087 1_545 S
O96 C101 1.256 . S
C97 O103 1.278 . S
C97 O104 1.241 . S
C98 O84 1.244 . S
C98 O86 1.256 . S
C99 O88 1.239 . S
C99 O92 1.256 . S
C100 O89 1.278 . S
C100 O95 1.241 . S
C101 O91 1.244 1_545 S
C101 O96 1.256 . S
C102 O93 1.239 . S
C102 O94 1.256 . S
O103 Mn85 2.221 . S
O103 Mn87 2.290 . S
O103 C97 1.278 . S
O104 Mn87 2.251 . S
O104 C97 1.241 . S
O105 Mn106 2.163 . S
O105 C119 1.244 . S
Mn106 O105 2.163 . S
Mn106 O109 2.160 . S
Mn106 O110 2.221 . S
Mn106 O112 2.163 . S
Mn106 O114 2.160 . S
Mn106 O124 2.221 . S
O107 Mn108 2.087 . S
O107 C119 1.256 . S
Mn108 O107 2.087 . S
Mn108 O115 2.089 . S
Mn108 O124 2.290 . S
Mn108 O125 2.251 . S
O109 Mn106 2.160 . S
O109 C120 1.239 . S
O110 Mn106 2.221 . S
O110 Mn111 2.290 . S
O110 C121 1.278 . S
Mn111 O110 2.290 . S
Mn111 O113 2.089 . S
Mn111 O116 2.251 . S
Mn111 O117 2.087 . S
O112 Mn106 2.163 . S
O112 C122 1.244 . S
O113 Mn111 2.089 . S
O113 C120 1.256 . S
O114 Mn106 2.160 . S
O114 C123 1.239 . S
O115 Mn108 2.089 . S
O115 C123 1.256 . S
O116 Mn111 2.251 . S
O116 C121 1.241 . S
O117 Mn111 2.087 . S
O117 C122 1.256 . S
C118 O124 1.278 . S
C118 O125 1.241 . S
C119 O105 1.244 . S
C119 O107 1.256 . S
C120 O109 1.239 . S
C120 O113 1.256 . S
C121 O110 1.278 . S
C121 O116 1.241 . S
C122 O112 1.244 . S
C122 O117 1.256 . S
C123 O114 1.239 . S
C123 O115 1.256 . S
O124 Mn106 2.221 . S
O124 Mn108 2.290 . S
O124 C118 1.278 . S
O125 Mn108 2.251 . S
O125 C118 1.241 . S
O126 Mn127 2.163 . S
O126 C140 1.244 . S
Mn127 O126 2.163 . S
Mn127 O130 2.160 . S
Mn127 O131 2.221 . S
Mn127 O133 2.163 . S
Mn127 O135 2.160 . S
Mn127 O145 2.221 . S
O128 Mn129 2.087 . S
O128 C140 1.256 . S
Mn129 O128 2.087 . S
Mn129 O136 2.089 . S
Mn129 O145 2.290 . S
Mn129 O146 2.251 . S
O130 Mn127 2.160 . S
O130 C141 1.239 . S
O131 Mn127 2.221 . S
O131 Mn132 2.290 . S
O131 C142 1.278 . S
Mn132 O131 2.290 . S
Mn132 O134 2.089 . S
Mn132 O137 2.251 . S
Mn132 O138 2.087 . S
O133 Mn127 2.163 . S
O133 C143 1.244 . S
O134 Mn132 2.089 . S
O134 C141 1.256 . S
O135 Mn127 2.160 . S
O135 C144 1.239 . S
O136 Mn129 2.089 . S
O136 C144 1.256 . S
O137 Mn132 2.251 . S
O137 C142 1.241 . S
O138 Mn132 2.087 . S
O138 C143 1.256 . S
C139 O145 1.278 . S
C139 O146 1.241 . S
C140 O126 1.244 . S
C140 O128 1.256 . S
C141 O130 1.239 . S
C141 O134 1.256 . S
C142 O131 1.278 . S
C142 O137 1.241 . S
C143 O133 1.244 . S
C143 O138 1.256 . S
C144 O135 1.239 . S
C144 O136 1.256 . S
O145 Mn127 2.221 . S
O145 Mn129 2.290 . S
O145 C139 1.278 . S
O146 Mn129 2.251 . S
O146 C139 1.241 . S
O147 Mn148 2.163 . S
O147 C161 1.244 . S
Mn148 O147 2.163 . S
Mn148 O151 2.160 . S
Mn148 O152 2.221 . S
Mn148 O154 2.163 . S
Mn148 O156 2.160 . S
Mn148 O166 2.221 . S
O149 Mn150 2.087 . S
O149 C161 1.256 . S
Mn150 O149 2.087 . S
Mn150 O157 2.089 . S
Mn150 O166 2.290 . S
Mn150 O167 2.251 . S
O151 Mn148 2.160 . S
O151 C162 1.239 . S
O152 Mn148 2.221 . S
O152 Mn153 2.290 . S
O152 C163 1.278 . S
Mn153 O152 2.290 . S
Mn153 O155 2.089 . S
Mn153 O158 2.251 . S
Mn153 O159 2.087 1_655 S
O154 Mn148 2.163 . S
O154 C164 1.244 1_655 S
O155 Mn153 2.089 . S
O155 C162 1.256 . S
O156 Mn148 2.160 . S
O156 C165 1.239 . S
O157 Mn150 2.089 . S
O157 C165 1.256 . S
O158 Mn153 2.251 . S
O158 C163 1.241 . S
O159 Mn153 2.087 1_455 S
O159 C164 1.256 . S
C160 O166 1.278 . S
C160 O167 1.241 . S
C161 O147 1.244 . S
C161 O149 1.256 . S
C162 O151 1.239 . S
C162 O155 1.256 . S
C163 O152 1.278 . S
C163 O158 1.241 . S
C164 O154 1.244 1_455 S
C164 O159 1.256 . S
C165 O156 1.239 . S
C165 O157 1.256 . S
O166 Mn148 2.221 . S
O166 Mn150 2.290 . S
O166 C160 1.278 . S
O167 Mn150 2.251 . S
O167 C160 1.241 . S
O168 Mn169 2.163 . S
O168 C182 1.244 . S
Mn169 O168 2.163 . S
Mn169 O172 2.160 . S
Mn169 O173 2.221 . S
Mn169 O175 2.163 . S
Mn169 O177 2.160 . S
Mn169 O187 2.221 . S
O170 Mn171 2.087 . S
O170 C182 1.256 . S
Mn171 O170 2.087 . S
Mn171 O178 2.089 . S
Mn171 O187 2.290 . S
Mn171 O188 2.251 . S
O172 Mn169 2.160 . S
O172 C183 1.239 . S
O173 Mn169 2.221 . S
O173 Mn174 2.290 . S
O173 C184 1.278 . S
Mn174 O173 2.290 . S
Mn174 O176 2.089 . S
Mn174 O179 2.251 . S
Mn174 O180 2.087 . S
O175 Mn169 2.163 . S
O175 C185 1.244 . S
O176 Mn174 2.089 . S
O176 C183 1.256 . S
O177 Mn169 2.160 . S
O177 C186 1.239 . S
O178 Mn171 2.089 . S
O178 C186 1.256 . S
O179 Mn174 2.251 . S
O179 C184 1.241 . S
O180 Mn174 2.087 . S
O180 C185 1.256 . S
C181 O187 1.278 . S
C181 O188 1.241 . S
C182 O168 1.244 . S
C182 O170 1.256 . S
C183 O172 1.239 . S
C183 O176 1.256 . S
C184 O173 1.278 . S
C184 O179 1.241 . S
C185 O175 1.244 . S
C185 O180 1.256 . S
C186 O177 1.239 . S
C186 O178 1.256 . S
O187 Mn169 2.221 . S
O187 Mn171 2.290 . S
O187 C181 1.278 . S
O188 Mn171 2.251 . S
O188 C181 1.241 . S
C189 C190 1.171 . S
C189 C191 1.381 . S
C190 C189 1.171 . S
C191 C189 1.381 . S
C191 C192 1.170 . S
C192 C191 1.170 . S
C193 C194 1.170 . S
C193 C195 1.380 . S
C194 C193 1.170 . S
C195 C193 1.380 . S
C195 C196 1.170 . S
C196 C195 1.170 . S
C197 C198 1.170 . S
C197 C199 1.380 . S
C198 C197 1.170 . S
C199 C197 1.380 . S
C199 C200 1.170 . S
C200 C199 1.170 . S
C201 C202 1.170 . S
C201 C203 1.380 . S
C202 C201 1.170 . S
C203 C201 1.380 . S
C203 C204 1.170 . S
C204 C203 1.170 . S
C205 C206 1.170 . S
C205 C207 1.380 . S
C206 C205 1.170 . S
C207 C205 1.380 . S
C207 C208 1.170 . S
C208 C207 1.170 . S
C209 C210 1.170 . S
C209 C211 1.380 . S
C210 C209 1.170 . S
C211 C209 1.380 . S
C211 C212 1.170 . S
C212 C211 1.170 . S
C213 C214 1.170 . S
C213 C215 1.380 . S
C214 C213 1.170 . S
C215 C213 1.380 . S
C215 C216 1.170 1_655 S
C216 C215 1.170 1_455 S
C217 C218 1.170 . S
C217 C219 1.380 . S
C218 C217 1.170 . S
C219 C217 1.380 . S
C219 C220 1.170 . S
C220 C219 1.170 . S
C221 C222 1.170 . S
C221 C223 1.380 . S
C222 C221 1.170 . S
C223 C221 1.380 . S
C223 C224 1.170 . S
C224 C223 1.170 . S
C225 C226 1.170 . S
C225 C227 1.380 . S
C226 C225 1.170 . S
C227 C225 1.380 . S
C227 C228 1.170 . S
C228 C227 1.170 . S
C229 C230 1.170 . S
C229 C231 1.380 . S
C230 C229 1.170 . S
C231 C229 1.380 . S
C231 C232 1.170 . S
C232 C231 1.170 . S
C233 C234 1.170 . S
C233 C235 1.380 . S
C234 C233 1.170 . S
C235 C233 1.380 . S
C235 C236 1.170 . S
C236 C235 1.170 . S
C237 C238 1.170 . S
C237 C239 1.380 . S
C238 C237 1.170 . S
C239 C237 1.380 . S
C239 C240 1.170 . S
C240 C239 1.170 . S
C241 C242 1.170 . S
C241 C243 1.380 . S
C242 C241 1.170 . S
C243 C241 1.380 . S
C243 C244 1.170 . S
C244 C243 1.170 . S
C245 C246 1.170 . S
C245 C247 1.380 . S
C246 C245 1.170 . S
C247 C245 1.380 . S
C247 C248 1.170 . S
C248 C247 1.170 . S
C249 C250 1.170 . S
C249 C251 1.380 . S
C250 C249 1.170 . S
C251 C249 1.380 . S
C251 C252 1.170 1_565 S
C252 C251 1.170 1_545 S
C253 C254 1.170 . S
C253 C255 1.380 . S
C254 C253 1.170 . S
C255 C253 1.380 . S
C255 C256 1.170 . S
C256 C255 1.170 . S
C257 C258 1.170 . S
C257 C259 1.380 . S
C258 C257 1.170 . S
C259 C257 1.380 . S
C259 C260 1.170 . S
C260 C259 1.170 . S
C261 C262 1.170 . S
C261 C263 1.380 . S
C262 C261 1.170 . S
C263 C261 1.380 . S
C263 C264 1.170 . S
C264 C263 1.170 . S
C265 C266 1.170 . S
C265 C267 1.380 . S
C266 C265 1.170 . S
C267 C265 1.380 . S
C267 C268 1.170 . S
C268 C267 1.170 . S
C269 C270 1.170 . S
C269 C271 1.380 . S
C270 C269 1.170 . S
C271 C269 1.380 . S
C271 C272 1.170 . S
C272 C271 1.170 . S
C273 C274 1.170 . S
C273 C275 1.380 . S
C274 C273 1.170 . S
C275 C273 1.380 . S
C275 C276 1.170 . S
C276 C275 1.170 . S
C277 C278 1.170 . S
C277 C279 1.380 . S
C278 C277 1.170 . S
C279 C277 1.380 . S
C279 C280 1.170 . S
C280 C279 1.170 . S
C281 C282 1.170 . S
C281 C283 1.380 . S
C282 C281 1.170 . S
C283 C281 1.380 . S
C283 C284 1.170 . S
C284 C283 1.170 . S
C285 C286 1.170 . S
C285 C287 1.380 . S
C286 C285 1.170 . S
C287 C285 1.380 . S
C287 C288 1.170 . S
C288 C287 1.170 . S
C289 C290 1.170 . S
C289 C291 1.380 1_565 S
C290 C289 1.170 . S
C291 C289 1.380 1_545 S
C291 C292 1.170 . S
C292 C291 1.170 . S
C293 C294 1.170 . S
C293 C295 1.380 1_655 S
C294 C293 1.170 . S
C295 C293 1.380 1_455 S
C295 C296 1.170 . S
C296 C295 1.170 . S
C190 C39 1.177 1_554 S
C192 C17 1.107 1_554 S
C194 C57 1.206 1_554 S
C196 C35 1.158 1_554 S
C198 C59 1.102 1_554 S
C200 C15 1.172 1_554 S
C202 C56 1.137 . S
C204 C36 1.190 . S
C206 C60 1.209 . S
C208 C14 1.167 . S
C210 C18 1.205 . S
C212 C38 1.162 . S
C214 C80 1.160 . S
C216 C99 1.204 . S
C218 C120 1.209 . S
C220 C101 1.167 . S
C222 C122 1.129 1_655 S
C224 C78 1.190 1_545 S
C226 C102 1.189 . S
C228 C119 1.128 . S
C230 C123 1.175 . S
C232 C77 1.108 . S
C234 C98 1.117 . S
C236 C81 1.180 . S
C238 C165 1.210 . S
C240 C143 1.167 . S
C242 C161 1.111 . S
C244 C183 1.176 . S
C246 C185 1.107 . S
C248 C141 1.175 . S
C250 C182 1.142 . S
C252 C162 1.197 . S
C254 C186 1.209 1_455 S
C256 C140 1.167 1_565 S
C258 C144 1.209 . S
C260 C164 1.167 . S
C262 C121 1.745 . S
C264 C13 1.771 . S
C266 C79 1.756 . S
C268 C37 1.734 . S
C270 C55 1.784 1_565 S
C272 C100 1.765 . S
C274 C58 1.770 . S
C276 C139 1.744 . S
C278 C16 1.751 1_655 S
C280 C163 1.776 . S
C282 C181 1.743 . S
C284 C34 1.769 . S
C286 C76 1.737 . S
C288 C184 1.734 . S
C290 C97 1.763 . S
C292 C142 1.783 . S
C294 C160 1.736 . S
C296 C118 1.734 . S
