# Generated by pormake.
# Topology umc, (4)-cn, num edge types: 1
# Building blocks:
#     Node 0, Type 0, BuildingBlock: KOZSID_clean_sbu_0, # of connection points: 4
#     Node 1, Type 0, BuildingBlock: KOZSID_clean_sbu_0, # of connection points: 4
#     Node 2, Type 0, BuildingBlock: KOZSID_clean_sbu_0, # of connection points: 4
#     Node 3, Type 0, BuildingBlock: KOZSID_clean_sbu_0, # of connection points: 4
#     Node 4, Type 0, BuildingBlock: KOZSID_clean_sbu_0, # of connection points: 4
#     Node 5, Type 0, BuildingBlock: KOZSID_clean_sbu_0, # of connection points: 4
#     Node 6, Type 0, BuildingBlock: KOZSID_clean_sbu_0, # of connection points: 4
#     Node 7, Type 0, BuildingBlock: KOZSID_clean_sbu_0, # of connection points: 4
#     Node 8, Type 0, BuildingBlock: KOZSID_clean_sbu_0, # of connection points: 4
#     Node 9, Type 0, BuildingBlock: KOZSID_clean_sbu_0, # of connection points: 4
#     Node 10, Type 0, BuildingBlock: KOZSID_clean_sbu_0, # of connection points: 4
#     Node 11, Type 0, BuildingBlock: KOZSID_clean_sbu_0, # of connection points: 4
#     Node 12, Type 0, BuildingBlock: KOZSID_clean_sbu_0, # of connection points: 4
#     Node 13, Type 0, BuildingBlock: KOZSID_clean_sbu_0, # of connection points: 4
#     Node 14, Type 0, BuildingBlock: KOZSID_clean_sbu_0, # of connection points: 4
#     Node 15, Type 0, BuildingBlock: KOZSID_clean_sbu_0, # of connection points: 4
#     Edge 16, Type (0, 0), BuildingBlock: XIVTED_clean_linker_0, # of connection points: 2
#     Edge 17, Type (0, 0), BuildingBlock: XIVTED_clean_linker_0, # of connection points: 2
#     Edge 18, Type (0, 0), BuildingBlock: XIVTED_clean_linker_0, # of connection points: 2
#     Edge 19, Type (0, 0), BuildingBlock: XIVTED_clean_linker_0, # of connection points: 2
#     Edge 20, Type (0, 0), BuildingBlock: XIVTED_clean_linker_0, # of connection points: 2
#     Edge 21, Type (0, 0), BuildingBlock: XIVTED_clean_linker_0, # of connection points: 2
#     Edge 22, Type (0, 0), BuildingBlock: XIVTED_clean_linker_0, # of connection points: 2
#     Edge 23, Type (0, 0), BuildingBlock: XIVTED_clean_linker_0, # of connection points: 2
#     Edge 24, Type (0, 0), BuildingBlock: XIVTED_clean_linker_0, # of connection points: 2
#     Edge 25, Type (0, 0), BuildingBlock: XIVTED_clean_linker_0, # of connection points: 2
#     Edge 26, Type (0, 0), BuildingBlock: XIVTED_clean_linker_0, # of connection points: 2
#     Edge 27, Type (0, 0), BuildingBlock: XIVTED_clean_linker_0, # of connection points: 2
#     Edge 28, Type (0, 0), BuildingBlock: XIVTED_clean_linker_0, # of connection points: 2
#     Edge 29, Type (0, 0), BuildingBlock: XIVTED_clean_linker_0, # of connection points: 2
#     Edge 30, Type (0, 0), BuildingBlock: XIVTED_clean_linker_0, # of connection points: 2
#     Edge 31, Type (0, 0), BuildingBlock: XIVTED_clean_linker_0, # of connection points: 2
#     Edge 32, Type (0, 0), BuildingBlock: XIVTED_clean_linker_0, # of connection points: 2
#     Edge 33, Type (0, 0), BuildingBlock: XIVTED_clean_linker_0, # of connection points: 2
#     Edge 34, Type (0, 0), BuildingBlock: XIVTED_clean_linker_0, # of connection points: 2
#     Edge 35, Type (0, 0), BuildingBlock: XIVTED_clean_linker_0, # of connection points: 2
#     Edge 36, Type (0, 0), BuildingBlock: XIVTED_clean_linker_0, # of connection points: 2
#     Edge 37, Type (0, 0), BuildingBlock: XIVTED_clean_linker_0, # of connection points: 2
#     Edge 38, Type (0, 0), BuildingBlock: XIVTED_clean_linker_0, # of connection points: 2
#     Edge 39, Type (0, 0), BuildingBlock: XIVTED_clean_linker_0, # of connection points: 2
#     Edge 40, Type (0, 0), BuildingBlock: XIVTED_clean_linker_0, # of connection points: 2
#     Edge 41, Type (0, 0), BuildingBlock: XIVTED_clean_linker_0, # of connection points: 2
#     Edge 42, Type (0, 0), BuildingBlock: XIVTED_clean_linker_0, # of connection points: 2
#     Edge 43, Type (0, 0), BuildingBlock: XIVTED_clean_linker_0, # of connection points: 2
#     Edge 44, Type (0, 0), BuildingBlock: XIVTED_clean_linker_0, # of connection points: 2
#     Edge 45, Type (0, 0), BuildingBlock: XIVTED_clean_linker_0, # of connection points: 2
#     Edge 46, Type (0, 0), BuildingBlock: XIVTED_clean_linker_0, # of connection points: 2
#     Edge 47, Type (0, 0), BuildingBlock: XIVTED_clean_linker_0, # of connection points: 2
# Relax obj value: 0.055
# Max RMSD: 0.170
# Mean RMSD: 0.170
data_MOF--net-umc--node1-KOZSID_clean_sbu_0--edge1-XIVTED_clean_linker_0
_symmetry_space_group_name_H-M    P1
_symmetry_Int_Tables_number       1
_symmetry_cell_setting            triclinic
loop_
_symmetry_equiv_pos_as_xyz
'x, y, z'
_cell_length_a     67.585901
_cell_length_b     39.628283
_cell_length_c     62.725263
_cell_angle_alpha  90.028375
_cell_angle_beta   89.960635
_cell_angle_gamma 89.953252
loop_
_atom_site_label
_atom_site_type_symbol
_atom_site_fract_x
_atom_site_fract_y
_atom_site_fract_z
_atom_type_partial_charge
C0 C 0.37023 0.05145 0.34137 0.0
C1 C 0.35914 0.02217 0.339 0.0
C2 C 0.34954 0.01697 0.35796 0.0
C3 C 0.3554 0.04302 0.3709 0.0
N4 N 0.36816 0.0642 0.3613 0.0
Co5 Co 0.38077 0.10418 0.37458 0.0
N6 N 0.37507 0.08734 0.40371 0.0
C7 C 0.36144 0.06392 0.4088 0.0
C8 C 0.36028 0.05789 0.43028 0.0
C9 C 0.37393 0.07903 0.43931 0.0
C10 C 0.38274 0.09683 0.42273 0.0
N11 N 0.39327 0.14424 0.3879 0.0
C12 C 0.39931 0.14926 0.4083 0.0
C13 C 0.40708 0.18144 0.41075 0.0
C14 C 0.40548 0.19712 0.39129 0.0
C15 C 0.39694 0.17372 0.37801 0.0
N16 N 0.38633 0.12061 0.34529 0.0
C17 C 0.39053 0.15265 0.3399 0.0
C18 C 0.39378 0.15639 0.31839 0.0
C19 C 0.39138 0.12472 0.30979 0.0
C20 C 0.38685 0.10332 0.32659 0.0
N21 N 0.35522 0.1285 0.37439 0.0
C22 C 0.3217 0.17143 0.37299 0.0
C23 C 0.33277 0.16727 0.39176 0.0
C24 C 0.34937 0.14614 0.39208 0.0
C25 C 0.3274 0.152 0.35519 0.0
C26 C 0.34397 0.13054 0.35629 0.0
N27 N 0.40648 0.08099 0.37482 0.0
C28 C 0.44145 0.08257 0.36725 0.0
C29 C 0.44398 0.05022 0.37571 0.0
C30 C 0.42728 0.03347 0.38378 0.0
C31 C 0.40861 0.04914 0.38294 0.0
C32 C 0.42276 0.09754 0.36716 0.0
H33 H 0.39592 0.03562 0.38894 0.0
H34 H 0.42158 0.12279 0.36099 0.0
H35 H 0.3578 0.14495 0.40662 0.0
H36 H 0.34807 0.11646 0.34223 0.0
C37 C 0.35232 0.04474 0.3929 0.0
C38 C 0.38165 0.06744 0.32414 0.0
C39 C 0.39659 0.12499 0.42587 0.0
C40 C 0.39483 0.17655 0.35579 0.0
H41 H 0.35811 0.00604 0.32513 0.0
H42 H 0.34021 0.99579 0.36211 0.0
H43 H 0.35102 0.03968 0.43839 0.0
H44 H 0.37672 0.08149 0.45623 0.0
H45 H 0.41311 0.19252 0.42511 0.0
H46 H 0.41052 0.22221 0.38719 0.0
H47 H 0.39817 0.17908 0.31005 0.0
H48 H 0.39274 0.11812 0.29311 0.0
H49 H 0.32884 0.18048 0.40626 0.0
H50 H 0.31957 0.15401 0.34021 0.0
H51 H 0.45397 0.09658 0.36107 0.0
H52 H 0.42859 0.00832 0.39038 0.0
C53 C 0.65619 0.95622 0.34089 0.0
C54 C 0.66702 0.98578 0.33845 0.0
C55 C 0.67674 0.99115 0.3573 0.0
C56 C 0.67117 0.96497 0.37027 0.0
N57 N 0.65849 0.94353 0.3608 0.0
Co58 Co 0.64614 0.90343 0.37422 0.0
N59 N 0.65197 0.92044 0.40332 0.0
C60 C 0.66551 0.94411 0.40823 0.0
C61 C 0.66691 0.95014 0.42969 0.0
C62 C 0.65354 0.92871 0.43891 0.0
C63 C 0.64462 0.91075 0.42246 0.0
N64 N 0.63389 0.86324 0.38769 0.0
C65 C 0.62811 0.85809 0.40817 0.0
C66 C 0.62041 0.82586 0.41065 0.0
C67 C 0.62185 0.81024 0.39115 0.0
C68 C 0.63021 0.83373 0.37782 0.0
N69 N 0.64045 0.88684 0.345 0.0
C70 C 0.63633 0.85473 0.33966 0.0
C71 C 0.63296 0.85089 0.31818 0.0
C72 C 0.63517 0.88256 0.30955 0.0
C73 C 0.63973 0.90405 0.3263 0.0
N74 N 0.67178 0.87944 0.37377 0.0
C75 C 0.70513 0.83631 0.37188 0.0
C76 C 0.69942 0.85593 0.35421 0.0
C77 C 0.6829 0.87748 0.35555 0.0
C78 C 0.6943 0.84055 0.39081 0.0
C79 C 0.67777 0.8618 0.39138 0.0
N80 N 0.62033 0.92631 0.37467 0.0
C81 C 0.5854 0.92447 0.36703 0.0
C82 C 0.58281 0.95694 0.37528 0.0
C83 C 0.59944 0.97386 0.38336 0.0
C84 C 0.61813 0.95824 0.38267 0.0
C85 C 0.6041 0.90955 0.3671 0.0
H86 H 0.63078 0.97191 0.38863 0.0
H87 H 0.60533 0.88425 0.36104 0.0
H88 H 0.6787 0.89163 0.34157 0.0
H89 H 0.66948 0.863 0.40602 0.0
C90 C 0.6744 0.96338 0.39224 0.0
C91 C 0.64477 0.93996 0.32378 0.0
C92 C 0.63113 0.88213 0.42584 0.0
C93 C 0.6322 0.83086 0.35558 0.0
H94 H 0.66779 1.00202 0.32463 0.0
H95 H 0.68592 0.01257 0.3614 0.0
H96 H 0.67618 0.96846 0.43767 0.0
H97 H 0.65105 0.92614 0.45587 0.0
H98 H 0.61456 0.81466 0.42506 0.0
H99 H 0.61685 0.78511 0.38708 0.0
H100 H 0.62859 0.82813 0.30989 0.0
H101 H 0.63368 0.88908 0.29288 0.0
H102 H 0.70717 0.8539 0.33916 0.0
H103 H 0.6983 0.82718 0.40522 0.0
H104 H 0.57293 0.91037 0.36084 0.0
H105 H 0.59806 0.9991 0.38981 0.0
C106 C 0.37139 0.95262 0.16967 0.0
C107 C 0.36073 0.9823 0.17253 0.0
C108 C 0.35098 0.98843 0.15381 0.0
C109 C 0.35632 0.96251 0.1405 0.0
N110 N 0.36891 0.94051 0.14964 0.0
Co111 Co 0.38073 0.90029 0.13568 0.0
N112 N 0.37473 0.91805 0.10681 0.0
C113 C 0.36154 0.9425 0.10226 0.0
C114 C 0.36007 0.9491 0.08087 0.0
C115 C 0.37299 0.92722 0.0713 0.0
C116 C 0.38171 0.90841 0.08748 0.0
N117 N 0.39223 0.8598 0.12167 0.0
C118 C 0.39747 0.85464 0.10102 0.0
C119 C 0.40452 0.82205 0.09811 0.0
C120 C 0.4033 0.80625 0.11755 0.0
C121 C 0.39566 0.82997 0.13126 0.0
N122 N 0.38681 0.88308 0.16467 0.0
C123 C 0.39088 0.85082 0.16969 0.0
C124 C 0.39455 0.84649 0.19107 0.0
C125 C 0.39257 0.878 0.20001 0.0
C126 C 0.38784 0.89989 0.18353 0.0
N127 N 0.35481 0.87714 0.13642 0.0
C128 C 0.32034 0.8369 0.13825 0.0
C129 C 0.32696 0.85485 0.1562 0.0
C130 C 0.34402 0.87512 0.15488 0.0
C131 C 0.33107 0.84048 0.11926 0.0
C132 C 0.34818 0.86038 0.11871 0.0
N133 N 0.40679 0.92241 0.13497 0.0
C134 C 0.4421 0.91846 0.14005 0.0
C135 C 0.44471 0.9524 0.13434 0.0
C136 C 0.42767 0.97091 0.12877 0.0
C137 C 0.40893 0.95544 0.1291 0.0
C138 C 0.42321 0.9042 0.14043 0.0
H139 H 0.39615 0.97023 0.12469 0.0
H140 H 0.42198 0.87818 0.14514 0.0
H141 H 0.34872 0.88854 0.16896 0.0
H142 H 0.35633 0.86129 0.10398 0.0
C143 C 0.35298 0.96164 0.11854 0.0
C144 C 0.3828 0.93575 0.18654 0.0
C145 C 0.39463 0.87917 0.08365 0.0
C146 C 0.39429 0.82698 0.15353 0.0
H147 H 0.36011 0.9981 0.18658 0.0
H148 H 0.34191 0.01014 0.15003 0.0
H149 H 0.35101 0.96805 0.07317 0.0
H150 H 0.37534 0.92489 0.05429 0.0
H151 H 0.40982 0.81078 0.08347 0.0
H152 H 0.40798 0.78083 0.12134 0.0
H153 H 0.39885 0.82347 0.1991 0.0
H154 H 0.39427 0.88415 0.21672 0.0
H155 H 0.31902 0.8533 0.17116 0.0
H156 H 0.32669 0.82702 0.105 0.0
H157 H 0.45459 0.90255 0.144 0.0
H158 H 0.42868 0.99727 0.12443 0.0
C159 C 0.65539 0.054 0.16955 0.0
C160 C 0.66632 0.02472 0.17275 0.0
C161 C 0.67635 0.01853 0.15419 0.0
C162 C 0.67092 0.04406 0.14064 0.0
N163 N 0.65801 0.06586 0.14949 0.0
Co164 Co 0.64609 0.10564 0.13522 0.0
N165 N 0.65256 0.08761 0.10653 0.0
C166 C 0.66599 0.06342 0.10225 0.0
C167 C 0.66773 0.05653 0.08091 0.0
C168 C 0.65471 0.07794 0.07109 0.0
C169 C 0.64567 0.09677 0.08709 0.0
N170 N 0.63448 0.1457 0.12089 0.0
C171 C 0.62938 0.1504 0.10016 0.0
C172 C 0.62213 0.18279 0.097 0.0
C173 C 0.62307 0.19895 0.11635 0.0
C174 C 0.63075 0.17561 0.13027 0.0
N175 N 0.63954 0.12314 0.16404 0.0
C176 C 0.63523 0.15539 0.16885 0.0
C177 C 0.63133 0.15995 0.19017 0.0
C178 C 0.63342 0.12861 0.19928 0.0
C179 C 0.63845 0.10659 0.18296 0.0
N180 N 0.67183 0.12932 0.13617 0.0
C181 C 0.7056 0.17149 0.13843 0.0
C182 C 0.69915 0.15281 0.15622 0.0
C183 C 0.68242 0.13177 0.15471 0.0
C184 C 0.6952 0.1669 0.11926 0.0
C185 C 0.67848 0.14612 0.1185 0.0
N186 N 0.62019 0.08302 0.13426 0.0
C187 C 0.58472 0.08656 0.13819 0.0
C188 C 0.58254 0.05269 0.13232 0.0
C189 C 0.59974 0.03412 0.12767 0.0
C190 C 0.61839 0.04982 0.12854 0.0
C191 C 0.60354 0.10105 0.13923 0.0
H192 H 0.63134 0.0352 0.12451 0.0
H193 H 0.60454 0.12704 0.14407 0.0
H194 H 0.6777 0.11832 0.16878 0.0
H195 H 0.67061 0.14454 0.10362 0.0
C196 C 0.67454 0.04471 0.11872 0.0
C197 C 0.64364 0.07085 0.18617 0.0
C198 C 0.63251 0.12559 0.083 0.0
C199 C 0.63186 0.17896 0.15253 0.0
H200 H 0.66697 0.00927 0.18695 0.0
H201 H 0.68571 0.99705 0.15067 0.0
H202 H 0.67702 0.03769 0.0734 0.0
H203 H 0.6525 0.07993 0.05406 0.0
H204 H 0.61687 0.19369 0.08224 0.0
H205 H 0.61816 0.22432 0.11995 0.0
H206 H 0.62681 0.18301 0.19804 0.0
H207 H 0.63158 0.12266 0.21601 0.0
H208 H 0.70649 0.15517 0.17147 0.0
H209 H 0.69975 0.17955 0.10478 0.0
H210 H 0.57195 0.10178 0.14226 0.0
H211 H 0.59876 0.00786 0.12301 0.0
C212 C 0.63635 0.89554 0.68407 0.0
C213 C 0.62951 0.87381 0.69978 0.0
C214 C 0.62768 0.84254 0.69048 0.0
C215 C 0.63322 0.84681 0.66958 0.0
N216 N 0.63833 0.87885 0.66522 0.0
Co217 Co 0.64519 0.89688 0.63662 0.0
N218 N 0.63315 0.85783 0.6217 0.0
C219 C 0.62896 0.82783 0.63068 0.0
C220 C 0.62076 0.80544 0.61649 0.0
C221 C 0.62 0.82233 0.59739 0.0
C222 C 0.62791 0.85417 0.60093 0.0
N223 N 0.65196 0.91568 0.60826 0.0
C224 C 0.64497 0.90761 0.58866 0.0
C225 C 0.65453 0.92638 0.573 0.0
C226 C 0.66798 0.94655 0.58321 0.0
C227 C 0.66598 0.93905 0.60444 0.0
N228 N 0.65762 0.9355 0.65143 0.0
C229 C 0.67154 0.95595 0.64322 0.0
C230 C 0.6781 0.97965 0.65752 0.0
C231 C 0.66761 0.97368 0.67586 0.0
C232 C 0.65508 0.94673 0.67162 0.0
N233 N 0.67061 0.87218 0.63725 0.0
C234 C 0.7046 0.83079 0.63847 0.0
C235 C 0.69424 0.83603 0.61943 0.0
C236 C 0.67731 0.85639 0.6192 0.0
C237 C 0.69783 0.84746 0.65684 0.0
C238 C 0.68102 0.86838 0.65583 0.0
N239 N 0.61961 0.92047 0.63597 0.0
C240 C 0.59956 0.9702 0.63047 0.0
C241 C 0.58222 0.95212 0.63545 0.0
C242 C 0.58424 0.91783 0.64045 0.0
C243 C 0.60286 0.90275 0.6408 0.0
C244 C 0.61808 0.9539 0.63077 0.0
H245 H 0.60359 0.87648 0.64498 0.0
H246 H 0.63117 0.96826 0.62689 0.0
H247 H 0.66939 0.85856 0.60438 0.0
H248 H 0.67621 0.88093 0.67021 0.0
C249 C 0.62973 0.82388 0.65292 0.0
C250 C 0.64177 0.93134 0.68737 0.0
C251 C 0.63146 0.8794 0.58407 0.0
C252 C 0.67521 0.95606 0.62127 0.0
H253 H 0.62585 0.87976 0.71612 0.0
H254 H 0.62181 0.81994 0.69781 0.0
H255 H 0.61528 0.78033 0.61979 0.0
H256 H 0.61432 0.81226 0.58258 0.0
H257 H 0.65249 0.92497 0.55592 0.0
H258 H 0.67783 0.96482 0.57601 0.0
H259 H 0.68861 0.99977 0.65472 0.0
H260 H 0.66905 0.98757 0.69064 0.0
H261 H 0.69881 0.82355 0.60487 0.0
H262 H 0.70551 0.84448 0.67187 0.0
H263 H 0.59892 0.9968 0.62662 0.0
H264 H 0.57146 0.90229 0.64388 0.0
C265 C 0.38723 0.10285 0.68241 0.0
C266 C 0.39184 0.1244 0.69911 0.0
C267 C 0.39404 0.15605 0.69043 0.0
C268 C 0.39062 0.15213 0.66896 0.0
N269 N 0.3865 0.12001 0.66368 0.0
Co270 Co 0.3807 0.10334 0.63453 0.0
N271 N 0.39269 0.14367 0.62096 0.0
C272 C 0.39609 0.17337 0.63072 0.0
C273 C 0.40429 0.1969 0.61728 0.0
C274 C 0.40595 0.18105 0.59786 0.0
C275 C 0.39858 0.14864 0.6005 0.0
N276 N 0.37497 0.0861 0.6055 0.0
C277 C 0.38257 0.0955 0.58642 0.0
C278 C 0.37389 0.0773 0.56994 0.0
C279 C 0.3604 0.05598 0.5791 0.0
C280 C 0.36152 0.06232 0.60056 0.0
N281 N 0.3684 0.06325 0.648 0.0
C282 C 0.35562 0.04191 0.63858 0.0
C283 C 0.34984 0.01602 0.65169 0.0
C284 C 0.35951 0.02151 0.67056 0.0
C285 C 0.37059 0.05076 0.66796 0.0
N286 N 0.35499 0.1271 0.63498 0.0
C287 C 0.32159 0.17013 0.63677 0.0
C288 C 0.33231 0.16555 0.61779 0.0
C289 C 0.34886 0.14435 0.61728 0.0
C290 C 0.32743 0.15087 0.65455 0.0
C291 C 0.34399 0.12937 0.65327 0.0
N292 N 0.40658 0.08072 0.63403 0.0
C293 C 0.42731 0.03236 0.62692 0.0
C294 C 0.44433 0.05095 0.63215 0.0
C295 C 0.44192 0.08446 0.63865 0.0
C296 C 0.42305 0.09867 0.63966 0.0
C297 C 0.40858 0.04781 0.62778 0.0
H298 H 0.42186 0.12443 0.64493 0.0
H299 H 0.39575 0.03329 0.62326 0.0
H300 H 0.35707 0.14291 0.60259 0.0
H301 H 0.34829 0.11552 0.66733 0.0
C302 C 0.39436 0.17616 0.65299 0.0
C303 C 0.38208 0.06697 0.68501 0.0
C304 C 0.39617 0.12395 0.58312 0.0
C305 C 0.35249 0.04326 0.61658 0.0
H306 H 0.39332 0.11793 0.7158 0.0
H307 H 0.39833 0.17887 0.69869 0.0
H308 H 0.40914 0.22214 0.62126 0.0
H309 H 0.41182 0.19214 0.58343 0.0
H310 H 0.37668 0.07961 0.55301 0.0
H311 H 0.35126 0.03748 0.5711 0.0
H312 H 0.34051 0.99475 0.6477 0.0
H313 H 0.35854 0.00562 0.68453 0.0
H314 H 0.3282 0.17863 0.60332 0.0
H315 H 0.31977 0.15317 0.66963 0.0
H316 H 0.42849 0.00633 0.6218 0.0
H317 H 0.45457 0.09961 0.64321 0.0
C318 C 0.63343 0.10723 0.82406 0.0
C319 C 0.62285 0.12563 0.80908 0.0
C320 C 0.61719 0.155 0.81878 0.0
C321 C 0.62432 0.1528 0.83918 0.0
N322 N 0.63455 0.12408 0.84299 0.0
Co323 Co 0.64437 0.10819 0.87152 0.0
N324 N 0.63286 0.14823 0.88668 0.0
C325 C 0.62479 0.1758 0.87744 0.0
C326 C 0.61811 0.1992 0.89189 0.0
C327 C 0.6221 0.18568 0.91149 0.0
C328 C 0.63101 0.15465 0.90788 0.0
N329 N 0.65309 0.0908 0.90002 0.0
C330 C 0.64864 0.10177 0.91994 0.0
C331 C 0.65708 0.08127 0.93544 0.0
C332 C 0.66688 0.05616 0.92495 0.0
C333 C 0.6639 0.06271 0.90376 0.0
N334 N 0.65661 0.06889 0.8564 0.0
C335 C 0.66887 0.04564 0.86497 0.0
C336 C 0.67581 0.02255 0.85053 0.0
C337 C 0.6672 0.03123 0.83165 0.0
C338 C 0.65518 0.05894 0.83577 0.0
N339 N 0.66971 0.13426 0.86818 0.0
C340 C 0.70392 0.1763 0.86806 0.0
C341 C 0.7042 0.14411 0.87734 0.0
C342 C 0.68715 0.12381 0.87727 0.0
C343 C 0.68638 0.18612 0.85799 0.0
C344 C 0.66988 0.16485 0.85793 0.0
N345 N 0.61919 0.08326 0.87499 0.0
C346 C 0.60067 0.03183 0.88092 0.0
C347 C 0.58275 0.0496 0.87976 0.0
C348 C 0.58348 0.08424 0.87607 0.0
C349 C 0.60161 0.10032 0.87361 0.0
C350 C 0.61871 0.04917 0.87872 0.0
H351 H 0.60099 0.12669 0.87046 0.0
H352 H 0.63212 0.0348 0.88003 0.0
H353 H 0.68851 0.09996 0.88489 0.0
H354 H 0.65737 0.17434 0.84973 0.0
C355 C 0.62076 0.17624 0.85552 0.0
C356 C 0.64175 0.07351 0.81995 0.0
C357 C 0.63666 0.13144 0.92498 0.0
C358 C 0.67125 0.04329 0.88698 0.0
H359 H 0.61912 0.11839 0.79296 0.0
H360 H 0.6083 0.17501 0.81198 0.0
H361 H 0.61035 0.22252 0.8886 0.0
H362 H 0.61835 0.19691 0.92669 0.0
H363 H 0.65623 0.08413 0.95257 0.0
H364 H 0.67511 0.03551 0.93194 0.0
H365 H 0.68528 1.00103 0.85355 0.0
H366 H 0.66905 0.01793 0.81671 0.0
H367 H 0.71748 0.13439 0.88477 0.0
H368 H 0.68498 0.21064 0.85057 0.0
H369 H 0.60077 0.00487 0.88374 0.0
H370 H 0.57003 0.09894 0.8746 0.0
C371 C 0.38965 0.89768 0.82468 0.0
C372 C 0.39791 0.87816 0.80862 0.0
C373 C 0.4043 0.84896 0.81795 0.0
C374 C 0.39958 0.85218 0.83912 0.0
N375 N 0.39025 0.8815 0.84383 0.0
Co376 Co 0.38211 0.89752 0.87296 0.0
N377 N 0.39406 0.85689 0.88722 0.0
C378 C 0.40233 0.82989 0.87742 0.0
C379 C 0.40961 0.80629 0.89136 0.0
C380 C 0.40591 0.81907 0.91123 0.0
C381 C 0.39653 0.84984 0.90828 0.0
N382 N 0.37443 0.9142 0.90201 0.0
C383 C 0.37881 0.90189 0.92163 0.0
C384 C 0.37061 0.92161 0.93769 0.0
C385 C 0.36105 0.94762 0.92793 0.0
C386 C 0.36387 0.94227 0.90658 0.0
N387 N 0.37004 0.93807 0.8588 0.0
C388 C 0.35977 0.96307 0.86846 0.0
C389 C 0.35422 0.9886 0.85506 0.0
C390 C 0.36155 0.97966 0.83564 0.0
C391 C 0.37106 0.9488 0.83826 0.0
N392 N 0.35634 0.87256 0.8706 0.0
C393 C 0.32135 0.83307 0.87154 0.0
C394 C 0.32111 0.86692 0.87789 0.0
C395 C 0.33868 0.88604 0.8774 0.0
C396 C 0.33905 0.81998 0.86377 0.0
C397 C 0.356 0.84002 0.86311 0.0
N398 N 0.40778 0.92153 0.87538 0.0
C399 C 0.42741 0.97151 0.88233 0.0
C400 C 0.44492 0.95404 0.87745 0.0
C401 C 0.44337 0.92 0.87204 0.0
C402 C 0.42496 0.90456 0.87101 0.0
C403 C 0.40906 0.95481 0.88122 0.0
H404 H 0.42506 0.87872 0.86658 0.0
H405 H 0.39606 0.96912 0.88502 0.0
H406 H 0.33762 0.91145 0.88284 0.0
H407 H 0.36865 0.82816 0.85663 0.0
C408 C 0.40474 0.82913 0.85519 0.0
C409 C 0.38153 0.93152 0.82096 0.0
C410 C 0.39084 0.87204 0.92591 0.0
C411 C 0.35749 0.96385 0.8905 0.0
H412 H 0.39941 0.8846 0.79193 0.0
H413 H 0.41195 0.82822 0.8103 0.0
H414 H 0.41731 0.7831 0.88754 0.0
H415 H 0.41001 0.80741 0.92619 0.0
H416 H 0.37158 0.9178 0.95474 0.0
H417 H 0.35327 0.96829 0.9355 0.0
H418 H 0.34657 0.01173 0.85912 0.0
H419 H 0.3605 0.99488 0.82139 0.0
H420 H 0.30759 0.87832 0.88377 0.0
H421 H 0.33984 0.79418 0.85808 0.0
H422 H 0.4278 0.99795 0.88665 0.0
H423 H 0.45639 0.90492 0.86875 0.0
C424 C 0.8704 0.55344 0.34025 0.0
C425 C 0.85968 0.52381 0.3376 0.0
C426 C 0.84961 0.51842 0.35624 0.0
C427 C 0.85485 0.54468 0.36931 0.0
N428 N 0.86768 0.56618 0.3601 0.0
Co429 Co 0.87954 0.60655 0.37375 0.0
N430 N 0.87312 0.58966 0.40272 0.0
C431 C 0.85968 0.56571 0.40737 0.0
C432 C 0.85796 0.55969 0.42882 0.0
C433 C 0.87101 0.58142 0.43829 0.0
C434 C 0.88006 0.59954 0.42199 0.0
N435 N 0.89111 0.64716 0.38747 0.0
C436 C 0.89633 0.65259 0.40808 0.0
C437 C 0.90359 0.68506 0.41074 0.0
C438 C 0.90253 0.70052 0.39118 0.0
C439 C 0.89477 0.6767 0.37764 0.0
N440 N 0.88603 0.62291 0.34468 0.0
C441 C 0.89026 0.65498 0.33938 0.0
C442 C 0.8942 0.65867 0.318 0.0
C443 C 0.89223 0.62695 0.30938 0.0
C444 C 0.88723 0.60556 0.32603 0.0
N445 N 0.85378 0.63006 0.3725 0.0
C446 C 0.81949 0.67057 0.36996 0.0
C447 C 0.82619 0.65207 0.35226 0.0
C448 C 0.84316 0.63167 0.35393 0.0
C449 C 0.83005 0.66742 0.38907 0.0
C450 C 0.84707 0.64737 0.38998 0.0
N451 N 0.90543 0.58408 0.37505 0.0
C452 C 0.94085 0.58745 0.37089 0.0
C453 C 0.94307 0.55394 0.3775 0.0
C454 C 0.92592 0.53564 0.38266 0.0
C455 C 0.90726 0.55125 0.38149 0.0
C456 C 0.92203 0.60186 0.36963 0.0
H457 H 0.89434 0.53685 0.38587 0.0
H458 H 0.92098 0.62758 0.36427 0.0
H459 H 0.84795 0.61781 0.34004 0.0
H460 H 0.85511 0.64678 0.40478 0.0
C461 C 0.85119 0.54628 0.3912 0.0
C462 C 0.88212 0.56968 0.32336 0.0
C463 C 0.89331 0.62837 0.4256 0.0
C464 C 0.89361 0.67918 0.35533 0.0
H465 H 0.85921 0.50754 0.32377 0.0
H466 H 0.84039 0.49697 0.36014 0.0
H467 H 0.84868 0.54118 0.43663 0.0
H468 H 0.87325 0.58408 0.45528 0.0
H469 H 0.90897 0.69648 0.4253 0.0
H470 H 0.90745 0.72572 0.38719 0.0
H471 H 0.89868 0.68142 0.30977 0.0
H472 H 0.89411 0.62033 0.29276 0.0
H473 H 0.81837 0.65333 0.33721 0.0
H474 H 0.82558 0.68134 0.40315 0.0
H475 H 0.95358 0.60241 0.36637 0.0
H476 H 0.92692 0.50967 0.3879 0.0
C477 C 0.15493 0.44981 0.33818 0.0
C478 C 0.16495 0.48015 0.33554 0.0
C479 C 0.17264 0.48848 0.3549 0.0
C480 C 0.16683 0.46309 0.36828 0.0
N481 N 0.15596 0.43885 0.35866 0.0
Co482 Co 0.14403 0.39818 0.37271 0.0
N483 N 0.15188 0.41442 0.4018 0.0
C484 C 0.16204 0.44283 0.40643 0.0
C485 C 0.16472 0.44818 0.4278 0.0
C486 C 0.15541 0.42186 0.4375 0.0
C487 C 0.14753 0.40192 0.42137 0.0
N488 N 0.1328 0.35692 0.3868 0.0
C489 C 0.13079 0.34918 0.40781 0.0
C490 C 0.12223 0.3177 0.41058 0.0
C491 C 0.11859 0.30521 0.39063 0.0
C492 C 0.12513 0.32964 0.37683 0.0
N493 N 0.13513 0.38315 0.34366 0.0
C494 C 0.12533 0.35432 0.33901 0.0
C495 C 0.11992 0.35181 0.318 0.0
C496 C 0.12631 0.38107 0.30875 0.0
C497 C 0.13533 0.39984 0.32468 0.0
N498 N 0.16989 0.37335 0.36947 0.0
C499 C 0.20515 0.33361 0.36795 0.0
C500 C 0.18773 0.32326 0.35788 0.0
C501 C 0.17069 0.34329 0.35862 0.0
C502 C 0.20466 0.36502 0.37833 0.0
C503 C 0.18711 0.38428 0.37884 0.0
N504 N 0.11825 0.42199 0.37588 0.0
C505 C 0.08249 0.41992 0.37451 0.0
C506 C 0.08097 0.45475 0.37759 0.0
C507 C 0.09865 0.47281 0.38057 0.0
C508 C 0.11702 0.456 0.37978 0.0
C509 C 0.10096 0.40435 0.37357 0.0
H510 H 0.1301 0.47087 0.38211 0.0
H511 H 0.10083 0.37788 0.37074 0.0
H512 H 0.1583 0.33331 0.35045 0.0
H513 H 0.18786 0.40782 0.38704 0.0
C514 C 0.16887 0.46394 0.39033 0.0
C515 C 0.14401 0.43323 0.32097 0.0
C516 C 0.13602 0.37145 0.42554 0.0
C517 C 0.12157 0.33011 0.35481 0.0
H518 H 0.1661 0.49543 0.32132 0.0
H519 H 0.18065 0.51123 0.35896 0.0
H520 H 0.17239 0.4689 0.43541 0.0
H521 H 0.15447 0.41788 0.45454 0.0
H522 H 0.11852 0.30546 0.42547 0.0
H523 H 0.1112 0.2818 0.38669 0.0
H524 H 0.11208 0.3313 0.31036 0.0
H525 H 0.12448 0.38792 0.29216 0.0
H526 H 0.18688 0.29919 0.34978 0.0
H527 H 0.21776 0.37493 0.38602 0.0
H528 H 0.06944 0.40433 0.37285 0.0
H529 H 0.0984 0.49983 0.38308 0.0
C530 C 0.87134 0.4524 0.16965 0.0
C531 C 0.86035 0.48176 0.17237 0.0
C532 C 0.85046 0.48724 0.15364 0.0
C533 C 0.85605 0.46126 0.14048 0.0
N534 N 0.86891 0.43985 0.14973 0.0
Co535 Co 0.88106 0.39968 0.13606 0.0
N536 N 0.87482 0.41673 0.10709 0.0
C537 C 0.86137 0.44068 0.10239 0.0
C538 C 0.85982 0.44686 0.08095 0.0
C539 C 0.87299 0.42523 0.07152 0.0
C540 C 0.88191 0.40699 0.08783 0.0
N541 N 0.89288 0.35924 0.12234 0.0
C542 C 0.8982 0.35391 0.10173 0.0
C543 C 0.90554 0.32147 0.09903 0.0
C544 C 0.90445 0.30594 0.11857 0.0
C545 C 0.89659 0.32968 0.13212 0.0
N546 N 0.88737 0.38319 0.16514 0.0
C547 C 0.89171 0.35113 0.1704 0.0
C548 C 0.89546 0.34731 0.1918 0.0
C549 C 0.89324 0.37894 0.2005 0.0
C550 C 0.88829 0.40039 0.18386 0.0
N551 N 0.85534 0.37593 0.13703 0.0
C552 C 0.82087 0.3357 0.13901 0.0
C553 C 0.82745 0.35391 0.15687 0.0
C554 C 0.84452 0.37416 0.15548 0.0
C555 C 0.8317 0.33887 0.12005 0.0
C556 C 0.8488 0.35877 0.11943 0.0
N557 N 0.9069 0.42246 0.13504 0.0
C558 C 0.94235 0.41944 0.13928 0.0
C559 C 0.94445 0.45315 0.13303 0.0
C560 C 0.92722 0.47135 0.12801 0.0
C561 C 0.90862 0.45547 0.12892 0.0
C562 C 0.92358 0.40477 0.14036 0.0
H563 H 0.89566 0.46982 0.1246 0.0
H564 H 0.92263 0.37892 0.1455 0.0
H565 H 0.84917 0.38784 0.16948 0.0
H566 H 0.857 0.35944 0.10472 0.0
C567 C 0.85263 0.45987 0.11854 0.0
C568 C 0.88299 0.43619 0.18659 0.0
C569 C 0.89519 0.37814 0.08423 0.0
C570 C 0.89528 0.32706 0.15441 0.0
H571 H 0.85958 0.49773 0.18633 0.0
H572 H 0.84112 0.50856 0.14976 0.0
H573 H 0.85056 0.46539 0.07312 0.0
H574 H 0.87538 0.4227 0.05454 0.0
H575 H 0.91096 0.31012 0.08446 0.0
H576 H 0.90938 0.28072 0.12253 0.0
H577 H 0.89996 0.32455 0.2 0.0
H578 H 0.89492 0.38545 0.21716 0.0
H579 H 0.81944 0.35264 0.1718 0.0
H580 H 0.82737 0.32517 0.10586 0.0
H581 H 0.95515 0.40451 0.14365 0.0
H582 H 0.92812 0.49747 0.12304 0.0
C583 C 0.15602 0.55243 0.16815 0.0
C584 C 0.16691 0.52296 0.17079 0.0
C585 C 0.17677 0.51743 0.15203 0.0
C586 C 0.17126 0.54348 0.13893 0.0
N587 N 0.15847 0.56499 0.14824 0.0
Co588 Co 0.14631 0.60515 0.13462 0.0
N589 N 0.15238 0.58796 0.10562 0.0
C590 C 0.16576 0.56391 0.10085 0.0
C591 C 0.16721 0.55765 0.07941 0.0
C592 C 0.15406 0.57933 0.07005 0.0
C593 C 0.14524 0.5977 0.0864 0.0
N594 N 0.13449 0.6456 0.12096 0.0
C595 C 0.12914 0.65095 0.10037 0.0
C596 C 0.12189 0.68345 0.09771 0.0
C597 C 0.12307 0.699 0.11724 0.0
C598 C 0.1309 0.67522 0.13076 0.0
N599 N 0.14016 0.62176 0.16374 0.0
C600 C 0.1359 0.65384 0.16902 0.0
C601 C 0.13216 0.65766 0.19043 0.0
C602 C 0.13429 0.62599 0.1991 0.0
C603 C 0.13917 0.60453 0.18243 0.0
N604 N 0.17205 0.62888 0.13541 0.0
C605 C 0.20571 0.67134 0.13762 0.0
C606 C 0.19952 0.65217 0.15531 0.0
C607 C 0.18286 0.63098 0.15383 0.0
C608 C 0.19511 0.66706 0.11854 0.0
C609 C 0.17845 0.64614 0.11782 0.0
N610 N 0.12042 0.58249 0.13387 0.0
C611 C 0.08508 0.5857 0.13901 0.0
C612 C 0.0827 0.55176 0.13316 0.0
C613 C 0.09987 0.53364 0.12751 0.0
C614 C 0.11851 0.54946 0.12787 0.0
C615 C 0.10387 0.60032 0.13945 0.0
H616 H 0.13138 0.53498 0.12337 0.0
H617 H 0.10493 0.6263 0.14428 0.0
H618 H 0.17834 0.61716 0.16783 0.0
H619 H 0.17041 0.64486 0.10303 0.0
C620 C 0.17455 0.54476 0.11696 0.0
C621 C 0.14433 0.56866 0.18507 0.0
C622 C 0.13207 0.62669 0.08285 0.0
C623 C 0.13232 0.6779 0.15305 0.0
H624 H 0.16759 0.50686 0.18468 0.0
H625 H 0.186 0.49598 0.14808 0.0
H626 H 0.1764 0.53905 0.07154 0.0
H627 H 0.15163 0.58184 0.05308 0.0
H628 H 0.11646 0.69482 0.08316 0.0
H629 H 0.11824 0.72428 0.12122 0.0
H630 H 0.12769 0.68044 0.19866 0.0
H631 H 0.13256 0.61945 0.21575 0.0
H632 H 0.20703 0.65425 0.17049 0.0
H633 H 0.19945 0.68008 0.10412 0.0
H634 H 0.0725 0.60136 0.14302 0.0
H635 H 0.09905 0.50728 0.12308 0.0
C636 C 0.13955 0.39915 0.68273 0.0
C637 C 0.13501 0.37753 0.6994 0.0
C638 C 0.13334 0.34577 0.69075 0.0
C639 C 0.13698 0.34969 0.66933 0.0
N640 N 0.14073 0.38194 0.66403 0.0
Co641 Co 0.14673 0.39862 0.63489 0.0
N642 N 0.13563 0.35756 0.62124 0.0
C643 C 0.13249 0.32785 0.63107 0.0
C644 C 0.12506 0.30369 0.61756 0.0
C645 C 0.12366 0.3191 0.59801 0.0
C646 C 0.1304 0.35191 0.60065 0.0
N647 N 0.15266 0.41584 0.60588 0.0
C648 C 0.14571 0.40572 0.58666 0.0
C649 C 0.1543 0.42432 0.5703 0.0
C650 C 0.16711 0.44659 0.57966 0.0
C651 C 0.16569 0.4404 0.60112 0.0
N652 N 0.15813 0.43944 0.64846 0.0
C653 C 0.17062 0.46143 0.63916 0.0
C654 C 0.17579 0.48768 0.65228 0.0
C655 C 0.16603 0.48177 0.67104 0.0
C656 C 0.15552 0.45193 0.66838 0.0
N657 N 0.17281 0.37613 0.63589 0.0
C658 C 0.20727 0.33601 0.63833 0.0
C659 C 0.1967 0.33914 0.61922 0.0
C660 C 0.17959 0.35901 0.61837 0.0
C661 C 0.20056 0.35448 0.65604 0.0
C662 C 0.18351 0.3747 0.65441 0.0
N663 N 0.1205 0.42 0.63391 0.0
C664 C 0.09912 0.46748 0.62667 0.0
C665 C 0.08228 0.44859 0.63238 0.0
C666 C 0.08524 0.41506 0.63877 0.0
C667 C 0.10428 0.40149 0.63958 0.0
C668 C 0.11804 0.45271 0.62748 0.0
H669 H 0.10578 0.37572 0.64472 0.0
H670 H 0.13068 0.46771 0.62293 0.0
H671 H 0.17151 0.35951 0.60359 0.0
H672 H 0.1787 0.38846 0.66832 0.0
C673 C 0.13385 0.32538 0.65338 0.0
C674 C 0.14421 0.43522 0.68538 0.0
C675 C 0.13291 0.37628 0.58313 0.0
C676 C 0.17407 0.46009 0.61722 0.0
H677 H 0.13323 0.38402 0.71606 0.0
H678 H 0.12926 0.32282 0.699 0.0
H679 H 0.1206 0.27824 0.62156 0.0
H680 H 0.11844 0.30745 0.58346 0.0
H681 H 0.15193 0.42163 0.55332 0.0
H682 H 0.17602 0.46554 0.57179 0.0
H683 H 0.18479 0.50939 0.64836 0.0
H684 H 0.16658 0.49776 0.68501 0.0
H685 H 0.20119 0.32528 0.60514 0.0
H686 H 0.2084 0.35328 0.67107 0.0
H687 H 0.09779 0.49359 0.62183 0.0
H688 H 0.0729 0.39892 0.64288 0.0
C689 C 0.88951 0.6041 0.68412 0.0
C690 C 0.89783 0.62315 0.70036 0.0
C691 C 0.90453 0.6523 0.69123 0.0
C692 C 0.89993 0.64952 0.67001 0.0
N693 N 0.89042 0.6205 0.66507 0.0
Co694 Co 0.8821 0.60533 0.63587 0.0
N695 N 0.89446 0.64587 0.62191 0.0
C696 C 0.90322 0.67221 0.63188 0.0
C697 C 0.91083 0.69575 0.61811 0.0
C698 C 0.90687 0.68359 0.59816 0.0
C699 C 0.897 0.65323 0.60091 0.0
N700 N 0.87407 0.58964 0.60673 0.0
C701 C 0.87848 0.60231 0.58722 0.0
C702 C 0.86997 0.58333 0.57101 0.0
C703 C 0.86016 0.55743 0.58058 0.0
C704 C 0.86315 0.56211 0.60197 0.0
N705 N 0.86974 0.56476 0.64969 0.0
C706 C 0.85932 0.54015 0.63985 0.0
C707 C 0.85354 0.51455 0.65308 0.0
C708 C 0.86085 0.52303 0.67257 0.0
C709 C 0.8706 0.55367 0.67015 0.0
N710 N 0.85648 0.631 0.6387 0.0
C711 C 0.82132 0.67056 0.63935 0.0
C712 C 0.8209 0.63652 0.63335 0.0
C713 C 0.83853 0.61742 0.633 0.0
C714 C 0.83943 0.68387 0.64581 0.0
C715 C 0.85647 0.66385 0.64566 0.0
N716 N 0.90762 0.58054 0.633 0.0
C717 C 0.92667 0.53018 0.62488 0.0
C718 C 0.94446 0.54723 0.62886 0.0
C719 C 0.94338 0.58094 0.63511 0.0
C720 C 0.92507 0.59678 0.63725 0.0
C721 C 0.90849 0.54735 0.62679 0.0
H722 H 0.92546 0.62229 0.64243 0.0
H723 H 0.8953 0.53352 0.62316 0.0
H724 H 0.83725 0.5919 0.62785 0.0
H725 H 0.86945 0.67592 0.65113 0.0
C726 C 0.9055 0.67255 0.65412 0.0
C727 C 0.88105 0.5705 0.68758 0.0
C728 C 0.89093 0.6317 0.58315 0.0
C729 C 0.8568 0.54012 0.61783 0.0
H730 H 0.89916 0.61641 0.71701 0.0
H731 H 0.91232 0.6727 0.69905 0.0
H732 H 0.91887 0.71851 0.62209 0.0
H733 H 0.91109 0.69536 0.58327 0.0
H734 H 0.87097 0.5875 0.55399 0.0
H735 H 0.85215 0.53719 0.57285 0.0
H736 H 0.84563 0.49175 0.64887 0.0
H737 H 0.85956 0.50775 0.68678 0.0
H738 H 0.80716 0.62492 0.62835 0.0
H739 H 0.84048 0.70984 0.65111 0.0
H740 H 0.9268 0.50397 0.61998 0.0
H741 H 0.95669 0.59504 0.63874 0.0
C742 C 0.13546 0.60507 0.82468 0.0
C743 C 0.12634 0.62356 0.80868 0.0
C744 C 0.11976 0.6528 0.81783 0.0
C745 C 0.12521 0.65062 0.83884 0.0
N746 N 0.13519 0.62197 0.84359 0.0
Co747 Co 0.14451 0.60758 0.87263 0.0
N748 N 0.13272 0.64856 0.88665 0.0
C749 C 0.12421 0.67515 0.8767 0.0
C750 C 0.1171 0.69913 0.89052 0.0
C751 C 0.12118 0.68701 0.91046 0.0
C752 C 0.13057 0.65621 0.90766 0.0
N753 N 0.15311 0.59227 0.90166 0.0
C754 C 0.14882 0.60492 0.92121 0.0
C755 C 0.15743 0.58589 0.93733 0.0
C756 C 0.16713 0.55989 0.92766 0.0
C757 C 0.16396 0.56457 0.90631 0.0
N758 N 0.15666 0.56692 0.85866 0.0
C759 C 0.16769 0.54288 0.86831 0.0
C760 C 0.17329 0.51713 0.85509 0.0
C761 C 0.16528 0.52494 0.83581 0.0
C762 C 0.15532 0.55541 0.8383 0.0
N763 N 0.16994 0.63316 0.86889 0.0
C764 C 0.20455 0.67415 0.86778 0.0
C765 C 0.20497 0.64135 0.87621 0.0
C766 C 0.18769 0.6215 0.87658 0.0
C767 C 0.18659 0.68522 0.85922 0.0
C768 C 0.1699 0.6645 0.85963 0.0
N769 N 0.11918 0.58303 0.8765 0.0
C770 C 0.10043 0.5326 0.88474 0.0
C771 C 0.08258 0.55015 0.8822 0.0
C772 C 0.08343 0.58413 0.87662 0.0
C773 C 0.10164 0.59977 0.87369 0.0
C774 C 0.11853 0.54957 0.88208 0.0
H775 H 0.10109 0.62556 0.86907 0.0
H776 H 0.13182 0.53539 0.88459 0.0
H777 H 0.18909 0.59695 0.88333 0.0
H778 H 0.15709 0.67498 0.8526 0.0
C779 C 0.12076 0.67456 0.85465 0.0
C780 C 0.14419 0.57163 0.82108 0.0
C781 C 0.13643 0.63438 0.92538 0.0
C782 C 0.17039 0.54285 0.89031 0.0
H783 H 0.1245 0.61648 0.79213 0.0
H784 H 0.11168 0.673 0.81015 0.0
H785 H 0.10911 0.72198 0.88661 0.0
H786 H 0.11722 0.69901 0.92536 0.0
H787 H 0.1566 0.5901 0.95436 0.0
H788 H 0.17522 0.53965 0.9353 0.0
H789 H 0.18143 0.49451 0.85922 0.0
H790 H 0.16621 0.50924 0.82175 0.0
H791 H 0.21852 0.63085 0.88255 0.0
H792 H 0.18505 0.71031 0.85262 0.0
H793 H 0.10041 0.50612 0.88903 0.0
H794 H 0.07002 0.59855 0.87407 0.0
C795 C 0.88869 0.39869 0.82588 0.0
C796 C 0.89639 0.37912 0.80951 0.0
C797 C 0.90264 0.34959 0.81854 0.0
C798 C 0.89839 0.35266 0.83984 0.0
N799 N 0.88953 0.38225 0.84492 0.0
Co800 Co 0.88196 0.39803 0.87427 0.0
N801 N 0.89392 0.35698 0.88806 0.0
C802 C 0.90215 0.3302 0.87798 0.0
C803 C 0.90964 0.30641 0.89166 0.0
C804 C 0.90616 0.31884 0.91165 0.0
C805 C 0.89668 0.3496 0.90903 0.0
N806 N 0.87463 0.41423 0.90352 0.0
C807 C 0.87906 0.40137 0.92297 0.0
C808 C 0.87095 0.4207 0.93928 0.0
C809 C 0.86142 0.44703 0.92984 0.0
C810 C 0.86414 0.44223 0.90842 0.0
N811 N 0.8701 0.43917 0.8606 0.0
C812 C 0.8603 0.4644 0.8706 0.0
C813 C 0.85487 0.49034 0.85746 0.0
C814 C 0.8618 0.48145 0.83786 0.0
C815 C 0.87096 0.45023 0.84013 0.0
N816 N 0.85598 0.37368 0.87203 0.0
C817 C 0.82039 0.3358 0.87241 0.0
C818 C 0.82046 0.36996 0.87806 0.0
C819 C 0.83833 0.38825 0.8779 0.0
C820 C 0.83815 0.32148 0.86575 0.0
C821 C 0.85542 0.34071 0.86537 0.0
N822 N 0.90782 0.42148 0.87653 0.0
C823 C 0.92791 0.47062 0.88433 0.0
C824 C 0.94521 0.4532 0.87861 0.0
C825 C 0.94333 0.41958 0.87232 0.0
C826 C 0.92479 0.40456 0.87127 0.0
C827 C 0.90943 0.45433 0.88321 0.0
H828 H 0.92464 0.37906 0.86611 0.0
H829 H 0.89661 0.46859 0.88769 0.0
H830 H 0.83748 0.41397 0.88277 0.0
H831 H 0.86809 0.32792 0.85975 0.0
C832 C 0.90396 0.32951 0.85568 0.0
C833 C 0.88092 0.43283 0.82255 0.0
C834 C 0.89115 0.37146 0.92687 0.0
C835 C 0.858 0.46455 0.89265 0.0
H836 H 0.89765 0.38578 0.79283 0.0
H837 H 0.90997 0.32878 0.81061 0.0
H838 H 0.91725 0.28324 0.88758 0.0
H839 H 0.91044 0.30694 0.92648 0.0
H840 H 0.87202 0.41647 0.95629 0.0
H841 H 0.85377 0.46761 0.93767 0.0
H842 H 0.84747 0.5136 0.86178 0.0
H843 H 0.86068 0.49687 0.8237 0.0
H844 H 0.80693 0.38225 0.88312 0.0
H845 H 0.83873 0.29534 0.86068 0.0
H846 H 0.92854 0.49676 0.88932 0.0
H847 H 0.95618 0.40449 0.86833 0.0
H848 H 0.38166 0.17526 0.45104 0.0
H849 H 0.4232 0.09149 0.5581 0.0
H850 H 0.42283 0.09233 0.45177 0.0
H851 H 0.38109 0.17301 0.5571 0.0
H852 H 0.42746 0.09734 0.5194 0.0
H853 H 0.38549 0.18108 0.48974 0.0
C854 C 0.392 0.15899 0.45932 0.0
C855 C 0.4022 0.13364 0.44822 0.0
C856 C 0.4176 0.11446 0.52766 0.0
C857 C 0.40616 0.13925 0.49262 0.0
C858 C 0.41531 0.11127 0.54975 0.0
C859 C 0.40203 0.13215 0.56077 0.0
C860 C 0.40632 0.13847 0.51644 0.0
C861 C 0.39174 0.15686 0.54921 0.0
C862 C 0.39403 0.16204 0.48144 0.0
C863 C 0.41494 0.11249 0.45976 0.0
N864 N 0.39396 0.15913 0.52767 0.0
N865 N 0.41642 0.11554 0.48133 0.0
H866 H 0.64681 0.82833 0.55989 0.0
H867 H 0.64706 0.8307 0.44911 0.0
H868 H 0.60771 0.91388 0.55619 0.0
H869 H 0.60622 0.9137 0.45394 0.0
H870 H 0.64489 0.82236 0.48736 0.0
H871 H 0.64409 0.82077 0.5216 0.0
C872 C 0.63725 0.84508 0.55093 0.0
C873 C 0.62722 0.87141 0.56123 0.0
C874 C 0.63602 0.84211 0.48039 0.0
C875 C 0.62461 0.86418 0.51671 0.0
C876 C 0.63714 0.84655 0.4583 0.0
C877 C 0.62656 0.87254 0.44834 0.0
C878 C 0.62442 0.86428 0.49281 0.0
C879 C 0.6144 0.89306 0.46102 0.0
C880 C 0.63585 0.84111 0.52882 0.0
C881 C 0.61548 0.893 0.54883 0.0
N882 N 0.61382 0.8887 0.48257 0.0
N883 N 0.61463 0.88907 0.52726 0.0
H884 H 0.4214 0.90885 0.05699 0.0
H885 H 0.37466 0.82452 0.95234 0.0
H886 H 0.37704 0.83103 0.05879 0.0
H887 H 0.41816 0.90373 0.95082 0.0
H888 H 0.37891 0.82035 0.99117 0.0
H889 H 0.42406 0.90148 0.01823 0.0
C890 C 0.41262 0.88958 0.04922 0.0
C891 C 0.39922 0.87016 0.06106 0.0
C892 C 0.38782 0.83823 0.98234 0.0
C893 C 0.40169 0.86212 0.01665 0.0
C894 C 0.38549 0.84037 0.96018 0.0
C895 C 0.39622 0.86426 0.94846 0.0
C896 C 0.40084 0.8604 0.99286 0.0
C897 C 0.40978 0.88477 0.95935 0.0
C898 C 0.414 0.88551 0.02709 0.0
C899 C 0.3878 0.84606 0.05023 0.0
N900 N 0.41157 0.88259 0.98092 0.0
N901 N 0.38917 0.84291 0.02864 0.0
H902 H 0.65264 0.17902 0.95152 0.0
H903 H 0.60623 0.09468 0.05639 0.0
H904 H 0.61016 0.09819 0.95015 0.0
H905 H 0.64984 0.17374 0.05796 0.0
H906 H 0.60384 0.10119 0.01755 0.0
H907 H 0.64831 0.18325 0.99033 0.0
C908 C 0.64205 0.16273 0.9594 0.0
C909 C 0.63161 0.13843 0.94772 0.0
C910 C 0.61366 0.11761 0.02638 0.0
C911 C 0.62687 0.14244 0.99209 0.0
C912 C 0.61488 0.11404 0.04855 0.0
C913 C 0.628 0.13406 0.06033 0.0
C914 C 0.62585 0.14112 0.01588 0.0
C915 C 0.63929 0.15825 0.04943 0.0
C916 C 0.63967 0.16494 0.98155 0.0
C917 C 0.61834 0.11743 0.95865 0.0
N918 N 0.63808 0.16092 0.02782 0.0
N919 N 0.61646 0.11972 0.98022 0.0
H920 H 0.91867 0.60019 0.55872 0.0
H921 H 0.87658 0.67792 0.45005 0.0
H922 H 0.87492 0.67906 0.55647 0.0
H923 H 0.91944 0.59762 0.45253 0.0
H924 H 0.87954 0.68494 0.48879 0.0
H925 H 0.92302 0.60498 0.52 0.0
C926 C 0.91037 0.61913 0.55005 0.0
C927 C 0.89657 0.63949 0.5607 0.0
C928 C 0.88862 0.66622 0.48086 0.0
C929 C 0.901 0.6446 0.51635 0.0
C930 C 0.88706 0.66247 0.45873 0.0
C931 C 0.89803 0.63752 0.44812 0.0
C932 C 0.90107 0.64456 0.49253 0.0
C933 C 0.91095 0.61743 0.46014 0.0
C934 C 0.91272 0.62172 0.52795 0.0
C935 C 0.88586 0.66321 0.54879 0.0
N936 N 0.912 0.62119 0.4817 0.0
N937 N 0.88815 0.6649 0.52723 0.0
H938 H 0.10553 0.40518 0.55691 0.0
H939 H 0.15304 0.32422 0.45159 0.0
H940 H 0.15067 0.32853 0.55805 0.0
H941 H 0.10826 0.40149 0.45077 0.0
H942 H 0.1489 0.31911 0.49039 0.0
H943 H 0.10272 0.39811 0.51815 0.0
C944 C 0.11444 0.38618 0.549 0.0
C945 C 0.12811 0.36704 0.56065 0.0
C946 C 0.13969 0.33676 0.48172 0.0
C947 C 0.1255 0.35941 0.51624 0.0
C948 C 0.14196 0.33943 0.45957 0.0
C949 C 0.13084 0.36307 0.44806 0.0
C950 C 0.12632 0.35813 0.49243 0.0
C951 C 0.11697 0.38275 0.45913 0.0
C952 C 0.11297 0.3823 0.52687 0.0
C953 C 0.1397 0.34332 0.54964 0.0
N954 N 0.11522 0.38007 0.4807 0.0
N955 N 0.13826 0.34039 0.52805 0.0
H956 H 0.87533 0.32343 0.95317 0.0
H957 H 0.9219 0.40808 0.05766 0.0
H958 H 0.91868 0.40287 0.9516 0.0
H959 H 0.87807 0.3294 0.05951 0.0
H960 H 0.9247 0.40055 0.01893 0.0
H961 H 0.87985 0.31891 0.99194 0.0
C962 C 0.8862 0.33924 0.96098 0.0
C963 C 0.89679 0.36333 0.94928 0.0
C964 C 0.91475 0.38441 0.0278 0.0
C965 C 0.90171 0.35908 0.9936 0.0
C966 C 0.91328 0.38858 0.04991 0.0
C967 C 0.89997 0.36899 0.06173 0.0
C968 C 0.90259 0.36076 0.01738 0.0
C969 C 0.88875 0.34458 0.05094 0.0
C970 C 0.88867 0.3369 0.98311 0.0
C971 C 0.9104 0.38377 0.96012 0.0
N972 N 0.89018 0.34136 0.02937 0.0
N973 N 0.91234 0.38142 0.98168 0.0
H974 H 0.10543 0.59681 0.05617 0.0
H975 H 0.15186 0.68256 0.95185 0.0
H976 H 0.14925 0.6755 0.05821 0.0
H977 H 0.10931 0.60188 0.95009 0.0
H978 H 0.14729 0.68671 0.99065 0.0
H979 H 0.10276 0.60438 0.01744 0.0
C980 C 0.11407 0.61633 0.04847 0.0
C981 C 0.12734 0.63591 0.06035 0.0
C982 C 0.13865 0.66851 0.98177 0.0
C983 C 0.12487 0.64418 0.01599 0.0
C984 C 0.14116 0.66638 0.95963 0.0
C985 C 0.1308 0.64208 0.94786 0.0
C986 C 0.12582 0.64593 0.99221 0.0
C987 C 0.11741 0.62115 0.95866 0.0
C988 C 0.11269 0.6205 0.02635 0.0
C989 C 0.13859 0.66033 0.04961 0.0
N990 N 0.11543 0.62334 0.98023 0.0
N991 N 0.13724 0.66357 0.02804 0.0
H992 H 0.55785 0.96438 0.34147 0.0
H993 H 0.46382 0.02192 0.40955 0.0
H994 H 0.562 0.98411 0.40888 0.0
H995 H 0.46994 0.04374 0.34257 0.0
H996 H 0.498 1.00022 0.40984 0.0
H997 H 0.52394 0.98637 0.34169 0.0
C998 C 0.55161 0.9735 0.35631 0.0
C999 C 0.56276 0.97258 0.37516 0.0
C1000 C 0.49181 0.00972 0.3951 0.0
C1001 C 0.52379 0.99716 0.37564 0.0
C1002 C 0.47229 0.02179 0.39488 0.0
C1003 C 0.46405 0.03463 0.376 0.0
C1004 C 0.50302 0.00986 0.3762 0.0
C1005 C 0.47574 0.03421 0.35748 0.0
C1006 C 0.53228 0.98606 0.35643 0.0
C1007 C 0.55395 0.9847 0.39396 0.0
N1008 N 0.49454 0.0219 0.35801 0.0
N1009 N 0.53491 0.99619 0.39378 0.0
H1010 H 0.4765 0.93793 0.16053 0.0
H1011 H 0.549 0.07869 0.11393 0.0
H1012 H 0.45981 0.00261 0.1081 0.0
H1013 H 0.56998 0.9918 0.14855 0.0
H1014 H 0.51556 0.05475 0.11415 0.0
H1015 H 0.5099 0.96088 0.15896 0.0
C1016 C 0.47977 0.95673 0.14852 0.0
C1017 C 0.46506 0.96784 0.13423 0.0
C1018 C 0.52748 0.04083 0.12161 0.0
C1019 C 0.50362 0.9951 0.13284 0.0
C1020 C 0.54658 0.05453 0.12157 0.0
C1021 C 0.56237 0.03726 0.13127 0.0
C1022 C 0.52396 0.00982 0.13175 0.0
C1023 C 0.55832 0.00589 0.14075 0.0
C1024 C 0.49894 0.96998 0.14776 0.0
C1025 C 0.47038 0.99328 0.11962 0.0
N1026 N 0.53953 0.99336 0.14092 0.0
N1027 N 0.48914 0.00602 0.11934 0.0
H1028 H 0.55048 0.93836 0.66166 0.0
H1029 H 0.47778 0.07794 0.61426 0.0
H1030 H 0.56764 0.00293 0.60937 0.0
H1031 H 0.45705 0.99003 0.64799 0.0
H1032 H 0.51144 0.05476 0.61488 0.0
H1033 H 0.51707 0.96117 0.65971 0.0
C1034 C 0.5473 0.95716 0.64963 0.0
C1035 C 0.56208 0.96818 0.6354 0.0
C1036 C 0.49952 0.04046 0.62204 0.0
C1037 C 0.52355 0.99521 0.63355 0.0
C1038 C 0.48031 0.05369 0.62176 0.0
C1039 C 0.46455 0.0359 0.63112 0.0
C1040 C 0.50314 0.00942 0.63209 0.0
C1041 C 0.4687 0.00449 0.64046 0.0
C1042 C 0.52813 0.97029 0.64862 0.0
C1043 C 0.55693 0.99364 0.62076 0.0
N1044 N 0.48759 0.99243 0.64089 0.0
N1045 N 0.53814 0.00626 0.62022 0.0
H1046 H 0.57005 0.99197 0.8598 0.0
H1047 H 0.4594 1.00136 0.90583 0.0
H1048 H 0.55077 0.06943 0.90345 0.0
H1049 H 0.4761 0.94375 0.8502 0.0
H1050 H 0.49325 0.02352 0.9077 0.0
H1051 H 0.53637 0.96902 0.85958 0.0
C1052 C 0.5588 0.0038 0.86959 0.0
C1053 C 0.56318 0.03271 0.88158 0.0
C1054 C 0.48944 0.00601 0.8951 0.0
C1055 C 0.52457 0.00691 0.88123 0.0
C1056 C 0.47007 0.99357 0.89391 0.0
C1057 C 0.46485 0.9703 0.87798 0.0
C1058 C 0.50373 0.99497 0.88034 0.0
C1059 C 0.47946 0.96095 0.8631 0.0
C1060 C 0.53953 0.99095 0.86929 0.0
C1061 C 0.54796 0.04728 0.89381 0.0
N1062 N 0.49818 0.97309 0.86473 0.0
N1063 N 0.52934 0.03429 0.8933 0.0
H1064 H 0.95499 0.49156 0.36325 0.0
H1065 H 0.06773 0.50948 0.40128 0.0
H1066 H 0.97711 0.58119 0.3941 0.0
H1067 H 0.04831 0.43829 0.35353 0.0
H1068 H 0.0343 0.53369 0.40182 0.0
H1069 H 0.98858 0.46816 0.36337 0.0
C1070 C 0.96687 0.50618 0.37023 0.0
C1071 C 0.9632 0.53844 0.37861 0.0
C1072 C 0.03743 0.51274 0.39125 0.0
C1073 C 1.00179 0.51184 0.37875 0.0
C1074 C 0.05658 0.499 0.39082 0.0
C1075 C 0.061 0.47138 0.37753 0.0
C1076 C 0.02248 0.49866 0.37845 0.0
C1077 C 0.04567 0.45886 0.36451 0.0
C1078 C 0.98608 0.49294 0.37015 0.0
C1079 C 0.97928 0.55637 0.38726 0.0
N1080 N 0.02719 0.47237 0.36542 0.0
N1081 N 0.99782 0.54283 0.38716 0.0
H1082 H 0.06811 0.50123 0.10684 0.0
H1083 H 0.95637 0.51478 0.14859 0.0
H1084 H 0.05055 0.56581 0.15906 0.0
H1085 H 0.9784 0.4272 0.11535 0.0
H1086 H 0.98994 0.53848 0.14848 0.0
H1087 H 0.03469 0.47747 0.10634 0.0
C1088 C 0.0574 0.51038 0.1183 0.0
C1089 C 0.06244 0.53595 0.13293 0.0
C1090 C 0.98741 0.51409 0.14118 0.0
C1091 C 0.02374 0.50921 0.13197 0.0
C1092 C 0.96822 0.50068 0.14109 0.0
C1093 C 0.96453 0.46889 0.13203 0.0
C1094 C 1.00305 0.49589 0.13181 0.0
C1095 C 0.98057 0.45163 0.12271 0.0
C1096 C 0.03822 0.49689 0.11788 0.0
C1097 C 0.04751 0.54689 0.14708 0.0
N1098 N 0.99905 0.46537 0.12277 0.0
N1099 N 0.02894 0.53368 0.14615 0.0
H1100 H 0.97726 0.57041 0.60796 0.0
H1101 H 0.05051 0.43479 0.65869 0.0
H1102 H 0.95676 0.48682 0.64593 0.0
H1103 H 0.06683 0.49605 0.60452 0.0
H1104 H 0.01683 0.45638 0.65618 0.0
H1105 H 1.01063 0.54621 0.60816 0.0
C1106 C 0.97977 0.54679 0.61621 0.0
C1107 C 0.96419 0.53061 0.62696 0.0
C1108 C 0.02777 0.465 0.64479 0.0
C1109 C 1.0025 0.50299 0.62754 0.0
C1110 C 0.04709 0.45256 0.64612 0.0
C1111 C 0.06177 0.46318 0.63164 0.0
C1112 C 0.02292 0.48878 0.62908 0.0
C1113 C 0.05626 0.48721 0.61621 0.0
C1114 C 0.99882 0.53299 0.6163 0.0
C1115 C 0.96829 0.5 0.63732 0.0
N1116 N 0.03736 0.4992 0.61538 0.0
N1117 N 0.98707 0.48738 0.63755 0.0
H1118 H 0.05079 0.57199 0.90537 0.0
H1119 H 0.9759 0.44376 0.85058 0.0
H1120 H 0.06959 0.49161 0.86367 0.0
H1121 H 0.96045 0.49905 0.90756 0.0
H1122 H 1.00955 0.46509 0.85325 0.0
H1123 H 0.01716 0.54886 0.9051 0.0
C1124 C 0.04785 0.54923 0.89634 0.0
C1125 C 0.06298 0.53366 0.8845 0.0
C1126 C 0.99884 0.4725 0.86522 0.0
C1127 C 0.02449 0.50747 0.88381 0.0
C1128 C 0.97956 0.46027 0.86376 0.0
C1129 C 0.96525 0.46908 0.8791 0.0
C1130 C 1.00398 0.49425 0.88194 0.0
C1131 C 0.97087 0.49159 0.89533 0.0
C1132 C 0.02867 0.53609 0.89619 0.0
C1133 C 0.05841 0.50422 0.87313 0.0
N1134 N 0.9898 0.50338 0.89633 0.0
N1135 N 0.03952 0.4923 0.87286 0.0
H1136 H 0.21778 0.28905 0.33668 0.0
H1137 H 0.31693 0.23129 0.39535 0.0
H1138 H 0.23442 0.32685 0.39874 0.0
H1139 H 0.28756 0.16953 0.34824 0.0
H1140 H 0.28926 0.27071 0.39416 0.0
H1141 H 0.24566 0.25004 0.33791 0.0
C1142 C 0.22713 0.2892 0.35068 0.0
C1143 C 0.22328 0.31136 0.36779 0.0
C1144 C 0.28888 0.24848 0.38412 0.0
C1145 C 0.25594 0.26677 0.3689 0.0
C1146 C 0.30468 0.22559 0.38488 0.0
C1147 C 0.30479 0.19633 0.37204 0.0
C1148 C 0.27303 0.24277 0.37014 0.0
C1149 C 0.28852 0.19162 0.3583 0.0
C1150 C 0.2432 0.26687 0.35126 0.0
C1151 C 0.23665 0.3107 0.38504 0.0
N1152 N 0.27343 0.21453 0.35769 0.0
N1153 N 0.2523 0.28888 0.38513 0.0
H1154 H 0.70868 0.7756 0.39315 0.0
H1155 H 0.81032 0.71702 0.33876 0.0
H1156 H 0.73959 0.83788 0.34749 0.0
H1157 H 0.78877 0.67711 0.39834 0.0
H1158 H 0.78244 0.75697 0.3383 0.0
H1159 H 0.73589 0.73542 0.39204 0.0
C1160 C 0.72122 0.78122 0.38302 0.0
C1161 C 0.72173 0.81091 0.37066 0.0
C1162 C 0.78381 0.7394 0.35143 0.0
C1163 C 0.75301 0.76365 0.36885 0.0
C1164 C 0.79963 0.7164 0.35163 0.0
C1165 C 0.80196 0.69363 0.36864 0.0
C1166 C 0.76997 0.73934 0.36819 0.0
C1167 C 0.78772 0.69432 0.38499 0.0
C1168 C 0.73675 0.75791 0.38228 0.0
C1169 C 0.73827 0.81551 0.35726 0.0
N1170 N 0.77238 0.71662 0.38432 0.0
N1171 N 0.75318 0.79222 0.35671 0.0
H1172 H 0.23968 0.66901 0.16271 0.0
H1173 H 0.29 0.83124 0.10936 0.0
H1174 H 0.21055 0.7314 0.11577 0.0
H1175 H 0.3104 0.79003 0.16902 0.0
H1176 H 0.2622 0.79171 0.10992 0.0
H1177 H 0.2668 0.71 0.16404 0.0
C1178 C 0.23881 0.69123 0.15273 0.0
C1179 C 0.22261 0.69617 0.13894 0.0
C1180 C 0.27268 0.79135 0.12297 0.0
C1181 C 0.25409 0.74319 0.14018 0.0
C1182 C 0.28864 0.81388 0.12261 0.0
C1183 C 0.30265 0.81408 0.13917 0.0
C1184 C 0.27071 0.76824 0.13984 0.0
C1185 C 0.29991 0.79106 0.15601 0.0
C1186 C 0.25443 0.71462 0.15347 0.0
C1187 C 0.22277 0.72558 0.12627 0.0
N1188 N 0.28441 0.76894 0.15583 0.0
N1189 N 0.23821 0.74764 0.12712 0.0
H1190 H 0.73932 0.16923 0.1639 0.0
H1191 H 0.7907 0.32998 0.10994 0.0
H1192 H 0.71089 0.23105 0.11618 0.0
H1193 H 0.81055 0.2894 0.16999 0.0
H1194 H 0.76274 0.2908 0.11052 0.0
H1195 H 0.76659 0.20991 0.16522 0.0
C1196 C 0.73864 0.19127 0.15375 0.0
C1197 C 0.72258 0.19614 0.13975 0.0
C1198 C 0.77314 0.2905 0.12364 0.0
C1199 C 0.75424 0.24281 0.14098 0.0
C1200 C 0.78918 0.31284 0.12328 0.0
C1201 C 0.80309 0.3131 0.13993 0.0
C1202 C 0.77097 0.26766 0.14063 0.0
C1203 C 0.80015 0.29036 0.15689 0.0
C1204 C 0.75435 0.21449 0.15448 0.0
C1205 C 0.72299 0.2253 0.12686 0.0
N1206 N 0.78456 0.26842 0.15672 0.0
N1207 N 0.7385 0.2472 0.12771 0.0
H1208 H 0.73633 0.82949 0.61123 0.0
H1209 H 0.78414 0.65881 0.6561 0.0
H1210 H 0.71267 0.77901 0.66649 0.0
H1211 H 0.81766 0.73296 0.62119 0.0
H1212 H 0.75566 0.69775 0.65638 0.0
H1213 H 0.76424 0.78992 0.61112 0.0
C1214 C 0.73702 0.81007 0.62336 0.0
C1215 C 0.72214 0.8077 0.63894 0.0
C1216 C 0.76926 0.70541 0.64865 0.0
C1217 C 0.754 0.7618 0.6387 0.0
C1218 C 0.78545 0.68312 0.64834 0.0
C1219 C 0.80335 0.69266 0.63866 0.0
C1220 C 0.77082 0.73721 0.6388 0.0
C1221 C 0.80423 0.72463 0.62897 0.0
C1222 C 0.75298 0.78752 0.62331 0.0
C1223 C 0.72388 0.782 0.65431 0.0
N1224 N 0.78824 0.74557 0.62919 0.0
N1225 N 0.7394 0.75991 0.6537 0.0
H1226 H 0.21646 0.28973 0.66961 0.0
H1227 H 0.31793 0.23048 0.61513 0.0
H1228 H 0.23796 0.32922 0.60991 0.0
H1229 H 0.28725 0.16893 0.66135 0.0
H1230 H 0.29074 0.27068 0.61613 0.0
H1231 H 0.24432 0.24975 0.67015 0.0
C1232 C 0.22714 0.29026 0.65673 0.0
C1233 C 0.2248 0.31293 0.63967 0.0
C1234 C 0.28992 0.24835 0.62603 0.0
C1235 C 0.25676 0.26716 0.6402 0.0
C1236 C 0.30545 0.22502 0.62537 0.0
C1237 C 0.305 0.19554 0.63791 0.0
C1238 C 0.27372 0.24282 0.63959 0.0
C1239 C 0.28852 0.19114 0.65144 0.0
C1240 C 0.24295 0.26723 0.65697 0.0
C1241 C 0.23901 0.31209 0.6233 0.0
N1242 N 0.2736 0.21444 0.65191 0.0
N1243 N 0.25435 0.28977 0.62401 0.0
H1244 H 0.73279 0.18082 0.89931 0.0
H1245 H 0.7841 0.34754 0.85401 0.0
H1246 H 0.71538 0.22611 0.83949 0.0
H1247 H 0.81557 0.27543 0.89267 0.0
H1248 H 0.75553 0.30899 0.85319 0.0
H1249 H 0.76053 0.22015 0.90116 0.0
C1250 C 0.73475 0.19868 0.88644 0.0
C1251 C 0.72142 0.19973 0.86919 0.0
C1252 C 0.76867 0.30175 0.86194 0.0
C1253 C 0.75303 0.24597 0.87176 0.0
C1254 C 0.78488 0.32382 0.86255 0.0
C1255 C 0.80221 0.3146 0.87339 0.0
C1256 C 0.76968 0.27056 0.8726 0.0
C1257 C 0.80251 0.2834 0.88404 0.0
C1258 C 0.75057 0.2214 0.88766 0.0
C1259 C 0.72477 0.22443 0.85339 0.0
N1260 N 0.7865 0.26259 0.88345 0.0
N1261 N 0.74009 0.24658 0.85514 0.0
H1262 H 0.21493 0.72422 0.83906 0.0
H1263 H 0.31831 0.77169 0.89098 0.0
H1264 H 0.23515 0.67698 0.89721 0.0
H1265 H 0.28425 0.84357 0.85479 0.0
H1266 H 0.29 0.73293 0.89058 0.0
H1267 H 0.24225 0.76406 0.84145 0.0
C1268 C 0.22493 0.72217 0.85246 0.0
C1269 C 0.22229 0.69709 0.86814 0.0
C1270 C 0.28866 0.75727 0.88287 0.0
C1271 C 0.25428 0.74257 0.87046 0.0
C1272 C 0.30479 0.77937 0.88306 0.0
C1273 C 0.30359 0.81093 0.87294 0.0
C1274 C 0.2713 0.76638 0.87204 0.0
C1275 C 0.28574 0.81961 0.86292 0.0
C1276 C 0.24065 0.745 0.8537 0.0
C1277 C 0.23647 0.69542 0.88458 0.0
N1278 N 0.27037 0.79731 0.8625 0.0
N1279 N 0.25182 0.71771 0.88526 0.0
H1280 H 0.35167 0.05657 0.29583 0.0
H1281 H 0.4155 0.96262 0.20626 0.0
H1282 H 0.41411 0.03978 0.30423 0.0
H1283 H 0.3531 0.9463 0.21534 0.0
H1284 H 0.41626 0.99567 0.23965 0.0
H1285 H 0.35267 0.0229 0.26302 0.0
C1286 C 0.36563 0.04599 0.29058 0.0
C1287 C 0.38278 0.05055 0.30282 0.0
C1288 C 0.40245 0.98463 0.23439 0.0
C1289 C 0.38413 0.01209 0.26521 0.0
C1290 C 0.40204 0.96569 0.21545 0.0
C1291 C 0.38419 0.95198 0.20804 0.0
C1292 C 0.38479 0.99025 0.24578 0.0
C1293 C 0.36713 0.95666 0.22047 0.0
C1294 C 0.36619 0.02659 0.27197 0.0
C1295 C 0.40056 0.03662 0.29526 0.0
N1296 N 0.3678 0.97573 0.23851 0.0
N1297 N 0.4008 0.01796 0.27693 0.0
H1298 H 0.67315 0.06474 0.21549 0.0
H1299 H 0.61153 0.96474 0.30402 0.0
H1300 H 0.61178 0.04047 0.20551 0.0
H1301 H 0.6744 0.95362 0.2954 0.0
H1302 H 0.61006 0.99806 0.27078 0.0
H1303 H 0.67272 0.0317 0.24856 0.0
C1304 C 0.6595 0.0528 0.22051 0.0
C1305 C 0.64251 0.0551 0.20778 0.0
C1306 C 0.62414 0.98818 0.27615 0.0
C1307 C 0.64185 0.0172 0.24557 0.0
C1308 C 0.62496 0.96911 0.29501 0.0
C1309 C 0.64315 0.95686 0.30252 0.0
C1310 C 0.64169 0.99534 0.26496 0.0
C1311 C 0.66013 0.96302 0.29025 0.0
C1312 C 0.65929 0.03372 0.23924 0.0
C1313 C 0.62517 0.0392 0.21493 0.0
N1314 N 0.65904 0.98217 0.27229 0.0
N1315 N 0.62526 0.02086 0.23337 0.0
H1316 H 0.62635 0.00997 0.81684 0.0
H1317 H 0.62461 0.99335 0.6909 0.0
H1318 H 0.64836 0.09119 0.77784 0.0
H1319 H 0.65076 0.91494 0.72925 0.0
H1320 H 0.62224 0.02924 0.72286 0.0
H1321 H 0.62407 0.9742 0.78485 0.0
C1322 C 0.63026 0.02052 0.80147 0.0
C1323 C 0.63736 0.05379 0.80001 0.0
C1324 C 0.62806 0.00386 0.72428 0.0
C1325 C 0.63442 0.01318 0.76338 0.0
C1326 C 0.62929 0.98331 0.70614 0.0
C1327 C 0.63734 0.95063 0.70745 0.0
C1328 C 0.63449 0.99145 0.74402 0.0
C1329 C 0.64363 0.93924 0.72756 0.0
C1330 C 0.62905 1.00006 0.78332 0.0
C1331 C 0.6424 0.06603 0.77969 0.0
N1332 N 0.64194 0.9595 0.74507 0.0
N1333 N 0.64073 0.04581 0.76215 0.0
H1334 H 0.41464 0.95638 0.80095 0.0
H1335 H 0.35243 0.05888 0.71407 0.0
H1336 H 0.35174 0.94525 0.79273 0.0
H1337 H 0.41403 0.03626 0.70395 0.0
H1338 H 0.35293 0.02425 0.74649 0.0
H1339 H 0.41586 0.99054 0.76808 0.0
C1340 C 0.40116 0.96079 0.79204 0.0
C1341 C 0.38305 0.94818 0.79956 0.0
C1342 C 0.36639 0.02696 0.73728 0.0
C1343 C 0.38421 0.98785 0.76244 0.0
C1344 C 0.36614 0.04695 0.71892 0.0
C1345 C 0.38319 0.05021 0.70634 0.0
C1346 C 0.38392 0.01047 0.74339 0.0
C1347 C 0.40059 0.03429 0.71326 0.0
C1348 C 0.40183 0.98039 0.7734 0.0
C1349 C 0.36598 0.95467 0.7875 0.0
N1350 N 0.40054 0.01506 0.73134 0.0
N1351 N 0.36692 0.97439 0.76976 0.0
H1352 H 0.85319 0.44467 0.21542 0.0
H1353 H 0.91525 0.5433 0.30412 0.0
H1354 H 0.91506 0.46576 0.20606 0.0
H1355 H 0.85273 0.55745 0.29449 0.0
H1356 H 0.91662 0.50953 0.27103 0.0
H1357 H 0.85373 0.47856 0.24815 0.0
C1358 C 0.86695 0.45615 0.22048 0.0
C1359 C 0.88406 0.45272 0.208 0.0
C1360 C 0.90265 0.52022 0.27612 0.0
C1361 C 0.88486 0.49153 0.24546 0.0
C1362 C 0.90189 0.53956 0.29489 0.0
C1363 C 0.88382 0.55283 0.30207 0.0
C1364 C 0.88514 0.51376 0.2647 0.0
C1365 C 0.86691 0.54736 0.28957 0.0
C1366 C 0.86724 0.4757 0.23903 0.0
C1367 C 0.90156 0.46795 0.21526 0.0
N1368 N 0.86792 0.5279 0.27172 0.0
N1369 N 0.90154 0.48675 0.23353 0.0
H1370 H 0.17413 0.44371 0.29271 0.0
H1371 H 0.11143 0.54077 0.20377 0.0
H1372 H 0.1117 0.46109 0.30091 0.0
H1373 H 0.17359 0.55748 0.21423 0.0
H1374 H 0.11027 0.50636 0.23657 0.0
H1375 H 0.17346 0.47814 0.26022 0.0
C1376 C 0.16022 0.45445 0.28743 0.0
C1377 C 0.14298 0.44981 0.29953 0.0
C1378 C 0.12411 0.51777 0.23174 0.0
C1379 C 0.14204 0.48927 0.26236 0.0
C1380 C 0.12474 0.53749 0.21314 0.0
C1381 C 0.14265 0.55172 0.2063 0.0
C1382 C 0.14161 0.51187 0.24331 0.0
C1383 C 0.15953 0.54674 0.21894 0.0
C1384 C 0.15986 0.47432 0.26903 0.0
C1385 C 0.1253 0.46416 0.292 0.0
N1386 N 0.15866 0.5269 0.23662 0.0
N1387 N 0.12526 0.48331 0.2739 0.0
H1388 H 0.11121 0.54527 0.80156 0.0
H1389 H 0.17378 0.44368 0.71443 0.0
H1390 H 0.17391 0.55827 0.79263 0.0
H1391 H 0.11206 0.46533 0.70443 0.0
H1392 H 0.17311 0.47832 0.74687 0.0
H1393 H 0.1101 0.51074 0.76882 0.0
C1394 C 0.12467 0.54116 0.79254 0.0
C1395 C 0.1427 0.55443 0.79983 0.0
C1396 C 0.15966 0.47538 0.73769 0.0
C1397 C 0.14167 0.51433 0.76285 0.0
C1398 C 0.16001 0.45537 0.71932 0.0
C1399 C 0.14297 0.45183 0.70676 0.0
C1400 C 0.14205 0.4916 0.74383 0.0
C1401 C 0.12549 0.46749 0.71373 0.0
C1402 C 0.12406 0.52136 0.77397 0.0
C1403 C 0.15974 0.54832 0.78761 0.0
N1404 N 0.12544 0.48674 0.73181 0.0
N1405 N 0.15886 0.52839 0.76994 0.0
H1406 H 0.85085 0.55987 0.71572 0.0
H1407 H 0.91386 0.45826 0.80262 0.0
H1408 H 0.91322 0.54208 0.70744 0.0
H1409 H 0.85095 0.44687 0.79466 0.0
H1410 H 0.91484 0.49323 0.77011 0.0
H1411 H 0.85137 0.5248 0.74794 0.0
C1412 C 0.86472 0.54894 0.72094 0.0
C1413 C 0.88199 0.55369 0.70893 0.0
C1414 C 0.90086 0.48284 0.77539 0.0
C1415 C 0.88276 0.51336 0.74571 0.0
C1416 C 0.90033 0.46276 0.79381 0.0
C1417 C 0.88229 0.44981 0.80128 0.0
C1418 C 0.88316 0.49039 0.76459 0.0
C1419 C 0.86514 0.45648 0.78942 0.0
C1420 C 0.865 0.52867 0.73918 0.0
C1421 C 0.89961 0.53898 0.71632 0.0
N1422 N 0.86595 0.4766 0.77185 0.0
N1423 N 0.89956 0.51941 0.73423 0.0
loop_
_geom_bond_atom_site_label_1
_geom_bond_atom_site_label_2
_geom_bond_distance
_geom_bond_site_symmetry_2
_ccdc_geom_bond_type
C0 C1 1.443 . S
C0 N4 1.376 . S
C0 C38 1.389 . S
C1 C0 1.443 . S
C1 C2 1.340 . S
C1 H41 0.951 . S
C2 C1 1.340 . S
C2 C3 1.439 . S
C2 H42 0.950 1_545 S
C3 C2 1.439 . S
C3 N4 1.374 . S
C3 C37 1.395 . S
N4 C0 1.376 . S
N4 C3 1.374 . S
N4 Co5 2.008 . S
Co5 N4 2.008 . S
Co5 N6 1.995 . S
Co5 N11 2.008 . S
Co5 N16 1.995 . S
Co5 N21 2.282 . S
Co5 N27 2.282 . S
N6 Co5 1.995 . S
N6 C7 1.376 . S
N6 C10 1.383 . S
C7 N6 1.376 . S
C7 C8 1.446 . S
C7 C37 1.391 . S
C8 C7 1.446 . S
C8 C9 1.339 . S
C8 H43 0.949 . S
C9 C8 1.339 . S
C9 C10 1.439 . S
C9 H44 0.950 . S
C10 N6 1.383 . S
C10 C9 1.439 . S
C10 C39 1.392 . S
N11 Co5 2.008 . S
N11 C12 1.376 . S
N11 C15 1.374 . S
C12 N11 1.376 . S
C12 C13 1.443 . S
C12 C39 1.389 . S
C13 C12 1.443 . S
C13 C14 1.340 . S
C13 H45 0.951 . S
C14 C13 1.340 . S
C14 C15 1.439 . S
C14 H46 0.950 . S
C15 N11 1.374 . S
C15 C14 1.439 . S
C15 C40 1.395 . S
N16 Co5 1.995 . S
N16 C17 1.376 . S
N16 C20 1.383 . S
C17 N16 1.376 . S
C17 C18 1.446 . S
C17 C40 1.391 . S
C18 C17 1.446 . S
C18 C19 1.339 . S
C18 H47 0.949 . S
C19 C18 1.339 . S
C19 C20 1.439 . S
C19 H48 0.950 . S
C20 N16 1.383 . S
C20 C19 1.439 . S
C20 C38 1.392 . S
N21 Co5 2.282 . S
N21 C24 1.332 . S
N21 C26 1.332 . S
C22 C23 1.386 . S
C22 C25 1.388 . S
C23 C22 1.386 . S
C23 C24 1.382 . S
C23 H49 0.950 . S
C24 N21 1.332 . S
C24 C23 1.382 . S
C24 H35 0.952 . S
C25 C22 1.388 . S
C25 C26 1.382 . S
C25 H50 0.950 . S
C26 N21 1.332 . S
C26 C25 1.382 . S
C26 H36 0.948 . S
N27 Co5 2.282 . S
N27 C31 1.332 . S
N27 C32 1.332 . S
C28 C29 1.388 . S
C28 C32 1.382 . S
C28 H51 0.950 . S
C29 C28 1.388 . S
C29 C30 1.386 . S
C30 C29 1.386 . S
C30 C31 1.382 . S
C30 H52 0.950 . S
C31 N27 1.332 . S
C31 C30 1.382 . S
C31 H33 0.952 . S
C32 N27 1.332 . S
C32 C28 1.382 . S
C32 H34 0.948 . S
H33 C31 0.952 . S
H34 C32 0.948 . S
H35 C24 0.952 . S
H36 C26 0.948 . S
C37 C3 1.395 . S
C37 C7 1.391 . S
C38 C0 1.389 . S
C38 C20 1.392 . S
C39 C10 1.392 . S
C39 C12 1.389 . S
C40 C15 1.395 . S
C40 C17 1.391 . S
H41 C1 0.951 . S
H42 C2 0.950 1_565 S
H43 C8 0.949 . S
H44 C9 0.950 . S
H45 C13 0.951 . S
H46 C14 0.950 . S
H47 C18 0.949 . S
H48 C19 0.950 . S
H49 C23 0.950 . S
H50 C25 0.950 . S
H51 C28 0.950 . S
H52 C30 0.950 . S
C53 C54 1.443 . S
C53 N57 1.376 . S
C53 C91 1.389 . S
C54 C53 1.443 . S
C54 C55 1.340 . S
C54 H94 0.951 . S
C55 C54 1.340 . S
C55 C56 1.439 . S
C55 H95 0.950 1_565 S
C56 C55 1.439 . S
C56 N57 1.374 . S
C56 C90 1.395 . S
N57 C53 1.376 . S
N57 C56 1.374 . S
N57 Co58 2.008 . S
Co58 N57 2.008 . S
Co58 N59 1.995 . S
Co58 N64 2.008 . S
Co58 N69 1.995 . S
Co58 N74 2.282 . S
Co58 N80 2.282 . S
N59 Co58 1.995 . S
N59 C60 1.376 . S
N59 C63 1.383 . S
C60 N59 1.376 . S
C60 C61 1.446 . S
C60 C90 1.391 . S
C61 C60 1.446 . S
C61 C62 1.339 . S
C61 H96 0.949 . S
C62 C61 1.339 . S
C62 C63 1.439 . S
C62 H97 0.950 . S
C63 N59 1.383 . S
C63 C62 1.439 . S
C63 C92 1.392 . S
N64 Co58 2.008 . S
N64 C65 1.376 . S
N64 C68 1.374 . S
C65 N64 1.376 . S
C65 C66 1.443 . S
C65 C92 1.389 . S
C66 C65 1.443 . S
C66 C67 1.340 . S
C66 H98 0.951 . S
C67 C66 1.340 . S
C67 C68 1.439 . S
C67 H99 0.950 . S
C68 N64 1.374 . S
C68 C67 1.439 . S
C68 C93 1.395 . S
N69 Co58 1.995 . S
N69 C70 1.376 . S
N69 C73 1.383 . S
C70 N69 1.376 . S
C70 C71 1.446 . S
C70 C93 1.391 . S
C71 C70 1.446 . S
C71 C72 1.339 . S
C71 H100 0.949 . S
C72 C71 1.339 . S
C72 C73 1.439 . S
C72 H101 0.950 . S
C73 N69 1.383 . S
C73 C72 1.439 . S
C73 C91 1.392 . S
N74 Co58 2.282 . S
N74 C77 1.332 . S
N74 C79 1.332 . S
C75 C76 1.386 . S
C75 C78 1.388 . S
C76 C75 1.386 . S
C76 C77 1.382 . S
C76 H102 0.950 . S
C77 N74 1.332 . S
C77 C76 1.382 . S
C77 H88 0.952 . S
C78 C75 1.388 . S
C78 C79 1.382 . S
C78 H103 0.950 . S
C79 N74 1.332 . S
C79 C78 1.382 . S
C79 H89 0.948 . S
N80 Co58 2.282 . S
N80 C84 1.332 . S
N80 C85 1.332 . S
C81 C82 1.388 . S
C81 C85 1.382 . S
C81 H104 0.950 . S
C82 C81 1.388 . S
C82 C83 1.386 . S
C83 C82 1.386 . S
C83 C84 1.382 . S
C83 H105 0.950 . S
C84 N80 1.332 . S
C84 C83 1.382 . S
C84 H86 0.952 . S
C85 N80 1.332 . S
C85 C81 1.382 . S
C85 H87 0.948 . S
H86 C84 0.952 . S
H87 C85 0.948 . S
H88 C77 0.952 . S
H89 C79 0.948 . S
C90 C56 1.395 . S
C90 C60 1.391 . S
C91 C53 1.389 . S
C91 C73 1.392 . S
C92 C63 1.392 . S
C92 C65 1.389 . S
C93 C68 1.395 . S
C93 C70 1.391 . S
H94 C54 0.951 . S
H95 C55 0.950 1_545 S
H96 C61 0.949 . S
H97 C62 0.950 . S
H98 C66 0.951 . S
H99 C67 0.950 . S
H100 C71 0.949 . S
H101 C72 0.950 . S
H102 C76 0.950 . S
H103 C78 0.950 . S
H104 C81 0.950 . S
H105 C83 0.950 . S
C106 C107 1.443 . S
C106 N110 1.376 . S
C106 C144 1.389 . S
C107 C106 1.443 . S
C107 C108 1.340 . S
C107 H147 0.951 . S
C108 C107 1.340 . S
C108 C109 1.439 . S
C108 H148 0.950 1_565 S
C109 C108 1.439 . S
C109 N110 1.374 . S
C109 C143 1.395 . S
N110 C106 1.376 . S
N110 C109 1.374 . S
N110 Co111 2.008 . S
Co111 N110 2.008 . S
Co111 N112 1.995 . S
Co111 N117 2.008 . S
Co111 N122 1.995 . S
Co111 N127 2.282 . S
Co111 N133 2.282 . S
N112 Co111 1.995 . S
N112 C113 1.376 . S
N112 C116 1.383 . S
C113 N112 1.376 . S
C113 C114 1.446 . S
C113 C143 1.391 . S
C114 C113 1.446 . S
C114 C115 1.339 . S
C114 H149 0.949 . S
C115 C114 1.339 . S
C115 C116 1.439 . S
C115 H150 0.950 . S
C116 N112 1.383 . S
C116 C115 1.439 . S
C116 C145 1.392 . S
N117 Co111 2.008 . S
N117 C118 1.376 . S
N117 C121 1.374 . S
C118 N117 1.376 . S
C118 C119 1.443 . S
C118 C145 1.389 . S
C119 C118 1.443 . S
C119 C120 1.340 . S
C119 H151 0.951 . S
C120 C119 1.340 . S
C120 C121 1.439 . S
C120 H152 0.950 . S
C121 N117 1.374 . S
C121 C120 1.439 . S
C121 C146 1.395 . S
N122 Co111 1.995 . S
N122 C123 1.376 . S
N122 C126 1.383 . S
C123 N122 1.376 . S
C123 C124 1.446 . S
C123 C146 1.391 . S
C124 C123 1.446 . S
C124 C125 1.339 . S
C124 H153 0.949 . S
C125 C124 1.339 . S
C125 C126 1.439 . S
C125 H154 0.950 . S
C126 N122 1.383 . S
C126 C125 1.439 . S
C126 C144 1.392 . S
N127 Co111 2.282 . S
N127 C130 1.332 . S
N127 C132 1.332 . S
C128 C129 1.386 . S
C128 C131 1.388 . S
C129 C128 1.386 . S
C129 C130 1.382 . S
C129 H155 0.950 . S
C130 N127 1.332 . S
C130 C129 1.382 . S
C130 H141 0.952 . S
C131 C128 1.388 . S
C131 C132 1.382 . S
C131 H156 0.950 . S
C132 N127 1.332 . S
C132 C131 1.382 . S
C132 H142 0.948 . S
N133 Co111 2.282 . S
N133 C137 1.332 . S
N133 C138 1.332 . S
C134 C135 1.388 . S
C134 C138 1.382 . S
C134 H157 0.950 . S
C135 C134 1.388 . S
C135 C136 1.386 . S
C136 C135 1.386 . S
C136 C137 1.382 . S
C136 H158 0.950 . S
C137 N133 1.332 . S
C137 C136 1.382 . S
C137 H139 0.952 . S
C138 N133 1.332 . S
C138 C134 1.382 . S
C138 H140 0.948 . S
H139 C137 0.952 . S
H140 C138 0.948 . S
H141 C130 0.952 . S
H142 C132 0.948 . S
C143 C109 1.395 . S
C143 C113 1.391 . S
C144 C106 1.389 . S
C144 C126 1.392 . S
C145 C116 1.392 . S
C145 C118 1.389 . S
C146 C121 1.395 . S
C146 C123 1.391 . S
H147 C107 0.951 . S
H148 C108 0.950 1_545 S
H149 C114 0.949 . S
H150 C115 0.950 . S
H151 C119 0.951 . S
H152 C120 0.950 . S
H153 C124 0.949 . S
H154 C125 0.950 . S
H155 C129 0.950 . S
H156 C131 0.950 . S
H157 C134 0.950 . S
H158 C136 0.950 . S
C159 C160 1.443 . S
C159 N163 1.376 . S
C159 C197 1.389 . S
C160 C159 1.443 . S
C160 C161 1.340 . S
C160 H200 0.951 . S
C161 C160 1.340 . S
C161 C162 1.439 . S
C161 H201 0.950 1_545 S
C162 C161 1.439 . S
C162 N163 1.374 . S
C162 C196 1.395 . S
N163 C159 1.376 . S
N163 C162 1.374 . S
N163 Co164 2.008 . S
Co164 N163 2.008 . S
Co164 N165 1.995 . S
Co164 N170 2.008 . S
Co164 N175 1.995 . S
Co164 N180 2.282 . S
Co164 N186 2.282 . S
N165 Co164 1.995 . S
N165 C166 1.376 . S
N165 C169 1.383 . S
C166 N165 1.376 . S
C166 C167 1.446 . S
C166 C196 1.391 . S
C167 C166 1.446 . S
C167 C168 1.339 . S
C167 H202 0.949 . S
C168 C167 1.339 . S
C168 C169 1.439 . S
C168 H203 0.950 . S
C169 N165 1.383 . S
C169 C168 1.439 . S
C169 C198 1.392 . S
N170 Co164 2.008 . S
N170 C171 1.376 . S
N170 C174 1.374 . S
C171 N170 1.376 . S
C171 C172 1.443 . S
C171 C198 1.389 . S
C172 C171 1.443 . S
C172 C173 1.340 . S
C172 H204 0.951 . S
C173 C172 1.340 . S
C173 C174 1.439 . S
C173 H205 0.950 . S
C174 N170 1.374 . S
C174 C173 1.439 . S
C174 C199 1.395 . S
N175 Co164 1.995 . S
N175 C176 1.376 . S
N175 C179 1.383 . S
C176 N175 1.376 . S
C176 C177 1.446 . S
C176 C199 1.391 . S
C177 C176 1.446 . S
C177 C178 1.339 . S
C177 H206 0.949 . S
C178 C177 1.339 . S
C178 C179 1.439 . S
C178 H207 0.950 . S
C179 N175 1.383 . S
C179 C178 1.439 . S
C179 C197 1.392 . S
N180 Co164 2.282 . S
N180 C183 1.332 . S
N180 C185 1.332 . S
C181 C182 1.386 . S
C181 C184 1.388 . S
C182 C181 1.386 . S
C182 C183 1.382 . S
C182 H208 0.950 . S
C183 N180 1.332 . S
C183 C182 1.382 . S
C183 H194 0.952 . S
C184 C181 1.388 . S
C184 C185 1.382 . S
C184 H209 0.950 . S
C185 N180 1.332 . S
C185 C184 1.382 . S
C185 H195 0.948 . S
N186 Co164 2.282 . S
N186 C190 1.332 . S
N186 C191 1.332 . S
C187 C188 1.388 . S
C187 C191 1.382 . S
C187 H210 0.950 . S
C188 C187 1.388 . S
C188 C189 1.386 . S
C189 C188 1.386 . S
C189 C190 1.382 . S
C189 H211 0.950 . S
C190 N186 1.332 . S
C190 C189 1.382 . S
C190 H192 0.952 . S
C191 N186 1.332 . S
C191 C187 1.382 . S
C191 H193 0.948 . S
H192 C190 0.952 . S
H193 C191 0.948 . S
H194 C183 0.952 . S
H195 C185 0.948 . S
C196 C162 1.395 . S
C196 C166 1.391 . S
C197 C159 1.389 . S
C197 C179 1.392 . S
C198 C169 1.392 . S
C198 C171 1.389 . S
C199 C174 1.395 . S
C199 C176 1.391 . S
H200 C160 0.951 . S
H201 C161 0.950 1_565 S
H202 C167 0.949 . S
H203 C168 0.950 . S
H204 C172 0.951 . S
H205 C173 0.950 . S
H206 C177 0.949 . S
H207 C178 0.950 . S
H208 C182 0.950 . S
H209 C184 0.950 . S
H210 C187 0.950 . S
H211 C189 0.950 . S
C212 C213 1.443 . S
C212 N216 1.376 . S
C212 C250 1.389 . S
C213 C212 1.443 . S
C213 C214 1.340 . S
C213 H253 0.951 . S
C214 C213 1.340 . S
C214 C215 1.439 . S
C214 H254 0.950 . S
C215 C214 1.439 . S
C215 N216 1.374 . S
C215 C249 1.395 . S
N216 C212 1.376 . S
N216 C215 1.374 . S
N216 Co217 2.008 . S
Co217 N216 2.008 . S
Co217 N218 1.995 . S
Co217 N223 2.008 . S
Co217 N228 1.995 . S
Co217 N233 2.282 . S
Co217 N239 2.282 . S
N218 Co217 1.995 . S
N218 C219 1.376 . S
N218 C222 1.383 . S
C219 N218 1.376 . S
C219 C220 1.446 . S
C219 C249 1.391 . S
C220 C219 1.446 . S
C220 C221 1.339 . S
C220 H255 0.949 . S
C221 C220 1.339 . S
C221 C222 1.439 . S
C221 H256 0.950 . S
C222 N218 1.383 . S
C222 C221 1.439 . S
C222 C251 1.392 . S
N223 Co217 2.008 . S
N223 C224 1.376 . S
N223 C227 1.374 . S
C224 N223 1.376 . S
C224 C225 1.443 . S
C224 C251 1.389 . S
C225 C224 1.443 . S
C225 C226 1.340 . S
C225 H257 0.951 . S
C226 C225 1.340 . S
C226 C227 1.439 . S
C226 H258 0.950 . S
C227 N223 1.374 . S
C227 C226 1.439 . S
C227 C252 1.395 . S
N228 Co217 1.995 . S
N228 C229 1.376 . S
N228 C232 1.383 . S
C229 N228 1.376 . S
C229 C230 1.446 . S
C229 C252 1.391 . S
C230 C229 1.446 . S
C230 C231 1.339 . S
C230 H259 0.949 . S
C231 C230 1.339 . S
C231 C232 1.439 . S
C231 H260 0.950 . S
C232 N228 1.383 . S
C232 C231 1.439 . S
C232 C250 1.392 . S
N233 Co217 2.282 . S
N233 C236 1.332 . S
N233 C238 1.332 . S
C234 C235 1.386 . S
C234 C237 1.388 . S
C235 C234 1.386 . S
C235 C236 1.382 . S
C235 H261 0.950 . S
C236 N233 1.332 . S
C236 C235 1.382 . S
C236 H247 0.952 . S
C237 C234 1.388 . S
C237 C238 1.382 . S
C237 H262 0.950 . S
C238 N233 1.332 . S
C238 C237 1.382 . S
C238 H248 0.948 . S
N239 Co217 2.282 . S
N239 C243 1.332 . S
N239 C244 1.332 . S
C240 C241 1.388 . S
C240 C244 1.382 . S
C240 H263 0.950 . S
C241 C240 1.388 . S
C241 C242 1.386 . S
C242 C241 1.386 . S
C242 C243 1.382 . S
C242 H264 0.950 . S
C243 N239 1.332 . S
C243 C242 1.382 . S
C243 H245 0.952 . S
C244 N239 1.332 . S
C244 C240 1.382 . S
C244 H246 0.948 . S
H245 C243 0.952 . S
H246 C244 0.948 . S
H247 C236 0.952 . S
H248 C238 0.948 . S
C249 C215 1.395 . S
C249 C219 1.391 . S
C250 C212 1.389 . S
C250 C232 1.392 . S
C251 C222 1.392 . S
C251 C224 1.389 . S
C252 C227 1.395 . S
C252 C229 1.391 . S
H253 C213 0.951 . S
H254 C214 0.950 . S
H255 C220 0.949 . S
H256 C221 0.950 . S
H257 C225 0.951 . S
H258 C226 0.950 . S
H259 C230 0.949 . S
H260 C231 0.950 . S
H261 C235 0.950 . S
H262 C237 0.950 . S
H263 C240 0.950 . S
H264 C242 0.950 . S
C265 C266 1.443 . S
C265 N269 1.376 . S
C265 C303 1.389 . S
C266 C265 1.443 . S
C266 C267 1.340 . S
C266 H306 0.951 . S
C267 C266 1.340 . S
C267 C268 1.439 . S
C267 H307 0.950 . S
C268 C267 1.439 . S
C268 N269 1.374 . S
C268 C302 1.395 . S
N269 C265 1.376 . S
N269 C268 1.374 . S
N269 Co270 2.008 . S
Co270 N269 2.008 . S
Co270 N271 1.995 . S
Co270 N276 2.008 . S
Co270 N281 1.995 . S
Co270 N286 2.282 . S
Co270 N292 2.282 . S
N271 Co270 1.995 . S
N271 C272 1.376 . S
N271 C275 1.383 . S
C272 N271 1.376 . S
C272 C273 1.446 . S
C272 C302 1.391 . S
C273 C272 1.446 . S
C273 C274 1.339 . S
C273 H308 0.949 . S
C274 C273 1.339 . S
C274 C275 1.439 . S
C274 H309 0.950 . S
C275 N271 1.383 . S
C275 C274 1.439 . S
C275 C304 1.392 . S
N276 Co270 2.008 . S
N276 C277 1.376 . S
N276 C280 1.374 . S
C277 N276 1.376 . S
C277 C278 1.443 . S
C277 C304 1.389 . S
C278 C277 1.443 . S
C278 C279 1.340 . S
C278 H310 0.951 . S
C279 C278 1.340 . S
C279 C280 1.439 . S
C279 H311 0.950 . S
C280 N276 1.374 . S
C280 C279 1.439 . S
C280 C305 1.395 . S
N281 Co270 1.995 . S
N281 C282 1.376 . S
N281 C285 1.383 . S
C282 N281 1.376 . S
C282 C283 1.446 . S
C282 C305 1.391 . S
C283 C282 1.446 . S
C283 C284 1.339 . S
C283 H312 0.949 . S
C284 C283 1.339 . S
C284 C285 1.439 . S
C284 H313 0.950 . S
C285 N281 1.383 . S
C285 C284 1.439 . S
C285 C303 1.392 . S
N286 Co270 2.282 . S
N286 C289 1.332 . S
N286 C291 1.332 . S
C287 C288 1.386 . S
C287 C290 1.388 . S
C288 C287 1.386 . S
C288 C289 1.382 . S
C288 H314 0.950 . S
C289 N286 1.332 . S
C289 C288 1.382 . S
C289 H300 0.952 . S
C290 C287 1.388 . S
C290 C291 1.382 . S
C290 H315 0.950 . S
C291 N286 1.332 . S
C291 C290 1.382 . S
C291 H301 0.948 . S
N292 Co270 2.282 . S
N292 C296 1.332 . S
N292 C297 1.332 . S
C293 C294 1.388 . S
C293 C297 1.382 . S
C293 H316 0.950 . S
C294 C293 1.388 . S
C294 C295 1.386 . S
C295 C294 1.386 . S
C295 C296 1.382 . S
C295 H317 0.950 . S
C296 N292 1.332 . S
C296 C295 1.382 . S
C296 H298 0.952 . S
C297 N292 1.332 . S
C297 C293 1.382 . S
C297 H299 0.948 . S
H298 C296 0.952 . S
H299 C297 0.948 . S
H300 C289 0.952 . S
H301 C291 0.948 . S
C302 C268 1.395 . S
C302 C272 1.391 . S
C303 C265 1.389 . S
C303 C285 1.392 . S
C304 C275 1.392 . S
C304 C277 1.389 . S
C305 C280 1.395 . S
C305 C282 1.391 . S
H306 C266 0.951 . S
H307 C267 0.950 . S
H308 C273 0.949 . S
H309 C274 0.950 . S
H310 C278 0.951 . S
H311 C279 0.950 . S
H312 C283 0.949 . S
H313 C284 0.950 . S
H314 C288 0.950 . S
H315 C290 0.950 . S
H316 C293 0.950 . S
H317 C295 0.950 . S
C318 C319 1.443 . S
C318 N322 1.376 . S
C318 C356 1.389 . S
C319 C318 1.443 . S
C319 C320 1.340 . S
C319 H359 0.951 . S
C320 C319 1.340 . S
C320 C321 1.439 . S
C320 H360 0.950 . S
C321 C320 1.439 . S
C321 N322 1.374 . S
C321 C355 1.395 . S
N322 C318 1.376 . S
N322 C321 1.374 . S
N322 Co323 2.008 . S
Co323 N322 2.008 . S
Co323 N324 1.995 . S
Co323 N329 2.008 . S
Co323 N334 1.995 . S
Co323 N339 2.282 . S
Co323 N345 2.282 . S
N324 Co323 1.995 . S
N324 C325 1.376 . S
N324 C328 1.383 . S
C325 N324 1.376 . S
C325 C326 1.446 . S
C325 C355 1.391 . S
C326 C325 1.446 . S
C326 C327 1.339 . S
C326 H361 0.949 . S
C327 C326 1.339 . S
C327 C328 1.439 . S
C327 H362 0.950 . S
C328 N324 1.383 . S
C328 C327 1.439 . S
C328 C357 1.392 . S
N329 Co323 2.008 . S
N329 C330 1.376 . S
N329 C333 1.374 . S
C330 N329 1.376 . S
C330 C331 1.443 . S
C330 C357 1.389 . S
C331 C330 1.443 . S
C331 C332 1.340 . S
C331 H363 0.951 . S
C332 C331 1.340 . S
C332 C333 1.439 . S
C332 H364 0.950 . S
C333 N329 1.374 . S
C333 C332 1.439 . S
C333 C358 1.395 . S
N334 Co323 1.995 . S
N334 C335 1.376 . S
N334 C338 1.383 . S
C335 N334 1.376 . S
C335 C336 1.446 . S
C335 C358 1.391 . S
C336 C335 1.446 . S
C336 C337 1.339 . S
C336 H365 0.949 . S
C337 C336 1.339 . S
C337 C338 1.439 . S
C337 H366 0.950 . S
C338 N334 1.383 . S
C338 C337 1.439 . S
C338 C356 1.392 . S
N339 Co323 2.282 . S
N339 C342 1.332 . S
N339 C344 1.332 . S
C340 C341 1.386 . S
C340 C343 1.388 . S
C341 C340 1.386 . S
C341 C342 1.382 . S
C341 H367 0.950 . S
C342 N339 1.332 . S
C342 C341 1.382 . S
C342 H353 0.952 . S
C343 C340 1.388 . S
C343 C344 1.382 . S
C343 H368 0.950 . S
C344 N339 1.332 . S
C344 C343 1.382 . S
C344 H354 0.948 . S
N345 Co323 2.282 . S
N345 C349 1.332 . S
N345 C350 1.332 . S
C346 C347 1.388 . S
C346 C350 1.382 . S
C346 H369 0.950 . S
C347 C346 1.388 . S
C347 C348 1.386 . S
C348 C347 1.386 . S
C348 C349 1.382 . S
C348 H370 0.950 . S
C349 N345 1.332 . S
C349 C348 1.382 . S
C349 H351 0.952 . S
C350 N345 1.332 . S
C350 C346 1.382 . S
C350 H352 0.948 . S
H351 C349 0.952 . S
H352 C350 0.948 . S
H353 C342 0.952 . S
H354 C344 0.948 . S
C355 C321 1.395 . S
C355 C325 1.391 . S
C356 C318 1.389 . S
C356 C338 1.392 . S
C357 C328 1.392 . S
C357 C330 1.389 . S
C358 C333 1.395 . S
C358 C335 1.391 . S
H359 C319 0.951 . S
H360 C320 0.950 . S
H361 C326 0.949 . S
H362 C327 0.950 . S
H363 C331 0.951 . S
H364 C332 0.950 . S
H365 C336 0.949 . S
H366 C337 0.950 . S
H367 C341 0.950 . S
H368 C343 0.950 . S
H369 C346 0.950 . S
H370 C348 0.950 . S
C371 C372 1.443 . S
C371 N375 1.376 . S
C371 C409 1.389 . S
C372 C371 1.443 . S
C372 C373 1.340 . S
C372 H412 0.951 . S
C373 C372 1.340 . S
C373 C374 1.439 . S
C373 H413 0.950 . S
C374 C373 1.439 . S
C374 N375 1.374 . S
C374 C408 1.395 . S
N375 C371 1.376 . S
N375 C374 1.374 . S
N375 Co376 2.008 . S
Co376 N375 2.008 . S
Co376 N377 1.995 . S
Co376 N382 2.008 . S
Co376 N387 1.995 . S
Co376 N392 2.282 . S
Co376 N398 2.282 . S
N377 Co376 1.995 . S
N377 C378 1.376 . S
N377 C381 1.383 . S
C378 N377 1.376 . S
C378 C379 1.446 . S
C378 C408 1.391 . S
C379 C378 1.446 . S
C379 C380 1.339 . S
C379 H414 0.949 . S
C380 C379 1.339 . S
C380 C381 1.439 . S
C380 H415 0.950 . S
C381 N377 1.383 . S
C381 C380 1.439 . S
C381 C410 1.392 . S
N382 Co376 2.008 . S
N382 C383 1.376 . S
N382 C386 1.374 . S
C383 N382 1.376 . S
C383 C384 1.443 . S
C383 C410 1.389 . S
C384 C383 1.443 . S
C384 C385 1.340 . S
C384 H416 0.951 . S
C385 C384 1.340 . S
C385 C386 1.439 . S
C385 H417 0.950 . S
C386 N382 1.374 . S
C386 C385 1.439 . S
C386 C411 1.395 . S
N387 Co376 1.995 . S
N387 C388 1.376 . S
N387 C391 1.383 . S
C388 N387 1.376 . S
C388 C389 1.446 . S
C388 C411 1.391 . S
C389 C388 1.446 . S
C389 C390 1.339 . S
C389 H418 0.949 . S
C390 C389 1.339 . S
C390 C391 1.439 . S
C390 H419 0.950 . S
C391 N387 1.383 . S
C391 C390 1.439 . S
C391 C409 1.392 . S
N392 Co376 2.282 . S
N392 C395 1.332 . S
N392 C397 1.332 . S
C393 C394 1.386 . S
C393 C396 1.388 . S
C394 C393 1.386 . S
C394 C395 1.382 . S
C394 H420 0.950 . S
C395 N392 1.332 . S
C395 C394 1.382 . S
C395 H406 0.952 . S
C396 C393 1.388 . S
C396 C397 1.382 . S
C396 H421 0.950 . S
C397 N392 1.332 . S
C397 C396 1.382 . S
C397 H407 0.948 . S
N398 Co376 2.282 . S
N398 C402 1.332 . S
N398 C403 1.332 . S
C399 C400 1.388 . S
C399 C403 1.382 . S
C399 H422 0.950 . S
C400 C399 1.388 . S
C400 C401 1.386 . S
C401 C400 1.386 . S
C401 C402 1.382 . S
C401 H423 0.950 . S
C402 N398 1.332 . S
C402 C401 1.382 . S
C402 H404 0.952 . S
C403 N398 1.332 . S
C403 C399 1.382 . S
C403 H405 0.948 . S
H404 C402 0.952 . S
H405 C403 0.948 . S
H406 C395 0.952 . S
H407 C397 0.948 . S
C408 C374 1.395 . S
C408 C378 1.391 . S
C409 C371 1.389 . S
C409 C391 1.392 . S
C410 C381 1.392 . S
C410 C383 1.389 . S
C411 C386 1.395 . S
C411 C388 1.391 . S
H412 C372 0.951 . S
H413 C373 0.950 . S
H414 C379 0.949 . S
H415 C380 0.950 . S
H416 C384 0.951 . S
H417 C385 0.950 . S
H418 C389 0.949 . S
H419 C390 0.950 . S
H420 C394 0.950 . S
H421 C396 0.950 . S
H422 C399 0.950 . S
H423 C401 0.950 . S
C424 C425 1.443 . S
C424 N428 1.376 . S
C424 C462 1.389 . S
C425 C424 1.443 . S
C425 C426 1.340 . S
C425 H465 0.951 . S
C426 C425 1.340 . S
C426 C427 1.439 . S
C426 H466 0.950 . S
C427 C426 1.439 . S
C427 N428 1.374 . S
C427 C461 1.395 . S
N428 C424 1.376 . S
N428 C427 1.374 . S
N428 Co429 2.008 . S
Co429 N428 2.008 . S
Co429 N430 1.995 . S
Co429 N435 2.008 . S
Co429 N440 1.995 . S
Co429 N445 2.282 . S
Co429 N451 2.282 . S
N430 Co429 1.995 . S
N430 C431 1.376 . S
N430 C434 1.383 . S
C431 N430 1.376 . S
C431 C432 1.446 . S
C431 C461 1.391 . S
C432 C431 1.446 . S
C432 C433 1.339 . S
C432 H467 0.949 . S
C433 C432 1.339 . S
C433 C434 1.439 . S
C433 H468 0.950 . S
C434 N430 1.383 . S
C434 C433 1.439 . S
C434 C463 1.392 . S
N435 Co429 2.008 . S
N435 C436 1.376 . S
N435 C439 1.374 . S
C436 N435 1.376 . S
C436 C437 1.443 . S
C436 C463 1.389 . S
C437 C436 1.443 . S
C437 C438 1.340 . S
C437 H469 0.951 . S
C438 C437 1.340 . S
C438 C439 1.439 . S
C438 H470 0.950 . S
C439 N435 1.374 . S
C439 C438 1.439 . S
C439 C464 1.395 . S
N440 Co429 1.995 . S
N440 C441 1.376 . S
N440 C444 1.383 . S
C441 N440 1.376 . S
C441 C442 1.446 . S
C441 C464 1.391 . S
C442 C441 1.446 . S
C442 C443 1.339 . S
C442 H471 0.949 . S
C443 C442 1.339 . S
C443 C444 1.439 . S
C443 H472 0.950 . S
C444 N440 1.383 . S
C444 C443 1.439 . S
C444 C462 1.392 . S
N445 Co429 2.282 . S
N445 C448 1.332 . S
N445 C450 1.332 . S
C446 C447 1.386 . S
C446 C449 1.388 . S
C447 C446 1.386 . S
C447 C448 1.382 . S
C447 H473 0.950 . S
C448 N445 1.332 . S
C448 C447 1.382 . S
C448 H459 0.952 . S
C449 C446 1.388 . S
C449 C450 1.382 . S
C449 H474 0.950 . S
C450 N445 1.332 . S
C450 C449 1.382 . S
C450 H460 0.948 . S
N451 Co429 2.282 . S
N451 C455 1.332 . S
N451 C456 1.332 . S
C452 C453 1.388 . S
C452 C456 1.382 . S
C452 H475 0.950 . S
C453 C452 1.388 . S
C453 C454 1.386 . S
C454 C453 1.386 . S
C454 C455 1.382 . S
C454 H476 0.950 . S
C455 N451 1.332 . S
C455 C454 1.382 . S
C455 H457 0.952 . S
C456 N451 1.332 . S
C456 C452 1.382 . S
C456 H458 0.948 . S
H457 C455 0.952 . S
H458 C456 0.948 . S
H459 C448 0.952 . S
H460 C450 0.948 . S
C461 C427 1.395 . S
C461 C431 1.391 . S
C462 C424 1.389 . S
C462 C444 1.392 . S
C463 C434 1.392 . S
C463 C436 1.389 . S
C464 C439 1.395 . S
C464 C441 1.391 . S
H465 C425 0.951 . S
H466 C426 0.950 . S
H467 C432 0.949 . S
H468 C433 0.950 . S
H469 C437 0.951 . S
H470 C438 0.950 . S
H471 C442 0.949 . S
H472 C443 0.950 . S
H473 C447 0.950 . S
H474 C449 0.950 . S
H475 C452 0.950 . S
H476 C454 0.950 . S
C477 C478 1.443 . S
C477 N481 1.376 . S
C477 C515 1.389 . S
C478 C477 1.443 . S
C478 C479 1.340 . S
C478 H518 0.951 . S
C479 C478 1.340 . S
C479 C480 1.439 . S
C479 H519 0.950 . S
C480 C479 1.439 . S
C480 N481 1.374 . S
C480 C514 1.395 . S
N481 C477 1.376 . S
N481 C480 1.374 . S
N481 Co482 2.008 . S
Co482 N481 2.008 . S
Co482 N483 1.995 . S
Co482 N488 2.008 . S
Co482 N493 1.995 . S
Co482 N498 2.282 . S
Co482 N504 2.282 . S
N483 Co482 1.995 . S
N483 C484 1.376 . S
N483 C487 1.383 . S
C484 N483 1.376 . S
C484 C485 1.446 . S
C484 C514 1.391 . S
C485 C484 1.446 . S
C485 C486 1.339 . S
C485 H520 0.949 . S
C486 C485 1.339 . S
C486 C487 1.439 . S
C486 H521 0.950 . S
C487 N483 1.383 . S
C487 C486 1.439 . S
C487 C516 1.392 . S
N488 Co482 2.008 . S
N488 C489 1.376 . S
N488 C492 1.374 . S
C489 N488 1.376 . S
C489 C490 1.443 . S
C489 C516 1.389 . S
C490 C489 1.443 . S
C490 C491 1.340 . S
C490 H522 0.951 . S
C491 C490 1.340 . S
C491 C492 1.439 . S
C491 H523 0.950 . S
C492 N488 1.374 . S
C492 C491 1.439 . S
C492 C517 1.395 . S
N493 Co482 1.995 . S
N493 C494 1.376 . S
N493 C497 1.383 . S
C494 N493 1.376 . S
C494 C495 1.446 . S
C494 C517 1.391 . S
C495 C494 1.446 . S
C495 C496 1.339 . S
C495 H524 0.949 . S
C496 C495 1.339 . S
C496 C497 1.439 . S
C496 H525 0.950 . S
C497 N493 1.383 . S
C497 C496 1.439 . S
C497 C515 1.392 . S
N498 Co482 2.282 . S
N498 C501 1.332 . S
N498 C503 1.332 . S
C499 C500 1.386 . S
C499 C502 1.388 . S
C500 C499 1.386 . S
C500 C501 1.382 . S
C500 H526 0.950 . S
C501 N498 1.332 . S
C501 C500 1.382 . S
C501 H512 0.952 . S
C502 C499 1.388 . S
C502 C503 1.382 . S
C502 H527 0.950 . S
C503 N498 1.332 . S
C503 C502 1.382 . S
C503 H513 0.948 . S
N504 Co482 2.282 . S
N504 C508 1.332 . S
N504 C509 1.332 . S
C505 C506 1.388 . S
C505 C509 1.382 . S
C505 H528 0.950 . S
C506 C505 1.388 . S
C506 C507 1.386 . S
C507 C506 1.386 . S
C507 C508 1.382 . S
C507 H529 0.950 . S
C508 N504 1.332 . S
C508 C507 1.382 . S
C508 H510 0.952 . S
C509 N504 1.332 . S
C509 C505 1.382 . S
C509 H511 0.948 . S
H510 C508 0.952 . S
H511 C509 0.948 . S
H512 C501 0.952 . S
H513 C503 0.948 . S
C514 C480 1.395 . S
C514 C484 1.391 . S
C515 C477 1.389 . S
C515 C497 1.392 . S
C516 C487 1.392 . S
C516 C489 1.389 . S
C517 C492 1.395 . S
C517 C494 1.391 . S
H518 C478 0.951 . S
H519 C479 0.950 . S
H520 C485 0.949 . S
H521 C486 0.950 . S
H522 C490 0.951 . S
H523 C491 0.950 . S
H524 C495 0.949 . S
H525 C496 0.950 . S
H526 C500 0.950 . S
H527 C502 0.950 . S
H528 C505 0.950 . S
H529 C507 0.950 . S
C530 C531 1.443 . S
C530 N534 1.376 . S
C530 C568 1.389 . S
C531 C530 1.443 . S
C531 C532 1.340 . S
C531 H571 0.951 . S
C532 C531 1.340 . S
C532 C533 1.439 . S
C532 H572 0.950 . S
C533 C532 1.439 . S
C533 N534 1.374 . S
C533 C567 1.395 . S
N534 C530 1.376 . S
N534 C533 1.374 . S
N534 Co535 2.008 . S
Co535 N534 2.008 . S
Co535 N536 1.995 . S
Co535 N541 2.008 . S
Co535 N546 1.995 . S
Co535 N551 2.282 . S
Co535 N557 2.282 . S
N536 Co535 1.995 . S
N536 C537 1.376 . S
N536 C540 1.383 . S
C537 N536 1.376 . S
C537 C538 1.446 . S
C537 C567 1.391 . S
C538 C537 1.446 . S
C538 C539 1.339 . S
C538 H573 0.949 . S
C539 C538 1.339 . S
C539 C540 1.439 . S
C539 H574 0.950 . S
C540 N536 1.383 . S
C540 C539 1.439 . S
C540 C569 1.392 . S
N541 Co535 2.008 . S
N541 C542 1.376 . S
N541 C545 1.374 . S
C542 N541 1.376 . S
C542 C543 1.443 . S
C542 C569 1.389 . S
C543 C542 1.443 . S
C543 C544 1.340 . S
C543 H575 0.951 . S
C544 C543 1.340 . S
C544 C545 1.439 . S
C544 H576 0.950 . S
C545 N541 1.374 . S
C545 C544 1.439 . S
C545 C570 1.395 . S
N546 Co535 1.995 . S
N546 C547 1.376 . S
N546 C550 1.383 . S
C547 N546 1.376 . S
C547 C548 1.446 . S
C547 C570 1.391 . S
C548 C547 1.446 . S
C548 C549 1.339 . S
C548 H577 0.949 . S
C549 C548 1.339 . S
C549 C550 1.439 . S
C549 H578 0.950 . S
C550 N546 1.383 . S
C550 C549 1.439 . S
C550 C568 1.392 . S
N551 Co535 2.282 . S
N551 C554 1.332 . S
N551 C556 1.332 . S
C552 C553 1.386 . S
C552 C555 1.388 . S
C553 C552 1.386 . S
C553 C554 1.382 . S
C553 H579 0.950 . S
C554 N551 1.332 . S
C554 C553 1.382 . S
C554 H565 0.952 . S
C555 C552 1.388 . S
C555 C556 1.382 . S
C555 H580 0.950 . S
C556 N551 1.332 . S
C556 C555 1.382 . S
C556 H566 0.948 . S
N557 Co535 2.282 . S
N557 C561 1.332 . S
N557 C562 1.332 . S
C558 C559 1.388 . S
C558 C562 1.382 . S
C558 H581 0.950 . S
C559 C558 1.388 . S
C559 C560 1.386 . S
C560 C559 1.386 . S
C560 C561 1.382 . S
C560 H582 0.950 . S
C561 N557 1.332 . S
C561 C560 1.382 . S
C561 H563 0.952 . S
C562 N557 1.332 . S
C562 C558 1.382 . S
C562 H564 0.948 . S
H563 C561 0.952 . S
H564 C562 0.948 . S
H565 C554 0.952 . S
H566 C556 0.948 . S
C567 C533 1.395 . S
C567 C537 1.391 . S
C568 C530 1.389 . S
C568 C550 1.392 . S
C569 C540 1.392 . S
C569 C542 1.389 . S
C570 C545 1.395 . S
C570 C547 1.391 . S
H571 C531 0.951 . S
H572 C532 0.950 . S
H573 C538 0.949 . S
H574 C539 0.950 . S
H575 C543 0.951 . S
H576 C544 0.950 . S
H577 C548 0.949 . S
H578 C549 0.950 . S
H579 C553 0.950 . S
H580 C555 0.950 . S
H581 C558 0.950 . S
H582 C560 0.950 . S
C583 C584 1.443 . S
C583 N587 1.376 . S
C583 C621 1.389 . S
C584 C583 1.443 . S
C584 C585 1.340 . S
C584 H624 0.951 . S
C585 C584 1.340 . S
C585 C586 1.439 . S
C585 H625 0.950 . S
C586 C585 1.439 . S
C586 N587 1.374 . S
C586 C620 1.395 . S
N587 C583 1.376 . S
N587 C586 1.374 . S
N587 Co588 2.008 . S
Co588 N587 2.008 . S
Co588 N589 1.995 . S
Co588 N594 2.008 . S
Co588 N599 1.995 . S
Co588 N604 2.282 . S
Co588 N610 2.282 . S
N589 Co588 1.995 . S
N589 C590 1.376 . S
N589 C593 1.383 . S
C590 N589 1.376 . S
C590 C591 1.446 . S
C590 C620 1.391 . S
C591 C590 1.446 . S
C591 C592 1.339 . S
C591 H626 0.949 . S
C592 C591 1.339 . S
C592 C593 1.439 . S
C592 H627 0.950 . S
C593 N589 1.383 . S
C593 C592 1.439 . S
C593 C622 1.392 . S
N594 Co588 2.008 . S
N594 C595 1.376 . S
N594 C598 1.374 . S
C595 N594 1.376 . S
C595 C596 1.443 . S
C595 C622 1.389 . S
C596 C595 1.443 . S
C596 C597 1.340 . S
C596 H628 0.951 . S
C597 C596 1.340 . S
C597 C598 1.439 . S
C597 H629 0.950 . S
C598 N594 1.374 . S
C598 C597 1.439 . S
C598 C623 1.395 . S
N599 Co588 1.995 . S
N599 C600 1.376 . S
N599 C603 1.383 . S
C600 N599 1.376 . S
C600 C601 1.446 . S
C600 C623 1.391 . S
C601 C600 1.446 . S
C601 C602 1.339 . S
C601 H630 0.949 . S
C602 C601 1.339 . S
C602 C603 1.439 . S
C602 H631 0.950 . S
C603 N599 1.383 . S
C603 C602 1.439 . S
C603 C621 1.392 . S
N604 Co588 2.282 . S
N604 C607 1.332 . S
N604 C609 1.332 . S
C605 C606 1.386 . S
C605 C608 1.388 . S
C606 C605 1.386 . S
C606 C607 1.382 . S
C606 H632 0.950 . S
C607 N604 1.332 . S
C607 C606 1.382 . S
C607 H618 0.952 . S
C608 C605 1.388 . S
C608 C609 1.382 . S
C608 H633 0.950 . S
C609 N604 1.332 . S
C609 C608 1.382 . S
C609 H619 0.948 . S
N610 Co588 2.282 . S
N610 C614 1.332 . S
N610 C615 1.332 . S
C611 C612 1.388 . S
C611 C615 1.382 . S
C611 H634 0.950 . S
C612 C611 1.388 . S
C612 C613 1.386 . S
C613 C612 1.386 . S
C613 C614 1.382 . S
C613 H635 0.950 . S
C614 N610 1.332 . S
C614 C613 1.382 . S
C614 H616 0.952 . S
C615 N610 1.332 . S
C615 C611 1.382 . S
C615 H617 0.948 . S
H616 C614 0.952 . S
H617 C615 0.948 . S
H618 C607 0.952 . S
H619 C609 0.948 . S
C620 C586 1.395 . S
C620 C590 1.391 . S
C621 C583 1.389 . S
C621 C603 1.392 . S
C622 C593 1.392 . S
C622 C595 1.389 . S
C623 C598 1.395 . S
C623 C600 1.391 . S
H624 C584 0.951 . S
H625 C585 0.950 . S
H626 C591 0.949 . S
H627 C592 0.950 . S
H628 C596 0.951 . S
H629 C597 0.950 . S
H630 C601 0.949 . S
H631 C602 0.950 . S
H632 C606 0.950 . S
H633 C608 0.950 . S
H634 C611 0.950 . S
H635 C613 0.950 . S
C636 C637 1.443 . S
C636 N640 1.376 . S
C636 C674 1.389 . S
C637 C636 1.443 . S
C637 C638 1.340 . S
C637 H677 0.951 . S
C638 C637 1.340 . S
C638 C639 1.439 . S
C638 H678 0.950 . S
C639 C638 1.439 . S
C639 N640 1.374 . S
C639 C673 1.395 . S
N640 C636 1.376 . S
N640 C639 1.374 . S
N640 Co641 2.008 . S
Co641 N640 2.008 . S
Co641 N642 1.995 . S
Co641 N647 2.008 . S
Co641 N652 1.995 . S
Co641 N657 2.282 . S
Co641 N663 2.282 . S
N642 Co641 1.995 . S
N642 C643 1.376 . S
N642 C646 1.383 . S
C643 N642 1.376 . S
C643 C644 1.446 . S
C643 C673 1.391 . S
C644 C643 1.446 . S
C644 C645 1.339 . S
C644 H679 0.949 . S
C645 C644 1.339 . S
C645 C646 1.439 . S
C645 H680 0.950 . S
C646 N642 1.383 . S
C646 C645 1.439 . S
C646 C675 1.392 . S
N647 Co641 2.008 . S
N647 C648 1.376 . S
N647 C651 1.374 . S
C648 N647 1.376 . S
C648 C649 1.443 . S
C648 C675 1.389 . S
C649 C648 1.443 . S
C649 C650 1.340 . S
C649 H681 0.951 . S
C650 C649 1.340 . S
C650 C651 1.439 . S
C650 H682 0.950 . S
C651 N647 1.374 . S
C651 C650 1.439 . S
C651 C676 1.395 . S
N652 Co641 1.995 . S
N652 C653 1.376 . S
N652 C656 1.383 . S
C653 N652 1.376 . S
C653 C654 1.446 . S
C653 C676 1.391 . S
C654 C653 1.446 . S
C654 C655 1.339 . S
C654 H683 0.949 . S
C655 C654 1.339 . S
C655 C656 1.439 . S
C655 H684 0.950 . S
C656 N652 1.383 . S
C656 C655 1.439 . S
C656 C674 1.392 . S
N657 Co641 2.282 . S
N657 C660 1.332 . S
N657 C662 1.332 . S
C658 C659 1.386 . S
C658 C661 1.388 . S
C659 C658 1.386 . S
C659 C660 1.382 . S
C659 H685 0.950 . S
C660 N657 1.332 . S
C660 C659 1.382 . S
C660 H671 0.952 . S
C661 C658 1.388 . S
C661 C662 1.382 . S
C661 H686 0.950 . S
C662 N657 1.332 . S
C662 C661 1.382 . S
C662 H672 0.948 . S
N663 Co641 2.282 . S
N663 C667 1.332 . S
N663 C668 1.332 . S
C664 C665 1.388 . S
C664 C668 1.382 . S
C664 H687 0.950 . S
C665 C664 1.388 . S
C665 C666 1.386 . S
C666 C665 1.386 . S
C666 C667 1.382 . S
C666 H688 0.950 . S
C667 N663 1.332 . S
C667 C666 1.382 . S
C667 H669 0.952 . S
C668 N663 1.332 . S
C668 C664 1.382 . S
C668 H670 0.948 . S
H669 C667 0.952 . S
H670 C668 0.948 . S
H671 C660 0.952 . S
H672 C662 0.948 . S
C673 C639 1.395 . S
C673 C643 1.391 . S
C674 C636 1.389 . S
C674 C656 1.392 . S
C675 C646 1.392 . S
C675 C648 1.389 . S
C676 C651 1.395 . S
C676 C653 1.391 . S
H677 C637 0.951 . S
H678 C638 0.950 . S
H679 C644 0.949 . S
H680 C645 0.950 . S
H681 C649 0.951 . S
H682 C650 0.950 . S
H683 C654 0.949 . S
H684 C655 0.950 . S
H685 C659 0.950 . S
H686 C661 0.950 . S
H687 C664 0.950 . S
H688 C666 0.950 . S
C689 C690 1.443 . S
C689 N693 1.376 . S
C689 C727 1.389 . S
C690 C689 1.443 . S
C690 C691 1.340 . S
C690 H730 0.951 . S
C691 C690 1.340 . S
C691 C692 1.439 . S
C691 H731 0.950 . S
C692 C691 1.439 . S
C692 N693 1.374 . S
C692 C726 1.395 . S
N693 C689 1.376 . S
N693 C692 1.374 . S
N693 Co694 2.008 . S
Co694 N693 2.008 . S
Co694 N695 1.995 . S
Co694 N700 2.008 . S
Co694 N705 1.995 . S
Co694 N710 2.282 . S
Co694 N716 2.282 . S
N695 Co694 1.995 . S
N695 C696 1.376 . S
N695 C699 1.383 . S
C696 N695 1.376 . S
C696 C697 1.446 . S
C696 C726 1.391 . S
C697 C696 1.446 . S
C697 C698 1.339 . S
C697 H732 0.949 . S
C698 C697 1.339 . S
C698 C699 1.439 . S
C698 H733 0.950 . S
C699 N695 1.383 . S
C699 C698 1.439 . S
C699 C728 1.392 . S
N700 Co694 2.008 . S
N700 C701 1.376 . S
N700 C704 1.374 . S
C701 N700 1.376 . S
C701 C702 1.443 . S
C701 C728 1.389 . S
C702 C701 1.443 . S
C702 C703 1.340 . S
C702 H734 0.951 . S
C703 C702 1.340 . S
C703 C704 1.439 . S
C703 H735 0.950 . S
C704 N700 1.374 . S
C704 C703 1.439 . S
C704 C729 1.395 . S
N705 Co694 1.995 . S
N705 C706 1.376 . S
N705 C709 1.383 . S
C706 N705 1.376 . S
C706 C707 1.446 . S
C706 C729 1.391 . S
C707 C706 1.446 . S
C707 C708 1.339 . S
C707 H736 0.949 . S
C708 C707 1.339 . S
C708 C709 1.439 . S
C708 H737 0.950 . S
C709 N705 1.383 . S
C709 C708 1.439 . S
C709 C727 1.392 . S
N710 Co694 2.282 . S
N710 C713 1.332 . S
N710 C715 1.332 . S
C711 C712 1.386 . S
C711 C714 1.388 . S
C712 C711 1.386 . S
C712 C713 1.382 . S
C712 H738 0.950 . S
C713 N710 1.332 . S
C713 C712 1.382 . S
C713 H724 0.952 . S
C714 C711 1.388 . S
C714 C715 1.382 . S
C714 H739 0.950 . S
C715 N710 1.332 . S
C715 C714 1.382 . S
C715 H725 0.948 . S
N716 Co694 2.282 . S
N716 C720 1.332 . S
N716 C721 1.332 . S
C717 C718 1.388 . S
C717 C721 1.382 . S
C717 H740 0.950 . S
C718 C717 1.388 . S
C718 C719 1.386 . S
C719 C718 1.386 . S
C719 C720 1.382 . S
C719 H741 0.950 . S
C720 N716 1.332 . S
C720 C719 1.382 . S
C720 H722 0.952 . S
C721 N716 1.332 . S
C721 C717 1.382 . S
C721 H723 0.948 . S
H722 C720 0.952 . S
H723 C721 0.948 . S
H724 C713 0.952 . S
H725 C715 0.948 . S
C726 C692 1.395 . S
C726 C696 1.391 . S
C727 C689 1.389 . S
C727 C709 1.392 . S
C728 C699 1.392 . S
C728 C701 1.389 . S
C729 C704 1.395 . S
C729 C706 1.391 . S
H730 C690 0.951 . S
H731 C691 0.950 . S
H732 C697 0.949 . S
H733 C698 0.950 . S
H734 C702 0.951 . S
H735 C703 0.950 . S
H736 C707 0.949 . S
H737 C708 0.950 . S
H738 C712 0.950 . S
H739 C714 0.950 . S
H740 C717 0.950 . S
H741 C719 0.950 . S
C742 C743 1.443 . S
C742 N746 1.376 . S
C742 C780 1.389 . S
C743 C742 1.443 . S
C743 C744 1.340 . S
C743 H783 0.951 . S
C744 C743 1.340 . S
C744 C745 1.439 . S
C744 H784 0.950 . S
C745 C744 1.439 . S
C745 N746 1.374 . S
C745 C779 1.395 . S
N746 C742 1.376 . S
N746 C745 1.374 . S
N746 Co747 2.008 . S
Co747 N746 2.008 . S
Co747 N748 1.995 . S
Co747 N753 2.008 . S
Co747 N758 1.995 . S
Co747 N763 2.282 . S
Co747 N769 2.282 . S
N748 Co747 1.995 . S
N748 C749 1.376 . S
N748 C752 1.383 . S
C749 N748 1.376 . S
C749 C750 1.446 . S
C749 C779 1.391 . S
C750 C749 1.446 . S
C750 C751 1.339 . S
C750 H785 0.949 . S
C751 C750 1.339 . S
C751 C752 1.439 . S
C751 H786 0.950 . S
C752 N748 1.383 . S
C752 C751 1.439 . S
C752 C781 1.392 . S
N753 Co747 2.008 . S
N753 C754 1.376 . S
N753 C757 1.374 . S
C754 N753 1.376 . S
C754 C755 1.443 . S
C754 C781 1.389 . S
C755 C754 1.443 . S
C755 C756 1.340 . S
C755 H787 0.951 . S
C756 C755 1.340 . S
C756 C757 1.439 . S
C756 H788 0.950 . S
C757 N753 1.374 . S
C757 C756 1.439 . S
C757 C782 1.395 . S
N758 Co747 1.995 . S
N758 C759 1.376 . S
N758 C762 1.383 . S
C759 N758 1.376 . S
C759 C760 1.446 . S
C759 C782 1.391 . S
C760 C759 1.446 . S
C760 C761 1.339 . S
C760 H789 0.949 . S
C761 C760 1.339 . S
C761 C762 1.439 . S
C761 H790 0.950 . S
C762 N758 1.383 . S
C762 C761 1.439 . S
C762 C780 1.392 . S
N763 Co747 2.282 . S
N763 C766 1.332 . S
N763 C768 1.332 . S
C764 C765 1.386 . S
C764 C767 1.388 . S
C765 C764 1.386 . S
C765 C766 1.382 . S
C765 H791 0.950 . S
C766 N763 1.332 . S
C766 C765 1.382 . S
C766 H777 0.952 . S
C767 C764 1.388 . S
C767 C768 1.382 . S
C767 H792 0.950 . S
C768 N763 1.332 . S
C768 C767 1.382 . S
C768 H778 0.948 . S
N769 Co747 2.282 . S
N769 C773 1.332 . S
N769 C774 1.332 . S
C770 C771 1.388 . S
C770 C774 1.382 . S
C770 H793 0.950 . S
C771 C770 1.388 . S
C771 C772 1.386 . S
C772 C771 1.386 . S
C772 C773 1.382 . S
C772 H794 0.950 . S
C773 N769 1.332 . S
C773 C772 1.382 . S
C773 H775 0.952 . S
C774 N769 1.332 . S
C774 C770 1.382 . S
C774 H776 0.948 . S
H775 C773 0.952 . S
H776 C774 0.948 . S
H777 C766 0.952 . S
H778 C768 0.948 . S
C779 C745 1.395 . S
C779 C749 1.391 . S
C780 C742 1.389 . S
C780 C762 1.392 . S
C781 C752 1.392 . S
C781 C754 1.389 . S
C782 C757 1.395 . S
C782 C759 1.391 . S
H783 C743 0.951 . S
H784 C744 0.950 . S
H785 C750 0.949 . S
H786 C751 0.950 . S
H787 C755 0.951 . S
H788 C756 0.950 . S
H789 C760 0.949 . S
H790 C761 0.950 . S
H791 C765 0.950 . S
H792 C767 0.950 . S
H793 C770 0.950 . S
H794 C772 0.950 . S
C795 C796 1.443 . S
C795 N799 1.376 . S
C795 C833 1.389 . S
C796 C795 1.443 . S
C796 C797 1.340 . S
C796 H836 0.951 . S
C797 C796 1.340 . S
C797 C798 1.439 . S
C797 H837 0.950 . S
C798 C797 1.439 . S
C798 N799 1.374 . S
C798 C832 1.395 . S
N799 C795 1.376 . S
N799 C798 1.374 . S
N799 Co800 2.008 . S
Co800 N799 2.008 . S
Co800 N801 1.995 . S
Co800 N806 2.008 . S
Co800 N811 1.995 . S
Co800 N816 2.282 . S
Co800 N822 2.282 . S
N801 Co800 1.995 . S
N801 C802 1.376 . S
N801 C805 1.383 . S
C802 N801 1.376 . S
C802 C803 1.446 . S
C802 C832 1.391 . S
C803 C802 1.446 . S
C803 C804 1.339 . S
C803 H838 0.949 . S
C804 C803 1.339 . S
C804 C805 1.439 . S
C804 H839 0.950 . S
C805 N801 1.383 . S
C805 C804 1.439 . S
C805 C834 1.392 . S
N806 Co800 2.008 . S
N806 C807 1.376 . S
N806 C810 1.374 . S
C807 N806 1.376 . S
C807 C808 1.443 . S
C807 C834 1.389 . S
C808 C807 1.443 . S
C808 C809 1.340 . S
C808 H840 0.951 . S
C809 C808 1.340 . S
C809 C810 1.439 . S
C809 H841 0.950 . S
C810 N806 1.374 . S
C810 C809 1.439 . S
C810 C835 1.395 . S
N811 Co800 1.995 . S
N811 C812 1.376 . S
N811 C815 1.383 . S
C812 N811 1.376 . S
C812 C813 1.446 . S
C812 C835 1.391 . S
C813 C812 1.446 . S
C813 C814 1.339 . S
C813 H842 0.949 . S
C814 C813 1.339 . S
C814 C815 1.439 . S
C814 H843 0.950 . S
C815 N811 1.383 . S
C815 C814 1.439 . S
C815 C833 1.392 . S
N816 Co800 2.282 . S
N816 C819 1.332 . S
N816 C821 1.332 . S
C817 C818 1.386 . S
C817 C820 1.388 . S
C818 C817 1.386 . S
C818 C819 1.382 . S
C818 H844 0.950 . S
C819 N816 1.332 . S
C819 C818 1.382 . S
C819 H830 0.952 . S
C820 C817 1.388 . S
C820 C821 1.382 . S
C820 H845 0.950 . S
C821 N816 1.332 . S
C821 C820 1.382 . S
C821 H831 0.948 . S
N822 Co800 2.282 . S
N822 C826 1.332 . S
N822 C827 1.332 . S
C823 C824 1.388 . S
C823 C827 1.382 . S
C823 H846 0.950 . S
C824 C823 1.388 . S
C824 C825 1.386 . S
C825 C824 1.386 . S
C825 C826 1.382 . S
C825 H847 0.950 . S
C826 N822 1.332 . S
C826 C825 1.382 . S
C826 H828 0.952 . S
C827 N822 1.332 . S
C827 C823 1.382 . S
C827 H829 0.948 . S
H828 C826 0.952 . S
H829 C827 0.948 . S
H830 C819 0.952 . S
H831 C821 0.948 . S
C832 C798 1.395 . S
C832 C802 1.391 . S
C833 C795 1.389 . S
C833 C815 1.392 . S
C834 C805 1.392 . S
C834 C807 1.389 . S
C835 C810 1.395 . S
C835 C812 1.391 . S
H836 C796 0.951 . S
H837 C797 0.950 . S
H838 C803 0.949 . S
H839 C804 0.950 . S
H840 C808 0.951 . S
H841 C809 0.950 . S
H842 C813 0.949 . S
H843 C814 0.950 . S
H844 C818 0.950 . S
H845 C820 0.950 . S
H846 C823 0.950 . S
H847 C825 0.950 . S
H848 C854 0.930 . S
H849 C858 0.930 . S
H850 C863 0.929 . S
H851 C861 0.929 . S
H852 C856 0.929 . S
H853 C862 0.929 . S
C854 H848 0.930 . S
C854 C855 1.367 . S
C854 C862 1.378 . S
C855 C854 1.367 . S
C855 C863 1.433 . S
C856 H852 0.929 . S
C856 C858 1.378 . S
C856 C860 1.350 . S
C857 C860 1.463 . S
C857 C862 1.350 . S
C857 N865 1.427 . S
C858 H849 0.930 . S
C858 C856 1.378 . S
C858 C859 1.367 . S
C859 C858 1.367 . S
C859 C861 1.433 . S
C860 C856 1.350 . S
C860 C857 1.463 . S
C860 N864 1.427 . S
C861 H851 0.929 . S
C861 C859 1.433 . S
C861 N864 1.384 . S
C862 H853 0.929 . S
C862 C854 1.378 . S
C862 C857 1.350 . S
C863 H850 0.929 . S
C863 C855 1.433 . S
C863 N865 1.384 . S
N864 C860 1.427 . S
N864 C861 1.384 . S
N865 C857 1.427 . S
N865 C863 1.384 . S
H866 C872 0.930 . S
H867 C876 0.930 . S
H868 C881 0.929 . S
H869 C879 0.929 . S
H870 C874 0.929 . S
H871 C880 0.929 . S
C872 H866 0.930 . S
C872 C873 1.367 . S
C872 C880 1.378 . S
C873 C872 1.367 . S
C873 C881 1.433 . S
C874 H870 0.929 . S
C874 C876 1.378 . S
C874 C878 1.350 . S
C875 C878 1.463 . S
C875 C880 1.350 . S
C875 N883 1.427 . S
C876 H867 0.930 . S
C876 C874 1.378 . S
C876 C877 1.367 . S
C877 C876 1.367 . S
C877 C879 1.433 . S
C878 C874 1.350 . S
C878 C875 1.463 . S
C878 N882 1.427 . S
C879 H869 0.929 . S
C879 C877 1.433 . S
C879 N882 1.384 . S
C880 H871 0.929 . S
C880 C872 1.378 . S
C880 C875 1.350 . S
C881 H868 0.929 . S
C881 C873 1.433 . S
C881 N883 1.384 . S
N882 C878 1.427 . S
N882 C879 1.384 . S
N883 C875 1.427 . S
N883 C881 1.384 . S
H884 C890 0.930 . S
H885 C894 0.930 . S
H886 C899 0.929 . S
H887 C897 0.929 . S
H888 C892 0.929 . S
H889 C898 0.929 . S
C890 H884 0.930 . S
C890 C891 1.367 . S
C890 C898 1.378 . S
C891 C890 1.367 . S
C891 C899 1.433 . S
C892 H888 0.929 . S
C892 C894 1.378 . S
C892 C896 1.350 . S
C893 C896 1.463 1_554 S
C893 C898 1.350 . S
C893 N901 1.427 . S
C894 H885 0.930 . S
C894 C892 1.378 . S
C894 C895 1.367 . S
C895 C894 1.367 . S
C895 C897 1.433 . S
C896 C892 1.350 . S
C896 C893 1.463 1_556 S
C896 N900 1.427 . S
C897 H887 0.929 . S
C897 C895 1.433 . S
C897 N900 1.384 . S
C898 H889 0.929 . S
C898 C890 1.378 . S
C898 C893 1.350 . S
C899 H886 0.929 . S
C899 C891 1.433 . S
C899 N901 1.384 . S
N900 C896 1.427 . S
N900 C897 1.384 . S
N901 C893 1.427 . S
N901 C899 1.384 . S
H902 C908 0.930 . S
H903 C912 0.930 . S
H904 C917 0.929 . S
H905 C915 0.929 . S
H906 C910 0.929 . S
H907 C916 0.929 . S
C908 H902 0.930 . S
C908 C909 1.367 . S
C908 C916 1.378 . S
C909 C908 1.367 . S
C909 C917 1.433 . S
C910 H906 0.929 . S
C910 C912 1.378 . S
C910 C914 1.350 . S
C911 C914 1.463 1_556 S
C911 C916 1.350 . S
C911 N919 1.427 . S
C912 H903 0.930 . S
C912 C910 1.378 . S
C912 C913 1.367 . S
C913 C912 1.367 . S
C913 C915 1.433 . S
C914 C910 1.350 . S
C914 C911 1.463 1_554 S
C914 N918 1.427 . S
C915 H905 0.929 . S
C915 C913 1.433 . S
C915 N918 1.384 . S
C916 H907 0.929 . S
C916 C908 1.378 . S
C916 C911 1.350 . S
C917 H904 0.929 . S
C917 C909 1.433 . S
C917 N919 1.384 . S
N918 C914 1.427 . S
N918 C915 1.384 . S
N919 C911 1.427 . S
N919 C917 1.384 . S
H920 C926 0.930 . S
H921 C930 0.930 . S
H922 C935 0.929 . S
H923 C933 0.929 . S
H924 C928 0.929 . S
H925 C934 0.929 . S
C926 H920 0.930 . S
C926 C927 1.367 . S
C926 C934 1.378 . S
C927 C926 1.367 . S
C927 C935 1.433 . S
C928 H924 0.929 . S
C928 C930 1.378 . S
C928 C932 1.350 . S
C929 C932 1.463 . S
C929 C934 1.350 . S
C929 N937 1.427 . S
C930 H921 0.930 . S
C930 C928 1.378 . S
C930 C931 1.367 . S
C931 C930 1.367 . S
C931 C933 1.433 . S
C932 C928 1.350 . S
C932 C929 1.463 . S
C932 N936 1.427 . S
C933 H923 0.929 . S
C933 C931 1.433 . S
C933 N936 1.384 . S
C934 H925 0.929 . S
C934 C926 1.378 . S
C934 C929 1.350 . S
C935 H922 0.929 . S
C935 C927 1.433 . S
C935 N937 1.384 . S
N936 C932 1.427 . S
N936 C933 1.384 . S
N937 C929 1.427 . S
N937 C935 1.384 . S
H938 C944 0.930 . S
H939 C948 0.930 . S
H940 C953 0.929 . S
H941 C951 0.929 . S
H942 C946 0.929 . S
H943 C952 0.929 . S
C944 H938 0.930 . S
C944 C945 1.367 . S
C944 C952 1.378 . S
C945 C944 1.367 . S
C945 C953 1.433 . S
C946 H942 0.929 . S
C946 C948 1.378 . S
C946 C950 1.350 . S
C947 C950 1.463 . S
C947 C952 1.350 . S
C947 N955 1.427 . S
C948 H939 0.930 . S
C948 C946 1.378 . S
C948 C949 1.367 . S
C949 C948 1.367 . S
C949 C951 1.433 . S
C950 C946 1.350 . S
C950 C947 1.463 . S
C950 N954 1.427 . S
C951 H941 0.929 . S
C951 C949 1.433 . S
C951 N954 1.384 . S
C952 H943 0.929 . S
C952 C944 1.378 . S
C952 C947 1.350 . S
C953 H940 0.929 . S
C953 C945 1.433 . S
C953 N955 1.384 . S
N954 C950 1.427 . S
N954 C951 1.384 . S
N955 C947 1.427 . S
N955 C953 1.384 . S
H956 C962 0.930 . S
H957 C966 0.930 . S
H958 C971 0.929 . S
H959 C969 0.929 . S
H960 C964 0.929 . S
H961 C970 0.929 . S
C962 H956 0.930 . S
C962 C963 1.367 . S
C962 C970 1.378 . S
C963 C962 1.367 . S
C963 C971 1.433 . S
C964 H960 0.929 . S
C964 C966 1.378 . S
C964 C968 1.350 . S
C965 C968 1.463 1_556 S
C965 C970 1.350 . S
C965 N973 1.427 . S
C966 H957 0.930 . S
C966 C964 1.378 . S
C966 C967 1.367 . S
C967 C966 1.367 . S
C967 C969 1.433 . S
C968 C964 1.350 . S
C968 C965 1.463 1_554 S
C968 N972 1.427 . S
C969 H959 0.929 . S
C969 C967 1.433 . S
C969 N972 1.384 . S
C970 H961 0.929 . S
C970 C962 1.378 . S
C970 C965 1.350 . S
C971 H958 0.929 . S
C971 C963 1.433 . S
C971 N973 1.384 . S
N972 C968 1.427 . S
N972 C969 1.384 . S
N973 C965 1.427 . S
N973 C971 1.384 . S
H974 C980 0.930 . S
H975 C984 0.930 . S
H976 C989 0.929 . S
H977 C987 0.929 . S
H978 C982 0.929 . S
H979 C988 0.929 . S
C980 H974 0.930 . S
C980 C981 1.367 . S
C980 C988 1.378 . S
C981 C980 1.367 . S
C981 C989 1.433 . S
C982 H978 0.929 . S
C982 C984 1.378 . S
C982 C986 1.350 . S
C983 C986 1.463 1_554 S
C983 C988 1.350 . S
C983 N991 1.427 . S
C984 H975 0.930 . S
C984 C982 1.378 . S
C984 C985 1.367 . S
C985 C984 1.367 . S
C985 C987 1.433 . S
C986 C982 1.350 . S
C986 C983 1.463 1_556 S
C986 N990 1.427 . S
C987 H977 0.929 . S
C987 C985 1.433 . S
C987 N990 1.384 . S
C988 H979 0.929 . S
C988 C980 1.378 . S
C988 C983 1.350 . S
C989 H976 0.929 . S
C989 C981 1.433 . S
C989 N991 1.384 . S
N990 C986 1.427 . S
N990 C987 1.384 . S
N991 C983 1.427 . S
N991 C989 1.384 . S
H992 C998 0.930 . S
H993 C1002 0.930 . S
H994 C1007 0.929 . S
H995 C1005 0.929 . S
H996 C1000 0.929 . S
H997 C1006 0.929 . S
C998 H992 0.930 . S
C998 C999 1.367 . S
C998 C1006 1.378 . S
C999 C998 1.367 . S
C999 C1007 1.433 . S
C1000 H996 0.929 . S
C1000 C1002 1.378 . S
C1000 C1004 1.350 . S
C1001 C1004 1.463 1_565 S
C1001 C1006 1.350 . S
C1001 N1009 1.427 . S
C1002 H993 0.930 . S
C1002 C1000 1.378 . S
C1002 C1003 1.367 . S
C1003 C1002 1.367 . S
C1003 C1005 1.433 . S
C1004 C1000 1.350 . S
C1004 C1001 1.463 1_545 S
C1004 N1008 1.427 . S
C1005 H995 0.929 . S
C1005 C1003 1.433 . S
C1005 N1008 1.384 . S
C1006 H997 0.929 . S
C1006 C998 1.378 . S
C1006 C1001 1.350 . S
C1007 H994 0.929 . S
C1007 C999 1.433 . S
C1007 N1009 1.384 . S
N1008 C1004 1.427 . S
N1008 C1005 1.384 . S
N1009 C1001 1.427 . S
N1009 C1007 1.384 . S
H1010 C1016 0.930 . S
H1011 C1020 0.930 . S
H1012 C1025 0.929 . S
H1013 C1023 0.929 . S
H1014 C1018 0.929 . S
H1015 C1024 0.929 . S
C1016 H1010 0.930 . S
C1016 C1017 1.367 . S
C1016 C1024 1.378 . S
C1017 C1016 1.367 . S
C1017 C1025 1.433 . S
C1018 H1014 0.929 . S
C1018 C1020 1.378 . S
C1018 C1022 1.350 . S
C1019 C1022 1.463 1_565 S
C1019 C1024 1.350 . S
C1019 N1027 1.427 1_565 S
C1020 H1011 0.930 . S
C1020 C1018 1.378 . S
C1020 C1021 1.367 . S
C1021 C1020 1.367 . S
C1021 C1023 1.433 . S
C1022 C1018 1.350 . S
C1022 C1019 1.463 1_545 S
C1022 N1026 1.427 1_545 S
C1023 H1013 0.929 . S
C1023 C1021 1.433 . S
C1023 N1026 1.384 1_545 S
C1024 H1015 0.929 . S
C1024 C1016 1.378 . S
C1024 C1019 1.350 . S
C1025 H1012 0.929 . S
C1025 C1017 1.433 . S
C1025 N1027 1.384 1_565 S
N1026 C1022 1.427 1_565 S
N1026 C1023 1.384 1_565 S
N1027 C1019 1.427 1_545 S
N1027 C1025 1.384 1_545 S
H1028 C1034 0.930 . S
H1029 C1038 0.930 . S
H1030 C1043 0.929 1_545 S
H1031 C1041 0.929 1_565 S
H1032 C1036 0.929 . S
H1033 C1042 0.929 . S
C1034 H1028 0.930 . S
C1034 C1035 1.367 . S
C1034 C1042 1.378 . S
C1035 C1034 1.367 . S
C1035 C1043 1.433 . S
C1036 H1032 0.929 . S
C1036 C1038 1.378 . S
C1036 C1040 1.350 . S
C1037 C1040 1.463 1_565 S
C1037 C1042 1.350 . S
C1037 N1045 1.427 1_565 S
C1038 H1029 0.930 . S
C1038 C1036 1.378 . S
C1038 C1039 1.367 . S
C1039 C1038 1.367 . S
C1039 C1041 1.433 . S
C1040 C1036 1.350 . S
C1040 C1037 1.463 1_545 S
C1040 N1044 1.427 1_545 S
C1041 H1031 0.929 1_545 S
C1041 C1039 1.433 . S
C1041 N1044 1.384 1_545 S
C1042 H1033 0.929 . S
C1042 C1034 1.378 . S
C1042 C1037 1.350 . S
C1043 H1030 0.929 1_565 S
C1043 C1035 1.433 . S
C1043 N1045 1.384 1_565 S
N1044 C1040 1.427 1_565 S
N1044 C1041 1.384 1_565 S
N1045 C1037 1.427 1_545 S
N1045 C1043 1.384 1_545 S
H1046 C1052 0.940 . S
H1047 C1056 0.940 . S
H1048 C1061 0.929 . S
H1049 C1059 0.929 . S
H1050 C1054 0.929 . S
H1051 C1060 0.929 . S
C1052 H1046 0.940 . S
C1052 C1053 1.352 1_565 S
C1052 C1060 1.384 . S
C1053 C1052 1.352 1_545 S
C1053 C1061 1.433 . S
C1054 H1050 0.929 . S
C1054 C1056 1.384 . S
C1054 C1058 1.350 1_545 S
C1055 C1058 1.463 1_545 S
C1055 C1060 1.350 1_545 S
C1055 N1063 1.427 . S
C1056 H1047 0.940 . S
C1056 C1054 1.384 . S
C1056 C1057 1.352 1_545 S
C1057 C1056 1.352 1_565 S
C1057 C1059 1.433 . S
C1058 C1054 1.350 1_565 S
C1058 C1055 1.463 1_565 S
C1058 N1062 1.427 . S
C1059 H1049 0.929 . S
C1059 C1057 1.433 . S
C1059 N1062 1.384 . S
C1060 H1051 0.929 . S
C1060 C1052 1.384 . S
C1060 C1055 1.350 1_565 S
C1061 H1048 0.929 . S
C1061 C1053 1.433 . S
C1061 N1063 1.384 . S
N1062 C1058 1.427 . S
N1062 C1059 1.384 . S
N1063 C1055 1.427 . S
N1063 C1061 1.384 . S
H1064 C1070 0.930 . S
H1065 C1074 0.930 . S
H1066 C1079 0.929 . S
H1067 C1077 0.929 . S
H1068 C1072 0.929 . S
H1069 C1078 0.929 . S
C1070 H1064 0.930 . S
C1070 C1071 1.367 . S
C1070 C1078 1.378 . S
C1071 C1070 1.367 . S
C1071 C1079 1.433 . S
C1072 H1068 0.929 . S
C1072 C1074 1.378 . S
C1072 C1076 1.350 . S
C1073 C1076 1.463 1_655 S
C1073 C1078 1.350 . S
C1073 N1081 1.427 . S
C1074 H1065 0.930 . S
C1074 C1072 1.378 . S
C1074 C1075 1.367 . S
C1075 C1074 1.367 . S
C1075 C1077 1.433 . S
C1076 C1072 1.350 . S
C1076 C1073 1.463 1_455 S
C1076 N1080 1.427 . S
C1077 H1067 0.929 . S
C1077 C1075 1.433 . S
C1077 N1080 1.384 . S
C1078 H1069 0.929 . S
C1078 C1070 1.378 . S
C1078 C1073 1.350 . S
C1079 H1066 0.929 . S
C1079 C1071 1.433 . S
C1079 N1081 1.384 . S
N1080 C1076 1.427 . S
N1080 C1077 1.384 . S
N1081 C1073 1.427 . S
N1081 C1079 1.384 . S
H1082 C1088 0.930 . S
H1083 C1092 0.930 . S
H1084 C1097 0.929 . S
H1085 C1095 0.929 . S
H1086 C1090 0.929 . S
H1087 C1096 0.929 . S
C1088 H1082 0.930 . S
C1088 C1089 1.367 . S
C1088 C1096 1.378 . S
C1089 C1088 1.367 . S
C1089 C1097 1.433 . S
C1090 H1086 0.929 . S
C1090 C1092 1.378 . S
C1090 C1094 1.350 . S
C1091 C1094 1.463 1_455 S
C1091 C1096 1.350 . S
C1091 N1099 1.427 . S
C1092 H1083 0.930 . S
C1092 C1090 1.378 . S
C1092 C1093 1.367 . S
C1093 C1092 1.367 . S
C1093 C1095 1.433 . S
C1094 C1090 1.350 . S
C1094 C1091 1.463 1_655 S
C1094 N1098 1.427 . S
C1095 H1085 0.929 . S
C1095 C1093 1.433 . S
C1095 N1098 1.384 . S
C1096 H1087 0.929 . S
C1096 C1088 1.378 . S
C1096 C1091 1.350 . S
C1097 H1084 0.929 . S
C1097 C1089 1.433 . S
C1097 N1099 1.384 . S
N1098 C1094 1.427 . S
N1098 C1095 1.384 . S
N1099 C1091 1.427 . S
N1099 C1097 1.384 . S
H1100 C1106 0.930 . S
H1101 C1110 0.930 . S
H1102 C1115 0.929 . S
H1103 C1113 0.929 . S
H1104 C1108 0.929 . S
H1105 C1114 0.929 . S
C1106 H1100 0.930 . S
C1106 C1107 1.367 . S
C1106 C1114 1.378 . S
C1107 C1106 1.367 . S
C1107 C1115 1.433 . S
C1108 H1104 0.929 . S
C1108 C1110 1.378 . S
C1108 C1112 1.350 . S
C1109 C1112 1.463 1_655 S
C1109 C1114 1.350 . S
C1109 N1117 1.427 . S
C1110 H1101 0.930 . S
C1110 C1108 1.378 . S
C1110 C1111 1.367 . S
C1111 C1110 1.367 . S
C1111 C1113 1.433 . S
C1112 C1108 1.350 . S
C1112 C1109 1.463 1_455 S
C1112 N1116 1.427 . S
C1113 H1103 0.929 . S
C1113 C1111 1.433 . S
C1113 N1116 1.384 . S
C1114 H1105 0.929 . S
C1114 C1106 1.378 . S
C1114 C1109 1.350 . S
C1115 H1102 0.929 . S
C1115 C1107 1.433 . S
C1115 N1117 1.384 . S
N1116 C1112 1.427 . S
N1116 C1113 1.384 . S
N1117 C1109 1.427 . S
N1117 C1115 1.384 . S
H1118 C1124 0.930 . S
H1119 C1128 0.930 . S
H1120 C1133 0.929 . S
H1121 C1131 0.929 . S
H1122 C1126 0.929 . S
H1123 C1132 0.929 . S
C1124 H1118 0.930 . S
C1124 C1125 1.367 . S
C1124 C1132 1.378 . S
C1125 C1124 1.367 . S
C1125 C1133 1.433 . S
C1126 H1122 0.929 . S
C1126 C1128 1.378 . S
C1126 C1130 1.350 . S
C1127 C1130 1.463 1_455 S
C1127 C1132 1.350 . S
C1127 N1135 1.427 . S
C1128 H1119 0.930 . S
C1128 C1126 1.378 . S
C1128 C1129 1.367 . S
C1129 C1128 1.367 . S
C1129 C1131 1.433 . S
C1130 C1126 1.350 . S
C1130 C1127 1.463 1_655 S
C1130 N1134 1.427 . S
C1131 H1121 0.929 . S
C1131 C1129 1.433 . S
C1131 N1134 1.384 . S
C1132 H1123 0.929 . S
C1132 C1124 1.378 . S
C1132 C1127 1.350 . S
C1133 H1120 0.929 . S
C1133 C1125 1.433 . S
C1133 N1135 1.384 . S
N1134 C1130 1.427 . S
N1134 C1131 1.384 . S
N1135 C1127 1.427 . S
N1135 C1133 1.384 . S
H1136 C1142 0.930 . S
H1137 C1146 0.930 . S
H1138 C1151 0.929 . S
H1139 C1149 0.929 . S
H1140 C1144 0.929 . S
H1141 C1150 0.929 . S
C1142 H1136 0.930 . S
C1142 C1143 1.367 . S
C1142 C1150 1.378 . S
C1143 C1142 1.367 . S
C1143 C1151 1.433 . S
C1144 H1140 0.929 . S
C1144 C1146 1.378 . S
C1144 C1148 1.350 . S
C1145 C1148 1.463 . S
C1145 C1150 1.350 . S
C1145 N1153 1.427 . S
C1146 H1137 0.930 . S
C1146 C1144 1.378 . S
C1146 C1147 1.367 . S
C1147 C1146 1.367 . S
C1147 C1149 1.433 . S
C1148 C1144 1.350 . S
C1148 C1145 1.463 . S
C1148 N1152 1.427 . S
C1149 H1139 0.929 . S
C1149 C1147 1.433 . S
C1149 N1152 1.384 . S
C1150 H1141 0.929 . S
C1150 C1142 1.378 . S
C1150 C1145 1.350 . S
C1151 H1138 0.929 . S
C1151 C1143 1.433 . S
C1151 N1153 1.384 . S
N1152 C1148 1.427 . S
N1152 C1149 1.384 . S
N1153 C1145 1.427 . S
N1153 C1151 1.384 . S
H1154 C1160 0.930 . S
H1155 C1164 0.930 . S
H1156 C1169 0.929 . S
H1157 C1167 0.929 . S
H1158 C1162 0.929 . S
H1159 C1168 0.929 . S
C1160 H1154 0.930 . S
C1160 C1161 1.367 . S
C1160 C1168 1.378 . S
C1161 C1160 1.367 . S
C1161 C1169 1.433 . S
C1162 H1158 0.929 . S
C1162 C1164 1.378 . S
C1162 C1166 1.350 . S
C1163 C1166 1.463 . S
C1163 C1168 1.350 . S
C1163 N1171 1.427 . S
C1164 H1155 0.930 . S
C1164 C1162 1.378 . S
C1164 C1165 1.367 . S
C1165 C1164 1.367 . S
C1165 C1167 1.433 . S
C1166 C1162 1.350 . S
C1166 C1163 1.463 . S
C1166 N1170 1.427 . S
C1167 H1157 0.929 . S
C1167 C1165 1.433 . S
C1167 N1170 1.384 . S
C1168 H1159 0.929 . S
C1168 C1160 1.378 . S
C1168 C1163 1.350 . S
C1169 H1156 0.929 . S
C1169 C1161 1.433 . S
C1169 N1171 1.384 . S
N1170 C1166 1.427 . S
N1170 C1167 1.384 . S
N1171 C1163 1.427 . S
N1171 C1169 1.384 . S
H1172 C1178 0.930 . S
H1173 C1182 0.930 . S
H1174 C1187 0.929 . S
H1175 C1185 0.929 . S
H1176 C1180 0.929 . S
H1177 C1186 0.929 . S
C1178 H1172 0.930 . S
C1178 C1179 1.367 . S
C1178 C1186 1.378 . S
C1179 C1178 1.367 . S
C1179 C1187 1.433 . S
C1180 H1176 0.929 . S
C1180 C1182 1.378 . S
C1180 C1184 1.350 . S
C1181 C1184 1.463 . S
C1181 C1186 1.350 . S
C1181 N1189 1.427 . S
C1182 H1173 0.930 . S
C1182 C1180 1.378 . S
C1182 C1183 1.367 . S
C1183 C1182 1.367 . S
C1183 C1185 1.433 . S
C1184 C1180 1.350 . S
C1184 C1181 1.463 . S
C1184 N1188 1.427 . S
C1185 H1175 0.929 . S
C1185 C1183 1.433 . S
C1185 N1188 1.384 . S
C1186 H1177 0.929 . S
C1186 C1178 1.378 . S
C1186 C1181 1.350 . S
C1187 H1174 0.929 . S
C1187 C1179 1.433 . S
C1187 N1189 1.384 . S
N1188 C1184 1.427 . S
N1188 C1185 1.384 . S
N1189 C1181 1.427 . S
N1189 C1187 1.384 . S
H1190 C1196 0.930 . S
H1191 C1200 0.930 . S
H1192 C1205 0.929 . S
H1193 C1203 0.929 . S
H1194 C1198 0.929 . S
H1195 C1204 0.929 . S
C1196 H1190 0.930 . S
C1196 C1197 1.367 . S
C1196 C1204 1.378 . S
C1197 C1196 1.367 . S
C1197 C1205 1.433 . S
C1198 H1194 0.929 . S
C1198 C1200 1.378 . S
C1198 C1202 1.350 . S
C1199 C1202 1.463 . S
C1199 C1204 1.350 . S
C1199 N1207 1.427 . S
C1200 H1191 0.930 . S
C1200 C1198 1.378 . S
C1200 C1201 1.367 . S
C1201 C1200 1.367 . S
C1201 C1203 1.433 . S
C1202 C1198 1.350 . S
C1202 C1199 1.463 . S
C1202 N1206 1.427 . S
C1203 H1193 0.929 . S
C1203 C1201 1.433 . S
C1203 N1206 1.384 . S
C1204 H1195 0.929 . S
C1204 C1196 1.378 . S
C1204 C1199 1.350 . S
C1205 H1192 0.929 . S
C1205 C1197 1.433 . S
C1205 N1207 1.384 . S
N1206 C1202 1.427 . S
N1206 C1203 1.384 . S
N1207 C1199 1.427 . S
N1207 C1205 1.384 . S
H1208 C1214 0.930 . S
H1209 C1218 0.930 . S
H1210 C1223 0.929 . S
H1211 C1221 0.929 . S
H1212 C1216 0.929 . S
H1213 C1222 0.929 . S
C1214 H1208 0.930 . S
C1214 C1215 1.367 . S
C1214 C1222 1.378 . S
C1215 C1214 1.367 . S
C1215 C1223 1.433 . S
C1216 H1212 0.929 . S
C1216 C1218 1.378 . S
C1216 C1220 1.350 . S
C1217 C1220 1.463 . S
C1217 C1222 1.350 . S
C1217 N1225 1.427 . S
C1218 H1209 0.930 . S
C1218 C1216 1.378 . S
C1218 C1219 1.367 . S
C1219 C1218 1.367 . S
C1219 C1221 1.433 . S
C1220 C1216 1.350 . S
C1220 C1217 1.463 . S
C1220 N1224 1.427 . S
C1221 H1211 0.929 . S
C1221 C1219 1.433 . S
C1221 N1224 1.384 . S
C1222 H1213 0.929 . S
C1222 C1214 1.378 . S
C1222 C1217 1.350 . S
C1223 H1210 0.929 . S
C1223 C1215 1.433 . S
C1223 N1225 1.384 . S
N1224 C1220 1.427 . S
N1224 C1221 1.384 . S
N1225 C1217 1.427 . S
N1225 C1223 1.384 . S
H1226 C1232 0.930 . S
H1227 C1236 0.930 . S
H1228 C1241 0.929 . S
H1229 C1239 0.929 . S
H1230 C1234 0.929 . S
H1231 C1240 0.929 . S
C1232 H1226 0.930 . S
C1232 C1233 1.367 . S
C1232 C1240 1.378 . S
C1233 C1232 1.367 . S
C1233 C1241 1.433 . S
C1234 H1230 0.929 . S
C1234 C1236 1.378 . S
C1234 C1238 1.350 . S
C1235 C1238 1.463 . S
C1235 C1240 1.350 . S
C1235 N1243 1.427 . S
C1236 H1227 0.930 . S
C1236 C1234 1.378 . S
C1236 C1237 1.367 . S
C1237 C1236 1.367 . S
C1237 C1239 1.433 . S
C1238 C1234 1.350 . S
C1238 C1235 1.463 . S
C1238 N1242 1.427 . S
C1239 H1229 0.929 . S
C1239 C1237 1.433 . S
C1239 N1242 1.384 . S
C1240 H1231 0.929 . S
C1240 C1232 1.378 . S
C1240 C1235 1.350 . S
C1241 H1228 0.929 . S
C1241 C1233 1.433 . S
C1241 N1243 1.384 . S
N1242 C1238 1.427 . S
N1242 C1239 1.384 . S
N1243 C1235 1.427 . S
N1243 C1241 1.384 . S
H1244 C1250 0.930 . S
H1245 C1254 0.930 . S
H1246 C1259 0.929 . S
H1247 C1257 0.929 . S
H1248 C1252 0.929 . S
H1249 C1258 0.929 . S
C1250 H1244 0.930 . S
C1250 C1251 1.367 . S
C1250 C1258 1.378 . S
C1251 C1250 1.367 . S
C1251 C1259 1.433 . S
C1252 H1248 0.929 . S
C1252 C1254 1.378 . S
C1252 C1256 1.350 . S
C1253 C1256 1.463 . S
C1253 C1258 1.350 . S
C1253 N1261 1.427 . S
C1254 H1245 0.930 . S
C1254 C1252 1.378 . S
C1254 C1255 1.367 . S
C1255 C1254 1.367 . S
C1255 C1257 1.433 . S
C1256 C1252 1.350 . S
C1256 C1253 1.463 . S
C1256 N1260 1.427 . S
C1257 H1247 0.929 . S
C1257 C1255 1.433 . S
C1257 N1260 1.384 . S
C1258 H1249 0.929 . S
C1258 C1250 1.378 . S
C1258 C1253 1.350 . S
C1259 H1246 0.929 . S
C1259 C1251 1.433 . S
C1259 N1261 1.384 . S
N1260 C1256 1.427 . S
N1260 C1257 1.384 . S
N1261 C1253 1.427 . S
N1261 C1259 1.384 . S
H1262 C1268 0.930 . S
H1263 C1272 0.930 . S
H1264 C1277 0.929 . S
H1265 C1275 0.929 . S
H1266 C1270 0.929 . S
H1267 C1276 0.929 . S
C1268 H1262 0.930 . S
C1268 C1269 1.367 . S
C1268 C1276 1.378 . S
C1269 C1268 1.367 . S
C1269 C1277 1.433 . S
C1270 H1266 0.929 . S
C1270 C1272 1.378 . S
C1270 C1274 1.350 . S
C1271 C1274 1.463 . S
C1271 C1276 1.350 . S
C1271 N1279 1.427 . S
C1272 H1263 0.930 . S
C1272 C1270 1.378 . S
C1272 C1273 1.367 . S
C1273 C1272 1.367 . S
C1273 C1275 1.433 . S
C1274 C1270 1.350 . S
C1274 C1271 1.463 . S
C1274 N1278 1.427 . S
C1275 H1265 0.929 . S
C1275 C1273 1.433 . S
C1275 N1278 1.384 . S
C1276 H1267 0.929 . S
C1276 C1268 1.378 . S
C1276 C1271 1.350 . S
C1277 H1264 0.929 . S
C1277 C1269 1.433 . S
C1277 N1279 1.384 . S
N1278 C1274 1.427 . S
N1278 C1275 1.384 . S
N1279 C1271 1.427 . S
N1279 C1277 1.384 . S
H1280 C1286 0.930 . S
H1281 C1290 0.930 . S
H1282 C1295 0.929 . S
H1283 C1293 0.929 . S
H1284 C1288 0.929 1_545 S
H1285 C1294 0.929 1_565 S
C1286 H1280 0.930 . S
C1286 C1287 1.367 . S
C1286 C1294 1.378 . S
C1287 C1286 1.367 . S
C1287 C1295 1.433 . S
C1288 H1284 0.929 1_565 S
C1288 C1290 1.378 . S
C1288 C1292 1.350 . S
C1289 C1292 1.463 1_545 S
C1289 C1294 1.350 . S
C1289 N1297 1.427 . S
C1290 H1281 0.930 . S
C1290 C1288 1.378 . S
C1290 C1291 1.367 . S
C1291 C1290 1.367 . S
C1291 C1293 1.433 . S
C1292 C1288 1.350 . S
C1292 C1289 1.463 1_565 S
C1292 N1296 1.427 . S
C1293 H1283 0.929 . S
C1293 C1291 1.433 . S
C1293 N1296 1.384 . S
C1294 H1285 0.929 1_545 S
C1294 C1286 1.378 . S
C1294 C1289 1.350 . S
C1295 H1282 0.929 . S
C1295 C1287 1.433 . S
C1295 N1297 1.384 . S
N1296 C1292 1.427 . S
N1296 C1293 1.384 . S
N1297 C1289 1.427 . S
N1297 C1295 1.384 . S
H1298 C1304 0.930 . S
H1299 C1308 0.930 . S
H1300 C1313 0.929 . S
H1301 C1311 0.929 . S
H1302 C1306 0.929 1_545 S
H1303 C1312 0.929 1_565 S
C1304 H1298 0.930 . S
C1304 C1305 1.367 . S
C1304 C1312 1.378 . S
C1305 C1304 1.367 . S
C1305 C1313 1.433 . S
C1306 H1302 0.929 1_565 S
C1306 C1308 1.378 . S
C1306 C1310 1.350 . S
C1307 C1310 1.463 1_545 S
C1307 C1312 1.350 . S
C1307 N1315 1.427 . S
C1308 H1299 0.930 . S
C1308 C1306 1.378 . S
C1308 C1309 1.367 . S
C1309 C1308 1.367 . S
C1309 C1311 1.433 . S
C1310 C1306 1.350 . S
C1310 C1307 1.463 1_565 S
C1310 N1314 1.427 . S
C1311 H1301 0.929 . S
C1311 C1309 1.433 . S
C1311 N1314 1.384 . S
C1312 H1303 0.929 1_545 S
C1312 C1304 1.378 . S
C1312 C1307 1.350 . S
C1313 H1300 0.929 . S
C1313 C1305 1.433 . S
C1313 N1315 1.384 . S
N1314 C1310 1.427 . S
N1314 C1311 1.384 . S
N1315 C1307 1.427 . S
N1315 C1313 1.384 . S
H1316 C1322 0.930 . S
H1317 C1326 0.930 . S
H1318 C1331 0.929 . S
H1319 C1329 0.929 . S
H1320 C1324 0.929 1_545 S
H1321 C1330 0.929 1_565 S
C1322 H1316 0.930 . S
C1322 C1323 1.367 . S
C1322 C1330 1.378 . S
C1323 C1322 1.367 . S
C1323 C1331 1.433 . S
C1324 H1320 0.929 1_565 S
C1324 C1326 1.378 . S
C1324 C1328 1.350 . S
C1325 C1328 1.463 1_545 S
C1325 C1330 1.350 . S
C1325 N1333 1.427 . S
C1326 H1317 0.930 . S
C1326 C1324 1.378 . S
C1326 C1327 1.367 . S
C1327 C1326 1.367 . S
C1327 C1329 1.433 . S
C1328 C1324 1.350 . S
C1328 C1325 1.463 1_565 S
C1328 N1332 1.427 . S
C1329 H1319 0.929 . S
C1329 C1327 1.433 . S
C1329 N1332 1.384 . S
C1330 H1321 0.929 1_545 S
C1330 C1322 1.378 . S
C1330 C1325 1.350 . S
C1331 H1318 0.929 . S
C1331 C1323 1.433 . S
C1331 N1333 1.384 . S
N1332 C1328 1.427 . S
N1332 C1329 1.384 . S
N1333 C1325 1.427 . S
N1333 C1331 1.384 . S
H1334 C1340 0.930 . S
H1335 C1344 0.930 . S
H1336 C1349 0.929 . S
H1337 C1347 0.929 . S
H1338 C1342 0.929 . S
H1339 C1348 0.929 . S
C1340 H1334 0.930 . S
C1340 C1341 1.367 . S
C1340 C1348 1.378 . S
C1341 C1340 1.367 . S
C1341 C1349 1.433 . S
C1342 H1338 0.929 . S
C1342 C1344 1.378 . S
C1342 C1346 1.350 . S
C1343 C1346 1.463 1_565 S
C1343 C1348 1.350 . S
C1343 N1351 1.427 . S
C1344 H1335 0.930 . S
C1344 C1342 1.378 . S
C1344 C1345 1.367 . S
C1345 C1344 1.367 . S
C1345 C1347 1.433 . S
C1346 C1342 1.350 . S
C1346 C1343 1.463 1_545 S
C1346 N1350 1.427 . S
C1347 H1337 0.929 . S
C1347 C1345 1.433 . S
C1347 N1350 1.384 . S
C1348 H1339 0.929 . S
C1348 C1340 1.378 . S
C1348 C1343 1.350 . S
C1349 H1336 0.929 . S
C1349 C1341 1.433 . S
C1349 N1351 1.384 . S
N1350 C1346 1.427 . S
N1350 C1347 1.384 . S
N1351 C1343 1.427 . S
N1351 C1349 1.384 . S
H1352 C1358 0.930 . S
H1353 C1362 0.930 . S
H1354 C1367 0.929 . S
H1355 C1365 0.929 . S
H1356 C1360 0.929 . S
H1357 C1366 0.929 . S
C1358 H1352 0.930 . S
C1358 C1359 1.367 . S
C1358 C1366 1.378 . S
C1359 C1358 1.367 . S
C1359 C1367 1.433 . S
C1360 H1356 0.929 . S
C1360 C1362 1.378 . S
C1360 C1364 1.350 . S
C1361 C1364 1.463 . S
C1361 C1366 1.350 . S
C1361 N1369 1.427 . S
C1362 H1353 0.930 . S
C1362 C1360 1.378 . S
C1362 C1363 1.367 . S
C1363 C1362 1.367 . S
C1363 C1365 1.433 . S
C1364 C1360 1.350 . S
C1364 C1361 1.463 . S
C1364 N1368 1.427 . S
C1365 H1355 0.929 . S
C1365 C1363 1.433 . S
C1365 N1368 1.384 . S
C1366 H1357 0.929 . S
C1366 C1358 1.378 . S
C1366 C1361 1.350 . S
C1367 H1354 0.929 . S
C1367 C1359 1.433 . S
C1367 N1369 1.384 . S
N1368 C1364 1.427 . S
N1368 C1365 1.384 . S
N1369 C1361 1.427 . S
N1369 C1367 1.384 . S
H1370 C1376 0.930 . S
H1371 C1380 0.930 . S
H1372 C1385 0.929 . S
H1373 C1383 0.929 . S
H1374 C1378 0.929 . S
H1375 C1384 0.929 . S
C1376 H1370 0.930 . S
C1376 C1377 1.367 . S
C1376 C1384 1.378 . S
C1377 C1376 1.367 . S
C1377 C1385 1.433 . S
C1378 H1374 0.929 . S
C1378 C1380 1.378 . S
C1378 C1382 1.350 . S
C1379 C1382 1.463 . S
C1379 C1384 1.350 . S
C1379 N1387 1.427 . S
C1380 H1371 0.930 . S
C1380 C1378 1.378 . S
C1380 C1381 1.367 . S
C1381 C1380 1.367 . S
C1381 C1383 1.433 . S
C1382 C1378 1.350 . S
C1382 C1379 1.463 . S
C1382 N1386 1.427 . S
C1383 H1373 0.929 . S
C1383 C1381 1.433 . S
C1383 N1386 1.384 . S
C1384 H1375 0.929 . S
C1384 C1376 1.378 . S
C1384 C1379 1.350 . S
C1385 H1372 0.929 . S
C1385 C1377 1.433 . S
C1385 N1387 1.384 . S
N1386 C1382 1.427 . S
N1386 C1383 1.384 . S
N1387 C1379 1.427 . S
N1387 C1385 1.384 . S
H1388 C1394 0.930 . S
H1389 C1398 0.930 . S
H1390 C1403 0.929 . S
H1391 C1401 0.929 . S
H1392 C1396 0.929 . S
H1393 C1402 0.929 . S
C1394 H1388 0.930 . S
C1394 C1395 1.367 . S
C1394 C1402 1.378 . S
C1395 C1394 1.367 . S
C1395 C1403 1.433 . S
C1396 H1392 0.929 . S
C1396 C1398 1.378 . S
C1396 C1400 1.350 . S
C1397 C1400 1.463 . S
C1397 C1402 1.350 . S
C1397 N1405 1.427 . S
C1398 H1389 0.930 . S
C1398 C1396 1.378 . S
C1398 C1399 1.367 . S
C1399 C1398 1.367 . S
C1399 C1401 1.433 . S
C1400 C1396 1.350 . S
C1400 C1397 1.463 . S
C1400 N1404 1.427 . S
C1401 H1391 0.929 . S
C1401 C1399 1.433 . S
C1401 N1404 1.384 . S
C1402 H1393 0.929 . S
C1402 C1394 1.378 . S
C1402 C1397 1.350 . S
C1403 H1390 0.929 . S
C1403 C1395 1.433 . S
C1403 N1405 1.384 . S
N1404 C1400 1.427 . S
N1404 C1401 1.384 . S
N1405 C1397 1.427 . S
N1405 C1403 1.384 . S
H1406 C1412 0.930 . S
H1407 C1416 0.930 . S
H1408 C1421 0.929 . S
H1409 C1419 0.929 . S
H1410 C1414 0.929 . S
H1411 C1420 0.929 . S
C1412 H1406 0.930 . S
C1412 C1413 1.367 . S
C1412 C1420 1.378 . S
C1413 C1412 1.367 . S
C1413 C1421 1.433 . S
C1414 H1410 0.929 . S
C1414 C1416 1.378 . S
C1414 C1418 1.350 . S
C1415 C1418 1.463 . S
C1415 C1420 1.350 . S
C1415 N1423 1.427 . S
C1416 H1407 0.930 . S
C1416 C1414 1.378 . S
C1416 C1417 1.367 . S
C1417 C1416 1.367 . S
C1417 C1419 1.433 . S
C1418 C1414 1.350 . S
C1418 C1415 1.463 . S
C1418 N1422 1.427 . S
C1419 H1409 0.929 . S
C1419 C1417 1.433 . S
C1419 N1422 1.384 . S
C1420 H1411 0.929 . S
C1420 C1412 1.378 . S
C1420 C1415 1.350 . S
C1421 H1408 0.929 . S
C1421 C1413 1.433 . S
C1421 N1423 1.384 . S
N1422 C1418 1.427 . S
N1422 C1419 1.384 . S
N1423 C1415 1.427 . S
N1423 C1421 1.384 . S
C855 C39 1.877 . S
C859 C304 1.865 . S
C873 C251 1.871 . S
C877 C92 1.871 . S
C891 C145 1.870 . S
C895 C410 1.872 . S
C909 C357 1.868 . S
C913 C198 1.874 . S
C927 C728 1.865 . S
C931 C463 1.877 . S
C945 C675 1.870 . S
C949 C516 1.873 . S
C963 C834 1.873 . S
C967 C569 1.870 . S
C981 C622 1.870 . S
C985 C781 1.873 . S
C999 C82 1.549 . S
C1003 C29 1.545 . S
C1017 C135 1.546 . S
C1021 C188 1.544 . S
C1035 C241 1.548 . S
C1039 C294 1.546 . S
C1053 C347 1.551 . S
C1057 C400 1.550 . S
C1071 C453 1.549 . S
C1075 C506 1.546 . S
C1089 C612 1.548 . S
C1093 C559 1.550 . S
C1107 C718 1.546 . S
C1111 C665 1.549 . S
C1125 C771 1.546 . S
C1129 C824 1.547 . S
C1143 C499 1.533 . S
C1147 C22 1.536 . S
C1161 C75 1.537 . S
C1165 C446 1.533 . S
C1179 C605 1.534 . S
C1183 C128 1.537 . S
C1197 C181 1.534 . S
C1201 C552 1.537 . S
C1215 C234 1.536 . S
C1219 C711 1.534 . S
C1233 C658 1.532 . S
C1237 C287 1.532 . S
C1251 C340 1.536 . S
C1255 C817 1.533 . S
C1269 C764 1.532 . S
C1273 C393 1.533 . S
C1287 C38 1.930 . S
C1291 C144 1.933 . S
C1305 C197 1.931 . S
C1309 C91 1.933 . S
C1323 C356 1.939 . S
C1327 C250 1.939 . S
C1341 C409 1.945 . S
C1345 C303 1.942 . S
C1359 C568 1.930 . S
C1363 C462 1.931 . S
C1377 C515 1.929 . S
C1381 C621 1.931 . S
C1395 C780 1.945 . S
C1399 C674 1.942 . S
C1413 C727 1.945 . S
C1417 C833 1.947 . S
