# Generated by pormake.
# Topology uop, (4)-cn, num edge types: 1
# Building blocks:
#     Node 0, Type 0, BuildingBlock: KOZSID_clean_sbu_0, # of connection points: 4
#     Node 1, Type 0, BuildingBlock: KOZSID_clean_sbu_0, # of connection points: 4
#     Node 2, Type 0, BuildingBlock: KOZSID_clean_sbu_0, # of connection points: 4
#     Node 3, Type 0, BuildingBlock: KOZSID_clean_sbu_0, # of connection points: 4
#     Node 4, Type 0, BuildingBlock: KOZSID_clean_sbu_0, # of connection points: 4
#     Node 5, Type 0, BuildingBlock: KOZSID_clean_sbu_0, # of connection points: 4
#     Node 6, Type 0, BuildingBlock: KOZSID_clean_sbu_0, # of connection points: 4
#     Node 7, Type 0, BuildingBlock: KOZSID_clean_sbu_0, # of connection points: 4
#     Node 8, Type 0, BuildingBlock: KOZSID_clean_sbu_0, # of connection points: 4
#     Node 9, Type 0, BuildingBlock: KOZSID_clean_sbu_0, # of connection points: 4
#     Node 10, Type 0, BuildingBlock: KOZSID_clean_sbu_0, # of connection points: 4
#     Node 11, Type 0, BuildingBlock: KOZSID_clean_sbu_0, # of connection points: 4
#     Edge 12, Type (0, 0), BuildingBlock: XUDNAN_clean_linker_2, # of connection points: 2
#     Edge 13, Type (0, 0), BuildingBlock: XUDNAN_clean_linker_2, # of connection points: 2
#     Edge 14, Type (0, 0), BuildingBlock: XUDNAN_clean_linker_2, # of connection points: 2
#     Edge 15, Type (0, 0), BuildingBlock: XUDNAN_clean_linker_2, # of connection points: 2
#     Edge 16, Type (0, 0), BuildingBlock: XUDNAN_clean_linker_2, # of connection points: 2
#     Edge 17, Type (0, 0), BuildingBlock: XUDNAN_clean_linker_2, # of connection points: 2
#     Edge 18, Type (0, 0), BuildingBlock: XUDNAN_clean_linker_2, # of connection points: 2
#     Edge 19, Type (0, 0), BuildingBlock: XUDNAN_clean_linker_2, # of connection points: 2
#     Edge 20, Type (0, 0), BuildingBlock: XUDNAN_clean_linker_2, # of connection points: 2
#     Edge 21, Type (0, 0), BuildingBlock: XUDNAN_clean_linker_2, # of connection points: 2
#     Edge 22, Type (0, 0), BuildingBlock: XUDNAN_clean_linker_2, # of connection points: 2
#     Edge 23, Type (0, 0), BuildingBlock: XUDNAN_clean_linker_2, # of connection points: 2
#     Edge 24, Type (0, 0), BuildingBlock: XUDNAN_clean_linker_2, # of connection points: 2
#     Edge 25, Type (0, 0), BuildingBlock: XUDNAN_clean_linker_2, # of connection points: 2
#     Edge 26, Type (0, 0), BuildingBlock: XUDNAN_clean_linker_2, # of connection points: 2
#     Edge 27, Type (0, 0), BuildingBlock: XUDNAN_clean_linker_2, # of connection points: 2
#     Edge 28, Type (0, 0), BuildingBlock: XUDNAN_clean_linker_2, # of connection points: 2
#     Edge 29, Type (0, 0), BuildingBlock: XUDNAN_clean_linker_2, # of connection points: 2
#     Edge 30, Type (0, 0), BuildingBlock: XUDNAN_clean_linker_2, # of connection points: 2
#     Edge 31, Type (0, 0), BuildingBlock: XUDNAN_clean_linker_2, # of connection points: 2
#     Edge 32, Type (0, 0), BuildingBlock: XUDNAN_clean_linker_2, # of connection points: 2
#     Edge 33, Type (0, 0), BuildingBlock: XUDNAN_clean_linker_2, # of connection points: 2
#     Edge 34, Type (0, 0), BuildingBlock: XUDNAN_clean_linker_2, # of connection points: 2
#     Edge 35, Type (0, 0), BuildingBlock: XUDNAN_clean_linker_2, # of connection points: 2
# Relax obj value: 0.071
# Max RMSD: 0.267
# Mean RMSD: 0.246
data_MOF--net-uop--node1-KOZSID_clean_sbu_0--edge1-XUDNAN_clean_linker_2
_symmetry_space_group_name_H-M    P1
_symmetry_Int_Tables_number       1
_symmetry_cell_setting            triclinic
loop_
_symmetry_equiv_pos_as_xyz
'x, y, z'
_cell_length_a     39.590977
_cell_length_b     38.124277
_cell_length_c     65.846745
_cell_angle_alpha  90.057148
_cell_angle_beta   89.930245
_cell_angle_gamma 121.33905
loop_
_atom_site_label
_atom_site_type_symbol
_atom_site_fract_x
_atom_site_fract_y
_atom_site_fract_z
_atom_type_partial_charge
C0 C 0.35263 0.42531 0.2131 0.0
C1 C 0.37033 0.407 0.20291 0.0
C2 C 0.34338 0.38013 0.18935 0.0
C3 C 0.31044 0.38255 0.19234 0.0
N4 N 0.31454 0.40917 0.20705 0.0
Co5 Co 0.2713 0.41572 0.21862 0.0
N6 N 0.22909 0.36686 0.20309 0.0
C7 C 0.23557 0.34475 0.18935 0.0
C8 C 0.20196 0.31284 0.18105 0.0
C9 C 0.17186 0.31509 0.18959 0.0
C10 C 0.18885 0.34859 0.20272 0.0
N11 N 0.22762 0.4225 0.22948 0.0
C12 C 0.18794 0.40154 0.22534 0.0
C13 C 0.16962 0.41987 0.23473 0.0
C14 C 0.19863 0.45415 0.24441 0.0
C15 C 0.23303 0.45483 0.24053 0.0
N16 N 0.31351 0.46331 0.23459 0.0
C17 C 0.30841 0.49047 0.24513 0.0
C18 C 0.34243 0.52061 0.25425 0.0
C19 C 0.37103 0.51218 0.24908 0.0
C20 C 0.35282 0.47716 0.23711 0.0
N21 N 0.27765 0.45416 0.19616 0.0
C22 C 0.27625 0.52033 0.17744 0.0
C23 C 0.31146 0.52565 0.18548 0.0
C24 C 0.31169 0.49203 0.19438 0.0
C25 C 0.24383 0.48005 0.17627 0.0
C26 C 0.24533 0.44764 0.18535 0.0
N27 N 0.26567 0.37947 0.24195 0.0
C28 C 0.26361 0.36996 0.27855 0.0
C29 C 0.27169 0.3383 0.27679 0.0
C30 C 0.27465 0.32654 0.25684 0.0
C31 C 0.27114 0.34697 0.23982 0.0
C32 C 0.2609 0.3899 0.26122 0.0
H33 H 0.27411 0.33701 0.22501 0.0
H34 H 0.25609 0.41476 0.26373 0.0
H35 H 0.33893 0.49772 0.20101 0.0
H36 H 0.21906 0.41801 0.18459 0.0
C37 C 0.27351 0.35429 0.18472 0.0
C38 C 0.37459 0.4603 0.22696 0.0
C39 C 0.16678 0.36673 0.21105 0.0
C40 C 0.27086 0.48525 0.24693 0.0
H41 H 0.39979 0.41245 0.20504 0.0
H42 H 0.3466 0.35945 0.17939 0.0
H43 H 0.19965 0.29104 0.16976 0.0
H44 H 0.14118 0.29523 0.18557 0.0
H45 H 0.13866 0.41025 0.23395 0.0
H46 H 0.19518 0.47646 0.25286 0.0
H47 H 0.34601 0.54567 0.26362 0.0
H48 H 0.4019 0.53014 0.25333 0.0
H49 H 0.33789 0.55592 0.18612 0.0
H50 H 0.21653 0.47383 0.16923 0.0
H51 H 0.2596 0.37985 0.29329 0.0
H52 H 0.2809 0.30247 0.25419 0.0
C53 C 0.94697 0.34625 0.56281 0.0
C54 C 0.98486 0.36666 0.5546 0.0
C55 C 0.98574 0.34143 0.54026 0.0
C56 C 0.94885 0.30674 0.54081 0.0
N57 N 0.92446 0.30801 0.55474 0.0
Co58 Co 0.87132 0.26073 0.56311 0.0
N59 N 0.87683 0.22082 0.54541 0.0
C60 C 0.90774 0.23018 0.53318 0.0
C61 C 0.90514 0.19707 0.52348 0.0
C62 C 0.86989 0.16435 0.52952 0.0
C63 C 0.85268 0.17952 0.54242 0.0
N64 N 0.81762 0.21258 0.57076 0.0
C65 C 0.79722 0.17243 0.56418 0.0
C66 C 0.75883 0.15175 0.57153 0.0
C67 C 0.75444 0.17956 0.58263 0.0
C68 C 0.79027 0.21576 0.58146 0.0
N69 N 0.86658 0.30081 0.58094 0.0
C70 C 0.8334 0.2928 0.59066 0.0
C71 C 0.83739 0.32623 0.60083 0.0
C72 C 0.87543 0.3576 0.59716 0.0
C73 C 0.89271 0.34156 0.58498 0.0
N74 N 0.8449 0.2733 0.54093 0.0
C75 C 0.78584 0.28721 0.52538 0.0
C76 C 0.82236 0.3196 0.53269 0.0
C77 C 0.85164 0.31223 0.5396 0.0
C78 C 0.7828 0.24886 0.52329 0.0
C79 C 0.81263 0.24276 0.53092 0.0
N80 N 0.8968 0.24993 0.58662 0.0
C81 C 0.89718 0.24211 0.62324 0.0
C82 C 0.93766 0.25616 0.62335 0.0
C83 C 0.95671 0.26454 0.60442 0.0
C84 C 0.93566 0.26034 0.58631 0.0
C85 C 0.87763 0.23945 0.605 0.0
H86 H 0.9516 0.267 0.57225 0.0
H87 H 0.8473 0.23085 0.60621 0.0
H88 H 0.87825 0.33784 0.54565 0.0
H89 H 0.80802 0.21257 0.52983 0.0
C90 C 0.93921 0.27019 0.5314 0.0
C91 C 0.93265 0.36692 0.57602 0.0
C92 C 0.81134 0.1541 0.54903 0.0
C93 C 0.79937 0.25347 0.58992 0.0
H94 H 1.00917 0.39711 0.55833 0.0
H95 H 1.01088 0.34694 0.5312 0.0
H96 H 0.92621 0.19685 0.51306 0.0
H97 H 0.85742 0.133 0.52438 0.0
H98 H 0.73592 0.12028 0.56845 0.0
H99 H 0.72788 0.17429 0.59016 0.0
H100 H 0.81514 0.32779 0.60967 0.0
H101 H 0.88866 0.38894 0.60243 0.0
H102 H 0.82817 0.35042 0.53438 0.0
H103 H 0.75707 0.22298 0.51645 0.0
H104 H 0.88081 0.2348 0.63736 0.0
H105 H 0.98772 0.27434 0.60356 0.0
C106 C 0.65847 0.86197 0.96784 0.0
C107 C 0.65918 0.85053 0.98774 0.0
C108 C 0.63271 0.80899 0.98883 0.0
C109 C 0.61724 0.79742 0.96962 0.0
N110 N 0.63271 0.829 0.95651 0.0
Co111 Co 0.61678 0.82672 0.92775 0.0
N112 N 0.56465 0.7757 0.93241 0.0
C113 C 0.55567 0.75046 0.94848 0.0
C114 C 0.51799 0.71695 0.94776 0.0
C115 C 0.5024 0.72084 0.92997 0.0
C116 C 0.53157 0.75675 0.92069 0.0
N117 N 0.6013 0.82436 0.89893 0.0
C118 C 0.5658 0.80031 0.88956 0.0
C119 C 0.5695 0.80784 0.8688 0.0
C120 C 0.6086 0.83649 0.8651 0.0
C121 C 0.6268 0.84523 0.88373 0.0
N122 N 0.66849 0.87828 0.92397 0.0
C123 C 0.6869 0.8935 0.90615 0.0
C124 C 0.72024 0.93195 0.90834 0.0
C125 C 0.72246 0.94127 0.92875 0.0
C126 C 0.69026 0.90802 0.93791 0.0
N127 N 0.64051 0.79345 0.91985 0.0
C128 C 0.67578 0.75406 0.89982 0.0
C129 C 0.69831 0.78893 0.91211 0.0
C130 C 0.68004 0.80765 0.92226 0.0
C131 C 0.63512 0.73867 0.89862 0.0
C132 C 0.61836 0.75861 0.90846 0.0
N133 N 0.59371 0.86037 0.93419 0.0
C134 C 0.5876 0.91759 0.92438 0.0
C135 C 0.55987 0.90876 0.93965 0.0
C136 C 0.55054 0.8761 0.95294 0.0
C137 C 0.56814 0.85231 0.95002 0.0
C138 C 0.60348 0.89299 0.92174 0.0
H139 H 0.56033 0.82686 0.9601 0.0
H140 H 0.6231 0.90012 0.9091 0.0
H141 H 0.69827 0.83453 0.93144 0.0
H142 H 0.58751 0.74651 0.90578 0.0
C143 C 0.5818 0.76129 0.96486 0.0
C144 C 0.68192 0.9041 0.95997 0.0
C145 C 0.52914 0.76741 0.8994 0.0
C146 C 0.66638 0.876 0.8879 0.0
H147 H 0.67599 0.87006 1.00032 0.0
H148 H 0.62353 0.79024 1.00239 0.0
H149 H 0.50347 0.69264 0.95888 0.0
H150 H 0.47341 0.69865 0.92417 0.0
H151 H 0.54648 0.79346 0.85744 0.0
H152 H 0.62197 0.84978 0.85058 0.0
H153 H 0.73911 0.95211 0.89639 0.0
H154 H 0.74472 0.96937 0.93601 0.0
H155 H 0.72977 0.80166 0.91388 0.0
H156 H 0.61626 0.71197 0.88937 0.0
H157 H 0.59558 0.94242 0.91375 0.0
H158 H 0.52883 0.86803 0.96485 0.0
C159 C 0.68214 0.59688 0.21537 0.0
C160 C 0.66388 0.61616 0.2068 0.0
C161 C 0.68979 0.64388 0.19314 0.0
C162 C 0.72266 0.64082 0.19446 0.0
N163 N 0.71958 0.61312 0.20824 0.0
Co164 Co 0.76331 0.60494 0.21737 0.0
N165 N 0.80417 0.65395 0.20154 0.0
C166 C 0.79679 0.67663 0.18865 0.0
C167 C 0.8297 0.70778 0.17938 0.0
C168 C 0.86024 0.70464 0.18651 0.0
C169 C 0.84414 0.67157 0.19987 0.0
N170 N 0.80746 0.59638 0.22563 0.0
C171 C 0.84699 0.61796 0.22109 0.0
C172 C 0.86557 0.5982 0.22845 0.0
C173 C 0.83687 0.5627 0.23747 0.0
C174 C 0.80241 0.56267 0.23514 0.0
N175 N 0.72229 0.55668 0.23341 0.0
C176 C 0.72793 0.52865 0.24262 0.0
C177 C 0.69449 0.49792 0.25192 0.0
C178 C 0.66568 0.50683 0.24825 0.0
C179 C 0.68318 0.54267 0.23691 0.0
N180 N 0.75373 0.5678 0.19389 0.0
C181 C 0.74383 0.49896 0.1719 0.0
C182 C 0.71132 0.49933 0.18032 0.0
C183 C 0.71679 0.53406 0.19084 0.0
C184 C 0.78061 0.53584 0.17281 0.0
C185 C 0.78474 0.56979 0.18352 0.0
N186 N 0.77184 0.63982 0.24197 0.0
C187 C 0.78116 0.64632 0.27851 0.0
C188 C 0.76365 0.67018 0.28029 0.0
C189 C 0.75431 0.6821 0.2619 0.0
C190 C 0.75939 0.6674 0.24304 0.0
C191 C 0.7842 0.63109 0.25966 0.0
H192 H 0.75144 0.67723 0.22952 0.0
H193 H 0.7949 0.61047 0.25996 0.0
H194 H 0.69124 0.53229 0.19765 0.0
H195 H 0.81377 0.59662 0.18428 0.0
C196 C 0.75879 0.66858 0.18585 0.0
C197 C 0.66078 0.56018 0.2282 0.0
C198 C 0.86745 0.65524 0.20842 0.0
C199 C 0.76515 0.53274 0.24246 0.0
H200 H 0.63453 0.61031 0.20989 0.0
H201 H 0.68584 0.66512 0.18405 0.0
H202 H 0.83122 0.72981 0.16848 0.0
H203 H 0.89068 0.72368 0.18171 0.0
H204 H 0.89646 0.60793 0.22693 0.0
H205 H 0.84066 0.5395 0.24472 0.0
H206 H 0.69134 0.47193 0.26028 0.0
H207 H 0.63508 0.4886 0.25297 0.0
H208 H 0.68193 0.47227 0.17981 0.0
H209 H 0.80648 0.53834 0.16574 0.0
H210 H 0.79159 0.63793 0.29174 0.0
H211 H 0.74165 0.70132 0.26196 0.0
C212 C 0.10755 0.68898 0.56024 0.0
C213 C 0.07065 0.668 0.55094 0.0
C214 C 0.07149 0.69231 0.5356 0.0
C215 C 0.10824 0.72707 0.5367 0.0
N216 N 0.13086 0.72683 0.55191 0.0
Co217 Co 0.18247 0.775 0.56137 0.0
N218 N 0.1785 0.81414 0.54228 0.0
C219 C 0.15066 0.80284 0.52776 0.0
C220 C 0.1562 0.83394 0.51528 0.0
C221 C 0.19007 0.86749 0.5219 0.0
C222 C 0.20328 0.85522 0.53848 0.0
N223 N 0.23432 0.82388 0.57042 0.0
C224 C 0.25355 0.86464 0.56502 0.0
C225 C 0.28962 0.88665 0.57495 0.0
C226 C 0.29421 0.85896 0.58597 0.0
C227 C 0.26062 0.82159 0.58248 0.0
N228 N 0.18611 0.73553 0.58011 0.0
C229 C 0.21849 0.74413 0.59078 0.0
C230 C 0.21413 0.71097 0.60135 0.0
C231 C 0.17669 0.67916 0.59696 0.0
C232 C 0.16011 0.69468 0.58397 0.0
N233 N 0.21225 0.76353 0.54066 0.0
C234 C 0.27255 0.74947 0.52778 0.0
C235 C 0.23424 0.7167 0.53244 0.0
C236 C 0.20468 0.72433 0.53866 0.0
C237 C 0.27754 0.78871 0.52658 0.0
C238 C 0.24678 0.79478 0.53252 0.0
N239 N 0.15364 0.78493 0.58353 0.0
C240 C 0.14956 0.79309 0.6199 0.0
C241 C 0.1089 0.77761 0.61895 0.0
C242 C 0.09146 0.76822 0.59957 0.0
C243 C 0.11444 0.77301 0.58209 0.0
C244 C 0.17099 0.79622 0.60234 0.0
H245 H 0.09983 0.76552 0.56759 0.0
H246 H 0.20132 0.80575 0.60455 0.0
H247 H 0.17686 0.69853 0.54353 0.0
H248 H 0.25263 0.82556 0.53208 0.0
C249 C 0.11963 0.76267 0.52601 0.0
C250 C 0.12077 0.66893 0.57451 0.0
C251 C 0.24139 0.88291 0.54871 0.0
C252 C 0.25175 0.784 0.59095 0.0
H253 H 0.04603 0.63764 0.55453 0.0
H254 H 0.0476 0.68605 0.52537 0.0
H255 H 0.13828 0.83217 0.50245 0.0
H256 H 0.20384 0.89694 0.51445 0.0
H257 H 0.31114 0.91917 0.57375 0.0
H258 H 0.31928 0.86533 0.5953 0.0
H259 H 0.23565 0.70997 0.61107 0.0
H260 H 0.16331 0.64793 0.60241 0.0
H261 H 0.2274 0.68528 0.53232 0.0
H262 H 0.30573 0.81527 0.52244 0.0
H263 H 0.1647 0.80111 0.6344 0.0
H264 H 0.06028 0.75718 0.5979 0.0
C265 C 0.41169 0.17986 0.97168 0.0
C266 C 0.42777 0.1916 0.99106 0.0
C267 C 0.45582 0.23238 0.99032 0.0
C268 C 0.45762 0.24324 0.97039 0.0
N269 N 0.43229 0.21162 0.95848 0.0
Co270 Co 0.43605 0.20952 0.92841 0.0
N271 N 0.49117 0.25781 0.92793 0.0
C272 C 0.50796 0.28545 0.94302 0.0
C273 C 0.54522 0.31723 0.93862 0.0
C274 C 0.55241 0.30973 0.91935 0.0
C275 C 0.51892 0.27334 0.91299 0.0
N276 N 0.43993 0.20684 0.89841 0.0
C277 C 0.47174 0.22661 0.8857 0.0
C278 C 0.45976 0.21669 0.86564 0.0
C279 C 0.4193 0.19112 0.86584 0.0
C280 C 0.40861 0.18643 0.88596 0.0
N281 N 0.38094 0.16158 0.92957 0.0
C282 C 0.35578 0.14774 0.91379 0.0
C283 C 0.31925 0.11499 0.91899 0.0
C284 C 0.32183 0.10782 0.93927 0.0
C285 C 0.36014 0.13622 0.94539 0.0
N286 N 0.41511 0.24653 0.92411 0.0
C287 C 0.37348 0.2823 0.90775 0.0
C288 C 0.35885 0.25565 0.92462 0.0
C289 C 0.38002 0.23817 0.93255 0.0
C290 C 0.41091 0.29305 0.90051 0.0
C291 C 0.43135 0.27567 0.90907 0.0
N292 N 0.45557 0.17165 0.9313 0.0
C293 C 0.44675 0.10661 0.92159 0.0
C294 C 0.47948 0.1137 0.93305 0.0
C295 C 0.49927 0.15029 0.94447 0.0
C296 C 0.48663 0.17886 0.94347 0.0
C297 C 0.43628 0.13598 0.92044 0.0
H298 H 0.50212 0.2068 0.95226 0.0
H299 H 0.41224 0.12943 0.9105 0.0
H300 H 0.36689 0.21608 0.94473 0.0
H301 H 0.45937 0.28414 0.90242 0.0
C302 C 0.49056 0.27741 0.96209 0.0
C303 C 0.37545 0.13969 0.96644 0.0
C304 C 0.51259 0.25851 0.89184 0.0
C305 C 0.37024 0.1609 0.89395 0.0
H306 H 0.42199 0.17288 1.00439 0.0
H307 H 0.47582 0.25058 1.00242 0.0
H308 H 0.5651 0.3425 0.94838 0.0
H309 H 0.57895 0.32997 0.91087 0.0
H310 H 0.4782 0.22783 0.85221 0.0
H311 H 0.40007 0.1775 0.85285 0.0
H312 H 0.29423 0.09716 0.90906 0.0
H313 H 0.29819 0.08426 0.94839 0.0
H314 H 0.33037 0.24685 0.93111 0.0
H315 H 0.42429 0.3145 0.88804 0.0
H316 H 0.42919 0.07844 0.91309 0.0
H317 H 0.52464 0.15722 0.95367 0.0
C318 C 0.6286 0.69434 0.47103 0.0
C319 C 0.64935 0.67802 0.47986 0.0
C320 C 0.67483 0.70619 0.49348 0.0
C321 C 0.66943 0.73871 0.49175 0.0
N322 N 0.64227 0.73327 0.47772 0.0
Co323 Co 0.63364 0.7771 0.46668 0.0
N324 N 0.67943 0.82173 0.48256 0.0
C325 C 0.70221 0.8161 0.49576 0.0
C326 C 0.73312 0.85166 0.50353 0.0
C327 C 0.72948 0.88216 0.49522 0.0
C328 C 0.69578 0.86332 0.48317 0.0
N329 N 0.62562 0.8218 0.45597 0.0
C330 C 0.64484 0.86323 0.46011 0.0
C331 C 0.62486 0.88052 0.45149 0.0
C332 C 0.59223 0.84948 0.44196 0.0
C333 C 0.59361 0.81477 0.44531 0.0
N334 N 0.58814 0.73208 0.45096 0.0
C335 C 0.56076 0.73629 0.44106 0.0
C336 C 0.5313 0.70029 0.43266 0.0
C337 C 0.54037 0.67123 0.43768 0.0
C338 C 0.57515 0.69116 0.4488 0.0
N339 N 0.5961 0.76818 0.48907 0.0
C340 C 0.52499 0.75524 0.50632 0.0
C341 C 0.52947 0.72207 0.50122 0.0
C342 C 0.56526 0.72918 0.49294 0.0
C343 C 0.55875 0.79471 0.50506 0.0
C344 C 0.59413 0.80033 0.49699 0.0
N345 N 0.66862 0.78419 0.44316 0.0
C346 C 0.67189 0.77679 0.40661 0.0
C347 C 0.70127 0.76702 0.40879 0.0
C348 C 0.71674 0.77043 0.42842 0.0
C349 C 0.70058 0.77967 0.44522 0.0
C350 C 0.65618 0.7853 0.42383 0.0
H351 H 0.71269 0.78068 0.45994 0.0
H352 H 0.63195 0.78988 0.4214 0.0
H353 H 0.56664 0.70294 0.48819 0.0
H354 H 0.61888 0.83113 0.49605 0.0
C355 C 0.69538 0.77728 0.49964 0.0
C356 C 0.59308 0.66958 0.45845 0.0
C357 C 0.67851 0.88603 0.47446 0.0
C358 C 0.5648 0.77488 0.43937 0.0
H359 H 0.64611 0.64848 0.47693 0.0
H360 H 0.69649 0.70422 0.50262 0.0
H361 H 0.75579 0.855 0.51392 0.0
H362 H 0.749 0.91462 0.49815 0.0
H363 H 0.63171 0.91181 0.45284 0.0
H364 H 0.56932 0.85171 0.43421 0.0
H365 H 0.50612 0.69565 0.42396 0.0
H366 H 0.5229 0.63895 0.43392 0.0
H367 H 0.50479 0.69076 0.50242 0.0
H368 H 0.55764 0.82131 0.50982 0.0
H369 H 0.65904 0.77507 0.39186 0.0
H370 H 0.74032 0.76446 0.43096 0.0
C371 C 0.93571 0.58897 0.80534 0.0
C372 C 0.97137 0.60534 0.81576 0.0
C373 C 0.97021 0.62817 0.8313 0.0
C374 C 0.93493 0.62619 0.82911 0.0
N375 N 0.91339 0.60344 0.81311 0.0
Co376 Co 0.86537 0.60134 0.80182 0.0
N377 N 0.87308 0.64811 0.81953 0.0
C378 C 0.90023 0.66591 0.83439 0.0
C379 C 0.89959 0.69713 0.84423 0.0
C380 C 0.86937 0.69887 0.83553 0.0
C381 C 0.85297 0.66827 0.82078 0.0
N382 N 0.81675 0.59892 0.79116 0.0
C383 C 0.79967 0.62114 0.79613 0.0
C384 C 0.76354 0.60561 0.78645 0.0
C385 C 0.75684 0.57174 0.77578 0.0
C386 C 0.78925 0.56852 0.77937 0.0
N387 N 0.85889 0.55583 0.78386 0.0
C388 C 0.82613 0.53032 0.77319 0.0
C389 C 0.82926 0.50117 0.76256 0.0
C390 C 0.86638 0.50871 0.76676 0.0
C391 C 0.88415 0.54242 0.77965 0.0
N392 N 0.83089 0.55999 0.8227 0.0
C393 C 0.76111 0.49179 0.83872 0.0
C394 C 0.79146 0.48716 0.83067 0.0
C395 C 0.82636 0.52173 0.8231 0.0
C396 C 0.76937 0.53201 0.84127 0.0
C397 C 0.80435 0.56539 0.8335 0.0
N398 N 0.89836 0.64043 0.77992 0.0
C399 C 0.90926 0.65353 0.74366 0.0
C400 C 0.94901 0.6842 0.74659 0.0
C401 C 0.96208 0.69374 0.76689 0.0
C402 C 0.93645 0.67185 0.7832 0.0
C403 C 0.88474 0.63246 0.7603 0.0
H404 H 0.94808 0.67959 0.79839 0.0
H405 H 0.85498 0.6085 0.757 0.0
H406 H 0.84823 0.51671 0.81623 0.0
H407 H 0.80803 0.59505 0.83514 0.0
C408 C 0.92676 0.65355 0.83836 0.0
C409 C 0.92373 0.55871 0.78877 0.0
C410 C 0.81398 0.65401 0.81163 0.0
C411 C 0.7949 0.53744 0.77203 0.0
H412 H 0.99654 0.60254 0.81226 0.0
H413 H 0.99389 0.64704 0.84178 0.0
H414 H 0.91842 0.71591 0.85655 0.0
H415 H 0.85968 0.7192 0.84049 0.0
H416 H 0.74335 0.61662 0.78775 0.0
H417 H 0.73092 0.55129 0.7669 0.0
H418 H 0.80744 0.47764 0.75264 0.0
H419 H 0.87868 0.491 0.76115 0.0
H420 H 0.78729 0.45691 0.82897 0.0
H421 H 0.74793 0.53763 0.84837 0.0
H422 H 0.89689 0.64545 0.72852 0.0
H423 H 0.99238 0.7171 0.77029 0.0
C424 C 0.23929 0.85847 0.05511 0.0
C425 C 0.2332 0.84708 0.03472 0.0
C426 C 0.21417 0.80523 0.03394 0.0
C427 C 0.21129 0.79268 0.05362 0.0
N428 N 0.22717 0.82429 0.06683 0.0
Co429 Co 0.24053 0.82071 0.09565 0.0
N430 N 0.23838 0.76793 0.09117 0.0
C431 C 0.22049 0.74263 0.07535 0.0
C432 C 0.22182 0.70746 0.07615 0.0
C433 C 0.24115 0.7103 0.09383 0.0
C434 C 0.25065 0.7473 0.10292 0.0
N435 N 0.25366 0.81752 0.12445 0.0
C436 C 0.26383 0.79239 0.13377 0.0
C437 C 0.26821 0.79999 0.15453 0.0
C438 C 0.2592 0.82966 0.15831 0.0
C439 C 0.25013 0.83893 0.13973 0.0
N440 N 0.24313 0.87344 0.09961 0.0
C441 C 0.23836 0.88719 0.11752 0.0
C442 C 0.23733 0.92247 0.11556 0.0
C443 C 0.24221 0.93149 0.09513 0.0
C444 C 0.24713 0.90179 0.08568 0.0
N445 N 0.18349 0.79017 0.10363 0.0
C446 C 0.11101 0.76013 0.12484 0.0
C447 C 0.12452 0.79246 0.11077 0.0
C448 C 0.16011 0.80624 0.09998 0.0
C449 C 0.133 0.74107 0.12671 0.0
C450 C 0.16895 0.75653 0.11615 0.0
N451 N 0.29718 0.85189 0.08866 0.0
C452 C 0.36229 0.90991 0.09576 0.0
C453 C 0.37623 0.90556 0.077 0.0
C454 C 0.35023 0.87278 0.06444 0.0
C455 C 0.31099 0.84577 0.07074 0.0
C456 C 0.32281 0.88317 0.10119 0.0
H457 H 0.29149 0.82085 0.0608 0.0
H458 H 0.31273 0.88891 0.11529 0.0
H459 H 0.16996 0.83175 0.08966 0.0
H460 H 0.18609 0.74269 0.11933 0.0
C461 C 0.20746 0.75534 0.05888 0.0
C462 C 0.25466 0.90075 0.06348 0.0
C463 C 0.26506 0.75801 0.12399 0.0
C464 C 0.24138 0.86966 0.1357 0.0
H465 H 0.24417 0.86553 0.02131 0.0
H466 H 0.20823 0.78677 0.0204 0.0
H467 H 0.21051 0.68289 0.06509 0.0
H468 H 0.24621 0.68691 0.09967 0.0
H469 H 0.2759 0.78475 0.16585 0.0
H470 H 0.25944 0.84297 0.17288 0.0
H471 H 0.23475 0.94036 0.12756 0.0
H472 H 0.24251 0.95727 0.08809 0.0
H473 H 0.10837 0.80798 0.10864 0.0
H474 H 0.12393 0.71609 0.13737 0.0
H475 H 0.38143 0.93492 0.10587 0.0
H476 H 0.36007 0.86826 0.04985 0.0
C477 C 0.45409 0.35253 0.47395 0.0
C478 C 0.44375 0.3769 0.4849 0.0
C479 C 0.41031 0.35107 0.4955 0.0
C480 C 0.40153 0.31253 0.49025 0.0
N481 N 0.42748 0.31203 0.47716 0.0
Co482 Co 0.42002 0.26169 0.46349 0.0
N483 N 0.37985 0.22461 0.48396 0.0
C484 C 0.36129 0.23579 0.49727 0.0
C485 C 0.33968 0.20647 0.51154 0.0
C486 C 0.34455 0.17448 0.50701 0.0
C487 C 0.36787 0.18536 0.4896 0.0
N488 N 0.4109 0.21035 0.45028 0.0
C489 C 0.39425 0.1712 0.45772 0.0
C490 C 0.39402 0.14529 0.44285 0.0
C491 C 0.41131 0.16897 0.42582 0.0
C492 C 0.42098 0.20806 0.43103 0.0
N493 N 0.46033 0.29887 0.44324 0.0
C494 C 0.46608 0.28651 0.42511 0.0
C495 C 0.49472 0.31849 0.41378 0.0
C496 C 0.50726 0.35318 0.42538 0.0
C497 C 0.48537 0.34063 0.44319 0.0
N498 N 0.46342 0.26387 0.47967 0.0
C499 C 0.53227 0.27444 0.4987 0.0
C500 C 0.52107 0.2572 0.47942 0.0
C501 C 0.48755 0.25306 0.47014 0.0
C502 C 0.50771 0.28568 0.50863 0.0
C503 C 0.47294 0.27937 0.499 0.0
N504 N 0.37876 0.26076 0.44558 0.0
C505 C 0.32726 0.22504 0.42024 0.0
C506 C 0.3379 0.26218 0.41014 0.0
C507 C 0.3671 0.29837 0.41956 0.0
C508 C 0.38637 0.29701 0.43707 0.0
C509 C 0.34778 0.22501 0.43788 0.0
H510 H 0.40995 0.32595 0.44248 0.0
H511 H 0.34006 0.19588 0.44455 0.0
H512 H 0.48257 0.24259 0.45473 0.0
H513 H 0.45458 0.28821 0.5069 0.0
C514 C 0.37138 0.27642 0.49874 0.0
C515 C 0.48622 0.36926 0.45881 0.0
C516 C 0.37608 0.15704 0.47823 0.0
C517 C 0.44606 0.24438 0.42011 0.0
H518 H 0.45769 0.40995 0.48468 0.0
H519 H 0.39423 0.35942 0.50575 0.0
H520 H 0.32458 0.20917 0.52462 0.0
H521 H 0.33294 0.14707 0.5161 0.0
H522 H 0.3826 0.11271 0.44418 0.0
H523 H 0.41762 0.1591 0.41165 0.0
H524 H 0.50546 0.31683 0.3989 0.0
H525 H 0.52927 0.38422 0.421 0.0
H526 H 0.53948 0.24899 0.47096 0.0
H527 H 0.51551 0.29957 0.52356 0.0
H528 H 0.30399 0.1959 0.41433 0.0
H529 H 0.37736 0.32815 0.41286 0.0
C530 C 0.10509 0.44067 0.80974 0.0
C531 C 0.06858 0.42496 0.81925 0.0
C532 C 0.0674 0.40113 0.83489 0.0
C533 C 0.10225 0.4019 0.8337 0.0
N534 N 0.12579 0.42502 0.81823 0.0
Co535 Co 0.17454 0.42651 0.80855 0.0
N536 N 0.16417 0.37924 0.8265 0.0
C537 C 0.13422 0.3597 0.83983 0.0
C538 C 0.13188 0.32601 0.84869 0.0
C539 C 0.16312 0.3246 0.84099 0.0
C540 C 0.18322 0.35817 0.82814 0.0
N541 N 0.2242 0.42825 0.7998 0.0
C542 C 0.24142 0.40722 0.80683 0.0
C543 C 0.27929 0.42371 0.79913 0.0
C544 C 0.28666 0.45652 0.78734 0.0
C545 C 0.25305 0.45847 0.78849 0.0
N546 N 0.18352 0.47221 0.79008 0.0
C547 C 0.21723 0.49695 0.77991 0.0
C548 C 0.2156 0.52622 0.76857 0.0
C549 C 0.17845 0.51952 0.77176 0.0
C550 C 0.15918 0.48618 0.7848 0.0
N551 N 0.20696 0.4678 0.82992 0.0
C552 C 0.27548 0.53494 0.84739 0.0
C553 C 0.24675 0.54055 0.83805 0.0
C554 C 0.21238 0.50647 0.82973 0.0
C555 C 0.26608 0.49447 0.85033 0.0
C556 C 0.2316 0.4617 0.84189 0.0
N557 N 0.14339 0.38762 0.78616 0.0
C558 C 0.1348 0.37489 0.74976 0.0
C559 C 0.09451 0.3451 0.75207 0.0
C560 C 0.08005 0.33576 0.77214 0.0
C561 C 0.10476 0.35689 0.78879 0.0
C562 C 0.15848 0.39534 0.7668 0.0
H563 H 0.09185 0.34919 0.80369 0.0
H564 H 0.18878 0.41867 0.76405 0.0
H565 H 0.19185 0.51216 0.82186 0.0
H566 H 0.22685 0.43191 0.84381 0.0
C567 C 0.10796 0.37281 0.84305 0.0
C568 C 0.11906 0.47085 0.79303 0.0
C569 C 0.22465 0.37445 0.82244 0.0
C570 C 0.24824 0.48938 0.78013 0.0
H571 H 0.04422 0.42858 0.81499 0.0
H572 H 0.04241 0.38224 0.84469 0.0
H573 H 0.11048 0.30542 0.85975 0.0
H574 H 0.1721 0.30337 0.84557 0.0
H575 H 0.3001 0.41416 0.80238 0.0
H576 H 0.31394 0.47752 0.77953 0.0
H577 H 0.23848 0.54935 0.75891 0.0
H578 H 0.16712 0.53756 0.76541 0.0
H579 H 0.25199 0.57115 0.83591 0.0
H580 H 0.28644 0.4882 0.85816 0.0
H581 H 0.14819 0.38278 0.73483 0.0
H582 H 0.0493 0.31319 0.77511 0.0
C583 C 0.8031 0.16369 0.05864 0.0
C584 C 0.81983 0.17346 0.03943 0.0
C585 C 0.83843 0.2154 0.03765 0.0
C586 C 0.83206 0.22879 0.05584 0.0
N587 N 0.81096 0.19788 0.06894 0.0
Co588 Co 0.79415 0.20312 0.09653 0.0
N589 N 0.79947 0.2565 0.08979 0.0
C590 C 0.82025 0.2808 0.07406 0.0
C591 C 0.8196 0.31642 0.07333 0.0
C592 C 0.79745 0.31467 0.08976 0.0
C593 C 0.78583 0.27795 0.09969 0.0
N594 N 0.77869 0.20913 0.12437 0.0
C595 C 0.76817 0.23545 0.13178 0.0
C596 C 0.76182 0.23027 0.15256 0.0
C597 C 0.769 0.19996 0.15825 0.0
C598 C 0.77943 0.18829 0.1407 0.0
N599 N 0.78762 0.14889 0.10232 0.0
C600 C 0.78578 0.13336 0.12085 0.0
C601 C 0.77685 0.09329 0.11987 0.0
C602 C 0.77265 0.08329 0.09948 0.0
C603 C 0.77925 0.11783 0.08906 0.0
N604 N 0.85007 0.23214 0.10625 0.0
C605 C 0.92448 0.26904 0.1264 0.0
C606 C 0.90999 0.23258 0.11509 0.0
C607 C 0.87311 0.21501 0.10492 0.0
C608 C 0.90111 0.28675 0.12688 0.0
C609 C 0.86445 0.26798 0.117 0.0
N610 N 0.73817 0.1735 0.08805 0.0
C611 C 0.67115 0.12075 0.09615 0.0
C612 C 0.65834 0.12101 0.07636 0.0
C613 C 0.68643 0.15052 0.06283 0.0
C614 C 0.72609 0.17672 0.06904 0.0
C615 C 0.71064 0.14619 0.10146 0.0
H616 H 0.74718 0.19848 0.05829 0.0
H617 H 0.71881 0.14241 0.11646 0.0
H618 H 0.86284 0.18702 0.0964 0.0
H619 H 0.84721 0.28213 0.11886 0.0
C620 C 0.83616 0.26711 0.05919 0.0
C621 C 0.77957 0.12179 0.06664 0.0
C622 C 0.76658 0.26726 0.11974 0.0
C623 C 0.78355 0.15385 0.13821 0.0
H624 H 0.81784 0.15236 0.0278 0.0
H625 H 0.85235 0.23349 0.02417 0.0
H626 H 0.83315 0.34056 0.06207 0.0
H627 H 0.7916 0.33833 0.09426 0.0
H628 H 0.75323 0.24686 0.16255 0.0
H629 H 0.76575 0.18712 0.17328 0.0
H630 H 0.77155 0.07286 0.13249 0.0
H631 H 0.7652 0.05399 0.09306 0.0
H632 H 0.92711 0.21791 0.11398 0.0
H633 H 0.91059 0.31466 0.13542 0.0
H634 H 0.65101 0.10055 0.10772 0.0
H635 H 0.67843 0.15256 0.04736 0.0
H636 H 0.31821 0.73087 0.12348 0.0
H637 H 0.21008 0.70859 0.15196 0.0
H638 H 0.20337 0.64802 0.16953 0.0
H639 H 0.28603 0.6264 0.11432 0.0
H640 H 0.33278 0.63086 0.11959 0.0
H641 H 0.33153 0.67477 0.11059 0.0
H642 H 0.37181 0.71677 0.14186 0.0
H643 H 0.37351 0.6731 0.1509 0.0
H644 H 0.35423 0.69693 0.167 0.0
H645 H 0.20502 0.58679 0.18184 0.0
H646 H 0.21642 0.53061 0.18964 0.0
H647 H 0.32436 0.59079 0.15398 0.0
C648 C 0.29378 0.7138 0.13388 0.0
C649 C 0.26514 0.72517 0.13676 0.0
C650 C 0.23287 0.70122 0.14994 0.0
C651 C 0.22868 0.66653 0.15987 0.0
C652 C 0.25698 0.65578 0.15651 0.0
C653 C 0.28916 0.67884 0.14399 0.0
C654 C 0.31434 0.65928 0.14248 0.0
C655 C 0.31628 0.64711 0.12043 0.0
C656 C 0.35594 0.68825 0.15107 0.0
C657 C 0.29105 0.62143 0.15589 0.0
C658 C 0.25803 0.62018 0.16375 0.0
C659 C 0.23094 0.58767 0.17588 0.0
C660 C 0.23758 0.55565 0.18013 0.0
C661 C 0.27119 0.55588 0.17242 0.0
C662 C 0.29853 0.58968 0.16025 0.0
H663 H 0.70442 0.22812 0.52236 0.0
H664 H 0.78694 0.36004 0.51762 0.0
H665 H 0.73131 0.37037 0.51429 0.0
H666 H 0.63931 0.22663 0.48294 0.0
H667 H 0.59521 0.18627 0.49498 0.0
H668 H 0.64168 0.18916 0.49856 0.0
H669 H 0.63332 0.19045 0.53751 0.0
H670 H 0.58714 0.1883 0.53402 0.0
H671 H 0.62623 0.22942 0.54859 0.0
H672 H 0.66564 0.36745 0.51262 0.0
H673 H 0.59687 0.35005 0.50639 0.0
H674 H 0.55725 0.22063 0.50754 0.0
C675 C 0.71145 0.25934 0.52037 0.0
C676 C 0.75132 0.29314 0.52096 0.0
C677 C 0.75754 0.33319 0.51824 0.0
C678 C 0.72577 0.3396 0.51612 0.0
C679 C 0.6873 0.3058 0.51614 0.0
C680 C 0.68005 0.26635 0.51761 0.0
C681 C 0.63593 0.23513 0.51566 0.0
C682 C 0.62755 0.20768 0.49692 0.0
C683 C 0.61971 0.2093 0.53511 0.0
C684 C 0.61959 0.26323 0.51296 0.0
C685 C 0.6497 0.30395 0.51371 0.0
C686 C 0.64191 0.33563 0.51191 0.0
C687 C 0.60267 0.3255 0.5086 0.0
C688 C 0.57156 0.28406 0.50675 0.0
C689 C 0.5803 0.25259 0.50917 0.0
H690 H 0.44982 0.74413 0.89959 0.0
H691 H 0.53219 0.71593 0.8718 0.0
H692 H 0.47679 0.6564 0.85434 0.0
H693 H 0.37448 0.64128 0.90926 0.0
H694 H 0.33348 0.64782 0.90378 0.0
H695 H 0.37963 0.69078 0.91258 0.0
H696 H 0.3832 0.73279 0.88095 0.0
H697 H 0.33686 0.69008 0.8721 0.0
H698 H 0.37993 0.71184 0.85597 0.0
H699 H 0.41261 0.59664 0.84226 0.0
H700 H 0.34398 0.54192 0.83496 0.0
H701 H 0.30057 0.60708 0.86983 0.0
C702 C 0.45612 0.72601 0.88935 0.0
C703 C 0.49558 0.73536 0.88665 0.0
C704 C 0.5025 0.71009 0.87368 0.0
C705 C 0.47111 0.676 0.86381 0.0
C706 C 0.4326 0.66719 0.86701 0.0
C707 C 0.42488 0.6916 0.87932 0.0
C708 C 0.38039 0.67389 0.88083 0.0
C709 C 0.36616 0.66279 0.90292 0.0
C710 C 0.36945 0.70395 0.87193 0.0
C711 C 0.36434 0.63548 0.86769 0.0
C712 C 0.39518 0.63242 0.85993 0.0
C713 C 0.3883 0.59898 0.84812 0.0
C714 C 0.34908 0.56785 0.84414 0.0
C715 C 0.31667 0.56994 0.85179 0.0
C716 C 0.32459 0.60466 0.86358 0.0
H717 H 0.79766 0.47267 0.17231 0.0
H718 H 0.6804 0.43696 0.15072 0.0
H719 H 0.67214 0.37259 0.13727 0.0
H720 H 0.82403 0.43312 0.12895 0.0
H721 H 0.8513 0.41649 0.14386 0.0
H722 H 0.8476 0.45936 0.15223 0.0
H723 H 0.81914 0.42288 0.18663 0.0
H724 H 0.82235 0.37968 0.17826 0.0
H725 H 0.77574 0.37197 0.18691 0.0
H726 H 0.67681 0.31168 0.12536 0.0
H727 H 0.69559 0.26154 0.11492 0.0
H728 H 0.80977 0.33635 0.14357 0.0
C729 C 0.77033 0.45166 0.16457 0.0
C730 C 0.73961 0.46042 0.1628 0.0
C731 C 0.70424 0.43123 0.15274 0.0
C732 C 0.69929 0.39443 0.14491 0.0
C733 C 0.72993 0.38675 0.1471 0.0
C734 C 0.7649 0.4147 0.15658 0.0
C735 C 0.79355 0.39935 0.15659 0.0
C736 C 0.83135 0.42883 0.1447 0.0
C737 C 0.80326 0.3931 0.1784 0.0
C738 C 0.76931 0.35847 0.1456 0.0
C739 C 0.73259 0.35172 0.14032 0.0
C740 C 0.70537 0.3166 0.12959 0.0
C741 C 0.71612 0.2881 0.12382 0.0
C742 C 0.75365 0.29455 0.12884 0.0
C743 C 0.78046 0.33014 0.14 0.0
H744 H 0.49067 0.79969 0.49467 0.0
H745 H 0.46895 0.69548 0.53138 0.0
H746 H 0.40271 0.68248 0.54016 0.0
H747 H 0.44 0.83466 0.52741 0.0
H748 H 0.4199 0.84891 0.50666 0.0
H749 H 0.46592 0.85058 0.5035 0.0
H750 H 0.43716 0.80264 0.47227 0.0
H751 H 0.391 0.8007 0.47539 0.0
H752 H 0.39168 0.75379 0.47483 0.0
H753 H 0.33885 0.68119 0.54544 0.0
H754 H 0.2824 0.69097 0.5468 0.0
H755 H 0.34303 0.79428 0.50531 0.0
C756 C 0.47218 0.77441 0.50475 0.0
C757 C 0.48541 0.74868 0.51236 0.0
C758 C 0.45971 0.7155 0.5252 0.0
C759 C 0.42196 0.70794 0.53034 0.0
C760 C 0.4098 0.73359 0.52246 0.0
C761 C 0.4341 0.76616 0.50991 0.0
C762 C 0.41341 0.78856 0.50323 0.0
C763 C 0.43617 0.83334 0.51065 0.0
C764 C 0.40799 0.78627 0.48005 0.0
C765 C 0.37379 0.76367 0.51407 0.0
C766 C 0.37248 0.73218 0.52509 0.0
C767 C 0.33946 0.70549 0.53666 0.0
C768 C 0.30707 0.71112 0.53712 0.0
C769 C 0.30712 0.74303 0.5259 0.0
C770 C 0.34137 0.76957 0.51418 0.0
H771 H 0.58956 0.27663 0.88689 0.0
H772 H 0.50584 0.30784 0.86421 0.0
H773 H 0.55975 0.36714 0.84591 0.0
H774 H 0.6631 0.37657 0.89789 0.0
H775 H 0.7047 0.37193 0.89102 0.0
H776 H 0.65912 0.32732 0.89912 0.0
H777 H 0.65575 0.28964 0.8658 0.0
H778 H 0.70174 0.33389 0.85768 0.0
H779 H 0.65857 0.31355 0.84174 0.0
H780 H 0.62346 0.4283 0.83402 0.0
H781 H 0.69166 0.48481 0.82759 0.0
H782 H 0.73679 0.41709 0.85854 0.0
C783 C 0.58241 0.29485 0.87724 0.0
C784 C 0.54305 0.28667 0.87649 0.0
C785 C 0.53526 0.31249 0.8645 0.0
C786 C 0.56591 0.34664 0.85424 0.0
C787 C 0.60457 0.35499 0.85609 0.0
C788 C 0.61295 0.32961 0.8671 0.0
C789 C 0.65757 0.34787 0.86822 0.0
C790 C 0.67196 0.35642 0.89038 0.0
C791 C 0.66908 0.31955 0.85773 0.0
C792 C 0.67297 0.38775 0.85642 0.0
C793 C 0.64171 0.39099 0.84952 0.0
C794 C 0.64807 0.42579 0.83918 0.0
C795 C 0.68711 0.45802 0.83575 0.0
C796 C 0.71997 0.45586 0.8426 0.0
C797 C 0.71254 0.41976 0.85292 0.0
H798 H 0.60168 0.53653 0.25816 0.0
H799 H 0.61882 0.52941 0.19354 0.0
H800 H 0.55043 0.51151 0.18709 0.0
H801 H 0.4971 0.44297 0.25598 0.0
H802 H 0.47973 0.46212 0.27593 0.0
H803 H 0.53047 0.47504 0.27572 0.0
H804 H 0.55312 0.55204 0.27696 0.0
H805 H 0.50247 0.5394 0.27649 0.0
H806 H 0.53683 0.57316 0.25749 0.0
H807 H 0.48719 0.51145 0.18706 0.0
H808 H 0.41869 0.49376 0.19302 0.0
H809 H 0.43201 0.48 0.2574 0.0
C810 C 0.59055 0.52983 0.24276 0.0
C811 C 0.61624 0.53584 0.22624 0.0
C812 C 0.60013 0.52595 0.20636 0.0
C813 C 0.56141 0.51624 0.20251 0.0
C814 C 0.53788 0.51374 0.21882 0.0
C815 C 0.55064 0.51731 0.23865 0.0
C816 C 0.51688 0.50818 0.25323 0.0
C817 C 0.50535 0.46979 0.26597 0.0
C818 C 0.52801 0.54542 0.26685 0.0
C819 C 0.48396 0.50037 0.2384 0.0
C820 C 0.49779 0.50575 0.2187 0.0
C821 C 0.4753 0.50516 0.20233 0.0
C822 C 0.43651 0.49551 0.20591 0.0
C823 C 0.41924 0.48372 0.2255 0.0
C824 C 0.44394 0.48791 0.24217 0.0
H825 H 0.08249 0.60845 0.60521 0.0
H826 H 0.11033 0.62341 0.54088 0.0
H827 H 0.05976 0.55087 0.53504 0.0
H828 H 0.07094 0.50277 0.60571 0.0
H829 H 0.03327 0.48358 0.62508 0.0
H830 H 0.07117 0.5373 0.62451 0.0
H831 H 1.01684 0.55567 0.62356 0.0
H832 H 0.9788 0.50199 0.6235 0.0
H833 H 0.98046 0.53521 0.60356 0.0
H834 H 0.99669 0.48248 0.535 0.0
H835 H 0.94566 0.41034 0.54136 0.0
H836 H 0.96851 0.4293 0.60609 0.0
C837 C 0.07876 0.59608 0.59002 0.0
C838 C 0.09964 0.6224 0.57334 0.0
C839 C 0.09423 0.60446 0.55381 0.0
C840 C 0.06517 0.56326 0.55028 0.0
C841 C 0.04311 0.53902 0.56664 0.0
C842 C 0.05126 0.5537 0.58631 0.0
C843 C 0.02569 0.5187 0.60113 0.0
C844 C 0.05182 0.51007 0.61493 0.0
C845 C 0.99887 0.5285 0.61369 0.0
C846 C 1.00127 0.48282 0.58656 0.0
C847 C 1.01093 0.49628 0.56675 0.0
C848 C 0.9901 0.47104 0.55042 0.0
C849 C 0.96075 0.43008 0.55423 0.0
C850 C 0.95378 0.41335 0.57412 0.0
C851 C 0.9734 0.44071 0.59066 0.0
H852 H 0.51218 0.08699 0.96305 0.0
H853 H 0.47845 0.07186 0.89934 0.0
H854 H 0.4868 1.01302 0.89693 0.0
H855 H 0.5912 0.06439 0.95362 0.0
H856 H 0.58457 0.0389 0.97762 0.0
H857 H 0.57339 0.07889 0.97535 0.0
H858 H 0.50283 0.02888 0.98888 0.0
H859 H 0.51354 0.98847 0.99078 0.0
H860 H 0.47182 0.98068 0.97605 0.0
H861 H 0.49204 0.95293 0.9012 0.0
H862 H 0.51473 0.90543 0.90869 0.0
H863 H 0.55672 0.96238 0.96774 0.0
C864 C 0.50691 0.07151 0.94857 0.0
C865 C 0.49237 0.08303 0.93168 0.0
C866 C 0.48717 0.0625 0.91289 0.0
C867 C 0.49203 0.02894 0.91127 0.0
C868 C 0.50386 0.01682 0.92833 0.0
C869 C 0.51308 0.03829 0.9464 0.0
C870 C 0.52937 0.02038 0.96153 0.0
C871 C 0.57218 0.05256 0.96737 0.0
C872 C 0.5028 1.00361 0.98043 0.0
C873 C 0.52741 0.98559 0.94901 0.0
C874 C 0.51134 0.98376 0.93015 0.0
C875 C 0.50526 0.95431 0.91578 0.0
C876 C 0.51795 0.92725 0.92024 0.0
C877 C 0.53755 0.93026 0.93871 0.0
C878 C 0.54141 0.9591 0.9536 0.0
H879 H 0.56337 0.60653 0.42837 0.0
H880 H 0.57248 0.62558 0.49361 0.0
H881 H 0.55777 0.55513 0.49873 0.0
H882 H 0.47292 0.50002 0.43572 0.0
H883 H 0.48332 0.47975 0.41342 0.0
H884 H 0.49814 0.53313 0.4144 0.0
H885 H 0.56995 0.55314 0.40626 0.0
H886 H 0.55553 0.49982 0.40595 0.0
H887 H 0.59455 0.53541 0.42259 0.0
H888 H 0.55694 0.48854 0.49616 0.0
H889 H 0.53309 0.41566 0.48965 0.0
H890 H 0.5006 0.42815 0.42836 0.0
C891 C 0.56136 0.59562 0.44375 0.0
C892 C 0.57177 0.623 0.46057 0.0
C893 C 0.56691 0.60635 0.4804 0.0
C894 C 0.55878 0.56629 0.4835 0.0
C895 C 0.55205 0.54137 0.46668 0.0
C896 C 0.54991 0.55404 0.44734 0.0
C897 C 0.53497 0.51781 0.4326 0.0
C898 C 0.49495 0.50703 0.42349 0.0
C899 C 0.56558 0.52712 0.41585 0.0
C900 C 0.53054 0.48364 0.44667 0.0
C901 C 0.54275 0.49905 0.466 0.0
C902 C 0.5457 0.47558 0.4813 0.0
C903 C 0.53265 0.43425 0.47734 0.0
C904 C 0.51408 0.41549 0.4587 0.0
C905 C 0.5145 0.44116 0.44281 0.0
H906 H 0.95567 0.52763 0.81535 0.0
H907 H 0.95028 0.54952 0.75123 0.0
H908 H 0.99904 0.52851 0.74422 0.0
H909 H 0.0615 0.58199 0.81428 0.0
H910 H 0.06503 0.55158 0.83417 0.0
H911 H 0.02369 0.559 0.83354 0.0
H912 H 0.97483 0.48023 0.83341 0.0
H913 H 1.01601 0.47259 0.83442 0.0
H914 H 0.97997 0.44924 0.81439 0.0
H915 H 0.04804 0.50037 0.74535 0.0
H916 H 0.09589 0.47926 0.75446 0.0
H917 H 0.08574 0.50341 0.81777 0.0
C918 C 0.96473 0.52825 0.79977 0.0
C919 C 0.94913 0.5407 0.78388 0.0
C920 C 0.9614 0.53991 0.76371 0.0
C921 C 0.98943 0.52835 0.75962 0.0
C922 C 1.00624 0.51921 0.77593 0.0
C923 C 0.99492 0.52034 0.79566 0.0
C924 C 1.02102 0.51555 0.81082 0.0
C925 C 0.04418 0.55434 0.82397 0.0
C926 C 0.99649 0.47712 0.82403 0.0
C927 C 0.04829 0.51036 0.79664 0.0
C928 C 0.03852 0.51086 0.77655 0.0
C929 C 0.05647 0.50106 0.76104 0.0
C930 C 0.08398 0.48945 0.76632 0.0
C931 C 0.09461 0.48925 0.78687 0.0
C932 C 0.078 0.50243 0.80193 0.0
H933 H 0.44538 0.92036 0.09404 0.0
H934 H 0.39921 0.96161 0.04625 0.0
H935 H 0.46715 0.01954 0.03878 0.0
H936 H 0.51635 0.01624 0.11278 0.0
H937 H 0.55348 1.00346 0.11767 0.0
H938 H 0.50198 0.96383 0.11798 0.0
H939 H 0.51483 0.92277 0.09087 0.0
H940 H 0.56654 0.96212 0.09065 0.0
H941 H 0.53867 0.9473 0.06732 0.0
H942 H 0.54042 0.07835 0.03982 0.0
H943 H 0.61083 0.128 0.04737 0.0
H944 H 0.60904 0.0428 0.0918 0.0
C945 C 0.4498 0.94112 0.08171 0.0
C946 C 0.41725 0.93646 0.07059 0.0
C947 C 0.42394 0.96443 0.05473 0.0
C948 C 0.46238 0.99749 0.05047 0.0
C949 C 0.49393 1.00173 0.06199 0.0
C950 C 0.488 0.97368 0.07701 0.0
C951 C 0.52647 0.98526 0.08749 0.0
C952 C 0.52443 0.99264 0.11033 0.0
C953 C 0.53726 0.95241 0.08386 0.0
C954 C 0.55482 0.02489 0.07655 0.0
C955 C 0.53571 0.03414 0.06193 0.0
C956 C 0.55573 0.0709 0.05101 0.0
C957 C 0.59601 0.09897 0.05535 0.0
C958 C 0.61622 0.09017 0.07041 0.0
C959 C 0.59502 0.05179 0.0806 0.0
H960 H 0.29924 0.37163 0.31551 0.0
H961 H 0.25681 0.25884 0.28121 0.0
H962 H 0.26748 0.22705 0.31111 0.0
H963 H 0.37366 0.36773 0.34393 0.0
H964 H 0.3647 0.38692 0.36707 0.0
H965 H 0.35404 0.40107 0.34289 0.0
H966 H 0.28188 0.37347 0.35429 0.0
H967 H 0.29236 0.35934 0.37854 0.0
H968 H 0.25217 0.32133 0.36324 0.0
H969 H 0.28527 0.2077 0.34529 0.0
H970 H 0.30711 0.20298 0.37964 0.0
H971 H 0.33135 0.32579 0.39274 0.0
C972 C 0.29147 0.34001 0.31416 0.0
C973 C 0.27722 0.31827 0.29547 0.0
C974 C 0.2685 0.27706 0.29486 0.0
C975 C 0.27415 0.25838 0.31197 0.0
C976 C 0.28822 0.28077 0.32998 0.0
C977 C 0.29645 0.32064 0.3312 0.0
C978 C 0.31108 0.33805 0.35238 0.0
C979 C 0.35338 0.37567 0.35151 0.0
C980 C 0.28267 0.34867 0.36272 0.0
C981 C 0.31019 0.30196 0.36284 0.0
C982 C 0.29704 0.26922 0.34967 0.0
C983 C 0.29514 0.23312 0.35574 0.0
C984 C 0.30737 0.23058 0.37556 0.0
C985 C 0.32124 0.26379 0.38953 0.0
C986 C 0.3218 0.29969 0.38282 0.0
H987 H 1.00789 0.32368 0.63773 0.0
H988 H 0.91479 0.2007 0.65437 0.0
H989 H 0.94553 0.2093 0.68806 0.0
H990 H 0.08874 0.32342 0.665 0.0
H991 H 0.11152 0.37613 0.6731 0.0
H992 H 0.0837 0.35972 0.64977 0.0
H993 H 0.03963 0.38681 0.6626 0.0
H994 H 0.06725 0.40322 0.68597 0.0
H995 H 1.01435 0.36893 0.68659 0.0
H996 H 0.98564 0.23144 0.72051 0.0
H997 H 0.03076 0.26551 0.74926 0.0
H998 H 0.09725 0.37621 0.71305 0.0
C999 C 0.99438 0.29835 0.64836 0.0
C1000 C 0.95886 0.26124 0.64318 0.0
C1001 C 0.94183 0.22931 0.65782 0.0
C1002 C 0.95918 0.23393 0.67706 0.0
C1003 C 0.99371 0.27091 0.68179 0.0
C1004 C 1.01116 0.30268 0.66789 0.0
C1005 C 0.04732 0.33987 0.6773 0.0
C1006 C 0.08506 0.3504 0.66559 0.0
C1007 C 0.04179 0.3769 0.67816 0.0
C1008 C 0.04742 0.32403 0.69858 0.0
C1009 C 1.0163 0.28408 0.70075 0.0
C1010 C 1.00999 0.26282 0.71896 0.0
C1011 C 0.03581 0.28275 0.73539 0.0
C1012 C 0.06788 0.32402 0.73388 0.0
C1013 C 0.07357 0.34462 0.71496 0.0
H1014 H 0.73798 0.93464 0.9912 0.0
H1015 H 0.65318 0.95524 0.96042 0.0
H1016 H 0.66654 1.01002 0.98517 0.0
H1017 H 0.71443 0.94944 0.04217 0.0
H1018 H 0.76472 0.97561 0.05121 0.0
H1019 H 0.74972 0.93896 0.03078 0.0
H1020 H 0.80526 0.99393 1.00793 0.0
H1021 H 0.82075 0.03056 0.02838 0.0
H1022 H 0.80846 0.04236 1.00399 0.0
H1023 H 0.68793 0.0617 0.01395 0.0
H1024 H 0.71931 0.10994 0.04251 0.0
H1025 H 0.79073 0.05712 0.05569 0.0
C1026 C 0.72248 0.95096 0.98962 0.0
C1027 C 0.69439 0.94054 0.97377 0.0
C1028 C 0.67494 0.96279 0.97224 0.0
C1029 C 0.68218 0.99379 0.98637 0.0
C1030 C 0.70924 1.00264 1.00209 0.0
C1031 C 0.72948 0.98221 1.00367 0.0
C1032 C 0.75724 0.99803 0.02198 0.0
C1033 C 0.74584 0.96344 0.03745 0.0
C1034 C 0.8005 0.01737 0.01516 0.0
C1035 C 0.74946 0.03046 0.03049 0.0
C1036 C 0.72145 0.03233 0.01876 0.0
C1037 C 0.70968 0.06019 0.02323 0.0
C1038 C 0.72744 0.08735 0.03968 0.0
C1039 C 0.75669 0.08682 0.05185 0.0
C1040 C 0.7676 0.05758 0.04717 0.0
H1041 H 0.71693 0.79159 0.36785 0.0
H1042 H 0.7098 0.70056 0.41004 0.0
H1043 H 0.7241 0.66713 0.38215 0.0
H1044 H 0.67267 0.72359 0.32477 0.0
H1045 H 0.70516 0.76024 0.30609 0.0
H1046 H 0.69435 0.77781 0.32924 0.0
H1047 H 0.76912 0.82285 0.33703 0.0
H1048 H 0.78016 0.80557 0.31386 0.0
H1049 H 0.79873 0.79954 0.33776 0.0
H1050 H 0.73452 0.64027 0.34971 0.0
H1051 H 0.74729 0.62508 0.31559 0.0
H1052 H 0.75469 0.73617 0.29308 0.0
C1053 C 0.71856 0.76472 0.37122 0.0
C1054 C 0.71243 0.74905 0.39141 0.0
C1055 C 0.71495 0.71379 0.39498 0.0
C1056 C 0.72278 0.69429 0.37912 0.0
C1057 C 0.72857 0.71034 0.35954 0.0
C1058 C 0.72713 0.74506 0.35547 0.0
C1059 C 0.73547 0.7561 0.33294 0.0
C1060 C 0.69978 0.75433 0.32265 0.0
C1061 C 0.77311 0.79854 0.33024 0.0
C1062 C 0.74152 0.72201 0.32504 0.0
C1063 C 0.7369 0.69587 0.34074 0.0
C1064 C 0.73922 0.66116 0.33741 0.0
C1065 C 0.74714 0.65312 0.31773 0.0
C1066 C 0.75387 0.68001 0.30117 0.0
C1067 C 0.75035 0.71486 0.30508 0.0
H1068 H 0.04 0.70816 0.63314 0.0
H1069 H 0.12716 0.83391 0.64912 0.0
H1070 H 0.09531 0.82432 0.6826 0.0
H1071 H 0.95549 0.70312 0.65974 0.0
H1072 H 0.93556 0.651 0.66817 0.0
H1073 H 0.9635 0.66833 0.64488 0.0
H1074 H 1.01089 0.64598 0.65828 0.0
H1075 H 0.98324 0.62878 0.68164 0.0
H1076 H 0.03562 0.66575 0.68225 0.0
H1077 H 0.05546 0.80055 0.71521 0.0
H1078 H 1.01061 0.76497 0.74397 0.0
H1079 H 0.94968 0.65318 0.70808 0.0
C1080 C 0.05184 0.73389 0.64354 0.0
C1081 C 0.08609 0.77206 0.63827 0.0
C1082 C 0.10106 0.80451 0.65264 0.0
C1083 C 0.0831 0.79932 0.67177 0.0
C1084 C 0.05 0.76127 0.67665 0.0
C1085 C 0.03438 0.72906 0.66295 0.0
C1086 C 0.99947 0.69086 0.67247 0.0
C1087 C 0.96124 0.67755 0.66061 0.0
C1088 C 1.00782 0.65577 0.67373 0.0
C1089 C 0.99801 0.70661 0.69358 0.0
C1090 C 0.02741 0.74737 0.69561 0.0
C1091 C 0.03236 0.76859 0.71374 0.0
C1092 C 1.00676 0.74785 0.73016 0.0
C1093 C 0.97621 0.70591 0.72869 0.0
C1094 C 0.9721 0.68529 0.70992 0.0
H1095 H 0.24355 0.91812 0.02168 0.0
H1096 H 0.31081 0.979 0.07615 0.0
H1097 H 0.33728 0.04509 0.05858 0.0
H1098 H 0.34142 0.98049 0.99296 0.0
H1099 H 0.31632 0.97751 0.96961 0.0
H1100 H 0.29376 0.93574 0.98755 0.0
H1101 H 0.23156 0.94156 0.98805 0.0
H1102 H 0.2544 0.98434 0.97072 0.0
H1103 H 0.23624 0.9897 0.99493 0.0
H1104 H 0.33983 0.10366 0.03484 0.0
H1105 H 0.35712 0.15087 1.00597 0.0
H1106 H 0.33171 0.05225 0.96428 0.0
C1107 C 0.26673 0.94341 0.02989 0.0
C1108 C 0.27434 0.94087 0.05094 0.0
C1109 C 0.3018 0.97864 0.06061 0.0
C1110 C 0.31766 0.01678 0.05061 0.0
C1111 C 0.3096 0.01723 0.03003 0.0
C1112 C 0.28786 0.98122 0.0194 0.0
C1113 C 0.29161 0.98986 0.99654 0.0
C1114 C 0.312 0.96971 0.98604 0.0
C1115 C 0.25102 0.97549 0.98701 0.0
C1116 C 0.31778 0.03665 0.99615 0.0
C1117 C 0.32487 0.05156 0.01578 0.0
C1118 C 0.33876 0.09278 0.01952 0.0
C1119 C 0.34951 0.11972 1.00292 0.0
C1120 C 0.35219 0.10732 0.98289 0.0
C1121 C 0.33354 0.06416 0.97942 0.0
H1122 H 0.95522 0.23581 0.15343 0.0
H1123 H 0.98262 0.34999 0.1247 0.0
H1124 H 0.04469 0.38708 0.14426 0.0
H1125 H 0.99275 0.27935 0.20314 0.0
H1126 H 1.01295 0.24754 0.20856 0.0
H1127 H 0.97098 0.22904 0.19188 0.0
H1128 H 1.00887 0.21632 0.1636 0.0
H1129 H 0.05079 0.23443 0.18027 0.0
H1130 H 0.05682 0.25781 0.15571 0.0
H1131 H 0.10456 0.4126 0.16695 0.0
H1132 H 0.1585 0.42364 0.1899 0.0
H1133 H 0.09244 0.29469 0.20613 0.0
C1134 C 0.97456 0.26852 0.15108 0.0
C1135 C 0.96375 0.28984 0.13735 0.0
C1136 C 0.98986 0.33283 0.13508 0.0
C1137 C 0.02532 0.35426 0.14618 0.0
C1138 C 0.03473 0.33265 0.15982 0.0
C1139 C 1.01019 0.2907 0.16233 0.0
C1140 C 0.02738 0.27524 0.17827 0.0
C1141 C 0.99933 0.25669 0.19655 0.0
C1142 C 0.0365 0.2441 0.1689 0.0
C1143 C 0.06536 0.31489 0.18417 0.0
C1144 C 0.06895 0.34759 0.17326 0.0
C1145 C 0.10194 0.3871 0.17554 0.0
C1146 C 0.13253 0.39318 0.18873 0.0
C1147 C 0.13045 0.3601 0.19969 0.0
C1148 C 0.09547 0.32065 0.1978 0.0
H1149 H 0.7671 0.06939 0.55858 0.0
H1150 H 0.79471 0.15445 0.50883 0.0
H1151 H 0.7611 0.09641 0.48493 0.0
H1152 H 0.78108 0.99726 0.53187 0.0
H1153 H 0.74024 0.9519 0.54315 0.0
H1154 H 0.76389 0.99974 0.5569 0.0
H1155 H 0.69666 0.99508 0.56087 0.0
H1156 H 0.67273 0.94699 0.54729 0.0
H1157 H 0.66752 0.98876 0.53862 0.0
H1158 H 0.73189 0.02863 0.46525 0.0
H1159 H 0.70384 0.9576 0.45256 0.0
H1160 H 0.68713 0.91389 0.51464 0.0
C1161 C 0.76499 0.07572 0.54277 0.0
C1162 C 0.78348 0.11709 0.53581 0.0
C1163 C 0.78059 0.1235 0.51478 0.0
C1164 C 0.76167 0.0905 0.50096 0.0
C1165 C 0.74474 0.05035 0.50814 0.0
C1166 C 0.74544 0.04271 0.52864 0.0
C1167 C 0.72529 0.9964 0.53217 0.0
C1168 C 0.75436 0.98571 0.54159 0.0
C1169 C 0.68835 0.98089 0.54554 0.0
C1170 C 0.71401 0.97948 0.51054 0.0
C1171 C 0.72587 1.01121 0.49688 0.0
C1172 C 0.72163 1.00355 0.47593 0.0
C1173 C 0.70524 0.96281 0.46879 0.0
C1174 C 0.69223 0.92934 0.48238 0.0
C1175 C 0.69625 0.93832 0.50365 0.0
H1176 H 0.81604 0.72768 0.81884 0.0
H1177 H 0.74637 0.59712 0.83129 0.0
H1178 H 0.70445 0.60862 0.85481 0.0
H1179 H 0.81711 0.75955 0.87003 0.0
H1180 H 0.81394 0.80369 0.86357 0.0
H1181 H 0.83629 0.78524 0.84608 0.0
H1182 H 0.78766 0.77831 0.81792 0.0
H1183 H 0.76544 0.7972 0.83524 0.0
H1184 H 0.73518 0.74849 0.82272 0.0
H1185 H 0.67178 0.63449 0.87854 0.0
H1186 H 0.64894 0.67205 0.89937 0.0
H1187 H 0.7412 0.78724 0.87369 0.0
C1188 C 0.79168 0.70146 0.82637 0.0
C1189 C 0.78494 0.66135 0.82323 0.0
C1190 C 0.75244 0.62804 0.83334 0.0
C1191 C 0.7285 0.63436 0.84686 0.0
C1192 C 0.73713 0.67435 0.85034 0.0
C1193 C 0.7678 0.7074 0.84029 0.0
C1194 C 0.77161 0.74743 0.84747 0.0
C1195 C 0.81215 0.77565 0.85738 0.0
C1196 C 0.76455 0.76914 0.82978 0.0
C1197 C 0.7384 0.73177 0.86313 0.0
C1198 C 0.71884 0.68942 0.86442 0.0
C1199 C 0.6869 0.66762 0.87758 0.0
C1200 C 0.67412 0.68932 0.88942 0.0
C1201 C 0.69317 0.73273 0.88837 0.0
C1202 C 0.72621 0.75417 0.87513 0.0
H1203 H 0.89708 0.62411 0.17987 0.0
H1204 H 0.93211 0.72856 0.21924 0.0
H1205 H 0.99756 0.76594 0.2024 0.0
H1206 H 0.9968 0.63506 0.17815 0.0
H1207 H 0.99129 0.61919 0.15196 0.0
H1208 H 0.94834 0.59968 0.16807 0.0
H1209 H 0.91688 0.62568 0.14239 0.0
H1210 H 0.95993 0.64586 0.12636 0.0
H1211 H 0.94333 0.67913 0.13526 0.0
H1212 H 0.05629 0.79534 0.17844 0.0
H1213 H 0.10793 0.81092 0.15276 0.0
H1214 H 0.03874 0.68635 0.12997 0.0
C1215 C 0.91909 0.65432 0.18536 0.0
C1216 C 0.90958 0.67324 0.20114 0.0
C1217 C 0.93889 0.71324 0.20749 0.0
C1218 C 0.97606 0.73484 0.19784 0.0
C1219 C 0.98411 0.71598 0.18193 0.0
C1220 C 0.95685 0.67622 0.17603 0.0
C1221 C 0.97314 0.6634 0.15835 0.0
C1222 C 0.97766 0.62718 0.1645 0.0
C1223 C 0.94674 0.6529 0.13948 0.0
C1224 C 1.0134 0.70235 0.15499 0.0
C1225 C 1.01882 0.73241 0.16866 0.0
C1226 C 0.05253 0.77176 0.16791 0.0
C1227 C 0.08167 0.78048 0.15314 0.0
C1228 C 0.07764 0.75003 0.13932 0.0
C1229 C 0.04289 0.71029 0.14037 0.0
H1230 H 0.22995 0.94821 0.54049 0.0
H1231 H 0.31776 0.91355 0.53456 0.0
H1232 H 0.36198 0.97876 0.51648 0.0
H1233 H 0.24357 0.9854 0.48884 0.0
H1234 H 0.2335 0.0253 0.49467 0.0
H1235 H 0.21148 0.97917 0.50975 0.0
H1236 H 0.24136 0.02266 0.5423 0.0
H1237 H 0.26333 0.06892 0.52731 0.0
H1238 H 0.29388 0.05887 0.5436 0.0
H1239 H 0.39809 0.05156 0.49896 0.0
H1240 H 0.41848 0.11834 0.4825 0.0
H1241 H 0.30065 0.09609 0.49212 0.0
C1242 C 0.2586 0.95434 0.53552 0.0
C1243 C 0.27018 0.92527 0.53944 0.0
C1244 C 0.3081 0.93514 0.5324 0.0
C1245 C 0.3334 0.97218 0.52183 0.0
C1246 C 0.32033 0.9992 0.5176 0.0
C1247 C 0.28334 0.99014 0.52394 0.0
C1248 C 0.27445 0.02194 0.51576 0.0
C1249 C 0.23862 1.00175 0.5014 0.0
C1250 C 0.26786 0.04442 0.53329 0.0
C1251 C 0.31242 0.05084 0.50421 0.0
C1252 C 0.33899 0.03783 0.50579 0.0
C1253 C 0.37708 0.06148 0.49753 0.0
C1254 C 0.38845 0.09946 0.48801 0.0
C1255 C 0.36183 0.11372 0.48626 0.0
C1256 C 0.32261 0.0875 0.49372 0.0
H1257 H 0.27535 0.3436 0.81624 0.0
H1258 H 0.2301 0.38759 0.86362 0.0
H1259 H 0.26363 0.37067 0.88933 0.0
H1260 H 0.26563 0.25861 0.84414 0.0
H1261 H 0.31088 0.26329 0.83527 0.0
H1262 H 0.28555 0.28126 0.81969 0.0
H1263 H 0.34892 0.35335 0.81787 0.0
H1264 H 0.37458 0.33547 0.83329 0.0
H1265 H 0.37277 0.37982 0.84105 0.0
H1266 H 0.29694 0.34374 0.91099 0.0
H1267 H 0.33354 0.31433 0.92655 0.0
H1268 H 0.36106 0.28896 0.86653 0.0
C1269 C 0.27342 0.35073 0.83195 0.0
C1270 C 0.25039 0.36812 0.83749 0.0
C1271 C 0.24803 0.37556 0.85848 0.0
C1272 C 0.26679 0.36554 0.87345 0.0
C1273 C 0.28849 0.34799 0.86759 0.0
C1274 C 0.29249 0.34106 0.84735 0.0
C1275 C 0.31735 0.32111 0.84554 0.0
C1276 C 0.29342 0.27854 0.83557 0.0
C1277 C 0.35569 0.34911 0.83373 0.0
C1278 C 0.32602 0.31759 0.86785 0.0
C1279 C 0.30874 0.3331 0.88025 0.0
C1280 C 0.31097 0.33189 0.9014 0.0
C1281 C 0.33167 0.31482 0.91016 0.0
C1282 C 0.35052 0.29936 0.89793 0.0
C1283 C 0.34752 0.30095 0.8764 0.0
loop_
_geom_bond_atom_site_label_1
_geom_bond_atom_site_label_2
_geom_bond_distance
_geom_bond_site_symmetry_2
_ccdc_geom_bond_type
C0 C1 1.443 . S
C0 N4 1.376 . S
C0 C38 1.389 . S
C1 C0 1.443 . S
C1 C2 1.340 . S
C1 H41 0.951 . S
C2 C1 1.340 . S
C2 C3 1.439 . S
C2 H42 0.950 . S
C3 C2 1.439 . S
C3 N4 1.374 . S
C3 C37 1.395 . S
N4 C0 1.376 . S
N4 C3 1.374 . S
N4 Co5 2.008 . S
Co5 N4 2.008 . S
Co5 N6 1.995 . S
Co5 N11 2.008 . S
Co5 N16 1.995 . S
Co5 N21 2.282 . S
Co5 N27 2.282 . S
N6 Co5 1.995 . S
N6 C7 1.376 . S
N6 C10 1.383 . S
C7 N6 1.376 . S
C7 C8 1.446 . S
C7 C37 1.391 . S
C8 C7 1.446 . S
C8 C9 1.339 . S
C8 H43 0.949 . S
C9 C8 1.339 . S
C9 C10 1.439 . S
C9 H44 0.950 . S
C10 N6 1.383 . S
C10 C9 1.439 . S
C10 C39 1.392 . S
N11 Co5 2.008 . S
N11 C12 1.376 . S
N11 C15 1.374 . S
C12 N11 1.376 . S
C12 C13 1.443 . S
C12 C39 1.389 . S
C13 C12 1.443 . S
C13 C14 1.340 . S
C13 H45 0.951 . S
C14 C13 1.340 . S
C14 C15 1.439 . S
C14 H46 0.950 . S
C15 N11 1.374 . S
C15 C14 1.439 . S
C15 C40 1.395 . S
N16 Co5 1.995 . S
N16 C17 1.376 . S
N16 C20 1.383 . S
C17 N16 1.376 . S
C17 C18 1.446 . S
C17 C40 1.391 . S
C18 C17 1.446 . S
C18 C19 1.339 . S
C18 H47 0.949 . S
C19 C18 1.339 . S
C19 C20 1.439 . S
C19 H48 0.950 . S
C20 N16 1.383 . S
C20 C19 1.439 . S
C20 C38 1.392 . S
N21 Co5 2.282 . S
N21 C24 1.332 . S
N21 C26 1.332 . S
C22 C23 1.386 . S
C22 C25 1.388 . S
C23 C22 1.386 . S
C23 C24 1.382 . S
C23 H49 0.950 . S
C24 N21 1.332 . S
C24 C23 1.382 . S
C24 H35 0.952 . S
C25 C22 1.388 . S
C25 C26 1.382 . S
C25 H50 0.950 . S
C26 N21 1.332 . S
C26 C25 1.382 . S
C26 H36 0.948 . S
N27 Co5 2.282 . S
N27 C31 1.332 . S
N27 C32 1.332 . S
C28 C29 1.388 . S
C28 C32 1.382 . S
C28 H51 0.950 . S
C29 C28 1.388 . S
C29 C30 1.386 . S
C30 C29 1.386 . S
C30 C31 1.382 . S
C30 H52 0.950 . S
C31 N27 1.332 . S
C31 C30 1.382 . S
C31 H33 0.952 . S
C32 N27 1.332 . S
C32 C28 1.382 . S
C32 H34 0.948 . S
H33 C31 0.952 . S
H34 C32 0.948 . S
H35 C24 0.952 . S
H36 C26 0.948 . S
C37 C3 1.395 . S
C37 C7 1.391 . S
C38 C0 1.389 . S
C38 C20 1.392 . S
C39 C10 1.392 . S
C39 C12 1.389 . S
C40 C15 1.395 . S
C40 C17 1.391 . S
H41 C1 0.951 . S
H42 C2 0.950 . S
H43 C8 0.949 . S
H44 C9 0.950 . S
H45 C13 0.951 . S
H46 C14 0.950 . S
H47 C18 0.949 . S
H48 C19 0.950 . S
H49 C23 0.950 . S
H50 C25 0.950 . S
H51 C28 0.950 . S
H52 C30 0.950 . S
C53 C54 1.443 . S
C53 N57 1.376 . S
C53 C91 1.389 . S
C54 C53 1.443 . S
C54 C55 1.340 . S
C54 H94 0.951 . S
C55 C54 1.340 . S
C55 C56 1.439 . S
C55 H95 0.950 . S
C56 C55 1.439 . S
C56 N57 1.374 . S
C56 C90 1.395 . S
N57 C53 1.376 . S
N57 C56 1.374 . S
N57 Co58 2.008 . S
Co58 N57 2.008 . S
Co58 N59 1.995 . S
Co58 N64 2.008 . S
Co58 N69 1.995 . S
Co58 N74 2.282 . S
Co58 N80 2.282 . S
N59 Co58 1.995 . S
N59 C60 1.376 . S
N59 C63 1.383 . S
C60 N59 1.376 . S
C60 C61 1.446 . S
C60 C90 1.391 . S
C61 C60 1.446 . S
C61 C62 1.339 . S
C61 H96 0.949 . S
C62 C61 1.339 . S
C62 C63 1.439 . S
C62 H97 0.950 . S
C63 N59 1.383 . S
C63 C62 1.439 . S
C63 C92 1.392 . S
N64 Co58 2.008 . S
N64 C65 1.376 . S
N64 C68 1.374 . S
C65 N64 1.376 . S
C65 C66 1.443 . S
C65 C92 1.389 . S
C66 C65 1.443 . S
C66 C67 1.340 . S
C66 H98 0.951 . S
C67 C66 1.340 . S
C67 C68 1.439 . S
C67 H99 0.950 . S
C68 N64 1.374 . S
C68 C67 1.439 . S
C68 C93 1.395 . S
N69 Co58 1.995 . S
N69 C70 1.376 . S
N69 C73 1.383 . S
C70 N69 1.376 . S
C70 C71 1.446 . S
C70 C93 1.391 . S
C71 C70 1.446 . S
C71 C72 1.339 . S
C71 H100 0.949 . S
C72 C71 1.339 . S
C72 C73 1.439 . S
C72 H101 0.950 . S
C73 N69 1.383 . S
C73 C72 1.439 . S
C73 C91 1.392 . S
N74 Co58 2.282 . S
N74 C77 1.332 . S
N74 C79 1.332 . S
C75 C76 1.386 . S
C75 C78 1.388 . S
C76 C75 1.386 . S
C76 C77 1.382 . S
C76 H102 0.950 . S
C77 N74 1.332 . S
C77 C76 1.382 . S
C77 H88 0.952 . S
C78 C75 1.388 . S
C78 C79 1.382 . S
C78 H103 0.950 . S
C79 N74 1.332 . S
C79 C78 1.382 . S
C79 H89 0.948 . S
N80 Co58 2.282 . S
N80 C84 1.332 . S
N80 C85 1.332 . S
C81 C82 1.388 . S
C81 C85 1.382 . S
C81 H104 0.950 . S
C82 C81 1.388 . S
C82 C83 1.386 . S
C83 C82 1.386 . S
C83 C84 1.382 . S
C83 H105 0.950 . S
C84 N80 1.332 . S
C84 C83 1.382 . S
C84 H86 0.952 . S
C85 N80 1.332 . S
C85 C81 1.382 . S
C85 H87 0.948 . S
H86 C84 0.952 . S
H87 C85 0.948 . S
H88 C77 0.952 . S
H89 C79 0.948 . S
C90 C56 1.395 . S
C90 C60 1.391 . S
C91 C53 1.389 . S
C91 C73 1.392 . S
C92 C63 1.392 . S
C92 C65 1.389 . S
C93 C68 1.395 . S
C93 C70 1.391 . S
H94 C54 0.951 . S
H95 C55 0.950 . S
H96 C61 0.949 . S
H97 C62 0.950 . S
H98 C66 0.951 . S
H99 C67 0.950 . S
H100 C71 0.949 . S
H101 C72 0.950 . S
H102 C76 0.950 . S
H103 C78 0.950 . S
H104 C81 0.950 . S
H105 C83 0.950 . S
C106 C107 1.443 . S
C106 N110 1.376 . S
C106 C144 1.389 . S
C107 C106 1.443 . S
C107 C108 1.340 . S
C107 H147 0.951 . S
C108 C107 1.340 . S
C108 C109 1.439 . S
C108 H148 0.950 . S
C109 C108 1.439 . S
C109 N110 1.374 . S
C109 C143 1.395 . S
N110 C106 1.376 . S
N110 C109 1.374 . S
N110 Co111 2.008 . S
Co111 N110 2.008 . S
Co111 N112 1.995 . S
Co111 N117 2.008 . S
Co111 N122 1.995 . S
Co111 N127 2.282 . S
Co111 N133 2.282 . S
N112 Co111 1.995 . S
N112 C113 1.376 . S
N112 C116 1.383 . S
C113 N112 1.376 . S
C113 C114 1.446 . S
C113 C143 1.391 . S
C114 C113 1.446 . S
C114 C115 1.339 . S
C114 H149 0.949 . S
C115 C114 1.339 . S
C115 C116 1.439 . S
C115 H150 0.950 . S
C116 N112 1.383 . S
C116 C115 1.439 . S
C116 C145 1.392 . S
N117 Co111 2.008 . S
N117 C118 1.376 . S
N117 C121 1.374 . S
C118 N117 1.376 . S
C118 C119 1.443 . S
C118 C145 1.389 . S
C119 C118 1.443 . S
C119 C120 1.340 . S
C119 H151 0.951 . S
C120 C119 1.340 . S
C120 C121 1.439 . S
C120 H152 0.950 . S
C121 N117 1.374 . S
C121 C120 1.439 . S
C121 C146 1.395 . S
N122 Co111 1.995 . S
N122 C123 1.376 . S
N122 C126 1.383 . S
C123 N122 1.376 . S
C123 C124 1.446 . S
C123 C146 1.391 . S
C124 C123 1.446 . S
C124 C125 1.339 . S
C124 H153 0.949 . S
C125 C124 1.339 . S
C125 C126 1.439 . S
C125 H154 0.950 . S
C126 N122 1.383 . S
C126 C125 1.439 . S
C126 C144 1.392 . S
N127 Co111 2.282 . S
N127 C130 1.332 . S
N127 C132 1.332 . S
C128 C129 1.386 . S
C128 C131 1.388 . S
C129 C128 1.386 . S
C129 C130 1.382 . S
C129 H155 0.950 . S
C130 N127 1.332 . S
C130 C129 1.382 . S
C130 H141 0.952 . S
C131 C128 1.388 . S
C131 C132 1.382 . S
C131 H156 0.950 . S
C132 N127 1.332 . S
C132 C131 1.382 . S
C132 H142 0.948 . S
N133 Co111 2.282 . S
N133 C137 1.332 . S
N133 C138 1.332 . S
C134 C135 1.388 . S
C134 C138 1.382 . S
C134 H157 0.950 . S
C135 C134 1.388 . S
C135 C136 1.386 . S
C136 C135 1.386 . S
C136 C137 1.382 . S
C136 H158 0.950 . S
C137 N133 1.332 . S
C137 C136 1.382 . S
C137 H139 0.952 . S
C138 N133 1.332 . S
C138 C134 1.382 . S
C138 H140 0.948 . S
H139 C137 0.952 . S
H140 C138 0.948 . S
H141 C130 0.952 . S
H142 C132 0.948 . S
C143 C109 1.395 . S
C143 C113 1.391 . S
C144 C106 1.389 . S
C144 C126 1.392 . S
C145 C116 1.392 . S
C145 C118 1.389 . S
C146 C121 1.395 . S
C146 C123 1.391 . S
H147 C107 0.951 . S
H148 C108 0.950 . S
H149 C114 0.949 . S
H150 C115 0.950 . S
H151 C119 0.951 . S
H152 C120 0.950 . S
H153 C124 0.949 . S
H154 C125 0.950 . S
H155 C129 0.950 . S
H156 C131 0.950 . S
H157 C134 0.950 . S
H158 C136 0.950 . S
C159 C160 1.443 . S
C159 N163 1.376 . S
C159 C197 1.389 . S
C160 C159 1.443 . S
C160 C161 1.340 . S
C160 H200 0.951 . S
C161 C160 1.340 . S
C161 C162 1.439 . S
C161 H201 0.950 . S
C162 C161 1.439 . S
C162 N163 1.374 . S
C162 C196 1.395 . S
N163 C159 1.376 . S
N163 C162 1.374 . S
N163 Co164 2.008 . S
Co164 N163 2.008 . S
Co164 N165 1.995 . S
Co164 N170 2.008 . S
Co164 N175 1.995 . S
Co164 N180 2.282 . S
Co164 N186 2.282 . S
N165 Co164 1.995 . S
N165 C166 1.376 . S
N165 C169 1.383 . S
C166 N165 1.376 . S
C166 C167 1.446 . S
C166 C196 1.391 . S
C167 C166 1.446 . S
C167 C168 1.339 . S
C167 H202 0.949 . S
C168 C167 1.339 . S
C168 C169 1.439 . S
C168 H203 0.950 . S
C169 N165 1.383 . S
C169 C168 1.439 . S
C169 C198 1.392 . S
N170 Co164 2.008 . S
N170 C171 1.376 . S
N170 C174 1.374 . S
C171 N170 1.376 . S
C171 C172 1.443 . S
C171 C198 1.389 . S
C172 C171 1.443 . S
C172 C173 1.340 . S
C172 H204 0.951 . S
C173 C172 1.340 . S
C173 C174 1.439 . S
C173 H205 0.950 . S
C174 N170 1.374 . S
C174 C173 1.439 . S
C174 C199 1.395 . S
N175 Co164 1.995 . S
N175 C176 1.376 . S
N175 C179 1.383 . S
C176 N175 1.376 . S
C176 C177 1.446 . S
C176 C199 1.391 . S
C177 C176 1.446 . S
C177 C178 1.339 . S
C177 H206 0.949 . S
C178 C177 1.339 . S
C178 C179 1.439 . S
C178 H207 0.950 . S
C179 N175 1.383 . S
C179 C178 1.439 . S
C179 C197 1.392 . S
N180 Co164 2.282 . S
N180 C183 1.332 . S
N180 C185 1.332 . S
C181 C182 1.386 . S
C181 C184 1.388 . S
C182 C181 1.386 . S
C182 C183 1.382 . S
C182 H208 0.950 . S
C183 N180 1.332 . S
C183 C182 1.382 . S
C183 H194 0.952 . S
C184 C181 1.388 . S
C184 C185 1.382 . S
C184 H209 0.950 . S
C185 N180 1.332 . S
C185 C184 1.382 . S
C185 H195 0.948 . S
N186 Co164 2.282 . S
N186 C190 1.332 . S
N186 C191 1.332 . S
C187 C188 1.388 . S
C187 C191 1.382 . S
C187 H210 0.950 . S
C188 C187 1.388 . S
C188 C189 1.386 . S
C189 C188 1.386 . S
C189 C190 1.382 . S
C189 H211 0.950 . S
C190 N186 1.332 . S
C190 C189 1.382 . S
C190 H192 0.952 . S
C191 N186 1.332 . S
C191 C187 1.382 . S
C191 H193 0.948 . S
H192 C190 0.952 . S
H193 C191 0.948 . S
H194 C183 0.952 . S
H195 C185 0.948 . S
C196 C162 1.395 . S
C196 C166 1.391 . S
C197 C159 1.389 . S
C197 C179 1.392 . S
C198 C169 1.392 . S
C198 C171 1.389 . S
C199 C174 1.395 . S
C199 C176 1.391 . S
H200 C160 0.951 . S
H201 C161 0.950 . S
H202 C167 0.949 . S
H203 C168 0.950 . S
H204 C172 0.951 . S
H205 C173 0.950 . S
H206 C177 0.949 . S
H207 C178 0.950 . S
H208 C182 0.950 . S
H209 C184 0.950 . S
H210 C187 0.950 . S
H211 C189 0.950 . S
C212 C213 1.443 . S
C212 N216 1.376 . S
C212 C250 1.389 . S
C213 C212 1.443 . S
C213 C214 1.340 . S
C213 H253 0.951 . S
C214 C213 1.340 . S
C214 C215 1.439 . S
C214 H254 0.950 . S
C215 C214 1.439 . S
C215 N216 1.374 . S
C215 C249 1.395 . S
N216 C212 1.376 . S
N216 C215 1.374 . S
N216 Co217 2.008 . S
Co217 N216 2.008 . S
Co217 N218 1.995 . S
Co217 N223 2.008 . S
Co217 N228 1.995 . S
Co217 N233 2.282 . S
Co217 N239 2.282 . S
N218 Co217 1.995 . S
N218 C219 1.376 . S
N218 C222 1.383 . S
C219 N218 1.376 . S
C219 C220 1.446 . S
C219 C249 1.391 . S
C220 C219 1.446 . S
C220 C221 1.339 . S
C220 H255 0.949 . S
C221 C220 1.339 . S
C221 C222 1.439 . S
C221 H256 0.950 . S
C222 N218 1.383 . S
C222 C221 1.439 . S
C222 C251 1.392 . S
N223 Co217 2.008 . S
N223 C224 1.376 . S
N223 C227 1.374 . S
C224 N223 1.376 . S
C224 C225 1.443 . S
C224 C251 1.389 . S
C225 C224 1.443 . S
C225 C226 1.340 . S
C225 H257 0.951 . S
C226 C225 1.340 . S
C226 C227 1.439 . S
C226 H258 0.950 . S
C227 N223 1.374 . S
C227 C226 1.439 . S
C227 C252 1.395 . S
N228 Co217 1.995 . S
N228 C229 1.376 . S
N228 C232 1.383 . S
C229 N228 1.376 . S
C229 C230 1.446 . S
C229 C252 1.391 . S
C230 C229 1.446 . S
C230 C231 1.339 . S
C230 H259 0.949 . S
C231 C230 1.339 . S
C231 C232 1.439 . S
C231 H260 0.950 . S
C232 N228 1.383 . S
C232 C231 1.439 . S
C232 C250 1.392 . S
N233 Co217 2.282 . S
N233 C236 1.332 . S
N233 C238 1.332 . S
C234 C235 1.386 . S
C234 C237 1.388 . S
C235 C234 1.386 . S
C235 C236 1.382 . S
C235 H261 0.950 . S
C236 N233 1.332 . S
C236 C235 1.382 . S
C236 H247 0.952 . S
C237 C234 1.388 . S
C237 C238 1.382 . S
C237 H262 0.950 . S
C238 N233 1.332 . S
C238 C237 1.382 . S
C238 H248 0.948 . S
N239 Co217 2.282 . S
N239 C243 1.332 . S
N239 C244 1.332 . S
C240 C241 1.388 . S
C240 C244 1.382 . S
C240 H263 0.950 . S
C241 C240 1.388 . S
C241 C242 1.386 . S
C242 C241 1.386 . S
C242 C243 1.382 . S
C242 H264 0.950 . S
C243 N239 1.332 . S
C243 C242 1.382 . S
C243 H245 0.952 . S
C244 N239 1.332 . S
C244 C240 1.382 . S
C244 H246 0.948 . S
H245 C243 0.952 . S
H246 C244 0.948 . S
H247 C236 0.952 . S
H248 C238 0.948 . S
C249 C215 1.395 . S
C249 C219 1.391 . S
C250 C212 1.389 . S
C250 C232 1.392 . S
C251 C222 1.392 . S
C251 C224 1.389 . S
C252 C227 1.395 . S
C252 C229 1.391 . S
H253 C213 0.951 . S
H254 C214 0.950 . S
H255 C220 0.949 . S
H256 C221 0.950 . S
H257 C225 0.951 . S
H258 C226 0.950 . S
H259 C230 0.949 . S
H260 C231 0.950 . S
H261 C235 0.950 . S
H262 C237 0.950 . S
H263 C240 0.950 . S
H264 C242 0.950 . S
C265 C266 1.443 . S
C265 N269 1.376 . S
C265 C303 1.389 . S
C266 C265 1.443 . S
C266 C267 1.340 . S
C266 H306 0.951 . S
C267 C266 1.340 . S
C267 C268 1.439 . S
C267 H307 0.950 . S
C268 C267 1.439 . S
C268 N269 1.374 . S
C268 C302 1.395 . S
N269 C265 1.376 . S
N269 C268 1.374 . S
N269 Co270 2.008 . S
Co270 N269 2.008 . S
Co270 N271 1.995 . S
Co270 N276 2.008 . S
Co270 N281 1.995 . S
Co270 N286 2.282 . S
Co270 N292 2.282 . S
N271 Co270 1.995 . S
N271 C272 1.376 . S
N271 C275 1.383 . S
C272 N271 1.376 . S
C272 C273 1.446 . S
C272 C302 1.391 . S
C273 C272 1.446 . S
C273 C274 1.339 . S
C273 H308 0.949 . S
C274 C273 1.339 . S
C274 C275 1.439 . S
C274 H309 0.950 . S
C275 N271 1.383 . S
C275 C274 1.439 . S
C275 C304 1.392 . S
N276 Co270 2.008 . S
N276 C277 1.376 . S
N276 C280 1.374 . S
C277 N276 1.376 . S
C277 C278 1.443 . S
C277 C304 1.389 . S
C278 C277 1.443 . S
C278 C279 1.340 . S
C278 H310 0.951 . S
C279 C278 1.340 . S
C279 C280 1.439 . S
C279 H311 0.950 . S
C280 N276 1.374 . S
C280 C279 1.439 . S
C280 C305 1.395 . S
N281 Co270 1.995 . S
N281 C282 1.376 . S
N281 C285 1.383 . S
C282 N281 1.376 . S
C282 C283 1.446 . S
C282 C305 1.391 . S
C283 C282 1.446 . S
C283 C284 1.339 . S
C283 H312 0.949 . S
C284 C283 1.339 . S
C284 C285 1.439 . S
C284 H313 0.950 . S
C285 N281 1.383 . S
C285 C284 1.439 . S
C285 C303 1.392 . S
N286 Co270 2.282 . S
N286 C289 1.332 . S
N286 C291 1.332 . S
C287 C288 1.386 . S
C287 C290 1.388 . S
C288 C287 1.386 . S
C288 C289 1.382 . S
C288 H314 0.950 . S
C289 N286 1.332 . S
C289 C288 1.382 . S
C289 H300 0.952 . S
C290 C287 1.388 . S
C290 C291 1.382 . S
C290 H315 0.950 . S
C291 N286 1.332 . S
C291 C290 1.382 . S
C291 H301 0.948 . S
N292 Co270 2.282 . S
N292 C296 1.332 . S
N292 C297 1.332 . S
C293 C294 1.388 . S
C293 C297 1.382 . S
C293 H316 0.950 . S
C294 C293 1.388 . S
C294 C295 1.386 . S
C295 C294 1.386 . S
C295 C296 1.382 . S
C295 H317 0.950 . S
C296 N292 1.332 . S
C296 C295 1.382 . S
C296 H298 0.952 . S
C297 N292 1.332 . S
C297 C293 1.382 . S
C297 H299 0.948 . S
H298 C296 0.952 . S
H299 C297 0.948 . S
H300 C289 0.952 . S
H301 C291 0.948 . S
C302 C268 1.395 . S
C302 C272 1.391 . S
C303 C265 1.389 . S
C303 C285 1.392 . S
C304 C275 1.392 . S
C304 C277 1.389 . S
C305 C280 1.395 . S
C305 C282 1.391 . S
H306 C266 0.951 . S
H307 C267 0.950 . S
H308 C273 0.949 . S
H309 C274 0.950 . S
H310 C278 0.951 . S
H311 C279 0.950 . S
H312 C283 0.949 . S
H313 C284 0.950 . S
H314 C288 0.950 . S
H315 C290 0.950 . S
H316 C293 0.950 . S
H317 C295 0.950 . S
C318 C319 1.443 . S
C318 N322 1.376 . S
C318 C356 1.389 . S
C319 C318 1.443 . S
C319 C320 1.340 . S
C319 H359 0.951 . S
C320 C319 1.340 . S
C320 C321 1.439 . S
C320 H360 0.950 . S
C321 C320 1.439 . S
C321 N322 1.374 . S
C321 C355 1.395 . S
N322 C318 1.376 . S
N322 C321 1.374 . S
N322 Co323 2.008 . S
Co323 N322 2.008 . S
Co323 N324 1.995 . S
Co323 N329 2.008 . S
Co323 N334 1.995 . S
Co323 N339 2.282 . S
Co323 N345 2.282 . S
N324 Co323 1.995 . S
N324 C325 1.376 . S
N324 C328 1.383 . S
C325 N324 1.376 . S
C325 C326 1.446 . S
C325 C355 1.391 . S
C326 C325 1.446 . S
C326 C327 1.339 . S
C326 H361 0.949 . S
C327 C326 1.339 . S
C327 C328 1.439 . S
C327 H362 0.950 . S
C328 N324 1.383 . S
C328 C327 1.439 . S
C328 C357 1.392 . S
N329 Co323 2.008 . S
N329 C330 1.376 . S
N329 C333 1.374 . S
C330 N329 1.376 . S
C330 C331 1.443 . S
C330 C357 1.389 . S
C331 C330 1.443 . S
C331 C332 1.340 . S
C331 H363 0.951 . S
C332 C331 1.340 . S
C332 C333 1.439 . S
C332 H364 0.950 . S
C333 N329 1.374 . S
C333 C332 1.439 . S
C333 C358 1.395 . S
N334 Co323 1.995 . S
N334 C335 1.376 . S
N334 C338 1.383 . S
C335 N334 1.376 . S
C335 C336 1.446 . S
C335 C358 1.391 . S
C336 C335 1.446 . S
C336 C337 1.339 . S
C336 H365 0.949 . S
C337 C336 1.339 . S
C337 C338 1.439 . S
C337 H366 0.950 . S
C338 N334 1.383 . S
C338 C337 1.439 . S
C338 C356 1.392 . S
N339 Co323 2.282 . S
N339 C342 1.332 . S
N339 C344 1.332 . S
C340 C341 1.386 . S
C340 C343 1.388 . S
C341 C340 1.386 . S
C341 C342 1.382 . S
C341 H367 0.950 . S
C342 N339 1.332 . S
C342 C341 1.382 . S
C342 H353 0.952 . S
C343 C340 1.388 . S
C343 C344 1.382 . S
C343 H368 0.950 . S
C344 N339 1.332 . S
C344 C343 1.382 . S
C344 H354 0.948 . S
N345 Co323 2.282 . S
N345 C349 1.332 . S
N345 C350 1.332 . S
C346 C347 1.388 . S
C346 C350 1.382 . S
C346 H369 0.950 . S
C347 C346 1.388 . S
C347 C348 1.386 . S
C348 C347 1.386 . S
C348 C349 1.382 . S
C348 H370 0.950 . S
C349 N345 1.332 . S
C349 C348 1.382 . S
C349 H351 0.952 . S
C350 N345 1.332 . S
C350 C346 1.382 . S
C350 H352 0.948 . S
H351 C349 0.952 . S
H352 C350 0.948 . S
H353 C342 0.952 . S
H354 C344 0.948 . S
C355 C321 1.395 . S
C355 C325 1.391 . S
C356 C318 1.389 . S
C356 C338 1.392 . S
C357 C328 1.392 . S
C357 C330 1.389 . S
C358 C333 1.395 . S
C358 C335 1.391 . S
H359 C319 0.951 . S
H360 C320 0.950 . S
H361 C326 0.949 . S
H362 C327 0.950 . S
H363 C331 0.951 . S
H364 C332 0.950 . S
H365 C336 0.949 . S
H366 C337 0.950 . S
H367 C341 0.950 . S
H368 C343 0.950 . S
H369 C346 0.950 . S
H370 C348 0.950 . S
C371 C372 1.443 . S
C371 N375 1.376 . S
C371 C409 1.389 . S
C372 C371 1.443 . S
C372 C373 1.340 . S
C372 H412 0.951 . S
C373 C372 1.340 . S
C373 C374 1.439 . S
C373 H413 0.950 . S
C374 C373 1.439 . S
C374 N375 1.374 . S
C374 C408 1.395 . S
N375 C371 1.376 . S
N375 C374 1.374 . S
N375 Co376 2.008 . S
Co376 N375 2.008 . S
Co376 N377 1.995 . S
Co376 N382 2.008 . S
Co376 N387 1.995 . S
Co376 N392 2.282 . S
Co376 N398 2.282 . S
N377 Co376 1.995 . S
N377 C378 1.376 . S
N377 C381 1.383 . S
C378 N377 1.376 . S
C378 C379 1.446 . S
C378 C408 1.391 . S
C379 C378 1.446 . S
C379 C380 1.339 . S
C379 H414 0.949 . S
C380 C379 1.339 . S
C380 C381 1.439 . S
C380 H415 0.950 . S
C381 N377 1.383 . S
C381 C380 1.439 . S
C381 C410 1.392 . S
N382 Co376 2.008 . S
N382 C383 1.376 . S
N382 C386 1.374 . S
C383 N382 1.376 . S
C383 C384 1.443 . S
C383 C410 1.389 . S
C384 C383 1.443 . S
C384 C385 1.340 . S
C384 H416 0.951 . S
C385 C384 1.340 . S
C385 C386 1.439 . S
C385 H417 0.950 . S
C386 N382 1.374 . S
C386 C385 1.439 . S
C386 C411 1.395 . S
N387 Co376 1.995 . S
N387 C388 1.376 . S
N387 C391 1.383 . S
C388 N387 1.376 . S
C388 C389 1.446 . S
C388 C411 1.391 . S
C389 C388 1.446 . S
C389 C390 1.339 . S
C389 H418 0.949 . S
C390 C389 1.339 . S
C390 C391 1.439 . S
C390 H419 0.950 . S
C391 N387 1.383 . S
C391 C390 1.439 . S
C391 C409 1.392 . S
N392 Co376 2.282 . S
N392 C395 1.332 . S
N392 C397 1.332 . S
C393 C394 1.386 . S
C393 C396 1.388 . S
C394 C393 1.386 . S
C394 C395 1.382 . S
C394 H420 0.950 . S
C395 N392 1.332 . S
C395 C394 1.382 . S
C395 H406 0.952 . S
C396 C393 1.388 . S
C396 C397 1.382 . S
C396 H421 0.950 . S
C397 N392 1.332 . S
C397 C396 1.382 . S
C397 H407 0.948 . S
N398 Co376 2.282 . S
N398 C402 1.332 . S
N398 C403 1.332 . S
C399 C400 1.388 . S
C399 C403 1.382 . S
C399 H422 0.950 . S
C400 C399 1.388 . S
C400 C401 1.386 . S
C401 C400 1.386 . S
C401 C402 1.382 . S
C401 H423 0.950 . S
C402 N398 1.332 . S
C402 C401 1.382 . S
C402 H404 0.952 . S
C403 N398 1.332 . S
C403 C399 1.382 . S
C403 H405 0.948 . S
H404 C402 0.952 . S
H405 C403 0.948 . S
H406 C395 0.952 . S
H407 C397 0.948 . S
C408 C374 1.395 . S
C408 C378 1.391 . S
C409 C371 1.389 . S
C409 C391 1.392 . S
C410 C381 1.392 . S
C410 C383 1.389 . S
C411 C386 1.395 . S
C411 C388 1.391 . S
H412 C372 0.951 . S
H413 C373 0.950 . S
H414 C379 0.949 . S
H415 C380 0.950 . S
H416 C384 0.951 . S
H417 C385 0.950 . S
H418 C389 0.949 . S
H419 C390 0.950 . S
H420 C394 0.950 . S
H421 C396 0.950 . S
H422 C399 0.950 . S
H423 C401 0.950 . S
C424 C425 1.443 . S
C424 N428 1.376 . S
C424 C462 1.389 . S
C425 C424 1.443 . S
C425 C426 1.340 . S
C425 H465 0.951 . S
C426 C425 1.340 . S
C426 C427 1.439 . S
C426 H466 0.950 . S
C427 C426 1.439 . S
C427 N428 1.374 . S
C427 C461 1.395 . S
N428 C424 1.376 . S
N428 C427 1.374 . S
N428 Co429 2.008 . S
Co429 N428 2.008 . S
Co429 N430 1.995 . S
Co429 N435 2.008 . S
Co429 N440 1.995 . S
Co429 N445 2.282 . S
Co429 N451 2.282 . S
N430 Co429 1.995 . S
N430 C431 1.376 . S
N430 C434 1.383 . S
C431 N430 1.376 . S
C431 C432 1.446 . S
C431 C461 1.391 . S
C432 C431 1.446 . S
C432 C433 1.339 . S
C432 H467 0.949 . S
C433 C432 1.339 . S
C433 C434 1.439 . S
C433 H468 0.950 . S
C434 N430 1.383 . S
C434 C433 1.439 . S
C434 C463 1.392 . S
N435 Co429 2.008 . S
N435 C436 1.376 . S
N435 C439 1.374 . S
C436 N435 1.376 . S
C436 C437 1.443 . S
C436 C463 1.389 . S
C437 C436 1.443 . S
C437 C438 1.340 . S
C437 H469 0.951 . S
C438 C437 1.340 . S
C438 C439 1.439 . S
C438 H470 0.950 . S
C439 N435 1.374 . S
C439 C438 1.439 . S
C439 C464 1.395 . S
N440 Co429 1.995 . S
N440 C441 1.376 . S
N440 C444 1.383 . S
C441 N440 1.376 . S
C441 C442 1.446 . S
C441 C464 1.391 . S
C442 C441 1.446 . S
C442 C443 1.339 . S
C442 H471 0.949 . S
C443 C442 1.339 . S
C443 C444 1.439 . S
C443 H472 0.950 . S
C444 N440 1.383 . S
C444 C443 1.439 . S
C444 C462 1.392 . S
N445 Co429 2.282 . S
N445 C448 1.332 . S
N445 C450 1.332 . S
C446 C447 1.386 . S
C446 C449 1.388 . S
C447 C446 1.386 . S
C447 C448 1.382 . S
C447 H473 0.950 . S
C448 N445 1.332 . S
C448 C447 1.382 . S
C448 H459 0.952 . S
C449 C446 1.388 . S
C449 C450 1.382 . S
C449 H474 0.950 . S
C450 N445 1.332 . S
C450 C449 1.382 . S
C450 H460 0.948 . S
N451 Co429 2.282 . S
N451 C455 1.332 . S
N451 C456 1.332 . S
C452 C453 1.388 . S
C452 C456 1.382 . S
C452 H475 0.950 . S
C453 C452 1.388 . S
C453 C454 1.386 . S
C454 C453 1.386 . S
C454 C455 1.382 . S
C454 H476 0.950 . S
C455 N451 1.332 . S
C455 C454 1.382 . S
C455 H457 0.952 . S
C456 N451 1.332 . S
C456 C452 1.382 . S
C456 H458 0.948 . S
H457 C455 0.952 . S
H458 C456 0.948 . S
H459 C448 0.952 . S
H460 C450 0.948 . S
C461 C427 1.395 . S
C461 C431 1.391 . S
C462 C424 1.389 . S
C462 C444 1.392 . S
C463 C434 1.392 . S
C463 C436 1.389 . S
C464 C439 1.395 . S
C464 C441 1.391 . S
H465 C425 0.951 . S
H466 C426 0.950 . S
H467 C432 0.949 . S
H468 C433 0.950 . S
H469 C437 0.951 . S
H470 C438 0.950 . S
H471 C442 0.949 . S
H472 C443 0.950 . S
H473 C447 0.950 . S
H474 C449 0.950 . S
H475 C452 0.950 . S
H476 C454 0.950 . S
C477 C478 1.443 . S
C477 N481 1.376 . S
C477 C515 1.389 . S
C478 C477 1.443 . S
C478 C479 1.340 . S
C478 H518 0.951 . S
C479 C478 1.340 . S
C479 C480 1.439 . S
C479 H519 0.950 . S
C480 C479 1.439 . S
C480 N481 1.374 . S
C480 C514 1.395 . S
N481 C477 1.376 . S
N481 C480 1.374 . S
N481 Co482 2.008 . S
Co482 N481 2.008 . S
Co482 N483 1.995 . S
Co482 N488 2.008 . S
Co482 N493 1.995 . S
Co482 N498 2.282 . S
Co482 N504 2.282 . S
N483 Co482 1.995 . S
N483 C484 1.376 . S
N483 C487 1.383 . S
C484 N483 1.376 . S
C484 C485 1.446 . S
C484 C514 1.391 . S
C485 C484 1.446 . S
C485 C486 1.339 . S
C485 H520 0.949 . S
C486 C485 1.339 . S
C486 C487 1.439 . S
C486 H521 0.950 . S
C487 N483 1.383 . S
C487 C486 1.439 . S
C487 C516 1.392 . S
N488 Co482 2.008 . S
N488 C489 1.376 . S
N488 C492 1.374 . S
C489 N488 1.376 . S
C489 C490 1.443 . S
C489 C516 1.389 . S
C490 C489 1.443 . S
C490 C491 1.340 . S
C490 H522 0.951 . S
C491 C490 1.340 . S
C491 C492 1.439 . S
C491 H523 0.950 . S
C492 N488 1.374 . S
C492 C491 1.439 . S
C492 C517 1.395 . S
N493 Co482 1.995 . S
N493 C494 1.376 . S
N493 C497 1.383 . S
C494 N493 1.376 . S
C494 C495 1.446 . S
C494 C517 1.391 . S
C495 C494 1.446 . S
C495 C496 1.339 . S
C495 H524 0.949 . S
C496 C495 1.339 . S
C496 C497 1.439 . S
C496 H525 0.950 . S
C497 N493 1.383 . S
C497 C496 1.439 . S
C497 C515 1.392 . S
N498 Co482 2.282 . S
N498 C501 1.332 . S
N498 C503 1.332 . S
C499 C500 1.386 . S
C499 C502 1.388 . S
C500 C499 1.386 . S
C500 C501 1.382 . S
C500 H526 0.950 . S
C501 N498 1.332 . S
C501 C500 1.382 . S
C501 H512 0.952 . S
C502 C499 1.388 . S
C502 C503 1.382 . S
C502 H527 0.950 . S
C503 N498 1.332 . S
C503 C502 1.382 . S
C503 H513 0.948 . S
N504 Co482 2.282 . S
N504 C508 1.332 . S
N504 C509 1.332 . S
C505 C506 1.388 . S
C505 C509 1.382 . S
C505 H528 0.950 . S
C506 C505 1.388 . S
C506 C507 1.386 . S
C507 C506 1.386 . S
C507 C508 1.382 . S
C507 H529 0.950 . S
C508 N504 1.332 . S
C508 C507 1.382 . S
C508 H510 0.952 . S
C509 N504 1.332 . S
C509 C505 1.382 . S
C509 H511 0.948 . S
H510 C508 0.952 . S
H511 C509 0.948 . S
H512 C501 0.952 . S
H513 C503 0.948 . S
C514 C480 1.395 . S
C514 C484 1.391 . S
C515 C477 1.389 . S
C515 C497 1.392 . S
C516 C487 1.392 . S
C516 C489 1.389 . S
C517 C492 1.395 . S
C517 C494 1.391 . S
H518 C478 0.951 . S
H519 C479 0.950 . S
H520 C485 0.949 . S
H521 C486 0.950 . S
H522 C490 0.951 . S
H523 C491 0.950 . S
H524 C495 0.949 . S
H525 C496 0.950 . S
H526 C500 0.950 . S
H527 C502 0.950 . S
H528 C505 0.950 . S
H529 C507 0.950 . S
C530 C531 1.443 . S
C530 N534 1.376 . S
C530 C568 1.389 . S
C531 C530 1.443 . S
C531 C532 1.340 . S
C531 H571 0.951 . S
C532 C531 1.340 . S
C532 C533 1.439 . S
C532 H572 0.950 . S
C533 C532 1.439 . S
C533 N534 1.374 . S
C533 C567 1.395 . S
N534 C530 1.376 . S
N534 C533 1.374 . S
N534 Co535 2.008 . S
Co535 N534 2.008 . S
Co535 N536 1.995 . S
Co535 N541 2.008 . S
Co535 N546 1.995 . S
Co535 N551 2.282 . S
Co535 N557 2.282 . S
N536 Co535 1.995 . S
N536 C537 1.376 . S
N536 C540 1.383 . S
C537 N536 1.376 . S
C537 C538 1.446 . S
C537 C567 1.391 . S
C538 C537 1.446 . S
C538 C539 1.339 . S
C538 H573 0.949 . S
C539 C538 1.339 . S
C539 C540 1.439 . S
C539 H574 0.950 . S
C540 N536 1.383 . S
C540 C539 1.439 . S
C540 C569 1.392 . S
N541 Co535 2.008 . S
N541 C542 1.376 . S
N541 C545 1.374 . S
C542 N541 1.376 . S
C542 C543 1.443 . S
C542 C569 1.389 . S
C543 C542 1.443 . S
C543 C544 1.340 . S
C543 H575 0.951 . S
C544 C543 1.340 . S
C544 C545 1.439 . S
C544 H576 0.950 . S
C545 N541 1.374 . S
C545 C544 1.439 . S
C545 C570 1.395 . S
N546 Co535 1.995 . S
N546 C547 1.376 . S
N546 C550 1.383 . S
C547 N546 1.376 . S
C547 C548 1.446 . S
C547 C570 1.391 . S
C548 C547 1.446 . S
C548 C549 1.339 . S
C548 H577 0.949 . S
C549 C548 1.339 . S
C549 C550 1.439 . S
C549 H578 0.950 . S
C550 N546 1.383 . S
C550 C549 1.439 . S
C550 C568 1.392 . S
N551 Co535 2.282 . S
N551 C554 1.332 . S
N551 C556 1.332 . S
C552 C553 1.386 . S
C552 C555 1.388 . S
C553 C552 1.386 . S
C553 C554 1.382 . S
C553 H579 0.950 . S
C554 N551 1.332 . S
C554 C553 1.382 . S
C554 H565 0.952 . S
C555 C552 1.388 . S
C555 C556 1.382 . S
C555 H580 0.950 . S
C556 N551 1.332 . S
C556 C555 1.382 . S
C556 H566 0.948 . S
N557 Co535 2.282 . S
N557 C561 1.332 . S
N557 C562 1.332 . S
C558 C559 1.388 . S
C558 C562 1.382 . S
C558 H581 0.950 . S
C559 C558 1.388 . S
C559 C560 1.386 . S
C560 C559 1.386 . S
C560 C561 1.382 . S
C560 H582 0.950 . S
C561 N557 1.332 . S
C561 C560 1.382 . S
C561 H563 0.952 . S
C562 N557 1.332 . S
C562 C558 1.382 . S
C562 H564 0.948 . S
H563 C561 0.952 . S
H564 C562 0.948 . S
H565 C554 0.952 . S
H566 C556 0.948 . S
C567 C533 1.395 . S
C567 C537 1.391 . S
C568 C530 1.389 . S
C568 C550 1.392 . S
C569 C540 1.392 . S
C569 C542 1.389 . S
C570 C545 1.395 . S
C570 C547 1.391 . S
H571 C531 0.951 . S
H572 C532 0.950 . S
H573 C538 0.949 . S
H574 C539 0.950 . S
H575 C543 0.951 . S
H576 C544 0.950 . S
H577 C548 0.949 . S
H578 C549 0.950 . S
H579 C553 0.950 . S
H580 C555 0.950 . S
H581 C558 0.950 . S
H582 C560 0.950 . S
C583 C584 1.443 . S
C583 N587 1.376 . S
C583 C621 1.389 . S
C584 C583 1.443 . S
C584 C585 1.340 . S
C584 H624 0.951 . S
C585 C584 1.340 . S
C585 C586 1.439 . S
C585 H625 0.950 . S
C586 C585 1.439 . S
C586 N587 1.374 . S
C586 C620 1.395 . S
N587 C583 1.376 . S
N587 C586 1.374 . S
N587 Co588 2.008 . S
Co588 N587 2.008 . S
Co588 N589 1.995 . S
Co588 N594 2.008 . S
Co588 N599 1.995 . S
Co588 N604 2.282 . S
Co588 N610 2.282 . S
N589 Co588 1.995 . S
N589 C590 1.376 . S
N589 C593 1.383 . S
C590 N589 1.376 . S
C590 C591 1.446 . S
C590 C620 1.391 . S
C591 C590 1.446 . S
C591 C592 1.339 . S
C591 H626 0.949 . S
C592 C591 1.339 . S
C592 C593 1.439 . S
C592 H627 0.950 . S
C593 N589 1.383 . S
C593 C592 1.439 . S
C593 C622 1.392 . S
N594 Co588 2.008 . S
N594 C595 1.376 . S
N594 C598 1.374 . S
C595 N594 1.376 . S
C595 C596 1.443 . S
C595 C622 1.389 . S
C596 C595 1.443 . S
C596 C597 1.340 . S
C596 H628 0.951 . S
C597 C596 1.340 . S
C597 C598 1.439 . S
C597 H629 0.950 . S
C598 N594 1.374 . S
C598 C597 1.439 . S
C598 C623 1.395 . S
N599 Co588 1.995 . S
N599 C600 1.376 . S
N599 C603 1.383 . S
C600 N599 1.376 . S
C600 C601 1.446 . S
C600 C623 1.391 . S
C601 C600 1.446 . S
C601 C602 1.339 . S
C601 H630 0.949 . S
C602 C601 1.339 . S
C602 C603 1.439 . S
C602 H631 0.950 . S
C603 N599 1.383 . S
C603 C602 1.439 . S
C603 C621 1.392 . S
N604 Co588 2.282 . S
N604 C607 1.332 . S
N604 C609 1.332 . S
C605 C606 1.386 . S
C605 C608 1.388 . S
C606 C605 1.386 . S
C606 C607 1.382 . S
C606 H632 0.950 . S
C607 N604 1.332 . S
C607 C606 1.382 . S
C607 H618 0.952 . S
C608 C605 1.388 . S
C608 C609 1.382 . S
C608 H633 0.950 . S
C609 N604 1.332 . S
C609 C608 1.382 . S
C609 H619 0.948 . S
N610 Co588 2.282 . S
N610 C614 1.332 . S
N610 C615 1.332 . S
C611 C612 1.388 . S
C611 C615 1.382 . S
C611 H634 0.950 . S
C612 C611 1.388 . S
C612 C613 1.386 . S
C613 C612 1.386 . S
C613 C614 1.382 . S
C613 H635 0.950 . S
C614 N610 1.332 . S
C614 C613 1.382 . S
C614 H616 0.952 . S
C615 N610 1.332 . S
C615 C611 1.382 . S
C615 H617 0.948 . S
H616 C614 0.952 . S
H617 C615 0.948 . S
H618 C607 0.952 . S
H619 C609 0.948 . S
C620 C586 1.395 . S
C620 C590 1.391 . S
C621 C583 1.389 . S
C621 C603 1.392 . S
C622 C593 1.392 . S
C622 C595 1.389 . S
C623 C598 1.395 . S
C623 C600 1.391 . S
H624 C584 0.951 . S
H625 C585 0.950 . S
H626 C591 0.949 . S
H627 C592 0.950 . S
H628 C596 0.951 . S
H629 C597 0.950 . S
H630 C601 0.949 . S
H631 C602 0.950 . S
H632 C606 0.950 . S
H633 C608 0.950 . S
H634 C611 0.950 . S
H635 C613 0.950 . S
H636 C648 0.930 . S
H637 C650 0.930 . S
H638 C651 0.930 . S
H639 C655 0.959 . S
H640 C655 0.959 . S
H641 C655 0.961 . S
H642 C656 0.960 . S
H643 C656 0.961 . S
H644 C656 0.959 . S
H645 C659 0.929 . S
H646 C660 0.931 . S
H647 C662 0.930 . S
C648 H636 0.930 . S
C648 C649 1.399 . S
C648 C653 1.399 . S
C649 C648 1.399 . S
C649 C650 1.376 . S
C650 H637 0.930 . S
C650 C649 1.376 . S
C650 C651 1.388 . S
C651 H638 0.930 . S
C651 C650 1.388 . S
C651 C652 1.390 . S
C652 C651 1.390 . S
C652 C653 1.394 . S
C652 C658 1.465 . S
C653 C648 1.399 . S
C653 C652 1.394 . S
C653 C654 1.516 . S
C654 C653 1.516 . S
C654 C655 1.502 . S
C654 C656 1.561 . S
C654 C657 1.526 . S
C655 H639 0.959 . S
C655 H640 0.959 . S
C655 H641 0.961 . S
C655 C654 1.502 . S
C656 H642 0.960 . S
C656 H643 0.961 . S
C656 H644 0.959 . S
C656 C654 1.561 . S
C657 C654 1.526 . S
C657 C658 1.396 . S
C657 C662 1.390 . S
C658 C652 1.465 . S
C658 C657 1.396 . S
C658 C659 1.399 . S
C659 H645 0.929 . S
C659 C658 1.399 . S
C659 C660 1.385 . S
C660 H646 0.931 . S
C660 C659 1.385 . S
C660 C661 1.389 . S
C661 C660 1.389 . S
C661 C662 1.387 . S
C662 H647 0.930 . S
C662 C657 1.390 . S
C662 C661 1.387 . S
H663 C675 0.930 . S
H664 C677 0.930 . S
H665 C678 0.930 . S
H666 C682 0.959 . S
H667 C682 0.959 . S
H668 C682 0.961 . S
H669 C683 0.960 . S
H670 C683 0.961 . S
H671 C683 0.959 . S
H672 C686 0.929 . S
H673 C687 0.931 . S
H674 C689 0.930 . S
C675 H663 0.930 . S
C675 C676 1.399 . S
C675 C680 1.399 . S
C676 C675 1.399 . S
C676 C677 1.376 . S
C677 H664 0.930 . S
C677 C676 1.376 . S
C677 C678 1.388 . S
C678 H665 0.930 . S
C678 C677 1.388 . S
C678 C679 1.390 . S
C679 C678 1.390 . S
C679 C680 1.394 . S
C679 C685 1.465 . S
C680 C675 1.399 . S
C680 C679 1.394 . S
C680 C681 1.516 . S
C681 C680 1.516 . S
C681 C682 1.502 . S
C681 C683 1.561 . S
C681 C684 1.526 . S
C682 H666 0.959 . S
C682 H667 0.959 . S
C682 H668 0.961 . S
C682 C681 1.502 . S
C683 H669 0.960 . S
C683 H670 0.961 . S
C683 H671 0.959 . S
C683 C681 1.561 . S
C684 C681 1.526 . S
C684 C685 1.396 . S
C684 C689 1.390 . S
C685 C679 1.465 . S
C685 C684 1.396 . S
C685 C686 1.399 . S
C686 H672 0.929 . S
C686 C685 1.399 . S
C686 C687 1.385 . S
C687 H673 0.931 . S
C687 C686 1.385 . S
C687 C688 1.389 . S
C688 C687 1.389 . S
C688 C689 1.387 . S
C689 H674 0.930 . S
C689 C684 1.390 . S
C689 C688 1.387 . S
H690 C702 0.930 . S
H691 C704 0.930 . S
H692 C705 0.930 . S
H693 C709 0.959 . S
H694 C709 0.959 . S
H695 C709 0.961 . S
H696 C710 0.960 . S
H697 C710 0.961 . S
H698 C710 0.959 . S
H699 C713 0.929 . S
H700 C714 0.931 . S
H701 C716 0.930 . S
C702 H690 0.930 . S
C702 C703 1.399 . S
C702 C707 1.399 . S
C703 C702 1.399 . S
C703 C704 1.376 . S
C704 H691 0.930 . S
C704 C703 1.376 . S
C704 C705 1.388 . S
C705 H692 0.930 . S
C705 C704 1.388 . S
C705 C706 1.390 . S
C706 C705 1.390 . S
C706 C707 1.394 . S
C706 C712 1.465 . S
C707 C702 1.399 . S
C707 C706 1.394 . S
C707 C708 1.516 . S
C708 C707 1.516 . S
C708 C709 1.502 . S
C708 C710 1.561 . S
C708 C711 1.526 . S
C709 H693 0.959 . S
C709 H694 0.959 . S
C709 H695 0.961 . S
C709 C708 1.502 . S
C710 H696 0.960 . S
C710 H697 0.961 . S
C710 H698 0.959 . S
C710 C708 1.561 . S
C711 C708 1.526 . S
C711 C712 1.396 . S
C711 C716 1.390 . S
C712 C706 1.465 . S
C712 C711 1.396 . S
C712 C713 1.399 . S
C713 H699 0.929 . S
C713 C712 1.399 . S
C713 C714 1.385 . S
C714 H700 0.931 . S
C714 C713 1.385 . S
C714 C715 1.389 . S
C715 C714 1.389 . S
C715 C716 1.387 . S
C716 H701 0.930 . S
C716 C711 1.390 . S
C716 C715 1.387 . S
H717 C729 0.930 . S
H718 C731 0.930 . S
H719 C732 0.930 . S
H720 C736 0.959 . S
H721 C736 0.959 . S
H722 C736 0.961 . S
H723 C737 0.960 . S
H724 C737 0.961 . S
H725 C737 0.959 . S
H726 C740 0.929 . S
H727 C741 0.931 . S
H728 C743 0.930 . S
C729 H717 0.930 . S
C729 C730 1.399 . S
C729 C734 1.399 . S
C730 C729 1.399 . S
C730 C731 1.376 . S
C731 H718 0.930 . S
C731 C730 1.376 . S
C731 C732 1.388 . S
C732 H719 0.930 . S
C732 C731 1.388 . S
C732 C733 1.390 . S
C733 C732 1.390 . S
C733 C734 1.394 . S
C733 C739 1.465 . S
C734 C729 1.399 . S
C734 C733 1.394 . S
C734 C735 1.516 . S
C735 C734 1.516 . S
C735 C736 1.502 . S
C735 C737 1.561 . S
C735 C738 1.526 . S
C736 H720 0.959 . S
C736 H721 0.959 . S
C736 H722 0.961 . S
C736 C735 1.502 . S
C737 H723 0.960 . S
C737 H724 0.961 . S
C737 H725 0.959 . S
C737 C735 1.561 . S
C738 C735 1.526 . S
C738 C739 1.396 . S
C738 C743 1.390 . S
C739 C733 1.465 . S
C739 C738 1.396 . S
C739 C740 1.399 . S
C740 H726 0.929 . S
C740 C739 1.399 . S
C740 C741 1.385 . S
C741 H727 0.931 . S
C741 C740 1.385 . S
C741 C742 1.389 . S
C742 C741 1.389 . S
C742 C743 1.387 . S
C743 H728 0.930 . S
C743 C738 1.390 . S
C743 C742 1.387 . S
H744 C756 0.930 . S
H745 C758 0.930 . S
H746 C759 0.930 . S
H747 C763 0.959 . S
H748 C763 0.959 . S
H749 C763 0.961 . S
H750 C764 0.960 . S
H751 C764 0.961 . S
H752 C764 0.959 . S
H753 C767 0.929 . S
H754 C768 0.931 . S
H755 C770 0.930 . S
C756 H744 0.930 . S
C756 C757 1.399 . S
C756 C761 1.399 . S
C757 C756 1.399 . S
C757 C758 1.376 . S
C758 H745 0.930 . S
C758 C757 1.376 . S
C758 C759 1.388 . S
C759 H746 0.930 . S
C759 C758 1.388 . S
C759 C760 1.390 . S
C760 C759 1.390 . S
C760 C761 1.394 . S
C760 C766 1.465 . S
C761 C756 1.399 . S
C761 C760 1.394 . S
C761 C762 1.516 . S
C762 C761 1.516 . S
C762 C763 1.502 . S
C762 C764 1.561 . S
C762 C765 1.526 . S
C763 H747 0.959 . S
C763 H748 0.959 . S
C763 H749 0.961 . S
C763 C762 1.502 . S
C764 H750 0.960 . S
C764 H751 0.961 . S
C764 H752 0.959 . S
C764 C762 1.561 . S
C765 C762 1.526 . S
C765 C766 1.396 . S
C765 C770 1.390 . S
C766 C760 1.465 . S
C766 C765 1.396 . S
C766 C767 1.399 . S
C767 H753 0.929 . S
C767 C766 1.399 . S
C767 C768 1.385 . S
C768 H754 0.931 . S
C768 C767 1.385 . S
C768 C769 1.389 . S
C769 C768 1.389 . S
C769 C770 1.387 . S
C770 H755 0.930 . S
C770 C765 1.390 . S
C770 C769 1.387 . S
H771 C783 0.930 . S
H772 C785 0.930 . S
H773 C786 0.930 . S
H774 C790 0.959 . S
H775 C790 0.959 . S
H776 C790 0.961 . S
H777 C791 0.960 . S
H778 C791 0.961 . S
H779 C791 0.959 . S
H780 C794 0.929 . S
H781 C795 0.931 . S
H782 C797 0.930 . S
C783 H771 0.930 . S
C783 C784 1.399 . S
C783 C788 1.399 . S
C784 C783 1.399 . S
C784 C785 1.376 . S
C785 H772 0.930 . S
C785 C784 1.376 . S
C785 C786 1.388 . S
C786 H773 0.930 . S
C786 C785 1.388 . S
C786 C787 1.390 . S
C787 C786 1.390 . S
C787 C788 1.394 . S
C787 C793 1.465 . S
C788 C783 1.399 . S
C788 C787 1.394 . S
C788 C789 1.516 . S
C789 C788 1.516 . S
C789 C790 1.502 . S
C789 C791 1.561 . S
C789 C792 1.526 . S
C790 H774 0.959 . S
C790 H775 0.959 . S
C790 H776 0.961 . S
C790 C789 1.502 . S
C791 H777 0.960 . S
C791 H778 0.961 . S
C791 H779 0.959 . S
C791 C789 1.561 . S
C792 C789 1.526 . S
C792 C793 1.396 . S
C792 C797 1.390 . S
C793 C787 1.465 . S
C793 C792 1.396 . S
C793 C794 1.399 . S
C794 H780 0.929 . S
C794 C793 1.399 . S
C794 C795 1.385 . S
C795 H781 0.931 . S
C795 C794 1.385 . S
C795 C796 1.389 . S
C796 C795 1.389 . S
C796 C797 1.387 . S
C797 H782 0.930 . S
C797 C792 1.390 . S
C797 C796 1.387 . S
H798 C810 0.930 . S
H799 C812 0.930 . S
H800 C813 0.930 . S
H801 C817 0.959 . S
H802 C817 0.959 . S
H803 C817 0.961 . S
H804 C818 0.960 . S
H805 C818 0.961 . S
H806 C818 0.959 . S
H807 C821 0.929 . S
H808 C822 0.931 . S
H809 C824 0.930 . S
C810 H798 0.930 . S
C810 C811 1.399 . S
C810 C815 1.399 . S
C811 C810 1.399 . S
C811 C812 1.376 . S
C812 H799 0.930 . S
C812 C811 1.376 . S
C812 C813 1.388 . S
C813 H800 0.930 . S
C813 C812 1.388 . S
C813 C814 1.390 . S
C814 C813 1.390 . S
C814 C815 1.394 . S
C814 C820 1.465 . S
C815 C810 1.399 . S
C815 C814 1.394 . S
C815 C816 1.516 . S
C816 C815 1.516 . S
C816 C817 1.502 . S
C816 C818 1.561 . S
C816 C819 1.526 . S
C817 H801 0.959 . S
C817 H802 0.959 . S
C817 H803 0.961 . S
C817 C816 1.502 . S
C818 H804 0.960 . S
C818 H805 0.961 . S
C818 H806 0.959 . S
C818 C816 1.561 . S
C819 C816 1.526 . S
C819 C820 1.396 . S
C819 C824 1.390 . S
C820 C814 1.465 . S
C820 C819 1.396 . S
C820 C821 1.399 . S
C821 H807 0.929 . S
C821 C820 1.399 . S
C821 C822 1.385 . S
C822 H808 0.931 . S
C822 C821 1.385 . S
C822 C823 1.389 . S
C823 C822 1.389 . S
C823 C824 1.387 . S
C824 H809 0.930 . S
C824 C819 1.390 . S
C824 C823 1.387 . S
H825 C837 0.930 . S
H826 C839 0.930 . S
H827 C840 0.930 1_655 S
H828 C844 0.959 . S
H829 C844 0.959 . S
H830 C844 0.961 . S
H831 C845 0.960 1_455 S
H832 C845 0.961 . S
H833 C845 0.959 . S
H834 C848 0.929 . S
H835 C849 0.931 . S
H836 C851 0.930 . S
C837 H825 0.930 . S
C837 C838 1.399 . S
C837 C842 1.399 . S
C838 C837 1.399 . S
C838 C839 1.376 . S
C839 H826 0.930 . S
C839 C838 1.376 . S
C839 C840 1.388 . S
C840 H827 0.930 1_455 S
C840 C839 1.388 . S
C840 C841 1.390 . S
C841 C840 1.390 . S
C841 C842 1.394 . S
C841 C847 1.465 1_455 S
C842 C837 1.399 . S
C842 C841 1.394 . S
C842 C843 1.516 . S
C843 C842 1.516 . S
C843 C844 1.502 . S
C843 C845 1.561 1_455 S
C843 C846 1.526 1_455 S
C844 H828 0.959 . S
C844 H829 0.959 . S
C844 H830 0.961 . S
C844 C843 1.502 . S
C845 H831 0.960 1_655 S
C845 H832 0.961 . S
C845 H833 0.959 . S
C845 C843 1.561 1_655 S
C846 C843 1.526 1_655 S
C846 C847 1.396 . S
C846 C851 1.390 . S
C847 C841 1.465 1_655 S
C847 C846 1.396 . S
C847 C848 1.399 . S
C848 H834 0.929 . S
C848 C847 1.399 . S
C848 C849 1.385 . S
C849 H835 0.931 . S
C849 C848 1.385 . S
C849 C850 1.389 . S
C850 C849 1.389 . S
C850 C851 1.387 . S
C851 H836 0.930 . S
C851 C846 1.390 . S
C851 C850 1.387 . S
H852 C864 0.930 . S
H853 C866 0.930 . S
H854 C867 0.930 1_565 S
H855 C871 0.959 . S
H856 C871 0.959 . S
H857 C871 0.961 . S
H858 C872 0.940 1_545 S
H859 C872 0.977 . S
H860 C872 0.967 . S
H861 C875 0.929 . S
H862 C876 0.931 . S
H863 C878 0.930 . S
C864 H852 0.930 . S
C864 C865 1.399 . S
C864 C869 1.399 . S
C865 C864 1.399 . S
C865 C866 1.376 . S
C866 H853 0.930 . S
C866 C865 1.376 . S
C866 C867 1.388 . S
C867 H854 0.930 1_545 S
C867 C866 1.388 . S
C867 C868 1.390 . S
C868 C867 1.390 . S
C868 C869 1.394 . S
C868 C874 1.465 1_545 S
C869 C864 1.399 . S
C869 C868 1.394 . S
C869 C870 1.516 . S
C870 C869 1.516 . S
C870 C871 1.502 . S
C870 C872 1.558 1_545 S
C870 C873 1.526 1_545 S
C871 H855 0.959 . S
C871 H856 0.959 . S
C871 H857 0.961 . S
C871 C870 1.502 . S
C872 H858 0.940 1_565 S
C872 H859 0.977 . S
C872 H860 0.967 . S
C872 C870 1.558 1_565 S
C873 C870 1.526 1_565 S
C873 C874 1.396 . S
C873 C878 1.390 . S
C874 C868 1.465 1_565 S
C874 C873 1.396 . S
C874 C875 1.399 . S
C875 H861 0.929 . S
C875 C874 1.399 . S
C875 C876 1.385 . S
C876 H862 0.931 . S
C876 C875 1.385 . S
C876 C877 1.389 . S
C877 C876 1.389 . S
C877 C878 1.387 . S
C878 H863 0.930 . S
C878 C873 1.390 . S
C878 C877 1.387 . S
H879 C891 0.930 . S
H880 C893 0.930 . S
H881 C894 0.930 . S
H882 C898 0.959 . S
H883 C898 0.959 . S
H884 C898 0.961 . S
H885 C899 0.960 . S
H886 C899 0.961 . S
H887 C899 0.959 . S
H888 C902 0.929 . S
H889 C903 0.931 . S
H890 C905 0.930 . S
C891 H879 0.930 . S
C891 C892 1.399 . S
C891 C896 1.399 . S
C892 C891 1.399 . S
C892 C893 1.376 . S
C893 H880 0.930 . S
C893 C892 1.376 . S
C893 C894 1.388 . S
C894 H881 0.930 . S
C894 C893 1.388 . S
C894 C895 1.390 . S
C895 C894 1.390 . S
C895 C896 1.394 . S
C895 C901 1.465 . S
C896 C891 1.399 . S
C896 C895 1.394 . S
C896 C897 1.516 . S
C897 C896 1.516 . S
C897 C898 1.502 . S
C897 C899 1.561 . S
C897 C900 1.526 . S
C898 H882 0.959 . S
C898 H883 0.959 . S
C898 H884 0.961 . S
C898 C897 1.502 . S
C899 H885 0.960 . S
C899 H886 0.961 . S
C899 H887 0.959 . S
C899 C897 1.561 . S
C900 C897 1.526 . S
C900 C901 1.396 . S
C900 C905 1.390 . S
C901 C895 1.465 . S
C901 C900 1.396 . S
C901 C902 1.399 . S
C902 H888 0.929 . S
C902 C901 1.399 . S
C902 C903 1.385 . S
C903 H889 0.931 . S
C903 C902 1.385 . S
C903 C904 1.389 . S
C904 C903 1.389 . S
C904 C905 1.387 . S
C905 H890 0.930 . S
C905 C900 1.390 . S
C905 C904 1.387 . S
H906 C918 0.930 . S
H907 C920 0.930 . S
H908 C921 0.930 . S
H909 C925 0.959 . S
H910 C925 0.959 . S
H911 C925 0.961 1_655 S
H912 C926 0.960 . S
H913 C926 0.961 . S
H914 C926 0.959 . S
H915 C929 0.929 . S
H916 C930 0.931 . S
H917 C932 0.930 . S
C918 H906 0.930 . S
C918 C919 1.399 . S
C918 C923 1.399 . S
C919 C918 1.399 . S
C919 C920 1.376 . S
C920 H907 0.930 . S
C920 C919 1.376 . S
C920 C921 1.388 . S
C921 H908 0.930 . S
C921 C920 1.388 . S
C921 C922 1.390 . S
C922 C921 1.390 . S
C922 C923 1.394 . S
C922 C928 1.465 1_655 S
C923 C918 1.399 . S
C923 C922 1.394 . S
C923 C924 1.516 . S
C924 C923 1.516 . S
C924 C925 1.502 1_655 S
C924 C926 1.561 . S
C924 C927 1.526 1_655 S
C925 H909 0.959 . S
C925 H910 0.959 . S
C925 H911 0.961 1_455 S
C925 C924 1.502 1_455 S
C926 H912 0.960 . S
C926 H913 0.961 . S
C926 H914 0.959 . S
C926 C924 1.561 . S
C927 C924 1.526 1_455 S
C927 C928 1.396 . S
C927 C932 1.390 . S
C928 C922 1.465 1_455 S
C928 C927 1.396 . S
C928 C929 1.399 . S
C929 H915 0.929 . S
C929 C928 1.399 . S
C929 C930 1.385 . S
C930 H916 0.931 . S
C930 C929 1.385 . S
C930 C931 1.389 . S
C931 C930 1.389 . S
C931 C932 1.387 . S
C932 H917 0.930 . S
C932 C927 1.390 . S
C932 C931 1.387 . S
H933 C945 0.930 . S
H934 C947 0.930 . S
H935 C948 0.930 1_545 S
H936 C952 0.981 . S
H937 C952 0.959 . S
H938 C952 0.961 . S
H939 C953 0.960 . S
H940 C953 0.961 . S
H941 C953 0.959 . S
H942 C956 0.929 . S
H943 C957 0.931 . S
H944 C959 0.930 . S
C945 H933 0.930 . S
C945 C946 1.399 . S
C945 C950 1.399 . S
C946 C945 1.399 . S
C946 C947 1.376 . S
C947 H934 0.930 . S
C947 C946 1.376 . S
C947 C948 1.388 . S
C948 H935 0.930 1_565 S
C948 C947 1.388 . S
C948 C949 1.390 . S
C949 C948 1.390 . S
C949 C950 1.394 . S
C949 C955 1.465 1_565 S
C950 C945 1.399 . S
C950 C949 1.394 . S
C950 C951 1.516 . S
C951 C950 1.516 . S
C951 C952 1.502 . S
C951 C953 1.561 . S
C951 C954 1.526 1_565 S
C952 H936 0.981 . S
C952 H937 0.959 . S
C952 H938 0.961 . S
C952 C951 1.502 . S
C953 H939 0.960 . S
C953 H940 0.961 . S
C953 H941 0.959 . S
C953 C951 1.561 . S
C954 C951 1.526 1_545 S
C954 C955 1.396 . S
C954 C959 1.390 . S
C955 C949 1.465 1_545 S
C955 C954 1.396 . S
C955 C956 1.399 . S
C956 H942 0.929 . S
C956 C955 1.399 . S
C956 C957 1.385 . S
C957 H943 0.931 . S
C957 C956 1.385 . S
C957 C958 1.389 . S
C958 C957 1.389 . S
C958 C959 1.387 . S
C959 H944 0.930 . S
C959 C954 1.390 . S
C959 C958 1.387 . S
H960 C972 0.930 . S
H961 C974 0.930 . S
H962 C975 0.930 . S
H963 C979 0.959 . S
H964 C979 0.959 . S
H965 C979 0.961 . S
H966 C980 0.960 . S
H967 C980 0.961 . S
H968 C980 0.959 . S
H969 C983 0.929 . S
H970 C984 0.931 . S
H971 C986 0.930 . S
C972 H960 0.930 . S
C972 C973 1.399 . S
C972 C977 1.399 . S
C973 C972 1.399 . S
C973 C974 1.376 . S
C974 H961 0.930 . S
C974 C973 1.376 . S
C974 C975 1.388 . S
C975 H962 0.930 . S
C975 C974 1.388 . S
C975 C976 1.390 . S
C976 C975 1.390 . S
C976 C977 1.394 . S
C976 C982 1.465 . S
C977 C972 1.399 . S
C977 C976 1.394 . S
C977 C978 1.516 . S
C978 C977 1.516 . S
C978 C979 1.502 . S
C978 C980 1.561 . S
C978 C981 1.526 . S
C979 H963 0.959 . S
C979 H964 0.959 . S
C979 H965 0.961 . S
C979 C978 1.502 . S
C980 H966 0.960 . S
C980 H967 0.961 . S
C980 H968 0.959 . S
C980 C978 1.561 . S
C981 C978 1.526 . S
C981 C982 1.396 . S
C981 C986 1.390 . S
C982 C976 1.465 . S
C982 C981 1.396 . S
C982 C983 1.399 . S
C983 H969 0.929 . S
C983 C982 1.399 . S
C983 C984 1.385 . S
C984 H970 0.931 . S
C984 C983 1.385 . S
C984 C985 1.389 . S
C985 C984 1.389 . S
C985 C986 1.387 . S
C986 H971 0.930 . S
C986 C981 1.390 . S
C986 C985 1.387 . S
H987 C999 0.930 . S
H988 C1001 0.930 . S
H989 C1002 0.930 . S
H990 C1006 0.959 . S
H991 C1006 0.959 . S
H992 C1006 0.961 . S
H993 C1007 0.960 . S
H994 C1007 0.961 . S
H995 C1007 0.959 . S
H996 C1010 0.929 . S
H997 C1011 0.931 . S
H998 C1013 0.930 . S
C999 H987 0.930 . S
C999 C1000 1.399 1_455 S
C999 C1004 1.399 . S
C1000 C999 1.399 1_655 S
C1000 C1001 1.376 . S
C1001 H988 0.930 . S
C1001 C1000 1.376 . S
C1001 C1002 1.388 . S
C1002 H989 0.930 . S
C1002 C1001 1.388 . S
C1002 C1003 1.390 . S
C1003 C1002 1.390 . S
C1003 C1004 1.394 1_655 S
C1003 C1009 1.465 . S
C1004 C999 1.399 . S
C1004 C1003 1.394 1_455 S
C1004 C1005 1.516 . S
C1005 C1004 1.516 . S
C1005 C1006 1.502 . S
C1005 C1007 1.561 . S
C1005 C1008 1.526 . S
C1006 H990 0.959 . S
C1006 H991 0.959 . S
C1006 H992 0.961 . S
C1006 C1005 1.502 . S
C1007 H993 0.960 . S
C1007 H994 0.961 . S
C1007 H995 0.959 . S
C1007 C1005 1.561 . S
C1008 C1005 1.526 . S
C1008 C1009 1.396 1_455 S
C1008 C1013 1.390 . S
C1009 C1003 1.465 . S
C1009 C1008 1.396 1_655 S
C1009 C1010 1.399 . S
C1010 H996 0.929 . S
C1010 C1009 1.399 . S
C1010 C1011 1.385 . S
C1011 H997 0.931 . S
C1011 C1010 1.385 . S
C1011 C1012 1.389 1_655 S
C1012 C1011 1.389 1_455 S
C1012 C1013 1.387 . S
C1013 H998 0.930 . S
C1013 C1008 1.390 . S
C1013 C1012 1.387 . S
H1014 C1026 0.930 . S
H1015 C1028 0.930 . S
H1016 C1029 0.930 1_545 S
H1017 C1033 0.959 . S
H1018 C1033 0.959 . S
H1019 C1033 0.961 . S
H1020 C1034 0.960 1_565 S
H1021 C1034 0.961 1_554 S
H1022 C1034 0.959 . S
H1023 C1037 0.929 . S
H1024 C1038 0.931 . S
H1025 C1040 0.930 . S
C1026 H1014 0.930 . S
C1026 C1027 1.399 . S
C1026 C1031 1.399 . S
C1027 C1026 1.399 . S
C1027 C1028 1.376 . S
C1028 H1015 0.930 . S
C1028 C1027 1.376 . S
C1028 C1029 1.388 . S
C1029 H1016 0.930 1_565 S
C1029 C1028 1.388 . S
C1029 C1030 1.390 . S
C1030 C1029 1.390 . S
C1030 C1031 1.394 . S
C1030 C1036 1.465 1_566 S
C1031 C1026 1.399 . S
C1031 C1030 1.394 . S
C1031 C1032 1.516 1_556 S
C1032 C1031 1.516 1_554 S
C1032 C1033 1.502 . S
C1032 C1034 1.561 1_564 S
C1032 C1035 1.526 1_565 S
C1033 H1017 0.959 . S
C1033 H1018 0.959 . S
C1033 H1019 0.961 . S
C1033 C1032 1.502 . S
C1034 H1020 0.960 1_545 S
C1034 H1021 0.961 1_556 S
C1034 H1022 0.959 . S
C1034 C1032 1.561 1_546 S
C1035 C1032 1.526 1_545 S
C1035 C1036 1.396 . S
C1035 C1040 1.390 . S
C1036 C1030 1.465 1_544 S
C1036 C1035 1.396 . S
C1036 C1037 1.399 . S
C1037 H1023 0.929 . S
C1037 C1036 1.399 . S
C1037 C1038 1.385 . S
C1038 H1024 0.931 . S
C1038 C1037 1.385 . S
C1038 C1039 1.389 . S
C1039 C1038 1.389 . S
C1039 C1040 1.387 . S
C1040 H1025 0.930 . S
C1040 C1035 1.390 . S
C1040 C1039 1.387 . S
H1041 C1053 0.930 . S
H1042 C1055 0.930 . S
H1043 C1056 0.930 . S
H1044 C1060 0.959 . S
H1045 C1060 0.959 . S
H1046 C1060 0.961 . S
H1047 C1061 0.960 . S
H1048 C1061 0.961 . S
H1049 C1061 0.959 . S
H1050 C1064 0.929 . S
H1051 C1065 0.931 . S
H1052 C1067 0.930 . S
C1053 H1041 0.930 . S
C1053 C1054 1.399 . S
C1053 C1058 1.399 . S
C1054 C1053 1.399 . S
C1054 C1055 1.376 . S
C1055 H1042 0.930 . S
C1055 C1054 1.376 . S
C1055 C1056 1.388 . S
C1056 H1043 0.930 . S
C1056 C1055 1.388 . S
C1056 C1057 1.390 . S
C1057 C1056 1.390 . S
C1057 C1058 1.394 . S
C1057 C1063 1.465 . S
C1058 C1053 1.399 . S
C1058 C1057 1.394 . S
C1058 C1059 1.516 . S
C1059 C1058 1.516 . S
C1059 C1060 1.502 . S
C1059 C1061 1.561 . S
C1059 C1062 1.526 . S
C1060 H1044 0.959 . S
C1060 H1045 0.959 . S
C1060 H1046 0.961 . S
C1060 C1059 1.502 . S
C1061 H1047 0.960 . S
C1061 H1048 0.961 . S
C1061 H1049 0.959 . S
C1061 C1059 1.561 . S
C1062 C1059 1.526 . S
C1062 C1063 1.396 . S
C1062 C1067 1.390 . S
C1063 C1057 1.465 . S
C1063 C1062 1.396 . S
C1063 C1064 1.399 . S
C1064 H1050 0.929 . S
C1064 C1063 1.399 . S
C1064 C1065 1.385 . S
C1065 H1051 0.931 . S
C1065 C1064 1.385 . S
C1065 C1066 1.389 . S
C1066 C1065 1.389 . S
C1066 C1067 1.387 . S
C1067 H1052 0.930 . S
C1067 C1062 1.390 . S
C1067 C1066 1.387 . S
H1068 C1080 0.930 1_655 S
H1069 C1082 0.930 . S
H1070 C1083 0.930 . S
H1071 C1087 0.959 . S
H1072 C1087 0.959 . S
H1073 C1087 0.961 . S
H1074 C1088 0.960 . S
H1075 C1088 0.961 . S
H1076 C1088 0.959 1_455 S
H1077 C1091 0.929 . S
H1078 C1092 0.931 1_455 S
H1079 C1094 0.930 . S
C1080 H1068 0.930 1_455 S
C1080 C1081 1.399 . S
C1080 C1085 1.399 1_455 S
C1081 C1080 1.399 . S
C1081 C1082 1.376 . S
C1082 H1069 0.930 . S
C1082 C1081 1.376 . S
C1082 C1083 1.388 . S
C1083 H1070 0.930 . S
C1083 C1082 1.388 . S
C1083 C1084 1.390 . S
C1084 C1083 1.390 . S
C1084 C1085 1.394 1_455 S
C1084 C1090 1.465 . S
C1085 C1080 1.399 1_655 S
C1085 C1084 1.394 1_655 S
C1085 C1086 1.516 . S
C1086 C1085 1.516 . S
C1086 C1087 1.502 . S
C1086 C1088 1.561 . S
C1086 C1089 1.526 . S
C1087 H1071 0.959 . S
C1087 H1072 0.959 . S
C1087 H1073 0.961 . S
C1087 C1086 1.502 . S
C1088 H1074 0.960 . S
C1088 H1075 0.961 . S
C1088 H1076 0.959 1_655 S
C1088 C1086 1.561 . S
C1089 C1086 1.526 . S
C1089 C1090 1.396 1_655 S
C1089 C1094 1.390 . S
C1090 C1084 1.465 . S
C1090 C1089 1.396 1_455 S
C1090 C1091 1.399 . S
C1091 H1077 0.929 . S
C1091 C1090 1.399 . S
C1091 C1092 1.385 1_455 S
C1092 H1078 0.931 1_655 S
C1092 C1091 1.385 1_655 S
C1092 C1093 1.389 . S
C1093 C1092 1.389 . S
C1093 C1094 1.387 . S
C1094 H1079 0.930 . S
C1094 C1089 1.390 . S
C1094 C1093 1.387 . S
H1095 C1107 0.930 . S
H1096 C1109 0.930 . S
H1097 C1110 0.930 . S
H1098 C1114 0.959 . S
H1099 C1114 0.959 . S
H1100 C1114 0.961 . S
H1101 C1115 0.960 . S
H1102 C1115 0.961 . S
H1103 C1115 0.959 . S
H1104 C1118 0.929 1_554 S
H1105 C1119 0.931 . S
H1106 C1121 0.930 . S
C1107 H1095 0.930 . S
C1107 C1108 1.399 . S
C1107 C1112 1.399 . S
C1108 C1107 1.399 . S
C1108 C1109 1.376 . S
C1109 H1096 0.930 . S
C1109 C1108 1.376 . S
C1109 C1110 1.388 1_565 S
C1110 H1097 0.930 . S
C1110 C1109 1.388 1_545 S
C1110 C1111 1.390 . S
C1111 C1110 1.390 . S
C1111 C1112 1.394 1_545 S
C1111 C1117 1.465 1_554 S
C1112 C1107 1.399 . S
C1112 C1111 1.394 1_565 S
C1112 C1113 1.516 1_554 S
C1113 C1112 1.516 1_556 S
C1113 C1114 1.502 . S
C1113 C1115 1.561 . S
C1113 C1116 1.526 1_565 S
C1114 H1098 0.959 . S
C1114 H1099 0.959 . S
C1114 H1100 0.961 . S
C1114 C1113 1.502 . S
C1115 H1101 0.960 . S
C1115 H1102 0.961 . S
C1115 H1103 0.959 . S
C1115 C1113 1.561 . S
C1116 C1113 1.526 1_545 S
C1116 C1117 1.396 . S
C1116 C1121 1.390 . S
C1117 C1111 1.465 1_556 S
C1117 C1116 1.396 . S
C1117 C1118 1.399 . S
C1118 H1104 0.929 1_556 S
C1118 C1117 1.399 . S
C1118 C1119 1.385 . S
C1119 H1105 0.931 . S
C1119 C1118 1.385 . S
C1119 C1120 1.389 . S
C1120 C1119 1.389 . S
C1120 C1121 1.387 . S
C1121 H1106 0.930 . S
C1121 C1116 1.390 . S
C1121 C1120 1.387 . S
H1122 C1134 0.930 . S
H1123 C1136 0.930 . S
H1124 C1137 0.930 . S
H1125 C1141 0.959 . S
H1126 C1141 0.959 1_455 S
H1127 C1141 0.961 . S
H1128 C1142 0.960 . S
H1129 C1142 0.961 . S
H1130 C1142 0.959 . S
H1131 C1145 0.929 . S
H1132 C1146 0.931 . S
H1133 C1148 0.930 . S
C1134 H1122 0.930 . S
C1134 C1135 1.399 . S
C1134 C1139 1.399 1_655 S
C1135 C1134 1.399 . S
C1135 C1136 1.376 . S
C1136 H1123 0.930 . S
C1136 C1135 1.376 . S
C1136 C1137 1.388 1_655 S
C1137 H1124 0.930 . S
C1137 C1136 1.388 1_455 S
C1137 C1138 1.390 . S
C1138 C1137 1.390 . S
C1138 C1139 1.394 . S
C1138 C1144 1.465 . S
C1139 C1134 1.399 1_455 S
C1139 C1138 1.394 . S
C1139 C1140 1.516 . S
C1140 C1139 1.516 . S
C1140 C1141 1.502 1_455 S
C1140 C1142 1.561 . S
C1140 C1143 1.526 . S
C1141 H1125 0.959 . S
C1141 H1126 0.959 1_655 S
C1141 H1127 0.961 . S
C1141 C1140 1.502 1_655 S
C1142 H1128 0.960 . S
C1142 H1129 0.961 . S
C1142 H1130 0.959 . S
C1142 C1140 1.561 . S
C1143 C1140 1.526 . S
C1143 C1144 1.396 . S
C1143 C1148 1.390 . S
C1144 C1138 1.465 . S
C1144 C1143 1.396 . S
C1144 C1145 1.399 . S
C1145 H1131 0.929 . S
C1145 C1144 1.399 . S
C1145 C1146 1.385 . S
C1146 H1132 0.931 . S
C1146 C1145 1.385 . S
C1146 C1147 1.389 . S
C1147 C1146 1.389 . S
C1147 C1148 1.387 . S
C1148 H1133 0.930 . S
C1148 C1143 1.390 . S
C1148 C1147 1.387 . S
H1149 C1161 0.930 . S
H1150 C1163 0.930 . S
H1151 C1164 0.930 . S
H1152 C1168 0.959 . S
H1153 C1168 0.959 . S
H1154 C1168 0.961 . S
H1155 C1169 0.960 . S
H1156 C1169 0.961 . S
H1157 C1169 0.959 . S
H1158 C1172 0.929 1_545 S
H1159 C1173 0.931 . S
H1160 C1175 0.930 . S
C1161 H1149 0.930 . S
C1161 C1162 1.399 . S
C1161 C1166 1.399 . S
C1162 C1161 1.399 . S
C1162 C1163 1.376 . S
C1163 H1150 0.930 . S
C1163 C1162 1.376 . S
C1163 C1164 1.388 . S
C1164 H1151 0.930 . S
C1164 C1163 1.388 . S
C1164 C1165 1.390 . S
C1165 C1164 1.390 . S
C1165 C1166 1.394 . S
C1165 C1171 1.465 1_545 S
C1166 C1161 1.399 . S
C1166 C1165 1.394 . S
C1166 C1167 1.516 1_545 S
C1167 C1166 1.516 1_565 S
C1167 C1168 1.502 . S
C1167 C1169 1.561 . S
C1167 C1170 1.526 . S
C1168 H1152 0.959 . S
C1168 H1153 0.959 . S
C1168 H1154 0.961 . S
C1168 C1167 1.502 . S
C1169 H1155 0.960 . S
C1169 H1156 0.961 . S
C1169 H1157 0.959 . S
C1169 C1167 1.561 . S
C1170 C1167 1.526 . S
C1170 C1171 1.396 . S
C1170 C1175 1.390 . S
C1171 C1165 1.465 1_565 S
C1171 C1170 1.396 . S
C1171 C1172 1.399 . S
C1172 H1158 0.929 1_565 S
C1172 C1171 1.399 . S
C1172 C1173 1.385 . S
C1173 H1159 0.931 . S
C1173 C1172 1.385 . S
C1173 C1174 1.389 . S
C1174 C1173 1.389 . S
C1174 C1175 1.387 . S
C1175 H1160 0.930 . S
C1175 C1170 1.390 . S
C1175 C1174 1.387 . S
H1176 C1188 0.930 . S
H1177 C1190 0.930 . S
H1178 C1191 0.930 . S
H1179 C1195 0.959 . S
H1180 C1195 0.959 . S
H1181 C1195 0.961 . S
H1182 C1196 0.960 . S
H1183 C1196 0.961 . S
H1184 C1196 0.959 . S
H1185 C1199 0.929 . S
H1186 C1200 0.931 . S
H1187 C1202 0.930 . S
C1188 H1176 0.930 . S
C1188 C1189 1.399 . S
C1188 C1193 1.399 . S
C1189 C1188 1.399 . S
C1189 C1190 1.376 . S
C1190 H1177 0.930 . S
C1190 C1189 1.376 . S
C1190 C1191 1.388 . S
C1191 H1178 0.930 . S
C1191 C1190 1.388 . S
C1191 C1192 1.390 . S
C1192 C1191 1.390 . S
C1192 C1193 1.394 . S
C1192 C1198 1.465 . S
C1193 C1188 1.399 . S
C1193 C1192 1.394 . S
C1193 C1194 1.516 . S
C1194 C1193 1.516 . S
C1194 C1195 1.502 . S
C1194 C1196 1.561 . S
C1194 C1197 1.526 . S
C1195 H1179 0.959 . S
C1195 H1180 0.959 . S
C1195 H1181 0.961 . S
C1195 C1194 1.502 . S
C1196 H1182 0.960 . S
C1196 H1183 0.961 . S
C1196 H1184 0.959 . S
C1196 C1194 1.561 . S
C1197 C1194 1.526 . S
C1197 C1198 1.396 . S
C1197 C1202 1.390 . S
C1198 C1192 1.465 . S
C1198 C1197 1.396 . S
C1198 C1199 1.399 . S
C1199 H1185 0.929 . S
C1199 C1198 1.399 . S
C1199 C1200 1.385 . S
C1200 H1186 0.931 . S
C1200 C1199 1.385 . S
C1200 C1201 1.389 . S
C1201 C1200 1.389 . S
C1201 C1202 1.387 . S
C1202 H1187 0.930 . S
C1202 C1197 1.390 . S
C1202 C1201 1.387 . S
H1203 C1215 0.930 . S
H1204 C1217 0.930 . S
H1205 C1218 0.930 . S
H1206 C1222 0.965 . S
H1207 C1222 0.959 . S
H1208 C1222 0.961 . S
H1209 C1223 0.960 . S
H1210 C1223 0.961 . S
H1211 C1223 0.959 . S
H1212 C1226 0.929 . S
H1213 C1227 0.931 . S
H1214 C1229 0.930 . S
C1215 H1203 0.930 . S
C1215 C1216 1.399 . S
C1215 C1220 1.399 . S
C1216 C1215 1.399 . S
C1216 C1217 1.376 . S
C1217 H1204 0.930 . S
C1217 C1216 1.376 . S
C1217 C1218 1.388 . S
C1218 H1205 0.930 . S
C1218 C1217 1.388 . S
C1218 C1219 1.390 . S
C1219 C1218 1.390 . S
C1219 C1220 1.394 . S
C1219 C1225 1.465 . S
C1220 C1215 1.399 . S
C1220 C1219 1.394 . S
C1220 C1221 1.516 . S
C1221 C1220 1.516 . S
C1221 C1222 1.502 . S
C1221 C1223 1.561 . S
C1221 C1224 1.526 . S
C1222 H1206 0.965 . S
C1222 H1207 0.959 . S
C1222 H1208 0.961 . S
C1222 C1221 1.502 . S
C1223 H1209 0.960 . S
C1223 H1210 0.961 . S
C1223 H1211 0.959 . S
C1223 C1221 1.561 . S
C1224 C1221 1.526 . S
C1224 C1225 1.396 . S
C1224 C1229 1.390 1_655 S
C1225 C1219 1.465 . S
C1225 C1224 1.396 . S
C1225 C1226 1.399 . S
C1226 H1212 0.929 . S
C1226 C1225 1.399 . S
C1226 C1227 1.385 1_655 S
C1227 H1213 0.931 . S
C1227 C1226 1.385 1_455 S
C1227 C1228 1.389 . S
C1228 C1227 1.389 . S
C1228 C1229 1.387 . S
C1229 H1214 0.930 . S
C1229 C1224 1.390 1_455 S
C1229 C1228 1.387 . S
H1230 C1242 0.930 . S
H1231 C1244 0.930 . S
H1232 C1245 0.930 . S
H1233 C1249 0.959 1_565 S
H1234 C1249 0.959 . S
H1235 C1249 0.961 1_565 S
H1236 C1250 0.960 . S
H1237 C1250 0.961 . S
H1238 C1250 0.959 . S
H1239 C1253 0.929 . S
H1240 C1254 0.931 . S
H1241 C1256 0.930 . S
C1242 H1230 0.930 . S
C1242 C1243 1.399 . S
C1242 C1247 1.399 . S
C1243 C1242 1.399 . S
C1243 C1244 1.376 . S
C1244 H1231 0.930 . S
C1244 C1243 1.376 . S
C1244 C1245 1.388 . S
C1245 H1232 0.930 . S
C1245 C1244 1.388 . S
C1245 C1246 1.390 . S
C1246 C1245 1.390 . S
C1246 C1247 1.394 . S
C1246 C1252 1.465 1_565 S
C1247 C1242 1.399 . S
C1247 C1246 1.394 . S
C1247 C1248 1.516 1_565 S
C1248 C1247 1.516 1_545 S
C1248 C1249 1.502 . S
C1248 C1250 1.561 . S
C1248 C1251 1.526 . S
C1249 H1233 0.959 1_545 S
C1249 H1234 0.959 . S
C1249 H1235 0.961 1_545 S
C1249 C1248 1.502 . S
C1250 H1236 0.960 . S
C1250 H1237 0.961 . S
C1250 H1238 0.959 . S
C1250 C1248 1.561 . S
C1251 C1248 1.526 . S
C1251 C1252 1.396 . S
C1251 C1256 1.390 . S
C1252 C1246 1.465 1_545 S
C1252 C1251 1.396 . S
C1252 C1253 1.399 . S
C1253 H1239 0.929 . S
C1253 C1252 1.399 . S
C1253 C1254 1.385 . S
C1254 H1240 0.931 . S
C1254 C1253 1.385 . S
C1254 C1255 1.389 . S
C1255 C1254 1.389 . S
C1255 C1256 1.387 . S
C1256 H1241 0.930 . S
C1256 C1251 1.390 . S
C1256 C1255 1.387 . S
H1257 C1269 0.930 . S
H1258 C1271 0.930 . S
H1259 C1272 0.930 . S
H1260 C1276 0.959 . S
H1261 C1276 0.959 . S
H1262 C1276 0.961 . S
H1263 C1277 0.960 . S
H1264 C1277 0.961 . S
H1265 C1277 0.959 . S
H1266 C1280 0.929 . S
H1267 C1281 0.931 . S
H1268 C1283 0.930 . S
C1269 H1257 0.930 . S
C1269 C1270 1.399 . S
C1269 C1274 1.399 . S
C1270 C1269 1.399 . S
C1270 C1271 1.376 . S
C1271 H1258 0.930 . S
C1271 C1270 1.376 . S
C1271 C1272 1.388 . S
C1272 H1259 0.930 . S
C1272 C1271 1.388 . S
C1272 C1273 1.390 . S
C1273 C1272 1.390 . S
C1273 C1274 1.394 . S
C1273 C1279 1.465 . S
C1274 C1269 1.399 . S
C1274 C1273 1.394 . S
C1274 C1275 1.516 . S
C1275 C1274 1.516 . S
C1275 C1276 1.502 . S
C1275 C1277 1.561 . S
C1275 C1278 1.526 . S
C1276 H1260 0.959 . S
C1276 H1261 0.959 . S
C1276 H1262 0.961 . S
C1276 C1275 1.502 . S
C1277 H1263 0.960 . S
C1277 H1264 0.961 . S
C1277 H1265 0.959 . S
C1277 C1275 1.561 . S
C1278 C1275 1.526 . S
C1278 C1279 1.396 . S
C1278 C1283 1.390 . S
C1279 C1273 1.465 . S
C1279 C1278 1.396 . S
C1279 C1280 1.399 . S
C1280 H1266 0.929 . S
C1280 C1279 1.399 . S
C1280 C1281 1.385 . S
C1281 H1267 0.931 . S
C1281 C1280 1.385 . S
C1281 C1282 1.389 . S
C1282 C1281 1.389 . S
C1282 C1283 1.387 . S
C1283 H1268 0.930 . S
C1283 C1278 1.390 . S
C1283 C1282 1.387 . S
C649 C463 1.879 . S
C661 C22 1.912 . S
C676 C75 2.029 . S
C688 C499 1.978 . S
C703 C145 1.914 . S
C715 C552 1.875 . S
C730 C181 1.898 . S
C742 C622 1.857 . S
C757 C340 1.992 . S
C769 C234 2.002 . S
C784 C304 1.907 . S
C796 C393 1.857 . S
C811 C197 2.173 . S
C823 C38 2.180 . S
C838 C250 2.117 . S
C850 C91 2.119 . S
C865 C294 1.298 . S
C877 C135 1.311 . S
C892 C356 2.116 . S
C904 C515 2.118 . S
C919 C409 2.200 . S
C931 C568 2.198 . S
C946 C453 1.334 . S
C958 C612 1.340 . S
C973 C29 1.935 . S
C985 C506 1.870 . S
C1000 C82 1.863 . S
C1012 C559 1.936 . S
C1027 C144 1.512 . S
C1039 C621 1.486 . S
C1054 C347 1.919 . S
C1066 C188 1.874 . S
C1081 C241 1.871 . S
C1093 C400 1.933 . S
C1108 C462 1.532 . S
C1120 C303 1.492 . S
C1135 C605 1.755 . S
C1147 C39 1.711 . S
C1162 C92 2.110 . S
C1174 C357 2.138 . S
C1189 C410 1.731 . S
C1201 C128 1.743 . S
C1216 C198 1.709 . S
C1228 C446 1.724 . S
C1243 C251 2.120 . S
C1255 C516 2.132 . S
C1270 C569 1.698 . S
C1282 C287 1.753 . S
