# Generated by pormake.
# Topology wiv, (6)-cn, num edge types: 1
# Building blocks:
#     Node 0, Type 0, BuildingBlock: PAMTUU_clean_sbu_0, # of connection points: 6
#     Node 1, Type 0, BuildingBlock: PAMTUU_clean_sbu_0, # of connection points: 6
#     Node 2, Type 0, BuildingBlock: PAMTUU_clean_sbu_0, # of connection points: 6
#     Node 3, Type 0, BuildingBlock: PAMTUU_clean_sbu_0, # of connection points: 6
#     Node 4, Type 0, BuildingBlock: PAMTUU_clean_sbu_0, # of connection points: 6
#     Node 5, Type 0, BuildingBlock: PAMTUU_clean_sbu_0, # of connection points: 6
#     Node 6, Type 0, BuildingBlock: PAMTUU_clean_sbu_0, # of connection points: 6
#     Node 7, Type 0, BuildingBlock: PAMTUU_clean_sbu_0, # of connection points: 6
#     Node 8, Type 0, BuildingBlock: PAMTUU_clean_sbu_0, # of connection points: 6
#     Node 9, Type 0, BuildingBlock: PAMTUU_clean_sbu_0, # of connection points: 6
#     Node 10, Type 0, BuildingBlock: PAMTUU_clean_sbu_0, # of connection points: 6
#     Node 11, Type 0, BuildingBlock: PAMTUU_clean_sbu_0, # of connection points: 6
#     Node 12, Type 0, BuildingBlock: PAMTUU_clean_sbu_0, # of connection points: 6
#     Node 13, Type 0, BuildingBlock: PAMTUU_clean_sbu_0, # of connection points: 6
#     Node 14, Type 0, BuildingBlock: PAMTUU_clean_sbu_0, # of connection points: 6
#     Node 15, Type 0, BuildingBlock: PAMTUU_clean_sbu_0, # of connection points: 6
#     Edge 16, Type (0, 0), BuildingBlock: EZIPEK_clean_linker_0, # of connection points: 2
#     Edge 17, Type (0, 0), BuildingBlock: EZIPEK_clean_linker_0, # of connection points: 2
#     Edge 18, Type (0, 0), BuildingBlock: EZIPEK_clean_linker_0, # of connection points: 2
#     Edge 19, Type (0, 0), BuildingBlock: EZIPEK_clean_linker_0, # of connection points: 2
#     Edge 20, Type (0, 0), BuildingBlock: EZIPEK_clean_linker_0, # of connection points: 2
#     Edge 21, Type (0, 0), BuildingBlock: EZIPEK_clean_linker_0, # of connection points: 2
#     Edge 22, Type (0, 0), BuildingBlock: EZIPEK_clean_linker_0, # of connection points: 2
#     Edge 23, Type (0, 0), BuildingBlock: EZIPEK_clean_linker_0, # of connection points: 2
#     Edge 24, Type (0, 0), BuildingBlock: EZIPEK_clean_linker_0, # of connection points: 2
#     Edge 25, Type (0, 0), BuildingBlock: EZIPEK_clean_linker_0, # of connection points: 2
#     Edge 26, Type (0, 0), BuildingBlock: EZIPEK_clean_linker_0, # of connection points: 2
#     Edge 27, Type (0, 0), BuildingBlock: EZIPEK_clean_linker_0, # of connection points: 2
#     Edge 28, Type (0, 0), BuildingBlock: EZIPEK_clean_linker_0, # of connection points: 2
#     Edge 29, Type (0, 0), BuildingBlock: EZIPEK_clean_linker_0, # of connection points: 2
#     Edge 30, Type (0, 0), BuildingBlock: EZIPEK_clean_linker_0, # of connection points: 2
#     Edge 31, Type (0, 0), BuildingBlock: EZIPEK_clean_linker_0, # of connection points: 2
#     Edge 32, Type (0, 0), BuildingBlock: EZIPEK_clean_linker_0, # of connection points: 2
#     Edge 33, Type (0, 0), BuildingBlock: EZIPEK_clean_linker_0, # of connection points: 2
#     Edge 34, Type (0, 0), BuildingBlock: EZIPEK_clean_linker_0, # of connection points: 2
#     Edge 35, Type (0, 0), BuildingBlock: EZIPEK_clean_linker_0, # of connection points: 2
#     Edge 36, Type (0, 0), BuildingBlock: EZIPEK_clean_linker_0, # of connection points: 2
#     Edge 37, Type (0, 0), BuildingBlock: EZIPEK_clean_linker_0, # of connection points: 2
#     Edge 38, Type (0, 0), BuildingBlock: EZIPEK_clean_linker_0, # of connection points: 2
#     Edge 39, Type (0, 0), BuildingBlock: EZIPEK_clean_linker_0, # of connection points: 2
#     Edge 40, Type (0, 0), BuildingBlock: EZIPEK_clean_linker_0, # of connection points: 2
#     Edge 41, Type (0, 0), BuildingBlock: EZIPEK_clean_linker_0, # of connection points: 2
#     Edge 42, Type (0, 0), BuildingBlock: EZIPEK_clean_linker_0, # of connection points: 2
#     Edge 43, Type (0, 0), BuildingBlock: EZIPEK_clean_linker_0, # of connection points: 2
#     Edge 44, Type (0, 0), BuildingBlock: EZIPEK_clean_linker_0, # of connection points: 2
#     Edge 45, Type (0, 0), BuildingBlock: EZIPEK_clean_linker_0, # of connection points: 2
#     Edge 46, Type (0, 0), BuildingBlock: EZIPEK_clean_linker_0, # of connection points: 2
#     Edge 47, Type (0, 0), BuildingBlock: EZIPEK_clean_linker_0, # of connection points: 2
#     Edge 48, Type (0, 0), BuildingBlock: EZIPEK_clean_linker_0, # of connection points: 2
#     Edge 49, Type (0, 0), BuildingBlock: EZIPEK_clean_linker_0, # of connection points: 2
#     Edge 50, Type (0, 0), BuildingBlock: EZIPEK_clean_linker_0, # of connection points: 2
#     Edge 51, Type (0, 0), BuildingBlock: EZIPEK_clean_linker_0, # of connection points: 2
#     Edge 52, Type (0, 0), BuildingBlock: EZIPEK_clean_linker_0, # of connection points: 2
#     Edge 53, Type (0, 0), BuildingBlock: EZIPEK_clean_linker_0, # of connection points: 2
#     Edge 54, Type (0, 0), BuildingBlock: EZIPEK_clean_linker_0, # of connection points: 2
#     Edge 55, Type (0, 0), BuildingBlock: EZIPEK_clean_linker_0, # of connection points: 2
#     Edge 56, Type (0, 0), BuildingBlock: EZIPEK_clean_linker_0, # of connection points: 2
#     Edge 57, Type (0, 0), BuildingBlock: EZIPEK_clean_linker_0, # of connection points: 2
#     Edge 58, Type (0, 0), BuildingBlock: EZIPEK_clean_linker_0, # of connection points: 2
#     Edge 59, Type (0, 0), BuildingBlock: EZIPEK_clean_linker_0, # of connection points: 2
#     Edge 60, Type (0, 0), BuildingBlock: EZIPEK_clean_linker_0, # of connection points: 2
#     Edge 61, Type (0, 0), BuildingBlock: EZIPEK_clean_linker_0, # of connection points: 2
#     Edge 62, Type (0, 0), BuildingBlock: EZIPEK_clean_linker_0, # of connection points: 2
#     Edge 63, Type (0, 0), BuildingBlock: EZIPEK_clean_linker_0, # of connection points: 2
# Relax obj value: 0.200
# Max RMSD: 0.232
# Mean RMSD: 0.232
data_MOF--net-wiv--node1-PAMTUU_clean_sbu_0--edge1-EZIPEK_clean_linker_0
_symmetry_space_group_name_H-M    P1
_symmetry_Int_Tables_number       1
_symmetry_cell_setting            triclinic
loop_
_symmetry_equiv_pos_as_xyz
'x, y, z'
_cell_length_a     35.448775
_cell_length_b     35.312327
_cell_length_c     20.003936
_cell_angle_alpha  90.027051
_cell_angle_beta   90.14288
_cell_angle_gamma 90.154874
loop_
_atom_site_label
_atom_site_type_symbol
_atom_site_fract_x
_atom_site_fract_y
_atom_site_fract_z
_atom_type_partial_charge
Tb0 Tb 0.37689 0.09357 0.07606 0.0
Tb1 Tb 0.31458 0.08998 0.19435 0.0
C2 C 0.35887 0.02017 0.15471 0.0
C3 C 0.40696 0.09638 0.90146 0.0
C4 C 0.38012 0.09492 0.76857 0.0
C5 C 0.40985 0.07118 0.7883 0.0
C6 C 0.42326 0.07202 0.85421 0.0
C7 C 0.37757 0.12057 0.88129 0.0
C8 C 0.36448 0.12004 0.81522 0.0
C9 C 0.41746 0.09293 0.97273 0.0
O10 O 0.32404 0.07511 1.03074 0.0
O11 O 0.28115 0.10119 0.10275 0.0
O12 O 0.33634 0.14703 0.19461 0.0
O13 O 0.34974 0.14949 0.08351 0.0
O14 O 0.28775 0.05337 0.26137 0.0
O15 O 0.27684 0.11332 0.26471 0.0
O16 O 0.36916 0.08945 0.24571 0.0
O17 O 0.41042 0.10941 0.16348 0.0
O18 O 0.38654 0.04235 0.13558 0.0
O19 O 0.32497 0.03441 0.153 0.0
C20 C 0.29032 0.08872 1.04244 0.0
O21 O 0.41288 0.12284 1.01025 0.0
O22 O 0.40492 0.06243 1.00189 0.0
C23 C 0.34232 0.16675 0.14047 0.0
C24 C 0.28856 0.08195 0.36826 0.0
C25 C 0.31778 0.08493 0.49992 0.0
C26 C 0.2953 0.11451 0.47515 0.0
C27 C 0.28109 0.11319 0.4097 0.0
C28 C 0.31077 0.05215 0.39381 0.0
C29 C 0.32552 0.05385 0.4586 0.0
C30 C 0.27548 0.0814 0.29755 0.0
C31 C 0.40246 0.10203 0.22659 0.0
H32 H 0.42216 0.05153 0.75297 0.0
H33 H 0.44554 0.05276 0.86887 0.0
H34 H 0.36394 0.13908 0.917 0.0
H35 H 0.34137 0.13838 0.80094 0.0
H36 H 0.28915 0.13882 0.50628 0.0
H37 H 0.26431 0.13662 0.39143 0.0
H38 H 0.31746 0.02769 0.36345 0.0
H39 H 0.34298 0.03086 0.47662 0.0
Tb40 Tb 0.08773 0.67305 0.89806 0.0
Tb41 Tb 0.08814 0.60748 1.01485 0.0
C42 C 0.16271 0.64858 0.96003 0.0
C43 C 0.08076 0.70079 0.72059 0.0
C44 C 0.07209 0.66975 0.59044 0.0
C45 C 0.10797 0.67971 0.615 0.0
C46 C 0.11229 0.69455 0.67948 0.0
C47 C 0.04461 0.6935 0.69406 0.0
C48 C 0.04039 0.67714 0.6305 0.0
C49 C 0.08612 0.7121 0.79189 0.0
O50 O 0.09903 0.61688 0.85128 0.0
O51 O 0.09878 0.56989 0.93188 0.0
O52 O 0.03697 0.59984 0.95268 0.0
O53 O 0.02959 0.66128 0.92299 0.0
O54 O 0.11572 0.57441 0.0875 0.0
O55 O 0.05505 0.57765 0.08447 0.0
O56 O 0.08142 0.66149 0.06698 0.0
O57 O 0.08665 0.70911 0.98857 0.0
O58 O 0.14264 0.67777 0.94233 0.0
O59 O 0.14716 0.61724 0.98338 0.0
C60 C 0.10227 0.58099 0.86962 0.0
O61 O 0.0574 0.70819 0.83189 0.0
O62 O 0.117 0.70039 0.8204 0.0
C63 C 0.01666 0.62675 0.92489 0.0
C64 C 0.08341 0.57836 0.19097 0.0
C65 C 0.07606 0.60215 0.32542 0.0
C66 C 0.06213 0.56664 0.305 0.0
C67 C 0.06581 0.55484 0.23825 0.0
C68 C 0.09764 0.61368 0.21175 0.0
C69 C 0.09392 0.62547 0.27822 0.0
C70 C 0.08439 0.56743 0.11946 0.0
C71 C 0.08364 0.69757 0.05146 0.0
H72 H 0.13286 0.67466 0.58503 0.0
H73 H 0.14051 0.70046 0.69768 0.0
H74 H 0.01961 0.69848 0.72377 0.0
H75 H 0.0124 0.66966 0.61302 0.0
H76 H 0.04805 0.54831 0.34052 0.0
H77 H 0.05437 0.52763 0.2233 0.0
H78 H 0.11124 0.63244 0.17641 0.0
H79 H 0.10467 0.65304 0.29275 0.0
Tb80 Tb 0.61154 0.89657 0.08863 0.0
Tb81 Tb 0.6762 0.8936 0.20503 0.0
C82 C 0.63618 0.96793 0.17325 0.0
C83 C 0.58034 0.89528 0.9149 0.0
C84 C 0.60432 0.89192 0.78011 0.0
C85 C 0.56847 0.90624 0.79631 0.0
C86 C 0.55661 0.90797 0.86326 0.0
C87 C 0.61578 0.88013 0.89835 0.0
C88 C 0.62767 0.87855 0.8317 0.0
C89 C 0.56997 0.90069 0.98602 0.0
O90 O 0.66457 0.91043 1.03915 0.0
O91 O 0.70957 0.88731 0.11116 0.0
O92 O 0.65255 0.83727 0.19975 0.0
O93 O 0.63309 0.83816 0.09087 0.0
O94 O 0.70734 0.92413 0.27586 0.0
O95 O 0.7093 0.86345 0.27555 0.0
O96 O 0.62228 0.90049 0.25671 0.0
O97 O 0.57853 0.88161 0.17773 0.0
O98 O 0.60714 0.94852 0.14995 0.0
O99 O 0.66911 0.95152 0.17199 0.0
C100 C 0.69933 0.89931 0.05061 0.0
O101 O 0.57193 0.87079 1.0242 0.0
O102 O 0.58555 0.92995 1.01476 0.0
C103 C 0.64213 0.81948 0.14558 0.0
C104 C 0.69881 0.89395 0.38044 0.0
C105 C 0.66603 0.89273 0.50982 0.0
C106 C 0.69014 0.86344 0.48898 0.0
C107 C 0.70611 0.8639 0.4247 0.0
C108 C 0.67408 0.92284 0.40143 0.0
C109 C 0.65794 0.92222 0.46518 0.0
C110 C 0.71434 0.89403 0.31112 0.0
C111 C 0.58817 0.88899 0.24028 0.0
H112 H 0.5501 0.91689 0.75731 0.0
H113 H 0.5293 0.92 0.87481 0.0
H114 H 0.63468 0.87028 0.9372 0.0
H115 H 0.65548 0.86763 0.82044 0.0
H116 H 0.69659 0.84026 0.5225 0.0
H117 H 0.7241 0.84073 0.40951 0.0
H118 H 0.6666 0.9458 0.36822 0.0
H119 H 0.63913 0.94489 0.4798 0.0
Tb120 Tb 0.9069 0.31736 0.89888 0.0
Tb121 Tb 0.90188 0.38117 1.01564 0.0
C122 C 0.82905 0.34445 0.95204 0.0
C123 C 0.91511 0.28652 0.72512 0.0
C124 C 0.91095 0.30622 0.58609 0.0
C125 C 0.87819 0.303 0.62648 0.0
C126 C 0.88017 0.29222 0.69386 0.0
C127 C 0.94788 0.29403 0.68821 0.0
C128 C 0.94579 0.30502 0.62105 0.0
C129 C 0.91801 0.27688 0.79742 0.0
O130 O 0.89799 0.37002 0.84479 0.0
O131 O 0.88725 0.41497 0.92701 0.0
O132 O 0.95045 0.3958 0.95372 0.0
O133 O 0.96298 0.33489 0.93127 0.0
O134 O 0.87134 0.41489 0.08343 0.0
O135 O 0.93167 0.4096 0.09161 0.0
O136 O 0.92531 0.32923 0.05828 0.0
O137 O 0.89815 0.28443 0.99163 0.0
O138 O 0.84844 0.33507 0.89894 0.0
O139 O 0.84615 0.35397 1.00815 0.0
C140 C 0.88913 0.40462 0.86336 0.0
O141 O 0.94482 0.29425 0.82986 0.0
O142 O 0.88701 0.27541 0.83252 0.0
C143 C 0.97378 0.37039 0.93036 0.0
C144 C 0.89736 0.40517 0.19105 0.0
C145 C 0.89974 0.37323 0.32053 0.0
C146 C 0.9082 0.41181 0.3109 0.0
C147 C 0.90733 0.4276 0.24639 0.0
C148 C 0.88761 0.36702 0.20132 0.0
C149 C 0.88902 0.35116 0.26523 0.0
C150 C 0.90078 0.41964 0.12196 0.0
C151 C 0.91172 0.29495 0.05037 0.0
H152 H 0.8505 0.30981 0.60776 0.0
H153 H 0.85418 0.28922 0.72174 0.0
H154 H 0.97538 0.29228 0.71178 0.0
H155 H 0.97199 0.31353 0.59834 0.0
H156 H 0.9165 0.42931 0.35295 0.0
H157 H 0.91526 0.45699 0.23953 0.0
H158 H 0.8798 0.34915 0.15951 0.0
H159 H 0.88234 0.32141 0.27144 0.0
Tb160 Tb 0.38092 0.40187 0.25836 0.0
Tb161 Tb 0.31704 0.41226 0.14043 0.0
C162 C 0.36792 0.47767 0.1822 0.0
C163 C 0.40539 0.39421 0.43342 0.0
C164 C 0.37286 0.39648 0.56217 0.0
C165 C 0.4102 0.40883 0.55227 0.0
C166 C 0.42628 0.40793 0.48813 0.0
C167 C 0.36859 0.38059 0.44413 0.0
C168 C 0.35244 0.38188 0.50773 0.0
C169 C 0.41952 0.39845 0.3643 0.0
O170 O 0.32845 0.41743 0.30804 0.0
O171 O 0.28184 0.40482 0.23123 0.0
O172 O 0.32564 0.35182 0.13887 0.0
O173 O 0.36192 0.34393 0.23433 0.0
O174 O 0.30287 0.45217 0.06707 0.0
O175 O 0.27225 0.39942 0.07441 0.0
O176 O 0.3704 0.39923 0.08943 0.0
O177 O 0.41658 0.39409 0.17096 0.0
O178 O 0.39354 0.45384 0.20314 0.0
O179 O 0.33281 0.4664 0.18368 0.0
C180 C 0.29296 0.41032 0.29394 0.0
O181 O 0.41421 0.36961 0.32444 0.0
O182 O 0.40994 0.43009 0.3355 0.0
C183 C 0.34337 0.33033 0.18203 0.0
C184 C 0.28845 0.42246 0.96513 0.0
C185 C 0.30678 0.41236 0.82668 0.0
C186 C 0.30663 0.38161 0.87249 0.0
C187 C 0.29662 0.38641 0.9398 0.0
C188 C 0.29301 0.45368 0.92273 0.0
C189 C 0.30326 0.44883 0.85571 0.0
C190 C 0.28002 0.42878 1.03699 0.0
C191 C 0.40576 0.39347 0.10781 0.0
H192 H 0.42635 0.42027 0.59366 0.0
H193 H 0.45451 0.41899 0.48089 0.0
H194 H 0.3518 0.37002 0.40281 0.0
H195 H 0.3236 0.37235 0.5142 0.0
H196 H 0.3154 0.35356 0.85832 0.0
H197 H 0.29627 0.36189 0.97232 0.0
H198 H 0.28956 0.48216 0.94195 0.0
H199 H 0.30929 0.47433 0.82807 0.0
Tb200 Tb 0.39759 0.68986 0.95617 0.0
Tb201 Tb 0.39747 0.62695 0.83761 0.0
C202 C 0.32316 0.65788 0.90456 0.0
C203 C 0.40587 0.72081 0.12947 0.0
C204 C 0.4088 0.6915 0.26145 0.0
C205 C 0.37483 0.70563 0.23482 0.0
C206 C 0.3732 0.71933 0.16911 0.0
C207 C 0.44024 0.70862 0.15769 0.0
C208 C 0.4414 0.69287 0.22181 0.0
C209 C 0.40386 0.73189 0.05765 0.0
O210 O 0.38983 0.63406 1.0061 0.0
O211 O 0.38475 0.58952 0.92152 0.0
O212 O 0.44661 0.61528 0.90136 0.0
O213 O 0.45566 0.67588 0.93382 0.0
O214 O 0.36852 0.59286 0.76797 0.0
O215 O 0.42885 0.60006 0.76256 0.0
O216 O 0.41929 0.67984 0.79705 0.0
O217 O 0.3869 0.72154 0.86158 0.0
O218 O 0.34264 0.66518 0.95814 0.0
O219 O 0.34048 0.65182 0.84718 0.0
C220 C 0.3851 0.59866 0.98547 0.0
O221 O 0.43217 0.72128 1.02097 0.0
O222 O 0.37199 0.72652 1.02632 0.0
C223 C 0.46716 0.64091 0.9321 0.0
C224 C 0.39587 0.60042 0.66126 0.0
C225 C 0.39865 0.62722 0.5287 0.0
C226 C 0.41089 0.59041 0.54408 0.0
C227 C 0.4095 0.5771 0.61 0.0
C228 C 0.38294 0.63697 0.64562 0.0
C229 C 0.38423 0.65024 0.57981 0.0
C230 C 0.39865 0.58828 0.73154 0.0
C231 C 0.40276 0.7127 0.8037 0.0
H232 H 0.34923 0.70485 0.26425 0.0
H233 H 0.34632 0.72858 0.14923 0.0
H234 H 0.46614 0.70958 0.12909 0.0
H235 H 0.46781 0.68166 0.24049 0.0
H236 H 0.42228 0.57236 0.5053 0.0
H237 H 0.41997 0.54901 0.62123 0.0
H238 H 0.37273 0.65559 0.68461 0.0
H239 H 0.37488 0.67879 0.56898 0.0
Tb240 Tb 0.60535 0.58505 0.27294 0.0
Tb241 Tb 0.66869 0.57399 0.15464 0.0
C242 C 0.61963 0.50942 0.19947 0.0
C243 C 0.57546 0.57977 0.44782 0.0
C244 C 0.59954 0.56525 0.58063 0.0
C245 C 0.56716 0.54739 0.55462 0.0
C246 C 0.55516 0.55473 0.48893 0.0
C247 C 0.60796 0.59749 0.47392 0.0
C248 C 0.6197 0.59046 0.53968 0.0
C249 C 0.56465 0.5846 0.37648 0.0
O250 O 0.65786 0.57019 0.32239 0.0
O251 O 0.70404 0.58318 0.24491 0.0
O252 O 0.65638 0.63444 0.15101 0.0
O253 O 0.62267 0.64342 0.24893 0.0
O254 O 0.68953 0.53136 0.09148 0.0
O255 O 0.70765 0.58918 0.07959 0.0
O256 O 0.61385 0.57568 0.10432 0.0
O257 O 0.57436 0.60132 0.18392 0.0
O258 O 0.59331 0.5336 0.21553 0.0
O259 O 0.65426 0.52162 0.20448 0.0
C260 C 0.6932 0.57716 0.30756 0.0
O261 O 0.57594 0.6155 0.34679 0.0
O262 O 0.56988 0.55504 0.33873 0.0
C263 C 0.63926 0.65654 0.19438 0.0
C264 C 0.69136 0.55398 0.98054 0.0
C265 C 0.6605 0.54905 0.84949 0.0
C266 C 0.66595 0.58437 0.88054 0.0
C267 C 0.68075 0.58679 0.94544 0.0
C268 C 0.68596 0.51858 0.94934 0.0
C269 C 0.67027 0.51609 0.88492 0.0
C270 C 0.70479 0.55591 0.05126 0.0
C271 C 0.5824 0.59278 0.1213 0.0
H272 H 0.55138 0.52756 0.58503 0.0
H273 H 0.53041 0.54025 0.46976 0.0
H274 H 0.62473 0.6163 0.44316 0.0
H275 H 0.64495 0.60427 0.55837 0.0
H276 H 0.65821 0.61019 0.85473 0.0
H277 H 0.68382 0.61448 0.96808 0.0
H278 H 0.69306 0.49272 0.97554 0.0
H279 H 0.66572 0.48847 0.8627 0.0
Tb280 Tb 0.58945 0.3125 0.9496 0.0
Tb281 Tb 0.59378 0.37607 0.83244 0.0
C282 C 0.66769 0.34263 0.89992 0.0
C283 C 0.58515 0.29175 0.12334 0.0
C284 C 0.59182 0.32647 0.25031 0.0
C285 C 0.61944 0.33253 0.20124 0.0
C286 C 0.61634 0.31505 0.13858 0.0
C287 C 0.55668 0.28725 0.17137 0.0
C288 C 0.56027 0.30393 0.23466 0.0
C289 C 0.5799 0.27609 0.05522 0.0
O290 O 0.59003 0.36717 1.00079 0.0
O291 O 0.60854 0.41027 0.92043 0.0
O292 O 0.54212 0.38409 0.89113 0.0
O293 O 0.53452 0.32213 0.90541 0.0
O294 O 0.62256 0.41005 0.76214 0.0
O295 O 0.56188 0.40745 0.7636 0.0
O296 O 0.57915 0.32221 0.78368 0.0
O297 O 0.59989 0.27784 0.85938 0.0
O298 O 0.6478 0.32996 0.95016 0.0
O299 O 0.6519 0.35549 0.84466 0.0
C300 C 0.60204 0.40097 0.98331 0.0
O301 O 0.55232 0.29135 1.02204 0.0
O302 O 0.60994 0.27206 1.01805 0.0
C303 C 0.51996 0.35597 0.90824 0.0
C304 C 0.59122 0.40718 0.65749 0.0
C305 C 0.59329 0.38547 0.52152 0.0
C306 C 0.56942 0.36664 0.56643 0.0
C307 C 0.56852 0.37722 0.63378 0.0
C308 C 0.61482 0.42627 0.61229 0.0
C309 C 0.61596 0.41544 0.54481 0.0
C310 C 0.59157 0.41736 0.72944 0.0
C311 C 0.59014 0.28754 0.79774 0.0
H312 H 0.64355 0.35052 0.21172 0.0
H313 H 0.63803 0.32033 0.10168 0.0
H314 H 0.5318 0.27054 0.16009 0.0
H315 H 0.53832 0.29941 0.2714 0.0
H316 H 0.55196 0.34328 0.54949 0.0
H317 H 0.55033 0.3616 0.66739 0.0
H318 H 0.63276 0.44914 0.6295 0.0
H319 H 0.63469 0.43021 0.5109 0.0
Tb320 Tb 0.86693 0.59191 0.5907 0.0
Tb321 Tb 0.80525 0.58287 0.70934 0.0
C322 C 0.84958 0.51531 0.66102 0.0
C323 C 0.89625 0.60116 0.41753 0.0
C324 C 0.86744 0.6019 0.28597 0.0
C325 C 0.89925 0.58003 0.30183 0.0
C326 C 0.91363 0.57976 0.36715 0.0
C327 C 0.86481 0.62363 0.40109 0.0
C328 C 0.85075 0.62422 0.3357 0.0
C329 C 0.90783 0.59627 0.48804 0.0
O330 O 0.8158 0.57257 0.54218 0.0
O331 O 0.771 0.59231 0.61728 0.0
O332 O 0.82699 0.63989 0.71467 0.0
O333 O 0.83744 0.6461 0.60331 0.0
O334 O 0.78218 0.54636 0.7809 0.0
O335 O 0.76522 0.60491 0.77708 0.0
O336 O 0.86087 0.57793 0.75698 0.0
O337 O 0.89797 0.60872 0.68008 0.0
O338 O 0.87686 0.53867 0.64422 0.0
O339 O 0.81541 0.52894 0.66207 0.0
C340 C 0.78109 0.58214 0.55588 0.0
O341 O 0.9017 0.62472 0.52812 0.0
O342 O 0.89742 0.56435 0.51495 0.0
C343 C 0.83176 0.66145 0.66249 0.0
C344 C 0.7797 0.57908 0.88423 0.0
C345 C 0.80635 0.58995 1.0166 0.0
C346 C 0.7786 0.6139 0.9896 0.0
C347 C 0.76611 0.60906 0.92352 0.0
C348 C 0.80737 0.55501 0.91174 0.0
C349 C 0.82091 0.56078 0.97669 0.0
C350 C 0.76702 0.57434 0.81369 0.0
C351 C 0.89222 0.59584 0.74112 0.0
H352 H 0.91242 0.56258 0.26398 0.0
H353 H 0.93753 0.56185 0.37886 0.0
H354 H 0.85038 0.63986 0.43918 0.0
H355 H 0.82619 0.64119 0.32426 0.0
H356 H 0.76705 0.6367 1.01939 0.0
H357 H 0.74565 0.62868 0.90318 0.0
H358 H 0.81916 0.53197 0.88286 0.0
H359 H 0.84244 0.54208 0.99629 0.0
Tb360 Tb 0.60464 0.17747 0.39296 0.0
Tb361 Tb 0.59379 0.12706 0.51012 0.0
C362 C 0.67692 0.14422 0.45837 0.0
C363 C 0.5948 0.21533 0.23382 0.0
C364 C 0.5793 0.18111 0.10905 0.0
C365 C 0.61382 0.19974 0.12021 0.0
C366 C 0.62159 0.21648 0.18219 0.0
C367 C 0.55994 0.19728 0.2219 0.0
C368 C 0.55249 0.17997 0.1605 0.0
C369 C 0.60629 0.22528 0.30271 0.0
O370 O 0.61028 0.12269 0.34354 0.0
O371 O 0.59791 0.08263 0.43244 0.0
O372 O 0.53969 0.11702 0.45929 0.0
O373 O 0.54989 0.15522 0.36855 0.0
O374 O 0.61072 0.09835 0.59802 0.0
O375 O 0.55556 0.12386 0.58901 0.0
O376 O 0.59627 0.18988 0.49866 0.0
O377 O 0.59611 0.18942 0.50128 0.0
O378 O 0.66292 0.16972 0.41822 0.0
O379 O 0.65546 0.12307 0.49745 0.0
C380 C 0.60554 0.08831 0.3681 0.0
O381 O 0.57995 0.22563 0.34876 0.0
O382 O 0.63651 0.20752 0.32259 0.0
C383 C 0.52851 0.13192 0.40225 0.0
C384 C 0.57961 0.11751 0.69944 0.0
C385 C 0.57073 0.12691 0.84027 0.0
C386 C 0.54792 0.14674 0.79393 0.0
C387 C 0.55135 0.141 0.72522 0.0
C388 C 0.60572 0.10173 0.74405 0.0
C389 C 0.60199 0.10724 0.81314 0.0
C390 C 0.57898 0.10599 0.62813 0.0
C391 C 0.59737 0.22184 0.53388 0.0
H392 H 0.63503 0.2006 0.08136 0.0
H393 H 0.64896 0.22941 0.19049 0.0
H394 H 0.5388 0.19531 0.26067 0.0
H395 H 0.52592 0.16525 0.15333 0.0
H396 H 0.527 0.16698 0.80933 0.0
H397 H 0.53106 0.15443 0.6925 0.0
H398 H 0.62863 0.08436 0.72572 0.0
H399 H 0.62406 0.09586 0.84437 0.0
Tb400 Tb 0.11145 0.40204 0.57467 0.0
Tb401 Tb 0.17649 0.40545 0.6924 0.0
C402 C 0.13236 0.475 0.6536 0.0
C403 C 0.08356 0.3995 0.40046 0.0
C404 C 0.11398 0.3998 0.26977 0.0
C405 C 0.07719 0.41324 0.28139 0.0
C406 C 0.06223 0.41346 0.34654 0.0
C407 C 0.11949 0.38452 0.38795 0.0
C408 C 0.13461 0.3849 0.32359 0.0
C409 C 0.07098 0.40409 0.47053 0.0
O410 O 0.16487 0.41607 0.52568 0.0
O411 O 0.21023 0.39627 0.60041 0.0
O412 O 0.15926 0.34692 0.69077 0.0
O413 O 0.1312 0.34355 0.58669 0.0
O414 O 0.19873 0.44278 0.76378 0.0
O415 O 0.21731 0.3848 0.76006 0.0
O416 O 0.12226 0.40322 0.74471 0.0
O417 O 0.07768 0.38896 0.66344 0.0
O418 O 0.10413 0.45331 0.63506 0.0
O419 O 0.16596 0.46039 0.64873 0.0
C420 C 0.19967 0.40575 0.53893 0.0
O421 O 0.07404 0.37427 0.50872 0.0
O422 O 0.08422 0.43414 0.50037 0.0
C423 C 0.14458 0.32751 0.64136 0.0
C424 C 0.20527 0.41227 0.86806 0.0
C425 C 0.18431 0.40767 1.00652 0.0
C426 C 0.18767 0.37489 0.96569 0.0
C427 C 0.19896 0.3771 0.89855 0.0
C428 C 0.19806 0.44501 0.90553 0.0
C429 C 0.18654 0.44275 0.97231 0.0
C430 C 0.21557 0.41564 0.79607 0.0
C431 C 0.08787 0.3932 0.72666 0.0
H432 H 0.06069 0.42474 0.24057 0.0
H433 H 0.03453 0.42538 0.35504 0.0
H434 H 0.13637 0.37349 0.42857 0.0
H435 H 0.16285 0.37421 0.31589 0.0
H436 H 0.18046 0.34704 0.98357 0.0
H437 H 0.20185 0.35113 0.8702 0.0
H438 H 0.20059 0.47265 0.88269 0.0
H439 H 0.17853 0.46907 0.99555 0.0
Tb440 Tb 0.4064 0.82789 0.40309 0.0
Tb441 Tb 0.40087 0.89126 0.51971 0.0
C442 C 0.32896 0.85465 0.45314 0.0
C443 C 0.41629 0.80569 0.22768 0.0
C444 C 0.41472 0.83842 0.09811 0.0
C445 C 0.38174 0.82335 0.12666 0.0
C446 C 0.38236 0.80782 0.1912 0.0
C447 C 0.44937 0.82046 0.19843 0.0
C448 C 0.44842 0.83732 0.13509 0.0
C449 C 0.4171 0.79112 0.2977 0.0
O450 O 0.40859 0.88287 0.3531 0.0
O451 O 0.38373 0.92363 0.4313 0.0
O452 O 0.45329 0.89905 0.46238 0.0
O453 O 0.4605 0.83695 0.45013 0.0
O454 O 0.37126 0.92685 0.58585 0.0
O455 O 0.43176 0.92184 0.59158 0.0
O456 O 0.41699 0.83854 0.56902 0.0
O457 O 0.39465 0.79404 0.49474 0.0
O458 O 0.34939 0.84885 0.39998 0.0
O459 O 0.34537 0.86316 0.51059 0.0
C460 C 0.39257 0.9152 0.36896 0.0
O461 O 0.44437 0.80428 0.33493 0.0
O462 O 0.38532 0.78957 0.33069 0.0
C463 C 0.47557 0.87061 0.4477 0.0
C464 C 0.3997 0.92483 0.69425 0.0
C465 C 0.40326 0.90144 0.82941 0.0
C466 C 0.42974 0.92733 0.80405 0.0
C467 C 0.42782 0.93908 0.7372 0.0
C468 C 0.3727 0.89952 0.7202 0.0
C469 C 0.37433 0.88816 0.78729 0.0
C470 C 0.4014 0.93353 0.6217 0.0
C471 C 0.40491 0.80408 0.55631 0.0
H472 H 0.35535 0.82415 0.09928 0.0
H473 H 0.35624 0.79741 0.21244 0.0
H474 H 0.47601 0.81973 0.22506 0.0
H475 H 0.47414 0.84904 0.1144 0.0
H476 H 0.45236 0.93776 0.83563 0.0
H477 H 0.44912 0.95836 0.71837 0.0
H478 H 0.35099 0.88759 0.68827 0.0
H479 H 0.35382 0.86796 0.8058 0.0
Tb480 Tb 0.88169 0.89962 0.76666 0.0
Tb481 Tb 0.81688 0.89727 0.65089 0.0
C482 C 0.86298 0.96926 0.67217 0.0
C483 C 0.90975 0.90553 0.94449 0.0
C484 C 0.88427 0.91385 0.078 0.0
C485 C 0.8982 0.94516 1.04252 0.0
C486 C 0.91098 0.94103 0.97662 0.0
C487 C 0.89656 0.87403 0.98098 0.0
C488 C 0.88391 0.87819 1.04696 0.0
C489 C 0.92059 0.90196 0.87266 0.0
O490 O 0.82907 0.91526 0.81597 0.0
O491 O 0.78281 0.89435 0.74429 0.0
O492 O 0.81019 0.84322 0.6976 0.0
O493 O 0.87066 0.83968 0.73754 0.0
O494 O 0.7791 0.92611 0.58677 0.0
O495 O 0.79216 0.86741 0.57123 0.0
O496 O 0.87305 0.88517 0.60469 0.0
O497 O 0.92006 0.89147 0.68419 0.0
O498 O 0.88984 0.94996 0.70233 0.0
O499 O 0.82854 0.95622 0.67228 0.0
C500 C 0.79425 0.90428 0.80515 0.0
O501 O 0.91132 0.87059 0.84212 0.0
O502 O 0.91415 0.93138 0.83492 0.0
C503 C 0.83895 0.82334 0.71733 0.0
C504 C 0.7886 0.90522 0.4736 0.0
C505 C 0.81777 0.91798 0.34317 0.0
C506 C 0.81213 0.88103 0.36712 0.0
C507 C 0.79821 0.87474 0.43159 0.0
C508 C 0.79208 0.94227 0.44808 0.0
C509 C 0.80752 0.94861 0.3843 0.0
C510 C 0.77783 0.89783 0.54471 0.0
C511 C 0.90914 0.88555 0.62236 0.0
H512 H 0.89863 0.9729 0.06556 0.0
H513 H 0.92114 0.96584 0.95034 0.0
H514 H 0.89529 0.84622 0.95823 0.0
H515 H 0.87317 0.85369 0.07343 0.0
H516 H 0.81976 0.85692 0.33654 0.0
H517 H 0.79557 0.84581 0.44899 0.0
H518 H 0.78483 0.96647 0.47871 0.0
H519 H 0.81195 0.97742 0.36743 0.0
Tb520 Tb 0.91773 0.17425 0.44409 0.0
Tb521 Tb 0.90365 0.11364 0.32485 0.0
C522 C 0.837 0.14869 0.40525 0.0
C523 C 0.92631 0.20467 0.61756 0.0
C524 C 0.91637 0.18568 0.75565 0.0
C525 C 0.88549 0.18752 0.71049 0.0
C526 C 0.89023 0.19809 0.64358 0.0
C527 C 0.95748 0.19847 0.65918 0.0
C528 C 0.95265 0.18798 0.72611 0.0
C529 C 0.9321 0.21345 0.54574 0.0
O530 O 0.91675 0.11858 0.4932 0.0
O531 O 0.88684 0.08172 0.41389 0.0
O532 O 0.95508 0.09864 0.37895 0.0
O533 O 0.96985 0.15933 0.39504 0.0
O534 O 0.86881 0.08343 0.25802 0.0
O535 O 0.92924 0.08112 0.24951 0.0
O536 O 0.92484 0.16524 0.27827 0.0
O537 O 0.90552 0.20933 0.35443 0.0
O538 O 0.86021 0.15513 0.4548 0.0
O539 O 0.85003 0.14251 0.34453 0.0
C540 C 0.89846 0.08745 0.47604 0.0
O541 O 0.95722 0.19276 0.51548 0.0
O542 O 0.90213 0.21849 0.50863 0.0
C543 C 0.98031 0.12388 0.39662 0.0
C544 C 0.8952 0.0887 0.1501 0.0
C545 C 0.9002 0.11965 1.02038 0.0
C546 C 0.91002 0.08164 1.03185 0.0
C547 C 0.90777 0.06633 0.09654 0.0
C548 C 0.88452 0.12638 0.13794 0.0
C549 C 0.88707 0.1417 0.07379 0.0
C550 C 0.89718 0.07472 0.2196 0.0
C551 C 0.91471 0.19993 0.29247 0.0
H552 H 0.85729 0.17951 0.7246 0.0
H553 H 0.86551 0.1999 0.61178 0.0
H554 H 0.9858 0.20075 0.63938 0.0
H555 H 0.97794 0.18074 0.75325 0.0
H556 H 0.92029 0.06424 0.99121 0.0
H557 H 0.91675 0.03746 0.10511 0.0
H558 H 0.87512 0.14433 0.17849 0.0
H559 H 0.87945 0.17108 0.06601 0.0
Tb560 Tb 0.10931 0.0929 0.76489 0.0
Tb561 Tb 0.17409 0.08867 0.64787 0.0
C562 C 0.12879 0.01924 0.68903 0.0
C563 C 0.08359 0.09618 0.9399 0.0
C564 C 0.11443 0.09393 0.07047 0.0
C565 C 0.07663 0.08335 0.0591 0.0
C566 C 0.06142 0.08415 0.99406 0.0
C567 C 0.12082 0.10821 0.95204 0.0
C568 C 0.13613 0.10686 1.01643 0.0
C569 C 0.06999 0.09266 0.87008 0.0
O570 O 0.16244 0.0757 0.81112 0.0
O571 O 0.20676 0.1003 0.73988 0.0
O572 O 0.15635 0.14691 0.64733 0.0
O573 O 0.13186 0.15058 0.75361 0.0
O574 O 0.19771 0.05087 0.57891 0.0
O575 O 0.21499 0.10942 0.5805 0.0
O576 O 0.12009 0.0899 0.5953 0.0
O577 O 0.07597 0.10638 0.67564 0.0
O578 O 0.10059 0.04108 0.70632 0.0
O579 O 0.16253 0.03405 0.69277 0.0
C580 C 0.19641 0.08906 0.80021 0.0
O581 O 0.07438 0.12242 0.83218 0.0
O582 O 0.08097 0.06205 0.83947 0.0
C583 C 0.14383 0.16662 0.69797 0.0
C584 C 0.20358 0.08014 0.47407 0.0
C585 C 0.18249 0.08186 0.33555 0.0
C586 C 0.17473 0.11251 0.37938 0.0
C587 C 0.18557 0.11193 0.4469 0.0
C588 C 0.2078 0.04815 0.43351 0.0
C589 C 0.19594 0.04837 0.36664 0.0
C590 C 0.21407 0.07802 0.54594 0.0
C591 C 0.08609 0.10095 0.61278 0.0
H592 H 0.05937 0.0734 0.10012 0.0
H593 H 0.03273 0.07453 0.98585 0.0
H594 H 0.13846 0.11775 0.91128 0.0
H595 H 0.16526 0.11528 1.02395 0.0
H596 H 0.15973 0.13729 0.36221 0.0
H597 H 0.17945 0.13632 0.47786 0.0
H598 H 0.21984 0.02253 0.45402 0.0
H599 H 0.19699 0.02147 0.34181 0.0
Tb600 Tb 0.08684 0.81554 0.44946 0.0
Tb601 Tb 0.09217 0.88129 0.33318 0.0
C602 C 0.16629 0.84726 0.40694 0.0
C603 C 0.07532 0.79158 0.62444 0.0
C604 C 0.07965 0.82328 0.75476 0.0
C605 C 0.11034 0.8033 0.72788 0.0
C606 C 0.10833 0.78792 0.66316 0.0
C607 C 0.0445 0.81121 0.65229 0.0
C608 C 0.04679 0.82718 0.71625 0.0
C609 C 0.07367 0.778 0.55369 0.0
O610 O 0.09265 0.87026 0.50168 0.0
O611 O 0.10023 0.91665 0.42094 0.0
O612 O 0.04055 0.88911 0.39208 0.0
O613 O 0.03272 0.82715 0.40398 0.0
O614 O 0.12159 0.91617 0.26544 0.0
O615 O 0.06107 0.91134 0.26099 0.0
O616 O 0.078 0.82842 0.28239 0.0
O617 O 0.09575 0.78189 0.3567 0.0
O618 O 0.14633 0.82718 0.4489 0.0
O619 O 0.15134 0.86592 0.35588 0.0
C620 C 0.09892 0.90579 0.4839 0.0
O621 O 0.04747 0.7932 0.51682 0.0
O622 O 0.10534 0.77529 0.52077 0.0
C623 C 0.01842 0.86095 0.40918 0.0
C624 C 0.09283 0.9127 0.15724 0.0
C625 C 0.091 0.8875 1.02275 0.0
C626 C 0.06058 0.9078 0.04956 0.0
C627 C 0.06155 0.9204 0.11603 0.0
C628 C 0.12377 0.89329 0.12952 0.0
C629 C 0.12283 0.88083 0.06291 0.0
C630 C 0.09137 0.92237 0.22968 0.0
C631 C 0.08735 0.79322 0.29501 0.0
H632 H 0.13601 0.80002 0.75673 0.0
H633 H 0.13275 0.77347 0.64324 0.0
H634 H 0.01874 0.81504 0.62408 0.0
H635 H 0.02283 0.84257 0.73583 0.0
H636 H 0.03573 0.91316 1.01943 0.0
H637 H 0.03732 0.93523 0.1359 0.0
H638 H 0.14831 0.88677 0.15968 0.0
H639 H 0.14651 0.86507 1.04323 0.0
C640 C 0.34549 0.95011 0.29638 0.0
C641 C 0.38367 0.94163 0.3125 0.0
C642 C 0.40382 0.97271 0.20786 0.0
C643 C 0.36644 0.98555 0.19714 0.0
N644 N 0.30127 0.96762 0.2093 0.0
N645 N 0.44972 0.94728 0.2857 0.0
C646 C 0.33695 0.96895 0.2352 0.0
C647 C 0.41294 0.95308 0.26813 0.0
N648 N 0.31717 0.94037 0.33933 0.0
N649 N 0.42991 0.97696 0.15829 0.0
H650 H 0.45739 0.93443 0.33051 0.0
H651 H 0.47249 0.95855 0.25957 0.0
H652 H 0.42265 0.98726 0.11111 0.0
H653 H 0.45693 0.96556 0.16026 0.0
H654 H 0.28961 0.95016 0.33428 0.0
H655 H 0.32151 0.92497 0.38295 0.0
H656 H 0.27892 0.95344 0.23198 0.0
H657 H 0.29541 0.97556 0.16015 0.0
C658 C 0.91596 0.60981 0.85984 0.0
C659 C 0.92315 0.59995 0.7918 0.0
C660 C 0.99006 0.61213 0.81049 0.0
C661 C 0.98399 0.61705 0.8802 0.0
N662 N 0.94099 0.6144 0.97301 0.0
N663 N 0.96909 0.57979 0.71058 0.0
C664 C 0.94688 0.61349 0.90562 0.0
C665 C 0.96091 0.59716 0.76986 0.0
N666 N 0.88029 0.61857 0.88001 0.0
N667 N 0.02326 0.62281 0.78219 0.0
H668 H 0.9491 0.56453 0.68325 0.0
H669 H -0.00365 0.57664 0.69248 0.0
H670 H 0.0429 0.63884 0.80799 0.0
H671 H 0.02906 0.62022 0.73145 0.0
H672 H 0.87442 0.62911 0.92734 0.0
H673 H 0.8572 0.61953 0.84786 0.0
H674 H 0.91499 0.60817 0.99467 0.0
H675 H 0.9629 0.61837 1.00727 0.0
C676 C 0.59726 0.02582 0.20975 0.0
C677 C 0.63051 0.00349 0.21549 0.0
C678 C 0.64273 0.03218 0.32595 0.0
C679 C 0.61059 0.05574 0.31992 0.0
N680 N 0.56044 0.07921 0.24928 0.0
N681 N 0.69346 0.00486 0.2629 0.0
C682 C 0.58875 0.05373 0.25974 0.0
C683 C 0.65582 0.01196 0.26902 0.0
N684 N 0.57433 0.02136 0.15534 0.0
N685 N 0.66211 0.03013 0.38492 0.0
H686 H 0.70576 -0.00199 0.21729 0.0
H687 H 0.71318 0.01252 0.29927 0.0
H688 H 0.65438 0.04506 0.42762 0.0
H689 H 0.68431 0.01129 0.39249 0.0
H690 H 0.54692 0.03178 0.15274 0.0
H691 H 0.58297 0.00716 0.11234 0.0
H692 H 0.54669 0.08282 0.2037 0.0
H693 H 0.55188 0.09838 0.28552 0.0
C694 C 0.03743 0.35331 0.88153 0.0
C695 C 0.0089 0.38094 0.89147 0.0
C696 C 0.03307 0.41691 0.79536 0.0
C697 C 0.05962 0.38797 0.78166 0.0
N698 N 0.08762 0.32824 0.8117 0.0
N699 N 0.99445 0.44747 0.87883 0.0
C700 C 0.06229 0.35627 0.82543 0.0
C701 C 0.01118 0.41542 0.85498 0.0
N702 N 0.04234 0.32588 0.92895 0.0
N703 N 0.02773 0.44542 0.75035 0.0
H704 H 0.98315 0.44925 0.92665 0.0
H705 H -0.00271 0.47385 0.85611 0.0
H706 H 0.04264 0.44717 0.70573 0.0
H707 H 0.00565 0.4647 0.75373 0.0
H708 H 0.06391 0.30599 0.9285 0.0
H709 H 0.02698 0.32563 0.9734 0.0
H710 H 0.08858 0.30234 0.83633 0.0
H711 H 0.10657 0.32988 0.77222 0.0
C712 C 0.35059 0.54268 0.13869 0.0
C713 C 0.37779 0.51332 0.1434 0.0
C714 C 0.4115 0.54132 1.04698 0.0
C715 C 0.38175 0.56795 1.03767 0.0
N716 N 0.32085 0.59127 0.07105 0.0
N717 N 0.43945 0.49069 0.11196 0.0
C718 C 0.35094 0.56812 0.08309 0.0
C719 C 0.41006 0.51481 0.10108 0.0
N720 N 0.32545 0.54732 0.18969 0.0
N721 N 0.44194 0.54211 1.00524 0.0
H722 H 0.44577 0.47973 0.15888 0.0
H723 H 0.45887 0.48304 0.07559 0.0
H724 H 0.44248 0.55773 0.96148 0.0
H725 H 0.46711 0.52782 1.01351 0.0
H726 H 0.30702 0.57014 0.19319 0.0
H727 H 0.32632 0.53076 0.23288 0.0
H728 H 0.29571 0.59002 0.09775 0.0
H729 H 0.31952 0.60932 1.02997 0.0
C730 C 0.56491 0.61968 1.00652 0.0
C731 C 0.55423 0.60213 0.06824 0.0
C732 C 0.48919 0.61819 1.0447 0.0
C733 C 0.49817 0.62909 0.97846 0.0
N734 N 0.54556 0.63822 0.89419 0.0
N735 N 0.5036 0.57534 0.13416 0.0
C736 C 0.5364 0.62873 0.95827 0.0
C737 C 0.51553 0.59789 0.08295 0.0
N738 N 0.60141 0.63045 0.99586 0.0
N739 N 0.45757 0.6313 0.07476 0.0
H740 H 0.52192 0.55869 0.16228 0.0
H741 H 0.47507 0.57021 0.1433 0.0
H742 H 0.44381 0.6546 0.05507 0.0
H743 H 0.45041 0.62495 0.12406 0.0
H744 H 0.60986 0.64638 0.95471 0.0
H745 H 0.62266 0.62722 1.0313 0.0
H746 H 0.57278 0.63594 0.87512 0.0
H747 H 0.5253 0.64609 0.85893 0.0
C748 C 0.64059 0.44926 0.14105 0.0
C749 C 0.61158 0.4758 0.15465 0.0
C750 C 0.57654 0.45325 0.05597 0.0
C751 C 0.60693 0.42914 1.03865 0.0
N752 N 0.66831 0.40387 0.06432 0.0
N753 N 0.54461 0.48574 0.14574 0.0
C754 C 0.63896 0.42682 0.08155 0.0
C755 C 0.57734 0.4731 0.11801 0.0
N756 N 0.6679 0.44332 0.18823 0.0
N757 N 0.54692 0.4576 1.01289 0.0
H758 H 0.54285 0.49383 0.19572 0.0
H759 H 0.51838 0.48203 0.1234 0.0
H760 H 0.54538 0.44361 0.9671 0.0
H761 H 0.52591 0.47781 1.01967 0.0
H762 H 0.68849 0.42248 0.18501 0.0
H763 H 0.66719 0.45645 0.23497 0.0
H764 H 0.69436 0.40379 0.08839 0.0
H765 H 0.66749 0.38642 1.02251 0.0
C766 C 0.45304 0.34875 0.05483 0.0
C767 C 0.43394 0.38415 0.0539 0.0
C768 C 0.46569 0.39883 0.94658 0.0
C769 C 0.48433 0.36317 0.94835 0.0
N770 N 0.47532 0.29845 0.98409 0.0
N771 N 0.41576 0.43912 0.98895 0.0
C772 C 0.47223 0.33631 0.99658 0.0
C773 C 0.43826 0.40803 0.99663 0.0
N774 N 0.45201 0.32587 0.10985 0.0
N775 N 0.47338 0.42363 0.89605 0.0
H776 H 0.39699 0.44845 1.02521 0.0
H777 H 0.41413 0.45476 0.94495 0.0
H778 H 0.48734 0.41548 0.85256 0.0
H779 H 0.466 0.45214 0.89735 0.0
H780 H 0.46893 0.30187 0.11419 0.0
H781 H 0.43601 0.33148 0.15223 0.0
H782 H 0.465 0.27782 1.01651 0.0
H783 H 0.48242 0.28785 0.93716 0.0
C784 C 0.90499 0.43846 0.75454 0.0
C785 C 0.87935 0.43188 0.80837 0.0
C786 C 0.83044 0.46433 0.74311 0.0
C787 C 0.85814 0.47956 0.6996 0.0
N788 N 0.92104 0.47436 0.6551 0.0
N789 N 0.81666 0.44061 0.85313 0.0
C790 C 0.89525 0.46453 0.70265 0.0
C791 C 0.84192 0.44582 0.80271 0.0
N792 N 0.93807 0.41884 0.75125 0.0
N793 N 0.79328 0.46438 0.72492 0.0
H794 H 0.82311 0.42555 0.89611 0.0
H795 H 0.79038 0.45381 0.85404 0.0
H796 H 0.78451 0.47176 0.67687 0.0
H797 H 0.7722 0.4514 0.75311 0.0
H798 H 0.95501 0.41806 0.70883 0.0
H799 H 0.94747 0.40096 0.78893 0.0
H800 H 0.94994 0.46992 0.66035 0.0
H801 H 0.91324 0.48674 0.60982 0.0
C802 C 0.47023 0.15366 0.3444 0.0
C803 C 0.49111 0.12301 0.37146 0.0
C804 C 0.4472 0.07884 0.31664 0.0
C805 C 0.43167 0.10926 0.27901 0.0
N806 N 0.42964 0.17638 0.25582 0.0
N807 N 0.50117 0.05538 0.37801 0.0
C808 C 0.44355 0.14692 0.29257 0.0
C809 C 0.47973 0.08524 0.3572 0.0
N810 N 0.47538 0.18929 0.3697 0.0
N811 N 0.43107 0.04375 0.31383 0.0
H812 H 0.52517 0.05832 0.40756 0.0
H813 H 0.4967 0.02774 0.36154 0.0
H814 H 0.40792 0.03757 0.28374 0.0
H815 H 0.43844 0.02187 0.34623 0.0
H816 H 0.45872 0.21235 0.35637 0.0
H817 H 0.49362 0.19483 0.40961 0.0
H818 H 0.44081 0.20368 0.25787 0.0
H819 H 0.40853 0.17317 0.22001 0.0
C820 C 0.14751 0.54191 0.80089 0.0
C821 C 0.10997 0.55226 0.81612 0.0
C822 C 0.08832 0.52043 0.71346 0.0
C823 C 0.1257 0.50846 0.69967 0.0
N824 N 0.19152 0.52454 0.71411 0.0
N825 N 0.04401 0.54137 0.79775 0.0
C826 C 0.15566 0.52386 0.73883 0.0
C827 C 0.08014 0.53893 0.77513 0.0
N828 N 0.17521 0.54737 0.84738 0.0
N829 N 0.06121 0.51676 0.66531 0.0
H830 H 0.03772 0.55199 0.84506 0.0
H831 H 0.02109 0.52913 0.77332 0.0
H832 H 0.0676 0.50845 0.6166 0.0
H833 H 0.03363 0.52609 0.671 0.0
H834 H 0.2026 0.53728 0.84169 0.0
H835 H 0.16979 0.55903 0.89431 0.0
H836 H 0.21395 0.53777 0.73853 0.0
H837 H 0.19761 0.51725 0.6648 0.0
C838 C 0.54628 0.91709 0.32976 0.0
C839 C 0.56029 0.88456 0.29599 0.0
C840 C 0.53051 0.84411 0.38116 0.0
C841 C 0.51155 0.87609 0.408 0.0
N842 N 0.51743 0.94278 0.43006 0.0
N843 N 0.5652 0.81662 0.289 0.0
C844 C 0.52415 0.91269 0.38892 0.0
C845 C 0.55228 0.84793 0.32169 0.0
N846 N 0.55274 0.95219 0.30354 0.0
N847 N 0.53082 0.81095 0.41634 0.0
H848 H 0.58281 0.81828 0.24758 0.0
H849 H 0.55633 0.78918 0.30001 0.0
H850 H 0.52002 0.80903 0.4647 0.0
H851 H 0.54642 0.78729 0.40249 0.0
H852 H 0.54031 0.97684 0.32143 0.0
H853 H 0.56794 0.95621 0.25971 0.0
H854 H 0.52828 0.96981 0.42203 0.0
H855 H 0.50558 0.93945 0.47735 0.0
C856 C 0.87673 0.99153 0.55434 0.0
C857 C 0.87259 0.00023 0.62343 0.0
C858 C 0.88122 0.06741 0.59546 0.0
C859 C 0.89113 0.05767 0.52827 0.0
N860 N 0.90802 0.00786 0.45107 0.0
N861 N 0.87687 0.04668 0.71112 0.0
C862 C 0.89201 0.01889 0.51003 0.0
C863 C 0.87716 0.03822 0.64454 0.0
N864 N 0.86527 0.95736 0.53033 0.0
N865 N 0.87254 0.1039 0.61176 0.0
H866 H 0.87268 0.02613 0.74787 0.0
H867 H 0.8838 0.07343 0.72961 0.0
H868 H 0.87121 0.12567 0.57686 0.0
H869 H 0.86184 0.11156 0.65829 0.0
H870 H 0.86753 0.94917 0.48057 0.0
H871 H 0.84854 0.93946 0.55843 0.0
H872 H 0.91034 0.97973 0.43623 0.0
H873 H 0.92313 0.02623 0.42042 0.0
C874 C 0.03384 0.07695 0.53848 0.0
C875 C 0.05864 0.10674 0.55708 0.0
C876 C 0.04087 0.14159 0.45511 0.0
C877 C 0.01343 0.11353 0.44026 0.0
N878 N -0.00044 0.04679 0.44833 0.0
N879 N 0.08458 0.16866 0.53537 0.0
C880 C 0.01417 0.07887 0.47636 0.0
C881 C 0.06211 0.13926 0.51554 0.0
N882 N 0.02855 0.047 0.58065 0.0
N883 N 0.04839 0.16894 0.40863 0.0
H884 H 0.10039 0.16785 0.5791 0.0
H885 H 0.08521 0.19496 0.51193 0.0
H886 H 0.03555 0.16899 0.3616 0.0
H887 H 0.0702 0.18858 0.41285 0.0
H888 H 0.00777 0.02649 0.57335 0.0
H889 H 0.0425 0.04465 0.62634 0.0
H890 H 0.00191 0.02016 0.47018 0.0
H891 H 0.99101 0.0456 0.39852 0.0
C892 C 0.14113 0.95265 0.54382 0.0
C893 C 0.10552 0.93436 0.53853 0.0
C894 C 0.08634 0.96574 0.64397 0.0
C895 C 0.12237 0.98354 0.64825 0.0
N896 N 0.18809 0.973 0.6233 0.0
N897 N 0.04604 0.91867 0.59052 0.0
C898 C 0.15111 0.97092 0.60448 0.0
C899 C 0.07867 0.93935 0.59097 0.0
N900 N 0.16619 0.95211 0.49212 0.0
N901 N 0.05988 0.97313 0.69166 0.0
H902 H 0.03831 0.90114 0.55095 0.0
H903 H 0.02732 0.91736 0.63044 0.0
H904 H 0.06671 0.9861 0.73695 0.0
H905 H 0.03145 0.96616 0.6868 0.0
H906 H 0.19128 0.96752 0.49319 0.0
H907 H 0.16146 0.93802 0.44718 0.0
H908 H 0.20998 0.96246 0.59414 0.0
H909 H 0.19625 0.97954 0.67208 0.0
C910 C 0.96711 0.83633 0.48758 0.0
C911 C 0.98433 0.86734 0.45374 0.0
C912 C 0.95355 0.91081 0.53326 0.0
C913 C 0.93827 0.87958 0.56885 0.0
N914 N 0.94232 0.81315 0.59246 0.0
N915 N 0.98029 0.93394 0.42936 0.0
C916 C 0.94822 0.84246 0.54937 0.0
C917 C 0.97355 0.90465 0.47224 0.0
N918 N 0.96594 0.80143 0.45828 0.0
N919 N 0.95151 0.94612 0.56054 0.0
H920 H 0.98897 0.92954 0.38021 0.0
H921 H 0.97253 0.96176 0.43879 0.0
H922 H 0.93938 0.95093 0.60711 0.0
H923 H 0.96551 0.96959 0.54114 0.0
H924 H 0.95144 0.77854 0.47892 0.0
H925 H 0.97427 0.79698 0.40895 0.0
H926 H 0.95274 0.78598 0.58408 0.0
H927 H 0.93083 0.81719 0.63993 0.0
C928 C 0.31451 0.22616 0.1906 0.0
C929 C 0.34077 0.20906 0.146 0.0
C930 C 0.36276 0.27255 0.11572 0.0
C931 C 0.34241 0.28859 0.16994 0.0
N932 N 0.30198 0.2787 0.26518 0.0
N933 N 0.39692 0.2175 0.07874 0.0
C934 C 0.31946 0.26472 0.20973 0.0
C935 C 0.36681 0.23261 0.11168 0.0
N936 N 0.28352 0.20645 0.21161 0.0
N937 N 0.37773 0.29501 0.06712 0.0
H938 H 0.4034 0.18879 0.07946 0.0
H939 H 0.41813 0.23421 0.05794 0.0
H940 H 0.37479 0.32429 0.06693 0.0
H941 H 0.38974 0.28403 1.02372 0.0
H942 H 0.26215 0.21861 0.24007 0.0
H943 H 0.27667 0.17967 0.19315 0.0
H944 H 0.2876 0.26153 0.29903 0.0
H945 H 0.30475 0.30681 0.28034 0.0
C946 C 0.26458 0.68129 0.96198 0.0
C947 C 0.28118 0.65783 0.91191 0.0
C948 C 0.21801 0.63508 0.88485 0.0
C949 C 0.20371 0.65044 0.94529 0.0
N950 N 0.21543 0.68661 1.04533 0.0
N951 N 0.27193 0.60568 0.83421 0.0
C952 C 0.22774 0.67288 0.98547 0.0
C953 C 0.25751 0.63276 0.87548 0.0
N954 N 0.28276 0.71314 0.9837 0.0
N955 N 0.1943 0.62527 0.8341 0.0
H956 H 0.30062 0.60035 0.82952 0.0
H957 H 0.25483 0.58559 0.81066 0.0
H958 H 0.16538 0.62943 0.83697 0.0
H959 H 0.20404 0.61711 0.78707 0.0
H960 H 0.27065 0.73232 1.01692 0.0
H961 H 0.30733 0.7231 0.96105 0.0
H962 H 0.23316 0.70074 0.07876 0.0
H963 H 0.18852 0.68079 0.06384 0.0
C964 C 0.60673 0.75709 0.14617 0.0
C965 C 0.64151 0.77714 0.14854 0.0
C966 C 0.67415 0.71873 0.18351 0.0
C967 C 0.63953 0.6984 0.18044 0.0
N968 N 0.57378 0.69688 0.14904 0.0
N969 N 0.70915 0.77631 0.15911 0.0
C970 C 0.60608 0.71725 0.15901 0.0
C971 C 0.67543 0.75764 0.16427 0.0
N972 N 0.57396 0.77646 0.13483 0.0
N973 N 0.70571 0.70103 0.20712 0.0
H974 H 0.71112 0.80485 0.14642 0.0
H975 H 0.73533 0.76318 0.16222 0.0
H976 H 0.70613 0.67238 0.21906 0.0
H977 H 0.73078 0.7149 0.21901 0.0
H978 H 0.54719 0.76489 0.14139 0.0
H979 H 0.5733 0.80518 0.12298 0.0
H980 H 0.54996 0.70734 0.12483 0.0
H981 H 0.57145 0.66851 0.1616 0.0
C982 C 0.7692 0.30852 0.92517 0.0
C983 C 0.7869 0.34258 0.94713 0.0
C984 C 0.72793 0.37713 0.92649 0.0
C985 C 0.7095 0.34291 0.90862 0.0
N986 N 0.71084 0.27476 0.9015 0.0
N987 N 0.7787 0.40632 0.98881 0.0
C988 C 0.72966 0.30818 0.91109 0.0
C989 C 0.76496 0.37596 0.95409 0.0
N990 N 0.79015 0.2763 0.91835 0.0
N991 N 0.71036 0.41104 0.91642 0.0
H992 H 0.80554 0.40702 1.00989 0.0
H993 H 0.7622 0.42963 1.00147 0.0
H994 H 0.68315 0.4132 0.89697 0.0
H995 H 0.72417 0.43697 0.92147 0.0
H996 H 0.78043 0.25208 0.89404 0.0
H997 H 0.81795 0.27417 0.93516 0.0
H998 H 0.72275 0.2483 0.91023 0.0
H999 H 0.68233 0.27342 0.88877 0.0
C1000 C 0.80712 0.71989 0.72088 0.0
C1001 C 0.83189 0.70337 0.67297 0.0
C1002 C 0.85445 0.76676 0.64598 0.0
C1003 C 0.83702 0.78184 0.70384 0.0
N1004 N 0.79608 0.77165 0.7981 0.0
N1005 N 0.88635 0.71252 0.6015 0.0
C1006 C 0.81329 0.75796 0.7422 0.0
C1007 C 0.85764 0.72713 0.63865 0.0
N1008 N 0.77621 0.7003 0.74256 0.0
N1009 N 0.86513 0.78983 0.59497 0.0
H1010 H 0.89266 0.6838 0.60041 0.0
H1011 H 0.90674 0.72966 0.57911 0.0
H1012 H 0.8602 0.81878 0.59581 0.0
H1013 H 0.87457 0.77932 0.54919 0.0
H1014 H 0.75573 0.71206 0.77347 0.0
H1015 H 0.7684 0.67416 0.72258 0.0
H1016 H 0.78167 0.75443 0.83183 0.0
H1017 H 0.7985 0.79982 0.81287 0.0
C1018 C 0.77947 0.1688 0.47104 0.0
C1019 C 0.79587 0.14548 0.42069 0.0
C1020 C 0.73354 0.11832 0.39858 0.0
C1021 C 0.71828 0.13842 0.45367 0.0
N1022 N 0.72998 0.17394 0.55391 0.0
N1023 N 0.78909 0.08798 0.35527 0.0
C1024 C 0.74244 0.16058 0.49402 0.0
C1025 C 0.77317 0.11718 0.38981 0.0
N1026 N 0.79794 0.20024 0.49396 0.0
N1027 N 0.71039 0.10128 0.3531 0.0
H1028 H 0.81806 0.08357 0.35341 0.0
H1029 H 0.77332 0.06536 0.33648 0.0
H1030 H 0.6812 0.10199 0.35725 0.0
H1031 H 0.72027 0.08948 0.30868 0.0
H1032 H 0.78574 0.21941 0.52708 0.0
H1033 H 0.8232 0.20983 0.47343 0.0
H1034 H 0.74742 0.18824 0.58759 0.0
H1035 H 0.70355 0.16646 0.5727 0.0
C1036 C 0.17791 0.26556 0.65396 0.0
C1037 C 0.14337 0.28565 0.64987 0.0
C1038 C 0.10862 0.22802 0.6823 0.0
C1039 C 0.14344 0.20855 0.68981 0.0
N1040 N 0.21131 0.20992 0.69348 0.0
N1041 N 0.07597 0.28766 0.66524 0.0
C1042 C 0.17811 0.2277 0.67851 0.0
C1043 C 0.10871 0.26727 0.66515 0.0
N1044 N 0.21042 0.28249 0.63237 0.0
N1045 N 0.0754 0.20864 0.68904 0.0
H1046 H 0.07456 0.31568 0.64932 0.0
H1047 H 0.05054 0.27772 0.6844 0.0
H1048 H 0.07404 0.18042 0.70398 0.0
H1049 H 0.04919 0.21966 0.67624 0.0
H1050 H 0.23603 0.26842 0.6275 0.0
H1051 H 0.21115 0.31004 0.61355 0.0
H1052 H 0.23749 0.22332 0.69312 0.0
H1053 H 0.21244 0.18237 0.71221 0.0
C1054 C 0.27149 0.82411 0.40008 0.0
C1055 C 0.28692 0.85102 0.44599 0.0
C1056 C 0.22241 0.86874 0.47566 0.0
C1057 C 0.20785 0.84867 0.41956 0.0
N1058 N 0.21994 0.80791 0.32539 0.0
N1059 N 0.27491 0.90568 0.51607 0.0
C1060 C 0.23295 0.82695 0.38021 0.0
C1061 C 0.26185 0.87519 0.48093 0.0
N1062 N 0.29269 0.79408 0.37933 0.0
N1063 N 0.19913 0.88059 0.52553 0.0
H1064 H 0.3031 0.91398 0.51669 0.0
H1065 H 0.25684 0.92546 0.53756 0.0
H1066 H 0.17016 0.87587 0.52507 0.0
H1067 H 0.20941 0.89188 0.57023 0.0
H1068 H 0.28194 0.77223 0.34983 0.0
H1069 H 0.31925 0.78823 0.3992 0.0
H1070 H 0.23782 0.79486 0.29115 0.0
H1071 H 0.19153 0.80737 0.31196 0.0
C1072 C 0.23663 0.05533 0.88626 0.0
C1073 C 0.22306 0.08993 0.85918 0.0
C1074 C 0.25171 0.12422 0.95488 0.0
C1075 C 0.26309 0.08931 0.98419 0.0
N1076 N 0.26082 0.02123 0.98293 0.0
N1077 N 0.21272 0.15684 0.87301 0.0
C1078 C 0.25399 0.05477 0.95108 0.0
C1079 C 0.22932 0.12425 0.89498 0.0
N1080 N 0.23371 0.02298 0.84903 0.0
N1081 N 0.26359 0.15756 0.98266 0.0
H1082 H 0.19735 0.1583 0.82859 0.0
H1083 H 0.21199 0.18175 0.90084 0.0
H1084 H 0.27884 0.15891 1.0272 0.0
H1085 H 0.26048 0.18375 0.95944 0.0
H1086 H 0.24641 -0.00251 0.86211 0.0
H1087 H 0.22134 0.02249 0.80163 0.0
H1088 H 0.25166 0.99506 0.96515 0.0
H1089 H 0.27263 0.01984 1.03071 0.0
C1090 C 0.11398 0.75007 0.12302 0.0
C1091 C 0.08314 0.72511 0.11034 0.0
C1092 C 0.05804 0.74055 0.22354 0.0
C1093 C 0.08793 0.76677 0.23478 0.0
N1094 N 0.14056 0.8015 0.18891 0.0
N1095 N 0.02208 0.70224 0.14406 0.0
C1096 C 0.11465 0.77298 0.18248 0.0
C1097 C 0.05421 0.72191 0.15969 0.0
N1098 N 0.14383 0.75072 0.07992 0.0
N1099 N 0.03287 0.73385 0.2738 0.0
H1100 H 0.01767 0.68987 0.0973 0.0
H1101 H -0.00171 0.70104 0.17428 0.0
H1102 H 0.0344 0.74742 0.32005 0.0
H1103 H 0.01178 0.71341 0.27152 0.0
H1104 H 0.16932 0.7642 0.09046 0.0
H1105 H 0.14439 0.7354 1.03549 0.0
H1106 H 0.15751 0.81087 0.14981 0.0
H1107 H 0.1434 0.81776 0.23212 0.0
C1108 C 0.7238 0.93224 0.94456 0.0
C1109 C 0.72651 0.9014 0.99087 0.0
C1110 C 0.77604 0.87441 0.91739 0.0
C1111 C 0.76876 0.90187 0.86649 0.0
N1112 N 0.73186 0.9551 0.8305 0.0
N1113 N 0.75109 0.83867 1.01083 0.0
C1114 C 0.74119 0.92999 0.87963 0.0
C1115 C 0.7517 0.87137 0.97456 0.0
N1116 N 0.70658 0.96498 0.9641 0.0
N1117 N 0.80668 0.85125 0.91213 0.0
H1118 H 0.73275 0.83421 0.05049 0.0
H1119 H 0.76589 0.81447 0.9969 0.0
H1120 H 0.82477 0.85151 0.87114 0.0
H1121 H 0.81584 0.83395 0.9511 0.0
H1122 H 0.70645 0.98955 0.93532 0.0
H1123 H 0.6966 0.96917 1.01255 0.0
H1124 H 0.70943 0.97396 0.83452 0.0
H1125 H 0.74459 0.95488 0.78353 0.0
C1126 C 0.94698 0.25864 0.14092 0.0
C1127 C 0.91207 0.26871 0.11042 0.0
C1128 C 0.87846 0.23591 0.20254 0.0
C1129 C 0.91333 0.22781 0.23495 0.0
N1130 N 0.98055 0.23611 0.2397 0.0
N1131 N 0.84429 0.27138 0.11762 0.0
C1132 C 0.9475 0.24056 0.20528 0.0
C1133 C 0.87774 0.25838 0.14267 0.0
N1134 N 0.97977 0.26512 0.1069 0.0
N1135 N 0.84588 0.22101 0.22785 0.0
H1136 H 0.84233 0.28667 0.07323 0.0
H1137 H 0.81874 0.26924 0.14289 0.0
H1138 H 0.84492 0.20637 0.27305 0.0
H1139 H 0.82022 0.22122 0.20242 0.0
H1140 H 0.00601 0.25526 0.12242 0.0
H1141 H 0.98036 0.2776 0.05964 0.0
H1142 H 0.00612 0.24792 0.2249 0.0
H1143 H 0.98176 0.22324 0.28662 0.0
C1144 C 0.26728 0.44045 0.40067 0.0
C1145 C 0.26591 0.41 0.35351 0.0
C1146 C 0.22474 0.37466 0.43285 0.0
C1147 C 0.22663 0.40501 0.47981 0.0
N1148 N 0.25494 0.46376 0.51347 0.0
N1149 N 0.23981 0.34939 0.32244 0.0
C1150 C 0.24948 0.43698 0.465 0.0
C1151 C 0.24357 0.37746 0.36908 0.0
N1152 N 0.28368 0.47389 0.38199 0.0
N1153 N 0.20611 0.3423 0.45098 0.0
H1154 H 0.25318 0.35001 0.27626 0.0
H1155 H 0.2217 0.32634 0.32686 0.0
H1156 H 0.1929 0.33928 0.49722 0.0
H1157 H 0.20545 0.3175 0.42303 0.0
H1158 H 0.28289 0.49852 0.4105 0.0
H1159 H 0.29491 0.47829 0.33445 0.0
H1160 H 0.27449 0.48569 0.50985 0.0
H1161 H 0.24218 0.46209 0.56034 0.0
C1162 C 0.36812 0.74615 0.70765 0.0
C1163 C 0.40232 0.73869 0.74297 0.0
C1164 C 0.43781 0.76687 0.64817 0.0
C1165 C 0.40362 0.777 0.61535 0.0
N1166 N 0.33585 0.78024 0.61851 0.0
N1167 N 0.46951 0.74728 0.75059 0.0
C1168 C 0.36869 0.76756 0.64637 0.0
C1169 C 0.43708 0.7505 0.71395 0.0
N1170 N 0.33504 0.73145 0.73116 0.0
N1171 N 0.4712 0.77201 0.61532 0.0
H1172 H 0.46993 0.73616 0.79891 0.0
H1173 H 0.49527 0.7588 0.73607 0.0
H1174 H 0.47263 0.78333 0.56719 0.0
H1175 H 0.49699 0.76195 0.63273 0.0
H1176 H 0.30995 0.73147 0.70398 0.0
H1177 H 0.33313 0.71689 0.77633 0.0
H1178 H 0.30985 0.77888 0.64248 0.0
H1179 H 0.33491 0.79427 0.57269 0.0
C1180 C 0.72006 0.54481 0.41079 0.0
C1181 C 0.72026 0.5766 0.36661 0.0
C1182 C 0.75286 0.61388 0.45457 0.0
C1183 C 0.7543 0.5817 0.49716 0.0
N1184 N 0.74368 0.51506 0.5125 0.0
N1185 N 0.74422 0.63888 0.34239 0.0
C1186 C 0.73898 0.54678 0.47427 0.0
C1187 C 0.73894 0.61036 0.38739 0.0
N1188 N 0.70165 0.51246 0.39185 0.0
N1189 N 0.76447 0.64815 0.47897 0.0
H1190 H 0.7364 0.63626 0.29257 0.0
H1191 H 0.75996 0.66319 0.35204 0.0
H1192 H 0.77424 0.6516 0.52783 0.0
H1193 H 0.76115 0.67363 0.45355 0.0
H1194 H 0.69549 0.49029 0.42436 0.0
H1195 H 0.69139 0.50826 0.34346 0.0
H1196 H 0.73755 0.48776 0.49606 0.0
H1197 H 0.75539 0.51593 0.5604 0.0
C1198 C 0.63029 0.2379 0.64162 0.0
C1199 C 0.5967 0.22533 0.6093 0.0
C1200 C 0.56075 0.24342 0.71077 0.0
C1201 C 0.59358 0.26022 0.73936 0.0
N1202 N 0.65986 0.27404 0.7315 0.0
N1203 N 0.52941 0.21773 0.61175 0.0
C1204 C 0.62857 0.25688 0.70511 0.0
C1205 C 0.56184 0.22799 0.64409 0.0
N1206 N 0.66402 0.23243 0.6102 0.0
N1207 N 0.52843 0.24227 0.74775 0.0
H1208 H 0.52955 0.20501 0.56465 0.0
H1209 H 0.50249 0.22289 0.63017 0.0
H1210 H 0.52708 0.25324 0.79616 0.0
H1211 H 0.50418 0.22775 0.73324 0.0
H1212 H 0.69018 0.23728 0.63227 0.0
H1213 H 0.66586 0.22032 0.56276 0.0
H1214 H 0.68536 0.27706 0.70647 0.0
H1215 H 0.65984 0.28712 0.77818 0.0
C1216 C 0.36614 0.1105 0.58092 0.0
C1217 C 0.33425 0.08694 0.56858 0.0
C1218 C 0.33148 0.07017 0.68773 0.0
C1219 C 0.36432 0.09236 0.69959 0.0
N1220 N 0.41558 0.13047 0.6579 0.0
N1221 N 0.29064 0.03914 0.60703 0.0
C1222 C 0.38242 0.11163 0.6462 0.0
C1223 C 0.31808 0.06528 0.62111 0.0
N1224 N 0.38069 0.13193 0.53012 0.0
N1225 N 0.31269 0.05427 0.74044 0.0
H1226 H 0.27969 0.03496 0.5592 0.0
H1227 H 0.28062 0.01947 0.64146 0.0
H1228 H 0.3225 0.05555 0.78959 0.0
H1229 H 0.28606 0.042 0.73638 0.0
H1230 H 0.40093 0.15298 0.53684 0.0
H1231 H 0.37126 0.12998 0.48081 0.0
H1232 H 0.43268 0.14152 0.62046 0.0
H1233 H 0.4274 0.1333 0.70545 0.0
C1234 C 0.04756 0.66555 0.47073 0.0
C1235 C 0.06855 0.64964 0.52452 0.0
C1236 C 0.09278 0.60052 0.44864 0.0
C1237 C 0.07108 0.61594 0.39557 0.0
N1238 N 0.01914 0.65539 0.36187 0.0
N1239 N 0.10093 0.59496 0.5686 0.0
C1240 C 0.04575 0.64606 0.40849 0.0
C1241 C 0.08804 0.6149 0.51465 0.0
N1242 N 0.03077 0.70009 0.47757 0.0
N1243 N 0.11893 0.57312 0.43584 0.0
H1244 H 0.0965 0.60375 0.61777 0.0
H1245 H 0.11223 0.56784 0.56496 0.0
H1246 H 0.12314 0.56172 0.38835 0.0
H1247 H 0.1384 0.56384 0.47128 0.0
H1248 H 0.01908 0.71491 0.43756 0.0
H1249 H 0.03094 0.71537 0.52201 0.0
H1250 H -0.00293 0.67399 0.37169 0.0
H1251 H 0.01687 0.64159 0.31587 0.0
C1252 C 0.61961 0.86755 0.59505 0.0
C1253 C 0.64938 0.89293 0.57862 0.0
C1254 C 0.64536 0.92101 0.69106 0.0
C1255 C 0.61863 0.89294 0.70974 0.0
N1256 N 0.58294 0.83687 0.68215 0.0
N1257 N 0.69334 0.94152 0.61274 0.0
C1258 C 0.60638 0.86552 0.66235 0.0
C1259 C 0.66293 0.9191 0.62714 0.0
N1260 N 0.60306 0.84638 0.54575 0.0
N1261 N 0.65302 0.95033 0.73372 0.0
H1262 H 0.70623 0.94193 0.56597 0.0
H1263 H 0.70758 0.95766 0.64838 0.0
H1264 H 0.64085 0.9527 0.78097 0.0
H1265 H 0.66883 0.97401 0.72033 0.0
H1266 H 0.5786 0.8305 0.55275 0.0
H1267 H 0.61188 0.84721 0.49605 0.0
H1268 H 0.57623 0.81368 0.65221 0.0
H1269 H 0.57226 0.83482 0.73057 0.0
C1270 C 0.87 0.34159 0.42013 0.0
C1271 C 0.90297 0.35484 0.38757 0.0
C1272 C 0.94133 0.32113 0.4708 0.0
C1273 C 0.90863 0.31492 0.51078 0.0
N1274 N 0.84526 0.29242 0.4907 0.0
N1275 N 0.97105 0.35691 0.38217 0.0
C1276 C 0.87342 0.31758 0.47677 0.0
C1277 C 0.93895 0.34469 0.41316 0.0
N1278 N 0.83519 0.35224 0.39773 0.0
N1279 N 0.97246 0.29905 0.47975 0.0
H1280 H 0.97086 0.37229 0.3377 0.0
H1281 H -0.00224 0.35389 0.40344 0.0
H1282 H 0.97235 0.27589 0.51198 0.0
H1283 H -0.00421 0.29973 0.44819 0.0
H1284 H 0.8105 0.34604 0.42384 0.0
H1285 H 0.83137 0.37007 0.3567 0.0
H1286 H 0.82036 0.29073 0.46302 0.0
H1287 H 0.84941 0.26965 0.52306 0.0
C1288 C 0.34535 0.36761 0.6664 0.0
C1289 C 0.3538 0.40037 0.62828 0.0
C1290 C 0.31586 0.43813 0.70615 0.0
C1291 C 0.31464 0.40703 0.75161 0.0
N1292 N 0.30035 0.34036 0.7422 0.0
N1293 N 0.34603 0.4676 0.61098 0.0
C1294 C 0.3216 0.37074 0.72324 0.0
C1295 C 0.33879 0.43588 0.64794 0.0
N1296 N 0.36019 0.33337 0.64897 0.0
N1297 N 0.29023 0.46672 0.71172 0.0
H1298 H 0.36081 0.46706 0.56599 0.0
H1299 H 0.33944 0.49477 0.62759 0.0
H1300 H 0.26838 0.4658 0.74634 0.0
H1301 H 0.28709 0.48808 0.67623 0.0
H1302 H 0.35753 0.30941 0.6791 0.0
H1303 H 0.37775 0.32978 0.60768 0.0
H1304 H 0.30181 0.31406 0.71862 0.0
H1305 H 0.27725 0.34325 0.77396 0.0
C1306 C 0.38508 0.6416 0.34102 0.0
C1307 C 0.40925 0.67306 0.32902 0.0
C1308 C 0.43094 0.66993 0.44598 0.0
C1309 C 0.40272 0.64244 0.45962 0.0
N1310 N 0.34949 0.60538 0.42221 0.0
N1311 N 0.45455 0.7185 0.37189 0.0
C1312 C 0.37888 0.62911 0.40767 0.0
C1313 C 0.43221 0.68747 0.38192 0.0
N1314 N 0.36938 0.62247 0.28837 0.0
N1315 N 0.45743 0.67835 0.49364 0.0
H1316 H 0.45882 0.73067 0.32528 0.0
H1317 H 0.46735 0.73359 0.41056 0.0
H1318 H 0.45755 0.66608 0.54106 0.0
H1319 H 0.48123 0.69488 0.48453 0.0
H1320 H 0.3546 0.59714 0.29377 0.0
H1321 H 0.37469 0.62953 0.23863 0.0
H1322 H 0.32869 0.59809 0.38762 0.0
H1323 H 0.34401 0.59555 0.4704 0.0
C1324 C 0.66428 0.53544 0.72459 0.0
C1325 C 0.643 0.54722 0.78108 0.0
C1326 C 0.59223 0.569 0.70652 0.0
C1327 C 0.61324 0.55691 0.65004 0.0
N1328 N 0.66467 0.52 0.60629 0.0
N1329 N 0.5822 0.56342 0.82594 0.0
C1330 C 0.64792 0.5375 0.65943 0.0
C1331 C 0.60553 0.56035 0.77199 0.0
N1332 N 0.70057 0.52339 0.7327 0.0
N1333 N 0.56052 0.5904 0.69799 0.0
H1334 H 0.59085 0.55682 0.87447 0.0
H1335 H 0.55338 0.56862 0.82163 0.0
H1336 H 0.55001 0.59785 0.65109 0.0
H1337 H 0.54649 0.60346 0.73745 0.0
H1338 H 0.71919 0.5194 0.69313 0.0
H1339 H 0.71287 0.51934 0.77941 0.0
H1340 H 0.68751 0.50173 0.61114 0.0
H1341 H 0.65337 0.52051 0.55809 0.0
C1342 C 0.61804 0.3409 0.4339 0.0
C1343 C 0.59534 0.37259 0.45056 0.0
C1344 C 0.57203 0.37572 0.33467 0.0
C1345 C 0.59521 0.34432 0.31788 0.0
N1346 N 0.6463 0.3024 0.34718 0.0
N1347 N 0.55464 0.42361 0.41648 0.0
C1348 C 0.62009 0.32858 0.36621 0.0
C1349 C 0.57356 0.39111 0.40067 0.0
N1350 N 0.63687 0.32185 0.48326 0.0
N1351 N 0.54824 0.39048 0.2875 0.0
H1352 H 0.55407 0.43484 0.4647 0.0
H1353 H 0.54135 0.44087 0.38156 0.0
H1354 H 0.54838 0.38185 0.23762 0.0
H1355 H 0.5273 0.41021 0.29777 0.0
H1356 H 0.64965 0.29564 0.47624 0.0
H1357 H 0.63772 0.33099 0.53284 0.0
H1358 H 0.66792 0.2929 0.37818 0.0
H1359 H 0.64851 0.29221 0.29849 0.0
C1360 C 0.80959 0.56779 0.1366 0.0
C1361 C 0.82003 0.59471 0.08697 0.0
C1362 C 0.86271 0.62562 0.16758 0.0
C1363 C 0.8505 0.60012 0.21784 0.0
N1364 N 0.80703 0.55185 0.25448 0.0
N1365 N 0.8511 0.6536 0.05896 0.0
C1366 C 0.82228 0.57271 0.20362 0.0
C1367 C 0.84489 0.62502 0.10365 0.0
N1368 N 0.78828 0.53692 0.11954 0.0
N1369 N 0.89201 0.64983 0.18047 0.0
H1370 H 0.83897 0.65428 1.01157 0.0
H1371 H 0.86568 0.67836 0.07073 0.0
H1372 H 0.90492 0.65191 0.22727 0.0
H1373 H 0.90541 0.66581 0.14375 0.0
H1374 H 0.78353 0.51414 0.15149 0.0
H1375 H 0.77742 0.53258 0.07172 0.0
H1376 H 0.78318 0.53484 0.24882 0.0
H1377 H 0.81625 0.55388 0.30392 0.0
C1378 C 0.53515 0.15298 0.94213 0.0
C1379 C 0.56426 0.13014 0.91554 0.0
C1380 C 0.59364 0.12895 1.0266 0.0
C1381 C 0.5719 0.16124 1.0446 0.0
N1382 N 0.51955 0.20298 1.01882 0.0
N1383 N 0.59815 0.07505 0.95213 0.0
C1384 C 0.54163 0.17275 1.00262 0.0
C1385 C 0.58752 0.11162 0.96314 0.0
N1386 N 0.49962 0.15081 0.91616 0.0
N1387 N 0.61977 0.11462 0.07 0.0
H1388 H 0.58789 0.05974 0.91123 0.0
H1389 H 0.61224 0.05854 0.98732 0.0
H1390 H 0.62258 0.12407 0.11917 0.0
H1391 H 0.63945 0.09421 0.05625 0.0
H1392 H 0.47653 0.16436 0.93771 0.0
H1393 H 0.49275 0.13112 0.87905 0.0
H1394 H 0.49953 0.21394 0.98584 0.0
H1395 H 0.52303 0.21872 0.06245 0.0
C1396 C 0.1431 0.36849 0.16924 0.0
C1397 C 0.13245 0.40226 0.20263 0.0
C1398 C 0.17024 0.43851 0.12177 0.0
C1399 C 0.17435 0.40552 0.08133 0.0
N1400 N 0.192 0.34075 0.10248 0.0
N1401 N 0.13655 0.4705 0.21034 0.0
C1402 C 0.16838 0.37039 0.11438 0.0
C1403 C 0.14604 0.43763 0.1786 0.0
N1404 N 0.12902 0.33436 0.18945 0.0
N1405 N 0.19464 0.46812 0.11392 0.0
H1406 H 0.12115 0.47131 0.25462 0.0
H1407 H 0.14196 0.49713 0.18994 0.0
H1408 H 0.21767 0.46654 0.08179 0.0
H1409 H 0.19565 0.49138 0.14595 0.0
H1410 H 0.13372 0.30942 0.1628 0.0
H1411 H 0.10994 0.33168 0.22883 0.0
H1412 H 0.19102 0.31558 0.12966 0.0
H1413 H 0.2162 0.34391 0.07335 0.0
C1414 C 0.42997 0.83631 0.97468 0.0
C1415 C 0.41372 0.8558 1.02976 0.0
C1416 C 0.39425 0.90748 0.95433 0.0
C1417 C 0.40733 0.88618 0.89876 0.0
N1418 N 0.43487 0.82911 0.85436 0.0
N1419 N 0.37988 0.90961 0.07311 0.0
C1420 C 0.42448 0.85029 0.90856 0.0
C1421 C 0.39575 0.89138 1.01982 0.0
N1422 N 0.45149 0.80483 0.9856 0.0
N1423 N 0.38095 0.94339 0.94442 0.0
H1424 H 0.38293 0.90035 0.12231 0.0
H1425 H 0.3624 0.93311 0.06886 0.0
H1426 H 0.37796 0.95539 0.89707 0.0
H1427 H 0.3749 0.96228 0.98282 0.0
H1428 H 0.46785 0.79197 0.94896 0.0
H1429 H 0.45548 0.79293 1.03266 0.0
H1430 H 0.44255 0.80073 0.85728 0.0
H1431 H 0.43356 0.83906 0.80534 0.0
C1432 C 0.87528 0.91338 0.26893 0.0
C1433 C 0.83668 0.92356 0.27669 0.0
C1434 C 0.83005 0.92897 0.1546 0.0
C1435 C 0.86845 0.91866 0.14671 0.0
N1436 N 0.92964 0.9078 0.19539 0.0
N1437 N 0.78117 0.95193 0.22845 0.0
C1438 C 0.89172 0.91296 0.20374 0.0
C1439 C 0.81526 0.93477 0.21997 0.0
N1440 N 0.89606 0.90382 0.32409 0.0
N1441 N 0.80729 0.93204 0.09954 0.0
H1442 H 0.76991 0.95761 0.27533 0.0
H1443 H 0.7659 0.96413 0.18955 0.0
H1444 H 0.81712 0.92885 0.05076 0.0
H1445 H 0.77811 0.93495 0.10221 0.0
H1446 H 0.92274 0.89168 0.32206 0.0
H1447 H 0.88601 0.90701 0.37275 0.0
H1448 H 0.94903 0.90718 0.23451 0.0
H1449 H 0.94233 0.90665 0.14842 0.0
C1450 C 0.94009 0.15177 0.93309 0.0
C1451 C 0.90445 0.13754 0.95335 0.0
C1452 C 0.87507 0.17058 0.85909 0.0
C1453 C 0.91122 0.17732 0.83049 0.0
N1454 N 0.97162 0.20024 0.86948 0.0
N1455 N 0.83756 0.13185 0.93314 0.0
C1456 C 0.94249 0.17513 0.87529 0.0
C1457 C 0.87183 0.14646 0.91554 0.0
N1458 N 0.97179 0.14328 0.969 0.0
N1459 N 0.84506 0.19243 0.84107 0.0
H1460 H 0.83392 0.11405 0.97427 0.0
H1461 H 0.81362 0.13483 0.9032 0.0
H1462 H 0.84812 0.21598 0.81014 0.0
H1463 H 0.81894 0.19096 0.86479 0.0
H1464 H -0.00111 0.14942 0.95192 0.0
H1465 H 0.9712 0.12765 1.01321 0.0
H1466 H 0.99335 0.20256 0.90444 0.0
H1467 H 0.97099 0.22246 0.83523 0.0
C1468 C 0.14337 0.12387 0.17299 0.0
C1469 C 0.13251 0.09063 0.1379 0.0
C1470 C 0.16941 0.0529 0.21761 0.0
C1471 C 0.17329 0.08494 0.26047 0.0
N1472 N 0.188 0.15136 0.25059 0.0
N1473 N 0.13447 0.02239 0.12869 0.0
C1474 C 0.16708 0.12092 0.23031 0.0
C1475 C 0.1449 0.05479 0.16127 0.0
N1476 N 0.13022 0.15835 0.15277 0.0
N1477 N 0.19498 0.02421 0.22082 0.0
H1478 H 0.11844 0.0223 0.08495 0.0
H1479 H 0.13967 0.99553 0.14828 0.0
H1480 H 0.22028 0.02739 0.24677 0.0
H1481 H 0.19512 0.00137 0.1878 0.0
H1482 H 0.13412 0.18301 0.18064 0.0
H1483 H 0.11251 0.16167 0.11146 0.0
H1484 H 0.18761 0.17744 0.22624 0.0
H1485 H 0.20956 0.1488 0.28592 0.0
C1486 C 0.06588 0.82104 0.87848 0.0
C1487 C 0.08196 0.8404 0.82317 0.0
C1488 C 0.1014 0.89246 0.89796 0.0
C1489 C 0.08847 0.87127 0.95383 0.0
N1490 N 0.06317 0.81323 0.99889 0.0
N1491 N 0.11652 0.89374 0.77933 0.0
C1492 C 0.07208 0.83492 0.94449 0.0
C1493 C 0.10022 0.87593 0.83272 0.0
N1494 N 0.04351 0.79005 0.86777 0.0
N1495 N 0.11398 0.92874 0.90729 0.0
H1496 H 0.11443 0.88355 0.73049 0.0
H1497 H 0.1337 0.91757 0.78338 0.0
H1498 H 0.11617 0.94123 0.95442 0.0
H1499 H 0.12 0.94739 0.86848 0.0
H1500 H 0.02763 0.77709 0.90506 0.0
H1501 H 0.0381 0.77916 0.82027 0.0
H1502 H 0.05528 0.78487 0.99566 0.0
H1503 H 0.06646 0.82262 1.04801 0.0
loop_
_geom_bond_atom_site_label_1
_geom_bond_atom_site_label_2
_geom_bond_distance
_geom_bond_site_symmetry_2
_ccdc_geom_bond_type
Tb0 C9 2.764 1_554 S
Tb0 O10 2.325 . S
Tb0 O13 2.303 . S
Tb0 O17 2.322 . S
Tb0 O18 2.349 . S
Tb0 O21 2.415 1_554 S
Tb0 O22 2.399 1_554 S
Tb1 O11 2.322 . S
Tb1 O12 2.349 . S
Tb1 O14 2.415 . S
Tb1 O15 2.399 . S
Tb1 O16 2.325 . S
Tb1 O19 2.303 . S
Tb1 C30 2.764 . S
C2 O18 1.261 . S
C2 O19 1.257 . S
C3 C6 1.358 . S
C3 C7 1.332 . S
C3 C9 1.504 . S
C4 C5 1.373 . S
C4 C8 1.308 . S
C5 C4 1.373 . S
C5 C6 1.429 . S
C5 H32 0.932 . S
C6 C3 1.358 . S
C6 C5 1.429 . S
C6 H33 0.930 . S
C7 C3 1.332 . S
C7 C8 1.394 . S
C7 H34 0.932 . S
C8 C4 1.308 . S
C8 C7 1.394 . S
C8 H35 0.929 . S
C9 Tb0 2.764 1_556 S
C9 C3 1.504 . S
C9 O21 1.239 . S
C9 O22 1.263 . S
O10 Tb0 2.325 . S
O10 C20 1.236 . S
O11 Tb1 2.322 . S
O11 C20 1.257 . S
O12 Tb1 2.349 . S
O12 C23 1.261 . S
O13 Tb0 2.303 . S
O13 C23 1.257 . S
O14 Tb1 2.415 . S
O14 C30 1.239 . S
O15 Tb1 2.399 . S
O15 C30 1.263 . S
O16 Tb1 2.325 . S
O16 C31 1.236 . S
O17 Tb0 2.322 . S
O17 C31 1.257 . S
O18 Tb0 2.349 . S
O18 C2 1.261 . S
O19 Tb1 2.303 . S
O19 C2 1.257 . S
C20 O10 1.236 . S
C20 O11 1.257 . S
O21 Tb0 2.415 1_556 S
O21 C9 1.239 . S
O22 Tb0 2.399 1_556 S
O22 C9 1.263 . S
C23 O12 1.261 . S
C23 O13 1.257 . S
C24 C27 1.358 . S
C24 C28 1.332 . S
C24 C30 1.504 . S
C25 C26 1.373 . S
C25 C29 1.308 . S
C26 C25 1.373 . S
C26 C27 1.429 . S
C26 H36 0.932 . S
C27 C24 1.358 . S
C27 C26 1.429 . S
C27 H37 0.930 . S
C28 C24 1.332 . S
C28 C29 1.394 . S
C28 H38 0.932 . S
C29 C25 1.308 . S
C29 C28 1.394 . S
C29 H39 0.929 . S
C30 Tb1 2.764 . S
C30 O14 1.239 . S
C30 O15 1.263 . S
C30 C24 1.504 . S
C31 O16 1.236 . S
C31 O17 1.257 . S
H32 C5 0.932 . S
H33 C6 0.930 . S
H34 C7 0.932 . S
H35 C8 0.929 . S
H36 C26 0.932 . S
H37 C27 0.930 . S
H38 C28 0.932 . S
H39 C29 0.929 . S
Tb40 C49 2.764 . S
Tb40 O50 2.325 . S
Tb40 O53 2.303 . S
Tb40 O57 2.322 . S
Tb40 O58 2.349 . S
Tb40 O61 2.415 . S
Tb40 O62 2.399 . S
Tb41 O51 2.322 . S
Tb41 O52 2.349 . S
Tb41 O54 2.415 1_556 S
Tb41 O55 2.399 1_556 S
Tb41 O56 2.325 . S
Tb41 O59 2.303 . S
Tb41 C70 2.764 1_556 S
C42 O58 1.261 . S
C42 O59 1.257 . S
C43 C46 1.358 . S
C43 C47 1.332 . S
C43 C49 1.504 . S
C44 C45 1.373 . S
C44 C48 1.308 . S
C45 C44 1.373 . S
C45 C46 1.429 . S
C45 H72 0.932 . S
C46 C43 1.358 . S
C46 C45 1.429 . S
C46 H73 0.930 . S
C47 C43 1.332 . S
C47 C48 1.394 . S
C47 H74 0.932 . S
C48 C44 1.308 . S
C48 C47 1.394 . S
C48 H75 0.929 . S
C49 Tb40 2.764 . S
C49 C43 1.504 . S
C49 O61 1.239 . S
C49 O62 1.263 . S
O50 Tb40 2.325 . S
O50 C60 1.236 . S
O51 Tb41 2.322 . S
O51 C60 1.257 . S
O52 Tb41 2.349 . S
O52 C63 1.261 . S
O53 Tb40 2.303 . S
O53 C63 1.257 . S
O54 Tb41 2.415 1_554 S
O54 C70 1.239 . S
O55 Tb41 2.399 1_554 S
O55 C70 1.263 . S
O56 Tb41 2.325 . S
O56 C71 1.236 . S
O57 Tb40 2.322 . S
O57 C71 1.257 . S
O58 Tb40 2.349 . S
O58 C42 1.261 . S
O59 Tb41 2.303 . S
O59 C42 1.257 . S
C60 O50 1.236 . S
C60 O51 1.257 . S
O61 Tb40 2.415 . S
O61 C49 1.239 . S
O62 Tb40 2.399 . S
O62 C49 1.263 . S
C63 O52 1.261 . S
C63 O53 1.257 . S
C64 C67 1.358 . S
C64 C68 1.332 . S
C64 C70 1.504 . S
C65 C66 1.373 . S
C65 C69 1.308 . S
C66 C65 1.373 . S
C66 C67 1.429 . S
C66 H76 0.932 . S
C67 C64 1.358 . S
C67 C66 1.429 . S
C67 H77 0.930 . S
C68 C64 1.332 . S
C68 C69 1.394 . S
C68 H78 0.932 . S
C69 C65 1.308 . S
C69 C68 1.394 . S
C69 H79 0.929 . S
C70 Tb41 2.764 1_554 S
C70 O54 1.239 . S
C70 O55 1.263 . S
C70 C64 1.504 . S
C71 O56 1.236 . S
C71 O57 1.257 . S
H72 C45 0.932 . S
H73 C46 0.930 . S
H74 C47 0.932 . S
H75 C48 0.929 . S
H76 C66 0.932 . S
H77 C67 0.930 . S
H78 C68 0.932 . S
H79 C69 0.929 . S
Tb80 C89 2.764 1_554 S
Tb80 O90 2.325 . S
Tb80 O93 2.303 . S
Tb80 O97 2.322 . S
Tb80 O98 2.349 . S
Tb80 O101 2.415 1_554 S
Tb80 O102 2.399 1_554 S
Tb81 O91 2.322 . S
Tb81 O92 2.349 . S
Tb81 O94 2.415 . S
Tb81 O95 2.399 . S
Tb81 O96 2.325 . S
Tb81 O99 2.303 . S
Tb81 C110 2.764 . S
C82 O98 1.261 . S
C82 O99 1.257 . S
C83 C86 1.358 . S
C83 C87 1.332 . S
C83 C89 1.504 . S
C84 C85 1.373 . S
C84 C88 1.308 . S
C85 C84 1.373 . S
C85 C86 1.429 . S
C85 H112 0.932 . S
C86 C83 1.358 . S
C86 C85 1.429 . S
C86 H113 0.930 . S
C87 C83 1.332 . S
C87 C88 1.394 . S
C87 H114 0.932 . S
C88 C84 1.308 . S
C88 C87 1.394 . S
C88 H115 0.929 . S
C89 Tb80 2.764 1_556 S
C89 C83 1.504 . S
C89 O101 1.239 . S
C89 O102 1.263 . S
O90 Tb80 2.325 . S
O90 C100 1.236 . S
O91 Tb81 2.322 . S
O91 C100 1.257 . S
O92 Tb81 2.349 . S
O92 C103 1.261 . S
O93 Tb80 2.303 . S
O93 C103 1.257 . S
O94 Tb81 2.415 . S
O94 C110 1.239 . S
O95 Tb81 2.399 . S
O95 C110 1.263 . S
O96 Tb81 2.325 . S
O96 C111 1.236 . S
O97 Tb80 2.322 . S
O97 C111 1.257 . S
O98 Tb80 2.349 . S
O98 C82 1.261 . S
O99 Tb81 2.303 . S
O99 C82 1.257 . S
C100 O90 1.236 . S
C100 O91 1.257 . S
O101 Tb80 2.415 1_556 S
O101 C89 1.239 . S
O102 Tb80 2.399 1_556 S
O102 C89 1.263 . S
C103 O92 1.261 . S
C103 O93 1.257 . S
C104 C107 1.358 . S
C104 C108 1.332 . S
C104 C110 1.504 . S
C105 C106 1.373 . S
C105 C109 1.308 . S
C106 C105 1.373 . S
C106 C107 1.429 . S
C106 H116 0.932 . S
C107 C104 1.358 . S
C107 C106 1.429 . S
C107 H117 0.930 . S
C108 C104 1.332 . S
C108 C109 1.394 . S
C108 H118 0.932 . S
C109 C105 1.308 . S
C109 C108 1.394 . S
C109 H119 0.929 . S
C110 Tb81 2.764 . S
C110 O94 1.239 . S
C110 O95 1.263 . S
C110 C104 1.504 . S
C111 O96 1.236 . S
C111 O97 1.257 . S
H112 C85 0.932 . S
H113 C86 0.930 . S
H114 C87 0.932 . S
H115 C88 0.929 . S
H116 C106 0.932 . S
H117 C107 0.930 . S
H118 C108 0.932 . S
H119 C109 0.929 . S
Tb120 C129 2.764 . S
Tb120 O130 2.325 . S
Tb120 O133 2.303 . S
Tb120 O137 2.322 . S
Tb120 O138 2.349 . S
Tb120 O141 2.415 . S
Tb120 O142 2.399 . S
Tb121 O131 2.322 . S
Tb121 O132 2.349 . S
Tb121 O134 2.415 1_556 S
Tb121 O135 2.399 1_556 S
Tb121 O136 2.325 . S
Tb121 O139 2.303 . S
Tb121 C150 2.764 1_556 S
C122 O138 1.261 . S
C122 O139 1.257 . S
C123 C126 1.358 . S
C123 C127 1.332 . S
C123 C129 1.504 . S
C124 C125 1.373 . S
C124 C128 1.308 . S
C125 C124 1.373 . S
C125 C126 1.429 . S
C125 H152 0.932 . S
C126 C123 1.358 . S
C126 C125 1.429 . S
C126 H153 0.930 . S
C127 C123 1.332 . S
C127 C128 1.394 . S
C127 H154 0.932 . S
C128 C124 1.308 . S
C128 C127 1.394 . S
C128 H155 0.929 . S
C129 Tb120 2.764 . S
C129 C123 1.504 . S
C129 O141 1.239 . S
C129 O142 1.263 . S
O130 Tb120 2.325 . S
O130 C140 1.236 . S
O131 Tb121 2.322 . S
O131 C140 1.257 . S
O132 Tb121 2.349 . S
O132 C143 1.261 . S
O133 Tb120 2.303 . S
O133 C143 1.257 . S
O134 Tb121 2.415 1_554 S
O134 C150 1.239 . S
O135 Tb121 2.399 1_554 S
O135 C150 1.263 . S
O136 Tb121 2.325 . S
O136 C151 1.236 . S
O137 Tb120 2.322 . S
O137 C151 1.257 . S
O138 Tb120 2.349 . S
O138 C122 1.261 . S
O139 Tb121 2.303 . S
O139 C122 1.257 . S
C140 O130 1.236 . S
C140 O131 1.257 . S
O141 Tb120 2.415 . S
O141 C129 1.239 . S
O142 Tb120 2.399 . S
O142 C129 1.263 . S
C143 O132 1.261 . S
C143 O133 1.257 . S
C144 C147 1.358 . S
C144 C148 1.332 . S
C144 C150 1.504 . S
C145 C146 1.373 . S
C145 C149 1.308 . S
C146 C145 1.373 . S
C146 C147 1.429 . S
C146 H156 0.932 . S
C147 C144 1.358 . S
C147 C146 1.429 . S
C147 H157 0.930 . S
C148 C144 1.332 . S
C148 C149 1.394 . S
C148 H158 0.932 . S
C149 C145 1.308 . S
C149 C148 1.394 . S
C149 H159 0.929 . S
C150 Tb121 2.764 1_554 S
C150 O134 1.239 . S
C150 O135 1.263 . S
C150 C144 1.504 . S
C151 O136 1.236 . S
C151 O137 1.257 . S
H152 C125 0.932 . S
H153 C126 0.930 . S
H154 C127 0.932 . S
H155 C128 0.929 . S
H156 C146 0.932 . S
H157 C147 0.930 . S
H158 C148 0.932 . S
H159 C149 0.929 . S
Tb160 C169 2.764 . S
Tb160 O170 2.325 . S
Tb160 O173 2.303 . S
Tb160 O177 2.322 . S
Tb160 O178 2.349 . S
Tb160 O181 2.415 . S
Tb160 O182 2.399 . S
Tb161 O171 2.322 . S
Tb161 O172 2.349 . S
Tb161 O174 2.415 1_554 S
Tb161 O175 2.399 1_554 S
Tb161 O176 2.325 . S
Tb161 O179 2.303 . S
Tb161 C190 2.764 1_554 S
C162 O178 1.261 . S
C162 O179 1.257 . S
C163 C166 1.358 . S
C163 C167 1.332 . S
C163 C169 1.504 . S
C164 C165 1.373 . S
C164 C168 1.308 . S
C165 C164 1.373 . S
C165 C166 1.429 . S
C165 H192 0.932 . S
C166 C163 1.358 . S
C166 C165 1.429 . S
C166 H193 0.930 . S
C167 C163 1.332 . S
C167 C168 1.394 . S
C167 H194 0.932 . S
C168 C164 1.308 . S
C168 C167 1.394 . S
C168 H195 0.929 . S
C169 Tb160 2.764 . S
C169 C163 1.504 . S
C169 O181 1.239 . S
C169 O182 1.263 . S
O170 Tb160 2.325 . S
O170 C180 1.236 . S
O171 Tb161 2.322 . S
O171 C180 1.257 . S
O172 Tb161 2.349 . S
O172 C183 1.261 . S
O173 Tb160 2.303 . S
O173 C183 1.257 . S
O174 Tb161 2.415 1_556 S
O174 C190 1.239 . S
O175 Tb161 2.399 1_556 S
O175 C190 1.263 . S
O176 Tb161 2.325 . S
O176 C191 1.236 . S
O177 Tb160 2.322 . S
O177 C191 1.257 . S
O178 Tb160 2.349 . S
O178 C162 1.261 . S
O179 Tb161 2.303 . S
O179 C162 1.257 . S
C180 O170 1.236 . S
C180 O171 1.257 . S
O181 Tb160 2.415 . S
O181 C169 1.239 . S
O182 Tb160 2.399 . S
O182 C169 1.263 . S
C183 O172 1.261 . S
C183 O173 1.257 . S
C184 C187 1.358 . S
C184 C188 1.332 . S
C184 C190 1.504 . S
C185 C186 1.373 . S
C185 C189 1.308 . S
C186 C185 1.373 . S
C186 C187 1.429 . S
C186 H196 0.932 . S
C187 C184 1.358 . S
C187 C186 1.429 . S
C187 H197 0.930 . S
C188 C184 1.332 . S
C188 C189 1.394 . S
C188 H198 0.932 . S
C189 C185 1.308 . S
C189 C188 1.394 . S
C189 H199 0.929 . S
C190 Tb161 2.764 1_556 S
C190 O174 1.239 . S
C190 O175 1.263 . S
C190 C184 1.504 . S
C191 O176 1.236 . S
C191 O177 1.257 . S
H192 C165 0.932 . S
H193 C166 0.930 . S
H194 C167 0.932 . S
H195 C168 0.929 . S
H196 C186 0.932 . S
H197 C187 0.930 . S
H198 C188 0.932 . S
H199 C189 0.929 . S
Tb200 C209 2.764 1_556 S
Tb200 O210 2.325 . S
Tb200 O213 2.303 . S
Tb200 O217 2.322 . S
Tb200 O218 2.349 . S
Tb200 O221 2.415 1_556 S
Tb200 O222 2.399 1_556 S
Tb201 O211 2.322 . S
Tb201 O212 2.349 . S
Tb201 O214 2.415 . S
Tb201 O215 2.399 . S
Tb201 O216 2.325 . S
Tb201 O219 2.303 . S
Tb201 C230 2.764 . S
C202 O218 1.261 . S
C202 O219 1.257 . S
C203 C206 1.358 . S
C203 C207 1.332 . S
C203 C209 1.504 . S
C204 C205 1.373 . S
C204 C208 1.308 . S
C205 C204 1.373 . S
C205 C206 1.429 . S
C205 H232 0.932 . S
C206 C203 1.358 . S
C206 C205 1.429 . S
C206 H233 0.930 . S
C207 C203 1.332 . S
C207 C208 1.394 . S
C207 H234 0.932 . S
C208 C204 1.308 . S
C208 C207 1.394 . S
C208 H235 0.929 . S
C209 Tb200 2.764 1_554 S
C209 C203 1.504 . S
C209 O221 1.239 . S
C209 O222 1.263 . S
O210 Tb200 2.325 . S
O210 C220 1.236 . S
O211 Tb201 2.322 . S
O211 C220 1.257 . S
O212 Tb201 2.349 . S
O212 C223 1.261 . S
O213 Tb200 2.303 . S
O213 C223 1.257 . S
O214 Tb201 2.415 . S
O214 C230 1.239 . S
O215 Tb201 2.399 . S
O215 C230 1.263 . S
O216 Tb201 2.325 . S
O216 C231 1.236 . S
O217 Tb200 2.322 . S
O217 C231 1.257 . S
O218 Tb200 2.349 . S
O218 C202 1.261 . S
O219 Tb201 2.303 . S
O219 C202 1.257 . S
C220 O210 1.236 . S
C220 O211 1.257 . S
O221 Tb200 2.415 1_554 S
O221 C209 1.239 . S
O222 Tb200 2.399 1_554 S
O222 C209 1.263 . S
C223 O212 1.261 . S
C223 O213 1.257 . S
C224 C227 1.358 . S
C224 C228 1.332 . S
C224 C230 1.504 . S
C225 C226 1.373 . S
C225 C229 1.308 . S
C226 C225 1.373 . S
C226 C227 1.429 . S
C226 H236 0.932 . S
C227 C224 1.358 . S
C227 C226 1.429 . S
C227 H237 0.930 . S
C228 C224 1.332 . S
C228 C229 1.394 . S
C228 H238 0.932 . S
C229 C225 1.308 . S
C229 C228 1.394 . S
C229 H239 0.929 . S
C230 Tb201 2.764 . S
C230 O214 1.239 . S
C230 O215 1.263 . S
C230 C224 1.504 . S
C231 O216 1.236 . S
C231 O217 1.257 . S
H232 C205 0.932 . S
H233 C206 0.930 . S
H234 C207 0.932 . S
H235 C208 0.929 . S
H236 C226 0.932 . S
H237 C227 0.930 . S
H238 C228 0.932 . S
H239 C229 0.929 . S
Tb240 C249 2.764 . S
Tb240 O250 2.325 . S
Tb240 O253 2.303 . S
Tb240 O257 2.322 . S
Tb240 O258 2.349 . S
Tb240 O261 2.415 . S
Tb240 O262 2.399 . S
Tb241 O251 2.322 . S
Tb241 O252 2.349 . S
Tb241 O254 2.415 1_554 S
Tb241 O255 2.399 1_554 S
Tb241 O256 2.325 . S
Tb241 O259 2.303 . S
Tb241 C270 2.764 1_554 S
C242 O258 1.261 . S
C242 O259 1.257 . S
C243 C246 1.358 . S
C243 C247 1.332 . S
C243 C249 1.504 . S
C244 C245 1.373 . S
C244 C248 1.308 . S
C245 C244 1.373 . S
C245 C246 1.429 . S
C245 H272 0.932 . S
C246 C243 1.358 . S
C246 C245 1.429 . S
C246 H273 0.930 . S
C247 C243 1.332 . S
C247 C248 1.394 . S
C247 H274 0.932 . S
C248 C244 1.308 . S
C248 C247 1.394 . S
C248 H275 0.929 . S
C249 Tb240 2.764 . S
C249 C243 1.504 . S
C249 O261 1.239 . S
C249 O262 1.263 . S
O250 Tb240 2.325 . S
O250 C260 1.236 . S
O251 Tb241 2.322 . S
O251 C260 1.257 . S
O252 Tb241 2.349 . S
O252 C263 1.261 . S
O253 Tb240 2.303 . S
O253 C263 1.257 . S
O254 Tb241 2.415 1_556 S
O254 C270 1.239 . S
O255 Tb241 2.399 1_556 S
O255 C270 1.263 . S
O256 Tb241 2.325 . S
O256 C271 1.236 . S
O257 Tb240 2.322 . S
O257 C271 1.257 . S
O258 Tb240 2.349 . S
O258 C242 1.261 . S
O259 Tb241 2.303 . S
O259 C242 1.257 . S
C260 O250 1.236 . S
C260 O251 1.257 . S
O261 Tb240 2.415 . S
O261 C249 1.239 . S
O262 Tb240 2.399 . S
O262 C249 1.263 . S
C263 O252 1.261 . S
C263 O253 1.257 . S
C264 C267 1.358 . S
C264 C268 1.332 . S
C264 C270 1.504 . S
C265 C266 1.373 . S
C265 C269 1.308 . S
C266 C265 1.373 . S
C266 C267 1.429 . S
C266 H276 0.932 . S
C267 C264 1.358 . S
C267 C266 1.429 . S
C267 H277 0.930 . S
C268 C264 1.332 . S
C268 C269 1.394 . S
C268 H278 0.932 . S
C269 C265 1.308 . S
C269 C268 1.394 . S
C269 H279 0.929 . S
C270 Tb241 2.764 1_556 S
C270 O254 1.239 . S
C270 O255 1.263 . S
C270 C264 1.504 . S
C271 O256 1.236 . S
C271 O257 1.257 . S
H272 C245 0.932 . S
H273 C246 0.930 . S
H274 C247 0.932 . S
H275 C248 0.929 . S
H276 C266 0.932 . S
H277 C267 0.930 . S
H278 C268 0.932 . S
H279 C269 0.929 . S
Tb280 C289 2.764 1_556 S
Tb280 O290 2.325 . S
Tb280 O293 2.303 . S
Tb280 O297 2.322 . S
Tb280 O298 2.349 . S
Tb280 O301 2.415 1_556 S
Tb280 O302 2.399 1_556 S
Tb281 O291 2.322 . S
Tb281 O292 2.349 . S
Tb281 O294 2.415 . S
Tb281 O295 2.399 . S
Tb281 O296 2.325 . S
Tb281 O299 2.303 . S
Tb281 C310 2.764 . S
C282 O298 1.261 . S
C282 O299 1.257 . S
C283 C286 1.358 . S
C283 C287 1.332 . S
C283 C289 1.504 . S
C284 C285 1.373 . S
C284 C288 1.308 . S
C285 C284 1.373 . S
C285 C286 1.429 . S
C285 H312 0.932 . S
C286 C283 1.358 . S
C286 C285 1.429 . S
C286 H313 0.930 . S
C287 C283 1.332 . S
C287 C288 1.394 . S
C287 H314 0.932 . S
C288 C284 1.308 . S
C288 C287 1.394 . S
C288 H315 0.929 . S
C289 Tb280 2.764 1_554 S
C289 C283 1.504 . S
C289 O301 1.239 . S
C289 O302 1.263 . S
O290 Tb280 2.325 . S
O290 C300 1.236 . S
O291 Tb281 2.322 . S
O291 C300 1.257 . S
O292 Tb281 2.349 . S
O292 C303 1.261 . S
O293 Tb280 2.303 . S
O293 C303 1.257 . S
O294 Tb281 2.415 . S
O294 C310 1.239 . S
O295 Tb281 2.399 . S
O295 C310 1.263 . S
O296 Tb281 2.325 . S
O296 C311 1.236 . S
O297 Tb280 2.322 . S
O297 C311 1.257 . S
O298 Tb280 2.349 . S
O298 C282 1.261 . S
O299 Tb281 2.303 . S
O299 C282 1.257 . S
C300 O290 1.236 . S
C300 O291 1.257 . S
O301 Tb280 2.415 1_554 S
O301 C289 1.239 . S
O302 Tb280 2.399 1_554 S
O302 C289 1.263 . S
C303 O292 1.261 . S
C303 O293 1.257 . S
C304 C307 1.358 . S
C304 C308 1.332 . S
C304 C310 1.504 . S
C305 C306 1.373 . S
C305 C309 1.308 . S
C306 C305 1.373 . S
C306 C307 1.429 . S
C306 H316 0.932 . S
C307 C304 1.358 . S
C307 C306 1.429 . S
C307 H317 0.930 . S
C308 C304 1.332 . S
C308 C309 1.394 . S
C308 H318 0.932 . S
C309 C305 1.308 . S
C309 C308 1.394 . S
C309 H319 0.929 . S
C310 Tb281 2.764 . S
C310 O294 1.239 . S
C310 O295 1.263 . S
C310 C304 1.504 . S
C311 O296 1.236 . S
C311 O297 1.257 . S
H312 C285 0.932 . S
H313 C286 0.930 . S
H314 C287 0.932 . S
H315 C288 0.929 . S
H316 C306 0.932 . S
H317 C307 0.930 . S
H318 C308 0.932 . S
H319 C309 0.929 . S
Tb320 C329 2.764 . S
Tb320 O330 2.325 . S
Tb320 O333 2.303 . S
Tb320 O337 2.322 . S
Tb320 O338 2.349 . S
Tb320 O341 2.415 . S
Tb320 O342 2.399 . S
Tb321 O331 2.322 . S
Tb321 O332 2.349 . S
Tb321 O334 2.415 . S
Tb321 O335 2.399 . S
Tb321 O336 2.325 . S
Tb321 O339 2.303 . S
Tb321 C350 2.764 . S
C322 O338 1.261 . S
C322 O339 1.257 . S
C323 C326 1.358 . S
C323 C327 1.332 . S
C323 C329 1.504 . S
C324 C325 1.373 . S
C324 C328 1.308 . S
C325 C324 1.373 . S
C325 C326 1.429 . S
C325 H352 0.932 . S
C326 C323 1.358 . S
C326 C325 1.429 . S
C326 H353 0.930 . S
C327 C323 1.332 . S
C327 C328 1.394 . S
C327 H354 0.932 . S
C328 C324 1.308 . S
C328 C327 1.394 . S
C328 H355 0.929 . S
C329 Tb320 2.764 . S
C329 C323 1.504 . S
C329 O341 1.239 . S
C329 O342 1.263 . S
O330 Tb320 2.325 . S
O330 C340 1.236 . S
O331 Tb321 2.322 . S
O331 C340 1.257 . S
O332 Tb321 2.349 . S
O332 C343 1.261 . S
O333 Tb320 2.303 . S
O333 C343 1.257 . S
O334 Tb321 2.415 . S
O334 C350 1.239 . S
O335 Tb321 2.399 . S
O335 C350 1.263 . S
O336 Tb321 2.325 . S
O336 C351 1.236 . S
O337 Tb320 2.322 . S
O337 C351 1.257 . S
O338 Tb320 2.349 . S
O338 C322 1.261 . S
O339 Tb321 2.303 . S
O339 C322 1.257 . S
C340 O330 1.236 . S
C340 O331 1.257 . S
O341 Tb320 2.415 . S
O341 C329 1.239 . S
O342 Tb320 2.399 . S
O342 C329 1.263 . S
C343 O332 1.261 . S
C343 O333 1.257 . S
C344 C347 1.358 . S
C344 C348 1.332 . S
C344 C350 1.504 . S
C345 C346 1.373 1_554 S
C345 C349 1.308 1_554 S
C346 C345 1.373 1_556 S
C346 C347 1.429 . S
C346 H356 0.932 1_556 S
C347 C344 1.358 . S
C347 C346 1.429 . S
C347 H357 0.930 . S
C348 C344 1.332 . S
C348 C349 1.394 . S
C348 H358 0.932 . S
C349 C345 1.308 1_556 S
C349 C348 1.394 . S
C349 H359 0.929 1_556 S
C350 Tb321 2.764 . S
C350 O334 1.239 . S
C350 O335 1.263 . S
C350 C344 1.504 . S
C351 O336 1.236 . S
C351 O337 1.257 . S
H352 C325 0.932 . S
H353 C326 0.930 . S
H354 C327 0.932 . S
H355 C328 0.929 . S
H356 C346 0.932 1_554 S
H357 C347 0.930 . S
H358 C348 0.932 . S
H359 C349 0.929 1_554 S
Tb360 C369 2.764 . S
Tb360 O370 2.325 . S
Tb360 O373 2.303 . S
Tb360 O377 2.322 . S
Tb360 O378 2.349 . S
Tb360 O381 2.415 . S
Tb360 O382 2.399 . S
Tb361 O371 2.322 . S
Tb361 O372 2.349 . S
Tb361 O374 2.415 . S
Tb361 O375 2.399 . S
Tb361 O376 2.325 . S
Tb361 O379 2.303 . S
Tb361 C390 2.764 . S
C362 O378 1.261 . S
C362 O379 1.257 . S
C363 C366 1.358 . S
C363 C367 1.332 . S
C363 C369 1.504 . S
C364 C365 1.373 1_556 S
C364 C368 1.308 1_556 S
C365 C364 1.373 1_554 S
C365 C366 1.429 . S
C365 H392 0.932 1_554 S
C366 C363 1.358 . S
C366 C365 1.429 . S
C366 H393 0.930 . S
C367 C363 1.332 . S
C367 C368 1.394 . S
C367 H394 0.932 . S
C368 C364 1.308 1_554 S
C368 C367 1.394 . S
C368 H395 0.929 1_554 S
C369 Tb360 2.764 . S
C369 C363 1.504 . S
C369 O381 1.239 . S
C369 O382 1.263 . S
O370 Tb360 2.325 . S
O370 C380 1.236 . S
O371 Tb361 2.322 . S
O371 C380 1.257 . S
O372 Tb361 2.349 . S
O372 C383 1.261 . S
O373 Tb360 2.303 . S
O373 C383 1.257 . S
O374 Tb361 2.415 . S
O374 C390 1.239 . S
O375 Tb361 2.399 . S
O375 C390 1.263 . S
O376 Tb361 2.325 . S
O376 C391 1.236 . S
O377 Tb360 2.322 . S
O377 C391 1.257 . S
O378 Tb360 2.349 . S
O378 C362 1.261 . S
O379 Tb361 2.303 . S
O379 C362 1.257 . S
C380 O370 1.236 . S
C380 O371 1.257 . S
O381 Tb360 2.415 . S
O381 C369 1.239 . S
O382 Tb360 2.399 . S
O382 C369 1.263 . S
C383 O372 1.261 . S
C383 O373 1.257 . S
C384 C387 1.358 . S
C384 C388 1.332 . S
C384 C390 1.504 . S
C385 C386 1.373 . S
C385 C389 1.308 . S
C386 C385 1.373 . S
C386 C387 1.429 . S
C386 H396 0.932 . S
C387 C384 1.358 . S
C387 C386 1.429 . S
C387 H397 0.930 . S
C388 C384 1.332 . S
C388 C389 1.394 . S
C388 H398 0.932 . S
C389 C385 1.308 . S
C389 C388 1.394 . S
C389 H399 0.929 . S
C390 Tb361 2.764 . S
C390 O374 1.239 . S
C390 O375 1.263 . S
C390 C384 1.504 . S
C391 O376 1.236 . S
C391 O377 1.257 . S
H392 C365 0.932 1_556 S
H393 C366 0.930 . S
H394 C367 0.932 . S
H395 C368 0.929 1_556 S
H396 C386 0.932 . S
H397 C387 0.930 . S
H398 C388 0.932 . S
H399 C389 0.929 . S
Tb400 C409 2.764 . S
Tb400 O410 2.325 . S
Tb400 O413 2.303 . S
Tb400 O417 2.322 . S
Tb400 O418 2.349 . S
Tb400 O421 2.415 . S
Tb400 O422 2.399 . S
Tb401 O411 2.322 . S
Tb401 O412 2.349 . S
Tb401 O414 2.415 . S
Tb401 O415 2.399 . S
Tb401 O416 2.325 . S
Tb401 O419 2.303 . S
Tb401 C430 2.764 . S
C402 O418 1.261 . S
C402 O419 1.257 . S
C403 C406 1.358 . S
C403 C407 1.332 . S
C403 C409 1.504 . S
C404 C405 1.373 . S
C404 C408 1.308 . S
C405 C404 1.373 . S
C405 C406 1.429 . S
C405 H432 0.932 . S
C406 C403 1.358 . S
C406 C405 1.429 . S
C406 H433 0.930 . S
C407 C403 1.332 . S
C407 C408 1.394 . S
C407 H434 0.932 . S
C408 C404 1.308 . S
C408 C407 1.394 . S
C408 H435 0.929 . S
C409 Tb400 2.764 . S
C409 C403 1.504 . S
C409 O421 1.239 . S
C409 O422 1.263 . S
O410 Tb400 2.325 . S
O410 C420 1.236 . S
O411 Tb401 2.322 . S
O411 C420 1.257 . S
O412 Tb401 2.349 . S
O412 C423 1.261 . S
O413 Tb400 2.303 . S
O413 C423 1.257 . S
O414 Tb401 2.415 . S
O414 C430 1.239 . S
O415 Tb401 2.399 . S
O415 C430 1.263 . S
O416 Tb401 2.325 . S
O416 C431 1.236 . S
O417 Tb400 2.322 . S
O417 C431 1.257 . S
O418 Tb400 2.349 . S
O418 C402 1.261 . S
O419 Tb401 2.303 . S
O419 C402 1.257 . S
C420 O410 1.236 . S
C420 O411 1.257 . S
O421 Tb400 2.415 . S
O421 C409 1.239 . S
O422 Tb400 2.399 . S
O422 C409 1.263 . S
C423 O412 1.261 . S
C423 O413 1.257 . S
C424 C427 1.358 . S
C424 C428 1.332 . S
C424 C430 1.504 . S
C425 C426 1.373 1_554 S
C425 C429 1.308 1_554 S
C426 C425 1.373 1_556 S
C426 C427 1.429 . S
C426 H436 0.932 1_556 S
C427 C424 1.358 . S
C427 C426 1.429 . S
C427 H437 0.930 . S
C428 C424 1.332 . S
C428 C429 1.394 . S
C428 H438 0.932 . S
C429 C425 1.308 1_556 S
C429 C428 1.394 . S
C429 H439 0.929 1_556 S
C430 Tb401 2.764 . S
C430 O414 1.239 . S
C430 O415 1.263 . S
C430 C424 1.504 . S
C431 O416 1.236 . S
C431 O417 1.257 . S
H432 C405 0.932 . S
H433 C406 0.930 . S
H434 C407 0.932 . S
H435 C408 0.929 . S
H436 C426 0.932 1_554 S
H437 C427 0.930 . S
H438 C428 0.932 . S
H439 C429 0.929 1_554 S
Tb440 C449 2.764 . S
Tb440 O450 2.325 . S
Tb440 O453 2.303 . S
Tb440 O457 2.322 . S
Tb440 O458 2.349 . S
Tb440 O461 2.415 . S
Tb440 O462 2.399 . S
Tb441 O451 2.322 . S
Tb441 O452 2.349 . S
Tb441 O454 2.415 . S
Tb441 O455 2.399 . S
Tb441 O456 2.325 . S
Tb441 O459 2.303 . S
Tb441 C470 2.764 . S
C442 O458 1.261 . S
C442 O459 1.257 . S
C443 C446 1.358 . S
C443 C447 1.332 . S
C443 C449 1.504 . S
C444 C445 1.373 1_556 S
C444 C448 1.308 1_556 S
C445 C444 1.373 1_554 S
C445 C446 1.429 . S
C445 H472 0.932 1_554 S
C446 C443 1.358 . S
C446 C445 1.429 . S
C446 H473 0.930 . S
C447 C443 1.332 . S
C447 C448 1.394 . S
C447 H474 0.932 . S
C448 C444 1.308 1_554 S
C448 C447 1.394 . S
C448 H475 0.929 1_554 S
C449 Tb440 2.764 . S
C449 C443 1.504 . S
C449 O461 1.239 . S
C449 O462 1.263 . S
O450 Tb440 2.325 . S
O450 C460 1.236 . S
O451 Tb441 2.322 . S
O451 C460 1.257 . S
O452 Tb441 2.349 . S
O452 C463 1.261 . S
O453 Tb440 2.303 . S
O453 C463 1.257 . S
O454 Tb441 2.415 . S
O454 C470 1.239 . S
O455 Tb441 2.399 . S
O455 C470 1.263 . S
O456 Tb441 2.325 . S
O456 C471 1.236 . S
O457 Tb440 2.322 . S
O457 C471 1.257 . S
O458 Tb440 2.349 . S
O458 C442 1.261 . S
O459 Tb441 2.303 . S
O459 C442 1.257 . S
C460 O450 1.236 . S
C460 O451 1.257 . S
O461 Tb440 2.415 . S
O461 C449 1.239 . S
O462 Tb440 2.399 . S
O462 C449 1.263 . S
C463 O452 1.261 . S
C463 O453 1.257 . S
C464 C467 1.358 . S
C464 C468 1.332 . S
C464 C470 1.504 . S
C465 C466 1.373 . S
C465 C469 1.308 . S
C466 C465 1.373 . S
C466 C467 1.429 . S
C466 H476 0.932 . S
C467 C464 1.358 . S
C467 C466 1.429 . S
C467 H477 0.930 . S
C468 C464 1.332 . S
C468 C469 1.394 . S
C468 H478 0.932 . S
C469 C465 1.308 . S
C469 C468 1.394 . S
C469 H479 0.929 . S
C470 Tb441 2.764 . S
C470 O454 1.239 . S
C470 O455 1.263 . S
C470 C464 1.504 . S
C471 O456 1.236 . S
C471 O457 1.257 . S
H472 C445 0.932 1_556 S
H473 C446 0.930 . S
H474 C447 0.932 . S
H475 C448 0.929 1_556 S
H476 C466 0.932 . S
H477 C467 0.930 . S
H478 C468 0.932 . S
H479 C469 0.929 . S
Tb480 C489 2.764 . S
Tb480 O490 2.325 . S
Tb480 O493 2.303 . S
Tb480 O497 2.322 . S
Tb480 O498 2.349 . S
Tb480 O501 2.415 . S
Tb480 O502 2.399 . S
Tb481 O491 2.322 . S
Tb481 O492 2.349 . S
Tb481 O494 2.415 . S
Tb481 O495 2.399 . S
Tb481 O496 2.325 . S
Tb481 O499 2.303 . S
Tb481 C510 2.764 . S
C482 O498 1.261 . S
C482 O499 1.257 . S
C483 C486 1.358 . S
C483 C487 1.332 . S
C483 C489 1.504 . S
C484 C485 1.373 1_554 S
C484 C488 1.308 1_554 S
C485 C484 1.373 1_556 S
C485 C486 1.429 . S
C485 H512 0.932 1_556 S
C486 C483 1.358 . S
C486 C485 1.429 . S
C486 H513 0.930 . S
C487 C483 1.332 . S
C487 C488 1.394 . S
C487 H514 0.932 . S
C488 C484 1.308 1_556 S
C488 C487 1.394 . S
C488 H515 0.929 1_556 S
C489 Tb480 2.764 . S
C489 C483 1.504 . S
C489 O501 1.239 . S
C489 O502 1.263 . S
O490 Tb480 2.325 . S
O490 C500 1.236 . S
O491 Tb481 2.322 . S
O491 C500 1.257 . S
O492 Tb481 2.349 . S
O492 C503 1.261 . S
O493 Tb480 2.303 . S
O493 C503 1.257 . S
O494 Tb481 2.415 . S
O494 C510 1.239 . S
O495 Tb481 2.399 . S
O495 C510 1.263 . S
O496 Tb481 2.325 . S
O496 C511 1.236 . S
O497 Tb480 2.322 . S
O497 C511 1.257 . S
O498 Tb480 2.349 . S
O498 C482 1.261 . S
O499 Tb481 2.303 . S
O499 C482 1.257 . S
C500 O490 1.236 . S
C500 O491 1.257 . S
O501 Tb480 2.415 . S
O501 C489 1.239 . S
O502 Tb480 2.399 . S
O502 C489 1.263 . S
C503 O492 1.261 . S
C503 O493 1.257 . S
C504 C507 1.358 . S
C504 C508 1.332 . S
C504 C510 1.504 . S
C505 C506 1.373 . S
C505 C509 1.308 . S
C506 C505 1.373 . S
C506 C507 1.429 . S
C506 H516 0.932 . S
C507 C504 1.358 . S
C507 C506 1.429 . S
C507 H517 0.930 . S
C508 C504 1.332 . S
C508 C509 1.394 . S
C508 H518 0.932 . S
C509 C505 1.308 . S
C509 C508 1.394 . S
C509 H519 0.929 . S
C510 Tb481 2.764 . S
C510 O494 1.239 . S
C510 O495 1.263 . S
C510 C504 1.504 . S
C511 O496 1.236 . S
C511 O497 1.257 . S
H512 C485 0.932 1_554 S
H513 C486 0.930 . S
H514 C487 0.932 . S
H515 C488 0.929 1_554 S
H516 C506 0.932 . S
H517 C507 0.930 . S
H518 C508 0.932 . S
H519 C509 0.929 . S
Tb520 C529 2.764 . S
Tb520 O530 2.325 . S
Tb520 O533 2.303 . S
Tb520 O537 2.322 . S
Tb520 O538 2.349 . S
Tb520 O541 2.415 . S
Tb520 O542 2.399 . S
Tb521 O531 2.322 . S
Tb521 O532 2.349 . S
Tb521 O534 2.415 . S
Tb521 O535 2.399 . S
Tb521 O536 2.325 . S
Tb521 O539 2.303 . S
Tb521 C550 2.764 . S
C522 O538 1.261 . S
C522 O539 1.257 . S
C523 C526 1.358 . S
C523 C527 1.332 . S
C523 C529 1.504 . S
C524 C525 1.373 . S
C524 C528 1.308 . S
C525 C524 1.373 . S
C525 C526 1.429 . S
C525 H552 0.932 . S
C526 C523 1.358 . S
C526 C525 1.429 . S
C526 H553 0.930 . S
C527 C523 1.332 . S
C527 C528 1.394 . S
C527 H554 0.932 . S
C528 C524 1.308 . S
C528 C527 1.394 . S
C528 H555 0.929 . S
C529 Tb520 2.764 . S
C529 C523 1.504 . S
C529 O541 1.239 . S
C529 O542 1.263 . S
O530 Tb520 2.325 . S
O530 C540 1.236 . S
O531 Tb521 2.322 . S
O531 C540 1.257 . S
O532 Tb521 2.349 . S
O532 C543 1.261 . S
O533 Tb520 2.303 . S
O533 C543 1.257 . S
O534 Tb521 2.415 . S
O534 C550 1.239 . S
O535 Tb521 2.399 . S
O535 C550 1.263 . S
O536 Tb521 2.325 . S
O536 C551 1.236 . S
O537 Tb520 2.322 . S
O537 C551 1.257 . S
O538 Tb520 2.349 . S
O538 C522 1.261 . S
O539 Tb521 2.303 . S
O539 C522 1.257 . S
C540 O530 1.236 . S
C540 O531 1.257 . S
O541 Tb520 2.415 . S
O541 C529 1.239 . S
O542 Tb520 2.399 . S
O542 C529 1.263 . S
C543 O532 1.261 . S
C543 O533 1.257 . S
C544 C547 1.358 . S
C544 C548 1.332 . S
C544 C550 1.504 . S
C545 C546 1.373 1_556 S
C545 C549 1.308 1_556 S
C546 C545 1.373 1_554 S
C546 C547 1.429 . S
C546 H556 0.932 1_554 S
C547 C544 1.358 . S
C547 C546 1.429 . S
C547 H557 0.930 . S
C548 C544 1.332 . S
C548 C549 1.394 . S
C548 H558 0.932 . S
C549 C545 1.308 1_554 S
C549 C548 1.394 . S
C549 H559 0.929 1_554 S
C550 Tb521 2.764 . S
C550 O534 1.239 . S
C550 O535 1.263 . S
C550 C544 1.504 . S
C551 O536 1.236 . S
C551 O537 1.257 . S
H552 C525 0.932 . S
H553 C526 0.930 . S
H554 C527 0.932 . S
H555 C528 0.929 . S
H556 C546 0.932 1_556 S
H557 C547 0.930 . S
H558 C548 0.932 . S
H559 C549 0.929 1_556 S
Tb560 C569 2.764 . S
Tb560 O570 2.325 . S
Tb560 O573 2.303 . S
Tb560 O577 2.322 . S
Tb560 O578 2.349 . S
Tb560 O581 2.415 . S
Tb560 O582 2.399 . S
Tb561 O571 2.322 . S
Tb561 O572 2.349 . S
Tb561 O574 2.415 . S
Tb561 O575 2.399 . S
Tb561 O576 2.325 . S
Tb561 O579 2.303 . S
Tb561 C590 2.764 . S
C562 O578 1.261 . S
C562 O579 1.257 . S
C563 C566 1.358 . S
C563 C567 1.332 . S
C563 C569 1.504 . S
C564 C565 1.373 1_554 S
C564 C568 1.308 1_554 S
C565 C564 1.373 1_556 S
C565 C566 1.429 . S
C565 H592 0.932 1_556 S
C566 C563 1.358 . S
C566 C565 1.429 . S
C566 H593 0.930 . S
C567 C563 1.332 . S
C567 C568 1.394 . S
C567 H594 0.932 . S
C568 C564 1.308 1_556 S
C568 C567 1.394 . S
C568 H595 0.929 1_556 S
C569 Tb560 2.764 . S
C569 C563 1.504 . S
C569 O581 1.239 . S
C569 O582 1.263 . S
O570 Tb560 2.325 . S
O570 C580 1.236 . S
O571 Tb561 2.322 . S
O571 C580 1.257 . S
O572 Tb561 2.349 . S
O572 C583 1.261 . S
O573 Tb560 2.303 . S
O573 C583 1.257 . S
O574 Tb561 2.415 . S
O574 C590 1.239 . S
O575 Tb561 2.399 . S
O575 C590 1.263 . S
O576 Tb561 2.325 . S
O576 C591 1.236 . S
O577 Tb560 2.322 . S
O577 C591 1.257 . S
O578 Tb560 2.349 . S
O578 C562 1.261 . S
O579 Tb561 2.303 . S
O579 C562 1.257 . S
C580 O570 1.236 . S
C580 O571 1.257 . S
O581 Tb560 2.415 . S
O581 C569 1.239 . S
O582 Tb560 2.399 . S
O582 C569 1.263 . S
C583 O572 1.261 . S
C583 O573 1.257 . S
C584 C587 1.358 . S
C584 C588 1.332 . S
C584 C590 1.504 . S
C585 C586 1.373 . S
C585 C589 1.308 . S
C586 C585 1.373 . S
C586 C587 1.429 . S
C586 H596 0.932 . S
C587 C584 1.358 . S
C587 C586 1.429 . S
C587 H597 0.930 . S
C588 C584 1.332 . S
C588 C589 1.394 . S
C588 H598 0.932 . S
C589 C585 1.308 . S
C589 C588 1.394 . S
C589 H599 0.929 . S
C590 Tb561 2.764 . S
C590 O574 1.239 . S
C590 O575 1.263 . S
C590 C584 1.504 . S
C591 O576 1.236 . S
C591 O577 1.257 . S
H592 C565 0.932 1_554 S
H593 C566 0.930 . S
H594 C567 0.932 . S
H595 C568 0.929 1_554 S
H596 C586 0.932 . S
H597 C587 0.930 . S
H598 C588 0.932 . S
H599 C589 0.929 . S
Tb600 C609 2.764 . S
Tb600 O610 2.325 . S
Tb600 O613 2.303 . S
Tb600 O617 2.322 . S
Tb600 O618 2.349 . S
Tb600 O621 2.415 . S
Tb600 O622 2.399 . S
Tb601 O611 2.322 . S
Tb601 O612 2.349 . S
Tb601 O614 2.415 . S
Tb601 O615 2.399 . S
Tb601 O616 2.325 . S
Tb601 O619 2.303 . S
Tb601 C630 2.764 . S
C602 O618 1.261 . S
C602 O619 1.257 . S
C603 C606 1.358 . S
C603 C607 1.332 . S
C603 C609 1.504 . S
C604 C605 1.373 . S
C604 C608 1.308 . S
C605 C604 1.373 . S
C605 C606 1.429 . S
C605 H632 0.932 . S
C606 C603 1.358 . S
C606 C605 1.429 . S
C606 H633 0.930 . S
C607 C603 1.332 . S
C607 C608 1.394 . S
C607 H634 0.932 . S
C608 C604 1.308 . S
C608 C607 1.394 . S
C608 H635 0.929 . S
C609 Tb600 2.764 . S
C609 C603 1.504 . S
C609 O621 1.239 . S
C609 O622 1.263 . S
O610 Tb600 2.325 . S
O610 C620 1.236 . S
O611 Tb601 2.322 . S
O611 C620 1.257 . S
O612 Tb601 2.349 . S
O612 C623 1.261 . S
O613 Tb600 2.303 . S
O613 C623 1.257 . S
O614 Tb601 2.415 . S
O614 C630 1.239 . S
O615 Tb601 2.399 . S
O615 C630 1.263 . S
O616 Tb601 2.325 . S
O616 C631 1.236 . S
O617 Tb600 2.322 . S
O617 C631 1.257 . S
O618 Tb600 2.349 . S
O618 C602 1.261 . S
O619 Tb601 2.303 . S
O619 C602 1.257 . S
C620 O610 1.236 . S
C620 O611 1.257 . S
O621 Tb600 2.415 . S
O621 C609 1.239 . S
O622 Tb600 2.399 . S
O622 C609 1.263 . S
C623 O612 1.261 . S
C623 O613 1.257 . S
C624 C627 1.358 . S
C624 C628 1.332 . S
C624 C630 1.504 . S
C625 C626 1.373 1_556 S
C625 C629 1.308 1_556 S
C626 C625 1.373 1_554 S
C626 C627 1.429 . S
C626 H636 0.932 1_554 S
C627 C624 1.358 . S
C627 C626 1.429 . S
C627 H637 0.930 . S
C628 C624 1.332 . S
C628 C629 1.394 . S
C628 H638 0.932 . S
C629 C625 1.308 1_554 S
C629 C628 1.394 . S
C629 H639 0.929 1_554 S
C630 Tb601 2.764 . S
C630 O614 1.239 . S
C630 O615 1.263 . S
C630 C624 1.504 . S
C631 O616 1.236 . S
C631 O617 1.257 . S
H632 C605 0.932 . S
H633 C606 0.930 . S
H634 C607 0.932 . S
H635 C608 0.929 . S
H636 C626 0.932 1_556 S
H637 C627 0.930 . S
H638 C628 0.932 . S
H639 C629 0.929 1_556 S
C640 C641 1.363 . S
C640 C646 1.379 . S
C640 N648 1.356 . S
C641 C640 1.363 . S
C641 C647 1.363 . S
C642 C643 1.363 . S
C642 C647 1.379 . S
C642 N649 1.356 . S
C643 C642 1.363 . S
C643 C646 1.363 . S
N644 C646 1.356 1_545 S
N644 H656 0.984 . S
N644 H657 0.985 . S
N645 C647 1.356 . S
N645 H650 0.984 . S
N645 H651 0.985 . S
C646 C640 1.379 . S
C646 C643 1.363 . S
C646 N644 1.356 1_565 S
C647 C641 1.363 . S
C647 C642 1.379 . S
C647 N645 1.356 . S
N648 C640 1.356 . S
N648 H654 0.984 . S
N648 H655 0.984 . S
N649 C642 1.356 . S
N649 H652 0.984 1_565 S
N649 H653 0.985 . S
H650 N645 0.984 . S
H651 N645 0.985 . S
H652 N649 0.984 1_545 S
H653 N649 0.985 . S
H654 N648 0.984 . S
H655 N648 0.984 . S
H656 N644 0.984 . S
H657 N644 0.985 . S
C658 C659 1.363 . S
C658 C664 1.379 . S
C658 N666 1.356 . S
C659 C658 1.363 . S
C659 C665 1.363 . S
C660 C661 1.363 . S
C660 C665 1.379 . S
C660 N667 1.356 1_655 S
C661 C660 1.363 . S
C661 C664 1.363 . S
N662 C664 1.356 . S
N662 H674 0.984 . S
N662 H675 0.985 . S
N663 C665 1.356 . S
N663 H668 0.984 . S
N663 H669 0.985 . S
C664 C658 1.379 . S
C664 C661 1.363 . S
C664 N662 1.356 . S
C665 C659 1.363 . S
C665 C660 1.379 . S
C665 N663 1.356 . S
N666 C658 1.356 . S
N666 H672 0.984 . S
N666 H673 0.984 . S
N667 C660 1.356 1_455 S
N667 H670 0.984 . S
N667 H671 0.985 . S
H668 N663 0.984 . S
H669 N663 0.985 . S
H670 N667 0.984 . S
H671 N667 0.985 . S
H672 N666 0.984 . S
H673 N666 0.984 . S
H674 N662 0.984 . S
H675 N662 0.985 . S
C676 C677 1.363 . S
C676 C682 1.379 . S
C676 N684 1.356 . S
C677 C676 1.363 . S
C677 C683 1.363 . S
C678 C679 1.363 . S
C678 C683 1.379 . S
C678 N685 1.356 . S
C679 C678 1.363 . S
C679 C682 1.363 . S
N680 C682 1.356 . S
N680 H692 0.984 . S
N680 H693 0.985 . S
N681 C683 1.356 1_565 S
N681 H686 0.984 . S
N681 H687 0.985 . S
C682 C676 1.379 . S
C682 C679 1.363 . S
C682 N680 1.356 . S
C683 C677 1.363 . S
C683 C678 1.379 . S
C683 N681 1.356 1_545 S
N684 C676 1.356 . S
N684 H690 0.984 . S
N684 H691 0.984 1_545 S
N685 C678 1.356 . S
N685 H688 0.984 . S
N685 H689 0.985 . S
H686 N681 0.984 . S
H687 N681 0.985 . S
H688 N685 0.984 . S
H689 N685 0.985 . S
H690 N684 0.984 . S
H691 N684 0.984 1_565 S
H692 N680 0.984 . S
H693 N680 0.985 . S
C694 C695 1.363 . S
C694 C700 1.379 . S
C694 N702 1.356 . S
C695 C694 1.363 . S
C695 C701 1.363 . S
C696 C697 1.363 . S
C696 C701 1.379 . S
C696 N703 1.356 . S
C697 C696 1.363 . S
C697 C700 1.363 . S
N698 C700 1.356 . S
N698 H710 0.984 . S
N698 H711 0.985 . S
N699 C701 1.356 1_655 S
N699 H704 0.984 . S
N699 H705 0.985 . S
C700 C694 1.379 . S
C700 C697 1.363 . S
C700 N698 1.356 . S
C701 C695 1.363 . S
C701 C696 1.379 . S
C701 N699 1.356 1_455 S
N702 C694 1.356 . S
N702 H708 0.984 . S
N702 H709 0.984 . S
N703 C696 1.356 . S
N703 H706 0.984 . S
N703 H707 0.985 . S
H704 N699 0.984 . S
H705 N699 0.985 . S
H706 N703 0.984 . S
H707 N703 0.985 . S
H708 N702 0.984 . S
H709 N702 0.984 . S
H710 N698 0.984 . S
H711 N698 0.985 . S
C712 C713 1.363 . S
C712 C718 1.379 . S
C712 N720 1.356 . S
C713 C712 1.363 . S
C713 C719 1.363 . S
C714 C715 1.363 . S
C714 C719 1.379 1_556 S
C714 N721 1.356 . S
C715 C714 1.363 . S
C715 C718 1.363 1_556 S
N716 C718 1.356 . S
N716 H728 0.984 . S
N716 H729 0.985 . S
N717 C719 1.355 1_556 S
N717 H722 0.976 1_556 S
N717 H723 0.995 . S
C718 C712 1.379 . S
C718 C715 1.363 1_554 S
C718 N716 1.356 . S
C719 C713 1.363 . S
C719 C714 1.379 1_554 S
C719 N717 1.355 1_554 S
N720 C712 1.356 . S
N720 H726 0.984 . S
N720 H727 0.984 . S
N721 C714 1.356 . S
N721 H724 0.984 . S
N721 H725 0.985 . S
H722 N717 0.976 1_554 S
H723 N717 0.995 . S
H724 N721 0.984 . S
H725 N721 0.985 . S
H726 N720 0.984 . S
H727 N720 0.984 . S
H728 N716 0.984 . S
H729 N716 0.985 . S
C730 C731 1.363 1_556 S
C730 C736 1.379 . S
C730 N738 1.356 . S
C731 C730 1.363 1_554 S
C731 C737 1.363 . S
C732 C733 1.363 . S
C732 C737 1.379 1_556 S
C732 N739 1.356 . S
C733 C732 1.363 . S
C733 C736 1.363 . S
N734 C736 1.356 . S
N734 H746 0.984 . S
N734 H747 0.985 . S
N735 C737 1.356 . S
N735 H740 0.984 . S
N735 H741 0.985 . S
C736 C730 1.379 . S
C736 C733 1.363 . S
C736 N734 1.356 . S
C737 C731 1.363 . S
C737 C732 1.379 1_554 S
C737 N735 1.356 . S
N738 C730 1.356 . S
N738 H744 0.984 . S
N738 H745 0.984 . S
N739 C732 1.356 . S
N739 H742 0.984 . S
N739 H743 0.985 1_556 S
H740 N735 0.984 . S
H741 N735 0.985 . S
H742 N739 0.984 . S
H743 N739 0.985 1_554 S
H744 N738 0.984 . S
H745 N738 0.984 . S
H746 N734 0.984 . S
H747 N734 0.985 . S
C748 C749 1.363 . S
C748 C754 1.379 . S
C748 N756 1.356 . S
C749 C748 1.363 . S
C749 C755 1.363 . S
C750 C751 1.363 . S
C750 C755 1.379 1_556 S
C750 N757 1.356 . S
C751 C750 1.363 . S
C751 C754 1.363 1_556 S
N752 C754 1.356 . S
N752 H764 0.984 . S
N752 H765 0.985 1_554 S
N753 C755 1.356 . S
N753 H758 0.984 . S
N753 H759 0.985 . S
C754 C748 1.379 . S
C754 C751 1.363 1_554 S
C754 N752 1.356 . S
C755 C749 1.363 . S
C755 C750 1.379 1_554 S
C755 N753 1.356 . S
N756 C748 1.356 . S
N756 H762 0.984 . S
N756 H763 0.984 . S
N757 C750 1.356 . S
N757 H760 0.984 . S
N757 H761 0.985 . S
H758 N753 0.984 . S
H759 N753 0.985 . S
H760 N757 0.984 . S
H761 N757 0.985 . S
H762 N756 0.984 . S
H763 N756 0.984 . S
H764 N752 0.984 . S
H765 N752 0.985 1_556 S
C766 C767 1.363 . S
C766 C772 1.379 1_554 S
C766 N774 1.356 . S
C767 C766 1.363 . S
C767 C773 1.363 1_554 S
C768 C769 1.363 . S
C768 C773 1.379 . S
C768 N775 1.356 . S
C769 C768 1.363 . S
C769 C772 1.363 . S
N770 C772 1.356 . S
N770 H782 0.984 1_556 S
N770 H783 0.985 . S
N771 C773 1.356 . S
N771 H776 0.984 . S
N771 H777 0.985 . S
C772 C766 1.379 1_556 S
C772 C769 1.363 . S
C772 N770 1.356 . S
C773 C767 1.363 1_556 S
C773 C768 1.379 . S
C773 N771 1.356 . S
N774 C766 1.356 . S
N774 H780 0.984 . S
N774 H781 0.984 . S
N775 C768 1.356 . S
N775 H778 0.984 . S
N775 H779 0.985 . S
H776 N771 0.984 . S
H777 N771 0.985 . S
H778 N775 0.984 . S
H779 N775 0.985 . S
H780 N774 0.984 . S
H781 N774 0.984 . S
H782 N770 0.984 1_554 S
H783 N770 0.985 . S
C784 C785 1.363 . S
C784 C790 1.379 . S
C784 N792 1.356 . S
C785 C784 1.363 . S
C785 C791 1.363 . S
C786 C787 1.363 . S
C786 C791 1.379 . S
C786 N793 1.356 . S
C787 C786 1.363 . S
C787 C790 1.363 . S
N788 C790 1.356 . S
N788 H800 0.984 . S
N788 H801 0.985 . S
N789 C791 1.356 . S
N789 H794 0.984 . S
N789 H795 0.985 . S
C790 C784 1.379 . S
C790 C787 1.363 . S
C790 N788 1.356 . S
C791 C785 1.363 . S
C791 C786 1.379 . S
C791 N789 1.356 . S
N792 C784 1.356 . S
N792 H798 0.984 . S
N792 H799 0.984 . S
N793 C786 1.356 . S
N793 H796 0.984 . S
N793 H797 0.985 . S
H794 N789 0.984 . S
H795 N789 0.985 . S
H796 N793 0.984 . S
H797 N793 0.985 . S
H798 N792 0.984 . S
H799 N792 0.984 . S
H800 N788 0.984 . S
H801 N788 0.985 . S
C802 C803 1.363 . S
C802 C808 1.379 . S
C802 N810 1.356 . S
C803 C802 1.363 . S
C803 C809 1.363 . S
C804 C805 1.363 . S
C804 C809 1.379 . S
C804 N811 1.356 . S
C805 C804 1.363 . S
C805 C808 1.363 . S
N806 C808 1.356 . S
N806 H818 0.984 . S
N806 H819 0.985 . S
N807 C809 1.356 . S
N807 H812 0.984 . S
N807 H813 0.985 . S
C808 C802 1.379 . S
C808 C805 1.363 . S
C808 N806 1.356 . S
C809 C803 1.363 . S
C809 C804 1.379 . S
C809 N807 1.356 . S
N810 C802 1.356 . S
N810 H816 0.984 . S
N810 H817 0.984 . S
N811 C804 1.356 . S
N811 H814 0.984 . S
N811 H815 0.985 . S
H812 N807 0.984 . S
H813 N807 0.985 . S
H814 N811 0.984 . S
H815 N811 0.985 . S
H816 N810 0.984 . S
H817 N810 0.984 . S
H818 N806 0.984 . S
H819 N806 0.985 . S
C820 C821 1.363 . S
C820 C826 1.379 . S
C820 N828 1.356 . S
C821 C820 1.363 . S
C821 C827 1.363 . S
C822 C823 1.363 . S
C822 C827 1.379 . S
C822 N829 1.356 . S
C823 C822 1.363 . S
C823 C826 1.363 . S
N824 C826 1.356 . S
N824 H836 0.984 . S
N824 H837 0.985 . S
N825 C827 1.356 . S
N825 H830 0.984 . S
N825 H831 0.985 . S
C826 C820 1.379 . S
C826 C823 1.363 . S
C826 N824 1.356 . S
C827 C821 1.363 . S
C827 C822 1.379 . S
C827 N825 1.356 . S
N828 C820 1.356 . S
N828 H834 0.984 . S
N828 H835 0.984 . S
N829 C822 1.356 . S
N829 H832 0.984 . S
N829 H833 0.985 . S
H830 N825 0.984 . S
H831 N825 0.985 . S
H832 N829 0.984 . S
H833 N829 0.985 . S
H834 N828 0.984 . S
H835 N828 0.984 . S
H836 N824 0.984 . S
H837 N824 0.985 . S
C838 C839 1.363 . S
C838 C844 1.379 . S
C838 N846 1.356 . S
C839 C838 1.363 . S
C839 C845 1.363 . S
C840 C841 1.363 . S
C840 C845 1.379 . S
C840 N847 1.356 . S
C841 C840 1.363 . S
C841 C844 1.363 . S
N842 C844 1.356 . S
N842 H854 0.984 . S
N842 H855 0.985 . S
N843 C845 1.356 . S
N843 H848 0.984 . S
N843 H849 0.985 . S
C844 C838 1.379 . S
C844 C841 1.363 . S
C844 N842 1.356 . S
C845 C839 1.363 . S
C845 C840 1.379 . S
C845 N843 1.356 . S
N846 C838 1.356 . S
N846 H852 0.984 . S
N846 H853 0.984 . S
N847 C840 1.356 . S
N847 H850 0.984 . S
N847 H851 0.985 . S
H848 N843 0.984 . S
H849 N843 0.985 . S
H850 N847 0.984 . S
H851 N847 0.985 . S
H852 N846 0.984 . S
H853 N846 0.984 . S
H854 N842 0.984 . S
H855 N842 0.985 . S
C856 C857 1.363 . S
C856 C862 1.379 . S
C856 N864 1.356 1_545 S
C857 C856 1.363 . S
C857 C863 1.363 . S
C858 C859 1.363 . S
C858 C863 1.379 . S
C858 N865 1.356 . S
C859 C858 1.363 . S
C859 C862 1.363 . S
N860 C862 1.356 . S
N860 H872 0.984 . S
N860 H873 0.985 . S
N861 C863 1.356 . S
N861 H866 0.984 . S
N861 H867 0.985 . S
C862 C856 1.379 . S
C862 C859 1.363 . S
C862 N860 1.356 . S
C863 C857 1.363 . S
C863 C858 1.379 . S
C863 N861 1.356 . S
N864 C856 1.356 1_565 S
N864 H870 0.984 . S
N864 H871 0.984 . S
N865 C858 1.356 . S
N865 H868 0.984 . S
N865 H869 0.985 . S
H866 N861 0.984 . S
H867 N861 0.985 . S
H868 N865 0.984 . S
H869 N865 0.985 . S
H870 N864 0.984 . S
H871 N864 0.984 . S
H872 N860 0.984 . S
H873 N860 0.985 . S
C874 C875 1.363 . S
C874 C880 1.379 . S
C874 N882 1.356 . S
C875 C874 1.363 . S
C875 C881 1.363 . S
C876 C877 1.363 . S
C876 C881 1.379 . S
C876 N883 1.356 . S
C877 C876 1.363 . S
C877 C880 1.363 . S
N878 C880 1.356 1_655 S
N878 H890 0.984 . S
N878 H891 0.985 . S
N879 C881 1.356 . S
N879 H884 0.984 . S
N879 H885 0.985 . S
C880 C874 1.379 . S
C880 C877 1.363 . S
C880 N878 1.356 1_455 S
C881 C875 1.363 . S
C881 C876 1.379 . S
C881 N879 1.356 . S
N882 C874 1.356 . S
N882 H888 0.984 . S
N882 H889 0.984 . S
N883 C876 1.356 . S
N883 H886 0.984 . S
N883 H887 0.985 . S
H884 N879 0.984 . S
H885 N879 0.985 . S
H886 N883 0.984 . S
H887 N883 0.985 . S
H888 N882 0.984 . S
H889 N882 0.984 . S
H890 N878 0.984 . S
H891 N878 0.985 . S
C892 C893 1.363 . S
C892 C898 1.379 . S
C892 N900 1.356 . S
C893 C892 1.363 . S
C893 C899 1.363 . S
C894 C895 1.363 . S
C894 C899 1.379 . S
C894 N901 1.356 . S
C895 C894 1.363 . S
C895 C898 1.363 . S
N896 C898 1.356 1_545 S
N896 H908 0.984 . S
N896 H909 0.985 . S
N897 C899 1.356 . S
N897 H902 0.984 . S
N897 H903 0.985 . S
C898 C892 1.379 . S
C898 C895 1.363 . S
C898 N896 1.356 1_565 S
C899 C893 1.363 . S
C899 C894 1.379 . S
C899 N897 1.356 . S
N900 C892 1.356 . S
N900 H906 0.984 . S
N900 H907 0.984 . S
N901 C894 1.356 . S
N901 H904 0.984 1_565 S
N901 H905 0.985 . S
H902 N897 0.984 . S
H903 N897 0.985 . S
H904 N901 0.984 1_545 S
H905 N901 0.985 . S
H906 N900 0.984 . S
H907 N900 0.984 . S
H908 N896 0.984 . S
H909 N896 0.985 . S
C910 C911 1.363 . S
C910 C916 1.379 . S
C910 N918 1.356 . S
C911 C910 1.363 . S
C911 C917 1.363 . S
C912 C913 1.363 . S
C912 C917 1.379 . S
C912 N919 1.356 . S
C913 C912 1.363 . S
C913 C916 1.363 . S
N914 C916 1.356 . S
N914 H926 0.984 . S
N914 H927 0.985 . S
N915 C917 1.356 1_455 S
N915 H920 0.984 . S
N915 H921 0.985 . S
C916 C910 1.379 . S
C916 C913 1.363 . S
C916 N914 1.356 . S
C917 C911 1.363 . S
C917 C912 1.379 . S
C917 N915 1.356 1_655 S
N918 C910 1.356 . S
N918 H924 0.984 . S
N918 H925 0.984 1_655 S
N919 C912 1.356 . S
N919 H922 0.984 . S
N919 H923 0.985 . S
H920 N915 0.984 . S
H921 N915 0.985 . S
H922 N919 0.984 . S
H923 N919 0.985 . S
H924 N918 0.984 . S
H925 N918 0.984 1_455 S
H926 N914 0.984 . S
H927 N914 0.985 . S
C928 C929 1.363 . S
C928 C934 1.379 . S
C928 N936 1.356 . S
C929 C928 1.363 . S
C929 C935 1.363 . S
C930 C931 1.363 . S
C930 C935 1.379 . S
C930 N937 1.356 . S
C931 C930 1.363 . S
C931 C934 1.363 . S
N932 C934 1.356 . S
N932 H944 0.984 . S
N932 H945 0.985 . S
N933 C935 1.356 . S
N933 H938 0.984 . S
N933 H939 0.985 . S
C934 C928 1.379 . S
C934 C931 1.363 . S
C934 N932 1.356 . S
C935 C929 1.363 . S
C935 C930 1.379 . S
C935 N933 1.356 . S
N936 C928 1.356 . S
N936 H942 0.984 . S
N936 H943 0.984 . S
N937 C930 1.356 . S
N937 H940 0.984 . S
N937 H941 0.985 . S
H938 N933 0.984 . S
H939 N933 0.985 . S
H940 N937 0.984 . S
H941 N937 0.985 . S
H942 N936 0.984 . S
H943 N936 0.984 . S
H944 N932 0.984 . S
H945 N932 0.985 . S
C946 C947 1.363 . S
C946 C952 1.379 . S
C946 N954 1.356 . S
C947 C946 1.363 . S
C947 C953 1.363 . S
C948 C949 1.363 . S
C948 C953 1.379 . S
C948 N955 1.356 . S
C949 C948 1.363 . S
C949 C952 1.363 . S
N950 C952 1.356 . S
N950 H962 0.984 . S
N950 H963 0.985 . S
N951 C953 1.356 . S
N951 H956 0.984 . S
N951 H957 0.985 . S
C952 C946 1.379 . S
C952 C949 1.363 . S
C952 N950 1.356 . S
C953 C947 1.363 . S
C953 C948 1.379 . S
C953 N951 1.356 . S
N954 C946 1.356 . S
N954 H960 0.984 . S
N954 H961 0.984 . S
N955 C948 1.356 . S
N955 H958 0.984 . S
N955 H959 0.985 . S
H956 N951 0.984 . S
H957 N951 0.985 . S
H958 N955 0.984 . S
H959 N955 0.985 . S
H960 N954 0.984 . S
H961 N954 0.984 . S
H962 N950 0.984 . S
H963 N950 0.985 . S
C964 C965 1.363 . S
C964 C970 1.379 . S
C964 N972 1.356 . S
C965 C964 1.363 . S
C965 C971 1.363 . S
C966 C967 1.363 . S
C966 C971 1.379 . S
C966 N973 1.356 . S
C967 C966 1.363 . S
C967 C970 1.363 . S
N968 C970 1.356 . S
N968 H980 0.984 . S
N968 H981 0.985 . S
N969 C971 1.356 . S
N969 H974 0.984 . S
N969 H975 0.985 . S
C970 C964 1.379 . S
C970 C967 1.363 . S
C970 N968 1.356 . S
C971 C965 1.363 . S
C971 C966 1.379 . S
C971 N969 1.356 . S
N972 C964 1.356 . S
N972 H978 0.984 1_554 S
N972 H979 0.984 . S
N973 C966 1.356 . S
N973 H976 0.984 . S
N973 H977 0.985 . S
H974 N969 0.984 . S
H975 N969 0.985 . S
H976 N973 0.984 . S
H977 N973 0.985 . S
H978 N972 0.984 1_556 S
H979 N972 0.984 . S
H980 N968 0.984 . S
H981 N968 0.985 . S
C982 C983 1.363 . S
C982 C988 1.379 . S
C982 N990 1.356 . S
C983 C982 1.363 . S
C983 C989 1.363 . S
C984 C985 1.363 . S
C984 C989 1.379 . S
C984 N991 1.356 . S
C985 C984 1.363 . S
C985 C988 1.363 . S
N986 C988 1.356 . S
N986 H998 0.984 . S
N986 H999 0.985 . S
N987 C989 1.356 . S
N987 H992 0.984 . S
N987 H993 0.985 . S
C988 C982 1.379 . S
C988 C985 1.363 . S
C988 N986 1.356 . S
C989 C983 1.363 . S
C989 C984 1.379 . S
C989 N987 1.356 . S
N990 C982 1.356 . S
N990 H996 0.984 . S
N990 H997 0.984 . S
N991 C984 1.356 . S
N991 H994 0.984 . S
N991 H995 0.985 . S
H992 N987 0.984 . S
H993 N987 0.985 . S
H994 N991 0.984 . S
H995 N991 0.985 . S
H996 N990 0.984 . S
H997 N990 0.984 . S
H998 N986 0.984 . S
H999 N986 0.985 . S
C1000 C1001 1.363 . S
C1000 C1006 1.379 . S
C1000 N1008 1.356 . S
C1001 C1000 1.363 . S
C1001 C1007 1.363 . S
C1002 C1003 1.363 . S
C1002 C1007 1.379 . S
C1002 N1009 1.356 . S
C1003 C1002 1.363 . S
C1003 C1006 1.363 . S
N1004 C1006 1.356 . S
N1004 H1016 0.984 . S
N1004 H1017 0.985 . S
N1005 C1007 1.356 . S
N1005 H1010 0.984 . S
N1005 H1011 0.985 . S
C1006 C1000 1.379 . S
C1006 C1003 1.363 . S
C1006 N1004 1.356 . S
C1007 C1001 1.363 . S
C1007 C1002 1.379 . S
C1007 N1005 1.356 . S
N1008 C1000 1.356 . S
N1008 H1014 0.984 . S
N1008 H1015 0.984 . S
N1009 C1002 1.356 . S
N1009 H1012 0.984 . S
N1009 H1013 0.985 . S
H1010 N1005 0.984 . S
H1011 N1005 0.985 . S
H1012 N1009 0.984 . S
H1013 N1009 0.985 . S
H1014 N1008 0.984 . S
H1015 N1008 0.984 . S
H1016 N1004 0.984 . S
H1017 N1004 0.985 . S
C1018 C1019 1.363 . S
C1018 C1024 1.379 . S
C1018 N1026 1.356 . S
C1019 C1018 1.363 . S
C1019 C1025 1.363 . S
C1020 C1021 1.363 . S
C1020 C1025 1.379 . S
C1020 N1027 1.356 . S
C1021 C1020 1.363 . S
C1021 C1024 1.363 . S
N1022 C1024 1.356 . S
N1022 H1034 0.984 . S
N1022 H1035 0.985 . S
N1023 C1025 1.356 . S
N1023 H1028 0.984 . S
N1023 H1029 0.985 . S
C1024 C1018 1.379 . S
C1024 C1021 1.363 . S
C1024 N1022 1.356 . S
C1025 C1019 1.363 . S
C1025 C1020 1.379 . S
C1025 N1023 1.356 . S
N1026 C1018 1.356 . S
N1026 H1032 0.984 . S
N1026 H1033 0.984 . S
N1027 C1020 1.356 . S
N1027 H1030 0.984 . S
N1027 H1031 0.985 . S
H1028 N1023 0.984 . S
H1029 N1023 0.985 . S
H1030 N1027 0.984 . S
H1031 N1027 0.985 . S
H1032 N1026 0.984 . S
H1033 N1026 0.984 . S
H1034 N1022 0.984 . S
H1035 N1022 0.985 . S
C1036 C1037 1.363 . S
C1036 C1042 1.379 . S
C1036 N1044 1.356 . S
C1037 C1036 1.363 . S
C1037 C1043 1.363 . S
C1038 C1039 1.363 . S
C1038 C1043 1.379 . S
C1038 N1045 1.356 . S
C1039 C1038 1.363 . S
C1039 C1042 1.363 . S
N1040 C1042 1.356 . S
N1040 H1052 0.984 . S
N1040 H1053 0.985 . S
N1041 C1043 1.356 . S
N1041 H1046 0.984 . S
N1041 H1047 0.985 . S
C1042 C1036 1.379 . S
C1042 C1039 1.363 . S
C1042 N1040 1.356 . S
C1043 C1037 1.363 . S
C1043 C1038 1.379 . S
C1043 N1041 1.356 . S
N1044 C1036 1.356 . S
N1044 H1050 0.984 . S
N1044 H1051 0.984 . S
N1045 C1038 1.356 . S
N1045 H1048 0.984 . S
N1045 H1049 0.985 . S
H1046 N1041 0.984 . S
H1047 N1041 0.985 . S
H1048 N1045 0.984 . S
H1049 N1045 0.985 . S
H1050 N1044 0.984 . S
H1051 N1044 0.984 . S
H1052 N1040 0.984 . S
H1053 N1040 0.985 . S
C1054 C1055 1.363 . S
C1054 C1060 1.379 . S
C1054 N1062 1.356 . S
C1055 C1054 1.363 . S
C1055 C1061 1.363 . S
C1056 C1057 1.363 . S
C1056 C1061 1.379 . S
C1056 N1063 1.356 . S
C1057 C1056 1.363 . S
C1057 C1060 1.363 . S
N1058 C1060 1.356 . S
N1058 H1070 0.984 . S
N1058 H1071 0.985 . S
N1059 C1061 1.356 . S
N1059 H1064 0.984 . S
N1059 H1065 0.985 . S
C1060 C1054 1.379 . S
C1060 C1057 1.363 . S
C1060 N1058 1.356 . S
C1061 C1055 1.363 . S
C1061 C1056 1.379 . S
C1061 N1059 1.356 . S
N1062 C1054 1.356 . S
N1062 H1068 0.984 . S
N1062 H1069 0.984 . S
N1063 C1056 1.356 . S
N1063 H1066 0.984 . S
N1063 H1067 0.985 . S
H1064 N1059 0.984 . S
H1065 N1059 0.985 . S
H1066 N1063 0.984 . S
H1067 N1063 0.985 . S
H1068 N1062 0.984 . S
H1069 N1062 0.984 . S
H1070 N1058 0.984 . S
H1071 N1058 0.985 . S
C1072 C1073 1.363 . S
C1072 C1078 1.379 . S
C1072 N1080 1.356 . S
C1073 C1072 1.363 . S
C1073 C1079 1.363 . S
C1074 C1075 1.363 . S
C1074 C1079 1.379 . S
C1074 N1081 1.356 . S
C1075 C1074 1.363 . S
C1075 C1078 1.363 . S
N1076 C1078 1.356 . S
N1076 H1088 0.984 . S
N1076 H1089 0.985 . S
N1077 C1079 1.356 . S
N1077 H1082 0.984 . S
N1077 H1083 0.985 . S
C1078 C1072 1.379 . S
C1078 C1075 1.363 . S
C1078 N1076 1.356 . S
C1079 C1073 1.363 . S
C1079 C1074 1.379 . S
C1079 N1077 1.356 . S
N1080 C1072 1.356 . S
N1080 H1086 0.984 . S
N1080 H1087 0.984 . S
N1081 C1074 1.356 . S
N1081 H1084 0.984 . S
N1081 H1085 0.985 . S
H1082 N1077 0.984 . S
H1083 N1077 0.985 . S
H1084 N1081 0.984 . S
H1085 N1081 0.985 . S
H1086 N1080 0.984 . S
H1087 N1080 0.984 . S
H1088 N1076 0.984 . S
H1089 N1076 0.985 . S
C1090 C1091 1.363 . S
C1090 C1096 1.379 . S
C1090 N1098 1.356 . S
C1091 C1090 1.363 . S
C1091 C1097 1.363 . S
C1092 C1093 1.363 . S
C1092 C1097 1.379 . S
C1092 N1099 1.356 . S
C1093 C1092 1.363 . S
C1093 C1096 1.363 . S
N1094 C1096 1.356 . S
N1094 H1106 0.984 . S
N1094 H1107 0.985 . S
N1095 C1097 1.356 . S
N1095 H1100 0.984 . S
N1095 H1101 0.985 . S
C1096 C1090 1.379 . S
C1096 C1093 1.363 . S
C1096 N1094 1.356 . S
C1097 C1091 1.363 . S
C1097 C1092 1.379 . S
C1097 N1095 1.356 . S
N1098 C1090 1.356 . S
N1098 H1104 0.984 . S
N1098 H1105 0.984 . S
N1099 C1092 1.356 . S
N1099 H1102 0.984 . S
N1099 H1103 0.985 . S
H1100 N1095 0.984 . S
H1101 N1095 0.985 . S
H1102 N1099 0.984 . S
H1103 N1099 0.985 . S
H1104 N1098 0.984 . S
H1105 N1098 0.984 . S
H1106 N1094 0.984 . S
H1107 N1094 0.985 . S
C1108 C1109 1.363 . S
C1108 C1114 1.379 . S
C1108 N1116 1.356 . S
C1109 C1108 1.363 . S
C1109 C1115 1.363 . S
C1110 C1111 1.363 . S
C1110 C1115 1.379 . S
C1110 N1117 1.356 . S
C1111 C1110 1.363 . S
C1111 C1114 1.363 . S
N1112 C1114 1.356 . S
N1112 H1124 0.984 . S
N1112 H1125 0.985 . S
N1113 C1115 1.356 . S
N1113 H1118 0.984 . S
N1113 H1119 0.985 . S
C1114 C1108 1.379 . S
C1114 C1111 1.363 . S
C1114 N1112 1.356 . S
C1115 C1109 1.363 . S
C1115 C1110 1.379 . S
C1115 N1113 1.356 . S
N1116 C1108 1.356 . S
N1116 H1122 0.984 . S
N1116 H1123 0.984 . S
N1117 C1110 1.356 . S
N1117 H1120 0.984 . S
N1117 H1121 0.985 . S
H1118 N1113 0.984 . S
H1119 N1113 0.985 . S
H1120 N1117 0.984 . S
H1121 N1117 0.985 . S
H1122 N1116 0.984 . S
H1123 N1116 0.984 . S
H1124 N1112 0.984 . S
H1125 N1112 0.985 . S
C1126 C1127 1.363 . S
C1126 C1132 1.379 . S
C1126 N1134 1.356 . S
C1127 C1126 1.363 . S
C1127 C1133 1.363 . S
C1128 C1129 1.363 . S
C1128 C1133 1.379 . S
C1128 N1135 1.356 . S
C1129 C1128 1.363 . S
C1129 C1132 1.363 . S
N1130 C1132 1.356 . S
N1130 H1142 0.984 . S
N1130 H1143 0.985 . S
N1131 C1133 1.356 . S
N1131 H1136 0.984 . S
N1131 H1137 0.985 . S
C1132 C1126 1.379 . S
C1132 C1129 1.363 . S
C1132 N1130 1.356 . S
C1133 C1127 1.363 . S
C1133 C1128 1.379 . S
C1133 N1131 1.356 . S
N1134 C1126 1.356 . S
N1134 H1140 0.984 . S
N1134 H1141 0.984 . S
N1135 C1128 1.356 . S
N1135 H1138 0.984 . S
N1135 H1139 0.985 . S
H1136 N1131 0.984 . S
H1137 N1131 0.985 . S
H1138 N1135 0.984 . S
H1139 N1135 0.985 . S
H1140 N1134 0.984 . S
H1141 N1134 0.984 . S
H1142 N1130 0.984 . S
H1143 N1130 0.985 . S
C1144 C1145 1.363 . S
C1144 C1150 1.379 . S
C1144 N1152 1.356 . S
C1145 C1144 1.363 . S
C1145 C1151 1.363 . S
C1146 C1147 1.363 . S
C1146 C1151 1.379 . S
C1146 N1153 1.356 . S
C1147 C1146 1.363 . S
C1147 C1150 1.363 . S
N1148 C1150 1.356 . S
N1148 H1160 0.984 . S
N1148 H1161 0.985 . S
N1149 C1151 1.356 . S
N1149 H1154 0.984 . S
N1149 H1155 0.985 . S
C1150 C1144 1.379 . S
C1150 C1147 1.363 . S
C1150 N1148 1.356 . S
C1151 C1145 1.363 . S
C1151 C1146 1.379 . S
C1151 N1149 1.356 . S
N1152 C1144 1.356 . S
N1152 H1158 0.984 . S
N1152 H1159 0.984 . S
N1153 C1146 1.356 . S
N1153 H1156 0.984 . S
N1153 H1157 0.985 . S
H1154 N1149 0.984 . S
H1155 N1149 0.985 . S
H1156 N1153 0.984 . S
H1157 N1153 0.985 . S
H1158 N1152 0.984 . S
H1159 N1152 0.984 . S
H1160 N1148 0.984 . S
H1161 N1148 0.985 . S
C1162 C1163 1.363 . S
C1162 C1168 1.379 . S
C1162 N1170 1.356 . S
C1163 C1162 1.363 . S
C1163 C1169 1.363 . S
C1164 C1165 1.363 . S
C1164 C1169 1.379 . S
C1164 N1171 1.356 . S
C1165 C1164 1.363 . S
C1165 C1168 1.363 . S
N1166 C1168 1.356 . S
N1166 H1178 0.984 . S
N1166 H1179 0.985 . S
N1167 C1169 1.356 . S
N1167 H1172 0.984 . S
N1167 H1173 0.985 . S
C1168 C1162 1.379 . S
C1168 C1165 1.363 . S
C1168 N1166 1.356 . S
C1169 C1163 1.363 . S
C1169 C1164 1.379 . S
C1169 N1167 1.356 . S
N1170 C1162 1.356 . S
N1170 H1176 0.984 . S
N1170 H1177 0.984 . S
N1171 C1164 1.356 . S
N1171 H1174 0.984 . S
N1171 H1175 0.985 . S
H1172 N1167 0.984 . S
H1173 N1167 0.985 . S
H1174 N1171 0.984 . S
H1175 N1171 0.985 . S
H1176 N1170 0.984 . S
H1177 N1170 0.984 . S
H1178 N1166 0.984 . S
H1179 N1166 0.985 . S
C1180 C1181 1.363 . S
C1180 C1186 1.379 . S
C1180 N1188 1.356 . S
C1181 C1180 1.363 . S
C1181 C1187 1.363 . S
C1182 C1183 1.363 . S
C1182 C1187 1.379 . S
C1182 N1189 1.356 . S
C1183 C1182 1.363 . S
C1183 C1186 1.363 . S
N1184 C1186 1.356 . S
N1184 H1196 0.984 . S
N1184 H1197 0.985 . S
N1185 C1187 1.356 . S
N1185 H1190 0.984 . S
N1185 H1191 0.985 . S
C1186 C1180 1.379 . S
C1186 C1183 1.363 . S
C1186 N1184 1.356 . S
C1187 C1181 1.363 . S
C1187 C1182 1.379 . S
C1187 N1185 1.356 . S
N1188 C1180 1.356 . S
N1188 H1194 0.984 . S
N1188 H1195 0.984 . S
N1189 C1182 1.356 . S
N1189 H1192 0.984 . S
N1189 H1193 0.985 . S
H1190 N1185 0.984 . S
H1191 N1185 0.985 . S
H1192 N1189 0.984 . S
H1193 N1189 0.985 . S
H1194 N1188 0.984 . S
H1195 N1188 0.984 . S
H1196 N1184 0.984 . S
H1197 N1184 0.985 . S
C1198 C1199 1.363 . S
C1198 C1204 1.379 . S
C1198 N1206 1.356 . S
C1199 C1198 1.363 . S
C1199 C1205 1.363 . S
C1200 C1201 1.363 . S
C1200 C1205 1.379 . S
C1200 N1207 1.356 . S
C1201 C1200 1.363 . S
C1201 C1204 1.363 . S
N1202 C1204 1.356 . S
N1202 H1214 0.984 . S
N1202 H1215 0.985 . S
N1203 C1205 1.356 . S
N1203 H1208 0.984 . S
N1203 H1209 0.985 . S
C1204 C1198 1.379 . S
C1204 C1201 1.363 . S
C1204 N1202 1.356 . S
C1205 C1199 1.363 . S
C1205 C1200 1.379 . S
C1205 N1203 1.356 . S
N1206 C1198 1.356 . S
N1206 H1212 0.984 . S
N1206 H1213 0.984 . S
N1207 C1200 1.356 . S
N1207 H1210 0.984 . S
N1207 H1211 0.985 . S
H1208 N1203 0.984 . S
H1209 N1203 0.985 . S
H1210 N1207 0.984 . S
H1211 N1207 0.985 . S
H1212 N1206 0.984 . S
H1213 N1206 0.984 . S
H1214 N1202 0.984 . S
H1215 N1202 0.985 . S
C1216 C1217 1.363 . S
C1216 C1222 1.379 . S
C1216 N1224 1.356 . S
C1217 C1216 1.363 . S
C1217 C1223 1.363 . S
C1218 C1219 1.363 . S
C1218 C1223 1.379 . S
C1218 N1225 1.356 . S
C1219 C1218 1.363 . S
C1219 C1222 1.363 . S
N1220 C1222 1.356 . S
N1220 H1232 0.984 . S
N1220 H1233 0.985 . S
N1221 C1223 1.356 . S
N1221 H1226 0.984 . S
N1221 H1227 0.985 . S
C1222 C1216 1.379 . S
C1222 C1219 1.363 . S
C1222 N1220 1.356 . S
C1223 C1217 1.363 . S
C1223 C1218 1.379 . S
C1223 N1221 1.356 . S
N1224 C1216 1.356 . S
N1224 H1230 0.984 . S
N1224 H1231 0.984 . S
N1225 C1218 1.356 . S
N1225 H1228 0.984 . S
N1225 H1229 0.985 . S
H1226 N1221 0.984 . S
H1227 N1221 0.985 . S
H1228 N1225 0.984 . S
H1229 N1225 0.985 . S
H1230 N1224 0.984 . S
H1231 N1224 0.984 . S
H1232 N1220 0.984 . S
H1233 N1220 0.985 . S
C1234 C1235 1.363 . S
C1234 C1240 1.379 . S
C1234 N1242 1.356 . S
C1235 C1234 1.363 . S
C1235 C1241 1.363 . S
C1236 C1237 1.363 . S
C1236 C1241 1.379 . S
C1236 N1243 1.356 . S
C1237 C1236 1.363 . S
C1237 C1240 1.363 . S
N1238 C1240 1.356 . S
N1238 H1250 0.984 . S
N1238 H1251 0.985 . S
N1239 C1241 1.356 . S
N1239 H1244 0.984 . S
N1239 H1245 0.985 . S
C1240 C1234 1.379 . S
C1240 C1237 1.363 . S
C1240 N1238 1.356 . S
C1241 C1235 1.363 . S
C1241 C1236 1.379 . S
C1241 N1239 1.356 . S
N1242 C1234 1.356 . S
N1242 H1248 0.984 . S
N1242 H1249 0.984 . S
N1243 C1236 1.356 . S
N1243 H1246 0.984 . S
N1243 H1247 0.985 . S
H1244 N1239 0.984 . S
H1245 N1239 0.985 . S
H1246 N1243 0.984 . S
H1247 N1243 0.985 . S
H1248 N1242 0.984 . S
H1249 N1242 0.984 . S
H1250 N1238 0.984 . S
H1251 N1238 0.985 . S
C1252 C1253 1.363 . S
C1252 C1258 1.379 . S
C1252 N1260 1.356 . S
C1253 C1252 1.363 . S
C1253 C1259 1.363 . S
C1254 C1255 1.363 . S
C1254 C1259 1.379 . S
C1254 N1261 1.356 . S
C1255 C1254 1.363 . S
C1255 C1258 1.363 . S
N1256 C1258 1.356 . S
N1256 H1268 0.984 . S
N1256 H1269 0.985 . S
N1257 C1259 1.356 . S
N1257 H1262 0.984 . S
N1257 H1263 0.985 . S
C1258 C1252 1.379 . S
C1258 C1255 1.363 . S
C1258 N1256 1.356 . S
C1259 C1253 1.363 . S
C1259 C1254 1.379 . S
C1259 N1257 1.356 . S
N1260 C1252 1.356 . S
N1260 H1266 0.984 . S
N1260 H1267 0.984 . S
N1261 C1254 1.356 . S
N1261 H1264 0.984 . S
N1261 H1265 0.985 . S
H1262 N1257 0.984 . S
H1263 N1257 0.985 . S
H1264 N1261 0.984 . S
H1265 N1261 0.985 . S
H1266 N1260 0.984 . S
H1267 N1260 0.984 . S
H1268 N1256 0.984 . S
H1269 N1256 0.985 . S
C1270 C1271 1.363 . S
C1270 C1276 1.379 . S
C1270 N1278 1.356 . S
C1271 C1270 1.363 . S
C1271 C1277 1.363 . S
C1272 C1273 1.363 . S
C1272 C1277 1.379 . S
C1272 N1279 1.356 . S
C1273 C1272 1.363 . S
C1273 C1276 1.363 . S
N1274 C1276 1.356 . S
N1274 H1286 0.984 . S
N1274 H1287 0.985 . S
N1275 C1277 1.356 . S
N1275 H1280 0.984 . S
N1275 H1281 0.985 . S
C1276 C1270 1.379 . S
C1276 C1273 1.363 . S
C1276 N1274 1.356 . S
C1277 C1271 1.363 . S
C1277 C1272 1.379 . S
C1277 N1275 1.356 . S
N1278 C1270 1.356 . S
N1278 H1284 0.984 . S
N1278 H1285 0.984 . S
N1279 C1272 1.356 . S
N1279 H1282 0.984 . S
N1279 H1283 0.985 . S
H1280 N1275 0.984 . S
H1281 N1275 0.985 . S
H1282 N1279 0.984 . S
H1283 N1279 0.985 . S
H1284 N1278 0.984 . S
H1285 N1278 0.984 . S
H1286 N1274 0.984 . S
H1287 N1274 0.985 . S
C1288 C1289 1.363 . S
C1288 C1294 1.379 . S
C1288 N1296 1.356 . S
C1289 C1288 1.363 . S
C1289 C1295 1.363 . S
C1290 C1291 1.363 . S
C1290 C1295 1.379 . S
C1290 N1297 1.356 . S
C1291 C1290 1.363 . S
C1291 C1294 1.363 . S
N1292 C1294 1.356 . S
N1292 H1304 0.984 . S
N1292 H1305 0.985 . S
N1293 C1295 1.356 . S
N1293 H1298 0.984 . S
N1293 H1299 0.985 . S
C1294 C1288 1.379 . S
C1294 C1291 1.363 . S
C1294 N1292 1.356 . S
C1295 C1289 1.363 . S
C1295 C1290 1.379 . S
C1295 N1293 1.356 . S
N1296 C1288 1.356 . S
N1296 H1302 0.984 . S
N1296 H1303 0.984 . S
N1297 C1290 1.356 . S
N1297 H1300 0.984 . S
N1297 H1301 0.985 . S
H1298 N1293 0.984 . S
H1299 N1293 0.985 . S
H1300 N1297 0.984 . S
H1301 N1297 0.985 . S
H1302 N1296 0.984 . S
H1303 N1296 0.984 . S
H1304 N1292 0.984 . S
H1305 N1292 0.985 . S
C1306 C1307 1.363 . S
C1306 C1312 1.379 . S
C1306 N1314 1.356 . S
C1307 C1306 1.363 . S
C1307 C1313 1.363 . S
C1308 C1309 1.363 . S
C1308 C1313 1.379 . S
C1308 N1315 1.356 . S
C1309 C1308 1.363 . S
C1309 C1312 1.363 . S
N1310 C1312 1.356 . S
N1310 H1322 0.984 . S
N1310 H1323 0.985 . S
N1311 C1313 1.356 . S
N1311 H1316 0.984 . S
N1311 H1317 0.985 . S
C1312 C1306 1.379 . S
C1312 C1309 1.363 . S
C1312 N1310 1.356 . S
C1313 C1307 1.363 . S
C1313 C1308 1.379 . S
C1313 N1311 1.356 . S
N1314 C1306 1.356 . S
N1314 H1320 0.984 . S
N1314 H1321 0.984 . S
N1315 C1308 1.356 . S
N1315 H1318 0.984 . S
N1315 H1319 0.985 . S
H1316 N1311 0.984 . S
H1317 N1311 0.985 . S
H1318 N1315 0.984 . S
H1319 N1315 0.985 . S
H1320 N1314 0.984 . S
H1321 N1314 0.984 . S
H1322 N1310 0.984 . S
H1323 N1310 0.985 . S
C1324 C1325 1.363 . S
C1324 C1330 1.379 . S
C1324 N1332 1.356 . S
C1325 C1324 1.363 . S
C1325 C1331 1.363 . S
C1326 C1327 1.363 . S
C1326 C1331 1.379 . S
C1326 N1333 1.356 . S
C1327 C1326 1.363 . S
C1327 C1330 1.363 . S
N1328 C1330 1.356 . S
N1328 H1340 0.984 . S
N1328 H1341 0.985 . S
N1329 C1331 1.356 . S
N1329 H1334 0.984 . S
N1329 H1335 0.985 . S
C1330 C1324 1.379 . S
C1330 C1327 1.363 . S
C1330 N1328 1.356 . S
C1331 C1325 1.363 . S
C1331 C1326 1.379 . S
C1331 N1329 1.356 . S
N1332 C1324 1.356 . S
N1332 H1338 0.984 . S
N1332 H1339 0.984 . S
N1333 C1326 1.356 . S
N1333 H1336 0.984 . S
N1333 H1337 0.985 . S
H1334 N1329 0.984 . S
H1335 N1329 0.985 . S
H1336 N1333 0.984 . S
H1337 N1333 0.985 . S
H1338 N1332 0.984 . S
H1339 N1332 0.984 . S
H1340 N1328 0.984 . S
H1341 N1328 0.985 . S
C1342 C1343 1.363 . S
C1342 C1348 1.379 . S
C1342 N1350 1.356 . S
C1343 C1342 1.363 . S
C1343 C1349 1.363 . S
C1344 C1345 1.363 . S
C1344 C1349 1.379 . S
C1344 N1351 1.356 . S
C1345 C1344 1.363 . S
C1345 C1348 1.363 . S
N1346 C1348 1.356 . S
N1346 H1358 0.984 . S
N1346 H1359 0.985 . S
N1347 C1349 1.356 . S
N1347 H1352 0.984 . S
N1347 H1353 0.985 . S
C1348 C1342 1.379 . S
C1348 C1345 1.363 . S
C1348 N1346 1.356 . S
C1349 C1343 1.363 . S
C1349 C1344 1.379 . S
C1349 N1347 1.356 . S
N1350 C1342 1.356 . S
N1350 H1356 0.984 . S
N1350 H1357 0.984 . S
N1351 C1344 1.356 . S
N1351 H1354 0.984 . S
N1351 H1355 0.985 . S
H1352 N1347 0.984 . S
H1353 N1347 0.985 . S
H1354 N1351 0.984 . S
H1355 N1351 0.985 . S
H1356 N1350 0.984 . S
H1357 N1350 0.984 . S
H1358 N1346 0.984 . S
H1359 N1346 0.985 . S
C1360 C1361 1.363 . S
C1360 C1366 1.379 . S
C1360 N1368 1.356 . S
C1361 C1360 1.363 . S
C1361 C1367 1.363 . S
C1362 C1363 1.363 . S
C1362 C1367 1.379 . S
C1362 N1369 1.356 . S
C1363 C1362 1.363 . S
C1363 C1366 1.363 . S
N1364 C1366 1.356 . S
N1364 H1376 0.984 . S
N1364 H1377 0.985 . S
N1365 C1367 1.356 . S
N1365 H1370 0.984 . S
N1365 H1371 0.985 . S
C1366 C1360 1.379 . S
C1366 C1363 1.363 . S
C1366 N1364 1.356 . S
C1367 C1361 1.363 . S
C1367 C1362 1.379 . S
C1367 N1365 1.356 . S
N1368 C1360 1.356 . S
N1368 H1374 0.984 . S
N1368 H1375 0.984 . S
N1369 C1362 1.356 . S
N1369 H1372 0.984 . S
N1369 H1373 0.985 . S
H1370 N1365 0.984 . S
H1371 N1365 0.985 . S
H1372 N1369 0.984 . S
H1373 N1369 0.985 . S
H1374 N1368 0.984 . S
H1375 N1368 0.984 . S
H1376 N1364 0.984 . S
H1377 N1364 0.985 . S
C1378 C1379 1.363 . S
C1378 C1384 1.379 . S
C1378 N1386 1.356 . S
C1379 C1378 1.363 . S
C1379 C1385 1.363 . S
C1380 C1381 1.363 . S
C1380 C1385 1.379 . S
C1380 N1387 1.356 . S
C1381 C1380 1.363 . S
C1381 C1384 1.363 . S
N1382 C1384 1.356 . S
N1382 H1394 0.984 . S
N1382 H1395 0.985 1_556 S
N1383 C1385 1.356 . S
N1383 H1388 0.984 . S
N1383 H1389 0.985 . S
C1384 C1378 1.379 . S
C1384 C1381 1.363 . S
C1384 N1382 1.356 . S
C1385 C1379 1.363 . S
C1385 C1380 1.379 . S
C1385 N1383 1.356 . S
N1386 C1378 1.356 . S
N1386 H1392 0.984 . S
N1386 H1393 0.984 . S
N1387 C1380 1.356 . S
N1387 H1390 0.984 . S
N1387 H1391 0.985 . S
H1388 N1383 0.984 . S
H1389 N1383 0.985 . S
H1390 N1387 0.984 . S
H1391 N1387 0.985 . S
H1392 N1386 0.984 . S
H1393 N1386 0.984 . S
H1394 N1382 0.984 . S
H1395 N1382 0.985 1_554 S
C1396 C1397 1.363 . S
C1396 C1402 1.379 . S
C1396 N1404 1.356 . S
C1397 C1396 1.363 . S
C1397 C1403 1.363 . S
C1398 C1399 1.363 . S
C1398 C1403 1.379 . S
C1398 N1405 1.356 . S
C1399 C1398 1.363 . S
C1399 C1402 1.363 . S
N1400 C1402 1.356 . S
N1400 H1412 0.984 . S
N1400 H1413 0.985 . S
N1401 C1403 1.356 . S
N1401 H1406 0.984 . S
N1401 H1407 0.985 . S
C1402 C1396 1.379 . S
C1402 C1399 1.363 . S
C1402 N1400 1.356 . S
C1403 C1397 1.363 . S
C1403 C1398 1.379 . S
C1403 N1401 1.356 . S
N1404 C1396 1.356 . S
N1404 H1410 0.984 . S
N1404 H1411 0.984 . S
N1405 C1398 1.356 . S
N1405 H1408 0.974 1_554 S
N1405 H1409 0.985 . S
H1406 N1401 0.984 . S
H1407 N1401 0.985 . S
H1408 N1405 0.974 1_556 S
H1409 N1405 0.985 . S
H1410 N1404 0.984 . S
H1411 N1404 0.984 . S
H1412 N1400 0.984 . S
H1413 N1400 0.985 . S
C1414 C1415 1.363 . S
C1414 C1420 1.379 . S
C1414 N1422 1.356 . S
C1415 C1414 1.363 . S
C1415 C1421 1.363 . S
C1416 C1417 1.363 . S
C1416 C1421 1.379 . S
C1416 N1423 1.356 . S
C1417 C1416 1.363 . S
C1417 C1420 1.363 . S
N1418 C1420 1.356 . S
N1418 H1430 0.984 . S
N1418 H1431 0.985 . S
N1419 C1421 1.356 . S
N1419 H1424 0.984 . S
N1419 H1425 0.985 . S
C1420 C1414 1.379 . S
C1420 C1417 1.363 . S
C1420 N1418 1.356 . S
C1421 C1415 1.363 . S
C1421 C1416 1.379 . S
C1421 N1419 1.356 . S
N1422 C1414 1.356 . S
N1422 H1428 0.984 . S
N1422 H1429 0.984 . S
N1423 C1416 1.356 . S
N1423 H1426 0.984 . S
N1423 H1427 0.985 . S
H1424 N1419 0.984 . S
H1425 N1419 0.985 . S
H1426 N1423 0.984 . S
H1427 N1423 0.985 . S
H1428 N1422 0.984 . S
H1429 N1422 0.984 . S
H1430 N1418 0.984 . S
H1431 N1418 0.985 . S
C1432 C1433 1.363 . S
C1432 C1438 1.379 . S
C1432 N1440 1.356 . S
C1433 C1432 1.363 . S
C1433 C1439 1.363 . S
C1434 C1435 1.363 . S
C1434 C1439 1.379 . S
C1434 N1441 1.356 . S
C1435 C1434 1.363 . S
C1435 C1438 1.363 . S
N1436 C1438 1.356 . S
N1436 H1448 0.984 . S
N1436 H1449 0.985 . S
N1437 C1439 1.356 . S
N1437 H1442 0.984 . S
N1437 H1443 0.985 . S
C1438 C1432 1.379 . S
C1438 C1435 1.363 . S
C1438 N1436 1.356 . S
C1439 C1433 1.363 . S
C1439 C1434 1.379 . S
C1439 N1437 1.356 . S
N1440 C1432 1.356 . S
N1440 H1446 0.984 . S
N1440 H1447 0.984 . S
N1441 C1434 1.356 . S
N1441 H1444 0.984 . S
N1441 H1445 0.985 . S
H1442 N1437 0.984 . S
H1443 N1437 0.985 . S
H1444 N1441 0.984 . S
H1445 N1441 0.985 . S
H1446 N1440 0.984 . S
H1447 N1440 0.984 . S
H1448 N1436 0.984 . S
H1449 N1436 0.985 . S
C1450 C1451 1.363 . S
C1450 C1456 1.379 . S
C1450 N1458 1.356 . S
C1451 C1450 1.363 . S
C1451 C1457 1.363 . S
C1452 C1453 1.363 . S
C1452 C1457 1.379 . S
C1452 N1459 1.356 . S
C1453 C1452 1.363 . S
C1453 C1456 1.363 . S
N1454 C1456 1.356 . S
N1454 H1466 0.984 . S
N1454 H1467 0.985 . S
N1455 C1457 1.356 . S
N1455 H1460 0.984 1_556 S
N1455 H1461 0.985 . S
C1456 C1450 1.379 . S
C1456 C1453 1.363 . S
C1456 N1454 1.356 . S
C1457 C1451 1.363 . S
C1457 C1452 1.379 . S
C1457 N1455 1.356 . S
N1458 C1450 1.356 . S
N1458 H1464 0.984 . S
N1458 H1465 0.984 . S
N1459 C1452 1.356 . S
N1459 H1462 0.984 . S
N1459 H1463 0.985 . S
H1460 N1455 0.984 1_554 S
H1461 N1455 0.985 . S
H1462 N1459 0.984 . S
H1463 N1459 0.985 . S
H1464 N1458 0.984 . S
H1465 N1458 0.984 . S
H1466 N1454 0.984 . S
H1467 N1454 0.985 . S
C1468 C1469 1.363 . S
C1468 C1474 1.379 . S
C1468 N1476 1.356 . S
C1469 C1468 1.363 . S
C1469 C1475 1.363 . S
C1470 C1471 1.363 . S
C1470 C1475 1.379 . S
C1470 N1477 1.356 . S
C1471 C1470 1.363 . S
C1471 C1474 1.363 . S
N1472 C1474 1.356 . S
N1472 H1484 0.984 . S
N1472 H1485 0.985 . S
N1473 C1475 1.356 . S
N1473 H1478 0.984 . S
N1473 H1479 0.985 . S
C1474 C1468 1.379 . S
C1474 C1471 1.363 . S
C1474 N1472 1.356 . S
C1475 C1469 1.363 . S
C1475 C1470 1.379 . S
C1475 N1473 1.356 . S
N1476 C1468 1.356 . S
N1476 H1482 0.984 . S
N1476 H1483 0.984 1_554 S
N1477 C1470 1.356 . S
N1477 H1480 0.984 . S
N1477 H1481 0.985 . S
H1478 N1473 0.984 . S
H1479 N1473 0.985 . S
H1480 N1477 0.984 . S
H1481 N1477 0.985 . S
H1482 N1476 0.984 . S
H1483 N1476 0.984 1_556 S
H1484 N1472 0.984 . S
H1485 N1472 0.985 . S
C1486 C1487 1.363 . S
C1486 C1492 1.379 . S
C1486 N1494 1.356 . S
C1487 C1486 1.363 . S
C1487 C1493 1.363 . S
C1488 C1489 1.363 . S
C1488 C1493 1.379 . S
C1488 N1495 1.356 . S
C1489 C1488 1.363 . S
C1489 C1492 1.363 . S
N1490 C1492 1.356 . S
N1490 H1502 0.984 . S
N1490 H1503 0.985 . S
N1491 C1493 1.356 . S
N1491 H1496 0.984 . S
N1491 H1497 0.985 . S
C1492 C1486 1.379 . S
C1492 C1489 1.363 . S
C1492 N1490 1.356 . S
C1493 C1487 1.363 . S
C1493 C1488 1.379 . S
C1493 N1491 1.356 . S
N1494 C1486 1.356 . S
N1494 H1500 0.984 . S
N1494 H1501 0.984 . S
N1495 C1488 1.356 . S
N1495 H1498 0.984 . S
N1495 H1499 0.985 . S
H1496 N1491 0.984 . S
H1497 N1491 0.985 . S
H1498 N1495 0.984 . S
H1499 N1495 0.985 . S
H1500 N1494 0.984 . S
H1501 N1494 0.984 . S
H1502 N1490 0.984 . S
H1503 N1490 0.985 . S
C641 C460 1.751 . S
C643 C2 1.746 1_565 S
C659 C351 1.751 . S
C661 C63 1.746 1_655 S
C677 C82 1.746 1_545 S
C679 C380 1.751 . S
C695 C143 1.746 1_455 S
C697 C431 1.751 . S
C713 C162 1.746 . S
C715 C220 1.751 . S
C731 C271 1.751 . S
C733 C223 1.746 . S
C749 C242 1.746 . S
C751 C300 1.751 . S
C767 C191 1.751 . S
C769 C303 1.746 . S
C785 C140 1.751 . S
C787 C322 1.746 . S
C803 C383 1.746 . S
C805 C31 1.751 . S
C821 C60 1.751 . S
C823 C402 1.746 . S
C839 C111 1.751 . S
C841 C463 1.746 . S
C857 C482 1.746 1_545 S
C859 C540 1.751 . S
C875 C591 1.751 . S
C877 C543 1.746 1_455 S
C893 C620 1.751 . S
C895 C562 1.746 1_565 S
C911 C623 1.746 1_655 S
C913 C511 1.751 . S
C929 C23 1.235 . S
C931 C183 1.235 . S
C947 C202 1.235 . S
C949 C42 1.235 . S
C965 C103 1.235 . S
C967 C263 1.235 . S
C983 C122 1.235 . S
C985 C282 1.235 . S
C1001 C343 1.235 . S
C1003 C503 1.235 . S
C1019 C522 1.235 . S
C1021 C362 1.235 . S
C1037 C423 1.235 . S
C1039 C583 1.235 . S
C1055 C442 1.235 . S
C1057 C602 1.235 . S
C1073 C580 2.619 . S
C1075 C20 2.619 1_556 S
C1091 C71 2.619 1_554 S
C1093 C631 2.619 . S
C1109 C100 2.619 1_556 S
C1111 C500 2.619 . S
C1127 C151 2.619 1_554 S
C1129 C551 2.619 . S
C1145 C180 2.619 . S
C1147 C420 2.619 . S
C1163 C231 2.619 . S
C1165 C471 2.619 . S
C1181 C260 2.619 . S
C1183 C340 2.619 . S
C1199 C391 2.619 . S
C1201 C311 2.619 . S
C1217 C25 1.342 . S
C1219 C4 1.342 . S
C1235 C44 1.342 . S
C1237 C65 1.342 . S
C1253 C105 1.342 . S
C1255 C84 1.342 . S
C1271 C145 1.342 . S
C1273 C124 1.342 . S
C1289 C164 1.342 . S
C1291 C185 1.342 . S
C1307 C204 1.342 . S
C1309 C225 1.342 . S
C1325 C265 1.342 . S
C1327 C244 1.342 . S
C1343 C305 1.342 . S
C1345 C284 1.342 . S
C1361 C345 1.342 . S
C1363 C324 1.342 . S
C1379 C385 1.342 . S
C1381 C364 1.342 . S
C1397 C404 1.342 . S
C1399 C425 1.342 . S
C1415 C444 1.342 . S
C1417 C465 1.342 . S
C1433 C505 1.342 . S
C1435 C484 1.342 . S
C1451 C545 1.342 . S
C1453 C524 1.342 . S
C1469 C564 1.342 . S
C1471 C585 1.342 . S
C1487 C604 1.342 . S
C1489 C625 1.342 . S
