# Generated by pormake.
# Topology wgt, (5)-cn, num edge types: 1
# Building blocks:
#     Node 0, Type 0, BuildingBlock: BEQFEK_clean_sbu_0, # of connection points: 5
#     Node 1, Type 0, BuildingBlock: BEQFEK_clean_sbu_0, # of connection points: 5
#     Node 2, Type 0, BuildingBlock: BEQFEK_clean_sbu_0, # of connection points: 5
#     Node 3, Type 0, BuildingBlock: BEQFEK_clean_sbu_0, # of connection points: 5
#     Node 4, Type 0, BuildingBlock: BEQFEK_clean_sbu_0, # of connection points: 5
#     Node 5, Type 0, BuildingBlock: BEQFEK_clean_sbu_0, # of connection points: 5
#     Node 6, Type 0, BuildingBlock: BEQFEK_clean_sbu_0, # of connection points: 5
#     Node 7, Type 0, BuildingBlock: BEQFEK_clean_sbu_0, # of connection points: 5
#     Node 8, Type 0, BuildingBlock: BEQFEK_clean_sbu_0, # of connection points: 5
#     Node 9, Type 0, BuildingBlock: BEQFEK_clean_sbu_0, # of connection points: 5
#     Node 10, Type 0, BuildingBlock: BEQFEK_clean_sbu_0, # of connection points: 5
#     Node 11, Type 0, BuildingBlock: BEQFEK_clean_sbu_0, # of connection points: 5
#     Node 12, Type 0, BuildingBlock: BEQFEK_clean_sbu_0, # of connection points: 5
#     Node 13, Type 0, BuildingBlock: BEQFEK_clean_sbu_0, # of connection points: 5
#     Node 14, Type 0, BuildingBlock: BEQFEK_clean_sbu_0, # of connection points: 5
#     Node 15, Type 0, BuildingBlock: BEQFEK_clean_sbu_0, # of connection points: 5
#     Edge 16, Type (0, 0), BuildingBlock: EZIPEK_clean_linker_0, # of connection points: 2
#     Edge 17, Type (0, 0), BuildingBlock: EZIPEK_clean_linker_0, # of connection points: 2
#     Edge 18, Type (0, 0), BuildingBlock: EZIPEK_clean_linker_0, # of connection points: 2
#     Edge 19, Type (0, 0), BuildingBlock: EZIPEK_clean_linker_0, # of connection points: 2
#     Edge 20, Type (0, 0), BuildingBlock: EZIPEK_clean_linker_0, # of connection points: 2
#     Edge 21, Type (0, 0), BuildingBlock: EZIPEK_clean_linker_0, # of connection points: 2
#     Edge 22, Type (0, 0), BuildingBlock: EZIPEK_clean_linker_0, # of connection points: 2
#     Edge 23, Type (0, 0), BuildingBlock: EZIPEK_clean_linker_0, # of connection points: 2
#     Edge 24, Type (0, 0), BuildingBlock: EZIPEK_clean_linker_0, # of connection points: 2
#     Edge 25, Type (0, 0), BuildingBlock: EZIPEK_clean_linker_0, # of connection points: 2
#     Edge 26, Type (0, 0), BuildingBlock: EZIPEK_clean_linker_0, # of connection points: 2
#     Edge 27, Type (0, 0), BuildingBlock: EZIPEK_clean_linker_0, # of connection points: 2
#     Edge 28, Type (0, 0), BuildingBlock: EZIPEK_clean_linker_0, # of connection points: 2
#     Edge 29, Type (0, 0), BuildingBlock: EZIPEK_clean_linker_0, # of connection points: 2
#     Edge 30, Type (0, 0), BuildingBlock: EZIPEK_clean_linker_0, # of connection points: 2
#     Edge 31, Type (0, 0), BuildingBlock: EZIPEK_clean_linker_0, # of connection points: 2
#     Edge 32, Type (0, 0), BuildingBlock: EZIPEK_clean_linker_0, # of connection points: 2
#     Edge 33, Type (0, 0), BuildingBlock: EZIPEK_clean_linker_0, # of connection points: 2
#     Edge 34, Type (0, 0), BuildingBlock: EZIPEK_clean_linker_0, # of connection points: 2
#     Edge 35, Type (0, 0), BuildingBlock: EZIPEK_clean_linker_0, # of connection points: 2
#     Edge 36, Type (0, 0), BuildingBlock: EZIPEK_clean_linker_0, # of connection points: 2
#     Edge 37, Type (0, 0), BuildingBlock: EZIPEK_clean_linker_0, # of connection points: 2
#     Edge 38, Type (0, 0), BuildingBlock: EZIPEK_clean_linker_0, # of connection points: 2
#     Edge 39, Type (0, 0), BuildingBlock: EZIPEK_clean_linker_0, # of connection points: 2
#     Edge 40, Type (0, 0), BuildingBlock: EZIPEK_clean_linker_0, # of connection points: 2
#     Edge 41, Type (0, 0), BuildingBlock: EZIPEK_clean_linker_0, # of connection points: 2
#     Edge 42, Type (0, 0), BuildingBlock: EZIPEK_clean_linker_0, # of connection points: 2
#     Edge 43, Type (0, 0), BuildingBlock: EZIPEK_clean_linker_0, # of connection points: 2
#     Edge 44, Type (0, 0), BuildingBlock: EZIPEK_clean_linker_0, # of connection points: 2
#     Edge 45, Type (0, 0), BuildingBlock: EZIPEK_clean_linker_0, # of connection points: 2
#     Edge 46, Type (0, 0), BuildingBlock: EZIPEK_clean_linker_0, # of connection points: 2
#     Edge 47, Type (0, 0), BuildingBlock: EZIPEK_clean_linker_0, # of connection points: 2
#     Edge 48, Type (0, 0), BuildingBlock: EZIPEK_clean_linker_0, # of connection points: 2
#     Edge 49, Type (0, 0), BuildingBlock: EZIPEK_clean_linker_0, # of connection points: 2
#     Edge 50, Type (0, 0), BuildingBlock: EZIPEK_clean_linker_0, # of connection points: 2
#     Edge 51, Type (0, 0), BuildingBlock: EZIPEK_clean_linker_0, # of connection points: 2
#     Edge 52, Type (0, 0), BuildingBlock: EZIPEK_clean_linker_0, # of connection points: 2
#     Edge 53, Type (0, 0), BuildingBlock: EZIPEK_clean_linker_0, # of connection points: 2
#     Edge 54, Type (0, 0), BuildingBlock: EZIPEK_clean_linker_0, # of connection points: 2
#     Edge 55, Type (0, 0), BuildingBlock: EZIPEK_clean_linker_0, # of connection points: 2
# Relax obj value: 0.115
# Max RMSD: 0.178
# Mean RMSD: 0.178
data_MOF--net-wgt--node1-BEQFEK_clean_sbu_0--edge1-EZIPEK_clean_linker_0
_symmetry_space_group_name_H-M    P1
_symmetry_Int_Tables_number       1
_symmetry_cell_setting            triclinic
loop_
_symmetry_equiv_pos_as_xyz
'x, y, z'
_cell_length_a     21.762112
_cell_length_b     21.715456
_cell_length_c     60.561584
_cell_angle_alpha  90.07648
_cell_angle_beta   90.003744
_cell_angle_gamma 90.005706
loop_
_atom_site_label
_atom_site_type_symbol
_atom_site_fract_x
_atom_site_fract_y
_atom_site_fract_z
_atom_type_partial_charge
Co0 Co 0.16561 0.32632 0.04315 0.0
Co1 Co 0.1748 0.31976 0.9913 0.0
C2 C 0.09157 0.23712 0.01396 0.0
O3 O 0.10404 0.26319 0.03237 0.0
O4 O 0.12299 0.2476 0.9967 0.0
C5 C 0.17077 0.27781 0.0885 0.0
O6 O 0.14865 0.22592 0.08065 0.0
C7 C 0.18793 0.27999 0.94505 0.0
C8 C 0.21205 0.36699 0.92831 0.0
C9 C 0.20026 0.30523 0.92456 0.0
N10 N 0.19234 0.32472 0.96037 0.0
N11 N 0.20731 0.37652 0.95025 0.0
C12 C 0.16923 0.21512 0.94981 0.0
H13 H 0.19284 0.19863 0.96493 0.0
H14 H 0.18018 0.18421 0.93574 0.0
H15 H 0.11895 0.21375 0.95283 0.0
C16 C 0.30057 0.3272 0.038 0.0
N17 N 0.24372 0.32377 0.02935 0.0
N18 N 0.24802 0.31615 0.0079 0.0
C19 C 0.30778 0.31037 1.00236 0.0
C20 C 0.34341 0.31747 0.0213 0.0
C21 C 0.3134 0.3419 0.06173 0.0
H22 H 0.28264 0.37954 0.06733 0.0
H23 H 0.30372 0.30075 0.07199 0.0
H24 H 0.36192 0.35602 0.06422 0.0
O25 O 0.12493 0.4035 0.03627 0.0
O26 O 0.1216 0.39258 0.99967 0.0
H27 H 0.32691 0.33765 0.9692 0.0
H28 H 0.37795 0.27889 0.97966 0.0
C29 C 0.32978 0.29562 0.97954 0.0
H30 H 0.29971 0.26008 0.97203 0.0
H31 H 0.21286 0.41872 0.95827 0.0
O32 O 0.17819 0.3236 0.07574 0.0
C33 C 0.10578 0.42037 0.0174 0.0
Co34 Co 0.66865 0.67746 0.29261 0.0
Co35 Co 0.66838 0.66977 0.24078 0.0
C36 C 0.75463 0.59557 0.27003 0.0
O37 O 0.74114 0.62516 0.28748 0.0
O38 O 0.73063 0.60895 0.25145 0.0
C39 C 0.70158 0.67686 0.33862 0.0
O40 O 0.74016 0.63308 0.33301 0.0
C41 C 0.72605 0.68096 0.19707 0.0
C42 C 0.64536 0.68505 0.17497 0.0
C43 C 0.70893 0.68584 0.17512 0.0
N44 N 0.67486 0.6774 0.20943 0.0
N45 N 0.62678 0.67975 0.1961 0.0
C46 C 0.78986 0.6799 0.20616 0.0
H47 H 0.79009 0.69674 0.22348 0.0
H48 H 0.821 0.70833 0.19583 0.0
H49 H 0.80702 0.63177 0.20597 0.0
C50 C 0.67741 0.80999 0.28286 0.0
N51 N 0.67291 0.75087 0.2763 0.0
N52 N 0.67146 0.74847 0.25462 0.0
C53 C 0.67306 0.80646 0.2467 0.0
C54 C 0.67715 0.84741 0.26435 0.0
C55 C 0.68622 0.8297 0.30635 0.0
H56 H 0.72392 0.8025 0.31389 0.0
H57 H 0.69736 0.87943 0.30764 0.0
H58 H 0.64353 0.82024 0.31576 0.0
O59 O 0.59544 0.62621 0.28443 0.0
O60 O 0.59072 0.62823 0.24762 0.0
H61 H 0.66662 0.87261 0.22009 0.0
H62 H 0.7165 0.80748 0.21513 0.0
C63 C 0.67251 0.82238 0.22268 0.0
H64 H 0.63463 0.79739 0.21433 0.0
H65 H 0.58124 0.67791 0.20145 0.0
O66 O 0.66533 0.69943 0.32432 0.0
C67 C 0.57022 0.61047 0.26624 0.0
Co68 Co 0.33144 0.15591 0.54141 0.0
Co69 Co 0.3259 0.17936 0.48999 0.0
C70 C 0.40962 0.25094 0.51927 0.0
O71 O 0.38525 0.22947 0.53681 0.0
O72 O 0.38933 0.23725 0.50019 0.0
C73 C 0.2918 0.18639 0.58475 0.0
O74 O 0.27142 0.23476 0.57397 0.0
C75 C 0.31807 0.2406 0.44668 0.0
C76 C 0.27859 0.16644 0.42603 0.0
C77 C 0.29947 0.22656 0.4254 0.0
N78 N 0.30879 0.19079 0.45941 0.0
N79 N 0.28522 0.14666 0.44695 0.0
C80 C 0.3442 0.30011 0.45481 0.0
H81 H 0.32401 0.31173 0.47112 0.0
H82 H 0.3355 0.33795 0.4429 0.0
H83 H 0.39454 0.29478 0.45704 0.0
C84 C 0.19624 0.15229 0.53444 0.0
N85 N 0.25399 0.16163 0.52719 0.0
N86 N 0.25184 0.18077 0.50663 0.0
C87 C 0.19252 0.18903 0.50079 0.0
C88 C 0.15521 0.1711 0.51828 0.0
C89 C 0.18024 0.11964 0.55539 0.0
H90 H 0.21617 0.08515 0.55914 0.0
H91 H 0.17713 0.1531 0.56916 0.0
H92 H 0.13513 0.09612 0.5539 0.0
O93 O 0.37977 0.08759 0.52907 0.0
O94 O 0.36982 0.09949 0.49264 0.0
H95 H 0.1721 0.17728 0.46655 0.0
H96 H 0.12492 0.23386 0.48022 0.0
C97 C 0.17206 0.2146 0.47907 0.0
H98 H 0.2043 0.25103 0.47356 0.0
H99 H 0.27366 0.10295 0.45277 0.0
O100 O 0.32113 0.1454 0.57407 0.0
C101 C 0.39252 0.07187 0.50932 0.0
Co102 Co 0.81848 0.83713 0.79402 0.0
Co103 Co 0.79181 0.83192 0.74296 0.0
C104 C 0.71008 0.90266 0.77158 0.0
O105 O 0.74406 0.88574 0.78759 0.0
O106 O 0.71981 0.88167 0.75221 0.0
C107 C 0.78931 0.79386 0.83717 0.0
O108 O 0.74571 0.7649 0.8263 0.0
C109 C 0.74532 0.81458 0.69723 0.0
C110 C 0.83217 0.79405 0.67976 0.0
C111 C 0.7698 0.80202 0.67656 0.0
N112 N 0.79142 0.8144 0.71204 0.0
N113 N 0.84304 0.80161 0.70147 0.0
C114 C 0.67985 0.82863 0.70265 0.0
H115 H 0.67385 0.87932 0.7034 0.0
H116 H 0.668 0.80936 0.71907 0.0
H117 H 0.64854 0.80984 0.68983 0.0
C118 C 0.83709 0.70368 0.78653 0.0
N119 N 0.82119 0.76024 0.77951 0.0
N120 N 0.80184 0.75665 0.759 0.0
C121 C 0.80052 0.69672 0.75291 0.0
C122 C 0.82286 0.66107 0.77026 0.0
C123 C 0.87062 0.69087 0.80758 0.0
H124 H 0.83738 0.68338 0.82116 0.0
H125 H 0.89924 0.64876 0.80601 0.0
H126 H 0.90046 0.73052 0.81168 0.0
O127 O 0.88343 0.89019 0.78376 0.0
O128 O 0.86225 0.89046 0.74775 0.0
H129 H 0.81378 0.68054 0.71847 0.0
H130 H 0.76536 0.62448 0.73184 0.0
C131 C 0.77743 0.6741 0.7311 0.0
H132 H 0.73667 0.70128 0.72599 0.0
H133 H 0.88598 0.79892 0.70908 0.0
O134 O 0.8254 0.82896 0.82658 0.0
C135 C 0.89251 0.91032 0.76436 0.0
Co136 Co 0.83149 0.33324 0.54277 0.0
Co137 Co 0.84061 0.32048 0.49073 0.0
C138 C 0.90344 0.23117 0.52045 0.0
O139 O 0.88295 0.26014 0.53719 0.0
O140 O 0.88863 0.24802 0.50101 0.0
C141 C 0.84987 0.32851 0.59007 0.0
O142 O 0.90819 0.32122 0.58521 0.0
C143 C 0.82609 0.26902 0.44565 0.0
C144 C 0.83278 0.35282 0.42516 0.0
C145 C 0.82534 0.28958 0.42396 0.0
N146 N 0.83403 0.31786 0.45909 0.0
N147 N 0.83807 0.36775 0.44668 0.0
C148 C 0.81829 0.2042 0.4534 0.0
H149 H 0.80445 0.20328 0.47104 0.0
H150 H 0.78352 0.18007 0.44313 0.0
H151 H 0.86257 0.17943 0.45157 0.0
C152 C 0.70006 0.3355 0.53232 0.0
N153 N 0.75907 0.33346 0.52582 0.0
N154 N 0.76148 0.32713 0.50422 0.0
C155 C 0.70341 0.32479 0.49635 0.0
C156 C 0.66264 0.32996 0.51395 0.0
C157 C 0.67988 0.33674 0.55594 0.0
H158 H 0.70126 0.37668 0.56441 0.0
H159 H 0.6958 0.29416 0.56429 0.0
H160 H 0.62915 0.34016 0.55739 0.0
O161 O 0.88351 0.40387 0.53531 0.0
O162 O 0.89288 0.39255 0.49879 0.0
H163 H 0.71142 0.34462 0.46188 0.0
H164 H 0.63677 0.31575 0.47007 0.0
C165 C 0.68705 0.31182 0.47283 0.0
H166 H 0.70212 0.26458 0.46846 0.0
H167 H 0.84436 0.41212 0.45292 0.0
O168 O 0.81055 0.33503 0.57475 0.0
C169 C 0.90603 0.42007 0.51682 0.0
Co170 Co 0.68297 0.33432 0.79491 0.0
Co171 Co 0.71435 0.33283 0.74389 0.0
C172 C 0.79215 0.40347 0.77437 0.0
O173 O 0.7572 0.38585 0.79006 0.0
O174 O 0.78441 0.38249 0.75488 0.0
C175 C 0.71696 0.31216 0.84025 0.0
O176 O 0.77269 0.32414 0.83315 0.0
C177 C 0.76574 0.326 0.69852 0.0
C178 C 0.6833 0.29844 0.67961 0.0
C179 C 0.74466 0.31375 0.67736 0.0
N180 N 0.71871 0.31883 0.71271 0.0
N181 N 0.66969 0.30214 0.70126 0.0
C182 C 0.82905 0.34529 0.70504 0.0
H183 H 0.84194 0.3231 0.72087 0.0
H184 H 0.86294 0.33326 0.69203 0.0
H185 H 0.8295 0.39591 0.70749 0.0
C186 C 0.66792 0.20251 0.78635 0.0
N187 N 0.68349 0.25924 0.77951 0.0
N188 N 0.70294 0.2566 0.75901 0.0
C189 C 0.70392 0.19697 0.75257 0.0
C190 C 0.68158 0.16049 0.76976 0.0
C191 C 0.63767 0.18938 0.80806 0.0
H192 H 0.60369 0.22597 0.81187 0.0
H193 H 0.67282 0.18941 0.82132 0.0
H194 H 0.61419 0.14401 0.8079 0.0
O195 O 0.61729 0.38682 0.78413 0.0
O196 O 0.64321 0.38966 0.74847 0.0
H197 H 0.69025 0.18191 0.71809 0.0
H198 H 0.73948 0.12595 0.73107 0.0
C199 C 0.7269 0.17544 0.7306 0.0
H200 H 0.76724 0.2033 0.72552 0.0
H201 H 0.62663 0.29389 0.70824 0.0
O202 O 0.67182 0.31666 0.82701 0.0
C203 C 0.61042 0.40779 0.76468 0.0
Co204 Co 0.6712 0.1513 0.0434 0.0
Co205 Co 0.65677 0.16698 0.99185 0.0
C206 C 0.59574 0.25338 0.02332 0.0
O207 O 0.61882 0.22402 0.03945 0.0
O208 O 0.60891 0.2383 0.00352 0.0
C209 C 0.70883 0.1886 0.08658 0.0
O210 O 0.71655 0.2417 0.07655 0.0
C211 C 0.67226 0.21975 0.94711 0.0
C212 C 0.65455 0.13812 0.92622 0.0
C213 C 0.66959 0.20002 0.92531 0.0
N214 N 0.65948 0.17157 0.9603 0.0
N215 N 0.6485 0.12311 0.94767 0.0
C216 C 0.68839 0.28271 0.95528 0.0
H217 H 0.70301 0.28089 0.97284 0.0
H218 H 0.72528 0.30303 0.94493 0.0
H219 H 0.64737 0.31284 0.95406 0.0
C220 C 0.8037 0.15426 0.03105 0.0
N221 N 0.74343 0.15442 0.02581 0.0
N222 N 0.73764 0.15908 0.00421 0.0
C223 C 0.79432 0.16041 0.99512 0.0
C224 C 0.83794 0.15839 0.01187 0.0
C225 C 0.82845 0.15569 0.05405 0.0
H226 H 0.82048 0.20187 0.06129 0.0
H227 H 0.87846 0.14623 0.05453 0.0
H228 H 0.80443 0.12086 0.06406 0.0
O229 O 0.61847 0.08123 0.03533 0.0
O230 O 0.60527 0.09488 0.99919 0.0
H231 H 0.77675 0.13554 0.96145 0.0
H232 H 0.85586 0.15556 0.96721 0.0
C233 C 0.80718 0.16671 0.97097 0.0
H234 H 0.79809 0.21475 0.96578 0.0
H235 H 0.63762 0.07947 0.95371 0.0
O236 O 0.68892 0.1433 0.07545 0.0
C237 C 0.59396 0.06622 0.01704 0.0
Co238 Co 0.84475 0.16768 0.29237 0.0
Co239 Co 0.8264 0.17648 0.24112 0.0
C240 C 0.74151 0.10501 0.26579 0.0
O241 O 0.7748 0.1126 0.28295 0.0
O242 O 0.74693 0.14013 0.24917 0.0
C243 C 0.8013 0.1731 0.33818 0.0
O244 O 0.75076 0.14709 0.33083 0.0
C245 C 0.78352 0.18952 0.19549 0.0
C246 C 0.87096 0.20093 0.17739 0.0
C247 C 0.80802 0.19636 0.17459 0.0
N248 N 0.82985 0.19029 0.21015 0.0
N249 N 0.88197 0.1976 0.19924 0.0
C250 C 0.71763 0.17863 0.20129 0.0
H251 H 0.71147 0.12955 0.20586 0.0
H252 H 0.70489 0.20728 0.21577 0.0
H253 H 0.68682 0.18945 0.18722 0.0
C254 C 0.8514 0.30375 0.28631 0.0
N255 N 0.84801 0.24607 0.27812 0.0
N256 N 0.84041 0.24939 0.25664 0.0
C257 C 0.83746 0.30885 0.25049 0.0
C258 C 0.84423 0.34549 0.2691 0.0
C259 C 0.85375 0.31878 0.3104 0.0
H260 H 0.89149 0.29252 0.31832 0.0
H261 H 0.80987 0.30476 0.31825 0.0
H262 H 0.86102 0.3688 0.31316 0.0
O263 O 0.91475 0.11538 0.28351 0.0
O264 O 0.88809 0.11214 0.24803 0.0
H265 H 0.85639 0.31707 0.21602 0.0
H266 H 0.81229 0.38028 0.22715 0.0
C267 C 0.81957 0.32975 0.22784 0.0
H268 H 0.77688 0.30583 0.22267 0.0
H269 H 0.92521 0.1987 0.20669 0.0
O270 O 0.84598 0.18215 0.32504 0.0
C271 C 0.91942 0.09205 0.26423 0.0
Co272 Co 0.66799 0.83299 0.54076 0.0
Co273 Co 0.68332 0.81166 0.49025 0.0
C274 C 0.60278 0.73215 0.51254 0.0
O275 O 0.61009 0.76655 0.52947 0.0
O276 O 0.63945 0.73527 0.49634 0.0
C277 C 0.70217 0.7953 0.58498 0.0
O278 O 0.7338 0.75256 0.57463 0.0
C279 C 0.69958 0.77033 0.44458 0.0
C280 C 0.72224 0.85731 0.4275 0.0
C281 C 0.7115 0.79522 0.42403 0.0
N282 N 0.70255 0.81568 0.45965 0.0
N283 N 0.7165 0.86751 0.44936 0.0
C284 C 0.68421 0.70476 0.4497 0.0
H285 H 0.70927 0.68989 0.46473 0.0
H286 H 0.69612 0.67393 0.4357 0.0
H287 H 0.6342 0.70103 0.45301 0.0
C288 C 0.80511 0.84702 0.53639 0.0
N289 N 0.74897 0.83343 0.52827 0.0
N290 N 0.75501 0.81756 0.50745 0.0
C291 C 0.81512 0.81516 0.5022 0.0
C292 C 0.84932 0.83405 0.52039 0.0
C293 C 0.81577 0.87913 0.55792 0.0
H294 H 0.77891 0.91351 0.56058 0.0
H295 H 0.81472 0.84543 0.57162 0.0
H296 H 0.86101 0.90274 0.5581 0.0
O297 O 0.62467 0.90686 0.53176 0.0
O298 O 0.62275 0.88037 0.49629 0.0
H299 H 0.83626 0.83235 0.46832 0.0
H300 H 0.88744 0.77839 0.48155 0.0
C301 C 0.83896 0.79386 0.48031 0.0
H302 H 0.81013 0.75558 0.47399 0.0
H303 H 0.72079 0.9101 0.45722 0.0
O304 O 0.6696 0.83239 0.57377 0.0
C305 C 0.60414 0.91382 0.51228 0.0
Co306 Co 0.14914 0.18545 0.79055 0.0
Co307 Co 0.157 0.17998 0.73843 0.0
C308 C 0.23933 0.10369 0.76591 0.0
O309 O 0.21344 0.12241 0.78358 0.0
O310 O 0.22676 0.12715 0.74721 0.0
C311 C 0.19197 0.21679 0.83464 0.0
O312 O 0.24504 0.22468 0.82468 0.0
C313 C 0.20784 0.18805 0.69356 0.0
C314 C 0.12402 0.18937 0.673 0.0
C315 C 0.18754 0.18931 0.6719 0.0
N316 N 0.15855 0.18764 0.70696 0.0
N317 N 0.10857 0.18872 0.69455 0.0
C318 C 0.27289 0.18433 0.70135 0.0
H319 H 0.28562 0.13517 0.70337 0.0
H320 H 0.27772 0.20755 0.7176 0.0
H321 H 0.30457 0.20543 0.68915 0.0
C322 C 0.16276 0.32051 0.78039 0.0
N323 N 0.15709 0.26088 0.77428 0.0
N324 N 0.15794 0.25798 0.75254 0.0
C325 C 0.16353 0.31533 0.74429 0.0
C326 C 0.16725 0.35679 0.76166 0.0
C327 C 0.16898 0.3426 0.80364 0.0
H328 H 0.21596 0.33236 0.80966 0.0
H329 H 0.1614 0.39297 0.80494 0.0
H330 H 0.13526 0.31868 0.81414 0.0
O331 O 0.07198 0.14288 0.78274 0.0
O332 O 0.08328 0.13131 0.74642 0.0
H333 H 0.17002 0.3804 0.71734 0.0
H334 H 0.2138 0.31028 0.71404 0.0
C335 C 0.17008 0.32995 0.72027 0.0
H336 H 0.13169 0.30873 0.71094 0.0
H337 H 0.06388 0.18774 0.70079 0.0
O338 O 0.14627 0.19892 0.82327 0.0
C339 C 0.05518 0.11976 0.76438 0.0
Co340 Co 0.8255 0.67644 0.04403 0.0
Co341 Co 0.82722 0.67996 0.99203 0.0
C342 C 0.89217 0.77541 0.01873 0.0
O343 O 0.87497 0.75057 0.03681 0.0
O344 O 0.87372 0.75409 1.00027 0.0
C345 C 0.83473 0.70167 0.09157 0.0
O346 O 0.88457 0.73342 0.08717 0.0
C347 C 0.80317 0.72433 0.94708 0.0
C348 C 0.82155 0.64075 0.9273 0.0
C349 C 0.8054 0.70218 0.92569 0.0
N350 N 0.81706 0.67794 0.96086 0.0
N351 N 0.8275 0.62797 0.94894 0.0
C352 C 0.79128 0.78914 0.95416 0.0
H353 H 0.78289 0.79152 0.97222 0.0
H354 H 0.75113 0.80789 0.94508 0.0
H355 H 0.83173 0.81789 0.94992 0.0
C356 C 0.6925 0.66806 0.03533 0.0
N357 N 0.7506 0.67457 0.0282 0.0
N358 N 0.75096 0.67603 0.00662 0.0
C359 C 0.69309 0.67048 0.99913 0.0
C360 C 0.65227 0.67257 0.01718 0.0
C361 C 0.67945 0.63979 0.05748 0.0
H362 H 0.71619 0.60625 0.06159 0.0
H363 H 0.68017 0.67576 0.0705 0.0
H364 H 0.63512 0.61464 0.05766 0.0
O365 O 0.87994 0.60633 0.03658 0.0
O366 O 0.88226 0.61148 0.99983 0.0
H367 H 0.63627 0.62007 0.97569 0.0
H368 H 0.68195 0.68249 0.96408 0.0
C369 C 0.68067 0.64499 0.97648 0.0
H370 H 0.71726 0.6117 0.97202 0.0
H371 H 0.84011 0.58547 0.95556 0.0
O372 O 0.80583 0.67461 0.07614 0.0
C373 C 0.90018 0.58808 0.01795 0.0
Co374 Co 0.31191 0.33088 0.29364 0.0
Co375 Co 0.30263 0.3372 0.24169 0.0
C376 C 0.20751 0.39569 0.27046 0.0
O377 O 0.23598 0.37738 0.28762 0.0
O378 O 0.227 0.38131 0.25127 0.0
C379 C 0.30085 0.34751 0.341 0.0
O380 O 0.28372 0.40406 0.33643 0.0
C381 C 0.25505 0.31597 0.19654 0.0
C382 C 0.33896 0.32828 0.1765 0.0
C383 C 0.27682 0.31528 0.17502 0.0
N384 N 0.30217 0.32906 0.21017 0.0
N385 N 0.35213 0.33649 0.19804 0.0
C386 C 0.19088 0.30303 0.20401 0.0
H387 H 0.1901 0.2913 0.22184 0.0
H388 H 0.17085 0.26485 0.19415 0.0
H389 H 0.16221 0.34457 0.2013 0.0
C390 C 0.31768 0.19822 0.28405 0.0
N391 N 0.31607 0.25722 0.27726 0.0
N392 N 0.31302 0.25888 0.25558 0.0
C393 C 0.31369 0.20049 0.24789 0.0
C394 C 0.31607 0.16008 0.26571 0.0
C395 C 0.31362 0.1789 0.30772 0.0
H396 H 0.27157 0.19886 0.31523 0.0
H397 H 0.31242 0.12806 0.30946 0.0
H398 H 0.35389 0.19722 0.31684 0.0
O399 O 0.37966 0.3874 0.28624 0.0
O400 O 0.37046 0.39426 0.24963 0.0
H401 H 0.31583 0.13339 0.22151 0.0
H402 H 0.25881 0.19321 0.21877 0.0
C403 C 0.30646 0.18312 0.22412 0.0
H404 H 0.33838 0.21069 0.21386 0.0
H405 H 0.39537 0.34692 0.20449 0.0
O406 O 0.31555 0.31086 0.32552 0.0
C407 C 0.39556 0.41034 0.26776 0.0
Co408 Co 0.32294 0.79957 0.0433 0.0
Co409 Co 0.32478 0.80197 0.99138 0.0
C410 C 0.39359 0.70623 0.01692 0.0
O411 O 0.37475 0.72821 0.03524 0.0
O412 O 0.37522 0.72926 0.99872 0.0
C413 C 0.33856 0.77616 0.09041 0.0
O414 O 0.39364 0.75538 0.08562 0.0
C415 C 0.30613 0.76162 0.94538 0.0
C416 C 0.31857 0.84911 0.92735 0.0
C417 C 0.30797 0.78682 0.92441 0.0
N418 N 0.31498 0.80704 0.96015 0.0
N419 N 0.32177 0.85931 0.94924 0.0
C420 C 0.30031 0.69499 0.9511 0.0
H421 H 0.29246 0.68903 0.96907 0.0
H422 H 0.26183 0.67411 0.94168 0.0
H423 H 0.34303 0.67072 0.94618 0.0
C424 C 0.19045 0.80806 0.03492 0.0
N425 N 0.24819 0.80113 0.02756 0.0
N426 N 0.24819 0.80159 0.00597 0.0
C427 C 0.19021 0.8088 0.99871 0.0
C428 C 0.14977 0.80579 0.01688 0.0
C429 C 0.17841 0.83522 0.05736 0.0
H430 H 0.21583 0.86786 0.06165 0.0
H431 H 0.17873 0.79844 0.07005 0.0
H432 H 0.13454 0.86111 0.05792 0.0
O433 O 0.37422 0.87245 0.03717 0.0
O434 O 0.37602 0.87252 1.00036 0.0
H435 H 0.13408 0.86353 0.97635 0.0
H436 H 0.17881 0.8021 0.96348 0.0
C437 C 0.17801 0.83775 0.97662 0.0
H438 H 0.215 0.87118 0.97282 0.0
H439 H 0.3304 0.90174 0.95674 0.0
O440 O 0.3039 0.79662 0.07524 0.0
C441 C 0.39275 0.89452 0.01888 0.0
Co442 Co 0.14476 0.82431 0.29002 0.0
Co443 Co 0.17672 0.8131 0.23965 0.0
C444 C 0.24158 0.90388 0.26616 0.0
O445 O 0.20887 0.88832 0.28273 0.0
O446 O 0.23894 0.87439 0.24804 0.0
C447 C 0.18794 0.81609 0.33541 0.0
O448 O 0.2412 0.83248 0.32709 0.0
C449 C 0.23411 0.79843 0.19596 0.0
C450 C 0.1578 0.75871 0.1765 0.0
C451 C 0.21828 0.77792 0.17507 0.0
N452 N 0.18506 0.79192 0.20923 0.0
N453 N 0.13965 0.76804 0.19751 0.0
C454 C 0.29466 0.824 0.20315 0.0
H455 H 0.30723 0.8048 0.21951 0.0
H456 H 0.33125 0.8135 0.19094 0.0
H457 H 0.29056 0.87471 0.20491 0.0
C458 C 0.1352 0.68971 0.28321 0.0
N459 N 0.15336 0.74598 0.27657 0.0
N460 N 0.17896 0.74125 0.25704 0.0
C461 C 0.18418 0.68114 0.25171 0.0
C462 C 0.15675 0.64633 0.26827 0.0
C463 C 0.08553 0.67881 0.29987 0.0
H464 H 0.07711 0.7204 0.31003 0.0
H465 H 0.09653 0.63865 0.31041 0.0
H466 H 0.0424 0.66741 0.29097 0.0
O467 O 0.07037 0.86106 0.27866 0.0
O468 O 0.09482 0.85613 0.24309 0.0
H469 H 0.17769 0.6563 0.21765 0.0
H470 H 0.23121 0.61052 0.23323 0.0
C471 C 0.21288 0.65776 0.23088 0.0
H472 H 0.25038 0.68904 0.22558 0.0
H473 H 0.09614 0.75829 0.20386 0.0
O474 O 0.14121 0.81199 0.3228 0.0
C475 C 0.05821 0.87266 0.25851 0.0
Co476 Co 0.17894 0.68712 0.54313 0.0
Co477 Co 0.16268 0.69751 0.49131 0.0
C478 C 0.10296 0.78879 0.52097 0.0
O479 O 0.12545 0.76061 0.53761 0.0
O480 O 0.11629 0.7714 0.50142 0.0
C481 C 0.18438 0.71878 0.59069 0.0
O482 O 0.13641 0.75404 0.58756 0.0
C483 C 0.15792 0.73817 0.44451 0.0
C484 C 0.19233 0.65462 0.42775 0.0
C485 C 0.17452 0.71496 0.42395 0.0
N486 N 0.16716 0.69403 0.45975 0.0
N487 N 0.18643 0.64388 0.4495 0.0
C488 C 0.13247 0.80045 0.44963 0.0
H489 H 0.08787 0.79489 0.45826 0.0
H490 H 0.16429 0.82488 0.46097 0.0
H491 H 0.1254 0.82818 0.43447 0.0
C492 C 0.31057 0.67543 0.52928 0.0
N493 N 0.25022 0.68351 0.52476 0.0
N494 N 0.24362 0.6908 0.5033 0.0
C495 C 0.29969 0.68904 0.4937 0.0
C496 C 0.34389 0.67975 0.5099 0.0
C497 C 0.33768 0.66622 0.55172 0.0
H498 H 0.36012 0.70962 0.55696 0.0
H499 H 0.37404 0.63062 0.55127 0.0
H500 H 0.30298 0.65136 0.56381 0.0
O501 O 0.12515 0.6158 0.53706 0.0
O502 O 0.11197 0.62664 0.5007 0.0
H503 H 0.36029 0.70949 0.4662 0.0
H504 H 0.28186 0.73547 0.46308 0.0
C505 C 0.31154 0.6982 0.46957 0.0
H506 H 0.30119 0.65481 0.4607 0.0
H507 H 0.19741 0.60279 0.4575 0.0
O508 O 0.20567 0.68717 0.57475 0.0
C509 C 0.10079 0.59932 0.51885 0.0
Co510 Co 0.35492 0.67802 0.7902 0.0
Co511 Co 0.34861 0.68533 0.73834 0.0
C512 C 0.26408 0.60482 0.76208 0.0
O513 O 0.29032 0.61794 0.78032 0.0
O514 O 0.27634 0.63395 0.74446 0.0
C515 C 0.3096 0.70435 0.83417 0.0
O516 O 0.25999 0.72244 0.82364 0.0
C517 C 0.31101 0.68484 0.69172 0.0
C518 C 0.374 0.75371 0.67739 0.0
C519 C 0.32301 0.7178 0.67258 0.0
N520 N 0.35134 0.70239 0.70735 0.0
N521 N 0.39026 0.74183 0.69841 0.0
C522 C 0.26254 0.63676 0.69502 0.0
H523 H 0.28257 0.59657 0.70371 0.0
H524 H 0.22516 0.65581 0.70544 0.0
H525 H 0.24297 0.62118 0.67904 0.0
C526 C 0.34749 0.81601 0.78456 0.0
N527 N 0.35069 0.75785 0.77656 0.0
N528 N 0.34583 0.76005 0.75488 0.0
C529 C 0.33654 0.81903 0.74866 0.0
C530 C 0.3382 0.85645 0.76722 0.0
C531 C 0.34902 0.83336 0.80841 0.0
H532 H 0.30186 0.83122 0.81527 0.0
H533 H 0.36597 0.8812 0.81054 0.0
H534 H 0.37933 0.80164 0.81753 0.0
O535 O 0.43149 0.6363 0.78224 0.0
O536 O 0.42071 0.63257 0.74571 0.0
H537 H 0.36126 0.84838 0.71624 0.0
H538 H 0.29197 0.88219 0.72595 0.0
C539 C 0.31898 0.83896 0.72583 0.0
H540 H 0.2916 0.80268 0.71754 0.0
H541 H 0.42625 0.76282 0.70697 0.0
O542 O 0.35382 0.68226 0.82306 0.0
C543 C 0.44837 0.61696 0.76337 0.0
C544 C 0.13913 0.28329 0.89043 0.0
C545 C 0.19403 0.27536 0.90264 0.0
C546 C 0.23605 0.21171 0.87285 0.0
C547 C 0.18663 0.22958 0.85889 0.0
N548 N 0.08885 0.28302 0.85497 0.0
N549 N 0.29625 0.23375 0.90562 0.0
C550 C 0.13698 0.26471 0.86789 0.0
C551 C 0.24281 0.2397 0.89395 0.0
N552 N 0.08833 0.30732 0.90059 0.0
N553 N 0.27497 0.16576 0.86631 0.0
H554 H 0.30216 0.25204 0.92142 0.0
H555 H 0.33603 0.21439 0.89904 0.0
H556 H 0.26892 0.14146 0.85159 0.0
H557 H 0.30852 0.14686 0.87652 0.0
H558 H 0.04475 0.30743 0.89348 0.0
H559 H 0.08832 0.32203 0.91699 0.0
H560 H 0.05792 0.31718 0.85969 0.0
H561 H 0.08005 0.26637 0.83924 0.0
C562 C 0.76008 0.74925 0.14594 0.0
C563 C 0.74884 0.6906 0.15536 0.0
C564 C 0.80597 0.64127 0.12523 0.0
C565 C 0.81001 0.69899 0.11436 0.0
N566 N 0.78591 0.80745 0.1131 0.0
N567 N 0.75757 0.58004 0.15388 0.0
C568 C 0.78641 0.75309 0.12448 0.0
C569 C 0.77126 0.63635 0.14507 0.0
N570 N 0.746 0.80127 0.15763 0.0
N571 N 0.83669 0.59155 0.11683 0.0
H572 H 0.73416 0.57474 0.16879 0.0
H573 H 0.76603 0.53851 0.14583 0.0
H574 H 0.86293 0.5938 0.10243 0.0
H575 H 0.84079 0.54967 0.12503 0.0
H576 H 0.75895 0.84536 0.15275 0.0
H577 H 0.72591 0.8 0.17326 0.0
H578 H 0.76289 0.84669 0.11851 0.0
H579 H 0.80457 0.81234 0.09735 0.0
C580 C 0.35805 0.30654 0.37362 0.0
C581 C 0.30151 0.32503 0.36405 0.0
C582 C 0.24654 0.2921 0.39735 0.0
C583 C 0.3017 0.26584 0.40546 0.0
N584 N 0.40971 0.24415 0.40114 0.0
N585 N 0.19082 0.331 0.36566 0.0
C586 C 0.35761 0.27249 0.39366 0.0
C587 C 0.24542 0.31738 0.37571 0.0
N588 N 0.41217 0.32279 0.36374 0.0
N589 N 0.19546 0.29342 0.41049 0.0
H590 H 0.18792 0.34967 0.34984 0.0
H591 H 0.14816 0.31962 0.37227 0.0
H592 H 0.19484 0.27512 0.42642 0.0
H593 H 0.15556 0.31736 0.40646 0.0
H594 H 0.45508 0.31616 0.37095 0.0
H595 H 0.41398 0.34813 0.34912 0.0
H596 H 0.45007 0.241 0.39198 0.0
H597 H 0.41158 0.22009 0.41601 0.0
C598 C 0.7009 0.74602 0.62241 0.0
C599 C 0.70633 0.80042 0.60953 0.0
C600 C 0.7334 0.85848 0.64309 0.0
C601 C 0.73904 0.80229 0.65473 0.0
N602 N 0.72853 0.69203 0.65605 0.0
N603 N 0.72925 0.90972 0.60779 0.0
C604 C 0.72236 0.74589 0.6446 0.0
C605 C 0.72173 0.85733 0.61997 0.0
N606 N 0.67325 0.6951 0.61358 0.0
N607 N 0.73945 0.9131 0.65414 0.0
H608 H 0.7184 0.9132 0.59117 0.0
H609 H 0.74969 0.94958 0.61392 0.0
H610 H 0.75003 0.91574 0.67091 0.0
H611 H 0.72868 0.95565 0.64724 0.0
H612 H 0.6629 0.65576 0.62266 0.0
H613 H 0.65464 0.69462 0.5977 0.0
H614 H 0.72456 0.64871 0.64879 0.0
H615 H 0.74086 0.69065 0.67269 0.0
C616 C 0.76238 0.26327 0.3906 0.0
C617 C 0.81628 0.25358 0.40327 0.0
C618 C 0.85402 0.18138 0.37512 0.0
C619 C 0.80439 0.19799 0.3611 0.0
N620 N 0.71695 0.26405 0.35418 0.0
N621 N 0.91761 0.20941 0.40644 0.0
C622 C 0.75971 0.24109 0.36852 0.0
C623 C 0.86318 0.21391 0.3953 0.0
N624 N 0.71319 0.29285 0.3998 0.0
N625 N 0.89149 0.13341 0.36943 0.0
H626 H 0.92625 0.23263 0.4212 0.0
H627 H 0.95597 0.18671 0.40014 0.0
H628 H 0.8855 0.10787 0.35498 0.0
H629 H 0.92459 0.11517 0.37998 0.0
H630 H 0.67044 0.29573 0.39213 0.0
H631 H 0.7132 0.30898 0.41604 0.0
H632 H 0.68784 0.30051 0.35813 0.0
H633 H 0.71446 0.25127 0.33762 0.0
C634 C 0.8138 0.26627 0.62235 0.0
C635 C 0.82892 0.32451 0.61326 0.0
C636 C 0.79173 0.37614 0.64673 0.0
C637 C 0.77841 0.31772 0.65611 0.0
N638 N 0.78793 0.20725 0.65508 0.0
N639 N 0.84355 0.43368 0.61783 0.0
C640 C 0.79286 0.26274 0.64457 0.0
C641 C 0.82152 0.37912 0.62583 0.0
N642 N 0.81767 0.21456 0.60951 0.0
N643 N 0.77328 0.42869 0.65729 0.0
H644 H 0.86456 0.43751 0.60241 0.0
H645 H 0.84555 0.47403 0.6271 0.0
H646 H 0.75177 0.42852 0.67267 0.0
H647 H 0.77524 0.47227 0.65019 0.0
H648 H 0.80049 0.17183 0.61424 0.0
H649 H 0.83452 0.2151 0.59338 0.0
H650 H 0.80349 0.16591 0.64839 0.0
H651 H 0.77315 0.20313 0.6714 0.0
C652 C 0.64708 0.28253 0.89706 0.0
C653 C 0.68526 0.23419 0.90481 0.0
C654 C 0.74187 0.2349 0.86987 0.0
C655 C 0.7074 0.28684 0.8628 0.0
N656 N 0.63617 0.36831 0.87178 0.0
N657 N 0.77887 0.17572 0.90096 0.0
C658 C 0.66261 0.31318 0.87704 0.0
C659 C 0.73583 0.21402 0.89195 0.0
N660 N 0.5945 0.29734 0.90819 0.0
N661 N 0.77747 0.20283 0.85523 0.0
H662 H 0.77687 0.1607 0.9173 0.0
H663 H 0.81977 0.16438 0.89298 0.0
H664 H 0.78089 0.21403 0.83855 0.0
H665 H 0.79824 0.16096 0.8591 0.0
H666 H 0.56159 0.32757 0.902 0.0
H667 H 0.58111 0.27544 0.92272 0.0
H668 H 0.60778 0.39257 0.88257 0.0
H669 H 0.64738 0.39279 0.85753 0.0
C670 C 0.77944 0.13461 0.14133 0.0
C671 C 0.77553 0.19055 0.15326 0.0
C672 C 0.7094 0.23363 0.12457 0.0
C673 C 0.72374 0.18304 0.11057 0.0
N674 N 0.77214 0.08256 0.1063 0.0
N675 N 0.73877 0.29487 0.15632 0.0
C676 C 0.75785 0.13221 0.11919 0.0
C677 C 0.74069 0.24042 0.14499 0.0
N678 N 0.80216 0.08307 0.15143 0.0
N679 N 0.66379 0.27371 0.11875 0.0
H680 H 0.76005 0.30114 0.1716 0.0
H681 H 0.71988 0.33503 0.14984 0.0
H682 H 0.63706 0.26761 0.1046 0.0
H683 H 0.64756 0.30832 0.12914 0.0
H684 H 0.79952 0.03914 0.14457 0.0
H685 H 0.81843 0.08303 0.16764 0.0
H686 H 0.80577 0.05056 0.11055 0.0
H687 H 0.75225 0.07317 0.09112 0.0
C688 C 0.65132 0.70682 0.37426 0.0
C689 C 0.7047 0.7049 0.36085 0.0
C690 C 0.76392 0.75586 0.39004 0.0
C691 C 0.70918 0.76361 0.40239 0.0
N692 N 0.59862 0.75642 0.40467 0.0
N693 N 0.80875 0.73895 0.35401 0.0
C694 C 0.65218 0.74178 0.39409 0.0
C695 C 0.76034 0.73233 0.3682 0.0
N696 N 0.60043 0.67368 0.3684 0.0
N697 N 0.81954 0.76941 0.39935 0.0
H698 H 0.80761 0.72421 0.33762 0.0
H699 H 0.84786 0.76453 0.35781 0.0
H700 H 0.82409 0.78651 0.41538 0.0
H701 H 0.86135 0.75838 0.39196 0.0
H702 H 0.56248 0.66813 0.37869 0.0
H703 H 0.59838 0.64686 0.35412 0.0
H704 H 0.55533 0.74733 0.3981 0.0
H705 H 0.59714 0.7827 0.41908 0.0
C706 C 0.25286 0.12653 0.61829 0.0
C707 C 0.27878 0.18098 0.60894 0.0
C708 C 0.25218 0.23891 0.64251 0.0
C709 C 0.22462 0.18536 0.6514 0.0
N710 N 0.21382 0.07514 0.65102 0.0
N711 N 0.3224 0.28137 0.61546 0.0
C712 C 0.22982 0.12817 0.6403 0.0
C713 C 0.28442 0.23485 0.62214 0.0
N714 N 0.24732 0.07396 0.60605 0.0
N715 N 0.24578 0.29413 0.65313 0.0
H716 H 0.34905 0.27833 0.60117 0.0
H717 H 0.33281 0.31952 0.6252 0.0
H718 H 0.22398 0.29856 0.66839 0.0
H719 H 0.2585 0.33606 0.64616 0.0
H720 H 0.21965 0.03703 0.61067 0.0
H721 H 0.26867 0.06713 0.59094 0.0
H722 H 0.22286 0.03127 0.64486 0.0
H723 H 0.1966 0.07478 0.6671 0.0
C724 C 0.74407 0.7521 0.89552 0.0
C725 C 0.80179 0.73754 0.90489 0.0
C726 C 0.8543 0.7702 0.87116 0.0
C727 C 0.79611 0.78382 0.86141 0.0
N728 N 0.68922 0.80848 0.86722 0.0
N729 N 0.91158 0.75039 0.90476 0.0
C730 C 0.74203 0.78121 0.87454 0.0
C731 C 0.85681 0.75243 0.8937 0.0
N732 N 0.6912 0.73628 0.90629 0.0
N733 N 0.90697 0.77056 0.85888 0.0
H734 H 0.91498 0.73759 0.92132 0.0
H735 H 0.95257 0.76726 0.89827 0.0
H736 H 0.90995 0.78692 0.84285 0.0
H737 H 0.94813 0.75145 0.86436 0.0
H738 H 0.64782 0.73917 0.8991 0.0
H739 H 0.69104 0.7165 0.92198 0.0
H740 H 0.64978 0.81271 0.87684 0.0
H741 H 0.68715 0.83315 0.85246 0.0
C742 C 0.25814 0.24779 0.14213 0.0
C743 C 0.24299 0.30156 0.15426 0.0
C744 C 0.16978 0.33108 0.12534 0.0
C745 C 0.19195 0.28249 0.11179 0.0
N746 N 0.26524 0.20023 0.1061 0.0
N747 N 0.18984 0.39893 0.15632 0.0
C748 C 0.23789 0.24187 0.11991 0.0
C749 C 0.19987 0.3443 0.14567 0.0
N750 N 0.29118 0.20186 0.15196 0.0
N751 N 0.11911 0.36375 0.11899 0.0
H752 H 0.21126 0.41063 0.17114 0.0
H753 H 0.16421 0.43475 0.14955 0.0
H754 H 0.09526 0.35454 0.10441 0.0
H755 H 0.0972 0.39564 0.12916 0.0
H756 H 0.29836 0.159 0.14466 0.0
H757 H 0.30603 0.20431 0.16833 0.0
H758 H 0.30368 0.17451 0.11056 0.0
H759 H 0.25359 0.19542 0.0895 0.0
C760 C 0.36882 0.73549 0.86902 0.0
C761 C 0.31411 0.71304 0.85864 0.0
C762 C 0.25648 0.73163 0.89291 0.0
C763 C 0.31065 0.75415 0.90297 0.0
N764 N 0.42109 0.75813 0.90345 0.0
N765 N 0.21341 0.66853 0.86382 0.0
C766 C 0.36769 0.74968 0.89192 0.0
C767 C 0.26019 0.70452 0.87159 0.0
N768 N 0.42108 0.74699 0.85719 0.0
N769 N 0.20118 0.73791 0.90336 0.0
H770 H 0.21633 0.64453 0.84892 0.0
H771 H 0.17526 0.65656 0.87328 0.0
H772 H 0.19693 0.75642 0.91919 0.0
H773 H 0.15929 0.7287 0.8957 0.0
H774 H 0.4578 0.77225 0.86353 0.0
H775 H 0.4278 0.73523 0.84078 0.0
H776 H 0.46437 0.74871 0.8969 0.0
H777 H 0.4219 0.76816 0.9203 0.0
C778 C 0.305 0.72054 0.12473 0.0
C779 C 0.31601 0.77676 0.11346 0.0
C780 C 0.26552 0.83438 0.1432 0.0
C781 C 0.25607 0.77838 0.15474 0.0
N782 N 0.27809 0.67041 0.1592 0.0
N783 N 0.32006 0.88765 0.11399 0.0
C784 C 0.27947 0.72211 0.14635 0.0
C785 C 0.30033 0.83389 0.12335 0.0
N786 N 0.31575 0.66563 0.11435 0.0
N787 N 0.23905 0.88758 0.15068 0.0
H788 H 0.34635 0.88884 0.09958 0.0
H789 H 0.31552 0.93053 0.12153 0.0
H790 H 0.21387 0.89011 0.1653 0.0
H791 H 0.23816 0.9283 0.14162 0.0
H792 H 0.30188 0.6233 0.12069 0.0
H793 H 0.33454 0.6624 0.09856 0.0
H794 H 0.30002 0.62946 0.15496 0.0
H795 H 0.25961 0.67004 0.1751 0.0
C796 C 0.20739 0.80088 0.39797 0.0
C797 C 0.17431 0.74534 0.4019 0.0
C798 C 0.16135 0.73249 0.3622 0.0
C799 C 0.18448 0.79244 0.35843 0.0
N800 N 0.22179 0.88823 0.37358 0.0
N801 N 0.10607 0.66721 0.3874 0.0
C802 C 0.20511 0.82823 0.37659 0.0
C803 C 0.14674 0.71409 0.38391 0.0
N804 N 0.24404 0.82549 0.41401 0.0
N805 N 0.15841 0.69097 0.34536 0.0
H806 H 0.09138 0.65435 0.40313 0.0
H807 H 0.08187 0.64631 0.37454 0.0
H808 H 0.17626 0.70077 0.3298 0.0
H809 H 0.14672 0.64488 0.34779 0.0
H810 H 0.27334 0.86261 0.41119 0.0
H811 H 0.2501 0.80502 0.4294 0.0
H812 H 0.23166 0.91785 0.38667 0.0
H813 H 0.22032 0.90975 0.3582 0.0
C814 C 0.22173 0.7263 0.6522 0.0
C815 C 0.28677 0.71952 0.65171 0.0
C816 C 0.28311 0.72966 0.61165 0.0
C817 C 0.21854 0.72153 0.61191 0.0
N818 N 0.1266 0.70312 0.63336 0.0
N819 N 0.37801 0.70266 0.62956 0.0
C820 C 0.18767 0.71723 0.63246 0.0
C821 C 0.31723 0.71767 0.63102 0.0
N822 N 0.19263 0.74504 0.67102 0.0
N823 N 0.31163 0.75308 0.59347 0.0
H824 H 0.40418 0.68931 0.64315 0.0
H825 H 0.40013 0.69669 0.61442 0.0
H826 H 0.28735 0.76774 0.57957 0.0
H827 H 0.35812 0.76483 0.59342 0.0
H828 H 0.1458 0.75507 0.67152 0.0
H829 H 0.21638 0.75789 0.68525 0.0
H830 H 0.10387 0.69444 0.64819 0.0
H831 H 0.10034 0.69403 0.61933 0.0
C832 C 0.06134 0.52475 0.00959 0.0
C833 C 0.05312 0.46333 0.01676 0.0
C834 C 0.94292 0.48217 0.02266 0.0
C835 C 0.95235 0.54479 0.01737 0.0
N836 N 0.02135 0.62894 0.00916 0.0
N837 N 0.98798 0.38417 0.03241 0.0
C838 C 0.01176 0.56704 0.01163 0.0
C839 C 0.99441 0.44221 0.02398 0.0
N840 N 0.11636 0.54252 1.00076 0.0
N841 N 0.88447 0.46056 0.0257 0.0
H842 H 0.02336 0.35198 0.03266 0.0
H843 H 0.94851 0.36874 0.04038 0.0
H844 H 0.84577 0.48886 0.02502 0.0
H845 H 0.87359 0.41408 0.02718 0.0
H846 H 0.12328 0.58476 0.99303 0.0
H847 H 0.15417 0.5131 0.99973 0.0
H848 H 0.06471 0.64863 0.00749 0.0
H849 H 0.98642 0.66159 0.01065 0.0
C850 C 0.42268 0.52013 0.276 0.0
C851 C 0.44027 0.4615 0.26752 0.0
C852 C 0.54301 0.50053 0.25904 0.0
C853 C 0.52463 0.55999 0.26646 0.0
N854 N 0.44652 0.62919 0.27962 0.0
N855 N 0.51324 0.39693 0.24854 0.0
C856 C 0.46436 0.57053 0.27442 0.0
C857 C 0.49925 0.4521 0.25826 0.0
N858 N 0.366 0.52753 0.28544 0.0
N859 N 0.60314 0.48965 0.25366 0.0
H860 H 0.48381 0.35902 0.24882 0.0
H861 H 0.55232 0.3896 0.23898 0.0
H862 H 0.63679 0.52374 0.25362 0.0
H863 H 0.62117 0.44594 0.25086 0.0
H864 H 0.35267 0.56664 0.29415 0.0
H865 H 0.33246 0.49323 0.28551 0.0
H866 H 0.4016 0.64173 0.28339 0.0
H867 H 0.47625 0.66681 0.27873 0.0
C868 C 0.55127 0.00683 0.4967 0.0
C869 C 0.54841 0.95188 0.50917 0.0
C870 C 0.43817 0.96842 0.5158 0.0
C871 C 0.44323 0.02738 0.50613 0.0
N872 N 0.50657 0.10666 0.48949 0.0
N873 N 0.48983 0.87962 0.53114 0.0
C874 C 0.5 0.04741 0.49679 0.0
C875 C 0.49195 0.93235 0.51884 0.0
N876 N 0.60321 0.02064 0.48501 0.0
N877 N 0.38146 0.94668 0.52166 0.0
H878 H 0.52658 0.84926 0.53251 0.0
H879 H 0.4525 0.86697 0.54086 0.0
H880 H 0.34122 0.97185 0.51911 0.0
H881 H 0.37321 0.90208 0.52717 0.0
H882 H 0.60558 0.05633 0.47357 0.0
H883 H 0.64275 0.99352 0.48547 0.0
H884 H 0.54872 0.12597 0.48523 0.0
H885 H 0.47112 0.1388 0.48936 0.0
C886 C 0.03134 0.01032 0.77389 0.0
C887 C 0.0119 0.06728 0.76455 0.0
C888 C 0.91313 0.02098 0.7546 0.0
C889 C 0.93518 0.96274 0.7619 0.0
N890 N 0.01864 0.89945 0.77461 0.0
N891 N 0.93823 0.12505 0.74325 0.0
C892 C 0.99534 0.95678 0.77042 0.0
C893 C 0.95416 0.07191 0.75388 0.0
N894 N 0.08394 0.00708 0.7862 0.0
N895 N 0.8522 0.02893 0.74983 0.0
H896 H 0.96565 0.16446 0.74347 0.0
H897 H 0.89976 0.12868 0.73309 0.0
H898 H 0.81986 0.99362 0.75064 0.0
H899 H 0.83251 0.07193 0.74706 0.0
H900 H 0.09583 0.96887 0.79565 0.0
H901 H 0.11441 0.04357 0.78821 0.0
H902 H 0.06397 0.89136 0.77921 0.0
H903 H 0.99411 0.85906 0.77149 0.0
C904 C 0.01732 0.44652 0.51386 0.0
C905 C 0.95559 0.46629 0.51686 0.0
C906 C 0.99051 0.57169 0.52375 0.0
C907 C 0.05163 0.55276 0.51903 0.0
N908 N 0.12322 0.47531 0.50681 0.0
N909 N 0.88164 0.54748 0.522 0.0
C910 C 0.06506 0.49105 0.51324 0.0
C911 C 0.94165 0.52886 0.52116 0.0
N912 N 0.03056 0.38498 0.5126 0.0
N913 N 0.9794 0.63047 0.53091 0.0
H914 H 0.84485 0.51705 0.52024 0.0
H915 H 0.86802 0.59337 0.52275 0.0
H916 H 0.01367 0.66384 0.53232 0.0
H917 H 0.93708 0.64532 0.53688 0.0
H918 H 0.07506 0.3674 0.51293 0.0
H919 H 0.99701 0.35069 0.51301 0.0
H920 H 0.13439 0.43282 0.49991 0.0
H921 H 0.15983 0.50636 0.50697 0.0
C922 C 0.50537 0.4522 0.7666 0.0
C923 C 0.56828 0.4602 0.76166 0.0
C924 C 0.55137 0.57045 0.75507 0.0
C925 C 0.49018 0.56355 0.76255 0.0
N926 N 0.41025 0.4993 0.7782 0.0
N927 N 0.65431 0.52824 0.75476 0.0
C928 C 0.46751 0.50481 0.76911 0.0
C929 C 0.59225 0.51958 0.75663 0.0
N930 N 0.48162 0.39408 0.76835 0.0
N931 N 0.57049 0.62556 0.74663 0.0
H932 H 0.68624 0.49267 0.75609 0.0
H933 H 0.6747 0.57154 0.75378 0.0
H934 H 0.54226 0.66437 0.74608 0.0
H935 H 0.61263 0.63154 0.73876 0.0
H936 H 0.43486 0.38486 0.7698 0.0
H937 H 0.50822 0.35451 0.76628 0.0
H938 H 0.39433 0.45922 0.78569 0.0
H939 H 0.37961 0.53586 0.77965 0.0
C940 C 0.48149 0.04474 0.01698 0.0
C941 C 0.54275 0.02195 0.01735 0.0
C942 C 0.50496 0.91639 0.02087 0.0
C943 C 0.44379 0.93893 0.01902 0.0
N944 N 0.37295 0.02207 0.0125 0.0
N945 N 0.61414 0.93737 0.01704 0.0
C946 C 0.43177 0.00245 0.01624 0.0
C947 C 0.55493 0.95806 0.01865 0.0
N948 N 0.47091 0.10681 0.01815 0.0
N949 N 0.51507 0.85519 0.02492 0.0
H950 H 0.65171 0.96699 0.01567 0.0
H951 H 0.62609 0.89117 0.0155 0.0
H952 H 0.47987 0.8227 0.02582 0.0
H953 H 0.55791 0.83678 0.02873 0.0
H954 H 0.42754 0.12607 0.02031 0.0
H955 H 0.50602 0.13949 0.01859 0.0
H956 H 0.3618 0.06679 0.00781 0.0
H957 H 0.33523 0.9924 0.01267 0.0
C958 C 0.01676 0.96556 0.23876 0.0
C959 C 0.00736 0.91713 0.25405 0.0
C960 C 0.92826 0.97909 0.27242 0.0
C961 C 0.95076 0.03213 0.26115 0.0
N962 N 0.01626 0.07594 0.2331 0.0
N963 N 0.94325 0.8713 0.28176 0.0
C964 C 0.99463 0.02531 0.244 0.0
C965 C 0.95904 0.92188 0.26962 0.0
N966 N 0.04411 0.95404 0.2189 0.0
N967 N 0.87604 0.98268 0.28493 0.0
H968 H 0.96033 0.82755 0.27803 0.0
H969 H 0.91458 0.87258 0.29551 0.0
H970 H 0.85147 0.02323 0.28725 0.0
H971 H 0.85374 0.9446 0.29158 0.0
H972 H 0.0487 0.98714 0.20658 0.0
H973 H 0.05369 0.90949 0.21349 0.0
H974 H 0.05192 0.07411 0.22165 0.0
H975 H 0.00212 0.12065 0.23684 0.0
C976 C 0.49909 0.27221 0.04434 0.0
C977 C 0.5395 0.29155 0.02739 0.0
C978 C 0.4526 0.34662 0.01063 0.0
C979 C 0.41141 0.31097 0.02368 0.0
N980 N 0.39923 0.22853 0.05031 0.0
N981 N 0.55601 0.35632 0.99575 0.0
C982 C 0.43559 0.27074 0.03991 0.0
C983 C 0.51663 0.33202 0.01093 0.0
N984 N 0.52063 0.25613 0.06468 0.0
N985 N 0.43106 0.39513 0.99858 0.0
H986 H 0.60358 0.35139 0.99716 0.0
H987 H 0.54141 0.37996 0.98174 0.0
H988 H 0.38501 0.40842 0.9988 0.0
H989 H 0.45958 0.42556 0.99013 0.0
H990 H 0.49137 0.2441 0.07762 0.0
H991 H 0.56594 0.26442 0.06944 0.0
H992 H 0.41707 0.19579 0.06115 0.0
H993 H 0.35332 0.22137 0.04611 0.0
C994 C 0.64813 0.95758 0.27334 0.0
C995 C 0.68943 0.91479 0.26353 0.0
C996 C 0.75075 0.99986 0.24932 0.0
C997 C 0.7159 0.04233 0.26218 0.0
N998 N 0.63351 0.06106 0.28781 0.0
N999 N 0.78907 0.89588 0.24731 0.0
C1000 C 0.66505 0.021 0.27463 0.0
C1001 C 0.74324 0.93607 0.25293 0.0
N1002 N 0.59247 0.9379 0.281 0.0
N1003 N 0.79089 0.01963 0.2335 0.0
H1004 H 0.78715 0.84885 0.25068 0.0
H1005 H 0.83195 0.9103 0.24165 0.0
H1006 H 0.79618 0.06542 0.22902 0.0
H1007 H 0.81323 0.98961 0.22272 0.0
H1008 H 0.5582 0.96773 0.28647 0.0
H1009 H 0.57861 0.89197 0.28014 0.0
H1010 H 0.60028 0.04711 0.29913 0.0
H1011 H 0.64309 0.10816 0.28817 0.0
C1012 C 0.98337 0.1569 0.50539 0.0
C1013 C 0.95858 0.19057 0.52342 0.0
C1014 C 0.06062 0.20582 0.53856 0.0
C1015 C 0.08699 0.17479 0.52024 0.0
N1016 N 0.07191 0.10296 0.49025 0.0
N1017 N 0.97221 0.2085 0.56244 0.0
C1018 C 0.04787 0.14455 0.50481 0.0
C1019 C 0.99668 0.20202 0.54185 0.0
N1020 N 0.9452 0.13668 0.48906 0.0
N1021 N 0.09534 0.24211 0.55212 0.0
H1022 H 0.92599 0.19917 0.5656 0.0
H1023 H -0.00057 0.21411 0.57648 0.0
H1024 H 0.14172 0.2511 0.54929 0.0
H1025 H 0.07598 0.26874 0.56467 0.0
H1026 H 0.96067 0.11865 0.47412 0.0
H1027 H 0.89748 0.13869 0.4907 0.0
H1028 H 0.0452 0.07599 0.47976 0.0
H1029 H 0.11841 0.09134 0.49011 0.0
C1030 C 0.80742 0.50155 0.79494 0.0
C1031 C 0.8262 0.46321 0.77734 0.0
C1032 C 0.86211 0.55609 0.75794 0.0
C1033 C 0.82569 0.59264 0.77245 0.0
N1034 N 0.75472 0.59581 0.80329 0.0
N1035 N 0.88763 0.45316 0.74461 0.0
C1036 C 0.79621 0.56431 0.79069 0.0
C1037 C 0.85905 0.49035 0.75957 0.0
N1038 N 0.80074 0.47821 0.81567 0.0
N1039 N 0.90063 0.58404 0.74323 0.0
H1040 H 0.89236 0.40592 0.74732 0.0
H1041 H 0.90635 0.46874 0.72982 0.0
H1042 H 0.90496 0.63178 0.74219 0.0
H1043 H 0.93168 0.56034 0.7333 0.0
H1044 H 0.78995 0.50571 0.82927 0.0
H1045 H 0.81453 0.43342 0.81947 0.0
H1046 H 0.72915 0.57462 0.81572 0.0
H1047 H 0.74086 0.64069 0.79976 0.0
C1048 C 0.58316 0.24958 0.52024 0.0
C1049 C 0.59715 0.31107 0.51449 0.0
C1050 C 0.48702 0.33544 0.51259 0.0
C1051 C 0.47331 0.27529 0.52034 0.0
N1052 N 0.51002 0.17826 0.53541 0.0
N1053 N 0.56436 0.41507 0.50746 0.0
C1054 C 0.52184 0.23352 0.52546 0.0
C1055 C 0.5496 0.35487 0.5113 0.0
N1056 N 0.62828 0.20564 0.51998 0.0
N1057 N 0.44028 0.37353 0.50626 0.0
H1058 H 0.60966 0.43009 0.50573 0.0
H1059 H 0.53226 0.4506 0.50729 0.0
H1060 H 0.39408 0.36176 0.50815 0.0
H1061 H 0.44713 0.41529 0.4982 0.0
H1062 H 0.61944 0.15861 0.52114 0.0
H1063 H 0.67416 0.21519 0.51641 0.0
H1064 H 0.54425 0.15029 0.54203 0.0
H1065 H 0.46636 0.16175 0.53883 0.0
C1066 C 0.64271 0.05698 0.75563 0.0
C1067 C 0.67729 0.09189 0.77123 0.0
C1068 C 0.69089 0.99854 0.79289 0.0
C1069 C 0.67531 0.962 0.7744 0.0
N1070 N 0.62087 0.95589 0.73994 0.0
N1071 N 0.74444 0.09075 0.8032 0.0
C1072 C 0.64594 0.99113 0.75626 0.0
C1073 C 0.70384 0.06139 0.7896 0.0
N1074 N 0.60544 0.08642 0.74089 0.0
N1075 N 0.69406 0.97319 0.81344 0.0
H1076 H 0.76022 0.13533 0.80026 0.0
H1077 H 0.76755 0.06796 0.81588 0.0
H1078 H 0.68018 0.92788 0.81638 0.0
H1079 H 0.70268 0.99943 0.82755 0.0
H1080 H 0.57564 0.06355 0.73023 0.0
H1081 H 0.60028 0.13416 0.74071 0.0
H1082 H 0.60571 0.97354 0.72491 0.0
H1083 H 0.61556 0.90837 0.74171 0.0
C1084 C 0.98327 0.25022 1.00111 0.0
C1085 C 0.0288 0.21177 0.01086 0.0
C1086 C 0.9503 0.13255 0.01697 0.0
C1087 C 0.90411 0.17514 0.01047 0.0
N1088 N 0.87666 0.28003 1.00146 0.0
N1089 N 0.05554 0.11768 0.02944 0.0
C1090 C 0.92053 0.23538 0.00383 0.0
C1091 C 0.0123 0.15314 0.0192 0.0
N1092 N -0.00068 0.30122 0.98923 0.0
N1093 N 0.93492 0.0725 0.02075 0.0
H1094 H 0.10163 0.1307 0.03047 0.0
H1095 H 0.04513 0.07736 0.03795 0.0
H1096 H 0.88995 0.05631 0.01927 0.0
H1097 H 0.96714 0.03798 0.02362 0.0
H1098 H 0.96782 0.32636 0.97992 0.0
H1099 H 0.04433 0.31533 0.98673 0.0
H1100 H 0.88726 0.32632 0.99902 0.0
H1101 H 0.83004 0.27262 0.00434 0.0
C1102 C 0.86373 0.45888 0.26357 0.0
C1103 C 0.82474 0.41078 0.27104 0.0
C1104 C 0.74752 0.48612 0.28234 0.0
C1105 C 0.78295 0.53387 0.27244 0.0
N1106 N 0.87264 0.56597 0.25224 0.0
N1107 N 0.72409 0.37757 0.28295 0.0
C1108 C 0.84061 0.52033 0.26265 0.0
C1109 C 0.76537 0.42407 0.27933 0.0
N1110 N 0.92289 0.44575 0.25763 0.0
N1111 N 0.69609 0.49935 0.29445 0.0
H1112 H 0.73406 0.33115 0.28048 0.0
H1113 H 0.67772 0.38523 0.28623 0.0
H1114 H 0.6773 0.54308 0.29606 0.0
H1115 H 0.67409 0.46694 0.30436 0.0
H1116 H 0.95558 0.47925 0.254 0.0
H1117 H 0.94065 0.40112 0.2579 0.0
H1118 H 0.91166 0.55809 0.2427 0.0
H1119 H 0.85815 0.61178 0.25224 0.0
C1120 C 0.01131 0.81755 0.54328 0.0
C1121 C 0.04709 0.82852 0.52432 0.0
C1122 C 0.95404 0.86944 0.50669 0.0
C1123 C 0.91773 0.83734 0.52255 0.0
N1124 N 0.9166 0.77224 0.55518 0.0
N1125 N 0.05496 0.882 0.4898 0.0
C1126 C 0.94748 0.80952 0.54086 0.0
C1127 C 0.01915 0.86023 0.50651 0.0
N1128 N 0.03796 0.81683 0.56356 0.0
N1129 N 0.92674 0.90982 0.49249 0.0
H1130 H 0.10284 0.88166 0.4909 0.0
H1131 H 0.03742 0.89949 0.47508 0.0
H1132 H 0.87987 0.91972 0.49316 0.0
H1133 H 0.95113 0.93767 0.48159 0.0
H1134 H 0.01268 0.8113 0.57807 0.0
H1135 H 0.08327 0.83161 0.56551 0.0
H1136 H 0.93896 0.74871 0.56786 0.0
H1137 H 0.87101 0.75913 0.55285 0.0
C1138 C 0.15078 0.47096 0.76732 0.0
C1139 C 0.18943 0.42149 0.76073 0.0
C1140 C 0.26986 0.4945 0.75058 0.0
C1141 C 0.23482 0.54341 0.75992 0.0
N1142 N 0.14383 0.57816 0.77876 0.0
N1143 N 0.29087 0.38547 0.75096 0.0
C1144 C 0.1757 0.53164 0.76878 0.0
C1145 C 0.25027 0.43304 0.75361 0.0
N1146 N 0.0902 0.46001 0.77175 0.0
N1147 N 0.32219 0.50618 0.73882 0.0
H1148 H 0.27967 0.33954 0.7539 0.0
H1149 H 0.33761 0.39201 0.74811 0.0
H1150 H 0.34104 0.54975 0.73686 0.0
H1151 H 0.34459 0.47273 0.72945 0.0
H1152 H 0.05821 0.49478 0.77458 0.0
H1153 H 0.07092 0.41607 0.77094 0.0
H1154 H 0.1034 0.5713 0.78762 0.0
H1155 H 0.15994 0.62342 0.77922 0.0
C1156 C 0.54811 0.68245 0.03702 0.0
C1157 C 0.5825 0.67886 0.01713 0.0
C1158 C 0.48579 0.66814 0.99691 0.0
C1159 C 0.45218 0.66987 0.01685 0.0
N1160 N 0.45589 0.65086 0.05596 0.0
N1161 N 0.57124 0.71879 0.98025 0.0
C1162 C 0.48517 0.66638 0.03689 0.0
C1163 C 0.5486 0.68453 0.99721 0.0
N1164 N 0.57053 0.7147 0.05456 0.0
N1165 N 0.45718 0.65404 0.97757 0.0
H1166 H 0.61079 0.74545 0.98215 0.0
H1167 H 0.54579 0.72824 0.96604 0.0
H1168 H 0.41155 0.63912 0.97729 0.0
H1169 H 0.48104 0.65076 0.96266 0.0
H1170 H 0.54476 0.72284 0.0688 0.0
H1171 H 0.61025 0.74133 0.05318 0.0
H1172 H 0.47938 0.6459 0.07088 0.0
H1173 H 0.40998 0.63676 0.05599 0.0
C1174 C 0.34238 0.04779 0.27179 0.0
C1175 C 0.29906 0.09374 0.26565 0.0
C1176 C 0.2236 0.0142 0.25709 0.0
C1177 C 0.26414 0.96833 0.26531 0.0
N1178 N 0.35994 0.94105 0.28247 0.0
N1179 N 0.19353 0.12101 0.25803 0.0
C1180 C 0.32306 0.98499 0.27329 0.0
C1181 C 0.23833 0.07707 0.25985 0.0
N1182 N 0.402 0.06415 0.27577 0.0
N1183 N 0.17115 0.99798 0.24617 0.0
H1184 H 0.20137 0.16781 0.26062 0.0
H1185 H 0.14706 0.11043 0.25628 0.0
H1186 H 0.15747 0.95263 0.24388 0.0
H1187 H 0.14468 0.02947 0.23738 0.0
H1188 H 0.43721 0.03249 0.27829 0.0
H1189 H 0.41711 0.10971 0.27504 0.0
H1190 H 0.40098 0.95087 0.29057 0.0
H1191 H 0.34734 0.8947 0.28312 0.0
C1192 C 0.98168 0.81814 0.99854 0.0
C1193 C 0.9499 0.81304 0.01879 0.0
C1194 C 0.04708 0.79526 0.03743 0.0
C1195 C 0.07989 0.80153 0.01727 0.0
N1196 N 0.06457 0.76943 0.97956 0.0
N1197 N 0.95745 0.82603 0.05809 0.0
C1198 C 0.04422 0.80069 0.99764 0.0
C1199 C 0.98472 0.81297 0.03841 0.0
N1200 N 0.95121 0.83566 0.97994 0.0
N1201 N 0.07015 0.75968 0.05397 0.0
H1202 H 0.91177 0.8407 0.05891 0.0
H1203 H 0.98234 0.82821 0.07281 0.0
H1204 H 0.1093 0.73269 0.05164 0.0
H1205 H 0.04537 0.74982 0.06829 0.0
H1206 H 0.97358 0.84154 0.96484 0.0
H1207 H 0.90549 0.85023 0.98058 0.0
H1208 H 0.03773 0.76338 0.96544 0.0
H1209 H 0.10345 0.7414 0.98033 0.0
C1210 C 0.12672 0.54112 0.25353 0.0
C1211 C 0.15346 0.57805 0.27042 0.0
C1212 C 0.16969 0.48511 0.29207 0.0
C1213 C 0.16428 0.44908 0.27279 0.0
N1214 N 0.11984 0.43939 0.23665 0.0
N1215 N 0.20846 0.58169 0.3053 0.0
C1216 C 0.13643 0.47603 0.25395 0.0
C1217 C 0.17628 0.5493 0.28981 0.0
N1218 N 0.09125 0.56794 0.23763 0.0
N1219 N 0.16952 0.45806 0.31236 0.0
H1220 H 0.22007 0.62792 0.30343 0.0
H1221 H 0.22946 0.56048 0.31878 0.0
H1222 H 0.16032 0.41116 0.31423 0.0
H1223 H 0.17052 0.48352 0.32698 0.0
H1224 H 0.06703 0.54314 0.22576 0.0
H1225 H 0.08166 0.61502 0.2376 0.0
H1226 H 0.10612 0.45623 0.22134 0.0
H1227 H 0.12036 0.39144 0.23795 0.0
C1228 C 0.51668 0.65435 0.51677 0.0
C1229 C 0.53952 0.71013 0.50796 0.0
C1230 C 0.43513 0.74539 0.50071 0.0
C1231 C 0.41162 0.68826 0.50812 0.0
N1232 N 0.43153 0.58204 0.51739 0.0
N1233 N 0.52045 0.79489 0.48291 0.0
C1234 C 0.45291 0.64051 0.51436 0.0
C1235 C 0.49882 0.75113 0.49707 0.0
N1236 N 0.55546 0.61516 0.5275 0.0
N1237 N 0.39749 0.7952 0.49799 0.0
H1238 H 0.56614 0.7968 0.47797 0.0
H1239 H 0.49163 0.8231 0.47361 0.0
H1240 H 0.35092 0.79486 0.50198 0.0
H1241 H 0.414 0.83879 0.49394 0.0
H1242 H 0.54027 0.57659 0.53614 0.0
H1243 H 0.60263 0.6234 0.52862 0.0
H1244 H 0.46025 0.54445 0.52015 0.0
H1245 H 0.38532 0.57058 0.51527 0.0
C1246 C 0.32874 0.03196 0.77336 0.0
C1247 C 0.26752 0.04153 0.76611 0.0
C1248 C 0.2511 0.93017 0.76447 0.0
C1249 C 0.31413 0.92037 0.76877 0.0
N1250 N 0.41537 0.96133 0.77538 0.0
N1251 N 0.17528 0.99888 0.74959 0.0
C1252 C 0.35381 0.97114 0.77278 0.0
C1253 C 0.23018 0.99042 0.7601 0.0
N1254 N 0.3626 0.08072 0.78077 0.0
N1255 N 0.2108 0.88185 0.76484 0.0
H1256 H 0.15689 0.0419 0.74613 0.0
H1257 H 0.15025 0.96289 0.74258 0.0
H1258 H 0.22396 0.83686 0.76856 0.0
H1259 H 0.16341 0.88742 0.76365 0.0
H1260 H 0.4054 0.07606 0.78828 0.0
H1261 H 0.34593 0.12579 0.7806 0.0
H1262 H 0.44763 0.99668 0.77612 0.0
H1263 H 0.43464 0.91732 0.77541 0.0
loop_
_geom_bond_atom_site_label_1
_geom_bond_atom_site_label_2
_geom_bond_distance
_geom_bond_site_symmetry_2
_ccdc_geom_bond_type
Co0 O3 1.970 . S
Co0 N17 1.989 . S
Co0 O25 1.967 . S
Co0 O32 1.920 . S
Co1 O4 1.966 . S
Co1 N10 2.022 . S
Co1 N18 1.993 1_556 S
Co1 O26 1.941 . S
C2 O3 1.258 . S
C2 O4 1.263 1_554 S
O3 Co0 1.970 . S
O3 C2 1.258 . S
O4 Co1 1.966 . S
O4 C2 1.263 1_556 S
C5 O6 1.235 . S
C5 O32 1.289 . S
O6 C5 1.235 . S
C7 C9 1.400 . S
C7 N10 1.351 . S
C7 C12 1.501 . S
C8 C9 1.387 . S
C8 N11 1.341 . S
C9 C7 1.400 . S
C9 C8 1.387 . S
N10 Co1 2.022 . S
N10 C7 1.351 . S
N10 N11 1.365 . S
N11 C8 1.341 . S
N11 N10 1.365 . S
N11 H31 0.862 . S
C12 C7 1.501 . S
C12 H13 0.961 . S
C12 H14 0.961 . S
C12 H15 0.960 . S
H13 C12 0.961 . S
H14 C12 0.961 . S
H15 C12 0.960 . S
C16 N17 1.342 . S
C16 C20 1.401 . S
C16 C21 1.499 . S
N17 Co0 1.989 . S
N17 C16 1.342 . S
N17 N18 1.388 . S
N18 Co1 1.993 1_554 S
N18 N17 1.388 . S
N18 C19 1.346 1_554 S
C19 N18 1.346 1_556 S
C19 C20 1.396 1_556 S
C19 C29 1.510 . S
C20 C16 1.401 . S
C20 C19 1.396 1_554 S
C21 C16 1.499 . S
C21 H22 0.959 . S
C21 H23 0.960 . S
C21 H24 0.961 . S
H22 C21 0.959 . S
H23 C21 0.960 . S
H24 C21 0.961 . S
O25 Co0 1.967 . S
O25 C33 1.258 . S
O26 Co1 1.941 . S
O26 C33 1.266 1_556 S
H27 C29 0.959 . S
H28 C29 0.961 . S
C29 C19 1.510 . S
C29 H27 0.959 . S
C29 H28 0.961 . S
C29 H30 0.960 . S
H30 C29 0.960 . S
H31 N11 0.862 . S
O32 Co0 1.920 . S
O32 C5 1.289 . S
C33 O25 1.258 . S
C33 O26 1.266 1_554 S
Co34 O37 1.970 . S
Co34 N51 1.989 . S
Co34 O59 1.967 . S
Co34 O66 1.920 . S
Co35 O38 1.966 . S
Co35 N44 2.022 . S
Co35 N52 1.993 . S
Co35 O60 1.941 . S
C36 O37 1.258 . S
C36 O38 1.263 . S
O37 Co34 1.970 . S
O37 C36 1.258 . S
O38 Co35 1.966 . S
O38 C36 1.263 . S
C39 O40 1.235 . S
C39 O66 1.289 . S
O40 C39 1.235 . S
C41 C43 1.400 . S
C41 N44 1.351 . S
C41 C46 1.501 . S
C42 C43 1.387 . S
C42 N45 1.341 . S
C43 C41 1.400 . S
C43 C42 1.387 . S
N44 Co35 2.022 . S
N44 C41 1.351 . S
N44 N45 1.365 . S
N45 C42 1.341 . S
N45 N44 1.365 . S
N45 H65 0.862 . S
C46 C41 1.501 . S
C46 H47 0.961 . S
C46 H48 0.961 . S
C46 H49 0.960 . S
H47 C46 0.961 . S
H48 C46 0.961 . S
H49 C46 0.960 . S
C50 N51 1.342 . S
C50 C54 1.401 . S
C50 C55 1.499 . S
N51 Co34 1.989 . S
N51 C50 1.342 . S
N51 N52 1.388 . S
N52 Co35 1.993 . S
N52 N51 1.388 . S
N52 C53 1.346 . S
C53 N52 1.346 . S
C53 C54 1.396 . S
C53 C63 1.510 . S
C54 C50 1.401 . S
C54 C53 1.396 . S
C55 C50 1.499 . S
C55 H56 0.959 . S
C55 H57 0.960 . S
C55 H58 0.961 . S
H56 C55 0.959 . S
H57 C55 0.960 . S
H58 C55 0.961 . S
O59 Co34 1.967 . S
O59 C67 1.258 . S
O60 Co35 1.941 . S
O60 C67 1.266 . S
H61 C63 0.959 . S
H62 C63 0.961 . S
C63 C53 1.510 . S
C63 H61 0.959 . S
C63 H62 0.961 . S
C63 H64 0.960 . S
H64 C63 0.960 . S
H65 N45 0.862 . S
O66 Co34 1.920 . S
O66 C39 1.289 . S
C67 O59 1.258 . S
C67 O60 1.266 . S
Co68 O71 1.970 . S
Co68 N85 1.989 . S
Co68 O93 1.967 . S
Co68 O100 1.920 . S
Co69 O72 1.966 . S
Co69 N78 2.022 . S
Co69 N86 1.993 . S
Co69 O94 1.941 . S
C70 O71 1.258 . S
C70 O72 1.263 . S
O71 Co68 1.970 . S
O71 C70 1.258 . S
O72 Co69 1.966 . S
O72 C70 1.263 . S
C73 O74 1.235 . S
C73 O100 1.289 . S
O74 C73 1.235 . S
C75 C77 1.400 . S
C75 N78 1.351 . S
C75 C80 1.501 . S
C76 C77 1.387 . S
C76 N79 1.341 . S
C77 C75 1.400 . S
C77 C76 1.387 . S
N78 Co69 2.022 . S
N78 C75 1.351 . S
N78 N79 1.365 . S
N79 C76 1.341 . S
N79 N78 1.365 . S
N79 H99 0.862 . S
C80 C75 1.501 . S
C80 H81 0.961 . S
C80 H82 0.961 . S
C80 H83 0.960 . S
H81 C80 0.961 . S
H82 C80 0.961 . S
H83 C80 0.960 . S
C84 N85 1.342 . S
C84 C88 1.401 . S
C84 C89 1.499 . S
N85 Co68 1.989 . S
N85 C84 1.342 . S
N85 N86 1.388 . S
N86 Co69 1.993 . S
N86 N85 1.388 . S
N86 C87 1.346 . S
C87 N86 1.346 . S
C87 C88 1.396 . S
C87 C97 1.510 . S
C88 C84 1.401 . S
C88 C87 1.396 . S
C89 C84 1.499 . S
C89 H90 0.959 . S
C89 H91 0.960 . S
C89 H92 0.961 . S
H90 C89 0.959 . S
H91 C89 0.960 . S
H92 C89 0.961 . S
O93 Co68 1.967 . S
O93 C101 1.258 . S
O94 Co69 1.941 . S
O94 C101 1.266 . S
H95 C97 0.959 . S
H96 C97 0.961 . S
C97 C87 1.510 . S
C97 H95 0.959 . S
C97 H96 0.961 . S
C97 H98 0.960 . S
H98 C97 0.960 . S
H99 N79 0.862 . S
O100 Co68 1.920 . S
O100 C73 1.289 . S
C101 O93 1.258 . S
C101 O94 1.266 . S
Co102 O105 1.970 . S
Co102 N119 1.989 . S
Co102 O127 1.967 . S
Co102 O134 1.920 . S
Co103 O106 1.966 . S
Co103 N112 2.022 . S
Co103 N120 1.993 . S
Co103 O128 1.941 . S
C104 O105 1.258 . S
C104 O106 1.263 . S
O105 Co102 1.970 . S
O105 C104 1.258 . S
O106 Co103 1.966 . S
O106 C104 1.263 . S
C107 O108 1.235 . S
C107 O134 1.289 . S
O108 C107 1.235 . S
C109 C111 1.400 . S
C109 N112 1.351 . S
C109 C114 1.501 . S
C110 C111 1.387 . S
C110 N113 1.341 . S
C111 C109 1.400 . S
C111 C110 1.387 . S
N112 Co103 2.022 . S
N112 C109 1.351 . S
N112 N113 1.365 . S
N113 C110 1.341 . S
N113 N112 1.365 . S
N113 H133 0.862 . S
C114 C109 1.501 . S
C114 H115 0.961 . S
C114 H116 0.961 . S
C114 H117 0.960 . S
H115 C114 0.961 . S
H116 C114 0.961 . S
H117 C114 0.960 . S
C118 N119 1.342 . S
C118 C122 1.401 . S
C118 C123 1.499 . S
N119 Co102 1.989 . S
N119 C118 1.342 . S
N119 N120 1.388 . S
N120 Co103 1.993 . S
N120 N119 1.388 . S
N120 C121 1.346 . S
C121 N120 1.346 . S
C121 C122 1.396 . S
C121 C131 1.510 . S
C122 C118 1.401 . S
C122 C121 1.396 . S
C123 C118 1.499 . S
C123 H124 0.959 . S
C123 H125 0.960 . S
C123 H126 0.961 . S
H124 C123 0.959 . S
H125 C123 0.960 . S
H126 C123 0.961 . S
O127 Co102 1.967 . S
O127 C135 1.258 . S
O128 Co103 1.941 . S
O128 C135 1.266 . S
H129 C131 0.959 . S
H130 C131 0.961 . S
C131 C121 1.510 . S
C131 H129 0.959 . S
C131 H130 0.961 . S
C131 H132 0.960 . S
H132 C131 0.960 . S
H133 N113 0.862 . S
O134 Co102 1.920 . S
O134 C107 1.289 . S
C135 O127 1.258 . S
C135 O128 1.266 . S
Co136 O139 1.970 . S
Co136 N153 1.989 . S
Co136 O161 1.967 . S
Co136 O168 1.920 . S
Co137 O140 1.966 . S
Co137 N146 2.022 . S
Co137 N154 1.993 . S
Co137 O162 1.941 . S
C138 O139 1.258 . S
C138 O140 1.263 . S
O139 Co136 1.970 . S
O139 C138 1.258 . S
O140 Co137 1.966 . S
O140 C138 1.263 . S
C141 O142 1.235 . S
C141 O168 1.289 . S
O142 C141 1.235 . S
C143 C145 1.400 . S
C143 N146 1.351 . S
C143 C148 1.501 . S
C144 C145 1.387 . S
C144 N147 1.341 . S
C145 C143 1.400 . S
C145 C144 1.387 . S
N146 Co137 2.022 . S
N146 C143 1.351 . S
N146 N147 1.365 . S
N147 C144 1.341 . S
N147 N146 1.365 . S
N147 H167 0.862 . S
C148 C143 1.501 . S
C148 H149 0.961 . S
C148 H150 0.961 . S
C148 H151 0.960 . S
H149 C148 0.961 . S
H150 C148 0.961 . S
H151 C148 0.960 . S
C152 N153 1.342 . S
C152 C156 1.401 . S
C152 C157 1.499 . S
N153 Co136 1.989 . S
N153 C152 1.342 . S
N153 N154 1.388 . S
N154 Co137 1.993 . S
N154 N153 1.388 . S
N154 C155 1.346 . S
C155 N154 1.346 . S
C155 C156 1.396 . S
C155 C165 1.510 . S
C156 C152 1.401 . S
C156 C155 1.396 . S
C157 C152 1.499 . S
C157 H158 0.959 . S
C157 H159 0.960 . S
C157 H160 0.961 . S
H158 C157 0.959 . S
H159 C157 0.960 . S
H160 C157 0.961 . S
O161 Co136 1.967 . S
O161 C169 1.258 . S
O162 Co137 1.941 . S
O162 C169 1.266 . S
H163 C165 0.959 . S
H164 C165 0.961 . S
C165 C155 1.510 . S
C165 H163 0.959 . S
C165 H164 0.961 . S
C165 H166 0.960 . S
H166 C165 0.960 . S
H167 N147 0.862 . S
O168 Co136 1.920 . S
O168 C141 1.289 . S
C169 O161 1.258 . S
C169 O162 1.266 . S
Co170 O173 1.970 . S
Co170 N187 1.989 . S
Co170 O195 1.967 . S
Co170 O202 1.920 . S
Co171 O174 1.966 . S
Co171 N180 2.022 . S
Co171 N188 1.993 . S
Co171 O196 1.941 . S
C172 O173 1.258 . S
C172 O174 1.263 . S
O173 Co170 1.970 . S
O173 C172 1.258 . S
O174 Co171 1.966 . S
O174 C172 1.263 . S
C175 O176 1.235 . S
C175 O202 1.289 . S
O176 C175 1.235 . S
C177 C179 1.400 . S
C177 N180 1.351 . S
C177 C182 1.501 . S
C178 C179 1.387 . S
C178 N181 1.341 . S
C179 C177 1.400 . S
C179 C178 1.387 . S
N180 Co171 2.022 . S
N180 C177 1.351 . S
N180 N181 1.365 . S
N181 C178 1.341 . S
N181 N180 1.365 . S
N181 H201 0.862 . S
C182 C177 1.501 . S
C182 H183 0.961 . S
C182 H184 0.961 . S
C182 H185 0.960 . S
H183 C182 0.961 . S
H184 C182 0.961 . S
H185 C182 0.960 . S
C186 N187 1.342 . S
C186 C190 1.401 . S
C186 C191 1.499 . S
N187 Co170 1.989 . S
N187 C186 1.342 . S
N187 N188 1.388 . S
N188 Co171 1.993 . S
N188 N187 1.388 . S
N188 C189 1.346 . S
C189 N188 1.346 . S
C189 C190 1.396 . S
C189 C199 1.510 . S
C190 C186 1.401 . S
C190 C189 1.396 . S
C191 C186 1.499 . S
C191 H192 0.959 . S
C191 H193 0.960 . S
C191 H194 0.961 . S
H192 C191 0.959 . S
H193 C191 0.960 . S
H194 C191 0.961 . S
O195 Co170 1.967 . S
O195 C203 1.258 . S
O196 Co171 1.941 . S
O196 C203 1.266 . S
H197 C199 0.959 . S
H198 C199 0.961 . S
C199 C189 1.510 . S
C199 H197 0.959 . S
C199 H198 0.961 . S
C199 H200 0.960 . S
H200 C199 0.960 . S
H201 N181 0.862 . S
O202 Co170 1.920 . S
O202 C175 1.289 . S
C203 O195 1.258 . S
C203 O196 1.266 . S
Co204 O207 1.970 . S
Co204 N221 1.989 . S
Co204 O229 1.967 . S
Co204 O236 1.920 . S
Co205 O208 1.966 . S
Co205 N214 2.022 . S
Co205 N222 1.993 1_556 S
Co205 O230 1.941 . S
C206 O207 1.258 . S
C206 O208 1.263 1_554 S
O207 Co204 1.970 . S
O207 C206 1.258 . S
O208 Co205 1.966 . S
O208 C206 1.263 1_556 S
C209 O210 1.235 . S
C209 O236 1.289 . S
O210 C209 1.235 . S
C211 C213 1.400 . S
C211 N214 1.351 . S
C211 C216 1.501 . S
C212 C213 1.387 . S
C212 N215 1.341 . S
C213 C211 1.400 . S
C213 C212 1.387 . S
N214 Co205 2.022 . S
N214 C211 1.351 . S
N214 N215 1.365 . S
N215 C212 1.341 . S
N215 N214 1.365 . S
N215 H235 0.862 . S
C216 C211 1.501 . S
C216 H217 0.961 . S
C216 H218 0.961 . S
C216 H219 0.960 . S
H217 C216 0.961 . S
H218 C216 0.961 . S
H219 C216 0.960 . S
C220 N221 1.342 . S
C220 C224 1.401 . S
C220 C225 1.499 . S
N221 Co204 1.989 . S
N221 C220 1.342 . S
N221 N222 1.388 . S
N222 Co205 1.993 1_554 S
N222 N221 1.388 . S
N222 C223 1.346 1_554 S
C223 N222 1.346 1_556 S
C223 C224 1.396 1_556 S
C223 C233 1.510 . S
C224 C220 1.401 . S
C224 C223 1.396 1_554 S
C225 C220 1.499 . S
C225 H226 0.959 . S
C225 H227 0.960 . S
C225 H228 0.961 . S
H226 C225 0.959 . S
H227 C225 0.960 . S
H228 C225 0.961 . S
O229 Co204 1.967 . S
O229 C237 1.258 . S
O230 Co205 1.941 . S
O230 C237 1.266 1_556 S
H231 C233 0.959 . S
H232 C233 0.961 . S
C233 C223 1.510 . S
C233 H231 0.959 . S
C233 H232 0.961 . S
C233 H234 0.960 . S
H234 C233 0.960 . S
H235 N215 0.862 . S
O236 Co204 1.920 . S
O236 C209 1.289 . S
C237 O229 1.258 . S
C237 O230 1.266 1_554 S
Co238 O241 1.970 . S
Co238 N255 1.989 . S
Co238 O263 1.967 . S
Co238 O270 1.920 . S
Co239 O242 1.966 . S
Co239 N248 2.022 . S
Co239 N256 1.993 . S
Co239 O264 1.941 . S
C240 O241 1.258 . S
C240 O242 1.263 . S
O241 Co238 1.970 . S
O241 C240 1.258 . S
O242 Co239 1.966 . S
O242 C240 1.263 . S
C243 O244 1.235 . S
C243 O270 1.289 . S
O244 C243 1.235 . S
C245 C247 1.400 . S
C245 N248 1.351 . S
C245 C250 1.501 . S
C246 C247 1.387 . S
C246 N249 1.341 . S
C247 C245 1.400 . S
C247 C246 1.387 . S
N248 Co239 2.022 . S
N248 C245 1.351 . S
N248 N249 1.365 . S
N249 C246 1.341 . S
N249 N248 1.365 . S
N249 H269 0.862 . S
C250 C245 1.501 . S
C250 H251 0.961 . S
C250 H252 0.961 . S
C250 H253 0.960 . S
H251 C250 0.961 . S
H252 C250 0.961 . S
H253 C250 0.960 . S
C254 N255 1.342 . S
C254 C258 1.401 . S
C254 C259 1.499 . S
N255 Co238 1.989 . S
N255 C254 1.342 . S
N255 N256 1.388 . S
N256 Co239 1.993 . S
N256 N255 1.388 . S
N256 C257 1.346 . S
C257 N256 1.346 . S
C257 C258 1.396 . S
C257 C267 1.510 . S
C258 C254 1.401 . S
C258 C257 1.396 . S
C259 C254 1.499 . S
C259 H260 0.959 . S
C259 H261 0.960 . S
C259 H262 0.961 . S
H260 C259 0.959 . S
H261 C259 0.960 . S
H262 C259 0.961 . S
O263 Co238 1.967 . S
O263 C271 1.258 . S
O264 Co239 1.941 . S
O264 C271 1.266 . S
H265 C267 0.959 . S
H266 C267 0.961 . S
C267 C257 1.510 . S
C267 H265 0.959 . S
C267 H266 0.961 . S
C267 H268 0.960 . S
H268 C267 0.960 . S
H269 N249 0.862 . S
O270 Co238 1.920 . S
O270 C243 1.289 . S
C271 O263 1.258 . S
C271 O264 1.266 . S
Co272 O275 1.970 . S
Co272 N289 1.989 . S
Co272 O297 1.967 . S
Co272 O304 1.920 . S
Co273 O276 1.966 . S
Co273 N282 2.022 . S
Co273 N290 1.993 . S
Co273 O298 1.941 . S
C274 O275 1.258 . S
C274 O276 1.263 . S
O275 Co272 1.970 . S
O275 C274 1.258 . S
O276 Co273 1.966 . S
O276 C274 1.263 . S
C277 O278 1.235 . S
C277 O304 1.289 . S
O278 C277 1.235 . S
C279 C281 1.400 . S
C279 N282 1.351 . S
C279 C284 1.501 . S
C280 C281 1.387 . S
C280 N283 1.341 . S
C281 C279 1.400 . S
C281 C280 1.387 . S
N282 Co273 2.022 . S
N282 C279 1.351 . S
N282 N283 1.365 . S
N283 C280 1.341 . S
N283 N282 1.365 . S
N283 H303 0.862 . S
C284 C279 1.501 . S
C284 H285 0.961 . S
C284 H286 0.961 . S
C284 H287 0.960 . S
H285 C284 0.961 . S
H286 C284 0.961 . S
H287 C284 0.960 . S
C288 N289 1.342 . S
C288 C292 1.401 . S
C288 C293 1.499 . S
N289 Co272 1.989 . S
N289 C288 1.342 . S
N289 N290 1.388 . S
N290 Co273 1.993 . S
N290 N289 1.388 . S
N290 C291 1.346 . S
C291 N290 1.346 . S
C291 C292 1.396 . S
C291 C301 1.510 . S
C292 C288 1.401 . S
C292 C291 1.396 . S
C293 C288 1.499 . S
C293 H294 0.959 . S
C293 H295 0.960 . S
C293 H296 0.961 . S
H294 C293 0.959 . S
H295 C293 0.960 . S
H296 C293 0.961 . S
O297 Co272 1.967 . S
O297 C305 1.258 . S
O298 Co273 1.941 . S
O298 C305 1.266 . S
H299 C301 0.959 . S
H300 C301 0.961 . S
C301 C291 1.510 . S
C301 H299 0.959 . S
C301 H300 0.961 . S
C301 H302 0.960 . S
H302 C301 0.960 . S
H303 N283 0.862 . S
O304 Co272 1.920 . S
O304 C277 1.289 . S
C305 O297 1.258 . S
C305 O298 1.266 . S
Co306 O309 1.970 . S
Co306 N323 1.989 . S
Co306 O331 1.967 . S
Co306 O338 1.920 . S
Co307 O310 1.966 . S
Co307 N316 2.022 . S
Co307 N324 1.993 . S
Co307 O332 1.941 . S
C308 O309 1.258 . S
C308 O310 1.263 . S
O309 Co306 1.970 . S
O309 C308 1.258 . S
O310 Co307 1.966 . S
O310 C308 1.263 . S
C311 O312 1.235 . S
C311 O338 1.289 . S
O312 C311 1.235 . S
C313 C315 1.400 . S
C313 N316 1.351 . S
C313 C318 1.501 . S
C314 C315 1.387 . S
C314 N317 1.341 . S
C315 C313 1.400 . S
C315 C314 1.387 . S
N316 Co307 2.022 . S
N316 C313 1.351 . S
N316 N317 1.365 . S
N317 C314 1.341 . S
N317 N316 1.365 . S
N317 H337 0.862 . S
C318 C313 1.501 . S
C318 H319 0.961 . S
C318 H320 0.961 . S
C318 H321 0.960 . S
H319 C318 0.961 . S
H320 C318 0.961 . S
H321 C318 0.960 . S
C322 N323 1.342 . S
C322 C326 1.401 . S
C322 C327 1.499 . S
N323 Co306 1.989 . S
N323 C322 1.342 . S
N323 N324 1.388 . S
N324 Co307 1.993 . S
N324 N323 1.388 . S
N324 C325 1.346 . S
C325 N324 1.346 . S
C325 C326 1.396 . S
C325 C335 1.510 . S
C326 C322 1.401 . S
C326 C325 1.396 . S
C327 C322 1.499 . S
C327 H328 0.959 . S
C327 H329 0.960 . S
C327 H330 0.961 . S
H328 C327 0.959 . S
H329 C327 0.960 . S
H330 C327 0.961 . S
O331 Co306 1.967 . S
O331 C339 1.258 . S
O332 Co307 1.941 . S
O332 C339 1.266 . S
H333 C335 0.959 . S
H334 C335 0.961 . S
C335 C325 1.510 . S
C335 H333 0.959 . S
C335 H334 0.961 . S
C335 H336 0.960 . S
H336 C335 0.960 . S
H337 N317 0.862 . S
O338 Co306 1.920 . S
O338 C311 1.289 . S
C339 O331 1.258 . S
C339 O332 1.266 . S
Co340 O343 1.970 . S
Co340 N357 1.989 . S
Co340 O365 1.967 . S
Co340 O372 1.920 . S
Co341 O344 1.966 . S
Co341 N350 2.022 . S
Co341 N358 1.993 1_556 S
Co341 O366 1.941 . S
C342 O343 1.258 . S
C342 O344 1.263 1_554 S
O343 Co340 1.970 . S
O343 C342 1.258 . S
O344 Co341 1.966 . S
O344 C342 1.263 1_556 S
C345 O346 1.235 . S
C345 O372 1.289 . S
O346 C345 1.235 . S
C347 C349 1.400 . S
C347 N350 1.351 . S
C347 C352 1.501 . S
C348 C349 1.387 . S
C348 N351 1.341 . S
C349 C347 1.400 . S
C349 C348 1.387 . S
N350 Co341 2.022 . S
N350 C347 1.351 . S
N350 N351 1.365 . S
N351 C348 1.341 . S
N351 N350 1.365 . S
N351 H371 0.862 . S
C352 C347 1.501 . S
C352 H353 0.961 . S
C352 H354 0.961 . S
C352 H355 0.960 . S
H353 C352 0.961 . S
H354 C352 0.961 . S
H355 C352 0.960 . S
C356 N357 1.342 . S
C356 C360 1.401 . S
C356 C361 1.499 . S
N357 Co340 1.989 . S
N357 C356 1.342 . S
N357 N358 1.388 . S
N358 Co341 1.993 1_554 S
N358 N357 1.388 . S
N358 C359 1.346 1_554 S
C359 N358 1.346 1_556 S
C359 C360 1.396 1_556 S
C359 C369 1.510 . S
C360 C356 1.401 . S
C360 C359 1.396 1_554 S
C361 C356 1.499 . S
C361 H362 0.959 . S
C361 H363 0.960 . S
C361 H364 0.961 . S
H362 C361 0.959 . S
H363 C361 0.960 . S
H364 C361 0.961 . S
O365 Co340 1.967 . S
O365 C373 1.258 . S
O366 Co341 1.941 . S
O366 C373 1.266 1_556 S
H367 C369 0.959 . S
H368 C369 0.961 . S
C369 C359 1.510 . S
C369 H367 0.959 . S
C369 H368 0.961 . S
C369 H370 0.960 . S
H370 C369 0.960 . S
H371 N351 0.862 . S
O372 Co340 1.920 . S
O372 C345 1.289 . S
C373 O365 1.258 . S
C373 O366 1.266 1_554 S
Co374 O377 1.970 . S
Co374 N391 1.989 . S
Co374 O399 1.967 . S
Co374 O406 1.920 . S
Co375 O378 1.966 . S
Co375 N384 2.022 . S
Co375 N392 1.993 . S
Co375 O400 1.941 . S
C376 O377 1.258 . S
C376 O378 1.263 . S
O377 Co374 1.970 . S
O377 C376 1.258 . S
O378 Co375 1.966 . S
O378 C376 1.263 . S
C379 O380 1.235 . S
C379 O406 1.289 . S
O380 C379 1.235 . S
C381 C383 1.400 . S
C381 N384 1.351 . S
C381 C386 1.501 . S
C382 C383 1.387 . S
C382 N385 1.341 . S
C383 C381 1.400 . S
C383 C382 1.387 . S
N384 Co375 2.022 . S
N384 C381 1.351 . S
N384 N385 1.365 . S
N385 C382 1.341 . S
N385 N384 1.365 . S
N385 H405 0.862 . S
C386 C381 1.501 . S
C386 H387 0.961 . S
C386 H388 0.961 . S
C386 H389 0.960 . S
H387 C386 0.961 . S
H388 C386 0.961 . S
H389 C386 0.960 . S
C390 N391 1.342 . S
C390 C394 1.401 . S
C390 C395 1.499 . S
N391 Co374 1.989 . S
N391 C390 1.342 . S
N391 N392 1.388 . S
N392 Co375 1.993 . S
N392 N391 1.388 . S
N392 C393 1.346 . S
C393 N392 1.346 . S
C393 C394 1.396 . S
C393 C403 1.510 . S
C394 C390 1.401 . S
C394 C393 1.396 . S
C395 C390 1.499 . S
C395 H396 0.959 . S
C395 H397 0.960 . S
C395 H398 0.961 . S
H396 C395 0.959 . S
H397 C395 0.960 . S
H398 C395 0.961 . S
O399 Co374 1.967 . S
O399 C407 1.258 . S
O400 Co375 1.941 . S
O400 C407 1.266 . S
H401 C403 0.959 . S
H402 C403 0.961 . S
C403 C393 1.510 . S
C403 H401 0.959 . S
C403 H402 0.961 . S
C403 H404 0.960 . S
H404 C403 0.960 . S
H405 N385 0.862 . S
O406 Co374 1.920 . S
O406 C379 1.289 . S
C407 O399 1.258 . S
C407 O400 1.266 . S
Co408 O411 1.970 . S
Co408 N425 1.989 . S
Co408 O433 1.967 . S
Co408 O440 1.920 . S
Co409 O412 1.966 . S
Co409 N418 2.022 . S
Co409 N426 1.993 1_556 S
Co409 O434 1.941 . S
C410 O411 1.258 . S
C410 O412 1.263 1_554 S
O411 Co408 1.970 . S
O411 C410 1.258 . S
O412 Co409 1.966 . S
O412 C410 1.263 1_556 S
C413 O414 1.235 . S
C413 O440 1.289 . S
O414 C413 1.235 . S
C415 C417 1.400 . S
C415 N418 1.351 . S
C415 C420 1.501 . S
C416 C417 1.387 . S
C416 N419 1.341 . S
C417 C415 1.400 . S
C417 C416 1.387 . S
N418 Co409 2.022 . S
N418 C415 1.351 . S
N418 N419 1.365 . S
N419 C416 1.341 . S
N419 N418 1.365 . S
N419 H439 0.862 . S
C420 C415 1.501 . S
C420 H421 0.961 . S
C420 H422 0.961 . S
C420 H423 0.960 . S
H421 C420 0.961 . S
H422 C420 0.961 . S
H423 C420 0.960 . S
C424 N425 1.342 . S
C424 C428 1.401 . S
C424 C429 1.499 . S
N425 Co408 1.989 . S
N425 C424 1.342 . S
N425 N426 1.388 . S
N426 Co409 1.993 1_554 S
N426 N425 1.388 . S
N426 C427 1.346 1_554 S
C427 N426 1.346 1_556 S
C427 C428 1.396 1_556 S
C427 C437 1.510 . S
C428 C424 1.401 . S
C428 C427 1.396 1_554 S
C429 C424 1.499 . S
C429 H430 0.959 . S
C429 H431 0.960 . S
C429 H432 0.961 . S
H430 C429 0.959 . S
H431 C429 0.960 . S
H432 C429 0.961 . S
O433 Co408 1.967 . S
O433 C441 1.258 . S
O434 Co409 1.941 . S
O434 C441 1.266 1_556 S
H435 C437 0.959 . S
H436 C437 0.961 . S
C437 C427 1.510 . S
C437 H435 0.959 . S
C437 H436 0.961 . S
C437 H438 0.960 . S
H438 C437 0.960 . S
H439 N419 0.862 . S
O440 Co408 1.920 . S
O440 C413 1.289 . S
C441 O433 1.258 . S
C441 O434 1.266 1_554 S
Co442 O445 1.970 . S
Co442 N459 1.989 . S
Co442 O467 1.967 . S
Co442 O474 1.920 . S
Co443 O446 1.966 . S
Co443 N452 2.022 . S
Co443 N460 1.993 . S
Co443 O468 1.941 . S
C444 O445 1.258 . S
C444 O446 1.263 . S
O445 Co442 1.970 . S
O445 C444 1.258 . S
O446 Co443 1.966 . S
O446 C444 1.263 . S
C447 O448 1.235 . S
C447 O474 1.289 . S
O448 C447 1.235 . S
C449 C451 1.400 . S
C449 N452 1.351 . S
C449 C454 1.501 . S
C450 C451 1.387 . S
C450 N453 1.341 . S
C451 C449 1.400 . S
C451 C450 1.387 . S
N452 Co443 2.022 . S
N452 C449 1.351 . S
N452 N453 1.365 . S
N453 C450 1.341 . S
N453 N452 1.365 . S
N453 H473 0.862 . S
C454 C449 1.501 . S
C454 H455 0.961 . S
C454 H456 0.961 . S
C454 H457 0.960 . S
H455 C454 0.961 . S
H456 C454 0.961 . S
H457 C454 0.960 . S
C458 N459 1.342 . S
C458 C462 1.401 . S
C458 C463 1.499 . S
N459 Co442 1.989 . S
N459 C458 1.342 . S
N459 N460 1.388 . S
N460 Co443 1.993 . S
N460 N459 1.388 . S
N460 C461 1.346 . S
C461 N460 1.346 . S
C461 C462 1.396 . S
C461 C471 1.510 . S
C462 C458 1.401 . S
C462 C461 1.396 . S
C463 C458 1.499 . S
C463 H464 0.959 . S
C463 H465 0.960 . S
C463 H466 0.961 . S
H464 C463 0.959 . S
H465 C463 0.960 . S
H466 C463 0.961 . S
O467 Co442 1.967 . S
O467 C475 1.258 . S
O468 Co443 1.941 . S
O468 C475 1.266 . S
H469 C471 0.959 . S
H470 C471 0.961 . S
C471 C461 1.510 . S
C471 H469 0.959 . S
C471 H470 0.961 . S
C471 H472 0.960 . S
H472 C471 0.960 . S
H473 N453 0.862 . S
O474 Co442 1.920 . S
O474 C447 1.289 . S
C475 O467 1.258 . S
C475 O468 1.266 . S
Co476 O479 1.970 . S
Co476 N493 1.989 . S
Co476 O501 1.967 . S
Co476 O508 1.920 . S
Co477 O480 1.966 . S
Co477 N486 2.022 . S
Co477 N494 1.993 . S
Co477 O502 1.941 . S
C478 O479 1.258 . S
C478 O480 1.263 . S
O479 Co476 1.970 . S
O479 C478 1.258 . S
O480 Co477 1.966 . S
O480 C478 1.263 . S
C481 O482 1.235 . S
C481 O508 1.289 . S
O482 C481 1.235 . S
C483 C485 1.400 . S
C483 N486 1.351 . S
C483 C488 1.501 . S
C484 C485 1.387 . S
C484 N487 1.341 . S
C485 C483 1.400 . S
C485 C484 1.387 . S
N486 Co477 2.022 . S
N486 C483 1.351 . S
N486 N487 1.365 . S
N487 C484 1.341 . S
N487 N486 1.365 . S
N487 H507 0.862 . S
C488 C483 1.501 . S
C488 H489 0.961 . S
C488 H490 0.961 . S
C488 H491 0.960 . S
H489 C488 0.961 . S
H490 C488 0.961 . S
H491 C488 0.960 . S
C492 N493 1.342 . S
C492 C496 1.401 . S
C492 C497 1.499 . S
N493 Co476 1.989 . S
N493 C492 1.342 . S
N493 N494 1.388 . S
N494 Co477 1.993 . S
N494 N493 1.388 . S
N494 C495 1.346 . S
C495 N494 1.346 . S
C495 C496 1.396 . S
C495 C505 1.510 . S
C496 C492 1.401 . S
C496 C495 1.396 . S
C497 C492 1.499 . S
C497 H498 0.959 . S
C497 H499 0.960 . S
C497 H500 0.961 . S
H498 C497 0.959 . S
H499 C497 0.960 . S
H500 C497 0.961 . S
O501 Co476 1.967 . S
O501 C509 1.258 . S
O502 Co477 1.941 . S
O502 C509 1.266 . S
H503 C505 0.959 . S
H504 C505 0.961 . S
C505 C495 1.510 . S
C505 H503 0.959 . S
C505 H504 0.961 . S
C505 H506 0.960 . S
H506 C505 0.960 . S
H507 N487 0.862 . S
O508 Co476 1.920 . S
O508 C481 1.289 . S
C509 O501 1.258 . S
C509 O502 1.266 . S
Co510 O513 1.970 . S
Co510 N527 1.989 . S
Co510 O535 1.967 . S
Co510 O542 1.920 . S
Co511 O514 1.966 . S
Co511 N520 2.022 . S
Co511 N528 1.993 . S
Co511 O536 1.941 . S
C512 O513 1.258 . S
C512 O514 1.263 . S
O513 Co510 1.970 . S
O513 C512 1.258 . S
O514 Co511 1.966 . S
O514 C512 1.263 . S
C515 O516 1.235 . S
C515 O542 1.289 . S
O516 C515 1.235 . S
C517 C519 1.400 . S
C517 N520 1.351 . S
C517 C522 1.501 . S
C518 C519 1.387 . S
C518 N521 1.341 . S
C519 C517 1.400 . S
C519 C518 1.387 . S
N520 Co511 2.022 . S
N520 C517 1.351 . S
N520 N521 1.365 . S
N521 C518 1.341 . S
N521 N520 1.365 . S
N521 H541 0.862 . S
C522 C517 1.501 . S
C522 H523 0.961 . S
C522 H524 0.961 . S
C522 H525 0.960 . S
H523 C522 0.961 . S
H524 C522 0.961 . S
H525 C522 0.960 . S
C526 N527 1.342 . S
C526 C530 1.401 . S
C526 C531 1.499 . S
N527 Co510 1.989 . S
N527 C526 1.342 . S
N527 N528 1.388 . S
N528 Co511 1.993 . S
N528 N527 1.388 . S
N528 C529 1.346 . S
C529 N528 1.346 . S
C529 C530 1.396 . S
C529 C539 1.510 . S
C530 C526 1.401 . S
C530 C529 1.396 . S
C531 C526 1.499 . S
C531 H532 0.959 . S
C531 H533 0.960 . S
C531 H534 0.961 . S
H532 C531 0.959 . S
H533 C531 0.960 . S
H534 C531 0.961 . S
O535 Co510 1.967 . S
O535 C543 1.258 . S
O536 Co511 1.941 . S
O536 C543 1.266 . S
H537 C539 0.959 . S
H538 C539 0.961 . S
C539 C529 1.510 . S
C539 H537 0.959 . S
C539 H538 0.961 . S
C539 H540 0.960 . S
H540 C539 0.960 . S
H541 N521 0.862 . S
O542 Co510 1.920 . S
O542 C515 1.289 . S
C543 O535 1.258 . S
C543 O536 1.266 . S
C544 C545 1.363 . S
C544 C550 1.379 . S
C544 N552 1.356 . S
C545 C544 1.363 . S
C545 C551 1.363 . S
C546 C547 1.363 . S
C546 C551 1.379 . S
C546 N553 1.356 . S
C547 C546 1.363 . S
C547 C550 1.363 . S
N548 C550 1.356 . S
N548 H560 0.984 . S
N548 H561 0.985 . S
N549 C551 1.356 . S
N549 H554 0.984 . S
N549 H555 0.985 . S
C550 C544 1.379 . S
C550 C547 1.363 . S
C550 N548 1.356 . S
C551 C545 1.363 . S
C551 C546 1.379 . S
C551 N549 1.356 . S
N552 C544 1.356 . S
N552 H558 0.984 . S
N552 H559 0.984 . S
N553 C546 1.356 . S
N553 H556 0.984 . S
N553 H557 0.985 . S
H554 N549 0.984 . S
H555 N549 0.985 . S
H556 N553 0.984 . S
H557 N553 0.985 . S
H558 N552 0.984 . S
H559 N552 0.984 . S
H560 N548 0.984 . S
H561 N548 0.985 . S
C562 C563 1.363 . S
C562 C568 1.379 . S
C562 N570 1.356 . S
C563 C562 1.363 . S
C563 C569 1.363 . S
C564 C565 1.363 . S
C564 C569 1.379 . S
C564 N571 1.356 . S
C565 C564 1.363 . S
C565 C568 1.363 . S
N566 C568 1.356 . S
N566 H578 0.984 . S
N566 H579 0.985 . S
N567 C569 1.356 . S
N567 H572 0.984 . S
N567 H573 0.985 . S
C568 C562 1.379 . S
C568 C565 1.363 . S
C568 N566 1.356 . S
C569 C563 1.363 . S
C569 C564 1.379 . S
C569 N567 1.356 . S
N570 C562 1.356 . S
N570 H576 0.984 . S
N570 H577 0.984 . S
N571 C564 1.356 . S
N571 H574 0.984 . S
N571 H575 0.985 . S
H572 N567 0.984 . S
H573 N567 0.985 . S
H574 N571 0.984 . S
H575 N571 0.985 . S
H576 N570 0.984 . S
H577 N570 0.984 . S
H578 N566 0.984 . S
H579 N566 0.985 . S
C580 C581 1.363 . S
C580 C586 1.379 . S
C580 N588 1.356 . S
C581 C580 1.363 . S
C581 C587 1.363 . S
C582 C583 1.363 . S
C582 C587 1.379 . S
C582 N589 1.356 . S
C583 C582 1.363 . S
C583 C586 1.363 . S
N584 C586 1.356 . S
N584 H596 0.984 . S
N584 H597 0.985 . S
N585 C587 1.356 . S
N585 H590 0.984 . S
N585 H591 0.985 . S
C586 C580 1.379 . S
C586 C583 1.363 . S
C586 N584 1.356 . S
C587 C581 1.363 . S
C587 C582 1.379 . S
C587 N585 1.356 . S
N588 C580 1.356 . S
N588 H594 0.984 . S
N588 H595 0.984 . S
N589 C582 1.356 . S
N589 H592 0.984 . S
N589 H593 0.985 . S
H590 N585 0.984 . S
H591 N585 0.985 . S
H592 N589 0.984 . S
H593 N589 0.985 . S
H594 N588 0.984 . S
H595 N588 0.984 . S
H596 N584 0.984 . S
H597 N584 0.985 . S
C598 C599 1.363 . S
C598 C604 1.379 . S
C598 N606 1.356 . S
C599 C598 1.363 . S
C599 C605 1.363 . S
C600 C601 1.363 . S
C600 C605 1.379 . S
C600 N607 1.356 . S
C601 C600 1.363 . S
C601 C604 1.363 . S
N602 C604 1.356 . S
N602 H614 0.984 . S
N602 H615 0.985 . S
N603 C605 1.356 . S
N603 H608 0.984 . S
N603 H609 0.985 . S
C604 C598 1.379 . S
C604 C601 1.363 . S
C604 N602 1.356 . S
C605 C599 1.363 . S
C605 C600 1.379 . S
C605 N603 1.356 . S
N606 C598 1.356 . S
N606 H612 0.984 . S
N606 H613 0.984 . S
N607 C600 1.356 . S
N607 H610 0.984 . S
N607 H611 0.985 . S
H608 N603 0.984 . S
H609 N603 0.985 . S
H610 N607 0.984 . S
H611 N607 0.985 . S
H612 N606 0.984 . S
H613 N606 0.984 . S
H614 N602 0.984 . S
H615 N602 0.985 . S
C616 C617 1.363 . S
C616 C622 1.379 . S
C616 N624 1.356 . S
C617 C616 1.363 . S
C617 C623 1.363 . S
C618 C619 1.363 . S
C618 C623 1.379 . S
C618 N625 1.356 . S
C619 C618 1.363 . S
C619 C622 1.363 . S
N620 C622 1.356 . S
N620 H632 0.984 . S
N620 H633 0.985 . S
N621 C623 1.356 . S
N621 H626 0.984 . S
N621 H627 0.985 . S
C622 C616 1.379 . S
C622 C619 1.363 . S
C622 N620 1.356 . S
C623 C617 1.363 . S
C623 C618 1.379 . S
C623 N621 1.356 . S
N624 C616 1.356 . S
N624 H630 0.984 . S
N624 H631 0.984 . S
N625 C618 1.356 . S
N625 H628 0.984 . S
N625 H629 0.985 . S
H626 N621 0.984 . S
H627 N621 0.985 . S
H628 N625 0.984 . S
H629 N625 0.985 . S
H630 N624 0.984 . S
H631 N624 0.984 . S
H632 N620 0.984 . S
H633 N620 0.985 . S
C634 C635 1.363 . S
C634 C640 1.379 . S
C634 N642 1.356 . S
C635 C634 1.363 . S
C635 C641 1.363 . S
C636 C637 1.363 . S
C636 C641 1.379 . S
C636 N643 1.356 . S
C637 C636 1.363 . S
C637 C640 1.363 . S
N638 C640 1.356 . S
N638 H650 0.984 . S
N638 H651 0.985 . S
N639 C641 1.356 . S
N639 H644 0.984 . S
N639 H645 0.985 . S
C640 C634 1.379 . S
C640 C637 1.363 . S
C640 N638 1.356 . S
C641 C635 1.363 . S
C641 C636 1.379 . S
C641 N639 1.356 . S
N642 C634 1.356 . S
N642 H648 0.984 . S
N642 H649 0.984 . S
N643 C636 1.356 . S
N643 H646 0.984 . S
N643 H647 0.985 . S
H644 N639 0.984 . S
H645 N639 0.985 . S
H646 N643 0.984 . S
H647 N643 0.985 . S
H648 N642 0.984 . S
H649 N642 0.984 . S
H650 N638 0.984 . S
H651 N638 0.985 . S
C652 C653 1.363 . S
C652 C658 1.379 . S
C652 N660 1.356 . S
C653 C652 1.363 . S
C653 C659 1.363 . S
C654 C655 1.363 . S
C654 C659 1.379 . S
C654 N661 1.356 . S
C655 C654 1.363 . S
C655 C658 1.363 . S
N656 C658 1.356 . S
N656 H668 0.984 . S
N656 H669 0.985 . S
N657 C659 1.356 . S
N657 H662 0.984 . S
N657 H663 0.985 . S
C658 C652 1.379 . S
C658 C655 1.363 . S
C658 N656 1.356 . S
C659 C653 1.363 . S
C659 C654 1.379 . S
C659 N657 1.356 . S
N660 C652 1.356 . S
N660 H666 0.984 . S
N660 H667 0.984 . S
N661 C654 1.356 . S
N661 H664 0.984 . S
N661 H665 0.985 . S
H662 N657 0.984 . S
H663 N657 0.985 . S
H664 N661 0.984 . S
H665 N661 0.985 . S
H666 N660 0.984 . S
H667 N660 0.984 . S
H668 N656 0.984 . S
H669 N656 0.985 . S
C670 C671 1.363 . S
C670 C676 1.379 . S
C670 N678 1.356 . S
C671 C670 1.363 . S
C671 C677 1.363 . S
C672 C673 1.363 . S
C672 C677 1.379 . S
C672 N679 1.356 . S
C673 C672 1.363 . S
C673 C676 1.363 . S
N674 C676 1.356 . S
N674 H686 0.984 . S
N674 H687 0.985 . S
N675 C677 1.356 . S
N675 H680 0.984 . S
N675 H681 0.985 . S
C676 C670 1.379 . S
C676 C673 1.363 . S
C676 N674 1.356 . S
C677 C671 1.363 . S
C677 C672 1.379 . S
C677 N675 1.356 . S
N678 C670 1.356 . S
N678 H684 0.984 . S
N678 H685 0.984 . S
N679 C672 1.356 . S
N679 H682 0.984 . S
N679 H683 0.985 . S
H680 N675 0.984 . S
H681 N675 0.985 . S
H682 N679 0.984 . S
H683 N679 0.985 . S
H684 N678 0.984 . S
H685 N678 0.984 . S
H686 N674 0.984 . S
H687 N674 0.985 . S
C688 C689 1.363 . S
C688 C694 1.379 . S
C688 N696 1.356 . S
C689 C688 1.363 . S
C689 C695 1.363 . S
C690 C691 1.363 . S
C690 C695 1.379 . S
C690 N697 1.356 . S
C691 C690 1.363 . S
C691 C694 1.363 . S
N692 C694 1.356 . S
N692 H704 0.984 . S
N692 H705 0.985 . S
N693 C695 1.356 . S
N693 H698 0.984 . S
N693 H699 0.985 . S
C694 C688 1.379 . S
C694 C691 1.363 . S
C694 N692 1.356 . S
C695 C689 1.363 . S
C695 C690 1.379 . S
C695 N693 1.356 . S
N696 C688 1.356 . S
N696 H702 0.984 . S
N696 H703 0.984 . S
N697 C690 1.356 . S
N697 H700 0.984 . S
N697 H701 0.985 . S
H698 N693 0.984 . S
H699 N693 0.985 . S
H700 N697 0.984 . S
H701 N697 0.985 . S
H702 N696 0.984 . S
H703 N696 0.984 . S
H704 N692 0.984 . S
H705 N692 0.985 . S
C706 C707 1.363 . S
C706 C712 1.379 . S
C706 N714 1.356 . S
C707 C706 1.363 . S
C707 C713 1.363 . S
C708 C709 1.363 . S
C708 C713 1.379 . S
C708 N715 1.356 . S
C709 C708 1.363 . S
C709 C712 1.363 . S
N710 C712 1.356 . S
N710 H722 0.984 . S
N710 H723 0.985 . S
N711 C713 1.356 . S
N711 H716 0.984 . S
N711 H717 0.985 . S
C712 C706 1.379 . S
C712 C709 1.363 . S
C712 N710 1.356 . S
C713 C707 1.363 . S
C713 C708 1.379 . S
C713 N711 1.356 . S
N714 C706 1.356 . S
N714 H720 0.984 . S
N714 H721 0.984 . S
N715 C708 1.356 . S
N715 H718 0.984 . S
N715 H719 0.985 . S
H716 N711 0.984 . S
H717 N711 0.985 . S
H718 N715 0.984 . S
H719 N715 0.985 . S
H720 N714 0.984 . S
H721 N714 0.984 . S
H722 N710 0.984 . S
H723 N710 0.985 . S
C724 C725 1.363 . S
C724 C730 1.379 . S
C724 N732 1.356 . S
C725 C724 1.363 . S
C725 C731 1.363 . S
C726 C727 1.363 . S
C726 C731 1.379 . S
C726 N733 1.356 . S
C727 C726 1.363 . S
C727 C730 1.363 . S
N728 C730 1.356 . S
N728 H740 0.984 . S
N728 H741 0.985 . S
N729 C731 1.356 . S
N729 H734 0.984 . S
N729 H735 0.985 . S
C730 C724 1.379 . S
C730 C727 1.363 . S
C730 N728 1.356 . S
C731 C725 1.363 . S
C731 C726 1.379 . S
C731 N729 1.356 . S
N732 C724 1.356 . S
N732 H738 0.984 . S
N732 H739 0.984 . S
N733 C726 1.356 . S
N733 H736 0.984 . S
N733 H737 0.985 . S
H734 N729 0.984 . S
H735 N729 0.985 . S
H736 N733 0.984 . S
H737 N733 0.985 . S
H738 N732 0.984 . S
H739 N732 0.984 . S
H740 N728 0.984 . S
H741 N728 0.985 . S
C742 C743 1.363 . S
C742 C748 1.379 . S
C742 N750 1.356 . S
C743 C742 1.363 . S
C743 C749 1.363 . S
C744 C745 1.363 . S
C744 C749 1.379 . S
C744 N751 1.356 . S
C745 C744 1.363 . S
C745 C748 1.363 . S
N746 C748 1.356 . S
N746 H758 0.984 . S
N746 H759 0.985 . S
N747 C749 1.356 . S
N747 H752 0.984 . S
N747 H753 0.985 . S
C748 C742 1.379 . S
C748 C745 1.363 . S
C748 N746 1.356 . S
C749 C743 1.363 . S
C749 C744 1.379 . S
C749 N747 1.356 . S
N750 C742 1.356 . S
N750 H756 0.984 . S
N750 H757 0.984 . S
N751 C744 1.356 . S
N751 H754 0.984 . S
N751 H755 0.985 . S
H752 N747 0.984 . S
H753 N747 0.985 . S
H754 N751 0.984 . S
H755 N751 0.985 . S
H756 N750 0.984 . S
H757 N750 0.984 . S
H758 N746 0.984 . S
H759 N746 0.985 . S
C760 C761 1.363 . S
C760 C766 1.379 . S
C760 N768 1.356 . S
C761 C760 1.363 . S
C761 C767 1.363 . S
C762 C763 1.363 . S
C762 C767 1.379 . S
C762 N769 1.356 . S
C763 C762 1.363 . S
C763 C766 1.363 . S
N764 C766 1.356 . S
N764 H776 0.984 . S
N764 H777 0.985 . S
N765 C767 1.356 . S
N765 H770 0.984 . S
N765 H771 0.985 . S
C766 C760 1.379 . S
C766 C763 1.363 . S
C766 N764 1.356 . S
C767 C761 1.363 . S
C767 C762 1.379 . S
C767 N765 1.356 . S
N768 C760 1.356 . S
N768 H774 0.984 . S
N768 H775 0.984 . S
N769 C762 1.356 . S
N769 H772 0.984 . S
N769 H773 0.985 . S
H770 N765 0.984 . S
H771 N765 0.985 . S
H772 N769 0.984 . S
H773 N769 0.985 . S
H774 N768 0.984 . S
H775 N768 0.984 . S
H776 N764 0.984 . S
H777 N764 0.985 . S
C778 C779 1.363 . S
C778 C784 1.379 . S
C778 N786 1.356 . S
C779 C778 1.363 . S
C779 C785 1.363 . S
C780 C781 1.363 . S
C780 C785 1.379 . S
C780 N787 1.356 . S
C781 C780 1.363 . S
C781 C784 1.363 . S
N782 C784 1.356 . S
N782 H794 0.984 . S
N782 H795 0.985 . S
N783 C785 1.356 . S
N783 H788 0.984 . S
N783 H789 0.985 . S
C784 C778 1.379 . S
C784 C781 1.363 . S
C784 N782 1.356 . S
C785 C779 1.363 . S
C785 C780 1.379 . S
C785 N783 1.356 . S
N786 C778 1.356 . S
N786 H792 0.984 . S
N786 H793 0.984 . S
N787 C780 1.356 . S
N787 H790 0.984 . S
N787 H791 0.985 . S
H788 N783 0.984 . S
H789 N783 0.985 . S
H790 N787 0.984 . S
H791 N787 0.985 . S
H792 N786 0.984 . S
H793 N786 0.984 . S
H794 N782 0.984 . S
H795 N782 0.985 . S
C796 C797 1.363 . S
C796 C802 1.379 . S
C796 N804 1.356 . S
C797 C796 1.363 . S
C797 C803 1.363 . S
C798 C799 1.363 . S
C798 C803 1.379 . S
C798 N805 1.356 . S
C799 C798 1.363 . S
C799 C802 1.363 . S
N800 C802 1.356 . S
N800 H812 0.984 . S
N800 H813 0.985 . S
N801 C803 1.356 . S
N801 H806 0.984 . S
N801 H807 0.985 . S
C802 C796 1.379 . S
C802 C799 1.363 . S
C802 N800 1.356 . S
C803 C797 1.363 . S
C803 C798 1.379 . S
C803 N801 1.356 . S
N804 C796 1.356 . S
N804 H810 0.984 . S
N804 H811 0.984 . S
N805 C798 1.356 . S
N805 H808 0.984 . S
N805 H809 0.985 . S
H806 N801 0.984 . S
H807 N801 0.985 . S
H808 N805 0.984 . S
H809 N805 0.985 . S
H810 N804 0.984 . S
H811 N804 0.984 . S
H812 N800 0.984 . S
H813 N800 0.985 . S
C814 C815 1.363 . S
C814 C820 1.379 . S
C814 N822 1.356 . S
C815 C814 1.363 . S
C815 C821 1.363 . S
C816 C817 1.363 . S
C816 C821 1.379 . S
C816 N823 1.356 . S
C817 C816 1.363 . S
C817 C820 1.363 . S
N818 C820 1.356 . S
N818 H830 0.984 . S
N818 H831 0.985 . S
N819 C821 1.356 . S
N819 H824 0.984 . S
N819 H825 0.985 . S
C820 C814 1.379 . S
C820 C817 1.363 . S
C820 N818 1.356 . S
C821 C815 1.363 . S
C821 C816 1.379 . S
C821 N819 1.356 . S
N822 C814 1.356 . S
N822 H828 0.984 . S
N822 H829 0.984 . S
N823 C816 1.356 . S
N823 H826 0.984 . S
N823 H827 0.985 . S
H824 N819 0.984 . S
H825 N819 0.985 . S
H826 N823 0.984 . S
H827 N823 0.985 . S
H828 N822 0.984 . S
H829 N822 0.984 . S
H830 N818 0.984 . S
H831 N818 0.985 . S
C832 C833 1.363 1_556 S
C832 C838 1.379 1_455 S
C832 N840 1.356 . S
C833 C832 1.363 1_554 S
C833 C839 1.363 . S
C834 C835 1.363 . S
C834 C839 1.379 1_655 S
C834 N841 1.356 . S
C835 C834 1.363 . S
C835 C838 1.363 1_554 S
N836 C838 1.356 . S
N836 H848 0.984 1_655 S
N836 H849 0.985 . S
N837 C839 1.356 . S
N837 H842 0.984 . S
N837 H843 0.985 1_455 S
C838 C832 1.379 1_655 S
C838 C835 1.363 1_556 S
C838 N836 1.356 . S
C839 C833 1.363 . S
C839 C834 1.379 1_455 S
C839 N837 1.356 . S
N840 C832 1.356 . S
N840 H846 0.984 . S
N840 H847 0.984 . S
N841 C834 1.356 . S
N841 H844 0.984 . S
N841 H845 0.985 . S
H842 N837 0.984 . S
H843 N837 0.985 1_655 S
H844 N841 0.984 . S
H845 N841 0.985 . S
H846 N840 0.984 . S
H847 N840 0.984 . S
H848 N836 0.984 1_455 S
H849 N836 0.985 . S
C850 C851 1.363 . S
C850 C856 1.379 . S
C850 N858 1.356 . S
C851 C850 1.363 . S
C851 C857 1.363 . S
C852 C853 1.363 . S
C852 C857 1.379 . S
C852 N859 1.356 . S
C853 C852 1.363 . S
C853 C856 1.363 . S
N854 C856 1.356 . S
N854 H866 0.984 . S
N854 H867 0.985 . S
N855 C857 1.356 . S
N855 H860 0.984 . S
N855 H861 0.985 . S
C856 C850 1.379 . S
C856 C853 1.363 . S
C856 N854 1.356 . S
C857 C851 1.363 . S
C857 C852 1.379 . S
C857 N855 1.356 . S
N858 C850 1.356 . S
N858 H864 0.984 . S
N858 H865 0.984 . S
N859 C852 1.356 . S
N859 H862 0.984 . S
N859 H863 0.985 . S
H860 N855 0.984 . S
H861 N855 0.985 . S
H862 N859 0.984 . S
H863 N859 0.985 . S
H864 N858 0.984 . S
H865 N858 0.984 . S
H866 N854 0.984 . S
H867 N854 0.985 . S
C868 C869 1.363 1_545 S
C868 C874 1.379 . S
C868 N876 1.356 1_545 S
C869 C868 1.363 1_565 S
C869 C875 1.363 . S
C870 C871 1.363 1_565 S
C870 C875 1.379 . S
C870 N877 1.356 1_565 S
C871 C870 1.363 1_545 S
C871 C874 1.363 . S
N872 C874 1.356 . S
N872 H884 0.984 . S
N872 H885 0.985 . S
N873 C875 1.356 . S
N873 H878 0.984 . S
N873 H879 0.985 . S
C874 C868 1.379 . S
C874 C871 1.363 . S
C874 N872 1.356 . S
C875 C869 1.363 . S
C875 C870 1.379 . S
C875 N873 1.356 . S
N876 C868 1.356 1_565 S
N876 H882 0.984 1_565 S
N876 H883 0.984 . S
N877 C870 1.356 1_545 S
N877 H880 0.984 . S
N877 H881 0.985 1_545 S
H878 N873 0.984 . S
H879 N873 0.985 . S
H880 N877 0.984 . S
H881 N877 0.985 1_565 S
H882 N876 0.984 1_545 S
H883 N876 0.984 . S
H884 N872 0.984 . S
H885 N872 0.985 . S
C886 C887 1.363 . S
C886 C892 1.379 1_545 S
C886 N894 1.356 . S
C887 C886 1.363 . S
C887 C893 1.363 1_455 S
C888 C889 1.363 . S
C888 C893 1.379 1_565 S
C888 N895 1.356 . S
C889 C888 1.363 . S
C889 C892 1.363 1_655 S
N890 C892 1.356 1_655 S
N890 H902 0.984 1_655 S
N890 H903 0.985 . S
N891 C893 1.356 1_455 S
N891 H896 0.984 . S
N891 H897 0.985 1_455 S
C892 C886 1.379 1_565 S
C892 C889 1.363 1_455 S
C892 N890 1.356 1_455 S
C893 C887 1.363 1_655 S
C893 C888 1.379 1_545 S
C893 N891 1.356 1_655 S
N894 C886 1.356 . S
N894 H900 0.984 1_545 S
N894 H901 0.984 . S
N895 C888 1.356 . S
N895 H898 0.984 . S
N895 H899 0.985 1_565 S
H896 N891 0.984 . S
H897 N891 0.985 1_655 S
H898 N895 0.984 . S
H899 N895 0.985 1_545 S
H900 N894 0.984 1_565 S
H901 N894 0.984 . S
H902 N890 0.984 1_455 S
H903 N890 0.985 . S
C904 C905 1.363 . S
C904 C910 1.379 1_655 S
C904 N912 1.356 . S
C905 C904 1.363 . S
C905 C911 1.363 . S
C906 C907 1.363 . S
C906 C911 1.379 1_455 S
C906 N913 1.356 . S
C907 C906 1.363 . S
C907 C910 1.363 . S
N908 C910 1.356 . S
N908 H920 0.984 . S
N908 H921 0.985 . S
N909 C911 1.356 . S
N909 H914 0.984 . S
N909 H915 0.985 . S
C910 C904 1.379 1_455 S
C910 C907 1.363 . S
C910 N908 1.356 . S
C911 C905 1.363 . S
C911 C906 1.379 1_655 S
C911 N909 1.356 . S
N912 C904 1.356 . S
N912 H918 0.984 1_655 S
N912 H919 0.984 . S
N913 C906 1.356 . S
N913 H916 0.984 . S
N913 H917 0.985 1_455 S
H914 N909 0.984 . S
H915 N909 0.985 . S
H916 N913 0.984 . S
H917 N913 0.985 1_655 S
H918 N912 0.984 1_455 S
H919 N912 0.984 . S
H920 N908 0.984 . S
H921 N908 0.985 . S
C922 C923 1.363 . S
C922 C928 1.379 . S
C922 N930 1.356 . S
C923 C922 1.363 . S
C923 C929 1.363 . S
C924 C925 1.363 . S
C924 C929 1.379 . S
C924 N931 1.356 . S
C925 C924 1.363 . S
C925 C928 1.363 . S
N926 C928 1.356 . S
N926 H938 0.984 . S
N926 H939 0.985 . S
N927 C929 1.356 . S
N927 H932 0.984 . S
N927 H933 0.985 . S
C928 C922 1.379 . S
C928 C925 1.363 . S
C928 N926 1.356 . S
C929 C923 1.363 . S
C929 C924 1.379 . S
C929 N927 1.356 . S
N930 C922 1.356 . S
N930 H936 0.984 . S
N930 H937 0.984 . S
N931 C924 1.356 . S
N931 H934 0.984 . S
N931 H935 0.985 . S
H932 N927 0.984 . S
H933 N927 0.985 . S
H934 N931 0.984 . S
H935 N931 0.985 . S
H936 N930 0.984 . S
H937 N930 0.984 . S
H938 N926 0.984 . S
H939 N926 0.985 . S
C940 C941 1.363 1_556 S
C940 C946 1.379 . S
C940 N948 1.356 . S
C941 C940 1.363 1_554 S
C941 C947 1.363 1_545 S
C942 C943 1.363 . S
C942 C947 1.379 . S
C942 N949 1.356 . S
C943 C942 1.363 . S
C943 C946 1.363 1_564 S
N944 C946 1.356 1_565 S
N944 H956 0.984 1_565 S
N944 H957 0.985 . S
N945 C947 1.356 1_545 S
N945 H950 0.984 . S
N945 H951 0.985 1_545 S
C946 C940 1.379 . S
C946 C943 1.363 1_546 S
C946 N944 1.356 1_545 S
C947 C941 1.363 1_565 S
C947 C942 1.379 . S
C947 N945 1.356 1_565 S
N948 C940 1.356 . S
N948 H954 0.984 . S
N948 H955 0.984 . S
N949 C942 1.356 . S
N949 H952 0.984 . S
N949 H953 0.985 . S
H950 N945 0.984 . S
H951 N945 0.985 1_565 S
H952 N949 0.984 . S
H953 N949 0.985 . S
H954 N948 0.984 . S
H955 N948 0.984 . S
H956 N944 0.984 1_545 S
H957 N944 0.985 . S
C958 C959 1.363 . S
C958 C964 1.379 1_565 S
C958 N966 1.356 . S
C959 C958 1.363 . S
C959 C965 1.363 1_455 S
C960 C961 1.363 . S
C960 C965 1.379 1_545 S
C960 N967 1.356 . S
C961 C960 1.363 . S
C961 C964 1.363 1_655 S
N962 C964 1.356 1_655 S
N962 H974 0.984 1_655 S
N962 H975 0.985 . S
N963 C965 1.356 1_455 S
N963 H968 0.984 . S
N963 H969 0.985 1_455 S
C964 C958 1.379 1_545 S
C964 C961 1.363 1_455 S
C964 N962 1.356 1_455 S
C965 C959 1.363 1_655 S
C965 C960 1.379 1_565 S
C965 N963 1.356 1_655 S
N966 C958 1.356 . S
N966 H972 0.984 1_565 S
N966 H973 0.984 . S
N967 C960 1.356 . S
N967 H970 0.984 . S
N967 H971 0.985 1_545 S
H968 N963 0.984 . S
H969 N963 0.985 1_655 S
H970 N967 0.984 . S
H971 N967 0.985 1_565 S
H972 N966 0.984 1_545 S
H973 N966 0.984 . S
H974 N962 0.984 1_455 S
H975 N962 0.985 . S
C976 C977 1.363 . S
C976 C982 1.379 . S
C976 N984 1.356 . S
C977 C976 1.363 . S
C977 C983 1.363 1_554 S
C978 C979 1.363 1_556 S
C978 C983 1.379 . S
C978 N985 1.356 . S
C979 C978 1.363 1_554 S
C979 C982 1.363 . S
N980 C982 1.356 . S
N980 H992 0.984 . S
N980 H993 0.985 . S
N981 C983 1.356 . S
N981 H986 0.984 . S
N981 H987 0.985 . S
C982 C976 1.379 . S
C982 C979 1.363 . S
C982 N980 1.356 . S
C983 C977 1.363 1_556 S
C983 C978 1.379 . S
C983 N981 1.356 . S
N984 C976 1.356 . S
N984 H990 0.984 . S
N984 H991 0.984 . S
N985 C978 1.356 . S
N985 H988 0.984 . S
N985 H989 0.985 . S
H986 N981 0.984 . S
H987 N981 0.985 . S
H988 N985 0.984 . S
H989 N985 0.985 . S
H990 N984 0.984 . S
H991 N984 0.984 . S
H992 N980 0.984 . S
H993 N980 0.985 . S
C994 C995 1.363 . S
C994 C1000 1.379 . S
C994 N1002 1.356 . S
C995 C994 1.363 . S
C995 C1001 1.363 . S
C996 C997 1.363 . S
C996 C1001 1.379 . S
C996 N1003 1.356 1_565 S
C997 C996 1.363 . S
C997 C1000 1.363 . S
N998 C1000 1.356 . S
N998 H1010 0.984 . S
N998 H1011 0.985 1_565 S
N999 C1001 1.356 . S
N999 H1004 0.984 . S
N999 H1005 0.985 . S
C1000 C994 1.379 . S
C1000 C997 1.363 . S
C1000 N998 1.356 . S
C1001 C995 1.363 . S
C1001 C996 1.379 . S
C1001 N999 1.356 . S
N1002 C994 1.356 . S
N1002 H1008 0.984 . S
N1002 H1009 0.984 . S
N1003 C996 1.356 1_545 S
N1003 H1006 0.984 . S
N1003 H1007 0.984 1_545 S
H1004 N999 0.984 . S
H1005 N999 0.985 . S
H1006 N1003 0.984 . S
H1007 N1003 0.984 1_565 S
H1008 N1002 0.984 . S
H1009 N1002 0.984 . S
H1010 N998 0.984 . S
H1011 N998 0.985 1_545 S
C1012 C1013 1.363 . S
C1012 C1018 1.379 . S
C1012 N1020 1.356 . S
C1013 C1012 1.363 . S
C1013 C1019 1.363 . S
C1014 C1015 1.363 . S
C1014 C1019 1.379 . S
C1014 N1021 1.356 . S
C1015 C1014 1.363 . S
C1015 C1018 1.363 . S
N1016 C1018 1.356 . S
N1016 H1028 0.984 . S
N1016 H1029 0.985 . S
N1017 C1019 1.356 . S
N1017 H1022 0.984 1_455 S
N1017 H1023 0.985 . S
C1018 C1012 1.379 . S
C1018 C1015 1.363 . S
C1018 N1016 1.356 . S
C1019 C1013 1.363 . S
C1019 C1014 1.379 . S
C1019 N1017 1.356 . S
N1020 C1012 1.356 . S
N1020 H1026 0.984 . S
N1020 H1027 0.984 1_455 S
N1021 C1014 1.356 . S
N1021 H1024 0.984 . S
N1021 H1025 0.985 . S
H1022 N1017 0.984 1_655 S
H1023 N1017 0.985 . S
H1024 N1021 0.984 . S
H1025 N1021 0.985 . S
H1026 N1020 0.984 . S
H1027 N1020 0.984 1_655 S
H1028 N1016 0.984 . S
H1029 N1016 0.985 . S
C1030 C1031 1.363 . S
C1030 C1036 1.379 . S
C1030 N1038 1.356 . S
C1031 C1030 1.363 . S
C1031 C1037 1.363 . S
C1032 C1033 1.363 . S
C1032 C1037 1.379 . S
C1032 N1039 1.356 . S
C1033 C1032 1.363 . S
C1033 C1036 1.363 . S
N1034 C1036 1.356 . S
N1034 H1046 0.984 . S
N1034 H1047 0.985 . S
N1035 C1037 1.356 . S
N1035 H1040 0.984 . S
N1035 H1041 0.985 . S
C1036 C1030 1.379 . S
C1036 C1033 1.363 . S
C1036 N1034 1.356 . S
C1037 C1031 1.363 . S
C1037 C1032 1.379 . S
C1037 N1035 1.356 . S
N1038 C1030 1.356 . S
N1038 H1044 0.984 . S
N1038 H1045 0.984 . S
N1039 C1032 1.356 . S
N1039 H1042 0.984 . S
N1039 H1043 0.985 . S
H1040 N1035 0.984 . S
H1041 N1035 0.985 . S
H1042 N1039 0.984 . S
H1043 N1039 0.985 . S
H1044 N1038 0.984 . S
H1045 N1038 0.984 . S
H1046 N1034 0.984 . S
H1047 N1034 0.985 . S
C1048 C1049 1.363 . S
C1048 C1054 1.379 . S
C1048 N1056 1.356 . S
C1049 C1048 1.363 . S
C1049 C1055 1.363 . S
C1050 C1051 1.363 . S
C1050 C1055 1.379 . S
C1050 N1057 1.356 . S
C1051 C1050 1.363 . S
C1051 C1054 1.363 . S
N1052 C1054 1.356 . S
N1052 H1064 0.984 . S
N1052 H1065 0.985 . S
N1053 C1055 1.356 . S
N1053 H1058 0.984 . S
N1053 H1059 0.985 . S
C1054 C1048 1.379 . S
C1054 C1051 1.363 . S
C1054 N1052 1.356 . S
C1055 C1049 1.363 . S
C1055 C1050 1.379 . S
C1055 N1053 1.356 . S
N1056 C1048 1.356 . S
N1056 H1062 0.984 . S
N1056 H1063 0.984 . S
N1057 C1050 1.356 . S
N1057 H1060 0.984 . S
N1057 H1061 0.985 . S
H1058 N1053 0.984 . S
H1059 N1053 0.985 . S
H1060 N1057 0.984 . S
H1061 N1057 0.985 . S
H1062 N1056 0.984 . S
H1063 N1056 0.984 . S
H1064 N1052 0.984 . S
H1065 N1052 0.985 . S
C1066 C1067 1.363 . S
C1066 C1072 1.379 . S
C1066 N1074 1.356 . S
C1067 C1066 1.363 . S
C1067 C1073 1.363 . S
C1068 C1069 1.363 . S
C1068 C1073 1.379 . S
C1068 N1075 1.356 . S
C1069 C1068 1.363 . S
C1069 C1072 1.363 . S
N1070 C1072 1.356 . S
N1070 H1082 0.984 . S
N1070 H1083 0.985 1_545 S
N1071 C1073 1.356 . S
N1071 H1076 0.984 . S
N1071 H1077 0.985 . S
C1072 C1066 1.379 . S
C1072 C1069 1.363 . S
C1072 N1070 1.356 . S
C1073 C1067 1.363 . S
C1073 C1068 1.379 . S
C1073 N1071 1.356 . S
N1074 C1066 1.356 . S
N1074 H1080 0.984 . S
N1074 H1081 0.984 . S
N1075 C1068 1.356 . S
N1075 H1078 0.984 1_545 S
N1075 H1079 0.985 . S
H1076 N1071 0.984 . S
H1077 N1071 0.985 . S
H1078 N1075 0.984 1_565 S
H1079 N1075 0.985 . S
H1080 N1074 0.984 . S
H1081 N1074 0.984 . S
H1082 N1070 0.984 . S
H1083 N1070 0.985 1_565 S
C1084 C1085 1.363 1_556 S
C1084 C1090 1.379 . S
C1084 N1092 1.352 1_655 S
C1085 C1084 1.363 1_554 S
C1085 C1091 1.363 . S
C1086 C1087 1.363 . S
C1086 C1091 1.379 . S
C1086 N1093 1.356 . S
C1087 C1086 1.363 . S
C1087 C1090 1.363 1_554 S
N1088 C1090 1.356 . S
N1088 H1100 0.984 . S
N1088 H1101 0.985 . S
N1089 C1091 1.356 . S
N1089 H1094 0.984 1_655 S
N1089 H1095 0.985 . S
C1090 C1084 1.379 . S
C1090 C1087 1.363 1_556 S
C1090 N1088 1.356 . S
C1091 C1085 1.363 . S
C1091 C1086 1.379 . S
C1091 N1089 1.356 . S
N1092 C1084 1.352 1_455 S
N1092 H1098 0.984 1_455 S
N1092 H1099 0.989 . S
N1093 C1086 1.356 . S
N1093 H1096 0.984 . S
N1093 H1097 0.985 . S
H1094 N1089 0.984 1_455 S
H1095 N1089 0.985 . S
H1096 N1093 0.984 . S
H1097 N1093 0.985 . S
H1098 N1092 0.984 1_655 S
H1099 N1092 0.989 . S
H1100 N1088 0.984 . S
H1101 N1088 0.985 . S
C1102 C1103 1.363 . S
C1102 C1108 1.379 . S
C1102 N1110 1.356 . S
C1103 C1102 1.363 . S
C1103 C1109 1.363 . S
C1104 C1105 1.363 . S
C1104 C1109 1.379 . S
C1104 N1111 1.356 . S
C1105 C1104 1.363 . S
C1105 C1108 1.363 . S
N1106 C1108 1.356 . S
N1106 H1118 0.984 . S
N1106 H1119 0.985 . S
N1107 C1109 1.356 . S
N1107 H1112 0.984 . S
N1107 H1113 0.985 . S
C1108 C1102 1.379 . S
C1108 C1105 1.363 . S
C1108 N1106 1.356 . S
C1109 C1103 1.363 . S
C1109 C1104 1.379 . S
C1109 N1107 1.356 . S
N1110 C1102 1.356 . S
N1110 H1116 0.984 . S
N1110 H1117 0.984 . S
N1111 C1104 1.356 . S
N1111 H1114 0.984 . S
N1111 H1115 0.985 . S
H1112 N1107 0.984 . S
H1113 N1107 0.985 . S
H1114 N1111 0.984 . S
H1115 N1111 0.985 . S
H1116 N1110 0.984 . S
H1117 N1110 0.984 . S
H1118 N1106 0.984 . S
H1119 N1106 0.985 . S
C1120 C1121 1.363 . S
C1120 C1126 1.379 . S
C1120 N1128 1.356 . S
C1121 C1120 1.363 . S
C1121 C1127 1.363 . S
C1122 C1123 1.363 . S
C1122 C1127 1.379 . S
C1122 N1129 1.356 . S
C1123 C1122 1.363 . S
C1123 C1126 1.363 . S
N1124 C1126 1.356 . S
N1124 H1136 0.984 . S
N1124 H1137 0.985 . S
N1125 C1127 1.356 . S
N1125 H1130 0.984 1_655 S
N1125 H1131 0.985 . S
C1126 C1120 1.379 . S
C1126 C1123 1.363 . S
C1126 N1124 1.356 . S
C1127 C1121 1.363 . S
C1127 C1122 1.379 . S
C1127 N1125 1.356 . S
N1128 C1120 1.356 . S
N1128 H1134 0.984 . S
N1128 H1135 0.984 1_655 S
N1129 C1122 1.356 . S
N1129 H1132 0.984 . S
N1129 H1133 0.985 . S
H1130 N1125 0.984 1_455 S
H1131 N1125 0.985 . S
H1132 N1129 0.984 . S
H1133 N1129 0.985 . S
H1134 N1128 0.984 . S
H1135 N1128 0.984 1_455 S
H1136 N1124 0.984 . S
H1137 N1124 0.985 . S
C1138 C1139 1.363 . S
C1138 C1144 1.379 . S
C1138 N1146 1.356 . S
C1139 C1138 1.363 . S
C1139 C1145 1.363 . S
C1140 C1141 1.363 . S
C1140 C1145 1.379 . S
C1140 N1147 1.356 . S
C1141 C1140 1.363 . S
C1141 C1144 1.363 . S
N1142 C1144 1.356 . S
N1142 H1154 0.984 . S
N1142 H1155 0.985 . S
N1143 C1145 1.356 . S
N1143 H1148 0.984 . S
N1143 H1149 0.985 . S
C1144 C1138 1.379 . S
C1144 C1141 1.363 . S
C1144 N1142 1.356 . S
C1145 C1139 1.363 . S
C1145 C1140 1.379 . S
C1145 N1143 1.356 . S
N1146 C1138 1.356 . S
N1146 H1152 0.984 . S
N1146 H1153 0.984 . S
N1147 C1140 1.356 . S
N1147 H1150 0.984 . S
N1147 H1151 0.985 . S
H1148 N1143 0.984 . S
H1149 N1143 0.985 . S
H1150 N1147 0.984 . S
H1151 N1147 0.985 . S
H1152 N1146 0.984 . S
H1153 N1146 0.984 . S
H1154 N1142 0.984 . S
H1155 N1142 0.985 . S
C1156 C1157 1.363 . S
C1156 C1162 1.379 . S
C1156 N1164 1.356 . S
C1157 C1156 1.363 . S
C1157 C1163 1.363 1_554 S
C1158 C1159 1.363 1_556 S
C1158 C1163 1.379 . S
C1158 N1165 1.356 . S
C1159 C1158 1.363 1_554 S
C1159 C1162 1.363 . S
N1160 C1162 1.356 . S
N1160 H1172 0.984 . S
N1160 H1173 0.985 . S
N1161 C1163 1.356 . S
N1161 H1166 0.984 . S
N1161 H1167 0.985 . S
C1162 C1156 1.379 . S
C1162 C1159 1.363 . S
C1162 N1160 1.356 . S
C1163 C1157 1.363 1_556 S
C1163 C1158 1.379 . S
C1163 N1161 1.356 . S
N1164 C1156 1.356 . S
N1164 H1170 0.984 . S
N1164 H1171 0.984 . S
N1165 C1158 1.356 . S
N1165 H1168 0.984 . S
N1165 H1169 0.985 . S
H1166 N1161 0.984 . S
H1167 N1161 0.985 . S
H1168 N1165 0.984 . S
H1169 N1165 0.985 . S
H1170 N1164 0.984 . S
H1171 N1164 0.984 . S
H1172 N1160 0.984 . S
H1173 N1160 0.985 . S
C1174 C1175 1.363 . S
C1174 C1180 1.379 . S
C1174 N1182 1.356 . S
C1175 C1174 1.363 . S
C1175 C1181 1.363 . S
C1176 C1177 1.363 . S
C1176 C1181 1.379 . S
C1176 N1183 1.356 1_545 S
C1177 C1176 1.363 . S
C1177 C1180 1.363 . S
N1178 C1180 1.356 . S
N1178 H1190 0.984 . S
N1178 H1191 0.985 1_545 S
N1179 C1181 1.356 . S
N1179 H1184 0.984 . S
N1179 H1185 0.985 . S
C1180 C1174 1.379 . S
C1180 C1177 1.363 . S
C1180 N1178 1.356 . S
C1181 C1175 1.363 . S
C1181 C1176 1.379 . S
C1181 N1179 1.356 . S
N1182 C1174 1.356 . S
N1182 H1188 0.984 . S
N1182 H1189 0.984 . S
N1183 C1176 1.356 1_565 S
N1183 H1186 0.984 . S
N1183 H1187 0.985 1_565 S
H1184 N1179 0.984 . S
H1185 N1179 0.985 . S
H1186 N1183 0.984 . S
H1187 N1183 0.985 1_545 S
H1188 N1182 0.984 . S
H1189 N1182 0.984 . S
H1190 N1178 0.984 . S
H1191 N1178 0.985 1_565 S
C1192 C1193 1.363 1_556 S
C1192 C1198 1.379 . S
C1192 N1200 1.356 . S
C1193 C1192 1.363 1_554 S
C1193 C1199 1.363 . S
C1194 C1195 1.363 . S
C1194 C1199 1.379 . S
C1194 N1201 1.356 . S
C1195 C1194 1.363 . S
C1195 C1198 1.363 1_554 S
N1196 C1198 1.356 . S
N1196 H1208 0.984 . S
N1196 H1209 0.985 . S
N1197 C1199 1.356 . S
N1197 H1202 0.984 1_455 S
N1197 H1203 0.985 . S
C1198 C1192 1.379 . S
C1198 C1195 1.363 1_556 S
C1198 N1196 1.356 . S
C1199 C1193 1.363 . S
C1199 C1194 1.379 . S
C1199 N1197 1.356 . S
N1200 C1192 1.356 . S
N1200 H1206 0.984 . S
N1200 H1207 0.984 1_455 S
N1201 C1194 1.356 . S
N1201 H1204 0.984 . S
N1201 H1205 0.985 . S
H1202 N1197 0.984 1_655 S
H1203 N1197 0.985 . S
H1204 N1201 0.984 . S
H1205 N1201 0.985 . S
H1206 N1200 0.984 . S
H1207 N1200 0.984 1_655 S
H1208 N1196 0.984 . S
H1209 N1196 0.985 . S
C1210 C1211 1.363 . S
C1210 C1216 1.379 . S
C1210 N1218 1.356 . S
C1211 C1210 1.363 . S
C1211 C1217 1.363 . S
C1212 C1213 1.363 . S
C1212 C1217 1.379 . S
C1212 N1219 1.356 . S
C1213 C1212 1.363 . S
C1213 C1216 1.363 . S
N1214 C1216 1.356 . S
N1214 H1226 0.984 . S
N1214 H1227 0.985 . S
N1215 C1217 1.356 . S
N1215 H1220 0.984 . S
N1215 H1221 0.985 . S
C1216 C1210 1.379 . S
C1216 C1213 1.363 . S
C1216 N1214 1.356 . S
C1217 C1211 1.363 . S
C1217 C1212 1.379 . S
C1217 N1215 1.356 . S
N1218 C1210 1.356 . S
N1218 H1224 0.984 . S
N1218 H1225 0.984 . S
N1219 C1212 1.356 . S
N1219 H1222 0.984 . S
N1219 H1223 0.985 . S
H1220 N1215 0.984 . S
H1221 N1215 0.985 . S
H1222 N1219 0.984 . S
H1223 N1219 0.985 . S
H1224 N1218 0.984 . S
H1225 N1218 0.984 . S
H1226 N1214 0.984 . S
H1227 N1214 0.985 . S
C1228 C1229 1.363 . S
C1228 C1234 1.379 . S
C1228 N1236 1.356 . S
C1229 C1228 1.363 . S
C1229 C1235 1.363 . S
C1230 C1231 1.363 . S
C1230 C1235 1.379 . S
C1230 N1237 1.356 . S
C1231 C1230 1.363 . S
C1231 C1234 1.363 . S
N1232 C1234 1.356 . S
N1232 H1244 0.984 . S
N1232 H1245 0.985 . S
N1233 C1235 1.356 . S
N1233 H1238 0.984 . S
N1233 H1239 0.985 . S
C1234 C1228 1.379 . S
C1234 C1231 1.363 . S
C1234 N1232 1.356 . S
C1235 C1229 1.363 . S
C1235 C1230 1.379 . S
C1235 N1233 1.356 . S
N1236 C1228 1.356 . S
N1236 H1242 0.984 . S
N1236 H1243 0.984 . S
N1237 C1230 1.356 . S
N1237 H1240 0.984 . S
N1237 H1241 0.985 . S
H1238 N1233 0.984 . S
H1239 N1233 0.985 . S
H1240 N1237 0.984 . S
H1241 N1237 0.985 . S
H1242 N1236 0.984 . S
H1243 N1236 0.984 . S
H1244 N1232 0.984 . S
H1245 N1232 0.985 . S
C1246 C1247 1.363 . S
C1246 C1252 1.379 . S
C1246 N1254 1.356 . S
C1247 C1246 1.363 . S
C1247 C1253 1.363 . S
C1248 C1249 1.363 . S
C1248 C1253 1.379 . S
C1248 N1255 1.356 . S
C1249 C1248 1.363 . S
C1249 C1252 1.363 . S
N1250 C1252 1.356 . S
N1250 H1262 0.984 . S
N1250 H1263 0.985 . S
N1251 C1253 1.356 1_545 S
N1251 H1256 0.984 . S
N1251 H1257 0.985 1_545 S
C1252 C1246 1.379 . S
C1252 C1249 1.363 . S
C1252 N1250 1.356 . S
C1253 C1247 1.363 . S
C1253 C1248 1.379 . S
C1253 N1251 1.356 1_565 S
N1254 C1246 1.356 . S
N1254 H1260 0.984 . S
N1254 H1261 0.984 1_565 S
N1255 C1248 1.356 . S
N1255 H1258 0.984 . S
N1255 H1259 0.985 . S
H1256 N1251 0.984 . S
H1257 N1251 0.985 1_565 S
H1258 N1255 0.984 . S
H1259 N1255 0.985 . S
H1260 N1254 0.984 . S
H1261 N1254 0.984 1_545 S
H1262 N1250 0.984 . S
H1263 N1250 0.985 . S
C545 C9 1.618 . S
C547 C311 1.690 . S
C563 C43 1.618 . S
C565 C345 1.690 . S
C581 C379 1.690 . S
C583 C77 1.618 . S
C599 C277 1.690 . S
C601 C111 1.618 . S
C617 C145 1.618 . S
C619 C243 1.690 . S
C635 C141 1.690 . S
C637 C179 1.618 . S
C653 C213 1.618 . S
C655 C175 1.690 . S
C671 C247 1.618 . S
C673 C209 1.690 . S
C689 C39 1.690 . S
C691 C281 1.618 . S
C707 C73 1.690 . S
C709 C315 1.618 . S
C725 C349 1.618 . S
C727 C107 1.690 . S
C743 C383 1.618 . S
C745 C5 1.690 . S
C761 C515 1.690 . S
C763 C417 1.618 . S
C779 C413 1.690 . S
C781 C451 1.618 . S
C797 C485 1.618 . S
C799 C447 1.690 . S
C815 C519 1.618 . S
C817 C481 1.690 . S
C833 C33 1.403 . S
C835 C373 1.403 . S
C851 C407 1.403 . S
C853 C67 1.403 . S
C869 C305 1.403 . S
C871 C101 1.403 . S
C887 C339 1.403 . S
C889 C135 1.403 . S
C905 C169 1.403 . S
C907 C509 1.403 . S
C923 C203 1.403 . S
C925 C543 1.403 . S
C941 C237 1.403 . S
C943 C441 1.403 . S
C959 C475 1.403 . S
C961 C271 1.403 . S
C977 C206 1.134 . S
C979 C20 1.182 . S
C995 C54 1.182 . S
C997 C240 1.134 1_565 S
C1013 C138 1.134 1_455 S
C1015 C88 1.182 . S
C1031 C172 1.134 . S
C1033 C122 1.182 . S
C1049 C156 1.182 . S
C1051 C70 1.134 . S
C1067 C190 1.182 . S
C1069 C104 1.134 1_545 S
C1085 C2 1.134 1_655 S
C1087 C224 1.182 . S
C1103 C258 1.182 . S
C1105 C36 1.134 . S
C1121 C478 1.134 1_655 S
C1123 C292 1.182 . S
C1139 C326 1.182 . S
C1141 C512 1.134 . S
C1157 C360 1.182 . S
C1159 C410 1.134 . S
C1175 C394 1.182 . S
C1177 C444 1.134 1_545 S
C1193 C342 1.134 1_455 S
C1195 C428 1.182 . S
C1211 C462 1.182 . S
C1213 C376 1.134 . S
C1229 C274 1.134 . S
C1231 C496 1.182 . S
C1247 C308 1.134 1_565 S
C1249 C530 1.182 . S
