# Generated by pormake.
# Topology uoy, (4)-cn, num edge types: 1
# Building blocks:
#     Node 0, Type 0, BuildingBlock: QUQFOY_clean_sbu_3, # of connection points: 4
#     Node 1, Type 0, BuildingBlock: QUQFOY_clean_sbu_3, # of connection points: 4
#     Node 2, Type 0, BuildingBlock: QUQFOY_clean_sbu_3, # of connection points: 4
#     Node 3, Type 0, BuildingBlock: QUQFOY_clean_sbu_3, # of connection points: 4
#     Node 4, Type 0, BuildingBlock: QUQFOY_clean_sbu_3, # of connection points: 4
#     Node 5, Type 0, BuildingBlock: QUQFOY_clean_sbu_3, # of connection points: 4
#     Node 6, Type 0, BuildingBlock: QUQFOY_clean_sbu_3, # of connection points: 4
#     Node 7, Type 0, BuildingBlock: QUQFOY_clean_sbu_3, # of connection points: 4
#     Node 8, Type 0, BuildingBlock: QUQFOY_clean_sbu_3, # of connection points: 4
#     Node 9, Type 0, BuildingBlock: QUQFOY_clean_sbu_3, # of connection points: 4
#     Node 10, Type 0, BuildingBlock: QUQFOY_clean_sbu_3, # of connection points: 4
#     Node 11, Type 0, BuildingBlock: QUQFOY_clean_sbu_3, # of connection points: 4
#     Node 12, Type 0, BuildingBlock: QUQFOY_clean_sbu_3, # of connection points: 4
#     Node 13, Type 0, BuildingBlock: QUQFOY_clean_sbu_3, # of connection points: 4
#     Node 14, Type 0, BuildingBlock: QUQFOY_clean_sbu_3, # of connection points: 4
#     Node 15, Type 0, BuildingBlock: QUQFOY_clean_sbu_3, # of connection points: 4
#     Edge 16, Type (0, 0), BuildingBlock: KIFKEQ_clean_linker_1, # of connection points: 2
#     Edge 17, Type (0, 0), BuildingBlock: KIFKEQ_clean_linker_1, # of connection points: 2
#     Edge 18, Type (0, 0), BuildingBlock: KIFKEQ_clean_linker_1, # of connection points: 2
#     Edge 19, Type (0, 0), BuildingBlock: KIFKEQ_clean_linker_1, # of connection points: 2
#     Edge 20, Type (0, 0), BuildingBlock: KIFKEQ_clean_linker_1, # of connection points: 2
#     Edge 21, Type (0, 0), BuildingBlock: KIFKEQ_clean_linker_1, # of connection points: 2
#     Edge 22, Type (0, 0), BuildingBlock: KIFKEQ_clean_linker_1, # of connection points: 2
#     Edge 23, Type (0, 0), BuildingBlock: KIFKEQ_clean_linker_1, # of connection points: 2
#     Edge 24, Type (0, 0), BuildingBlock: KIFKEQ_clean_linker_1, # of connection points: 2
#     Edge 25, Type (0, 0), BuildingBlock: KIFKEQ_clean_linker_1, # of connection points: 2
#     Edge 26, Type (0, 0), BuildingBlock: KIFKEQ_clean_linker_1, # of connection points: 2
#     Edge 27, Type (0, 0), BuildingBlock: KIFKEQ_clean_linker_1, # of connection points: 2
#     Edge 28, Type (0, 0), BuildingBlock: KIFKEQ_clean_linker_1, # of connection points: 2
#     Edge 29, Type (0, 0), BuildingBlock: KIFKEQ_clean_linker_1, # of connection points: 2
#     Edge 30, Type (0, 0), BuildingBlock: KIFKEQ_clean_linker_1, # of connection points: 2
#     Edge 31, Type (0, 0), BuildingBlock: KIFKEQ_clean_linker_1, # of connection points: 2
#     Edge 32, Type (0, 0), BuildingBlock: KIFKEQ_clean_linker_1, # of connection points: 2
#     Edge 33, Type (0, 0), BuildingBlock: KIFKEQ_clean_linker_1, # of connection points: 2
#     Edge 34, Type (0, 0), BuildingBlock: KIFKEQ_clean_linker_1, # of connection points: 2
#     Edge 35, Type (0, 0), BuildingBlock: KIFKEQ_clean_linker_1, # of connection points: 2
#     Edge 36, Type (0, 0), BuildingBlock: KIFKEQ_clean_linker_1, # of connection points: 2
#     Edge 37, Type (0, 0), BuildingBlock: KIFKEQ_clean_linker_1, # of connection points: 2
#     Edge 38, Type (0, 0), BuildingBlock: KIFKEQ_clean_linker_1, # of connection points: 2
#     Edge 39, Type (0, 0), BuildingBlock: KIFKEQ_clean_linker_1, # of connection points: 2
#     Edge 40, Type (0, 0), BuildingBlock: KIFKEQ_clean_linker_1, # of connection points: 2
#     Edge 41, Type (0, 0), BuildingBlock: KIFKEQ_clean_linker_1, # of connection points: 2
#     Edge 42, Type (0, 0), BuildingBlock: KIFKEQ_clean_linker_1, # of connection points: 2
#     Edge 43, Type (0, 0), BuildingBlock: KIFKEQ_clean_linker_1, # of connection points: 2
#     Edge 44, Type (0, 0), BuildingBlock: KIFKEQ_clean_linker_1, # of connection points: 2
#     Edge 45, Type (0, 0), BuildingBlock: KIFKEQ_clean_linker_1, # of connection points: 2
#     Edge 46, Type (0, 0), BuildingBlock: KIFKEQ_clean_linker_1, # of connection points: 2
#     Edge 47, Type (0, 0), BuildingBlock: KIFKEQ_clean_linker_1, # of connection points: 2
# Relax obj value: 0.036
# Max RMSD: 0.062
# Mean RMSD: 0.062
data_MOF--net-uoy--node1-QUQFOY_clean_sbu_3--edge1-KIFKEQ_clean_linker_1
_symmetry_space_group_name_H-M    P1
_symmetry_Int_Tables_number       1
_symmetry_cell_setting            triclinic
loop_
_symmetry_equiv_pos_as_xyz
'x, y, z'
_cell_length_a     28.837999
_cell_length_b     28.861079
_cell_length_c     113.73845
_cell_angle_alpha  90.060374
_cell_angle_beta   89.977453
_cell_angle_gamma 89.94412
loop_
_atom_site_label
_atom_site_type_symbol
_atom_site_fract_x
_atom_site_fract_y
_atom_site_fract_z
_atom_type_partial_charge
C0 C 0.26952 0.1873 0.19022 0.0
O1 O 0.28948 0.21556 0.18332 0.0
Cd2 Cd 0.29483 0.20001 0.1626 0.0
O3 O 0.24983 0.15114 0.18624 0.0
Cd4 Cd 0.22973 0.10961 0.16832 0.0
C5 C 0.34421 0.09047 0.16365 0.0
O6 O 0.21822 0.17852 0.15696 0.0
O7 O 0.21482 0.11432 0.14723 0.0
O8 O 0.15509 0.10506 0.17768 0.0
C9 C 0.21169 0.15815 0.14724 0.0
O10 O 0.34709 0.13353 0.16127 0.0
C11 C 0.14862 0.0623 0.17572 0.0
O12 O 0.30592 0.07258 0.16694 0.0
O13 O 0.18107 0.04045 0.17052 0.0
C14 C 0.79971 0.77391 0.43933 0.0
O15 O 0.77222 0.79452 0.43235 0.0
Cd16 Cd 0.79051 0.8009 0.4118 0.0
O17 O 0.83624 0.75438 0.43549 0.0
Cd18 Cd 0.87959 0.73536 0.41776 0.0
C19 C 0.90009 0.84961 0.4137 0.0
O20 O 0.81154 0.72422 0.406 0.0
O21 O 0.87652 0.72146 0.39658 0.0
O22 O 0.88322 0.66049 0.42697 0.0
C23 C 0.83271 0.71791 0.39638 0.0
O24 O 0.85725 0.85293 0.41108 0.0
C25 C 0.9261 0.65381 0.42518 0.0
O26 O 0.91745 0.81103 0.41694 0.0
O27 O 0.94841 0.68623 0.42014 0.0
C28 C 0.2188 0.29462 0.69102 0.0
O29 O 0.19827 0.26667 0.68414 0.0
Cd30 Cd 0.18907 0.28529 0.66373 0.0
O31 O 0.23699 0.33157 0.68708 0.0
Cd32 Cd 0.25268 0.37386 0.66897 0.0
C33 C 0.13818 0.39362 0.66616 0.0
O34 O 0.2645 0.30647 0.65682 0.0
O35 O 0.25745 0.3717 0.64765 0.0
O36 O 0.32985 0.37884 0.67688 0.0
C37 C 0.26607 0.32864 0.64722 0.0
O38 O 0.13517 0.35092 0.66338 0.0
C39 C 0.33519 0.4218 0.67502 0.0
O40 O 0.17688 0.41119 0.6692 0.0
O41 O 0.30112 0.4435 0.67052 0.0
C42 C 0.68962 0.71678 0.94079 0.0
O43 O 0.71778 0.6969 0.93384 0.0
Cd44 Cd 0.69877 0.68894 0.9134 0.0
O45 O 0.65245 0.73487 0.93693 0.0
Cd46 Cd 0.60967 0.75156 0.91897 0.0
C47 C 0.59073 0.63731 0.91562 0.0
O48 O 0.67699 0.7648 0.90693 0.0
O49 O 0.61178 0.75845 0.89768 0.0
O50 O 0.60485 0.82765 0.92746 0.0
C51 C 0.65483 0.76728 0.89734 0.0
O52 O 0.63348 0.63473 0.91284 0.0
C53 C 0.56189 0.83345 0.92563 0.0
O54 O 0.57284 0.67568 0.91883 0.0
O55 O 0.54004 0.80006 0.92087 0.0
C56 C 0.27365 0.29793 0.02823 0.0
O57 O 0.29418 0.27026 0.03518 0.0
Cd58 Cd 0.30121 0.2884 0.05572 0.0
O59 O 0.25454 0.33462 0.0321 0.0
Cd60 Cd 0.23631 0.3781 0.04985 0.0
C61 C 0.351 0.39737 0.05379 0.0
O62 O 0.22482 0.31023 0.06162 0.0
O63 O 0.22267 0.37524 0.07104 0.0
O64 O 0.16139 0.38233 0.04065 0.0
C65 C 0.21886 0.33148 0.07125 0.0
O66 O 0.35399 0.35453 0.0564 0.0
C67 C 0.15504 0.42522 0.04244 0.0
O68 O 0.31248 0.41507 0.0506 0.0
O69 O 0.18763 0.44728 0.04749 0.0
C70 C 0.68578 0.76919 0.27737 0.0
O71 O 0.714 0.7894 0.28424 0.0
Cd72 Cd 0.69872 0.79491 0.30496 0.0
O73 O 0.64981 0.74927 0.28138 0.0
Cd74 Cd 0.60928 0.72934 0.29947 0.0
C75 C 0.58886 0.84346 0.30404 0.0
O76 O 0.67865 0.71816 0.31078 0.0
O77 O 0.61452 0.71545 0.32057 0.0
O78 O 0.60468 0.65423 0.29036 0.0
C79 C 0.65835 0.7119 0.32052 0.0
O80 O 0.63195 0.84676 0.30638 0.0
C81 C 0.56198 0.64776 0.29244 0.0
O82 O 0.57131 0.80499 0.30078 0.0
O83 O 0.5402 0.68044 0.29755 0.0
C84 C 0.22084 0.19209 0.52703 0.0
O85 O 0.20006 0.21985 0.53391 0.0
Cd86 Cd 0.19018 0.20072 0.55427 0.0
O87 O 0.2389 0.15496 0.53093 0.0
Cd88 Cd 0.25389 0.11221 0.54901 0.0
C89 C 0.13934 0.09257 0.55162 0.0
O90 O 0.26546 0.17933 0.56125 0.0
O91 O 0.25814 0.11397 0.57035 0.0
O92 O 0.33121 0.1072 0.5412 0.0
C93 C 0.26682 0.157 0.57083 0.0
O94 O 0.13624 0.1352 0.55446 0.0
C95 C 0.33651 0.0642 0.54302 0.0
O96 O 0.17812 0.07502 0.5486 0.0
O97 O 0.30236 0.0425 0.54745 0.0
C98 C 0.79572 0.7174 0.77806 0.0
O99 O 0.76765 0.69746 0.78501 0.0
Cd100 Cd 0.78626 0.68997 0.80547 0.0
O101 O 0.83268 0.73586 0.78195 0.0
Cd102 Cd 0.87503 0.75309 0.79996 0.0
C103 C 0.89476 0.63894 0.80339 0.0
O104 O 0.80744 0.76596 0.81196 0.0
O105 O 0.87258 0.75995 0.82125 0.0
O106 O 0.87954 0.82941 0.7916 0.0
C107 C 0.82947 0.76853 0.82157 0.0
O108 O 0.85198 0.63621 0.80613 0.0
C109 C 0.92247 0.83527 0.79345 0.0
O110 O 0.91245 0.67735 0.80017 0.0
O111 O 0.94444 0.80182 0.79815 0.0
C112 C 0.76808 0.69001 0.69076 0.0
O113 O 0.7887 0.71792 0.68391 0.0
Cd114 Cd 0.79819 0.69919 0.6635 0.0
O115 O 0.74986 0.65307 0.6868 0.0
Cd116 Cd 0.7342 0.61078 0.66867 0.0
C117 C 0.84869 0.59068 0.66596 0.0
O118 O 0.72287 0.67811 0.65651 0.0
O119 O 0.72983 0.61281 0.64733 0.0
O120 O 0.65691 0.60631 0.67652 0.0
C121 C 0.72145 0.65592 0.6469 0.0
O122 O 0.85185 0.63336 0.6632 0.0
C123 C 0.65141 0.56333 0.67471 0.0
O124 O 0.80989 0.5732 0.66896 0.0
O125 O 0.68542 0.54138 0.67024 0.0
C126 C 0.29791 0.26833 0.94088 0.0
O127 O 0.26947 0.28827 0.93402 0.0
Cd128 Cd 0.28753 0.29597 0.91352 0.0
O129 O 0.33474 0.24996 0.93687 0.0
Cd130 Cd 0.37648 0.23266 0.91879 0.0
C131 C 0.39609 0.34678 0.91546 0.0
O132 O 0.3086 0.22006 0.90691 0.0
O133 O 0.37357 0.22587 0.89751 0.0
O134 O 0.38077 0.1565 0.9272 0.0
C135 C 0.33042 0.21749 0.89726 0.0
O136 O 0.35323 0.34965 0.91282 0.0
C137 C 0.42367 0.15039 0.92534 0.0
O138 O 0.41388 0.30828 0.91859 0.0
O139 O 0.44573 0.1836 0.92057 0.0
C140 C 0.71112 0.80016 0.1899 0.0
O141 O 0.69135 0.77202 0.18293 0.0
Cd142 Cd 0.68619 0.78843 0.16226 0.0
O143 O 0.73067 0.83652 0.18602 0.0
Cd144 Cd 0.75064 0.87846 0.16816 0.0
C145 C 0.63626 0.89757 0.16349 0.0
O146 O 0.763 0.80976 0.15668 0.0
O147 O 0.76578 0.87423 0.14708 0.0
O148 O 0.82509 0.88322 0.1776 0.0
C149 C 0.76963 0.83046 0.14702 0.0
O150 O 0.63351 0.85458 0.16102 0.0
C151 C 0.83151 0.92598 0.17567 0.0
O152 O 0.67448 0.91543 0.16684 0.0
O153 O 0.79909 0.94775 0.17046 0.0
C154 C 0.19204 0.22047 0.43986 0.0
O155 O 0.22023 0.20121 0.4328 0.0
Cd156 Cd 0.20066 0.1941 0.41237 0.0
O157 O 0.15456 0.23832 0.43611 0.0
Cd158 Cd 0.11061 0.25556 0.41836 0.0
C159 C 0.09324 0.14109 0.41468 0.0
O160 O 0.17737 0.26995 0.40623 0.0
O161 O 0.11192 0.26376 0.39709 0.0
O162 O 0.10554 0.33093 0.42723 0.0
C163 C 0.15494 0.27268 0.39668 0.0
O164 O 0.13594 0.1392 0.41182 0.0
C165 C 0.06252 0.33669 0.4255 0.0
O166 O 0.0749 0.17908 0.41803 0.0
O167 O 0.0407 0.30357 0.42061 0.0
C168 C 0.76977 0.79702 0.52669 0.0
O169 O 0.79048 0.76872 0.53342 0.0
Cd170 Cd 0.80029 0.78656 0.55387 0.0
O171 O 0.75157 0.83375 0.53079 0.0
Cd172 Cd 0.73605 0.87492 0.54909 0.0
C173 C 0.85045 0.89518 0.55167 0.0
O174 O 0.72506 0.80706 0.56109 0.0
O175 O 0.73219 0.87204 0.57041 0.0
O176 O 0.6586 0.87949 0.54137 0.0
C177 C 0.72376 0.82895 0.57075 0.0
O178 O 0.85383 0.85239 0.5543 0.0
C179 C 0.65297 0.9224 0.54328 0.0
O180 O 0.81152 0.91272 0.54878 0.0
O181 O 0.68696 0.94426 0.54776 0.0
C182 C 0.18904 0.26892 0.77827 0.0
O183 O 0.21702 0.2889 0.78523 0.0
Cd184 Cd 0.19801 0.29678 0.80566 0.0
O185 O 0.15192 0.25068 0.78212 0.0
Cd186 Cd 0.10908 0.23395 0.80009 0.0
C187 C 0.08978 0.34824 0.80346 0.0
O188 O 0.1765 0.22085 0.81209 0.0
O189 O 0.11137 0.22713 0.82139 0.0
O190 O 0.10428 0.15772 0.79166 0.0
C191 C 0.15445 0.21834 0.8217 0.0
O192 O 0.13252 0.35087 0.80623 0.0
C193 C 0.06135 0.15196 0.79352 0.0
O194 O 0.07201 0.30984 0.80025 0.0
O195 O 0.0395 0.18544 0.79826 0.0
C196 C 0.71949 0.69006 0.02805 0.0
O197 O 0.69904 0.71779 0.03501 0.0
Cd198 Cd 0.69207 0.70028 0.05558 0.0
O199 O 0.73865 0.65339 0.03189 0.0
Cd200 Cd 0.75707 0.60989 0.04961 0.0
C201 C 0.64222 0.59121 0.05366 0.0
O202 O 0.76838 0.67788 0.06132 0.0
O203 O 0.77114 0.61316 0.07079 0.0
O204 O 0.83188 0.60512 0.04035 0.0
C205 C 0.77446 0.65696 0.07097 0.0
O206 O 0.63932 0.63408 0.05627 0.0
C207 C 0.83805 0.56224 0.04219 0.0
O208 O 0.68068 0.57337 0.05045 0.0
O209 O 0.80538 0.54046 0.04728 0.0
C210 C 0.29883 0.21255 0.27772 0.0
O211 O 0.27004 0.19347 0.28463 0.0
Cd212 Cd 0.28733 0.18721 0.3052 0.0
O213 O 0.3357 0.23089 0.28168 0.0
Cd214 Cd 0.37703 0.24916 0.29975 0.0
C215 C 0.39538 0.135 0.30372 0.0
O216 O 0.30891 0.26339 0.31148 0.0
O217 O 0.37362 0.25765 0.32098 0.0
O218 O 0.38195 0.32466 0.29099 0.0
C219 C 0.33054 0.26652 0.32114 0.0
O220 O 0.35243 0.13285 0.3063 0.0
C221 C 0.42479 0.33073 0.29291 0.0
O222 O 0.41365 0.17304 0.30042 0.0
O223 O 0.4466 0.29772 0.29786 0.0
H224 H 0.2331 0.23984 0.07517 0.0
H225 H 0.1877 0.36608 0.0921 0.0
H226 H 0.2257 0.1985 0.09366 0.0
H227 H 0.17807 0.32424 0.11056 0.0
H228 H 0.22978 0.24937 0.14365 0.0
H229 H 0.2261 0.29148 0.12519 0.0
H230 H 0.17391 0.16869 0.10782 0.0
H231 H 0.17985 0.126 0.12625 0.0
C232 C 0.22079 0.25854 0.08283 0.0
C233 C 0.21133 0.30617 0.08227 0.0
C234 C 0.21617 0.23479 0.09341 0.0
C235 C 0.20131 0.25806 0.1036 0.0
C236 C 0.19039 0.30548 0.10292 0.0
C237 C 0.1957 0.32941 0.09236 0.0
C238 C 0.2172 0.23153 0.13589 0.0
C239 C 0.20554 0.18438 0.13631 0.0
C240 C 0.21474 0.25574 0.12533 0.0
C241 C 0.19989 0.23341 0.11501 0.0
C242 C 0.1864 0.18664 0.11556 0.0
C243 C 0.18957 0.16224 0.1261 0.0
H244 H 0.74104 0.73259 0.39249 0.0
H245 H 0.86695 0.68626 0.37554 0.0
H246 H 0.69946 0.72524 0.37403 0.0
H247 H 0.82483 0.67668 0.3571 0.0
H248 H 0.74987 0.72905 0.32405 0.0
H249 H 0.79225 0.72484 0.34247 0.0
H250 H 0.66914 0.67365 0.35989 0.0
H251 H 0.62621 0.68012 0.34151 0.0
C252 C 0.75962 0.72008 0.38483 0.0
C253 C 0.80723 0.71036 0.38538 0.0
C254 C 0.73571 0.71548 0.37427 0.0
C255 C 0.75881 0.70038 0.36407 0.0
C256 C 0.80621 0.68918 0.36474 0.0
C257 C 0.8303 0.69446 0.37529 0.0
C258 C 0.73202 0.71657 0.3318 0.0
C259 C 0.68472 0.70538 0.33142 0.0
C260 C 0.75637 0.7138 0.34235 0.0
C261 C 0.73403 0.6991 0.35268 0.0
C262 C 0.68711 0.68603 0.35215 0.0
C263 C 0.66257 0.68951 0.34163 0.0
H264 H 0.24934 0.12375 0.59278 0.0
H265 H 0.29934 0.24435 0.57422 0.0
H266 H 0.25435 0.16585 0.61128 0.0
H267 H 0.30628 0.28596 0.59277 0.0
H268 H 0.24952 0.36186 0.62522 0.0
H269 H 0.25491 0.31963 0.60676 0.0
H270 H 0.30531 0.19914 0.6254 0.0
H271 H 0.29801 0.24091 0.64393 0.0
C272 C 0.26211 0.15903 0.5927 0.0
C273 C 0.2735 0.18101 0.58209 0.0
C274 C 0.26531 0.18308 0.6033 0.0
C275 C 0.28054 0.22935 0.60349 0.0
C276 C 0.29358 0.25067 0.59289 0.0
C277 C 0.28982 0.22679 0.58228 0.0
C278 C 0.26204 0.32646 0.62535 0.0
C279 C 0.27292 0.30445 0.63599 0.0
C280 C 0.26546 0.30233 0.61477 0.0
C281 C 0.28038 0.25593 0.61462 0.0
C282 C 0.29286 0.23455 0.62525 0.0
C283 C 0.2889 0.25851 0.63585 0.0
H284 H 0.74183 0.80127 0.82456 0.0
H285 H 0.86197 0.75312 0.84369 0.0
H286 H 0.69926 0.80921 0.84295 0.0
H287 H 0.81894 0.75908 0.86202 0.0
H288 H 0.62244 0.7515 0.87522 0.0
H289 H 0.66531 0.75808 0.85687 0.0
H290 H 0.78425 0.80983 0.87595 0.0
H291 H 0.74188 0.80126 0.89435 0.0
C292 C 0.75909 0.79242 0.83271 0.0
C293 C 0.805 0.77623 0.83273 0.0
C294 C 0.73468 0.79676 0.84323 0.0
C295 C 0.75556 0.78442 0.85394 0.0
C296 C 0.80201 0.76951 0.85395 0.0
C297 C 0.8266 0.76575 0.84344 0.0
C298 C 0.65761 0.76461 0.87546 0.0
C299 C 0.67909 0.77536 0.88618 0.0
C300 C 0.6821 0.76873 0.86495 0.0
C301 C 0.72831 0.78425 0.86496 0.0
C302 C 0.74903 0.79688 0.87567 0.0
C303 C 0.72474 0.79218 0.88619 0.0
H304 H 0.69189 0.74119 0.57389 0.0
H305 H 0.7407 0.86156 0.5928 0.0
H306 H 0.68447 0.6991 0.59234 0.0
H307 H 0.73521 0.81901 0.6112 0.0
H308 H 0.6897 0.74364 0.64359 0.0
H309 H 0.68349 0.78558 0.62509 0.0
H310 H 0.7349 0.66523 0.60648 0.0
H311 H 0.73917 0.62282 0.62493 0.0
C312 C 0.70107 0.75858 0.582 0.0
C313 C 0.71712 0.80447 0.58194 0.0
C314 C 0.69704 0.73444 0.59256 0.0
C315 C 0.70952 0.75559 0.60323 0.0
C316 C 0.72464 0.8019 0.60316 0.0
C317 C 0.72811 0.82621 0.59261 0.0
C318 C 0.69927 0.72611 0.63552 0.0
C319 C 0.7152 0.68015 0.63567 0.0
C320 C 0.69594 0.75017 0.62494 0.0
C321 C 0.70904 0.72888 0.61433 0.0
C322 C 0.7239 0.68246 0.61448 0.0
C323 C 0.72667 0.65823 0.62504 0.0
H324 H 0.36247 0.23286 0.87509 0.0
H325 H 0.24269 0.18499 0.8944 0.0
H326 H 0.3191 0.22692 0.85682 0.0
H327 H 0.19978 0.17707 0.87607 0.0
H328 H 0.2416 0.1844 0.82462 0.0
H329 H 0.28427 0.17607 0.84297 0.0
H330 H 0.16552 0.22805 0.86215 0.0
H331 H 0.12235 0.2344 0.84385 0.0
C332 C 0.3271 0.2203 0.87539 0.0
C333 C 0.30571 0.20988 0.88614 0.0
C334 C 0.30231 0.21655 0.86492 0.0
C335 C 0.25588 0.20171 0.865 0.0
C336 C 0.23519 0.18947 0.87574 0.0
C337 C 0.2598 0.19379 0.88622 0.0
C338 C 0.22456 0.19358 0.83279 0.0
C339 C 0.17888 0.2104 0.83284 0.0
C340 C 0.24903 0.18902 0.84328 0.0
C341 C 0.22845 0.20178 0.85401 0.0
C342 C 0.18221 0.2173 0.85406 0.0
C343 C 0.15754 0.22128 0.84358 0.0
H344 H 0.75815 0.74839 0.07476 0.0
H345 H 0.80481 0.62339 0.09198 0.0
H346 H 0.76271 0.79004 0.09328 0.0
H347 H 0.81161 0.6656 0.11048 0.0
H348 H 0.75406 0.73891 0.1432 0.0
H349 H 0.76097 0.69702 0.12475 0.0
H350 H 0.81185 0.82125 0.10785 0.0
H351 H 0.80267 0.86366 0.12625 0.0
C352 C 0.77017 0.73005 0.08249 0.0
C353 C 0.78073 0.68264 0.082 0.0
C354 C 0.77316 0.754 0.09309 0.0
C355 C 0.78746 0.73115 0.10338 0.0
C356 C 0.79965 0.68401 0.10276 0.0
C357 C 0.79597 0.65987 0.09218 0.0
C358 C 0.76701 0.75713 0.13555 0.0
C359 C 0.7774 0.80456 0.13609 0.0
C360 C 0.77135 0.73306 0.12499 0.0
C361 C 0.78683 0.75581 0.1148 0.0
C362 C 0.79894 0.80293 0.11548 0.0
C363 C 0.7939 0.82718 0.12602 0.0
H364 H 0.12238 0.2558 0.37462 0.0
H365 H 0.24174 0.30702 0.39354 0.0
H366 H 0.16534 0.26092 0.35626 0.0
H367 H 0.28419 0.31416 0.37511 0.0
H368 H 0.36232 0.25344 0.34342 0.0
H369 H 0.31889 0.26175 0.36162 0.0
H370 H 0.19988 0.31012 0.34199 0.0
H371 H 0.24288 0.29983 0.32373 0.0
C372 C 0.15753 0.26899 0.37481 0.0
C373 C 0.17901 0.28046 0.38548 0.0
C374 C 0.18208 0.27226 0.36428 0.0
C375 C 0.22834 0.28766 0.36424 0.0
C376 C 0.24896 0.30124 0.37489 0.0
C377 C 0.22461 0.29737 0.38542 0.0
C378 C 0.32701 0.26619 0.34301 0.0
C379 C 0.30573 0.27551 0.33219 0.0
C380 C 0.30219 0.27131 0.35345 0.0
C381 C 0.25582 0.28644 0.35325 0.0
C382 C 0.23524 0.29756 0.34242 0.0
C383 C 0.25989 0.29187 0.33197 0.0
H384 H 0.30136 0.26336 0.20219 0.0
H385 H 0.23676 0.1296 0.20719 0.0
H386 H 0.30306 0.27457 0.22346 0.0
H387 H 0.23978 0.14021 0.2283 0.0
H388 H 0.22112 0.18429 0.26586 0.0
H389 H 0.20913 0.18386 0.24462 0.0
H390 H 0.34599 0.24155 0.23959 0.0
H391 H 0.35742 0.24333 0.26069 0.0
C392 C 0.28751 0.23644 0.20781 0.0
C393 C 0.26923 0.19551 0.20301 0.0
C394 C 0.28858 0.24279 0.21997 0.0
C395 C 0.27162 0.20822 0.22755 0.0
C396 C 0.25242 0.16782 0.22271 0.0
C397 C 0.25111 0.16159 0.21059 0.0
C398 C 0.24845 0.19717 0.2602 0.0
C399 C 0.29029 0.21353 0.26494 0.0
C400 C 0.24164 0.19683 0.24805 0.0
C401 C 0.27667 0.2126 0.24044 0.0
C402 C 0.31804 0.22988 0.24521 0.0
C403 C 0.32473 0.23047 0.25733 0.0
H404 H 0.7218 0.80374 0.45092 0.0
H405 H 0.85597 0.74036 0.4565 0.0
H406 H 0.70809 0.80312 0.47211 0.0
H407 H 0.84293 0.74113 0.47753 0.0
H408 H 0.79794 0.71976 0.51462 0.0
H409 H 0.79851 0.70869 0.49335 0.0
H410 H 0.73835 0.84473 0.48875 0.0
H411 H 0.73633 0.85517 0.50988 0.0
C412 C 0.74828 0.78968 0.45665 0.0
C413 C 0.79005 0.77242 0.45205 0.0
C414 C 0.74049 0.7894 0.46877 0.0
C415 C 0.77445 0.77209 0.47648 0.0
C416 C 0.81572 0.75394 0.47183 0.0
C417 C 0.82336 0.75395 0.45975 0.0
C418 C 0.78442 0.74705 0.50905 0.0
C419 C 0.76755 0.78849 0.51392 0.0
C420 C 0.78484 0.74078 0.49688 0.0
C421 C 0.76873 0.77598 0.48937 0.0
C422 C 0.75042 0.81669 0.49428 0.0
C423 C 0.74968 0.82282 0.50642 0.0
H424 H 0.25302 0.3513 0.70805 0.0
H425 H 0.18954 0.21715 0.70277 0.0
H426 H 0.25104 0.33968 0.72913 0.0
H427 H 0.18896 0.20488 0.724 0.0
H428 H 0.13227 0.23623 0.76107 0.0
H429 H 0.1452 0.2372 0.74003 0.0
H430 H 0.28112 0.29647 0.74552 0.0
H431 H 0.26757 0.29688 0.76671 0.0
C432 C 0.23925 0.31897 0.71138 0.0
C433 C 0.22089 0.28535 0.70375 0.0
C434 C 0.23854 0.31215 0.72349 0.0
C435 C 0.21974 0.27142 0.72824 0.0
C436 C 0.20305 0.23694 0.72059 0.0
C437 C 0.20349 0.2439 0.70845 0.0
C438 C 0.1651 0.24922 0.75783 0.0
C439 C 0.19873 0.26697 0.76555 0.0
C440 C 0.17267 0.24933 0.74575 0.0
C441 C 0.21418 0.2669 0.74111 0.0
C442 C 0.24852 0.28326 0.74885 0.0
C443 C 0.24082 0.28342 0.76096 0.0
H444 H 0.68877 0.76729 0.01639 0.0
H445 H 0.75357 0.63376 0.0109 0.0
H446 H 0.68794 0.77995 -0.00483 0.0
H447 H 0.75136 0.64575 -0.01016 0.0
H448 H 0.76825 0.68935 0.9524 0.0
H449 H 0.78143 0.6896 0.97359 0.0
H450 H 0.64487 0.74779 0.97901 0.0
H451 H 0.63231 0.74896 0.95796 0.0
C452 C 0.7029 0.74075 0.01067 0.0
C453 C 0.72083 0.69939 0.01531 0.0
C454 C 0.70234 0.74793 -0.00146 0.0
C455 C 0.71945 0.71376 -0.00916 0.0
C456 C 0.73858 0.67307 -0.00447 0.0
C457 C 0.73941 0.66602 0.00762 0.0
C458 C 0.74128 0.70256 0.95812 0.0
C459 C 0.69912 0.71873 0.95351 0.0
C460 C 0.74877 0.70262 0.97025 0.0
C461 C 0.71411 0.71858 0.97797 0.0
C462 C 0.67255 0.73595 0.97331 0.0
C463 C 0.6652 0.73617 0.96122 0.0
H464 H 0.23966 0.35427 0.01113 0.0
H465 H 0.30333 0.22022 0.01655 0.0
H466 H 0.24059 0.34165 -0.00992 0.0
H467 H 0.30288 0.20694 -0.00465 0.0
H468 H 0.2204 0.2969 0.95281 0.0
H469 H 0.2088 0.29754 0.97407 0.0
H470 H 0.34506 0.23797 0.97891 0.0
H471 H 0.35604 0.23592 0.95781 0.0
C472 C 0.25333 0.32177 0.00784 0.0
C473 C 0.27191 0.2884 0.01551 0.0
C474 C 0.25341 0.31437 -0.00425 0.0
C475 C 0.27178 0.27331 -0.00895 0.0
C476 C 0.28903 0.23922 -0.00127 0.0
C477 C 0.28922 0.24676 0.01086 0.0
C478 C 0.24763 0.28357 0.95843 0.0
C479 C 0.28925 0.26677 0.95364 0.0
C480 C 0.24106 0.28403 0.97059 0.0
C481 C 0.27611 0.26796 0.97816 0.0
C482 C 0.3171 0.24993 0.97333 0.0
C483 C 0.32354 0.24919 0.96121 0.0
H484 H 0.76199 0.80045 0.26539 0.0
H485 H 0.62746 0.73725 0.26041 0.0
H486 H 0.77288 0.80251 0.24411 0.0
H487 H 0.63773 0.74068 0.23929 0.0
H488 H 0.74225 0.85801 0.20705 0.0
H489 H 0.74016 0.84613 0.22812 0.0
H490 H 0.68065 0.71027 0.22284 0.0
H491 H 0.68138 0.72274 0.20161 0.0
C492 C 0.73482 0.787 0.25977 0.0
C493 C 0.69377 0.76901 0.26457 0.0
C494 C 0.74098 0.78828 0.2476 0.0
C495 C 0.70608 0.77187 0.24003 0.0
C496 C 0.66557 0.75292 0.24487 0.0
C497 C 0.65954 0.75136 0.257 0.0
C498 C 0.7289 0.82544 0.21035 0.0
C499 C 0.7116 0.79142 0.20266 0.0
C500 C 0.72813 0.8185 0.22244 0.0
C501 C 0.71032 0.77726 0.22715 0.0
C502 C 0.69406 0.74268 0.21946 0.0
C503 C 0.69456 0.74975 0.20732 0.0
H504 H 0.13548 0.25295 0.45714 0.0
H505 H 0.27063 0.1919 0.45133 0.0
H506 H 0.14849 0.25138 0.47816 0.0
H507 H 0.28426 0.19169 0.47252 0.0
H508 H 0.25542 0.13581 0.50992 0.0
H509 H 0.254 0.14817 0.48886 0.0
H510 H 0.19236 0.28316 0.49421 0.0
H511 H 0.19236 0.27017 0.5154 0.0
C512 C 0.1683 0.23974 0.46034 0.0
C513 C 0.20186 0.22206 0.45257 0.0
C514 C 0.17592 0.2393 0.47241 0.0
C515 C 0.2174 0.22145 0.477 0.0
C516 C 0.25169 0.20514 0.46923 0.0
C517 C 0.24394 0.20534 0.45711 0.0
C518 C 0.24187 0.16834 0.50664 0.0
C519 C 0.22341 0.2018 0.51433 0.0
C520 C 0.24149 0.17558 0.49455 0.0
C521 C 0.22293 0.21656 0.48987 0.0
C522 C 0.20624 0.25091 0.49757 0.0
C523 C 0.20634 0.24353 0.50969 0.0
H524 H 0.7341 0.63321 0.70778 0.0
H525 H 0.79674 0.76773 0.70254 0.0
H526 H 0.73563 0.64508 0.72887 0.0
H527 H 0.79687 0.78025 0.72376 0.0
H528 H 0.71775 0.68854 0.7664 0.0
H529 H 0.70482 0.68833 0.74519 0.0
H530 H 0.84042 0.74854 0.73987 0.0
H531 H 0.85273 0.75013 0.76093 0.0
C532 C 0.7476 0.66566 0.71112 0.0
C533 C 0.76583 0.69934 0.70349 0.0
C534 C 0.74805 0.67263 0.72323 0.0
C535 C 0.76646 0.71355 0.72798 0.0
C536 C 0.78308 0.74804 0.72034 0.0
C537 C 0.7829 0.74095 0.7082 0.0
C538 C 0.74456 0.70208 0.76069 0.0
C539 C 0.78637 0.71899 0.76533 0.0
C540 C 0.73722 0.70188 0.74856 0.0
C541 C 0.77166 0.71833 0.74086 0.0
C542 C 0.81289 0.73633 0.74555 0.0
C543 C 0.8201 0.7368 0.75765 0.0
H544 H 0.12191 0.97286 0.17156 0.0
H545 H 0.07353 0.10284 0.18599 0.0
H546 H 0.04421 0.94055 0.17375 0.0
H547 H -0.00391 0.07037 0.18825 0.0
H548 H 0.90649 0.88565 0.18601 0.0
H549 H 0.98389 0.91817 0.18829 0.0
H550 H 0.93586 0.04777 0.17371 0.0
H551 H 0.85819 0.01541 0.17151 0.0
C552 C 0.09493 -0.00577 0.17539 0.0
C553 C 0.1037 0.04047 0.1785 0.0
C554 C 0.0505 0.9757 0.17669 0.0
C555 C 0.01406 0.00314 0.18109 0.0
C556 C 0.02338 0.04869 0.18469 0.0
C557 C 0.06779 0.06713 0.18344 0.0
C558 C 0.91223 0.92132 0.18345 0.0
C559 C 0.87635 0.9479 0.17848 0.0
C560 C 0.95662 0.9398 0.18471 0.0
C561 C 0.96596 0.9853 0.18109 0.0
C562 C 0.92955 0.01267 0.17667 0.0
C563 C 0.88513 -0.00589 0.17536 0.0
H564 H 0.97305 0.36316 0.42111 0.0
H565 H 0.1022 0.41168 0.43594 0.0
H566 H 0.94036 0.44079 0.42321 0.0
H567 H 0.06936 0.48897 0.43813 0.0
H568 H 0.8847 0.57884 0.4352 0.0
H569 H 0.91692 0.50132 0.43754 0.0
H570 H 0.04776 0.549 0.42358 0.0
H571 H 0.01572 0.62675 0.42133 0.0
C572 C -0.00587 0.39015 0.42501 0.0
C573 C 0.04029 0.38147 0.42824 0.0
C574 C 0.97539 0.43454 0.42626 0.0
C575 C 0.00253 0.47098 0.43074 0.0
C576 C 0.04792 0.4617 0.43449 0.0
C577 C 0.06659 0.41737 0.43327 0.0
C578 C 0.92057 0.57297 0.43279 0.0
C579 C 0.94763 0.60878 0.42798 0.0
C580 C 0.93887 0.52852 0.43408 0.0
C581 C 0.98466 0.51907 0.43066 0.0
C582 C 0.01242 0.55539 0.42638 0.0
C583 C -0.00595 0.59986 0.42505 0.0
H584 H 0.36017 0.51133 0.67038 0.0
H585 H 0.41226 0.38259 0.68461 0.0
H586 H 0.43747 0.54506 0.67202 0.0
H587 H 0.48923 0.41651 0.68638 0.0
H588 H 0.62623 0.47365 0.67028 0.0
H589 H 0.54892 0.44007 0.67208 0.0
H590 H 0.49744 0.56938 0.68616 0.0
H591 H 0.57442 0.60314 0.68422 0.0
C592 C 0.38792 0.49052 0.67403 0.0
C593 C 0.38025 0.44425 0.67727 0.0
C594 C 0.43213 0.50985 0.67501 0.0
C595 C 0.46944 0.48324 0.67925 0.0
C596 C 0.46129 0.43757 0.68292 0.0
C597 C 0.41714 0.41829 0.68196 0.0
C598 C 0.59854 0.49467 0.67389 0.0
C599 C 0.60629 0.54109 0.67701 0.0
C600 C 0.55432 0.47543 0.67498 0.0
C601 C 0.5171 0.50227 0.67919 0.0
C602 C 0.52532 0.54812 0.68272 0.0
C603 C 0.56947 0.56732 0.68166 0.0
H604 H 0.38323 0.07473 0.93525 0.0
H605 H 0.5132 0.12396 0.92104 0.0
H606 H 0.41613 -0.00254 0.93739 0.0
H607 H 0.54594 0.04636 0.92308 0.0
H608 H 0.60177 0.90932 0.93561 0.0
H609 H 0.56867 0.98659 0.93759 0.0
H610 H 0.43945 0.9371 0.92307 0.0
H611 H 0.47238 0.8595 0.92119 0.0
C612 C 0.41899 0.06917 0.93269 0.0
C613 C 0.44558 0.10531 0.92788 0.0
C614 C 0.43769 0.02486 0.93388 0.0
C615 C 0.4834 0.01583 0.93032 0.0
C616 C 0.51067 0.05243 0.92599 0.0
C617 C 0.49191 0.09679 0.92477 0.0
C618 C 0.56607 0.91474 0.93298 0.0
C619 C 0.53973 0.87845 0.92814 0.0
C620 C 0.54727 0.95906 0.93407 0.0
C621 C 0.5017 0.96793 0.93039 0.0
C622 C 0.47461 0.93116 0.92606 0.0
C623 C 0.49348 0.88679 0.92494 0.0
H624 H 0.12831 0.51483 0.04642 0.0
H625 H 0.08002 0.38452 0.03223 0.0
H626 H 0.05065 0.54725 0.04414 0.0
H627 H 0.00263 0.41711 0.02986 0.0
H628 H 0.86455 0.47277 0.04639 0.0
H629 H 0.9422 0.44016 0.04425 0.0
H630 H 0.99052 0.56946 0.02961 0.0
H631 H 0.91314 0.60225 0.03184 0.0
C632 C 0.10136 0.49341 0.04262 0.0
C633 C 0.11014 0.44706 0.03961 0.0
C634 C 0.05695 0.512 0.04127 0.0
C635 C 0.02055 0.48452 0.0369 0.0
C636 C 0.02989 0.43884 0.0334 0.0
C637 C 0.07427 0.42032 0.03471 0.0
C638 C 0.89156 0.49395 0.04254 0.0
C639 C 0.88288 0.54016 0.0394 0.0
C640 C 0.93597 0.47525 0.04127 0.0
C641 C 0.97246 0.50247 0.03685 0.0
C642 C 0.9632 0.54795 0.03319 0.0
C643 C 0.91883 0.56658 0.03443 0.0
H644 H 0.60246 0.57201 0.28247 0.0
H645 H 0.47258 0.62135 0.2968 0.0
H646 H 0.56984 0.49454 0.28051 0.0
H647 H 0.44014 0.54365 0.29491 0.0
H648 H 0.38466 0.40602 0.28272 0.0
H649 H 0.41748 0.48321 0.28049 0.0
H650 H 0.54694 0.43475 0.29512 0.0
H651 H 0.51426 0.3572 0.29727 0.0
C652 C 0.56675 0.56646 0.28507 0.0
C653 C 0.54013 0.60268 0.28988 0.0
C654 C 0.54823 0.52204 0.284 0.0
C655 C 0.50265 0.51301 0.28765 0.0
C656 C 0.47531 0.5497 0.29194 0.0
C657 C 0.4939 0.59414 0.29306 0.0
C658 C 0.42035 0.41163 0.28533 0.0
C659 C 0.44682 0.37564 0.29027 0.0
C660 C 0.439 0.4559 0.28409 0.0
C661 C 0.48456 0.46505 0.28772 0.0
C662 C 0.51179 0.42858 0.29216 0.0
C663 C 0.49305 0.38424 0.29344 0.0
H664 H 0.6276 0.01195 0.54787 0.0
H665 H 0.57599 0.88274 0.53379 0.0
H666 H 0.55023 0.04559 0.54612 0.0
H667 H 0.49896 0.91656 0.5319 0.0
H668 H 0.36148 0.9746 0.54763 0.0
H669 H 0.43883 0.94079 0.54604 0.0
H670 H 0.49072 0.06941 0.53179 0.0
H671 H 0.4137 0.10341 0.53352 0.0
C672 C 0.59993 0.991 0.54424 0.0
C673 C 0.60776 0.94465 0.54106 0.0
C674 C 0.55569 0.01028 0.54319 0.0
C675 C 0.51852 0.98354 0.53894 0.0
C676 C 0.5268 0.93774 0.53536 0.0
C677 C 0.57098 0.91851 0.53639 0.0
C678 C 0.38927 -0.00459 0.54402 0.0
C679 C 0.38163 0.04172 0.5408 0.0
C680 C 0.43351 0.97603 0.54306 0.0
C681 C 0.47086 0.00264 0.53887 0.0
C682 C 0.46275 0.04835 0.53522 0.0
C683 C 0.41857 0.06768 0.53616 0.0
H684 H 0.10122 0.07588 0.78359 0.0
H685 H 0.97183 0.12611 0.79799 0.0
H686 H 0.06801 -0.00127 0.78158 0.0
H687 H 0.93879 0.04863 0.79609 0.0
H688 H 0.88224 0.91146 0.78371 0.0
H689 H 0.91534 0.98866 0.78173 0.0
H690 H 0.04498 0.9387 0.79594 0.0
H691 H 0.01205 0.86118 0.79781 0.0
C692 C 0.06551 0.07057 0.78622 0.0
C693 C 0.03919 0.10696 0.79104 0.0
C694 C 0.04664 0.02632 0.78511 0.0
C695 C 0.00101 0.0176 0.78877 0.0
C696 C 0.97399 0.05444 0.79311 0.0
C697 C 0.99292 0.09875 0.79425 0.0
C698 C 0.91802 0.91677 0.78627 0.0
C699 C 0.9445 0.88034 0.791 0.0
C700 C 0.93683 0.96105 0.78519 0.0
C701 C 0.98255 0.96976 0.78877 0.0
C702 C 0.00971 0.9329 0.79302 0.0
C703 C 0.99084 0.88857 0.79413 0.0
H704 H 0.62618 0.98905 0.16948 0.0
H705 H 0.55019 0.87139 0.15597 0.0
H706 H 0.55532 0.03516 0.16914 0.0
H707 H 0.47976 0.91777 0.15542 0.0
H708 H 0.35417 -0.00114 0.16949 0.0
H709 H 0.42501 0.95269 0.16908 0.0
H710 H 0.50067 0.07021 0.15552 0.0
H711 H 0.43029 0.11664 0.15615 0.0
C712 C 0.59451 0.97312 0.16635 0.0
C713 C 0.59389 0.92647 0.16279 0.0
C714 C 0.55392 -0.00039 0.1661 0.0
C715 C 0.51187 0.98007 0.16228 0.0
C716 C 0.51142 0.93364 0.15858 0.0
C717 C 0.55193 0.90715 0.15883 0.0
C718 C 0.38586 0.01481 0.16638 0.0
C719 C 0.38653 0.06151 0.16289 0.0
C720 C 0.42643 0.98828 0.16609 0.0
C721 C 0.46851 0.00785 0.1623 0.0
C722 C 0.469 0.05432 0.15866 0.0
C723 C 0.42852 0.08084 0.15896 0.0
H724 H 0.99136 0.85845 0.42008 0.0
H725 H 0.87504 0.93624 0.40642 0.0
H726 H 0.03805 0.92888 0.42019 0.0
H727 H 0.92197 0.00617 0.40632 0.0
H728 H 0.1205 0.05475 0.40753 0.0
H729 H 0.07434 0.98423 0.40689 0.0
H730 H 0.95619 0.05959 0.42037 0.0
H731 H 0.00202 0.13044 0.42081 0.0
C732 C 0.97584 0.89043 0.41701 0.0
C733 C 0.92939 0.89168 0.41329 0.0
C734 C 0.00267 0.93075 0.41703 0.0
C735 C 0.98363 0.97316 0.41331 0.0
C736 C 0.93742 0.97422 0.40942 0.0
C737 C 0.91062 0.934 0.40942 0.0
C738 C 0.08465 0.05637 0.41035 0.0
C739 C 0.06496 0.09832 0.41422 0.0
C740 C 0.05829 0.01583 0.41004 0.0
C741 C 0.01163 0.01628 0.41359 0.0
C742 C 0.99189 0.05822 0.41743 0.0
C743 C 0.01824 0.09879 0.41774 0.0
H744 H 0.05096 0.3685 0.65925 0.0
H745 H 0.12953 0.48467 0.67264 0.0
H746 H 0.98125 0.41602 0.65902 0.0
H747 H 0.05942 0.53188 0.67264 0.0
H748 H 0.93607 0.61561 0.65915 0.0
H749 H 0.00574 0.56803 0.65901 0.0
H750 H 0.92715 0.45237 0.67254 0.0
H751 H 0.85707 0.49965 0.67244 0.0
C752 C 0.05338 0.40413 0.66219 0.0
C753 C 0.0959 0.42276 0.66596 0.0
C754 C 0.0133 0.43128 0.66212 0.0
C755 C 0.01474 0.47769 0.66584 0.0
C756 C 0.05726 0.49639 0.66958 0.0
C757 C 0.09741 0.46925 0.66964 0.0
C758 C 0.93354 0.58001 0.66208 0.0
C759 C 0.89092 0.56146 0.66581 0.0
C760 C 0.9736 0.55283 0.66207 0.0
C761 C 0.97204 0.50646 0.6658 0.0
C762 C 0.92941 0.48782 0.66949 0.0
C763 C 0.88928 0.515 0.66948 0.0
H764 H 0.48739 0.35584 0.9217 0.0
H765 H 0.37037 0.43361 0.90843 0.0
H766 H 0.53411 0.42616 0.92163 0.0
H767 H 0.41739 0.50354 0.90814 0.0
H768 H 0.61666 0.55061 0.90847 0.0
H769 H 0.56978 0.48058 0.90808 0.0
H770 H 0.45305 0.55744 0.92182 0.0
H771 H 0.49961 0.62785 0.92198 0.0
C772 C 0.4717 0.38782 0.91869 0.0
C773 C 0.42509 0.38906 0.9151 0.0
C774 C 0.49856 0.42809 0.9186 0.0
C775 C 0.47943 0.47046 0.9149 0.0
C776 C 0.43296 0.4716 0.91121 0.0
C777 C 0.4061 0.4314 0.91132 0.0
C778 C 0.58097 0.55268 0.91139 0.0
C779 C 0.56191 0.5949 0.91526 0.0
C780 C 0.55418 0.51242 0.91123 0.0
C781 C 0.50773 0.5134 0.91495 0.0
C782 C 0.48858 0.55565 0.91876 0.0
C783 C 0.51535 0.59596 0.91891 0.0
H784 H 0.55556 0.61724 0.06083 0.0
H785 H 0.63272 0.49989 0.04748 0.0
H786 H 0.48538 0.5706 0.06122 0.0
H787 H 0.5621 0.45353 0.04764 0.0
H788 H 0.43766 0.37162 0.06098 0.0
H789 H 0.50779 0.41833 0.0613 0.0
H790 H 0.43095 0.53503 0.04763 0.0
H791 H 0.36037 0.48858 0.04754 0.0
C792 C 0.5576 0.58151 0.05796 0.0
C793 C 0.59984 0.56232 0.05412 0.0
C794 C 0.51723 0.55487 0.05811 0.0
C795 C 0.5181 0.50842 0.05442 0.0
C796 C 0.56039 0.48908 0.05067 0.0
C797 C 0.60083 0.51572 0.05052 0.0
C798 C 0.43558 0.40729 0.05807 0.0
C799 C 0.39332 0.42634 0.05422 0.0
C800 C 0.47592 0.43396 0.05818 0.0
C801 C 0.47501 0.48032 0.05445 0.0
C802 C 0.4327 0.49955 0.05069 0.0
C803 C 0.39228 0.47286 0.05059 0.0
H804 H 0.48686 0.12448 0.2978 0.0
H805 H 0.36843 0.04888 0.311 0.0
H806 H 0.53283 0.05363 0.29824 0.0
H807 H 0.41472 0.97837 0.31167 0.0
H808 H 0.61415 0.92962 0.31163 0.0
H809 H 0.56727 -0.00034 0.31208 0.0
H810 H 0.45061 0.92323 0.29826 0.0
H811 H 0.49726 0.8527 0.29802 0.0
C812 C 0.4707 0.09287 0.30087 0.0
C813 C 0.42392 0.09239 0.30433 0.0
C814 C 0.49713 0.05229 0.30118 0.0
C815 C 0.4774 0.01035 0.30499 0.0
C816 C 0.43075 0.00996 0.30854 0.0
C817 C 0.40431 0.05049 0.30822 0.0
C818 C 0.57844 0.9276 0.30872 0.0
C819 C 0.55951 0.8855 0.30475 0.0
C820 C 0.55166 0.96788 0.30892 0.0
C821 C 0.50532 0.9671 0.30514 0.0
C822 C 0.4861 0.92488 0.30134 0.0
C823 C 0.5129 0.8845 0.30116 0.0
H824 H 0.938 0.87023 0.55836 0.0
H825 H 0.85842 0.98638 0.54533 0.0
H826 H 0.00749 0.91792 0.5585 0.0
H827 H 0.92833 0.03377 0.54522 0.0
H828 H 0.05202 0.11751 0.55855 0.0
H829 H 0.98244 0.06993 0.55873 0.0
H830 H 0.06091 0.95447 0.5449 0.0
H831 H 0.13089 0.00173 0.54496 0.0
C832 C 0.93531 0.90589 0.55548 0.0
C833 C 0.89257 0.92447 0.55183 0.0
C834 C 0.97527 0.93314 0.55549 0.0
C835 C 0.97349 0.97959 0.55184 0.0
C836 C 0.93075 -0.00175 0.54823 0.0
C837 C 0.89072 0.97101 0.54823 0.0
C838 C 0.05453 0.08196 0.55555 0.0
C839 C 0.0971 0.06344 0.55175 0.0
C840 C 0.01452 0.05477 0.55559 0.0
C841 C 0.01609 0.00845 0.55181 0.0
C842 C 0.05866 0.98988 0.54802 0.0
C843 C 0.09873 0.01705 0.548 0.0
H844 H 0.98603 0.62964 0.7971 0.0
H845 H 0.86915 0.55227 0.81053 0.0
H846 H 0.03281 0.55926 0.79724 0.0
H847 H 0.91623 0.48229 0.81089 0.0
H848 H -0.00142 0.35761 0.79715 0.0
H849 H 0.9519 0.42805 0.79726 0.0
H850 H 0.06858 0.50509 0.81085 0.0
H851 H 0.11557 0.43503 0.81052 0.0
C852 C 0.97038 0.59774 0.80015 0.0
C853 C 0.92379 0.59662 0.80377 0.0
C854 C -0.00272 0.55744 0.80028 0.0
C855 C 0.9782 0.51515 0.80406 0.0
C856 C 0.93176 0.51415 0.80777 0.0
C857 C 0.90486 0.55438 0.80763 0.0
C858 C 0.01428 0.38954 0.80018 0.0
C859 C 0.06086 0.39065 0.8038 0.0
C860 C 0.98744 0.42988 0.8003 0.0
C861 C 0.00656 0.47219 0.80405 0.0
C862 C 0.05302 0.4732 0.80775 0.0
C863 C 0.07986 0.43293 0.80762 0.0
loop_
_geom_bond_atom_site_label_1
_geom_bond_atom_site_label_2
_geom_bond_distance
_geom_bond_site_symmetry_2
_ccdc_geom_bond_type
C0 O1 1.306 . S
C0 O3 1.160 . S
O1 C0 1.306 . S
O1 Cd2 2.228 . S
Cd2 O1 2.228 . S
Cd2 O6 2.273 . S
Cd2 O10 2.277 . S
O3 C0 1.160 . S
O3 Cd4 2.203 . S
Cd4 O3 2.203 . S
Cd4 O6 2.411 . S
Cd4 O7 2.333 . S
Cd4 O8 2.352 . S
Cd4 O12 2.277 . S
Cd4 O13 2.356 . S
C5 O10 1.209 . S
C5 O12 1.226 . S
O6 Cd2 2.273 . S
O6 Cd4 2.411 . S
O6 C9 1.320 . S
O7 Cd4 2.333 . S
O7 C9 1.214 . S
O8 Cd4 2.352 . S
O8 C11 1.258 . S
C9 O6 1.320 . S
C9 O7 1.214 . S
O10 Cd2 2.277 . S
O10 C5 1.209 . S
C11 O8 1.258 . S
C11 O13 1.282 . S
O12 Cd4 2.277 . S
O12 C5 1.226 . S
O13 Cd4 2.356 . S
O13 C11 1.282 . S
C14 O15 1.306 . S
C14 O17 1.160 . S
O15 C14 1.306 . S
O15 Cd16 2.228 . S
Cd16 O15 2.228 . S
Cd16 O20 2.273 . S
Cd16 O24 2.277 . S
O17 C14 1.160 . S
O17 Cd18 2.203 . S
Cd18 O17 2.203 . S
Cd18 O20 2.411 . S
Cd18 O21 2.333 . S
Cd18 O22 2.352 . S
Cd18 O26 2.277 . S
Cd18 O27 2.356 . S
C19 O24 1.209 . S
C19 O26 1.226 . S
O20 Cd16 2.273 . S
O20 Cd18 2.411 . S
O20 C23 1.320 . S
O21 Cd18 2.333 . S
O21 C23 1.214 . S
O22 Cd18 2.352 . S
O22 C25 1.258 . S
C23 O20 1.320 . S
C23 O21 1.214 . S
O24 Cd16 2.277 . S
O24 C19 1.209 . S
C25 O22 1.258 . S
C25 O27 1.282 . S
O26 Cd18 2.277 . S
O26 C19 1.226 . S
O27 Cd18 2.356 . S
O27 C25 1.282 . S
C28 O29 1.306 . S
C28 O31 1.160 . S
O29 C28 1.306 . S
O29 Cd30 2.228 . S
Cd30 O29 2.228 . S
Cd30 O34 2.273 . S
Cd30 O38 2.277 . S
O31 C28 1.160 . S
O31 Cd32 2.203 . S
Cd32 O31 2.203 . S
Cd32 O34 2.411 . S
Cd32 O35 2.333 . S
Cd32 O36 2.352 . S
Cd32 O40 2.277 . S
Cd32 O41 2.356 . S
C33 O38 1.209 . S
C33 O40 1.226 . S
O34 Cd30 2.273 . S
O34 Cd32 2.411 . S
O34 C37 1.320 . S
O35 Cd32 2.333 . S
O35 C37 1.214 . S
O36 Cd32 2.352 . S
O36 C39 1.258 . S
C37 O34 1.320 . S
C37 O35 1.214 . S
O38 Cd30 2.277 . S
O38 C33 1.209 . S
C39 O36 1.258 . S
C39 O41 1.282 . S
O40 Cd32 2.277 . S
O40 C33 1.226 . S
O41 Cd32 2.356 . S
O41 C39 1.282 . S
C42 O43 1.306 . S
C42 O45 1.160 . S
O43 C42 1.306 . S
O43 Cd44 2.228 . S
Cd44 O43 2.228 . S
Cd44 O48 2.273 . S
Cd44 O52 2.277 . S
O45 C42 1.160 . S
O45 Cd46 2.203 . S
Cd46 O45 2.203 . S
Cd46 O48 2.411 . S
Cd46 O49 2.333 . S
Cd46 O50 2.352 . S
Cd46 O54 2.277 . S
Cd46 O55 2.356 . S
C47 O52 1.209 . S
C47 O54 1.226 . S
O48 Cd44 2.273 . S
O48 Cd46 2.411 . S
O48 C51 1.320 . S
O49 Cd46 2.333 . S
O49 C51 1.214 . S
O50 Cd46 2.352 . S
O50 C53 1.258 . S
C51 O48 1.320 . S
C51 O49 1.214 . S
O52 Cd44 2.277 . S
O52 C47 1.209 . S
C53 O50 1.258 . S
C53 O55 1.282 . S
O54 Cd46 2.277 . S
O54 C47 1.226 . S
O55 Cd46 2.356 . S
O55 C53 1.282 . S
C56 O57 1.306 . S
C56 O59 1.160 . S
O57 C56 1.306 . S
O57 Cd58 2.228 . S
Cd58 O57 2.228 . S
Cd58 O62 2.273 . S
Cd58 O66 2.277 . S
O59 C56 1.160 . S
O59 Cd60 2.203 . S
Cd60 O59 2.203 . S
Cd60 O62 2.411 . S
Cd60 O63 2.333 . S
Cd60 O64 2.352 . S
Cd60 O68 2.277 . S
Cd60 O69 2.356 . S
C61 O66 1.209 . S
C61 O68 1.226 . S
O62 Cd58 2.273 . S
O62 Cd60 2.411 . S
O62 C65 1.320 . S
O63 Cd60 2.333 . S
O63 C65 1.214 . S
O64 Cd60 2.352 . S
O64 C67 1.258 . S
C65 O62 1.320 . S
C65 O63 1.214 . S
O66 Cd58 2.277 . S
O66 C61 1.209 . S
C67 O64 1.258 . S
C67 O69 1.282 . S
O68 Cd60 2.277 . S
O68 C61 1.226 . S
O69 Cd60 2.356 . S
O69 C67 1.282 . S
C70 O71 1.306 . S
C70 O73 1.160 . S
O71 C70 1.306 . S
O71 Cd72 2.228 . S
Cd72 O71 2.228 . S
Cd72 O76 2.273 . S
Cd72 O80 2.277 . S
O73 C70 1.160 . S
O73 Cd74 2.203 . S
Cd74 O73 2.203 . S
Cd74 O76 2.411 . S
Cd74 O77 2.333 . S
Cd74 O78 2.352 . S
Cd74 O82 2.277 . S
Cd74 O83 2.356 . S
C75 O80 1.209 . S
C75 O82 1.226 . S
O76 Cd72 2.273 . S
O76 Cd74 2.411 . S
O76 C79 1.320 . S
O77 Cd74 2.333 . S
O77 C79 1.214 . S
O78 Cd74 2.352 . S
O78 C81 1.258 . S
C79 O76 1.320 . S
C79 O77 1.214 . S
O80 Cd72 2.277 . S
O80 C75 1.209 . S
C81 O78 1.258 . S
C81 O83 1.282 . S
O82 Cd74 2.277 . S
O82 C75 1.226 . S
O83 Cd74 2.356 . S
O83 C81 1.282 . S
C84 O85 1.306 . S
C84 O87 1.160 . S
O85 C84 1.306 . S
O85 Cd86 2.228 . S
Cd86 O85 2.228 . S
Cd86 O90 2.273 . S
Cd86 O94 2.277 . S
O87 C84 1.160 . S
O87 Cd88 2.203 . S
Cd88 O87 2.203 . S
Cd88 O90 2.411 . S
Cd88 O91 2.333 . S
Cd88 O92 2.352 . S
Cd88 O96 2.277 . S
Cd88 O97 2.356 . S
C89 O94 1.209 . S
C89 O96 1.226 . S
O90 Cd86 2.273 . S
O90 Cd88 2.411 . S
O90 C93 1.320 . S
O91 Cd88 2.333 . S
O91 C93 1.214 . S
O92 Cd88 2.352 . S
O92 C95 1.258 . S
C93 O90 1.320 . S
C93 O91 1.214 . S
O94 Cd86 2.277 . S
O94 C89 1.209 . S
C95 O92 1.258 . S
C95 O97 1.282 . S
O96 Cd88 2.277 . S
O96 C89 1.226 . S
O97 Cd88 2.356 . S
O97 C95 1.282 . S
C98 O99 1.306 . S
C98 O101 1.160 . S
O99 C98 1.306 . S
O99 Cd100 2.228 . S
Cd100 O99 2.228 . S
Cd100 O104 2.273 . S
Cd100 O108 2.277 . S
O101 C98 1.160 . S
O101 Cd102 2.203 . S
Cd102 O101 2.203 . S
Cd102 O104 2.411 . S
Cd102 O105 2.333 . S
Cd102 O106 2.352 . S
Cd102 O110 2.277 . S
Cd102 O111 2.356 . S
C103 O108 1.209 . S
C103 O110 1.226 . S
O104 Cd100 2.273 . S
O104 Cd102 2.411 . S
O104 C107 1.320 . S
O105 Cd102 2.333 . S
O105 C107 1.214 . S
O106 Cd102 2.352 . S
O106 C109 1.258 . S
C107 O104 1.320 . S
C107 O105 1.214 . S
O108 Cd100 2.277 . S
O108 C103 1.209 . S
C109 O106 1.258 . S
C109 O111 1.282 . S
O110 Cd102 2.277 . S
O110 C103 1.226 . S
O111 Cd102 2.356 . S
O111 C109 1.282 . S
C112 O113 1.306 . S
C112 O115 1.160 . S
O113 C112 1.306 . S
O113 Cd114 2.228 . S
Cd114 O113 2.228 . S
Cd114 O118 2.273 . S
Cd114 O122 2.277 . S
O115 C112 1.160 . S
O115 Cd116 2.203 . S
Cd116 O115 2.203 . S
Cd116 O118 2.411 . S
Cd116 O119 2.333 . S
Cd116 O120 2.352 . S
Cd116 O124 2.277 . S
Cd116 O125 2.356 . S
C117 O122 1.209 . S
C117 O124 1.226 . S
O118 Cd114 2.273 . S
O118 Cd116 2.411 . S
O118 C121 1.320 . S
O119 Cd116 2.333 . S
O119 C121 1.214 . S
O120 Cd116 2.352 . S
O120 C123 1.258 . S
C121 O118 1.320 . S
C121 O119 1.214 . S
O122 Cd114 2.277 . S
O122 C117 1.209 . S
C123 O120 1.258 . S
C123 O125 1.282 . S
O124 Cd116 2.277 . S
O124 C117 1.226 . S
O125 Cd116 2.356 . S
O125 C123 1.282 . S
C126 O127 1.306 . S
C126 O129 1.160 . S
O127 C126 1.306 . S
O127 Cd128 2.228 . S
Cd128 O127 2.228 . S
Cd128 O132 2.273 . S
Cd128 O136 2.277 . S
O129 C126 1.160 . S
O129 Cd130 2.203 . S
Cd130 O129 2.203 . S
Cd130 O132 2.411 . S
Cd130 O133 2.333 . S
Cd130 O134 2.352 . S
Cd130 O138 2.277 . S
Cd130 O139 2.356 . S
C131 O136 1.209 . S
C131 O138 1.226 . S
O132 Cd128 2.273 . S
O132 Cd130 2.411 . S
O132 C135 1.320 . S
O133 Cd130 2.333 . S
O133 C135 1.214 . S
O134 Cd130 2.352 . S
O134 C137 1.258 . S
C135 O132 1.320 . S
C135 O133 1.214 . S
O136 Cd128 2.277 . S
O136 C131 1.209 . S
C137 O134 1.258 . S
C137 O139 1.282 . S
O138 Cd130 2.277 . S
O138 C131 1.226 . S
O139 Cd130 2.356 . S
O139 C137 1.282 . S
C140 O141 1.306 . S
C140 O143 1.160 . S
O141 C140 1.306 . S
O141 Cd142 2.228 . S
Cd142 O141 2.228 . S
Cd142 O146 2.273 . S
Cd142 O150 2.277 . S
O143 C140 1.160 . S
O143 Cd144 2.203 . S
Cd144 O143 2.203 . S
Cd144 O146 2.411 . S
Cd144 O147 2.333 . S
Cd144 O148 2.352 . S
Cd144 O152 2.277 . S
Cd144 O153 2.356 . S
C145 O150 1.209 . S
C145 O152 1.226 . S
O146 Cd142 2.273 . S
O146 Cd144 2.411 . S
O146 C149 1.320 . S
O147 Cd144 2.333 . S
O147 C149 1.214 . S
O148 Cd144 2.352 . S
O148 C151 1.258 . S
C149 O146 1.320 . S
C149 O147 1.214 . S
O150 Cd142 2.277 . S
O150 C145 1.209 . S
C151 O148 1.258 . S
C151 O153 1.282 . S
O152 Cd144 2.277 . S
O152 C145 1.226 . S
O153 Cd144 2.356 . S
O153 C151 1.282 . S
C154 O155 1.306 . S
C154 O157 1.160 . S
O155 C154 1.306 . S
O155 Cd156 2.228 . S
Cd156 O155 2.228 . S
Cd156 O160 2.273 . S
Cd156 O164 2.277 . S
O157 C154 1.160 . S
O157 Cd158 2.203 . S
Cd158 O157 2.203 . S
Cd158 O160 2.411 . S
Cd158 O161 2.333 . S
Cd158 O162 2.352 . S
Cd158 O166 2.277 . S
Cd158 O167 2.356 . S
C159 O164 1.209 . S
C159 O166 1.226 . S
O160 Cd156 2.273 . S
O160 Cd158 2.411 . S
O160 C163 1.320 . S
O161 Cd158 2.333 . S
O161 C163 1.214 . S
O162 Cd158 2.352 . S
O162 C165 1.258 . S
C163 O160 1.320 . S
C163 O161 1.214 . S
O164 Cd156 2.277 . S
O164 C159 1.209 . S
C165 O162 1.258 . S
C165 O167 1.282 . S
O166 Cd158 2.277 . S
O166 C159 1.226 . S
O167 Cd158 2.356 . S
O167 C165 1.282 . S
C168 O169 1.306 . S
C168 O171 1.160 . S
O169 C168 1.306 . S
O169 Cd170 2.228 . S
Cd170 O169 2.228 . S
Cd170 O174 2.273 . S
Cd170 O178 2.277 . S
O171 C168 1.160 . S
O171 Cd172 2.203 . S
Cd172 O171 2.203 . S
Cd172 O174 2.411 . S
Cd172 O175 2.333 . S
Cd172 O176 2.352 . S
Cd172 O180 2.277 . S
Cd172 O181 2.356 . S
C173 O178 1.209 . S
C173 O180 1.226 . S
O174 Cd170 2.273 . S
O174 Cd172 2.411 . S
O174 C177 1.320 . S
O175 Cd172 2.333 . S
O175 C177 1.214 . S
O176 Cd172 2.352 . S
O176 C179 1.258 . S
C177 O174 1.320 . S
C177 O175 1.214 . S
O178 Cd170 2.277 . S
O178 C173 1.209 . S
C179 O176 1.258 . S
C179 O181 1.282 . S
O180 Cd172 2.277 . S
O180 C173 1.226 . S
O181 Cd172 2.356 . S
O181 C179 1.282 . S
C182 O183 1.306 . S
C182 O185 1.160 . S
O183 C182 1.306 . S
O183 Cd184 2.228 . S
Cd184 O183 2.228 . S
Cd184 O188 2.273 . S
Cd184 O192 2.277 . S
O185 C182 1.160 . S
O185 Cd186 2.203 . S
Cd186 O185 2.203 . S
Cd186 O188 2.411 . S
Cd186 O189 2.333 . S
Cd186 O190 2.352 . S
Cd186 O194 2.277 . S
Cd186 O195 2.356 . S
C187 O192 1.209 . S
C187 O194 1.226 . S
O188 Cd184 2.273 . S
O188 Cd186 2.411 . S
O188 C191 1.320 . S
O189 Cd186 2.333 . S
O189 C191 1.214 . S
O190 Cd186 2.352 . S
O190 C193 1.258 . S
C191 O188 1.320 . S
C191 O189 1.214 . S
O192 Cd184 2.277 . S
O192 C187 1.209 . S
C193 O190 1.258 . S
C193 O195 1.282 . S
O194 Cd186 2.277 . S
O194 C187 1.226 . S
O195 Cd186 2.356 . S
O195 C193 1.282 . S
C196 O197 1.306 . S
C196 O199 1.160 . S
O197 C196 1.306 . S
O197 Cd198 2.228 . S
Cd198 O197 2.228 . S
Cd198 O202 2.273 . S
Cd198 O206 2.277 . S
O199 C196 1.160 . S
O199 Cd200 2.203 . S
Cd200 O199 2.203 . S
Cd200 O202 2.411 . S
Cd200 O203 2.333 . S
Cd200 O204 2.352 . S
Cd200 O208 2.277 . S
Cd200 O209 2.356 . S
C201 O206 1.209 . S
C201 O208 1.226 . S
O202 Cd198 2.273 . S
O202 Cd200 2.411 . S
O202 C205 1.320 . S
O203 Cd200 2.333 . S
O203 C205 1.214 . S
O204 Cd200 2.352 . S
O204 C207 1.258 . S
C205 O202 1.320 . S
C205 O203 1.214 . S
O206 Cd198 2.277 . S
O206 C201 1.209 . S
C207 O204 1.258 . S
C207 O209 1.282 . S
O208 Cd200 2.277 . S
O208 C201 1.226 . S
O209 Cd200 2.356 . S
O209 C207 1.282 . S
C210 O211 1.306 . S
C210 O213 1.160 . S
O211 C210 1.306 . S
O211 Cd212 2.228 . S
Cd212 O211 2.228 . S
Cd212 O216 2.273 . S
Cd212 O220 2.277 . S
O213 C210 1.160 . S
O213 Cd214 2.203 . S
Cd214 O213 2.203 . S
Cd214 O216 2.411 . S
Cd214 O217 2.333 . S
Cd214 O218 2.352 . S
Cd214 O222 2.277 . S
Cd214 O223 2.356 . S
C215 O220 1.209 . S
C215 O222 1.226 . S
O216 Cd212 2.273 . S
O216 Cd214 2.411 . S
O216 C219 1.320 . S
O217 Cd214 2.333 . S
O217 C219 1.214 . S
O218 Cd214 2.352 . S
O218 C221 1.258 . S
C219 O216 1.320 . S
C219 O217 1.214 . S
O220 Cd212 2.277 . S
O220 C215 1.209 . S
C221 O218 1.258 . S
C221 O223 1.282 . S
O222 Cd214 2.277 . S
O222 C215 1.226 . S
O223 Cd214 2.356 . S
O223 C221 1.282 . S
H224 C232 0.950 . S
H225 C237 0.950 . S
H226 C234 0.950 . S
H227 C236 0.950 . S
H228 C238 0.950 . S
H229 C240 0.950 . S
H230 C242 0.950 . S
H231 C243 0.950 . S
C232 H224 0.950 . S
C232 C233 1.386 . S
C232 C234 1.391 . S
C233 C232 1.386 . S
C233 C237 1.393 . S
C234 H226 0.950 . S
C234 C232 1.391 . S
C234 C235 1.400 . S
C235 C234 1.400 . S
C235 C236 1.398 . S
C235 C241 1.491 . S
C236 H227 0.950 . S
C236 C235 1.398 . S
C236 C237 1.391 . S
C237 H225 0.950 . S
C237 C233 1.393 . S
C237 C236 1.391 . S
C238 H228 0.950 . S
C238 C239 1.386 . S
C238 C240 1.391 . S
C239 C238 1.386 . S
C239 C243 1.393 . S
C240 H229 0.950 . S
C240 C238 1.391 . S
C240 C241 1.400 . S
C241 C235 1.491 . S
C241 C240 1.400 . S
C241 C242 1.398 . S
C242 H230 0.950 . S
C242 C241 1.398 . S
C242 C243 1.391 . S
C243 H231 0.950 . S
C243 C239 1.393 . S
C243 C242 1.391 . S
H244 C252 0.950 . S
H245 C257 0.950 . S
H246 C254 0.950 . S
H247 C256 0.950 . S
H248 C258 0.950 . S
H249 C260 0.950 . S
H250 C262 0.950 . S
H251 C263 0.950 . S
C252 H244 0.950 . S
C252 C253 1.386 . S
C252 C254 1.391 . S
C253 C252 1.386 . S
C253 C257 1.393 . S
C254 H246 0.950 . S
C254 C252 1.391 . S
C254 C255 1.400 . S
C255 C254 1.400 . S
C255 C256 1.398 . S
C255 C261 1.491 . S
C256 H247 0.950 . S
C256 C255 1.398 . S
C256 C257 1.391 . S
C257 H245 0.950 . S
C257 C253 1.393 . S
C257 C256 1.391 . S
C258 H248 0.950 . S
C258 C259 1.386 . S
C258 C260 1.391 . S
C259 C258 1.386 . S
C259 C263 1.393 . S
C260 H249 0.950 . S
C260 C258 1.391 . S
C260 C261 1.400 . S
C261 C255 1.491 . S
C261 C260 1.400 . S
C261 C262 1.398 . S
C262 H250 0.950 . S
C262 C261 1.398 . S
C262 C263 1.391 . S
C263 H251 0.950 . S
C263 C259 1.393 . S
C263 C262 1.391 . S
H264 C272 0.950 . S
H265 C277 0.950 . S
H266 C274 0.950 . S
H267 C276 0.950 . S
H268 C278 0.950 . S
H269 C280 0.950 . S
H270 C282 0.950 . S
H271 C283 0.950 . S
C272 H264 0.950 . S
C272 C273 1.386 . S
C272 C274 1.391 . S
C273 C272 1.386 . S
C273 C277 1.393 . S
C274 H266 0.950 . S
C274 C272 1.391 . S
C274 C275 1.400 . S
C275 C274 1.400 . S
C275 C276 1.398 . S
C275 C281 1.491 . S
C276 H267 0.950 . S
C276 C275 1.398 . S
C276 C277 1.391 . S
C277 H265 0.950 . S
C277 C273 1.393 . S
C277 C276 1.391 . S
C278 H268 0.950 . S
C278 C279 1.386 . S
C278 C280 1.391 . S
C279 C278 1.386 . S
C279 C283 1.393 . S
C280 H269 0.950 . S
C280 C278 1.391 . S
C280 C281 1.400 . S
C281 C275 1.491 . S
C281 C280 1.400 . S
C281 C282 1.398 . S
C282 H270 0.950 . S
C282 C281 1.398 . S
C282 C283 1.391 . S
C283 H271 0.950 . S
C283 C279 1.393 . S
C283 C282 1.391 . S
H284 C292 0.950 . S
H285 C297 0.950 . S
H286 C294 0.950 . S
H287 C296 0.950 . S
H288 C298 0.950 . S
H289 C300 0.950 . S
H290 C302 0.950 . S
H291 C303 0.950 . S
C292 H284 0.950 . S
C292 C293 1.386 . S
C292 C294 1.391 . S
C293 C292 1.386 . S
C293 C297 1.393 . S
C294 H286 0.950 . S
C294 C292 1.391 . S
C294 C295 1.400 . S
C295 C294 1.400 . S
C295 C296 1.398 . S
C295 C301 1.491 . S
C296 H287 0.950 . S
C296 C295 1.398 . S
C296 C297 1.391 . S
C297 H285 0.950 . S
C297 C293 1.393 . S
C297 C296 1.391 . S
C298 H288 0.950 . S
C298 C299 1.386 . S
C298 C300 1.391 . S
C299 C298 1.386 . S
C299 C303 1.393 . S
C300 H289 0.950 . S
C300 C298 1.391 . S
C300 C301 1.400 . S
C301 C295 1.491 . S
C301 C300 1.400 . S
C301 C302 1.398 . S
C302 H290 0.950 . S
C302 C301 1.398 . S
C302 C303 1.391 . S
C303 H291 0.950 . S
C303 C299 1.393 . S
C303 C302 1.391 . S
H304 C312 0.950 . S
H305 C317 0.950 . S
H306 C314 0.950 . S
H307 C316 0.950 . S
H308 C318 0.950 . S
H309 C320 0.950 . S
H310 C322 0.950 . S
H311 C323 0.950 . S
C312 H304 0.950 . S
C312 C313 1.386 . S
C312 C314 1.391 . S
C313 C312 1.386 . S
C313 C317 1.393 . S
C314 H306 0.950 . S
C314 C312 1.391 . S
C314 C315 1.400 . S
C315 C314 1.400 . S
C315 C316 1.398 . S
C315 C321 1.491 . S
C316 H307 0.950 . S
C316 C315 1.398 . S
C316 C317 1.391 . S
C317 H305 0.950 . S
C317 C313 1.393 . S
C317 C316 1.391 . S
C318 H308 0.950 . S
C318 C319 1.386 . S
C318 C320 1.391 . S
C319 C318 1.386 . S
C319 C323 1.393 . S
C320 H309 0.950 . S
C320 C318 1.391 . S
C320 C321 1.400 . S
C321 C315 1.491 . S
C321 C320 1.400 . S
C321 C322 1.398 . S
C322 H310 0.950 . S
C322 C321 1.398 . S
C322 C323 1.391 . S
C323 H311 0.950 . S
C323 C319 1.393 . S
C323 C322 1.391 . S
H324 C332 0.950 . S
H325 C337 0.950 . S
H326 C334 0.950 . S
H327 C336 0.950 . S
H328 C338 0.950 . S
H329 C340 0.950 . S
H330 C342 0.950 . S
H331 C343 0.950 . S
C332 H324 0.950 . S
C332 C333 1.386 . S
C332 C334 1.391 . S
C333 C332 1.386 . S
C333 C337 1.393 . S
C334 H326 0.950 . S
C334 C332 1.391 . S
C334 C335 1.400 . S
C335 C334 1.400 . S
C335 C336 1.398 . S
C335 C341 1.491 . S
C336 H327 0.950 . S
C336 C335 1.398 . S
C336 C337 1.391 . S
C337 H325 0.950 . S
C337 C333 1.393 . S
C337 C336 1.391 . S
C338 H328 0.950 . S
C338 C339 1.386 . S
C338 C340 1.391 . S
C339 C338 1.386 . S
C339 C343 1.393 . S
C340 H329 0.950 . S
C340 C338 1.391 . S
C340 C341 1.400 . S
C341 C335 1.491 . S
C341 C340 1.400 . S
C341 C342 1.398 . S
C342 H330 0.950 . S
C342 C341 1.398 . S
C342 C343 1.391 . S
C343 H331 0.950 . S
C343 C339 1.393 . S
C343 C342 1.391 . S
H344 C352 0.950 . S
H345 C357 0.950 . S
H346 C354 0.950 . S
H347 C356 0.950 . S
H348 C358 0.950 . S
H349 C360 0.950 . S
H350 C362 0.950 . S
H351 C363 0.950 . S
C352 H344 0.950 . S
C352 C353 1.386 . S
C352 C354 1.391 . S
C353 C352 1.386 . S
C353 C357 1.393 . S
C354 H346 0.950 . S
C354 C352 1.391 . S
C354 C355 1.400 . S
C355 C354 1.400 . S
C355 C356 1.398 . S
C355 C361 1.491 . S
C356 H347 0.950 . S
C356 C355 1.398 . S
C356 C357 1.391 . S
C357 H345 0.950 . S
C357 C353 1.393 . S
C357 C356 1.391 . S
C358 H348 0.950 . S
C358 C359 1.386 . S
C358 C360 1.391 . S
C359 C358 1.386 . S
C359 C363 1.393 . S
C360 H349 0.950 . S
C360 C358 1.391 . S
C360 C361 1.400 . S
C361 C355 1.491 . S
C361 C360 1.400 . S
C361 C362 1.398 . S
C362 H350 0.950 . S
C362 C361 1.398 . S
C362 C363 1.391 . S
C363 H351 0.950 . S
C363 C359 1.393 . S
C363 C362 1.391 . S
H364 C372 0.950 . S
H365 C377 0.950 . S
H366 C374 0.950 . S
H367 C376 0.950 . S
H368 C378 0.950 . S
H369 C380 0.950 . S
H370 C382 0.950 . S
H371 C383 0.950 . S
C372 H364 0.950 . S
C372 C373 1.386 . S
C372 C374 1.391 . S
C373 C372 1.386 . S
C373 C377 1.393 . S
C374 H366 0.950 . S
C374 C372 1.391 . S
C374 C375 1.400 . S
C375 C374 1.400 . S
C375 C376 1.398 . S
C375 C381 1.491 . S
C376 H367 0.950 . S
C376 C375 1.398 . S
C376 C377 1.391 . S
C377 H365 0.950 . S
C377 C373 1.393 . S
C377 C376 1.391 . S
C378 H368 0.950 . S
C378 C379 1.386 . S
C378 C380 1.391 . S
C379 C378 1.386 . S
C379 C383 1.393 . S
C380 H369 0.950 . S
C380 C378 1.391 . S
C380 C381 1.400 . S
C381 C375 1.491 . S
C381 C380 1.400 . S
C381 C382 1.398 . S
C382 H370 0.950 . S
C382 C381 1.398 . S
C382 C383 1.391 . S
C383 H371 0.950 . S
C383 C379 1.393 . S
C383 C382 1.391 . S
H384 C392 0.950 . S
H385 C397 0.950 . S
H386 C394 0.950 . S
H387 C396 0.950 . S
H388 C398 0.950 . S
H389 C400 0.950 . S
H390 C402 0.950 . S
H391 C403 0.950 . S
C392 H384 0.950 . S
C392 C393 1.386 . S
C392 C394 1.391 . S
C393 C392 1.386 . S
C393 C397 1.393 . S
C394 H386 0.950 . S
C394 C392 1.391 . S
C394 C395 1.400 . S
C395 C394 1.400 . S
C395 C396 1.398 . S
C395 C401 1.491 . S
C396 H387 0.950 . S
C396 C395 1.398 . S
C396 C397 1.391 . S
C397 H385 0.950 . S
C397 C393 1.393 . S
C397 C396 1.391 . S
C398 H388 0.950 . S
C398 C399 1.386 . S
C398 C400 1.391 . S
C399 C398 1.386 . S
C399 C403 1.393 . S
C400 H389 0.950 . S
C400 C398 1.391 . S
C400 C401 1.400 . S
C401 C395 1.491 . S
C401 C400 1.400 . S
C401 C402 1.398 . S
C402 H390 0.950 . S
C402 C401 1.398 . S
C402 C403 1.391 . S
C403 H391 0.950 . S
C403 C399 1.393 . S
C403 C402 1.391 . S
H404 C412 0.950 . S
H405 C417 0.950 . S
H406 C414 0.950 . S
H407 C416 0.950 . S
H408 C418 0.950 . S
H409 C420 0.950 . S
H410 C422 0.950 . S
H411 C423 0.950 . S
C412 H404 0.950 . S
C412 C413 1.386 . S
C412 C414 1.391 . S
C413 C412 1.386 . S
C413 C417 1.393 . S
C414 H406 0.950 . S
C414 C412 1.391 . S
C414 C415 1.400 . S
C415 C414 1.400 . S
C415 C416 1.398 . S
C415 C421 1.491 . S
C416 H407 0.950 . S
C416 C415 1.398 . S
C416 C417 1.391 . S
C417 H405 0.950 . S
C417 C413 1.393 . S
C417 C416 1.391 . S
C418 H408 0.950 . S
C418 C419 1.386 . S
C418 C420 1.391 . S
C419 C418 1.386 . S
C419 C423 1.393 . S
C420 H409 0.950 . S
C420 C418 1.391 . S
C420 C421 1.400 . S
C421 C415 1.491 . S
C421 C420 1.400 . S
C421 C422 1.398 . S
C422 H410 0.950 . S
C422 C421 1.398 . S
C422 C423 1.391 . S
C423 H411 0.950 . S
C423 C419 1.393 . S
C423 C422 1.391 . S
H424 C432 0.950 . S
H425 C437 0.950 . S
H426 C434 0.950 . S
H427 C436 0.950 . S
H428 C438 0.950 . S
H429 C440 0.950 . S
H430 C442 0.950 . S
H431 C443 0.950 . S
C432 H424 0.950 . S
C432 C433 1.386 . S
C432 C434 1.391 . S
C433 C432 1.386 . S
C433 C437 1.393 . S
C434 H426 0.950 . S
C434 C432 1.391 . S
C434 C435 1.400 . S
C435 C434 1.400 . S
C435 C436 1.398 . S
C435 C441 1.491 . S
C436 H427 0.950 . S
C436 C435 1.398 . S
C436 C437 1.391 . S
C437 H425 0.950 . S
C437 C433 1.393 . S
C437 C436 1.391 . S
C438 H428 0.950 . S
C438 C439 1.386 . S
C438 C440 1.391 . S
C439 C438 1.386 . S
C439 C443 1.393 . S
C440 H429 0.950 . S
C440 C438 1.391 . S
C440 C441 1.400 . S
C441 C435 1.491 . S
C441 C440 1.400 . S
C441 C442 1.398 . S
C442 H430 0.950 . S
C442 C441 1.398 . S
C442 C443 1.391 . S
C443 H431 0.950 . S
C443 C439 1.393 . S
C443 C442 1.391 . S
H444 C452 0.950 . S
H445 C457 0.950 . S
H446 C454 0.950 . S
H447 C456 0.950 . S
H448 C458 0.950 . S
H449 C460 0.950 . S
H450 C462 0.950 . S
H451 C463 0.950 . S
C452 H444 0.950 . S
C452 C453 1.386 . S
C452 C454 1.391 . S
C453 C452 1.386 . S
C453 C457 1.393 . S
C454 H446 0.950 . S
C454 C452 1.391 . S
C454 C455 1.400 . S
C455 C454 1.400 . S
C455 C456 1.398 . S
C455 C461 1.491 1_554 S
C456 H447 0.950 . S
C456 C455 1.398 . S
C456 C457 1.391 . S
C457 H445 0.950 . S
C457 C453 1.393 . S
C457 C456 1.391 . S
C458 H448 0.950 . S
C458 C459 1.386 . S
C458 C460 1.391 . S
C459 C458 1.386 . S
C459 C463 1.393 . S
C460 H449 0.950 . S
C460 C458 1.391 . S
C460 C461 1.400 . S
C461 C455 1.491 1_556 S
C461 C460 1.400 . S
C461 C462 1.398 . S
C462 H450 0.950 . S
C462 C461 1.398 . S
C462 C463 1.391 . S
C463 H451 0.950 . S
C463 C459 1.393 . S
C463 C462 1.391 . S
H464 C472 0.950 . S
H465 C477 0.950 . S
H466 C474 0.950 . S
H467 C476 0.950 . S
H468 C478 0.950 . S
H469 C480 0.950 . S
H470 C482 0.950 . S
H471 C483 0.950 . S
C472 H464 0.950 . S
C472 C473 1.386 . S
C472 C474 1.391 . S
C473 C472 1.386 . S
C473 C477 1.393 . S
C474 H466 0.950 . S
C474 C472 1.391 . S
C474 C475 1.400 . S
C475 C474 1.400 . S
C475 C476 1.398 . S
C475 C481 1.491 1_554 S
C476 H467 0.950 . S
C476 C475 1.398 . S
C476 C477 1.391 . S
C477 H465 0.950 . S
C477 C473 1.393 . S
C477 C476 1.391 . S
C478 H468 0.950 . S
C478 C479 1.386 . S
C478 C480 1.391 . S
C479 C478 1.386 . S
C479 C483 1.393 . S
C480 H469 0.950 . S
C480 C478 1.391 . S
C480 C481 1.400 . S
C481 C475 1.491 1_556 S
C481 C480 1.400 . S
C481 C482 1.398 . S
C482 H470 0.950 . S
C482 C481 1.398 . S
C482 C483 1.391 . S
C483 H471 0.950 . S
C483 C479 1.393 . S
C483 C482 1.391 . S
H484 C492 0.950 . S
H485 C497 0.950 . S
H486 C494 0.950 . S
H487 C496 0.950 . S
H488 C498 0.950 . S
H489 C500 0.950 . S
H490 C502 0.950 . S
H491 C503 0.950 . S
C492 H484 0.950 . S
C492 C493 1.386 . S
C492 C494 1.391 . S
C493 C492 1.386 . S
C493 C497 1.393 . S
C494 H486 0.950 . S
C494 C492 1.391 . S
C494 C495 1.400 . S
C495 C494 1.400 . S
C495 C496 1.398 . S
C495 C501 1.491 . S
C496 H487 0.950 . S
C496 C495 1.398 . S
C496 C497 1.391 . S
C497 H485 0.950 . S
C497 C493 1.393 . S
C497 C496 1.391 . S
C498 H488 0.950 . S
C498 C499 1.386 . S
C498 C500 1.391 . S
C499 C498 1.386 . S
C499 C503 1.393 . S
C500 H489 0.950 . S
C500 C498 1.391 . S
C500 C501 1.400 . S
C501 C495 1.491 . S
C501 C500 1.400 . S
C501 C502 1.398 . S
C502 H490 0.950 . S
C502 C501 1.398 . S
C502 C503 1.391 . S
C503 H491 0.950 . S
C503 C499 1.393 . S
C503 C502 1.391 . S
H504 C512 0.950 . S
H505 C517 0.950 . S
H506 C514 0.950 . S
H507 C516 0.950 . S
H508 C518 0.950 . S
H509 C520 0.950 . S
H510 C522 0.950 . S
H511 C523 0.950 . S
C512 H504 0.950 . S
C512 C513 1.386 . S
C512 C514 1.391 . S
C513 C512 1.386 . S
C513 C517 1.393 . S
C514 H506 0.950 . S
C514 C512 1.391 . S
C514 C515 1.400 . S
C515 C514 1.400 . S
C515 C516 1.398 . S
C515 C521 1.491 . S
C516 H507 0.950 . S
C516 C515 1.398 . S
C516 C517 1.391 . S
C517 H505 0.950 . S
C517 C513 1.393 . S
C517 C516 1.391 . S
C518 H508 0.950 . S
C518 C519 1.386 . S
C518 C520 1.391 . S
C519 C518 1.386 . S
C519 C523 1.393 . S
C520 H509 0.950 . S
C520 C518 1.391 . S
C520 C521 1.400 . S
C521 C515 1.491 . S
C521 C520 1.400 . S
C521 C522 1.398 . S
C522 H510 0.950 . S
C522 C521 1.398 . S
C522 C523 1.391 . S
C523 H511 0.950 . S
C523 C519 1.393 . S
C523 C522 1.391 . S
H524 C532 0.950 . S
H525 C537 0.950 . S
H526 C534 0.950 . S
H527 C536 0.950 . S
H528 C538 0.950 . S
H529 C540 0.950 . S
H530 C542 0.950 . S
H531 C543 0.950 . S
C532 H524 0.950 . S
C532 C533 1.386 . S
C532 C534 1.391 . S
C533 C532 1.386 . S
C533 C537 1.393 . S
C534 H526 0.950 . S
C534 C532 1.391 . S
C534 C535 1.400 . S
C535 C534 1.400 . S
C535 C536 1.398 . S
C535 C541 1.491 . S
C536 H527 0.950 . S
C536 C535 1.398 . S
C536 C537 1.391 . S
C537 H525 0.950 . S
C537 C533 1.393 . S
C537 C536 1.391 . S
C538 H528 0.950 . S
C538 C539 1.386 . S
C538 C540 1.391 . S
C539 C538 1.386 . S
C539 C543 1.393 . S
C540 H529 0.950 . S
C540 C538 1.391 . S
C540 C541 1.400 . S
C541 C535 1.491 . S
C541 C540 1.400 . S
C541 C542 1.398 . S
C542 H530 0.950 . S
C542 C541 1.398 . S
C542 C543 1.391 . S
C543 H531 0.950 . S
C543 C539 1.393 . S
C543 C542 1.391 . S
H544 C552 0.950 . S
H545 C557 0.950 . S
H546 C554 0.950 . S
H547 C556 0.950 1_565 S
H548 C558 0.950 . S
H549 C560 0.950 . S
H550 C562 0.950 1_545 S
H551 C563 0.950 . S
C552 H544 0.950 . S
C552 C553 1.386 . S
C552 C554 1.391 . S
C553 C552 1.386 . S
C553 C557 1.393 . S
C554 H546 0.950 . S
C554 C552 1.391 . S
C554 C555 1.400 . S
C555 C554 1.400 . S
C555 C556 1.398 . S
C555 C561 1.491 1_445 S
C556 H547 0.950 1_545 S
C556 C555 1.398 . S
C556 C557 1.391 . S
C557 H545 0.950 . S
C557 C553 1.393 . S
C557 C556 1.391 . S
C558 H548 0.950 . S
C558 C559 1.386 . S
C558 C560 1.391 . S
C559 C558 1.386 . S
C559 C563 1.393 . S
C560 H549 0.950 . S
C560 C558 1.391 . S
C560 C561 1.400 . S
C561 C555 1.491 1_665 S
C561 C560 1.400 . S
C561 C562 1.398 . S
C562 H550 0.950 1_565 S
C562 C561 1.398 . S
C562 C563 1.391 . S
C563 H551 0.950 . S
C563 C559 1.393 . S
C563 C562 1.391 . S
H564 C572 0.950 . S
H565 C577 0.950 . S
H566 C574 0.950 . S
H567 C576 0.950 . S
H568 C578 0.950 . S
H569 C580 0.950 . S
H570 C582 0.950 . S
H571 C583 0.950 . S
C572 H564 0.950 . S
C572 C573 1.386 . S
C572 C574 1.391 . S
C573 C572 1.386 . S
C573 C577 1.393 . S
C574 H566 0.950 . S
C574 C572 1.391 . S
C574 C575 1.400 . S
C575 C574 1.400 . S
C575 C576 1.398 . S
C575 C581 1.491 1_455 S
C576 H567 0.950 . S
C576 C575 1.398 . S
C576 C577 1.391 . S
C577 H565 0.950 . S
C577 C573 1.393 . S
C577 C576 1.391 . S
C578 H568 0.950 . S
C578 C579 1.386 . S
C578 C580 1.391 . S
C579 C578 1.386 . S
C579 C583 1.393 . S
C580 H569 0.950 . S
C580 C578 1.391 . S
C580 C581 1.400 . S
C581 C575 1.491 1_655 S
C581 C580 1.400 . S
C581 C582 1.398 . S
C582 H570 0.950 . S
C582 C581 1.398 . S
C582 C583 1.391 . S
C583 H571 0.950 . S
C583 C579 1.393 . S
C583 C582 1.391 . S
H584 C592 0.950 . S
H585 C597 0.950 . S
H586 C594 0.950 . S
H587 C596 0.950 . S
H588 C598 0.950 . S
H589 C600 0.950 . S
H590 C602 0.950 . S
H591 C603 0.950 . S
C592 H584 0.950 . S
C592 C593 1.386 . S
C592 C594 1.391 . S
C593 C592 1.386 . S
C593 C597 1.393 . S
C594 H586 0.950 . S
C594 C592 1.391 . S
C594 C595 1.400 . S
C595 C594 1.400 . S
C595 C596 1.398 . S
C595 C601 1.491 . S
C596 H587 0.950 . S
C596 C595 1.398 . S
C596 C597 1.391 . S
C597 H585 0.950 . S
C597 C593 1.393 . S
C597 C596 1.391 . S
C598 H588 0.950 . S
C598 C599 1.386 . S
C598 C600 1.391 . S
C599 C598 1.386 . S
C599 C603 1.393 . S
C600 H589 0.950 . S
C600 C598 1.391 . S
C600 C601 1.400 . S
C601 C595 1.491 . S
C601 C600 1.400 . S
C601 C602 1.398 . S
C602 H590 0.950 . S
C602 C601 1.398 . S
C602 C603 1.391 . S
C603 H591 0.950 . S
C603 C599 1.393 . S
C603 C602 1.391 . S
H604 C612 0.950 . S
H605 C617 0.950 . S
H606 C614 0.965 . S
H607 C616 0.950 . S
H608 C618 0.950 . S
H609 C620 0.964 . S
H610 C622 0.950 . S
H611 C623 0.950 . S
C612 H604 0.950 . S
C612 C613 1.386 . S
C612 C614 1.391 . S
C613 C612 1.386 . S
C613 C617 1.393 . S
C614 H606 0.965 . S
C614 C612 1.391 . S
C614 C615 1.400 . S
C615 C614 1.400 . S
C615 C616 1.398 . S
C615 C621 1.491 1_545 S
C616 H607 0.950 . S
C616 C615 1.398 . S
C616 C617 1.391 . S
C617 H605 0.950 . S
C617 C613 1.393 . S
C617 C616 1.391 . S
C618 H608 0.950 . S
C618 C619 1.386 . S
C618 C620 1.391 . S
C619 C618 1.386 . S
C619 C623 1.393 . S
C620 H609 0.964 . S
C620 C618 1.391 . S
C620 C621 1.400 . S
C621 C615 1.491 1_565 S
C621 C620 1.400 . S
C621 C622 1.398 . S
C622 H610 0.950 . S
C622 C621 1.398 . S
C622 C623 1.391 . S
C623 H611 0.950 . S
C623 C619 1.393 . S
C623 C622 1.391 . S
H624 C632 0.950 . S
H625 C637 0.950 . S
H626 C634 0.950 . S
H627 C636 0.950 . S
H628 C638 0.950 . S
H629 C640 0.950 . S
H630 C642 0.950 . S
H631 C643 0.950 . S
C632 H624 0.950 . S
C632 C633 1.386 . S
C632 C634 1.391 . S
C633 C632 1.386 . S
C633 C637 1.393 . S
C634 H626 0.950 . S
C634 C632 1.391 . S
C634 C635 1.400 . S
C635 C634 1.400 . S
C635 C636 1.398 . S
C635 C641 1.491 1_455 S
C636 H627 0.950 . S
C636 C635 1.398 . S
C636 C637 1.391 . S
C637 H625 0.950 . S
C637 C633 1.393 . S
C637 C636 1.391 . S
C638 H628 0.950 . S
C638 C639 1.386 . S
C638 C640 1.391 . S
C639 C638 1.386 . S
C639 C643 1.393 . S
C640 H629 0.950 . S
C640 C638 1.391 . S
C640 C641 1.400 . S
C641 C635 1.491 1_655 S
C641 C640 1.400 . S
C641 C642 1.398 . S
C642 H630 0.950 . S
C642 C641 1.398 . S
C642 C643 1.391 . S
C643 H631 0.950 . S
C643 C639 1.393 . S
C643 C642 1.391 . S
H644 C652 0.950 . S
H645 C657 0.950 . S
H646 C654 0.950 . S
H647 C656 0.950 . S
H648 C658 0.950 . S
H649 C660 0.950 . S
H650 C662 0.950 . S
H651 C663 0.950 . S
C652 H644 0.950 . S
C652 C653 1.386 . S
C652 C654 1.391 . S
C653 C652 1.386 . S
C653 C657 1.393 . S
C654 H646 0.950 . S
C654 C652 1.391 . S
C654 C655 1.400 . S
C655 C654 1.400 . S
C655 C656 1.398 . S
C655 C661 1.491 . S
C656 H647 0.950 . S
C656 C655 1.398 . S
C656 C657 1.391 . S
C657 H645 0.950 . S
C657 C653 1.393 . S
C657 C656 1.391 . S
C658 H648 0.950 . S
C658 C659 1.386 . S
C658 C660 1.391 . S
C659 C658 1.386 . S
C659 C663 1.393 . S
C660 H649 0.950 . S
C660 C658 1.391 . S
C660 C661 1.400 . S
C661 C655 1.491 . S
C661 C660 1.400 . S
C661 C662 1.398 . S
C662 H650 0.950 . S
C662 C661 1.398 . S
C662 C663 1.391 . S
C663 H651 0.950 . S
C663 C659 1.393 . S
C663 C662 1.391 . S
H664 C672 0.950 1_545 S
H665 C677 0.950 . S
H666 C674 0.950 . S
H667 C676 0.950 . S
H668 C678 0.950 1_565 S
H669 C680 0.950 . S
H670 C682 0.950 . S
H671 C683 0.950 . S
C672 H664 0.950 1_565 S
C672 C673 1.386 . S
C672 C674 1.391 1_565 S
C673 C672 1.386 . S
C673 C677 1.393 . S
C674 H666 0.950 . S
C674 C672 1.391 1_545 S
C674 C675 1.400 1_545 S
C675 C674 1.400 1_565 S
C675 C676 1.398 . S
C675 C681 1.491 1_565 S
C676 H667 0.950 . S
C676 C675 1.398 . S
C676 C677 1.391 . S
C677 H665 0.950 . S
C677 C673 1.393 . S
C677 C676 1.391 . S
C678 H668 0.950 1_545 S
C678 C679 1.386 . S
C678 C680 1.391 1_545 S
C679 C678 1.386 . S
C679 C683 1.393 . S
C680 H669 0.950 . S
C680 C678 1.391 1_565 S
C680 C681 1.400 1_565 S
C681 C675 1.491 1_545 S
C681 C680 1.400 1_545 S
C681 C682 1.398 . S
C682 H670 0.950 . S
C682 C681 1.398 . S
C682 C683 1.391 . S
C683 H671 0.950 . S
C683 C679 1.393 . S
C683 C682 1.391 . S
H684 C692 0.950 . S
H685 C697 0.950 1_655 S
H686 C694 0.950 1_565 S
H687 C696 0.950 . S
H688 C698 0.950 . S
H689 C700 0.950 1_545 S
H690 C702 0.950 . S
H691 C703 0.950 1_455 S
C692 H684 0.950 . S
C692 C693 1.386 . S
C692 C694 1.391 . S
C693 C692 1.386 . S
C693 C697 1.393 . S
C694 H686 0.950 1_545 S
C694 C692 1.391 . S
C694 C695 1.400 . S
C695 C694 1.400 . S
C695 C696 1.398 1_455 S
C695 C701 1.491 1_445 S
C696 H687 0.950 . S
C696 C695 1.398 1_655 S
C696 C697 1.391 1_655 S
C697 H685 0.950 1_455 S
C697 C693 1.393 . S
C697 C696 1.391 1_455 S
C698 H688 0.950 . S
C698 C699 1.386 . S
C698 C700 1.391 . S
C699 C698 1.386 . S
C699 C703 1.393 . S
C700 H689 0.950 1_565 S
C700 C698 1.391 . S
C700 C701 1.400 . S
C701 C695 1.491 1_665 S
C701 C700 1.400 . S
C701 C702 1.398 1_655 S
C702 H690 0.950 . S
C702 C701 1.398 1_455 S
C702 C703 1.391 1_455 S
C703 H691 0.950 1_655 S
C703 C699 1.393 . S
C703 C702 1.391 1_655 S
H704 C712 0.950 1_545 S
H705 C717 0.950 . S
H706 C714 0.950 . S
H707 C716 0.950 . S
H708 C718 0.950 1_565 S
H709 C720 0.950 . S
H710 C722 0.950 . S
H711 C723 0.950 . S
C712 H704 0.950 1_565 S
C712 C713 1.386 . S
C712 C714 1.391 1_565 S
C713 C712 1.386 . S
C713 C717 1.393 . S
C714 H706 0.950 . S
C714 C712 1.391 1_545 S
C714 C715 1.400 1_545 S
C715 C714 1.400 1_565 S
C715 C716 1.398 . S
C715 C721 1.491 1_565 S
C716 H707 0.950 . S
C716 C715 1.398 . S
C716 C717 1.391 . S
C717 H705 0.950 . S
C717 C713 1.393 . S
C717 C716 1.391 . S
C718 H708 0.950 1_545 S
C718 C719 1.386 . S
C718 C720 1.391 1_545 S
C719 C718 1.386 . S
C719 C723 1.393 . S
C720 H709 0.950 . S
C720 C718 1.391 1_565 S
C720 C721 1.400 1_565 S
C721 C715 1.491 1_545 S
C721 C720 1.400 1_545 S
C721 C722 1.398 . S
C722 H710 0.950 . S
C722 C721 1.398 . S
C722 C723 1.391 . S
C723 H711 0.950 . S
C723 C719 1.393 . S
C723 C722 1.391 . S
H724 C732 0.950 . S
H725 C737 0.950 . S
H726 C734 0.950 . S
H727 C736 0.950 1_455 S
H728 C738 0.950 . S
H729 C740 0.950 . S
H730 C742 0.950 1_655 S
H731 C743 0.950 . S
C732 H724 0.950 . S
C732 C733 1.386 . S
C732 C734 1.391 . S
C733 C732 1.386 . S
C733 C737 1.393 . S
C734 H726 0.950 . S
C734 C732 1.391 . S
C734 C735 1.400 . S
C735 C734 1.400 . S
C735 C736 1.398 . S
C735 C741 1.491 1_665 S
C736 H727 0.950 1_655 S
C736 C735 1.398 . S
C736 C737 1.391 . S
C737 H725 0.950 . S
C737 C733 1.393 . S
C737 C736 1.391 . S
C738 H728 0.950 . S
C738 C739 1.386 . S
C738 C740 1.391 . S
C739 C738 1.386 . S
C739 C743 1.393 . S
C740 H729 0.950 . S
C740 C738 1.391 . S
C740 C741 1.400 . S
C741 C735 1.491 1_445 S
C741 C740 1.400 . S
C741 C742 1.398 . S
C742 H730 0.950 1_455 S
C742 C741 1.398 . S
C742 C743 1.391 . S
C743 H731 0.950 . S
C743 C739 1.393 . S
C743 C742 1.391 . S
H744 C752 0.950 . S
H745 C757 0.950 . S
H746 C754 0.950 . S
H747 C756 0.950 . S
H748 C758 0.950 . S
H749 C760 0.950 . S
H750 C762 0.950 . S
H751 C763 0.950 . S
C752 H744 0.950 . S
C752 C753 1.386 . S
C752 C754 1.391 . S
C753 C752 1.386 . S
C753 C757 1.393 . S
C754 H746 0.950 . S
C754 C752 1.391 . S
C754 C755 1.400 . S
C755 C754 1.400 . S
C755 C756 1.398 . S
C755 C761 1.491 1_455 S
C756 H747 0.950 . S
C756 C755 1.398 . S
C756 C757 1.391 . S
C757 H745 0.950 . S
C757 C753 1.393 . S
C757 C756 1.391 . S
C758 H748 0.950 . S
C758 C759 1.386 . S
C758 C760 1.391 . S
C759 C758 1.386 . S
C759 C763 1.393 . S
C760 H749 0.950 . S
C760 C758 1.391 . S
C760 C761 1.400 . S
C761 C755 1.491 1_655 S
C761 C760 1.400 . S
C761 C762 1.398 . S
C762 H750 0.950 . S
C762 C761 1.398 . S
C762 C763 1.391 . S
C763 H751 0.950 . S
C763 C759 1.393 . S
C763 C762 1.391 . S
H764 C772 0.950 . S
H765 C777 0.950 . S
H766 C774 0.950 . S
H767 C776 0.950 . S
H768 C778 0.950 . S
H769 C780 0.950 . S
H770 C782 0.950 . S
H771 C783 0.950 . S
C772 H764 0.950 . S
C772 C773 1.386 . S
C772 C774 1.391 . S
C773 C772 1.386 . S
C773 C777 1.393 . S
C774 H766 0.950 . S
C774 C772 1.391 . S
C774 C775 1.400 . S
C775 C774 1.400 . S
C775 C776 1.398 . S
C775 C781 1.491 . S
C776 H767 0.950 . S
C776 C775 1.398 . S
C776 C777 1.391 . S
C777 H765 0.950 . S
C777 C773 1.393 . S
C777 C776 1.391 . S
C778 H768 0.950 . S
C778 C779 1.386 . S
C778 C780 1.391 . S
C779 C778 1.386 . S
C779 C783 1.393 . S
C780 H769 0.950 . S
C780 C778 1.391 . S
C780 C781 1.400 . S
C781 C775 1.491 . S
C781 C780 1.400 . S
C781 C782 1.398 . S
C782 H770 0.950 . S
C782 C781 1.398 . S
C782 C783 1.391 . S
C783 H771 0.950 . S
C783 C779 1.393 . S
C783 C782 1.391 . S
H784 C792 0.950 . S
H785 C797 0.950 . S
H786 C794 0.950 . S
H787 C796 0.950 . S
H788 C798 0.950 . S
H789 C800 0.950 . S
H790 C802 0.950 . S
H791 C803 0.950 . S
C792 H784 0.950 . S
C792 C793 1.386 . S
C792 C794 1.391 . S
C793 C792 1.386 . S
C793 C797 1.393 . S
C794 H786 0.950 . S
C794 C792 1.391 . S
C794 C795 1.400 . S
C795 C794 1.400 . S
C795 C796 1.398 . S
C795 C801 1.491 . S
C796 H787 0.950 . S
C796 C795 1.398 . S
C796 C797 1.391 . S
C797 H785 0.950 . S
C797 C793 1.393 . S
C797 C796 1.391 . S
C798 H788 0.950 . S
C798 C799 1.386 . S
C798 C800 1.391 . S
C799 C798 1.386 . S
C799 C803 1.393 . S
C800 H789 0.950 . S
C800 C798 1.391 . S
C800 C801 1.400 . S
C801 C795 1.491 . S
C801 C800 1.400 . S
C801 C802 1.398 . S
C802 H790 0.950 . S
C802 C801 1.398 . S
C802 C803 1.391 . S
C803 H791 0.950 . S
C803 C799 1.393 . S
C803 C802 1.391 . S
H804 C812 0.950 . S
H805 C817 0.950 . S
H806 C814 0.950 . S
H807 C816 0.950 . S
H808 C818 0.950 . S
H809 C820 0.950 . S
H810 C822 0.950 . S
H811 C823 0.950 . S
C812 H804 0.950 . S
C812 C813 1.386 . S
C812 C814 1.391 . S
C813 C812 1.386 . S
C813 C817 1.393 . S
C814 H806 0.950 . S
C814 C812 1.391 . S
C814 C815 1.400 . S
C815 C814 1.400 . S
C815 C816 1.398 . S
C815 C821 1.491 1_545 S
C816 H807 0.950 . S
C816 C815 1.398 . S
C816 C817 1.391 . S
C817 H805 0.950 . S
C817 C813 1.393 . S
C817 C816 1.391 . S
C818 H808 0.950 . S
C818 C819 1.386 . S
C818 C820 1.391 . S
C819 C818 1.386 . S
C819 C823 1.393 . S
C820 H809 0.950 . S
C820 C818 1.391 . S
C820 C821 1.400 . S
C821 C815 1.491 1_565 S
C821 C820 1.400 . S
C821 C822 1.398 . S
C822 H810 0.950 . S
C822 C821 1.398 . S
C822 C823 1.391 . S
C823 H811 0.950 . S
C823 C819 1.393 . S
C823 C822 1.391 . S
H824 C832 0.950 . S
H825 C837 0.950 . S
H826 C834 0.950 . S
H827 C836 0.950 . S
H828 C838 0.950 . S
H829 C840 0.950 . S
H830 C842 0.950 . S
H831 C843 0.950 . S
C832 H824 0.950 . S
C832 C833 1.386 . S
C832 C834 1.391 . S
C833 C832 1.386 . S
C833 C837 1.393 . S
C834 H826 0.950 . S
C834 C832 1.391 . S
C834 C835 1.400 . S
C835 C834 1.400 . S
C835 C836 1.398 1_565 S
C835 C841 1.491 1_665 S
C836 H827 0.950 . S
C836 C835 1.398 1_545 S
C836 C837 1.391 1_545 S
C837 H825 0.950 . S
C837 C833 1.393 . S
C837 C836 1.391 1_565 S
C838 H828 0.950 . S
C838 C839 1.386 . S
C838 C840 1.391 . S
C839 C838 1.386 . S
C839 C843 1.393 . S
C840 H829 0.950 . S
C840 C838 1.391 . S
C840 C841 1.400 . S
C841 C835 1.491 1_445 S
C841 C840 1.400 . S
C841 C842 1.398 1_545 S
C842 H830 0.950 . S
C842 C841 1.398 1_565 S
C842 C843 1.391 1_565 S
C843 H831 0.950 . S
C843 C839 1.393 . S
C843 C842 1.391 1_545 S
H844 C852 0.950 . S
H845 C857 0.950 . S
H846 C854 0.950 . S
H847 C856 0.950 . S
H848 C858 0.950 . S
H849 C860 0.950 . S
H850 C862 0.950 . S
H851 C863 0.950 . S
C852 H844 0.950 . S
C852 C853 1.386 . S
C852 C854 1.391 1_655 S
C853 C852 1.386 . S
C853 C857 1.393 . S
C854 H846 0.950 . S
C854 C852 1.391 1_455 S
C854 C855 1.400 1_455 S
C855 C854 1.400 1_655 S
C855 C856 1.398 . S
C855 C861 1.491 1_655 S
C856 H847 0.950 . S
C856 C855 1.398 . S
C856 C857 1.391 . S
C857 H845 0.950 . S
C857 C853 1.393 . S
C857 C856 1.391 . S
C858 H848 0.950 . S
C858 C859 1.386 . S
C858 C860 1.391 1_455 S
C859 C858 1.386 . S
C859 C863 1.393 . S
C860 H849 0.950 . S
C860 C858 1.391 1_655 S
C860 C861 1.400 1_655 S
C861 C855 1.491 1_455 S
C861 C860 1.400 1_455 S
C861 C862 1.398 . S
C862 H850 0.950 . S
C862 C861 1.398 . S
C862 C863 1.391 . S
C863 H851 0.950 . S
C863 C859 1.393 . S
C863 C862 1.391 . S
C233 C65 1.339 . S
C239 C9 1.336 . S
C253 C23 1.339 . S
C259 C79 1.336 . S
C273 C93 1.339 . S
C279 C37 1.344 . S
C293 C107 1.348 . S
C299 C51 1.347 . S
C313 C177 1.340 . S
C319 C121 1.336 . S
C333 C135 1.336 . S
C339 C191 1.337 . S
C353 C205 1.337 . S
C359 C149 1.336 . S
C373 C163 1.339 . S
C379 C219 1.344 . S
C393 C0 1.402 . S
C399 C210 1.391 . S
C413 C14 1.405 . S
C419 C168 1.397 . S
C433 C28 1.395 . S
C439 C182 1.404 . S
C453 C196 1.401 . S
C459 C42 1.391 . S
C473 C56 1.394 . S
C479 C126 1.393 . S
C493 C70 1.402 . S
C499 C140 1.402 . S
C513 C154 1.391 . S
C519 C84 1.399 . S
C533 C112 1.395 . S
C539 C98 1.392 . S
C553 C11 1.588 . S
C559 C151 1.588 . S
C573 C165 1.588 . S
C579 C25 1.588 . S
C593 C39 1.591 . S
C599 C123 1.588 . S
C613 C137 1.589 . S
C619 C53 1.591 . S
C633 C67 1.597 . S
C639 C207 1.595 . S
C653 C81 1.592 . S
C659 C221 1.595 . S
C673 C179 1.595 . S
C679 C95 1.592 . S
C693 C193 1.590 . S
C699 C109 1.593 . S
C713 C145 1.404 . S
C719 C5 1.400 . S
C733 C19 1.402 . S
C739 C159 1.403 . S
C753 C33 1.400 . S
C759 C117 1.404 . S
C773 C131 1.403 . S
C779 C47 1.402 . S
C793 C201 1.399 . S
C799 C61 1.404 . S
C813 C215 1.403 . S
C819 C75 1.403 . S
C833 C173 1.401 . S
C839 C89 1.404 . S
C853 C103 1.404 . S
C859 C187 1.400 . S
