# Generated by pormake.
# Topology umb, (4)-cn, num edge types: 1
# Building blocks:
#     Node 0, Type 0, BuildingBlock: ESEHIV_clean_sbu_0, # of connection points: 4
#     Node 1, Type 0, BuildingBlock: ESEHIV_clean_sbu_0, # of connection points: 4
#     Node 2, Type 0, BuildingBlock: ESEHIV_clean_sbu_0, # of connection points: 4
#     Node 3, Type 0, BuildingBlock: ESEHIV_clean_sbu_0, # of connection points: 4
#     Node 4, Type 0, BuildingBlock: ESEHIV_clean_sbu_0, # of connection points: 4
#     Node 5, Type 0, BuildingBlock: ESEHIV_clean_sbu_0, # of connection points: 4
#     Node 6, Type 0, BuildingBlock: ESEHIV_clean_sbu_0, # of connection points: 4
#     Node 7, Type 0, BuildingBlock: ESEHIV_clean_sbu_0, # of connection points: 4
#     Node 8, Type 0, BuildingBlock: ESEHIV_clean_sbu_0, # of connection points: 4
#     Node 9, Type 0, BuildingBlock: ESEHIV_clean_sbu_0, # of connection points: 4
#     Node 10, Type 0, BuildingBlock: ESEHIV_clean_sbu_0, # of connection points: 4
#     Node 11, Type 0, BuildingBlock: ESEHIV_clean_sbu_0, # of connection points: 4
#     Edge 12, Type (0, 0), BuildingBlock: AJUNOK_clean_linker_0, # of connection points: 2
#     Edge 13, Type (0, 0), BuildingBlock: AJUNOK_clean_linker_0, # of connection points: 2
#     Edge 14, Type (0, 0), BuildingBlock: AJUNOK_clean_linker_0, # of connection points: 2
#     Edge 15, Type (0, 0), BuildingBlock: AJUNOK_clean_linker_0, # of connection points: 2
#     Edge 16, Type (0, 0), BuildingBlock: AJUNOK_clean_linker_0, # of connection points: 2
#     Edge 17, Type (0, 0), BuildingBlock: AJUNOK_clean_linker_0, # of connection points: 2
#     Edge 18, Type (0, 0), BuildingBlock: AJUNOK_clean_linker_0, # of connection points: 2
#     Edge 19, Type (0, 0), BuildingBlock: AJUNOK_clean_linker_0, # of connection points: 2
#     Edge 20, Type (0, 0), BuildingBlock: AJUNOK_clean_linker_0, # of connection points: 2
#     Edge 21, Type (0, 0), BuildingBlock: AJUNOK_clean_linker_0, # of connection points: 2
#     Edge 22, Type (0, 0), BuildingBlock: AJUNOK_clean_linker_0, # of connection points: 2
#     Edge 23, Type (0, 0), BuildingBlock: AJUNOK_clean_linker_0, # of connection points: 2
#     Edge 24, Type (0, 0), BuildingBlock: AJUNOK_clean_linker_0, # of connection points: 2
#     Edge 25, Type (0, 0), BuildingBlock: AJUNOK_clean_linker_0, # of connection points: 2
#     Edge 26, Type (0, 0), BuildingBlock: AJUNOK_clean_linker_0, # of connection points: 2
#     Edge 27, Type (0, 0), BuildingBlock: AJUNOK_clean_linker_0, # of connection points: 2
#     Edge 28, Type (0, 0), BuildingBlock: AJUNOK_clean_linker_0, # of connection points: 2
#     Edge 29, Type (0, 0), BuildingBlock: AJUNOK_clean_linker_0, # of connection points: 2
#     Edge 30, Type (0, 0), BuildingBlock: AJUNOK_clean_linker_0, # of connection points: 2
#     Edge 31, Type (0, 0), BuildingBlock: AJUNOK_clean_linker_0, # of connection points: 2
#     Edge 32, Type (0, 0), BuildingBlock: AJUNOK_clean_linker_0, # of connection points: 2
#     Edge 33, Type (0, 0), BuildingBlock: AJUNOK_clean_linker_0, # of connection points: 2
#     Edge 34, Type (0, 0), BuildingBlock: AJUNOK_clean_linker_0, # of connection points: 2
#     Edge 35, Type (0, 0), BuildingBlock: AJUNOK_clean_linker_0, # of connection points: 2
# Relax obj value: 0.188
# Max RMSD: 0.170
# Mean RMSD: 0.149
data_MOF--net-umb--node1-ESEHIV_clean_sbu_0--edge1-AJUNOK_clean_linker_0
_symmetry_space_group_name_H-M    P1
_symmetry_Int_Tables_number       1
_symmetry_cell_setting            triclinic
loop_
_symmetry_equiv_pos_as_xyz
'x, y, z'
_cell_length_a     37.885411
_cell_length_b     41.555826
_cell_length_c     29.225957
_cell_angle_alpha  89.519694
_cell_angle_beta   89.853999
_cell_angle_gamma 117.48658
loop_
_atom_site_label
_atom_site_type_symbol
_atom_site_fract_x
_atom_site_fract_y
_atom_site_fract_z
_atom_type_partial_charge
Cu0 Cu 0.5682 0.17806 0.36648 0.0
N1 N 0.61788 0.18416 0.3482 0.0
N2 N 0.68287 0.20201 0.35371 0.0
C3 C 0.65035 0.20064 0.37408 0.0
C4 C 0.67054 0.18596 0.31279 0.0
C5 C 0.63007 0.17468 0.3096 0.0
O6 O 0.55244 0.20763 0.32728 0.0
C7 C 0.58068 0.17084 0.45936 0.0
O8 O 0.58029 0.14112 0.44375 0.0
H9 H 0.65054 0.21304 0.40656 0.0
H10 H 0.61106 0.16106 0.28105 0.0
N11 N 0.53171 0.12933 0.36007 0.0
N12 N 0.50701 0.06956 0.35061 0.0
C13 C 0.54015 0.10181 0.35174 0.0
C14 C 0.49192 0.11408 0.36456 0.0
C15 C 0.47656 0.07714 0.35886 0.0
C16 C 0.57668 0.23907 0.31211 0.0
O17 O 0.61373 0.25402 0.32611 0.0
H18 H 0.57005 0.1053 0.3471 0.0
H19 H 0.47538 0.12875 0.37238 0.0
O20 O 0.57365 0.19099 0.43146 0.0
H21 H 0.68939 0.18318 0.28691 0.0
H22 H 0.44556 0.05737 0.36222 0.0
Cu23 Cu 0.41628 0.6037 0.66166 0.0
N24 N 0.46137 0.64851 0.6602 0.0
N25 N 0.50584 0.70264 0.6849 0.0
C26 C 0.47018 0.67381 0.69231 0.0
C27 C 0.51999 0.69563 0.64591 0.0
C28 C 0.49271 0.66166 0.63118 0.0
O29 O 0.37221 0.60604 0.62995 0.0
C30 C 0.39467 0.60548 0.75505 0.0
O31 O 0.3758 0.62316 0.74 0.0
H32 H 0.45006 0.67191 0.71968 0.0
H33 H 0.49529 0.64775 0.60123 0.0
N34 N 0.4298 0.57194 0.63164 0.0
N35 N 0.46892 0.54799 0.60993 0.0
C36 C 0.46166 0.56736 0.64196 0.0
C37 C 0.41608 0.55479 0.5918 0.0
C38 C 0.44024 0.53989 0.57825 0.0
C39 C 0.37932 0.62022 0.58997 0.0
O40 O 0.41575 0.63347 0.5737 0.0
H41 H 0.48001 0.57926 0.6716 0.0
H42 H 0.39166 0.55481 0.57275 0.0
O43 O 0.40837 0.59106 0.72644 0.0
H44 H 0.54742 0.71407 0.62884 0.0
H45 H 0.43809 0.52602 0.54641 0.0
Cu46 Cu 0.84292 0.39718 1.01624 0.0
N47 N 0.84418 0.38074 0.07557 0.0
N48 N 0.84082 0.38034 0.15191 0.0
C49 C 0.85084 0.40088 0.11348 0.0
C50 C 0.827 0.34585 0.1378 0.0
C51 C 0.82901 0.34616 0.09066 0.0
O52 O 0.89616 0.43547 1.00037 0.0
C53 C 0.78274 0.42046 0.99142 0.0
O54 O 0.7951 0.42461 0.94873 0.0
H55 H 0.85949 0.42956 0.11283 0.0
H56 H 0.81741 0.32258 0.06901 0.0
N57 N 0.83124 0.35889 0.97509 0.0
N58 N 0.81035 0.32084 0.91575 0.0
C59 C 0.80912 0.34934 0.93657 0.0
C60 C 0.84714 0.33589 0.97801 0.0
C61 C 0.83398 0.31222 0.94197 0.0
C62 C 0.91521 0.46625 1.01922 0.0
O63 O 0.89706 0.47635 1.04995 0.0
H64 H 0.79233 0.36271 0.92416 0.0
H65 H 0.86741 0.33659 1.00443 0.0
O66 O 0.80045 0.41117 1.02159 0.0
H67 H 0.81466 0.32208 0.15988 0.0
H68 H 0.84173 0.29069 0.93504 0.0
Cu69 Cu 0.43773 0.8209 0.35881 0.0
N70 N 0.38745 0.81509 0.34353 0.0
N71 N 0.32334 0.79996 0.35263 0.0
C72 C 0.35467 0.79674 0.36913 0.0
C73 C 0.33651 0.82055 0.31439 0.0
C74 C 0.3764 0.83007 0.30895 0.0
O75 O 0.45028 0.78755 0.32253 0.0
C76 C 0.42445 0.83139 0.45066 0.0
O77 O 0.41185 0.85262 0.43082 0.0
H78 H 0.35385 0.78137 0.39958 0.0
H79 H 0.39614 0.84731 0.28235 0.0
N80 N 0.47411 0.86876 0.34509 0.0
N81 N 0.49896 0.92874 0.33676 0.0
C82 C 0.46616 0.89714 0.34518 0.0
C83 C 0.51339 0.88284 0.33657 0.0
C84 C 0.52889 0.92 0.33165 0.0
C85 C 0.42396 0.76041 0.30106 0.0
O86 O 0.38638 0.75262 0.30584 0.0
H87 H 0.43718 0.89482 0.35315 0.0
H88 H 0.52968 0.86728 0.33513 0.0
O89 O 0.43807 0.81444 0.42567 0.0
H90 H 0.31887 0.82862 0.29257 0.0
H91 H 0.55976 0.93914 0.32532 0.0
Cu92 Cu 0.62356 0.43818 0.68439 0.0
N93 N 0.66961 0.44896 0.71675 0.0
N94 N 0.68928 0.41918 0.76594 0.0
C95 C 0.67745 0.42091 0.72308 0.0
C96 C 0.69159 0.4489 0.78682 0.0
C97 C 0.68 0.46758 0.75606 0.0
O98 O 0.62311 0.40556 0.63643 0.0
C99 C 0.57749 0.4373 0.75924 0.0
O100 O 0.59596 0.47236 0.7509 0.0
H101 H 0.66552 0.39765 0.70078 0.0
H102 H 0.67282 0.48914 0.76454 0.0
N103 N 0.62272 0.47894 0.65946 0.0
N104 N 0.59636 0.51232 0.62958 0.0
C105 C 0.58924 0.47954 0.64606 0.0
C106 C 0.65234 0.51253 0.65156 0.0
C107 C 0.636 0.53341 0.63333 0.0
C108 C 0.62973 0.41522 0.59449 0.0
O109 O 0.62759 0.44448 0.58107 0.0
H110 H 0.56003 0.45666 0.65038 0.0
H111 H 0.68334 0.52128 0.65922 0.0
O112 O 0.58165 0.41604 0.73095 0.0
H113 H 0.6953 0.4537 0.82323 0.0
H114 H 0.65184 0.56194 0.62429 0.0
Cu115 Cu 0.16492 0.60803 1.02207 0.0
N116 N 0.1781 0.63575 0.07492 0.0
N117 N 0.19206 0.647 0.14919 0.0
C118 C 0.17655 0.62139 0.11675 0.0
C119 C 0.20403 0.67891 0.12663 0.0
C120 C 0.19535 0.67188 0.08071 0.0
O121 O 0.10698 0.57886 1.02199 0.0
C122 C 0.2214 0.58041 1.00989 0.0
O123 O 0.23131 0.5985 0.97095 0.0
H124 H 0.16611 0.59269 0.12265 0.0
H125 H 0.2024 0.69167 0.0534 0.0
N126 N 0.18253 0.63737 0.96884 0.0
N127 N 0.21937 0.6797 0.91653 0.0
C128 C 0.21842 0.66567 0.95892 0.0
C129 C 0.16019 0.63353 0.93161 0.0
C130 C 0.18269 0.65934 0.89944 0.0
C131 C 0.08828 0.55124 0.99691 0.0
O132 O 0.10874 0.5414 0.96907 0.0
H133 H 0.24347 0.67508 0.98191 0.0
H134 H 0.12951 0.61326 0.9281 0.0
O135 O 0.1914 0.57808 1.03206 0.0
H136 H 0.21858 0.70544 0.14208 0.0
H137 H 0.17264 0.66308 0.86611 0.0
Cu138 Cu 0.80683 0.41036 0.42764 0.0
N139 N 0.81976 0.37317 0.44124 0.0
N140 N 0.80974 0.31638 0.43187 0.0
C141 C 0.79286 0.33803 0.44046 0.0
C142 C 0.84895 0.33863 0.42727 0.0
C143 C 0.8551 0.37369 0.43315 0.0
O144 O 0.75595 0.40183 0.45368 0.0
C145 C 0.83724 0.42304 0.33841 0.0
O146 O 0.87119 0.43888 0.36022 0.0
H147 H 0.76112 0.32907 0.43865 0.0
H148 H 0.88247 0.39778 0.42526 0.0
N149 N 0.84633 0.45475 0.44761 0.0
N150 N 0.9087 0.49442 0.46436 0.0
C151 C 0.87995 0.45996 0.46877 0.0
C152 C 0.85338 0.48741 0.43081 0.0
C153 C 0.89208 0.51188 0.44065 0.0
C154 C 0.74425 0.38804 0.49333 0.0
O155 O 0.76662 0.37758 0.51707 0.0
H156 H 0.88522 0.43808 0.48156 0.0
H157 H 0.8337 0.49196 0.40792 0.0
O158 O 0.80486 0.41055 0.36126 0.0
H159 H 0.8706 0.3306 0.41469 0.0
H160 H 0.90827 0.53897 0.42632 0.0
Cu161 Cu 0.3969 0.83451 0.74103 0.0
N162 N 0.44077 0.82982 0.76163 0.0
N163 N 0.48883 0.81335 0.76132 0.0
C164 C 0.45569 0.81012 0.74082 0.0
C165 C 0.49478 0.83511 0.79743 0.0
C166 C 0.46506 0.84564 0.79726 0.0
O167 O 0.34989 0.79876 0.7745 0.0
C168 C 0.42364 0.83923 0.64917 0.0
O169 O 0.45837 0.86 0.66744 0.0
H170 H 0.44244 0.79358 0.7111 0.0
H171 H 0.46158 0.86374 0.82114 0.0
N172 N 0.40671 0.88201 0.75222 0.0
N173 N 0.44137 0.94176 0.76271 0.0
C174 C 0.44292 0.91103 0.75141 0.0
C175 C 0.38114 0.89476 0.76384 0.0
C176 C 0.40249 0.93177 0.77014 0.0
C177 C 0.34866 0.7985 0.81818 0.0
O178 O 0.37851 0.82402 0.84015 0.0
H179 H 0.46988 0.90956 0.74254 0.0
H180 H 0.34937 0.87824 0.76803 0.0
O181 O 0.39252 0.82614 0.67459 0.0
H182 H 0.5188 0.84286 0.82171 0.0
H183 H 0.39054 0.94978 0.78048 0.0
Cu184 Cu 0.55556 0.3949 0.07868 0.0
N185 N 0.53351 0.37966 1.0206 0.0
N186 N 0.53023 0.38381 0.94438 0.0
C187 C 0.54203 0.402 0.98413 0.0
C188 C 0.51218 0.3484 0.95667 0.0
C189 C 0.51431 0.3459 1.00372 0.0
O190 O 0.5376 0.42979 0.09914 0.0
C191 C 0.62516 0.39586 1.04687 0.0
O192 O 0.59869 0.36422 1.03183 0.0
H193 H 0.55827 0.43112 0.98676 0.0
H194 H 0.50524 0.32129 1.02372 0.0
N195 N 0.53619 0.35566 0.12021 0.0
N196 N 0.53195 0.31514 0.17404 0.0
C197 C 0.55642 0.34262 0.14599 0.0
C198 C 0.49785 0.33607 0.13267 0.0
C199 C 0.49512 0.31124 0.1658 0.0
C200 C 0.55029 0.46183 0.08299 0.0
O201 O 0.58073 0.47449 0.05455 0.0
H202 H 0.58842 0.35327 0.14448 0.0
H203 H 0.47366 0.34027 0.11936 0.0
O204 O 0.61346 0.41469 0.07091 0.0
H205 H 0.50092 0.32591 0.93314 0.0
H206 H 0.46819 0.29276 0.18366 0.0
Cu207 Cu 0.18028 0.59955 0.43101 0.0
N208 N 0.16886 0.63786 0.44183 0.0
N209 N 0.18473 0.69634 0.43305 0.0
C210 C 0.19705 0.67218 0.44704 0.0
C211 C 0.14634 0.67635 0.42116 0.0
C212 C 0.1367 0.64025 0.42633 0.0
O213 O 0.22164 0.60137 0.47219 0.0
C214 C 0.21249 0.63078 0.34283 0.0
O215 O 0.23277 0.66119 0.36483 0.0
H216 H 0.22802 0.67908 0.4524 0.0
H217 H 0.11031 0.61773 0.41311 0.0
N218 N 0.13444 0.55647 0.44144 0.0
N219 N 0.06981 0.52075 0.45331 0.0
C220 C 0.10116 0.55295 0.46229 0.0
C221 C 0.12406 0.52514 0.4194 0.0
C222 C 0.08401 0.50307 0.42642 0.0
C223 C 0.25877 0.61805 0.46364 0.0
O224 O 0.27097 0.63488 0.42412 0.0
H225 H 0.09891 0.57497 0.47929 0.0
H226 H 0.14333 0.52019 0.39628 0.0
O227 O 0.19207 0.60153 0.36545 0.0
H228 H 0.12852 0.68678 0.40371 0.0
H229 H 0.06601 0.47751 0.40976 0.0
Cu230 Cu 0.64171 0.18878 0.7412 0.0
N231 N 0.61988 0.21759 0.76339 0.0
N232 N 0.62254 0.26916 0.78864 0.0
C233 C 0.63988 0.24732 0.78882 0.0
C234 C 0.58905 0.25152 0.76389 0.0
C235 C 0.58736 0.21954 0.74854 0.0
O236 O 0.69637 0.21071 0.76375 0.0
C237 C 0.63482 0.20892 0.64824 0.0
O238 O 0.64267 0.24057 0.66549 0.0
H239 H 0.66862 0.25474 0.80362 0.0
H240 H 0.56649 0.20123 0.72413 0.0
N241 N 0.61441 0.14299 0.76824 0.0
N242 N 0.57165 0.08479 0.78154 0.0
C243 C 0.58359 0.11301 0.75177 0.0
C244 C 0.62186 0.13358 0.80985 0.0
C245 C 0.59552 0.09773 0.81821 0.0
C246 C 0.72126 0.2439 0.75684 0.0
O247 O 0.71401 0.26177 0.72403 0.0
H248 H 0.57041 0.11182 0.71859 0.0
H249 H 0.64471 0.15171 0.83265 0.0
O250 O 0.63543 0.18446 0.67452 0.0
H251 H 0.56984 0.26291 0.75293 0.0
H252 H 0.59353 0.08263 0.84929 0.0
Cu253 Cu 0.43919 0.59933 0.07255 0.0
N254 N 0.45409 0.62433 1.01672 0.0
N255 N 0.45156 0.63296 0.94142 0.0
C256 C 0.43193 0.61341 0.97855 0.0
C257 C 0.48753 0.65742 0.95676 0.0
C258 C 0.48902 0.65202 1.00337 0.0
O259 O 0.46501 0.56793 0.07403 0.0
C260 C 0.35509 0.5721 0.09396 0.0
O261 O 0.3652 0.58495 0.1354 0.0
H262 H 0.40279 0.59014 0.97746 0.0
H263 H 0.51424 0.66623 1.02553 0.0
N264 N 0.45612 0.63146 0.1225 0.0
N265 N 0.46182 0.67139 0.17707 0.0
C266 C 0.44206 0.65371 0.1391 0.0
C267 C 0.48573 0.63542 0.15088 0.0
C268 C 0.48921 0.65975 0.18446 0.0
C269 C 0.45962 0.54351 0.10384 0.0
O270 O 0.43385 0.53735 0.13712 0.0
H271 H 0.41759 0.65659 0.12402 0.0
H272 H 0.50305 0.62088 0.14791 0.0
O273 O 0.38159 0.57238 0.06694 0.0
H274 H 0.51129 0.67719 0.93566 0.0
H275 H 0.50934 0.66713 0.21317 0.0
C276 C 0.5938 0.15573 0.5386 0.0
C277 C 0.5932 0.18163 0.50757 0.0
C278 C 0.60768 0.16493 0.58348 0.0
C279 C 0.6218 0.20055 0.59961 0.0
H280 H 0.58346 0.12788 0.52819 0.0
H281 H 0.60707 0.14371 0.60576 0.0
S282 S 0.62807 0.27919 0.53169 0.0
N283 N 0.60888 0.24483 0.49597 0.0
N284 N 0.63501 0.26227 0.58018 0.0
C285 C 0.62156 0.2269 0.56889 0.0
C286 C 0.60724 0.21742 0.52305 0.0
C287 C 0.38513 0.61325 0.83863 0.0
C288 C 0.40864 0.61027 0.80317 0.0
C289 C 0.39923 0.62042 0.8838 0.0
C290 C 0.43781 0.62608 0.89483 0.0
H291 H 0.35562 0.60995 0.83143 0.0
H292 H 0.38014 0.62218 0.91024 0.0
S293 S 0.5116 0.62213 0.81466 0.0
N294 N 0.47263 0.61377 0.78246 0.0
N295 N 0.49912 0.62802 0.86692 0.0
C296 C 0.46167 0.62344 0.85975 0.0
C297 C 0.44708 0.61532 0.81406 0.0
C298 C 0.80488 0.38404 0.27082 0.0
C299 C 0.83715 0.41467 0.28923 0.0
C300 C 0.80629 0.37293 0.22595 0.0
C301 C 0.8397 0.39232 0.19768 0.0
H302 H 0.77889 0.36777 0.29166 0.0
H303 H 0.78105 0.34898 0.21322 0.0
S304 S 0.93109 0.47526 0.22841 0.0
N305 N 0.90299 0.46488 0.27494 0.0
N306 N 0.9052 0.44403 0.19052 0.0
C307 C 0.8716 0.42353 0.21509 0.0
C308 C 0.87044 0.43466 0.2609 0.0
C309 C 0.39167 0.83167 0.52495 0.0
C310 C 0.4222 0.82805 0.50142 0.0
C311 C 0.391 0.83324 0.57296 0.0
C312 C 0.42144 0.83221 0.59925 0.0
H313 H 0.36841 0.83405 0.50601 0.0
H314 H 0.36755 0.83704 0.5894 0.0
S315 S 0.50636 0.81994 0.555 0.0
N316 N 0.48195 0.82072 0.50857 0.0
N317 N 0.48146 0.82481 0.59861 0.0
C318 C 0.45133 0.82724 0.57635 0.0
C319 C 0.45149 0.8248 0.52751 0.0
C320 C 0.51589 0.38139 0.86114 0.0
C321 C 0.54092 0.39862 0.89846 0.0
C322 C 0.52728 0.39404 0.81586 0.0
C323 C 0.56368 0.42482 0.8066 0.0
H324 H 0.48763 0.35759 0.86693 0.0
H325 H 0.50771 0.37957 0.78803 0.0
S326 S 0.64079 0.47897 0.89117 0.0
N327 N 0.60495 0.44711 0.92189 0.0
N328 N 0.62469 0.47206 0.83804 0.0
C329 C 0.58846 0.44271 0.84356 0.0
C330 C 0.57753 0.42935 0.88919 0.0
C331 C 0.23665 0.66212 0.2671 0.0
C332 C 0.20863 0.6321 0.29232 0.0
C333 C 0.23121 0.66667 0.22044 0.0
C334 C 0.19748 0.64144 0.19704 0.0
H335 H 0.26272 0.68274 0.28372 0.0
H336 H 0.25357 0.69021 0.20258 0.0
S337 S 0.11472 0.55848 0.24738 0.0
N338 N 0.14582 0.57665 0.29016 0.0
N339 N 0.13531 0.58555 0.20289 0.0
C340 C 0.16949 0.61101 0.22165 0.0
C341 C 0.17516 0.60624 0.26911 0.0
C342 C 0.76072 0.25284 0.43843 0.0
C343 C 0.78813 0.28157 0.41152 0.0
C344 C 0.72863 0.22363 0.41826 0.0
C345 C 0.72249 0.22284 0.37068 0.0
H346 H 0.76205 0.25477 0.47538 0.0
H347 H 0.70616 0.20346 0.44034 0.0
S348 S 0.78983 0.28921 0.28518 0.0
N349 N 0.81073 0.30535 0.335 0.0
N350 N 0.74962 0.2508 0.29687 0.0
C351 C 0.75228 0.24935 0.3431 0.0
C352 C 0.78531 0.27883 0.36369 0.0
C353 C 0.52135 0.7959 0.70157 0.0
C354 C 0.51 0.79409 0.74772 0.0
C355 C 0.52598 0.76755 0.68178 0.0
C356 C 0.5189 0.73656 0.70771 0.0
H357 H 0.52225 0.81743 0.67968 0.0
H358 H 0.53002 0.76785 0.64506 0.0
S359 S 0.49781 0.72288 0.83211 0.0
N360 N 0.49896 0.76235 0.82048 0.0
N361 N 0.50799 0.70892 0.78339 0.0
C362 C 0.51334 0.737 0.75523 0.0
C363 C 0.50873 0.7659 0.77532 0.0
C364 C 0.69759 0.41789 0.06437 0.0
C365 C 0.66713 0.40938 1.03226 0.0
C366 C 0.73563 0.42324 0.05061 0.0
C367 C 0.74473 0.42087 1.00419 0.0
H368 H 0.69135 0.41828 0.1005 0.0
H369 H 0.75765 0.42799 0.07679 0.0
S370 S 0.67586 0.40304 0.90693 0.0
N371 N 0.64896 0.40121 0.95224 0.0
N372 N 0.72041 0.41234 0.92612 0.0
C373 C 0.71504 0.41471 0.97169 0.0
C374 C 0.67626 0.40861 0.98582 0.0
C375 C 0.27938 0.78016 0.41984 0.0
C376 C 0.28401 0.78256 0.37197 0.0
C377 C 0.24401 0.75458 0.44027 0.0
C378 C 0.21215 0.73068 0.4135 0.0
H379 H 0.30445 0.79613 0.44156 0.0
H380 H 0.2429 0.75093 0.47708 0.0
S381 S 0.20722 0.73023 0.28668 0.0
N382 N 0.2523 0.76246 0.29837 0.0
N383 N 0.18554 0.71425 0.33669 0.0
C384 C 0.21481 0.73572 0.36564 0.0
C385 C 0.25093 0.76176 0.34484 0.0
C386 C 0.69979 0.3659 0.77552 0.0
C387 C 0.67829 0.38455 0.78695 0.0
C388 C 0.68254 0.32809 0.77999 0.0
C389 C 0.64304 0.3077 0.79564 0.0
H390 H 0.72866 0.38034 0.75914 0.0
H391 H 0.69889 0.31455 0.76713 0.0
S392 S 0.57615 0.34403 0.83531 0.0
N393 N 0.61674 0.38023 0.81809 0.0
N394 N 0.5849 0.30907 0.82772 0.0
C395 C 0.62256 0.32628 0.81076 0.0
C396 C 0.64 0.36473 0.80606 0.0
C397 C 0.27891 0.56647 1.00603 0.0
C398 C 0.25 0.57018 1.03249 0.0
C399 C 0.31103 0.56404 1.02654 0.0
C400 C 0.31617 0.56601 0.07444 0.0
H401 H 0.27767 0.56698 0.96901 0.0
H402 H 0.33319 0.56275 1.00425 0.0
S403 S 0.24605 0.57111 0.1596 0.0
N404 N 0.22623 0.57168 0.10958 0.0
N405 N 0.28704 0.56801 0.14795 0.0
C406 C 0.28598 0.56715 0.10147 0.0
C407 C 0.25284 0.56903 0.08056 0.0
C408 C 0.53552 0.02737 0.3629 0.0
C409 C 0.50521 0.03437 0.34507 0.0
C410 C 0.53382 0.99306 0.35913 0.0
C411 C 0.50166 0.96445 0.33754 0.0
H412 H 0.56028 0.04831 0.38095 0.0
H413 H 0.5572 0.98857 0.37437 0.0
S414 S 0.41716 0.96968 0.28041 0.0
N415 N 0.44385 1.01057 0.30159 0.0
N416 N 0.44051 0.94602 0.29492 0.0
C417 C 0.47178 0.97132 0.31841 0.0
C418 C 0.47355 1.00627 0.32209 0.0
C419 C 0.53881 0.56511 0.62816 0.0
C420 C 0.50227 0.54031 0.60913 0.0
C421 C 0.5704 0.55669 0.6324 0.0
C422 C 0.56657 0.52316 0.61775 0.0
H423 H 0.54278 0.59096 0.64081 0.0
H424 H 0.59724 0.57579 0.64928 0.0
S425 S 0.47908 0.4506 0.5606 0.0
N426 N 0.46522 0.4819 0.57253 0.0
N427 N 0.52524 0.46667 0.57895 0.0
C428 C 0.53118 0.49908 0.59606 0.0
C429 C 0.49887 0.50752 0.59202 0.0
C430 C 0.98105 0.5199 1.0366 0.0
C431 C 0.9588 0.48883 1.01024 0.0
C432 C 0.02257 0.54002 1.03162 0.0
C433 C 0.0439 0.53009 0.99999 0.0
H434 H 0.96647 0.52849 0.06211 0.0
H435 H 0.03809 0.56333 0.05334 0.0
S436 S 0.9997 0.45218 0.92051 0.0
N437 N 0.96134 0.45004 0.94973 0.0
N438 N 0.03902 0.48769 0.94039 0.0
C439 C 0.02192 0.49959 0.97255 0.0
C440 C 0.97959 0.47907 0.97764 0.0
C441 C 1.00563 0.50602 0.41785 0.0
C442 C 0.02907 0.51335 0.45731 0.0
C443 C 0.96669 0.50127 0.42034 0.0
C444 C 0.94991 0.50341 0.46237 0.0
H445 H 0.01777 0.50455 0.38481 0.0
H446 H 0.94918 0.49522 0.38941 0.0
S447 S 0.99851 0.52123 0.57537 0.0
N448 N 0.03299 0.52267 0.53941 0.0
N449 N 0.95879 0.51245 0.54416 0.0
C450 C 0.97277 0.51042 0.50204 0.0
C451 C 0.01272 0.51585 0.49946 0.0
C452 C 0.50346 0.04327 0.75617 0.0
C453 C 0.53955 0.04865 0.77602 0.0
C454 C 0.47136 1.00832 0.75225 0.0
C455 C 0.47447 0.97748 0.76734 0.0
H456 H 0.4998 0.06632 0.74439 0.0
H457 H 0.44404 1.00531 0.7369 0.0
S458 S 0.56283 0.97692 0.82104 0.0
N459 N 0.57675 0.02016 0.81004 0.0
N460 N 0.51645 0.95471 0.80328 0.0
C461 C 0.51051 0.98252 0.78692 0.0
C462 C 0.54302 0.01804 0.79115 0.0
C463 C 0.51541 0.53417 0.07031 0.0
C464 C 0.48293 0.5227 0.1009 0.0
C465 C 0.53754 0.51497 0.06592 0.0
C466 C 0.52813 0.48315 0.09162 0.0
H467 H 0.52388 0.55822 1.04927 0.0
H468 H 0.56181 0.52492 1.04135 0.0
S469 S 0.44652 0.44177 0.17761 0.0
N470 N 0.44308 0.47767 0.1583 0.0
N471 N 0.48437 0.44152 0.1498 0.0
C472 C 0.49608 0.47159 0.1229 0.0
C473 C 0.47363 0.49133 0.12759 0.0
C474 C 0.58926 0.29471 0.2656 0.0
C475 C 0.56409 0.25805 0.27703 0.0
C476 C 0.57884 0.31302 0.23175 0.0
C477 C 0.5428 0.29551 0.20776 0.0
H478 H 0.61729 0.30958 0.28307 0.0
H479 H 0.59892 0.34132 0.22484 0.0
S480 S 0.46769 0.1989 0.22172 0.0
N481 N 0.50209 0.20452 0.25982 0.0
N482 N 0.48301 0.23865 0.19594 0.0
C483 C 0.51764 0.25871 0.21826 0.0
C484 C 0.52813 0.2401 0.25288 0.0
C485 C 0.32918 0.63811 0.48745 0.0
C486 C 0.28831 0.61867 0.49771 0.0
C487 C 0.358 0.63886 0.51793 0.0
C488 C 0.34743 0.62025 0.56026 0.0
H489 H 0.33926 0.65281 0.45533 0.0
H490 H 0.38895 0.65406 0.5078 0.0
S491 S 0.2445 0.5659 0.60461 0.0
N492 N 0.23867 0.5808 0.55406 0.0
N493 N 0.29298 0.58226 0.61134 0.0
C494 C 0.3067 0.60113 0.57151 0.0
C495 C 0.27716 0.60031 0.54028 0.0
C496 C 0.77074 0.26427 0.87365 0.0
C497 C 0.79033 0.30239 0.87472 0.0
C498 C 0.75045 0.24558 0.8345 0.0
C499 C 0.74933 0.26421 0.79439 0.0
H500 H 0.77013 0.24879 0.9039 0.0
H501 H 0.73444 0.21624 0.83636 0.0
S502 S 0.80156 0.36438 0.77773 0.0
N503 N 0.81076 0.35821 0.83141 0.0
N504 N 0.7739 0.32345 0.75713 0.0
C505 C 0.77098 0.30247 0.79429 0.0
C506 C 0.79099 0.32145 0.83461 0.0
C507 C 0.41378 0.68759 0.21534 0.0
C508 C 0.4533 0.69492 0.20649 0.0
C509 C 0.40481 0.7087 0.24609 0.0
C510 C 0.43496 0.73832 0.26924 0.0
H511 H 0.3895 0.6648 0.19916 0.0
H512 H 0.37378 0.70152 0.25178 0.0
S513 S 0.54362 0.77053 0.25531 0.0
N514 N 0.52303 0.73506 0.22147 0.0
N515 N 0.50635 0.77458 0.27921 0.0
C516 C 0.47471 0.74633 0.25997 0.0
C517 C 0.48381 0.72472 0.2287 0.0
C518 C 0.67012 0.38195 0.58504 0.0
C519 C 0.65098 0.40062 0.56502 0.0
C520 C 0.69859 0.37614 0.56069 0.0
C521 C 0.70892 0.38849 0.5152 0.0
H522 H 0.6651 0.37378 0.62072 0.0
H523 H 0.71394 0.36338 0.57855 0.0
S524 S 0.66115 0.43184 0.44406 0.0
N525 N 0.63984 0.42636 0.49484 0.0
N526 N 0.69302 0.41522 0.44896 0.0
C527 C 0.68718 0.40402 0.49342 0.0
C528 C 0.6583 0.4101 0.51833 0.0
C529 C 0.25627 0.70902 0.84514 0.0
C530 C 0.25216 0.70948 0.89308 0.0
C531 C 0.28709 0.7379 0.82127 0.0
C532 C 0.31531 0.76868 0.8442 0.0
H533 H 0.23568 0.68587 0.82582 0.0
H534 H 0.28896 0.73584 0.78451 0.0
S535 S 0.31661 0.7844 0.96947 0.0
N536 N 0.27808 0.74417 0.96236 0.0
N537 N 0.33616 0.79814 0.91802 0.0
C538 C 0.31136 0.76963 0.8922 0.0
C539 C 0.27988 0.74016 0.91647 0.0
loop_
_geom_bond_atom_site_label_1
_geom_bond_atom_site_label_2
_geom_bond_distance
_geom_bond_site_symmetry_2
_ccdc_geom_bond_type
Cu0 N1 1.999 . S
Cu0 O6 1.974 . S
Cu0 N11 1.985 . S
Cu0 O20 1.959 . S
N1 Cu0 1.999 . S
N1 C3 1.263 . S
N1 C5 1.389 . S
N2 C3 1.358 . S
N2 C4 1.400 . S
C3 N1 1.263 . S
C3 N2 1.358 . S
C3 H9 0.930 . S
C4 N2 1.400 . S
C4 C5 1.351 . S
C4 H21 0.930 . S
C5 N1 1.389 . S
C5 C4 1.351 . S
C5 H10 0.930 . S
O6 Cu0 1.974 . S
O6 C16 1.282 . S
C7 O8 1.261 . S
C7 O20 1.251 . S
O8 C7 1.261 . S
H9 C3 0.930 . S
H10 C5 0.930 . S
N11 Cu0 1.985 . S
N11 C13 1.335 . S
N11 C14 1.390 . S
N12 C13 1.345 . S
N12 C15 1.336 . S
C13 N11 1.335 . S
C13 N12 1.345 . S
C13 H18 0.930 . S
C14 N11 1.390 . S
C14 C15 1.346 . S
C14 H19 0.930 . S
C15 N12 1.336 . S
C15 C14 1.346 . S
C15 H22 0.929 . S
C16 O6 1.282 . S
C16 O17 1.216 . S
O17 C16 1.216 . S
H18 C13 0.930 . S
H19 C14 0.930 . S
O20 Cu0 1.959 . S
O20 C7 1.251 . S
H21 C4 0.930 . S
H22 C15 0.929 . S
Cu23 N24 1.999 . S
Cu23 O29 1.974 . S
Cu23 N34 1.985 . S
Cu23 O43 1.959 . S
N24 Cu23 1.999 . S
N24 C26 1.263 . S
N24 C28 1.389 . S
N25 C26 1.358 . S
N25 C27 1.400 . S
C26 N24 1.263 . S
C26 N25 1.358 . S
C26 H32 0.930 . S
C27 N25 1.400 . S
C27 C28 1.351 . S
C27 H44 0.930 . S
C28 N24 1.389 . S
C28 C27 1.351 . S
C28 H33 0.930 . S
O29 Cu23 1.974 . S
O29 C39 1.282 . S
C30 O31 1.261 . S
C30 O43 1.251 . S
O31 C30 1.261 . S
H32 C26 0.930 . S
H33 C28 0.930 . S
N34 Cu23 1.985 . S
N34 C36 1.335 . S
N34 C37 1.390 . S
N35 C36 1.345 . S
N35 C38 1.336 . S
C36 N34 1.335 . S
C36 N35 1.345 . S
C36 H41 0.930 . S
C37 N34 1.390 . S
C37 C38 1.346 . S
C37 H42 0.930 . S
C38 N35 1.336 . S
C38 C37 1.346 . S
C38 H45 0.929 . S
C39 O29 1.282 . S
C39 O40 1.216 . S
O40 C39 1.216 . S
H41 C36 0.930 . S
H42 C37 0.930 . S
O43 Cu23 1.959 . S
O43 C30 1.251 . S
H44 C27 0.930 . S
H45 C38 0.929 . S
Cu46 N47 1.999 . S
Cu46 O52 1.974 . S
Cu46 N57 1.985 1_554 S
Cu46 O66 1.959 . S
N47 Cu46 1.999 . S
N47 C49 1.263 . S
N47 C51 1.389 . S
N48 C49 1.358 . S
N48 C50 1.400 . S
C49 N47 1.263 . S
C49 N48 1.358 . S
C49 H55 0.930 . S
C50 N48 1.400 . S
C50 C51 1.351 . S
C50 H67 0.930 . S
C51 N47 1.389 . S
C51 C50 1.351 . S
C51 H56 0.930 . S
O52 Cu46 1.974 . S
O52 C62 1.282 1_554 S
C53 O54 1.261 . S
C53 O66 1.251 1_556 S
O54 C53 1.261 . S
H55 C49 0.930 . S
H56 C51 0.930 . S
N57 Cu46 1.985 1_556 S
N57 C59 1.335 . S
N57 C60 1.390 . S
N58 C59 1.345 . S
N58 C61 1.336 . S
C59 N57 1.335 . S
C59 N58 1.345 . S
C59 H64 0.930 . S
C60 N57 1.390 . S
C60 C61 1.346 . S
C60 H65 0.930 . S
C61 N58 1.336 . S
C61 C60 1.346 . S
C61 H68 0.929 . S
C62 O52 1.282 1_556 S
C62 O63 1.216 . S
O63 C62 1.216 . S
H64 C59 0.930 . S
H65 C60 0.930 . S
O66 Cu46 1.959 . S
O66 C53 1.251 1_554 S
H67 C50 0.930 . S
H68 C61 0.929 . S
Cu69 N70 1.999 . S
Cu69 O75 1.974 . S
Cu69 N80 1.985 . S
Cu69 O89 1.959 . S
N70 Cu69 1.999 . S
N70 C72 1.263 . S
N70 C74 1.389 . S
N71 C72 1.358 . S
N71 C73 1.400 . S
C72 N70 1.263 . S
C72 N71 1.358 . S
C72 H78 0.930 . S
C73 N71 1.400 . S
C73 C74 1.351 . S
C73 H90 0.930 . S
C74 N70 1.389 . S
C74 C73 1.351 . S
C74 H79 0.930 . S
O75 Cu69 1.974 . S
O75 C85 1.282 . S
C76 O77 1.261 . S
C76 O89 1.251 . S
O77 C76 1.261 . S
H78 C72 0.930 . S
H79 C74 0.930 . S
N80 Cu69 1.985 . S
N80 C82 1.335 . S
N80 C83 1.390 . S
N81 C82 1.345 . S
N81 C84 1.336 . S
C82 N80 1.335 . S
C82 N81 1.345 . S
C82 H87 0.930 . S
C83 N80 1.390 . S
C83 C84 1.346 . S
C83 H88 0.930 . S
C84 N81 1.336 . S
C84 C83 1.346 . S
C84 H91 0.929 . S
C85 O75 1.282 . S
C85 O86 1.216 . S
O86 C85 1.216 . S
H87 C82 0.930 . S
H88 C83 0.930 . S
O89 Cu69 1.959 . S
O89 C76 1.251 . S
H90 C73 0.930 . S
H91 C84 0.929 . S
Cu92 N93 1.999 . S
Cu92 O98 1.974 . S
Cu92 N103 1.985 . S
Cu92 O112 1.959 . S
N93 Cu92 1.999 . S
N93 C95 1.263 . S
N93 C97 1.389 . S
N94 C95 1.358 . S
N94 C96 1.400 . S
C95 N93 1.263 . S
C95 N94 1.358 . S
C95 H101 0.930 . S
C96 N94 1.400 . S
C96 C97 1.351 . S
C96 H113 0.930 . S
C97 N93 1.389 . S
C97 C96 1.351 . S
C97 H102 0.930 . S
O98 Cu92 1.974 . S
O98 C108 1.282 . S
C99 O100 1.261 . S
C99 O112 1.251 . S
O100 C99 1.261 . S
H101 C95 0.930 . S
H102 C97 0.930 . S
N103 Cu92 1.985 . S
N103 C105 1.335 . S
N103 C106 1.390 . S
N104 C105 1.345 . S
N104 C107 1.336 . S
C105 N103 1.335 . S
C105 N104 1.345 . S
C105 H110 0.930 . S
C106 N103 1.390 . S
C106 C107 1.346 . S
C106 H111 0.930 . S
C107 N104 1.336 . S
C107 C106 1.346 . S
C107 H114 0.929 . S
C108 O98 1.282 . S
C108 O109 1.216 . S
O109 C108 1.216 . S
H110 C105 0.930 . S
H111 C106 0.930 . S
O112 Cu92 1.959 . S
O112 C99 1.251 . S
H113 C96 0.930 . S
H114 C107 0.929 . S
Cu115 N116 1.999 . S
Cu115 O121 1.974 . S
Cu115 N126 1.985 1_554 S
Cu115 O135 1.959 . S
N116 Cu115 1.999 . S
N116 C118 1.263 . S
N116 C120 1.389 . S
N117 C118 1.358 . S
N117 C119 1.400 . S
C118 N116 1.263 . S
C118 N117 1.358 . S
C118 H124 0.930 . S
C119 N117 1.400 . S
C119 C120 1.351 . S
C119 H136 0.930 . S
C120 N116 1.389 . S
C120 C119 1.351 . S
C120 H125 0.930 . S
O121 Cu115 1.974 . S
O121 C131 1.282 1_554 S
C122 O123 1.261 . S
C122 O135 1.251 1_556 S
O123 C122 1.261 . S
H124 C118 0.930 . S
H125 C120 0.930 . S
N126 Cu115 1.985 1_556 S
N126 C128 1.335 . S
N126 C129 1.390 . S
N127 C128 1.345 . S
N127 C130 1.336 . S
C128 N126 1.335 . S
C128 N127 1.345 . S
C128 H133 0.930 . S
C129 N126 1.390 . S
C129 C130 1.346 . S
C129 H134 0.930 . S
C130 N127 1.336 . S
C130 C129 1.346 . S
C130 H137 0.929 . S
C131 O121 1.282 1_556 S
C131 O132 1.216 . S
O132 C131 1.216 . S
H133 C128 0.930 . S
H134 C129 0.930 . S
O135 Cu115 1.959 . S
O135 C122 1.251 1_554 S
H136 C119 0.930 . S
H137 C130 0.929 . S
Cu138 N139 1.999 . S
Cu138 O144 1.974 . S
Cu138 N149 1.985 . S
Cu138 O158 1.959 . S
N139 Cu138 1.999 . S
N139 C141 1.263 . S
N139 C143 1.389 . S
N140 C141 1.358 . S
N140 C142 1.400 . S
C141 N139 1.263 . S
C141 N140 1.358 . S
C141 H147 0.930 . S
C142 N140 1.400 . S
C142 C143 1.351 . S
C142 H159 0.930 . S
C143 N139 1.389 . S
C143 C142 1.351 . S
C143 H148 0.930 . S
O144 Cu138 1.974 . S
O144 C154 1.282 . S
C145 O146 1.261 . S
C145 O158 1.251 . S
O146 C145 1.261 . S
H147 C141 0.930 . S
H148 C143 0.930 . S
N149 Cu138 1.985 . S
N149 C151 1.335 . S
N149 C152 1.390 . S
N150 C151 1.345 . S
N150 C153 1.336 . S
C151 N149 1.335 . S
C151 N150 1.345 . S
C151 H156 0.930 . S
C152 N149 1.390 . S
C152 C153 1.346 . S
C152 H157 0.930 . S
C153 N150 1.336 . S
C153 C152 1.346 . S
C153 H160 0.929 . S
C154 O144 1.282 . S
C154 O155 1.216 . S
O155 C154 1.216 . S
H156 C151 0.930 . S
H157 C152 0.930 . S
O158 Cu138 1.959 . S
O158 C145 1.251 . S
H159 C142 0.930 . S
H160 C153 0.929 . S
Cu161 N162 1.999 . S
Cu161 O167 1.974 . S
Cu161 N172 1.985 . S
Cu161 O181 1.959 . S
N162 Cu161 1.999 . S
N162 C164 1.263 . S
N162 C166 1.389 . S
N163 C164 1.358 . S
N163 C165 1.400 . S
C164 N162 1.263 . S
C164 N163 1.358 . S
C164 H170 0.930 . S
C165 N163 1.400 . S
C165 C166 1.351 . S
C165 H182 0.930 . S
C166 N162 1.389 . S
C166 C165 1.351 . S
C166 H171 0.930 . S
O167 Cu161 1.974 . S
O167 C177 1.282 . S
C168 O169 1.261 . S
C168 O181 1.251 . S
O169 C168 1.261 . S
H170 C164 0.930 . S
H171 C166 0.930 . S
N172 Cu161 1.985 . S
N172 C174 1.335 . S
N172 C175 1.390 . S
N173 C174 1.345 . S
N173 C176 1.336 . S
C174 N172 1.335 . S
C174 N173 1.345 . S
C174 H179 0.930 . S
C175 N172 1.390 . S
C175 C176 1.346 . S
C175 H180 0.930 . S
C176 N173 1.336 . S
C176 C175 1.346 . S
C176 H183 0.929 . S
C177 O167 1.282 . S
C177 O178 1.216 . S
O178 C177 1.216 . S
H179 C174 0.930 . S
H180 C175 0.930 . S
O181 Cu161 1.959 . S
O181 C168 1.251 . S
H182 C165 0.930 . S
H183 C176 0.929 . S
Cu184 N185 1.999 . S
Cu184 O190 1.974 . S
Cu184 N195 1.985 1_556 S
Cu184 O204 1.959 . S
N185 Cu184 1.999 . S
N185 C187 1.263 . S
N185 C189 1.389 . S
N186 C187 1.358 . S
N186 C188 1.400 . S
C187 N185 1.263 . S
C187 N186 1.358 . S
C187 H193 0.930 . S
C188 N186 1.400 . S
C188 C189 1.351 . S
C188 H205 0.930 . S
C189 N185 1.389 . S
C189 C188 1.351 . S
C189 H194 0.930 . S
O190 Cu184 1.974 . S
O190 C200 1.282 1_556 S
C191 O192 1.261 . S
C191 O204 1.251 1_554 S
O192 C191 1.261 . S
H193 C187 0.930 . S
H194 C189 0.930 . S
N195 Cu184 1.985 1_554 S
N195 C197 1.335 . S
N195 C198 1.390 . S
N196 C197 1.345 . S
N196 C199 1.336 . S
C197 N195 1.335 . S
C197 N196 1.345 . S
C197 H202 0.930 . S
C198 N195 1.390 . S
C198 C199 1.346 . S
C198 H203 0.930 . S
C199 N196 1.336 . S
C199 C198 1.346 . S
C199 H206 0.929 . S
C200 O190 1.282 1_554 S
C200 O201 1.216 . S
O201 C200 1.216 . S
H202 C197 0.930 . S
H203 C198 0.930 . S
O204 Cu184 1.959 . S
O204 C191 1.251 1_556 S
H205 C188 0.930 . S
H206 C199 0.929 . S
Cu207 N208 1.999 . S
Cu207 O213 1.974 . S
Cu207 N218 1.985 . S
Cu207 O227 1.959 . S
N208 Cu207 1.999 . S
N208 C210 1.263 . S
N208 C212 1.389 . S
N209 C210 1.358 . S
N209 C211 1.400 . S
C210 N208 1.263 . S
C210 N209 1.358 . S
C210 H216 0.930 . S
C211 N209 1.400 . S
C211 C212 1.351 . S
C211 H228 0.930 . S
C212 N208 1.389 . S
C212 C211 1.351 . S
C212 H217 0.930 . S
O213 Cu207 1.974 . S
O213 C223 1.282 . S
C214 O215 1.261 . S
C214 O227 1.251 . S
O215 C214 1.261 . S
H216 C210 0.930 . S
H217 C212 0.930 . S
N218 Cu207 1.985 . S
N218 C220 1.335 . S
N218 C221 1.390 . S
N219 C220 1.345 . S
N219 C222 1.336 . S
C220 N218 1.335 . S
C220 N219 1.345 . S
C220 H225 0.930 . S
C221 N218 1.390 . S
C221 C222 1.346 . S
C221 H226 0.930 . S
C222 N219 1.336 . S
C222 C221 1.346 . S
C222 H229 0.929 . S
C223 O213 1.282 . S
C223 O224 1.216 . S
O224 C223 1.216 . S
H225 C220 0.930 . S
H226 C221 0.930 . S
O227 Cu207 1.959 . S
O227 C214 1.251 . S
H228 C211 0.930 . S
H229 C222 0.929 . S
Cu230 N231 1.999 . S
Cu230 O236 1.974 . S
Cu230 N241 1.985 . S
Cu230 O250 1.959 . S
N231 Cu230 1.999 . S
N231 C233 1.263 . S
N231 C235 1.389 . S
N232 C233 1.358 . S
N232 C234 1.400 . S
C233 N231 1.263 . S
C233 N232 1.358 . S
C233 H239 0.930 . S
C234 N232 1.400 . S
C234 C235 1.351 . S
C234 H251 0.930 . S
C235 N231 1.389 . S
C235 C234 1.351 . S
C235 H240 0.930 . S
O236 Cu230 1.974 . S
O236 C246 1.282 . S
C237 O238 1.261 . S
C237 O250 1.251 . S
O238 C237 1.261 . S
H239 C233 0.930 . S
H240 C235 0.930 . S
N241 Cu230 1.985 . S
N241 C243 1.335 . S
N241 C244 1.390 . S
N242 C243 1.345 . S
N242 C245 1.336 . S
C243 N241 1.335 . S
C243 N242 1.345 . S
C243 H248 0.930 . S
C244 N241 1.390 . S
C244 C245 1.346 . S
C244 H249 0.930 . S
C245 N242 1.336 . S
C245 C244 1.346 . S
C245 H252 0.929 . S
C246 O236 1.282 . S
C246 O247 1.216 . S
O247 C246 1.216 . S
H248 C243 0.930 . S
H249 C244 0.930 . S
O250 Cu230 1.959 . S
O250 C237 1.251 . S
H251 C234 0.930 . S
H252 C245 0.929 . S
Cu253 N254 1.999 . S
Cu253 O259 1.974 . S
Cu253 N264 1.985 1_556 S
Cu253 O273 1.959 . S
N254 Cu253 1.999 . S
N254 C256 1.263 . S
N254 C258 1.389 . S
N255 C256 1.358 . S
N255 C257 1.400 . S
C256 N254 1.263 . S
C256 N255 1.358 . S
C256 H262 0.930 . S
C257 N255 1.400 . S
C257 C258 1.351 . S
C257 H274 0.930 . S
C258 N254 1.389 . S
C258 C257 1.351 . S
C258 H263 0.930 . S
O259 Cu253 1.974 . S
O259 C269 1.282 1_556 S
C260 O261 1.261 . S
C260 O273 1.251 1_554 S
O261 C260 1.261 . S
H262 C256 0.930 . S
H263 C258 0.930 . S
N264 Cu253 1.985 1_554 S
N264 C266 1.335 . S
N264 C267 1.390 . S
N265 C266 1.345 . S
N265 C268 1.336 . S
C266 N264 1.335 . S
C266 N265 1.345 . S
C266 H271 0.930 . S
C267 N264 1.390 . S
C267 C268 1.346 . S
C267 H272 0.930 . S
C268 N265 1.336 . S
C268 C267 1.346 . S
C268 H275 0.929 . S
C269 O259 1.282 1_554 S
C269 O270 1.216 . S
O270 C269 1.216 . S
H271 C266 0.930 . S
H272 C267 0.930 . S
O273 Cu253 1.959 . S
O273 C260 1.251 1_556 S
H274 C257 0.930 . S
H275 C268 0.929 . S
C276 C277 1.369 . S
C276 C278 1.419 . S
C276 H280 0.930 . S
C277 C276 1.369 . S
C277 C286 1.429 . S
C278 C276 1.419 . S
C278 C279 1.363 . S
C278 H281 0.929 . S
C279 C278 1.363 . S
C279 C285 1.428 . S
H280 C276 0.930 . S
H281 C278 0.929 . S
S282 N283 1.613 . S
S282 N284 1.610 . S
N283 S282 1.613 . S
N283 C286 1.350 . S
N284 S282 1.610 . S
N284 C285 1.351 . S
C285 C279 1.428 . S
C285 N284 1.351 . S
C285 C286 1.434 . S
C286 C277 1.429 . S
C286 N283 1.350 . S
C286 C285 1.434 . S
C287 C288 1.369 . S
C287 C289 1.419 . S
C287 H291 0.930 . S
C288 C287 1.369 . S
C288 C297 1.429 . S
C289 C287 1.419 . S
C289 C290 1.363 . S
C289 H292 0.929 . S
C290 C289 1.363 . S
C290 C296 1.428 . S
H291 C287 0.930 . S
H292 C289 0.929 . S
S293 N294 1.613 . S
S293 N295 1.610 . S
N294 S293 1.613 . S
N294 C297 1.350 . S
N295 S293 1.610 . S
N295 C296 1.351 . S
C296 C290 1.428 . S
C296 N295 1.351 . S
C296 C297 1.434 . S
C297 C288 1.429 . S
C297 N294 1.350 . S
C297 C296 1.434 . S
C298 C299 1.369 . S
C298 C300 1.419 . S
C298 H302 0.930 . S
C299 C298 1.369 . S
C299 C308 1.429 . S
C300 C298 1.419 . S
C300 C301 1.363 . S
C300 H303 0.929 . S
C301 C300 1.363 . S
C301 C307 1.428 . S
H302 C298 0.930 . S
H303 C300 0.929 . S
S304 N305 1.613 . S
S304 N306 1.610 . S
N305 S304 1.613 . S
N305 C308 1.350 . S
N306 S304 1.610 . S
N306 C307 1.351 . S
C307 C301 1.428 . S
C307 N306 1.351 . S
C307 C308 1.434 . S
C308 C299 1.429 . S
C308 N305 1.350 . S
C308 C307 1.434 . S
C309 C310 1.369 . S
C309 C311 1.419 . S
C309 H313 0.930 . S
C310 C309 1.369 . S
C310 C319 1.429 . S
C311 C309 1.419 . S
C311 C312 1.363 . S
C311 H314 0.929 . S
C312 C311 1.363 . S
C312 C318 1.428 . S
H313 C309 0.930 . S
H314 C311 0.929 . S
S315 N316 1.613 . S
S315 N317 1.610 . S
N316 S315 1.613 . S
N316 C319 1.350 . S
N317 S315 1.610 . S
N317 C318 1.351 . S
C318 C312 1.428 . S
C318 N317 1.351 . S
C318 C319 1.434 . S
C319 C310 1.429 . S
C319 N316 1.350 . S
C319 C318 1.434 . S
C320 C321 1.369 . S
C320 C322 1.419 . S
C320 H324 0.930 . S
C321 C320 1.369 . S
C321 C330 1.429 . S
C322 C320 1.419 . S
C322 C323 1.363 . S
C322 H325 0.929 . S
C323 C322 1.363 . S
C323 C329 1.428 . S
H324 C320 0.930 . S
H325 C322 0.929 . S
S326 N327 1.613 . S
S326 N328 1.610 . S
N327 S326 1.613 . S
N327 C330 1.350 . S
N328 S326 1.610 . S
N328 C329 1.351 . S
C329 C323 1.428 . S
C329 N328 1.351 . S
C329 C330 1.434 . S
C330 C321 1.429 . S
C330 N327 1.350 . S
C330 C329 1.434 . S
C331 C332 1.369 . S
C331 C333 1.419 . S
C331 H335 0.930 . S
C332 C331 1.369 . S
C332 C341 1.429 . S
C333 C331 1.419 . S
C333 C334 1.363 . S
C333 H336 0.929 . S
C334 C333 1.363 . S
C334 C340 1.428 . S
H335 C331 0.930 . S
H336 C333 0.929 . S
S337 N338 1.613 . S
S337 N339 1.610 . S
N338 S337 1.613 . S
N338 C341 1.350 . S
N339 S337 1.610 . S
N339 C340 1.351 . S
C340 C334 1.428 . S
C340 N339 1.351 . S
C340 C341 1.434 . S
C341 C332 1.429 . S
C341 N338 1.350 . S
C341 C340 1.434 . S
C342 C343 1.369 . S
C342 C344 1.419 . S
C342 H346 0.930 . S
C343 C342 1.369 . S
C343 C352 1.429 . S
C344 C342 1.419 . S
C344 C345 1.363 . S
C344 H347 0.929 . S
C345 C344 1.363 . S
C345 C351 1.428 . S
H346 C342 0.930 . S
H347 C344 0.929 . S
S348 N349 1.613 . S
S348 N350 1.610 . S
N349 S348 1.613 . S
N349 C352 1.350 . S
N350 S348 1.610 . S
N350 C351 1.351 . S
C351 C345 1.428 . S
C351 N350 1.351 . S
C351 C352 1.434 . S
C352 C343 1.429 . S
C352 N349 1.350 . S
C352 C351 1.434 . S
C353 C354 1.369 . S
C353 C355 1.419 . S
C353 H357 0.930 . S
C354 C353 1.369 . S
C354 C363 1.429 . S
C355 C353 1.419 . S
C355 C356 1.363 . S
C355 H358 0.929 . S
C356 C355 1.363 . S
C356 C362 1.428 . S
H357 C353 0.930 . S
H358 C355 0.929 . S
S359 N360 1.613 . S
S359 N361 1.610 . S
N360 S359 1.613 . S
N360 C363 1.350 . S
N361 S359 1.610 . S
N361 C362 1.351 . S
C362 C356 1.428 . S
C362 N361 1.351 . S
C362 C363 1.434 . S
C363 C354 1.429 . S
C363 N360 1.350 . S
C363 C362 1.434 . S
C364 C365 1.369 . S
C364 C366 1.419 . S
C364 H368 0.930 . S
C365 C364 1.369 . S
C365 C374 1.429 1_554 S
C366 C364 1.419 . S
C366 C367 1.363 1_554 S
C366 H369 0.929 . S
C367 C366 1.363 1_556 S
C367 C373 1.428 . S
H368 C364 0.930 . S
H369 C366 0.929 . S
S370 N371 1.613 . S
S370 N372 1.610 . S
N371 S370 1.613 . S
N371 C374 1.350 . S
N372 S370 1.610 . S
N372 C373 1.351 . S
C373 C367 1.428 . S
C373 N372 1.351 . S
C373 C374 1.434 . S
C374 C365 1.429 1_556 S
C374 N371 1.350 . S
C374 C373 1.434 . S
C375 C376 1.369 . S
C375 C377 1.419 . S
C375 H379 0.930 . S
C376 C375 1.369 . S
C376 C385 1.429 . S
C377 C375 1.419 . S
C377 C378 1.363 . S
C377 H380 0.929 . S
C378 C377 1.363 . S
C378 C384 1.428 . S
H379 C375 0.930 . S
H380 C377 0.929 . S
S381 N382 1.613 . S
S381 N383 1.610 . S
N382 S381 1.613 . S
N382 C385 1.350 . S
N383 S381 1.610 . S
N383 C384 1.351 . S
C384 C378 1.428 . S
C384 N383 1.351 . S
C384 C385 1.434 . S
C385 C376 1.429 . S
C385 N382 1.350 . S
C385 C384 1.434 . S
C386 C387 1.369 . S
C386 C388 1.419 . S
C386 H390 0.930 . S
C387 C386 1.369 . S
C387 C396 1.429 . S
C388 C386 1.419 . S
C388 C389 1.363 . S
C388 H391 0.929 . S
C389 C388 1.363 . S
C389 C395 1.428 . S
H390 C386 0.930 . S
H391 C388 0.929 . S
S392 N393 1.613 . S
S392 N394 1.610 . S
N393 S392 1.613 . S
N393 C396 1.350 . S
N394 S392 1.610 . S
N394 C395 1.351 . S
C395 C389 1.428 . S
C395 N394 1.351 . S
C395 C396 1.434 . S
C396 C387 1.429 . S
C396 N393 1.350 . S
C396 C395 1.434 . S
C397 C398 1.369 . S
C397 C399 1.419 . S
C397 H401 0.930 . S
C398 C397 1.369 . S
C398 C407 1.429 1_556 S
C399 C397 1.419 . S
C399 C400 1.363 1_556 S
C399 H402 0.929 . S
C400 C399 1.363 1_554 S
C400 C406 1.428 . S
H401 C397 0.930 . S
H402 C399 0.929 . S
S403 N404 1.613 . S
S403 N405 1.610 . S
N404 S403 1.613 . S
N404 C407 1.350 . S
N405 S403 1.610 . S
N405 C406 1.351 . S
C406 C400 1.428 . S
C406 N405 1.351 . S
C406 C407 1.434 . S
C407 C398 1.429 1_554 S
C407 N404 1.350 . S
C407 C406 1.434 . S
C408 C409 1.369 . S
C408 C410 1.419 1_545 S
C408 H412 0.930 . S
C409 C408 1.369 . S
C409 C418 1.422 1_545 S
C410 C408 1.419 1_565 S
C410 C411 1.363 . S
C410 H413 0.929 . S
C411 C410 1.363 . S
C411 C417 1.428 . S
H412 C408 0.930 . S
H413 C410 0.929 . S
S414 N415 1.613 . S
S414 N416 1.610 . S
N415 S414 1.613 . S
N415 C418 1.348 . S
N416 S414 1.610 . S
N416 C417 1.351 . S
C417 C411 1.428 . S
C417 N416 1.351 . S
C417 C418 1.444 . S
C418 C409 1.422 1_565 S
C418 N415 1.348 . S
C418 C417 1.444 . S
C419 C420 1.369 . S
C419 C421 1.419 . S
C419 H423 0.930 . S
C420 C419 1.369 . S
C420 C429 1.429 . S
C421 C419 1.419 . S
C421 C422 1.363 . S
C421 H424 0.929 . S
C422 C421 1.363 . S
C422 C428 1.428 . S
H423 C419 0.930 . S
H424 C421 0.929 . S
S425 N426 1.613 . S
S425 N427 1.610 . S
N426 S425 1.613 . S
N426 C429 1.350 . S
N427 S425 1.610 . S
N427 C428 1.351 . S
C428 C422 1.428 . S
C428 N427 1.351 . S
C428 C429 1.434 . S
C429 C420 1.429 . S
C429 N426 1.350 . S
C429 C428 1.434 . S
C430 C431 1.369 1_554 S
C430 C432 1.419 1_655 S
C430 H434 0.930 . S
C431 C430 1.369 1_556 S
C431 C440 1.429 . S
C432 C430 1.419 1_455 S
C432 C433 1.363 1_554 S
C432 H435 0.929 . S
C433 C432 1.363 1_556 S
C433 C439 1.428 . S
H434 C430 0.930 . S
H435 C432 0.929 . S
S436 N437 1.613 1_455 S
S436 N438 1.610 . S
N437 S436 1.613 1_655 S
N437 C440 1.350 . S
N438 S436 1.610 . S
N438 C439 1.351 . S
C439 C433 1.428 . S
C439 N438 1.351 . S
C439 C440 1.434 1_455 S
C440 C431 1.429 . S
C440 N437 1.350 . S
C440 C439 1.434 1_655 S
C441 C442 1.369 1_655 S
C441 C443 1.419 . S
C441 H445 0.930 . S
C442 C441 1.369 1_455 S
C442 C451 1.429 . S
C443 C441 1.419 . S
C443 C444 1.363 . S
C443 H446 0.929 . S
C444 C443 1.363 . S
C444 C450 1.428 1_655 S
H445 C441 0.930 . S
H446 C443 0.929 . S
S447 N448 1.613 . S
S447 N449 1.610 . S
N448 S447 1.613 . S
N448 C451 1.350 . S
N449 S447 1.610 . S
N449 C450 1.351 . S
C450 C444 1.428 1_455 S
C450 N449 1.351 . S
C450 C451 1.434 . S
C451 C442 1.429 . S
C451 N448 1.350 . S
C451 C450 1.434 . S
C452 C453 1.369 . S
C452 C454 1.419 . S
C452 H456 0.930 . S
C453 C452 1.369 . S
C453 C462 1.429 1_545 S
C454 C452 1.419 . S
C454 C455 1.363 1_545 S
C454 H457 0.929 . S
C455 C454 1.363 1_565 S
C455 C461 1.428 . S
H456 C452 0.930 . S
H457 C454 0.929 . S
S458 N459 1.613 . S
S458 N460 1.610 . S
N459 S458 1.613 . S
N459 C462 1.350 . S
N460 S458 1.610 . S
N460 C461 1.351 . S
C461 C455 1.428 . S
C461 N460 1.351 . S
C461 C462 1.434 . S
C462 C453 1.429 1_565 S
C462 N459 1.350 . S
C462 C461 1.434 . S
C463 C464 1.369 . S
C463 C465 1.419 . S
C463 H467 0.930 . S
C464 C463 1.369 . S
C464 C473 1.429 1_554 S
C465 C463 1.419 . S
C465 C466 1.363 . S
C465 H468 0.929 . S
C466 C465 1.363 . S
C466 C472 1.428 1_554 S
H467 C463 0.930 . S
H468 C465 0.929 . S
S469 N470 1.613 . S
S469 N471 1.610 . S
N470 S469 1.613 . S
N470 C473 1.350 . S
N471 S469 1.610 . S
N471 C472 1.351 . S
C472 C466 1.428 1_556 S
C472 N471 1.351 . S
C472 C473 1.434 . S
C473 C464 1.429 1_556 S
C473 N470 1.350 . S
C473 C472 1.434 . S
C474 C475 1.369 . S
C474 C476 1.419 . S
C474 H478 0.930 . S
C475 C474 1.369 . S
C475 C484 1.429 . S
C476 C474 1.419 . S
C476 C477 1.363 . S
C476 H479 0.929 . S
C477 C476 1.363 . S
C477 C483 1.428 . S
H478 C474 0.930 . S
H479 C476 0.929 . S
S480 N481 1.613 . S
S480 N482 1.610 . S
N481 S480 1.613 . S
N481 C484 1.350 . S
N482 S480 1.610 . S
N482 C483 1.351 . S
C483 C477 1.428 . S
C483 N482 1.351 . S
C483 C484 1.434 . S
C484 C475 1.429 . S
C484 N481 1.350 . S
C484 C483 1.434 . S
C485 C486 1.369 . S
C485 C487 1.419 . S
C485 H489 0.930 . S
C486 C485 1.369 . S
C486 C495 1.429 . S
C487 C485 1.419 . S
C487 C488 1.363 . S
C487 H490 0.929 . S
C488 C487 1.363 . S
C488 C494 1.428 . S
H489 C485 0.930 . S
H490 C487 0.929 . S
S491 N492 1.613 . S
S491 N493 1.610 . S
N492 S491 1.613 . S
N492 C495 1.350 . S
N493 S491 1.610 . S
N493 C494 1.351 . S
C494 C488 1.428 . S
C494 N493 1.351 . S
C494 C495 1.434 . S
C495 C486 1.429 . S
C495 N492 1.350 . S
C495 C494 1.434 . S
C496 C497 1.369 . S
C496 C498 1.419 . S
C496 H500 0.930 . S
C497 C496 1.369 . S
C497 C506 1.429 . S
C498 C496 1.419 . S
C498 C499 1.363 . S
C498 H501 0.929 . S
C499 C498 1.363 . S
C499 C505 1.428 . S
H500 C496 0.930 . S
H501 C498 0.929 . S
S502 N503 1.613 . S
S502 N504 1.610 . S
N503 S502 1.613 . S
N503 C506 1.350 . S
N504 S502 1.610 . S
N504 C505 1.351 . S
C505 C499 1.428 . S
C505 N504 1.351 . S
C505 C506 1.434 . S
C506 C497 1.429 . S
C506 N503 1.350 . S
C506 C505 1.434 . S
C507 C508 1.369 . S
C507 C509 1.419 . S
C507 H511 0.930 . S
C508 C507 1.369 . S
C508 C517 1.429 . S
C509 C507 1.419 . S
C509 C510 1.363 . S
C509 H512 0.929 . S
C510 C509 1.363 . S
C510 C516 1.428 . S
H511 C507 0.930 . S
H512 C509 0.929 . S
S513 N514 1.613 . S
S513 N515 1.610 . S
N514 S513 1.613 . S
N514 C517 1.350 . S
N515 S513 1.610 . S
N515 C516 1.351 . S
C516 C510 1.428 . S
C516 N515 1.351 . S
C516 C517 1.434 . S
C517 C508 1.429 . S
C517 N514 1.350 . S
C517 C516 1.434 . S
C518 C519 1.369 . S
C518 C520 1.419 . S
C518 H522 0.930 . S
C519 C518 1.369 . S
C519 C528 1.429 . S
C520 C518 1.419 . S
C520 C521 1.363 . S
C520 H523 0.929 . S
C521 C520 1.363 . S
C521 C527 1.428 . S
H522 C518 0.930 . S
H523 C520 0.929 . S
S524 N525 1.613 . S
S524 N526 1.610 . S
N525 S524 1.613 . S
N525 C528 1.350 . S
N526 S524 1.610 . S
N526 C527 1.351 . S
C527 C521 1.428 . S
C527 N526 1.351 . S
C527 C528 1.434 . S
C528 C519 1.429 . S
C528 N525 1.350 . S
C528 C527 1.434 . S
C529 C530 1.369 . S
C529 C531 1.419 . S
C529 H533 0.930 . S
C530 C529 1.369 . S
C530 C539 1.429 . S
C531 C529 1.419 . S
C531 C532 1.363 . S
C531 H534 0.929 . S
C532 C531 1.363 . S
C532 C538 1.428 . S
H533 C529 0.930 . S
H534 C531 0.929 . S
S535 N536 1.613 . S
S535 N537 1.610 . S
N536 S535 1.613 . S
N536 C539 1.350 . S
N537 S535 1.610 . S
N537 C538 1.351 . S
C538 C532 1.428 . S
C538 N537 1.351 . S
C538 C539 1.434 . S
C539 C530 1.429 . S
C539 N536 1.350 . S
C539 C538 1.434 . S
C277 C7 1.912 . S
C279 C237 1.916 . S
C288 C30 1.487 . S
C290 N255 1.413 . S
C299 C145 1.491 . S
C301 N48 1.415 . S
C310 C76 1.915 . S
C312 C168 1.919 . S
C321 N186 1.416 . S
C323 C99 1.491 . S
C332 C214 1.490 . S
C334 N117 1.415 . S
C343 N140 1.047 . S
C345 N2 1.102 . S
C354 N163 1.105 . S
C356 N25 1.051 . S
C365 C191 1.679 . S
C367 C53 1.681 . S
C376 N71 1.105 . S
C378 N209 1.051 . S
C387 N94 1.042 . S
C389 N232 1.098 . S
C398 C122 1.682 . S
C400 C260 1.681 . S
C409 N12 2.503 . S
C411 N81 2.499 . S
C420 N35 2.329 . S
C422 N104 2.322 . S
C431 C62 2.427 . S
C433 C131 2.422 . S
C442 N219 2.321 . S
C444 N150 2.325 . S
C453 N242 2.505 . S
C455 N173 2.499 . S
C464 C269 2.420 . S
C466 C200 2.428 . S
C475 C16 2.125 . S
C477 N196 2.149 . S
C486 C223 1.821 . S
C488 C39 1.820 . S
C497 N58 2.150 . S
C499 C246 2.123 . S
C508 N265 2.150 . S
C510 C85 2.126 . S
C519 C108 1.820 . S
C521 C154 1.821 . S
C530 N127 2.150 . S
C532 C177 2.126 . S
