# Generated by pormake.
# Topology yfx, (5)-cn, num edge types: 1
# Building blocks:
#     Node 0, Type 0, BuildingBlock: XOMCOT_clean_sbu_1, # of connection points: 5
#     Node 1, Type 0, BuildingBlock: XOMCOT_clean_sbu_1, # of connection points: 5
#     Node 2, Type 0, BuildingBlock: XOMCOT_clean_sbu_1, # of connection points: 5
#     Node 3, Type 0, BuildingBlock: XOMCOT_clean_sbu_1, # of connection points: 5
#     Node 4, Type 0, BuildingBlock: XOMCOT_clean_sbu_1, # of connection points: 5
#     Node 5, Type 0, BuildingBlock: XOMCOT_clean_sbu_1, # of connection points: 5
#     Node 6, Type 0, BuildingBlock: XOMCOT_clean_sbu_1, # of connection points: 5
#     Node 7, Type 0, BuildingBlock: XOMCOT_clean_sbu_1, # of connection points: 5
#     Edge 8, Type (0, 0), BuildingBlock: XUDNAN_clean_linker_2, # of connection points: 2
#     Edge 9, Type (0, 0), BuildingBlock: XUDNAN_clean_linker_2, # of connection points: 2
#     Edge 10, Type (0, 0), BuildingBlock: XUDNAN_clean_linker_2, # of connection points: 2
#     Edge 11, Type (0, 0), BuildingBlock: XUDNAN_clean_linker_2, # of connection points: 2
#     Edge 12, Type (0, 0), BuildingBlock: XUDNAN_clean_linker_2, # of connection points: 2
#     Edge 13, Type (0, 0), BuildingBlock: XUDNAN_clean_linker_2, # of connection points: 2
#     Edge 14, Type (0, 0), BuildingBlock: XUDNAN_clean_linker_2, # of connection points: 2
#     Edge 15, Type (0, 0), BuildingBlock: XUDNAN_clean_linker_2, # of connection points: 2
#     Edge 16, Type (0, 0), BuildingBlock: XUDNAN_clean_linker_2, # of connection points: 2
#     Edge 17, Type (0, 0), BuildingBlock: XUDNAN_clean_linker_2, # of connection points: 2
#     Edge 18, Type (0, 0), BuildingBlock: XUDNAN_clean_linker_2, # of connection points: 2
#     Edge 19, Type (0, 0), BuildingBlock: XUDNAN_clean_linker_2, # of connection points: 2
#     Edge 20, Type (0, 0), BuildingBlock: XUDNAN_clean_linker_2, # of connection points: 2
#     Edge 21, Type (0, 0), BuildingBlock: XUDNAN_clean_linker_2, # of connection points: 2
#     Edge 22, Type (0, 0), BuildingBlock: XUDNAN_clean_linker_2, # of connection points: 2
#     Edge 23, Type (0, 0), BuildingBlock: XUDNAN_clean_linker_2, # of connection points: 2
#     Edge 24, Type (0, 0), BuildingBlock: XUDNAN_clean_linker_2, # of connection points: 2
#     Edge 25, Type (0, 0), BuildingBlock: XUDNAN_clean_linker_2, # of connection points: 2
#     Edge 26, Type (0, 0), BuildingBlock: XUDNAN_clean_linker_2, # of connection points: 2
#     Edge 27, Type (0, 0), BuildingBlock: XUDNAN_clean_linker_2, # of connection points: 2
# Relax obj value: 0.117
# Max RMSD: 0.118
# Mean RMSD: 0.118
data_MOF--net-yfx--node1-XOMCOT_clean_sbu_1--edge1-XUDNAN_clean_linker_2
_symmetry_space_group_name_H-M    P1
_symmetry_Int_Tables_number       1
_symmetry_cell_setting            triclinic
loop_
_symmetry_equiv_pos_as_xyz
'x, y, z'
_cell_length_a     35.876492
_cell_length_b     35.887437
_cell_length_c     27.97156
_cell_angle_alpha  90.002428
_cell_angle_beta   90.004739
_cell_angle_gamma 89.982107
loop_
_atom_site_label
_atom_site_type_symbol
_atom_site_fract_x
_atom_site_fract_y
_atom_site_fract_z
_atom_type_partial_charge
C0 C 0.29107 0.39581 0.98009 0.0
C1 C 0.32736 0.38373 0.98253 0.0
N2 N 0.33009 0.35904 1.01862 0.0
N3 N 0.27096 0.3788 1.01441 0.0
C4 C 0.29558 0.35661 0.03751 0.0
H5 H 0.27969 0.41456 0.9536 0.0
Co6 Co 0.21946 0.38276 1.01904 0.0
C7 C 0.19858 0.33309 0.10145 0.0
O8 O 0.16769 0.32236 0.08055 0.0
N9 N 0.16609 0.38776 0.02225 0.0
C10 C 0.10508 0.37814 1.01162 0.0
C11 C 0.14018 0.36408 1.00428 0.0
C12 C 0.14537 0.41655 0.03956 0.0
N13 N 0.10837 0.41124 0.03349 0.0
O14 O 0.226 0.42825 0.05329 0.0
H15 H 0.14592 0.33769 0.98725 0.0
H16 H 0.15681 0.44102 0.05659 0.0
O17 O 0.22076 0.35537 0.08003 0.0
C18 C 0.22644 0.45588 0.02471 0.0
O19 O 0.2172 0.45008 0.97984 0.0
N20 N 0.21581 0.34022 0.98067 0.0
C21 C 0.22791 0.29025 0.90571 0.0
C22 C 0.23258 0.27891 0.9535 0.0
C23 C 0.22683 0.30462 0.99074 0.0
C24 C 0.20962 0.351 0.93468 0.0
C25 C 0.21519 0.32649 0.8968 0.0
H26 H 0.23372 0.29664 0.02689 0.0
H27 H 0.20224 0.37966 0.92727 0.0
H28 H 0.28806 0.33726 0.06548 0.0
H29 H 0.3498 0.39167 0.95875 0.0
H30 H 0.07907 0.36533 1.00087 0.0
H31 H 0.24287 0.25128 0.96178 0.0
H32 H 0.21095 0.33633 0.86059 0.0
C33 C 0.63286 0.28296 0.97132 0.0
C34 C 0.64275 0.31979 0.97314 0.0
N35 N 0.65936 0.32661 1.01559 0.0
N36 N 0.64301 0.26622 1.01229 0.0
C37 C 0.65893 0.29345 0.03875 0.0
H38 H 0.62071 0.26879 0.94098 0.0
Co39 Co 0.63929 0.21502 0.02043 0.0
C40 C 0.69017 0.19971 0.10397 0.0
O41 O 0.70541 0.17097 0.0827 0.0
N42 N 0.63445 0.16187 0.02667 0.0
C43 C 0.64421 0.10104 1.01501 0.0
C44 C 0.66016 0.13574 1.01496 0.0
C45 C 0.60289 0.14159 0.03394 0.0
N46 N 0.60813 0.10472 0.02671 0.0
O47 O 0.59264 0.22256 0.0524 0.0
H48 H 0.6885 0.1413 1.00403 0.0
H49 H 0.57579 0.15353 0.04085 0.0
O50 O 0.66518 0.21884 0.08256 0.0
C51 C 0.56674 0.22552 0.02144 0.0
O52 O 0.57474 0.21787 0.97664 0.0
N53 N 0.683 0.21016 0.98407 0.0
C54 C 0.73374 0.22145 0.90968 0.0
C55 C 0.74299 0.23128 0.95688 0.0
C56 C 0.71688 0.22589 0.9937 0.0
C57 C 0.67448 0.19885 0.93887 0.0
C58 C 0.69947 0.20395 0.90132 0.0
H59 H 0.72273 0.23714 0.02872 0.0
H60 H 0.64693 0.1881 0.93134 0.0
H61 H 0.67111 0.28868 0.07347 0.0
H62 H 0.63952 0.3393 0.944 0.0
H63 H 0.65761 0.07525 1.00458 0.0
H64 H 0.76894 0.24547 0.96461 0.0
H65 H 0.69125 0.19588 0.86552 0.0
C66 C 0.74026 0.64182 0.9626 0.0
C67 C 0.70387 0.65356 0.96431 0.0
N68 N 0.69618 0.66412 1.00947 0.0
N69 N 0.75552 0.64499 1.00644 0.0
C70 C 0.72783 0.65827 0.03445 0.0
H71 H 0.75524 0.63322 0.93093 0.0
Co72 Co 0.80608 0.63797 1.01843 0.0
C73 C 0.81421 0.68637 0.10744 0.0
O74 O 0.84064 0.70784 0.0903 0.0
N75 N 0.85777 0.6299 0.02955 0.0
C76 C 0.91951 0.63542 0.03703 0.0
C77 C 0.88648 0.6543 0.02953 0.0
C78 C 0.87437 0.59643 0.0367 0.0
N79 N 0.91177 0.5989 0.04172 0.0
O80 O 0.79432 0.59084 0.04683 0.0
H81 H 0.88394 0.68393 0.02348 0.0
H82 H 0.85956 0.57029 0.03682 0.0
O83 O 0.80044 0.6604 0.08173 0.0
C84 C 0.78607 0.56595 1.0162 0.0
O85 O 0.78998 0.57362 0.97055 0.0
N86 N 0.81519 0.68339 0.98631 0.0
C87 C 0.79661 0.73306 0.91295 0.0
C88 C 0.78653 0.74048 0.96056 0.0
C89 C 0.79588 0.71521 0.99674 0.0
C90 C 0.82904 0.67802 0.94138 0.0
C91 C 0.82019 0.70262 0.90411 0.0
H92 H 0.78297 0.71885 0.03124 0.0
H93 H 0.84289 0.65206 0.93292 0.0
H94 H 0.73132 0.66579 0.07162 0.0
H95 H 0.68489 0.65523 0.93431 0.0
H96 H 0.94701 0.64772 0.03892 0.0
H97 H 0.76853 0.76378 0.96913 0.0
H98 H 0.82839 0.69555 0.86797 0.0
C99 C 0.38024 0.74028 0.98291 0.0
C100 C 0.36856 0.70392 0.98011 0.0
N101 N 0.35794 0.69285 0.02408 0.0
N102 N 0.37691 0.75221 0.02838 0.0
C103 C 0.36391 0.72244 0.05289 0.0
H104 H 0.3886 0.75766 0.9532 0.0
Co105 Co 0.38334 0.80193 0.04595 0.0
C106 C 0.33093 0.79945 0.1316 0.0
O107 O 0.30581 0.82152 0.11242 0.0
N108 N 0.39174 0.85244 0.0622 0.0
C109 C 0.39628 0.90926 0.09396 0.0
C110 C 0.37832 0.87531 0.09649 0.0
C111 C 0.41776 0.87328 0.03962 0.0
N112 N 0.42126 0.90796 0.05804 0.0
O113 O 0.43091 0.78929 0.07196 0.0
H114 H 0.35756 0.86812 0.12267 0.0
H115 H 0.43439 0.8627 1.01052 0.0
O116 O 0.36079 0.79169 0.10868 0.0
C117 C 0.45566 0.78679 0.03949 0.0
O118 O 0.44615 0.79474 0.99527 0.0
N119 N 0.33748 0.81343 1.01541 0.0
C120 C 0.28673 0.8097 0.93973 0.0
C121 C 0.28196 0.78745 0.98037 0.0
C122 C 0.3074 0.79002 1.01812 0.0
C123 C 0.34075 0.83724 0.97756 0.0
C124 C 0.31534 0.83622 0.93965 0.0
H125 H 0.3051 0.77005 0.04681 0.0
H126 H 0.36529 0.85436 0.97379 0.0
H127 H 0.35617 0.72321 0.09025 0.0
H128 H 0.36667 0.6874 0.94782 0.0
H129 H 0.39131 0.93288 0.11712 0.0
H130 H 0.26018 0.76657 0.98163 0.0
H131 H 0.32016 0.85356 0.90856 0.0
C132 C 0.78409 0.88018 0.47026 0.0
C133 C 0.82049 0.86849 0.472 0.0
N134 N 0.82687 0.85395 0.51563 0.0
N135 N 0.76756 0.87286 0.51247 0.0
C136 C 0.79445 0.85719 0.53964 0.0
H137 H 0.77011 0.89211 0.43961 0.0
Co138 Co 0.71717 0.88029 0.52311 0.0
C139 C 0.6994 0.83175 0.6076 0.0
O140 O 0.66806 0.82076 0.58807 0.0
N141 N 0.66481 0.88922 0.53234 0.0
C142 C 0.6027 0.88684 0.52641 0.0
C143 C 0.6355 0.86785 0.51898 0.0
C144 C 0.6485 0.92117 0.54787 0.0
N145 N 0.61087 0.92067 0.54427 0.0
O146 O 0.72933 0.926 0.55435 0.0
H147 H 0.63744 0.84022 0.50384 0.0
H148 H 0.66387 0.94526 0.55967 0.0
O149 O 0.72086 0.85403 0.58497 0.0
C150 C 0.73186 0.95183 0.52325 0.0
O151 O 0.7222 0.94417 0.47899 0.0
N152 N 0.708 0.83714 0.4872 0.0
C153 C 0.71927 0.78748 0.41169 0.0
C154 C 0.72759 0.77695 0.45891 0.0
C155 C 0.72222 0.80252 0.49635 0.0
C156 C 0.69748 0.84669 0.44201 0.0
C157 C 0.70274 0.8223 0.40383 0.0
H158 H 0.73287 0.79576 0.53141 0.0
H159 H 0.68805 0.87478 0.43489 0.0
H160 H 0.79006 0.84672 0.5754 0.0
H161 H 0.84054 0.86993 0.44313 0.0
H162 H 0.57507 0.87655 0.51838 0.0
H163 H 0.74093 0.75049 0.46627 0.0
H164 H 0.69589 0.83146 0.36798 0.0
C165 C 0.13922 0.77755 0.47894 0.0
C166 C 0.1531 0.81306 0.47305 0.0
N167 N 0.17193 0.82241 0.51296 0.0
N168 N 0.14937 0.76461 0.52226 0.0
C169 C 0.16928 0.79259 0.54204 0.0
H170 H 0.12333 0.76185 0.45299 0.0
Co171 Co 0.13961 0.71692 0.54537 0.0
C172 C 0.18742 0.7145 0.63503 0.0
O173 O 0.20029 0.68081 0.62687 0.0
N174 N 0.12804 0.66863 0.56831 0.0
C175 C 0.1016 0.62669 0.6164 0.0
C176 C 0.11885 0.66077 0.61411 0.0
C177 C 0.1153 0.63877 0.54337 0.0
N178 N 0.09909 0.61294 0.57183 0.0
O179 O 0.0942 0.73441 0.57196 0.0
H180 H 0.12098 0.68005 0.64365 0.0
H181 H 0.1142 0.63753 0.50484 0.0
O182 O 0.16491 0.72954 0.60533 0.0
C183 C 0.06743 0.73034 0.54265 0.0
O184 O 0.07417 0.7137 0.50168 0.0
N185 N 0.18308 0.70069 0.51418 0.0
C186 C 0.23367 0.70558 0.43837 0.0
C187 C 0.24407 0.71667 0.48463 0.0
C188 C 0.21813 0.7144 0.52215 0.0
C189 C 0.17387 0.68701 0.47029 0.0
C190 C 0.19876 0.68888 0.4321 0.0
H191 H 0.22498 0.72791 0.55542 0.0
H192 H 0.14537 0.67948 0.46277 0.0
H193 H 0.18306 0.79078 0.57624 0.0
H194 H 0.14959 0.83057 0.44187 0.0
H195 H 0.08967 0.61409 0.64807 0.0
H196 H 0.27055 0.73035 0.49076 0.0
H197 H 0.18952 0.68017 0.39695 0.0
C198 C 0.24188 0.12738 0.4566 0.0
C199 C 0.20478 0.13686 0.45641 0.0
N200 N 0.19645 0.15241 0.49893 0.0
N201 N 0.25692 0.13693 0.49899 0.0
C202 C 0.22841 0.15168 0.52433 0.0
H203 H 0.25745 0.11633 0.4267 0.0
Co204 Co 0.30789 0.13629 0.51088 0.0
C205 C 0.31255 0.18481 0.59931 0.0
O206 O 0.33767 0.20715 0.58086 0.0
N207 N 0.36032 0.13485 0.52193 0.0
C208 C 0.42048 0.14995 0.52859 0.0
C209 C 0.38526 0.16306 0.51895 0.0
C210 C 0.38164 0.10468 0.53256 0.0
N211 N 0.41816 0.11316 0.53696 0.0
O212 O 0.30204 0.08801 0.53843 0.0
H213 H 0.37869 0.19152 0.5096 0.0
H214 H 0.37091 0.07682 0.53726 0.0
O215 O 0.29967 0.15777 0.57459 0.0
C216 C 0.30093 0.06184 0.50769 0.0
O217 O 0.30899 0.0697 0.46299 0.0
N218 N 0.31115 0.18252 0.47911 0.0
C219 C 0.29042 0.23293 0.40767 0.0
C220 C 0.27919 0.23833 0.45529 0.0
C221 C 0.28967 0.2127 0.4905 0.0
C222 C 0.32523 0.17884 0.43405 0.0
C223 C 0.31547 0.20391 0.39782 0.0
H224 H 0.27671 0.21492 0.52516 0.0
H225 H 0.34079 0.15403 0.42484 0.0
H226 H 0.23153 0.16444 0.55914 0.0
H227 H 0.18581 0.134 0.42654 0.0
H228 H 0.44599 0.16606 0.52819 0.0
H229 H 0.25993 0.26044 0.46453 0.0
H230 H 0.32447 0.19834 0.36156 0.0
C231 C 0.88353 0.23419 0.45863 0.0
C232 C 0.8715 0.19791 0.45974 0.0
N233 N 0.85957 0.19027 0.50434 0.0
N234 N 0.87917 0.24946 0.50227 0.0
C235 C 0.86494 0.22184 0.52965 0.0
H236 H 0.893 0.24916 0.42737 0.0
Co237 Co 0.88593 0.30007 0.51357 0.0
C238 C 0.83781 0.30756 0.60306 0.0
O239 O 0.81467 0.33179 0.58429 0.0
N240 N 0.89394 0.35191 0.52353 0.0
C241 C 0.88743 0.41343 0.53267 0.0
C242 C 0.86896 0.37986 0.52883 0.0
C243 C 0.92733 0.36966 0.5229 0.0
N244 N 0.92417 0.40686 0.52863 0.0
O245 O 0.93386 0.28883 0.53983 0.0
H246 H 0.83909 0.37668 0.52746 0.0
H247 H 0.95376 0.35592 0.51774 0.0
O248 O 0.86482 0.29465 0.57822 0.0
C249 C 0.95846 0.28346 0.50772 0.0
O250 O 0.94962 0.29045 0.46301 0.0
N251 N 0.83973 0.30879 0.48312 0.0
C252 C 0.78839 0.29164 0.41112 0.0
C253 C 0.78227 0.28026 0.45852 0.0
C254 C 0.80842 0.28876 0.49392 0.0
C255 C 0.84385 0.32381 0.43861 0.0
C256 C 0.81841 0.31568 0.40202 0.0
H257 H 0.80578 0.27484 0.52791 0.0
H258 H 0.86941 0.3382 0.42969 0.0
H259 H 0.85617 0.22544 0.56637 0.0
H260 H 0.8704 0.17901 0.42962 0.0
H261 H 0.87475 0.44069 0.53591 0.0
H262 H 0.75932 0.26189 0.46731 0.0
H263 H 0.8245 0.32486 0.36597 0.0
H264 H 0.51468 0.24957 0.95848 0.0
H265 H 0.53533 0.23782 0.11055 0.0
H266 H 0.47429 0.26788 0.12741 0.0
H267 H 0.4767 0.33913 0.96449 0.0
H268 H 0.44342 0.33151 0.91722 0.0
H269 H 0.48646 0.3058 0.91792 0.0
H270 H 0.44974 0.24358 0.91558 0.0
H271 H 0.40651 0.26912 0.9146 0.0
H272 H 0.41462 0.23458 0.96021 0.0
H273 H 0.4103 0.30123 0.12612 0.0
H274 H 0.35321 0.33763 0.10699 0.0
H275 H 0.37888 0.32932 0.95611 0.0
C276 C 0.50627 0.25262 0.99546 0.0
C277 C 0.52958 0.24094 0.03324 0.0
C278 C 0.51772 0.24632 0.08105 0.0
C279 C 0.48312 0.26331 0.09089 0.0
C280 C 0.46102 0.27492 0.0525 0.0
C281 C 0.47241 0.26985 1.00576 0.0
C282 C 0.44534 0.28683 0.97061 0.0
C283 C 0.46411 0.31764 0.94083 0.0
C284 C 0.42803 0.25673 0.93836 0.0
C285 C 0.41692 0.30276 1.00469 0.0
C286 C 0.4259 0.29523 0.05181 0.0
C287 C 0.4032 0.30728 0.08933 0.0
C288 C 0.37087 0.32782 0.07823 0.0
C289 C 0.3621 0.33662 0.03016 0.0
C290 C 0.38533 0.32355 0.99318 0.0
H291 H 0.65343 0.39451 0.97244 0.0
H292 H 0.70709 0.33782 0.09134 0.0
H293 H 0.74172 0.39527 0.10994 0.0
H294 H 0.73328 0.43877 0.93182 0.0
H295 H 0.70953 0.48059 0.91319 0.0
H296 H 0.68501 0.43691 0.91403 0.0
H297 H 0.63459 0.4655 0.96945 0.0
H298 H 0.65892 0.50941 0.96869 0.0
H299 H 0.64839 0.48716 0.02485 0.0
H300 H 0.77395 0.4595 0.11197 0.0
H301 H 0.80196 0.52138 0.09382 0.0
H302 H 0.73026 0.53129 0.96985 0.0
C303 C 0.67224 0.39368 1.00255 0.0
C304 C 0.67736 0.36098 0.02995 0.0
C305 C 0.70215 0.36221 0.06959 0.0
C306 C 0.72212 0.39487 0.08053 0.0
C307 C 0.71712 0.42611 0.05157 0.0
C308 C 0.69273 0.42557 1.01336 0.0
C309 C 0.6943 0.46132 0.98498 0.0
C310 C 0.70626 0.45394 0.93295 0.0
C311 C 0.65682 0.48207 0.98715 0.0
C312 C 0.7241 0.48187 1.01238 0.0
C313 C 0.7365 0.46169 0.05137 0.0
C314 C 0.76432 0.47548 0.08157 0.0
C315 C 0.78003 0.51054 0.07113 0.0
C316 C 0.76839 0.53063 0.03027 0.0
C317 C 0.7399 0.51619 1.00105 0.0
H318 H 0.65172 0.70956 0.95771 0.0
H319 H 0.66547 0.66058 0.09822 0.0
H320 H 0.60702 0.69116 0.12493 0.0
H321 H 0.61306 0.79791 0.99738 0.0
H322 H 0.58165 0.80093 0.94724 0.0
H323 H 0.62555 0.77704 0.94098 0.0
H324 H 0.59102 0.71759 0.91243 0.0
H325 H 0.5471 0.74131 0.91835 0.0
H326 H 0.55479 0.69793 0.94929 0.0
H327 H 0.54384 0.72407 0.13348 0.0
H328 H 0.48282 0.75559 0.12282 0.0
H329 H 0.51317 0.78283 0.97677 0.0
C330 C 0.64243 0.70512 0.99407 0.0
C331 C 0.66285 0.68243 0.0258 0.0
C332 C 0.65019 0.67799 0.07343 0.0
C333 C 0.61708 0.69522 0.08884 0.0
C334 C 0.59736 0.71714 0.05629 0.0
C335 C 0.60982 0.72222 1.00997 0.0
C336 C 0.58334 0.74598 0.98121 0.0
C337 C 0.60202 0.78264 0.96581 0.0
C338 C 0.56816 0.7244 0.93778 0.0
C339 C 0.55337 0.75274 1.01809 0.0
C340 C 0.56188 0.73624 0.06137 0.0
C341 C 0.53713 0.73744 0.09989 0.0
C342 C 0.5026 0.75543 0.09358 0.0
C343 C 0.49327 0.7717 0.04903 0.0
C344 C 0.51943 0.77082 1.01137 0.0
H345 H 0.2325 0.51748 0.96881 0.0
H346 H 0.25675 0.47657 0.11145 0.0
H347 H 0.29033 0.53532 0.12933 0.0
H348 H 0.31913 0.5562 0.94775 0.0
H349 H 0.30211 0.59563 0.91431 0.0
H350 H 0.27585 0.55296 0.91526 0.0
H351 H 0.21776 0.58841 0.94652 0.0
H352 H 0.24374 0.63134 0.94495 0.0
H353 H 0.22157 0.61663 0.99961 0.0
H354 H 0.32591 0.59721 0.12839 0.0
H355 H 0.35929 0.65581 0.10888 0.0
H356 H 0.31203 0.65346 0.96628 0.0
C357 C 0.24411 0.52105 1.00426 0.0
C358 C 0.24184 0.4925 0.03885 0.0
C359 C 0.25788 0.49823 0.08453 0.0
C360 C 0.27705 0.53146 0.09494 0.0
C361 C 0.27976 0.55858 0.0593 0.0
C362 C 0.26341 0.55371 1.01499 0.0
C363 C 0.27232 0.58553 0.98151 0.0
C364 C 0.29362 0.57174 0.93711 0.0
C365 C 0.23673 0.60673 0.96734 0.0
C366 C 0.29694 0.60883 1.01344 0.0
C367 C 0.30067 0.59323 0.05837 0.0
C368 C 0.32292 0.60973 0.0934 0.0
C369 C 0.34175 0.64295 0.08207 0.0
C370 C 0.33856 0.65895 0.03595 0.0
C371 C 0.31562 0.64161 1.00155 0.0
H372 H 0.01161 0.73872 0.47812 0.0
H373 H 0.04012 0.76061 0.62625 0.0
H374 H 0.97907 0.79191 0.63753 0.0
H375 H 0.97032 0.82515 0.45578 0.0
H376 H 0.93485 0.80697 0.41655 0.0
H377 H 0.97879 0.7832 0.422 0.0
H378 H 0.94448 0.7223 0.44555 0.0
H379 H 0.90035 0.74585 0.43988 0.0
H380 H 0.91226 0.72273 0.49501 0.0
H381 H 0.9149 0.82289 0.6307 0.0
H382 H 0.85592 0.85322 0.60532 0.0
H383 H 0.87282 0.81228 0.46121 0.0
C384 C 1.00491 0.74951 0.51325 0.0
C385 C 0.03044 0.747 0.55145 0.0
C386 C 0.0208 0.76212 0.59655 0.0
C387 C 0.98622 0.77984 0.60328 0.0
C388 C 0.96187 0.78226 0.56446 0.0
C389 C 0.97097 0.76752 0.52033 0.0
C390 C 0.94142 0.7757 0.48334 0.0
C391 C 0.9573 0.79915 0.44201 0.0
C392 C 0.92357 0.73949 0.46488 0.0
C393 C 0.91438 0.79789 0.51324 0.0
C394 C 0.92619 0.80101 0.56012 0.0
C395 C 0.90546 0.82057 0.59408 0.0
C396 C 0.87206 0.83762 0.57945 0.0
C397 C 0.86022 0.83541 0.53123 0.0
C398 C 0.88158 0.81497 0.49808 0.0
H399 H 0.28358 1.00563 0.44603 0.0
H400 H 0.28336 0.0344 0.59676 0.0
H401 H 0.2524 0.97442 0.61513 0.0
H402 H 0.19431 0.96646 0.44378 0.0
H403 H 0.20568 0.93023 0.40159 0.0
H404 H 0.23117 0.97341 0.40091 0.0
H405 H 0.29334 0.93741 0.41086 0.0
H406 H 0.26807 0.89404 0.41104 0.0
H407 H 0.29873 0.90534 0.45999 0.0
H408 H 0.21819 0.91267 0.61599 0.0
H409 H 0.18371 0.85448 0.59955 0.0
H410 H 0.20547 0.86758 0.44794 0.0
C411 C 0.27773 0.99911 0.48307 0.0
C412 C 0.28615 0.02459 0.52005 0.0
C413 C 0.27738 0.01518 0.56791 0.0
C414 C 0.25978 0.98122 0.57865 0.0
C415 C 0.25113 0.95711 0.5411 0.0
C416 C 0.25995 0.96563 0.49429 0.0
C417 C 0.24588 0.93612 0.4601 0.0
C418 C 0.21758 0.95255 0.42451 0.0
C419 C 0.27845 0.9171 0.43397 0.0
C420 C 0.22727 0.90979 0.49487 0.0
C421 C 0.23086 0.92216 0.54146 0.0
C422 C 0.21547 0.90261 0.57968 0.0
C423 C 0.19602 0.86954 0.56999 0.0
C424 C 0.19188 0.85647 0.52244 0.0
C425 C 0.20779 0.87701 0.48456 0.0
H426 H 0.15115 0.19011 0.43865 0.0
H427 H 0.1657 0.15915 0.58724 0.0
H428 H 0.10752 0.19291 0.60798 0.0
H429 H 0.11473 0.28232 0.46049 0.0
H430 H 0.08278 0.2802 0.41084 0.0
H431 H 0.12591 0.25453 0.40875 0.0
H432 H 0.08937 0.19339 0.39301 0.0
H433 H 0.0462 0.21888 0.39476 0.0
H434 H 0.05305 0.17956 0.43387 0.0
H435 H 0.0453 0.2279 0.61074 0.0
H436 H 0.98554 0.26052 0.59526 0.0
H437 H 0.01441 0.26874 0.44495 0.0
C438 C 0.14197 0.19011 0.4755 0.0
C439 C 0.16262 0.17168 0.51131 0.0
C440 C 0.15018 0.17316 0.55934 0.0
C441 C 0.11724 0.19223 0.57137 0.0
C442 C 0.09744 0.21 0.53499 0.0
C443 C 0.10954 0.20918 0.48807 0.0
C444 C 0.08334 0.22999 0.45534 0.0
C445 C 0.10286 0.26376 0.43253 0.0
C446 C 0.06702 0.20389 0.41701 0.0
C447 C 0.05402 0.24203 0.49089 0.0
C448 C 0.06256 0.23051 0.53674 0.0
C449 C 0.03853 0.23733 0.57502 0.0
C450 C 1.00471 0.2559 0.56594 0.0
C451 C 0.99536 0.26729 0.51896 0.0
C452 C 0.02074 0.26065 0.48135 0.0
H453 H 0.81356 0.14814 0.45047 0.0
H454 H 0.86115 0.15798 0.59225 0.0
H455 H 0.82915 0.09955 0.61636 0.0
H456 H 0.7239 0.11035 0.48731 0.0
H457 H 0.72087 0.08023 0.4359 0.0
H458 H 0.74559 0.1238 0.4318 0.0
H459 H 0.80471 0.08886 0.40286 0.0
H460 H 0.78019 0.04528 0.40668 0.0
H461 H 0.82339 0.05146 0.43862 0.0
H462 H 0.79526 0.03651 0.62176 0.0
H463 H 0.76288 0.97633 0.60808 0.0
H464 H 0.73753 0.01077 0.46298 0.0
C465 C 0.81735 0.138 0.48658 0.0
C466 C 0.84013 0.15724 0.51939 0.0
C467 C 0.84371 0.14356 0.56666 0.0
C468 C 0.82568 0.11046 0.58057 0.0
C469 C 0.80378 0.09185 0.54692 0.0
C470 C 0.79941 0.10545 0.501 0.0
C471 C 0.77549 0.08009 0.47084 0.0
C472 C 0.73932 0.0998 0.45558 0.0
C473 C 0.79726 0.06556 0.4272 0.0
C474 C 0.76783 0.04941 0.50642 0.0
C475 C 0.78403 0.05659 0.55028 0.0
C476 C 0.7821 0.03088 0.58771 0.0
C477 C 0.76364 0.99682 0.57968 0.0
C478 C 0.74759 0.98889 0.53455 0.0
C479 C 0.74926 0.01596 0.49802 0.0
H480 H 0.32083 0.26272 0.32474 0.0
H481 H 0.216 0.24625 0.39939 0.0
H482 H 0.18207 0.27246 0.33078 0.0
H483 H 0.29386 0.3511 0.26572 0.0
H484 H 0.31826 0.33995 0.21122 0.0
H485 H 0.33491 0.32214 0.26756 0.0
H486 H 0.3319 0.25498 0.23388 0.0
H487 H 0.31505 0.27267 0.17765 0.0
H488 H 0.28865 0.23787 0.20948 0.0
H489 H 0.15873 0.29404 0.25185 0.0
H490 H 0.14756 0.31553 0.16937 0.0
H491 H 0.2669 0.32176 0.14537 0.0
C492 C 0.29079 0.2652 0.32684 0.0
C493 C 0.27118 0.25285 0.36788 0.0
C494 C 0.23181 0.2563 0.36902 0.0
C495 C 0.21219 0.27088 0.32998 0.0
C496 C 0.23223 0.28231 0.28996 0.0
C497 C 0.27067 0.28022 0.2882 0.0
C498 C 0.28513 0.29399 0.24022 0.0
C499 C 0.30948 0.32888 0.24658 0.0
C500 C 0.30643 0.26302 0.21376 0.0
C501 C 0.24874 0.30332 0.21511 0.0
C502 C 0.21864 0.29612 0.24452 0.0
C503 C 0.18207 0.30032 0.22872 0.0
C504 C 0.17601 0.31236 0.1817 0.0
C505 C 0.2063 0.32057 0.151 0.0
C506 C 0.24319 0.31622 0.16817 0.0
H507 H 0.70225 0.2684 0.14663 0.0
H508 H 0.70325 0.14943 0.17381 0.0
H509 H 0.72343 0.16098 0.25678 0.0
H510 H 0.78534 0.28746 0.21178 0.0
H511 H 0.7701 0.3318 0.23491 0.0
H512 H 0.75188 0.31491 0.17897 0.0
H513 H 0.6847 0.32141 0.2113 0.0
H514 H 0.70261 0.33837 0.26745 0.0
H515 H 0.67201 0.29855 0.26635 0.0
H516 H 0.74515 0.18437 0.33519 0.0
H517 H 0.77229 0.21781 0.40339 0.0
H518 H 0.76103 0.32244 0.32665 0.0
C519 C 0.70608 0.24494 0.17041 0.0
C520 C 0.70072 0.20798 0.15405 0.0
C521 C 0.70708 0.1779 0.18572 0.0
C522 C 0.71838 0.1842 0.23296 0.0
C523 C 0.72377 0.2208 0.24799 0.0
C524 C 0.71824 0.25073 0.2177 0.0
C525 C 0.729 0.28702 0.24222 0.0
C526 C 0.76099 0.30643 0.21536 0.0
C527 C 0.69505 0.31286 0.24712 0.0
C528 C 0.74173 0.27265 0.29074 0.0
C529 C 0.7378 0.2344 0.2933 0.0
C530 C 0.74805 0.21437 0.33382 0.0
C531 C 0.76319 0.23376 0.37266 0.0
C532 C 0.7683 0.27294 0.37096 0.0
C533 C 0.75724 0.29258 0.32928 0.0
H534 H 0.8173 0.75136 0.15932 0.0
H535 H 0.77434 0.63844 0.16395 0.0
H536 H 0.74691 0.65092 0.24351 0.0
H537 H 0.83933 0.76068 0.28497 0.0
H538 H 0.82425 0.80854 0.28805 0.0
H539 H 0.84204 0.78999 0.23273 0.0
H540 H 0.78124 0.8097 0.18952 0.0
H541 H 0.76327 0.82827 0.2447 0.0
H542 H 0.73697 0.79379 0.21217 0.0
H543 H 0.72479 0.676 0.32414 0.0
H544 H 0.70592 0.71307 0.39514 0.0
H545 H 0.76031 0.81012 0.33489 0.0
C546 C 0.80245 0.72912 0.17726 0.0
C547 C 0.79833 0.69377 0.15559 0.0
C548 C 0.778 0.6657 0.17991 0.0
C549 C 0.76238 0.6725 0.22518 0.0
C550 C 0.76689 0.7077 0.24553 0.0
C551 C 0.78615 0.73564 0.22208 0.0
C552 C 0.78549 0.77157 0.25051 0.0
C553 C 0.82514 0.78338 0.26492 0.0
C554 C 0.76555 0.80266 0.22256 0.0
C555 C 0.76296 0.75952 0.29365 0.0
C556 C 0.7528 0.72248 0.2905 0.0
C557 C 0.73243 0.7051 0.32677 0.0
C558 C 0.72191 0.72625 0.36699 0.0
C559 C 0.73125 0.76448 0.37018 0.0
C560 C 0.75224 0.78107 0.33304 0.0
H561 H 0.26523 0.79716 0.18164 0.0
H562 H 0.38142 0.76422 0.19017 0.0
H563 H 0.36998 0.73692 0.27011 0.0
H564 H 0.25293 0.8212 0.30552 0.0
H565 H 0.20627 0.80274 0.30845 0.0
H566 H 0.22412 0.82041 0.25271 0.0
H567 H 0.20944 0.75723 0.21188 0.0
H568 H 0.19162 0.73936 0.26751 0.0
H569 H 0.22833 0.71488 0.23668 0.0
H570 H 0.34535 0.71434 0.35121 0.0
H571 H 0.30897 0.69553 0.42286 0.0
H572 H 0.20906 0.74121 0.35833 0.0
C573 C 0.28838 0.78441 0.20036 0.0
C574 C 0.32432 0.78313 0.1797 0.0
C575 C 0.35366 0.76567 0.20526 0.0
C576 C 0.34743 0.75012 0.25075 0.0
C577 C 0.31162 0.7519 0.27009 0.0
C578 C 0.28256 0.76841 0.24544 0.0
C579 C 0.24645 0.76585 0.27325 0.0
C580 C 0.23158 0.80487 0.28572 0.0
C581 C 0.21725 0.74296 0.24568 0.0
C582 C 0.25964 0.74542 0.31748 0.0
C583 C 0.29736 0.73782 0.31537 0.0
C584 C 0.31574 0.71992 0.35298 0.0
C585 C 0.29496 0.7094 0.39354 0.0
C586 C 0.25614 0.71632 0.3958 0.0
C587 C 0.23854 0.73474 0.35721 0.0
H588 H 0.76867 0.81741 0.64795 0.0
H589 H 0.65016 0.81777 0.67877 0.0
H590 H 0.66304 0.79666 0.761 0.0
H591 H 0.78818 0.73345 0.71288 0.0
H592 H 0.8331 0.74849 0.73437 0.0
H593 H 0.81519 0.76646 0.6788 0.0
H594 H 0.82293 0.83376 0.71019 0.0
H595 H 0.84082 0.8161 0.76599 0.0
H596 H 0.80121 0.84702 0.76578 0.0
H597 H 0.68785 0.77508 0.83908 0.0
H598 H 0.72262 0.74896 0.90697 0.0
H599 H 0.82575 0.75886 0.82667 0.0
C600 C 0.74555 0.81349 0.67225 0.0
C601 C 0.70836 0.81961 0.65704 0.0
C602 C 0.67881 0.81329 0.68958 0.0
C603 C 0.68586 0.80146 0.73647 0.0
C604 C 0.72267 0.79552 0.75035 0.0
C605 C 0.75208 0.80086 0.71919 0.0
C606 C 0.78877 0.78997 0.74269 0.0
C607 C 0.8074 0.75767 0.71557 0.0
C608 C 0.81498 0.82373 0.74638 0.0
C609 C 0.77527 0.77765 0.7918 0.0
C610 C 0.73706 0.78165 0.79541 0.0
C611 C 0.71781 0.77203 0.83681 0.0
C612 C 0.73795 0.75749 0.87545 0.0
C613 C 0.7771 0.75234 0.8727 0.0
C614 C 0.79593 0.76268 0.8301 0.0
H615 H 0.2278 0.68866 0.71224 0.0
H616 H 0.17015 0.78662 0.65887 0.0
H617 H 0.18796 0.82114 0.73139 0.0
H618 H 0.20059 0.70104 0.83607 0.0
H619 H 0.24445 0.68468 0.85952 0.0
H620 H 0.22774 0.66759 0.80287 0.0
H621 H 0.28919 0.68857 0.76231 0.0
H622 H 0.30608 0.70556 0.81887 0.0
H623 H 0.30414 0.73632 0.76799 0.0
H624 H 0.21462 0.84626 0.80842 0.0
H625 H 0.24575 0.85865 0.886 0.0
H626 H 0.28206 0.74356 0.89206 0.0
C627 C 0.21895 0.71738 0.71572 0.0
C628 C 0.19802 0.73499 0.67924 0.0
C629 C 0.18667 0.77253 0.6857 0.0
C630 C 0.19651 0.79242 0.727 0.0
C631 C 0.21722 0.7743 0.76212 0.0
C632 C 0.22804 0.73752 0.75715 0.0
C633 C 0.24979 0.7245 0.80057 0.0
C634 C 0.22941 0.69256 0.82627 0.0
C635 C 0.28966 0.71307 0.78658 0.0
C636 C 0.24972 0.75976 0.83047 0.0
C637 C 0.231 0.78826 0.80752 0.0
C638 C 0.22891 0.82401 0.82703 0.0
C639 C 0.24659 0.83083 0.87101 0.0
C640 C 0.26556 0.80191 0.89528 0.0
C641 C 0.26687 0.76591 0.87478 0.0
H642 H 0.32001 0.24883 0.65186 0.0
H643 H 0.27038 0.13865 0.6562 0.0
H644 H 0.24524 0.1521 0.73685 0.0
H645 H 0.3455 0.25511 0.77638 0.0
H646 H 0.33378 0.30384 0.78071 0.0
H647 H 0.34903 0.2847 0.72449 0.0
H648 H 0.28875 0.30886 0.6838 0.0
H649 H 0.27336 0.32811 0.73986 0.0
H650 H 0.24403 0.29581 0.70794 0.0
H651 H 0.22569 0.17837 0.81851 0.0
H652 H 0.20996 0.21656 0.8898 0.0
H653 H 0.27091 0.30952 0.82921 0.0
C654 C 0.30412 0.22734 0.66983 0.0
C655 C 0.29746 0.19253 0.64779 0.0
C656 C 0.27596 0.16549 0.67239 0.0
C657 C 0.26165 0.17285 0.71829 0.0
C658 C 0.26879 0.2075 0.73899 0.0
C659 C 0.2893 0.23437 0.71527 0.0
C660 C 0.29177 0.26997 0.74413 0.0
C661 C 0.33244 0.27891 0.7572 0.0
C662 C 0.27338 0.3026 0.71733 0.0
C663 C 0.26947 0.25905 0.78785 0.0
C664 C 0.25667 0.22283 0.78465 0.0
C665 C 0.23552 0.2068 0.82122 0.0
C666 C 0.22683 0.22857 0.86165 0.0
C667 C 0.23888 0.26606 0.86481 0.0
C668 C 0.26082 0.28111 0.82752 0.0
H669 H 0.71162 0.25767 0.82888 0.0
H670 H 0.80931 0.21092 0.89754 0.0
H671 H 0.84744 0.22797 0.82667 0.0
H672 H 0.73232 0.22845 0.70978 0.0
H673 H 0.71462 0.27043 0.68263 0.0
H674 H 0.69574 0.25452 0.73867 0.0
H675 H 0.71105 0.31836 0.7773 0.0
H676 H 0.72994 0.33449 0.72136 0.0
H677 H 0.75807 0.33597 0.77474 0.0
H678 H 0.87376 0.24758 0.74486 0.0
H679 H 0.88676 0.27223 0.66373 0.0
H680 H 0.77183 0.30864 0.65209 0.0
C681 C 0.74103 0.25086 0.82896 0.0
C682 C 0.75749 0.23257 0.86844 0.0
C683 C 0.79619 0.22487 0.86761 0.0
C684 C 0.81797 0.23434 0.82746 0.0
C685 C 0.80067 0.25198 0.78881 0.0
C686 C 0.76311 0.26051 0.78965 0.0
C687 C 0.75107 0.28008 0.74425 0.0
C688 C 0.72171 0.25698 0.71725 0.0
C689 C 0.7367 0.31957 0.75508 0.0
C690 C 0.78765 0.28115 0.71736 0.0
C691 C 0.81594 0.26452 0.74329 0.0
C692 C 0.85185 0.261 0.72458 0.0
C693 C 0.85897 0.275 0.67844 0.0
C694 C 0.83046 0.29276 0.65176 0.0
C695 C 0.79442 0.29579 0.67178 0.0
H696 H 0.986 0.59606 1.01844 0.0
H697 H 0.89645 0.53215 0.08306 0.0
H698 H 0.93879 0.47878 0.09264 0.0
H699 H 0.02608 0.52208 0.95281 0.0
H700 H 0.07374 0.53622 0.96211 0.0
H701 H 0.0371 0.57049 0.96264 0.0
H702 H 0.05788 0.59211 0.04686 0.0
H703 H 0.09461 0.55782 0.04659 0.0
H704 H 0.06112 0.55853 0.09462 0.0
H705 H 0.98884 0.4307 0.08994 0.0
H706 H 0.04429 0.39121 0.07608 0.0
H707 H 0.10318 0.48587 1.01689 0.0
C708 C 0.97543 0.57111 0.03535 0.0
C709 C 0.93758 0.56845 0.04963 0.0
C710 C 0.92495 0.53489 0.07096 0.0
C711 C 0.94895 0.50442 0.077 0.0
C712 C 0.98579 0.5078 0.06197 0.0
C713 C 0.99915 0.54031 0.04184 0.0
C714 C 0.03973 0.53591 0.02717 0.0
C715 C 0.04442 0.5415 0.97297 0.0
C716 C 0.06482 0.56269 0.05551 0.0
C717 C 0.04679 0.49566 0.04141 0.0
C718 C 0.01522 0.4801 0.06155 0.0
C719 C 0.01388 0.44271 0.07486 0.0
C720 C 0.0454 0.42049 0.06682 0.0
C721 C 0.078 0.43564 0.04605 0.0
C722 C 0.07887 0.47389 0.03388 0.0
H723 H 0.55252 0.08718 0.08933 0.0
H724 H 0.60097 0.05756 0.95267 0.0
H725 H 0.55557 1.00633 0.94403 0.0
H726 H 0.53816 0.9938 0.12871 0.0
H727 H 0.49465 1.00294 0.15872 0.0
H728 H 0.52865 0.03951 0.15255 0.0
H729 H 0.47938 0.08131 0.11123 0.0
H730 H 0.44519 0.04481 0.1173 0.0
H731 H 0.45513 0.06418 0.05923 0.0
H732 H 0.5066 0.95768 0.95063 0.0
H733 H 0.459 0.91207 0.97353 0.0
H734 H 0.44365 0.96969 0.10886 0.0
C735 C 0.55301 0.07014 0.05741 0.0
C736 C 0.58009 0.07627 0.02152 0.0
C737 C 0.58051 0.05312 0.98055 0.0
C738 C 0.55474 0.02411 0.97525 0.0
C739 C 0.52876 0.01834 1.01145 0.0
C740 C 0.5277 0.04048 0.0519 0.0
C741 C 0.49827 0.02652 0.08664 0.0
C742 C 0.516 0.015 0.13448 0.0
C743 C 0.46768 0.05596 0.09402 0.0
C744 C 0.48342 0.9929 0.05958 0.0
C745 C 0.50113 0.98912 1.01606 0.0
C746 C 0.49261 0.96023 0.98475 0.0
C747 C 0.46559 0.93414 0.99841 0.0
C748 C 0.44751 0.93655 0.04345 0.0
C749 C 0.45649 0.96681 0.07409 0.0
H750 H 0.42646 0.04171 0.50608 0.0
H751 H 0.47933 0.1284 0.58991 0.0
H752 H 0.53318 0.08695 0.60478 0.0
H753 H 0.45884 0.96218 0.5767 0.0
H754 H 0.46637 0.93318 0.52498 0.0
H755 H 0.43085 0.96869 0.52382 0.0
H756 H 0.46082 0.99734 0.44799 0.0
H757 H 0.49638 0.96194 0.44891 0.0
H758 H 0.50932 0.01047 0.44906 0.0
H759 H 0.58184 0.03651 0.60904 0.0
H760 H 0.6232 0.98235 0.59923 0.0
H761 H 0.54005 0.92937 0.509 0.0
C762 C 0.44912 0.05165 0.52821 0.0
C763 C 0.44867 0.08819 0.54716 0.0
C764 C 0.47923 0.10058 0.57498 0.0
C765 C 0.50981 0.07716 0.58379 0.0
C766 C 0.50958 0.04144 0.56424 0.0
C767 C 0.48014 0.02877 0.53681 0.0
C768 C 0.48787 0.98998 0.51764 0.0
C769 C 0.45928 0.96185 0.53695 0.0
C770 C 0.48865 0.98995 0.46264 0.0
C771 C 0.52633 0.98293 0.53834 0.0
C772 C 0.53816 0.01281 0.56548 0.0
C773 C 0.5729 0.01299 0.58772 0.0
C774 C 0.59638 0.98205 0.58161 0.0
C775 C 0.58536 0.95131 0.55298 0.0
C776 C 0.54952 0.95191 0.53156 0.0
H777 H 0.03398 0.58864 0.6103 0.0
H778 H 0.11536 0.56488 0.5 0.0
H779 H 0.07932 0.50874 0.47646 0.0
H780 H 0.0154 0.49436 0.6452 0.0
H781 H 0.96626 0.50204 0.65433 0.0
H782 H 0.99869 0.53983 0.66231 0.0
H783 H 0.96187 0.57953 0.60101 0.0
H784 H 0.9293 0.54188 0.59285 0.0
H785 H 0.95335 0.5612 0.542 0.0
H786 H 0.03541 0.4533 0.46818 0.0
H787 H 0.98482 0.40639 0.47096 0.0
H788 H 0.93057 0.46872 0.58386 0.0
C789 C 0.04437 0.57147 0.58142 0.0
C790 C 0.07775 0.58079 0.55727 0.0
C791 C 0.0899 0.55814 0.51889 0.0
C792 C 0.06968 0.52621 0.50548 0.0
C793 C 0.03704 0.51765 0.53037 0.0
C794 C 0.02425 0.53994 0.56717 0.0
C795 C 0.98791 0.5253 0.58746 0.0
C796 C 0.99235 0.51475 0.64046 0.0
C797 C 0.95624 0.55367 0.58039 0.0
C798 C 0.98225 0.49108 0.55661 0.0
C799 C 0.01107 0.4869 0.52421 0.0
C800 C 0.0126 0.45653 0.49316 0.0
C801 C 0.98388 0.42993 0.49513 0.0
C802 C 0.95375 0.43407 0.52744 0.0
C803 C 0.95302 0.46517 0.5584 0.0
loop_
_geom_bond_atom_site_label_1
_geom_bond_atom_site_label_2
_geom_bond_distance
_geom_bond_site_symmetry_2
_ccdc_geom_bond_type
C0 C1 1.351 . S
C0 N3 1.368 1_556 S
C0 H5 0.931 . S
C1 C0 1.351 . S
C1 N2 1.373 1_556 S
C1 H29 0.930 . S
N2 C1 1.373 1_554 S
N2 C4 1.340 . S
N3 C0 1.368 1_554 S
N3 C4 1.321 . S
N3 Co6 2.135 . S
C4 N2 1.340 . S
C4 N3 1.321 . S
C4 H28 0.930 . S
H5 C0 0.931 . S
Co6 N3 2.135 . S
Co6 N9 2.121 . S
Co6 O14 2.055 . S
Co6 O17 2.039 . S
Co6 N20 2.140 1_554 S
C7 O8 1.227 . S
C7 O17 1.265 . S
O8 C7 1.227 . S
N9 Co6 2.121 . S
N9 C11 1.375 . S
N9 C12 1.313 . S
C10 C11 1.338 . S
C10 N13 1.377 . S
C10 H30 0.930 . S
C11 N9 1.375 . S
C11 C10 1.338 . S
C11 H15 0.931 . S
C12 N9 1.313 . S
C12 N13 1.344 . S
C12 H16 0.930 . S
N13 C10 1.377 . S
N13 C12 1.344 . S
O14 Co6 2.055 . S
O14 C18 1.245 1_554 S
H15 C11 0.931 . S
H16 C12 0.930 . S
O17 Co6 2.039 . S
O17 C7 1.265 . S
C18 O14 1.245 1_556 S
C18 O19 1.234 . S
O19 C18 1.234 . S
N20 Co6 2.140 1_556 S
N20 C23 1.346 . S
N20 C24 1.345 . S
C21 C22 1.387 . S
C21 C25 1.391 . S
C22 C21 1.387 . S
C22 C23 1.369 . S
C22 H31 0.929 . S
C23 N20 1.346 . S
C23 C22 1.369 . S
C23 H26 0.928 . S
C24 N20 1.345 . S
C24 C25 1.371 . S
C24 H27 0.931 . S
C25 C21 1.391 . S
C25 C24 1.371 . S
C25 H32 0.930 . S
H26 C23 0.928 . S
H27 C24 0.931 . S
H28 C4 0.930 . S
H29 C1 0.930 . S
H30 C10 0.930 . S
H31 C22 0.929 . S
H32 C25 0.930 . S
C33 C34 1.351 . S
C33 N36 1.368 1_556 S
C33 H38 0.931 . S
C34 C33 1.351 . S
C34 N35 1.373 1_556 S
C34 H62 0.930 . S
N35 C34 1.373 1_554 S
N35 C37 1.340 . S
N36 C33 1.368 1_554 S
N36 C37 1.321 . S
N36 Co39 2.135 . S
C37 N35 1.340 . S
C37 N36 1.321 . S
C37 H61 0.930 . S
H38 C33 0.931 . S
Co39 N36 2.135 . S
Co39 N42 2.121 . S
Co39 O47 2.055 . S
Co39 O50 2.039 . S
Co39 N53 2.140 1_554 S
C40 O41 1.227 . S
C40 O50 1.265 . S
O41 C40 1.227 . S
N42 Co39 2.121 . S
N42 C44 1.375 . S
N42 C45 1.313 . S
C43 C44 1.338 . S
C43 N46 1.377 . S
C43 H63 0.930 . S
C44 N42 1.375 . S
C44 C43 1.338 . S
C44 H48 0.931 . S
C45 N42 1.313 . S
C45 N46 1.344 . S
C45 H49 0.930 . S
N46 C43 1.377 . S
N46 C45 1.344 . S
O47 Co39 2.055 . S
O47 C51 1.245 1_554 S
H48 C44 0.931 . S
H49 C45 0.930 . S
O50 Co39 2.039 . S
O50 C40 1.265 . S
C51 O47 1.245 1_556 S
C51 O52 1.234 . S
O52 C51 1.234 . S
N53 Co39 2.140 1_556 S
N53 C56 1.346 . S
N53 C57 1.345 . S
C54 C55 1.387 . S
C54 C58 1.391 . S
C55 C54 1.387 . S
C55 C56 1.369 . S
C55 H64 0.929 . S
C56 N53 1.346 . S
C56 C55 1.369 . S
C56 H59 0.928 . S
C57 N53 1.345 . S
C57 C58 1.371 . S
C57 H60 0.931 . S
C58 C54 1.391 . S
C58 C57 1.371 . S
C58 H65 0.930 . S
H59 C56 0.928 . S
H60 C57 0.931 . S
H61 C37 0.930 . S
H62 C34 0.930 . S
H63 C43 0.930 . S
H64 C55 0.929 . S
H65 C58 0.930 . S
C66 C67 1.351 . S
C66 N69 1.368 1_556 S
C66 H71 0.931 . S
C67 C66 1.351 . S
C67 N68 1.373 1_556 S
C67 H95 0.930 . S
N68 C67 1.373 1_554 S
N68 C70 1.340 . S
N69 C66 1.368 1_554 S
N69 C70 1.321 . S
N69 Co72 2.135 . S
C70 N68 1.340 . S
C70 N69 1.321 . S
C70 H94 0.930 . S
H71 C66 0.931 . S
Co72 N69 2.135 . S
Co72 N75 2.121 . S
Co72 O80 2.055 . S
Co72 O83 2.039 . S
Co72 N86 2.140 1_554 S
C73 O74 1.227 . S
C73 O83 1.265 . S
O74 C73 1.227 . S
N75 Co72 2.121 . S
N75 C77 1.375 . S
N75 C78 1.313 . S
C76 C77 1.338 . S
C76 N79 1.377 . S
C76 H96 0.930 . S
C77 N75 1.375 . S
C77 C76 1.338 . S
C77 H81 0.931 . S
C78 N75 1.313 . S
C78 N79 1.344 . S
C78 H82 0.930 . S
N79 C76 1.377 . S
N79 C78 1.344 . S
O80 Co72 2.055 . S
O80 C84 1.245 1_554 S
H81 C77 0.931 . S
H82 C78 0.930 . S
O83 Co72 2.039 . S
O83 C73 1.265 . S
C84 O80 1.245 1_556 S
C84 O85 1.234 . S
O85 C84 1.234 . S
N86 Co72 2.140 1_556 S
N86 C89 1.346 . S
N86 C90 1.345 . S
C87 C88 1.387 . S
C87 C91 1.391 . S
C88 C87 1.387 . S
C88 C89 1.369 . S
C88 H97 0.929 . S
C89 N86 1.346 . S
C89 C88 1.369 . S
C89 H92 0.928 . S
C90 N86 1.345 . S
C90 C91 1.371 . S
C90 H93 0.931 . S
C91 C87 1.391 . S
C91 C90 1.371 . S
C91 H98 0.930 . S
H92 C89 0.928 . S
H93 C90 0.931 . S
H94 C70 0.930 . S
H95 C67 0.930 . S
H96 C76 0.930 . S
H97 C88 0.929 . S
H98 C91 0.930 . S
C99 C100 1.351 . S
C99 N102 1.368 1_556 S
C99 H104 0.931 . S
C100 C99 1.351 . S
C100 N101 1.373 1_556 S
C100 H128 0.930 . S
N101 C100 1.373 1_554 S
N101 C103 1.340 . S
N102 C99 1.368 1_554 S
N102 C103 1.321 . S
N102 Co105 2.135 . S
C103 N101 1.340 . S
C103 N102 1.321 . S
C103 H127 0.930 . S
H104 C99 0.931 . S
Co105 N102 2.135 . S
Co105 N108 2.121 . S
Co105 O113 2.055 . S
Co105 O116 2.039 . S
Co105 N119 2.140 1_554 S
C106 O107 1.227 . S
C106 O116 1.265 . S
O107 C106 1.227 . S
N108 Co105 2.121 . S
N108 C110 1.375 . S
N108 C111 1.313 . S
C109 C110 1.338 . S
C109 N112 1.377 . S
C109 H129 0.930 . S
C110 N108 1.375 . S
C110 C109 1.338 . S
C110 H114 0.931 . S
C111 N108 1.313 . S
C111 N112 1.344 . S
C111 H115 0.930 . S
N112 C109 1.377 . S
N112 C111 1.344 . S
O113 Co105 2.055 . S
O113 C117 1.245 1_554 S
H114 C110 0.931 . S
H115 C111 0.930 . S
O116 Co105 2.039 . S
O116 C106 1.265 . S
C117 O113 1.245 1_556 S
C117 O118 1.234 . S
O118 C117 1.234 . S
N119 Co105 2.140 1_556 S
N119 C122 1.346 . S
N119 C123 1.345 . S
C120 C121 1.387 . S
C120 C124 1.391 . S
C121 C120 1.387 . S
C121 C122 1.369 . S
C121 H130 0.929 . S
C122 N119 1.346 . S
C122 C121 1.369 . S
C122 H125 0.928 . S
C123 N119 1.345 . S
C123 C124 1.371 . S
C123 H126 0.931 . S
C124 C120 1.391 . S
C124 C123 1.371 . S
C124 H131 0.930 . S
H125 C122 0.928 . S
H126 C123 0.931 . S
H127 C103 0.930 . S
H128 C100 0.930 . S
H129 C109 0.930 . S
H130 C121 0.929 . S
H131 C124 0.930 . S
C132 C133 1.351 . S
C132 N135 1.368 . S
C132 H137 0.931 . S
C133 C132 1.351 . S
C133 N134 1.373 . S
C133 H161 0.930 . S
N134 C133 1.373 . S
N134 C136 1.340 . S
N135 C132 1.368 . S
N135 C136 1.321 . S
N135 Co138 2.135 . S
C136 N134 1.340 . S
C136 N135 1.321 . S
C136 H160 0.930 . S
H137 C132 0.931 . S
Co138 N135 2.135 . S
Co138 N141 2.121 . S
Co138 O146 2.055 . S
Co138 O149 2.039 . S
Co138 N152 2.140 . S
C139 O140 1.227 . S
C139 O149 1.265 . S
O140 C139 1.227 . S
N141 Co138 2.121 . S
N141 C143 1.375 . S
N141 C144 1.313 . S
C142 C143 1.338 . S
C142 N145 1.377 . S
C142 H162 0.930 . S
C143 N141 1.375 . S
C143 C142 1.338 . S
C143 H147 0.931 . S
C144 N141 1.313 . S
C144 N145 1.344 . S
C144 H148 0.930 . S
N145 C142 1.377 . S
N145 C144 1.344 . S
O146 Co138 2.055 . S
O146 C150 1.253 . S
H147 C143 0.931 . S
H148 C144 0.930 . S
O149 Co138 2.039 . S
O149 C139 1.265 . S
C150 O146 1.253 . S
C150 O151 1.227 . S
O151 C150 1.227 . S
N152 Co138 2.140 . S
N152 C155 1.346 . S
N152 C156 1.345 . S
C153 C154 1.387 . S
C153 C157 1.391 . S
C154 C153 1.387 . S
C154 C155 1.369 . S
C154 H163 0.929 . S
C155 N152 1.346 . S
C155 C154 1.369 . S
C155 H158 0.928 . S
C156 N152 1.345 . S
C156 C157 1.371 . S
C156 H159 0.931 . S
C157 C153 1.391 . S
C157 C156 1.371 . S
C157 H164 0.930 . S
H158 C155 0.928 . S
H159 C156 0.931 . S
H160 C136 0.930 . S
H161 C133 0.930 . S
H162 C142 0.930 . S
H163 C154 0.929 . S
H164 C157 0.930 . S
C165 C166 1.351 . S
C165 N168 1.368 . S
C165 H170 0.931 . S
C166 C165 1.351 . S
C166 N167 1.373 . S
C166 H194 0.930 . S
N167 C166 1.373 . S
N167 C169 1.340 . S
N168 C165 1.368 . S
N168 C169 1.321 . S
N168 Co171 2.135 . S
C169 N167 1.340 . S
C169 N168 1.321 . S
C169 H193 0.930 . S
H170 C165 0.931 . S
Co171 N168 2.135 . S
Co171 N174 2.121 . S
Co171 O179 2.055 . S
Co171 O182 2.039 . S
Co171 N185 2.140 . S
C172 O173 1.227 . S
C172 O182 1.265 . S
O173 C172 1.227 . S
N174 Co171 2.121 . S
N174 C176 1.375 . S
N174 C177 1.313 . S
C175 C176 1.338 . S
C175 N178 1.377 . S
C175 H195 0.930 . S
C176 N174 1.375 . S
C176 C175 1.338 . S
C176 H180 0.931 . S
C177 N174 1.313 . S
C177 N178 1.344 . S
C177 H181 0.930 . S
N178 C175 1.377 . S
N178 C177 1.344 . S
O179 Co171 2.055 . S
O179 C183 1.253 . S
H180 C176 0.931 . S
H181 C177 0.930 . S
O182 Co171 2.039 . S
O182 C172 1.265 . S
C183 O179 1.253 . S
C183 O184 1.227 . S
O184 C183 1.227 . S
N185 Co171 2.140 . S
N185 C188 1.346 . S
N185 C189 1.345 . S
C186 C187 1.387 . S
C186 C190 1.391 . S
C187 C186 1.387 . S
C187 C188 1.369 . S
C187 H196 0.929 . S
C188 N185 1.346 . S
C188 C187 1.369 . S
C188 H191 0.928 . S
C189 N185 1.345 . S
C189 C190 1.371 . S
C189 H192 0.931 . S
C190 C186 1.391 . S
C190 C189 1.371 . S
C190 H197 0.930 . S
H191 C188 0.928 . S
H192 C189 0.931 . S
H193 C169 0.930 . S
H194 C166 0.930 . S
H195 C175 0.930 . S
H196 C187 0.929 . S
H197 C190 0.930 . S
C198 C199 1.351 . S
C198 N201 1.368 . S
C198 H203 0.931 . S
C199 C198 1.351 . S
C199 N200 1.373 . S
C199 H227 0.930 . S
N200 C199 1.373 . S
N200 C202 1.340 . S
N201 C198 1.368 . S
N201 C202 1.321 . S
N201 Co204 2.135 . S
C202 N200 1.340 . S
C202 N201 1.321 . S
C202 H226 0.930 . S
H203 C198 0.931 . S
Co204 N201 2.135 . S
Co204 N207 2.121 . S
Co204 O212 2.055 . S
Co204 O215 2.039 . S
Co204 N218 2.140 . S
C205 O206 1.227 . S
C205 O215 1.265 . S
O206 C205 1.227 . S
N207 Co204 2.121 . S
N207 C209 1.375 . S
N207 C210 1.313 . S
C208 C209 1.338 . S
C208 N211 1.377 . S
C208 H228 0.930 . S
C209 N207 1.375 . S
C209 C208 1.338 . S
C209 H213 0.931 . S
C210 N207 1.313 . S
C210 N211 1.344 . S
C210 H214 0.930 . S
N211 C208 1.377 . S
N211 C210 1.344 . S
O212 Co204 2.055 . S
O212 C216 1.253 . S
H213 C209 0.931 . S
H214 C210 0.930 . S
O215 Co204 2.039 . S
O215 C205 1.265 . S
C216 O212 1.253 . S
C216 O217 1.227 . S
O217 C216 1.227 . S
N218 Co204 2.140 . S
N218 C221 1.346 . S
N218 C222 1.345 . S
C219 C220 1.387 . S
C219 C223 1.391 . S
C220 C219 1.387 . S
C220 C221 1.369 . S
C220 H229 0.929 . S
C221 N218 1.346 . S
C221 C220 1.369 . S
C221 H224 0.928 . S
C222 N218 1.345 . S
C222 C223 1.371 . S
C222 H225 0.931 . S
C223 C219 1.391 . S
C223 C222 1.371 . S
C223 H230 0.930 . S
H224 C221 0.928 . S
H225 C222 0.931 . S
H226 C202 0.930 . S
H227 C199 0.930 . S
H228 C208 0.930 . S
H229 C220 0.929 . S
H230 C223 0.930 . S
C231 C232 1.351 . S
C231 N234 1.368 . S
C231 H236 0.931 . S
C232 C231 1.351 . S
C232 N233 1.373 . S
C232 H260 0.930 . S
N233 C232 1.373 . S
N233 C235 1.340 . S
N234 C231 1.368 . S
N234 C235 1.321 . S
N234 Co237 2.135 . S
C235 N233 1.340 . S
C235 N234 1.321 . S
C235 H259 0.930 . S
H236 C231 0.931 . S
Co237 N234 2.135 . S
Co237 N240 2.121 . S
Co237 O245 2.055 . S
Co237 O248 2.039 . S
Co237 N251 2.140 . S
C238 O239 1.227 . S
C238 O248 1.265 . S
O239 C238 1.227 . S
N240 Co237 2.121 . S
N240 C242 1.375 . S
N240 C243 1.313 . S
C241 C242 1.338 . S
C241 N244 1.377 . S
C241 H261 0.930 . S
C242 N240 1.375 . S
C242 C241 1.338 . S
C242 H246 0.931 . S
C243 N240 1.313 . S
C243 N244 1.344 . S
C243 H247 0.930 . S
N244 C241 1.377 . S
N244 C243 1.344 . S
O245 Co237 2.055 . S
O245 C249 1.253 . S
H246 C242 0.931 . S
H247 C243 0.930 . S
O248 Co237 2.039 . S
O248 C238 1.265 . S
C249 O245 1.253 . S
C249 O250 1.227 . S
O250 C249 1.227 . S
N251 Co237 2.140 . S
N251 C254 1.346 . S
N251 C255 1.345 . S
C252 C253 1.387 . S
C252 C256 1.391 . S
C253 C252 1.387 . S
C253 C254 1.369 . S
C253 H262 0.929 . S
C254 N251 1.346 . S
C254 C253 1.369 . S
C254 H257 0.928 . S
C255 N251 1.345 . S
C255 C256 1.371 . S
C255 H258 0.931 . S
C256 C252 1.391 . S
C256 C255 1.371 . S
C256 H263 0.930 . S
H257 C254 0.928 . S
H258 C255 0.931 . S
H259 C235 0.930 . S
H260 C232 0.930 . S
H261 C241 0.930 . S
H262 C253 0.929 . S
H263 C256 0.930 . S
H264 C276 0.930 . S
H265 C278 0.930 . S
H266 C279 0.930 . S
H267 C283 0.959 . S
H268 C283 0.959 . S
H269 C283 0.961 . S
H270 C284 0.960 . S
H271 C284 0.961 . S
H272 C284 0.959 . S
H273 C287 0.929 . S
H274 C288 0.931 . S
H275 C290 0.930 . S
C276 H264 0.930 . S
C276 C277 1.399 1_556 S
C276 C281 1.399 . S
C277 C276 1.399 1_554 S
C277 C278 1.376 . S
C278 H265 0.930 . S
C278 C277 1.376 . S
C278 C279 1.388 . S
C279 H266 0.930 . S
C279 C278 1.388 . S
C279 C280 1.390 . S
C280 C279 1.390 . S
C280 C281 1.394 1_554 S
C280 C286 1.465 . S
C281 C276 1.399 . S
C281 C280 1.394 1_556 S
C281 C282 1.516 . S
C282 C281 1.516 . S
C282 C283 1.502 . S
C282 C284 1.561 . S
C282 C285 1.526 . S
C283 H267 0.959 . S
C283 H268 0.959 . S
C283 H269 0.961 . S
C283 C282 1.502 . S
C284 H270 0.960 . S
C284 H271 0.961 . S
C284 H272 0.959 . S
C284 C282 1.561 . S
C285 C282 1.526 . S
C285 C286 1.396 1_556 S
C285 C290 1.390 . S
C286 C280 1.465 . S
C286 C285 1.396 1_554 S
C286 C287 1.399 . S
C287 H273 0.929 . S
C287 C286 1.399 . S
C287 C288 1.385 . S
C288 H274 0.931 . S
C288 C287 1.385 . S
C288 C289 1.389 . S
C289 C288 1.389 . S
C289 C290 1.387 1_554 S
C290 H275 0.930 . S
C290 C285 1.390 . S
C290 C289 1.387 1_556 S
H291 C303 0.930 . S
H292 C305 0.930 . S
H293 C306 0.930 . S
H294 C310 0.959 . S
H295 C310 0.959 . S
H296 C310 0.961 . S
H297 C311 0.960 . S
H298 C311 0.961 . S
H299 C311 0.959 . S
H300 C314 0.929 . S
H301 C315 0.931 . S
H302 C317 0.930 . S
C303 H291 0.930 . S
C303 C304 1.399 . S
C303 C308 1.399 . S
C304 C303 1.399 . S
C304 C305 1.376 1_554 S
C305 H292 0.930 . S
C305 C304 1.376 1_556 S
C305 C306 1.388 . S
C306 H293 0.930 . S
C306 C305 1.388 . S
C306 C307 1.390 . S
C307 C306 1.390 . S
C307 C308 1.394 1_556 S
C307 C313 1.465 . S
C308 C303 1.399 . S
C308 C307 1.394 1_554 S
C308 C309 1.516 . S
C309 C308 1.516 . S
C309 C310 1.502 . S
C309 C311 1.561 . S
C309 C312 1.526 . S
C310 H294 0.959 . S
C310 H295 0.959 . S
C310 H296 0.961 . S
C310 C309 1.502 . S
C311 H297 0.960 . S
C311 H298 0.961 . S
C311 H299 0.959 . S
C311 C309 1.561 . S
C312 C309 1.526 . S
C312 C313 1.396 1_554 S
C312 C317 1.390 . S
C313 C307 1.465 . S
C313 C312 1.396 1_556 S
C313 C314 1.399 . S
C314 H300 0.929 . S
C314 C313 1.399 . S
C314 C315 1.385 . S
C315 H301 0.931 . S
C315 C314 1.385 . S
C315 C316 1.389 . S
C316 C315 1.389 . S
C316 C317 1.387 1_556 S
C317 H302 0.930 . S
C317 C312 1.390 . S
C317 C316 1.387 1_554 S
H318 C330 0.930 . S
H319 C332 0.930 . S
H320 C333 0.930 . S
H321 C337 0.959 . S
H322 C337 0.959 . S
H323 C337 0.961 . S
H324 C338 0.960 . S
H325 C338 0.961 . S
H326 C338 0.959 . S
H327 C341 0.929 . S
H328 C342 0.931 . S
H329 C344 0.930 . S
C330 H318 0.930 . S
C330 C331 1.399 1_556 S
C330 C335 1.399 . S
C331 C330 1.399 1_554 S
C331 C332 1.376 . S
C332 H319 0.930 . S
C332 C331 1.376 . S
C332 C333 1.388 . S
C333 H320 0.930 . S
C333 C332 1.388 . S
C333 C334 1.390 . S
C334 C333 1.390 . S
C334 C335 1.394 1_554 S
C334 C340 1.465 . S
C335 C330 1.399 . S
C335 C334 1.394 1_556 S
C335 C336 1.516 . S
C336 C335 1.516 . S
C336 C337 1.502 . S
C336 C338 1.561 . S
C336 C339 1.526 . S
C337 H321 0.959 . S
C337 H322 0.959 . S
C337 H323 0.961 . S
C337 C336 1.502 . S
C338 H324 0.960 . S
C338 H325 0.961 . S
C338 H326 0.959 . S
C338 C336 1.561 . S
C339 C336 1.526 . S
C339 C340 1.396 1_556 S
C339 C344 1.390 . S
C340 C334 1.465 . S
C340 C339 1.396 1_554 S
C340 C341 1.399 . S
C341 H327 0.929 . S
C341 C340 1.399 . S
C341 C342 1.385 . S
C342 H328 0.931 . S
C342 C341 1.385 . S
C342 C343 1.389 . S
C343 C342 1.389 . S
C343 C344 1.387 1_554 S
C344 H329 0.930 . S
C344 C339 1.390 . S
C344 C343 1.387 1_556 S
H345 C357 0.930 . S
H346 C359 0.930 . S
H347 C360 0.930 . S
H348 C364 0.959 . S
H349 C364 0.959 . S
H350 C364 0.961 . S
H351 C365 0.960 . S
H352 C365 0.961 . S
H353 C365 0.959 . S
H354 C368 0.929 . S
H355 C369 0.931 . S
H356 C371 0.930 . S
C357 H345 0.930 . S
C357 C358 1.399 1_554 S
C357 C362 1.399 . S
C358 C357 1.399 1_556 S
C358 C359 1.376 . S
C359 H346 0.930 . S
C359 C358 1.376 . S
C359 C360 1.388 . S
C360 H347 0.930 . S
C360 C359 1.388 . S
C360 C361 1.390 . S
C361 C360 1.390 . S
C361 C362 1.394 1_556 S
C361 C367 1.465 1_556 S
C362 C357 1.399 . S
C362 C361 1.394 1_554 S
C362 C363 1.516 . S
C363 C362 1.516 . S
C363 C364 1.502 . S
C363 C365 1.561 1_554 S
C363 C366 1.526 . S
C364 H348 0.959 . S
C364 H349 0.959 . S
C364 H350 0.961 . S
C364 C363 1.502 . S
C365 H351 0.960 . S
C365 H352 0.961 . S
C365 H353 0.959 . S
C365 C363 1.561 1_556 S
C366 C363 1.526 . S
C366 C367 1.396 . S
C366 C371 1.390 . S
C367 C361 1.465 1_554 S
C367 C366 1.396 . S
C367 C368 1.399 1_554 S
C368 H354 0.929 . S
C368 C367 1.399 1_556 S
C368 C369 1.385 1_556 S
C369 H355 0.931 . S
C369 C368 1.385 1_554 S
C369 C370 1.389 . S
C370 C369 1.389 . S
C370 C371 1.387 . S
C371 H356 0.930 . S
C371 C366 1.390 . S
C371 C370 1.387 . S
H372 C384 0.930 . S
H373 C386 0.930 . S
H374 C387 0.930 . S
H375 C391 0.959 . S
H376 C391 0.959 . S
H377 C391 0.961 . S
H378 C392 0.960 . S
H379 C392 0.961 . S
H380 C392 0.959 . S
H381 C395 0.929 . S
H382 C396 0.931 . S
H383 C398 0.930 . S
C384 H372 0.930 . S
C384 C385 1.399 . S
C384 C389 1.399 1_455 S
C385 C384 1.399 . S
C385 C386 1.376 . S
C386 H373 0.930 . S
C386 C385 1.376 . S
C386 C387 1.388 . S
C387 H374 0.930 . S
C387 C386 1.388 . S
C387 C388 1.390 1_455 S
C388 C387 1.390 1_655 S
C388 C389 1.394 . S
C388 C394 1.465 . S
C389 C384 1.399 1_655 S
C389 C388 1.394 . S
C389 C390 1.516 . S
C390 C389 1.516 . S
C390 C391 1.502 . S
C390 C392 1.561 . S
C390 C393 1.526 . S
C391 H375 0.959 . S
C391 H376 0.959 . S
C391 H377 0.961 . S
C391 C390 1.502 . S
C392 H378 0.960 . S
C392 H379 0.961 . S
C392 H380 0.959 . S
C392 C390 1.561 . S
C393 C390 1.526 . S
C393 C394 1.396 . S
C393 C398 1.390 . S
C394 C388 1.465 . S
C394 C393 1.396 . S
C394 C395 1.399 . S
C395 H381 0.929 . S
C395 C394 1.399 . S
C395 C396 1.385 . S
C396 H382 0.931 . S
C396 C395 1.385 . S
C396 C397 1.389 . S
C397 C396 1.389 . S
C397 C398 1.387 . S
C398 H383 0.930 . S
C398 C393 1.390 . S
C398 C397 1.387 . S
H399 C411 0.930 . S
H400 C413 0.930 . S
H401 C414 0.930 . S
H402 C418 0.959 . S
H403 C418 0.959 . S
H404 C418 0.961 . S
H405 C419 0.960 . S
H406 C419 0.961 . S
H407 C419 0.959 . S
H408 C422 0.929 . S
H409 C423 0.931 . S
H410 C425 0.930 . S
C411 H399 0.930 . S
C411 C412 1.399 . S
C411 C416 1.399 1_545 S
C412 C411 1.399 . S
C412 C413 1.376 . S
C413 H400 0.930 . S
C413 C412 1.376 . S
C413 C414 1.388 1_545 S
C414 H401 0.930 . S
C414 C413 1.388 1_565 S
C414 C415 1.390 . S
C415 C414 1.390 . S
C415 C416 1.394 . S
C415 C421 1.465 . S
C416 C411 1.399 1_565 S
C416 C415 1.394 . S
C416 C417 1.516 . S
C417 C416 1.516 . S
C417 C418 1.502 . S
C417 C419 1.561 . S
C417 C420 1.526 . S
C418 H402 0.959 . S
C418 H403 0.959 . S
C418 H404 0.961 . S
C418 C417 1.502 . S
C419 H405 0.960 . S
C419 H406 0.961 . S
C419 H407 0.959 . S
C419 C417 1.561 . S
C420 C417 1.526 . S
C420 C421 1.396 . S
C420 C425 1.390 . S
C421 C415 1.465 . S
C421 C420 1.396 . S
C421 C422 1.399 . S
C422 H408 0.929 . S
C422 C421 1.399 . S
C422 C423 1.385 . S
C423 H409 0.931 . S
C423 C422 1.385 . S
C423 C424 1.389 . S
C424 C423 1.389 . S
C424 C425 1.387 . S
C425 H410 0.930 . S
C425 C420 1.390 . S
C425 C424 1.387 . S
H426 C438 0.930 . S
H427 C440 0.930 . S
H428 C441 0.930 . S
H429 C445 0.959 . S
H430 C445 0.959 . S
H431 C445 0.961 . S
H432 C446 0.960 . S
H433 C446 0.961 . S
H434 C446 0.959 . S
H435 C449 0.929 . S
H436 C450 0.931 . S
H437 C452 0.930 . S
C438 H426 0.930 . S
C438 C439 1.399 . S
C438 C443 1.399 . S
C439 C438 1.399 . S
C439 C440 1.376 . S
C440 H427 0.930 . S
C440 C439 1.376 . S
C440 C441 1.388 . S
C441 H428 0.930 . S
C441 C440 1.388 . S
C441 C442 1.390 . S
C442 C441 1.390 . S
C442 C443 1.394 . S
C442 C448 1.465 . S
C443 C438 1.399 . S
C443 C442 1.394 . S
C443 C444 1.516 . S
C444 C443 1.516 . S
C444 C445 1.502 . S
C444 C446 1.561 . S
C444 C447 1.526 . S
C445 H429 0.959 . S
C445 H430 0.959 . S
C445 H431 0.961 . S
C445 C444 1.502 . S
C446 H432 0.960 . S
C446 H433 0.961 . S
C446 H434 0.959 . S
C446 C444 1.561 . S
C447 C444 1.526 . S
C447 C448 1.396 . S
C447 C452 1.390 1_455 S
C448 C442 1.465 . S
C448 C447 1.396 . S
C448 C449 1.399 . S
C449 H435 0.929 . S
C449 C448 1.399 . S
C449 C450 1.385 1_455 S
C450 H436 0.931 . S
C450 C449 1.385 1_655 S
C450 C451 1.389 . S
C451 C450 1.389 . S
C451 C452 1.387 . S
C452 H437 0.930 . S
C452 C447 1.390 1_655 S
C452 C451 1.387 . S
H453 C465 0.930 . S
H454 C467 0.930 . S
H455 C468 0.930 . S
H456 C472 0.959 . S
H457 C472 0.959 . S
H458 C472 0.961 . S
H459 C473 0.960 . S
H460 C473 0.961 . S
H461 C473 0.959 . S
H462 C476 0.928 1_545 S
H463 C477 0.931 . S
H464 C479 0.930 . S
C465 H453 0.930 . S
C465 C466 1.399 . S
C465 C470 1.399 . S
C466 C465 1.399 . S
C466 C467 1.376 . S
C467 H454 0.930 . S
C467 C466 1.376 . S
C467 C468 1.388 . S
C468 H455 0.930 . S
C468 C467 1.388 . S
C468 C469 1.390 . S
C469 C468 1.390 . S
C469 C470 1.394 . S
C469 C475 1.465 . S
C470 C465 1.399 . S
C470 C469 1.394 . S
C470 C471 1.516 . S
C471 C470 1.516 . S
C471 C472 1.502 . S
C471 C473 1.561 . S
C471 C474 1.526 . S
C472 H456 0.959 . S
C472 H457 0.959 . S
C472 H458 0.961 . S
C472 C471 1.502 . S
C473 H459 0.960 . S
C473 H460 0.961 . S
C473 H461 0.959 . S
C473 C471 1.561 . S
C474 C471 1.526 . S
C474 C475 1.396 . S
C474 C479 1.390 1_545 S
C475 C469 1.465 . S
C475 C474 1.396 . S
C475 C476 1.391 1_545 S
C476 H462 0.928 1_565 S
C476 C475 1.391 1_565 S
C476 C477 1.394 . S
C477 H463 0.931 . S
C477 C476 1.394 . S
C477 C478 1.389 . S
C478 C477 1.389 . S
C478 C479 1.387 . S
C479 H464 0.930 . S
C479 C474 1.390 1_565 S
C479 C478 1.387 . S
H480 C492 0.930 . S
H481 C494 0.930 . S
H482 C495 0.930 . S
H483 C499 0.959 . S
H484 C499 0.959 . S
H485 C499 0.961 . S
H486 C500 0.960 . S
H487 C500 0.961 . S
H488 C500 0.959 . S
H489 C503 0.929 . S
H490 C504 0.931 . S
H491 C506 0.930 . S
C492 H480 0.930 . S
C492 C493 1.399 . S
C492 C497 1.399 . S
C493 C492 1.399 . S
C493 C494 1.376 . S
C494 H481 0.930 . S
C494 C493 1.376 . S
C494 C495 1.388 . S
C495 H482 0.930 . S
C495 C494 1.388 . S
C495 C496 1.390 . S
C496 C495 1.390 . S
C496 C497 1.394 . S
C496 C502 1.465 . S
C497 C492 1.399 . S
C497 C496 1.394 . S
C497 C498 1.516 . S
C498 C497 1.516 . S
C498 C499 1.502 . S
C498 C500 1.561 . S
C498 C501 1.526 . S
C499 H483 0.959 . S
C499 H484 0.959 . S
C499 H485 0.961 . S
C499 C498 1.502 . S
C500 H486 0.960 . S
C500 H487 0.961 . S
C500 H488 0.959 . S
C500 C498 1.561 . S
C501 C498 1.526 . S
C501 C502 1.396 . S
C501 C506 1.390 . S
C502 C496 1.465 . S
C502 C501 1.396 . S
C502 C503 1.399 . S
C503 H489 0.929 . S
C503 C502 1.399 . S
C503 C504 1.385 . S
C504 H490 0.931 . S
C504 C503 1.385 . S
C504 C505 1.389 . S
C505 C504 1.389 . S
C505 C506 1.387 . S
C506 H491 0.930 . S
C506 C501 1.390 . S
C506 C505 1.387 . S
H507 C519 0.930 . S
H508 C521 0.930 . S
H509 C522 0.930 . S
H510 C526 0.959 . S
H511 C526 0.959 . S
H512 C526 0.961 . S
H513 C527 0.960 . S
H514 C527 0.961 . S
H515 C527 0.959 . S
H516 C530 0.929 . S
H517 C531 0.931 . S
H518 C533 0.930 . S
C519 H507 0.930 . S
C519 C520 1.399 . S
C519 C524 1.399 . S
C520 C519 1.399 . S
C520 C521 1.376 . S
C521 H508 0.930 . S
C521 C520 1.376 . S
C521 C522 1.388 . S
C522 H509 0.930 . S
C522 C521 1.388 . S
C522 C523 1.390 . S
C523 C522 1.390 . S
C523 C524 1.394 . S
C523 C529 1.465 . S
C524 C519 1.399 . S
C524 C523 1.394 . S
C524 C525 1.516 . S
C525 C524 1.516 . S
C525 C526 1.502 . S
C525 C527 1.561 . S
C525 C528 1.526 . S
C526 H510 0.959 . S
C526 H511 0.959 . S
C526 H512 0.961 . S
C526 C525 1.502 . S
C527 H513 0.960 . S
C527 H514 0.961 . S
C527 H515 0.959 . S
C527 C525 1.561 . S
C528 C525 1.526 . S
C528 C529 1.396 . S
C528 C533 1.390 . S
C529 C523 1.465 . S
C529 C528 1.396 . S
C529 C530 1.399 . S
C530 H516 0.929 . S
C530 C529 1.399 . S
C530 C531 1.385 . S
C531 H517 0.931 . S
C531 C530 1.385 . S
C531 C532 1.389 . S
C532 C531 1.389 . S
C532 C533 1.387 . S
C533 H518 0.930 . S
C533 C528 1.390 . S
C533 C532 1.387 . S
H534 C546 0.930 . S
H535 C548 0.930 . S
H536 C549 0.930 . S
H537 C553 0.959 . S
H538 C553 0.959 . S
H539 C553 0.961 . S
H540 C554 0.960 . S
H541 C554 0.961 . S
H542 C554 0.959 . S
H543 C557 0.929 . S
H544 C558 0.931 . S
H545 C560 0.930 . S
C546 H534 0.930 . S
C546 C547 1.399 . S
C546 C551 1.399 . S
C547 C546 1.399 . S
C547 C548 1.376 . S
C548 H535 0.930 . S
C548 C547 1.376 . S
C548 C549 1.388 . S
C549 H536 0.930 . S
C549 C548 1.388 . S
C549 C550 1.390 . S
C550 C549 1.390 . S
C550 C551 1.394 . S
C550 C556 1.465 . S
C551 C546 1.399 . S
C551 C550 1.394 . S
C551 C552 1.516 . S
C552 C551 1.516 . S
C552 C553 1.502 . S
C552 C554 1.561 . S
C552 C555 1.526 . S
C553 H537 0.959 . S
C553 H538 0.959 . S
C553 H539 0.961 . S
C553 C552 1.502 . S
C554 H540 0.960 . S
C554 H541 0.961 . S
C554 H542 0.959 . S
C554 C552 1.561 . S
C555 C552 1.526 . S
C555 C556 1.396 . S
C555 C560 1.390 . S
C556 C550 1.465 . S
C556 C555 1.396 . S
C556 C557 1.399 . S
C557 H543 0.929 . S
C557 C556 1.399 . S
C557 C558 1.385 . S
C558 H544 0.931 . S
C558 C557 1.385 . S
C558 C559 1.389 . S
C559 C558 1.389 . S
C559 C560 1.387 . S
C560 H545 0.930 . S
C560 C555 1.390 . S
C560 C559 1.387 . S
H561 C573 0.930 . S
H562 C575 0.930 . S
H563 C576 0.930 . S
H564 C580 0.959 . S
H565 C580 0.959 . S
H566 C580 0.961 . S
H567 C581 0.960 . S
H568 C581 0.961 . S
H569 C581 0.959 . S
H570 C584 0.929 . S
H571 C585 0.931 . S
H572 C587 0.930 . S
C573 H561 0.930 . S
C573 C574 1.399 . S
C573 C578 1.399 . S
C574 C573 1.399 . S
C574 C575 1.376 . S
C575 H562 0.930 . S
C575 C574 1.376 . S
C575 C576 1.388 . S
C576 H563 0.930 . S
C576 C575 1.388 . S
C576 C577 1.390 . S
C577 C576 1.390 . S
C577 C578 1.394 . S
C577 C583 1.465 . S
C578 C573 1.399 . S
C578 C577 1.394 . S
C578 C579 1.516 . S
C579 C578 1.516 . S
C579 C580 1.502 . S
C579 C581 1.561 . S
C579 C582 1.526 . S
C580 H564 0.959 . S
C580 H565 0.959 . S
C580 H566 0.961 . S
C580 C579 1.502 . S
C581 H567 0.960 . S
C581 H568 0.961 . S
C581 H569 0.959 . S
C581 C579 1.561 . S
C582 C579 1.526 . S
C582 C583 1.396 . S
C582 C587 1.390 . S
C583 C577 1.465 . S
C583 C582 1.396 . S
C583 C584 1.399 . S
C584 H570 0.929 . S
C584 C583 1.399 . S
C584 C585 1.385 . S
C585 H571 0.931 . S
C585 C584 1.385 . S
C585 C586 1.389 . S
C586 C585 1.389 . S
C586 C587 1.387 . S
C587 H572 0.930 . S
C587 C582 1.390 . S
C587 C586 1.387 . S
H588 C600 0.930 . S
H589 C602 0.930 . S
H590 C603 0.930 . S
H591 C607 0.959 . S
H592 C607 0.959 . S
H593 C607 0.961 . S
H594 C608 0.960 . S
H595 C608 0.961 . S
H596 C608 0.959 . S
H597 C611 0.929 . S
H598 C612 0.931 . S
H599 C614 0.930 . S
C600 H588 0.930 . S
C600 C601 1.399 . S
C600 C605 1.399 . S
C601 C600 1.399 . S
C601 C602 1.376 . S
C602 H589 0.930 . S
C602 C601 1.376 . S
C602 C603 1.388 . S
C603 H590 0.930 . S
C603 C602 1.388 . S
C603 C604 1.390 . S
C604 C603 1.390 . S
C604 C605 1.394 . S
C604 C610 1.465 . S
C605 C600 1.399 . S
C605 C604 1.394 . S
C605 C606 1.516 . S
C606 C605 1.516 . S
C606 C607 1.502 . S
C606 C608 1.561 . S
C606 C609 1.526 . S
C607 H591 0.959 . S
C607 H592 0.959 . S
C607 H593 0.961 . S
C607 C606 1.502 . S
C608 H594 0.960 . S
C608 H595 0.961 . S
C608 H596 0.959 . S
C608 C606 1.561 . S
C609 C606 1.526 . S
C609 C610 1.396 . S
C609 C614 1.390 . S
C610 C604 1.465 . S
C610 C609 1.396 . S
C610 C611 1.399 . S
C611 H597 0.929 . S
C611 C610 1.399 . S
C611 C612 1.385 . S
C612 H598 0.931 . S
C612 C611 1.385 . S
C612 C613 1.389 . S
C613 C612 1.389 . S
C613 C614 1.387 . S
C614 H599 0.930 . S
C614 C609 1.390 . S
C614 C613 1.387 . S
H615 C627 0.930 . S
H616 C629 0.930 . S
H617 C630 0.930 . S
H618 C634 0.959 . S
H619 C634 0.959 . S
H620 C634 0.961 . S
H621 C635 0.960 . S
H622 C635 0.961 . S
H623 C635 0.959 . S
H624 C638 0.929 . S
H625 C639 0.931 . S
H626 C641 0.930 . S
C627 H615 0.930 . S
C627 C628 1.399 . S
C627 C632 1.399 . S
C628 C627 1.399 . S
C628 C629 1.376 . S
C629 H616 0.930 . S
C629 C628 1.376 . S
C629 C630 1.388 . S
C630 H617 0.930 . S
C630 C629 1.388 . S
C630 C631 1.390 . S
C631 C630 1.390 . S
C631 C632 1.394 . S
C631 C637 1.465 . S
C632 C627 1.399 . S
C632 C631 1.394 . S
C632 C633 1.516 . S
C633 C632 1.516 . S
C633 C634 1.502 . S
C633 C635 1.561 . S
C633 C636 1.526 . S
C634 H618 0.959 . S
C634 H619 0.959 . S
C634 H620 0.961 . S
C634 C633 1.502 . S
C635 H621 0.960 . S
C635 H622 0.961 . S
C635 H623 0.959 . S
C635 C633 1.561 . S
C636 C633 1.526 . S
C636 C637 1.396 . S
C636 C641 1.390 . S
C637 C631 1.465 . S
C637 C636 1.396 . S
C637 C638 1.399 . S
C638 H624 0.929 . S
C638 C637 1.399 . S
C638 C639 1.385 . S
C639 H625 0.931 . S
C639 C638 1.385 . S
C639 C640 1.389 . S
C640 C639 1.389 . S
C640 C641 1.387 . S
C641 H626 0.930 . S
C641 C636 1.390 . S
C641 C640 1.387 . S
H642 C654 0.930 . S
H643 C656 0.930 . S
H644 C657 0.930 . S
H645 C661 0.959 . S
H646 C661 0.959 . S
H647 C661 0.961 . S
H648 C662 0.960 . S
H649 C662 0.961 . S
H650 C662 0.959 . S
H651 C665 0.929 . S
H652 C666 0.931 . S
H653 C668 0.930 . S
C654 H642 0.930 . S
C654 C655 1.399 . S
C654 C659 1.399 . S
C655 C654 1.399 . S
C655 C656 1.376 . S
C656 H643 0.930 . S
C656 C655 1.376 . S
C656 C657 1.388 . S
C657 H644 0.930 . S
C657 C656 1.388 . S
C657 C658 1.390 . S
C658 C657 1.390 . S
C658 C659 1.394 . S
C658 C664 1.465 . S
C659 C654 1.399 . S
C659 C658 1.394 . S
C659 C660 1.516 . S
C660 C659 1.516 . S
C660 C661 1.502 . S
C660 C662 1.561 . S
C660 C663 1.526 . S
C661 H645 0.959 . S
C661 H646 0.959 . S
C661 H647 0.961 . S
C661 C660 1.502 . S
C662 H648 0.960 . S
C662 H649 0.961 . S
C662 H650 0.959 . S
C662 C660 1.561 . S
C663 C660 1.526 . S
C663 C664 1.396 . S
C663 C668 1.390 . S
C664 C658 1.465 . S
C664 C663 1.396 . S
C664 C665 1.399 . S
C665 H651 0.929 . S
C665 C664 1.399 . S
C665 C666 1.385 . S
C666 H652 0.931 . S
C666 C665 1.385 . S
C666 C667 1.389 . S
C667 C666 1.389 . S
C667 C668 1.387 . S
C668 H653 0.930 . S
C668 C663 1.390 . S
C668 C667 1.387 . S
H669 C681 0.930 . S
H670 C683 0.930 . S
H671 C684 0.930 . S
H672 C688 0.959 . S
H673 C688 0.959 . S
H674 C688 0.961 . S
H675 C689 0.960 . S
H676 C689 0.961 . S
H677 C689 0.959 . S
H678 C692 0.929 . S
H679 C693 0.931 . S
H680 C695 0.930 . S
C681 H669 0.930 . S
C681 C682 1.399 . S
C681 C686 1.399 . S
C682 C681 1.399 . S
C682 C683 1.376 . S
C683 H670 0.930 . S
C683 C682 1.376 . S
C683 C684 1.388 . S
C684 H671 0.930 . S
C684 C683 1.388 . S
C684 C685 1.390 . S
C685 C684 1.390 . S
C685 C686 1.394 . S
C685 C691 1.465 . S
C686 C681 1.399 . S
C686 C685 1.394 . S
C686 C687 1.516 . S
C687 C686 1.516 . S
C687 C688 1.502 . S
C687 C689 1.561 . S
C687 C690 1.526 . S
C688 H672 0.959 . S
C688 H673 0.959 . S
C688 H674 0.961 . S
C688 C687 1.502 . S
C689 H675 0.960 . S
C689 H676 0.961 . S
C689 H677 0.959 . S
C689 C687 1.561 . S
C690 C687 1.526 . S
C690 C691 1.396 . S
C690 C695 1.390 . S
C691 C685 1.465 . S
C691 C690 1.396 . S
C691 C692 1.399 . S
C692 H678 0.929 . S
C692 C691 1.399 . S
C692 C693 1.385 . S
C693 H679 0.931 . S
C693 C692 1.385 . S
C693 C694 1.389 . S
C694 C693 1.389 . S
C694 C695 1.387 . S
C695 H680 0.930 . S
C695 C690 1.390 . S
C695 C694 1.387 . S
H696 C708 0.930 . S
H697 C710 0.930 . S
H698 C711 0.930 . S
H699 C715 0.959 . S
H700 C715 0.959 . S
H701 C715 0.961 . S
H702 C716 0.960 . S
H703 C716 0.961 . S
H704 C716 0.959 1_554 S
H705 C719 0.929 . S
H706 C720 0.931 . S
H707 C722 0.930 . S
C708 H696 0.930 . S
C708 C709 1.399 1_556 S
C708 C713 1.396 1_556 S
C709 C708 1.399 1_554 S
C709 C710 1.376 . S
C710 H697 0.930 . S
C710 C709 1.376 . S
C710 C711 1.388 . S
C711 H698 0.930 . S
C711 C710 1.388 . S
C711 C712 1.390 . S
C712 C711 1.390 . S
C712 C713 1.407 . S
C712 C718 1.465 1_655 S
C713 C708 1.396 1_554 S
C713 C712 1.407 . S
C713 C714 1.508 1_654 S
C714 C713 1.508 1_456 S
C714 C715 1.502 . S
C714 C716 1.561 . S
C714 C717 1.516 1_556 S
C715 H699 0.959 . S
C715 H700 0.959 . S
C715 H701 0.961 . S
C715 C714 1.502 . S
C716 H702 0.960 . S
C716 H703 0.961 . S
C716 H704 0.959 1_556 S
C716 C714 1.561 . S
C717 C714 1.516 1_554 S
C717 C718 1.413 . S
C717 C722 1.386 1_554 S
C718 C712 1.465 1_455 S
C718 C717 1.413 . S
C718 C719 1.399 . S
C719 H705 0.929 . S
C719 C718 1.399 . S
C719 C720 1.385 . S
C720 H706 0.931 . S
C720 C719 1.385 . S
C720 C721 1.389 . S
C721 C720 1.389 . S
C721 C722 1.387 1_554 S
C722 H707 0.930 . S
C722 C717 1.386 1_556 S
C722 C721 1.387 1_556 S
H723 C735 0.930 . S
H724 C737 0.930 . S
H725 C738 0.930 . S
H726 C742 0.959 1_565 S
H727 C742 0.959 . S
H728 C742 0.961 . S
H729 C743 0.960 . S
H730 C743 0.961 . S
H731 C743 0.959 . S
H732 C746 0.929 . S
H733 C747 0.931 . S
H734 C749 0.930 . S
C735 H723 0.930 . S
C735 C736 1.399 . S
C735 C740 1.399 . S
C736 C735 1.399 . S
C736 C737 1.376 1_554 S
C737 H724 0.930 . S
C737 C736 1.376 1_556 S
C737 C738 1.388 . S
C738 H725 0.930 . S
C738 C737 1.388 . S
C738 C739 1.390 . S
C739 C738 1.390 . S
C739 C740 1.394 1_556 S
C739 C745 1.465 1_545 S
C740 C735 1.399 . S
C740 C739 1.394 1_554 S
C740 C741 1.516 . S
C741 C740 1.516 . S
C741 C742 1.502 . S
C741 C743 1.561 . S
C741 C744 1.526 1_545 S
C742 H726 0.959 1_545 S
C742 H727 0.959 . S
C742 H728 0.961 . S
C742 C741 1.502 . S
C743 H729 0.960 . S
C743 H730 0.961 . S
C743 H731 0.959 . S
C743 C741 1.561 . S
C744 C741 1.526 1_565 S
C744 C745 1.396 1_554 S
C744 C749 1.390 . S
C745 C739 1.465 1_565 S
C745 C744 1.396 1_556 S
C745 C746 1.399 . S
C746 H732 0.929 . S
C746 C745 1.399 . S
C746 C747 1.385 . S
C747 H733 0.931 . S
C747 C746 1.385 . S
C747 C748 1.389 1_556 S
C748 C747 1.389 1_554 S
C748 C749 1.387 . S
C749 H734 0.930 . S
C749 C744 1.390 . S
C749 C748 1.387 . S
H750 C762 0.930 . S
H751 C764 0.930 . S
H752 C765 0.930 . S
H753 C769 0.959 . S
H754 C769 0.959 . S
H755 C769 0.961 . S
H756 C770 0.960 . S
H757 C770 0.961 1_565 S
H758 C770 0.959 . S
H759 C773 0.929 1_545 S
H760 C774 0.931 . S
H761 C776 0.930 . S
C762 H750 0.930 . S
C762 C763 1.399 . S
C762 C767 1.399 . S
C763 C762 1.399 . S
C763 C764 1.376 . S
C764 H751 0.930 . S
C764 C763 1.376 . S
C764 C765 1.388 . S
C765 H752 0.930 . S
C765 C764 1.388 . S
C765 C766 1.390 . S
C766 C765 1.390 . S
C766 C767 1.394 . S
C766 C772 1.465 1_545 S
C767 C762 1.399 . S
C767 C766 1.394 . S
C767 C768 1.516 1_545 S
C768 C767 1.516 1_565 S
C768 C769 1.502 . S
C768 C770 1.561 1_565 S
C768 C771 1.526 . S
C769 H753 0.959 . S
C769 H754 0.959 . S
C769 H755 0.961 . S
C769 C768 1.502 . S
C770 H756 0.960 . S
C770 H757 0.961 1_545 S
C770 H758 0.959 . S
C770 C768 1.561 1_545 S
C771 C768 1.526 . S
C771 C772 1.396 . S
C771 C776 1.390 . S
C772 C766 1.465 1_565 S
C772 C771 1.396 . S
C772 C773 1.399 . S
C773 H759 0.929 1_565 S
C773 C772 1.399 . S
C773 C774 1.385 . S
C774 H760 0.931 . S
C774 C773 1.385 . S
C774 C775 1.389 . S
C775 C774 1.389 . S
C775 C776 1.387 . S
C776 H761 0.930 . S
C776 C771 1.390 . S
C776 C775 1.387 . S
H777 C789 0.930 . S
H778 C791 0.930 . S
H779 C792 0.930 1_655 S
H780 C796 0.959 . S
H781 C796 0.959 . S
H782 C796 0.961 . S
H783 C797 0.960 1_455 S
H784 C797 0.961 . S
H785 C797 0.959 . S
H786 C800 0.929 . S
H787 C801 0.931 . S
H788 C803 0.930 . S
C789 H777 0.930 . S
C789 C790 1.399 . S
C789 C794 1.399 . S
C790 C789 1.399 . S
C790 C791 1.376 . S
C791 H778 0.930 . S
C791 C790 1.376 . S
C791 C792 1.388 . S
C792 H779 0.930 1_455 S
C792 C791 1.388 . S
C792 C793 1.390 . S
C793 C792 1.390 . S
C793 C794 1.394 . S
C793 C799 1.465 1_455 S
C794 C789 1.399 . S
C794 C793 1.394 . S
C794 C795 1.516 . S
C795 C794 1.516 . S
C795 C796 1.502 . S
C795 C797 1.561 1_455 S
C795 C798 1.526 1_455 S
C796 H780 0.959 . S
C796 H781 0.959 . S
C796 H782 0.961 . S
C796 C795 1.502 . S
C797 H783 0.960 1_655 S
C797 H784 0.961 . S
C797 H785 0.959 . S
C797 C795 1.561 1_655 S
C798 C795 1.526 1_655 S
C798 C799 1.396 . S
C798 C803 1.390 . S
C799 C793 1.465 1_655 S
C799 C798 1.396 . S
C799 C800 1.399 . S
C800 H786 0.929 . S
C800 C799 1.399 . S
C800 C801 1.385 . S
C801 H787 0.931 . S
C801 C800 1.385 . S
C801 C802 1.389 . S
C802 C801 1.389 . S
C802 C803 1.387 . S
C803 H788 0.930 . S
C803 C798 1.390 . S
C803 C802 1.387 . S
C277 C51 0.735 1_554 S
C289 N2 0.779 . S
C304 N35 0.782 . S
C316 C84 0.770 . S
C331 N68 0.754 . S
C343 C117 0.729 1_554 S
C358 C18 0.770 . S
C370 N101 0.788 . S
C385 C183 0.726 . S
C397 N134 0.691 . S
C412 C216 0.749 . S
C424 N167 0.807 . S
C439 N200 0.711 . S
C451 C249 0.756 . S
C466 N233 0.739 . S
C478 C150 0.728 . S
C493 C219 1.506 . S
C505 C7 1.504 . S
C520 C40 1.530 . S
C532 C252 1.481 . S
C547 C73 1.473 . S
C559 C153 1.527 . S
C574 C106 1.527 . S
C586 C186 1.482 . S
C601 C139 1.518 . S
C613 C87 1.498 . S
C628 C172 1.464 . S
C640 C120 1.542 . S
C655 C205 1.480 . S
C667 C21 1.526 . S
C682 C54 1.483 . S
C694 C238 1.532 . S
C709 N79 2.195 . S
C721 N13 2.189 . S
C736 N46 2.207 . S
C748 N112 2.212 . S
C763 N211 2.188 . S
C775 N145 2.198 . S
C790 N178 2.212 . S
C802 N244 2.204 . S
