# Generated by pormake.
# Topology ukj, (4)-cn, num edge types: 1
# Building blocks:
#     Node 0, Type 0, BuildingBlock: ESEHIV_clean_sbu_0, # of connection points: 4
#     Node 1, Type 0, BuildingBlock: ESEHIV_clean_sbu_0, # of connection points: 4
#     Node 2, Type 0, BuildingBlock: ESEHIV_clean_sbu_0, # of connection points: 4
#     Node 3, Type 0, BuildingBlock: ESEHIV_clean_sbu_0, # of connection points: 4
#     Node 4, Type 0, BuildingBlock: ESEHIV_clean_sbu_0, # of connection points: 4
#     Node 5, Type 0, BuildingBlock: ESEHIV_clean_sbu_0, # of connection points: 4
#     Node 6, Type 0, BuildingBlock: ESEHIV_clean_sbu_0, # of connection points: 4
#     Node 7, Type 0, BuildingBlock: ESEHIV_clean_sbu_0, # of connection points: 4
#     Node 8, Type 0, BuildingBlock: ESEHIV_clean_sbu_0, # of connection points: 4
#     Node 9, Type 0, BuildingBlock: ESEHIV_clean_sbu_0, # of connection points: 4
#     Node 10, Type 0, BuildingBlock: ESEHIV_clean_sbu_0, # of connection points: 4
#     Node 11, Type 0, BuildingBlock: ESEHIV_clean_sbu_0, # of connection points: 4
#     Node 12, Type 0, BuildingBlock: ESEHIV_clean_sbu_0, # of connection points: 4
#     Node 13, Type 0, BuildingBlock: ESEHIV_clean_sbu_0, # of connection points: 4
#     Node 14, Type 0, BuildingBlock: ESEHIV_clean_sbu_0, # of connection points: 4
#     Node 15, Type 0, BuildingBlock: ESEHIV_clean_sbu_0, # of connection points: 4
#     Node 16, Type 0, BuildingBlock: ESEHIV_clean_sbu_0, # of connection points: 4
#     Node 17, Type 0, BuildingBlock: ESEHIV_clean_sbu_0, # of connection points: 4
#     Node 18, Type 0, BuildingBlock: ESEHIV_clean_sbu_0, # of connection points: 4
#     Node 19, Type 0, BuildingBlock: ESEHIV_clean_sbu_0, # of connection points: 4
#     Node 20, Type 0, BuildingBlock: ESEHIV_clean_sbu_0, # of connection points: 4
#     Node 21, Type 0, BuildingBlock: ESEHIV_clean_sbu_0, # of connection points: 4
#     Node 22, Type 0, BuildingBlock: ESEHIV_clean_sbu_0, # of connection points: 4
#     Node 23, Type 0, BuildingBlock: ESEHIV_clean_sbu_0, # of connection points: 4
#     Node 24, Type 0, BuildingBlock: ESEHIV_clean_sbu_0, # of connection points: 4
#     Node 25, Type 0, BuildingBlock: ESEHIV_clean_sbu_0, # of connection points: 4
#     Node 26, Type 0, BuildingBlock: ESEHIV_clean_sbu_0, # of connection points: 4
#     Node 27, Type 0, BuildingBlock: ESEHIV_clean_sbu_0, # of connection points: 4
#     Node 28, Type 0, BuildingBlock: ESEHIV_clean_sbu_0, # of connection points: 4
#     Node 29, Type 0, BuildingBlock: ESEHIV_clean_sbu_0, # of connection points: 4
#     Node 30, Type 0, BuildingBlock: ESEHIV_clean_sbu_0, # of connection points: 4
#     Node 31, Type 0, BuildingBlock: ESEHIV_clean_sbu_0, # of connection points: 4
#     Edge 32, Type (0, 0), BuildingBlock: TEMPAE_clean_linker_10, # of connection points: 2
#     Edge 33, Type (0, 0), BuildingBlock: TEMPAE_clean_linker_10, # of connection points: 2
#     Edge 34, Type (0, 0), BuildingBlock: TEMPAE_clean_linker_10, # of connection points: 2
#     Edge 35, Type (0, 0), BuildingBlock: TEMPAE_clean_linker_10, # of connection points: 2
#     Edge 36, Type (0, 0), BuildingBlock: TEMPAE_clean_linker_10, # of connection points: 2
#     Edge 37, Type (0, 0), BuildingBlock: TEMPAE_clean_linker_10, # of connection points: 2
#     Edge 38, Type (0, 0), BuildingBlock: TEMPAE_clean_linker_10, # of connection points: 2
#     Edge 39, Type (0, 0), BuildingBlock: TEMPAE_clean_linker_10, # of connection points: 2
#     Edge 40, Type (0, 0), BuildingBlock: TEMPAE_clean_linker_10, # of connection points: 2
#     Edge 41, Type (0, 0), BuildingBlock: TEMPAE_clean_linker_10, # of connection points: 2
#     Edge 42, Type (0, 0), BuildingBlock: TEMPAE_clean_linker_10, # of connection points: 2
#     Edge 43, Type (0, 0), BuildingBlock: TEMPAE_clean_linker_10, # of connection points: 2
#     Edge 44, Type (0, 0), BuildingBlock: TEMPAE_clean_linker_10, # of connection points: 2
#     Edge 45, Type (0, 0), BuildingBlock: TEMPAE_clean_linker_10, # of connection points: 2
#     Edge 46, Type (0, 0), BuildingBlock: TEMPAE_clean_linker_10, # of connection points: 2
#     Edge 47, Type (0, 0), BuildingBlock: TEMPAE_clean_linker_10, # of connection points: 2
#     Edge 48, Type (0, 0), BuildingBlock: TEMPAE_clean_linker_10, # of connection points: 2
#     Edge 49, Type (0, 0), BuildingBlock: TEMPAE_clean_linker_10, # of connection points: 2
#     Edge 50, Type (0, 0), BuildingBlock: TEMPAE_clean_linker_10, # of connection points: 2
#     Edge 51, Type (0, 0), BuildingBlock: TEMPAE_clean_linker_10, # of connection points: 2
#     Edge 52, Type (0, 0), BuildingBlock: TEMPAE_clean_linker_10, # of connection points: 2
#     Edge 53, Type (0, 0), BuildingBlock: TEMPAE_clean_linker_10, # of connection points: 2
#     Edge 54, Type (0, 0), BuildingBlock: TEMPAE_clean_linker_10, # of connection points: 2
#     Edge 55, Type (0, 0), BuildingBlock: TEMPAE_clean_linker_10, # of connection points: 2
#     Edge 56, Type (0, 0), BuildingBlock: TEMPAE_clean_linker_10, # of connection points: 2
#     Edge 57, Type (0, 0), BuildingBlock: TEMPAE_clean_linker_10, # of connection points: 2
#     Edge 58, Type (0, 0), BuildingBlock: TEMPAE_clean_linker_10, # of connection points: 2
#     Edge 59, Type (0, 0), BuildingBlock: TEMPAE_clean_linker_10, # of connection points: 2
#     Edge 60, Type (0, 0), BuildingBlock: TEMPAE_clean_linker_10, # of connection points: 2
#     Edge 61, Type (0, 0), BuildingBlock: TEMPAE_clean_linker_10, # of connection points: 2
#     Edge 62, Type (0, 0), BuildingBlock: TEMPAE_clean_linker_10, # of connection points: 2
#     Edge 63, Type (0, 0), BuildingBlock: TEMPAE_clean_linker_10, # of connection points: 2
#     Edge 64, Type (0, 0), BuildingBlock: TEMPAE_clean_linker_10, # of connection points: 2
#     Edge 65, Type (0, 0), BuildingBlock: TEMPAE_clean_linker_10, # of connection points: 2
#     Edge 66, Type (0, 0), BuildingBlock: TEMPAE_clean_linker_10, # of connection points: 2
#     Edge 67, Type (0, 0), BuildingBlock: TEMPAE_clean_linker_10, # of connection points: 2
#     Edge 68, Type (0, 0), BuildingBlock: TEMPAE_clean_linker_10, # of connection points: 2
#     Edge 69, Type (0, 0), BuildingBlock: TEMPAE_clean_linker_10, # of connection points: 2
#     Edge 70, Type (0, 0), BuildingBlock: TEMPAE_clean_linker_10, # of connection points: 2
#     Edge 71, Type (0, 0), BuildingBlock: TEMPAE_clean_linker_10, # of connection points: 2
#     Edge 72, Type (0, 0), BuildingBlock: TEMPAE_clean_linker_10, # of connection points: 2
#     Edge 73, Type (0, 0), BuildingBlock: TEMPAE_clean_linker_10, # of connection points: 2
#     Edge 74, Type (0, 0), BuildingBlock: TEMPAE_clean_linker_10, # of connection points: 2
#     Edge 75, Type (0, 0), BuildingBlock: TEMPAE_clean_linker_10, # of connection points: 2
#     Edge 76, Type (0, 0), BuildingBlock: TEMPAE_clean_linker_10, # of connection points: 2
#     Edge 77, Type (0, 0), BuildingBlock: TEMPAE_clean_linker_10, # of connection points: 2
#     Edge 78, Type (0, 0), BuildingBlock: TEMPAE_clean_linker_10, # of connection points: 2
#     Edge 79, Type (0, 0), BuildingBlock: TEMPAE_clean_linker_10, # of connection points: 2
#     Edge 80, Type (0, 0), BuildingBlock: TEMPAE_clean_linker_10, # of connection points: 2
#     Edge 81, Type (0, 0), BuildingBlock: TEMPAE_clean_linker_10, # of connection points: 2
#     Edge 82, Type (0, 0), BuildingBlock: TEMPAE_clean_linker_10, # of connection points: 2
#     Edge 83, Type (0, 0), BuildingBlock: TEMPAE_clean_linker_10, # of connection points: 2
#     Edge 84, Type (0, 0), BuildingBlock: TEMPAE_clean_linker_10, # of connection points: 2
#     Edge 85, Type (0, 0), BuildingBlock: TEMPAE_clean_linker_10, # of connection points: 2
#     Edge 86, Type (0, 0), BuildingBlock: TEMPAE_clean_linker_10, # of connection points: 2
#     Edge 87, Type (0, 0), BuildingBlock: TEMPAE_clean_linker_10, # of connection points: 2
#     Edge 88, Type (0, 0), BuildingBlock: TEMPAE_clean_linker_10, # of connection points: 2
#     Edge 89, Type (0, 0), BuildingBlock: TEMPAE_clean_linker_10, # of connection points: 2
#     Edge 90, Type (0, 0), BuildingBlock: TEMPAE_clean_linker_10, # of connection points: 2
#     Edge 91, Type (0, 0), BuildingBlock: TEMPAE_clean_linker_10, # of connection points: 2
#     Edge 92, Type (0, 0), BuildingBlock: TEMPAE_clean_linker_10, # of connection points: 2
#     Edge 93, Type (0, 0), BuildingBlock: TEMPAE_clean_linker_10, # of connection points: 2
#     Edge 94, Type (0, 0), BuildingBlock: TEMPAE_clean_linker_10, # of connection points: 2
#     Edge 95, Type (0, 0), BuildingBlock: TEMPAE_clean_linker_10, # of connection points: 2
# Relax obj value: 0.004
# Max RMSD: 0.095
# Mean RMSD: 0.095
data_MOF--net-ukj--node1-ESEHIV_clean_sbu_0--edge1-TEMPAE_clean_linker_10
_symmetry_space_group_name_H-M    P1
_symmetry_Int_Tables_number       1
_symmetry_cell_setting            triclinic
loop_
_symmetry_equiv_pos_as_xyz
'x, y, z'
_cell_length_a     40.091942
_cell_length_b     71.476725
_cell_length_c     56.727243
_cell_angle_alpha  90.004442
_cell_angle_beta   90.02194
_cell_angle_gamma 89.979925
loop_
_atom_site_label
_atom_site_type_symbol
_atom_site_fract_x
_atom_site_fract_y
_atom_site_fract_z
_atom_type_partial_charge
Cu0 Cu 0.1811 0.35128 0.2684 0.0
N1 N 0.20152 0.3749 0.27095 0.0
N2 N 0.24712 0.39319 0.27403 0.0
C3 C 0.23383 0.37735 0.26491 0.0
C4 C 0.22178 0.40108 0.28627 0.0
C5 C 0.1939 0.38972 0.28452 0.0
O6 O 0.20312 0.33874 0.29475 0.0
C7 C 0.17868 0.35473 0.22078 0.0
O8 O 0.16551 0.37042 0.22849 0.0
H9 H 0.24805 0.36673 0.25577 0.0
H10 H 0.17076 0.39144 0.29405 0.0
N11 N 0.1343 0.34961 0.27225 0.0
N12 N 0.08354 0.33596 0.27233 0.0
C13 C 0.11642 0.33404 0.26729 0.0
C14 C 0.11195 0.36199 0.28056 0.0
C15 C 0.08077 0.35365 0.28064 0.0
C16 C 0.18716 0.33619 0.31395 0.0
O17 O 0.15615 0.33037 0.31271 0.0
H18 H 0.12775 0.32133 0.26071 0.0
H19 H 0.11782 0.37602 0.28631 0.0
O20 O 0.18914 0.34287 0.23597 0.0
H21 H 0.22349 0.41371 0.2967 0.0
H22 H 0.05786 0.36026 0.28629 0.0
Cu23 Cu 0.10516 0.92691 0.26198 0.0
N24 N 0.05867 0.92872 0.25719 0.0
N25 N 1.00477 0.92027 0.25418 0.0
C26 C 0.03513 0.916 0.26323 0.0
C27 C 1.00948 0.93636 0.24214 0.0
C28 C 0.04258 0.9415 0.24402 0.0
O29 O 0.11172 0.91113 0.28991 0.0
C30 C 0.11159 0.90452 0.22007 0.0
O31 O 0.08649 0.89477 0.22845 0.0
H32 H 0.04056 0.90336 0.27301 0.0
H33 H 0.05439 0.95336 0.23563 0.0
N34 N 0.12516 0.95056 0.26691 0.0
N35 N 0.16392 0.97335 0.26808 0.0
C36 C 0.15724 0.9553 0.26243 0.0
C37 C 0.11102 0.96616 0.27561 0.0
C38 C 0.13473 0.98019 0.2763 0.0
C39 C 0.13551 0.91318 0.30462 0.0
O40 O 0.15955 0.92503 0.29977 0.0
H41 H 0.17528 0.94566 0.25508 0.0
H42 H 0.08529 0.96724 0.28117 0.0
O43 O 0.12435 0.91743 0.23267 0.0
H44 H 0.99046 0.94377 0.23232 0.0
H45 H 0.13085 0.99427 0.28279 0.0
Cu46 Cu 0.19198 0.92395 1.00724 0.0
N47 N 0.23909 0.92538 1.00855 0.0
N48 N 0.2932 0.91686 1.00945 0.0
C49 C 0.26185 0.91219 1.00258 0.0
C50 C 0.28986 0.93369 0.02001 0.0
C51 C 0.25673 0.93876 0.01964 0.0
O52 O 0.17851 0.91122 0.97819 0.0
C53 C 0.14971 0.90858 0.04424 0.0
O54 O 0.12423 0.91124 0.0301 0.0
H55 H 0.25535 0.89898 0.99455 0.0
H56 H 0.24606 0.95096 0.02799 0.0
N57 N 0.17271 0.94817 1.00618 0.0
N58 N 0.13513 0.97158 1.00675 0.0
C59 C 0.14025 0.95293 1.00901 0.0
C60 C 0.18838 0.96441 1.00144 0.0
C61 C 0.16546 0.97881 1.002 0.0
C62 C 0.18451 0.8943 0.97257 0.0
O63 O 0.19861 0.88316 0.98805 0.0
H64 H 0.12066 0.94299 0.01262 0.0
H65 H 0.21458 0.96573 0.99735 0.0
O66 O 0.17911 0.91188 0.03687 0.0
H67 H 0.30978 0.94167 0.02804 0.0
H68 H 0.17063 0.99342 0.9986 0.0
Cu69 Cu 0.10031 0.32815 1.0068 0.0
N70 N 0.05331 0.32684 1.0044 0.0
N71 N 0.99907 0.33491 1.00446 0.0
C72 C 0.03056 0.34005 0.01027 0.0
C73 C 1.00221 0.31778 0.99469 0.0
C74 C 0.03552 0.31293 0.99456 0.0
O75 O 0.11694 0.34152 0.97901 0.0
C76 C 0.14195 0.33874 0.04529 0.0
O77 O 0.16626 0.33411 0.03092 0.0
H78 H 0.03702 0.35326 0.0184 0.0
H79 H 0.04614 0.30031 0.98717 0.0
N80 N 0.11939 0.30408 1.00642 0.0
N81 N 0.15873 0.28166 1.00637 0.0
C82 C 0.15131 0.29968 1.00111 0.0
C83 C 0.10604 0.28827 0.0151 0.0
C84 C 0.13005 0.27445 0.01499 0.0
C85 C 0.10301 0.35623 0.97095 0.0
O86 O 0.0795 0.36429 0.98346 0.0
H87 H 0.16925 0.30983 0.99484 0.0
H88 H 0.08102 0.28709 0.02206 0.0
O89 O 0.11209 0.33884 0.03751 0.0
H90 H 0.982 0.30959 0.98736 0.0
H91 H 0.12675 0.26031 0.02138 0.0
Cu92 Cu 0.85934 0.66753 0.75046 0.0
N93 N 0.81293 0.67041 0.7539 0.0
N94 N 0.75835 0.66339 0.75619 0.0
C95 C 0.78944 0.65699 0.75136 0.0
C96 C 0.76268 0.68161 0.76186 0.0
C97 C 0.7962 0.68585 0.76048 0.0
O98 O 0.86576 0.65013 0.72402 0.0
C99 C 0.86502 0.64647 0.79371 0.0
O100 O 0.84151 0.63566 0.78507 0.0
H101 H 0.79529 0.64268 0.7467 0.0
H102 H 0.80764 0.69922 0.76427 0.0
N103 N 0.88 0.69064 0.7438 0.0
N104 N 0.91829 0.71367 0.74255 0.0
C105 C 0.91071 0.69631 0.75064 0.0
C106 C 0.86764 0.70487 0.731 0.0
C107 C 0.89101 0.71902 0.73023 0.0
C108 C 0.88833 0.65189 0.70831 0.0
O109 O 0.91155 0.66465 0.71115 0.0
H110 H 0.92735 0.68765 0.76095 0.0
H111 H 0.8433 0.70492 0.72277 0.0
O112 O 0.87705 0.65948 0.78093 0.0
H113 H 0.74307 0.69129 0.76665 0.0
H114 H 0.88784 0.73231 0.72138 0.0
Cu115 Cu 0.93835 0.08613 0.75754 0.0
N116 N 0.98526 0.08473 0.76039 0.0
N117 N 0.03961 0.09262 0.76126 0.0
C118 C 1.00833 0.09789 0.75502 0.0
C119 C 0.03593 0.07538 0.77069 0.0
C120 C 1.00261 0.07062 0.77017 0.0
O121 O 0.92674 0.09866 0.72798 0.0
C122 C 0.93524 0.10748 0.80063 0.0
O123 O 0.96477 0.11382 0.79463 0.0
H124 H 1.00213 0.11137 0.7476 0.0
H125 H 0.99166 0.05789 0.77695 0.0
N126 N 0.91951 0.06209 0.75514 0.0
N127 N 0.881 0.03926 0.7547 0.0
C128 C 0.88799 0.05715 0.76087 0.0
C129 C 0.93294 0.04682 0.74505 0.0
C130 C 0.90937 0.03275 0.74479 0.0
C131 C 0.93236 0.11557 0.72214 0.0
O132 O 0.94518 0.1271 0.73773 0.0
H133 H 0.87012 0.06675 0.7685 0.0
H134 H 0.95786 0.04613 0.73779 0.0
O135 O 0.91939 0.09697 0.78633 0.0
H136 H 0.05584 0.06678 0.77764 0.0
H137 H 0.91282 0.01885 0.73763 0.0
Cu138 Cu 0.86155 0.08996 0.01625 0.0
N139 N 0.81478 0.08749 0.01309 0.0
N140 N 0.75996 0.09412 0.01089 0.0
C141 C 0.79084 0.10062 0.01617 0.0
C142 C 0.76478 0.07613 1.00442 0.0
C143 C 0.7984 0.07213 1.00576 0.0
O144 O 0.8718 0.10437 0.04481 0.0
C145 C 0.86488 0.10989 0.97208 0.0
O146 O 0.83584 0.11693 0.97805 0.0
H147 H 0.79601 0.11485 0.02129 0.0
H148 H 0.81018 0.05899 1.0013 0.0
N149 N 0.88122 0.06633 0.02099 0.0
N150 N 0.91947 0.04338 0.02249 0.0
C151 C 0.91176 0.06055 0.01394 0.0
C152 C 0.86921 0.05234 0.03437 0.0
C153 C 0.89262 0.0382 0.0353 0.0
C154 C 0.86304 0.12111 0.04947 0.0
O155 O 0.84834 0.13118 0.03313 0.0
H156 H 0.92851 0.06909 1.00355 0.0
H157 H 0.84541 0.05261 0.04334 0.0
O158 O 0.8804 0.09949 0.98671 0.0
H159 H 0.74547 0.06647 0.99901 0.0
H160 H 0.89013 0.02518 0.04487 0.0
Cu161 Cu 0.93943 0.6692 1.00803 0.0
N162 N 0.98626 0.67131 1.00658 0.0
N163 N 0.04035 0.66284 1.00582 0.0
C164 C 1.00899 0.65816 0.01266 0.0
C165 C 0.03696 0.67963 0.99514 0.0
C166 C 1.0038 0.68466 0.99539 0.0
O167 O 0.92876 0.65477 0.03665 0.0
C168 C 0.89853 0.65399 0.97007 0.0
O169 O 0.8725 0.65685 0.98361 0.0
H170 H 1.00229 0.64495 0.02067 0.0
H171 H 0.99309 0.69674 0.9868 0.0
N172 N 0.91856 0.69307 1.00905 0.0
N173 N 0.87944 0.71566 1.00888 0.0
C174 C 0.8856 0.69706 1.00746 0.0
C175 C 0.93349 0.70978 0.01212 0.0
C176 C 0.90961 0.72366 0.01181 0.0
C177 C 0.92 0.66313 0.05558 0.0
O178 O 0.91597 0.68135 0.05523 0.0
H179 H 0.86641 0.6866 1.00544 0.0
H180 H 0.95988 0.7118 0.01493 0.0
O181 O 0.92765 0.65711 0.97812 0.0
H182 H 0.05683 0.6876 0.98707 0.0
H183 H 0.91407 0.73848 0.01412 0.0
Cu184 Cu 0.19046 0.83309 0.76263 0.0
N185 N 0.23722 0.83177 0.76599 0.0
N186 N 0.29105 0.84051 0.76752 0.0
C187 C 0.26031 0.84435 0.75879 0.0
C188 C 0.28706 0.82478 0.78041 0.0
C189 C 0.25402 0.81949 0.77948 0.0
O190 O 0.17347 0.84532 0.79117 0.0
C191 C 0.15227 0.84562 0.72325 0.0
O192 O 0.12712 0.8385 0.73504 0.0
H193 H 0.25427 0.8567 0.74861 0.0
H194 H 0.24271 0.80793 0.78883 0.0
N195 N 0.17194 0.8088 0.76064 0.0
N196 N 0.13493 0.78515 0.75811 0.0
C197 C 0.13973 0.8035 0.76333 0.0
C198 C 0.18811 0.79324 0.75382 0.0
C199 C 0.16558 0.77872 0.75235 0.0
C200 C 0.18824 0.85956 0.79981 0.0
O201 O 0.21197 0.86757 0.78746 0.0
H202 H 0.12004 0.81311 0.76813 0.0
H203 H 0.21438 0.79259 0.74959 0.0
O204 O 0.18095 0.84604 0.73292 0.0
H205 H 0.30649 0.8178 0.79032 0.0
H206 H 0.17151 0.76455 0.74714 0.0
Cu207 Cu 0.10504 0.4243 0.76574 0.0
N208 N 0.05776 0.42568 0.76504 0.0
N209 N 1.00353 0.41742 0.76387 0.0
C210 C 0.03559 0.41166 0.76143 0.0
C211 C 1.00572 0.43588 0.76867 0.0
C212 C 0.03892 0.4409 0.76928 0.0
O213 O 0.11888 0.40905 0.79281 0.0
C214 C 0.11409 0.42728 0.71773 0.0
O215 O 0.09562 0.44204 0.72224 0.0
H216 H 0.04278 0.39742 0.75754 0.0
H217 H 0.04855 0.45474 0.77275 0.0
N218 N 0.12467 0.44776 0.77169 0.0
N219 N 0.16437 0.46987 0.77403 0.0
C220 C 0.15419 0.45396 0.76322 0.0
C221 C 0.116 0.46012 0.78849 0.0
C222 C 0.14019 0.47379 0.78985 0.0
C223 C 0.10686 0.39335 0.79921 0.0
O224 O 0.08598 0.3846 0.78523 0.0
H225 H 0.16887 0.44631 0.75043 0.0
H226 H 0.09451 0.45876 0.79987 0.0
O227 O 0.12141 0.41635 0.73478 0.0
H228 H 0.98481 0.44518 0.77155 0.0
H229 H 0.14037 0.48542 0.80207 0.0
Cu230 Cu 0.17953 0.4048 0.49955 0.0
N231 N 0.1988 0.38084 0.49782 0.0
N232 N 0.24364 0.36189 0.49559 0.0
C233 C 0.23079 0.37795 0.50441 0.0
C234 C 0.21836 0.35431 0.483 0.0
C235 C 0.19095 0.36607 0.48422 0.0
O236 O 0.20384 0.41704 0.47405 0.0
C237 C 0.16921 0.40263 0.54644 0.0
O238 O 0.15346 0.38811 0.5376 0.0
H239 H 0.24524 0.38842 0.51366 0.0
H240 H 0.1681 0.36465 0.47429 0.0
N241 N 0.13311 0.40722 0.49397 0.0
N242 N 0.08281 0.42141 0.49315 0.0
C243 C 0.11538 0.42275 0.4994 0.0
C244 C 0.111 0.39549 0.48403 0.0
C245 C 0.08011 0.40415 0.48351 0.0
C246 C 0.189 0.42025 0.45455 0.0
O247 O 0.1588 0.42735 0.45523 0.0
H248 H 0.12661 0.435 0.5073 0.0
H249 H 0.1168 0.38166 0.47751 0.0
O250 O 0.18545 0.41312 0.53224 0.0
H251 H 0.21987 0.34163 0.47265 0.0
H252 H 0.05741 0.39804 0.47667 0.0
Cu253 Cu 0.11022 0.83331 0.50575 0.0
N254 N 0.06345 0.83225 0.51016 0.0
N255 N 1.00956 0.84083 0.51302 0.0
C256 C 0.03972 0.84464 0.50331 0.0
C257 C 1.01453 0.82538 0.52624 0.0
C258 C 0.04756 0.82015 0.52443 0.0
O259 O 0.12062 0.84671 0.4766 0.0
C260 C 0.1165 0.85534 0.54796 0.0
O261 O 0.08931 0.8639 0.54084 0.0
H262 H 0.04475 0.85675 0.49248 0.0
H263 H 0.05955 0.80876 0.53369 0.0
N264 N 0.12903 0.80929 0.50211 0.0
N265 N 0.16766 0.78647 0.50075 0.0
C266 C 0.15997 0.8038 0.50877 0.0
C267 C 0.11671 0.79489 0.48956 0.0
C268 C 0.14039 0.78085 0.48869 0.0
C269 C 0.11449 0.86375 0.47167 0.0
O270 O 0.10172 0.87469 0.48795 0.0
H271 H 0.1771 0.81272 0.51834 0.0
H272 H 0.09263 0.79488 0.48096 0.0
O273 O 0.13025 0.84333 0.5345 0.0
H274 H 0.99574 0.81853 0.53687 0.0
H275 H 0.13788 0.76763 0.47956 0.0
Cu276 Cu 0.84717 0.19229 0.25499 0.0
N277 N 0.79994 0.19106 0.2581 0.0
N278 N 0.74691 0.18058 0.25886 0.0
C279 C 0.7793 0.17626 0.25468 0.0
C280 C 0.74715 0.19878 0.26513 0.0
C281 C 0.77967 0.20512 0.2648 0.0
O282 O 0.86043 0.17984 0.22557 0.0
C283 C 0.85618 0.16953 0.2966 0.0
O284 O 0.82942 0.16055 0.28954 0.0
H285 H 0.78768 0.16258 0.24923 0.0
H286 H 0.78799 0.21903 0.26944 0.0
N287 N 0.86183 0.21739 0.25207 0.0
N288 N 0.89462 0.24306 0.25191 0.0
C289 C 0.89169 0.22481 0.25833 0.0
C290 C 0.84542 0.2314 0.24132 0.0
C291 C 0.86528 0.24714 0.24132 0.0
C292 C 0.85589 0.16269 0.22029 0.0
O293 O 0.84397 0.15122 0.23627 0.0
H294 H 0.91122 0.21677 0.26676 0.0
H295 H 0.82086 0.23017 0.23358 0.0
O296 O 0.86826 0.18242 0.28362 0.0
H297 H 0.72542 0.20684 0.27015 0.0
H298 H 0.85843 0.26057 0.23398 0.0
Cu299 Cu 0.94245 0.58229 0.25572 0.0
N300 N 0.98963 0.58025 0.25457 0.0
N301 N 0.04402 0.58813 0.25587 0.0
C302 C 1.0122 0.59377 0.25964 0.0
C303 C 0.04139 0.57021 0.24859 0.0
C304 C 1.00801 0.56542 0.2478 0.0
O305 O 0.92761 0.59765 0.22891 0.0
C306 C 0.90193 0.59509 0.29472 0.0
O307 O 0.87665 0.59436 0.28 0.0
H308 H 1.00546 0.60751 0.26607 0.0
H309 H 0.99794 0.55208 0.24237 0.0
N310 N 0.92109 0.55889 0.25122 0.0
N311 N 0.88056 0.53704 0.25021 0.0
C312 C 0.89303 0.5522 0.26159 0.0
C313 C 0.92655 0.5474 0.23283 0.0
C314 C 0.90191 0.53396 0.23222 0.0
C315 C 0.94309 0.61182 0.22075 0.0
O316 O 0.96821 0.61876 0.23271 0.0
H317 H 0.88072 0.55896 0.27623 0.0
H318 H 0.94592 0.54938 0.2198 0.0
O319 O 0.93122 0.59173 0.28714 0.0
H320 H 0.06206 0.56133 0.24353 0.0
H321 H 0.89928 0.52316 0.21897 0.0
Cu322 Cu 0.84826 0.56604 0.51152 0.0
N323 N 0.80114 0.56718 0.50859 0.0
N324 N 0.74813 0.57774 0.50685 0.0
C325 C 0.78019 0.58171 0.51277 0.0
C326 C 0.74914 0.55993 0.49886 0.0
C327 C 0.78157 0.55357 0.49985 0.0
O328 O 0.86206 0.57914 0.54039 0.0
C329 C 0.85693 0.5889 0.47001 0.0
O330 O 0.8329 0.59931 0.47869 0.0
H331 H 0.78847 0.59515 0.51921 0.0
H332 H 0.7904 0.54002 0.49409 0.0
N333 N 0.86287 0.54096 0.51484 0.0
N334 N 0.89526 0.51511 0.51487 0.0
C335 C 0.89281 0.53348 0.50889 0.0
C336 C 0.84588 0.52687 0.52493 0.0
C337 C 0.86552 0.51103 0.52488 0.0
C338 C 0.85879 0.59653 0.5448 0.0
O339 O 0.84754 0.6077 0.52822 0.0
H340 H 0.91262 0.54152 0.50082 0.0
H341 H 0.82097 0.52807 0.53207 0.0
O342 O 0.868 0.57518 0.48208 0.0
H343 H 0.72801 0.55195 0.49259 0.0
H344 H 0.85815 0.4975 0.53165 0.0
Cu345 Cu 0.94171 0.1745 0.51145 0.0
N346 N 0.98851 0.17653 0.50827 0.0
N347 N 0.04282 0.16845 0.50676 0.0
C348 C 1.01131 0.16283 0.51185 0.0
C349 C 0.0395 0.1865 0.49996 0.0
C350 C 1.00618 0.19139 0.50091 0.0
O351 O 0.93425 0.15806 0.53863 0.0
C352 C 0.93848 0.15817 0.46495 0.0
O353 O 0.96939 0.15289 0.46874 0.0
H354 H 1.00464 0.14881 0.51728 0.0
H355 H 0.99551 0.2048 0.49626 0.0
N356 N 0.92129 0.19777 0.51786 0.0
N357 N 0.88104 0.21961 0.52054 0.0
C358 C 0.89132 0.2037 0.50977 0.0
C359 C 0.9304 0.21046 0.53414 0.0
C360 C 0.90571 0.22389 0.53584 0.0
C361 C 0.90994 0.15992 0.55295 0.0
O362 O 0.88576 0.1716 0.54769 0.0
H363 H 0.87643 0.19587 0.49726 0.0
H364 H 0.95274 0.20955 0.54477 0.0
O365 O 0.92222 0.16603 0.48155 0.0
H366 H 0.05968 0.19562 0.49465 0.0
H367 H 0.90562 0.23568 0.54782 0.0
Cu368 Cu 0.69141 0.33471 0.76526 0.0
N369 N 0.73848 0.33217 0.76692 0.0
N370 N 0.7931 0.33963 0.76633 0.0
C371 C 0.76166 0.34507 0.76075 0.0
C372 C 0.78952 0.32239 0.77574 0.0
C373 C 0.75608 0.31785 0.77601 0.0
O374 O 0.67644 0.35072 0.79167 0.0
C375 C 0.65368 0.34832 0.72432 0.0
O376 O 0.62846 0.35151 0.73855 0.0
H377 H 0.75538 0.35857 0.75334 0.0
H378 H 0.74546 0.30506 0.78277 0.0
N379 N 0.66952 0.31172 0.77077 0.0
N380 N 0.62875 0.2901 0.77232 0.0
C381 C 0.64131 0.30507 0.76059 0.0
C382 C 0.67475 0.30058 0.78953 0.0
C383 C 0.65001 0.28723 0.79041 0.0
C384 C 0.69477 0.36261 0.80241 0.0
O385 O 0.72328 0.36752 0.79293 0.0
H386 H 0.62902 0.31182 0.74588 0.0
H387 H 0.69399 0.30273 0.8026 0.0
O388 O 0.68123 0.34251 0.73284 0.0
H389 H 0.80959 0.31368 0.78223 0.0
H390 H 0.64728 0.27663 0.80389 0.0
Cu391 Cu 0.60052 0.92668 0.76182 0.0
N392 N 0.55382 0.92781 0.76578 0.0
N393 N 0.49984 0.91911 0.76665 0.0
C394 C 0.53033 0.91616 0.75691 0.0
C395 C 0.50461 0.93329 0.78208 0.0
C396 C 0.53767 0.9385 0.78156 0.0
O397 O 0.6184 0.91142 0.78758 0.0
C398 C 0.61577 0.90269 0.72084 0.0
O399 O 0.61457 0.8878 0.7344 0.0
H400 H 0.53596 0.90522 0.74435 0.0
H401 H 0.54952 0.9487 0.79288 0.0
N402 N 0.61998 0.95055 0.76454 0.0
N403 N 0.65905 0.9731 0.76457 0.0
C404 C 0.65295 0.95447 0.7656 0.0
C405 C 0.60473 0.96726 0.76281 0.0
C406 C 0.62864 0.98114 0.7629 0.0
C407 C 0.60228 0.89761 0.79608 0.0
O408 O 0.57601 0.8914 0.78468 0.0
H409 H 0.67212 0.94381 0.76601 0.0
H410 H 0.57813 0.96921 0.76081 0.0
O411 O 0.61078 0.9188 0.72971 0.0
H412 H 0.48605 0.93884 0.79402 0.0
H413 H 0.62394 0.99601 0.76151 0.0
Cu414 Cu 0.69376 0.92099 0.50714 0.0
N415 N 0.74073 0.92281 0.50415 0.0
N416 N 0.79512 0.91494 0.50363 0.0
C417 C 0.76366 0.90939 0.50889 0.0
C418 C 0.79181 0.93255 0.49536 0.0
C419 C 0.75841 0.93729 0.49554 0.0
O420 O 0.67683 0.90862 0.47876 0.0
C421 C 0.65558 0.9056 0.54509 0.0
O422 O 0.62966 0.90978 0.53193 0.0
H423 H 0.75739 0.89579 0.51598 0.0
H424 H 0.7477 0.95027 0.48933 0.0
N425 N 0.67317 0.94476 0.50942 0.0
N426 N 0.63365 0.96717 0.51135 0.0
C427 C 0.64075 0.94917 0.50551 0.0
C428 C 0.687 0.9605 0.51794 0.0
C429 C 0.66295 0.97427 0.51903 0.0
C430 C 0.68988 0.89371 0.47058 0.0
O431 O 0.71262 0.88502 0.48316 0.0
H432 H 0.62247 0.93914 0.49942 0.0
H433 H 0.71263 0.96175 0.52367 0.0
O434 O 0.68476 0.90803 0.53677 0.0
H435 H 0.81201 0.94119 0.48891 0.0
H436 H 0.66685 0.98841 0.52527 0.0
Cu437 Cu 0.58456 0.32218 0.50736 0.0
N438 N 0.53899 0.31529 0.50714 0.0
N439 N 0.48281 0.31694 0.50641 0.0
C440 C 0.51199 0.32633 0.50342 0.0
C441 C 0.49214 0.29934 0.51212 0.0
C442 C 0.52646 0.29842 0.51271 0.0
O443 O 0.59032 0.34069 0.48174 0.0
C444 C 0.61576 0.34199 0.54722 0.0
O445 O 0.63552 0.35045 0.53213 0.0
H446 H 0.5138 0.34108 0.49936 0.0
H447 H 0.54125 0.28633 0.51739 0.0
N448 N 0.61202 0.30097 0.50208 0.0
N449 N 0.65559 0.28111 0.50217 0.0
C450 C 0.64402 0.29811 0.50896 0.0
C451 C 0.60339 0.28532 0.49037 0.0
C452 C 0.62997 0.27307 0.49055 0.0
C453 C 0.6113 0.33859 0.46497 0.0
O454 O 0.63297 0.32486 0.46623 0.0
H455 H 0.65843 0.30823 0.51886 0.0
H456 H 0.57945 0.28302 0.4821 0.0
O457 O 0.59347 0.3308 0.53962 0.0
H458 H 0.47545 0.2878 0.51573 0.0
H459 H 0.63061 0.2594 0.48234 0.0
Cu460 Cu 0.35601 0.67314 0.25889 0.0
N461 N 0.30926 0.67373 0.26359 0.0
N462 N 0.25571 0.66451 0.26639 0.0
C463 C 0.28593 0.66121 0.25648 0.0
C464 C 0.26023 0.6798 0.28 0.0
C465 C 0.29306 0.6854 0.27825 0.0
O466 O 0.36624 0.66089 0.22899 0.0
C467 C 0.3622 0.65023 0.30028 0.0
O468 O 0.33297 0.64346 0.29426 0.0
H469 H 0.29137 0.64931 0.24535 0.0
H470 H 0.3047 0.69674 0.28782 0.0
N471 N 0.37443 0.69739 0.25701 0.0
N472 N 0.41253 0.72052 0.25614 0.0
C473 C 0.40696 0.70201 0.25961 0.0
C474 C 0.35883 0.71352 0.25177 0.0
C475 C 0.38214 0.72775 0.25124 0.0
C476 C 0.36142 0.64374 0.22395 0.0
O477 O 0.35015 0.63237 0.2403 0.0
H478 H 0.42627 0.69185 0.26338 0.0
H479 H 0.3324 0.71481 0.24833 0.0
O480 O 0.37681 0.6617 0.28651 0.0
H481 H 0.2413 0.68629 0.29087 0.0
H482 H 0.37694 0.74232 0.2476 0.0
Cu483 Cu 0.44358 0.08783 0.25274 0.0
N484 N 0.49089 0.08676 0.25095 0.0
N485 N 0.54424 0.09669 0.25044 0.0
C486 C 0.51276 0.10011 0.25803 0.0
C487 C 0.5422 0.08035 0.23861 0.0
C488 C 0.50954 0.07429 0.239 0.0
O489 O 0.42807 0.10242 0.22559 0.0
C490 C 0.40281 0.10142 0.29105 0.0
O491 O 0.37751 0.09964 0.27649 0.0
H492 H 0.50532 0.11272 0.26721 0.0
H493 H 0.50004 0.06198 0.23028 0.0
N494 N 0.42295 0.06408 0.24886 0.0
N495 N 0.38281 0.04195 0.24787 0.0
C496 C 0.39489 0.05727 0.25917 0.0
C497 C 0.42866 0.05253 0.23056 0.0
C498 C 0.40441 0.03891 0.23003 0.0
C499 C 0.44412 0.11604 0.21656 0.0
O500 O 0.46959 0.12307 0.22807 0.0
H501 H 0.38224 0.06409 0.27362 0.0
H502 H 0.4476 0.05467 0.2173 0.0
O503 O 0.4322 0.09807 0.28369 0.0
H504 H 0.56273 0.07349 0.22974 0.0
H505 H 0.40212 0.02807 0.21681 0.0
Cu506 Cu 0.35455 0.08188 0.50887 0.0
N507 N 0.30739 0.08124 0.50617 0.0
N508 N 0.25346 0.0902 0.50462 0.0
C509 C 0.28503 0.095 0.51083 0.0
C510 C 0.25623 0.07266 0.49592 0.0
C511 C 0.28925 0.06727 0.49682 0.0
O512 O 0.36714 0.09526 0.53761 0.0
C513 C 0.36009 0.10417 0.46652 0.0
O514 O 0.33444 0.1137 0.47447 0.0
H515 H 0.29194 0.10854 0.51773 0.0
H516 H 0.29946 0.0542 0.49049 0.0
N517 N 0.37313 0.05771 0.51212 0.0
N518 N 0.41154 0.0347 0.51355 0.0
C519 C 0.40524 0.05283 0.50799 0.0
C520 C 0.35858 0.04216 0.52058 0.0
C521 C 0.38202 0.028 0.52141 0.0
C522 C 0.36213 0.1124 0.54258 0.0
O523 O 0.34934 0.12353 0.52652 0.0
H524 H 0.42385 0.06261 0.50176 0.0
H525 H 0.33286 0.04124 0.5262 0.0
O526 O 0.37309 0.09152 0.47941 0.0
H527 H 0.23591 0.06427 0.48917 0.0
H528 H 0.37753 0.01386 0.52743 0.0
Cu529 Cu 0.4437 0.66965 0.51252 0.0
N530 N 0.49039 0.6706 0.50798 0.0
N531 N 0.54407 0.6613 0.50606 0.0
C532 C 0.51268 0.65697 0.51317 0.0
C533 C 0.54119 0.67847 0.49623 0.0
C534 C 0.50827 0.68409 0.49737 0.0
O535 O 0.43666 0.65513 0.54137 0.0
C536 C 0.43746 0.64776 0.47009 0.0
O537 O 0.46635 0.64045 0.47596 0.0
H538 H 0.50561 0.6438 0.52114 0.0
H539 H 0.49797 0.69696 0.49048 0.0
N540 N 0.42444 0.69368 0.51583 0.0
N541 N 0.38614 0.71672 0.51535 0.0
C542 C 0.39216 0.69828 0.51181 0.0
C543 C 0.43932 0.70981 0.52211 0.0
C544 C 0.41587 0.724 0.52174 0.0
C545 C 0.4132 0.65795 0.55611 0.0
O546 O 0.38951 0.66994 0.55088 0.0
H547 H 0.37348 0.68828 0.5062 0.0
H548 H 0.46539 0.71116 0.52668 0.0
O549 O 0.42318 0.65907 0.48424 0.0
H550 H 0.56134 0.68648 0.48856 0.0
H551 H 0.42027 0.73851 0.52621 0.0
Cu552 Cu 0.69176 0.83555 0.25992 0.0
N553 N 0.7391 0.83487 0.26159 0.0
N554 N 0.79301 0.84377 0.26172 0.0
C555 C 0.76092 0.84913 0.25831 0.0
C556 C 0.79125 0.82548 0.26746 0.0
C557 C 0.75819 0.82011 0.26755 0.0
O558 O 0.67576 0.84668 0.28937 0.0
C559 C 0.69447 0.84815 0.21261 0.0
O560 O 0.72401 0.84023 0.21317 0.0
H561 H 0.75347 0.86311 0.25326 0.0
H562 H 0.74872 0.80642 0.27212 0.0
N563 N 0.67268 0.81145 0.25755 0.0
N564 N 0.63366 0.78882 0.25549 0.0
C565 C 0.64067 0.80662 0.26218 0.0
C566 C 0.6863 0.7962 0.24752 0.0
C567 C 0.66255 0.78227 0.24638 0.0
C568 C 0.68668 0.86222 0.29721 0.0
O569 O 0.70645 0.87228 0.28381 0.0
H570 H 0.62248 0.81631 0.26922 0.0
H571 H 0.71138 0.79548 0.24059 0.0
O572 O 0.67695 0.84865 0.23139 0.0
H573 H 0.81233 0.8167 0.27192 0.0
H574 H 0.66625 0.76847 0.23899 0.0
Cu575 Cu 0.59033 0.43117 0.27072 0.0
N576 N 0.54437 0.43695 0.26729 0.0
N577 N 0.48814 0.43542 0.26572 0.0
C578 C 0.51691 0.4263 0.2712 0.0
C579 C 0.49823 0.45245 0.25821 0.0
C580 C 0.53251 0.45328 0.25905 0.0
O581 O 0.5977 0.41618 0.29938 0.0
C582 C 0.59145 0.40895 0.22782 0.0
O583 O 0.56353 0.40141 0.23532 0.0
H584 H 0.51808 0.41204 0.27743 0.0
H585 H 0.54782 0.46501 0.25378 0.0
N586 N 0.61522 0.45338 0.27511 0.0
N587 N 0.65742 0.47415 0.27505 0.0
C588 C 0.64732 0.4567 0.26893 0.0
C589 C 0.6049 0.46918 0.28573 0.0
C590 C 0.63065 0.48199 0.28559 0.0
C591 C 0.58618 0.39999 0.30415 0.0
O592 O 0.56905 0.39096 0.28802 0.0
H593 H 0.66285 0.44656 0.25997 0.0
H594 H 0.58038 0.47121 0.29325 0.0
O595 O 0.60688 0.42052 0.24102 0.0
H596 H 0.48214 0.46374 0.25255 0.0
H597 H 0.62988 0.4959 0.29313 0.0
Cu598 Cu 0.68512 0.41758 0.01555 0.0
N599 N 0.73198 0.4179 0.01976 0.0
N600 N 0.7857 0.40878 0.02157 0.0
C601 C 0.75596 0.40675 0.01041 0.0
C602 C 0.78019 0.42181 0.03833 0.0
C603 C 0.7473 0.42724 0.03729 0.0
O604 O 0.67374 0.40633 0.98492 0.0
C605 C 0.63865 0.407 0.05256 0.0
O606 O 0.6153 0.41421 0.03915 0.0
H607 H 0.75133 0.39655 0.99673 0.0
H608 H 0.73488 0.43656 0.04947 0.0
N609 N 0.66777 0.44223 0.01491 0.0
N610 N 0.63091 0.46602 0.01389 0.0
C611 C 0.63577 0.4474 0.01096 0.0
C612 C 0.68392 0.45828 0.01974 0.0
C613 C 0.66141 0.47287 0.0192 0.0
C614 C 0.68145 0.39009 0.97739 0.0
O615 O 0.69592 0.3782 0.9918 0.0
H616 H 0.61623 0.43758 1.00659 0.0
H617 H 0.71021 0.45938 0.02367 0.0
O618 O 0.66815 0.40539 0.04437 0.0
H619 H 0.79837 0.42667 0.05104 0.0
H620 H 0.6672 0.4874 0.02262 0.0
Cu621 Cu 0.60423 0.8312 1.00236 0.0
N622 N 0.55728 0.83034 1.00531 0.0
N623 N 0.50313 0.83866 1.00666 0.0
C624 C 0.53483 0.84429 1.00228 0.0
C625 C 0.50593 0.82042 0.0126 0.0
C626 C 0.53912 0.8154 0.0118 0.0
O627 O 0.61652 0.8445 0.97353 0.0
C628 C 0.61238 0.85314 0.04509 0.0
O629 O 0.58652 0.86303 0.03825 0.0
H630 H 0.54166 0.85842 0.99759 0.0
H631 H 0.54935 0.80178 0.01589 0.0
N632 N 0.622 0.80704 0.99848 0.0
N633 N 0.65971 0.78381 0.9972 0.0
C634 C 0.65268 0.80124 1.00515 0.0
C635 C 0.60916 0.7928 0.98591 0.0
C636 C 0.63225 0.77848 0.98514 0.0
C637 C 0.61033 0.86141 0.96799 0.0
O638 O 0.59649 0.87256 0.98358 0.0
H639 H 0.6701 0.81001 0.01467 0.0
H640 H 0.58513 0.79307 0.97725 0.0
O641 O 0.624 0.84047 0.03159 0.0
H642 H 0.48548 0.81122 0.01712 0.0
H643 H 0.62919 0.76527 0.97607 0.0
Cu644 Cu 0.35313 0.17348 0.75259 0.0
N645 N 0.30646 0.17613 0.75449 0.0
N646 N 0.25208 0.16848 0.75606 0.0
C647 C 0.28354 0.16243 0.7517 0.0
C648 C 0.25556 0.18674 0.76175 0.0
C649 C 0.28896 0.19136 0.76085 0.0
O650 O 0.36131 0.15786 0.72478 0.0
C651 C 0.3957 0.15789 0.7892 0.0
O652 O 0.42052 0.15917 0.77419 0.0
H653 H 0.29003 0.14813 0.74737 0.0
H654 H 0.29977 0.20481 0.76508 0.0
N655 N 0.3742 0.19706 0.74886 0.0
N656 N 0.41261 0.22003 0.74864 0.0
C657 C 0.40524 0.20236 0.75554 0.0
C658 C 0.36168 0.21193 0.7373 0.0
C659 C 0.38509 0.22609 0.73726 0.0
C660 C 0.38465 0.16071 0.70993 0.0
O661 O 0.40744 0.17336 0.71462 0.0
H662 H 0.42225 0.19346 0.76512 0.0
H663 H 0.33742 0.21232 0.72898 0.0
O664 O 0.36637 0.16232 0.78266 0.0
H665 H 0.23547 0.19615 0.76638 0.0
H666 H 0.38243 0.23959 0.72882 0.0
Cu667 Cu 0.44304 0.58282 0.75931 0.0
N668 N 0.48983 0.58141 0.76283 0.0
N669 N 0.54418 0.58925 0.76392 0.0
C670 C 0.51314 0.59423 0.75676 0.0
C671 C 0.54006 0.57256 0.77472 0.0
C672 C 0.50674 0.56785 0.7741 0.0
O673 O 0.43198 0.59538 0.7298 0.0
C674 C 0.43892 0.60378 0.8026 0.0
O675 O 0.4694 0.60932 0.79782 0.0
H676 H 0.50724 0.6073 0.74814 0.0
H677 H 0.49547 0.55557 0.78189 0.0
N678 N 0.42393 0.55888 0.75707 0.0
N679 N 0.38496 0.53631 0.75717 0.0
C680 C 0.39148 0.55469 0.7607 0.0
C681 C 0.43843 0.54264 0.75086 0.0
C682 C 0.41456 0.52871 0.75102 0.0
C683 C 0.43724 0.61243 0.72451 0.0
O684 O 0.44966 0.62377 0.74048 0.0
H685 H 0.37307 0.56495 0.76595 0.0
H686 H 0.46444 0.54106 0.7462 0.0
O687 O 0.4232 0.59389 0.78755 0.0
H688 H 0.55964 0.5643 0.78272 0.0
H689 H 0.41859 0.51418 0.74642 0.0
Cu690 Cu 0.35279 0.58109 0.01455 0.0
N691 N 0.30641 0.57879 0.01023 0.0
N692 N 0.25189 0.58614 1.00872 0.0
C693 C 0.28309 0.5921 0.0141 0.0
C694 C 0.25601 0.56829 1.00134 0.0
C695 C 0.28949 0.56385 1.00227 0.0
O696 O 0.35908 0.597 0.04227 0.0
C697 C 0.35924 0.60232 0.97162 0.0
O698 O 0.33123 0.61045 0.9779 0.0
H699 H 0.28915 0.60604 0.02018 0.0
H700 H 0.30074 0.55065 0.99737 0.0
N701 N 0.37259 0.55762 0.02017 0.0
N702 N 0.41114 0.5348 0.0219 0.0
C703 C 0.40371 0.55221 0.014 0.0
C704 C 0.35978 0.54313 0.03225 0.0
C705 C 0.38336 0.52908 0.03332 0.0
C706 C 0.3833 0.5953 0.05668 0.0
O707 O 0.40777 0.58378 0.05157 0.0
H708 H 0.42091 0.56118 1.00461 0.0
H709 H 0.33515 0.54292 0.04004 0.0
O710 O 0.37286 0.5906 0.98555 0.0
H711 H 0.23629 0.55897 0.99575 0.0
H712 H 0.38016 0.51569 0.04192 0.0
Cu713 Cu 0.44432 0.17436 1.00648 0.0
N714 N 0.49119 0.17585 1.00374 0.0
N715 N 0.5456 0.16808 1.00309 0.0
C716 C 0.51433 0.16277 1.00927 0.0
C717 C 0.54182 0.18523 0.99344 0.0
C718 C 0.50845 0.1899 0.99379 0.0
O719 O 0.4321 0.16183 0.03586 0.0
C720 C 0.43997 0.15192 0.96419 0.0
O721 O 0.46671 0.14315 0.97174 0.0
H722 H 0.50826 0.14933 0.01682 0.0
H723 H 0.49743 0.20254 0.98677 0.0
N724 N 0.42509 0.19826 1.00879 0.0
N725 N 0.3855 0.22051 1.00922 0.0
C726 C 0.39284 0.20242 1.00434 0.0
C727 C 0.43871 0.21422 0.01682 0.0
C728 C 0.41447 0.22795 0.01703 0.0
C729 C 0.43875 0.14521 0.0424 0.0
O730 O 0.45318 0.13365 0.02757 0.0
H731 H 0.37488 0.19214 0.99843 0.0
H732 H 0.46429 0.21569 0.0226 0.0
O733 O 0.42595 0.16401 0.9774 0.0
H734 H 0.56167 0.19385 0.98645 0.0
H735 H 0.41799 0.24228 0.02265 0.0
C736 C 0.17731 0.33317 0.18544 0.0
C737 C 0.17893 0.35127 0.19492 0.0
C738 C 0.17271 0.33041 0.16099 0.0
C739 C 0.17006 0.34609 0.14571 0.0
C740 C 0.17319 0.36432 0.15518 0.0
C741 C 0.1774 0.36666 0.17956 0.0
C742 C 0.16944 0.31074 0.15161 0.0
C743 C 0.17105 0.38145 0.13965 0.0
C744 C 0.18204 0.34113 0.07925 0.0
C745 C 0.14902 0.34136 0.07091 0.0
C746 C 0.18924 0.34231 0.10349 0.0
C747 C 0.16282 0.34369 0.11997 0.0
C748 C 0.12943 0.34392 0.11169 0.0
C749 C 0.12295 0.34282 0.08732 0.0
C750 C 0.22517 0.3422 0.11147 0.0
C751 C 0.1005 0.34539 0.12861 0.0
H752 H 0.17821 0.32123 0.1972 0.0
H753 H 0.17889 0.3807 0.1867 0.0
H754 H 0.14397 0.30866 0.14442 0.0
H755 H 0.18724 0.30846 0.13692 0.0
H756 H 0.17405 0.30004 0.16543 0.0
H757 H 0.17584 0.39458 0.14956 0.0
H758 H 0.18934 0.38043 0.12504 0.0
H759 H 0.14587 0.38233 0.13161 0.0
H760 H 0.20243 0.33993 0.0668 0.0
H761 H 0.09736 0.34285 0.08116 0.0
H762 H 0.22935 0.33068 0.12422 0.0
H763 H 0.23102 0.35549 0.1207 0.0
H764 H 0.24283 0.3405 0.09653 0.0
H765 H 0.10183 0.33397 0.14183 0.0
H766 H 0.076 0.34463 0.1195 0.0
H767 H 0.10188 0.35882 0.13837 0.0
C768 C 0.11379 0.90929 0.0804 0.0
C769 C 0.14419 0.90457 0.06969 0.0
C770 C 0.10952 0.9079 0.10496 0.0
C771 C 0.13602 0.90118 0.1192 0.0
C772 C 0.16622 0.89554 0.10834 0.0
C773 C 0.17011 0.89753 0.08379 0.0
C774 C 0.07712 0.91441 0.11577 0.0
C775 C 0.19478 0.88784 0.12273 0.0
C776 C 0.13727 0.91745 0.18319 0.0
C777 C 0.12126 0.90263 0.19484 0.0
C778 C 0.14273 0.91699 0.15871 0.0
C779 C 0.13266 0.90114 0.14549 0.0
C780 C 0.11792 0.88576 0.15731 0.0
C781 C 0.11202 0.88678 0.18176 0.0
C782 C 0.15801 0.93385 0.14684 0.0
C783 C 0.1076 0.8684 0.14404 0.0
H784 H 0.09373 0.9149 0.06971 0.0
H785 H 0.19364 0.89377 0.07565 0.0
H786 H 0.06604 0.90311 0.12662 0.0
H787 H 0.08194 0.92645 0.12765 0.0
H788 H 0.05862 0.91876 0.10225 0.0
H789 H 0.21525 0.88237 0.11148 0.0
H790 H 0.20503 0.899 0.13423 0.0
H791 H 0.18586 0.87643 0.13439 0.0
H792 H 0.14429 0.92983 0.19306 0.0
H793 H 0.09976 0.87523 0.1906 0.0
H794 H 0.13993 0.93992 0.13415 0.0
H795 H 0.18043 0.92966 0.13668 0.0
H796 H 0.16528 0.94487 0.15966 0.0
H797 H 0.08673 0.87177 0.13192 0.0
H798 H 0.09947 0.857 0.15604 0.0
H799 H 0.1286 0.86322 0.13308 0.0
C800 C 0.8652 0.62963 0.83268 0.0
C801 C 0.87393 0.64534 0.81917 0.0
C802 C 0.87058 0.62922 0.85722 0.0
C803 C 0.88433 0.64506 0.86869 0.0
C804 C 0.89388 0.66079 0.85505 0.0
C805 C 0.8889 0.66066 0.8305 0.0
C806 C 0.8608 0.612 0.87096 0.0
C807 C 0.90813 0.67811 0.86651 0.0
C808 C 0.86368 0.65402 0.93334 0.0
C809 C 0.89397 0.64978 0.94456 0.0
C810 C 0.86009 0.65225 0.90877 0.0
C811 C 0.88717 0.64567 0.89501 0.0
C812 C 0.91735 0.6406 0.90636 0.0
C813 C 0.92053 0.64293 0.93092 0.0
C814 C 0.82766 0.65815 0.89742 0.0
C815 C 0.94657 0.63311 0.89249 0.0
H816 H 0.85376 0.6177 0.8241 0.0
H817 H 0.89555 0.67293 0.8203 0.0
H818 H 0.88185 0.60731 0.88222 0.0
H819 H 0.83964 0.61534 0.88283 0.0
H820 H 0.85329 0.60026 0.85927 0.0
H821 H 0.91519 0.68895 0.85341 0.0
H822 H 0.8895 0.68418 0.87879 0.0
H823 H 0.9305 0.67446 0.87707 0.0
H824 H 0.84311 0.65947 0.94365 0.0
H825 H 0.94399 0.63956 0.93943 0.0
H826 H 0.81725 0.6465 0.88682 0.0
H827 H 0.83225 0.67 0.8852 0.0
H828 H 0.80872 0.66253 0.9106 0.0
H829 H 0.93848 0.6213 0.88116 0.0
H830 H 0.96714 0.62824 0.9041 0.0
H831 H 0.95639 0.64418 0.88069 0.0
C832 C 0.90301 0.10053 0.93889 0.0
C833 C 0.87715 0.11193 0.9474 0.0
C834 C 0.91232 0.10084 0.91496 0.0
C835 C 0.89567 0.11299 0.89908 0.0
C836 C 0.87034 0.12499 0.90772 0.0
C837 C 0.86128 0.12425 0.93168 0.0
C838 C 0.93933 0.08772 0.90652 0.0
C839 C 0.85225 0.13834 0.89153 0.0
C840 C 0.93912 0.12275 0.84048 0.0
C841 C 0.9228 0.11032 0.82515 0.0
C842 C 0.92998 0.12414 0.86438 0.0
C843 C 0.9041 0.11269 0.87335 0.0
C844 C 0.88695 0.10046 0.85784 0.0
C845 C 0.89636 0.0995 0.83396 0.0
C846 C 0.94861 0.13756 0.88017 0.0
C847 C 0.85934 0.08792 0.86664 0.0
H848 H 0.91535 0.09088 0.95078 0.0
H849 H 0.84132 0.13315 0.93803 0.0
H850 H 0.92887 0.07785 0.89335 0.0
H851 H 0.95941 0.09573 0.89765 0.0
H852 H 0.95049 0.0795 0.92116 0.0
H853 H 0.83458 0.14753 0.9012 0.0
H854 H 0.87044 0.14726 0.88199 0.0
H855 H 0.83811 0.13034 0.87808 0.0
H856 H 0.95952 0.13121 0.83389 0.0
H857 H 0.88366 0.08978 0.82236 0.0
H858 H 0.96245 0.12962 0.89384 0.0
H859 H 0.9308 0.14688 0.88945 0.0
H860 H 0.96663 0.14633 0.87023 0.0
H861 H 0.86934 0.07812 0.88007 0.0
H862 H 0.84776 0.07962 0.85223 0.0
H863 H 0.83965 0.09639 0.8753 0.0
C864 C 0.11971 0.84421 0.68563 0.0
C865 C 0.14814 0.85036 0.69785 0.0
C866 C 0.11663 0.84664 0.66116 0.0
C867 C 0.14228 0.8558 0.64845 0.0
C868 C 0.17047 0.86272 0.66078 0.0
C869 C 0.17324 0.85974 0.68528 0.0
C870 C 0.08636 0.83877 0.64877 0.0
C871 C 0.198 0.87293 0.64801 0.0
C872 C 0.14689 0.84299 0.58336 0.0
C873 C 0.12742 0.85708 0.57295 0.0
C874 C 0.15302 0.84281 0.60778 0.0
C875 C 0.13996 0.85727 0.62218 0.0
C876 C 0.12207 0.87215 0.61155 0.0
C877 C 0.11569 0.87177 0.58714 0.0
C878 C 0.17179 0.82651 0.61833 0.0
C879 C 0.1084 0.88807 0.62611 0.0
H880 H 0.10023 0.83685 0.69508 0.0
H881 H 0.19526 0.86459 0.69454 0.0
H882 H 0.07329 0.85 0.63891 0.0
H883 H 0.09424 0.82806 0.63574 0.0
H884 H 0.06841 0.83225 0.66121 0.0
H885 H 0.21678 0.87885 0.66034 0.0
H886 H 0.21085 0.86321 0.63577 0.0
H887 H 0.18744 0.88446 0.63724 0.0
H888 H 0.15595 0.83152 0.57262 0.0
H889 H 0.1008 0.88278 0.57926 0.0
H890 H 0.15475 0.81826 0.62971 0.0
H891 H 0.19246 0.83159 0.62964 0.0
H892 H 0.18229 0.81708 0.60464 0.0
H893 H 0.08762 0.88293 0.63727 0.0
H894 H 0.09892 0.89969 0.61496 0.0
H895 H 0.12791 0.89362 0.6381 0.0
C896 C 0.1853 0.41984 0.58391 0.0
C897 C 0.16533 0.40674 0.57206 0.0
C898 C 0.18071 0.4234 0.60821 0.0
C899 C 0.15521 0.41388 0.6208 0.0
C900 C 0.13517 0.40064 0.60885 0.0
C901 C 0.14061 0.39718 0.58484 0.0
C902 C 0.20286 0.43745 0.62039 0.0
C903 C 0.10727 0.39042 0.6213 0.0
C904 C 0.1501 0.41035 0.68796 0.0
C905 C 0.12615 0.42406 0.69321 0.0
C906 C 0.16114 0.40749 0.66461 0.0
C907 C 0.14764 0.41842 0.64602 0.0
C908 C 0.12396 0.43249 0.65134 0.0
C909 C 0.11369 0.43517 0.67476 0.0
C910 C 0.18668 0.39247 0.65974 0.0
C911 C 0.10842 0.44428 0.63215 0.0
H912 H 0.20454 0.42723 0.57425 0.0
H913 H 0.12482 0.3871 0.57595 0.0
H914 H 0.18775 0.44952 0.62645 0.0
H915 H 0.2144 0.43106 0.63625 0.0
H916 H 0.22296 0.4427 0.60865 0.0
H917 H 0.09442 0.38023 0.60962 0.0
H918 H 0.11713 0.3828 0.63684 0.0
H919 H 0.08856 0.40062 0.62783 0.0
H920 H 0.16016 0.40183 0.70207 0.0
H921 H 0.09525 0.44585 0.67853 0.0
H922 H 0.20733 0.3982 0.6489 0.0
H923 H 0.17501 0.38099 0.6495 0.0
H924 H 0.19726 0.38652 0.67621 0.0
H925 H 0.12809 0.45093 0.62126 0.0
H926 H 0.09199 0.45543 0.63932 0.0
H927 H 0.09339 0.43526 0.6203 0.0
C928 C 0.85761 0.15128 0.33449 0.0
C929 C 0.86988 0.16606 0.32065 0.0
C930 C 0.8683 0.1487 0.35791 0.0
C931 C 0.89167 0.16126 0.36792 0.0
C932 C 0.9046 0.176 0.35392 0.0
C933 C 0.8937 0.17817 0.33048 0.0
C934 C 0.85415 0.13268 0.37208 0.0
C935 C 0.92945 0.18976 0.36388 0.0
C936 C 0.89547 0.16735 0.43475 0.0
C937 C 0.92448 0.15736 0.44061 0.0
C938 C 0.88422 0.16847 0.41127 0.0
C939 C 0.90217 0.15924 0.39314 0.0
C940 C 0.93078 0.1486 0.39907 0.0
C941 C 0.94165 0.14786 0.42265 0.0
C942 C 0.85367 0.18003 0.40577 0.0
C943 C 0.95044 0.13835 0.3804 0.0
H944 H 0.83926 0.14181 0.32712 0.0
H945 H 0.90327 0.18967 0.32004 0.0
H946 H 0.87466 0.12391 0.3792 0.0
H947 H 0.83998 0.13821 0.38736 0.0
H948 H 0.8373 0.12367 0.36146 0.0
H949 H 0.93758 0.20025 0.35062 0.0
H950 H 0.91826 0.19726 0.37907 0.0
H951 H 0.95177 0.18224 0.3705 0.0
H952 H 0.88207 0.17483 0.44841 0.0
H953 H 0.96403 0.14006 0.42694 0.0
H954 H 0.835 0.17142 0.39625 0.0
H955 H 0.86057 0.19181 0.394 0.0
H956 H 0.84185 0.18583 0.4219 0.0
H957 H 0.93375 0.12905 0.37011 0.0
H958 H 0.97092 0.1298 0.38802 0.0
H959 H 0.96141 0.14856 0.36788 0.0
C960 C 0.86478 0.59242 0.33012 0.0
C961 C 0.89602 0.59692 0.32053 0.0
C962 C 0.85968 0.59201 0.35466 0.0
C963 C 0.88625 0.59664 0.3701 0.0
C964 C 0.9175 0.6019 0.36049 0.0
C965 C 0.92213 0.60176 0.33587 0.0
C966 C 0.82613 0.586 0.36408 0.0
C967 C 0.94625 0.60736 0.37624 0.0
C968 C 0.86114 0.60844 0.4333 0.0
C969 C 0.86773 0.59158 0.44512 0.0
C970 C 0.86823 0.61054 0.40913 0.0
C971 C 0.88153 0.59527 0.39625 0.0
C972 C 0.88889 0.57835 0.40821 0.0
C973 C 0.88225 0.57678 0.43249 0.0
C974 C 0.86075 0.62897 0.39726 0.0
C975 C 0.90257 0.56161 0.39515 0.0
H976 H 0.84455 0.58847 0.31846 0.0
H977 H 0.94633 0.6053 0.32862 0.0
H978 H 0.82906 0.57318 0.37491 0.0
H979 H 0.81569 0.59702 0.3757 0.0
H980 H 0.80792 0.58309 0.34978 0.0
H981 H 0.9681 0.61243 0.36604 0.0
H982 H 0.93836 0.6185 0.38867 0.0
H983 H 0.95413 0.59516 0.38696 0.0
H984 H 0.85006 0.61998 0.44291 0.0
H985 H 0.8872 0.56365 0.44139 0.0
H986 H 0.84031 0.6271 0.38428 0.0
H987 H 0.88295 0.63394 0.38741 0.0
H988 H 0.8532 0.63994 0.41006 0.0
H989 H 0.88437 0.55701 0.3816 0.0
H990 H 0.90784 0.54965 0.40708 0.0
H991 H 0.9259 0.56542 0.38583 0.0
C992 C 0.64031 0.35903 0.58218 0.0
C993 C 0.62056 0.34445 0.57318 0.0
C994 C 0.6457 0.36103 0.60665 0.0
C995 C 0.63155 0.34796 0.62258 0.0
C996 C 0.61151 0.33327 0.61358 0.0
C997 C 0.60605 0.3318 0.58912 0.0
C998 C 0.66673 0.37709 0.61544 0.0
C999 C 0.59635 0.31882 0.62977 0.0
C1000 C 0.67175 0.34053 0.68299 0.0
C1001 C 0.64919 0.34951 0.6982 0.0
C1002 C 0.66654 0.34014 0.65843 0.0
C1003 C 0.63838 0.34925 0.64859 0.0
C1004 C 0.61608 0.35886 0.66377 0.0
C1005 C 0.62154 0.35871 0.68834 0.0
C1006 C 0.6907 0.32945 0.64307 0.0
C1007 C 0.5861 0.36906 0.65407 0.0
H1008 H 0.65155 0.36893 0.5701 0.0
H1009 H 0.59091 0.32041 0.58244 0.0
H1010 H 0.65262 0.38532 0.6287 0.0
H1011 H 0.68938 0.37163 0.62431 0.0
H1012 H 0.67457 0.38659 0.60097 0.0
H1013 H 0.58128 0.3083 0.62006 0.0
H1014 H 0.61638 0.31143 0.63955 0.0
H1015 H 0.58016 0.32573 0.64301 0.0
H1016 H 0.69309 0.33326 0.69034 0.0
H1017 H 0.60401 0.36575 0.69987 0.0
H1018 H 0.70094 0.33873 0.62918 0.0
H1019 H 0.67745 0.31785 0.63405 0.0
H1020 H 0.71179 0.32349 0.65332 0.0
H1021 H 0.59394 0.37897 0.64008 0.0
H1022 H 0.57247 0.37694 0.66793 0.0
H1023 H 0.56868 0.35891 0.64588 0.0
C1024 C 0.62878 0.88366 0.68443 0.0
C1025 C 0.62256 0.90106 0.69507 0.0
C1026 C 0.63492 0.88224 0.66001 0.0
C1027 C 0.63479 0.89858 0.64585 0.0
C1028 C 0.62866 0.91616 0.65653 0.0
C1029 C 0.62267 0.91718 0.68088 0.0
C1030 C 0.6414 0.86325 0.64933 0.0
C1031 C 0.62829 0.93397 0.64218 0.0
C1032 C 0.67809 0.9014 0.58615 0.0
C1033 C 0.65092 0.90102 0.57051 0.0
C1034 C 0.6734 0.89977 0.61065 0.0
C1035 C 0.64077 0.89754 0.61983 0.0
C1036 C 0.61347 0.89611 0.60406 0.0
C1037 C 0.61884 0.89794 0.57965 0.0
C1038 C 0.70321 0.90144 0.62678 0.0
C1039 C 0.57832 0.89355 0.61302 0.0
H1040 H 0.62881 0.87112 0.69517 0.0
H1041 H 0.61792 0.93072 0.6888 0.0
H1042 H 0.62234 0.86017 0.63569 0.0
H1043 H 0.66605 0.86315 0.64044 0.0
H1044 H 0.64097 0.8519 0.66271 0.0
H1045 H 0.62347 0.94655 0.65317 0.0
H1046 H 0.65256 0.9358 0.63308 0.0
H1047 H 0.60873 0.93311 0.62838 0.0
H1048 H 0.70299 0.90377 0.57934 0.0
H1049 H 0.59768 0.89751 0.56777 0.0
H1050 H 0.7034 0.88986 0.63979 0.0
H1051 H 0.70161 0.91473 0.63683 0.0
H1052 H 0.72715 0.90128 0.61693 0.0
H1053 H 0.57724 0.88182 0.62579 0.0
H1054 H 0.56036 0.89074 0.59852 0.0
H1055 H 0.57025 0.90638 0.62244 0.0
C1056 C 0.35975 0.6341 0.3396 0.0
C1057 C 0.3755 0.64686 0.32442 0.0
C1058 C 0.36954 0.63237 0.36333 0.0
C1059 C 0.39553 0.64379 0.37222 0.0
C1060 C 0.41225 0.65625 0.3568 0.0
C1061 C 0.40217 0.65756 0.33311 0.0
C1062 C 0.35135 0.61874 0.37906 0.0
C1063 C 0.44001 0.66873 0.36554 0.0
C1064 C 0.39783 0.65628 0.43751 0.0
C1065 C 0.4242 0.64514 0.44579 0.0
C1066 C 0.38778 0.65565 0.41376 0.0
C1067 C 0.40422 0.64344 0.39786 0.0
C1068 C 0.4299 0.6316 0.40632 0.0
C1069 C 0.43967 0.63264 0.43011 0.0
C1070 C 0.36034 0.66856 0.40551 0.0
C1071 C 0.44777 0.61822 0.39006 0.0
H1072 H 0.3392 0.62572 0.33309 0.0
H1073 H 0.41449 0.6675 0.32161 0.0
H1074 H 0.36942 0.60956 0.38832 0.0
H1075 H 0.33729 0.62652 0.39276 0.0
H1076 H 0.33356 0.60984 0.36908 0.0
H1077 H 0.45146 0.67706 0.35113 0.0
H1078 H 0.43016 0.6785 0.37905 0.0
H1079 H 0.45976 0.66023 0.37408 0.0
H1080 H 0.38573 0.66602 0.44939 0.0
H1081 H 0.45999 0.62392 0.4363 0.0
H1082 H 0.34038 0.66043 0.39666 0.0
H1083 H 0.37044 0.67857 0.39237 0.0
H1084 H 0.3491 0.67664 0.42023 0.0
H1085 H 0.42948 0.60939 0.38046 0.0
H1086 H 0.46536 0.60895 0.39968 0.0
H1087 H 0.46199 0.62621 0.37665 0.0
C1088 C 0.36149 0.12188 0.42822 0.0
C1089 C 0.37038 0.10603 0.44142 0.0
C1090 C 0.36816 0.12291 0.40387 0.0
C1091 C 0.3833 0.10753 0.39227 0.0
C1092 C 0.39296 0.09167 0.40563 0.0
C1093 C 0.38676 0.09121 0.43002 0.0
C1094 C 0.35827 0.14029 0.39046 0.0
C1095 C 0.40859 0.07481 0.39398 0.0
C1096 C 0.3663 0.09983 0.32684 0.0
C1097 C 0.39692 0.10473 0.3166 0.0
C1098 C 0.36142 0.10092 0.35136 0.0
C1099 C 0.38751 0.10753 0.36604 0.0
C1100 C 0.41802 0.11323 0.35568 0.0
C1101 C 0.42253 0.11152 0.33115 0.0
C1102 C 0.32874 0.09432 0.36164 0.0
C1103 C 0.44616 0.1208 0.37057 0.0
H1104 H 0.34895 0.13342 0.43688 0.0
H1105 H 0.3935 0.07884 0.43999 0.0
H1106 H 0.37963 0.14548 0.37989 0.0
H1107 H 0.33784 0.13692 0.37797 0.0
H1108 H 0.34968 0.15167 0.40234 0.0
H1109 H 0.41546 0.06378 0.4069 0.0
H1110 H 0.3909 0.06875 0.38101 0.0
H1111 H 0.43131 0.07898 0.38416 0.0
H1112 H 0.34649 0.09439 0.31578 0.0
H1113 H 0.44622 0.1154 0.32336 0.0
H1114 H 0.31716 0.10561 0.37225 0.0
H1115 H 0.33328 0.08233 0.37365 0.0
H1116 H 0.31075 0.08988 0.34783 0.0
H1117 H 0.43698 0.13229 0.38202 0.0
H1118 H 0.46712 0.12615 0.35968 0.0
H1119 H 0.45582 0.10963 0.3823 0.0
C1120 C 0.64689 0.84985 0.18402 0.0
C1121 C 0.68034 0.85359 0.18944 0.0
C1122 C 0.63498 0.85151 0.16075 0.0
C1123 C 0.65683 0.85754 0.1426 0.0
C1124 C 0.69002 0.86256 0.1484 0.0
C1125 C 0.7015 0.86023 0.17163 0.0
C1126 C 0.59966 0.8456 0.15532 0.0
C1127 C 0.71391 0.86958 0.12984 0.0
C1128 C 0.64234 0.83991 0.08006 0.0
C1129 C 0.6253 0.85492 0.06958 0.0
C1130 C 0.6524 0.84058 0.10378 0.0
C1131 C 0.64609 0.85685 0.11734 0.0
C1132 C 0.62969 0.87226 0.1067 0.0
C1133 C 0.61908 0.87102 0.08306 0.0
C1134 C 0.66924 0.82367 0.11445 0.0
C1135 C 0.62332 0.89005 0.12031 0.0
H1136 H 0.63057 0.84447 0.19767 0.0
H1137 H 0.72738 0.86317 0.17577 0.0
H1138 H 0.58663 0.8566 0.14507 0.0
H1139 H 0.60007 0.83277 0.1443 0.0
H1140 H 0.58508 0.84266 0.17155 0.0
H1141 H 0.73721 0.87525 0.13767 0.0
H1142 H 0.72063 0.85796 0.11777 0.0
H1143 H 0.70199 0.88068 0.11905 0.0
H1144 H 0.64697 0.82733 0.0699 0.0
H1145 H 0.606 0.88269 0.07509 0.0
H1146 H 0.65492 0.81876 0.13 0.0
H1147 H 0.69458 0.82744 0.12068 0.0
H1148 H 0.67147 0.81191 0.10173 0.0
H1149 H 0.60679 0.88713 0.13554 0.0
H1150 H 0.61154 0.90105 0.10926 0.0
H1151 H 0.64714 0.89556 0.12748 0.0
C1152 C 0.65559 0.39534 0.09293 0.0
C1153 C 0.63193 0.40392 0.07818 0.0
C1154 C 0.65065 0.39424 0.11754 0.0
C1155 C 0.62168 0.40223 0.12779 0.0
C1156 C 0.59744 0.41053 0.11291 0.0
C1157 C 0.60269 0.41111 0.0884 0.0
C1158 C 0.67678 0.38488 0.13262 0.0
C1159 C 0.56641 0.41948 0.12296 0.0
C1160 C 0.5907 0.39067 0.18984 0.0
C1161 C 0.60239 0.406 0.20294 0.0
C1162 C 0.5982 0.38875 0.16568 0.0
C1163 C 0.61713 0.40273 0.15406 0.0
C1164 C 0.6297 0.418 0.16735 0.0
C1165 C 0.62253 0.41932 0.1916 0.0
C1166 C 0.58501 0.37201 0.15242 0.0
C1167 C 0.64944 0.43343 0.15572 0.0
H1168 H 0.67826 0.38972 0.08529 0.0
H1169 H 0.58427 0.41787 0.07731 0.0
H1170 H 0.68891 0.39542 0.14414 0.0
H1171 H 0.66503 0.37432 0.14429 0.0
H1172 H 0.69635 0.37791 0.12189 0.0
H1173 H 0.54968 0.42509 0.10903 0.0
H1174 H 0.55228 0.40916 0.1336 0.0
H1175 H 0.57349 0.43112 0.1349 0.0
H1176 H 0.57529 0.38025 0.19843 0.0
H1177 H 0.63152 0.43129 0.20147 0.0
H1178 H 0.60531 0.36532 0.14213 0.0
H1179 H 0.56563 0.37657 0.13969 0.0
H1180 H 0.57389 0.3614 0.16438 0.0
H1181 H 0.67107 0.42751 0.14609 0.0
H1182 H 0.65872 0.4439 0.16863 0.0
H1183 H 0.63354 0.44072 0.14259 0.0
C1184 C 0.37689 0.14656 0.82893 0.0
C1185 C 0.4022 0.15377 0.81447 0.0
C1186 C 0.38182 0.1442 0.85333 0.0
C1187 C 0.41243 0.14975 0.86369 0.0
C1188 C 0.43827 0.15674 0.84907 0.0
C1189 C 0.433 0.15841 0.82464 0.0
C1190 C 0.35397 0.13618 0.8681 0.0
C1191 C 0.471 0.16325 0.85938 0.0
C1192 C 0.41292 0.16511 0.92802 0.0
C1193 C 0.42969 0.15026 0.93907 0.0
C1194 C 0.40679 0.16498 0.90361 0.0
C1195 C 0.41682 0.14939 0.8899 0.0
C1196 C 0.43233 0.13395 0.90114 0.0
C1197 C 0.43904 0.13469 0.92551 0.0
C1198 C 0.39082 0.18192 0.89236 0.0
C1199 C 0.44249 0.11683 0.88734 0.0
H1200 H 0.35306 0.14287 0.82117 0.0
H1201 H 0.45256 0.16417 0.81363 0.0
H1202 H 0.36354 0.12465 0.87934 0.0
H1203 H 0.34398 0.14712 0.88002 0.0
H1204 H 0.33316 0.13075 0.85713 0.0
H1205 H 0.48885 0.1679 0.8456 0.0
H1206 H 0.46649 0.17507 0.87166 0.0
H1207 H 0.48273 0.15184 0.86971 0.0
H1208 H 0.40588 0.17728 0.93827 0.0
H1209 H 0.4519 0.12314 0.93393 0.0
H1210 H 0.36802 0.17777 0.88261 0.0
H1211 H 0.40828 0.18818 0.8794 0.0
H1212 H 0.384 0.19278 0.90552 0.0
H1213 H 0.4212 0.11167 0.87666 0.0
H1214 H 0.45128 0.10533 0.89897 0.0
H1215 H 0.46284 0.12047 0.87493 0.0
C1216 C 0.44156 0.61796 0.8431 0.0
C1217 C 0.42503 0.60653 0.8267 0.0
C1218 C 0.43098 0.61899 0.86672 0.0
C1219 C 0.40338 0.60816 0.87427 0.0
C1220 C 0.38594 0.59706 0.85764 0.0
C1221 C 0.39683 0.59646 0.83408 0.0
C1222 C 0.44998 0.63121 0.88377 0.0
C1223 C 0.35651 0.58522 0.86492 0.0
C1224 C 0.39776 0.5932 0.93864 0.0
C1225 C 0.37262 0.60501 0.94736 0.0
C1226 C 0.40832 0.5943 0.91505 0.0
C1227 C 0.39372 0.60767 0.89974 0.0
C1228 C 0.36917 0.62006 0.90863 0.0
C1229 C 0.3588 0.61852 0.93226 0.0
C1230 C 0.43443 0.58074 0.90631 0.0
C1231 C 0.3533 0.63467 0.89303 0.0
H1232 H 0.46329 0.62585 0.83761 0.0
H1233 H 0.38391 0.58752 0.82163 0.0
H1234 H 0.43259 0.64061 0.89331 0.0
H1235 H 0.46254 0.62235 0.89714 0.0
H1236 H 0.46916 0.63987 0.87479 0.0
H1237 H 0.34472 0.578 0.8497 0.0
H1238 H 0.36472 0.5745 0.87783 0.0
H1239 H 0.33742 0.594 0.87375 0.0
H1240 H 0.40856 0.58267 0.95009 0.0
H1241 H 0.33944 0.62775 0.93879 0.0
H1242 H 0.45572 0.58848 0.89852 0.0
H1243 H 0.42372 0.57182 0.89219 0.0
H1244 H 0.44401 0.57153 0.92056 0.0
H1245 H 0.37283 0.64336 0.88453 0.0
H1246 H 0.33615 0.64401 0.90294 0.0
H1247 H 0.339 0.62775 0.87873 0.0
C1248 C 0.9472 0.25246 0.2724 0.0
C1249 C 0.92301 0.2556 0.25487 0.0
C1250 C 0.97423 0.26491 0.2757 0.0
C1251 C 0.97737 0.28101 0.26119 0.0
C1252 C 0.9533 0.28411 0.24332 0.0
C1253 C 0.9267 0.27144 0.24035 0.0
C1254 C 0.99928 0.26094 0.29491 0.0
C1255 C 0.95549 0.30097 0.22734 0.0
C1256 C 0.02714 0.32361 0.28247 0.0
C1257 C 0.05724 0.32199 0.26987 0.0
C1258 C 1.00133 0.31031 0.28008 0.0
C1259 C 1.00542 0.29478 0.26479 0.0
C1260 C 0.03582 0.29289 0.25224 0.0
C1261 C 0.06117 0.30646 0.25486 0.0
C1262 C 0.96944 0.31299 0.29381 0.0
C1263 C 0.04144 0.27663 0.23573 0.0
H1264 H 0.94475 0.24044 0.28386 0.0
H1265 H 0.90884 0.27397 0.22641 0.0
H1266 H 0.02476 0.26021 0.28734 0.0
H1267 H 0.99919 0.27252 0.30794 0.0
H1268 H 0.99399 0.24762 0.30428 0.0
H1269 H 0.93498 0.30138 0.21418 0.0
H1270 H 0.95455 0.31398 0.23799 0.0
H1271 H 0.97965 0.30093 0.21782 0.0
H1272 H 0.02367 0.33525 0.2944 0.0
H1273 H 0.08391 0.30499 0.24476 0.0
H1274 H 0.96443 0.3005 0.30485 0.0
H1275 H 0.94814 0.31453 0.28146 0.0
H1276 H 0.97032 0.32551 0.3054 0.0
H1277 H 0.03755 0.26323 0.2452 0.0
H1278 H 0.06693 0.27665 0.22805 0.0
H1279 H 0.02304 0.27715 0.22113 0.0
C1280 C 0.226 0.97369 0.26784 0.0
C1281 C 0.19547 0.98326 0.26608 0.0
C1282 C 0.25675 0.98322 0.26608 0.0
C1283 C 0.25726 1.00283 0.26218 0.0
C1284 C 0.22652 0.01256 0.26045 0.0
C1285 C 0.19617 1.00272 0.26252 0.0
C1286 C 0.28877 0.97225 0.26825 0.0
C1287 C 0.22566 0.03337 0.25597 0.0
C1288 C 0.3371 0.03101 0.27428 0.0
C1289 C 0.35133 0.0323 0.25171 0.0
C1290 C 0.30673 0.02139 0.27803 0.0
C1291 C 0.2898 0.013 0.25873 0.0
C1292 C 0.30389 0.01446 0.23591 0.0
C1293 C 0.33431 0.02398 0.23271 0.0
C1294 C 0.29284 0.02011 0.30268 0.0
C1295 C 0.2867 0.00604 0.21472 0.0
H1296 H 0.22588 0.95874 0.27091 0.0
H1297 H 0.17286 0.01026 0.26086 0.0
H1298 H 0.30308 0.97318 0.25156 0.0
H1299 H 0.3046 0.97832 0.28236 0.0
H1300 H 0.28427 0.95725 0.2723 0.0
H1301 H 0.19983 0.039 0.25575 0.0
H1302 H 0.24011 0.04084 0.26974 0.0
H1303 H 0.23759 0.03651 0.23877 0.0
H1304 H 0.35 0.03726 0.28908 0.0
H1305 H 0.34448 0.02517 0.21511 0.0
H1306 H 0.29012 0.00521 0.30784 0.0
H1307 H 0.26762 0.02648 0.3033 0.0
H1308 H 0.30896 0.02725 0.31583 0.0
H1309 H 0.28361 0.99075 0.21724 0.0
H1310 H 0.30076 0.00845 0.19813 0.0
H1311 H 0.26139 0.01213 0.21277 0.0
C1312 C 0.07369 0.9736 1.00176 0.0
C1313 C 0.10397 0.98177 1.00872 0.0
C1314 C 0.04338 0.98355 1.00324 0.0
C1315 C 0.04311 1.00206 0.01226 0.0
C1316 C 0.0736 0.01032 0.01946 0.0
C1317 C 0.10357 1.00015 0.01746 0.0
C1318 C 1.01161 0.97427 0.99505 0.0
C1319 C 0.07454 0.02985 0.02957 0.0
C1320 C 0.96966 0.03475 0.99923 0.0
C1321 C 0.95044 0.03309 0.0198 0.0
C1322 C 0.99958 0.02459 0.99639 0.0
C1323 C 1.01094 0.01266 0.01469 0.0
C1324 C 0.99174 0.01105 0.03556 0.0
C1325 C 0.96177 0.02117 0.0378 0.0
C1326 C 1.01897 0.02658 0.97373 0.0
C1327 C 1.00304 0.99877 0.0557 0.0
H1328 H 0.07379 0.95951 0.99473 0.0
H1329 H 0.12673 0.0065 0.02315 0.0
H1330 H 0.99378 0.97319 0.00994 0.0
H1331 H 0.99954 0.98291 0.98121 0.0
H1332 H 1.01608 0.96003 0.98787 0.0
H1333 H 0.10022 0.03429 0.03434 0.0
H1334 H 0.06425 0.03996 0.01664 0.0
H1335 H 0.05866 0.03058 0.04556 0.0
H1336 H 0.96099 0.04376 0.98515 0.0
H1337 H 0.94745 0.01999 0.0539 0.0
H1338 H 0.02214 0.01266 0.96534 0.0
H1339 H 0.04428 0.03209 0.9775 0.0
H1340 H 1.00649 0.03609 0.96099 0.0
H1341 H 1.00572 0.9841 0.04959 0.0
H1342 H 0.98536 0.99905 0.07077 0.0
H1343 H 0.0279 0.00341 0.06202 0.0
C1344 C 0.34578 0.24527 0.02173 0.0
C1345 C 0.35323 0.22964 1.00763 0.0
C1346 C 0.31434 0.25401 0.0208 0.0
C1347 C 0.28944 0.24702 1.00541 0.0
C1348 C 0.29683 0.23139 0.99094 0.0
C1349 C 0.32853 0.22293 0.99221 0.0
C1350 C 0.30757 0.27059 0.0366 0.0
C1351 C 0.27111 0.22349 0.97425 0.0
C1352 C 0.19869 0.25766 0.02066 0.0
C1353 C 0.19118 0.27267 1.00554 0.0
C1354 C 0.23031 0.24911 0.0206 0.0
C1355 C 0.25537 0.25568 1.00507 0.0
C1356 C 0.24798 0.27071 0.98963 0.0
C1357 C 0.21607 0.279 0.99005 0.0
C1358 C 0.23705 0.23319 0.03743 0.0
C1359 C 0.27389 0.27813 0.97275 0.0
H1360 H 0.36432 0.25049 0.03393 0.0
H1361 H 0.334 0.21107 0.98098 0.0
H1362 H 0.29934 0.28274 0.02592 0.0
H1363 H 0.28705 0.2672 0.049 0.0
H1364 H 0.32987 0.27474 0.047 0.0
H1365 H 0.28098 0.21161 0.96372 0.0
H1366 H 0.24908 0.21858 0.98434 0.0
H1367 H 0.26234 0.23455 0.962 0.0
H1368 H 0.18006 0.25277 0.03301 0.0
H1369 H 0.21058 0.29041 0.97811 0.0
H1370 H 0.25748 0.23707 0.04968 0.0
H1371 H 0.24538 0.22064 0.02753 0.0
H1372 H 0.21471 0.2294 0.04799 0.0
H1373 H 0.29577 0.28337 0.98274 0.0
H1374 H 0.26411 0.28967 0.96158 0.0
H1375 H 0.28285 0.26672 0.96112 0.0
C1376 C 0.95764 0.73878 0.73033 0.0
C1377 C 0.94907 0.72416 0.7458 0.0
C1378 C 0.98738 0.74904 0.73311 0.0
C1379 C 1.00958 0.74463 0.75173 0.0
C1380 C 1.00113 0.72998 0.76749 0.0
C1381 C 0.97108 0.71999 0.76438 0.0
C1382 C 0.99525 0.7645 0.71584 0.0
C1383 C 0.02402 0.72473 0.78756 0.0
C1384 C 0.10094 0.7584 0.74356 0.0
C1385 C 0.10361 0.77486 0.75706 0.0
C1386 C 0.0708 0.74837 0.74201 0.0
C1387 C 0.04215 0.75488 0.75409 0.0
C1388 C 0.04455 0.77141 0.76782 0.0
C1389 C 0.07513 0.78114 0.76918 0.0
C1390 C 0.06955 0.73085 0.72714 0.0
C1391 C 1.01467 0.77891 0.78095 0.0
H1392 H 0.94137 0.74208 0.7157 0.0
H1393 H 0.96479 0.70897 0.77668 0.0
H1394 H 0.99972 0.7778 0.72542 0.0
H1395 H 1.01844 0.7611 0.70608 0.0
H1396 H 0.97485 0.76675 0.70288 0.0
H1397 H 1.01362 0.71331 0.79862 0.0
H1398 H 0.04849 0.72014 0.78049 0.0
H1399 H 0.02869 0.73709 0.79891 0.0
H1400 H 0.12228 0.75343 0.73373 0.0
H1401 H 0.0767 0.79365 0.77988 0.0
H1402 H 0.05145 0.73272 0.71253 0.0
H1403 H 0.06077 0.71887 0.73791 0.0
H1404 H 0.09423 0.72725 0.71949 0.0
H1405 H 0.99437 0.78221 0.76832 0.0
H1406 H 0.02063 0.79174 0.79118 0.0
H1407 H 1.00497 0.76813 0.79323 0.0
C1408 C 0.69488 0.99943 0.75156 0.0
C1409 C 0.69114 0.98245 0.76378 0.0
C1410 C 0.72585 0.00867 0.75045 0.0
C1411 C 0.75399 1.00092 0.762 0.0
C1412 C 0.75038 0.98384 0.77449 0.0
C1413 C 0.71913 0.97479 0.77511 0.0
C1414 C 0.72852 0.02667 0.73666 0.0
C1415 C 0.77957 0.97514 0.78723 0.0
C1416 C 0.84046 0.01556 0.74053 0.0
C1417 C 0.84942 0.02949 0.75682 0.0
C1418 C 0.80973 0.00611 0.74211 0.0
C1419 C 0.78724 0.01052 0.76056 0.0
C1420 C 0.79623 0.02443 0.77722 0.0
C1421 C 0.82704 0.0338 0.77508 0.0
C1422 C 0.80111 0.99158 0.72377 0.0
C1423 C 0.77324 0.02947 0.7973 0.0
H1424 H 0.67365 0.00535 0.74242 0.0
H1425 H 0.71648 0.96181 0.78478 0.0
H1426 H 0.73746 0.0381 0.74829 0.0
H1427 H 0.74707 0.02505 0.72229 0.0
H1428 H 0.70431 0.03095 0.72878 0.0
H1429 H 0.77259 0.96206 0.79658 0.0
H1430 H 0.79977 0.97191 0.77451 0.0
H1431 H 0.78986 0.98519 0.80026 0.0
H1432 H 0.85724 0.01229 0.72616 0.0
H1433 H 0.83382 0.04436 0.7879 0.0
H1434 H 0.77814 0.99581 0.71423 0.0
H1435 H 0.79588 0.97797 0.73239 0.0
H1436 H 0.82145 0.98957 0.71071 0.0
H1437 H 0.74933 0.03493 0.79026 0.0
H1438 H 0.78423 0.04017 0.80919 0.0
H1439 H 0.76735 0.0168 0.80781 0.0
C1440 C 0.70121 0.76117 0.9818 0.0
C1441 C 0.69082 0.77362 0.9995 0.0
C1442 C 0.73164 0.75142 0.9835 0.0
C1443 C 0.75229 0.75398 1.00353 0.0
C1444 C 0.74179 0.76636 0.02161 0.0
C1445 C 0.71136 0.77609 0.01931 0.0
C1446 C 0.74196 0.7386 0.96365 0.0
C1447 C 0.76275 0.76936 0.04339 0.0
C1448 C 0.81839 0.71664 0.01614 0.0
C1449 C 0.84753 0.72514 1.00757 0.0
C1450 C 0.78736 0.72592 0.01524 0.0
C1451 C 0.78521 0.74406 1.00522 0.0
C1452 C 0.81453 0.75264 0.9964 0.0
C1453 C 0.84524 0.74315 0.99782 0.0
C1454 C 0.75689 0.71634 0.02513 0.0
C1455 C 0.81342 0.7718 0.98523 0.0
H1456 H 0.68585 0.75933 0.96627 0.0
H1457 H 0.70343 0.78551 0.03318 0.0
H1458 H 0.76587 0.74349 0.95597 0.0
H1459 H 0.74619 0.72425 0.97046 0.0
H1460 H 0.72298 0.73795 0.9494 0.0
H1461 H 0.75065 0.77896 0.05619 0.0
H1462 H 0.76754 0.75577 0.05222 0.0
H1463 H 0.78732 0.77529 0.03839 0.0
H1464 H 0.81996 0.70284 0.02395 0.0
H1465 H 0.8675 0.74973 0.99089 0.0
H1466 H 0.73797 0.71447 0.01105 0.0
H1467 H 0.74542 0.72519 0.039 0.0
H1468 H 0.76279 0.70242 0.0328 0.0
H1469 H 0.79624 0.77167 0.9699 0.0
H1470 H 0.83838 0.77654 0.97918 0.0
H1471 H 0.80357 0.78217 0.99801 0.0
C1472 C 0.35167 0.5078 0.76527 0.0
C1473 C 0.35313 0.52682 0.75913 0.0
C1474 C 0.32096 0.49838 0.7673 0.0
C1475 C 0.29078 0.50811 0.7629 0.0
C1476 C 0.29208 0.52727 0.75651 0.0
C1477 C 0.32314 0.53639 0.75482 0.0
C1478 C 0.32081 0.47803 0.77443 0.0
C1479 C 0.26061 0.53815 0.75147 0.0
C1480 C 0.21259 0.47937 0.74933 0.0
C1481 C 0.19585 0.47957 0.77107 0.0
C1482 C 0.24328 0.4887 0.74634 0.0
C1483 C 0.25788 0.49836 0.76559 0.0
C1484 C 0.24115 0.49855 0.78758 0.0
C1485 C 0.21042 0.48924 0.79002 0.0
C1486 C 0.26007 0.48826 0.72254 0.0
C1487 C 0.25588 0.50846 0.80867 0.0
H1488 H 0.37459 0.50033 0.76892 0.0
H1489 H 0.32395 0.55099 0.74975 0.0
H1490 H 0.30673 0.47629 0.79112 0.0
H1491 H 0.30796 0.46954 0.76081 0.0
H1492 H 0.34639 0.47238 0.77695 0.0
H1493 H 0.26584 0.55282 0.74614 0.0
H1494 H 0.24627 0.53123 0.73719 0.0
H1495 H 0.24448 0.53835 0.76735 0.0
H1496 H 0.20145 0.4721 0.73454 0.0
H1497 H 0.1981 0.48925 0.80699 0.0
H1498 H 0.28504 0.48168 0.72409 0.0
H1499 H 0.2639 0.50274 0.71602 0.0
H1500 H 0.24532 0.48038 0.70925 0.0
H1501 H 0.28068 0.50244 0.8129 0.0
H1502 H 0.23975 0.50737 0.82453 0.0
H1503 H 0.25971 0.52348 0.80456 0.0
C1504 C 0.9484 0.50591 0.49496 0.0
C1505 C 0.92343 0.50241 0.51181 0.0
C1506 C 0.97524 0.49335 0.49154 0.0
C1507 C 0.97738 0.47675 0.5052 0.0
C1508 C 0.95251 0.47324 0.52238 0.0
C1509 C 0.92613 0.48605 0.52551 0.0
C1510 C 1.0012 0.49776 0.47311 0.0
C1511 C 0.95359 0.45582 0.53742 0.0
C1512 C 0.02714 0.43459 0.48252 0.0
C1513 C 0.05671 0.43549 0.49586 0.0
C1514 C 1.0015 0.44797 0.48515 0.0
C1515 C 1.00525 0.46288 0.50144 0.0
C1516 C 0.03512 0.46405 0.51475 0.0
C1517 C 0.06029 0.4504 0.51189 0.0
C1518 C 0.97015 0.44603 0.47062 0.0
C1519 C 0.04038 0.47965 0.53231 0.0
H1520 H 0.94674 0.51832 0.4841 0.0
H1521 H 0.90766 0.4832 0.53893 0.0
H1522 H 0.02636 0.498 0.48127 0.0
H1523 H 1.00139 0.48665 0.45945 0.0
H1524 H 0.99665 0.51144 0.46439 0.0
H1525 H 0.93248 0.45511 0.55007 0.0
H1526 H 0.95284 0.44321 0.52602 0.0
H1527 H 0.97729 0.45531 0.54749 0.0
H1528 H 0.02394 0.42344 0.46982 0.0
H1529 H 0.08258 0.45133 0.52257 0.0
H1530 H 0.96592 0.45894 0.46017 0.0
H1531 H 0.9483 0.44427 0.48241 0.0
H1532 H 0.97122 0.43392 0.45838 0.0
H1533 H 0.0372 0.49341 0.52355 0.0
H1534 H 0.06551 0.47915 0.54054 0.0
H1535 H 0.02134 0.47876 0.54645 0.0
C1536 C 0.32447 0.71793 0.51932 0.0
C1537 C 0.35466 0.7266 0.51316 0.0
C1538 C 0.29383 0.7276 0.5179 0.0
C1539 C 0.29306 0.74634 0.50963 0.0
C1540 C 0.32346 0.75507 0.50313 0.0
C1541 C 0.35379 0.7452 0.5052 0.0
C1542 C 0.26225 0.71781 0.52545 0.0
C1543 C 0.32395 0.77483 0.49373 0.0
C1544 C 0.21078 0.76507 0.4847 0.0
C1545 C 0.19907 0.77652 0.50305 0.0
C1546 C 0.24127 0.75534 0.48654 0.0
C1547 C 0.2605 0.75672 0.50745 0.0
C1548 C 0.24867 0.76815 0.52614 0.0
C1549 C 0.21837 0.77804 0.52361 0.0
C1550 C 0.25307 0.74371 0.46595 0.0
C1551 C 0.2679 0.76981 0.54891 0.0
H1552 H 0.32492 0.70366 0.52575 0.0
H1553 H 0.37691 0.75195 0.50018 0.0
H1554 H 0.24974 0.72598 0.53954 0.0
H1555 H 0.24465 0.71693 0.5104 0.0
H1556 H 0.26708 0.70344 0.53209 0.0
H1557 H 0.34952 0.77955 0.48911 0.0
H1558 H 0.308 0.77581 0.47778 0.0
H1559 H 0.31347 0.78457 0.50702 0.0
H1560 H 0.19634 0.764 0.46862 0.0
H1561 H 0.2094 0.78671 0.53794 0.0
H1562 H 0.25597 0.7289 0.47142 0.0
H1563 H 0.27791 0.74868 0.46002 0.0
H1564 H 0.23557 0.7443 0.45078 0.0
H1565 H 0.27154 0.75574 0.55677 0.0
H1566 H 0.25502 0.77886 0.56198 0.0
H1567 H 0.29301 0.7757 0.54544 0.0
C1568 C 0.83094 0.51991 0.23538 0.0
C1569 C 0.84898 0.52761 0.2543 0.0
C1570 C 0.80005 0.51094 0.23885 0.0
C1571 C 0.78665 0.50936 0.26188 0.0
C1572 C 0.8048 0.51698 0.28111 0.0
C1573 C 0.83553 0.52611 0.27708 0.0
C1574 C 0.78146 0.50339 0.21773 0.0
C1575 C 0.79175 0.51548 0.30598 0.0
C1576 C 0.69246 0.50223 0.26817 0.0
C1577 C 0.68982 0.4828 0.27148 0.0
C1578 C 0.72365 0.51099 0.26511 0.0
C1579 C 0.75328 0.50018 0.26563 0.0
C1580 C 0.75083 0.48055 0.26908 0.0
C1581 C 0.71921 0.47211 0.27176 0.0
C1582 C 0.72482 0.53186 0.26106 0.0
C1583 C 0.78167 0.46847 0.27003 0.0
H1584 H 0.84064 0.52125 0.21766 0.0
H1585 H 0.84929 0.53188 0.29182 0.0
H1586 H 0.77687 0.48819 0.21993 0.0
H1587 H 0.75677 0.51031 0.21629 0.0
H1588 H 0.79529 0.50561 0.201 0.0
H1589 H 0.80918 0.52163 0.31909 0.0
H1590 H 0.7674 0.52276 0.3074 0.0
H1591 H 0.78745 0.50058 0.31054 0.0
H1592 H 0.66997 0.5106 0.26761 0.0
H1593 H 0.71753 0.45715 0.27457 0.0
H1594 H 0.73679 0.53487 0.24384 0.0
H1595 H 0.74019 0.53865 0.27488 0.0
H1596 H 0.6996 0.53831 0.26118 0.0
H1597 H 0.79543 0.46944 0.25311 0.0
H1598 H 0.77572 0.45354 0.27348 0.0
H1599 H 0.79864 0.47357 0.28409 0.0
C1600 C 0.69161 0.25375 0.51043 0.0
C1601 C 0.6883 0.27298 0.50596 0.0
C1602 C 0.72317 0.24533 0.51314 0.0
C1603 C 0.75247 0.25627 0.51081 0.0
C1604 C 0.74929 0.27574 0.50632 0.0
C1605 C 0.7173 0.28388 0.50424 0.0
C1606 C 0.7251 0.22467 0.51851 0.0
C1607 C 0.77972 0.28791 0.50326 0.0
C1608 C 0.83377 0.23761 0.53739 0.0
C1609 C 0.8492 0.22906 0.51793 0.0
C1610 C 0.80252 0.24652 0.53532 0.0
C1611 C 0.7863 0.24729 0.51312 0.0
C1612 C 0.80199 0.23892 0.49332 0.0
C1613 C 0.83298 0.22976 0.49602 0.0
C1614 C 0.78655 0.25481 0.55704 0.0
C1615 C 0.78603 0.23963 0.46924 0.0
H1616 H 0.66933 0.24528 0.51201 0.0
H1617 H 0.71495 0.29869 0.50053 0.0
H1618 H 0.73843 0.2173 0.50411 0.0
H1619 H 0.73956 0.22237 0.53494 0.0
H1620 H 0.70006 0.21824 0.52062 0.0
H1621 H 0.77314 0.30274 0.49965 0.0
H1622 H 0.7954 0.28736 0.51936 0.0
H1623 H 0.7951 0.28256 0.48845 0.0
H1624 H 0.84581 0.23693 0.55447 0.0
H1625 H 0.84481 0.22335 0.48087 0.0
H1626 H 0.76218 0.24794 0.56035 0.0
H1627 H 0.78156 0.26992 0.55429 0.0
H1628 H 0.80241 0.25318 0.57297 0.0
H1629 H 0.76181 0.23214 0.46956 0.0
H1630 H 0.80203 0.23322 0.45544 0.0
H1631 H 0.78079 0.25436 0.46429 0.0
C1632 C 0.44378 0.24971 0.7539 0.0
C1633 C 0.4437 0.23013 0.75173 0.0
C1634 C 0.47373 0.25979 0.75667 0.0
C1635 C 0.50465 0.25015 0.75698 0.0
C1636 C 0.50476 0.2304 0.75456 0.0
C1637 C 0.47437 0.22064 0.75215 0.0
C1638 C 0.47224 0.28077 0.7596 0.0
C1639 C 0.53705 0.21954 0.75452 0.0
C1640 C 0.5847 0.27807 0.74541 0.0
C1641 C 0.59745 0.28041 0.76827 0.0
C1642 C 0.55472 0.26819 0.74142 0.0
C1643 C 0.53669 0.26066 0.76075 0.0
C1644 C 0.54924 0.26325 0.78387 0.0
C1645 C 0.57937 0.27296 0.78731 0.0
C1646 C 0.5425 0.26562 0.71646 0.0
C1647 C 0.53073 0.25581 0.80507 0.0
H1648 H 0.42025 0.25716 0.75384 0.0
H1649 H 0.47465 0.20558 0.75015 0.0
H1650 H 0.48313 0.28478 0.77686 0.0
H1651 H 0.48732 0.28768 0.74573 0.0
H1652 H 0.44632 0.28622 0.75867 0.0
H1653 H 0.53307 0.20433 0.75161 0.0
H1654 H 0.55379 0.22494 0.74051 0.0
H1655 H 0.55012 0.22146 0.77159 0.0
H1656 H 0.59854 0.28366 0.73061 0.0
H1657 H 0.58857 0.27497 0.80508 0.0
H1658 H 0.51727 0.2718 0.7145 0.0
H1659 H 0.54034 0.25049 0.71239 0.0
H1660 H 0.55938 0.2722 0.70334 0.0
H1661 H 0.50517 0.26176 0.80561 0.0
H1662 H 0.54353 0.25919 0.82191 0.0
H1663 H 0.52816 0.24039 0.80373 0.0
C1664 C 0.44925 0.0091 0.52682 0.0
C1665 C 0.44319 0.02474 0.51237 0.0
C1666 C 0.47983 0.99936 0.52608 0.0
C1667 C 0.50538 0.00529 0.51052 0.0
C1668 C 0.49943 0.02097 0.49575 0.0
C1669 C 0.46857 0.03047 0.49687 0.0
C1670 C 0.48496 0.98284 0.54227 0.0
C1671 C 0.5258 0.02779 0.47885 0.0
C1672 C 0.59531 0.99203 0.52581 0.0
C1673 C 0.60147 0.97664 0.51096 0.0
C1674 C 0.56446 1.00148 0.52568 0.0
C1675 C 0.53866 0.9955 0.51036 0.0
C1676 C 0.54458 0.97997 0.49532 0.0
C1677 C 0.57577 0.97075 0.49582 0.0
C1678 C 0.55939 0.01783 0.54215 0.0
C1679 C 0.51791 0.97309 0.47868 0.0
H1680 H 0.43027 0.0046 0.53913 0.0
H1681 H 0.46425 0.04233 0.4854 0.0
H1682 H 0.49181 0.97028 0.53186 0.0
H1683 H 0.50591 0.98573 0.55453 0.0
H1684 H 0.46236 0.9796 0.55283 0.0
H1685 H 0.51711 0.03983 0.46809 0.0
H1686 H 0.54837 0.03211 0.48878 0.0
H1687 H 0.53333 0.0163 0.46683 0.0
H1688 H 0.61449 0.99661 0.53793 0.0
H1689 H 0.58012 0.95905 0.48411 0.0
H1690 H 0.5385 0.01484 0.5544 0.0
H1691 H 0.55251 0.0305 0.53195 0.0
H1692 H 0.58204 0.02099 0.55272 0.0
H1693 H 0.49548 0.96884 0.4888 0.0
H1694 H 0.52641 0.96101 0.46792 0.0
H1695 H 0.51022 0.98455 0.46665 0.0
C1696 C 0.57732 0.7839 0.27297 0.0
C1697 C 0.60173 0.77916 0.25622 0.0
C1698 C 0.54636 0.77448 0.27383 0.0
C1699 C 0.53933 0.75997 0.25749 0.0
C1700 C 0.56381 0.75517 0.24052 0.0
C1701 C 0.59452 0.76475 0.24011 0.0
C1702 C 0.52115 0.78005 0.29229 0.0
C1703 C 0.55747 0.73996 0.22259 0.0
C1704 C 0.47106 0.7238 0.27032 0.0
C1705 C 0.44418 0.73047 0.25679 0.0
C1706 C 0.50186 0.73336 0.27101 0.0
C1707 C 0.50624 0.75002 0.25775 0.0
C1708 C 0.4792 0.75685 0.24413 0.0
C1709 C 0.44867 0.74706 0.24384 0.0
C1710 C 0.52984 0.72557 0.28587 0.0
C1711 C 0.48265 0.77441 0.22956 0.0
H1712 H 0.58257 0.79484 0.28564 0.0
H1713 H 0.61273 0.7611 0.2268 0.0
H1714 H 0.49782 0.78484 0.28366 0.0
H1715 H 0.51467 0.76777 0.30334 0.0
H1716 H 0.53046 0.79141 0.30393 0.0
H1717 H 0.57914 0.73771 0.21072 0.0
H1718 H 0.55176 0.7266 0.23168 0.0
H1719 H 0.53543 0.74361 0.2117 0.0
H1720 H 0.46792 0.71118 0.28063 0.0
H1721 H 0.42844 0.75229 0.23305 0.0
H1722 H 0.53833 0.73625 0.29873 0.0
H1723 H 0.55148 0.72209 0.2745 0.0
H1724 H 0.5223 0.71279 0.29565 0.0
H1725 H 0.49018 0.7863 0.24095 0.0
H1726 H 0.45912 0.77817 0.22035 0.0
H1727 H 0.50255 0.77251 0.21618 0.0
C1728 C 0.57165 0.46916 1.00131 0.0
C1729 C 0.59951 0.4762 0.01348 0.0
C1730 C 0.54074 0.47859 1.00161 0.0
C1731 C 0.53738 0.49555 0.01435 0.0
C1732 C 0.56545 0.50288 0.02638 0.0
C1733 C 0.59599 0.49315 0.02584 0.0
C1734 C 0.51153 0.47027 0.98851 0.0
C1735 C 0.5631 0.52087 0.04024 0.0
C1736 C 0.46486 0.52883 1.00128 0.0
C1737 C 0.4425 0.52477 0.01966 0.0
C1738 C 0.49555 0.51933 0.99916 0.0
C1739 C 0.50432 0.50536 0.01579 0.0
C1740 C 0.4818 0.5011 0.03427 0.0
C1741 C 0.45134 0.51081 0.03598 0.0
C1742 C 0.51872 0.52432 0.97916 0.0
C1743 C 0.49007 0.48639 0.05247 0.0
H1744 H 0.57396 0.45626 0.99145 0.0
H1745 H 0.61693 0.49869 0.03564 0.0
H1746 H 0.49116 0.46697 1.00108 0.0
H1747 H 0.50151 0.48055 0.97568 0.0
H1748 H 0.51835 0.45728 0.9789 0.0
H1749 H 0.58746 0.52509 0.04791 0.0
H1750 H 0.55397 0.53233 0.02873 0.0
H1751 H 0.54482 0.51924 0.05477 0.0
H1752 H 0.45829 0.53936 0.98838 0.0
H1753 H 0.4347 0.50767 0.05046 0.0
H1754 H 0.52432 0.5117 0.96849 0.0
H1755 H 0.54276 0.52952 0.98632 0.0
H1756 H 0.50804 0.53522 0.9674 0.0
H1757 H 0.4953 0.47283 0.0437 0.0
H1758 H 0.46956 0.48433 0.06537 0.0
H1759 H 0.51294 0.49046 0.06222 0.0
C1760 C 0.18167 0.41267 0.41171 0.0
C1761 C 0.19909 0.40977 0.43288 0.0
C1762 C 0.18569 0.40061 0.39232 0.0
C1763 C 0.2078 0.38518 0.39393 0.0
C1764 C 0.22718 0.38289 0.41467 0.0
C1765 C 0.22261 0.39519 0.43387 0.0
C1766 C 0.16452 0.40371 0.37063 0.0
C1767 C 0.25132 0.36681 0.41719 0.0
C1768 C 0.17954 0.34378 0.35674 0.0
C1769 C 0.19775 0.34622 0.33583 0.0
C1770 C 0.18405 0.35569 0.37623 0.0
C1771 C 0.20747 0.37051 0.37497 0.0
C1772 C 0.2276 0.37228 0.35452 0.0
C1773 C 0.22253 0.36014 0.33522 0.0
C1774 C 0.16205 0.35314 0.3976 0.0
C1775 C 0.25311 0.3877 0.35238 0.0
H1776 H 0.16362 0.42393 0.41062 0.0
H1777 H 0.23627 0.39275 0.45008 0.0
H1778 H 0.18026 0.40363 0.35456 0.0
H1779 H 0.14625 0.39213 0.36889 0.0
H1780 H 0.15061 0.41714 0.37134 0.0
H1781 H 0.26868 0.36888 0.43225 0.0
H1782 H 0.23721 0.35369 0.42025 0.0
H1783 H 0.26609 0.36496 0.40082 0.0
H1784 H 0.1605 0.33303 0.35753 0.0
H1785 H 0.23679 0.36224 0.31921 0.0
H1786 H 0.14469 0.36518 0.39909 0.0
H1787 H 0.17733 0.35281 0.4139 0.0
H1788 H 0.1471 0.34008 0.39668 0.0
H1789 H 0.24019 0.40122 0.34932 0.0
H1790 H 0.27057 0.38526 0.33748 0.0
H1791 H 0.2677 0.38906 0.36892 0.0
C1792 C 0.10587 0.89401 0.33544 0.0
C1793 C 0.13418 0.90407 0.32825 0.0
C1794 C 0.10312 0.88692 0.35854 0.0
C1795 C 0.12935 0.88987 0.37489 0.0
C1796 C 0.15836 0.89955 0.36754 0.0
C1797 C 0.1604 0.90653 0.3444 0.0
C1798 C 0.07177 0.87667 0.3656 0.0
C1799 C 0.18701 0.9029 0.38431 0.0
C1800 C 0.10906 0.88875 0.44065 0.0
C1801 C 0.11951 0.87072 0.44714 0.0
C1802 C 0.11213 0.89513 0.41727 0.0
C1803 C 0.12612 0.88326 0.39985 0.0
C1804 C 0.13708 0.86514 0.40634 0.0
C1805 C 0.1336 0.85909 0.42983 0.0
C1806 C 0.1001 0.91455 0.41114 0.0
C1807 C 0.15229 0.85206 0.38841 0.0
H1808 H 0.0854 0.89205 0.3232 0.0
H1809 H 0.18242 0.91424 0.33909 0.0
H1810 H 0.07812 0.86263 0.37263 0.0
H1811 H 0.05894 0.88444 0.3799 0.0
H1812 H 0.05415 0.87496 0.35064 0.0
H1813 H 0.20839 0.90998 0.37562 0.0
H1814 H 0.17851 0.9117 0.39926 0.0
H1815 H 0.1958 0.88944 0.39179 0.0
H1816 H 0.09804 0.89785 0.4538 0.0
H1817 H 0.14177 0.84513 0.43457 0.0
H1818 H 0.08039 0.91373 0.39744 0.0
H1819 H 0.12091 0.92289 0.40368 0.0
H1820 H 0.0899 0.92209 0.42668 0.0
H1821 H 0.13413 0.84927 0.37408 0.0
H1822 H 0.15995 0.8385 0.3963 0.0
H1823 H 0.17447 0.85869 0.38023 0.0
C1824 C 0.20437 0.87827 0.83539 0.0
C1825 C 0.18257 0.86542 0.82473 0.0
C1826 C 0.20195 0.88267 0.85947 0.0
C1827 C 0.17677 0.87426 0.8734 0.0
C1828 C 0.1539 0.86176 0.86262 0.0
C1829 C 0.15721 0.85738 0.83848 0.0
C1830 C 0.22709 0.89594 0.87017 0.0
C1831 C 0.12636 0.85273 0.87672 0.0
C1832 C 0.19532 0.87187 0.9393 0.0
C1833 C 0.1793 0.88799 0.94778 0.0
C1834 C 0.19379 0.86691 0.9153 0.0
C1835 C 0.17538 0.87816 0.89934 0.0
C1836 C 0.15786 0.89395 0.908 0.0
C1837 C 0.16025 0.89876 0.93202 0.0
C1838 C 0.21318 0.85009 0.90685 0.0
C1839 C 0.1375 0.90616 0.89174 0.0
H1840 H 0.22415 0.88455 0.82505 0.0
H1841 H 0.14021 0.84746 0.83047 0.0
H1842 H 0.21411 0.90785 0.8787 0.0
H1843 H 0.24156 0.88861 0.88406 0.0
H1844 H 0.2448 0.90155 0.85689 0.0
H1845 H 0.10924 0.84437 0.86548 0.0
H1846 H 0.13726 0.8434 0.89031 0.0
H1847 H 0.11164 0.86358 0.88608 0.0
H1848 H 0.21021 0.86349 0.95125 0.0
H1849 H 0.1476 0.91118 0.93838 0.0
H1850 H 0.23332 0.85469 0.89475 0.0
H1851 H 0.1967 0.84054 0.89677 0.0
H1852 H 0.22463 0.84215 0.92163 0.0
H1853 H 0.1543 0.91358 0.87933 0.0
H1854 H 0.12266 0.91674 0.90152 0.0
H1855 H 0.1203 0.89747 0.88102 0.0
C1856 C 0.13455 0.39574 0.839 0.0
C1857 C 0.11246 0.38645 0.82372 0.0
C1858 C 0.13702 0.39072 0.86296 0.0
C1859 C 0.11669 0.37618 0.87201 0.0
C1860 C 0.0953 0.36631 0.85649 0.0
C1861 C 0.09357 0.37148 0.83259 0.0
C1862 C 0.16047 0.40146 0.87877 0.0
C1863 C 0.07305 0.35078 0.86534 0.0
C1864 C 0.13294 0.35348 0.93196 0.0
C1865 C 0.10948 0.3626 0.94633 0.0
C1866 C 0.13643 0.35816 0.90794 0.0
C1867 C 0.11579 0.37218 0.89793 0.0
C1868 C 0.09285 0.38182 0.91254 0.0
C1869 C 0.09009 0.37699 0.93648 0.0
C1870 C 0.16149 0.3477 0.8931 0.0
C1871 C 0.07025 0.39682 0.90267 0.0
H1872 H 0.14937 0.40727 0.83238 0.0
H1873 H 0.07639 0.3642 0.82104 0.0
H1874 H 0.14586 0.40987 0.89156 0.0
H1875 H 0.17624 0.39167 0.88909 0.0
H1876 H 0.17695 0.41104 0.86867 0.0
H1877 H 0.05932 0.34373 0.85083 0.0
H1878 H 0.088 0.34016 0.87493 0.0
H1879 H 0.05461 0.35656 0.87798 0.0
H1880 H 0.1481 0.34237 0.93934 0.0
H1881 H 0.07187 0.38416 0.94732 0.0
H1882 H 0.1776 0.35769 0.88338 0.0
H1883 H 0.14826 0.33909 0.87978 0.0
H1884 H 0.17758 0.33835 0.90386 0.0
H1885 H 0.08523 0.40779 0.89379 0.0
H1886 H 0.05473 0.40353 0.91651 0.0
H1887 H 0.05344 0.39064 0.88921 0.0
C1888 C 0.85729 0.63129 0.67964 0.0
C1889 C 0.88613 0.64141 0.68559 0.0
C1890 C 0.85352 0.62313 0.65717 0.0
C1891 C 0.87929 0.62495 0.6402 0.0
C1892 C 0.90894 0.63454 0.64641 0.0
C1893 C 0.91193 0.64269 0.66891 0.0
C1894 C 0.82144 0.6131 0.65132 0.0
C1895 C 0.93719 0.63668 0.62903 0.0
C1896 C 0.87915 0.59245 0.58658 0.0
C1897 C 0.86527 0.60392 0.569 0.0
C1898 C 0.88405 0.5991 0.60973 0.0
C1899 C 0.87462 0.61763 0.61562 0.0
C1900 C 0.86073 0.62928 0.59794 0.0
C1901 C 0.85637 0.62234 0.57491 0.0
C1902 C 0.89922 0.58625 0.62793 0.0
C1903 C 0.85013 0.64909 0.60339 0.0
H1904 H 0.83712 0.63024 0.69229 0.0
H1905 H 0.93437 0.6504 0.67327 0.0
H1906 H 0.80824 0.62065 0.637 0.0
H1907 H 0.82683 0.59878 0.6448 0.0
H1908 H 0.80451 0.61206 0.66677 0.0
H1909 H 0.95942 0.64345 0.63703 0.0
H1910 H 0.94461 0.62281 0.622 0.0
H1911 H 0.92883 0.64528 0.61385 0.0
H1912 H 0.88614 0.5782 0.58229 0.0
H1913 H 0.84548 0.63133 0.56159 0.0
H1914 H 0.88152 0.58421 0.64273 0.0
H1915 H 0.92211 0.59267 0.63536 0.0
H1916 H 0.90572 0.57233 0.6205 0.0
H1917 H 0.8311 0.64906 0.61758 0.0
H1918 H 0.83959 0.65635 0.58775 0.0
H1919 H 0.87178 0.65725 0.60993 0.0
C1920 C 0.9131 0.10933 0.68063 0.0
C1921 C 0.92682 0.12169 0.69729 0.0
C1922 C 0.90932 0.11455 0.65684 0.0
C1923 C 0.91955 0.13257 0.64938 0.0
C1924 C 0.9331 0.14517 0.66613 0.0
C1925 C 0.93652 0.13961 0.68983 0.0
C1926 C 0.8946 0.1007 0.63964 0.0
C1927 C 0.94434 0.16451 0.65897 0.0
C1928 C 0.93973 0.14159 0.58454 0.0
C1929 C 0.91115 0.15118 0.57682 0.0
C1930 C 0.94253 0.13514 0.60793 0.0
C1931 C 0.91611 0.13828 0.62407 0.0
C1932 C 0.88679 0.1474 0.61617 0.0
C1933 C 0.88469 0.15374 0.59273 0.0
C1934 C 0.97421 0.12545 0.61556 0.0
C1935 C 0.85793 0.15093 0.63268 0.0
H1936 H 0.90552 0.09545 0.68611 0.0
H1937 H 0.94724 0.14927 0.70246 0.0
H1938 H 0.87223 0.1068 0.63106 0.0
H1939 H 0.9129 0.0976 0.62551 0.0
H1940 H 0.88739 0.08735 0.64827 0.0
H1941 H 0.95417 0.1727 0.6741 0.0
H1942 H 0.96413 0.16347 0.64536 0.0
H1943 H 0.92322 0.17231 0.65103 0.0
H1944 H 0.96038 0.13956 0.57248 0.0
H1945 H 0.86247 0.16109 0.58703 0.0
H1946 H 0.96833 0.11163 0.62341 0.0
H1947 H 0.98683 0.13387 0.62936 0.0
H1948 H 0.99185 0.12336 0.60069 0.0
H1949 H 0.84977 0.13762 0.64092 0.0
H1950 H 0.83625 0.15736 0.62356 0.0
H1951 H 0.86596 0.16038 0.64712 0.0
C1952 C 0.88096 0.16622 0.17982 0.0
C1953 C 0.86066 0.1562 0.19554 0.0
C1954 C 0.88402 0.16076 0.15603 0.0
C1955 C 0.86567 0.1452 0.14754 0.0
C1956 C 0.84532 0.13498 0.1634 0.0
C1957 C 0.8434 0.14045 0.1872 0.0
C1958 C 0.90664 0.17177 0.13993 0.0
C1959 C 0.82476 0.11855 0.15508 0.0
C1960 C 0.84436 0.1425 0.08199 0.0
C1961 C 0.8658 0.12831 0.07405 0.0
C1962 C 0.84429 0.14823 0.10574 0.0
C1963 C 0.86679 0.13993 0.12195 0.0
C1964 C 0.88935 0.12607 0.11383 0.0
C1965 C 0.88829 0.12027 0.0901 0.0
C1966 C 0.81931 0.16275 0.11365 0.0
C1967 C 0.91428 0.11716 0.13031 0.0
H1968 H 0.89449 0.17836 0.18611 0.0
H1969 H 0.8274 0.13272 0.19913 0.0
H1970 H 0.92452 0.16225 0.13105 0.0
H1971 H 0.89167 0.17865 0.12594 0.0
H1972 H 0.9209 0.1827 0.14954 0.0
H1973 H 0.81032 0.11201 0.16961 0.0
H1974 H 0.80708 0.1232 0.1412 0.0
H1975 H 0.84115 0.10777 0.14711 0.0
H1976 H 0.82666 0.14868 0.06982 0.0
H1977 H 0.90503 0.10934 0.08411 0.0
H1978 H 0.83234 0.17474 0.12195 0.0
H1979 H 0.80255 0.15663 0.12717 0.0
H1980 H 0.80384 0.16806 0.09885 0.0
H1981 H 0.92894 0.12812 0.13952 0.0
H1982 H 0.93178 0.10768 0.12092 0.0
H1983 H 0.901 0.10897 0.14401 0.0
C1984 C 0.93462 0.63629 0.08255 0.0
C1985 C 0.91766 0.65317 0.07858 0.0
C1986 C 0.93641 0.62843 0.10533 0.0
C1987 C 0.92053 0.63754 0.12453 0.0
C1988 C 0.90187 0.65401 0.12029 0.0
C1989 C 0.90084 0.66166 0.09748 0.0
C1990 C 0.95673 0.61091 0.10906 0.0
C1991 C 0.88417 0.66409 0.14007 0.0
C1992 C 0.90921 0.61187 0.18319 0.0
C1993 C 0.93585 0.61898 0.19657 0.0
C1994 C 0.90384 0.61773 0.15975 0.0
C1995 C 0.92579 0.63088 0.1493 0.0
C1996 C 0.95258 0.63815 0.16277 0.0
C1997 C 0.95715 0.63221 0.18618 0.0
C1998 C 0.87474 0.60982 0.14614 0.0
C1999 C 0.97668 0.65214 0.1524 0.0
H2000 H 0.94783 0.62968 0.0681 0.0
H2001 H 0.88743 0.67463 0.09457 0.0
H2002 H 0.9791 0.61426 0.11978 0.0
H2003 H 0.94206 0.60037 0.11898 0.0
H2004 H 0.96505 0.6046 0.09215 0.0
H2005 H 0.86803 0.6756 0.13352 0.0
H2006 H 0.86859 0.65416 0.15029 0.0
H2007 H 0.90283 0.67009 0.15238 0.0
H2008 H 0.89265 0.60161 0.19098 0.0
H2009 H 0.97794 0.63774 0.1962 0.0
H2010 H 0.88386 0.60251 0.13014 0.0
H2011 H 0.8582 0.62133 0.14015 0.0
H2012 H 0.8598 0.59983 0.15679 0.0
H2013 H 0.98849 0.64624 0.13635 0.0
H2014 H 0.99666 0.65615 0.165 0.0
H2015 H 0.9631 0.66497 0.147 0.0
C2016 C 0.66084 0.39769 0.93643 0.0
C2017 C 0.67767 0.38548 0.9518 0.0
C2018 C 0.65977 0.39435 0.91193 0.0
C2019 C 0.67623 0.37852 0.90237 0.0
C2020 C 0.69241 0.36586 0.91787 0.0
C2021 C 0.69279 0.36943 0.9423 0.0
C2022 C 0.64189 0.40811 0.89619 0.0
C2023 C 0.71048 0.34887 0.90855 0.0
C2024 C 0.65973 0.36112 0.8395 0.0
C2025 C 0.68719 0.36844 0.82717 0.0
C2026 C 0.65517 0.36475 0.86376 0.0
C2027 C 0.67871 0.37585 0.87614 0.0
C2028 C 0.70578 0.38378 0.8636 0.0
C2029 C 0.70959 0.38006 0.83939 0.0
C2030 C 0.62572 0.35619 0.87632 0.0
C2031 C 0.73157 0.39567 0.87595 0.0
H2032 H 0.64893 0.4101 0.94349 0.0
H2033 H 0.70594 0.3599 0.95389 0.0
H2034 H 0.66025 0.41544 0.88484 0.0
H2035 H 0.62431 0.40066 0.88435 0.0
H2036 H 0.6278 0.41875 0.90642 0.0
H2037 H 0.72028 0.33984 0.92291 0.0
H2038 H 0.69357 0.34041 0.89732 0.0
H2039 H 0.7317 0.35336 0.89734 0.0
H2040 H 0.64227 0.3521 0.83036 0.0
H2041 H 0.7309 0.38585 0.83018 0.0
H2042 H 0.61198 0.36707 0.88634 0.0
H2043 H 0.63462 0.34566 0.88924 0.0
H2044 H 0.60817 0.34926 0.86394 0.0
H2045 H 0.71933 0.40747 0.88524 0.0
H2046 H 0.75039 0.40144 0.86355 0.0
H2047 H 0.7447 0.38718 0.88944 0.0
C2048 C 0.59949 0.88397 0.93488 0.0
C2049 C 0.61509 0.86767 0.94317 0.0
C2050 C 0.60056 0.88888 0.91086 0.0
C2051 C 0.61801 0.87735 0.89469 0.0
C2052 C 0.63509 0.86134 0.90312 0.0
C2053 C 0.63324 0.85663 0.92718 0.0
C2054 C 0.58175 0.90598 0.90264 0.0
C2055 C 0.65438 0.84882 0.8866 0.0
C2056 C 0.58706 0.87816 0.83122 0.0
C2057 C 0.6091 0.89082 0.82046 0.0
C2058 C 0.59015 0.87341 0.85516 0.0
C2059 C 0.61619 0.8813 0.86879 0.0
C2060 C 0.63943 0.89345 0.85784 0.0
C2061 C 0.63552 0.89815 0.83386 0.0
C2062 C 0.56471 0.86045 0.86607 0.0
C2063 C 0.66785 0.90193 0.87163 0.0
H2064 H 0.58532 0.89257 0.94702 0.0
H2065 H 0.64556 0.84406 0.93338 0.0
H2066 H 0.59846 0.9153 0.89241 0.0
H2067 H 0.56115 0.90169 0.89074 0.0
H2068 H 0.571 0.91407 0.91754 0.0
H2069 H 0.66892 0.83799 0.89618 0.0
H2070 H 0.63688 0.84169 0.8744 0.0
H2071 H 0.67175 0.85723 0.87567 0.0
H2072 H 0.56652 0.8724 0.82113 0.0
H2073 H 0.65272 0.90792 0.82577 0.0
H2074 H 0.55071 0.86798 0.88002 0.0
H2075 H 0.57737 0.84841 0.87456 0.0
H2076 H 0.54661 0.85501 0.85292 0.0
H2077 H 0.65783 0.91157 0.88522 0.0
H2078 H 0.68531 0.90986 0.86018 0.0
H2079 H 0.682 0.89084 0.88097 0.0
C2080 C 0.65937 0.89684 0.43189 0.0
C2081 C 0.68337 0.88774 0.44583 0.0
C2082 C 0.65577 0.8926 0.40776 0.0
C2083 C 0.67692 0.8791 0.39719 0.0
C2084 C 0.70038 0.86943 0.41136 0.0
C2085 C 0.70316 0.87377 0.43545 0.0
C2086 C 0.63009 0.90302 0.3934 0.0
C2087 C 0.72363 0.85504 0.40087 0.0
C2088 C 0.65964 0.85738 0.33688 0.0
C2089 C 0.68106 0.86771 0.32225 0.0
C2090 C 0.65692 0.8614 0.36113 0.0
C2091 C 0.67639 0.87594 0.3711 0.0
C2092 C 0.69724 0.88678 0.35626 0.0
C2093 C 0.69915 0.88262 0.33208 0.0
C2094 C 0.63401 0.8497 0.37622 0.0
C2095 C 0.71866 0.90231 0.3661 0.0
H2096 H 0.64385 0.9076 0.43971 0.0
H2097 H 0.72181 0.86664 0.44596 0.0
H2098 H 0.64281 0.91234 0.38061 0.0
H2099 H 0.61467 0.89305 0.3831 0.0
H2100 H 0.61338 0.91167 0.40459 0.0
H2101 H 0.73931 0.84809 0.41444 0.0
H2102 H 0.70919 0.84417 0.39136 0.0
H2103 H 0.7403 0.86185 0.38782 0.0
H2104 H 0.64544 0.84588 0.32949 0.0
H2105 H 0.71582 0.8907 0.32102 0.0
H2106 H 0.61759 0.85884 0.38697 0.0
H2107 H 0.649 0.84114 0.38863 0.0
H2108 H 0.61819 0.84017 0.36553 0.0
H2109 H 0.70308 0.91242 0.37603 0.0
H2110 H 0.73235 0.90999 0.3521 0.0
H2111 H 0.73711 0.8964 0.37865 0.0
C2112 C 0.58259 0.36227 0.43866 0.0
C2113 C 0.60916 0.34988 0.44281 0.0
C2114 C 0.57888 0.37138 0.41672 0.0
C2115 C 0.60225 0.36806 0.39839 0.0
C2116 C 0.62962 0.35602 0.40275 0.0
C2117 C 0.63273 0.34714 0.42478 0.0
C2118 C 0.5494 0.38416 0.41292 0.0
C2119 C 0.65522 0.35206 0.38387 0.0
C2120 C 0.57614 0.3745 0.33403 0.0
C2121 C 0.59062 0.39179 0.32822 0.0
C2122 C 0.57935 0.3668 0.35679 0.0
C2123 C 0.59755 0.37654 0.37437 0.0
C2124 C 0.61219 0.39402 0.36865 0.0
C2125 C 0.60855 0.40141 0.34574 0.0
C2126 C 0.56337 0.34813 0.362 0.0
C2127 C 0.63189 0.40487 0.38674 0.0
H2128 H 0.56415 0.36449 0.45235 0.0
H2129 H 0.65344 0.33766 0.42767 0.0
H2130 H 0.55798 0.39805 0.40665 0.0
H2131 H 0.53297 0.37827 0.39904 0.0
H2132 H 0.53448 0.38612 0.42923 0.0
H2133 H 0.67585 0.34304 0.39033 0.0
H2134 H 0.64309 0.34499 0.3687 0.0
H2135 H 0.66598 0.36535 0.37723 0.0
H2136 H 0.56212 0.36693 0.32077 0.0
H2137 H 0.6198 0.4148 0.34158 0.0
H2138 H 0.54596 0.34947 0.3771 0.0
H2139 H 0.58279 0.33784 0.36711 0.0
H2140 H 0.54939 0.34251 0.34664 0.0
H2141 H 0.61623 0.40762 0.40249 0.0
H2142 H 0.64106 0.41845 0.37975 0.0
H2143 H 0.65363 0.3965 0.39267 0.0
C2144 C 0.35727 0.61882 0.19279 0.0
C2145 C 0.36656 0.63702 0.19934 0.0
C2146 C 0.3606 0.6126 0.16936 0.0
C2147 C 0.3737 0.62481 0.152 0.0
C2148 C 0.3835 0.64312 0.15855 0.0
C2149 C 0.37976 0.64901 0.18207 0.0
C2150 C 0.34976 0.59298 0.16315 0.0
C2151 C 0.39776 0.65655 0.14066 0.0
C2152 C 0.40855 0.60234 0.09623 0.0
C2153 C 0.38195 0.60437 0.08032 0.0
C2154 C 0.40648 0.60926 0.1194 0.0
C2155 C 0.37703 0.6184 0.12699 0.0
C2156 C 0.35041 0.62093 0.11086 0.0
C2157 C 0.35321 0.61395 0.08774 0.0
C2158 C 0.43555 0.60638 0.13594 0.0
C2159 C 0.31857 0.63059 0.1182 0.0
H2160 H 0.34695 0.60945 0.20591 0.0
H2161 H 0.38706 0.6631 0.18689 0.0
H2162 H 0.32987 0.59347 0.14955 0.0
H2163 H 0.37101 0.58509 0.15552 0.0
H2164 H 0.34021 0.58517 0.17867 0.0
H2165 H 0.4047 0.67021 0.14863 0.0
H2166 H 0.42023 0.65038 0.13231 0.0
H2167 H 0.3793 0.65909 0.12644 0.0
H2168 H 0.4309 0.59501 0.09073 0.0
H2169 H 0.33245 0.61557 0.07566 0.0
H2170 H 0.42783 0.59732 0.15085 0.0
H2171 H 0.44354 0.61997 0.14351 0.0
H2172 H 0.45726 0.5998 0.12704 0.0
H2173 H 0.30636 0.62251 0.1325 0.0
H2174 H 0.30068 0.63207 0.10335 0.0
H2175 H 0.32418 0.6447 0.12532 0.0
C2176 C 0.41213 0.1136 0.1784 0.0
C2177 C 0.43798 0.12171 0.19165 0.0
C2178 C 0.40877 0.11724 0.1541 0.0
C2179 C 0.43198 0.12913 0.14266 0.0
C2180 C 0.45748 0.13777 0.15609 0.0
C2181 C 0.46004 0.13405 0.18035 0.0
C2182 C 0.38094 0.10796 0.14053 0.0
C2183 C 0.48285 0.15049 0.14466 0.0
C2184 C 0.44986 0.12406 0.07693 0.0
C2185 C 0.43385 0.13986 0.06754 0.0
C2186 C 0.44862 0.1201 0.10123 0.0
C2187 C 0.43058 0.13207 0.11655 0.0
C2188 C 0.41312 0.14755 0.10702 0.0
C2189 C 0.41513 0.15132 0.08271 0.0
C2190 C 0.4678 0.10352 0.11063 0.0
C2191 C 0.39322 0.16053 0.12261 0.0
H2192 H 0.39493 0.10405 0.18689 0.0
H2193 H 0.48016 0.14039 0.19031 0.0
H2194 H 0.36661 0.11856 0.13044 0.0
H2195 H 0.39157 0.09797 0.12758 0.0
H2196 H 0.36351 0.10025 0.15224 0.0
H2197 H 0.50055 0.15656 0.15765 0.0
H2198 H 0.49732 0.14254 0.13132 0.0
H2199 H 0.4701 0.16209 0.13531 0.0
H2200 H 0.46447 0.11515 0.06544 0.0
H2201 H 0.40249 0.1635 0.07565 0.0
H2202 H 0.45119 0.09444 0.12129 0.0
H2203 H 0.48805 0.10847 0.12242 0.0
H2204 H 0.47904 0.09498 0.09633 0.0
H2205 H 0.37583 0.15239 0.13384 0.0
H2206 H 0.37862 0.17088 0.11227 0.0
H2207 H 0.4103 0.16822 0.13456 0.0
C2208 C 0.35595 0.14117 0.67906 0.0
C2209 C 0.38376 0.15167 0.68625 0.0
C2210 C 0.35332 0.13426 0.65589 0.0
C2211 C 0.3792 0.13779 0.63945 0.0
C2212 C 0.4078 0.14785 0.64682 0.0
C2213 C 0.40969 0.15469 0.67004 0.0
C2214 C 0.32237 0.12362 0.6488 0.0
C2215 C 0.4361 0.15179 0.62999 0.0
C2216 C 0.38318 0.10765 0.58395 0.0
C2217 C 0.36813 0.11929 0.56704 0.0
C2218 C 0.38727 0.11354 0.60746 0.0
C2219 C 0.37588 0.13148 0.61438 0.0
C2220 C 0.36102 0.14337 0.59735 0.0
C2221 C 0.35743 0.13717 0.57393 0.0
C2222 C 0.40348 0.10047 0.62495 0.0
C2223 C 0.34842 0.16258 0.60396 0.0
H2224 H 0.3357 0.13879 0.69135 0.0
H2225 H 0.43133 0.16273 0.67536 0.0
H2226 H 0.30896 0.13139 0.63476 0.0
H2227 H 0.32929 0.10978 0.64143 0.0
H2228 H 0.30507 0.12144 0.66384 0.0
H2229 H 0.45734 0.15896 0.63874 0.0
H2230 H 0.44525 0.13855 0.62209 0.0
H2231 H 0.42709 0.16074 0.61533 0.0
H2232 H 0.39159 0.09381 0.57888 0.0
H2233 H 0.34566 0.14626 0.5611 0.0
H2234 H 0.38567 0.09712 0.63931 0.0
H2235 H 0.42536 0.10736 0.63319 0.0
H2236 H 0.4118 0.08718 0.61667 0.0
H2237 H 0.32892 0.16135 0.61775 0.0
H2238 H 0.33777 0.17021 0.58865 0.0
H2239 H 0.36903 0.17104 0.61149 0.0
C2240 C 0.442 0.63681 0.69271 0.0
C2241 C 0.43147 0.61898 0.69991 0.0
C2242 C 0.4383 0.64273 0.66918 0.0
C2243 C 0.42354 0.63059 0.6524 0.0
C2244 C 0.41239 0.61269 0.65963 0.0
C2245 C 0.41655 0.60709 0.68322 0.0
C2246 C 0.45062 0.6619 0.66221 0.0
C2247 C 0.39631 0.59936 0.64238 0.0
C2248 C 0.38884 0.65273 0.59636 0.0
C2249 C 0.41466 0.64954 0.58012 0.0
C2250 C 0.39113 0.64636 0.61977 0.0
C2251 C 0.42 0.63659 0.62725 0.0
C2252 C 0.4458 0.63293 0.61082 0.0
C2253 C 0.4428 0.63939 0.58747 0.0
C2254 C 0.36292 0.65043 0.63664 0.0
C2255 C 0.477 0.62257 0.61804 0.0
H2256 H 0.45365 0.64608 0.70538 0.0
H2257 H 0.40826 0.5933 0.68854 0.0
H2258 H 0.47006 0.66061 0.64839 0.0
H2259 H 0.42985 0.6702 0.65461 0.0
H2260 H 0.46125 0.66973 0.67737 0.0
H2261 H 0.38831 0.5861 0.65088 0.0
H2262 H 0.37422 0.60605 0.63413 0.0
H2263 H 0.41407 0.59598 0.628 0.0
H2264 H 0.36696 0.66052 0.59092 0.0
H2265 H 0.46295 0.63688 0.57514 0.0
H2266 H 0.37196 0.65953 0.65114 0.0
H2267 H 0.3539 0.63725 0.64476 0.0
H2268 H 0.34157 0.65748 0.62785 0.0
H2269 H 0.49028 0.63056 0.63194 0.0
H2270 H 0.49433 0.62034 0.60302 0.0
H2271 H 0.4704 0.60876 0.62563 0.0
C2272 C 0.2953 0.41128 0.29006 0.0
C2273 C 0.28195 0.39899 0.27313 0.0
C2274 C 0.3291 0.41678 0.28947 0.0
C2275 C 0.35053 0.40978 0.27163 0.0
C2276 C 0.33737 0.39725 0.25465 0.0
C2277 C 0.30341 0.39213 0.25551 0.0
C2278 C 0.34185 0.43027 0.30786 0.0
C2279 C 0.35914 0.38933 0.23536 0.0
C2280 C 0.42806 0.43795 0.25489 0.0
C2281 C 0.45385 0.42866 0.26705 0.0
C2282 C 0.39462 0.43204 0.25639 0.0
C2283 C 0.38625 0.41618 0.27011 0.0
C2284 C 0.41203 0.40651 0.28218 0.0
C2285 C 0.44535 0.41287 0.2806 0.0
C2286 C 0.36813 0.44287 0.24324 0.0
C2287 C 0.4044 0.38941 0.29682 0.0
H2288 H 0.27947 0.41653 0.30401 0.0
H2289 H 0.29365 0.38285 0.24211 0.0
H2290 H 0.36318 0.42399 0.31748 0.0
H2291 H 0.35111 0.44318 0.29919 0.0
H2292 H 0.3223 0.4342 0.32082 0.0
H2293 H 0.34566 0.37905 0.22418 0.0
H2294 H 0.36835 0.40081 0.22393 0.0
H2295 H 0.38131 0.38237 0.24313 0.0
H2296 H 0.43384 0.44989 0.24393 0.0
H2297 H 0.46463 0.40554 0.29024 0.0
H2298 H 0.34883 0.44791 0.25574 0.0
H2299 H 0.35549 0.43362 0.23033 0.0
H2300 H 0.37851 0.45511 0.23366 0.0
H2301 H 0.38675 0.39311 0.31114 0.0
H2302 H 0.42717 0.38323 0.30481 0.0
H2303 H 0.39207 0.37865 0.28574 0.0
C2304 C 0.85318 0.84715 0.2526 0.0
C2305 C 0.823 0.85508 0.26025 0.0
C2306 C 0.8828 0.85774 0.25158 0.0
C2307 C 0.88263 0.87674 0.25878 0.0
C2308 C 0.85223 0.88481 0.26661 0.0
C2309 C 0.82281 0.87397 0.26704 0.0
C2310 C 0.9143 0.84859 0.24264 0.0
C2311 C 0.85087 0.90489 0.2748 0.0
C2312 C 0.9666 0.89877 0.27557 0.0
C2313 C 0.97428 0.90936 0.25545 0.0
C2314 C 0.93675 0.88836 0.27706 0.0
C2315 C 0.91414 0.88817 0.25779 0.0
C2316 C 0.92198 0.89869 0.23734 0.0
C2317 C 0.95168 0.90922 0.23651 0.0
C2318 C 0.9293 0.87761 0.29934 0.0
C2319 C 0.89914 0.89866 0.21618 0.0
H2320 H 0.85352 0.83265 0.24708 0.0
H2321 H 0.79975 0.88015 0.27324 0.0
H2322 H 0.92401 0.85643 0.22722 0.0
H2323 H 0.93384 0.849 0.25648 0.0
H2324 H 0.91024 0.8338 0.23736 0.0
H2325 H 0.82555 0.90901 0.28083 0.0
H2326 H 0.86871 0.90703 0.28952 0.0
H2327 H 0.85851 0.91435 0.26028 0.0
H2328 H 0.98371 0.89891 0.29035 0.0
H2329 H 0.95755 0.9171 0.22074 0.0
H2330 H 0.92718 0.86246 0.29534 0.0
H2331 H 0.90498 0.88217 0.30671 0.0
H2332 H 0.94887 0.87956 0.31299 0.0
H2333 H 0.89592 0.88415 0.2096 0.0
H2334 H 0.90883 0.90747 0.20157 0.0
H2335 H 0.8741 0.90389 0.22124 0.0
C2336 C 0.34978 0.90849 0.02389 0.0
C2337 C 0.32338 0.90564 1.00795 0.0
C2338 C 0.37914 0.89772 0.0229 0.0
C2339 C 0.38249 0.88357 1.00559 0.0
C2340 C 0.35607 0.8806 0.98937 0.0
C2341 C 0.32692 0.89163 0.99074 0.0
C2342 C 0.40648 0.90137 0.04064 0.0
C2343 C 0.35854 0.86568 0.97064 0.0
C2344 C 0.47083 0.86615 0.99228 0.0
C2345 C 0.47276 0.84977 1.00593 0.0
C2346 C 0.44155 0.87709 0.99167 0.0
C2347 C 0.41329 0.87161 1.00501 0.0
C2348 C 0.41494 0.85502 0.01863 0.0
C2349 C 0.44451 0.84439 0.01896 0.0
C2350 C 0.44096 0.89466 0.9769 0.0
C2351 C 0.38557 0.84863 0.03321 0.0
H2352 H 0.34738 0.91896 0.03756 0.0
H2353 H 0.30699 0.88936 0.97818 0.0
H2354 H 0.41073 0.88868 0.05149 0.0
H2355 H 0.43021 0.90453 0.0314 0.0
H2356 H 0.40048 0.91322 0.05259 0.0
H2357 H 0.33615 0.86529 0.95909 0.0
H2358 H 0.38087 0.86813 0.95952 0.0
H2359 H 0.36161 0.85176 0.97902 0.0
H2360 H 0.49215 0.87039 0.98188 0.0
H2361 H 0.4456 0.83199 0.02987 0.0
H2362 H 0.43676 0.907 0.98838 0.0
H2363 H 0.41998 0.89409 0.96417 0.0
H2364 H 0.46456 0.89675 0.96699 0.0
H2365 H 0.37976 0.85927 0.04685 0.0
H2366 H 0.3903 0.83504 0.04211 0.0
H2367 H 0.36314 0.84719 0.0219 0.0
C2368 C 0.9687 0.36521 1.00474 0.0
C2369 C 0.96852 0.34563 1.00678 0.0
C2370 C 0.9389 0.37567 1.00613 0.0
C2371 C 0.90808 0.36641 0.01001 0.0
C2372 C 0.90783 0.34665 0.01222 0.0
C2373 C 0.9379 0.33655 0.01043 0.0
C2374 C 0.94039 0.39665 1.0034 0.0
C2375 C 0.87579 0.33617 0.01678 0.0
C2376 C 0.83691 0.39423 0.0378 0.0
C2377 C 0.81604 0.39797 0.01845 0.0
C2378 C 0.8667 0.38401 0.03527 0.0
C2379 C 0.87634 0.37739 0.01275 0.0
C2380 C 0.8554 0.38107 0.99309 0.0
C2381 C 0.82544 0.39118 0.9962 0.0
C2382 C 0.88778 0.38021 0.05682 0.0
C2383 C 0.8648 0.37443 0.96874 0.0
H2384 H 0.99211 0.37234 1.00158 0.0
H2385 H 0.93752 0.32147 0.01226 0.0
H2386 H 0.92365 0.40117 0.98889 0.0
H2387 H 0.93143 0.4035 0.01977 0.0
H2388 H 0.96604 0.4017 0.9996 0.0
H2389 H 0.87967 0.3208 0.01778 0.0
H2390 H 0.86458 0.34098 0.03361 0.0
H2391 H 0.85748 0.33916 1.00261 0.0
H2392 H 0.82967 0.39905 0.05515 0.0
H2393 H 0.80964 0.39408 0.98114 0.0
H2394 H 0.91308 0.38618 0.05439 0.0
H2395 H 0.89076 0.3649 0.0593 0.0
H2396 H 0.87676 0.38623 0.07311 0.0
H2397 H 0.88945 0.38026 0.96372 0.0
H2398 H 0.84616 0.3786 0.95523 0.0
H2399 H 0.86718 0.35897 0.9686 0.0
C2400 C 0.69992 0.659 0.76975 0.0
C2401 C 0.72728 0.65292 0.75625 0.0
C2402 C 0.66977 0.64891 0.77026 0.0
C2403 C 0.66662 0.63219 0.75705 0.0
C2404 C 0.69397 0.626 0.74325 0.0
C2405 C 0.72384 0.63641 0.74301 0.0
C2406 C 0.64138 0.65604 0.78528 0.0
C2407 C 0.69177 0.60826 0.7289 0.0
C2408 C 0.60156 0.59674 0.77754 0.0
C2409 C 0.57493 0.5999 0.76189 0.0
C2410 C 0.63148 0.60696 0.77597 0.0
C2411 C 0.63514 0.62087 0.75838 0.0
C2412 C 0.60847 0.62416 0.74248 0.0
C2413 C 0.5788 0.61367 0.7444 0.0
C2414 C 0.65912 0.60297 0.79336 0.0
C2415 C 0.61125 0.63885 0.72347 0.0
H2416 H 0.70218 0.67152 0.78035 0.0
H2417 H 0.74446 0.63163 0.73226 0.0
H2418 H 0.61864 0.65782 0.77436 0.0
H2419 H 0.63543 0.64567 0.7992 0.0
H2420 H 0.64729 0.66962 0.79384 0.0
H2421 H 0.71487 0.60556 0.71863 0.0
H2422 H 0.68719 0.59616 0.74071 0.0
H2423 H 0.67041 0.60909 0.7165 0.0
H2424 H 0.59893 0.58644 0.79139 0.0
H2425 H 0.55872 0.61616 0.73203 0.0
H2426 H 0.66451 0.61571 0.80388 0.0
H2427 H 0.68233 0.59922 0.78382 0.0
H2428 H 0.65275 0.59141 0.80564 0.0
H2429 H 0.61554 0.65277 0.73157 0.0
H2430 H 0.5885 0.6396 0.71231 0.0
H2431 H 0.633 0.63581 0.712 0.0
C2432 C 0.09705 0.09986 0.77495 0.0
C2433 C 0.07021 0.10344 0.75962 0.0
C2434 C 0.12681 0.11027 0.77379 0.0
C2435 C 0.13014 0.12475 0.7569 0.0
C2436 C 0.10328 0.12841 0.74128 0.0
C2437 C 0.07373 0.11777 0.74284 0.0
C2438 C 0.1546 0.1059 0.7909 0.0
C2439 C 0.10571 0.14366 0.72297 0.0
C2440 C 0.19398 0.16312 0.76971 0.0
C2441 C 0.22142 0.15764 0.7559 0.0
C2442 C 0.16417 0.15271 0.76996 0.0
C2443 C 0.1614 0.13631 0.75606 0.0
C2444 C 0.18886 0.13073 0.74196 0.0
C2445 C 0.21845 0.14141 0.74207 0.0
C2446 C 0.13571 0.15916 0.78539 0.0
C2447 C 0.18704 0.1134 0.72682 0.0
H2448 H 0.09465 0.0891 0.78825 0.0
H2449 H 0.05347 0.12057 0.73072 0.0
H2450 H 0.17782 0.10256 0.78113 0.0
H2451 H 0.15985 0.11833 0.80201 0.0
H2452 H 0.14848 0.09394 0.80262 0.0
H2453 H 0.08296 0.14457 0.71184 0.0
H2454 H 0.10966 0.15737 0.73171 0.0
H2455 H 0.12754 0.14113 0.71138 0.0
H2456 H 0.19595 0.17541 0.78076 0.0
H2457 H 0.23919 0.13711 0.73112 0.0
H2458 H 0.12995 0.14828 0.79873 0.0
H2459 H 0.11291 0.1612 0.7746 0.0
H2460 H 0.14142 0.17246 0.79469 0.0
H2461 H 0.18274 0.10094 0.73808 0.0
H2462 H 0.21018 0.11115 0.71643 0.0
H2463 H 0.16564 0.11443 0.71448 0.0
C2464 C 0.57961 0.14307 0.02191 0.0
C2465 C 0.5763 0.15739 1.0051 0.0
C2466 C 0.60927 0.13255 0.02384 0.0
C2467 C 0.63647 0.13639 1.00862 0.0
C2468 C 0.63335 0.15085 0.99169 0.0
C2469 C 0.60345 0.1611 0.99012 0.0
C2470 C 0.61146 0.11728 0.04215 0.0
C2471 C 0.66157 0.15541 0.97503 0.0
C2472 C 0.72469 0.12053 0.02487 0.0
C2473 C 0.72874 0.10445 0.01088 0.0
C2474 C 0.69475 0.13088 0.02458 0.0
C2475 C 0.66797 0.12508 0.00998 0.0
C2476 C 0.67172 0.10877 0.99603 0.0
C2477 C 0.70192 0.09872 0.99662 0.0
C2478 C 0.69189 0.14815 0.03976 0.0
C2479 C 0.64394 0.10207 0.98016 0.0
H2480 H 0.55912 0.14016 0.03377 0.0
H2481 H 0.60123 0.17185 0.97679 0.0
H2482 H 0.61615 0.10363 0.03344 0.0
H2483 H 0.63276 0.11998 0.05416 0.0
H2484 H 0.58832 0.11613 0.05282 0.0
H2485 H 0.65554 0.16733 0.96321 0.0
H2486 H 0.68439 0.15892 0.98518 0.0
H2487 H 0.66747 0.14302 0.96402 0.0
H2488 H 0.74489 0.12501 0.03621 0.0
H2489 H 0.70468 0.08654 0.98547 0.0
H2490 H 0.67008 0.1469 0.0517 0.0
H2491 H 0.68765 0.1606 0.02848 0.0
H2492 H 0.71458 0.15056 0.05058 0.0
H2493 H 0.62082 0.09992 0.99055 0.0
H2494 H 0.65027 0.08878 0.97105 0.0
H2495 H 0.63841 0.11286 0.96664 0.0
C2496 C 0.2181 0.61276 0.02397 0.0
C2497 C 0.22093 0.59672 0.00975 0.0
C2498 C 0.18848 0.62338 0.02458 0.0
C2499 C 0.16071 0.61788 0.01074 0.0
C2500 C 0.16315 0.60156 0.99669 0.0
C2501 C 0.19309 0.59127 0.9963 0.0
C2502 C 0.18706 0.64069 0.03979 0.0
C2503 C 0.13426 0.59514 0.98163 0.0
C2504 C 0.07384 0.63743 0.02438 0.0
C2505 C 0.07056 0.65165 1.00741 0.0
C2506 C 0.10302 0.62643 0.02582 0.0
C2507 C 0.12975 0.62968 0.00997 0.0
C2508 C 0.12667 0.64404 0.99291 0.0
C2509 C 0.09725 0.65474 0.9918 0.0
C2510 C 0.10518 0.61125 0.04425 0.0
C2511 C 0.1544 0.64802 0.97561 0.0
H2512 H 0.23904 0.61704 0.03473 0.0
H2513 H 0.1948 0.57912 0.98498 0.0
H2514 H 0.18309 0.6532 0.02856 0.0
H2515 H 0.16565 0.63983 0.05212 0.0
H2516 H 0.21026 0.64274 0.05019 0.0
H2517 H 0.13942 0.58163 0.97266 0.0
H2518 H 0.11153 0.59353 0.9926 0.0
H2519 H 0.12869 0.60584 0.96802 0.0
H2520 H 0.0537 0.63497 0.03669 0.0
H2521 H 0.09508 0.66535 0.9783 0.0
H2522 H 0.12713 0.61367 0.05577 0.0
H2523 H 0.10876 0.59747 0.0356 0.0
H2524 H 0.08247 0.61058 0.05543 0.0
H2525 H 0.17784 0.65116 0.98522 0.0
H2526 H 0.14855 0.65998 0.96381 0.0
H2527 H 0.15911 0.63547 0.96458 0.0
C2528 C 0.43843 0.9156 0.77075 0.0
C2529 C 0.46942 0.90825 0.76368 0.0
C2530 C 0.40909 0.90479 0.77001 0.0
C2531 C 0.41032 0.88614 0.76165 0.0
C2532 C 0.44116 0.87883 0.75358 0.0
C2533 C 0.47026 0.88989 0.75479 0.0
C2534 C 0.3769 0.9132 0.7789 0.0
C2535 C 0.44362 0.85908 0.7443 0.0
C2536 C 0.34418 0.85218 0.78431 0.0
C2537 C 0.32103 0.85178 0.76573 0.0
C2538 C 0.37325 0.86317 0.78311 0.0
C2539 C 0.37977 0.874 0.76271 0.0
C2540 C 0.35666 0.87356 0.74377 0.0
C2541 C 0.3275 0.86258 0.74557 0.0
C2542 C 0.39678 0.86339 0.80391 0.0
C2543 C 0.36274 0.8847 0.72158 0.0
H2544 H 0.43701 0.92984 0.77715 0.0
H2545 H 0.49381 0.88387 0.74938 0.0
H2546 H 0.35728 0.91218 0.76518 0.0
H2547 H 0.36801 0.90524 0.79447 0.0
H2548 H 0.37976 0.92812 0.78401 0.0
H2549 H 0.46864 0.85597 0.73686 0.0
H2550 H 0.4385 0.84903 0.75874 0.0
H2551 H 0.42457 0.85671 0.73042 0.0
H2552 H 0.33923 0.84418 0.80013 0.0
H2553 H 0.30995 0.86225 0.73106 0.0
H2554 H 0.39898 0.87784 0.8109 0.0
H2555 H 0.42206 0.85894 0.79828 0.0
H2556 H 0.38835 0.85406 0.81838 0.0
H2557 H 0.36395 0.89983 0.72583 0.0
H2558 H 0.34292 0.88247 0.70818 0.0
H2559 H 0.38713 0.88074 0.7138 0.0
C2560 C 0.82735 0.36466 0.74773 0.0
C2561 C 0.82369 0.35047 0.76468 0.0
C2562 C 0.85677 0.37546 0.74637 0.0
C2563 C 0.88326 0.37218 0.76244 0.0
C2564 C 0.87977 0.35782 0.77949 0.0
C2565 C 0.85023 0.34718 0.78037 0.0
C2566 C 0.85941 0.39052 0.72782 0.0
C2567 C 0.90707 0.35389 0.79716 0.0
C2568 C 0.97173 0.38976 0.74948 0.0
C2569 C 0.97333 0.4062 0.76302 0.0
C2570 C 0.94251 0.37874 0.74878 0.0
C2571 C 0.91412 0.38413 0.76209 0.0
C2572 C 0.91558 0.40072 0.77573 0.0
C2573 C 0.94498 0.4115 0.77599 0.0
C2574 C 0.94207 0.36126 0.73386 0.0
C2575 C 0.8862 0.40695 0.79041 0.0
H2576 H 0.80728 0.36724 0.73538 0.0
H2577 H 0.84766 0.33653 0.7938 0.0
H2578 H 0.8622 0.40438 0.73638 0.0
H2579 H 0.88196 0.3882 0.71686 0.0
H2580 H 0.83722 0.39093 0.7161 0.0
H2581 H 0.90096 0.34194 0.8089 0.0
H2582 H 0.93078 0.35077 0.78788 0.0
H2583 H 0.91141 0.36646 0.80822 0.0
H2584 H 0.99324 0.38559 0.73921 0.0
H2585 H 0.94593 0.42396 0.78683 0.0
H2586 H 0.92112 0.36189 0.7211 0.0
H2587 H 0.93789 0.34884 0.74521 0.0
H2588 H 0.96571 0.35927 0.72397 0.0
H2589 H 0.86384 0.40864 0.77909 0.0
H2590 H 0.89099 0.42038 0.79967 0.0
H2591 H 0.88024 0.39611 0.80376 0.0
C2592 C 0.29166 0.34351 0.47991 0.0
C2593 C 0.27819 0.35566 0.49695 0.0
C2594 C 0.32524 0.33763 0.4809 0.0
C2595 C 0.34629 0.34406 0.4993 0.0
C2596 C 0.33299 0.35642 0.51643 0.0
C2597 C 0.29927 0.36197 0.51512 0.0
C2598 C 0.33817 0.32441 0.46228 0.0
C2599 C 0.35435 0.36369 0.53635 0.0
C2600 C 0.4224 0.31465 0.51609 0.0
C2601 C 0.44881 0.32405 0.5048 0.0
C2602 C 0.38921 0.32097 0.51437 0.0
C2603 C 0.38175 0.33727 0.50118 0.0
C2604 C 0.4082 0.34699 0.48994 0.0
C2605 C 0.44127 0.34028 0.49184 0.0
C2606 C 0.36201 0.31012 0.5267 0.0
C2607 C 0.40153 0.36448 0.4758 0.0
H2608 H 0.27611 0.33871 0.46554 0.0
H2609 H 0.28935 0.37114 0.52858 0.0
H2610 H 0.36002 0.33066 0.45324 0.0
H2611 H 0.34673 0.31122 0.47065 0.0
H2612 H 0.31895 0.32096 0.44885 0.0
H2613 H 0.34077 0.3738 0.54771 0.0
H2614 H 0.36297 0.35187 0.54745 0.0
H2615 H 0.3769 0.37066 0.52918 0.0
H2616 H 0.42759 0.30235 0.52657 0.0
H2617 H 0.46114 0.34765 0.48287 0.0
H2618 H 0.34303 0.30549 0.51371 0.0
H2619 H 0.34916 0.31923 0.53966 0.0
H2620 H 0.37176 0.29761 0.53607 0.0
H2621 H 0.38418 0.36128 0.4611 0.0
H2622 H 0.42472 0.37059 0.46835 0.0
H2623 H 0.38925 0.37513 0.48706 0.0
C2624 C 0.95765 0.8532 0.53096 0.0
C2625 C 0.97908 0.85173 0.51145 0.0
C2626 C 0.92778 0.86356 0.52982 0.0
C2627 C 0.91851 0.87251 0.5085 0.0
C2628 C 0.93999 0.87103 0.48869 0.0
C2629 C 0.97011 0.86086 0.49048 0.0
C2630 C 0.90624 0.86505 0.55157 0.0
C2631 C 0.93097 0.88004 0.46549 0.0
C2632 C 0.82606 0.8849 0.50069 0.0
C2633 C 0.82577 0.9042 0.50527 0.0
C2634 C 0.85601 0.87451 0.50129 0.0
C2635 C 0.8865 0.88349 0.50708 0.0
C2636 C 0.88623 0.90295 0.51201 0.0
C2637 C 0.85606 0.91305 0.51081 0.0
C2638 C 0.85505 0.85391 0.4955 0.0
C2639 C 0.91783 0.91309 0.51878 0.0
H2640 H 0.96456 0.84646 0.54735 0.0
H2641 H 0.98636 0.85969 0.47529 0.0
H2642 H 0.9027 0.87998 0.55634 0.0
H2643 H 0.88119 0.85912 0.54798 0.0
H2644 H 0.91721 0.85761 0.56692 0.0
H2645 H 0.94991 0.87732 0.45162 0.0
H2646 H 0.9065 0.87468 0.45932 0.0
H2647 H 0.9284 0.89538 0.46779 0.0
H2648 H 0.80291 0.878 0.49608 0.0
H2649 H 0.85604 0.92791 0.51457 0.0
H2650 H 0.86378 0.84564 0.51085 0.0
H2651 H 0.87224 0.85087 0.48065 0.0
H2652 H 0.82962 0.84909 0.49063 0.0
H2653 H 0.9288 0.90661 0.53478 0.0
H2654 H 0.91346 0.92818 0.52233 0.0
H2655 H 0.93654 0.91181 0.50447 0.0
C2656 C 0.59592 0.10994 0.23321 0.0
C2657 C 0.5732 0.10881 0.25202 0.0
C2658 C 0.62419 0.12162 0.23428 0.0
C2659 C 0.63052 0.13231 0.25486 0.0
C2660 C 0.60777 0.13115 0.27399 0.0
C2661 C 0.57925 0.11962 0.27223 0.0
C2662 C 0.64712 0.12268 0.21322 0.0
C2663 C 0.61372 0.142 0.29642 0.0
C2664 C 0.72021 0.1495 0.26421 0.0
C2665 C 0.71803 0.16838 0.25758 0.0
C2666 C 0.69193 0.13772 0.26383 0.0
C2667 C 0.66069 0.14482 0.25614 0.0
C2668 C 0.65851 0.16383 0.24913 0.0
C2669 C 0.687 0.17537 0.25017 0.0
C2670 C 0.69543 0.11769 0.27187 0.0
C2671 C 0.62609 0.17196 0.24026 0.0
H2672 H 0.59122 0.1019 0.21737 0.0
H2673 H 0.56198 0.11874 0.28687 0.0
H2674 H 0.64884 0.13734 0.20693 0.0
H2675 H 0.67264 0.11823 0.21829 0.0
H2676 H 0.63849 0.11374 0.1984 0.0
H2677 H 0.59426 0.13924 0.30992 0.0
H2678 H 0.63843 0.13827 0.30389 0.0
H2679 H 0.61413 0.15721 0.29259 0.0
H2680 H 0.74394 0.14403 0.27022 0.0
H2681 H 0.68514 0.18987 0.2448 0.0
H2682 H 0.68914 0.10806 0.25719 0.0
H2683 H 0.67763 0.11482 0.2864 0.0
H2684 H 0.72107 0.11445 0.27808 0.0
H2685 H 0.61733 0.16396 0.22468 0.0
H2686 H 0.62853 0.18692 0.23524 0.0
H2687 H 0.60658 0.17073 0.25402 0.0
C2688 C 0.07425 0.61834 0.25257 0.0
C2689 C 0.07435 0.59912 0.25771 0.0
C2690 C 0.10384 0.62902 0.25338 0.0
C2691 C 0.13439 0.62041 0.25987 0.0
C2692 C 0.13454 0.60104 0.26532 0.0
C2693 C 0.1047 0.59065 0.26399 0.0
C2694 C 0.10244 0.64952 0.24709 0.0
C2695 C 0.16625 0.59129 0.27277 0.0
C2696 C 0.21748 0.64379 0.24378 0.0
C2697 C 0.22564 0.65327 0.26468 0.0
C2698 C 0.18785 0.6332 0.24187 0.0
C2699 C 0.16599 0.63171 0.26147 0.0
C2700 C 0.1744 0.64103 0.28271 0.0
C2701 C 0.20385 0.65174 0.28399 0.0
C2702 C 0.17976 0.62376 0.21878 0.0
C2703 C 0.15235 0.63961 0.30421 0.0
H2704 H 0.05109 0.62497 0.24737 0.0
H2705 H 0.10501 0.57587 0.26819 0.0
H2706 H 0.11056 0.65809 0.26235 0.0
H2707 H 0.11989 0.65248 0.23238 0.0
H2708 H 0.077 0.65404 0.24181 0.0
H2709 H 0.16225 0.57621 0.27656 0.0
H2710 H 0.18534 0.59257 0.25871 0.0
H2711 H 0.17653 0.59809 0.28879 0.0
H2712 H 0.23398 0.64499 0.22873 0.0
H2713 H 0.21012 0.65871 0.30035 0.0
H2714 H 0.15534 0.62881 0.21212 0.0
H2715 H 0.17752 0.60843 0.22143 0.0
H2716 H 0.19904 0.62641 0.20512 0.0
H2717 H 0.12719 0.6452 0.30016 0.0
H2718 H 0.16263 0.6474 0.31952 0.0
H2719 H 0.14924 0.62472 0.30928 0.0
C2720 C 0.69101 0.58636 0.49347 0.0
C2721 C 0.7191 0.59 0.50764 0.0
C2722 C 0.66261 0.59797 0.49398 0.0
C2723 C 0.66194 0.61384 0.50892 0.0
C2724 C 0.69012 0.61768 0.52327 0.0
C2725 C 0.71824 0.60576 0.52248 0.0
C2726 C 0.63332 0.59328 0.4783 0.0
C2727 C 0.69063 0.63444 0.53943 0.0
C2728 C 0.60113 0.65296 0.4922 0.0
C2729 C 0.57393 0.64971 0.50734 0.0
C2730 C 0.62999 0.64169 0.49288 0.0
C2731 C 0.63203 0.62659 0.509 0.0
C2732 C 0.60488 0.62329 0.52449 0.0
C2733 C 0.57632 0.63484 0.5235 0.0
C2734 C 0.65815 0.64579 0.47598 0.0
C2735 C 0.60584 0.60737 0.54196 0.0
H2736 H 0.69126 0.57453 0.48158 0.0
H2737 H 0.73942 0.60872 0.53371 0.0
H2738 H 0.61041 0.59169 0.48907 0.0
H2739 H 0.62882 0.60489 0.46571 0.0
H2740 H 0.63731 0.5802 0.46812 0.0
H2741 H 0.7142 0.63545 0.54965 0.0
H2742 H 0.6875 0.64745 0.52899 0.0
H2743 H 0.66943 0.6337 0.55196 0.0
H2744 H 0.59975 0.66412 0.47937 0.0
H2745 H 0.5559 0.63222 0.53552 0.0
H2746 H 0.66176 0.63374 0.46392 0.0
H2747 H 0.6818 0.64773 0.48585 0.0
H2748 H 0.65344 0.6585 0.46522 0.0
H2749 H 0.60797 0.59387 0.53243 0.0
H2750 H 0.58323 0.60694 0.55326 0.0
H2751 H 0.62813 0.60867 0.55343 0.0
C2752 C 0.07613 0.14154 0.52188 0.0
C2753 C 0.07335 0.15742 0.50737 0.0
C2754 C 0.10555 0.13067 0.52239 0.0
C2755 C 0.1331 0.13565 0.50801 0.0
C2756 C 0.13054 0.1517 0.49345 0.0
C2757 C 0.1009 0.16232 0.4933 0.0
C2758 C 0.10706 0.11373 0.53824 0.0
C2759 C 0.15905 0.15754 0.47769 0.0
C2760 C 0.22043 0.11646 0.52179 0.0
C2761 C 0.22337 0.10159 0.50569 0.0
C2762 C 0.19125 0.12752 0.52291 0.0
C2763 C 0.16414 0.12376 0.50752 0.0
C2764 C 0.16695 0.10879 0.49126 0.0
C2765 C 0.19633 0.09798 0.49053 0.0
C2766 C 0.18944 0.14327 0.54057 0.0
C2767 C 0.13893 0.10428 0.47439 0.0
H2768 H 0.05537 0.13767 0.53305 0.0
H2769 H 0.09915 0.17432 0.48174 0.0
H2770 H 0.11092 0.10094 0.5275 0.0
H2771 H 0.1286 0.1149 0.55044 0.0
H2772 H 0.08396 0.11196 0.54882 0.0
H2773 H 0.15361 0.17066 0.46792 0.0
H2774 H 0.18198 0.15963 0.48832 0.0
H2775 H 0.16442 0.1463 0.46474 0.0
H2776 H 0.24083 0.11934 0.53376 0.0
H2777 H 0.19823 0.08682 0.47771 0.0
H2778 H 0.16772 0.14122 0.5524 0.0
H2779 H 0.18567 0.15677 0.53127 0.0
H2780 H 0.21237 0.1443 0.55149 0.0
H2781 H 0.11571 0.10134 0.48435 0.0
H2782 H 0.14468 0.09201 0.46307 0.0
H2783 H 0.13391 0.1165 0.46287 0.0
loop_
_geom_bond_atom_site_label_1
_geom_bond_atom_site_label_2
_geom_bond_distance
_geom_bond_site_symmetry_2
_ccdc_geom_bond_type
Cu0 N1 1.999 . S
Cu0 O6 1.974 . S
Cu0 N11 1.985 . S
Cu0 O20 1.959 . S
N1 Cu0 1.999 . S
N1 C3 1.263 . S
N1 C5 1.389 . S
N2 C3 1.358 . S
N2 C4 1.400 . S
C3 N1 1.263 . S
C3 N2 1.358 . S
C3 H9 0.930 . S
C4 N2 1.400 . S
C4 C5 1.351 . S
C4 H21 0.930 . S
C5 N1 1.389 . S
C5 C4 1.351 . S
C5 H10 0.930 . S
O6 Cu0 1.974 . S
O6 C16 1.282 . S
C7 O8 1.261 . S
C7 O20 1.251 . S
O8 C7 1.261 . S
H9 C3 0.930 . S
H10 C5 0.930 . S
N11 Cu0 1.985 . S
N11 C13 1.335 . S
N11 C14 1.390 . S
N12 C13 1.345 . S
N12 C15 1.336 . S
C13 N11 1.335 . S
C13 N12 1.345 . S
C13 H18 0.930 . S
C14 N11 1.390 . S
C14 C15 1.346 . S
C14 H19 0.930 . S
C15 N12 1.336 . S
C15 C14 1.346 . S
C15 H22 0.929 . S
C16 O6 1.282 . S
C16 O17 1.216 . S
O17 C16 1.216 . S
H18 C13 0.930 . S
H19 C14 0.930 . S
O20 Cu0 1.959 . S
O20 C7 1.251 . S
H21 C4 0.930 . S
H22 C15 0.929 . S
Cu23 N24 1.999 . S
Cu23 O29 1.974 . S
Cu23 N34 1.985 . S
Cu23 O43 1.959 . S
N24 Cu23 1.999 . S
N24 C26 1.263 . S
N24 C28 1.389 . S
N25 C26 1.358 1_655 S
N25 C27 1.400 . S
C26 N24 1.263 . S
C26 N25 1.358 1_455 S
C26 H32 0.930 . S
C27 N25 1.400 . S
C27 C28 1.351 1_655 S
C27 H44 0.930 . S
C28 N24 1.389 . S
C28 C27 1.351 1_455 S
C28 H33 0.930 . S
O29 Cu23 1.974 . S
O29 C39 1.282 . S
C30 O31 1.261 . S
C30 O43 1.251 . S
O31 C30 1.261 . S
H32 C26 0.930 . S
H33 C28 0.930 . S
N34 Cu23 1.985 . S
N34 C36 1.335 . S
N34 C37 1.390 . S
N35 C36 1.345 . S
N35 C38 1.336 . S
C36 N34 1.335 . S
C36 N35 1.345 . S
C36 H41 0.930 . S
C37 N34 1.390 . S
C37 C38 1.346 . S
C37 H42 0.930 . S
C38 N35 1.336 . S
C38 C37 1.346 . S
C38 H45 0.929 . S
C39 O29 1.282 . S
C39 O40 1.216 . S
O40 C39 1.216 . S
H41 C36 0.930 . S
H42 C37 0.930 . S
O43 Cu23 1.959 . S
O43 C30 1.251 . S
H44 C27 0.930 . S
H45 C38 0.929 . S
Cu46 N47 1.991 1_556 S
Cu46 O52 1.974 . S
Cu46 N57 1.985 . S
Cu46 O66 1.959 1_556 S
N47 Cu46 1.991 1_554 S
N47 C49 1.242 1_554 S
N47 C51 1.422 . S
N48 C49 1.358 . S
N48 C50 1.400 1_556 S
C49 N47 1.242 1_556 S
C49 N48 1.358 . S
C49 H55 0.930 . S
C50 N48 1.400 1_554 S
C50 C51 1.351 . S
C50 H67 0.930 . S
C51 N47 1.422 . S
C51 C50 1.351 . S
C51 H56 0.930 . S
O52 Cu46 1.974 . S
O52 C62 1.282 . S
C53 O54 1.261 . S
C53 O66 1.251 . S
O54 C53 1.261 . S
H55 C49 0.930 . S
H56 C51 0.930 . S
N57 Cu46 1.985 . S
N57 C59 1.335 1_556 S
N57 C60 1.390 . S
N58 C59 1.345 1_556 S
N58 C61 1.336 . S
C59 N57 1.335 1_554 S
C59 N58 1.345 1_554 S
C59 H64 0.930 . S
C60 N57 1.390 . S
C60 C61 1.346 . S
C60 H65 0.930 . S
C61 N58 1.336 . S
C61 C60 1.346 . S
C61 H68 0.929 . S
C62 O52 1.282 . S
C62 O63 1.216 . S
O63 C62 1.216 . S
H64 C59 0.930 . S
H65 C60 0.930 . S
O66 Cu46 1.959 1_554 S
O66 C53 1.251 . S
H67 C50 0.930 . S
H68 C61 0.929 . S
Cu69 N70 1.991 1_556 S
Cu69 O75 1.974 . S
Cu69 N80 1.985 . S
Cu69 O89 1.959 1_556 S
N70 Cu69 1.991 1_554 S
N70 C72 1.242 1_554 S
N70 C74 1.422 . S
N71 C72 1.358 1_655 S
N71 C73 1.400 1_556 S
C72 N70 1.242 1_556 S
C72 N71 1.358 1_455 S
C72 H78 0.930 . S
C73 N71 1.400 1_554 S
C73 C74 1.351 1_655 S
C73 H90 0.930 . S
C74 N70 1.422 . S
C74 C73 1.351 1_455 S
C74 H79 0.930 . S
O75 Cu69 1.974 . S
O75 C85 1.282 . S
C76 O77 1.261 . S
C76 O89 1.251 . S
O77 C76 1.261 . S
H78 C72 0.930 . S
H79 C74 0.930 . S
N80 Cu69 1.985 . S
N80 C82 1.335 1_556 S
N80 C83 1.390 . S
N81 C82 1.345 1_556 S
N81 C84 1.336 . S
C82 N80 1.335 1_554 S
C82 N81 1.345 1_554 S
C82 H87 0.930 . S
C83 N80 1.390 . S
C83 C84 1.346 . S
C83 H88 0.930 . S
C84 N81 1.336 . S
C84 C83 1.346 . S
C84 H91 0.929 . S
C85 O75 1.282 . S
C85 O86 1.216 . S
O86 C85 1.216 . S
H87 C82 0.930 . S
H88 C83 0.930 . S
O89 Cu69 1.959 1_554 S
O89 C76 1.251 . S
H90 C73 0.930 . S
H91 C84 0.929 . S
Cu92 N93 1.999 . S
Cu92 O98 1.974 . S
Cu92 N103 1.985 . S
Cu92 O112 1.959 . S
N93 Cu92 1.999 . S
N93 C95 1.263 . S
N93 C97 1.389 . S
N94 C95 1.358 . S
N94 C96 1.400 . S
C95 N93 1.263 . S
C95 N94 1.358 . S
C95 H101 0.930 . S
C96 N94 1.400 . S
C96 C97 1.351 . S
C96 H113 0.930 . S
C97 N93 1.389 . S
C97 C96 1.351 . S
C97 H102 0.930 . S
O98 Cu92 1.974 . S
O98 C108 1.282 . S
C99 O100 1.261 . S
C99 O112 1.251 . S
O100 C99 1.261 . S
H101 C95 0.930 . S
H102 C97 0.930 . S
N103 Cu92 1.985 . S
N103 C105 1.335 . S
N103 C106 1.390 . S
N104 C105 1.345 . S
N104 C107 1.336 . S
C105 N103 1.335 . S
C105 N104 1.345 . S
C105 H110 0.930 . S
C106 N103 1.390 . S
C106 C107 1.346 . S
C106 H111 0.930 . S
C107 N104 1.336 . S
C107 C106 1.346 . S
C107 H114 0.929 . S
C108 O98 1.282 . S
C108 O109 1.216 . S
O109 C108 1.216 . S
H110 C105 0.930 . S
H111 C106 0.930 . S
O112 Cu92 1.959 . S
O112 C99 1.251 . S
H113 C96 0.930 . S
H114 C107 0.929 . S
Cu115 N116 1.999 . S
Cu115 O121 1.974 . S
Cu115 N126 1.985 . S
Cu115 O135 1.959 . S
N116 Cu115 1.999 . S
N116 C118 1.263 . S
N116 C120 1.389 . S
N117 C118 1.358 1_455 S
N117 C119 1.400 . S
C118 N116 1.263 . S
C118 N117 1.358 1_655 S
C118 H124 0.930 . S
C119 N117 1.400 . S
C119 C120 1.351 1_455 S
C119 H136 0.930 . S
C120 N116 1.389 . S
C120 C119 1.351 1_655 S
C120 H125 0.930 . S
O121 Cu115 1.974 . S
O121 C131 1.282 . S
C122 O123 1.261 . S
C122 O135 1.251 . S
O123 C122 1.261 . S
H124 C118 0.930 . S
H125 C120 0.930 . S
N126 Cu115 1.985 . S
N126 C128 1.335 . S
N126 C129 1.390 . S
N127 C128 1.345 . S
N127 C130 1.336 . S
C128 N126 1.335 . S
C128 N127 1.345 . S
C128 H133 0.930 . S
C129 N126 1.390 . S
C129 C130 1.346 . S
C129 H134 0.930 . S
C130 N127 1.336 . S
C130 C129 1.346 . S
C130 H137 0.929 . S
C131 O121 1.282 . S
C131 O132 1.216 . S
O132 C131 1.216 . S
H133 C128 0.930 . S
H134 C129 0.930 . S
O135 Cu115 1.959 . S
O135 C122 1.251 . S
H136 C119 0.930 . S
H137 C130 0.929 . S
Cu138 N139 1.991 1_554 S
Cu138 O144 1.974 . S
Cu138 N149 1.985 . S
Cu138 O158 1.959 1_554 S
N139 Cu138 1.991 1_556 S
N139 C141 1.242 1_556 S
N139 C143 1.422 . S
N140 C141 1.358 . S
N140 C142 1.400 1_554 S
C141 N139 1.242 1_554 S
C141 N140 1.358 . S
C141 H147 0.930 . S
C142 N140 1.400 1_556 S
C142 C143 1.351 . S
C142 H159 0.930 . S
C143 N139 1.422 . S
C143 C142 1.351 . S
C143 H148 0.930 . S
O144 Cu138 1.974 . S
O144 C154 1.282 . S
C145 O146 1.261 . S
C145 O158 1.251 . S
O146 C145 1.261 . S
H147 C141 0.930 . S
H148 C143 0.930 . S
N149 Cu138 1.985 . S
N149 C151 1.335 1_554 S
N149 C152 1.390 . S
N150 C151 1.345 1_554 S
N150 C153 1.336 . S
C151 N149 1.335 1_556 S
C151 N150 1.345 1_556 S
C151 H156 0.930 . S
C152 N149 1.390 . S
C152 C153 1.346 . S
C152 H157 0.930 . S
C153 N150 1.336 . S
C153 C152 1.346 . S
C153 H160 0.929 . S
C154 O144 1.282 . S
C154 O155 1.216 . S
O155 C154 1.216 . S
H156 C151 0.930 . S
H157 C152 0.930 . S
O158 Cu138 1.959 1_556 S
O158 C145 1.251 . S
H159 C142 0.930 . S
H160 C153 0.929 . S
Cu161 N162 1.991 1_554 S
Cu161 O167 1.974 . S
Cu161 N172 1.985 . S
Cu161 O181 1.959 1_554 S
N162 Cu161 1.991 1_556 S
N162 C164 1.242 1_556 S
N162 C166 1.422 . S
N163 C164 1.358 1_455 S
N163 C165 1.400 1_554 S
C164 N162 1.242 1_554 S
C164 N163 1.358 1_655 S
C164 H170 0.930 . S
C165 N163 1.400 1_556 S
C165 C166 1.351 1_455 S
C165 H182 0.930 . S
C166 N162 1.422 . S
C166 C165 1.351 1_655 S
C166 H171 0.930 . S
O167 Cu161 1.974 . S
O167 C177 1.282 . S
C168 O169 1.261 . S
C168 O181 1.251 . S
O169 C168 1.261 . S
H170 C164 0.930 . S
H171 C166 0.930 . S
N172 Cu161 1.985 . S
N172 C174 1.335 1_554 S
N172 C175 1.390 . S
N173 C174 1.345 1_554 S
N173 C176 1.336 . S
C174 N172 1.335 1_556 S
C174 N173 1.345 1_556 S
C174 H179 0.930 . S
C175 N172 1.390 . S
C175 C176 1.346 . S
C175 H180 0.930 . S
C176 N173 1.336 . S
C176 C175 1.346 . S
C176 H183 0.929 . S
C177 O167 1.282 . S
C177 O178 1.216 . S
O178 C177 1.216 . S
H179 C174 0.930 . S
H180 C175 0.930 . S
O181 Cu161 1.959 1_556 S
O181 C168 1.251 . S
H182 C165 0.930 . S
H183 C176 0.929 . S
Cu184 N185 1.999 . S
Cu184 O190 1.974 . S
Cu184 N195 1.985 . S
Cu184 O204 1.959 . S
N185 Cu184 1.999 . S
N185 C187 1.263 . S
N185 C189 1.389 . S
N186 C187 1.358 . S
N186 C188 1.400 . S
C187 N185 1.263 . S
C187 N186 1.358 . S
C187 H193 0.930 . S
C188 N186 1.400 . S
C188 C189 1.351 . S
C188 H205 0.930 . S
C189 N185 1.389 . S
C189 C188 1.351 . S
C189 H194 0.930 . S
O190 Cu184 1.974 . S
O190 C200 1.282 . S
C191 O192 1.261 . S
C191 O204 1.251 . S
O192 C191 1.261 . S
H193 C187 0.930 . S
H194 C189 0.930 . S
N195 Cu184 1.985 . S
N195 C197 1.335 . S
N195 C198 1.390 . S
N196 C197 1.345 . S
N196 C199 1.336 . S
C197 N195 1.335 . S
C197 N196 1.345 . S
C197 H202 0.930 . S
C198 N195 1.390 . S
C198 C199 1.346 . S
C198 H203 0.930 . S
C199 N196 1.336 . S
C199 C198 1.346 . S
C199 H206 0.929 . S
C200 O190 1.282 . S
C200 O201 1.216 . S
O201 C200 1.216 . S
H202 C197 0.930 . S
H203 C198 0.930 . S
O204 Cu184 1.959 . S
O204 C191 1.251 . S
H205 C188 0.930 . S
H206 C199 0.929 . S
Cu207 N208 1.999 . S
Cu207 O213 1.974 . S
Cu207 N218 1.985 . S
Cu207 O227 1.959 . S
N208 Cu207 1.999 . S
N208 C210 1.263 . S
N208 C212 1.389 . S
N209 C210 1.358 1_655 S
N209 C211 1.400 . S
C210 N208 1.263 . S
C210 N209 1.358 1_455 S
C210 H216 0.930 . S
C211 N209 1.400 . S
C211 C212 1.351 1_655 S
C211 H228 0.930 . S
C212 N208 1.389 . S
C212 C211 1.351 1_455 S
C212 H217 0.930 . S
O213 Cu207 1.974 . S
O213 C223 1.282 . S
C214 O215 1.261 . S
C214 O227 1.251 . S
O215 C214 1.261 . S
H216 C210 0.930 . S
H217 C212 0.930 . S
N218 Cu207 1.985 . S
N218 C220 1.335 . S
N218 C221 1.390 . S
N219 C220 1.345 . S
N219 C222 1.336 . S
C220 N218 1.335 . S
C220 N219 1.345 . S
C220 H225 0.930 . S
C221 N218 1.390 . S
C221 C222 1.346 . S
C221 H226 0.930 . S
C222 N219 1.336 . S
C222 C221 1.346 . S
C222 H229 0.929 . S
C223 O213 1.282 . S
C223 O224 1.216 . S
O224 C223 1.216 . S
H225 C220 0.930 . S
H226 C221 0.930 . S
O227 Cu207 1.959 . S
O227 C214 1.251 . S
H228 C211 0.930 . S
H229 C222 0.929 . S
Cu230 N231 1.999 . S
Cu230 O236 1.974 . S
Cu230 N241 1.985 . S
Cu230 O250 1.959 . S
N231 Cu230 1.999 . S
N231 C233 1.263 . S
N231 C235 1.389 . S
N232 C233 1.358 . S
N232 C234 1.400 . S
C233 N231 1.263 . S
C233 N232 1.358 . S
C233 H239 0.930 . S
C234 N232 1.400 . S
C234 C235 1.351 . S
C234 H251 0.930 . S
C235 N231 1.389 . S
C235 C234 1.351 . S
C235 H240 0.930 . S
O236 Cu230 1.974 . S
O236 C246 1.282 . S
C237 O238 1.261 . S
C237 O250 1.251 . S
O238 C237 1.261 . S
H239 C233 0.930 . S
H240 C235 0.930 . S
N241 Cu230 1.985 . S
N241 C243 1.335 . S
N241 C244 1.390 . S
N242 C243 1.345 . S
N242 C245 1.336 . S
C243 N241 1.335 . S
C243 N242 1.345 . S
C243 H248 0.930 . S
C244 N241 1.390 . S
C244 C245 1.346 . S
C244 H249 0.930 . S
C245 N242 1.336 . S
C245 C244 1.346 . S
C245 H252 0.929 . S
C246 O236 1.282 . S
C246 O247 1.216 . S
O247 C246 1.216 . S
H248 C243 0.930 . S
H249 C244 0.930 . S
O250 Cu230 1.959 . S
O250 C237 1.251 . S
H251 C234 0.930 . S
H252 C245 0.929 . S
Cu253 N254 1.999 . S
Cu253 O259 1.974 . S
Cu253 N264 1.985 . S
Cu253 O273 1.959 . S
N254 Cu253 1.999 . S
N254 C256 1.263 . S
N254 C258 1.389 . S
N255 C256 1.358 1_655 S
N255 C257 1.400 . S
C256 N254 1.263 . S
C256 N255 1.358 1_455 S
C256 H262 0.930 . S
C257 N255 1.400 . S
C257 C258 1.351 1_655 S
C257 H274 0.930 . S
C258 N254 1.389 . S
C258 C257 1.351 1_455 S
C258 H263 0.930 . S
O259 Cu253 1.974 . S
O259 C269 1.282 . S
C260 O261 1.261 . S
C260 O273 1.251 . S
O261 C260 1.261 . S
H262 C256 0.930 . S
H263 C258 0.930 . S
N264 Cu253 1.985 . S
N264 C266 1.335 . S
N264 C267 1.390 . S
N265 C266 1.345 . S
N265 C268 1.336 . S
C266 N264 1.335 . S
C266 N265 1.345 . S
C266 H271 0.930 . S
C267 N264 1.390 . S
C267 C268 1.346 . S
C267 H272 0.930 . S
C268 N265 1.336 . S
C268 C267 1.346 . S
C268 H275 0.929 . S
C269 O259 1.282 . S
C269 O270 1.216 . S
O270 C269 1.216 . S
H271 C266 0.930 . S
H272 C267 0.930 . S
O273 Cu253 1.959 . S
O273 C260 1.251 . S
H274 C257 0.930 . S
H275 C268 0.929 . S
Cu276 N277 1.999 . S
Cu276 O282 1.974 . S
Cu276 N287 1.985 . S
Cu276 O296 1.959 . S
N277 Cu276 1.999 . S
N277 C279 1.263 . S
N277 C281 1.389 . S
N278 C279 1.358 . S
N278 C280 1.400 . S
C279 N277 1.263 . S
C279 N278 1.358 . S
C279 H285 0.930 . S
C280 N278 1.400 . S
C280 C281 1.351 . S
C280 H297 0.930 . S
C281 N277 1.389 . S
C281 C280 1.351 . S
C281 H286 0.930 . S
O282 Cu276 1.974 . S
O282 C292 1.282 . S
C283 O284 1.261 . S
C283 O296 1.251 . S
O284 C283 1.261 . S
H285 C279 0.930 . S
H286 C281 0.930 . S
N287 Cu276 1.985 . S
N287 C289 1.335 . S
N287 C290 1.390 . S
N288 C289 1.345 . S
N288 C291 1.336 . S
C289 N287 1.335 . S
C289 N288 1.345 . S
C289 H294 0.930 . S
C290 N287 1.390 . S
C290 C291 1.346 . S
C290 H295 0.930 . S
C291 N288 1.336 . S
C291 C290 1.346 . S
C291 H298 0.929 . S
C292 O282 1.282 . S
C292 O293 1.216 . S
O293 C292 1.216 . S
H294 C289 0.930 . S
H295 C290 0.930 . S
O296 Cu276 1.959 . S
O296 C283 1.251 . S
H297 C280 0.930 . S
H298 C291 0.929 . S
Cu299 N300 1.999 . S
Cu299 O305 1.974 . S
Cu299 N310 1.985 . S
Cu299 O319 1.959 . S
N300 Cu299 1.999 . S
N300 C302 1.263 . S
N300 C304 1.389 . S
N301 C302 1.358 1_455 S
N301 C303 1.400 . S
C302 N300 1.263 . S
C302 N301 1.358 1_655 S
C302 H308 0.930 . S
C303 N301 1.400 . S
C303 C304 1.351 1_455 S
C303 H320 0.930 . S
C304 N300 1.389 . S
C304 C303 1.351 1_655 S
C304 H309 0.930 . S
O305 Cu299 1.974 . S
O305 C315 1.282 . S
C306 O307 1.261 . S
C306 O319 1.251 . S
O307 C306 1.261 . S
H308 C302 0.930 . S
H309 C304 0.930 . S
N310 Cu299 1.985 . S
N310 C312 1.335 . S
N310 C313 1.390 . S
N311 C312 1.345 . S
N311 C314 1.336 . S
C312 N310 1.335 . S
C312 N311 1.345 . S
C312 H317 0.930 . S
C313 N310 1.390 . S
C313 C314 1.346 . S
C313 H318 0.930 . S
C314 N311 1.336 . S
C314 C313 1.346 . S
C314 H321 0.929 . S
C315 O305 1.282 . S
C315 O316 1.216 . S
O316 C315 1.216 . S
H317 C312 0.930 . S
H318 C313 0.930 . S
O319 Cu299 1.959 . S
O319 C306 1.251 . S
H320 C303 0.930 . S
H321 C314 0.929 . S
Cu322 N323 1.999 . S
Cu322 O328 1.974 . S
Cu322 N333 1.985 . S
Cu322 O342 1.959 . S
N323 Cu322 1.999 . S
N323 C325 1.263 . S
N323 C327 1.389 . S
N324 C325 1.358 . S
N324 C326 1.400 . S
C325 N323 1.263 . S
C325 N324 1.358 . S
C325 H331 0.930 . S
C326 N324 1.400 . S
C326 C327 1.351 . S
C326 H343 0.930 . S
C327 N323 1.389 . S
C327 C326 1.351 . S
C327 H332 0.930 . S
O328 Cu322 1.974 . S
O328 C338 1.282 . S
C329 O330 1.261 . S
C329 O342 1.251 . S
O330 C329 1.261 . S
H331 C325 0.930 . S
H332 C327 0.930 . S
N333 Cu322 1.985 . S
N333 C335 1.335 . S
N333 C336 1.390 . S
N334 C335 1.345 . S
N334 C337 1.336 . S
C335 N333 1.335 . S
C335 N334 1.345 . S
C335 H340 0.930 . S
C336 N333 1.390 . S
C336 C337 1.346 . S
C336 H341 0.930 . S
C337 N334 1.336 . S
C337 C336 1.346 . S
C337 H344 0.929 . S
C338 O328 1.282 . S
C338 O339 1.216 . S
O339 C338 1.216 . S
H340 C335 0.930 . S
H341 C336 0.930 . S
O342 Cu322 1.959 . S
O342 C329 1.251 . S
H343 C326 0.930 . S
H344 C337 0.929 . S
Cu345 N346 1.999 . S
Cu345 O351 1.974 . S
Cu345 N356 1.985 . S
Cu345 O365 1.959 . S
N346 Cu345 1.999 . S
N346 C348 1.263 . S
N346 C350 1.389 . S
N347 C348 1.358 1_455 S
N347 C349 1.400 . S
C348 N346 1.263 . S
C348 N347 1.358 1_655 S
C348 H354 0.930 . S
C349 N347 1.400 . S
C349 C350 1.351 1_455 S
C349 H366 0.930 . S
C350 N346 1.389 . S
C350 C349 1.351 1_655 S
C350 H355 0.930 . S
O351 Cu345 1.974 . S
O351 C361 1.282 . S
C352 O353 1.261 . S
C352 O365 1.251 . S
O353 C352 1.261 . S
H354 C348 0.930 . S
H355 C350 0.930 . S
N356 Cu345 1.985 . S
N356 C358 1.335 . S
N356 C359 1.390 . S
N357 C358 1.345 . S
N357 C360 1.336 . S
C358 N356 1.335 . S
C358 N357 1.345 . S
C358 H363 0.930 . S
C359 N356 1.390 . S
C359 C360 1.346 . S
C359 H364 0.930 . S
C360 N357 1.336 . S
C360 C359 1.346 . S
C360 H367 0.929 . S
C361 O351 1.282 . S
C361 O362 1.216 . S
O362 C361 1.216 . S
H363 C358 0.930 . S
H364 C359 0.930 . S
O365 Cu345 1.959 . S
O365 C352 1.251 . S
H366 C349 0.930 . S
H367 C360 0.929 . S
Cu368 N369 1.999 . S
Cu368 O374 1.974 . S
Cu368 N379 1.985 . S
Cu368 O388 1.959 . S
N369 Cu368 1.999 . S
N369 C371 1.263 . S
N369 C373 1.389 . S
N370 C371 1.358 . S
N370 C372 1.400 . S
C371 N369 1.263 . S
C371 N370 1.358 . S
C371 H377 0.930 . S
C372 N370 1.400 . S
C372 C373 1.351 . S
C372 H389 0.930 . S
C373 N369 1.389 . S
C373 C372 1.351 . S
C373 H378 0.930 . S
O374 Cu368 1.974 . S
O374 C384 1.282 . S
C375 O376 1.261 . S
C375 O388 1.251 . S
O376 C375 1.261 . S
H377 C371 0.930 . S
H378 C373 0.930 . S
N379 Cu368 1.985 . S
N379 C381 1.335 . S
N379 C382 1.390 . S
N380 C381 1.345 . S
N380 C383 1.336 . S
C381 N379 1.335 . S
C381 N380 1.345 . S
C381 H386 0.930 . S
C382 N379 1.390 . S
C382 C383 1.346 . S
C382 H387 0.930 . S
C383 N380 1.336 . S
C383 C382 1.346 . S
C383 H390 0.929 . S
C384 O374 1.282 . S
C384 O385 1.216 . S
O385 C384 1.216 . S
H386 C381 0.930 . S
H387 C382 0.930 . S
O388 Cu368 1.959 . S
O388 C375 1.251 . S
H389 C372 0.930 . S
H390 C383 0.929 . S
Cu391 N392 1.999 . S
Cu391 O397 1.974 . S
Cu391 N402 1.985 . S
Cu391 O411 1.959 . S
N392 Cu391 1.999 . S
N392 C394 1.263 . S
N392 C396 1.389 . S
N393 C394 1.358 . S
N393 C395 1.400 . S
C394 N392 1.263 . S
C394 N393 1.358 . S
C394 H400 0.930 . S
C395 N393 1.400 . S
C395 C396 1.351 . S
C395 H412 0.930 . S
C396 N392 1.389 . S
C396 C395 1.351 . S
C396 H401 0.930 . S
O397 Cu391 1.974 . S
O397 C407 1.282 . S
C398 O399 1.261 . S
C398 O411 1.251 . S
O399 C398 1.261 . S
H400 C394 0.930 . S
H401 C396 0.930 . S
N402 Cu391 1.985 . S
N402 C404 1.335 . S
N402 C405 1.390 . S
N403 C404 1.345 . S
N403 C406 1.336 . S
C404 N402 1.335 . S
C404 N403 1.345 . S
C404 H409 0.930 . S
C405 N402 1.390 . S
C405 C406 1.346 . S
C405 H410 0.930 . S
C406 N403 1.336 . S
C406 C405 1.346 . S
C406 H413 0.929 . S
C407 O397 1.282 . S
C407 O408 1.216 . S
O408 C407 1.216 . S
H409 C404 0.930 . S
H410 C405 0.930 . S
O411 Cu391 1.959 . S
O411 C398 1.251 . S
H412 C395 0.930 . S
H413 C406 0.929 . S
Cu414 N415 1.999 . S
Cu414 O420 1.974 . S
Cu414 N425 1.985 . S
Cu414 O434 1.959 . S
N415 Cu414 1.999 . S
N415 C417 1.263 . S
N415 C419 1.389 . S
N416 C417 1.358 . S
N416 C418 1.400 . S
C417 N415 1.263 . S
C417 N416 1.358 . S
C417 H423 0.930 . S
C418 N416 1.400 . S
C418 C419 1.351 . S
C418 H435 0.930 . S
C419 N415 1.389 . S
C419 C418 1.351 . S
C419 H424 0.930 . S
O420 Cu414 1.974 . S
O420 C430 1.282 . S
C421 O422 1.261 . S
C421 O434 1.251 . S
O422 C421 1.261 . S
H423 C417 0.930 . S
H424 C419 0.930 . S
N425 Cu414 1.985 . S
N425 C427 1.335 . S
N425 C428 1.390 . S
N426 C427 1.345 . S
N426 C429 1.336 . S
C427 N425 1.335 . S
C427 N426 1.345 . S
C427 H432 0.930 . S
C428 N425 1.390 . S
C428 C429 1.346 . S
C428 H433 0.930 . S
C429 N426 1.336 . S
C429 C428 1.346 . S
C429 H436 0.929 . S
C430 O420 1.282 . S
C430 O431 1.216 . S
O431 C430 1.216 . S
H432 C427 0.930 . S
H433 C428 0.930 . S
O434 Cu414 1.959 . S
O434 C421 1.251 . S
H435 C418 0.930 . S
H436 C429 0.929 . S
Cu437 N438 1.999 . S
Cu437 O443 1.974 . S
Cu437 N448 1.985 . S
Cu437 O457 1.959 . S
N438 Cu437 1.999 . S
N438 C440 1.263 . S
N438 C442 1.389 . S
N439 C440 1.358 . S
N439 C441 1.400 . S
C440 N438 1.263 . S
C440 N439 1.358 . S
C440 H446 0.930 . S
C441 N439 1.400 . S
C441 C442 1.351 . S
C441 H458 0.930 . S
C442 N438 1.389 . S
C442 C441 1.351 . S
C442 H447 0.930 . S
O443 Cu437 1.974 . S
O443 C453 1.282 . S
C444 O445 1.261 . S
C444 O457 1.251 . S
O445 C444 1.261 . S
H446 C440 0.930 . S
H447 C442 0.930 . S
N448 Cu437 1.985 . S
N448 C450 1.335 . S
N448 C451 1.390 . S
N449 C450 1.345 . S
N449 C452 1.336 . S
C450 N448 1.335 . S
C450 N449 1.345 . S
C450 H455 0.930 . S
C451 N448 1.390 . S
C451 C452 1.346 . S
C451 H456 0.930 . S
C452 N449 1.336 . S
C452 C451 1.346 . S
C452 H459 0.929 . S
C453 O443 1.282 . S
C453 O454 1.216 . S
O454 C453 1.216 . S
H455 C450 0.930 . S
H456 C451 0.930 . S
O457 Cu437 1.959 . S
O457 C444 1.251 . S
H458 C441 0.930 . S
H459 C452 0.929 . S
Cu460 N461 1.999 . S
Cu460 O466 1.974 . S
Cu460 N471 1.985 . S
Cu460 O480 1.959 . S
N461 Cu460 1.999 . S
N461 C463 1.263 . S
N461 C465 1.389 . S
N462 C463 1.358 . S
N462 C464 1.400 . S
C463 N461 1.263 . S
C463 N462 1.358 . S
C463 H469 0.930 . S
C464 N462 1.400 . S
C464 C465 1.351 . S
C464 H481 0.930 . S
C465 N461 1.389 . S
C465 C464 1.351 . S
C465 H470 0.930 . S
O466 Cu460 1.974 . S
O466 C476 1.282 . S
C467 O468 1.261 . S
C467 O480 1.251 . S
O468 C467 1.261 . S
H469 C463 0.930 . S
H470 C465 0.930 . S
N471 Cu460 1.985 . S
N471 C473 1.335 . S
N471 C474 1.390 . S
N472 C473 1.345 . S
N472 C475 1.336 . S
C473 N471 1.335 . S
C473 N472 1.345 . S
C473 H478 0.930 . S
C474 N471 1.390 . S
C474 C475 1.346 . S
C474 H479 0.930 . S
C475 N472 1.336 . S
C475 C474 1.346 . S
C475 H482 0.929 . S
C476 O466 1.282 . S
C476 O477 1.216 . S
O477 C476 1.216 . S
H478 C473 0.930 . S
H479 C474 0.930 . S
O480 Cu460 1.959 . S
O480 C467 1.251 . S
H481 C464 0.930 . S
H482 C475 0.929 . S
Cu483 N484 1.999 . S
Cu483 O489 1.974 . S
Cu483 N494 1.985 . S
Cu483 O503 1.959 . S
N484 Cu483 1.999 . S
N484 C486 1.263 . S
N484 C488 1.389 . S
N485 C486 1.358 . S
N485 C487 1.400 . S
C486 N484 1.263 . S
C486 N485 1.358 . S
C486 H492 0.930 . S
C487 N485 1.400 . S
C487 C488 1.351 . S
C487 H504 0.930 . S
C488 N484 1.389 . S
C488 C487 1.351 . S
C488 H493 0.930 . S
O489 Cu483 1.974 . S
O489 C499 1.282 . S
C490 O491 1.261 . S
C490 O503 1.251 . S
O491 C490 1.261 . S
H492 C486 0.930 . S
H493 C488 0.930 . S
N494 Cu483 1.985 . S
N494 C496 1.335 . S
N494 C497 1.390 . S
N495 C496 1.345 . S
N495 C498 1.336 . S
C496 N494 1.335 . S
C496 N495 1.345 . S
C496 H501 0.930 . S
C497 N494 1.390 . S
C497 C498 1.346 . S
C497 H502 0.930 . S
C498 N495 1.336 . S
C498 C497 1.346 . S
C498 H505 0.929 . S
C499 O489 1.282 . S
C499 O500 1.216 . S
O500 C499 1.216 . S
H501 C496 0.930 . S
H502 C497 0.930 . S
O503 Cu483 1.959 . S
O503 C490 1.251 . S
H504 C487 0.930 . S
H505 C498 0.929 . S
Cu506 N507 1.999 . S
Cu506 O512 1.974 . S
Cu506 N517 1.985 . S
Cu506 O526 1.959 . S
N507 Cu506 1.999 . S
N507 C509 1.263 . S
N507 C511 1.389 . S
N508 C509 1.358 . S
N508 C510 1.400 . S
C509 N507 1.263 . S
C509 N508 1.358 . S
C509 H515 0.930 . S
C510 N508 1.400 . S
C510 C511 1.351 . S
C510 H527 0.930 . S
C511 N507 1.389 . S
C511 C510 1.351 . S
C511 H516 0.930 . S
O512 Cu506 1.974 . S
O512 C522 1.282 . S
C513 O514 1.261 . S
C513 O526 1.251 . S
O514 C513 1.261 . S
H515 C509 0.930 . S
H516 C511 0.930 . S
N517 Cu506 1.985 . S
N517 C519 1.335 . S
N517 C520 1.390 . S
N518 C519 1.345 . S
N518 C521 1.336 . S
C519 N517 1.335 . S
C519 N518 1.345 . S
C519 H524 0.930 . S
C520 N517 1.390 . S
C520 C521 1.346 . S
C520 H525 0.930 . S
C521 N518 1.336 . S
C521 C520 1.346 . S
C521 H528 0.929 . S
C522 O512 1.282 . S
C522 O523 1.216 . S
O523 C522 1.216 . S
H524 C519 0.930 . S
H525 C520 0.930 . S
O526 Cu506 1.959 . S
O526 C513 1.251 . S
H527 C510 0.930 . S
H528 C521 0.929 . S
Cu529 N530 1.999 . S
Cu529 O535 1.974 . S
Cu529 N540 1.985 . S
Cu529 O549 1.959 . S
N530 Cu529 1.999 . S
N530 C532 1.263 . S
N530 C534 1.389 . S
N531 C532 1.358 . S
N531 C533 1.400 . S
C532 N530 1.263 . S
C532 N531 1.358 . S
C532 H538 0.930 . S
C533 N531 1.400 . S
C533 C534 1.351 . S
C533 H550 0.930 . S
C534 N530 1.389 . S
C534 C533 1.351 . S
C534 H539 0.930 . S
O535 Cu529 1.974 . S
O535 C545 1.282 . S
C536 O537 1.261 . S
C536 O549 1.251 . S
O537 C536 1.261 . S
H538 C532 0.930 . S
H539 C534 0.930 . S
N540 Cu529 1.985 . S
N540 C542 1.335 . S
N540 C543 1.390 . S
N541 C542 1.345 . S
N541 C544 1.336 . S
C542 N540 1.335 . S
C542 N541 1.345 . S
C542 H547 0.930 . S
C543 N540 1.390 . S
C543 C544 1.346 . S
C543 H548 0.930 . S
C544 N541 1.336 . S
C544 C543 1.346 . S
C544 H551 0.929 . S
C545 O535 1.282 . S
C545 O546 1.216 . S
O546 C545 1.216 . S
H547 C542 0.930 . S
H548 C543 0.930 . S
O549 Cu529 1.959 . S
O549 C536 1.251 . S
H550 C533 0.930 . S
H551 C544 0.929 . S
Cu552 N553 1.999 . S
Cu552 O558 1.974 . S
Cu552 N563 1.985 . S
Cu552 O572 1.959 . S
N553 Cu552 1.999 . S
N553 C555 1.263 . S
N553 C557 1.389 . S
N554 C555 1.358 . S
N554 C556 1.400 . S
C555 N553 1.263 . S
C555 N554 1.358 . S
C555 H561 0.930 . S
C556 N554 1.400 . S
C556 C557 1.351 . S
C556 H573 0.930 . S
C557 N553 1.389 . S
C557 C556 1.351 . S
C557 H562 0.930 . S
O558 Cu552 1.974 . S
O558 C568 1.282 . S
C559 O560 1.261 . S
C559 O572 1.251 . S
O560 C559 1.261 . S
H561 C555 0.930 . S
H562 C557 0.930 . S
N563 Cu552 1.985 . S
N563 C565 1.335 . S
N563 C566 1.390 . S
N564 C565 1.345 . S
N564 C567 1.336 . S
C565 N563 1.335 . S
C565 N564 1.345 . S
C565 H570 0.930 . S
C566 N563 1.390 . S
C566 C567 1.346 . S
C566 H571 0.930 . S
C567 N564 1.336 . S
C567 C566 1.346 . S
C567 H574 0.929 . S
C568 O558 1.282 . S
C568 O569 1.216 . S
O569 C568 1.216 . S
H570 C565 0.930 . S
H571 C566 0.930 . S
O572 Cu552 1.959 . S
O572 C559 1.251 . S
H573 C556 0.930 . S
H574 C567 0.929 . S
Cu575 N576 1.999 . S
Cu575 O581 1.974 . S
Cu575 N586 1.985 . S
Cu575 O595 1.959 . S
N576 Cu575 1.999 . S
N576 C578 1.263 . S
N576 C580 1.389 . S
N577 C578 1.358 . S
N577 C579 1.400 . S
C578 N576 1.263 . S
C578 N577 1.358 . S
C578 H584 0.930 . S
C579 N577 1.400 . S
C579 C580 1.351 . S
C579 H596 0.930 . S
C580 N576 1.389 . S
C580 C579 1.351 . S
C580 H585 0.930 . S
O581 Cu575 1.974 . S
O581 C591 1.282 . S
C582 O583 1.261 . S
C582 O595 1.251 . S
O583 C582 1.261 . S
H584 C578 0.930 . S
H585 C580 0.930 . S
N586 Cu575 1.985 . S
N586 C588 1.335 . S
N586 C589 1.390 . S
N587 C588 1.345 . S
N587 C590 1.336 . S
C588 N586 1.335 . S
C588 N587 1.345 . S
C588 H593 0.930 . S
C589 N586 1.390 . S
C589 C590 1.346 . S
C589 H594 0.930 . S
C590 N587 1.336 . S
C590 C589 1.346 . S
C590 H597 0.929 . S
C591 O581 1.282 . S
C591 O592 1.216 . S
O592 C591 1.216 . S
H593 C588 0.930 . S
H594 C589 0.930 . S
O595 Cu575 1.959 . S
O595 C582 1.251 . S
H596 C579 0.930 . S
H597 C590 0.929 . S
Cu598 N599 1.991 1_556 S
Cu598 O604 1.974 . S
Cu598 N609 1.985 . S
Cu598 O618 1.959 1_556 S
N599 Cu598 1.991 1_554 S
N599 C601 1.242 1_554 S
N599 C603 1.422 . S
N600 C601 1.358 . S
N600 C602 1.400 1_556 S
C601 N599 1.242 1_556 S
C601 N600 1.358 . S
C601 H607 0.930 . S
C602 N600 1.400 1_554 S
C602 C603 1.351 . S
C602 H619 0.930 . S
C603 N599 1.422 . S
C603 C602 1.351 . S
C603 H608 0.930 . S
O604 Cu598 1.974 . S
O604 C614 1.282 . S
C605 O606 1.261 . S
C605 O618 1.251 . S
O606 C605 1.261 . S
H607 C601 0.930 . S
H608 C603 0.930 . S
N609 Cu598 1.985 . S
N609 C611 1.335 1_556 S
N609 C612 1.390 . S
N610 C611 1.345 1_556 S
N610 C613 1.336 . S
C611 N609 1.335 1_554 S
C611 N610 1.345 1_554 S
C611 H616 0.930 . S
C612 N609 1.390 . S
C612 C613 1.346 . S
C612 H617 0.930 . S
C613 N610 1.336 . S
C613 C612 1.346 . S
C613 H620 0.929 . S
C614 O604 1.282 . S
C614 O615 1.216 . S
O615 C614 1.216 . S
H616 C611 0.930 . S
H617 C612 0.930 . S
O618 Cu598 1.959 1_554 S
O618 C605 1.251 . S
H619 C602 0.930 . S
H620 C613 0.929 . S
Cu621 N622 1.991 1_556 S
Cu621 O627 1.974 . S
Cu621 N632 1.985 . S
Cu621 O641 1.959 1_556 S
N622 Cu621 1.991 1_554 S
N622 C624 1.242 1_554 S
N622 C626 1.422 . S
N623 C624 1.358 . S
N623 C625 1.400 1_556 S
C624 N622 1.242 1_556 S
C624 N623 1.358 . S
C624 H630 0.930 . S
C625 N623 1.400 1_554 S
C625 C626 1.351 . S
C625 H642 0.930 . S
C626 N622 1.422 . S
C626 C625 1.351 . S
C626 H631 0.930 . S
O627 Cu621 1.974 . S
O627 C637 1.282 . S
C628 O629 1.261 . S
C628 O641 1.251 . S
O629 C628 1.261 . S
H630 C624 0.930 . S
H631 C626 0.930 . S
N632 Cu621 1.985 . S
N632 C634 1.335 1_556 S
N632 C635 1.390 . S
N633 C634 1.345 1_556 S
N633 C636 1.336 . S
C634 N632 1.335 1_554 S
C634 N633 1.345 1_554 S
C634 H639 0.930 . S
C635 N632 1.390 . S
C635 C636 1.346 . S
C635 H640 0.930 . S
C636 N633 1.336 . S
C636 C635 1.346 . S
C636 H643 0.929 . S
C637 O627 1.282 . S
C637 O638 1.216 . S
O638 C637 1.216 . S
H639 C634 0.930 . S
H640 C635 0.930 . S
O641 Cu621 1.959 1_554 S
O641 C628 1.251 . S
H642 C625 0.930 . S
H643 C636 0.929 . S
Cu644 N645 1.999 . S
Cu644 O650 1.974 . S
Cu644 N655 1.985 . S
Cu644 O664 1.959 . S
N645 Cu644 1.999 . S
N645 C647 1.263 . S
N645 C649 1.389 . S
N646 C647 1.358 . S
N646 C648 1.400 . S
C647 N645 1.263 . S
C647 N646 1.358 . S
C647 H653 0.930 . S
C648 N646 1.400 . S
C648 C649 1.351 . S
C648 H665 0.930 . S
C649 N645 1.389 . S
C649 C648 1.351 . S
C649 H654 0.930 . S
O650 Cu644 1.974 . S
O650 C660 1.282 . S
C651 O652 1.261 . S
C651 O664 1.251 . S
O652 C651 1.261 . S
H653 C647 0.930 . S
H654 C649 0.930 . S
N655 Cu644 1.985 . S
N655 C657 1.335 . S
N655 C658 1.390 . S
N656 C657 1.345 . S
N656 C659 1.336 . S
C657 N655 1.335 . S
C657 N656 1.345 . S
C657 H662 0.930 . S
C658 N655 1.390 . S
C658 C659 1.346 . S
C658 H663 0.930 . S
C659 N656 1.336 . S
C659 C658 1.346 . S
C659 H666 0.929 . S
C660 O650 1.282 . S
C660 O661 1.216 . S
O661 C660 1.216 . S
H662 C657 0.930 . S
H663 C658 0.930 . S
O664 Cu644 1.959 . S
O664 C651 1.251 . S
H665 C648 0.930 . S
H666 C659 0.929 . S
Cu667 N668 1.999 . S
Cu667 O673 1.974 . S
Cu667 N678 1.985 . S
Cu667 O687 1.959 . S
N668 Cu667 1.999 . S
N668 C670 1.263 . S
N668 C672 1.389 . S
N669 C670 1.358 . S
N669 C671 1.400 . S
C670 N668 1.263 . S
C670 N669 1.358 . S
C670 H676 0.930 . S
C671 N669 1.400 . S
C671 C672 1.351 . S
C671 H688 0.930 . S
C672 N668 1.389 . S
C672 C671 1.351 . S
C672 H677 0.930 . S
O673 Cu667 1.974 . S
O673 C683 1.282 . S
C674 O675 1.261 . S
C674 O687 1.251 . S
O675 C674 1.261 . S
H676 C670 0.930 . S
H677 C672 0.930 . S
N678 Cu667 1.985 . S
N678 C680 1.335 . S
N678 C681 1.390 . S
N679 C680 1.345 . S
N679 C682 1.336 . S
C680 N678 1.335 . S
C680 N679 1.345 . S
C680 H685 0.930 . S
C681 N678 1.390 . S
C681 C682 1.346 . S
C681 H686 0.930 . S
C682 N679 1.336 . S
C682 C681 1.346 . S
C682 H689 0.929 . S
C683 O673 1.282 . S
C683 O684 1.216 . S
O684 C683 1.216 . S
H685 C680 0.930 . S
H686 C681 0.930 . S
O687 Cu667 1.959 . S
O687 C674 1.251 . S
H688 C671 0.930 . S
H689 C682 0.929 . S
Cu690 N691 1.991 1_554 S
Cu690 O696 1.974 . S
Cu690 N701 1.985 . S
Cu690 O710 1.959 1_554 S
N691 Cu690 1.991 1_556 S
N691 C693 1.242 1_556 S
N691 C695 1.422 . S
N692 C693 1.358 . S
N692 C694 1.400 1_554 S
C693 N691 1.242 1_554 S
C693 N692 1.358 . S
C693 H699 0.930 . S
C694 N692 1.400 1_556 S
C694 C695 1.351 . S
C694 H711 0.930 . S
C695 N691 1.422 . S
C695 C694 1.351 . S
C695 H700 0.930 . S
O696 Cu690 1.974 . S
O696 C706 1.282 . S
C697 O698 1.261 . S
C697 O710 1.251 . S
O698 C697 1.261 . S
H699 C693 0.930 . S
H700 C695 0.930 . S
N701 Cu690 1.985 . S
N701 C703 1.335 1_554 S
N701 C704 1.390 . S
N702 C703 1.345 1_554 S
N702 C705 1.336 . S
C703 N701 1.335 1_556 S
C703 N702 1.345 1_556 S
C703 H708 0.930 . S
C704 N701 1.390 . S
C704 C705 1.346 . S
C704 H709 0.930 . S
C705 N702 1.336 . S
C705 C704 1.346 . S
C705 H712 0.929 . S
C706 O696 1.282 . S
C706 O707 1.216 . S
O707 C706 1.216 . S
H708 C703 0.930 . S
H709 C704 0.930 . S
O710 Cu690 1.959 1_556 S
O710 C697 1.251 . S
H711 C694 0.930 . S
H712 C705 0.929 . S
Cu713 N714 1.991 1_554 S
Cu713 O719 1.974 . S
Cu713 N724 1.985 . S
Cu713 O733 1.959 1_554 S
N714 Cu713 1.991 1_556 S
N714 C716 1.242 1_556 S
N714 C718 1.422 . S
N715 C716 1.358 . S
N715 C717 1.400 1_554 S
C716 N714 1.242 1_554 S
C716 N715 1.358 . S
C716 H722 0.930 . S
C717 N715 1.400 1_556 S
C717 C718 1.351 . S
C717 H734 0.930 . S
C718 N714 1.422 . S
C718 C717 1.351 . S
C718 H723 0.930 . S
O719 Cu713 1.974 . S
O719 C729 1.282 . S
C720 O721 1.261 . S
C720 O733 1.251 . S
O721 C720 1.261 . S
H722 C716 0.930 . S
H723 C718 0.930 . S
N724 Cu713 1.985 . S
N724 C726 1.335 1_554 S
N724 C727 1.390 . S
N725 C726 1.345 1_554 S
N725 C728 1.336 . S
C726 N724 1.335 1_556 S
C726 N725 1.345 1_556 S
C726 H731 0.930 . S
C727 N724 1.390 . S
C727 C728 1.346 . S
C727 H732 0.930 . S
C728 N725 1.336 . S
C728 C727 1.346 . S
C728 H735 0.929 . S
C729 O719 1.282 . S
C729 O730 1.216 . S
O730 C729 1.216 . S
H731 C726 0.930 . S
H732 C727 0.930 . S
O733 Cu713 1.959 1_556 S
O733 C720 1.251 . S
H734 C717 0.930 . S
H735 C728 0.929 . S
C736 C737 1.391 . S
C736 C738 1.394 . S
C736 H752 0.931 . S
C737 C736 1.391 . S
C737 C741 1.376 . S
C738 C736 1.394 . S
C738 C739 1.369 . S
C738 C742 1.531 . S
C739 C738 1.369 . S
C739 C740 1.410 . S
C739 C747 1.503 . S
C740 C739 1.410 . S
C740 C741 1.392 . S
C740 C743 1.511 . S
C741 C737 1.376 . S
C741 C740 1.392 . S
C741 H753 0.929 . S
C742 C738 1.531 . S
C742 H754 0.960 . S
C742 H755 0.962 . S
C742 H756 0.960 . S
C743 C740 1.511 . S
C743 H757 0.961 . S
C743 H758 0.961 . S
C743 H759 0.961 . S
C744 C745 1.370 . S
C744 C746 1.363 . S
C744 H760 0.931 . S
C745 C744 1.370 . S
C745 C749 1.408 . S
C746 C744 1.363 . S
C746 C747 1.370 . S
C746 C750 1.524 . S
C747 C739 1.503 . S
C747 C746 1.370 . S
C747 C748 1.403 . S
C748 C747 1.403 . S
C748 C749 1.404 . S
C748 C751 1.539 . S
C749 C745 1.408 . S
C749 C748 1.404 . S
C749 H761 0.930 . S
C750 C746 1.524 . S
C750 H762 0.956 . S
C750 H763 0.961 . S
C750 H764 0.961 . S
C751 C748 1.539 . S
C751 H765 0.958 . S
C751 H766 0.961 . S
C751 H767 0.960 . S
H752 C736 0.931 . S
H753 C741 0.929 . S
H754 C742 0.960 . S
H755 C742 0.962 . S
H756 C742 0.960 . S
H757 C743 0.961 . S
H758 C743 0.961 . S
H759 C743 0.961 . S
H760 C744 0.931 . S
H761 C749 0.930 . S
H762 C750 0.956 . S
H763 C750 0.961 . S
H764 C750 0.961 . S
H765 C751 0.958 . S
H766 C751 0.961 . S
H767 C751 0.960 . S
C768 C769 1.391 . S
C768 C770 1.394 . S
C768 H784 0.931 . S
C769 C768 1.391 . S
C769 C773 1.376 . S
C770 C768 1.394 . S
C770 C771 1.369 . S
C770 C774 1.531 . S
C771 C770 1.369 . S
C771 C772 1.410 . S
C771 C779 1.503 . S
C772 C771 1.410 . S
C772 C773 1.392 . S
C772 C775 1.511 . S
C773 C769 1.376 . S
C773 C772 1.392 . S
C773 H785 0.929 . S
C774 C770 1.531 . S
C774 H786 0.960 . S
C774 H787 0.962 . S
C774 H788 0.960 . S
C775 C772 1.511 . S
C775 H789 0.961 . S
C775 H790 0.961 . S
C775 H791 0.961 . S
C776 C777 1.370 . S
C776 C778 1.363 . S
C776 H792 0.931 . S
C777 C776 1.370 . S
C777 C781 1.408 . S
C778 C776 1.363 . S
C778 C779 1.370 . S
C778 C782 1.524 . S
C779 C771 1.503 . S
C779 C778 1.370 . S
C779 C780 1.403 . S
C780 C779 1.403 . S
C780 C781 1.404 . S
C780 C783 1.539 . S
C781 C777 1.408 . S
C781 C780 1.404 . S
C781 H793 0.930 . S
C782 C778 1.524 . S
C782 H794 0.956 . S
C782 H795 0.961 . S
C782 H796 0.961 . S
C783 C780 1.539 . S
C783 H797 0.958 . S
C783 H798 0.961 . S
C783 H799 0.960 . S
H784 C768 0.931 . S
H785 C773 0.929 . S
H786 C774 0.960 . S
H787 C774 0.962 . S
H788 C774 0.960 . S
H789 C775 0.961 . S
H790 C775 0.961 . S
H791 C775 0.961 . S
H792 C776 0.931 . S
H793 C781 0.930 . S
H794 C782 0.956 . S
H795 C782 0.961 . S
H796 C782 0.961 . S
H797 C783 0.958 . S
H798 C783 0.961 . S
H799 C783 0.960 . S
C800 C801 1.391 . S
C800 C802 1.394 . S
C800 H816 0.931 . S
C801 C800 1.391 . S
C801 C805 1.376 . S
C802 C800 1.394 . S
C802 C803 1.369 . S
C802 C806 1.531 . S
C803 C802 1.369 . S
C803 C804 1.410 . S
C803 C811 1.503 . S
C804 C803 1.410 . S
C804 C805 1.392 . S
C804 C807 1.511 . S
C805 C801 1.376 . S
C805 C804 1.392 . S
C805 H817 0.929 . S
C806 C802 1.531 . S
C806 H818 0.960 . S
C806 H819 0.962 . S
C806 H820 0.960 . S
C807 C804 1.511 . S
C807 H821 0.961 . S
C807 H822 0.961 . S
C807 H823 0.961 . S
C808 C809 1.370 . S
C808 C810 1.363 . S
C808 H824 0.931 . S
C809 C808 1.370 . S
C809 C813 1.408 . S
C810 C808 1.363 . S
C810 C811 1.370 . S
C810 C814 1.524 . S
C811 C803 1.503 . S
C811 C810 1.370 . S
C811 C812 1.403 . S
C812 C811 1.403 . S
C812 C813 1.404 . S
C812 C815 1.539 . S
C813 C809 1.408 . S
C813 C812 1.404 . S
C813 H825 0.930 . S
C814 C810 1.524 . S
C814 H826 0.956 . S
C814 H827 0.961 . S
C814 H828 0.961 . S
C815 C812 1.539 . S
C815 H829 0.958 . S
C815 H830 0.961 . S
C815 H831 0.960 . S
H816 C800 0.931 . S
H817 C805 0.929 . S
H818 C806 0.960 . S
H819 C806 0.962 . S
H820 C806 0.960 . S
H821 C807 0.961 . S
H822 C807 0.961 . S
H823 C807 0.961 . S
H824 C808 0.931 . S
H825 C813 0.930 . S
H826 C814 0.956 . S
H827 C814 0.961 . S
H828 C814 0.961 . S
H829 C815 0.958 . S
H830 C815 0.961 . S
H831 C815 0.960 . S
C832 C833 1.391 . S
C832 C834 1.394 . S
C832 H848 0.931 . S
C833 C832 1.391 . S
C833 C837 1.376 . S
C834 C832 1.394 . S
C834 C835 1.369 . S
C834 C838 1.531 . S
C835 C834 1.369 . S
C835 C836 1.410 . S
C835 C843 1.503 . S
C836 C835 1.410 . S
C836 C837 1.392 . S
C836 C839 1.511 . S
C837 C833 1.376 . S
C837 C836 1.392 . S
C837 H849 0.929 . S
C838 C834 1.531 . S
C838 H850 0.960 . S
C838 H851 0.962 . S
C838 H852 0.960 . S
C839 C836 1.511 . S
C839 H853 0.961 . S
C839 H854 0.961 . S
C839 H855 0.961 . S
C840 C841 1.370 . S
C840 C842 1.363 . S
C840 H856 0.931 . S
C841 C840 1.370 . S
C841 C845 1.408 . S
C842 C840 1.363 . S
C842 C843 1.370 . S
C842 C846 1.524 . S
C843 C835 1.503 . S
C843 C842 1.370 . S
C843 C844 1.403 . S
C844 C843 1.403 . S
C844 C845 1.404 . S
C844 C847 1.539 . S
C845 C841 1.408 . S
C845 C844 1.404 . S
C845 H857 0.930 . S
C846 C842 1.524 . S
C846 H858 0.956 . S
C846 H859 0.961 . S
C846 H860 0.961 . S
C847 C844 1.539 . S
C847 H861 0.958 . S
C847 H862 0.961 . S
C847 H863 0.960 . S
H848 C832 0.931 . S
H849 C837 0.929 . S
H850 C838 0.960 . S
H851 C838 0.962 . S
H852 C838 0.960 . S
H853 C839 0.961 . S
H854 C839 0.961 . S
H855 C839 0.961 . S
H856 C840 0.931 . S
H857 C845 0.930 . S
H858 C846 0.956 . S
H859 C846 0.961 . S
H860 C846 0.961 . S
H861 C847 0.958 . S
H862 C847 0.961 . S
H863 C847 0.960 . S
C864 C865 1.391 . S
C864 C866 1.394 . S
C864 H880 0.931 . S
C865 C864 1.391 . S
C865 C869 1.376 . S
C866 C864 1.394 . S
C866 C867 1.369 . S
C866 C870 1.531 . S
C867 C866 1.369 . S
C867 C868 1.410 . S
C867 C875 1.503 . S
C868 C867 1.410 . S
C868 C869 1.392 . S
C868 C871 1.511 . S
C869 C865 1.376 . S
C869 C868 1.392 . S
C869 H881 0.929 . S
C870 C866 1.531 . S
C870 H882 0.960 . S
C870 H883 0.962 . S
C870 H884 0.960 . S
C871 C868 1.511 . S
C871 H885 0.961 . S
C871 H886 0.961 . S
C871 H887 0.961 . S
C872 C873 1.370 . S
C872 C874 1.363 . S
C872 H888 0.931 . S
C873 C872 1.370 . S
C873 C877 1.408 . S
C874 C872 1.363 . S
C874 C875 1.370 . S
C874 C878 1.524 . S
C875 C867 1.503 . S
C875 C874 1.370 . S
C875 C876 1.403 . S
C876 C875 1.403 . S
C876 C877 1.404 . S
C876 C879 1.539 . S
C877 C873 1.408 . S
C877 C876 1.404 . S
C877 H889 0.930 . S
C878 C874 1.524 . S
C878 H890 0.956 . S
C878 H891 0.961 . S
C878 H892 0.961 . S
C879 C876 1.539 . S
C879 H893 0.958 . S
C879 H894 0.961 . S
C879 H895 0.960 . S
H880 C864 0.931 . S
H881 C869 0.929 . S
H882 C870 0.960 . S
H883 C870 0.962 . S
H884 C870 0.960 . S
H885 C871 0.961 . S
H886 C871 0.961 . S
H887 C871 0.961 . S
H888 C872 0.931 . S
H889 C877 0.930 . S
H890 C878 0.956 . S
H891 C878 0.961 . S
H892 C878 0.961 . S
H893 C879 0.958 . S
H894 C879 0.961 . S
H895 C879 0.960 . S
C896 C897 1.391 . S
C896 C898 1.394 . S
C896 H912 0.931 . S
C897 C896 1.391 . S
C897 C901 1.376 . S
C898 C896 1.394 . S
C898 C899 1.369 . S
C898 C902 1.531 . S
C899 C898 1.369 . S
C899 C900 1.410 . S
C899 C907 1.503 . S
C900 C899 1.410 . S
C900 C901 1.392 . S
C900 C903 1.511 . S
C901 C897 1.376 . S
C901 C900 1.392 . S
C901 H913 0.929 . S
C902 C898 1.531 . S
C902 H914 0.960 . S
C902 H915 0.962 . S
C902 H916 0.960 . S
C903 C900 1.511 . S
C903 H917 0.961 . S
C903 H918 0.961 . S
C903 H919 0.961 . S
C904 C905 1.370 . S
C904 C906 1.363 . S
C904 H920 0.931 . S
C905 C904 1.370 . S
C905 C909 1.408 . S
C906 C904 1.363 . S
C906 C907 1.370 . S
C906 C910 1.524 . S
C907 C899 1.503 . S
C907 C906 1.370 . S
C907 C908 1.403 . S
C908 C907 1.403 . S
C908 C909 1.404 . S
C908 C911 1.539 . S
C909 C905 1.408 . S
C909 C908 1.404 . S
C909 H921 0.930 . S
C910 C906 1.524 . S
C910 H922 0.956 . S
C910 H923 0.961 . S
C910 H924 0.961 . S
C911 C908 1.539 . S
C911 H925 0.958 . S
C911 H926 0.961 . S
C911 H927 0.960 . S
H912 C896 0.931 . S
H913 C901 0.929 . S
H914 C902 0.960 . S
H915 C902 0.962 . S
H916 C902 0.960 . S
H917 C903 0.961 . S
H918 C903 0.961 . S
H919 C903 0.961 . S
H920 C904 0.931 . S
H921 C909 0.930 . S
H922 C910 0.956 . S
H923 C910 0.961 . S
H924 C910 0.961 . S
H925 C911 0.958 . S
H926 C911 0.961 . S
H927 C911 0.960 . S
C928 C929 1.391 . S
C928 C930 1.394 . S
C928 H944 0.931 . S
C929 C928 1.391 . S
C929 C933 1.376 . S
C930 C928 1.394 . S
C930 C931 1.369 . S
C930 C934 1.531 . S
C931 C930 1.369 . S
C931 C932 1.410 . S
C931 C939 1.503 . S
C932 C931 1.410 . S
C932 C933 1.392 . S
C932 C935 1.511 . S
C933 C929 1.376 . S
C933 C932 1.392 . S
C933 H945 0.929 . S
C934 C930 1.531 . S
C934 H946 0.960 . S
C934 H947 0.962 . S
C934 H948 0.960 . S
C935 C932 1.511 . S
C935 H949 0.961 . S
C935 H950 0.961 . S
C935 H951 0.961 . S
C936 C937 1.370 . S
C936 C938 1.363 . S
C936 H952 0.931 . S
C937 C936 1.370 . S
C937 C941 1.408 . S
C938 C936 1.363 . S
C938 C939 1.370 . S
C938 C942 1.524 . S
C939 C931 1.503 . S
C939 C938 1.370 . S
C939 C940 1.403 . S
C940 C939 1.403 . S
C940 C941 1.404 . S
C940 C943 1.539 . S
C941 C937 1.408 . S
C941 C940 1.404 . S
C941 H953 0.930 . S
C942 C938 1.524 . S
C942 H954 0.956 . S
C942 H955 0.961 . S
C942 H956 0.961 . S
C943 C940 1.539 . S
C943 H957 0.958 . S
C943 H958 0.961 . S
C943 H959 0.960 . S
H944 C928 0.931 . S
H945 C933 0.929 . S
H946 C934 0.960 . S
H947 C934 0.962 . S
H948 C934 0.960 . S
H949 C935 0.961 . S
H950 C935 0.961 . S
H951 C935 0.961 . S
H952 C936 0.931 . S
H953 C941 0.930 . S
H954 C942 0.956 . S
H955 C942 0.961 . S
H956 C942 0.961 . S
H957 C943 0.958 . S
H958 C943 0.961 . S
H959 C943 0.960 . S
C960 C961 1.391 . S
C960 C962 1.394 . S
C960 H976 0.931 . S
C961 C960 1.391 . S
C961 C965 1.376 . S
C962 C960 1.394 . S
C962 C963 1.369 . S
C962 C966 1.531 . S
C963 C962 1.369 . S
C963 C964 1.410 . S
C963 C971 1.503 . S
C964 C963 1.410 . S
C964 C965 1.392 . S
C964 C967 1.511 . S
C965 C961 1.376 . S
C965 C964 1.392 . S
C965 H977 0.929 . S
C966 C962 1.531 . S
C966 H978 0.960 . S
C966 H979 0.962 . S
C966 H980 0.960 . S
C967 C964 1.511 . S
C967 H981 0.961 . S
C967 H982 0.961 . S
C967 H983 0.961 . S
C968 C969 1.370 . S
C968 C970 1.363 . S
C968 H984 0.931 . S
C969 C968 1.370 . S
C969 C973 1.408 . S
C970 C968 1.363 . S
C970 C971 1.370 . S
C970 C974 1.524 . S
C971 C963 1.503 . S
C971 C970 1.370 . S
C971 C972 1.403 . S
C972 C971 1.403 . S
C972 C973 1.404 . S
C972 C975 1.539 . S
C973 C969 1.408 . S
C973 C972 1.404 . S
C973 H985 0.930 . S
C974 C970 1.524 . S
C974 H986 0.956 . S
C974 H987 0.961 . S
C974 H988 0.961 . S
C975 C972 1.539 . S
C975 H989 0.958 . S
C975 H990 0.961 . S
C975 H991 0.960 . S
H976 C960 0.931 . S
H977 C965 0.929 . S
H978 C966 0.960 . S
H979 C966 0.962 . S
H980 C966 0.960 . S
H981 C967 0.961 . S
H982 C967 0.961 . S
H983 C967 0.961 . S
H984 C968 0.931 . S
H985 C973 0.930 . S
H986 C974 0.956 . S
H987 C974 0.961 . S
H988 C974 0.961 . S
H989 C975 0.958 . S
H990 C975 0.961 . S
H991 C975 0.960 . S
C992 C993 1.391 . S
C992 C994 1.394 . S
C992 H1008 0.931 . S
C993 C992 1.391 . S
C993 C997 1.376 . S
C994 C992 1.394 . S
C994 C995 1.369 . S
C994 C998 1.531 . S
C995 C994 1.369 . S
C995 C996 1.410 . S
C995 C1003 1.503 . S
C996 C995 1.410 . S
C996 C997 1.392 . S
C996 C999 1.511 . S
C997 C993 1.376 . S
C997 C996 1.392 . S
C997 H1009 0.929 . S
C998 C994 1.531 . S
C998 H1010 0.960 . S
C998 H1011 0.962 . S
C998 H1012 0.960 . S
C999 C996 1.511 . S
C999 H1013 0.961 . S
C999 H1014 0.961 . S
C999 H1015 0.961 . S
C1000 C1001 1.370 . S
C1000 C1002 1.363 . S
C1000 H1016 0.931 . S
C1001 C1000 1.370 . S
C1001 C1005 1.408 . S
C1002 C1000 1.363 . S
C1002 C1003 1.370 . S
C1002 C1006 1.524 . S
C1003 C995 1.503 . S
C1003 C1002 1.370 . S
C1003 C1004 1.403 . S
C1004 C1003 1.403 . S
C1004 C1005 1.404 . S
C1004 C1007 1.539 . S
C1005 C1001 1.408 . S
C1005 C1004 1.404 . S
C1005 H1017 0.930 . S
C1006 C1002 1.524 . S
C1006 H1018 0.956 . S
C1006 H1019 0.961 . S
C1006 H1020 0.961 . S
C1007 C1004 1.539 . S
C1007 H1021 0.958 . S
C1007 H1022 0.961 . S
C1007 H1023 0.960 . S
H1008 C992 0.931 . S
H1009 C997 0.929 . S
H1010 C998 0.960 . S
H1011 C998 0.962 . S
H1012 C998 0.960 . S
H1013 C999 0.961 . S
H1014 C999 0.961 . S
H1015 C999 0.961 . S
H1016 C1000 0.931 . S
H1017 C1005 0.930 . S
H1018 C1006 0.956 . S
H1019 C1006 0.961 . S
H1020 C1006 0.961 . S
H1021 C1007 0.958 . S
H1022 C1007 0.961 . S
H1023 C1007 0.960 . S
C1024 C1025 1.391 . S
C1024 C1026 1.394 . S
C1024 H1040 0.931 . S
C1025 C1024 1.391 . S
C1025 C1029 1.376 . S
C1026 C1024 1.394 . S
C1026 C1027 1.369 . S
C1026 C1030 1.531 . S
C1027 C1026 1.369 . S
C1027 C1028 1.410 . S
C1027 C1035 1.503 . S
C1028 C1027 1.410 . S
C1028 C1029 1.392 . S
C1028 C1031 1.511 . S
C1029 C1025 1.376 . S
C1029 C1028 1.392 . S
C1029 H1041 0.929 . S
C1030 C1026 1.531 . S
C1030 H1042 0.960 . S
C1030 H1043 0.962 . S
C1030 H1044 0.960 . S
C1031 C1028 1.511 . S
C1031 H1045 0.961 . S
C1031 H1046 0.961 . S
C1031 H1047 0.961 . S
C1032 C1033 1.370 . S
C1032 C1034 1.363 . S
C1032 H1048 0.931 . S
C1033 C1032 1.370 . S
C1033 C1037 1.408 . S
C1034 C1032 1.363 . S
C1034 C1035 1.370 . S
C1034 C1038 1.524 . S
C1035 C1027 1.503 . S
C1035 C1034 1.370 . S
C1035 C1036 1.403 . S
C1036 C1035 1.403 . S
C1036 C1037 1.404 . S
C1036 C1039 1.539 . S
C1037 C1033 1.408 . S
C1037 C1036 1.404 . S
C1037 H1049 0.930 . S
C1038 C1034 1.524 . S
C1038 H1050 0.956 . S
C1038 H1051 0.961 . S
C1038 H1052 0.961 . S
C1039 C1036 1.539 . S
C1039 H1053 0.958 . S
C1039 H1054 0.961 . S
C1039 H1055 0.960 . S
H1040 C1024 0.931 . S
H1041 C1029 0.929 . S
H1042 C1030 0.960 . S
H1043 C1030 0.962 . S
H1044 C1030 0.960 . S
H1045 C1031 0.961 . S
H1046 C1031 0.961 . S
H1047 C1031 0.961 . S
H1048 C1032 0.931 . S
H1049 C1037 0.930 . S
H1050 C1038 0.956 . S
H1051 C1038 0.961 . S
H1052 C1038 0.961 . S
H1053 C1039 0.958 . S
H1054 C1039 0.961 . S
H1055 C1039 0.960 . S
C1056 C1057 1.391 . S
C1056 C1058 1.394 . S
C1056 H1072 0.931 . S
C1057 C1056 1.391 . S
C1057 C1061 1.376 . S
C1058 C1056 1.394 . S
C1058 C1059 1.369 . S
C1058 C1062 1.531 . S
C1059 C1058 1.369 . S
C1059 C1060 1.410 . S
C1059 C1067 1.503 . S
C1060 C1059 1.410 . S
C1060 C1061 1.392 . S
C1060 C1063 1.511 . S
C1061 C1057 1.376 . S
C1061 C1060 1.392 . S
C1061 H1073 0.929 . S
C1062 C1058 1.531 . S
C1062 H1074 0.960 . S
C1062 H1075 0.962 . S
C1062 H1076 0.960 . S
C1063 C1060 1.511 . S
C1063 H1077 0.961 . S
C1063 H1078 0.961 . S
C1063 H1079 0.961 . S
C1064 C1065 1.370 . S
C1064 C1066 1.363 . S
C1064 H1080 0.931 . S
C1065 C1064 1.370 . S
C1065 C1069 1.408 . S
C1066 C1064 1.363 . S
C1066 C1067 1.370 . S
C1066 C1070 1.524 . S
C1067 C1059 1.503 . S
C1067 C1066 1.370 . S
C1067 C1068 1.403 . S
C1068 C1067 1.403 . S
C1068 C1069 1.404 . S
C1068 C1071 1.539 . S
C1069 C1065 1.408 . S
C1069 C1068 1.404 . S
C1069 H1081 0.930 . S
C1070 C1066 1.524 . S
C1070 H1082 0.956 . S
C1070 H1083 0.961 . S
C1070 H1084 0.961 . S
C1071 C1068 1.539 . S
C1071 H1085 0.958 . S
C1071 H1086 0.961 . S
C1071 H1087 0.960 . S
H1072 C1056 0.931 . S
H1073 C1061 0.929 . S
H1074 C1062 0.960 . S
H1075 C1062 0.962 . S
H1076 C1062 0.960 . S
H1077 C1063 0.961 . S
H1078 C1063 0.961 . S
H1079 C1063 0.961 . S
H1080 C1064 0.931 . S
H1081 C1069 0.930 . S
H1082 C1070 0.956 . S
H1083 C1070 0.961 . S
H1084 C1070 0.961 . S
H1085 C1071 0.958 . S
H1086 C1071 0.961 . S
H1087 C1071 0.960 . S
C1088 C1089 1.391 . S
C1088 C1090 1.394 . S
C1088 H1104 0.931 . S
C1089 C1088 1.391 . S
C1089 C1093 1.376 . S
C1090 C1088 1.394 . S
C1090 C1091 1.369 . S
C1090 C1094 1.531 . S
C1091 C1090 1.369 . S
C1091 C1092 1.410 . S
C1091 C1099 1.503 . S
C1092 C1091 1.410 . S
C1092 C1093 1.392 . S
C1092 C1095 1.511 . S
C1093 C1089 1.376 . S
C1093 C1092 1.392 . S
C1093 H1105 0.929 . S
C1094 C1090 1.531 . S
C1094 H1106 0.960 . S
C1094 H1107 0.962 . S
C1094 H1108 0.960 . S
C1095 C1092 1.511 . S
C1095 H1109 0.961 . S
C1095 H1110 0.961 . S
C1095 H1111 0.961 . S
C1096 C1097 1.370 . S
C1096 C1098 1.363 . S
C1096 H1112 0.931 . S
C1097 C1096 1.370 . S
C1097 C1101 1.408 . S
C1098 C1096 1.363 . S
C1098 C1099 1.370 . S
C1098 C1102 1.524 . S
C1099 C1091 1.503 . S
C1099 C1098 1.370 . S
C1099 C1100 1.403 . S
C1100 C1099 1.403 . S
C1100 C1101 1.404 . S
C1100 C1103 1.539 . S
C1101 C1097 1.408 . S
C1101 C1100 1.404 . S
C1101 H1113 0.930 . S
C1102 C1098 1.524 . S
C1102 H1114 0.956 . S
C1102 H1115 0.961 . S
C1102 H1116 0.961 . S
C1103 C1100 1.539 . S
C1103 H1117 0.958 . S
C1103 H1118 0.961 . S
C1103 H1119 0.960 . S
H1104 C1088 0.931 . S
H1105 C1093 0.929 . S
H1106 C1094 0.960 . S
H1107 C1094 0.962 . S
H1108 C1094 0.960 . S
H1109 C1095 0.961 . S
H1110 C1095 0.961 . S
H1111 C1095 0.961 . S
H1112 C1096 0.931 . S
H1113 C1101 0.930 . S
H1114 C1102 0.956 . S
H1115 C1102 0.961 . S
H1116 C1102 0.961 . S
H1117 C1103 0.958 . S
H1118 C1103 0.961 . S
H1119 C1103 0.960 . S
C1120 C1121 1.391 . S
C1120 C1122 1.394 . S
C1120 H1136 0.931 . S
C1121 C1120 1.391 . S
C1121 C1125 1.376 . S
C1122 C1120 1.394 . S
C1122 C1123 1.369 . S
C1122 C1126 1.531 . S
C1123 C1122 1.369 . S
C1123 C1124 1.410 . S
C1123 C1131 1.503 . S
C1124 C1123 1.410 . S
C1124 C1125 1.392 . S
C1124 C1127 1.511 . S
C1125 C1121 1.376 . S
C1125 C1124 1.392 . S
C1125 H1137 0.929 . S
C1126 C1122 1.531 . S
C1126 H1138 0.960 . S
C1126 H1139 0.962 . S
C1126 H1140 0.960 . S
C1127 C1124 1.511 . S
C1127 H1141 0.961 . S
C1127 H1142 0.961 . S
C1127 H1143 0.961 . S
C1128 C1129 1.370 . S
C1128 C1130 1.363 . S
C1128 H1144 0.931 . S
C1129 C1128 1.370 . S
C1129 C1133 1.408 . S
C1130 C1128 1.363 . S
C1130 C1131 1.370 . S
C1130 C1134 1.524 . S
C1131 C1123 1.503 . S
C1131 C1130 1.370 . S
C1131 C1132 1.403 . S
C1132 C1131 1.403 . S
C1132 C1133 1.404 . S
C1132 C1135 1.539 . S
C1133 C1129 1.408 . S
C1133 C1132 1.404 . S
C1133 H1145 0.930 . S
C1134 C1130 1.524 . S
C1134 H1146 0.956 . S
C1134 H1147 0.961 . S
C1134 H1148 0.961 . S
C1135 C1132 1.539 . S
C1135 H1149 0.958 . S
C1135 H1150 0.961 . S
C1135 H1151 0.960 . S
H1136 C1120 0.931 . S
H1137 C1125 0.929 . S
H1138 C1126 0.960 . S
H1139 C1126 0.962 . S
H1140 C1126 0.960 . S
H1141 C1127 0.961 . S
H1142 C1127 0.961 . S
H1143 C1127 0.961 . S
H1144 C1128 0.931 . S
H1145 C1133 0.930 . S
H1146 C1134 0.956 . S
H1147 C1134 0.961 . S
H1148 C1134 0.961 . S
H1149 C1135 0.958 . S
H1150 C1135 0.961 . S
H1151 C1135 0.960 . S
C1152 C1153 1.391 . S
C1152 C1154 1.394 . S
C1152 H1168 0.931 . S
C1153 C1152 1.391 . S
C1153 C1157 1.376 . S
C1154 C1152 1.394 . S
C1154 C1155 1.369 . S
C1154 C1158 1.531 . S
C1155 C1154 1.369 . S
C1155 C1156 1.410 . S
C1155 C1163 1.503 . S
C1156 C1155 1.410 . S
C1156 C1157 1.392 . S
C1156 C1159 1.511 . S
C1157 C1153 1.376 . S
C1157 C1156 1.392 . S
C1157 H1169 0.929 . S
C1158 C1154 1.531 . S
C1158 H1170 0.960 . S
C1158 H1171 0.962 . S
C1158 H1172 0.960 . S
C1159 C1156 1.511 . S
C1159 H1173 0.961 . S
C1159 H1174 0.961 . S
C1159 H1175 0.961 . S
C1160 C1161 1.370 . S
C1160 C1162 1.363 . S
C1160 H1176 0.931 . S
C1161 C1160 1.370 . S
C1161 C1165 1.408 . S
C1162 C1160 1.363 . S
C1162 C1163 1.370 . S
C1162 C1166 1.524 . S
C1163 C1155 1.503 . S
C1163 C1162 1.370 . S
C1163 C1164 1.403 . S
C1164 C1163 1.403 . S
C1164 C1165 1.404 . S
C1164 C1167 1.539 . S
C1165 C1161 1.408 . S
C1165 C1164 1.404 . S
C1165 H1177 0.930 . S
C1166 C1162 1.524 . S
C1166 H1178 0.956 . S
C1166 H1179 0.961 . S
C1166 H1180 0.961 . S
C1167 C1164 1.539 . S
C1167 H1181 0.958 . S
C1167 H1182 0.961 . S
C1167 H1183 0.960 . S
H1168 C1152 0.931 . S
H1169 C1157 0.929 . S
H1170 C1158 0.960 . S
H1171 C1158 0.962 . S
H1172 C1158 0.960 . S
H1173 C1159 0.961 . S
H1174 C1159 0.961 . S
H1175 C1159 0.961 . S
H1176 C1160 0.931 . S
H1177 C1165 0.930 . S
H1178 C1166 0.956 . S
H1179 C1166 0.961 . S
H1180 C1166 0.961 . S
H1181 C1167 0.958 . S
H1182 C1167 0.961 . S
H1183 C1167 0.960 . S
C1184 C1185 1.391 . S
C1184 C1186 1.394 . S
C1184 H1200 0.931 . S
C1185 C1184 1.391 . S
C1185 C1189 1.376 . S
C1186 C1184 1.394 . S
C1186 C1187 1.369 . S
C1186 C1190 1.531 . S
C1187 C1186 1.369 . S
C1187 C1188 1.410 . S
C1187 C1195 1.503 . S
C1188 C1187 1.410 . S
C1188 C1189 1.392 . S
C1188 C1191 1.511 . S
C1189 C1185 1.376 . S
C1189 C1188 1.392 . S
C1189 H1201 0.929 . S
C1190 C1186 1.531 . S
C1190 H1202 0.960 . S
C1190 H1203 0.962 . S
C1190 H1204 0.960 . S
C1191 C1188 1.511 . S
C1191 H1205 0.961 . S
C1191 H1206 0.961 . S
C1191 H1207 0.961 . S
C1192 C1193 1.370 . S
C1192 C1194 1.363 . S
C1192 H1208 0.931 . S
C1193 C1192 1.370 . S
C1193 C1197 1.408 . S
C1194 C1192 1.363 . S
C1194 C1195 1.370 . S
C1194 C1198 1.524 . S
C1195 C1187 1.503 . S
C1195 C1194 1.370 . S
C1195 C1196 1.403 . S
C1196 C1195 1.403 . S
C1196 C1197 1.404 . S
C1196 C1199 1.539 . S
C1197 C1193 1.408 . S
C1197 C1196 1.404 . S
C1197 H1209 0.930 . S
C1198 C1194 1.524 . S
C1198 H1210 0.956 . S
C1198 H1211 0.961 . S
C1198 H1212 0.961 . S
C1199 C1196 1.539 . S
C1199 H1213 0.958 . S
C1199 H1214 0.961 . S
C1199 H1215 0.960 . S
H1200 C1184 0.931 . S
H1201 C1189 0.929 . S
H1202 C1190 0.960 . S
H1203 C1190 0.962 . S
H1204 C1190 0.960 . S
H1205 C1191 0.961 . S
H1206 C1191 0.961 . S
H1207 C1191 0.961 . S
H1208 C1192 0.931 . S
H1209 C1197 0.930 . S
H1210 C1198 0.956 . S
H1211 C1198 0.961 . S
H1212 C1198 0.961 . S
H1213 C1199 0.958 . S
H1214 C1199 0.961 . S
H1215 C1199 0.960 . S
C1216 C1217 1.391 . S
C1216 C1218 1.394 . S
C1216 H1232 0.931 . S
C1217 C1216 1.391 . S
C1217 C1221 1.376 . S
C1218 C1216 1.394 . S
C1218 C1219 1.369 . S
C1218 C1222 1.531 . S
C1219 C1218 1.369 . S
C1219 C1220 1.410 . S
C1219 C1227 1.503 . S
C1220 C1219 1.410 . S
C1220 C1221 1.392 . S
C1220 C1223 1.511 . S
C1221 C1217 1.376 . S
C1221 C1220 1.392 . S
C1221 H1233 0.929 . S
C1222 C1218 1.531 . S
C1222 H1234 0.960 . S
C1222 H1235 0.962 . S
C1222 H1236 0.960 . S
C1223 C1220 1.511 . S
C1223 H1237 0.961 . S
C1223 H1238 0.961 . S
C1223 H1239 0.961 . S
C1224 C1225 1.370 . S
C1224 C1226 1.363 . S
C1224 H1240 0.931 . S
C1225 C1224 1.370 . S
C1225 C1229 1.408 . S
C1226 C1224 1.363 . S
C1226 C1227 1.370 . S
C1226 C1230 1.524 . S
C1227 C1219 1.503 . S
C1227 C1226 1.370 . S
C1227 C1228 1.403 . S
C1228 C1227 1.403 . S
C1228 C1229 1.404 . S
C1228 C1231 1.539 . S
C1229 C1225 1.408 . S
C1229 C1228 1.404 . S
C1229 H1241 0.930 . S
C1230 C1226 1.524 . S
C1230 H1242 0.956 . S
C1230 H1243 0.961 . S
C1230 H1244 0.961 . S
C1231 C1228 1.539 . S
C1231 H1245 0.958 . S
C1231 H1246 0.961 . S
C1231 H1247 0.960 . S
H1232 C1216 0.931 . S
H1233 C1221 0.929 . S
H1234 C1222 0.960 . S
H1235 C1222 0.962 . S
H1236 C1222 0.960 . S
H1237 C1223 0.961 . S
H1238 C1223 0.961 . S
H1239 C1223 0.961 . S
H1240 C1224 0.931 . S
H1241 C1229 0.930 . S
H1242 C1230 0.956 . S
H1243 C1230 0.961 . S
H1244 C1230 0.961 . S
H1245 C1231 0.958 . S
H1246 C1231 0.961 . S
H1247 C1231 0.960 . S
C1248 C1249 1.391 . S
C1248 C1250 1.394 . S
C1248 H1264 0.931 . S
C1249 C1248 1.391 . S
C1249 C1253 1.376 . S
C1250 C1248 1.394 . S
C1250 C1251 1.369 . S
C1250 C1254 1.531 1_655 S
C1251 C1250 1.369 . S
C1251 C1252 1.410 . S
C1251 C1259 1.503 1_655 S
C1252 C1251 1.410 . S
C1252 C1253 1.392 . S
C1252 C1255 1.511 . S
C1253 C1249 1.376 . S
C1253 C1252 1.392 . S
C1253 H1265 0.929 . S
C1254 C1250 1.531 1_455 S
C1254 H1266 0.960 . S
C1254 H1267 0.962 . S
C1254 H1268 0.960 . S
C1255 C1252 1.511 . S
C1255 H1269 0.961 . S
C1255 H1270 0.961 . S
C1255 H1271 0.961 . S
C1256 C1257 1.370 . S
C1256 C1258 1.363 . S
C1256 H1272 0.931 . S
C1257 C1256 1.370 . S
C1257 C1261 1.408 . S
C1258 C1256 1.363 . S
C1258 C1259 1.370 . S
C1258 C1262 1.524 . S
C1259 C1251 1.503 1_455 S
C1259 C1258 1.370 . S
C1259 C1260 1.403 . S
C1260 C1259 1.403 . S
C1260 C1261 1.404 . S
C1260 C1263 1.539 . S
C1261 C1257 1.408 . S
C1261 C1260 1.404 . S
C1261 H1273 0.930 . S
C1262 C1258 1.524 . S
C1262 H1274 0.956 . S
C1262 H1275 0.961 1_455 S
C1262 H1276 0.961 . S
C1263 C1260 1.539 . S
C1263 H1277 0.958 . S
C1263 H1278 0.961 . S
C1263 H1279 0.960 1_455 S
H1264 C1248 0.931 . S
H1265 C1253 0.929 . S
H1266 C1254 0.960 . S
H1267 C1254 0.962 . S
H1268 C1254 0.960 . S
H1269 C1255 0.961 . S
H1270 C1255 0.961 . S
H1271 C1255 0.961 . S
H1272 C1256 0.931 . S
H1273 C1261 0.930 . S
H1274 C1262 0.956 . S
H1275 C1262 0.961 1_655 S
H1276 C1262 0.961 . S
H1277 C1263 0.958 . S
H1278 C1263 0.961 . S
H1279 C1263 0.960 1_655 S
C1280 C1281 1.391 . S
C1280 C1282 1.394 . S
C1280 H1296 0.931 . S
C1281 C1280 1.391 . S
C1281 C1285 1.376 . S
C1282 C1280 1.394 . S
C1282 C1283 1.369 . S
C1282 C1286 1.531 . S
C1283 C1282 1.369 . S
C1283 C1284 1.411 . S
C1283 C1291 1.503 1_565 S
C1284 C1283 1.411 . S
C1284 C1285 1.398 . S
C1284 C1287 1.504 1_565 S
C1285 C1281 1.376 . S
C1285 C1284 1.398 . S
C1285 H1297 0.929 . S
C1286 C1282 1.531 . S
C1286 H1298 0.960 . S
C1286 H1299 0.962 . S
C1286 H1300 0.960 . S
C1287 C1284 1.504 1_545 S
C1287 H1301 0.961 . S
C1287 H1302 0.961 . S
C1287 H1303 0.961 . S
C1288 C1289 1.370 . S
C1288 C1290 1.363 . S
C1288 H1304 0.931 . S
C1289 C1288 1.370 . S
C1289 C1293 1.408 . S
C1290 C1288 1.363 . S
C1290 C1291 1.370 . S
C1290 C1294 1.524 1_545 S
C1291 C1283 1.503 1_545 S
C1291 C1290 1.370 . S
C1291 C1292 1.403 . S
C1292 C1291 1.403 . S
C1292 C1293 1.404 . S
C1292 C1295 1.539 . S
C1293 C1289 1.408 . S
C1293 C1292 1.404 . S
C1293 H1305 0.930 . S
C1294 C1290 1.524 1_565 S
C1294 H1306 0.956 . S
C1294 H1307 0.961 . S
C1294 H1308 0.961 . S
C1295 C1292 1.539 . S
C1295 H1309 0.958 . S
C1295 H1310 0.961 . S
C1295 H1311 0.960 . S
H1296 C1280 0.931 . S
H1297 C1285 0.929 . S
H1298 C1286 0.960 . S
H1299 C1286 0.962 . S
H1300 C1286 0.960 . S
H1301 C1287 0.961 . S
H1302 C1287 0.961 . S
H1303 C1287 0.961 . S
H1304 C1288 0.931 . S
H1305 C1293 0.930 . S
H1306 C1294 0.956 . S
H1307 C1294 0.961 . S
H1308 C1294 0.961 . S
H1309 C1295 0.958 . S
H1310 C1295 0.961 . S
H1311 C1295 0.960 . S
C1312 C1313 1.384 1_554 S
C1312 C1314 1.394 . S
C1312 H1328 0.931 . S
C1313 C1312 1.384 1_556 S
C1313 C1317 1.381 . S
C1314 C1312 1.394 . S
C1314 C1315 1.369 . S
C1314 C1318 1.531 1_455 S
C1315 C1314 1.369 . S
C1315 C1316 1.398 1_564 S
C1315 C1323 1.503 1_465 S
C1316 C1315 1.398 1_546 S
C1316 C1317 1.365 1_545 S
C1316 C1319 1.550 . S
C1317 C1313 1.381 . S
C1317 C1316 1.365 1_565 S
C1317 H1329 0.929 . S
C1318 C1314 1.531 1_655 S
C1318 H1330 0.960 . S
C1318 H1331 0.962 . S
C1318 H1332 0.960 . S
C1319 C1316 1.550 . S
C1319 H1333 0.961 . S
C1319 H1334 0.961 . S
C1319 H1335 0.961 . S
C1320 C1321 1.370 1_556 S
C1320 C1322 1.363 . S
C1320 H1336 0.931 . S
C1321 C1320 1.370 1_554 S
C1321 C1325 1.408 . S
C1322 C1320 1.363 . S
C1322 C1323 1.370 1_556 S
C1322 C1326 1.524 1_545 S
C1323 C1315 1.503 1_645 S
C1323 C1322 1.370 1_554 S
C1323 C1324 1.403 . S
C1324 C1323 1.403 . S
C1324 C1325 1.404 . S
C1324 C1327 1.539 1_655 S
C1325 C1321 1.408 . S
C1325 C1324 1.404 . S
C1325 H1337 0.930 . S
C1326 C1322 1.524 1_565 S
C1326 H1338 0.956 . S
C1326 H1339 0.961 . S
C1326 H1340 0.961 . S
C1327 C1324 1.539 1_455 S
C1327 H1341 0.957 1_455 S
C1327 H1342 0.961 . S
C1327 H1343 0.960 . S
H1328 C1312 0.931 . S
H1329 C1317 0.929 . S
H1330 C1318 0.960 . S
H1331 C1318 0.962 . S
H1332 C1318 0.960 . S
H1333 C1319 0.961 . S
H1334 C1319 0.961 . S
H1335 C1319 0.961 . S
H1336 C1320 0.931 . S
H1337 C1325 0.930 . S
H1338 C1326 0.956 . S
H1339 C1326 0.961 . S
H1340 C1326 0.961 . S
H1341 C1327 0.957 1_655 S
H1342 C1327 0.961 . S
H1343 C1327 0.960 . S
C1344 C1345 1.391 . S
C1344 C1346 1.394 . S
C1344 H1360 0.931 . S
C1345 C1344 1.391 . S
C1345 C1349 1.376 1_554 S
C1346 C1344 1.394 . S
C1346 C1347 1.370 . S
C1346 C1350 1.531 . S
C1347 C1346 1.370 . S
C1347 C1348 1.408 1_554 S
C1347 C1355 1.502 1_554 S
C1348 C1347 1.408 1_556 S
C1348 C1349 1.392 . S
C1348 C1351 1.511 . S
C1349 C1345 1.376 1_556 S
C1349 C1348 1.392 . S
C1349 H1361 0.929 . S
C1350 C1346 1.531 . S
C1350 H1362 0.960 . S
C1350 H1363 0.962 . S
C1350 H1364 0.960 . S
C1351 C1348 1.511 . S
C1351 H1365 0.961 . S
C1351 H1366 0.961 . S
C1351 H1367 0.961 . S
C1352 C1353 1.364 1_554 S
C1352 C1354 1.365 . S
C1352 H1368 0.939 . S
C1353 C1352 1.364 1_556 S
C1353 C1357 1.408 . S
C1354 C1352 1.365 . S
C1354 C1355 1.367 1_554 S
C1354 C1358 1.524 . S
C1355 C1347 1.502 1_556 S
C1355 C1354 1.367 1_556 S
C1355 C1356 1.408 . S
C1356 C1355 1.408 . S
C1356 C1357 1.404 . S
C1356 C1359 1.539 . S
C1357 C1353 1.408 . S
C1357 C1356 1.404 . S
C1357 H1369 0.930 . S
C1358 C1354 1.524 . S
C1358 H1370 0.956 . S
C1358 H1371 0.961 1_554 S
C1358 H1372 0.961 . S
C1359 C1356 1.539 . S
C1359 H1373 0.958 1_556 S
C1359 H1374 0.961 . S
C1359 H1375 0.960 . S
H1360 C1344 0.931 . S
H1361 C1349 0.929 . S
H1362 C1350 0.960 . S
H1363 C1350 0.962 . S
H1364 C1350 0.960 . S
H1365 C1351 0.961 . S
H1366 C1351 0.961 . S
H1367 C1351 0.961 . S
H1368 C1352 0.939 . S
H1369 C1357 0.930 . S
H1370 C1358 0.956 . S
H1371 C1358 0.961 1_556 S
H1372 C1358 0.961 . S
H1373 C1359 0.958 1_554 S
H1374 C1359 0.961 . S
H1375 C1359 0.960 . S
C1376 C1377 1.391 . S
C1376 C1378 1.394 . S
C1376 H1392 0.931 . S
C1377 C1376 1.391 . S
C1377 C1381 1.376 . S
C1378 C1376 1.394 . S
C1378 C1379 1.369 . S
C1378 C1382 1.531 . S
C1379 C1378 1.369 . S
C1379 C1380 1.410 . S
C1379 C1387 1.503 1_655 S
C1380 C1379 1.410 . S
C1380 C1381 1.392 . S
C1380 C1383 1.511 . S
C1381 C1377 1.376 . S
C1381 C1380 1.392 . S
C1381 H1393 0.929 . S
C1382 C1378 1.531 . S
C1382 H1394 0.961 1_655 S
C1382 H1395 0.962 1_655 S
C1382 H1396 0.960 . S
C1383 C1380 1.511 . S
C1383 H1397 0.961 . S
C1383 H1398 0.961 . S
C1383 H1399 0.961 . S
C1384 C1385 1.370 . S
C1384 C1386 1.363 . S
C1384 H1400 0.931 . S
C1385 C1384 1.370 . S
C1385 C1389 1.408 . S
C1386 C1384 1.363 . S
C1386 C1387 1.370 . S
C1386 C1390 1.524 . S
C1387 C1379 1.503 1_455 S
C1387 C1386 1.370 . S
C1387 C1388 1.403 . S
C1388 C1387 1.403 . S
C1388 C1389 1.404 . S
C1388 C1391 1.539 1_455 S
C1389 C1385 1.408 . S
C1389 C1388 1.404 . S
C1389 H1401 0.930 . S
C1390 C1386 1.524 . S
C1390 H1402 0.956 . S
C1390 H1403 0.961 . S
C1390 H1404 0.961 . S
C1391 C1388 1.539 1_655 S
C1391 H1405 0.958 . S
C1391 H1406 0.961 . S
C1391 H1407 0.960 . S
H1392 C1376 0.931 . S
H1393 C1381 0.929 . S
H1394 C1382 0.961 1_455 S
H1395 C1382 0.962 1_455 S
H1396 C1382 0.960 . S
H1397 C1383 0.961 . S
H1398 C1383 0.961 . S
H1399 C1383 0.961 . S
H1400 C1384 0.931 . S
H1401 C1389 0.930 . S
H1402 C1390 0.956 . S
H1403 C1390 0.961 . S
H1404 C1390 0.961 . S
H1405 C1391 0.958 . S
H1406 C1391 0.961 . S
H1407 C1391 0.960 . S
C1408 C1409 1.391 . S
C1408 C1410 1.394 . S
C1408 H1424 0.931 . S
C1409 C1408 1.391 . S
C1409 C1413 1.376 . S
C1410 C1408 1.394 . S
C1410 C1411 1.369 . S
C1410 C1414 1.531 1_565 S
C1411 C1410 1.369 . S
C1411 C1412 1.410 . S
C1411 C1419 1.503 1_565 S
C1412 C1411 1.410 . S
C1412 C1413 1.392 . S
C1412 C1415 1.511 . S
C1413 C1409 1.376 . S
C1413 C1412 1.392 . S
C1413 H1425 0.929 . S
C1414 C1410 1.531 1_545 S
C1414 H1426 0.960 . S
C1414 H1427 0.962 . S
C1414 H1428 0.960 . S
C1415 C1412 1.511 . S
C1415 H1429 0.961 . S
C1415 H1430 0.961 . S
C1415 H1431 0.961 . S
C1416 C1417 1.370 . S
C1416 C1418 1.363 . S
C1416 H1432 0.931 . S
C1417 C1416 1.370 . S
C1417 C1421 1.408 . S
C1418 C1416 1.363 . S
C1418 C1419 1.370 . S
C1418 C1422 1.524 . S
C1419 C1411 1.503 1_545 S
C1419 C1418 1.370 . S
C1419 C1420 1.403 . S
C1420 C1419 1.403 . S
C1420 C1421 1.404 . S
C1420 C1423 1.539 1_545 S
C1421 C1417 1.408 . S
C1421 C1420 1.404 . S
C1421 H1433 0.930 . S
C1422 C1418 1.524 . S
C1422 H1434 0.956 . S
C1422 H1435 1.021 . S
C1422 H1436 0.961 . S
C1423 C1420 1.539 1_565 S
C1423 H1437 0.958 1_565 S
C1423 H1438 0.961 . S
C1423 H1439 0.960 . S
H1424 C1408 0.931 . S
H1425 C1413 0.929 . S
H1426 C1414 0.960 . S
H1427 C1414 0.962 . S
H1428 C1414 0.960 . S
H1429 C1415 0.961 . S
H1430 C1415 0.961 . S
H1431 C1415 0.961 . S
H1432 C1416 0.931 . S
H1433 C1421 0.930 . S
H1434 C1422 0.956 . S
H1435 C1422 1.021 . S
H1436 C1422 0.961 . S
H1437 C1423 0.958 1_545 S
H1438 C1423 0.961 . S
H1439 C1423 0.960 . S
C1440 C1441 1.391 . S
C1440 C1442 1.394 . S
C1440 H1456 0.931 . S
C1441 C1440 1.391 . S
C1441 C1445 1.376 1_556 S
C1442 C1440 1.394 . S
C1442 C1443 1.369 . S
C1442 C1446 1.531 . S
C1443 C1442 1.369 . S
C1443 C1444 1.410 1_556 S
C1443 C1451 1.503 1_556 S
C1444 C1443 1.410 1_554 S
C1444 C1445 1.392 . S
C1444 C1447 1.511 . S
C1445 C1441 1.376 1_554 S
C1445 C1444 1.392 . S
C1445 H1457 0.929 . S
C1446 C1442 1.531 . S
C1446 H1458 0.960 . S
C1446 H1459 0.962 . S
C1446 H1460 0.960 . S
C1447 C1444 1.511 . S
C1447 H1461 0.961 . S
C1447 H1462 0.961 . S
C1447 H1463 0.961 . S
C1448 C1449 1.370 . S
C1448 C1450 1.363 . S
C1448 H1464 0.931 . S
C1449 C1448 1.370 . S
C1449 C1453 1.410 . S
C1450 C1448 1.363 . S
C1450 C1451 1.370 . S
C1450 C1454 1.524 . S
C1451 C1443 1.503 1_554 S
C1451 C1450 1.370 . S
C1451 C1452 1.402 1_554 S
C1452 C1451 1.402 1_556 S
C1452 C1453 1.402 1_556 S
C1452 C1455 1.539 . S
C1453 C1449 1.410 . S
C1453 C1452 1.402 1_554 S
C1453 H1465 0.930 . S
C1454 C1450 1.524 . S
C1454 H1466 0.956 1_554 S
C1454 H1467 0.961 . S
C1454 H1468 0.961 . S
C1455 C1452 1.539 . S
C1455 H1469 1.005 . S
C1455 H1470 0.937 1_556 S
C1455 H1471 0.939 1_556 S
H1456 C1440 0.931 . S
H1457 C1445 0.929 . S
H1458 C1446 0.960 . S
H1459 C1446 0.962 . S
H1460 C1446 0.960 . S
H1461 C1447 0.961 . S
H1462 C1447 0.961 . S
H1463 C1447 0.961 . S
H1464 C1448 0.931 . S
H1465 C1453 0.930 . S
H1466 C1454 0.956 1_556 S
H1467 C1454 0.961 . S
H1468 C1454 0.961 . S
H1469 C1455 1.005 . S
H1470 C1455 0.937 1_554 S
H1471 C1455 0.939 1_554 S
C1472 C1473 1.391 . S
C1472 C1474 1.394 . S
C1472 H1488 0.931 . S
C1473 C1472 1.391 . S
C1473 C1477 1.376 . S
C1474 C1472 1.394 . S
C1474 C1475 1.369 . S
C1474 C1478 1.531 . S
C1475 C1474 1.369 . S
C1475 C1476 1.410 . S
C1475 C1483 1.503 . S
C1476 C1475 1.410 . S
C1476 C1477 1.392 . S
C1476 C1479 1.511 . S
C1477 C1473 1.376 . S
C1477 C1476 1.392 . S
C1477 H1489 0.929 . S
C1478 C1474 1.531 . S
C1478 H1490 0.960 . S
C1478 H1491 0.962 . S
C1478 H1492 0.960 . S
C1479 C1476 1.511 . S
C1479 H1493 0.961 . S
C1479 H1494 0.961 . S
C1479 H1495 0.961 . S
C1480 C1481 1.370 . S
C1480 C1482 1.363 . S
C1480 H1496 0.931 . S
C1481 C1480 1.370 . S
C1481 C1485 1.408 . S
C1482 C1480 1.363 . S
C1482 C1483 1.370 . S
C1482 C1486 1.524 . S
C1483 C1475 1.503 . S
C1483 C1482 1.370 . S
C1483 C1484 1.403 . S
C1484 C1483 1.403 . S
C1484 C1485 1.404 . S
C1484 C1487 1.539 . S
C1485 C1481 1.408 . S
C1485 C1484 1.404 . S
C1485 H1497 0.930 . S
C1486 C1482 1.524 . S
C1486 H1498 0.956 . S
C1486 H1499 0.961 . S
C1486 H1500 0.961 . S
C1487 C1484 1.539 . S
C1487 H1501 0.958 . S
C1487 H1502 0.961 . S
C1487 H1503 0.960 . S
H1488 C1472 0.931 . S
H1489 C1477 0.929 . S
H1490 C1478 0.960 . S
H1491 C1478 0.962 . S
H1492 C1478 0.960 . S
H1493 C1479 0.961 . S
H1494 C1479 0.961 . S
H1495 C1479 0.961 . S
H1496 C1480 0.931 . S
H1497 C1485 0.930 . S
H1498 C1486 0.956 . S
H1499 C1486 0.961 . S
H1500 C1486 0.961 . S
H1501 C1487 0.958 . S
H1502 C1487 0.961 . S
H1503 C1487 0.960 . S
C1504 C1505 1.391 . S
C1504 C1506 1.394 . S
C1504 H1520 0.931 . S
C1505 C1504 1.391 . S
C1505 C1509 1.376 . S
C1506 C1504 1.394 . S
C1506 C1507 1.369 . S
C1506 C1510 1.531 . S
C1507 C1506 1.369 . S
C1507 C1508 1.410 . S
C1507 C1515 1.503 1_655 S
C1508 C1507 1.410 . S
C1508 C1509 1.392 . S
C1508 C1511 1.511 1_655 S
C1509 C1505 1.376 . S
C1509 C1508 1.392 . S
C1509 H1521 0.929 . S
C1510 C1506 1.531 . S
C1510 H1522 0.960 . S
C1510 H1523 0.962 . S
C1510 H1524 0.960 . S
C1511 C1508 1.511 1_455 S
C1511 H1525 0.961 . S
C1511 H1526 0.961 . S
C1511 H1527 0.961 . S
C1512 C1513 1.370 . S
C1512 C1514 1.363 . S
C1512 H1528 0.931 . S
C1513 C1512 1.370 . S
C1513 C1517 1.408 . S
C1514 C1512 1.363 . S
C1514 C1515 1.370 . S
C1514 C1518 1.524 1_455 S
C1515 C1507 1.503 1_455 S
C1515 C1514 1.370 . S
C1515 C1516 1.403 . S
C1516 C1515 1.403 . S
C1516 C1517 1.404 . S
C1516 C1519 1.539 . S
C1517 C1513 1.408 . S
C1517 C1516 1.404 . S
C1517 H1529 0.930 . S
C1518 C1514 1.524 1_655 S
C1518 H1530 0.956 . S
C1518 H1531 0.961 . S
C1518 H1532 0.961 . S
C1519 C1516 1.539 . S
C1519 H1533 0.958 . S
C1519 H1534 0.961 . S
C1519 H1535 0.960 . S
H1520 C1504 0.931 . S
H1521 C1509 0.929 . S
H1522 C1510 0.960 . S
H1523 C1510 0.962 . S
H1524 C1510 0.960 . S
H1525 C1511 0.961 . S
H1526 C1511 0.961 . S
H1527 C1511 0.961 . S
H1528 C1512 0.931 . S
H1529 C1517 0.930 . S
H1530 C1518 0.956 . S
H1531 C1518 0.961 . S
H1532 C1518 0.961 . S
H1533 C1519 0.958 . S
H1534 C1519 0.961 . S
H1535 C1519 0.960 . S
C1536 C1537 1.391 . S
C1536 C1538 1.394 . S
C1536 H1552 0.931 . S
C1537 C1536 1.391 . S
C1537 C1541 1.376 . S
C1538 C1536 1.394 . S
C1538 C1539 1.369 . S
C1538 C1542 1.531 . S
C1539 C1538 1.369 . S
C1539 C1540 1.410 . S
C1539 C1547 1.503 . S
C1540 C1539 1.410 . S
C1540 C1541 1.392 . S
C1540 C1543 1.511 . S
C1541 C1537 1.376 . S
C1541 C1540 1.392 . S
C1541 H1553 0.929 . S
C1542 C1538 1.531 . S
C1542 H1554 0.960 . S
C1542 H1555 0.962 . S
C1542 H1556 0.960 . S
C1543 C1540 1.511 . S
C1543 H1557 0.961 . S
C1543 H1558 0.961 . S
C1543 H1559 0.961 . S
C1544 C1545 1.370 . S
C1544 C1546 1.363 . S
C1544 H1560 0.931 . S
C1545 C1544 1.370 . S
C1545 C1549 1.408 . S
C1546 C1544 1.363 . S
C1546 C1547 1.370 . S
C1546 C1550 1.524 . S
C1547 C1539 1.503 . S
C1547 C1546 1.370 . S
C1547 C1548 1.403 . S
C1548 C1547 1.403 . S
C1548 C1549 1.404 . S
C1548 C1551 1.539 . S
C1549 C1545 1.408 . S
C1549 C1548 1.404 . S
C1549 H1561 0.930 . S
C1550 C1546 1.524 . S
C1550 H1562 0.956 . S
C1550 H1563 0.961 . S
C1550 H1564 0.961 . S
C1551 C1548 1.539 . S
C1551 H1565 0.958 . S
C1551 H1566 0.961 . S
C1551 H1567 0.960 . S
H1552 C1536 0.931 . S
H1553 C1541 0.929 . S
H1554 C1542 0.960 . S
H1555 C1542 0.962 . S
H1556 C1542 0.960 . S
H1557 C1543 0.961 . S
H1558 C1543 0.961 . S
H1559 C1543 0.961 . S
H1560 C1544 0.931 . S
H1561 C1549 0.930 . S
H1562 C1550 0.956 . S
H1563 C1550 0.961 . S
H1564 C1550 0.961 . S
H1565 C1551 0.958 . S
H1566 C1551 0.961 . S
H1567 C1551 0.960 . S
C1568 C1569 1.391 . S
C1568 C1570 1.394 . S
C1568 H1584 0.931 . S
C1569 C1568 1.391 . S
C1569 C1573 1.376 . S
C1570 C1568 1.394 . S
C1570 C1571 1.369 . S
C1570 C1574 1.531 . S
C1571 C1570 1.369 . S
C1571 C1572 1.410 . S
C1571 C1579 1.503 . S
C1572 C1571 1.410 . S
C1572 C1573 1.392 . S
C1572 C1575 1.511 . S
C1573 C1569 1.376 . S
C1573 C1572 1.392 . S
C1573 H1585 0.929 . S
C1574 C1570 1.531 . S
C1574 H1586 0.960 . S
C1574 H1587 0.962 . S
C1574 H1588 0.960 . S
C1575 C1572 1.511 . S
C1575 H1589 0.961 . S
C1575 H1590 0.961 . S
C1575 H1591 0.961 . S
C1576 C1577 1.370 . S
C1576 C1578 1.363 . S
C1576 H1592 0.931 . S
C1577 C1576 1.370 . S
C1577 C1581 1.408 . S
C1578 C1576 1.363 . S
C1578 C1579 1.370 . S
C1578 C1582 1.524 . S
C1579 C1571 1.503 . S
C1579 C1578 1.370 . S
C1579 C1580 1.403 . S
C1580 C1579 1.403 . S
C1580 C1581 1.404 . S
C1580 C1583 1.539 . S
C1581 C1577 1.408 . S
C1581 C1580 1.404 . S
C1581 H1593 0.930 . S
C1582 C1578 1.524 . S
C1582 H1594 0.956 . S
C1582 H1595 0.961 . S
C1582 H1596 0.961 . S
C1583 C1580 1.539 . S
C1583 H1597 0.958 . S
C1583 H1598 0.961 . S
C1583 H1599 0.960 . S
H1584 C1568 0.931 . S
H1585 C1573 0.929 . S
H1586 C1574 0.960 . S
H1587 C1574 0.962 . S
H1588 C1574 0.960 . S
H1589 C1575 0.961 . S
H1590 C1575 0.961 . S
H1591 C1575 0.961 . S
H1592 C1576 0.931 . S
H1593 C1581 0.930 . S
H1594 C1582 0.956 . S
H1595 C1582 0.961 . S
H1596 C1582 0.961 . S
H1597 C1583 0.958 . S
H1598 C1583 0.961 . S
H1599 C1583 0.960 . S
C1600 C1601 1.391 . S
C1600 C1602 1.394 . S
C1600 H1616 0.931 . S
C1601 C1600 1.391 . S
C1601 C1605 1.376 . S
C1602 C1600 1.394 . S
C1602 C1603 1.369 . S
C1602 C1606 1.531 . S
C1603 C1602 1.369 . S
C1603 C1604 1.410 . S
C1603 C1611 1.503 . S
C1604 C1603 1.410 . S
C1604 C1605 1.392 . S
C1604 C1607 1.511 . S
C1605 C1601 1.376 . S
C1605 C1604 1.392 . S
C1605 H1617 0.929 . S
C1606 C1602 1.531 . S
C1606 H1618 0.960 . S
C1606 H1619 0.962 . S
C1606 H1620 0.960 . S
C1607 C1604 1.511 . S
C1607 H1621 0.961 . S
C1607 H1622 0.961 . S
C1607 H1623 0.961 . S
C1608 C1609 1.370 . S
C1608 C1610 1.363 . S
C1608 H1624 0.931 . S
C1609 C1608 1.370 . S
C1609 C1613 1.408 . S
C1610 C1608 1.363 . S
C1610 C1611 1.370 . S
C1610 C1614 1.524 . S
C1611 C1603 1.503 . S
C1611 C1610 1.370 . S
C1611 C1612 1.403 . S
C1612 C1611 1.403 . S
C1612 C1613 1.404 . S
C1612 C1615 1.539 . S
C1613 C1609 1.408 . S
C1613 C1612 1.404 . S
C1613 H1625 0.930 . S
C1614 C1610 1.524 . S
C1614 H1626 0.956 . S
C1614 H1627 0.961 . S
C1614 H1628 0.961 . S
C1615 C1612 1.539 . S
C1615 H1629 0.958 . S
C1615 H1630 0.961 . S
C1615 H1631 0.960 . S
H1616 C1600 0.931 . S
H1617 C1605 0.929 . S
H1618 C1606 0.960 . S
H1619 C1606 0.962 . S
H1620 C1606 0.960 . S
H1621 C1607 0.961 . S
H1622 C1607 0.961 . S
H1623 C1607 0.961 . S
H1624 C1608 0.931 . S
H1625 C1613 0.930 . S
H1626 C1614 0.956 . S
H1627 C1614 0.961 . S
H1628 C1614 0.961 . S
H1629 C1615 0.958 . S
H1630 C1615 0.961 . S
H1631 C1615 0.960 . S
C1632 C1633 1.391 . S
C1632 C1634 1.394 . S
C1632 H1648 0.931 . S
C1633 C1632 1.391 . S
C1633 C1637 1.376 . S
C1634 C1632 1.394 . S
C1634 C1635 1.369 . S
C1634 C1638 1.531 . S
C1635 C1634 1.369 . S
C1635 C1636 1.410 . S
C1635 C1643 1.503 . S
C1636 C1635 1.410 . S
C1636 C1637 1.392 . S
C1636 C1639 1.511 . S
C1637 C1633 1.376 . S
C1637 C1636 1.392 . S
C1637 H1649 0.929 . S
C1638 C1634 1.531 . S
C1638 H1650 0.960 . S
C1638 H1651 0.962 . S
C1638 H1652 0.960 . S
C1639 C1636 1.511 . S
C1639 H1653 0.961 . S
C1639 H1654 0.961 . S
C1639 H1655 0.961 . S
C1640 C1641 1.370 . S
C1640 C1642 1.363 . S
C1640 H1656 0.931 . S
C1641 C1640 1.370 . S
C1641 C1645 1.408 . S
C1642 C1640 1.363 . S
C1642 C1643 1.370 . S
C1642 C1646 1.524 . S
C1643 C1635 1.503 . S
C1643 C1642 1.370 . S
C1643 C1644 1.403 . S
C1644 C1643 1.403 . S
C1644 C1645 1.404 . S
C1644 C1647 1.539 . S
C1645 C1641 1.408 . S
C1645 C1644 1.404 . S
C1645 H1657 0.930 . S
C1646 C1642 1.524 . S
C1646 H1658 0.956 . S
C1646 H1659 0.961 . S
C1646 H1660 0.961 . S
C1647 C1644 1.539 . S
C1647 H1661 0.958 . S
C1647 H1662 0.961 . S
C1647 H1663 0.960 . S
H1648 C1632 0.931 . S
H1649 C1637 0.929 . S
H1650 C1638 0.960 . S
H1651 C1638 0.962 . S
H1652 C1638 0.960 . S
H1653 C1639 0.961 . S
H1654 C1639 0.961 . S
H1655 C1639 0.961 . S
H1656 C1640 0.931 . S
H1657 C1645 0.930 . S
H1658 C1646 0.956 . S
H1659 C1646 0.961 . S
H1660 C1646 0.961 . S
H1661 C1647 0.958 . S
H1662 C1647 0.961 . S
H1663 C1647 0.960 . S
C1664 C1665 1.391 . S
C1664 C1666 1.394 . S
C1664 H1680 0.931 . S
C1665 C1664 1.391 . S
C1665 C1669 1.376 . S
C1666 C1664 1.394 . S
C1666 C1667 1.369 . S
C1666 C1670 1.531 1_545 S
C1667 C1666 1.369 . S
C1667 C1668 1.410 . S
C1667 C1675 1.503 1_545 S
C1668 C1667 1.410 . S
C1668 C1669 1.392 . S
C1668 C1671 1.511 . S
C1669 C1665 1.376 . S
C1669 C1668 1.392 . S
C1669 H1681 0.929 . S
C1670 C1666 1.531 1_565 S
C1670 H1682 0.960 . S
C1670 H1683 0.962 . S
C1670 H1684 0.960 . S
C1671 C1668 1.511 . S
C1671 H1685 0.961 . S
C1671 H1686 0.961 . S
C1671 H1687 0.961 . S
C1672 C1673 1.370 . S
C1672 C1674 1.363 . S
C1672 H1688 0.931 . S
C1673 C1672 1.370 . S
C1673 C1677 1.408 . S
C1674 C1672 1.363 . S
C1674 C1675 1.370 . S
C1674 C1678 1.524 1_565 S
C1675 C1667 1.503 1_565 S
C1675 C1674 1.370 . S
C1675 C1676 1.403 . S
C1676 C1675 1.403 . S
C1676 C1677 1.404 . S
C1676 C1679 1.539 . S
C1677 C1673 1.408 . S
C1677 C1676 1.404 . S
C1677 H1689 0.930 . S
C1678 C1674 1.524 1_545 S
C1678 H1690 0.956 . S
C1678 H1691 0.961 . S
C1678 H1692 0.961 . S
C1679 C1676 1.539 . S
C1679 H1693 0.958 . S
C1679 H1694 0.961 . S
C1679 H1695 0.960 . S
H1680 C1664 0.931 . S
H1681 C1669 0.929 . S
H1682 C1670 0.960 . S
H1683 C1670 0.962 . S
H1684 C1670 0.960 . S
H1685 C1671 0.961 . S
H1686 C1671 0.961 . S
H1687 C1671 0.961 . S
H1688 C1672 0.931 . S
H1689 C1677 0.930 . S
H1690 C1678 0.956 . S
H1691 C1678 0.961 . S
H1692 C1678 0.961 . S
H1693 C1679 0.958 . S
H1694 C1679 0.961 . S
H1695 C1679 0.960 . S
C1696 C1697 1.391 . S
C1696 C1698 1.394 . S
C1696 H1712 0.931 . S
C1697 C1696 1.391 . S
C1697 C1701 1.376 . S
C1698 C1696 1.394 . S
C1698 C1699 1.369 . S
C1698 C1702 1.531 . S
C1699 C1698 1.369 . S
C1699 C1700 1.410 . S
C1699 C1707 1.503 . S
C1700 C1699 1.410 . S
C1700 C1701 1.392 . S
C1700 C1703 1.511 . S
C1701 C1697 1.376 . S
C1701 C1700 1.392 . S
C1701 H1713 0.929 . S
C1702 C1698 1.531 . S
C1702 H1714 0.960 . S
C1702 H1715 0.962 . S
C1702 H1716 0.960 . S
C1703 C1700 1.511 . S
C1703 H1717 0.961 . S
C1703 H1718 0.961 . S
C1703 H1719 0.961 . S
C1704 C1705 1.370 . S
C1704 C1706 1.363 . S
C1704 H1720 0.931 . S
C1705 C1704 1.370 . S
C1705 C1709 1.408 . S
C1706 C1704 1.363 . S
C1706 C1707 1.370 . S
C1706 C1710 1.524 . S
C1707 C1699 1.503 . S
C1707 C1706 1.370 . S
C1707 C1708 1.403 . S
C1708 C1707 1.403 . S
C1708 C1709 1.404 . S
C1708 C1711 1.539 . S
C1709 C1705 1.408 . S
C1709 C1708 1.404 . S
C1709 H1721 0.930 . S
C1710 C1706 1.524 . S
C1710 H1722 0.956 . S
C1710 H1723 0.961 . S
C1710 H1724 0.961 . S
C1711 C1708 1.539 . S
C1711 H1725 0.958 . S
C1711 H1726 0.961 . S
C1711 H1727 0.960 . S
H1712 C1696 0.931 . S
H1713 C1701 0.929 . S
H1714 C1702 0.960 . S
H1715 C1702 0.962 . S
H1716 C1702 0.960 . S
H1717 C1703 0.961 . S
H1718 C1703 0.961 . S
H1719 C1703 0.961 . S
H1720 C1704 0.931 . S
H1721 C1709 0.930 . S
H1722 C1710 0.956 . S
H1723 C1710 0.961 . S
H1724 C1710 0.961 . S
H1725 C1711 0.958 . S
H1726 C1711 0.961 . S
H1727 C1711 0.960 . S
C1728 C1729 1.391 1_554 S
C1728 C1730 1.394 . S
C1728 H1744 0.931 . S
C1729 C1728 1.391 1_556 S
C1729 C1733 1.375 1_556 S
C1730 C1728 1.394 . S
C1730 C1731 1.369 . S
C1730 C1734 1.531 . S
C1731 C1730 1.369 . S
C1731 C1732 1.410 . S
C1731 C1739 1.503 . S
C1732 C1731 1.410 . S
C1732 C1733 1.395 . S
C1732 C1735 1.511 . S
C1733 C1729 1.375 1_554 S
C1733 C1732 1.395 . S
C1733 H1745 0.925 1_554 S
C1734 C1730 1.531 . S
C1734 H1746 0.960 . S
C1734 H1747 0.962 1_554 S
C1734 H1748 0.960 . S
C1735 C1732 1.511 . S
C1735 H1749 0.961 1_554 S
C1735 H1750 0.961 1_554 S
C1735 H1751 0.961 . S
C1736 C1737 1.370 1_556 S
C1736 C1738 1.363 . S
C1736 H1752 0.931 . S
C1737 C1736 1.370 1_554 S
C1737 C1741 1.408 . S
C1738 C1736 1.363 . S
C1738 C1739 1.370 1_556 S
C1738 C1742 1.524 . S
C1739 C1731 1.503 . S
C1739 C1738 1.370 1_554 S
C1739 C1740 1.403 . S
C1740 C1739 1.403 . S
C1740 C1741 1.404 . S
C1740 C1743 1.539 . S
C1741 C1737 1.408 . S
C1741 C1740 1.404 . S
C1741 H1753 0.930 . S
C1742 C1738 1.524 . S
C1742 H1754 0.956 . S
C1742 H1755 0.961 . S
C1742 H1756 0.961 . S
C1743 C1740 1.539 . S
C1743 H1757 0.958 . S
C1743 H1758 0.961 . S
C1743 H1759 0.960 . S
H1744 C1728 0.931 . S
H1745 C1733 0.925 1_556 S
H1746 C1734 0.960 . S
H1747 C1734 0.962 1_556 S
H1748 C1734 0.960 . S
H1749 C1735 0.961 1_556 S
H1750 C1735 0.961 1_556 S
H1751 C1735 0.961 . S
H1752 C1736 0.931 . S
H1753 C1741 0.930 . S
H1754 C1742 0.956 . S
H1755 C1742 0.961 . S
H1756 C1742 0.961 . S
H1757 C1743 0.958 . S
H1758 C1743 0.961 . S
H1759 C1743 0.960 . S
C1760 C1761 1.391 . S
C1760 C1762 1.394 . S
C1760 H1776 0.931 . S
C1761 C1760 1.391 . S
C1761 C1765 1.376 . S
C1762 C1760 1.394 . S
C1762 C1763 1.369 . S
C1762 C1766 1.531 . S
C1763 C1762 1.369 . S
C1763 C1764 1.410 . S
C1763 C1771 1.503 . S
C1764 C1763 1.410 . S
C1764 C1765 1.392 . S
C1764 C1767 1.511 . S
C1765 C1761 1.376 . S
C1765 C1764 1.392 . S
C1765 H1777 0.929 . S
C1766 C1762 1.531 . S
C1766 H1778 0.960 . S
C1766 H1779 0.962 . S
C1766 H1780 0.960 . S
C1767 C1764 1.511 . S
C1767 H1781 0.961 . S
C1767 H1782 0.961 . S
C1767 H1783 0.961 . S
C1768 C1769 1.370 . S
C1768 C1770 1.363 . S
C1768 H1784 0.931 . S
C1769 C1768 1.370 . S
C1769 C1773 1.408 . S
C1770 C1768 1.363 . S
C1770 C1771 1.370 . S
C1770 C1774 1.524 . S
C1771 C1763 1.503 . S
C1771 C1770 1.370 . S
C1771 C1772 1.403 . S
C1772 C1771 1.403 . S
C1772 C1773 1.404 . S
C1772 C1775 1.539 . S
C1773 C1769 1.408 . S
C1773 C1772 1.404 . S
C1773 H1785 0.930 . S
C1774 C1770 1.524 . S
C1774 H1786 0.956 . S
C1774 H1787 0.961 . S
C1774 H1788 0.961 . S
C1775 C1772 1.539 . S
C1775 H1789 0.958 . S
C1775 H1790 0.961 . S
C1775 H1791 0.960 . S
H1776 C1760 0.931 . S
H1777 C1765 0.929 . S
H1778 C1766 0.960 . S
H1779 C1766 0.962 . S
H1780 C1766 0.960 . S
H1781 C1767 0.961 . S
H1782 C1767 0.961 . S
H1783 C1767 0.961 . S
H1784 C1768 0.931 . S
H1785 C1773 0.930 . S
H1786 C1774 0.956 . S
H1787 C1774 0.961 . S
H1788 C1774 0.961 . S
H1789 C1775 0.958 . S
H1790 C1775 0.961 . S
H1791 C1775 0.960 . S
C1792 C1793 1.391 . S
C1792 C1794 1.394 . S
C1792 H1808 0.931 . S
C1793 C1792 1.391 . S
C1793 C1797 1.376 . S
C1794 C1792 1.394 . S
C1794 C1795 1.369 . S
C1794 C1798 1.531 . S
C1795 C1794 1.369 . S
C1795 C1796 1.410 . S
C1795 C1803 1.503 . S
C1796 C1795 1.410 . S
C1796 C1797 1.392 . S
C1796 C1799 1.511 . S
C1797 C1793 1.376 . S
C1797 C1796 1.392 . S
C1797 H1809 0.929 . S
C1798 C1794 1.531 . S
C1798 H1810 0.960 . S
C1798 H1811 0.962 1_455 S
C1798 H1812 0.960 . S
C1799 C1796 1.511 . S
C1799 H1813 0.961 . S
C1799 H1814 0.961 . S
C1799 H1815 0.961 . S
C1800 C1801 1.370 . S
C1800 C1802 1.363 . S
C1800 H1816 0.931 . S
C1801 C1800 1.370 . S
C1801 C1805 1.408 . S
C1802 C1800 1.363 . S
C1802 C1803 1.370 . S
C1802 C1806 1.524 . S
C1803 C1795 1.503 . S
C1803 C1802 1.370 . S
C1803 C1804 1.403 . S
C1804 C1803 1.403 . S
C1804 C1805 1.404 . S
C1804 C1807 1.539 . S
C1805 C1801 1.408 . S
C1805 C1804 1.404 . S
C1805 H1817 0.930 . S
C1806 C1802 1.524 . S
C1806 H1818 0.956 . S
C1806 H1819 0.961 . S
C1806 H1820 0.961 . S
C1807 C1804 1.539 . S
C1807 H1821 0.958 . S
C1807 H1822 0.961 . S
C1807 H1823 0.960 . S
H1808 C1792 0.931 . S
H1809 C1797 0.929 . S
H1810 C1798 0.960 . S
H1811 C1798 0.962 1_655 S
H1812 C1798 0.960 . S
H1813 C1799 0.961 . S
H1814 C1799 0.961 . S
H1815 C1799 0.961 . S
H1816 C1800 0.931 . S
H1817 C1805 0.930 . S
H1818 C1806 0.956 . S
H1819 C1806 0.961 . S
H1820 C1806 0.961 . S
H1821 C1807 0.958 . S
H1822 C1807 0.961 . S
H1823 C1807 0.960 . S
C1824 C1825 1.391 . S
C1824 C1826 1.394 . S
C1824 H1840 0.931 . S
C1825 C1824 1.391 . S
C1825 C1829 1.376 . S
C1826 C1824 1.394 . S
C1826 C1827 1.369 . S
C1826 C1830 1.531 . S
C1827 C1826 1.369 . S
C1827 C1828 1.410 . S
C1827 C1835 1.503 . S
C1828 C1827 1.410 . S
C1828 C1829 1.392 . S
C1828 C1831 1.511 . S
C1829 C1825 1.376 . S
C1829 C1828 1.392 . S
C1829 H1841 0.929 . S
C1830 C1826 1.531 . S
C1830 H1842 0.960 . S
C1830 H1843 0.962 . S
C1830 H1844 0.960 . S
C1831 C1828 1.511 . S
C1831 H1845 0.961 . S
C1831 H1846 0.961 . S
C1831 H1847 0.961 . S
C1832 C1833 1.370 . S
C1832 C1834 1.363 . S
C1832 H1848 0.931 . S
C1833 C1832 1.370 . S
C1833 C1837 1.408 . S
C1834 C1832 1.363 . S
C1834 C1835 1.370 . S
C1834 C1838 1.524 . S
C1835 C1827 1.503 . S
C1835 C1834 1.370 . S
C1835 C1836 1.403 . S
C1836 C1835 1.403 . S
C1836 C1837 1.404 . S
C1836 C1839 1.539 . S
C1837 C1833 1.408 . S
C1837 C1836 1.404 . S
C1837 H1849 0.930 . S
C1838 C1834 1.524 . S
C1838 H1850 0.956 . S
C1838 H1851 0.961 . S
C1838 H1852 0.961 . S
C1839 C1836 1.539 . S
C1839 H1853 0.958 . S
C1839 H1854 0.961 . S
C1839 H1855 0.960 . S
H1840 C1824 0.931 . S
H1841 C1829 0.929 . S
H1842 C1830 0.960 . S
H1843 C1830 0.962 . S
H1844 C1830 0.960 . S
H1845 C1831 0.961 . S
H1846 C1831 0.961 . S
H1847 C1831 0.961 . S
H1848 C1832 0.931 . S
H1849 C1837 0.930 . S
H1850 C1838 0.956 . S
H1851 C1838 0.961 . S
H1852 C1838 0.961 . S
H1853 C1839 0.958 . S
H1854 C1839 0.961 . S
H1855 C1839 0.960 . S
C1856 C1857 1.391 . S
C1856 C1858 1.394 . S
C1856 H1872 0.931 . S
C1857 C1856 1.391 . S
C1857 C1861 1.376 . S
C1858 C1856 1.394 . S
C1858 C1859 1.369 . S
C1858 C1862 1.531 . S
C1859 C1858 1.369 . S
C1859 C1860 1.410 . S
C1859 C1867 1.503 . S
C1860 C1859 1.410 . S
C1860 C1861 1.392 . S
C1860 C1863 1.511 . S
C1861 C1857 1.376 . S
C1861 C1860 1.392 . S
C1861 H1873 0.929 . S
C1862 C1858 1.531 . S
C1862 H1874 0.960 . S
C1862 H1875 0.962 . S
C1862 H1876 0.960 . S
C1863 C1860 1.511 . S
C1863 H1877 0.961 . S
C1863 H1878 0.961 . S
C1863 H1879 0.961 . S
C1864 C1865 1.370 . S
C1864 C1866 1.363 . S
C1864 H1880 0.931 . S
C1865 C1864 1.370 . S
C1865 C1869 1.408 . S
C1866 C1864 1.363 . S
C1866 C1867 1.370 . S
C1866 C1870 1.524 . S
C1867 C1859 1.503 . S
C1867 C1866 1.370 . S
C1867 C1868 1.403 . S
C1868 C1867 1.403 . S
C1868 C1869 1.404 . S
C1868 C1871 1.539 . S
C1869 C1865 1.408 . S
C1869 C1868 1.404 . S
C1869 H1881 0.930 . S
C1870 C1866 1.524 . S
C1870 H1882 0.956 . S
C1870 H1883 0.961 . S
C1870 H1884 0.961 . S
C1871 C1868 1.539 . S
C1871 H1885 0.958 . S
C1871 H1886 0.961 1_455 S
C1871 H1887 0.960 . S
H1872 C1856 0.931 . S
H1873 C1861 0.929 . S
H1874 C1862 0.960 . S
H1875 C1862 0.962 . S
H1876 C1862 0.960 . S
H1877 C1863 0.961 . S
H1878 C1863 0.961 . S
H1879 C1863 0.961 . S
H1880 C1864 0.931 . S
H1881 C1869 0.930 . S
H1882 C1870 0.956 . S
H1883 C1870 0.961 . S
H1884 C1870 0.961 . S
H1885 C1871 0.958 . S
H1886 C1871 0.961 1_655 S
H1887 C1871 0.960 . S
C1888 C1889 1.391 . S
C1888 C1890 1.394 . S
C1888 H1904 0.931 . S
C1889 C1888 1.391 . S
C1889 C1893 1.376 . S
C1890 C1888 1.394 . S
C1890 C1891 1.369 . S
C1890 C1894 1.531 . S
C1891 C1890 1.369 . S
C1891 C1892 1.410 . S
C1891 C1899 1.503 . S
C1892 C1891 1.410 . S
C1892 C1893 1.392 . S
C1892 C1895 1.511 . S
C1893 C1889 1.376 . S
C1893 C1892 1.392 . S
C1893 H1905 0.929 . S
C1894 C1890 1.531 . S
C1894 H1906 0.960 . S
C1894 H1907 0.962 . S
C1894 H1908 0.960 . S
C1895 C1892 1.511 . S
C1895 H1909 0.961 . S
C1895 H1910 0.961 . S
C1895 H1911 0.961 . S
C1896 C1897 1.370 . S
C1896 C1898 1.363 . S
C1896 H1912 0.931 . S
C1897 C1896 1.370 . S
C1897 C1901 1.408 . S
C1898 C1896 1.363 . S
C1898 C1899 1.370 . S
C1898 C1902 1.524 . S
C1899 C1891 1.503 . S
C1899 C1898 1.370 . S
C1899 C1900 1.403 . S
C1900 C1899 1.403 . S
C1900 C1901 1.404 . S
C1900 C1903 1.539 . S
C1901 C1897 1.408 . S
C1901 C1900 1.404 . S
C1901 H1913 0.930 . S
C1902 C1898 1.524 . S
C1902 H1914 0.956 . S
C1902 H1915 0.961 . S
C1902 H1916 0.961 . S
C1903 C1900 1.539 . S
C1903 H1917 0.958 . S
C1903 H1918 0.961 . S
C1903 H1919 0.960 . S
H1904 C1888 0.931 . S
H1905 C1893 0.929 . S
H1906 C1894 0.960 . S
H1907 C1894 0.962 . S
H1908 C1894 0.960 . S
H1909 C1895 0.961 . S
H1910 C1895 0.961 . S
H1911 C1895 0.961 . S
H1912 C1896 0.931 . S
H1913 C1901 0.930 . S
H1914 C1902 0.956 . S
H1915 C1902 0.961 . S
H1916 C1902 0.961 . S
H1917 C1903 0.958 . S
H1918 C1903 0.961 . S
H1919 C1903 0.960 . S
C1920 C1921 1.391 . S
C1920 C1922 1.394 . S
C1920 H1936 0.931 . S
C1921 C1920 1.391 . S
C1921 C1925 1.376 . S
C1922 C1920 1.394 . S
C1922 C1923 1.369 . S
C1922 C1926 1.531 . S
C1923 C1922 1.369 . S
C1923 C1924 1.410 . S
C1923 C1931 1.503 . S
C1924 C1923 1.410 . S
C1924 C1925 1.392 . S
C1924 C1927 1.511 . S
C1925 C1921 1.376 . S
C1925 C1924 1.392 . S
C1925 H1937 0.929 . S
C1926 C1922 1.531 . S
C1926 H1938 0.960 . S
C1926 H1939 0.962 . S
C1926 H1940 0.960 . S
C1927 C1924 1.511 . S
C1927 H1941 0.961 . S
C1927 H1942 0.961 . S
C1927 H1943 0.961 . S
C1928 C1929 1.370 . S
C1928 C1930 1.363 . S
C1928 H1944 0.931 . S
C1929 C1928 1.370 . S
C1929 C1933 1.408 . S
C1930 C1928 1.363 . S
C1930 C1931 1.370 . S
C1930 C1934 1.524 . S
C1931 C1923 1.503 . S
C1931 C1930 1.370 . S
C1931 C1932 1.403 . S
C1932 C1931 1.403 . S
C1932 C1933 1.404 . S
C1932 C1935 1.539 . S
C1933 C1929 1.408 . S
C1933 C1932 1.404 . S
C1933 H1945 0.930 . S
C1934 C1930 1.524 . S
C1934 H1946 0.956 . S
C1934 H1947 0.961 . S
C1934 H1948 0.961 . S
C1935 C1932 1.539 . S
C1935 H1949 0.958 . S
C1935 H1950 0.961 . S
C1935 H1951 0.960 . S
H1936 C1920 0.931 . S
H1937 C1925 0.929 . S
H1938 C1926 0.960 . S
H1939 C1926 0.962 . S
H1940 C1926 0.960 . S
H1941 C1927 0.961 . S
H1942 C1927 0.961 . S
H1943 C1927 0.961 . S
H1944 C1928 0.931 . S
H1945 C1933 0.930 . S
H1946 C1934 0.956 . S
H1947 C1934 0.961 . S
H1948 C1934 0.961 . S
H1949 C1935 0.958 . S
H1950 C1935 0.961 . S
H1951 C1935 0.960 . S
C1952 C1953 1.391 . S
C1952 C1954 1.394 . S
C1952 H1968 0.931 . S
C1953 C1952 1.391 . S
C1953 C1957 1.376 . S
C1954 C1952 1.394 . S
C1954 C1955 1.369 . S
C1954 C1958 1.531 . S
C1955 C1954 1.369 . S
C1955 C1956 1.410 . S
C1955 C1963 1.503 . S
C1956 C1955 1.410 . S
C1956 C1957 1.392 . S
C1956 C1959 1.511 . S
C1957 C1953 1.376 . S
C1957 C1956 1.392 . S
C1957 H1969 0.929 . S
C1958 C1954 1.531 . S
C1958 H1970 0.960 . S
C1958 H1971 0.962 . S
C1958 H1972 0.960 . S
C1959 C1956 1.511 . S
C1959 H1973 0.961 . S
C1959 H1974 0.961 . S
C1959 H1975 0.961 . S
C1960 C1961 1.370 . S
C1960 C1962 1.363 . S
C1960 H1976 0.931 . S
C1961 C1960 1.370 . S
C1961 C1965 1.408 . S
C1962 C1960 1.363 . S
C1962 C1963 1.370 . S
C1962 C1966 1.524 . S
C1963 C1955 1.503 . S
C1963 C1962 1.370 . S
C1963 C1964 1.403 . S
C1964 C1963 1.403 . S
C1964 C1965 1.404 . S
C1964 C1967 1.539 . S
C1965 C1961 1.408 . S
C1965 C1964 1.404 . S
C1965 H1977 0.930 . S
C1966 C1962 1.524 . S
C1966 H1978 0.956 . S
C1966 H1979 0.961 . S
C1966 H1980 0.961 . S
C1967 C1964 1.539 . S
C1967 H1981 0.958 . S
C1967 H1982 0.961 . S
C1967 H1983 0.960 . S
H1968 C1952 0.931 . S
H1969 C1957 0.929 . S
H1970 C1958 0.960 . S
H1971 C1958 0.962 . S
H1972 C1958 0.960 . S
H1973 C1959 0.961 . S
H1974 C1959 0.961 . S
H1975 C1959 0.961 . S
H1976 C1960 0.931 . S
H1977 C1965 0.930 . S
H1978 C1966 0.956 . S
H1979 C1966 0.961 . S
H1980 C1966 0.961 . S
H1981 C1967 0.958 . S
H1982 C1967 0.961 . S
H1983 C1967 0.960 . S
C1984 C1985 1.391 . S
C1984 C1986 1.394 . S
C1984 H2000 0.931 . S
C1985 C1984 1.391 . S
C1985 C1989 1.376 . S
C1986 C1984 1.394 . S
C1986 C1987 1.369 . S
C1986 C1990 1.531 . S
C1987 C1986 1.369 . S
C1987 C1988 1.410 . S
C1987 C1995 1.503 . S
C1988 C1987 1.410 . S
C1988 C1989 1.392 . S
C1988 C1991 1.511 . S
C1989 C1985 1.376 . S
C1989 C1988 1.392 . S
C1989 H2001 0.929 . S
C1990 C1986 1.531 . S
C1990 H2002 0.960 . S
C1990 H2003 0.965 . S
C1990 H2004 0.960 1_655 S
C1991 C1988 1.511 . S
C1991 H2005 0.961 . S
C1991 H2006 0.961 . S
C1991 H2007 0.961 . S
C1992 C1993 1.370 . S
C1992 C1994 1.363 . S
C1992 H2008 0.931 . S
C1993 C1992 1.370 . S
C1993 C1997 1.408 . S
C1994 C1992 1.363 . S
C1994 C1995 1.370 . S
C1994 C1998 1.524 . S
C1995 C1987 1.503 . S
C1995 C1994 1.370 . S
C1995 C1996 1.403 . S
C1996 C1995 1.403 . S
C1996 C1997 1.404 . S
C1996 C1999 1.539 . S
C1997 C1993 1.408 . S
C1997 C1996 1.404 . S
C1997 H2009 0.930 . S
C1998 C1994 1.524 . S
C1998 H2010 0.956 . S
C1998 H2011 0.961 . S
C1998 H2012 0.961 . S
C1999 C1996 1.539 . S
C1999 H2013 0.958 . S
C1999 H2014 0.961 . S
C1999 H2015 0.960 . S
H2000 C1984 0.931 . S
H2001 C1989 0.929 . S
H2002 C1990 0.960 . S
H2003 C1990 0.965 . S
H2004 C1990 0.960 1_455 S
H2005 C1991 0.961 . S
H2006 C1991 0.961 . S
H2007 C1991 0.961 . S
H2008 C1992 0.931 . S
H2009 C1997 0.930 . S
H2010 C1998 0.956 . S
H2011 C1998 0.961 . S
H2012 C1998 0.961 . S
H2013 C1999 0.958 . S
H2014 C1999 0.961 . S
H2015 C1999 0.960 . S
C2016 C2017 1.391 . S
C2016 C2018 1.394 . S
C2016 H2032 0.931 . S
C2017 C2016 1.391 . S
C2017 C2021 1.376 . S
C2018 C2016 1.394 . S
C2018 C2019 1.369 . S
C2018 C2022 1.531 . S
C2019 C2018 1.369 . S
C2019 C2020 1.410 . S
C2019 C2027 1.503 . S
C2020 C2019 1.410 . S
C2020 C2021 1.392 . S
C2020 C2023 1.511 . S
C2021 C2017 1.376 . S
C2021 C2020 1.392 . S
C2021 H2033 0.929 . S
C2022 C2018 1.531 . S
C2022 H2034 0.960 . S
C2022 H2035 0.962 . S
C2022 H2036 0.960 . S
C2023 C2020 1.511 . S
C2023 H2037 0.961 . S
C2023 H2038 0.961 . S
C2023 H2039 0.961 . S
C2024 C2025 1.370 . S
C2024 C2026 1.363 . S
C2024 H2040 0.931 . S
C2025 C2024 1.370 . S
C2025 C2029 1.408 . S
C2026 C2024 1.363 . S
C2026 C2027 1.370 . S
C2026 C2030 1.524 . S
C2027 C2019 1.503 . S
C2027 C2026 1.370 . S
C2027 C2028 1.403 . S
C2028 C2027 1.403 . S
C2028 C2029 1.404 . S
C2028 C2031 1.539 . S
C2029 C2025 1.408 . S
C2029 C2028 1.404 . S
C2029 H2041 0.930 . S
C2030 C2026 1.524 . S
C2030 H2042 0.956 . S
C2030 H2043 0.961 . S
C2030 H2044 0.961 . S
C2031 C2028 1.539 . S
C2031 H2045 0.958 . S
C2031 H2046 0.961 . S
C2031 H2047 0.960 . S
H2032 C2016 0.931 . S
H2033 C2021 0.929 . S
H2034 C2022 0.960 . S
H2035 C2022 0.962 . S
H2036 C2022 0.960 . S
H2037 C2023 0.961 . S
H2038 C2023 0.961 . S
H2039 C2023 0.961 . S
H2040 C2024 0.931 . S
H2041 C2029 0.930 . S
H2042 C2030 0.956 . S
H2043 C2030 0.961 . S
H2044 C2030 0.961 . S
H2045 C2031 0.958 . S
H2046 C2031 0.961 . S
H2047 C2031 0.960 . S
C2048 C2049 1.391 . S
C2048 C2050 1.394 . S
C2048 H2064 0.931 . S
C2049 C2048 1.391 . S
C2049 C2053 1.376 . S
C2050 C2048 1.394 . S
C2050 C2051 1.369 . S
C2050 C2054 1.531 . S
C2051 C2050 1.369 . S
C2051 C2052 1.410 . S
C2051 C2059 1.503 . S
C2052 C2051 1.410 . S
C2052 C2053 1.392 . S
C2052 C2055 1.511 . S
C2053 C2049 1.376 . S
C2053 C2052 1.392 . S
C2053 H2065 0.929 . S
C2054 C2050 1.531 . S
C2054 H2066 0.960 . S
C2054 H2067 0.962 . S
C2054 H2068 0.960 . S
C2055 C2052 1.511 . S
C2055 H2069 0.961 . S
C2055 H2070 0.961 . S
C2055 H2071 0.961 . S
C2056 C2057 1.370 . S
C2056 C2058 1.363 . S
C2056 H2072 0.931 . S
C2057 C2056 1.370 . S
C2057 C2061 1.408 . S
C2058 C2056 1.363 . S
C2058 C2059 1.370 . S
C2058 C2062 1.524 . S
C2059 C2051 1.503 . S
C2059 C2058 1.370 . S
C2059 C2060 1.403 . S
C2060 C2059 1.403 . S
C2060 C2061 1.404 . S
C2060 C2063 1.539 . S
C2061 C2057 1.408 . S
C2061 C2060 1.404 . S
C2061 H2073 0.930 . S
C2062 C2058 1.524 . S
C2062 H2074 0.956 . S
C2062 H2075 0.961 . S
C2062 H2076 0.961 . S
C2063 C2060 1.539 . S
C2063 H2077 0.958 . S
C2063 H2078 0.961 . S
C2063 H2079 0.960 . S
H2064 C2048 0.931 . S
H2065 C2053 0.929 . S
H2066 C2054 0.960 . S
H2067 C2054 0.962 . S
H2068 C2054 0.960 . S
H2069 C2055 0.961 . S
H2070 C2055 0.961 . S
H2071 C2055 0.961 . S
H2072 C2056 0.931 . S
H2073 C2061 0.930 . S
H2074 C2062 0.956 . S
H2075 C2062 0.961 . S
H2076 C2062 0.961 . S
H2077 C2063 0.958 . S
H2078 C2063 0.961 . S
H2079 C2063 0.960 . S
C2080 C2081 1.391 . S
C2080 C2082 1.394 . S
C2080 H2096 0.931 . S
C2081 C2080 1.391 . S
C2081 C2085 1.376 . S
C2082 C2080 1.394 . S
C2082 C2083 1.369 . S
C2082 C2086 1.531 . S
C2083 C2082 1.369 . S
C2083 C2084 1.410 . S
C2083 C2091 1.503 . S
C2084 C2083 1.410 . S
C2084 C2085 1.392 . S
C2084 C2087 1.511 . S
C2085 C2081 1.376 . S
C2085 C2084 1.392 . S
C2085 H2097 0.929 . S
C2086 C2082 1.531 . S
C2086 H2098 0.960 . S
C2086 H2099 0.962 . S
C2086 H2100 0.960 . S
C2087 C2084 1.511 . S
C2087 H2101 0.961 . S
C2087 H2102 0.961 . S
C2087 H2103 0.961 . S
C2088 C2089 1.370 . S
C2088 C2090 1.363 . S
C2088 H2104 0.931 . S
C2089 C2088 1.370 . S
C2089 C2093 1.408 . S
C2090 C2088 1.363 . S
C2090 C2091 1.370 . S
C2090 C2094 1.524 . S
C2091 C2083 1.503 . S
C2091 C2090 1.370 . S
C2091 C2092 1.403 . S
C2092 C2091 1.403 . S
C2092 C2093 1.404 . S
C2092 C2095 1.539 . S
C2093 C2089 1.408 . S
C2093 C2092 1.404 . S
C2093 H2105 0.930 . S
C2094 C2090 1.524 . S
C2094 H2106 0.956 . S
C2094 H2107 0.961 . S
C2094 H2108 0.961 . S
C2095 C2092 1.539 . S
C2095 H2109 0.958 . S
C2095 H2110 0.961 . S
C2095 H2111 0.960 . S
H2096 C2080 0.931 . S
H2097 C2085 0.929 . S
H2098 C2086 0.960 . S
H2099 C2086 0.962 . S
H2100 C2086 0.960 . S
H2101 C2087 0.961 . S
H2102 C2087 0.961 . S
H2103 C2087 0.961 . S
H2104 C2088 0.931 . S
H2105 C2093 0.930 . S
H2106 C2094 0.956 . S
H2107 C2094 0.961 . S
H2108 C2094 0.961 . S
H2109 C2095 0.958 . S
H2110 C2095 0.961 . S
H2111 C2095 0.960 . S
C2112 C2113 1.391 . S
C2112 C2114 1.394 . S
C2112 H2128 0.931 . S
C2113 C2112 1.391 . S
C2113 C2117 1.376 . S
C2114 C2112 1.394 . S
C2114 C2115 1.369 . S
C2114 C2118 1.531 . S
C2115 C2114 1.369 . S
C2115 C2116 1.410 . S
C2115 C2123 1.503 . S
C2116 C2115 1.410 . S
C2116 C2117 1.392 . S
C2116 C2119 1.511 . S
C2117 C2113 1.376 . S
C2117 C2116 1.392 . S
C2117 H2129 0.929 . S
C2118 C2114 1.531 . S
C2118 H2130 0.960 . S
C2118 H2131 0.962 . S
C2118 H2132 0.960 . S
C2119 C2116 1.511 . S
C2119 H2133 0.961 . S
C2119 H2134 0.961 . S
C2119 H2135 0.961 . S
C2120 C2121 1.370 . S
C2120 C2122 1.363 . S
C2120 H2136 0.931 . S
C2121 C2120 1.370 . S
C2121 C2125 1.408 . S
C2122 C2120 1.363 . S
C2122 C2123 1.370 . S
C2122 C2126 1.524 . S
C2123 C2115 1.503 . S
C2123 C2122 1.370 . S
C2123 C2124 1.403 . S
C2124 C2123 1.403 . S
C2124 C2125 1.404 . S
C2124 C2127 1.539 . S
C2125 C2121 1.408 . S
C2125 C2124 1.404 . S
C2125 H2137 0.930 . S
C2126 C2122 1.524 . S
C2126 H2138 0.956 . S
C2126 H2139 0.961 . S
C2126 H2140 0.961 . S
C2127 C2124 1.539 . S
C2127 H2141 0.958 . S
C2127 H2142 0.961 . S
C2127 H2143 0.960 . S
H2128 C2112 0.931 . S
H2129 C2117 0.929 . S
H2130 C2118 0.960 . S
H2131 C2118 0.962 . S
H2132 C2118 0.960 . S
H2133 C2119 0.961 . S
H2134 C2119 0.961 . S
H2135 C2119 0.961 . S
H2136 C2120 0.931 . S
H2137 C2125 0.930 . S
H2138 C2126 0.956 . S
H2139 C2126 0.961 . S
H2140 C2126 0.961 . S
H2141 C2127 0.958 . S
H2142 C2127 0.961 . S
H2143 C2127 0.960 . S
C2144 C2145 1.391 . S
C2144 C2146 1.394 . S
C2144 H2160 0.931 . S
C2145 C2144 1.391 . S
C2145 C2149 1.376 . S
C2146 C2144 1.394 . S
C2146 C2147 1.369 . S
C2146 C2150 1.531 . S
C2147 C2146 1.369 . S
C2147 C2148 1.410 . S
C2147 C2155 1.503 . S
C2148 C2147 1.410 . S
C2148 C2149 1.392 . S
C2148 C2151 1.511 . S
C2149 C2145 1.376 . S
C2149 C2148 1.392 . S
C2149 H2161 0.929 . S
C2150 C2146 1.531 . S
C2150 H2162 0.960 . S
C2150 H2163 0.962 . S
C2150 H2164 0.960 . S
C2151 C2148 1.511 . S
C2151 H2165 0.961 . S
C2151 H2166 0.961 . S
C2151 H2167 0.961 . S
C2152 C2153 1.370 . S
C2152 C2154 1.363 . S
C2152 H2168 0.931 . S
C2153 C2152 1.370 . S
C2153 C2157 1.408 . S
C2154 C2152 1.363 . S
C2154 C2155 1.370 . S
C2154 C2158 1.524 . S
C2155 C2147 1.503 . S
C2155 C2154 1.370 . S
C2155 C2156 1.403 . S
C2156 C2155 1.403 . S
C2156 C2157 1.404 . S
C2156 C2159 1.539 . S
C2157 C2153 1.408 . S
C2157 C2156 1.404 . S
C2157 H2169 0.930 . S
C2158 C2154 1.524 . S
C2158 H2170 0.956 . S
C2158 H2171 0.961 . S
C2158 H2172 0.961 . S
C2159 C2156 1.539 . S
C2159 H2173 0.958 . S
C2159 H2174 0.961 . S
C2159 H2175 0.960 . S
H2160 C2144 0.931 . S
H2161 C2149 0.929 . S
H2162 C2150 0.960 . S
H2163 C2150 0.962 . S
H2164 C2150 0.960 . S
H2165 C2151 0.961 . S
H2166 C2151 0.961 . S
H2167 C2151 0.961 . S
H2168 C2152 0.931 . S
H2169 C2157 0.930 . S
H2170 C2158 0.956 . S
H2171 C2158 0.961 . S
H2172 C2158 0.961 . S
H2173 C2159 0.958 . S
H2174 C2159 0.961 . S
H2175 C2159 0.960 . S
C2176 C2177 1.391 . S
C2176 C2178 1.394 . S
C2176 H2192 0.931 . S
C2177 C2176 1.391 . S
C2177 C2181 1.376 . S
C2178 C2176 1.394 . S
C2178 C2179 1.369 . S
C2178 C2182 1.531 . S
C2179 C2178 1.369 . S
C2179 C2180 1.410 . S
C2179 C2187 1.503 . S
C2180 C2179 1.410 . S
C2180 C2181 1.392 . S
C2180 C2183 1.511 . S
C2181 C2177 1.376 . S
C2181 C2180 1.392 . S
C2181 H2193 0.929 . S
C2182 C2178 1.531 . S
C2182 H2194 0.960 . S
C2182 H2195 0.962 . S
C2182 H2196 0.960 . S
C2183 C2180 1.511 . S
C2183 H2197 0.961 . S
C2183 H2198 0.961 . S
C2183 H2199 0.961 . S
C2184 C2185 1.370 . S
C2184 C2186 1.363 . S
C2184 H2200 0.931 . S
C2185 C2184 1.370 . S
C2185 C2189 1.408 . S
C2186 C2184 1.363 . S
C2186 C2187 1.370 . S
C2186 C2190 1.524 . S
C2187 C2179 1.503 . S
C2187 C2186 1.370 . S
C2187 C2188 1.403 . S
C2188 C2187 1.403 . S
C2188 C2189 1.404 . S
C2188 C2191 1.539 . S
C2189 C2185 1.408 . S
C2189 C2188 1.404 . S
C2189 H2201 0.930 . S
C2190 C2186 1.524 . S
C2190 H2202 0.956 . S
C2190 H2203 0.961 . S
C2190 H2204 0.961 . S
C2191 C2188 1.539 . S
C2191 H2205 0.958 . S
C2191 H2206 0.961 . S
C2191 H2207 0.960 . S
H2192 C2176 0.931 . S
H2193 C2181 0.929 . S
H2194 C2182 0.960 . S
H2195 C2182 0.962 . S
H2196 C2182 0.960 . S
H2197 C2183 0.961 . S
H2198 C2183 0.961 . S
H2199 C2183 0.961 . S
H2200 C2184 0.931 . S
H2201 C2189 0.930 . S
H2202 C2190 0.956 . S
H2203 C2190 0.961 . S
H2204 C2190 0.961 . S
H2205 C2191 0.958 . S
H2206 C2191 0.961 . S
H2207 C2191 0.960 . S
C2208 C2209 1.391 . S
C2208 C2210 1.394 . S
C2208 H2224 0.931 . S
C2209 C2208 1.391 . S
C2209 C2213 1.376 . S
C2210 C2208 1.394 . S
C2210 C2211 1.369 . S
C2210 C2214 1.531 . S
C2211 C2210 1.369 . S
C2211 C2212 1.410 . S
C2211 C2219 1.503 . S
C2212 C2211 1.410 . S
C2212 C2213 1.392 . S
C2212 C2215 1.511 . S
C2213 C2209 1.376 . S
C2213 C2212 1.392 . S
C2213 H2225 0.929 . S
C2214 C2210 1.531 . S
C2214 H2226 0.960 . S
C2214 H2227 0.962 . S
C2214 H2228 0.960 . S
C2215 C2212 1.511 . S
C2215 H2229 0.961 . S
C2215 H2230 0.961 . S
C2215 H2231 0.961 . S
C2216 C2217 1.370 . S
C2216 C2218 1.363 . S
C2216 H2232 0.931 . S
C2217 C2216 1.370 . S
C2217 C2221 1.408 . S
C2218 C2216 1.363 . S
C2218 C2219 1.370 . S
C2218 C2222 1.524 . S
C2219 C2211 1.503 . S
C2219 C2218 1.370 . S
C2219 C2220 1.403 . S
C2220 C2219 1.403 . S
C2220 C2221 1.404 . S
C2220 C2223 1.539 . S
C2221 C2217 1.408 . S
C2221 C2220 1.404 . S
C2221 H2233 0.930 . S
C2222 C2218 1.524 . S
C2222 H2234 0.956 . S
C2222 H2235 0.961 . S
C2222 H2236 0.961 . S
C2223 C2220 1.539 . S
C2223 H2237 0.958 . S
C2223 H2238 0.961 . S
C2223 H2239 0.960 . S
H2224 C2208 0.931 . S
H2225 C2213 0.929 . S
H2226 C2214 0.960 . S
H2227 C2214 0.962 . S
H2228 C2214 0.960 . S
H2229 C2215 0.961 . S
H2230 C2215 0.961 . S
H2231 C2215 0.961 . S
H2232 C2216 0.931 . S
H2233 C2221 0.930 . S
H2234 C2222 0.956 . S
H2235 C2222 0.961 . S
H2236 C2222 0.961 . S
H2237 C2223 0.958 . S
H2238 C2223 0.961 . S
H2239 C2223 0.960 . S
C2240 C2241 1.391 . S
C2240 C2242 1.394 . S
C2240 H2256 0.931 . S
C2241 C2240 1.391 . S
C2241 C2245 1.376 . S
C2242 C2240 1.394 . S
C2242 C2243 1.369 . S
C2242 C2246 1.531 . S
C2243 C2242 1.369 . S
C2243 C2244 1.410 . S
C2243 C2251 1.503 . S
C2244 C2243 1.410 . S
C2244 C2245 1.392 . S
C2244 C2247 1.511 . S
C2245 C2241 1.376 . S
C2245 C2244 1.392 . S
C2245 H2257 0.929 . S
C2246 C2242 1.531 . S
C2246 H2258 0.960 . S
C2246 H2259 0.962 . S
C2246 H2260 0.960 . S
C2247 C2244 1.511 . S
C2247 H2261 0.961 . S
C2247 H2262 0.961 . S
C2247 H2263 0.961 . S
C2248 C2249 1.370 . S
C2248 C2250 1.363 . S
C2248 H2264 0.931 . S
C2249 C2248 1.370 . S
C2249 C2253 1.408 . S
C2250 C2248 1.363 . S
C2250 C2251 1.370 . S
C2250 C2254 1.524 . S
C2251 C2243 1.503 . S
C2251 C2250 1.370 . S
C2251 C2252 1.403 . S
C2252 C2251 1.403 . S
C2252 C2253 1.404 . S
C2252 C2255 1.539 . S
C2253 C2249 1.408 . S
C2253 C2252 1.404 . S
C2253 H2265 0.930 . S
C2254 C2250 1.524 . S
C2254 H2266 0.956 . S
C2254 H2267 0.961 . S
C2254 H2268 0.961 . S
C2255 C2252 1.539 . S
C2255 H2269 0.958 . S
C2255 H2270 0.961 . S
C2255 H2271 0.960 . S
H2256 C2240 0.931 . S
H2257 C2245 0.929 . S
H2258 C2246 0.960 . S
H2259 C2246 0.962 . S
H2260 C2246 0.960 . S
H2261 C2247 0.961 . S
H2262 C2247 0.961 . S
H2263 C2247 0.961 . S
H2264 C2248 0.931 . S
H2265 C2253 0.930 . S
H2266 C2254 0.956 . S
H2267 C2254 0.961 . S
H2268 C2254 0.961 . S
H2269 C2255 0.958 . S
H2270 C2255 0.961 . S
H2271 C2255 0.960 . S
C2272 C2273 1.391 . S
C2272 C2274 1.394 . S
C2272 H2288 0.931 . S
C2273 C2272 1.391 . S
C2273 C2277 1.376 . S
C2274 C2272 1.394 . S
C2274 C2275 1.369 . S
C2274 C2278 1.531 . S
C2275 C2274 1.369 . S
C2275 C2276 1.410 . S
C2275 C2283 1.503 . S
C2276 C2275 1.410 . S
C2276 C2277 1.392 . S
C2276 C2279 1.511 . S
C2277 C2273 1.376 . S
C2277 C2276 1.392 . S
C2277 H2289 0.929 . S
C2278 C2274 1.531 . S
C2278 H2290 0.960 . S
C2278 H2291 0.962 . S
C2278 H2292 0.960 . S
C2279 C2276 1.511 . S
C2279 H2293 0.961 . S
C2279 H2294 0.961 . S
C2279 H2295 0.961 . S
C2280 C2281 1.370 . S
C2280 C2282 1.363 . S
C2280 H2296 0.931 . S
C2281 C2280 1.370 . S
C2281 C2285 1.408 . S
C2282 C2280 1.363 . S
C2282 C2283 1.370 . S
C2282 C2286 1.524 . S
C2283 C2275 1.503 . S
C2283 C2282 1.370 . S
C2283 C2284 1.403 . S
C2284 C2283 1.403 . S
C2284 C2285 1.404 . S
C2284 C2287 1.539 . S
C2285 C2281 1.408 . S
C2285 C2284 1.404 . S
C2285 H2297 0.930 . S
C2286 C2282 1.524 . S
C2286 H2298 0.956 . S
C2286 H2299 0.961 . S
C2286 H2300 0.961 . S
C2287 C2284 1.539 . S
C2287 H2301 0.958 . S
C2287 H2302 0.961 . S
C2287 H2303 0.960 . S
H2288 C2272 0.931 . S
H2289 C2277 0.929 . S
H2290 C2278 0.960 . S
H2291 C2278 0.962 . S
H2292 C2278 0.960 . S
H2293 C2279 0.961 . S
H2294 C2279 0.961 . S
H2295 C2279 0.961 . S
H2296 C2280 0.931 . S
H2297 C2285 0.930 . S
H2298 C2286 0.956 . S
H2299 C2286 0.961 . S
H2300 C2286 0.961 . S
H2301 C2287 0.958 . S
H2302 C2287 0.961 . S
H2303 C2287 0.960 . S
C2304 C2305 1.391 . S
C2304 C2306 1.394 . S
C2304 H2320 0.931 . S
C2305 C2304 1.391 . S
C2305 C2309 1.376 . S
C2306 C2304 1.394 . S
C2306 C2307 1.369 . S
C2306 C2310 1.531 . S
C2307 C2306 1.369 . S
C2307 C2308 1.410 . S
C2307 C2315 1.503 . S
C2308 C2307 1.410 . S
C2308 C2309 1.392 . S
C2308 C2311 1.511 . S
C2309 C2305 1.376 . S
C2309 C2308 1.392 . S
C2309 H2321 0.929 . S
C2310 C2306 1.531 . S
C2310 H2322 0.960 . S
C2310 H2323 0.962 . S
C2310 H2324 0.960 . S
C2311 C2308 1.511 . S
C2311 H2325 0.961 . S
C2311 H2326 0.961 . S
C2311 H2327 0.961 . S
C2312 C2313 1.370 . S
C2312 C2314 1.363 . S
C2312 H2328 0.931 . S
C2313 C2312 1.370 . S
C2313 C2317 1.408 . S
C2314 C2312 1.363 . S
C2314 C2315 1.370 . S
C2314 C2318 1.524 . S
C2315 C2307 1.503 . S
C2315 C2314 1.370 . S
C2315 C2316 1.403 . S
C2316 C2315 1.403 . S
C2316 C2317 1.404 . S
C2316 C2319 1.539 . S
C2317 C2313 1.408 . S
C2317 C2316 1.404 . S
C2317 H2329 0.930 . S
C2318 C2314 1.524 . S
C2318 H2330 0.956 . S
C2318 H2331 0.961 . S
C2318 H2332 0.961 . S
C2319 C2316 1.539 . S
C2319 H2333 0.958 . S
C2319 H2334 0.961 . S
C2319 H2335 0.960 . S
H2320 C2304 0.931 . S
H2321 C2309 0.929 . S
H2322 C2310 0.960 . S
H2323 C2310 0.962 . S
H2324 C2310 0.960 . S
H2325 C2311 0.961 . S
H2326 C2311 0.961 . S
H2327 C2311 0.961 . S
H2328 C2312 0.931 . S
H2329 C2317 0.930 . S
H2330 C2318 0.956 . S
H2331 C2318 0.961 . S
H2332 C2318 0.961 . S
H2333 C2319 0.958 . S
H2334 C2319 0.961 . S
H2335 C2319 0.960 . S
C2336 C2337 1.391 . S
C2336 C2338 1.394 1_556 S
C2336 H2352 0.930 1_556 S
C2337 C2336 1.391 . S
C2337 C2341 1.376 . S
C2338 C2336 1.394 1_554 S
C2338 C2339 1.370 . S
C2338 C2342 1.531 . S
C2339 C2338 1.370 . S
C2339 C2340 1.407 1_554 S
C2339 C2347 1.501 1_554 S
C2340 C2339 1.407 1_556 S
C2340 C2341 1.395 . S
C2340 C2343 1.511 . S
C2341 C2337 1.376 . S
C2341 C2340 1.395 . S
C2341 H2353 0.929 . S
C2342 C2338 1.531 . S
C2342 H2354 0.960 . S
C2342 H2355 0.962 1_554 S
C2342 H2356 0.960 . S
C2343 C2340 1.511 . S
C2343 H2357 0.977 . S
C2343 H2358 0.976 . S
C2343 H2359 0.930 1_556 S
C2344 C2345 1.370 . S
C2344 C2346 1.363 . S
C2344 H2360 0.931 . S
C2345 C2344 1.370 . S
C2345 C2349 1.408 1_556 S
C2346 C2344 1.363 . S
C2346 C2347 1.400 . S
C2346 C2350 1.524 . S
C2347 C2339 1.501 1_556 S
C2347 C2346 1.400 . S
C2347 C2348 1.375 1_556 S
C2348 C2347 1.375 1_554 S
C2348 C2349 1.404 . S
C2348 C2351 1.539 . S
C2349 C2345 1.408 1_554 S
C2349 C2348 1.404 . S
C2349 H2361 0.930 . S
C2350 C2346 1.524 . S
C2350 H2362 0.956 . S
C2350 H2363 0.961 . S
C2350 H2364 0.961 . S
C2351 C2348 1.539 . S
C2351 H2365 0.958 . S
C2351 H2366 0.961 . S
C2351 H2367 0.960 . S
H2352 C2336 0.930 1_554 S
H2353 C2341 0.929 . S
H2354 C2342 0.960 . S
H2355 C2342 0.962 1_556 S
H2356 C2342 0.960 . S
H2357 C2343 0.977 . S
H2358 C2343 0.976 . S
H2359 C2343 0.930 1_554 S
H2360 C2344 0.931 . S
H2361 C2349 0.930 . S
H2362 C2350 0.956 . S
H2363 C2350 0.961 . S
H2364 C2350 0.961 . S
H2365 C2351 0.958 . S
H2366 C2351 0.961 . S
H2367 C2351 0.960 . S
C2368 C2369 1.391 . S
C2368 C2370 1.394 . S
C2368 H2384 0.931 . S
C2369 C2368 1.391 . S
C2369 C2373 1.376 . S
C2370 C2368 1.394 . S
C2370 C2371 1.369 . S
C2370 C2374 1.531 . S
C2371 C2370 1.369 . S
C2371 C2372 1.410 . S
C2371 C2379 1.503 . S
C2372 C2371 1.410 . S
C2372 C2373 1.392 . S
C2372 C2375 1.511 . S
C2373 C2369 1.376 . S
C2373 C2372 1.392 . S
C2373 H2385 0.929 . S
C2374 C2370 1.531 . S
C2374 H2386 0.960 . S
C2374 H2387 0.962 . S
C2374 H2388 0.960 . S
C2375 C2372 1.511 . S
C2375 H2389 0.961 1_556 S
C2375 H2390 0.961 1_556 S
C2375 H2391 0.961 . S
C2376 C2377 1.370 1_554 S
C2376 C2378 1.363 . S
C2376 H2392 0.931 . S
C2377 C2376 1.370 1_556 S
C2377 C2381 1.408 . S
C2378 C2376 1.363 . S
C2378 C2379 1.370 1_554 S
C2378 C2382 1.524 . S
C2379 C2371 1.503 . S
C2379 C2378 1.370 1_556 S
C2379 C2380 1.403 . S
C2380 C2379 1.403 . S
C2380 C2381 1.404 . S
C2380 C2383 1.539 . S
C2381 C2377 1.408 . S
C2381 C2380 1.404 . S
C2381 H2393 0.930 . S
C2382 C2378 1.524 . S
C2382 H2394 0.956 . S
C2382 H2395 0.961 . S
C2382 H2396 0.961 . S
C2383 C2380 1.539 . S
C2383 H2397 0.958 . S
C2383 H2398 0.961 . S
C2383 H2399 0.960 . S
H2384 C2368 0.931 . S
H2385 C2373 0.929 . S
H2386 C2374 0.960 . S
H2387 C2374 0.962 . S
H2388 C2374 0.960 . S
H2389 C2375 0.961 1_554 S
H2390 C2375 0.961 1_554 S
H2391 C2375 0.961 . S
H2392 C2376 0.931 . S
H2393 C2381 0.930 . S
H2394 C2382 0.956 . S
H2395 C2382 0.961 . S
H2396 C2382 0.961 . S
H2397 C2383 0.958 . S
H2398 C2383 0.961 . S
H2399 C2383 0.960 . S
C2400 C2401 1.391 . S
C2400 C2402 1.394 . S
C2400 H2416 0.931 . S
C2401 C2400 1.391 . S
C2401 C2405 1.376 . S
C2402 C2400 1.394 . S
C2402 C2403 1.369 . S
C2402 C2406 1.531 . S
C2403 C2402 1.369 . S
C2403 C2404 1.410 . S
C2403 C2411 1.503 . S
C2404 C2403 1.410 . S
C2404 C2405 1.392 . S
C2404 C2407 1.511 . S
C2405 C2401 1.376 . S
C2405 C2404 1.392 . S
C2405 H2417 0.929 . S
C2406 C2402 1.531 . S
C2406 H2418 0.960 . S
C2406 H2419 0.962 . S
C2406 H2420 0.960 . S
C2407 C2404 1.511 . S
C2407 H2421 0.961 . S
C2407 H2422 0.961 . S
C2407 H2423 0.961 . S
C2408 C2409 1.370 . S
C2408 C2410 1.363 . S
C2408 H2424 0.931 . S
C2409 C2408 1.370 . S
C2409 C2413 1.408 . S
C2410 C2408 1.363 . S
C2410 C2411 1.370 . S
C2410 C2414 1.524 . S
C2411 C2403 1.503 . S
C2411 C2410 1.370 . S
C2411 C2412 1.403 . S
C2412 C2411 1.403 . S
C2412 C2413 1.404 . S
C2412 C2415 1.539 . S
C2413 C2409 1.408 . S
C2413 C2412 1.404 . S
C2413 H2425 0.930 . S
C2414 C2410 1.524 . S
C2414 H2426 0.956 . S
C2414 H2427 0.961 . S
C2414 H2428 0.961 . S
C2415 C2412 1.539 . S
C2415 H2429 0.958 . S
C2415 H2430 0.961 . S
C2415 H2431 0.960 . S
H2416 C2400 0.931 . S
H2417 C2405 0.929 . S
H2418 C2406 0.960 . S
H2419 C2406 0.962 . S
H2420 C2406 0.960 . S
H2421 C2407 0.961 . S
H2422 C2407 0.961 . S
H2423 C2407 0.961 . S
H2424 C2408 0.931 . S
H2425 C2413 0.930 . S
H2426 C2414 0.956 . S
H2427 C2414 0.961 . S
H2428 C2414 0.961 . S
H2429 C2415 0.958 . S
H2430 C2415 0.961 . S
H2431 C2415 0.960 . S
C2432 C2433 1.391 . S
C2432 C2434 1.394 . S
C2432 H2448 0.931 . S
C2433 C2432 1.391 . S
C2433 C2437 1.376 . S
C2434 C2432 1.394 . S
C2434 C2435 1.369 . S
C2434 C2438 1.531 . S
C2435 C2434 1.369 . S
C2435 C2436 1.410 . S
C2435 C2443 1.503 . S
C2436 C2435 1.410 . S
C2436 C2437 1.392 . S
C2436 C2439 1.511 . S
C2437 C2433 1.376 . S
C2437 C2436 1.392 . S
C2437 H2449 0.929 . S
C2438 C2434 1.531 . S
C2438 H2450 0.960 . S
C2438 H2451 0.962 . S
C2438 H2452 0.960 . S
C2439 C2436 1.511 . S
C2439 H2453 0.961 . S
C2439 H2454 0.961 . S
C2439 H2455 0.961 . S
C2440 C2441 1.370 . S
C2440 C2442 1.363 . S
C2440 H2456 0.931 . S
C2441 C2440 1.370 . S
C2441 C2445 1.408 . S
C2442 C2440 1.363 . S
C2442 C2443 1.370 . S
C2442 C2446 1.524 . S
C2443 C2435 1.503 . S
C2443 C2442 1.370 . S
C2443 C2444 1.403 . S
C2444 C2443 1.403 . S
C2444 C2445 1.404 . S
C2444 C2447 1.539 . S
C2445 C2441 1.408 . S
C2445 C2444 1.404 . S
C2445 H2457 0.930 . S
C2446 C2442 1.524 . S
C2446 H2458 0.956 . S
C2446 H2459 0.961 . S
C2446 H2460 0.961 . S
C2447 C2444 1.539 . S
C2447 H2461 0.958 . S
C2447 H2462 0.961 . S
C2447 H2463 0.960 . S
H2448 C2432 0.931 . S
H2449 C2437 0.929 . S
H2450 C2438 0.960 . S
H2451 C2438 0.962 . S
H2452 C2438 0.960 . S
H2453 C2439 0.961 . S
H2454 C2439 0.961 . S
H2455 C2439 0.961 . S
H2456 C2440 0.931 . S
H2457 C2445 0.930 . S
H2458 C2446 0.956 . S
H2459 C2446 0.961 . S
H2460 C2446 0.961 . S
H2461 C2447 0.958 . S
H2462 C2447 0.961 . S
H2463 C2447 0.960 . S
C2464 C2465 1.391 . S
C2464 C2466 1.394 . S
C2464 H2480 0.931 . S
C2465 C2464 1.391 . S
C2465 C2469 1.376 1_554 S
C2466 C2464 1.394 . S
C2466 C2467 1.369 . S
C2466 C2470 1.531 . S
C2467 C2466 1.369 . S
C2467 C2468 1.410 1_554 S
C2467 C2475 1.503 . S
C2468 C2467 1.410 1_556 S
C2468 C2469 1.392 . S
C2468 C2471 1.511 . S
C2469 C2465 1.376 1_556 S
C2469 C2468 1.392 . S
C2469 H2481 0.929 . S
C2470 C2466 1.531 . S
C2470 H2482 0.960 . S
C2470 H2483 0.962 . S
C2470 H2484 0.960 . S
C2471 C2468 1.511 . S
C2471 H2485 0.961 . S
C2471 H2486 0.961 . S
C2471 H2487 0.961 . S
C2472 C2473 1.370 1_556 S
C2472 C2474 1.363 . S
C2472 H2488 0.931 . S
C2473 C2472 1.370 1_554 S
C2473 C2477 1.408 . S
C2474 C2472 1.363 . S
C2474 C2475 1.370 1_556 S
C2474 C2478 1.524 . S
C2475 C2467 1.503 . S
C2475 C2474 1.370 1_554 S
C2475 C2476 1.403 . S
C2476 C2475 1.403 . S
C2476 C2477 1.404 . S
C2476 C2479 1.539 . S
C2477 C2473 1.408 . S
C2477 C2476 1.404 . S
C2477 H2489 0.930 . S
C2478 C2474 1.524 . S
C2478 H2490 0.956 . S
C2478 H2491 0.961 . S
C2478 H2492 0.961 . S
C2479 C2476 1.539 . S
C2479 H2493 0.958 . S
C2479 H2494 0.961 . S
C2479 H2495 0.960 . S
H2480 C2464 0.931 . S
H2481 C2469 0.929 . S
H2482 C2470 0.960 . S
H2483 C2470 0.962 . S
H2484 C2470 0.960 . S
H2485 C2471 0.961 . S
H2486 C2471 0.961 . S
H2487 C2471 0.961 . S
H2488 C2472 0.931 . S
H2489 C2477 0.930 . S
H2490 C2478 0.956 . S
H2491 C2478 0.961 . S
H2492 C2478 0.961 . S
H2493 C2479 0.958 . S
H2494 C2479 0.961 . S
H2495 C2479 0.960 . S
C2496 C2497 1.391 1_556 S
C2496 C2498 1.394 . S
C2496 H2512 0.931 . S
C2497 C2496 1.391 1_554 S
C2497 C2501 1.376 . S
C2498 C2496 1.394 . S
C2498 C2499 1.377 . S
C2498 C2502 1.531 . S
C2499 C2498 1.377 . S
C2499 C2500 1.401 1_556 S
C2499 C2507 1.501 1_556 S
C2500 C2499 1.401 1_554 S
C2500 C2501 1.392 . S
C2500 C2503 1.511 . S
C2501 C2497 1.376 . S
C2501 C2500 1.392 . S
C2501 H2513 0.929 . S
C2502 C2498 1.531 . S
C2502 H2514 0.960 . S
C2502 H2515 0.962 1_556 S
C2502 H2516 0.960 . S
C2503 C2500 1.511 . S
C2503 H2517 0.961 . S
C2503 H2518 0.961 . S
C2503 H2519 0.961 1_554 S
C2504 C2505 1.370 . S
C2504 C2506 1.363 . S
C2504 H2520 0.931 . S
C2505 C2504 1.370 . S
C2505 C2509 1.408 1_554 S
C2506 C2504 1.363 . S
C2506 C2507 1.404 . S
C2506 C2510 1.524 . S
C2507 C2499 1.501 1_554 S
C2507 C2506 1.404 . S
C2507 C2508 1.372 1_554 S
C2508 C2507 1.372 1_556 S
C2508 C2509 1.404 . S
C2508 C2511 1.539 . S
C2509 C2505 1.408 1_556 S
C2509 C2508 1.404 . S
C2509 H2521 0.930 . S
C2510 C2506 1.524 . S
C2510 H2522 0.956 . S
C2510 H2523 0.961 . S
C2510 H2524 0.961 . S
C2511 C2508 1.539 . S
C2511 H2525 0.958 . S
C2511 H2526 0.961 . S
C2511 H2527 0.960 . S
H2512 C2496 0.931 . S
H2513 C2501 0.929 . S
H2514 C2502 0.960 . S
H2515 C2502 0.962 1_554 S
H2516 C2502 0.960 . S
H2517 C2503 0.961 . S
H2518 C2503 0.961 . S
H2519 C2503 0.961 1_556 S
H2520 C2504 0.931 . S
H2521 C2509 0.930 . S
H2522 C2510 0.956 . S
H2523 C2510 0.961 . S
H2524 C2510 0.961 . S
H2525 C2511 0.958 . S
H2526 C2511 0.961 . S
H2527 C2511 0.960 . S
C2528 C2529 1.391 . S
C2528 C2530 1.394 . S
C2528 H2544 0.931 . S
C2529 C2528 1.391 . S
C2529 C2533 1.376 . S
C2530 C2528 1.394 . S
C2530 C2531 1.369 . S
C2530 C2534 1.531 . S
C2531 C2530 1.369 . S
C2531 C2532 1.410 . S
C2531 C2539 1.503 . S
C2532 C2531 1.410 . S
C2532 C2533 1.392 . S
C2532 C2535 1.511 . S
C2533 C2529 1.376 . S
C2533 C2532 1.392 . S
C2533 H2545 0.929 . S
C2534 C2530 1.531 . S
C2534 H2546 0.960 . S
C2534 H2547 0.962 . S
C2534 H2548 0.960 . S
C2535 C2532 1.511 . S
C2535 H2549 0.961 . S
C2535 H2550 0.961 . S
C2535 H2551 0.961 . S
C2536 C2537 1.370 . S
C2536 C2538 1.363 . S
C2536 H2552 0.931 . S
C2537 C2536 1.370 . S
C2537 C2541 1.408 . S
C2538 C2536 1.363 . S
C2538 C2539 1.370 . S
C2538 C2542 1.524 . S
C2539 C2531 1.503 . S
C2539 C2538 1.370 . S
C2539 C2540 1.403 . S
C2540 C2539 1.403 . S
C2540 C2541 1.404 . S
C2540 C2543 1.539 . S
C2541 C2537 1.408 . S
C2541 C2540 1.404 . S
C2541 H2553 0.930 . S
C2542 C2538 1.524 . S
C2542 H2554 0.956 . S
C2542 H2555 0.961 . S
C2542 H2556 0.961 . S
C2543 C2540 1.539 . S
C2543 H2557 0.958 . S
C2543 H2558 0.961 . S
C2543 H2559 0.960 . S
H2544 C2528 0.931 . S
H2545 C2533 0.929 . S
H2546 C2534 0.960 . S
H2547 C2534 0.962 . S
H2548 C2534 0.960 . S
H2549 C2535 0.961 . S
H2550 C2535 0.961 . S
H2551 C2535 0.961 . S
H2552 C2536 0.931 . S
H2553 C2541 0.930 . S
H2554 C2542 0.956 . S
H2555 C2542 0.961 . S
H2556 C2542 0.961 . S
H2557 C2543 0.958 . S
H2558 C2543 0.961 . S
H2559 C2543 0.960 . S
C2560 C2561 1.391 . S
C2560 C2562 1.394 . S
C2560 H2576 0.931 . S
C2561 C2560 1.391 . S
C2561 C2565 1.376 . S
C2562 C2560 1.394 . S
C2562 C2563 1.369 . S
C2562 C2566 1.531 . S
C2563 C2562 1.369 . S
C2563 C2564 1.410 . S
C2563 C2571 1.503 . S
C2564 C2563 1.410 . S
C2564 C2565 1.392 . S
C2564 C2567 1.511 . S
C2565 C2561 1.376 . S
C2565 C2564 1.392 . S
C2565 H2577 0.929 . S
C2566 C2562 1.531 . S
C2566 H2578 0.960 . S
C2566 H2579 0.962 . S
C2566 H2580 0.960 . S
C2567 C2564 1.511 . S
C2567 H2581 0.961 . S
C2567 H2582 0.961 . S
C2567 H2583 0.961 . S
C2568 C2569 1.370 . S
C2568 C2570 1.363 . S
C2568 H2584 0.931 . S
C2569 C2568 1.370 . S
C2569 C2573 1.408 . S
C2570 C2568 1.363 . S
C2570 C2571 1.370 . S
C2570 C2574 1.524 . S
C2571 C2563 1.503 . S
C2571 C2570 1.370 . S
C2571 C2572 1.403 . S
C2572 C2571 1.403 . S
C2572 C2573 1.404 . S
C2572 C2575 1.539 . S
C2573 C2569 1.408 . S
C2573 C2572 1.404 . S
C2573 H2585 0.930 . S
C2574 C2570 1.524 . S
C2574 H2586 0.956 . S
C2574 H2587 0.961 . S
C2574 H2588 0.961 . S
C2575 C2572 1.539 . S
C2575 H2589 0.958 . S
C2575 H2590 0.961 . S
C2575 H2591 0.960 . S
H2576 C2560 0.931 . S
H2577 C2565 0.929 . S
H2578 C2566 0.960 . S
H2579 C2566 0.962 . S
H2580 C2566 0.960 . S
H2581 C2567 0.961 . S
H2582 C2567 0.961 . S
H2583 C2567 0.961 . S
H2584 C2568 0.931 . S
H2585 C2573 0.930 . S
H2586 C2574 0.956 . S
H2587 C2574 0.961 . S
H2588 C2574 0.961 . S
H2589 C2575 0.958 . S
H2590 C2575 0.961 . S
H2591 C2575 0.960 . S
C2592 C2593 1.391 . S
C2592 C2594 1.394 . S
C2592 H2608 0.931 . S
C2593 C2592 1.391 . S
C2593 C2597 1.376 . S
C2594 C2592 1.394 . S
C2594 C2595 1.369 . S
C2594 C2598 1.531 . S
C2595 C2594 1.369 . S
C2595 C2596 1.410 . S
C2595 C2603 1.503 . S
C2596 C2595 1.410 . S
C2596 C2597 1.392 . S
C2596 C2599 1.511 . S
C2597 C2593 1.376 . S
C2597 C2596 1.392 . S
C2597 H2609 0.929 . S
C2598 C2594 1.531 . S
C2598 H2610 0.960 . S
C2598 H2611 0.962 . S
C2598 H2612 0.960 . S
C2599 C2596 1.511 . S
C2599 H2613 0.961 . S
C2599 H2614 0.961 . S
C2599 H2615 0.961 . S
C2600 C2601 1.370 . S
C2600 C2602 1.363 . S
C2600 H2616 0.931 . S
C2601 C2600 1.370 . S
C2601 C2605 1.408 . S
C2602 C2600 1.363 . S
C2602 C2603 1.370 . S
C2602 C2606 1.524 . S
C2603 C2595 1.503 . S
C2603 C2602 1.370 . S
C2603 C2604 1.403 . S
C2604 C2603 1.403 . S
C2604 C2605 1.404 . S
C2604 C2607 1.539 . S
C2605 C2601 1.408 . S
C2605 C2604 1.404 . S
C2605 H2617 0.930 . S
C2606 C2602 1.524 . S
C2606 H2618 0.956 . S
C2606 H2619 0.961 . S
C2606 H2620 0.961 . S
C2607 C2604 1.539 . S
C2607 H2621 0.958 . S
C2607 H2622 0.961 . S
C2607 H2623 0.960 . S
H2608 C2592 0.931 . S
H2609 C2597 0.929 . S
H2610 C2598 0.960 . S
H2611 C2598 0.962 . S
H2612 C2598 0.960 . S
H2613 C2599 0.961 . S
H2614 C2599 0.961 . S
H2615 C2599 0.961 . S
H2616 C2600 0.931 . S
H2617 C2605 0.930 . S
H2618 C2606 0.956 . S
H2619 C2606 0.961 . S
H2620 C2606 0.961 . S
H2621 C2607 0.958 . S
H2622 C2607 0.961 . S
H2623 C2607 0.960 . S
C2624 C2625 1.391 . S
C2624 C2626 1.394 . S
C2624 H2640 0.931 . S
C2625 C2624 1.391 . S
C2625 C2629 1.376 . S
C2626 C2624 1.394 . S
C2626 C2627 1.369 . S
C2626 C2630 1.531 . S
C2627 C2626 1.369 . S
C2627 C2628 1.410 . S
C2627 C2635 1.503 . S
C2628 C2627 1.410 . S
C2628 C2629 1.392 . S
C2628 C2631 1.511 . S
C2629 C2625 1.376 . S
C2629 C2628 1.392 . S
C2629 H2641 0.929 . S
C2630 C2626 1.531 . S
C2630 H2642 0.960 . S
C2630 H2643 0.962 . S
C2630 H2644 0.960 . S
C2631 C2628 1.511 . S
C2631 H2645 0.961 . S
C2631 H2646 0.961 . S
C2631 H2647 0.961 . S
C2632 C2633 1.370 . S
C2632 C2634 1.363 . S
C2632 H2648 0.931 . S
C2633 C2632 1.370 . S
C2633 C2637 1.408 . S
C2634 C2632 1.363 . S
C2634 C2635 1.370 . S
C2634 C2638 1.524 . S
C2635 C2627 1.503 . S
C2635 C2634 1.370 . S
C2635 C2636 1.403 . S
C2636 C2635 1.403 . S
C2636 C2637 1.404 . S
C2636 C2639 1.539 . S
C2637 C2633 1.408 . S
C2637 C2636 1.404 . S
C2637 H2649 0.930 . S
C2638 C2634 1.524 . S
C2638 H2650 0.956 . S
C2638 H2651 0.961 . S
C2638 H2652 0.961 . S
C2639 C2636 1.539 . S
C2639 H2653 0.958 . S
C2639 H2654 0.961 . S
C2639 H2655 0.960 . S
H2640 C2624 0.931 . S
H2641 C2629 0.929 . S
H2642 C2630 0.960 . S
H2643 C2630 0.962 . S
H2644 C2630 0.960 . S
H2645 C2631 0.961 . S
H2646 C2631 0.961 . S
H2647 C2631 0.961 . S
H2648 C2632 0.931 . S
H2649 C2637 0.930 . S
H2650 C2638 0.956 . S
H2651 C2638 0.961 . S
H2652 C2638 0.961 . S
H2653 C2639 0.958 . S
H2654 C2639 0.961 . S
H2655 C2639 0.960 . S
C2656 C2657 1.391 . S
C2656 C2658 1.394 . S
C2656 H2672 0.931 . S
C2657 C2656 1.391 . S
C2657 C2661 1.376 . S
C2658 C2656 1.394 . S
C2658 C2659 1.369 . S
C2658 C2662 1.531 . S
C2659 C2658 1.369 . S
C2659 C2660 1.410 . S
C2659 C2667 1.503 . S
C2660 C2659 1.410 . S
C2660 C2661 1.392 . S
C2660 C2663 1.511 . S
C2661 C2657 1.376 . S
C2661 C2660 1.392 . S
C2661 H2673 0.929 . S
C2662 C2658 1.531 . S
C2662 H2674 0.960 . S
C2662 H2675 0.962 . S
C2662 H2676 0.960 . S
C2663 C2660 1.511 . S
C2663 H2677 0.961 . S
C2663 H2678 0.961 . S
C2663 H2679 0.961 . S
C2664 C2665 1.370 . S
C2664 C2666 1.363 . S
C2664 H2680 0.931 . S
C2665 C2664 1.370 . S
C2665 C2669 1.408 . S
C2666 C2664 1.363 . S
C2666 C2667 1.370 . S
C2666 C2670 1.524 . S
C2667 C2659 1.503 . S
C2667 C2666 1.370 . S
C2667 C2668 1.403 . S
C2668 C2667 1.403 . S
C2668 C2669 1.404 . S
C2668 C2671 1.539 . S
C2669 C2665 1.408 . S
C2669 C2668 1.404 . S
C2669 H2681 0.930 . S
C2670 C2666 1.524 . S
C2670 H2682 0.956 . S
C2670 H2683 0.961 . S
C2670 H2684 0.961 . S
C2671 C2668 1.539 . S
C2671 H2685 0.958 . S
C2671 H2686 0.961 . S
C2671 H2687 0.960 . S
H2672 C2656 0.931 . S
H2673 C2661 0.929 . S
H2674 C2662 0.960 . S
H2675 C2662 0.962 . S
H2676 C2662 0.960 . S
H2677 C2663 0.961 . S
H2678 C2663 0.961 . S
H2679 C2663 0.961 . S
H2680 C2664 0.931 . S
H2681 C2669 0.930 . S
H2682 C2670 0.956 . S
H2683 C2670 0.961 . S
H2684 C2670 0.961 . S
H2685 C2671 0.958 . S
H2686 C2671 0.961 . S
H2687 C2671 0.960 . S
C2688 C2689 1.391 . S
C2688 C2690 1.394 . S
C2688 H2704 0.931 . S
C2689 C2688 1.391 . S
C2689 C2693 1.376 . S
C2690 C2688 1.394 . S
C2690 C2691 1.369 . S
C2690 C2694 1.531 . S
C2691 C2690 1.369 . S
C2691 C2692 1.410 . S
C2691 C2699 1.503 . S
C2692 C2691 1.410 . S
C2692 C2693 1.392 . S
C2692 C2695 1.511 . S
C2693 C2689 1.376 . S
C2693 C2692 1.392 . S
C2693 H2705 0.929 . S
C2694 C2690 1.531 . S
C2694 H2706 0.960 . S
C2694 H2707 0.962 . S
C2694 H2708 0.960 . S
C2695 C2692 1.511 . S
C2695 H2709 0.961 . S
C2695 H2710 0.961 . S
C2695 H2711 0.961 . S
C2696 C2697 1.370 . S
C2696 C2698 1.363 . S
C2696 H2712 0.931 . S
C2697 C2696 1.370 . S
C2697 C2701 1.408 . S
C2698 C2696 1.363 . S
C2698 C2699 1.370 . S
C2698 C2702 1.524 . S
C2699 C2691 1.503 . S
C2699 C2698 1.370 . S
C2699 C2700 1.403 . S
C2700 C2699 1.403 . S
C2700 C2701 1.404 . S
C2700 C2703 1.539 . S
C2701 C2697 1.408 . S
C2701 C2700 1.404 . S
C2701 H2713 0.930 . S
C2702 C2698 1.524 . S
C2702 H2714 0.956 . S
C2702 H2715 0.961 . S
C2702 H2716 0.961 . S
C2703 C2700 1.539 . S
C2703 H2717 0.958 . S
C2703 H2718 0.961 . S
C2703 H2719 0.960 . S
H2704 C2688 0.931 . S
H2705 C2693 0.929 . S
H2706 C2694 0.960 . S
H2707 C2694 0.962 . S
H2708 C2694 0.960 . S
H2709 C2695 0.961 . S
H2710 C2695 0.961 . S
H2711 C2695 0.961 . S
H2712 C2696 0.931 . S
H2713 C2701 0.930 . S
H2714 C2702 0.956 . S
H2715 C2702 0.961 . S
H2716 C2702 0.961 . S
H2717 C2703 0.958 . S
H2718 C2703 0.961 . S
H2719 C2703 0.960 . S
C2720 C2721 1.391 . S
C2720 C2722 1.394 . S
C2720 H2736 0.931 . S
C2721 C2720 1.391 . S
C2721 C2725 1.376 . S
C2722 C2720 1.394 . S
C2722 C2723 1.369 . S
C2722 C2726 1.531 . S
C2723 C2722 1.369 . S
C2723 C2724 1.410 . S
C2723 C2731 1.503 . S
C2724 C2723 1.410 . S
C2724 C2725 1.392 . S
C2724 C2727 1.511 . S
C2725 C2721 1.376 . S
C2725 C2724 1.392 . S
C2725 H2737 0.929 . S
C2726 C2722 1.531 . S
C2726 H2738 0.960 . S
C2726 H2739 0.962 . S
C2726 H2740 0.960 . S
C2727 C2724 1.511 . S
C2727 H2741 0.961 . S
C2727 H2742 0.961 . S
C2727 H2743 0.961 . S
C2728 C2729 1.370 . S
C2728 C2730 1.363 . S
C2728 H2744 0.931 . S
C2729 C2728 1.370 . S
C2729 C2733 1.408 . S
C2730 C2728 1.363 . S
C2730 C2731 1.370 . S
C2730 C2734 1.524 . S
C2731 C2723 1.503 . S
C2731 C2730 1.370 . S
C2731 C2732 1.403 . S
C2732 C2731 1.403 . S
C2732 C2733 1.404 . S
C2732 C2735 1.539 . S
C2733 C2729 1.408 . S
C2733 C2732 1.404 . S
C2733 H2745 0.930 . S
C2734 C2730 1.524 . S
C2734 H2746 0.956 . S
C2734 H2747 0.961 . S
C2734 H2748 0.961 . S
C2735 C2732 1.539 . S
C2735 H2749 0.958 . S
C2735 H2750 0.961 . S
C2735 H2751 0.960 . S
H2736 C2720 0.931 . S
H2737 C2725 0.929 . S
H2738 C2726 0.960 . S
H2739 C2726 0.962 . S
H2740 C2726 0.960 . S
H2741 C2727 0.961 . S
H2742 C2727 0.961 . S
H2743 C2727 0.961 . S
H2744 C2728 0.931 . S
H2745 C2733 0.930 . S
H2746 C2734 0.956 . S
H2747 C2734 0.961 . S
H2748 C2734 0.961 . S
H2749 C2735 0.958 . S
H2750 C2735 0.961 . S
H2751 C2735 0.960 . S
C2752 C2753 1.391 . S
C2752 C2754 1.394 . S
C2752 H2768 0.931 . S
C2753 C2752 1.391 . S
C2753 C2757 1.376 . S
C2754 C2752 1.394 . S
C2754 C2755 1.369 . S
C2754 C2758 1.531 . S
C2755 C2754 1.369 . S
C2755 C2756 1.410 . S
C2755 C2763 1.503 . S
C2756 C2755 1.410 . S
C2756 C2757 1.392 . S
C2756 C2759 1.511 . S
C2757 C2753 1.376 . S
C2757 C2756 1.392 . S
C2757 H2769 0.929 . S
C2758 C2754 1.531 . S
C2758 H2770 0.960 . S
C2758 H2771 0.962 . S
C2758 H2772 0.960 . S
C2759 C2756 1.511 . S
C2759 H2773 0.961 . S
C2759 H2774 0.961 . S
C2759 H2775 0.961 . S
C2760 C2761 1.370 . S
C2760 C2762 1.363 . S
C2760 H2776 0.931 . S
C2761 C2760 1.370 . S
C2761 C2765 1.408 . S
C2762 C2760 1.363 . S
C2762 C2763 1.370 . S
C2762 C2766 1.524 . S
C2763 C2755 1.503 . S
C2763 C2762 1.370 . S
C2763 C2764 1.403 . S
C2764 C2763 1.403 . S
C2764 C2765 1.404 . S
C2764 C2767 1.539 . S
C2765 C2761 1.408 . S
C2765 C2764 1.404 . S
C2765 H2777 0.930 . S
C2766 C2762 1.524 . S
C2766 H2778 0.956 . S
C2766 H2779 0.961 . S
C2766 H2780 0.961 . S
C2767 C2764 1.539 . S
C2767 H2781 0.958 . S
C2767 H2782 0.961 . S
C2767 H2783 0.960 . S
H2768 C2752 0.931 . S
H2769 C2757 0.929 . S
H2770 C2758 0.960 . S
H2771 C2758 0.962 . S
H2772 C2758 0.960 . S
H2773 C2759 0.961 . S
H2774 C2759 0.961 . S
H2775 C2759 0.961 . S
H2776 C2760 0.931 . S
H2777 C2765 0.930 . S
H2778 C2766 0.956 . S
H2779 C2766 0.961 . S
H2780 C2766 0.961 . S
H2781 C2767 0.958 . S
H2782 C2767 0.961 . S
H2783 C2767 0.960 . S
C737 C7 1.670 . S
C745 C76 1.669 . S
C769 C53 1.645 . S
C777 C30 1.656 . S
C801 C99 1.653 . S
C809 C168 1.666 . S
C833 C145 1.669 . S
C841 C122 1.661 . S
C865 C191 1.655 . S
C873 C260 1.657 . S
C897 C237 1.671 . S
C905 C214 1.668 . S
C929 C283 1.645 . S
C937 C352 1.662 . S
C961 C306 1.672 . S
C969 C329 1.668 . S
C993 C444 1.653 . S
C1001 C375 1.657 . S
C1025 C398 1.646 . S
C1033 C421 1.656 . S
C1057 C467 1.646 . S
C1065 C536 1.662 . S
C1089 C513 1.650 . S
C1097 C490 1.665 . S
C1121 C559 1.644 . S
C1129 C628 1.656 . S
C1153 C605 1.663 . S
C1161 C582 1.668 . S
C1185 C651 1.643 . S
C1193 C720 1.658 . S
C1217 C674 1.643 . S
C1225 C697 1.660 . S
C1249 N288 1.447 . S
C1257 N12 1.480 . S
C1281 N35 1.486 . S
C1289 N495 1.465 . S
C1313 N58 1.493 . S
C1321 N150 1.464 . S
C1345 N725 1.474 . S
C1353 N81 1.468 . S
C1377 N104 1.466 . S
C1385 N196 1.471 . S
C1409 N403 1.447 . S
C1417 N127 1.480 . S
C1441 N633 1.465 . S
C1449 N173 1.472 . S
C1473 N679 1.485 . S
C1481 N219 1.466 . S
C1505 N334 1.481 . S
C1513 N242 1.468 . S
C1537 N541 1.448 . S
C1545 N265 1.480 . S
C1569 N311 1.483 . S
C1577 N587 1.465 . S
C1601 N449 1.448 . S
C1609 N357 1.480 . S
C1633 N656 1.489 . S
C1641 N380 1.463 . S
C1665 N518 1.484 . S
C1673 N426 1.465 . S
C1697 N564 1.484 . S
C1705 N472 1.465 . S
C1729 N610 1.490 . S
C1737 N702 1.463 . S
C1761 C246 1.717 . S
C1769 C16 1.695 . S
C1793 C39 1.664 . S
C1801 C269 1.698 . S
C1825 C200 1.663 . S
C1833 C62 1.695 . S
C1857 C223 1.713 . S
C1865 C85 1.700 . S
C1889 C108 1.694 . S
C1897 C338 1.683 . S
C1921 C131 1.692 . S
C1929 C361 1.683 . S
C1953 C292 1.663 . S
C1961 C154 1.699 . S
C1985 C177 1.713 . S
C1993 C315 1.685 . S
C2017 C614 1.717 . S
C2025 C384 1.695 . S
C2049 C637 1.663 . S
C2057 C407 1.693 . S
C2081 C430 1.717 . S
C2089 C568 1.696 . S
C2113 C453 1.666 . S
C2121 C591 1.700 . S
C2145 C476 1.705 . S
C2153 C706 1.701 . S
C2177 C499 1.665 . S
C2185 C729 1.695 . S
C2209 C660 1.705 . S
C2217 C522 1.683 . S
C2241 C683 1.707 . S
C2249 C545 1.700 . S
C2273 N2 1.484 . S
C2281 N577 1.485 . S
C2305 N554 1.467 . S
C2313 N25 1.463 . S
C2337 N48 1.458 . S
C2345 N623 1.466 . S
C2369 N71 1.484 . S
C2377 N600 1.485 . S
C2401 N94 1.500 . S
C2409 N669 1.472 . S
C2433 N117 1.493 . S
C2441 N646 1.477 . S
C2465 N715 1.505 . S
C2473 N140 1.466 . S
C2497 N692 1.448 . S
C2505 N163 1.474 . S
C2529 N393 1.440 . S
C2537 N186 1.475 . S
C2561 N370 1.503 . S
C2569 N209 1.474 . S
C2593 N232 1.477 . S
C2601 N439 1.487 . S
C2625 N255 1.500 . S
C2633 N416 1.464 . S
C2657 N485 1.504 . S
C2665 N278 1.468 . S
C2689 N301 1.455 . S
C2697 N462 1.471 . S
C2721 N324 1.438 . S
C2729 N531 1.483 . S
C2753 N347 1.445 . S
C2761 N508 1.477 . S
