# Generated by pormake.
# Topology ecf, (8)-cn, num edge types: 1
# Building blocks:
#     Node 0, Type 0, BuildingBlock: AJUNOK_clean_sbu_0, # of connection points: 8
#     Node 1, Type 0, BuildingBlock: AJUNOK_clean_sbu_0, # of connection points: 8
#     Node 2, Type 0, BuildingBlock: AJUNOK_clean_sbu_0, # of connection points: 8
#     Node 3, Type 0, BuildingBlock: AJUNOK_clean_sbu_0, # of connection points: 8
#     Node 4, Type 0, BuildingBlock: AJUNOK_clean_sbu_0, # of connection points: 8
#     Node 5, Type 0, BuildingBlock: AJUNOK_clean_sbu_0, # of connection points: 8
#     Edge 6, Type (0, 0), BuildingBlock: MIFKUJ_clean_linker_0, # of connection points: 2
#     Edge 7, Type (0, 0), BuildingBlock: MIFKUJ_clean_linker_0, # of connection points: 2
#     Edge 8, Type (0, 0), BuildingBlock: MIFKUJ_clean_linker_0, # of connection points: 2
#     Edge 9, Type (0, 0), BuildingBlock: MIFKUJ_clean_linker_0, # of connection points: 2
#     Edge 10, Type (0, 0), BuildingBlock: MIFKUJ_clean_linker_0, # of connection points: 2
#     Edge 11, Type (0, 0), BuildingBlock: MIFKUJ_clean_linker_0, # of connection points: 2
#     Edge 12, Type (0, 0), BuildingBlock: MIFKUJ_clean_linker_0, # of connection points: 2
#     Edge 13, Type (0, 0), BuildingBlock: MIFKUJ_clean_linker_0, # of connection points: 2
#     Edge 14, Type (0, 0), BuildingBlock: MIFKUJ_clean_linker_0, # of connection points: 2
#     Edge 15, Type (0, 0), BuildingBlock: MIFKUJ_clean_linker_0, # of connection points: 2
#     Edge 16, Type (0, 0), BuildingBlock: MIFKUJ_clean_linker_0, # of connection points: 2
#     Edge 17, Type (0, 0), BuildingBlock: MIFKUJ_clean_linker_0, # of connection points: 2
#     Edge 18, Type (0, 0), BuildingBlock: MIFKUJ_clean_linker_0, # of connection points: 2
#     Edge 19, Type (0, 0), BuildingBlock: MIFKUJ_clean_linker_0, # of connection points: 2
#     Edge 20, Type (0, 0), BuildingBlock: MIFKUJ_clean_linker_0, # of connection points: 2
#     Edge 21, Type (0, 0), BuildingBlock: MIFKUJ_clean_linker_0, # of connection points: 2
#     Edge 22, Type (0, 0), BuildingBlock: MIFKUJ_clean_linker_0, # of connection points: 2
#     Edge 23, Type (0, 0), BuildingBlock: MIFKUJ_clean_linker_0, # of connection points: 2
#     Edge 24, Type (0, 0), BuildingBlock: MIFKUJ_clean_linker_0, # of connection points: 2
#     Edge 25, Type (0, 0), BuildingBlock: MIFKUJ_clean_linker_0, # of connection points: 2
#     Edge 26, Type (0, 0), BuildingBlock: MIFKUJ_clean_linker_0, # of connection points: 2
#     Edge 27, Type (0, 0), BuildingBlock: MIFKUJ_clean_linker_0, # of connection points: 2
#     Edge 28, Type (0, 0), BuildingBlock: MIFKUJ_clean_linker_0, # of connection points: 2
#     Edge 29, Type (0, 0), BuildingBlock: MIFKUJ_clean_linker_0, # of connection points: 2
# Relax obj value: 0.390
# Max RMSD: 0.282
# Mean RMSD: 0.282
data_MOF--net-ecf--node1-AJUNOK_clean_sbu_0--edge1-MIFKUJ_clean_linker_0
_symmetry_space_group_name_H-M    P1
_symmetry_Int_Tables_number       1
_symmetry_cell_setting            triclinic
loop_
_symmetry_equiv_pos_as_xyz
'x, y, z'
_cell_length_a     48.708726
_cell_length_b     48.75882
_cell_length_c     30.943771
_cell_angle_alpha  89.959721
_cell_angle_beta   90.138022
_cell_angle_gamma 119.83238
loop_
_atom_site_label
_atom_site_type_symbol
_atom_site_fract_x
_atom_site_fract_y
_atom_site_fract_z
_atom_type_partial_charge
Cd0 Cd 0.14006 0.33583 0.23045 0.0
Cd1 Cd 0.20473 0.3379 0.30819 0.0
C2 C 0.0893 0.26503 0.2113 0.0
N3 N 0.1168 0.28176 0.23346 0.0
C4 C 0.11169 0.23468 0.26455 0.0
C5 C 0.08254 0.21684 0.24337 0.0
C6 C 0.0717 0.23235 0.21572 0.0
C7 C 0.12862 0.26742 0.25892 0.0
H8 H 0.08045 0.27728 0.19153 0.0
H9 H 0.1505 0.28169 0.27594 0.0
C10 C 0.19835 0.31821 0.19249 0.0
C11 C 0.24391 0.3983 0.24195 0.0
C12 C 0.26462 0.42996 0.23127 0.0
C13 C 0.2733 0.45385 0.26267 0.0
C14 C 0.25891 0.44486 0.30354 0.0
C15 C 0.23767 0.41312 0.31238 0.0
N16 N 0.23079 0.39043 0.282 0.0
H17 H 0.23907 0.38015 0.21844 0.0
H18 H 0.2275 0.40649 0.34427 0.0
C19 C 0.22096 0.28217 0.29599 0.0
N20 N 0.20097 0.28913 0.31769 0.0
C21 C 0.17187 0.23658 0.34491 0.0
C22 C 0.19036 0.22802 0.31974 0.0
C23 C 0.21592 0.25144 0.29631 0.0
C24 C 0.17768 0.26756 0.34345 0.0
H25 H 0.23997 0.30017 0.27693 0.0
H26 H 0.1626 0.27399 0.36112 0.0
C27 C 0.12353 0.31533 0.3409 0.0
C28 C 0.09831 0.34778 0.17994 0.0
N29 N 0.17177 0.38775 0.25301 0.0
C30 C 0.16748 0.39722 0.29252 0.0
C31 C 0.17835 0.42921 0.30065 0.0
C32 C 0.1931 0.45154 0.2675 0.0
C33 C 0.19796 0.44109 0.22744 0.0
C34 C 0.18666 0.40891 0.2207 0.0
C35 C 0.25228 0.36245 0.37291 0.0
O36 O 0.17689 0.32529 0.18432 0.0
O37 O 0.20841 0.32027 0.23125 0.0
O38 O 0.15196 0.32125 0.34689 0.0
O39 O 0.11494 0.31891 0.30338 0.0
O40 O 0.12195 0.34789 0.16274 0.0
O41 O 0.09349 0.34048 0.21946 0.0
O42 O 0.22485 0.35841 0.37983 0.0
O43 O 0.25719 0.35393 0.33638 0.0
H44 H 0.15417 0.37993 0.31703 0.0
H45 H 0.18813 0.40052 0.18891 0.0
H46 H 0.12076 0.22353 0.28602 0.0
H47 H 0.04904 0.21963 0.19945 0.0
H48 H 0.2742 0.43534 0.19891 0.0
H49 H 0.26492 0.46179 0.32945 0.0
H50 H 0.15228 0.21922 0.36398 0.0
H51 H 0.23073 0.24575 0.27655 0.0
H52 H 0.17416 0.43622 0.33204 0.0
H53 H 0.20853 0.45728 0.20064 0.0
Cd54 Cd 0.87172 0.19152 0.80621 0.0
Cd55 Cd 0.81034 0.13031 0.72341 0.0
C56 C 0.93824 0.1956 0.792 0.0
N57 N 0.90919 0.17558 0.80851 0.0
C58 C 0.92307 0.13554 0.81896 0.0
C59 C 0.95193 0.15441 0.79764 0.0
C60 C 0.96006 0.18542 0.78609 0.0
C61 C 0.90179 0.14656 0.82369 0.0
H62 H 0.94391 0.219 0.78154 0.0
H63 H 0.87886 0.13124 0.83758 0.0
C64 C 0.80887 0.11174 0.83488 0.0
C65 C 0.76587 0.14955 0.77757 0.0
C66 C 0.74495 0.16112 0.78266 0.0
C67 C 0.74581 0.18383 0.75367 0.0
C68 C 0.7689 0.195 0.72093 0.0
C69 C 0.78916 0.18252 0.71677 0.0
N70 N 0.78746 0.16037 0.74505 0.0
H71 H 0.76344 0.13053 0.79802 0.0
H72 H 0.80543 0.18957 0.68988 0.0
C73 C 0.81954 0.07031 0.7251 0.0
N74 N 0.83777 0.10232 0.72543 0.0
C75 C 0.88489 0.09857 0.72662 0.0
C76 C 0.86661 0.06548 0.72709 0.0
C77 C 0.83349 0.05135 0.72605 0.0
C78 C 0.86991 0.11664 0.72617 0.0
H79 H 0.79405 0.05945 0.72475 0.0
H80 H 0.88405 0.14201 0.72703 0.0
C81 C 0.88707 0.19328 0.691 0.0
C82 C 0.89868 0.23766 0.87229 0.0
N83 N 0.84425 0.21736 0.78511 0.0
C84 C 0.85574 0.23898 0.75262 0.0
C85 C 0.84484 0.26039 0.74705 0.0
C86 C 0.8223 0.2601 0.77569 0.0
C87 C 0.81069 0.2373 0.80877 0.0
C88 C 0.82231 0.21635 0.81318 0.0
C89 C 0.76243 0.09743 0.66028 0.0
O90 O 0.83254 0.13926 0.84145 0.0
O91 O 0.79714 0.10393 0.79696 0.0
O92 O 0.85931 0.1705 0.68275 0.0
O93 O 0.89488 0.20243 0.73003 0.0
O94 O 0.87356 0.21156 0.87832 0.0
O95 O 0.91238 0.24156 0.83618 0.0
O96 O 0.78698 0.12351 0.65214 0.0
O97 O 0.76088 0.08553 0.69717 0.0
H98 H 0.87462 0.24091 0.73237 0.0
H99 H 0.81464 0.19995 0.83999 0.0
H100 H 0.91591 0.11176 0.82936 0.0
H101 H 0.98256 0.20127 0.77111 0.0
H102 H 0.7271 0.15088 0.80757 0.0
H103 H 0.77094 0.21271 0.69803 0.0
H104 H 0.91049 0.11035 0.72706 0.0
H105 H 0.81845 0.0259 0.72726 0.0
H106 H 0.85533 0.27809 0.72195 0.0
H107 H 0.79322 0.23596 0.83151 0.0
Cd108 Cd 0.684 0.80204 0.22438 0.0
Cd109 Cd 0.67286 0.85991 0.29855 0.0
C110 C 0.75317 0.8175 0.24388 0.0
N111 N 0.73844 0.83409 0.23397 0.0
C112 C 0.78664 0.883 0.24445 0.0
C113 C 0.80164 0.86635 0.25827 0.0
C114 C 0.78483 0.83315 0.25605 0.0
C115 C 0.75462 0.86628 0.23293 0.0
H116 H 0.73989 0.79195 0.24401 0.0
H117 H 0.74265 0.87917 0.225 0.0
C118 C 0.69163 0.87268 0.18231 0.0
C119 C 0.60675 0.83841 0.25015 0.0
C120 C 0.57418 0.8268 0.24664 0.0
C121 C 0.55366 0.80703 0.27909 0.0
C122 C 0.56683 0.7989 0.31395 0.0
C123 C 0.59956 0.81113 0.31621 0.0
N124 N 0.61871 0.83015 0.2843 0.0
H125 H 0.62261 0.85511 0.22657 0.0
H126 H 0.60985 0.8063 0.34416 0.0
C127 C 0.73528 0.92519 0.28362 0.0
N128 N 0.72593 0.89757 0.30492 0.0
C129 C 0.77819 0.9166 0.3325 0.0
C130 C 0.78868 0.94462 0.30888 0.0
C131 C 0.76675 0.94903 0.28483 0.0
C132 C 0.74641 0.8931 0.3299 0.0
H133 H 0.7183 0.92866 0.26539 0.0
H134 H 0.73833 0.87125 0.34734 0.0
C135 C 0.69196 0.80043 0.33863 0.0
C136 C 0.67063 0.75008 0.16981 0.0
N137 N 0.63104 0.78252 0.24126 0.0
C138 C 0.61756 0.76271 0.27542 0.0
C139 C 0.58471 0.74327 0.2775 0.0
C140 C 0.56572 0.74353 0.24347 0.0
C141 C 0.58024 0.76423 0.2087 0.0
C142 C 0.61313 0.78347 0.20812 0.0
C143 C 0.65522 0.89645 0.35059 0.0
O144 O 0.69227 0.84711 0.17684 0.0
O145 O 0.68532 0.8792 0.21973 0.0
O146 O 0.68442 0.82194 0.34361 0.0
O147 O 0.69309 0.79091 0.30066 0.0
O148 O 0.66703 0.77281 0.15755 0.0
O149 O 0.68365 0.75275 0.20619 0.0
O150 O 0.6594 0.87495 0.36699 0.0
O151 O 0.66048 0.90156 0.31056 0.0
H152 H 0.6322 0.76055 0.29984 0.0
H153 H 0.62456 0.79801 0.18016 0.0
H154 H 0.79893 0.90856 0.24477 0.0
H155 H 0.79578 0.81928 0.26483 0.0
H156 H 0.56549 0.83467 0.21988 0.0
H157 H 0.55216 0.78381 0.3398 0.0
H158 H 0.79456 0.91246 0.35131 0.0
H159 H 0.77392 0.97068 0.26698 0.0
H160 H 0.57444 0.72693 0.30421 0.0
H161 H 0.56639 0.76476 0.18161 0.0
Cd162 Cd 0.80239 0.66479 0.81359 0.0
Cd163 Cd 0.86563 0.67013 0.7355 0.0
C164 C 0.80737 0.73168 0.80134 0.0
N165 N 0.82623 0.71974 0.81302 0.0
C166 C 0.86916 0.77164 0.82735 0.0
C167 C 0.85039 0.78479 0.8149 0.0
C168 C 0.81917 0.76419 0.80111 0.0
C169 C 0.8567 0.73902 0.82557 0.0
H170 H 0.78306 0.71588 0.79207 0.0
H171 H 0.87147 0.72939 0.83475 0.0
C172 C 0.87857 0.68022 0.85131 0.0
C173 C 0.84921 0.60521 0.78603 0.0
C174 C 0.83921 0.57299 0.78954 0.0
C175 C 0.81975 0.55193 0.75734 0.0
C176 C 0.80989 0.56387 0.723 0.0
C177 C 0.82026 0.59623 0.72092 0.0
N178 N 0.8394 0.61616 0.75229 0.0
H179 H 0.86591 0.6215 0.80923 0.0
H180 H 0.81402 0.6057 0.69336 0.0
C181 C 0.92386 0.73769 0.75485 0.0
N182 N 0.8946 0.72542 0.73703 0.0
C183 C 0.90541 0.77709 0.7157 0.0
C184 C 0.9361 0.79023 0.73297 0.0
C185 C 0.94469 0.77006 0.75412 0.0
C186 C 0.8849 0.74444 0.71821 0.0
H187 H 0.93148 0.72222 0.76862 0.0
H188 H 0.86176 0.73446 0.70374 0.0
C189 C 0.80154 0.68145 0.70046 0.0
C190 C 0.74939 0.64618 0.86868 0.0
N191 N 0.78196 0.61257 0.79066 0.0
C192 C 0.76201 0.60275 0.75612 0.0
C193 C 0.74154 0.57059 0.74882 0.0
C194 C 0.74111 0.54798 0.77755 0.0
C195 C 0.76265 0.55889 0.81239 0.0
C196 C 0.78239 0.5914 0.81888 0.0
C197 C 0.90164 0.65862 0.67369 0.0
O198 O 0.85009 0.67335 0.85915 0.0
O199 O 0.8871 0.68066 0.81225 0.0
O200 O 0.8247 0.67684 0.69314 0.0
O201 O 0.79161 0.67949 0.73906 0.0
O202 O 0.77575 0.65114 0.88339 0.0
O203 O 0.74846 0.65219 0.82913 0.0
O204 O 0.87522 0.65624 0.66453 0.0
O205 O 0.91255 0.66845 0.71122 0.0
H206 H 0.76032 0.6198 0.73576 0.0
H207 H 0.79719 0.59981 0.84741 0.0
H208 H 0.89315 0.78614 0.83894 0.0
H209 H 0.80383 0.77285 0.78987 0.0
H210 H 0.84804 0.56496 0.81597 0.0
H211 H 0.79492 0.54849 0.69746 0.0
H212 H 0.89765 0.79156 0.69901 0.0
H213 H 0.96762 0.779 0.7693 0.0
H214 H 0.72483 0.56385 0.72239 0.0
H215 H 0.76365 0.54263 0.83529 0.0
Cd216 Cd 0.19968 0.86544 0.22945 0.0
Cd217 Cd 0.13464 0.8075 0.31142 0.0
C218 C 0.14576 0.8806 0.25948 0.0
N219 N 0.16837 0.8884 0.22902 0.0
C220 C 0.16001 0.92941 0.20202 0.0
C221 C 0.13775 0.92315 0.23487 0.0
C222 C 0.12989 0.89768 0.26297 0.0
C223 C 0.17516 0.91163 0.19974 0.0
H224 H 0.14138 0.86215 0.2821 0.0
H225 H 0.19348 0.91733 0.17597 0.0
C226 C 0.12135 0.80898 0.19542 0.0
C227 C 0.15169 0.7625 0.25635 0.0
C228 C 0.16098 0.73993 0.25016 0.0
C229 C 0.18141 0.73751 0.28004 0.0
C230 C 0.19299 0.75889 0.31478 0.0
C231 C 0.18289 0.781 0.31991 0.0
N232 N 0.16274 0.78251 0.29074 0.0
H233 H 0.13424 0.76275 0.23504 0.0
H234 H 0.18992 0.79597 0.34827 0.0
C235 C 0.07007 0.81046 0.30789 0.0
N236 N 0.09793 0.82297 0.32983 0.0
C237 C 0.08555 0.85765 0.36884 0.0
C238 C 0.05746 0.8463 0.34511 0.0
C239 C 0.04924 0.82179 0.31521 0.0
C240 C 0.10541 0.84528 0.36101 0.0
H241 H 0.06443 0.79231 0.28389 0.0
H242 H 0.12723 0.85426 0.37892 0.0
C243 C 0.19979 0.88518 0.34133 0.0
C244 C 0.25106 0.90603 0.17533 0.0
N245 N 0.22108 0.83354 0.24871 0.0
C246 C 0.24127 0.84297 0.28297 0.0
C247 C 0.26185 0.83104 0.28886 0.0
C248 C 0.2622 0.80959 0.25876 0.0
C249 C 0.24058 0.79984 0.2241 0.0
C250 C 0.2205 0.81253 0.21932 0.0
C251 C 0.10311 0.75353 0.3646 0.0
O252 O 0.15043 0.82777 0.18617 0.0
O253 O 0.1131 0.80201 0.23489 0.0
O254 O 0.17596 0.85798 0.34901 0.0
O255 O 0.21075 0.89204 0.30298 0.0
O256 O 0.22772 0.88113 0.16037 0.0
O257 O 0.24953 0.91251 0.21448 0.0
O258 O 0.12666 0.77869 0.37878 0.0
O259 O 0.09353 0.75436 0.32678 0.0
H260 H 0.24267 0.86106 0.3045 0.0
H261 H 0.2054 0.80666 0.19115 0.0
H262 H 0.16725 0.94918 0.18016 0.0
H263 H 0.11278 0.89205 0.2885 0.0
H264 H 0.15148 0.72387 0.22298 0.0
H265 H 0.20835 0.75747 0.33894 0.0
H266 H 0.09238 0.87637 0.39242 0.0
H267 H 0.02768 0.81254 0.29634 0.0
H268 H 0.27853 0.84 0.31544 0.0
H269 H 0.2397 0.7832 0.20024 0.0
Cd270 Cd 0.33696 0.14322 0.80103 0.0
Cd271 Cd 0.32653 0.19948 0.72381 0.0
C272 C 0.27317 0.07922 0.78357 0.0
N273 N 0.28283 0.10775 0.80234 0.0
C274 C 0.22958 0.09245 0.82124 0.0
C275 C 0.21875 0.06327 0.80025 0.0
C276 C 0.24117 0.05689 0.78123 0.0
C277 C 0.26184 0.11452 0.8216 0.0
H278 H 0.29038 0.07391 0.76988 0.0
H279 H 0.26987 0.13688 0.83747 0.0
C280 C 0.31483 0.20028 0.83773 0.0
C281 C 0.39143 0.23814 0.77604 0.0
C282 C 0.42399 0.25848 0.78046 0.0
C283 C 0.44459 0.26008 0.74758 0.0
C284 C 0.43176 0.2401 0.71154 0.0
C285 C 0.399 0.2201 0.70842 0.0
N286 N 0.37964 0.21937 0.74054 0.0
H287 H 0.37552 0.23878 0.7997 0.0
H288 H 0.38887 0.20629 0.67942 0.0
C289 C 0.2568 0.18559 0.71143 0.0
N290 N 0.27175 0.16859 0.71623 0.0
C291 C 0.22367 0.12051 0.70142 0.0
C292 C 0.20765 0.13757 0.69516 0.0
C293 C 0.22469 0.17055 0.70148 0.0
C294 C 0.25574 0.13654 0.71257 0.0
H295 H 0.27 0.21102 0.71486 0.0
H296 H 0.26776 0.12329 0.71749 0.0
C297 C 0.32043 0.12832 0.68448 0.0
C298 C 0.35342 0.11077 0.86289 0.0
N299 N 0.39085 0.17025 0.78173 0.0
C300 C 0.40115 0.16099 0.74681 0.0
C301 C 0.4334 0.17142 0.74153 0.0
C302 C 0.4553 0.19091 0.77307 0.0
C303 C 0.44396 0.20036 0.80849 0.0
C304 C 0.41154 0.18945 0.81241 0.0
C305 C 0.33962 0.25518 0.6776 0.0
O306 O 0.32532 0.18127 0.84459 0.0
O307 O 0.31199 0.20741 0.79898 0.0
O308 O 0.3222 0.15486 0.67661 0.0
O309 O 0.32429 0.12166 0.72322 0.0
O310 O 0.35445 0.13662 0.87156 0.0
O311 O 0.34313 0.09899 0.82587 0.0
O312 O 0.33856 0.23175 0.65832 0.0
O313 O 0.33298 0.25185 0.71738 0.0
H314 H 0.38432 0.14437 0.72397 0.0
H315 H 0.40269 0.1954 0.84083 0.0
H316 H 0.21346 0.0983 0.83734 0.0
H317 H 0.23427 0.03514 0.76389 0.0
H318 H 0.43274 0.27405 0.80822 0.0
H319 H 0.44678 0.24069 0.68539 0.0
H320 H 0.21191 0.09514 0.69726 0.0
H321 H 0.21347 0.18487 0.6992 0.0
H322 H 0.44081 0.16281 0.71425 0.0
H323 H 0.45986 0.21541 0.83355 0.0
H324 H 0.15699 0.47251 0.30757 0.0
H325 H 0.16564 0.52635 0.30913 0.0
H326 H 0.2535 0.55961 0.24106 0.0
H327 H 0.2447 0.50574 0.23792 0.0
H328 H 0.23858 0.59562 0.33069 0.0
H329 H 0.2261 0.56816 0.17518 0.0
H330 H 0.20045 0.52914 0.11665 0.0
H331 H 0.10923 0.51163 0.15908 0.0
H332 H 0.13441 0.55025 0.21828 0.0
H333 H 0.23861 0.74038 0.29034 0.0
H334 H 0.25016 0.69724 0.28595 0.0
H335 H 0.15133 0.63179 0.26075 0.0
H336 H 0.14025 0.67529 0.26331 0.0
H337 H 0.18249 0.61624 0.21204 0.0
H338 H 0.19353 0.64327 0.36631 0.0
H339 H 0.21741 0.68067 0.42705 0.0
H340 H 0.30973 0.69834 0.38996 0.0
H341 H 0.28634 0.66114 0.32895 0.0
C342 C 0.17858 0.49136 0.29378 0.0
C343 C 0.20035 0.4848 0.27298 0.0
C344 C 0.18342 0.52211 0.29464 0.0
C345 C 0.21026 0.54694 0.27524 0.0
C346 C 0.23273 0.54083 0.25621 0.0
C347 C 0.22763 0.50998 0.25452 0.0
C348 C 0.21267 0.57832 0.2712 0.0
C349 C 0.22688 0.60056 0.30442 0.0
C350 C 0.19719 0.58448 0.23718 0.0
C351 C 0.18207 0.56177 0.20128 0.0
C352 C 0.20056 0.55578 0.17219 0.0
C353 C 0.18612 0.53379 0.13888 0.0
C354 C 0.15322 0.51785 0.13422 0.0
C355 C 0.1347 0.52396 0.16277 0.0
C356 C 0.14904 0.5459 0.19617 0.0
C357 C 0.21952 0.71686 0.28342 0.0
C358 C 0.18868 0.71138 0.27668 0.0
C359 C 0.22604 0.69201 0.28115 0.0
C360 C 0.20161 0.66089 0.2733 0.0
C361 C 0.17076 0.65549 0.26648 0.0
C362 C 0.1644 0.68042 0.26793 0.0
C363 C 0.20756 0.63366 0.27243 0.0
C364 C 0.1948 0.61195 0.23813 0.0
C365 C 0.22441 0.6281 0.30561 0.0
C366 C 0.23824 0.64962 0.34302 0.0
C367 C 0.21891 0.65515 0.37118 0.0
C368 C 0.23236 0.67631 0.40561 0.0
C369 C 0.26507 0.6919 0.41233 0.0
C370 C 0.28439 0.68624 0.38474 0.0
C371 C 0.27106 0.66507 0.35031 0.0
H372 H 0.27544 0.70834 0.43893 0.0
H373 H 0.14207 0.50082 0.10842 0.0
H374 H 0.49358 0.1928 0.83953 0.0
H375 H 0.54676 0.20012 0.8351 0.0
H376 H 0.54667 0.21293 0.69719 0.0
H377 H 0.49355 0.20623 0.70149 0.0
H378 H 0.56474 0.17231 0.71373 0.0
H379 H 0.59663 0.2755 0.76786 0.0
H380 H 0.59692 0.31604 0.81626 0.0
H381 H 0.62104 0.27628 0.92369 0.0
H382 H 0.62057 0.23551 0.87597 0.0
H383 H 0.71917 0.1995 0.68615 0.0
H384 H 0.67525 0.2098 0.68857 0.0
H385 H 0.67015 0.198 0.82699 0.0
H386 H 0.71601 0.19044 0.8254 0.0
H387 H 0.65621 0.24138 0.80731 0.0
H388 H 0.62182 0.13614 0.75171 0.0
H389 H 0.62389 0.0981 0.70108 0.0
H390 H 0.60519 0.14305 0.59466 0.0
H391 H 0.60338 0.18155 0.64457 0.0
C392 C 0.50514 0.19807 0.80835 0.0
C393 C 0.48912 0.19887 0.77084 0.0
C394 C 0.53568 0.20224 0.80587 0.0
C395 C 0.55108 0.20749 0.76586 0.0
C396 C 0.53545 0.20908 0.7285 0.0
C397 C 0.50495 0.20504 0.73096 0.0
C398 C 0.58222 0.20863 0.76257 0.0
C399 C 0.58489 0.18786 0.7337 0.0
C400 C 0.60841 0.22827 0.78933 0.0
C401 C 0.60816 0.25232 0.81841 0.0
C402 C 0.60161 0.27531 0.80189 0.0
C403 C 0.60192 0.29834 0.82913 0.0
C404 C 0.60888 0.29865 0.87301 0.0
C405 C 0.6156 0.27598 0.8897 0.0
C406 C 0.61536 0.25295 0.86254 0.0
C407 C 0.70947 0.19996 0.71738 0.0
C408 C 0.72111 0.19355 0.75555 0.0
C409 C 0.68384 0.20536 0.71859 0.0
C410 C 0.66853 0.20359 0.75779 0.0
C411 C 0.68115 0.19902 0.7962 0.0
C412 C 0.70723 0.19427 0.79514 0.0
C413 C 0.63859 0.20498 0.75863 0.0
C414 C 0.63609 0.22602 0.78719 0.0
C415 C 0.61248 0.18558 0.73159 0.0
C416 C 0.61277 0.16189 0.70182 0.0
C417 C 0.61826 0.13795 0.7175 0.0
C418 C 0.61939 0.11633 0.68893 0.0
C419 C 0.6148 0.11825 0.64468 0.0
C420 C 0.60881 0.14164 0.62893 0.0
C421 C 0.6077 0.16334 0.65734 0.0
H422 H 0.61588 0.10166 0.62254 0.0
H423 H 0.60915 0.3165 0.89406 0.0
H424 H 0.28184 0.50947 0.29966 0.0
H425 H 0.32726 0.56227 0.29277 0.0
H426 H 0.36788 0.52803 0.19814 0.0
H427 H 0.32409 0.47487 0.20717 0.0
H428 H 0.40971 0.55898 0.25331 0.0
H429 H 0.33823 0.58161 0.17454 0.0
H430 H 0.29116 0.58658 0.15919 0.0
H431 H 0.31189 0.64731 0.26931 0.0
H432 H 0.35905 0.64272 0.28538 0.0
H433 H 0.53338 0.70405 0.17715 0.0
H434 H 0.47927 0.65931 0.17817 0.0
H435 H 0.46681 0.68407 0.30746 0.0
H436 H 0.52137 0.72862 0.30705 0.0
H437 H 0.41075 0.66073 0.2372 0.0
H438 H 0.48228 0.63481 0.31494 0.0
H439 H 0.53223 0.63379 0.32175 0.0
H440 H 0.51102 0.5796 0.20473 0.0
H441 H 0.46118 0.58081 0.19686 0.0
C442 C 0.30035 0.5129 0.27738 0.0
C443 C 0.29888 0.48725 0.25423 0.0
C444 C 0.32621 0.54349 0.27292 0.0
C445 C 0.35111 0.54938 0.24475 0.0
C446 C 0.34905 0.52422 0.22018 0.0
C447 C 0.32352 0.49362 0.22506 0.0
C448 C 0.38078 0.58068 0.24404 0.0
C449 C 0.40966 0.58105 0.24918 0.0
C450 C 0.38112 0.60986 0.2399 0.0
C451 C 0.352 0.61153 0.23142 0.0
C452 C 0.33259 0.59579 0.19572 0.0
C453 C 0.30604 0.59876 0.18668 0.0
C454 C 0.29864 0.61738 0.21314 0.0
C455 C 0.31772 0.63302 0.24875 0.0
C456 C 0.34439 0.63029 0.25778 0.0
C457 C 0.51886 0.70046 0.20539 0.0
C458 C 0.53155 0.71975 0.24207 0.0
C459 C 0.48801 0.67491 0.20592 0.0
C460 C 0.46917 0.66849 0.24286 0.0
C461 C 0.48101 0.68883 0.27859 0.0
C462 C 0.51216 0.7141 0.2784 0.0
C463 C 0.43887 0.63839 0.24578 0.0
C464 C 0.41024 0.63838 0.24134 0.0
C465 C 0.43857 0.60942 0.24998 0.0
C466 C 0.46822 0.60821 0.25507 0.0
C467 C 0.48843 0.62294 0.29046 0.0
C468 C 0.51668 0.62228 0.29455 0.0
C469 C 0.52484 0.60672 0.26362 0.0
C470 C 0.5047 0.59169 0.22862 0.0
C471 C 0.47644 0.59234 0.22434 0.0
H472 H 0.54673 0.60623 0.26684 0.0
H473 H 0.27789 0.61935 0.20636 0.0
H474 H 0.81346 0.28709 0.70279 0.0
H475 H 0.80637 0.33327 0.69886 0.0
H476 H 0.80205 0.33533 0.83781 0.0
H477 H 0.81047 0.29004 0.84232 0.0
H478 H 0.75707 0.34838 0.79191 0.0
H479 H 0.86848 0.38143 0.79762 0.0
H480 H 0.91658 0.3811 0.77379 0.0
H481 H 0.90688 0.41142 0.64716 0.0
H482 H 0.85839 0.41144 0.67009 0.0
H483 H 0.80135 0.51097 0.82607 0.0
H484 H 0.79469 0.4577 0.82759 0.0
H485 H 0.81469 0.46398 0.69109 0.0
H486 H 0.82191 0.51726 0.68954 0.0
H487 H 0.84975 0.44519 0.73462 0.0
H488 H 0.74206 0.41758 0.72898 0.0
H489 H 0.6933 0.4171 0.74968 0.0
H490 H 0.69287 0.37469 0.87149 0.0
H491 H 0.7427 0.37612 0.85218 0.0
C492 C 0.81098 0.29728 0.73258 0.0
C493 C 0.81307 0.28501 0.7729 0.0
C494 C 0.80665 0.32353 0.73022 0.0
C495 C 0.80396 0.33785 0.76806 0.0
C496 C 0.80398 0.32454 0.80823 0.0
C497 C 0.80869 0.29851 0.81067 0.0
C498 C 0.80404 0.36829 0.76585 0.0
C499 C 0.7774 0.36971 0.77992 0.0
C500 C 0.83033 0.39582 0.74917 0.0
C501 C 0.85961 0.39608 0.73542 0.0
C502 C 0.87644 0.38775 0.76458 0.0
C503 C 0.9038 0.38767 0.75126 0.0
C504 C 0.91473 0.39614 0.70894 0.0
C505 C 0.89836 0.40481 0.6799 0.0
C506 C 0.87094 0.40487 0.69305 0.0
C507 C 0.80412 0.50087 0.79636 0.0
C508 C 0.81223 0.51837 0.75771 0.0
C509 C 0.8001 0.47036 0.7972 0.0
C510 C 0.80415 0.45678 0.75942 0.0
C511 C 0.81146 0.47394 0.72063 0.0
C512 C 0.81531 0.50432 0.71973 0.0
C513 C 0.80269 0.42557 0.76071 0.0
C514 C 0.82925 0.42398 0.74659 0.0
C515 C 0.77619 0.39792 0.77711 0.0
C516 C 0.74646 0.39739 0.78933 0.0
C517 C 0.73192 0.40859 0.76049 0.0
C518 C 0.70397 0.40807 0.77196 0.0
C519 C 0.68985 0.39583 0.81189 0.0
C520 C 0.70384 0.38423 0.84057 0.0
C521 C 0.73204 0.385 0.82943 0.0
H522 H 0.66806 0.39528 0.82056 0.0
H523 H 0.93592 0.39607 0.69869 0.0
H524 H 0.29397 0.79964 0.19269 0.0
H525 H 0.33755 0.78868 0.19825 0.0
H526 H 0.33021 0.78652 0.33716 0.0
H527 H 0.28621 0.797 0.33198 0.0
H528 H 0.38934 0.82727 0.31025 0.0
H529 H 0.31282 0.71725 0.2797 0.0
H530 H 0.27064 0.67292 0.23828 0.0
H531 H 0.32861 0.70264 0.12479 0.0
H532 H 0.37138 0.74676 0.16549 0.0
H533 H 0.51526 0.80048 0.3479 0.0
H534 H 0.46127 0.79087 0.34616 0.0
H535 H 0.46046 0.78448 0.20712 0.0
H536 H 0.51389 0.79185 0.20872 0.0
H537 H 0.40372 0.74512 0.23615 0.0
H538 H 0.47828 0.85436 0.26045 0.0
H539 H 0.52251 0.90006 0.29671 0.0
H540 H 0.46945 0.87636 0.41482 0.0
H541 H 0.42505 0.83022 0.37939 0.0
C542 C 0.30097 0.79602 0.22446 0.0
C543 C 0.28659 0.79955 0.26191 0.0
C544 C 0.32598 0.7897 0.22756 0.0
C545 C 0.33716 0.78664 0.26812 0.0
C546 C 0.32209 0.78889 0.30548 0.0
C547 C 0.2971 0.79521 0.30245 0.0
C548 C 0.36675 0.78488 0.27173 0.0
C549 C 0.39221 0.80888 0.29481 0.0
C550 C 0.37105 0.76172 0.25007 0.0
C551 C 0.34513 0.73551 0.22551 0.0
C552 C 0.31644 0.71451 0.24581 0.0
C553 C 0.29244 0.68944 0.2225 0.0
C554 C 0.29674 0.6853 0.17888 0.0
C555 C 0.32522 0.70598 0.15853 0.0
C556 C 0.34941 0.73092 0.18173 0.0
C557 C 0.50345 0.79614 0.31692 0.0
C558 C 0.51936 0.79746 0.27835 0.0
C559 C 0.47257 0.79105 0.31597 0.0
C560 C 0.45703 0.78788 0.27644 0.0
C561 C 0.47203 0.78725 0.23804 0.0
C562 C 0.5028 0.79187 0.23899 0.0
C563 C 0.42616 0.78736 0.27502 0.0
C564 C 0.40065 0.76321 0.25212 0.0
C565 C 0.42192 0.8108 0.29606 0.0
C566 C 0.44849 0.83864 0.3174 0.0
C567 C 0.47614 0.85877 0.29424 0.0
C568 C 0.50122 0.88476 0.31463 0.0
C569 C 0.49883 0.89106 0.35808 0.0
C570 C 0.47129 0.87142 0.38119 0.0
C571 C 0.44615 0.84535 0.36097 0.0
H572 H 0.51828 0.9112 0.37381 0.0
H573 H 0.27809 0.66588 0.16096 0.0
H574 H 0.48082 0.29881 0.68227 0.0
H575 H 0.5347 0.34347 0.68693 0.0
H576 H 0.53927 0.32223 0.82122 0.0
H577 H 0.48514 0.2775 0.81679 0.0
H578 H 0.55695 0.38361 0.80952 0.0
H579 H 0.57802 0.3084 0.74065 0.0
H580 H 0.57519 0.27071 0.68553 0.0
H581 H 0.61008 0.34401 0.58976 0.0
H582 H 0.61314 0.3822 0.64437 0.0
H583 H 0.71194 0.50415 0.84257 0.0
H584 H 0.66652 0.45135 0.83665 0.0
H585 H 0.66552 0.46212 0.69839 0.0
H586 H 0.71306 0.51378 0.70344 0.0
H587 H 0.64619 0.40474 0.7125 0.0
H588 H 0.61686 0.4764 0.77104 0.0
H589 H 0.61911 0.51708 0.82054 0.0
H590 H 0.59644 0.45337 0.9276 0.0
H591 H 0.59448 0.4124 0.87877 0.0
C592 C 0.49352 0.30317 0.71255 0.0
C593 C 0.47867 0.28461 0.74919 0.0
C594 C 0.52434 0.3288 0.7152 0.0
C595 C 0.54112 0.3362 0.7544 0.0
C596 C 0.52673 0.31707 0.79069 0.0
C597 C 0.49583 0.29152 0.78812 0.0
C598 C 0.57281 0.36504 0.75825 0.0
C599 C 0.57672 0.38788 0.789 0.0
C600 C 0.59815 0.37134 0.73001 0.0
C601 C 0.59582 0.34821 0.69683 0.0
C602 C 0.58507 0.3165 0.7079 0.0
C603 C 0.58338 0.29501 0.67669 0.0
C604 C 0.59239 0.30491 0.63415 0.0
C605 C 0.60313 0.33635 0.62275 0.0
C606 C 0.60491 0.35796 0.65388 0.0
C607 C 0.70288 0.49514 0.81063 0.0
C608 C 0.71609 0.51393 0.77354 0.0
C609 C 0.67632 0.46496 0.80741 0.0
C610 C 0.6616 0.45313 0.76727 0.0
C611 C 0.67594 0.47083 0.72991 0.0
C612 C 0.70302 0.5007 0.73296 0.0
C613 C 0.63065 0.42307 0.76447 0.0
C614 C 0.62669 0.4002 0.73367 0.0
C615 C 0.60492 0.41701 0.79181 0.0
C616 C 0.60585 0.44146 0.82132 0.0
C617 C 0.61255 0.47113 0.80518 0.0
C618 C 0.61376 0.49423 0.83311 0.0
C619 C 0.608 0.48785 0.8772 0.0
C620 C 0.60095 0.4583 0.89345 0.0
C621 C 0.59976 0.43512 0.86566 0.0
H622 H 0.60892 0.50578 0.89871 0.0
H623 H 0.59106 0.28822 0.61004 0.0
H624 H 0.22842 0.20144 0.31999 0.0
H625 H 0.2125 0.1461 0.30491 0.0
H626 H 0.11557 0.12435 0.29008 0.0
H627 H 0.13112 0.17906 0.30561 0.0
H628 H 0.11859 0.08066 0.33624 0.0
H629 H 0.16215 0.13517 0.2029 0.0
H630 H 0.20332 0.17587 0.15637 0.0
H631 H 0.26553 0.13959 0.18544 0.0
H632 H 0.2249 0.09897 0.23275 0.0
H633 H 0.11924 0.95323 0.1766 0.0
H634 H 0.11644 1.0012 0.19019 0.0
H635 H 0.12968 0.9931 0.32656 0.0
H636 H 0.13354 0.94613 0.31315 0.0
H637 H 0.16638 0.0517 0.2162 0.0
H638 H 0.10927 0.02648 0.38519 0.0
H639 H 0.05852 0.99456 0.42332 0.0
H640 H 0.00828 0.97693 0.30315 0.0
H641 H 0.0587 0.00747 0.26422 0.0
C642 C 0.20371 0.18471 0.31376 0.0
C643 C 0.18097 0.19443 0.31421 0.0
C644 C 0.19469 0.15323 0.30504 0.0
C645 C 0.16291 0.13126 0.2961 0.0
C646 C 0.14017 0.14088 0.29724 0.0
C647 C 0.14909 0.17215 0.30627 0.0
C648 C 0.153 0.09814 0.2853 0.0
C649 C 0.12882 0.07424 0.3098 0.0
C650 C 0.16619 0.08999 0.25036 0.0
C651 C 0.1906 0.11424 0.22172 0.0
C652 C 0.1847 0.13603 0.19964 0.0
C653 C 0.20793 0.15906 0.17309 0.0
C654 C 0.23705 0.16037 0.16805 0.0
C655 C 0.24298 0.13858 0.18945 0.0
C656 C 0.21985 0.11554 0.21612 0.0
C657 C 0.12077 0.96131 0.20958 0.0
C658 C 0.12706 0.94619 0.24371 0.0
C659 C 0.11902 0.9886 0.21732 0.0
C660 C 0.12326 1.00095 0.25932 0.0
C661 C 0.12617 0.98397 0.29392 0.0
C662 C 0.12827 0.95694 0.28618 0.0
C663 C 0.13082 0.03398 0.26625 0.0
C664 C 0.15543 0.05797 0.24193 0.0
C665 C 0.11686 0.04234 0.2998 0.0
C666 C 0.08767 0.01889 0.32187 0.0
C667 C 0.08741 0.01496 0.36686 0.0
C668 C 0.05872 0.99715 0.38857 0.0
C669 C 0.03021 0.98372 0.36563 0.0
C670 C 0.03037 0.98697 0.32077 0.0
C671 C 0.05901 0.00416 0.29881 0.0
H672 H 0.00797 0.97108 0.38265 0.0
H673 H 0.255 0.17822 0.14748 0.0
H674 H 0.98386 0.1656 0.72159 0.0
H675 H 0.01514 0.14299 0.69619 0.0
H676 H 0.99227 0.08601 0.81173 0.0
H677 H 0.9638 0.11156 0.83976 0.0
H678 H 0.04712 0.10478 0.79911 0.0
H679 H 0.96361 0.05434 0.70302 0.0
H680 H 0.92121 0.04452 0.65117 0.0
H681 H 0.99017 0.10634 0.55936 0.0
H682 H 0.03306 0.11683 0.61065 0.0
H683 H 0.16134 0.07671 0.71568 0.0
H684 H 0.10449 0.05708 0.71829 0.0
H685 H 0.11818 0.14143 0.65487 0.0
H686 H 0.17462 0.16052 0.64943 0.0
H687 H 0.0559 0.08655 0.6433 0.0
H688 H 0.13597 0.14266 0.75966 0.0
H689 H 0.17433 0.14408 0.81301 0.0
H690 H 0.10169 0.05864 0.87093 0.0
H691 H 0.06326 0.0559 0.81655 0.0
C692 C 0.986 0.1488 0.74219 0.0
C693 C 0.97158 0.14075 0.78306 0.0
C694 C 1.00313 0.13502 0.72689 0.0
C695 C 0.0053 0.11186 0.75123 0.0
C696 C 0.99078 0.10359 0.79202 0.0
C697 C 0.97444 0.11819 0.80803 0.0
C698 C 0.02595 0.09944 0.73605 0.0
C699 C 0.04813 0.09968 0.76522 0.0
C700 C 0.02732 0.09223 0.69196 0.0
C701 C 1.00162 0.08644 0.6609 0.0
C702 C 0.96976 0.06612 0.67198 0.0
C703 C 0.94562 0.06037 0.64264 0.0
C704 C 0.95297 0.07486 0.60211 0.0
C705 C 0.98451 0.09509 0.59077 0.0
C706 C 0.00877 0.10085 0.61992 0.0
C707 C 0.1524 0.09081 0.70118 0.0
C708 C 0.17305 0.12138 0.68537 0.0
C709 C 0.11982 0.07937 0.70259 0.0
C710 C 0.10762 0.0985 0.68879 0.0
C711 C 0.12733 0.12661 0.6667 0.0
C712 C 0.1598 0.13784 0.6646 0.0
C713 C 0.07734 0.0937 0.70606 0.0
C714 C 0.05362 0.09035 0.67732 0.0
C715 C 0.07367 0.09671 0.75088 0.0
C716 C 0.09693 0.09875 0.78356 0.0
C717 C 0.12828 0.12397 0.78342 0.0
C718 C 0.15003 0.12499 0.81383 0.0
C719 C 0.14041 0.10149 0.8454 0.0
C720 C 0.10907 0.07686 0.84653 0.0
C721 C 0.08738 0.07541 0.81569 0.0
H722 H 0.1573 0.10222 0.86883 0.0
H723 H 0.93422 0.07036 0.57945 0.0
H724 H 0.06967 0.1883 0.32263 0.0
H725 H 0.0249 0.13632 0.34045 0.0
H726 H 1.00231 0.11764 0.20502 0.0
H727 H 0.04737 0.16913 0.18684 0.0
H728 H 0.95572 0.11989 0.25398 0.0
H729 H 0.02382 0.07254 0.26647 0.0
H730 H 0.06916 0.07078 0.29829 0.0
H731 H 0.0296 0.0609 0.42509 0.0
H732 H 0.984 0.06295 0.39388 0.0
H733 H 0.82334 0.97234 0.2375 0.0
H734 H 0.87775 0.01591 0.23402 0.0
H735 H 0.88504 0.01445 0.37295 0.0
H736 H 0.83014 0.97058 0.37652 0.0
H737 H 0.93939 0.0247 0.3339 0.0
H738 H 0.87344 0.06901 0.33106 0.0
H739 H 0.83006 0.07889 0.31145 0.0
H740 H 0.86582 0.10225 0.182 0.0
H741 H 0.90911 0.0919 0.20055 0.0
C742 C 0.05592 0.1726 0.29655 0.0
C743 C 0.06151 0.18298 0.25336 0.0
C744 C 0.03029 0.14298 0.30684 0.0
C745 C 0.01002 0.12354 0.27409 0.0
C746 C 0.01753 0.13256 0.23076 0.0
C747 C 0.04316 0.16198 0.22044 0.0
C748 C 0.97845 0.09676 0.28467 0.0
C749 C 0.95212 0.09878 0.2707 0.0
C750 C 0.97389 0.07049 0.3095 0.0
C751 C 1.00076 0.06828 0.3279 0.0
C752 C 0.0249 0.07021 0.30115 0.0
C753 C 0.05068 0.0692 0.31915 0.0
C754 C 0.05249 0.06609 0.36383 0.0
C755 C 0.02826 0.06351 0.39054 0.0
C756 C 1.00242 0.06454 0.3727 0.0
C757 C 0.83655 0.98139 0.26727 0.0
C758 C 0.82249 0.96874 0.30731 0.0
C759 C 0.86758 0.00613 0.26527 0.0
C760 C 0.88507 0.01877 0.30332 0.0
C761 C 0.87175 0.00508 0.3433 0.0
C762 C 0.84053 0.98013 0.3453 0.0
C763 C 0.91677 0.04707 0.30072 0.0
C764 C 0.94299 0.04568 0.31682 0.0
C765 C 0.92132 0.07462 0.27924 0.0
C766 C 0.89445 0.07945 0.26716 0.0
C767 C 0.87186 0.07585 0.29825 0.0
C768 C 0.84736 0.08169 0.28738 0.0
C769 C 0.84534 0.09143 0.2456 0.0
C770 C 0.86757 0.09494 0.21444 0.0
C771 C 0.89206 0.08902 0.2251 0.0
H772 H 0.8264 0.09602 0.23728 0.0
H773 H 0.07253 0.06556 0.3779 0.0
H774 H 0.91476 0.07561 0.78111 0.0
H775 H 0.93307 0.03872 0.80007 0.0
H776 H 0.86913 0.97273 0.70583 0.0
H777 H 0.85129 0.00987 0.68621 0.0
H778 H 0.88244 0.97775 0.83048 0.0
H779 H 0.90423 0.96086 0.66517 0.0
H780 H 0.94015 0.9858 0.60331 0.0
H781 H 0.0204 0.02203 0.68859 0.0
H782 H 0.98484 0.99835 0.75099 0.0
H783 H 0.81812 0.81713 0.82769 0.0
H784 H 0.83782 0.87305 0.81899 0.0
H785 H 0.93197 0.88849 0.79788 0.0
H786 H 0.91223 0.83221 0.80437 0.0
H787 H 0.92537 0.92157 0.74508 0.0
H788 H 0.90809 0.91428 0.89414 0.0
H789 H 0.88223 0.89422 0.96448 0.0
H790 H 0.80763 0.91233 0.9279 0.0
H791 H 0.83277 0.93203 0.85705 0.0
C792 C 0.90573 0.05393 0.76314 0.0
C793 C 0.88164 0.04569 0.73235 0.0
C794 C 0.91621 0.03288 0.77397 0.0
C795 C 0.90305 0.00342 0.75357 0.0
C796 C 0.88035 0.99583 0.72092 0.0
C797 C 0.86974 0.01681 0.71032 0.0
C798 C 0.90694 0.97791 0.77267 0.0
C799 C 0.89197 0.9654 0.81221 0.0
C800 C 0.92106 0.96314 0.75004 0.0
C801 C 0.94193 0.97835 0.71264 0.0
C802 C 0.92949 0.97464 0.67073 0.0
C803 C 0.94979 0.9885 0.63558 0.0
C804 C 0.98255 0.00566 0.64201 0.0
C805 C 0.99505 0.00903 0.68363 0.0
C806 C 0.97484 0.99557 0.7189 0.0
C807 C 0.84303 0.83219 0.82089 0.0
C808 C 0.86328 0.81963 0.8154 0.0
C809 C 0.85449 0.86453 0.81697 0.0
C810 C 0.88671 0.88538 0.80901 0.0
C811 C 0.90717 0.8731 0.80486 0.0
C812 C 0.8957 0.84068 0.8085 0.0
C813 C 0.89808 0.91942 0.80144 0.0
C814 C 0.91627 0.93385 0.76436 0.0
C815 C 0.88784 0.93654 0.82745 0.0
C816 C 0.87242 0.92465 0.87012 0.0
C817 C 0.88612 0.91385 0.90096 0.0
C818 C 0.87156 0.90253 0.94096 0.0
C819 C 0.8433 0.902 0.95066 0.0
C820 C 0.82955 0.9128 0.92037 0.0
C821 C 0.844 0.92411 0.88029 0.0
H822 H 0.83206 0.89322 0.98166 0.0
H823 H 0.99823 0.01633 0.61478 0.0
H824 H 0.85424 0.92272 0.2338 0.0
H825 H 0.90845 0.94417 0.26138 0.0
H826 H 0.87493 0.86768 0.35333 0.0
H827 H 0.82129 0.84783 0.32836 0.0
H828 H 0.92139 0.91203 0.38702 0.0
H829 H 0.90176 0.86637 0.2381 0.0
H830 H 0.89047 0.86746 0.16045 0.0
H831 H 0.96948 0.96177 0.15041 0.0
H832 H 0.98104 0.96123 0.22808 0.0
H833 H 0.99438 0.81833 0.36175 0.0
H834 H 0.96143 0.84338 0.35983 0.0
H835 H 0.04394 0.93339 0.33199 0.0
H836 H 0.07705 0.90859 0.33552 0.0
H837 H 0.98907 0.90805 0.27065 0.0
H838 H 0.01576 0.92986 0.42014 0.0
H839 H 0.02164 0.91803 0.49569 0.0
H840 H 0.92155 0.85427 0.50403 0.0
H841 H 0.91498 0.86537 0.42826 0.0
C842 C 0.85848 0.91099 0.26059 0.0
C843 C 0.83376 0.88271 0.27769 0.0
C844 C 0.88949 0.92317 0.27618 0.0
C845 C 0.89606 0.90682 0.30841 0.0
C846 C 0.87075 0.88051 0.32807 0.0
C847 C 0.84004 0.86879 0.31318 0.0
C848 C 0.92863 0.91318 0.31821 0.0
C849 C 0.93638 0.91143 0.36159 0.0
C850 C 0.94893 0.91353 0.28522 0.0
C851 C 0.94196 0.91392 0.23879 0.0
C852 C 0.9166 0.88735 0.21927 0.0
C853 C 0.91017 0.88787 0.17531 0.0
C854 C 0.92918 0.91471 0.15055 0.0
C855 C 0.95472 0.94105 0.16967 0.0
C856 C 0.96121 0.94066 0.21363 0.0
C857 C 0.00545 0.84356 0.35613 0.0
C858 C 0.0381 0.86166 0.34876 0.0
C859 C 0.98675 0.85783 0.35521 0.0
C860 C 1.0004 0.89021 0.34614 0.0
C861 C 0.03311 0.90846 0.33955 0.0
C862 C 0.05192 0.89432 0.34152 0.0
C863 C 0.97967 0.90375 0.33897 0.0
C864 C 0.97467 0.90962 0.29619 0.0
C865 C 0.96089 0.90542 0.37241 0.0
C866 C 0.96486 0.89868 0.41824 0.0
C867 C 0.99495 0.91329 0.43787 0.0
C868 C 0.99842 0.90668 0.48085 0.0
C869 C 0.97198 0.88546 0.50469 0.0
C870 C 0.94201 0.87079 0.48557 0.0
C871 C 0.93839 0.87731 0.4426 0.0
H872 H 0.97473 0.88037 0.53796 0.0
H873 H 0.92417 0.91508 0.11652 0.0
H874 H 0.1897 0.99836 0.79712 0.0
H875 H 0.13498 0.96169 0.77775 0.0
H876 H 0.11381 0.03742 0.78032 0.0
H877 H 0.16931 0.07521 0.7953 0.0
H878 H 0.06611 0.97627 0.81794 0.0
H879 H 0.12161 0.02106 0.68692 0.0
H880 H 0.16785 0.04076 0.63873 0.0
H881 H 0.15562 0.94738 0.63107 0.0
H882 H 0.10976 0.9274 0.68009 0.0
H883 H 0.92627 0.84159 0.73043 0.0
H884 H 0.96691 0.89769 0.73314 0.0
H885 H 0.03955 0.8719 0.72435 0.0
H886 H 0.99973 0.81664 0.72082 0.0
H887 H 0.0542 0.92282 0.67707 0.0
H888 H 0.01021 0.88226 0.82125 0.0
H889 H 0.97125 0.86423 0.8804 0.0
H890 H 0.96511 0.94881 0.86882 0.0
H891 H 1.00341 0.96693 0.8088 0.0
C892 C 0.17372 0.00756 0.79294 0.0
C893 C 0.18438 0.04011 0.79644 0.0
C894 C 0.14233 0.98643 0.7824 0.0
C895 C 0.12086 0.99729 0.77628 0.0
C896 C 0.13043 0.02901 0.78393 0.0
C897 C 0.16209 0.05041 0.79326 0.0
C898 C 0.08911 0.97548 0.75916 0.0
C899 C 0.06306 0.96505 0.78664 0.0
C900 C 0.08551 0.96134 0.71818 0.0
C901 C 0.11234 0.97284 0.68735 0.0
C902 C 0.12893 0.00484 0.67515 0.0
C903 C 0.15507 0.01603 0.64769 0.0
C904 C 0.1647 0.99533 0.63184 0.0
C905 C 0.14812 0.96339 0.64334 0.0
C906 C 0.12202 0.95212 0.67095 0.0
C907 C 0.95089 0.84788 0.72918 0.0
C908 C 0.95971 0.82439 0.72817 0.0
C909 C 0.97402 0.87995 0.73057 0.0
C910 C 0.00618 0.88883 0.7301 0.0
C911 C 0.01484 0.86557 0.72536 0.0
C912 C 0.99195 0.83382 0.7241 0.0
C913 C 0.03154 0.92177 0.73731 0.0
C914 C 0.05659 0.93476 0.7076 0.0
C915 C 0.03425 0.93795 0.77654 0.0
C916 C 0.00922 0.92567 0.81 0.0
C917 C 1.00007 0.89671 0.83072 0.0
C918 C 0.97826 0.88656 0.86462 0.0
C919 C 0.96582 0.90541 0.87852 0.0
C920 C 0.97484 0.93427 0.85816 0.0
C921 C 0.99644 0.94439 0.82403 0.0
H922 H 0.94908 0.89756 0.90493 0.0
H923 H 0.18497 0.00402 0.61064 0.0
H924 H 0.23045 0.28482 0.19865 0.0
H925 H 0.25007 0.26502 0.1409 0.0
H926 H 0.21687 0.30665 0.04601 0.0
H927 H 0.19574 0.32506 0.10391 0.0
H928 H 0.20595 0.25522 1.01401 0.0
H929 H 0.30188 0.33632 0.07909 0.0
H930 H 0.33938 0.36383 0.13868 0.0
H931 H 0.34573 0.28059 0.16431 0.0
H932 H 0.30798 0.25246 0.10517 0.0
H933 H 0.28956 0.24002 0.83471 0.0
H934 H 0.2713 0.25999 0.89398 0.0
H935 H 0.29708 0.21003 0.98557 0.0
H936 H 0.31587 0.19026 0.92615 0.0
H937 H 0.31231 0.26535 0.01958 0.0
H938 H 0.21628 0.18453 0.95579 0.0
H939 H 0.17774 0.15623 0.89798 0.0
H940 H 0.17179 0.23939 0.86995 0.0
H941 H 0.21049 0.2683 0.92787 0.0
C942 C 0.22746 0.29004 0.16556 0.0
C943 C 0.21157 0.30698 0.15652 0.0
C944 C 0.23903 0.27878 0.13212 0.0
C945 C 0.23599 0.28471 0.08814 0.0
C946 C 0.21993 0.30153 0.07916 0.0
C947 C 0.20784 0.31228 0.11259 0.0
C948 C 0.24866 0.27287 0.05169 0.0
C949 C 0.22949 0.2581 1.01523 0.0
C950 C 0.27907 0.27532 0.05264 0.0
C951 C 0.30193 0.29223 0.08795 0.0
C952 C 0.31116 0.32385 0.09759 0.0
C953 C 0.33247 0.33955 0.13126 0.0
C954 C 0.34488 0.32395 0.15532 0.0
C955 C 0.33608 0.29264 0.14567 0.0
C956 C 0.31476 0.27682 0.11205 0.0
C957 C 0.29149 0.2332 0.8674 0.0
C958 C 0.30435 0.21327 0.87501 0.0
C959 C 0.2807 0.24458 0.90162 0.0
C960 C 0.28208 0.23638 0.94503 0.0
C961 C 0.29545 0.21692 0.9528 0.0
C962 C 0.30624 0.20548 0.9185 0.0
C963 C 0.26969 0.24807 0.98191 0.0
C964 C 0.28887 0.26271 1.0184 0.0
C965 C 0.23936 0.24567 0.98098 0.0
C966 C 0.21649 0.22863 0.9458 0.0
C967 C 0.20695 0.19686 0.93706 0.0
C968 C 0.18501 0.18068 0.9043 0.0
C969 C 0.17237 0.19599 0.88005 0.0
C970 C 0.18162 0.22755 0.88868 0.0
C971 C 0.20351 0.24383 0.92155 0.0
H972 H 0.15532 0.1834 0.85473 0.0
H973 H 0.36136 0.33614 0.1814 0.0
H974 H 0.95224 0.22847 0.69777 0.0
H975 H 0.99178 0.24841 0.6403 0.0
H976 H 0.9174 0.21072 0.54467 0.0
H977 H 0.8778 0.1893 0.60235 0.0
H978 H 0.95957 0.20165 0.51425 0.0
H979 H 0.96843 0.29596 0.57396 0.0
H980 H 0.97547 0.33445 0.6307 0.0
H981 H 0.06728 0.34738 0.66083 0.0
H982 H 0.06061 0.30866 0.6046 0.0
H983 H 0.05886 0.29095 0.33671 0.0
H984 H 0.01992 0.2708 0.39512 0.0
H985 H 0.09419 0.29181 0.48735 0.0
H986 H 0.13341 0.31191 0.42878 0.0
H987 H 0.05274 0.30965 0.51897 0.0
H988 H 0.04227 0.21523 0.45404 0.0
H989 H 0.03351 0.17811 0.39466 0.0
H990 H 0.94194 0.16767 0.3704 0.0
H991 H 0.95037 0.20515 0.42935 0.0
C992 C 0.94415 0.2246 0.66455 0.0
C993 C 0.91145 0.20737 0.65521 0.0
C994 C 0.96702 0.23629 0.63129 0.0
C995 C 0.9582 0.23201 0.58719 0.0
C996 C 0.92546 0.21472 0.57792 0.0
C997 C 0.90258 0.20252 0.61121 0.0
C998 C 0.98281 0.24487 0.55103 0.0
C999 C 0.97959 0.22549 0.5153 0.0
C1000 C 0.00975 0.27585 0.55161 0.0
C1001 C 0.01388 0.29917 0.58538 0.0
C1002 C 0.99003 0.30686 0.59289 0.0
C1003 C 0.99396 0.32873 0.62492 0.0
C1004 C 0.02176 0.34328 0.64943 0.0
C1005 C 0.04573 0.33605 0.64187 0.0
C1006 C 0.0419 0.31416 0.6099 0.0
C1007 C 0.06711 0.29139 0.36936 0.0
C1008 C 0.09967 0.30327 0.37751 0.0
C1009 C 0.04458 0.27959 0.403 0.0
C1010 C 0.05363 0.2793 0.44624 0.0
C1011 C 0.08619 0.29155 0.45459 0.0
C1012 C 0.10875 0.30306 0.42083 0.0
C1013 C 0.0293 0.26646 0.48246 0.0
C1014 C 0.03263 0.28585 0.51811 0.0
C1015 C 1.00216 0.23573 0.48138 0.0
C1016 C 0.9971 0.21326 0.44586 0.0
C1017 C 0.02038 0.20525 0.4358 0.0
C1018 C 0.01544 0.18409 0.40223 0.0
C1019 C 0.98719 0.17059 0.37865 0.0
C1020 C 0.96382 0.17819 0.38865 0.0
C1021 C 0.96866 0.19937 0.42216 0.0
H1022 H 0.98332 0.15416 0.35271 0.0
H1023 H 0.02477 0.36021 0.67422 0.0
H1024 H 0.71307 0.86958 0.10083 0.0
H1025 H 0.73222 0.90917 0.04324 0.0
H1026 H 0.71111 0.96935 0.12164 0.0
H1027 H 0.69291 0.93021 0.17994 0.0
H1028 H 0.71238 0.93514 0.99095 0.0
H1029 H 0.75842 0.04466 0.10438 0.0
H1030 H 0.77933 0.0578 0.17893 0.0
H1031 H 0.81307 0.99173 0.16981 0.0
H1032 H 0.7926 0.97837 0.09541 0.0
H1033 H 0.7483 0.06142 0.8461 0.0
H1034 H 0.72784 0.0225 0.90452 0.0
H1035 H 0.8204 0.06724 0.96365 0.0
H1036 H 0.84009 0.10759 0.90698 0.0
H1037 H 0.78587 0.04786 0.02554 0.0
H1038 H 0.78151 0.99047 0.90002 0.0
H1039 H 0.76857 0.97083 0.82511 0.0
H1040 H 0.66936 0.92705 0.85359 0.0
H1041 H 0.68172 0.94676 0.92857 0.0
C1042 C 0.71235 0.89118 0.10597 0.0
C1043 C 0.70134 0.89638 0.14564 0.0
C1044 C 0.72333 0.91399 0.07262 0.0
C1045 C 0.72381 0.94298 0.07749 0.0
C1046 C 0.71194 0.9478 0.11669 0.0
C1047 C 0.70118 0.92509 0.15021 0.0
C1048 C 0.73716 0.96818 0.04219 0.0
C1049 C 0.72828 0.95979 0.99873 0.0
C1050 C 0.75928 1.00043 0.05102 0.0
C1051 C 0.77364 0.01028 0.09456 0.0
C1052 C 0.77056 0.03318 0.1182 0.0
C1053 C 0.78222 0.04056 0.1605 0.0
C1054 C 0.7972 0.02533 0.17925 0.0
C1055 C 0.8012 0.00326 0.15547 0.0
C1056 C 0.78958 0.9958 0.11327 0.0
C1057 C 0.7643 0.06309 0.87166 0.0
C1058 C 0.79599 0.08789 0.87136 0.0
C1059 C 0.75261 0.04039 0.90519 0.0
C1060 C 0.77245 0.04068 0.93891 0.0
C1061 C 0.8041 0.0658 0.93873 0.0
C1062 C 0.81553 0.08906 0.9059 0.0
C1063 C 0.76041 0.01507 0.97392 0.0
C1064 C 0.76972 0.02333 1.01749 0.0
C1065 C 0.74015 0.98232 0.96475 0.0
C1066 C 0.73255 0.97038 0.91976 0.0
C1067 C 0.75694 0.97682 0.89022 0.0
C1068 C 0.74971 0.96565 0.84776 0.0
C1069 C 0.71816 0.94778 0.83456 0.0
C1070 C 0.69378 0.94095 0.86384 0.0
C1071 C 0.70088 0.95208 0.90633 0.0
H1072 H 0.71261 0.93916 0.80168 0.0
H1073 H 0.80564 0.03051 0.21222 0.0
H1074 H 0.76664 0.71199 0.70527 0.0
H1075 H 0.74733 0.73149 0.64646 0.0
H1076 H 0.78458 0.69272 0.5534 0.0
H1077 H 0.80548 0.67484 0.61231 0.0
H1078 H 0.79539 0.74324 0.52183 0.0
H1079 H 0.6985 0.66188 0.58119 0.0
H1080 H 0.65875 0.63271 0.63752 0.0
H1081 H 0.6499 0.71459 0.66251 0.0
H1082 H 0.6899 0.74438 0.60666 0.0
H1083 H 0.71485 0.7588 0.33833 0.0
H1084 H 0.73158 0.73848 0.39902 0.0
H1085 H 0.70792 0.79162 0.48762 0.0
H1086 H 0.69083 0.81198 0.42664 0.0
H1087 H 0.68944 0.73417 0.52159 0.0
H1088 H 0.78961 0.81497 0.46223 0.0
H1089 H 0.83005 0.84205 0.40615 0.0
H1090 H 0.82973 0.75561 0.37801 0.0
H1091 H 0.78957 0.72816 0.43459 0.0
C1092 C 0.77051 0.70731 0.6723 0.0
C1093 C 0.78758 0.69146 0.66402 0.0
C1094 C 0.75915 0.71839 0.63827 0.0
C1095 C 0.76359 0.71332 0.59447 0.0
C1096 C 0.78051 0.69727 0.58634 0.0
C1097 C 0.79243 0.68677 0.62035 0.0
C1098 C 0.75185 0.72558 0.55732 0.0
C1099 C 0.77193 0.74059 0.52187 0.0
C1100 C 0.72148 0.72326 0.55651 0.0
C1101 C 0.69743 0.70545 0.59006 0.0
C1102 C 0.68823 0.67373 0.59891 0.0
C1103 C 0.66564 0.65708 0.63072 0.0
C1104 C 0.65188 0.67182 0.65367 0.0
C1105 C 0.66062 0.70322 0.64476 0.0
C1106 C 0.68323 0.71999 0.61301 0.0
C1107 C 0.71303 0.76624 0.37065 0.0
C1108 C 0.70127 0.78723 0.37696 0.0
C1109 C 0.72297 0.75468 0.40568 0.0
C1110 C 0.7217 0.76363 0.44865 0.0
C1111 C 0.70943 0.78416 0.45518 0.0
C1112 C 0.69961 0.79591 0.42002 0.0
C1113 C 0.73295 0.75146 0.48632 0.0
C1114 C 0.71281 0.73658 0.52179 0.0
C1115 C 0.76299 0.75329 0.48688 0.0
C1116 C 0.78642 0.7695 0.45221 0.0
C1117 C 0.79801 0.80172 0.44382 0.0
C1118 C 0.82097 0.81715 0.41203 0.0
C1119 C 0.8323 0.80049 0.3882 0.0
C1120 C 0.82087 0.76845 0.39639 0.0
C1121 C 0.79814 0.75299 0.42844 0.0
H1122 H 0.84999 0.81232 0.36347 0.0
H1123 H 0.63439 0.65889 0.67828 0.0
H1124 H 0.94357 0.70829 0.84468 0.0
H1125 H 0.98356 0.72956 0.90162 0.0
H1126 H 0.91017 0.69886 0.99769 0.0
H1127 H 0.86996 0.6787 0.9403 0.0
H1128 H 0.95426 0.75213 0.02361 0.0
H1129 H 0.95893 0.66144 0.97488 0.0
H1130 H 0.96394 0.62633 0.92206 0.0
H1131 H 0.0563 0.70111 0.88658 0.0
H1132 H 0.05168 0.7368 0.93883 0.0
H1133 H 0.0563 0.77243 0.20329 0.0
H1134 H 0.01595 0.75048 0.14651 0.0
H1135 H 0.08863 0.79152 0.04944 0.0
H1136 H 0.12923 0.81354 0.10628 0.0
H1137 H 0.04498 0.73274 0.02488 0.0
H1138 H 0.03963 0.82288 0.07589 0.0
H1139 H 0.03419 0.85656 0.1307 0.0
H1140 H 0.94202 0.7805 0.16425 0.0
H1141 H 0.94711 0.7462 0.11005 0.0
C1142 C 0.93571 0.70571 0.87789 0.0
C1143 C 0.90308 0.69125 0.88733 0.0
C1144 C 0.95888 0.71787 0.91087 0.0
C1145 C 0.95051 0.71555 0.95495 0.0
C1146 C 0.91786 0.70116 0.96443 0.0
C1147 C 0.89464 0.68933 0.93132 0.0
C1148 C 0.97559 0.72851 0.9907 0.0
C1149 C 0.97373 0.74732 0.02397 0.0
C1150 C 1.0019 0.72329 0.99177 0.0
C1151 C 0.00482 0.70187 0.96048 0.0
C1152 C 0.98022 0.67045 0.95562 0.0
C1153 C 0.983 0.65044 0.92581 0.0
C1154 C 0.01039 0.66151 0.9009 0.0
C1155 C 0.03509 0.69259 0.90585 0.0
C1156 C 0.03241 0.7127 0.93559 0.0
C1157 C 0.06391 0.7769 0.16992 0.0
C1158 C 0.09645 0.79505 0.15994 0.0
C1159 C 0.04056 0.76435 0.13716 0.0
C1160 C 0.04871 0.76939 0.09298 0.0
C1161 C 0.08124 0.78709 0.08291 0.0
C1162 C 0.10463 0.79985 0.11571 0.0
C1163 C 0.02352 0.75621 0.05759 0.0
C1164 C 0.02542 0.73742 0.02444 0.0
C1165 C 0.99712 0.76121 0.05687 0.0
C1166 C 0.99388 0.78187 0.08919 0.0
C1167 C 0.01829 0.81326 0.09516 0.0
C1168 C 0.01526 0.83247 0.1261 0.0
C1169 C 0.98781 0.82065 0.15102 0.0
C1170 C 0.96329 0.78961 0.14496 0.0
C1171 C 0.96622 0.77028 0.11411 0.0
H1172 H 0.98551 0.83555 0.17497 0.0
H1173 H 0.01249 0.64599 0.87783 0.0
H1174 H 0.28974 0.06332 0.69259 0.0
H1175 H 0.26897 0.02301 0.63625 0.0
H1176 H 0.30681 0.0958 0.53877 0.0
H1177 H 0.32566 0.13629 0.59554 0.0
H1178 H 0.25634 0.0543 0.50751 0.0
H1179 H 0.33888 0.04174 0.57263 0.0
H1180 H 0.36804 0.03366 0.63196 0.0
H1181 H 0.28599 0.94473 0.66249 0.0
H1182 H 0.25623 0.95245 0.60364 0.0
H1183 H 0.24296 0.94921 0.33469 0.0
H1184 H 0.26313 0.98962 0.39155 0.0
H1185 H 0.20795 0.9186 0.48613 0.0
H1186 H 0.18746 0.87808 0.42931 0.0
H1187 H 0.26703 0.9586 0.51797 0.0
H1188 H 0.18598 0.97185 0.44847 0.0
H1189 H 0.15905 0.98082 0.38709 0.0
H1190 H 0.24217 0.07011 0.36167 0.0
H1191 H 0.26977 0.06147 0.42257 0.0
C1192 C 0.294 0.07091 0.65923 0.0
C1193 C 0.30998 0.10346 0.64917 0.0
C1194 C 0.28217 0.04755 0.62654 0.0
C1195 C 0.28676 0.05561 0.58221 0.0
C1196 C 0.30271 0.08823 0.57219 0.0
C1197 C 0.31383 0.11164 0.60495 0.0
C1198 C 0.27461 0.03036 0.54663 0.0
C1199 C 0.2593 0.03374 0.50983 0.0
C1200 C 0.27738 0.00261 0.54881 0.0
C1201 C 0.29526 0.99781 0.58399 0.0
C1202 C 0.32702 0.02054 0.59215 0.0
C1203 C 0.34366 0.01602 0.62567 0.0
C1204 C 0.32885 0.98874 0.65104 0.0
C1205 C 0.29741 0.96587 0.64285 0.0
C1206 C 0.28066 0.97028 0.60939 0.0
C1207 C 0.23512 0.942 0.36757 0.0
C1208 C 0.21345 0.90996 0.37688 0.0
C1209 C 0.24661 0.96537 0.4003 0.0
C1210 C 0.23707 0.95768 0.44374 0.0
C1211 C 0.2159 0.9256 0.45323 0.0
C1212 C 0.2041 0.90227 0.42043 0.0
C1213 C 0.24914 0.98282 0.47908 0.0
C1214 C 0.2643 0.97932 0.51578 0.0
C1215 C 0.24667 0.01064 0.47646 0.0
C1216 C 0.23006 0.01586 0.43985 0.0
C1217 C 0.19862 0.99328 0.42957 0.0
C1218 C 0.18321 0.99833 0.39488 0.0
C1219 C 0.19892 0.02599 0.3704 0.0
C1220 C 0.23005 0.04868 0.38062 0.0
C1221 C 0.24557 0.04373 0.41524 0.0
H1222 H 0.18701 0.02994 0.34358 0.0
H1223 H 0.34177 0.98529 0.677 0.0
H1224 H 0.74587 0.63536 0.95519 0.0
H1225 H 0.70147 0.62314 1.00221 0.0
H1226 H 0.64414 0.61603 0.89145 0.0
H1227 H 0.6891 0.62911 0.84404 0.0
H1228 H 0.64987 0.66013 0.94134 0.0
H1229 H 0.61412 0.55422 0.96811 0.0
H1230 H 0.61517 0.50477 0.98009 0.0
H1231 H 0.6649 0.54118 0.09973 0.0
H1232 H 0.66456 0.59098 0.08844 0.0
H1233 H 0.61809 0.72439 0.11989 0.0
H1234 H 0.59994 0.67933 0.07079 0.0
H1235 H 0.67756 0.66645 0.11199 0.0
H1236 H 0.69462 0.71037 0.16292 0.0
H1237 H 0.62757 0.61054 0.08643 0.0
H1238 H 0.68711 0.72078 0.02954 0.0
H1239 H 0.69231 0.77308 1.01601 0.0
H1240 H 0.60244 0.72876 0.95086 0.0
H1241 H 0.59666 0.67618 0.96442 0.0
C1242 C 0.72362 0.63053 0.94074 0.0
C1243 C 0.72119 0.63419 0.89621 0.0
C1244 C 0.69793 0.62285 0.96761 0.0
C1245 C 0.66927 0.61842 0.95038 0.0
C1246 C 0.66596 0.6192 0.9054 0.0
C1247 C 0.69179 0.62712 0.87847 0.0
C1248 C 0.64724 0.62189 0.97962 0.0
C1249 C 0.64355 0.64826 0.97242 0.0
C1250 C 0.63877 0.6064 0.02009 0.0
C1251 C 0.63911 0.57641 0.02747 0.0
C1252 C 0.62539 0.55178 0.99694 0.0
C1253 C 0.62587 0.52366 1.0036 0.0
C1254 C 0.64007 0.51984 0.04063 0.0
C1255 C 0.6538 0.54413 0.07113 0.0
C1256 C 0.65334 0.57228 0.06469 0.0
C1257 C 0.63088 0.71149 0.11888 0.0
C1258 C 0.65832 0.72124 0.14385 0.0
C1259 C 0.62029 0.68561 0.09128 0.0
C1260 C 0.63778 0.67002 0.0871 0.0
C1261 C 0.66368 0.67816 0.11473 0.0
C1262 C 0.67373 0.70349 0.14331 0.0
C1263 C 0.63379 0.65033 0.04878 0.0
C1264 C 0.63205 0.62095 0.05444 0.0
C1265 C 0.6378 0.6632 1.00673 0.0
C1266 C 0.64127 0.69468 0.99844 0.0
C1267 C 0.66844 0.72226 1.01248 0.0
C1268 C 0.67148 0.75191 1.00483 0.0
C1269 C 0.64766 0.75423 0.98272 0.0
C1270 C 0.62081 0.72691 0.9681 0.0
C1271 C 0.61762 0.69719 0.97577 0.0
H1272 H 0.65005 0.7772 0.97681 0.0
H1273 H 0.64044 0.49806 0.04569 0.0
H1274 H 0.0555 0.69565 0.33998 0.0
H1275 H 0.01904 0.65365 0.38806 0.0
H1276 H 0.07614 0.70527 0.49778 0.0
H1277 H 0.11294 0.74725 0.44995 0.0
H1278 H 0.03673 0.63654 0.51096 0.0
H1279 H 0.03163 0.73134 0.46575 0.0
H1280 H 0.03222 0.76687 0.4084 0.0
H1281 H 0.95275 0.68864 0.34684 0.0
H1282 H 0.95212 0.65259 0.40354 0.0
H1283 H 0.96301 0.67196 0.67714 0.0
H1284 H 0.99228 0.66296 0.62029 0.0
H1285 H 0.9072 0.6157 0.54313 0.0
H1286 H 0.87802 0.62542 0.59939 0.0
H1287 H 0.95142 0.66397 0.5025 0.0
H1288 H 0.94653 0.57626 0.5739 0.0
H1289 H 0.94897 0.54479 0.63459 0.0
H1290 H 0.04791 0.61104 0.65137 0.0
H1291 H 0.04602 0.64322 0.59123 0.0
C1292 C 0.06088 0.69754 0.3742 0.0
C1293 C 0.08622 0.7252 0.39162 0.0
C1294 C 0.04031 0.67329 0.40148 0.0
C1295 C 0.04471 0.67679 0.44633 0.0
C1296 C 0.07243 0.70225 0.46316 0.0
C1297 C 0.09314 0.72646 0.43587 0.0
C1298 C 0.0172 0.66063 0.47502 0.0
C1299 C 0.01772 0.642 0.50916 0.0
C1300 C 0.99235 0.6676 0.47186 0.0
C1301 C 0.99203 0.68928 0.4385 0.0
C1302 C 0.01437 0.72175 0.43987 0.0
C1303 C 0.01474 0.74196 0.4075 0.0
C1304 C 0.99258 0.73 0.37395 0.0
C1305 C 0.96995 0.69784 0.3728 0.0
C1306 C 0.96958 0.67751 0.40501 0.0
C1307 C 0.95047 0.65917 0.64837 0.0
C1308 C 0.91853 0.65008 0.64207 0.0
C1309 C 0.96707 0.65359 0.61618 0.0
C1310 C 0.95181 0.63843 0.57762 0.0
C1311 C 0.91934 0.62735 0.57272 0.0
C1312 C 0.90283 0.63323 0.60464 0.0
C1313 C 0.97096 0.64021 0.53973 0.0
C1314 C 0.9692 0.65674 0.50373 0.0
C1315 C 0.99466 0.63151 0.54177 0.0
C1316 C 0.99609 0.61223 0.57799 0.0
C1317 C 0.96878 0.58426 0.59068 0.0
C1318 C 0.97007 0.56626 0.62499 0.0
C1319 C 0.99857 0.57591 0.64683 0.0
C1320 C 0.02586 0.60357 0.63438 0.0
C1321 C 0.0247 0.62167 0.6001 0.0
H1322 H 0.99952 0.56195 0.67339 0.0
H1323 H 0.99292 0.74568 0.3489 0.0
H1324 H 0.38905 0.13656 0.93501 0.0
H1325 H 0.39836 0.10851 0.99355 0.0
H1326 H 0.34782 0.02125 0.92183 0.0
H1327 H 0.33952 0.04937 0.86277 0.0
H1328 H 0.35082 0.06847 0.03688 0.0
H1329 H 0.36116 0.96517 0.95494 0.0
H1330 H 0.39218 0.95888 0.897 0.0
H1331 H 0.46423 0.05617 0.91069 0.0
H1332 H 0.43393 0.06299 0.96922 0.0
H1333 H 0.25821 0.90153 0.08873 0.0
H1334 H 0.29986 0.94106 0.0429 0.0
H1335 H 0.34749 0.99691 0.15545 0.0
H1336 H 0.30569 0.95773 0.20151 0.0
H1337 H 0.36664 0.97554 0.03408 0.0
H1338 H 0.36116 0.07068 0.13273 0.0
H1339 H 0.32763 0.07674 0.18736 0.0
H1340 H 0.24512 0.99702 0.13376 0.0
H1341 H 0.27812 0.99086 0.07851 0.0
C1342 C 0.38061 0.11151 0.9314 0.0
C1343 C 0.36294 0.09489 0.89496 0.0
C1344 C 0.38621 0.09561 0.96464 0.0
C1345 C 0.37388 0.06281 0.96211 0.0
C1346 C 0.35819 0.04666 0.92424 0.0
C1347 C 0.35302 0.06265 0.89072 0.0
C1348 C 0.37094 0.0445 1.0016 0.0
C1349 C 0.35554 0.04894 0.0369 0.0
C1350 C 0.37662 0.01872 1.00149 0.0
C1351 C 0.39517 0.0146 0.96656 0.0
C1352 C 0.38374 0.98518 0.94593 0.0
C1353 C 0.40118 0.98153 0.91286 0.0
C1354 C 0.43014 0.00711 0.90015 0.0
C1355 C 0.44175 0.03639 0.92051 0.0
C1356 C 0.42442 0.04017 0.9536 0.0
C1357 C 0.27788 0.92191 0.10378 0.0
C1358 C 0.27831 0.92709 0.14843 0.0
C1359 C 0.30186 0.94424 0.07765 0.0
C1360 C 0.32648 0.97194 0.0959 0.0
C1361 C 0.32854 0.97569 0.1409 0.0
C1362 C 0.30448 0.95348 0.16702 0.0
C1363 C 0.34551 0.99908 0.06749 0.0
C1364 C 0.36363 0.99613 0.0346 0.0
C1365 C 0.34227 0.02629 0.06942 0.0
C1366 C 0.32215 0.03006 0.10203 0.0
C1367 C 0.33585 0.05452 0.13264 0.0
C1368 C 0.31695 0.05797 0.16365 0.0
C1369 C 0.28429 0.0372 0.16414 0.0
C1370 C 0.27043 0.01303 0.13345 0.0
C1371 C 0.28921 0.00955 0.1023 0.0
H1372 H 0.26971 0.03988 0.18822 0.0
H1373 H 0.44359 0.00423 0.87453 0.0
H1374 H 0.34348 0.30845 0.71198 0.0
H1375 H 0.34973 0.3547 0.67264 0.0
H1376 H 0.36036 0.31507 0.55347 0.0
H1377 H 0.3544 0.26892 0.59251 0.0
H1378 H 0.39541 0.38313 0.55589 0.0
H1379 H 0.28768 0.29245 0.58524 0.0
H1380 H 0.2466 0.25678 0.63651 0.0
H1381 H 0.25159 0.33682 0.7019 0.0
H1382 H 0.29304 0.37294 0.65125 0.0
H1383 H 0.30457 0.3563 0.37808 0.0
H1384 H 0.33908 0.36794 0.44025 0.0
H1385 H 0.29111 0.41061 0.50505 0.0
H1386 H 0.2553 0.39739 0.44326 0.0
H1387 H 0.28636 0.36644 0.55065 0.0
H1388 H 0.37558 0.45207 0.49153 0.0
H1389 H 0.41513 0.48545 0.43727 0.0
H1390 H 0.44567 0.41702 0.42526 0.0
H1391 H 0.40601 0.38293 0.47885 0.0
C1392 C 0.34781 0.30991 0.67751 0.0
C1393 C 0.34757 0.28474 0.65499 0.0
C1394 C 0.35177 0.33651 0.65527 0.0
C1395 C 0.35531 0.33811 0.61026 0.0
C1396 C 0.35786 0.3143 0.58832 0.0
C1397 C 0.35395 0.28773 0.61052 0.0
C1398 C 0.3492 0.36003 0.58479 0.0
C1399 C 0.3718 0.38009 0.55475 0.0
C1400 C 0.31879 0.35695 0.58495 0.0
C1401 C 0.29361 0.33532 0.61491 0.0
C1402 C 0.28008 0.30239 0.6107 0.0
C1403 C 0.25676 0.28212 0.63962 0.0
C1404 C 0.24655 0.29454 0.67252 0.0
C1405 C 0.25958 0.32725 0.67647 0.0
C1406 C 0.28299 0.34763 0.6477 0.0
C1407 C 0.30192 0.36889 0.40512 0.0
C1408 C 0.27683 0.37519 0.40654 0.0
C1409 C 0.32206 0.37607 0.44052 0.0
C1410 C 0.31788 0.39034 0.47751 0.0
C1411 C 0.29476 0.39954 0.47698 0.0
C1412 C 0.27415 0.39174 0.44189 0.0
C1413 C 0.3319 0.3881 0.51897 0.0
C1414 C 0.3107 0.37151 0.55251 0.0
C1415 C 0.36358 0.39452 0.52177 0.0
C1416 C 0.38777 0.41492 0.48949 0.0
C1417 C 0.39062 0.44403 0.47722 0.0
C1418 C 0.41308 0.4631 0.44654 0.0
C1419 C 0.43292 0.45338 0.42787 0.0
C1420 C 0.43035 0.42457 0.43986 0.0
C1421 C 0.40793 0.40539 0.47051 0.0
H1422 H 0.45029 0.46817 0.40411 0.0
H1423 H 0.2285 0.27881 0.69488 0.0
H1424 H 0.04703 0.35003 0.21019 0.0
H1425 H 0.00575 0.35155 0.16711 0.0
H1426 H 0.05928 0.36252 0.05118 0.0
H1427 H 0.10079 0.36123 0.09398 0.0
H1428 H 0.01898 0.39089 0.04683 0.0
H1429 H 0.01679 0.29093 0.08497 0.0
H1430 H 0.01764 0.25429 0.13934 0.0
H1431 H 0.93681 0.2495 0.20211 0.0
H1432 H 0.93589 0.28658 0.1484 0.0
H1433 H 0.95702 0.29016 0.87503 0.0
H1434 H 0.98047 0.32667 0.93521 0.0
H1435 H 0.89212 0.27798 1.00474 0.0
H1436 H 0.86881 0.2406 0.94492 0.0
H1437 H 0.93604 0.27764 0.04903 0.0
H1438 H 0.92739 0.35921 0.98323 0.0
H1439 H 0.92814 0.39435 0.92543 0.0
H1440 H 0.02841 0.43351 0.91112 0.0
H1441 H 0.02828 0.39826 0.96828 0.0
C1442 C 0.0504 0.35359 0.17562 0.0
C1443 C 0.07655 0.35445 0.15511 0.0
C1444 C 0.02701 0.3549 0.15122 0.0
C1445 C 0.02945 0.35683 0.1061 0.0
C1446 C 0.05713 0.36116 0.08607 0.0
C1447 C 0.08057 0.35991 0.11045 0.0
C1448 C 1.00092 0.34625 0.0794 0.0
C1449 C 1.00044 0.3663 0.0473 0.0
C1450 C 0.97635 0.31442 0.08134 0.0
C1451 C 0.9765 0.29174 0.11312 0.0
C1452 C 0.99932 0.28216 0.11053 0.0
C1453 C 0.99983 0.26135 0.1412 0.0
C1454 C 0.97734 0.24964 0.17423 0.0
C1455 C 0.95426 0.25866 0.17657 0.0
C1456 C 0.95375 0.27959 0.14607 0.0
C1457 C 0.94242 0.28762 0.90278 0.0
C1458 C 0.91143 0.26216 0.90591 0.0
C1459 C 0.95567 0.30885 0.93694 0.0
C1460 C 0.93795 0.30525 0.97442 0.0
C1461 C 0.90616 0.28123 0.97608 0.0
C1462 C 0.89302 0.25973 0.94213 0.0
C1463 C 0.95469 0.32179 1.01434 0.0
C1464 C 0.95318 0.30274 0.04927 0.0
C1465 C 0.97732 0.35444 1.01461 0.0
C1466 C 0.97779 0.37601 0.98024 0.0
C1467 C 0.94961 0.37519 0.96765 0.0
C1468 C 0.94992 0.39515 0.93497 0.0
C1469 C 0.97831 0.41616 0.91464 0.0
C1470 C 0.00645 0.41727 0.92698 0.0
C1471 C 0.00627 0.39734 0.95963 0.0
H1472 H 0.97849 0.43158 0.88932 0.0
H1473 H 0.97776 0.23352 0.19795 0.0
H1474 H 0.75204 0.12388 0.58924 0.0
H1475 H 0.71314 0.09672 0.53198 0.0
H1476 H 0.6776 0.00868 0.60146 0.0
H1477 H 0.71548 0.03594 0.65936 0.0
H1478 H 0.71714 0.0562 0.48476 0.0
H1479 H 0.60702 0.95386 0.57242 0.0
H1480 H 0.57322 0.94749 0.63502 0.0
H1481 H 0.5993 0.04535 0.62731 0.0
H1482 H 0.63292 0.05234 0.56411 0.0
H1483 H 0.64381 0.8917 0.43714 0.0
H1484 H 0.6403 0.93056 0.48274 0.0
H1485 H 0.64265 0.98351 0.36967 0.0
H1486 H 0.64644 0.94481 0.32369 0.0
H1487 H 0.60798 0.96502 0.49425 0.0
H1488 H 0.70357 0.05715 0.38781 0.0
H1489 H 0.74028 0.06165 0.32964 0.0
H1490 H 0.74626 0.98352 0.38328 0.0
H1491 H 0.71004 0.97896 0.44206 0.0
C1492 C 0.73545 0.09883 0.59259 0.0
C1493 C 0.73705 0.08178 0.62817 0.0
C1494 C 0.71307 0.08344 0.56011 0.0
C1495 C 0.69225 0.05073 0.56252 0.0
C1496 C 0.69279 0.03406 0.59929 0.0
C1497 C 0.7148 0.04955 0.6321 0.0
C1498 C 0.67483 0.03295 0.52363 0.0
C1499 C 0.69278 0.03712 0.48628 0.0
C1500 C 0.6432 0.00773 0.52571 0.0
C1501 C 0.62255 0.00361 0.56335 0.0
C1502 C 0.60534 0.974 0.58371 0.0
C1503 C 0.58627 0.9703 0.61941 0.0
C1504 C 0.58414 0.99602 0.63511 0.0
C1505 C 0.60105 0.0255 0.6151 0.0
C1506 C 0.62015 0.02934 0.57936 0.0
C1507 C 0.64274 0.91115 0.42191 0.0
C1508 C 0.64649 0.91589 0.3771 0.0
C1509 C 0.64026 0.93309 0.44794 0.0
C1510 C 0.64166 0.96002 0.42946 0.0
C1511 C 0.64169 0.96288 0.38438 0.0
C1512 C 0.64422 0.94095 0.35829 0.0
C1513 C 0.65096 0.98776 0.45726 0.0
C1514 C 0.63162 0.98533 0.4922 0.0
C1515 C 0.68151 0.0145 0.45352 0.0
C1516 C 0.7038 0.01746 0.41884 0.0
C1517 C 0.71281 0.04101 0.38716 0.0
C1518 C 0.73353 0.04358 0.35415 0.0
C1519 C 0.74549 0.02281 0.35267 0.0
C1520 C 0.73692 0.99954 0.38438 0.0
C1521 C 0.71632 0.99697 0.41755 0.0
H1522 H 0.76147 0.02479 0.32704 0.0
H1523 H 0.56938 0.99312 0.66279 0.0
loop_
_geom_bond_atom_site_label_1
_geom_bond_atom_site_label_2
_geom_bond_distance
_geom_bond_site_symmetry_2
_ccdc_geom_bond_type
Cd0 N3 2.334 . S
Cd0 N29 2.304 . S
Cd0 O36 2.268 . S
Cd0 O39 2.273 . S
Cd0 O40 2.417 . S
Cd0 O41 2.330 . S
Cd1 N16 2.304 . S
Cd1 N20 2.334 . S
Cd1 O37 2.273 . S
Cd1 O38 2.268 . S
Cd1 O42 2.417 . S
Cd1 O43 2.330 . S
C2 N3 1.332 . S
C2 C6 1.381 . S
C2 H8 0.931 . S
N3 Cd0 2.334 . S
N3 C2 1.332 . S
N3 C7 1.328 . S
C4 C5 1.396 . S
C4 C7 1.378 . S
C4 H46 0.931 . S
C5 C4 1.396 . S
C5 C6 1.382 . S
C6 C2 1.381 . S
C6 C5 1.382 . S
C6 H47 0.930 . S
C7 N3 1.328 . S
C7 C4 1.378 . S
C7 H9 0.930 . S
H8 C2 0.931 . S
H9 C7 0.930 . S
C10 O36 1.238 . S
C10 O37 1.253 . S
C11 C12 1.379 . S
C11 N16 1.337 . S
C11 H17 0.929 . S
C12 C11 1.379 . S
C12 C13 1.380 . S
C12 H48 0.929 . S
C13 C12 1.380 . S
C13 C14 1.399 . S
C14 C13 1.399 . S
C14 C15 1.376 . S
C14 H49 0.931 . S
C15 C14 1.376 . S
C15 N16 1.338 . S
C15 H18 0.930 . S
N16 Cd1 2.304 . S
N16 C11 1.337 . S
N16 C15 1.338 . S
H17 C11 0.929 . S
H18 C15 0.930 . S
C19 N20 1.332 . S
C19 C23 1.381 . S
C19 H25 0.931 . S
N20 Cd1 2.334 . S
N20 C19 1.332 . S
N20 C24 1.328 . S
C21 C22 1.396 . S
C21 C24 1.378 . S
C21 H50 0.931 . S
C22 C21 1.396 . S
C22 C23 1.382 . S
C23 C19 1.381 . S
C23 C22 1.382 . S
C23 H51 0.930 . S
C24 N20 1.328 . S
C24 C21 1.378 . S
C24 H26 0.930 . S
H25 C19 0.931 . S
H26 C24 0.930 . S
C27 O38 1.238 . S
C27 O39 1.253 . S
C28 O40 1.239 . S
C28 O41 1.230 . S
N29 Cd0 2.304 . S
N29 C30 1.337 . S
N29 C34 1.338 . S
C30 N29 1.337 . S
C30 C31 1.379 . S
C30 H44 0.929 . S
C31 C30 1.379 . S
C31 C32 1.380 . S
C31 H52 0.929 . S
C32 C31 1.380 . S
C32 C33 1.399 . S
C33 C32 1.399 . S
C33 C34 1.376 . S
C33 H53 0.931 . S
C34 N29 1.338 . S
C34 C33 1.376 . S
C34 H45 0.930 . S
C35 O42 1.239 . S
C35 O43 1.230 . S
O36 Cd0 2.268 . S
O36 C10 1.238 . S
O37 Cd1 2.273 . S
O37 C10 1.253 . S
O38 Cd1 2.268 . S
O38 C27 1.238 . S
O39 Cd0 2.273 . S
O39 C27 1.253 . S
O40 Cd0 2.417 . S
O40 C28 1.239 . S
O41 Cd0 2.330 . S
O41 C28 1.230 . S
O42 Cd1 2.417 . S
O42 C35 1.239 . S
O43 Cd1 2.330 . S
O43 C35 1.230 . S
H44 C30 0.929 . S
H45 C34 0.930 . S
H46 C4 0.931 . S
H47 C6 0.930 . S
H48 C12 0.929 . S
H49 C14 0.931 . S
H50 C21 0.931 . S
H51 C23 0.930 . S
H52 C31 0.929 . S
H53 C33 0.931 . S
Cd54 N57 2.334 . S
Cd54 N83 2.304 . S
Cd54 O90 2.268 . S
Cd54 O93 2.273 . S
Cd54 O94 2.417 . S
Cd54 O95 2.330 . S
Cd55 N70 2.304 . S
Cd55 N74 2.334 . S
Cd55 O91 2.273 . S
Cd55 O92 2.268 . S
Cd55 O96 2.417 . S
Cd55 O97 2.330 . S
C56 N57 1.332 . S
C56 C60 1.381 . S
C56 H62 0.931 . S
N57 Cd54 2.334 . S
N57 C56 1.332 . S
N57 C61 1.328 . S
C58 C59 1.396 . S
C58 C61 1.378 . S
C58 H100 0.931 . S
C59 C58 1.396 . S
C59 C60 1.382 . S
C60 C56 1.381 . S
C60 C59 1.382 . S
C60 H101 0.930 . S
C61 N57 1.328 . S
C61 C58 1.378 . S
C61 H63 0.930 . S
H62 C56 0.931 . S
H63 C61 0.930 . S
C64 O90 1.238 . S
C64 O91 1.253 . S
C65 C66 1.379 . S
C65 N70 1.337 . S
C65 H71 0.929 . S
C66 C65 1.379 . S
C66 C67 1.380 . S
C66 H102 0.929 . S
C67 C66 1.380 . S
C67 C68 1.399 . S
C68 C67 1.399 . S
C68 C69 1.376 . S
C68 H103 0.931 . S
C69 C68 1.376 . S
C69 N70 1.338 . S
C69 H72 0.930 . S
N70 Cd55 2.304 . S
N70 C65 1.337 . S
N70 C69 1.338 . S
H71 C65 0.929 . S
H72 C69 0.930 . S
C73 N74 1.332 . S
C73 C77 1.381 . S
C73 H79 0.931 . S
N74 Cd55 2.334 . S
N74 C73 1.332 . S
N74 C78 1.328 . S
C75 C76 1.396 . S
C75 C78 1.378 . S
C75 H104 0.931 . S
C76 C75 1.396 . S
C76 C77 1.382 . S
C77 C73 1.381 . S
C77 C76 1.382 . S
C77 H105 0.930 . S
C78 N74 1.328 . S
C78 C75 1.378 . S
C78 H80 0.930 . S
H79 C73 0.931 . S
H80 C78 0.930 . S
C81 O92 1.238 . S
C81 O93 1.253 . S
C82 O94 1.239 . S
C82 O95 1.230 . S
N83 Cd54 2.304 . S
N83 C84 1.337 . S
N83 C88 1.338 . S
C84 N83 1.337 . S
C84 C85 1.379 . S
C84 H98 0.929 . S
C85 C84 1.379 . S
C85 C86 1.380 . S
C85 H106 0.929 . S
C86 C85 1.380 . S
C86 C87 1.399 . S
C87 C86 1.399 . S
C87 C88 1.376 . S
C87 H107 0.931 . S
C88 N83 1.338 . S
C88 C87 1.376 . S
C88 H99 0.930 . S
C89 O96 1.239 . S
C89 O97 1.230 . S
O90 Cd54 2.268 . S
O90 C64 1.238 . S
O91 Cd55 2.273 . S
O91 C64 1.253 . S
O92 Cd55 2.268 . S
O92 C81 1.238 . S
O93 Cd54 2.273 . S
O93 C81 1.253 . S
O94 Cd54 2.417 . S
O94 C82 1.239 . S
O95 Cd54 2.330 . S
O95 C82 1.230 . S
O96 Cd55 2.417 . S
O96 C89 1.239 . S
O97 Cd55 2.330 . S
O97 C89 1.230 . S
H98 C84 0.929 . S
H99 C88 0.930 . S
H100 C58 0.931 . S
H101 C60 0.930 . S
H102 C66 0.929 . S
H103 C68 0.931 . S
H104 C75 0.931 . S
H105 C77 0.930 . S
H106 C85 0.929 . S
H107 C87 0.931 . S
Cd108 N111 2.334 . S
Cd108 N137 2.304 . S
Cd108 O144 2.268 . S
Cd108 O147 2.273 . S
Cd108 O148 2.417 . S
Cd108 O149 2.330 . S
Cd109 N124 2.304 . S
Cd109 N128 2.334 . S
Cd109 O145 2.273 . S
Cd109 O146 2.268 . S
Cd109 O150 2.417 . S
Cd109 O151 2.330 . S
C110 N111 1.332 . S
C110 C114 1.381 . S
C110 H116 0.931 . S
N111 Cd108 2.334 . S
N111 C110 1.332 . S
N111 C115 1.328 . S
C112 C113 1.396 . S
C112 C115 1.378 . S
C112 H154 0.931 . S
C113 C112 1.396 . S
C113 C114 1.382 . S
C114 C110 1.381 . S
C114 C113 1.382 . S
C114 H155 0.930 . S
C115 N111 1.328 . S
C115 C112 1.378 . S
C115 H117 0.930 . S
H116 C110 0.931 . S
H117 C115 0.930 . S
C118 O144 1.238 . S
C118 O145 1.253 . S
C119 C120 1.379 . S
C119 N124 1.337 . S
C119 H125 0.929 . S
C120 C119 1.379 . S
C120 C121 1.380 . S
C120 H156 0.929 . S
C121 C120 1.380 . S
C121 C122 1.399 . S
C122 C121 1.399 . S
C122 C123 1.376 . S
C122 H157 0.931 . S
C123 C122 1.376 . S
C123 N124 1.338 . S
C123 H126 0.930 . S
N124 Cd109 2.304 . S
N124 C119 1.337 . S
N124 C123 1.338 . S
H125 C119 0.929 . S
H126 C123 0.930 . S
C127 N128 1.332 . S
C127 C131 1.381 . S
C127 H133 0.931 . S
N128 Cd109 2.334 . S
N128 C127 1.332 . S
N128 C132 1.328 . S
C129 C130 1.396 . S
C129 C132 1.378 . S
C129 H158 0.931 . S
C130 C129 1.396 . S
C130 C131 1.382 . S
C131 C127 1.381 . S
C131 C130 1.382 . S
C131 H159 0.930 . S
C132 N128 1.328 . S
C132 C129 1.378 . S
C132 H134 0.930 . S
H133 C127 0.931 . S
H134 C132 0.930 . S
C135 O146 1.238 . S
C135 O147 1.253 . S
C136 O148 1.239 . S
C136 O149 1.230 . S
N137 Cd108 2.304 . S
N137 C138 1.337 . S
N137 C142 1.338 . S
C138 N137 1.337 . S
C138 C139 1.379 . S
C138 H152 0.929 . S
C139 C138 1.379 . S
C139 C140 1.380 . S
C139 H160 0.929 . S
C140 C139 1.380 . S
C140 C141 1.399 . S
C141 C140 1.399 . S
C141 C142 1.376 . S
C141 H161 0.931 . S
C142 N137 1.338 . S
C142 C141 1.376 . S
C142 H153 0.930 . S
C143 O150 1.239 . S
C143 O151 1.230 . S
O144 Cd108 2.268 . S
O144 C118 1.238 . S
O145 Cd109 2.273 . S
O145 C118 1.253 . S
O146 Cd109 2.268 . S
O146 C135 1.238 . S
O147 Cd108 2.273 . S
O147 C135 1.253 . S
O148 Cd108 2.417 . S
O148 C136 1.239 . S
O149 Cd108 2.330 . S
O149 C136 1.230 . S
O150 Cd109 2.417 . S
O150 C143 1.239 . S
O151 Cd109 2.330 . S
O151 C143 1.230 . S
H152 C138 0.929 . S
H153 C142 0.930 . S
H154 C112 0.931 . S
H155 C114 0.930 . S
H156 C120 0.929 . S
H157 C122 0.931 . S
H158 C129 0.931 . S
H159 C131 0.930 . S
H160 C139 0.929 . S
H161 C141 0.931 . S
Cd162 N165 2.334 . S
Cd162 N191 2.304 . S
Cd162 O198 2.268 . S
Cd162 O201 2.273 . S
Cd162 O202 2.417 . S
Cd162 O203 2.330 . S
Cd163 N178 2.304 . S
Cd163 N182 2.334 . S
Cd163 O199 2.273 . S
Cd163 O200 2.268 . S
Cd163 O204 2.417 . S
Cd163 O205 2.330 . S
C164 N165 1.332 . S
C164 C168 1.381 . S
C164 H170 0.931 . S
N165 Cd162 2.334 . S
N165 C164 1.332 . S
N165 C169 1.328 . S
C166 C167 1.396 . S
C166 C169 1.378 . S
C166 H208 0.931 . S
C167 C166 1.396 . S
C167 C168 1.382 . S
C168 C164 1.381 . S
C168 C167 1.382 . S
C168 H209 0.930 . S
C169 N165 1.328 . S
C169 C166 1.378 . S
C169 H171 0.930 . S
H170 C164 0.931 . S
H171 C169 0.930 . S
C172 O198 1.238 . S
C172 O199 1.253 . S
C173 C174 1.379 . S
C173 N178 1.337 . S
C173 H179 0.929 . S
C174 C173 1.379 . S
C174 C175 1.380 . S
C174 H210 0.929 . S
C175 C174 1.380 . S
C175 C176 1.399 . S
C176 C175 1.399 . S
C176 C177 1.376 . S
C176 H211 0.931 . S
C177 C176 1.376 . S
C177 N178 1.338 . S
C177 H180 0.930 . S
N178 Cd163 2.304 . S
N178 C173 1.337 . S
N178 C177 1.338 . S
H179 C173 0.929 . S
H180 C177 0.930 . S
C181 N182 1.332 . S
C181 C185 1.381 . S
C181 H187 0.931 . S
N182 Cd163 2.334 . S
N182 C181 1.332 . S
N182 C186 1.328 . S
C183 C184 1.396 . S
C183 C186 1.378 . S
C183 H212 0.931 . S
C184 C183 1.396 . S
C184 C185 1.382 . S
C185 C181 1.381 . S
C185 C184 1.382 . S
C185 H213 0.930 . S
C186 N182 1.328 . S
C186 C183 1.378 . S
C186 H188 0.930 . S
H187 C181 0.931 . S
H188 C186 0.930 . S
C189 O200 1.238 . S
C189 O201 1.253 . S
C190 O202 1.239 . S
C190 O203 1.230 . S
N191 Cd162 2.304 . S
N191 C192 1.337 . S
N191 C196 1.338 . S
C192 N191 1.337 . S
C192 C193 1.379 . S
C192 H206 0.929 . S
C193 C192 1.379 . S
C193 C194 1.380 . S
C193 H214 0.929 . S
C194 C193 1.380 . S
C194 C195 1.399 . S
C195 C194 1.399 . S
C195 C196 1.376 . S
C195 H215 0.931 . S
C196 N191 1.338 . S
C196 C195 1.376 . S
C196 H207 0.930 . S
C197 O204 1.239 . S
C197 O205 1.230 . S
O198 Cd162 2.268 . S
O198 C172 1.238 . S
O199 Cd163 2.273 . S
O199 C172 1.253 . S
O200 Cd163 2.268 . S
O200 C189 1.238 . S
O201 Cd162 2.273 . S
O201 C189 1.253 . S
O202 Cd162 2.417 . S
O202 C190 1.239 . S
O203 Cd162 2.330 . S
O203 C190 1.230 . S
O204 Cd163 2.417 . S
O204 C197 1.239 . S
O205 Cd163 2.330 . S
O205 C197 1.230 . S
H206 C192 0.929 . S
H207 C196 0.930 . S
H208 C166 0.931 . S
H209 C168 0.930 . S
H210 C174 0.929 . S
H211 C176 0.931 . S
H212 C183 0.931 . S
H213 C185 0.930 . S
H214 C193 0.929 . S
H215 C195 0.931 . S
Cd216 N219 2.334 . S
Cd216 N245 2.304 . S
Cd216 O252 2.268 . S
Cd216 O255 2.273 . S
Cd216 O256 2.417 . S
Cd216 O257 2.330 . S
Cd217 N232 2.304 . S
Cd217 N236 2.334 . S
Cd217 O253 2.273 . S
Cd217 O254 2.268 . S
Cd217 O258 2.417 . S
Cd217 O259 2.330 . S
C218 N219 1.332 . S
C218 C222 1.381 . S
C218 H224 0.931 . S
N219 Cd216 2.334 . S
N219 C218 1.332 . S
N219 C223 1.328 . S
C220 C221 1.396 . S
C220 C223 1.378 . S
C220 H262 0.931 . S
C221 C220 1.396 . S
C221 C222 1.382 . S
C222 C218 1.381 . S
C222 C221 1.382 . S
C222 H263 0.930 . S
C223 N219 1.328 . S
C223 C220 1.378 . S
C223 H225 0.930 . S
H224 C218 0.931 . S
H225 C223 0.930 . S
C226 O252 1.238 . S
C226 O253 1.253 . S
C227 C228 1.379 . S
C227 N232 1.337 . S
C227 H233 0.929 . S
C228 C227 1.379 . S
C228 C229 1.380 . S
C228 H264 0.929 . S
C229 C228 1.380 . S
C229 C230 1.399 . S
C230 C229 1.399 . S
C230 C231 1.376 . S
C230 H265 0.931 . S
C231 C230 1.376 . S
C231 N232 1.338 . S
C231 H234 0.930 . S
N232 Cd217 2.304 . S
N232 C227 1.337 . S
N232 C231 1.338 . S
H233 C227 0.929 . S
H234 C231 0.930 . S
C235 N236 1.332 . S
C235 C239 1.381 . S
C235 H241 0.931 . S
N236 Cd217 2.334 . S
N236 C235 1.332 . S
N236 C240 1.328 . S
C237 C238 1.396 . S
C237 C240 1.378 . S
C237 H266 0.931 . S
C238 C237 1.396 . S
C238 C239 1.382 . S
C239 C235 1.381 . S
C239 C238 1.382 . S
C239 H267 0.930 . S
C240 N236 1.328 . S
C240 C237 1.378 . S
C240 H242 0.930 . S
H241 C235 0.931 . S
H242 C240 0.930 . S
C243 O254 1.238 . S
C243 O255 1.253 . S
C244 O256 1.239 . S
C244 O257 1.230 . S
N245 Cd216 2.304 . S
N245 C246 1.337 . S
N245 C250 1.338 . S
C246 N245 1.337 . S
C246 C247 1.379 . S
C246 H260 0.929 . S
C247 C246 1.379 . S
C247 C248 1.380 . S
C247 H268 0.929 . S
C248 C247 1.380 . S
C248 C249 1.399 . S
C249 C248 1.399 . S
C249 C250 1.376 . S
C249 H269 0.931 . S
C250 N245 1.338 . S
C250 C249 1.376 . S
C250 H261 0.930 . S
C251 O258 1.239 . S
C251 O259 1.230 . S
O252 Cd216 2.268 . S
O252 C226 1.238 . S
O253 Cd217 2.273 . S
O253 C226 1.253 . S
O254 Cd217 2.268 . S
O254 C243 1.238 . S
O255 Cd216 2.273 . S
O255 C243 1.253 . S
O256 Cd216 2.417 . S
O256 C244 1.239 . S
O257 Cd216 2.330 . S
O257 C244 1.230 . S
O258 Cd217 2.417 . S
O258 C251 1.239 . S
O259 Cd217 2.330 . S
O259 C251 1.230 . S
H260 C246 0.929 . S
H261 C250 0.930 . S
H262 C220 0.931 . S
H263 C222 0.930 . S
H264 C228 0.929 . S
H265 C230 0.931 . S
H266 C237 0.931 . S
H267 C239 0.930 . S
H268 C247 0.929 . S
H269 C249 0.931 . S
Cd270 N273 2.334 . S
Cd270 N299 2.304 . S
Cd270 O306 2.268 . S
Cd270 O309 2.273 . S
Cd270 O310 2.417 . S
Cd270 O311 2.330 . S
Cd271 N286 2.304 . S
Cd271 N290 2.334 . S
Cd271 O307 2.273 . S
Cd271 O308 2.268 . S
Cd271 O312 2.417 . S
Cd271 O313 2.330 . S
C272 N273 1.332 . S
C272 C276 1.381 . S
C272 H278 0.931 . S
N273 Cd270 2.334 . S
N273 C272 1.332 . S
N273 C277 1.328 . S
C274 C275 1.396 . S
C274 C277 1.378 . S
C274 H316 0.931 . S
C275 C274 1.396 . S
C275 C276 1.382 . S
C276 C272 1.381 . S
C276 C275 1.382 . S
C276 H317 0.930 . S
C277 N273 1.328 . S
C277 C274 1.378 . S
C277 H279 0.930 . S
H278 C272 0.931 . S
H279 C277 0.930 . S
C280 O306 1.238 . S
C280 O307 1.253 . S
C281 C282 1.379 . S
C281 N286 1.337 . S
C281 H287 0.929 . S
C282 C281 1.379 . S
C282 C283 1.380 . S
C282 H318 0.929 . S
C283 C282 1.380 . S
C283 C284 1.399 . S
C284 C283 1.399 . S
C284 C285 1.376 . S
C284 H319 0.931 . S
C285 C284 1.376 . S
C285 N286 1.338 . S
C285 H288 0.930 . S
N286 Cd271 2.304 . S
N286 C281 1.337 . S
N286 C285 1.338 . S
H287 C281 0.929 . S
H288 C285 0.930 . S
C289 N290 1.332 . S
C289 C293 1.381 . S
C289 H295 0.931 . S
N290 Cd271 2.334 . S
N290 C289 1.332 . S
N290 C294 1.328 . S
C291 C292 1.396 . S
C291 C294 1.378 . S
C291 H320 0.931 . S
C292 C291 1.396 . S
C292 C293 1.382 . S
C293 C289 1.381 . S
C293 C292 1.382 . S
C293 H321 0.930 . S
C294 N290 1.328 . S
C294 C291 1.378 . S
C294 H296 0.930 . S
H295 C289 0.931 . S
H296 C294 0.930 . S
C297 O308 1.238 . S
C297 O309 1.253 . S
C298 O310 1.239 . S
C298 O311 1.230 . S
N299 Cd270 2.304 . S
N299 C300 1.337 . S
N299 C304 1.338 . S
C300 N299 1.337 . S
C300 C301 1.379 . S
C300 H314 0.929 . S
C301 C300 1.379 . S
C301 C302 1.380 . S
C301 H322 0.929 . S
C302 C301 1.380 . S
C302 C303 1.399 . S
C303 C302 1.399 . S
C303 C304 1.376 . S
C303 H323 0.931 . S
C304 N299 1.338 . S
C304 C303 1.376 . S
C304 H315 0.930 . S
C305 O312 1.239 . S
C305 O313 1.230 . S
O306 Cd270 2.268 . S
O306 C280 1.238 . S
O307 Cd271 2.273 . S
O307 C280 1.253 . S
O308 Cd271 2.268 . S
O308 C297 1.238 . S
O309 Cd270 2.273 . S
O309 C297 1.253 . S
O310 Cd270 2.417 . S
O310 C298 1.239 . S
O311 Cd270 2.330 . S
O311 C298 1.230 . S
O312 Cd271 2.417 . S
O312 C305 1.239 . S
O313 Cd271 2.330 . S
O313 C305 1.230 . S
H314 C300 0.929 . S
H315 C304 0.930 . S
H316 C274 0.931 . S
H317 C276 0.930 . S
H318 C282 0.929 . S
H319 C284 0.931 . S
H320 C291 0.931 . S
H321 C293 0.930 . S
H322 C301 0.929 . S
H323 C303 0.931 . S
H324 C342 0.951 . S
H325 C344 0.951 . S
H326 C346 0.950 . S
H327 C347 0.950 . S
H328 C349 0.950 . S
H329 C352 0.950 . S
H330 C353 0.950 . S
H331 C355 0.950 . S
H332 C356 0.950 . S
H333 C357 0.951 . S
H334 C359 0.951 . S
H335 C361 0.950 . S
H336 C362 0.950 . S
H337 C364 0.950 . S
H338 C367 0.950 . S
H339 C368 0.950 . S
H340 C370 0.950 . S
H341 C371 0.950 . S
C342 H324 0.951 . S
C342 C343 1.366 . S
C342 C344 1.388 . S
C343 C342 1.366 . S
C343 C347 1.385 . S
C344 H325 0.951 . S
C344 C342 1.388 . S
C344 C345 1.366 . S
C345 C344 1.366 . S
C345 C346 1.414 . S
C345 C348 1.499 . S
C346 H326 0.950 . S
C346 C345 1.414 . S
C346 C347 1.374 . S
C347 H327 0.950 . S
C347 C343 1.385 . S
C347 C346 1.374 . S
C348 C345 1.499 . S
C348 C349 1.373 . S
C348 C350 1.389 . S
C349 H328 0.950 . S
C349 C348 1.373 . S
C349 C365 1.377 . S
C350 C348 1.389 . S
C350 C351 1.524 . S
C350 C364 1.377 . S
C351 C350 1.524 . S
C351 C352 1.397 . S
C351 C356 1.363 . S
C352 H329 0.950 . S
C352 C351 1.397 . S
C352 C353 1.334 . S
C353 H330 0.950 . S
C353 C352 1.334 . S
C353 C354 1.287 . S
C354 C353 1.287 . S
C354 C355 1.524 . S
C354 H373 0.913 . S
C355 H331 0.950 . S
C355 C354 1.524 . S
C355 C356 1.415 . S
C356 H332 0.950 . S
C356 C351 1.363 . S
C356 C355 1.415 . S
C357 H333 0.951 . S
C357 C358 1.366 . S
C357 C359 1.388 . S
C358 C357 1.366 . S
C358 C362 1.385 . S
C359 H334 0.951 . S
C359 C357 1.388 . S
C359 C360 1.366 . S
C360 C359 1.366 . S
C360 C361 1.414 . S
C360 C363 1.499 . S
C361 H335 0.950 . S
C361 C360 1.414 . S
C361 C362 1.374 . S
C362 H336 0.950 . S
C362 C358 1.385 . S
C362 C361 1.374 . S
C363 C360 1.499 . S
C363 C364 1.373 . S
C363 C365 1.389 . S
C364 H337 0.950 . S
C364 C350 1.377 . S
C364 C363 1.373 . S
C365 C349 1.377 . S
C365 C363 1.389 . S
C365 C366 1.524 . S
C366 C365 1.524 . S
C366 C367 1.397 . S
C366 C371 1.363 . S
C367 H338 0.950 . S
C367 C366 1.397 . S
C367 C368 1.334 . S
C368 H339 0.950 . S
C368 C367 1.334 . S
C368 C369 1.287 . S
C369 C368 1.287 . S
C369 C370 1.524 . S
C369 H372 0.999 . S
C370 H340 0.950 . S
C370 C369 1.524 . S
C370 C371 1.415 . S
C371 H341 0.950 . S
C371 C366 1.363 . S
C371 C370 1.415 . S
H372 C369 0.999 . S
H373 C354 0.913 . S
H374 C392 0.951 . S
H375 C394 0.951 . S
H376 C396 0.950 . S
H377 C397 0.950 . S
H378 C399 0.950 . S
H379 C402 0.950 . S
H380 C403 0.950 . S
H381 C405 0.950 . S
H382 C406 0.950 . S
H383 C407 0.951 . S
H384 C409 0.951 . S
H385 C411 0.950 . S
H386 C412 0.950 . S
H387 C414 0.950 . S
H388 C417 0.950 . S
H389 C418 0.950 . S
H390 C420 0.950 . S
H391 C421 0.950 . S
C392 H374 0.951 . S
C392 C393 1.366 . S
C392 C394 1.388 . S
C393 C392 1.366 . S
C393 C397 1.385 . S
C394 H375 0.951 . S
C394 C392 1.388 . S
C394 C395 1.366 . S
C395 C394 1.366 . S
C395 C396 1.414 . S
C395 C398 1.499 . S
C396 H376 0.950 . S
C396 C395 1.414 . S
C396 C397 1.374 . S
C397 H377 0.950 . S
C397 C393 1.385 . S
C397 C396 1.374 . S
C398 C395 1.499 . S
C398 C399 1.373 . S
C398 C400 1.389 . S
C399 H378 0.950 . S
C399 C398 1.373 . S
C399 C415 1.377 . S
C400 C398 1.389 . S
C400 C401 1.524 . S
C400 C414 1.377 . S
C401 C400 1.524 . S
C401 C402 1.397 . S
C401 C406 1.363 . S
C402 H379 0.950 . S
C402 C401 1.397 . S
C402 C403 1.334 . S
C403 H380 0.950 . S
C403 C402 1.334 . S
C403 C404 1.287 . S
C404 C403 1.287 . S
C404 C405 1.524 . S
C404 H423 0.913 . S
C405 H381 0.950 . S
C405 C404 1.524 . S
C405 C406 1.415 . S
C406 H382 0.950 . S
C406 C401 1.363 . S
C406 C405 1.415 . S
C407 H383 0.951 . S
C407 C408 1.366 . S
C407 C409 1.388 . S
C408 C407 1.366 . S
C408 C412 1.385 . S
C409 H384 0.951 . S
C409 C407 1.388 . S
C409 C410 1.366 . S
C410 C409 1.366 . S
C410 C411 1.414 . S
C410 C413 1.499 . S
C411 H385 0.950 . S
C411 C410 1.414 . S
C411 C412 1.374 . S
C412 H386 0.950 . S
C412 C408 1.385 . S
C412 C411 1.374 . S
C413 C410 1.499 . S
C413 C414 1.373 . S
C413 C415 1.389 . S
C414 H387 0.950 . S
C414 C400 1.377 . S
C414 C413 1.373 . S
C415 C399 1.377 . S
C415 C413 1.389 . S
C415 C416 1.524 . S
C416 C415 1.524 . S
C416 C417 1.397 . S
C416 C421 1.363 . S
C417 H388 0.950 . S
C417 C416 1.397 . S
C417 C418 1.334 . S
C418 H389 0.950 . S
C418 C417 1.334 . S
C418 C419 1.287 . S
C419 C418 1.287 . S
C419 C420 1.524 . S
C419 H422 0.999 . S
C420 H390 0.950 . S
C420 C419 1.524 . S
C420 C421 1.415 . S
C421 H391 0.950 . S
C421 C416 1.363 . S
C421 C420 1.415 . S
H422 C419 0.999 . S
H423 C404 0.913 . S
H424 C442 0.951 . S
H425 C444 0.951 . S
H426 C446 0.950 . S
H427 C447 0.950 . S
H428 C449 0.950 . S
H429 C452 0.950 . S
H430 C453 0.950 . S
H431 C455 0.950 . S
H432 C456 0.950 . S
H433 C457 0.951 . S
H434 C459 0.951 . S
H435 C461 0.950 . S
H436 C462 0.950 . S
H437 C464 0.950 . S
H438 C467 0.950 . S
H439 C468 0.950 . S
H440 C470 0.950 . S
H441 C471 0.950 . S
C442 H424 0.951 . S
C442 C443 1.366 . S
C442 C444 1.388 . S
C443 C442 1.366 . S
C443 C447 1.385 . S
C444 H425 0.951 . S
C444 C442 1.388 . S
C444 C445 1.366 . S
C445 C444 1.366 . S
C445 C446 1.414 . S
C445 C448 1.499 . S
C446 H426 0.950 . S
C446 C445 1.414 . S
C446 C447 1.374 . S
C447 H427 0.950 . S
C447 C443 1.385 . S
C447 C446 1.374 . S
C448 C445 1.499 . S
C448 C449 1.373 . S
C448 C450 1.389 . S
C449 H428 0.950 . S
C449 C448 1.373 . S
C449 C465 1.377 . S
C450 C448 1.389 . S
C450 C451 1.524 . S
C450 C464 1.377 . S
C451 C450 1.524 . S
C451 C452 1.397 . S
C451 C456 1.363 . S
C452 H429 0.950 . S
C452 C451 1.397 . S
C452 C453 1.334 . S
C453 H430 0.950 . S
C453 C452 1.334 . S
C453 C454 1.287 . S
C454 C453 1.287 . S
C454 C455 1.524 . S
C454 H473 0.913 . S
C455 H431 0.950 . S
C455 C454 1.524 . S
C455 C456 1.415 . S
C456 H432 0.950 . S
C456 C451 1.363 . S
C456 C455 1.415 . S
C457 H433 0.951 . S
C457 C458 1.366 . S
C457 C459 1.388 . S
C458 C457 1.366 . S
C458 C462 1.385 . S
C459 H434 0.951 . S
C459 C457 1.388 . S
C459 C460 1.366 . S
C460 C459 1.366 . S
C460 C461 1.414 . S
C460 C463 1.499 . S
C461 H435 0.950 . S
C461 C460 1.414 . S
C461 C462 1.374 . S
C462 H436 0.950 . S
C462 C458 1.385 . S
C462 C461 1.374 . S
C463 C460 1.499 . S
C463 C464 1.373 . S
C463 C465 1.389 . S
C464 H437 0.950 . S
C464 C450 1.377 . S
C464 C463 1.373 . S
C465 C449 1.377 . S
C465 C463 1.389 . S
C465 C466 1.524 . S
C466 C465 1.524 . S
C466 C467 1.397 . S
C466 C471 1.363 . S
C467 H438 0.950 . S
C467 C466 1.397 . S
C467 C468 1.334 . S
C468 H439 0.950 . S
C468 C467 1.334 . S
C468 C469 1.287 . S
C469 C468 1.287 . S
C469 C470 1.524 . S
C469 H472 0.999 . S
C470 H440 0.950 . S
C470 C469 1.524 . S
C470 C471 1.415 . S
C471 H441 0.950 . S
C471 C466 1.363 . S
C471 C470 1.415 . S
H472 C469 0.999 . S
H473 C454 0.913 . S
H474 C492 0.951 . S
H475 C494 0.951 . S
H476 C496 0.950 . S
H477 C497 0.950 . S
H478 C499 0.950 . S
H479 C502 0.950 . S
H480 C503 0.950 . S
H481 C505 0.950 . S
H482 C506 0.950 . S
H483 C507 0.951 . S
H484 C509 0.951 . S
H485 C511 0.950 . S
H486 C512 0.950 . S
H487 C514 0.950 . S
H488 C517 0.950 . S
H489 C518 0.950 . S
H490 C520 0.950 . S
H491 C521 0.950 . S
C492 H474 0.951 . S
C492 C493 1.366 . S
C492 C494 1.388 . S
C493 C492 1.366 . S
C493 C497 1.385 . S
C494 H475 0.951 . S
C494 C492 1.388 . S
C494 C495 1.366 . S
C495 C494 1.366 . S
C495 C496 1.414 . S
C495 C498 1.499 . S
C496 H476 0.950 . S
C496 C495 1.414 . S
C496 C497 1.374 . S
C497 H477 0.950 . S
C497 C493 1.385 . S
C497 C496 1.374 . S
C498 C495 1.499 . S
C498 C499 1.373 . S
C498 C500 1.389 . S
C499 H478 0.950 . S
C499 C498 1.373 . S
C499 C515 1.377 . S
C500 C498 1.389 . S
C500 C501 1.524 . S
C500 C514 1.377 . S
C501 C500 1.524 . S
C501 C502 1.397 . S
C501 C506 1.363 . S
C502 H479 0.950 . S
C502 C501 1.397 . S
C502 C503 1.334 . S
C503 H480 0.950 . S
C503 C502 1.334 . S
C503 C504 1.287 . S
C504 C503 1.287 . S
C504 C505 1.524 . S
C504 H523 0.913 . S
C505 H481 0.950 . S
C505 C504 1.524 . S
C505 C506 1.415 . S
C506 H482 0.950 . S
C506 C501 1.363 . S
C506 C505 1.415 . S
C507 H483 0.951 . S
C507 C508 1.366 . S
C507 C509 1.388 . S
C508 C507 1.366 . S
C508 C512 1.385 . S
C509 H484 0.951 . S
C509 C507 1.388 . S
C509 C510 1.366 . S
C510 C509 1.366 . S
C510 C511 1.414 . S
C510 C513 1.499 . S
C511 H485 0.950 . S
C511 C510 1.414 . S
C511 C512 1.374 . S
C512 H486 0.950 . S
C512 C508 1.385 . S
C512 C511 1.374 . S
C513 C510 1.499 . S
C513 C514 1.373 . S
C513 C515 1.389 . S
C514 H487 0.950 . S
C514 C500 1.377 . S
C514 C513 1.373 . S
C515 C499 1.377 . S
C515 C513 1.389 . S
C515 C516 1.524 . S
C516 C515 1.524 . S
C516 C517 1.397 . S
C516 C521 1.363 . S
C517 H488 0.950 . S
C517 C516 1.397 . S
C517 C518 1.334 . S
C518 H489 0.950 . S
C518 C517 1.334 . S
C518 C519 1.287 . S
C519 C518 1.287 . S
C519 C520 1.524 . S
C519 H522 0.999 . S
C520 H490 0.950 . S
C520 C519 1.524 . S
C520 C521 1.415 . S
C521 H491 0.950 . S
C521 C516 1.363 . S
C521 C520 1.415 . S
H522 C519 0.999 . S
H523 C504 0.913 . S
H524 C542 0.951 . S
H525 C544 0.951 . S
H526 C546 0.950 . S
H527 C547 0.950 . S
H528 C549 0.950 . S
H529 C552 0.950 . S
H530 C553 0.950 . S
H531 C555 0.950 . S
H532 C556 0.950 . S
H533 C557 0.951 . S
H534 C559 0.951 . S
H535 C561 0.950 . S
H536 C562 0.950 . S
H537 C564 0.950 . S
H538 C567 0.950 . S
H539 C568 0.950 . S
H540 C570 0.950 . S
H541 C571 0.950 . S
C542 H524 0.951 . S
C542 C543 1.366 . S
C542 C544 1.388 . S
C543 C542 1.366 . S
C543 C547 1.385 . S
C544 H525 0.951 . S
C544 C542 1.388 . S
C544 C545 1.366 . S
C545 C544 1.366 . S
C545 C546 1.414 . S
C545 C548 1.499 . S
C546 H526 0.950 . S
C546 C545 1.414 . S
C546 C547 1.374 . S
C547 H527 0.950 . S
C547 C543 1.385 . S
C547 C546 1.374 . S
C548 C545 1.499 . S
C548 C549 1.373 . S
C548 C550 1.389 . S
C549 H528 0.950 . S
C549 C548 1.373 . S
C549 C565 1.377 . S
C550 C548 1.389 . S
C550 C551 1.524 . S
C550 C564 1.377 . S
C551 C550 1.524 . S
C551 C552 1.397 . S
C551 C556 1.363 . S
C552 H529 0.950 . S
C552 C551 1.397 . S
C552 C553 1.334 . S
C553 H530 0.950 . S
C553 C552 1.334 . S
C553 C554 1.287 . S
C554 C553 1.287 . S
C554 C555 1.524 . S
C554 H573 0.913 . S
C555 H531 0.950 . S
C555 C554 1.524 . S
C555 C556 1.415 . S
C556 H532 0.950 . S
C556 C551 1.363 . S
C556 C555 1.415 . S
C557 H533 0.951 . S
C557 C558 1.366 . S
C557 C559 1.388 . S
C558 C557 1.366 . S
C558 C562 1.385 . S
C559 H534 0.951 . S
C559 C557 1.388 . S
C559 C560 1.366 . S
C560 C559 1.366 . S
C560 C561 1.414 . S
C560 C563 1.499 . S
C561 H535 0.950 . S
C561 C560 1.414 . S
C561 C562 1.374 . S
C562 H536 0.950 . S
C562 C558 1.385 . S
C562 C561 1.374 . S
C563 C560 1.499 . S
C563 C564 1.373 . S
C563 C565 1.389 . S
C564 H537 0.950 . S
C564 C550 1.377 . S
C564 C563 1.373 . S
C565 C549 1.377 . S
C565 C563 1.389 . S
C565 C566 1.524 . S
C566 C565 1.524 . S
C566 C567 1.397 . S
C566 C571 1.363 . S
C567 H538 0.950 . S
C567 C566 1.397 . S
C567 C568 1.334 . S
C568 H539 0.950 . S
C568 C567 1.334 . S
C568 C569 1.287 . S
C569 C568 1.287 . S
C569 C570 1.524 . S
C569 H572 0.999 . S
C570 H540 0.950 . S
C570 C569 1.524 . S
C570 C571 1.415 . S
C571 H541 0.950 . S
C571 C566 1.363 . S
C571 C570 1.415 . S
H572 C569 0.999 . S
H573 C554 0.913 . S
H574 C592 0.951 . S
H575 C594 0.951 . S
H576 C596 0.950 . S
H577 C597 0.950 . S
H578 C599 0.950 . S
H579 C602 0.950 . S
H580 C603 0.950 . S
H581 C605 0.950 . S
H582 C606 0.950 . S
H583 C607 0.951 . S
H584 C609 0.951 . S
H585 C611 0.950 . S
H586 C612 0.950 . S
H587 C614 0.950 . S
H588 C617 0.950 . S
H589 C618 0.950 . S
H590 C620 0.950 . S
H591 C621 0.950 . S
C592 H574 0.951 . S
C592 C593 1.366 . S
C592 C594 1.388 . S
C593 C592 1.366 . S
C593 C597 1.385 . S
C594 H575 0.951 . S
C594 C592 1.388 . S
C594 C595 1.366 . S
C595 C594 1.366 . S
C595 C596 1.414 . S
C595 C598 1.499 . S
C596 H576 0.950 . S
C596 C595 1.414 . S
C596 C597 1.374 . S
C597 H577 0.950 . S
C597 C593 1.385 . S
C597 C596 1.374 . S
C598 C595 1.499 . S
C598 C599 1.373 . S
C598 C600 1.389 . S
C599 H578 0.950 . S
C599 C598 1.373 . S
C599 C615 1.377 . S
C600 C598 1.389 . S
C600 C601 1.524 . S
C600 C614 1.377 . S
C601 C600 1.524 . S
C601 C602 1.397 . S
C601 C606 1.363 . S
C602 H579 0.950 . S
C602 C601 1.397 . S
C602 C603 1.334 . S
C603 H580 0.950 . S
C603 C602 1.334 . S
C603 C604 1.287 . S
C604 C603 1.287 . S
C604 C605 1.524 . S
C604 H623 0.913 . S
C605 H581 0.950 . S
C605 C604 1.524 . S
C605 C606 1.415 . S
C606 H582 0.950 . S
C606 C601 1.363 . S
C606 C605 1.415 . S
C607 H583 0.951 . S
C607 C608 1.366 . S
C607 C609 1.388 . S
C608 C607 1.366 . S
C608 C612 1.385 . S
C609 H584 0.951 . S
C609 C607 1.388 . S
C609 C610 1.366 . S
C610 C609 1.366 . S
C610 C611 1.414 . S
C610 C613 1.499 . S
C611 H585 0.950 . S
C611 C610 1.414 . S
C611 C612 1.374 . S
C612 H586 0.950 . S
C612 C608 1.385 . S
C612 C611 1.374 . S
C613 C610 1.499 . S
C613 C614 1.373 . S
C613 C615 1.389 . S
C614 H587 0.950 . S
C614 C600 1.377 . S
C614 C613 1.373 . S
C615 C599 1.377 . S
C615 C613 1.389 . S
C615 C616 1.524 . S
C616 C615 1.524 . S
C616 C617 1.397 . S
C616 C621 1.363 . S
C617 H588 0.950 . S
C617 C616 1.397 . S
C617 C618 1.334 . S
C618 H589 0.950 . S
C618 C617 1.334 . S
C618 C619 1.287 . S
C619 C618 1.287 . S
C619 C620 1.524 . S
C619 H622 0.999 . S
C620 H590 0.950 . S
C620 C619 1.524 . S
C620 C621 1.415 . S
C621 H591 0.950 . S
C621 C616 1.363 . S
C621 C620 1.415 . S
H622 C619 0.999 . S
H623 C604 0.913 . S
H624 C642 0.951 . S
H625 C644 0.951 . S
H626 C646 0.950 . S
H627 C647 0.950 . S
H628 C649 0.950 . S
H629 C652 0.950 . S
H630 C653 0.950 . S
H631 C655 0.950 . S
H632 C656 0.950 . S
H633 C657 0.951 . S
H634 C659 0.951 . S
H635 C661 0.948 1_545 S
H636 C662 0.950 . S
H637 C664 0.950 . S
H638 C667 0.950 . S
H639 C668 0.950 . S
H640 C670 0.950 1_655 S
H641 C671 0.950 1_545 S
C642 H624 0.951 . S
C642 C643 1.366 . S
C642 C644 1.388 . S
C643 C642 1.366 . S
C643 C647 1.385 . S
C644 H625 0.951 . S
C644 C642 1.388 . S
C644 C645 1.366 . S
C645 C644 1.366 . S
C645 C646 1.414 . S
C645 C648 1.499 . S
C646 H626 0.950 . S
C646 C645 1.414 . S
C646 C647 1.374 . S
C647 H627 0.950 . S
C647 C643 1.385 . S
C647 C646 1.374 . S
C648 C645 1.499 . S
C648 C649 1.373 . S
C648 C650 1.389 . S
C649 H628 0.950 . S
C649 C648 1.373 . S
C649 C665 1.377 . S
C650 C648 1.389 . S
C650 C651 1.524 . S
C650 C664 1.377 . S
C651 C650 1.524 . S
C651 C652 1.397 . S
C651 C656 1.363 . S
C652 H629 0.950 . S
C652 C651 1.397 . S
C652 C653 1.334 . S
C653 H630 0.950 . S
C653 C652 1.334 . S
C653 C654 1.287 . S
C654 C653 1.287 . S
C654 C655 1.524 . S
C654 H673 0.913 . S
C655 H631 0.950 . S
C655 C654 1.524 . S
C655 C656 1.415 . S
C656 H632 0.950 . S
C656 C651 1.363 . S
C656 C655 1.415 . S
C657 H633 0.951 . S
C657 C658 1.366 . S
C657 C659 1.388 . S
C658 C657 1.366 . S
C658 C662 1.385 . S
C659 H634 0.951 . S
C659 C657 1.388 . S
C659 C660 1.366 1_565 S
C660 C659 1.366 1_545 S
C660 C661 1.411 1_545 S
C660 C663 1.499 . S
C661 H635 0.948 1_565 S
C661 C660 1.411 1_565 S
C661 C662 1.379 . S
C662 H636 0.950 . S
C662 C658 1.385 . S
C662 C661 1.379 . S
C663 C660 1.499 . S
C663 C664 1.373 . S
C663 C665 1.389 . S
C664 H637 0.950 . S
C664 C650 1.377 . S
C664 C663 1.373 . S
C665 C649 1.377 . S
C665 C663 1.389 . S
C665 C666 1.524 . S
C666 C665 1.524 . S
C666 C667 1.397 1_545 S
C666 C671 1.363 1_545 S
C667 H638 0.950 . S
C667 C666 1.397 1_565 S
C667 C668 1.334 . S
C668 H639 0.950 . S
C668 C667 1.334 . S
C668 C669 1.287 . S
C669 C668 1.287 . S
C669 C670 1.524 . S
C669 H672 0.999 . S
C670 H640 0.950 1_455 S
C670 C669 1.524 . S
C670 C671 1.415 . S
C671 H641 0.950 1_565 S
C671 C666 1.363 1_565 S
C671 C670 1.415 . S
H672 C669 0.999 . S
H673 C654 0.913 . S
H674 C692 0.951 . S
H675 C694 0.951 1_455 S
H676 C696 0.950 . S
H677 C697 0.950 . S
H678 C699 0.950 . S
H679 C702 0.950 . S
H680 C703 0.950 . S
H681 C705 0.950 . S
H682 C706 0.950 . S
H683 C707 0.951 . S
H684 C709 0.951 . S
H685 C711 0.950 . S
H686 C712 0.950 . S
H687 C714 0.950 . S
H688 C717 0.950 . S
H689 C718 0.950 . S
H690 C720 0.950 . S
H691 C721 0.950 . S
C692 H674 0.951 . S
C692 C693 1.366 . S
C692 C694 1.388 . S
C693 C692 1.366 . S
C693 C697 1.385 . S
C694 H675 0.951 1_655 S
C694 C692 1.388 . S
C694 C695 1.366 1_655 S
C695 C694 1.366 1_455 S
C695 C696 1.414 1_455 S
C695 C698 1.499 . S
C696 H676 0.950 . S
C696 C695 1.414 1_655 S
C696 C697 1.374 . S
C697 H677 0.950 . S
C697 C693 1.385 . S
C697 C696 1.374 . S
C698 C695 1.499 . S
C698 C699 1.373 . S
C698 C700 1.389 . S
C699 H678 0.950 . S
C699 C698 1.373 . S
C699 C715 1.377 . S
C700 C698 1.389 . S
C700 C701 1.524 . S
C700 C714 1.377 . S
C701 C700 1.524 . S
C701 C702 1.397 1_455 S
C701 C706 1.363 . S
C702 H679 0.950 . S
C702 C701 1.397 1_655 S
C702 C703 1.334 . S
C703 H680 0.950 . S
C703 C702 1.334 . S
C703 C704 1.287 . S
C704 C703 1.287 . S
C704 C705 1.524 1_655 S
C704 H723 0.913 . S
C705 H681 0.950 . S
C705 C704 1.524 1_455 S
C705 C706 1.415 . S
C706 H682 0.950 . S
C706 C701 1.363 . S
C706 C705 1.415 . S
C707 H683 0.951 . S
C707 C708 1.366 . S
C707 C709 1.388 . S
C708 C707 1.366 . S
C708 C712 1.385 . S
C709 H684 0.951 . S
C709 C707 1.388 . S
C709 C710 1.366 . S
C710 C709 1.366 . S
C710 C711 1.414 . S
C710 C713 1.499 . S
C711 H685 0.950 . S
C711 C710 1.414 . S
C711 C712 1.374 . S
C712 H686 0.950 . S
C712 C708 1.385 . S
C712 C711 1.374 . S
C713 C710 1.499 . S
C713 C714 1.373 . S
C713 C715 1.389 . S
C714 H687 0.950 . S
C714 C700 1.377 . S
C714 C713 1.373 . S
C715 C699 1.377 . S
C715 C713 1.389 . S
C715 C716 1.524 . S
C716 C715 1.524 . S
C716 C717 1.397 . S
C716 C721 1.363 . S
C717 H688 0.950 . S
C717 C716 1.397 . S
C717 C718 1.334 . S
C718 H689 0.950 . S
C718 C717 1.334 . S
C718 C719 1.287 . S
C719 C718 1.287 . S
C719 C720 1.524 . S
C719 H722 0.999 . S
C720 H690 0.950 . S
C720 C719 1.524 . S
C720 C721 1.415 . S
C721 H691 0.950 . S
C721 C716 1.363 . S
C721 C720 1.415 . S
H722 C719 0.999 . S
H723 C704 0.913 . S
H724 C742 0.951 . S
H725 C744 0.951 . S
H726 C746 0.950 1_655 S
H727 C747 0.950 . S
H728 C749 0.950 . S
H729 C752 0.950 . S
H730 C753 0.950 . S
H731 C755 0.950 . S
H732 C756 0.950 . S
H733 C757 0.951 . S
H734 C759 0.951 . S
H735 C761 0.950 1_545 S
H736 C762 0.950 . S
H737 C764 0.950 . S
H738 C767 0.950 . S
H739 C768 0.950 . S
H740 C770 0.950 . S
H741 C771 0.950 . S
C742 H724 0.951 . S
C742 C743 1.366 . S
C742 C744 1.388 . S
C743 C742 1.366 . S
C743 C747 1.385 . S
C744 H725 0.951 . S
C744 C742 1.388 . S
C744 C745 1.366 1_455 S
C745 C744 1.366 1_655 S
C745 C746 1.414 1_655 S
C745 C748 1.499 . S
C746 H726 0.950 1_455 S
C746 C745 1.414 1_455 S
C746 C747 1.374 . S
C747 H727 0.950 . S
C747 C743 1.385 . S
C747 C746 1.374 . S
C748 C745 1.499 . S
C748 C749 1.373 . S
C748 C750 1.389 . S
C749 H728 0.950 . S
C749 C748 1.373 . S
C749 C765 1.377 . S
C750 C748 1.389 . S
C750 C751 1.524 . S
C750 C764 1.377 . S
C751 C750 1.524 . S
C751 C752 1.397 1_655 S
C751 C756 1.363 . S
C752 H729 0.950 . S
C752 C751 1.397 1_455 S
C752 C753 1.334 . S
C753 H730 0.950 . S
C753 C752 1.334 . S
C753 C754 1.287 . S
C754 C753 1.287 . S
C754 C755 1.524 . S
C754 H773 0.913 . S
C755 H731 0.950 . S
C755 C754 1.524 . S
C755 C756 1.415 1_455 S
C756 H732 0.950 . S
C756 C751 1.363 . S
C756 C755 1.415 1_655 S
C757 H733 0.951 . S
C757 C758 1.366 . S
C757 C759 1.388 . S
C758 C757 1.366 . S
C758 C762 1.385 . S
C759 H734 0.951 . S
C759 C757 1.388 . S
C759 C760 1.366 1_565 S
C760 C759 1.366 1_545 S
C760 C761 1.414 1_545 S
C760 C763 1.499 . S
C761 H735 0.950 1_565 S
C761 C760 1.414 1_565 S
C761 C762 1.374 . S
C762 H736 0.950 . S
C762 C758 1.385 . S
C762 C761 1.374 . S
C763 C760 1.499 . S
C763 C764 1.373 . S
C763 C765 1.389 . S
C764 H737 0.950 . S
C764 C750 1.377 . S
C764 C763 1.373 . S
C765 C749 1.377 . S
C765 C763 1.389 . S
C765 C766 1.524 . S
C766 C765 1.524 . S
C766 C767 1.397 . S
C766 C771 1.363 . S
C767 H738 0.950 . S
C767 C766 1.397 . S
C767 C768 1.334 . S
C768 H739 0.950 . S
C768 C767 1.334 . S
C768 C769 1.287 . S
C769 C768 1.287 . S
C769 C770 1.524 . S
C769 H772 0.999 . S
C770 H740 0.950 . S
C770 C769 1.524 . S
C770 C771 1.415 . S
C771 H741 0.950 . S
C771 C766 1.363 . S
C771 C770 1.415 . S
H772 C769 0.999 . S
H773 C754 0.913 . S
H774 C792 0.951 . S
H775 C794 0.951 . S
H776 C796 0.950 . S
H777 C797 0.950 . S
H778 C799 0.950 . S
H779 C802 0.950 . S
H780 C803 0.950 . S
H781 C805 0.950 1_455 S
H782 C806 0.950 . S
H783 C807 0.951 . S
H784 C809 0.951 . S
H785 C811 0.950 . S
H786 C812 0.950 . S
H787 C814 0.950 . S
H788 C817 0.950 . S
H789 C818 0.950 . S
H790 C820 0.950 . S
H791 C821 0.950 . S
C792 H774 0.951 . S
C792 C793 1.366 . S
C792 C794 1.388 . S
C793 C792 1.366 . S
C793 C797 1.385 . S
C794 H775 0.951 . S
C794 C792 1.388 . S
C794 C795 1.366 1_545 S
C795 C794 1.366 1_565 S
C795 C796 1.414 . S
C795 C798 1.499 . S
C796 H776 0.950 . S
C796 C795 1.414 . S
C796 C797 1.374 1_565 S
C797 H777 0.950 . S
C797 C793 1.385 . S
C797 C796 1.374 1_545 S
C798 C795 1.499 . S
C798 C799 1.373 . S
C798 C800 1.389 . S
C799 H778 0.950 . S
C799 C798 1.373 . S
C799 C815 1.377 . S
C800 C798 1.389 . S
C800 C801 1.524 . S
C800 C814 1.377 . S
C801 C800 1.524 . S
C801 C802 1.397 . S
C801 C806 1.363 . S
C802 H779 0.950 . S
C802 C801 1.397 . S
C802 C803 1.334 1_565 S
C803 H780 0.950 . S
C803 C802 1.334 1_545 S
C803 C804 1.287 . S
C804 C803 1.287 . S
C804 C805 1.524 . S
C804 H823 0.913 . S
C805 H781 0.950 1_655 S
C805 C804 1.524 . S
C805 C806 1.415 1_545 S
C806 H782 0.950 . S
C806 C801 1.363 . S
C806 C805 1.415 1_565 S
C807 H783 0.951 . S
C807 C808 1.366 . S
C807 C809 1.388 . S
C808 C807 1.366 . S
C808 C812 1.385 . S
C809 H784 0.951 . S
C809 C807 1.388 . S
C809 C810 1.366 . S
C810 C809 1.366 . S
C810 C811 1.414 . S
C810 C813 1.499 . S
C811 H785 0.950 . S
C811 C810 1.414 . S
C811 C812 1.374 . S
C812 H786 0.950 . S
C812 C808 1.385 . S
C812 C811 1.374 . S
C813 C810 1.499 . S
C813 C814 1.373 . S
C813 C815 1.389 . S
C814 H787 0.950 . S
C814 C800 1.377 . S
C814 C813 1.373 . S
C815 C799 1.377 . S
C815 C813 1.389 . S
C815 C816 1.524 . S
C816 C815 1.524 . S
C816 C817 1.397 . S
C816 C821 1.363 . S
C817 H788 0.950 . S
C817 C816 1.397 . S
C817 C818 1.334 . S
C818 H789 0.950 . S
C818 C817 1.334 . S
C818 C819 1.287 . S
C819 C818 1.287 . S
C819 C820 1.524 . S
C819 H822 0.999 . S
C820 H790 0.950 . S
C820 C819 1.524 . S
C820 C821 1.415 . S
C821 H791 0.950 . S
C821 C816 1.363 . S
C821 C820 1.415 . S
H822 C819 0.999 . S
H823 C804 0.913 . S
H824 C842 0.951 . S
H825 C844 0.951 . S
H826 C846 0.950 . S
H827 C847 0.950 . S
H828 C849 0.950 . S
H829 C852 0.950 . S
H830 C853 0.950 . S
H831 C855 0.950 . S
H832 C856 0.950 . S
H833 C857 0.951 . S
H834 C859 0.925 1_655 S
H835 C861 0.950 . S
H836 C862 0.950 . S
H837 C864 0.950 . S
H838 C867 0.950 1_455 S
H839 C868 0.950 . S
H840 C870 0.950 . S
H841 C871 0.950 . S
C842 H824 0.951 . S
C842 C843 1.366 . S
C842 C844 1.388 . S
C843 C842 1.366 . S
C843 C847 1.385 . S
C844 H825 0.951 . S
C844 C842 1.388 . S
C844 C845 1.366 . S
C845 C844 1.366 . S
C845 C846 1.414 . S
C845 C848 1.499 . S
C846 H826 0.950 . S
C846 C845 1.414 . S
C846 C847 1.374 . S
C847 H827 0.950 . S
C847 C843 1.385 . S
C847 C846 1.374 . S
C848 C845 1.499 . S
C848 C849 1.373 . S
C848 C850 1.389 . S
C849 H828 0.950 . S
C849 C848 1.373 . S
C849 C865 1.377 . S
C850 C848 1.389 . S
C850 C851 1.524 . S
C850 C864 1.377 . S
C851 C850 1.524 . S
C851 C852 1.397 . S
C851 C856 1.363 . S
C852 H829 0.950 . S
C852 C851 1.397 . S
C852 C853 1.334 . S
C853 H830 0.950 . S
C853 C852 1.334 . S
C853 C854 1.287 . S
C854 C853 1.287 . S
C854 C855 1.524 . S
C854 H873 0.913 . S
C855 H831 0.950 . S
C855 C854 1.524 . S
C855 C856 1.415 . S
C856 H832 0.950 . S
C856 C851 1.363 . S
C856 C855 1.415 . S
C857 H833 0.951 . S
C857 C858 1.366 . S
C857 C859 1.431 . S
C858 C857 1.366 . S
C858 C862 1.385 . S
C859 H834 0.925 1_455 S
C859 C857 1.431 . S
C859 C860 1.349 1_455 S
C860 C859 1.349 1_655 S
C860 C861 1.414 1_655 S
C860 C863 1.499 . S
C861 H835 0.950 . S
C861 C860 1.414 1_455 S
C861 C862 1.374 . S
C862 H836 0.950 . S
C862 C858 1.385 . S
C862 C861 1.374 . S
C863 C860 1.499 . S
C863 C864 1.373 . S
C863 C865 1.389 . S
C864 H837 0.950 . S
C864 C850 1.377 . S
C864 C863 1.373 . S
C865 C849 1.377 . S
C865 C863 1.389 . S
C865 C866 1.524 . S
C866 C865 1.524 . S
C866 C867 1.397 . S
C866 C871 1.363 . S
C867 H838 0.950 1_655 S
C867 C866 1.397 . S
C867 C868 1.334 1_655 S
C868 H839 0.950 . S
C868 C867 1.334 1_455 S
C868 C869 1.287 1_455 S
C869 C868 1.287 1_655 S
C869 C870 1.524 . S
C869 H872 0.999 1_655 S
C870 H840 0.950 . S
C870 C869 1.524 . S
C870 C871 1.415 . S
C871 H841 0.950 . S
C871 C866 1.363 . S
C871 C870 1.415 . S
H872 C869 0.999 1_455 S
H873 C854 0.913 . S
H874 C892 0.951 . S
H875 C894 0.951 . S
H876 C896 0.950 . S
H877 C897 0.950 . S
H878 C899 0.950 . S
H879 C902 0.950 . S
H880 C903 0.950 . S
H881 C905 0.950 . S
H882 C906 0.950 . S
H883 C907 0.951 . S
H884 C909 0.951 . S
H885 C911 0.950 . S
H886 C912 0.950 . S
H887 C914 0.950 . S
H888 C917 0.940 1_455 S
H889 C918 0.950 . S
H890 C920 0.950 . S
H891 C921 0.950 1_455 S
C892 H874 0.951 . S
C892 C893 1.366 . S
C892 C894 1.388 1_545 S
C893 C892 1.366 . S
C893 C897 1.385 . S
C894 H875 0.951 . S
C894 C892 1.388 1_565 S
C894 C895 1.366 . S
C895 C894 1.366 . S
C895 C896 1.414 1_565 S
C895 C898 1.499 . S
C896 H876 0.950 . S
C896 C895 1.414 1_545 S
C896 C897 1.374 . S
C897 H877 0.950 . S
C897 C893 1.385 . S
C897 C896 1.374 . S
C898 C895 1.499 . S
C898 C899 1.373 . S
C898 C900 1.389 . S
C899 H878 0.950 . S
C899 C898 1.373 . S
C899 C915 1.377 . S
C900 C898 1.389 . S
C900 C901 1.524 . S
C900 C914 1.377 . S
C901 C900 1.524 . S
C901 C902 1.397 . S
C901 C906 1.363 . S
C902 H879 0.950 . S
C902 C901 1.397 . S
C902 C903 1.334 . S
C903 H880 0.950 . S
C903 C902 1.334 . S
C903 C904 1.287 . S
C904 C903 1.287 . S
C904 C905 1.524 . S
C904 H923 0.913 . S
C905 H881 0.950 . S
C905 C904 1.524 . S
C905 C906 1.415 . S
C906 H882 0.950 . S
C906 C901 1.363 . S
C906 C905 1.415 . S
C907 H883 0.951 . S
C907 C908 1.366 . S
C907 C909 1.388 . S
C908 C907 1.366 . S
C908 C912 1.385 . S
C909 H884 0.951 . S
C909 C907 1.388 . S
C909 C910 1.366 1_655 S
C910 C909 1.366 1_455 S
C910 C911 1.414 . S
C910 C913 1.499 . S
C911 H885 0.950 . S
C911 C910 1.414 . S
C911 C912 1.374 1_455 S
C912 H886 0.950 . S
C912 C908 1.385 . S
C912 C911 1.374 1_655 S
C913 C910 1.499 . S
C913 C914 1.373 . S
C913 C915 1.389 . S
C914 H887 0.950 . S
C914 C900 1.377 . S
C914 C913 1.373 . S
C915 C899 1.377 . S
C915 C913 1.389 . S
C915 C916 1.524 . S
C916 C915 1.524 . S
C916 C917 1.397 1_455 S
C916 C921 1.363 1_455 S
C917 H888 0.940 1_655 S
C917 C916 1.397 1_655 S
C917 C918 1.334 . S
C918 H889 0.950 . S
C918 C917 1.334 . S
C918 C919 1.287 . S
C919 C918 1.287 . S
C919 C920 1.524 . S
C919 H922 0.999 . S
C920 H890 0.950 . S
C920 C919 1.524 . S
C920 C921 1.415 . S
C921 H891 0.950 1_655 S
C921 C916 1.363 1_655 S
C921 C920 1.415 . S
H922 C919 0.999 . S
H923 C904 0.913 . S
H924 C942 0.951 . S
H925 C944 0.951 . S
H926 C946 0.950 . S
H927 C947 0.950 . S
H928 C949 0.950 . S
H929 C952 0.950 . S
H930 C953 0.950 . S
H931 C955 0.950 . S
H932 C956 0.950 . S
H933 C957 0.951 . S
H934 C959 0.951 . S
H935 C961 0.950 . S
H936 C962 0.950 . S
H937 C964 0.950 . S
H938 C967 0.950 . S
H939 C968 0.950 . S
H940 C970 0.950 . S
H941 C971 0.950 . S
C942 H924 0.951 . S
C942 C943 1.366 . S
C942 C944 1.388 . S
C943 C942 1.366 . S
C943 C947 1.385 . S
C944 H925 0.951 . S
C944 C942 1.388 . S
C944 C945 1.366 . S
C945 C944 1.366 . S
C945 C946 1.414 . S
C945 C948 1.499 . S
C946 H926 0.950 . S
C946 C945 1.414 . S
C946 C947 1.374 . S
C947 H927 0.950 . S
C947 C943 1.385 . S
C947 C946 1.374 . S
C948 C945 1.499 . S
C948 C949 1.373 1_554 S
C948 C950 1.389 . S
C949 H928 0.950 . S
C949 C948 1.373 1_556 S
C949 C965 1.377 . S
C950 C948 1.389 . S
C950 C951 1.524 . S
C950 C964 1.377 . S
C951 C950 1.524 . S
C951 C952 1.397 . S
C951 C956 1.363 . S
C952 H929 0.950 . S
C952 C951 1.397 . S
C952 C953 1.334 . S
C953 H930 0.950 . S
C953 C952 1.334 . S
C953 C954 1.287 . S
C954 C953 1.287 . S
C954 C955 1.524 . S
C954 H973 0.913 . S
C955 H931 0.950 . S
C955 C954 1.524 . S
C955 C956 1.415 . S
C956 H932 0.950 . S
C956 C951 1.363 . S
C956 C955 1.415 . S
C957 H933 0.951 . S
C957 C958 1.366 . S
C957 C959 1.388 . S
C958 C957 1.366 . S
C958 C962 1.385 . S
C959 H934 0.951 . S
C959 C957 1.388 . S
C959 C960 1.366 . S
C960 C959 1.366 . S
C960 C961 1.414 . S
C960 C963 1.499 . S
C961 H935 0.950 . S
C961 C960 1.414 . S
C961 C962 1.374 . S
C962 H936 0.950 . S
C962 C958 1.385 . S
C962 C961 1.374 . S
C963 C960 1.499 . S
C963 C964 1.373 1_556 S
C963 C965 1.389 . S
C964 H937 0.950 . S
C964 C950 1.377 . S
C964 C963 1.373 1_554 S
C965 C949 1.377 . S
C965 C963 1.389 . S
C965 C966 1.524 . S
C966 C965 1.524 . S
C966 C967 1.397 . S
C966 C971 1.363 . S
C967 H938 0.950 . S
C967 C966 1.397 . S
C967 C968 1.334 . S
C968 H939 0.950 . S
C968 C967 1.334 . S
C968 C969 1.287 . S
C969 C968 1.287 . S
C969 C970 1.524 . S
C969 H972 0.999 . S
C970 H940 0.950 . S
C970 C969 1.524 . S
C970 C971 1.415 . S
C971 H941 0.950 . S
C971 C966 1.363 . S
C971 C970 1.415 . S
H972 C969 0.999 . S
H973 C954 0.913 . S
H974 C992 0.951 . S
H975 C994 0.951 . S
H976 C996 0.950 . S
H977 C997 0.950 . S
H978 C999 0.950 . S
H979 C1002 0.950 . S
H980 C1003 0.950 . S
H981 C1005 0.950 . S
H982 C1006 0.950 . S
H983 C1007 0.951 . S
H984 C1009 0.951 . S
H985 C1011 0.950 . S
H986 C1012 0.950 . S
H987 C1014 0.950 . S
H988 C1017 0.950 . S
H989 C1018 0.950 . S
H990 C1020 0.950 . S
H991 C1021 0.950 . S
C992 H974 0.951 . S
C992 C993 1.366 . S
C992 C994 1.388 . S
C993 C992 1.366 . S
C993 C997 1.385 . S
C994 H975 0.951 . S
C994 C992 1.388 . S
C994 C995 1.366 . S
C995 C994 1.366 . S
C995 C996 1.414 . S
C995 C998 1.499 . S
C996 H976 0.950 . S
C996 C995 1.414 . S
C996 C997 1.374 . S
C997 H977 0.950 . S
C997 C993 1.385 . S
C997 C996 1.374 . S
C998 C995 1.499 . S
C998 C999 1.373 . S
C998 C1000 1.389 . S
C999 H978 0.950 . S
C999 C998 1.373 . S
C999 C1015 1.377 1_655 S
C1000 C998 1.389 . S
C1000 C1001 1.524 . S
C1000 C1014 1.377 1_655 S
C1001 C1000 1.524 . S
C1001 C1002 1.397 . S
C1001 C1006 1.363 1_655 S
C1002 H979 0.950 . S
C1002 C1001 1.397 . S
C1002 C1003 1.334 . S
C1003 H980 0.950 . S
C1003 C1002 1.334 . S
C1003 C1004 1.287 . S
C1004 C1003 1.287 . S
C1004 C1005 1.524 1_655 S
C1004 H1023 0.913 . S
C1005 H981 0.950 . S
C1005 C1004 1.524 1_455 S
C1005 C1006 1.415 . S
C1006 H982 0.950 . S
C1006 C1001 1.363 1_455 S
C1006 C1005 1.415 . S
C1007 H983 0.951 . S
C1007 C1008 1.366 . S
C1007 C1009 1.388 . S
C1008 C1007 1.366 . S
C1008 C1012 1.385 . S
C1009 H984 0.951 . S
C1009 C1007 1.388 . S
C1009 C1010 1.366 . S
C1010 C1009 1.366 . S
C1010 C1011 1.414 . S
C1010 C1013 1.499 . S
C1011 H985 0.950 . S
C1011 C1010 1.414 . S
C1011 C1012 1.374 . S
C1012 H986 0.950 . S
C1012 C1008 1.385 . S
C1012 C1011 1.374 . S
C1013 C1010 1.499 . S
C1013 C1014 1.373 . S
C1013 C1015 1.389 . S
C1014 H987 0.950 . S
C1014 C1000 1.377 1_455 S
C1014 C1013 1.373 . S
C1015 C999 1.377 1_455 S
C1015 C1013 1.389 . S
C1015 C1016 1.524 . S
C1016 C1015 1.524 . S
C1016 C1017 1.397 . S
C1016 C1021 1.363 1_455 S
C1017 H988 0.950 . S
C1017 C1016 1.397 . S
C1017 C1018 1.334 . S
C1018 H989 0.950 . S
C1018 C1017 1.334 . S
C1018 C1019 1.287 . S
C1019 C1018 1.287 . S
C1019 C1020 1.524 1_455 S
C1019 H1022 0.999 . S
C1020 H990 0.950 . S
C1020 C1019 1.524 1_655 S
C1020 C1021 1.415 . S
C1021 H991 0.950 . S
C1021 C1016 1.363 1_655 S
C1021 C1020 1.415 . S
H1022 C1019 0.999 . S
H1023 C1004 0.913 . S
H1024 C1042 0.951 . S
H1025 C1044 0.951 . S
H1026 C1046 0.950 . S
H1027 C1047 0.950 . S
H1028 C1049 0.950 . S
H1029 C1052 0.950 . S
H1030 C1053 0.950 . S
H1031 C1055 0.950 . S
H1032 C1056 0.950 . S
H1033 C1057 0.951 . S
H1034 C1059 0.951 . S
H1035 C1061 0.950 . S
H1036 C1062 0.950 . S
H1037 C1064 0.950 . S
H1038 C1067 0.950 . S
H1039 C1068 0.950 . S
H1040 C1070 0.950 . S
H1041 C1071 0.950 . S
C1042 H1024 0.951 . S
C1042 C1043 1.366 . S
C1042 C1044 1.388 . S
C1043 C1042 1.366 . S
C1043 C1047 1.385 . S
C1044 H1025 0.951 . S
C1044 C1042 1.388 . S
C1044 C1045 1.366 . S
C1045 C1044 1.366 . S
C1045 C1046 1.414 . S
C1045 C1048 1.499 . S
C1046 H1026 0.950 . S
C1046 C1045 1.414 . S
C1046 C1047 1.374 . S
C1047 H1027 0.950 . S
C1047 C1043 1.385 . S
C1047 C1046 1.374 . S
C1048 C1045 1.499 . S
C1048 C1049 1.378 . S
C1048 C1050 1.389 1_565 S
C1049 H1028 0.950 . S
C1049 C1048 1.378 . S
C1049 C1065 1.371 1_554 S
C1050 C1048 1.389 1_545 S
C1050 C1051 1.524 . S
C1050 C1064 1.371 1_554 S
C1051 C1050 1.524 . S
C1051 C1052 1.397 . S
C1051 C1056 1.363 . S
C1052 H1029 0.950 . S
C1052 C1051 1.397 . S
C1052 C1053 1.334 . S
C1053 H1030 0.950 . S
C1053 C1052 1.334 . S
C1053 C1054 1.287 . S
C1054 C1053 1.287 . S
C1054 C1055 1.524 . S
C1054 H1073 0.913 . S
C1055 H1031 0.950 . S
C1055 C1054 1.524 . S
C1055 C1056 1.415 . S
C1056 H1032 0.950 . S
C1056 C1051 1.363 . S
C1056 C1055 1.415 . S
C1057 H1033 0.951 . S
C1057 C1058 1.366 . S
C1057 C1059 1.388 . S
C1058 C1057 1.366 . S
C1058 C1062 1.385 . S
C1059 H1034 0.951 . S
C1059 C1057 1.388 . S
C1059 C1060 1.366 . S
C1060 C1059 1.366 . S
C1060 C1061 1.414 . S
C1060 C1063 1.499 . S
C1061 H1035 0.950 . S
C1061 C1060 1.414 . S
C1061 C1062 1.374 . S
C1062 H1036 0.950 . S
C1062 C1058 1.385 . S
C1062 C1061 1.374 . S
C1063 C1060 1.499 . S
C1063 C1064 1.378 . S
C1063 C1065 1.389 1_545 S
C1064 H1037 0.950 . S
C1064 C1050 1.371 1_556 S
C1064 C1063 1.378 . S
C1065 C1049 1.371 1_556 S
C1065 C1063 1.389 1_565 S
C1065 C1066 1.524 . S
C1066 C1065 1.524 . S
C1066 C1067 1.397 . S
C1066 C1071 1.363 . S
C1067 H1038 0.950 . S
C1067 C1066 1.397 . S
C1067 C1068 1.334 . S
C1068 H1039 0.950 . S
C1068 C1067 1.334 . S
C1068 C1069 1.287 . S
C1069 C1068 1.287 . S
C1069 C1070 1.524 . S
C1069 H1072 0.999 . S
C1070 H1040 0.950 . S
C1070 C1069 1.524 . S
C1070 C1071 1.415 . S
C1071 H1041 0.950 . S
C1071 C1066 1.363 . S
C1071 C1070 1.415 . S
H1072 C1069 0.999 . S
H1073 C1054 0.913 . S
H1074 C1092 0.951 . S
H1075 C1094 0.951 . S
H1076 C1096 0.950 . S
H1077 C1097 0.950 . S
H1078 C1099 0.950 . S
H1079 C1102 0.950 . S
H1080 C1103 0.950 . S
H1081 C1105 0.950 . S
H1082 C1106 0.950 . S
H1083 C1107 0.951 . S
H1084 C1109 0.951 . S
H1085 C1111 0.950 . S
H1086 C1112 0.950 . S
H1087 C1114 0.950 . S
H1088 C1117 0.950 . S
H1089 C1118 0.950 . S
H1090 C1120 0.950 . S
H1091 C1121 0.950 . S
C1092 H1074 0.951 . S
C1092 C1093 1.366 . S
C1092 C1094 1.388 . S
C1093 C1092 1.366 . S
C1093 C1097 1.385 . S
C1094 H1075 0.951 . S
C1094 C1092 1.388 . S
C1094 C1095 1.366 . S
C1095 C1094 1.366 . S
C1095 C1096 1.414 . S
C1095 C1098 1.499 . S
C1096 H1076 0.950 . S
C1096 C1095 1.414 . S
C1096 C1097 1.374 . S
C1097 H1077 0.950 . S
C1097 C1093 1.385 . S
C1097 C1096 1.374 . S
C1098 C1095 1.499 . S
C1098 C1099 1.373 . S
C1098 C1100 1.389 . S
C1099 H1078 0.950 . S
C1099 C1098 1.373 . S
C1099 C1115 1.377 . S
C1100 C1098 1.389 . S
C1100 C1101 1.524 . S
C1100 C1114 1.377 . S
C1101 C1100 1.524 . S
C1101 C1102 1.397 . S
C1101 C1106 1.363 . S
C1102 H1079 0.950 . S
C1102 C1101 1.397 . S
C1102 C1103 1.334 . S
C1103 H1080 0.950 . S
C1103 C1102 1.334 . S
C1103 C1104 1.287 . S
C1104 C1103 1.287 . S
C1104 C1105 1.524 . S
C1104 H1123 0.913 . S
C1105 H1081 0.950 . S
C1105 C1104 1.524 . S
C1105 C1106 1.415 . S
C1106 H1082 0.950 . S
C1106 C1101 1.363 . S
C1106 C1105 1.415 . S
C1107 H1083 0.951 . S
C1107 C1108 1.366 . S
C1107 C1109 1.388 . S
C1108 C1107 1.366 . S
C1108 C1112 1.385 . S
C1109 H1084 0.951 . S
C1109 C1107 1.388 . S
C1109 C1110 1.366 . S
C1110 C1109 1.366 . S
C1110 C1111 1.414 . S
C1110 C1113 1.499 . S
C1111 H1085 0.950 . S
C1111 C1110 1.414 . S
C1111 C1112 1.374 . S
C1112 H1086 0.950 . S
C1112 C1108 1.385 . S
C1112 C1111 1.374 . S
C1113 C1110 1.499 . S
C1113 C1114 1.373 . S
C1113 C1115 1.389 . S
C1114 H1087 0.950 . S
C1114 C1100 1.377 . S
C1114 C1113 1.373 . S
C1115 C1099 1.377 . S
C1115 C1113 1.389 . S
C1115 C1116 1.524 . S
C1116 C1115 1.524 . S
C1116 C1117 1.397 . S
C1116 C1121 1.363 . S
C1117 H1088 0.950 . S
C1117 C1116 1.397 . S
C1117 C1118 1.334 . S
C1118 H1089 0.950 . S
C1118 C1117 1.334 . S
C1118 C1119 1.287 . S
C1119 C1118 1.287 . S
C1119 C1120 1.524 . S
C1119 H1122 0.999 . S
C1120 H1090 0.950 . S
C1120 C1119 1.524 . S
C1120 C1121 1.415 . S
C1121 H1091 0.950 . S
C1121 C1116 1.363 . S
C1121 C1120 1.415 . S
H1122 C1119 0.999 . S
H1123 C1104 0.913 . S
H1124 C1142 0.951 . S
H1125 C1144 0.951 . S
H1126 C1146 0.950 . S
H1127 C1147 0.950 . S
H1128 C1149 0.950 . S
H1129 C1152 0.950 1_655 S
H1130 C1153 0.950 1_655 S
H1131 C1155 0.950 . S
H1132 C1156 0.950 . S
H1133 C1157 0.951 . S
H1134 C1159 0.951 . S
H1135 C1161 0.950 . S
H1136 C1162 0.950 . S
H1137 C1164 0.950 . S
H1138 C1167 0.950 1_455 S
H1139 C1168 0.950 1_455 S
H1140 C1170 0.950 . S
H1141 C1171 0.950 . S
C1142 H1124 0.951 . S
C1142 C1143 1.366 . S
C1142 C1144 1.388 . S
C1143 C1142 1.366 . S
C1143 C1147 1.385 . S
C1144 H1125 0.951 . S
C1144 C1142 1.388 . S
C1144 C1145 1.366 . S
C1145 C1144 1.366 . S
C1145 C1146 1.414 . S
C1145 C1148 1.499 . S
C1146 H1126 0.950 . S
C1146 C1145 1.414 . S
C1146 C1147 1.374 . S
C1147 H1127 0.950 . S
C1147 C1143 1.385 . S
C1147 C1146 1.374 . S
C1148 C1145 1.499 . S
C1148 C1149 1.373 1_556 S
C1148 C1150 1.389 1_655 S
C1149 H1128 0.950 . S
C1149 C1148 1.373 1_554 S
C1149 C1165 1.377 . S
C1150 C1148 1.389 1_455 S
C1150 C1151 1.524 . S
C1150 C1164 1.377 . S
C1151 C1150 1.524 . S
C1151 C1152 1.397 . S
C1151 C1156 1.363 . S
C1152 H1129 0.950 1_455 S
C1152 C1151 1.397 . S
C1152 C1153 1.334 . S
C1153 H1130 0.950 1_455 S
C1153 C1152 1.334 . S
C1153 C1154 1.287 . S
C1154 C1153 1.287 . S
C1154 C1155 1.524 . S
C1154 H1173 0.913 . S
C1155 H1131 0.950 . S
C1155 C1154 1.524 . S
C1155 C1156 1.415 . S
C1156 H1132 0.950 . S
C1156 C1151 1.363 . S
C1156 C1155 1.415 . S
C1157 H1133 0.951 . S
C1157 C1158 1.366 . S
C1157 C1159 1.388 . S
C1158 C1157 1.366 . S
C1158 C1162 1.385 . S
C1159 H1134 0.951 . S
C1159 C1157 1.388 . S
C1159 C1160 1.366 . S
C1160 C1159 1.366 . S
C1160 C1161 1.414 . S
C1160 C1163 1.499 . S
C1161 H1135 0.950 . S
C1161 C1160 1.414 . S
C1161 C1162 1.374 . S
C1162 H1136 0.950 . S
C1162 C1158 1.385 . S
C1162 C1161 1.374 . S
C1163 C1160 1.499 . S
C1163 C1164 1.373 1_554 S
C1163 C1165 1.389 1_455 S
C1164 H1137 0.950 . S
C1164 C1150 1.377 . S
C1164 C1163 1.373 1_556 S
C1165 C1149 1.377 . S
C1165 C1163 1.389 1_655 S
C1165 C1166 1.524 . S
C1166 C1165 1.524 . S
C1166 C1167 1.397 . S
C1166 C1171 1.363 . S
C1167 H1138 0.950 1_655 S
C1167 C1166 1.397 . S
C1167 C1168 1.334 . S
C1168 H1139 0.950 1_655 S
C1168 C1167 1.334 . S
C1168 C1169 1.287 . S
C1169 C1168 1.287 . S
C1169 C1170 1.524 . S
C1169 H1172 0.999 . S
C1170 H1140 0.950 . S
C1170 C1169 1.524 . S
C1170 C1171 1.415 . S
C1171 H1141 0.950 . S
C1171 C1166 1.363 . S
C1171 C1170 1.415 . S
H1172 C1169 0.999 . S
H1173 C1154 0.913 . S
H1174 C1192 0.951 . S
H1175 C1194 0.951 . S
H1176 C1196 0.950 . S
H1177 C1197 0.950 . S
H1178 C1199 0.950 . S
H1179 C1202 0.950 . S
H1180 C1203 0.950 . S
H1181 C1205 0.950 . S
H1182 C1206 0.950 . S
H1183 C1207 0.951 . S
H1184 C1209 0.951 . S
H1185 C1211 0.950 . S
H1186 C1212 0.950 . S
H1187 C1214 0.950 . S
H1188 C1217 0.950 . S
H1189 C1218 0.950 . S
H1190 C1220 0.950 . S
H1191 C1221 0.950 . S
C1192 H1174 0.951 . S
C1192 C1193 1.366 . S
C1192 C1194 1.388 . S
C1193 C1192 1.366 . S
C1193 C1197 1.385 . S
C1194 H1175 0.951 . S
C1194 C1192 1.388 . S
C1194 C1195 1.366 . S
C1195 C1194 1.366 . S
C1195 C1196 1.414 . S
C1195 C1198 1.499 . S
C1196 H1176 0.950 . S
C1196 C1195 1.414 . S
C1196 C1197 1.374 . S
C1197 H1177 0.950 . S
C1197 C1193 1.385 . S
C1197 C1196 1.374 . S
C1198 C1195 1.499 . S
C1198 C1199 1.373 . S
C1198 C1200 1.389 1_545 S
C1199 H1178 0.950 . S
C1199 C1198 1.373 . S
C1199 C1215 1.377 . S
C1200 C1198 1.389 1_565 S
C1200 C1201 1.524 . S
C1200 C1214 1.377 . S
C1201 C1200 1.524 . S
C1201 C1202 1.397 . S
C1201 C1206 1.363 . S
C1202 H1179 0.950 . S
C1202 C1201 1.397 . S
C1202 C1203 1.334 . S
C1203 H1180 0.950 . S
C1203 C1202 1.334 . S
C1203 C1204 1.287 . S
C1204 C1203 1.287 . S
C1204 C1205 1.524 . S
C1204 H1223 0.913 . S
C1205 H1181 0.950 . S
C1205 C1204 1.524 . S
C1205 C1206 1.415 . S
C1206 H1182 0.950 . S
C1206 C1201 1.363 . S
C1206 C1205 1.415 . S
C1207 H1183 0.951 . S
C1207 C1208 1.366 . S
C1207 C1209 1.388 . S
C1208 C1207 1.366 . S
C1208 C1212 1.385 . S
C1209 H1184 0.951 . S
C1209 C1207 1.388 . S
C1209 C1210 1.366 . S
C1210 C1209 1.366 . S
C1210 C1211 1.414 . S
C1210 C1213 1.499 . S
C1211 H1185 0.950 . S
C1211 C1210 1.414 . S
C1211 C1212 1.374 . S
C1212 H1186 0.950 . S
C1212 C1208 1.385 . S
C1212 C1211 1.374 . S
C1213 C1210 1.499 . S
C1213 C1214 1.373 . S
C1213 C1215 1.389 1_565 S
C1214 H1187 0.950 . S
C1214 C1200 1.377 . S
C1214 C1213 1.373 . S
C1215 C1199 1.377 . S
C1215 C1213 1.389 1_545 S
C1215 C1216 1.524 . S
C1216 C1215 1.524 . S
C1216 C1217 1.397 . S
C1216 C1221 1.363 . S
C1217 H1188 0.950 . S
C1217 C1216 1.397 . S
C1217 C1218 1.334 . S
C1218 H1189 0.950 . S
C1218 C1217 1.334 . S
C1218 C1219 1.287 . S
C1219 C1218 1.287 . S
C1219 C1220 1.524 . S
C1219 H1222 0.999 . S
C1220 H1190 0.950 . S
C1220 C1219 1.524 . S
C1220 C1221 1.415 . S
C1221 H1191 0.950 . S
C1221 C1216 1.363 . S
C1221 C1220 1.415 . S
H1222 C1219 0.999 . S
H1223 C1204 0.913 . S
H1224 C1242 0.951 . S
H1225 C1244 0.951 . S
H1226 C1246 0.950 . S
H1227 C1247 0.950 . S
H1228 C1249 0.950 . S
H1229 C1252 0.950 . S
H1230 C1253 0.950 . S
H1231 C1255 0.950 . S
H1232 C1256 0.950 . S
H1233 C1257 0.951 . S
H1234 C1259 0.951 . S
H1235 C1261 0.950 . S
H1236 C1262 0.950 . S
H1237 C1264 0.950 . S
H1238 C1267 0.950 . S
H1239 C1268 0.950 . S
H1240 C1270 0.950 . S
H1241 C1271 0.950 . S
C1242 H1224 0.951 . S
C1242 C1243 1.366 . S
C1242 C1244 1.388 . S
C1243 C1242 1.366 . S
C1243 C1247 1.385 . S
C1244 H1225 0.951 . S
C1244 C1242 1.388 . S
C1244 C1245 1.366 . S
C1245 C1244 1.366 . S
C1245 C1246 1.414 . S
C1245 C1248 1.499 . S
C1246 H1226 0.950 . S
C1246 C1245 1.414 . S
C1246 C1247 1.374 . S
C1247 H1227 0.950 . S
C1247 C1243 1.385 . S
C1247 C1246 1.374 . S
C1248 C1245 1.499 . S
C1248 C1249 1.373 . S
C1248 C1250 1.389 1_556 S
C1249 H1228 0.950 . S
C1249 C1248 1.373 . S
C1249 C1265 1.377 . S
C1250 C1248 1.389 1_554 S
C1250 C1251 1.524 . S
C1250 C1264 1.377 . S
C1251 C1250 1.524 . S
C1251 C1252 1.397 1_554 S
C1251 C1256 1.363 . S
C1252 H1229 0.950 . S
C1252 C1251 1.397 1_556 S
C1252 C1253 1.334 . S
C1253 H1230 0.950 . S
C1253 C1252 1.334 . S
C1253 C1254 1.287 1_556 S
C1254 C1253 1.287 1_554 S
C1254 C1255 1.524 . S
C1254 H1273 0.913 . S
C1255 H1231 0.950 . S
C1255 C1254 1.524 . S
C1255 C1256 1.415 . S
C1256 H1232 0.950 . S
C1256 C1251 1.363 . S
C1256 C1255 1.415 . S
C1257 H1233 0.951 . S
C1257 C1258 1.366 . S
C1257 C1259 1.388 . S
C1258 C1257 1.366 . S
C1258 C1262 1.385 . S
C1259 H1234 0.951 . S
C1259 C1257 1.388 . S
C1259 C1260 1.366 . S
C1260 C1259 1.366 . S
C1260 C1261 1.414 . S
C1260 C1263 1.499 . S
C1261 H1235 0.950 . S
C1261 C1260 1.414 . S
C1261 C1262 1.374 . S
C1262 H1236 0.950 . S
C1262 C1258 1.385 . S
C1262 C1261 1.374 . S
C1263 C1260 1.499 . S
C1263 C1264 1.373 . S
C1263 C1265 1.389 1_554 S
C1264 H1237 0.950 . S
C1264 C1250 1.377 . S
C1264 C1263 1.373 . S
C1265 C1249 1.377 . S
C1265 C1263 1.389 1_556 S
C1265 C1266 1.524 . S
C1266 C1265 1.524 . S
C1266 C1267 1.397 1_556 S
C1266 C1271 1.363 . S
C1267 H1238 0.950 . S
C1267 C1266 1.397 1_554 S
C1267 C1268 1.334 . S
C1268 H1239 0.950 . S
C1268 C1267 1.334 . S
C1268 C1269 1.287 1_554 S
C1269 C1268 1.287 1_556 S
C1269 C1270 1.524 . S
C1269 H1272 0.999 . S
C1270 H1240 0.950 . S
C1270 C1269 1.524 . S
C1270 C1271 1.415 . S
C1271 H1241 0.950 . S
C1271 C1266 1.363 . S
C1271 C1270 1.415 . S
H1272 C1269 0.999 . S
H1273 C1254 0.913 . S
H1274 C1292 0.951 . S
H1275 C1294 0.951 . S
H1276 C1296 0.950 . S
H1277 C1297 0.950 . S
H1278 C1299 0.950 . S
H1279 C1302 0.950 . S
H1280 C1303 0.950 . S
H1281 C1305 0.950 . S
H1282 C1306 0.950 . S
H1283 C1307 0.951 . S
H1284 C1309 0.951 . S
H1285 C1311 0.950 . S
H1286 C1312 0.950 . S
H1287 C1314 0.950 . S
H1288 C1317 0.950 . S
H1289 C1318 0.950 . S
H1290 C1320 0.950 . S
H1291 C1321 0.950 . S
C1292 H1274 0.951 . S
C1292 C1293 1.366 . S
C1292 C1294 1.388 . S
C1293 C1292 1.366 . S
C1293 C1297 1.385 . S
C1294 H1275 0.951 . S
C1294 C1292 1.388 . S
C1294 C1295 1.366 . S
C1295 C1294 1.366 . S
C1295 C1296 1.414 . S
C1295 C1298 1.499 . S
C1296 H1276 0.950 . S
C1296 C1295 1.414 . S
C1296 C1297 1.374 . S
C1297 H1277 0.950 . S
C1297 C1293 1.385 . S
C1297 C1296 1.374 . S
C1298 C1295 1.499 . S
C1298 C1299 1.373 . S
C1298 C1300 1.389 . S
C1299 H1278 0.950 . S
C1299 C1298 1.373 . S
C1299 C1315 1.377 1_455 S
C1300 C1298 1.389 . S
C1300 C1301 1.524 . S
C1300 C1314 1.377 1_455 S
C1301 C1300 1.524 . S
C1301 C1302 1.397 . S
C1301 C1306 1.363 1_455 S
C1302 H1279 0.950 . S
C1302 C1301 1.397 . S
C1302 C1303 1.334 . S
C1303 H1280 0.950 . S
C1303 C1302 1.334 . S
C1303 C1304 1.287 . S
C1304 C1303 1.287 . S
C1304 C1305 1.524 1_455 S
C1304 H1323 0.913 . S
C1305 H1281 0.950 . S
C1305 C1304 1.524 1_655 S
C1305 C1306 1.415 . S
C1306 H1282 0.950 . S
C1306 C1301 1.363 1_655 S
C1306 C1305 1.415 . S
C1307 H1283 0.951 . S
C1307 C1308 1.366 . S
C1307 C1309 1.388 . S
C1308 C1307 1.366 . S
C1308 C1312 1.385 . S
C1309 H1284 0.951 . S
C1309 C1307 1.388 . S
C1309 C1310 1.366 . S
C1310 C1309 1.366 . S
C1310 C1311 1.414 . S
C1310 C1313 1.499 . S
C1311 H1285 0.950 . S
C1311 C1310 1.414 . S
C1311 C1312 1.374 . S
C1312 H1286 0.950 . S
C1312 C1308 1.385 . S
C1312 C1311 1.374 . S
C1313 C1310 1.499 . S
C1313 C1314 1.373 . S
C1313 C1315 1.389 . S
C1314 H1287 0.950 . S
C1314 C1300 1.377 1_655 S
C1314 C1313 1.373 . S
C1315 C1299 1.377 1_655 S
C1315 C1313 1.389 . S
C1315 C1316 1.524 . S
C1316 C1315 1.524 . S
C1316 C1317 1.397 . S
C1316 C1321 1.363 1_655 S
C1317 H1288 0.950 . S
C1317 C1316 1.397 . S
C1317 C1318 1.334 . S
C1318 H1289 0.950 . S
C1318 C1317 1.334 . S
C1318 C1319 1.287 . S
C1319 C1318 1.287 . S
C1319 C1320 1.524 1_655 S
C1319 H1322 0.999 . S
C1320 H1290 0.950 . S
C1320 C1319 1.524 1_455 S
C1320 C1321 1.415 . S
C1321 H1291 0.950 . S
C1321 C1316 1.363 1_455 S
C1321 C1320 1.415 . S
H1322 C1319 0.999 . S
H1323 C1304 0.913 . S
H1324 C1342 0.951 . S
H1325 C1344 0.951 . S
H1326 C1346 0.950 . S
H1327 C1347 0.950 . S
H1328 C1349 0.950 . S
H1329 C1352 0.950 . S
H1330 C1353 0.950 . S
H1331 C1355 0.950 . S
H1332 C1356 0.950 1_545 S
H1333 C1357 0.951 . S
H1334 C1359 0.951 . S
H1335 C1361 0.950 . S
H1336 C1362 0.950 . S
H1337 C1364 0.950 . S
H1338 C1367 0.950 . S
H1339 C1368 0.950 . S
H1340 C1370 0.950 . S
H1341 C1371 0.950 1_565 S
C1342 H1324 0.951 . S
C1342 C1343 1.366 . S
C1342 C1344 1.388 . S
C1343 C1342 1.366 . S
C1343 C1347 1.385 . S
C1344 H1325 0.951 . S
C1344 C1342 1.388 . S
C1344 C1345 1.366 . S
C1345 C1344 1.366 . S
C1345 C1346 1.414 . S
C1345 C1348 1.499 . S
C1346 H1326 0.950 . S
C1346 C1345 1.414 . S
C1346 C1347 1.374 . S
C1347 H1327 0.950 . S
C1347 C1343 1.385 . S
C1347 C1346 1.374 . S
C1348 C1345 1.499 . S
C1348 C1349 1.373 . S
C1348 C1350 1.377 1_545 S
C1349 H1328 0.950 . S
C1349 C1348 1.373 . S
C1349 C1365 1.383 1_556 S
C1350 C1348 1.377 1_565 S
C1350 C1351 1.531 . S
C1350 C1364 1.383 1_556 S
C1351 C1350 1.531 . S
C1351 C1352 1.397 . S
C1351 C1356 1.363 . S
C1352 H1329 0.950 . S
C1352 C1351 1.397 . S
C1352 C1353 1.334 . S
C1353 H1330 0.950 . S
C1353 C1352 1.334 . S
C1353 C1354 1.287 . S
C1354 C1353 1.287 . S
C1354 C1355 1.524 . S
C1354 H1373 0.913 . S
C1355 H1331 0.950 . S
C1355 C1354 1.524 . S
C1355 C1356 1.415 . S
C1356 H1332 0.950 1_565 S
C1356 C1351 1.363 . S
C1356 C1355 1.415 . S
C1357 H1333 0.951 . S
C1357 C1358 1.366 . S
C1357 C1359 1.388 . S
C1358 C1357 1.366 . S
C1358 C1362 1.385 . S
C1359 H1334 0.951 . S
C1359 C1357 1.388 . S
C1359 C1360 1.366 . S
C1360 C1359 1.366 . S
C1360 C1361 1.414 . S
C1360 C1363 1.499 . S
C1361 H1335 0.950 . S
C1361 C1360 1.414 . S
C1361 C1362 1.374 . S
C1362 H1336 0.950 . S
C1362 C1358 1.385 . S
C1362 C1361 1.374 . S
C1363 C1360 1.499 . S
C1363 C1364 1.373 . S
C1363 C1365 1.377 1_565 S
C1364 H1337 0.950 . S
C1364 C1350 1.383 1_554 S
C1364 C1363 1.373 . S
C1365 C1349 1.383 1_554 S
C1365 C1363 1.377 1_545 S
C1365 C1366 1.531 . S
C1366 C1365 1.531 . S
C1366 C1367 1.397 . S
C1366 C1371 1.363 . S
C1367 H1338 0.950 . S
C1367 C1366 1.397 . S
C1367 C1368 1.334 . S
C1368 H1339 0.950 . S
C1368 C1367 1.334 . S
C1368 C1369 1.287 . S
C1369 C1368 1.287 . S
C1369 C1370 1.524 . S
C1369 H1372 0.999 . S
C1370 H1340 0.950 . S
C1370 C1369 1.524 . S
C1370 C1371 1.415 . S
C1371 H1341 0.950 1_545 S
C1371 C1366 1.363 . S
C1371 C1370 1.415 . S
H1372 C1369 0.999 . S
H1373 C1354 0.913 . S
H1374 C1392 0.951 . S
H1375 C1394 0.951 . S
H1376 C1396 0.950 . S
H1377 C1397 0.950 . S
H1378 C1399 0.950 . S
H1379 C1402 0.950 . S
H1380 C1403 0.950 . S
H1381 C1405 0.950 . S
H1382 C1406 0.950 . S
H1383 C1407 0.951 . S
H1384 C1409 0.951 . S
H1385 C1411 0.950 . S
H1386 C1412 0.950 . S
H1387 C1414 0.950 . S
H1388 C1417 0.950 . S
H1389 C1418 0.950 . S
H1390 C1420 0.950 . S
H1391 C1421 0.950 . S
C1392 H1374 0.951 . S
C1392 C1393 1.366 . S
C1392 C1394 1.388 . S
C1393 C1392 1.366 . S
C1393 C1397 1.385 . S
C1394 H1375 0.951 . S
C1394 C1392 1.388 . S
C1394 C1395 1.366 . S
C1395 C1394 1.366 . S
C1395 C1396 1.414 . S
C1395 C1398 1.499 . S
C1396 H1376 0.950 . S
C1396 C1395 1.414 . S
C1396 C1397 1.374 . S
C1397 H1377 0.950 . S
C1397 C1393 1.385 . S
C1397 C1396 1.374 . S
C1398 C1395 1.499 . S
C1398 C1399 1.373 . S
C1398 C1400 1.389 . S
C1399 H1378 0.950 . S
C1399 C1398 1.373 . S
C1399 C1415 1.377 . S
C1400 C1398 1.389 . S
C1400 C1401 1.524 . S
C1400 C1414 1.377 . S
C1401 C1400 1.524 . S
C1401 C1402 1.397 . S
C1401 C1406 1.363 . S
C1402 H1379 0.950 . S
C1402 C1401 1.397 . S
C1402 C1403 1.334 . S
C1403 H1380 0.950 . S
C1403 C1402 1.334 . S
C1403 C1404 1.287 . S
C1404 C1403 1.287 . S
C1404 C1405 1.524 . S
C1404 H1423 0.913 . S
C1405 H1381 0.950 . S
C1405 C1404 1.524 . S
C1405 C1406 1.415 . S
C1406 H1382 0.950 . S
C1406 C1401 1.363 . S
C1406 C1405 1.415 . S
C1407 H1383 0.951 . S
C1407 C1408 1.366 . S
C1407 C1409 1.388 . S
C1408 C1407 1.366 . S
C1408 C1412 1.385 . S
C1409 H1384 0.951 . S
C1409 C1407 1.388 . S
C1409 C1410 1.366 . S
C1410 C1409 1.366 . S
C1410 C1411 1.414 . S
C1410 C1413 1.499 . S
C1411 H1385 0.950 . S
C1411 C1410 1.414 . S
C1411 C1412 1.374 . S
C1412 H1386 0.950 . S
C1412 C1408 1.385 . S
C1412 C1411 1.374 . S
C1413 C1410 1.499 . S
C1413 C1414 1.373 . S
C1413 C1415 1.389 . S
C1414 H1387 0.950 . S
C1414 C1400 1.377 . S
C1414 C1413 1.373 . S
C1415 C1399 1.377 . S
C1415 C1413 1.389 . S
C1415 C1416 1.524 . S
C1416 C1415 1.524 . S
C1416 C1417 1.397 . S
C1416 C1421 1.363 . S
C1417 H1388 0.950 . S
C1417 C1416 1.397 . S
C1417 C1418 1.334 . S
C1418 H1389 0.950 . S
C1418 C1417 1.334 . S
C1418 C1419 1.287 . S
C1419 C1418 1.287 . S
C1419 C1420 1.524 . S
C1419 H1422 0.999 . S
C1420 H1390 0.950 . S
C1420 C1419 1.524 . S
C1420 C1421 1.415 . S
C1421 H1391 0.950 . S
C1421 C1416 1.363 . S
C1421 C1420 1.415 . S
H1422 C1419 0.999 . S
H1423 C1404 0.913 . S
H1424 C1442 0.951 . S
H1425 C1444 0.951 . S
H1426 C1446 0.950 . S
H1427 C1447 0.950 . S
H1428 C1449 0.950 . S
H1429 C1452 0.950 . S
H1430 C1453 0.950 . S
H1431 C1455 0.950 . S
H1432 C1456 0.950 1_655 S
H1433 C1457 0.951 . S
H1434 C1459 0.951 . S
H1435 C1461 0.950 . S
H1436 C1462 0.950 . S
H1437 C1464 0.950 . S
H1438 C1467 0.950 . S
H1439 C1468 0.950 . S
H1440 C1470 0.950 . S
H1441 C1471 0.950 1_455 S
C1442 H1424 0.951 . S
C1442 C1443 1.366 . S
C1442 C1444 1.388 . S
C1443 C1442 1.366 . S
C1443 C1447 1.385 . S
C1444 H1425 0.951 . S
C1444 C1442 1.388 . S
C1444 C1445 1.366 . S
C1445 C1444 1.366 . S
C1445 C1446 1.414 . S
C1445 C1448 1.499 . S
C1446 H1426 0.950 . S
C1446 C1445 1.414 . S
C1446 C1447 1.374 . S
C1447 H1427 0.950 . S
C1447 C1443 1.385 . S
C1447 C1446 1.374 . S
C1448 C1445 1.499 . S
C1448 C1449 1.373 . S
C1448 C1450 1.389 . S
C1449 H1428 0.950 . S
C1449 C1448 1.373 . S
C1449 C1465 1.377 1_454 S
C1450 C1448 1.389 . S
C1450 C1451 1.524 . S
C1450 C1464 1.377 1_454 S
C1451 C1450 1.524 . S
C1451 C1452 1.397 . S
C1451 C1456 1.363 . S
C1452 H1429 0.950 . S
C1452 C1451 1.397 . S
C1452 C1453 1.334 . S
C1453 H1430 0.950 . S
C1453 C1452 1.334 . S
C1453 C1454 1.287 . S
C1454 C1453 1.287 . S
C1454 C1455 1.524 . S
C1454 H1473 0.913 . S
C1455 H1431 0.950 . S
C1455 C1454 1.524 . S
C1455 C1456 1.415 . S
C1456 H1432 0.950 1_455 S
C1456 C1451 1.363 . S
C1456 C1455 1.415 . S
C1457 H1433 0.951 . S
C1457 C1458 1.366 . S
C1457 C1459 1.388 . S
C1458 C1457 1.366 . S
C1458 C1462 1.385 . S
C1459 H1434 0.951 . S
C1459 C1457 1.388 . S
C1459 C1460 1.366 . S
C1460 C1459 1.366 . S
C1460 C1461 1.414 . S
C1460 C1463 1.499 . S
C1461 H1435 0.950 . S
C1461 C1460 1.414 . S
C1461 C1462 1.374 . S
C1462 H1436 0.950 . S
C1462 C1458 1.385 . S
C1462 C1461 1.374 . S
C1463 C1460 1.499 . S
C1463 C1464 1.373 . S
C1463 C1465 1.389 . S
C1464 H1437 0.950 . S
C1464 C1450 1.377 1_656 S
C1464 C1463 1.373 . S
C1465 C1449 1.377 1_656 S
C1465 C1463 1.389 . S
C1465 C1466 1.524 . S
C1466 C1465 1.524 . S
C1466 C1467 1.397 . S
C1466 C1471 1.363 . S
C1467 H1438 0.950 . S
C1467 C1466 1.397 . S
C1467 C1468 1.334 . S
C1468 H1439 0.950 . S
C1468 C1467 1.334 . S
C1468 C1469 1.287 . S
C1469 C1468 1.287 . S
C1469 C1470 1.524 . S
C1469 H1472 0.999 . S
C1470 H1440 0.950 . S
C1470 C1469 1.524 . S
C1470 C1471 1.415 . S
C1471 H1441 0.950 1_655 S
C1471 C1466 1.363 . S
C1471 C1470 1.415 . S
H1472 C1469 0.999 . S
H1473 C1454 0.913 . S
H1474 C1492 0.951 . S
H1475 C1494 0.951 . S
H1476 C1496 0.950 . S
H1477 C1497 0.950 . S
H1478 C1499 0.950 . S
H1479 C1502 0.950 . S
H1480 C1503 0.950 . S
H1481 C1505 0.950 1_545 S
H1482 C1506 0.950 . S
H1483 C1507 0.951 . S
H1484 C1509 0.951 . S
H1485 C1511 0.950 . S
H1486 C1512 0.950 . S
H1487 C1514 0.950 . S
H1488 C1517 0.950 . S
H1489 C1518 0.950 . S
H1490 C1520 0.950 1_565 S
H1491 C1521 0.950 . S
C1492 H1474 0.951 . S
C1492 C1493 1.366 . S
C1492 C1494 1.388 . S
C1493 C1492 1.366 . S
C1493 C1497 1.385 . S
C1494 H1475 0.951 . S
C1494 C1492 1.388 . S
C1494 C1495 1.366 . S
C1495 C1494 1.366 . S
C1495 C1496 1.414 . S
C1495 C1498 1.499 . S
C1496 H1476 0.950 . S
C1496 C1495 1.414 . S
C1496 C1497 1.374 . S
C1497 H1477 0.950 . S
C1497 C1493 1.385 . S
C1497 C1496 1.374 . S
C1498 C1495 1.499 . S
C1498 C1499 1.373 . S
C1498 C1500 1.392 . S
C1499 H1478 0.950 . S
C1499 C1498 1.373 . S
C1499 C1515 1.359 1_545 S
C1500 C1498 1.392 . S
C1500 C1501 1.539 1_545 S
C1500 C1514 1.359 1_545 S
C1501 C1500 1.539 1_565 S
C1501 C1502 1.397 . S
C1501 C1506 1.363 1_565 S
C1502 H1479 0.950 . S
C1502 C1501 1.397 . S
C1502 C1503 1.334 . S
C1503 H1480 0.950 . S
C1503 C1502 1.334 . S
C1503 C1504 1.287 . S
C1504 C1503 1.287 . S
C1504 C1505 1.524 . S
C1504 H1523 0.913 . S
C1505 H1481 0.950 1_565 S
C1505 C1504 1.524 . S
C1505 C1506 1.415 1_565 S
C1506 H1482 0.950 . S
C1506 C1501 1.363 1_545 S
C1506 C1505 1.415 1_545 S
C1507 H1483 0.951 . S
C1507 C1508 1.366 . S
C1507 C1509 1.388 . S
C1508 C1507 1.366 . S
C1508 C1512 1.385 . S
C1509 H1484 0.951 . S
C1509 C1507 1.388 . S
C1509 C1510 1.366 . S
C1510 C1509 1.366 . S
C1510 C1511 1.414 . S
C1510 C1513 1.499 . S
C1511 H1485 0.950 . S
C1511 C1510 1.414 . S
C1511 C1512 1.374 . S
C1512 H1486 0.950 . S
C1512 C1508 1.385 . S
C1512 C1511 1.374 . S
C1513 C1510 1.499 . S
C1513 C1514 1.373 . S
C1513 C1515 1.392 . S
C1514 H1487 0.950 . S
C1514 C1500 1.359 1_565 S
C1514 C1513 1.373 . S
C1515 C1499 1.359 1_565 S
C1515 C1513 1.392 . S
C1515 C1516 1.539 1_565 S
C1516 C1515 1.539 1_545 S
C1516 C1517 1.397 . S
C1516 C1521 1.363 1_545 S
C1517 H1488 0.950 . S
C1517 C1516 1.397 . S
C1517 C1518 1.334 . S
C1518 H1489 0.950 . S
C1518 C1517 1.334 . S
C1518 C1519 1.287 . S
C1519 C1518 1.287 . S
C1519 C1520 1.524 . S
C1519 H1522 0.999 . S
C1520 H1490 0.950 1_545 S
C1520 C1519 1.524 . S
C1520 C1521 1.415 1_545 S
C1521 H1491 0.950 . S
C1521 C1516 1.363 1_565 S
C1521 C1520 1.415 1_565 S
H1522 C1519 0.999 . S
H1523 C1504 0.913 . S
C343 C32 1.997 . S
C358 C229 1.997 . S
C393 C302 1.997 . S
C408 C67 1.998 . S
C443 C13 1.997 . S
C458 C140 1.998 . S
C493 C86 1.998 . S
C508 C175 1.997 . S
C543 C248 1.997 . S
C558 C121 1.998 . S
C593 C283 1.997 . S
C608 C194 1.998 . S
C643 C22 1.014 . S
C658 C221 1.013 . S
C693 C59 1.013 . S
C708 C292 1.014 . S
C743 C5 1.013 . S
C758 C130 1.014 . S
C793 C76 1.013 . S
C808 C167 1.014 . S
C843 C113 1.014 . S
C858 C238 1.013 . S
C893 C275 1.014 . S
C908 C184 1.013 . S
C943 C10 2.444 . S
C958 C280 2.445 . S
C993 C81 2.444 . S
C1008 C27 2.444 . S
C1043 C118 2.445 . S
C1058 C64 2.444 . S
C1093 C189 2.444 . S
C1108 C135 2.445 . S
C1143 C172 2.444 . S
C1158 C226 2.445 . S
C1193 C297 2.445 . S
C1208 C243 2.445 . S
C1243 C190 0.559 . S
C1258 C136 0.560 . S
C1293 C251 0.560 . S
C1308 C197 0.558 . S
C1343 C298 0.558 . S
C1358 C244 0.560 . S
C1393 C305 0.560 . S
C1408 C35 0.558 . S
C1443 C28 0.560 . S
C1458 C82 0.558 . S
C1493 C89 0.558 . S
C1508 C143 0.560 . S
